# Generated by pormake.
# Topology uml, (4)-cn, num edge types: 1
# Building blocks:
#     Node 0, Type 0, BuildingBlock: NAWXER_clean_sbu_0, # of connection points: 4
#     Node 1, Type 0, BuildingBlock: NAWXER_clean_sbu_0, # of connection points: 4
#     Node 2, Type 0, BuildingBlock: NAWXER_clean_sbu_0, # of connection points: 4
#     Node 3, Type 0, BuildingBlock: NAWXER_clean_sbu_0, # of connection points: 4
#     Node 4, Type 0, BuildingBlock: NAWXER_clean_sbu_0, # of connection points: 4
#     Node 5, Type 0, BuildingBlock: NAWXER_clean_sbu_0, # of connection points: 4
#     Node 6, Type 0, BuildingBlock: NAWXER_clean_sbu_0, # of connection points: 4
#     Node 7, Type 0, BuildingBlock: NAWXER_clean_sbu_0, # of connection points: 4
#     Node 8, Type 0, BuildingBlock: NAWXER_clean_sbu_0, # of connection points: 4
#     Node 9, Type 0, BuildingBlock: NAWXER_clean_sbu_0, # of connection points: 4
#     Node 10, Type 0, BuildingBlock: NAWXER_clean_sbu_0, # of connection points: 4
#     Node 11, Type 0, BuildingBlock: NAWXER_clean_sbu_0, # of connection points: 4
#     Node 12, Type 0, BuildingBlock: NAWXER_clean_sbu_0, # of connection points: 4
#     Node 13, Type 0, BuildingBlock: NAWXER_clean_sbu_0, # of connection points: 4
#     Node 14, Type 0, BuildingBlock: NAWXER_clean_sbu_0, # of connection points: 4
#     Node 15, Type 0, BuildingBlock: NAWXER_clean_sbu_0, # of connection points: 4
#     Node 16, Type 0, BuildingBlock: NAWXER_clean_sbu_0, # of connection points: 4
#     Node 17, Type 0, BuildingBlock: NAWXER_clean_sbu_0, # of connection points: 4
#     Node 18, Type 0, BuildingBlock: NAWXER_clean_sbu_0, # of connection points: 4
#     Node 19, Type 0, BuildingBlock: NAWXER_clean_sbu_0, # of connection points: 4
#     Node 20, Type 0, BuildingBlock: NAWXER_clean_sbu_0, # of connection points: 4
#     Node 21, Type 0, BuildingBlock: NAWXER_clean_sbu_0, # of connection points: 4
#     Node 22, Type 0, BuildingBlock: NAWXER_clean_sbu_0, # of connection points: 4
#     Node 23, Type 0, BuildingBlock: NAWXER_clean_sbu_0, # of connection points: 4
#     Node 24, Type 0, BuildingBlock: NAWXER_clean_sbu_0, # of connection points: 4
#     Node 25, Type 0, BuildingBlock: NAWXER_clean_sbu_0, # of connection points: 4
#     Node 26, Type 0, BuildingBlock: NAWXER_clean_sbu_0, # of connection points: 4
#     Node 27, Type 0, BuildingBlock: NAWXER_clean_sbu_0, # of connection points: 4
#     Node 28, Type 0, BuildingBlock: NAWXER_clean_sbu_0, # of connection points: 4
#     Node 29, Type 0, BuildingBlock: NAWXER_clean_sbu_0, # of connection points: 4
#     Node 30, Type 0, BuildingBlock: NAWXER_clean_sbu_0, # of connection points: 4
#     Node 31, Type 0, BuildingBlock: NAWXER_clean_sbu_0, # of connection points: 4
#     Node 32, Type 0, BuildingBlock: NAWXER_clean_sbu_0, # of connection points: 4
#     Node 33, Type 0, BuildingBlock: NAWXER_clean_sbu_0, # of connection points: 4
#     Node 34, Type 0, BuildingBlock: NAWXER_clean_sbu_0, # of connection points: 4
#     Node 35, Type 0, BuildingBlock: NAWXER_clean_sbu_0, # of connection points: 4
#     Edge 36, Type (0, 0), BuildingBlock: CIFDUS_clean_linker_0, # of connection points: 2
#     Edge 37, Type (0, 0), BuildingBlock: CIFDUS_clean_linker_0, # of connection points: 2
#     Edge 38, Type (0, 0), BuildingBlock: CIFDUS_clean_linker_0, # of connection points: 2
#     Edge 39, Type (0, 0), BuildingBlock: CIFDUS_clean_linker_0, # of connection points: 2
#     Edge 40, Type (0, 0), BuildingBlock: CIFDUS_clean_linker_0, # of connection points: 2
#     Edge 41, Type (0, 0), BuildingBlock: CIFDUS_clean_linker_0, # of connection points: 2
#     Edge 42, Type (0, 0), BuildingBlock: CIFDUS_clean_linker_0, # of connection points: 2
#     Edge 43, Type (0, 0), BuildingBlock: CIFDUS_clean_linker_0, # of connection points: 2
#     Edge 44, Type (0, 0), BuildingBlock: CIFDUS_clean_linker_0, # of connection points: 2
#     Edge 45, Type (0, 0), BuildingBlock: CIFDUS_clean_linker_0, # of connection points: 2
#     Edge 46, Type (0, 0), BuildingBlock: CIFDUS_clean_linker_0, # of connection points: 2
#     Edge 47, Type (0, 0), BuildingBlock: CIFDUS_clean_linker_0, # of connection points: 2
#     Edge 48, Type (0, 0), BuildingBlock: CIFDUS_clean_linker_0, # of connection points: 2
#     Edge 49, Type (0, 0), BuildingBlock: CIFDUS_clean_linker_0, # of connection points: 2
#     Edge 50, Type (0, 0), BuildingBlock: CIFDUS_clean_linker_0, # of connection points: 2
#     Edge 51, Type (0, 0), BuildingBlock: CIFDUS_clean_linker_0, # of connection points: 2
#     Edge 52, Type (0, 0), BuildingBlock: CIFDUS_clean_linker_0, # of connection points: 2
#     Edge 53, Type (0, 0), BuildingBlock: CIFDUS_clean_linker_0, # of connection points: 2
#     Edge 54, Type (0, 0), BuildingBlock: CIFDUS_clean_linker_0, # of connection points: 2
#     Edge 55, Type (0, 0), BuildingBlock: CIFDUS_clean_linker_0, # of connection points: 2
#     Edge 56, Type (0, 0), BuildingBlock: CIFDUS_clean_linker_0, # of connection points: 2
#     Edge 57, Type (0, 0), BuildingBlock: CIFDUS_clean_linker_0, # of connection points: 2
#     Edge 58, Type (0, 0), BuildingBlock: CIFDUS_clean_linker_0, # of connection points: 2
#     Edge 59, Type (0, 0), BuildingBlock: CIFDUS_clean_linker_0, # of connection points: 2
#     Edge 60, Type (0, 0), BuildingBlock: CIFDUS_clean_linker_0, # of connection points: 2
#     Edge 61, Type (0, 0), BuildingBlock: CIFDUS_clean_linker_0, # of connection points: 2
#     Edge 62, Type (0, 0), BuildingBlock: CIFDUS_clean_linker_0, # of connection points: 2
#     Edge 63, Type (0, 0), BuildingBlock: CIFDUS_clean_linker_0, # of connection points: 2
#     Edge 64, Type (0, 0), BuildingBlock: CIFDUS_clean_linker_0, # of connection points: 2
#     Edge 65, Type (0, 0), BuildingBlock: CIFDUS_clean_linker_0, # of connection points: 2
#     Edge 66, Type (0, 0), BuildingBlock: CIFDUS_clean_linker_0, # of connection points: 2
#     Edge 67, Type (0, 0), BuildingBlock: CIFDUS_clean_linker_0, # of connection points: 2
#     Edge 68, Type (0, 0), BuildingBlock: CIFDUS_clean_linker_0, # of connection points: 2
#     Edge 69, Type (0, 0), BuildingBlock: CIFDUS_clean_linker_0, # of connection points: 2
#     Edge 70, Type (0, 0), BuildingBlock: CIFDUS_clean_linker_0, # of connection points: 2
#     Edge 71, Type (0, 0), BuildingBlock: CIFDUS_clean_linker_0, # of connection points: 2
#     Edge 72, Type (0, 0), BuildingBlock: CIFDUS_clean_linker_0, # of connection points: 2
#     Edge 73, Type (0, 0), BuildingBlock: CIFDUS_clean_linker_0, # of connection points: 2
#     Edge 74, Type (0, 0), BuildingBlock: CIFDUS_clean_linker_0, # of connection points: 2
#     Edge 75, Type (0, 0), BuildingBlock: CIFDUS_clean_linker_0, # of connection points: 2
#     Edge 76, Type (0, 0), BuildingBlock: CIFDUS_clean_linker_0, # of connection points: 2
#     Edge 77, Type (0, 0), BuildingBlock: CIFDUS_clean_linker_0, # of connection points: 2
#     Edge 78, Type (0, 0), BuildingBlock: CIFDUS_clean_linker_0, # of connection points: 2
#     Edge 79, Type (0, 0), BuildingBlock: CIFDUS_clean_linker_0, # of connection points: 2
#     Edge 80, Type (0, 0), BuildingBlock: CIFDUS_clean_linker_0, # of connection points: 2
#     Edge 81, Type (0, 0), BuildingBlock: CIFDUS_clean_linker_0, # of connection points: 2
#     Edge 82, Type (0, 0), BuildingBlock: CIFDUS_clean_linker_0, # of connection points: 2
#     Edge 83, Type (0, 0), BuildingBlock: CIFDUS_clean_linker_0, # of connection points: 2
#     Edge 84, Type (0, 0), BuildingBlock: CIFDUS_clean_linker_0, # of connection points: 2
#     Edge 85, Type (0, 0), BuildingBlock: CIFDUS_clean_linker_0, # of connection points: 2
#     Edge 86, Type (0, 0), BuildingBlock: CIFDUS_clean_linker_0, # of connection points: 2
#     Edge 87, Type (0, 0), BuildingBlock: CIFDUS_clean_linker_0, # of connection points: 2
#     Edge 88, Type (0, 0), BuildingBlock: CIFDUS_clean_linker_0, # of connection points: 2
#     Edge 89, Type (0, 0), BuildingBlock: CIFDUS_clean_linker_0, # of connection points: 2
#     Edge 90, Type (0, 0), BuildingBlock: CIFDUS_clean_linker_0, # of connection points: 2
#     Edge 91, Type (0, 0), BuildingBlock: CIFDUS_clean_linker_0, # of connection points: 2
#     Edge 92, Type (0, 0), BuildingBlock: CIFDUS_clean_linker_0, # of connection points: 2
#     Edge 93, Type (0, 0), BuildingBlock: CIFDUS_clean_linker_0, # of connection points: 2
#     Edge 94, Type (0, 0), BuildingBlock: CIFDUS_clean_linker_0, # of connection points: 2
#     Edge 95, Type (0, 0), BuildingBlock: CIFDUS_clean_linker_0, # of connection points: 2
#     Edge 96, Type (0, 0), BuildingBlock: CIFDUS_clean_linker_0, # of connection points: 2
#     Edge 97, Type (0, 0), BuildingBlock: CIFDUS_clean_linker_0, # of connection points: 2
#     Edge 98, Type (0, 0), BuildingBlock: CIFDUS_clean_linker_0, # of connection points: 2
#     Edge 99, Type (0, 0), BuildingBlock: CIFDUS_clean_linker_0, # of connection points: 2
#     Edge 100, Type (0, 0), BuildingBlock: CIFDUS_clean_linker_0, # of connection points: 2
#     Edge 101, Type (0, 0), BuildingBlock: CIFDUS_clean_linker_0, # of connection points: 2
#     Edge 102, Type (0, 0), BuildingBlock: CIFDUS_clean_linker_0, # of connection points: 2
#     Edge 103, Type (0, 0), BuildingBlock: CIFDUS_clean_linker_0, # of connection points: 2
#     Edge 104, Type (0, 0), BuildingBlock: CIFDUS_clean_linker_0, # of connection points: 2
#     Edge 105, Type (0, 0), BuildingBlock: CIFDUS_clean_linker_0, # of connection points: 2
#     Edge 106, Type (0, 0), BuildingBlock: CIFDUS_clean_linker_0, # of connection points: 2
#     Edge 107, Type (0, 0), BuildingBlock: CIFDUS_clean_linker_0, # of connection points: 2
# Relax obj value: 0.036
# Max RMSD: 0.160
# Mean RMSD: 0.157
data_MOF--net-uml--node1-NAWXER_clean_sbu_0--edge1-CIFDUS_clean_linker_0
_symmetry_space_group_name_H-M    P1
_symmetry_Int_Tables_number       1
_symmetry_cell_setting            triclinic
loop_
_symmetry_equiv_pos_as_xyz
'x, y, z'
_cell_length_a     85.305043
_cell_length_b     85.40191
_cell_length_c     25.478133
_cell_angle_alpha  90.039442
_cell_angle_beta   90.014612
_cell_angle_gamma 119.9787
loop_
_atom_site_label
_atom_site_type_symbol
_atom_site_fract_x
_atom_site_fract_y
_atom_site_fract_z
_atom_type_partial_charge
C0 C 0.3496 0.12927 0.17443 0.0
C1 C 0.37163 0.08648 0.14879 0.0
O2 O 0.33681 0.11279 0.17162 0.0
Zn3 Zn 0.33402 0.08647 0.1646 0.0
O4 O 0.36592 0.1327 0.17413 0.0
Zn5 Zn 0.36107 0.10792 0.16725 0.0
O6 O 0.34869 0.10061 0.09072 0.0
O7 O 0.3205 0.07832 0.10081 0.0
O8 O 0.38109 0.10342 0.15676 0.0
O9 O 0.35431 0.07873 0.15191 0.0
O10 O 0.32173 0.0744 0.22729 0.0
O11 O 0.34981 0.09595 0.24244 0.0
C12 C 0.3333 0.08915 0.07107 0.0
C13 C 0.3345 0.08332 0.25942 0.0
C14 C 0.90926 0.25458 0.07908 0.0
C15 C 0.91354 0.26027 0.272 0.0
O16 O 0.89678 0.2567 0.10008 0.0
Zn17 Zn 0.88822 0.25963 0.17764 0.0
O18 O 0.92059 0.25316 0.1084 0.0
Zn19 Zn 0.91128 0.25652 0.17477 0.0
O20 O 0.88599 0.23145 0.17938 0.0
O21 O 0.86442 0.23842 0.18283 0.0
O22 O 0.92348 0.25745 0.24078 0.0
O23 O 0.90023 0.26148 0.25324 0.0
O24 O 0.89009 0.28302 0.16934 0.0
O25 O 0.91625 0.28378 0.16214 0.0
C26 C 0.86912 0.22646 0.18195 0.0
C27 C 0.90698 0.29187 0.1598 0.0
C28 C 0.76122 0.67364 0.07583 0.0
C29 C 0.75309 0.67126 0.26408 0.0
O30 O 0.75948 0.65903 0.09555 0.0
Zn31 Zn 0.75587 0.647 0.17248 0.0
O32 O 0.76118 0.68561 0.10543 0.0
Zn33 Zn 0.75717 0.67225 0.16898 0.0
O34 O 0.78302 0.67383 0.17726 0.0
O35 O 0.77803 0.64594 0.17959 0.0
O36 O 0.7548 0.68326 0.23164 0.0
O37 O 0.75305 0.65705 0.24743 0.0
O38 O 0.73307 0.62471 0.16196 0.0
O39 O 0.73069 0.64911 0.15278 0.0
C40 C 0.78913 0.66285 0.18022 0.0
C41 C 0.72352 0.63184 0.15034 0.0
C42 C 0.13391 0.35103 0.33067 0.0
C43 C 0.09694 0.37945 0.35776 0.0
O44 O 0.11694 0.33952 0.33289 0.0
Zn45 Zn 0.09197 0.33978 0.33996 0.0
O46 O 0.13913 0.36782 0.33129 0.0
Zn47 Zn 0.1154 0.3656 0.3372 0.0
O48 O 0.10709 0.35333 0.4137 0.0
O49 O 0.08281 0.32631 0.40342 0.0
O50 O 0.11373 0.38726 0.34704 0.0
O51 O 0.08747 0.36214 0.35524 0.0
O52 O 0.07911 0.32848 0.27686 0.0
O53 O 0.10311 0.35515 0.26207 0.0
C54 C 0.09453 0.33848 0.43321 0.0
C55 C 0.08933 0.34069 0.24484 0.0
C56 C 0.66612 0.75509 0.43601 0.0
C57 C 0.66958 0.7517 0.24627 0.0
O58 O 0.65239 0.75405 0.41235 0.0
Zn59 Zn 0.64278 0.75243 0.33393 0.0
O60 O 0.67911 0.75573 0.40969 0.0
Zn61 Zn 0.6683 0.75369 0.34174 0.0
O62 O 0.66994 0.77933 0.33623 0.0
O63 O 0.64234 0.77506 0.32924 0.0
O64 O 0.68097 0.75296 0.28053 0.0
O65 O 0.65491 0.75117 0.2609 0.0
O66 O 0.62039 0.72921 0.33954 0.0
O67 O 0.64509 0.72716 0.3474 0.0
C68 C 0.65933 0.78582 0.33221 0.0
C69 C 0.62779 0.71965 0.34749 0.0
C70 C 0.23033 0.86713 0.33847 0.0
C71 C 0.29575 0.90945 0.35429 0.0
O72 O 0.23461 0.88379 0.3395 0.0
Zn73 Zn 0.2583 0.90982 0.34188 0.0
O74 O 0.24283 0.86312 0.33797 0.0
Zn75 Zn 0.26351 0.88776 0.34101 0.0
O76 O 0.26025 0.89643 0.41706 0.0
O77 O 0.25473 0.91896 0.4084 0.0
O78 O 0.2882 0.89234 0.34977 0.0
O79 O 0.28616 0.91712 0.35051 0.0
O80 O 0.25752 0.92062 0.2753 0.0
O81 O 0.2638 0.89872 0.26482 0.0
C82 C 0.25723 0.90833 0.43783 0.0
C83 C 0.26119 0.91105 0.24501 0.0
C84 C 0.65333 0.86975 0.83615 0.0
C85 C 0.62922 0.91101 0.85506 0.0
O86 O 0.63697 0.86603 0.83191 0.0
Zn87 Zn 0.64087 0.89041 0.83931 0.0
O88 O 0.66575 0.88627 0.84205 0.0
Zn89 Zn 0.6676 0.91214 0.84866 0.0
O90 O 0.67874 0.91972 0.9165 0.0
O91 O 0.65058 0.89696 0.91888 0.0
O92 O 0.64658 0.91908 0.85562 0.0
O93 O 0.62022 0.89415 0.8452 0.0
O94 O 0.65399 0.90365 0.76685 0.0
O95 O 0.68146 0.92513 0.7884 0.0
C96 C 0.66504 0.90844 0.94278 0.0
C97 C 0.66963 0.91664 0.75335 0.0
C98 C 0.0877 0.76212 0.93359 0.0
C99 C 0.08285 0.75458 0.74467 0.0
O100 O 0.07565 0.76198 0.90393 0.0
Zn101 Zn 0.08506 0.75796 0.83999 0.0
O102 O 0.10045 0.76016 0.9139 0.0
Zn103 Zn 0.10894 0.75623 0.83797 0.0
O104 O 0.13235 0.77804 0.83198 0.0
O105 O 0.10968 0.78348 0.83267 0.0
O106 O 0.09672 0.75414 0.76235 0.0
O107 O 0.07232 0.75624 0.77643 0.0
O108 O 0.08118 0.73128 0.85395 0.0
O109 O 0.10791 0.73324 0.849 0.0
C110 C 0.12673 0.78931 0.83068 0.0
C111 C 0.091 0.72382 0.85748 0.0
C112 C 0.26184 0.34116 0.74611 0.0
C113 C 0.25509 0.33926 0.93452 0.0
O114 O 0.26023 0.32916 0.77834 0.0
Zn115 Zn 0.25873 0.34054 0.84126 0.0
O116 O 0.26234 0.35556 0.76313 0.0
Zn117 Zn 0.26061 0.36607 0.83832 0.0
O118 O 0.28375 0.38802 0.84704 0.0
O119 O 0.28558 0.3633 0.85548 0.0
O120 O 0.25709 0.35401 0.91506 0.0
O121 O 0.25483 0.32721 0.90466 0.0
O122 O 0.23315 0.33972 0.83472 0.0
O123 O 0.23886 0.36788 0.83286 0.0
C124 C 0.29312 0.38061 0.85736 0.0
C125 C 0.22744 0.35104 0.83253 0.0
C126 C 0.90859 0.65426 0.57859 0.0
C127 C 0.91147 0.65188 0.77135 0.0
O128 O 0.92053 0.66643 0.60813 0.0
Zn129 Zn 0.9103 0.65398 0.67424 0.0
O130 O 0.89525 0.64024 0.5992 0.0
Zn131 Zn 0.88554 0.62874 0.67576 0.0
O132 O 0.86275 0.6289 0.67919 0.0
O133 O 0.88657 0.65629 0.67819 0.0
O134 O 0.8975 0.63811 0.75187 0.0
O135 O 0.92249 0.66423 0.74076 0.0
O136 O 0.91275 0.63041 0.66116 0.0
O137 O 0.88564 0.60611 0.66651 0.0
C138 C 0.86936 0.64596 0.67937 0.0
C139 C 0.90252 0.61321 0.65752 0.0
C140 C 0.34725 0.25654 0.77359 0.0
C141 C 0.34517 0.25268 0.58015 0.0
O142 O 0.33457 0.25481 0.7435 0.0
Zn143 Zn 0.34538 0.25443 0.67628 0.0
O144 O 0.36148 0.25751 0.75332 0.0
Zn145 Zn 0.37143 0.25643 0.67646 0.0
O146 O 0.39321 0.27986 0.66819 0.0
O147 O 0.36805 0.28125 0.66697 0.0
O148 O 0.35964 0.25433 0.60059 0.0
O149 O 0.33269 0.2517 0.60984 0.0
O150 O 0.3448 0.22927 0.67871 0.0
O151 O 0.37275 0.23424 0.67809 0.0
C152 C 0.38535 0.28911 0.66323 0.0
C153 C 0.35579 0.22317 0.67875 0.0
C154 C 0.78986 0.13388 0.67932 0.0
C155 C 0.72445 0.1014 0.64869 0.0
O156 O 0.77949 0.14052 0.67484 0.0
Zn157 Zn 0.75668 0.11787 0.67109 0.0
O158 O 0.78293 0.11667 0.68068 0.0
Zn159 Zn 0.75661 0.09307 0.67573 0.0
O160 O 0.76 0.08165 0.6148 0.0
O161 O 0.75985 0.10698 0.59784 0.0
O162 O 0.73091 0.09082 0.65581 0.0
O163 O 0.73451 0.11827 0.65669 0.0
O164 O 0.75317 0.10721 0.74928 0.0
O165 O 0.75356 0.08167 0.74349 0.0
C166 C 0.7608 0.09323 0.58186 0.0
C167 C 0.75242 0.09336 0.77144 0.0
C168 C 1.00092 0.41309 0.60261 0.0
C169 C 0.99866 0.41745 0.41309 0.0
O170 O 0.01542 0.4265 0.58417 0.0
Zn171 Zn 0.02583 0.43831 0.50869 0.0
O172 O 0.98837 0.40269 0.57149 0.0
Zn173 Zn 0.99957 0.41482 0.5072 0.0
O174 O 0.02164 0.40986 0.49505 0.0
O175 O 0.04719 0.43596 0.49811 0.0
O176 O 0.98634 0.40569 0.44244 0.0
O177 O 0.01344 0.42986 0.43326 0.0
O178 O 0.02802 0.46212 0.51385 0.0
O179 O 0.99972 0.43985 0.51375 0.0
C180 C 0.03895 0.41892 0.49128 0.0
C181 C 0.01118 0.45681 0.51534 0.0
C182 C 0.53587 0.55951 0.5206 0.0
C183 C 0.572 0.62497 0.49422 0.0
O184 O 0.55274 0.56509 0.51402 0.0
Zn185 Zn 0.57734 0.59029 0.50518 0.0
O186 O 0.5306 0.57101 0.52455 0.0
Zn187 Zn 0.55407 0.59275 0.51558 0.0
O188 O 0.56056 0.58944 0.43553 0.0
O189 O 0.58499 0.58668 0.43757 0.0
O190 O 0.55555 0.6162 0.50883 0.0
O191 O 0.58139 0.61702 0.49326 0.0
O192 O 0.59161 0.59168 0.56538 0.0
O193 O 0.56823 0.59458 0.58753 0.0
C194 C 0.5727 0.5875 0.41147 0.0
C195 C 0.58234 0.59377 0.6007 0.0
C196 C 0.42836 1.00329 0.41472 0.0
C197 C 0.4215 1.00087 0.60306 0.0
O198 O 0.4276 0.98901 0.43379 0.0
Zn199 Zn 0.42529 0.97736 0.51127 0.0
O200 O 0.42786 0.01487 0.44495 0.0
Zn201 Zn 0.42514 1.00175 0.50788 0.0
O202 O 0.4518 0.00487 0.51342 0.0
O203 O 0.44786 0.97738 0.51661 0.0
O204 O 0.4225 0.01251 0.57048 0.0
O205 O 0.42219 0.98702 0.58657 0.0
O206 O 0.40349 0.9543 0.50273 0.0
O207 O 0.39917 0.97753 0.49279 0.0
C208 C 0.45848 0.99437 0.51577 0.0
C209 C 0.39305 0.96039 0.49118 0.0
C210 C 0.79517 0.67716 0.6612 0.0
C211 C 0.76439 0.71175 0.69111 0.0
O212 O 0.77793 0.66708 0.66387 0.0
Zn213 Zn 0.75471 0.67046 0.67175 0.0
O214 O 0.80208 0.69424 0.66171 0.0
Zn215 Zn 0.7797 0.69482 0.66835 0.0
O216 O 0.77072 0.68286 0.74509 0.0
O217 O 0.74475 0.65727 0.73537 0.0
O218 O 0.7809 0.71791 0.67902 0.0
O219 O 0.75336 0.69464 0.68855 0.0
O220 O 0.74117 0.66018 0.60869 0.0
O221 O 0.76677 0.68537 0.59334 0.0
C222 C 0.75727 0.66871 0.76488 0.0
C223 C 0.7521 0.67177 0.57641 0.0
C224 C 0.33422 0.08168 0.57161 0.0
C225 C 0.33739 0.09013 0.75987 0.0
O226 O 0.32056 0.08263 0.58855 0.0
Zn227 Zn 0.31102 0.08598 0.66335 0.0
O228 O 0.34593 0.08254 0.60386 0.0
Zn229 Zn 0.33558 0.08577 0.66678 0.0
O230 O 0.31153 0.06013 0.68359 0.0
O231 O 0.28803 0.06406 0.67346 0.0
O232 O 0.34887 0.08916 0.73025 0.0
O233 O 0.3231 0.08921 0.74019 0.0
O234 O 0.31112 0.10855 0.65651 0.0
O235 O 0.33858 0.11222 0.65887 0.0
C236 C 0.29437 0.05388 0.68573 0.0
C237 C 0.32818 0.11901 0.65614 0.0
C238 C 0.96095 0.24391 0.69166 0.0
C239 C 0.89501 0.20907 0.6685 0.0
O240 O 0.95348 0.25371 0.6885 0.0
Zn241 Zn 0.92703 0.25037 0.67549 0.0
O242 O 0.95151 0.227 0.68286 0.0
Zn243 Zn 0.92833 0.226 0.67387 0.0
O244 O 0.93025 0.23766 0.59775 0.0
O245 O 0.92846 0.2623 0.60862 0.0
O246 O 0.90577 0.20282 0.66974 0.0
O247 O 0.90148 0.2262 0.66996 0.0
O248 O 0.9238 0.25989 0.74202 0.0
O249 O 0.9258 0.23519 0.75038 0.0
C250 C 0.92991 0.25132 0.57807 0.0
C251 C 0.9243 0.24804 0.77127 0.0
C252 C 0.32198 0.24098 0.07983 0.0
C253 C 0.32321 0.23691 0.27272 0.0
O254 O 0.335 0.25047 0.11087 0.0
Zn255 Zn 0.3234 0.23879 0.17699 0.0
O256 O 0.30712 0.22828 0.09881 0.0
Zn257 Zn 0.29657 0.21673 0.1745 0.0
O258 O 0.27595 0.22026 0.18282 0.0
O259 O 0.30226 0.24548 0.18921 0.0
O260 O 0.30831 0.22494 0.25181 0.0
O261 O 0.33623 0.24771 0.2433 0.0
O262 O 0.32155 0.21275 0.17265 0.0
O263 O 0.29259 0.19236 0.1695 0.0
C264 C 0.2849 0.23718 0.19177 0.0
C265 C 0.30901 0.19614 0.17023 0.0
C266 C 0.76421 0.09316 0.26951 0.0
C267 C 0.76381 0.08519 0.07985 0.0
O268 O 0.75386 0.09453 0.23613 0.0
Zn269 Zn 0.76425 0.08974 0.17527 0.0
O270 O 0.77669 0.09005 0.25394 0.0
Zn271 Zn 0.7866 0.08548 0.18091 0.0
O272 O 0.81103 0.10623 0.17796 0.0
O273 O 0.79006 0.11399 0.17264 0.0
O274 O 0.77631 0.08338 0.10217 0.0
O275 O 0.75374 0.08889 0.10763 0.0
O276 O 0.75764 0.06227 0.19139 0.0
O277 O 0.78314 0.06159 0.19551 0.0
C278 C 0.80681 0.11852 0.17438 0.0
C279 C 0.76598 0.05346 0.19943 0.0
C280 C 0.89279 0.68655 0.17115 0.0
C281 C 0.95894 0.71411 0.18767 0.0
O282 O 0.90433 0.70337 0.17183 0.0
Zn283 Zn 0.92624 0.70131 0.17426 0.0
O284 O 0.89837 0.67515 0.17172 0.0
Zn285 Zn 0.92316 0.67484 0.17478 0.0
O286 O 0.92019 0.66223 0.24122 0.0
O287 O 0.92388 0.68959 0.2502 0.0
O288 O 0.95045 0.69681 0.1838 0.0
O289 O 0.95022 0.72255 0.18296 0.0
O290 O 0.92724 0.69108 0.09769 0.0
O291 O 0.9232 0.66368 0.10809 0.0
C292 C 0.92181 0.675 0.27077 0.0
C293 C 0.92571 0.67656 0.0778 0.0
C294 C 0.57738 0.9931 0.90561 0.0
C295 C 0.58603 0.99651 0.09497 0.0
O296 O 0.58972 0.00606 0.93201 0.0
Zn297 Zn 0.58154 0.99493 0.9995 0.0
O298 O 0.5649 0.97922 0.92935 0.0
Zn299 Zn 0.55776 0.96961 0.00912 0.0
O300 O 0.53452 0.9686 0.01653 0.0
O301 O 0.55731 0.99638 0.00771 0.0
O302 O 0.57173 0.98182 0.08152 0.0
O303 O 0.59571 0.00768 0.05981 0.0
O304 O 0.58497 0.97175 0.98927 0.0
O305 O 0.5586 0.94729 1.00347 0.0
C306 C 0.5403 0.98549 0.01339 0.0
C307 C 0.57517 0.95446 0.99036 0.0
C308 C 0.05946 0.62713 0.98733 0.0
C309 C 0.03524 0.56192 0.00824 0.0
O310 O 0.06846 0.6192 0.9962 0.0
Zn311 Zn 0.04792 0.59496 1.0045 0.0
O312 O 0.04211 0.61805 0.98996 0.0
Zn313 Zn 0.02103 0.59035 1.00209 0.0
O314 O 0.00942 0.59021 0.06849 0.0
O315 O 0.03724 0.59559 0.08028 0.0
O316 O 0.02288 0.56627 1.00613 0.0
O317 O 0.05175 0.57436 0.00897 0.0
O318 O 0.0361 0.59132 0.92744 0.0
O319 O 0.00817 0.58625 0.93568 0.0
C320 C 0.02237 0.59341 0.09945 0.0
C321 C 0.02119 0.58832 0.90643 0.0
C322 C 0.45818 0.46367 1.0043 0.0
C323 C 0.39253 0.42394 0.98204 0.0
O324 O 0.44626 0.4684 0.99986 0.0
Zn325 Zn 0.42496 0.44424 0.99844 0.0
O326 O 0.45311 0.44681 0.00699 0.0
Zn327 Zn 0.42845 0.42135 1.0048 0.0
O328 O 0.43277 0.41059 0.94376 0.0
O329 O 0.42906 0.43387 0.92605 0.0
O330 O 0.40109 0.41533 0.98984 0.0
O331 O 0.40107 0.44112 0.98497 0.0
O332 O 0.42336 0.43453 0.07743 0.0
O333 O 0.42773 0.41121 0.07295 0.0
C334 C 0.43179 0.42115 0.91043 0.0
C335 C 0.42485 0.42195 0.1003 0.0
C336 C 0.69449 0.80351 0.85069 0.0
C337 C 0.71655 0.7604 0.83298 0.0
O338 O 0.68183 0.78709 0.84515 0.0
Zn339 Zn 0.67902 0.76088 0.83885 0.0
O340 O 0.71077 0.80694 0.85478 0.0
Zn341 Zn 0.7062 0.78219 0.84792 0.0
O342 O 0.6964 0.77579 0.76884 0.0
O343 O 0.66795 0.75359 0.77084 0.0
O344 O 0.72617 0.77727 0.84214 0.0
O345 O 0.69925 0.75299 0.83257 0.0
O346 O 0.66499 0.74835 0.89933 0.0
O347 O 0.69276 0.7694 0.92019 0.0
C348 C 0.68185 0.76463 0.74479 0.0
C349 C 0.67698 0.75679 0.93407 0.0
C350 C 0.2502 0.92452 0.93848 0.0
C351 C 0.24799 0.92045 0.74558 0.0
O352 O 0.23734 0.92622 0.91824 0.0
Zn353 Zn 0.22633 0.92545 0.84166 0.0
O354 O 0.26056 0.92185 0.90851 0.0
Zn355 Zn 0.24954 0.9219 0.84164 0.0
O356 O 0.25522 0.94918 0.83278 0.0
O357 O 0.22952 0.94958 0.83273 0.0
O358 O 0.25909 0.91874 0.77516 0.0
O359 O 0.23558 0.92274 0.76613 0.0
O360 O 0.20225 0.90387 0.84388 0.0
O361 O 0.22426 0.89748 0.84469 0.0
C362 C 0.2467 0.95795 0.82864 0.0
C363 C 0.20733 0.89217 0.84496 0.0
C364 C 0.09778 0.34287 0.74425 0.0
C365 C 0.09094 0.3407 0.93262 0.0
O366 O 0.09534 0.32794 0.76348 0.0
Zn367 Zn 0.09153 0.31556 0.83948 0.0
O368 O 0.0986 0.35512 0.77437 0.0
Zn369 Zn 0.09452 0.34171 0.83786 0.0
O370 O 0.11942 0.34148 0.8443 0.0
O371 O 0.11305 0.31312 0.84487 0.0
O372 O 0.09352 0.35317 0.90082 0.0
O373 O 0.08976 0.32601 0.91522 0.0
O374 O 0.06786 0.29416 0.8287 0.0
O375 O 0.06736 0.31972 0.8253 0.0
C376 C 0.12475 0.32988 0.846 0.0
C377 C 0.05908 0.30242 0.82153 0.0
C378 C 0.42216 0.99962 0.10395 0.0
C379 C 0.41784 1.0018 0.91509 0.0
O380 O 0.43512 0.01421 0.08443 0.0
Zn381 Zn 0.44397 0.02629 0.00796 0.0
O382 O 0.41014 0.98774 0.07415 0.0
Zn383 Zn 0.41985 1.00103 0.01056 0.0
O384 O 0.44426 0.99957 1.00453 0.0
O385 O 0.46729 0.02744 1.00289 0.0
O386 O 0.40709 0.98991 0.94706 0.0
O387 O 0.43186 0.016 0.93252 0.0
O388 O 0.44327 0.0485 0.01685 0.0
O389 O 0.41639 0.02415 0.02455 0.0
C390 C 0.46138 0.0105 1.00256 0.0
C391 C 0.42647 0.04142 0.02673 0.0
C392 C 0.99111 0.45417 1.00029 0.0
C393 C 0.96536 0.38895 0.02532 0.0
O394 O 1.00328 0.44959 1.00295 0.0
Zn395 Zn 1.00427 0.42505 0.00905 0.0
O396 O 0.97454 0.44191 1.00025 0.0
Zn397 Zn 0.97781 0.42106 0.00677 0.0
O398 O 0.98994 0.4249 0.0834 0.0
O399 O 0.0176 0.42927 0.07294 0.0
O400 O 0.95677 0.39737 0.01748 0.0
O401 O 0.98269 0.39751 0.02176 0.0
O402 O 0.01594 0.42425 0.94595 0.0
O403 O 0.98823 0.41898 0.93154 0.0
C404 C 1.00498 0.42769 0.10294 0.0
C405 C 1.00313 0.42067 0.91422 0.0
C406 C 0.58626 0.58476 0.10281 0.0
C407 C 0.59064 0.59326 0.91297 0.0
O408 O 0.58941 0.57346 0.07865 0.0
Zn409 Zn 0.5931 0.56713 0.99982 0.0
O410 O 0.58431 0.59641 0.07693 0.0
Zn411 Zn 0.58859 0.5894 0.00861 0.0
O412 O 0.56458 0.5638 0.9995 0.0
O413 O 0.57216 0.54273 0.99252 0.0
O414 O 0.58808 0.60243 0.9477 0.0
O415 O 0.59293 0.5801 0.92713 0.0
O416 O 0.61767 0.57107 1.00641 0.0
O417 O 0.6163 0.59602 0.01653 0.0
C418 C 0.55994 0.54712 0.99423 0.0
C419 C 0.62557 0.58794 0.01626 0.0
C420 C 0.99902 0.57709 0.59872 0.0
C421 C 0.99686 0.57947 0.40564 0.0
O422 O 0.0115 0.58851 0.56896 0.0
Zn423 Zn 0.99879 0.57854 0.5027 0.0
O424 O 0.98455 0.56427 0.57831 0.0
Zn425 Zn 0.97276 0.55476 0.50221 0.0
O426 O 0.97126 0.53128 0.49948 0.0
O427 O 0.99938 0.55387 0.49931 0.0
O428 O 0.98259 0.56614 0.42546 0.0
O429 O 0.00959 0.59009 0.43604 0.0
O430 O 0.9761 0.58278 0.51279 0.0
O431 O 0.95091 0.55628 0.51142 0.0
C432 C 0.98815 0.53684 0.49875 0.0
C433 C 0.9588 0.57337 0.51681 0.0
C434 C 0.43701 0.42287 0.59838 0.0
C435 C 0.43759 0.41559 0.40878 0.0
O436 O 0.42609 0.42317 0.56488 0.0
Zn437 Zn 0.43758 0.41981 0.50449 0.0
O438 O 0.45048 0.42129 0.58298 0.0
Zn439 Zn 0.4614 0.4182 0.50925 0.0
O440 O 0.48475 0.44014 0.50669 0.0
O441 O 0.46211 0.44556 0.50286 0.0
O442 O 0.45096 0.41533 0.4309 0.0
O443 O 0.42656 0.41782 0.43675 0.0
O444 O 0.43371 0.39327 0.52229 0.0
O445 O 0.46063 0.39548 0.52205 0.0
C446 C 0.47917 0.45142 0.50437 0.0
C447 C 0.44362 0.38602 0.52894 0.0
C448 C 0.62802 0.04656 0.50856 0.0
C449 C 0.56202 0.01911 0.4925 0.0
O450 O 0.61941 0.05491 0.49986 0.0
Zn451 Zn 0.5953 0.03358 0.49472 0.0
O452 O 0.61944 0.02922 0.50897 0.0
Zn453 Zn 0.59217 0.0073 0.50292 0.0
O454 O 0.59174 0.99396 0.44175 0.0
O455 O 0.59526 0.02067 0.42159 0.0
O456 O 0.56752 0.00771 0.49675 0.0
O457 O 0.57359 0.0359 0.48978 0.0
O458 O 0.59284 0.02378 0.57354 0.0
O459 O 0.58906 0.99622 0.57097 0.0
C460 C 0.59356 0.00546 0.40721 0.0
C461 C 0.5906 0.00959 0.59727 0.0
C462 C 0.25996 0.34031 0.43385 0.0
C463 C 0.25549 0.34274 0.24558 0.0
O464 O 0.27011 0.35257 0.40189 0.0
Zn465 Zn 0.25746 0.34127 0.33898 0.0
O466 O 0.24622 0.32579 0.4166 0.0
Zn467 Zn 0.23399 0.31556 0.34076 0.0
O468 O 0.23535 0.29379 0.3302 0.0
O469 O 0.26192 0.31875 0.32558 0.0
O470 O 0.24275 0.3279 0.26456 0.0
O471 O 0.26709 0.35477 0.27588 0.0
O472 O 0.23258 0.34173 0.34515 0.0
O473 O 0.21032 0.31348 0.34599 0.0
C474 C 0.2523 0.30146 0.32205 0.0
C475 C 0.21559 0.33028 0.3468 0.0
C476 C 0.67828 0.925 0.44137 0.0
C477 C 0.68152 0.92045 0.25139 0.0
O478 O 0.66727 0.92433 0.40673 0.0
Zn479 Zn 0.67972 0.9229 0.34536 0.0
O480 O 0.69272 0.92502 0.42708 0.0
Zn481 Zn 0.70483 0.9236 0.3546 0.0
O482 O 0.72746 0.94655 0.34981 0.0
O483 O 0.70335 0.94915 0.33589 0.0
O484 O 0.69524 0.92153 0.27536 0.0
O485 O 0.66868 0.92025 0.27742 0.0
O486 O 0.67756 0.89695 0.3522 0.0
O487 O 0.70504 0.90094 0.3604 0.0
C488 C 0.72062 0.95628 0.33717 0.0
C489 C 0.68803 0.89031 0.35706 0.0
C490 C 0.05693 0.76865 0.32055 0.0
C491 C 0.12228 0.80498 0.34892 0.0
O492 O 0.06611 0.7853 0.33252 0.0
Zn493 Zn 0.08912 0.78636 0.34185 0.0
O494 O 0.06455 0.75892 0.32206 0.0
Zn495 Zn 0.09158 0.76321 0.3376 0.0
O496 O 0.0898 0.74988 0.39982 0.0
O497 O 0.08659 0.77344 0.41644 0.0
O498 O 0.11707 0.7881 0.34512 0.0
O499 O 0.11047 0.80989 0.34965 0.0
O500 O 0.0929 0.77829 0.2641 0.0
O501 O 0.09578 0.75409 0.27417 0.0
C502 C 0.08731 0.75958 0.4326 0.0
C503 C 0.09516 0.76571 0.24443 0.0
H504 H 0.30877 0.07 0.49497 0.0
H505 H 0.36599 0.09205 0.5206 0.0
H506 H 0.37116 0.09404 0.42593 0.0
H507 H 0.35961 0.09122 0.33584 0.0
H508 H 0.30219 0.06787 0.31043 0.0
H509 H 0.2969 0.0646 0.40495 0.0
C510 C 0.32234 0.07511 0.47977 0.0
C511 C 0.33698 0.08102 0.51464 0.0
C512 C 0.3252 0.07606 0.42535 0.0
C513 C 0.35448 0.08739 0.49451 0.0
C514 C 0.35747 0.08862 0.44039 0.0
C515 C 0.34594 0.08532 0.35106 0.0
C516 C 0.33134 0.07996 0.31631 0.0
C517 C 0.34296 0.08327 0.40546 0.0
C518 C 0.31367 0.0721 0.33642 0.0
C519 C 0.31063 0.07028 0.39047 0.0
H520 H 0.91606 0.26851 0.51984 0.0
H521 H 0.94404 0.23837 0.50548 0.0
H522 H 0.94259 0.23948 0.40985 0.0
H523 H 0.93196 0.24762 0.32981 0.0
H524 H 0.90207 0.27586 0.34447 0.0
H525 H 0.90571 0.27692 0.43973 0.0
C526 C 0.92204 0.26239 0.49575 0.0
C527 C 0.93022 0.25344 0.51997 0.0
C528 C 0.9207 0.26262 0.44054 0.0
C529 C 0.93765 0.24534 0.48802 0.0
C530 C 0.93681 0.24595 0.43322 0.0
C531 C 0.9264 0.25416 0.35381 0.0
C532 C 0.91678 0.26167 0.32978 0.0
C533 C 0.92816 0.25434 0.40896 0.0
C534 C 0.90948 0.2699 0.36174 0.0
C535 C 0.91157 0.27054 0.41635 0.0
H536 H 0.76419 0.69718 0.49962 0.0
H537 H 0.73256 0.63967 0.52562 0.0
H538 H 0.7296 0.63433 0.43098 0.0
H539 H 0.73759 0.64595 0.34071 0.0
H540 H 0.7676 0.70355 0.31474 0.0
H541 H 0.76951 0.70892 0.40931 0.0
C542 C 0.75653 0.6835 0.48447 0.0
C543 C 0.74874 0.66884 0.51943 0.0
C544 C 0.75465 0.68054 0.43002 0.0
C545 C 0.73865 0.65119 0.49942 0.0
C546 C 0.73702 0.64811 0.44532 0.0
C547 C 0.74442 0.65966 0.35585 0.0
C548 C 0.75258 0.67432 0.32094 0.0
C549 C 0.74521 0.66267 0.41026 0.0
C550 C 0.76118 0.69204 0.3409 0.0
C551 C 0.76235 0.69513 0.39496 0.0
H552 H 0.07577 0.31517 0.00886 0.0
H553 H 0.10516 0.37286 0.98394 0.0
H554 H 0.10669 0.37801 0.07848 0.0
H555 H 0.10114 0.36613 0.16838 0.0
H556 H 0.07053 0.3085 0.19358 0.0
H557 H 0.06788 0.30332 0.09887 0.0
C558 C 0.08242 0.32885 0.0242 0.0
C559 C 0.09048 0.34359 0.98957 0.0
C560 C 0.08305 0.33173 0.07862 0.0
C561 C 0.09883 0.36127 0.00984 0.0
C562 C 0.09978 0.36424 0.06389 0.0
C563 C 0.09378 0.35245 0.15308 0.0
C564 C 0.08619 0.33773 0.18782 0.0
C565 C 0.09215 0.34958 0.09865 0.0
C566 C 0.07649 0.32007 0.16757 0.0
C567 C 0.07503 0.31709 0.11343 0.0
H568 H 0.64589 0.74051 0.1646 0.0
H569 H 0.70262 0.76374 0.20107 0.0
H570 H 0.70991 0.7669 0.10761 0.0
H571 H 0.70033 0.76456 0.0155 0.0
H572 H 0.64349 0.74016 0.97894 0.0
H573 H 0.63609 0.73587 0.07233 0.0
C574 C 0.65983 0.74616 0.15206 0.0
C575 C 0.6737 0.75202 0.18973 0.0
C576 C 0.66392 0.74778 0.09822 0.0
C577 C 0.69168 0.75911 0.17289 0.0
C578 C 0.69588 0.76099 0.11943 0.0
C579 C 0.68632 0.75821 0.028 0.0
C580 C 0.67251 0.75284 0.99037 0.0
C581 C 0.68214 0.75561 0.08176 0.0
C582 C 0.65439 0.74442 0.00711 0.0
C583 C 0.65014 0.74202 0.06053 0.0
H584 H 0.24743 0.92822 0.18638 0.0
H585 H 0.27674 0.89934 0.17313 0.0
H586 H 0.277 0.90194 0.07769 0.0
H587 H 0.26776 0.91123 0.99729 0.0
H588 H 0.23697 0.93861 0.0104 0.0
H589 H 0.23852 0.93786 0.10599 0.0
C590 C 0.254 0.92263 0.16264 0.0
C591 C 0.26205 0.9136 0.18709 0.0
C592 C 0.25379 0.92385 0.10747 0.0
C593 C 0.27037 0.9063 0.15552 0.0
C594 C 0.27054 0.90779 0.10081 0.0
C595 C 0.26154 0.91719 0.02106 0.0
C596 C 0.25228 0.92498 0.99653 0.0
C597 C 0.26213 0.91636 0.07625 0.0
C598 C 0.24414 0.93247 0.0281 0.0
C599 C 0.24502 0.93205 0.08288 0.0
H600 H 0.64648 0.90963 0.6714 0.0
H601 H 0.70317 0.93353 0.70932 0.0
H602 H 0.71095 0.93887 0.61635 0.0
H603 H 0.70156 0.93535 0.52388 0.0
H604 H 0.64505 0.91281 0.48575 0.0
H605 H 0.63732 0.90853 0.57901 0.0
C606 C 0.66053 0.91609 0.65927 0.0
C607 C 0.67421 0.92102 0.6972 0.0
C608 C 0.66495 0.91937 0.60567 0.0
C609 C 0.69238 0.9296 0.68095 0.0
C610 C 0.69684 0.93262 0.62775 0.0
C611 C 0.68757 0.92963 0.53601 0.0
C612 C 0.6739 0.92428 0.4979 0.0
C613 C 0.68323 0.92736 0.58972 0.0
C614 C 0.65585 0.91708 0.51427 0.0
C615 C 0.6514 0.91454 0.56761 0.0
H616 H 0.0711 0.7687 0.50902 0.0
H617 H 0.10144 0.74138 0.48305 0.0
H618 H 0.10216 0.73673 0.57738 0.0
H619 H 0.09563 0.74195 0.66765 0.0
H620 H 0.06395 0.76787 0.69347 0.0
H621 H 0.06212 0.77137 0.59893 0.0
C622 C 0.07777 0.76164 0.52408 0.0
C623 C 0.08635 0.75555 0.48925 0.0
C624 C 0.0779 0.75877 0.57833 0.0
C625 C 0.09473 0.7462 0.50912 0.0
C626 C 0.0952 0.74358 0.56306 0.0
C627 C 0.0882 0.74822 0.6525 0.0
C628 C 0.08008 0.75477 0.68747 0.0
C629 C 0.08705 0.75003 0.59808 0.0
C630 C 0.0703 0.76268 0.66734 0.0
C631 C 0.06933 0.76478 0.61329 0.0
H632 H 0.24934 0.31496 0.51072 0.0
H633 H 0.27811 0.37257 0.48442 0.0
H634 H 0.28175 0.37799 0.57885 0.0
H635 H 0.27542 0.36637 0.66905 0.0
H636 H 0.24806 0.30882 0.69566 0.0
H637 H 0.24534 0.30335 0.60107 0.0
C638 C 0.25648 0.32868 0.52575 0.0
C639 C 0.2633 0.34333 0.49077 0.0
C640 C 0.25876 0.33171 0.58011 0.0
C641 C 0.27275 0.36105 0.51062 0.0
C642 C 0.27479 0.36418 0.5646 0.0
C643 C 0.26897 0.35265 0.65407 0.0
C644 C 0.26182 0.33803 0.68915 0.0
C645 C 0.26765 0.34961 0.59971 0.0
C646 C 0.2537 0.32031 0.66935 0.0
C647 C 0.25207 0.31716 0.61529 0.0
H648 H 0.93048 0.68262 0.82975 0.0
H649 H 0.89806 0.62465 0.84332 0.0
H650 H 0.90065 0.62698 0.93888 0.0
H651 H 0.9109 0.64558 0.01925 0.0
H652 H 0.9414 0.70367 1.00576 0.0
H653 H 0.94086 0.70121 0.91013 0.0
C654 C 0.92415 0.67049 0.85362 0.0
C655 C 0.91414 0.65348 0.82926 0.0
C656 C 0.92528 0.67196 0.90883 0.0
C657 C 0.90581 0.63792 0.86093 0.0
C658 C 0.90729 0.63924 0.91567 0.0
C659 C 0.91759 0.65769 0.99537 0.0
C660 C 0.92622 0.67478 0.01979 0.0
C661 C 0.91681 0.6562 0.94016 0.0
C662 C 0.93461 0.69034 0.98812 0.0
C663 C 0.93432 0.68895 0.93333 0.0
H664 H 0.35312 0.25838 0.02188 0.0
H665 H 0.29496 0.23018 0.00743 0.0
H666 H 0.29755 0.23356 0.91215 0.0
H667 H 0.31629 0.2433 0.83205 0.0
H668 H 0.37439 0.26978 0.84617 0.0
H669 H 0.37187 0.26838 0.94177 0.0
C670 C 0.34102 0.25312 0.99792 0.0
C671 C 0.32387 0.24405 0.02202 0.0
C672 C 0.34259 0.25475 0.94277 0.0
C673 C 0.30834 0.23716 0.99012 0.0
C674 C 0.3098 0.23909 0.93549 0.0
C675 C 0.3284 0.24894 0.85605 0.0
C676 C 0.34551 0.25668 0.83176 0.0
C677 C 0.32685 0.24769 0.91125 0.0
C678 C 0.36104 0.2637 0.86365 0.0
C679 C 0.35962 0.26291 0.91845 0.0
H680 H 0.76434 0.07557 0.83374 0.0
H681 H 0.73857 0.108 0.83931 0.0
H682 H 0.73874 0.10732 0.93523 0.0
H683 H 0.74757 0.09881 0.01757 0.0
H684 H 0.77542 0.06834 0.01204 0.0
H685 H 0.77306 0.06693 0.9163 0.0
C686 C 0.75856 0.0823 0.85599 0.0
C687 C 0.75136 0.09175 0.82942 0.0
C688 C 0.7592 0.08231 0.9112 0.0
C689 C 0.7442 0.10064 0.85881 0.0
C690 C 0.7443 0.10027 0.91367 0.0
C691 C 0.75298 0.09172 0.99544 0.0
C692 C 0.76162 0.08365 0.02197 0.0
C693 C 0.75197 0.09135 0.9403 0.0
C694 C 0.76875 0.07471 0.99262 0.0
C695 C 0.76739 0.07388 0.93785 0.0
H696 H 0.9771 0.40359 0.83997 0.0
H697 H 0.035 0.4346 0.86122 0.0
H698 H 0.03947 0.43422 0.76672 0.0
H699 H 0.02691 0.42653 0.67772 0.0
H700 H 0.96909 0.39454 0.65623 0.0
H701 H 0.96462 0.39366 0.75116 0.0
C702 C 0.99069 0.41019 0.82386 0.0
C703 C 0.00568 0.41926 0.85743 0.0
C704 C 0.99318 0.40973 0.7695 0.0
C705 C 0.02322 0.42753 0.83618 0.0
C706 C 0.0258 0.42736 0.78214 0.0
C707 C 0.01334 0.41924 0.69385 0.0
C708 C 0.99836 0.41075 0.66001 0.0
C709 C 0.01087 0.41871 0.7484 0.0
C710 C 0.98086 0.40117 0.68147 0.0
C711 C 0.97829 0.40074 0.73573 0.0
H712 H 0.57265 0.60741 0.68331 0.0
H713 H 0.60267 0.58067 0.64416 0.0
H714 H 0.60847 0.57869 0.73709 0.0
H715 H 0.60363 0.58309 0.82994 0.0
H716 H 0.57486 0.61111 0.86903 0.0
H717 H 0.57011 0.61419 0.77594 0.0
C718 C 0.58056 0.60126 0.69515 0.0
C719 C 0.58708 0.59407 0.65684 0.0
C720 C 0.58405 0.60036 0.74873 0.0
C721 C 0.5975 0.58633 0.67278 0.0
C722 C 0.60077 0.58513 0.72598 0.0
C723 C 0.59645 0.58999 0.81805 0.0
C724 C 0.5895 0.59673 0.85645 0.0
C725 C 0.59391 0.59188 0.76435 0.0
C726 C 0.58039 0.60582 0.84035 0.0
C727 C 0.57759 0.60752 0.78707 0.0
H728 H 0.42972 0.02699 0.83787 0.0
H729 H 0.39995 0.96943 0.86456 0.0
H730 H 0.39818 0.96393 0.77003 0.0
H731 H 0.40659 0.97553 0.67982 0.0
H732 H 0.43471 0.0331 0.65316 0.0
H733 H 0.43559 0.03856 0.74749 0.0
C734 C 0.42273 0.01326 0.82289 0.0
C735 C 0.41511 0.99865 0.85802 0.0
C736 C 0.42155 0.0102 0.76853 0.0
C737 C 0.40588 0.98091 0.83821 0.0
C738 C 0.40495 0.97775 0.78419 0.0
C739 C 0.41281 0.98924 0.69478 0.0
C740 C 0.42072 0.00388 0.65978 0.0
C741 C 0.41297 0.99229 0.74902 0.0
C742 C 0.42852 0.0216 0.67943 0.0
C743 C 0.42909 0.02474 0.73334 0.0
H744 H 0.60653 0.02859 0.32428 0.0
H745 H 0.57771 0.97187 0.36339 0.0
H746 H 0.57311 0.96399 0.27029 0.0
H747 H 0.57594 0.97325 0.17761 0.0
H748 H 0.6062 0.02993 0.13841 0.0
H749 H 0.61165 0.03776 0.23142 0.0
C750 C 0.59936 0.01451 0.31237 0.0
C751 C 0.59236 1.00085 0.35073 0.0
C752 C 0.59696 0.01006 0.25868 0.0
C753 C 0.58327 0.98266 0.33468 0.0
C754 C 0.58056 0.97813 0.28142 0.0
C755 C 0.58381 0.9873 0.18947 0.0
C756 C 0.59052 1.00098 0.15116 0.0
C757 C 0.58713 0.99172 0.24307 0.0
C758 C 0.6009 0.01913 0.16709 0.0
C759 C 0.60397 0.02363 0.22031 0.0
H760 H 0.02773 0.59848 0.34763 0.0
H761 H 0.96975 0.56561 0.33278 0.0
H762 H 0.97231 0.568 0.23726 0.0
H763 H 0.99113 0.57828 0.15723 0.0
H764 H 0.04922 0.6095 0.17229 0.0
H765 H 0.0465 0.60899 0.26777 0.0
C766 C 0.01564 0.59198 0.32353 0.0
C767 C 0.99857 0.58191 0.34758 0.0
C768 C 0.01723 0.59306 0.26834 0.0
C769 C 0.98308 0.57341 0.31551 0.0
C770 C 0.98452 0.57478 0.26074 0.0
C771 C 1.00318 0.58513 0.1814 0.0
C772 C 0.02035 0.59396 0.15741 0.0
C773 C 1.00154 0.5844 0.23661 0.0
C774 C 0.03582 0.60256 0.18953 0.0
C775 C 0.03429 0.60228 0.24426 0.0
H776 H 0.43937 0.40668 0.16293 0.0
H777 H 0.40899 0.43462 0.16798 0.0
H778 H 0.40923 0.43408 0.26391 0.0
H779 H 0.41924 0.42688 0.34645 0.0
H780 H 0.4515 0.4009 0.34118 0.0
H781 H 0.44932 0.39941 0.24546 0.0
C782 C 0.43264 0.41248 0.18505 0.0
C783 C 0.42411 0.42061 0.15834 0.0
C784 C 0.43325 0.41255 0.24023 0.0
C785 C 0.41567 0.4283 0.18758 0.0
C786 C 0.41581 0.428 0.24245 0.0
C787 C 0.42566 0.42075 0.32436 0.0
C788 C 0.43548 0.41397 0.35094 0.0
C789 C 0.42473 0.42034 0.26921 0.0
C790 C 0.4439 0.40627 0.32169 0.0
C791 C 0.44265 0.4054 0.26693 0.0
H792 H 0.34263 0.19975 0.1766 0.0
H793 H 0.286 0.15963 0.16339 0.0
H794 H 0.29361 0.13561 0.16455 0.0
H795 H 0.3162 0.12593 0.1692 0.0
H796 H 0.37288 0.16586 0.18209 0.0
H797 H 0.36533 0.18999 0.18143 0.0
C798 C 0.33193 0.18576 0.17385 0.0
C799 C 0.31374 0.18156 0.16982 0.0
C800 C 0.3364 0.17196 0.17469 0.0
C801 C 0.3001 0.16331 0.16646 0.0
C802 C 0.30444 0.14954 0.16719 0.0
C803 C 0.32695 0.1399 0.17206 0.0
C804 C 0.34512 0.14402 0.1758 0.0
C805 C 0.32252 0.1537 0.17136 0.0
C806 C 0.3588 0.16225 0.17927 0.0
C807 C 0.35449 0.17607 0.1788 0.0
H808 H 0.80153 0.14736 0.17807 0.0
H809 H 0.84376 0.13356 0.1715 0.0
H810 H 0.8667 0.16567 0.1739 0.0
H811 H 0.87475 0.19767 0.17807 0.0
H812 H 0.8323 0.21118 0.18544 0.0
H813 H 0.80951 0.17914 0.18278 0.0
C814 C 0.81575 0.15132 0.17695 0.0
C815 C 0.82087 0.138 0.17441 0.0
C816 C 0.82885 0.16978 0.17874 0.0
C817 C 0.83939 0.14348 0.17335 0.0
C818 C 0.85253 0.16185 0.1748 0.0
C819 C 0.86052 0.19363 0.17925 0.0
C820 C 0.8553 0.2069 0.182 0.0
C821 C 0.84742 0.17513 0.17761 0.0
C822 C 0.83676 0.20133 0.18341 0.0
C823 C 0.82369 0.18299 0.18179 0.0
H824 H 0.87498 0.7058 0.18058 0.0
H825 H 0.86579 0.65157 0.16239 0.0
H826 H 0.83326 0.63948 0.16524 0.0
H827 H 0.80715 0.64403 0.17262 0.0
H828 H 0.81595 0.6981 0.19019 0.0
H829 H 0.84864 0.71035 0.18819 0.0
C830 C 0.86586 0.69136 0.17705 0.0
C831 C 0.87295 0.67969 0.17123 0.0
C832 C 0.84698 0.68436 0.17889 0.0
C833 C 0.86084 0.66096 0.16693 0.0
C834 C 0.84215 0.65396 0.16862 0.0
C835 C 0.8162 0.65848 0.17634 0.0
C836 C 0.80902 0.67007 0.18165 0.0
C837 C 0.83504 0.6655 0.17471 0.0
C838 C 0.82103 0.6888 0.18607 0.0
C839 C 0.83978 0.69586 0.18483 0.0
H840 H 0.17065 0.37089 0.34229 0.0
H841 H 0.12677 0.31631 0.31944 0.0
H842 H 0.14791 0.305 0.32392 0.0
H843 H 0.17888 0.31047 0.33485 0.0
H844 H 0.22278 0.36504 0.35772 0.0
H845 H 0.20164 0.37636 0.35312 0.0
C846 C 0.16572 0.35654 0.33794 0.0
C847 C 0.14712 0.34452 0.33042 0.0
C848 C 0.17796 0.35005 0.34098 0.0
C849 C 0.141 0.32593 0.32524 0.0
C850 C 0.15308 0.3194 0.32792 0.0
C851 C 0.18382 0.32482 0.33915 0.0
C852 C 0.20241 0.33683 0.34675 0.0
C853 C 0.17159 0.33132 0.33606 0.0
C854 C 0.20855 0.35543 0.35187 0.0
C855 C 0.19647 0.36196 0.34913 0.0
H856 H 0.64167 0.80498 0.344 0.0
H857 H 0.69491 0.81153 0.32494 0.0
H858 H 0.70855 0.84418 0.33286 0.0
H859 H 0.70557 0.87109 0.3456 0.0
H860 H 0.65237 0.86466 0.36438 0.0
H861 H 0.63868 0.83197 0.35665 0.0
C862 C 0.65624 0.81356 0.3412 0.0
C863 C 0.66719 0.80574 0.33381 0.0
C864 C 0.6641 0.83244 0.34621 0.0
C865 C 0.68609 0.81711 0.33067 0.0
C866 C 0.69396 0.83584 0.33531 0.0
C867 C 0.691 0.86254 0.34841 0.0
C868 C 0.68007 0.87038 0.35569 0.0
C869 C 0.68313 0.84367 0.3434 0.0
C870 C 0.66117 0.85904 0.35878 0.0
C871 C 0.65328 0.84029 0.35423 0.0
H872 H 0.20152 0.8722 0.3484 0.0
H873 H 0.21525 0.83018 0.33162 0.0
H874 H 0.18308 0.80722 0.3346 0.0
H875 H 0.15099 0.79917 0.34129 0.0
H876 H 0.1378 0.8416 0.35834 0.0
H877 H 0.16987 0.86428 0.3562 0.0
C878 C 0.19755 0.85803 0.34526 0.0
C879 C 0.21086 0.85297 0.33957 0.0
C880 C 0.17909 0.84495 0.34725 0.0
C881 C 0.20535 0.8345 0.3359 0.0
C882 C 0.18693 0.82136 0.33767 0.0
C883 C 0.15512 0.81337 0.3448 0.0
C884 C 0.14191 0.81862 0.34999 0.0
C885 C 0.17368 0.82643 0.34332 0.0
C886 C 0.14759 0.83712 0.35433 0.0
C887 C 0.16596 0.85013 0.35302 0.0
H888 H 0.68675 0.87351 0.84987 0.0
H889 H 0.63079 0.83331 0.82338 0.0
H890 H 0.63865 0.80947 0.82631 0.0
H891 H 0.66127 0.79999 0.83673 0.0
H892 H 0.71727 0.84005 0.86311 0.0
H893 H 0.70947 0.86399 0.86011 0.0
C894 C 0.67625 0.85954 0.84456 0.0
C895 C 0.65817 0.85526 0.83632 0.0
C896 C 0.68086 0.84586 0.8465 0.0
C897 C 0.64479 0.83705 0.8297 0.0
C898 C 0.64928 0.82338 0.83146 0.0
C899 C 0.67182 0.81395 0.84199 0.0
C900 C 0.68987 0.81816 0.85028 0.0
C901 C 0.66725 0.82763 0.83997 0.0
C902 C 0.70329 0.83637 0.85679 0.0
C903 C 0.69883 0.85008 0.85499 0.0
H904 H 0.17048 0.87493 0.83157 0.0
H905 H 0.21476 0.86492 0.85727 0.0
H906 H 0.19404 0.8325 0.85334 0.0
H907 H 0.16338 0.80676 0.84268 0.0
H908 H 0.11887 0.8164 0.8176 0.0
H909 H 0.13959 0.84897 0.82085 0.0
C910 C 0.17557 0.86565 0.83656 0.0
C911 C 0.19418 0.87245 0.84473 0.0
C912 C 0.16354 0.84686 0.83403 0.0
C913 C 0.20052 0.86017 0.85086 0.0
C914 C 0.18868 0.84155 0.84855 0.0
C915 C 0.15821 0.81597 0.83757 0.0
C916 C 0.13959 0.80908 0.82979 0.0
C917 C 0.17018 0.83473 0.83997 0.0
C918 C 0.13314 0.82128 0.82364 0.0
C919 C 0.14499 0.83995 0.8256 0.0
H920 H 0.14173 0.31 0.83518 0.0
H921 H 0.15229 0.36456 0.85743 0.0
H922 H 0.18473 0.37594 0.85378 0.0
H923 H 0.21031 0.37062 0.8437 0.0
H924 H 0.19999 0.31615 0.82186 0.0
H925 H 0.16745 0.30466 0.82556 0.0
C926 C 0.15113 0.32436 0.83956 0.0
C927 C 0.14449 0.33635 0.84661 0.0
C928 C 0.1699 0.33092 0.8371 0.0
C929 C 0.15693 0.35495 0.85192 0.0
C930 C 0.17555 0.36153 0.84974 0.0
C931 C 0.20096 0.35625 0.83944 0.0
C932 C 0.20766 0.34432 0.83234 0.0
C933 C 0.18221 0.34967 0.84206 0.0
C934 C 0.19527 0.3257 0.82731 0.0
C935 C 0.17662 0.31908 0.82953 0.0
H936 H 0.83182 0.69372 0.67311 0.0
H937 H 0.7844 0.64139 0.64958 0.0
H938 H 0.80289 0.627 0.65438 0.0
H939 H 0.8326 0.62916 0.6661 0.0
H940 H 0.87989 0.6816 0.69006 0.0
H941 H 0.8614 0.6959 0.68464 0.0
C942 C 0.82554 0.67919 0.66864 0.0
C943 C 0.80674 0.66871 0.66086 0.0
C944 C 0.83623 0.67093 0.67195 0.0
C945 C 0.79884 0.64984 0.65557 0.0
C946 C 0.8094 0.64156 0.65844 0.0
C947 C 0.83884 0.64369 0.67043 0.0
C948 C 0.85763 0.65422 0.67856 0.0
C949 C 0.82811 0.65194 0.66695 0.0
C950 C 0.86547 0.67309 0.68375 0.0
C951 C 0.85491 0.68134 0.68056 0.0
H952 H 0.37387 0.20451 0.66327 0.0
H953 H 0.32059 0.19709 0.69026 0.0
H954 H 0.30737 0.16451 0.68347 0.0
H955 H 0.31066 0.13796 0.6699 0.0
H956 H 0.36374 0.14486 0.64395 0.0
H957 H 0.37717 0.17764 0.64983 0.0
C958 C 0.3594 0.19575 0.66797 0.0
C959 C 0.34831 0.20332 0.67728 0.0
C960 C 0.35175 0.17687 0.66378 0.0
C961 C 0.32952 0.19172 0.68299 0.0
C962 C 0.32188 0.17303 0.67902 0.0
C963 C 0.32515 0.14662 0.66511 0.0
C964 C 0.33612 0.13892 0.6563 0.0
C965 C 0.33283 0.16545 0.66919 0.0
C966 C 0.35492 0.1504 0.65069 0.0
C967 C 0.36265 0.16917 0.6542 0.0
H968 H 0.80961 0.17039 0.66488 0.0
H969 H 0.81515 0.12368 0.69546 0.0
H970 H 0.84802 0.14251 0.69337 0.0
H971 H 0.87543 0.17236 0.68265 0.0
H972 H 0.86962 0.21893 0.65211 0.0
H973 H 0.83683 0.20006 0.65406 0.0
C974 C 0.81799 0.16433 0.67137 0.0
C975 C 0.80985 0.14564 0.68042 0.0
C976 C 0.83695 0.17522 0.66979 0.0
C977 C 0.82099 0.13804 0.68844 0.0
C978 C 0.83984 0.14879 0.68714 0.0
C979 C 0.86699 0.17835 0.67611 0.0
C980 C 0.87506 0.19705 0.66724 0.0
C981 C 0.848 0.1674 0.67765 0.0
C982 C 0.86385 0.20458 0.65915 0.0
C983 C 0.84504 0.1938 0.66032 0.0
H984 H 0.03046 0.49353 0.50209 0.0
H985 H 0.97643 0.44917 0.52969 0.0
H986 H 0.96448 0.46974 0.52581 0.0
H987 H 0.96913 0.50029 0.5136 0.0
H988 H 0.0231 0.54473 0.48618 0.0
H989 H 0.03515 0.52421 0.49065 0.0
C990 C 0.0161 0.48839 0.50763 0.0
C991 C 1.00442 0.46981 0.51617 0.0
C992 C 0.00921 0.5003 0.50498 0.0
C993 C 0.9858 0.46339 0.52297 0.0
C994 C 0.97889 0.47515 0.52066 0.0
C995 C 0.98351 0.50548 0.50834 0.0
C996 C 0.99514 0.52403 0.49942 0.0
C997 C 0.99043 0.49361 0.51134 0.0
C998 C 0.01378 0.53051 0.49308 0.0
C999 C 0.02073 0.51878 0.49572 0.0
H1000 H 0.47139 0.47858 0.51474 0.0
H1001 H 0.51611 0.46873 0.49805 0.0
H1002 H 0.53743 0.50118 0.50289 0.0
H1003 H 0.54341 0.53225 0.51164 0.0
H1004 H 0.49885 0.54229 0.52894 0.0
H1005 H 0.47744 0.5098 0.52449 0.0
C1006 C 0.4858 0.48351 0.51192 0.0
C1007 C 0.49211 0.47118 0.50579 0.0
C1008 C 0.49802 0.5022 0.51517 0.0
C1009 C 0.51084 0.47786 0.50267 0.0
C1010 C 0.52306 0.49643 0.50552 0.0
C1011 C 0.52902 0.52738 0.51467 0.0
C1012 C 0.52278 0.53977 0.52065 0.0
C1013 C 0.5168 0.50871 0.51185 0.0
C1014 C 0.50406 0.53312 0.52444 0.0
C1015 C 0.4918 0.51452 0.52174 0.0
H1016 H 0.54422 0.03832 0.50435 0.0
H1017 H 0.53518 0.98424 0.48295 0.0
H1018 H 0.50272 0.97192 0.48991 0.0
H1019 H 0.47673 0.97614 0.50299 0.0
H1020 H 0.48504 0.02992 0.52355 0.0
H1021 H 0.51777 0.04258 0.51641 0.0
C1022 C 0.53513 0.02387 0.50081 0.0
C1023 C 0.54223 0.01228 0.49321 0.0
C1024 C 0.51628 0.01673 0.50518 0.0
C1025 C 0.5302 0.99354 0.48899 0.0
C1026 C 0.51156 0.98642 0.49305 0.0
C1027 C 0.48568 0.99063 0.50625 0.0
C1028 C 0.47839 1.00201 0.51408 0.0
C1029 C 0.50445 0.99784 0.50154 0.0
C1030 C 0.49025 0.02079 0.51768 0.0
C1031 C 0.50899 0.02807 0.51345 0.0
H1032 H 0.49834 0.02915 0.00927 0.0
H1033 H 0.45256 0.97512 0.99642 0.0
H1034 H 0.47267 0.96257 1.00022 0.0
H1035 H 0.50332 0.96678 0.00736 0.0
H1036 H 0.54909 0.02082 0.01973 0.0
H1037 H 0.52897 0.03336 0.01631 0.0
C1038 C 0.49276 0.01463 0.00704 0.0
C1039 C 0.47393 1.00315 1.00247 0.0
C1040 C 0.50442 0.00742 0.0095 0.0
C1041 C 0.46698 0.98435 0.9999 0.0
C1042 C 0.47848 0.97711 1.00218 0.0
C1043 C 0.50889 0.98129 0.00963 0.0
C1044 C 0.52772 0.99278 0.01389 0.0
C1045 C 0.49722 0.98849 0.00718 0.0
C1046 C 0.53467 0.01159 0.01641 0.0
C1047 C 0.52316 0.01882 0.01437 0.0
H1048 H 1.00132 0.53278 1.00076 0.0
H1049 H 0.05743 0.5473 0.01476 0.0
H1050 H 0.04872 0.51533 0.01251 0.0
H1051 H 0.02518 0.48328 0.0067 0.0
H1052 H 0.9691 0.46889 0.99276 0.0
H1053 H 0.97786 0.50084 0.99459 0.0
C1054 C 0.01169 0.52901 1.00347 0.0
C1055 C 0.03004 0.54251 0.00806 0.0
C1056 C 0.00659 0.51061 1.00193 0.0
C1057 C 0.04322 0.53726 0.01129 0.0
C1058 C 0.03825 0.51896 0.00993 0.0
C1059 C 0.01485 0.4871 1.00385 0.0
C1060 C 0.99648 0.47362 0.99952 0.0
C1061 C 0.01997 0.50552 1.00519 0.0
C1062 C 0.98332 0.47891 0.99606 0.0
C1063 C 0.98832 0.4972 0.99719 0.0
H1064 H 0.47444 0.5003 0.99086 0.0
H1065 H 0.48632 0.45737 0.0172 0.0
H1066 H 0.51866 0.47902 0.01445 0.0
H1067 H 0.54385 0.51033 1.00508 0.0
H1068 H 0.53183 0.5532 0.97953 0.0
H1069 H 0.49953 0.53147 0.9811 0.0
C1070 C 0.48409 0.49568 0.9962 0.0
C1071 C 0.47785 0.4772 1.00434 0.0
C1072 C 0.50278 0.50823 0.99443 0.0
C1073 C 0.49064 0.4715 0.01093 0.0
C1074 C 0.5092 0.48389 0.00927 0.0
C1075 C 0.53417 0.51489 0.99947 0.0
C1076 C 0.54035 0.5334 0.99219 0.0
C1077 C 0.51547 0.5023 1.00094 0.0
C1078 C 0.52754 0.53905 0.98537 0.0
C1079 C 0.509 0.52663 0.98631 0.0
H1080 H 0.39295 0.02976 0.0672 0.0
H1081 H 0.4429 0.07846 0.03065 0.0
H1082 H 0.43082 0.09674 0.06762 0.0
H1083 H 0.40589 0.09888 0.11039 0.0
H1084 H 0.35612 0.04986 0.14638 0.0
H1085 H 0.36842 0.03182 0.11028 0.0
C1086 C 0.40119 0.04438 0.06685 0.0
C1087 C 0.41879 0.05268 0.04572 0.0
C1088 C 0.39425 0.0548 0.08872 0.0
C1089 C 0.42928 0.07167 0.04632 0.0
C1090 C 0.4224 0.08215 0.06771 0.0
C1091 C 0.39782 0.08425 0.11089 0.0
C1092 C 0.38009 0.07578 0.13134 0.0
C1093 C 0.40491 0.07386 0.08927 0.0
C1094 C 0.36978 0.05678 0.13101 0.0
C1095 C 0.37679 0.04642 0.11016 0.0
H1096 H 0.94008 0.31112 0.1148 0.0
H1097 H 0.89297 0.31467 0.15703 0.0
H1098 H 0.90633 0.34458 0.11631 0.0
H1099 H 0.93153 0.3698 0.06848 0.0
H1100 H 0.97837 0.36567 0.02658 0.0
H1101 H 0.96481 0.33581 0.0666 0.0
C1102 C 0.93276 0.31847 0.11568 0.0
C1103 C 0.91559 0.31067 0.13947 0.0
C1104 C 0.94038 0.33549 0.09148 0.0
C1105 C 0.90625 0.32037 0.13938 0.0
C1106 C 0.91385 0.33744 0.11581 0.0
C1107 C 0.93865 0.36225 0.06748 0.0
C1108 C 0.95593 0.36998 0.04427 0.0
C1109 C 0.93087 0.3451 0.09141 0.0
C1110 C 0.96506 0.36008 0.04402 0.0
C1111 C 0.95735 0.34302 0.06715 0.0
H1112 H 0.70331 0.64376 0.10067 0.0
H1113 H 0.70215 0.5948 0.14915 0.0
H1114 H 0.67233 0.57672 0.10839 0.0
H1115 H 0.64618 0.57488 0.06005 0.0
H1116 H 0.64798 0.62424 0.01242 0.0
H1117 H 0.67801 0.64199 0.05086 0.0
C1118 C 0.69651 0.62913 0.1028 0.0
C1119 C 0.70493 0.6207 0.12859 0.0
C1120 C 0.67952 0.61884 0.07869 0.0
C1121 C 0.69597 0.60169 0.12999 0.0
C1122 C 0.67893 0.59133 0.10643 0.0
C1123 C 0.65329 0.5895 0.05732 0.0
C1124 C 0.64481 0.59818 0.03314 0.0
C1125 C 0.67056 0.59975 0.08054 0.0
C1126 C 0.65414 0.61718 0.03071 0.0
C1127 C 0.67131 0.62737 0.05295 0.0
H1128 H 0.0726 0.43351 0.44635 0.0
H1129 H 0.02672 0.38288 0.4949 0.0
H1130 H 0.04032 0.36639 0.45637 0.0
H1131 H 0.0646 0.36606 0.4068 0.0
H1132 H 0.11088 0.41628 0.35801 0.0
H1133 H 0.09768 0.43315 0.3981 0.0
C1134 C 0.06573 0.41889 0.44916 0.0
C1135 C 0.04865 0.40948 0.47363 0.0
C1136 C 0.07354 0.40938 0.42609 0.0
C1137 C 0.03985 0.3905 0.47633 0.0
C1138 C 0.04758 0.38102 0.45407 0.0
C1139 C 0.07178 0.3807 0.40443 0.0
C1140 C 0.08863 0.38986 0.37882 0.0
C1141 C 0.06427 0.39029 0.42822 0.0
C1142 C 0.09783 0.40886 0.37708 0.0
C1143 C 0.09032 0.41852 0.40024 0.0
H1144 H 0.59604 0.70297 0.40299 0.0
H1145 H 0.63639 0.69362 0.33073 0.0
H1146 H 0.62286 0.6638 0.3709 0.0
H1147 H 0.60092 0.6412 0.43014 0.0
H1148 H 0.56006 0.64952 0.50332 0.0
H1149 H 0.57256 0.67902 0.45981 0.0
C1150 C 0.60157 0.6942 0.39513 0.0
C1151 C 0.61717 0.70047 0.36368 0.0
C1152 C 0.59391 0.6771 0.41951 0.0
C1153 C 0.62439 0.6891 0.35463 0.0
C1154 C 0.61674 0.67209 0.37791 0.0
C1155 C 0.59479 0.64949 0.43712 0.0
C1156 C 0.57977 0.64328 0.47081 0.0
C1157 C 0.6018 0.66615 0.41134 0.0
C1158 C 0.57177 0.65407 0.47813 0.0
C1159 C 0.57886 0.67089 0.453 0.0
H1160 H 0.317 0.89889 0.40667 0.0
H1161 H 0.3174 0.94548 0.33959 0.0
H1162 H 0.34713 0.96527 0.37749 0.0
H1163 H 0.37244 0.96966 0.43267 0.0
H1164 H 0.37275 0.92347 0.49982 0.0
H1165 H 0.3433 0.90329 0.45959 0.0
C1166 C 0.32377 0.91333 0.39955 0.0
C1167 C 0.31497 0.92067 0.37019 0.0
C1168 C 0.34084 0.92477 0.42239 0.0
C1169 C 0.32384 0.93946 0.36199 0.0
C1170 C 0.34081 0.95083 0.38393 0.0
C1171 C 0.36601 0.95519 0.43901 0.0
C1172 C 0.37468 0.94812 0.46991 0.0
C1173 C 0.34928 0.94368 0.41502 0.0
C1174 C 0.3663 0.92929 0.47663 0.0
C1175 C 0.34949 0.91773 0.45339 0.0
H1176 H 0.60715 0.96644 0.9403 0.0
H1177 H 0.55991 0.9174 0.99147 0.0
H1178 H 0.57172 0.89942 0.95043 0.0
H1179 H 0.59585 0.89776 0.90054 0.0
H1180 H 0.64281 0.94724 0.85036 0.0
H1181 H 0.63051 0.96485 0.88955 0.0
C1182 C 0.59944 0.95181 0.94303 0.0
C1183 C 0.58272 0.94332 0.96956 0.0
C1184 C 0.60616 0.9416 0.9187 0.0
C1185 C 0.57288 0.92433 0.97177 0.0
C1186 C 0.57959 0.91403 0.948 0.0
C1187 C 0.60321 0.91237 0.89741 0.0
C1188 C 0.6202 0.92115 0.87223 0.0
C1189 C 0.5962 0.92253 0.92112 0.0
C1190 C 0.62971 0.94013 0.86935 0.0
C1191 C 0.62273 0.95023 0.89204 0.0
H1192 H 0.10806 0.70637 0.89704 0.0
H1193 H 0.05516 0.69882 0.86244 0.0
H1194 H 0.04096 0.66882 0.90164 0.0
H1195 H 0.04333 0.6449 0.94675 0.0
H1196 H 0.0959 0.65174 0.98158 0.0
H1197 H 0.11041 0.6819 0.942 0.0
C1198 C 0.09343 0.69807 0.89752 0.0
C1199 C 0.08272 0.70488 0.87654 0.0
C1200 C 0.08527 0.6808 0.92089 0.0
C1201 C 0.06377 0.69398 0.87814 0.0
C1202 C 0.05561 0.67682 0.90079 0.0
C1203 C 0.05798 0.653 0.94625 0.0
C1204 C 0.06848 0.64605 0.96762 0.0
C1205 C 0.0662 0.67016 0.92273 0.0
C1206 C 0.08746 0.65675 0.96581 0.0
C1207 C 0.09576 0.67398 0.94289 0.0
H1208 H 0.37206 0.43707 0.93755 0.0
H1209 H 0.36979 0.3876 0.98672 0.0
H1210 H 0.33935 0.37002 0.951 0.0
H1211 H 0.31356 0.36842 0.90427 0.0
H1212 H 0.31513 0.41752 0.85528 0.0
H1213 H 0.34563 0.43542 0.89188 0.0
C1214 C 0.36482 0.42246 0.94099 0.0
C1215 C 0.37328 0.41372 0.96495 0.0
C1216 C 0.34725 0.41231 0.91972 0.0
C1217 C 0.3637 0.39474 0.96855 0.0
C1218 C 0.34627 0.38463 0.94791 0.0
C1219 C 0.3206 0.38303 0.90112 0.0
C1220 C 0.31207 0.39157 0.87652 0.0
C1221 C 0.33799 0.39324 0.92291 0.0
C1222 C 0.32137 0.41056 0.87367 0.0
C1223 C 0.3388 0.42082 0.89481 0.0
H1224 H 0.93338 0.62602 0.60214 0.0
H1225 H 0.8886 0.57625 0.65986 0.0
H1226 H 0.90127 0.55912 0.61769 0.0
H1227 H 0.92578 0.55862 0.56596 0.0
H1228 H 0.96982 0.60898 0.50807 0.0
H1229 H 0.95649 0.62548 0.54799 0.0
C1230 C 0.92641 0.61142 0.60611 0.0
C1231 C 0.91022 0.60246 0.63503 0.0
C1232 C 0.93353 0.60174 0.581 0.0
C1233 C 0.90119 0.5835 0.63839 0.0
C1234 C 0.90839 0.57372 0.61404 0.0
C1235 C 0.93225 0.57316 0.56132 0.0
C1236 C 0.94881 0.58254 0.53402 0.0
C1237 C 0.9246 0.58271 0.58519 0.0
C1238 C 0.95712 0.60141 0.52889 0.0
C1239 C 0.94956 0.6109 0.55196 0.0
H1240 H 0.41171 0.36769 0.57988 0.0
H1241 H 0.45744 0.36302 0.52926 0.0
H1242 H 0.44418 0.33304 0.56994 0.0
H1243 H 0.41903 0.30781 0.61838 0.0
H1244 H 0.37385 0.31348 0.66949 0.0
H1245 H 0.38766 0.34353 0.63099 0.0
C1246 C 0.41874 0.36008 0.57723 0.0
C1247 C 0.43541 0.36747 0.55079 0.0
C1248 C 0.41124 0.3431 0.6015 0.0
C1249 C 0.4445 0.35756 0.54892 0.0
C1250 C 0.43696 0.34046 0.5724 0.0
C1251 C 0.41237 0.31576 0.62185 0.0
C1252 C 0.3954 0.30834 0.64682 0.0
C1253 C 0.42031 0.33307 0.59886 0.0
C1254 C 0.38689 0.31879 0.65046 0.0
C1255 C 0.39473 0.33597 0.62819 0.0
H1256 H 0.64752 0.08016 0.55357 0.0
H1257 H 0.6516 0.03414 0.5022 0.0
H1258 H 0.68143 0.04689 0.54211 0.0
H1259 H 0.70565 0.07008 0.59527 0.0
H1260 H 0.70261 0.11661 0.64667 0.0
H1261 H 0.67305 0.10462 0.60364 0.0
C1262 C 0.65512 0.07313 0.55024 0.0
C1263 C 0.6473 0.0562 0.52485 0.0
C1264 C 0.67229 0.08044 0.57422 0.0
C1265 C 0.65725 0.04716 0.52151 0.0
C1266 C 0.67429 0.05439 0.54461 0.0
C1267 C 0.69849 0.07758 0.59754 0.0
C1268 C 0.7062 0.09407 0.62499 0.0
C1269 C 0.68176 0.07079 0.57199 0.0
C1270 C 0.69689 0.10378 0.6263 0.0
C1271 C 0.68003 0.09696 0.60148 0.0
H1272 H 0.74925 0.77184 0.78488 0.0
H1273 H 0.70164 0.72409 0.84097 0.0
H1274 H 0.71202 0.70498 0.80078 0.0
H1275 H 0.7337 0.7016 0.7465 0.0
H1276 H 0.78155 0.74889 0.68967 0.0
H1277 H 0.7719 0.76836 0.73267 0.0
C1278 C 0.74136 0.75727 0.78917 0.0
C1279 C 0.72471 0.74942 0.81613 0.0
C1280 C 0.74724 0.74625 0.76487 0.0
C1281 C 0.7145 0.7305 0.82054 0.0
C1282 C 0.72036 0.71953 0.79727 0.0
C1283 C 0.74199 0.71617 0.74302 0.0
C1284 C 0.75821 0.72374 0.71418 0.0
C1285 C 0.73651 0.72723 0.7685 0.0
C1286 C 0.76891 0.74268 0.71116 0.0
C1287 C 0.76344 0.75382 0.73601 0.0
H1288 H 0.23475 0.9776 0.77377 0.0
H1289 H 0.28229 0.9812 0.8455 0.0
H1290 H 0.30113 0.01086 0.80644 0.0
H1291 H 0.30452 0.03503 0.74838 0.0
H1292 H 0.25746 0.0324 0.67668 0.0
H1293 H 0.23806 1.00306 0.71866 0.0
C1294 C 0.24917 0.98507 0.78169 0.0
C1295 C 0.25709 0.97718 0.81258 0.0
C1296 C 0.26007 1.00212 0.75818 0.0
C1297 C 0.27585 0.98693 0.82187 0.0
C1298 C 0.28667 0.00387 0.79927 0.0
C1299 C 0.29003 0.02799 0.74147 0.0
C1300 C 0.28249 0.03575 0.70866 0.0
C1301 C 0.279 0.0114 0.76646 0.0
C1302 C 0.26363 0.02663 0.7013 0.0
C1303 C 0.25253 0.0099 0.72552 0.0
H1304 H 0.03959 0.26827 0.77947 0.0
H1305 H 0.0356 0.31511 0.82218 0.0
H1306 H 1.00547 0.30141 0.78405 0.0
H1307 H 0.98058 0.27678 0.73684 0.0
H1308 H 0.98345 0.22937 0.69425 0.0
H1309 H 0.01373 0.24274 0.73347 0.0
C1310 C 0.03201 0.27535 0.78105 0.0
C1311 C 0.03992 0.29273 0.80379 0.0
C1312 C 0.0146 0.26743 0.75832 0.0
C1313 C 0.02994 0.30176 0.80496 0.0
C1314 C 0.01269 0.29397 0.78293 0.0
C1315 C 0.98783 0.26936 0.73557 0.0
C1316 C 0.97979 0.25215 0.71196 0.0
C1317 C 1.005 0.27695 0.75892 0.0
C1318 C 0.98936 0.24269 0.71172 0.0
C1319 C 0.00664 0.2503 0.7344 0.0
H1320 H 0.30077 0.27097 0.23308 0.0
H1321 H 0.24843 0.22518 0.19674 0.0
H1322 H 0.23364 0.24056 0.23643 0.0
H1323 H 0.23564 0.26711 0.2819 0.0
H1324 H 0.28825 0.3126 0.31791 0.0
H1325 H 0.30279 0.29708 0.27867 0.0
C1326 C 0.28611 0.26436 0.23327 0.0
C1327 C 0.27575 0.24696 0.21147 0.0
C1328 C 0.27772 0.27315 0.25685 0.0
C1329 C 0.25677 0.2386 0.21287 0.0
C1330 C 0.24829 0.24736 0.23585 0.0
C1331 C 0.25028 0.27353 0.28174 0.0
C1332 C 0.26081 0.291 0.30312 0.0
C1333 C 0.25863 0.2646 0.2583 0.0
C1334 C 0.27978 0.29918 0.3019 0.0
C1335 C 0.28814 0.29034 0.27922 0.0
H1336 H 0.70933 0.97648 0.28533 0.0
H1337 H 0.75775 0.97784 0.34124 0.0
H1338 H 0.77629 0.00766 0.30094 0.0
H1339 H 0.77859 0.03346 0.24967 0.0
H1340 H 0.72964 0.03104 0.19362 0.0
H1341 H 0.71155 1.0014 0.23339 0.0
C1342 C 0.72394 0.98332 0.28931 0.0
C1343 C 0.7321 0.97497 0.3169 0.0
C1344 C 0.73446 1.0002 0.26527 0.0
C1345 C 0.75108 0.98399 0.32066 0.0
C1346 C 0.76169 1.00101 0.29734 0.0
C1347 C 0.76399 0.02633 0.24557 0.0
C1348 C 0.75553 0.03452 0.2185 0.0
C1349 C 0.75353 0.00922 0.26925 0.0
C1350 C 0.73655 0.02513 0.21414 0.0
C1351 C 0.72615 0.00817 0.23711 0.0
H1352 H 0.03777 0.73749 0.26554 0.0
H1353 H 0.0343 0.78278 0.32664 0.0
H1354 H 1.00423 0.77077 0.28745 0.0
H1355 H 0.97852 0.74689 0.237 0.0
H1356 H 0.98262 0.70189 0.17615 0.0
H1357 H 0.01288 0.71447 0.21316 0.0
C1358 C 0.0304 0.74469 0.27075 0.0
C1359 C 0.03823 0.76092 0.29963 0.0
C1360 C 0.01326 0.73786 0.24744 0.0
C1361 C 0.02857 0.77019 0.30499 0.0
C1362 C 0.01139 0.76337 0.28236 0.0
C1363 C 0.98618 0.74002 0.23108 0.0
C1364 C 0.97827 0.72347 0.20365 0.0
C1365 C 1.00358 0.7472 0.25338 0.0
C1366 C 0.98832 0.71463 0.19703 0.0
C1367 C 1.00562 0.72177 0.21845 0.0
H1368 H 0.35959 0.10047 0.99806 0.0
H1369 H 0.3017 0.07558 0.01621 0.0
H1370 H 0.29801 0.07417 0.92079 0.0
H1371 H 0.31127 0.07986 0.83288 0.0
H1372 H 0.369 0.10321 0.81464 0.0
H1373 H 0.37278 0.10539 0.91008 0.0
C1374 C 0.34617 0.09484 0.9811 0.0
C1375 C 0.33093 0.08827 0.01385 0.0
C1376 C 0.34416 0.09378 0.92652 0.0
C1377 C 0.3136 0.08071 0.99158 0.0
C1378 C 0.31151 0.07994 0.93717 0.0
C1379 C 0.3247 0.08553 0.84982 0.0
C1380 C 0.33987 0.09153 0.81705 0.0
C1381 C 0.32669 0.08643 0.90438 0.0
C1382 C 0.35714 0.09853 0.8393 0.0
C1383 C 0.3593 0.0998 0.89371 0.0
H1384 H 0.92752 0.24256 0.01813 0.0
H1385 H 0.89444 0.2676 0.00933 0.0
H1386 H 0.89686 0.26878 0.91393 0.0
H1387 H 0.90796 0.26224 0.83199 0.0
H1388 H 0.93956 0.23563 0.84077 0.0
H1389 H 0.93823 0.23564 0.93638 0.0
C1390 C 0.92087 0.24829 0.99531 0.0
C1391 C 0.91079 0.25492 0.02098 0.0
C1392 C 0.92207 0.24869 0.94013 0.0
C1393 C 0.90218 0.26223 0.99069 0.0
C1394 C 0.9036 0.26299 0.936 0.0
C1395 C 0.91464 0.25657 0.85495 0.0
C1396 C 0.92384 0.24897 0.82929 0.0
C1397 C 0.91346 0.25621 0.91017 0.0
C1398 C 0.93228 0.24148 0.85955 0.0
C1399 C 0.93155 0.24149 0.9143 0.0
H1400 H 0.74712 0.64715 1.00347 0.0
H1401 H 0.77734 0.70517 0.02058 0.0
H1402 H 0.77903 0.70864 0.92502 0.0
H1403 H 0.7719 0.69511 0.8373 0.0
H1404 H 0.74003 0.63717 0.82012 0.0
H1405 H 0.73892 0.63365 0.91568 0.0
C1406 C 0.75417 0.66054 0.98619 0.0
C1407 C 0.76229 0.6759 0.01863 0.0
C1408 C 0.75473 0.6624 0.93158 0.0
C1409 C 0.77105 0.69319 0.9961 0.0
C1410 C 0.77203 0.69516 0.94165 0.0
C1411 C 0.76479 0.6817 0.85453 0.0
C1412 C 0.75622 0.66638 0.82207 0.0
C1413 C 0.76393 0.67985 0.90913 0.0
C1414 C 0.74673 0.64912 0.8446 0.0
C1415 C 0.74614 0.64712 0.89905 0.0
H1416 H 0.08446 0.31652 0.67132 0.0
H1417 H 0.1132 0.37454 0.68946 0.0
H1418 H 0.11497 0.37818 0.59401 0.0
H1419 H 0.10833 0.36482 0.50613 0.0
H1420 H 0.07823 0.30681 0.48802 0.0
H1421 H 0.07696 0.30316 0.58346 0.0
C1422 C 0.0912 0.32996 0.65435 0.0
C1423 C 0.09885 0.34526 0.68708 0.0
C1424 C 0.09188 0.33192 0.59981 0.0
C1425 C 0.10725 0.36259 0.66483 0.0
C1426 C 0.10828 0.36467 0.61041 0.0
C1427 C 0.10157 0.35137 0.5231 0.0
C1428 C 0.09352 0.33608 0.49039 0.0
C1429 C 0.10066 0.34942 0.57765 0.0
C1430 C 0.08452 0.31875 0.51265 0.0
C1431 C 0.08383 0.31667 0.56705 0.0
H1432 H 0.65273 0.7495 0.67978 0.0
H1433 H 0.71115 0.77886 0.68042 0.0
H1434 H 0.71156 0.77792 0.58486 0.0
H1435 H 0.69532 0.76899 0.50075 0.0
H1436 H 0.63693 0.74091 0.50019 0.0
H1437 H 0.63652 0.74105 0.59585 0.0
C1438 C 0.66552 0.75567 0.65895 0.0
C1439 C 0.68184 0.76423 0.68702 0.0
C1440 C 0.66569 0.7553 0.60397 0.0
C1441 C 0.69836 0.77228 0.6596 0.0
C1442 C 0.69864 0.7717 0.60496 0.0
C1443 C 0.68254 0.76284 0.52171 0.0
C1444 C 0.66622 0.75497 0.49369 0.0
C1445 C 0.68239 0.76327 0.57671 0.0
C1446 C 0.64971 0.74718 0.52108 0.0
C1447 C 0.64944 0.74721 0.57574 0.0
H1448 H 0.26382 0.90583 0.68459 0.0
H1449 H 0.23487 0.93518 0.67639 0.0
H1450 H 0.23561 0.93468 0.58087 0.0
H1451 H 0.24374 0.92521 0.49894 0.0
H1452 H 0.27149 0.89466 0.50712 0.0
H1453 H 0.27194 0.89633 0.60256 0.0
C1454 C 0.25778 0.91219 0.66182 0.0
C1455 C 0.24928 0.92047 0.68763 0.0
C1456 C 0.25795 0.91158 0.60661 0.0
C1457 C 0.24139 0.92857 0.65755 0.0
C1458 C 0.24182 0.92833 0.60282 0.0
C1459 C 0.24993 0.91899 0.52164 0.0
C1460 C 0.25749 0.90979 0.49582 0.0
C1461 C 0.24993 0.91975 0.57683 0.0
C1462 C 0.2654 0.90171 0.52591 0.0
C1463 C 0.26573 0.90269 0.58062 0.0
H1464 H 0.65214 0.90553 0.18717 0.0
H1465 H 0.71052 0.93438 0.18653 0.0
H1466 H 0.71069 0.93344 0.09087 0.0
H1467 H 0.69428 0.92421 0.00729 0.0
H1468 H 0.63589 0.894 0.00785 0.0
H1469 H 0.63569 0.8956 0.10339 0.0
C1470 C 0.66485 0.91166 0.16594 0.0
C1471 C 0.68126 0.92001 0.19365 0.0
C1472 C 0.66487 0.91075 0.11094 0.0
C1473 C 0.69769 0.92776 0.16591 0.0
C1474 C 0.69782 0.92727 0.11125 0.0
C1475 C 0.68154 0.91798 0.02837 0.0
C1476 C 0.66516 0.90902 1.00061 0.0
C1477 C 0.6815 0.91874 0.08335 0.0
C1478 C 0.64872 0.90089 0.0284 0.0
C1479 C 0.64856 0.90185 0.08303 0.0
H1480 H 0.08005 0.77699 0.17163 0.0
H1481 H 0.11162 0.75058 0.1896 0.0
H1482 H 0.11221 0.74739 0.09433 0.0
H1483 H 0.10353 0.75189 0.00672 0.0
H1484 H 0.07051 0.77673 0.98837 0.0
H1485 H 0.07057 0.78068 0.08361 0.0
C1486 C 0.08718 0.77068 0.15456 0.0
C1487 C 0.09595 0.76419 0.18721 0.0
C1488 C 0.08708 0.76853 0.10006 0.0
C1489 C 0.10483 0.7557 0.16499 0.0
C1490 C 0.10515 0.75388 0.11068 0.0
C1491 C 0.0964 0.75823 0.02353 0.0
C1492 C 0.08715 0.76415 0.99076 0.0
C1493 C 0.09629 0.76021 0.07796 0.0
C1494 C 0.07771 0.77207 0.01299 0.0
C1495 C 0.07779 0.77437 0.06729 0.0
H1496 H 0.24261 0.31661 0.17205 0.0
H1497 H 0.2718 0.37457 0.19166 0.0
H1498 H 0.2739 0.37851 0.0963 0.0
H1499 H 0.26742 0.36542 0.00802 0.0
H1500 H 0.2397 0.30747 0.98855 0.0
H1501 H 0.23704 0.30352 0.08386 0.0
C1502 C 0.24934 0.3301 0.1554 0.0
C1503 C 0.2569 0.34529 0.18849 0.0
C1504 C 0.25077 0.33223 0.10092 0.0
C1505 C 0.26588 0.3627 0.1667 0.0
C1506 C 0.26705 0.36495 0.11235 0.0
C1507 C 0.26072 0.35192 0.02468 0.0
C1508 C 0.25361 0.33673 0.99162 0.0
C1509 C 0.25953 0.3498 0.07919 0.0
C1510 C 0.24525 0.31933 0.01347 0.0
C1511 C 0.2437 0.31709 0.06779 0.0
H1512 H 0.92742 0.6843 0.51738 0.0
H1513 H 0.89329 0.62633 0.50962 0.0
H1514 H 0.89512 0.62732 0.41415 0.0
H1515 H 0.90566 0.6447 0.33195 0.0
H1516 H 0.93832 0.7028 0.33955 0.0
H1517 H 0.9379 0.70169 0.4352 0.0
C1518 C 0.92046 0.67191 0.49473 0.0
C1519 C 0.91019 0.65532 0.52063 0.0
C1520 C 0.92128 0.67256 0.43952 0.0
C1521 C 0.90116 0.63935 0.49069 0.0
C1522 C 0.90223 0.63986 0.43599 0.0
C1523 C 0.91278 0.65707 0.35464 0.0
C1524 C 0.92197 0.67377 0.32869 0.0
C1525 C 0.91214 0.65639 0.40986 0.0
C1526 C 0.93101 0.68974 0.35859 0.0
C1527 C 0.93081 0.68914 0.41336 0.0
H1528 H 0.31455 0.23609 0.51984 0.0
H1529 H 0.37271 0.26832 0.51036 0.0
H1530 H 0.37124 0.26673 0.41478 0.0
H1531 H 0.35354 0.25553 0.33334 0.0
H1532 H 0.29547 0.22196 0.34287 0.0
H1533 H 0.29683 0.22466 0.43817 0.0
C1534 C 0.32685 0.24287 0.49674 0.0
C1535 C 0.34368 0.25231 0.52218 0.0
C1536 C 0.32597 0.24155 0.44155 0.0
C1537 C 0.35956 0.26087 0.49174 0.0
C1538 C 0.35875 0.25998 0.43701 0.0
C1539 C 0.34119 0.24882 0.35628 0.0
C1540 C 0.32447 0.23852 0.33081 0.0
C1541 C 0.34205 0.25022 0.41141 0.0
C1542 C 0.30859 0.22987 0.3613 0.0
C1543 C 0.30932 0.23145 0.41595 0.0
H1544 H 0.75014 0.10696 0.50323 0.0
H1545 H 0.77448 0.07407 0.53328 0.0
H1546 H 0.77776 0.0713 0.43875 0.0
H1547 H 0.77418 0.07874 0.34807 0.0
H1548 H 0.74844 0.11035 0.31806 0.0
H1549 H 0.74518 0.11312 0.41255 0.0
C1550 C 0.75621 0.09922 0.48908 0.0
C1551 C 0.76226 0.09089 0.52505 0.0
C1552 C 0.75779 0.09749 0.43493 0.0
C1553 C 0.76976 0.08062 0.50627 0.0
C1554 C 0.77167 0.07908 0.45232 0.0
C1555 C 0.76791 0.08629 0.36224 0.0
C1556 C 0.76173 0.09452 0.32629 0.0
C1557 C 0.76583 0.08756 0.41638 0.0
C1558 C 0.75332 0.10395 0.34505 0.0
C1559 C 0.75149 0.10555 0.39898 0.0
H1560 H 0.97807 0.41185 0.1739 0.0
H1561 H 0.03623 0.44318 0.15991 0.0
H1562 H 0.03922 0.44259 0.25528 0.0
H1563 H 0.02532 0.43321 0.34175 0.0
H1564 H 0.96725 0.40076 0.35605 0.0
H1565 H 0.96416 0.40159 0.26063 0.0
C1566 C 0.9914 0.41867 0.19181 0.0
C1567 C 0.00693 0.42773 0.16024 0.0
C1568 C 0.99299 0.41796 0.2463 0.0
C1569 C 0.02412 0.43618 0.18362 0.0
C1570 C 0.02582 0.43584 0.23799 0.0
C1571 C 0.01196 0.42634 0.32405 0.0
C1572 C 0.9965 0.41706 0.35574 0.0
C1573 C 0.01035 0.42677 0.26957 0.0
C1574 C 0.97932 0.40798 0.33231 0.0
C1575 C 0.97757 0.40852 0.27791 0.0
H1576 H 0.56842 0.59616 0.16681 0.0
H1577 H 0.60238 0.57201 0.16811 0.0
H1578 H 0.60121 0.57063 0.26371 0.0
H1579 H 0.5906 0.57632 0.34714 0.0
H1580 H 0.55547 0.59915 0.34595 0.0
H1581 H 0.55693 0.60089 0.2504 0.0
C1582 C 0.5756 0.59067 0.18815 0.0
C1583 C 0.5855 0.58426 0.1606 0.0
C1584 C 0.57459 0.58958 0.24315 0.0
C1585 C 0.59458 0.57697 0.18854 0.0
C1586 C 0.59395 0.57619 0.2432 0.0
C1587 C 0.58323 0.58162 0.32592 0.0
C1588 C 0.57296 0.58758 0.35356 0.0
C1589 C 0.58398 0.58243 0.27092 0.0
C1590 C 0.56339 0.59434 0.32555 0.0
C1591 C 0.56428 0.59543 0.2709 0.0
H1592 H 0.41432 0.977 0.34158 0.0
H1593 H 0.44323 0.03496 0.36069 0.0
H1594 H 0.44394 0.03885 0.26542 0.0
H1595 H 0.43638 0.02573 0.17736 0.0
H1596 H 0.40588 0.96779 0.15809 0.0
H1597 H 0.40561 0.96386 0.25335 0.0
C1598 C 0.42087 0.99047 0.32474 0.0
C1599 C 0.42891 0.0057 0.35765 0.0
C1600 C 0.42085 0.99256 0.27029 0.0
C1601 C 0.43702 0.02308 0.33581 0.0
C1602 C 0.43742 0.02529 0.28152 0.0
C1603 C 0.42972 0.01223 0.19405 0.0
C1604 C 0.42131 0.99705 0.16106 0.0
C1605 C 0.42939 0.01013 0.24849 0.0
C1606 C 0.41243 0.97965 0.18296 0.0
C1607 C 0.41233 0.97741 0.23725 0.0
H1608 H 0.59553 0.02216 0.84166 0.0
H1609 H 0.5604 0.96426 0.83995 0.0
H1610 H 0.56195 0.96404 0.7444 0.0
H1611 H 0.57327 0.98032 0.66095 0.0
H1612 H 0.60703 0.03838 0.66264 0.0
H1613 H 0.60613 0.03851 0.75834 0.0
C1614 C 0.58821 0.00952 0.82031 0.0
C1615 C 0.57788 0.99329 0.84776 0.0
C1616 C 0.58897 0.0095 0.76533 0.0
C1617 C 0.56836 0.97699 0.81965 0.0
C1618 C 0.56929 0.97682 0.76501 0.0
C1619 C 0.58048 0.99295 0.68242 0.0
C1620 C 0.59023 0.00928 0.65501 0.0
C1621 C 0.57957 0.99298 0.73742 0.0
C1622 C 0.59936 0.02562 0.68305 0.0
C1623 C 0.59888 0.02572 0.73773 0.0
H1624 H 0.02962 0.59351 0.6592 0.0
H1625 H 0.97133 0.56376 0.66852 0.0
H1626 H 0.97283 0.56503 0.76407 0.0
H1627 H 0.99065 0.57398 0.84573 0.0
H1628 H 0.04895 0.60235 0.83651 0.0
H1629 H 0.04747 0.6022 0.74098 0.0
C1630 C 0.01728 0.5874 0.68221 0.0
C1631 C 1.00043 0.57855 0.65671 0.0
C1632 C 0.0182 0.58785 0.73745 0.0
C1633 C 0.98452 0.57056 0.68712 0.0
C1634 C 0.98533 0.57129 0.74186 0.0
C1635 C 1.00301 0.58017 0.82277 0.0
C1636 C 0.01985 0.58811 0.84835 0.0
C1637 C 1.00209 0.57979 0.76756 0.0
C1638 C 0.03576 0.59599 0.81793 0.0
C1639 C 0.03496 0.59598 0.76317 0.0
H1640 H 0.44838 0.4097 0.67693 0.0
H1641 H 0.41862 0.43737 0.64664 0.0
H1642 H 0.41425 0.43904 0.74098 0.0
H1643 H 0.41944 0.43316 0.83157 0.0
H1644 H 0.44801 0.4043 0.86209 0.0
H1645 H 0.45222 0.40243 0.76766 0.0
C1646 C 0.441 0.41616 0.69104 0.0
C1647 C 0.43401 0.42361 0.65507 0.0
C1648 C 0.4383 0.41679 0.7451 0.0
C1649 C 0.42415 0.4316 0.67367 0.0
C1650 C 0.42168 0.43257 0.72751 0.0
C1651 C 0.42661 0.42647 0.81758 0.0
C1652 C 0.43358 0.41903 0.85366 0.0
C1653 C 0.42879 0.4253 0.7635 0.0
C1654 C 0.44254 0.41012 0.83501 0.0
C1655 C 0.445 0.40911 0.78111 0.0
loop_
_geom_bond_atom_site_label_1
_geom_bond_atom_site_label_2
_geom_bond_distance
_geom_bond_site_symmetry_2
_ccdc_geom_bond_type
C0 O2 1.247 . S
C0 O4 1.258 . S
C1 O8 1.247 . S
C1 O9 1.258 . S
O2 C0 1.247 . S
O2 Zn3 2.028 . S
Zn3 O2 2.028 . S
Zn3 O7 2.035 . S
Zn3 O9 2.035 . S
Zn3 O10 2.028 . S
O4 C0 1.258 . S
O4 Zn5 2.035 . S
Zn5 O4 2.035 . S
Zn5 O6 2.028 . S
Zn5 O8 2.028 . S
Zn5 O11 2.035 . S
O6 Zn5 2.028 . S
O6 C12 1.247 . S
O7 Zn3 2.035 . S
O7 C12 1.258 . S
O8 C1 1.247 . S
O8 Zn5 2.028 . S
O9 C1 1.258 . S
O9 Zn3 2.035 . S
O10 Zn3 2.028 . S
O10 C13 1.247 . S
O11 Zn5 2.035 . S
O11 C13 1.258 . S
C12 O6 1.247 . S
C12 O7 1.258 . S
C13 O10 1.247 . S
C13 O11 1.258 . S
C14 O16 1.247 . S
C14 O18 1.258 . S
C15 O22 1.247 . S
C15 O23 1.258 . S
O16 C14 1.247 . S
O16 Zn17 2.028 . S
Zn17 O16 2.028 . S
Zn17 O21 2.035 . S
Zn17 O23 2.035 . S
Zn17 O24 2.028 . S
O18 C14 1.258 . S
O18 Zn19 2.035 . S
Zn19 O18 2.035 . S
Zn19 O20 2.028 . S
Zn19 O22 2.028 . S
Zn19 O25 2.035 . S
O20 Zn19 2.028 . S
O20 C26 1.247 . S
O21 Zn17 2.035 . S
O21 C26 1.258 . S
O22 C15 1.247 . S
O22 Zn19 2.028 . S
O23 C15 1.258 . S
O23 Zn17 2.035 . S
O24 Zn17 2.028 . S
O24 C27 1.247 . S
O25 Zn19 2.035 . S
O25 C27 1.258 . S
C26 O20 1.247 . S
C26 O21 1.258 . S
C27 O24 1.247 . S
C27 O25 1.258 . S
C28 O30 1.247 . S
C28 O32 1.258 . S
C29 O36 1.247 . S
C29 O37 1.258 . S
O30 C28 1.247 . S
O30 Zn31 2.028 . S
Zn31 O30 2.028 . S
Zn31 O35 2.035 . S
Zn31 O37 2.035 . S
Zn31 O38 2.028 . S
O32 C28 1.258 . S
O32 Zn33 2.035 . S
Zn33 O32 2.035 . S
Zn33 O34 2.028 . S
Zn33 O36 2.028 . S
Zn33 O39 2.035 . S
O34 Zn33 2.028 . S
O34 C40 1.247 . S
O35 Zn31 2.035 . S
O35 C40 1.258 . S
O36 C29 1.247 . S
O36 Zn33 2.028 . S
O37 C29 1.258 . S
O37 Zn31 2.035 . S
O38 Zn31 2.028 . S
O38 C41 1.247 . S
O39 Zn33 2.035 . S
O39 C41 1.258 . S
C40 O34 1.247 . S
C40 O35 1.258 . S
C41 O38 1.247 . S
C41 O39 1.258 . S
C42 O44 1.247 . S
C42 O46 1.258 . S
C43 O50 1.247 . S
C43 O51 1.258 . S
O44 C42 1.247 . S
O44 Zn45 2.028 . S
Zn45 O44 2.028 . S
Zn45 O49 2.035 . S
Zn45 O51 2.035 . S
Zn45 O52 2.028 . S
O46 C42 1.258 . S
O46 Zn47 2.035 . S
Zn47 O46 2.035 . S
Zn47 O48 2.028 . S
Zn47 O50 2.028 . S
Zn47 O53 2.035 . S
O48 Zn47 2.028 . S
O48 C54 1.247 . S
O49 Zn45 2.035 . S
O49 C54 1.258 . S
O50 C43 1.247 . S
O50 Zn47 2.028 . S
O51 C43 1.258 . S
O51 Zn45 2.035 . S
O52 Zn45 2.028 . S
O52 C55 1.247 . S
O53 Zn47 2.035 . S
O53 C55 1.258 . S
C54 O48 1.247 . S
C54 O49 1.258 . S
C55 O52 1.247 . S
C55 O53 1.258 . S
C56 O58 1.247 . S
C56 O60 1.258 . S
C57 O64 1.247 . S
C57 O65 1.258 . S
O58 C56 1.247 . S
O58 Zn59 2.028 . S
Zn59 O58 2.028 . S
Zn59 O63 2.035 . S
Zn59 O65 2.035 . S
Zn59 O66 2.028 . S
O60 C56 1.258 . S
O60 Zn61 2.035 . S
Zn61 O60 2.035 . S
Zn61 O62 2.028 . S
Zn61 O64 2.028 . S
Zn61 O67 2.035 . S
O62 Zn61 2.028 . S
O62 C68 1.247 . S
O63 Zn59 2.035 . S
O63 C68 1.258 . S
O64 C57 1.247 . S
O64 Zn61 2.028 . S
O65 C57 1.258 . S
O65 Zn59 2.035 . S
O66 Zn59 2.028 . S
O66 C69 1.247 . S
O67 Zn61 2.035 . S
O67 C69 1.258 . S
C68 O62 1.247 . S
C68 O63 1.258 . S
C69 O66 1.247 . S
C69 O67 1.258 . S
C70 O72 1.247 . S
C70 O74 1.258 . S
C71 O78 1.247 . S
C71 O79 1.258 . S
O72 C70 1.247 . S
O72 Zn73 2.028 . S
Zn73 O72 2.028 . S
Zn73 O77 2.035 . S
Zn73 O79 2.035 . S
Zn73 O80 2.028 . S
O74 C70 1.258 . S
O74 Zn75 2.035 . S
Zn75 O74 2.035 . S
Zn75 O76 2.028 . S
Zn75 O78 2.028 . S
Zn75 O81 2.035 . S
O76 Zn75 2.028 . S
O76 C82 1.247 . S
O77 Zn73 2.035 . S
O77 C82 1.258 . S
O78 C71 1.247 . S
O78 Zn75 2.028 . S
O79 C71 1.258 . S
O79 Zn73 2.035 . S
O80 Zn73 2.028 . S
O80 C83 1.247 . S
O81 Zn75 2.035 . S
O81 C83 1.258 . S
C82 O76 1.247 . S
C82 O77 1.258 . S
C83 O80 1.247 . S
C83 O81 1.258 . S
C84 O86 1.247 . S
C84 O88 1.258 . S
C85 O92 1.247 . S
C85 O93 1.258 . S
O86 C84 1.247 . S
O86 Zn87 2.028 . S
Zn87 O86 2.028 . S
Zn87 O91 2.035 . S
Zn87 O93 2.035 . S
Zn87 O94 2.028 . S
O88 C84 1.258 . S
O88 Zn89 2.035 . S
Zn89 O88 2.035 . S
Zn89 O90 2.028 . S
Zn89 O92 2.028 . S
Zn89 O95 2.035 . S
O90 Zn89 2.028 . S
O90 C96 1.247 . S
O91 Zn87 2.035 . S
O91 C96 1.258 . S
O92 C85 1.247 . S
O92 Zn89 2.028 . S
O93 C85 1.258 . S
O93 Zn87 2.035 . S
O94 Zn87 2.028 . S
O94 C97 1.247 . S
O95 Zn89 2.035 . S
O95 C97 1.258 . S
C96 O90 1.247 . S
C96 O91 1.258 . S
C97 O94 1.247 . S
C97 O95 1.258 . S
C98 O100 1.247 . S
C98 O102 1.258 . S
C99 O106 1.247 . S
C99 O107 1.258 . S
O100 C98 1.247 . S
O100 Zn101 2.028 . S
Zn101 O100 2.028 . S
Zn101 O105 2.035 . S
Zn101 O107 2.035 . S
Zn101 O108 2.028 . S
O102 C98 1.258 . S
O102 Zn103 2.035 . S
Zn103 O102 2.035 . S
Zn103 O104 2.028 . S
Zn103 O106 2.028 . S
Zn103 O109 2.035 . S
O104 Zn103 2.028 . S
O104 C110 1.247 . S
O105 Zn101 2.035 . S
O105 C110 1.258 . S
O106 C99 1.247 . S
O106 Zn103 2.028 . S
O107 C99 1.258 . S
O107 Zn101 2.035 . S
O108 Zn101 2.028 . S
O108 C111 1.247 . S
O109 Zn103 2.035 . S
O109 C111 1.258 . S
C110 O104 1.247 . S
C110 O105 1.258 . S
C111 O108 1.247 . S
C111 O109 1.258 . S
C112 O114 1.247 . S
C112 O116 1.258 . S
C113 O120 1.247 . S
C113 O121 1.258 . S
O114 C112 1.247 . S
O114 Zn115 2.028 . S
Zn115 O114 2.028 . S
Zn115 O119 2.035 . S
Zn115 O121 2.035 . S
Zn115 O122 2.028 . S
O116 C112 1.258 . S
O116 Zn117 2.035 . S
Zn117 O116 2.035 . S
Zn117 O118 2.028 . S
Zn117 O120 2.028 . S
Zn117 O123 2.035 . S
O118 Zn117 2.028 . S
O118 C124 1.247 . S
O119 Zn115 2.035 . S
O119 C124 1.258 . S
O120 C113 1.247 . S
O120 Zn117 2.028 . S
O121 C113 1.258 . S
O121 Zn115 2.035 . S
O122 Zn115 2.028 . S
O122 C125 1.247 . S
O123 Zn117 2.035 . S
O123 C125 1.258 . S
C124 O118 1.247 . S
C124 O119 1.258 . S
C125 O122 1.247 . S
C125 O123 1.258 . S
C126 O128 1.247 . S
C126 O130 1.258 . S
C127 O134 1.247 . S
C127 O135 1.258 . S
O128 C126 1.247 . S
O128 Zn129 2.028 . S
Zn129 O128 2.028 . S
Zn129 O133 2.035 . S
Zn129 O135 2.035 . S
Zn129 O136 2.028 . S
O130 C126 1.258 . S
O130 Zn131 2.035 . S
Zn131 O130 2.035 . S
Zn131 O132 2.028 . S
Zn131 O134 2.028 . S
Zn131 O137 2.035 . S
O132 Zn131 2.028 . S
O132 C138 1.247 . S
O133 Zn129 2.035 . S
O133 C138 1.258 . S
O134 C127 1.247 . S
O134 Zn131 2.028 . S
O135 C127 1.258 . S
O135 Zn129 2.035 . S
O136 Zn129 2.028 . S
O136 C139 1.247 . S
O137 Zn131 2.035 . S
O137 C139 1.258 . S
C138 O132 1.247 . S
C138 O133 1.258 . S
C139 O136 1.247 . S
C139 O137 1.258 . S
C140 O142 1.247 . S
C140 O144 1.258 . S
C141 O148 1.247 . S
C141 O149 1.258 . S
O142 C140 1.247 . S
O142 Zn143 2.028 . S
Zn143 O142 2.028 . S
Zn143 O147 2.035 . S
Zn143 O149 2.035 . S
Zn143 O150 2.028 . S
O144 C140 1.258 . S
O144 Zn145 2.035 . S
Zn145 O144 2.035 . S
Zn145 O146 2.028 . S
Zn145 O148 2.028 . S
Zn145 O151 2.035 . S
O146 Zn145 2.028 . S
O146 C152 1.247 . S
O147 Zn143 2.035 . S
O147 C152 1.258 . S
O148 C141 1.247 . S
O148 Zn145 2.028 . S
O149 C141 1.258 . S
O149 Zn143 2.035 . S
O150 Zn143 2.028 . S
O150 C153 1.247 . S
O151 Zn145 2.035 . S
O151 C153 1.258 . S
C152 O146 1.247 . S
C152 O147 1.258 . S
C153 O150 1.247 . S
C153 O151 1.258 . S
C154 O156 1.247 . S
C154 O158 1.258 . S
C155 O162 1.247 . S
C155 O163 1.258 . S
O156 C154 1.247 . S
O156 Zn157 2.028 . S
Zn157 O156 2.028 . S
Zn157 O161 2.035 . S
Zn157 O163 2.035 . S
Zn157 O164 2.028 . S
O158 C154 1.258 . S
O158 Zn159 2.035 . S
Zn159 O158 2.035 . S
Zn159 O160 2.028 . S
Zn159 O162 2.028 . S
Zn159 O165 2.035 . S
O160 Zn159 2.028 . S
O160 C166 1.247 . S
O161 Zn157 2.035 . S
O161 C166 1.258 . S
O162 C155 1.247 . S
O162 Zn159 2.028 . S
O163 C155 1.258 . S
O163 Zn157 2.035 . S
O164 Zn157 2.028 . S
O164 C167 1.247 . S
O165 Zn159 2.035 . S
O165 C167 1.258 . S
C166 O160 1.247 . S
C166 O161 1.258 . S
C167 O164 1.247 . S
C167 O165 1.258 . S
C168 O170 1.247 . S
C168 O172 1.258 1_455 S
C169 O176 1.247 1_455 S
C169 O177 1.258 . S
O170 C168 1.247 . S
O170 Zn171 2.028 . S
Zn171 O170 2.028 . S
Zn171 O175 2.035 . S
Zn171 O177 2.035 . S
Zn171 O178 2.028 . S
O172 C168 1.258 1_655 S
O172 Zn173 2.035 . S
Zn173 O172 2.035 . S
Zn173 O174 2.028 . S
Zn173 O176 2.028 . S
Zn173 O179 2.035 . S
O174 Zn173 2.028 . S
O174 C180 1.247 1_655 S
O175 Zn171 2.035 . S
O175 C180 1.258 . S
O176 C169 1.247 1_655 S
O176 Zn173 2.028 . S
O177 C169 1.258 . S
O177 Zn171 2.035 . S
O178 Zn171 2.028 . S
O178 C181 1.247 1_455 S
O179 Zn173 2.035 . S
O179 C181 1.258 . S
C180 O174 1.247 1_455 S
C180 O175 1.258 . S
C181 O178 1.247 1_655 S
C181 O179 1.258 . S
C182 O184 1.247 . S
C182 O186 1.258 . S
C183 O190 1.247 . S
C183 O191 1.258 . S
O184 C182 1.247 . S
O184 Zn185 2.028 . S
Zn185 O184 2.028 . S
Zn185 O189 2.035 . S
Zn185 O191 2.035 . S
Zn185 O192 2.028 . S
O186 C182 1.258 . S
O186 Zn187 2.035 . S
Zn187 O186 2.035 . S
Zn187 O188 2.028 . S
Zn187 O190 2.028 . S
Zn187 O193 2.035 . S
O188 Zn187 2.028 . S
O188 C194 1.247 . S
O189 Zn185 2.035 . S
O189 C194 1.258 . S
O190 C183 1.247 . S
O190 Zn187 2.028 . S
O191 C183 1.258 . S
O191 Zn185 2.035 . S
O192 Zn185 2.028 . S
O192 C195 1.247 . S
O193 Zn187 2.035 . S
O193 C195 1.258 . S
C194 O188 1.247 . S
C194 O189 1.258 . S
C195 O192 1.247 . S
C195 O193 1.258 . S
C196 O198 1.247 . S
C196 O200 1.258 1_565 S
C197 O204 1.247 1_565 S
C197 O205 1.258 . S
O198 C196 1.247 . S
O198 Zn199 2.028 . S
Zn199 O198 2.028 . S
Zn199 O203 2.035 . S
Zn199 O205 2.035 . S
Zn199 O206 2.028 . S
O200 C196 1.258 1_545 S
O200 Zn201 2.035 . S
Zn201 O200 2.035 . S
Zn201 O202 2.028 . S
Zn201 O204 2.028 . S
Zn201 O207 2.035 . S
O202 Zn201 2.028 . S
O202 C208 1.247 . S
O203 Zn199 2.035 . S
O203 C208 1.258 1_565 S
O204 C197 1.247 1_545 S
O204 Zn201 2.028 . S
O205 C197 1.258 . S
O205 Zn199 2.035 . S
O206 Zn199 2.028 . S
O206 C209 1.247 . S
O207 Zn201 2.035 . S
O207 C209 1.258 1_545 S
C208 O202 1.247 . S
C208 O203 1.258 1_545 S
C209 O206 1.247 . S
C209 O207 1.258 1_565 S
C210 O212 1.247 . S
C210 O214 1.258 . S
C211 O218 1.247 . S
C211 O219 1.258 . S
O212 C210 1.247 . S
O212 Zn213 2.028 . S
Zn213 O212 2.028 . S
Zn213 O217 2.035 . S
Zn213 O219 2.035 . S
Zn213 O220 2.028 . S
O214 C210 1.258 . S
O214 Zn215 2.035 . S
Zn215 O214 2.035 . S
Zn215 O216 2.028 . S
Zn215 O218 2.028 . S
Zn215 O221 2.035 . S
O216 Zn215 2.028 . S
O216 C222 1.247 . S
O217 Zn213 2.035 . S
O217 C222 1.258 . S
O218 C211 1.247 . S
O218 Zn215 2.028 . S
O219 C211 1.258 . S
O219 Zn213 2.035 . S
O220 Zn213 2.028 . S
O220 C223 1.247 . S
O221 Zn215 2.035 . S
O221 C223 1.258 . S
C222 O216 1.247 . S
C222 O217 1.258 . S
C223 O220 1.247 . S
C223 O221 1.258 . S
C224 O226 1.247 . S
C224 O228 1.258 . S
C225 O232 1.247 . S
C225 O233 1.258 . S
O226 C224 1.247 . S
O226 Zn227 2.028 . S
Zn227 O226 2.028 . S
Zn227 O231 2.035 . S
Zn227 O233 2.035 . S
Zn227 O234 2.028 . S
O228 C224 1.258 . S
O228 Zn229 2.035 . S
Zn229 O228 2.035 . S
Zn229 O230 2.028 . S
Zn229 O232 2.028 . S
Zn229 O235 2.035 . S
O230 Zn229 2.028 . S
O230 C236 1.247 . S
O231 Zn227 2.035 . S
O231 C236 1.258 . S
O232 C225 1.247 . S
O232 Zn229 2.028 . S
O233 C225 1.258 . S
O233 Zn227 2.035 . S
O234 Zn227 2.028 . S
O234 C237 1.247 . S
O235 Zn229 2.035 . S
O235 C237 1.258 . S
C236 O230 1.247 . S
C236 O231 1.258 . S
C237 O234 1.247 . S
C237 O235 1.258 . S
C238 O240 1.247 . S
C238 O242 1.258 . S
C239 O246 1.247 . S
C239 O247 1.258 . S
O240 C238 1.247 . S
O240 Zn241 2.028 . S
Zn241 O240 2.028 . S
Zn241 O245 2.035 . S
Zn241 O247 2.035 . S
Zn241 O248 2.028 . S
O242 C238 1.258 . S
O242 Zn243 2.035 . S
Zn243 O242 2.035 . S
Zn243 O244 2.028 . S
Zn243 O246 2.028 . S
Zn243 O249 2.035 . S
O244 Zn243 2.028 . S
O244 C250 1.247 . S
O245 Zn241 2.035 . S
O245 C250 1.258 . S
O246 C239 1.247 . S
O246 Zn243 2.028 . S
O247 C239 1.258 . S
O247 Zn241 2.035 . S
O248 Zn241 2.028 . S
O248 C251 1.247 . S
O249 Zn243 2.035 . S
O249 C251 1.258 . S
C250 O244 1.247 . S
C250 O245 1.258 . S
C251 O248 1.247 . S
C251 O249 1.258 . S
C252 O254 1.247 . S
C252 O256 1.258 . S
C253 O260 1.247 . S
C253 O261 1.258 . S
O254 C252 1.247 . S
O254 Zn255 2.028 . S
Zn255 O254 2.028 . S
Zn255 O259 2.035 . S
Zn255 O261 2.035 . S
Zn255 O262 2.028 . S
O256 C252 1.258 . S
O256 Zn257 2.035 . S
Zn257 O256 2.035 . S
Zn257 O258 2.028 . S
Zn257 O260 2.028 . S
Zn257 O263 2.035 . S
O258 Zn257 2.028 . S
O258 C264 1.247 . S
O259 Zn255 2.035 . S
O259 C264 1.258 . S
O260 C253 1.247 . S
O260 Zn257 2.028 . S
O261 C253 1.258 . S
O261 Zn255 2.035 . S
O262 Zn255 2.028 . S
O262 C265 1.247 . S
O263 Zn257 2.035 . S
O263 C265 1.258 . S
C264 O258 1.247 . S
C264 O259 1.258 . S
C265 O262 1.247 . S
C265 O263 1.258 . S
C266 O268 1.247 . S
C266 O270 1.258 . S
C267 O274 1.247 . S
C267 O275 1.258 . S
O268 C266 1.247 . S
O268 Zn269 2.028 . S
Zn269 O268 2.028 . S
Zn269 O273 2.035 . S
Zn269 O275 2.035 . S
Zn269 O276 2.028 . S
O270 C266 1.258 . S
O270 Zn271 2.035 . S
Zn271 O270 2.035 . S
Zn271 O272 2.028 . S
Zn271 O274 2.028 . S
Zn271 O277 2.035 . S
O272 Zn271 2.028 . S
O272 C278 1.247 . S
O273 Zn269 2.035 . S
O273 C278 1.258 . S
O274 C267 1.247 . S
O274 Zn271 2.028 . S
O275 C267 1.258 . S
O275 Zn269 2.035 . S
O276 Zn269 2.028 . S
O276 C279 1.247 . S
O277 Zn271 2.035 . S
O277 C279 1.258 . S
C278 O272 1.247 . S
C278 O273 1.258 . S
C279 O276 1.247 . S
C279 O277 1.258 . S
C280 O282 1.247 . S
C280 O284 1.258 . S
C281 O288 1.247 . S
C281 O289 1.258 . S
O282 C280 1.247 . S
O282 Zn283 2.028 . S
Zn283 O282 2.028 . S
Zn283 O287 2.035 . S
Zn283 O289 2.035 . S
Zn283 O290 2.028 . S
O284 C280 1.258 . S
O284 Zn285 2.035 . S
Zn285 O284 2.035 . S
Zn285 O286 2.028 . S
Zn285 O288 2.028 . S
Zn285 O291 2.035 . S
O286 Zn285 2.028 . S
O286 C292 1.247 . S
O287 Zn283 2.035 . S
O287 C292 1.258 . S
O288 C281 1.247 . S
O288 Zn285 2.028 . S
O289 C281 1.258 . S
O289 Zn283 2.035 . S
O290 Zn283 2.028 . S
O290 C293 1.247 . S
O291 Zn285 2.035 . S
O291 C293 1.258 . S
C292 O286 1.247 . S
C292 O287 1.258 . S
C293 O290 1.247 . S
C293 O291 1.258 . S
C294 O296 1.247 1_565 S
C294 O298 1.258 . S
C295 O302 1.247 . S
C295 O303 1.258 1_565 S
O296 C294 1.247 1_545 S
O296 Zn297 2.016 1_556 S
Zn297 O296 2.016 1_554 S
Zn297 O301 2.036 . S
Zn297 O303 2.047 . S
Zn297 O304 2.031 1_554 S
O298 C294 1.258 . S
O298 Zn299 2.042 . S
Zn299 O298 2.042 . S
Zn299 O300 2.027 1_556 S
Zn299 O302 2.021 1_556 S
Zn299 O305 2.036 . S
O300 Zn299 2.027 1_554 S
O300 C306 1.247 1_565 S
O301 Zn297 2.036 . S
O301 C306 1.258 . S
O302 C295 1.247 . S
O302 Zn299 2.021 1_554 S
O303 C295 1.258 1_545 S
O303 Zn297 2.047 . S
O304 Zn297 2.031 1_556 S
O304 C307 1.243 1_545 S
O305 Zn299 2.036 . S
O305 C307 1.258 . S
C306 O300 1.247 1_545 S
C306 O301 1.258 . S
C307 O304 1.243 1_565 S
C307 O305 1.258 . S
C308 O310 1.247 . S
C308 O312 1.254 . S
C309 O316 1.247 . S
C309 O317 1.258 1_655 S
O310 C308 1.247 . S
O310 Zn311 2.030 . S
Zn311 O310 2.030 . S
Zn311 O315 2.013 1_556 S
Zn311 O317 2.033 1_556 S
Zn311 O318 2.050 . S
O312 C308 1.254 . S
O312 Zn313 2.035 1_456 S
Zn313 O312 2.035 1_654 S
Zn313 O314 2.028 . S
Zn313 O316 2.028 . S
Zn313 O319 2.035 1_554 S
O314 Zn313 2.028 . S
O314 C320 1.247 1_655 S
O315 Zn311 2.013 1_554 S
O315 C320 1.258 . S
O316 C309 1.247 . S
O316 Zn313 2.028 . S
O317 C309 1.258 1_455 S
O317 Zn311 2.033 1_554 S
O318 Zn311 2.050 . S
O318 C321 1.247 . S
O319 Zn313 2.035 1_556 S
O319 C321 1.258 1_655 S
C320 O314 1.247 1_455 S
C320 O315 1.258 . S
C321 O318 1.247 . S
C321 O319 1.258 1_455 S
C322 O324 1.247 . S
C322 O326 1.258 . S
C323 O330 1.247 . S
C323 O331 1.258 . S
O324 C322 1.247 . S
O324 Zn325 2.027 1_554 S
Zn325 O324 2.027 1_556 S
Zn325 O329 2.042 . S
Zn325 O331 2.036 . S
Zn325 O332 2.021 1_556 S
O326 C322 1.258 . S
O326 Zn327 2.036 . S
Zn327 O326 2.036 . S
Zn327 O328 2.016 1_554 S
Zn327 O330 2.027 1_554 S
Zn327 O333 2.047 . S
O328 Zn327 2.016 1_556 S
O328 C334 1.247 . S
O329 Zn325 2.042 . S
O329 C334 1.258 . S
O330 C323 1.247 . S
O330 Zn327 2.027 1_556 S
O331 C323 1.258 . S
O331 Zn325 2.036 . S
O332 Zn325 2.021 1_554 S
O332 C335 1.247 . S
O333 Zn327 2.047 . S
O333 C335 1.258 . S
C334 O328 1.247 . S
C334 O329 1.258 . S
C335 O332 1.247 . S
C335 O333 1.258 . S
C336 O338 1.247 . S
C336 O340 1.258 . S
C337 O344 1.247 . S
C337 O345 1.258 . S
O338 C336 1.247 . S
O338 Zn339 2.028 . S
Zn339 O338 2.028 . S
Zn339 O343 2.035 . S
Zn339 O345 2.035 . S
Zn339 O346 2.028 . S
O340 C336 1.258 . S
O340 Zn341 2.035 . S
Zn341 O340 2.035 . S
Zn341 O342 2.028 . S
Zn341 O344 2.028 . S
Zn341 O347 2.035 . S
O342 Zn341 2.028 . S
O342 C348 1.247 . S
O343 Zn339 2.035 . S
O343 C348 1.258 . S
O344 C337 1.247 . S
O344 Zn341 2.028 . S
O345 C337 1.258 . S
O345 Zn339 2.035 . S
O346 Zn339 2.028 . S
O346 C349 1.247 . S
O347 Zn341 2.035 . S
O347 C349 1.258 . S
C348 O342 1.247 . S
C348 O343 1.258 . S
C349 O346 1.247 . S
C349 O347 1.258 . S
C350 O352 1.247 . S
C350 O354 1.258 . S
C351 O358 1.247 . S
C351 O359 1.258 . S
O352 C350 1.247 . S
O352 Zn353 2.028 . S
Zn353 O352 2.028 . S
Zn353 O357 2.035 . S
Zn353 O359 2.035 . S
Zn353 O360 2.028 . S
O354 C350 1.258 . S
O354 Zn355 2.035 . S
Zn355 O354 2.035 . S
Zn355 O356 2.028 . S
Zn355 O358 2.028 . S
Zn355 O361 2.035 . S
O356 Zn355 2.028 . S
O356 C362 1.247 . S
O357 Zn353 2.035 . S
O357 C362 1.258 . S
O358 C351 1.247 . S
O358 Zn355 2.028 . S
O359 C351 1.258 . S
O359 Zn353 2.035 . S
O360 Zn353 2.028 . S
O360 C363 1.247 . S
O361 Zn355 2.035 . S
O361 C363 1.258 . S
C362 O356 1.247 . S
C362 O357 1.258 . S
C363 O360 1.247 . S
C363 O361 1.258 . S
C364 O366 1.247 . S
C364 O368 1.258 . S
C365 O372 1.247 . S
C365 O373 1.258 . S
O366 C364 1.247 . S
O366 Zn367 2.028 . S
Zn367 O366 2.028 . S
Zn367 O371 2.035 . S
Zn367 O373 2.035 . S
Zn367 O374 2.028 . S
O368 C364 1.258 . S
O368 Zn369 2.035 . S
Zn369 O368 2.035 . S
Zn369 O370 2.028 . S
Zn369 O372 2.028 . S
Zn369 O375 2.035 . S
O370 Zn369 2.028 . S
O370 C376 1.247 . S
O371 Zn367 2.035 . S
O371 C376 1.258 . S
O372 C365 1.247 . S
O372 Zn369 2.028 . S
O373 C365 1.258 . S
O373 Zn367 2.035 . S
O374 Zn367 2.028 . S
O374 C377 1.247 . S
O375 Zn369 2.035 . S
O375 C377 1.258 . S
C376 O370 1.247 . S
C376 O371 1.258 . S
C377 O374 1.247 . S
C377 O375 1.258 . S
C378 O380 1.247 . S
C378 O382 1.258 1_545 S
C379 O386 1.247 1_545 S
C379 O387 1.258 . S
O380 C378 1.247 . S
O380 Zn381 2.050 . S
Zn381 O380 2.050 . S
Zn381 O385 2.033 1_554 S
Zn381 O387 2.013 1_554 S
Zn381 O388 2.030 . S
O382 C378 1.258 1_565 S
O382 Zn383 2.035 1_554 S
Zn383 O382 2.035 1_556 S
Zn383 O384 2.028 . S
Zn383 O386 2.028 . S
Zn383 O389 2.037 1_556 S
O384 Zn383 2.028 . S
O384 C390 1.247 . S
O385 Zn381 2.033 1_556 S
O385 C390 1.258 1_545 S
O386 C379 1.247 1_565 S
O386 Zn383 2.028 . S
O387 C379 1.258 . S
O387 Zn381 2.013 1_556 S
O388 Zn381 2.030 . S
O388 C391 1.247 . S
O389 Zn383 2.037 1_554 S
O389 C391 1.257 1_565 S
C390 O384 1.247 . S
C390 O385 1.258 1_565 S
C391 O388 1.247 . S
C391 O389 1.257 1_545 S
C392 O394 1.247 . S
C392 O396 1.258 1_455 S
C393 O400 1.247 . S
C393 O401 1.258 1_655 S
O394 C392 1.247 . S
O394 Zn395 2.028 . S
Zn395 O394 2.028 . S
Zn395 O399 2.035 1_556 S
Zn395 O401 2.035 1_556 S
Zn395 O402 2.028 . S
O396 C392 1.258 1_655 S
O396 Zn397 2.033 1_556 S
Zn397 O396 2.033 1_554 S
Zn397 O398 2.050 . S
Zn397 O400 2.030 . S
Zn397 O403 2.013 1_554 S
O398 Zn397 2.050 . S
O398 C404 1.247 . S
O399 Zn395 2.035 1_554 S
O399 C404 1.258 1_455 S
O400 C393 1.247 . S
O400 Zn397 2.030 . S
O401 C393 1.258 1_455 S
O401 Zn395 2.035 1_554 S
O402 Zn395 2.028 . S
O402 C405 1.247 1_455 S
O403 Zn397 2.013 1_556 S
O403 C405 1.258 . S
C404 O398 1.247 . S
C404 O399 1.258 1_655 S
C405 O402 1.247 1_655 S
C405 O403 1.258 . S
C406 O408 1.247 . S
C406 O410 1.258 . S
C407 O414 1.247 . S
C407 O415 1.258 . S
O408 C406 1.247 . S
O408 Zn409 2.050 . S
Zn409 O408 2.050 . S
Zn409 O413 2.033 1_554 S
Zn409 O415 2.013 1_554 S
Zn409 O416 2.030 . S
O410 C406 1.258 . S
O410 Zn411 2.035 1_554 S
Zn411 O410 2.035 1_556 S
Zn411 O412 2.028 . S
Zn411 O414 2.028 . S
Zn411 O417 2.035 1_556 S
O412 Zn411 2.028 . S
O412 C418 1.247 . S
O413 Zn409 2.033 1_556 S
O413 C418 1.258 . S
O414 C407 1.247 . S
O414 Zn411 2.028 . S
O415 C407 1.258 . S
O415 Zn409 2.013 1_556 S
O416 Zn409 2.030 . S
O416 C419 1.247 . S
O417 Zn411 2.035 1_554 S
O417 C419 1.258 . S
C418 O412 1.247 . S
C418 O413 1.258 . S
C419 O416 1.247 . S
C419 O417 1.258 . S
C420 O422 1.247 1_655 S
C420 O424 1.258 . S
C421 O428 1.247 . S
C421 O429 1.258 1_655 S
O422 C420 1.247 1_455 S
O422 Zn423 2.028 . S
Zn423 O422 2.028 . S
Zn423 O427 2.035 . S
Zn423 O429 2.035 . S
Zn423 O430 2.028 . S
O424 C420 1.258 . S
O424 Zn425 2.035 . S
Zn425 O424 2.035 . S
Zn425 O426 2.028 . S
Zn425 O428 2.028 . S
Zn425 O431 2.035 . S
O426 Zn425 2.028 . S
O426 C432 1.247 1_655 S
O427 Zn423 2.035 . S
O427 C432 1.258 . S
O428 C421 1.247 . S
O428 Zn425 2.028 . S
O429 C421 1.258 1_455 S
O429 Zn423 2.035 . S
O430 Zn423 2.028 . S
O430 C433 1.247 1_455 S
O431 Zn425 2.035 . S
O431 C433 1.258 . S
C432 O426 1.247 1_455 S
C432 O427 1.258 . S
C433 O430 1.247 1_655 S
C433 O431 1.258 . S
C434 O436 1.247 . S
C434 O438 1.258 . S
C435 O442 1.247 . S
C435 O443 1.258 . S
O436 C434 1.247 . S
O436 Zn437 2.028 . S
Zn437 O436 2.028 . S
Zn437 O441 2.035 . S
Zn437 O443 2.035 . S
Zn437 O444 2.028 . S
O438 C434 1.258 . S
O438 Zn439 2.035 . S
Zn439 O438 2.035 . S
Zn439 O440 2.028 . S
Zn439 O442 2.028 . S
Zn439 O445 2.035 . S
O440 Zn439 2.028 . S
O440 C446 1.247 . S
O441 Zn437 2.035 . S
O441 C446 1.258 . S
O442 C435 1.247 . S
O442 Zn439 2.028 . S
O443 C435 1.258 . S
O443 Zn437 2.035 . S
O444 Zn437 2.028 . S
O444 C447 1.247 . S
O445 Zn439 2.035 . S
O445 C447 1.258 . S
C446 O440 1.247 . S
C446 O441 1.258 . S
C447 O444 1.247 . S
C447 O445 1.258 . S
C448 O450 1.247 . S
C448 O452 1.258 1_545 S
C449 O456 1.247 . S
C449 O457 1.258 1_565 S
O450 C448 1.247 . S
O450 Zn451 2.028 . S
Zn451 O450 2.028 . S
Zn451 O455 2.035 . S
Zn451 O457 2.035 . S
Zn451 O458 2.028 . S
O452 C448 1.258 1_565 S
O452 Zn453 2.035 . S
Zn453 O452 2.035 . S
Zn453 O454 2.028 . S
Zn453 O456 2.028 . S
Zn453 O459 2.035 . S
O454 Zn453 2.028 . S
O454 C460 1.247 1_565 S
O455 Zn451 2.035 . S
O455 C460 1.258 . S
O456 C449 1.247 . S
O456 Zn453 2.028 . S
O457 C449 1.258 1_545 S
O457 Zn451 2.035 . S
O458 Zn451 2.028 . S
O458 C461 1.247 . S
O459 Zn453 2.035 . S
O459 C461 1.258 1_565 S
C460 O454 1.247 1_545 S
C460 O455 1.258 . S
C461 O458 1.247 . S
C461 O459 1.258 1_545 S
C462 O464 1.247 . S
C462 O466 1.258 . S
C463 O470 1.247 . S
C463 O471 1.258 . S
O464 C462 1.247 . S
O464 Zn465 2.028 . S
Zn465 O464 2.028 . S
Zn465 O469 2.035 . S
Zn465 O471 2.035 . S
Zn465 O472 2.028 . S
O466 C462 1.258 . S
O466 Zn467 2.035 . S
Zn467 O466 2.035 . S
Zn467 O468 2.028 . S
Zn467 O470 2.028 . S
Zn467 O473 2.035 . S
O468 Zn467 2.028 . S
O468 C474 1.247 . S
O469 Zn465 2.035 . S
O469 C474 1.258 . S
O470 C463 1.247 . S
O470 Zn467 2.028 . S
O471 C463 1.258 . S
O471 Zn465 2.035 . S
O472 Zn465 2.028 . S
O472 C475 1.247 . S
O473 Zn467 2.035 . S
O473 C475 1.258 . S
C474 O468 1.247 . S
C474 O469 1.258 . S
C475 O472 1.247 . S
C475 O473 1.258 . S
C476 O478 1.247 . S
C476 O480 1.258 . S
C477 O484 1.247 . S
C477 O485 1.258 . S
O478 C476 1.247 . S
O478 Zn479 2.028 . S
Zn479 O478 2.028 . S
Zn479 O483 2.035 . S
Zn479 O485 2.035 . S
Zn479 O486 2.028 . S
O480 C476 1.258 . S
O480 Zn481 2.035 . S
Zn481 O480 2.035 . S
Zn481 O482 2.028 . S
Zn481 O484 2.028 . S
Zn481 O487 2.035 . S
O482 Zn481 2.028 . S
O482 C488 1.247 . S
O483 Zn479 2.035 . S
O483 C488 1.258 . S
O484 C477 1.247 . S
O484 Zn481 2.028 . S
O485 C477 1.258 . S
O485 Zn479 2.035 . S
O486 Zn479 2.028 . S
O486 C489 1.247 . S
O487 Zn481 2.035 . S
O487 C489 1.258 . S
C488 O482 1.247 . S
C488 O483 1.258 . S
C489 O486 1.247 . S
C489 O487 1.258 . S
C490 O492 1.247 . S
C490 O494 1.258 . S
C491 O498 1.247 . S
C491 O499 1.258 . S
O492 C490 1.247 . S
O492 Zn493 2.028 . S
Zn493 O492 2.028 . S
Zn493 O497 2.035 . S
Zn493 O499 2.035 . S
Zn493 O500 2.028 . S
O494 C490 1.258 . S
O494 Zn495 2.035 . S
Zn495 O494 2.035 . S
Zn495 O496 2.028 . S
Zn495 O498 2.028 . S
Zn495 O501 2.035 . S
O496 Zn495 2.028 . S
O496 C502 1.247 . S
O497 Zn493 2.035 . S
O497 C502 1.258 . S
O498 C491 1.247 . S
O498 Zn495 2.028 . S
O499 C491 1.258 . S
O499 Zn493 2.035 . S
O500 Zn493 2.028 . S
O500 C503 1.247 . S
O501 Zn495 2.035 . S
O501 C503 1.258 . S
C502 O496 1.247 . S
C502 O497 1.258 . S
C503 O500 1.247 . S
C503 O501 1.258 . S
H504 C510 0.930 . S
H505 C513 0.930 . S
H506 C514 0.930 . S
H507 C515 0.930 . S
H508 C518 0.930 . S
H509 C519 0.930 . S
C510 H504 0.930 . S
C510 C511 1.355 . S
C510 C512 1.415 . S
C511 C510 1.355 . S
C511 C513 1.419 . S
C512 C510 1.415 . S
C512 C517 1.425 . S
C512 C519 1.409 . S
C513 H505 0.930 . S
C513 C511 1.419 . S
C513 C514 1.362 . S
C514 H506 0.930 . S
C514 C513 1.362 . S
C514 C517 1.409 . S
C515 H507 0.930 . S
C515 C516 1.355 . S
C515 C517 1.415 . S
C516 C515 1.355 . S
C516 C518 1.419 . S
C517 C512 1.425 . S
C517 C514 1.409 . S
C517 C515 1.415 . S
C518 H508 0.930 . S
C518 C516 1.419 . S
C518 C519 1.362 . S
C519 H509 0.930 . S
C519 C512 1.409 . S
C519 C518 1.362 . S
H520 C526 0.930 . S
H521 C529 0.930 . S
H522 C530 0.930 . S
H523 C531 0.930 . S
H524 C534 0.930 . S
H525 C535 0.930 . S
C526 H520 0.930 . S
C526 C527 1.355 . S
C526 C528 1.415 . S
C527 C526 1.355 . S
C527 C529 1.419 . S
C528 C526 1.415 . S
C528 C533 1.425 . S
C528 C535 1.409 . S
C529 H521 0.930 . S
C529 C527 1.419 . S
C529 C530 1.362 . S
C530 H522 0.930 . S
C530 C529 1.362 . S
C530 C533 1.409 . S
C531 H523 0.930 . S
C531 C532 1.355 . S
C531 C533 1.415 . S
C532 C531 1.355 . S
C532 C534 1.419 . S
C533 C528 1.425 . S
C533 C530 1.409 . S
C533 C531 1.415 . S
C534 H524 0.930 . S
C534 C532 1.419 . S
C534 C535 1.362 . S
C535 H525 0.930 . S
C535 C528 1.409 . S
C535 C534 1.362 . S
H536 C542 0.930 . S
H537 C545 0.930 . S
H538 C546 0.930 . S
H539 C547 0.930 . S
H540 C550 0.930 . S
H541 C551 0.930 . S
C542 H536 0.930 . S
C542 C543 1.355 . S
C542 C544 1.415 . S
C543 C542 1.355 . S
C543 C545 1.419 . S
C544 C542 1.415 . S
C544 C549 1.425 . S
C544 C551 1.409 . S
C545 H537 0.930 . S
C545 C543 1.419 . S
C545 C546 1.362 . S
C546 H538 0.930 . S
C546 C545 1.362 . S
C546 C549 1.409 . S
C547 H539 0.930 . S
C547 C548 1.355 . S
C547 C549 1.415 . S
C548 C547 1.355 . S
C548 C550 1.419 . S
C549 C544 1.425 . S
C549 C546 1.409 . S
C549 C547 1.415 . S
C550 H540 0.930 . S
C550 C548 1.419 . S
C550 C551 1.362 . S
C551 H541 0.930 . S
C551 C544 1.409 . S
C551 C550 1.362 . S
H552 C558 0.930 . S
H553 C561 0.930 . S
H554 C562 0.930 . S
H555 C563 0.930 . S
H556 C566 0.930 . S
H557 C567 0.930 . S
C558 H552 0.930 . S
C558 C559 1.355 1_554 S
C558 C560 1.415 . S
C559 C558 1.355 1_556 S
C559 C561 1.419 . S
C560 C558 1.415 . S
C560 C565 1.425 . S
C560 C567 1.409 . S
C561 H553 0.930 . S
C561 C559 1.419 . S
C561 C562 1.362 1_556 S
C562 H554 0.930 . S
C562 C561 1.362 1_554 S
C562 C565 1.409 . S
C563 H555 0.930 . S
C563 C564 1.355 . S
C563 C565 1.415 . S
C564 C563 1.355 . S
C564 C566 1.419 . S
C565 C560 1.425 . S
C565 C562 1.409 . S
C565 C563 1.415 . S
C566 H556 0.930 . S
C566 C564 1.419 . S
C566 C567 1.362 . S
C567 H557 0.930 . S
C567 C560 1.409 . S
C567 C566 1.362 . S
H568 C574 0.930 . S
H569 C577 0.930 . S
H570 C578 0.930 . S
H571 C579 0.930 . S
H572 C582 0.930 . S
H573 C583 0.930 . S
C574 H568 0.930 . S
C574 C575 1.355 . S
C574 C576 1.415 . S
C575 C574 1.355 . S
C575 C577 1.419 . S
C576 C574 1.415 . S
C576 C581 1.425 . S
C576 C583 1.409 . S
C577 H569 0.930 . S
C577 C575 1.419 . S
C577 C578 1.362 . S
C578 H570 0.930 . S
C578 C577 1.362 . S
C578 C581 1.409 . S
C579 H571 0.930 . S
C579 C580 1.355 1_554 S
C579 C581 1.415 . S
C580 C579 1.355 1_556 S
C580 C582 1.419 . S
C581 C576 1.425 . S
C581 C578 1.409 . S
C581 C579 1.415 . S
C582 H572 0.930 . S
C582 C580 1.419 . S
C582 C583 1.362 1_556 S
C583 H573 0.930 . S
C583 C576 1.409 . S
C583 C582 1.362 1_554 S
H584 C590 0.930 . S
H585 C593 0.930 . S
H586 C594 0.930 . S
H587 C595 0.921 1_556 S
H588 C598 0.930 1_556 S
H589 C599 0.930 . S
C590 H584 0.930 . S
C590 C591 1.355 . S
C590 C592 1.415 . S
C591 C590 1.355 . S
C591 C593 1.419 . S
C592 C590 1.415 . S
C592 C597 1.425 . S
C592 C599 1.409 . S
C593 H585 0.930 . S
C593 C591 1.419 . S
C593 C594 1.362 . S
C594 H586 0.930 . S
C594 C593 1.362 . S
C594 C597 1.409 . S
C595 H587 0.921 1_554 S
C595 C596 1.355 1_554 S
C595 C597 1.415 . S
C596 C595 1.355 1_556 S
C596 C598 1.419 1_556 S
C597 C592 1.425 . S
C597 C594 1.409 . S
C597 C595 1.415 . S
C598 H588 0.930 1_554 S
C598 C596 1.419 1_554 S
C598 C599 1.362 . S
C599 H589 0.930 . S
C599 C592 1.409 . S
C599 C598 1.362 . S
H600 C606 0.930 . S
H601 C609 0.930 . S
H602 C610 0.930 . S
H603 C611 0.930 . S
H604 C614 0.930 . S
H605 C615 0.930 . S
C606 H600 0.930 . S
C606 C607 1.355 . S
C606 C608 1.415 . S
C607 C606 1.355 . S
C607 C609 1.419 . S
C608 C606 1.415 . S
C608 C613 1.425 . S
C608 C615 1.409 . S
C609 H601 0.930 . S
C609 C607 1.419 . S
C609 C610 1.362 . S
C610 H602 0.930 . S
C610 C609 1.362 . S
C610 C613 1.409 . S
C611 H603 0.930 . S
C611 C612 1.355 . S
C611 C613 1.415 . S
C612 C611 1.355 . S
C612 C614 1.419 . S
C613 C608 1.425 . S
C613 C610 1.409 . S
C613 C611 1.415 . S
C614 H604 0.930 . S
C614 C612 1.419 . S
C614 C615 1.362 . S
C615 H605 0.930 . S
C615 C608 1.409 . S
C615 C614 1.362 . S
H616 C622 0.930 . S
H617 C625 0.930 . S
H618 C626 0.930 . S
H619 C627 0.930 . S
H620 C630 0.930 . S
H621 C631 0.930 . S
C622 H616 0.930 . S
C622 C623 1.355 . S
C622 C624 1.415 . S
C623 C622 1.355 . S
C623 C625 1.419 . S
C624 C622 1.415 . S
C624 C629 1.425 . S
C624 C631 1.409 . S
C625 H617 0.930 . S
C625 C623 1.419 . S
C625 C626 1.362 . S
C626 H618 0.930 . S
C626 C625 1.362 . S
C626 C629 1.409 . S
C627 H619 0.930 . S
C627 C628 1.355 . S
C627 C629 1.415 . S
C628 C627 1.355 . S
C628 C630 1.419 . S
C629 C624 1.425 . S
C629 C626 1.409 . S
C629 C627 1.415 . S
C630 H620 0.930 . S
C630 C628 1.419 . S
C630 C631 1.362 . S
C631 H621 0.930 . S
C631 C624 1.409 . S
C631 C630 1.362 . S
H632 C638 0.930 . S
H633 C641 0.930 . S
H634 C642 0.930 . S
H635 C643 0.930 . S
H636 C646 0.930 . S
H637 C647 0.930 . S
C638 H632 0.930 . S
C638 C639 1.355 . S
C638 C640 1.415 . S
C639 C638 1.355 . S
C639 C641 1.419 . S
C640 C638 1.415 . S
C640 C645 1.425 . S
C640 C647 1.409 . S
C641 H633 0.930 . S
C641 C639 1.419 . S
C641 C642 1.362 . S
C642 H634 0.930 . S
C642 C641 1.362 . S
C642 C645 1.409 . S
C643 H635 0.930 . S
C643 C644 1.355 . S
C643 C645 1.415 . S
C644 C643 1.355 . S
C644 C646 1.419 . S
C645 C640 1.425 . S
C645 C642 1.409 . S
C645 C643 1.415 . S
C646 H636 0.930 . S
C646 C644 1.419 . S
C646 C647 1.362 . S
C647 H637 0.930 . S
C647 C640 1.409 . S
C647 C646 1.362 . S
H648 C654 0.930 . S
H649 C657 0.930 . S
H650 C658 0.930 . S
H651 C659 0.930 . S
H652 C662 0.930 1_554 S
H653 C663 0.930 . S
C654 H648 0.930 . S
C654 C655 1.355 . S
C654 C656 1.415 . S
C655 C654 1.355 . S
C655 C657 1.419 . S
C656 C654 1.415 . S
C656 C661 1.425 . S
C656 C663 1.409 . S
C657 H649 0.930 . S
C657 C655 1.419 . S
C657 C658 1.362 . S
C658 H650 0.930 . S
C658 C657 1.362 . S
C658 C661 1.409 . S
C659 H651 0.930 . S
C659 C660 1.355 1_556 S
C659 C661 1.415 . S
C660 C659 1.355 1_554 S
C660 C662 1.419 1_554 S
C661 C656 1.425 . S
C661 C658 1.409 . S
C661 C659 1.415 . S
C662 H652 0.930 1_556 S
C662 C660 1.419 1_556 S
C662 C663 1.362 . S
C663 H653 0.930 . S
C663 C656 1.409 . S
C663 C662 1.362 . S
H664 C670 0.923 1_554 S
H665 C673 0.930 1_554 S
H666 C674 0.930 . S
H667 C675 0.930 . S
H668 C678 0.930 . S
H669 C679 0.930 . S
C670 H664 0.923 1_556 S
C670 C671 1.355 1_556 S
C670 C672 1.415 . S
C671 C670 1.355 1_554 S
C671 C673 1.419 1_554 S
C672 C670 1.415 . S
C672 C677 1.425 . S
C672 C679 1.409 . S
C673 H665 0.930 1_556 S
C673 C671 1.419 1_556 S
C673 C674 1.362 . S
C674 H666 0.930 . S
C674 C673 1.362 . S
C674 C677 1.409 . S
C675 H667 0.930 . S
C675 C676 1.355 . S
C675 C677 1.415 . S
C676 C675 1.355 . S
C676 C678 1.419 . S
C677 C672 1.425 . S
C677 C674 1.409 . S
C677 C675 1.415 . S
C678 H668 0.930 . S
C678 C676 1.419 . S
C678 C679 1.362 . S
C679 H669 0.930 . S
C679 C672 1.409 . S
C679 C678 1.362 . S
H680 C686 0.930 . S
H681 C689 0.930 . S
H682 C690 0.930 . S
H683 C691 0.930 . S
H684 C694 0.930 1_554 S
H685 C695 0.930 . S
C686 H680 0.930 . S
C686 C687 1.355 . S
C686 C688 1.415 . S
C687 C686 1.355 . S
C687 C689 1.419 . S
C688 C686 1.415 . S
C688 C693 1.425 . S
C688 C695 1.409 . S
C689 H681 0.930 . S
C689 C687 1.419 . S
C689 C690 1.362 . S
C690 H682 0.930 . S
C690 C689 1.362 . S
C690 C693 1.409 . S
C691 H683 0.930 . S
C691 C692 1.355 1_556 S
C691 C693 1.415 . S
C692 C691 1.355 1_554 S
C692 C694 1.419 1_554 S
C693 C688 1.425 . S
C693 C690 1.409 . S
C693 C691 1.415 . S
C694 H684 0.930 1_556 S
C694 C692 1.419 1_556 S
C694 C695 1.362 . S
C695 H685 0.930 . S
C695 C688 1.409 . S
C695 C694 1.362 . S
H696 C702 0.930 . S
H697 C705 0.930 . S
H698 C706 0.930 . S
H699 C707 0.930 . S
H700 C710 0.930 . S
H701 C711 0.930 . S
C702 H696 0.930 . S
C702 C703 1.355 . S
C702 C704 1.415 . S
C703 C702 1.355 . S
C703 C705 1.419 1_655 S
C704 C702 1.415 . S
C704 C709 1.425 1_655 S
C704 C711 1.409 . S
C705 H697 0.930 . S
C705 C703 1.419 1_455 S
C705 C706 1.362 . S
C706 H698 0.930 . S
C706 C705 1.362 . S
C706 C709 1.409 . S
C707 H699 0.930 . S
C707 C708 1.355 . S
C707 C709 1.415 . S
C708 C707 1.355 . S
C708 C710 1.419 1_455 S
C709 C704 1.425 1_455 S
C709 C706 1.409 . S
C709 C707 1.415 . S
C710 H700 0.930 . S
C710 C708 1.419 1_655 S
C710 C711 1.362 . S
C711 H701 0.930 . S
C711 C704 1.409 . S
C711 C710 1.362 . S
H712 C718 0.930 . S
H713 C721 0.930 . S
H714 C722 0.930 . S
H715 C723 0.930 . S
H716 C726 0.930 . S
H717 C727 0.930 . S
C718 H712 0.930 . S
C718 C719 1.355 . S
C718 C720 1.415 . S
C719 C718 1.355 . S
C719 C721 1.419 . S
C720 C718 1.415 . S
C720 C725 1.425 . S
C720 C727 1.409 . S
C721 H713 0.930 . S
C721 C719 1.419 . S
C721 C722 1.362 . S
C722 H714 0.930 . S
C722 C721 1.362 . S
C722 C725 1.409 . S
C723 H715 0.930 . S
C723 C724 1.355 . S
C723 C725 1.415 . S
C724 C723 1.355 . S
C724 C726 1.419 . S
C725 C720 1.425 . S
C725 C722 1.409 . S
C725 C723 1.415 . S
C726 H716 0.930 . S
C726 C724 1.419 . S
C726 C727 1.362 . S
C727 H717 0.930 . S
C727 C720 1.409 . S
C727 C726 1.362 . S
H728 C734 0.930 . S
H729 C737 0.930 . S
H730 C738 0.930 . S
H731 C739 0.930 . S
H732 C742 0.930 . S
H733 C743 0.930 . S
C734 H728 0.930 . S
C734 C735 1.355 . S
C734 C736 1.415 . S
C735 C734 1.355 . S
C735 C737 1.419 1_545 S
C736 C734 1.415 . S
C736 C741 1.425 1_545 S
C736 C743 1.409 . S
C737 H729 0.930 . S
C737 C735 1.419 1_565 S
C737 C738 1.362 . S
C738 H730 0.930 . S
C738 C737 1.362 . S
C738 C741 1.409 . S
C739 H731 0.930 . S
C739 C740 1.355 . S
C739 C741 1.415 . S
C740 C739 1.355 . S
C740 C742 1.419 1_565 S
C741 C736 1.425 1_565 S
C741 C738 1.409 . S
C741 C739 1.415 . S
C742 H732 0.930 . S
C742 C740 1.419 1_545 S
C742 C743 1.362 . S
C743 H733 0.930 . S
C743 C736 1.409 . S
C743 C742 1.362 . S
H744 C750 0.930 . S
H745 C753 0.930 . S
H746 C754 0.930 . S
H747 C755 0.930 . S
H748 C758 0.930 . S
H749 C759 0.930 . S
C750 H744 0.930 . S
C750 C751 1.355 . S
C750 C752 1.415 . S
C751 C750 1.355 . S
C751 C753 1.419 1_545 S
C752 C750 1.415 . S
C752 C757 1.425 1_545 S
C752 C759 1.409 . S
C753 H745 0.930 . S
C753 C751 1.419 1_565 S
C753 C754 1.362 . S
C754 H746 0.930 . S
C754 C753 1.362 . S
C754 C757 1.409 . S
C755 H747 0.930 . S
C755 C756 1.355 . S
C755 C757 1.415 . S
C756 C755 1.355 . S
C756 C758 1.419 1_565 S
C757 C752 1.425 1_565 S
C757 C754 1.409 . S
C757 C755 1.415 . S
C758 H748 0.930 . S
C758 C756 1.419 1_545 S
C758 C759 1.362 . S
C759 H749 0.930 . S
C759 C752 1.409 . S
C759 C758 1.362 . S
H760 C766 0.930 . S
H761 C769 0.930 . S
H762 C770 0.930 . S
H763 C771 0.930 . S
H764 C774 0.930 . S
H765 C775 0.930 . S
C766 H760 0.930 . S
C766 C767 1.355 1_455 S
C766 C768 1.415 . S
C767 C766 1.355 1_655 S
C767 C769 1.419 . S
C768 C766 1.415 . S
C768 C773 1.425 1_455 S
C768 C775 1.409 . S
C769 H761 0.930 . S
C769 C767 1.419 . S
C769 C770 1.362 . S
C770 H762 0.930 . S
C770 C769 1.362 . S
C770 C773 1.409 . S
C771 H763 0.930 . S
C771 C772 1.355 1_655 S
C771 C773 1.415 . S
C772 C771 1.355 1_455 S
C772 C774 1.419 . S
C773 C768 1.425 1_655 S
C773 C770 1.409 . S
C773 C771 1.415 . S
C774 H764 0.930 . S
C774 C772 1.419 . S
C774 C775 1.362 . S
C775 H765 0.930 . S
C775 C768 1.409 . S
C775 C774 1.362 . S
H776 C782 0.930 . S
H777 C785 0.930 . S
H778 C786 0.930 . S
H779 C787 0.930 . S
H780 C790 0.930 . S
H781 C791 0.930 . S
C782 H776 0.930 . S
C782 C783 1.355 . S
C782 C784 1.415 . S
C783 C782 1.355 . S
C783 C785 1.419 . S
C784 C782 1.415 . S
C784 C789 1.425 . S
C784 C791 1.409 . S
C785 H777 0.930 . S
C785 C783 1.419 . S
C785 C786 1.362 . S
C786 H778 0.930 . S
C786 C785 1.362 . S
C786 C789 1.409 . S
C787 H779 0.930 . S
C787 C788 1.355 . S
C787 C789 1.415 . S
C788 C787 1.355 . S
C788 C790 1.419 . S
C789 C784 1.425 . S
C789 C786 1.409 . S
C789 C787 1.415 . S
C790 H780 0.930 . S
C790 C788 1.419 . S
C790 C791 1.362 . S
C791 H781 0.930 . S
C791 C784 1.409 . S
C791 C790 1.362 . S
H792 C798 0.930 . S
H793 C801 0.930 . S
H794 C802 0.930 . S
H795 C803 0.930 . S
H796 C806 0.930 . S
H797 C807 0.930 . S
C798 H792 0.930 . S
C798 C799 1.355 . S
C798 C800 1.415 . S
C799 C798 1.355 . S
C799 C801 1.419 . S
C800 C798 1.415 . S
C800 C805 1.425 . S
C800 C807 1.409 . S
C801 H793 0.930 . S
C801 C799 1.419 . S
C801 C802 1.362 . S
C802 H794 0.930 . S
C802 C801 1.362 . S
C802 C805 1.409 . S
C803 H795 0.930 . S
C803 C804 1.355 . S
C803 C805 1.415 . S
C804 C803 1.355 . S
C804 C806 1.419 . S
C805 C800 1.425 . S
C805 C802 1.409 . S
C805 C803 1.415 . S
C806 H796 0.930 . S
C806 C804 1.419 . S
C806 C807 1.362 . S
C807 H797 0.930 . S
C807 C800 1.409 . S
C807 C806 1.362 . S
H808 C814 0.930 . S
H809 C817 0.930 . S
H810 C818 0.930 . S
H811 C819 0.930 . S
H812 C822 0.930 . S
H813 C823 0.930 . S
C814 H808 0.930 . S
C814 C815 1.355 . S
C814 C816 1.415 . S
C815 C814 1.355 . S
C815 C817 1.419 . S
C816 C814 1.415 . S
C816 C821 1.425 . S
C816 C823 1.409 . S
C817 H809 0.930 . S
C817 C815 1.419 . S
C817 C818 1.362 . S
C818 H810 0.930 . S
C818 C817 1.362 . S
C818 C821 1.409 . S
C819 H811 0.930 . S
C819 C820 1.355 . S
C819 C821 1.415 . S
C820 C819 1.355 . S
C820 C822 1.419 . S
C821 C816 1.425 . S
C821 C818 1.409 . S
C821 C819 1.415 . S
C822 H812 0.930 . S
C822 C820 1.419 . S
C822 C823 1.362 . S
C823 H813 0.930 . S
C823 C816 1.409 . S
C823 C822 1.362 . S
H824 C830 0.930 . S
H825 C833 0.930 . S
H826 C834 0.930 . S
H827 C835 0.930 . S
H828 C838 0.930 . S
H829 C839 0.930 . S
C830 H824 0.930 . S
C830 C831 1.355 . S
C830 C832 1.415 . S
C831 C830 1.355 . S
C831 C833 1.419 . S
C832 C830 1.415 . S
C832 C837 1.425 . S
C832 C839 1.409 . S
C833 H825 0.930 . S
C833 C831 1.419 . S
C833 C834 1.362 . S
C834 H826 0.930 . S
C834 C833 1.362 . S
C834 C837 1.409 . S
C835 H827 0.930 . S
C835 C836 1.355 . S
C835 C837 1.415 . S
C836 C835 1.355 . S
C836 C838 1.419 . S
C837 C832 1.425 . S
C837 C834 1.409 . S
C837 C835 1.415 . S
C838 H828 0.930 . S
C838 C836 1.419 . S
C838 C839 1.362 . S
C839 H829 0.930 . S
C839 C832 1.409 . S
C839 C838 1.362 . S
H840 C846 0.930 . S
H841 C849 0.930 . S
H842 C850 0.930 . S
H843 C851 0.930 . S
H844 C854 0.930 . S
H845 C855 0.930 . S
C846 H840 0.930 . S
C846 C847 1.355 . S
C846 C848 1.415 . S
C847 C846 1.355 . S
C847 C849 1.419 . S
C848 C846 1.415 . S
C848 C853 1.425 . S
C848 C855 1.409 . S
C849 H841 0.930 . S
C849 C847 1.419 . S
C849 C850 1.362 . S
C850 H842 0.930 . S
C850 C849 1.362 . S
C850 C853 1.409 . S
C851 H843 0.930 . S
C851 C852 1.355 . S
C851 C853 1.415 . S
C852 C851 1.355 . S
C852 C854 1.419 . S
C853 C848 1.425 . S
C853 C850 1.409 . S
C853 C851 1.415 . S
C854 H844 0.930 . S
C854 C852 1.419 . S
C854 C855 1.362 . S
C855 H845 0.930 . S
C855 C848 1.409 . S
C855 C854 1.362 . S
H856 C862 0.930 . S
H857 C865 0.930 . S
H858 C866 0.930 . S
H859 C867 0.930 . S
H860 C870 0.930 . S
H861 C871 0.930 . S
C862 H856 0.930 . S
C862 C863 1.355 . S
C862 C864 1.415 . S
C863 C862 1.355 . S
C863 C865 1.419 . S
C864 C862 1.415 . S
C864 C869 1.425 . S
C864 C871 1.409 . S
C865 H857 0.930 . S
C865 C863 1.419 . S
C865 C866 1.362 . S
C866 H858 0.930 . S
C866 C865 1.362 . S
C866 C869 1.409 . S
C867 H859 0.930 . S
C867 C868 1.355 . S
C867 C869 1.415 . S
C868 C867 1.355 . S
C868 C870 1.419 . S
C869 C864 1.425 . S
C869 C866 1.409 . S
C869 C867 1.415 . S
C870 H860 0.930 . S
C870 C868 1.419 . S
C870 C871 1.362 . S
C871 H861 0.930 . S
C871 C864 1.409 . S
C871 C870 1.362 . S
H872 C878 0.930 . S
H873 C881 0.930 . S
H874 C882 0.930 . S
H875 C883 0.930 . S
H876 C886 0.930 . S
H877 C887 0.930 . S
C878 H872 0.930 . S
C878 C879 1.355 . S
C878 C880 1.415 . S
C879 C878 1.355 . S
C879 C881 1.419 . S
C880 C878 1.415 . S
C880 C885 1.425 . S
C880 C887 1.409 . S
C881 H873 0.930 . S
C881 C879 1.419 . S
C881 C882 1.362 . S
C882 H874 0.930 . S
C882 C881 1.362 . S
C882 C885 1.409 . S
C883 H875 0.930 . S
C883 C884 1.355 . S
C883 C885 1.415 . S
C884 C883 1.355 . S
C884 C886 1.419 . S
C885 C880 1.425 . S
C885 C882 1.409 . S
C885 C883 1.415 . S
C886 H876 0.930 . S
C886 C884 1.419 . S
C886 C887 1.362 . S
C887 H877 0.930 . S
C887 C880 1.409 . S
C887 C886 1.362 . S
H888 C894 0.930 . S
H889 C897 0.930 . S
H890 C898 0.930 . S
H891 C899 0.930 . S
H892 C902 0.930 . S
H893 C903 0.930 . S
C894 H888 0.930 . S
C894 C895 1.355 . S
C894 C896 1.415 . S
C895 C894 1.355 . S
C895 C897 1.419 . S
C896 C894 1.415 . S
C896 C901 1.425 . S
C896 C903 1.409 . S
C897 H889 0.930 . S
C897 C895 1.419 . S
C897 C898 1.362 . S
C898 H890 0.930 . S
C898 C897 1.362 . S
C898 C901 1.409 . S
C899 H891 0.930 . S
C899 C900 1.355 . S
C899 C901 1.415 . S
C900 C899 1.355 . S
C900 C902 1.419 . S
C901 C896 1.425 . S
C901 C898 1.409 . S
C901 C899 1.415 . S
C902 H892 0.930 . S
C902 C900 1.419 . S
C902 C903 1.362 . S
C903 H893 0.930 . S
C903 C896 1.409 . S
C903 C902 1.362 . S
H904 C910 0.930 . S
H905 C913 0.930 . S
H906 C914 0.930 . S
H907 C915 0.930 . S
H908 C918 0.930 . S
H909 C919 0.930 . S
C910 H904 0.930 . S
C910 C911 1.355 . S
C910 C912 1.415 . S
C911 C910 1.355 . S
C911 C913 1.419 . S
C912 C910 1.415 . S
C912 C917 1.425 . S
C912 C919 1.409 . S
C913 H905 0.930 . S
C913 C911 1.419 . S
C913 C914 1.362 . S
C914 H906 0.930 . S
C914 C913 1.362 . S
C914 C917 1.409 . S
C915 H907 0.930 . S
C915 C916 1.355 . S
C915 C917 1.415 . S
C916 C915 1.355 . S
C916 C918 1.419 . S
C917 C912 1.425 . S
C917 C914 1.409 . S
C917 C915 1.415 . S
C918 H908 0.930 . S
C918 C916 1.419 . S
C918 C919 1.362 . S
C919 H909 0.930 . S
C919 C912 1.409 . S
C919 C918 1.362 . S
H920 C926 0.930 . S
H921 C929 0.930 . S
H922 C930 0.930 . S
H923 C931 0.930 . S
H924 C934 0.930 . S
H925 C935 0.930 . S
C926 H920 0.930 . S
C926 C927 1.355 . S
C926 C928 1.415 . S
C927 C926 1.355 . S
C927 C929 1.419 . S
C928 C926 1.415 . S
C928 C933 1.425 . S
C928 C935 1.409 . S
C929 H921 0.930 . S
C929 C927 1.419 . S
C929 C930 1.362 . S
C930 H922 0.930 . S
C930 C929 1.362 . S
C930 C933 1.409 . S
C931 H923 0.930 . S
C931 C932 1.355 . S
C931 C933 1.415 . S
C932 C931 1.355 . S
C932 C934 1.419 . S
C933 C928 1.425 . S
C933 C930 1.409 . S
C933 C931 1.415 . S
C934 H924 0.930 . S
C934 C932 1.419 . S
C934 C935 1.362 . S
C935 H925 0.930 . S
C935 C928 1.409 . S
C935 C934 1.362 . S
H936 C942 0.930 . S
H937 C945 0.930 . S
H938 C946 0.930 . S
H939 C947 0.930 . S
H940 C950 0.930 . S
H941 C951 0.930 . S
C942 H936 0.930 . S
C942 C943 1.355 . S
C942 C944 1.415 . S
C943 C942 1.355 . S
C943 C945 1.419 . S
C944 C942 1.415 . S
C944 C949 1.425 . S
C944 C951 1.409 . S
C945 H937 0.930 . S
C945 C943 1.419 . S
C945 C946 1.362 . S
C946 H938 0.930 . S
C946 C945 1.362 . S
C946 C949 1.409 . S
C947 H939 0.930 . S
C947 C948 1.355 . S
C947 C949 1.415 . S
C948 C947 1.355 . S
C948 C950 1.419 . S
C949 C944 1.425 . S
C949 C946 1.409 . S
C949 C947 1.415 . S
C950 H940 0.930 . S
C950 C948 1.419 . S
C950 C951 1.362 . S
C951 H941 0.930 . S
C951 C944 1.409 . S
C951 C950 1.362 . S
H952 C958 0.930 . S
H953 C961 0.930 . S
H954 C962 0.930 . S
H955 C963 0.930 . S
H956 C966 0.930 . S
H957 C967 0.930 . S
C958 H952 0.930 . S
C958 C959 1.355 . S
C958 C960 1.415 . S
C959 C958 1.355 . S
C959 C961 1.419 . S
C960 C958 1.415 . S
C960 C965 1.425 . S
C960 C967 1.409 . S
C961 H953 0.930 . S
C961 C959 1.419 . S
C961 C962 1.362 . S
C962 H954 0.930 . S
C962 C961 1.362 . S
C962 C965 1.409 . S
C963 H955 0.930 . S
C963 C964 1.355 . S
C963 C965 1.415 . S
C964 C963 1.355 . S
C964 C966 1.419 . S
C965 C960 1.425 . S
C965 C962 1.409 . S
C965 C963 1.415 . S
C966 H956 0.930 . S
C966 C964 1.419 . S
C966 C967 1.362 . S
C967 H957 0.930 . S
C967 C960 1.409 . S
C967 C966 1.362 . S
H968 C974 0.930 . S
H969 C977 0.930 . S
H970 C978 0.930 . S
H971 C979 0.930 . S
H972 C982 0.930 . S
H973 C983 0.930 . S
C974 H968 0.930 . S
C974 C975 1.355 . S
C974 C976 1.415 . S
C975 C974 1.355 . S
C975 C977 1.419 . S
C976 C974 1.415 . S
C976 C981 1.425 . S
C976 C983 1.409 . S
C977 H969 0.930 . S
C977 C975 1.419 . S
C977 C978 1.362 . S
C978 H970 0.930 . S
C978 C977 1.362 . S
C978 C981 1.409 . S
C979 H971 0.930 . S
C979 C980 1.355 . S
C979 C981 1.415 . S
C980 C979 1.355 . S
C980 C982 1.419 . S
C981 C976 1.425 . S
C981 C978 1.409 . S
C981 C979 1.415 . S
C982 H972 0.930 . S
C982 C980 1.419 . S
C982 C983 1.362 . S
C983 H973 0.930 . S
C983 C976 1.409 . S
C983 C982 1.362 . S
H984 C990 0.930 . S
H985 C993 0.930 . S
H986 C994 0.930 . S
H987 C995 0.930 . S
H988 C998 0.930 . S
H989 C999 0.930 . S
C990 H984 0.930 . S
C990 C991 1.355 1_455 S
C990 C992 1.415 . S
C991 C990 1.355 1_655 S
C991 C993 1.419 . S
C992 C990 1.415 . S
C992 C997 1.425 1_455 S
C992 C999 1.409 . S
C993 H985 0.930 . S
C993 C991 1.419 . S
C993 C994 1.362 . S
C994 H986 0.930 . S
C994 C993 1.362 . S
C994 C997 1.409 . S
C995 H987 0.930 . S
C995 C996 1.355 1_655 S
C995 C997 1.415 . S
C996 C995 1.355 1_455 S
C996 C998 1.419 . S
C997 C992 1.425 1_655 S
C997 C994 1.409 . S
C997 C995 1.415 . S
C998 H988 0.930 . S
C998 C996 1.419 . S
C998 C999 1.362 . S
C999 H989 0.930 . S
C999 C992 1.409 . S
C999 C998 1.362 . S
H1000 C1006 0.930 . S
H1001 C1009 0.930 . S
H1002 C1010 0.930 . S
H1003 C1011 0.930 . S
H1004 C1014 0.930 . S
H1005 C1015 0.930 . S
C1006 H1000 0.930 . S
C1006 C1007 1.355 . S
C1006 C1008 1.415 . S
C1007 C1006 1.355 . S
C1007 C1009 1.419 . S
C1008 C1006 1.415 . S
C1008 C1013 1.425 . S
C1008 C1015 1.409 . S
C1009 H1001 0.930 . S
C1009 C1007 1.419 . S
C1009 C1010 1.362 . S
C1010 H1002 0.930 . S
C1010 C1009 1.362 . S
C1010 C1013 1.409 . S
C1011 H1003 0.930 . S
C1011 C1012 1.355 . S
C1011 C1013 1.415 . S
C1012 C1011 1.355 . S
C1012 C1014 1.419 . S
C1013 C1008 1.425 . S
C1013 C1010 1.409 . S
C1013 C1011 1.415 . S
C1014 H1004 0.930 . S
C1014 C1012 1.419 . S
C1014 C1015 1.362 . S
C1015 H1005 0.930 . S
C1015 C1008 1.409 . S
C1015 C1014 1.362 . S
H1016 C1022 0.930 . S
H1017 C1025 0.930 . S
H1018 C1026 0.930 . S
H1019 C1027 0.930 . S
H1020 C1030 0.930 . S
H1021 C1031 0.930 . S
C1022 H1016 0.930 . S
C1022 C1023 1.355 1_545 S
C1022 C1024 1.415 . S
C1023 C1022 1.355 1_565 S
C1023 C1025 1.419 . S
C1024 C1022 1.415 . S
C1024 C1029 1.425 1_545 S
C1024 C1031 1.409 . S
C1025 H1017 0.930 . S
C1025 C1023 1.419 . S
C1025 C1026 1.362 . S
C1026 H1018 0.930 . S
C1026 C1025 1.362 . S
C1026 C1029 1.409 . S
C1027 H1019 0.930 . S
C1027 C1028 1.355 1_565 S
C1027 C1029 1.415 . S
C1028 C1027 1.355 1_545 S
C1028 C1030 1.419 . S
C1029 C1024 1.425 1_565 S
C1029 C1026 1.409 . S
C1029 C1027 1.415 . S
C1030 H1020 0.930 . S
C1030 C1028 1.419 . S
C1030 C1031 1.362 . S
C1031 H1021 0.930 . S
C1031 C1024 1.409 . S
C1031 C1030 1.362 . S
H1032 C1038 0.930 . S
H1033 C1041 0.930 . S
H1034 C1042 0.930 . S
H1035 C1043 0.930 . S
H1036 C1046 0.930 . S
H1037 C1047 0.930 . S
C1038 H1032 0.930 . S
C1038 C1039 1.355 1_544 S
C1038 C1040 1.415 . S
C1039 C1038 1.355 1_566 S
C1039 C1041 1.419 . S
C1040 C1038 1.415 . S
C1040 C1045 1.425 1_544 S
C1040 C1047 1.409 . S
C1041 H1033 0.930 . S
C1041 C1039 1.419 . S
C1041 C1042 1.362 . S
C1042 H1034 0.930 . S
C1042 C1041 1.362 . S
C1042 C1045 1.409 . S
C1043 H1035 0.930 . S
C1043 C1044 1.355 1_566 S
C1043 C1045 1.415 . S
C1044 C1043 1.355 1_544 S
C1044 C1046 1.419 . S
C1045 C1040 1.425 1_566 S
C1045 C1042 1.409 . S
C1045 C1043 1.415 . S
C1046 H1036 0.930 . S
C1046 C1044 1.419 . S
C1046 C1047 1.362 . S
C1047 H1037 0.930 . S
C1047 C1040 1.409 . S
C1047 C1046 1.362 . S
H1048 C1054 0.930 . S
H1049 C1057 0.930 . S
H1050 C1058 0.930 . S
H1051 C1059 0.930 . S
H1052 C1062 0.930 . S
H1053 C1063 0.930 . S
C1054 H1048 0.930 . S
C1054 C1055 1.355 1_556 S
C1054 C1056 1.415 . S
C1055 C1054 1.355 1_554 S
C1055 C1057 1.419 1_655 S
C1056 C1054 1.415 . S
C1056 C1061 1.425 1_656 S
C1056 C1063 1.409 . S
C1057 H1049 0.930 . S
C1057 C1055 1.419 1_455 S
C1057 C1058 1.362 . S
C1058 H1050 0.930 . S
C1058 C1057 1.362 . S
C1058 C1061 1.409 . S
C1059 H1051 0.930 . S
C1059 C1060 1.355 1_554 S
C1059 C1061 1.415 . S
C1060 C1059 1.355 1_556 S
C1060 C1062 1.419 1_455 S
C1061 C1056 1.425 1_454 S
C1061 C1058 1.409 . S
C1061 C1059 1.415 . S
C1062 H1052 0.930 . S
C1062 C1060 1.419 1_655 S
C1062 C1063 1.362 . S
C1063 H1053 0.930 . S
C1063 C1056 1.409 . S
C1063 C1062 1.362 . S
H1064 C1070 0.930 1_556 S
H1065 C1073 0.930 . S
H1066 C1074 0.930 . S
H1067 C1075 0.930 . S
H1068 C1078 0.930 . S
H1069 C1079 0.930 . S
C1070 H1064 0.930 1_554 S
C1070 C1071 1.354 . S
C1070 C1072 1.415 1_554 S
C1071 C1070 1.354 . S
C1071 C1073 1.419 . S
C1072 C1070 1.415 1_556 S
C1072 C1077 1.425 1_556 S
C1072 C1079 1.409 . S
C1073 H1065 0.930 . S
C1073 C1071 1.419 . S
C1073 C1074 1.362 . S
C1074 H1066 0.930 . S
C1074 C1073 1.362 . S
C1074 C1077 1.409 . S
C1075 H1067 0.930 . S
C1075 C1076 1.354 1_554 S
C1075 C1077 1.415 . S
C1076 C1075 1.354 1_556 S
C1076 C1078 1.419 . S
C1077 C1072 1.425 1_554 S
C1077 C1074 1.409 . S
C1077 C1075 1.415 . S
C1078 H1068 0.930 . S
C1078 C1076 1.419 . S
C1078 C1079 1.362 . S
C1079 H1069 0.930 . S
C1079 C1072 1.409 . S
C1079 C1078 1.362 . S
H1080 C1086 0.930 1_556 S
H1081 C1089 0.930 . S
H1082 C1090 0.930 . S
H1083 C1091 0.930 . S
H1084 C1094 0.930 . S
H1085 C1095 0.930 1_556 S
C1086 H1080 0.930 1_554 S
C1086 C1087 1.355 . S
C1086 C1088 1.415 . S
C1087 C1086 1.355 . S
C1087 C1089 1.419 . S
C1088 C1086 1.415 . S
C1088 C1093 1.425 . S
C1088 C1095 1.409 . S
C1089 H1081 0.930 . S
C1089 C1087 1.419 . S
C1089 C1090 1.362 . S
C1090 H1082 0.930 . S
C1090 C1089 1.362 . S
C1090 C1093 1.409 . S
C1091 H1083 0.930 . S
C1091 C1092 1.355 . S
C1091 C1093 1.415 . S
C1092 C1091 1.355 . S
C1092 C1094 1.419 . S
C1093 C1088 1.425 . S
C1093 C1090 1.409 . S
C1093 C1091 1.415 . S
C1094 H1084 0.930 . S
C1094 C1092 1.419 . S
C1094 C1095 1.362 . S
C1095 H1085 0.930 1_554 S
C1095 C1088 1.409 . S
C1095 C1094 1.362 . S
H1096 C1102 0.930 . S
H1097 C1105 0.930 . S
H1098 C1106 0.930 . S
H1099 C1107 0.930 . S
H1100 C1110 0.930 1_455 S
H1101 C1111 0.930 . S
C1102 H1096 0.930 . S
C1102 C1103 1.355 . S
C1102 C1104 1.415 . S
C1103 C1102 1.355 . S
C1103 C1105 1.419 . S
C1104 C1102 1.415 . S
C1104 C1109 1.425 . S
C1104 C1111 1.409 . S
C1105 H1097 0.930 . S
C1105 C1103 1.419 . S
C1105 C1106 1.362 . S
C1106 H1098 0.930 . S
C1106 C1105 1.362 . S
C1106 C1109 1.409 . S
C1107 H1099 0.930 . S
C1107 C1108 1.355 . S
C1107 C1109 1.415 . S
C1108 C1107 1.355 . S
C1108 C1110 1.419 . S
C1109 C1104 1.425 . S
C1109 C1106 1.409 . S
C1109 C1107 1.415 . S
C1110 H1100 0.930 1_655 S
C1110 C1108 1.419 . S
C1110 C1111 1.362 . S
C1111 H1101 0.930 . S
C1111 C1104 1.409 . S
C1111 C1110 1.362 . S
H1112 C1118 0.930 . S
H1113 C1121 0.930 . S
H1114 C1122 0.930 . S
H1115 C1123 0.930 1_556 S
H1116 C1126 0.930 . S
H1117 C1127 0.930 . S
C1118 H1112 0.930 . S
C1118 C1119 1.355 . S
C1118 C1120 1.415 . S
C1119 C1118 1.355 . S
C1119 C1121 1.419 . S
C1120 C1118 1.415 . S
C1120 C1125 1.425 . S
C1120 C1127 1.409 . S
C1121 H1113 0.930 . S
C1121 C1119 1.419 . S
C1121 C1122 1.362 . S
C1122 H1114 0.930 . S
C1122 C1121 1.362 . S
C1122 C1125 1.409 . S
C1123 H1115 0.930 1_554 S
C1123 C1124 1.355 . S
C1123 C1125 1.415 . S
C1124 C1123 1.355 . S
C1124 C1126 1.419 . S
C1125 C1120 1.425 . S
C1125 C1122 1.409 . S
C1125 C1123 1.415 . S
C1126 H1116 0.930 . S
C1126 C1124 1.419 . S
C1126 C1127 1.362 . S
C1127 H1117 0.930 . S
C1127 C1120 1.409 . S
C1127 C1126 1.362 . S
H1128 C1134 0.930 . S
H1129 C1137 0.970 . S
H1130 C1138 0.930 . S
H1131 C1139 0.930 . S
H1132 C1142 0.930 . S
H1133 C1143 0.930 . S
C1134 H1128 0.930 . S
C1134 C1135 1.355 . S
C1134 C1136 1.415 . S
C1135 C1134 1.355 . S
C1135 C1137 1.419 . S
C1136 C1134 1.415 . S
C1136 C1141 1.425 . S
C1136 C1143 1.409 . S
C1137 H1129 0.970 . S
C1137 C1135 1.419 . S
C1137 C1138 1.362 . S
C1138 H1130 0.930 . S
C1138 C1137 1.362 . S
C1138 C1141 1.409 . S
C1139 H1131 0.930 . S
C1139 C1140 1.355 . S
C1139 C1141 1.415 . S
C1140 C1139 1.355 . S
C1140 C1142 1.419 . S
C1141 C1136 1.425 . S
C1141 C1138 1.409 . S
C1141 C1139 1.415 . S
C1142 H1132 0.930 . S
C1142 C1140 1.419 . S
C1142 C1143 1.362 . S
C1143 H1133 0.930 . S
C1143 C1136 1.409 . S
C1143 C1142 1.362 . S
H1144 C1150 0.930 . S
H1145 C1153 0.930 . S
H1146 C1154 0.930 . S
H1147 C1155 0.930 . S
H1148 C1158 0.930 . S
H1149 C1159 0.930 . S
C1150 H1144 0.930 . S
C1150 C1151 1.355 . S
C1150 C1152 1.415 . S
C1151 C1150 1.355 . S
C1151 C1153 1.419 . S
C1152 C1150 1.415 . S
C1152 C1157 1.425 . S
C1152 C1159 1.409 . S
C1153 H1145 0.930 . S
C1153 C1151 1.419 . S
C1153 C1154 1.362 . S
C1154 H1146 0.930 . S
C1154 C1153 1.362 . S
C1154 C1157 1.409 . S
C1155 H1147 0.930 . S
C1155 C1156 1.355 . S
C1155 C1157 1.415 . S
C1156 C1155 1.355 . S
C1156 C1158 1.419 . S
C1157 C1152 1.425 . S
C1157 C1154 1.409 . S
C1157 C1155 1.415 . S
C1158 H1148 0.930 . S
C1158 C1156 1.419 . S
C1158 C1159 1.362 . S
C1159 H1149 0.930 . S
C1159 C1152 1.409 . S
C1159 C1158 1.362 . S
H1160 C1166 0.930 . S
H1161 C1169 0.930 . S
H1162 C1170 0.930 . S
H1163 C1171 0.930 . S
H1164 C1174 0.930 . S
H1165 C1175 0.930 . S
C1166 H1160 0.930 . S
C1166 C1167 1.355 . S
C1166 C1168 1.415 . S
C1167 C1166 1.355 . S
C1167 C1169 1.419 . S
C1168 C1166 1.415 . S
C1168 C1173 1.425 . S
C1168 C1175 1.409 . S
C1169 H1161 0.930 . S
C1169 C1167 1.419 . S
C1169 C1170 1.362 . S
C1170 H1162 0.930 . S
C1170 C1169 1.362 . S
C1170 C1173 1.409 . S
C1171 H1163 0.930 . S
C1171 C1172 1.355 . S
C1171 C1173 1.415 . S
C1172 C1171 1.355 . S
C1172 C1174 1.419 . S
C1173 C1168 1.425 . S
C1173 C1170 1.409 . S
C1173 C1171 1.415 . S
C1174 H1164 0.930 . S
C1174 C1172 1.419 . S
C1174 C1175 1.362 . S
C1175 H1165 0.930 . S
C1175 C1168 1.409 . S
C1175 C1174 1.362 . S
H1176 C1182 0.930 . S
H1177 C1185 0.930 . S
H1178 C1186 0.930 . S
H1179 C1187 0.930 . S
H1180 C1190 0.930 . S
H1181 C1191 0.930 . S
C1182 H1176 0.930 . S
C1182 C1183 1.355 . S
C1182 C1184 1.415 . S
C1183 C1182 1.355 . S
C1183 C1185 1.419 . S
C1184 C1182 1.415 . S
C1184 C1189 1.425 . S
C1184 C1191 1.409 . S
C1185 H1177 0.930 . S
C1185 C1183 1.419 . S
C1185 C1186 1.362 . S
C1186 H1178 0.930 . S
C1186 C1185 1.362 . S
C1186 C1189 1.409 . S
C1187 H1179 0.930 . S
C1187 C1188 1.355 . S
C1187 C1189 1.415 . S
C1188 C1187 1.355 . S
C1188 C1190 1.419 . S
C1189 C1184 1.425 . S
C1189 C1186 1.409 . S
C1189 C1187 1.415 . S
C1190 H1180 0.930 . S
C1190 C1188 1.419 . S
C1190 C1191 1.362 . S
C1191 H1181 0.930 . S
C1191 C1184 1.409 . S
C1191 C1190 1.362 . S
H1192 C1198 0.930 . S
H1193 C1201 0.930 . S
H1194 C1202 0.930 . S
H1195 C1203 0.930 . S
H1196 C1206 0.930 1_554 S
H1197 C1207 0.930 . S
C1198 H1192 0.930 . S
C1198 C1199 1.355 . S
C1198 C1200 1.415 . S
C1199 C1198 1.355 . S
C1199 C1201 1.419 . S
C1200 C1198 1.415 . S
C1200 C1205 1.425 . S
C1200 C1207 1.409 . S
C1201 H1193 0.930 . S
C1201 C1199 1.419 . S
C1201 C1202 1.362 . S
C1202 H1194 0.930 . S
C1202 C1201 1.362 . S
C1202 C1205 1.409 . S
C1203 H1195 0.930 . S
C1203 C1204 1.355 . S
C1203 C1205 1.415 . S
C1204 C1203 1.355 . S
C1204 C1206 1.419 . S
C1205 C1200 1.425 . S
C1205 C1202 1.409 . S
C1205 C1203 1.415 . S
C1206 H1196 0.930 1_556 S
C1206 C1204 1.419 . S
C1206 C1207 1.362 . S
C1207 H1197 0.930 . S
C1207 C1200 1.409 . S
C1207 C1206 1.362 . S
H1208 C1214 0.930 . S
H1209 C1217 0.930 . S
H1210 C1218 0.930 . S
H1211 C1219 0.930 . S
H1212 C1222 0.930 . S
H1213 C1223 0.930 . S
C1214 H1208 0.930 . S
C1214 C1215 1.355 . S
C1214 C1216 1.415 . S
C1215 C1214 1.355 . S
C1215 C1217 1.419 . S
C1216 C1214 1.415 . S
C1216 C1221 1.425 . S
C1216 C1223 1.409 . S
C1217 H1209 0.930 . S
C1217 C1215 1.419 . S
C1217 C1218 1.362 . S
C1218 H1210 0.930 . S
C1218 C1217 1.362 . S
C1218 C1221 1.409 . S
C1219 H1211 0.930 . S
C1219 C1220 1.355 . S
C1219 C1221 1.415 . S
C1220 C1219 1.355 . S
C1220 C1222 1.419 . S
C1221 C1216 1.425 . S
C1221 C1218 1.409 . S
C1221 C1219 1.415 . S
C1222 H1212 0.930 . S
C1222 C1220 1.419 . S
C1222 C1223 1.362 . S
C1223 H1213 0.930 . S
C1223 C1216 1.409 . S
C1223 C1222 1.362 . S
H1224 C1230 0.930 . S
H1225 C1233 0.930 . S
H1226 C1234 0.930 . S
H1227 C1235 0.930 . S
H1228 C1238 0.930 1_455 S
H1229 C1239 0.930 . S
C1230 H1224 0.930 . S
C1230 C1231 1.355 . S
C1230 C1232 1.415 . S
C1231 C1230 1.355 . S
C1231 C1233 1.419 . S
C1232 C1230 1.415 . S
C1232 C1237 1.425 . S
C1232 C1239 1.409 . S
C1233 H1225 0.930 . S
C1233 C1231 1.419 . S
C1233 C1234 1.362 . S
C1234 H1226 0.930 . S
C1234 C1233 1.362 . S
C1234 C1237 1.409 . S
C1235 H1227 0.930 . S
C1235 C1236 1.355 . S
C1235 C1237 1.415 . S
C1236 C1235 1.355 . S
C1236 C1238 1.419 . S
C1237 C1232 1.425 . S
C1237 C1234 1.409 . S
C1237 C1235 1.415 . S
C1238 H1228 0.930 1_655 S
C1238 C1236 1.419 . S
C1238 C1239 1.362 . S
C1239 H1229 0.930 . S
C1239 C1232 1.409 . S
C1239 C1238 1.362 . S
H1240 C1246 0.930 . S
H1241 C1249 0.930 . S
H1242 C1250 0.930 . S
H1243 C1251 0.930 . S
H1244 C1254 0.930 . S
H1245 C1255 0.930 . S
C1246 H1240 0.930 . S
C1246 C1247 1.355 . S
C1246 C1248 1.415 . S
C1247 C1246 1.355 . S
C1247 C1249 1.419 . S
C1248 C1246 1.415 . S
C1248 C1253 1.425 . S
C1248 C1255 1.409 . S
C1249 H1241 0.930 . S
C1249 C1247 1.419 . S
C1249 C1250 1.362 . S
C1250 H1242 0.930 . S
C1250 C1249 1.362 . S
C1250 C1253 1.409 . S
C1251 H1243 0.930 . S
C1251 C1252 1.355 . S
C1251 C1253 1.415 . S
C1252 C1251 1.355 . S
C1252 C1254 1.419 . S
C1253 C1248 1.425 . S
C1253 C1250 1.409 . S
C1253 C1251 1.415 . S
C1254 H1244 0.930 . S
C1254 C1252 1.419 . S
C1254 C1255 1.362 . S
C1255 H1245 0.930 . S
C1255 C1248 1.409 . S
C1255 C1254 1.362 . S
H1256 C1262 0.930 . S
H1257 C1265 0.930 . S
H1258 C1266 0.930 . S
H1259 C1267 0.930 . S
H1260 C1270 0.930 . S
H1261 C1271 0.930 . S
C1262 H1256 0.930 . S
C1262 C1263 1.355 . S
C1262 C1264 1.415 . S
C1263 C1262 1.355 . S
C1263 C1265 1.419 . S
C1264 C1262 1.415 . S
C1264 C1269 1.425 . S
C1264 C1271 1.409 . S
C1265 H1257 0.930 . S
C1265 C1263 1.419 . S
C1265 C1266 1.362 . S
C1266 H1258 0.930 . S
C1266 C1265 1.362 . S
C1266 C1269 1.409 . S
C1267 H1259 0.930 . S
C1267 C1268 1.355 . S
C1267 C1269 1.415 . S
C1268 C1267 1.355 . S
C1268 C1270 1.419 . S
C1269 C1264 1.425 . S
C1269 C1266 1.409 . S
C1269 C1267 1.415 . S
C1270 H1260 0.930 . S
C1270 C1268 1.419 . S
C1270 C1271 1.362 . S
C1271 H1261 0.930 . S
C1271 C1264 1.409 . S
C1271 C1270 1.362 . S
H1272 C1278 0.930 . S
H1273 C1281 0.930 . S
H1274 C1282 0.930 . S
H1275 C1283 0.930 . S
H1276 C1286 0.930 . S
H1277 C1287 0.930 . S
C1278 H1272 0.930 . S
C1278 C1279 1.355 . S
C1278 C1280 1.415 . S
C1279 C1278 1.355 . S
C1279 C1281 1.419 . S
C1280 C1278 1.415 . S
C1280 C1285 1.425 . S
C1280 C1287 1.409 . S
C1281 H1273 0.930 . S
C1281 C1279 1.419 . S
C1281 C1282 1.362 . S
C1282 H1274 0.930 . S
C1282 C1281 1.362 . S
C1282 C1285 1.409 . S
C1283 H1275 0.930 . S
C1283 C1284 1.355 . S
C1283 C1285 1.415 . S
C1284 C1283 1.355 . S
C1284 C1286 1.419 . S
C1285 C1280 1.425 . S
C1285 C1282 1.409 . S
C1285 C1283 1.415 . S
C1286 H1276 0.930 . S
C1286 C1284 1.419 . S
C1286 C1287 1.362 . S
C1287 H1277 0.930 . S
C1287 C1280 1.409 . S
C1287 C1286 1.362 . S
H1288 C1294 0.930 . S
H1289 C1297 0.930 . S
H1290 C1298 0.930 . S
H1291 C1299 0.930 . S
H1292 C1302 0.930 . S
H1293 C1303 0.929 . S
C1294 H1288 0.930 . S
C1294 C1295 1.355 . S
C1294 C1296 1.415 . S
C1295 C1294 1.355 . S
C1295 C1297 1.419 . S
C1296 C1294 1.415 . S
C1296 C1301 1.425 1_565 S
C1296 C1303 1.409 1_565 S
C1297 H1289 0.930 . S
C1297 C1295 1.419 . S
C1297 C1298 1.362 . S
C1298 H1290 0.930 . S
C1298 C1297 1.362 . S
C1298 C1301 1.409 1_565 S
C1299 H1291 0.930 . S
C1299 C1300 1.355 . S
C1299 C1301 1.415 . S
C1300 C1299 1.355 . S
C1300 C1302 1.419 . S
C1301 C1296 1.425 1_545 S
C1301 C1298 1.409 1_545 S
C1301 C1299 1.415 . S
C1302 H1292 0.930 . S
C1302 C1300 1.419 . S
C1302 C1303 1.362 . S
C1303 H1293 0.929 . S
C1303 C1296 1.409 1_545 S
C1303 C1302 1.362 . S
H1304 C1310 0.930 . S
H1305 C1313 0.930 . S
H1306 C1314 0.930 1_655 S
H1307 C1315 0.930 . S
H1308 C1318 0.930 . S
H1309 C1319 0.930 1_455 S
C1310 H1304 0.930 . S
C1310 C1311 1.355 . S
C1310 C1312 1.415 . S
C1311 C1310 1.355 . S
C1311 C1313 1.419 . S
C1312 C1310 1.415 . S
C1312 C1317 1.425 1_455 S
C1312 C1319 1.409 1_455 S
C1313 H1305 0.930 . S
C1313 C1311 1.419 . S
C1313 C1314 1.362 . S
C1314 H1306 0.930 1_455 S
C1314 C1313 1.362 . S
C1314 C1317 1.409 1_455 S
C1315 H1307 0.930 . S
C1315 C1316 1.355 . S
C1315 C1317 1.415 . S
C1316 C1315 1.355 . S
C1316 C1318 1.419 . S
C1317 C1312 1.425 1_655 S
C1317 C1314 1.409 1_655 S
C1317 C1315 1.415 . S
C1318 H1308 0.930 . S
C1318 C1316 1.419 . S
C1318 C1319 1.362 . S
C1319 H1309 0.930 1_655 S
C1319 C1312 1.409 1_655 S
C1319 C1318 1.362 . S
H1320 C1326 0.930 . S
H1321 C1329 0.930 . S
H1322 C1330 0.930 . S
H1323 C1331 0.930 . S
H1324 C1334 0.930 . S
H1325 C1335 0.930 . S
C1326 H1320 0.930 . S
C1326 C1327 1.355 . S
C1326 C1328 1.415 . S
C1327 C1326 1.355 . S
C1327 C1329 1.419 . S
C1328 C1326 1.415 . S
C1328 C1333 1.425 . S
C1328 C1335 1.409 . S
C1329 H1321 0.930 . S
C1329 C1327 1.419 . S
C1329 C1330 1.362 . S
C1330 H1322 0.930 . S
C1330 C1329 1.362 . S
C1330 C1333 1.409 . S
C1331 H1323 0.930 . S
C1331 C1332 1.355 . S
C1331 C1333 1.415 . S
C1332 C1331 1.355 . S
C1332 C1334 1.419 . S
C1333 C1328 1.425 . S
C1333 C1330 1.409 . S
C1333 C1331 1.415 . S
C1334 H1324 0.930 . S
C1334 C1332 1.419 . S
C1334 C1335 1.362 . S
C1335 H1325 0.930 . S
C1335 C1328 1.409 . S
C1335 C1334 1.362 . S
H1336 C1342 0.930 . S
H1337 C1345 0.930 . S
H1338 C1346 0.930 . S
H1339 C1347 0.930 . S
H1340 C1350 0.930 . S
H1341 C1351 0.930 . S
C1342 H1336 0.930 . S
C1342 C1343 1.355 . S
C1342 C1344 1.415 . S
C1343 C1342 1.355 . S
C1343 C1345 1.419 . S
C1344 C1342 1.415 . S
C1344 C1349 1.425 1_565 S
C1344 C1351 1.409 1_565 S
C1345 H1337 0.930 . S
C1345 C1343 1.419 . S
C1345 C1346 1.362 . S
C1346 H1338 0.930 . S
C1346 C1345 1.362 . S
C1346 C1349 1.409 1_565 S
C1347 H1339 0.930 . S
C1347 C1348 1.355 . S
C1347 C1349 1.415 . S
C1348 C1347 1.355 . S
C1348 C1350 1.419 . S
C1349 C1344 1.425 1_545 S
C1349 C1346 1.409 1_545 S
C1349 C1347 1.415 . S
C1350 H1340 0.930 . S
C1350 C1348 1.419 . S
C1350 C1351 1.362 . S
C1351 H1341 0.930 . S
C1351 C1344 1.409 1_545 S
C1351 C1350 1.362 . S
H1352 C1358 0.930 . S
H1353 C1361 0.930 . S
H1354 C1362 0.930 . S
H1355 C1363 0.930 . S
H1356 C1366 0.930 . S
H1357 C1367 0.930 . S
C1358 H1352 0.930 . S
C1358 C1359 1.355 . S
C1358 C1360 1.412 1_455 S
C1359 C1358 1.355 . S
C1359 C1361 1.419 . S
C1360 C1358 1.412 1_655 S
C1360 C1365 1.428 1_655 S
C1360 C1367 1.412 . S
C1361 H1353 0.930 . S
C1361 C1359 1.419 . S
C1361 C1362 1.362 . S
C1362 H1354 0.930 . S
C1362 C1361 1.362 . S
C1362 C1365 1.437 . S
C1363 H1355 0.930 . S
C1363 C1364 1.355 . S
C1363 C1365 1.386 1_655 S
C1364 C1363 1.355 . S
C1364 C1366 1.419 . S
C1365 C1360 1.428 1_455 S
C1365 C1362 1.437 . S
C1365 C1363 1.386 1_455 S
C1366 H1356 0.930 . S
C1366 C1364 1.419 . S
C1366 C1367 1.362 . S
C1367 H1357 0.930 . S
C1367 C1360 1.412 . S
C1367 C1366 1.362 . S
H1368 C1374 0.930 . S
H1369 C1377 0.930 1_554 S
H1370 C1378 0.930 . S
H1371 C1379 0.930 . S
H1372 C1382 0.930 . S
H1373 C1383 0.930 . S
C1374 H1368 0.930 . S
C1374 C1375 1.355 1_556 S
C1374 C1376 1.415 . S
C1375 C1374 1.355 1_554 S
C1375 C1377 1.419 1_554 S
C1376 C1374 1.415 . S
C1376 C1381 1.425 . S
C1376 C1383 1.409 . S
C1377 H1369 0.930 1_556 S
C1377 C1375 1.419 1_556 S
C1377 C1378 1.362 . S
C1378 H1370 0.930 . S
C1378 C1377 1.362 . S
C1378 C1381 1.409 . S
C1379 H1371 0.930 . S
C1379 C1380 1.355 . S
C1379 C1381 1.415 . S
C1380 C1379 1.355 . S
C1380 C1382 1.419 . S
C1381 C1376 1.425 . S
C1381 C1378 1.409 . S
C1381 C1379 1.415 . S
C1382 H1372 0.930 . S
C1382 C1380 1.419 . S
C1382 C1383 1.362 . S
C1383 H1373 0.930 . S
C1383 C1376 1.409 . S
C1383 C1382 1.362 . S
H1384 C1390 0.930 . S
H1385 C1393 0.930 1_554 S
H1386 C1394 0.930 . S
H1387 C1395 0.930 . S
H1388 C1398 0.930 . S
H1389 C1399 0.930 . S
C1390 H1384 0.930 . S
C1390 C1391 1.355 1_556 S
C1390 C1392 1.415 . S
C1391 C1390 1.355 1_554 S
C1391 C1393 1.419 1_554 S
C1392 C1390 1.415 . S
C1392 C1397 1.425 . S
C1392 C1399 1.409 . S
C1393 H1385 0.930 1_556 S
C1393 C1391 1.419 1_556 S
C1393 C1394 1.362 . S
C1394 H1386 0.930 . S
C1394 C1393 1.362 . S
C1394 C1397 1.409 . S
C1395 H1387 0.930 . S
C1395 C1396 1.355 . S
C1395 C1397 1.415 . S
C1396 C1395 1.355 . S
C1396 C1398 1.419 . S
C1397 C1392 1.425 . S
C1397 C1394 1.409 . S
C1397 C1395 1.415 . S
C1398 H1388 0.930 . S
C1398 C1396 1.419 . S
C1398 C1399 1.362 . S
C1399 H1389 0.930 . S
C1399 C1392 1.409 . S
C1399 C1398 1.362 . S
H1400 C1406 0.930 . S
H1401 C1409 0.930 1_554 S
H1402 C1410 0.930 . S
H1403 C1411 0.930 . S
H1404 C1414 0.930 . S
H1405 C1415 0.930 . S
C1406 H1400 0.930 . S
C1406 C1407 1.355 1_556 S
C1406 C1408 1.415 . S
C1407 C1406 1.355 1_554 S
C1407 C1409 1.419 1_554 S
C1408 C1406 1.415 . S
C1408 C1413 1.425 . S
C1408 C1415 1.409 . S
C1409 H1401 0.930 1_556 S
C1409 C1407 1.419 1_556 S
C1409 C1410 1.362 . S
C1410 H1402 0.930 . S
C1410 C1409 1.362 . S
C1410 C1413 1.409 . S
C1411 H1403 0.930 . S
C1411 C1412 1.355 . S
C1411 C1413 1.415 . S
C1412 C1411 1.355 . S
C1412 C1414 1.419 . S
C1413 C1408 1.425 . S
C1413 C1410 1.409 . S
C1413 C1411 1.415 . S
C1414 H1404 0.930 . S
C1414 C1412 1.419 . S
C1414 C1415 1.362 . S
C1415 H1405 0.930 . S
C1415 C1408 1.409 . S
C1415 C1414 1.362 . S
H1416 C1422 0.930 . S
H1417 C1425 0.930 . S
H1418 C1426 0.930 . S
H1419 C1427 0.930 . S
H1420 C1430 0.930 . S
H1421 C1431 0.930 . S
C1422 H1416 0.930 . S
C1422 C1423 1.355 . S
C1422 C1424 1.415 . S
C1423 C1422 1.355 . S
C1423 C1425 1.419 . S
C1424 C1422 1.415 . S
C1424 C1429 1.425 . S
C1424 C1431 1.409 . S
C1425 H1417 0.930 . S
C1425 C1423 1.419 . S
C1425 C1426 1.362 . S
C1426 H1418 0.930 . S
C1426 C1425 1.362 . S
C1426 C1429 1.409 . S
C1427 H1419 0.930 . S
C1427 C1428 1.355 . S
C1427 C1429 1.415 . S
C1428 C1427 1.355 . S
C1428 C1430 1.419 . S
C1429 C1424 1.425 . S
C1429 C1426 1.409 . S
C1429 C1427 1.415 . S
C1430 H1420 0.930 . S
C1430 C1428 1.419 . S
C1430 C1431 1.362 . S
C1431 H1421 0.930 . S
C1431 C1424 1.409 . S
C1431 C1430 1.362 . S
H1432 C1438 0.930 . S
H1433 C1441 0.930 . S
H1434 C1442 0.930 . S
H1435 C1443 0.930 . S
H1436 C1446 0.930 . S
H1437 C1447 0.930 . S
C1438 H1432 0.930 . S
C1438 C1439 1.355 . S
C1438 C1440 1.415 . S
C1439 C1438 1.355 . S
C1439 C1441 1.419 . S
C1440 C1438 1.415 . S
C1440 C1445 1.425 . S
C1440 C1447 1.409 . S
C1441 H1433 0.930 . S
C1441 C1439 1.419 . S
C1441 C1442 1.362 . S
C1442 H1434 0.930 . S
C1442 C1441 1.362 . S
C1442 C1445 1.409 . S
C1443 H1435 0.930 . S
C1443 C1444 1.355 . S
C1443 C1445 1.415 . S
C1444 C1443 1.355 . S
C1444 C1446 1.419 . S
C1445 C1440 1.425 . S
C1445 C1442 1.409 . S
C1445 C1443 1.415 . S
C1446 H1436 0.930 . S
C1446 C1444 1.419 . S
C1446 C1447 1.362 . S
C1447 H1437 0.930 . S
C1447 C1440 1.409 . S
C1447 C1446 1.362 . S
H1448 C1454 0.930 . S
H1449 C1457 0.930 . S
H1450 C1458 0.930 . S
H1451 C1459 0.930 . S
H1452 C1462 0.930 . S
H1453 C1463 0.930 . S
C1454 H1448 0.930 . S
C1454 C1455 1.355 . S
C1454 C1456 1.415 . S
C1455 C1454 1.355 . S
C1455 C1457 1.419 . S
C1456 C1454 1.415 . S
C1456 C1461 1.425 . S
C1456 C1463 1.409 . S
C1457 H1449 0.930 . S
C1457 C1455 1.419 . S
C1457 C1458 1.362 . S
C1458 H1450 0.930 . S
C1458 C1457 1.362 . S
C1458 C1461 1.409 . S
C1459 H1451 0.930 . S
C1459 C1460 1.355 . S
C1459 C1461 1.415 . S
C1460 C1459 1.355 . S
C1460 C1462 1.419 . S
C1461 C1456 1.425 . S
C1461 C1458 1.409 . S
C1461 C1459 1.415 . S
C1462 H1452 0.930 . S
C1462 C1460 1.419 . S
C1462 C1463 1.362 . S
C1463 H1453 0.930 . S
C1463 C1456 1.409 . S
C1463 C1462 1.362 . S
H1464 C1470 0.930 . S
H1465 C1473 0.930 . S
H1466 C1474 0.930 . S
H1467 C1475 0.930 . S
H1468 C1478 0.930 1_556 S
H1469 C1479 0.930 . S
C1470 H1464 0.930 . S
C1470 C1471 1.355 . S
C1470 C1472 1.415 . S
C1471 C1470 1.355 . S
C1471 C1473 1.419 . S
C1472 C1470 1.415 . S
C1472 C1477 1.425 . S
C1472 C1479 1.409 . S
C1473 H1465 0.930 . S
C1473 C1471 1.419 . S
C1473 C1474 1.362 . S
C1474 H1466 0.930 . S
C1474 C1473 1.362 . S
C1474 C1477 1.409 . S
C1475 H1467 0.930 . S
C1475 C1476 1.355 1_554 S
C1475 C1477 1.415 . S
C1476 C1475 1.355 1_556 S
C1476 C1478 1.419 1_556 S
C1477 C1472 1.425 . S
C1477 C1474 1.409 . S
C1477 C1475 1.415 . S
C1478 H1468 0.930 1_554 S
C1478 C1476 1.419 1_554 S
C1478 C1479 1.362 . S
C1479 H1469 0.930 . S
C1479 C1472 1.409 . S
C1479 C1478 1.362 . S
H1480 C1486 0.930 . S
H1481 C1489 0.930 . S
H1482 C1490 0.930 . S
H1483 C1491 0.930 . S
H1484 C1494 0.930 1_556 S
H1485 C1495 0.930 . S
C1486 H1480 0.930 . S
C1486 C1487 1.355 . S
C1486 C1488 1.415 . S
C1487 C1486 1.355 . S
C1487 C1489 1.419 . S
C1488 C1486 1.415 . S
C1488 C1493 1.425 . S
C1488 C1495 1.409 . S
C1489 H1481 0.930 . S
C1489 C1487 1.419 . S
C1489 C1490 1.362 . S
C1490 H1482 0.930 . S
C1490 C1489 1.362 . S
C1490 C1493 1.409 . S
C1491 H1483 0.930 . S
C1491 C1492 1.355 1_554 S
C1491 C1493 1.415 . S
C1492 C1491 1.355 1_556 S
C1492 C1494 1.419 1_556 S
C1493 C1488 1.425 . S
C1493 C1490 1.409 . S
C1493 C1491 1.415 . S
C1494 H1484 0.930 1_554 S
C1494 C1492 1.419 1_554 S
C1494 C1495 1.362 . S
C1495 H1485 0.930 . S
C1495 C1488 1.409 . S
C1495 C1494 1.362 . S
H1496 C1502 0.930 . S
H1497 C1505 0.930 . S
H1498 C1506 0.930 . S
H1499 C1507 0.930 . S
H1500 C1510 0.930 1_556 S
H1501 C1511 0.930 . S
C1502 H1496 0.930 . S
C1502 C1503 1.355 . S
C1502 C1504 1.415 . S
C1503 C1502 1.355 . S
C1503 C1505 1.419 . S
C1504 C1502 1.415 . S
C1504 C1509 1.425 . S
C1504 C1511 1.409 . S
C1505 H1497 0.930 . S
C1505 C1503 1.419 . S
C1505 C1506 1.362 . S
C1506 H1498 0.930 . S
C1506 C1505 1.362 . S
C1506 C1509 1.409 . S
C1507 H1499 0.930 . S
C1507 C1508 1.355 1_554 S
C1507 C1509 1.415 . S
C1508 C1507 1.355 1_556 S
C1508 C1510 1.419 1_556 S
C1509 C1504 1.425 . S
C1509 C1506 1.409 . S
C1509 C1507 1.415 . S
C1510 H1500 0.930 1_554 S
C1510 C1508 1.419 1_554 S
C1510 C1511 1.362 . S
C1511 H1501 0.930 . S
C1511 C1504 1.409 . S
C1511 C1510 1.362 . S
H1512 C1518 0.930 . S
H1513 C1521 0.930 . S
H1514 C1522 0.930 . S
H1515 C1523 0.930 . S
H1516 C1526 0.930 . S
H1517 C1527 0.930 . S
C1518 H1512 0.930 . S
C1518 C1519 1.355 . S
C1518 C1520 1.415 . S
C1519 C1518 1.355 . S
C1519 C1521 1.419 . S
C1520 C1518 1.415 . S
C1520 C1525 1.425 . S
C1520 C1527 1.409 . S
C1521 H1513 0.930 . S
C1521 C1519 1.419 . S
C1521 C1522 1.362 . S
C1522 H1514 0.930 . S
C1522 C1521 1.362 . S
C1522 C1525 1.409 . S
C1523 H1515 0.930 . S
C1523 C1524 1.355 . S
C1523 C1525 1.415 . S
C1524 C1523 1.355 . S
C1524 C1526 1.419 . S
C1525 C1520 1.425 . S
C1525 C1522 1.409 . S
C1525 C1523 1.415 . S
C1526 H1516 0.930 . S
C1526 C1524 1.419 . S
C1526 C1527 1.362 . S
C1527 H1517 0.930 . S
C1527 C1520 1.409 . S
C1527 C1526 1.362 . S
H1528 C1534 0.930 . S
H1529 C1537 0.930 . S
H1530 C1538 0.930 . S
H1531 C1539 0.930 . S
H1532 C1542 0.930 . S
H1533 C1543 0.930 . S
C1534 H1528 0.930 . S
C1534 C1535 1.355 . S
C1534 C1536 1.415 . S
C1535 C1534 1.355 . S
C1535 C1537 1.419 . S
C1536 C1534 1.415 . S
C1536 C1541 1.425 . S
C1536 C1543 1.409 . S
C1537 H1529 0.930 . S
C1537 C1535 1.419 . S
C1537 C1538 1.362 . S
C1538 H1530 0.930 . S
C1538 C1537 1.362 . S
C1538 C1541 1.409 . S
C1539 H1531 0.930 . S
C1539 C1540 1.355 . S
C1539 C1541 1.415 . S
C1540 C1539 1.355 . S
C1540 C1542 1.419 . S
C1541 C1536 1.425 . S
C1541 C1538 1.409 . S
C1541 C1539 1.415 . S
C1542 H1532 0.930 . S
C1542 C1540 1.419 . S
C1542 C1543 1.362 . S
C1543 H1533 0.930 . S
C1543 C1536 1.409 . S
C1543 C1542 1.362 . S
H1544 C1550 0.930 . S
H1545 C1553 0.930 . S
H1546 C1554 0.930 . S
H1547 C1555 0.930 . S
H1548 C1558 0.930 . S
H1549 C1559 0.930 . S
C1550 H1544 0.930 . S
C1550 C1551 1.355 . S
C1550 C1552 1.415 . S
C1551 C1550 1.355 . S
C1551 C1553 1.419 . S
C1552 C1550 1.415 . S
C1552 C1557 1.425 . S
C1552 C1559 1.409 . S
C1553 H1545 0.930 . S
C1553 C1551 1.419 . S
C1553 C1554 1.362 . S
C1554 H1546 0.930 . S
C1554 C1553 1.362 . S
C1554 C1557 1.409 . S
C1555 H1547 0.930 . S
C1555 C1556 1.355 . S
C1555 C1557 1.415 . S
C1556 C1555 1.355 . S
C1556 C1558 1.419 . S
C1557 C1552 1.425 . S
C1557 C1554 1.409 . S
C1557 C1555 1.415 . S
C1558 H1548 0.930 . S
C1558 C1556 1.419 . S
C1558 C1559 1.362 . S
C1559 H1549 0.930 . S
C1559 C1552 1.409 . S
C1559 C1558 1.362 . S
H1560 C1566 0.925 . S
H1561 C1569 0.930 . S
H1562 C1570 0.930 . S
H1563 C1571 0.930 . S
H1564 C1574 0.930 . S
H1565 C1575 0.930 . S
C1566 H1560 0.925 . S
C1566 C1567 1.357 1_455 S
C1566 C1568 1.417 . S
C1567 C1566 1.357 1_655 S
C1567 C1569 1.419 . S
C1568 C1566 1.417 . S
C1568 C1573 1.425 1_455 S
C1568 C1575 1.409 . S
C1569 H1561 0.930 . S
C1569 C1567 1.419 . S
C1569 C1570 1.362 . S
C1570 H1562 0.930 . S
C1570 C1569 1.362 . S
C1570 C1573 1.409 . S
C1571 H1563 0.930 . S
C1571 C1572 1.355 1_655 S
C1571 C1573 1.415 . S
C1572 C1571 1.355 1_455 S
C1572 C1574 1.419 . S
C1573 C1568 1.425 1_655 S
C1573 C1570 1.409 . S
C1573 C1571 1.415 . S
C1574 H1564 0.930 . S
C1574 C1572 1.419 . S
C1574 C1575 1.362 . S
C1575 H1565 0.930 . S
C1575 C1568 1.409 . S
C1575 C1574 1.362 . S
H1576 C1582 0.930 . S
H1577 C1585 0.930 . S
H1578 C1586 0.930 . S
H1579 C1587 0.930 . S
H1580 C1590 0.930 . S
H1581 C1591 0.930 . S
C1582 H1576 0.930 . S
C1582 C1583 1.355 . S
C1582 C1584 1.415 . S
C1583 C1582 1.355 . S
C1583 C1585 1.419 . S
C1584 C1582 1.415 . S
C1584 C1589 1.425 . S
C1584 C1591 1.409 . S
C1585 H1577 0.930 . S
C1585 C1583 1.419 . S
C1585 C1586 1.362 . S
C1586 H1578 0.930 . S
C1586 C1585 1.362 . S
C1586 C1589 1.409 . S
C1587 H1579 0.930 . S
C1587 C1588 1.355 . S
C1587 C1589 1.415 . S
C1588 C1587 1.355 . S
C1588 C1590 1.419 . S
C1589 C1584 1.425 . S
C1589 C1586 1.409 . S
C1589 C1587 1.415 . S
C1590 H1580 0.930 . S
C1590 C1588 1.419 . S
C1590 C1591 1.362 . S
C1591 H1581 0.930 . S
C1591 C1584 1.409 . S
C1591 C1590 1.362 . S
H1592 C1598 0.930 . S
H1593 C1601 0.927 . S
H1594 C1602 0.930 . S
H1595 C1603 0.930 . S
H1596 C1606 0.930 . S
H1597 C1607 0.963 . S
C1598 H1592 0.930 . S
C1598 C1599 1.355 . S
C1598 C1600 1.415 . S
C1599 C1598 1.355 . S
C1599 C1601 1.385 1_565 S
C1600 C1598 1.415 . S
C1600 C1605 1.426 1_565 S
C1600 C1607 1.389 . S
C1601 H1593 0.927 . S
C1601 C1599 1.385 1_545 S
C1601 C1602 1.376 . S
C1602 H1594 0.930 . S
C1602 C1601 1.376 . S
C1602 C1605 1.409 . S
C1603 H1595 0.930 . S
C1603 C1604 1.355 . S
C1603 C1605 1.415 . S
C1604 C1603 1.355 . S
C1604 C1606 1.419 . S
C1605 C1600 1.426 1_545 S
C1605 C1602 1.409 . S
C1605 C1603 1.415 . S
C1606 H1596 0.930 . S
C1606 C1604 1.419 . S
C1606 C1607 1.352 1_545 S
C1607 H1597 0.963 . S
C1607 C1600 1.389 . S
C1607 C1606 1.352 1_565 S
H1608 C1614 0.930 . S
H1609 C1617 0.930 . S
H1610 C1618 0.930 . S
H1611 C1619 0.930 . S
H1612 C1622 0.930 . S
H1613 C1623 0.930 . S
C1614 H1608 0.930 . S
C1614 C1615 1.355 1_545 S
C1614 C1616 1.415 . S
C1615 C1614 1.355 1_565 S
C1615 C1617 1.419 . S
C1616 C1614 1.415 . S
C1616 C1621 1.425 1_545 S
C1616 C1623 1.409 . S
C1617 H1609 0.930 . S
C1617 C1615 1.419 . S
C1617 C1618 1.362 . S
C1618 H1610 0.930 . S
C1618 C1617 1.362 . S
C1618 C1621 1.409 . S
C1619 H1611 0.930 . S
C1619 C1620 1.355 1_565 S
C1619 C1621 1.415 . S
C1620 C1619 1.355 1_545 S
C1620 C1622 1.419 . S
C1621 C1616 1.425 1_565 S
C1621 C1618 1.409 . S
C1621 C1619 1.415 . S
C1622 H1612 0.930 . S
C1622 C1620 1.419 . S
C1622 C1623 1.362 . S
C1623 H1613 0.930 . S
C1623 C1616 1.409 . S
C1623 C1622 1.362 . S
H1624 C1630 0.930 . S
H1625 C1633 0.930 . S
H1626 C1634 0.930 . S
H1627 C1635 0.930 . S
H1628 C1638 0.930 . S
H1629 C1639 0.930 . S
C1630 H1624 0.930 . S
C1630 C1631 1.355 1_455 S
C1630 C1632 1.415 . S
C1631 C1630 1.355 1_655 S
C1631 C1633 1.419 . S
C1632 C1630 1.415 . S
C1632 C1637 1.425 1_455 S
C1632 C1639 1.409 . S
C1633 H1625 0.930 . S
C1633 C1631 1.419 . S
C1633 C1634 1.362 . S
C1634 H1626 0.930 . S
C1634 C1633 1.362 . S
C1634 C1637 1.409 . S
C1635 H1627 0.930 . S
C1635 C1636 1.355 1_655 S
C1635 C1637 1.415 . S
C1636 C1635 1.355 1_455 S
C1636 C1638 1.419 . S
C1637 C1632 1.425 1_655 S
C1637 C1634 1.409 . S
C1637 C1635 1.415 . S
C1638 H1628 0.930 . S
C1638 C1636 1.419 . S
C1638 C1639 1.362 . S
C1639 H1629 0.930 . S
C1639 C1632 1.409 . S
C1639 C1638 1.362 . S
H1640 C1646 0.930 . S
H1641 C1649 0.930 . S
H1642 C1650 0.930 . S
H1643 C1651 0.930 . S
H1644 C1654 0.930 . S
H1645 C1655 0.930 . S
C1646 H1640 0.930 . S
C1646 C1647 1.355 . S
C1646 C1648 1.415 . S
C1647 C1646 1.355 . S
C1647 C1649 1.419 . S
C1648 C1646 1.415 . S
C1648 C1653 1.425 . S
C1648 C1655 1.409 . S
C1649 H1641 0.930 . S
C1649 C1647 1.419 . S
C1649 C1650 1.362 . S
C1650 H1642 0.930 . S
C1650 C1649 1.362 . S
C1650 C1653 1.409 . S
C1651 H1643 0.930 . S
C1651 C1652 1.355 . S
C1651 C1653 1.415 . S
C1652 C1651 1.355 . S
C1652 C1654 1.419 . S
C1653 C1648 1.425 . S
C1653 C1650 1.409 . S
C1653 C1651 1.415 . S
C1654 H1644 0.930 . S
C1654 C1652 1.419 . S
C1654 C1655 1.362 . S
C1655 H1645 0.930 . S
C1655 C1648 1.409 . S
C1655 C1654 1.362 . S
C511 C224 1.790 . S
C516 C13 1.797 . S
C527 C250 1.795 . S
C532 C15 1.798 . S
C543 C223 1.784 . S
C548 C29 1.791 . S
C559 C365 1.755 . S
C564 C55 1.757 . S
C575 C57 1.755 . S
C580 C349 1.757 . S
C591 C83 1.770 . S
C596 C350 1.766 . S
C607 C97 1.790 . S
C612 C476 1.783 . S
C623 C502 1.783 . S
C628 C99 1.787 . S
C639 C462 1.792 . S
C644 C112 1.785 . S
C655 C127 1.762 . S
C660 C293 1.770 . S
C671 C252 1.765 . S
C676 C140 1.770 . S
C687 C167 1.769 . S
C692 C267 1.768 . S
C703 C405 1.687 . S
C708 C168 1.689 . S
C719 C195 1.688 . S
C724 C407 1.685 . S
C735 C379 1.689 . S
C740 C197 1.685 . S
C751 C460 1.692 . S
C756 C295 1.685 . S
C767 C421 1.705 . S
C772 C320 1.697 . S
C783 C335 1.696 . S
C788 C435 1.701 . S
C799 C265 1.737 . S
C804 C0 1.736 . S
C815 C278 1.727 . S
C820 C26 1.729 . S
C831 C280 1.776 . S
C836 C40 1.777 . S
C847 C42 1.759 . S
C852 C475 1.758 . S
C863 C68 1.785 . S
C868 C489 1.785 . S
C879 C70 1.740 . S
C884 C491 1.739 . S
C895 C84 1.726 . S
C900 C336 1.731 . S
C911 C363 1.782 . S
C916 C110 1.781 . S
C927 C376 1.778 . S
C932 C125 1.777 . S
C943 C210 1.784 . S
C948 C138 1.783 . S
C959 C153 1.778 . S
C964 C237 1.775 . S
C975 C154 1.754 . S
C980 C239 1.753 . S
C991 C181 1.772 . S
C996 C432 1.772 . S
C1007 C446 1.722 . S
C1012 C182 1.725 . S
C1023 C449 1.766 . S
C1028 C208 1.766 . S
C1039 C390 1.791 . S
C1044 C306 1.789 . S
C1055 C309 1.772 . S
C1060 C392 1.772 . S
C1071 C322 1.782 . S
C1076 C418 1.784 . S
C1087 C391 1.751 . S
C1092 C1 1.763 . S
C1103 C27 1.749 . S
C1108 C393 1.779 . S
C1119 C41 1.747 . S
C1124 C419 1.774 . S
C1135 C180 1.736 . S
C1140 C43 1.723 . S
C1151 C69 1.724 . S
C1156 C183 1.733 . S
C1167 C71 1.745 . S
C1172 C209 1.732 . S
C1183 C307 1.751 . S
C1188 C85 1.766 . S
C1199 C111 1.781 . S
C1204 C308 1.766 . S
C1215 C323 1.777 . S
C1220 C124 1.749 . S
C1231 C139 1.723 . S
C1236 C433 1.738 . S
C1247 C447 1.722 . S
C1252 C152 1.737 . S
C1263 C448 1.735 . S
C1268 C155 1.744 . S
C1279 C337 1.753 . S
C1284 C211 1.733 . S
C1295 C362 1.763 . S
C1300 C236 1.737 . S
C1311 C377 1.764 . S
C1316 C238 1.739 . S
C1327 C264 1.735 . S
C1332 C474 1.763 . S
C1343 C488 1.732 . S
C1348 C279 1.758 . S
C1359 C490 1.743 . S
C1364 C281 1.740 . S
C1375 C12 0.998 . S
C1380 C225 1.004 . S
C1391 C14 1.023 . S
C1396 C251 1.012 . S
C1407 C28 1.002 . S
C1412 C222 0.998 . S
C1423 C364 1.032 . S
C1428 C54 1.046 . S
C1439 C348 1.048 . S
C1444 C56 1.053 . S
C1455 C351 1.052 . S
C1460 C82 1.053 . S
C1471 C477 1.018 . S
C1476 C96 1.024 . S
C1487 C503 1.020 . S
C1492 C98 1.006 . S
C1503 C463 1.010 . S
C1508 C113 0.999 . S
C1519 C126 1.037 . S
C1524 C292 1.050 . S
C1535 C141 1.038 . S
C1540 C253 1.051 . S
C1551 C166 1.035 . S
C1556 C266 1.050 . S
C1567 C404 1.122 . S
C1572 C169 1.111 . S
C1583 C406 1.126 . S
C1588 C194 1.117 . S
C1599 C196 1.114 . S
C1604 C378 1.103 . S
C1615 C294 1.120 . S
C1620 C461 1.129 . S
C1631 C420 1.127 . S
C1636 C321 1.122 . S
C1647 C434 1.125 . S
C1652 C334 1.115 . S
