# Generated by pormake.
# Topology ghw, (5)-cn, num edge types: 1
# Building blocks:
#     Node 0, Type 0, BuildingBlock: XOMCOT_clean_sbu_0, # of connection points: 5
#     Node 1, Type 0, BuildingBlock: XOMCOT_clean_sbu_0, # of connection points: 5
#     Node 2, Type 0, BuildingBlock: XOMCOT_clean_sbu_0, # of connection points: 5
#     Node 3, Type 0, BuildingBlock: XOMCOT_clean_sbu_0, # of connection points: 5
#     Node 4, Type 0, BuildingBlock: XOMCOT_clean_sbu_0, # of connection points: 5
#     Node 5, Type 0, BuildingBlock: XOMCOT_clean_sbu_0, # of connection points: 5
#     Node 6, Type 0, BuildingBlock: XOMCOT_clean_sbu_0, # of connection points: 5
#     Node 7, Type 0, BuildingBlock: XOMCOT_clean_sbu_0, # of connection points: 5
#     Node 8, Type 0, BuildingBlock: XOMCOT_clean_sbu_0, # of connection points: 5
#     Node 9, Type 0, BuildingBlock: XOMCOT_clean_sbu_0, # of connection points: 5
#     Node 10, Type 0, BuildingBlock: XOMCOT_clean_sbu_0, # of connection points: 5
#     Node 11, Type 0, BuildingBlock: XOMCOT_clean_sbu_0, # of connection points: 5
#     Node 12, Type 0, BuildingBlock: XOMCOT_clean_sbu_0, # of connection points: 5
#     Node 13, Type 0, BuildingBlock: XOMCOT_clean_sbu_0, # of connection points: 5
#     Node 14, Type 0, BuildingBlock: XOMCOT_clean_sbu_0, # of connection points: 5
#     Node 15, Type 0, BuildingBlock: XOMCOT_clean_sbu_0, # of connection points: 5
#     Edge 16, Type (0, 0), BuildingBlock: XIVTED_clean_linker_0, # of connection points: 2
#     Edge 17, Type (0, 0), BuildingBlock: XIVTED_clean_linker_0, # of connection points: 2
#     Edge 18, Type (0, 0), BuildingBlock: XIVTED_clean_linker_0, # of connection points: 2
#     Edge 19, Type (0, 0), BuildingBlock: XIVTED_clean_linker_0, # of connection points: 2
#     Edge 20, Type (0, 0), BuildingBlock: XIVTED_clean_linker_0, # of connection points: 2
#     Edge 21, Type (0, 0), BuildingBlock: XIVTED_clean_linker_0, # of connection points: 2
#     Edge 22, Type (0, 0), BuildingBlock: XIVTED_clean_linker_0, # of connection points: 2
#     Edge 23, Type (0, 0), BuildingBlock: XIVTED_clean_linker_0, # of connection points: 2
#     Edge 24, Type (0, 0), BuildingBlock: XIVTED_clean_linker_0, # of connection points: 2
#     Edge 25, Type (0, 0), BuildingBlock: XIVTED_clean_linker_0, # of connection points: 2
#     Edge 26, Type (0, 0), BuildingBlock: XIVTED_clean_linker_0, # of connection points: 2
#     Edge 27, Type (0, 0), BuildingBlock: XIVTED_clean_linker_0, # of connection points: 2
#     Edge 28, Type (0, 0), BuildingBlock: XIVTED_clean_linker_0, # of connection points: 2
#     Edge 29, Type (0, 0), BuildingBlock: XIVTED_clean_linker_0, # of connection points: 2
#     Edge 30, Type (0, 0), BuildingBlock: XIVTED_clean_linker_0, # of connection points: 2
#     Edge 31, Type (0, 0), BuildingBlock: XIVTED_clean_linker_0, # of connection points: 2
#     Edge 32, Type (0, 0), BuildingBlock: XIVTED_clean_linker_0, # of connection points: 2
#     Edge 33, Type (0, 0), BuildingBlock: XIVTED_clean_linker_0, # of connection points: 2
#     Edge 34, Type (0, 0), BuildingBlock: XIVTED_clean_linker_0, # of connection points: 2
#     Edge 35, Type (0, 0), BuildingBlock: XIVTED_clean_linker_0, # of connection points: 2
#     Edge 36, Type (0, 0), BuildingBlock: XIVTED_clean_linker_0, # of connection points: 2
#     Edge 37, Type (0, 0), BuildingBlock: XIVTED_clean_linker_0, # of connection points: 2
#     Edge 38, Type (0, 0), BuildingBlock: XIVTED_clean_linker_0, # of connection points: 2
#     Edge 39, Type (0, 0), BuildingBlock: XIVTED_clean_linker_0, # of connection points: 2
#     Edge 40, Type (0, 0), BuildingBlock: XIVTED_clean_linker_0, # of connection points: 2
#     Edge 41, Type (0, 0), BuildingBlock: XIVTED_clean_linker_0, # of connection points: 2
#     Edge 42, Type (0, 0), BuildingBlock: XIVTED_clean_linker_0, # of connection points: 2
#     Edge 43, Type (0, 0), BuildingBlock: XIVTED_clean_linker_0, # of connection points: 2
#     Edge 44, Type (0, 0), BuildingBlock: XIVTED_clean_linker_0, # of connection points: 2
#     Edge 45, Type (0, 0), BuildingBlock: XIVTED_clean_linker_0, # of connection points: 2
#     Edge 46, Type (0, 0), BuildingBlock: XIVTED_clean_linker_0, # of connection points: 2
#     Edge 47, Type (0, 0), BuildingBlock: XIVTED_clean_linker_0, # of connection points: 2
#     Edge 48, Type (0, 0), BuildingBlock: XIVTED_clean_linker_0, # of connection points: 2
#     Edge 49, Type (0, 0), BuildingBlock: XIVTED_clean_linker_0, # of connection points: 2
#     Edge 50, Type (0, 0), BuildingBlock: XIVTED_clean_linker_0, # of connection points: 2
#     Edge 51, Type (0, 0), BuildingBlock: XIVTED_clean_linker_0, # of connection points: 2
#     Edge 52, Type (0, 0), BuildingBlock: XIVTED_clean_linker_0, # of connection points: 2
#     Edge 53, Type (0, 0), BuildingBlock: XIVTED_clean_linker_0, # of connection points: 2
#     Edge 54, Type (0, 0), BuildingBlock: XIVTED_clean_linker_0, # of connection points: 2
#     Edge 55, Type (0, 0), BuildingBlock: XIVTED_clean_linker_0, # of connection points: 2
# Relax obj value: 0.162
# Max RMSD: 0.198
# Mean RMSD: 0.198
data_MOF--net-ghw--node1-XOMCOT_clean_sbu_0--edge1-XIVTED_clean_linker_0
_symmetry_space_group_name_H-M    P1
_symmetry_Int_Tables_number       1
_symmetry_cell_setting            triclinic
loop_
_symmetry_equiv_pos_as_xyz
'x, y, z'
_cell_length_a     33.396451
_cell_length_b     40.463317
_cell_length_c     35.27475
_cell_angle_alpha  90.028053
_cell_angle_beta   90.896553
_cell_angle_gamma 89.994108
loop_
_atom_site_label
_atom_site_type_symbol
_atom_site_fract_x
_atom_site_fract_y
_atom_site_fract_z
_atom_type_partial_charge
Co0 Co 0.12847 0.13852 0.4086 0.0
C1 C 0.20676 0.10368 0.40418 0.0
C2 C 0.17812 0.09521 0.45717 0.0
C3 C 0.21511 0.08006 0.45821 0.0
N4 N 0.17266 0.10967 0.42302 0.0
N5 N 0.23298 0.08541 0.42476 0.0
H6 H 0.21374 0.11411 0.37705 0.0
H7 H 0.15707 0.09638 0.48012 0.0
C8 C 0.0907 0.07337 0.42819 0.0
O9 O 0.11914 0.05778 0.41008 0.0
N10 N 0.08474 0.16751 0.39446 0.0
C11 C 0.08566 0.19063 0.36701 0.0
C12 C 0.04737 0.20221 0.36064 0.0
C13 C 0.04601 0.16551 0.40468 0.0
N14 N 0.02251 0.18631 0.38425 0.0
C15 C 0.15562 0.13277 0.33237 0.0
C16 C 0.09512 0.09259 0.30473 0.0
C17 C 0.12533 0.10267 0.28001 0.0
C18 C 0.15559 0.12332 0.29439 0.0
C19 C 0.09629 0.10272 0.34275 0.0
N20 N 0.12733 0.12142 0.35668 0.0
H21 H 0.1783 0.14994 0.3419 0.0
H22 H 0.07138 0.09633 0.36034 0.0
H23 H 0.11201 0.19744 0.35139 0.0
H24 H 0.03478 0.14797 0.42503 0.0
O25 O 0.16624 0.17446 0.40262 0.0
O26 O 0.13586 0.16197 0.456 0.0
O27 O 0.08901 0.1049 0.4277 0.0
C28 C 0.16139 0.18051 0.43846 0.0
H29 H 0.22812 0.06683 0.48204 0.0
H30 H 0.03836 0.22025 0.33953 0.0
H31 H 0.07049 0.07733 0.29477 0.0
H32 H 0.17848 0.1332 0.27618 0.0
Co33 Co 0.12201 0.1368 0.86931 0.0
C34 C 0.04403 0.10139 0.87341 0.0
C35 C 0.07238 0.09415 0.82003 0.0
C36 C 0.03553 0.07881 0.81877 0.0
N37 N 0.07792 0.108 0.85452 0.0
N38 N 0.01785 0.08338 0.85247 0.0
H39 H 0.03711 0.11116 0.90088 0.0
H40 H 0.09329 0.09589 0.797 0.0
C41 C 0.15989 0.07185 0.84895 0.0
O42 O 0.13142 0.05611 0.86683 0.0
N43 N 0.16568 0.16573 0.88366 0.0
C44 C 0.16532 0.18813 0.91191 0.0
C45 C 0.20359 0.20006 0.91743 0.0
C46 C 0.20397 0.16453 0.87208 0.0
N47 N 0.22783 0.18511 0.89244 0.0
C48 C 0.0948 0.13051 0.9454 0.0
C49 C 0.15574 0.09073 0.97294 0.0
C50 C 0.12552 0.10071 0.99772 0.0
C51 C 0.095 0.12111 0.98336 0.0
C52 C 0.15436 0.10076 0.93488 0.0
N53 N 0.12318 0.11935 0.92104 0.0
H54 H 0.07194 0.14753 0.93592 0.0
H55 H 0.17925 0.09446 0.91721 0.0
H56 H 0.13939 0.19427 0.92851 0.0
H57 H 0.21469 0.14772 0.85067 0.0
O58 O 0.08425 0.17268 0.87577 0.0
O59 O 0.1146 0.16064 0.82221 0.0
O60 O 0.16156 0.10338 0.84985 0.0
C61 C 0.08914 0.17908 0.84003 0.0
H62 H 0.02244 0.066 0.79466 0.0
H63 H 0.21304 0.21771 0.93883 0.0
H64 H 0.18054 0.07566 0.98289 0.0
H65 H 0.07207 0.13089 1.00162 0.0
Co66 Co 0.87072 0.88172 0.61856 0.0
C67 C 0.79293 0.91724 0.62338 0.0
C68 C 0.82164 0.92572 0.57042 0.0
C69 C 0.78482 0.94113 0.56946 0.0
N70 N 0.82692 0.91104 0.60447 0.0
N71 N 0.76692 0.93577 0.60289 0.0
H72 H 0.78582 0.90678 0.65047 0.0
H73 H 0.84269 0.9245 0.54746 0.0
C74 C 0.90912 0.94699 0.6005 0.0
O75 O 0.88057 0.9625 0.61853 0.0
N76 N 0.91406 0.85227 0.63224 0.0
C77 C 0.91332 0.82916 0.6597 0.0
C78 C 0.9515 0.81702 0.66517 0.0
C79 C 0.95247 0.85367 0.62105 0.0
N80 N 0.97604 0.83254 0.64092 0.0
C81 C 0.84309 0.88605 0.69477 0.0
C82 C 0.90385 0.92522 0.72382 0.0
C83 C 0.87362 0.91455 0.7482 0.0
C84 C 0.84318 0.89447 0.73307 0.0
C85 C 0.90263 0.91611 0.68546 0.0
N86 N 0.87154 0.89783 0.6709 0.0
H87 H 0.82026 0.86927 0.68461 0.0
H88 H 0.92759 0.92288 0.66812 0.0
H89 H 0.88721 0.82268 0.67584 0.0
H90 H 0.96347 0.87099 0.60035 0.0
O91 O 0.83268 0.84581 0.62333 0.0
O92 O 0.86371 0.85921 0.57056 0.0
O93 O 0.91062 0.91545 0.60059 0.0
C94 C 0.83798 0.84036 0.58742 0.0
H95 H 0.7719 0.95452 0.5457 0.0
H96 H 0.96068 0.79884 0.68605 0.0
H97 H 0.92857 0.94013 0.73429 0.0
H98 H 0.82021 0.8842 0.75092 0.0
Co99 Co 0.88064 0.88091 0.16093 0.0
C100 C 0.95799 0.91704 0.1545 0.0
C101 C 0.92998 0.92549 0.20783 0.0
C102 C 0.9665 0.94132 0.2082 0.0
N103 N 0.92444 0.91055 0.17395 0.0
N104 N 0.98396 0.93598 0.17455 0.0
H105 H 0.96483 0.90657 0.12733 0.0
H106 H 0.90932 0.92417 0.23109 0.0
C107 C 0.84213 0.94624 0.17901 0.0
O108 O 0.87003 0.96179 0.16014 0.0
N109 N 0.837 0.85119 0.14855 0.0
C110 C 0.83839 0.82424 0.12612 0.0
C111 C 0.80005 0.81212 0.12115 0.0
C112 C 0.798 0.85514 0.1568 0.0
N113 N 0.77476 0.83179 0.14025 0.0
C114 C 0.90662 0.88507 0.08425 0.0
C115 C 0.84501 0.9238 0.05603 0.0
C116 C 0.87513 0.91351 0.0313 0.0
C117 C 0.90594 0.89359 0.04599 0.0
C118 C 0.84685 0.91463 0.09437 0.0
N119 N 0.8784 0.89665 0.10851 0.0
H120 H 0.92986 0.86856 0.0941 0.0
H121 H 0.8221 0.92122 0.11209 0.0
H122 H 0.86512 0.81481 0.11299 0.0
H123 H 0.78651 0.87504 0.17388 0.0
O124 O 0.91882 0.84524 0.15544 0.0
O125 O 0.88911 0.85862 0.20891 0.0
O126 O 0.84116 0.9147 0.17958 0.0
C127 C 0.91449 0.83984 0.19146 0.0
H128 H 0.97956 0.95497 0.23171 0.0
H129 H 0.79126 0.79148 0.10334 0.0
H130 H 0.81999 0.93853 0.04588 0.0
H131 H 0.92885 0.88361 0.02784 0.0
Co132 Co 0.12855 0.6362 0.90969 0.0
C133 C 0.20838 0.60493 0.90898 0.0
C134 C 0.17283 0.58531 0.95355 0.0
C135 C 0.21066 0.57173 0.95649 0.0
N136 N 0.17112 0.60549 0.92302 0.0
N137 N 0.23269 0.58431 0.92841 0.0
H138 H 0.21893 0.62119 0.88713 0.0
H139 H 0.14911 0.58224 0.97375 0.0
C140 C 0.0854 0.57204 0.92415 0.0
O141 O 0.11152 0.55613 0.90345 0.0
N142 N 0.08643 0.66697 0.89712 0.0
C143 C 0.08669 0.68989 0.86949 0.0
C144 C 0.04901 0.70362 0.86647 0.0
C145 C 0.04904 0.66722 0.91079 0.0
N146 N 0.0253 0.68911 0.89228 0.0
C147 C 0.15729 0.62933 0.83404 0.0
C148 C 0.09205 0.59644 0.80337 0.0
C149 C 0.12439 0.60383 0.7798 0.0
C150 C 0.15707 0.62083 0.79576 0.0
C151 C 0.09348 0.60555 0.84177 0.0
N152 N 0.12667 0.62055 0.85716 0.0
H153 H 0.18157 0.64443 0.84445 0.0
H154 H 0.06728 0.60139 0.85861 0.0
H155 H 0.11192 0.6951 0.85159 0.0
H156 H 0.03914 0.65104 0.93312 0.0
O157 O 0.16772 0.67112 0.90464 0.0
O158 O 0.13732 0.65812 0.9579 0.0
O159 O 0.08724 0.60344 0.92731 0.0
C160 C 0.16331 0.6765 0.94066 0.0
H161 H 0.222 0.55611 0.97914 0.0
H162 H 0.03933 0.72148 0.84541 0.0
H163 H 0.06562 0.58407 0.79226 0.0
H164 H 0.18178 0.62883 0.7785 0.0
Co165 Co 0.12071 0.63759 0.36681 0.0
C166 C 0.04275 0.60225 0.37229 0.0
C167 C 0.07195 0.59272 0.31978 0.0
C168 C 0.03526 0.5772 0.31894 0.0
N169 N 0.07689 0.60808 0.35348 0.0
N170 N 0.01699 0.58324 0.35204 0.0
H171 H 0.03543 0.6133 0.39906 0.0
H172 H 0.09317 0.59354 0.29695 0.0
C173 C 0.15912 0.57203 0.34904 0.0
O174 O 0.13108 0.55647 0.36771 0.0
N175 N 0.16459 0.66721 0.37943 0.0
C176 C 0.16249 0.69757 0.39514 0.0
C177 C 0.20085 0.70938 0.40107 0.0
C178 C 0.2041 0.66091 0.37644 0.0
N179 N 0.22686 0.68614 0.38948 0.0
C180 C 0.09364 0.63417 0.44312 0.0
C181 C 0.15353 0.5943 0.4725 0.0
C182 C 0.12313 0.60514 0.49665 0.0
C183 C 0.09326 0.62567 0.48136 0.0
C184 C 0.15276 0.60346 0.4341 0.0
N185 N 0.12204 0.62207 0.41938 0.0
H186 H 0.07092 0.65098 0.43286 0.0
H187 H 0.17758 0.59623 0.41679 0.0
H188 H 0.13514 0.71014 0.40255 0.0
H189 H 0.21629 0.63829 0.36519 0.0
O190 O 0.08252 0.67331 0.37164 0.0
O191 O 0.11282 0.65973 0.31857 0.0
O192 O 0.16015 0.60358 0.34858 0.0
C193 C 0.08721 0.67856 0.33565 0.0
H194 H 0.02268 0.56326 0.29543 0.0
H195 H 0.20895 0.73276 0.41398 0.0
H196 H 0.17786 0.57905 0.48313 0.0
H197 H 0.07019 0.63606 0.49902 0.0
Co198 Co 0.86855 0.38116 0.11746 0.0
C199 C 0.79091 0.41717 0.12188 0.0
C200 C 0.81971 0.42484 0.06881 0.0
C201 C 0.78302 0.44044 0.06758 0.0
N202 N 0.82482 0.41047 0.10306 0.0
N203 N 0.76507 0.43559 0.10108 0.0
H204 H 0.78372 0.40726 0.1492 0.0
H205 H 0.84079 0.42326 0.0459 0.0
C206 C 0.90691 0.44653 0.10003 0.0
O207 O 0.8783 0.46197 0.11807 0.0
N208 N 0.91197 0.35181 0.13136 0.0
C209 C 0.91128 0.32877 0.15891 0.0
C210 C 0.94954 0.31689 0.16465 0.0
C211 C 0.95046 0.35339 0.12039 0.0
N212 N 0.9741 0.33248 0.14049 0.0
C213 C 0.8399 0.38431 0.19297 0.0
C214 C 0.90173 0.42076 0.22478 0.0
C215 C 0.87224 0.40774 0.24835 0.0
C216 C 0.84079 0.38983 0.23184 0.0
C217 C 0.89978 0.41452 0.18559 0.0
N218 N 0.86864 0.39689 0.16993 0.0
H219 H 0.81657 0.36853 0.18182 0.0
H220 H 0.92459 0.42225 0.16855 0.0
H221 H 0.88513 0.32219 0.17496 0.0
H222 H 0.96145 0.37072 0.09968 0.0
O223 O 0.83074 0.3452 0.12196 0.0
O224 O 0.86186 0.35858 0.06928 0.0
O225 O 0.90848 0.41501 0.10005 0.0
C226 C 0.83615 0.33969 0.08614 0.0
H227 H 0.7702 0.45361 0.0436 0.0
H228 H 0.95876 0.29884 0.18568 0.0
H229 H 0.92721 0.43388 0.23675 0.0
H230 H 0.81772 0.37895 0.24913 0.0
Co231 Co 0.88304 0.38129 0.6644 0.0
C232 C 0.96035 0.41753 0.65749 0.0
C233 C 0.93249 0.42614 0.71085 0.0
C234 C 0.96894 0.4421 0.711 0.0
N235 N 0.92694 0.41095 0.67712 0.0
N236 N 0.98629 0.43666 0.67733 0.0
H237 H 0.9671 0.40711 0.63028 0.0
H238 H 0.91184 0.42496 0.73413 0.0
C239 C 0.84498 0.44728 0.68001 0.0
O240 O 0.87339 0.46226 0.66123 0.0
N241 N 0.83923 0.35161 0.65232 0.0
C242 C 0.84058 0.32443 0.63027 0.0
C243 C 0.80219 0.31244 0.62522 0.0
C244 C 0.80017 0.35584 0.66026 0.0
N245 N 0.77687 0.33242 0.64388 0.0
C246 C 0.91035 0.38256 0.58833 0.0
C247 C 0.84906 0.41965 0.5566 0.0
C248 C 0.87848 0.40653 0.53298 0.0
C249 C 0.90956 0.38814 0.54947 0.0
C250 C 0.85091 0.41333 0.59577 0.0
N251 N 0.88196 0.39562 0.61143 0.0
H252 H 0.93368 0.36682 0.59955 0.0
H253 H 0.82626 0.42136 0.61284 0.0
H254 H 0.86734 0.31473 0.61745 0.0
H255 H 0.78872 0.37597 0.67701 0.0
O256 O 0.92083 0.34529 0.66046 0.0
O257 O 0.89072 0.35992 0.71324 0.0
O258 O 0.84362 0.41577 0.68131 0.0
C259 C 0.91612 0.34061 0.69651 0.0
H260 H 0.982 0.45595 0.73435 0.0
H261 H 0.79342 0.29166 0.60764 0.0
H262 H 0.82382 0.43313 0.54471 0.0
H263 H 0.93269 0.37726 0.53224 0.0
Co264 Co 0.63135 0.13764 0.90914 0.0
C265 C 0.70882 0.10143 0.9042 0.0
C266 C 0.68015 0.09349 0.95728 0.0
C267 C 0.71678 0.07776 0.95826 0.0
N268 N 0.675 0.10812 0.92318 0.0
N269 N 0.73464 0.08278 0.92475 0.0
H270 H 0.71598 0.11152 0.87696 0.0
H271 H 0.65916 0.09498 0.98026 0.0
C272 C 0.59248 0.07234 0.92613 0.0
O273 O 0.62109 0.05684 0.90816 0.0
N274 N 0.588 0.16719 0.89561 0.0
C275 C 0.58837 0.19005 0.86785 0.0
C276 C 0.55007 0.20201 0.86253 0.0
C277 C 0.54971 0.16583 0.90714 0.0
N278 N 0.52584 0.18666 0.88719 0.0
C279 C 0.65967 0.13455 0.83349 0.0
C280 C 0.59768 0.09814 0.80189 0.0
C281 C 0.62727 0.11089 0.77824 0.0
C282 C 0.65878 0.12882 0.79466 0.0
C283 C 0.59964 0.10458 0.84103 0.0
N284 N 0.63091 0.12209 0.8566 0.0
H285 H 0.68307 0.15029 0.84457 0.0
H286 H 0.57477 0.09703 0.85808 0.0
H287 H 0.61429 0.19641 0.85136 0.0
H288 H 0.53898 0.14866 0.92815 0.0
O289 O 0.6693 0.1735 0.90464 0.0
O290 O 0.63838 0.16 0.9574 0.0
O291 O 0.59126 0.10387 0.92646 0.0
C292 C 0.66408 0.17889 0.94051 0.0
H293 H 0.72961 0.06439 0.98208 0.0
H294 H 0.54058 0.21991 0.84144 0.0
H295 H 0.57213 0.08504 0.79001 0.0
H296 H 0.68198 0.13947 0.77733 0.0
Co297 Co 0.61852 0.13977 0.36248 0.0
C298 C 0.54068 0.1042 0.36734 0.0
C299 C 0.56978 0.09514 0.3147 0.0
C300 C 0.53304 0.07957 0.31379 0.0
N301 N 0.57475 0.11032 0.34851 0.0
N302 N 0.51489 0.0853 0.34704 0.0
H303 H 0.53339 0.11483 0.39429 0.0
H304 H 0.59101 0.09606 0.29188 0.0
C305 C 0.65706 0.07403 0.3467 0.0
O306 O 0.6281 0.0588 0.36445 0.0
N307 N 0.66196 0.16926 0.3761 0.0
C308 C 0.66101 0.19275 0.40316 0.0
C309 C 0.69935 0.20427 0.40952 0.0
C310 C 0.70071 0.16705 0.36604 0.0
N311 N 0.72423 0.18799 0.38624 0.0
C312 C 0.58943 0.13799 0.43795 0.0
C313 C 0.65016 0.10082 0.47052 0.0
C314 C 0.62051 0.11413 0.49372 0.0
C315 C 0.58967 0.13249 0.47682 0.0
C316 C 0.64888 0.10706 0.43134 0.0
N317 N 0.61818 0.12491 0.41526 0.0
H318 H 0.56647 0.15396 0.42645 0.0
H319 H 0.67381 0.09901 0.41466 0.0
H320 H 0.63463 0.19982 0.41858 0.0
H321 H 0.71195 0.1492 0.34603 0.0
O322 O 0.58073 0.17589 0.36586 0.0
O323 O 0.61227 0.16148 0.31375 0.0
O324 O 0.65853 0.10555 0.34613 0.0
C325 C 0.5864 0.18069 0.32994 0.0
H326 H 0.52037 0.06578 0.29021 0.0
H327 H 0.70838 0.22249 0.43044 0.0
H328 H 0.67523 0.08737 0.48278 0.0
H329 H 0.56644 0.14357 0.49378 0.0
Co330 Co 0.36975 0.88018 0.11375 0.0
C331 C 0.29206 0.91596 0.12 0.0
C332 C 0.31998 0.92415 0.06658 0.0
C333 C 0.28344 0.93995 0.06617 0.0
N334 N 0.3256 0.9094 0.10055 0.0
N335 N 0.26603 0.93478 0.09986 0.0
H336 H 0.28531 0.90569 0.14728 0.0
H337 H 0.34066 0.92279 0.04334 0.0
C338 C 0.40768 0.94568 0.09512 0.0
O339 O 0.37966 0.96124 0.11384 0.0
N340 N 0.41376 0.85096 0.12623 0.0
C341 C 0.4136 0.82563 0.15103 0.0
C342 C 0.45224 0.81399 0.15549 0.0
C343 C 0.45224 0.85435 0.11594 0.0
N344 N 0.47645 0.83234 0.13364 0.0
C345 C 0.34379 0.88481 0.19044 0.0
C346 C 0.40535 0.92377 0.21834 0.0
C347 C 0.37535 0.9135 0.24321 0.0
C348 C 0.34454 0.89348 0.22866 0.0
C349 C 0.40342 0.91446 0.18003 0.0
N350 N 0.37191 0.89632 0.16605 0.0
H351 H 0.32061 0.86817 0.18072 0.0
H352 H 0.42809 0.92102 0.16221 0.0
H353 H 0.3876 0.8172 0.16614 0.0
H354 H 0.46267 0.87306 0.09666 0.0
O355 O 0.33209 0.84419 0.11965 0.0
O356 O 0.36144 0.85747 0.06598 0.0
O357 O 0.40885 0.91414 0.0948 0.0
C358 C 0.33638 0.83857 0.08366 0.0
H359 H 0.27038 0.95353 0.04262 0.0
H360 H 0.46204 0.7948 0.1749 0.0
H361 H 0.43034 0.93859 0.22837 0.0
H362 H 0.32173 0.88352 0.24691 0.0
Co363 Co 0.37911 0.88163 0.65565 0.0
C364 C 0.45708 0.91709 0.65223 0.0
C365 C 0.42817 0.92434 0.70534 0.0
C366 C 0.46503 0.93967 0.70694 0.0
N367 N 0.42301 0.91046 0.67083 0.0
N368 N 0.48304 0.93509 0.67341 0.0
H369 H 0.46424 0.90734 0.6248 0.0
H370 H 0.40701 0.92264 0.72816 0.0
C371 C 0.34117 0.94688 0.67475 0.0
O372 O 0.37012 0.96245 0.65736 0.0
N373 N 0.33566 0.85267 0.64091 0.0
C374 C 0.33645 0.83009 0.61284 0.0
C375 C 0.29826 0.81814 0.60691 0.0
C376 C 0.29721 0.85393 0.65198 0.0
N377 N 0.27367 0.83323 0.63147 0.0
C378 C 0.40763 0.88676 0.57981 0.0
C379 C 0.34724 0.92632 0.55077 0.0
C380 C 0.37745 0.91554 0.5264 0.0
C381 C 0.40776 0.89534 0.54156 0.0
C382 C 0.34823 0.91706 0.58908 0.0
N383 N 0.37906 0.89848 0.60363 0.0
H384 H 0.43031 0.86985 0.58995 0.0
H385 H 0.32323 0.92388 0.60636 0.0
H386 H 0.36264 0.82384 0.59667 0.0
H387 H 0.28619 0.87085 0.67314 0.0
O388 O 0.41685 0.84551 0.65058 0.0
O389 O 0.38529 0.85837 0.70324 0.0
O390 O 0.33929 0.91536 0.67389 0.0
C391 C 0.411 0.83956 0.68629 0.0
H392 H 0.47788 0.95249 0.73116 0.0
H393 H 0.28912 0.80035 0.58555 0.0
H394 H 0.32266 0.94138 0.54031 0.0
H395 H 0.43073 0.88504 0.52374 0.0
Co396 Co 0.63112 0.63951 0.41064 0.0
C397 C 0.70902 0.60384 0.40545 0.0
C398 C 0.67905 0.59395 0.45745 0.0
C399 C 0.71557 0.57813 0.45847 0.0
N400 N 0.67471 0.60976 0.42396 0.0
N401 N 0.73428 0.58438 0.42566 0.0
H402 H 0.71683 0.61501 0.37892 0.0
H403 H 0.6575 0.59462 0.48001 0.0
C404 C 0.5921 0.57384 0.42612 0.0
O405 O 0.62041 0.55857 0.40747 0.0
N406 N 0.58761 0.66918 0.39827 0.0
C407 C 0.58717 0.69318 0.37182 0.0
C408 C 0.54866 0.7053 0.36829 0.0
C409 C 0.54974 0.66717 0.41063 0.0
N410 N 0.52514 0.68865 0.39251 0.0
C411 C 0.65935 0.63648 0.33458 0.0
C412 C 0.59761 0.59947 0.30363 0.0
C413 C 0.62841 0.61016 0.27988 0.0
C414 C 0.65938 0.62908 0.296 0.0
C415 C 0.5988 0.60742 0.34236 0.0
N416 N 0.63029 0.62469 0.3578 0.0
H417 H 0.68254 0.65256 0.34547 0.0
H418 H 0.57355 0.60063 0.35934 0.0
H419 H 0.61259 0.70025 0.35501 0.0
H420 H 0.54006 0.64974 0.43178 0.0
O421 O 0.66907 0.67548 0.40677 0.0
O422 O 0.63833 0.66096 0.45932 0.0
O423 O 0.59121 0.60536 0.42744 0.0
C424 C 0.66396 0.68017 0.44283 0.0
H425 H 0.7277 0.5638 0.48185 0.0
H426 H 0.53839 0.72356 0.34795 0.0
H427 H 0.5725 0.58544 0.29237 0.0
H428 H 0.68285 0.6393 0.27871 0.0
Co429 Co 0.62319 0.64267 0.86431 0.0
C430 C 0.54803 0.60792 0.8805 0.0
C431 C 0.57048 0.59398 0.82627 0.0
C432 C 0.53344 0.5795 0.83074 0.0
N433 N 0.57973 0.61147 0.85779 0.0
N434 N 0.51938 0.58863 0.86479 0.0
H435 H 0.54465 0.62074 0.90701 0.0
H436 H 0.5885 0.59318 0.80107 0.0
C437 C 0.66234 0.57693 0.84815 0.0
O438 O 0.63512 0.5614 0.86789 0.0
N439 N 0.6665 0.67412 0.87076 0.0
C440 C 0.66454 0.7074 0.8729 0.0
C441 C 0.7026 0.71968 0.879 0.0
C442 C 0.70555 0.66671 0.87605 0.0
N443 N 0.72823 0.69399 0.88111 0.0
C444 C 0.60418 0.64786 0.94284 0.0
C445 C 0.65891 0.60293 0.97149 0.0
C446 C 0.63177 0.61765 0.99638 0.0
C447 C 0.6048 0.64093 0.98152 0.0
C448 C 0.65724 0.6106 0.93269 0.0
N449 N 0.6287 0.63166 0.91835 0.0
H450 H 0.58302 0.66601 0.93267 0.0
H451 H 0.67948 0.59982 0.91479 0.0
H452 H 0.63751 0.72199 0.87069 0.0
H453 H 0.7173 0.64183 0.87614 0.0
O454 O 0.58375 0.67775 0.86735 0.0
O455 O 0.61105 0.66025 0.81433 0.0
O456 O 0.66298 0.60848 0.84699 0.0
C457 C 0.58577 0.67986 0.83066 0.0
H458 H 0.51694 0.56546 0.80955 0.0
H459 H 0.71061 0.74544 0.88238 0.0
H460 H 0.68107 0.58542 0.98176 0.0
H461 H 0.5844 0.65411 0.99971 0.0
Co462 Co 0.37143 0.38027 0.61364 0.0
C463 C 0.29379 0.41604 0.62044 0.0
C464 C 0.32132 0.42433 0.56685 0.0
C465 C 0.28479 0.44015 0.56673 0.0
N466 N 0.32718 0.40951 0.60074 0.0
N467 N 0.26763 0.43492 0.60054 0.0
H468 H 0.28726 0.40573 0.64775 0.0
H469 H 0.34184 0.42304 0.54348 0.0
C470 C 0.40901 0.44597 0.59542 0.0
O471 O 0.38089 0.46137 0.61417 0.0
N472 N 0.41557 0.35103 0.62588 0.0
C473 C 0.41514 0.325 0.6497 0.0
C474 C 0.45381 0.31355 0.65458 0.0
C475 C 0.4543 0.35505 0.61665 0.0
N476 N 0.47836 0.33272 0.63401 0.0
C477 C 0.34545 0.38409 0.69036 0.0
C478 C 0.4061 0.42386 0.71855 0.0
C479 C 0.3761 0.41327 0.74325 0.0
C480 C 0.34581 0.3928 0.72858 0.0
C481 C 0.40458 0.41449 0.68024 0.0
N482 N 0.37345 0.39601 0.66611 0.0
H483 H 0.32253 0.36728 0.6805 0.0
H484 H 0.42921 0.4214 0.66254 0.0
H485 H 0.38888 0.31592 0.66391 0.0
H486 H 0.46501 0.37442 0.59837 0.0
O487 O 0.33377 0.34421 0.61906 0.0
O488 O 0.36316 0.35796 0.56558 0.0
O489 O 0.4104 0.41444 0.59502 0.0
C490 C 0.33797 0.33898 0.58298 0.0
H491 H 0.27158 0.45381 0.54332 0.0
H492 H 0.46334 0.29386 0.67342 0.0
H493 H 0.43073 0.43902 0.72869 0.0
H494 H 0.32304 0.38259 0.7467 0.0
Co495 Co 0.37751 0.38136 0.15536 0.0
C496 C 0.45536 0.41688 0.1512 0.0
C497 C 0.42668 0.42463 0.20433 0.0
C498 C 0.46351 0.44 0.20559 0.0
N499 N 0.42137 0.41043 0.17 0.0
N500 N 0.48139 0.43511 0.17205 0.0
H501 H 0.46244 0.40683 0.1239 0.0
H502 H 0.40564 0.4231 0.22727 0.0
C503 C 0.33936 0.44652 0.17445 0.0
O504 O 0.36798 0.46214 0.15665 0.0
N505 N 0.33406 0.35217 0.14116 0.0
C506 C 0.33476 0.32937 0.11334 0.0
C507 C 0.29652 0.31746 0.10754 0.0
C508 C 0.29559 0.35361 0.15222 0.0
N509 N 0.27197 0.33281 0.13192 0.0
C510 C 0.40541 0.38635 0.07933 0.0
C511 C 0.345 0.42602 0.05055 0.0
C512 C 0.37528 0.41544 0.02615 0.0
C513 C 0.40555 0.39512 0.04115 0.0
C514 C 0.34601 0.41658 0.08882 0.0
N515 N 0.37692 0.39802 0.10326 0.0
H516 H 0.42813 0.36943 0.08935 0.0
H517 H 0.32105 0.42334 0.10618 0.0
H518 H 0.3609 0.32297 0.09718 0.0
H519 H 0.2846 0.37075 0.17315 0.0
O520 O 0.41549 0.34543 0.15013 0.0
O521 O 0.3844 0.35831 0.20303 0.0
O522 O 0.33768 0.41499 0.17379 0.0
C523 C 0.4102 0.33966 0.18596 0.0
H524 H 0.47646 0.45305 0.2296 0.0
H525 H 0.28731 0.29955 0.08633 0.0
H526 H 0.32041 0.4411 0.04016 0.0
H527 H 0.42855 0.38493 0.02327 0.0
H528 H 0.29734 0.07542 0.47167 0.0
H529 H 0.4507 0.07474 0.30011 0.0
H530 H 0.26109 0.07643 0.35372 0.0
H531 H 0.48682 0.07656 0.41806 0.0
H532 H 0.38128 0.06709 0.31916 0.0
H533 H 0.3667 0.06761 0.45263 0.0
C534 C 0.30382 0.07355 0.44179 0.0
C535 C 0.27334 0.07714 0.41425 0.0
C536 C 0.40445 0.06888 0.34088 0.0
C537 C 0.35286 0.06862 0.39219 0.0
C538 C 0.44417 0.07305 0.32999 0.0
C539 C 0.47461 0.07686 0.35753 0.0
C540 C 0.39507 0.06853 0.37959 0.0
C541 C 0.46422 0.07458 0.39588 0.0
C542 C 0.34352 0.06927 0.4309 0.0
C543 C 0.2837 0.07463 0.37591 0.0
N544 N 0.42533 0.07089 0.40577 0.0
N545 N 0.32258 0.07084 0.36602 0.0
H546 H 0.97287 0.19759 0.32411 0.0
H547 H 0.77386 0.19941 0.44642 0.0
H548 H 0.97374 0.17897 0.44445 0.0
H549 H 0.77303 0.17976 0.32628 0.0
H550 H 0.84721 0.20019 0.44624 0.0
H551 H 0.89962 0.19933 0.32446 0.0
C552 C 0.95764 0.19418 0.35068 0.0
C553 C 0.97941 0.18821 0.38435 0.0
C554 C 0.83095 0.19577 0.41992 0.0
C555 C 0.8956 0.19011 0.38492 0.0
C556 C 0.78913 0.19559 0.41994 0.0
C557 C 0.76735 0.18958 0.38626 0.0
C558 C 0.85119 0.1904 0.38589 0.0
C559 C 0.7887 0.18426 0.35286 0.0
C560 C 0.91584 0.19491 0.35079 0.0
C561 C 0.95806 0.18342 0.41787 0.0
N562 N 0.82944 0.18496 0.35346 0.0
N563 N 0.91733 0.18465 0.41737 0.0
H564 H 0.47946 0.17973 0.94902 0.0
H565 H 0.27421 0.17916 0.83042 0.0
H566 H 0.47401 0.19792 0.82863 0.0
H567 H 0.27961 0.19608 0.95108 0.0
H568 H 0.34758 0.18126 0.82896 0.0
H569 H 0.40609 0.18097 0.9504 0.0
C570 C 0.46279 0.18404 0.92293 0.0
C571 C 0.48282 0.18882 0.88871 0.0
C572 C 0.33266 0.18472 0.8557 0.0
C573 C 0.39903 0.19001 0.88994 0.0
C574 C 0.29087 0.18335 0.85655 0.0
C575 C 0.27082 0.18754 0.89088 0.0
C576 C 0.35459 0.18974 0.88954 0.0
C577 C 0.29382 0.19313 0.92394 0.0
C578 C 0.42099 0.1849 0.92373 0.0
C579 C 0.45979 0.19452 0.85569 0.0
N580 N 0.33447 0.1938 0.92251 0.0
N581 N 0.41912 0.19469 0.85706 0.0
H582 H 0.9906 0.07176 0.92323 0.0
H583 H 0.7619 0.07179 0.85389 0.0
H584 H 0.95302 0.07531 0.80573 0.0
H585 H 0.79936 0.07407 0.97145 0.0
H586 H 0.83161 0.06453 0.83574 0.0
H587 H 0.92093 0.06413 0.9413 0.0
C588 C 0.9677 0.07078 0.9012 0.0
C589 C 0.97763 0.07476 0.86294 0.0
C590 C 0.82458 0.0663 0.86554 0.0
C591 C 0.89772 0.06586 0.88341 0.0
C592 C 0.78479 0.07058 0.87591 0.0
C593 C 0.77483 0.07412 0.91422 0.0
C594 C 0.85478 0.06569 0.89367 0.0
C595 C 0.80562 0.07151 0.9416 0.0
C596 C 0.92793 0.06627 0.91153 0.0
C597 C 0.94682 0.07241 0.83554 0.0
N598 N 0.84426 0.06786 0.93077 0.0
N599 N 0.90821 0.06851 0.84635 0.0
H600 H 0.73912 0.94564 0.67381 0.0
H601 H 0.51092 0.947 0.60298 0.0
H602 H 0.70243 0.94491 0.556 0.0
H603 H 0.5475 0.94273 0.7207 0.0
H604 H 0.58078 0.95448 0.58548 0.0
H605 H 0.6693 0.95277 0.69164 0.0
C606 C 0.71638 0.94713 0.65167 0.0
C607 C 0.7266 0.9441 0.61336 0.0
C608 C 0.57353 0.95222 0.61518 0.0
C609 C 0.64653 0.95243 0.63357 0.0
C610 C 0.53365 0.9478 0.62517 0.0
C611 C 0.52339 0.94366 0.66333 0.0
C612 C 0.60351 0.95236 0.64352 0.0
C613 C 0.55398 0.94577 0.69097 0.0
C614 C 0.67653 0.95137 0.66186 0.0
C615 C 0.696 0.94709 0.58585 0.0
N616 N 0.59271 0.94957 0.68048 0.0
N617 N 0.6573 0.95069 0.59651 0.0
H618 H 0.02715 0.82028 0.69971 0.0
H619 H 0.22266 0.82215 0.57229 0.0
H620 H 0.02308 0.83977 0.57955 0.0
H621 H 0.22656 0.83904 0.69299 0.0
H622 H 0.14947 0.82004 0.57435 0.0
H623 H 0.10034 0.81854 0.69757 0.0
C624 C 0.04166 0.82384 0.6728 0.0
C625 C 0.01904 0.83014 0.63972 0.0
C626 C 0.16636 0.82413 0.60039 0.0
C627 C 0.10271 0.82828 0.63711 0.0
C628 C 0.20811 0.82507 0.59929 0.0
C629 C 0.23068 0.83074 0.63256 0.0
C630 C 0.14702 0.82843 0.63508 0.0
C631 C 0.21023 0.83488 0.66669 0.0
C632 C 0.08341 0.82311 0.67166 0.0
C633 C 0.03945 0.83509 0.60571 0.0
N634 N 0.16954 0.83351 0.66712 0.0
N635 N 0.08014 0.83394 0.60524 0.0
H636 H 0.72734 0.7774 0.13449 0.0
H637 H 0.52619 0.88428 0.12287 0.0
H638 H 0.72366 0.88364 0.14377 0.0
H639 H 0.52536 0.77927 0.14398 0.0
H640 H 0.5991 0.8834 0.12388 0.0
H641 H 0.65378 0.7765 0.13204 0.0
C642 C 0.71106 0.80048 0.13599 0.0
C643 C 0.73163 0.83061 0.13956 0.0
C644 C 0.58305 0.86049 0.12825 0.0
C645 C 0.64781 0.82982 0.13657 0.0
C646 C 0.54135 0.86092 0.12733 0.0
C647 C 0.5196 0.83174 0.13318 0.0
C648 C 0.6034 0.83064 0.13482 0.0
C649 C 0.541 0.80233 0.13959 0.0
C650 C 0.66917 0.79995 0.13477 0.0
C651 C 0.7091 0.85982 0.14162 0.0
N652 N 0.58178 0.80248 0.14013 0.0
N653 N 0.6685 0.85869 0.13992 0.0
H654 H 0.01056 0.94644 0.10339 0.0
H655 H 0.23955 0.94541 0.17109 0.0
H656 H 0.04894 0.94526 0.22071 0.0
H657 H 0.20109 0.94443 0.05377 0.0
H658 H 0.17014 0.95353 0.18979 0.0
H659 H 0.08008 0.95394 0.08471 0.0
C660 C 0.03361 0.94794 0.12523 0.0
C661 C 0.024 0.94465 0.16364 0.0
C662 C 0.1769 0.95187 0.15992 0.0
C663 C 0.10368 0.9533 0.14251 0.0
C664 C 0.21651 0.94707 0.14925 0.0
C665 C 0.22607 0.94366 0.11083 0.0
C666 C 0.14651 0.95307 0.132 0.0
C667 C 0.19514 0.94687 0.08368 0.0
C668 C 0.07328 0.95238 0.11457 0.0
C669 C 0.05494 0.94762 0.1908 0.0
N670 N 0.15669 0.95098 0.09481 0.0
N671 N 0.09346 0.95135 0.17969 0.0
H672 H 0.28268 0.63585 0.92932 0.0
H673 H 0.46945 0.53627 0.85375 0.0
H674 H 0.27864 0.52988 0.91912 0.0
H675 H 0.47741 0.63251 0.90608 0.0
H676 H 0.3994 0.53236 0.87422 0.0
H677 H 0.35446 0.63463 0.91768 0.0
C678 C 0.2973 0.6123 0.92484 0.0
C679 C 0.27525 0.58296 0.925 0.0
C680 C 0.41685 0.55407 0.88156 0.0
C681 C 0.357 0.58116 0.91122 0.0
C682 C 0.45656 0.55638 0.86972 0.0
C683 C 0.47926 0.58469 0.87831 0.0
C684 C 0.39984 0.58055 0.90143 0.0
C685 C 0.46138 0.61002 0.89928 0.0
C686 C 0.33815 0.61151 0.91831 0.0
C687 C 0.29511 0.55291 0.91926 0.0
N688 N 0.42272 0.60744 0.90978 0.0
N689 N 0.33506 0.55274 0.91206 0.0
H690 H 0.77494 0.64699 0.91409 0.0
H691 H 0.97951 0.74204 0.87195 0.0
H692 H 0.77919 0.74356 0.86248 0.0
H693 H 0.97276 0.64387 0.91939 0.0
H694 H 0.90637 0.74531 0.87272 0.0
H695 H 0.84762 0.64765 0.92077 0.0
C696 C 0.79117 0.66832 0.90405 0.0
C697 C 0.77094 0.69509 0.88727 0.0
C698 C 0.921 0.72318 0.88321 0.0
C699 C 0.8544 0.69618 0.89514 0.0
C700 C 0.96276 0.72124 0.88264 0.0
C701 C 0.9825 0.69259 0.89544 0.0
C702 C 0.8988 0.69624 0.8966 0.0
C703 C 0.95916 0.66661 0.90958 0.0
C704 C 0.83272 0.66879 0.90809 0.0
C705 C 0.79354 0.72245 0.87568 0.0
N706 N 0.91864 0.66901 0.90955 0.0
N707 N 0.83412 0.72219 0.87958 0.0
H708 H 0.47663 0.74119 0.37741 0.0
H709 H 0.277 0.63432 0.40036 0.0
H710 H 0.47493 0.6389 0.41192 0.0
H711 H 0.27514 0.74001 0.38462 0.0
H712 H 0.34993 0.63582 0.40285 0.0
H713 H 0.40318 0.74171 0.37824 0.0
C714 C 0.46087 0.71891 0.38524 0.0
C715 C 0.48207 0.69001 0.39469 0.0
C716 C 0.33368 0.65875 0.39893 0.0
C717 C 0.39818 0.69038 0.39565 0.0
C718 C 0.29199 0.65786 0.39722 0.0
C719 C 0.26995 0.68706 0.39198 0.0
C720 C 0.35373 0.68905 0.39509 0.0
C721 C 0.291 0.71696 0.38889 0.0
C722 C 0.41899 0.71925 0.38587 0.0
C723 C 0.46007 0.6619 0.40495 0.0
N724 N 0.33177 0.71718 0.39024 0.0
N725 N 0.41945 0.66277 0.40495 0.0
H726 H 0.79734 0.57253 0.47347 0.0
H727 H 0.95363 0.57179 0.30444 0.0
H728 H 0.76356 0.5765 0.35499 0.0
H729 H 0.98775 0.57583 0.42286 0.0
H730 H 0.88405 0.56398 0.32253 0.0
H731 H 0.86696 0.56422 0.45552 0.0
C732 C 0.80443 0.57118 0.44368 0.0
C733 C 0.77463 0.57576 0.41568 0.0
C734 C 0.90681 0.5663 0.34458 0.0
C735 C 0.85437 0.56666 0.39492 0.0
C736 C 0.94664 0.57056 0.33425 0.0
C737 C 0.97656 0.575 0.36218 0.0
C738 C 0.89677 0.56651 0.3831 0.0
C739 C 0.96555 0.57333 0.40039 0.0
C740 C 0.84426 0.56662 0.43344 0.0
C741 C 0.7857 0.5739 0.3775 0.0
N742 N 0.92652 0.56953 0.40972 0.0
N743 N 0.8247 0.5698 0.36825 0.0
H744 H 0.50904 0.44608 0.10133 0.0
H745 H 0.7374 0.44687 0.17174 0.0
H746 H 0.54597 0.4435 0.21903 0.0
H747 H 0.70053 0.44377 0.05404 0.0
H748 H 0.66756 0.45399 0.18951 0.0
H749 H 0.57882 0.45352 0.08352 0.0
C750 C 0.53182 0.44723 0.12345 0.0
C751 C 0.52169 0.4436 0.1617 0.0
C752 C 0.67475 0.45207 0.15976 0.0
C753 C 0.6017 0.45228 0.14154 0.0
C754 C 0.71461 0.44786 0.14961 0.0
C755 C 0.72478 0.44415 0.11137 0.0
C756 C 0.64469 0.45243 0.1315 0.0
C757 C 0.69412 0.44648 0.08383 0.0
C758 C 0.57165 0.45163 0.11328 0.0
C759 C 0.55234 0.44615 0.18923 0.0
N760 N 0.65541 0.45008 0.09447 0.0
N761 N 0.59102 0.44994 0.17858 0.0
H762 H 0.22101 0.32145 0.07276 0.0
H763 H 0.02505 0.32081 0.19959 0.0
H764 H 0.22468 0.33939 0.19326 0.0
H765 H 0.02142 0.33956 0.07927 0.0
H766 H 0.09828 0.31918 0.19773 0.0
H767 H 0.1478 0.31965 0.07465 0.0
C768 C 0.2064 0.32467 0.09969 0.0
C769 C 0.22893 0.33053 0.13295 0.0
C770 C 0.08144 0.32358 0.17173 0.0
C771 C 0.14522 0.32857 0.13528 0.0
C772 C 0.03967 0.32424 0.17271 0.0
C773 C 0.01714 0.33028 0.13949 0.0
C774 C 0.10087 0.32852 0.13719 0.0
C775 C 0.03769 0.33508 0.10553 0.0
C776 C 0.16464 0.32391 0.10069 0.0
C777 C 0.2084 0.33505 0.16697 0.0
N778 N 0.0784 0.33396 0.10521 0.0
N779 N 0.16769 0.33384 0.16731 0.0
H780 H 0.52813 0.38507 0.62569 0.0
H781 H 0.72933 0.27811 0.63762 0.0
H782 H 0.52739 0.27962 0.64361 0.0
H783 H 0.72571 0.38432 0.64746 0.0
H784 H 0.65583 0.27727 0.63457 0.0
H785 H 0.60105 0.38437 0.62776 0.0
C786 C 0.5433 0.36167 0.62968 0.0
C787 C 0.52155 0.3323 0.63431 0.0
C788 C 0.6712 0.30071 0.63756 0.0
C789 C 0.6054 0.33138 0.63716 0.0
C790 C 0.71309 0.30121 0.63913 0.0
C791 C 0.7337 0.3313 0.643 0.0
C792 C 0.64984 0.33057 0.63935 0.0
C793 C 0.71116 0.36052 0.64508 0.0
C794 C 0.58502 0.36133 0.63122 0.0
C795 C 0.54299 0.30282 0.64017 0.0
N796 N 0.67054 0.35941 0.64305 0.0
N797 N 0.58377 0.30307 0.64131 0.0
H798 H 0.0123 0.44728 0.60601 0.0
H799 H 0.24181 0.44549 0.672 0.0
H800 H 0.05158 0.44589 0.72307 0.0
H801 H 0.20233 0.44476 0.55497 0.0
H802 H 0.1726 0.45381 0.69125 0.0
H803 H 0.08168 0.45464 0.58685 0.0
C804 C 0.03553 0.44872 0.6277 0.0
C805 C 0.02621 0.44539 0.66616 0.0
C806 C 0.1791 0.45216 0.66133 0.0
C807 C 0.10574 0.45387 0.64448 0.0
C808 C 0.21859 0.44724 0.65034 0.0
C809 C 0.2278 0.44386 0.61184 0.0
C810 C 0.14848 0.45349 0.63364 0.0
C811 C 0.19666 0.44718 0.58493 0.0
C812 C 0.07512 0.45307 0.61676 0.0
C813 C 0.05737 0.44828 0.69312 0.0
N814 N 0.15832 0.4514 0.59637 0.0
N815 N 0.09581 0.45192 0.68174 0.0
H816 H 0.05989 0.0976 0.23182 0.0
H817 H 0.19116 0.09689 0.04579 0.0
H818 H 0.18866 0.08792 0.23415 0.0
H819 H 0.0626 0.08551 0.04381 0.0
H820 H 0.19116 0.08993 0.11456 0.0
H821 H 0.06012 0.08955 0.16322 0.0
C822 C 0.08818 0.09324 0.2181 0.0
C823 C 0.12436 0.09389 0.23893 0.0
C824 C 0.16298 0.08859 0.09903 0.0
C825 C 0.12488 0.08534 0.16002 0.0
C826 C 0.16298 0.09236 0.05964 0.0
C827 C 0.12676 0.09225 0.03885 0.0
C828 C 0.12648 0.08496 0.11792 0.0
C829 C 0.09118 0.08662 0.05866 0.0
C830 C 0.08831 0.08884 0.17879 0.0
C831 C 0.16009 0.08845 0.21926 0.0
N832 N 0.09189 0.08361 0.09704 0.0
N833 N 0.15948 0.08481 0.18094 0.0
H834 H 0.80923 0.91669 0.9834 0.0
H835 H 0.93929 0.91821 0.79631 0.0
H836 H 0.93777 0.92823 0.98465 0.0
H837 H 0.81051 0.92794 0.79493 0.0
H838 H 0.93945 0.92473 0.86511 0.0
H839 H 0.80879 0.92366 0.91461 0.0
C840 C 0.83732 0.9212 0.96939 0.0
C841 C 0.87365 0.92144 0.99 0.0
C842 C 0.91118 0.92576 0.84972 0.0
C843 C 0.87342 0.92878 0.9109 0.0
C844 C 0.91107 0.92224 0.81029 0.0
C845 C 0.87478 0.92213 0.78961 0.0
C846 C 0.87472 0.92891 0.86878 0.0
C847 C 0.83916 0.92705 0.80965 0.0
C848 C 0.83706 0.92498 0.92999 0.0
C849 C 0.90911 0.92703 0.96997 0.0
N850 N 0.84 0.92987 0.84805 0.0
N851 N 0.90814 0.93011 0.9316 0.0
H852 H 0.05868 0.59155 0.54149 0.0
H853 H 0.18675 0.5844 0.73488 0.0
H854 H 0.18751 0.60022 0.54635 0.0
H855 H 0.06014 0.60596 0.72973 0.0
H856 H 0.18658 0.57888 0.66591 0.0
H857 H 0.05825 0.58543 0.61034 0.0
C858 C 0.08694 0.59207 0.55695 0.0
C859 C 0.12317 0.59702 0.53793 0.0
C860 C 0.1588 0.58457 0.67994 0.0
C861 C 0.12279 0.58949 0.61701 0.0
C862 C 0.15884 0.58787 0.71935 0.0
C863 C 0.1235 0.5962 0.73836 0.0
C864 C 0.12312 0.58935 0.65916 0.0
C865 C 0.0881 0.59941 0.71658 0.0
C866 C 0.08662 0.58844 0.59629 0.0
C867 C 0.15886 0.59643 0.55957 0.0
N868 N 0.08889 0.59622 0.67818 0.0
N869 N 0.15774 0.59303 0.59795 0.0
H870 H 0.86663 0.46182 0.48814 0.0
H871 H 0.87147 0.35588 0.29646 0.0
H872 H 0.88378 0.3563 0.48252 0.0
H873 H 0.88076 0.46213 0.29526 0.0
H874 H 0.87183 0.35683 0.36535 0.0
H875 H 0.86661 0.4639 0.41818 0.0
C876 C 0.87011 0.43915 0.47218 0.0
C877 C 0.87553 0.40887 0.49104 0.0
C878 C 0.87395 0.38005 0.35027 0.0
C879 C 0.8756 0.41101 0.41165 0.0
C880 C 0.87371 0.37948 0.31088 0.0
C881 C 0.87588 0.40897 0.29024 0.0
C882 C 0.87614 0.41039 0.36953 0.0
C883 C 0.87914 0.43887 0.3103 0.0
C884 C 0.8704 0.44037 0.43241 0.0
C885 C 0.88006 0.38022 0.46916 0.0
N886 N 0.87887 0.43888 0.349 0.0
N887 N 0.87997 0.38202 0.43082 0.0
H888 H 0.61664 0.16518 0.54305 0.0
H889 H 0.61597 0.05615 0.73241 0.0
H890 H 0.63038 0.05927 0.53958 0.0
H891 H 0.63084 0.16196 0.72899 0.0
H892 H 0.61521 0.05521 0.66238 0.0
H893 H 0.61654 0.16308 0.61188 0.0
C894 C 0.61965 0.1414 0.55694 0.0
C895 C 0.62327 0.11234 0.53566 0.0
C896 C 0.61863 0.07855 0.67711 0.0
C897 C 0.62319 0.10963 0.61489 0.0
C898 C 0.61877 0.07911 0.71691 0.0
C899 C 0.62378 0.10915 0.73635 0.0
C900 C 0.62294 0.10833 0.65697 0.0
C901 C 0.62741 0.13823 0.7151 0.0
C902 C 0.6197 0.14019 0.59629 0.0
C903 C 0.62763 0.08223 0.55509 0.0
N904 N 0.6269 0.13706 0.67673 0.0
N905 N 0.6272 0.08157 0.59377 0.0
H906 H 0.4414 0.91691 0.29093 0.0
H907 H 0.31174 0.91944 0.47837 0.0
H908 H 0.31284 0.92827 0.29001 0.0
H909 H 0.44059 0.92845 0.47949 0.0
H910 H 0.31148 0.92567 0.40956 0.0
H911 H 0.44203 0.92409 0.35971 0.0
C912 C 0.41335 0.92143 0.30501 0.0
C913 C 0.37695 0.92156 0.28449 0.0
C914 C 0.3398 0.9266 0.42489 0.0
C915 C 0.37742 0.92916 0.36359 0.0
C916 C 0.33996 0.92326 0.46434 0.0
C917 C 0.37629 0.92303 0.48497 0.0
C918 C 0.37623 0.92947 0.40574 0.0
C919 C 0.4119 0.92766 0.46483 0.0
C920 C 0.41372 0.92533 0.34441 0.0
C921 C 0.34155 0.92717 0.30462 0.0
N922 N 0.411 0.93032 0.4264 0.0
N923 N 0.34264 0.93038 0.34298 0.0
H924 H 0.69625 0.60687 0.04462 0.0
H925 H 0.56328 0.61057 0.23102 0.0
H926 H 0.56706 0.61048 0.04258 0.0
H927 H 0.69133 0.59587 0.23329 0.0
H928 H 0.56368 0.60646 0.16195 0.0
H929 H 0.69493 0.59887 0.11336 0.0
C930 C 0.66759 0.60558 0.05848 0.0
C931 C 0.63174 0.60982 0.0377 0.0
C932 C 0.59167 0.60385 0.17757 0.0
C933 C 0.63002 0.6011 0.11662 0.0
C934 C 0.59142 0.60595 0.21713 0.0
C935 C 0.62739 0.60393 0.23818 0.0
C936 C 0.62816 0.59984 0.15874 0.0
C937 C 0.66296 0.59833 0.2183 0.0
C938 C 0.66686 0.60118 0.09782 0.0
C939 C 0.59552 0.60815 0.05744 0.0
N940 N 0.6625 0.5968 0.17978 0.0
N941 N 0.59562 0.60421 0.0957 0.0
H942 H 0.44159 0.41791 0.79153 0.0
H943 H 0.3099 0.41946 0.97773 0.0
H944 H 0.31281 0.42743 0.78936 0.0
H945 H 0.43867 0.42911 0.97989 0.0
H946 H 0.31021 0.42593 0.90892 0.0
H947 H 0.44137 0.42549 0.86025 0.0
C948 C 0.4133 0.4221 0.80532 0.0
C949 C 0.37711 0.42157 0.78448 0.0
C950 C 0.33838 0.42695 0.92448 0.0
C951 C 0.37661 0.42963 0.86351 0.0
C952 C 0.33821 0.42347 0.96391 0.0
C953 C 0.37437 0.42329 0.98481 0.0
C954 C 0.37498 0.43002 0.90563 0.0
C955 C 0.41012 0.42824 0.965 0.0
C956 C 0.41318 0.42624 0.84468 0.0
C957 C 0.34139 0.42681 0.80424 0.0
N958 N 0.40955 0.43101 0.92658 0.0
N959 N 0.34201 0.43024 0.84258 0.0
H960 H 0.2811 0.29774 0.61176 0.0
H961 H 0.21861 0.2214 0.40949 0.0
H962 H 0.33762 0.32473 0.50705 0.0
H963 H 0.16095 0.19575 0.51407 0.0
H964 H 0.26222 0.25958 0.44458 0.0
H965 H 0.23734 0.25982 0.57653 0.0
C966 C 0.28449 0.29554 0.58137 0.0
C967 C 0.31311 0.3144 0.56232 0.0
C968 C 0.23994 0.2457 0.45986 0.0
C969 C 0.26284 0.27119 0.52171 0.0
C970 C 0.21493 0.22397 0.43981 0.0
C971 C 0.18604 0.20538 0.45887 0.0
C972 C 0.23615 0.24885 0.49932 0.0
C973 C 0.18274 0.20963 0.4982 0.0
C974 C 0.25938 0.27395 0.56124 0.0
C975 C 0.31603 0.31062 0.5229 0.0
N976 N 0.20755 0.23083 0.51711 0.0
N977 N 0.29117 0.2895 0.50391 0.0
H978 H 0.97174 0.92269 0.55963 0.0
H979 H 0.02844 0.09779 0.46946 0.0
H980 H 0.91166 0.01386 0.58729 0.0
H981 H 0.08832 1.00655 0.44173 0.0
H982 H 0.98514 0.06744 0.51225 0.0
H983 H 0.0152 0.9531 0.51707 0.0
C984 C 0.96783 0.94916 0.55703 0.0
C985 C 0.93788 0.96571 0.57716 0.0
C986 C 0.00764 0.05401 0.49673 0.0
C987 C 0.98753 1.00072 0.52796 0.0
C988 C 0.03235 0.07132 0.47211 0.0
C989 C 0.06217 0.05473 0.45186 0.0
C990 C 0.01272 0.0198 0.50132 0.0
C991 C 0.06575 0.0204 0.45665 0.0
C992 C 0.99263 0.96651 0.53254 0.0
C993 C 0.93432 1.00005 0.57244 0.0
N994 N 0.04143 1.00411 0.48095 0.0
N995 N 0.95874 0.01637 0.54826 0.0
H996 H 0.27798 0.92244 0.71469 0.0
H997 H 0.22243 0.09656 0.80827 0.0
H998 H 0.3393 0.01356 0.68946 0.0
H999 H 0.16193 1.00521 0.8342 0.0
H1000 H 0.26566 0.06659 0.765 0.0
H1001 H 0.2346 0.95251 0.7577 0.0
C1002 C 0.28218 0.94883 0.71792 0.0
C1003 C 0.31245 0.96546 0.69833 0.0
C1004 C 0.24303 0.05305 0.78023 0.0
C1005 C 0.2629 1.00008 0.74806 0.0
C1006 C 0.21836 0.07014 0.80512 0.0
C1007 C 0.18839 0.05341 0.82501 0.0
C1008 C 0.23776 0.01892 0.775 0.0
C1009 C 0.18463 0.01916 0.81958 0.0
C1010 C 0.25743 0.96598 0.74267 0.0
C1011 C 0.31638 0.99969 0.70385 0.0
N1012 N 0.20891 1.00309 0.79503 0.0
N1013 N 0.292 0.01582 0.72827 0.0
H1014 H 0.97173 0.29832 0.66806 0.0
H1015 H 0.03242 0.2202 0.86963 0.0
H1016 H 0.91642 0.32705 0.7728 0.0
H1017 H 0.0899 0.19512 0.76474 0.0
H1018 H 0.98956 0.25936 0.83508 0.0
H1019 H 0.01441 0.25976 0.7032 0.0
C1020 C 0.96841 0.2964 0.69848 0.0
C1021 C 0.94042 0.31593 0.71753 0.0
C1022 C 0.01165 0.24538 0.81965 0.0
C1023 C 0.98952 0.27186 0.75809 0.0
C1024 C 0.03621 0.22308 0.83937 0.0
C1025 C 0.06483 0.20439 0.82004 0.0
C1026 C 0.01564 0.24895 0.78027 0.0
C1027 C 0.06831 0.20905 0.78082 0.0
C1028 C 0.99291 0.27441 0.71857 0.0
C1029 C 0.93754 0.31241 0.75698 0.0
N1030 N 0.04396 0.23078 0.76225 0.0
N1031 N 0.96184 0.29083 0.77598 0.0
H1032 H 0.84083 0.82557 0.51185 0.0
H1033 H 0.66163 0.69394 0.51879 0.0
H1034 H 0.77988 0.79925 0.6145 0.0
H1035 H 0.7217 0.72167 0.41616 0.0
H1036 H 0.70452 0.73232 0.55442 0.0
H1037 H 0.79805 0.78701 0.47654 0.0
C1038 C 0.8186 0.81152 0.52702 0.0
C1039 C 0.81395 0.81561 0.5662 0.0
C1040 C 0.70826 0.73009 0.52409 0.0
C1041 C 0.76459 0.77155 0.52587 0.0
C1042 C 0.68369 0.70824 0.50371 0.0
C1043 C 0.68805 0.70463 0.46443 0.0
C1044 C 0.73749 0.74843 0.50507 0.0
C1045 C 0.71723 0.7237 0.4464 0.0
C1046 C 0.79407 0.78957 0.50681 0.0
C1047 C 0.78455 0.79684 0.58433 0.0
N1048 N 0.74087 0.74472 0.46686 0.0
N1049 N 0.76094 0.77567 0.56401 0.0
H1050 H 0.72044 0.09788 0.30667 0.0
H1051 H 0.78021 0.92188 0.22072 0.0
H1052 H 0.66012 1.00694 0.33467 0.0
H1053 H 0.83856 0.01327 0.19097 0.0
H1054 H 0.7361 0.95251 0.26251 0.0
H1055 H 0.76483 0.06709 0.26539 0.0
C1056 C 0.71667 0.07138 0.30443 0.0
C1057 C 0.68637 0.05502 0.32427 0.0
C1058 C 0.75845 0.96591 0.24677 0.0
C1059 C 0.73712 0.01954 0.2765 0.0
C1060 C 0.78362 0.94844 0.22271 0.0
C1061 C 0.81324 0.965 0.20217 0.0
C1062 C 0.76286 1.00026 0.25052 0.0
C1063 C 0.81617 0.99944 0.20613 0.0
C1064 C 0.74201 0.05381 0.28065 0.0
C1065 C 0.68304 0.02062 0.32003 0.0
N1066 N 0.7914 0.01589 0.22991 0.0
N1067 N 0.708 1.00405 0.29653 0.0
H1068 H 0.97089 0.79824 0.16243 0.0
H1069 H 0.03104 0.72041 0.36435 0.0
H1070 H 0.9144 0.82518 0.2672 0.0
H1071 H 0.08743 0.69288 0.25972 0.0
H1072 H 0.98848 0.75923 0.32925 0.0
H1073 H 0.01362 0.75935 0.19738 0.0
C1074 C 0.96733 0.79585 0.19277 0.0
C1075 C 0.939 0.81496 0.21193 0.0
C1076 C 0.01021 0.74478 0.31394 0.0
C1077 C 0.98803 0.77063 0.25219 0.0
C1078 C 0.03462 0.72266 0.33399 0.0
C1079 C 0.06287 0.7034 0.31493 0.0
C1080 C 0.01398 0.74769 0.27446 0.0
C1081 C 0.0661 0.70729 0.27557 0.0
C1082 C 0.99182 0.77369 0.21273 0.0
C1083 C 0.93578 0.8109 0.25127 0.0
N1084 N 0.0419 0.72894 0.25663 0.0
N1085 N 0.96004 0.78924 0.27009 0.0
H1086 H 0.28 0.79713 0.113 0.0
H1087 H 0.22132 0.7166 0.91198 0.0
H1088 H 0.33705 0.8229 1.00815 0.0
H1089 H 0.16267 0.69186 0.01635 0.0
H1090 H 0.26427 0.75533 0.94684 0.0
H1091 H 0.23761 0.75773 0.0784 0.0
C1092 C 0.28378 0.79437 0.08272 0.0
C1093 C 0.31214 0.81333 0.06343 0.0
C1094 C 0.24196 0.74151 0.96215 0.0
C1095 C 0.2635 0.76838 0.02357 0.0
C1096 C 0.21733 0.71943 0.94223 0.0
C1097 C 0.18827 0.70103 0.96127 0.0
C1098 C 0.2376 0.74523 1.00147 0.0
C1099 C 0.18461 0.70561 1.00051 0.0
C1100 C 0.25947 0.77192 0.06296 0.0
C1101 C 0.31562 0.80877 0.02418 0.0
N1102 N 0.209 0.72722 0.01931 0.0
N1103 N 0.29155 0.78683 1.00555 0.0
H1104 H 0.02523 0.59709 0.96758 0.0
H1105 H 0.96854 0.42214 0.05799 0.0
H1106 H 0.08054 0.505 0.93546 0.0
H1107 H 0.90927 0.51344 0.08664 0.0
H1108 H 0.01078 0.45234 0.0142 0.0
H1109 H 0.98254 0.567 1.01116 0.0
C1110 C 0.02824 0.5705 0.96943 0.0
C1111 C 0.05667 0.55359 0.94778 0.0
C1112 C 0.98865 0.46583 0.03013 0.0
C1113 C 0.00796 0.51894 0.99814 0.0
C1114 C 0.96457 0.44861 0.05536 0.0
C1115 C 0.93518 0.46524 0.07614 0.0
C1116 C 0.98344 0.50002 0.02549 0.0
C1117 C 0.93152 0.49956 0.07133 0.0
C1118 C 0.00388 0.55333 0.99449 0.0
C1119 C 0.05905 0.5191 0.95148 0.0
N1120 N 0.95527 0.51578 0.04644 0.0
N1121 N 0.03517 0.50296 0.9763 0.0
H1122 H 0.22162 0.59643 0.3082 0.0
H1123 H 0.27695 0.42197 0.2154 0.0
H1124 H 0.16139 0.5052 0.33519 0.0
H1125 H 0.33727 0.51324 0.18879 0.0
H1126 H 0.23399 0.45206 0.2588 0.0
H1127 H 0.26469 0.56624 0.26504 0.0
C1128 C 0.21759 0.56999 0.30531 0.0
C1129 C 0.18771 0.55336 0.32543 0.0
C1130 C 0.25652 0.46555 0.24338 0.0
C1131 C 0.23691 0.5186 0.27553 0.0
C1132 C 0.28101 0.4484 0.21841 0.0
C1133 C 0.31087 0.46507 0.1983 0.0
C1134 C 0.26183 0.4997 0.24847 0.0
C1135 C 0.31466 0.49933 0.20357 0.0
C1136 C 0.24217 0.55277 0.28048 0.0
C1137 C 0.18402 0.51907 0.32037 0.0
N1138 N 0.29054 0.51546 0.2282 0.0
N1139 N 0.20821 0.50287 0.29584 0.0
H1140 H 0.77993 0.29779 0.11453 0.0
H1141 H 0.72041 0.2207 0.91212 0.0
H1142 H 0.83698 0.32521 1.01023 0.0
H1143 H 0.66342 0.19327 0.01645 0.0
H1144 H 0.76302 0.25934 0.94746 0.0
H1145 H 0.73741 0.25909 0.07919 0.0
C1146 C 0.78368 0.29553 0.08419 0.0
C1147 C 0.81209 0.31474 0.06529 0.0
C1148 C 0.74113 0.24496 0.96265 0.0
C1149 C 0.76322 0.27061 0.02456 0.0
C1150 C 0.71669 0.22294 0.94246 0.0
C1151 C 0.68826 0.20375 0.96137 0.0
C1152 C 0.73723 0.24782 1.0021 0.0
C1153 C 0.68487 0.20763 1.00072 0.0
C1154 C 0.75929 0.27348 0.06401 0.0
C1155 C 0.81554 0.31084 0.02595 0.0
N1156 N 0.70912 0.22917 0.01979 0.0
N1157 N 0.79133 0.28926 1.00688 0.0
H1158 H 0.78235 0.42401 0.72145 0.0
H1159 H 0.72421 0.60095 0.80608 0.0
H1160 H 0.84231 0.51453 0.69109 0.0
H1161 H 0.66584 0.50986 0.83698 0.0
H1162 H 0.76787 0.56989 0.76411 0.0
H1163 H 0.73876 0.45534 0.76291 0.0
C1164 C 0.78622 0.45054 0.72322 0.0
C1165 C 0.81618 0.46662 0.70265 0.0
C1166 C 0.74561 0.55667 0.78015 0.0
C1167 C 0.76634 0.50273 0.75067 0.0
C1168 C 0.7207 0.57438 0.80426 0.0
C1169 C 0.69119 0.55801 0.82513 0.0
C1170 C 0.74103 0.5223 0.77673 0.0
C1171 C 0.68816 0.52355 0.82154 0.0
C1172 C 0.76133 0.46842 0.74711 0.0
C1173 C 0.81964 0.50106 0.70631 0.0
N1174 N 0.71264 0.50688 0.79773 0.0
N1175 N 0.79513 0.51794 0.72996 0.0
H1176 H 0.46973 0.92122 0.05365 0.0
H1177 H 0.52969 0.09671 0.96668 0.0
H1178 H 0.41106 0.01268 0.08269 0.0
H1179 H 0.58906 1.00535 0.93852 0.0
H1180 H 0.48538 0.06627 1.00839 0.0
H1181 H 0.51379 0.95164 1.01173 0.0
C1182 C 0.46623 0.94775 0.05147 0.0
C1183 C 0.43653 0.96438 0.07185 0.0
C1184 C 0.50799 0.05283 0.993 0.0
C1185 C 0.4869 0.99943 0.02334 0.0
C1186 C 0.53328 0.0702 0.96899 0.0
C1187 C 0.56328 0.0536 0.94896 0.0
C1188 C 0.51263 0.01854 0.9972 0.0
C1189 C 0.56639 0.0192 0.95329 0.0
C1190 C 0.49139 0.96511 0.02734 0.0
C1191 C 0.43351 0.9988 0.06765 0.0
N1192 N 0.54149 1.00285 0.97702 0.0
N1193 N 0.45828 0.01515 0.04379 0.0
H1194 H 0.40768 0.32445 0.2614 0.0
H1195 H 0.58861 0.19434 0.25383 0.0
H1196 H 0.46876 0.29912 0.15847 0.0
H1197 H 0.52875 0.22217 0.35657 0.0
H1198 H 0.54522 0.23243 0.2182 0.0
H1199 H 0.45118 0.28628 0.29641 0.0
C1200 C 0.43007 0.31068 0.2461 0.0
C1201 C 0.43454 0.31495 0.20693 0.0
C1202 C 0.54167 0.23028 0.24856 0.0
C1203 C 0.48478 0.27134 0.24694 0.0
C1204 C 0.56653 0.20862 0.26893 0.0
C1205 C 0.56234 0.20511 0.30824 0.0
C1206 C 0.51233 0.2485 0.26763 0.0
C1207 C 0.5331 0.22412 0.32631 0.0
C1208 C 0.45503 0.28896 0.26615 0.0
C1209 C 0.4642 0.29655 0.18864 0.0
N1210 N 0.50919 0.24491 0.30587 0.0
N1211 N 0.48824 0.27559 0.2088 0.0
H1212 H 0.40764 0.82423 0.76166 0.0
H1213 H 0.5844 0.69036 0.75394 0.0
H1214 H 0.46811 0.79762 0.65882 0.0
H1215 H 0.52831 0.72163 0.85733 0.0
H1216 H 0.54061 0.72797 0.71819 0.0
H1217 H 0.44956 0.78485 0.79666 0.0
C1218 C 0.42957 0.80994 0.74638 0.0
C1219 C 0.43439 0.81424 0.70725 0.0
C1220 C 0.53789 0.72663 0.7487 0.0
C1221 C 0.48275 0.7692 0.74723 0.0
C1222 C 0.56293 0.70519 0.76914 0.0
C1223 C 0.56008 0.70293 0.80869 0.0
C1224 C 0.5097 0.74591 0.76794 0.0
C1225 C 0.53162 0.72265 0.82688 0.0
C1226 C 0.4536 0.78751 0.76642 0.0
C1227 C 0.46336 0.79509 0.68897 0.0
N1228 N 0.50755 0.74328 0.80637 0.0
N1229 N 0.4865 0.77347 0.70912 0.0
H1230 H 0.52895 0.59766 0.46653 0.0
H1231 H 0.47111 0.42184 0.55378 0.0
H1232 H 0.58929 0.50677 0.43822 0.0
H1233 H 0.41176 0.51297 0.58296 0.0
H1234 H 0.51468 0.45249 0.5116 0.0
H1235 H 0.48504 0.5669 0.50823 0.0
C1236 C 0.53284 0.57118 0.46881 0.0
C1237 C 0.56302 0.55483 0.44877 0.0
C1238 C 0.49223 0.46583 0.5273 0.0
C1239 C 0.5128 0.51938 0.49702 0.0
C1240 C 0.46737 0.44835 0.55159 0.0
C1241 C 0.43763 0.46482 0.57208 0.0
C1242 C 0.48739 0.50011 0.52327 0.0
C1243 C 0.43427 0.49921 0.56785 0.0
C1244 C 0.50776 0.55362 0.49282 0.0
C1245 C 0.56646 0.52045 0.45302 0.0
N1246 N 0.45875 0.51568 0.54384 0.0
N1247 N 0.54178 0.5039 0.47677 0.0
loop_
_geom_bond_atom_site_label_1
_geom_bond_atom_site_label_2
_geom_bond_distance
_geom_bond_site_symmetry_2
_ccdc_geom_bond_type
Co0 N4 2.148 . S
Co0 N10 2.128 . S
Co0 N20 2.194 . S
Co0 O25 2.351 . S
Co0 O26 2.155 . S
Co0 O27 2.096 . S
C1 N4 1.301 . S
C1 N5 1.328 . S
C1 H6 0.930 . S
C2 C3 1.333 . S
C2 N4 1.317 . S
C2 H7 0.930 . S
C3 C2 1.333 . S
C3 N5 1.350 . S
C3 H29 0.931 . S
N4 Co0 2.148 . S
N4 C1 1.301 . S
N4 C2 1.317 . S
N5 C1 1.328 . S
N5 C3 1.350 . S
H6 C1 0.930 . S
H7 C2 0.930 . S
C8 O9 1.224 . S
C8 O27 1.247 . S
O9 C8 1.224 . S
N10 Co0 2.128 . S
N10 C11 1.355 . S
N10 C13 1.311 . S
C11 N10 1.355 . S
C11 C12 1.363 . S
C11 H23 0.929 . S
C12 C11 1.363 . S
C12 N14 1.375 . S
C12 H30 0.928 1_455 S
C13 N10 1.311 . S
C13 N14 1.347 . S
C13 H24 0.929 . S
N14 C12 1.375 . S
N14 C13 1.347 . S
C15 C18 1.365 . S
C15 N20 1.328 . S
C15 H21 0.929 . S
C16 C17 1.362 . S
C16 C19 1.378 . S
C16 H31 0.929 . S
C17 C16 1.362 . S
C17 C18 1.366 . S
C18 C15 1.365 . S
C18 C17 1.366 . S
C18 H32 0.930 . S
C19 C16 1.378 . S
C19 N20 1.315 . S
C19 H22 0.930 . S
N20 Co0 2.194 . S
N20 C15 1.328 . S
N20 C19 1.315 . S
H21 C15 0.929 . S
H22 C19 0.930 . S
H23 C11 0.929 . S
H24 C13 0.929 . S
O25 Co0 2.351 . S
O25 C28 1.244 . S
O26 Co0 2.155 . S
O26 C28 1.240 . S
O27 Co0 2.096 . S
O27 C8 1.247 . S
C28 O25 1.244 . S
C28 O26 1.240 . S
H29 C3 0.931 . S
H30 C12 0.928 1_655 S
H31 C16 0.929 . S
H32 C18 0.930 . S
Co33 N37 2.148 . S
Co33 N43 2.128 . S
Co33 N53 2.194 . S
Co33 O58 2.351 . S
Co33 O59 2.155 . S
Co33 O60 2.096 . S
C34 N37 1.301 . S
C34 N38 1.307 1_455 S
C34 H39 0.930 . S
C35 C36 1.333 . S
C35 N37 1.317 . S
C35 H40 0.930 . S
C36 C35 1.333 . S
C36 N38 1.340 1_455 S
C36 H62 0.933 . S
N37 Co33 2.148 . S
N37 C34 1.301 . S
N37 C35 1.317 . S
N38 C34 1.307 1_655 S
N38 C36 1.340 1_655 S
H39 C34 0.930 . S
H40 C35 0.930 . S
C41 O42 1.224 . S
C41 O60 1.247 . S
O42 C41 1.224 . S
N43 Co33 2.128 . S
N43 C44 1.355 . S
N43 C46 1.311 . S
C44 N43 1.355 . S
C44 C45 1.363 . S
C44 H56 0.929 . S
C45 C44 1.363 . S
C45 N47 1.375 . S
C45 H63 0.931 . S
C46 N43 1.311 . S
C46 N47 1.347 . S
C46 H57 0.929 . S
N47 C45 1.375 . S
N47 C46 1.347 . S
C48 C51 1.365 . S
C48 N53 1.328 . S
C48 H54 0.929 . S
C49 C50 1.362 . S
C49 C52 1.378 . S
C49 H64 0.929 . S
C50 C49 1.362 . S
C50 C51 1.366 . S
C51 C48 1.365 . S
C51 C50 1.366 . S
C51 H65 0.930 . S
C52 C49 1.378 . S
C52 N53 1.315 . S
C52 H55 0.930 . S
N53 Co33 2.194 . S
N53 C48 1.328 . S
N53 C52 1.315 . S
H54 C48 0.929 . S
H55 C52 0.930 . S
H56 C44 0.929 . S
H57 C46 0.929 . S
O58 Co33 2.351 . S
O58 C61 1.244 . S
O59 Co33 2.155 . S
O59 C61 1.240 . S
O60 Co33 2.096 . S
O60 C41 1.247 . S
C61 O58 1.244 . S
C61 O59 1.240 . S
H62 C36 0.933 . S
H63 C45 0.931 . S
H64 C49 0.929 . S
H65 C51 0.930 . S
Co66 N70 2.148 . S
Co66 N76 2.128 . S
Co66 N86 2.194 . S
Co66 O91 2.351 . S
Co66 O92 2.155 . S
Co66 O93 2.096 . S
C67 N70 1.301 . S
C67 N71 1.328 . S
C67 H72 0.930 . S
C68 C69 1.333 . S
C68 N70 1.317 . S
C68 H73 0.930 . S
C69 C68 1.333 . S
C69 N71 1.350 . S
C69 H95 0.931 . S
N70 Co66 2.148 . S
N70 C67 1.301 . S
N70 C68 1.317 . S
N71 C67 1.328 . S
N71 C69 1.350 . S
H72 C67 0.930 . S
H73 C68 0.930 . S
C74 O75 1.224 . S
C74 O93 1.247 . S
O75 C74 1.224 . S
N76 Co66 2.128 . S
N76 C77 1.355 . S
N76 C79 1.311 . S
C77 N76 1.355 . S
C77 C78 1.363 . S
C77 H89 0.929 . S
C78 C77 1.363 . S
C78 N80 1.375 . S
C78 H96 0.928 1_655 S
C79 N76 1.311 . S
C79 N80 1.347 . S
C79 H90 0.929 . S
N80 C78 1.375 . S
N80 C79 1.347 . S
C81 C84 1.365 . S
C81 N86 1.328 . S
C81 H87 0.929 . S
C82 C83 1.362 . S
C82 C85 1.378 . S
C82 H97 0.929 . S
C83 C82 1.362 . S
C83 C84 1.366 . S
C84 C81 1.365 . S
C84 C83 1.366 . S
C84 H98 0.930 . S
C85 C82 1.378 . S
C85 N86 1.315 . S
C85 H88 0.930 . S
N86 Co66 2.194 . S
N86 C81 1.328 . S
N86 C85 1.315 . S
H87 C81 0.929 . S
H88 C85 0.930 . S
H89 C77 0.929 . S
H90 C79 0.929 . S
O91 Co66 2.351 . S
O91 C94 1.244 . S
O92 Co66 2.155 . S
O92 C94 1.240 . S
O93 Co66 2.096 . S
O93 C74 1.247 . S
C94 O91 1.244 . S
C94 O92 1.240 . S
H95 C69 0.931 . S
H96 C78 0.928 1_455 S
H97 C82 0.929 . S
H98 C84 0.930 . S
Co99 N103 2.148 . S
Co99 N109 2.128 . S
Co99 N119 2.194 . S
Co99 O124 2.351 . S
Co99 O125 2.155 . S
Co99 O126 2.096 . S
C100 N103 1.301 . S
C100 N104 1.307 1_655 S
C100 H105 0.930 . S
C101 C102 1.333 . S
C101 N103 1.317 . S
C101 H106 0.930 . S
C102 C101 1.333 . S
C102 N104 1.340 1_655 S
C102 H128 0.933 . S
N103 Co99 2.148 . S
N103 C100 1.301 . S
N103 C101 1.317 . S
N104 C100 1.307 1_455 S
N104 C102 1.340 1_455 S
H105 C100 0.930 . S
H106 C101 0.930 . S
C107 O108 1.224 . S
C107 O126 1.247 . S
O108 C107 1.224 . S
N109 Co99 2.128 . S
N109 C110 1.355 . S
N109 C112 1.311 . S
C110 N109 1.355 . S
C110 C111 1.363 . S
C110 H122 0.929 . S
C111 C110 1.363 . S
C111 N113 1.375 . S
C111 H129 0.931 . S
C112 N109 1.311 . S
C112 N113 1.347 . S
C112 H123 0.929 . S
N113 C111 1.375 . S
N113 C112 1.347 . S
C114 C117 1.365 . S
C114 N119 1.328 . S
C114 H120 0.929 . S
C115 C116 1.362 . S
C115 C118 1.378 . S
C115 H130 0.929 . S
C116 C115 1.362 . S
C116 C117 1.366 . S
C117 C114 1.365 . S
C117 C116 1.366 . S
C117 H131 0.930 . S
C118 C115 1.378 . S
C118 N119 1.315 . S
C118 H121 0.930 . S
N119 Co99 2.194 . S
N119 C114 1.328 . S
N119 C118 1.315 . S
H120 C114 0.929 . S
H121 C118 0.930 . S
H122 C110 0.929 . S
H123 C112 0.929 . S
O124 Co99 2.351 . S
O124 C127 1.244 . S
O125 Co99 2.155 . S
O125 C127 1.240 . S
O126 Co99 2.096 . S
O126 C107 1.247 . S
C127 O124 1.244 . S
C127 O125 1.240 . S
H128 C102 0.933 . S
H129 C111 0.931 . S
H130 C115 0.929 . S
H131 C117 0.930 . S
Co132 N136 2.148 . S
Co132 N142 2.128 . S
Co132 N152 2.194 . S
Co132 O157 2.351 . S
Co132 O158 2.155 . S
Co132 O159 2.096 . S
C133 N136 1.301 . S
C133 N137 1.328 . S
C133 H138 0.930 . S
C134 C135 1.333 . S
C134 N136 1.317 . S
C134 H139 0.930 . S
C135 C134 1.333 . S
C135 N137 1.350 . S
C135 H161 0.931 . S
N136 Co132 2.148 . S
N136 C133 1.301 . S
N136 C134 1.317 . S
N137 C133 1.328 . S
N137 C135 1.350 . S
H138 C133 0.930 . S
H139 C134 0.930 . S
C140 O141 1.224 . S
C140 O159 1.247 . S
O141 C140 1.224 . S
N142 Co132 2.128 . S
N142 C143 1.355 . S
N142 C145 1.311 . S
C143 N142 1.355 . S
C143 C144 1.363 . S
C143 H155 0.929 . S
C144 C143 1.363 . S
C144 N146 1.375 . S
C144 H162 0.928 1_455 S
C145 N142 1.311 . S
C145 N146 1.347 . S
C145 H156 0.929 . S
N146 C144 1.375 . S
N146 C145 1.347 . S
C147 C150 1.365 . S
C147 N152 1.328 . S
C147 H153 0.929 . S
C148 C149 1.362 . S
C148 C151 1.378 . S
C148 H163 0.929 . S
C149 C148 1.362 . S
C149 C150 1.366 . S
C150 C147 1.365 . S
C150 C149 1.366 . S
C150 H164 0.930 . S
C151 C148 1.378 . S
C151 N152 1.315 . S
C151 H154 0.930 . S
N152 Co132 2.194 . S
N152 C147 1.328 . S
N152 C151 1.315 . S
H153 C147 0.929 . S
H154 C151 0.930 . S
H155 C143 0.929 . S
H156 C145 0.929 . S
O157 Co132 2.351 . S
O157 C160 1.244 . S
O158 Co132 2.155 . S
O158 C160 1.240 . S
O159 Co132 2.096 . S
O159 C140 1.247 . S
C160 O157 1.244 . S
C160 O158 1.240 . S
H161 C135 0.931 . S
H162 C144 0.928 1_655 S
H163 C148 0.929 . S
H164 C150 0.930 . S
Co165 N169 2.148 . S
Co165 N175 2.128 . S
Co165 N185 2.194 . S
Co165 O190 2.351 . S
Co165 O191 2.155 . S
Co165 O192 2.096 . S
C166 N169 1.301 . S
C166 N170 1.307 1_455 S
C166 H171 0.930 . S
C167 C168 1.333 . S
C167 N169 1.317 . S
C167 H172 0.930 . S
C168 C167 1.333 . S
C168 N170 1.340 1_455 S
C168 H194 0.933 . S
N169 Co165 2.148 . S
N169 C166 1.301 . S
N169 C167 1.317 . S
N170 C166 1.307 1_655 S
N170 C168 1.340 1_655 S
H171 C166 0.930 . S
H172 C167 0.930 . S
C173 O174 1.224 . S
C173 O192 1.247 . S
O174 C173 1.224 . S
N175 Co165 2.128 . S
N175 C176 1.355 . S
N175 C178 1.311 . S
C176 N175 1.355 . S
C176 C177 1.363 . S
C176 H188 0.929 . S
C177 C176 1.363 . S
C177 N179 1.375 . S
C177 H195 0.931 . S
C178 N175 1.311 . S
C178 N179 1.347 . S
C178 H189 0.929 . S
N179 C177 1.375 . S
N179 C178 1.347 . S
C180 C183 1.365 . S
C180 N185 1.328 . S
C180 H186 0.929 . S
C181 C182 1.362 . S
C181 C184 1.378 . S
C181 H196 0.929 . S
C182 C181 1.362 . S
C182 C183 1.366 . S
C183 C180 1.365 . S
C183 C182 1.366 . S
C183 H197 0.930 . S
C184 C181 1.378 . S
C184 N185 1.315 . S
C184 H187 0.930 . S
N185 Co165 2.194 . S
N185 C180 1.328 . S
N185 C184 1.315 . S
H186 C180 0.929 . S
H187 C184 0.930 . S
H188 C176 0.929 . S
H189 C178 0.929 . S
O190 Co165 2.351 . S
O190 C193 1.244 . S
O191 Co165 2.155 . S
O191 C193 1.240 . S
O192 Co165 2.096 . S
O192 C173 1.247 . S
C193 O190 1.244 . S
C193 O191 1.240 . S
H194 C168 0.933 . S
H195 C177 0.931 . S
H196 C181 0.929 . S
H197 C183 0.930 . S
Co198 N202 2.148 . S
Co198 N208 2.128 . S
Co198 N218 2.194 . S
Co198 O223 2.351 . S
Co198 O224 2.155 . S
Co198 O225 2.096 . S
C199 N202 1.301 . S
C199 N203 1.328 . S
C199 H204 0.930 . S
C200 C201 1.333 . S
C200 N202 1.317 . S
C200 H205 0.930 . S
C201 C200 1.333 . S
C201 N203 1.350 . S
C201 H227 0.931 . S
N202 Co198 2.148 . S
N202 C199 1.301 . S
N202 C200 1.317 . S
N203 C199 1.328 . S
N203 C201 1.350 . S
H204 C199 0.930 . S
H205 C200 0.930 . S
C206 O207 1.224 . S
C206 O225 1.247 . S
O207 C206 1.224 . S
N208 Co198 2.128 . S
N208 C209 1.355 . S
N208 C211 1.311 . S
C209 N208 1.355 . S
C209 C210 1.363 . S
C209 H221 0.929 . S
C210 C209 1.363 . S
C210 N212 1.375 . S
C210 H228 0.928 1_655 S
C211 N208 1.311 . S
C211 N212 1.347 . S
C211 H222 0.929 . S
N212 C210 1.375 . S
N212 C211 1.347 . S
C213 C216 1.365 . S
C213 N218 1.328 . S
C213 H219 0.929 . S
C214 C215 1.362 . S
C214 C217 1.378 . S
C214 H229 0.929 . S
C215 C214 1.362 . S
C215 C216 1.366 . S
C216 C213 1.365 . S
C216 C215 1.366 . S
C216 H230 0.930 . S
C217 C214 1.378 . S
C217 N218 1.315 . S
C217 H220 0.930 . S
N218 Co198 2.194 . S
N218 C213 1.328 . S
N218 C217 1.315 . S
H219 C213 0.929 . S
H220 C217 0.930 . S
H221 C209 0.929 . S
H222 C211 0.929 . S
O223 Co198 2.351 . S
O223 C226 1.244 . S
O224 Co198 2.155 . S
O224 C226 1.240 . S
O225 Co198 2.096 . S
O225 C206 1.247 . S
C226 O223 1.244 . S
C226 O224 1.240 . S
H227 C201 0.931 . S
H228 C210 0.928 1_455 S
H229 C214 0.929 . S
H230 C216 0.930 . S
Co231 N235 2.148 . S
Co231 N241 2.128 . S
Co231 N251 2.194 . S
Co231 O256 2.351 . S
Co231 O257 2.155 . S
Co231 O258 2.096 . S
C232 N235 1.301 . S
C232 N236 1.307 1_655 S
C232 H237 0.930 . S
C233 C234 1.333 . S
C233 N235 1.317 . S
C233 H238 0.930 . S
C234 C233 1.333 . S
C234 N236 1.340 1_655 S
C234 H260 0.933 . S
N235 Co231 2.148 . S
N235 C232 1.301 . S
N235 C233 1.317 . S
N236 C232 1.307 1_455 S
N236 C234 1.340 1_455 S
H237 C232 0.930 . S
H238 C233 0.930 . S
C239 O240 1.224 . S
C239 O258 1.247 . S
O240 C239 1.224 . S
N241 Co231 2.128 . S
N241 C242 1.355 . S
N241 C244 1.311 . S
C242 N241 1.355 . S
C242 C243 1.363 . S
C242 H254 0.929 . S
C243 C242 1.363 . S
C243 N245 1.375 . S
C243 H261 0.931 . S
C244 N241 1.311 . S
C244 N245 1.347 . S
C244 H255 0.929 . S
N245 C243 1.375 . S
N245 C244 1.347 . S
C246 C249 1.365 . S
C246 N251 1.328 . S
C246 H252 0.929 . S
C247 C248 1.362 . S
C247 C250 1.378 . S
C247 H262 0.929 . S
C248 C247 1.362 . S
C248 C249 1.366 . S
C249 C246 1.365 . S
C249 C248 1.366 . S
C249 H263 0.930 . S
C250 C247 1.378 . S
C250 N251 1.315 . S
C250 H253 0.930 . S
N251 Co231 2.194 . S
N251 C246 1.328 . S
N251 C250 1.315 . S
H252 C246 0.929 . S
H253 C250 0.930 . S
H254 C242 0.929 . S
H255 C244 0.929 . S
O256 Co231 2.351 . S
O256 C259 1.244 . S
O257 Co231 2.155 . S
O257 C259 1.240 . S
O258 Co231 2.096 . S
O258 C239 1.247 . S
C259 O256 1.244 . S
C259 O257 1.240 . S
H260 C234 0.933 . S
H261 C243 0.931 . S
H262 C247 0.929 . S
H263 C249 0.930 . S
Co264 N268 2.148 . S
Co264 N274 2.128 . S
Co264 N284 2.194 . S
Co264 O289 2.351 . S
Co264 O290 2.155 . S
Co264 O291 2.096 . S
C265 N268 1.301 . S
C265 N269 1.328 . S
C265 H270 0.930 . S
C266 C267 1.333 . S
C266 N268 1.317 . S
C266 H271 0.930 . S
C267 C266 1.333 . S
C267 N269 1.350 . S
C267 H293 0.931 . S
N268 Co264 2.148 . S
N268 C265 1.301 . S
N268 C266 1.317 . S
N269 C265 1.328 . S
N269 C267 1.350 . S
H270 C265 0.930 . S
H271 C266 0.930 . S
C272 O273 1.224 . S
C272 O291 1.247 . S
O273 C272 1.224 . S
N274 Co264 2.128 . S
N274 C275 1.355 . S
N274 C277 1.311 . S
C275 N274 1.355 . S
C275 C276 1.363 . S
C275 H287 0.929 . S
C276 C275 1.363 . S
C276 N278 1.375 . S
C276 H294 0.931 . S
C277 N274 1.311 . S
C277 N278 1.347 . S
C277 H288 0.929 . S
N278 C276 1.375 . S
N278 C277 1.347 . S
C279 C282 1.365 . S
C279 N284 1.328 . S
C279 H285 0.929 . S
C280 C281 1.362 . S
C280 C283 1.378 . S
C280 H295 0.929 . S
C281 C280 1.362 . S
C281 C282 1.366 . S
C282 C279 1.365 . S
C282 C281 1.366 . S
C282 H296 0.930 . S
C283 C280 1.378 . S
C283 N284 1.315 . S
C283 H286 0.930 . S
N284 Co264 2.194 . S
N284 C279 1.328 . S
N284 C283 1.315 . S
H285 C279 0.929 . S
H286 C283 0.930 . S
H287 C275 0.929 . S
H288 C277 0.929 . S
O289 Co264 2.351 . S
O289 C292 1.244 . S
O290 Co264 2.155 . S
O290 C292 1.240 . S
O291 Co264 2.096 . S
O291 C272 1.247 . S
C292 O289 1.244 . S
C292 O290 1.240 . S
H293 C267 0.931 . S
H294 C276 0.931 . S
H295 C280 0.929 . S
H296 C282 0.930 . S
Co297 N301 2.148 . S
Co297 N307 2.128 . S
Co297 N317 2.194 . S
Co297 O322 2.351 . S
Co297 O323 2.155 . S
Co297 O324 2.096 . S
C298 N301 1.301 . S
C298 N302 1.328 . S
C298 H303 0.930 . S
C299 C300 1.333 . S
C299 N301 1.317 . S
C299 H304 0.930 . S
C300 C299 1.333 . S
C300 N302 1.350 . S
C300 H326 0.931 . S
N301 Co297 2.148 . S
N301 C298 1.301 . S
N301 C299 1.317 . S
N302 C298 1.328 . S
N302 C300 1.350 . S
H303 C298 0.930 . S
H304 C299 0.930 . S
C305 O306 1.224 . S
C305 O324 1.247 . S
O306 C305 1.224 . S
N307 Co297 2.128 . S
N307 C308 1.355 . S
N307 C310 1.311 . S
C308 N307 1.355 . S
C308 C309 1.363 . S
C308 H320 0.929 . S
C309 C308 1.363 . S
C309 N311 1.375 . S
C309 H327 0.931 . S
C310 N307 1.311 . S
C310 N311 1.347 . S
C310 H321 0.929 . S
N311 C309 1.375 . S
N311 C310 1.347 . S
C312 C315 1.365 . S
C312 N317 1.328 . S
C312 H318 0.929 . S
C313 C314 1.362 . S
C313 C316 1.378 . S
C313 H328 0.929 . S
C314 C313 1.362 . S
C314 C315 1.366 . S
C315 C312 1.365 . S
C315 C314 1.366 . S
C315 H329 0.930 . S
C316 C313 1.378 . S
C316 N317 1.315 . S
C316 H319 0.930 . S
N317 Co297 2.194 . S
N317 C312 1.328 . S
N317 C316 1.315 . S
H318 C312 0.929 . S
H319 C316 0.930 . S
H320 C308 0.929 . S
H321 C310 0.929 . S
O322 Co297 2.351 . S
O322 C325 1.244 . S
O323 Co297 2.155 . S
O323 C325 1.240 . S
O324 Co297 2.096 . S
O324 C305 1.247 . S
C325 O322 1.244 . S
C325 O323 1.240 . S
H326 C300 0.931 . S
H327 C309 0.931 . S
H328 C313 0.929 . S
H329 C315 0.930 . S
Co330 N334 2.148 . S
Co330 N340 2.128 . S
Co330 N350 2.194 . S
Co330 O355 2.351 . S
Co330 O356 2.155 . S
Co330 O357 2.096 . S
C331 N334 1.301 . S
C331 N335 1.328 . S
C331 H336 0.930 . S
C332 C333 1.333 . S
C332 N334 1.317 . S
C332 H337 0.930 . S
C333 C332 1.333 . S
C333 N335 1.350 . S
C333 H359 0.931 . S
N334 Co330 2.148 . S
N334 C331 1.301 . S
N334 C332 1.317 . S
N335 C331 1.328 . S
N335 C333 1.350 . S
H336 C331 0.930 . S
H337 C332 0.930 . S
C338 O339 1.224 . S
C338 O357 1.247 . S
O339 C338 1.224 . S
N340 Co330 2.128 . S
N340 C341 1.355 . S
N340 C343 1.311 . S
C341 N340 1.355 . S
C341 C342 1.363 . S
C341 H353 0.929 . S
C342 C341 1.363 . S
C342 N344 1.375 . S
C342 H360 0.931 . S
C343 N340 1.311 . S
C343 N344 1.347 . S
C343 H354 0.929 . S
N344 C342 1.375 . S
N344 C343 1.347 . S
C345 C348 1.365 . S
C345 N350 1.328 . S
C345 H351 0.929 . S
C346 C347 1.362 . S
C346 C349 1.378 . S
C346 H361 0.929 . S
C347 C346 1.362 . S
C347 C348 1.366 . S
C348 C345 1.365 . S
C348 C347 1.366 . S
C348 H362 0.930 . S
C349 C346 1.378 . S
C349 N350 1.315 . S
C349 H352 0.930 . S
N350 Co330 2.194 . S
N350 C345 1.328 . S
N350 C349 1.315 . S
H351 C345 0.929 . S
H352 C349 0.930 . S
H353 C341 0.929 . S
H354 C343 0.929 . S
O355 Co330 2.351 . S
O355 C358 1.244 . S
O356 Co330 2.155 . S
O356 C358 1.240 . S
O357 Co330 2.096 . S
O357 C338 1.247 . S
C358 O355 1.244 . S
C358 O356 1.240 . S
H359 C333 0.931 . S
H360 C342 0.931 . S
H361 C346 0.929 . S
H362 C348 0.930 . S
Co363 N367 2.148 . S
Co363 N373 2.128 . S
Co363 N383 2.194 . S
Co363 O388 2.351 . S
Co363 O389 2.155 . S
Co363 O390 2.096 . S
C364 N367 1.301 . S
C364 N368 1.328 . S
C364 H369 0.930 . S
C365 C366 1.333 . S
C365 N367 1.317 . S
C365 H370 0.930 . S
C366 C365 1.333 . S
C366 N368 1.350 . S
C366 H392 0.931 . S
N367 Co363 2.148 . S
N367 C364 1.301 . S
N367 C365 1.317 . S
N368 C364 1.328 . S
N368 C366 1.350 . S
H369 C364 0.930 . S
H370 C365 0.930 . S
C371 O372 1.224 . S
C371 O390 1.247 . S
O372 C371 1.224 . S
N373 Co363 2.128 . S
N373 C374 1.355 . S
N373 C376 1.311 . S
C374 N373 1.355 . S
C374 C375 1.363 . S
C374 H386 0.929 . S
C375 C374 1.363 . S
C375 N377 1.375 . S
C375 H393 0.931 . S
C376 N373 1.311 . S
C376 N377 1.347 . S
C376 H387 0.929 . S
N377 C375 1.375 . S
N377 C376 1.347 . S
C378 C381 1.365 . S
C378 N383 1.328 . S
C378 H384 0.929 . S
C379 C380 1.362 . S
C379 C382 1.378 . S
C379 H394 0.929 . S
C380 C379 1.362 . S
C380 C381 1.366 . S
C381 C378 1.365 . S
C381 C380 1.366 . S
C381 H395 0.930 . S
C382 C379 1.378 . S
C382 N383 1.315 . S
C382 H385 0.930 . S
N383 Co363 2.194 . S
N383 C378 1.328 . S
N383 C382 1.315 . S
H384 C378 0.929 . S
H385 C382 0.930 . S
H386 C374 0.929 . S
H387 C376 0.929 . S
O388 Co363 2.351 . S
O388 C391 1.244 . S
O389 Co363 2.155 . S
O389 C391 1.240 . S
O390 Co363 2.096 . S
O390 C371 1.247 . S
C391 O388 1.244 . S
C391 O389 1.240 . S
H392 C366 0.931 . S
H393 C375 0.931 . S
H394 C379 0.929 . S
H395 C381 0.930 . S
Co396 N400 2.148 . S
Co396 N406 2.128 . S
Co396 N416 2.194 . S
Co396 O421 2.351 . S
Co396 O422 2.155 . S
Co396 O423 2.096 . S
C397 N400 1.301 . S
C397 N401 1.328 . S
C397 H402 0.930 . S
C398 C399 1.333 . S
C398 N400 1.317 . S
C398 H403 0.930 . S
C399 C398 1.333 . S
C399 N401 1.350 . S
C399 H425 0.931 . S
N400 Co396 2.148 . S
N400 C397 1.301 . S
N400 C398 1.317 . S
N401 C397 1.328 . S
N401 C399 1.350 . S
H402 C397 0.930 . S
H403 C398 0.930 . S
C404 O405 1.224 . S
C404 O423 1.247 . S
O405 C404 1.224 . S
N406 Co396 2.128 . S
N406 C407 1.355 . S
N406 C409 1.311 . S
C407 N406 1.355 . S
C407 C408 1.363 . S
C407 H419 0.929 . S
C408 C407 1.363 . S
C408 N410 1.375 . S
C408 H426 0.931 . S
C409 N406 1.311 . S
C409 N410 1.347 . S
C409 H420 0.929 . S
N410 C408 1.375 . S
N410 C409 1.347 . S
C411 C414 1.365 . S
C411 N416 1.328 . S
C411 H417 0.929 . S
C412 C413 1.362 . S
C412 C415 1.378 . S
C412 H427 0.929 . S
C413 C412 1.362 . S
C413 C414 1.366 . S
C414 C411 1.365 . S
C414 C413 1.366 . S
C414 H428 0.930 . S
C415 C412 1.378 . S
C415 N416 1.315 . S
C415 H418 0.930 . S
N416 Co396 2.194 . S
N416 C411 1.328 . S
N416 C415 1.315 . S
H417 C411 0.929 . S
H418 C415 0.930 . S
H419 C407 0.929 . S
H420 C409 0.929 . S
O421 Co396 2.351 . S
O421 C424 1.244 . S
O422 Co396 2.155 . S
O422 C424 1.240 . S
O423 Co396 2.096 . S
O423 C404 1.247 . S
C424 O421 1.244 . S
C424 O422 1.240 . S
H425 C399 0.931 . S
H426 C408 0.931 . S
H427 C412 0.929 . S
H428 C414 0.930 . S
Co429 N433 2.148 . S
Co429 N439 2.128 . S
Co429 N449 2.194 . S
Co429 O454 2.351 . S
Co429 O455 2.155 . S
Co429 O456 2.096 . S
C430 N433 1.301 . S
C430 N434 1.328 . S
C430 H435 0.930 . S
C431 C432 1.333 . S
C431 N433 1.317 . S
C431 H436 0.930 . S
C432 C431 1.333 . S
C432 N434 1.350 . S
C432 H458 0.931 . S
N433 Co429 2.148 . S
N433 C430 1.301 . S
N433 C431 1.317 . S
N434 C430 1.328 . S
N434 C432 1.350 . S
H435 C430 0.930 . S
H436 C431 0.930 . S
C437 O438 1.224 . S
C437 O456 1.247 . S
O438 C437 1.224 . S
N439 Co429 2.128 . S
N439 C440 1.355 . S
N439 C442 1.311 . S
C440 N439 1.355 . S
C440 C441 1.363 . S
C440 H452 0.929 . S
C441 C440 1.363 . S
C441 N443 1.375 . S
C441 H459 0.931 . S
C442 N439 1.311 . S
C442 N443 1.347 . S
C442 H453 0.929 . S
N443 C441 1.375 . S
N443 C442 1.347 . S
C444 C447 1.365 . S
C444 N449 1.328 . S
C444 H450 0.929 . S
C445 C446 1.362 . S
C445 C448 1.378 . S
C445 H460 0.929 . S
C446 C445 1.362 . S
C446 C447 1.366 . S
C447 C444 1.365 . S
C447 C446 1.366 . S
C447 H461 0.930 . S
C448 C445 1.378 . S
C448 N449 1.315 . S
C448 H451 0.930 . S
N449 Co429 2.194 . S
N449 C444 1.328 . S
N449 C448 1.315 . S
H450 C444 0.929 . S
H451 C448 0.930 . S
H452 C440 0.929 . S
H453 C442 0.929 . S
O454 Co429 2.351 . S
O454 C457 1.244 . S
O455 Co429 2.155 . S
O455 C457 1.240 . S
O456 Co429 2.096 . S
O456 C437 1.247 . S
C457 O454 1.244 . S
C457 O455 1.240 . S
H458 C432 0.931 . S
H459 C441 0.931 . S
H460 C445 0.929 . S
H461 C447 0.930 . S
Co462 N466 2.148 . S
Co462 N472 2.128 . S
Co462 N482 2.194 . S
Co462 O487 2.351 . S
Co462 O488 2.155 . S
Co462 O489 2.096 . S
C463 N466 1.301 . S
C463 N467 1.328 . S
C463 H468 0.930 . S
C464 C465 1.333 . S
C464 N466 1.317 . S
C464 H469 0.930 . S
C465 C464 1.333 . S
C465 N467 1.350 . S
C465 H491 0.931 . S
N466 Co462 2.148 . S
N466 C463 1.301 . S
N466 C464 1.317 . S
N467 C463 1.328 . S
N467 C465 1.350 . S
H468 C463 0.930 . S
H469 C464 0.930 . S
C470 O471 1.224 . S
C470 O489 1.247 . S
O471 C470 1.224 . S
N472 Co462 2.128 . S
N472 C473 1.355 . S
N472 C475 1.311 . S
C473 N472 1.355 . S
C473 C474 1.363 . S
C473 H485 0.929 . S
C474 C473 1.363 . S
C474 N476 1.375 . S
C474 H492 0.931 . S
C475 N472 1.311 . S
C475 N476 1.347 . S
C475 H486 0.929 . S
N476 C474 1.375 . S
N476 C475 1.347 . S
C477 C480 1.365 . S
C477 N482 1.328 . S
C477 H483 0.929 . S
C478 C479 1.362 . S
C478 C481 1.378 . S
C478 H493 0.929 . S
C479 C478 1.362 . S
C479 C480 1.366 . S
C480 C477 1.365 . S
C480 C479 1.366 . S
C480 H494 0.930 . S
C481 C478 1.378 . S
C481 N482 1.315 . S
C481 H484 0.930 . S
N482 Co462 2.194 . S
N482 C477 1.328 . S
N482 C481 1.315 . S
H483 C477 0.929 . S
H484 C481 0.930 . S
H485 C473 0.929 . S
H486 C475 0.929 . S
O487 Co462 2.351 . S
O487 C490 1.244 . S
O488 Co462 2.155 . S
O488 C490 1.240 . S
O489 Co462 2.096 . S
O489 C470 1.247 . S
C490 O487 1.244 . S
C490 O488 1.240 . S
H491 C465 0.931 . S
H492 C474 0.931 . S
H493 C478 0.929 . S
H494 C480 0.930 . S
Co495 N499 2.148 . S
Co495 N505 2.128 . S
Co495 N515 2.194 . S
Co495 O520 2.351 . S
Co495 O521 2.155 . S
Co495 O522 2.096 . S
C496 N499 1.301 . S
C496 N500 1.328 . S
C496 H501 0.930 . S
C497 C498 1.333 . S
C497 N499 1.317 . S
C497 H502 0.930 . S
C498 C497 1.333 . S
C498 N500 1.350 . S
C498 H524 0.931 . S
N499 Co495 2.148 . S
N499 C496 1.301 . S
N499 C497 1.317 . S
N500 C496 1.328 . S
N500 C498 1.350 . S
H501 C496 0.930 . S
H502 C497 0.930 . S
C503 O504 1.224 . S
C503 O522 1.247 . S
O504 C503 1.224 . S
N505 Co495 2.128 . S
N505 C506 1.355 . S
N505 C508 1.311 . S
C506 N505 1.355 . S
C506 C507 1.363 . S
C506 H518 0.929 . S
C507 C506 1.363 . S
C507 N509 1.375 . S
C507 H525 0.931 . S
C508 N505 1.311 . S
C508 N509 1.347 . S
C508 H519 0.929 . S
N509 C507 1.375 . S
N509 C508 1.347 . S
C510 C513 1.365 . S
C510 N515 1.328 . S
C510 H516 0.929 . S
C511 C512 1.362 . S
C511 C514 1.378 . S
C511 H526 0.929 . S
C512 C511 1.362 . S
C512 C513 1.366 . S
C513 C510 1.365 . S
C513 C512 1.366 . S
C513 H527 0.930 . S
C514 C511 1.378 . S
C514 N515 1.315 . S
C514 H517 0.930 . S
N515 Co495 2.194 . S
N515 C510 1.328 . S
N515 C514 1.315 . S
H516 C510 0.929 . S
H517 C514 0.930 . S
H518 C506 0.929 . S
H519 C508 0.929 . S
O520 Co495 2.351 . S
O520 C523 1.244 . S
O521 Co495 2.155 . S
O521 C523 1.240 . S
O522 Co495 2.096 . S
O522 C503 1.247 . S
C523 O520 1.244 . S
C523 O521 1.240 . S
H524 C498 0.931 . S
H525 C507 0.931 . S
H526 C511 0.929 . S
H527 C513 0.930 . S
H528 C534 0.930 . S
H529 C538 0.930 . S
H530 C543 0.929 . S
H531 C541 0.929 . S
H532 C536 0.929 . S
H533 C542 0.929 . S
C534 H528 0.930 . S
C534 C535 1.367 . S
C534 C542 1.378 . S
C535 C534 1.367 . S
C535 C543 1.433 . S
C536 H532 0.929 . S
C536 C538 1.378 . S
C536 C540 1.350 . S
C537 C540 1.463 . S
C537 C542 1.350 . S
C537 N545 1.427 . S
C538 H529 0.930 . S
C538 C536 1.378 . S
C538 C539 1.367 . S
C539 C538 1.367 . S
C539 C541 1.433 . S
C540 C536 1.350 . S
C540 C537 1.463 . S
C540 N544 1.427 . S
C541 H531 0.929 . S
C541 C539 1.433 . S
C541 N544 1.384 . S
C542 H533 0.929 . S
C542 C534 1.378 . S
C542 C537 1.350 . S
C543 H530 0.929 . S
C543 C535 1.433 . S
C543 N545 1.384 . S
N544 C540 1.427 . S
N544 C541 1.384 . S
N545 C537 1.427 . S
N545 C543 1.384 . S
H546 C552 0.930 . S
H547 C556 0.930 . S
H548 C561 0.929 . S
H549 C559 0.929 . S
H550 C554 0.929 . S
H551 C560 0.929 . S
C552 H546 0.930 . S
C552 C553 1.367 . S
C552 C560 1.378 . S
C553 C552 1.367 . S
C553 C561 1.433 . S
C554 H550 0.929 . S
C554 C556 1.378 . S
C554 C558 1.350 . S
C555 C558 1.463 . S
C555 C560 1.350 . S
C555 N563 1.427 . S
C556 H547 0.930 . S
C556 C554 1.378 . S
C556 C557 1.367 . S
C557 C556 1.367 . S
C557 C559 1.433 . S
C558 C554 1.350 . S
C558 C555 1.463 . S
C558 N562 1.427 . S
C559 H549 0.929 . S
C559 C557 1.433 . S
C559 N562 1.384 . S
C560 H551 0.929 . S
C560 C552 1.378 . S
C560 C555 1.350 . S
C561 H548 0.929 . S
C561 C553 1.433 . S
C561 N563 1.384 . S
N562 C558 1.427 . S
N562 C559 1.384 . S
N563 C555 1.427 . S
N563 C561 1.384 . S
H564 C570 0.930 . S
H565 C574 0.930 . S
H566 C579 0.929 . S
H567 C577 0.929 . S
H568 C572 0.929 . S
H569 C578 0.929 . S
C570 H564 0.930 . S
C570 C571 1.367 . S
C570 C578 1.378 . S
C571 C570 1.367 . S
C571 C579 1.433 . S
C572 H568 0.929 . S
C572 C574 1.378 . S
C572 C576 1.350 . S
C573 C576 1.463 . S
C573 C578 1.350 . S
C573 N581 1.427 . S
C574 H565 0.930 . S
C574 C572 1.378 . S
C574 C575 1.367 . S
C575 C574 1.367 . S
C575 C577 1.433 . S
C576 C572 1.350 . S
C576 C573 1.463 . S
C576 N580 1.427 . S
C577 H567 0.929 . S
C577 C575 1.433 . S
C577 N580 1.384 . S
C578 H569 0.929 . S
C578 C570 1.378 . S
C578 C573 1.350 . S
C579 H566 0.929 . S
C579 C571 1.433 . S
C579 N581 1.384 . S
N580 C576 1.427 . S
N580 C577 1.384 . S
N581 C573 1.427 . S
N581 C579 1.384 . S
H582 C588 0.930 . S
H583 C592 0.930 . S
H584 C597 0.929 . S
H585 C595 0.929 . S
H586 C590 0.929 . S
H587 C596 0.929 . S
C588 H582 0.930 . S
C588 C589 1.367 . S
C588 C596 1.378 . S
C589 C588 1.367 . S
C589 C597 1.433 . S
C590 H586 0.929 . S
C590 C592 1.378 . S
C590 C594 1.350 . S
C591 C594 1.463 . S
C591 C596 1.350 . S
C591 N599 1.427 . S
C592 H583 0.930 . S
C592 C590 1.378 . S
C592 C593 1.367 . S
C593 C592 1.367 . S
C593 C595 1.433 . S
C594 C590 1.350 . S
C594 C591 1.463 . S
C594 N598 1.427 . S
C595 H585 0.929 . S
C595 C593 1.433 . S
C595 N598 1.384 . S
C596 H587 0.929 . S
C596 C588 1.378 . S
C596 C591 1.350 . S
C597 H584 0.929 . S
C597 C589 1.433 . S
C597 N599 1.384 . S
N598 C594 1.427 . S
N598 C595 1.384 . S
N599 C591 1.427 . S
N599 C597 1.384 . S
H600 C606 0.930 . S
H601 C610 0.930 . S
H602 C615 0.929 . S
H603 C613 0.929 . S
H604 C608 0.929 . S
H605 C614 0.929 . S
C606 H600 0.930 . S
C606 C607 1.367 . S
C606 C614 1.378 . S
C607 C606 1.367 . S
C607 C615 1.433 . S
C608 H604 0.929 . S
C608 C610 1.378 . S
C608 C612 1.350 . S
C609 C612 1.463 . S
C609 C614 1.350 . S
C609 N617 1.427 . S
C610 H601 0.930 . S
C610 C608 1.378 . S
C610 C611 1.367 . S
C611 C610 1.367 . S
C611 C613 1.433 . S
C612 C608 1.350 . S
C612 C609 1.463 . S
C612 N616 1.427 . S
C613 H603 0.929 . S
C613 C611 1.433 . S
C613 N616 1.384 . S
C614 H605 0.929 . S
C614 C606 1.378 . S
C614 C609 1.350 . S
C615 H602 0.929 . S
C615 C607 1.433 . S
C615 N617 1.384 . S
N616 C612 1.427 . S
N616 C613 1.384 . S
N617 C609 1.427 . S
N617 C615 1.384 . S
H618 C624 0.930 . S
H619 C628 0.930 . S
H620 C633 0.929 . S
H621 C631 0.929 . S
H622 C626 0.929 . S
H623 C632 0.929 . S
C624 H618 0.930 . S
C624 C625 1.367 . S
C624 C632 1.378 . S
C625 C624 1.367 . S
C625 C633 1.433 . S
C626 H622 0.929 . S
C626 C628 1.378 . S
C626 C630 1.350 . S
C627 C630 1.463 . S
C627 C632 1.350 . S
C627 N635 1.427 . S
C628 H619 0.930 . S
C628 C626 1.378 . S
C628 C629 1.367 . S
C629 C628 1.367 . S
C629 C631 1.433 . S
C630 C626 1.350 . S
C630 C627 1.463 . S
C630 N634 1.427 . S
C631 H621 0.929 . S
C631 C629 1.433 . S
C631 N634 1.384 . S
C632 H623 0.929 . S
C632 C624 1.378 . S
C632 C627 1.350 . S
C633 H620 0.929 . S
C633 C625 1.433 . S
C633 N635 1.384 . S
N634 C630 1.427 . S
N634 C631 1.384 . S
N635 C627 1.427 . S
N635 C633 1.384 . S
H636 C642 0.930 . S
H637 C646 0.930 . S
H638 C651 0.929 . S
H639 C649 0.929 . S
H640 C644 0.929 . S
H641 C650 0.929 . S
C642 H636 0.930 . S
C642 C643 1.367 . S
C642 C650 1.378 . S
C643 C642 1.367 . S
C643 C651 1.433 . S
C644 H640 0.929 . S
C644 C646 1.378 . S
C644 C648 1.350 . S
C645 C648 1.463 . S
C645 C650 1.350 . S
C645 N653 1.427 . S
C646 H637 0.930 . S
C646 C644 1.378 . S
C646 C647 1.367 . S
C647 C646 1.367 . S
C647 C649 1.433 . S
C648 C644 1.350 . S
C648 C645 1.463 . S
C648 N652 1.427 . S
C649 H639 0.929 . S
C649 C647 1.433 . S
C649 N652 1.384 . S
C650 H641 0.929 . S
C650 C642 1.378 . S
C650 C645 1.350 . S
C651 H638 0.929 . S
C651 C643 1.433 . S
C651 N653 1.384 . S
N652 C648 1.427 . S
N652 C649 1.384 . S
N653 C645 1.427 . S
N653 C651 1.384 . S
H654 C660 0.930 . S
H655 C664 0.930 . S
H656 C669 0.929 . S
H657 C667 0.929 . S
H658 C662 0.929 . S
H659 C668 0.929 . S
C660 H654 0.930 . S
C660 C661 1.367 . S
C660 C668 1.378 . S
C661 C660 1.367 . S
C661 C669 1.433 . S
C662 H658 0.929 . S
C662 C664 1.378 . S
C662 C666 1.350 . S
C663 C666 1.463 . S
C663 C668 1.350 . S
C663 N671 1.427 . S
C664 H655 0.930 . S
C664 C662 1.378 . S
C664 C665 1.367 . S
C665 C664 1.367 . S
C665 C667 1.433 . S
C666 C662 1.350 . S
C666 C663 1.463 . S
C666 N670 1.427 . S
C667 H657 0.929 . S
C667 C665 1.433 . S
C667 N670 1.384 . S
C668 H659 0.929 . S
C668 C660 1.378 . S
C668 C663 1.350 . S
C669 H656 0.929 . S
C669 C661 1.433 . S
C669 N671 1.384 . S
N670 C666 1.427 . S
N670 C667 1.384 . S
N671 C663 1.427 . S
N671 C669 1.384 . S
H672 C678 0.930 . S
H673 C682 0.930 . S
H674 C687 0.929 . S
H675 C685 0.929 . S
H676 C680 0.929 . S
H677 C686 0.929 . S
C678 H672 0.930 . S
C678 C679 1.367 . S
C678 C686 1.378 . S
C679 C678 1.367 . S
C679 C687 1.433 . S
C680 H676 0.929 . S
C680 C682 1.378 . S
C680 C684 1.350 . S
C681 C684 1.463 . S
C681 C686 1.350 . S
C681 N689 1.427 . S
C682 H673 0.930 . S
C682 C680 1.378 . S
C682 C683 1.367 . S
C683 C682 1.367 . S
C683 C685 1.433 . S
C684 C680 1.350 . S
C684 C681 1.463 . S
C684 N688 1.427 . S
C685 H675 0.929 . S
C685 C683 1.433 . S
C685 N688 1.384 . S
C686 H677 0.929 . S
C686 C678 1.378 . S
C686 C681 1.350 . S
C687 H674 0.929 . S
C687 C679 1.433 . S
C687 N689 1.384 . S
N688 C684 1.427 . S
N688 C685 1.384 . S
N689 C681 1.427 . S
N689 C687 1.384 . S
H690 C696 0.930 . S
H691 C700 0.930 . S
H692 C705 0.929 . S
H693 C703 0.929 . S
H694 C698 0.929 . S
H695 C704 0.929 . S
C696 H690 0.930 . S
C696 C697 1.367 . S
C696 C704 1.378 . S
C697 C696 1.367 . S
C697 C705 1.433 . S
C698 H694 0.929 . S
C698 C700 1.378 . S
C698 C702 1.350 . S
C699 C702 1.463 . S
C699 C704 1.350 . S
C699 N707 1.427 . S
C700 H691 0.930 . S
C700 C698 1.378 . S
C700 C701 1.367 . S
C701 C700 1.367 . S
C701 C703 1.433 . S
C702 C698 1.350 . S
C702 C699 1.463 . S
C702 N706 1.427 . S
C703 H693 0.929 . S
C703 C701 1.433 . S
C703 N706 1.384 . S
C704 H695 0.929 . S
C704 C696 1.378 . S
C704 C699 1.350 . S
C705 H692 0.929 . S
C705 C697 1.433 . S
C705 N707 1.384 . S
N706 C702 1.427 . S
N706 C703 1.384 . S
N707 C699 1.427 . S
N707 C705 1.384 . S
H708 C714 0.930 . S
H709 C718 0.930 . S
H710 C723 0.929 . S
H711 C721 0.929 . S
H712 C716 0.929 . S
H713 C722 0.929 . S
C714 H708 0.930 . S
C714 C715 1.367 . S
C714 C722 1.378 . S
C715 C714 1.367 . S
C715 C723 1.433 . S
C716 H712 0.929 . S
C716 C718 1.378 . S
C716 C720 1.350 . S
C717 C720 1.463 . S
C717 C722 1.350 . S
C717 N725 1.427 . S
C718 H709 0.930 . S
C718 C716 1.378 . S
C718 C719 1.367 . S
C719 C718 1.367 . S
C719 C721 1.433 . S
C720 C716 1.350 . S
C720 C717 1.463 . S
C720 N724 1.427 . S
C721 H711 0.929 . S
C721 C719 1.433 . S
C721 N724 1.384 . S
C722 H713 0.929 . S
C722 C714 1.378 . S
C722 C717 1.350 . S
C723 H710 0.929 . S
C723 C715 1.433 . S
C723 N725 1.384 . S
N724 C720 1.427 . S
N724 C721 1.384 . S
N725 C717 1.427 . S
N725 C723 1.384 . S
H726 C732 0.930 . S
H727 C736 0.930 . S
H728 C741 0.929 . S
H729 C739 0.929 . S
H730 C734 0.929 . S
H731 C740 0.929 . S
C732 H726 0.930 . S
C732 C733 1.367 . S
C732 C740 1.378 . S
C733 C732 1.367 . S
C733 C741 1.433 . S
C734 H730 0.929 . S
C734 C736 1.378 . S
C734 C738 1.350 . S
C735 C738 1.463 . S
C735 C740 1.350 . S
C735 N743 1.427 . S
C736 H727 0.930 . S
C736 C734 1.378 . S
C736 C737 1.367 . S
C737 C736 1.367 . S
C737 C739 1.433 . S
C738 C734 1.350 . S
C738 C735 1.463 . S
C738 N742 1.427 . S
C739 H729 0.929 . S
C739 C737 1.433 . S
C739 N742 1.384 . S
C740 H731 0.929 . S
C740 C732 1.378 . S
C740 C735 1.350 . S
C741 H728 0.929 . S
C741 C733 1.433 . S
C741 N743 1.384 . S
N742 C738 1.427 . S
N742 C739 1.384 . S
N743 C735 1.427 . S
N743 C741 1.384 . S
H744 C750 0.930 . S
H745 C754 0.930 . S
H746 C759 0.929 . S
H747 C757 0.929 . S
H748 C752 0.929 . S
H749 C758 0.929 . S
C750 H744 0.930 . S
C750 C751 1.367 . S
C750 C758 1.378 . S
C751 C750 1.367 . S
C751 C759 1.433 . S
C752 H748 0.929 . S
C752 C754 1.378 . S
C752 C756 1.350 . S
C753 C756 1.463 . S
C753 C758 1.350 . S
C753 N761 1.427 . S
C754 H745 0.930 . S
C754 C752 1.378 . S
C754 C755 1.367 . S
C755 C754 1.367 . S
C755 C757 1.433 . S
C756 C752 1.350 . S
C756 C753 1.463 . S
C756 N760 1.427 . S
C757 H747 0.929 . S
C757 C755 1.433 . S
C757 N760 1.384 . S
C758 H749 0.929 . S
C758 C750 1.378 . S
C758 C753 1.350 . S
C759 H746 0.929 . S
C759 C751 1.433 . S
C759 N761 1.384 . S
N760 C756 1.427 . S
N760 C757 1.384 . S
N761 C753 1.427 . S
N761 C759 1.384 . S
H762 C768 0.930 . S
H763 C772 0.930 . S
H764 C777 0.929 . S
H765 C775 0.929 . S
H766 C770 0.929 . S
H767 C776 0.929 . S
C768 H762 0.930 . S
C768 C769 1.367 . S
C768 C776 1.378 . S
C769 C768 1.367 . S
C769 C777 1.433 . S
C770 H766 0.929 . S
C770 C772 1.378 . S
C770 C774 1.350 . S
C771 C774 1.463 . S
C771 C776 1.350 . S
C771 N779 1.427 . S
C772 H763 0.930 . S
C772 C770 1.378 . S
C772 C773 1.367 . S
C773 C772 1.367 . S
C773 C775 1.433 . S
C774 C770 1.350 . S
C774 C771 1.463 . S
C774 N778 1.427 . S
C775 H765 0.929 . S
C775 C773 1.433 . S
C775 N778 1.384 . S
C776 H767 0.929 . S
C776 C768 1.378 . S
C776 C771 1.350 . S
C777 H764 0.929 . S
C777 C769 1.433 . S
C777 N779 1.384 . S
N778 C774 1.427 . S
N778 C775 1.384 . S
N779 C771 1.427 . S
N779 C777 1.384 . S
H780 C786 0.930 . S
H781 C790 0.930 . S
H782 C795 0.929 . S
H783 C793 0.929 . S
H784 C788 0.929 . S
H785 C794 0.929 . S
C786 H780 0.930 . S
C786 C787 1.367 . S
C786 C794 1.378 . S
C787 C786 1.367 . S
C787 C795 1.433 . S
C788 H784 0.929 . S
C788 C790 1.378 . S
C788 C792 1.350 . S
C789 C792 1.463 . S
C789 C794 1.350 . S
C789 N797 1.427 . S
C790 H781 0.930 . S
C790 C788 1.378 . S
C790 C791 1.367 . S
C791 C790 1.367 . S
C791 C793 1.433 . S
C792 C788 1.350 . S
C792 C789 1.463 . S
C792 N796 1.427 . S
C793 H783 0.929 . S
C793 C791 1.433 . S
C793 N796 1.384 . S
C794 H785 0.929 . S
C794 C786 1.378 . S
C794 C789 1.350 . S
C795 H782 0.929 . S
C795 C787 1.433 . S
C795 N797 1.384 . S
N796 C792 1.427 . S
N796 C793 1.384 . S
N797 C789 1.427 . S
N797 C795 1.384 . S
H798 C804 0.930 . S
H799 C808 0.930 . S
H800 C813 0.929 . S
H801 C811 0.929 . S
H802 C806 0.929 . S
H803 C812 0.929 . S
C804 H798 0.930 . S
C804 C805 1.367 . S
C804 C812 1.378 . S
C805 C804 1.367 . S
C805 C813 1.433 . S
C806 H802 0.929 . S
C806 C808 1.378 . S
C806 C810 1.350 . S
C807 C810 1.463 . S
C807 C812 1.350 . S
C807 N815 1.427 . S
C808 H799 0.930 . S
C808 C806 1.378 . S
C808 C809 1.367 . S
C809 C808 1.367 . S
C809 C811 1.433 . S
C810 C806 1.350 . S
C810 C807 1.463 . S
C810 N814 1.427 . S
C811 H801 0.929 . S
C811 C809 1.433 . S
C811 N814 1.384 . S
C812 H803 0.929 . S
C812 C804 1.378 . S
C812 C807 1.350 . S
C813 H800 0.929 . S
C813 C805 1.433 . S
C813 N815 1.384 . S
N814 C810 1.427 . S
N814 C811 1.384 . S
N815 C807 1.427 . S
N815 C813 1.384 . S
H816 C822 0.930 . S
H817 C826 0.930 . S
H818 C831 0.929 . S
H819 C829 0.929 . S
H820 C824 0.929 . S
H821 C830 0.929 . S
C822 H816 0.930 . S
C822 C823 1.367 . S
C822 C830 1.378 . S
C823 C822 1.367 . S
C823 C831 1.433 . S
C824 H820 0.929 . S
C824 C826 1.378 . S
C824 C828 1.350 . S
C825 C828 1.463 . S
C825 C830 1.350 . S
C825 N833 1.427 . S
C826 H817 0.930 . S
C826 C824 1.378 . S
C826 C827 1.367 . S
C827 C826 1.367 . S
C827 C829 1.433 . S
C828 C824 1.350 . S
C828 C825 1.463 . S
C828 N832 1.427 . S
C829 H819 0.929 . S
C829 C827 1.433 . S
C829 N832 1.384 . S
C830 H821 0.929 . S
C830 C822 1.378 . S
C830 C825 1.350 . S
C831 H818 0.929 . S
C831 C823 1.433 . S
C831 N833 1.384 . S
N832 C828 1.427 . S
N832 C829 1.384 . S
N833 C825 1.427 . S
N833 C831 1.384 . S
H834 C840 0.930 . S
H835 C844 0.930 . S
H836 C849 0.929 . S
H837 C847 0.929 . S
H838 C842 0.929 . S
H839 C848 0.929 . S
C840 H834 0.930 . S
C840 C841 1.367 . S
C840 C848 1.378 . S
C841 C840 1.367 . S
C841 C849 1.433 . S
C842 H838 0.929 . S
C842 C844 1.378 . S
C842 C846 1.350 . S
C843 C846 1.463 . S
C843 C848 1.350 . S
C843 N851 1.427 . S
C844 H835 0.930 . S
C844 C842 1.378 . S
C844 C845 1.367 . S
C845 C844 1.367 . S
C845 C847 1.433 . S
C846 C842 1.350 . S
C846 C843 1.463 . S
C846 N850 1.427 . S
C847 H837 0.929 . S
C847 C845 1.433 . S
C847 N850 1.384 . S
C848 H839 0.929 . S
C848 C840 1.378 . S
C848 C843 1.350 . S
C849 H836 0.929 . S
C849 C841 1.433 . S
C849 N851 1.384 . S
N850 C846 1.427 . S
N850 C847 1.384 . S
N851 C843 1.427 . S
N851 C849 1.384 . S
H852 C858 0.930 . S
H853 C862 0.930 . S
H854 C867 0.929 . S
H855 C865 0.929 . S
H856 C860 0.929 . S
H857 C866 0.929 . S
C858 H852 0.930 . S
C858 C859 1.367 . S
C858 C866 1.378 . S
C859 C858 1.367 . S
C859 C867 1.433 . S
C860 H856 0.929 . S
C860 C862 1.378 . S
C860 C864 1.350 . S
C861 C864 1.463 . S
C861 C866 1.350 . S
C861 N869 1.427 . S
C862 H853 0.930 . S
C862 C860 1.378 . S
C862 C863 1.367 . S
C863 C862 1.367 . S
C863 C865 1.433 . S
C864 C860 1.350 . S
C864 C861 1.463 . S
C864 N868 1.427 . S
C865 H855 0.929 . S
C865 C863 1.433 . S
C865 N868 1.384 . S
C866 H857 0.929 . S
C866 C858 1.378 . S
C866 C861 1.350 . S
C867 H854 0.929 . S
C867 C859 1.433 . S
C867 N869 1.384 . S
N868 C864 1.427 . S
N868 C865 1.384 . S
N869 C861 1.427 . S
N869 C867 1.384 . S
H870 C876 0.930 . S
H871 C880 0.930 . S
H872 C885 0.929 . S
H873 C883 0.929 . S
H874 C878 0.929 . S
H875 C884 0.929 . S
C876 H870 0.930 . S
C876 C877 1.367 . S
C876 C884 1.378 . S
C877 C876 1.367 . S
C877 C885 1.433 . S
C878 H874 0.929 . S
C878 C880 1.378 . S
C878 C882 1.350 . S
C879 C882 1.463 . S
C879 C884 1.350 . S
C879 N887 1.427 . S
C880 H871 0.930 . S
C880 C878 1.378 . S
C880 C881 1.367 . S
C881 C880 1.367 . S
C881 C883 1.433 . S
C882 C878 1.350 . S
C882 C879 1.463 . S
C882 N886 1.427 . S
C883 H873 0.929 . S
C883 C881 1.433 . S
C883 N886 1.384 . S
C884 H875 0.929 . S
C884 C876 1.378 . S
C884 C879 1.350 . S
C885 H872 0.929 . S
C885 C877 1.433 . S
C885 N887 1.384 . S
N886 C882 1.427 . S
N886 C883 1.384 . S
N887 C879 1.427 . S
N887 C885 1.384 . S
H888 C894 0.930 . S
H889 C898 0.930 . S
H890 C903 0.929 . S
H891 C901 0.929 . S
H892 C896 0.929 . S
H893 C902 0.929 . S
C894 H888 0.930 . S
C894 C895 1.367 . S
C894 C902 1.378 . S
C895 C894 1.367 . S
C895 C903 1.433 . S
C896 H892 0.929 . S
C896 C898 1.378 . S
C896 C900 1.350 . S
C897 C900 1.463 . S
C897 C902 1.350 . S
C897 N905 1.427 . S
C898 H889 0.930 . S
C898 C896 1.378 . S
C898 C899 1.367 . S
C899 C898 1.367 . S
C899 C901 1.433 . S
C900 C896 1.350 . S
C900 C897 1.463 . S
C900 N904 1.427 . S
C901 H891 0.929 . S
C901 C899 1.433 . S
C901 N904 1.384 . S
C902 H893 0.929 . S
C902 C894 1.378 . S
C902 C897 1.350 . S
C903 H890 0.929 . S
C903 C895 1.433 . S
C903 N905 1.384 . S
N904 C900 1.427 . S
N904 C901 1.384 . S
N905 C897 1.427 . S
N905 C903 1.384 . S
H906 C912 0.930 . S
H907 C916 0.930 . S
H908 C921 0.929 . S
H909 C919 0.929 . S
H910 C914 0.929 . S
H911 C920 0.929 . S
C912 H906 0.930 . S
C912 C913 1.367 . S
C912 C920 1.378 . S
C913 C912 1.367 . S
C913 C921 1.433 . S
C914 H910 0.929 . S
C914 C916 1.378 . S
C914 C918 1.350 . S
C915 C918 1.463 . S
C915 C920 1.350 . S
C915 N923 1.427 . S
C916 H907 0.930 . S
C916 C914 1.378 . S
C916 C917 1.367 . S
C917 C916 1.367 . S
C917 C919 1.433 . S
C918 C914 1.350 . S
C918 C915 1.463 . S
C918 N922 1.427 . S
C919 H909 0.929 . S
C919 C917 1.433 . S
C919 N922 1.384 . S
C920 H911 0.929 . S
C920 C912 1.378 . S
C920 C915 1.350 . S
C921 H908 0.929 . S
C921 C913 1.433 . S
C921 N923 1.384 . S
N922 C918 1.427 . S
N922 C919 1.384 . S
N923 C915 1.427 . S
N923 C921 1.384 . S
H924 C930 0.930 . S
H925 C934 0.930 . S
H926 C939 0.929 . S
H927 C937 0.929 . S
H928 C932 0.929 . S
H929 C938 0.929 . S
C930 H924 0.930 . S
C930 C931 1.367 . S
C930 C938 1.378 . S
C931 C930 1.367 . S
C931 C939 1.433 . S
C932 H928 0.929 . S
C932 C934 1.378 . S
C932 C936 1.350 . S
C933 C936 1.463 . S
C933 C938 1.350 . S
C933 N941 1.427 . S
C934 H925 0.930 . S
C934 C932 1.378 . S
C934 C935 1.367 . S
C935 C934 1.367 . S
C935 C937 1.433 . S
C936 C932 1.350 . S
C936 C933 1.463 . S
C936 N940 1.427 . S
C937 H927 0.929 . S
C937 C935 1.433 . S
C937 N940 1.384 . S
C938 H929 0.929 . S
C938 C930 1.378 . S
C938 C933 1.350 . S
C939 H926 0.929 . S
C939 C931 1.433 . S
C939 N941 1.384 . S
N940 C936 1.427 . S
N940 C937 1.384 . S
N941 C933 1.427 . S
N941 C939 1.384 . S
H942 C948 0.930 . S
H943 C952 0.930 . S
H944 C957 0.929 . S
H945 C955 0.929 . S
H946 C950 0.929 . S
H947 C956 0.929 . S
C948 H942 0.930 . S
C948 C949 1.367 . S
C948 C956 1.378 . S
C949 C948 1.367 . S
C949 C957 1.433 . S
C950 H946 0.929 . S
C950 C952 1.378 . S
C950 C954 1.350 . S
C951 C954 1.463 . S
C951 C956 1.350 . S
C951 N959 1.427 . S
C952 H943 0.930 . S
C952 C950 1.378 . S
C952 C953 1.367 . S
C953 C952 1.367 . S
C953 C955 1.433 . S
C954 C950 1.350 . S
C954 C951 1.463 . S
C954 N958 1.427 . S
C955 H945 0.929 . S
C955 C953 1.433 . S
C955 N958 1.384 . S
C956 H947 0.929 . S
C956 C948 1.378 . S
C956 C951 1.350 . S
C957 H944 0.929 . S
C957 C949 1.433 . S
C957 N959 1.384 . S
N958 C954 1.427 . S
N958 C955 1.384 . S
N959 C951 1.427 . S
N959 C957 1.384 . S
H960 C966 0.930 . S
H961 C970 0.930 . S
H962 C975 0.929 . S
H963 C973 0.929 . S
H964 C968 0.929 . S
H965 C974 0.929 . S
C966 H960 0.930 . S
C966 C967 1.367 . S
C966 C974 1.378 . S
C967 C966 1.367 . S
C967 C975 1.433 . S
C968 H964 0.929 . S
C968 C970 1.378 . S
C968 C972 1.350 . S
C969 C972 1.463 . S
C969 C974 1.350 . S
C969 N977 1.427 . S
C970 H961 0.930 . S
C970 C968 1.378 . S
C970 C971 1.367 . S
C971 C970 1.367 . S
C971 C973 1.433 . S
C972 C968 1.350 . S
C972 C969 1.463 . S
C972 N976 1.427 . S
C973 H963 0.929 . S
C973 C971 1.433 . S
C973 N976 1.384 . S
C974 H965 0.929 . S
C974 C966 1.378 . S
C974 C969 1.350 . S
C975 H962 0.929 . S
C975 C967 1.433 . S
C975 N977 1.384 . S
N976 C972 1.427 . S
N976 C973 1.384 . S
N977 C969 1.427 . S
N977 C975 1.384 . S
H978 C984 0.930 . S
H979 C988 0.930 . S
H980 C993 0.929 . S
H981 C991 0.929 . S
H982 C986 0.929 . S
H983 C992 0.929 . S
C984 H978 0.930 . S
C984 C985 1.367 . S
C984 C992 1.378 . S
C985 C984 1.367 . S
C985 C993 1.433 . S
C986 H982 0.929 . S
C986 C988 1.378 . S
C986 C990 1.350 . S
C987 C990 1.463 1_665 S
C987 C992 1.350 . S
C987 N995 1.427 . S
C988 H979 0.930 . S
C988 C986 1.378 . S
C988 C989 1.367 . S
C989 C988 1.367 . S
C989 C991 1.433 . S
C990 C986 1.350 . S
C990 C987 1.463 1_445 S
C990 N994 1.427 . S
C991 H981 0.929 . S
C991 C989 1.433 . S
C991 N994 1.384 . S
C992 H983 0.929 . S
C992 C984 1.378 . S
C992 C987 1.350 . S
C993 H980 0.929 . S
C993 C985 1.433 . S
C993 N995 1.384 . S
N994 C990 1.427 . S
N994 C991 1.384 . S
N995 C987 1.427 . S
N995 C993 1.384 . S
H996 C1002 0.930 . S
H997 C1006 0.930 . S
H998 C1011 0.929 . S
H999 C1009 0.929 . S
H1000 C1004 0.929 . S
H1001 C1010 0.929 . S
C1002 H996 0.930 . S
C1002 C1003 1.367 . S
C1002 C1010 1.378 . S
C1003 C1002 1.367 . S
C1003 C1011 1.433 . S
C1004 H1000 0.929 . S
C1004 C1006 1.378 . S
C1004 C1008 1.350 . S
C1005 C1008 1.463 1_565 S
C1005 C1010 1.350 . S
C1005 N1013 1.427 . S
C1006 H997 0.930 . S
C1006 C1004 1.378 . S
C1006 C1007 1.367 . S
C1007 C1006 1.367 . S
C1007 C1009 1.433 . S
C1008 C1004 1.350 . S
C1008 C1005 1.463 1_545 S
C1008 N1012 1.427 . S
C1009 H999 0.929 . S
C1009 C1007 1.433 . S
C1009 N1012 1.384 . S
C1010 H1001 0.929 . S
C1010 C1002 1.378 . S
C1010 C1005 1.350 . S
C1011 H998 0.929 . S
C1011 C1003 1.433 . S
C1011 N1013 1.384 . S
N1012 C1008 1.427 . S
N1012 C1009 1.384 . S
N1013 C1005 1.427 . S
N1013 C1011 1.384 . S
H1014 C1020 0.930 . S
H1015 C1024 0.930 . S
H1016 C1029 0.929 . S
H1017 C1027 0.929 . S
H1018 C1022 0.929 . S
H1019 C1028 0.929 . S
C1020 H1014 0.930 . S
C1020 C1021 1.367 . S
C1020 C1028 1.378 . S
C1021 C1020 1.367 . S
C1021 C1029 1.433 . S
C1022 H1018 0.929 . S
C1022 C1024 1.378 . S
C1022 C1026 1.350 . S
C1023 C1026 1.463 1_655 S
C1023 C1028 1.350 . S
C1023 N1031 1.427 . S
C1024 H1015 0.930 . S
C1024 C1022 1.378 . S
C1024 C1025 1.367 . S
C1025 C1024 1.367 . S
C1025 C1027 1.433 . S
C1026 C1022 1.350 . S
C1026 C1023 1.463 1_455 S
C1026 N1030 1.427 . S
C1027 H1017 0.929 . S
C1027 C1025 1.433 . S
C1027 N1030 1.384 . S
C1028 H1019 0.929 . S
C1028 C1020 1.378 . S
C1028 C1023 1.350 . S
C1029 H1016 0.929 . S
C1029 C1021 1.433 . S
C1029 N1031 1.384 . S
N1030 C1026 1.427 . S
N1030 C1027 1.384 . S
N1031 C1023 1.427 . S
N1031 C1029 1.384 . S
H1032 C1038 0.930 . S
H1033 C1042 0.930 . S
H1034 C1047 0.929 . S
H1035 C1045 0.929 . S
H1036 C1040 0.929 . S
H1037 C1046 0.929 . S
C1038 H1032 0.930 . S
C1038 C1039 1.367 . S
C1038 C1046 1.378 . S
C1039 C1038 1.367 . S
C1039 C1047 1.433 . S
C1040 H1036 0.929 . S
C1040 C1042 1.378 . S
C1040 C1044 1.350 . S
C1041 C1044 1.463 . S
C1041 C1046 1.350 . S
C1041 N1049 1.427 . S
C1042 H1033 0.930 . S
C1042 C1040 1.378 . S
C1042 C1043 1.367 . S
C1043 C1042 1.367 . S
C1043 C1045 1.433 . S
C1044 C1040 1.350 . S
C1044 C1041 1.463 . S
C1044 N1048 1.427 . S
C1045 H1035 0.929 . S
C1045 C1043 1.433 . S
C1045 N1048 1.384 . S
C1046 H1037 0.929 . S
C1046 C1038 1.378 . S
C1046 C1041 1.350 . S
C1047 H1034 0.929 . S
C1047 C1039 1.433 . S
C1047 N1049 1.384 . S
N1048 C1044 1.427 . S
N1048 C1045 1.384 . S
N1049 C1041 1.427 . S
N1049 C1047 1.384 . S
H1050 C1056 0.930 . S
H1051 C1060 0.930 . S
H1052 C1065 0.929 . S
H1053 C1063 0.929 . S
H1054 C1058 0.929 . S
H1055 C1064 0.929 . S
C1056 H1050 0.930 . S
C1056 C1057 1.367 . S
C1056 C1064 1.378 . S
C1057 C1056 1.367 . S
C1057 C1065 1.433 . S
C1058 H1054 0.929 . S
C1058 C1060 1.378 . S
C1058 C1062 1.350 . S
C1059 C1062 1.463 1_545 S
C1059 C1064 1.350 . S
C1059 N1067 1.427 1_545 S
C1060 H1051 0.930 . S
C1060 C1058 1.378 . S
C1060 C1061 1.367 . S
C1061 C1060 1.367 . S
C1061 C1063 1.433 . S
C1062 C1058 1.350 . S
C1062 C1059 1.463 1_565 S
C1062 N1066 1.427 1_565 S
C1063 H1053 0.929 . S
C1063 C1061 1.433 . S
C1063 N1066 1.384 1_565 S
C1064 H1055 0.929 . S
C1064 C1056 1.378 . S
C1064 C1059 1.350 . S
C1065 H1052 0.929 . S
C1065 C1057 1.433 . S
C1065 N1067 1.384 1_545 S
N1066 C1062 1.427 1_545 S
N1066 C1063 1.384 1_545 S
N1067 C1059 1.427 1_565 S
N1067 C1065 1.384 1_565 S
H1068 C1074 0.930 . S
H1069 C1078 0.930 . S
H1070 C1083 0.929 . S
H1071 C1081 0.929 . S
H1072 C1076 0.929 . S
H1073 C1082 0.929 . S
C1074 H1068 0.930 . S
C1074 C1075 1.367 . S
C1074 C1082 1.378 . S
C1075 C1074 1.367 . S
C1075 C1083 1.433 . S
C1076 H1072 0.929 . S
C1076 C1078 1.378 . S
C1076 C1080 1.350 . S
C1077 C1080 1.463 1_655 S
C1077 C1082 1.350 . S
C1077 N1085 1.427 . S
C1078 H1069 0.930 . S
C1078 C1076 1.378 . S
C1078 C1079 1.367 . S
C1079 C1078 1.367 . S
C1079 C1081 1.433 . S
C1080 C1076 1.350 . S
C1080 C1077 1.463 1_455 S
C1080 N1084 1.427 . S
C1081 H1071 0.929 . S
C1081 C1079 1.433 . S
C1081 N1084 1.384 . S
C1082 H1073 0.929 . S
C1082 C1074 1.378 . S
C1082 C1077 1.350 . S
C1083 H1070 0.929 . S
C1083 C1075 1.433 . S
C1083 N1085 1.384 . S
N1084 C1080 1.427 . S
N1084 C1081 1.384 . S
N1085 C1077 1.427 . S
N1085 C1083 1.384 . S
H1086 C1092 0.930 . S
H1087 C1096 0.930 . S
H1088 C1101 0.929 . S
H1089 C1099 0.929 . S
H1090 C1094 0.929 . S
H1091 C1100 0.929 . S
C1092 H1086 0.930 . S
C1092 C1093 1.367 . S
C1092 C1100 1.378 . S
C1093 C1092 1.367 . S
C1093 C1101 1.433 . S
C1094 H1090 0.929 . S
C1094 C1096 1.378 . S
C1094 C1098 1.350 . S
C1095 C1098 1.463 1_554 S
C1095 C1100 1.350 . S
C1095 N1103 1.427 1_554 S
C1096 H1087 0.930 . S
C1096 C1094 1.378 . S
C1096 C1097 1.367 . S
C1097 C1096 1.367 . S
C1097 C1099 1.433 . S
C1098 C1094 1.350 . S
C1098 C1095 1.463 1_556 S
C1098 N1102 1.427 1_556 S
C1099 H1089 0.929 . S
C1099 C1097 1.433 . S
C1099 N1102 1.384 1_556 S
C1100 H1091 0.929 . S
C1100 C1092 1.378 . S
C1100 C1095 1.350 . S
C1101 H1088 0.929 . S
C1101 C1093 1.433 . S
C1101 N1103 1.384 1_554 S
N1102 C1098 1.427 1_554 S
N1102 C1099 1.384 1_554 S
N1103 C1095 1.427 1_556 S
N1103 C1101 1.384 1_556 S
H1104 C1110 0.930 . S
H1105 C1114 0.930 . S
H1106 C1119 0.929 . S
H1107 C1117 0.929 . S
H1108 C1112 0.929 1_556 S
H1109 C1118 0.929 1_554 S
C1110 H1104 0.930 . S
C1110 C1111 1.367 . S
C1110 C1118 1.378 . S
C1111 C1110 1.367 . S
C1111 C1119 1.433 . S
C1112 H1108 0.929 1_554 S
C1112 C1114 1.378 . S
C1112 C1116 1.350 . S
C1113 C1116 1.463 1_456 S
C1113 C1118 1.350 . S
C1113 N1121 1.427 . S
C1114 H1105 0.930 . S
C1114 C1112 1.378 . S
C1114 C1115 1.367 . S
C1115 C1114 1.367 . S
C1115 C1117 1.433 . S
C1116 C1112 1.350 . S
C1116 C1113 1.463 1_654 S
C1116 N1120 1.427 . S
C1117 H1107 0.929 . S
C1117 C1115 1.433 . S
C1117 N1120 1.384 . S
C1118 H1109 0.929 1_556 S
C1118 C1110 1.378 . S
C1118 C1113 1.350 . S
C1119 H1106 0.929 . S
C1119 C1111 1.433 . S
C1119 N1121 1.384 . S
N1120 C1116 1.427 . S
N1120 C1117 1.384 . S
N1121 C1113 1.427 . S
N1121 C1119 1.384 . S
H1122 C1128 0.930 . S
H1123 C1132 0.930 . S
H1124 C1137 0.929 . S
H1125 C1135 0.929 . S
H1126 C1130 0.929 . S
H1127 C1136 0.929 . S
C1128 H1122 0.930 . S
C1128 C1129 1.367 . S
C1128 C1136 1.378 . S
C1129 C1128 1.367 . S
C1129 C1137 1.433 . S
C1130 H1126 0.929 . S
C1130 C1132 1.378 . S
C1130 C1134 1.350 . S
C1131 C1134 1.463 . S
C1131 C1136 1.350 . S
C1131 N1139 1.427 . S
C1132 H1123 0.930 . S
C1132 C1130 1.378 . S
C1132 C1133 1.367 . S
C1133 C1132 1.367 . S
C1133 C1135 1.433 . S
C1134 C1130 1.350 . S
C1134 C1131 1.463 . S
C1134 N1138 1.427 . S
C1135 H1125 0.929 . S
C1135 C1133 1.433 . S
C1135 N1138 1.384 . S
C1136 H1127 0.929 . S
C1136 C1128 1.378 . S
C1136 C1131 1.350 . S
C1137 H1124 0.929 . S
C1137 C1129 1.433 . S
C1137 N1139 1.384 . S
N1138 C1134 1.427 . S
N1138 C1135 1.384 . S
N1139 C1131 1.427 . S
N1139 C1137 1.384 . S
H1140 C1146 0.930 . S
H1141 C1150 0.930 . S
H1142 C1155 0.929 . S
H1143 C1153 0.929 . S
H1144 C1148 0.929 . S
H1145 C1154 0.929 . S
C1146 H1140 0.930 . S
C1146 C1147 1.367 . S
C1146 C1154 1.378 . S
C1147 C1146 1.367 . S
C1147 C1155 1.433 . S
C1148 H1144 0.929 . S
C1148 C1150 1.378 . S
C1148 C1152 1.350 . S
C1149 C1152 1.463 1_554 S
C1149 C1154 1.350 . S
C1149 N1157 1.427 . S
C1150 H1141 0.930 . S
C1150 C1148 1.378 . S
C1150 C1151 1.367 . S
C1151 C1150 1.367 . S
C1151 C1153 1.433 . S
C1152 C1148 1.350 . S
C1152 C1149 1.463 1_556 S
C1152 N1156 1.427 . S
C1153 H1143 0.929 . S
C1153 C1151 1.433 . S
C1153 N1156 1.384 . S
C1154 H1145 0.929 . S
C1154 C1146 1.378 . S
C1154 C1149 1.350 . S
C1155 H1142 0.929 . S
C1155 C1147 1.433 . S
C1155 N1157 1.384 . S
N1156 C1152 1.427 . S
N1156 C1153 1.384 . S
N1157 C1149 1.427 . S
N1157 C1155 1.384 . S
H1158 C1164 0.930 . S
H1159 C1168 0.930 . S
H1160 C1173 0.929 . S
H1161 C1171 0.929 . S
H1162 C1166 0.929 . S
H1163 C1172 0.929 . S
C1164 H1158 0.930 . S
C1164 C1165 1.367 . S
C1164 C1172 1.378 . S
C1165 C1164 1.367 . S
C1165 C1173 1.433 . S
C1166 H1162 0.929 . S
C1166 C1168 1.378 . S
C1166 C1170 1.350 . S
C1167 C1170 1.463 . S
C1167 C1172 1.350 . S
C1167 N1175 1.427 . S
C1168 H1159 0.930 . S
C1168 C1166 1.378 . S
C1168 C1169 1.367 . S
C1169 C1168 1.367 . S
C1169 C1171 1.433 . S
C1170 C1166 1.350 . S
C1170 C1167 1.463 . S
C1170 N1174 1.427 . S
C1171 H1161 0.929 . S
C1171 C1169 1.433 . S
C1171 N1174 1.384 . S
C1172 H1163 0.929 . S
C1172 C1164 1.378 . S
C1172 C1167 1.350 . S
C1173 H1160 0.929 . S
C1173 C1165 1.433 . S
C1173 N1175 1.384 . S
N1174 C1170 1.427 . S
N1174 C1171 1.384 . S
N1175 C1167 1.427 . S
N1175 C1173 1.384 . S
H1176 C1182 0.930 . S
H1177 C1186 0.930 . S
H1178 C1191 0.929 . S
H1179 C1189 0.929 . S
H1180 C1184 0.929 . S
H1181 C1190 0.929 . S
C1182 H1176 0.930 . S
C1182 C1183 1.367 . S
C1182 C1190 1.378 1_554 S
C1183 C1182 1.367 . S
C1183 C1191 1.433 . S
C1184 H1180 0.929 . S
C1184 C1186 1.378 1_554 S
C1184 C1188 1.350 1_554 S
C1185 C1188 1.463 1_564 S
C1185 C1190 1.350 1_554 S
C1185 N1193 1.427 . S
C1186 H1177 0.930 . S
C1186 C1184 1.378 1_556 S
C1186 C1187 1.367 . S
C1187 C1186 1.367 . S
C1187 C1189 1.433 . S
C1188 C1184 1.350 1_556 S
C1188 C1185 1.463 1_546 S
C1188 N1192 1.427 . S
C1189 H1179 0.929 . S
C1189 C1187 1.433 . S
C1189 N1192 1.384 . S
C1190 H1181 0.929 . S
C1190 C1182 1.378 1_556 S
C1190 C1185 1.350 1_556 S
C1191 H1178 0.929 . S
C1191 C1183 1.433 . S
C1191 N1193 1.384 . S
N1192 C1188 1.427 . S
N1192 C1189 1.384 . S
N1193 C1185 1.427 . S
N1193 C1191 1.384 . S
H1194 C1200 0.930 . S
H1195 C1204 0.930 . S
H1196 C1209 0.929 . S
H1197 C1207 0.929 . S
H1198 C1202 0.929 . S
H1199 C1208 0.929 . S
C1200 H1194 0.930 . S
C1200 C1201 1.367 . S
C1200 C1208 1.378 . S
C1201 C1200 1.367 . S
C1201 C1209 1.433 . S
C1202 H1198 0.929 . S
C1202 C1204 1.378 . S
C1202 C1206 1.350 . S
C1203 C1206 1.463 . S
C1203 C1208 1.350 . S
C1203 N1211 1.427 . S
C1204 H1195 0.930 . S
C1204 C1202 1.378 . S
C1204 C1205 1.367 . S
C1205 C1204 1.367 . S
C1205 C1207 1.433 . S
C1206 C1202 1.350 . S
C1206 C1203 1.463 . S
C1206 N1210 1.427 . S
C1207 H1197 0.929 . S
C1207 C1205 1.433 . S
C1207 N1210 1.384 . S
C1208 H1199 0.929 . S
C1208 C1200 1.378 . S
C1208 C1203 1.350 . S
C1209 H1196 0.929 . S
C1209 C1201 1.433 . S
C1209 N1211 1.384 . S
N1210 C1206 1.427 . S
N1210 C1207 1.384 . S
N1211 C1203 1.427 . S
N1211 C1209 1.384 . S
H1212 C1218 0.930 . S
H1213 C1222 0.930 . S
H1214 C1227 0.929 . S
H1215 C1225 0.929 . S
H1216 C1220 0.929 . S
H1217 C1226 0.929 . S
C1218 H1212 0.930 . S
C1218 C1219 1.367 . S
C1218 C1226 1.378 . S
C1219 C1218 1.367 . S
C1219 C1227 1.433 . S
C1220 H1216 0.929 . S
C1220 C1222 1.378 . S
C1220 C1224 1.350 . S
C1221 C1224 1.463 . S
C1221 C1226 1.350 . S
C1221 N1229 1.427 . S
C1222 H1213 0.930 . S
C1222 C1220 1.378 . S
C1222 C1223 1.367 . S
C1223 C1222 1.367 . S
C1223 C1225 1.433 . S
C1224 C1220 1.350 . S
C1224 C1221 1.463 . S
C1224 N1228 1.427 . S
C1225 H1215 0.929 . S
C1225 C1223 1.433 . S
C1225 N1228 1.384 . S
C1226 H1217 0.929 . S
C1226 C1218 1.378 . S
C1226 C1221 1.350 . S
C1227 H1214 0.929 . S
C1227 C1219 1.433 . S
C1227 N1229 1.384 . S
N1228 C1224 1.427 . S
N1228 C1225 1.384 . S
N1229 C1221 1.427 . S
N1229 C1227 1.384 . S
H1230 C1236 0.930 . S
H1231 C1240 0.930 . S
H1232 C1245 0.929 . S
H1233 C1243 0.929 . S
H1234 C1238 0.929 . S
H1235 C1244 0.929 . S
C1236 H1230 0.930 . S
C1236 C1237 1.367 . S
C1236 C1244 1.378 . S
C1237 C1236 1.367 . S
C1237 C1245 1.433 . S
C1238 H1234 0.929 . S
C1238 C1240 1.378 . S
C1238 C1242 1.350 . S
C1239 C1242 1.463 . S
C1239 C1244 1.350 . S
C1239 N1247 1.427 . S
C1240 H1231 0.930 . S
C1240 C1238 1.378 . S
C1240 C1241 1.367 . S
C1241 C1240 1.367 . S
C1241 C1243 1.433 . S
C1242 C1238 1.350 . S
C1242 C1239 1.463 . S
C1242 N1246 1.427 . S
C1243 H1233 0.929 . S
C1243 C1241 1.433 . S
C1243 N1246 1.384 . S
C1244 H1235 0.929 . S
C1244 C1236 1.378 . S
C1244 C1239 1.350 . S
C1245 H1232 0.929 . S
C1245 C1237 1.433 . S
C1245 N1247 1.384 . S
N1246 C1242 1.427 . S
N1246 C1243 1.384 . S
N1247 C1239 1.427 . S
N1247 C1245 1.384 . S
C535 N5 0.760 . S
C539 N302 0.762 . S
C553 N14 0.839 1_655 S
C557 N311 0.842 . S
C571 N278 0.855 . S
C575 N47 0.858 . S
C589 N38 0.787 . S
C593 N269 0.765 . S
C607 N71 0.766 . S
C611 N368 0.759 . S
C625 N80 0.839 1_455 S
C629 N377 0.844 . S
C643 N113 0.847 . S
C647 N344 0.855 . S
C661 N104 0.792 . S
C665 N335 0.761 . S
C679 N137 0.766 . S
C683 N434 0.757 . S
C697 N443 0.848 . S
C701 N146 0.841 1_655 S
C715 N410 0.840 . S
C719 N179 0.847 . S
C733 N401 0.760 . S
C737 N170 0.788 . S
C751 N500 0.764 . S
C755 N203 0.763 . S
C769 N509 0.842 . S
C773 N212 0.839 1_455 S
C787 N476 0.853 . S
C791 N245 0.845 . S
C805 N236 0.790 . S
C809 N467 0.762 . S
C823 C17 1.194 . S
C827 C50 1.194 1_554 S
C841 C116 1.194 1_556 S
C845 C83 1.194 . S
C859 C182 1.191 . S
C863 C149 1.191 . S
C877 C248 1.193 . S
C881 C215 1.193 . S
C895 C314 1.191 . S
C899 C281 1.192 . S
C913 C347 1.194 . S
C917 C380 1.194 . S
C931 C446 1.194 1_554 S
C935 C413 1.194 . S
C949 C479 1.194 . S
C953 C512 1.194 1_556 S
C967 C490 1.792 . S
C971 C28 1.792 . S
C985 C74 1.817 . S
C989 C8 1.817 . S
C1003 C371 1.813 . S
C1007 C41 1.813 . S
C1021 C259 1.799 . S
C1025 C61 1.799 . S
C1039 C94 1.799 . S
C1043 C424 1.799 . S
C1057 C305 1.812 . S
C1061 C107 1.812 . S
C1075 C127 1.800 . S
C1079 C193 1.800 . S
C1093 C358 1.796 . S
C1097 C160 1.796 . S
C1111 C140 1.814 . S
C1115 C206 1.814 . S
C1129 C173 1.812 . S
C1133 C503 1.812 . S
C1147 C226 1.800 . S
C1151 C292 1.800 . S
C1165 C239 1.813 . S
C1169 C437 1.813 . S
C1183 C338 1.817 . S
C1187 C272 1.817 . S
C1201 C523 1.800 . S
C1205 C325 1.800 . S
C1219 C391 1.791 . S
C1223 C457 1.791 . S
C1237 C404 1.815 . S
C1241 C470 1.815 . S
