# Generated by pormake.
# Topology wme, (6)-cn, num edge types: 1
# Building blocks:
#     Node 0, Type 0, BuildingBlock: KUMBOL_clean_sbu_1, # of connection points: 6
#     Node 1, Type 0, BuildingBlock: KUMBOL_clean_sbu_1, # of connection points: 6
#     Node 2, Type 0, BuildingBlock: KUMBOL_clean_sbu_1, # of connection points: 6
#     Node 3, Type 0, BuildingBlock: KUMBOL_clean_sbu_1, # of connection points: 6
#     Node 4, Type 0, BuildingBlock: KUMBOL_clean_sbu_1, # of connection points: 6
#     Node 5, Type 0, BuildingBlock: KUMBOL_clean_sbu_1, # of connection points: 6
#     Node 6, Type 0, BuildingBlock: KUMBOL_clean_sbu_1, # of connection points: 6
#     Node 7, Type 0, BuildingBlock: KUMBOL_clean_sbu_1, # of connection points: 6
#     Node 8, Type 0, BuildingBlock: KUMBOL_clean_sbu_1, # of connection points: 6
#     Node 9, Type 0, BuildingBlock: KUMBOL_clean_sbu_1, # of connection points: 6
#     Node 10, Type 0, BuildingBlock: KUMBOL_clean_sbu_1, # of connection points: 6
#     Node 11, Type 0, BuildingBlock: KUMBOL_clean_sbu_1, # of connection points: 6
#     Edge 12, Type (0, 0), BuildingBlock: KIFKEQ_clean_linker_1, # of connection points: 2
#     Edge 13, Type (0, 0), BuildingBlock: KIFKEQ_clean_linker_1, # of connection points: 2
#     Edge 14, Type (0, 0), BuildingBlock: KIFKEQ_clean_linker_1, # of connection points: 2
#     Edge 15, Type (0, 0), BuildingBlock: KIFKEQ_clean_linker_1, # of connection points: 2
#     Edge 16, Type (0, 0), BuildingBlock: KIFKEQ_clean_linker_1, # of connection points: 2
#     Edge 17, Type (0, 0), BuildingBlock: KIFKEQ_clean_linker_1, # of connection points: 2
#     Edge 18, Type (0, 0), BuildingBlock: KIFKEQ_clean_linker_1, # of connection points: 2
#     Edge 19, Type (0, 0), BuildingBlock: KIFKEQ_clean_linker_1, # of connection points: 2
#     Edge 20, Type (0, 0), BuildingBlock: KIFKEQ_clean_linker_1, # of connection points: 2
#     Edge 21, Type (0, 0), BuildingBlock: KIFKEQ_clean_linker_1, # of connection points: 2
#     Edge 22, Type (0, 0), BuildingBlock: KIFKEQ_clean_linker_1, # of connection points: 2
#     Edge 23, Type (0, 0), BuildingBlock: KIFKEQ_clean_linker_1, # of connection points: 2
#     Edge 24, Type (0, 0), BuildingBlock: KIFKEQ_clean_linker_1, # of connection points: 2
#     Edge 25, Type (0, 0), BuildingBlock: KIFKEQ_clean_linker_1, # of connection points: 2
#     Edge 26, Type (0, 0), BuildingBlock: KIFKEQ_clean_linker_1, # of connection points: 2
#     Edge 27, Type (0, 0), BuildingBlock: KIFKEQ_clean_linker_1, # of connection points: 2
#     Edge 28, Type (0, 0), BuildingBlock: KIFKEQ_clean_linker_1, # of connection points: 2
#     Edge 29, Type (0, 0), BuildingBlock: KIFKEQ_clean_linker_1, # of connection points: 2
#     Edge 30, Type (0, 0), BuildingBlock: KIFKEQ_clean_linker_1, # of connection points: 2
#     Edge 31, Type (0, 0), BuildingBlock: KIFKEQ_clean_linker_1, # of connection points: 2
#     Edge 32, Type (0, 0), BuildingBlock: KIFKEQ_clean_linker_1, # of connection points: 2
#     Edge 33, Type (0, 0), BuildingBlock: KIFKEQ_clean_linker_1, # of connection points: 2
#     Edge 34, Type (0, 0), BuildingBlock: KIFKEQ_clean_linker_1, # of connection points: 2
#     Edge 35, Type (0, 0), BuildingBlock: KIFKEQ_clean_linker_1, # of connection points: 2
#     Edge 36, Type (0, 0), BuildingBlock: KIFKEQ_clean_linker_1, # of connection points: 2
#     Edge 37, Type (0, 0), BuildingBlock: KIFKEQ_clean_linker_1, # of connection points: 2
#     Edge 38, Type (0, 0), BuildingBlock: KIFKEQ_clean_linker_1, # of connection points: 2
#     Edge 39, Type (0, 0), BuildingBlock: KIFKEQ_clean_linker_1, # of connection points: 2
#     Edge 40, Type (0, 0), BuildingBlock: KIFKEQ_clean_linker_1, # of connection points: 2
#     Edge 41, Type (0, 0), BuildingBlock: KIFKEQ_clean_linker_1, # of connection points: 2
#     Edge 42, Type (0, 0), BuildingBlock: KIFKEQ_clean_linker_1, # of connection points: 2
#     Edge 43, Type (0, 0), BuildingBlock: KIFKEQ_clean_linker_1, # of connection points: 2
#     Edge 44, Type (0, 0), BuildingBlock: KIFKEQ_clean_linker_1, # of connection points: 2
#     Edge 45, Type (0, 0), BuildingBlock: KIFKEQ_clean_linker_1, # of connection points: 2
#     Edge 46, Type (0, 0), BuildingBlock: KIFKEQ_clean_linker_1, # of connection points: 2
#     Edge 47, Type (0, 0), BuildingBlock: KIFKEQ_clean_linker_1, # of connection points: 2
# Relax obj value: 0.061
# Max RMSD: 0.170
# Mean RMSD: 0.170
data_MOF--net-wme--node1-KUMBOL_clean_sbu_1--edge1-KIFKEQ_clean_linker_1
_symmetry_space_group_name_H-M    P1
_symmetry_Int_Tables_number       1
_symmetry_cell_setting            triclinic
loop_
_symmetry_equiv_pos_as_xyz
'x, y, z'
_cell_length_a     39.622871
_cell_length_b     39.643749
_cell_length_c     54.609415
_cell_angle_alpha  89.984802
_cell_angle_beta   90.046364
_cell_angle_gamma 120.03474
loop_
_atom_site_label
_atom_site_type_symbol
_atom_site_fract_x
_atom_site_fract_y
_atom_site_fract_z
_atom_type_partial_charge
C0 C 0.1253 0.33121 0.0767 0.0
C1 C 0.07007 0.3065 0.10449 0.0
C2 C 0.11067 0.32584 0.10044 0.0
C3 C 0.04446 0.29256 0.08443 0.0
C4 C 0.0996 0.31713 0.05655 0.0
C5 C 0.05916 0.29779 0.06055 0.0
N6 N 0.16458 0.34966 0.07333 0.0
C7 C 0.18011 0.35593 0.05036 0.0
C8 C 0.11531 0.32283 0.03295 0.0
C9 C 0.15572 0.34242 0.02985 0.0
Gd10 Gd 0.24677 0.31067 0.13988 0.0
Gd11 Gd 0.20235 0.37169 0.10895 0.0
N12 N 0.13611 0.33842 0.1196 0.0
C13 C 0.05642 0.30134 0.12861 0.0
C14 C 0.12303 0.33491 0.14306 0.0
C15 C 0.08303 0.31586 0.14795 0.0
H16 H 0.14324 0.34696 0.15804 0.0
H17 H 0.07276 0.31255 0.16664 0.0
H18 H 0.31352 0.33512 0.09569 0.0
H19 H 0.2113 0.37193 0.04772 0.0
H20 H 0.38518 0.36748 0.09203 0.0
H21 H 0.02545 0.28639 0.13247 0.0
H22 H 1.01319 0.27753 0.0872 0.0
H23 H 0.22659 0.30011 0.2 0.0
H24 H 0.09652 0.31245 0.017 0.0
H25 H 0.16811 0.34735 0.01165 0.0
H26 H 0.43047 0.3952 0.17522 0.0
H27 H 0.03899 0.28675 0.04529 0.0
H28 H 0.33486 0.35445 0.23905 0.0
H29 H 0.26272 0.31973 0.23913 0.0
N30 N 0.27776 0.32561 0.17808 0.0
C31 C 0.31734 0.3439 0.1776 0.0
C32 C 0.25806 0.31626 0.19977 0.0
C33 C 0.31916 0.34642 0.22183 0.0
C34 C 0.27844 0.32687 0.22196 0.0
C35 C 0.33914 0.35486 0.19949 0.0
H36 H 0.39726 0.38234 0.21505 0.0
N37 N 0.3143 0.34097 0.1343 0.0
C38 C 0.33615 0.35132 0.1551 0.0
C39 C 0.39485 0.37593 0.13095 0.0
C40 C 0.3771 0.36965 0.15396 0.0
C41 C 0.33122 0.34543 0.11191 0.0
C42 C 0.37177 0.36343 0.10986 0.0
O43 O 0.16806 0.30522 0.10736 0.0
O44 O 0.18198 0.28694 0.14396 0.0
O45 O 0.23937 0.25987 0.12019 0.0
O46 O 0.24188 0.26091 0.1598 0.0
O47 O 0.22015 0.38259 0.14955 0.0
O48 O 0.20673 0.32223 0.16261 0.0
O49 O 0.28825 0.37706 0.13731 0.0
O50 O 0.26715 0.40098 0.10565 0.0
O51 O 0.19176 0.41536 0.12521 0.0
O52 O 0.20769 0.42017 0.08701 0.0
O53 O 0.23329 0.30485 0.09943 0.0
O54 O 0.24325 0.36276 0.08339 0.0
C55 C 0.15812 0.28023 0.12552 0.0
C56 C 0.21257 0.35715 0.16725 0.0
C57 C 0.26118 0.22076 0.13921 0.0
C58 C 0.2612 0.15925 0.13574 0.0
C59 C 0.32238 0.22088 0.13845 0.0
C60 C 0.30201 0.24113 0.13986 0.0
C61 C 0.30222 0.18027 0.13636 0.0
C62 C 0.2409 0.17992 0.13724 0.0
C63 C 0.239 0.24135 0.14 0.0
C64 C 0.39894 0.38093 0.17573 0.0
C65 C 0.38002 0.37361 0.19842 0.0
H66 H 0.42626 0.38992 0.12929 0.0
C67 C 0.29373 0.40464 0.12147 0.0
C68 C 0.24615 0.33095 0.08189 0.0
C69 C 0.22302 0.47838 0.10858 0.0
C70 C 0.2262 0.54081 0.11649 0.0
C71 C 0.28556 0.53669 0.11501 0.0
C72 C 0.26366 0.49672 0.11044 0.0
C73 C 0.26707 0.5586 0.11805 0.0
C74 C 0.20439 0.50046 0.11158 0.0
C75 C 0.19932 0.43588 0.10528 0.0
H76 H 0.35392 0.23671 0.13899 0.0
H77 H 0.31807 0.27255 0.14137 0.0
H78 H 0.31873 0.16527 0.13551 0.0
H79 H 0.20932 0.16434 0.13644 0.0
H80 H 0.31699 0.55071 0.11634 0.0
H81 H 0.27829 0.48003 0.10863 0.0
H82 H 0.28486 0.5896 0.12139 0.0
H83 H 0.17285 0.48598 0.11069 0.0
C84 C 0.81104 0.11575 0.58119 0.0
C85 C 0.78581 0.0641 0.61157 0.0
C86 C 0.80291 0.10395 0.60552 0.0
C87 C 0.77794 0.03659 0.59302 0.0
C88 C 0.80253 0.08808 0.56249 0.0
C89 C 0.78626 0.04854 0.56856 0.0
N90 N 0.82743 0.15427 0.57582 0.0
C91 C 0.83428 0.16693 0.55216 0.0
C92 C 0.81057 0.101 0.53819 0.0
C93 C 0.82622 0.14056 0.533 0.0
Gd94 Gd 0.94477 0.24452 0.64504 0.0
Gd95 Gd 0.84107 0.19622 0.60911 0.0
N96 N 0.81176 0.13138 0.62323 0.0
C97 C 0.77689 0.05302 0.63609 0.0
C98 C 0.80041 0.12027 0.64683 0.0
C99 C 0.78364 0.08117 0.65372 0.0
H100 H 0.80289 0.141 0.66031 0.0
H101 H 0.7754 0.07271 0.67259 0.0
H102 H 0.99069 0.32628 0.61155 0.0
H103 H 0.84556 0.19732 0.54799 0.0
H104 H 0.02517 0.39744 0.61834 0.0
H105 H 0.7639 0.02274 0.64149 0.0
H106 H 0.76517 1.00594 0.59739 0.0
H107 H 0.92973 0.20356 0.7003 0.0
H108 H 0.80439 0.08064 0.52331 0.0
H109 H 0.83194 0.15073 0.51425 0.0
H110 H 0.02335 0.4107 0.70573 0.0
H111 H 0.77977 0.02692 0.55445 0.0
H112 H 0.96684 0.29398 0.75413 0.0
H113 H 0.93707 0.22404 0.74373 0.0
N114 N 0.95358 0.26114 0.68656 0.0
C115 C 0.97099 0.29971 0.69181 0.0
C116 C 0.94221 0.23408 0.70477 0.0
C117 C 0.96339 0.28512 0.73509 0.0
C118 C 0.94655 0.2456 0.72931 0.0
C119 C 0.97635 0.31281 0.71626 0.0
H120 H 0.99912 0.36363 0.73975 0.0
N121 N 0.97915 0.31248 0.64935 0.0
C122 C 0.98454 0.32622 0.67265 0.0
C123 C 1.01833 0.39237 0.65756 0.0
C124 C 1.00394 0.36656 0.6774 0.0
C125 C 0.99426 0.33742 0.62996 0.0
C126 C 1.01374 0.37771 0.63376 0.0
O127 O 0.88113 0.17065 0.60544 0.0
O128 O 0.90424 0.17966 0.64427 0.0
O129 O 0.98375 0.23243 0.62368 0.0
O130 O 0.99329 0.2432 0.66264 0.0
O131 O 0.84324 0.2134 0.64961 0.0
O132 O 0.88946 0.19971 0.66239 0.0
O133 O 0.91686 0.28297 0.64227 0.0
O134 O 0.87455 0.2615 0.60887 0.0
O135 O 0.78073 0.17628 0.61845 0.0
O136 O 0.80413 0.20768 0.5848 0.0
O137 O 0.94893 0.25443 0.60435 0.0
O138 O 0.89089 0.23326 0.58244 0.0
C139 C 0.89448 0.15953 0.62388 0.0
C140 C 0.86227 0.20797 0.66753 0.0
C141 C 0.04825 0.2582 0.6382 0.0
C142 C 0.10982 0.25868 0.63246 0.0
C143 C 0.10819 0.31937 0.63209 0.0
C144 C 0.06799 0.29885 0.63599 0.0
C145 C 0.12901 0.29955 0.63034 0.0
C146 C 0.06917 0.23822 0.63645 0.0
C147 C 1.0059 0.23612 0.64236 0.0
C148 C 1.00869 0.37979 0.70171 0.0
C149 C 0.99488 0.35298 0.72109 0.0
H150 H 0.03342 0.4236 0.66043 0.0
C151 C 0.89529 0.28758 0.62557 0.0
C152 C 0.92958 0.2504 0.58388 0.0
C153 C 0.75458 0.21464 0.60505 0.0
C154 C 0.69469 0.21587 0.61502 0.0
C155 C 0.75798 0.2756 0.61592 0.0
C156 C 0.77646 0.25491 0.60918 0.0
C157 C 0.71753 0.25636 0.61884 0.0
C158 C 0.71366 0.19522 0.60792 0.0
C159 C 0.7743 0.19218 0.59957 0.0
H160 H 0.12335 0.3508 0.63049 0.0
H161 H 0.05236 0.31467 0.63736 0.0
H162 H 0.16025 0.31636 0.62768 0.0
H163 H 0.05366 0.20672 0.63788 0.0
H164 H 0.77513 0.30672 0.619 0.0
H165 H 0.80786 0.27026 0.60744 0.0
H166 H 0.70407 0.27335 0.62386 0.0
H167 H 0.69681 0.16396 0.60523 0.0
C168 C 0.70799 0.80622 0.08277 0.0
C169 C 0.7236 0.77263 0.11401 0.0
C170 C 0.70526 0.79375 0.10688 0.0
C171 C 0.74524 0.76496 0.0968 0.0
C172 C 0.72938 0.79826 0.06539 0.0
C173 C 0.74808 0.7777 0.07256 0.0
N174 N 0.69023 0.82675 0.07644 0.0
C175 C 0.69182 0.83932 0.05299 0.0
C176 C 0.73154 0.81147 0.04135 0.0
C177 C 0.71257 0.83196 0.03512 0.0
Gd178 Gd 0.7149 0.94106 0.14206 0.0
Gd179 Gd 0.65641 0.83784 0.10761 0.0
N180 N 0.68485 0.80242 0.12333 0.0
C181 C 0.71937 0.7595 0.13819 0.0
C182 C 0.67814 0.78697 0.14633 0.0
C183 C 0.69601 0.76617 0.1543 0.0
H184 H 0.65807 0.78931 0.15844 0.0
H185 H 0.69117 0.75468 0.17274 0.0
H186 H 0.69024 0.98444 0.09843 0.0
H187 H 0.67679 0.85471 0.04797 0.0
H188 H 0.65705 0.0229 0.09553 0.0
H189 H 0.73306 0.74325 0.1444 0.0
H190 H 0.75972 0.74899 0.10202 0.0
H191 H 0.72146 0.9261 0.20182 0.0
H192 H 0.74767 0.80591 0.02746 0.0
H193 H 0.71386 0.84204 0.01654 0.0
H194 H 0.62589 0.0349 0.17889 0.0
H195 H 0.7648 0.77147 0.05949 0.0
H196 H 0.66443 0.97639 0.24169 0.0
H197 H 0.6994 0.93927 0.24115 0.0
N198 N 0.69756 0.95385 0.18041 0.0
C199 C 0.67881 0.97466 0.18026 0.0
C200 C 0.70546 0.94156 0.20187 0.0
C201 C 0.67365 0.97031 0.22438 0.0
C202 C 0.69336 0.94932 0.22416 0.0
C203 C 0.66636 0.9835 0.20229 0.0
H204 H 0.63733 1.01221 0.21832 0.0
N205 N 0.68375 0.97755 0.137 0.0
C206 C 0.6721 0.98727 0.15797 0.0
C207 C 0.6474 0.02188 0.13443 0.0
C208 C 0.65312 1.00928 0.15721 0.0
C209 C 0.67941 0.99077 0.11484 0.0
C210 C 0.66085 0.01281 0.11318 0.0
O211 O 0.72273 0.87353 0.10611 0.0
O212 O 0.73812 0.89955 0.14437 0.0
O213 O 0.76832 0.9847 0.12467 0.0
O214 O 0.76245 0.98494 0.16405 0.0
O215 O 0.64314 0.84082 0.14843 0.0
O216 O 0.70299 0.8874 0.16244 0.0
O217 O 0.64825 0.91333 0.14 0.0
O218 O 0.62993 0.87609 0.10485 0.0
O219 O 0.60319 0.7849 0.11826 0.0
O220 O 0.6161 0.79862 0.08006 0.0
O221 O 0.7215 0.94111 0.10093 0.0
O222 O 0.66683 0.88916 0.08302 0.0
C223 C 0.74619 0.88525 0.12505 0.0
C224 C 0.66766 0.85876 0.16662 0.0
C225 C 0.80509 0.04508 0.14478 0.0
C226 C 0.86644 0.10699 0.14112 0.0
C227 C 0.80468 0.10599 0.14526 0.0
C228 C 0.78461 0.06534 0.14627 0.0
C229 C 0.84523 0.12671 0.14267 0.0
C230 C 0.84594 0.06594 0.14229 0.0
C231 C 0.78446 1.00223 0.14517 0.0
C232 C 0.64061 0.01808 0.17912 0.0
C233 C 0.64714 1.00516 0.20158 0.0
H234 H 0.63298 0.03891 0.13307 0.0
C235 C 0.62248 0.89334 0.12277 0.0
C236 C 0.69835 0.92436 0.08205 0.0
C237 C 0.58491 0.73159 0.09144 0.0
C238 C 0.54354 0.66095 0.0979 0.0
C239 C 0.60369 0.68668 0.07449 0.0
C240 C 0.61073 0.7245 0.07776 0.0
C241 C 0.57054 0.65519 0.08449 0.0
C242 C 0.55098 0.69952 0.10133 0.0
C243 C 0.59386 0.77225 0.0959 0.0
H244 H 0.78875 0.12152 0.14648 0.0
H245 H 0.75321 0.04978 0.14815 0.0
H246 H 0.86005 0.15824 0.14214 0.0
H247 H 0.86162 0.05013 0.14081 0.0
H248 H 0.62392 0.68171 0.06394 0.0
H249 H 0.63637 0.74813 0.06944 0.0
H250 H 0.56551 0.6261 0.08114 0.0
H251 H 0.53071 0.7046 0.11178 0.0
C252 C 0.90584 0.69345 0.57452 0.0
C253 C 0.96271 0.71968 0.60101 0.0
C254 C 0.92189 0.69978 0.59789 0.0
C255 C 0.98709 0.73336 0.58039 0.0
C256 C 0.93026 0.7072 0.55379 0.0
C257 C 0.97092 0.72719 0.55686 0.0
N258 N 0.86639 0.67436 0.57208 0.0
C259 C 0.84941 0.66725 0.5495 0.0
C260 C 0.91306 0.70051 0.53057 0.0
C261 C 0.87248 0.68037 0.52843 0.0
Gd262 Gd 0.78606 0.71249 0.64195 0.0
Gd263 Gd 0.83064 0.65348 0.60848 0.0
N264 N 0.89757 0.68741 0.61757 0.0
C265 C 0.97781 0.72559 0.62481 0.0
C266 C 0.9121 0.69157 0.64072 0.0
C267 C 0.95237 0.71119 0.64472 0.0
H268 H 0.89286 0.67964 0.65614 0.0
H269 H 0.96376 0.71503 0.66316 0.0
H270 H 0.71942 0.68736 0.59723 0.0
H271 H 0.81807 0.65098 0.54765 0.0
H272 H 0.64784 0.65159 0.59304 0.0
H273 H 1.00899 0.74097 0.62798 0.0
H274 H 0.01851 0.74886 0.58245 0.0
H275 H 0.80502 0.71772 0.70213 0.0
H276 H 0.93083 0.71062 0.51419 0.0
H277 H 0.85894 0.67477 0.51054 0.0
H278 H 0.60145 0.61645 0.67555 0.0
H279 H 0.99014 0.73801 0.54115 0.0
H280 H 0.69608 0.65589 0.73998 0.0
H281 H 0.76822 0.69311 0.74075 0.0
N282 N 0.7543 0.69285 0.67977 0.0
C283 C 0.71469 0.67313 0.67893 0.0
C284 C 0.77359 0.70063 0.70158 0.0
C285 C 0.71209 0.66622 0.72297 0.0
C286 C 0.75282 0.68716 0.72349 0.0
C287 C 0.69249 0.65917 0.70055 0.0
H288 H 0.63405 0.62768 0.71553 0.0
N289 N 0.71847 0.67955 0.6357 0.0
C290 C 0.69622 0.66669 0.65631 0.0
C291 C 0.63773 0.6405 0.63174 0.0
C292 C 0.6552 0.64628 0.65483 0.0
C293 C 0.70168 0.6753 0.61328 0.0
C294 C 0.66109 0.65535 0.61091 0.0
O295 O 0.86423 0.71974 0.60631 0.0
O296 O 0.85133 0.73745 0.64338 0.0
O297 O 0.78817 0.76348 0.62535 0.0
O298 O 0.78912 0.75893 0.66469 0.0
O299 O 0.81638 0.64325 0.64967 0.0
O300 O 0.82928 0.70339 0.66296 0.0
O301 O 0.74872 0.64553 0.64125 0.0
O302 O 0.76602 0.62697 0.60568 0.0
O303 O 0.84109 0.60934 0.62415 0.0
O304 O 0.82268 0.60404 0.58643 0.0
O305 O 0.79642 0.72045 0.60111 0.0
O306 O 0.78934 0.66371 0.58414 0.0
C307 C 0.87423 0.74486 0.62434 0.0
C308 C 0.82437 0.66875 0.66741 0.0
C309 C 0.82813 0.82121 0.64731 0.0
C310 C 0.85944 0.89135 0.63966 0.0
C311 C 0.89743 0.86303 0.65495 0.0
C312 C 0.8641 0.82629 0.65525 0.0
C313 C 0.89524 0.89532 0.6471 0.0
C314 C 0.82576 0.85399 0.63977 0.0
C315 C 0.79376 0.78158 0.64619 0.0
C316 C 0.63301 0.63228 0.67633 0.0
C317 C 0.65159 0.63867 0.69911 0.0
H318 H 0.60629 0.62497 0.62982 0.0
C319 C 0.74196 0.61972 0.6239 0.0
C320 C 0.78731 0.69605 0.58267 0.0
C321 C 0.80812 0.54595 0.60805 0.0
C322 C 0.80505 0.48363 0.61643 0.0
C323 C 0.74576 0.48796 0.6156 0.0
C324 C 0.76755 0.52776 0.61042 0.0
C325 C 0.76427 0.46605 0.61864 0.0
C326 C 0.82674 0.52381 0.61099 0.0
C327 C 0.83191 0.58839 0.60433 0.0
H328 H 0.92504 0.86652 0.66097 0.0
H329 H 0.86644 0.80183 0.66177 0.0
H330 H 0.92145 0.92368 0.64742 0.0
H331 H 0.79805 0.85042 0.63381 0.0
H332 H 0.71439 0.47407 0.61738 0.0
H333 H 0.75288 0.54442 0.60851 0.0
H334 H 0.74656 0.43519 0.62245 0.0
H335 H 0.85823 0.53815 0.60965 0.0
C336 C 0.22383 0.89968 0.07427 0.0
C337 C 0.25435 0.95699 0.10035 0.0
C338 C 0.23367 0.91614 0.09752 0.0
C339 C 0.2647 0.98099 0.07956 0.0
C340 C 0.23412 0.92371 0.05337 0.0
C341 C 0.25454 0.96441 0.05615 0.0
N342 N 0.20383 0.86021 0.07211 0.0
C343 C 0.1939 0.84285 0.04965 0.0
C344 C 0.22351 0.90611 0.03027 0.0
C345 C 0.20341 0.86551 0.02842 0.0
Gd346 Gd 0.08666 0.77984 0.14299 0.0
Gd347 Gd 0.18973 0.82514 0.10876 0.0
N348 N 0.22215 0.89218 0.11738 0.0
C349 C 0.26374 0.97251 0.12403 0.0
C350 C 0.2327 0.90713 0.14042 0.0
C351 C 0.25312 0.94745 0.14412 0.0
H352 H 0.22573 0.88821 0.15597 0.0
H353 H 0.26082 0.95918 0.16247 0.0
H354 H 0.0446 0.71347 0.09813 0.0
H355 H 0.17913 0.8115 0.04802 0.0
H356 H 1.00934 0.642 0.09372 0.0
H357 H 0.27939 1.00373 0.12698 0.0
H358 H 0.2805 0.01242 0.08138 0.0
H359 H 0.10175 0.79824 0.20315 0.0
H360 H 0.23087 0.92357 0.01377 0.0
H361 H 0.19543 0.85166 0.01062 0.0
H362 H 1.0004 0.59505 0.17588 0.0
H363 H 0.26266 0.98332 0.04029 0.0
H364 H 0.05643 0.6891 0.24051 0.0
H365 H 0.09082 0.76118 0.24154 0.0
N366 N 0.07579 0.74777 0.18062 0.0
C367 C 0.05612 0.70818 0.17965 0.0
C368 C 0.08769 0.76686 0.20247 0.0
C369 C 0.06157 0.70524 0.22359 0.0
C370 C 0.08107 0.74593 0.22426 0.0
C371 C 0.0486 0.68583 0.20114 0.0
H372 H 0.02249 0.62732 0.21589 0.0
N373 N 0.05239 0.71232 0.1365 0.0
C374 C 0.04367 0.68991 0.15701 0.0
C375 C 1.0113 0.63164 0.13229 0.0
C376 C 0.02338 0.64893 0.15539 0.0
C377 C 0.03948 0.69568 0.11408 0.0
C378 C 0.01913 0.65512 0.11159 0.0
O379 O 0.15623 0.85782 0.10653 0.0
O380 O 0.12634 0.84523 0.14383 0.0
O381 O 0.03697 0.7815 0.12729 0.0
O382 O 0.04367 0.78212 0.16653 0.0
O383 O 0.18659 0.81137 0.14996 0.0
O384 O 0.1392 0.82383 0.16354 0.0
O385 O 0.11715 0.7434 0.14217 0.0
O386 O 0.15208 0.76045 0.10624 0.0
O387 O 0.24512 0.83717 0.12399 0.0
O388 O 0.23098 0.81684 0.08667 0.0
O389 O 0.08758 0.78923 0.10209 0.0
O390 O 0.13794 0.78358 0.08472 0.0
C391 C 0.1411 0.86777 0.12457 0.0
C392 C 0.16937 0.81952 0.16779 0.0
C393 C 0.0193 0.82073 0.15009 0.0
C394 C 0.97969 0.85139 0.14339 0.0
C395 C 0.04625 0.88975 0.1583 0.0
C396 C 0.05014 0.85672 0.15806 0.0
C397 C 1.01139 0.88723 0.15091 0.0
C398 C 0.98382 0.81803 0.14301 0.0
C399 C 0.02495 0.78669 0.14842 0.0
C400 C 1.0159 0.62659 0.17677 0.0
C401 C 0.02849 0.64497 0.19957 0.0
H402 H 0.99562 0.60023 0.13028 0.0
C403 C 0.13567 0.73648 0.12456 0.0
C404 C 0.10347 0.78139 0.0834 0.0
C405 C 0.27566 0.80407 0.10846 0.0
C406 C 0.33556 0.80227 0.11695 0.0
C407 C 0.27222 0.74259 0.11761 0.0
C408 C 0.25368 0.76368 0.11187 0.0
C409 C 0.31278 0.76165 0.12021 0.0
C410 C 0.31655 0.82323 0.11092 0.0
C411 C 0.25648 0.82725 0.10431 0.0
H412 H 0.07031 0.91738 0.16434 0.0
H413 H 0.07727 0.85931 0.16417 0.0
H414 H 1.0089 0.91321 0.15157 0.0
H415 H 0.95979 0.79032 0.13696 0.0
H416 H 0.25506 0.71136 0.12021 0.0
H417 H 0.22226 0.74863 0.11038 0.0
H418 H 0.32636 0.74451 0.12452 0.0
H419 H 0.33341 0.8546 0.10877 0.0
C420 C 0.33598 0.225 0.57598 0.0
C421 C 0.31093 0.25546 0.60348 0.0
C422 C 0.33058 0.2345 0.59963 0.0
C423 C 0.29665 0.26653 0.58332 0.0
C424 C 0.32157 0.236 0.55572 0.0
C425 C 0.30188 0.25677 0.55953 0.0
N426 N 0.35474 0.20447 0.57282 0.0
C427 C 0.36092 0.19482 0.54995 0.0
C428 C 0.32728 0.22568 0.53221 0.0
C429 C 0.34713 0.2051 0.52932 0.0
Gd430 Gd 0.31617 0.08504 0.64074 0.0
Gd431 Gd 0.37684 0.18911 0.60855 0.0
N432 N 0.34357 0.22226 0.61888 0.0
C433 C 0.30589 0.26438 0.62752 0.0
C434 C 0.34032 0.23243 0.64225 0.0
C435 C 0.32096 0.2531 0.64696 0.0
H436 H 0.35293 0.22512 0.65729 0.0
H437 H 0.31788 0.26051 0.66558 0.0
H438 H 0.34113 0.0429 0.59658 0.0
H439 H 0.37699 0.17968 0.5475 0.0
H440 H 0.37444 1.0046 0.59308 0.0
H441 H 0.29073 0.28021 0.63124 0.0
H442 H 0.2814 0.28256 0.58595 0.0
H443 H 0.30756 0.09676 0.70077 0.0
H444 H 0.31663 0.23359 0.51618 0.0
H445 H 0.35199 0.19733 0.5112 0.0
H446 H 0.4041 0.98941 0.67626 0.0
H447 H 0.29057 0.26542 0.54418 0.0
H448 H 0.36391 0.04501 0.73991 0.0
H449 H 0.32868 0.08188 0.73991 0.0
N450 N 0.3325 0.0705 0.67894 0.0
C451 C 0.35124 0.04967 0.67849 0.0
C452 C 0.32381 0.08157 0.70059 0.0
C453 C 0.35516 0.05191 0.72268 0.0
C454 C 0.33532 0.07277 0.72277 0.0
C455 C 0.3631 0.03981 0.7004 0.0
H456 H 0.39173 1.01038 0.71601 0.0
N457 N 0.34733 0.04865 0.63518 0.0
C458 C 0.35844 0.03799 0.65602 0.0
C459 C 0.38354 1.00426 0.63198 0.0
C460 C 0.37739 0.01597 0.65494 0.0
C461 C 0.35187 0.03611 0.61285 0.0
C462 C 0.37042 0.01411 0.61087 0.0
O463 O 0.31048 0.15625 0.60604 0.0
O464 O 0.29201 0.1259 0.64314 0.0
O465 O 0.26443 0.04071 0.62222 0.0
O466 O 0.26755 0.04072 0.66179 0.0
O467 O 0.38743 0.18369 0.64946 0.0
O468 O 0.32673 0.13731 0.66228 0.0
O469 O 0.38302 0.11214 0.63956 0.0
O470 O 0.40424 0.15185 0.60545 0.0
O471 O 0.42132 0.24366 0.62412 0.0
O472 O 0.42562 0.23085 0.58618 0.0
O473 O 0.31001 0.08861 0.59984 0.0
O474 O 0.36725 0.13855 0.58357 0.0
C475 C 0.28522 0.14181 0.62406 0.0
C476 C 0.36177 0.16603 0.66709 0.0
C477 C 0.22676 0.98038 0.64214 0.0
C478 C 0.16569 0.91833 0.63847 0.0
C479 C 0.22763 0.9197 0.64247 0.0
C480 C 0.24748 0.96036 0.64357 0.0
C481 C 0.18706 0.89878 0.63988 0.0
C482 C 0.18596 0.95934 0.63969 0.0
C483 C 0.24702 0.02318 0.64244 0.0
C484 C 0.3894 1.00624 0.67672 0.0
C485 C 0.38234 0.01818 0.69937 0.0
H486 H 0.39795 0.98725 0.63037 0.0
C487 C 0.40969 0.13226 0.6228 0.0
C488 C 0.33506 0.10411 0.58177 0.0
C489 C 0.4843 0.2739 0.60741 0.0
C490 C 0.54705 0.33289 0.61539 0.0
C491 C 0.54237 0.26918 0.61359 0.0
C492 C 0.50238 0.25135 0.609 0.0
C493 C 0.56457 0.30957 0.61678 0.0
C494 C 0.50667 0.31457 0.61059 0.0
C495 C 0.4418 0.25553 0.60412 0.0
H496 H 0.24373 0.90433 0.6436 0.0
H497 H 0.27889 0.97608 0.64541 0.0
H498 H 0.17239 0.86726 0.63928 0.0
H499 H 0.17011 0.97499 0.63826 0.0
H500 H 0.5562 0.25159 0.61476 0.0
H501 H 0.48552 0.22003 0.60693 0.0
H502 H 0.59557 0.32257 0.62006 0.0
H503 H 0.49236 0.33177 0.60989 0.0
C504 C 0.6994 0.905 0.4367 0.0
C505 C 0.7251 0.95963 0.40841 0.0
C506 C 0.70516 0.91913 0.41281 0.0
C507 C 0.7392 0.98564 0.42825 0.0
C508 C 0.71377 0.9311 0.45663 0.0
C509 C 0.73367 0.97143 0.45227 0.0
N510 N 0.68025 0.86582 0.44045 0.0
C511 C 0.67362 0.85078 0.46356 0.0
C512 C 0.70771 0.91589 0.48039 0.0
C513 C 0.68746 0.87556 0.48386 0.0
Gd514 Gd 0.71716 0.78075 0.37515 0.0
Gd515 Gd 0.65757 0.82736 0.40517 0.0
N516 N 0.69221 0.89329 0.39388 0.0
C517 C 0.73059 0.9728 0.38416 0.0
C518 C 0.69606 0.90595 0.37028 0.0
C519 C 0.71577 0.94583 0.36504 0.0
H520 H 0.68369 0.88551 0.35546 0.0
H521 H 0.7193 0.95574 0.34625 0.0
H522 H 0.69163 0.71515 0.42023 0.0
H523 H 0.65707 0.81968 0.46648 0.0
H524 H 0.6585 0.64362 0.42472 0.0
H525 H 0.746 1.00368 0.38003 0.0
H526 H 0.75453 0.01683 0.42521 0.0
H527 H 0.72706 0.79918 0.31482 0.0
H528 H 0.71831 0.93499 0.49618 0.0
H529 H 0.68225 0.86356 0.50218 0.0
H530 H 0.6303 0.59609 0.34203 0.0
H531 H 0.74488 0.9919 0.46736 0.0
H532 H 0.67146 0.68985 0.27705 0.0
H533 H 0.70675 0.76196 0.27611 0.0
N534 N 0.70139 0.74869 0.33733 0.0
C535 C 0.68275 0.70913 0.33829 0.0
C536 C 0.71065 0.76775 0.31541 0.0
C537 C 0.67979 0.70604 0.29409 0.0
C538 C 0.69965 0.74674 0.29347 0.0
C539 C 0.6714 0.68671 0.31666 0.0
H540 H 0.64324 0.62816 0.30179 0.0
N541 N 0.68591 0.71338 0.38157 0.0
C542 C 0.67528 0.69096 0.36102 0.0
C543 C 0.65004 0.63292 0.38589 0.0
C544 C 0.65651 0.65003 0.36266 0.0
C545 C 0.68117 0.69704 0.40419 0.0
C546 C 0.66273 0.65656 0.40672 0.0
O547 O 0.72394 0.85969 0.40761 0.0
O548 O 0.74178 0.8456 0.37102 0.0
O549 O 0.76839 0.78881 0.39467 0.0
O550 O 0.76599 0.78352 0.35518 0.0
O551 O 0.64649 0.80889 0.36471 0.0
O552 O 0.7067 0.82129 0.35212 0.0
O553 O 0.6506 0.74033 0.37759 0.0
O554 O 0.62697 0.76257 0.40874 0.0
O555 O 0.61529 0.84011 0.38901 0.0
O556 O 0.60907 0.82245 0.42692 0.0
O557 O 0.72285 0.79307 0.41574 0.0
O558 O 0.6656 0.78652 0.43125 0.0
C559 C 0.74906 0.86931 0.38959 0.0
C560 C 0.67194 0.81571 0.34716 0.0
C561 C 0.8057 0.76428 0.37647 0.0
C562 C 0.86629 0.76255 0.38055 0.0
C563 C 0.80366 0.7023 0.37952 0.0
C564 C 0.78436 0.72348 0.37714 0.0
C565 C 0.84431 0.72161 0.38131 0.0
C566 C 0.84659 0.78368 0.37804 0.0
C567 C 0.78604 0.78733 0.37491 0.0
C568 C 0.6449 0.6276 0.34114 0.0
C569 C 0.65227 0.64588 0.31822 0.0
H570 H 0.6357 0.60155 0.38792 0.0
C571 C 0.62306 0.73556 0.39323 0.0
C572 C 0.69713 0.78321 0.4334 0.0
C573 C 0.55186 0.80957 0.4049 0.0
C574 C 0.49044 0.8085 0.39682 0.0
C575 C 0.49314 0.74838 0.39617 0.0
C576 C 0.53293 0.76914 0.40155 0.0
C577 C 0.47204 0.76782 0.39375 0.0
C578 C 0.53055 0.82914 0.40261 0.0
C579 C 0.59433 0.83222 0.40876 0.0
H580 H 0.78706 0.67078 0.38003 0.0
H581 H 0.7529 0.70806 0.37594 0.0
H582 H 0.8586 0.70449 0.383 0.0
H583 H 0.86299 0.81527 0.3778 0.0
H584 H 0.47866 0.71712 0.39368 0.0
H585 H 0.54905 0.75384 0.40276 0.0
H586 H 0.44118 0.75093 0.38967 0.0
H587 H 0.54546 0.86055 0.40466 0.0
C588 C 0.80391 0.69219 0.9399 0.0
C589 C 0.77324 0.71719 0.91247 0.0
C590 C 0.79454 0.69785 0.91626 0.0
C591 C 0.7617 0.73089 0.93269 0.0
C592 C 0.79245 0.70603 0.96021 0.0
C593 C 0.77133 0.72539 0.95647 0.0
N594 N 0.82476 0.67376 0.94299 0.0
C595 C 0.83433 0.66736 0.96585 0.0
C596 C 0.80268 0.70011 0.98371 0.0
C597 C 0.82362 0.6806 0.98653 0.0
Gd598 Gd 0.94547 0.71345 0.87551 0.0
Gd599 Gd 0.84073 0.65247 0.90718 0.0
N600 N 0.80728 0.68549 0.89697 0.0
C601 C 0.76456 0.72259 0.88844 0.0
C602 C 0.79742 0.68915 0.87359 0.0
C603 C 0.77645 0.70823 0.86894 0.0
H604 H 0.80526 0.67714 0.85848 0.0
H605 H 0.76927 0.71165 0.85032 0.0
H606 H 0.98605 0.68748 0.92022 0.0
H607 H 0.84972 0.65153 0.96824 0.0
H608 H 0.02385 0.65374 0.92422 0.0
H609 H 0.7485 0.73755 0.88476 0.0
H610 H 0.74545 0.74592 0.93011 0.0
H611 H 0.93489 0.72228 0.81535 0.0
H612 H 0.79443 0.71031 0.99979 0.0
H613 H 0.83132 0.67557 1.00464 0.0
H614 H 0.04105 0.6249 0.84128 0.0
H615 H 0.76233 0.73626 0.97187 0.0
H616 H 0.98729 0.66601 0.77693 0.0
H617 H 0.95054 0.70136 0.77643 0.0
N618 N 0.96069 0.69722 0.83753 0.0
C619 C 0.98136 0.67832 0.83825 0.0
C620 C 0.95006 0.70601 0.81574 0.0
C621 C 0.98006 0.67469 0.79405 0.0
C622 C 0.95927 0.6946 0.79369 0.0
C623 C 0.99163 0.66654 0.81649 0.0
H624 H 0.02119 0.63781 0.80127 0.0
N625 N 0.98128 0.68177 0.88157 0.0
C626 C 0.99237 0.67077 0.86088 0.0
C627 C 0.02519 0.6451 0.88534 0.0
C628 C 1.01418 0.65162 0.86224 0.0
C629 C 0.99313 0.67683 0.90405 0.0
C630 C 1.01488 0.65805 0.90631 0.0
O631 O 0.873 0.7188 0.90956 0.0
O632 O 0.90472 0.73766 0.87284 0.0
O633 O 0.99018 0.76479 0.89414 0.0
O634 O 0.98988 0.76219 0.85455 0.0
O635 O 0.84643 0.64266 0.86615 0.0
O636 O 0.89359 0.70329 0.85356 0.0
O637 O 0.91745 0.6466 0.87585 0.0
O638 O 0.87894 0.62612 0.91039 0.0
O639 O 0.7867 0.60761 0.89122 0.0
O640 O 0.79886 0.60335 0.92928 0.0
O641 O 0.9411 0.71969 0.91636 0.0
O642 O 0.89125 0.66214 0.9323 0.0
C643 C 0.88805 0.74415 0.89161 0.0
C644 C 0.86456 0.66843 0.84863 0.0
C645 C 0.05049 0.8023 0.87415 0.0
C646 C 0.11296 0.86298 0.8777 0.0
C647 C 0.11083 0.8007 0.87387 0.0
C648 C 0.07016 0.78122 0.87281 0.0
C649 C 0.13214 0.84124 0.87637 0.0
C650 C 0.07193 0.8431 0.87649 0.0
C651 C 1.00767 0.78239 0.87395 0.0
C652 C 0.02437 0.63975 0.84059 0.0
C653 C 1.01307 0.64712 0.81779 0.0
H654 H 0.04202 0.63052 0.88717 0.0
C655 C 0.8973 0.61999 0.8926 0.0
C656 C 0.92546 0.69455 0.93437 0.0
C657 C 0.75687 0.5446 0.90782 0.0
C658 C 0.69896 0.48149 0.89893 0.0
C659 C 0.76325 0.48758 0.90121 0.0
C660 C 0.78017 0.52732 0.90625 0.0
C661 C 0.72303 0.46482 0.89746 0.0
C662 C 0.71626 0.52156 0.90433 0.0
C663 C 0.77457 0.58701 0.91116 0.0
H664 H 0.12592 0.78431 0.87281 0.0
H665 H 0.05415 0.74983 0.87106 0.0
H666 H 0.16366 0.85562 0.87697 0.0
H667 H 0.05657 0.85924 0.87785 0.0
H668 H 0.78143 0.47441 0.9 0.0
H669 H 0.8114 0.54467 0.90864 0.0
H670 H 0.71068 0.43407 0.89358 0.0
H671 H 0.69833 0.53509 0.9051 0.0
C672 C 0.1211 0.80215 0.43267 0.0
C673 C 0.07209 0.76601 0.40173 0.0
C674 C 0.11151 0.78978 0.40852 0.0
C675 C 0.04266 0.75524 0.41936 0.0
C676 C 0.0916 0.79144 0.4504 0.0
C677 C 0.05237 0.76797 0.4436 0.0
N678 N 0.1593 0.8251 0.43873 0.0
C679 C 0.1701 0.83776 0.46219 0.0
C680 C 0.10243 0.80474 0.47445 0.0
C681 C 0.14185 0.82794 0.48036 0.0
Gd682 Gd 0.24612 0.94248 0.37405 0.0
Gd683 Gd 0.2044 0.83881 0.40727 0.0
N684 N 0.14064 0.80104 0.39173 0.0
C685 C 0.06337 0.75342 0.37744 0.0
C686 C 0.13229 0.78636 0.36851 0.0
C687 C 0.09364 0.76325 0.36085 0.0
H688 H 0.15505 0.79098 0.35598 0.0
H689 H 0.08727 0.75232 0.34227 0.0
H690 H 0.31407 0.98548 0.41785 0.0
H691 H 0.20053 0.85498 0.46704 0.0
H692 H 0.38572 0.02487 0.4208 0.0
H693 H 0.03346 0.73528 0.37148 0.0
H694 H 1.01227 0.73697 0.41442 0.0
H695 H 0.22459 0.92936 0.31423 0.0
H696 H 0.08063 0.79714 0.48859 0.0
H697 H 0.1505 0.83806 0.49896 0.0
H698 H 0.429 0.04018 0.33729 0.0
H699 H 0.02931 0.75949 0.45697 0.0
H700 H 0.33203 0.98242 0.27433 0.0
H701 H 0.2599 0.94431 0.27483 0.0
N702 N 0.27626 0.95704 0.33568 0.0
C703 C 0.31583 0.9784 0.33585 0.0
C704 C 0.25608 0.94522 0.31418 0.0
C705 C 0.31669 0.97555 0.29166 0.0
C706 C 0.27598 0.954 0.29186 0.0
C707 C 0.33715 0.98828 0.3138 0.0
H708 H 0.39493 0.01833 0.29778 0.0
N709 N 0.31377 0.97975 0.3792 0.0
C710 C 0.33514 0.99053 0.3582 0.0
C711 C 0.39442 0.0252 0.38182 0.0
C712 C 0.37613 0.0131 0.35899 0.0
C713 C 0.33127 0.99255 0.40142 0.0
C714 C 0.37186 0.01513 0.4031 0.0
O715 O 0.17135 0.87201 0.40933 0.0
O716 O 0.18141 0.89992 0.37158 0.0
O717 O 0.23545 0.98488 0.39224 0.0
O718 O 0.24205 0.98687 0.35287 0.0
O719 O 0.22079 0.84362 0.36636 0.0
O720 O 0.20533 0.88904 0.35309 0.0
O721 O 0.28648 0.91636 0.37536 0.0
O722 O 0.26883 0.87865 0.41022 0.0
O723 O 0.20567 0.78655 0.39616 0.0
O724 O 0.20859 0.80088 0.43442 0.0
O725 O 0.23852 0.94082 0.41511 0.0
O726 O 0.24423 0.8902 0.43219 0.0
C727 C 0.15883 0.88346 0.39063 0.0
C728 C 0.21297 0.86116 0.34849 0.0
C729 C 0.2597 0.04612 0.3734 0.0
C730 C 0.26084 0.10806 0.37818 0.0
C731 C 0.32146 0.10653 0.37607 0.0
C732 C 0.30056 0.06604 0.37359 0.0
C733 C 0.30183 0.12744 0.37846 0.0
C734 C 0.23995 0.06721 0.37552 0.0
C735 C 0.23715 1.00332 0.37211 0.0
C736 C 0.39746 0.02293 0.33705 0.0
C737 C 0.37805 1.01049 0.31454 0.0
H738 H 0.42587 0.04265 0.3832 0.0
C739 C 0.29324 0.89676 0.39233 0.0
C740 C 0.2465 0.92471 0.43362 0.0
C741 C 0.17322 0.73359 0.4237 0.0
C742 C 0.14408 0.66303 0.41704 0.0
C743 C 0.11248 0.68801 0.4438 0.0
C744 C 0.1423 0.72602 0.43957 0.0
C745 C 0.11325 0.65679 0.43266 0.0
C746 C 0.17414 0.70181 0.4126 0.0
C747 C 0.20399 0.77443 0.41851 0.0
H748 H 0.35301 0.12177 0.37622 0.0
H749 H 0.31625 0.05035 0.37199 0.0
H750 H 0.31873 0.15884 0.38026 0.0
H751 H 0.20835 0.05173 0.37565 0.0
H752 H 0.08883 0.68268 0.45604 0.0
H753 H 0.14115 0.74941 0.44892 0.0
H754 H 0.09011 0.62756 0.43687 0.0
H755 H 0.198 0.70727 0.40048 0.0
C756 C 0.33571 0.12135 0.93828 0.0
C757 C 0.31406 0.06687 0.91013 0.0
C758 C 0.33262 0.10736 0.91449 0.0
C759 C 0.29879 0.04079 0.92988 0.0
C760 C 0.32004 0.09515 0.95809 0.0
C761 C 0.30168 0.05487 0.95376 0.0
N762 N 0.35312 0.16048 0.94196 0.0
C763 C 0.35667 0.17539 0.96494 0.0
C764 C 0.32307 0.11022 0.98169 0.0
C765 C 0.34153 0.1505 0.98512 0.0
Gd766 Gd 0.31687 0.24249 0.87491 0.0
Gd767 Gd 0.37856 0.19925 0.90701 0.0
N768 N 0.34663 0.13324 0.89559 0.0
C769 C 0.311 0.05376 0.88601 0.0
C770 C 0.34532 0.12062 0.87219 0.0
C771 C 0.32695 0.08077 0.86699 0.0
H772 H 0.35896 0.14096 0.85748 0.0
H773 H 0.32547 0.07092 0.84833 0.0
H774 H 0.34116 0.30934 0.91922 0.0
H775 H 0.37178 0.20649 0.96788 0.0
H776 H 0.37268 0.38078 0.92283 0.0
H777 H 0.29669 0.0229 0.8819 0.0
H778 H 0.28448 1.00963 0.92686 0.0
H779 H 0.30799 0.22234 0.81489 0.0
H780 H 0.31138 0.09104 0.99737 0.0
H781 H 0.34433 0.16241 1.00332 0.0
H782 H 0.40091 0.42603 0.83971 0.0
H783 H 0.2895 0.03433 0.96876 0.0
H784 H 0.36167 0.33056 0.77587 0.0
H785 H 0.32781 0.25847 0.77577 0.0
N786 N 0.33234 0.27349 0.83679 0.0
C787 C 0.35051 0.31304 0.8373 0.0
C788 C 0.3237 0.2538 0.81511 0.0
C789 C 0.35355 0.31486 0.79308 0.0
C790 C 0.33447 0.27417 0.79294 0.0
C791 C 0.36153 0.33481 0.81542 0.0
H792 H 0.38868 0.39288 0.79988 0.0
N793 N 0.34752 0.31 0.88064 0.0
C794 C 0.35789 0.33182 0.85983 0.0
C795 C 0.38158 0.39046 0.88395 0.0
C796 C 0.37581 0.37273 0.86096 0.0
C797 C 0.35169 0.32692 0.90299 0.0
C798 C 0.36908 0.3674 0.90502 0.0
O799 O 0.31213 0.16604 0.90955 0.0
O800 O 0.29322 0.17761 0.87245 0.0
O801 O 0.2656 0.23557 0.89373 0.0
O802 O 0.2674 0.23668 0.85409 0.0
O803 O 0.38823 0.2135 0.86584 0.0
O804 O 0.32774 0.20096 0.85328 0.0
O805 O 0.38341 0.28165 0.87424 0.0
O806 O 0.40699 0.26426 0.90778 0.0
O807 O 0.42492 0.19041 0.8932 0.0
O808 O 0.42477 0.20484 0.93132 0.0
O809 O 0.31228 0.23273 0.9158 0.0
O810 O 0.37055 0.24189 0.93134 0.0
C811 C 0.28709 0.15473 0.89134 0.0
C812 C 0.36266 0.2069 0.84831 0.0
C813 C 0.22759 0.25754 0.87351 0.0
C814 C 0.16686 0.25914 0.87692 0.0
C815 C 0.22897 0.31933 0.87231 0.0
C816 C 0.24854 0.29824 0.87159 0.0
C817 C 0.18846 0.30002 0.875 0.0
C818 C 0.18684 0.23811 0.87609 0.0
C819 C 0.24755 0.23474 0.87357 0.0
C820 C 0.38698 0.39454 0.8392 0.0
C821 C 0.37997 0.37565 0.8165 0.0
H822 H 0.39512 0.42182 0.8856 0.0
C823 C 0.41172 0.28749 0.88945 0.0
C824 C 0.33831 0.24396 0.9334 0.0
C825 C 0.48579 0.22071 0.91329 0.0
C826 C 0.54833 0.22374 0.90597 0.0
C827 C 0.54608 0.28261 0.91565 0.0
C828 C 0.50548 0.26098 0.91747 0.0
C829 C 0.56738 0.26426 0.90986 0.0
C830 C 0.50731 0.20218 0.90771 0.0
C831 C 0.44287 0.19735 0.91414 0.0
H832 H 0.24527 0.35077 0.87079 0.0
H833 H 0.27989 0.31368 0.86962 0.0
H834 H 0.17398 0.31705 0.87529 0.0
H835 H 0.17082 0.20665 0.87792 0.0
H836 H 0.56114 0.31375 0.9188 0.0
H837 H 0.48948 0.27569 0.92199 0.0
H838 H 0.59886 0.28169 0.90893 0.0
H839 H 0.49204 0.17102 0.90446 0.0
C840 C 0.2255 0.32322 0.43004 0.0
C841 C 0.26138 0.31138 0.39846 0.0
C842 C 0.2381 0.32725 0.40589 0.0
C843 C 0.27122 0.29108 0.41543 0.0
C844 C 0.2354 0.3029 0.44714 0.0
C845 C 0.25825 0.28681 0.43968 0.0
N846 N 0.20314 0.33879 0.43676 0.0
C847 C 0.19025 0.33573 0.46025 0.0
C848 C 0.22188 0.29921 0.47122 0.0
C849 C 0.19927 0.31576 0.4778 0.0
Gd850 Gd 0.0875 0.31316 0.37186 0.0
Gd851 Gd 0.19083 0.37286 0.40639 0.0
N852 N 0.22786 0.34684 0.38975 0.0
C853 C 0.2746 0.31687 0.37427 0.0
C854 C 0.24355 0.35502 0.36679 0.0
C855 C 0.26612 0.33929 0.35848 0.0
H856 H 0.2403 0.3749 0.35503 0.0
H857 H 0.27776 0.34528 0.34007 0.0
H858 H 0.04234 0.33952 0.41305 0.0
H859 H 0.17344 0.34912 0.46559 0.0
H860 H 1.00191 0.37081 0.41341 0.0
H861 H 0.2924 0.30501 0.36784 0.0
H862 H 0.28905 0.27872 0.41 0.0
H863 H 0.10371 0.3027 0.31289 0.0
H864 H 0.22884 0.28379 0.48487 0.0
H865 H 0.18896 0.31333 0.49642 0.0
H866 H 0.99059 0.39541 0.32853 0.0
H867 H 0.26607 0.27103 0.45254 0.0
H868 H 0.05261 0.35523 0.26919 0.0
H869 H 0.09085 0.32157 0.2723 0.0
N870 N 0.07508 0.32751 0.33246 0.0
C871 C 0.05352 0.34541 0.33118 0.0
C872 C 0.08792 0.31832 0.31171 0.0
C873 C 0.05866 0.34752 0.28704 0.0
C874 C 0.08028 0.32855 0.28871 0.0
C875 C 0.04466 0.35586 0.3084 0.0
H876 H 1.015 0.3824 0.29032 0.0
N877 N 0.04966 0.34323 0.37445 0.0
C878 C 0.03992 0.35297 0.35275 0.0
C879 C 1.00338 0.37757 0.3742 0.0
C880 C 1.01688 0.37086 0.35207 0.0
C881 C 0.03563 0.34857 0.39602 0.0
C882 C 1.0126 0.36615 0.39625 0.0
O883 O 0.15516 0.30658 0.40842 0.0
O884 O 0.12984 0.29084 0.37005 0.0
O885 O 0.04568 0.25975 0.39015 0.0
O886 O 0.04322 0.26454 0.3508 0.0
O887 O 0.18725 0.38656 0.36575 0.0
O888 O 0.14203 0.32616 0.3522 0.0
O889 O 0.11273 0.37946 0.37463 0.0
O890 O 0.15299 0.39974 0.40859 0.0
O891 O 0.24404 0.42642 0.3966 0.0
O892 O 0.22867 0.41283 0.43455 0.0
O893 O 0.08613 0.30892 0.41313 0.0
O894 O 0.13968 0.36182 0.43138 0.0
C895 C 0.14422 0.28309 0.3895 0.0
C896 C 0.16953 0.36181 0.34767 0.0
C897 C 0.98433 0.22207 0.37124 0.0
C898 C 0.92277 0.16055 0.37532 0.0
C899 C 0.92316 0.22205 0.37195 0.0
C900 C 0.96378 0.24232 0.37038 0.0
C901 C 0.90275 0.18151 0.37444 0.0
C902 C 0.96378 0.18125 0.37362 0.0
C903 C 0.02716 0.24295 0.37002 0.0
C904 C 1.00814 0.38149 0.32942 0.0
C905 C 0.02206 0.3741 0.30765 0.0
H906 H 0.9856 0.39127 0.37445 0.0
C907 C 0.13406 0.4061 0.39118 0.0
C908 C 0.10343 0.33177 0.43207 0.0
C909 C 0.29626 0.4447 0.42439 0.0
C910 C 0.36703 0.48608 0.41843 0.0
C911 C 0.34104 0.42718 0.44314 0.0
C912 C 0.3032 0.41976 0.43914 0.0
C913 C 0.37267 0.45991 0.43287 0.0
C914 C 0.32846 0.47819 0.41423 0.0
C915 C 0.25567 0.43542 0.41915 0.0
H916 H 0.90742 0.23781 0.37122 0.0
H917 H 0.97907 0.27368 0.3685 0.0
H918 H 0.87123 0.16652 0.37538 0.0
H919 H 0.97981 0.16573 0.37456 0.0
H920 H 0.3459 0.40762 0.45449 0.0
H921 H 0.27945 0.39452 0.44774 0.0
H922 H 0.40176 0.46531 0.43682 0.0
H923 H 0.32348 0.4978 0.40297 0.0
C924 C 0.90774 0.22566 0.94037 0.0
C925 C 0.96372 0.25629 0.91321 0.0
C926 C 0.92301 0.23507 0.91681 0.0
C927 C 0.98878 0.26768 0.93354 0.0
C928 C 0.93285 0.237 0.96081 0.0
C929 C 0.9734 0.25802 0.95726 0.0
N930 N 0.86838 0.20492 0.94328 0.0
C931 C 0.85218 0.19533 0.96607 0.0
C932 C 0.91645 0.22676 0.98424 0.0
C933 C 0.87595 0.20593 0.98686 0.0
Gd934 Gd 0.78767 0.08474 0.87517 0.0
Gd935 Gd 0.83145 0.18912 0.90729 0.0
N936 N 0.89807 0.22246 0.8974 0.0
C937 C 0.97805 0.26503 0.88924 0.0
C938 C 0.91184 0.23239 0.87408 0.0
C939 C 0.95197 0.25328 0.86962 0.0
H940 H 0.89212 0.2246 0.85888 0.0
H941 H 0.96276 0.2605 0.85105 0.0
H942 H 0.72111 0.04407 0.91985 0.0
H943 H 0.8209 0.18001 0.96831 0.0
H944 H 0.64952 1.00615 0.9238 0.0
H945 H 1.00912 0.28103 0.88571 0.0
H946 H 0.02012 0.28385 0.93112 0.0
H947 H 0.80705 0.09544 0.81505 0.0
H948 H 0.93477 0.23493 1.0004 0.0
H949 H 0.86302 0.19822 1.00491 0.0
H950 H 0.60339 0.98886 0.84084 0.0
H951 H 0.99313 0.26692 0.97275 0.0
H952 H 0.69827 0.04279 0.77655 0.0
H953 H 0.77043 0.0797 0.7761 0.0
N954 N 0.75616 0.06956 0.83719 0.0
C955 C 0.71657 0.04882 0.83789 0.0
C956 C 0.77558 0.08024 0.81541 0.0
C957 C 0.7142 0.05007 0.79368 0.0
C958 C 0.75493 0.07096 0.79335 0.0
C959 C 0.69449 0.03849 0.81611 0.0
H960 H 0.63614 1.00876 0.80085 0.0
N961 N 0.72014 0.04887 0.88121 0.0
C962 C 0.69802 0.03778 0.8605 0.0
C963 C 0.6395 1.00481 0.88493 0.0
C964 C 0.65703 0.01588 0.86184 0.0
C965 C 0.70336 0.03697 0.90367 0.0
C966 C 0.66279 0.01516 0.90591 0.0
O967 O 0.86552 0.15688 0.90948 0.0
O968 O 0.85261 0.12552 0.87262 0.0
O969 O 0.79427 0.03996 0.89369 0.0
O970 O 0.79222 0.04061 0.85408 0.0
O971 O 0.81605 0.18383 0.86627 0.0
O972 O 0.82941 0.13676 0.85335 0.0
O973 O 0.74894 0.11279 0.87561 0.0
O974 O 0.76686 0.15084 0.91037 0.0
O975 O 0.84065 0.24306 0.89126 0.0
O976 O 0.82429 0.23105 0.92935 0.0
O977 O 0.79831 0.0888 0.91602 0.0
O978 O 0.79055 0.13842 0.93224 0.0
C979 C 0.87571 0.14181 0.8915 0.0
C980 C 0.82383 0.166 0.84864 0.0
C981 C 0.77173 0.9799 0.87344 0.0
C982 C 0.77016 0.91758 0.87685 0.0
C983 C 0.7099 0.91945 0.87248 0.0
C984 C 0.73098 0.96011 0.87169 0.0
C985 C 0.72924 0.89827 0.87509 0.0
C986 C 0.79119 0.95861 0.87594 0.0
C987 C 0.79455 0.0227 0.87344 0.0
C988 C 0.63494 1.00562 0.84017 0.0
C989 C 0.6536 0.01695 0.81739 0.0
H990 H 0.60807 0.98792 0.88673 0.0
C991 C 0.74245 0.13272 0.89248 0.0
C992 C 0.78884 0.10425 0.93414 0.0
C993 C 0.80848 0.27389 0.90804 0.0
C994 C 0.80511 0.33314 0.9003 0.0
C995 C 0.7458 0.26954 0.90212 0.0
C996 C 0.76778 0.2515 0.90655 0.0
C997 C 0.76421 0.30996 0.89898 0.0
C998 C 0.827 0.31461 0.90494 0.0
C999 C 0.83246 0.25535 0.91124 0.0
H1000 H 0.67842 0.90426 0.8711 0.0
H1001 H 0.71553 0.97603 0.86982 0.0
H1002 H 0.71218 0.86676 0.87545 0.0
H1003 H 0.82268 0.97409 0.87763 0.0
H1004 H 0.71435 0.2521 0.90105 0.0
H1005 H 0.75312 0.22015 0.90861 0.0
H1006 H 0.74632 0.3231 0.89583 0.0
H1007 H 0.85855 0.33169 0.9056 0.0
H1008 H 0.15613 0.91784 0.08648 0.0
H1009 H 0.14848 0.91111 0.16538 0.0
H1010 H 0.18178 0.98805 0.08858 0.0
H1011 H 0.17393 0.98123 0.16747 0.0
H1012 H 0.19593 0.10611 0.16065 0.0
H1013 H 0.16153 0.03506 0.15725 0.0
H1014 H 0.24413 0.04355 0.1026 0.0
H1015 H 0.27796 0.11442 0.10561 0.0
C1016 C 0.15932 0.93127 0.10425 0.0
C1017 C 0.15049 0.90894 0.12576 0.0
C1018 C 0.17422 0.97151 0.10546 0.0
C1019 C 0.18031 0.99033 0.12821 0.0
C1020 C 0.16938 0.96764 0.14965 0.0
C1021 C 0.15466 0.92738 0.14845 0.0
C1022 C 0.20647 0.0928 0.14772 0.0
C1023 C 0.23975 0.11597 0.13343 0.0
C1024 C 0.18695 0.05209 0.14593 0.0
C1025 C 0.20002 0.03362 0.12962 0.0
C1026 C 0.233 0.05683 0.11513 0.0
C1027 C 0.25267 0.09746 0.11706 0.0
H1028 H 0.24902 0.14972 0.66456 0.0
H1029 H 0.25087 0.15712 0.58567 0.0
H1030 H 0.20425 0.17517 0.66619 0.0
H1031 H 0.20568 0.18195 0.5872 0.0
H1032 H 0.16956 0.2735 0.60098 0.0
H1033 H 0.20843 0.24168 0.59905 0.0
H1034 H 0.13931 0.16349 0.65705 0.0
H1035 H 0.10128 0.19644 0.65966 0.0
C1036 C 0.23916 0.15594 0.64754 0.0
C1037 C 0.25373 0.15171 0.62499 0.0
C1038 C 0.21348 0.17058 0.64846 0.0
C1039 C 0.20158 0.18105 0.62684 0.0
C1040 C 0.21475 0.17493 0.60425 0.0
C1041 C 0.24046 0.16042 0.60335 0.0
C1042 C 0.16274 0.24969 0.61346 0.0
C1043 C 0.13232 0.23774 0.63056 0.0
C1044 C 0.18478 0.23107 0.61213 0.0
C1045 C 0.17703 0.19987 0.62785 0.0
C1046 C 0.14635 0.18761 0.6448 0.0
C1047 C 0.12423 0.20624 0.64611 0.0
H1048 H 0.90973 0.16969 0.11136 0.0
H1049 H 0.92117 0.09496 0.1642 0.0
H1050 H 0.98045 0.20777 0.10746 0.0
H1051 H 0.99214 0.13269 0.15988 0.0
H1052 H 0.11676 0.24332 0.16681 0.0
H1053 H 0.04653 0.1988 0.17011 0.0
H1054 H 0.03556 0.20218 0.09158 0.0
H1055 H 0.10567 0.24661 0.08831 0.0
C1056 C 0.92734 0.16135 0.12214 0.0
C1057 C 0.9097 0.1293 0.13816 0.0
C1058 C 0.96791 0.18295 0.1197 0.0
C1059 C 0.99203 0.17324 0.13329 0.0
C1060 C 0.97444 0.1411 0.14925 0.0
C1061 C 0.93376 0.11927 0.15156 0.0
C1062 C 0.09947 0.23392 0.15021 0.0
C1063 C 0.11672 0.24885 0.12732 0.0
C1064 C 0.05918 0.20843 0.1521 0.0
C1065 C 0.0353 0.19725 0.13114 0.0
C1066 C 0.05296 0.2107 0.10814 0.0
C1067 C 0.09318 0.23602 0.10626 0.0
H1068 H 0.81014 0.91519 0.65716 0.0
H1069 H 0.90614 0.94813 0.60735 0.0
H1070 H 0.81532 0.97894 0.65122 0.0
H1071 H 0.91135 1.0117 0.6014 0.0
H1072 H 0.89001 0.11414 0.58479 0.0
H1073 H 0.87604 0.04645 0.58562 0.0
H1074 H 0.8686 0.04623 0.66449 0.0
H1075 H 0.88267 0.1135 0.6637 0.0
C1076 C 0.83171 0.93571 0.64452 0.0
C1077 C 0.85788 0.92684 0.63283 0.0
C1078 C 0.83492 0.97228 0.64128 0.0
C1079 C 0.86401 1.00045 0.62604 0.0
C1080 C 0.88857 0.9906 0.61318 0.0
C1081 C 0.8857 0.9543 0.61667 0.0
C1082 C 0.88556 0.0996 0.60227 0.0
C1083 C 0.8877 0.11921 0.62417 0.0
C1084 C 0.87752 0.0609 0.60275 0.0
C1085 C 0.87095 0.04095 0.62512 0.0
C1086 C 0.87299 0.06061 0.64696 0.0
C1087 C 0.88158 0.09936 0.64651 0.0
H1088 H 0.96905 0.89804 0.11144 0.0
H1089 H 0.90663 0.8013 0.16084 0.0
H1090 H 0.91007 0.90201 0.10521 0.0
H1091 H 0.84735 0.8052 0.15462 0.0
H1092 H 0.77686 0.87033 0.1655 0.0
H1093 H 0.8301 0.85611 0.16732 0.0
H1094 H 0.84143 0.86623 0.08863 0.0
H1095 H 0.78815 0.88066 0.08685 0.0
C1096 C 0.94247 0.87721 0.12065 0.0
C1097 C 0.94243 0.84949 0.13672 0.0
C1098 C 0.90866 0.87935 0.117 0.0
C1099 C 0.87415 0.85412 0.12958 0.0
C1100 C 0.87364 0.82528 0.14487 0.0
C1101 C 0.90741 0.8228 0.14826 0.0
C1102 C 0.79082 0.86964 0.1486 0.0
C1103 C 0.77861 0.87691 0.12605 0.0
C1104 C 0.82095 0.86099 0.14961 0.0
C1105 C 0.83992 0.85997 0.12811 0.0
C1106 C 0.82753 0.86703 0.10552 0.0
C1107 C 0.79705 0.87523 0.10449 0.0
H1108 H 0.9255 0.77934 0.58667 0.0
H1109 H 0.91676 0.78084 0.66543 0.0
H1110 H 0.99571 0.82402 0.58942 0.0
H1111 H 0.98682 0.82573 0.66816 0.0
H1112 H 0.12224 0.85595 0.60847 0.0
H1113 H 0.05141 0.81799 0.60467 0.0
H1114 H 0.04029 0.89242 0.65785 0.0
H1115 H 0.11126 0.93001 0.66203 0.0
C1116 C 0.93848 0.78968 0.60454 0.0
C1117 C 0.91557 0.77638 0.62583 0.0
C1118 C 0.97872 0.81512 0.60613 0.0
C1119 C 0.99694 0.82818 0.62903 0.0
C1120 C 0.97369 0.81645 0.65023 0.0
C1121 C 0.93346 0.79078 0.64865 0.0
C1122 C 0.1047 0.86416 0.61942 0.0
C1123 C 0.12245 0.89596 0.63562 0.0
C1124 C 0.06411 0.84266 0.61704 0.0
C1125 C 0.04018 0.85225 0.63089 0.0
C1126 C 0.05789 0.88416 0.64701 0.0
C1127 C 0.09855 0.90588 0.64926 0.0
H1128 H 0.11398 0.86855 0.34965 0.0
H1129 H 0.10897 0.87042 0.42855 0.0
H1130 H 0.04348 0.84144 0.34758 0.0
H1131 H 0.03841 0.84324 0.42654 0.0
H1132 H 0.91045 0.74782 0.41259 0.0
H1133 H 0.98138 0.7803 0.41525 0.0
H1134 H 0.99107 0.85647 0.35578 0.0
H1135 H 0.91997 0.82366 0.35298 0.0
C1136 C 0.09789 0.86378 0.36654 0.0
C1137 C 0.11692 0.87126 0.38928 0.0
C1138 C 0.05747 0.84821 0.36536 0.0
C1139 C 0.03523 0.8399 0.3869 0.0
C1140 C 0.05457 0.84874 0.40962 0.0
C1141 C 0.09497 0.86441 0.41078 0.0
C1142 C 0.92773 0.77141 0.40003 0.0
C1143 C 0.90957 0.78306 0.38251 0.0
C1144 C 0.96839 0.79025 0.40168 0.0
C1145 C 0.99195 0.82094 0.38569 0.0
C1146 C 0.97379 0.83272 0.36823 0.0
C1147 C 0.93307 0.81414 0.36676 0.0
H1148 H 0.10229 0.91781 0.85381 0.0
H1149 H 0.17532 0.90597 0.90784 0.0
H1150 H 0.14064 0.98872 0.85782 0.0
H1151 H 0.21398 0.97673 0.91152 0.0
H1152 H 0.25167 0.1119 0.85034 0.0
H1153 H 0.20731 0.0417 0.84765 0.0
H1154 H 0.20899 0.033 0.92642 0.0
H1155 H 0.25329 0.10329 0.9291 0.0
C1156 C 0.12637 0.93032 0.86664 0.0
C1157 C 0.13577 0.90619 0.88046 0.0
C1158 C 0.14854 0.97096 0.86879 0.0
C1159 C 0.1804 0.98843 0.88499 0.0
C1160 C 0.18944 0.96426 0.89905 0.0
C1161 C 0.16751 0.92369 0.89675 0.0
C1162 C 0.242 0.09513 0.86712 0.0
C1163 C 0.25634 0.11309 0.88993 0.0
C1164 C 0.21659 0.05486 0.86557 0.0
C1165 C 0.20486 0.03165 0.8868 0.0
C1166 C 0.21792 0.04993 0.90969 0.0
C1167 C 0.24318 0.09021 0.91123 0.0
H1168 H 0.15993 0.25383 0.34858 0.0
H1169 H 0.15453 0.24404 0.42737 0.0
H1170 H 0.18526 0.20904 0.34651 0.0
H1171 H 0.18012 0.1993 0.42535 0.0
H1172 H 0.27526 0.16552 0.41125 0.0
H1173 H 0.2433 0.20438 0.41449 0.0
H1174 H 0.16762 0.14035 0.3542 0.0
H1175 H 0.19974 0.10146 0.35095 0.0
C1176 C 0.16358 0.24162 0.36545 0.0
C1177 C 0.15563 0.25277 0.38817 0.0
C1178 C 0.17811 0.21594 0.36426 0.0
C1179 C 0.18494 0.20074 0.38577 0.0
C1180 C 0.17568 0.21087 0.40846 0.0
C1181 C 0.16097 0.23643 0.40962 0.0
C1182 C 0.2518 0.15976 0.39869 0.0
C1183 C 0.24015 0.13054 0.38076 0.0
C1184 C 0.23329 0.18184 0.40066 0.0
C1185 C 0.20301 0.17563 0.38453 0.0
C1186 C 0.19108 0.14611 0.36676 0.0
C1187 C 0.20926 0.12364 0.36501 0.0
H1188 H 0.11208 0.19232 0.85414 0.0
H1189 H 0.12393 0.27953 0.90626 0.0
H1190 H 0.04121 0.15929 0.85851 0.0
H1191 H 0.05316 0.24706 0.91018 0.0
H1192 H 0.92753 0.16065 0.92912 0.0
H1193 H 0.9977 0.18628 0.92624 0.0
H1194 H 0.98766 0.17171 0.84771 0.0
H1195 H 0.91751 0.1461 0.85059 0.0
C1196 C 0.09958 0.20431 0.86663 0.0
C1197 C 0.12369 0.2386 0.87983 0.0
C1198 C 0.05897 0.18557 0.86897 0.0
C1199 C 0.04153 0.20049 0.88472 0.0
C1200 C 0.06566 0.23453 0.89811 0.0
C1201 C 0.10622 0.2534 0.89565 0.0
C1202 C 0.94025 0.16249 0.91127 0.0
C1203 C 0.91704 0.15175 0.89006 0.0
C1204 C 0.98048 0.17735 0.90961 0.0
C1205 C 0.99835 0.18143 0.88672 0.0
C1206 C 0.97479 0.16874 0.86563 0.0
C1207 C 0.93455 0.154 0.86729 0.0
H1208 H 0.86126 0.11682 0.40576 0.0
H1209 H 0.93437 0.10634 0.35124 0.0
H1210 H 0.82348 0.04615 0.40936 0.0
H1211 H 0.89694 0.03535 0.35527 0.0
H1212 H 0.7861 0.91099 0.34843 0.0
H1213 H 0.83109 0.98112 0.34549 0.0
H1214 H 0.82869 0.9908 0.42417 0.0
H1215 H 0.78359 0.92084 0.42706 0.0
C1216 C 0.86931 0.09942 0.39455 0.0
C1217 C 0.90078 0.11731 0.37814 0.0
C1218 C 0.84788 0.05885 0.39681 0.0
C1219 C 0.85719 0.03499 0.38266 0.0
C1220 C 0.88882 0.05284 0.36633 0.0
C1221 C 0.91049 0.09353 0.36419 0.0
C1222 C 0.79585 0.92797 0.36513 0.0
C1223 C 0.78096 0.91045 0.38796 0.0
C1224 C 0.82162 0.9682 0.36345 0.0
C1225 C 0.83316 0.99172 0.38457 0.0
C1226 C 0.81987 0.97372 0.40749 0.0
C1227 C 0.79419 0.93357 0.40917 0.0
H1228 H 0.86885 0.7769 0.92914 0.0
H1229 H 0.88355 0.78152 0.85065 0.0
H1230 H 0.84303 0.82123 0.92618 0.0
H1231 H 0.85774 0.82585 0.84767 0.0
H1232 H 0.83691 0.92956 0.85398 0.0
H1233 H 0.86991 0.89172 0.85832 0.0
H1234 H 0.78235 0.81602 0.91016 0.0
H1235 H 0.74991 0.85429 0.90625 0.0
C1236 C 0.86699 0.78775 0.91128 0.0
C1237 C 0.87786 0.77537 0.89012 0.0
C1238 C 0.85201 0.813 0.90957 0.0
C1239 C 0.84792 0.82678 0.88666 0.0
C1240 C 0.8607 0.81597 0.86561 0.0
C1241 C 0.87556 0.79059 0.86732 0.0
C1242 C 0.82494 0.90509 0.8665 0.0
C1243 C 0.79071 0.89494 0.87974 0.0
C1244 C 0.84367 0.88321 0.86882 0.0
C1245 C 0.82882 0.85087 0.88462 0.0
C1246 C 0.79483 0.84101 0.89805 0.0
C1247 C 0.77598 0.86269 0.8956 0.0
H1248 H 0.13833 0.69543 0.16442 0.0
H1249 H 0.14169 0.69778 0.08542 0.0
H1250 H 0.15511 0.64356 0.16427 0.0
H1251 H 0.15851 0.64664 0.08522 0.0
H1252 H 0.16496 0.53676 0.09043 0.0
H1253 H 0.13585 0.57816 0.09432 0.0
H1254 H 0.21482 0.64067 0.1536 0.0
H1255 H 0.2432 0.5986 0.15019 0.0
C1256 C 0.14188 0.68435 0.14706 0.0
C1257 C 0.13903 0.70088 0.12495 0.0
C1258 C 0.15185 0.65494 0.14695 0.0
C1259 C 0.15844 0.64108 0.12472 0.0
C1260 C 0.15336 0.65626 0.10266 0.0
C1261 C 0.14387 0.68577 0.10278 0.0
C1262 C 0.17569 0.55887 0.10458 0.0
C1263 C 0.20668 0.56446 0.11985 0.0
C1264 C 0.15918 0.58283 0.10669 0.0
C1265 C 0.17305 0.61288 0.12423 0.0
C1266 C 0.20313 0.61761 0.14006 0.0
C1267 C 0.21977 0.59379 0.13786 0.0
H1268 H 0.65345 0.22768 0.65112 0.0
H1269 H 0.63744 0.15878 0.58636 0.0
H1270 H 0.58309 0.20038 0.65414 0.0
H1271 H 0.56687 0.13061 0.58978 0.0
H1272 H 0.45532 0.14121 0.58351 0.0
H1273 H 0.52248 0.15542 0.58323 0.0
H1274 H 0.51894 0.14171 0.6618 0.0
H1275 H 0.45105 0.12767 0.66205 0.0
C1276 C 0.63491 0.20644 0.63761 0.0
C1277 C 0.65134 0.19586 0.6183 0.0
C1278 C 0.59443 0.19038 0.63954 0.0
C1279 C 0.56912 0.16333 0.62217 0.0
C1280 C 0.58544 0.15165 0.60337 0.0
C1281 C 0.62595 0.16758 0.60151 0.0
C1282 C 0.46857 0.14055 0.60074 0.0
C1283 C 0.44791 0.13365 0.62284 0.0
C1284 C 0.50716 0.14853 0.60055 0.0
C1285 C 0.52643 0.15 0.62249 0.0
C1286 C 0.50517 0.14127 0.64457 0.0
C1287 C 0.46618 0.13285 0.64473 0.0
H1288 H 0.46824 0.64632 0.09496 0.0
H1289 H 0.5364 0.5962 0.12097 0.0
H1290 H 0.40841 0.58498 0.10354 0.0
H1291 H 0.47666 0.53466 0.12911 0.0
H1292 H 0.35432 0.43533 0.15518 0.0
H1293 H 0.41465 0.49889 0.15327 0.0
H1294 H 0.37925 0.52107 0.08314 0.0
H1295 H 0.32022 0.45823 0.08472 0.0
C1296 C 0.47048 0.62251 0.10296 0.0
C1297 C 0.50717 0.62613 0.10701 0.0
C1298 C 0.43619 0.58716 0.10764 0.0
C1299 C 0.43769 0.55459 0.11666 0.0
C1300 C 0.47434 0.55903 0.12219 0.0
C1301 C 0.50861 0.59427 0.11735 0.0
C1302 C 0.35967 0.45365 0.13927 0.0
C1303 C 0.33202 0.44163 0.12026 0.0
C1304 C 0.39415 0.49016 0.13823 0.0
C1305 C 0.40147 0.51553 0.11827 0.0
C1306 C 0.3742 0.50291 0.0991 0.0
C1307 C 0.34028 0.46654 0.09999 0.0
H1308 H 0.86454 0.48604 0.58927 0.0
H1309 H 0.78985 0.42737 0.65097 0.0
H1310 H 0.89364 0.44458 0.59306 0.0
H1311 H 0.81839 0.38539 0.65442 0.0
H1312 H 0.89638 0.3318 0.6647 0.0
H1313 H 0.87952 0.38365 0.66408 0.0
H1314 H 0.86969 0.37497 0.5853 0.0
H1315 H 0.88641 0.32371 0.58596 0.0
C1316 C 0.85461 0.46463 0.60382 0.0
C1317 C 0.8246 0.45995 0.61969 0.0
C1318 C 0.87112 0.44065 0.60589 0.0
C1319 C 0.85833 0.41154 0.62402 0.0
C1320 C 0.82925 0.40772 0.6404 0.0
C1321 C 0.81252 0.4315 0.63821 0.0
C1322 C 0.89148 0.3417 0.64727 0.0
C1323 C 0.89253 0.32357 0.6254 0.0
C1324 C 0.88143 0.37108 0.64691 0.0
C1325 C 0.87299 0.38335 0.62464 0.0
C1326 C 0.87629 0.36659 0.60275 0.0
C1327 C 0.88577 0.33706 0.60314 0.0
H1328 H 0.58106 0.89744 0.16205 0.0
H1329 H 0.57482 0.88015 0.08376 0.0
H1330 H 0.51245 0.88105 0.16224 0.0
H1331 H 0.50704 0.86398 0.08393 0.0
H1332 H 0.39146 0.85961 0.088 0.0
H1333 H 0.46224 0.88911 0.09091 0.0
H1334 H 0.44872 0.81952 0.15492 0.0
H1335 H 0.378 0.79052 0.15226 0.0
C1336 C 0.56532 0.89088 0.14487 0.0
C1337 C 0.5833 0.88975 0.12294 0.0
C1338 C 0.52596 0.88119 0.14498 0.0
C1339 C 0.50409 0.87094 0.1231 0.0
C1340 C 0.52291 0.87197 0.10109 0.0
C1341 C 0.56183 0.88104 0.10103 0.0
C1342 C 0.40358 0.85105 0.10293 0.0
C1343 C 0.37892 0.82239 0.11975 0.0
C1344 C 0.44418 0.86778 0.10451 0.0
C1345 C 0.46126 0.8566 0.1231 0.0
C1346 C 0.43667 0.82908 0.14049 0.0
C1347 C 0.39605 0.81209 0.13878 0.0
H1348 H 0.70219 0.57535 0.66384 0.0
H1349 H 0.7022 0.57552 0.58483 0.0
H1350 H 0.65078 0.50641 0.6636 0.0
H1351 H 0.65156 0.50729 0.58451 0.0
H1352 H 0.60591 0.37372 0.6486 0.0
H1353 H 0.64786 0.44421 0.65218 0.0
H1354 H 0.58371 0.46069 0.59399 0.0
H1355 H 0.54253 0.39023 0.58987 0.0
C1356 C 0.69063 0.56091 0.64648 0.0
C1357 C 0.70635 0.58071 0.62437 0.0
C1358 C 0.66152 0.52137 0.6463 0.0
C1359 C 0.64717 0.50115 0.62402 0.0
C1360 C 0.66154 0.52184 0.602 0.0
C1361 C 0.69074 0.561 0.60219 0.0
C1362 C 0.60074 0.39234 0.63653 0.0
C1363 C 0.57096 0.3761 0.61878 0.0
C1364 C 0.6245 0.43284 0.63883 0.0
C1365 C 0.61924 0.45824 0.62338 0.0
C1366 C 0.58881 0.44203 0.60607 0.0
C1367 C 0.56496 0.40156 0.60384 0.0
H1368 H 0.32944 0.88547 0.43106 0.0
H1369 H 0.33857 0.90197 0.3527 0.0
H1370 H 0.38195 0.87065 0.43046 0.0
H1371 H 0.39175 0.88699 0.35206 0.0
H1372 H 0.4362 0.79697 0.36166 0.0
H1373 H 0.3946 0.82603 0.35923 0.0
H1374 H 0.45171 0.89602 0.42295 0.0
H1375 H 0.49287 0.8664 0.42566 0.0
C1376 C 0.34314 0.88653 0.41369 0.0
C1377 C 0.32954 0.89451 0.39188 0.0
C1378 C 0.3735 0.87826 0.41338 0.0
C1379 C 0.39099 0.87734 0.39121 0.0
C1380 C 0.37862 0.88706 0.36943 0.0
C1381 C 0.34841 0.89594 0.3698 0.0
C1382 C 0.43999 0.81867 0.37512 0.0
C1383 C 0.46761 0.82897 0.39404 0.0
C1384 C 0.41645 0.8357 0.37353 0.0
C1385 C 0.41966 0.8633 0.39093 0.0
C1386 C 0.44822 0.87462 0.40935 0.0
C1387 C 0.472 0.85781 0.41082 0.0
H1388 H 0.63892 0.47866 0.92567 0.0
H1389 H 0.66204 0.4289 0.86209 0.0
H1390 H 0.56899 0.435 0.92006 0.0
H1391 H 0.59233 0.38622 0.85586 0.0
H1392 H 0.47181 0.28102 0.87256 0.0
H1393 H 0.54059 0.33035 0.87263 0.0
H1394 H 0.51116 0.41608 0.89741 0.0
H1395 H 0.44202 0.3656 0.89798 0.0
C1396 C 0.629 0.45883 0.91024 0.0
C1397 C 0.65611 0.45699 0.8945 0.0
C1398 C 0.5888 0.43384 0.90691 0.0
C1399 C 0.5746 0.40662 0.88756 0.0
C1400 C 0.60188 0.40597 0.87131 0.0
C1401 C 0.64198 0.43058 0.87483 0.0
C1402 C 0.48012 0.31066 0.87752 0.0
C1403 C 0.45178 0.31966 0.88512 0.0
C1404 C 0.51962 0.33912 0.87753 0.0
C1405 C 0.53192 0.37749 0.88521 0.0
C1406 C 0.50307 0.3868 0.89179 0.0
C1407 C 0.46338 0.35811 0.89178 0.0
H1408 H 0.08365 0.59638 0.39734 0.0
H1409 H 0.20644 0.651 0.41395 0.0
H1410 H 0.0822 0.5355 0.38795 0.0
H1411 H 0.2053 0.59042 0.40381 0.0
H1412 H 0.17418 0.46579 0.42326 0.0
H1413 H 0.17834 0.52864 0.42491 0.0
H1414 H 0.103 0.49851 0.36178 0.0
H1415 H 0.09873 0.43464 0.36002 0.0
C1416 C 0.11053 0.59559 0.3986 0.0
C1417 C 0.14506 0.62851 0.40681 0.0
C1418 C 0.10974 0.5607 0.39299 0.0
C1419 C 0.14346 0.55771 0.39548 0.0
C1420 C 0.17856 0.59139 0.40214 0.0
C1421 C 0.17937 0.62634 0.40769 0.0
C1422 C 0.15837 0.47221 0.40959 0.0
C1423 C 0.1357 0.44457 0.39161 0.0
C1424 C 0.16117 0.50872 0.41043 0.0
C1425 C 0.14136 0.51904 0.39337 0.0
C1426 C 0.11856 0.49153 0.37531 0.0
C1427 C 0.11598 0.45481 0.37433 0.0
H1428 H 0.70506 0.1413 0.85268 0.0
H1429 H 0.69999 0.13201 0.93145 0.0
H1430 H 0.65351 0.15869 0.85345 0.0
H1431 H 0.64872 0.14887 0.93227 0.0
H1432 H 0.53882 0.15594 0.9257 0.0
H1433 H 0.57998 0.12681 0.91993 0.0
H1434 H 0.65183 0.21839 0.86919 0.0
H1435 H 0.61047 0.24736 0.87477 0.0
C1436 C 0.69219 0.14195 0.87004 0.0
C1437 C 0.70648 0.13536 0.89199 0.0
C1438 C 0.66303 0.15228 0.87053 0.0
C1439 C 0.64711 0.15533 0.89294 0.0
C1440 C 0.66002 0.14648 0.91469 0.0
C1441 C 0.68947 0.13688 0.91423 0.0
C1442 C 0.56298 0.1695 0.91299 0.0
C1443 C 0.57144 0.20414 0.90082 0.0
C1444 C 0.58672 0.15293 0.9098 0.0
C1445 C 0.61926 0.1703 0.89413 0.0
C1446 C 0.62682 0.20406 0.88121 0.0
C1447 C 0.60334 0.22089 0.88462 0.0
H1448 H 0.43282 0.49288 0.39706 0.0
H1449 H 0.38068 0.56109 0.41911 0.0
H1450 H 0.49414 0.5526 0.38845 0.0
H1451 H 0.44179 0.62085 0.41003 0.0
H1452 H 0.56797 0.71123 0.42907 0.0
H1453 H 0.50529 0.65207 0.431 0.0
H1454 H 0.52968 0.61311 0.36295 0.0
H1455 H 0.59304 0.67352 0.36065 0.0
C1456 C 0.43426 0.52065 0.39972 0.0
C1457 C 0.4019 0.52216 0.40908 0.0
C1458 C 0.46938 0.5549 0.39459 0.0
C1459 C 0.47316 0.59159 0.39886 0.0
C1460 C 0.44011 0.59306 0.40691 0.0
C1461 C 0.4049 0.5588 0.41187 0.0
C1462 C 0.56019 0.69035 0.41432 0.0
C1463 C 0.58577 0.69756 0.39457 0.0
C1464 C 0.5239 0.65635 0.41541 0.0
C1465 C 0.51199 0.628 0.39696 0.0
C1466 C 0.53788 0.63442 0.37747 0.0
C1467 C 0.5743 0.66896 0.3762 0.0
H1468 H 0.8935 0.57586 0.93152 0.0
H1469 H 0.89298 0.57601 0.85253 0.0
H1470 H 0.87595 0.50764 0.93167 0.0
H1471 H 0.87543 0.50708 0.85258 0.0
H1472 H 0.78724 0.37435 0.86732 0.0
H1473 H 0.81606 0.44488 0.86395 0.0
H1474 H 0.89679 0.4608 0.92197 0.0
H1475 H 0.86726 0.39026 0.92585 0.0
C1476 C 0.89044 0.56143 0.91413 0.0
C1477 C 0.89445 0.58123 0.89201 0.0
C1478 C 0.88047 0.52226 0.91421 0.0
C1479 C 0.87398 0.50163 0.89215 0.0
C1480 C 0.87979 0.52197 0.86992 0.0
C1481 C 0.89027 0.56152 0.86985 0.0
C1482 C 0.81112 0.39285 0.8794 0.0
C1483 C 0.82462 0.37641 0.89703 0.0
C1484 C 0.82803 0.43339 0.87721 0.0
C1485 C 0.8588 0.45866 0.89268 0.0
C1486 C 0.87295 0.44226 0.90987 0.0
C1487 C 0.85619 0.40174 0.91197 0.0
H1488 H 0.18647 0.31649 0.31969 0.0
H1489 H 0.18577 0.42488 0.31828 0.0
H1490 H 0.19855 0.32115 0.27586 0.0
H1491 H 0.19747 0.42945 0.27366 0.0
H1492 H 0.1586 0.30597 0.19851 0.0
H1493 H 0.15267 0.31339 0.24215 0.0
H1494 H 0.24521 0.43327 0.23824 0.0
H1495 H 0.25096 0.42576 0.19379 0.0
C1496 C 0.18964 0.34177 0.30998 0.0
C1497 C 0.18512 0.37028 0.32236 0.0
C1498 C 0.19625 0.3443 0.28481 0.0
C1499 C 0.19812 0.37523 0.27113 0.0
C1500 C 0.19612 0.40525 0.28369 0.0
C1501 C 0.18964 0.40278 0.30919 0.0
C1502 C 0.17746 0.33412 0.20682 0.0
C1503 C 0.20561 0.36513 0.19277 0.0
C1504 C 0.1742 0.33832 0.2319 0.0
C1505 C 0.19911 0.37364 0.24382 0.0
C1506 C 0.22572 0.40563 0.22958 0.0
C1507 C 0.22895 0.4014 0.20418 0.0
H1508 H 0.84885 0.14781 0.69671 0.0
H1509 H 0.84536 0.25481 0.69637 0.0
H1510 H 0.83808 0.14201 0.74065 0.0
H1511 H 0.83518 0.24942 0.74116 0.0
H1512 H 0.87833 0.16961 0.8176 0.0
H1513 H 0.88345 0.18157 0.77382 0.0
H1514 H 0.78922 0.20645 0.77722 0.0
H1515 H 0.78421 0.19445 0.82181 0.0
C1516 C 0.84502 0.16979 0.70606 0.0
C1517 C 0.8479 0.20174 0.69313 0.0
C1518 C 0.83922 0.16667 0.73131 0.0
C1519 C 0.83661 0.19568 0.74454 0.0
C1520 C 0.83712 0.22662 0.73148 0.0
C1521 C 0.84274 0.22963 0.70589 0.0
C1522 C 0.85901 0.17818 0.80914 0.0
C1523 C 0.8306 0.18068 0.82309 0.0
C1524 C 0.86181 0.18486 0.78398 0.0
C1525 C 0.83618 0.19414 0.77188 0.0
C1526 C 0.8093 0.19922 0.78601 0.0
C1527 C 0.80651 0.19252 0.81149 0.0
H1528 H 0.71341 0.84221 0.19447 0.0
H1529 H 0.60441 0.84178 0.19596 0.0
H1530 H 0.70885 0.82988 0.23828 0.0
H1531 H 0.60001 0.83005 0.24056 0.0
H1532 H 0.6034 0.7779 0.3205 0.0
H1533 H 0.59616 0.78347 0.276 0.0
H1534 H 0.71669 0.87461 0.27209 0.0
H1535 H 0.72385 0.86876 0.31576 0.0
C1536 C 0.68802 0.83872 0.2042 0.0
C1537 C 0.65926 0.84289 0.19184 0.0
C1538 C 0.68556 0.83202 0.22936 0.0
C1539 C 0.65451 0.82986 0.24307 0.0
C1540 C 0.6243 0.83159 0.23052 0.0
C1541 C 0.62667 0.83808 0.20503 0.0
C1542 C 0.62799 0.79953 0.31008 0.0
C1543 C 0.66433 0.82249 0.32152 0.0
C1544 C 0.6239 0.80266 0.28465 0.0
C1545 C 0.65613 0.82882 0.27039 0.0
C1546 C 0.69158 0.85336 0.28233 0.0
C1547 C 0.69563 0.85017 0.30744 0.0
H1548 H 0.88224 0.71814 0.69722 0.0
H1549 H 0.78185 0.60249 0.69525 0.0
H1550 H 0.8881 0.71247 0.74113 0.0
H1551 H 0.78726 0.59686 0.73993 0.0
H1552 H 0.85756 0.71831 0.81848 0.0
H1553 H 0.8466 0.71276 0.77452 0.0
H1554 H 0.83037 0.59666 0.77597 0.0
H1555 H 0.84091 0.6022 0.8207 0.0
C1556 C 0.86174 0.69116 0.70621 0.0
C1557 C 0.83153 0.66082 0.69285 0.0
C1558 C 0.86486 0.68802 0.73144 0.0
C1559 C 0.83758 0.65458 0.7442 0.0
C1560 C 0.80868 0.62304 0.73065 0.0
C1561 C 0.80568 0.62614 0.70511 0.0
C1562 C 0.851 0.6913 0.80953 0.0
C1563 C 0.85031 0.66078 0.82298 0.0
C1564 C 0.84505 0.68821 0.78427 0.0
C1565 C 0.83858 0.65464 0.77157 0.0
C1566 C 0.83543 0.62296 0.7852 0.0
C1567 C 0.84125 0.62602 0.81077 0.0
H1568 H 0.19703 0.77958 0.19488 0.0
H1569 H 0.17542 0.87585 0.19811 0.0
H1570 H 0.20943 0.78533 0.23943 0.0
H1571 H 0.18805 0.88188 0.24192 0.0
H1572 H 0.25906 0.84265 0.32001 0.0
H1573 H 0.25352 0.83177 0.27529 0.0
H1574 H 0.1472 0.83685 0.27526 0.0
H1575 H 0.15301 0.84798 0.31921 0.0
C1576 C 0.19604 0.80259 0.20497 0.0
C1577 C 0.185 0.82709 0.19312 0.0
C1578 C 0.20294 0.80577 0.23044 0.0
C1579 C 0.19886 0.83351 0.2443 0.0
C1580 C 0.19047 0.85957 0.23194 0.0
C1581 C 0.18353 0.85632 0.20678 0.0
C1582 C 0.23408 0.84037 0.3104 0.0
C1583 C 0.20657 0.84636 0.32299 0.0
C1584 C 0.23099 0.83436 0.28484 0.0
C1585 C 0.20038 0.83433 0.27164 0.0
C1586 C 0.17167 0.8377 0.28472 0.0
C1587 C 0.17481 0.84378 0.30995 0.0
H1588 H 0.31236 0.14993 0.81828 0.0
H1589 H 0.42892 0.24892 0.82035 0.0
H1590 H 0.3178 0.14412 0.77437 0.0
H1591 H 0.43435 0.24353 0.77565 0.0
H1592 H 0.31267 0.17465 0.69701 0.0
H1593 H 0.31846 0.18606 0.74091 0.0
H1594 H 0.43363 0.19977 0.73973 0.0
H1595 H 0.42788 0.18882 0.69504 0.0
C1596 C 0.33943 0.17021 0.80931 0.0
C1597 C 0.37009 0.20005 0.82269 0.0
C1598 C 0.34246 0.16709 0.78408 0.0
C1599 C 0.37614 0.19396 0.77135 0.0
C1600 C 0.40796 0.22246 0.78491 0.0
C1601 C 0.40496 0.22548 0.81046 0.0
C1602 C 0.33955 0.18078 0.706 0.0
C1603 C 0.36973 0.18064 0.69264 0.0
C1604 C 0.34277 0.187 0.73123 0.0
C1605 C 0.37612 0.19287 0.74398 0.0
C1606 C 0.40751 0.19521 0.73045 0.0
C1607 C 0.40433 0.18914 0.7049 0.0
H1608 H 0.38631 0.30035 0.96707 0.0
H1609 H 0.26593 0.21651 0.95186 0.0
H1610 H 0.36546 0.32452 1.00237 0.0
H1611 H 0.24546 0.24025 0.98646 0.0
H1612 H 0.22508 0.25837 0.06575 0.0
H1613 H 0.25048 0.23909 0.03152 0.0
H1614 H 0.32483 0.35972 0.01177 0.0
H1615 H 0.29909 0.37947 0.04677 0.0
C1616 C 0.35559 0.28668 0.97147 0.0
C1617 C 0.32786 0.25623 0.95673 0.0
C1618 C 0.34359 0.30089 0.99142 0.0
C1619 C 0.3037 0.28441 0.99728 0.0
C1620 C 0.27637 0.25354 0.98271 0.0
C1621 C 0.2882 0.23987 0.9628 0.0
C1622 C 0.24666 0.28105 0.05413 0.0
C1623 C 0.25971 0.32058 0.05902 0.0
C1624 C 0.26128 0.26987 0.03439 0.0
C1625 C 0.28978 0.29774 0.01879 0.0
C1626 C 0.30309 0.33747 0.02353 0.0
C1627 C 0.28796 0.34878 0.04334 0.0
H1628 H 0.12067 0.37188 0.47634 0.0
H1629 H 0.02968 0.27059 0.4395 0.0
H1630 H 0.0784 0.35614 0.51236 0.0
H1631 H 0.98837 0.25489 0.47509 0.0
H1632 H 0.90737 0.2499 0.5354 0.0
H1633 H 0.94932 0.27262 0.4992 0.0
H1634 H 0.05063 0.30998 0.54513 0.0
H1635 H 1.00937 0.28804 0.58095 0.0
C1636 C 0.0919 0.34626 0.47587 0.0
C1637 C 0.07901 0.32267 0.4548 0.0
C1638 C 0.06754 0.33713 0.49657 0.0
C1639 C 0.02955 0.30423 0.49677 0.0
C1640 C 1.01689 0.28084 0.47567 0.0
C1641 C 0.04108 0.28981 0.45517 0.0
C1642 C 0.93853 0.2631 0.53783 0.0
C1643 C 0.95445 0.26658 0.56135 0.0
C1644 C 0.96276 0.27609 0.51698 0.0
C1645 C 1.00368 0.29311 0.51903 0.0
C1646 C 0.01953 0.29758 0.54262 0.0
C1647 C 0.99546 0.28457 0.56332 0.0
H1648 H 0.65106 0.92927 0.04635 0.0
H1649 H 0.77147 0.97436 0.0664 0.0
H1650 H 0.67212 0.97492 0.01141 0.0
H1651 H 0.79221 0.01918 0.03198 0.0
H1652 H 0.81522 0.05801 0.95192 0.0
H1653 H 0.79108 0.01343 0.98645 0.0
H1654 H 0.70874 0.05121 1.00315 0.0
H1655 H 0.73342 0.09665 0.96811 0.0
C1656 C 0.68191 0.94839 0.0431 0.0
C1657 C 0.70956 0.94788 0.05906 0.0
C1658 C 0.69397 0.97491 0.02333 0.0
C1659 C 0.73391 1.00088 0.0189 0.0
C1660 C 0.76128 0.99959 0.03468 0.0
C1661 C 0.74933 0.97376 0.05445 0.0
C1662 C 0.79226 0.05729 0.96306 0.0
C1663 C 0.77656 0.08127 0.95734 0.0
C1664 C 0.77834 0.03159 0.9829 0.0
C1665 C 0.74783 0.02851 0.99761 0.0
C1666 C 0.73207 0.05263 0.99208 0.0
C1667 C 0.74657 0.07905 0.97227 0.0
H1668 H 0.80832 0.76891 0.56723 0.0
H1669 H 0.73609 0.64825 0.54667 0.0
H1670 H 0.78368 0.78875 0.53273 0.0
H1671 H 0.71104 0.66848 0.51155 0.0
H1672 H 0.64907 0.72674 0.46679 0.0
H1673 H 0.66979 0.70289 0.50233 0.0
H1674 H 0.78967 0.7887 0.48753 0.0
H1675 H 0.76927 0.81205 0.45258 0.0
C1676 C 0.78731 0.74649 0.55519 0.0
C1677 C 0.77448 0.70692 0.5597 0.0
C1678 C 0.77313 0.75796 0.53533 0.0
C1679 C 0.74524 0.7303 0.51931 0.0
C1680 C 0.73226 0.69055 0.52365 0.0
C1681 C 0.747 0.67898 0.54354 0.0
C1682 C 0.67971 0.74085 0.47152 0.0
C1683 C 0.70745 0.77158 0.457 0.0
C1684 C 0.69165 0.72683 0.4916 0.0
C1685 C 0.73148 0.74379 0.49779 0.0
C1686 C 0.75881 0.77504 0.4835 0.0
C1687 C 0.74704 0.78851 0.46342 0.0
H1688 H 0.93216 0.64616 0.96832 0.0
H1689 H 0.9722 0.767 0.9524 0.0
H1690 H 0.9771 0.66627 1.00364 0.0
H1691 H 1.01624 0.78678 0.98724 0.0
H1692 H 0.05369 0.80483 0.06763 0.0
H1693 H 1.00944 0.78142 0.03287 0.0
H1694 H 0.05356 0.70563 0.01228 0.0
H1695 H 0.09869 0.72957 0.04753 0.0
C1696 C 0.94996 0.67686 0.97259 0.0
C1697 C 0.94827 0.70493 0.95765 0.0
C1698 C 0.9761 0.68841 0.99257 0.0
C1699 C 1.00044 0.7282 0.99827 0.0
C1700 C 0.99791 0.75594 0.98355 0.0
C1701 C 0.97251 0.74453 0.96353 0.0
C1702 C 0.05437 0.78341 0.05563 0.0
C1703 C 0.08007 0.76935 0.06032 0.0
C1704 C 0.02887 0.76994 0.03565 0.0
C1705 C 0.02771 0.7415 0.01976 0.0
C1706 C 0.05347 0.72732 0.02429 0.0
C1707 C 0.07968 0.7414 0.04424 0.0
H1708 H 0.3 0.93081 0.46872 0.0
H1709 H 0.22191 0.97311 0.45005 0.0
H1710 H 0.32443 0.97631 0.50376 0.0
H1711 H 0.2459 0.01783 0.48449 0.0
H1712 H 0.2624 0.05662 0.56433 0.0
H1713 H 0.24228 1.01209 0.52982 0.0
H1714 H 0.36274 0.0523 0.51239 0.0
H1715 H 0.3832 0.09764 0.54749 0.0
C1716 C 0.28764 0.94927 0.4723 0.0
C1717 C 0.25873 0.94802 0.4567 0.0
C1718 C 0.30201 0.97573 0.49211 0.0
C1719 C 0.28722 1.00088 0.49693 0.0
C1720 C 0.25786 0.99886 0.48151 0.0
C1721 C 0.24404 0.97308 0.46171 0.0
C1722 C 0.2848 0.05643 0.55305 0.0
C1723 C 0.32448 0.08106 0.5586 0.0
C1724 C 0.27318 0.03076 0.53321 0.0
C1725 C 0.3008 0.0284 0.51829 0.0
C1726 C 0.34069 0.05315 0.52363 0.0
C1727 C 0.35244 0.07952 0.54348 0.0
loop_
_geom_bond_atom_site_label_1
_geom_bond_atom_site_label_2
_geom_bond_distance
_geom_bond_site_symmetry_2
_ccdc_geom_bond_type
C0 C2 1.422 . S
C0 C4 1.415 . S
C0 N6 1.369 . S
C1 C2 1.421 . S
C1 C3 1.417 . S
C1 C13 1.422 . S
C2 C0 1.422 . S
C2 C1 1.421 . S
C2 N12 1.359 . S
C3 C1 1.417 . S
C3 C5 1.329 . S
C3 H22 0.930 1_455 S
C4 C0 1.415 . S
C4 C5 1.437 . S
C4 C8 1.413 . S
C5 C3 1.329 . S
C5 C4 1.437 . S
C5 H27 0.929 1_455 S
N6 C0 1.369 . S
N6 C7 1.338 . S
N6 Gd11 2.622 . S
C7 N6 1.338 . S
C7 C9 1.378 . S
C7 H19 0.929 . S
C8 C4 1.413 . S
C8 C9 1.348 . S
C8 H24 0.931 . S
C9 C7 1.378 . S
C9 C8 1.348 . S
C9 H25 0.930 1_554 S
Gd10 N30 2.622 . S
Gd10 N37 2.570 . S
Gd10 O44 2.353 . S
Gd10 O45 2.468 . S
Gd10 O46 2.427 . S
Gd10 O48 2.388 . S
Gd10 O49 2.386 . S
Gd10 O53 2.307 . S
Gd10 C63 2.805 . S
Gd11 N6 2.622 . S
Gd11 N12 2.570 . S
Gd11 O43 2.386 . S
Gd11 O47 2.307 . S
Gd11 O50 2.353 . S
Gd11 O51 2.468 . S
Gd11 O52 2.427 . S
Gd11 O54 2.388 . S
Gd11 C75 2.805 . S
N12 C2 1.359 . S
N12 Gd11 2.570 . S
N12 C14 1.343 . S
C13 C1 1.422 . S
C13 C15 1.321 . S
C13 H21 0.931 1_455 S
C14 N12 1.343 . S
C14 C15 1.390 . S
C14 H16 0.931 . S
C15 C13 1.321 . S
C15 C14 1.390 . S
C15 H17 0.930 . S
H16 C14 0.931 . S
H17 C15 0.930 . S
H18 C41 0.931 . S
H19 C7 0.929 . S
H20 C42 0.930 . S
H21 C13 0.931 1_655 S
H22 C3 0.930 1_655 S
H23 C32 0.929 . S
H24 C8 0.931 . S
H25 C9 0.930 1_556 S
H26 C64 0.930 . S
H27 C5 0.929 1_655 S
H28 C33 0.931 . S
H29 C34 0.930 . S
N30 Gd10 2.622 . S
N30 C31 1.369 . S
N30 C32 1.338 . S
C31 N30 1.369 . S
C31 C35 1.415 . S
C31 C38 1.422 . S
C32 H23 0.929 . S
C32 N30 1.338 . S
C32 C34 1.378 . S
C33 H28 0.931 . S
C33 C34 1.348 . S
C33 C35 1.413 . S
C34 H29 0.930 . S
C34 C32 1.378 . S
C34 C33 1.348 . S
C35 C31 1.415 . S
C35 C33 1.413 . S
C35 C65 1.437 . S
H36 C65 0.929 . S
N37 Gd10 2.570 . S
N37 C38 1.359 . S
N37 C41 1.343 . S
C38 C31 1.422 . S
C38 N37 1.359 . S
C38 C40 1.421 . S
C39 C40 1.422 . S
C39 C42 1.321 . S
C39 H66 0.931 . S
C40 C38 1.421 . S
C40 C39 1.422 . S
C40 C64 1.417 . S
C41 H18 0.931 . S
C41 N37 1.343 . S
C41 C42 1.390 . S
C42 H20 0.930 . S
C42 C39 1.321 . S
C42 C41 1.390 . S
O43 Gd11 2.386 . S
O43 C55 1.265 . S
O44 Gd10 2.353 . S
O44 C55 1.242 . S
O45 Gd10 2.468 . S
O45 C63 1.263 . S
O46 Gd10 2.427 . S
O46 C63 1.252 . S
O47 Gd11 2.307 . S
O47 C56 1.261 . S
O48 Gd10 2.388 . S
O48 C56 1.252 . S
O49 Gd10 2.386 . S
O49 C67 1.265 . S
O50 Gd11 2.353 . S
O50 C67 1.242 . S
O51 Gd11 2.468 . S
O51 C75 1.263 . S
O52 Gd11 2.427 . S
O52 C75 1.252 . S
O53 Gd10 2.307 . S
O53 C68 1.261 . S
O54 Gd11 2.388 . S
O54 C68 1.252 . S
C55 O43 1.265 . S
C55 O44 1.242 . S
C56 O47 1.261 . S
C56 O48 1.252 . S
C57 C60 1.394 . S
C57 C62 1.370 . S
C57 C63 1.500 . S
C58 C61 1.383 . S
C58 C62 1.395 . S
C59 C60 1.396 . S
C59 C61 1.365 . S
C59 H76 0.929 . S
C60 C57 1.394 . S
C60 C59 1.396 . S
C60 H77 0.930 . S
C61 C58 1.383 . S
C61 C59 1.365 . S
C61 H78 0.931 . S
C62 C57 1.370 . S
C62 C58 1.395 . S
C62 H79 0.930 . S
C63 Gd10 2.805 . S
C63 O45 1.263 . S
C63 O46 1.252 . S
C63 C57 1.500 . S
C64 H26 0.930 . S
C64 C40 1.417 . S
C64 C65 1.329 . S
C65 C35 1.437 . S
C65 H36 0.929 . S
C65 C64 1.329 . S
H66 C39 0.931 . S
C67 O49 1.265 . S
C67 O50 1.242 . S
C68 O53 1.261 . S
C68 O54 1.252 . S
C69 C72 1.394 . S
C69 C74 1.370 . S
C69 C75 1.500 . S
C70 C73 1.383 . S
C70 C74 1.395 . S
C71 C72 1.396 . S
C71 C73 1.365 . S
C71 H80 0.929 . S
C72 C69 1.394 . S
C72 C71 1.396 . S
C72 H81 0.930 . S
C73 C70 1.383 . S
C73 C71 1.365 . S
C73 H82 0.931 . S
C74 C69 1.370 . S
C74 C70 1.395 . S
C74 H83 0.930 . S
C75 Gd11 2.805 . S
C75 O51 1.263 . S
C75 O52 1.252 . S
C75 C69 1.500 . S
H76 C59 0.929 . S
H77 C60 0.930 . S
H78 C61 0.931 . S
H79 C62 0.930 . S
H80 C71 0.929 . S
H81 C72 0.930 . S
H82 C73 0.931 . S
H83 C74 0.930 . S
C84 C86 1.422 . S
C84 C88 1.415 . S
C84 N90 1.369 . S
C85 C86 1.421 . S
C85 C87 1.417 . S
C85 C97 1.422 . S
C86 C84 1.422 . S
C86 C85 1.421 . S
C86 N96 1.359 . S
C87 C85 1.417 . S
C87 C89 1.329 . S
C87 H106 0.930 1_545 S
C88 C84 1.415 . S
C88 C89 1.437 . S
C88 C92 1.413 . S
C89 C87 1.329 . S
C89 C88 1.437 . S
C89 H111 0.929 1_545 S
N90 C84 1.369 . S
N90 C91 1.338 . S
N90 Gd95 2.622 . S
C91 N90 1.338 . S
C91 C93 1.378 . S
C91 H103 0.929 . S
C92 C88 1.413 . S
C92 C93 1.348 . S
C92 H108 0.931 . S
C93 C91 1.378 . S
C93 C92 1.348 . S
C93 H109 0.930 . S
Gd94 N114 2.622 . S
Gd94 N121 2.570 . S
Gd94 O128 2.353 . S
Gd94 O129 2.468 . S
Gd94 O130 2.427 . S
Gd94 O132 2.388 . S
Gd94 O133 2.386 . S
Gd94 O137 2.307 . S
Gd94 C147 2.805 . S
Gd95 N90 2.622 . S
Gd95 N96 2.570 . S
Gd95 O127 2.386 . S
Gd95 O131 2.307 . S
Gd95 O134 2.353 . S
Gd95 O135 2.468 . S
Gd95 O136 2.427 . S
Gd95 O138 2.388 . S
Gd95 C159 2.805 . S
N96 C86 1.359 . S
N96 Gd95 2.570 . S
N96 C98 1.343 . S
C97 C85 1.422 . S
C97 C99 1.321 . S
C97 H105 0.931 1_545 S
C98 N96 1.343 . S
C98 C99 1.390 . S
C98 H100 0.931 . S
C99 C97 1.321 . S
C99 C98 1.390 . S
C99 H101 0.930 . S
H100 C98 0.931 . S
H101 C99 0.930 . S
H102 C125 0.931 . S
H103 C91 0.929 . S
H104 C126 0.930 1_455 S
H105 C97 0.931 1_565 S
H106 C87 0.930 1_565 S
H107 C116 0.929 . S
H108 C92 0.931 . S
H109 C93 0.930 . S
H110 C148 0.930 . S
H111 C89 0.929 1_565 S
H112 C117 0.931 . S
H113 C118 0.930 . S
N114 Gd94 2.622 . S
N114 C115 1.369 . S
N114 C116 1.338 . S
C115 N114 1.369 . S
C115 C119 1.415 . S
C115 C122 1.422 . S
C116 H107 0.929 . S
C116 N114 1.338 . S
C116 C118 1.378 . S
C117 H112 0.931 . S
C117 C118 1.348 . S
C117 C119 1.413 . S
C118 H113 0.930 . S
C118 C116 1.378 . S
C118 C117 1.348 . S
C119 C115 1.415 . S
C119 C117 1.413 . S
C119 C149 1.437 . S
H120 C149 0.929 1_455 S
N121 Gd94 2.570 . S
N121 C122 1.359 . S
N121 C125 1.343 . S
C122 C115 1.422 . S
C122 N121 1.359 . S
C122 C124 1.421 . S
C123 C124 1.422 1_455 S
C123 C126 1.321 1_455 S
C123 H150 0.931 . S
C124 C122 1.421 . S
C124 C123 1.422 1_655 S
C124 C148 1.417 1_655 S
C125 H102 0.931 . S
C125 N121 1.343 . S
C125 C126 1.390 . S
C126 H104 0.930 1_655 S
C126 C123 1.321 1_655 S
C126 C125 1.390 . S
O127 Gd95 2.386 . S
O127 C139 1.265 . S
O128 Gd94 2.353 . S
O128 C139 1.242 . S
O129 Gd94 2.468 . S
O129 C147 1.263 . S
O130 Gd94 2.427 . S
O130 C147 1.252 . S
O131 Gd95 2.307 . S
O131 C140 1.261 . S
O132 Gd94 2.388 . S
O132 C140 1.252 . S
O133 Gd94 2.386 . S
O133 C151 1.265 . S
O134 Gd95 2.353 . S
O134 C151 1.242 . S
O135 Gd95 2.468 . S
O135 C159 1.263 . S
O136 Gd95 2.427 . S
O136 C159 1.252 . S
O137 Gd94 2.307 . S
O137 C152 1.261 . S
O138 Gd95 2.388 . S
O138 C152 1.252 . S
C139 O127 1.265 . S
C139 O128 1.242 . S
C140 O131 1.261 . S
C140 O132 1.252 . S
C141 C144 1.394 . S
C141 C146 1.370 . S
C141 C147 1.500 1_455 S
C142 C145 1.383 . S
C142 C146 1.395 . S
C143 C144 1.396 . S
C143 C145 1.365 . S
C143 H160 0.929 . S
C144 C141 1.394 . S
C144 C143 1.396 . S
C144 H161 0.930 . S
C145 C142 1.383 . S
C145 C143 1.365 . S
C145 H162 0.931 . S
C146 C141 1.370 . S
C146 C142 1.395 . S
C146 H163 0.930 . S
C147 Gd94 2.805 . S
C147 O129 1.263 . S
C147 O130 1.252 . S
C147 C141 1.500 1_655 S
C148 H110 0.930 . S
C148 C124 1.417 1_455 S
C148 C149 1.329 1_455 S
C149 C119 1.437 . S
C149 H120 0.929 1_655 S
C149 C148 1.329 1_655 S
H150 C123 0.931 . S
C151 O133 1.265 . S
C151 O134 1.242 . S
C152 O137 1.261 . S
C152 O138 1.252 . S
C153 C156 1.394 . S
C153 C158 1.370 . S
C153 C159 1.500 . S
C154 C157 1.383 . S
C154 C158 1.395 . S
C155 C156 1.396 . S
C155 C157 1.365 . S
C155 H164 0.929 . S
C156 C153 1.394 . S
C156 C155 1.396 . S
C156 H165 0.930 . S
C157 C154 1.383 . S
C157 C155 1.365 . S
C157 H166 0.931 . S
C158 C153 1.370 . S
C158 C154 1.395 . S
C158 H167 0.930 . S
C159 Gd95 2.805 . S
C159 O135 1.263 . S
C159 O136 1.252 . S
C159 C153 1.500 . S
H160 C143 0.929 . S
H161 C144 0.930 . S
H162 C145 0.931 . S
H163 C146 0.930 . S
H164 C155 0.929 . S
H165 C156 0.930 . S
H166 C157 0.931 . S
H167 C158 0.930 . S
C168 C170 1.422 . S
C168 C172 1.415 . S
C168 N174 1.369 . S
C169 C170 1.421 . S
C169 C171 1.417 . S
C169 C181 1.422 . S
C170 C168 1.422 . S
C170 C169 1.421 . S
C170 N180 1.359 . S
C171 C169 1.417 . S
C171 C173 1.329 . S
C171 H190 0.930 . S
C172 C168 1.415 . S
C172 C173 1.437 . S
C172 C176 1.413 . S
C173 C171 1.329 . S
C173 C172 1.437 . S
C173 H195 0.929 . S
N174 C168 1.369 . S
N174 C175 1.338 . S
N174 Gd179 2.622 . S
C175 N174 1.338 . S
C175 C177 1.378 . S
C175 H187 0.929 . S
C176 C172 1.413 . S
C176 C177 1.348 . S
C176 H192 0.931 . S
C177 C175 1.378 . S
C177 C176 1.348 . S
C177 H193 0.930 1_554 S
Gd178 N198 2.622 . S
Gd178 N205 2.570 . S
Gd178 O212 2.353 . S
Gd178 O213 2.468 . S
Gd178 O214 2.427 . S
Gd178 O216 2.388 . S
Gd178 O217 2.386 . S
Gd178 O221 2.307 . S
Gd178 C231 2.805 . S
Gd179 N174 2.622 . S
Gd179 N180 2.570 . S
Gd179 O211 2.386 . S
Gd179 O215 2.307 . S
Gd179 O218 2.353 . S
Gd179 O219 2.468 . S
Gd179 O220 2.427 . S
Gd179 O222 2.388 . S
Gd179 C243 2.805 . S
N180 C170 1.359 . S
N180 Gd179 2.570 . S
N180 C182 1.343 . S
C181 C169 1.422 . S
C181 C183 1.321 . S
C181 H189 0.931 . S
C182 N180 1.343 . S
C182 C183 1.390 . S
C182 H184 0.931 . S
C183 C181 1.321 . S
C183 C182 1.390 . S
C183 H185 0.930 . S
H184 C182 0.931 . S
H185 C183 0.930 . S
H186 C209 0.931 . S
H187 C175 0.929 . S
H188 C210 0.930 1_545 S
H189 C181 0.931 . S
H190 C171 0.930 . S
H191 C200 0.929 . S
H192 C176 0.931 . S
H193 C177 0.930 1_556 S
H194 C232 0.930 . S
H195 C173 0.929 . S
H196 C201 0.931 . S
H197 C202 0.930 . S
N198 Gd178 2.622 . S
N198 C199 1.369 . S
N198 C200 1.338 . S
C199 N198 1.369 . S
C199 C203 1.415 . S
C199 C206 1.422 . S
C200 H191 0.929 . S
C200 N198 1.338 . S
C200 C202 1.378 . S
C201 H196 0.931 . S
C201 C202 1.348 . S
C201 C203 1.413 . S
C202 H197 0.930 . S
C202 C200 1.378 . S
C202 C201 1.348 . S
C203 C199 1.415 . S
C203 C201 1.413 . S
C203 C233 1.437 . S
H204 C233 0.929 1_545 S
N205 Gd178 2.570 . S
N205 C206 1.359 . S
N205 C209 1.343 . S
C206 C199 1.422 . S
C206 N205 1.359 . S
C206 C208 1.421 . S
C207 C208 1.422 1_545 S
C207 C210 1.321 1_545 S
C207 H234 0.931 . S
C208 C206 1.421 . S
C208 C207 1.422 1_565 S
C208 C232 1.417 1_565 S
C209 H186 0.931 . S
C209 N205 1.343 . S
C209 C210 1.390 . S
C210 H188 0.930 1_565 S
C210 C207 1.321 1_565 S
C210 C209 1.390 . S
O211 Gd179 2.386 . S
O211 C223 1.265 . S
O212 Gd178 2.353 . S
O212 C223 1.242 . S
O213 Gd178 2.468 . S
O213 C231 1.263 . S
O214 Gd178 2.427 . S
O214 C231 1.252 . S
O215 Gd179 2.307 . S
O215 C224 1.261 . S
O216 Gd178 2.388 . S
O216 C224 1.252 . S
O217 Gd178 2.386 . S
O217 C235 1.265 . S
O218 Gd179 2.353 . S
O218 C235 1.242 . S
O219 Gd179 2.468 . S
O219 C243 1.263 . S
O220 Gd179 2.427 . S
O220 C243 1.252 . S
O221 Gd178 2.307 . S
O221 C236 1.261 . S
O222 Gd179 2.388 . S
O222 C236 1.252 . S
C223 O211 1.265 . S
C223 O212 1.242 . S
C224 O215 1.261 . S
C224 O216 1.252 . S
C225 C228 1.394 . S
C225 C230 1.370 . S
C225 C231 1.500 1_545 S
C226 C229 1.383 . S
C226 C230 1.395 . S
C227 C228 1.396 . S
C227 C229 1.365 . S
C227 H244 0.929 . S
C228 C225 1.394 . S
C228 C227 1.396 . S
C228 H245 0.930 . S
C229 C226 1.383 . S
C229 C227 1.365 . S
C229 H246 0.931 . S
C230 C225 1.370 . S
C230 C226 1.395 . S
C230 H247 0.930 . S
C231 Gd178 2.805 . S
C231 O213 1.263 . S
C231 O214 1.252 . S
C231 C225 1.500 1_565 S
C232 H194 0.930 . S
C232 C208 1.417 1_545 S
C232 C233 1.329 1_545 S
C233 C203 1.437 . S
C233 H204 0.929 1_565 S
C233 C232 1.329 1_565 S
H234 C207 0.931 . S
C235 O217 1.265 . S
C235 O218 1.242 . S
C236 O221 1.261 . S
C236 O222 1.252 . S
C237 C240 1.394 . S
C237 C242 1.370 . S
C237 C243 1.500 . S
C238 C241 1.383 . S
C238 C242 1.395 . S
C239 C240 1.396 . S
C239 C241 1.365 . S
C239 H248 0.929 . S
C240 C237 1.394 . S
C240 C239 1.396 . S
C240 H249 0.930 . S
C241 C238 1.383 . S
C241 C239 1.365 . S
C241 H250 0.931 . S
C242 C237 1.370 . S
C242 C238 1.395 . S
C242 H251 0.930 . S
C243 Gd179 2.805 . S
C243 O219 1.263 . S
C243 O220 1.252 . S
C243 C237 1.500 . S
H244 C227 0.929 . S
H245 C228 0.930 . S
H246 C229 0.931 . S
H247 C230 0.930 . S
H248 C239 0.929 . S
H249 C240 0.930 . S
H250 C241 0.931 . S
H251 C242 0.930 . S
C252 C254 1.422 . S
C252 C256 1.415 . S
C252 N258 1.369 . S
C253 C254 1.421 . S
C253 C255 1.417 . S
C253 C265 1.422 . S
C254 C252 1.422 . S
C254 C253 1.421 . S
C254 N264 1.359 . S
C255 C253 1.417 . S
C255 C257 1.329 . S
C255 H274 0.930 1_655 S
C256 C252 1.415 . S
C256 C257 1.437 . S
C256 C260 1.413 . S
C257 C255 1.329 . S
C257 C256 1.437 . S
C257 H279 0.929 1_655 S
N258 C252 1.369 . S
N258 C259 1.338 . S
N258 Gd263 2.622 . S
C259 N258 1.338 . S
C259 C261 1.378 . S
C259 H271 0.929 . S
C260 C256 1.413 . S
C260 C261 1.348 . S
C260 H276 0.931 . S
C261 C259 1.378 . S
C261 C260 1.348 . S
C261 H277 0.930 . S
Gd262 N282 2.622 . S
Gd262 N289 2.570 . S
Gd262 O296 2.353 . S
Gd262 O297 2.468 . S
Gd262 O298 2.427 . S
Gd262 O300 2.388 . S
Gd262 O301 2.386 . S
Gd262 O305 2.307 . S
Gd262 C315 2.805 . S
Gd263 N258 2.622 . S
Gd263 N264 2.570 . S
Gd263 O295 2.386 . S
Gd263 O299 2.307 . S
Gd263 O302 2.353 . S
Gd263 O303 2.468 . S
Gd263 O304 2.427 . S
Gd263 O306 2.388 . S
Gd263 C327 2.805 . S
N264 C254 1.359 . S
N264 Gd263 2.570 . S
N264 C266 1.343 . S
C265 C253 1.422 . S
C265 C267 1.321 . S
C265 H273 0.931 1_655 S
C266 N264 1.343 . S
C266 C267 1.390 . S
C266 H268 0.931 . S
C267 C265 1.321 . S
C267 C266 1.390 . S
C267 H269 0.930 . S
H268 C266 0.931 . S
H269 C267 0.930 . S
H270 C293 0.931 . S
H271 C259 0.929 . S
H272 C294 0.930 . S
H273 C265 0.931 1_455 S
H274 C255 0.930 1_455 S
H275 C284 0.929 . S
H276 C260 0.931 . S
H277 C261 0.930 . S
H278 C316 0.930 . S
H279 C257 0.929 1_455 S
H280 C285 0.931 . S
H281 C286 0.930 . S
N282 Gd262 2.622 . S
N282 C283 1.369 . S
N282 C284 1.338 . S
C283 N282 1.369 . S
C283 C287 1.415 . S
C283 C290 1.422 . S
C284 H275 0.929 . S
C284 N282 1.338 . S
C284 C286 1.378 . S
C285 H280 0.931 . S
C285 C286 1.348 . S
C285 C287 1.413 . S
C286 H281 0.930 . S
C286 C284 1.378 . S
C286 C285 1.348 . S
C287 C283 1.415 . S
C287 C285 1.413 . S
C287 C317 1.437 . S
H288 C317 0.929 . S
N289 Gd262 2.570 . S
N289 C290 1.359 . S
N289 C293 1.343 . S
C290 C283 1.422 . S
C290 N289 1.359 . S
C290 C292 1.421 . S
C291 C292 1.422 . S
C291 C294 1.321 . S
C291 H318 0.931 . S
C292 C290 1.421 . S
C292 C291 1.422 . S
C292 C316 1.417 . S
C293 H270 0.931 . S
C293 N289 1.343 . S
C293 C294 1.390 . S
C294 H272 0.930 . S
C294 C291 1.321 . S
C294 C293 1.390 . S
O295 Gd263 2.386 . S
O295 C307 1.265 . S
O296 Gd262 2.353 . S
O296 C307 1.242 . S
O297 Gd262 2.468 . S
O297 C315 1.263 . S
O298 Gd262 2.427 . S
O298 C315 1.252 . S
O299 Gd263 2.307 . S
O299 C308 1.261 . S
O300 Gd262 2.388 . S
O300 C308 1.252 . S
O301 Gd262 2.386 . S
O301 C319 1.265 . S
O302 Gd263 2.353 . S
O302 C319 1.242 . S
O303 Gd263 2.468 . S
O303 C327 1.263 . S
O304 Gd263 2.427 . S
O304 C327 1.252 . S
O305 Gd262 2.307 . S
O305 C320 1.261 . S
O306 Gd263 2.388 . S
O306 C320 1.252 . S
C307 O295 1.265 . S
C307 O296 1.242 . S
C308 O299 1.261 . S
C308 O300 1.252 . S
C309 C312 1.394 . S
C309 C314 1.370 . S
C309 C315 1.500 . S
C310 C313 1.383 . S
C310 C314 1.395 . S
C311 C312 1.396 . S
C311 C313 1.365 . S
C311 H328 0.929 . S
C312 C309 1.394 . S
C312 C311 1.396 . S
C312 H329 0.930 . S
C313 C310 1.383 . S
C313 C311 1.365 . S
C313 H330 0.931 . S
C314 C309 1.370 . S
C314 C310 1.395 . S
C314 H331 0.930 . S
C315 Gd262 2.805 . S
C315 O297 1.263 . S
C315 O298 1.252 . S
C315 C309 1.500 . S
C316 H278 0.930 . S
C316 C292 1.417 . S
C316 C317 1.329 . S
C317 C287 1.437 . S
C317 H288 0.929 . S
C317 C316 1.329 . S
H318 C291 0.931 . S
C319 O301 1.265 . S
C319 O302 1.242 . S
C320 O305 1.261 . S
C320 O306 1.252 . S
C321 C324 1.394 . S
C321 C326 1.370 . S
C321 C327 1.500 . S
C322 C325 1.383 . S
C322 C326 1.395 . S
C323 C324 1.396 . S
C323 C325 1.365 . S
C323 H332 0.929 . S
C324 C321 1.394 . S
C324 C323 1.396 . S
C324 H333 0.930 . S
C325 C322 1.383 . S
C325 C323 1.365 . S
C325 H334 0.931 . S
C326 C321 1.370 . S
C326 C322 1.395 . S
C326 H335 0.930 . S
C327 Gd263 2.805 . S
C327 O303 1.263 . S
C327 O304 1.252 . S
C327 C321 1.500 . S
H328 C311 0.929 . S
H329 C312 0.930 . S
H330 C313 0.931 . S
H331 C314 0.930 . S
H332 C323 0.929 . S
H333 C324 0.930 . S
H334 C325 0.931 . S
H335 C326 0.930 . S
C336 C338 1.422 . S
C336 C340 1.415 . S
C336 N342 1.369 . S
C337 C338 1.421 . S
C337 C339 1.417 . S
C337 C349 1.422 . S
C338 C336 1.422 . S
C338 C337 1.421 . S
C338 N348 1.359 . S
C339 C337 1.417 . S
C339 C341 1.329 . S
C339 H358 0.930 1_565 S
C340 C336 1.415 . S
C340 C341 1.437 . S
C340 C344 1.413 . S
C341 C339 1.329 . S
C341 C340 1.437 . S
C341 H363 0.929 1_565 S
N342 C336 1.369 . S
N342 C343 1.338 . S
N342 Gd347 2.622 . S
C343 N342 1.338 . S
C343 C345 1.378 . S
C343 H355 0.929 . S
C344 C340 1.413 . S
C344 C345 1.348 . S
C344 H360 0.931 . S
C345 C343 1.378 . S
C345 C344 1.348 . S
C345 H361 0.930 1_554 S
Gd346 N366 2.622 . S
Gd346 N373 2.570 . S
Gd346 O380 2.353 . S
Gd346 O381 2.468 . S
Gd346 O382 2.427 . S
Gd346 O384 2.388 . S
Gd346 O385 2.386 . S
Gd346 O389 2.307 . S
Gd346 C399 2.805 . S
Gd347 N342 2.622 . S
Gd347 N348 2.570 . S
Gd347 O379 2.386 . S
Gd347 O383 2.307 . S
Gd347 O386 2.353 . S
Gd347 O387 2.468 . S
Gd347 O388 2.427 . S
Gd347 O390 2.388 . S
Gd347 C411 2.805 . S
N348 C338 1.359 . S
N348 Gd347 2.570 . S
N348 C350 1.343 . S
C349 C337 1.422 . S
C349 C351 1.321 . S
C349 H357 0.931 1_565 S
C350 N348 1.343 . S
C350 C351 1.390 . S
C350 H352 0.931 . S
C351 C349 1.321 . S
C351 C350 1.390 . S
C351 H353 0.930 . S
H352 C350 0.931 . S
H353 C351 0.930 . S
H354 C377 0.931 . S
H355 C343 0.929 . S
H356 C378 0.930 1_655 S
H357 C349 0.931 1_545 S
H358 C339 0.930 1_545 S
H359 C368 0.929 . S
H360 C344 0.931 . S
H361 C345 0.930 1_556 S
H362 C400 0.930 . S
H363 C341 0.929 1_545 S
H364 C369 0.931 . S
H365 C370 0.930 . S
N366 Gd346 2.622 . S
N366 C367 1.369 . S
N366 C368 1.338 . S
C367 N366 1.369 . S
C367 C371 1.415 . S
C367 C374 1.422 . S
C368 H359 0.929 . S
C368 N366 1.338 . S
C368 C370 1.378 . S
C369 H364 0.931 . S
C369 C370 1.348 . S
C369 C371 1.413 . S
C370 H365 0.930 . S
C370 C368 1.378 . S
C370 C369 1.348 . S
C371 C367 1.415 . S
C371 C369 1.413 . S
C371 C401 1.437 . S
H372 C401 0.929 1_655 S
N373 Gd346 2.570 . S
N373 C374 1.359 . S
N373 C377 1.343 . S
C374 C367 1.422 . S
C374 N373 1.359 . S
C374 C376 1.421 . S
C375 C376 1.422 1_655 S
C375 C378 1.321 1_655 S
C375 H402 0.931 . S
C376 C374 1.421 . S
C376 C375 1.422 1_455 S
C376 C400 1.417 1_455 S
C377 H354 0.931 . S
C377 N373 1.343 . S
C377 C378 1.390 . S
C378 H356 0.930 1_455 S
C378 C375 1.321 1_455 S
C378 C377 1.390 . S
O379 Gd347 2.386 . S
O379 C391 1.265 . S
O380 Gd346 2.353 . S
O380 C391 1.242 . S
O381 Gd346 2.468 . S
O381 C399 1.263 . S
O382 Gd346 2.427 . S
O382 C399 1.252 . S
O383 Gd347 2.307 . S
O383 C392 1.261 . S
O384 Gd346 2.388 . S
O384 C392 1.252 . S
O385 Gd346 2.386 . S
O385 C403 1.265 . S
O386 Gd347 2.353 . S
O386 C403 1.242 . S
O387 Gd347 2.468 . S
O387 C411 1.263 . S
O388 Gd347 2.427 . S
O388 C411 1.252 . S
O389 Gd346 2.307 . S
O389 C404 1.261 . S
O390 Gd347 2.388 . S
O390 C404 1.252 . S
C391 O379 1.265 . S
C391 O380 1.242 . S
C392 O383 1.261 . S
C392 O384 1.252 . S
C393 C396 1.394 . S
C393 C398 1.370 . S
C393 C399 1.500 1_655 S
C394 C397 1.383 . S
C394 C398 1.395 . S
C395 C396 1.396 . S
C395 C397 1.365 . S
C395 H412 0.929 . S
C396 C393 1.394 . S
C396 C395 1.396 . S
C396 H413 0.930 . S
C397 C394 1.383 . S
C397 C395 1.365 . S
C397 H414 0.931 . S
C398 C393 1.370 . S
C398 C394 1.395 . S
C398 H415 0.930 . S
C399 Gd346 2.805 . S
C399 O381 1.263 . S
C399 O382 1.252 . S
C399 C393 1.500 1_455 S
C400 H362 0.930 . S
C400 C376 1.417 1_655 S
C400 C401 1.329 1_655 S
C401 C371 1.437 . S
C401 H372 0.929 1_455 S
C401 C400 1.329 1_455 S
H402 C375 0.931 . S
C403 O385 1.265 . S
C403 O386 1.242 . S
C404 O389 1.261 . S
C404 O390 1.252 . S
C405 C408 1.394 . S
C405 C410 1.370 . S
C405 C411 1.500 . S
C406 C409 1.383 . S
C406 C410 1.395 . S
C407 C408 1.396 . S
C407 C409 1.365 . S
C407 H416 0.929 . S
C408 C405 1.394 . S
C408 C407 1.396 . S
C408 H417 0.930 . S
C409 C406 1.383 . S
C409 C407 1.365 . S
C409 H418 0.931 . S
C410 C405 1.370 . S
C410 C406 1.395 . S
C410 H419 0.930 . S
C411 Gd347 2.805 . S
C411 O387 1.263 . S
C411 O388 1.252 . S
C411 C405 1.500 . S
H412 C395 0.929 . S
H413 C396 0.930 . S
H414 C397 0.931 . S
H415 C398 0.930 . S
H416 C407 0.929 . S
H417 C408 0.930 . S
H418 C409 0.931 . S
H419 C410 0.930 . S
C420 C422 1.422 . S
C420 C424 1.415 . S
C420 N426 1.369 . S
C421 C422 1.421 . S
C421 C423 1.417 . S
C421 C433 1.422 . S
C422 C420 1.422 . S
C422 C421 1.421 . S
C422 N432 1.359 . S
C423 C421 1.417 . S
C423 C425 1.329 . S
C423 H442 0.930 . S
C424 C420 1.415 . S
C424 C425 1.437 . S
C424 C428 1.413 . S
C425 C423 1.329 . S
C425 C424 1.437 . S
C425 H447 0.929 . S
N426 C420 1.369 . S
N426 C427 1.338 . S
N426 Gd431 2.622 . S
C427 N426 1.338 . S
C427 C429 1.378 . S
C427 H439 0.929 . S
C428 C424 1.413 . S
C428 C429 1.348 . S
C428 H444 0.931 . S
C429 C427 1.378 . S
C429 C428 1.348 . S
C429 H445 0.930 . S
Gd430 N450 2.622 . S
Gd430 N457 2.570 . S
Gd430 O464 2.353 . S
Gd430 O465 2.468 . S
Gd430 O466 2.427 . S
Gd430 O468 2.388 . S
Gd430 O469 2.386 . S
Gd430 O473 2.307 . S
Gd430 C483 2.805 . S
Gd431 N426 2.622 . S
Gd431 N432 2.570 . S
Gd431 O463 2.386 . S
Gd431 O467 2.307 . S
Gd431 O470 2.353 . S
Gd431 O471 2.468 . S
Gd431 O472 2.427 . S
Gd431 O474 2.388 . S
Gd431 C495 2.805 . S
N432 C422 1.359 . S
N432 Gd431 2.570 . S
N432 C434 1.343 . S
C433 C421 1.422 . S
C433 C435 1.321 . S
C433 H441 0.931 . S
C434 N432 1.343 . S
C434 C435 1.390 . S
C434 H436 0.931 . S
C435 C433 1.321 . S
C435 C434 1.390 . S
C435 H437 0.930 . S
H436 C434 0.931 . S
H437 C435 0.930 . S
H438 C461 0.931 . S
H439 C427 0.929 . S
H440 C462 0.930 1_565 S
H441 C433 0.931 . S
H442 C423 0.930 . S
H443 C452 0.929 . S
H444 C428 0.931 . S
H445 C429 0.930 . S
H446 C484 0.930 . S
H447 C425 0.929 . S
H448 C453 0.931 . S
H449 C454 0.930 . S
N450 Gd430 2.622 . S
N450 C451 1.369 . S
N450 C452 1.338 . S
C451 N450 1.369 . S
C451 C455 1.415 . S
C451 C458 1.422 . S
C452 H443 0.929 . S
C452 N450 1.338 . S
C452 C454 1.378 . S
C453 H448 0.931 . S
C453 C454 1.348 . S
C453 C455 1.413 . S
C454 H449 0.930 . S
C454 C452 1.378 . S
C454 C453 1.348 . S
C455 C451 1.415 . S
C455 C453 1.413 . S
C455 C485 1.437 . S
H456 C485 0.929 1_565 S
N457 Gd430 2.570 . S
N457 C458 1.359 . S
N457 C461 1.343 . S
C458 C451 1.422 . S
C458 N457 1.359 . S
C458 C460 1.421 . S
C459 C460 1.422 1_565 S
C459 C462 1.321 1_565 S
C459 H486 0.931 . S
C460 C458 1.421 . S
C460 C459 1.422 1_545 S
C460 C484 1.417 1_545 S
C461 H438 0.931 . S
C461 N457 1.343 . S
C461 C462 1.390 . S
C462 H440 0.930 1_545 S
C462 C459 1.321 1_545 S
C462 C461 1.390 . S
O463 Gd431 2.386 . S
O463 C475 1.265 . S
O464 Gd430 2.353 . S
O464 C475 1.242 . S
O465 Gd430 2.468 . S
O465 C483 1.263 . S
O466 Gd430 2.427 . S
O466 C483 1.252 . S
O467 Gd431 2.307 . S
O467 C476 1.261 . S
O468 Gd430 2.388 . S
O468 C476 1.252 . S
O469 Gd430 2.386 . S
O469 C487 1.265 . S
O470 Gd431 2.353 . S
O470 C487 1.242 . S
O471 Gd431 2.468 . S
O471 C495 1.263 . S
O472 Gd431 2.427 . S
O472 C495 1.252 . S
O473 Gd430 2.307 . S
O473 C488 1.261 . S
O474 Gd431 2.388 . S
O474 C488 1.252 . S
C475 O463 1.265 . S
C475 O464 1.242 . S
C476 O467 1.261 . S
C476 O468 1.252 . S
C477 C480 1.394 . S
C477 C482 1.370 . S
C477 C483 1.500 1_565 S
C478 C481 1.383 . S
C478 C482 1.395 . S
C479 C480 1.396 . S
C479 C481 1.365 . S
C479 H496 0.929 . S
C480 C477 1.394 . S
C480 C479 1.396 . S
C480 H497 0.930 . S
C481 C478 1.383 . S
C481 C479 1.365 . S
C481 H498 0.931 . S
C482 C477 1.370 . S
C482 C478 1.395 . S
C482 H499 0.930 . S
C483 Gd430 2.805 . S
C483 O465 1.263 . S
C483 O466 1.252 . S
C483 C477 1.500 1_545 S
C484 H446 0.930 . S
C484 C460 1.417 1_565 S
C484 C485 1.329 1_565 S
C485 C455 1.437 . S
C485 H456 0.929 1_545 S
C485 C484 1.329 1_545 S
H486 C459 0.931 . S
C487 O469 1.265 . S
C487 O470 1.242 . S
C488 O473 1.261 . S
C488 O474 1.252 . S
C489 C492 1.394 . S
C489 C494 1.370 . S
C489 C495 1.500 . S
C490 C493 1.383 . S
C490 C494 1.395 . S
C491 C492 1.396 . S
C491 C493 1.365 . S
C491 H500 0.929 . S
C492 C489 1.394 . S
C492 C491 1.396 . S
C492 H501 0.930 . S
C493 C490 1.383 . S
C493 C491 1.365 . S
C493 H502 0.931 . S
C494 C489 1.370 . S
C494 C490 1.395 . S
C494 H503 0.930 . S
C495 Gd431 2.805 . S
C495 O471 1.263 . S
C495 O472 1.252 . S
C495 C489 1.500 . S
H496 C479 0.929 . S
H497 C480 0.930 . S
H498 C481 0.931 . S
H499 C482 0.930 . S
H500 C491 0.929 . S
H501 C492 0.930 . S
H502 C493 0.931 . S
H503 C494 0.930 . S
C504 C506 1.422 . S
C504 C508 1.415 . S
C504 N510 1.369 . S
C505 C506 1.421 . S
C505 C507 1.417 . S
C505 C517 1.422 . S
C506 C504 1.422 . S
C506 C505 1.421 . S
C506 N516 1.359 . S
C507 C505 1.417 . S
C507 C509 1.329 . S
C507 H526 0.930 1_565 S
C508 C504 1.415 . S
C508 C509 1.437 . S
C508 C512 1.413 . S
C509 C507 1.329 . S
C509 C508 1.437 . S
C509 H531 0.929 1_565 S
N510 C504 1.369 . S
N510 C511 1.338 . S
N510 Gd515 2.622 . S
C511 N510 1.338 . S
C511 C513 1.378 . S
C511 H523 0.929 . S
C512 C508 1.413 . S
C512 C513 1.348 . S
C512 H528 0.931 . S
C513 C511 1.378 . S
C513 C512 1.348 . S
C513 H529 0.930 . S
Gd514 N534 2.622 . S
Gd514 N541 2.570 . S
Gd514 O548 2.353 . S
Gd514 O549 2.468 . S
Gd514 O550 2.427 . S
Gd514 O552 2.388 . S
Gd514 O553 2.386 . S
Gd514 O557 2.307 . S
Gd514 C567 2.805 . S
Gd515 N510 2.622 . S
Gd515 N516 2.570 . S
Gd515 O547 2.386 . S
Gd515 O551 2.307 . S
Gd515 O554 2.353 . S
Gd515 O555 2.468 . S
Gd515 O556 2.427 . S
Gd515 O558 2.388 . S
Gd515 C579 2.805 . S
N516 C506 1.359 . S
N516 Gd515 2.570 . S
N516 C518 1.343 . S
C517 C505 1.422 . S
C517 C519 1.321 . S
C517 H525 0.931 1_565 S
C518 N516 1.343 . S
C518 C519 1.390 . S
C518 H520 0.931 . S
C519 C517 1.321 . S
C519 C518 1.390 . S
C519 H521 0.930 . S
H520 C518 0.931 . S
H521 C519 0.930 . S
H522 C545 0.931 . S
H523 C511 0.929 . S
H524 C546 0.930 . S
H525 C517 0.931 1_545 S
H526 C507 0.930 1_545 S
H527 C536 0.929 . S
H528 C512 0.931 . S
H529 C513 0.930 . S
H530 C568 0.930 . S
H531 C509 0.929 1_545 S
H532 C537 0.931 . S
H533 C538 0.930 . S
N534 Gd514 2.622 . S
N534 C535 1.369 . S
N534 C536 1.338 . S
C535 N534 1.369 . S
C535 C539 1.415 . S
C535 C542 1.422 . S
C536 H527 0.929 . S
C536 N534 1.338 . S
C536 C538 1.378 . S
C537 H532 0.931 . S
C537 C538 1.348 . S
C537 C539 1.413 . S
C538 H533 0.930 . S
C538 C536 1.378 . S
C538 C537 1.348 . S
C539 C535 1.415 . S
C539 C537 1.413 . S
C539 C569 1.437 . S
H540 C569 0.929 . S
N541 Gd514 2.570 . S
N541 C542 1.359 . S
N541 C545 1.343 . S
C542 C535 1.422 . S
C542 N541 1.359 . S
C542 C544 1.421 . S
C543 C544 1.422 . S
C543 C546 1.321 . S
C543 H570 0.931 . S
C544 C542 1.421 . S
C544 C543 1.422 . S
C544 C568 1.417 . S
C545 H522 0.931 . S
C545 N541 1.343 . S
C545 C546 1.390 . S
C546 H524 0.930 . S
C546 C543 1.321 . S
C546 C545 1.390 . S
O547 Gd515 2.386 . S
O547 C559 1.265 . S
O548 Gd514 2.353 . S
O548 C559 1.242 . S
O549 Gd514 2.468 . S
O549 C567 1.263 . S
O550 Gd514 2.427 . S
O550 C567 1.252 . S
O551 Gd515 2.307 . S
O551 C560 1.261 . S
O552 Gd514 2.388 . S
O552 C560 1.252 . S
O553 Gd514 2.386 . S
O553 C571 1.265 . S
O554 Gd515 2.353 . S
O554 C571 1.242 . S
O555 Gd515 2.468 . S
O555 C579 1.263 . S
O556 Gd515 2.427 . S
O556 C579 1.252 . S
O557 Gd514 2.307 . S
O557 C572 1.261 . S
O558 Gd515 2.388 . S
O558 C572 1.252 . S
C559 O547 1.265 . S
C559 O548 1.242 . S
C560 O551 1.261 . S
C560 O552 1.252 . S
C561 C564 1.394 . S
C561 C566 1.370 . S
C561 C567 1.500 . S
C562 C565 1.383 . S
C562 C566 1.395 . S
C563 C564 1.396 . S
C563 C565 1.365 . S
C563 H580 0.929 . S
C564 C561 1.394 . S
C564 C563 1.396 . S
C564 H581 0.930 . S
C565 C562 1.383 . S
C565 C563 1.365 . S
C565 H582 0.931 . S
C566 C561 1.370 . S
C566 C562 1.395 . S
C566 H583 0.930 . S
C567 Gd514 2.805 . S
C567 O549 1.263 . S
C567 O550 1.252 . S
C567 C561 1.500 . S
C568 H530 0.930 . S
C568 C544 1.417 . S
C568 C569 1.329 . S
C569 C539 1.437 . S
C569 H540 0.929 . S
C569 C568 1.329 . S
H570 C543 0.931 . S
C571 O553 1.265 . S
C571 O554 1.242 . S
C572 O557 1.261 . S
C572 O558 1.252 . S
C573 C576 1.394 . S
C573 C578 1.370 . S
C573 C579 1.500 . S
C574 C577 1.383 . S
C574 C578 1.395 . S
C575 C576 1.396 . S
C575 C577 1.365 . S
C575 H584 0.929 . S
C576 C573 1.394 . S
C576 C575 1.396 . S
C576 H585 0.930 . S
C577 C574 1.383 . S
C577 C575 1.365 . S
C577 H586 0.931 . S
C578 C573 1.370 . S
C578 C574 1.395 . S
C578 H587 0.930 . S
C579 Gd515 2.805 . S
C579 O555 1.263 . S
C579 O556 1.252 . S
C579 C573 1.500 . S
H580 C563 0.929 . S
H581 C564 0.930 . S
H582 C565 0.931 . S
H583 C566 0.930 . S
H584 C575 0.929 . S
H585 C576 0.930 . S
H586 C577 0.931 . S
H587 C578 0.930 . S
C588 C590 1.422 . S
C588 C592 1.415 . S
C588 N594 1.369 . S
C589 C590 1.421 . S
C589 C591 1.417 . S
C589 C601 1.422 . S
C590 C588 1.422 . S
C590 C589 1.421 . S
C590 N600 1.359 . S
C591 C589 1.417 . S
C591 C593 1.329 . S
C591 H610 0.930 . S
C592 C588 1.415 . S
C592 C593 1.437 . S
C592 C596 1.413 . S
C593 C591 1.329 . S
C593 C592 1.437 . S
C593 H615 0.929 . S
N594 C588 1.369 . S
N594 C595 1.338 . S
N594 Gd599 2.622 . S
C595 N594 1.338 . S
C595 C597 1.378 . S
C595 H607 0.929 . S
C596 C592 1.413 . S
C596 C597 1.348 . S
C596 H612 0.931 . S
C597 C595 1.378 . S
C597 C596 1.348 . S
C597 H613 0.930 1_556 S
Gd598 N618 2.622 . S
Gd598 N625 2.570 . S
Gd598 O632 2.353 . S
Gd598 O633 2.468 . S
Gd598 O634 2.427 . S
Gd598 O636 2.388 . S
Gd598 O637 2.386 . S
Gd598 O641 2.307 . S
Gd598 C651 2.805 . S
Gd599 N594 2.622 . S
Gd599 N600 2.570 . S
Gd599 O631 2.386 . S
Gd599 O635 2.307 . S
Gd599 O638 2.353 . S
Gd599 O639 2.468 . S
Gd599 O640 2.427 . S
Gd599 O642 2.388 . S
Gd599 C663 2.805 . S
N600 C590 1.359 . S
N600 Gd599 2.570 . S
N600 C602 1.343 . S
C601 C589 1.422 . S
C601 C603 1.321 . S
C601 H609 0.931 . S
C602 N600 1.343 . S
C602 C603 1.390 . S
C602 H604 0.931 . S
C603 C601 1.321 . S
C603 C602 1.390 . S
C603 H605 0.930 . S
H604 C602 0.931 . S
H605 C603 0.930 . S
H606 C629 0.931 . S
H607 C595 0.929 . S
H608 C630 0.930 1_455 S
H609 C601 0.931 . S
H610 C591 0.930 . S
H611 C620 0.929 . S
H612 C596 0.931 . S
H613 C597 0.930 1_554 S
H614 C652 0.930 . S
H615 C593 0.929 . S
H616 C621 0.931 . S
H617 C622 0.930 . S
N618 Gd598 2.622 . S
N618 C619 1.369 . S
N618 C620 1.338 . S
C619 N618 1.369 . S
C619 C623 1.415 . S
C619 C626 1.422 . S
C620 H611 0.929 . S
C620 N618 1.338 . S
C620 C622 1.378 . S
C621 H616 0.931 . S
C621 C622 1.348 . S
C621 C623 1.413 . S
C622 H617 0.930 . S
C622 C620 1.378 . S
C622 C621 1.348 . S
C623 C619 1.415 . S
C623 C621 1.413 . S
C623 C653 1.437 . S
H624 C653 0.929 1_455 S
N625 Gd598 2.570 . S
N625 C626 1.359 . S
N625 C629 1.343 . S
C626 C619 1.422 . S
C626 N625 1.359 . S
C626 C628 1.421 . S
C627 C628 1.422 1_455 S
C627 C630 1.321 1_455 S
C627 H654 0.931 . S
C628 C626 1.421 . S
C628 C627 1.422 1_655 S
C628 C652 1.417 1_655 S
C629 H606 0.931 . S
C629 N625 1.343 . S
C629 C630 1.390 . S
C630 H608 0.930 1_655 S
C630 C627 1.321 1_655 S
C630 C629 1.390 . S
O631 Gd599 2.386 . S
O631 C643 1.265 . S
O632 Gd598 2.353 . S
O632 C643 1.242 . S
O633 Gd598 2.468 . S
O633 C651 1.263 . S
O634 Gd598 2.427 . S
O634 C651 1.252 . S
O635 Gd599 2.307 . S
O635 C644 1.261 . S
O636 Gd598 2.388 . S
O636 C644 1.252 . S
O637 Gd598 2.386 . S
O637 C655 1.265 . S
O638 Gd599 2.353 . S
O638 C655 1.242 . S
O639 Gd599 2.468 . S
O639 C663 1.263 . S
O640 Gd599 2.427 . S
O640 C663 1.252 . S
O641 Gd598 2.307 . S
O641 C656 1.261 . S
O642 Gd599 2.388 . S
O642 C656 1.252 . S
C643 O631 1.265 . S
C643 O632 1.242 . S
C644 O635 1.261 . S
C644 O636 1.252 . S
C645 C648 1.394 . S
C645 C650 1.370 . S
C645 C651 1.500 1_455 S
C646 C649 1.383 . S
C646 C650 1.395 . S
C647 C648 1.396 . S
C647 C649 1.365 . S
C647 H664 0.929 . S
C648 C645 1.394 . S
C648 C647 1.396 . S
C648 H665 0.930 . S
C649 C646 1.383 . S
C649 C647 1.365 . S
C649 H666 0.931 . S
C650 C645 1.370 . S
C650 C646 1.395 . S
C650 H667 0.930 . S
C651 Gd598 2.805 . S
C651 O633 1.263 . S
C651 O634 1.252 . S
C651 C645 1.500 1_655 S
C652 H614 0.930 . S
C652 C628 1.417 1_455 S
C652 C653 1.329 1_455 S
C653 C623 1.437 . S
C653 H624 0.929 1_655 S
C653 C652 1.329 1_655 S
H654 C627 0.931 . S
C655 O637 1.265 . S
C655 O638 1.242 . S
C656 O641 1.261 . S
C656 O642 1.252 . S
C657 C660 1.394 . S
C657 C662 1.370 . S
C657 C663 1.500 . S
C658 C661 1.383 . S
C658 C662 1.395 . S
C659 C660 1.396 . S
C659 C661 1.365 . S
C659 H668 0.929 . S
C660 C657 1.394 . S
C660 C659 1.396 . S
C660 H669 0.930 . S
C661 C658 1.383 . S
C661 C659 1.365 . S
C661 H670 0.931 . S
C662 C657 1.370 . S
C662 C658 1.395 . S
C662 H671 0.930 . S
C663 Gd599 2.805 . S
C663 O639 1.263 . S
C663 O640 1.252 . S
C663 C657 1.500 . S
H664 C647 0.929 . S
H665 C648 0.930 . S
H666 C649 0.931 . S
H667 C650 0.930 . S
H668 C659 0.929 . S
H669 C660 0.930 . S
H670 C661 0.931 . S
H671 C662 0.930 . S
C672 C674 1.422 . S
C672 C676 1.415 . S
C672 N678 1.369 . S
C673 C674 1.421 . S
C673 C675 1.417 . S
C673 C685 1.422 . S
C674 C672 1.422 . S
C674 C673 1.421 . S
C674 N684 1.359 . S
C675 C673 1.417 . S
C675 C677 1.329 . S
C675 H694 0.930 1_455 S
C676 C672 1.415 . S
C676 C677 1.437 . S
C676 C680 1.413 . S
C677 C675 1.329 . S
C677 C676 1.437 . S
C677 H699 0.929 1_455 S
N678 C672 1.369 . S
N678 C679 1.338 . S
N678 Gd683 2.622 . S
C679 N678 1.338 . S
C679 C681 1.378 . S
C679 H691 0.929 . S
C680 C676 1.413 . S
C680 C681 1.348 . S
C680 H696 0.931 . S
C681 C679 1.378 . S
C681 C680 1.348 . S
C681 H697 0.930 . S
Gd682 N702 2.622 . S
Gd682 N709 2.570 . S
Gd682 O716 2.353 . S
Gd682 O717 2.468 . S
Gd682 O718 2.427 . S
Gd682 O720 2.388 . S
Gd682 O721 2.386 . S
Gd682 O725 2.307 . S
Gd682 C735 2.805 . S
Gd683 N678 2.622 . S
Gd683 N684 2.570 . S
Gd683 O715 2.386 . S
Gd683 O719 2.307 . S
Gd683 O722 2.353 . S
Gd683 O723 2.468 . S
Gd683 O724 2.427 . S
Gd683 O726 2.388 . S
Gd683 C747 2.805 . S
N684 C674 1.359 . S
N684 Gd683 2.570 . S
N684 C686 1.343 . S
C685 C673 1.422 . S
C685 C687 1.321 . S
C685 H693 0.931 1_455 S
C686 N684 1.343 . S
C686 C687 1.390 . S
C686 H688 0.931 . S
C687 C685 1.321 . S
C687 C686 1.390 . S
C687 H689 0.930 . S
H688 C686 0.931 . S
H689 C687 0.930 . S
H690 C713 0.931 . S
H691 C679 0.929 . S
H692 C714 0.930 1_545 S
H693 C685 0.931 1_655 S
H694 C675 0.930 1_655 S
H695 C704 0.929 . S
H696 C680 0.931 . S
H697 C681 0.930 . S
H698 C736 0.930 . S
H699 C677 0.929 1_655 S
H700 C705 0.931 . S
H701 C706 0.930 . S
N702 Gd682 2.622 . S
N702 C703 1.369 . S
N702 C704 1.338 . S
C703 N702 1.369 . S
C703 C707 1.415 . S
C703 C710 1.422 . S
C704 H695 0.929 . S
C704 N702 1.338 . S
C704 C706 1.378 . S
C705 H700 0.931 . S
C705 C706 1.348 . S
C705 C707 1.413 . S
C706 H701 0.930 . S
C706 C704 1.378 . S
C706 C705 1.348 . S
C707 C703 1.415 . S
C707 C705 1.413 . S
C707 C737 1.437 . S
H708 C737 0.929 1_545 S
N709 Gd682 2.570 . S
N709 C710 1.359 . S
N709 C713 1.343 . S
C710 C703 1.422 . S
C710 N709 1.359 . S
C710 C712 1.421 . S
C711 C712 1.422 1_545 S
C711 C714 1.321 1_545 S
C711 H738 0.931 . S
C712 C710 1.421 . S
C712 C711 1.422 1_565 S
C712 C736 1.417 1_565 S
C713 H690 0.931 . S
C713 N709 1.343 . S
C713 C714 1.390 . S
C714 H692 0.930 1_565 S
C714 C711 1.321 1_565 S
C714 C713 1.390 . S
O715 Gd683 2.386 . S
O715 C727 1.265 . S
O716 Gd682 2.353 . S
O716 C727 1.242 . S
O717 Gd682 2.468 . S
O717 C735 1.263 . S
O718 Gd682 2.427 . S
O718 C735 1.252 . S
O719 Gd683 2.307 . S
O719 C728 1.261 . S
O720 Gd682 2.388 . S
O720 C728 1.252 . S
O721 Gd682 2.386 . S
O721 C739 1.265 . S
O722 Gd683 2.353 . S
O722 C739 1.242 . S
O723 Gd683 2.468 . S
O723 C747 1.263 . S
O724 Gd683 2.427 . S
O724 C747 1.252 . S
O725 Gd682 2.307 . S
O725 C740 1.261 . S
O726 Gd683 2.388 . S
O726 C740 1.252 . S
C727 O715 1.265 . S
C727 O716 1.242 . S
C728 O719 1.261 . S
C728 O720 1.252 . S
C729 C732 1.394 . S
C729 C734 1.370 . S
C729 C735 1.500 1_545 S
C730 C733 1.383 . S
C730 C734 1.395 . S
C731 C732 1.396 . S
C731 C733 1.365 . S
C731 H748 0.929 . S
C732 C729 1.394 . S
C732 C731 1.396 . S
C732 H749 0.930 . S
C733 C730 1.383 . S
C733 C731 1.365 . S
C733 H750 0.931 . S
C734 C729 1.370 . S
C734 C730 1.395 . S
C734 H751 0.930 . S
C735 Gd682 2.805 . S
C735 O717 1.263 . S
C735 O718 1.252 . S
C735 C729 1.500 1_565 S
C736 H698 0.930 . S
C736 C712 1.417 1_545 S
C736 C737 1.329 1_545 S
C737 C707 1.437 . S
C737 H708 0.929 1_565 S
C737 C736 1.329 1_565 S
H738 C711 0.931 . S
C739 O721 1.265 . S
C739 O722 1.242 . S
C740 O725 1.261 . S
C740 O726 1.252 . S
C741 C744 1.394 . S
C741 C746 1.370 . S
C741 C747 1.500 . S
C742 C745 1.383 . S
C742 C746 1.395 . S
C743 C744 1.396 . S
C743 C745 1.365 . S
C743 H752 0.929 . S
C744 C741 1.394 . S
C744 C743 1.396 . S
C744 H753 0.930 . S
C745 C742 1.383 . S
C745 C743 1.365 . S
C745 H754 0.931 . S
C746 C741 1.370 . S
C746 C742 1.395 . S
C746 H755 0.930 . S
C747 Gd683 2.805 . S
C747 O723 1.263 . S
C747 O724 1.252 . S
C747 C741 1.500 . S
H748 C731 0.929 . S
H749 C732 0.930 . S
H750 C733 0.931 . S
H751 C734 0.930 . S
H752 C743 0.929 . S
H753 C744 0.930 . S
H754 C745 0.931 . S
H755 C746 0.930 . S
C756 C758 1.422 . S
C756 C760 1.415 . S
C756 N762 1.369 . S
C757 C758 1.421 . S
C757 C759 1.417 . S
C757 C769 1.422 . S
C758 C756 1.422 . S
C758 C757 1.421 . S
C758 N768 1.359 . S
C759 C757 1.417 . S
C759 C761 1.329 . S
C759 H778 0.930 1_545 S
C760 C756 1.415 . S
C760 C761 1.437 . S
C760 C764 1.413 . S
C761 C759 1.329 . S
C761 C760 1.437 . S
C761 H783 0.929 1_545 S
N762 C756 1.369 . S
N762 C763 1.338 . S
N762 Gd767 2.622 . S
C763 N762 1.338 . S
C763 C765 1.378 . S
C763 H775 0.929 . S
C764 C760 1.413 . S
C764 C765 1.348 . S
C764 H780 0.931 . S
C765 C763 1.378 . S
C765 C764 1.348 . S
C765 H781 0.930 1_556 S
Gd766 N786 2.622 . S
Gd766 N793 2.570 . S
Gd766 O800 2.353 . S
Gd766 O801 2.468 . S
Gd766 O802 2.427 . S
Gd766 O804 2.388 . S
Gd766 O805 2.386 . S
Gd766 O809 2.307 . S
Gd766 C819 2.805 . S
Gd767 N762 2.622 . S
Gd767 N768 2.570 . S
Gd767 O799 2.386 . S
Gd767 O803 2.307 . S
Gd767 O806 2.353 . S
Gd767 O807 2.468 . S
Gd767 O808 2.427 . S
Gd767 O810 2.388 . S
Gd767 C831 2.805 . S
N768 C758 1.359 . S
N768 Gd767 2.570 . S
N768 C770 1.343 . S
C769 C757 1.422 . S
C769 C771 1.321 . S
C769 H777 0.931 1_545 S
C770 N768 1.343 . S
C770 C771 1.390 . S
C770 H772 0.931 . S
C771 C769 1.321 . S
C771 C770 1.390 . S
C771 H773 0.930 . S
H772 C770 0.931 . S
H773 C771 0.930 . S
H774 C797 0.931 . S
H775 C763 0.929 . S
H776 C798 0.930 . S
H777 C769 0.931 1_565 S
H778 C759 0.930 1_565 S
H779 C788 0.929 . S
H780 C764 0.931 . S
H781 C765 0.930 1_554 S
H782 C820 0.930 . S
H783 C761 0.929 1_565 S
H784 C789 0.931 . S
H785 C790 0.930 . S
N786 Gd766 2.622 . S
N786 C787 1.369 . S
N786 C788 1.338 . S
C787 N786 1.369 . S
C787 C791 1.415 . S
C787 C794 1.422 . S
C788 H779 0.929 . S
C788 N786 1.338 . S
C788 C790 1.378 . S
C789 H784 0.931 . S
C789 C790 1.348 . S
C789 C791 1.413 . S
C790 H785 0.930 . S
C790 C788 1.378 . S
C790 C789 1.348 . S
C791 C787 1.415 . S
C791 C789 1.413 . S
C791 C821 1.437 . S
H792 C821 0.929 . S
N793 Gd766 2.570 . S
N793 C794 1.359 . S
N793 C797 1.343 . S
C794 C787 1.422 . S
C794 N793 1.359 . S
C794 C796 1.421 . S
C795 C796 1.422 . S
C795 C798 1.321 . S
C795 H822 0.931 . S
C796 C794 1.421 . S
C796 C795 1.422 . S
C796 C820 1.417 . S
C797 H774 0.931 . S
C797 N793 1.343 . S
C797 C798 1.390 . S
C798 H776 0.930 . S
C798 C795 1.321 . S
C798 C797 1.390 . S
O799 Gd767 2.386 . S
O799 C811 1.265 . S
O800 Gd766 2.353 . S
O800 C811 1.242 . S
O801 Gd766 2.468 . S
O801 C819 1.263 . S
O802 Gd766 2.427 . S
O802 C819 1.252 . S
O803 Gd767 2.307 . S
O803 C812 1.261 . S
O804 Gd766 2.388 . S
O804 C812 1.252 . S
O805 Gd766 2.386 . S
O805 C823 1.265 . S
O806 Gd767 2.353 . S
O806 C823 1.242 . S
O807 Gd767 2.468 . S
O807 C831 1.263 . S
O808 Gd767 2.427 . S
O808 C831 1.252 . S
O809 Gd766 2.307 . S
O809 C824 1.261 . S
O810 Gd767 2.388 . S
O810 C824 1.252 . S
C811 O799 1.265 . S
C811 O800 1.242 . S
C812 O803 1.261 . S
C812 O804 1.252 . S
C813 C816 1.394 . S
C813 C818 1.370 . S
C813 C819 1.500 . S
C814 C817 1.383 . S
C814 C818 1.395 . S
C815 C816 1.396 . S
C815 C817 1.365 . S
C815 H832 0.929 . S
C816 C813 1.394 . S
C816 C815 1.396 . S
C816 H833 0.930 . S
C817 C814 1.383 . S
C817 C815 1.365 . S
C817 H834 0.931 . S
C818 C813 1.370 . S
C818 C814 1.395 . S
C818 H835 0.930 . S
C819 Gd766 2.805 . S
C819 O801 1.263 . S
C819 O802 1.252 . S
C819 C813 1.500 . S
C820 H782 0.930 . S
C820 C796 1.417 . S
C820 C821 1.329 . S
C821 C791 1.437 . S
C821 H792 0.929 . S
C821 C820 1.329 . S
H822 C795 0.931 . S
C823 O805 1.265 . S
C823 O806 1.242 . S
C824 O809 1.261 . S
C824 O810 1.252 . S
C825 C828 1.394 . S
C825 C830 1.370 . S
C825 C831 1.500 . S
C826 C829 1.383 . S
C826 C830 1.395 . S
C827 C828 1.396 . S
C827 C829 1.365 . S
C827 H836 0.929 . S
C828 C825 1.394 . S
C828 C827 1.396 . S
C828 H837 0.930 . S
C829 C826 1.383 . S
C829 C827 1.365 . S
C829 H838 0.931 . S
C830 C825 1.370 . S
C830 C826 1.395 . S
C830 H839 0.930 . S
C831 Gd767 2.805 . S
C831 O807 1.263 . S
C831 O808 1.252 . S
C831 C825 1.500 . S
H832 C815 0.929 . S
H833 C816 0.930 . S
H834 C817 0.931 . S
H835 C818 0.930 . S
H836 C827 0.929 . S
H837 C828 0.930 . S
H838 C829 0.931 . S
H839 C830 0.930 . S
C840 C842 1.422 . S
C840 C844 1.415 . S
C840 N846 1.369 . S
C841 C842 1.421 . S
C841 C843 1.417 . S
C841 C853 1.422 . S
C842 C840 1.422 . S
C842 C841 1.421 . S
C842 N852 1.359 . S
C843 C841 1.417 . S
C843 C845 1.329 . S
C843 H862 0.930 . S
C844 C840 1.415 . S
C844 C845 1.437 . S
C844 C848 1.413 . S
C845 C843 1.329 . S
C845 C844 1.437 . S
C845 H867 0.929 . S
N846 C840 1.369 . S
N846 C847 1.338 . S
N846 Gd851 2.622 . S
C847 N846 1.338 . S
C847 C849 1.378 . S
C847 H859 0.929 . S
C848 C844 1.413 . S
C848 C849 1.348 . S
C848 H864 0.931 . S
C849 C847 1.378 . S
C849 C848 1.348 . S
C849 H865 0.930 . S
Gd850 N870 2.622 . S
Gd850 N877 2.570 . S
Gd850 O884 2.353 . S
Gd850 O885 2.468 . S
Gd850 O886 2.427 . S
Gd850 O888 2.388 . S
Gd850 O889 2.386 . S
Gd850 O893 2.307 . S
Gd850 C903 2.805 . S
Gd851 N846 2.622 . S
Gd851 N852 2.570 . S
Gd851 O883 2.386 . S
Gd851 O887 2.307 . S
Gd851 O890 2.353 . S
Gd851 O891 2.468 . S
Gd851 O892 2.427 . S
Gd851 O894 2.388 . S
Gd851 C915 2.805 . S
N852 C842 1.359 . S
N852 Gd851 2.570 . S
N852 C854 1.343 . S
C853 C841 1.422 . S
C853 C855 1.321 . S
C853 H861 0.931 . S
C854 N852 1.343 . S
C854 C855 1.390 . S
C854 H856 0.931 . S
C855 C853 1.321 . S
C855 C854 1.390 . S
C855 H857 0.930 . S
H856 C854 0.931 . S
H857 C855 0.930 . S
H858 C881 0.931 . S
H859 C847 0.929 . S
H860 C882 0.930 1_655 S
H861 C853 0.931 . S
H862 C843 0.930 . S
H863 C872 0.929 . S
H864 C848 0.931 . S
H865 C849 0.930 . S
H866 C904 0.930 . S
H867 C845 0.929 . S
H868 C873 0.931 . S
H869 C874 0.930 . S
N870 Gd850 2.622 . S
N870 C871 1.369 . S
N870 C872 1.338 . S
C871 N870 1.369 . S
C871 C875 1.415 . S
C871 C878 1.422 . S
C872 H863 0.929 . S
C872 N870 1.338 . S
C872 C874 1.378 . S
C873 H868 0.931 . S
C873 C874 1.348 . S
C873 C875 1.413 . S
C874 H869 0.930 . S
C874 C872 1.378 . S
C874 C873 1.348 . S
C875 C871 1.415 . S
C875 C873 1.413 . S
C875 C905 1.437 . S
H876 C905 0.929 1_655 S
N877 Gd850 2.570 . S
N877 C878 1.359 . S
N877 C881 1.343 . S
C878 C871 1.422 . S
C878 N877 1.359 . S
C878 C880 1.421 . S
C879 C880 1.422 1_655 S
C879 C882 1.321 1_655 S
C879 H906 0.931 . S
C880 C878 1.421 . S
C880 C879 1.422 1_455 S
C880 C904 1.417 1_455 S
C881 H858 0.931 . S
C881 N877 1.343 . S
C881 C882 1.390 . S
C882 H860 0.930 1_455 S
C882 C879 1.321 1_455 S
C882 C881 1.390 . S
O883 Gd851 2.386 . S
O883 C895 1.265 . S
O884 Gd850 2.353 . S
O884 C895 1.242 . S
O885 Gd850 2.468 . S
O885 C903 1.263 . S
O886 Gd850 2.427 . S
O886 C903 1.252 . S
O887 Gd851 2.307 . S
O887 C896 1.261 . S
O888 Gd850 2.388 . S
O888 C896 1.252 . S
O889 Gd850 2.386 . S
O889 C907 1.265 . S
O890 Gd851 2.353 . S
O890 C907 1.242 . S
O891 Gd851 2.468 . S
O891 C915 1.263 . S
O892 Gd851 2.427 . S
O892 C915 1.252 . S
O893 Gd850 2.307 . S
O893 C908 1.261 . S
O894 Gd851 2.388 . S
O894 C908 1.252 . S
C895 O883 1.265 . S
C895 O884 1.242 . S
C896 O887 1.261 . S
C896 O888 1.252 . S
C897 C900 1.394 . S
C897 C902 1.370 . S
C897 C903 1.500 1_655 S
C898 C901 1.383 . S
C898 C902 1.395 . S
C899 C900 1.396 . S
C899 C901 1.365 . S
C899 H916 0.929 . S
C900 C897 1.394 . S
C900 C899 1.396 . S
C900 H917 0.930 . S
C901 C898 1.383 . S
C901 C899 1.365 . S
C901 H918 0.931 . S
C902 C897 1.370 . S
C902 C898 1.395 . S
C902 H919 0.930 . S
C903 Gd850 2.805 . S
C903 O885 1.263 . S
C903 O886 1.252 . S
C903 C897 1.500 1_455 S
C904 H866 0.930 . S
C904 C880 1.417 1_655 S
C904 C905 1.329 1_655 S
C905 C875 1.437 . S
C905 H876 0.929 1_455 S
C905 C904 1.329 1_455 S
H906 C879 0.931 . S
C907 O889 1.265 . S
C907 O890 1.242 . S
C908 O893 1.261 . S
C908 O894 1.252 . S
C909 C912 1.394 . S
C909 C914 1.370 . S
C909 C915 1.500 . S
C910 C913 1.383 . S
C910 C914 1.395 . S
C911 C912 1.396 . S
C911 C913 1.365 . S
C911 H920 0.929 . S
C912 C909 1.394 . S
C912 C911 1.396 . S
C912 H921 0.930 . S
C913 C910 1.383 . S
C913 C911 1.365 . S
C913 H922 0.931 . S
C914 C909 1.370 . S
C914 C910 1.395 . S
C914 H923 0.930 . S
C915 Gd851 2.805 . S
C915 O891 1.263 . S
C915 O892 1.252 . S
C915 C909 1.500 . S
H916 C899 0.929 . S
H917 C900 0.930 . S
H918 C901 0.931 . S
H919 C902 0.930 . S
H920 C911 0.929 . S
H921 C912 0.930 . S
H922 C913 0.931 . S
H923 C914 0.930 . S
C924 C926 1.422 . S
C924 C928 1.415 . S
C924 N930 1.369 . S
C925 C926 1.421 . S
C925 C927 1.417 . S
C925 C937 1.422 . S
C926 C924 1.422 . S
C926 C925 1.421 . S
C926 N936 1.359 . S
C927 C925 1.417 . S
C927 C929 1.329 . S
C927 H946 0.930 1_655 S
C928 C924 1.415 . S
C928 C929 1.437 . S
C928 C932 1.413 . S
C929 C927 1.329 . S
C929 C928 1.437 . S
C929 H951 0.929 1_655 S
N930 C924 1.369 . S
N930 C931 1.338 . S
N930 Gd935 2.622 . S
C931 N930 1.338 . S
C931 C933 1.378 . S
C931 H943 0.929 . S
C932 C928 1.413 . S
C932 C933 1.348 . S
C932 H948 0.931 . S
C933 C931 1.378 . S
C933 C932 1.348 . S
C933 H949 0.930 1_556 S
Gd934 N954 2.622 . S
Gd934 N961 2.570 . S
Gd934 O968 2.353 . S
Gd934 O969 2.468 . S
Gd934 O970 2.427 . S
Gd934 O972 2.388 . S
Gd934 O973 2.386 . S
Gd934 O977 2.307 . S
Gd934 C987 2.805 . S
Gd935 N930 2.622 . S
Gd935 N936 2.570 . S
Gd935 O967 2.386 . S
Gd935 O971 2.307 . S
Gd935 O974 2.353 . S
Gd935 O975 2.468 . S
Gd935 O976 2.427 . S
Gd935 O978 2.388 . S
Gd935 C999 2.805 . S
N936 C926 1.359 . S
N936 Gd935 2.570 . S
N936 C938 1.343 . S
C937 C925 1.422 . S
C937 C939 1.321 . S
C937 H945 0.931 1_655 S
C938 N936 1.343 . S
C938 C939 1.390 . S
C938 H940 0.931 . S
C939 C937 1.321 . S
C939 C938 1.390 . S
C939 H941 0.930 . S
H940 C938 0.931 . S
H941 C939 0.930 . S
H942 C965 0.931 . S
H943 C931 0.929 . S
H944 C966 0.930 1_565 S
H945 C937 0.931 1_455 S
H946 C927 0.930 1_455 S
H947 C956 0.929 . S
H948 C932 0.931 . S
H949 C933 0.930 1_554 S
H950 C988 0.930 . S
H951 C929 0.929 1_455 S
H952 C957 0.931 . S
H953 C958 0.930 . S
N954 Gd934 2.622 . S
N954 C955 1.369 . S
N954 C956 1.338 . S
C955 N954 1.369 . S
C955 C959 1.415 . S
C955 C962 1.422 . S
C956 H947 0.929 . S
C956 N954 1.338 . S
C956 C958 1.378 . S
C957 H952 0.931 . S
C957 C958 1.348 . S
C957 C959 1.413 . S
C958 H953 0.930 . S
C958 C956 1.378 . S
C958 C957 1.348 . S
C959 C955 1.415 . S
C959 C957 1.413 . S
C959 C989 1.437 . S
H960 C989 0.929 1_565 S
N961 Gd934 2.570 . S
N961 C962 1.359 . S
N961 C965 1.343 . S
C962 C955 1.422 . S
C962 N961 1.359 . S
C962 C964 1.421 . S
C963 C964 1.422 1_565 S
C963 C966 1.321 1_565 S
C963 H990 0.931 . S
C964 C962 1.421 . S
C964 C963 1.422 1_545 S
C964 C988 1.417 1_545 S
C965 H942 0.931 . S
C965 N961 1.343 . S
C965 C966 1.390 . S
C966 H944 0.930 1_545 S
C966 C963 1.321 1_545 S
C966 C965 1.390 . S
O967 Gd935 2.386 . S
O967 C979 1.265 . S
O968 Gd934 2.353 . S
O968 C979 1.242 . S
O969 Gd934 2.468 . S
O969 C987 1.263 . S
O970 Gd934 2.427 . S
O970 C987 1.252 . S
O971 Gd935 2.307 . S
O971 C980 1.261 . S
O972 Gd934 2.388 . S
O972 C980 1.252 . S
O973 Gd934 2.386 . S
O973 C991 1.265 . S
O974 Gd935 2.353 . S
O974 C991 1.242 . S
O975 Gd935 2.468 . S
O975 C999 1.263 . S
O976 Gd935 2.427 . S
O976 C999 1.252 . S
O977 Gd934 2.307 . S
O977 C992 1.261 . S
O978 Gd935 2.388 . S
O978 C992 1.252 . S
C979 O967 1.265 . S
C979 O968 1.242 . S
C980 O971 1.261 . S
C980 O972 1.252 . S
C981 C984 1.394 . S
C981 C986 1.370 . S
C981 C987 1.500 1_565 S
C982 C985 1.383 . S
C982 C986 1.395 . S
C983 C984 1.396 . S
C983 C985 1.365 . S
C983 H1000 0.929 . S
C984 C981 1.394 . S
C984 C983 1.396 . S
C984 H1001 0.930 . S
C985 C982 1.383 . S
C985 C983 1.365 . S
C985 H1002 0.931 . S
C986 C981 1.370 . S
C986 C982 1.395 . S
C986 H1003 0.930 . S
C987 Gd934 2.805 . S
C987 O969 1.263 . S
C987 O970 1.252 . S
C987 C981 1.500 1_545 S
C988 H950 0.930 . S
C988 C964 1.417 1_565 S
C988 C989 1.329 1_565 S
C989 C959 1.437 . S
C989 H960 0.929 1_545 S
C989 C988 1.329 1_545 S
H990 C963 0.931 . S
C991 O973 1.265 . S
C991 O974 1.242 . S
C992 O977 1.261 . S
C992 O978 1.252 . S
C993 C996 1.394 . S
C993 C998 1.370 . S
C993 C999 1.500 . S
C994 C997 1.383 . S
C994 C998 1.395 . S
C995 C996 1.396 . S
C995 C997 1.365 . S
C995 H1004 0.929 . S
C996 C993 1.394 . S
C996 C995 1.396 . S
C996 H1005 0.930 . S
C997 C994 1.383 . S
C997 C995 1.365 . S
C997 H1006 0.931 . S
C998 C993 1.370 . S
C998 C994 1.395 . S
C998 H1007 0.930 . S
C999 Gd935 2.805 . S
C999 O975 1.263 . S
C999 O976 1.252 . S
C999 C993 1.500 . S
H1000 C983 0.929 . S
H1001 C984 0.930 . S
H1002 C985 0.931 . S
H1003 C986 0.930 . S
H1004 C995 0.929 . S
H1005 C996 0.930 . S
H1006 C997 0.931 . S
H1007 C998 0.930 . S
H1008 C1016 0.950 . S
H1009 C1021 0.950 . S
H1010 C1018 0.950 . S
H1011 C1020 0.950 . S
H1012 C1022 0.950 . S
H1013 C1024 0.950 . S
H1014 C1026 0.950 . S
H1015 C1027 0.950 . S
C1016 H1008 0.950 . S
C1016 C1017 1.386 . S
C1016 C1018 1.391 . S
C1017 C1016 1.386 . S
C1017 C1021 1.393 . S
C1018 H1010 0.950 . S
C1018 C1016 1.391 . S
C1018 C1019 1.400 . S
C1019 C1018 1.400 . S
C1019 C1020 1.398 . S
C1019 C1025 1.491 1_565 S
C1020 H1011 0.950 . S
C1020 C1019 1.398 . S
C1020 C1021 1.391 . S
C1021 H1009 0.950 . S
C1021 C1017 1.393 . S
C1021 C1020 1.391 . S
C1022 H1012 0.950 . S
C1022 C1023 1.386 . S
C1022 C1024 1.391 . S
C1023 C1022 1.386 . S
C1023 C1027 1.393 . S
C1024 H1013 0.950 . S
C1024 C1022 1.391 . S
C1024 C1025 1.400 . S
C1025 C1019 1.491 1_545 S
C1025 C1024 1.400 . S
C1025 C1026 1.398 . S
C1026 H1014 0.950 . S
C1026 C1025 1.398 . S
C1026 C1027 1.391 . S
C1027 H1015 0.950 . S
C1027 C1023 1.393 . S
C1027 C1026 1.391 . S
H1028 C1036 0.950 . S
H1029 C1041 0.950 . S
H1030 C1038 0.950 . S
H1031 C1040 0.950 . S
H1032 C1042 0.950 . S
H1033 C1044 0.950 . S
H1034 C1046 0.950 . S
H1035 C1047 0.950 . S
C1036 H1028 0.950 . S
C1036 C1037 1.386 . S
C1036 C1038 1.391 . S
C1037 C1036 1.386 . S
C1037 C1041 1.393 . S
C1038 H1030 0.950 . S
C1038 C1036 1.391 . S
C1038 C1039 1.400 . S
C1039 C1038 1.400 . S
C1039 C1040 1.398 . S
C1039 C1045 1.491 . S
C1040 H1031 0.950 . S
C1040 C1039 1.398 . S
C1040 C1041 1.391 . S
C1041 H1029 0.950 . S
C1041 C1037 1.393 . S
C1041 C1040 1.391 . S
C1042 H1032 0.950 . S
C1042 C1043 1.386 . S
C1042 C1044 1.391 . S
C1043 C1042 1.386 . S
C1043 C1047 1.393 . S
C1044 H1033 0.950 . S
C1044 C1042 1.391 . S
C1044 C1045 1.400 . S
C1045 C1039 1.491 . S
C1045 C1044 1.400 . S
C1045 C1046 1.398 . S
C1046 H1034 0.950 . S
C1046 C1045 1.398 . S
C1046 C1047 1.391 . S
C1047 H1035 0.950 . S
C1047 C1043 1.393 . S
C1047 C1046 1.391 . S
H1048 C1056 0.950 . S
H1049 C1061 0.950 . S
H1050 C1058 0.950 . S
H1051 C1060 0.950 . S
H1052 C1062 0.950 . S
H1053 C1064 0.950 . S
H1054 C1066 0.969 . S
H1055 C1067 0.950 . S
C1056 H1048 0.950 . S
C1056 C1057 1.386 . S
C1056 C1058 1.391 . S
C1057 C1056 1.386 . S
C1057 C1061 1.393 . S
C1058 H1050 0.950 . S
C1058 C1056 1.391 . S
C1058 C1059 1.400 . S
C1059 C1058 1.400 . S
C1059 C1060 1.398 . S
C1059 C1065 1.491 1_655 S
C1060 H1051 0.950 . S
C1060 C1059 1.398 . S
C1060 C1061 1.391 . S
C1061 H1049 0.950 . S
C1061 C1057 1.393 . S
C1061 C1060 1.391 . S
C1062 H1052 0.950 . S
C1062 C1063 1.386 . S
C1062 C1064 1.391 . S
C1063 C1062 1.386 . S
C1063 C1067 1.393 . S
C1064 H1053 0.950 . S
C1064 C1062 1.391 . S
C1064 C1065 1.400 . S
C1065 C1059 1.491 1_455 S
C1065 C1064 1.400 . S
C1065 C1066 1.398 . S
C1066 H1054 0.969 . S
C1066 C1065 1.398 . S
C1066 C1067 1.391 . S
C1067 H1055 0.950 . S
C1067 C1063 1.393 . S
C1067 C1066 1.391 . S
H1068 C1076 0.950 . S
H1069 C1081 0.950 . S
H1070 C1078 0.950 . S
H1071 C1080 0.950 . S
H1072 C1082 0.950 . S
H1073 C1084 0.950 . S
H1074 C1086 0.950 . S
H1075 C1087 0.950 . S
C1076 H1068 0.950 . S
C1076 C1077 1.386 . S
C1076 C1078 1.391 . S
C1077 C1076 1.386 . S
C1077 C1081 1.393 . S
C1078 H1070 0.950 . S
C1078 C1076 1.391 . S
C1078 C1079 1.400 . S
C1079 C1078 1.400 . S
C1079 C1080 1.398 . S
C1079 C1085 1.491 1_565 S
C1080 H1071 0.950 . S
C1080 C1079 1.398 . S
C1080 C1081 1.391 . S
C1081 H1069 0.950 . S
C1081 C1077 1.393 . S
C1081 C1080 1.391 . S
C1082 H1072 0.950 . S
C1082 C1083 1.386 . S
C1082 C1084 1.391 . S
C1083 C1082 1.386 . S
C1083 C1087 1.393 . S
C1084 H1073 0.950 . S
C1084 C1082 1.391 . S
C1084 C1085 1.400 . S
C1085 C1079 1.491 1_545 S
C1085 C1084 1.400 . S
C1085 C1086 1.398 . S
C1086 H1074 0.950 . S
C1086 C1085 1.398 . S
C1086 C1087 1.391 . S
C1087 H1075 0.950 . S
C1087 C1083 1.393 . S
C1087 C1086 1.391 . S
H1088 C1096 0.950 . S
H1089 C1101 0.950 . S
H1090 C1098 0.950 . S
H1091 C1100 0.950 . S
H1092 C1102 0.950 . S
H1093 C1104 0.950 . S
H1094 C1106 0.950 . S
H1095 C1107 0.950 . S
C1096 H1088 0.950 . S
C1096 C1097 1.386 . S
C1096 C1098 1.391 . S
C1097 C1096 1.386 . S
C1097 C1101 1.393 . S
C1098 H1090 0.950 . S
C1098 C1096 1.391 . S
C1098 C1099 1.400 . S
C1099 C1098 1.400 . S
C1099 C1100 1.398 . S
C1099 C1105 1.491 . S
C1100 H1091 0.950 . S
C1100 C1099 1.398 . S
C1100 C1101 1.391 . S
C1101 H1089 0.950 . S
C1101 C1097 1.393 . S
C1101 C1100 1.391 . S
C1102 H1092 0.950 . S
C1102 C1103 1.386 . S
C1102 C1104 1.391 . S
C1103 C1102 1.386 . S
C1103 C1107 1.393 . S
C1104 H1093 0.950 . S
C1104 C1102 1.391 . S
C1104 C1105 1.400 . S
C1105 C1099 1.491 . S
C1105 C1104 1.400 . S
C1105 C1106 1.398 . S
C1106 H1094 0.950 . S
C1106 C1105 1.398 . S
C1106 C1107 1.391 . S
C1107 H1095 0.950 . S
C1107 C1103 1.393 . S
C1107 C1106 1.391 . S
H1108 C1116 0.950 . S
H1109 C1121 0.950 . S
H1110 C1118 0.950 . S
H1111 C1120 0.950 1_455 S
H1112 C1122 0.950 . S
H1113 C1124 0.950 . S
H1114 C1126 0.950 . S
H1115 C1127 0.950 . S
C1116 H1108 0.950 . S
C1116 C1117 1.386 . S
C1116 C1118 1.391 . S
C1117 C1116 1.386 . S
C1117 C1121 1.393 . S
C1118 H1110 0.950 . S
C1118 C1116 1.391 . S
C1118 C1119 1.400 . S
C1119 C1118 1.400 . S
C1119 C1120 1.398 . S
C1119 C1125 1.491 1_655 S
C1120 H1111 0.950 1_655 S
C1120 C1119 1.398 . S
C1120 C1121 1.391 . S
C1121 H1109 0.950 . S
C1121 C1117 1.393 . S
C1121 C1120 1.391 . S
C1122 H1112 0.950 . S
C1122 C1123 1.386 . S
C1122 C1124 1.391 . S
C1123 C1122 1.386 . S
C1123 C1127 1.393 . S
C1124 H1113 0.950 . S
C1124 C1122 1.391 . S
C1124 C1125 1.400 . S
C1125 C1119 1.491 1_455 S
C1125 C1124 1.400 . S
C1125 C1126 1.398 . S
C1126 H1114 0.950 . S
C1126 C1125 1.398 . S
C1126 C1127 1.391 . S
C1127 H1115 0.950 . S
C1127 C1123 1.393 . S
C1127 C1126 1.391 . S
H1128 C1136 0.950 . S
H1129 C1141 0.950 . S
H1130 C1138 0.950 . S
H1131 C1140 0.950 . S
H1132 C1142 0.950 . S
H1133 C1144 0.950 . S
H1134 C1146 0.950 . S
H1135 C1147 0.950 . S
C1136 H1128 0.950 . S
C1136 C1137 1.386 . S
C1136 C1138 1.391 . S
C1137 C1136 1.386 . S
C1137 C1141 1.393 . S
C1138 H1130 0.950 . S
C1138 C1136 1.391 . S
C1138 C1139 1.400 . S
C1139 C1138 1.400 . S
C1139 C1140 1.398 . S
C1139 C1145 1.491 1_455 S
C1140 H1131 0.950 . S
C1140 C1139 1.398 . S
C1140 C1141 1.391 . S
C1141 H1129 0.950 . S
C1141 C1137 1.393 . S
C1141 C1140 1.391 . S
C1142 H1132 0.950 . S
C1142 C1143 1.386 . S
C1142 C1144 1.391 . S
C1143 C1142 1.386 . S
C1143 C1147 1.393 . S
C1144 H1133 0.950 . S
C1144 C1142 1.391 . S
C1144 C1145 1.400 . S
C1145 C1139 1.491 1_655 S
C1145 C1144 1.400 . S
C1145 C1146 1.398 . S
C1146 H1134 0.950 . S
C1146 C1145 1.398 . S
C1146 C1147 1.391 . S
C1147 H1135 0.950 . S
C1147 C1143 1.393 . S
C1147 C1146 1.391 . S
H1148 C1156 0.950 . S
H1149 C1161 0.950 . S
H1150 C1158 0.950 . S
H1151 C1160 0.950 . S
H1152 C1162 0.950 . S
H1153 C1164 0.950 1_565 S
H1154 C1166 0.950 . S
H1155 C1167 0.950 . S
C1156 H1148 0.950 . S
C1156 C1157 1.386 . S
C1156 C1158 1.391 . S
C1157 C1156 1.386 . S
C1157 C1161 1.393 . S
C1158 H1150 0.950 . S
C1158 C1156 1.391 . S
C1158 C1159 1.400 . S
C1159 C1158 1.400 . S
C1159 C1160 1.398 . S
C1159 C1165 1.491 1_565 S
C1160 H1151 0.950 . S
C1160 C1159 1.398 . S
C1160 C1161 1.391 . S
C1161 H1149 0.950 . S
C1161 C1157 1.393 . S
C1161 C1160 1.391 . S
C1162 H1152 0.950 . S
C1162 C1163 1.386 . S
C1162 C1164 1.391 . S
C1163 C1162 1.386 . S
C1163 C1167 1.393 . S
C1164 H1153 0.950 1_545 S
C1164 C1162 1.391 . S
C1164 C1165 1.400 . S
C1165 C1159 1.491 1_545 S
C1165 C1164 1.400 . S
C1165 C1166 1.398 . S
C1166 H1154 0.950 . S
C1166 C1165 1.398 . S
C1166 C1167 1.391 . S
C1167 H1155 0.950 . S
C1167 C1163 1.393 . S
C1167 C1166 1.391 . S
H1168 C1176 0.950 . S
H1169 C1181 0.950 . S
H1170 C1178 0.950 . S
H1171 C1180 0.950 . S
H1172 C1182 0.950 . S
H1173 C1184 0.950 . S
H1174 C1186 0.950 . S
H1175 C1187 0.950 . S
C1176 H1168 0.950 . S
C1176 C1177 1.386 . S
C1176 C1178 1.391 . S
C1177 C1176 1.386 . S
C1177 C1181 1.393 . S
C1178 H1170 0.950 . S
C1178 C1176 1.391 . S
C1178 C1179 1.400 . S
C1179 C1178 1.400 . S
C1179 C1180 1.398 . S
C1179 C1185 1.491 . S
C1180 H1171 0.950 . S
C1180 C1179 1.398 . S
C1180 C1181 1.391 . S
C1181 H1169 0.950 . S
C1181 C1177 1.393 . S
C1181 C1180 1.391 . S
C1182 H1172 0.950 . S
C1182 C1183 1.386 . S
C1182 C1184 1.391 . S
C1183 C1182 1.386 . S
C1183 C1187 1.393 . S
C1184 H1173 0.950 . S
C1184 C1182 1.391 . S
C1184 C1185 1.400 . S
C1185 C1179 1.491 . S
C1185 C1184 1.400 . S
C1185 C1186 1.398 . S
C1186 H1174 0.950 . S
C1186 C1185 1.398 . S
C1186 C1187 1.391 . S
C1187 H1175 0.950 . S
C1187 C1183 1.393 . S
C1187 C1186 1.391 . S
H1188 C1196 0.950 . S
H1189 C1201 0.950 . S
H1190 C1198 0.950 . S
H1191 C1200 0.950 . S
H1192 C1202 0.950 . S
H1193 C1204 0.950 . S
H1194 C1206 0.950 . S
H1195 C1207 0.950 . S
C1196 H1188 0.950 . S
C1196 C1197 1.386 . S
C1196 C1198 1.391 . S
C1197 C1196 1.386 . S
C1197 C1201 1.393 . S
C1198 H1190 0.950 . S
C1198 C1196 1.391 . S
C1198 C1199 1.400 . S
C1199 C1198 1.400 . S
C1199 C1200 1.398 . S
C1199 C1205 1.491 1_455 S
C1200 H1191 0.950 . S
C1200 C1199 1.398 . S
C1200 C1201 1.391 . S
C1201 H1189 0.950 . S
C1201 C1197 1.393 . S
C1201 C1200 1.391 . S
C1202 H1192 0.950 . S
C1202 C1203 1.386 . S
C1202 C1204 1.391 . S
C1203 C1202 1.386 . S
C1203 C1207 1.393 . S
C1204 H1193 0.950 . S
C1204 C1202 1.391 . S
C1204 C1205 1.400 . S
C1205 C1199 1.491 1_655 S
C1205 C1204 1.400 . S
C1205 C1206 1.398 . S
C1206 H1194 0.950 . S
C1206 C1205 1.398 . S
C1206 C1207 1.391 . S
C1207 H1195 0.950 . S
C1207 C1203 1.393 . S
C1207 C1206 1.391 . S
H1208 C1216 0.950 . S
H1209 C1221 0.950 . S
H1210 C1218 0.950 . S
H1211 C1220 0.950 . S
H1212 C1222 0.950 . S
H1213 C1224 0.950 . S
H1214 C1226 0.949 1_545 S
H1215 C1227 0.950 . S
C1216 H1208 0.950 . S
C1216 C1217 1.386 . S
C1216 C1218 1.391 . S
C1217 C1216 1.386 . S
C1217 C1221 1.393 . S
C1218 H1210 0.950 . S
C1218 C1216 1.391 . S
C1218 C1219 1.400 . S
C1219 C1218 1.400 . S
C1219 C1220 1.398 . S
C1219 C1225 1.491 1_545 S
C1220 H1211 0.950 . S
C1220 C1219 1.398 . S
C1220 C1221 1.391 . S
C1221 H1209 0.950 . S
C1221 C1217 1.393 . S
C1221 C1220 1.391 . S
C1222 H1212 0.950 . S
C1222 C1223 1.386 . S
C1222 C1224 1.391 . S
C1223 C1222 1.386 . S
C1223 C1227 1.393 . S
C1224 H1213 0.950 . S
C1224 C1222 1.391 . S
C1224 C1225 1.400 . S
C1225 C1219 1.491 1_565 S
C1225 C1224 1.400 . S
C1225 C1226 1.398 . S
C1226 H1214 0.949 1_565 S
C1226 C1225 1.398 . S
C1226 C1227 1.391 . S
C1227 H1215 0.950 . S
C1227 C1223 1.393 . S
C1227 C1226 1.391 . S
H1228 C1236 0.950 . S
H1229 C1241 0.950 . S
H1230 C1238 0.950 . S
H1231 C1240 0.950 . S
H1232 C1242 0.950 . S
H1233 C1244 0.950 . S
H1234 C1246 0.950 . S
H1235 C1247 0.950 . S
C1236 H1228 0.950 . S
C1236 C1237 1.386 . S
C1236 C1238 1.391 . S
C1237 C1236 1.386 . S
C1237 C1241 1.393 . S
C1238 H1230 0.950 . S
C1238 C1236 1.391 . S
C1238 C1239 1.400 . S
C1239 C1238 1.400 . S
C1239 C1240 1.398 . S
C1239 C1245 1.491 . S
C1240 H1231 0.950 . S
C1240 C1239 1.398 . S
C1240 C1241 1.391 . S
C1241 H1229 0.950 . S
C1241 C1237 1.393 . S
C1241 C1240 1.391 . S
C1242 H1232 0.950 . S
C1242 C1243 1.386 . S
C1242 C1244 1.391 . S
C1243 C1242 1.386 . S
C1243 C1247 1.393 . S
C1244 H1233 0.950 . S
C1244 C1242 1.391 . S
C1244 C1245 1.400 . S
C1245 C1239 1.491 . S
C1245 C1244 1.400 . S
C1245 C1246 1.398 . S
C1246 H1234 0.950 . S
C1246 C1245 1.398 . S
C1246 C1247 1.391 . S
C1247 H1235 0.950 . S
C1247 C1243 1.393 . S
C1247 C1246 1.391 . S
H1248 C1256 0.950 . S
H1249 C1261 0.950 . S
H1250 C1258 0.950 . S
H1251 C1260 0.950 . S
H1252 C1262 0.950 . S
H1253 C1264 0.950 . S
H1254 C1266 0.950 . S
H1255 C1267 0.950 . S
C1256 H1248 0.950 . S
C1256 C1257 1.386 . S
C1256 C1258 1.391 . S
C1257 C1256 1.386 . S
C1257 C1261 1.393 . S
C1258 H1250 0.950 . S
C1258 C1256 1.391 . S
C1258 C1259 1.400 . S
C1259 C1258 1.400 . S
C1259 C1260 1.398 . S
C1259 C1265 1.491 . S
C1260 H1251 0.950 . S
C1260 C1259 1.398 . S
C1260 C1261 1.391 . S
C1261 H1249 0.950 . S
C1261 C1257 1.393 . S
C1261 C1260 1.391 . S
C1262 H1252 0.950 . S
C1262 C1263 1.386 . S
C1262 C1264 1.391 . S
C1263 C1262 1.386 . S
C1263 C1267 1.393 . S
C1264 H1253 0.950 . S
C1264 C1262 1.391 . S
C1264 C1265 1.400 . S
C1265 C1259 1.491 . S
C1265 C1264 1.400 . S
C1265 C1266 1.398 . S
C1266 H1254 0.950 . S
C1266 C1265 1.398 . S
C1266 C1267 1.391 . S
C1267 H1255 0.950 . S
C1267 C1263 1.393 . S
C1267 C1266 1.391 . S
H1268 C1276 0.950 . S
H1269 C1281 0.950 . S
H1270 C1278 0.950 . S
H1271 C1280 0.950 . S
H1272 C1282 0.950 . S
H1273 C1284 0.950 . S
H1274 C1286 0.950 . S
H1275 C1287 0.950 . S
C1276 H1268 0.950 . S
C1276 C1277 1.386 . S
C1276 C1278 1.391 . S
C1277 C1276 1.386 . S
C1277 C1281 1.393 . S
C1278 H1270 0.950 . S
C1278 C1276 1.391 . S
C1278 C1279 1.400 . S
C1279 C1278 1.400 . S
C1279 C1280 1.398 . S
C1279 C1285 1.491 . S
C1280 H1271 0.950 . S
C1280 C1279 1.398 . S
C1280 C1281 1.391 . S
C1281 H1269 0.950 . S
C1281 C1277 1.393 . S
C1281 C1280 1.391 . S
C1282 H1272 0.950 . S
C1282 C1283 1.386 . S
C1282 C1284 1.391 . S
C1283 C1282 1.386 . S
C1283 C1287 1.393 . S
C1284 H1273 0.950 . S
C1284 C1282 1.391 . S
C1284 C1285 1.400 . S
C1285 C1279 1.491 . S
C1285 C1284 1.400 . S
C1285 C1286 1.398 . S
C1286 H1274 0.950 . S
C1286 C1285 1.398 . S
C1286 C1287 1.391 . S
C1287 H1275 0.950 . S
C1287 C1283 1.393 . S
C1287 C1286 1.391 . S
H1288 C1296 0.950 . S
H1289 C1301 0.950 . S
H1290 C1298 0.950 . S
H1291 C1300 0.950 . S
H1292 C1302 0.950 . S
H1293 C1304 0.950 . S
H1294 C1306 0.950 . S
H1295 C1307 0.950 . S
C1296 H1288 0.950 . S
C1296 C1297 1.386 . S
C1296 C1298 1.391 . S
C1297 C1296 1.386 . S
C1297 C1301 1.393 . S
C1298 H1290 0.950 . S
C1298 C1296 1.391 . S
C1298 C1299 1.400 . S
C1299 C1298 1.400 . S
C1299 C1300 1.398 . S
C1299 C1305 1.491 . S
C1300 H1291 0.950 . S
C1300 C1299 1.398 . S
C1300 C1301 1.391 . S
C1301 H1289 0.950 . S
C1301 C1297 1.393 . S
C1301 C1300 1.391 . S
C1302 H1292 0.950 . S
C1302 C1303 1.386 . S
C1302 C1304 1.391 . S
C1303 C1302 1.386 . S
C1303 C1307 1.393 . S
C1304 H1293 0.950 . S
C1304 C1302 1.391 . S
C1304 C1305 1.400 . S
C1305 C1299 1.491 . S
C1305 C1304 1.400 . S
C1305 C1306 1.398 . S
C1306 H1294 0.950 . S
C1306 C1305 1.398 . S
C1306 C1307 1.391 . S
C1307 H1295 0.950 . S
C1307 C1303 1.393 . S
C1307 C1306 1.391 . S
H1308 C1316 0.950 . S
H1309 C1321 0.950 . S
H1310 C1318 0.950 . S
H1311 C1320 0.950 . S
H1312 C1322 0.950 . S
H1313 C1324 0.950 . S
H1314 C1326 0.950 . S
H1315 C1327 0.950 . S
C1316 H1308 0.950 . S
C1316 C1317 1.386 . S
C1316 C1318 1.391 . S
C1317 C1316 1.386 . S
C1317 C1321 1.393 . S
C1318 H1310 0.950 . S
C1318 C1316 1.391 . S
C1318 C1319 1.400 . S
C1319 C1318 1.400 . S
C1319 C1320 1.398 . S
C1319 C1325 1.491 . S
C1320 H1311 0.950 . S
C1320 C1319 1.398 . S
C1320 C1321 1.391 . S
C1321 H1309 0.950 . S
C1321 C1317 1.393 . S
C1321 C1320 1.391 . S
C1322 H1312 0.950 . S
C1322 C1323 1.386 . S
C1322 C1324 1.391 . S
C1323 C1322 1.386 . S
C1323 C1327 1.393 . S
C1324 H1313 0.950 . S
C1324 C1322 1.391 . S
C1324 C1325 1.400 . S
C1325 C1319 1.491 . S
C1325 C1324 1.400 . S
C1325 C1326 1.398 . S
C1326 H1314 0.950 . S
C1326 C1325 1.398 . S
C1326 C1327 1.391 . S
C1327 H1315 0.950 . S
C1327 C1323 1.393 . S
C1327 C1326 1.391 . S
H1328 C1336 0.950 . S
H1329 C1341 0.950 . S
H1330 C1338 0.950 . S
H1331 C1340 0.950 . S
H1332 C1342 0.950 . S
H1333 C1344 0.950 . S
H1334 C1346 0.950 . S
H1335 C1347 0.950 . S
C1336 H1328 0.950 . S
C1336 C1337 1.386 . S
C1336 C1338 1.391 . S
C1337 C1336 1.386 . S
C1337 C1341 1.393 . S
C1338 H1330 0.950 . S
C1338 C1336 1.391 . S
C1338 C1339 1.400 . S
C1339 C1338 1.400 . S
C1339 C1340 1.398 . S
C1339 C1345 1.491 . S
C1340 H1331 0.950 . S
C1340 C1339 1.398 . S
C1340 C1341 1.391 . S
C1341 H1329 0.950 . S
C1341 C1337 1.393 . S
C1341 C1340 1.391 . S
C1342 H1332 0.950 . S
C1342 C1343 1.386 . S
C1342 C1344 1.391 . S
C1343 C1342 1.386 . S
C1343 C1347 1.393 . S
C1344 H1333 0.950 . S
C1344 C1342 1.391 . S
C1344 C1345 1.400 . S
C1345 C1339 1.491 . S
C1345 C1344 1.400 . S
C1345 C1346 1.398 . S
C1346 H1334 0.950 . S
C1346 C1345 1.398 . S
C1346 C1347 1.391 . S
C1347 H1335 0.950 . S
C1347 C1343 1.393 . S
C1347 C1346 1.391 . S
H1348 C1356 0.950 . S
H1349 C1361 0.950 . S
H1350 C1358 0.950 . S
H1351 C1360 0.950 . S
H1352 C1362 0.950 . S
H1353 C1364 0.950 . S
H1354 C1366 0.950 . S
H1355 C1367 0.950 . S
C1356 H1348 0.950 . S
C1356 C1357 1.386 . S
C1356 C1358 1.391 . S
C1357 C1356 1.386 . S
C1357 C1361 1.393 . S
C1358 H1350 0.950 . S
C1358 C1356 1.391 . S
C1358 C1359 1.400 . S
C1359 C1358 1.400 . S
C1359 C1360 1.398 . S
C1359 C1365 1.491 . S
C1360 H1351 0.950 . S
C1360 C1359 1.398 . S
C1360 C1361 1.391 . S
C1361 H1349 0.950 . S
C1361 C1357 1.393 . S
C1361 C1360 1.391 . S
C1362 H1352 0.950 . S
C1362 C1363 1.386 . S
C1362 C1364 1.391 . S
C1363 C1362 1.386 . S
C1363 C1367 1.393 . S
C1364 H1353 0.950 . S
C1364 C1362 1.391 . S
C1364 C1365 1.400 . S
C1365 C1359 1.491 . S
C1365 C1364 1.400 . S
C1365 C1366 1.398 . S
C1366 H1354 0.950 . S
C1366 C1365 1.398 . S
C1366 C1367 1.391 . S
C1367 H1355 0.950 . S
C1367 C1363 1.393 . S
C1367 C1366 1.391 . S
H1368 C1376 0.950 . S
H1369 C1381 0.950 . S
H1370 C1378 0.950 . S
H1371 C1380 0.950 . S
H1372 C1382 0.950 . S
H1373 C1384 0.950 . S
H1374 C1386 0.950 . S
H1375 C1387 0.950 . S
C1376 H1368 0.950 . S
C1376 C1377 1.386 . S
C1376 C1378 1.391 . S
C1377 C1376 1.386 . S
C1377 C1381 1.393 . S
C1378 H1370 0.950 . S
C1378 C1376 1.391 . S
C1378 C1379 1.400 . S
C1379 C1378 1.400 . S
C1379 C1380 1.398 . S
C1379 C1385 1.491 . S
C1380 H1371 0.950 . S
C1380 C1379 1.398 . S
C1380 C1381 1.391 . S
C1381 H1369 0.950 . S
C1381 C1377 1.393 . S
C1381 C1380 1.391 . S
C1382 H1372 0.950 . S
C1382 C1383 1.386 . S
C1382 C1384 1.391 . S
C1383 C1382 1.386 . S
C1383 C1387 1.393 . S
C1384 H1373 0.950 . S
C1384 C1382 1.391 . S
C1384 C1385 1.400 . S
C1385 C1379 1.491 . S
C1385 C1384 1.400 . S
C1385 C1386 1.398 . S
C1386 H1374 0.950 . S
C1386 C1385 1.398 . S
C1386 C1387 1.391 . S
C1387 H1375 0.950 . S
C1387 C1383 1.393 . S
C1387 C1386 1.391 . S
H1388 C1396 0.950 . S
H1389 C1401 0.950 . S
H1390 C1398 0.950 . S
H1391 C1400 0.950 . S
H1392 C1402 0.950 . S
H1393 C1404 0.950 . S
H1394 C1406 0.950 . S
H1395 C1407 0.950 . S
C1396 H1388 0.950 . S
C1396 C1397 1.386 . S
C1396 C1398 1.391 . S
C1397 C1396 1.386 . S
C1397 C1401 1.393 . S
C1398 H1390 0.950 . S
C1398 C1396 1.391 . S
C1398 C1399 1.400 . S
C1399 C1398 1.400 . S
C1399 C1400 1.398 . S
C1399 C1405 1.491 . S
C1400 H1391 0.950 . S
C1400 C1399 1.398 . S
C1400 C1401 1.391 . S
C1401 H1389 0.950 . S
C1401 C1397 1.393 . S
C1401 C1400 1.391 . S
C1402 H1392 0.950 . S
C1402 C1403 1.386 . S
C1402 C1404 1.391 . S
C1403 C1402 1.386 . S
C1403 C1407 1.393 . S
C1404 H1393 0.950 . S
C1404 C1402 1.391 . S
C1404 C1405 1.400 . S
C1405 C1399 1.491 . S
C1405 C1404 1.400 . S
C1405 C1406 1.398 . S
C1406 H1394 0.950 . S
C1406 C1405 1.398 . S
C1406 C1407 1.391 . S
C1407 H1395 0.950 . S
C1407 C1403 1.393 . S
C1407 C1406 1.391 . S
H1408 C1416 0.950 . S
H1409 C1421 0.950 . S
H1410 C1418 0.950 . S
H1411 C1420 0.950 . S
H1412 C1422 0.950 . S
H1413 C1424 0.950 . S
H1414 C1426 0.950 . S
H1415 C1427 0.950 . S
C1416 H1408 0.950 . S
C1416 C1417 1.386 . S
C1416 C1418 1.391 . S
C1417 C1416 1.386 . S
C1417 C1421 1.393 . S
C1418 H1410 0.950 . S
C1418 C1416 1.391 . S
C1418 C1419 1.400 . S
C1419 C1418 1.400 . S
C1419 C1420 1.398 . S
C1419 C1425 1.491 . S
C1420 H1411 0.950 . S
C1420 C1419 1.398 . S
C1420 C1421 1.391 . S
C1421 H1409 0.950 . S
C1421 C1417 1.393 . S
C1421 C1420 1.391 . S
C1422 H1412 0.950 . S
C1422 C1423 1.386 . S
C1422 C1424 1.391 . S
C1423 C1422 1.386 . S
C1423 C1427 1.393 . S
C1424 H1413 0.950 . S
C1424 C1422 1.391 . S
C1424 C1425 1.400 . S
C1425 C1419 1.491 . S
C1425 C1424 1.400 . S
C1425 C1426 1.398 . S
C1426 H1414 0.950 . S
C1426 C1425 1.398 . S
C1426 C1427 1.391 . S
C1427 H1415 0.950 . S
C1427 C1423 1.393 . S
C1427 C1426 1.391 . S
H1428 C1436 0.950 . S
H1429 C1441 0.950 . S
H1430 C1438 0.950 . S
H1431 C1440 0.950 . S
H1432 C1442 0.950 . S
H1433 C1444 0.950 . S
H1434 C1446 0.950 . S
H1435 C1447 0.950 . S
C1436 H1428 0.950 . S
C1436 C1437 1.386 . S
C1436 C1438 1.391 . S
C1437 C1436 1.386 . S
C1437 C1441 1.393 . S
C1438 H1430 0.950 . S
C1438 C1436 1.391 . S
C1438 C1439 1.400 . S
C1439 C1438 1.400 . S
C1439 C1440 1.398 . S
C1439 C1445 1.491 . S
C1440 H1431 0.950 . S
C1440 C1439 1.398 . S
C1440 C1441 1.391 . S
C1441 H1429 0.950 . S
C1441 C1437 1.393 . S
C1441 C1440 1.391 . S
C1442 H1432 0.950 . S
C1442 C1443 1.386 . S
C1442 C1444 1.391 . S
C1443 C1442 1.386 . S
C1443 C1447 1.393 . S
C1444 H1433 0.950 . S
C1444 C1442 1.391 . S
C1444 C1445 1.400 . S
C1445 C1439 1.491 . S
C1445 C1444 1.400 . S
C1445 C1446 1.398 . S
C1446 H1434 0.950 . S
C1446 C1445 1.398 . S
C1446 C1447 1.391 . S
C1447 H1435 0.950 . S
C1447 C1443 1.393 . S
C1447 C1446 1.391 . S
H1448 C1456 0.950 . S
H1449 C1461 0.950 . S
H1450 C1458 0.950 . S
H1451 C1460 0.950 . S
H1452 C1462 0.950 . S
H1453 C1464 0.950 . S
H1454 C1466 0.950 . S
H1455 C1467 0.950 . S
C1456 H1448 0.950 . S
C1456 C1457 1.386 . S
C1456 C1458 1.391 . S
C1457 C1456 1.386 . S
C1457 C1461 1.393 . S
C1458 H1450 0.950 . S
C1458 C1456 1.391 . S
C1458 C1459 1.400 . S
C1459 C1458 1.400 . S
C1459 C1460 1.398 . S
C1459 C1465 1.491 . S
C1460 H1451 0.950 . S
C1460 C1459 1.398 . S
C1460 C1461 1.391 . S
C1461 H1449 0.950 . S
C1461 C1457 1.393 . S
C1461 C1460 1.391 . S
C1462 H1452 0.950 . S
C1462 C1463 1.386 . S
C1462 C1464 1.391 . S
C1463 C1462 1.386 . S
C1463 C1467 1.393 . S
C1464 H1453 0.950 . S
C1464 C1462 1.391 . S
C1464 C1465 1.400 . S
C1465 C1459 1.491 . S
C1465 C1464 1.400 . S
C1465 C1466 1.398 . S
C1466 H1454 0.950 . S
C1466 C1465 1.398 . S
C1466 C1467 1.391 . S
C1467 H1455 0.950 . S
C1467 C1463 1.393 . S
C1467 C1466 1.391 . S
H1468 C1476 0.950 . S
H1469 C1481 0.950 . S
H1470 C1478 0.950 . S
H1471 C1480 0.950 . S
H1472 C1482 0.950 . S
H1473 C1484 0.950 . S
H1474 C1486 0.950 . S
H1475 C1487 0.950 . S
C1476 H1468 0.950 . S
C1476 C1477 1.386 . S
C1476 C1478 1.391 . S
C1477 C1476 1.386 . S
C1477 C1481 1.393 . S
C1478 H1470 0.950 . S
C1478 C1476 1.391 . S
C1478 C1479 1.400 . S
C1479 C1478 1.400 . S
C1479 C1480 1.398 . S
C1479 C1485 1.491 . S
C1480 H1471 0.950 . S
C1480 C1479 1.398 . S
C1480 C1481 1.391 . S
C1481 H1469 0.950 . S
C1481 C1477 1.393 . S
C1481 C1480 1.391 . S
C1482 H1472 0.950 . S
C1482 C1483 1.386 . S
C1482 C1484 1.391 . S
C1483 C1482 1.386 . S
C1483 C1487 1.393 . S
C1484 H1473 0.950 . S
C1484 C1482 1.391 . S
C1484 C1485 1.400 . S
C1485 C1479 1.491 . S
C1485 C1484 1.400 . S
C1485 C1486 1.398 . S
C1486 H1474 0.950 . S
C1486 C1485 1.398 . S
C1486 C1487 1.391 . S
C1487 H1475 0.950 . S
C1487 C1483 1.393 . S
C1487 C1486 1.391 . S
H1488 C1496 0.950 . S
H1489 C1501 0.950 . S
H1490 C1498 0.950 . S
H1491 C1500 0.950 . S
H1492 C1502 0.950 . S
H1493 C1504 0.950 . S
H1494 C1506 0.950 . S
H1495 C1507 0.950 . S
C1496 H1488 0.950 . S
C1496 C1497 1.386 . S
C1496 C1498 1.391 . S
C1497 C1496 1.386 . S
C1497 C1501 1.393 . S
C1498 H1490 0.950 . S
C1498 C1496 1.391 . S
C1498 C1499 1.400 . S
C1499 C1498 1.400 . S
C1499 C1500 1.398 . S
C1499 C1505 1.491 . S
C1500 H1491 0.950 . S
C1500 C1499 1.398 . S
C1500 C1501 1.391 . S
C1501 H1489 0.950 . S
C1501 C1497 1.393 . S
C1501 C1500 1.391 . S
C1502 H1492 0.950 . S
C1502 C1503 1.386 . S
C1502 C1504 1.391 . S
C1503 C1502 1.386 . S
C1503 C1507 1.393 . S
C1504 H1493 0.950 . S
C1504 C1502 1.391 . S
C1504 C1505 1.400 . S
C1505 C1499 1.491 . S
C1505 C1504 1.400 . S
C1505 C1506 1.398 . S
C1506 H1494 0.950 . S
C1506 C1505 1.398 . S
C1506 C1507 1.391 . S
C1507 H1495 0.950 . S
C1507 C1503 1.393 . S
C1507 C1506 1.391 . S
H1508 C1516 0.950 . S
H1509 C1521 0.950 . S
H1510 C1518 0.950 . S
H1511 C1520 0.950 . S
H1512 C1522 0.950 . S
H1513 C1524 0.950 . S
H1514 C1526 0.950 . S
H1515 C1527 0.950 . S
C1516 H1508 0.950 . S
C1516 C1517 1.386 . S
C1516 C1518 1.391 . S
C1517 C1516 1.386 . S
C1517 C1521 1.393 . S
C1518 H1510 0.950 . S
C1518 C1516 1.391 . S
C1518 C1519 1.400 . S
C1519 C1518 1.400 . S
C1519 C1520 1.398 . S
C1519 C1525 1.491 . S
C1520 H1511 0.950 . S
C1520 C1519 1.398 . S
C1520 C1521 1.391 . S
C1521 H1509 0.950 . S
C1521 C1517 1.393 . S
C1521 C1520 1.391 . S
C1522 H1512 0.950 . S
C1522 C1523 1.386 . S
C1522 C1524 1.391 . S
C1523 C1522 1.386 . S
C1523 C1527 1.393 . S
C1524 H1513 0.950 . S
C1524 C1522 1.391 . S
C1524 C1525 1.400 . S
C1525 C1519 1.491 . S
C1525 C1524 1.400 . S
C1525 C1526 1.398 . S
C1526 H1514 0.950 . S
C1526 C1525 1.398 . S
C1526 C1527 1.391 . S
C1527 H1515 0.950 . S
C1527 C1523 1.393 . S
C1527 C1526 1.391 . S
H1528 C1536 0.950 . S
H1529 C1541 0.950 . S
H1530 C1538 0.950 . S
H1531 C1540 0.950 . S
H1532 C1542 0.950 . S
H1533 C1544 0.950 . S
H1534 C1546 0.950 . S
H1535 C1547 0.950 . S
C1536 H1528 0.950 . S
C1536 C1537 1.386 . S
C1536 C1538 1.391 . S
C1537 C1536 1.386 . S
C1537 C1541 1.393 . S
C1538 H1530 0.950 . S
C1538 C1536 1.391 . S
C1538 C1539 1.400 . S
C1539 C1538 1.400 . S
C1539 C1540 1.398 . S
C1539 C1545 1.491 . S
C1540 H1531 0.950 . S
C1540 C1539 1.398 . S
C1540 C1541 1.391 . S
C1541 H1529 0.950 . S
C1541 C1537 1.393 . S
C1541 C1540 1.391 . S
C1542 H1532 0.950 . S
C1542 C1543 1.386 . S
C1542 C1544 1.391 . S
C1543 C1542 1.386 . S
C1543 C1547 1.393 . S
C1544 H1533 0.950 . S
C1544 C1542 1.391 . S
C1544 C1545 1.400 . S
C1545 C1539 1.491 . S
C1545 C1544 1.400 . S
C1545 C1546 1.398 . S
C1546 H1534 0.950 . S
C1546 C1545 1.398 . S
C1546 C1547 1.391 . S
C1547 H1535 0.950 . S
C1547 C1543 1.393 . S
C1547 C1546 1.391 . S
H1548 C1556 0.950 . S
H1549 C1561 0.950 . S
H1550 C1558 0.950 . S
H1551 C1560 0.950 . S
H1552 C1562 0.950 . S
H1553 C1564 0.950 . S
H1554 C1566 0.950 . S
H1555 C1567 0.950 . S
C1556 H1548 0.950 . S
C1556 C1557 1.386 . S
C1556 C1558 1.391 . S
C1557 C1556 1.386 . S
C1557 C1561 1.393 . S
C1558 H1550 0.950 . S
C1558 C1556 1.391 . S
C1558 C1559 1.400 . S
C1559 C1558 1.400 . S
C1559 C1560 1.398 . S
C1559 C1565 1.491 . S
C1560 H1551 0.950 . S
C1560 C1559 1.398 . S
C1560 C1561 1.391 . S
C1561 H1549 0.950 . S
C1561 C1557 1.393 . S
C1561 C1560 1.391 . S
C1562 H1552 0.950 . S
C1562 C1563 1.386 . S
C1562 C1564 1.391 . S
C1563 C1562 1.386 . S
C1563 C1567 1.393 . S
C1564 H1553 0.950 . S
C1564 C1562 1.391 . S
C1564 C1565 1.400 . S
C1565 C1559 1.491 . S
C1565 C1564 1.400 . S
C1565 C1566 1.398 . S
C1566 H1554 0.950 . S
C1566 C1565 1.398 . S
C1566 C1567 1.391 . S
C1567 H1555 0.950 . S
C1567 C1563 1.393 . S
C1567 C1566 1.391 . S
H1568 C1576 0.950 . S
H1569 C1581 0.950 . S
H1570 C1578 0.950 . S
H1571 C1580 0.950 . S
H1572 C1582 0.950 . S
H1573 C1584 0.950 . S
H1574 C1586 0.950 . S
H1575 C1587 0.950 . S
C1576 H1568 0.950 . S
C1576 C1577 1.386 . S
C1576 C1578 1.391 . S
C1577 C1576 1.386 . S
C1577 C1581 1.393 . S
C1578 H1570 0.950 . S
C1578 C1576 1.391 . S
C1578 C1579 1.400 . S
C1579 C1578 1.400 . S
C1579 C1580 1.398 . S
C1579 C1585 1.491 . S
C1580 H1571 0.950 . S
C1580 C1579 1.398 . S
C1580 C1581 1.391 . S
C1581 H1569 0.950 . S
C1581 C1577 1.393 . S
C1581 C1580 1.391 . S
C1582 H1572 0.950 . S
C1582 C1583 1.386 . S
C1582 C1584 1.391 . S
C1583 C1582 1.386 . S
C1583 C1587 1.393 . S
C1584 H1573 0.950 . S
C1584 C1582 1.391 . S
C1584 C1585 1.400 . S
C1585 C1579 1.491 . S
C1585 C1584 1.400 . S
C1585 C1586 1.398 . S
C1586 H1574 0.950 . S
C1586 C1585 1.398 . S
C1586 C1587 1.391 . S
C1587 H1575 0.950 . S
C1587 C1583 1.393 . S
C1587 C1586 1.391 . S
H1588 C1596 0.950 . S
H1589 C1601 0.950 . S
H1590 C1598 0.950 . S
H1591 C1600 0.950 . S
H1592 C1602 0.950 . S
H1593 C1604 0.950 . S
H1594 C1606 0.950 . S
H1595 C1607 0.950 . S
C1596 H1588 0.950 . S
C1596 C1597 1.386 . S
C1596 C1598 1.391 . S
C1597 C1596 1.386 . S
C1597 C1601 1.393 . S
C1598 H1590 0.950 . S
C1598 C1596 1.391 . S
C1598 C1599 1.400 . S
C1599 C1598 1.400 . S
C1599 C1600 1.398 . S
C1599 C1605 1.491 . S
C1600 H1591 0.950 . S
C1600 C1599 1.398 . S
C1600 C1601 1.391 . S
C1601 H1589 0.950 . S
C1601 C1597 1.393 . S
C1601 C1600 1.391 . S
C1602 H1592 0.950 . S
C1602 C1603 1.386 . S
C1602 C1604 1.391 . S
C1603 C1602 1.386 . S
C1603 C1607 1.393 . S
C1604 H1593 0.950 . S
C1604 C1602 1.391 . S
C1604 C1605 1.400 . S
C1605 C1599 1.491 . S
C1605 C1604 1.400 . S
C1605 C1606 1.398 . S
C1606 H1594 0.950 . S
C1606 C1605 1.398 . S
C1606 C1607 1.391 . S
C1607 H1595 0.950 . S
C1607 C1603 1.393 . S
C1607 C1606 1.391 . S
H1608 C1616 0.950 . S
H1609 C1621 0.950 . S
H1610 C1618 0.950 1_554 S
H1611 C1620 0.950 . S
H1612 C1622 0.950 . S
H1613 C1624 0.950 1_556 S
H1614 C1626 0.950 . S
H1615 C1627 0.950 . S
C1616 H1608 0.950 . S
C1616 C1617 1.386 . S
C1616 C1618 1.391 . S
C1617 C1616 1.386 . S
C1617 C1621 1.393 . S
C1618 H1610 0.950 1_556 S
C1618 C1616 1.391 . S
C1618 C1619 1.400 . S
C1619 C1618 1.400 . S
C1619 C1620 1.398 . S
C1619 C1625 1.491 1_556 S
C1620 H1611 0.950 . S
C1620 C1619 1.398 . S
C1620 C1621 1.391 . S
C1621 H1609 0.950 . S
C1621 C1617 1.393 . S
C1621 C1620 1.391 . S
C1622 H1612 0.950 . S
C1622 C1623 1.386 . S
C1622 C1624 1.391 . S
C1623 C1622 1.386 . S
C1623 C1627 1.393 . S
C1624 H1613 0.950 1_554 S
C1624 C1622 1.391 . S
C1624 C1625 1.400 . S
C1625 C1619 1.491 1_554 S
C1625 C1624 1.400 . S
C1625 C1626 1.398 . S
C1626 H1614 0.950 . S
C1626 C1625 1.398 . S
C1626 C1627 1.391 . S
C1627 H1615 0.950 . S
C1627 C1623 1.393 . S
C1627 C1626 1.391 . S
H1628 C1636 0.950 . S
H1629 C1641 0.950 . S
H1630 C1638 0.950 . S
H1631 C1640 0.950 1_655 S
H1632 C1642 0.950 . S
H1633 C1644 0.950 . S
H1634 C1646 0.950 1_455 S
H1635 C1647 0.950 . S
C1636 H1628 0.950 . S
C1636 C1637 1.386 . S
C1636 C1638 1.391 . S
C1637 C1636 1.386 . S
C1637 C1641 1.393 . S
C1638 H1630 0.950 . S
C1638 C1636 1.391 . S
C1638 C1639 1.400 . S
C1639 C1638 1.400 . S
C1639 C1640 1.398 . S
C1639 C1645 1.491 1_455 S
C1640 H1631 0.950 1_455 S
C1640 C1639 1.398 . S
C1640 C1641 1.391 . S
C1641 H1629 0.950 . S
C1641 C1637 1.393 . S
C1641 C1640 1.391 . S
C1642 H1632 0.950 . S
C1642 C1643 1.386 . S
C1642 C1644 1.391 . S
C1643 C1642 1.386 . S
C1643 C1647 1.393 . S
C1644 H1633 0.950 . S
C1644 C1642 1.391 . S
C1644 C1645 1.400 . S
C1645 C1639 1.491 1_655 S
C1645 C1644 1.400 . S
C1645 C1646 1.398 . S
C1646 H1634 0.950 1_655 S
C1646 C1645 1.398 . S
C1646 C1647 1.391 . S
C1647 H1635 0.950 . S
C1647 C1643 1.393 . S
C1647 C1646 1.391 . S
H1648 C1656 0.950 . S
H1649 C1661 0.950 . S
H1650 C1658 0.950 1_556 S
H1651 C1660 0.950 1_545 S
H1652 C1662 0.950 . S
H1653 C1664 0.950 1_554 S
H1654 C1666 0.950 1_565 S
H1655 C1667 0.950 . S
C1656 H1648 0.950 . S
C1656 C1657 1.386 . S
C1656 C1658 1.391 . S
C1657 C1656 1.386 . S
C1657 C1661 1.393 . S
C1658 H1650 0.950 1_554 S
C1658 C1656 1.391 . S
C1658 C1659 1.400 . S
C1659 C1658 1.400 . S
C1659 C1660 1.398 . S
C1659 C1665 1.491 1_564 S
C1660 H1651 0.950 1_565 S
C1660 C1659 1.398 . S
C1660 C1661 1.391 . S
C1661 H1649 0.950 . S
C1661 C1657 1.393 . S
C1661 C1660 1.391 . S
C1662 H1652 0.950 . S
C1662 C1663 1.386 . S
C1662 C1664 1.391 . S
C1663 C1662 1.386 . S
C1663 C1667 1.393 . S
C1664 H1653 0.950 1_556 S
C1664 C1662 1.391 . S
C1664 C1665 1.400 . S
C1665 C1659 1.491 1_546 S
C1665 C1664 1.400 . S
C1665 C1666 1.398 . S
C1666 H1654 0.950 1_545 S
C1666 C1665 1.398 . S
C1666 C1667 1.391 . S
C1667 H1655 0.950 . S
C1667 C1663 1.393 . S
C1667 C1666 1.391 . S
H1668 C1676 0.950 . S
H1669 C1681 0.950 . S
H1670 C1678 0.950 . S
H1671 C1680 0.950 . S
H1672 C1682 0.950 . S
H1673 C1684 0.950 . S
H1674 C1686 0.950 . S
H1675 C1687 0.950 . S
C1676 H1668 0.950 . S
C1676 C1677 1.386 . S
C1676 C1678 1.391 . S
C1677 C1676 1.386 . S
C1677 C1681 1.393 . S
C1678 H1670 0.950 . S
C1678 C1676 1.391 . S
C1678 C1679 1.400 . S
C1679 C1678 1.400 . S
C1679 C1680 1.398 . S
C1679 C1685 1.491 . S
C1680 H1671 0.950 . S
C1680 C1679 1.398 . S
C1680 C1681 1.391 . S
C1681 H1669 0.950 . S
C1681 C1677 1.393 . S
C1681 C1680 1.391 . S
C1682 H1672 0.950 . S
C1682 C1683 1.386 . S
C1682 C1684 1.391 . S
C1683 C1682 1.386 . S
C1683 C1687 1.393 . S
C1684 H1673 0.950 . S
C1684 C1682 1.391 . S
C1684 C1685 1.400 . S
C1685 C1679 1.491 . S
C1685 C1684 1.400 . S
C1685 C1686 1.398 . S
C1686 H1674 0.950 . S
C1686 C1685 1.398 . S
C1686 C1687 1.391 . S
C1687 H1675 0.950 . S
C1687 C1683 1.393 . S
C1687 C1686 1.391 . S
H1688 C1696 0.950 . S
H1689 C1701 0.950 . S
H1690 C1698 0.950 1_554 S
H1691 C1700 0.950 1_455 S
H1692 C1702 0.950 . S
H1693 C1704 0.950 1_556 S
H1694 C1706 0.950 1_655 S
H1695 C1707 0.950 . S
C1696 H1688 0.950 . S
C1696 C1697 1.386 . S
C1696 C1698 1.391 . S
C1697 C1696 1.386 . S
C1697 C1701 1.393 . S
C1698 H1690 0.950 1_556 S
C1698 C1696 1.391 . S
C1698 C1699 1.400 . S
C1699 C1698 1.400 . S
C1699 C1700 1.398 . S
C1699 C1705 1.491 1_656 S
C1700 H1691 0.950 1_655 S
C1700 C1699 1.398 . S
C1700 C1701 1.391 . S
C1701 H1689 0.950 . S
C1701 C1697 1.393 . S
C1701 C1700 1.391 . S
C1702 H1692 0.950 . S
C1702 C1703 1.386 . S
C1702 C1704 1.391 . S
C1703 C1702 1.386 . S
C1703 C1707 1.393 . S
C1704 H1693 0.950 1_554 S
C1704 C1702 1.391 . S
C1704 C1705 1.400 . S
C1705 C1699 1.491 1_454 S
C1705 C1704 1.400 . S
C1705 C1706 1.398 . S
C1706 H1694 0.950 1_455 S
C1706 C1705 1.398 . S
C1706 C1707 1.391 . S
C1707 H1695 0.950 . S
C1707 C1703 1.393 . S
C1707 C1706 1.391 . S
H1708 C1716 0.950 . S
H1709 C1721 0.950 . S
H1710 C1718 0.950 . S
H1711 C1720 0.950 1_545 S
H1712 C1722 0.950 . S
H1713 C1724 0.950 . S
H1714 C1726 0.950 1_565 S
H1715 C1727 0.950 . S
C1716 H1708 0.950 . S
C1716 C1717 1.386 . S
C1716 C1718 1.391 . S
C1717 C1716 1.386 . S
C1717 C1721 1.393 . S
C1718 H1710 0.950 . S
C1718 C1716 1.391 . S
C1718 C1719 1.400 . S
C1719 C1718 1.400 . S
C1719 C1720 1.398 . S
C1719 C1725 1.491 1_565 S
C1720 H1711 0.950 1_565 S
C1720 C1719 1.398 . S
C1720 C1721 1.391 . S
C1721 H1709 0.950 . S
C1721 C1717 1.393 . S
C1721 C1720 1.391 . S
C1722 H1712 0.950 . S
C1722 C1723 1.386 . S
C1722 C1724 1.391 . S
C1723 C1722 1.386 . S
C1723 C1727 1.393 . S
C1724 H1713 0.950 . S
C1724 C1722 1.391 . S
C1724 C1725 1.400 . S
C1725 C1719 1.491 1_545 S
C1725 C1724 1.400 . S
C1725 C1726 1.398 . S
C1726 H1714 0.950 1_545 S
C1726 C1725 1.398 . S
C1726 C1727 1.391 . S
C1727 H1715 0.950 . S
C1727 C1723 1.393 . S
C1727 C1726 1.391 . S
C1017 C391 1.357 . S
C1023 C58 1.184 . S
C1037 C475 1.357 . S
C1043 C142 1.207 . S
C1057 C226 1.176 . S
C1063 C55 1.355 . S
C1077 C310 1.187 . S
C1083 C139 1.354 . S
C1097 C394 1.218 . S
C1103 C223 1.363 . S
C1117 C307 1.362 . S
C1123 C478 1.225 . S
C1137 C727 1.359 . S
C1143 C562 1.216 . S
C1157 C646 1.225 . S
C1163 C811 1.363 . S
C1177 C895 1.357 . S
C1183 C730 1.205 . S
C1197 C814 1.210 . S
C1203 C979 1.358 . S
C1217 C898 1.175 . S
C1223 C559 1.354 . S
C1237 C643 1.359 . S
C1243 C982 1.194 . S
C1257 C403 1.438 . S
C1263 C70 1.267 . S
C1277 C154 1.272 . S
C1283 C487 1.440 . S
C1297 C238 1.272 . S
C1303 C67 1.430 . S
C1317 C322 1.286 . S
C1323 C151 1.431 . S
C1337 C235 1.439 . S
C1343 C406 1.270 . S
C1357 C319 1.443 . S
C1363 C490 1.310 . S
C1377 C739 1.432 . S
C1383 C574 1.291 . S
C1397 C658 1.310 . S
C1403 C823 1.443 . S
C1417 C742 1.292 . S
C1423 C907 1.445 . S
C1437 C991 1.445 . S
C1443 C826 1.295 . S
C1457 C910 1.302 . S
C1463 C571 1.445 . S
C1477 C655 1.430 . S
C1483 C994 1.278 . S
C1497 C896 1.803 . S
C1503 C56 1.821 . S
C1517 C140 1.807 . S
C1523 C980 1.827 . S
C1537 C224 1.812 . S
C1543 C560 1.804 . S
C1557 C308 1.807 . S
C1563 C644 1.827 . S
C1577 C392 1.827 . S
C1583 C728 1.807 . S
C1597 C812 1.805 . S
C1603 C476 1.825 . S
C1617 C824 1.939 . S
C1623 C68 1.947 . S
C1637 C908 1.942 . S
C1643 C152 1.951 . S
C1657 C236 1.939 . S
C1663 C992 1.946 . S
C1677 C320 1.951 . S
C1683 C572 1.945 . S
C1697 C656 1.939 . S
C1703 C404 1.945 . S
C1717 C740 1.939 . S
C1723 C488 1.944 . S
