# Generated by pormake.
# Topology rkf, (6)-cn, num edge types: 1
# Building blocks:
#     Node 0, Type 0, BuildingBlock: PAMTUU_clean_sbu_0, # of connection points: 6
#     Node 1, Type 0, BuildingBlock: PAMTUU_clean_sbu_0, # of connection points: 6
#     Node 2, Type 0, BuildingBlock: PAMTUU_clean_sbu_0, # of connection points: 6
#     Node 3, Type 0, BuildingBlock: PAMTUU_clean_sbu_0, # of connection points: 6
#     Node 4, Type 0, BuildingBlock: PAMTUU_clean_sbu_0, # of connection points: 6
#     Node 5, Type 0, BuildingBlock: PAMTUU_clean_sbu_0, # of connection points: 6
#     Edge 6, Type (0, 0), BuildingBlock: FUNLAD_clean_linker_0, # of connection points: 2
#     Edge 7, Type (0, 0), BuildingBlock: FUNLAD_clean_linker_0, # of connection points: 2
#     Edge 8, Type (0, 0), BuildingBlock: FUNLAD_clean_linker_0, # of connection points: 2
#     Edge 9, Type (0, 0), BuildingBlock: FUNLAD_clean_linker_0, # of connection points: 2
#     Edge 10, Type (0, 0), BuildingBlock: FUNLAD_clean_linker_0, # of connection points: 2
#     Edge 11, Type (0, 0), BuildingBlock: FUNLAD_clean_linker_0, # of connection points: 2
#     Edge 12, Type (0, 0), BuildingBlock: FUNLAD_clean_linker_0, # of connection points: 2
#     Edge 13, Type (0, 0), BuildingBlock: FUNLAD_clean_linker_0, # of connection points: 2
#     Edge 14, Type (0, 0), BuildingBlock: FUNLAD_clean_linker_0, # of connection points: 2
#     Edge 15, Type (0, 0), BuildingBlock: FUNLAD_clean_linker_0, # of connection points: 2
#     Edge 16, Type (0, 0), BuildingBlock: FUNLAD_clean_linker_0, # of connection points: 2
#     Edge 17, Type (0, 0), BuildingBlock: FUNLAD_clean_linker_0, # of connection points: 2
#     Edge 18, Type (0, 0), BuildingBlock: FUNLAD_clean_linker_0, # of connection points: 2
#     Edge 19, Type (0, 0), BuildingBlock: FUNLAD_clean_linker_0, # of connection points: 2
#     Edge 20, Type (0, 0), BuildingBlock: FUNLAD_clean_linker_0, # of connection points: 2
#     Edge 21, Type (0, 0), BuildingBlock: FUNLAD_clean_linker_0, # of connection points: 2
#     Edge 22, Type (0, 0), BuildingBlock: FUNLAD_clean_linker_0, # of connection points: 2
#     Edge 23, Type (0, 0), BuildingBlock: FUNLAD_clean_linker_0, # of connection points: 2
# Relax obj value: 0.684
# Max RMSD: 0.268
# Mean RMSD: 0.268
data_MOF--net-rkf--node1-PAMTUU_clean_sbu_0--edge1-FUNLAD_clean_linker_0
_symmetry_space_group_name_H-M    P1
_symmetry_Int_Tables_number       1
_symmetry_cell_setting            triclinic
loop_
_symmetry_equiv_pos_as_xyz
'x, y, z'
_cell_length_a     29.567235
_cell_length_b     29.439404
_cell_length_c     50.757988
_cell_angle_alpha  89.862786
_cell_angle_beta   89.511206
_cell_angle_gamma 120.24125
loop_
_atom_site_label
_atom_site_type_symbol
_atom_site_fract_x
_atom_site_fract_y
_atom_site_fract_z
_atom_type_partial_charge
Tb0 Tb 0.18199 0.01981 0.14317 0.0
Tb1 Tb 0.25997 0.14432 0.12641 0.0
C2 C 0.30138 0.06975 0.1409 0.0
C3 C 0.08203 0.88485 0.17276 0.0
C4 C 0.00406 0.79753 0.20112 0.0
C5 C 0.0572 0.81341 0.20405 0.0
C6 C 0.09568 0.85642 0.18995 0.0
C7 C 0.02896 0.86977 0.17016 0.0
C8 C -0.00968 0.82662 0.18435 0.0
C9 C 0.12256 0.92422 0.15498 0.0
O10 O 0.20408 0.06288 0.18087 0.0
O11 O 0.22745 0.14524 0.16513 0.0
O12 O 0.18648 0.12107 1.10735 0.0
O13 O 0.13874 0.06083 0.13884 0.0
O14 O 0.33502 0.20065 1.1132 0.0
O15 O 0.27927 0.22336 0.12632 0.0
O16 O 0.24598 0.1024 1.0884 0.0
O17 O 0.18522 0.01655 1.10029 0.0
O18 O 0.25754 0.03013 0.13275 0.0
O19 O 0.30403 0.11424 0.14677 0.0
C20 C 0.21529 0.11186 0.18492 0.0
O21 O 0.10966 0.95056 0.13901 0.0
O22 O 0.16987 0.95293 0.16407 0.0
C23 C 0.1409 0.08487 1.11666 0.0
C24 C 0.34304 0.2778 1.09496 0.0
C25 C 0.37713 0.35393 1.0546 0.0
C26 C 0.33635 0.30209 1.05016 0.0
C27 C 0.31941 0.26426 1.07022 0.0
C28 C 0.38406 0.32905 1.09939 0.0
C29 C 0.401 0.3669 1.07939 0.0
C30 C 0.32587 0.23929 1.11644 0.0
C31 C 0.21292 0.05254 1.08229 0.0
H32 H 0.06915 0.79255 0.21727 0.0
H33 H 0.13615 0.86656 0.192 0.0
H34 H 0.01711 0.8903 0.15666 0.0
H35 H 0.94966 0.81525 0.1817 0.0
H36 H 0.31661 0.2911 1.03139 0.0
H37 H 0.28767 0.2247 1.06655 0.0
H38 H 0.40284 0.33988 1.11842 0.0
H39 H 0.43273 0.40629 1.08332 0.0
Tb40 Tb 0.2095 0.33694 0.46117 0.0
Tb41 Tb 0.20383 0.22962 0.48142 0.0
C42 C 0.31012 0.3376 0.47806 0.0
C43 C 0.17738 0.43302 0.43246 0.0
C44 C 0.11 0.45498 0.40332 0.0
C45 C 0.16271 0.49391 0.40674 0.0
C46 C 0.19614 0.48297 0.42127 0.0
C47 C 0.12463 0.39441 0.42956 0.0
C48 C 0.0912 0.40531 0.41517 0.0
C49 C 0.21294 0.42113 0.4469 0.0
O50 O 0.22844 0.30375 0.42635 0.0
O51 O 0.18583 0.21772 0.43964 0.0
O52 O 0.12273 0.21272 0.47906 0.0
O53 O 0.13304 0.27658 0.44943 0.0
O54 O 0.22351 0.17151 0.47442 0.0
O55 O 0.17831 0.16766 0.5088 0.0
O56 O 0.21179 0.27448 0.51714 0.0
O57 O 0.17173 0.31698 0.50053 0.0
O58 O 0.28307 0.36142 0.48 0.0
O59 O 0.28701 0.28654 0.47469 0.0
C60 C 0.20772 0.25324 0.42086 0.0
O61 O 0.19585 0.39866 0.46975 0.0
O62 O 0.23374 0.39851 0.43347 0.0
C63 C 0.10325 0.23325 0.46271 0.0
C64 C 0.2368 0.13603 0.51281 0.0
C65 C 0.29997 0.11218 0.54434 0.0
C66 C 0.25832 0.07254 0.52999 0.0
C67 C 0.22703 0.08443 0.51436 0.0
C68 C 0.27903 0.17613 0.52648 0.0
C69 C 0.31035 0.16425 0.54223 0.0
C70 C 0.20295 0.14744 0.49662 0.0
C71 C 0.18512 0.29867 0.52095 0.0
H72 H 0.17821 0.53252 0.3979 0.0
H73 H 0.23677 0.51324 0.42345 0.0
H74 H 0.10949 0.35557 0.43807 0.0
H75 H 0.05113 0.37412 0.41247 0.0
H76 H 0.24864 0.03192 0.53158 0.0
H77 H 0.19468 0.05316 0.50379 0.0
H78 H 0.28734 0.21637 0.5252 0.0
H79 H 0.34229 0.19562 0.55294 0.0
Tb80 Tb 0.04846 0.33675 0.81515 0.0
Tb81 Tb 0.94678 0.2281 0.79791 0.0
C82 C 0.95054 0.33579 0.79635 0.0
C83 C 0.16054 0.44842 0.84991 0.0
C84 C 0.23276 0.49166 0.8911 0.0
C85 C 0.24437 0.51643 0.86628 0.0
C86 C 0.20841 0.49496 0.84585 0.0
C87 C 0.1483 0.42396 0.87473 0.0
C88 C 0.18409 0.44553 0.89521 0.0
C89 C 0.12504 0.42486 0.82772 0.0
O90 O -0.00104 0.30415 0.85123 0.0
O91 O 0.95463 0.21732 0.83973 0.0
O92 O 0.01238 0.21327 0.79947 0.0
O93 O 0.06505 0.27746 0.82855 0.0
O94 O 0.86731 0.17401 0.80534 0.0
O95 O 0.90917 0.1617 0.77377 0.0
O96 O -0.01805 0.26859 0.76042 0.0
O97 O 0.06567 0.31904 0.77536 0.0
O98 O 0.00021 0.35561 0.7913 0.0
O99 O 0.92289 0.28682 0.80435 0.0
C100 C 0.96954 0.25382 0.85782 0.0
O101 O 0.12953 0.38903 0.81488 0.0
O102 O 0.07614 0.41115 0.83188 0.0
C103 C 0.05324 0.23508 0.81513 0.0
C104 C 0.82042 0.13577 0.76684 0.0
C105 C 0.73666 0.11283 0.73293 0.0
C106 C 0.78858 0.14897 0.72527 0.0
C107 C 0.83003 0.16057 0.74212 0.0
C108 C 0.76873 0.10096 0.77491 0.0
C109 C 0.72717 0.0897 0.75816 0.0
C110 C 0.86357 0.14643 0.78463 0.0
C111 C 0.03283 0.29615 0.75578 0.0
H112 H 0.28144 0.55204 0.86261 0.0
H113 H 0.21835 0.5142 0.82672 0.0
H114 H 0.11161 0.3877 0.87809 0.0
H115 H 0.17444 0.42502 0.91399 0.0
H116 H 0.79754 0.16692 0.70585 0.0
H117 H 0.86961 0.1882 0.7356 0.0
H118 H 0.76055 0.08209 0.79411 0.0
H119 H 0.68767 0.0623 0.76485 0.0
Tb120 Tb 0.74622 0.97052 0.13004 0.0
Tb121 Tb 0.82843 0.09158 0.14885 0.0
C122 C 0.70955 0.049 0.14272 0.0
C123 C 0.64634 0.84736 1.09647 0.0
C124 C 0.58159 0.78673 1.05497 0.0
C125 C 0.57449 0.76513 1.08044 0.0
C126 C 0.6067 0.79525 1.10101 0.0
C127 C 0.6521 0.86997 1.07145 0.0
C128 C 0.62008 0.83988 1.05086 0.0
C129 C 0.68276 0.87649 1.11769 0.0
O130 O 0.77916 0.012 1.0923 0.0
O131 O 0.82103 0.09848 1.1061 0.0
O132 O 0.87308 0.06396 0.1269 0.0
O133 O 0.82116 0.97999 0.1401 0.0
O134 O 0.84695 0.17008 0.14745 0.0
O135 O 0.89538 0.14728 0.16896 0.0
O136 O 0.81926 0.04332 0.18383 0.0
O137 O 0.74246 0.96823 0.17332 0.0
O138 O 0.70851 0.0165 0.12489 0.0
O139 O 0.74894 0.07208 0.15895 0.0
C140 C 0.80526 0.06315 1.08713 0.0
O141 O 0.73247 0.90135 1.11142 0.0
O142 O 0.67038 0.90473 0.13258 0.0
C143 C 0.8629 0.01523 0.1275 0.0
C144 C 0.8847 0.21558 0.18612 0.0
C145 C 0.88209 0.27565 0.22851 0.0
C146 C 0.92468 0.29686 0.21066 0.0
C147 C 0.92588 0.26703 0.18961 0.0
C148 C 0.84184 0.19426 0.20364 0.0
C149 C 0.84051 0.22408 0.22468 0.0
C150 C 0.88582 0.18507 0.16365 0.0
C151 C 0.77891 -0.00281 0.19051 0.0
H152 H 0.54491 0.72459 1.08435 0.0
H153 H 0.60156 0.77738 0.12031 0.0
H154 H 0.68246 0.91028 1.06765 0.0
H155 H 0.62728 0.85762 1.03143 0.0
H156 H 0.95779 0.33604 0.21333 0.0
H157 H 0.95911 0.28403 0.17615 0.0
H158 H 0.80947 0.15459 0.20102 0.0
H159 H 0.80702 0.20677 0.23795 0.0
Tb160 Tb 0.72858 0.81751 0.48445 0.0
Tb161 Tb 0.83609 0.82429 0.46518 0.0
C162 C 0.72885 0.71965 0.46426 0.0
C163 C 0.62589 0.8358 0.5182 0.0
C164 C 0.58939 0.88377 0.55368 0.0
C165 C 0.55556 0.8325 0.54475 0.0
C166 C 0.57367 0.80881 0.527 0.0
C167 C 0.65995 0.8867 0.52738 0.0
C168 C 0.64179 0.91055 0.54488 0.0
C169 C 0.64355 0.81171 0.49841 0.0
O170 O 0.76096 0.79841 0.51953 0.0
O171 O 0.84715 0.84212 0.50684 0.0
O172 O 0.85081 0.90531 0.46655 0.0
O173 O 0.7893 0.8925 0.49792 0.0
O174 O 0.89349 0.80428 0.47291 0.0
O175 O 0.89773 0.84745 0.43774 0.0
O176 O 0.7936 0.81701 0.42884 0.0
O177 O 0.74789 0.85451 0.44492 0.0
O178 O 0.7066 0.74792 0.46166 0.0
O179 O 0.7776 0.74115 0.47178 0.0
C180 C 0.81116 0.81874 0.52524 0.0
O181 O 0.67507 0.84355 0.48029 0.0
O182 O 0.65869 0.77974 0.50697 0.0
C183 C 0.82978 0.92397 0.48327 0.0
C184 C 0.9182 0.78059 0.43355 0.0
C185 C 0.91532 0.70785 0.39673 0.0
C186 C 0.95766 0.75996 0.39694 0.0
C187 C 0.95902 0.79603 0.41521 0.0
C188 C 0.87733 0.72794 0.43434 0.0
C189 C 0.87604 0.69184 0.41617 0.0
C190 C 0.91519 0.82027 0.44975 0.0
C191 C 0.76848 0.84265 0.42479 0.0
H192 H 0.51506 0.811 0.55128 0.0
H193 H 0.54683 0.76958 0.51998 0.0
H194 H 0.70046 0.90814 0.52086 0.0
H195 H 0.66902 0.94967 0.55188 0.0
H196 H -0.01186 0.77389 0.38196 0.0
H197 H -0.00939 0.83654 0.41419 0.0
H198 H 0.84522 0.71511 0.4483 0.0
H199 H 0.8432 0.65196 0.41667 0.0
Tb200 Tb 0.04773 0.83188 0.79912 0.0
Tb201 Tb 0.94845 0.84271 0.81772 0.0
C202 C 0.95117 0.73898 0.82409 0.0
C203 C 0.15414 0.82922 0.76041 0.0
C204 C 0.22046 0.85931 0.71585 0.0
C205 C 0.16871 0.84905 0.7137 0.0
C206 C 0.13588 0.83436 0.73583 0.0
C207 C 0.20512 0.83788 0.76254 0.0
C208 C 0.23816 0.85296 0.74043 0.0
C209 C 0.12203 0.8187 0.78428 0.0
O210 O -0.00612 0.80878 0.76506 0.0
O211 O 0.95689 0.85815 0.77563 0.0
O212 O 0.01471 0.923 0.81359 0.0
O213 O 0.06534 0.90774 0.78439 0.0
O214 O 0.87279 0.8257 0.80769 0.0
O215 O 0.90857 0.86658 0.84356 0.0
O216 O -0.01241 0.84711 0.8549 0.0
O217 O 0.06881 0.86867 0.83826 0.0
O218 O 0.00154 0.76908 0.82659 0.0
O219 O 0.92328 0.75875 0.81507 0.0
C220 C 0.96624 0.83092 0.75829 0.0
O221 O 0.12844 0.86034 0.79653 0.0
O222 O 0.07266 0.78269 0.78264 0.0
C223 C 0.05485 0.94005 0.79713 0.0
C224 C 0.81658 0.80955 0.84376 0.0
C225 C 0.72103 0.74595 0.87068 0.0
C226 C 0.76781 0.75006 0.87981 0.0
C227 C 0.81513 0.78139 0.8664 0.0
C228 C 0.76994 0.80436 0.83414 0.0
C229 C 0.72256 0.77276 0.84741 0.0
C230 C 0.86596 0.84407 0.82969 0.0
C231 C 0.03822 0.86598 0.85809 0.0
H232 H 0.15428 0.85457 0.69512 0.0
H233 H 0.0968 0.82846 0.7339 0.0
H234 H 0.21982 0.8343 0.78145 0.0
H235 H 0.27775 0.86048 0.74262 0.0
H236 H 0.7683 0.73064 0.89786 0.0
H237 H 0.85065 0.78433 0.87398 0.0
H238 H 0.77027 0.82526 0.81647 0.0
H239 H 0.68722 0.76991 0.83964 0.0
C240 C 0.86559 0.94353 1.10232 0.0
C241 C 0.88552 -0.00244 1.10662 0.0
C242 C 0.88118 0.92652 1.08017 0.0
C243 C 0.91753 0.96323 1.06227 0.0
C244 C 0.93738 0.01711 1.06642 0.0
C245 C 0.92179 0.03414 1.08846 0.0
C246 C 0.93829 0.94569 1.04041 0.0
C247 C -0.0103 0.96249 1.03783 0.0
C248 C 0.02792 -0.00543 1.05823 0.0
C249 C 0.01993 0.97729 1.08458 0.0
C250 C 0.05438 0.00869 1.10406 0.0
C251 C 0.09823 0.05754 1.09749 0.0
H252 H 0.07754 0.05765 1.0314 0.0
C253 C 0.10547 0.07516 1.07111 0.0
C254 C 0.07091 0.04362 1.0516 0.0
H255 H 0.13904 0.11243 1.06528 0.0
H256 H 0.83712 0.91427 1.11576 0.0
H257 H 0.8658 0.88483 1.07733 0.0
H258 H 0.96534 0.04605 1.05268 0.0
H259 H 0.93729 0.07594 1.09088 0.0
H260 H 0.91125 0.91888 1.02593 0.0
H261 H 0.00371 0.95213 1.02029 0.0
H262 H -0.01285 0.9392 1.09007 0.0
H263 H 0.04774 -0.00637 0.12407 0.0
C264 C 0.86914 0.01076 0.45976 0.0
C265 C 0.84316 0.97949 0.48194 0.0
C266 C 0.87064 0.05853 0.45576 0.0
C267 C 0.84651 0.07581 0.47399 0.0
C268 C 0.82238 0.04565 0.49655 0.0
C269 C 0.82128 -0.00169 0.50069 0.0
C270 C 0.84371 0.12388 0.46915 0.0
C271 C 0.88492 0.17064 0.46223 0.0
C272 C 0.93984 0.1824 0.46164 0.0
C273 C 0.9728 0.21309 0.44099 0.0
C274 C 0.02544 0.22724 0.44067 0.0
C275 C 0.04623 0.21136 0.4612 0.0
H276 H 0.9363 0.1442 0.49889 0.0
C277 C 0.01303 0.17994 0.48173 0.0
C278 C 0.96039 0.16615 0.48213 0.0
H279 H 0.02817 0.16814 0.4981 0.0
H280 H 0.88558 -0.00299 0.44476 0.0
H281 H 0.88879 0.08091 0.43794 0.0
H282 H 0.80362 0.05836 0.51081 0.0
H283 H 0.80099 0.97522 0.51803 0.0
H284 H 0.80569 0.12091 0.47112 0.0
H285 H 0.87758 0.20212 0.45694 0.0
H286 H 0.9579 0.22654 0.42519 0.0
H287 H 0.05015 0.25176 0.42462 0.0
C288 C 0.09747 0.03094 0.81539 0.0
C289 C 0.09349 -0.0033 0.79516 0.0
C290 C 0.1398 0.08236 0.81586 0.0
C291 C 0.17811 0.10081 0.79573 0.0
C292 C 0.17346 0.06703 0.77524 0.0
C293 C 0.13145 0.01554 0.77486 0.0
C294 C 0.22531 0.15381 0.79668 0.0
C295 C 0.22538 0.19788 0.80363 0.0
C296 C 0.17783 0.20171 0.8079 0.0
C297 C 0.17614 0.23102 0.82915 0.0
C298 C 0.13361 0.2387 0.83254 0.0
C299 C 0.09223 0.21779 0.81446 0.0
H300 H 0.13702 0.15801 0.77314 0.0
C301 C 0.09322 0.18709 0.79357 0.0
C302 C 0.13593 0.17954 0.79017 0.0
H303 H 0.06249 0.17129 0.77904 0.0
H304 H 0.06952 0.01725 0.83159 0.0
H305 H 0.14344 0.10698 0.83245 0.0
H306 H 0.20285 0.08028 0.7597 0.0
H307 H 0.12964 -0.01001 0.75907 0.0
H308 H 0.2627 0.1571 0.79178 0.0
H309 H 0.26305 0.23353 0.80592 0.0
H310 H 0.20821 0.24874 0.84292 0.0
H311 H 0.13418 0.26275 0.84879 0.0
C312 C 0.40025 0.4447 1.04013 0.0
C313 C 0.39249 0.39478 1.03385 0.0
C314 C 0.40685 0.48038 1.02018 0.0
C315 C 0.40535 0.46649 0.99358 0.0
C316 C 0.40244 0.41862 0.98745 0.0
C317 C 0.39579 0.38296 1.00737 0.0
C318 C 0.39928 0.49669 0.97183 0.0
C319 C 0.37212 0.52184 0.97509 0.0
C320 C 0.34249 0.52752 0.95315 0.0
C321 C 0.29254 0.51985 0.95876 0.0
C322 C 0.2577 0.51133 0.93845 0.0
C323 C 0.27249 0.51104 0.91213 0.0
H324 H 0.39805 0.54021 0.92172 0.0
C325 C 0.32432 0.5242 0.90637 0.0
C326 C 0.35915 0.53254 0.92672 0.0
H327 H 0.33698 0.52467 0.88624 0.0
H328 H 0.39832 0.45516 1.06039 0.0
H329 H 0.41085 0.51774 1.02565 0.0
H330 H 0.40185 0.40719 0.96712 0.0
H331 H 0.39131 0.34534 1.00197 0.0
H332 H 0.40666 0.4878 0.95205 0.0
H333 H 0.3612 0.52716 0.99483 0.0
H334 H 0.27895 0.51649 0.97896 0.0
H335 H 0.21837 0.50251 0.94341 0.0
C336 C 0.02248 0.44302 0.39138 0.0
C337 C 0.07581 0.46363 0.3853 0.0
C338 C -0.01209 0.44037 0.37204 0.0
C339 C 0.00612 0.45775 0.34619 0.0
C340 C 0.06022 0.48384 0.34106 0.0
C341 C 0.09477 0.48657 0.36038 0.0
C342 C 0.97044 0.44208 0.32333 0.0
C343 C 0.92493 0.39583 0.32294 0.0
C344 C 0.90347 0.36591 0.29826 0.0
C345 C 0.87832 0.31084 0.29969 0.0
C346 C 0.8686 0.28116 0.27688 0.0
C347 C 0.88335 0.30597 0.25209 0.0
H348 H 0.931 0.43253 0.2714 0.0
C349 C 0.90379 0.3606 0.25046 0.0
C350 C 0.9136 0.39036 0.27333 0.0
H351 H 0.914 0.38061 0.23154 0.0
H352 H 0.00708 0.42649 0.41071 0.0
H353 H 0.94674 0.42219 0.37707 0.0
H354 H 0.07545 0.49819 0.32141 0.0
H355 H 0.13565 0.50289 0.35508 0.0
H356 H -0.01233 0.4626 0.3049 0.0
H357 H 0.90946 0.37373 0.34117 0.0
H358 H 0.86964 0.29088 0.31861 0.0
H359 H 0.85278 0.23918 0.27887 0.0
C360 C 0.6555 0.04212 0.7118 0.0
C361 C 0.69361 0.09563 0.71365 0.0
C362 C 0.62128 0.02382 0.6906 0.0
C363 C 0.62442 0.05871 0.67068 0.0
C364 C 0.65965 0.1127 0.67365 0.0
C365 C 0.6937 0.13107 0.69499 0.0
C366 C 0.60049 0.03926 0.6445 0.0
C367 C 0.56098 0.98983 0.64049 0.0
C368 C 0.55627 0.96152 0.61554 0.0
C369 C 0.53682 0.9071 0.61704 0.0
C370 C 0.54447 0.88084 0.59615 0.0
C371 C 0.57153 0.90859 0.57333 0.0
H372 H 0.59128 0.02929 0.58908 0.0
C373 C 0.586 0.96174 0.57071 0.0
C374 C 0.57803 0.98794 0.59153 0.0
H375 H 0.60552 0.98361 0.55295 0.0
H376 H 0.6546 0.01354 0.72559 0.0
H377 H 0.59582 0.98178 0.68892 0.0
H378 H 0.66306 0.14044 0.65858 0.0
H379 H 0.72184 0.17272 0.69615 0.0
H380 H 0.62246 0.06394 0.62785 0.0
H381 H 0.53837 0.96618 0.65731 0.0
H382 H 0.51938 0.88559 0.63517 0.0
H383 H 0.5326 0.83975 0.59864 0.0
C384 C 0.54783 0.70272 1.02981 0.0
C385 C 0.55363 0.753 1.03212 0.0
C386 C 0.53363 0.67622 1.00581 0.0
C387 C 0.52579 0.7 0.9836 0.0
C388 C 0.52493 0.74689 0.98687 0.0
C389 C 0.53889 0.77328 1.01089 0.0
C390 C 0.52876 0.68351 0.95631 0.0
C391 C 0.56065 0.66462 0.95017 0.0
C392 C 0.59088 0.67695 0.92501 0.0
C393 C 0.60026 0.72028 0.90918 0.0
C394 C 0.64041 0.74049 0.89031 0.0
C395 C 0.67216 0.71801 0.88677 0.0
H396 H 0.61358 0.61857 0.93181 0.0
C397 C 0.6599 0.67207 0.90096 0.0
C398 C 0.61979 0.65189 0.91992 0.0
H399 H 0.6829 0.65312 0.89831 0.0
H400 H 0.55825 0.68553 1.04585 0.0
H401 H 0.53234 0.63892 1.00432 0.0
H402 H 0.5181 0.76567 0.97021 0.0
H403 H 0.54133 0.81116 1.0123 0.0
H404 H 0.51493 0.69864 0.94074 0.0
H405 H 0.57338 0.64819 0.96562 0.0
H406 H 0.58002 0.74175 0.9126 0.0
H407 H 0.64897 0.7762 0.87995 0.0
C408 C 0.85993 0.64554 0.36163 0.0
C409 C 0.90873 0.67334 0.37409 0.0
C410 C 0.85633 0.62503 0.33646 0.0
C411 C 0.90165 0.6327 0.32325 0.0
C412 C 0.94878 0.65392 0.33715 0.0
C413 C 0.95239 0.67431 0.36234 0.0
C414 C 0.90419 0.62953 0.29415 0.0
C415 C 0.87702 0.64423 0.27851 0.0
C416 C 0.90025 0.67457 0.25384 0.0
C417 C 0.89203 0.71659 0.24819 0.0
C418 C 0.92368 0.75511 0.22977 0.0
C419 C 0.9638 0.75193 0.21648 0.0
H420 H 0.94242 0.63533 0.24156 0.0
C421 C 0.96813 0.70686 0.22 0.0
C422 C 0.93651 0.66836 0.23846 0.0
H423 H -0.00241 0.70252 0.20931 0.0
H424 H 0.82532 0.64354 0.37022 0.0
H425 H 0.81887 0.60684 0.3267 0.0
H426 H -0.01586 0.6594 0.32761 0.0
H427 H -0.00983 0.69414 0.37181 0.0
H428 H 0.93847 0.62966 0.28621 0.0
H429 H 0.84462 0.64707 0.28687 0.0
H430 H 0.86399 0.72207 0.25959 0.0
H431 H 0.91915 0.78917 0.22739 0.0
C432 C 0.30658 0.92574 0.6958 0.0
C433 C 0.25672 0.88104 0.69294 0.0
C434 C 0.33652 0.95269 0.67361 0.0
C435 C 0.31684 0.93543 0.64819 0.0
C436 C 0.26957 0.88774 0.64548 0.0
C437 C 0.23959 0.86096 0.66762 0.0
C438 C 0.33971 0.96907 0.62439 0.0
C439 C 0.36265 0.0219 0.62541 0.0
C440 C 0.36053 0.05315 0.60295 0.0
C441 C 0.35347 0.09585 0.6086 0.0
C442 C 0.33742 0.11782 0.58901 0.0
C443 C 0.32862 0.09776 0.56331 0.0
H444 H 0.36486 0.00576 0.57134 0.0
C445 C 0.34141 0.05906 0.55701 0.0
C446 C 0.35748 0.03706 0.57663 0.0
H447 H 0.33652 0.04398 0.53716 0.0
H448 H 0.321 0.94193 0.7151 0.0
H449 H 0.37372 0.9883 0.67645 0.0
H450 H 0.2538 0.87313 0.62613 0.0
H451 H 0.20182 0.82591 0.66488 0.0
H452 H 0.32668 0.94952 0.60556 0.0
H453 H 0.37223 0.04112 0.64444 0.0
H454 H 0.35612 0.10944 0.62866 0.0
H455 H 0.32804 0.14768 0.59452 0.0
C456 C 0.39759 0.108 0.14838 0.0
C457 C 0.34824 0.06423 0.14311 0.0
C458 C 0.44219 0.103 0.14903 0.0
C459 C 0.4382 0.05386 0.14465 0.0
C460 C 0.38867 0.01013 0.1398 0.0
C461 C 0.34424 0.01517 0.13904 0.0
C462 C 0.48445 0.04658 0.14341 0.0
C463 C 0.5326 0.08167 0.15205 0.0
C464 C 0.578 0.07331 0.14926 0.0
C465 C 0.61966 0.09759 0.16698 0.0
C466 C 0.66267 0.09005 0.16488 0.0
C467 C 0.66495 0.05833 0.14485 0.0
H468 H 0.55095 0.02514 1.11406 0.0
C469 C 0.62385 0.03513 0.12675 0.0
C470 C 0.58107 0.04275 0.12881 0.0
H471 H 0.62466 0.01109 1.11084 0.0
H472 H 0.40201 0.14644 0.15141 0.0
H473 H 0.47957 0.13806 0.15224 0.0
H474 H 0.38431 0.97185 0.13624 0.0
H475 H 0.30683 0.98059 0.13498 0.0
H476 H 0.47787 0.00964 0.13534 0.0
H477 H 0.53902 0.11664 0.16235 0.0
H478 H 0.61865 0.12193 0.18269 0.0
H479 H 0.69388 0.1088 0.17905 0.0
C480 C 0.39035 0.42382 0.46967 0.0
C481 C 0.36795 0.37094 0.47751 0.0
C482 C 0.44442 0.45662 0.46851 0.0
C483 C 0.47795 0.43772 0.47533 0.0
C484 C 0.45592 0.38513 0.48372 0.0
C485 C 0.4012 0.35163 0.48438 0.0
C486 C 0.5356 0.4743 0.47494 0.0
C487 C 0.55832 0.51027 0.45542 0.0
C488 C 0.6108 0.55897 0.45636 0.0
C489 C 0.62531 0.59402 0.4349 0.0
C490 C 0.66705 0.64543 0.43678 0.0
C491 C 0.69616 0.66271 0.45994 0.0
H492 H 0.63314 0.54963 0.49591 0.0
C493 C 0.68528 0.6267 0.48058 0.0
C494 C 0.64264 0.57514 0.47891 0.0
H495 H 0.7069 0.63956 0.49878 0.0
H496 H 0.36603 0.44007 0.46413 0.0
H497 H 0.45997 0.49729 0.4627 0.0
H498 H 0.48097 0.36988 0.48945 0.0
H499 H 0.38499 0.3111 0.49063 0.0
H500 H 0.55799 0.47345 0.49154 0.0
H501 H 0.53448 0.50653 0.43843 0.0
H502 H 0.60193 0.58289 0.41722 0.0
H503 H 0.67463 0.67268 0.42068 0.0
C504 C 0.96232 0.42502 0.78943 0.0
C505 C 0.92907 0.37186 0.79633 0.0
C506 C 0.94628 0.46173 0.79287 0.0
C507 C 0.89635 0.44642 0.8031 0.0
C508 C 0.86151 0.39287 0.80839 0.0
C509 C 0.87791 0.35583 0.80526 0.0
C510 C 0.88233 0.48725 0.80915 0.0
C511 C 0.91585 0.53015 0.82287 0.0
C512 C 0.91223 0.57834 0.82671 0.0
C513 C 0.94426 0.61397 0.84593 0.0
C514 C 0.9528 0.66503 0.84652 0.0
C515 C 0.92938 0.68184 0.82794 0.0
H516 H 0.86046 0.56741 0.79418 0.0
C517 C 0.89344 0.64506 0.81016 0.0
C518 C 0.88503 0.59358 0.80945 0.0
H519 H 0.87534 0.65723 0.79542 0.0
H520 H 0.00176 0.43896 0.78219 0.0
H521 H 0.97351 0.50257 0.78803 0.0
H522 H 0.82258 0.38012 0.81605 0.0
H523 H 0.85126 0.31518 0.81065 0.0
H524 H 0.84534 0.48208 0.80234 0.0
H525 H 0.95016 0.53104 0.83111 0.0
H526 H 0.96555 0.60338 0.85954 0.0
H527 H 0.98055 0.69248 0.86051 0.0
C528 C 0.22636 0.18354 0.21623 0.0
C529 C 0.2146 0.13128 0.21241 0.0
C530 C 0.22716 0.20319 0.24154 0.0
C531 C 0.21619 0.17168 0.26427 0.0
C532 C 0.20419 0.11909 0.26057 0.0
C533 C 0.2034 0.0993 0.23506 0.0
C534 C 0.21864 0.19628 0.29092 0.0
C535 C 0.20507 0.17061 0.31452 0.0
C536 C 0.20672 0.19483 0.34117 0.0
C537 C 0.18575 0.16097 0.36313 0.0
C538 C 0.18618 0.18017 0.38848 0.0
C539 C 0.20783 0.23438 0.39318 0.0
H540 H 0.24568 0.27746 0.32971 0.0
C541 C 0.22903 0.26876 0.37132 0.0
C542 C 0.22853 0.24936 0.34571 0.0
H543 H 0.24617 0.31072 0.37398 0.0
H544 H 0.23532 0.20987 0.19956 0.0
H545 H 0.23662 0.24371 0.24329 0.0
H546 H 0.19582 0.09294 0.27719 0.0
H547 H 0.19432 0.05895 0.23312 0.0
H548 H 0.23164 0.23791 0.29072 0.0
H549 H 0.19075 0.12871 0.31464 0.0
H550 H 0.1687 0.11892 0.36074 0.0
H551 H 0.16942 0.15197 0.40452 0.0
C552 C 0.18244 0.28602 0.57089 0.0
C553 C 0.16591 0.30144 0.54826 0.0
C554 C 0.16234 0.28652 0.59621 0.0
C555 C 0.12463 0.30209 0.59974 0.0
C556 C 0.10828 0.31741 0.57708 0.0
C557 C 0.12874 0.3175 0.5519 0.0
C558 C 0.09953 0.30075 0.62616 0.0
C559 C 0.12071 0.30239 0.65007 0.0
C560 C 0.09639 0.3023 0.67653 0.0
C561 C 0.12885 0.32112 0.69875 0.0
C562 C 0.10838 0.32016 0.72402 0.0
C563 C 0.0543 0.29953 0.72825 0.0
H564 H 0.01536 0.2662 0.66433 0.0
C565 C 0.02152 0.28054 0.70607 0.0
C566 C 0.0422 0.2821 0.6806 0.0
H567 H 0.97966 0.26399 0.70839 0.0
H568 H 0.21068 0.27302 0.56904 0.0
H569 H 0.17553 0.27335 0.61283 0.0
H570 H 0.0792 0.32935 0.57882 0.0
H571 H 0.1145 0.32931 0.53516 0.0
H572 H 0.06282 0.30072 0.62566 0.0
H573 H 0.15926 0.30641 0.65051 0.0
H574 H 0.1706 0.33666 0.6966 0.0
H575 H 0.13516 0.33484 0.74039 0.0
C576 C 0.96796 0.27284 0.90686 0.0
C577 C 0.95262 0.23667 0.88606 0.0
C578 C 0.9514 0.25574 0.93306 0.0
C579 C 0.91888 0.20192 0.93954 0.0
C580 C 0.90362 0.16578 0.91861 0.0
C581 C 0.92019 0.18286 0.89248 0.0
C582 C 0.90218 0.18595 0.96813 0.0
C583 C 0.87161 0.13572 0.97735 0.0
C584 C 0.85478 0.11916 1.00584 0.0
C585 C 0.82565 0.06498 1.0121 0.0
C586 C 0.80901 0.04689 1.0381 0.0
C587 C 0.8207 0.08232 1.05901 0.0
H588 H 0.88806 0.1967 1.02336 0.0
C589 C 0.84953 0.13659 1.05283 0.0
C590 C 0.86622 0.15473 1.02678 0.0
H591 H 0.85967 0.16544 1.06823 0.0
H592 H -0.00715 0.31451 0.90296 0.0
H593 H 0.96419 0.28503 0.94841 0.0
H594 H 0.87876 0.12407 0.92201 0.0
H595 H 0.90723 0.15342 0.87721 0.0
H596 H 0.91643 0.21784 0.98213 0.0
H597 H 0.85784 0.10383 0.96339 0.0
H598 H 0.81581 0.03611 0.99673 0.0
H599 H 0.7873 0.0049 1.04179 0.0
C600 C 0.80443 0.0081 0.23907 0.0
C601 C 0.77493 0.97572 0.21802 0.0
C602 C 0.80119 0.98698 0.26456 0.0
C603 C 0.76892 0.93261 0.26968 0.0
C604 C 0.73979 0.90049 0.24858 0.0
C605 C 0.74223 0.92163 0.22335 0.0
C606 C 0.76648 0.90727 0.29605 0.0
C607 C 0.77459 0.93139 0.31975 0.0
C608 C 0.77043 0.90535 0.34614 0.0
C609 C 0.75833 0.92477 0.36885 0.0
C610 C 0.75618 0.90343 0.394 0.0
C611 C 0.76721 0.8625 0.39753 0.0
H612 H 0.79121 0.84817 0.33279 0.0
C613 C 0.77949 0.843 0.37485 0.0
C614 C 0.78071 0.86377 0.34953 0.0
H615 H 0.78857 0.81179 0.37665 0.0
H616 H 0.83018 0.04988 0.23587 0.0
H617 H 0.82508 0.01316 0.28 0.0
H618 H 0.71481 0.85852 0.2516 0.0
H619 H 0.71911 0.8951 0.20782 0.0
H620 H 0.75462 0.86585 0.29587 0.0
H621 H 0.78203 0.97147 0.3201 0.0
H622 H 0.75057 0.9569 0.36716 0.0
H623 H 0.74712 0.92009 0.41084 0.0
C624 C 0.79651 0.80064 0.57506 0.0
C625 C 0.82941 0.81586 0.55257 0.0
C626 C 0.81588 0.79935 0.60035 0.0
C627 C 0.86869 0.81287 0.60379 0.0
C628 C 0.90089 0.82722 0.58119 0.0
C629 C 0.88188 0.82903 0.55622 0.0
C630 C 0.89228 0.81182 0.63002 0.0
C631 C 0.87289 0.814 0.65399 0.0
C632 C 0.89883 0.8175 0.68013 0.0
C633 C 0.88376 0.83613 0.70202 0.0
C634 C 0.90589 0.84038 0.72687 0.0
C635 C 0.94374 0.82547 0.73112 0.0
H636 H 0.94899 0.78675 0.66812 0.0
C637 C 0.95865 0.80601 0.70937 0.0
C638 C 0.9367 0.80227 0.68418 0.0
H639 H -0.01254 0.79394 0.71176 0.0
H640 H 0.75589 0.78999 0.57318 0.0
H641 H 0.78914 0.78706 0.61701 0.0
H642 H 0.9415 0.8376 0.58282 0.0
H643 H 0.90876 0.84062 0.53961 0.0
H644 H 0.92938 0.81264 0.62927 0.0
H645 H 0.83763 0.81673 0.65466 0.0
H646 H 0.85469 0.84797 0.69991 0.0
H647 H 0.89273 0.8552 0.74293 0.0
C648 C 0.04046 0.90647 0.90266 0.0
C649 C 0.06206 0.88579 0.8847 0.0
C650 C 0.0641 0.92674 0.92722 0.0
C651 C 0.10938 0.92578 0.93482 0.0
C652 C 0.13033 0.90434 0.91703 0.0
C653 C 0.10766 0.88554 0.89223 0.0
C654 C 0.13364 0.94333 0.96164 0.0
C655 C 0.13693 0.98482 0.97498 0.0
C656 C 0.16144 0.00222 1.00179 0.0
C657 C 0.18531 0.05566 1.00885 0.0
C658 C 0.20522 0.07266 1.03435 0.0
C659 C 0.20041 0.03645 1.05392 0.0
H660 H 0.13947 0.92471 1.01677 0.0
C661 C 0.17704 0.98304 1.04676 0.0
C662 C 0.15835 0.96626 1.02109 0.0
H663 H 0.17205 0.95376 1.06125 0.0
H664 H 0.00556 0.90763 0.89757 0.0
H665 H 0.04614 0.94196 0.9405 0.0
H666 H 0.1648 0.90246 0.92226 0.0
H667 H 0.12549 0.86996 0.87907 0.0
H668 H 0.15199 0.92269 0.97004 0.0
H669 H 0.123 0.00851 0.96547 0.0
H670 H 0.18801 0.08445 0.99463 0.0
H671 H 0.22201 0.11387 1.03909 0.0
loop_
_geom_bond_atom_site_label_1
_geom_bond_atom_site_label_2
_geom_bond_distance
_geom_bond_site_symmetry_2
_ccdc_geom_bond_type
Tb0 C9 2.764 . S
Tb0 O10 2.325 1_565 S
Tb0 O13 2.303 . S
Tb0 O17 2.322 1_554 S
Tb0 O18 2.349 . S
Tb0 O21 2.415 . S
Tb0 O22 2.399 . S
Tb1 O11 2.337 . S
Tb1 O12 2.351 . S
Tb1 O14 2.403 1_554 S
Tb1 O15 2.386 1_554 S
Tb1 O16 2.316 1_554 S
Tb1 O19 2.308 . S
Tb1 C30 2.750 1_554 S
C2 O18 1.261 1_545 S
C2 O19 1.257 . S
C3 C6 1.358 . S
C3 C7 1.332 . S
C3 C9 1.504 . S
C4 C5 1.373 . S
C4 C8 1.308 . S
C5 C4 1.373 . S
C5 C6 1.429 . S
C5 H32 0.932 . S
C6 C3 1.358 . S
C6 C5 1.429 . S
C6 H33 0.930 . S
C7 C3 1.332 . S
C7 C8 1.394 . S
C7 H34 0.932 . S
C8 C4 1.308 . S
C8 C7 1.394 . S
C8 H35 0.929 . S
C9 Tb0 2.764 . S
C9 C3 1.504 . S
C9 O21 1.239 . S
C9 O22 1.263 . S
O10 Tb0 2.325 1_545 S
O10 C20 1.236 . S
O11 Tb1 2.337 . S
O11 C20 1.257 . S
O12 Tb1 2.351 . S
O12 C23 1.261 . S
O13 Tb0 2.303 . S
O13 C23 1.257 1_565 S
O14 Tb1 2.403 1_556 S
O14 C30 1.239 . S
O15 Tb1 2.386 1_556 S
O15 C30 1.263 . S
O16 Tb1 2.316 1_556 S
O16 C31 1.236 1_545 S
O17 Tb0 2.322 1_556 S
O17 C31 1.257 . S
O18 Tb0 2.349 . S
O18 C2 1.261 1_565 S
O19 Tb1 2.308 . S
O19 C2 1.257 . S
C20 O10 1.236 . S
C20 O11 1.257 . S
O21 Tb0 2.415 . S
O21 C9 1.239 . S
O22 Tb0 2.399 . S
O22 C9 1.263 . S
C23 O12 1.261 . S
C23 O13 1.257 1_545 S
C24 C27 1.358 . S
C24 C28 1.332 . S
C24 C30 1.504 . S
C25 C26 1.373 . S
C25 C29 1.308 . S
C26 C25 1.373 . S
C26 C27 1.429 . S
C26 H36 0.932 . S
C27 C24 1.358 . S
C27 C26 1.429 . S
C27 H37 0.930 . S
C28 C24 1.332 . S
C28 C29 1.394 . S
C28 H38 0.932 . S
C29 C25 1.308 . S
C29 C28 1.394 . S
C29 H39 0.929 . S
C30 Tb1 2.750 1_556 S
C30 O14 1.239 . S
C30 O15 1.263 . S
C30 C24 1.504 . S
C31 O16 1.236 1_565 S
C31 O17 1.257 . S
H32 C5 0.932 . S
H33 C6 0.930 . S
H34 C7 0.932 . S
H35 C8 0.929 . S
H36 C26 0.932 . S
H37 C27 0.930 . S
H38 C28 0.932 . S
H39 C29 0.929 . S
Tb40 C49 2.764 . S
Tb40 O50 2.325 . S
Tb40 O53 2.303 . S
Tb40 O57 2.322 . S
Tb40 O58 2.349 . S
Tb40 O61 2.415 . S
Tb40 O62 2.399 . S
Tb41 O51 2.322 . S
Tb41 O52 2.349 . S
Tb41 O54 2.415 . S
Tb41 O55 2.399 . S
Tb41 O56 2.325 . S
Tb41 O59 2.303 . S
Tb41 C70 2.764 . S
C42 O58 1.261 . S
C42 O59 1.257 . S
C43 C46 1.358 . S
C43 C47 1.332 . S
C43 C49 1.504 . S
C44 C45 1.373 . S
C44 C48 1.308 . S
C45 C44 1.373 . S
C45 C46 1.429 . S
C45 H72 0.932 . S
C46 C43 1.358 . S
C46 C45 1.429 . S
C46 H73 0.930 . S
C47 C43 1.332 . S
C47 C48 1.394 . S
C47 H74 0.932 . S
C48 C44 1.308 . S
C48 C47 1.394 . S
C48 H75 0.929 . S
C49 Tb40 2.764 . S
C49 C43 1.504 . S
C49 O61 1.239 . S
C49 O62 1.263 . S
O50 Tb40 2.325 . S
O50 C60 1.236 . S
O51 Tb41 2.322 . S
O51 C60 1.257 . S
O52 Tb41 2.349 . S
O52 C63 1.261 . S
O53 Tb40 2.303 . S
O53 C63 1.257 . S
O54 Tb41 2.415 . S
O54 C70 1.239 . S
O55 Tb41 2.399 . S
O55 C70 1.263 . S
O56 Tb41 2.325 . S
O56 C71 1.236 . S
O57 Tb40 2.322 . S
O57 C71 1.257 . S
O58 Tb40 2.349 . S
O58 C42 1.261 . S
O59 Tb41 2.303 . S
O59 C42 1.257 . S
C60 O50 1.236 . S
C60 O51 1.257 . S
O61 Tb40 2.415 . S
O61 C49 1.239 . S
O62 Tb40 2.399 . S
O62 C49 1.263 . S
C63 O52 1.261 . S
C63 O53 1.257 . S
C64 C67 1.358 . S
C64 C68 1.332 . S
C64 C70 1.504 . S
C65 C66 1.373 . S
C65 C69 1.308 . S
C66 C65 1.373 . S
C66 C67 1.429 . S
C66 H76 0.932 . S
C67 C64 1.358 . S
C67 C66 1.429 . S
C67 H77 0.930 . S
C68 C64 1.332 . S
C68 C69 1.394 . S
C68 H78 0.932 . S
C69 C65 1.308 . S
C69 C68 1.394 . S
C69 H79 0.929 . S
C70 Tb41 2.764 . S
C70 O54 1.239 . S
C70 O55 1.263 . S
C70 C64 1.504 . S
C71 O56 1.236 . S
C71 O57 1.257 . S
H72 C45 0.932 . S
H73 C46 0.930 . S
H74 C47 0.932 . S
H75 C48 0.929 . S
H76 C66 0.932 . S
H77 C67 0.930 . S
H78 C68 0.932 . S
H79 C69 0.929 . S
Tb80 C89 2.764 . S
Tb80 O90 2.325 . S
Tb80 O93 2.303 . S
Tb80 O97 2.322 . S
Tb80 O98 2.349 . S
Tb80 O101 2.415 . S
Tb80 O102 2.399 . S
Tb81 O91 2.322 . S
Tb81 O92 2.349 1_655 S
Tb81 O94 2.415 . S
Tb81 O95 2.399 . S
Tb81 O96 2.325 1_655 S
Tb81 O99 2.303 1_655 S
Tb81 C110 2.764 . S
C82 O98 1.261 . S
C82 O99 1.257 . S
C83 C86 1.358 . S
C83 C87 1.332 . S
C83 C89 1.504 . S
C84 C85 1.373 . S
C84 C88 1.308 . S
C85 C84 1.373 . S
C85 C86 1.429 . S
C85 H112 0.932 . S
C86 C83 1.358 . S
C86 C85 1.429 . S
C86 H113 0.930 . S
C87 C83 1.332 . S
C87 C88 1.394 . S
C87 H114 0.932 . S
C88 C84 1.308 . S
C88 C87 1.394 . S
C88 H115 0.929 . S
C89 Tb80 2.764 . S
C89 C83 1.504 . S
C89 O101 1.239 . S
C89 O102 1.263 . S
O90 Tb80 2.325 . S
O90 C100 1.244 . S
O91 Tb81 2.322 . S
O91 C100 1.253 1_655 S
O92 Tb81 2.349 1_455 S
O92 C103 1.261 . S
O93 Tb80 2.303 . S
O93 C103 1.257 . S
O94 Tb81 2.415 . S
O94 C110 1.239 . S
O95 Tb81 2.399 . S
O95 C110 1.263 . S
O96 Tb81 2.325 1_455 S
O96 C111 1.236 . S
O97 Tb80 2.322 . S
O97 C111 1.257 . S
O98 Tb80 2.349 . S
O98 C82 1.261 . S
O99 Tb81 2.303 1_455 S
O99 C82 1.257 . S
C100 O90 1.244 . S
C100 O91 1.253 1_455 S
O101 Tb80 2.415 . S
O101 C89 1.239 . S
O102 Tb80 2.399 . S
O102 C89 1.263 . S
C103 O92 1.261 . S
C103 O93 1.257 . S
C104 C107 1.358 . S
C104 C108 1.332 . S
C104 C110 1.504 . S
C105 C106 1.373 . S
C105 C109 1.308 . S
C106 C105 1.373 . S
C106 C107 1.429 . S
C106 H116 0.932 . S
C107 C104 1.358 . S
C107 C106 1.429 . S
C107 H117 0.930 . S
C108 C104 1.332 . S
C108 C109 1.394 . S
C108 H118 0.932 . S
C109 C105 1.308 . S
C109 C108 1.394 . S
C109 H119 0.929 . S
C110 Tb81 2.764 . S
C110 O94 1.239 . S
C110 O95 1.263 . S
C110 C104 1.504 . S
C111 O96 1.236 . S
C111 O97 1.257 . S
H112 C85 0.932 . S
H113 C86 0.930 . S
H114 C87 0.932 . S
H115 C88 0.929 . S
H116 C106 0.932 . S
H117 C107 0.930 . S
H118 C108 0.932 . S
H119 C109 0.929 . S
Tb120 C129 2.764 . S
Tb120 O130 2.325 1_565 S
Tb120 O133 2.303 1_556 S
Tb120 O137 2.322 1_556 S
Tb120 O138 2.349 1_556 S
Tb120 O141 2.415 . S
Tb120 O142 2.399 . S
Tb121 O131 2.322 1_554 S
Tb121 O132 2.349 . S
Tb121 O134 2.415 . S
Tb121 O135 2.399 . S
Tb121 O136 2.325 . S
Tb121 O139 2.303 . S
Tb121 C150 2.764 . S
C122 O138 1.261 1_545 S
C122 O139 1.257 . S
C123 C126 1.358 . S
C123 C127 1.332 . S
C123 C129 1.504 . S
C124 C125 1.373 . S
C124 C128 1.308 . S
C125 C124 1.373 . S
C125 C126 1.429 . S
C125 H152 0.932 . S
C126 C123 1.358 . S
C126 C125 1.429 . S
C126 H153 0.930 . S
C127 C123 1.332 . S
C127 C128 1.394 . S
C127 H154 0.932 . S
C128 C124 1.308 . S
C128 C127 1.394 . S
C128 H155 0.929 . S
C129 Tb120 2.764 . S
C129 C123 1.504 . S
C129 O141 1.239 . S
C129 O142 1.263 . S
O130 Tb120 2.325 1_545 S
O130 C140 1.236 . S
O131 Tb121 2.322 1_556 S
O131 C140 1.257 . S
O132 Tb121 2.349 . S
O132 C143 1.261 . S
O133 Tb120 2.303 1_554 S
O133 C143 1.257 1_565 S
O134 Tb121 2.415 . S
O134 C150 1.239 . S
O135 Tb121 2.399 . S
O135 C150 1.263 . S
O136 Tb121 2.325 . S
O136 C151 1.236 1_545 S
O137 Tb120 2.322 1_554 S
O137 C151 1.257 . S
O138 Tb120 2.349 1_554 S
O138 C122 1.261 1_565 S
O139 Tb121 2.303 . S
O139 C122 1.257 . S
C140 O130 1.236 . S
C140 O131 1.257 . S
O141 Tb120 2.415 . S
O141 C129 1.239 . S
O142 Tb120 2.399 . S
O142 C129 1.263 . S
C143 O132 1.261 . S
C143 O133 1.257 1_545 S
C144 C147 1.358 . S
C144 C148 1.332 . S
C144 C150 1.504 . S
C145 C146 1.373 . S
C145 C149 1.308 . S
C146 C145 1.373 . S
C146 C147 1.429 . S
C146 H156 0.932 . S
C147 C144 1.358 . S
C147 C146 1.429 . S
C147 H157 0.930 . S
C148 C144 1.332 . S
C148 C149 1.394 . S
C148 H158 0.932 . S
C149 C145 1.308 . S
C149 C148 1.394 . S
C149 H159 0.929 . S
C150 Tb121 2.764 . S
C150 O134 1.239 . S
C150 O135 1.263 . S
C150 C144 1.504 . S
C151 O136 1.236 1_565 S
C151 O137 1.257 . S
H152 C125 0.932 . S
H153 C126 0.930 . S
H154 C127 0.932 . S
H155 C128 0.929 . S
H156 C146 0.932 . S
H157 C147 0.930 . S
H158 C148 0.932 . S
H159 C149 0.929 . S
Tb160 C169 2.764 . S
Tb160 O170 2.325 . S
Tb160 O173 2.303 . S
Tb160 O177 2.322 . S
Tb160 O178 2.349 . S
Tb160 O181 2.415 . S
Tb160 O182 2.399 . S
Tb161 O171 2.322 . S
Tb161 O172 2.349 . S
Tb161 O174 2.415 . S
Tb161 O175 2.399 . S
Tb161 O176 2.325 . S
Tb161 O179 2.303 . S
Tb161 C190 2.764 . S
C162 O178 1.261 . S
C162 O179 1.257 . S
C163 C166 1.358 . S
C163 C167 1.332 . S
C163 C169 1.504 . S
C164 C165 1.373 . S
C164 C168 1.308 . S
C165 C164 1.373 . S
C165 C166 1.429 . S
C165 H192 0.932 . S
C166 C163 1.358 . S
C166 C165 1.429 . S
C166 H193 0.930 . S
C167 C163 1.332 . S
C167 C168 1.394 . S
C167 H194 0.932 . S
C168 C164 1.308 . S
C168 C167 1.394 . S
C168 H195 0.924 1_565 S
C169 Tb160 2.764 . S
C169 C163 1.504 . S
C169 O181 1.239 . S
C169 O182 1.263 . S
O170 Tb160 2.325 . S
O170 C180 1.236 . S
O171 Tb161 2.322 . S
O171 C180 1.257 . S
O172 Tb161 2.349 . S
O172 C183 1.261 . S
O173 Tb160 2.303 . S
O173 C183 1.257 . S
O174 Tb161 2.415 . S
O174 C190 1.239 . S
O175 Tb161 2.399 . S
O175 C190 1.263 . S
O176 Tb161 2.325 . S
O176 C191 1.236 . S
O177 Tb160 2.322 . S
O177 C191 1.257 . S
O178 Tb160 2.349 . S
O178 C162 1.261 . S
O179 Tb161 2.303 . S
O179 C162 1.257 . S
C180 O170 1.236 . S
C180 O171 1.257 . S
O181 Tb160 2.415 . S
O181 C169 1.239 . S
O182 Tb160 2.399 . S
O182 C169 1.263 . S
C183 O172 1.261 . S
C183 O173 1.257 . S
C184 C187 1.358 . S
C184 C188 1.332 . S
C184 C190 1.504 . S
C185 C186 1.373 . S
C185 C189 1.308 . S
C186 C185 1.373 . S
C186 C187 1.429 . S
C186 H196 0.932 . S
C187 C184 1.358 . S
C187 C186 1.429 . S
C187 H197 0.930 . S
C188 C184 1.332 . S
C188 C189 1.394 . S
C188 H198 0.932 . S
C189 C185 1.308 . S
C189 C188 1.394 . S
C189 H199 0.929 . S
C190 Tb161 2.764 . S
C190 O174 1.239 . S
C190 O175 1.263 . S
C190 C184 1.504 . S
C191 O176 1.236 . S
C191 O177 1.257 . S
H192 C165 0.932 . S
H193 C166 0.930 . S
H194 C167 0.932 . S
H195 C168 0.924 1_545 S
H196 C186 0.932 . S
H197 C187 0.930 . S
H198 C188 0.932 . S
H199 C189 0.929 . S
Tb200 C209 2.764 . S
Tb200 O210 2.325 . S
Tb200 O213 2.303 . S
Tb200 O217 2.322 . S
Tb200 O218 2.349 . S
Tb200 O221 2.415 . S
Tb200 O222 2.399 . S
Tb201 O211 2.322 . S
Tb201 O212 2.349 1_655 S
Tb201 O214 2.415 . S
Tb201 O215 2.399 . S
Tb201 O216 2.325 1_655 S
Tb201 O219 2.303 1_655 S
Tb201 C230 2.764 . S
C202 O218 1.261 . S
C202 O219 1.257 . S
C203 C206 1.358 . S
C203 C207 1.332 . S
C203 C209 1.504 . S
C204 C205 1.373 . S
C204 C208 1.308 . S
C205 C204 1.373 . S
C205 C206 1.429 . S
C205 H232 0.932 . S
C206 C203 1.358 . S
C206 C205 1.429 . S
C206 H233 0.930 . S
C207 C203 1.332 . S
C207 C208 1.394 . S
C207 H234 0.932 . S
C208 C204 1.308 . S
C208 C207 1.394 . S
C208 H235 0.929 1_565 S
C209 Tb200 2.764 . S
C209 C203 1.504 . S
C209 O221 1.239 . S
C209 O222 1.263 . S
O210 Tb200 2.325 . S
O210 C220 1.261 . S
O211 Tb201 2.322 . S
O211 C220 1.244 1_655 S
O212 Tb201 2.349 1_455 S
O212 C223 1.261 . S
O213 Tb200 2.303 . S
O213 C223 1.257 . S
O214 Tb201 2.415 . S
O214 C230 1.239 . S
O215 Tb201 2.399 . S
O215 C230 1.263 . S
O216 Tb201 2.325 1_455 S
O216 C231 1.236 . S
O217 Tb200 2.322 . S
O217 C231 1.257 . S
O218 Tb200 2.349 . S
O218 C202 1.261 . S
O219 Tb201 2.303 1_455 S
O219 C202 1.257 . S
C220 O210 1.261 . S
C220 O211 1.244 1_455 S
O221 Tb200 2.415 . S
O221 C209 1.239 . S
O222 Tb200 2.399 . S
O222 C209 1.263 . S
C223 O212 1.261 . S
C223 O213 1.257 . S
C224 C227 1.358 . S
C224 C228 1.332 . S
C224 C230 1.504 . S
C225 C226 1.373 . S
C225 C229 1.308 . S
C226 C225 1.373 . S
C226 C227 1.429 . S
C226 H236 0.932 . S
C227 C224 1.358 . S
C227 C226 1.429 . S
C227 H237 0.930 . S
C228 C224 1.332 . S
C228 C229 1.394 . S
C228 H238 0.932 . S
C229 C225 1.308 . S
C229 C228 1.394 . S
C229 H239 0.929 . S
C230 Tb201 2.764 . S
C230 O214 1.239 . S
C230 O215 1.263 . S
C230 C224 1.504 . S
C231 O216 1.236 . S
C231 O217 1.257 . S
H232 C205 0.932 . S
H233 C206 0.930 . S
H234 C207 0.932 . S
H235 C208 0.929 1_545 S
H236 C226 0.932 . S
H237 C227 0.930 . S
H238 C228 0.932 . S
H239 C229 0.929 . S
C240 C241 1.386 . S
C240 C242 1.383 . S
C240 H256 0.951 . S
C241 C240 1.386 . S
C241 C245 1.383 1_544 S
C242 C240 1.383 . S
C242 C243 1.402 1_545 S
C242 H257 0.951 . S
C243 C242 1.402 1_565 S
C243 C244 1.359 1_554 S
C243 C246 1.481 . S
C244 C243 1.359 1_556 S
C244 C245 1.369 . S
C244 H258 0.965 . S
C245 C241 1.383 1_566 S
C245 C244 1.369 . S
C245 H259 0.950 . S
C246 C243 1.481 . S
C246 C247 1.297 1_565 S
C246 H260 0.950 . S
C247 C246 1.297 1_545 S
C247 C248 1.479 1_645 S
C247 H261 0.950 . S
C248 C247 1.479 1_465 S
C248 C249 1.375 1_565 S
C248 C254 1.404 . S
C249 C248 1.375 1_545 S
C249 C250 1.369 . S
C249 H262 0.950 . S
C250 C249 1.369 . S
C250 C251 1.392 . S
C250 H263 0.951 . S
C251 C250 1.392 . S
C251 C253 1.384 1_545 S
H252 C254 0.949 . S
C253 C251 1.384 1_565 S
C253 C254 1.385 . S
C253 H255 0.950 . S
C254 C248 1.404 . S
C254 H252 0.949 . S
C254 C253 1.385 . S
H255 C253 0.950 . S
H256 C240 0.951 . S
H257 C242 0.951 . S
H258 C244 0.965 . S
H259 C245 0.950 . S
H260 C246 0.950 . S
H261 C247 0.950 . S
H262 C249 0.950 . S
H263 C250 0.951 . S
C264 C265 1.386 . S
C264 C266 1.383 . S
C264 H280 0.951 . S
C265 C264 1.386 . S
C265 C269 1.383 . S
C266 C264 1.383 . S
C266 C267 1.402 1_565 S
C266 H281 0.951 1_565 S
C267 C266 1.402 1_545 S
C267 C268 1.375 . S
C267 C270 1.481 . S
C268 C267 1.375 . S
C268 C269 1.367 1_545 S
C268 H282 0.951 . S
C269 C265 1.383 . S
C269 C268 1.367 1_565 S
C269 H283 0.950 . S
C270 C267 1.481 . S
C270 C271 1.297 . S
C270 H284 0.950 . S
C271 C270 1.297 . S
C271 C272 1.479 1_655 S
C271 H285 0.950 . S
C272 C271 1.479 1_455 S
C272 C273 1.375 . S
C272 C278 1.404 . S
C273 C272 1.375 . S
C273 C274 1.369 . S
C273 H286 0.950 . S
C274 C273 1.369 . S
C274 C275 1.392 . S
C274 H287 0.951 . S
C275 C274 1.392 . S
C275 C277 1.384 . S
H276 C278 0.949 . S
C277 C275 1.384 . S
C277 C278 1.385 . S
C277 H279 0.950 . S
C278 C272 1.404 . S
C278 H276 0.949 . S
C278 C277 1.385 . S
H279 C277 0.950 . S
H280 C264 0.951 . S
H281 C266 0.951 1_545 S
H282 C268 0.951 . S
H283 C269 0.950 . S
H284 C270 0.950 . S
H285 C271 0.950 . S
H286 C273 0.950 . S
H287 C274 0.951 . S
C288 C289 1.386 . S
C288 C290 1.383 1_565 S
C288 H304 0.951 . S
C289 C288 1.386 . S
C289 C293 1.383 . S
C290 C288 1.383 1_545 S
C290 C291 1.402 . S
C290 H305 0.951 . S
C291 C290 1.402 . S
C291 C292 1.375 . S
C291 C294 1.481 . S
C292 C291 1.375 . S
C292 C293 1.367 1_545 S
C292 H306 0.951 . S
C293 C289 1.383 . S
C293 C292 1.367 1_565 S
C293 H307 0.950 . S
C294 C291 1.481 . S
C294 C295 1.297 . S
C294 H308 0.950 . S
C295 C294 1.297 . S
C295 C296 1.479 . S
C295 H309 0.950 . S
C296 C295 1.479 . S
C296 C297 1.375 . S
C296 C302 1.404 . S
C297 C296 1.375 . S
C297 C298 1.369 . S
C297 H310 0.950 . S
C298 C297 1.369 . S
C298 C299 1.392 . S
C298 H311 0.951 . S
C299 C298 1.392 . S
C299 C301 1.384 . S
H300 C302 0.949 . S
C301 C299 1.384 . S
C301 C302 1.385 . S
C301 H303 0.950 . S
C302 C296 1.404 . S
C302 H300 0.949 . S
C302 C301 1.385 . S
H303 C301 0.950 . S
H304 C288 0.951 . S
H305 C290 0.951 . S
H306 C292 0.951 . S
H307 C293 0.950 . S
H308 C294 0.950 . S
H309 C295 0.950 . S
H310 C297 0.950 . S
H311 C298 0.951 . S
C312 C313 1.386 . S
C312 C314 1.383 . S
C312 H328 0.951 . S
C313 C312 1.386 . S
C313 C317 1.383 . S
C314 C312 1.383 . S
C314 C315 1.402 . S
C314 H329 0.951 . S
C315 C314 1.402 . S
C315 C316 1.375 . S
C315 C318 1.481 . S
C316 C315 1.375 . S
C316 C317 1.367 . S
C316 H330 0.951 . S
C317 C313 1.383 . S
C317 C316 1.367 . S
C317 H331 0.950 . S
C318 C315 1.481 . S
C318 C319 1.297 . S
C318 H332 0.950 . S
C319 C318 1.297 . S
C319 C320 1.479 . S
C319 H333 0.950 . S
C320 C319 1.479 . S
C320 C321 1.375 . S
C320 C326 1.404 . S
C321 C320 1.375 . S
C321 C322 1.369 . S
C321 H334 0.950 . S
C322 C321 1.369 . S
C322 C323 1.392 . S
C322 H335 0.951 . S
C323 C322 1.392 . S
C323 C325 1.384 . S
H324 C326 0.949 . S
C325 C323 1.384 . S
C325 C326 1.385 . S
C325 H327 0.950 . S
C326 C320 1.404 . S
C326 H324 0.949 . S
C326 C325 1.385 . S
H327 C325 0.950 . S
H328 C312 0.951 . S
H329 C314 0.951 . S
H330 C316 0.951 . S
H331 C317 0.950 . S
H332 C318 0.950 . S
H333 C319 0.950 . S
H334 C321 0.950 . S
H335 C322 0.951 . S
C336 C337 1.386 . S
C336 C338 1.383 . S
C336 H352 0.951 . S
C337 C336 1.386 . S
C337 C341 1.383 . S
C338 C336 1.383 . S
C338 C339 1.402 . S
C338 H353 0.951 1_455 S
C339 C338 1.402 . S
C339 C340 1.375 . S
C339 C342 1.481 1_455 S
C340 C339 1.375 . S
C340 C341 1.367 . S
C340 H354 0.951 . S
C341 C337 1.383 . S
C341 C340 1.367 . S
C341 H355 0.950 . S
C342 C339 1.481 1_655 S
C342 C343 1.297 . S
C342 H356 0.950 . S
C343 C342 1.297 . S
C343 C344 1.479 . S
C343 H357 0.950 . S
C344 C343 1.479 . S
C344 C345 1.375 . S
C344 C350 1.404 . S
C345 C344 1.375 . S
C345 C346 1.369 . S
C345 H358 0.950 . S
C346 C345 1.369 . S
C346 C347 1.392 . S
C346 H359 0.951 . S
C347 C346 1.392 . S
C347 C349 1.384 . S
H348 C350 0.949 . S
C349 C347 1.384 . S
C349 C350 1.385 . S
C349 H351 0.950 . S
C350 C344 1.404 . S
C350 H348 0.949 . S
C350 C349 1.385 . S
H351 C349 0.950 . S
H352 C336 0.951 . S
H353 C338 0.951 1_655 S
H354 C340 0.951 . S
H355 C341 0.950 . S
H356 C342 0.950 . S
H357 C343 0.950 . S
H358 C345 0.950 . S
H359 C346 0.951 . S
C360 C361 1.386 . S
C360 C362 1.383 . S
C360 H376 0.951 . S
C361 C360 1.386 . S
C361 C365 1.383 . S
C362 C360 1.383 . S
C362 C363 1.402 . S
C362 H377 0.951 . S
C363 C362 1.402 . S
C363 C364 1.375 . S
C363 C366 1.481 . S
C364 C363 1.375 . S
C364 C365 1.367 . S
C364 H378 0.951 . S
C365 C361 1.383 . S
C365 C364 1.367 . S
C365 H379 0.950 . S
C366 C363 1.481 . S
C366 C367 1.297 . S
C366 H380 0.950 . S
C367 C366 1.297 . S
C367 C368 1.479 . S
C367 H381 0.950 . S
C368 C367 1.479 . S
C368 C369 1.375 . S
C368 C374 1.404 . S
C369 C368 1.375 . S
C369 C370 1.369 1_545 S
C369 H382 0.950 . S
C370 C369 1.369 1_565 S
C370 C371 1.392 . S
C370 H383 0.951 . S
C371 C370 1.392 . S
C371 C373 1.384 1_565 S
H372 C374 0.949 . S
C373 C371 1.384 1_545 S
C373 C374 1.385 . S
C373 H375 0.950 . S
C374 C368 1.404 . S
C374 H372 0.949 . S
C374 C373 1.385 . S
H375 C373 0.950 . S
H376 C360 0.951 . S
H377 C362 0.951 . S
H378 C364 0.951 . S
H379 C365 0.950 . S
H380 C366 0.950 . S
H381 C367 0.950 . S
H382 C369 0.950 . S
H383 C370 0.951 . S
C384 C385 1.386 . S
C384 C386 1.383 . S
C384 H400 0.951 . S
C385 C384 1.386 . S
C385 C389 1.383 . S
C386 C384 1.383 . S
C386 C387 1.402 . S
C386 H401 0.951 . S
C387 C386 1.402 . S
C387 C388 1.375 . S
C387 C390 1.481 . S
C388 C387 1.375 . S
C388 C389 1.367 . S
C388 H402 0.951 . S
C389 C385 1.383 . S
C389 C388 1.367 . S
C389 H403 0.950 . S
C390 C387 1.481 . S
C390 C391 1.297 . S
C390 H404 0.950 . S
C391 C390 1.297 . S
C391 C392 1.479 . S
C391 H405 0.950 . S
C392 C391 1.479 . S
C392 C393 1.375 . S
C392 C398 1.404 . S
C393 C392 1.375 . S
C393 C394 1.369 . S
C393 H406 0.950 . S
C394 C393 1.369 . S
C394 C395 1.392 . S
C394 H407 0.951 . S
C395 C394 1.392 . S
C395 C397 1.384 . S
H396 C398 0.949 . S
C397 C395 1.384 . S
C397 C398 1.385 . S
C397 H399 0.950 . S
C398 C392 1.404 . S
C398 H396 0.949 . S
C398 C397 1.385 . S
H399 C397 0.950 . S
H400 C384 0.951 . S
H401 C386 0.951 . S
H402 C388 0.951 . S
H403 C389 0.950 . S
H404 C390 0.950 . S
H405 C391 0.950 . S
H406 C393 0.950 . S
H407 C394 0.951 . S
C408 C409 1.386 . S
C408 C410 1.383 . S
C408 H424 0.951 . S
C409 C408 1.386 . S
C409 C413 1.383 . S
C410 C408 1.383 . S
C410 C411 1.402 . S
C410 H425 0.951 . S
C411 C410 1.402 . S
C411 C412 1.375 . S
C411 C414 1.481 . S
C412 C411 1.375 . S
C412 C413 1.367 . S
C412 H426 0.951 . S
C413 C409 1.383 . S
C413 C412 1.367 . S
C413 H427 0.950 . S
C414 C411 1.481 . S
C414 C415 1.297 . S
C414 H428 0.950 . S
C415 C414 1.297 . S
C415 C416 1.479 1_655 S
C415 H429 0.950 . S
C416 C415 1.479 1_455 S
C416 C417 1.375 . S
C416 C422 1.404 . S
C417 C416 1.375 . S
C417 C418 1.369 . S
C417 H430 0.950 . S
C418 C417 1.369 . S
C418 C419 1.392 . S
C418 H431 0.951 . S
C419 C418 1.392 . S
C419 C421 1.384 . S
H420 C422 0.949 1_655 S
C421 C419 1.384 . S
C421 C422 1.385 . S
C421 H423 0.950 . S
C422 C416 1.404 . S
C422 H420 0.949 1_455 S
C422 C421 1.385 . S
H423 C421 0.950 . S
H424 C408 0.951 . S
H425 C410 0.951 . S
H426 C412 0.951 . S
H427 C413 0.950 . S
H428 C414 0.950 . S
H429 C415 0.950 . S
H430 C417 0.950 . S
H431 C418 0.951 . S
C432 C433 1.386 . S
C432 C434 1.383 1_565 S
C432 H448 0.951 . S
C433 C432 1.386 . S
C433 C437 1.383 1_565 S
C434 C432 1.383 1_545 S
C434 C435 1.402 . S
C434 H449 0.951 . S
C435 C434 1.402 . S
C435 C436 1.375 . S
C435 C438 1.481 . S
C436 C435 1.375 . S
C436 C437 1.367 . S
C436 H450 0.951 . S
C437 C433 1.383 1_545 S
C437 C436 1.367 . S
C437 H451 0.950 . S
C438 C435 1.481 . S
C438 C439 1.297 . S
C438 H452 0.950 . S
C439 C438 1.297 . S
C439 C440 1.479 . S
C439 H453 0.950 . S
C440 C439 1.479 . S
C440 C441 1.375 . S
C440 C446 1.404 . S
C441 C440 1.375 . S
C441 C442 1.369 . S
C441 H454 0.950 . S
C442 C441 1.369 . S
C442 C443 1.392 . S
C442 H455 0.951 . S
C443 C442 1.392 . S
C443 C445 1.384 . S
H444 C446 0.949 . S
C445 C443 1.384 . S
C445 C446 1.385 . S
C445 H447 0.950 . S
C446 C440 1.404 . S
C446 H444 0.949 . S
C446 C445 1.385 . S
H447 C445 0.950 . S
H448 C432 0.951 . S
H449 C434 0.951 . S
H450 C436 0.951 . S
H451 C437 0.950 . S
H452 C438 0.950 . S
H453 C439 0.950 . S
H454 C441 0.950 . S
H455 C442 0.951 . S
C456 C457 1.386 . S
C456 C458 1.383 . S
C456 H472 0.951 . S
C457 C456 1.386 . S
C457 C461 1.383 1_545 S
C458 C456 1.383 . S
C458 C459 1.402 1_545 S
C458 H473 0.951 . S
C459 C458 1.402 1_565 S
C459 C460 1.375 . S
C459 C462 1.481 . S
C460 C459 1.375 . S
C460 C461 1.367 . S
C460 H474 0.951 . S
C461 C457 1.383 1_565 S
C461 C460 1.367 . S
C461 H475 0.950 . S
C462 C459 1.481 . S
C462 C463 1.297 1_565 S
C462 H476 0.950 . S
C463 C462 1.297 1_545 S
C463 C464 1.479 . S
C463 H477 0.950 . S
C464 C463 1.479 . S
C464 C465 1.375 . S
C464 C470 1.404 1_545 S
C465 C464 1.375 . S
C465 C466 1.369 . S
C465 H478 0.950 . S
C466 C465 1.369 . S
C466 C467 1.392 . S
C466 H479 0.951 . S
C467 C466 1.392 . S
C467 C469 1.384 1_545 S
H468 C470 0.949 . S
C469 C467 1.384 1_565 S
C469 C470 1.385 . S
C469 H471 0.950 . S
C470 C464 1.404 1_565 S
C470 H468 0.949 . S
C470 C469 1.385 . S
H471 C469 0.950 . S
H472 C456 0.951 . S
H473 C458 0.951 . S
H474 C460 0.951 . S
H475 C461 0.950 . S
H476 C462 0.950 . S
H477 C463 0.950 . S
H478 C465 0.950 . S
H479 C466 0.951 . S
C480 C481 1.386 . S
C480 C482 1.383 . S
C480 H496 0.951 . S
C481 C480 1.386 . S
C481 C485 1.383 . S
C482 C480 1.383 . S
C482 C483 1.402 . S
C482 H497 0.951 . S
C483 C482 1.402 . S
C483 C484 1.375 . S
C483 C486 1.481 . S
C484 C483 1.375 . S
C484 C485 1.367 . S
C484 H498 0.951 . S
C485 C481 1.383 . S
C485 C484 1.367 . S
C485 H499 0.950 . S
C486 C483 1.481 . S
C486 C487 1.297 . S
C486 H500 0.950 . S
C487 C486 1.297 . S
C487 C488 1.479 . S
C487 H501 0.950 . S
C488 C487 1.479 . S
C488 C489 1.375 . S
C488 C494 1.404 . S
C489 C488 1.375 . S
C489 C490 1.369 . S
C489 H502 0.950 . S
C490 C489 1.369 . S
C490 C491 1.392 . S
C490 H503 0.951 . S
C491 C490 1.392 . S
C491 C493 1.384 . S
H492 C494 0.949 . S
C493 C491 1.384 . S
C493 C494 1.385 . S
C493 H495 0.950 . S
C494 C488 1.404 . S
C494 H492 0.949 . S
C494 C493 1.385 . S
H495 C493 0.950 . S
H496 C480 0.951 . S
H497 C482 0.951 . S
H498 C484 0.951 . S
H499 C485 0.950 . S
H500 C486 0.950 . S
H501 C487 0.950 . S
H502 C489 0.950 . S
H503 C490 0.951 . S
C504 C505 1.386 . S
C504 C506 1.383 . S
C504 H520 0.951 . S
C505 C504 1.386 . S
C505 C509 1.383 . S
C506 C504 1.383 . S
C506 C507 1.402 . S
C506 H521 0.951 . S
C507 C506 1.402 . S
C507 C508 1.375 . S
C507 C510 1.481 . S
C508 C507 1.375 . S
C508 C509 1.367 . S
C508 H522 0.951 1_455 S
C509 C505 1.383 . S
C509 C508 1.367 . S
C509 H523 0.950 1_455 S
C510 C507 1.481 . S
C510 C511 1.297 . S
C510 H524 0.950 . S
C511 C510 1.297 . S
C511 C512 1.479 . S
C511 H525 0.950 . S
C512 C511 1.479 . S
C512 C513 1.375 . S
C512 C518 1.404 . S
C513 C512 1.375 . S
C513 C514 1.369 . S
C513 H526 0.950 . S
C514 C513 1.369 . S
C514 C515 1.392 . S
C514 H527 0.951 . S
C515 C514 1.392 . S
C515 C517 1.384 . S
H516 C518 0.949 . S
C517 C515 1.384 . S
C517 C518 1.385 . S
C517 H519 0.950 . S
C518 C512 1.404 . S
C518 H516 0.949 . S
C518 C517 1.385 . S
H519 C517 0.950 . S
H520 C504 0.951 . S
H521 C506 0.951 . S
H522 C508 0.951 1_655 S
H523 C509 0.950 1_655 S
H524 C510 0.950 . S
H525 C511 0.950 . S
H526 C513 0.950 . S
H527 C514 0.951 . S
C528 C529 1.386 . S
C528 C530 1.383 . S
C528 H544 0.951 . S
C529 C528 1.386 . S
C529 C533 1.383 . S
C530 C528 1.383 . S
C530 C531 1.402 . S
C530 H545 0.951 . S
C531 C530 1.402 . S
C531 C532 1.375 . S
C531 C534 1.481 . S
C532 C531 1.375 . S
C532 C533 1.367 . S
C532 H546 0.951 . S
C533 C529 1.383 . S
C533 C532 1.367 . S
C533 H547 0.950 . S
C534 C531 1.481 . S
C534 C535 1.297 . S
C534 H548 0.950 . S
C535 C534 1.297 . S
C535 C536 1.479 . S
C535 H549 0.950 . S
C536 C535 1.479 . S
C536 C537 1.375 . S
C536 C542 1.404 . S
C537 C536 1.375 . S
C537 C538 1.369 . S
C537 H550 0.950 . S
C538 C537 1.369 . S
C538 C539 1.392 . S
C538 H551 0.951 . S
C539 C538 1.392 . S
C539 C541 1.384 . S
H540 C542 0.949 . S
C541 C539 1.384 . S
C541 C542 1.385 . S
C541 H543 0.950 . S
C542 C536 1.404 . S
C542 H540 0.949 . S
C542 C541 1.385 . S
H543 C541 0.950 . S
H544 C528 0.951 . S
H545 C530 0.951 . S
H546 C532 0.951 . S
H547 C533 0.950 . S
H548 C534 0.950 . S
H549 C535 0.950 . S
H550 C537 0.950 . S
H551 C538 0.951 . S
C552 C553 1.386 . S
C552 C554 1.383 . S
C552 H568 0.951 . S
C553 C552 1.386 . S
C553 C557 1.383 . S
C554 C552 1.383 . S
C554 C555 1.402 . S
C554 H569 0.951 . S
C555 C554 1.402 . S
C555 C556 1.375 . S
C555 C558 1.481 . S
C556 C555 1.375 . S
C556 C557 1.367 . S
C556 H570 0.951 . S
C557 C553 1.383 . S
C557 C556 1.367 . S
C557 H571 0.950 . S
C558 C555 1.481 . S
C558 C559 1.297 . S
C558 H572 0.950 . S
C559 C558 1.297 . S
C559 C560 1.479 . S
C559 H573 0.950 . S
C560 C559 1.479 . S
C560 C561 1.375 . S
C560 C566 1.404 . S
C561 C560 1.375 . S
C561 C562 1.369 . S
C561 H574 0.950 . S
C562 C561 1.369 . S
C562 C563 1.392 . S
C562 H575 0.951 . S
C563 C562 1.392 . S
C563 C565 1.384 . S
H564 C566 0.949 . S
C565 C563 1.384 . S
C565 C566 1.385 . S
C565 H567 0.950 . S
C566 C560 1.404 . S
C566 H564 0.949 . S
C566 C565 1.385 . S
H567 C565 0.950 . S
H568 C552 0.951 . S
H569 C554 0.951 . S
H570 C556 0.951 . S
H571 C557 0.950 . S
H572 C558 0.950 . S
H573 C559 0.950 . S
H574 C561 0.950 . S
H575 C562 0.951 . S
C576 C577 1.386 . S
C576 C578 1.383 . S
C576 H592 0.951 . S
C577 C576 1.386 . S
C577 C581 1.383 . S
C578 C576 1.383 . S
C578 C579 1.402 . S
C578 H593 0.951 . S
C579 C578 1.402 . S
C579 C580 1.375 . S
C579 C582 1.481 . S
C580 C579 1.375 . S
C580 C581 1.367 . S
C580 H594 0.951 . S
C581 C577 1.383 . S
C581 C580 1.367 . S
C581 H595 0.950 . S
C582 C579 1.481 . S
C582 C583 1.297 . S
C582 H596 0.950 . S
C583 C582 1.297 . S
C583 C584 1.479 . S
C583 H597 0.950 . S
C584 C583 1.479 . S
C584 C585 1.375 . S
C584 C590 1.404 . S
C585 C584 1.375 . S
C585 C586 1.369 . S
C585 H598 0.950 . S
C586 C585 1.369 . S
C586 C587 1.392 . S
C586 H599 0.951 . S
C587 C586 1.392 . S
C587 C589 1.384 . S
H588 C590 0.949 . S
C589 C587 1.384 . S
C589 C590 1.385 . S
C589 H591 0.950 . S
C590 C584 1.404 . S
C590 H588 0.949 . S
C590 C589 1.385 . S
H591 C589 0.950 . S
H592 C576 0.951 . S
H593 C578 0.951 . S
H594 C580 0.951 . S
H595 C581 0.950 . S
H596 C582 0.950 . S
H597 C583 0.950 . S
H598 C585 0.950 . S
H599 C586 0.951 . S
C600 C601 1.386 . S
C600 C602 1.383 . S
C600 H616 0.951 . S
C601 C600 1.386 . S
C601 C605 1.383 . S
C602 C600 1.383 . S
C602 C603 1.402 . S
C602 H617 0.951 . S
C603 C602 1.402 . S
C603 C604 1.375 . S
C603 C606 1.481 . S
C604 C603 1.375 . S
C604 C605 1.367 . S
C604 H618 0.951 . S
C605 C601 1.383 . S
C605 C604 1.367 . S
C605 H619 0.950 . S
C606 C603 1.481 . S
C606 C607 1.297 . S
C606 H620 0.950 . S
C607 C606 1.297 . S
C607 C608 1.479 . S
C607 H621 0.950 . S
C608 C607 1.479 . S
C608 C609 1.375 . S
C608 C614 1.404 . S
C609 C608 1.375 . S
C609 C610 1.369 . S
C609 H622 0.950 . S
C610 C609 1.369 . S
C610 C611 1.392 . S
C610 H623 0.951 . S
C611 C610 1.392 . S
C611 C613 1.384 . S
H612 C614 0.949 . S
C613 C611 1.384 . S
C613 C614 1.385 . S
C613 H615 0.950 . S
C614 C608 1.404 . S
C614 H612 0.949 . S
C614 C613 1.385 . S
H615 C613 0.950 . S
H616 C600 0.951 . S
H617 C602 0.951 . S
H618 C604 0.951 . S
H619 C605 0.950 . S
H620 C606 0.950 . S
H621 C607 0.950 . S
H622 C609 0.950 . S
H623 C610 0.951 . S
C624 C625 1.386 . S
C624 C626 1.383 . S
C624 H640 0.951 . S
C625 C624 1.386 . S
C625 C629 1.383 . S
C626 C624 1.383 . S
C626 C627 1.402 . S
C626 H641 0.951 . S
C627 C626 1.402 . S
C627 C628 1.375 . S
C627 C630 1.481 . S
C628 C627 1.375 . S
C628 C629 1.367 . S
C628 H642 0.951 . S
C629 C625 1.383 . S
C629 C628 1.367 . S
C629 H643 0.950 . S
C630 C627 1.481 . S
C630 C631 1.297 . S
C630 H644 0.950 . S
C631 C630 1.297 . S
C631 C632 1.479 . S
C631 H645 0.950 . S
C632 C631 1.479 . S
C632 C633 1.375 . S
C632 C638 1.404 . S
C633 C632 1.375 . S
C633 C634 1.369 . S
C633 H646 0.950 . S
C634 C633 1.369 . S
C634 C635 1.392 . S
C634 H647 0.951 . S
C635 C634 1.392 . S
C635 C637 1.384 . S
H636 C638 0.949 . S
C637 C635 1.384 . S
C637 C638 1.385 . S
C637 H639 0.950 1_655 S
C638 C632 1.404 . S
C638 H636 0.949 . S
C638 C637 1.385 . S
H639 C637 0.950 1_455 S
H640 C624 0.951 . S
H641 C626 0.951 . S
H642 C628 0.951 . S
H643 C629 0.950 . S
H644 C630 0.950 . S
H645 C631 0.950 . S
H646 C633 0.950 . S
H647 C634 0.951 . S
C648 C649 1.386 . S
C648 C650 1.383 . S
C648 H664 0.951 . S
C649 C648 1.386 . S
C649 C653 1.383 . S
C650 C648 1.383 . S
C650 C651 1.402 . S
C650 H665 0.951 . S
C651 C650 1.402 . S
C651 C652 1.375 . S
C651 C654 1.481 . S
C652 C651 1.375 . S
C652 C653 1.367 . S
C652 H666 0.951 . S
C653 C649 1.383 . S
C653 C652 1.367 . S
C653 H667 0.950 . S
C654 C651 1.481 . S
C654 C655 1.297 . S
C654 H668 0.950 . S
C655 C654 1.297 . S
C655 C656 1.479 . S
C655 H669 0.950 . S
C656 C655 1.479 . S
C656 C657 1.375 . S
C656 C662 1.404 . S
C657 C656 1.375 . S
C657 C658 1.369 . S
C657 H670 0.950 . S
C658 C657 1.369 . S
C658 C659 1.392 . S
C658 H671 0.951 . S
C659 C658 1.392 . S
C659 C661 1.384 . S
H660 C662 0.949 . S
C661 C659 1.384 . S
C661 C662 1.385 . S
C661 H663 0.950 . S
C662 C656 1.404 . S
C662 H660 0.949 . S
C662 C661 1.385 . S
H663 C661 0.950 . S
H664 C648 0.951 . S
H665 C650 0.951 . S
H666 C652 0.951 . S
H667 C653 0.950 . S
H668 C654 0.950 . S
H669 C655 0.950 . S
H670 C657 0.950 . S
H671 C658 0.951 . S
C241 C143 0.607 . S
C251 C23 0.706 . S
C265 C183 0.628 . S
C275 C63 0.699 . S
C289 C223 0.636 . S
C299 C103 0.674 . S
C313 C25 0.664 . S
C323 C84 0.738 . S
C337 C44 0.683 . S
C347 C145 0.732 . S
C361 C105 0.654 . S
C371 C164 0.676 . S
C385 C124 0.562 . S
C395 C225 0.411 . S
C409 C185 0.641 . S
C419 C4 0.774 . S
C433 C204 0.519 . S
C443 C65 0.558 . S
C457 C2 0.412 . S
C467 C122 0.601 . S
C481 C42 0.545 . S
C491 C162 0.369 . S
C505 C82 0.559 . S
C515 C202 0.350 . S
C529 C20 4.074 . S
C539 C60 4.055 . S
C553 C71 3.747 . S
C563 C111 3.741 . S
C577 C100 4.070 1_655 S
C587 C140 4.066 . S
C601 C151 3.746 . S
C611 C191 3.741 . S
C625 C180 4.075 . S
C635 C220 4.048 1_655 S
C649 C231 3.740 . S
C659 C31 3.728 . S
