# Generated by pormake.
# Topology why, (6)-cn, num edge types: 1
# Building blocks:
#     Node 0, Type 0, BuildingBlock: UKALOJ_clean_sbu_0, # of connection points: 6
#     Node 1, Type 0, BuildingBlock: UKALOJ_clean_sbu_0, # of connection points: 6
#     Node 2, Type 0, BuildingBlock: UKALOJ_clean_sbu_0, # of connection points: 6
#     Node 3, Type 0, BuildingBlock: UKALOJ_clean_sbu_0, # of connection points: 6
#     Node 4, Type 0, BuildingBlock: UKALOJ_clean_sbu_0, # of connection points: 6
#     Node 5, Type 0, BuildingBlock: UKALOJ_clean_sbu_0, # of connection points: 6
#     Node 6, Type 0, BuildingBlock: UKALOJ_clean_sbu_0, # of connection points: 6
#     Node 7, Type 0, BuildingBlock: UKALOJ_clean_sbu_0, # of connection points: 6
#     Node 8, Type 0, BuildingBlock: UKALOJ_clean_sbu_0, # of connection points: 6
#     Node 9, Type 0, BuildingBlock: UKALOJ_clean_sbu_0, # of connection points: 6
#     Node 10, Type 0, BuildingBlock: UKALOJ_clean_sbu_0, # of connection points: 6
#     Node 11, Type 0, BuildingBlock: UKALOJ_clean_sbu_0, # of connection points: 6
#     Node 12, Type 0, BuildingBlock: UKALOJ_clean_sbu_0, # of connection points: 6
#     Node 13, Type 0, BuildingBlock: UKALOJ_clean_sbu_0, # of connection points: 6
#     Node 14, Type 0, BuildingBlock: UKALOJ_clean_sbu_0, # of connection points: 6
#     Node 15, Type 0, BuildingBlock: UKALOJ_clean_sbu_0, # of connection points: 6
#     Edge 16, Type (0, 0), BuildingBlock: ZUJKAS_clean_linker_0, # of connection points: 2
#     Edge 17, Type (0, 0), BuildingBlock: ZUJKAS_clean_linker_0, # of connection points: 2
#     Edge 18, Type (0, 0), BuildingBlock: ZUJKAS_clean_linker_0, # of connection points: 2
#     Edge 19, Type (0, 0), BuildingBlock: ZUJKAS_clean_linker_0, # of connection points: 2
#     Edge 20, Type (0, 0), BuildingBlock: ZUJKAS_clean_linker_0, # of connection points: 2
#     Edge 21, Type (0, 0), BuildingBlock: ZUJKAS_clean_linker_0, # of connection points: 2
#     Edge 22, Type (0, 0), BuildingBlock: ZUJKAS_clean_linker_0, # of connection points: 2
#     Edge 23, Type (0, 0), BuildingBlock: ZUJKAS_clean_linker_0, # of connection points: 2
#     Edge 24, Type (0, 0), BuildingBlock: ZUJKAS_clean_linker_0, # of connection points: 2
#     Edge 25, Type (0, 0), BuildingBlock: ZUJKAS_clean_linker_0, # of connection points: 2
#     Edge 26, Type (0, 0), BuildingBlock: ZUJKAS_clean_linker_0, # of connection points: 2
#     Edge 27, Type (0, 0), BuildingBlock: ZUJKAS_clean_linker_0, # of connection points: 2
#     Edge 28, Type (0, 0), BuildingBlock: ZUJKAS_clean_linker_0, # of connection points: 2
#     Edge 29, Type (0, 0), BuildingBlock: ZUJKAS_clean_linker_0, # of connection points: 2
#     Edge 30, Type (0, 0), BuildingBlock: ZUJKAS_clean_linker_0, # of connection points: 2
#     Edge 31, Type (0, 0), BuildingBlock: ZUJKAS_clean_linker_0, # of connection points: 2
#     Edge 32, Type (0, 0), BuildingBlock: ZUJKAS_clean_linker_0, # of connection points: 2
#     Edge 33, Type (0, 0), BuildingBlock: ZUJKAS_clean_linker_0, # of connection points: 2
#     Edge 34, Type (0, 0), BuildingBlock: ZUJKAS_clean_linker_0, # of connection points: 2
#     Edge 35, Type (0, 0), BuildingBlock: ZUJKAS_clean_linker_0, # of connection points: 2
#     Edge 36, Type (0, 0), BuildingBlock: ZUJKAS_clean_linker_0, # of connection points: 2
#     Edge 37, Type (0, 0), BuildingBlock: ZUJKAS_clean_linker_0, # of connection points: 2
#     Edge 38, Type (0, 0), BuildingBlock: ZUJKAS_clean_linker_0, # of connection points: 2
#     Edge 39, Type (0, 0), BuildingBlock: ZUJKAS_clean_linker_0, # of connection points: 2
#     Edge 40, Type (0, 0), BuildingBlock: ZUJKAS_clean_linker_0, # of connection points: 2
#     Edge 41, Type (0, 0), BuildingBlock: ZUJKAS_clean_linker_0, # of connection points: 2
#     Edge 42, Type (0, 0), BuildingBlock: ZUJKAS_clean_linker_0, # of connection points: 2
#     Edge 43, Type (0, 0), BuildingBlock: ZUJKAS_clean_linker_0, # of connection points: 2
#     Edge 44, Type (0, 0), BuildingBlock: ZUJKAS_clean_linker_0, # of connection points: 2
#     Edge 45, Type (0, 0), BuildingBlock: ZUJKAS_clean_linker_0, # of connection points: 2
#     Edge 46, Type (0, 0), BuildingBlock: ZUJKAS_clean_linker_0, # of connection points: 2
#     Edge 47, Type (0, 0), BuildingBlock: ZUJKAS_clean_linker_0, # of connection points: 2
#     Edge 48, Type (0, 0), BuildingBlock: ZUJKAS_clean_linker_0, # of connection points: 2
#     Edge 49, Type (0, 0), BuildingBlock: ZUJKAS_clean_linker_0, # of connection points: 2
#     Edge 50, Type (0, 0), BuildingBlock: ZUJKAS_clean_linker_0, # of connection points: 2
#     Edge 51, Type (0, 0), BuildingBlock: ZUJKAS_clean_linker_0, # of connection points: 2
#     Edge 52, Type (0, 0), BuildingBlock: ZUJKAS_clean_linker_0, # of connection points: 2
#     Edge 53, Type (0, 0), BuildingBlock: ZUJKAS_clean_linker_0, # of connection points: 2
#     Edge 54, Type (0, 0), BuildingBlock: ZUJKAS_clean_linker_0, # of connection points: 2
#     Edge 55, Type (0, 0), BuildingBlock: ZUJKAS_clean_linker_0, # of connection points: 2
#     Edge 56, Type (0, 0), BuildingBlock: ZUJKAS_clean_linker_0, # of connection points: 2
#     Edge 57, Type (0, 0), BuildingBlock: ZUJKAS_clean_linker_0, # of connection points: 2
#     Edge 58, Type (0, 0), BuildingBlock: ZUJKAS_clean_linker_0, # of connection points: 2
#     Edge 59, Type (0, 0), BuildingBlock: ZUJKAS_clean_linker_0, # of connection points: 2
#     Edge 60, Type (0, 0), BuildingBlock: ZUJKAS_clean_linker_0, # of connection points: 2
#     Edge 61, Type (0, 0), BuildingBlock: ZUJKAS_clean_linker_0, # of connection points: 2
#     Edge 62, Type (0, 0), BuildingBlock: ZUJKAS_clean_linker_0, # of connection points: 2
#     Edge 63, Type (0, 0), BuildingBlock: ZUJKAS_clean_linker_0, # of connection points: 2
# Relax obj value: 0.334
# Max RMSD: 0.156
# Mean RMSD: 0.155
data_MOF--net-why--node1-UKALOJ_clean_sbu_0--edge1-ZUJKAS_clean_linker_0
_symmetry_space_group_name_H-M    P1
_symmetry_Int_Tables_number       1
_symmetry_cell_setting            triclinic
loop_
_symmetry_equiv_pos_as_xyz
'x, y, z'
_cell_length_a     65.671586
_cell_length_b     65.610195
_cell_length_c     35.054912
_cell_angle_alpha  89.975614
_cell_angle_beta   90.039797
_cell_angle_gamma 89.99768
loop_
_atom_site_label
_atom_site_type_symbol
_atom_site_fract_x
_atom_site_fract_y
_atom_site_fract_z
_atom_type_partial_charge
Zn0 Zn 0.32298 0.19012 0.03841 0.0
O1 O 0.31992 0.16164 0.06765 0.0
C2 C 0.30751 0.21327 0.10533 0.0
Zn3 Zn 0.34807 0.19904 0.07713 0.0
C4 C 0.33101 0.15838 0.09673 0.0
O5 O 0.34349 0.17198 0.10731 0.0
C6 C 0.34182 0.23059 0.018 0.0
O7 O 0.36975 0.18385 0.04254 0.0
O8 O 0.34525 0.17621 1.00249 0.0
N9 N 0.36938 0.20664 0.11636 0.0
C10 C 0.38924 0.21142 0.11379 0.0
C11 C 0.38125 0.21222 0.17279 0.0
N12 N 0.36444 0.20714 0.15299 0.0
N13 N 0.39702 0.21482 0.14883 0.0
C14 C 0.28383 0.1708 1.00363 0.0
C15 C 0.28785 0.17708 0.94441 0.0
N16 N 0.30096 0.18199 1.00008 0.0
N17 N 0.30334 0.18597 0.96331 0.0
N18 N 0.27538 0.16751 0.96906 0.0
H19 H 0.28346 0.1458 0.04262 0.0
H20 H 0.26003 0.15972 0.04102 0.0
H21 H 0.28176 0.17044 0.06508 0.0
C22 C 0.27679 0.16129 0.04023 0.0
C23 C 0.40062 0.21382 0.077 0.0
H24 H 0.39018 0.21759 0.05324 0.0
H25 H 0.4084 0.19927 0.07016 0.0
H26 H 0.41234 0.22593 0.07953 0.0
O27 O 0.35284 0.22621 0.04664 0.0
O28 O 0.32744 0.21854 1.00857 0.0
C29 C 0.36398 0.17545 1.01169 0.0
O30 O 0.30079 0.20413 0.07583 0.0
O31 O 0.32653 0.2137 0.11129 0.0
Zn32 Zn 0.55034 0.5994 0.32566 0.0
O33 O 0.56583 0.62069 0.2902 0.0
C34 C 0.51814 0.59343 0.26761 0.0
Zn35 Zn 0.55854 0.57434 0.28649 0.0
C36 C 0.57333 0.61498 0.25852 0.0
O37 O 0.57194 0.59631 0.24904 0.0
C38 C 0.53587 0.55926 0.35489 0.0
O39 O 0.5874 0.57132 0.31403 0.0
O40 O 0.57749 0.59423 0.35547 0.0
N41 N 0.56586 0.55196 0.24842 0.0
C42 C 0.57681 0.53467 0.25205 0.0
C43 C 0.56946 0.53805 0.19309 0.0
N44 N 0.56123 0.55396 0.21183 0.0
N45 N 0.57928 0.52572 0.21768 0.0
C46 C 0.53994 0.64116 0.36154 0.0
C47 C 0.53901 0.63378 0.42083 0.0
N48 N 0.54351 0.62108 0.36466 0.0
N49 N 0.54289 0.61648 0.40148 0.0
N50 N 0.53729 0.64945 0.39633 0.0
H51 H 0.55296 0.65934 0.3173 0.0
H52 H 0.52674 0.66498 0.32711 0.0
H53 H 0.5334 0.64215 0.30112 0.0
C54 C 0.53804 0.65248 0.32454 0.0
C55 C 0.58693 0.52797 0.28833 0.0
H56 H 0.60235 0.53486 0.28973 0.0
H57 H 0.58876 0.51123 0.28958 0.0
H58 H 0.57812 0.53306 0.3135 0.0
O59 O 0.54494 0.55242 0.32541 0.0
O60 O 0.53543 0.57833 0.36047 0.0
C61 C 0.59092 0.58191 0.34363 0.0
O62 O 0.52305 0.60471 0.29562 0.0
O63 O 0.52981 0.57874 0.25827 0.0
Zn64 Zn 0.14745 0.7992 0.57399 0.0
O65 O 0.12568 0.81266 0.53701 0.0
C66 C 0.15525 0.76725 0.51695 0.0
Zn67 Zn 0.173 0.80853 0.53673 0.0
C68 C 0.13184 0.82162 0.50699 0.0
O69 O 0.15083 0.82212 0.4998 0.0
C70 C 0.18815 0.78639 0.60501 0.0
O71 O 0.17558 0.83713 0.56564 0.0
O72 O 0.15054 0.82709 0.60223 0.0
N73 N 0.19529 0.81656 0.49898 0.0
C74 C 0.21157 0.82895 0.50221 0.0
C75 C 0.21063 0.81848 0.44468 0.0
N76 N 0.19476 0.81005 0.46324 0.0
N77 N 0.22132 0.83052 0.46847 0.0
C78 C 0.10652 0.78569 0.61024 0.0
C79 C 0.11413 0.78669 0.66944 0.0
N80 N 0.12605 0.79164 0.61289 0.0
N81 N 0.13074 0.79227 0.64964 0.0
N82 N 0.0987 0.78261 0.64537 0.0
H83 H 0.10638 0.77821 0.55021 0.0
H84 H 0.08715 0.79591 0.56518 0.0
H85 H 0.08446 0.76929 0.57651 0.0
C86 C 0.09556 0.78192 0.57338 0.0
C87 C 0.21858 0.83852 0.53875 0.0
H88 H 0.21415 0.82905 0.56356 0.0
H89 H 0.2114 0.85374 0.54172 0.0
H90 H 0.23535 0.84055 0.53873 0.0
O91 O 0.19506 0.79494 0.57505 0.0
O92 O 0.16908 0.78606 0.6104 0.0
C93 C 0.16335 0.84065 0.59295 0.0
O94 O 0.14409 0.77131 0.54551 0.0
O95 O 0.16908 0.77987 0.50723 0.0
Zn96 Zn 0.94809 0.3983 0.82398 0.0
O97 O 0.93411 0.3766 0.78751 0.0
C98 C 0.9794 0.40639 0.76581 0.0
Zn99 Zn 0.9384 0.42403 0.78713 0.0
C100 C 0.92504 0.38286 0.75765 0.0
O101 O 0.92468 0.40188 0.75046 0.0
C102 C 0.96108 0.43919 0.85452 0.0
O103 O 0.91011 0.42619 0.81706 0.0
O104 O 0.92068 0.4013 0.85369 0.0
N105 N 0.92979 0.44635 0.74971 0.0
C106 C 0.9172 0.46248 0.75319 0.0
C107 C 0.92725 0.46165 0.69541 0.0
N108 N 0.93605 0.44591 0.7138 0.0
N109 N 0.91523 0.47221 0.71944 0.0
C110 C 0.96278 0.35741 0.85991 0.0
C111 C 0.9647 0.36586 0.91863 0.0
N112 N 0.95686 0.37698 0.86264 0.0
N113 N 0.95804 0.38217 0.89908 0.0
N114 N 0.96789 0.35014 0.89473 0.0
H115 H 0.94491 0.34274 0.81732 0.0
H116 H 0.96835 0.32996 0.82611 0.0
H117 H 0.96813 0.35375 0.79985 0.0
C118 C 0.96124 0.34518 0.82388 0.0
C119 C 0.90784 0.46934 0.78999 0.0
H120 H 0.9176 0.46507 0.81451 0.0
H121 H 0.8928 0.46189 0.79346 0.0
H122 H 0.90553 0.4861 0.78998 0.0
O123 O 0.95205 0.44615 0.82511 0.0
O124 O 0.96171 0.42008 0.85961 0.0
C125 C 0.90695 0.414 0.84464 0.0
O126 O 0.97542 0.39494 0.79404 0.0
O127 O 0.96684 0.42042 0.7568 0.0
Zn128 Zn 0.64821 0.80004 0.94954 0.0
O129 O 0.62643 0.81478 0.98473 0.0
C130 C 0.6551 0.76832 1.00809 0.0
Zn131 Zn 0.67338 0.80916 0.98792 0.0
C132 C 0.63221 0.82308 0.01568 0.0
O133 O 0.65102 0.82262 0.02447 0.0
C134 C 0.68887 0.7864 0.92043 0.0
O135 O 0.67596 0.83784 0.95886 0.0
O136 O 0.65232 0.82722 0.9196 0.0
N137 N 0.6955 0.81747 0.02599 0.0
C138 C 0.71248 0.82887 0.02223 0.0
C139 C 0.70887 0.82237 0.08146 0.0
N140 N 0.69338 0.81335 0.06276 0.0
N141 N 0.7211 0.83216 0.05667 0.0
C142 C 0.60712 0.78731 0.91291 0.0
C143 C 0.61511 0.78691 0.85389 0.0
N144 N 0.62692 0.79234 0.91041 0.0
N145 N 0.63185 0.79209 0.87376 0.0
N146 N 0.59937 0.78399 0.8778 0.0
H147 H 0.6063 0.7808 0.97332 0.0
H148 H 0.5879 0.79905 0.95682 0.0
H149 H 0.58417 0.77241 0.94694 0.0
C150 C 0.59579 0.78461 0.94967 0.0
C151 C 0.7192 0.83857 0.98559 0.0
H152 H 0.71232 0.85398 0.98349 0.0
H153 H 0.73594 0.84037 0.9845 0.0
H154 H 0.71421 0.82943 0.96075 0.0
O155 O 0.69562 0.79553 0.94992 0.0
O156 O 0.66982 0.78578 0.91484 0.0
C157 C 0.6647 0.84096 0.92993 0.0
O158 O 0.6439 0.77272 0.97969 0.0
O159 O 0.66938 0.7805 0.01749 0.0
Zn160 Zn 0.44858 0.39667 0.6977 0.0
O161 O 0.43341 0.37526 0.73294 0.0
C162 C 0.481 0.40317 0.7554 0.0
Zn163 Zn 0.44055 0.42208 0.7364 0.0
C164 C 0.42618 0.38112 0.76476 0.0
O165 O 0.42764 0.39985 0.77399 0.0
C166 C 0.4627 0.43709 0.66795 0.0
O167 O 0.41154 0.42464 0.70938 0.0
O168 O 0.4213 0.40166 0.66799 0.0
N169 N 0.43306 0.44456 0.77448 0.0
C170 C 0.42052 0.46077 0.77163 0.0
C171 C 0.43189 0.46023 0.82858 0.0
N172 N 0.44014 0.44429 0.80988 0.0
N173 N 0.4194 0.47072 0.80525 0.0
C174 C 0.46565 0.35733 0.65949 0.0
C175 C 0.45872 0.36335 0.60109 0.0
N176 N 0.45584 0.37533 0.6581 0.0
N177 N 0.45156 0.37902 0.62182 0.0
N178 N 0.46781 0.3496 0.62397 0.0
H179 H 0.4701 0.3303 0.69341 0.0
H180 H 0.48844 0.35029 0.70089 0.0
H181 H 0.46335 0.35277 0.72042 0.0
C182 C 0.47211 0.34705 0.69571 0.0
C183 C 0.41034 0.46752 0.73547 0.0
H184 H 0.39523 0.46005 0.73321 0.0
H185 H 0.40801 0.48428 0.73544 0.0
H186 H 0.41957 0.46321 0.7103 0.0
O187 O 0.45359 0.44408 0.69725 0.0
O188 O 0.46331 0.41798 0.6629 0.0
C189 C 0.40787 0.41394 0.67999 0.0
O190 O 0.47584 0.39155 0.72805 0.0
O191 O 0.46956 0.41815 0.7641 0.0
Zn192 Zn 0.84929 0.19697 0.45181 0.0
O193 O 0.87029 0.18268 0.4891 0.0
C194 C 0.84273 0.23003 0.50785 0.0
Zn195 Zn 0.82354 0.18927 0.49 0.0
C196 C 0.86398 0.17486 0.52011 0.0
O197 O 0.84509 0.1757 0.52813 0.0
C198 C 0.80939 0.21106 0.42019 0.0
O199 O 0.82019 0.16019 0.4634 0.0
O200 O 0.84458 0.16899 0.42423 0.0
N201 N 0.8007 0.18267 0.52758 0.0
C202 C 0.78393 0.17095 0.5242 0.0
C203 C 0.78471 0.18205 0.58132 0.0
N204 N 0.80113 0.18959 0.56306 0.0
N205 N 0.77377 0.17019 0.5576 0.0
C206 C 0.88892 0.21318 0.41438 0.0
C207 C 0.88513 0.20299 0.35699 0.0
N208 N 0.87123 0.20294 0.41278 0.0
N209 N 0.8689 0.1966 0.37714 0.0
N210 N 0.89778 0.21358 0.37971 0.0
H211 H 0.91485 0.22003 0.44974 0.0
H212 H 0.89458 0.23834 0.45139 0.0
H213 H 0.89178 0.21434 0.47581 0.0
C214 C 0.89804 0.22183 0.45007 0.0
C215 C 0.77693 0.16124 0.48776 0.0
H216 H 0.782 0.17021 0.46274 0.0
H217 H 0.78351 0.14571 0.48565 0.0
H218 H 0.76009 0.15991 0.48717 0.0
O219 O 0.80224 0.20285 0.45029 0.0
O220 O 0.82848 0.21094 0.41488 0.0
C221 C 0.83162 0.15597 0.43532 0.0
O222 O 0.85407 0.22495 0.48006 0.0
O223 O 0.82812 0.21832 0.51746 0.0
Zn224 Zn 0.04969 0.60029 0.19768 0.0
O225 O 0.06524 0.62171 0.23243 0.0
C226 C 0.01756 0.59449 0.25612 0.0
Zn227 Zn 0.05767 0.57501 0.23661 0.0
C228 C 0.07277 0.61586 0.26402 0.0
O229 O 0.07132 0.59717 0.27339 0.0
C230 C 0.03471 0.55997 0.169 0.0
O231 O 0.08641 0.57173 0.20859 0.0
O232 O 0.07668 0.59493 0.16752 0.0
N233 N 0.06538 0.55279 0.2749 0.0
C234 C 0.07698 0.53594 0.27137 0.0
C235 C 0.06851 0.53836 0.32987 0.0
N236 N 0.06011 0.55425 0.31125 0.0
N237 N 0.07936 0.52672 0.30558 0.0
C238 C 0.03784 0.64155 0.16037 0.0
C239 C 0.03722 0.63321 0.10152 0.0
N240 N 0.04268 0.62168 0.15824 0.0
N241 N 0.04234 0.61654 0.12169 0.0
N242 N 0.03449 0.64912 0.12513 0.0
H243 H 0.03204 0.64278 0.22105 0.0
H244 H 0.04969 0.66139 0.20328 0.0
H245 H 0.0229 0.6645 0.19433 0.0
C246 C 0.03534 0.65314 0.19693 0.0
C247 C 0.08505 0.52807 0.23417 0.0
H248 H 0.07538 0.53302 0.21005 0.0
H249 H 0.10061 0.53417 0.22952 0.0
H250 H 0.08583 0.51117 0.23442 0.0
O251 O 0.04377 0.55304 0.19841 0.0
O252 O 0.03451 0.57905 0.16336 0.0
C253 C 0.08998 0.58237 0.17906 0.0
O254 O 0.0226 0.60579 0.22824 0.0
O255 O 0.02898 0.57954 0.26519 0.0
Zn256 Zn 0.82472 0.6896 0.53947 0.0
O257 O 0.82084 0.66091 0.56755 0.0
C258 C 0.81056 0.71214 0.60785 0.0
Zn259 Zn 0.85068 0.69756 0.57691 0.0
C260 C 0.83263 0.65681 0.59524 0.0
O261 O 0.84593 0.66978 0.60505 0.0
C262 C 0.84425 0.73012 0.52024 0.0
O263 O 0.87188 0.68305 0.54051 0.0
O264 O 0.84652 0.67547 0.50227 0.0
N265 N 0.87225 0.70385 0.61636 0.0
C266 C 0.89041 0.71328 0.61511 0.0
C267 C 0.88534 0.70418 0.6728 0.0
N268 N 0.86911 0.69825 0.65219 0.0
N269 N 0.89883 0.71379 0.65025 0.0
C270 C 0.78524 0.67118 0.5045 0.0
C271 C 0.78825 0.6795 0.446 0.0
N272 N 0.80235 0.68242 0.50126 0.0
N273 N 0.80416 0.68759 0.46492 0.0
N274 N 0.7762 0.66895 0.47007 0.0
H275 H 0.78209 0.67296 0.56573 0.0
H276 H 0.78273 0.64766 0.54651 0.0
H277 H 0.76012 0.66298 0.54107 0.0
C278 C 0.77701 0.66336 0.54161 0.0
C279 C 0.90024 0.72097 0.5793 0.0
H280 H 0.91694 0.71842 0.58026 0.0
H281 H 0.89744 0.73758 0.5768 0.0
H282 H 0.89384 0.71344 0.55374 0.0
O283 O 0.85563 0.72525 0.54813 0.0
O284 O 0.82961 0.71836 0.51094 0.0
C285 C 0.86547 0.67486 0.50992 0.0
O286 O 0.80326 0.70381 0.57801 0.0
O287 O 0.82966 0.71182 0.61311 0.0
Zn288 Zn 0.04963 0.10031 0.82603 0.0
O289 O 0.0637 0.12182 0.78939 0.0
C290 C 0.01725 0.09317 0.76896 0.0
Zn291 Zn 0.05803 0.07468 0.78797 0.0
C292 C 0.07174 0.11565 0.75849 0.0
O293 O 0.07135 0.09672 0.75057 0.0
C294 C 0.0362 0.05957 0.85641 0.0
O295 O 0.08681 0.07208 0.81614 0.0
O296 O 0.07726 0.09645 0.85488 0.0
N297 N 0.0657 0.05227 0.75011 0.0
C298 C 0.07811 0.03597 0.75315 0.0
C299 C 0.06713 0.03674 0.69592 0.0
N300 N 0.05887 0.05268 0.71456 0.0
N301 N 0.07938 0.02611 0.71946 0.0
C302 C 0.03603 0.14133 0.8624 0.0
C303 C 0.03524 0.13323 0.92139 0.0
N304 N 0.04182 0.12172 0.86513 0.0
N305 N 0.04133 0.11673 0.90173 0.0
N306 N 0.03172 0.14884 0.89738 0.0
H307 H 0.05323 0.15625 0.81923 0.0
H308 H 0.02948 0.16842 0.82817 0.0
H309 H 0.03021 0.14456 0.80232 0.0
C310 C 0.037 0.15341 0.82609 0.0
C311 C 0.08799 0.02908 0.78949 0.0
H312 H 0.10317 0.03635 0.79207 0.0
H313 H 0.09011 0.0123 0.78952 0.0
H314 H 0.07868 0.03349 0.8145 0.0
O315 O 0.04475 0.0527 0.82647 0.0
O316 O 0.03587 0.07866 0.86191 0.0
C317 C 0.0906 0.08368 0.84431 0.0
O318 O 0.02209 0.10454 0.79684 0.0
O319 O 0.02912 0.07865 0.7595 0.0
Zn320 Zn 0.6475 0.2988 0.07609 0.0
O321 O 0.62631 0.31334 0.03917 0.0
C322 C 0.65423 0.26668 0.01883 0.0
Zn323 Zn 0.67308 0.30746 0.03827 0.0
C324 C 0.63259 0.32181 1.00874 0.0
O325 O 0.65152 0.32145 1.00099 0.0
C326 C 0.68759 0.28488 0.10697 0.0
O327 O 0.67626 0.33611 0.06671 0.0
O328 O 0.65171 0.32641 0.10475 0.0
N329 N 0.69578 0.31479 1.00082 0.0
C330 C 0.71222 0.32697 1.0042 0.0
C331 C 0.71149 0.31624 0.94683 0.0
N332 N 0.69539 0.3081 0.96517 0.0
N333 N 0.72219 0.32826 0.97065 0.0
C334 C 0.60753 0.28246 0.11222 0.0
C335 C 0.61191 0.29092 0.17044 0.0
N336 N 0.62565 0.29193 0.11464 0.0
N337 N 0.62836 0.29712 0.1508 0.0
N338 N 0.59868 0.28154 0.14695 0.0
H339 H 0.58147 0.2775 0.07591 0.0
H340 H 0.60123 0.25856 0.0725 0.0
H341 H 0.60481 0.28298 0.05069 0.0
C342 C 0.5982 0.27511 0.07566 0.0
C343 C 0.71913 0.33662 0.04074 0.0
H344 H 0.71196 0.35186 0.04354 0.0
H345 H 0.73591 0.33861 0.0409 0.0
H346 H 0.71462 0.32719 0.06556 0.0
O347 O 0.69459 0.29345 0.0771 0.0
O348 O 0.66851 0.28476 0.11246 0.0
C349 C 0.66459 0.33975 0.09477 0.0
O350 O 0.64312 0.27117 0.04724 0.0
O351 O 0.66848 0.27882 1.00911 0.0
Zn352 Zn 0.44785 0.89798 0.32341 0.0
O353 O 0.43401 0.87629 0.28684 0.0
C354 C 0.4798 0.9059 0.26577 0.0
Zn355 Zn 0.43872 0.92342 0.28561 0.0
C356 C 0.4255 0.88226 0.2562 0.0
O357 O 0.42541 0.90121 0.24831 0.0
C358 C 0.46085 0.9385 0.35425 0.0
O359 O 0.41008 0.92582 0.31443 0.0
O360 O 0.42016 0.90122 0.3521 0.0
N361 N 0.43051 0.94584 0.24817 0.0
C362 C 0.41952 0.96305 0.25252 0.0
C363 C 0.42611 0.95997 0.19321 0.0
N364 N 0.43465 0.94402 0.21135 0.0
N365 N 0.41655 0.97214 0.2184 0.0
C366 C 0.46672 0.85925 0.35949 0.0
C367 C 0.45783 0.86262 0.41771 0.0
N368 N 0.45558 0.87637 0.36196 0.0
N369 N 0.45007 0.87846 0.39811 0.0
N370 N 0.46852 0.8505 0.39415 0.0
H371 H 0.47441 0.83367 0.32369 0.0
H372 H 0.49088 0.85542 0.31933 0.0
H373 H 0.46599 0.85605 0.2981 0.0
C374 C 0.47483 0.85057 0.32295 0.0
C375 C 0.40982 0.96952 0.28931 0.0
H376 H 0.3943 0.9629 0.29085 0.0
H377 H 0.40829 0.98628 0.29119 0.0
H378 H 0.41873 0.96404 0.31408 0.0
O379 O 0.45223 0.94537 0.32432 0.0
O380 O 0.46127 0.91941 0.35974 0.0
C381 C 0.40659 0.91391 0.34225 0.0
O382 O 0.47565 0.89461 0.29416 0.0
O383 O 0.46728 0.91982 0.25616 0.0
Zn384 Zn 0.14683 0.30151 0.44786 0.0
O385 O 0.12574 0.31739 0.48248 0.0
C386 C 0.15197 0.26915 0.50621 0.0
Zn387 Zn 0.17201 0.30908 0.48728 0.0
C388 C 0.13147 0.32476 0.51425 0.0
O389 O 0.15005 0.32301 0.52407 0.0
C390 C 0.18671 0.28601 0.41941 0.0
O391 O 0.17595 0.33786 0.45974 0.0
O392 O 0.15286 0.32856 0.41814 0.0
N393 N 0.19421 0.3162 0.5259 0.0
C394 C 0.2114 0.32734 0.52285 0.0
C395 C 0.20818 0.31902 0.58131 0.0
N396 N 0.19227 0.31103 0.56222 0.0
N397 N 0.22036 0.32951 0.55738 0.0
C398 C 0.10685 0.28621 0.4105 0.0
C399 C 0.11166 0.29445 0.35227 0.0
N400 N 0.12521 0.2952 0.40838 0.0
N401 N 0.12819 0.30028 0.37221 0.0
N402 N 0.09818 0.28541 0.37565 0.0
H403 H 0.10373 0.28683 0.47199 0.0
H404 H 0.08036 0.2825 0.44602 0.0
H405 H 0.09902 0.2626 0.44975 0.0
C406 C 0.09695 0.2793 0.44679 0.0
C407 C 0.21976 0.33516 0.48583 0.0
H408 H 0.21465 0.32566 0.46161 0.0
H409 H 0.21417 0.35091 0.481 0.0
H410 H 0.23665 0.33539 0.48647 0.0
O411 O 0.19367 0.2949 0.44898 0.0
O412 O 0.16767 0.28606 0.41348 0.0
C413 C 0.16555 0.34165 0.43002 0.0
O414 O 0.14079 0.27437 0.47825 0.0
O415 O 0.16699 0.28041 0.51547 0.0
Zn416 Zn 0.94559 0.89784 0.19979 0.0
O417 O 0.93046 0.87777 0.2376 0.0
C418 C 0.97815 0.90356 0.25671 0.0
Zn419 Zn 0.9381 0.92403 0.23712 0.0
C420 C 0.92246 0.88441 0.26819 0.0
O421 O 0.9234 0.90338 0.27571 0.0
C422 C 0.96101 0.93695 0.16741 0.0
O423 O 0.90967 0.92864 0.20825 0.0
O424 O 0.91801 0.90305 0.17145 0.0
N425 N 0.93265 0.94807 0.27288 0.0
C426 C 0.91528 0.95645 0.2861 0.0
C427 C 0.93987 0.97439 0.30718 0.0
N428 N 0.9479 0.95919 0.28621 0.0
N429 N 0.9194 0.97306 0.30746 0.0
C430 C 0.95999 0.85692 0.1642 0.0
C431 C 0.95132 0.86132 0.10608 0.0
N432 N 0.9511 0.87533 0.16172 0.0
N433 N 0.94574 0.87804 0.12563 0.0
N434 N 0.96043 0.84791 0.12958 0.0
H435 H 0.96413 0.8308 0.20066 0.0
H436 H 0.98387 0.84973 0.20329 0.0
H437 H 0.95981 0.85448 0.22575 0.0
C438 C 0.96721 0.84743 0.20069 0.0
C439 C 0.89444 0.94781 0.27975 0.0
H440 H 0.89509 0.93102 0.27666 0.0
H441 H 0.88419 0.95175 0.30379 0.0
H442 H 0.88801 0.9544 0.25323 0.0
O443 O 0.95281 0.94441 0.19721 0.0
O444 O 0.96042 0.91783 0.16233 0.0
C445 C 0.90535 0.91672 0.18083 0.0
O446 O 0.97314 0.89237 0.22866 0.0
O447 O 0.96667 0.91842 0.26596 0.0
Zn448 Zn 0.32473 0.68854 0.98574 0.0
O449 O 0.32181 0.65978 0.95701 0.0
C450 C 0.30994 0.71113 0.91722 0.0
Zn451 Zn 0.35018 0.6973 0.94774 0.0
C452 C 0.33358 0.65618 0.92904 0.0
O453 O 0.34627 0.66969 0.91898 0.0
C454 C 0.34314 0.72939 1.00543 0.0
O455 O 0.37156 0.68286 0.98404 0.0
O456 O 0.34669 0.67491 0.02302 0.0
N457 N 0.37183 0.70454 0.90906 0.0
C458 C 0.38982 0.71425 0.91141 0.0
C459 C 0.38532 0.70604 0.85309 0.0
N460 N 0.36903 0.69952 0.87285 0.0
N461 N 0.39851 0.71549 0.87656 0.0
C462 C 0.28537 0.66912 0.01932 0.0
C463 C 0.28747 0.67751 0.07792 0.0
N464 N 0.30228 0.68059 0.02334 0.0
N465 N 0.30353 0.68579 0.05975 0.0
N466 N 0.27589 0.66679 0.05329 0.0
H467 H 0.28305 0.67071 0.95791 0.0
H468 H 0.2836 0.64547 0.97749 0.0
H469 H 0.26083 0.66064 0.98156 0.0
C470 C 0.27771 0.66114 0.98188 0.0
C471 C 0.39922 0.7215 0.94798 0.0
H472 H 0.41597 0.71926 0.94746 0.0
H473 H 0.39606 0.73799 0.95146 0.0
H474 H 0.39278 0.71344 0.97289 0.0
O475 O 0.35432 0.72496 0.97706 0.0
O476 O 0.32895 0.71717 0.01507 0.0
C477 C 0.36556 0.67458 0.01484 0.0
O478 O 0.30299 0.70249 0.94706 0.0
O479 O 0.32901 0.71127 0.91167 0.0
Zn480 Zn 0.54452 0.10089 0.70175 0.0
O481 O 0.55777 0.12244 0.73944 0.0
C482 C 0.51388 0.09056 0.76082 0.0
Zn483 Zn 0.55503 0.07514 0.73766 0.0
C484 C 0.56709 0.1162 0.76903 0.0
O485 O 0.56806 0.09714 0.77552 0.0
C486 C 0.53274 0.06029 0.66913 0.0
O487 O 0.58313 0.07472 0.70681 0.0
O488 O 0.57165 0.0995 0.67081 0.0
N489 N 0.56489 0.0525 0.77328 0.0
C490 C 0.57667 0.03592 0.76772 0.0
C491 C 0.57033 0.03773 0.8273 0.0
N492 N 0.56092 0.05353 0.81026 0.0
N493 N 0.58031 0.02644 0.80127 0.0
C494 C 0.54121 0.14141 0.65633 0.0
C495 C 0.51291 0.13717 0.62756 0.0
N496 N 0.53391 0.12306 0.66673 0.0
N497 N 0.51639 0.12042 0.64869 0.0
N498 N 0.52826 0.15058 0.63179 0.0
H499 H 0.57241 0.13747 0.67451 0.0
H500 H 0.5677 0.16019 0.64671 0.0
H501 H 0.55927 0.15858 0.6955 0.0
C502 C 0.56137 0.14983 0.66876 0.0
C503 C 0.58635 0.03053 0.73033 0.0
H504 H 0.60128 0.03835 0.72834 0.0
H505 H 0.58914 0.01397 0.72777 0.0
H506 H 0.57671 0.03559 0.70619 0.0
O507 O 0.54188 0.05329 0.69843 0.0
O508 O 0.53158 0.07943 0.66468 0.0
C509 C 0.58584 0.08724 0.67956 0.0
O510 O 0.51738 0.10243 0.733 0.0
O511 O 0.5269 0.07687 0.76913 0.0
H512 H 0.43168 0.19692 0.12517 0.0
H513 H 0.46645 0.20791 0.13978 0.0
H514 H 0.44283 0.25536 0.21258 0.0
H515 H 0.40793 0.24456 0.19723 0.0
H516 H 0.46986 0.26862 0.15538 0.0
H517 H 0.50194 0.20356 0.23638 0.0
H518 H 0.48922 0.19608 0.19323 0.0
H519 H 0.47486 0.20767 0.23112 0.0
C520 C 0.43399 0.20969 0.1442 0.0
C521 C 0.41734 0.22027 0.15944 0.0
C522 C 0.45377 0.21572 0.15306 0.0
C523 C 0.45711 0.23227 0.17759 0.0
C524 C 0.44047 0.24244 0.19385 0.0
H525 H 0.57215 0.29933 0.1947 0.0
H526 H 0.53769 0.28753 0.21014 0.0
C527 C 0.42067 0.23634 0.18508 0.0
C528 C 0.47787 0.24029 0.18248 0.0
H529 H 0.52609 0.22638 0.2074 0.0
C530 C 0.48214 0.25961 0.16746 0.0
C531 C 0.49372 0.22837 0.19813 0.0
C532 C 0.48971 0.20783 0.21597 0.0
C533 C 0.50213 0.2669 0.16553 0.0
C534 C 0.51811 0.25464 0.17986 0.0
C535 C 0.51374 0.23568 0.19644 0.0
C536 C 0.53957 0.26055 0.17481 0.0
C537 C 0.50607 0.28708 0.14616 0.0
C538 C 0.55222 0.24874 0.15138 0.0
C539 C 0.57188 0.25533 0.14295 0.0
C540 C 0.57903 0.27391 0.1575 0.0
C541 C 0.56676 0.28512 0.18268 0.0
C542 C 0.54713 0.27847 0.19134 0.0
H543 H 0.4926 0.29254 0.12992 0.0
H544 H 0.50981 0.29871 0.16804 0.0
H545 H 0.51918 0.28592 0.12629 0.0
H546 H 0.54667 0.23473 0.13877 0.0
H547 H 0.58141 0.246 0.12486 0.0
H548 H 0.50718 0.66442 0.43978 0.0
H549 H 0.49917 0.70069 0.44949 0.0
H550 H 0.55265 0.71733 0.38511 0.0
H551 H 0.56038 0.68116 0.37503 0.0
H552 H 0.52118 0.73538 0.47881 0.0
H553 H 0.50438 0.74058 0.32358 0.0
H554 H 0.50748 0.71654 0.34788 0.0
H555 H 0.52941 0.73135 0.33477 0.0
C556 C 0.51727 0.67594 0.42829 0.0
C557 C 0.53402 0.67033 0.40589 0.0
C558 C 0.51278 0.69651 0.43388 0.0
C559 C 0.52515 0.71153 0.41737 0.0
C560 C 0.54275 0.70587 0.3974 0.0
H561 H 0.50673 0.83971 0.37482 0.0
H562 H 0.52279 0.80656 0.3863 0.0
C563 C 0.54709 0.68536 0.39151 0.0
C564 C 0.51863 0.73297 0.41771 0.0
H565 H 0.50282 0.7711 0.35879 0.0
C566 C 0.5172 0.74328 0.45266 0.0
C567 C 0.51331 0.74301 0.38345 0.0
C568 C 0.51351 0.73229 0.34531 0.0
C569 C 0.51076 0.76365 0.45412 0.0
C570 C 0.50557 0.77366 0.41981 0.0
C571 C 0.50708 0.76334 0.38495 0.0
C572 C 0.49752 0.79456 0.41895 0.0
C573 C 0.50967 0.77436 0.49211 0.0
C574 C 0.47822 0.79875 0.43409 0.0
C575 C 0.46899 0.81753 0.42712 0.0
C576 C 0.47886 0.83213 0.40451 0.0
C577 C 0.49864 0.82834 0.39124 0.0
C578 C 0.50787 0.8096 0.3982 0.0
H579 H 0.51865 0.76628 0.51432 0.0
H580 H 0.51533 0.79026 0.48969 0.0
H581 H 0.49357 0.77496 0.50163 0.0
H582 H 0.46989 0.78715 0.4496 0.0
H583 H 0.45376 0.82031 0.43773 0.0
H584 H 0.08945 0.75429 0.69783 0.0
H585 H 0.05522 0.74225 0.71503 0.0
H586 H 0.02895 0.78477 0.63499 0.0
H587 H 0.06304 0.79712 0.61859 0.0
H588 H 0.00899 0.7817 0.70998 0.0
H589 H 0.02184 0.70718 0.63727 0.0
H590 H 0.0402 0.71511 0.67236 0.0
H591 H 0.03785 0.72903 0.62852 0.0
C592 C 0.07629 0.76107 0.68421 0.0
C593 C 0.07872 0.77613 0.65614 0.0
C594 C 0.05687 0.75422 0.69395 0.0
C595 C 0.03973 0.76249 0.67584 0.0
C596 C 0.0421 0.77816 0.64901 0.0
H597 H 0.91533 0.75014 0.63156 0.0
H598 H 0.94968 0.76184 0.64704 0.0
C599 C 0.06149 0.78498 0.63928 0.0
C600 C 0.01933 0.75413 0.68288 0.0
H601 H 0.98907 0.71378 0.66023 0.0
C602 C 0.00462 0.76673 0.69969 0.0
C603 C 0.01389 0.73456 0.66958 0.0
C604 C 0.02917 0.72064 0.65071 0.0
C605 C 0.98427 0.76052 0.70224 0.0
C606 C 0.9786 0.74144 0.68686 0.0
C607 C 0.99354 0.7284 0.67198 0.0
C608 C 0.95713 0.73555 0.68179 0.0
C609 C 0.96898 0.77458 0.72062 0.0
C610 C 0.95006 0.71684 0.69589 0.0
C611 C 0.93064 0.70996 0.68624 0.0
C612 C 0.9182 0.72157 0.66198 0.0
C613 C 0.92495 0.74066 0.64925 0.0
C614 C 0.94436 0.74753 0.65878 0.0
H615 H 0.97637 0.78459 0.74213 0.0
H616 H 0.96217 0.78453 0.69842 0.0
H617 H 0.95656 0.7659 0.73467 0.0
H618 H 0.95978 0.70734 0.71345 0.0
H619 H 0.92558 0.69525 0.69655 0.0
H620 H 0.95545 0.32806 0.95479 0.0
H621 H 0.968 0.2944 0.97417 0.0
H622 H 0.00932 0.29445 0.87833 0.0
H623 H 0.99808 0.32873 0.86133 0.0
H624 H 0.96446 0.26068 0.93971 0.0
H625 H 0.04657 0.27345 0.95685 0.0
H626 H 0.02889 0.29438 0.95247 0.0
H627 H 0.03941 0.28236 0.91051 0.0
C628 C 0.9674 0.32087 0.93833 0.0
C629 C 0.97531 0.33048 0.90579 0.0
C630 C 0.97456 0.30172 0.94935 0.0
C631 C 0.98976 0.29195 0.92797 0.0
C632 C 0.99795 0.30183 0.89589 0.0
H633 H 0.00061 0.16981 0.86621 0.0
H634 H 0.98998 0.20437 0.88244 0.0
C635 C 0.99112 0.32114 0.88546 0.0
C636 C 0.99572 0.27071 0.9367 0.0
H637 H 0.03675 0.239 0.93626 0.0
C638 C 0.9803 0.256 0.93991 0.0
C639 C 0.01635 0.26455 0.93836 0.0
C640 C 0.03368 0.27962 0.93984 0.0
C641 C 0.98493 0.23519 0.94134 0.0
C642 C 0.00546 0.22897 0.93772 0.0
C643 C 0.02095 0.24371 0.93799 0.0
C644 C 0.01109 0.20757 0.9297 0.0
C645 C 0.96771 0.22017 0.94598 0.0
C646 C 0.02691 0.19808 0.94999 0.0
C647 C 0.03361 0.1787 0.9394 0.0
C648 C 0.02466 0.16863 0.90833 0.0
C649 C 0.00829 0.17772 0.88917 0.0
C650 C 0.00186 0.19722 0.89918 0.0
H651 H 0.95542 0.22671 0.96401 0.0
H652 H 0.96098 0.21683 0.91762 0.0
H653 H 0.97294 0.20568 0.9591 0.0
H654 H 0.03427 0.20578 0.97359 0.0
H655 H 0.04604 0.1717 0.95493 0.0
H656 H 0.58884 0.75458 0.82845 0.0
H657 H 0.55409 0.74365 0.81236 0.0
H658 H 0.52985 0.79014 0.88662 0.0
H659 H 0.56448 0.80127 0.90198 0.0
H660 H 0.52695 0.72962 0.86884 0.0
H661 H 0.49472 0.79521 0.78956 0.0
H662 H 0.5218 0.79122 0.795 0.0
H663 H 0.50724 0.80234 0.83312 0.0
C664 C 0.576 0.76256 0.84079 0.0
C665 C 0.57913 0.77839 0.86703 0.0
C666 C 0.55628 0.75638 0.83159 0.0
C667 C 0.53951 0.76626 0.84802 0.0
C668 C 0.54264 0.78256 0.87321 0.0
H669 H 0.41533 0.75115 0.89913 0.0
H670 H 0.44993 0.76288 0.88539 0.0
C671 C 0.56234 0.78866 0.8825 0.0
C672 C 0.51884 0.75814 0.84255 0.0
H673 H 0.47064 0.77191 0.81732 0.0
C674 C 0.51466 0.73864 0.85686 0.0
C675 C 0.50298 0.77008 0.82703 0.0
C676 C 0.50691 0.79081 0.80996 0.0
C677 C 0.49472 0.73119 0.85824 0.0
C678 C 0.47871 0.74345 0.84406 0.0
C679 C 0.48301 0.7626 0.82815 0.0
C680 C 0.45728 0.73737 0.84874 0.0
C681 C 0.49086 0.71081 0.87695 0.0
C682 C 0.44988 0.7195 0.83178 0.0
C683 C 0.43035 0.71257 0.84037 0.0
C684 C 0.418 0.72346 0.8659 0.0
C685 C 0.42494 0.74204 0.88078 0.0
C686 C 0.44452 0.7489 0.87244 0.0
H687 H 0.50431 0.7053 0.89319 0.0
H688 H 0.47768 0.7117 0.8967 0.0
H689 H 0.48728 0.69934 0.85467 0.0
H690 H 0.45941 0.71065 0.81276 0.0
H691 H 0.42511 0.69837 0.82808 0.0
H692 H 0.50301 0.33284 0.64974 0.0
H693 H 0.51686 0.29969 0.63227 0.0
H694 H 0.46903 0.29216 0.54891 0.0
H695 H 0.45428 0.32481 0.56851 0.0
H696 H 0.47111 0.26044 0.59301 0.0
H697 H 0.54923 0.27761 0.5458 0.0
H698 H 0.54492 0.28855 0.59189 0.0
H699 H 0.53023 0.29728 0.55154 0.0
C700 C 0.49526 0.32397 0.6282 0.0
C701 C 0.4771 0.33094 0.6116 0.0
C702 C 0.50353 0.30529 0.61737 0.0
C703 C 0.49415 0.29356 0.58886 0.0
C704 C 0.47657 0.30101 0.57084 0.0
H705 H 0.51665 0.16219 0.56155 0.0
H706 H 0.51052 0.19733 0.54011 0.0
C707 C 0.46815 0.31958 0.58207 0.0
C708 C 0.50107 0.27244 0.58184 0.0
H709 H 0.54385 0.24336 0.57216 0.0
C710 C 0.4869 0.2567 0.58727 0.0
C711 C 0.52167 0.26758 0.57423 0.0
C712 C 0.53729 0.28371 0.56512 0.0
C713 C 0.49305 0.23631 0.58829 0.0
C714 C 0.51388 0.2316 0.58367 0.0
C715 C 0.5279 0.24715 0.57585 0.0
C716 C 0.52145 0.21103 0.59233 0.0
C717 C 0.47748 0.22001 0.59694 0.0
C718 C 0.53009 0.20737 0.62823 0.0
C719 C 0.53339 0.18745 0.64056 0.0
C720 C 0.52836 0.17094 0.6169 0.0
C721 C 0.52076 0.17473 0.58009 0.0
C722 C 0.51735 0.19469 0.56782 0.0
H723 H 0.46209 0.22643 0.60226 0.0
H724 H 0.47646 0.20929 0.57252 0.0
H725 H 0.48223 0.21111 0.6224 0.0
H726 H 0.533 0.21986 0.64769 0.0
H727 H 0.5385 0.18503 0.66952 0.0
H728 H 0.90898 0.25239 0.39222 0.0
H729 H 0.94247 0.26734 0.37918 0.0
H730 H 0.96209 0.21052 0.32916 0.0
H731 H 0.92843 0.19574 0.34186 0.0
H732 H 0.97642 0.2523 0.41211 0.0
H733 H 0.98534 0.25211 0.2549 0.0
H734 H 0.96089 0.24938 0.27796 0.0
H735 H 0.97768 0.22784 0.27369 0.0
C736 C 0.92047 0.24326 0.37818 0.0
C737 C 0.91654 0.22289 0.36868 0.0
C738 C 0.93943 0.25179 0.37042 0.0
C739 C 0.95466 0.24006 0.35295 0.0
C740 C 0.9504 0.21995 0.34189 0.0
H741 H 0.08257 0.24867 0.39295 0.0
H742 H 0.04731 0.23764 0.38274 0.0
C743 C 0.93134 0.21148 0.34939 0.0
C744 C 0.97566 0.2479 0.3512 0.0
H745 H 0.01602 0.25589 0.29176 0.0
C746 C 0.98499 0.25333 0.38572 0.0
C747 C 0.98672 0.24926 0.3167 0.0
C748 C 0.97709 0.24453 0.27866 0.0
C749 C 0.0053 0.25956 0.38688 0.0
C750 C 0.01664 0.25999 0.35269 0.0
C751 C 0.00723 0.25522 0.31791 0.0
C752 C 0.03839 0.2652 0.35318 0.0
C753 C 0.01453 0.26554 0.42474 0.0
C754 C 0.04503 0.28391 0.33847 0.0
C755 C 0.06508 0.29021 0.34447 0.0
C756 C 0.0785 0.27789 0.3654 0.0
C757 C 0.07218 0.25859 0.3778 0.0
C758 C 0.05221 0.25227 0.37172 0.0
H759 H 0.00267 0.26887 0.44646 0.0
H760 H 0.02405 0.2528 0.43552 0.0
H761 H 0.02444 0.27915 0.42159 0.0
H762 H 0.03449 0.29401 0.32402 0.0
H763 H 0.06984 0.30508 0.33449 0.0
H764 H 0.00436 0.65852 0.07654 0.0
H765 H 0.99194 0.69285 0.06087 0.0
H766 H 0.03833 0.7189 0.13321 0.0
H767 H 0.05093 0.68468 0.14817 0.0
H768 H 0.97754 0.71922 0.11817 0.0
H769 H 0.04051 0.75451 0.03639 0.0
H770 H 0.03776 0.72724 0.04163 0.0
H771 H 0.04881 0.74215 0.07938 0.0
C772 C 0.01202 0.67167 0.08848 0.0
C773 C 0.02824 0.66916 0.11412 0.0
C774 C 0.00499 0.69115 0.07953 0.0
C775 C 0.01438 0.70831 0.09561 0.0
C776 C 0.03112 0.70582 0.12006 0.0
H777 H 0.99638 0.83128 0.15057 0.0
H778 H 0.00841 0.79695 0.13555 0.0
C779 C 0.03807 0.68635 0.12912 0.0
C780 C 0.00531 0.72864 0.09075 0.0
H781 H 0.01679 0.77754 0.0661 0.0
C782 C 0.98588 0.73194 0.10605 0.0
C783 C 0.01635 0.74506 0.075 0.0
C784 C 0.03695 0.74207 0.05683 0.0
C785 C 0.97768 0.75158 0.10832 0.0
C786 C 0.98911 0.76818 0.09407 0.0
C787 C 0.00812 0.76473 0.07701 0.0
C788 C 0.98247 0.78936 0.10015 0.0
C789 C 0.95746 0.75453 0.12809 0.0
C790 C 0.96417 0.79651 0.08448 0.0
C791 C 0.95707 0.81592 0.09384 0.0
C792 C 0.96822 0.82835 0.11886 0.0
C793 C 0.98709 0.82159 0.1327 0.0
C794 C 0.99411 0.80217 0.12358 0.0
H795 H 0.9526 0.74068 0.14389 0.0
H796 H 0.95822 0.76747 0.14845 0.0
H797 H 0.94561 0.75806 0.10652 0.0
H798 H 0.95521 0.78695 0.0657 0.0
H799 H 0.94265 0.82105 0.08234 0.0
H800 H 0.12621 0.06694 0.81795 0.0
H801 H 0.16062 0.07359 0.84223 0.0
H802 H 0.13527 0.10904 0.93428 0.0
H803 H 0.10109 0.10227 0.91073 0.0
H804 H 0.17603 0.11225 0.84584 0.0
H805 H 0.17929 0.0775 0.98929 0.0
H806 H 0.16029 0.07042 0.95442 0.0
H807 H 0.1569 0.09284 0.98338 0.0
C808 C 0.12797 0.07562 0.84401 0.0
C809 C 0.11095 0.08417 0.86232 0.0
C810 C 0.14763 0.07946 0.85778 0.0
C811 C 0.15051 0.09164 0.89029 0.0
C812 C 0.13345 0.09923 0.90967 0.0
H813 H 0.23666 0.17084 0.99395 0.0
H814 H 0.20757 0.14969 0.97454 0.0
C815 C 0.11388 0.09548 0.89594 0.0
C816 C 0.17109 0.09887 0.90117 0.0
H817 H 0.20245 0.10558 0.97788 0.0
C818 C 0.18206 0.11041 0.87445 0.0
C819 C 0.17884 0.09656 0.93858 0.0
C820 C 0.16829 0.08347 0.96792 0.0
C821 C 0.19999 0.12067 0.88474 0.0
C822 C 0.20724 0.11908 0.92261 0.0
C823 C 0.19674 0.10687 0.94893 0.0
C824 C 0.22508 0.13089 0.93587 0.0
C825 C 0.21045 0.13397 0.85557 0.0
C826 C 0.24452 0.12714 0.92083 0.0
C827 C 0.26106 0.13911 0.93209 0.0
C828 C 0.25846 0.15479 0.95887 0.0
C829 C 0.23906 0.15844 0.9741 0.0
C830 C 0.2225 0.14648 0.96287 0.0
H831 H 0.2008 0.13658 0.82997 0.0
H832 H 0.2145 0.14897 0.86812 0.0
H833 H 0.22474 0.12648 0.8462 0.0
H834 H 0.24684 0.11508 0.90021 0.0
H835 H 0.27594 0.13617 0.91996 0.0
H836 H 0.67844 0.37621 0.06646 0.0
H837 H 0.6691 0.41022 0.08987 0.0
H838 H 0.63896 0.38299 0.18649 0.0
H839 H 0.64808 0.34915 0.16343 0.0
H840 H 0.61416 0.40759 0.13293 0.0
H841 H 0.68358 0.44735 0.18612 0.0
H842 H 0.68516 0.43325 0.14208 0.0
H843 H 0.68146 0.41987 0.1861 0.0
C844 C 0.67043 0.37753 0.09336 0.0
C845 C 0.66377 0.36004 0.1129 0.0
C846 C 0.66512 0.39695 0.10667 0.0
C847 C 0.65332 0.39903 0.13983 0.0
C848 C 0.64808 0.38165 0.16086 0.0
H849 H 0.57508 0.48773 0.24589 0.0
H850 H 0.59444 0.45739 0.22703 0.0
C851 C 0.65329 0.36234 0.14759 0.0
C852 C 0.6437 0.41869 0.14962 0.0
H853 H 0.65268 0.46579 0.18727 0.0
C854 C 0.62257 0.42035 0.14477 0.0
C855 C 0.65481 0.43528 0.16453 0.0
C856 C 0.67752 0.434 0.17028 0.0
C857 C 0.61213 0.43814 0.1549 0.0
C858 C 0.62307 0.45453 0.17117 0.0
C859 C 0.64433 0.4531 0.17511 0.0
C860 C 0.61254 0.47313 0.18463 0.0
C861 C 0.58948 0.43927 0.14773 0.0
C862 C 0.61673 0.49208 0.16782 0.0
C863 C 0.60591 0.50941 0.17906 0.0
C864 C 0.59098 0.50807 0.20759 0.0
C865 C 0.58693 0.48916 0.22462 0.0
C866 C 0.59778 0.47185 0.2135 0.0
H867 H 0.58456 0.42811 0.12574 0.0
H868 H 0.58125 0.43567 0.17454 0.0
H869 H 0.5849 0.45477 0.13835 0.0
H870 H 0.62804 0.49336 0.14546 0.0
H871 H 0.6091 0.52388 0.16546 0.0
H872 H 0.39579 0.89085 0.40335 0.0
H873 H 0.36164 0.884 0.42658 0.0
H874 H 0.33714 0.92792 0.34725 0.0
H875 H 0.37153 0.93444 0.32268 0.0
H876 H 0.33093 0.90544 0.45814 0.0
H877 H 0.30839 0.87609 0.3152 0.0
H878 H 0.33437 0.88249 0.32671 0.0
H879 H 0.31622 0.9023 0.31674 0.0
C880 C 0.38322 0.89929 0.39103 0.0
C881 C 0.38635 0.91293 0.36064 0.0
C882 C 0.36367 0.89539 0.40451 0.0
C883 C 0.34679 0.90509 0.38808 0.0
C884 C 0.34993 0.9199 0.35969 0.0
H885 H 0.22723 0.87044 0.48383 0.0
H886 H 0.25638 0.89137 0.46426 0.0
C887 C 0.36959 0.92373 0.3459 0.0
C888 C 0.32609 0.89819 0.39895 0.0
H889 H 0.28495 0.8721 0.36486 0.0
C890 C 0.32071 0.89839 0.43772 0.0
C891 C 0.31293 0.88877 0.37225 0.0
C892 C 0.31825 0.88719 0.33044 0.0
C893 C 0.303 0.88865 0.45078 0.0
C894 C 0.29003 0.87895 0.42413 0.0
C895 C 0.29494 0.87956 0.38519 0.0
C896 C 0.27221 0.86663 0.43614 0.0
C897 C 0.29898 0.88787 0.49316 0.0
C898 C 0.27114 0.84595 0.42595 0.0
C899 C 0.25446 0.83412 0.43677 0.0
C900 C 0.23867 0.84268 0.45835 0.0
C901 C 0.23958 0.8634 0.46824 0.0
C902 C 0.25618 0.87533 0.45703 0.0
H903 H 0.31276 0.89179 0.51004 0.0
H904 H 0.28689 0.89901 0.50043 0.0
H905 H 0.2937 0.87249 0.50192 0.0
H906 H 0.2833 0.83893 0.40971 0.0
H907 H 0.25391 0.81821 0.4286 0.0
H908 H 0.81222 0.62212 0.57328 0.0
H909 H 0.81746 0.58754 0.59818 0.0
H910 H 0.85934 0.61119 0.68208 0.0
H911 H 0.85381 0.64548 0.65834 0.0
H912 H 0.85262 0.56796 0.59542 0.0
H913 H 0.82922 0.57098 0.74603 0.0
H914 H 0.82188 0.59039 0.71216 0.0
H915 H 0.84617 0.59169 0.73613 0.0
C916 C 0.82206 0.61997 0.59777 0.0
C917 C 0.83268 0.63653 0.6137 0.0
C918 C 0.82508 0.60022 0.6119 0.0
C919 C 0.83861 0.59676 0.64234 0.0
C920 C 0.84842 0.61344 0.6593 0.0
H921 H 0.9264 0.50455 0.67753 0.0
H922 H 0.90491 0.53323 0.65793 0.0
C923 C 0.84539 0.63309 0.64535 0.0
C924 C 0.84477 0.57579 0.6533 0.0
H925 H 0.85627 0.5466 0.73101 0.0
C926 C 0.85298 0.56309 0.62499 0.0
C927 C 0.84496 0.56919 0.69174 0.0
C928 C 0.83485 0.58123 0.72311 0.0
C929 C 0.86267 0.54471 0.6344 0.0
C930 C 0.86471 0.53918 0.67325 0.0
C931 C 0.85516 0.55108 0.70129 0.0
C932 C 0.87766 0.52182 0.68546 0.0
C933 C 0.87093 0.53162 0.6026 0.0
C934 C 0.86973 0.50629 0.70866 0.0
C935 C 0.88213 0.49011 0.72038 0.0
C936 C 0.90267 0.48931 0.70931 0.0
C937 C 0.9106 0.5049 0.68634 0.0
C938 C 0.89829 0.52114 0.6749 0.0
H939 H 0.86216 0.53391 0.57581 0.0
H940 H 0.88696 0.53599 0.59682 0.0
H941 H 0.8705 0.51519 0.61019 0.0
H942 H 0.85389 0.50654 0.71724 0.0
H943 H 0.87556 0.47798 0.7373 0.0
H944 H 0.7597 0.82939 0.03087 0.0
H945 H 0.78868 0.85077 0.05001 0.0
H946 H 0.7495 0.88459 0.12576 0.0
H947 H 0.72052 0.86328 0.10628 0.0
H948 H 0.79335 0.895 0.04742 0.0
H949 H 0.79618 0.86317 0.19463 0.0
H950 H 0.78242 0.85085 0.15649 0.0
H951 H 0.77204 0.87308 0.17912 0.0
C952 C 0.75729 0.84167 0.05097 0.0
C953 C 0.73794 0.84503 0.06668 0.0
C954 C 0.77379 0.85377 0.06205 0.0
C955 C 0.77121 0.8692 0.08937 0.0
C956 C 0.75183 0.87265 0.10488 0.0
H957 H 0.86971 0.93322 0.20773 0.0
H958 H 0.83535 0.92662 0.18335 0.0
C959 C 0.73534 0.86056 0.09378 0.0
C960 C 0.78901 0.88113 0.1025 0.0
H961 H 0.82051 0.88796 0.17885 0.0
C962 C 0.79922 0.89363 0.07624 0.0
C963 C 0.79649 0.87943 0.1402 0.0
C964 C 0.78636 0.86582 0.16929 0.0
C965 C 0.81703 0.90414 0.08649 0.0
C966 C 0.825 0.90174 0.12373 0.0
C967 C 0.81432 0.88988 0.15038 0.0
C968 C 0.84552 0.90924 0.13447 0.0
C969 C 0.82723 0.91754 0.05723 0.0
C970 C 0.86262 0.9021 0.11461 0.0
C971 C 0.88217 0.90588 0.12839 0.0
C972 C 0.88507 0.91676 0.16252 0.0
C973 C 0.86801 0.92496 0.18122 0.0
C974 C 0.84836 0.92111 0.16742 0.0
H975 H 0.81603 0.92352 0.03625 0.0
H976 H 0.83516 0.9306 0.07085 0.0
H977 H 0.83863 0.90842 0.04128 0.0
H978 H 0.86084 0.89254 0.08965 0.0
H979 H 0.895 0.89934 0.1133 0.0
H980 H 0.31462 0.62062 0.95117 0.0
H981 H 0.32209 0.58616 0.92771 0.0
H982 H 0.36327 0.61135 0.84426 0.0
H983 H 0.35545 0.64553 0.86641 0.0
H984 H 0.34288 0.57937 0.81556 0.0
H985 H 0.37547 0.55979 0.95752 0.0
H986 H 0.34897 0.56652 0.95742 0.0
H987 H 0.36778 0.58535 0.94533 0.0
C988 C 0.32489 0.6188 0.92725 0.0
C989 C 0.33468 0.63579 0.91106 0.0
C990 C 0.3293 0.5991 0.91412 0.0
C991 C 0.34367 0.59614 0.88491 0.0
C992 C 0.35225 0.6132 0.86701 0.0
H993 H 0.43197 0.50377 0.84375 0.0
H994 H 0.41131 0.53322 0.86271 0.0
C995 C 0.34779 0.63279 0.87984 0.0
C996 C 0.35122 0.57555 0.87451 0.0
H997 H 0.37905 0.53558 0.90892 0.0
C998 C 0.35058 0.56964 0.83602 0.0
C999 C 0.36153 0.56304 0.9012 0.0
C1000 C 0.36369 0.56899 0.94262 0.0
C1001 C 0.36059 0.552 0.8232 0.0
C1002 C 0.37104 0.5396 0.84986 0.0
C1003 C 0.37101 0.54509 0.88856 0.0
C1004 C 0.38334 0.52169 0.83799 0.0
C1005 C 0.36078 0.54747 0.78099 0.0
C1006 C 0.3745 0.50536 0.81811 0.0
C1007 C 0.38639 0.48872 0.80684 0.0
C1008 C 0.40725 0.48805 0.81567 0.0
C1009 C 0.41596 0.50412 0.83637 0.0
C1010 C 0.40416 0.52085 0.84723 0.0
H1011 H 0.35653 0.56104 0.76375 0.0
H1012 H 0.37604 0.54216 0.77165 0.0
H1013 H 0.34959 0.53525 0.77477 0.0
H1014 H 0.35837 0.50535 0.81167 0.0
H1015 H 0.37923 0.47617 0.79196 0.0
H1016 H 0.62152 0.06719 0.69627 0.0
H1017 H 0.65557 0.07539 0.67205 0.0
H1018 H 0.62962 0.12109 0.59807 0.0
H1019 H 0.59572 0.11269 0.62113 0.0
H1020 H 0.66075 0.10045 0.56369 0.0
H1021 H 0.68326 0.12745 0.70815 0.0
H1022 H 0.67559 0.10122 0.70537 0.0
H1023 H 0.65733 0.12104 0.69626 0.0
C1024 C 0.62304 0.07868 0.67428 0.0
C1025 C 0.60593 0.08945 0.66097 0.0
C1026 C 0.64252 0.08346 0.6607 0.0
C1027 C 0.64514 0.09918 0.63393 0.0
C1028 C 0.62796 0.10899 0.61889 0.0
H1029 H 0.74151 0.18419 0.59661 0.0
H1030 H 0.71087 0.16503 0.61442 0.0
C1031 C 0.60856 0.10418 0.63222 0.0
C1032 C 0.66567 0.10664 0.62328 0.0
H1033 H 0.70721 0.13143 0.65904 0.0
C1034 C 0.67104 0.10703 0.58453 0.0
C1035 C 0.67888 0.11551 0.65054 0.0
C1036 C 0.67348 0.1165 0.69237 0.0
C1037 C 0.68904 0.1165 0.57215 0.0
C1038 C 0.70221 0.12541 0.59942 0.0
C1039 C 0.69709 0.12453 0.63825 0.0
C1040 C 0.72074 0.13682 0.58823 0.0
C1041 C 0.69328 0.11772 0.5299 0.0
C1042 C 0.73652 0.12727 0.56798 0.0
C1043 C 0.75387 0.13827 0.55755 0.0
C1044 C 0.75576 0.15894 0.56741 0.0
C1045 C 0.74022 0.16833 0.58843 0.0
C1046 C 0.72281 0.15739 0.5986 0.0
H1047 H 0.67942 0.1146 0.51265 0.0
H1048 H 0.69924 0.13298 0.52198 0.0
H1049 H 0.70493 0.10618 0.52225 0.0
H1050 H 0.73552 0.11127 0.56066 0.0
H1051 H 0.766 0.13055 0.54248 0.0
H1052 H 0.15935 0.35057 0.35539 0.0
H1053 H 0.15109 0.38395 0.32864 0.0
H1054 H 0.16154 0.41161 0.43864 0.0
H1055 H 0.17086 0.37836 0.46489 0.0
H1056 H 0.11895 0.40316 0.35 0.0
H1057 H 0.18404 0.45519 0.37195 0.0
H1058 H 0.18647 0.42789 0.37644 0.0
H1059 H 0.17693 0.44289 0.4156 0.0
C1060 C 0.16064 0.36393 0.37343 0.0
C1061 C 0.16572 0.36196 0.41215 0.0
C1062 C 0.15584 0.38297 0.35819 0.0
C1063 C 0.15566 0.40036 0.38155 0.0
C1064 C 0.162 0.39858 0.41974 0.0
H1065 H 0.0686 0.49795 0.35632 0.0
H1066 H 0.08806 0.46761 0.37442 0.0
C1067 C 0.16727 0.37953 0.4348 0.0
C1068 C 0.14593 0.4194 0.36759 0.0
H1069 H 0.15126 0.47111 0.36267 0.0
C1070 C 0.12619 0.41797 0.3523 0.0
C1071 C 0.15533 0.43875 0.37031 0.0
C1072 C 0.17695 0.44126 0.3841 0.0
C1073 C 0.11545 0.43529 0.34047 0.0
C1074 C 0.12436 0.45474 0.34531 0.0
C1075 C 0.14431 0.45621 0.35956 0.0
C1076 C 0.11309 0.47367 0.33586 0.0
C1077 C 0.09472 0.4325 0.32256 0.0
C1078 C 0.12112 0.48764 0.30955 0.0
C1079 C 0.11016 0.50514 0.29972 0.0
C1080 C 0.09087 0.50884 0.31566 0.0
C1081 C 0.08323 0.49522 0.34304 0.0
C1082 C 0.09427 0.47784 0.35315 0.0
H1083 H 0.09298 0.41701 0.31014 0.0
H1084 H 0.08283 0.43435 0.34477 0.0
H1085 H 0.09195 0.44391 0.29974 0.0
H1086 H 0.13578 0.48492 0.29637 0.0
H1087 H 0.11691 0.51587 0.28003 0.0
H1088 H 0.60012 0.58948 0.41779 0.0
H1089 H 0.63343 0.59917 0.44319 0.0
H1090 H 0.66075 0.58722 0.33357 0.0
H1091 H 0.62757 0.57656 0.30854 0.0
H1092 H 0.68696 0.57864 0.39152 0.0
H1093 H 0.6527 0.65509 0.41223 0.0
H1094 H 0.64008 0.63559 0.43914 0.0
H1095 H 0.63956 0.63482 0.3878 0.0
C1096 C 0.61336 0.58833 0.39949 0.0
C1097 C 0.6113 0.58252 0.36113 0.0
C1098 C 0.63233 0.59404 0.4139 0.0
C1099 C 0.6494 0.59463 0.38987 0.0
C1100 C 0.64772 0.58708 0.3525 0.0
H1101 H 0.74877 0.67968 0.41683 0.0
H1102 H 0.71885 0.66036 0.39633 0.0
C1103 C 0.62878 0.58093 0.33826 0.0
C1104 C 0.66832 0.60499 0.4024 0.0
H1105 H 0.68627 0.6506 0.4349 0.0
C1106 C 0.68686 0.59437 0.40103 0.0
C1107 C 0.66821 0.62569 0.41388 0.0
C1108 C 0.64912 0.63854 0.413 0.0
C1109 C 0.70528 0.60384 0.41125 0.0
C1110 C 0.705 0.62429 0.4242 0.0
C1111 C 0.68646 0.63488 0.42534 0.0
C1112 C 0.72374 0.63537 0.43569 0.0
C1113 C 0.72485 0.59201 0.40694 0.0
C1114 C 0.73647 0.62779 0.46457 0.0
C1115 C 0.75376 0.63868 0.47583 0.0
C1116 C 0.75827 0.65769 0.45929 0.0
C1117 C 0.74553 0.66519 0.43033 0.0
C1118 C 0.72844 0.65418 0.41868 0.0
H1119 H 0.72317 0.57931 0.3862 0.0
H1120 H 0.73748 0.60201 0.39733 0.0
H1121 H 0.72908 0.58529 0.43488 0.0
H1122 H 0.73301 0.6135 0.47859 0.0
H1123 H 0.7637 0.63203 0.49701 0.0
H1124 H 0.0668 0.99342 0.68001 0.0
H1125 H 0.08733 0.96392 0.66095 0.0
H1126 H 0.14009 0.9909 0.71429 0.0
H1127 H 0.11937 0.02017 0.73399 0.0
H1128 H 0.12026 0.96205 0.61552 0.0
H1129 H 0.1406 0.93457 0.76062 0.0
H1130 H 0.12129 0.95365 0.75261 0.0
H1131 H 0.1478 0.96044 0.75077 0.0
C1132 C 0.08274 0.99287 0.68787 0.0
C1133 C 0.09144 0.00871 0.70917 0.0
C1134 C 0.09447 0.97611 0.67696 0.0
C1135 C 0.11518 0.97503 0.68678 0.0
C1136 C 0.12403 0.99111 0.70736 0.0
H1137 H 0.18337 0.87599 0.57321 0.0
H1138 H 0.17643 0.91035 0.59768 0.0
C1139 C 0.11221 0.00778 0.71864 0.0
C1140 C 0.1274 0.95713 0.67473 0.0
H1141 H 0.1542 0.91637 0.70866 0.0
C1142 C 0.12784 0.95213 0.63582 0.0
C1143 C 0.13725 0.94423 0.70134 0.0
C1144 C 0.13662 0.94833 0.7437 0.0
C1145 C 0.13709 0.93414 0.62288 0.0
C1146 C 0.14672 0.92108 0.64953 0.0
C1147 C 0.14701 0.92652 0.68827 0.0
C1148 C 0.15383 0.90043 0.63864 0.0
C1149 C 0.13539 0.92873 0.58112 0.0
C1150 C 0.14439 0.88343 0.65516 0.0
C1151 C 0.14853 0.86389 0.64173 0.0
C1152 C 0.16217 0.86091 0.61132 0.0
C1153 C 0.1727 0.87781 0.59649 0.0
C1154 C 0.16861 0.89745 0.61021 0.0
H1155 H 0.12413 0.93845 0.56599 0.0
H1156 H 0.15041 0.93089 0.56721 0.0
H1157 H 0.13085 0.91254 0.57754 0.0
H1158 H 0.13302 0.88533 0.67727 0.0
H1159 H 0.14029 0.85121 0.65412 0.0
H1160 H 0.75497 0.3157 0.93152 0.0
H1161 H 0.78451 0.33629 0.91288 0.0
H1162 H 0.75741 0.38899 0.96621 0.0
H1163 H 0.72812 0.36821 0.98551 0.0
H1164 H 0.78647 0.36924 0.86761 0.0
H1165 H 0.81356 0.38962 0.01287 0.0
H1166 H 0.79454 0.37027 1.00472 0.0
H1167 H 0.78772 0.3968 1.00295 0.0
C1168 C 0.75551 0.33163 0.93948 0.0
C1169 C 0.73963 0.34031 0.96066 0.0
C1170 C 0.77229 0.34339 0.92882 0.0
C1171 C 0.77335 0.36411 0.93876 0.0
C1172 C 0.75722 0.37292 0.95922 0.0
H1173 H 0.87134 0.43362 0.82541 0.0
H1174 H 0.8372 0.42614 0.85014 0.0
C1175 C 0.74054 0.36108 0.97026 0.0
C1176 C 0.79122 0.37639 0.92686 0.0
H1177 H 0.83161 0.40362 0.96103 0.0
C1178 C 0.79628 0.3769 0.88798 0.0
C1179 C 0.80398 0.38634 0.95355 0.0
C1180 C 0.79983 0.38564 0.99588 0.0
C1181 C 0.81416 0.38636 0.87514 0.0
C1182 C 0.82705 0.39615 0.90186 0.0
C1183 C 0.82158 0.39632 0.94058 0.0
C1184 C 0.84754 0.40365 0.89101 0.0
C1185 C 0.81965 0.38474 0.83342 0.0
C1186 C 0.86471 0.39448 0.90746 0.0
C1187 C 0.88414 0.39894 0.8939 0.0
C1188 C 0.88683 0.41262 0.86342 0.0
C1189 C 0.86975 0.42292 0.84874 0.0
C1190 C 0.85023 0.41852 0.86259 0.0
H1191 H 0.81015 0.37329 0.81828 0.0
H1192 H 0.81723 0.39972 0.81944 0.0
H1193 H 0.8359 0.38048 0.82991 0.0
H1194 H 0.86304 0.38305 0.92957 0.0
H1195 H 0.89696 0.39087 0.90617 0.0
H1196 H 0.38637 0.97443 0.1669 0.0
H1197 H 0.36744 0.00515 0.14787 0.0
H1198 H 0.4016 0.04045 0.22968 0.0
H1199 H 0.421 0.00994 0.24744 0.0
H1200 H 0.34308 0.03242 0.18984 0.0
H1201 H 0.41124 0.07052 0.12953 0.0
H1202 H 0.41095 0.0438 0.14175 0.0
H1203 H 0.41452 0.06275 0.17824 0.0
C1204 C 0.38968 0.9888 0.18078 0.0
C1205 C 0.40478 0.98988 0.20906 0.0
C1206 C 0.37886 0.00624 0.17009 0.0
C1207 C 0.38321 0.02507 0.18722 0.0
C1208 C 0.39813 0.02609 0.21589 0.0
H1209 H 0.34727 0.14929 0.16589 0.0
H1210 H 0.35648 0.11557 0.18951 0.0
C1211 C 0.40899 0.00867 0.22642 0.0
C1212 C 0.37271 0.0438 0.17424 0.0
H1213 H 0.38161 0.09094 0.1368 0.0
C1214 C 0.35144 0.04519 0.178 0.0
C1215 C 0.38366 0.06031 0.15838 0.0
C1216 C 0.40632 0.05925 0.15134 0.0
C1217 C 0.34095 0.06303 0.16754 0.0
C1218 C 0.35205 0.07971 0.15296 0.0
C1219 C 0.37321 0.07813 0.14841 0.0
C1220 C 0.34237 0.09931 0.14284 0.0
C1221 C 0.31822 0.06422 0.17299 0.0
C1222 C 0.33068 0.10122 0.10948 0.0
C1223 C 0.32533 0.12057 0.09583 0.0
C1224 C 0.33183 0.13817 0.11523 0.0
C1225 C 0.34218 0.13603 0.15014 0.0
C1226 C 0.34744 0.11678 0.16373 0.0
H1227 H 0.31218 0.0509 0.18894 0.0
H1228 H 0.31414 0.07839 0.18855 0.0
H1229 H 0.31067 0.06481 0.14468 0.0
H1230 H 0.32683 0.08788 0.09278 0.0
H1231 H 0.31743 0.12175 0.06878 0.0
H1232 H 0.24755 0.31842 0.6108 0.0
H1233 H 0.27784 0.3372 0.63112 0.0
H1234 H 0.26447 0.38421 0.54868 0.0
H1235 H 0.23341 0.36625 0.53051 0.0
H1236 H 0.31049 0.34608 0.59238 0.0
H1237 H 0.27549 0.41843 0.64036 0.0
H1238 H 0.26058 0.39608 0.62956 0.0
H1239 H 0.2693 0.41251 0.59179 0.0
C1240 C 0.25103 0.33284 0.59726 0.0
C1241 C 0.23842 0.34053 0.56827 0.0
C1242 C 0.26834 0.34354 0.60879 0.0
C1243 C 0.27339 0.36222 0.59165 0.0
C1244 C 0.26075 0.37002 0.56281 0.0
H1245 H 0.39811 0.40539 0.6064 0.0
H1246 H 0.3645 0.396 0.58204 0.0
C1247 C 0.24325 0.35945 0.55169 0.0
C1248 C 0.29242 0.37289 0.6028 0.0
H1249 H 0.3117 0.4183 0.63417 0.0
C1250 C 0.31071 0.36185 0.60163 0.0
C1251 C 0.2927 0.39342 0.61534 0.0
C1252 C 0.27344 0.40573 0.61975 0.0
C1253 C 0.32923 0.37067 0.61261 0.0
C1254 C 0.32966 0.39145 0.62359 0.0
C1255 C 0.31138 0.40251 0.62504 0.0
C1256 C 0.3489 0.40147 0.63544 0.0
C1257 C 0.348 0.35737 0.6135 0.0
C1258 C 0.35093 0.4094 0.67246 0.0
C1259 C 0.37005 0.41539 0.68609 0.0
C1260 C 0.38737 0.41323 0.66296 0.0
C1261 C 0.385 0.40696 0.62492 0.0
C1262 C 0.36586 0.40143 0.6111 0.0
H1263 H 0.34402 0.34092 0.61488 0.0
H1264 H 0.35694 0.35985 0.58706 0.0
H1265 H 0.3578 0.36107 0.63837 0.0
H1266 H 0.33799 0.40976 0.69161 0.0
H1267 H 0.37148 0.42014 0.71556 0.0
H1268 H 0.84436 0.1456 0.36438 0.0
H1269 H 0.85303 0.11152 0.34184 0.0
H1270 H 0.83017 0.08573 0.44662 0.0
H1271 H 0.82088 0.11989 0.46893 0.0
H1272 H 0.88164 0.09024 0.38031 0.0
H1273 H 0.81115 0.04401 0.36786 0.0
H1274 H 0.81082 0.07153 0.36965 0.0
H1275 H 0.81405 0.05698 0.41267 0.0
C1276 C 0.84057 0.13261 0.3821 0.0
C1277 C 0.83209 0.13537 0.4185 0.0
C1278 C 0.84555 0.11314 0.36921 0.0
C1279 C 0.8423 0.09607 0.39255 0.0
C1280 C 0.83252 0.09863 0.42786 0.0
H1281 H 0.92206 0.99038 0.37673 0.0
H1282 H 0.90157 0.01891 0.40085 0.0
C1283 C 0.82725 0.11816 0.44062 0.0
C1284 C 0.85192 0.07639 0.38222 0.0
H1285 H 0.84267 0.02608 0.36406 0.0
C1286 C 0.87308 0.07623 0.37665 0.0
C1287 C 0.84073 0.05815 0.37747 0.0
C1288 C 0.8179 0.05761 0.38188 0.0
C1289 C 0.88339 0.05842 0.36623 0.0
C1290 C 0.87232 0.04006 0.3622 0.0
C1291 C 0.85113 0.04014 0.36767 0.0
C1292 C 0.88257 0.02096 0.35051 0.0
C1293 C 0.90601 0.05957 0.35865 0.0
C1294 C 0.8781 0.01219 0.315 0.0
C1295 C 0.88967 0.99585 0.30143 0.0
C1296 C 0.90577 0.98794 0.32332 0.0
C1297 C 0.90969 0.99623 0.35949 0.0
C1298 C 0.89805 0.01248 0.37316 0.0
H1299 H 0.91118 0.0755 0.3541 0.0
H1300 H 0.91437 0.05335 0.38359 0.0
H1301 H 0.91019 0.05041 0.3332 0.0
H1302 H 0.86632 0.01861 0.29698 0.0
H1303 H 0.88672 0.99014 0.27302 0.0
H1304 H 0.09851 0.58937 0.10452 0.0
H1305 H 0.13174 0.59759 0.07728 0.0
H1306 H 0.16001 0.58612 0.18641 0.0
H1307 H 0.12689 0.57684 0.21312 0.0
H1308 H 0.15169 0.62928 0.09837 0.0
H1309 H 0.20268 0.56316 0.11845 0.0
H1310 H 0.1754 0.56119 0.12361 0.0
H1311 H 0.19085 0.57037 0.16248 0.0
C1312 C 0.11195 0.58788 0.12226 0.0
C1313 C 0.1102 0.58249 0.16087 0.0
C1314 C 0.13092 0.59266 0.10674 0.0
C1315 C 0.14846 0.59249 0.1297 0.0
C1316 C 0.14686 0.58593 0.16778 0.0
H1317 H 0.24722 0.67798 0.1038 0.0
H1318 H 0.21657 0.65902 0.12162 0.0
C1319 C 0.12789 0.58069 0.18312 0.0
C1320 C 0.16755 0.60195 0.11539 0.0
H1321 H 0.21908 0.59571 0.10913 0.0
C1322 C 0.16637 0.62176 0.10026 0.0
C1323 C 0.18674 0.59219 0.11752 0.0
C1324 C 0.18897 0.57048 0.13102 0.0
C1325 C 0.18377 0.63222 0.08807 0.0
C1326 C 0.20309 0.62296 0.09236 0.0
C1327 C 0.2043 0.60294 0.10642 0.0
C1328 C 0.22215 0.63397 0.08279 0.0
C1329 C 0.18121 0.65305 0.07036 0.0
C1330 C 0.23595 0.62578 0.05637 0.0
C1331 C 0.25365 0.63645 0.04669 0.0
C1332 C 0.25772 0.65562 0.06292 0.0
C1333 C 0.24422 0.66344 0.0903 0.0
C1334 C 0.22666 0.65269 0.10026 0.0
H1335 H 0.16571 0.65502 0.05813 0.0
H1336 H 0.18329 0.66487 0.09265 0.0
H1337 H 0.19256 0.65572 0.04744 0.0
H1338 H 0.23297 0.61118 0.04305 0.0
H1339 H 0.26424 0.62954 0.02698 0.0
H1340 H 0.5773 0.98905 0.76962 0.0
H1341 H 0.5968 0.95861 0.78737 0.0
H1342 H 0.62915 0.99345 0.87236 0.0
H1343 H 0.61019 0.02412 0.85335 0.0
H1344 H 0.65442 0.96615 0.83229 0.0
H1345 H 0.58457 0.9284 0.88642 0.0
H1346 H 0.58266 0.93625 0.83751 0.0
H1347 H 0.58533 0.95512 0.87439 0.0
C1348 C 0.58904 0.99029 0.79119 0.0
C1349 C 0.59265 0.00893 0.80957 0.0
C1350 C 0.59993 0.97288 0.80174 0.0
C1351 C 0.61428 0.97375 0.83146 0.0
C1352 C 0.61819 0.99247 0.84934 0.0
H1353 H 0.67775 0.878 0.95705 0.0
H1354 H 0.66866 0.91159 0.93115 0.0
C1355 C 0.60736 0.0099 0.83862 0.0
C1356 C 0.62437 0.95493 0.8452 0.0
H1357 H 0.61433 0.90802 0.88274 0.0
C1358 C 0.64571 0.95345 0.84349 0.0
C1359 C 0.61295 0.93851 0.86027 0.0
C1360 C 0.59014 0.93966 0.86517 0.0
C1361 C 0.65585 0.93564 0.85531 0.0
C1362 C 0.64433 0.91908 0.86927 0.0
C1363 C 0.62308 0.92073 0.87164 0.0
C1364 C 0.65368 0.89955 0.88099 0.0
C1365 C 0.6787 0.93439 0.85204 0.0
C1366 C 0.64877 0.8818 0.86079 0.0
C1367 C 0.65383 0.86273 0.87549 0.0
C1368 C 0.66383 0.86102 0.91082 0.0
C1369 C 0.67012 0.87886 0.92969 0.0
C1370 C 0.66495 0.89804 0.91493 0.0
H1371 H 0.68512 0.94735 0.83555 0.0
H1372 H 0.68551 0.93455 0.88103 0.0
H1373 H 0.68323 0.91989 0.8381 0.0
H1374 H 0.64006 0.88268 0.83457 0.0
H1375 H 0.64891 0.84927 0.86011 0.0
H1376 H 0.35676 0.15586 0.94399 0.0
H1377 H 0.3814 0.1383 0.90329 0.0
H1378 H 0.42938 0.15285 0.98276 0.0
H1379 H 0.40491 0.17057 0.02347 0.0
H1380 H 0.43925 0.16184 0.90804 0.0
H1381 H 0.40927 0.08302 0.91945 0.0
H1382 H 0.39057 0.10155 0.90543 0.0
H1383 H 0.40197 0.10307 0.95197 0.0
C1384 C 0.37254 0.15526 0.95293 0.0
C1385 C 0.37885 0.16467 0.98702 0.0
C1386 C 0.38658 0.14507 0.92976 0.0
C1387 C 0.40718 0.14397 0.94028 0.0
C1388 C 0.41353 0.15339 0.97421 0.0
H1389 H 0.5058 0.07521 0.83225 0.0
H1390 H 0.47919 0.08676 0.87646 0.0
C1391 C 0.39952 0.16356 0.99742 0.0
C1392 C 0.42231 0.13399 0.91495 0.0
H1393 H 0.43449 0.08889 0.87169 0.0
C1394 C 0.43825 0.14586 0.90027 0.0
C1395 C 0.42115 0.11308 0.90518 0.0
C1396 C 0.40494 0.09935 0.92158 0.0
C1397 C 0.45276 0.13755 0.87537 0.0
C1398 C 0.45114 0.11686 0.8644 0.0
C1399 C 0.43554 0.1048 0.87983 0.0
C1400 C 0.46546 0.10778 0.83645 0.0
C1401 C 0.4698 0.15099 0.86111 0.0
C1402 C 0.46599 0.11515 0.79892 0.0
C1403 C 0.48108 0.10862 0.77372 0.0
C1404 C 0.49594 0.09447 0.78544 0.0
C1405 C 0.49459 0.0861 0.82232 0.0
C1406 C 0.47944 0.09271 0.84764 0.0
H1407 H 0.47176 0.16476 0.87919 0.0
H1408 H 0.48443 0.14252 0.86034 0.0
H1409 H 0.46624 0.1561 0.83167 0.0
H1410 H 0.45512 0.12651 0.78952 0.0
H1411 H 0.48154 0.11525 0.74543 0.0
H1412 H 0.58047 0.6555 0.27176 0.0
H1413 H 0.59629 0.68029 0.22902 0.0
H1414 H 0.60524 0.63334 0.14472 0.0
H1415 H 0.58942 0.60834 0.18738 0.0
H1416 H 0.6398 0.65925 0.15609 0.0
H1417 H 0.56871 0.70333 0.13237 0.0
H1418 H 0.57538 0.69966 0.18161 0.0
H1419 H 0.56872 0.67805 0.15271 0.0
C1420 C 0.5857 0.65041 0.2441 0.0
C1421 C 0.58342 0.62994 0.2329 0.0
C1422 C 0.59475 0.66464 0.21967 0.0
C1423 C 0.60169 0.65874 0.18346 0.0
C1424 C 0.59991 0.63824 0.17248 0.0
H1425 H 0.62646 0.7392 0.99356 0.0
H1426 H 0.61517 0.71175 0.03544 0.0
C1427 C 0.59082 0.62399 0.19689 0.0
C1428 C 0.61054 0.67403 0.15689 0.0
H1429 H 0.59909 0.7174 0.10741 0.0
C1430 C 0.63092 0.67196 0.14537 0.0
C1431 C 0.59886 0.69047 0.14262 0.0
C1432 C 0.57665 0.693 0.15262 0.0
C1433 C 0.64 0.68607 0.12034 0.0
C1434 C 0.62844 0.70277 0.10677 0.0
C1435 C 0.608 0.70468 0.11801 0.0
C1436 C 0.63693 0.71826 0.08014 0.0
C1437 C 0.66177 0.68279 0.10807 0.0
C1438 C 0.65317 0.73094 0.09104 0.0
C1439 C 0.65976 0.74672 0.06699 0.0
C1440 C 0.65013 0.75017 0.03169 0.0
C1441 C 0.63427 0.73702 0.02049 0.0
C1442 C 0.62773 0.72131 0.04446 0.0
H1443 H 0.66688 0.66691 0.11352 0.0
H1444 H 0.66368 0.68622 0.07726 0.0
H1445 H 0.67182 0.69322 0.1244 0.0
H1446 H 0.66029 0.72911 0.11871 0.0
H1447 H 0.6719 0.75663 0.07665 0.0
H1448 H 0.0004 0.86854 0.25347 0.0
H1449 H 0.02751 0.8575 0.29598 0.0
H1450 H 0.02457 0.91501 0.35534 0.0
H1451 H 0.99658 0.92585 0.31365 0.0
H1452 H 0.06423 0.87 0.31042 0.0
H1453 H 0.01905 0.87693 0.44338 0.0
H1454 H 0.00778 0.87965 0.39677 0.0
H1455 H 0.02153 0.90052 0.41796 0.0
C1456 C 0.00551 0.87894 0.27542 0.0
C1457 C 0.99614 0.89804 0.28027 0.0
C1458 C 0.02109 0.87257 0.2998 0.0
C1459 C 0.02788 0.88519 0.32952 0.0
C1460 C 0.01922 0.9047 0.33342 0.0
H1461 H 0.13928 0.85146 0.45433 0.0
H1462 H 0.1148 0.86821 0.41206 0.0
C1463 C 0.00334 0.91098 0.3093 0.0
C1464 C 0.04383 0.87758 0.35632 0.0
H1465 H 0.05366 0.86786 0.45037 0.0
C1466 C 0.06192 0.86957 0.34104 0.0
C1467 C 0.04074 0.87669 0.3963 0.0
C1468 C 0.02115 0.88371 0.4146 0.0
C1469 C 0.0768 0.86048 0.36434 0.0
C1470 C 0.07394 0.86005 0.4044 0.0
C1471 C 0.05597 0.8683 0.41974 0.0
C1472 C 0.08892 0.85036 0.43081 0.0
C1473 C 0.09499 0.85068 0.34547 0.0
C1474 C 0.0825 0.83529 0.45667 0.0
C1475 C 0.0964 0.82605 0.48153 0.0
C1476 C 0.11709 0.83152 0.48085 0.0
C1477 C 0.1235 0.8467 0.45517 0.0
C1478 C 0.10951 0.8562 0.43079 0.0
H1479 H 0.09186 0.8469 0.31513 0.0
H1480 H 0.10799 0.86148 0.34605 0.0
H1481 H 0.09959 0.83651 0.36048 0.0
H1482 H 0.06671 0.83051 0.45741 0.0
H1483 H 0.09098 0.81441 0.50093 0.0
H1484 H 0.82046 0.24777 0.56546 0.0
H1485 H 0.83069 0.27629 0.60646 0.0
H1486 H 0.88733 0.28116 0.5449 0.0
H1487 H 0.87692 0.25349 0.50324 0.0
H1488 H 0.86088 0.27891 0.65471 0.0
H1489 H 0.87212 0.3396 0.54796 0.0
H1490 H 0.85953 0.31596 0.53644 0.0
H1491 H 0.88695 0.31765 0.53573 0.0
C1492 C 0.83491 0.25521 0.56021 0.0
C1493 C 0.84778 0.24841 0.53077 0.0
C1494 C 0.84079 0.27147 0.58376 0.0
C1495 C 0.85966 0.28121 0.57844 0.0
C1496 C 0.87243 0.27445 0.54895 0.0
H1497 H 0.93196 0.34192 0.75056 0.0
H1498 H 0.91491 0.31791 0.70793 0.0
C1499 C 0.86648 0.25844 0.52519 0.0
C1500 C 0.86675 0.29743 0.60515 0.0
H1501 H 0.88949 0.34425 0.60801 0.0
C1502 C 0.86687 0.29332 0.64449 0.0
C1503 C 0.87426 0.31645 0.59213 0.0
C1504 C 0.87299 0.32275 0.55079 0.0
C1505 C 0.87498 0.30727 0.67088 0.0
C1506 C 0.88391 0.3256 0.65753 0.0
C1507 C 0.88303 0.33007 0.61835 0.0
C1508 C 0.89438 0.34025 0.68352 0.0
C1509 C 0.87363 0.30224 0.71282 0.0
C1510 C 0.88924 0.36105 0.683 0.0
C1511 C 0.89934 0.37491 0.70677 0.0
C1512 C 0.9147 0.36825 0.73183 0.0
C1513 C 0.91997 0.34748 0.73209 0.0
C1514 C 0.9101 0.33369 0.70787 0.0
H1515 H 0.86063 0.29188 0.71881 0.0
H1516 H 0.88776 0.2943 0.7218 0.0
H1517 H 0.87183 0.3162 0.73039 0.0
H1518 H 0.8773 0.36657 0.66434 0.0
H1519 H 0.89492 0.39081 0.70589 0.0
H1520 H 0.59111 0.82726 1.00483 0.0
H1521 H 0.56646 0.84385 0.0468 0.0
H1522 H 0.61449 0.85837 0.12617 0.0
H1523 H 0.63932 0.84194 0.0842 0.0
H1524 H 0.55691 0.83395 0.12136 0.0
H1525 H 0.58572 0.91332 0.11242 0.0
H1526 H 0.59327 0.8937 0.07918 0.0
H1527 H 0.60464 0.89487 0.12578 0.0
C1528 C 0.59649 0.83403 0.03113 0.0
C1529 C 0.61724 0.83326 0.04108 0.0
C1530 C 0.58235 0.84354 0.05509 0.0
C1531 C 0.58865 0.85263 0.08937 0.0
C1532 C 0.60933 0.85185 0.09948 0.0
H1533 H 0.51124 0.88018 0.28275 0.0
H1534 H 0.53819 0.8684 0.24016 0.0
C1535 C 0.62349 0.84231 0.07555 0.0
C1536 C 0.57341 0.86211 0.11524 0.0
H1537 H 0.56026 0.90676 0.15916 0.0
C1538 C 0.55762 0.84988 0.12953 0.0
C1539 C 0.57421 0.88296 0.12556 0.0
C1540 C 0.59025 0.89706 0.1097 0.0
C1541 C 0.54283 0.85782 0.15433 0.0
C1542 C 0.544 0.8785 0.16564 0.0
C1543 C 0.55954 0.89086 0.1508 0.0
C1544 C 0.52906 0.88742 0.19273 0.0
C1545 C 0.5259 0.84405 0.16787 0.0
C1546 C 0.51555 0.90275 0.18083 0.0
C1547 C 0.50009 0.9096 0.20524 0.0
C1548 C 0.49793 0.90124 0.242 0.0
C1549 C 0.51225 0.88674 0.25447 0.0
C1550 C 0.52766 0.87993 0.23012 0.0
H1551 H 0.52434 0.83031 0.14958 0.0
H1552 H 0.52926 0.83889 0.19736 0.0
H1553 H 0.51111 0.85226 0.16824 0.0
H1554 H 0.51646 0.90883 0.15215 0.0
H1555 H 0.48933 0.92079 0.19472 0.0
H1556 H 0.40829 0.38864 0.83399 0.0
H1557 H 0.39229 0.36404 0.87712 0.0
H1558 H 0.405 0.31565 0.79746 0.0
H1559 H 0.42123 0.34005 0.75434 0.0
H1560 H 0.35906 0.33745 0.86535 0.0
H1561 H 0.43013 0.29494 0.89745 0.0
H1562 H 0.43021 0.31966 0.87486 0.0
H1563 H 0.42448 0.29722 0.8475 0.0
C1564 C 0.40773 0.37276 0.82563 0.0
C1565 C 0.41619 0.36631 0.79078 0.0
C1566 C 0.39851 0.35873 0.85029 0.0
C1567 C 0.39767 0.33797 0.84075 0.0
C1568 C 0.40579 0.33154 0.80572 0.0
H1569 H 0.32599 0.24155 0.94831 0.0
H1570 H 0.33824 0.26855 0.90578 0.0
C1571 C 0.415 0.34554 0.78103 0.0
C1572 C 0.38848 0.32303 0.86758 0.0
H1573 H 0.39938 0.28074 0.92065 0.0
C1574 C 0.36786 0.32506 0.87752 0.0
C1575 C 0.40005 0.30702 0.88379 0.0
C1576 C 0.42249 0.30461 0.87571 0.0
C1577 C 0.35843 0.31134 0.90284 0.0
C1578 C 0.36989 0.29503 0.91828 0.0
C1579 C 0.39056 0.29316 0.90863 0.0
C1580 C 0.361 0.27988 0.94512 0.0
C1581 C 0.33642 0.31465 0.91341 0.0
C1582 C 0.36966 0.27724 0.98139 0.0
C1583 C 0.36279 0.26179 1.00562 0.0
C1584 C 0.3471 0.24853 0.99411 0.0
C1585 C 0.33797 0.25159 0.95822 0.0
C1586 C 0.34493 0.26707 0.93389 0.0
H1587 H 0.33138 0.33046 0.90708 0.0
H1588 H 0.32674 0.30406 0.89663 0.0
H1589 H 0.33385 0.3115 0.94416 0.0
H1590 H 0.38208 0.28691 0.99068 0.0
H1591 H 0.3702 0.2599 0.03301 0.0
H1592 H 0.99473 0.12795 0.77174 0.0
H1593 H 0.9668 0.13805 0.73034 0.0
H1594 H 0.96991 0.08007 0.67264 0.0
H1595 H 0.99874 0.07014 0.71319 0.0
H1596 H 0.96682 0.10893 0.62244 0.0
H1597 H 0.90825 0.12407 0.73125 0.0
H1598 H 0.93057 0.13878 0.74131 0.0
H1599 H 0.93181 0.11132 0.74266 0.0
C1600 C 0.98933 0.11716 0.75065 0.0
C1601 C -0.00108 0.09814 0.74598 0.0
C1602 C 0.97318 0.12293 0.72709 0.0
C1603 C 0.96582 0.10968 0.69885 0.0
C1604 C 0.97518 0.09053 0.6944 0.0
H1605 H 0.85545 0.14658 0.57517 0.0
H1606 H 0.87955 0.12872 0.61668 0.0
C1607 C 0.99162 0.08484 0.71766 0.0
C1608 C 0.94934 0.1165 0.67247 0.0
H1609 H 0.90327 0.14066 0.67038 0.0
C1610 C 0.95278 0.11558 0.63296 0.0
C1611 C 0.93077 0.12483 0.6859 0.0
C1612 C 0.92505 0.12458 0.72759 0.0
C1613 C 0.93865 0.12352 0.60672 0.0
C1614 C 0.92089 0.1334 0.62035 0.0
C1615 C 0.91703 0.1335 0.65977 0.0
C1616 C 0.90628 0.14397 0.59441 0.0
C1617 C 0.9429 0.12098 0.56468 0.0
C1618 C 0.91313 0.15875 0.56835 0.0
C1619 C 0.89941 0.16869 0.54412 0.0
C1620 C 0.87845 0.16452 0.54617 0.0
C1621 C 0.87151 0.15016 0.57296 0.0
C1622 C 0.88529 0.13992 0.59668 0.0
H1623 H 0.9525 0.10734 0.55925 0.0
H1624 H 0.9286 0.11947 0.548 0.0
H1625 H 0.95138 0.13447 0.55415 0.0
H1626 H 0.9291 0.16276 0.5669 0.0
H1627 H 0.9052 0.17987 0.52411 0.0
H1628 H 0.12785 0.73706 0.53217 0.0
H1629 H 0.11659 0.70982 0.48978 0.0
H1630 H 0.15987 0.72937 0.40487 0.0
H1631 H 0.17146 0.75664 0.44742 0.0
H1632 H 0.09912 0.71623 0.4194 0.0
H1633 H 0.16777 0.66738 0.40591 0.0
H1634 H 0.16493 0.68606 0.44336 0.0
H1635 H 0.17201 0.69392 0.3961 0.0
C1636 C 0.13529 0.73538 0.50478 0.0
C1637 C 0.15059 0.74908 0.49323 0.0
C1638 C 0.12877 0.7198 0.48052 0.0
C1639 C 0.13743 0.71745 0.44421 0.0
C1640 C 0.15319 0.73065 0.433 0.0
H1641 H 0.07824 0.65682 0.25283 0.0
H1642 H 0.09444 0.68129 0.29581 0.0
C1643 C 0.15977 0.74628 0.45735 0.0
C1644 C 0.12877 0.70225 0.41724 0.0
H1645 H 0.14013 0.65999 0.36432 0.0
C1646 C 0.10809 0.70391 0.40741 0.0
C1647 C 0.14043 0.6861 0.40184 0.0
C1648 C 0.16247 0.68306 0.41252 0.0
C1649 C 0.0988 0.68999 0.38246 0.0
C1650 C 0.11056 0.67412 0.36635 0.0
C1651 C 0.13119 0.67229 0.37644 0.0
C1652 C 0.10153 0.65909 0.33949 0.0
C1653 C 0.07636 0.69219 0.37411 0.0
C1654 C 0.10059 0.63837 0.34931 0.0
C1655 C 0.09135 0.6243 0.32475 0.0
C1656 C 0.08298 0.63067 0.28974 0.0
C1657 C 0.08436 0.65139 0.27966 0.0
C1658 C 0.09358 0.66544 0.30426 0.0
H1659 H 0.06859 0.7019 0.39559 0.0
H1660 H 0.07436 0.69942 0.34573 0.0
H1661 H 0.06876 0.67707 0.37345 0.0
H1662 H 0.10669 0.63314 0.37631 0.0
H1663 H 0.09065 0.60846 0.33336 0.0
H1664 H 0.85693 0.64721 0.45365 0.0
H1665 H 0.88099 0.63009 0.41103 0.0
H1666 H 0.93057 0.66335 0.46253 0.0
H1667 H 0.90673 0.67974 0.50629 0.0
H1668 H 0.90475 0.64327 0.35784 0.0
H1669 H 0.95394 0.60772 0.46686 0.0
H1670 H 0.93003 0.61961 0.4788 0.0
H1671 H 0.95278 0.63475 0.47359 0.0
C1672 C 0.87299 0.65075 0.45605 0.0
C1673 C 0.87994 0.6647 0.48359 0.0
C1674 C 0.88675 0.64095 0.43166 0.0
C1675 C 0.90774 0.64502 0.43402 0.0
C1676 C 0.91461 0.65934 0.46093 0.0
H1677 H 0.99611 0.63004 0.25493 0.0
H1678 H 0.96857 0.64049 0.297 0.0
C1679 C 0.90091 0.66886 0.48576 0.0
C1680 C 0.92233 0.63493 0.40739 0.0
H1681 H 0.96804 0.6101 0.40375 0.0
C1682 C 0.91847 0.63581 0.36798 0.0
C1683 C 0.94004 0.62471 0.42037 0.0
C1684 C 0.94432 0.62143 0.46224 0.0
C1685 C 0.93212 0.62751 0.34131 0.0
C1686 C 0.9506 0.6187 0.3542 0.0
C1687 C 0.95408 0.61711 0.39365 0.0
C1688 C 0.96686 0.6118 0.32742 0.0
C1689 C 0.9264 0.62809 0.29962 0.0
C1690 C 0.97568 0.59235 0.33101 0.0
C1691 C 0.99187 0.58645 0.30738 0.0
C1692 C -0.00052 0.59985 0.2795 0.0
C1693 C 0.99045 0.61919 0.27567 0.0
C1694 C 0.97453 0.62517 0.29962 0.0
H1695 H 0.90959 0.62808 0.29588 0.0
H1696 H 0.93232 0.64234 0.28669 0.0
H1697 H 0.93281 0.6149 0.28385 0.0
H1698 H 0.97016 0.58177 0.35237 0.0
H1699 H 0.99854 0.57149 0.31121 0.0
H1700 H 0.0649 0.15661 0.75288 0.0
H1701 H 0.08061 0.18076 0.70876 0.0
H1702 H 0.11695 0.13225 0.66114 0.0
H1703 H 0.10063 0.10788 0.70427 0.0
H1704 H 0.11818 0.19319 0.70011 0.0
H1705 H 0.0942 0.1559 0.56561 0.0
H1706 H 0.08444 0.14821 0.61144 0.0
H1707 H 0.10899 0.13943 0.59558 0.0
C1708 C 0.07621 0.15108 0.73299 0.0
C1709 C 0.08145 0.13032 0.73198 0.0
C1710 C 0.08519 0.16491 0.70771 0.0
C1711 C 0.09975 0.15834 0.68105 0.0
C1712 C 0.10534 0.13765 0.68057 0.0
H1713 H 0.17477 0.24972 0.56113 0.0
H1714 H 0.16402 0.22166 0.60272 0.0
C1715 C 0.09609 0.12374 0.70544 0.0
C1716 C 0.10919 0.17327 0.6543 0.0
H1717 H 0.11745 0.18335 0.55991 0.0
C1718 C 0.118 0.19104 0.66944 0.0
C1719 C 0.1088 0.17061 0.61419 0.0
C1720 C 0.09842 0.15262 0.59569 0.0
C1721 C 0.12617 0.20628 0.64575 0.0
C1722 C 0.12623 0.20338 0.60569 0.0
C1723 C 0.11764 0.1855 0.59058 0.0
C1724 C 0.13369 0.21933 0.57878 0.0
C1725 C 0.13385 0.22566 0.66394 0.0
C1726 C 0.12068 0.22669 0.55012 0.0
C1727 C 0.12696 0.24232 0.52578 0.0
C1728 C 0.14637 0.25114 0.52964 0.0
C1729 C 0.15965 0.24338 0.55759 0.0
C1730 C 0.15345 0.22746 0.58164 0.0
H1731 H 0.12764 0.22774 0.69317 0.0
H1732 H 0.15069 0.22498 0.66624 0.0
H1733 H 0.1297 0.23921 0.64661 0.0
H1734 H 0.10539 0.22067 0.54714 0.0
H1735 H 0.11629 0.24793 0.50472 0.0
H1736 H 0.49967 0.42638 0.8107 0.0
H1737 H 0.52799 0.4163 0.85232 0.0
H1738 H 0.53044 0.35775 0.7966 0.0
H1739 H 0.50296 0.36795 0.75431 0.0
H1740 H 0.53007 0.38747 0.90355 0.0
H1741 H 0.5893 0.3711 0.79651 0.0
H1742 H 0.56602 0.38416 0.78436 0.0
H1743 H 0.56679 0.3567 0.78629 0.0
C1744 C 0.50653 0.41151 0.80687 0.0
C1745 C 0.49916 0.39807 0.77883 0.0
C1746 C 0.52268 0.40574 0.83077 0.0
C1747 C 0.53171 0.38638 0.8272 0.0
C1748 C 0.52431 0.373 0.7992 0.0
H1749 H 0.59132 0.31678 1.00458 0.0
H1750 H 0.56751 0.3337 0.9613 0.0
C1751 C 0.50842 0.37885 0.77508 0.0
C1752 C 0.54789 0.37952 0.85417 0.0
H1753 H 0.59382 0.35516 0.85799 0.0
C1754 C 0.54414 0.38067 0.89356 0.0
C1755 C 0.5665 0.37098 0.8414 0.0
C1756 C 0.57248 0.37088 0.79984 0.0
C1757 C 0.55803 0.37281 0.92034 0.0
C1758 C 0.57587 0.36282 0.9074 0.0
C1759 C 0.58001 0.36243 0.86808 0.0
C1760 C 0.59036 0.35251 0.93393 0.0
C1761 C 0.55346 0.37554 0.96221 0.0
C1762 C 0.61132 0.3567 0.93205 0.0
C1763 C 0.62505 0.34661 0.95609 0.0
C1764 C 0.61809 0.33223 0.98283 0.0
C1765 C 0.59713 0.32797 0.98462 0.0
C1766 C 0.58346 0.33779 0.9601 0.0
H1767 H 0.54372 0.38914 0.96716 0.0
H1768 H 0.54501 0.36203 0.97279 0.0
H1769 H 0.56762 0.37724 0.97922 0.0
H1770 H 0.61709 0.36787 0.91202 0.0
H1771 H 0.64109 0.35027 0.95404 0.0
H1772 H 0.32819 0.73976 0.07602 0.0
H1773 H 0.34011 0.76726 0.11771 0.0
H1774 H 0.38141 0.78747 0.02992 0.0
H1775 H 0.36982 0.75997 0.9884 0.0
H1776 H 0.40045 0.78228 0.09816 0.0
H1777 H 0.33059 0.82862 0.11782 0.0
H1778 H 0.32735 0.80207 0.12872 0.0
H1779 H 0.33297 0.80974 0.08062 0.0
C1780 C 0.33951 0.7503 0.06531 0.0
C1781 C 0.34807 0.74761 0.02886 0.0
C1782 C 0.34629 0.76607 0.08917 0.0
C1783 C 0.36157 0.77956 0.07689 0.0
C1784 C 0.36961 0.77728 0.04005 0.0
H1785 H 0.40561 0.88976 0.18879 0.0
H1786 H 0.39003 0.86492 0.14557 0.0
C1787 C 0.36292 0.76153 0.0163 0.0
C1788 C 0.37036 0.79506 0.10319 0.0
H1789 H 0.35872 0.83651 0.15809 0.0
C1790 C 0.39132 0.79417 0.11115 0.0
C1791 C 0.35851 0.8107 0.1199 0.0
C1792 C 0.33614 0.81303 0.11112 0.0
C1793 C 0.40069 0.80831 0.13559 0.0
C1794 C 0.38874 0.82359 0.15319 0.0
C1795 C 0.36783 0.82468 0.14487 0.0
C1796 C 0.39777 0.83866 0.18001 0.0
C1797 C 0.42339 0.80696 0.1418 0.0
C1798 C 0.40707 0.83221 0.21401 0.0
C1799 C 0.41605 0.84635 0.23872 0.0
C1800 C 0.41581 0.8673 0.23008 0.0
C1801 C 0.40617 0.87375 0.19628 0.0
C1802 C 0.39719 0.85958 0.17158 0.0
H1803 H 0.43099 0.79804 0.11894 0.0
H1804 H 0.43037 0.82237 0.14291 0.0
H1805 H 0.42642 0.79923 0.16939 0.0
H1806 H 0.40738 0.81619 0.22147 0.0
H1807 H 0.42321 0.84083 0.26458 0.0
H1808 H 0.13849 0.3424 0.58396 0.0
H1809 H 0.1136 0.35852 0.62633 0.0
H1810 H 0.0661 0.34701 0.54417 0.0
H1811 H 0.09075 0.33067 0.50185 0.0
H1812 H 0.08711 0.3922 0.61431 0.0
H1813 H 0.04446 0.32067 0.6425 0.0
H1814 H 0.06943 0.32083 0.62099 0.0
H1815 H 0.04733 0.32682 0.59286 0.0
C1816 C 0.12275 0.34329 0.57487 0.0
C1817 C 0.1166 0.33509 0.5396 0.0
C1818 C 0.10856 0.35258 0.59908 0.0
C1819 C 0.08796 0.35374 0.58862 0.0
C1820 C 0.08186 0.34598 0.5531 0.0
H1821 H 0.98989 0.42311 0.69655 0.0
H1822 H 0.01723 0.41189 0.6538 0.0
C1823 C 0.09601 0.3367 0.52888 0.0
C1824 C 0.07277 0.36269 0.61517 0.0
H1825 H 0.03017 0.35115 0.66661 0.0
C1826 C 0.07466 0.38325 0.62581 0.0
C1827 C 0.05667 0.35092 0.63044 0.0
C1828 C 0.05438 0.32854 0.62146 0.0
C1829 C 0.06071 0.3924 0.65102 0.0
C1830 C 0.04438 0.38072 0.66564 0.0
C1831 C 0.04263 0.36013 0.65519 0.0
C1832 C 0.02917 0.38921 0.6927 0.0
C1833 C 0.06378 0.41435 0.6624 0.0
C1834 C 0.02685 0.3803 0.72881 0.0
C1835 C 0.01125 0.3866 0.75315 0.0
C1836 C 0.99751 0.40193 0.74189 0.0
C1837 C 0.00028 0.41137 0.70622 0.0
C1838 C 0.01594 0.40501 0.68178 0.0
H1839 H 0.07944 0.41973 0.65585 0.0
H1840 H 0.05288 0.42407 0.64643 0.0
H1841 H 0.06086 0.41648 0.69334 0.0
H1842 H 0.03686 0.36808 0.73784 0.0
H1843 H 0.00962 0.37897 0.7804 0.0
H1844 H 0.89433 0.89297 0.32369 0.0
H1845 H 0.87762 0.86887 0.36695 0.0
H1846 H 0.91184 0.81948 0.31707 0.0
H1847 H 0.92778 0.84329 0.27268 0.0
H1848 H 0.87442 0.80799 0.32686 0.0
H1849 H 0.90021 0.84415 0.46134 0.0
H1850 H 0.8854 0.86095 0.43204 0.0
H1851 H 0.90971 0.85192 0.41538 0.0
C1852 C 0.8983 0.87697 0.32207 0.0
C1853 C 0.91244 0.87004 0.29488 0.0
C1854 C 0.88884 0.86321 0.34701 0.0
C1855 C 0.89373 0.84234 0.34595 0.0
C1856 C 0.90778 0.83546 0.31861 0.0
H1857 H 0.87958 0.75186 0.52056 0.0
H1858 H 0.88948 0.77962 0.47842 0.0
C1859 C 0.91693 0.84912 0.29324 0.0
C1860 C 0.88417 0.82749 0.37275 0.0
H1861 H 0.87704 0.81673 0.46722 0.0
C1862 C 0.875 0.80992 0.35757 0.0
C1863 C 0.88504 0.82986 0.4129 0.0
C1864 C 0.89579 0.84763 0.43143 0.0
C1865 C 0.8671 0.79451 0.38121 0.0
C1866 C 0.86763 0.79705 0.42134 0.0
C1867 C 0.87643 0.81483 0.43651 0.0
C1868 C 0.86074 0.7808 0.44818 0.0
C1869 C 0.85917 0.77528 0.3628 0.0
C1870 C 0.84107 0.77236 0.44603 0.0
C1871 C 0.83545 0.75612 0.46986 0.0
C1872 C 0.84923 0.74836 0.49695 0.0
C1873 C 0.86854 0.75747 0.50017 0.0
C1874 C 0.87425 0.7734 0.47599 0.0
H1875 H 0.86493 0.77347 0.3332 0.0
H1876 H 0.8636 0.76158 0.37946 0.0
H1877 H 0.8423 0.77595 0.36143 0.0
H1878 H 0.83012 0.77817 0.42566 0.0
H1879 H 0.8204 0.74956 0.46687 0.0
H1880 H 0.40664 0.67029 1.00459 0.0
H1881 H 0.4312 0.65422 0.04751 0.0
H1882 H 0.38304 0.64091 0.12729 0.0
H1883 H 0.35827 0.65663 0.08419 0.0
H1884 H 0.44127 0.66492 0.11991 0.0
H1885 H 0.41122 0.58594 0.1184 0.0
H1886 H 0.40336 0.60497 0.08422 0.0
H1887 H 0.3926 0.60472 0.13139 0.0
C1888 C 0.40121 0.66383 0.03114 0.0
C1889 C 0.38044 0.66469 0.04085 0.0
C1890 C 0.4153 0.65464 0.05567 0.0
C1891 C 0.40895 0.64606 0.09038 0.0
C1892 C 0.38825 0.64699 0.10028 0.0
H1893 H 0.48925 0.62233 0.28242 0.0
H1894 H 0.46205 0.63407 0.24025 0.0
C1895 C 0.37412 0.65613 0.0757 0.0
C1896 C 0.42418 0.63697 0.11684 0.0
H1897 H 0.43687 0.59327 0.16448 0.0
C1898 C 0.44032 0.64924 0.12956 0.0
C1899 C 0.4231 0.61642 0.12906 0.0
C1900 C 0.40676 0.60216 0.11481 0.0
C1901 C 0.45523 0.64165 0.15454 0.0
C1902 C 0.45376 0.62132 0.16785 0.0
C1903 C 0.43783 0.60892 0.15465 0.0
C1904 C 0.46887 0.6127 0.19504 0.0
C1905 C 0.47265 0.6554 0.16587 0.0
C1906 C 0.48111 0.59609 0.18447 0.0
C1907 C 0.49659 0.58915 0.20876 0.0
C1908 C 0.50008 0.59872 0.2441 0.0
C1909 C 0.48711 0.6147 0.25531 0.0
C1910 C 0.47162 0.62154 0.23112 0.0
H1911 H 0.4745 0.66831 0.14564 0.0
H1912 H 0.46959 0.66185 0.19455 0.0
H1913 H 0.4872 0.6468 0.16718 0.0
H1914 H 0.47916 0.58894 0.15685 0.0
H1915 H 0.50628 0.57681 0.19923 0.0
H1916 H 0.66796 0.257 0.94707 0.0
H1917 H 0.65492 0.23014 0.90496 0.0
H1918 H 0.61566 0.20879 0.99503 0.0
H1919 H 0.6283 0.23566 0.03697 0.0
H1920 H 0.65269 0.18743 0.90921 0.0
H1921 H 0.5757 0.22222 0.90919 0.0
H1922 H 0.5978 0.2353 0.92749 0.0
H1923 H 0.58512 0.21637 0.95601 0.0
C1924 C 0.65678 0.24639 0.95809 0.0
C1925 C 0.649 0.24864 0.99525 0.0
C1926 C 0.6493 0.23108 0.93396 0.0
C1927 C 0.63396 0.21777 0.94657 0.0
C1928 C 0.62712 0.2192 0.98438 0.0
H1929 H 0.58856 0.10805 0.83443 0.0
H1930 H 0.60533 0.13243 0.8769 0.0
C1931 C 0.63447 0.23453 1.0084 0.0
C1932 C 0.62441 0.20299 0.91984 0.0
H1933 H 0.57878 0.18975 0.88005 0.0
C1934 C 0.63654 0.18794 0.90274 0.0
C1935 C 0.60339 0.20389 0.91091 0.0
C1936 C 0.58975 0.22042 0.92653 0.0
C1937 C 0.62814 0.17351 0.87753 0.0
C1938 C 0.60698 0.17397 0.86972 0.0
C1939 C 0.59495 0.18926 0.88633 0.0
C1940 C 0.59699 0.15903 0.84385 0.0
C1941 C 0.64208 0.15818 0.85894 0.0
C1942 C 0.58618 0.16586 0.81172 0.0
C1943 C 0.57638 0.15199 0.78763 0.0
C1944 C 0.57711 0.13094 0.79516 0.0
C1945 C 0.58777 0.12414 0.82762 0.0
C1946 C 0.59753 0.13805 0.85179 0.0
H1947 H 0.65821 0.16326 0.8596 0.0
H1948 H 0.64107 0.14351 0.8746 0.0
H1949 H 0.63761 0.15541 0.82883 0.0
H1950 H 0.58542 0.18198 0.80516 0.0
H1951 H 0.56825 0.1578 0.76307 0.0
H1952 H 0.31819 0.23819 0.1639 0.0
H1953 H 0.29709 0.2501 0.21636 0.0
H1954 H 0.24466 0.22109 0.16596 0.0
H1955 H 0.26593 0.2087 0.11308 0.0
H1956 H 0.26273 0.27444 0.21837 0.0
H1957 H 0.24639 0.19678 0.27389 0.0
H1958 H 0.26583 0.2016 0.23865 0.0
H1959 H 0.23948 0.20098 0.2249 0.0
C1960 C 0.30214 0.23438 0.16368 0.0
C1961 C 0.29378 0.22233 0.13436 0.0
C1962 C 0.29009 0.24126 0.19378 0.0
C1963 C 0.26939 0.23619 0.19551 0.0
C1964 C 0.26072 0.22483 0.16557 0.0
H1965 H 0.17551 0.26128 0.36085 0.0
H1966 H 0.19634 0.24913 0.30814 0.0
C1967 C 0.27283 0.21793 0.1352 0.0
C1968 C 0.25724 0.24261 0.22919 0.0
H1969 H 0.23074 0.22436 0.3058 0.0
C1970 C 0.25573 0.2635 0.23751 0.0
C1971 C 0.24827 0.22831 0.25429 0.0
C1972 C 0.25016 0.20565 0.24782 0.0
C1973 C 0.24521 0.27049 0.26987 0.0
C1974 C 0.23626 0.25618 0.295 0.0
C1975 C 0.23773 0.23529 0.28665 0.0
C1976 C 0.22427 0.26263 0.32885 0.0
C1977 C 0.24335 0.29314 0.2764 0.0
C1978 C 0.23317 0.27381 0.35877 0.0
C1979 C 0.22123 0.28083 0.38927 0.0
C1980 C 0.20022 0.27675 0.39025 0.0
C1981 C 0.19162 0.26485 0.36095 0.0
C1982 C 0.20351 0.25783 0.33072 0.0
H1983 H 0.24711 0.30202 0.25034 0.0
H1984 H 0.22769 0.2972 0.28562 0.0
H1985 H 0.25405 0.29779 0.2993 0.0
H1986 H 0.24927 0.27735 0.35825 0.0
H1987 H 0.22831 0.28994 0.41137 0.0
H1988 H 0.51104 0.57022 0.4134 0.0
H1989 H 0.49887 0.54926 0.46593 0.0
H1990 H 0.52809 0.49661 0.41685 0.0
H1991 H 0.54035 0.51764 0.36339 0.0
H1992 H 0.48785 0.48942 0.44541 0.0
H1993 H 0.53583 0.52905 0.55252 0.0
H1994 H 0.52021 0.54581 0.52452 0.0
H1995 H 0.54008 0.53139 0.50183 0.0
C1996 C 0.51486 0.55415 0.41348 0.0
C1997 C 0.52686 0.54564 0.38425 0.0
C1998 C 0.50795 0.54222 0.44377 0.0
C1999 C 0.51298 0.5215 0.44585 0.0
C2000 C 0.52422 0.51266 0.41598 0.0
H2001 H 0.48719 0.42585 0.60911 0.0
H2002 H 0.4993 0.44663 0.55627 0.0
C2003 C 0.53115 0.52465 0.3854 0.0
C2004 C 0.5065 0.50929 0.47947 0.0
H2005 H 0.51058 0.50652 0.57664 0.0
C2006 C 0.49292 0.49305 0.47407 0.0
C2007 C 0.51303 0.51415 0.51692 0.0
C2008 C 0.52824 0.53093 0.5244 0.0
C2009 C 0.4854 0.48178 0.50514 0.0
C2010 C 0.49192 0.48665 0.54259 0.0
C2011 C 0.50551 0.50288 0.54799 0.0
C2012 C 0.48538 0.4745 0.57626 0.0
C2013 C 0.47018 0.46501 0.49766 0.0
C2014 C 0.47426 0.48346 0.60617 0.0
C2015 C 0.46736 0.47157 0.63691 0.0
C2016 C 0.47158 0.45057 0.63822 0.0
C2017 C 0.48344 0.44193 0.60892 0.0
C2018 C 0.4903 0.45376 0.57845 0.0
H2019 H 0.46259 0.46689 0.46954 0.0
H2020 H 0.4782 0.45012 0.49755 0.0
H2021 H 0.45833 0.46455 0.52023 0.0
H2022 H 0.47047 0.49952 0.60522 0.0
H2023 H 0.45827 0.47869 0.65897 0.0
H2024 H 0.17681 0.76366 0.66629 0.0
H2025 H 0.1979 0.75135 0.71852 0.0
H2026 H 0.25121 0.77644 0.66428 0.0
H2027 H 0.22999 0.78922 0.61158 0.0
H2028 H 0.23062 0.72478 0.71939 0.0
H2029 H 0.25307 0.80153 0.77154 0.0
H2030 H 0.23272 0.79778 0.73763 0.0
H2031 H 0.25879 0.79657 0.72229 0.0
C2032 C 0.19304 0.76657 0.66521 0.0
C2033 C 0.20168 0.77758 0.63475 0.0
C2034 C 0.20508 0.75946 0.6952 0.0
C2035 C 0.22608 0.76323 0.69571 0.0
C2036 C 0.23496 0.77369 0.66485 0.0
H2037 H 0.32134 0.73415 0.85634 0.0
H2038 H 0.30028 0.74665 0.80421 0.0
C2039 C 0.22285 0.78083 0.63459 0.0
C2040 C 0.23838 0.75625 0.72889 0.0
H2041 H 0.26757 0.77319 0.80314 0.0
C2042 C 0.23869 0.73536 0.73773 0.0
C2043 C 0.24878 0.77008 0.75298 0.0
C2044 C 0.24825 0.79277 0.74597 0.0
C2045 C 0.24941 0.72789 0.76954 0.0
C2046 C 0.25981 0.74173 0.79364 0.0
C2047 C 0.2595 0.76261 0.78479 0.0
C2048 C 0.27208 0.73473 0.82686 0.0
C2049 C 0.24995 0.7052 0.77652 0.0
C2050 C 0.26318 0.72422 0.85762 0.0
C2051 C 0.27526 0.71696 0.8878 0.0
C2052 C 0.29643 0.72016 0.88768 0.0
C2053 C 0.3051 0.73127 0.85737 0.0
C2054 C 0.29308 0.7385 0.82745 0.0
H2055 H 0.24518 0.69644 0.75091 0.0
H2056 H 0.26547 0.70019 0.78495 0.0
H2057 H 0.23937 0.70138 0.80013 0.0
H2058 H 0.24692 0.72147 0.85813 0.0
H2059 H 0.2681 0.7085 0.9107 0.0
H2060 H 0.00976 0.57117 0.11074 0.0
H2061 H 0.99707 0.55028 0.05851 0.0
H2062 H 0.0263 0.49747 0.10719 0.0
H2063 H 0.03897 0.51838 0.16031 0.0
H2064 H 0.0203 0.52949 1.0062 0.0
H2065 H 0.96903 0.47643 0.08369 0.0
H2066 H 0.97855 0.49963 0.10489 0.0
H2067 H 0.9946 0.4775 0.10184 0.0
C2068 C 0.01333 0.55505 0.11075 0.0
C2069 C 0.02541 0.54645 0.13982 0.0
C2070 C 0.00607 0.54313 0.08072 0.0
C2071 C 0.01061 0.52229 0.07892 0.0
C2072 C 0.0223 0.51347 0.10828 0.0
H2073 H 0.9856 0.42801 0.91344 0.0
H2074 H 0.99794 0.44889 0.96596 0.0
C2075 C 0.02957 0.52543 0.1386 0.0
C2076 C 0.00384 0.51024 0.04526 0.0
H2077 H 0.97463 0.46967 0.01816 0.0
C2078 C 0.01026 0.51644 1.00879 0.0
C2079 C 0.99072 0.49325 0.04864 0.0
C2080 C 0.98264 0.48636 0.0868 0.0
C2081 C 0.00421 0.50592 0.97573 0.0
C2082 C 0.99109 0.48893 0.9791 0.0
C2083 C 0.98466 0.48273 0.01557 0.0
C2084 C 0.98438 0.47685 0.94543 0.0
C2085 C 0.01231 0.5128 0.93757 0.0
C2086 C 0.97276 0.48565 0.91595 0.0
C2087 C 0.96569 0.47369 0.88545 0.0
C2088 C 0.96999 0.4527 0.88418 0.0
C2089 C 0.98193 0.44411 0.91345 0.0
C2090 C 0.98899 0.45602 0.94366 0.0
H2091 H 0.02591 0.52274 0.9407 0.0
H2092 H 0.01643 0.49953 0.91951 0.0
H2093 H 0.00036 0.52164 0.92249 0.0
H2094 H 0.96871 0.50163 0.91701 0.0
H2095 H 0.95639 0.48072 0.86359 0.0
H2096 H 0.73055 0.79056 0.91284 0.0
H2097 H 0.75173 0.77834 0.85961 0.0
H2098 H 0.69909 0.75004 0.80867 0.0
H2099 H 0.67799 0.76213 0.861 0.0
H2100 H 0.75825 0.7377 0.8304 0.0
H2101 H 0.72067 0.7875 0.7235 0.0
H2102 H 0.71821 0.79155 0.77424 0.0
H2103 H 0.70337 0.77218 0.75092 0.0
C2104 C 0.72357 0.78158 0.89046 0.0
C2105 C 0.70254 0.7775 0.89107 0.0
C2106 C 0.73566 0.77466 0.86003 0.0
C2107 C 0.72687 0.76368 0.82974 0.0
C2108 C 0.7061 0.75891 0.83121 0.0
H2109 H 0.76884 0.70946 0.61602 0.0
H2110 H 0.74833 0.72204 0.66981 0.0
C2111 C 0.69408 0.76577 0.86138 0.0
C2112 C 0.73919 0.75718 0.79632 0.0
H2113 H 0.74269 0.76182 0.69934 0.0
C2114 C 0.75498 0.74309 0.80179 0.0
C2115 C 0.73477 0.7641 0.75893 0.0
C2116 C 0.71845 0.77981 0.75143 0.0
C2117 C 0.7662 0.73541 0.7708 0.0
C2118 C 0.76177 0.74232 0.73339 0.0
C2119 C 0.746 0.75646 0.72795 0.0
C2120 C 0.77381 0.73553 0.69979 0.0
C2121 C 0.78239 0.71958 0.77833 0.0
C2122 C 0.79475 0.73952 0.69818 0.0
C2123 C 0.80641 0.7324 0.6677 0.0
C2124 C 0.7974 0.72125 0.63779 0.0
C2125 C 0.77624 0.71798 0.63856 0.0
C2126 C 0.76453 0.7251 0.66932 0.0
H2127 H 0.78003 0.71183 0.80616 0.0
H2128 H 0.78264 0.70789 0.75544 0.0
H2129 H 0.79751 0.72711 0.77914 0.0
H2130 H 0.80216 0.74799 0.72078 0.0
H2131 H 0.82263 0.73542 0.66793 0.0
H2132 H 0.67618 0.26267 0.16893 0.0
H2133 H 0.69735 0.25046 0.22116 0.0
H2134 H 0.75074 0.27437 0.16535 0.0
H2135 H 0.72946 0.28705 0.11271 0.0
H2136 H 0.72966 0.22353 0.22259 0.0
H2137 H 0.7535 0.30047 0.27148 0.0
H2138 H 0.73298 0.29667 0.23794 0.0
H2139 H 0.75898 0.29494 0.22236 0.0
C2140 C 0.69244 0.26532 0.16751 0.0
C2141 C 0.7011 0.27599 0.13664 0.0
C2142 C 0.70453 0.25828 0.19749 0.0
C2143 C 0.72558 0.26178 0.19756 0.0
C2144 C 0.73446 0.27185 0.16626 0.0
H2145 H 0.82114 0.23281 0.35789 0.0
H2146 H 0.80018 0.24499 0.30532 0.0
C2147 C 0.72231 0.27893 0.13604 0.0
C2148 C 0.73795 0.25497 0.23076 0.0
H2149 H 0.76785 0.27226 0.30372 0.0
C2150 C 0.73801 0.23418 0.24036 0.0
C2151 C 0.74871 0.2689 0.25409 0.0
C2152 C 0.74847 0.29152 0.24628 0.0
C2153 C 0.7488 0.22689 0.27222 0.0
C2154 C 0.75955 0.24082 0.29555 0.0
C2155 C 0.75951 0.26161 0.28594 0.0
C2156 C 0.77181 0.23402 0.32889 0.0
C2157 C 0.74902 0.20428 0.28009 0.0
C2158 C 0.76278 0.22414 0.36025 0.0
C2159 C 0.7748 0.21709 0.39067 0.0
C2160 C 0.79604 0.21985 0.39019 0.0
C2161 C 0.80485 0.2303 0.35922 0.0
C2162 C 0.79289 0.23733 0.32904 0.0
H2163 H 0.74396 0.19531 0.25492 0.0
H2164 H 0.7645 0.19912 0.28841 0.0
H2165 H 0.73851 0.2009 0.30405 0.0
H2166 H 0.74647 0.22176 0.36107 0.0
H2167 H 0.76753 0.20915 0.41407 0.0
H2168 H 0.01492 0.07071 0.91965 0.0
H2169 H 0.00273 0.04916 0.97132 0.0
H2170 H 0.02518 0.99593 0.91278 0.0
H2171 H 0.03785 0.01759 0.86072 0.0
H2172 H 0.97511 0.01755 0.97163 0.0
H2173 H 0.0515 0.99095 0.01832 0.0
H2174 H 0.04813 0.012 0.98577 0.0
H2175 H 0.0456 0.98624 0.96906 0.0
C2176 C 0.01728 0.05441 0.91752 0.0
C2177 C 0.02751 0.0459 0.88602 0.0
C2178 C 0.01024 0.0421 0.94719 0.0
C2179 C 0.01331 0.02097 0.94631 0.0
C2180 C 0.023 0.01226 0.91445 0.0
H2181 H 0.98198 0.92461 0.10448 0.0
H2182 H 0.99467 0.94541 0.05202 0.0
C2183 C 0.03008 0.02463 0.88456 0.0
C2184 C 0.00632 0.00831 0.979 0.0
H2185 H 0.02307 0.977 0.0504 0.0
C2186 C 0.9856 0.00869 0.98887 0.0
C2187 C 0.02003 0.99684 1.00162 0.0
C2188 C 0.04259 0.99655 0.99349 0.0
C2189 C 0.97816 0.99771 0.02037 0.0
C2190 C 0.99188 0.98631 0.04307 0.0
C2191 C 0.01259 0.98584 0.03311 0.0
C2192 C 0.9849 0.97407 0.0763 0.0
C2193 C 0.95561 0.99805 0.02858 0.0
C2194 C 0.97558 0.98331 0.10801 0.0
C2195 C 0.96826 0.9714 0.13832 0.0
C2196 C 0.97019 0.95006 0.13743 0.0
C2197 C 0.98013 0.94099 0.10613 0.0
C2198 C 0.98743 0.95286 0.07603 0.0
H2199 H 0.94668 0.00352 1.00367 0.0
H2200 H 0.95007 0.98264 0.03662 0.0
H2201 H 0.95263 0.0085 0.05282 0.0
H2202 H 0.97381 -0.0003 0.10916 0.0
H2203 H 0.96075 0.97887 0.162 0.0
H2204 H 0.53699 0.01864 0.66099 0.0
H2205 H 0.52483 0.99754 0.60767 0.0
H2206 H 0.49773 0.05056 0.55558 0.0
H2207 H 0.50941 0.07151 0.60851 0.0
H2208 H 0.4724 0.01711 0.55335 0.0
H2209 H 0.54968 0.99742 0.50053 0.0
H2210 H 0.54498 0.99093 0.54953 0.0
H2211 H 0.54535 0.01724 0.53528 0.0
C2212 C 0.52829 0.02573 0.63832 0.0
C2213 C 0.52429 0.04679 0.63899 0.0
C2214 C 0.5215 0.01371 0.6077 0.0
C2215 C 0.51067 0.02255 0.57725 0.0
C2216 C 0.50614 0.04341 0.57857 0.0
H2217 H 0.45727 0.98028 0.36123 0.0
H2218 H 0.46968 0.00157 0.4141 0.0
C2219 C 0.51289 0.05538 0.60895 0.0
C2220 C 0.50405 0.01034 0.54368 0.0
H2221 H 0.5218 0.98209 0.46884 0.0
C2222 C 0.4832 0.00948 0.53483 0.0
C2223 C 0.51816 0.0005 0.51936 0.0
C2224 C 0.54081 0.00166 0.52632 0.0
C2225 C 0.47604 0.99874 0.50279 0.0
C2226 C 0.49015 0.98889 0.47851 0.0
C2227 C 0.51101 0.98975 0.48734 0.0
C2228 C 0.48351 0.97658 0.4451 0.0
C2229 C 0.4534 0.9976 0.49578 0.0
C2230 C 0.48776 0.95566 0.44427 0.0
C2231 C 0.48085 0.94357 0.41418 0.0
C2232 C 0.46957 0.95211 0.38394 0.0
C2233 C 0.46588 0.97323 0.38406 0.0
C2234 C 0.47281 0.98536 0.41441 0.0
H2235 H 0.44451 0.00205 0.52142 0.0
H2236 H 0.44929 0.00815 0.47226 0.0
H2237 H 0.44884 0.98196 0.48721 0.0
H2238 H 0.49607 0.94855 0.46745 0.0
H2239 H 0.4841 0.92739 0.41503 0.0
loop_
_geom_bond_atom_site_label_1
_geom_bond_atom_site_label_2
_geom_bond_distance
_geom_bond_site_symmetry_2
_ccdc_geom_bond_type
Zn0 O1 2.055 . S
Zn0 O8 2.046 1_554 S
Zn0 N16 2.036 . S
Zn0 O28 2.053 . S
Zn0 O30 2.066 . S
O1 Zn0 2.055 . S
O1 C4 1.259 . S
C2 O30 1.256 . S
C2 O31 1.244 . S
Zn3 O5 2.046 . S
Zn3 O7 2.055 . S
Zn3 N9 2.036 . S
Zn3 O27 2.066 . S
Zn3 O31 2.053 . S
C4 O1 1.259 . S
C4 O5 1.254 . S
O5 Zn3 2.046 . S
O5 C4 1.254 . S
C6 O27 1.256 . S
C6 O28 1.244 . S
O7 Zn3 2.055 . S
O7 C29 1.259 1_554 S
O8 Zn0 2.046 1_556 S
O8 C29 1.254 . S
N9 Zn3 2.036 . S
N9 C10 1.298 . S
N9 N12 1.398 . S
C10 N9 1.298 . S
C10 N13 1.367 . S
C10 C23 1.481 . S
C11 N12 1.299 . S
C11 N13 1.379 . S
N12 N9 1.398 . S
N12 C11 1.299 . S
N13 C10 1.367 . S
N13 C11 1.379 . S
C14 N16 1.298 . S
C14 N18 1.367 1_554 S
C14 C22 1.481 . S
C15 N17 1.299 . S
C15 N18 1.379 . S
N16 Zn0 2.036 . S
N16 C14 1.298 . S
N16 N17 1.398 1_554 S
N17 C15 1.299 . S
N17 N16 1.398 1_556 S
N18 C14 1.367 1_556 S
N18 C15 1.379 . S
H19 C22 0.980 . S
H20 C22 0.981 . S
H21 C22 0.981 . S
C22 C14 1.481 . S
C22 H19 0.980 . S
C22 H20 0.981 . S
C22 H21 0.981 . S
C23 C10 1.481 . S
C23 H24 0.980 . S
C23 H25 0.981 . S
C23 H26 0.981 . S
H24 C23 0.980 . S
H25 C23 0.981 . S
H26 C23 0.981 . S
O27 Zn3 2.066 . S
O27 C6 1.256 . S
O28 Zn0 2.053 . S
O28 C6 1.244 . S
C29 O7 1.259 1_556 S
C29 O8 1.254 . S
O30 Zn0 2.066 . S
O30 C2 1.256 . S
O31 C2 1.244 . S
O31 Zn3 2.053 . S
Zn32 O33 2.055 . S
Zn32 O40 2.046 . S
Zn32 N48 2.036 . S
Zn32 O60 2.053 . S
Zn32 O62 2.066 . S
O33 Zn32 2.055 . S
O33 C36 1.259 . S
C34 O62 1.256 . S
C34 O63 1.244 . S
Zn35 O37 2.046 . S
Zn35 O39 2.055 . S
Zn35 N41 2.036 . S
Zn35 O59 2.066 . S
Zn35 O63 2.053 . S
C36 O33 1.259 . S
C36 O37 1.254 . S
O37 Zn35 2.046 . S
O37 C36 1.254 . S
C38 O59 1.256 . S
C38 O60 1.244 . S
O39 Zn35 2.055 . S
O39 C61 1.259 . S
O40 Zn32 2.046 . S
O40 C61 1.254 . S
N41 Zn35 2.036 . S
N41 C42 1.298 . S
N41 N44 1.398 . S
C42 N41 1.298 . S
C42 N45 1.367 . S
C42 C55 1.481 . S
C43 N44 1.299 . S
C43 N45 1.379 . S
N44 N41 1.398 . S
N44 C43 1.299 . S
N45 C42 1.367 . S
N45 C43 1.379 . S
C46 N48 1.298 . S
C46 N50 1.367 . S
C46 C54 1.481 . S
C47 N49 1.299 . S
C47 N50 1.379 . S
N48 Zn32 2.036 . S
N48 C46 1.298 . S
N48 N49 1.398 . S
N49 C47 1.299 . S
N49 N48 1.398 . S
N50 C46 1.367 . S
N50 C47 1.379 . S
H51 C54 0.980 . S
H52 C54 0.981 . S
H53 C54 0.981 . S
C54 C46 1.481 . S
C54 H51 0.980 . S
C54 H52 0.981 . S
C54 H53 0.981 . S
C55 C42 1.481 . S
C55 H56 0.980 . S
C55 H57 0.981 . S
C55 H58 0.981 . S
H56 C55 0.980 . S
H57 C55 0.981 . S
H58 C55 0.981 . S
O59 Zn35 2.066 . S
O59 C38 1.256 . S
O60 Zn32 2.053 . S
O60 C38 1.244 . S
C61 O39 1.259 . S
C61 O40 1.254 . S
O62 Zn32 2.066 . S
O62 C34 1.256 . S
O63 C34 1.244 . S
O63 Zn35 2.053 . S
Zn64 O65 2.055 . S
Zn64 O72 2.046 . S
Zn64 N80 2.036 . S
Zn64 O92 2.053 . S
Zn64 O94 2.066 . S
O65 Zn64 2.055 . S
O65 C68 1.259 . S
C66 O94 1.256 . S
C66 O95 1.244 . S
Zn67 O69 2.046 . S
Zn67 O71 2.055 . S
Zn67 N73 2.036 . S
Zn67 O91 2.066 . S
Zn67 O95 2.053 . S
C68 O65 1.259 . S
C68 O69 1.254 . S
O69 Zn67 2.046 . S
O69 C68 1.254 . S
C70 O91 1.256 . S
C70 O92 1.244 . S
O71 Zn67 2.055 . S
O71 C93 1.259 . S
O72 Zn64 2.046 . S
O72 C93 1.254 . S
N73 Zn67 2.036 . S
N73 C74 1.298 . S
N73 N76 1.398 . S
C74 N73 1.298 . S
C74 N77 1.367 . S
C74 C87 1.481 . S
C75 N76 1.299 . S
C75 N77 1.379 . S
N76 N73 1.398 . S
N76 C75 1.299 . S
N77 C74 1.367 . S
N77 C75 1.379 . S
C78 N80 1.298 . S
C78 N82 1.367 . S
C78 C86 1.481 . S
C79 N81 1.299 . S
C79 N82 1.379 . S
N80 Zn64 2.036 . S
N80 C78 1.298 . S
N80 N81 1.398 . S
N81 C79 1.299 . S
N81 N80 1.398 . S
N82 C78 1.367 . S
N82 C79 1.379 . S
H83 C86 0.980 . S
H84 C86 0.981 . S
H85 C86 0.981 . S
C86 C78 1.481 . S
C86 H83 0.980 . S
C86 H84 0.981 . S
C86 H85 0.981 . S
C87 C74 1.481 . S
C87 H88 0.980 . S
C87 H89 0.981 . S
C87 H90 0.981 . S
H88 C87 0.980 . S
H89 C87 0.981 . S
H90 C87 0.981 . S
O91 Zn67 2.066 . S
O91 C70 1.256 . S
O92 Zn64 2.053 . S
O92 C70 1.244 . S
C93 O71 1.259 . S
C93 O72 1.254 . S
O94 Zn64 2.066 . S
O94 C66 1.256 . S
O95 C66 1.244 . S
O95 Zn67 2.053 . S
Zn96 O97 2.055 . S
Zn96 O104 2.046 . S
Zn96 N112 2.036 . S
Zn96 O124 2.053 . S
Zn96 O126 2.066 . S
O97 Zn96 2.055 . S
O97 C100 1.259 . S
C98 O126 1.256 . S
C98 O127 1.244 . S
Zn99 O101 2.046 . S
Zn99 O103 2.055 . S
Zn99 N105 2.036 . S
Zn99 O123 2.066 . S
Zn99 O127 2.053 . S
C100 O97 1.259 . S
C100 O101 1.254 . S
O101 Zn99 2.046 . S
O101 C100 1.254 . S
C102 O123 1.256 . S
C102 O124 1.244 . S
O103 Zn99 2.055 . S
O103 C125 1.259 . S
O104 Zn96 2.046 . S
O104 C125 1.254 . S
N105 Zn99 2.036 . S
N105 C106 1.298 . S
N105 N108 1.398 . S
C106 N105 1.298 . S
C106 N109 1.367 . S
C106 C119 1.481 . S
C107 N108 1.299 . S
C107 N109 1.379 . S
N108 N105 1.398 . S
N108 C107 1.299 . S
N109 C106 1.367 . S
N109 C107 1.379 . S
C110 N112 1.298 . S
C110 N114 1.367 . S
C110 C118 1.481 . S
C111 N113 1.299 . S
C111 N114 1.379 . S
N112 Zn96 2.036 . S
N112 C110 1.298 . S
N112 N113 1.398 . S
N113 C111 1.299 . S
N113 N112 1.398 . S
N114 C110 1.367 . S
N114 C111 1.379 . S
H115 C118 0.980 . S
H116 C118 0.981 . S
H117 C118 0.981 . S
C118 C110 1.481 . S
C118 H115 0.980 . S
C118 H116 0.981 . S
C118 H117 0.981 . S
C119 C106 1.481 . S
C119 H120 0.980 . S
C119 H121 0.981 . S
C119 H122 0.981 . S
H120 C119 0.980 . S
H121 C119 0.981 . S
H122 C119 0.981 . S
O123 Zn99 2.066 . S
O123 C102 1.256 . S
O124 Zn96 2.053 . S
O124 C102 1.244 . S
C125 O103 1.259 . S
C125 O104 1.254 . S
O126 Zn96 2.066 . S
O126 C98 1.256 . S
O127 C98 1.244 . S
O127 Zn99 2.053 . S
Zn128 O129 2.055 . S
Zn128 O136 2.046 . S
Zn128 N144 2.036 . S
Zn128 O156 2.053 . S
Zn128 O158 2.066 . S
O129 Zn128 2.055 . S
O129 C132 1.259 1_556 S
C130 O158 1.256 . S
C130 O159 1.244 . S
Zn131 O133 2.046 1_556 S
Zn131 O135 2.055 . S
Zn131 N137 2.036 . S
Zn131 O155 2.066 . S
Zn131 O159 2.053 . S
C132 O129 1.259 1_554 S
C132 O133 1.254 . S
O133 Zn131 2.046 1_554 S
O133 C132 1.254 . S
C134 O155 1.256 . S
C134 O156 1.244 . S
O135 Zn131 2.055 . S
O135 C157 1.259 . S
O136 Zn128 2.046 . S
O136 C157 1.254 . S
N137 Zn131 2.036 . S
N137 C138 1.298 . S
N137 N140 1.398 1_556 S
C138 N137 1.298 . S
C138 N141 1.367 1_556 S
C138 C151 1.481 . S
C139 N140 1.299 . S
C139 N141 1.379 . S
N140 N137 1.398 1_554 S
N140 C139 1.299 . S
N141 C138 1.367 1_554 S
N141 C139 1.379 . S
C142 N144 1.298 . S
C142 N146 1.367 . S
C142 C150 1.481 . S
C143 N145 1.299 . S
C143 N146 1.379 . S
N144 Zn128 2.036 . S
N144 C142 1.298 . S
N144 N145 1.398 . S
N145 C143 1.299 . S
N145 N144 1.398 . S
N146 C142 1.367 . S
N146 C143 1.379 . S
H147 C150 0.980 . S
H148 C150 0.981 . S
H149 C150 0.981 . S
C150 C142 1.481 . S
C150 H147 0.980 . S
C150 H148 0.981 . S
C150 H149 0.981 . S
C151 C138 1.481 . S
C151 H152 0.980 . S
C151 H153 0.981 . S
C151 H154 0.981 . S
H152 C151 0.980 . S
H153 C151 0.981 . S
H154 C151 0.981 . S
O155 Zn131 2.066 . S
O155 C134 1.256 . S
O156 Zn128 2.053 . S
O156 C134 1.244 . S
C157 O135 1.259 . S
C157 O136 1.254 . S
O158 Zn128 2.066 . S
O158 C130 1.256 . S
O159 C130 1.244 . S
O159 Zn131 2.053 . S
Zn160 O161 2.055 . S
Zn160 O168 2.046 . S
Zn160 N176 2.036 . S
Zn160 O188 2.053 . S
Zn160 O190 2.066 . S
O161 Zn160 2.055 . S
O161 C164 1.259 . S
C162 O190 1.256 . S
C162 O191 1.244 . S
Zn163 O165 2.046 . S
Zn163 O167 2.055 . S
Zn163 N169 2.036 . S
Zn163 O187 2.066 . S
Zn163 O191 2.053 . S
C164 O161 1.259 . S
C164 O165 1.254 . S
O165 Zn163 2.046 . S
O165 C164 1.254 . S
C166 O187 1.256 . S
C166 O188 1.244 . S
O167 Zn163 2.055 . S
O167 C189 1.259 . S
O168 Zn160 2.046 . S
O168 C189 1.254 . S
N169 Zn163 2.036 . S
N169 C170 1.298 . S
N169 N172 1.398 . S
C170 N169 1.298 . S
C170 N173 1.367 . S
C170 C183 1.481 . S
C171 N172 1.299 . S
C171 N173 1.379 . S
N172 N169 1.398 . S
N172 C171 1.299 . S
N173 C170 1.367 . S
N173 C171 1.379 . S
C174 N176 1.298 . S
C174 N178 1.367 . S
C174 C182 1.481 . S
C175 N177 1.299 . S
C175 N178 1.379 . S
N176 Zn160 2.036 . S
N176 C174 1.298 . S
N176 N177 1.398 . S
N177 C175 1.299 . S
N177 N176 1.398 . S
N178 C174 1.367 . S
N178 C175 1.379 . S
H179 C182 0.980 . S
H180 C182 0.981 . S
H181 C182 0.981 . S
C182 C174 1.481 . S
C182 H179 0.980 . S
C182 H180 0.981 . S
C182 H181 0.981 . S
C183 C170 1.481 . S
C183 H184 0.980 . S
C183 H185 0.981 . S
C183 H186 0.981 . S
H184 C183 0.980 . S
H185 C183 0.981 . S
H186 C183 0.981 . S
O187 Zn163 2.066 . S
O187 C166 1.256 . S
O188 Zn160 2.053 . S
O188 C166 1.244 . S
C189 O167 1.259 . S
C189 O168 1.254 . S
O190 Zn160 2.066 . S
O190 C162 1.256 . S
O191 C162 1.244 . S
O191 Zn163 2.053 . S
Zn192 O193 2.055 . S
Zn192 O200 2.046 . S
Zn192 N208 2.036 . S
Zn192 O220 2.053 . S
Zn192 O222 2.066 . S
O193 Zn192 2.055 . S
O193 C196 1.259 . S
C194 O222 1.256 . S
C194 O223 1.244 . S
Zn195 O197 2.046 . S
Zn195 O199 2.055 . S
Zn195 N201 2.036 . S
Zn195 O219 2.066 . S
Zn195 O223 2.053 . S
C196 O193 1.259 . S
C196 O197 1.254 . S
O197 Zn195 2.046 . S
O197 C196 1.254 . S
C198 O219 1.256 . S
C198 O220 1.244 . S
O199 Zn195 2.055 . S
O199 C221 1.259 . S
O200 Zn192 2.046 . S
O200 C221 1.254 . S
N201 Zn195 2.036 . S
N201 C202 1.298 . S
N201 N204 1.398 . S
C202 N201 1.298 . S
C202 N205 1.367 . S
C202 C215 1.481 . S
C203 N204 1.299 . S
C203 N205 1.379 . S
N204 N201 1.398 . S
N204 C203 1.299 . S
N205 C202 1.367 . S
N205 C203 1.379 . S
C206 N208 1.298 . S
C206 N210 1.367 . S
C206 C214 1.481 . S
C207 N209 1.299 . S
C207 N210 1.379 . S
N208 Zn192 2.036 . S
N208 C206 1.298 . S
N208 N209 1.398 . S
N209 C207 1.299 . S
N209 N208 1.398 . S
N210 C206 1.367 . S
N210 C207 1.379 . S
H211 C214 0.980 . S
H212 C214 0.981 . S
H213 C214 0.981 . S
C214 C206 1.481 . S
C214 H211 0.980 . S
C214 H212 0.981 . S
C214 H213 0.981 . S
C215 C202 1.481 . S
C215 H216 0.980 . S
C215 H217 0.981 . S
C215 H218 0.981 . S
H216 C215 0.980 . S
H217 C215 0.981 . S
H218 C215 0.981 . S
O219 Zn195 2.066 . S
O219 C198 1.256 . S
O220 Zn192 2.053 . S
O220 C198 1.244 . S
C221 O199 1.259 . S
C221 O200 1.254 . S
O222 Zn192 2.066 . S
O222 C194 1.256 . S
O223 C194 1.244 . S
O223 Zn195 2.053 . S
Zn224 O225 2.055 . S
Zn224 O232 2.046 . S
Zn224 N240 2.036 . S
Zn224 O252 2.053 . S
Zn224 O254 2.066 . S
O225 Zn224 2.055 . S
O225 C228 1.259 . S
C226 O254 1.256 . S
C226 O255 1.244 . S
Zn227 O229 2.046 . S
Zn227 O231 2.055 . S
Zn227 N233 2.036 . S
Zn227 O251 2.066 . S
Zn227 O255 2.053 . S
C228 O225 1.259 . S
C228 O229 1.254 . S
O229 Zn227 2.046 . S
O229 C228 1.254 . S
C230 O251 1.256 . S
C230 O252 1.244 . S
O231 Zn227 2.055 . S
O231 C253 1.259 . S
O232 Zn224 2.046 . S
O232 C253 1.254 . S
N233 Zn227 2.036 . S
N233 C234 1.298 . S
N233 N236 1.398 . S
C234 N233 1.298 . S
C234 N237 1.367 . S
C234 C247 1.481 . S
C235 N236 1.299 . S
C235 N237 1.379 . S
N236 N233 1.398 . S
N236 C235 1.299 . S
N237 C234 1.367 . S
N237 C235 1.379 . S
C238 N240 1.298 . S
C238 N242 1.367 . S
C238 C246 1.481 . S
C239 N241 1.299 . S
C239 N242 1.379 . S
N240 Zn224 2.036 . S
N240 C238 1.298 . S
N240 N241 1.398 . S
N241 C239 1.299 . S
N241 N240 1.398 . S
N242 C238 1.367 . S
N242 C239 1.379 . S
H243 C246 0.980 . S
H244 C246 0.981 . S
H245 C246 0.981 . S
C246 C238 1.481 . S
C246 H243 0.980 . S
C246 H244 0.981 . S
C246 H245 0.981 . S
C247 C234 1.481 . S
C247 H248 0.980 . S
C247 H249 0.981 . S
C247 H250 0.981 . S
H248 C247 0.980 . S
H249 C247 0.981 . S
H250 C247 0.981 . S
O251 Zn227 2.066 . S
O251 C230 1.256 . S
O252 Zn224 2.053 . S
O252 C230 1.244 . S
C253 O231 1.259 . S
C253 O232 1.254 . S
O254 Zn224 2.066 . S
O254 C226 1.256 . S
O255 C226 1.244 . S
O255 Zn227 2.053 . S
Zn256 O257 2.055 . S
Zn256 O264 2.046 . S
Zn256 N272 2.036 . S
Zn256 O284 2.053 . S
Zn256 O286 2.066 . S
O257 Zn256 2.055 . S
O257 C260 1.259 . S
C258 O286 1.256 . S
C258 O287 1.244 . S
Zn259 O261 2.046 . S
Zn259 O263 2.055 . S
Zn259 N265 2.036 . S
Zn259 O283 2.066 . S
Zn259 O287 2.053 . S
C260 O257 1.259 . S
C260 O261 1.254 . S
O261 Zn259 2.046 . S
O261 C260 1.254 . S
C262 O283 1.256 . S
C262 O284 1.244 . S
O263 Zn259 2.055 . S
O263 C285 1.259 . S
O264 Zn256 2.046 . S
O264 C285 1.254 . S
N265 Zn259 2.036 . S
N265 C266 1.298 . S
N265 N268 1.398 . S
C266 N265 1.298 . S
C266 N269 1.367 . S
C266 C279 1.481 . S
C267 N268 1.299 . S
C267 N269 1.379 . S
N268 N265 1.398 . S
N268 C267 1.299 . S
N269 C266 1.367 . S
N269 C267 1.379 . S
C270 N272 1.298 . S
C270 N274 1.367 . S
C270 C278 1.481 . S
C271 N273 1.299 . S
C271 N274 1.379 . S
N272 Zn256 2.036 . S
N272 C270 1.298 . S
N272 N273 1.398 . S
N273 C271 1.299 . S
N273 N272 1.398 . S
N274 C270 1.367 . S
N274 C271 1.379 . S
H275 C278 0.980 . S
H276 C278 0.981 . S
H277 C278 0.981 . S
C278 C270 1.481 . S
C278 H275 0.980 . S
C278 H276 0.981 . S
C278 H277 0.981 . S
C279 C266 1.481 . S
C279 H280 0.980 . S
C279 H281 0.981 . S
C279 H282 0.981 . S
H280 C279 0.980 . S
H281 C279 0.981 . S
H282 C279 0.981 . S
O283 Zn259 2.066 . S
O283 C262 1.256 . S
O284 Zn256 2.053 . S
O284 C262 1.244 . S
C285 O263 1.259 . S
C285 O264 1.254 . S
O286 Zn256 2.066 . S
O286 C258 1.256 . S
O287 C258 1.244 . S
O287 Zn259 2.053 . S
Zn288 O289 2.055 . S
Zn288 O296 2.046 . S
Zn288 N304 2.036 . S
Zn288 O316 2.053 . S
Zn288 O318 2.066 . S
O289 Zn288 2.055 . S
O289 C292 1.259 . S
C290 O318 1.256 . S
C290 O319 1.244 . S
Zn291 O293 2.046 . S
Zn291 O295 2.055 . S
Zn291 N297 2.036 . S
Zn291 O315 2.066 . S
Zn291 O319 2.053 . S
C292 O289 1.259 . S
C292 O293 1.254 . S
O293 Zn291 2.046 . S
O293 C292 1.254 . S
C294 O315 1.256 . S
C294 O316 1.244 . S
O295 Zn291 2.055 . S
O295 C317 1.259 . S
O296 Zn288 2.046 . S
O296 C317 1.254 . S
N297 Zn291 2.036 . S
N297 C298 1.298 . S
N297 N300 1.398 . S
C298 N297 1.298 . S
C298 N301 1.367 . S
C298 C311 1.481 . S
C299 N300 1.299 . S
C299 N301 1.379 . S
N300 N297 1.398 . S
N300 C299 1.299 . S
N301 C298 1.367 . S
N301 C299 1.379 . S
C302 N304 1.298 . S
C302 N306 1.367 . S
C302 C310 1.481 . S
C303 N305 1.299 . S
C303 N306 1.379 . S
N304 Zn288 2.036 . S
N304 C302 1.298 . S
N304 N305 1.398 . S
N305 C303 1.299 . S
N305 N304 1.398 . S
N306 C302 1.367 . S
N306 C303 1.379 . S
H307 C310 0.980 . S
H308 C310 0.981 . S
H309 C310 0.981 . S
C310 C302 1.481 . S
C310 H307 0.980 . S
C310 H308 0.981 . S
C310 H309 0.981 . S
C311 C298 1.481 . S
C311 H312 0.980 . S
C311 H313 0.981 . S
C311 H314 0.981 . S
H312 C311 0.980 . S
H313 C311 0.981 . S
H314 C311 0.981 . S
O315 Zn291 2.066 . S
O315 C294 1.256 . S
O316 Zn288 2.053 . S
O316 C294 1.244 . S
C317 O295 1.259 . S
C317 O296 1.254 . S
O318 Zn288 2.066 . S
O318 C290 1.256 . S
O319 C290 1.244 . S
O319 Zn291 2.053 . S
Zn320 O321 2.055 . S
Zn320 O328 2.046 . S
Zn320 N336 2.036 . S
Zn320 O348 2.053 . S
Zn320 O350 2.066 . S
O321 Zn320 2.055 . S
O321 C324 1.259 1_554 S
C322 O350 1.256 . S
C322 O351 1.244 . S
Zn323 O325 2.046 1_554 S
Zn323 O327 2.055 . S
Zn323 N329 2.036 . S
Zn323 O347 2.066 . S
Zn323 O351 2.053 . S
C324 O321 1.259 1_556 S
C324 O325 1.254 . S
O325 Zn323 2.046 1_556 S
O325 C324 1.254 . S
C326 O347 1.256 . S
C326 O348 1.244 . S
O327 Zn323 2.055 . S
O327 C349 1.259 . S
O328 Zn320 2.046 . S
O328 C349 1.254 . S
N329 Zn323 2.036 . S
N329 C330 1.298 . S
N329 N332 1.398 1_554 S
C330 N329 1.298 . S
C330 N333 1.367 1_554 S
C330 C343 1.481 . S
C331 N332 1.299 . S
C331 N333 1.379 . S
N332 N329 1.398 1_556 S
N332 C331 1.299 . S
N333 C330 1.367 1_556 S
N333 C331 1.379 . S
C334 N336 1.298 . S
C334 N338 1.367 . S
C334 C342 1.481 . S
C335 N337 1.299 . S
C335 N338 1.379 . S
N336 Zn320 2.036 . S
N336 C334 1.298 . S
N336 N337 1.398 . S
N337 C335 1.299 . S
N337 N336 1.398 . S
N338 C334 1.367 . S
N338 C335 1.379 . S
H339 C342 0.980 . S
H340 C342 0.981 . S
H341 C342 0.981 . S
C342 C334 1.481 . S
C342 H339 0.980 . S
C342 H340 0.981 . S
C342 H341 0.981 . S
C343 C330 1.481 . S
C343 H344 0.980 . S
C343 H345 0.981 . S
C343 H346 0.981 . S
H344 C343 0.980 . S
H345 C343 0.981 . S
H346 C343 0.981 . S
O347 Zn323 2.066 . S
O347 C326 1.256 . S
O348 Zn320 2.053 . S
O348 C326 1.244 . S
C349 O327 1.259 . S
C349 O328 1.254 . S
O350 Zn320 2.066 . S
O350 C322 1.256 . S
O351 C322 1.244 . S
O351 Zn323 2.053 . S
Zn352 O353 2.055 . S
Zn352 O360 2.046 . S
Zn352 N368 2.036 . S
Zn352 O380 2.053 . S
Zn352 O382 2.066 . S
O353 Zn352 2.055 . S
O353 C356 1.259 . S
C354 O382 1.256 . S
C354 O383 1.244 . S
Zn355 O357 2.046 . S
Zn355 O359 2.055 . S
Zn355 N361 2.036 . S
Zn355 O379 2.066 . S
Zn355 O383 2.053 . S
C356 O353 1.259 . S
C356 O357 1.254 . S
O357 Zn355 2.046 . S
O357 C356 1.254 . S
C358 O379 1.256 . S
C358 O380 1.244 . S
O359 Zn355 2.055 . S
O359 C381 1.259 . S
O360 Zn352 2.046 . S
O360 C381 1.254 . S
N361 Zn355 2.036 . S
N361 C362 1.298 . S
N361 N364 1.398 . S
C362 N361 1.298 . S
C362 N365 1.367 . S
C362 C375 1.481 . S
C363 N364 1.299 . S
C363 N365 1.379 . S
N364 N361 1.398 . S
N364 C363 1.299 . S
N365 C362 1.367 . S
N365 C363 1.379 . S
C366 N368 1.298 . S
C366 N370 1.367 . S
C366 C374 1.481 . S
C367 N369 1.299 . S
C367 N370 1.379 . S
N368 Zn352 2.036 . S
N368 C366 1.298 . S
N368 N369 1.398 . S
N369 C367 1.299 . S
N369 N368 1.398 . S
N370 C366 1.367 . S
N370 C367 1.379 . S
H371 C374 0.980 . S
H372 C374 0.981 . S
H373 C374 0.981 . S
C374 C366 1.481 . S
C374 H371 0.980 . S
C374 H372 0.981 . S
C374 H373 0.981 . S
C375 C362 1.481 . S
C375 H376 0.980 . S
C375 H377 0.981 . S
C375 H378 0.981 . S
H376 C375 0.980 . S
H377 C375 0.981 . S
H378 C375 0.981 . S
O379 Zn355 2.066 . S
O379 C358 1.256 . S
O380 Zn352 2.053 . S
O380 C358 1.244 . S
C381 O359 1.259 . S
C381 O360 1.254 . S
O382 Zn352 2.066 . S
O382 C354 1.256 . S
O383 C354 1.244 . S
O383 Zn355 2.053 . S
Zn384 O385 2.055 . S
Zn384 O392 2.046 . S
Zn384 N400 2.036 . S
Zn384 O412 2.053 . S
Zn384 O414 2.066 . S
O385 Zn384 2.055 . S
O385 C388 1.259 . S
C386 O414 1.256 . S
C386 O415 1.244 . S
Zn387 O389 2.046 . S
Zn387 O391 2.055 . S
Zn387 N393 2.036 . S
Zn387 O411 2.066 . S
Zn387 O415 2.053 . S
C388 O385 1.259 . S
C388 O389 1.254 . S
O389 Zn387 2.046 . S
O389 C388 1.254 . S
C390 O411 1.256 . S
C390 O412 1.244 . S
O391 Zn387 2.055 . S
O391 C413 1.259 . S
O392 Zn384 2.046 . S
O392 C413 1.254 . S
N393 Zn387 2.036 . S
N393 C394 1.298 . S
N393 N396 1.398 . S
C394 N393 1.298 . S
C394 N397 1.367 . S
C394 C407 1.481 . S
C395 N396 1.299 . S
C395 N397 1.379 . S
N396 N393 1.398 . S
N396 C395 1.299 . S
N397 C394 1.367 . S
N397 C395 1.379 . S
C398 N400 1.298 . S
C398 N402 1.367 . S
C398 C406 1.481 . S
C399 N401 1.299 . S
C399 N402 1.379 . S
N400 Zn384 2.036 . S
N400 C398 1.298 . S
N400 N401 1.398 . S
N401 C399 1.299 . S
N401 N400 1.398 . S
N402 C398 1.367 . S
N402 C399 1.379 . S
H403 C406 0.980 . S
H404 C406 0.981 . S
H405 C406 0.981 . S
C406 C398 1.481 . S
C406 H403 0.980 . S
C406 H404 0.981 . S
C406 H405 0.981 . S
C407 C394 1.481 . S
C407 H408 0.980 . S
C407 H409 0.981 . S
C407 H410 0.981 . S
H408 C407 0.980 . S
H409 C407 0.981 . S
H410 C407 0.981 . S
O411 Zn387 2.066 . S
O411 C390 1.256 . S
O412 Zn384 2.053 . S
O412 C390 1.244 . S
C413 O391 1.259 . S
C413 O392 1.254 . S
O414 Zn384 2.066 . S
O414 C386 1.256 . S
O415 C386 1.244 . S
O415 Zn387 2.053 . S
Zn416 O417 2.055 . S
Zn416 O424 2.046 . S
Zn416 N432 2.036 . S
Zn416 O444 2.053 . S
Zn416 O446 2.066 . S
O417 Zn416 2.055 . S
O417 C420 1.259 . S
C418 O446 1.256 . S
C418 O447 1.244 . S
Zn419 O421 2.046 . S
Zn419 O423 2.055 . S
Zn419 N425 2.036 . S
Zn419 O443 2.066 . S
Zn419 O447 2.053 . S
C420 O417 1.259 . S
C420 O421 1.254 . S
O421 Zn419 2.046 . S
O421 C420 1.254 . S
C422 O443 1.256 . S
C422 O444 1.244 . S
O423 Zn419 2.055 . S
O423 C445 1.259 . S
O424 Zn416 2.046 . S
O424 C445 1.254 . S
N425 Zn419 2.036 . S
N425 C426 1.298 . S
N425 N428 1.398 . S
C426 N425 1.298 . S
C426 N429 1.367 . S
C426 C439 1.481 . S
C427 N428 1.299 . S
C427 N429 1.379 . S
N428 N425 1.398 . S
N428 C427 1.299 . S
N429 C426 1.367 . S
N429 C427 1.379 . S
C430 N432 1.298 . S
C430 N434 1.367 . S
C430 C438 1.481 . S
C431 N433 1.299 . S
C431 N434 1.379 . S
N432 Zn416 2.036 . S
N432 C430 1.298 . S
N432 N433 1.398 . S
N433 C431 1.299 . S
N433 N432 1.398 . S
N434 C430 1.367 . S
N434 C431 1.379 . S
H435 C438 0.980 . S
H436 C438 0.981 . S
H437 C438 0.981 . S
C438 C430 1.481 . S
C438 H435 0.980 . S
C438 H436 0.981 . S
C438 H437 0.981 . S
C439 C426 1.481 . S
C439 H440 0.980 . S
C439 H441 0.981 . S
C439 H442 0.981 . S
H440 C439 0.980 . S
H441 C439 0.981 . S
H442 C439 0.981 . S
O443 Zn419 2.066 . S
O443 C422 1.256 . S
O444 Zn416 2.053 . S
O444 C422 1.244 . S
C445 O423 1.259 . S
C445 O424 1.254 . S
O446 Zn416 2.066 . S
O446 C418 1.256 . S
O447 C418 1.244 . S
O447 Zn419 2.053 . S
Zn448 O449 2.055 . S
Zn448 O456 2.046 1_556 S
Zn448 N464 2.036 . S
Zn448 O476 2.053 . S
Zn448 O478 2.066 . S
O449 Zn448 2.055 . S
O449 C452 1.259 . S
C450 O478 1.256 . S
C450 O479 1.244 . S
Zn451 O453 2.046 . S
Zn451 O455 2.055 . S
Zn451 N457 2.036 . S
Zn451 O475 2.066 . S
Zn451 O479 2.053 . S
C452 O449 1.259 . S
C452 O453 1.254 . S
O453 Zn451 2.046 . S
O453 C452 1.254 . S
C454 O475 1.256 . S
C454 O476 1.244 . S
O455 Zn451 2.055 . S
O455 C477 1.259 1_556 S
O456 Zn448 2.046 1_554 S
O456 C477 1.254 . S
N457 Zn451 2.036 . S
N457 C458 1.298 . S
N457 N460 1.398 . S
C458 N457 1.298 . S
C458 N461 1.367 . S
C458 C471 1.481 . S
C459 N460 1.299 . S
C459 N461 1.379 . S
N460 N457 1.398 . S
N460 C459 1.299 . S
N461 C458 1.367 . S
N461 C459 1.379 . S
C462 N464 1.298 . S
C462 N466 1.367 1_556 S
C462 C470 1.481 . S
C463 N465 1.299 . S
C463 N466 1.379 . S
N464 Zn448 2.036 . S
N464 C462 1.298 . S
N464 N465 1.398 1_556 S
N465 C463 1.299 . S
N465 N464 1.398 1_554 S
N466 C462 1.367 1_554 S
N466 C463 1.379 . S
H467 C470 0.980 . S
H468 C470 0.981 . S
H469 C470 0.981 . S
C470 C462 1.481 . S
C470 H467 0.980 . S
C470 H468 0.981 . S
C470 H469 0.981 . S
C471 C458 1.481 . S
C471 H472 0.980 . S
C471 H473 0.981 . S
C471 H474 0.981 . S
H472 C471 0.980 . S
H473 C471 0.981 . S
H474 C471 0.981 . S
O475 Zn451 2.066 . S
O475 C454 1.256 . S
O476 Zn448 2.053 . S
O476 C454 1.244 . S
C477 O455 1.259 1_554 S
C477 O456 1.254 . S
O478 Zn448 2.066 . S
O478 C450 1.256 . S
O479 C450 1.244 . S
O479 Zn451 2.053 . S
Zn480 O481 2.055 . S
Zn480 O488 2.046 . S
Zn480 N496 2.036 . S
Zn480 O508 2.053 . S
Zn480 O510 2.066 . S
O481 Zn480 2.055 . S
O481 C484 1.259 . S
C482 O510 1.256 . S
C482 O511 1.244 . S
Zn483 O485 2.046 . S
Zn483 O487 2.055 . S
Zn483 N489 2.036 . S
Zn483 O507 2.066 . S
Zn483 O511 2.053 . S
C484 O481 1.259 . S
C484 O485 1.254 . S
O485 Zn483 2.046 . S
O485 C484 1.254 . S
C486 O507 1.256 . S
C486 O508 1.244 . S
O487 Zn483 2.055 . S
O487 C509 1.259 . S
O488 Zn480 2.046 . S
O488 C509 1.254 . S
N489 Zn483 2.036 . S
N489 C490 1.298 . S
N489 N492 1.398 . S
C490 N489 1.298 . S
C490 N493 1.367 . S
C490 C503 1.481 . S
C491 N492 1.299 . S
C491 N493 1.379 . S
N492 N489 1.398 . S
N492 C491 1.299 . S
N493 C490 1.367 . S
N493 C491 1.379 . S
C494 N496 1.298 . S
C494 N498 1.367 . S
C494 C502 1.481 . S
C495 N497 1.299 . S
C495 N498 1.379 . S
N496 Zn480 2.036 . S
N496 C494 1.298 . S
N496 N497 1.398 . S
N497 C495 1.299 . S
N497 N496 1.398 . S
N498 C494 1.367 . S
N498 C495 1.379 . S
H499 C502 0.980 . S
H500 C502 0.981 . S
H501 C502 0.981 . S
C502 C494 1.481 . S
C502 H499 0.980 . S
C502 H500 0.981 . S
C502 H501 0.981 . S
C503 C490 1.481 . S
C503 H504 0.980 . S
C503 H505 0.981 . S
C503 H506 0.981 . S
H504 C503 0.980 . S
H505 C503 0.981 . S
H506 C503 0.981 . S
O507 Zn483 2.066 . S
O507 C486 1.256 . S
O508 Zn480 2.053 . S
O508 C486 1.244 . S
C509 O487 1.259 . S
C509 O488 1.254 . S
O510 Zn480 2.066 . S
O510 C482 1.256 . S
O511 C482 1.244 . S
O511 Zn483 2.053 . S
H512 C520 0.929 . S
H513 C522 0.930 . S
H514 C524 0.930 . S
H515 C527 0.929 . S
H516 C530 0.930 . S
H517 C532 0.960 . S
H518 C532 0.960 . S
H519 C532 0.960 . S
C520 H512 0.929 . S
C520 C521 1.377 . S
C520 C522 1.384 . S
C521 C520 1.377 . S
C521 C527 1.390 . S
C522 H513 0.930 . S
C522 C520 1.384 . S
C522 C523 1.372 . S
C523 C522 1.372 . S
C523 C524 1.400 . S
C523 C528 1.490 . S
C524 H514 0.930 . S
C524 C523 1.400 . S
C524 C527 1.386 . S
H525 C541 0.930 . S
H526 C542 0.931 . S
C527 H515 0.929 . S
C527 C521 1.390 . S
C527 C524 1.386 . S
C528 C523 1.490 . S
C528 C530 1.395 . S
C528 C531 1.403 . S
H529 C535 0.930 . S
C530 H516 0.930 . S
C530 C528 1.395 . S
C530 C533 1.403 . S
C531 C528 1.403 . S
C531 C532 1.524 . S
C531 C535 1.400 . S
C532 H517 0.960 . S
C532 H518 0.960 . S
C532 H519 0.960 . S
C532 C531 1.524 . S
C533 C530 1.403 . S
C533 C534 1.392 . S
C533 C537 1.495 . S
C534 C533 1.392 . S
C534 C535 1.385 . S
C534 C536 1.478 . S
C535 H529 0.930 . S
C535 C531 1.400 . S
C535 C534 1.385 . S
C536 C534 1.478 . S
C536 C538 1.381 . S
C536 C542 1.383 . S
C537 C533 1.495 . S
C537 H543 0.959 . S
C537 H544 0.961 . S
C537 H545 0.960 . S
C538 C536 1.381 . S
C538 C539 1.394 . S
C538 H546 0.930 . S
C539 C538 1.394 . S
C539 C540 1.383 . S
C539 H547 0.929 . S
C540 C539 1.383 . S
C540 C541 1.377 . S
C541 H525 0.930 . S
C541 C540 1.377 . S
C541 C542 1.379 . S
C542 H526 0.931 . S
C542 C536 1.383 . S
C542 C541 1.379 . S
H543 C537 0.959 . S
H544 C537 0.961 . S
H545 C537 0.960 . S
H546 C538 0.930 . S
H547 C539 0.929 . S
H548 C556 0.929 . S
H549 C558 0.930 . S
H550 C560 0.930 . S
H551 C563 0.929 . S
H552 C566 0.930 . S
H553 C568 0.960 . S
H554 C568 0.960 . S
H555 C568 0.960 . S
C556 H548 0.929 . S
C556 C557 1.377 . S
C556 C558 1.384 . S
C557 C556 1.377 . S
C557 C563 1.390 . S
C558 H549 0.930 . S
C558 C556 1.384 . S
C558 C559 1.372 . S
C559 C558 1.372 . S
C559 C560 1.400 . S
C559 C564 1.490 . S
C560 H550 0.930 . S
C560 C559 1.400 . S
C560 C563 1.386 . S
H561 C577 0.930 . S
H562 C578 0.931 . S
C563 H551 0.929 . S
C563 C557 1.390 . S
C563 C560 1.386 . S
C564 C559 1.490 . S
C564 C566 1.395 . S
C564 C567 1.403 . S
H565 C571 0.930 . S
C566 H552 0.930 . S
C566 C564 1.395 . S
C566 C569 1.403 . S
C567 C564 1.403 . S
C567 C568 1.524 . S
C567 C571 1.400 . S
C568 H553 0.960 . S
C568 H554 0.960 . S
C568 H555 0.960 . S
C568 C567 1.524 . S
C569 C566 1.403 . S
C569 C570 1.392 . S
C569 C573 1.495 . S
C570 C569 1.392 . S
C570 C571 1.385 . S
C570 C572 1.478 . S
C571 H565 0.930 . S
C571 C567 1.400 . S
C571 C570 1.385 . S
C572 C570 1.478 . S
C572 C574 1.381 . S
C572 C578 1.383 . S
C573 C569 1.495 . S
C573 H579 0.959 . S
C573 H580 0.961 . S
C573 H581 0.960 . S
C574 C572 1.381 . S
C574 C575 1.394 . S
C574 H582 0.930 . S
C575 C574 1.394 . S
C575 C576 1.383 . S
C575 H583 0.929 . S
C576 C575 1.383 . S
C576 C577 1.377 . S
C577 H561 0.930 . S
C577 C576 1.377 . S
C577 C578 1.379 . S
C578 H562 0.931 . S
C578 C572 1.383 . S
C578 C577 1.379 . S
H579 C573 0.959 . S
H580 C573 0.961 . S
H581 C573 0.960 . S
H582 C574 0.930 . S
H583 C575 0.929 . S
H584 C592 0.929 . S
H585 C594 0.930 . S
H586 C596 0.930 . S
H587 C599 0.929 . S
H588 C602 0.930 . S
H589 C604 0.960 . S
H590 C604 0.960 . S
H591 C604 0.960 . S
C592 H584 0.929 . S
C592 C593 1.377 . S
C592 C594 1.384 . S
C593 C592 1.377 . S
C593 C599 1.390 . S
C594 H585 0.930 . S
C594 C592 1.384 . S
C594 C595 1.372 . S
C595 C594 1.372 . S
C595 C596 1.400 . S
C595 C600 1.490 . S
C596 H586 0.930 . S
C596 C595 1.400 . S
C596 C599 1.386 . S
H597 C613 0.930 . S
H598 C614 0.931 . S
C599 H587 0.929 . S
C599 C593 1.390 . S
C599 C596 1.386 . S
C600 C595 1.490 . S
C600 C602 1.395 . S
C600 C603 1.403 . S
H601 C607 0.930 . S
C602 H588 0.930 . S
C602 C600 1.395 . S
C602 C605 1.403 1_455 S
C603 C600 1.403 . S
C603 C604 1.524 . S
C603 C607 1.400 1_455 S
C604 H589 0.960 . S
C604 H590 0.960 . S
C604 H591 0.960 . S
C604 C603 1.524 . S
C605 C602 1.403 1_655 S
C605 C606 1.392 . S
C605 C609 1.495 . S
C606 C605 1.392 . S
C606 C607 1.385 . S
C606 C608 1.478 . S
C607 H601 0.930 . S
C607 C603 1.400 1_655 S
C607 C606 1.385 . S
C608 C606 1.478 . S
C608 C610 1.381 . S
C608 C614 1.383 . S
C609 C605 1.495 . S
C609 H615 0.959 . S
C609 H616 0.961 . S
C609 H617 0.960 . S
C610 C608 1.381 . S
C610 C611 1.394 . S
C610 H618 0.930 . S
C611 C610 1.394 . S
C611 C612 1.383 . S
C611 H619 0.929 . S
C612 C611 1.383 . S
C612 C613 1.377 . S
C613 H597 0.930 . S
C613 C612 1.377 . S
C613 C614 1.379 . S
C614 H598 0.931 . S
C614 C608 1.383 . S
C614 C613 1.379 . S
H615 C609 0.959 . S
H616 C609 0.961 . S
H617 C609 0.960 . S
H618 C610 0.930 . S
H619 C611 0.929 . S
H620 C628 0.929 . S
H621 C630 0.930 . S
H622 C632 0.930 . S
H623 C635 0.929 . S
H624 C638 0.930 . S
H625 C640 0.960 . S
H626 C640 0.960 . S
H627 C640 0.960 . S
C628 H620 0.929 . S
C628 C629 1.377 . S
C628 C630 1.384 . S
C629 C628 1.377 . S
C629 C635 1.390 . S
C630 H621 0.930 . S
C630 C628 1.384 . S
C630 C631 1.372 . S
C631 C630 1.372 . S
C631 C632 1.400 . S
C631 C636 1.490 . S
C632 H622 0.930 . S
C632 C631 1.400 . S
C632 C635 1.386 . S
H633 C649 0.930 . S
H634 C650 0.931 . S
C635 H623 0.929 . S
C635 C629 1.390 . S
C635 C632 1.386 . S
C636 C631 1.490 . S
C636 C638 1.395 . S
C636 C639 1.403 1_655 S
H637 C643 0.930 . S
C638 H624 0.930 . S
C638 C636 1.395 . S
C638 C641 1.403 . S
C639 C636 1.403 1_455 S
C639 C640 1.524 . S
C639 C643 1.400 . S
C640 H625 0.960 . S
C640 H626 0.960 . S
C640 H627 0.960 . S
C640 C639 1.524 . S
C641 C638 1.403 . S
C641 C642 1.392 1_655 S
C641 C645 1.495 . S
C642 C641 1.392 1_455 S
C642 C643 1.385 . S
C642 C644 1.478 . S
C643 H637 0.930 . S
C643 C639 1.400 . S
C643 C642 1.385 . S
C644 C642 1.478 . S
C644 C646 1.381 . S
C644 C650 1.383 . S
C645 C641 1.495 . S
C645 H651 0.959 . S
C645 H652 0.961 . S
C645 H653 0.960 . S
C646 C644 1.381 . S
C646 C647 1.394 . S
C646 H654 0.930 . S
C647 C646 1.394 . S
C647 C648 1.383 . S
C647 H655 0.929 . S
C648 C647 1.383 . S
C648 C649 1.377 . S
C649 H633 0.930 . S
C649 C648 1.377 . S
C649 C650 1.379 . S
C650 H634 0.931 . S
C650 C644 1.383 . S
C650 C649 1.379 . S
H651 C645 0.959 . S
H652 C645 0.961 . S
H653 C645 0.960 . S
H654 C646 0.930 . S
H655 C647 0.929 . S
H656 C664 0.929 . S
H657 C666 0.930 . S
H658 C668 0.930 . S
H659 C671 0.929 . S
H660 C674 0.930 . S
H661 C676 0.960 . S
H662 C676 0.960 . S
H663 C676 0.960 . S
C664 H656 0.929 . S
C664 C665 1.377 . S
C664 C666 1.384 . S
C665 C664 1.377 . S
C665 C671 1.390 . S
C666 H657 0.930 . S
C666 C664 1.384 . S
C666 C667 1.372 . S
C667 C666 1.372 . S
C667 C668 1.400 . S
C667 C672 1.490 . S
C668 H658 0.930 . S
C668 C667 1.400 . S
C668 C671 1.386 . S
H669 C685 0.930 . S
H670 C686 0.931 . S
C671 H659 0.929 . S
C671 C665 1.390 . S
C671 C668 1.386 . S
C672 C667 1.490 . S
C672 C674 1.395 . S
C672 C675 1.403 . S
H673 C679 0.930 . S
C674 H660 0.930 . S
C674 C672 1.395 . S
C674 C677 1.403 . S
C675 C672 1.403 . S
C675 C676 1.524 . S
C675 C679 1.400 . S
C676 H661 0.960 . S
C676 H662 0.960 . S
C676 H663 0.960 . S
C676 C675 1.524 . S
C677 C674 1.403 . S
C677 C678 1.392 . S
C677 C681 1.495 . S
C678 C677 1.392 . S
C678 C679 1.385 . S
C678 C680 1.478 . S
C679 H673 0.930 . S
C679 C675 1.400 . S
C679 C678 1.385 . S
C680 C678 1.478 . S
C680 C682 1.381 . S
C680 C686 1.383 . S
C681 C677 1.495 . S
C681 H687 0.959 . S
C681 H688 0.961 . S
C681 H689 0.960 . S
C682 C680 1.381 . S
C682 C683 1.394 . S
C682 H690 0.930 . S
C683 C682 1.394 . S
C683 C684 1.383 . S
C683 H691 0.929 . S
C684 C683 1.383 . S
C684 C685 1.377 . S
C685 H669 0.930 . S
C685 C684 1.377 . S
C685 C686 1.379 . S
C686 H670 0.931 . S
C686 C680 1.383 . S
C686 C685 1.379 . S
H687 C681 0.959 . S
H688 C681 0.961 . S
H689 C681 0.960 . S
H690 C682 0.930 . S
H691 C683 0.929 . S
H692 C700 0.929 . S
H693 C702 0.930 . S
H694 C704 0.930 . S
H695 C707 0.929 . S
H696 C710 0.930 . S
H697 C712 0.960 . S
H698 C712 0.960 . S
H699 C712 0.960 . S
C700 H692 0.929 . S
C700 C701 1.377 . S
C700 C702 1.384 . S
C701 C700 1.377 . S
C701 C707 1.390 . S
C702 H693 0.930 . S
C702 C700 1.384 . S
C702 C703 1.372 . S
C703 C702 1.372 . S
C703 C704 1.400 . S
C703 C708 1.490 . S
C704 H694 0.930 . S
C704 C703 1.400 . S
C704 C707 1.386 . S
H705 C721 0.930 . S
H706 C722 0.931 . S
C707 H695 0.929 . S
C707 C701 1.390 . S
C707 C704 1.386 . S
C708 C703 1.490 . S
C708 C710 1.395 . S
C708 C711 1.403 . S
H709 C715 0.930 . S
C710 H696 0.930 . S
C710 C708 1.395 . S
C710 C713 1.403 . S
C711 C708 1.403 . S
C711 C712 1.524 . S
C711 C715 1.400 . S
C712 H697 0.960 . S
C712 H698 0.960 . S
C712 H699 0.960 . S
C712 C711 1.524 . S
C713 C710 1.403 . S
C713 C714 1.392 . S
C713 C717 1.495 . S
C714 C713 1.392 . S
C714 C715 1.385 . S
C714 C716 1.478 . S
C715 H709 0.930 . S
C715 C711 1.400 . S
C715 C714 1.385 . S
C716 C714 1.478 . S
C716 C718 1.381 . S
C716 C722 1.383 . S
C717 C713 1.495 . S
C717 H723 0.959 . S
C717 H724 0.961 . S
C717 H725 0.960 . S
C718 C716 1.381 . S
C718 C719 1.394 . S
C718 H726 0.930 . S
C719 C718 1.394 . S
C719 C720 1.383 . S
C719 H727 0.929 . S
C720 C719 1.383 . S
C720 C721 1.377 . S
C721 H705 0.930 . S
C721 C720 1.377 . S
C721 C722 1.379 . S
C722 H706 0.931 . S
C722 C716 1.383 . S
C722 C721 1.379 . S
H723 C717 0.959 . S
H724 C717 0.961 . S
H725 C717 0.960 . S
H726 C718 0.930 . S
H727 C719 0.929 . S
H728 C736 0.929 . S
H729 C738 0.930 . S
H730 C740 0.930 . S
H731 C743 0.929 . S
H732 C746 0.930 . S
H733 C748 0.960 . S
H734 C748 0.960 . S
H735 C748 0.960 . S
C736 H728 0.929 . S
C736 C737 1.377 . S
C736 C738 1.384 . S
C737 C736 1.377 . S
C737 C743 1.390 . S
C738 H729 0.930 . S
C738 C736 1.384 . S
C738 C739 1.372 . S
C739 C738 1.372 . S
C739 C740 1.400 . S
C739 C744 1.490 . S
C740 H730 0.930 . S
C740 C739 1.400 . S
C740 C743 1.386 . S
H741 C757 0.930 . S
H742 C758 0.931 . S
C743 H731 0.929 . S
C743 C737 1.390 . S
C743 C740 1.386 . S
C744 C739 1.490 . S
C744 C746 1.395 . S
C744 C747 1.403 . S
H745 C751 0.930 . S
C746 H732 0.930 . S
C746 C744 1.395 . S
C746 C749 1.403 1_655 S
C747 C744 1.403 . S
C747 C748 1.524 . S
C747 C751 1.400 1_655 S
C748 H733 0.960 . S
C748 H734 0.960 . S
C748 H735 0.960 . S
C748 C747 1.524 . S
C749 C746 1.403 1_455 S
C749 C750 1.392 . S
C749 C753 1.495 . S
C750 C749 1.392 . S
C750 C751 1.385 . S
C750 C752 1.478 . S
C751 H745 0.930 . S
C751 C747 1.400 1_455 S
C751 C750 1.385 . S
C752 C750 1.478 . S
C752 C754 1.381 . S
C752 C758 1.383 . S
C753 C749 1.495 . S
C753 H759 0.959 . S
C753 H760 0.961 . S
C753 H761 0.960 . S
C754 C752 1.381 . S
C754 C755 1.394 . S
C754 H762 0.930 . S
C755 C754 1.394 . S
C755 C756 1.383 . S
C755 H763 0.929 . S
C756 C755 1.383 . S
C756 C757 1.377 . S
C757 H741 0.930 . S
C757 C756 1.377 . S
C757 C758 1.379 . S
C758 H742 0.931 . S
C758 C752 1.383 . S
C758 C757 1.379 . S
H759 C753 0.959 . S
H760 C753 0.961 . S
H761 C753 0.960 . S
H762 C754 0.930 . S
H763 C755 0.929 . S
H764 C772 0.929 . S
H765 C774 0.930 1_655 S
H766 C776 0.930 . S
H767 C779 0.929 . S
H768 C782 0.930 . S
H769 C784 0.960 . S
H770 C784 0.960 . S
H771 C784 0.960 . S
C772 H764 0.929 . S
C772 C773 1.377 . S
C772 C774 1.384 . S
C773 C772 1.377 . S
C773 C779 1.390 . S
C774 H765 0.930 1_455 S
C774 C772 1.384 . S
C774 C775 1.372 . S
C775 C774 1.372 . S
C775 C776 1.400 . S
C775 C780 1.490 . S
C776 H766 0.930 . S
C776 C775 1.400 . S
C776 C779 1.386 . S
H777 C793 0.930 . S
H778 C794 0.931 1_455 S
C779 H767 0.929 . S
C779 C773 1.390 . S
C779 C776 1.386 . S
C780 C775 1.490 . S
C780 C782 1.395 1_455 S
C780 C783 1.403 . S
H781 C787 0.930 . S
C782 H768 0.930 . S
C782 C780 1.395 1_655 S
C782 C785 1.403 . S
C783 C780 1.403 . S
C783 C784 1.524 . S
C783 C787 1.400 . S
C784 H769 0.960 . S
C784 H770 0.960 . S
C784 H771 0.960 . S
C784 C783 1.524 . S
C785 C782 1.403 . S
C785 C786 1.392 . S
C785 C789 1.495 . S
C786 C785 1.392 . S
C786 C787 1.385 1_655 S
C786 C788 1.478 . S
C787 H781 0.930 . S
C787 C783 1.400 . S
C787 C786 1.385 1_455 S
C788 C786 1.478 . S
C788 C790 1.381 . S
C788 C794 1.383 . S
C789 C785 1.495 . S
C789 H795 0.959 . S
C789 H796 0.961 . S
C789 H797 0.960 . S
C790 C788 1.381 . S
C790 C791 1.394 . S
C790 H798 0.930 . S
C791 C790 1.394 . S
C791 C792 1.383 . S
C791 H799 0.929 . S
C792 C791 1.383 . S
C792 C793 1.377 . S
C793 H777 0.930 . S
C793 C792 1.377 . S
C793 C794 1.379 . S
C794 H778 0.931 1_655 S
C794 C788 1.383 . S
C794 C793 1.379 . S
H795 C789 0.959 . S
H796 C789 0.961 . S
H797 C789 0.960 . S
H798 C790 0.930 . S
H799 C791 0.929 . S
H800 C808 0.929 . S
H801 C810 0.930 . S
H802 C812 0.930 . S
H803 C815 0.929 . S
H804 C818 0.930 . S
H805 C820 0.960 . S
H806 C820 0.960 . S
H807 C820 0.960 . S
C808 H800 0.929 . S
C808 C809 1.377 . S
C808 C810 1.384 . S
C809 C808 1.377 . S
C809 C815 1.390 . S
C810 H801 0.930 . S
C810 C808 1.384 . S
C810 C811 1.372 . S
C811 C810 1.372 . S
C811 C812 1.400 . S
C811 C816 1.490 . S
C812 H802 0.930 . S
C812 C811 1.400 . S
C812 C815 1.386 . S
H813 C829 0.930 . S
H814 C830 0.931 1_554 S
C815 H803 0.929 . S
C815 C809 1.390 . S
C815 C812 1.386 . S
C816 C811 1.490 . S
C816 C818 1.395 . S
C816 C819 1.403 . S
H817 C823 0.930 . S
C818 H804 0.930 . S
C818 C816 1.395 . S
C818 C821 1.403 . S
C819 C816 1.403 . S
C819 C820 1.524 . S
C819 C823 1.400 . S
C820 H805 0.960 . S
C820 H806 0.960 . S
C820 H807 0.960 . S
C820 C819 1.524 . S
C821 C818 1.403 . S
C821 C822 1.392 . S
C821 C825 1.495 . S
C822 C821 1.392 . S
C822 C823 1.385 . S
C822 C824 1.478 . S
C823 H817 0.930 . S
C823 C819 1.400 . S
C823 C822 1.385 . S
C824 C822 1.478 . S
C824 C826 1.381 . S
C824 C830 1.383 . S
C825 C821 1.495 . S
C825 H831 0.959 . S
C825 H832 0.961 . S
C825 H833 0.960 . S
C826 C824 1.381 . S
C826 C827 1.394 . S
C826 H834 0.930 . S
C827 C826 1.394 . S
C827 C828 1.383 . S
C827 H835 0.929 . S
C828 C827 1.383 . S
C828 C829 1.377 1_556 S
C829 H813 0.930 . S
C829 C828 1.377 1_554 S
C829 C830 1.379 1_554 S
C830 H814 0.931 1_556 S
C830 C824 1.383 . S
C830 C829 1.379 1_556 S
H831 C825 0.959 . S
H832 C825 0.961 . S
H833 C825 0.960 . S
H834 C826 0.930 . S
H835 C827 0.929 . S
H836 C844 0.929 . S
H837 C846 0.930 . S
H838 C848 0.930 . S
H839 C851 0.929 . S
H840 C854 0.930 . S
H841 C856 0.960 . S
H842 C856 0.960 . S
H843 C856 0.960 . S
C844 H836 0.929 . S
C844 C845 1.377 . S
C844 C846 1.384 . S
C845 C844 1.377 . S
C845 C851 1.390 . S
C846 H837 0.930 . S
C846 C844 1.384 . S
C846 C847 1.372 . S
C847 C846 1.372 . S
C847 C848 1.400 . S
C847 C852 1.490 . S
C848 H838 0.930 . S
C848 C847 1.400 . S
C848 C851 1.386 . S
H849 C865 0.930 . S
H850 C866 0.931 . S
C851 H839 0.929 . S
C851 C845 1.390 . S
C851 C848 1.386 . S
C852 C847 1.490 . S
C852 C854 1.395 . S
C852 C855 1.403 . S
H853 C859 0.930 . S
C854 H840 0.930 . S
C854 C852 1.395 . S
C854 C857 1.403 . S
C855 C852 1.403 . S
C855 C856 1.524 . S
C855 C859 1.400 . S
C856 H841 0.960 . S
C856 H842 0.960 . S
C856 H843 0.960 . S
C856 C855 1.524 . S
C857 C854 1.403 . S
C857 C858 1.392 . S
C857 C861 1.495 . S
C858 C857 1.392 . S
C858 C859 1.385 . S
C858 C860 1.478 . S
C859 H853 0.930 . S
C859 C855 1.400 . S
C859 C858 1.385 . S
C860 C858 1.478 . S
C860 C862 1.381 . S
C860 C866 1.383 . S
C861 C857 1.495 . S
C861 H867 0.959 . S
C861 H868 0.961 . S
C861 H869 0.960 . S
C862 C860 1.381 . S
C862 C863 1.394 . S
C862 H870 0.930 . S
C863 C862 1.394 . S
C863 C864 1.383 . S
C863 H871 0.929 . S
C864 C863 1.383 . S
C864 C865 1.377 . S
C865 H849 0.930 . S
C865 C864 1.377 . S
C865 C866 1.379 . S
C866 H850 0.931 . S
C866 C860 1.383 . S
C866 C865 1.379 . S
H867 C861 0.959 . S
H868 C861 0.961 . S
H869 C861 0.960 . S
H870 C862 0.930 . S
H871 C863 0.929 . S
H872 C880 0.929 . S
H873 C882 0.930 . S
H874 C884 0.930 . S
H875 C887 0.929 . S
H876 C890 0.930 . S
H877 C892 0.960 . S
H878 C892 0.960 . S
H879 C892 0.960 . S
C880 H872 0.929 . S
C880 C881 1.377 . S
C880 C882 1.384 . S
C881 C880 1.377 . S
C881 C887 1.390 . S
C882 H873 0.930 . S
C882 C880 1.384 . S
C882 C883 1.372 . S
C883 C882 1.372 . S
C883 C884 1.400 . S
C883 C888 1.490 . S
C884 H874 0.930 . S
C884 C883 1.400 . S
C884 C887 1.386 . S
H885 C901 0.930 . S
H886 C902 0.931 . S
C887 H875 0.929 . S
C887 C881 1.390 . S
C887 C884 1.386 . S
C888 C883 1.490 . S
C888 C890 1.395 . S
C888 C891 1.403 . S
H889 C895 0.930 . S
C890 H876 0.930 . S
C890 C888 1.395 . S
C890 C893 1.403 . S
C891 C888 1.403 . S
C891 C892 1.524 . S
C891 C895 1.400 . S
C892 H877 0.960 . S
C892 H878 0.960 . S
C892 H879 0.960 . S
C892 C891 1.524 . S
C893 C890 1.403 . S
C893 C894 1.392 . S
C893 C897 1.495 . S
C894 C893 1.392 . S
C894 C895 1.385 . S
C894 C896 1.478 . S
C895 H889 0.930 . S
C895 C891 1.400 . S
C895 C894 1.385 . S
C896 C894 1.478 . S
C896 C898 1.381 . S
C896 C902 1.383 . S
C897 C893 1.495 . S
C897 H903 0.959 . S
C897 H904 0.961 . S
C897 H905 0.960 . S
C898 C896 1.381 . S
C898 C899 1.394 . S
C898 H906 0.930 . S
C899 C898 1.394 . S
C899 C900 1.383 . S
C899 H907 0.929 . S
C900 C899 1.383 . S
C900 C901 1.377 . S
C901 H885 0.930 . S
C901 C900 1.377 . S
C901 C902 1.379 . S
C902 H886 0.931 . S
C902 C896 1.383 . S
C902 C901 1.379 . S
H903 C897 0.959 . S
H904 C897 0.961 . S
H905 C897 0.960 . S
H906 C898 0.930 . S
H907 C899 0.929 . S
H908 C916 0.929 . S
H909 C918 0.930 . S
H910 C920 0.930 . S
H911 C923 0.929 . S
H912 C926 0.930 . S
H913 C928 0.960 . S
H914 C928 0.960 . S
H915 C928 0.960 . S
C916 H908 0.929 . S
C916 C917 1.377 . S
C916 C918 1.384 . S
C917 C916 1.377 . S
C917 C923 1.390 . S
C918 H909 0.930 . S
C918 C916 1.384 . S
C918 C919 1.372 . S
C919 C918 1.372 . S
C919 C920 1.400 . S
C919 C924 1.490 . S
C920 H910 0.930 . S
C920 C919 1.400 . S
C920 C923 1.386 . S
H921 C937 0.930 . S
H922 C938 0.931 . S
C923 H911 0.929 . S
C923 C917 1.390 . S
C923 C920 1.386 . S
C924 C919 1.490 . S
C924 C926 1.395 . S
C924 C927 1.403 . S
H925 C931 0.930 . S
C926 H912 0.930 . S
C926 C924 1.395 . S
C926 C929 1.403 . S
C927 C924 1.403 . S
C927 C928 1.524 . S
C927 C931 1.400 . S
C928 H913 0.960 . S
C928 H914 0.960 . S
C928 H915 0.960 . S
C928 C927 1.524 . S
C929 C926 1.403 . S
C929 C930 1.392 . S
C929 C933 1.495 . S
C930 C929 1.392 . S
C930 C931 1.385 . S
C930 C932 1.478 . S
C931 H925 0.930 . S
C931 C927 1.400 . S
C931 C930 1.385 . S
C932 C930 1.478 . S
C932 C934 1.381 . S
C932 C938 1.383 . S
C933 C929 1.495 . S
C933 H939 0.959 . S
C933 H940 0.961 . S
C933 H941 0.960 . S
C934 C932 1.381 . S
C934 C935 1.394 . S
C934 H942 0.930 . S
C935 C934 1.394 . S
C935 C936 1.383 . S
C935 H943 0.929 . S
C936 C935 1.383 . S
C936 C937 1.377 . S
C937 H921 0.930 . S
C937 C936 1.377 . S
C937 C938 1.379 . S
C938 H922 0.931 . S
C938 C932 1.383 . S
C938 C937 1.379 . S
H939 C933 0.959 . S
H940 C933 0.961 . S
H941 C933 0.960 . S
H942 C934 0.930 . S
H943 C935 0.929 . S
H944 C952 0.929 . S
H945 C954 0.930 1_556 S
H946 C956 0.930 . S
H947 C959 0.929 . S
H948 C962 0.930 . S
H949 C964 0.960 . S
H950 C964 0.960 . S
H951 C964 0.960 . S
C952 H944 0.929 . S
C952 C953 1.377 1_556 S
C952 C954 1.384 1_556 S
C953 C952 1.377 1_554 S
C953 C959 1.390 . S
C954 H945 0.930 1_554 S
C954 C952 1.384 1_554 S
C954 C955 1.372 . S
C955 C954 1.372 . S
C955 C956 1.400 . S
C955 C960 1.490 . S
C956 H946 0.930 . S
C956 C955 1.400 . S
C956 C959 1.386 . S
H957 C973 0.930 . S
H958 C974 0.931 . S
C959 H947 0.929 . S
C959 C953 1.390 . S
C959 C956 1.386 . S
C960 C955 1.490 . S
C960 C962 1.395 . S
C960 C963 1.403 . S
H961 C967 0.930 . S
C962 H948 0.930 . S
C962 C960 1.395 . S
C962 C965 1.403 . S
C963 C960 1.403 . S
C963 C964 1.524 . S
C963 C967 1.400 . S
C964 H949 0.960 . S
C964 H950 0.960 . S
C964 H951 0.960 . S
C964 C963 1.524 . S
C965 C962 1.403 . S
C965 C966 1.392 . S
C965 C969 1.495 . S
C966 C965 1.392 . S
C966 C967 1.385 . S
C966 C968 1.478 . S
C967 H961 0.930 . S
C967 C963 1.400 . S
C967 C966 1.385 . S
C968 C966 1.478 . S
C968 C970 1.381 . S
C968 C974 1.383 . S
C969 C965 1.495 . S
C969 H975 0.959 . S
C969 H976 0.961 . S
C969 H977 0.960 . S
C970 C968 1.381 . S
C970 C971 1.394 . S
C970 H978 0.930 . S
C971 C970 1.394 . S
C971 C972 1.383 . S
C971 H979 0.929 . S
C972 C971 1.383 . S
C972 C973 1.377 . S
C973 H957 0.930 . S
C973 C972 1.377 . S
C973 C974 1.379 . S
C974 H958 0.931 . S
C974 C968 1.383 . S
C974 C973 1.379 . S
H975 C969 0.959 . S
H976 C969 0.961 . S
H977 C969 0.960 . S
H978 C970 0.930 . S
H979 C971 0.929 . S
H980 C988 0.929 . S
H981 C990 0.930 . S
H982 C992 0.930 . S
H983 C995 0.929 . S
H984 C998 0.930 . S
H985 C1000 0.960 . S
H986 C1000 0.960 . S
H987 C1000 0.960 . S
C988 H980 0.929 . S
C988 C989 1.377 . S
C988 C990 1.384 . S
C989 C988 1.377 . S
C989 C995 1.390 . S
C990 H981 0.930 . S
C990 C988 1.384 . S
C990 C991 1.372 . S
C991 C990 1.372 . S
C991 C992 1.400 . S
C991 C996 1.490 . S
C992 H982 0.930 . S
C992 C991 1.400 . S
C992 C995 1.386 . S
H993 C1009 0.930 . S
H994 C1010 0.931 . S
C995 H983 0.929 . S
C995 C989 1.390 . S
C995 C992 1.386 . S
C996 C991 1.490 . S
C996 C998 1.395 . S
C996 C999 1.403 . S
H997 C1003 0.930 . S
C998 H984 0.930 . S
C998 C996 1.395 . S
C998 C1001 1.403 . S
C999 C996 1.403 . S
C999 C1000 1.524 . S
C999 C1003 1.400 . S
C1000 H985 0.960 . S
C1000 H986 0.960 . S
C1000 H987 0.960 . S
C1000 C999 1.524 . S
C1001 C998 1.403 . S
C1001 C1002 1.392 . S
C1001 C1005 1.495 . S
C1002 C1001 1.392 . S
C1002 C1003 1.385 . S
C1002 C1004 1.478 . S
C1003 H997 0.930 . S
C1003 C999 1.400 . S
C1003 C1002 1.385 . S
C1004 C1002 1.478 . S
C1004 C1006 1.381 . S
C1004 C1010 1.383 . S
C1005 C1001 1.495 . S
C1005 H1011 0.959 . S
C1005 H1012 0.961 . S
C1005 H1013 0.960 . S
C1006 C1004 1.381 . S
C1006 C1007 1.394 . S
C1006 H1014 0.930 . S
C1007 C1006 1.394 . S
C1007 C1008 1.383 . S
C1007 H1015 0.929 . S
C1008 C1007 1.383 . S
C1008 C1009 1.377 . S
C1009 H993 0.930 . S
C1009 C1008 1.377 . S
C1009 C1010 1.379 . S
C1010 H994 0.931 . S
C1010 C1004 1.383 . S
C1010 C1009 1.379 . S
H1011 C1005 0.959 . S
H1012 C1005 0.961 . S
H1013 C1005 0.960 . S
H1014 C1006 0.930 . S
H1015 C1007 0.929 . S
H1016 C1024 0.929 . S
H1017 C1026 0.930 . S
H1018 C1028 0.930 . S
H1019 C1031 0.929 . S
H1020 C1034 0.930 . S
H1021 C1036 0.960 . S
H1022 C1036 0.960 . S
H1023 C1036 0.960 . S
C1024 H1016 0.929 . S
C1024 C1025 1.377 . S
C1024 C1026 1.384 . S
C1025 C1024 1.377 . S
C1025 C1031 1.390 . S
C1026 H1017 0.930 . S
C1026 C1024 1.384 . S
C1026 C1027 1.372 . S
C1027 C1026 1.372 . S
C1027 C1028 1.400 . S
C1027 C1032 1.490 . S
C1028 H1018 0.930 . S
C1028 C1027 1.400 . S
C1028 C1031 1.386 . S
H1029 C1045 0.930 . S
H1030 C1046 0.931 . S
C1031 H1019 0.929 . S
C1031 C1025 1.390 . S
C1031 C1028 1.386 . S
C1032 C1027 1.490 . S
C1032 C1034 1.395 . S
C1032 C1035 1.403 . S
H1033 C1039 0.930 . S
C1034 H1020 0.930 . S
C1034 C1032 1.395 . S
C1034 C1037 1.403 . S
C1035 C1032 1.403 . S
C1035 C1036 1.524 . S
C1035 C1039 1.400 . S
C1036 H1021 0.960 . S
C1036 H1022 0.960 . S
C1036 H1023 0.960 . S
C1036 C1035 1.524 . S
C1037 C1034 1.403 . S
C1037 C1038 1.392 . S
C1037 C1041 1.495 . S
C1038 C1037 1.392 . S
C1038 C1039 1.385 . S
C1038 C1040 1.478 . S
C1039 H1033 0.930 . S
C1039 C1035 1.400 . S
C1039 C1038 1.385 . S
C1040 C1038 1.478 . S
C1040 C1042 1.381 . S
C1040 C1046 1.383 . S
C1041 C1037 1.495 . S
C1041 H1047 0.959 . S
C1041 H1048 0.961 . S
C1041 H1049 0.960 . S
C1042 C1040 1.381 . S
C1042 C1043 1.394 . S
C1042 H1050 0.930 . S
C1043 C1042 1.394 . S
C1043 C1044 1.383 . S
C1043 H1051 0.929 . S
C1044 C1043 1.383 . S
C1044 C1045 1.377 . S
C1045 H1029 0.930 . S
C1045 C1044 1.377 . S
C1045 C1046 1.379 . S
C1046 H1030 0.931 . S
C1046 C1040 1.383 . S
C1046 C1045 1.379 . S
H1047 C1041 0.959 . S
H1048 C1041 0.961 . S
H1049 C1041 0.960 . S
H1050 C1042 0.930 . S
H1051 C1043 0.929 . S
H1052 C1060 0.929 . S
H1053 C1062 0.930 . S
H1054 C1064 0.930 . S
H1055 C1067 0.929 . S
H1056 C1070 0.930 . S
H1057 C1072 0.960 . S
H1058 C1072 0.960 . S
H1059 C1072 0.960 . S
C1060 H1052 0.929 . S
C1060 C1061 1.377 . S
C1060 C1062 1.384 . S
C1061 C1060 1.377 . S
C1061 C1067 1.390 . S
C1062 H1053 0.930 . S
C1062 C1060 1.384 . S
C1062 C1063 1.372 . S
C1063 C1062 1.372 . S
C1063 C1064 1.400 . S
C1063 C1068 1.490 . S
C1064 H1054 0.930 . S
C1064 C1063 1.400 . S
C1064 C1067 1.386 . S
H1065 C1081 0.930 . S
H1066 C1082 0.931 . S
C1067 H1055 0.929 . S
C1067 C1061 1.390 . S
C1067 C1064 1.386 . S
C1068 C1063 1.490 . S
C1068 C1070 1.395 . S
C1068 C1071 1.403 . S
H1069 C1075 0.930 . S
C1070 H1056 0.930 . S
C1070 C1068 1.395 . S
C1070 C1073 1.403 . S
C1071 C1068 1.403 . S
C1071 C1072 1.524 . S
C1071 C1075 1.400 . S
C1072 H1057 0.960 . S
C1072 H1058 0.960 . S
C1072 H1059 0.960 . S
C1072 C1071 1.524 . S
C1073 C1070 1.403 . S
C1073 C1074 1.392 . S
C1073 C1077 1.495 . S
C1074 C1073 1.392 . S
C1074 C1075 1.385 . S
C1074 C1076 1.478 . S
C1075 H1069 0.930 . S
C1075 C1071 1.400 . S
C1075 C1074 1.385 . S
C1076 C1074 1.478 . S
C1076 C1078 1.381 . S
C1076 C1082 1.383 . S
C1077 C1073 1.495 . S
C1077 H1083 0.959 . S
C1077 H1084 0.961 . S
C1077 H1085 0.960 . S
C1078 C1076 1.381 . S
C1078 C1079 1.394 . S
C1078 H1086 0.930 . S
C1079 C1078 1.394 . S
C1079 C1080 1.383 . S
C1079 H1087 0.929 . S
C1080 C1079 1.383 . S
C1080 C1081 1.377 . S
C1081 H1065 0.930 . S
C1081 C1080 1.377 . S
C1081 C1082 1.379 . S
C1082 H1066 0.931 . S
C1082 C1076 1.383 . S
C1082 C1081 1.379 . S
H1083 C1077 0.959 . S
H1084 C1077 0.961 . S
H1085 C1077 0.960 . S
H1086 C1078 0.930 . S
H1087 C1079 0.929 . S
H1088 C1096 0.929 . S
H1089 C1098 0.930 . S
H1090 C1100 0.930 . S
H1091 C1103 0.929 . S
H1092 C1106 0.930 . S
H1093 C1108 0.960 . S
H1094 C1108 0.960 . S
H1095 C1108 0.960 . S
C1096 H1088 0.929 . S
C1096 C1097 1.377 . S
C1096 C1098 1.384 . S
C1097 C1096 1.377 . S
C1097 C1103 1.390 . S
C1098 H1089 0.930 . S
C1098 C1096 1.384 . S
C1098 C1099 1.372 . S
C1099 C1098 1.372 . S
C1099 C1100 1.400 . S
C1099 C1104 1.490 . S
C1100 H1090 0.930 . S
C1100 C1099 1.400 . S
C1100 C1103 1.386 . S
H1101 C1117 0.930 . S
H1102 C1118 0.931 . S
C1103 H1091 0.929 . S
C1103 C1097 1.390 . S
C1103 C1100 1.386 . S
C1104 C1099 1.490 . S
C1104 C1106 1.395 . S
C1104 C1107 1.403 . S
H1105 C1111 0.930 . S
C1106 H1092 0.930 . S
C1106 C1104 1.395 . S
C1106 C1109 1.403 . S
C1107 C1104 1.403 . S
C1107 C1108 1.524 . S
C1107 C1111 1.400 . S
C1108 H1093 0.960 . S
C1108 H1094 0.960 . S
C1108 H1095 0.960 . S
C1108 C1107 1.524 . S
C1109 C1106 1.403 . S
C1109 C1110 1.392 . S
C1109 C1113 1.495 . S
C1110 C1109 1.392 . S
C1110 C1111 1.385 . S
C1110 C1112 1.478 . S
C1111 H1105 0.930 . S
C1111 C1107 1.400 . S
C1111 C1110 1.385 . S
C1112 C1110 1.478 . S
C1112 C1114 1.381 . S
C1112 C1118 1.383 . S
C1113 C1109 1.495 . S
C1113 H1119 0.959 . S
C1113 H1120 0.961 . S
C1113 H1121 0.960 . S
C1114 C1112 1.381 . S
C1114 C1115 1.394 . S
C1114 H1122 0.930 . S
C1115 C1114 1.394 . S
C1115 C1116 1.383 . S
C1115 H1123 0.929 . S
C1116 C1115 1.383 . S
C1116 C1117 1.377 . S
C1117 H1101 0.930 . S
C1117 C1116 1.377 . S
C1117 C1118 1.379 . S
C1118 H1102 0.931 . S
C1118 C1112 1.383 . S
C1118 C1117 1.379 . S
H1119 C1113 0.959 . S
H1120 C1113 0.961 . S
H1121 C1113 0.960 . S
H1122 C1114 0.930 . S
H1123 C1115 0.929 . S
H1124 C1132 0.929 . S
H1125 C1134 0.930 . S
H1126 C1136 0.930 . S
H1127 C1139 0.929 . S
H1128 C1142 0.930 . S
H1129 C1144 0.960 . S
H1130 C1144 0.960 . S
H1131 C1144 0.960 . S
C1132 H1124 0.929 . S
C1132 C1133 1.377 1_565 S
C1132 C1134 1.384 . S
C1133 C1132 1.377 1_545 S
C1133 C1139 1.390 . S
C1134 H1125 0.930 . S
C1134 C1132 1.384 . S
C1134 C1135 1.372 . S
C1135 C1134 1.372 . S
C1135 C1136 1.400 . S
C1135 C1140 1.490 . S
C1136 H1126 0.930 . S
C1136 C1135 1.400 . S
C1136 C1139 1.386 1_565 S
H1137 C1153 0.930 . S
H1138 C1154 0.931 . S
C1139 H1127 0.929 . S
C1139 C1133 1.390 . S
C1139 C1136 1.386 1_545 S
C1140 C1135 1.490 . S
C1140 C1142 1.395 . S
C1140 C1143 1.403 . S
H1141 C1147 0.930 . S
C1142 H1128 0.930 . S
C1142 C1140 1.395 . S
C1142 C1145 1.403 . S
C1143 C1140 1.403 . S
C1143 C1144 1.524 . S
C1143 C1147 1.400 . S
C1144 H1129 0.960 . S
C1144 H1130 0.960 . S
C1144 H1131 0.960 . S
C1144 C1143 1.524 . S
C1145 C1142 1.403 . S
C1145 C1146 1.392 . S
C1145 C1149 1.495 . S
C1146 C1145 1.392 . S
C1146 C1147 1.385 . S
C1146 C1148 1.478 . S
C1147 H1141 0.930 . S
C1147 C1143 1.400 . S
C1147 C1146 1.385 . S
C1148 C1146 1.478 . S
C1148 C1150 1.381 . S
C1148 C1154 1.383 . S
C1149 C1145 1.495 . S
C1149 H1155 0.959 . S
C1149 H1156 0.961 . S
C1149 H1157 0.960 . S
C1150 C1148 1.381 . S
C1150 C1151 1.394 . S
C1150 H1158 0.930 . S
C1151 C1150 1.394 . S
C1151 C1152 1.383 . S
C1151 H1159 0.929 . S
C1152 C1151 1.383 . S
C1152 C1153 1.377 . S
C1153 H1137 0.930 . S
C1153 C1152 1.377 . S
C1153 C1154 1.379 . S
C1154 H1138 0.931 . S
C1154 C1148 1.383 . S
C1154 C1153 1.379 . S
H1155 C1149 0.959 . S
H1156 C1149 0.961 . S
H1157 C1149 0.960 . S
H1158 C1150 0.930 . S
H1159 C1151 0.929 . S
H1160 C1168 0.929 . S
H1161 C1170 0.930 . S
H1162 C1172 0.930 . S
H1163 C1175 0.929 1_554 S
H1164 C1178 0.930 . S
H1165 C1180 0.960 . S
H1166 C1180 0.960 . S
H1167 C1180 0.960 . S
C1168 H1160 0.929 . S
C1168 C1169 1.377 . S
C1168 C1170 1.384 . S
C1169 C1168 1.377 . S
C1169 C1175 1.390 . S
C1170 H1161 0.930 . S
C1170 C1168 1.384 . S
C1170 C1171 1.372 . S
C1171 C1170 1.372 . S
C1171 C1172 1.400 . S
C1171 C1176 1.490 . S
C1172 H1162 0.930 . S
C1172 C1171 1.400 . S
C1172 C1175 1.386 . S
H1173 C1189 0.930 . S
H1174 C1190 0.931 . S
C1175 H1163 0.929 1_556 S
C1175 C1169 1.390 . S
C1175 C1172 1.386 . S
C1176 C1171 1.490 . S
C1176 C1178 1.395 . S
C1176 C1179 1.403 . S
H1177 C1183 0.930 . S
C1178 H1164 0.930 . S
C1178 C1176 1.395 . S
C1178 C1181 1.403 . S
C1179 C1176 1.403 . S
C1179 C1180 1.524 1_556 S
C1179 C1183 1.400 . S
C1180 H1165 0.960 . S
C1180 H1166 0.960 . S
C1180 H1167 0.960 . S
C1180 C1179 1.524 1_554 S
C1181 C1178 1.403 . S
C1181 C1182 1.392 . S
C1181 C1185 1.495 . S
C1182 C1181 1.392 . S
C1182 C1183 1.385 . S
C1182 C1184 1.478 . S
C1183 H1177 0.930 . S
C1183 C1179 1.400 . S
C1183 C1182 1.385 . S
C1184 C1182 1.478 . S
C1184 C1186 1.381 . S
C1184 C1190 1.383 . S
C1185 C1181 1.495 . S
C1185 H1191 0.959 . S
C1185 H1192 0.961 . S
C1185 H1193 0.960 . S
C1186 C1184 1.381 . S
C1186 C1187 1.394 . S
C1186 H1194 0.930 . S
C1187 C1186 1.394 . S
C1187 C1188 1.383 . S
C1187 H1195 0.929 . S
C1188 C1187 1.383 . S
C1188 C1189 1.377 . S
C1189 H1173 0.930 . S
C1189 C1188 1.377 . S
C1189 C1190 1.379 . S
C1190 H1174 0.931 . S
C1190 C1184 1.383 . S
C1190 C1189 1.379 . S
H1191 C1185 0.959 . S
H1192 C1185 0.961 . S
H1193 C1185 0.960 . S
H1194 C1186 0.930 . S
H1195 C1187 0.929 . S
H1196 C1204 0.929 . S
H1197 C1206 0.930 . S
H1198 C1208 0.930 . S
H1199 C1211 0.929 . S
H1200 C1214 0.930 . S
H1201 C1216 0.960 . S
H1202 C1216 0.960 . S
H1203 C1216 0.960 . S
C1204 H1196 0.929 . S
C1204 C1205 1.377 . S
C1204 C1206 1.384 1_565 S
C1205 C1204 1.377 . S
C1205 C1211 1.390 1_565 S
C1206 H1197 0.930 . S
C1206 C1204 1.384 1_545 S
C1206 C1207 1.372 . S
C1207 C1206 1.372 . S
C1207 C1208 1.400 . S
C1207 C1212 1.490 . S
C1208 H1198 0.930 . S
C1208 C1207 1.400 . S
C1208 C1211 1.386 . S
H1209 C1225 0.930 . S
H1210 C1226 0.931 . S
C1211 H1199 0.929 . S
C1211 C1205 1.390 1_545 S
C1211 C1208 1.386 . S
C1212 C1207 1.490 . S
C1212 C1214 1.395 . S
C1212 C1215 1.403 . S
H1213 C1219 0.930 . S
C1214 H1200 0.930 . S
C1214 C1212 1.395 . S
C1214 C1217 1.403 . S
C1215 C1212 1.403 . S
C1215 C1216 1.524 . S
C1215 C1219 1.400 . S
C1216 H1201 0.960 . S
C1216 H1202 0.960 . S
C1216 H1203 0.960 . S
C1216 C1215 1.524 . S
C1217 C1214 1.403 . S
C1217 C1218 1.392 . S
C1217 C1221 1.495 . S
C1218 C1217 1.392 . S
C1218 C1219 1.385 . S
C1218 C1220 1.478 . S
C1219 H1213 0.930 . S
C1219 C1215 1.400 . S
C1219 C1218 1.385 . S
C1220 C1218 1.478 . S
C1220 C1222 1.381 . S
C1220 C1226 1.383 . S
C1221 C1217 1.495 . S
C1221 H1227 0.959 . S
C1221 H1228 0.961 . S
C1221 H1229 0.960 . S
C1222 C1220 1.381 . S
C1222 C1223 1.394 . S
C1222 H1230 0.930 . S
C1223 C1222 1.394 . S
C1223 C1224 1.383 . S
C1223 H1231 0.929 . S
C1224 C1223 1.383 . S
C1224 C1225 1.377 . S
C1225 H1209 0.930 . S
C1225 C1224 1.377 . S
C1225 C1226 1.379 . S
C1226 H1210 0.931 . S
C1226 C1220 1.383 . S
C1226 C1225 1.379 . S
H1227 C1221 0.959 . S
H1228 C1221 0.961 . S
H1229 C1221 0.960 . S
H1230 C1222 0.930 . S
H1231 C1223 0.929 . S
H1232 C1240 0.929 . S
H1233 C1242 0.930 . S
H1234 C1244 0.930 . S
H1235 C1247 0.929 . S
H1236 C1250 0.930 . S
H1237 C1252 0.960 . S
H1238 C1252 0.960 . S
H1239 C1252 0.960 . S
C1240 H1232 0.929 . S
C1240 C1241 1.377 . S
C1240 C1242 1.384 . S
C1241 C1240 1.377 . S
C1241 C1247 1.390 . S
C1242 H1233 0.930 . S
C1242 C1240 1.384 . S
C1242 C1243 1.372 . S
C1243 C1242 1.372 . S
C1243 C1244 1.400 . S
C1243 C1248 1.490 . S
C1244 H1234 0.930 . S
C1244 C1243 1.400 . S
C1244 C1247 1.386 . S
H1245 C1261 0.930 . S
H1246 C1262 0.931 . S
C1247 H1235 0.929 . S
C1247 C1241 1.390 . S
C1247 C1244 1.386 . S
C1248 C1243 1.490 . S
C1248 C1250 1.395 . S
C1248 C1251 1.403 . S
H1249 C1255 0.930 . S
C1250 H1236 0.930 . S
C1250 C1248 1.395 . S
C1250 C1253 1.403 . S
C1251 C1248 1.403 . S
C1251 C1252 1.524 . S
C1251 C1255 1.400 . S
C1252 H1237 0.960 . S
C1252 H1238 0.960 . S
C1252 H1239 0.960 . S
C1252 C1251 1.524 . S
C1253 C1250 1.403 . S
C1253 C1254 1.392 . S
C1253 C1257 1.495 . S
C1254 C1253 1.392 . S
C1254 C1255 1.385 . S
C1254 C1256 1.478 . S
C1255 H1249 0.930 . S
C1255 C1251 1.400 . S
C1255 C1254 1.385 . S
C1256 C1254 1.478 . S
C1256 C1258 1.381 . S
C1256 C1262 1.383 . S
C1257 C1253 1.495 . S
C1257 H1263 0.959 . S
C1257 H1264 0.961 . S
C1257 H1265 0.960 . S
C1258 C1256 1.381 . S
C1258 C1259 1.394 . S
C1258 H1266 0.930 . S
C1259 C1258 1.394 . S
C1259 C1260 1.383 . S
C1259 H1267 0.929 . S
C1260 C1259 1.383 . S
C1260 C1261 1.377 . S
C1261 H1245 0.930 . S
C1261 C1260 1.377 . S
C1261 C1262 1.379 . S
C1262 H1246 0.931 . S
C1262 C1256 1.383 . S
C1262 C1261 1.379 . S
H1263 C1257 0.959 . S
H1264 C1257 0.961 . S
H1265 C1257 0.960 . S
H1266 C1258 0.930 . S
H1267 C1259 0.929 . S
H1268 C1276 0.929 . S
H1269 C1278 0.930 . S
H1270 C1280 0.930 . S
H1271 C1283 0.929 . S
H1272 C1286 0.930 . S
H1273 C1288 0.960 . S
H1274 C1288 0.960 . S
H1275 C1288 0.960 . S
C1276 H1268 0.929 . S
C1276 C1277 1.377 . S
C1276 C1278 1.384 . S
C1277 C1276 1.377 . S
C1277 C1283 1.390 . S
C1278 H1269 0.930 . S
C1278 C1276 1.384 . S
C1278 C1279 1.372 . S
C1279 C1278 1.372 . S
C1279 C1280 1.400 . S
C1279 C1284 1.490 . S
C1280 H1270 0.930 . S
C1280 C1279 1.400 . S
C1280 C1283 1.386 . S
H1281 C1297 0.930 . S
H1282 C1298 0.931 . S
C1283 H1271 0.929 . S
C1283 C1277 1.390 . S
C1283 C1280 1.386 . S
C1284 C1279 1.490 . S
C1284 C1286 1.395 . S
C1284 C1287 1.403 . S
H1285 C1291 0.930 . S
C1286 H1272 0.930 . S
C1286 C1284 1.395 . S
C1286 C1289 1.403 . S
C1287 C1284 1.403 . S
C1287 C1288 1.524 . S
C1287 C1291 1.400 . S
C1288 H1273 0.960 . S
C1288 H1274 0.960 . S
C1288 H1275 0.960 . S
C1288 C1287 1.524 . S
C1289 C1286 1.403 . S
C1289 C1290 1.392 . S
C1289 C1293 1.495 . S
C1290 C1289 1.392 . S
C1290 C1291 1.385 . S
C1290 C1292 1.478 . S
C1291 H1285 0.930 . S
C1291 C1287 1.400 . S
C1291 C1290 1.385 . S
C1292 C1290 1.478 . S
C1292 C1294 1.381 . S
C1292 C1298 1.383 . S
C1293 C1289 1.495 . S
C1293 H1299 0.959 . S
C1293 H1300 0.961 . S
C1293 H1301 0.960 . S
C1294 C1292 1.381 . S
C1294 C1295 1.394 . S
C1294 H1302 0.930 . S
C1295 C1294 1.394 . S
C1295 C1296 1.383 1_545 S
C1295 H1303 0.929 . S
C1296 C1295 1.383 1_565 S
C1296 C1297 1.377 . S
C1297 H1281 0.930 . S
C1297 C1296 1.377 . S
C1297 C1298 1.379 1_565 S
C1298 H1282 0.931 . S
C1298 C1292 1.383 . S
C1298 C1297 1.379 1_545 S
H1299 C1293 0.959 . S
H1300 C1293 0.961 . S
H1301 C1293 0.960 . S
H1302 C1294 0.930 . S
H1303 C1295 0.929 . S
H1304 C1312 0.929 . S
H1305 C1314 0.930 . S
H1306 C1316 0.930 . S
H1307 C1319 0.929 . S
H1308 C1322 0.930 . S
H1309 C1324 0.960 . S
H1310 C1324 0.960 . S
H1311 C1324 0.960 . S
C1312 H1304 0.929 . S
C1312 C1313 1.377 . S
C1312 C1314 1.384 . S
C1313 C1312 1.377 . S
C1313 C1319 1.390 . S
C1314 H1305 0.930 . S
C1314 C1312 1.384 . S
C1314 C1315 1.372 . S
C1315 C1314 1.372 . S
C1315 C1316 1.400 . S
C1315 C1320 1.490 . S
C1316 H1306 0.930 . S
C1316 C1315 1.400 . S
C1316 C1319 1.386 . S
H1317 C1333 0.930 . S
H1318 C1334 0.931 . S
C1319 H1307 0.929 . S
C1319 C1313 1.390 . S
C1319 C1316 1.386 . S
C1320 C1315 1.490 . S
C1320 C1322 1.395 . S
C1320 C1323 1.403 . S
H1321 C1327 0.930 . S
C1322 H1308 0.930 . S
C1322 C1320 1.395 . S
C1322 C1325 1.403 . S
C1323 C1320 1.403 . S
C1323 C1324 1.524 . S
C1323 C1327 1.400 . S
C1324 H1309 0.960 . S
C1324 H1310 0.960 . S
C1324 H1311 0.960 . S
C1324 C1323 1.524 . S
C1325 C1322 1.403 . S
C1325 C1326 1.392 . S
C1325 C1329 1.495 . S
C1326 C1325 1.392 . S
C1326 C1327 1.385 . S
C1326 C1328 1.478 . S
C1327 H1321 0.930 . S
C1327 C1323 1.400 . S
C1327 C1326 1.385 . S
C1328 C1326 1.478 . S
C1328 C1330 1.387 . S
C1328 C1334 1.383 . S
C1329 C1325 1.495 . S
C1329 H1335 0.959 1_554 S
C1329 H1336 0.961 . S
C1329 H1337 0.960 1_554 S
C1330 C1328 1.387 . S
C1330 C1331 1.392 1_554 S
C1330 H1338 0.927 1_554 S
C1331 C1330 1.392 1_556 S
C1331 C1332 1.383 1_556 S
C1331 H1339 0.929 . S
C1332 C1331 1.383 1_554 S
C1332 C1333 1.377 . S
C1333 H1317 0.930 . S
C1333 C1332 1.377 . S
C1333 C1334 1.379 . S
C1334 H1318 0.931 . S
C1334 C1328 1.383 . S
C1334 C1333 1.379 . S
H1335 C1329 0.959 1_556 S
H1336 C1329 0.961 . S
H1337 C1329 0.960 1_556 S
H1338 C1330 0.927 1_556 S
H1339 C1331 0.929 . S
H1340 C1348 0.929 . S
H1341 C1350 0.930 . S
H1342 C1352 0.930 . S
H1343 C1355 0.929 . S
H1344 C1358 0.930 . S
H1345 C1360 0.960 . S
H1346 C1360 0.960 . S
H1347 C1360 0.960 . S
C1348 H1340 0.929 . S
C1348 C1349 1.377 1_565 S
C1348 C1350 1.384 . S
C1349 C1348 1.377 1_545 S
C1349 C1355 1.390 . S
C1350 H1341 0.930 . S
C1350 C1348 1.384 . S
C1350 C1351 1.372 . S
C1351 C1350 1.372 . S
C1351 C1352 1.400 . S
C1351 C1356 1.490 . S
C1352 H1342 0.930 . S
C1352 C1351 1.400 . S
C1352 C1355 1.386 1_565 S
H1353 C1369 0.930 . S
H1354 C1370 0.931 . S
C1355 H1343 0.929 . S
C1355 C1349 1.390 . S
C1355 C1352 1.386 1_545 S
C1356 C1351 1.490 . S
C1356 C1358 1.395 . S
C1356 C1359 1.403 . S
H1357 C1363 0.930 . S
C1358 H1344 0.930 . S
C1358 C1356 1.395 . S
C1358 C1361 1.403 . S
C1359 C1356 1.403 . S
C1359 C1360 1.524 . S
C1359 C1363 1.400 . S
C1360 H1345 0.960 . S
C1360 H1346 0.960 . S
C1360 H1347 0.960 . S
C1360 C1359 1.524 . S
C1361 C1358 1.403 . S
C1361 C1362 1.392 . S
C1361 C1365 1.495 . S
C1362 C1361 1.392 . S
C1362 C1363 1.385 . S
C1362 C1364 1.478 . S
C1363 H1357 0.930 . S
C1363 C1359 1.400 . S
C1363 C1362 1.385 . S
C1364 C1362 1.478 . S
C1364 C1366 1.381 . S
C1364 C1370 1.383 . S
C1365 C1361 1.495 . S
C1365 H1371 0.959 . S
C1365 H1372 0.961 . S
C1365 H1373 0.960 . S
C1366 C1364 1.381 . S
C1366 C1367 1.394 . S
C1366 H1374 0.930 . S
C1367 C1366 1.394 . S
C1367 C1368 1.383 . S
C1367 H1375 0.929 . S
C1368 C1367 1.383 . S
C1368 C1369 1.377 . S
C1369 H1353 0.930 . S
C1369 C1368 1.377 . S
C1369 C1370 1.379 . S
C1370 H1354 0.931 . S
C1370 C1364 1.383 . S
C1370 C1369 1.379 . S
H1371 C1365 0.959 . S
H1372 C1365 0.961 . S
H1373 C1365 0.960 . S
H1374 C1366 0.930 . S
H1375 C1367 0.929 . S
H1376 C1384 0.929 . S
H1377 C1386 0.930 . S
H1378 C1388 0.930 . S
H1379 C1391 0.929 . S
H1380 C1394 0.930 . S
H1381 C1396 0.960 . S
H1382 C1396 0.960 . S
H1383 C1396 0.960 . S
C1384 H1376 0.929 . S
C1384 C1385 1.377 . S
C1384 C1386 1.384 . S
C1385 C1384 1.377 . S
C1385 C1391 1.390 . S
C1386 H1377 0.930 . S
C1386 C1384 1.384 . S
C1386 C1387 1.372 . S
C1387 C1386 1.372 . S
C1387 C1388 1.400 . S
C1387 C1392 1.490 . S
C1388 H1378 0.930 . S
C1388 C1387 1.400 . S
C1388 C1391 1.386 . S
H1389 C1405 0.930 . S
H1390 C1406 0.931 . S
C1391 H1379 0.929 . S
C1391 C1385 1.390 . S
C1391 C1388 1.386 . S
C1392 C1387 1.490 . S
C1392 C1394 1.395 . S
C1392 C1395 1.403 . S
H1393 C1399 0.930 . S
C1394 H1380 0.930 . S
C1394 C1392 1.395 . S
C1394 C1397 1.403 . S
C1395 C1392 1.403 . S
C1395 C1396 1.524 . S
C1395 C1399 1.400 . S
C1396 H1381 0.960 . S
C1396 H1382 0.960 . S
C1396 H1383 0.960 . S
C1396 C1395 1.524 . S
C1397 C1394 1.403 . S
C1397 C1398 1.392 . S
C1397 C1401 1.495 . S
C1398 C1397 1.392 . S
C1398 C1399 1.385 . S
C1398 C1400 1.478 . S
C1399 H1393 0.930 . S
C1399 C1395 1.400 . S
C1399 C1398 1.385 . S
C1400 C1398 1.478 . S
C1400 C1402 1.381 . S
C1400 C1406 1.383 . S
C1401 C1397 1.495 . S
C1401 H1407 0.959 . S
C1401 H1408 0.961 . S
C1401 H1409 0.960 . S
C1402 C1400 1.381 . S
C1402 C1403 1.394 . S
C1402 H1410 0.930 . S
C1403 C1402 1.394 . S
C1403 C1404 1.383 . S
C1403 H1411 0.929 . S
C1404 C1403 1.383 . S
C1404 C1405 1.377 . S
C1405 H1389 0.930 . S
C1405 C1404 1.377 . S
C1405 C1406 1.379 . S
C1406 H1390 0.931 . S
C1406 C1400 1.383 . S
C1406 C1405 1.379 . S
H1407 C1401 0.959 . S
H1408 C1401 0.961 . S
H1409 C1401 0.960 . S
H1410 C1402 0.930 . S
H1411 C1403 0.929 . S
H1412 C1420 0.929 . S
H1413 C1422 0.930 . S
H1414 C1424 0.930 . S
H1415 C1427 0.929 . S
H1416 C1430 0.930 . S
H1417 C1432 0.960 . S
H1418 C1432 0.960 . S
H1419 C1432 0.960 . S
C1420 H1412 0.929 . S
C1420 C1421 1.377 . S
C1420 C1422 1.384 . S
C1421 C1420 1.377 . S
C1421 C1427 1.390 . S
C1422 H1413 0.930 . S
C1422 C1420 1.384 . S
C1422 C1423 1.372 . S
C1423 C1422 1.372 . S
C1423 C1424 1.400 . S
C1423 C1428 1.490 . S
C1424 H1414 0.930 . S
C1424 C1423 1.400 . S
C1424 C1427 1.386 . S
H1425 C1441 0.930 1_556 S
H1426 C1442 0.931 . S
C1427 H1415 0.929 . S
C1427 C1421 1.390 . S
C1427 C1424 1.386 . S
C1428 C1423 1.490 . S
C1428 C1430 1.395 . S
C1428 C1431 1.403 . S
H1429 C1435 0.930 . S
C1430 H1416 0.930 . S
C1430 C1428 1.395 . S
C1430 C1433 1.403 . S
C1431 C1428 1.403 . S
C1431 C1432 1.524 . S
C1431 C1435 1.400 . S
C1432 H1417 0.960 . S
C1432 H1418 0.960 . S
C1432 H1419 0.960 . S
C1432 C1431 1.524 . S
C1433 C1430 1.403 . S
C1433 C1434 1.392 . S
C1433 C1437 1.495 . S
C1434 C1433 1.392 . S
C1434 C1435 1.385 . S
C1434 C1436 1.478 . S
C1435 H1429 0.930 . S
C1435 C1431 1.400 . S
C1435 C1434 1.385 . S
C1436 C1434 1.478 . S
C1436 C1438 1.381 . S
C1436 C1442 1.383 . S
C1437 C1433 1.495 . S
C1437 H1443 0.959 . S
C1437 H1444 0.961 . S
C1437 H1445 0.960 . S
C1438 C1436 1.381 . S
C1438 C1439 1.394 . S
C1438 H1446 0.930 . S
C1439 C1438 1.394 . S
C1439 C1440 1.383 . S
C1439 H1447 0.929 . S
C1440 C1439 1.383 . S
C1440 C1441 1.377 . S
C1441 H1425 0.930 1_554 S
C1441 C1440 1.377 . S
C1441 C1442 1.379 . S
C1442 H1426 0.931 . S
C1442 C1436 1.383 . S
C1442 C1441 1.379 . S
H1443 C1437 0.959 . S
H1444 C1437 0.961 . S
H1445 C1437 0.960 . S
H1446 C1438 0.930 . S
H1447 C1439 0.929 . S
H1448 C1456 0.929 . S
H1449 C1458 0.930 . S
H1450 C1460 0.930 . S
H1451 C1463 0.929 . S
H1452 C1466 0.930 . S
H1453 C1468 0.960 . S
H1454 C1468 0.960 . S
H1455 C1468 0.960 . S
C1456 H1448 0.929 . S
C1456 C1457 1.377 . S
C1456 C1458 1.384 1_655 S
C1457 C1456 1.377 . S
C1457 C1463 1.390 . S
C1458 H1449 0.930 . S
C1458 C1456 1.384 1_455 S
C1458 C1459 1.372 . S
C1459 C1458 1.372 . S
C1459 C1460 1.400 . S
C1459 C1464 1.490 . S
C1460 H1450 0.930 . S
C1460 C1459 1.400 . S
C1460 C1463 1.386 1_455 S
H1461 C1477 0.930 . S
H1462 C1478 0.931 . S
C1463 H1451 0.929 . S
C1463 C1457 1.390 . S
C1463 C1460 1.386 1_655 S
C1464 C1459 1.490 . S
C1464 C1466 1.395 . S
C1464 C1467 1.403 . S
H1465 C1471 0.930 . S
C1466 H1452 0.930 . S
C1466 C1464 1.395 . S
C1466 C1469 1.403 . S
C1467 C1464 1.403 . S
C1467 C1468 1.524 . S
C1467 C1471 1.400 . S
C1468 H1453 0.960 . S
C1468 H1454 0.960 . S
C1468 H1455 0.960 . S
C1468 C1467 1.524 . S
C1469 C1466 1.403 . S
C1469 C1470 1.392 . S
C1469 C1473 1.495 . S
C1470 C1469 1.392 . S
C1470 C1471 1.385 . S
C1470 C1472 1.478 . S
C1471 H1465 0.930 . S
C1471 C1467 1.400 . S
C1471 C1470 1.385 . S
C1472 C1470 1.478 . S
C1472 C1474 1.381 . S
C1472 C1478 1.383 . S
C1473 C1469 1.495 . S
C1473 H1479 0.959 . S
C1473 H1480 0.961 . S
C1473 H1481 0.960 . S
C1474 C1472 1.381 . S
C1474 C1475 1.394 . S
C1474 H1482 0.930 . S
C1475 C1474 1.394 . S
C1475 C1476 1.383 . S
C1475 H1483 0.929 . S
C1476 C1475 1.383 . S
C1476 C1477 1.377 . S
C1477 H1461 0.930 . S
C1477 C1476 1.377 . S
C1477 C1478 1.379 . S
C1478 H1462 0.931 . S
C1478 C1472 1.383 . S
C1478 C1477 1.379 . S
H1479 C1473 0.959 . S
H1480 C1473 0.961 . S
H1481 C1473 0.960 . S
H1482 C1474 0.930 . S
H1483 C1475 0.929 . S
H1484 C1492 0.929 . S
H1485 C1494 0.930 . S
H1486 C1496 0.930 . S
H1487 C1499 0.929 . S
H1488 C1502 0.930 . S
H1489 C1504 0.960 . S
H1490 C1504 0.960 . S
H1491 C1504 0.960 . S
C1492 H1484 0.929 . S
C1492 C1493 1.377 . S
C1492 C1494 1.384 . S
C1493 C1492 1.377 . S
C1493 C1499 1.390 . S
C1494 H1485 0.930 . S
C1494 C1492 1.384 . S
C1494 C1495 1.372 . S
C1495 C1494 1.372 . S
C1495 C1496 1.400 . S
C1495 C1500 1.490 . S
C1496 H1486 0.930 . S
C1496 C1495 1.400 . S
C1496 C1499 1.386 . S
H1497 C1513 0.930 . S
H1498 C1514 0.931 . S
C1499 H1487 0.929 . S
C1499 C1493 1.390 . S
C1499 C1496 1.386 . S
C1500 C1495 1.490 . S
C1500 C1502 1.395 . S
C1500 C1503 1.403 . S
H1501 C1507 0.930 . S
C1502 H1488 0.930 . S
C1502 C1500 1.395 . S
C1502 C1505 1.403 . S
C1503 C1500 1.403 . S
C1503 C1504 1.524 . S
C1503 C1507 1.400 . S
C1504 H1489 0.960 . S
C1504 H1490 0.960 . S
C1504 H1491 0.960 . S
C1504 C1503 1.524 . S
C1505 C1502 1.403 . S
C1505 C1506 1.392 . S
C1505 C1509 1.495 . S
C1506 C1505 1.392 . S
C1506 C1507 1.385 . S
C1506 C1508 1.478 . S
C1507 H1501 0.930 . S
C1507 C1503 1.400 . S
C1507 C1506 1.385 . S
C1508 C1506 1.478 . S
C1508 C1510 1.381 . S
C1508 C1514 1.383 . S
C1509 C1505 1.495 . S
C1509 H1515 0.959 . S
C1509 H1516 0.961 . S
C1509 H1517 0.960 . S
C1510 C1508 1.381 . S
C1510 C1511 1.394 . S
C1510 H1518 0.930 . S
C1511 C1510 1.394 . S
C1511 C1512 1.383 . S
C1511 H1519 0.929 . S
C1512 C1511 1.383 . S
C1512 C1513 1.377 . S
C1513 H1497 0.930 . S
C1513 C1512 1.377 . S
C1513 C1514 1.379 . S
C1514 H1498 0.931 . S
C1514 C1508 1.383 . S
C1514 C1513 1.379 . S
H1515 C1509 0.959 . S
H1516 C1509 0.961 . S
H1517 C1509 0.960 . S
H1518 C1510 0.930 . S
H1519 C1511 0.929 . S
H1520 C1528 0.929 1_556 S
H1521 C1530 0.930 . S
H1522 C1532 0.930 . S
H1523 C1535 0.929 . S
H1524 C1538 0.930 . S
H1525 C1540 0.960 . S
H1526 C1540 0.960 . S
H1527 C1540 0.960 . S
C1528 H1520 0.929 1_554 S
C1528 C1529 1.377 . S
C1528 C1530 1.384 . S
C1529 C1528 1.377 . S
C1529 C1535 1.390 . S
C1530 H1521 0.930 . S
C1530 C1528 1.384 . S
C1530 C1531 1.372 . S
C1531 C1530 1.372 . S
C1531 C1532 1.400 . S
C1531 C1536 1.490 . S
C1532 H1522 0.930 . S
C1532 C1531 1.400 . S
C1532 C1535 1.386 . S
H1533 C1549 0.930 . S
H1534 C1550 0.931 . S
C1535 H1523 0.929 . S
C1535 C1529 1.390 . S
C1535 C1532 1.386 . S
C1536 C1531 1.490 . S
C1536 C1538 1.395 . S
C1536 C1539 1.403 . S
H1537 C1543 0.930 . S
C1538 H1524 0.930 . S
C1538 C1536 1.395 . S
C1538 C1541 1.403 . S
C1539 C1536 1.403 . S
C1539 C1540 1.524 . S
C1539 C1543 1.400 . S
C1540 H1525 0.960 . S
C1540 H1526 0.960 . S
C1540 H1527 0.960 . S
C1540 C1539 1.524 . S
C1541 C1538 1.403 . S
C1541 C1542 1.392 . S
C1541 C1545 1.495 . S
C1542 C1541 1.392 . S
C1542 C1543 1.385 . S
C1542 C1544 1.478 . S
C1543 H1537 0.930 . S
C1543 C1539 1.400 . S
C1543 C1542 1.385 . S
C1544 C1542 1.478 . S
C1544 C1546 1.381 . S
C1544 C1550 1.383 . S
C1545 C1541 1.495 . S
C1545 H1551 0.959 . S
C1545 H1552 0.961 . S
C1545 H1553 0.960 . S
C1546 C1544 1.381 . S
C1546 C1547 1.394 . S
C1546 H1554 0.930 . S
C1547 C1546 1.394 . S
C1547 C1548 1.383 . S
C1547 H1555 0.929 . S
C1548 C1547 1.383 . S
C1548 C1549 1.377 . S
C1549 H1533 0.930 . S
C1549 C1548 1.377 . S
C1549 C1550 1.379 . S
C1550 H1534 0.931 . S
C1550 C1544 1.383 . S
C1550 C1549 1.379 . S
H1551 C1545 0.959 . S
H1552 C1545 0.961 . S
H1553 C1545 0.960 . S
H1554 C1546 0.930 . S
H1555 C1547 0.929 . S
H1556 C1564 0.929 . S
H1557 C1566 0.930 . S
H1558 C1568 0.930 . S
H1559 C1571 0.929 . S
H1560 C1574 0.930 . S
H1561 C1576 0.960 . S
H1562 C1576 0.960 . S
H1563 C1576 0.960 . S
C1564 H1556 0.929 . S
C1564 C1565 1.377 . S
C1564 C1566 1.384 . S
C1565 C1564 1.377 . S
C1565 C1571 1.390 . S
C1566 H1557 0.930 . S
C1566 C1564 1.384 . S
C1566 C1567 1.372 . S
C1567 C1566 1.372 . S
C1567 C1568 1.400 . S
C1567 C1572 1.490 . S
C1568 H1558 0.930 . S
C1568 C1567 1.400 . S
C1568 C1571 1.386 . S
H1569 C1585 0.930 . S
H1570 C1586 0.931 . S
C1571 H1559 0.929 . S
C1571 C1565 1.390 . S
C1571 C1568 1.386 . S
C1572 C1567 1.490 . S
C1572 C1574 1.395 . S
C1572 C1575 1.403 . S
H1573 C1579 0.930 . S
C1574 H1560 0.930 . S
C1574 C1572 1.395 . S
C1574 C1577 1.403 . S
C1575 C1572 1.403 . S
C1575 C1576 1.524 . S
C1575 C1579 1.400 . S
C1576 H1561 0.960 . S
C1576 H1562 0.960 . S
C1576 H1563 0.960 . S
C1576 C1575 1.524 . S
C1577 C1574 1.403 . S
C1577 C1578 1.392 . S
C1577 C1581 1.495 . S
C1578 C1577 1.392 . S
C1578 C1579 1.385 . S
C1578 C1580 1.478 . S
C1579 H1573 0.930 . S
C1579 C1575 1.400 . S
C1579 C1578 1.385 . S
C1580 C1578 1.478 . S
C1580 C1582 1.381 . S
C1580 C1586 1.383 . S
C1581 C1577 1.495 . S
C1581 H1587 0.959 . S
C1581 H1588 0.961 . S
C1581 H1589 0.960 . S
C1582 C1580 1.381 . S
C1582 C1583 1.394 . S
C1582 H1590 0.930 . S
C1583 C1582 1.394 . S
C1583 C1584 1.383 . S
C1583 H1591 0.929 1_556 S
C1584 C1583 1.383 . S
C1584 C1585 1.377 . S
C1585 H1569 0.930 . S
C1585 C1584 1.377 . S
C1585 C1586 1.379 . S
C1586 H1570 0.931 . S
C1586 C1580 1.383 . S
C1586 C1585 1.379 . S
H1587 C1581 0.959 . S
H1588 C1581 0.961 . S
H1589 C1581 0.960 . S
H1590 C1582 0.930 . S
H1591 C1583 0.929 1_554 S
H1592 C1600 0.929 . S
H1593 C1602 0.930 . S
H1594 C1604 0.930 . S
H1595 C1607 0.929 . S
H1596 C1610 0.930 . S
H1597 C1612 0.960 . S
H1598 C1612 0.960 . S
H1599 C1612 0.960 . S
C1600 H1592 0.929 . S
C1600 C1601 1.377 . S
C1600 C1602 1.384 . S
C1601 C1600 1.377 . S
C1601 C1607 1.390 1_455 S
C1602 H1593 0.930 . S
C1602 C1600 1.384 . S
C1602 C1603 1.372 1_455 S
C1603 C1602 1.372 1_655 S
C1603 C1604 1.400 . S
C1603 C1608 1.490 . S
C1604 H1594 0.930 . S
C1604 C1603 1.400 . S
C1604 C1607 1.386 . S
H1605 C1621 0.930 . S
H1606 C1622 0.931 . S
C1607 H1595 0.929 . S
C1607 C1601 1.390 1_655 S
C1607 C1604 1.386 . S
C1608 C1603 1.490 . S
C1608 C1610 1.395 . S
C1608 C1611 1.403 . S
H1609 C1615 0.930 . S
C1610 H1596 0.930 . S
C1610 C1608 1.395 . S
C1610 C1613 1.403 . S
C1611 C1608 1.403 . S
C1611 C1612 1.524 . S
C1611 C1615 1.400 . S
C1612 H1597 0.960 . S
C1612 H1598 0.960 . S
C1612 H1599 0.960 . S
C1612 C1611 1.524 . S
C1613 C1610 1.403 . S
C1613 C1614 1.392 . S
C1613 C1617 1.495 . S
C1614 C1613 1.392 . S
C1614 C1615 1.385 . S
C1614 C1616 1.478 . S
C1615 H1609 0.930 . S
C1615 C1611 1.400 . S
C1615 C1614 1.385 . S
C1616 C1614 1.478 . S
C1616 C1618 1.381 . S
C1616 C1622 1.383 . S
C1617 C1613 1.495 . S
C1617 H1623 0.959 . S
C1617 H1624 0.961 . S
C1617 H1625 0.960 . S
C1618 C1616 1.381 . S
C1618 C1619 1.394 . S
C1618 H1626 0.930 . S
C1619 C1618 1.394 . S
C1619 C1620 1.383 . S
C1619 H1627 0.929 . S
C1620 C1619 1.383 . S
C1620 C1621 1.377 . S
C1621 H1605 0.930 . S
C1621 C1620 1.377 . S
C1621 C1622 1.379 . S
C1622 H1606 0.931 . S
C1622 C1616 1.383 . S
C1622 C1621 1.379 . S
H1623 C1617 0.959 . S
H1624 C1617 0.961 . S
H1625 C1617 0.960 . S
H1626 C1618 0.930 . S
H1627 C1619 0.929 . S
H1628 C1636 0.929 . S
H1629 C1638 0.930 . S
H1630 C1640 0.930 . S
H1631 C1643 0.929 . S
H1632 C1646 0.930 . S
H1633 C1648 0.960 . S
H1634 C1648 0.960 . S
H1635 C1648 0.960 . S
C1636 H1628 0.929 . S
C1636 C1637 1.377 . S
C1636 C1638 1.384 . S
C1637 C1636 1.377 . S
C1637 C1643 1.390 . S
C1638 H1629 0.930 . S
C1638 C1636 1.384 . S
C1638 C1639 1.372 . S
C1639 C1638 1.372 . S
C1639 C1640 1.400 . S
C1639 C1644 1.490 . S
C1640 H1630 0.930 . S
C1640 C1639 1.400 . S
C1640 C1643 1.386 . S
H1641 C1657 0.930 . S
H1642 C1658 0.931 . S
C1643 H1631 0.929 . S
C1643 C1637 1.390 . S
C1643 C1640 1.386 . S
C1644 C1639 1.490 . S
C1644 C1646 1.395 . S
C1644 C1647 1.403 . S
H1645 C1651 0.930 . S
C1646 H1632 0.930 . S
C1646 C1644 1.395 . S
C1646 C1649 1.403 . S
C1647 C1644 1.403 . S
C1647 C1648 1.524 . S
C1647 C1651 1.400 . S
C1648 H1633 0.960 . S
C1648 H1634 0.960 . S
C1648 H1635 0.960 . S
C1648 C1647 1.524 . S
C1649 C1646 1.403 . S
C1649 C1650 1.392 . S
C1649 C1653 1.495 . S
C1650 C1649 1.392 . S
C1650 C1651 1.385 . S
C1650 C1652 1.478 . S
C1651 H1645 0.930 . S
C1651 C1647 1.400 . S
C1651 C1650 1.385 . S
C1652 C1650 1.478 . S
C1652 C1654 1.381 . S
C1652 C1658 1.383 . S
C1653 C1649 1.495 . S
C1653 H1659 0.959 . S
C1653 H1660 0.961 . S
C1653 H1661 0.960 . S
C1654 C1652 1.381 . S
C1654 C1655 1.394 . S
C1654 H1662 0.930 . S
C1655 C1654 1.394 . S
C1655 C1656 1.383 . S
C1655 H1663 0.929 . S
C1656 C1655 1.383 . S
C1656 C1657 1.377 . S
C1657 H1641 0.930 . S
C1657 C1656 1.377 . S
C1657 C1658 1.379 . S
C1658 H1642 0.931 . S
C1658 C1652 1.383 . S
C1658 C1657 1.379 . S
H1659 C1653 0.959 . S
H1660 C1653 0.961 . S
H1661 C1653 0.960 . S
H1662 C1654 0.930 . S
H1663 C1655 0.929 . S
H1664 C1672 0.929 . S
H1665 C1674 0.930 . S
H1666 C1676 0.930 . S
H1667 C1679 0.929 . S
H1668 C1682 0.930 . S
H1669 C1684 0.960 . S
H1670 C1684 0.960 . S
H1671 C1684 0.960 . S
C1672 H1664 0.929 . S
C1672 C1673 1.377 . S
C1672 C1674 1.384 . S
C1673 C1672 1.377 . S
C1673 C1679 1.390 . S
C1674 H1665 0.930 . S
C1674 C1672 1.384 . S
C1674 C1675 1.372 . S
C1675 C1674 1.372 . S
C1675 C1676 1.400 . S
C1675 C1680 1.490 . S
C1676 H1666 0.930 . S
C1676 C1675 1.400 . S
C1676 C1679 1.386 . S
H1677 C1693 0.930 . S
H1678 C1694 0.930 1_455 S
C1679 H1667 0.929 . S
C1679 C1673 1.390 . S
C1679 C1676 1.386 . S
C1680 C1675 1.490 . S
C1680 C1682 1.395 . S
C1680 C1683 1.403 . S
H1681 C1687 0.930 . S
C1682 H1668 0.930 . S
C1682 C1680 1.395 . S
C1682 C1685 1.403 . S
C1683 C1680 1.403 . S
C1683 C1684 1.524 . S
C1683 C1687 1.400 . S
C1684 H1669 0.960 . S
C1684 H1670 0.960 . S
C1684 H1671 0.960 . S
C1684 C1683 1.524 . S
C1685 C1682 1.403 . S
C1685 C1686 1.392 . S
C1685 C1689 1.495 . S
C1686 C1685 1.392 . S
C1686 C1687 1.385 . S
C1686 C1688 1.478 . S
C1687 H1681 0.930 . S
C1687 C1683 1.400 . S
C1687 C1686 1.385 . S
C1688 C1686 1.478 . S
C1688 C1690 1.381 . S
C1688 C1694 1.383 . S
C1689 C1685 1.495 . S
C1689 H1695 0.959 . S
C1689 H1696 0.961 . S
C1689 H1697 0.960 . S
C1690 C1688 1.381 . S
C1690 C1691 1.394 . S
C1690 H1698 0.930 . S
C1691 C1690 1.394 . S
C1691 C1692 1.383 1_655 S
C1691 H1699 0.929 . S
C1692 C1691 1.383 1_455 S
C1692 C1693 1.377 . S
C1693 H1677 0.930 . S
C1693 C1692 1.377 . S
C1693 C1694 1.379 1_455 S
C1694 H1678 0.930 1_655 S
C1694 C1688 1.383 . S
C1694 C1693 1.379 1_655 S
H1695 C1689 0.959 . S
H1696 C1689 0.961 . S
H1697 C1689 0.960 . S
H1698 C1690 0.930 . S
H1699 C1691 0.929 . S
H1700 C1708 0.929 . S
H1701 C1710 0.930 . S
H1702 C1712 0.930 . S
H1703 C1715 0.929 . S
H1704 C1718 0.930 . S
H1705 C1720 0.960 . S
H1706 C1720 0.960 . S
H1707 C1720 0.960 . S
C1708 H1700 0.929 . S
C1708 C1709 1.377 . S
C1708 C1710 1.384 . S
C1709 C1708 1.377 . S
C1709 C1715 1.390 . S
C1710 H1701 0.930 . S
C1710 C1708 1.384 . S
C1710 C1711 1.372 . S
C1711 C1710 1.372 . S
C1711 C1712 1.400 . S
C1711 C1716 1.490 . S
C1712 H1702 0.930 . S
C1712 C1711 1.400 . S
C1712 C1715 1.386 . S
H1713 C1729 0.930 . S
H1714 C1730 0.931 . S
C1715 H1703 0.929 . S
C1715 C1709 1.390 . S
C1715 C1712 1.386 . S
C1716 C1711 1.490 . S
C1716 C1718 1.395 . S
C1716 C1719 1.403 . S
H1717 C1723 0.930 . S
C1718 H1704 0.930 . S
C1718 C1716 1.395 . S
C1718 C1721 1.403 . S
C1719 C1716 1.403 . S
C1719 C1720 1.524 . S
C1719 C1723 1.400 . S
C1720 H1705 0.960 . S
C1720 H1706 0.960 . S
C1720 H1707 0.960 . S
C1720 C1719 1.524 . S
C1721 C1718 1.403 . S
C1721 C1722 1.392 . S
C1721 C1725 1.495 . S
C1722 C1721 1.392 . S
C1722 C1723 1.385 . S
C1722 C1724 1.478 . S
C1723 H1717 0.930 . S
C1723 C1719 1.400 . S
C1723 C1722 1.385 . S
C1724 C1722 1.478 . S
C1724 C1726 1.381 . S
C1724 C1730 1.383 . S
C1725 C1721 1.495 . S
C1725 H1731 0.959 . S
C1725 H1732 0.961 . S
C1725 H1733 0.960 . S
C1726 C1724 1.381 . S
C1726 C1727 1.394 . S
C1726 H1734 0.930 . S
C1727 C1726 1.394 . S
C1727 C1728 1.383 . S
C1727 H1735 0.929 . S
C1728 C1727 1.383 . S
C1728 C1729 1.377 . S
C1729 H1713 0.930 . S
C1729 C1728 1.377 . S
C1729 C1730 1.379 . S
C1730 H1714 0.931 . S
C1730 C1724 1.383 . S
C1730 C1729 1.379 . S
H1731 C1725 0.959 . S
H1732 C1725 0.961 . S
H1733 C1725 0.960 . S
H1734 C1726 0.930 . S
H1735 C1727 0.929 . S
H1736 C1744 0.929 . S
H1737 C1746 0.930 . S
H1738 C1748 0.930 . S
H1739 C1751 0.929 . S
H1740 C1754 0.930 . S
H1741 C1756 0.960 . S
H1742 C1756 0.960 . S
H1743 C1756 0.960 . S
C1744 H1736 0.929 . S
C1744 C1745 1.377 . S
C1744 C1746 1.384 . S
C1745 C1744 1.377 . S
C1745 C1751 1.390 . S
C1746 H1737 0.930 . S
C1746 C1744 1.384 . S
C1746 C1747 1.372 . S
C1747 C1746 1.372 . S
C1747 C1748 1.400 . S
C1747 C1752 1.490 . S
C1748 H1738 0.930 . S
C1748 C1747 1.400 . S
C1748 C1751 1.386 . S
H1749 C1765 0.930 . S
H1750 C1766 0.931 . S
C1751 H1739 0.929 . S
C1751 C1745 1.390 . S
C1751 C1748 1.386 . S
C1752 C1747 1.490 . S
C1752 C1754 1.395 . S
C1752 C1755 1.403 . S
H1753 C1759 0.930 . S
C1754 H1740 0.930 . S
C1754 C1752 1.395 . S
C1754 C1757 1.403 . S
C1755 C1752 1.403 . S
C1755 C1756 1.524 . S
C1755 C1759 1.400 . S
C1756 H1741 0.960 . S
C1756 H1742 0.960 . S
C1756 H1743 0.960 . S
C1756 C1755 1.524 . S
C1757 C1754 1.403 . S
C1757 C1758 1.392 . S
C1757 C1761 1.495 . S
C1758 C1757 1.392 . S
C1758 C1759 1.385 . S
C1758 C1760 1.478 . S
C1759 H1753 0.930 . S
C1759 C1755 1.400 . S
C1759 C1758 1.385 . S
C1760 C1758 1.478 . S
C1760 C1762 1.381 . S
C1760 C1766 1.383 . S
C1761 C1757 1.495 . S
C1761 H1767 0.959 . S
C1761 H1768 0.961 . S
C1761 H1769 0.960 . S
C1762 C1760 1.381 . S
C1762 C1763 1.394 . S
C1762 H1770 0.930 . S
C1763 C1762 1.394 . S
C1763 C1764 1.383 . S
C1763 H1771 0.929 . S
C1764 C1763 1.383 . S
C1764 C1765 1.377 . S
C1765 H1749 0.930 . S
C1765 C1764 1.377 . S
C1765 C1766 1.379 . S
C1766 H1750 0.931 . S
C1766 C1760 1.383 . S
C1766 C1765 1.379 . S
H1767 C1761 0.959 . S
H1768 C1761 0.961 . S
H1769 C1761 0.960 . S
H1770 C1762 0.930 . S
H1771 C1763 0.929 . S
H1772 C1780 0.929 . S
H1773 C1782 0.930 . S
H1774 C1784 0.930 . S
H1775 C1787 0.929 1_556 S
H1776 C1790 0.930 . S
H1777 C1792 0.960 . S
H1778 C1792 0.960 . S
H1779 C1792 0.960 . S
C1780 H1772 0.929 . S
C1780 C1781 1.377 . S
C1780 C1782 1.384 . S
C1781 C1780 1.377 . S
C1781 C1787 1.390 . S
C1782 H1773 0.930 . S
C1782 C1780 1.384 . S
C1782 C1783 1.372 . S
C1783 C1782 1.372 . S
C1783 C1784 1.400 . S
C1783 C1788 1.490 . S
C1784 H1774 0.930 . S
C1784 C1783 1.400 . S
C1784 C1787 1.386 . S
H1785 C1801 0.930 . S
H1786 C1802 0.931 . S
C1787 H1775 0.929 1_554 S
C1787 C1781 1.390 . S
C1787 C1784 1.386 . S
C1788 C1783 1.490 . S
C1788 C1790 1.395 . S
C1788 C1791 1.403 . S
H1789 C1795 0.930 . S
C1790 H1776 0.930 . S
C1790 C1788 1.395 . S
C1790 C1793 1.403 . S
C1791 C1788 1.403 . S
C1791 C1792 1.524 . S
C1791 C1795 1.400 . S
C1792 H1777 0.960 . S
C1792 H1778 0.960 . S
C1792 H1779 0.960 . S
C1792 C1791 1.524 . S
C1793 C1790 1.403 . S
C1793 C1794 1.392 . S
C1793 C1797 1.495 . S
C1794 C1793 1.392 . S
C1794 C1795 1.385 . S
C1794 C1796 1.478 . S
C1795 H1789 0.930 . S
C1795 C1791 1.400 . S
C1795 C1794 1.385 . S
C1796 C1794 1.478 . S
C1796 C1798 1.381 . S
C1796 C1802 1.383 . S
C1797 C1793 1.495 . S
C1797 H1803 0.959 . S
C1797 H1804 0.961 . S
C1797 H1805 0.960 . S
C1798 C1796 1.381 . S
C1798 C1799 1.394 . S
C1798 H1806 0.930 . S
C1799 C1798 1.394 . S
C1799 C1800 1.383 . S
C1799 H1807 0.929 . S
C1800 C1799 1.383 . S
C1800 C1801 1.377 . S
C1801 H1785 0.930 . S
C1801 C1800 1.377 . S
C1801 C1802 1.379 . S
C1802 H1786 0.931 . S
C1802 C1796 1.383 . S
C1802 C1801 1.379 . S
H1803 C1797 0.959 . S
H1804 C1797 0.961 . S
H1805 C1797 0.960 . S
H1806 C1798 0.930 . S
H1807 C1799 0.929 . S
H1808 C1816 0.929 . S
H1809 C1818 0.930 . S
H1810 C1820 0.930 . S
H1811 C1823 0.929 . S
H1812 C1826 0.930 . S
H1813 C1828 0.960 . S
H1814 C1828 0.960 . S
H1815 C1828 0.960 . S
C1816 H1808 0.929 . S
C1816 C1817 1.377 . S
C1816 C1818 1.384 . S
C1817 C1816 1.377 . S
C1817 C1823 1.390 . S
C1818 H1809 0.930 . S
C1818 C1816 1.384 . S
C1818 C1819 1.372 . S
C1819 C1818 1.372 . S
C1819 C1820 1.400 . S
C1819 C1824 1.490 . S
C1820 H1810 0.930 . S
C1820 C1819 1.400 . S
C1820 C1823 1.386 . S
H1821 C1837 0.930 . S
H1822 C1838 0.931 . S
C1823 H1811 0.929 . S
C1823 C1817 1.390 . S
C1823 C1820 1.386 . S
C1824 C1819 1.490 . S
C1824 C1826 1.395 . S
C1824 C1827 1.403 . S
H1825 C1831 0.930 . S
C1826 H1812 0.930 . S
C1826 C1824 1.395 . S
C1826 C1829 1.403 . S
C1827 C1824 1.403 . S
C1827 C1828 1.524 . S
C1827 C1831 1.400 . S
C1828 H1813 0.960 . S
C1828 H1814 0.960 . S
C1828 H1815 0.960 . S
C1828 C1827 1.524 . S
C1829 C1826 1.403 . S
C1829 C1830 1.392 . S
C1829 C1833 1.495 . S
C1830 C1829 1.392 . S
C1830 C1831 1.385 . S
C1830 C1832 1.478 . S
C1831 H1825 0.930 . S
C1831 C1827 1.400 . S
C1831 C1830 1.385 . S
C1832 C1830 1.478 . S
C1832 C1834 1.381 . S
C1832 C1838 1.383 . S
C1833 C1829 1.495 . S
C1833 H1839 0.959 . S
C1833 H1840 0.961 . S
C1833 H1841 0.960 . S
C1834 C1832 1.381 . S
C1834 C1835 1.394 1_455 S
C1834 H1842 0.930 . S
C1835 C1834 1.394 1_655 S
C1835 C1836 1.383 . S
C1835 H1843 0.929 . S
C1836 C1835 1.383 . S
C1836 C1837 1.377 . S
C1837 H1821 0.930 . S
C1837 C1836 1.377 . S
C1837 C1838 1.379 1_655 S
C1838 H1822 0.931 . S
C1838 C1832 1.383 . S
C1838 C1837 1.379 1_455 S
H1839 C1833 0.959 . S
H1840 C1833 0.961 . S
H1841 C1833 0.960 . S
H1842 C1834 0.930 . S
H1843 C1835 0.929 . S
H1844 C1852 0.929 . S
H1845 C1854 0.930 . S
H1846 C1856 0.930 . S
H1847 C1859 0.929 . S
H1848 C1862 0.930 . S
H1849 C1864 0.960 . S
H1850 C1864 0.960 . S
H1851 C1864 0.960 . S
C1852 H1844 0.929 . S
C1852 C1853 1.377 . S
C1852 C1854 1.384 . S
C1853 C1852 1.377 . S
C1853 C1859 1.390 . S
C1854 H1845 0.930 . S
C1854 C1852 1.384 . S
C1854 C1855 1.372 . S
C1855 C1854 1.372 . S
C1855 C1856 1.400 . S
C1855 C1860 1.490 . S
C1856 H1846 0.930 . S
C1856 C1855 1.400 . S
C1856 C1859 1.386 . S
H1857 C1873 0.930 . S
H1858 C1874 0.931 . S
C1859 H1847 0.929 . S
C1859 C1853 1.390 . S
C1859 C1856 1.386 . S
C1860 C1855 1.490 . S
C1860 C1862 1.395 . S
C1860 C1863 1.403 . S
H1861 C1867 0.930 . S
C1862 H1848 0.930 . S
C1862 C1860 1.395 . S
C1862 C1865 1.403 . S
C1863 C1860 1.403 . S
C1863 C1864 1.524 . S
C1863 C1867 1.400 . S
C1864 H1849 0.960 . S
C1864 H1850 0.960 . S
C1864 H1851 0.960 . S
C1864 C1863 1.524 . S
C1865 C1862 1.403 . S
C1865 C1866 1.392 . S
C1865 C1869 1.495 . S
C1866 C1865 1.392 . S
C1866 C1867 1.385 . S
C1866 C1868 1.478 . S
C1867 H1861 0.930 . S
C1867 C1863 1.400 . S
C1867 C1866 1.385 . S
C1868 C1866 1.478 . S
C1868 C1870 1.381 . S
C1868 C1874 1.383 . S
C1869 C1865 1.495 . S
C1869 H1875 0.959 . S
C1869 H1876 0.961 . S
C1869 H1877 0.960 . S
C1870 C1868 1.381 . S
C1870 C1871 1.394 . S
C1870 H1878 0.930 . S
C1871 C1870 1.394 . S
C1871 C1872 1.383 . S
C1871 H1879 0.929 . S
C1872 C1871 1.383 . S
C1872 C1873 1.377 . S
C1873 H1857 0.930 . S
C1873 C1872 1.377 . S
C1873 C1874 1.379 . S
C1874 H1858 0.931 . S
C1874 C1868 1.383 . S
C1874 C1873 1.379 . S
H1875 C1869 0.959 . S
H1876 C1869 0.961 . S
H1877 C1869 0.960 . S
H1878 C1870 0.930 . S
H1879 C1871 0.929 . S
H1880 C1888 0.929 1_556 S
H1881 C1890 0.930 . S
H1882 C1892 0.930 . S
H1883 C1895 0.929 . S
H1884 C1898 0.930 . S
H1885 C1900 0.960 . S
H1886 C1900 0.960 . S
H1887 C1900 0.960 . S
C1888 H1880 0.929 1_554 S
C1888 C1889 1.377 . S
C1888 C1890 1.384 . S
C1889 C1888 1.377 . S
C1889 C1895 1.390 . S
C1890 H1881 0.930 . S
C1890 C1888 1.384 . S
C1890 C1891 1.372 . S
C1891 C1890 1.372 . S
C1891 C1892 1.400 . S
C1891 C1896 1.490 . S
C1892 H1882 0.930 . S
C1892 C1891 1.400 . S
C1892 C1895 1.386 . S
H1893 C1909 0.930 . S
H1894 C1910 0.931 . S
C1895 H1883 0.929 . S
C1895 C1889 1.390 . S
C1895 C1892 1.386 . S
C1896 C1891 1.490 . S
C1896 C1898 1.395 . S
C1896 C1899 1.403 . S
H1897 C1903 0.930 . S
C1898 H1884 0.930 . S
C1898 C1896 1.395 . S
C1898 C1901 1.403 . S
C1899 C1896 1.403 . S
C1899 C1900 1.524 . S
C1899 C1903 1.400 . S
C1900 H1885 0.960 . S
C1900 H1886 0.960 . S
C1900 H1887 0.960 . S
C1900 C1899 1.524 . S
C1901 C1898 1.403 . S
C1901 C1902 1.392 . S
C1901 C1905 1.495 . S
C1902 C1901 1.392 . S
C1902 C1903 1.385 . S
C1902 C1904 1.478 . S
C1903 H1897 0.930 . S
C1903 C1899 1.400 . S
C1903 C1902 1.385 . S
C1904 C1902 1.478 . S
C1904 C1906 1.381 . S
C1904 C1910 1.383 . S
C1905 C1901 1.495 . S
C1905 H1911 0.959 . S
C1905 H1912 0.961 . S
C1905 H1913 0.960 . S
C1906 C1904 1.381 . S
C1906 C1907 1.394 . S
C1906 H1914 0.930 . S
C1907 C1906 1.394 . S
C1907 C1908 1.383 . S
C1907 H1915 0.929 . S
C1908 C1907 1.383 . S
C1908 C1909 1.377 . S
C1909 H1893 0.930 . S
C1909 C1908 1.377 . S
C1909 C1910 1.379 . S
C1910 H1894 0.931 . S
C1910 C1904 1.383 . S
C1910 C1909 1.379 . S
H1911 C1905 0.959 . S
H1912 C1905 0.961 . S
H1913 C1905 0.960 . S
H1914 C1906 0.930 . S
H1915 C1907 0.929 . S
H1916 C1924 0.929 . S
H1917 C1926 0.930 . S
H1918 C1928 0.930 . S
H1919 C1931 0.929 1_554 S
H1920 C1934 0.930 . S
H1921 C1936 0.960 . S
H1922 C1936 0.960 . S
H1923 C1936 0.960 . S
C1924 H1916 0.929 . S
C1924 C1925 1.377 . S
C1924 C1926 1.384 . S
C1925 C1924 1.377 . S
C1925 C1931 1.390 . S
C1926 H1917 0.930 . S
C1926 C1924 1.384 . S
C1926 C1927 1.372 . S
C1927 C1926 1.372 . S
C1927 C1928 1.400 . S
C1927 C1932 1.490 . S
C1928 H1918 0.930 . S
C1928 C1927 1.400 . S
C1928 C1931 1.386 . S
H1929 C1945 0.930 . S
H1930 C1946 0.931 . S
C1931 H1919 0.929 1_556 S
C1931 C1925 1.390 . S
C1931 C1928 1.386 . S
C1932 C1927 1.490 . S
C1932 C1934 1.395 . S
C1932 C1935 1.403 . S
H1933 C1939 0.930 . S
C1934 H1920 0.930 . S
C1934 C1932 1.395 . S
C1934 C1937 1.403 . S
C1935 C1932 1.403 . S
C1935 C1936 1.524 . S
C1935 C1939 1.400 . S
C1936 H1921 0.960 . S
C1936 H1922 0.960 . S
C1936 H1923 0.960 . S
C1936 C1935 1.524 . S
C1937 C1934 1.403 . S
C1937 C1938 1.392 . S
C1937 C1941 1.495 . S
C1938 C1937 1.392 . S
C1938 C1939 1.385 . S
C1938 C1940 1.478 . S
C1939 H1933 0.930 . S
C1939 C1935 1.400 . S
C1939 C1938 1.385 . S
C1940 C1938 1.478 . S
C1940 C1942 1.381 . S
C1940 C1946 1.383 . S
C1941 C1937 1.495 . S
C1941 H1947 0.959 . S
C1941 H1948 0.961 . S
C1941 H1949 0.960 . S
C1942 C1940 1.381 . S
C1942 C1943 1.394 . S
C1942 H1950 0.930 . S
C1943 C1942 1.394 . S
C1943 C1944 1.383 . S
C1943 H1951 0.929 . S
C1944 C1943 1.383 . S
C1944 C1945 1.377 . S
C1945 H1929 0.930 . S
C1945 C1944 1.377 . S
C1945 C1946 1.379 . S
C1946 H1930 0.931 . S
C1946 C1940 1.383 . S
C1946 C1945 1.379 . S
H1947 C1941 0.959 . S
H1948 C1941 0.961 . S
H1949 C1941 0.960 . S
H1950 C1942 0.930 . S
H1951 C1943 0.929 . S
H1952 C1960 0.929 . S
H1953 C1962 0.930 . S
H1954 C1964 0.930 . S
H1955 C1967 0.929 . S
H1956 C1970 0.930 . S
H1957 C1972 0.960 . S
H1958 C1972 0.960 . S
H1959 C1972 0.960 . S
C1960 H1952 0.929 . S
C1960 C1961 1.377 . S
C1960 C1962 1.384 . S
C1961 C1960 1.377 . S
C1961 C1967 1.390 . S
C1962 H1953 0.930 . S
C1962 C1960 1.384 . S
C1962 C1963 1.372 . S
C1963 C1962 1.372 . S
C1963 C1964 1.400 . S
C1963 C1968 1.490 . S
C1964 H1954 0.930 . S
C1964 C1963 1.400 . S
C1964 C1967 1.386 . S
H1965 C1981 0.930 . S
H1966 C1982 0.931 . S
C1967 H1955 0.929 . S
C1967 C1961 1.390 . S
C1967 C1964 1.386 . S
C1968 C1963 1.490 . S
C1968 C1970 1.395 . S
C1968 C1971 1.403 . S
H1969 C1975 0.930 . S
C1970 H1956 0.930 . S
C1970 C1968 1.395 . S
C1970 C1973 1.403 . S
C1971 C1968 1.403 . S
C1971 C1972 1.524 . S
C1971 C1975 1.400 . S
C1972 H1957 0.960 . S
C1972 H1958 0.960 . S
C1972 H1959 0.960 . S
C1972 C1971 1.524 . S
C1973 C1970 1.403 . S
C1973 C1974 1.392 . S
C1973 C1977 1.495 . S
C1974 C1973 1.392 . S
C1974 C1975 1.385 . S
C1974 C1976 1.478 . S
C1975 H1969 0.930 . S
C1975 C1971 1.400 . S
C1975 C1974 1.385 . S
C1976 C1974 1.478 . S
C1976 C1978 1.381 . S
C1976 C1982 1.383 . S
C1977 C1973 1.495 . S
C1977 H1983 0.959 . S
C1977 H1984 0.961 . S
C1977 H1985 0.960 . S
C1978 C1976 1.381 . S
C1978 C1979 1.394 . S
C1978 H1986 0.930 . S
C1979 C1978 1.394 . S
C1979 C1980 1.383 . S
C1979 H1987 0.929 . S
C1980 C1979 1.383 . S
C1980 C1981 1.377 . S
C1981 H1965 0.930 . S
C1981 C1980 1.377 . S
C1981 C1982 1.379 . S
C1982 H1966 0.931 . S
C1982 C1976 1.383 . S
C1982 C1981 1.379 . S
H1983 C1977 0.959 . S
H1984 C1977 0.961 . S
H1985 C1977 0.960 . S
H1986 C1978 0.930 . S
H1987 C1979 0.929 . S
H1988 C1996 0.929 . S
H1989 C1998 0.930 . S
H1990 C2000 0.930 . S
H1991 C2003 0.929 . S
H1992 C2006 0.930 . S
H1993 C2008 0.960 . S
H1994 C2008 0.960 . S
H1995 C2008 0.960 . S
C1996 H1988 0.929 . S
C1996 C1997 1.377 . S
C1996 C1998 1.384 . S
C1997 C1996 1.377 . S
C1997 C2003 1.390 . S
C1998 H1989 0.930 . S
C1998 C1996 1.384 . S
C1998 C1999 1.372 . S
C1999 C1998 1.372 . S
C1999 C2000 1.400 . S
C1999 C2004 1.490 . S
C2000 H1990 0.930 . S
C2000 C1999 1.400 . S
C2000 C2003 1.386 . S
H2001 C2017 0.930 . S
H2002 C2018 0.931 . S
C2003 H1991 0.929 . S
C2003 C1997 1.390 . S
C2003 C2000 1.386 . S
C2004 C1999 1.490 . S
C2004 C2006 1.395 . S
C2004 C2007 1.403 . S
H2005 C2011 0.930 . S
C2006 H1992 0.930 . S
C2006 C2004 1.395 . S
C2006 C2009 1.403 . S
C2007 C2004 1.403 . S
C2007 C2008 1.524 . S
C2007 C2011 1.400 . S
C2008 H1993 0.960 . S
C2008 H1994 0.960 . S
C2008 H1995 0.960 . S
C2008 C2007 1.524 . S
C2009 C2006 1.403 . S
C2009 C2010 1.392 . S
C2009 C2013 1.495 . S
C2010 C2009 1.392 . S
C2010 C2011 1.385 . S
C2010 C2012 1.478 . S
C2011 H2005 0.930 . S
C2011 C2007 1.400 . S
C2011 C2010 1.385 . S
C2012 C2010 1.478 . S
C2012 C2014 1.381 . S
C2012 C2018 1.383 . S
C2013 C2009 1.495 . S
C2013 H2019 0.959 . S
C2013 H2020 0.961 . S
C2013 H2021 0.960 . S
C2014 C2012 1.381 . S
C2014 C2015 1.394 . S
C2014 H2022 0.930 . S
C2015 C2014 1.394 . S
C2015 C2016 1.383 . S
C2015 H2023 0.929 . S
C2016 C2015 1.383 . S
C2016 C2017 1.377 . S
C2017 H2001 0.930 . S
C2017 C2016 1.377 . S
C2017 C2018 1.379 . S
C2018 H2002 0.931 . S
C2018 C2012 1.383 . S
C2018 C2017 1.379 . S
H2019 C2013 0.959 . S
H2020 C2013 0.961 . S
H2021 C2013 0.960 . S
H2022 C2014 0.930 . S
H2023 C2015 0.929 . S
H2024 C2032 0.929 . S
H2025 C2034 0.930 . S
H2026 C2036 0.930 . S
H2027 C2039 0.929 . S
H2028 C2042 0.930 . S
H2029 C2044 0.960 . S
H2030 C2044 0.960 . S
H2031 C2044 0.960 . S
C2032 H2024 0.929 . S
C2032 C2033 1.377 . S
C2032 C2034 1.384 . S
C2033 C2032 1.377 . S
C2033 C2039 1.390 . S
C2034 H2025 0.930 . S
C2034 C2032 1.384 . S
C2034 C2035 1.372 . S
C2035 C2034 1.372 . S
C2035 C2036 1.400 . S
C2035 C2040 1.490 . S
C2036 H2026 0.930 . S
C2036 C2035 1.400 . S
C2036 C2039 1.386 . S
H2037 C2053 0.930 . S
H2038 C2054 0.931 . S
C2039 H2027 0.929 . S
C2039 C2033 1.390 . S
C2039 C2036 1.386 . S
C2040 C2035 1.490 . S
C2040 C2042 1.395 . S
C2040 C2043 1.403 . S
H2041 C2047 0.930 . S
C2042 H2028 0.930 . S
C2042 C2040 1.395 . S
C2042 C2045 1.403 . S
C2043 C2040 1.403 . S
C2043 C2044 1.524 . S
C2043 C2047 1.400 . S
C2044 H2029 0.960 . S
C2044 H2030 0.960 . S
C2044 H2031 0.960 . S
C2044 C2043 1.524 . S
C2045 C2042 1.403 . S
C2045 C2046 1.392 . S
C2045 C2049 1.495 . S
C2046 C2045 1.392 . S
C2046 C2047 1.385 . S
C2046 C2048 1.478 . S
C2047 H2041 0.930 . S
C2047 C2043 1.400 . S
C2047 C2046 1.385 . S
C2048 C2046 1.478 . S
C2048 C2050 1.381 . S
C2048 C2054 1.383 . S
C2049 C2045 1.495 . S
C2049 H2055 0.959 . S
C2049 H2056 0.961 . S
C2049 H2057 0.960 . S
C2050 C2048 1.381 . S
C2050 C2051 1.394 . S
C2050 H2058 0.930 . S
C2051 C2050 1.394 . S
C2051 C2052 1.383 . S
C2051 H2059 0.929 . S
C2052 C2051 1.383 . S
C2052 C2053 1.377 . S
C2053 H2037 0.930 . S
C2053 C2052 1.377 . S
C2053 C2054 1.379 . S
C2054 H2038 0.931 . S
C2054 C2048 1.383 . S
C2054 C2053 1.379 . S
H2055 C2049 0.959 . S
H2056 C2049 0.961 . S
H2057 C2049 0.960 . S
H2058 C2050 0.930 . S
H2059 C2051 0.929 . S
H2060 C2068 0.929 . S
H2061 C2070 0.930 1_655 S
H2062 C2072 0.930 . S
H2063 C2075 0.929 . S
H2064 C2078 0.930 . S
H2065 C2080 0.960 . S
H2066 C2080 0.960 . S
H2067 C2080 0.960 . S
C2068 H2060 0.929 . S
C2068 C2069 1.377 . S
C2068 C2070 1.384 . S
C2069 C2068 1.377 . S
C2069 C2075 1.390 . S
C2070 H2061 0.930 1_455 S
C2070 C2068 1.384 . S
C2070 C2071 1.372 . S
C2071 C2070 1.372 . S
C2071 C2072 1.400 . S
C2071 C2076 1.490 . S
C2072 H2062 0.930 . S
C2072 C2071 1.400 . S
C2072 C2075 1.386 . S
H2073 C2089 0.930 . S
H2074 C2090 0.931 1_455 S
C2075 H2063 0.929 . S
C2075 C2069 1.390 . S
C2075 C2072 1.386 . S
C2076 C2071 1.490 . S
C2076 C2078 1.380 1_454 S
C2076 C2079 1.403 . S
H2077 C2083 0.930 . S
C2078 H2064 0.930 . S
C2078 C2076 1.380 1_656 S
C2078 C2081 1.419 . S
C2079 C2076 1.403 . S
C2079 C2080 1.524 . S
C2079 C2083 1.400 1_554 S
C2080 H2065 0.960 . S
C2080 H2066 0.960 . S
C2080 H2067 0.960 . S
C2080 C2079 1.524 . S
C2081 C2078 1.419 . S
C2081 C2082 1.392 . S
C2081 C2085 1.495 . S
C2082 C2081 1.392 . S
C2082 C2083 1.385 1_655 S
C2082 C2084 1.478 . S
C2083 H2077 0.930 . S
C2083 C2079 1.400 1_556 S
C2083 C2082 1.385 1_455 S
C2084 C2082 1.478 . S
C2084 C2086 1.381 . S
C2084 C2090 1.383 . S
C2085 C2081 1.495 . S
C2085 H2091 0.959 . S
C2085 H2092 0.961 . S
C2085 H2093 0.960 . S
C2086 C2084 1.381 . S
C2086 C2087 1.394 . S
C2086 H2094 0.930 . S
C2087 C2086 1.394 . S
C2087 C2088 1.383 . S
C2087 H2095 0.929 . S
C2088 C2087 1.383 . S
C2088 C2089 1.377 . S
C2089 H2073 0.930 . S
C2089 C2088 1.377 . S
C2089 C2090 1.379 . S
C2090 H2074 0.931 1_655 S
C2090 C2084 1.383 . S
C2090 C2089 1.379 . S
H2091 C2085 0.959 . S
H2092 C2085 0.961 . S
H2093 C2085 0.960 . S
H2094 C2086 0.930 . S
H2095 C2087 0.929 . S
H2096 C2104 0.929 . S
H2097 C2106 0.930 . S
H2098 C2108 0.930 . S
H2099 C2111 0.929 . S
H2100 C2114 0.930 . S
H2101 C2116 0.960 . S
H2102 C2116 0.960 . S
H2103 C2116 0.960 . S
C2104 H2096 0.929 . S
C2104 C2105 1.377 . S
C2104 C2106 1.384 . S
C2105 C2104 1.377 . S
C2105 C2111 1.390 . S
C2106 H2097 0.930 . S
C2106 C2104 1.384 . S
C2106 C2107 1.372 . S
C2107 C2106 1.372 . S
C2107 C2108 1.400 . S
C2107 C2112 1.490 . S
C2108 H2098 0.930 . S
C2108 C2107 1.400 . S
C2108 C2111 1.386 . S
H2109 C2125 0.930 . S
H2110 C2126 0.931 . S
C2111 H2099 0.929 . S
C2111 C2105 1.390 . S
C2111 C2108 1.386 . S
C2112 C2107 1.490 . S
C2112 C2114 1.395 . S
C2112 C2115 1.403 . S
H2113 C2119 0.930 . S
C2114 H2100 0.930 . S
C2114 C2112 1.395 . S
C2114 C2117 1.403 . S
C2115 C2112 1.403 . S
C2115 C2116 1.524 . S
C2115 C2119 1.400 . S
C2116 H2101 0.960 . S
C2116 H2102 0.960 . S
C2116 H2103 0.960 . S
C2116 C2115 1.524 . S
C2117 C2114 1.403 . S
C2117 C2118 1.392 . S
C2117 C2121 1.495 . S
C2118 C2117 1.392 . S
C2118 C2119 1.385 . S
C2118 C2120 1.478 . S
C2119 H2113 0.930 . S
C2119 C2115 1.400 . S
C2119 C2118 1.385 . S
C2120 C2118 1.478 . S
C2120 C2122 1.381 . S
C2120 C2126 1.383 . S
C2121 C2117 1.495 . S
C2121 H2127 0.959 . S
C2121 H2128 0.961 . S
C2121 H2129 0.960 . S
C2122 C2120 1.381 . S
C2122 C2123 1.394 . S
C2122 H2130 0.930 . S
C2123 C2122 1.394 . S
C2123 C2124 1.383 . S
C2123 H2131 0.929 . S
C2124 C2123 1.383 . S
C2124 C2125 1.377 . S
C2125 H2109 0.930 . S
C2125 C2124 1.377 . S
C2125 C2126 1.379 . S
C2126 H2110 0.931 . S
C2126 C2120 1.383 . S
C2126 C2125 1.379 . S
H2127 C2121 0.959 . S
H2128 C2121 0.961 . S
H2129 C2121 0.960 . S
H2130 C2122 0.930 . S
H2131 C2123 0.929 . S
H2132 C2140 0.929 . S
H2133 C2142 0.930 . S
H2134 C2144 0.930 . S
H2135 C2147 0.929 . S
H2136 C2150 0.930 . S
H2137 C2152 0.960 . S
H2138 C2152 0.960 . S
H2139 C2152 0.960 . S
C2140 H2132 0.929 . S
C2140 C2141 1.377 . S
C2140 C2142 1.384 . S
C2141 C2140 1.377 . S
C2141 C2147 1.390 . S
C2142 H2133 0.930 . S
C2142 C2140 1.384 . S
C2142 C2143 1.372 . S
C2143 C2142 1.372 . S
C2143 C2144 1.400 . S
C2143 C2148 1.490 . S
C2144 H2134 0.930 . S
C2144 C2143 1.400 . S
C2144 C2147 1.386 . S
H2145 C2161 0.930 . S
H2146 C2162 0.931 . S
C2147 H2135 0.929 . S
C2147 C2141 1.390 . S
C2147 C2144 1.386 . S
C2148 C2143 1.490 . S
C2148 C2150 1.395 . S
C2148 C2151 1.403 . S
H2149 C2155 0.930 . S
C2150 H2136 0.930 . S
C2150 C2148 1.395 . S
C2150 C2153 1.403 . S
C2151 C2148 1.403 . S
C2151 C2152 1.524 . S
C2151 C2155 1.400 . S
C2152 H2137 0.960 . S
C2152 H2138 0.960 . S
C2152 H2139 0.960 . S
C2152 C2151 1.524 . S
C2153 C2150 1.403 . S
C2153 C2154 1.392 . S
C2153 C2157 1.495 . S
C2154 C2153 1.392 . S
C2154 C2155 1.385 . S
C2154 C2156 1.478 . S
C2155 H2149 0.930 . S
C2155 C2151 1.400 . S
C2155 C2154 1.385 . S
C2156 C2154 1.478 . S
C2156 C2158 1.381 . S
C2156 C2162 1.383 . S
C2157 C2153 1.495 . S
C2157 H2163 0.959 . S
C2157 H2164 0.961 . S
C2157 H2165 0.960 . S
C2158 C2156 1.381 . S
C2158 C2159 1.394 . S
C2158 H2166 0.930 . S
C2159 C2158 1.394 . S
C2159 C2160 1.383 . S
C2159 H2167 0.929 . S
C2160 C2159 1.383 . S
C2160 C2161 1.377 . S
C2161 H2145 0.930 . S
C2161 C2160 1.377 . S
C2161 C2162 1.379 . S
C2162 H2146 0.931 . S
C2162 C2156 1.383 . S
C2162 C2161 1.379 . S
H2163 C2157 0.959 . S
H2164 C2157 0.961 . S
H2165 C2157 0.960 . S
H2166 C2158 0.930 . S
H2167 C2159 0.929 . S
H2168 C2176 0.929 . S
H2169 C2178 0.930 . S
H2170 C2180 0.930 . S
H2171 C2183 0.929 . S
H2172 C2186 0.928 1_556 S
H2173 C2188 0.960 . S
H2174 C2188 0.960 . S
H2175 C2188 0.960 . S
C2176 H2168 0.929 . S
C2176 C2177 1.377 . S
C2176 C2178 1.384 . S
C2177 C2176 1.377 . S
C2177 C2183 1.390 . S
C2178 H2169 0.930 . S
C2178 C2176 1.384 . S
C2178 C2179 1.372 . S
C2179 C2178 1.372 . S
C2179 C2180 1.400 . S
C2179 C2184 1.490 . S
C2180 H2170 0.930 . S
C2180 C2179 1.400 . S
C2180 C2183 1.386 . S
H2181 C2197 0.930 . S
H2182 C2198 0.931 . S
C2183 H2171 0.929 . S
C2183 C2177 1.390 . S
C2183 C2180 1.386 . S
C2184 C2179 1.490 . S
C2184 C2186 1.376 1_456 S
C2184 C2187 1.403 1_545 S
H2185 C2191 0.930 . S
C2186 H2172 0.928 1_554 S
C2186 C2184 1.376 1_654 S
C2186 C2189 1.424 . S
C2187 C2184 1.403 1_565 S
C2187 C2188 1.524 . S
C2187 C2191 1.400 1_556 S
C2188 H2173 0.960 . S
C2188 H2174 0.960 . S
C2188 H2175 0.960 . S
C2188 C2187 1.524 . S
C2189 C2186 1.424 . S
C2189 C2190 1.392 1_545 S
C2189 C2193 1.495 . S
C2190 C2189 1.392 1_565 S
C2190 C2191 1.385 1_655 S
C2190 C2192 1.478 . S
C2191 H2185 0.930 . S
C2191 C2187 1.400 1_554 S
C2191 C2190 1.385 1_455 S
C2192 C2190 1.478 . S
C2192 C2194 1.381 . S
C2192 C2198 1.383 . S
C2193 C2189 1.495 . S
C2193 H2199 0.959 . S
C2193 H2200 0.961 . S
C2193 H2201 0.960 . S
C2194 C2192 1.381 . S
C2194 C2195 1.394 . S
C2194 H2202 0.930 . S
C2195 C2194 1.394 . S
C2195 C2196 1.383 . S
C2195 H2203 0.929 . S
C2196 C2195 1.383 . S
C2196 C2197 1.377 . S
C2197 H2181 0.930 . S
C2197 C2196 1.377 . S
C2197 C2198 1.379 . S
C2198 H2182 0.931 . S
C2198 C2192 1.383 . S
C2198 C2197 1.379 . S
H2199 C2193 0.959 . S
H2200 C2193 0.961 . S
H2201 C2193 0.960 . S
H2202 C2194 0.930 . S
H2203 C2195 0.929 . S
H2204 C2212 0.929 . S
H2205 C2214 0.930 . S
H2206 C2216 0.930 . S
H2207 C2219 0.929 . S
H2208 C2222 0.930 . S
H2209 C2224 0.960 . S
H2210 C2224 0.960 . S
H2211 C2224 0.960 . S
C2212 H2204 0.929 . S
C2212 C2213 1.377 . S
C2212 C2214 1.384 . S
C2213 C2212 1.377 . S
C2213 C2219 1.390 . S
C2214 H2205 0.930 . S
C2214 C2212 1.384 . S
C2214 C2215 1.372 . S
C2215 C2214 1.372 . S
C2215 C2216 1.400 . S
C2215 C2220 1.490 . S
C2216 H2206 0.930 . S
C2216 C2215 1.400 . S
C2216 C2219 1.386 . S
H2217 C2233 0.930 . S
H2218 C2234 0.931 . S
C2219 H2207 0.929 . S
C2219 C2213 1.390 . S
C2219 C2216 1.386 . S
C2220 C2215 1.490 . S
C2220 C2222 1.395 . S
C2220 C2223 1.403 1_545 S
H2221 C2227 0.930 . S
C2222 H2208 0.930 . S
C2222 C2220 1.395 . S
C2222 C2225 1.403 . S
C2223 C2220 1.403 1_565 S
C2223 C2224 1.524 . S
C2223 C2227 1.400 . S
C2224 H2209 0.960 . S
C2224 H2210 0.960 . S
C2224 H2211 0.960 . S
C2224 C2223 1.524 . S
C2225 C2222 1.403 . S
C2225 C2226 1.392 1_545 S
C2225 C2229 1.495 . S
C2226 C2225 1.392 1_565 S
C2226 C2227 1.385 . S
C2226 C2228 1.478 . S
C2227 H2221 0.930 . S
C2227 C2223 1.400 . S
C2227 C2226 1.385 . S
C2228 C2226 1.478 . S
C2228 C2230 1.381 . S
C2228 C2234 1.383 . S
C2229 C2225 1.495 . S
C2229 H2235 0.959 . S
C2229 H2236 0.961 . S
C2229 H2237 0.960 . S
C2230 C2228 1.381 . S
C2230 C2231 1.394 . S
C2230 H2238 0.930 . S
C2231 C2230 1.394 . S
C2231 C2232 1.383 . S
C2231 H2239 0.929 . S
C2232 C2231 1.383 . S
C2232 C2233 1.377 . S
C2233 H2217 0.930 . S
C2233 C2232 1.377 . S
C2233 C2234 1.379 . S
C2234 H2218 0.931 . S
C2234 C2228 1.383 . S
C2234 C2233 1.379 . S
H2235 C2229 0.959 . S
H2236 C2229 0.961 . S
H2237 C2229 0.960 . S
H2238 C2230 0.930 . S
H2239 C2231 0.929 . S
C521 N13 0.198 . S
C540 N338 0.223 . S
C557 N50 0.235 . S
C576 N370 0.231 . S
C593 N82 0.234 . S
C612 N269 0.245 . S
C629 N114 0.227 . S
C648 N306 0.287 . S
C665 N146 0.213 . S
C684 N461 0.202 . S
C701 N178 0.236 . S
C720 N498 0.310 . S
C737 N210 0.226 . S
C756 N402 0.261 . S
C773 N242 0.208 . S
C792 N434 0.177 . S
C809 C317 1.006 . S
C828 N18 0.967 . S
C845 C349 1.003 . S
C864 N45 0.977 . S
C881 C381 0.996 . S
C900 N77 1.018 . S
C917 C260 1.009 . S
C936 N109 0.970 . S
C953 N141 0.999 . S
C972 C445 1.038 . S
C989 C452 1.003 . S
C1008 N173 1.036 . S
C1025 C509 1.006 . S
C1044 N205 1.035 . S
C1061 C413 1.008 . S
C1080 N237 1.027 . S
C1097 C61 1.007 . S
C1116 N274 0.984 . S
C1133 N301 1.005 . S
C1152 C93 0.964 . S
C1169 N333 1.003 . S
C1188 C125 0.971 . S
C1205 N365 0.989 . S
C1224 C4 1.035 . S
C1241 N397 0.990 . S
C1260 C189 0.979 . S
C1277 C221 1.009 . S
C1296 N429 1.021 . S
C1313 C253 1.009 . S
C1332 N466 1.026 . S
C1349 N493 1.004 . S
C1368 C157 1.033 . S
C1385 C29 1.769 . S
C1404 C482 1.752 . S
C1421 C36 1.766 . S
C1440 C130 1.770 1_554 S
C1457 C418 1.764 . S
C1476 C68 1.777 . S
C1493 C194 1.766 . S
C1512 C100 1.757 . S
C1529 C132 1.768 . S
C1548 C354 1.753 . S
C1565 C164 1.771 . S
C1584 C6 1.775 1_556 S
C1601 C290 1.763 . S
C1620 C196 1.754 . S
C1637 C66 1.764 . S
C1656 C228 1.757 . S
C1673 C285 1.768 . S
C1692 C226 1.758 . S
C1709 C292 1.771 . S
C1728 C386 1.762 . S
C1745 C162 1.768 . S
C1764 C324 1.754 . S
C1781 C454 1.768 1_554 S
C1800 C356 1.765 . S
C1817 C388 1.768 . S
C1836 C98 1.759 . S
C1853 C420 1.771 . S
C1872 C262 1.769 . S
C1889 C477 1.767 . S
C1908 C34 1.751 . S
C1925 C322 1.763 1_556 S
C1944 C484 1.757 . S
C1961 C2 2.410 . S
C1980 C390 2.407 . S
C1997 C38 2.409 . S
C2016 C166 2.409 . S
C2033 C70 2.410 . S
C2052 C450 2.410 . S
C2069 C230 2.408 . S
C2088 C102 2.402 . S
C2105 C134 2.410 . S
C2124 C258 2.409 . S
C2141 C326 2.410 . S
C2160 C198 2.406 . S
C2177 C294 2.410 . S
C2196 C422 2.404 . S
C2213 C486 2.408 . S
C2232 C358 2.404 . S
