# Generated by pormake.
# Topology wjh, (4)-cn, num edge types: 1
# Building blocks:
#     Node 0, Type 0, BuildingBlock: ICAMEG_clean_sbu_1, # of connection points: 4
#     Node 1, Type 0, BuildingBlock: ICAMEG_clean_sbu_1, # of connection points: 4
#     Node 2, Type 0, BuildingBlock: ICAMEG_clean_sbu_1, # of connection points: 4
#     Node 3, Type 0, BuildingBlock: ICAMEG_clean_sbu_1, # of connection points: 4
#     Node 4, Type 0, BuildingBlock: ICAMEG_clean_sbu_1, # of connection points: 4
#     Node 5, Type 0, BuildingBlock: ICAMEG_clean_sbu_1, # of connection points: 4
#     Node 6, Type 0, BuildingBlock: ICAMEG_clean_sbu_1, # of connection points: 4
#     Node 7, Type 0, BuildingBlock: ICAMEG_clean_sbu_1, # of connection points: 4
#     Node 8, Type 0, BuildingBlock: ICAMEG_clean_sbu_1, # of connection points: 4
#     Node 9, Type 0, BuildingBlock: ICAMEG_clean_sbu_1, # of connection points: 4
#     Node 10, Type 0, BuildingBlock: ICAMEG_clean_sbu_1, # of connection points: 4
#     Node 11, Type 0, BuildingBlock: ICAMEG_clean_sbu_1, # of connection points: 4
#     Edge 12, Type (0, 0), None
#     Edge 13, Type (0, 0), None
#     Edge 14, Type (0, 0), None
#     Edge 15, Type (0, 0), None
#     Edge 16, Type (0, 0), None
#     Edge 17, Type (0, 0), None
#     Edge 18, Type (0, 0), None
#     Edge 19, Type (0, 0), None
#     Edge 20, Type (0, 0), None
#     Edge 21, Type (0, 0), None
#     Edge 22, Type (0, 0), None
#     Edge 23, Type (0, 0), None
#     Edge 24, Type (0, 0), None
#     Edge 25, Type (0, 0), None
#     Edge 26, Type (0, 0), None
#     Edge 27, Type (0, 0), None
#     Edge 28, Type (0, 0), None
#     Edge 29, Type (0, 0), None
#     Edge 30, Type (0, 0), None
#     Edge 31, Type (0, 0), None
#     Edge 32, Type (0, 0), None
#     Edge 33, Type (0, 0), None
#     Edge 34, Type (0, 0), None
#     Edge 35, Type (0, 0), None
# Relax obj value: 0.056
# Max RMSD: 0.095
# Mean RMSD: 0.095
data_MOF--net-wjh--node1-ICAMEG_clean_sbu_1--edge1-none
_symmetry_space_group_name_H-M    P1
_symmetry_Int_Tables_number       1
_symmetry_cell_setting            triclinic
loop_
_symmetry_equiv_pos_as_xyz
'x, y, z'
_cell_length_a     30.026975
_cell_length_b     30.029268
_cell_length_c     14.414282
_cell_angle_alpha  89.992888
_cell_angle_beta   90.014972
_cell_angle_gamma 119.99948
loop_
_atom_site_label
_atom_site_type_symbol
_atom_site_fract_x
_atom_site_fract_y
_atom_site_fract_z
_atom_type_partial_charge
Co0 Co 0.49062 0.13417 0.11675 0.0
Co1 Co 0.60241 0.13784 0.04394 0.0
O2 O 0.55302 0.16242 0.04286 0.0
C3 C 0.54322 0.2499 0.13662 0.0
O4 O 0.58676 0.25108 0.15152 0.0
C5 C 0.57546 0.13849 0.84587 0.0
O6 O 0.52779 0.12033 0.87281 0.0
O7 O 0.54622 0.06512 0.02324 0.0
O8 O 0.4769 0.06143 0.09236 0.0
H9 H 0.68335 0.03182 0.13117 0.0
H10 H 0.50861 0.20017 0.95335 0.0
O11 O 0.50149 0.20665 0.13392 0.0
H12 H 0.33104 0.05729 0.92009 0.0
H13 H 0.32884 0.12532 0.23813 0.0
H14 H 0.43701 0.04459 0.2428 0.0
H15 H 0.38722 0.05621 0.04336 0.0
H16 H 0.4104 0.16422 0.15261 0.0
O17 O 0.61087 0.14902 0.90534 0.0
H18 H 0.61431 0.05406 0.13335 0.0
H19 H 0.70038 0.17572 0.94368 0.0
H20 H 0.35223 1.0007 0.31695 0.0
H21 H 0.4555 0.20077 0.82261 0.0
H22 H 0.29828 0.04199 0.31924 0.0
H23 H 0.36538 0.12924 0.80707 0.0
O24 O 0.53146 0.1397 0.23202 0.0
H25 H 0.68969 0.33079 0.03793 0.0
H26 H 0.68931 0.181 0.17398 0.0
H27 H 0.75066 0.26653 0.22959 0.0
H28 H 0.75358 0.34301 0.15899 0.0
H29 H 0.63122 0.24363 0.97544 0.0
H30 H 0.76997 0.1553 0.94318 0.0
H31 H 0.762 0.08314 0.03953 0.0
O32 O 0.5948 0.12585 0.18234 0.0
C33 C 0.49967 0.04009 0.05213 0.0
C34 C 0.68766 0.06429 0.09264 0.0
C35 C 0.73591 0.13266 0.98467 0.0
N36 N 0.65322 0.1161 0.03891 0.0
C37 C 0.64836 0.07632 0.09169 0.0
C38 C 0.69597 0.14364 0.98474 0.0
C39 C 0.73166 0.09265 0.03932 0.0
C40 C 0.47005 0.16853 0.94488 0.0
N41 N 0.4509 0.12872 0.00654 0.0
C42 C 0.44007 0.16904 0.8712 0.0
C43 C 0.38963 0.12886 0.86226 0.0
C44 C 0.37045 0.08822 0.92514 0.0
C45 C 0.40236 0.08795 -0.00472 0.0
C46 C 0.35228 0.10726 0.23907 0.0
C47 C 0.41327 0.0622 0.24015 0.0
C48 C 0.39922 0.12968 0.19214 0.0
N49 N 0.42886 0.10679 0.19221 0.0
C50 C 0.36551 0.03754 0.28376 0.0
C51 C 0.33513 0.06054 0.28438 0.0
C52 C 0.56938 0.13216 0.24725 0.0
C53 C 0.69197 0.29822 0.06317 0.0
C54 C 0.69054 0.21373 0.14026 0.0
C55 C 0.72583 0.26243 0.17238 0.0
C56 C 0.7268 0.30505 0.1332 0.0
N57 N 0.65701 0.20719 0.07014 0.0
C58 C 0.65846 0.2488 0.02931 0.0
Co59 Co 0.36806 0.48483 0.28345 0.0
Co60 Co 0.47617 0.59661 0.21061 0.0
O61 O 0.40221 0.54724 0.20954 0.0
C62 C 0.30493 0.53743 0.30333 0.0
O63 O 0.3473 0.58096 0.31825 0.0
C64 C 0.44857 0.56967 0.01254 0.0
O65 O 0.41907 0.52201 0.03951 0.0
O66 O 0.49271 0.54043 0.18993 0.0
O67 O 0.42707 0.47111 0.25906 0.0
H68 H 0.66315 0.67753 0.29779 0.0
H69 H 0.32005 0.50283 0.12004 0.0
O70 O 0.30644 0.4957 0.30062 0.0
H71 H 0.28535 0.32527 0.08685 0.0
H72 H 0.21514 0.32306 0.40488 0.0
H73 H 0.40405 0.43123 0.40953 0.0
H74 H 0.34261 0.38144 0.21011 0.0
H75 H 0.25779 0.40462 0.31934 0.0
O76 O 0.47345 0.60507 0.072 0.0
H77 H 0.57186 0.60851 0.30001 0.0
H78 H 0.53627 0.69459 0.11033 0.0
H79 H 0.36316 0.34645 0.48372 0.0
H80 H 0.26633 0.44973 0.98931 0.0
H81 H 0.26792 0.2925 0.48601 0.0
H82 H 0.24774 0.35962 0.97381 0.0
O83 O 0.40337 0.52567 0.39871 0.0
H84 H 0.37047 0.68387 0.2046 0.0
H85 H 0.51993 0.68353 0.34058 0.0
H86 H 0.49575 0.74488 0.39614 0.0
H87 H 0.42216 0.74777 0.32559 0.0
H88 H 0.39917 0.6254 0.14213 0.0
H89 H 0.62627 0.76416 0.10978 0.0
H90 H 0.69047 0.75617 0.20612 0.0
O91 O 0.48056 0.58902 0.34902 0.0
C92 C 0.47119 0.49388 0.21883 0.0
C93 C 0.63499 0.68184 0.25926 0.0
C94 C 0.61485 0.7301 0.15129 0.0
N95 N 0.54872 0.64742 0.20556 0.0
C96 C 0.58365 0.64255 0.25834 0.0
C97 C 0.56394 0.69017 0.15138 0.0
C98 C 0.65062 0.72584 0.20593 0.0
C99 C 0.31313 0.46427 0.11159 0.0
N100 N 0.33379 0.44512 0.17326 0.0
C101 C 0.28263 0.4343 0.03791 0.0
C102 C 0.27236 0.38385 0.02899 0.0
C103 C 0.29383 0.36468 0.09188 0.0
C104 C 0.32602 0.39658 0.16201 0.0
C105 C 0.25664 0.3465 0.40581 0.0
C106 C 0.3627 0.40749 0.40688 0.0
C107 C 0.28116 0.39344 0.35887 0.0
N108 N 0.33369 0.42308 0.35893 0.0
C109 C 0.33961 0.35974 0.45051 0.0
C110 C 0.28622 0.32935 0.45113 0.0
C111 C 0.44883 0.5636 0.41393 0.0
C112 C 0.40532 0.68615 0.22982 0.0
C113 C 0.48842 0.68475 0.30687 0.0
C114 C 0.47501 0.72004 0.33896 0.0
C115 C 0.43334 0.721 0.29981 0.0
N116 N 0.46142 0.65122 0.23678 0.0
C117 C 0.42124 0.65265 0.19597 0.0
Co118 Co 0.89483 0.36227 0.45014 0.0
Co119 Co 0.89114 0.47037 0.37725 0.0
O120 O 0.86657 0.39642 0.37621 0.0
C121 C 0.77911 0.29914 0.47004 0.0
O122 O 0.77793 0.3415 0.48497 0.0
C123 C 0.8905 0.44278 0.1792 0.0
O124 O 0.90869 0.4133 0.20619 0.0
O125 O 0.96387 0.48692 0.35659 0.0
O126 O 0.96757 0.42129 0.42575 0.0
H127 H 0.99716 0.65734 0.46437 0.0
H128 H 0.82882 0.31427 0.28673 0.0
O129 O 0.82235 0.30066 0.46731 0.0
H130 H 0.97172 0.27959 0.2536 0.0
H131 H 0.90371 0.20937 0.57166 0.0
H132 H 0.98442 0.39826 0.57623 0.0
H133 H 0.97279 0.33684 0.37684 0.0
H134 H 0.8648 0.25202 0.48608 0.0
O135 O 0.87996 0.46765 0.23864 0.0
H136 H 0.97492 0.56607 0.46663 0.0
H137 H 0.85324 0.53045 0.27691 0.0
H138 H 0.02833 0.35739 0.65045 0.0
H139 H 0.82823 0.26056 0.15602 0.0
H140 H 0.98705 0.26215 0.65278 0.0
H141 H 0.89976 0.24198 0.14055 0.0
O142 O 0.8893 0.39758 0.56538 0.0
H143 H 0.69818 0.36464 0.37127 0.0
H144 H 0.84796 0.51412 0.50717 0.0
H145 H 0.76241 0.48992 0.56272 0.0
H146 H 0.68595 0.41632 0.49221 0.0
H147 H 0.78535 0.39335 0.3088 0.0
H148 H 0.87365 0.62044 0.27632 0.0
H149 H 0.94582 0.68464 0.37265 0.0
O150 O 0.90313 0.47476 0.51565 0.0
C151 C 0.98891 0.46541 0.3855 0.0
C152 C 0.96469 0.62918 0.42584 0.0
C153 C 0.8963 0.60903 0.31784 0.0
N154 N 0.91287 0.54291 0.37217 0.0
C155 C 0.95265 0.57784 0.42494 0.0
C156 C 0.88532 0.55812 0.31796 0.0
C157 C 0.93632 0.6448 0.37248 0.0
C158 C 0.86047 0.30735 0.27829 0.0
N159 N 0.90028 0.32801 0.33997 0.0
C160 C 0.85996 0.27686 0.20463 0.0
C161 C 0.90014 0.2666 0.19573 0.0
C162 C 0.94078 0.28807 0.25862 0.0
C163 C 0.94106 0.32025 0.32874 0.0
C164 C 0.92177 0.25087 0.57257 0.0
C165 C 0.96682 0.35692 0.5736 0.0
C166 C 0.89935 0.27539 0.52561 0.0
N167 N 0.92223 0.32791 0.52565 0.0
C168 C 0.99149 0.33383 0.61724 0.0
C169 C 0.9685 0.28045 0.61789 0.0
C170 C 0.89683 0.44304 0.58058 0.0
C171 C 0.73075 0.3995 0.39648 0.0
C172 C 0.81523 0.48261 0.47347 0.0
C173 C 0.76653 0.46919 0.50556 0.0
C174 C 0.72391 0.42751 0.46643 0.0
N175 N 0.82177 0.45561 0.40341 0.0
C176 C 0.78017 0.41542 0.36262 0.0
Co177 Co 0.54417 0.88904 0.61683 0.0
Co178 Co 0.43238 0.88538 0.54391 0.0
O179 O 0.48176 0.8608 0.54289 0.0
C180 C 0.49156 0.77332 0.63671 0.0
O181 O 0.44802 0.77215 0.65161 0.0
C182 C 0.45934 0.88473 0.34587 0.0
O183 O 0.507 0.9029 0.37287 0.0
O184 O 0.48857 0.9581 0.52325 0.0
O185 O 0.55789 0.96178 0.59243 0.0
H186 H 0.35143 0.99139 0.63103 0.0
H187 H 0.52617 0.82303 0.45345 0.0
O188 O 0.53329 0.81655 0.63402 0.0
H189 H 0.70374 0.96592 0.4203 0.0
H190 H 0.70594 0.89787 0.73835 0.0
H191 H 0.59779 0.97862 0.7429 0.0
H192 H 0.64756 0.967 0.54351 0.0
H193 H 0.62438 0.85898 0.65279 0.0
O194 O 0.42393 0.8742 0.40531 0.0
H195 H 0.42047 0.96915 0.63328 0.0
H196 H 0.3344 0.8475 0.44356 0.0
H197 H 0.68258 0.0225 0.81709 0.0
H198 H 0.57929 0.82243 0.32276 0.0
H199 H 0.73652 0.9812 0.81945 0.0
H200 H 0.6694 0.89397 0.30729 0.0
O201 O 0.50333 0.88351 0.73207 0.0
H202 H 0.34512 0.69243 0.53791 0.0
H203 H 0.34546 0.8422 0.67385 0.0
H204 H 0.2841 0.75666 0.72939 0.0
H205 H 0.28121 0.68019 0.65886 0.0
H206 H 0.40359 0.77959 0.47544 0.0
H207 H 0.26482 0.86792 0.44298 0.0
H208 H 0.27279 0.94007 0.53932 0.0
O209 O 0.43998 0.89735 0.68232 0.0
C210 C 0.53512 0.98313 0.55217 0.0
C211 C 0.34712 0.95892 0.5925 0.0
C212 C 0.29888 0.89056 0.4845 0.0
N213 N 0.38157 0.90711 0.53882 0.0
C214 C 0.38642 0.94689 0.5916 0.0
C215 C 0.33882 0.87958 0.48461 0.0
C216 C 0.30313 0.93057 0.53915 0.0
C217 C 0.56473 0.85468 0.445 0.0
N218 N 0.58388 0.89449 0.50666 0.0
C219 C 0.59471 0.85416 0.37135 0.0
C220 C 0.64516 0.89435 0.36245 0.0
C221 C 0.66433 0.93499 0.42533 0.0
C222 C 0.63242 0.93526 0.49543 0.0
C223 C 0.68251 0.91593 0.73926 0.0
C224 C 0.62152 0.961 0.74027 0.0
C225 C 0.63556 0.89352 0.6923 0.0
N226 N 0.60592 0.91641 0.69234 0.0
C227 C 0.66928 0.98566 0.7839 0.0
C228 C 0.69966 0.96265 0.78456 0.0
C229 C 0.4654 0.89104 0.74725 0.0
C230 C 0.34284 0.725 0.56312 0.0
C231 C 0.34423 0.80947 0.64014 0.0
C232 C 0.30894 0.76077 0.67223 0.0
C233 C 0.30798 0.71815 0.63309 0.0
N234 N 0.37777 0.81601 0.57007 0.0
C235 C 0.37634 0.77441 0.52927 0.0
Co236 Co 0.66672 0.53836 0.7835 0.0
Co237 Co 0.55859 0.42659 0.7106 0.0
O238 O 0.63256 0.47596 0.70957 0.0
C239 C 0.72984 0.48575 0.80335 0.0
O240 O 0.68748 0.44221 0.81824 0.0
C241 C 0.5862 0.45353 0.51255 0.0
O242 O 0.61571 0.5012 0.53952 0.0
O243 O 0.54206 0.48278 0.68992 0.0
O244 O 0.60771 0.55209 0.7591 0.0
H245 H 0.37163 0.34566 0.79772 0.0
H246 H 0.71474 0.52037 0.62013 0.0
O247 O 0.72833 0.52748 0.80068 0.0
H248 H 0.74941 0.69793 0.58695 0.0
H249 H 0.81967 0.70011 0.90501 0.0
H250 H 0.63076 0.59196 0.90956 0.0
H251 H 0.69215 0.64175 0.71016 0.0
H252 H 0.77699 0.61856 0.81944 0.0
O253 O 0.56131 0.41813 0.572 0.0
H254 H 0.46291 0.41469 0.79996 0.0
H255 H 0.49849 0.32862 0.6103 0.0
H256 H 0.67167 0.67674 0.98376 0.0
H257 H 0.76845 0.5735 0.48944 0.0
H258 H 0.76691 0.73068 0.98611 0.0
H259 H 0.78703 0.6636 0.47394 0.0
O260 O 0.63142 0.49752 0.89874 0.0
H261 H 0.66426 0.3393 0.70459 0.0
H262 H 0.51487 0.33968 0.8406 0.0
H263 H 0.53906 0.27833 0.89618 0.0
H264 H 0.61261 0.27541 0.8256 0.0
H265 H 0.63557 0.39777 0.64212 0.0
H266 H 0.40849 0.25905 0.60973 0.0
H267 H 0.3443 0.26702 0.70604 0.0
O268 O 0.55422 0.43419 0.849 0.0
C269 C 0.56358 0.52933 0.71884 0.0
C270 C 0.39979 0.34135 0.7592 0.0
C271 C 0.41991 0.2931 0.65123 0.0
N272 N 0.48605 0.37579 0.70553 0.0
C273 C 0.45112 0.38064 0.75829 0.0
C274 C 0.47082 0.33303 0.65134 0.0
C275 C 0.38415 0.29736 0.70587 0.0
C276 C 0.72165 0.55893 0.61167 0.0
N277 N 0.70098 0.57807 0.67332 0.0
C278 C 0.75214 0.58891 0.53802 0.0
C279 C 0.7624 0.63936 0.52911 0.0
C280 C 0.74093 0.65853 0.59198 0.0
C281 C 0.70875 0.62661 0.66208 0.0
C282 C 0.77817 0.67667 0.90592 0.0
C283 C 0.67211 0.6157 0.90693 0.0
C284 C 0.75364 0.62974 0.85896 0.0
N285 N 0.70111 0.60011 0.859 0.0
C286 C 0.69522 0.66345 0.95057 0.0
C287 C 0.7486 0.69383 0.95122 0.0
C288 C 0.58595 0.4596 0.91394 0.0
C289 C 0.62942 0.33703 0.72982 0.0
C290 C 0.54636 0.33845 0.80689 0.0
C291 C 0.55978 0.30316 0.83898 0.0
C292 C 0.60142 0.30219 0.79982 0.0
N293 N 0.57335 0.37198 0.73679 0.0
C294 C 0.61351 0.37053 0.69596 0.0
Co295 Co 0.13997 0.66095 0.95011 0.0
Co296 Co 0.14364 0.55283 0.87726 0.0
O297 O 0.16821 0.62679 0.87621 0.0
C298 C 0.2557 0.72407 0.96999 0.0
O299 O 0.25688 0.68171 0.9849 0.0
C300 C 0.14429 0.58043 0.6792 0.0
O301 O 0.12612 0.60993 0.70615 0.0
O302 O 0.07091 0.53629 0.85656 0.0
O303 O 0.06723 0.60193 0.92571 0.0
H304 H 0.03764 0.36587 0.96442 0.0
H305 H 0.20597 0.70896 0.78673 0.0
O306 O 0.21245 0.72256 0.96729 0.0
H307 H 0.06306 0.74361 0.75348 0.0
H308 H 0.13113 0.81386 0.07156 0.0
H309 H 0.0504 0.62497 0.07616 0.0
H310 H 0.06199 0.68636 0.87674 0.0
H311 H 0.17002 0.7712 0.98601 0.0
O312 O 0.15481 0.55555 0.73866 0.0
H313 H 0.05987 0.45715 0.96663 0.0
H314 H 0.18153 0.49276 0.77699 0.0
H315 H 1.00651 0.66586 0.15034 0.0
H316 H 0.20654 0.76266 0.65601 0.0
H317 H 0.0478 0.7611 0.15267 0.0
H318 H 0.135 0.78123 0.64048 0.0
O319 O 0.14551 0.62564 0.06537 0.0
H320 H 0.3366 0.65852 0.87126 0.0
H321 H 0.18683 0.50913 0.0073 0.0
H322 H 0.27238 0.53333 0.0629 0.0
H323 H 0.34885 0.60687 0.9923 0.0
H324 H 0.24943 0.62981 0.80877 0.0
H325 H 0.16113 0.40277 0.77645 0.0
H326 H 0.08897 0.33857 0.87276 0.0
O327 O 0.13165 0.54845 0.01566 0.0
C328 C 0.04587 0.55781 0.88547 0.0
C329 C 0.07011 0.39404 0.9259 0.0
C330 C 0.13849 0.41418 0.81794 0.0
N331 N 0.12191 0.48029 0.87221 0.0
C332 C 0.08213 0.44537 0.92498 0.0
C333 C 0.14945 0.46509 0.81803 0.0
C334 C 0.09847 0.37841 0.87258 0.0
C335 C 0.17431 0.71587 0.77826 0.0
N336 N 0.13451 0.6952 0.83991 0.0
C337 C 0.17482 0.74635 0.70459 0.0
C338 C 0.13463 0.75661 0.69566 0.0
C339 C 0.09399 0.73514 0.75853 0.0
C340 C 0.09373 0.70296 0.82866 0.0
C341 C 0.11306 0.77236 0.07248 0.0
C342 C 0.06801 0.66632 0.07352 0.0
C343 C 0.13548 0.74784 0.02553 0.0
N344 N 0.11259 0.69531 0.02558 0.0
C345 C 0.04334 0.68941 0.11714 0.0
C346 C 0.06635 0.74279 0.11779 0.0
C347 C 0.13796 0.58018 0.08058 0.0
C348 C 0.30403 0.62368 0.8965 0.0
C349 C 0.21955 0.54062 0.97358 0.0
C350 C 0.26826 0.55404 0.00569 0.0
C351 C 0.31088 0.59569 0.96652 0.0
N352 N 0.21301 0.5676 0.90347 0.0
C353 C 0.25461 0.60776 0.86263 0.0
Co354 Co 0.89482 0.53837 0.80879 0.0
Co355 Co 0.89115 0.42659 0.8817 0.0
O356 O 0.86658 0.47598 0.88272 0.0
C357 C 0.77909 0.48576 0.78889 0.0
O358 O 0.77793 0.44222 0.77396 0.0
C359 C 0.8905 0.45356 0.07974 0.0
O360 O 0.90866 0.50122 0.05277 0.0
O361 O 0.96388 0.48277 0.90236 0.0
O362 O 0.96756 0.5521 0.83321 0.0
H363 H 0.99713 0.3456 0.79458 0.0
H364 H 0.8288 0.5204 0.97213 0.0
O365 O 0.82233 0.52749 0.79159 0.0
H366 H 0.97172 0.69794 0.00536 0.0
H367 H 0.90363 0.70012 0.68725 0.0
H368 H 0.98439 0.59197 0.68274 0.0
H369 H 0.97279 0.64175 0.88214 0.0
H370 H 0.86475 0.61857 0.77283 0.0
O371 O 0.87999 0.41815 0.0203 0.0
H372 H 0.9749 0.41466 0.79233 0.0
H373 H 0.85326 0.32863 0.98203 0.0
H374 H 0.02827 0.67675 0.60854 0.0
H375 H 0.82822 0.57352 0.10283 0.0
H376 H 0.98696 0.73068 0.60616 0.0
H377 H 0.89976 0.66362 0.11835 0.0
O378 O 0.88928 0.49753 0.69354 0.0
H379 H 0.69819 0.33935 0.88776 0.0
H380 H 0.84793 0.33967 0.75173 0.0
H381 H 0.76237 0.27832 0.69621 0.0
H382 H 0.68592 0.27543 0.7668 0.0
H383 H 0.78537 0.39782 0.95019 0.0
H384 H 0.87365 0.25904 0.9826 0.0
H385 H 0.9458 0.26698 0.88628 0.0
O386 O 0.90311 0.43418 0.74329 0.0
C387 C 0.98891 0.52933 0.87345 0.0
C388 C 0.96467 0.34131 0.8331 0.0
C389 C 0.8963 0.29309 0.94109 0.0
N390 N 0.91287 0.37578 0.88678 0.0
C391 C 0.95264 0.38062 0.83401 0.0
C392 C 0.88533 0.33303 0.94098 0.0
C393 C 0.9363 0.29732 0.88645 0.0
C394 C 0.86046 0.55895 0.9806 0.0
N395 N 0.90027 0.57809 0.91896 0.0
C396 C 0.85995 0.58893 0.05425 0.0
C397 C 0.90014 0.63937 0.06318 0.0
C398 C 0.94078 0.65854 0.00032 0.0
C399 C 0.94105 0.62663 0.93021 0.0
C400 C 0.9217 0.67668 0.68635 0.0
C401 C 0.96677 0.6157 0.68536 0.0
C402 C 0.89929 0.62975 0.73332 0.0
N403 N 0.92219 0.60012 0.73329 0.0
C404 C 0.99143 0.66346 0.64172 0.0
C405 C 0.96842 0.69383 0.64105 0.0
C406 C 0.89682 0.4596 0.67836 0.0
C407 C 0.73075 0.33707 0.86253 0.0
C408 C 0.81521 0.33845 0.78545 0.0
C409 C 0.7665 0.30317 0.75338 0.0
C410 C 0.72389 0.30221 0.79255 0.0
N411 N 0.82177 0.372 0.85553 0.0
C412 C 0.78018 0.37057 0.89636 0.0
Co413 Co 0.36805 0.88904 0.97544 0.0
Co414 Co 0.47617 0.88537 0.04837 0.0
O415 O 0.40221 0.8608 0.04938 0.0
C416 C 0.30494 0.77332 0.95554 0.0
O417 O 0.34731 0.77216 0.94063 0.0
C418 C 0.44856 0.88473 0.24641 0.0
O419 O 0.41905 0.90289 0.21941 0.0
O420 O 0.49271 0.9581 0.06902 0.0
O421 O 0.42706 0.96178 -0.00014 0.0
H422 H 0.66313 0.99136 0.96124 0.0
H423 H 0.32001 0.82302 0.1388 0.0
O424 O 0.30644 0.81655 0.95825 0.0
H425 H 0.28536 0.96591 0.17198 0.0
H426 H 0.2151 0.89786 0.8539 0.0
H427 H 0.40401 0.97862 0.84939 0.0
H428 H 0.34262 0.967 0.04877 0.0
H429 H 0.25778 0.85897 0.93947 0.0
O430 O 0.47345 0.87421 0.18698 0.0
H431 H 0.57186 0.96913 0.95899 0.0
H432 H 0.53626 0.8475 0.14874 0.0
H433 H 0.36311 0.0225 0.77518 0.0
H434 H 0.2663 0.82242 0.26948 0.0
H435 H 0.26786 0.98119 0.77281 0.0
H436 H 0.24773 0.89396 0.28498 0.0
O437 O 0.40336 0.88352 0.86021 0.0
H438 H 0.37045 0.69243 0.05443 0.0
H439 H 0.5199 0.84217 0.91846 0.0
H440 H 0.49571 0.75662 0.86296 0.0
H441 H 0.42213 0.68017 0.9335 0.0
H442 H 0.39916 0.7796 0.11686 0.0
H443 H 0.62626 0.8679 0.14931 0.0
H444 H 0.69045 0.94004 0.05296 0.0
O445 O 0.48055 0.89734 0.90996 0.0
C446 C 0.47119 0.98313 0.04011 0.0
C447 C 0.63497 0.9589 -0.00023 0.0
C448 C 0.61484 0.89054 0.10779 0.0
N449 N 0.54872 0.9071 0.05347 0.0
C450 C 0.58364 0.94687 0.00068 0.0
C451 C 0.56393 0.87957 0.10768 0.0
C452 C 0.65061 0.93054 0.05313 0.0
C453 C 0.31311 0.85467 0.14725 0.0
N454 N 0.33378 0.89448 0.08561 0.0
C455 C 0.28261 0.85415 0.2209 0.0
C456 C 0.27236 0.89434 0.22982 0.0
C457 C 0.29383 0.93498 0.16695 0.0
C458 C 0.32602 0.93526 0.09685 0.0
C459 C 0.25661 0.91593 0.853 0.0
C460 C 0.36266 0.961 0.852 0.0
C461 C 0.28114 0.89352 0.89996 0.0
N462 N 0.33367 0.91641 0.89993 0.0
C463 C 0.33956 0.98566 0.80837 0.0
C464 C 0.28617 0.96265 0.8077 0.0
C465 C 0.44883 0.89104 0.84503 0.0
C466 C 0.40531 0.72499 0.02921 0.0
C467 C 0.4884 0.80945 0.95217 0.0
C468 C 0.47498 0.76075 0.92011 0.0
C469 C 0.43332 0.71813 0.95926 0.0
N470 N 0.4614 0.81601 0.02223 0.0
C471 C 0.42123 0.77441 0.06304 0.0
Co472 Co 0.4906 0.36226 0.14214 0.0
Co473 Co 0.6024 0.47035 0.21505 0.0
O474 O 0.55301 0.3964 0.21608 0.0
C475 C 0.5432 0.29914 0.1222 0.0
O476 O 0.58673 0.34151 0.10725 0.0
C477 C 0.57543 0.44275 0.41309 0.0
O478 O 0.52776 0.41326 0.38609 0.0
O479 O 0.54623 0.48691 0.23569 0.0
O480 O 0.47688 0.42127 0.16655 0.0
H481 H 0.68341 0.65732 0.12791 0.0
H482 H 0.5086 0.31423 0.30552 0.0
O483 O 0.50147 0.30065 0.12495 0.0
H484 H 0.33104 0.27958 0.33871 0.0
H485 H 0.32882 0.20935 0.02061 0.0
H486 H 0.43699 0.39825 0.01608 0.0
H487 H 0.38721 0.33683 0.21547 0.0
H488 H 0.41038 0.25201 0.10619 0.0
O489 O 0.61085 0.46762 0.35366 0.0
H490 H 0.61435 0.56605 0.12566 0.0
H491 H 0.70038 0.53041 0.31542 0.0
H492 H 0.3522 0.35737 0.94187 0.0
H493 H 0.45549 0.26052 0.43623 0.0
H494 H 0.29825 0.26213 0.93951 0.0
H495 H 0.36538 0.24196 0.45173 0.0
O496 O 0.53144 0.39757 0.0269 0.0
H497 H 0.68959 0.36459 0.22109 0.0
H498 H 0.68935 0.51409 0.08516 0.0
H499 H 0.7507 0.48988 0.02967 0.0
H500 H 0.75354 0.41628 0.10019 0.0
H501 H 0.63114 0.39331 0.28352 0.0
H502 H 0.76998 0.6204 0.316 0.0
H503 H 0.76204 0.68461 0.21965 0.0
O504 O 0.59482 0.47475 0.07664 0.0
C505 C 0.49967 0.46539 0.20679 0.0
C506 C 0.6877 0.62915 0.16645 0.0
C507 C 0.73592 0.60899 0.27447 0.0
N508 N 0.65323 0.54289 0.22014 0.0
C509 C 0.64839 0.57782 0.16735 0.0
C510 C 0.69598 0.55809 0.27436 0.0
C511 C 0.73169 0.64477 0.21982 0.0
C512 C 0.47004 0.30732 0.31398 0.0
N513 N 0.45089 0.32799 0.25231 0.0
C514 C 0.44006 0.27683 0.38764 0.0
C515 C 0.38962 0.26658 0.39655 0.0
C516 C 0.37045 0.28805 0.33367 0.0
C517 C 0.40235 0.32023 0.26355 0.0
C518 C 0.35226 0.25086 0.01971 0.0
C519 C 0.41325 0.3569 0.0187 0.0
C520 C 0.3992 0.27537 0.06667 0.0
N521 N 0.42884 0.3279 0.06664 0.0
C522 C 0.36549 0.33381 0.97506 0.0
C523 C 0.33511 0.28043 0.9744 0.0
C524 C 0.56938 0.44303 0.01171 0.0
C525 C 0.69189 0.39945 0.19588 0.0
C526 C 0.69055 0.48257 0.11887 0.0
C527 C 0.72584 0.46915 0.08681 0.0
C528 C 0.72677 0.42747 0.12594 0.0
N529 N 0.657 0.45557 0.18892 0.0
C530 C 0.6584 0.41538 0.22971 0.0
Co531 Co 0.13995 0.48483 0.30883 0.0
Co532 Co 0.14364 0.59662 0.38169 0.0
O533 O 0.16821 0.54723 0.38275 0.0
C534 C 0.25567 0.53742 0.28891 0.0
O535 O 0.25684 0.58095 0.27397 0.0
C536 C 0.14429 0.56966 0.57974 0.0
O537 O 0.12612 0.52199 0.55278 0.0
O538 O 0.07091 0.54044 0.40234 0.0
O539 O 0.06721 0.47111 0.33323 0.0
H540 H 0.03764 0.67759 0.2945 0.0
H541 H 0.20597 0.50282 0.47222 0.0
O542 O 0.21243 0.49569 0.29165 0.0
H543 H 0.06308 0.32527 0.50544 0.0
H544 H 0.13108 0.32305 0.18736 0.0
H545 H 0.05036 0.43123 0.18276 0.0
H546 H 0.06199 0.38144 0.38217 0.0
H547 H 0.16999 0.40461 0.27292 0.0
O548 O 0.15482 0.60507 0.52029 0.0
H549 H 0.05987 0.60855 0.29228 0.0
H550 H 0.18155 0.69459 0.482 0.0
H551 H 1.00645 0.34646 0.10856 0.0
H552 H 0.20658 0.44971 0.60295 0.0
H553 H 0.04774 0.2925 0.10624 0.0
H554 H 0.13504 0.35961 0.61847 0.0
O555 O 0.14547 0.52566 0.19358 0.0
H556 H 0.3366 0.68383 0.38774 0.0
H557 H 0.18684 0.68355 0.25174 0.0
H558 H 0.27239 0.7449 0.19623 0.0
H559 H 0.34885 0.74776 0.26679 0.0
H560 H 0.24943 0.62537 0.45017 0.0
H561 H 0.16114 0.76417 0.48255 0.0
H562 H 0.08897 0.75622 0.3862 0.0
O563 O 0.13166 0.58903 0.24328 0.0
C564 C 0.04587 0.49389 0.37346 0.0
C565 C 0.07011 0.68189 0.33304 0.0
C566 C 0.13849 0.73012 0.44104 0.0
N567 N 0.12192 0.64743 0.38674 0.0
C568 C 0.08214 0.64259 0.33395 0.0
C569 C 0.14946 0.69018 0.44094 0.0
C570 C 0.09847 0.72588 0.38638 0.0
C571 C 0.17432 0.46426 0.48068 0.0
N572 N 0.13451 0.44511 0.41902 0.0
C573 C 0.17485 0.43429 0.55436 0.0
C574 C 0.13466 0.38385 0.56329 0.0
C575 C 0.09401 0.36467 0.5004 0.0
C576 C 0.09373 0.39658 0.43027 0.0
C577 C 0.11301 0.3465 0.18644 0.0
C578 C 0.06796 0.40749 0.1854 0.0
C579 C 0.13544 0.39343 0.2334 0.0
N580 N 0.11255 0.42308 0.23334 0.0
C581 C 0.04329 0.35974 0.14176 0.0
C582 C 0.06629 0.32935 0.14112 0.0
C583 C 0.13795 0.5636 0.17836 0.0
C584 C 0.30404 0.68612 0.36251 0.0
C585 C 0.21956 0.68476 0.28546 0.0
C586 C 0.26827 0.72004 0.25339 0.0
C587 C 0.31089 0.72099 0.29255 0.0
N588 N 0.21301 0.65121 0.35553 0.0
C589 C 0.25462 0.65263 0.39635 0.0
Co590 Co 0.66674 0.13417 0.47553 0.0
Co591 Co 0.55863 0.13784 0.54835 0.0
O592 O 0.63259 0.16242 0.54942 0.0
C593 C 0.72986 0.24989 0.45562 0.0
O594 O 0.68748 0.25106 0.4407 0.0
C595 C 0.58624 0.1385 0.74642 0.0
O596 O 0.61575 0.12034 0.71947 0.0
O597 O 0.54208 0.06512 0.56903 0.0
O598 O 0.60773 0.06143 0.49993 0.0
H599 H 0.37165 0.03185 0.4611 0.0
H600 H 0.71477 0.20019 0.63889 0.0
O601 O 0.72835 0.20665 0.45834 0.0
H602 H 0.74944 0.0573 0.6722 0.0
H603 H 0.81967 0.12533 0.35412 0.0
H604 H 0.63076 0.04459 0.34948 0.0
H605 H 0.69217 0.05622 0.54892 0.0
H606 H 0.77701 0.16422 0.43964 0.0
O607 O 0.56135 0.14901 0.68695 0.0
H608 H 0.46293 0.05408 0.45893 0.0
H609 H 0.49854 0.17573 0.64863 0.0
H610 H 0.67166 1.0007 0.27533 0.0
H611 H 0.76849 0.20079 0.76964 0.0
H612 H 0.7669 0.042 0.27302 0.0
H613 H 0.78706 0.12926 0.7852 0.0
O614 O 0.63143 0.13969 0.36025 0.0
H615 H 0.66432 0.33079 0.55443 0.0
H616 H 0.5149 0.18103 0.41834 0.0
H617 H 0.53909 0.26658 0.3628 0.0
H618 H 0.61265 0.34303 0.43342 0.0
H619 H 0.63563 0.24362 0.61686 0.0
H620 H 0.40854 0.15533 0.64913 0.0
H621 H 0.34434 0.08318 0.55276 0.0
O622 O 0.55424 0.12586 0.40995 0.0
C623 C 0.56361 0.04009 0.54015 0.0
C624 C 0.39982 0.06431 0.49964 0.0
C625 C 0.41996 0.13268 0.60763 0.0
N626 N 0.48608 0.11611 0.55339 0.0
C627 C 0.45115 0.07634 0.50059 0.0
C628 C 0.47087 0.14365 0.60757 0.0
C629 C 0.38419 0.09268 0.55297 0.0
C630 C 0.72168 0.16854 0.64737 0.0
N631 N 0.70101 0.12873 0.58572 0.0
C632 C 0.75218 0.16906 0.72106 0.0
C633 C 0.76244 0.12888 0.73 0.0
C634 C 0.74096 0.08823 0.66714 0.0
C635 C 0.70878 0.08795 0.597 0.0
C636 C 0.77817 0.10727 0.35319 0.0
C637 C 0.67211 0.0622 0.35213 0.0
C638 C 0.75365 0.12968 0.40013 0.0
N639 N 0.70111 0.10679 0.40006 0.0
C640 C 0.69521 0.03754 0.30852 0.0
C641 C 0.7486 0.06055 0.30789 0.0
C642 C 0.58596 0.13216 0.34503 0.0
C643 C 0.62947 0.29823 0.52918 0.0
C644 C 0.5464 0.21375 0.45207 0.0
C645 C 0.55981 0.26246 0.41999 0.0
C646 C 0.60147 0.30507 0.45918 0.0
N647 N 0.57339 0.20721 0.52217 0.0
C648 C 0.61356 0.24881 0.56302 0.0
Co649 Co 0.54417 0.66095 0.64218 0.0
Co650 Co 0.43238 0.55285 0.71503 0.0
O651 O 0.48177 0.6268 0.71608 0.0
C652 C 0.49156 0.72407 0.62227 0.0
O653 O 0.44802 0.6817 0.60735 0.0
C654 C 0.45934 0.58045 0.91309 0.0
O655 O 0.50701 0.60995 0.88614 0.0
O656 O 0.48856 0.5363 0.73572 0.0
O657 O 0.55789 0.60193 0.66659 0.0
H658 H 0.35136 0.36589 0.62784 0.0
H659 H 0.52619 0.70898 0.80554 0.0
O660 O 0.53329 0.72256 0.62498 0.0
H661 H 0.70374 0.74361 0.83883 0.0
H662 H 0.70593 0.81387 0.52073 0.0
H663 H 0.59777 0.62498 0.51615 0.0
H664 H 0.64756 0.68637 0.71557 0.0
H665 H 0.62438 0.77121 0.60627 0.0
O666 O 0.42393 0.55557 0.85363 0.0
H667 H 0.42043 0.45715 0.62564 0.0
H668 H 0.33441 0.49278 0.81533 0.0
H669 H 0.68255 0.66587 0.44198 0.0
H670 H 0.57931 0.76269 0.93627 0.0
H671 H 0.73649 0.76111 0.43963 0.0
H672 H 0.66942 0.78124 0.95182 0.0
O673 O 0.50333 0.62565 0.52692 0.0
H674 H 0.34512 0.65855 0.72108 0.0
H675 H 0.34546 0.50915 0.58501 0.0
H676 H 0.28412 0.53336 0.52945 0.0
H677 H 0.28121 0.60691 0.60007 0.0
H678 H 0.4036 0.62984 0.78354 0.0
H679 H 0.2648 0.4028 0.81586 0.0
H680 H 0.27273 0.3386 0.71951 0.0
O681 O 0.43996 0.54846 0.57663 0.0
C682 C 0.53511 0.55781 0.70682 0.0
C683 C 0.34707 0.39405 0.66637 0.0
C684 C 0.29885 0.41421 0.77436 0.0
N685 N 0.38155 0.48031 0.72009 0.0
C686 C 0.38638 0.44538 0.6673 0.0
C687 C 0.3388 0.46511 0.77427 0.0
C688 C 0.30308 0.37844 0.7197 0.0
C689 C 0.56475 0.71588 0.81401 0.0
N690 N 0.58389 0.69521 0.75237 0.0
C691 C 0.59473 0.74637 0.88769 0.0
C692 C 0.64517 0.75662 0.89664 0.0
C693 C 0.66434 0.73515 0.83377 0.0
C694 C 0.63243 0.70297 0.76364 0.0
C695 C 0.68249 0.77237 0.51981 0.0
C696 C 0.6215 0.66632 0.51878 0.0
C697 C 0.63556 0.74785 0.56676 0.0
N698 N 0.60592 0.69532 0.56671 0.0
C699 C 0.66926 0.68942 0.47516 0.0
C700 C 0.69964 0.7428 0.47451 0.0
C701 C 0.4654 0.58018 0.51171 0.0
C702 C 0.34284 0.62371 0.69584 0.0
C703 C 0.34424 0.54065 0.61874 0.0
C704 C 0.30895 0.55407 0.58665 0.0
C705 C 0.30799 0.59572 0.62583 0.0
N706 N 0.37778 0.56763 0.68885 0.0
C707 C 0.37635 0.60779 0.72968 0.0
loop_
_geom_bond_atom_site_label_1
_geom_bond_atom_site_label_2
_geom_bond_distance
_geom_bond_site_symmetry_2
_ccdc_geom_bond_type
Co0 O2 2.143 . S
Co0 O8 2.074 . S
Co0 O11 2.093 . S
Co0 O24 2.097 . S
Co0 N41 2.151 . S
Co0 N49 2.214 . S
Co1 O2 2.160 . S
Co1 O7 2.058 . S
Co1 O17 2.057 1_554 S
Co1 O32 2.037 . S
Co1 N36 2.145 . S
Co1 N57 2.257 . S
O2 Co0 2.143 . S
O2 Co1 2.160 . S
C3 O4 1.278 . S
C3 O11 1.224 . S
O4 C3 1.278 . S
C5 O6 1.245 . S
C5 O17 1.232 . S
O6 C5 1.245 . S
O7 Co1 2.058 . S
O7 C33 1.269 . S
O8 Co0 2.074 . S
O8 C33 1.257 . S
H9 C34 0.930 . S
H10 C40 0.930 . S
O11 Co0 2.093 . S
O11 C3 1.224 . S
H12 C44 0.929 . S
H13 C46 0.930 . S
H14 C47 0.930 . S
H15 C45 0.929 . S
H16 C48 0.928 . S
O17 Co1 2.057 1_556 S
O17 C5 1.232 . S
H18 C37 0.929 . S
H19 C38 0.929 . S
H20 C50 0.931 . S
H21 C42 0.929 . S
H22 C51 0.930 . S
H23 C43 0.931 . S
O24 Co0 2.097 . S
O24 C52 1.214 . S
H25 C53 0.929 1_556 S
H26 C54 0.929 . S
H27 C55 0.930 . S
H28 C56 0.929 . S
H29 C58 0.930 1_556 S
H30 C35 0.930 . S
H31 C39 0.930 . S
O32 Co1 2.037 . S
O32 C52 1.234 . S
C33 O7 1.269 . S
C33 O8 1.257 . S
C34 H9 0.930 . S
C34 C37 1.388 . S
C34 C39 1.418 . S
C35 H30 0.930 . S
C35 C38 1.404 . S
C35 C39 1.353 1_556 S
N36 Co1 2.145 . S
N36 C37 1.397 . S
N36 C38 1.334 1_554 S
C37 H18 0.929 . S
C37 C34 1.388 . S
C37 N36 1.397 . S
C38 H19 0.929 . S
C38 C35 1.404 . S
C38 N36 1.334 1_556 S
C39 H31 0.930 . S
C39 C34 1.418 . S
C39 C35 1.353 1_554 S
C40 H10 0.930 . S
C40 N41 1.329 1_556 S
C40 C42 1.446 . S
N41 Co0 2.151 . S
N41 C40 1.329 1_554 S
N41 C45 1.418 . S
C42 H21 0.929 . S
C42 C40 1.446 . S
C42 C43 1.332 . S
C43 H23 0.931 . S
C43 C42 1.332 . S
C43 C44 1.267 1_556 S
C44 H12 0.929 . S
C44 C43 1.267 1_554 S
C44 C45 1.251 . S
C45 H15 0.929 . S
C45 N41 1.418 . S
C45 C44 1.251 . S
C46 H13 0.930 . S
C46 C48 1.406 . S
C46 C51 1.261 . S
C47 H14 0.930 . S
C47 N49 1.325 . S
C47 C50 1.357 . S
C48 H16 0.928 . S
C48 C46 1.406 . S
C48 N49 1.261 . S
N49 Co0 2.214 . S
N49 C47 1.325 . S
N49 C48 1.261 . S
C50 H20 0.931 . S
C50 C47 1.357 . S
C50 C51 1.312 . S
C51 H22 0.930 . S
C51 C46 1.261 . S
C51 C50 1.312 . S
C52 O24 1.214 . S
C52 O32 1.234 . S
C53 H25 0.929 1_554 S
C53 C56 1.391 . S
C53 C58 1.391 . S
C54 H26 0.929 . S
C54 C55 1.390 . S
C54 N57 1.391 . S
C55 H27 0.930 . S
C55 C54 1.390 . S
C55 C56 1.392 . S
C56 H28 0.929 . S
C56 C53 1.391 . S
C56 C55 1.392 . S
N57 Co1 2.257 . S
N57 C54 1.391 . S
N57 C58 1.388 . S
C58 H29 0.930 1_554 S
C58 C53 1.391 . S
C58 N57 1.388 . S
Co59 O61 2.143 . S
Co59 O67 2.074 . S
Co59 O70 2.093 . S
Co59 O83 2.097 . S
Co59 N100 2.151 . S
Co59 N108 2.214 . S
Co60 O61 2.160 . S
Co60 O66 2.058 . S
Co60 O76 2.057 . S
Co60 O91 2.037 . S
Co60 N95 2.145 . S
Co60 N116 2.257 . S
O61 Co59 2.143 . S
O61 Co60 2.160 . S
C62 O63 1.278 . S
C62 O70 1.224 . S
O63 C62 1.278 . S
C64 O65 1.245 . S
C64 O76 1.232 . S
O65 C64 1.245 . S
O66 Co60 2.058 . S
O66 C92 1.269 . S
O67 Co59 2.074 . S
O67 C92 1.257 . S
H68 C93 0.930 . S
H69 C99 0.930 . S
O70 Co59 2.093 . S
O70 C62 1.224 . S
H71 C103 0.929 . S
H72 C105 0.930 . S
H73 C106 0.930 . S
H74 C104 0.929 . S
H75 C107 0.928 . S
O76 Co60 2.057 . S
O76 C64 1.232 . S
H77 C96 0.929 . S
H78 C97 0.929 . S
H79 C109 0.931 . S
H80 C101 0.929 . S
H81 C110 0.930 . S
H82 C102 0.931 . S
O83 Co59 2.097 . S
O83 C111 1.214 . S
H84 C112 0.929 . S
H85 C113 0.929 . S
H86 C114 0.930 . S
H87 C115 0.929 . S
H88 C117 0.930 . S
H89 C94 0.930 . S
H90 C98 0.930 . S
O91 Co60 2.037 . S
O91 C111 1.234 . S
C92 O66 1.269 . S
C92 O67 1.257 . S
C93 H68 0.930 . S
C93 C96 1.388 . S
C93 C98 1.418 . S
C94 H89 0.930 . S
C94 C97 1.404 . S
C94 C98 1.353 . S
N95 Co60 2.145 . S
N95 C96 1.397 . S
N95 C97 1.334 . S
C96 H77 0.929 . S
C96 C93 1.388 . S
C96 N95 1.397 . S
C97 H78 0.929 . S
C97 C94 1.404 . S
C97 N95 1.334 . S
C98 H90 0.930 . S
C98 C93 1.418 . S
C98 C94 1.353 . S
C99 H69 0.930 . S
C99 N100 1.330 . S
C99 C101 1.446 . S
N100 Co59 2.151 . S
N100 C99 1.330 . S
N100 C104 1.418 . S
C101 H80 0.929 . S
C101 C99 1.446 . S
C101 C102 1.332 . S
C102 H82 0.931 . S
C102 C101 1.332 . S
C102 C103 1.267 . S
C103 H71 0.929 . S
C103 C102 1.267 . S
C103 C104 1.251 . S
C104 H74 0.929 . S
C104 N100 1.418 . S
C104 C103 1.251 . S
C105 H72 0.930 . S
C105 C107 1.406 . S
C105 C110 1.261 . S
C106 H73 0.930 . S
C106 N108 1.325 . S
C106 C109 1.357 . S
C107 H75 0.928 . S
C107 C105 1.406 . S
C107 N108 1.261 . S
N108 Co59 2.214 . S
N108 C106 1.325 . S
N108 C107 1.261 . S
C109 H79 0.931 . S
C109 C106 1.357 . S
C109 C110 1.312 . S
C110 H81 0.930 . S
C110 C105 1.261 . S
C110 C109 1.312 . S
C111 O83 1.214 . S
C111 O91 1.234 . S
C112 H84 0.929 . S
C112 C115 1.391 . S
C112 C117 1.391 . S
C113 H85 0.929 . S
C113 C114 1.390 . S
C113 N116 1.391 . S
C114 H86 0.930 . S
C114 C113 1.390 . S
C114 C115 1.392 . S
C115 H87 0.929 . S
C115 C112 1.391 . S
C115 C114 1.392 . S
N116 Co60 2.257 . S
N116 C113 1.391 . S
N116 C117 1.388 . S
C117 H88 0.930 . S
C117 C112 1.391 . S
C117 N116 1.388 . S
Co118 O120 2.143 . S
Co118 O126 2.074 . S
Co118 O129 2.093 . S
Co118 O142 2.097 . S
Co118 N159 2.151 . S
Co118 N167 2.214 . S
Co119 O120 2.160 . S
Co119 O125 2.058 . S
Co119 O135 2.057 . S
Co119 O150 2.037 . S
Co119 N154 2.145 . S
Co119 N175 2.257 . S
O120 Co118 2.143 . S
O120 Co119 2.160 . S
C121 O122 1.278 . S
C121 O129 1.224 . S
O122 C121 1.278 . S
C123 O124 1.245 . S
C123 O135 1.232 . S
O124 C123 1.245 . S
O125 Co119 2.058 . S
O125 C151 1.269 . S
O126 Co118 2.074 . S
O126 C151 1.257 . S
H127 C152 0.930 . S
H128 C158 0.930 . S
O129 Co118 2.093 . S
O129 C121 1.224 . S
H130 C162 0.929 . S
H131 C164 0.930 . S
H132 C165 0.930 . S
H133 C163 0.929 . S
H134 C166 0.928 . S
O135 Co119 2.057 . S
O135 C123 1.232 . S
H136 C155 0.929 . S
H137 C156 0.929 . S
H138 C168 0.931 . S
H139 C160 0.929 . S
H140 C169 0.930 . S
H141 C161 0.931 . S
O142 Co118 2.097 . S
O142 C170 1.214 . S
H143 C171 0.929 . S
H144 C172 0.929 . S
H145 C173 0.930 . S
H146 C174 0.929 . S
H147 C176 0.930 . S
H148 C153 0.930 . S
H149 C157 0.930 . S
O150 Co119 2.037 . S
O150 C170 1.234 . S
C151 O125 1.269 . S
C151 O126 1.257 . S
C152 H127 0.930 . S
C152 C155 1.388 . S
C152 C157 1.418 . S
C153 H148 0.930 . S
C153 C156 1.404 . S
C153 C157 1.353 . S
N154 Co119 2.145 . S
N154 C155 1.397 . S
N154 C156 1.334 . S
C155 H136 0.929 . S
C155 C152 1.388 . S
C155 N154 1.397 . S
C156 H137 0.929 . S
C156 C153 1.404 . S
C156 N154 1.334 . S
C157 H149 0.930 . S
C157 C152 1.418 . S
C157 C153 1.353 . S
C158 H128 0.930 . S
C158 N159 1.330 . S
C158 C160 1.446 . S
N159 Co118 2.151 . S
N159 C158 1.330 . S
N159 C163 1.418 . S
C160 H139 0.929 . S
C160 C158 1.446 . S
C160 C161 1.332 . S
C161 H141 0.931 . S
C161 C160 1.332 . S
C161 C162 1.267 . S
C162 H130 0.929 . S
C162 C161 1.267 . S
C162 C163 1.251 . S
C163 H133 0.929 . S
C163 N159 1.418 . S
C163 C162 1.251 . S
C164 H131 0.930 . S
C164 C166 1.406 . S
C164 C169 1.261 . S
C165 H132 0.930 . S
C165 N167 1.325 . S
C165 C168 1.357 . S
C166 H134 0.928 . S
C166 C164 1.406 . S
C166 N167 1.261 . S
N167 Co118 2.214 . S
N167 C165 1.325 . S
N167 C166 1.261 . S
C168 H138 0.931 . S
C168 C165 1.357 . S
C168 C169 1.312 . S
C169 H140 0.930 . S
C169 C164 1.261 . S
C169 C168 1.312 . S
C170 O142 1.214 . S
C170 O150 1.234 . S
C171 H143 0.929 . S
C171 C174 1.391 . S
C171 C176 1.391 . S
C172 H144 0.929 . S
C172 C173 1.390 . S
C172 N175 1.391 . S
C173 H145 0.930 . S
C173 C172 1.390 . S
C173 C174 1.392 . S
C174 H146 0.929 . S
C174 C171 1.391 . S
C174 C173 1.392 . S
N175 Co119 2.257 . S
N175 C172 1.391 . S
N175 C176 1.388 . S
C176 H147 0.930 . S
C176 C171 1.391 . S
C176 N175 1.388 . S
Co177 O179 2.143 . S
Co177 O185 2.074 . S
Co177 O188 2.093 . S
Co177 O201 2.097 . S
Co177 N218 2.151 . S
Co177 N226 2.214 . S
Co178 O179 2.160 . S
Co178 O184 2.058 . S
Co178 O194 2.057 . S
Co178 O209 2.037 . S
Co178 N213 2.145 . S
Co178 N234 2.257 . S
O179 Co177 2.143 . S
O179 Co178 2.160 . S
C180 O181 1.278 . S
C180 O188 1.224 . S
O181 C180 1.278 . S
C182 O183 1.245 . S
C182 O194 1.232 . S
O183 C182 1.245 . S
O184 Co178 2.058 . S
O184 C210 1.269 . S
O185 Co177 2.074 . S
O185 C210 1.257 . S
H186 C211 0.930 . S
H187 C217 0.930 . S
O188 Co177 2.093 . S
O188 C180 1.224 . S
H189 C221 0.929 . S
H190 C223 0.930 . S
H191 C224 0.930 . S
H192 C222 0.929 . S
H193 C225 0.928 . S
O194 Co178 2.057 . S
O194 C182 1.232 . S
H195 C214 0.929 . S
H196 C215 0.929 . S
H197 C227 0.931 . S
H198 C219 0.929 . S
H199 C228 0.930 . S
H200 C220 0.931 . S
O201 Co177 2.097 . S
O201 C229 1.214 . S
H202 C230 0.929 . S
H203 C231 0.929 . S
H204 C232 0.930 . S
H205 C233 0.929 . S
H206 C235 0.930 . S
H207 C212 0.930 . S
H208 C216 0.930 . S
O209 Co178 2.037 . S
O209 C229 1.234 . S
C210 O184 1.269 . S
C210 O185 1.257 . S
C211 H186 0.930 . S
C211 C214 1.388 . S
C211 C216 1.418 . S
C212 H207 0.930 . S
C212 C215 1.404 . S
C212 C216 1.353 . S
N213 Co178 2.145 . S
N213 C214 1.397 . S
N213 C215 1.334 . S
C214 H195 0.929 . S
C214 C211 1.388 . S
C214 N213 1.397 . S
C215 H196 0.929 . S
C215 C212 1.404 . S
C215 N213 1.334 . S
C216 H208 0.930 . S
C216 C211 1.418 . S
C216 C212 1.353 . S
C217 H187 0.930 . S
C217 N218 1.330 . S
C217 C219 1.446 . S
N218 Co177 2.151 . S
N218 C217 1.330 . S
N218 C222 1.418 . S
C219 H198 0.929 . S
C219 C217 1.446 . S
C219 C220 1.332 . S
C220 H200 0.931 . S
C220 C219 1.332 . S
C220 C221 1.267 . S
C221 H189 0.929 . S
C221 C220 1.267 . S
C221 C222 1.251 . S
C222 H192 0.929 . S
C222 N218 1.418 . S
C222 C221 1.251 . S
C223 H190 0.930 . S
C223 C225 1.406 . S
C223 C228 1.261 . S
C224 H191 0.930 . S
C224 N226 1.325 . S
C224 C227 1.357 . S
C225 H193 0.928 . S
C225 C223 1.406 . S
C225 N226 1.261 . S
N226 Co177 2.214 . S
N226 C224 1.325 . S
N226 C225 1.261 . S
C227 H197 0.931 . S
C227 C224 1.357 . S
C227 C228 1.312 . S
C228 H199 0.930 . S
C228 C223 1.261 . S
C228 C227 1.312 . S
C229 O201 1.214 . S
C229 O209 1.234 . S
C230 H202 0.929 . S
C230 C233 1.391 . S
C230 C235 1.391 . S
C231 H203 0.929 . S
C231 C232 1.390 . S
C231 N234 1.391 . S
C232 H204 0.930 . S
C232 C231 1.390 . S
C232 C233 1.392 . S
C233 H205 0.929 . S
C233 C230 1.391 . S
C233 C232 1.392 . S
N234 Co178 2.257 . S
N234 C231 1.391 . S
N234 C235 1.388 . S
C235 H206 0.930 . S
C235 C230 1.391 . S
C235 N234 1.388 . S
Co236 O238 2.143 . S
Co236 O244 2.074 . S
Co236 O247 2.093 . S
Co236 O260 2.097 . S
Co236 N277 2.151 . S
Co236 N285 2.214 . S
Co237 O238 2.160 . S
Co237 O243 2.058 . S
Co237 O253 2.057 . S
Co237 O268 2.037 . S
Co237 N272 2.145 . S
Co237 N293 2.257 . S
O238 Co236 2.143 . S
O238 Co237 2.160 . S
C239 O240 1.278 . S
C239 O247 1.224 . S
O240 C239 1.278 . S
C241 O242 1.245 . S
C241 O253 1.232 . S
O242 C241 1.245 . S
O243 Co237 2.058 . S
O243 C269 1.269 . S
O244 Co236 2.074 . S
O244 C269 1.257 . S
H245 C270 0.930 . S
H246 C276 0.930 . S
O247 Co236 2.093 . S
O247 C239 1.224 . S
H248 C280 0.929 . S
H249 C282 0.930 . S
H250 C283 0.930 . S
H251 C281 0.929 . S
H252 C284 0.928 . S
O253 Co237 2.057 . S
O253 C241 1.232 . S
H254 C273 0.929 . S
H255 C274 0.929 . S
H256 C286 0.931 . S
H257 C278 0.929 . S
H258 C287 0.930 . S
H259 C279 0.931 . S
O260 Co236 2.097 . S
O260 C288 1.214 . S
H261 C289 0.929 . S
H262 C290 0.929 . S
H263 C291 0.930 . S
H264 C292 0.929 . S
H265 C294 0.930 . S
H266 C271 0.930 . S
H267 C275 0.930 . S
O268 Co237 2.037 . S
O268 C288 1.234 . S
C269 O243 1.269 . S
C269 O244 1.257 . S
C270 H245 0.930 . S
C270 C273 1.388 . S
C270 C275 1.418 . S
C271 H266 0.930 . S
C271 C274 1.404 . S
C271 C275 1.353 . S
N272 Co237 2.145 . S
N272 C273 1.397 . S
N272 C274 1.334 . S
C273 H254 0.929 . S
C273 C270 1.388 . S
C273 N272 1.397 . S
C274 H255 0.929 . S
C274 C271 1.404 . S
C274 N272 1.334 . S
C275 H267 0.930 . S
C275 C270 1.418 . S
C275 C271 1.353 . S
C276 H246 0.930 . S
C276 N277 1.330 . S
C276 C278 1.446 . S
N277 Co236 2.151 . S
N277 C276 1.330 . S
N277 C281 1.418 . S
C278 H257 0.929 . S
C278 C276 1.446 . S
C278 C279 1.332 . S
C279 H259 0.931 . S
C279 C278 1.332 . S
C279 C280 1.267 . S
C280 H248 0.929 . S
C280 C279 1.267 . S
C280 C281 1.251 . S
C281 H251 0.929 . S
C281 N277 1.418 . S
C281 C280 1.251 . S
C282 H249 0.930 . S
C282 C284 1.406 1_554 S
C282 C287 1.261 . S
C283 H250 0.930 . S
C283 N285 1.325 . S
C283 C286 1.357 1_556 S
C284 H252 0.928 . S
C284 C282 1.406 1_556 S
C284 N285 1.261 . S
N285 Co236 2.214 . S
N285 C283 1.325 . S
N285 C284 1.261 . S
C286 H256 0.931 . S
C286 C283 1.357 1_554 S
C286 C287 1.312 . S
C287 H258 0.930 . S
C287 C282 1.261 . S
C287 C286 1.312 . S
C288 O260 1.214 . S
C288 O268 1.234 . S
C289 H261 0.929 . S
C289 C292 1.391 . S
C289 C294 1.391 . S
C290 H262 0.929 . S
C290 C291 1.390 . S
C290 N293 1.391 . S
C291 H263 0.930 . S
C291 C290 1.390 . S
C291 C292 1.392 . S
C292 H264 0.929 . S
C292 C289 1.391 . S
C292 C291 1.392 . S
N293 Co237 2.257 . S
N293 C290 1.391 . S
N293 C294 1.388 . S
C294 H265 0.930 . S
C294 C289 1.391 . S
C294 N293 1.388 . S
Co295 O297 2.143 . S
Co295 O303 2.074 . S
Co295 O306 2.093 . S
Co295 O319 2.097 1_556 S
Co295 N336 2.151 . S
Co295 N344 2.214 1_556 S
Co296 O297 2.160 . S
Co296 O302 2.058 . S
Co296 O312 2.057 . S
Co296 O327 2.037 1_556 S
Co296 N331 2.145 . S
Co296 N352 2.257 . S
O297 Co295 2.143 . S
O297 Co296 2.160 . S
C298 O299 1.278 . S
C298 O306 1.224 . S
O299 C298 1.278 . S
C300 O301 1.245 . S
C300 O312 1.232 . S
O301 C300 1.245 . S
O302 Co296 2.058 . S
O302 C328 1.269 . S
O303 Co295 2.074 . S
O303 C328 1.257 . S
H304 C329 0.930 . S
H305 C335 0.930 . S
O306 Co295 2.093 . S
O306 C298 1.224 . S
H307 C339 0.929 . S
H308 C341 0.930 . S
H309 C342 0.930 . S
H310 C340 0.929 . S
H311 C343 0.928 . S
O312 Co296 2.057 . S
O312 C300 1.232 . S
H313 C332 0.929 . S
H314 C333 0.929 . S
H315 C345 0.931 . S
H316 C337 0.929 . S
H317 C346 0.930 . S
H318 C338 0.931 . S
O319 Co295 2.097 1_554 S
O319 C347 1.214 . S
H320 C348 0.929 . S
H321 C349 0.929 1_554 S
H322 C350 0.930 1_554 S
H323 C351 0.929 . S
H324 C353 0.930 . S
H325 C330 0.930 . S
H326 C334 0.930 . S
O327 Co296 2.037 1_554 S
O327 C347 1.234 . S
C328 O302 1.269 . S
C328 O303 1.257 . S
C329 H304 0.930 . S
C329 C332 1.388 . S
C329 C334 1.418 . S
C330 H325 0.930 . S
C330 C333 1.404 . S
C330 C334 1.353 . S
N331 Co296 2.145 . S
N331 C332 1.397 . S
N331 C333 1.334 . S
C332 H313 0.929 . S
C332 C329 1.388 . S
C332 N331 1.397 . S
C333 H314 0.929 . S
C333 C330 1.404 . S
C333 N331 1.334 . S
C334 H326 0.930 . S
C334 C329 1.418 . S
C334 C330 1.353 . S
C335 H305 0.930 . S
C335 N336 1.330 . S
C335 C337 1.446 . S
N336 Co295 2.151 . S
N336 C335 1.330 . S
N336 C340 1.418 . S
C337 H316 0.929 . S
C337 C335 1.446 . S
C337 C338 1.332 . S
C338 H318 0.931 . S
C338 C337 1.332 . S
C338 C339 1.267 . S
C339 H307 0.929 . S
C339 C338 1.267 . S
C339 C340 1.251 . S
C340 H310 0.929 . S
C340 N336 1.418 . S
C340 C339 1.251 . S
C341 H308 0.930 . S
C341 C343 1.406 . S
C341 C346 1.261 . S
C342 H309 0.930 . S
C342 N344 1.325 . S
C342 C345 1.357 . S
C343 H311 0.928 . S
C343 C341 1.406 . S
C343 N344 1.261 . S
N344 Co295 2.214 1_554 S
N344 C342 1.325 . S
N344 C343 1.261 . S
C345 H315 0.931 . S
C345 C342 1.357 . S
C345 C346 1.312 . S
C346 H317 0.930 . S
C346 C341 1.261 . S
C346 C345 1.312 . S
C347 O319 1.214 . S
C347 O327 1.234 . S
C348 H320 0.929 . S
C348 C351 1.391 . S
C348 C353 1.391 . S
C349 H321 0.929 1_556 S
C349 C350 1.390 . S
C349 N352 1.391 . S
C350 H322 0.930 1_556 S
C350 C349 1.390 . S
C350 C351 1.392 . S
C351 H323 0.929 . S
C351 C348 1.391 . S
C351 C350 1.392 . S
N352 Co296 2.257 . S
N352 C349 1.391 . S
N352 C353 1.388 . S
C353 H324 0.930 . S
C353 C348 1.391 . S
C353 N352 1.388 . S
Co354 O356 2.143 . S
Co354 O362 2.074 . S
Co354 O365 2.093 . S
Co354 O378 2.097 . S
Co354 N395 2.151 . S
Co354 N403 2.214 . S
Co355 O356 2.160 . S
Co355 O361 2.058 . S
Co355 O371 2.057 1_556 S
Co355 O386 2.037 . S
Co355 N390 2.145 . S
Co355 N411 2.257 . S
O356 Co354 2.143 . S
O356 Co355 2.160 . S
C357 O358 1.278 . S
C357 O365 1.224 . S
O358 C357 1.278 . S
C359 O360 1.245 . S
C359 O371 1.232 . S
O360 C359 1.245 . S
O361 Co355 2.058 . S
O361 C387 1.269 . S
O362 Co354 2.074 . S
O362 C387 1.257 . S
H363 C388 0.930 . S
H364 C394 0.930 . S
O365 Co354 2.093 . S
O365 C357 1.224 . S
H366 C398 0.929 . S
H367 C400 0.930 . S
H368 C401 0.930 . S
H369 C399 0.929 . S
H370 C402 0.928 . S
O371 Co355 2.057 1_554 S
O371 C359 1.232 . S
H372 C391 0.929 . S
H373 C392 0.929 1_554 S
H374 C404 0.931 . S
H375 C396 0.924 1_554 S
H376 C405 0.930 . S
H377 C397 0.931 1_554 S
O378 Co354 2.097 . S
O378 C406 1.214 . S
H379 C407 0.929 . S
H380 C408 0.929 . S
H381 C409 0.930 . S
H382 C410 0.929 . S
H383 C412 0.930 . S
H384 C389 0.930 1_554 S
H385 C393 0.930 . S
O386 Co355 2.037 . S
O386 C406 1.234 . S
C387 O361 1.269 . S
C387 O362 1.257 . S
C388 H363 0.930 . S
C388 C391 1.388 . S
C388 C393 1.418 . S
C389 H384 0.930 1_556 S
C389 C392 1.404 . S
C389 C393 1.353 . S
N390 Co355 2.145 . S
N390 C391 1.397 . S
N390 C392 1.334 . S
C391 H372 0.929 . S
C391 C388 1.388 . S
C391 N390 1.397 . S
C392 H373 0.929 1_556 S
C392 C389 1.404 . S
C392 N390 1.334 . S
C393 H385 0.930 . S
C393 C388 1.418 . S
C393 C389 1.353 . S
C394 H364 0.930 . S
C394 N395 1.330 . S
C394 C396 1.451 . S
N395 Co354 2.151 . S
N395 C394 1.330 . S
N395 C399 1.418 . S
C396 H375 0.924 1_556 S
C396 C394 1.451 . S
C396 C397 1.333 . S
C397 H377 0.931 1_556 S
C397 C396 1.333 . S
C397 C398 1.267 . S
C398 H366 0.929 . S
C398 C397 1.267 . S
C398 C399 1.251 . S
C399 H369 0.929 . S
C399 N395 1.418 . S
C399 C398 1.251 . S
C400 H367 0.930 . S
C400 C402 1.406 . S
C400 C405 1.261 . S
C401 H368 0.930 . S
C401 N403 1.325 . S
C401 C404 1.357 . S
C402 H370 0.928 . S
C402 C400 1.406 . S
C402 N403 1.261 . S
N403 Co354 2.214 . S
N403 C401 1.325 . S
N403 C402 1.261 . S
C404 H374 0.931 . S
C404 C401 1.357 . S
C404 C405 1.312 . S
C405 H376 0.930 . S
C405 C400 1.261 . S
C405 C404 1.312 . S
C406 O378 1.214 . S
C406 O386 1.234 . S
C407 H379 0.929 . S
C407 C410 1.391 . S
C407 C412 1.391 . S
C408 H380 0.929 . S
C408 C409 1.390 . S
C408 N411 1.391 . S
C409 H381 0.930 . S
C409 C408 1.390 . S
C409 C410 1.392 . S
C410 H382 0.929 . S
C410 C407 1.391 . S
C410 C409 1.392 . S
N411 Co355 2.257 . S
N411 C408 1.391 . S
N411 C412 1.388 . S
C412 H383 0.930 . S
C412 C407 1.391 . S
C412 N411 1.388 . S
Co413 O415 2.143 1_556 S
Co413 O421 2.074 . S
Co413 O424 2.093 . S
Co413 O437 2.097 . S
Co413 N454 2.151 1_556 S
Co413 N462 2.214 . S
Co414 O415 2.160 . S
Co414 O420 2.058 . S
Co414 O430 2.057 . S
Co414 O445 2.037 1_554 S
Co414 N449 2.145 . S
Co414 N470 2.257 . S
O415 Co413 2.143 1_554 S
O415 Co414 2.160 . S
C416 O417 1.278 1_556 S
C416 O424 1.224 . S
O417 C416 1.278 1_554 S
C418 O419 1.245 . S
C418 O430 1.232 . S
O419 C418 1.245 . S
O420 Co414 2.058 . S
O420 C446 1.269 . S
O421 Co413 2.074 . S
O421 C446 1.257 1_556 S
H422 C447 0.930 . S
H423 C453 0.930 . S
O424 Co413 2.093 . S
O424 C416 1.224 . S
H425 C457 0.929 . S
H426 C459 0.930 . S
H427 C460 0.930 . S
H428 C458 0.929 . S
H429 C461 0.928 . S
O430 Co414 2.057 . S
O430 C418 1.232 . S
H431 C450 0.929 . S
H432 C451 0.929 . S
H433 C463 0.931 . S
H434 C455 0.929 . S
H435 C464 0.930 . S
H436 C456 0.931 . S
O437 Co413 2.097 . S
O437 C465 1.214 . S
H438 C466 0.929 . S
H439 C467 0.929 . S
H440 C468 0.930 . S
H441 C469 0.930 . S
H442 C471 0.930 . S
H443 C448 0.930 . S
H444 C452 0.930 . S
O445 Co414 2.037 1_556 S
O445 C465 1.234 . S
C446 O420 1.269 . S
C446 O421 1.257 1_554 S
C447 H422 0.930 . S
C447 C450 1.388 . S
C447 C452 1.418 1_556 S
C448 H443 0.930 . S
C448 C451 1.404 . S
C448 C452 1.353 . S
N449 Co414 2.145 . S
N449 C450 1.397 1_554 S
N449 C451 1.334 . S
C450 H431 0.929 . S
C450 C447 1.388 . S
C450 N449 1.397 1_556 S
C451 H432 0.929 . S
C451 C448 1.404 . S
C451 N449 1.334 . S
C452 H444 0.930 . S
C452 C447 1.418 1_554 S
C452 C448 1.353 . S
C453 H423 0.930 . S
C453 N454 1.330 . S
C453 C455 1.446 . S
N454 Co413 2.151 1_554 S
N454 C453 1.330 . S
N454 C458 1.418 . S
C455 H434 0.929 . S
C455 C453 1.446 . S
C455 C456 1.332 . S
C456 H436 0.931 . S
C456 C455 1.332 . S
C456 C457 1.267 . S
C457 H425 0.929 . S
C457 C456 1.267 . S
C457 C458 1.251 . S
C458 H428 0.929 . S
C458 N454 1.418 . S
C458 C457 1.251 . S
C459 H426 0.930 . S
C459 C461 1.406 . S
C459 C464 1.261 . S
C460 H427 0.930 . S
C460 N462 1.325 . S
C460 C463 1.357 . S
C461 H429 0.928 . S
C461 C459 1.406 . S
C461 N462 1.261 . S
N462 Co413 2.214 . S
N462 C460 1.325 . S
N462 C461 1.261 . S
C463 H433 0.931 . S
C463 C460 1.357 . S
C463 C464 1.312 . S
C464 H435 0.930 . S
C464 C459 1.261 . S
C464 C463 1.312 . S
C465 O437 1.214 . S
C465 O445 1.234 . S
C466 H438 0.929 . S
C466 C469 1.391 . S
C466 C471 1.391 . S
C467 H439 0.929 . S
C467 C468 1.390 . S
C467 N470 1.391 1_556 S
C468 H440 0.930 . S
C468 C467 1.390 . S
C468 C469 1.392 1_556 S
C469 H441 0.930 . S
C469 C466 1.391 . S
C469 C468 1.392 1_554 S
N470 Co414 2.257 . S
N470 C467 1.391 1_554 S
N470 C471 1.388 . S
C471 H442 0.930 . S
C471 C466 1.391 . S
C471 N470 1.388 . S
Co472 O474 2.143 . S
Co472 O480 2.074 . S
Co472 O483 2.093 . S
Co472 O496 2.097 . S
Co472 N513 2.151 . S
Co472 N521 2.214 . S
Co473 O474 2.160 . S
Co473 O479 2.058 . S
Co473 O489 2.057 . S
Co473 O504 2.037 . S
Co473 N508 2.145 . S
Co473 N529 2.257 . S
O474 Co472 2.143 . S
O474 Co473 2.160 . S
C475 O476 1.278 . S
C475 O483 1.224 . S
O476 C475 1.278 . S
C477 O478 1.245 . S
C477 O489 1.232 . S
O478 C477 1.245 . S
O479 Co473 2.058 . S
O479 C505 1.269 . S
O480 Co472 2.074 . S
O480 C505 1.257 . S
H481 C506 0.930 . S
H482 C512 0.930 . S
O483 Co472 2.093 . S
O483 C475 1.224 . S
H484 C516 0.929 . S
H485 C518 0.930 . S
H486 C519 0.930 . S
H487 C517 0.929 . S
H488 C520 0.928 1_554 S
O489 Co473 2.057 . S
O489 C477 1.232 . S
H490 C509 0.929 . S
H491 C510 0.929 . S
H492 C522 0.931 . S
H493 C514 0.929 . S
H494 C523 0.930 . S
H495 C515 0.931 . S
O496 Co472 2.097 . S
O496 C524 1.214 . S
H497 C525 0.929 . S
H498 C526 0.929 . S
H499 C527 0.930 . S
H500 C528 0.929 . S
H501 C530 0.930 . S
H502 C507 0.930 . S
H503 C511 0.930 . S
O504 Co473 2.037 . S
O504 C524 1.234 . S
C505 O479 1.269 . S
C505 O480 1.257 . S
C506 H481 0.930 . S
C506 C509 1.388 . S
C506 C511 1.418 . S
C507 H502 0.930 . S
C507 C510 1.404 . S
C507 C511 1.353 . S
N508 Co473 2.145 . S
N508 C509 1.397 . S
N508 C510 1.334 . S
C509 H490 0.929 . S
C509 C506 1.388 . S
C509 N508 1.397 . S
C510 H491 0.929 . S
C510 C507 1.404 . S
C510 N508 1.334 . S
C511 H503 0.930 . S
C511 C506 1.418 . S
C511 C507 1.353 . S
C512 H482 0.930 . S
C512 N513 1.330 . S
C512 C514 1.446 . S
N513 Co472 2.151 . S
N513 C512 1.330 . S
N513 C517 1.418 . S
C514 H493 0.929 . S
C514 C512 1.446 . S
C514 C515 1.332 . S
C515 H495 0.931 . S
C515 C514 1.332 . S
C515 C516 1.267 . S
C516 H484 0.929 . S
C516 C515 1.267 . S
C516 C517 1.251 . S
C517 H487 0.929 . S
C517 N513 1.418 . S
C517 C516 1.251 . S
C518 H485 0.930 . S
C518 C520 1.406 . S
C518 C523 1.261 . S
C519 H486 0.930 . S
C519 N521 1.325 1_556 S
C519 C522 1.357 . S
C520 H488 0.928 1_556 S
C520 C518 1.406 . S
C520 N521 1.261 1_556 S
N521 Co472 2.214 . S
N521 C519 1.325 1_554 S
N521 C520 1.261 1_554 S
C522 H492 0.931 . S
C522 C519 1.357 . S
C522 C523 1.312 . S
C523 H494 0.930 . S
C523 C518 1.261 . S
C523 C522 1.312 . S
C524 O496 1.214 . S
C524 O504 1.234 . S
C525 H497 0.929 . S
C525 C528 1.391 . S
C525 C530 1.391 . S
C526 H498 0.929 . S
C526 C527 1.390 . S
C526 N529 1.391 . S
C527 H499 0.930 . S
C527 C526 1.390 . S
C527 C528 1.392 . S
C528 H500 0.929 . S
C528 C525 1.391 . S
C528 C527 1.392 . S
N529 Co473 2.257 . S
N529 C526 1.391 . S
N529 C530 1.388 . S
C530 H501 0.930 . S
C530 C525 1.391 . S
C530 N529 1.388 . S
Co531 O533 2.143 . S
Co531 O539 2.074 . S
Co531 O542 2.093 . S
Co531 O555 2.097 . S
Co531 N572 2.151 . S
Co531 N580 2.214 . S
Co532 O533 2.160 . S
Co532 O538 2.058 . S
Co532 O548 2.057 . S
Co532 O563 2.037 . S
Co532 N567 2.145 . S
Co532 N588 2.257 . S
O533 Co531 2.143 . S
O533 Co532 2.160 . S
C534 O535 1.278 . S
C534 O542 1.224 . S
O535 C534 1.278 . S
C536 O537 1.245 . S
C536 O548 1.232 . S
O537 C536 1.245 . S
O538 Co532 2.058 . S
O538 C564 1.269 . S
O539 Co531 2.074 . S
O539 C564 1.257 . S
H540 C565 0.930 . S
H541 C571 0.930 . S
O542 Co531 2.093 . S
O542 C534 1.224 . S
H543 C575 0.929 . S
H544 C577 0.930 . S
H545 C578 0.930 . S
H546 C576 0.929 . S
H547 C579 0.928 . S
O548 Co532 2.057 . S
O548 C536 1.232 . S
H549 C568 0.929 . S
H550 C569 0.929 . S
H551 C581 0.932 . S
H552 C573 0.929 . S
H553 C582 0.930 1_556 S
H554 C574 0.931 . S
O555 Co531 2.097 . S
O555 C583 1.214 . S
H556 C584 0.929 . S
H557 C585 0.929 . S
H558 C586 0.930 . S
H559 C587 0.929 . S
H560 C589 0.930 . S
H561 C566 0.930 . S
H562 C570 0.930 . S
O563 Co532 2.037 . S
O563 C583 1.234 . S
C564 O538 1.269 . S
C564 O539 1.257 . S
C565 H540 0.930 . S
C565 C568 1.388 . S
C565 C570 1.418 . S
C566 H561 0.930 . S
C566 C569 1.404 . S
C566 C570 1.353 . S
N567 Co532 2.145 . S
N567 C568 1.397 . S
N567 C569 1.334 . S
C568 H549 0.929 . S
C568 C565 1.388 . S
C568 N567 1.397 . S
C569 H550 0.929 . S
C569 C566 1.404 . S
C569 N567 1.334 . S
C570 H562 0.930 . S
C570 C565 1.418 . S
C570 C566 1.353 . S
C571 H541 0.930 . S
C571 N572 1.330 . S
C571 C573 1.446 . S
N572 Co531 2.151 . S
N572 C571 1.330 . S
N572 C576 1.418 . S
C573 H552 0.929 . S
C573 C571 1.446 . S
C573 C574 1.332 . S
C574 H554 0.931 . S
C574 C573 1.332 . S
C574 C575 1.267 . S
C575 H543 0.929 . S
C575 C574 1.267 . S
C575 C576 1.251 . S
C576 H546 0.929 . S
C576 N572 1.418 . S
C576 C575 1.251 . S
C577 H544 0.930 . S
C577 C579 1.406 . S
C577 C582 1.261 . S
C578 H545 0.930 . S
C578 N580 1.325 . S
C578 C581 1.357 . S
C579 H547 0.928 . S
C579 C577 1.406 . S
C579 N580 1.261 . S
N580 Co531 2.214 . S
N580 C578 1.325 . S
N580 C579 1.261 . S
C581 H551 0.932 . S
C581 C578 1.357 . S
C581 C582 1.312 . S
C582 H553 0.930 1_554 S
C582 C577 1.261 . S
C582 C581 1.312 . S
C583 O555 1.214 . S
C583 O563 1.234 . S
C584 H556 0.929 . S
C584 C587 1.391 . S
C584 C589 1.391 . S
C585 H557 0.929 . S
C585 C586 1.390 . S
C585 N588 1.391 . S
C586 H558 0.930 . S
C586 C585 1.390 . S
C586 C587 1.392 . S
C587 H559 0.929 . S
C587 C584 1.391 . S
C587 C586 1.392 . S
N588 Co532 2.257 . S
N588 C585 1.391 . S
N588 C589 1.388 . S
C589 H560 0.930 . S
C589 C584 1.391 . S
C589 N588 1.388 . S
Co590 O592 2.143 . S
Co590 O598 2.074 . S
Co590 O601 2.093 . S
Co590 O614 2.097 . S
Co590 N631 2.151 . S
Co590 N639 2.214 . S
Co591 O592 2.160 . S
Co591 O597 2.058 . S
Co591 O607 2.057 . S
Co591 O622 2.037 . S
Co591 N626 2.145 . S
Co591 N647 2.257 . S
O592 Co590 2.143 . S
O592 Co591 2.160 . S
C593 O594 1.278 . S
C593 O601 1.224 . S
O594 C593 1.278 . S
C595 O596 1.245 . S
C595 O607 1.232 . S
O596 C595 1.245 . S
O597 Co591 2.058 . S
O597 C623 1.269 . S
O598 Co590 2.074 . S
O598 C623 1.257 . S
H599 C624 0.930 . S
H600 C630 0.930 . S
O601 Co590 2.093 . S
O601 C593 1.224 . S
H602 C634 0.929 . S
H603 C636 0.930 . S
H604 C637 0.930 . S
H605 C635 0.929 . S
H606 C638 0.928 . S
O607 Co591 2.057 . S
O607 C595 1.232 . S
H608 C627 0.929 . S
H609 C628 0.929 . S
H610 C640 0.931 . S
H611 C632 0.929 . S
H612 C641 0.930 . S
H613 C633 0.931 . S
O614 Co590 2.097 . S
O614 C642 1.214 . S
H615 C643 0.929 . S
H616 C644 0.929 . S
H617 C645 0.930 . S
H618 C646 0.929 . S
H619 C648 0.930 . S
H620 C625 0.930 . S
H621 C629 0.930 . S
O622 Co591 2.037 . S
O622 C642 1.234 . S
C623 O597 1.269 . S
C623 O598 1.257 . S
C624 H599 0.930 . S
C624 C627 1.388 . S
C624 C629 1.418 . S
C625 H620 0.930 . S
C625 C628 1.404 . S
C625 C629 1.353 . S
N626 Co591 2.145 . S
N626 C627 1.397 . S
N626 C628 1.334 . S
C627 H608 0.929 . S
C627 C624 1.388 . S
C627 N626 1.397 . S
C628 H609 0.929 . S
C628 C625 1.404 . S
C628 N626 1.334 . S
C629 H621 0.930 . S
C629 C624 1.418 . S
C629 C625 1.353 . S
C630 H600 0.930 . S
C630 N631 1.330 . S
C630 C632 1.446 . S
N631 Co590 2.151 . S
N631 C630 1.330 . S
N631 C635 1.418 . S
C632 H611 0.929 . S
C632 C630 1.446 . S
C632 C633 1.332 . S
C633 H613 0.931 . S
C633 C632 1.332 . S
C633 C634 1.267 . S
C634 H602 0.929 . S
C634 C633 1.267 . S
C634 C635 1.251 . S
C635 H605 0.929 . S
C635 N631 1.418 . S
C635 C634 1.251 . S
C636 H603 0.930 . S
C636 C638 1.406 . S
C636 C641 1.261 . S
C637 H604 0.930 . S
C637 N639 1.325 . S
C637 C640 1.357 . S
C638 H606 0.928 . S
C638 C636 1.406 . S
C638 N639 1.261 . S
N639 Co590 2.214 . S
N639 C637 1.325 . S
N639 C638 1.261 . S
C640 H610 0.931 . S
C640 C637 1.357 . S
C640 C641 1.312 . S
C641 H612 0.930 . S
C641 C636 1.261 . S
C641 C640 1.312 . S
C642 O614 1.214 . S
C642 O622 1.234 . S
C643 H615 0.929 . S
C643 C646 1.391 . S
C643 C648 1.391 . S
C644 H616 0.929 . S
C644 C645 1.390 . S
C644 N647 1.391 . S
C645 H617 0.930 . S
C645 C644 1.390 . S
C645 C646 1.392 . S
C646 H618 0.929 . S
C646 C643 1.391 . S
C646 C645 1.392 . S
N647 Co591 2.257 . S
N647 C644 1.391 . S
N647 C648 1.388 . S
C648 H619 0.930 . S
C648 C643 1.391 . S
C648 N647 1.388 . S
Co649 O651 2.143 . S
Co649 O657 2.074 . S
Co649 O660 2.093 . S
Co649 O673 2.097 . S
Co649 N690 2.151 . S
Co649 N698 2.214 . S
Co650 O651 2.160 . S
Co650 O656 2.058 . S
Co650 O666 2.057 . S
Co650 O681 2.037 . S
Co650 N685 2.145 . S
Co650 N706 2.257 . S
O651 Co649 2.143 . S
O651 Co650 2.160 . S
C652 O653 1.278 . S
C652 O660 1.224 . S
O653 C652 1.278 . S
C654 O655 1.245 . S
C654 O666 1.232 . S
O655 C654 1.245 . S
O656 Co650 2.058 . S
O656 C682 1.269 . S
O657 Co649 2.074 . S
O657 C682 1.257 . S
H658 C683 0.930 . S
H659 C689 0.930 . S
O660 Co649 2.093 . S
O660 C652 1.224 . S
H661 C693 0.929 . S
H662 C695 0.930 . S
H663 C696 0.930 . S
H664 C694 0.929 . S
H665 C697 0.928 . S
O666 Co650 2.057 . S
O666 C654 1.232 . S
H667 C686 0.929 . S
H668 C687 0.929 . S
H669 C699 0.931 . S
H670 C691 0.929 . S
H671 C700 0.930 . S
H672 C692 0.931 . S
O673 Co649 2.097 . S
O673 C701 1.214 . S
H674 C702 0.929 . S
H675 C703 0.929 . S
H676 C704 0.930 . S
H677 C705 0.929 . S
H678 C707 0.930 . S
H679 C684 0.930 . S
H680 C688 0.930 . S
O681 Co650 2.037 . S
O681 C701 1.234 . S
C682 O656 1.269 . S
C682 O657 1.257 . S
C683 H658 0.930 . S
C683 C686 1.388 . S
C683 C688 1.418 . S
C684 H679 0.930 . S
C684 C687 1.404 . S
C684 C688 1.353 . S
N685 Co650 2.145 . S
N685 C686 1.397 . S
N685 C687 1.334 . S
C686 H667 0.929 . S
C686 C683 1.388 . S
C686 N685 1.397 . S
C687 H668 0.929 . S
C687 C684 1.404 . S
C687 N685 1.334 . S
C688 H680 0.930 . S
C688 C683 1.418 . S
C688 C684 1.353 . S
C689 H659 0.930 . S
C689 N690 1.330 . S
C689 C691 1.446 . S
N690 Co649 2.151 . S
N690 C689 1.330 . S
N690 C694 1.418 . S
C691 H670 0.929 . S
C691 C689 1.446 . S
C691 C692 1.332 . S
C692 H672 0.931 . S
C692 C691 1.332 . S
C692 C693 1.267 . S
C693 H661 0.929 . S
C693 C692 1.267 . S
C693 C694 1.251 . S
C694 H664 0.929 . S
C694 N690 1.418 . S
C694 C693 1.251 . S
C695 H662 0.930 . S
C695 C697 1.406 . S
C695 C700 1.261 . S
C696 H663 0.930 . S
C696 N698 1.325 . S
C696 C699 1.357 . S
C697 H665 0.928 . S
C697 C695 1.406 . S
C697 N698 1.261 . S
N698 Co649 2.214 . S
N698 C696 1.325 . S
N698 C697 1.261 . S
C699 H669 0.931 . S
C699 C696 1.357 . S
C699 C700 1.312 . S
C700 H671 0.930 . S
C700 C695 1.261 . S
C700 C699 1.312 . S
C701 O673 1.214 . S
C701 O681 1.234 . S
C702 H674 0.929 . S
C702 C705 1.391 . S
C702 C707 1.391 . S
C703 H675 0.929 . S
C703 C704 1.390 . S
C703 N706 1.391 . S
C704 H676 0.930 . S
C704 C703 1.390 . S
C704 C705 1.392 . S
C705 H677 0.929 . S
C705 C702 1.391 . S
C705 C704 1.392 . S
N706 Co650 2.257 . S
N706 C703 1.391 . S
N706 C707 1.388 . S
C707 H678 0.930 . S
C707 C702 1.391 . S
C707 N706 1.388 . S
C52 C642 1.546 . S
C111 C701 1.546 . S
C406 C170 1.546 . S
C229 C465 1.547 . S
C524 C288 1.547 1_554 S
C583 C347 1.546 . S
C475 C3 1.377 . S
C62 C534 1.377 . S
C593 C121 1.377 . S
C180 C652 1.377 . S
C239 C357 1.377 . S
C298 C416 1.377 . S
C595 C5 1.363 . S
C654 C64 1.363 1_556 S
C359 C123 1.363 . S
C182 C418 1.363 . S
C241 C477 1.363 . S
C536 C300 1.363 . S
C33 C446 1.588 1_545 S
C505 C92 1.588 . S
C564 C151 1.588 1_455 S
C210 C623 1.588 1_565 S
C269 C682 1.588 . S
C328 C387 1.588 1_455 S
