# Generated by pormake.
# Topology atn, (4)-cn, num edge types: 1
# Building blocks:
#     Node 0, Type 0, BuildingBlock: UXUYUI_clean_sbu_0, # of connection points: 4
#     Node 1, Type 0, BuildingBlock: UXUYUI_clean_sbu_0, # of connection points: 4
#     Node 2, Type 0, BuildingBlock: UXUYUI_clean_sbu_0, # of connection points: 4
#     Node 3, Type 0, BuildingBlock: UXUYUI_clean_sbu_0, # of connection points: 4
#     Node 4, Type 0, BuildingBlock: UXUYUI_clean_sbu_0, # of connection points: 4
#     Node 5, Type 0, BuildingBlock: UXUYUI_clean_sbu_0, # of connection points: 4
#     Node 6, Type 0, BuildingBlock: UXUYUI_clean_sbu_0, # of connection points: 4
#     Node 7, Type 0, BuildingBlock: UXUYUI_clean_sbu_0, # of connection points: 4
#     Node 8, Type 0, BuildingBlock: UXUYUI_clean_sbu_0, # of connection points: 4
#     Node 9, Type 0, BuildingBlock: UXUYUI_clean_sbu_0, # of connection points: 4
#     Node 10, Type 0, BuildingBlock: UXUYUI_clean_sbu_0, # of connection points: 4
#     Node 11, Type 0, BuildingBlock: UXUYUI_clean_sbu_0, # of connection points: 4
#     Node 12, Type 0, BuildingBlock: UXUYUI_clean_sbu_0, # of connection points: 4
#     Node 13, Type 0, BuildingBlock: UXUYUI_clean_sbu_0, # of connection points: 4
#     Node 14, Type 0, BuildingBlock: UXUYUI_clean_sbu_0, # of connection points: 4
#     Node 15, Type 0, BuildingBlock: UXUYUI_clean_sbu_0, # of connection points: 4
#     Edge 16, Type (0, 0), BuildingBlock: ZUJKAS_clean_linker_0, # of connection points: 2
#     Edge 17, Type (0, 0), BuildingBlock: ZUJKAS_clean_linker_0, # of connection points: 2
#     Edge 18, Type (0, 0), BuildingBlock: ZUJKAS_clean_linker_0, # of connection points: 2
#     Edge 19, Type (0, 0), BuildingBlock: ZUJKAS_clean_linker_0, # of connection points: 2
#     Edge 20, Type (0, 0), BuildingBlock: ZUJKAS_clean_linker_0, # of connection points: 2
#     Edge 21, Type (0, 0), BuildingBlock: ZUJKAS_clean_linker_0, # of connection points: 2
#     Edge 22, Type (0, 0), BuildingBlock: ZUJKAS_clean_linker_0, # of connection points: 2
#     Edge 23, Type (0, 0), BuildingBlock: ZUJKAS_clean_linker_0, # of connection points: 2
#     Edge 24, Type (0, 0), BuildingBlock: ZUJKAS_clean_linker_0, # of connection points: 2
#     Edge 25, Type (0, 0), BuildingBlock: ZUJKAS_clean_linker_0, # of connection points: 2
#     Edge 26, Type (0, 0), BuildingBlock: ZUJKAS_clean_linker_0, # of connection points: 2
#     Edge 27, Type (0, 0), BuildingBlock: ZUJKAS_clean_linker_0, # of connection points: 2
#     Edge 28, Type (0, 0), BuildingBlock: ZUJKAS_clean_linker_0, # of connection points: 2
#     Edge 29, Type (0, 0), BuildingBlock: ZUJKAS_clean_linker_0, # of connection points: 2
#     Edge 30, Type (0, 0), BuildingBlock: ZUJKAS_clean_linker_0, # of connection points: 2
#     Edge 31, Type (0, 0), BuildingBlock: ZUJKAS_clean_linker_0, # of connection points: 2
#     Edge 32, Type (0, 0), BuildingBlock: ZUJKAS_clean_linker_0, # of connection points: 2
#     Edge 33, Type (0, 0), BuildingBlock: ZUJKAS_clean_linker_0, # of connection points: 2
#     Edge 34, Type (0, 0), BuildingBlock: ZUJKAS_clean_linker_0, # of connection points: 2
#     Edge 35, Type (0, 0), BuildingBlock: ZUJKAS_clean_linker_0, # of connection points: 2
#     Edge 36, Type (0, 0), BuildingBlock: ZUJKAS_clean_linker_0, # of connection points: 2
#     Edge 37, Type (0, 0), BuildingBlock: ZUJKAS_clean_linker_0, # of connection points: 2
#     Edge 38, Type (0, 0), BuildingBlock: ZUJKAS_clean_linker_0, # of connection points: 2
#     Edge 39, Type (0, 0), BuildingBlock: ZUJKAS_clean_linker_0, # of connection points: 2
#     Edge 40, Type (0, 0), BuildingBlock: ZUJKAS_clean_linker_0, # of connection points: 2
#     Edge 41, Type (0, 0), BuildingBlock: ZUJKAS_clean_linker_0, # of connection points: 2
#     Edge 42, Type (0, 0), BuildingBlock: ZUJKAS_clean_linker_0, # of connection points: 2
#     Edge 43, Type (0, 0), BuildingBlock: ZUJKAS_clean_linker_0, # of connection points: 2
#     Edge 44, Type (0, 0), BuildingBlock: ZUJKAS_clean_linker_0, # of connection points: 2
#     Edge 45, Type (0, 0), BuildingBlock: ZUJKAS_clean_linker_0, # of connection points: 2
#     Edge 46, Type (0, 0), BuildingBlock: ZUJKAS_clean_linker_0, # of connection points: 2
#     Edge 47, Type (0, 0), BuildingBlock: ZUJKAS_clean_linker_0, # of connection points: 2
# Relax obj value: 0.164
# Max RMSD: 0.140
# Mean RMSD: 0.140
data_MOF--net-atn--node1-UXUYUI_clean_sbu_0--edge1-ZUJKAS_clean_linker_0
_symmetry_space_group_name_H-M    P1
_symmetry_Int_Tables_number       1
_symmetry_cell_setting            triclinic
loop_
_symmetry_equiv_pos_as_xyz
'x, y, z'
_cell_length_a     109.60632
_cell_length_b     109.61507
_cell_length_c     44.93766
_cell_angle_alpha  90.006079
_cell_angle_beta   90.002088
_cell_angle_gamma 90.017572
loop_
_atom_site_label
_atom_site_type_symbol
_atom_site_fract_x
_atom_site_fract_y
_atom_site_fract_z
_atom_type_partial_charge
Li0 Li 0.21033 0.39051 -0.00157 0.0
Li1 Li 0.20203 0.37283 0.02447 0.0
Li2 Li 0.22118 0.37148 0.99691 0.0
Li3 Li 0.20158 0.3733 0.97144 0.0
C4 C 0.22159 0.39023 0.05102 0.0
N5 N 0.22929 0.40872 0.08839 0.0
C6 C 0.21475 0.39326 0.07621 0.0
C7 C 0.23239 0.39655 0.04495 0.0
C8 C 0.21879 0.40264 0.09481 0.0
C9 C 0.23611 0.40589 0.06406 0.0
C10 C 0.18321 0.38748 0.983 0.0
C11 C 0.16362 0.38204 0.9624 0.0
N12 N 0.16342 0.39276 0.94716 0.0
C13 C 0.18279 0.39845 0.9672 0.0
C14 C 0.17353 0.37922 0.9807 0.0
C15 C 0.17271 0.40095 0.94919 0.0
C16 C 0.21788 0.41332 0.97639 0.0
N17 N 0.21197 0.40767 -0.00089 0.0
C18 C 0.20804 0.42674 0.02283 0.0
C19 C 0.2069 0.41408 0.02184 0.0
C20 C 0.21416 0.43281 -0.00025 0.0
C21 C 0.21906 0.42598 0.97621 0.0
H22 H 0.22155 0.40802 0.95823 0.0
H23 H 0.2019 0.40936 0.03907 0.0
C24 C 0.20123 0.36276 0.08153 0.0
N25 N 0.19415 0.36765 0.05979 0.0
C26 C 0.196 0.35887 0.10816 0.0
C27 C 0.17626 0.36508 0.08944 0.0
C28 C 0.1819 0.36892 0.0632 0.0
C29 C 0.18336 0.36003 0.11236 0.0
H30 H 0.21096 0.36191 0.07814 0.0
H31 H 0.17652 0.37296 0.04564 0.0
C32 C 0.22672 0.38144 0.94486 0.0
N33 N 0.247 0.37903 0.90883 0.0
C34 C 0.22611 0.37438 0.91898 0.0
C35 C 0.23761 0.38733 0.9523 0.0
C36 C 0.23647 0.37327 0.90107 0.0
C37 C 0.24777 0.38597 0.93385 0.0
C38 C 0.20483 0.34969 0.013 0.0
C39 C 0.2142 0.34352 0.02776 0.0
C40 C 0.19277 0.34573 0.01629 0.0
C41 C 0.21135 0.33352 0.04571 0.0
C42 C 0.19029 0.33571 0.0345 0.0
N43 N 0.19955 0.32986 0.04871 0.0
C44 C 0.24474 0.36599 0.01851 0.0
C45 C 0.23936 0.35622 0.97328 0.0
C46 C 0.25596 0.35999 0.0189 0.0
N47 N 0.23674 0.364 0.99592 0.0
C48 C 0.25055 0.35018 0.97252 0.0
C49 C 0.25894 0.35195 0.99571 0.0
H50 H 0.24229 0.37201 0.03658 0.0
H51 H 0.23266 0.35453 0.95612 0.0
C52 C 0.1923 0.37711 0.91389 0.0
N53 N 0.19293 0.36891 0.93653 0.0
C54 C 0.1863 0.37409 0.88752 0.0
C55 C 0.18157 0.35433 0.90849 0.0
C56 C 0.18773 0.3577 0.93437 0.0
C57 C 0.18088 0.36254 0.88457 0.0
H58 H 0.19658 0.38595 0.91627 0.0
H59 H 0.18851 0.35132 0.95257 0.0
O60 O 0.21776 0.38113 0.03241 0.0
O61 O 0.19313 0.38473 0.00019 0.0
O62 O 0.21671 0.38255 0.96283 0.0
O63 O 0.2074 0.35967 0.99581 0.0
H64 H 0.20633 0.38855 0.08118 0.0
H65 H 0.2378 0.39432 0.02559 0.0
H66 H 0.21356 0.40513 0.1143 0.0
H67 H 0.24441 0.41089 0.05955 0.0
H68 H 0.15612 0.37569 0.96021 0.0
H69 H 0.19022 0.40493 0.96859 0.0
H70 H 0.17378 0.37061 0.99246 0.0
H71 H 0.17229 0.40939 0.93674 0.0
H72 H 0.20395 0.43176 0.04105 0.0
H73 H 0.2238 0.43039 0.95799 0.0
H74 H 0.20177 0.3549 0.12517 0.0
H75 H 0.1665 0.36624 0.09198 0.0
H76 H 0.21778 0.36971 0.91294 0.0
H77 H 0.23823 0.39282 0.97223 0.0
H78 H 0.23616 0.3678 0.88105 0.0
H79 H 0.25628 0.39043 0.93943 0.0
H80 H 0.22357 0.34647 0.0256 0.0
H81 H 0.18538 0.3505 0.00539 0.0
H82 H 0.21851 0.32868 0.05735 0.0
H83 H 0.181 0.33262 0.03746 0.0
H84 H 0.2622 0.36153 0.03723 0.0
H85 H 0.25243 0.34384 0.9546 0.0
H86 H 0.1859 0.38071 0.86964 0.0
H87 H 0.17768 0.34527 0.90692 0.0
Li88 Li 0.60398 0.2102 0.99769 0.0
Li89 Li 0.62122 0.20135 0.02408 0.0
Li90 Li 0.62298 0.22077 0.99791 0.0
Li91 Li 0.62116 0.20159 0.97076 0.0
C92 C 0.61476 0.22641 0.05087 0.0
N93 N 0.62024 0.24625 0.08641 0.0
C94 C 0.62249 0.22505 0.07539 0.0
C95 C 0.60976 0.23786 0.04454 0.0
C96 C 0.62515 0.23519 0.09307 0.0
C97 C 0.61267 0.24778 0.06272 0.0
C98 C 0.60685 0.18275 0.01238 0.0
C99 C 0.61256 0.16302 0.03163 0.0
N100 N 0.60164 0.16227 0.0459 0.0
C101 C 0.59568 0.18178 0.02718 0.0
C102 C 0.61535 0.17329 0.01451 0.0
C103 C 0.59322 0.17135 0.04402 0.0
C104 C 0.58039 0.20495 0.97779 0.0
N105 N 0.58685 0.21193 0.99717 0.0
C106 C 0.56868 0.22167 0.01418 0.0
C107 C 0.5813 0.22011 0.0154 0.0
C108 C 0.56176 0.21469 0.99412 0.0
C109 C 0.56777 0.20622 0.9758 0.0
H110 H 0.58509 0.19848 0.9637 0.0
H111 H 0.58666 0.22541 0.03085 0.0
C112 C 0.63814 0.19014 0.06248 0.0
N113 N 0.62615 0.19284 0.05878 0.0
C114 C 0.64213 0.18449 0.08852 0.0
C115 C 0.62131 0.18439 0.10631 0.0
C116 C 0.61775 0.19018 0.08006 0.0
C117 C 0.63368 0.18156 0.11096 0.0
H118 H 0.64466 0.19264 0.04551 0.0
H119 H 0.60831 0.19268 0.07675 0.0
C120 C 0.60333 0.22081 0.94559 0.0
N121 N 0.58336 0.22736 0.91161 0.0
C122 C 0.59969 0.21352 0.92165 0.0
C123 C 0.59685 0.23146 0.95215 0.0
C124 C 0.58957 0.21699 0.90474 0.0
C125 C 0.58676 0.2346 0.93476 0.0
C126 C 0.64444 0.20384 0.98152 0.0
C127 C 0.65048 0.21278 0.96493 0.0
C128 C 0.64839 0.19173 0.98015 0.0
C129 C 0.66036 0.20943 0.94705 0.0
C130 C 0.65828 0.18874 0.96195 0.0
N131 N 0.66401 0.19758 0.94592 0.0
C132 C 0.6401 0.2376 0.01855 0.0
C133 C 0.62783 0.24502 0.97902 0.0
C134 C 0.6465 0.24857 0.01971 0.0
N135 N 0.63095 0.23608 -0.00147 0.0
C136 C 0.63406 0.25613 0.97925 0.0
C137 C 0.64355 0.25798 -0.00023 0.0
H138 H 0.64251 0.23022 0.03339 0.0
H139 H 0.62064 0.24347 0.96304 0.0
C140 C 0.62421 0.18119 0.93255 0.0
N141 N 0.62596 0.19339 0.93555 0.0
C142 C 0.62783 0.17525 0.90652 0.0
C143 C 0.63482 0.19462 0.88714 0.0
C144 C 0.63105 0.20016 0.9135 0.0
C145 C 0.63323 0.18199 0.8834 0.0
H146 H 0.61996 0.17607 0.95027 0.0
H147 H 0.63222 0.20989 0.91649 0.0
O148 O 0.6122 0.21664 0.03296 0.0
O149 O 0.60949 0.19295 0.99605 0.0
O150 O 0.61305 0.21743 0.9628 0.0
O151 O 0.63458 0.20689 -0.00139 0.0
H152 H 0.62648 0.21629 0.08059 0.0
H153 H 0.60387 0.23912 0.02547 0.0
H154 H 0.63116 0.23427 0.11204 0.0
H155 H 0.60895 0.2567 0.05793 0.0
H156 H 0.61909 0.15567 0.03364 0.0
H157 H 0.58902 0.18903 0.02593 0.0
H158 H 0.62409 0.17394 0.00344 0.0
H159 H 0.58463 0.17049 0.05568 0.0
H160 H 0.56438 0.22816 0.02903 0.0
H161 H 0.56279 0.20074 0.95984 0.0
H162 H 0.65178 0.18276 0.09134 0.0
H163 H 0.61444 0.18221 0.12279 0.0
H164 H 0.60453 0.2052 0.91637 0.0
H165 H 0.59946 0.23714 0.97079 0.0
H166 H 0.58662 0.21141 0.88623 0.0
H167 H 0.58161 0.24276 0.93974 0.0
H168 H 0.6475 0.22218 0.96556 0.0
H169 H 0.64377 0.18469 0.99269 0.0
H170 H 0.66508 0.21623 0.93398 0.0
H171 H 0.66139 0.17939 0.96051 0.0
H172 H 0.65392 0.24954 0.03546 0.0
H173 H 0.63151 0.26317 0.96353 0.0
H174 H 0.62628 0.16554 0.90438 0.0
H175 H 0.63907 0.20014 0.87006 0.0
Li176 Li 0.7919 0.62154 0.02491 0.0
Li177 Li 0.7829 0.60491 0.99687 0.0
Li178 Li 0.79262 0.62197 0.97171 0.0
Li179 Li 0.77307 0.62429 0.99687 0.0
C180 C 0.81002 0.60673 0.01492 0.0
N181 N 0.82934 0.60087 0.05172 0.0
C182 C 0.80984 0.59589 0.03131 0.0
C183 C 0.82005 0.61456 0.01714 0.0
C184 C 0.8197 0.59309 0.04979 0.0
C185 C 0.82972 0.61144 0.03592 0.0
C186 C 0.76609 0.616 0.04851 0.0
C187 C 0.74447 0.61458 0.05799 0.0
N188 N 0.74578 0.62223 0.08161 0.0
C189 C 0.76722 0.62384 0.07291 0.0
C190 C 0.75464 0.61131 0.04101 0.0
C191 C 0.75684 0.62687 0.08937 0.0
C192 C 0.80525 0.63668 0.06418 0.0
N193 N 0.8001 0.6255 0.06072 0.0
C194 C 0.80594 0.61972 0.10991 0.0
C195 C 0.80032 0.61705 0.08283 0.0
C196 C 0.81132 0.63121 0.11421 0.0
C197 C 0.81099 0.63973 0.09086 0.0
H198 H 0.80474 0.64329 0.04642 0.0
H199 H 0.79601 0.60828 0.07948 0.0
C200 C 0.78798 0.58115 0.97764 0.0
N201 N 0.78069 0.58783 0.99586 0.0
C202 C 0.78672 0.56851 0.97638 0.0
C203 C 0.7705 0.56989 0.01275 0.0
C204 C 0.7721 0.5825 0.01336 0.0
C205 C 0.7779 0.56273 0.99415 0.0
H206 H 0.7948 0.58567 0.96417 0.0
H207 H 0.76659 0.58803 0.02799 0.0
C208 C 0.79109 0.64538 0.98402 0.0
N209 N 0.79869 0.66533 0.9513 0.0
C210 C 0.78258 0.6525 0.96871 0.0
C211 C 0.80346 0.64844 0.98281 0.0
C212 C 0.78661 0.66255 0.9523 0.0
C213 C 0.80713 0.65854 0.96608 0.0
C214 C 0.77359 0.60491 0.94353 0.0
C215 C 0.78134 0.60144 0.92031 0.0
C216 C 0.76279 0.59843 0.94848 0.0
C217 C 0.77816 0.59149 0.90248 0.0
C218 C 0.75996 0.58851 0.9302 0.0
N219 N 0.76764 0.58528 0.90778 0.0
C220 C 0.81353 0.62373 0.93442 0.0
C221 C 0.7956 0.63345 0.91677 0.0
C222 C 0.82003 0.62763 0.90943 0.0
N223 N 0.8016 0.62681 0.93769 0.0
C224 C 0.80176 0.63768 0.89171 0.0
C225 C 0.81414 0.63481 0.8879 0.0
H226 H 0.818 0.61828 0.95121 0.0
H227 H 0.78603 0.63552 0.91974 0.0
C228 C 0.75635 0.64199 0.01567 0.0
N229 N 0.75797 0.63266 0.99619 0.0
C230 C 0.74543 0.64849 0.0159 0.0
C231 C 0.73809 0.6357 0.97584 0.0
C232 C 0.74917 0.62943 0.97643 0.0
C233 C 0.73614 0.6454 0.99571 0.0
H234 H 0.76361 0.64444 0.03083 0.0
H235 H 0.75077 0.62205 0.961 0.0
O236 O 0.80035 0.60976 0.99719 0.0
O237 O 0.77611 0.61311 0.03176 0.0
O238 O 0.78735 0.63537 -0.0002 0.0
O239 O 0.77666 0.61446 0.96163 0.0
H240 H 0.80212 0.58977 0.03006 0.0
H241 H 0.82029 0.62303 0.00481 0.0
H242 H 0.81966 0.58477 0.06271 0.0
H243 H 0.8375 0.61746 0.03801 0.0
H244 H 0.73554 0.6111 0.05228 0.0
H245 H 0.77597 0.62766 0.07891 0.0
H246 H 0.75355 0.60539 0.02193 0.0
H247 H 0.75757 0.63296 0.10823 0.0
H248 H 0.80607 0.61287 0.12727 0.0
H249 H 0.81484 0.64877 0.09345 0.0
H250 H 0.79254 0.56332 0.96158 0.0
H251 H 0.76374 0.56576 0.02715 0.0
H252 H 0.77298 0.65024 0.96919 0.0
H253 H 0.8102 0.64295 0.99422 0.0
H254 H 0.78012 0.66811 0.94023 0.0
H255 H 0.81668 0.66095 0.96475 0.0
H256 H 0.78976 0.6063 0.91626 0.0
H257 H 0.75677 0.60088 0.96659 0.0
H258 H 0.78409 0.58868 0.88451 0.0
H259 H 0.75169 0.58335 0.93393 0.0
H260 H 0.82957 0.62524 0.90717 0.0
H261 H 0.79687 0.64302 0.87531 0.0
H262 H 0.7444 0.65606 0.0312 0.0
H263 H 0.73115 0.633 0.96002 0.0
Li264 Li 0.3727 0.79127 0.0297 0.0
Li265 Li 0.38989 0.78306 0.00197 0.0
Li266 Li 0.37194 0.79173 0.97479 0.0
Li267 Li 0.37116 0.77198 5e-05 0.0
C268 C 0.38475 0.81242 0.00568 0.0
N269 N 0.387 0.83737 0.01301 0.0
C270 C 0.39545 0.81738 0.01755 0.0
C271 C 0.3753 0.8202 0.99697 0.0
C272 C 0.39638 0.83 0.02126 0.0
C273 C 0.37658 0.83277 0.001 0.0
C274 C 0.39037 0.77136 0.05354 0.0
C275 C 0.40682 0.7573 0.0633 0.0
N276 N 0.40959 0.76358 0.08853 0.0
C277 C 0.39331 0.77761 0.07968 0.0
C278 C 0.39711 0.76106 0.04539 0.0
C279 C 0.40308 0.77355 0.09703 0.0
C280 C 0.35718 0.79486 0.07805 0.0
N281 N 0.36765 0.79899 0.0654 0.0
C282 C 0.37064 0.81314 0.10517 0.0
C283 C 0.37444 0.80789 0.07843 0.0
C284 C 0.35981 0.8091 0.1187 0.0
C285 C 0.35303 0.79985 0.10474 0.0
H286 H 0.35206 0.78764 0.06739 0.0
H287 H 0.38293 0.81074 0.06848 0.0
C288 C 0.41266 0.77523 0.98002 0.0
N289 N 0.40708 0.78163 0.00204 0.0
C290 C 0.42528 0.77365 0.98035 0.0
C291 C 0.42618 0.78546 0.02577 0.0
C292 C 0.41354 0.78681 0.02454 0.0
C293 C 0.4322 0.77877 0.00352 0.0
H294 H 0.4073 0.77128 0.96229 0.0
H295 H 0.40886 0.79187 0.04172 0.0
C296 C 0.348 0.79079 0.00167 0.0
N297 N 0.325 0.80111 -0.0005 0.0
C298 C 0.33802 0.78392 0.99192 0.0
C299 C 0.34621 0.80284 0.01083 0.0
C300 C 0.32648 0.78932 0.99082 0.0
C301 C 0.33454 0.80791 0.00945 0.0
C302 C 0.38036 0.76719 0.94685 0.0
C303 C 0.37328 0.76835 0.92113 0.0
C304 C 0.38599 0.75605 0.9532 0.0
C305 C 0.37182 0.75828 0.9024 0.0
C306 C 0.38428 0.74619 0.93395 0.0
N307 N 0.37728 0.7475 0.90917 0.0
C308 C 0.37514 0.80783 0.92682 0.0
C309 C 0.3555 0.79883 0.92934 0.0
C310 C 0.372 0.81397 0.90069 0.0
N311 N 0.3669 0.80047 0.94054 0.0
C312 C 0.35197 0.8048 0.90336 0.0
C313 C 0.36029 0.81242 0.88853 0.0
H314 H 0.38421 0.8088 0.93601 0.0
H315 H 0.34923 0.79268 0.94015 0.0
C316 C 0.36675 0.74765 0.0185 0.0
N317 N 0.36386 0.75634 0.99813 0.0
C318 C 0.36141 0.7361 0.01684 0.0
C319 C 0.35027 0.74273 0.97329 0.0
C320 C 0.35578 0.75413 0.97586 0.0
C321 C 0.35304 0.73354 0.994 0.0
H322 H 0.37314 0.74969 0.0361 0.0
H323 H 0.35362 0.76125 0.96007 0.0
O324 O 0.38375 0.80007 0.00175 0.0
O325 O 0.38096 0.77532 0.03602 0.0
O326 O 0.35936 0.7856 0.0029 0.0
O327 O 0.38174 0.77689 0.96571 0.0
H328 H 0.40295 0.81155 0.02399 0.0
H329 H 0.36712 0.81663 0.9868 0.0
H330 H 0.40457 0.83393 0.03065 0.0
H331 H 0.36931 0.83888 0.99441 0.0
H332 H 0.41217 0.74941 0.05712 0.0
H333 H 0.38817 0.78556 0.08641 0.0
H334 H 0.39494 0.7561 0.02528 0.0
H335 H 0.4055 0.77834 0.11723 0.0
H336 H 0.37626 0.82008 0.11547 0.0
H337 H 0.34458 0.79653 0.11424 0.0
H338 H 0.42955 0.76835 0.96289 0.0
H339 H 0.43118 0.78972 0.04378 0.0
H340 H 0.33916 0.77453 0.98514 0.0
H341 H 0.3537 0.80818 0.01942 0.0
H342 H 0.3187 0.78412 0.98311 0.0
H343 H 0.33305 0.81724 0.01646 0.0
H344 H 0.36891 0.77691 0.91574 0.0
H345 H 0.39151 0.75498 0.97296 0.0
H346 H 0.36631 0.75904 0.8825 0.0
H347 H 0.38851 0.73749 0.93874 0.0
H348 H 0.37877 0.8196 0.88977 0.0
H349 H 0.34281 0.80342 0.89495 0.0
H350 H 0.36383 0.72925 0.03318 0.0
H351 H 0.34369 0.74123 0.95567 0.0
Li352 Li 0.20409 0.62342 0.02326 0.0
Li353 Li 0.2231 0.62472 0.99523 0.0
Li354 Li 0.20343 0.62365 0.97004 0.0
Li355 Li 0.21189 0.60606 0.99557 0.0
C356 C 0.20716 0.64673 0.01287 0.0
N357 N 0.20219 0.66647 0.04914 0.0
C358 C 0.21665 0.65278 0.02751 0.0
C359 C 0.19515 0.65076 0.01654 0.0
C360 C 0.21395 0.66274 0.04576 0.0
C361 C 0.19283 0.66073 0.03504 0.0
C362 C 0.22263 0.60475 0.04708 0.0
C363 C 0.23573 0.58759 0.05744 0.0
N364 N 0.22819 0.58421 0.08004 0.0
C365 C 0.21503 0.60113 0.07044 0.0
C366 C 0.23309 0.59796 0.04056 0.0
C367 C 0.218 0.59072 0.08685 0.0
C368 C 0.18434 0.62628 0.0637 0.0
N369 N 0.19643 0.6283 0.05912 0.0
C370 C 0.19838 0.63773 0.10674 0.0
C371 C 0.20351 0.63375 0.08008 0.0
C372 C 0.18588 0.63591 0.11201 0.0
C373 C 0.17884 0.63003 0.09019 0.0
H374 H 0.17898 0.62175 0.04681 0.0
H375 H 0.21315 0.63502 0.07599 0.0
C376 C 0.24064 0.64088 0.97331 0.0
N377 N 0.23873 0.63203 0.99394 0.0
C378 C 0.252 0.64651 0.97109 0.0
C379 C 0.2591 0.63408 0.01207 0.0
C380 C 0.24762 0.62859 0.01328 0.0
C381 C 0.26139 0.64313 0.99068 0.0
H382 H 0.2333 0.64358 0.95864 0.0
H383 H 0.24577 0.62166 0.02975 0.0
C384 C 0.1846 0.61005 0.98161 0.0
N385 N 0.16412 0.60613 0.94706 0.0
C386 C 0.18363 0.59949 0.96435 0.0
C387 C 0.17514 0.6186 0.98138 0.0
C388 C 0.1732 0.59767 0.94704 0.0
C389 C 0.16488 0.61646 0.96371 0.0
C390 C 0.22813 0.61631 0.94199 0.0
C391 C 0.22694 0.62402 0.91738 0.0
C392 C 0.23943 0.61093 0.94811 0.0
C393 C 0.23708 0.62624 0.89933 0.0
C394 C 0.24935 0.6134 0.92957 0.0
N395 N 0.24799 0.62093 0.90576 0.0
C396 C 0.19014 0.64021 0.93416 0.0
C397 C 0.19336 0.62065 0.91306 0.0
C398 C 0.184 0.64405 0.90864 0.0
N399 N 0.19466 0.6287 0.93584 0.0
C400 C 0.18731 0.62411 0.8871 0.0
C401 C 0.18259 0.63598 0.88457 0.0
H402 H 0.19141 0.64645 0.9525 0.0
H403 H 0.19721 0.6116 0.91494 0.0
C404 C 0.20509 0.58261 0.01349 0.0
N405 N 0.21291 0.58885 0.99564 0.0
C406 C 0.20556 0.56992 0.01469 0.0
C407 C 0.22214 0.57034 0.97914 0.0
C408 C 0.22128 0.58303 0.97846 0.0
C409 C 0.21419 0.56365 0.9974 0.0
H410 H 0.19852 0.58753 0.02682 0.0
H411 H 0.22726 0.58822 0.9642 0.0
O412 O 0.20959 0.6368 0.99537 0.0
O413 O 0.21971 0.61474 0.03027 0.0
O414 O 0.19486 0.61213 0.99821 0.0
O415 O 0.21835 0.61418 0.96021 0.0
H416 H 0.22599 0.64976 0.02509 0.0
H417 H 0.18768 0.6461 0.00567 0.0
H418 H 0.22119 0.66748 0.05733 0.0
H419 H 0.18357 0.66388 0.03828 0.0
H420 H 0.24374 0.58219 0.05249 0.0
H421 H 0.20685 0.60621 0.07566 0.0
H422 H 0.239 0.60055 0.02234 0.0
H423 H 0.21218 0.58778 0.1049 0.0
H424 H 0.20416 0.64206 0.12322 0.0
H425 H 0.16917 0.62849 0.0934 0.0
H426 H 0.25334 0.65363 0.9547 0.0
H427 H 0.26612 0.63126 0.02758 0.0
H428 H 0.19091 0.59283 0.96402 0.0
H429 H 0.17581 0.6269 0.99432 0.0
H430 H 0.17235 0.58956 0.93348 0.0
H431 H 0.15752 0.62304 0.96315 0.0
H432 H 0.21833 0.62837 0.91241 0.0
H433 H 0.24059 0.60512 0.96734 0.0
H434 H 0.2363 0.63222 0.88028 0.0
H435 H 0.25816 0.60937 0.9342 0.0
H436 H 0.1804 0.65325 0.90777 0.0
H437 H 0.18661 0.61765 0.86894 0.0
H438 H 0.19933 0.56507 0.02919 0.0
H439 H 0.2288 0.5658 0.9652 0.0
Li440 Li 0.36987 0.22103 0.00092 0.0
Li441 Li 0.37292 0.20155 0.02586 0.0
Li442 Li 0.3893 0.21132 -0.00168 0.0
Li443 Li 0.37206 0.20215 0.9727 0.0
C444 C 0.37888 0.22681 0.0529 0.0
N445 N 0.37341 0.24642 0.08919 0.0
C446 C 0.37142 0.22522 0.07783 0.0
C447 C 0.3836 0.23837 0.04651 0.0
C448 C 0.36876 0.23525 0.0959 0.0
C449 C 0.38071 0.24817 0.06508 0.0
C450 C 0.34881 0.20343 0.98576 0.0
C451 C 0.33558 0.18804 0.96494 0.0
N452 N 0.32878 0.19693 0.9519 0.0
C453 C 0.34167 0.21242 0.9722 0.0
C454 C 0.34572 0.19114 0.9822 0.0
C455 C 0.33158 0.20895 0.95518 0.0
C456 C 0.3639 0.24503 0.98287 0.0
N457 N 0.36141 0.23605 0.00278 0.0
C458 C 0.34575 0.24806 0.02517 0.0
C459 C 0.35255 0.23734 0.02368 0.0
C460 C 0.34799 0.25748 0.00465 0.0
C461 C 0.35728 0.2559 0.98344 0.0
H462 H 0.37084 0.24366 0.96615 0.0
H463 H 0.35067 0.22995 0.03894 0.0
C464 C 0.37758 0.1919 0.08273 0.0
N465 N 0.36922 0.19236 0.06041 0.0
C466 C 0.37504 0.18541 0.10873 0.0
C467 C 0.35541 0.17993 0.08807 0.0
C468 C 0.3583 0.18658 0.06258 0.0
C469 C 0.36381 0.17936 0.11162 0.0
H470 H 0.38617 0.19666 0.08039 0.0
H471 H 0.35176 0.18725 0.04469 0.0
C472 C 0.38863 0.22217 0.94654 0.0
N473 N 0.4077 0.22958 0.9106 0.0
C474 C 0.39197 0.21519 0.92181 0.0
C475 C 0.39493 0.23295 0.95289 0.0
C476 C 0.40164 0.2191 0.90392 0.0
C477 C 0.40457 0.23652 0.9345 0.0
C478 C 0.3878 0.18391 0.01286 0.0
C479 C 0.39872 0.18396 0.02893 0.0
C480 C 0.38015 0.17372 0.01419 0.0
C481 C 0.40179 0.17381 0.04617 0.0
C482 C 0.38352 0.16376 0.03175 0.0
N483 N 0.39418 0.16401 0.04724 0.0
C484 C 0.41214 0.22155 0.01439 0.0
C485 C 0.41253 0.20678 0.97583 0.0
C486 C 0.42475 0.22307 0.0124 0.0
N487 N 0.40635 0.21355 0.99613 0.0
C488 C 0.42513 0.20802 0.97301 0.0
C489 C 0.4314 0.21623 0.99153 0.0
H490 H 0.40699 0.22666 0.03065 0.0
H491 H 0.40765 0.20042 0.9618 0.0
C492 C 0.36052 0.20035 0.91734 0.0
N493 N 0.36713 0.19397 0.93762 0.0
C494 C 0.35636 0.19467 0.89152 0.0
C495 C 0.36631 0.17608 0.9074 0.0
C496 C 0.37019 0.1821 0.93307 0.0
C497 C 0.35921 0.18237 0.88638 0.0
H498 H 0.35843 0.20985 0.92137 0.0
H499 H 0.37561 0.17732 0.94939 0.0
O500 O 0.38143 0.21715 0.03465 0.0
O501 O 0.35885 0.20663 0.0021 0.0
O502 O 0.37936 0.21837 0.9647 0.0
O503 O 0.3845 0.19387 0.99642 0.0
H504 H 0.36759 0.21638 0.083 0.0
H505 H 0.38927 0.2398 0.02712 0.0
H506 H 0.36296 0.23416 0.11518 0.0
H507 H 0.38423 0.25718 0.06027 0.0
H508 H 0.33315 0.17856 0.96178 0.0
H509 H 0.34395 0.22197 0.9745 0.0
H510 H 0.35123 0.18404 0.99213 0.0
H511 H 0.32601 0.21581 0.94446 0.0
H512 H 0.33877 0.24893 0.04207 0.0
H513 H 0.35917 0.26282 0.96688 0.0
H514 H 0.38178 0.18513 0.12634 0.0
H515 H 0.34657 0.17555 0.08965 0.0
H516 H 0.38725 0.20679 0.91663 0.0
H517 H 0.39254 0.2384 0.9721 0.0
H518 H 0.40437 0.21376 0.88478 0.0
H519 H 0.40959 0.24478 0.9393 0.0
H520 H 0.40471 0.1918 0.02838 0.0
H521 H 0.37159 0.17358 0.0022 0.0
H522 H 0.41018 0.17374 0.05881 0.0
H523 H 0.37764 0.15585 0.03317 0.0
H524 H 0.42926 0.22934 0.02743 0.0
H525 H 0.42988 0.20266 0.95643 0.0
H526 H 0.35108 0.19989 0.87559 0.0
H527 H 0.36867 0.16657 0.90423 0.0
Li528 Li 0.79274 0.373 0.02582 0.0
Li529 Li 0.77306 0.37034 0.00114 0.0
Li530 Li 0.79258 0.3727 0.97245 0.0
Li531 Li 0.78341 0.39023 0.99703 0.0
C532 C 0.79137 0.34914 0.01396 0.0
N533 N 0.79933 0.32877 0.04456 0.0
C534 C 0.78297 0.34147 0.02803 0.0
C535 C 0.80381 0.34634 0.0151 0.0
C536 C 0.78718 0.33124 0.04346 0.0
C537 C 0.80765 0.33604 0.0308 0.0
C538 C 0.76794 0.38561 0.05154 0.0
C539 C 0.7497 0.39746 0.05986 0.0
N540 N 0.74914 0.39318 0.08822 0.0
C541 C 0.76728 0.38148 0.08095 0.0
C542 C 0.75916 0.39379 0.04105 0.0
C543 C 0.75767 0.38535 0.09906 0.0
C544 C 0.81293 0.37273 0.06571 0.0
N545 N 0.8014 0.36861 0.06073 0.0
C546 C 0.80171 0.35715 0.10585 0.0
C547 C 0.7957 0.36108 0.0803 0.0
C548 C 0.81367 0.36111 0.11149 0.0
C549 C 0.81927 0.3691 0.0912 0.0
H550 H 0.81721 0.37878 0.04983 0.0
H551 H 0.7865 0.35805 0.0759 0.0
C552 C 0.75263 0.35858 0.97682 0.0
N553 N 0.75785 0.36216 0.00282 0.0
C554 C 0.74168 0.35208 0.97703 0.0
C555 C 0.74179 0.35295 0.0308 0.0
C556 C 0.7527 0.35947 0.02953 0.0
C557 C 0.73619 0.34911 0.00431 0.0
H558 H 0.75708 0.36061 0.95592 0.0
H559 H 0.75723 0.36208 0.04988 0.0
C560 C 0.81114 0.38751 0.98333 0.0
N561 N 0.83196 0.39263 0.95096 0.0
C562 C 0.81206 0.39842 0.9674 0.0
C563 C 0.82088 0.37928 0.98313 0.0
C564 C 0.82264 0.40083 0.9511 0.0
C565 C 0.8313 0.38201 0.96652 0.0
C566 C 0.76774 0.38551 0.94702 0.0
C567 C 0.77041 0.38829 0.91735 0.0
C568 C 0.75612 0.38802 0.95823 0.0
C569 C 0.7615 0.39381 0.89965 0.0
C570 C 0.74745 0.39353 0.93983 0.0
N571 N 0.75031 0.39632 0.91118 0.0
C572 C 0.80404 0.35591 0.93383 0.0
C573 C 0.80333 0.37627 0.91615 0.0
C574 C 0.80971 0.35207 0.90766 0.0
N575 N 0.80095 0.36782 0.93749 0.0
C576 C 0.80895 0.37284 0.8896 0.0
C577 C 0.81212 0.36057 0.88502 0.0
H578 H 0.80188 0.34935 0.95097 0.0
H579 H 0.80073 0.38567 0.91962 0.0
C580 C 0.7811 0.41361 0.02148 0.0
N581 N 0.78109 0.40731 0.99545 0.0
C582 C 0.77931 0.42621 0.02148 0.0
C583 C 0.77784 0.42561 0.9678 0.0
C584 C 0.77966 0.41303 0.96886 0.0
C585 C 0.77762 0.43235 0.99437 0.0
H586 H 0.78251 0.40883 0.04226 0.0
H587 H 0.78007 0.40788 0.94844 0.0
O588 O 0.78744 0.35931 -0.00085 0.0
O589 O 0.77734 0.38192 0.03356 0.0
O590 O 0.80078 0.38492 -0.0009 0.0
O591 O 0.77639 0.38008 0.96462 0.0
H592 H 0.77331 0.34343 0.02719 0.0
H593 H 0.81042 0.35213 0.0042 0.0
H594 H 0.78078 0.32527 0.0546 0.0
H595 H 0.81726 0.33383 0.03207 0.0
H596 H 0.74285 0.40378 0.05195 0.0
H597 H 0.77408 0.37532 0.0897 0.0
H598 H 0.75973 0.39746 0.01882 0.0
H599 H 0.75701 0.38214 0.12177 0.0
H600 H 0.797 0.35115 0.12118 0.0
H601 H 0.82849 0.37232 0.09475 0.0
H602 H 0.73779 0.34908 0.95613 0.0
H603 H 0.73785 0.35083 0.05229 0.0
H604 H 0.80465 0.40493 0.96745 0.0
H605 H 0.82036 0.37085 0.99552 0.0
H606 H 0.82345 0.4092 0.93853 0.0
H607 H 0.83887 0.37568 0.96599 0.0
H608 H 0.77926 0.38625 0.90806 0.0
H609 H 0.7537 0.38554 0.9807 0.0
H610 H 0.76349 0.39609 0.87674 0.0
H611 H 0.73843 0.39553 0.94829 0.0
H612 H 0.81186 0.3425 0.90483 0.0
H613 H 0.81075 0.37969 0.87281 0.0
H614 H 0.77945 0.43109 0.04242 0.0
H615 H 0.77656 0.42999 0.94642 0.0
Li616 Li 0.62129 0.79431 0.02506 0.0
Li617 Li 0.62424 0.77511 -0.00141 0.0
Li618 Li 0.62125 0.7942 0.97185 0.0
Li619 Li 0.6046 0.7845 -0.00138 0.0
C620 C 0.64478 0.79331 0.014 0.0
N621 N 0.66428 0.80071 0.04855 0.0
C622 C 0.65189 0.78468 0.02894 0.0
C623 C 0.64763 0.8057 0.0165 0.0
C624 C 0.66171 0.78861 0.0463 0.0
C625 C 0.6575 0.80926 0.03414 0.0
C626 C 0.6047 0.7743 0.05138 0.0
C627 C 0.58879 0.75986 0.06305 0.0
N628 N 0.58532 0.76696 0.08638 0.0
C629 C 0.601 0.78143 0.07553 0.0
C630 C 0.5986 0.76339 0.04515 0.0
C631 C 0.59118 0.77757 0.09295 0.0
C632 C 0.62194 0.81484 0.06341 0.0
N633 N 0.62552 0.80307 0.05987 0.0
C634 C 0.63554 0.80323 0.107 0.0
C635 C 0.63205 0.79716 0.08112 0.0
C636 C 0.63206 0.81545 0.11131 0.0
C637 C 0.62512 0.82125 0.08912 0.0
H638 H 0.61655 0.81923 0.04636 0.0
H639 H 0.63461 0.78773 0.07782 0.0
C640 C 0.64211 0.75904 0.97807 0.0
N641 N 0.63291 0.76019 0.9981 0.0
C642 C 0.64866 0.74817 0.97617 0.0
C643 C 0.63633 0.74 0.01613 0.0
C644 C 0.62996 0.75101 0.01711 0.0
C645 C 0.64578 0.73848 0.99536 0.0
H646 H 0.64436 0.76659 0.96358 0.0
H647 H 0.62268 0.75225 0.03303 0.0
C648 C 0.60588 0.81174 0.98204 0.0
N649 N 0.59974 0.83109 0.94562 0.0
C650 C 0.59515 0.81136 0.96527 0.0
C651 C 0.61346 0.82198 0.9804 0.0
C652 C 0.5922 0.82124 0.94698 0.0
C653 C 0.61021 0.83165 0.9618 0.0
C654 C 0.61608 0.76852 0.94626 0.0
C655 C 0.62395 0.7699 0.92199 0.0
C656 C 0.61138 0.75698 0.95301 0.0
C657 C 0.62702 0.75969 0.90495 0.0
C658 C 0.6147 0.747 0.93547 0.0
N659 N 0.62238 0.74855 0.91201 0.0
C660 C 0.63663 0.80802 0.93441 0.0
C661 C 0.61732 0.80306 0.91389 0.0
C662 C 0.6401 0.81376 0.90806 0.0
N663 N 0.62543 0.8028 0.93675 0.0
C664 C 0.62041 0.8087 0.88709 0.0
C665 C 0.632 0.81402 0.88382 0.0
H666 H 0.64294 0.80754 0.9528 0.0
H667 H 0.60855 0.79865 0.9163 0.0
C668 C 0.58085 0.78831 0.01908 0.0
N669 N 0.58758 0.78186 -0.00081 0.0
C670 C 0.56829 0.78652 0.02089 0.0
C671 C 0.56981 0.77174 0.98107 0.0
C672 C 0.58236 0.77377 0.98016 0.0
C673 C 0.56263 0.77813 0.00174 0.0
H674 H 0.58527 0.79484 0.03357 0.0
H675 H 0.58793 0.76891 0.96429 0.0
O676 O 0.635 0.78966 0.99726 0.0
O677 O 0.61415 0.77805 0.03369 0.0
O678 O 0.60907 0.80205 -0.00044 0.0
O679 O 0.61316 0.77836 0.96359 0.0
H680 H 0.64979 0.77506 0.02743 0.0
H681 H 0.64214 0.81252 0.00538 0.0
H682 H 0.66726 0.78203 0.05809 0.0
H683 H 0.65975 0.81883 0.03647 0.0
H684 H 0.58392 0.7515 0.05833 0.0
H685 H 0.60557 0.78993 0.08061 0.0
H686 H 0.60126 0.75782 0.02638 0.0
H687 H 0.58818 0.78303 0.11162 0.0
H688 H 0.64102 0.79843 0.12324 0.0
H689 H 0.62206 0.83057 0.0917 0.0
H690 H 0.65604 0.74745 0.96024 0.0
H691 H 0.63383 0.73273 0.03127 0.0
H692 H 0.58921 0.80349 0.96611 0.0
H693 H 0.62186 0.82236 0.99303 0.0
H694 H 0.58395 0.82106 0.93378 0.0
H695 H 0.61603 0.83959 0.96016 0.0
H696 H 0.62777 0.77871 0.91656 0.0
H697 H 0.60541 0.75571 0.97191 0.0
H698 H 0.63313 0.76061 0.8862 0.0
H699 H 0.6112 0.73801 0.9406 0.0
H700 H 0.64907 0.81787 0.9066 0.0
H701 H 0.61396 0.80853 0.86885 0.0
H702 H 0.56303 0.79178 0.03676 0.0
H703 H 0.56578 0.76517 0.96597 0.0
Li704 Li 0.71077 0.88894 0.50047 0.0
Li705 Li 0.70095 0.87314 0.52448 0.0
Li706 Li 0.72078 0.86942 0.50053 0.0
Li707 Li 0.70084 0.87313 0.47071 0.0
C708 C 0.72273 0.88859 0.55115 0.0
N709 N 0.73409 0.90694 0.58296 0.0
C710 C 0.71583 0.89662 0.56846 0.0
C711 C 0.73543 0.8898 0.55026 0.0
C712 C 0.72174 0.90587 0.58428 0.0
C713 C 0.74099 0.89915 0.56647 0.0
C714 C 0.68166 0.8862 0.50795 0.0
C715 C 0.66016 0.88162 0.50483 0.0
N716 N 0.6582 0.88825 0.52997 0.0
C717 C 0.67941 0.89305 0.53361 0.0
C718 C 0.67195 0.88049 0.49331 0.0
C719 C 0.6675 0.89394 0.54445 0.0
C720 C 0.70413 0.91361 0.50115 0.0
N721 N 0.71395 0.90606 0.50079 0.0
C722 C 0.72756 0.92309 0.50149 0.0
C723 C 0.72553 0.91054 0.50075 0.0
C724 C 0.71757 0.93109 0.50234 0.0
C725 C 0.70573 0.92621 0.50203 0.0
H726 H 0.69502 0.90986 0.50068 0.0
H727 H 0.7332 0.90437 0.50027 0.0
C728 C 0.69745 0.86896 0.58541 0.0
N729 N 0.69176 0.86815 0.55861 0.0
C730 C 0.69163 0.86493 0.61117 0.0
C731 C 0.67416 0.85928 0.58141 0.0
C732 C 0.68035 0.86336 0.55618 0.0
C733 C 0.67985 0.85997 0.60933 0.0
H734 H 0.70661 0.87255 0.58677 0.0
H735 H 0.67613 0.86246 0.53459 0.0
C736 C 0.7236 0.88873 0.44965 0.0
N737 N 0.7355 0.90681 0.4182 0.0
C738 C 0.71693 0.89711 0.43281 0.0
C739 C 0.73633 0.88946 0.45031 0.0
C740 C 0.72312 0.90622 0.41714 0.0
C741 C 0.74218 0.89869 0.43428 0.0
C742 C 0.70103 0.84949 0.51183 0.0
C743 C 0.70745 0.84462 0.53594 0.0
C744 C 0.68991 0.84433 0.50333 0.0
C745 C 0.70254 0.8347 0.55137 0.0
C746 C 0.68532 0.8344 0.5193 0.0
N747 N 0.69168 0.82984 0.54281 0.0
C748 C 0.74082 0.8578 0.5273 0.0
C749 C 0.73998 0.85633 0.47467 0.0
C750 C 0.75142 0.85077 0.528 0.0
N751 N 0.73538 0.86041 0.5009 0.0
C752 C 0.75054 0.84922 0.47433 0.0
C753 C 0.75635 0.84631 0.50128 0.0
H754 H 0.73682 0.86105 0.54783 0.0
H755 H 0.73538 0.85853 0.45406 0.0
C756 C 0.68705 0.878 0.41919 0.0
N757 N 0.69281 0.86913 0.43494 0.0
C758 C 0.68144 0.87522 0.39215 0.0
C759 C 0.68766 0.8542 0.39842 0.0
C760 C 0.69324 0.85742 0.42517 0.0
C761 C 0.68172 0.86318 0.38136 0.0
H762 H 0.68688 0.88724 0.4276 0.0
H763 H 0.69797 0.85059 0.43814 0.0
O764 O 0.7171 0.87953 0.53533 0.0
O765 O 0.69325 0.88526 0.49693 0.0
O766 O 0.71771 0.87984 0.46544 0.0
O767 O 0.70555 0.85937 0.49692 0.0
H768 H 0.70602 0.89575 0.56955 0.0
H769 H 0.74091 0.88373 0.53681 0.0
H770 H 0.7165 0.9122 0.59762 0.0
H771 H 0.75079 0.90026 0.56581 0.0
H772 H 0.65258 0.87719 0.49384 0.0
H773 H 0.68679 0.8976 0.54508 0.0
H774 H 0.6735 0.87512 0.4735 0.0
H775 H 0.66564 0.89915 0.56438 0.0
H776 H 0.73684 0.92649 0.50184 0.0
H777 H 0.69778 0.93208 0.50212 0.0
H778 H 0.69631 0.86569 0.63232 0.0
H779 H 0.66516 0.85531 0.57898 0.0
H780 H 0.70708 0.8967 0.43221 0.0
H781 H 0.74162 0.88307 0.46334 0.0
H782 H 0.71807 0.91283 0.4042 0.0
H783 H 0.75202 0.89941 0.43471 0.0
H784 H 0.71603 0.84857 0.5429 0.0
H785 H 0.68477 0.84807 0.4849 0.0
H786 H 0.70736 0.83089 0.57021 0.0
H787 H 0.67668 0.83036 0.5131 0.0
H788 H 0.75552 0.84857 0.54927 0.0
H789 H 0.7541 0.84602 0.45325 0.0
H790 H 0.67712 0.88246 0.37963 0.0
H791 H 0.68795 0.84477 0.39129 0.0
Li792 Li 0.10508 0.71148 0.49554 0.0
Li793 Li 0.12134 0.70169 0.52392 0.0
Li794 Li 0.12408 0.72101 0.49906 0.0
Li795 Li 0.12204 0.70233 0.46971 0.0
C796 C 0.11419 0.72752 0.5496 0.0
N797 N 0.11741 0.74839 0.58328 0.0
C798 C 0.11966 0.72683 0.57764 0.0
C799 C 0.11011 0.7388 0.53902 0.0
C800 C 0.12127 0.73749 0.59426 0.0
C801 C 0.1119 0.74925 0.55626 0.0
C802 C 0.1013 0.68683 0.50855 0.0
C803 C 0.08948 0.66831 0.51169 0.0
N804 N 0.08374 0.67273 0.53627 0.0
C805 C 0.09527 0.6912 0.53386 0.0
C806 C 0.09836 0.67531 0.49734 0.0
C807 C 0.08643 0.68393 0.54753 0.0
C808 C 0.08159 0.70702 0.47337 0.0
N809 N 0.08798 0.7138 0.49334 0.0
C810 C 0.06976 0.72351 0.51015 0.0
C811 C 0.08236 0.72188 0.5117 0.0
C812 C 0.06292 0.71667 0.48966 0.0
C813 C 0.06899 0.70835 0.47106 0.0
H814 H 0.08632 0.70058 0.45926 0.0
H815 H 0.08763 0.72696 0.52778 0.0
C816 C 0.13584 0.69761 0.57345 0.0
N817 N 0.12658 0.69249 0.55769 0.0
C818 C 0.14036 0.6919 0.59888 0.0
C819 C 0.12608 0.67543 0.59081 0.0
C820 C 0.12188 0.68144 0.56543 0.0
C821 C 0.13536 0.68072 0.60805 0.0
H822 H 0.13965 0.70624 0.56632 0.0
H823 H 0.11494 0.6772 0.55201 0.0
C824 C 0.10556 0.7219 0.44319 0.0
N825 N 0.08662 0.72832 0.40569 0.0
C826 C 0.10258 0.71451 0.4189 0.0
C827 C 0.09899 0.73264 0.44818 0.0
C828 C 0.09297 0.7179 0.40024 0.0
C829 C 0.08942 0.7357 0.42906 0.0
C830 C 0.14391 0.69786 0.49876 0.0
C831 C 0.1562 0.70108 0.50131 0.0
C832 C 0.14065 0.68556 0.49662 0.0
C833 C 0.16505 0.69192 0.50161 0.0
C834 C 0.14978 0.67667 0.49701 0.0
N835 N 0.16169 0.68001 0.49947 0.0
C836 C 0.14177 0.73713 0.52133 0.0
C837 C 0.13001 0.74494 0.48134 0.0
C838 C 0.14856 0.74788 0.52261 0.0
N839 N 0.13274 0.73589 0.50085 0.0
C840 C 0.13653 0.75585 0.48188 0.0
C841 C 0.14604 0.75739 0.50252 0.0
H842 H 0.14376 0.7297 0.53641 0.0
H843 H 0.12282 0.74365 0.46519 0.0
C844 C 0.12134 0.68459 0.42374 0.0
N845 N 0.12765 0.69412 0.43542 0.0
C846 C 0.12547 0.67889 0.39783 0.0
C847 C 0.1426 0.6928 0.39701 0.0
C848 C 0.1381 0.69827 0.42275 0.0
C849 C 0.13621 0.68304 0.38402 0.0
H850 H 0.113 0.68158 0.43425 0.0
H851 H 0.14291 0.70587 0.43269 0.0
O852 O 0.11269 0.71719 0.53279 0.0
O853 O 0.10983 0.69384 0.49431 0.0
O854 O 0.11481 0.7186 0.46206 0.0
O855 O 0.13516 0.70676 0.49863 0.0
H856 H 0.12256 0.71818 0.58664 0.0
H857 H 0.10579 0.73951 0.51749 0.0
H858 H 0.12555 0.73709 0.61593 0.0
H859 H 0.10893 0.75805 0.54812 0.0
H860 H 0.08713 0.65937 0.50326 0.0
H861 H 0.09739 0.70007 0.54295 0.0
H862 H 0.10291 0.67179 0.47776 0.0
H863 H 0.08171 0.68719 0.56712 0.0
H864 H 0.0654 0.72985 0.52526 0.0
H865 H 0.06406 0.70297 0.45481 0.0
H866 H 0.14751 0.69631 0.61156 0.0
H867 H 0.12219 0.66668 0.59673 0.0
H868 H 0.10756 0.7062 0.41458 0.0
H869 H 0.10113 0.73849 0.4668 0.0
H870 H 0.09053 0.71222 0.38147 0.0
H871 H 0.08419 0.74393 0.43283 0.0
H872 H 0.15885 0.71057 0.50307 0.0
H873 H 0.13119 0.68287 0.49474 0.0
H874 H 0.1746 0.69428 0.50357 0.0
H875 H 0.14739 0.66712 0.49537 0.0
H876 H 0.15593 0.7486 0.53857 0.0
H877 H 0.1342 0.76299 0.46621 0.0
H878 H 0.12017 0.6715 0.3884 0.0
H879 H 0.15103 0.69616 0.38748 0.0
Li880 Li 0.2931 0.12254 0.52456 0.0
Li881 Li 0.28423 0.10576 0.49656 0.0
Li882 Li 0.29331 0.12351 0.46971 0.0
Li883 Li 0.27372 0.12479 0.49558 0.0
C884 C 0.31378 0.11021 0.49982 0.0
N885 N 0.33873 0.10765 0.50658 0.0
C886 C 0.31865 0.09941 0.51134 0.0
C887 C 0.32165 0.1196 0.49116 0.0
C888 C 0.33127 0.09832 0.51477 0.0
C889 C 0.33422 0.11816 0.49489 0.0
C890 C 0.27279 0.10522 0.54816 0.0
C891 C 0.2584 0.08896 0.55693 0.0
N892 N 0.26457 0.08587 0.58209 0.0
C893 C 0.27893 0.10195 0.57422 0.0
C894 C 0.26238 0.09875 0.53955 0.0
C895 C 0.27464 0.09212 0.59104 0.0
C896 C 0.29773 0.13791 0.57264 0.0
N897 N 0.30114 0.12715 0.56014 0.0
C898 C 0.31506 0.12331 0.59996 0.0
C899 C 0.30956 0.11982 0.57326 0.0
C900 C 0.31179 0.13444 0.61328 0.0
C901 C 0.30302 0.1418 0.59918 0.0
H902 H 0.29085 0.14346 0.56195 0.0
H903 H 0.31181 0.11112 0.56343 0.0
C904 C 0.27569 0.08323 0.47446 0.0
N905 N 0.28242 0.08861 0.49617 0.0
C906 C 0.27409 0.0706 0.47435 0.0
C907 C 0.28649 0.06935 0.51877 0.0
C908 C 0.28782 0.08198 0.51804 0.0
C909 C 0.27954 0.0635 0.49673 0.0
H910 H 0.27154 0.08873 0.45729 0.0
H911 H 0.2931 0.08654 0.53505 0.0
C912 C 0.29324 0.14739 0.49663 0.0
N913 N 0.30421 0.17009 0.4936 0.0
C914 C 0.28666 0.1575 0.48649 0.0
C915 C 0.30534 0.14891 0.50576 0.0
C916 C 0.29238 0.16887 0.48495 0.0
C917 C 0.31074 0.16043 0.50394 0.0
C918 C 0.26843 0.1164 0.44218 0.0
C919 C 0.26983 0.12398 0.4174 0.0
C920 C 0.25709 0.11105 0.44795 0.0
C921 C 0.2598 0.1262 0.39898 0.0
C922 C 0.24728 0.11351 0.42903 0.0
N923 N 0.24883 0.12098 0.40515 0.0
C924 C 0.30881 0.11924 0.42164 0.0
C925 C 0.30205 0.13974 0.42487 0.0
C926 C 0.31549 0.12189 0.396 0.0
N927 N 0.30233 0.12814 0.43552 0.0
C928 C 0.30864 0.14281 0.39942 0.0
C929 C 0.31546 0.13381 0.38462 0.0
H930 H 0.30876 0.11007 0.43051 0.0
H931 H 0.29655 0.14657 0.43573 0.0
C932 C 0.24992 0.12964 0.5164 0.0
N933 N 0.25826 0.13254 0.49518 0.0
C934 C 0.23864 0.13553 0.5171 0.0
C935 C 0.24475 0.14725 0.47403 0.0
C936 C 0.25587 0.14109 0.47408 0.0
C937 C 0.23599 0.14458 0.49592 0.0
H938 H 0.25208 0.12287 0.53304 0.0
H939 H 0.26269 0.14323 0.4575 0.0
O940 O 0.30142 0.11136 0.49617 0.0
O941 O 0.27697 0.1147 0.53115 0.0
O942 O 0.28773 0.13619 0.49829 0.0
O943 O 0.2781 0.11425 0.4607 0.0
H944 H 0.31277 0.09195 0.51771 0.0
H945 H 0.31815 0.12785 0.48125 0.0
H946 H 0.33514 0.09005 0.52389 0.0
H947 H 0.34039 0.12538 0.48835 0.0
H948 H 0.25042 0.0838 0.55039 0.0
H949 H 0.28695 0.10689 0.58132 0.0
H950 H 0.25752 0.10115 0.51946 0.0
H951 H 0.27935 0.08945 0.61117 0.0
H952 H 0.32158 0.11725 0.61036 0.0
H953 H 0.30031 0.1505 0.60847 0.0
H954 H 0.26856 0.06647 0.4571 0.0
H955 H 0.291 0.06422 0.53618 0.0
H956 H 0.27724 0.15658 0.47974 0.0
H957 H 0.31047 0.14135 0.51467 0.0
H958 H 0.28741 0.17674 0.47694 0.0
H959 H 0.3201 0.16171 0.5109 0.0
H960 H 0.27853 0.12816 0.41252 0.0
H961 H 0.25585 0.10516 0.46701 0.0
H962 H 0.26074 0.13209 0.37981 0.0
H963 H 0.23844 0.10951 0.43337 0.0
H964 H 0.32067 0.11471 0.3853 0.0
H965 H 0.30818 0.15206 0.39099 0.0
H966 H 0.23212 0.13308 0.53418 0.0
H967 H 0.2432 0.15429 0.45755 0.0
Li968 Li 0.87326 0.29333 0.52462 0.0
Li969 Li 0.88991 0.28345 0.4978 0.0
Li970 Li 0.87368 0.29304 0.47042 0.0
Li971 Li 0.87067 0.27422 0.49874 0.0
C972 C 0.89377 0.30794 0.51263 0.0
N973 N 0.91083 0.32153 0.54354 0.0
C974 C 0.89921 0.30321 0.53833 0.0
C975 C 0.89703 0.31957 0.50266 0.0
C976 C 0.90781 0.31022 0.55362 0.0
C977 C 0.90566 0.3263 0.51862 0.0
C978 C 0.87963 0.26721 0.55003 0.0
C979 C 0.88155 0.2454 0.55586 0.0
N980 N 0.87569 0.24613 0.58248 0.0
C981 C 0.87379 0.26775 0.57765 0.0
C982 C 0.88369 0.25596 0.53925 0.0
C983 C 0.87183 0.257 0.59365 0.0
C984 C 0.85789 0.29695 0.57251 0.0
N985 N 0.86749 0.30221 0.55833 0.0
C986 C 0.86766 0.31862 0.59336 0.0
C987 C 0.87221 0.31302 0.56775 0.0
C988 C 0.85806 0.31312 0.60916 0.0
C989 C 0.85304 0.30223 0.59812 0.0
H990 H 0.85408 0.28854 0.56401 0.0
H991 H 0.87951 0.31735 0.55565 0.0
C992 C 0.9139 0.28777 0.47893 0.0
N993 N 0.90701 0.28089 0.49764 0.0
C994 C 0.92654 0.28646 0.47854 0.0
C995 C 0.92476 0.2711 0.51694 0.0
C996 C 0.91214 0.27269 0.51653 0.0
C997 C 0.93212 0.27806 0.49782 0.0
H998 H 0.90955 0.29438 0.46455 0.0
H999 H 0.90647 0.2675 0.53152 0.0
C1000 C 0.85132 0.29775 0.4968 0.0
N1001 N 0.83387 0.31592 0.49578 0.0
C1002 C 0.83894 0.29474 0.49737 0.0
C1003 C 0.85484 0.31001 0.49577 0.0
C1004 C 0.83025 0.30406 0.49682 0.0
C1005 C 0.84588 0.31906 0.49525 0.0
C1006 C 0.89029 0.2733 0.44517 0.0
C1007 C 0.89412 0.28094 0.42209 0.0
C1008 C 0.89635 0.26226 0.45006 0.0
C1009 C 0.90406 0.27749 0.40454 0.0
C1010 C 0.90626 0.25914 0.43207 0.0
N1011 N 0.90989 0.26676 0.40988 0.0
C1012 C 0.87537 0.31125 0.42565 0.0
C1013 C 0.85892 0.29731 0.42123 0.0
C1014 C 0.87185 0.31713 0.39943 0.0
N1015 N 0.86893 0.30151 0.43578 0.0
C1016 C 0.85504 0.30293 0.39508 0.0
C1017 C 0.8616 0.31291 0.38367 0.0
H1018 H 0.88335 0.31431 0.43767 0.0
H1019 H 0.85398 0.28955 0.42997 0.0
C1020 C 0.8524 0.25866 0.5196 0.0
N1021 N 0.8616 0.25958 0.49948 0.0
C1022 C 0.84532 0.24811 0.52088 0.0
C1023 C 0.85735 0.23965 0.48073 0.0
C1024 C 0.86419 0.25039 0.48019 0.0
C1025 C 0.84772 0.23846 0.50115 0.0
H1026 H 0.85058 0.26616 0.53461 0.0
H1027 H 0.87149 0.25145 0.46425 0.0
O1028 O 0.88549 0.3012 0.49682 0.0
O1029 O 0.88146 0.27763 0.53381 0.0
O1030 O 0.8599 0.28869 0.49747 0.0
O1031 O 0.88072 0.27665 0.46299 0.0
H1032 H 0.89684 0.29426 0.5465 0.0
H1033 H 0.89293 0.32336 0.48281 0.0
H1034 H 0.91209 0.30668 0.57352 0.0
H1035 H 0.90825 0.33532 0.51116 0.0
H1036 H 0.88452 0.23663 0.54756 0.0
H1037 H 0.87088 0.27638 0.5868 0.0
H1038 H 0.88829 0.25535 0.51804 0.0
H1039 H 0.86727 0.2573 0.61498 0.0
H1040 H 0.87181 0.32702 0.60102 0.0
H1041 H 0.84543 0.29784 0.60913 0.0
H1042 H 0.9319 0.29216 0.46384 0.0
H1043 H 0.9287 0.26448 0.53203 0.0
H1044 H 0.83608 0.28529 0.49825 0.0
H1045 H 0.86438 0.31253 0.49541 0.0
H1046 H 0.82063 0.30186 0.49725 0.0
H1047 H 0.84846 0.32857 0.49444 0.0
H1048 H 0.88956 0.28951 0.41791 0.0
H1049 H 0.89352 0.2562 0.46772 0.0
H1050 H 0.90716 0.28336 0.38673 0.0
H1051 H 0.91109 0.25067 0.43577 0.0
H1052 H 0.87725 0.3247 0.39129 0.0
H1053 H 0.84696 0.29951 0.384 0.0
H1054 H 0.83806 0.2475 0.53717 0.0
H1055 H 0.85938 0.2325 0.46487 0.0
Li1056 Li 0.72158 0.12309 0.50015 0.0
Li1057 Li 0.70199 0.12107 0.52534 0.0
Li1058 Li 0.71053 0.10352 0.49723 0.0
Li1059 Li 0.70172 0.1212 0.47188 0.0
C1060 C 0.72706 0.10707 0.5478 0.0
N1061 N 0.7469 0.09732 0.57739 0.0
C1062 C 0.72858 0.10911 0.57829 0.0
C1063 C 0.73556 0.09996 0.53247 0.0
C1064 C 0.73869 0.10414 0.59282 0.0
C1065 C 0.74554 0.09513 0.54779 0.0
C1066 C 0.70356 0.14455 0.51345 0.0
C1067 C 0.68742 0.15821 0.52819 0.0
N1068 N 0.6955 0.16458 0.54513 0.0
C1069 C 0.71174 0.15128 0.53077 0.0
C1070 C 0.69133 0.14808 0.51191 0.0
C1071 C 0.70747 0.16136 0.5467 0.0
C1072 C 0.74178 0.13484 0.47493 0.0
N1073 N 0.73698 0.13083 0.50102 0.0
C1074 C 0.75365 0.13928 0.52828 0.0
C1075 C 0.74264 0.13291 0.52743 0.0
C1076 C 0.75879 0.14367 0.50171 0.0
C1077 C 0.75277 0.14126 0.47472 0.0
H1078 H 0.73693 0.13325 0.45433 0.0
H1079 H 0.73847 0.12993 0.54794 0.0
C1080 C 0.68168 0.12383 0.5643 0.0
N1081 N 0.6938 0.12592 0.56048 0.0
C1082 C 0.67584 0.12774 0.59022 0.0
C1083 C 0.69511 0.13575 0.60774 0.0
C1084 C 0.70056 0.13165 0.58159 0.0
C1085 C 0.68257 0.13384 0.61228 0.0
H1086 H 0.67655 0.11916 0.54722 0.0
H1087 H 0.7102 0.13311 0.57796 0.0
C1088 C 0.7246 0.10766 0.44302 0.0
N1089 N 0.7386 0.09662 0.39949 0.0
C1090 C 0.71937 0.10438 0.41579 0.0
C1091 C 0.73702 0.10553 0.44784 0.0
C1092 C 0.72658 0.09874 0.39415 0.0
C1093 C 0.74393 0.09989 0.42564 0.0
C1094 C 0.68268 0.10648 0.48535 0.0
C1095 C 0.68106 0.0949 0.47297 0.0
C1096 C 0.67326 0.11505 0.48364 0.0
C1097 C 0.67007 0.09212 0.45871 0.0
C1098 C 0.66242 0.11193 0.46915 0.0
N1099 N 0.66107 0.10063 0.45708 0.0
C1100 C 0.71239 0.08052 0.5236 0.0
C1101 C 0.71379 0.08011 0.47098 0.0
C1102 C 0.71409 0.06793 0.52501 0.0
N1103 N 0.71244 0.08634 0.4969 0.0
C1104 C 0.71554 0.06751 0.47132 0.0
C1105 C 0.71577 0.06128 0.49861 0.0
H1106 H 0.71111 0.0857 0.54385 0.0
H1107 H 0.71339 0.08485 0.45001 0.0
C1108 C 0.69383 0.13875 0.43095 0.0
N1109 N 0.69346 0.12662 0.4371 0.0
C1110 C 0.68838 0.14328 0.40517 0.0
C1111 C 0.6821 0.12276 0.39269 0.0
C1112 C 0.68781 0.11861 0.41852 0.0
C1113 C 0.68243 0.13523 0.38568 0.0
H1114 H 0.69852 0.1449 0.4459 0.0
H1115 H 0.6879 0.10898 0.42344 0.0
O1116 O 0.71723 0.11194 0.53326 0.0
O1117 O 0.7075 0.13449 0.49823 0.0
O1118 O 0.71767 0.11331 0.46434 0.0
O1119 O 0.69337 0.10936 0.49936 0.0
H1120 H 0.72203 0.11451 0.5906 0.0
H1121 H 0.73437 0.09803 0.50912 0.0
H1122 H 0.74 0.1057 0.61638 0.0
H1123 H 0.75218 0.0896 0.53616 0.0
H1124 H 0.67797 0.161 0.52738 0.0
H1125 H 0.72124 0.14868 0.53214 0.0
H1126 H 0.68492 0.14302 0.49842 0.0
H1127 H 0.71367 0.16661 0.56037 0.0
H1128 H 0.75801 0.1409 0.54956 0.0
H1129 H 0.75628 0.14467 0.45379 0.0
H1130 H 0.66614 0.12615 0.59279 0.0
H1131 H 0.70067 0.14025 0.62436 0.0
H1132 H 0.70982 0.10603 0.4115 0.0
H1133 H 0.74136 0.10833 0.46832 0.0
H1134 H 0.72261 0.09606 0.3731 0.0
H1135 H 0.75354 0.09816 0.42914 0.0
H1136 H 0.68821 0.08813 0.47427 0.0
H1137 H 0.67434 0.12404 0.49315 0.0
H1138 H 0.66872 0.08321 0.44892 0.0
H1139 H 0.65509 0.1185 0.46748 0.0
H1140 H 0.71426 0.06348 0.54652 0.0
H1141 H 0.71651 0.06268 0.45043 0.0
H1142 H 0.68879 0.15297 0.40054 0.0
H1143 H 0.67776 0.11626 0.37796 0.0
Li1144 Li 0.8713 0.71891 0.49761 0.0
Li1145 Li 0.87353 0.69926 0.5253 0.0
Li1146 Li 0.89042 0.70884 0.49563 0.0
Li1147 Li 0.87361 0.69992 0.47122 0.0
C1148 C 0.87964 0.72461 0.55063 0.0
N1149 N 0.87373 0.74394 0.58741 0.0
C1150 C 0.87226 0.72274 0.5756 0.0
C1151 C 0.88408 0.7363 0.54451 0.0
C1152 C 0.86938 0.73264 0.5939 0.0
C1153 C 0.88096 0.74596 0.56331 0.0
C1154 C 0.85006 0.70255 0.4824 0.0
C1155 C 0.83341 0.68955 0.46734 0.0
N1156 N 0.83006 0.69797 0.44667 0.0
C1157 C 0.84646 0.71107 0.46099 0.0
C1158 C 0.8435 0.6917 0.48562 0.0
C1159 C 0.83632 0.70859 0.44316 0.0
C1160 C 0.86521 0.74318 0.48021 0.0
N1161 N 0.86268 0.7339 0.49925 0.0
C1162 C 0.84682 0.74548 0.52215 0.0
C1163 C 0.85363 0.73479 0.51979 0.0
C1164 C 0.84927 0.75529 0.50295 0.0
C1165 C 0.85861 0.75405 0.48176 0.0
H1166 H 0.87225 0.74212 0.4636 0.0
H1167 H 0.85167 0.72714 0.5342 0.0
C1168 C 0.87828 0.68727 0.57927 0.0
N1169 N 0.86931 0.6907 0.56016 0.0
C1170 C 0.87533 0.68146 0.60597 0.0
C1171 C 0.854 0.6827 0.59244 0.0
C1172 C 0.85735 0.6886 0.56621 0.0
C1173 C 0.86304 0.67913 0.61278 0.0
H1174 H 0.88771 0.68918 0.57387 0.0
H1175 H 0.85041 0.69173 0.55095 0.0
C1176 C 0.89093 0.72014 0.44613 0.0
N1177 N 0.91132 0.72847 0.41611 0.0
C1178 C 0.89596 0.71326 0.42296 0.0
C1179 C 0.8963 0.73126 0.454 0.0
C1180 C 0.90625 0.71764 0.40804 0.0
C1181 C 0.9066 0.7353 0.43859 0.0
C1182 C 0.88611 0.6798 0.48713 0.0
C1183 C 0.89153 0.67753 0.45949 0.0
C1184 C 0.88152 0.67006 0.50381 0.0
C1185 C 0.89218 0.66557 0.44893 0.0
C1186 C 0.88238 0.65821 0.49249 0.0
N1187 N 0.88764 0.65623 0.46551 0.0
C1188 C 0.91284 0.71953 0.51339 0.0
C1189 C 0.91443 0.70402 0.47687 0.0
C1190 C 0.92544 0.72141 0.51266 0.0
N1191 N 0.90762 0.71102 0.49546 0.0
C1192 C 0.92702 0.70561 0.47532 0.0
C1193 C 0.93268 0.71439 0.49338 0.0
H1194 H 0.90724 0.72487 0.52826 0.0
H1195 H 0.91008 0.69734 0.46288 0.0
C1196 C 0.86729 0.69743 0.41089 0.0
N1197 N 0.86767 0.69129 0.43713 0.0
C1198 C 0.86288 0.69176 0.3853 0.0
C1199 C 0.85883 0.67366 0.4144 0.0
C1200 C 0.8633 0.67971 0.43944 0.0
C1201 C 0.85867 0.67967 0.38681 0.0
H1202 H 0.87025 0.70683 0.40991 0.0
H1203 H 0.86319 0.67518 0.46077 0.0
O1204 O 0.88237 0.71507 0.5321 0.0
O1205 O 0.8602 0.70466 0.49943 0.0
O1206 O 0.88098 0.7159 0.46144 0.0
O1207 O 0.88543 0.69143 0.49805 0.0
H1208 H 0.86871 0.71379 0.58072 0.0
H1209 H 0.88971 0.73796 0.52517 0.0
H1210 H 0.86363 0.73133 0.61322 0.0
H1211 H 0.88425 0.75507 0.55867 0.0
H1212 H 0.82829 0.68116 0.46946 0.0
H1213 H 0.85155 0.71943 0.45783 0.0
H1214 H 0.8463 0.68488 0.50163 0.0
H1215 H 0.83347 0.71508 0.42642 0.0
H1216 H 0.83952 0.74593 0.53836 0.0
H1217 H 0.8608 0.7614 0.46656 0.0
H1218 H 0.88255 0.67881 0.6211 0.0
H1219 H 0.84441 0.68127 0.59719 0.0
H1220 H 0.89211 0.70454 0.41686 0.0
H1221 H 0.8927 0.73661 0.47218 0.0
H1222 H 0.91026 0.71238 0.39017 0.0
H1223 H 0.91089 0.74384 0.44461 0.0
H1224 H 0.8949 0.68494 0.44596 0.0
H1225 H 0.87732 0.6716 0.52524 0.0
H1226 H 0.89625 0.6637 0.42747 0.0
H1227 H 0.87884 0.6506 0.50515 0.0
H1228 H 0.92946 0.72815 0.52729 0.0
H1229 H 0.93223 0.70012 0.45984 0.0
H1230 H 0.86258 0.69685 0.36467 0.0
H1231 H 0.85564 0.66436 0.4166 0.0
Li1232 Li 0.27459 0.87147 0.50258 0.0
Li1233 Li 0.29353 0.8744 0.53049 0.0
Li1234 Li 0.28395 0.89067 0.50329 0.0
Li1235 Li 0.29364 0.87397 0.47635 0.0
C1236 C 0.27393 0.89105 0.55625 0.0
N1237 N 0.2675 0.91054 0.59202 0.0
C1238 C 0.28168 0.89485 0.57916 0.0
C1239 C 0.26284 0.89708 0.55179 0.0
C1240 C 0.27828 0.90474 0.59695 0.0
C1241 C 0.25978 0.90694 0.57002 0.0
C1242 C 0.298 0.85199 0.50394 0.0
C1243 C 0.31927 0.84638 0.50516 0.0
N1244 N 0.31604 0.8344 0.50424 0.0
C1245 C 0.29489 0.83963 0.50297 0.0
C1246 C 0.31028 0.85541 0.50501 0.0
C1247 C 0.30415 0.83087 0.50315 0.0
C1248 C 0.25851 0.85378 0.48104 0.0
N1249 N 0.25986 0.86255 0.50215 0.0
C1250 C 0.24018 0.85818 0.52218 0.0
C1251 C 0.25102 0.86486 0.52256 0.0
C1252 C 0.2385 0.84907 0.50058 0.0
C1253 C 0.24781 0.84693 0.47975 0.0
H1254 H 0.26578 0.85212 0.46527 0.0
H1255 H 0.25241 0.87185 0.53918 0.0
C1256 C 0.31194 0.87597 0.57471 0.0
N1257 N 0.3021 0.8696 0.56492 0.0
C1258 C 0.31795 0.87241 0.60071 0.0
C1259 C 0.30365 0.85571 0.60556 0.0
C1260 C 0.29791 0.85963 0.57961 0.0
C1261 C 0.31376 0.86219 0.6166 0.0
H1262 H 0.31499 0.88393 0.56258 0.0
H1263 H 0.29007 0.85474 0.57112 0.0
C1264 C 0.26746 0.88066 0.45134 0.0
N1265 N 0.24624 0.87726 0.41909 0.0
C1266 C 0.26786 0.87511 0.42334 0.0
C1267 C 0.25629 0.88471 0.4626 0.0
C1268 C 0.25703 0.87342 0.40745 0.0
C1269 C 0.24566 0.88284 0.44608 0.0
C1270 C 0.30836 0.89442 0.4879 0.0
C1271 C 0.30363 0.89965 0.46194 0.0
C1272 C 0.31995 0.89786 0.49785 0.0
C1273 C 0.31059 0.90821 0.44637 0.0
C1274 C 0.32663 0.90643 0.48162 0.0
N1275 N 0.32186 0.91139 0.45644 0.0
C1276 C 0.28814 0.91469 0.52239 0.0
C1277 C 0.27333 0.91285 0.48416 0.0
C1278 C 0.28671 0.92732 0.52283 0.0
N1279 N 0.28142 0.90776 0.50339 0.0
C1280 C 0.27166 0.92546 0.48371 0.0
C1281 C 0.27841 0.93284 0.50321 0.0
H1282 H 0.29468 0.91038 0.53701 0.0
H1283 H 0.26829 0.90716 0.46892 0.0
C1284 C 0.2969 0.85879 0.42802 0.0
N1285 N 0.30243 0.86812 0.44266 0.0
C1286 C 0.30227 0.8537 0.4028 0.0
C1287 C 0.31923 0.86758 0.40879 0.0
C1288 C 0.31353 0.87238 0.43398 0.0
C1289 C 0.31354 0.85818 0.39271 0.0
H1290 H 0.28823 0.85535 0.43591 0.0
H1291 H 0.31806 0.87943 0.44657 0.0
O1292 O 0.27722 0.88153 0.53823 0.0
O1293 O 0.289 0.86064 0.50355 0.0
O1294 O 0.27796 0.88223 0.46745 0.0
O1295 O 0.30168 0.88617 0.50394 0.0
H1296 H 0.29028 0.89032 0.58301 0.0
H1297 H 0.25669 0.89425 0.53432 0.0
H1298 H 0.28423 0.90782 0.61463 0.0
H1299 H 0.25127 0.91173 0.56665 0.0
H1300 H 0.3288 0.84889 0.50597 0.0
H1301 H 0.28542 0.83685 0.50204 0.0
H1302 H 0.31287 0.86492 0.50564 0.0
H1303 H 0.30188 0.82127 0.50241 0.0
H1304 H 0.23319 0.86015 0.53851 0.0
H1305 H 0.24696 0.83986 0.46305 0.0
H1306 H 0.32561 0.87775 0.60859 0.0
H1307 H 0.30024 0.84765 0.61677 0.0
H1308 H 0.27643 0.87223 0.41382 0.0
H1309 H 0.2558 0.8891 0.48408 0.0
H1310 H 0.25722 0.86909 0.38583 0.0
H1311 H 0.23694 0.8858 0.45474 0.0
H1312 H 0.29471 0.89715 0.45378 0.0
H1313 H 0.32375 0.89392 0.51789 0.0
H1314 H 0.30704 0.91231 0.42627 0.0
H1315 H 0.33562 0.90915 0.48906 0.0
H1316 H 0.29224 0.93272 0.53783 0.0
H1317 H 0.26514 0.92938 0.46832 0.0
H1318 H 0.29754 0.84649 0.39103 0.0
H1319 H 0.32805 0.8711 0.40214 0.0
Li1320 Li 0.12207 0.29274 0.52547 0.0
Li1321 Li 0.124 0.27346 0.49881 0.0
Li1322 Li 0.12249 0.2928 0.47221 0.0
Li1323 Li 0.10503 0.2841 0.49795 0.0
C1324 C 0.14548 0.29034 0.51554 0.0
N1325 N 0.16495 0.2966 0.55151 0.0
C1326 C 0.15161 0.28137 0.53181 0.0
C1327 C 0.14931 0.30249 0.51743 0.0
C1328 C 0.16143 0.28472 0.54987 0.0
C1329 C 0.15915 0.30547 0.5358 0.0
C1330 C 0.10394 0.27383 0.55041 0.0
C1331 C 0.08704 0.2604 0.56095 0.0
N1332 N 0.08369 0.26776 0.58391 0.0
C1333 C 0.10035 0.28123 0.57416 0.0
C1334 C 0.09727 0.26329 0.54379 0.0
C1335 C 0.09008 0.27801 0.59083 0.0
C1336 C 0.12477 0.31323 0.5637 0.0
N1337 N 0.12674 0.30106 0.56063 0.0
C1338 C 0.13622 0.30008 0.60837 0.0
C1339 C 0.13218 0.29441 0.58242 0.0
C1340 C 0.13449 0.31269 0.61203 0.0
C1341 C 0.12858 0.31928 0.58943 0.0
H1342 H 0.12029 0.31826 0.54614 0.0
H1343 H 0.13344 0.2847 0.57949 0.0
C1344 C 0.14119 0.25632 0.47964 0.0
N1345 N 0.1318 0.25805 0.49889 0.0
C1346 C 0.14736 0.24521 0.47903 0.0
C1347 C 0.13417 0.23794 0.51839 0.0
C1348 C 0.12821 0.24919 0.51812 0.0
C1349 C 0.1439 0.23586 0.49869 0.0
H1350 H 0.14395 0.26363 0.46497 0.0
H1351 H 0.12082 0.25089 0.53345 0.0
C1352 C 0.10812 0.31141 0.48267 0.0
N1353 N 0.10331 0.33161 0.44782 0.0
C1354 C 0.09721 0.31217 0.4667 0.0
C1355 C 0.11656 0.32095 0.48105 0.0
C1356 C 0.09495 0.32246 0.4492 0.0
C1357 C 0.11398 0.33107 0.46324 0.0
C1358 C 0.11619 0.26765 0.4457 0.0
C1359 C 0.12426 0.26886 0.42178 0.0
C1360 C 0.11101 0.25627 0.45187 0.0
C1361 C 0.12705 0.25864 0.40452 0.0
C1362 C 0.11406 0.24626 0.43412 0.0
N1363 N 0.12195 0.24764 0.41101 0.0
C1364 C 0.13935 0.30483 0.43491 0.0
C1365 C 0.11931 0.30322 0.41548 0.0
C1366 C 0.14331 0.31071 0.40913 0.0
N1367 N 0.12754 0.30127 0.43759 0.0
C1368 C 0.12284 0.30914 0.38939 0.0
C1369 C 0.13501 0.31292 0.38589 0.0
H1370 H 0.14576 0.30292 0.45256 0.0
H1371 H 0.11001 0.30008 0.41808 0.0
C1372 C 0.0812 0.2893 0.5166 0.0
N1373 N 0.08789 0.28242 0.49744 0.0
C1374 C 0.06856 0.28803 0.51762 0.0
C1375 C 0.06992 0.27287 0.47863 0.0
C1376 C 0.08255 0.2744 0.47845 0.0
C1377 C 0.06277 0.27969 0.49852 0.0
H1378 H 0.08573 0.29572 0.53115 0.0
H1379 H 0.08809 0.26917 0.46324 0.0
O1380 O 0.13567 0.28729 0.49824 0.0
O1381 O 0.11381 0.27697 0.53342 0.0
O1382 O 0.11059 0.30133 0.49957 0.0
O1383 O 0.11351 0.2775 0.46322 0.0
H1384 H 0.14874 0.27194 0.5308 0.0
H1385 H 0.1446 0.30957 0.5052 0.0
H1386 H 0.16622 0.27788 0.5627 0.0
H1387 H 0.16214 0.31484 0.53766 0.0
H1388 H 0.08173 0.25234 0.55592 0.0
H1389 H 0.10534 0.28946 0.57949 0.0
H1390 H 0.09983 0.25753 0.52528 0.0
H1391 H 0.08717 0.28369 0.60919 0.0
H1392 H 0.14055 0.29465 0.6255 0.0
H1393 H 0.12712 0.32901 0.59139 0.0
H1394 H 0.15497 0.24407 0.46391 0.0
H1395 H 0.13122 0.23096 0.53385 0.0
H1396 H 0.0906 0.30485 0.46755 0.0
H1397 H 0.12511 0.32046 0.49304 0.0
H1398 H 0.08656 0.32314 0.43663 0.0
H1399 H 0.12046 0.33848 0.4616 0.0
H1400 H 0.12841 0.27757 0.41675 0.0
H1401 H 0.10487 0.25512 0.47051 0.0
H1402 H 0.13332 0.25944 0.38602 0.0
H1403 H 0.1102 0.23738 0.4388 0.0
H1404 H 0.15283 0.31322 0.40717 0.0
H1405 H 0.11611 0.31073 0.37219 0.0
H1406 H 0.06336 0.29362 0.53292 0.0
H1407 H 0.06581 0.2663 0.46366 0.0
H1408 H 0.23446 0.54934 0.00229 0.0
H1409 H 0.23535 0.52702 0.00335 0.0
H1410 H 0.19617 0.52535 0.99475 0.0
H1411 H 0.19522 0.54764 0.99419 0.0
H1412 H 0.2045 0.51011 0.03732 0.0
H1413 H 0.23124 0.50405 0.93352 0.0
H1414 H 0.23858 0.51365 0.96049 0.0
H1415 H 0.22445 0.51844 0.94379 0.0
C1416 C 0.22606 0.54418 0.00042 0.0
C1417 C 0.21477 0.55018 0.99807 0.0
C1418 C 0.22658 0.53146 0.00093 0.0
C1419 C 0.21584 0.52455 -0.00138 0.0
C1420 C 0.20456 0.53053 0.99649 0.0
H1421 H 0.20863 0.44835 0.95454 0.0
H1422 H 0.20938 0.47066 0.95524 0.0
C1423 C 0.20402 0.54324 0.99625 0.0
C1424 C 0.21627 0.51107 -0.00097 0.0
H1425 H 0.22788 0.48633 0.96271 0.0
C1426 C 0.2096 0.50489 0.021 0.0
C1427 C 0.22282 0.50432 0.97748 0.0
C1428 C 0.22958 0.51043 0.95231 0.0
C1429 C 0.20926 0.49212 0.02201 0.0
C1430 C 0.21608 0.48536 0.00096 0.0
C1431 C 0.22276 0.49154 0.979 0.0
C1432 C 0.21599 0.47187 0.00055 0.0
C1433 C 0.20129 0.48602 0.04505 0.0
C1434 C 0.21966 0.46517 0.02562 0.0
C1435 C 0.21908 0.45244 0.02537 0.0
C1436 C 0.2151 0.44624 -0.00018 0.0
C1437 C 0.2118 0.45294 0.97444 0.0
C1438 C 0.21221 0.46566 0.97485 0.0
H1439 H 0.19419 0.49232 0.05368 0.0
H1440 H 0.19672 0.47782 0.03576 0.0
H1441 H 0.20703 0.48313 0.06413 0.0
H1442 H 0.22293 0.46977 0.04539 0.0
H1443 H 0.22184 0.44744 0.04505 0.0
H1444 H 0.44512 0.2371 0.99408 0.0
H1445 H 0.4674 0.23879 0.99168 0.0
H1446 H 0.47022 0.19974 0.98227 0.0
H1447 H 0.44806 0.19794 0.98498 0.0
H1448 H 0.48455 0.22763 0.03004 0.0
H1449 H 0.49093 0.21292 0.91303 0.0
H1450 H 0.47636 0.2178 0.92751 0.0
H1451 H 0.48179 0.20259 0.93456 0.0
C1452 C 0.4505 0.22887 0.99156 0.0
C1453 C 0.44484 0.21738 0.98954 0.0
C1454 C 0.4632 0.22987 0.99004 0.0
C1455 C 0.47039 0.21941 0.98627 0.0
C1456 C 0.46478 0.20794 0.98444 0.0
H1457 H 0.5446 0.19674 0.98934 0.0
H1458 H 0.52246 0.19912 0.98663 0.0
C1459 C 0.45212 0.20693 0.98598 0.0
C1460 C 0.48382 0.22033 0.9856 0.0
H1461 H 0.50872 0.21288 0.94388 0.0
C1462 C 0.48987 0.22458 0.01109 0.0
C1463 C 0.49066 0.21636 0.96076 0.0
C1464 C 0.48461 0.21227 0.93229 0.0
C1465 C 0.50264 0.22441 0.01293 0.0
C1466 C 0.50946 0.22004 0.98846 0.0
C1467 C 0.50342 0.21616 0.96263 0.0
C1468 C 0.52285 0.21881 0.98977 0.0
C1469 C 0.50872 0.22842 0.04144 0.0
C1470 C 0.53035 0.22913 0.99213 0.0
C1471 C 0.54301 0.22781 0.99356 0.0
C1472 C 0.54835 0.21614 0.99249 0.0
C1473 C 0.54078 0.20585 0.98986 0.0
C1474 C 0.52814 0.20718 0.98844 0.0
H1475 H 0.5021 0.22932 0.06003 0.0
H1476 H 0.51592 0.22183 0.04806 0.0
H1477 H 0.51312 0.23742 0.03793 0.0
H1478 H 0.52641 0.23819 0.99267 0.0
H1479 H 0.54863 0.23591 0.99509 0.0
H1480 H 0.76376 0.4463 0.03188 0.0
H1481 H 0.76161 0.46853 0.03183 0.0
H1482 H 0.78541 0.47087 0.95563 0.0
H1483 H 0.78774 0.44871 0.9557 0.0
H1484 H 0.7806 0.48546 0.03796 0.0
H1485 H 0.75587 0.4918 0.93137 0.0
H1486 H 0.7568 0.47724 0.95006 0.0
H1487 H 0.7694 0.48265 0.9281 0.0
C1488 C 0.76854 0.45156 0.01513 0.0
C1489 C 0.77591 0.44576 0.99376 0.0
C1490 C 0.76724 0.46422 0.01503 0.0
C1491 C 0.7732 0.47128 0.99345 0.0
C1492 C 0.78051 0.46554 0.97202 0.0
H1493 H 0.79614 0.54582 0.9948 0.0
H1494 H 0.7941 0.52361 0.99535 0.0
C1495 C 0.78183 0.45288 0.97212 0.0
C1496 C 0.77243 0.48472 0.9944 0.0
H1497 H 0.76484 0.50965 0.95288 0.0
C1498 C 0.77704 0.49076 0.01951 0.0
C1499 C 0.76765 0.49156 0.97042 0.0
C1500 C 0.76204 0.4855 0.94356 0.0
C1501 C 0.77742 0.50352 0.02081 0.0
C1502 C 0.77322 0.51035 0.99619 0.0
C1503 C 0.76817 0.50433 0.97156 0.0
C1504 C 0.77436 0.52375 0.99527 0.0
C1505 C 0.78237 0.5096 0.04842 0.0
C1506 C 0.76392 0.53112 0.99429 0.0
C1507 C 0.76505 0.54381 0.99377 0.0
C1508 C 0.77665 0.54929 0.99394 0.0
C1509 C 0.78709 0.54185 0.99441 0.0
C1510 C 0.78594 0.52918 0.99503 0.0
H1511 H 0.78225 0.50334 0.06786 0.0
H1512 H 0.79196 0.51239 0.0444 0.0
H1513 H 0.77703 0.5179 0.054 0.0
H1514 H 0.75491 0.52705 0.99422 0.0
H1515 H 0.75686 0.54933 0.99305 0.0
H1516 H 0.54834 0.77559 0.05111 0.0
H1517 H 0.5261 0.77363 0.05304 0.0
H1518 H 0.52457 0.77476 0.95715 0.0
H1519 H 0.54678 0.77667 0.95505 0.0
H1520 H 0.50961 0.79028 0.03178 0.0
H1521 H 0.50299 0.7456 0.97624 0.0
H1522 H 0.51765 0.75059 0.99 0.0
H1523 H 0.51203 0.75606 0.95483 0.0
C1524 C 0.54325 0.77536 0.03046 0.0
C1525 C 0.54927 0.77627 0.00293 0.0
C1526 C 0.53058 0.77418 0.03159 0.0
C1527 C 0.52373 0.77387 0.00523 0.0
C1528 C 0.52972 0.77467 0.97771 0.0
H1529 H 0.44821 0.78004 0.95696 0.0
H1530 H 0.47043 0.77812 0.95872 0.0
C1531 C 0.54239 0.77579 0.97655 0.0
C1532 C 0.51027 0.77359 0.00654 0.0
H1533 H 0.48522 0.75803 0.98207 0.0
C1534 C 0.50427 0.78316 0.02122 0.0
C1535 C 0.50336 0.76429 0.99266 0.0
C1536 C 0.50933 0.75349 0.97779 0.0
C1537 C 0.49151 0.78388 0.02166 0.0
C1538 C 0.48462 0.77471 0.00731 0.0
C1539 C 0.49059 0.76505 0.99297 0.0
C1540 C 0.47118 0.77522 0.00629 0.0
C1541 C 0.48549 0.79463 0.03666 0.0
C1542 C 0.46431 0.77401 0.03242 0.0
C1543 C 0.45163 0.77503 0.03149 0.0
C1544 C 0.44562 0.77726 0.00437 0.0
C1545 C 0.45255 0.77821 0.97814 0.0
C1546 C 0.46523 0.77716 0.9791 0.0
H1547 H 0.49209 0.80206 0.04152 0.0
H1548 H 0.47805 0.79835 0.02256 0.0
H1549 H 0.48141 0.79161 0.05802 0.0
H1550 H 0.46878 0.77232 0.05354 0.0
H1551 H 0.44652 0.77403 0.05198 0.0
H1552 H 0.73204 0.04773 0.46648 0.0
H1553 H 0.73467 0.02556 0.4672 0.0
H1554 H 0.70636 0.02249 0.53345 0.0
H1555 H 0.70364 0.04463 0.53282 0.0
H1556 H 0.7276 0.00861 0.54578 0.0
H1557 H 0.71043 0.00108 0.43068 0.0
H1558 H 0.72268 0.01188 0.43423 0.0
H1559 H 0.70808 0.01522 0.45046 0.0
C1560 C 0.72632 0.04232 0.48104 0.0
C1561 C 0.71759 0.0479 0.49948 0.0
C1562 C 0.72785 0.02968 0.48144 0.0
C1563 C 0.7206 0.02242 0.5001 0.0
C1564 C 0.71203 0.02797 0.51889 0.0
H1565 H 0.7056 0.94757 0.53712 0.0
H1566 H 0.70782 0.96975 0.537 0.0
C1567 C 0.71052 0.04061 0.51857 0.0
C1568 C 0.72183 0.00901 0.49998 0.0
H1569 H 0.71728 0.98378 0.45693 0.0
C1570 C 0.7254 0.00316 0.52634 0.0
C1571 C 0.719 0.00199 0.4745 0.0
C1572 C 0.71474 0.00781 0.44589 0.0
C1573 C 0.72609 0.99041 0.52801 0.0
C1574 C 0.72295 0.98339 0.50278 0.0
C1575 C 0.7197 0.98924 0.47619 0.0
C1576 C 0.7222 0.96995 0.50399 0.0
C1577 C 0.73016 0.98456 0.55674 0.0
C1578 C 0.72943 0.96277 0.48513 0.0
C1579 C 0.72811 0.9501 0.48497 0.0
C1580 C 0.71943 0.94445 0.50344 0.0
C1581 C 0.71229 0.95169 0.52247 0.0
C1582 C 0.71364 0.96433 0.52268 0.0
H1583 H 0.73548 0.99102 0.57071 0.0
H1584 H 0.722 0.98171 0.56962 0.0
H1585 H 0.7358 0.97634 0.55242 0.0
H1586 H 0.736 0.96699 0.47035 0.0
H1587 H 0.73365 0.94475 0.46985 0.0
H1588 H 0.9455 0.73588 0.49453 0.0
H1589 H 0.96768 0.73851 0.49166 0.0
H1590 H 0.97222 0.69949 0.48637 0.0
H1591 H 0.95017 0.69675 0.48977 0.0
H1592 H 0.986 0.72811 0.53059 0.0
H1593 H 0.9911 0.7131 0.41336 0.0
H1594 H 0.97666 0.71784 0.42887 0.0
H1595 H 0.98243 0.70278 0.43612 0.0
C1596 C 0.95123 0.72786 0.49299 0.0
C1597 C 0.94608 0.7161 0.49216 0.0
C1598 C 0.96387 0.72939 0.49117 0.0
C1599 C 0.97151 0.7192 0.48827 0.0
C1600 C 0.96642 0.70747 0.48793 0.0
H1601 H 0.04602 0.69851 0.48477 0.0
H1602 H 0.02383 0.70055 0.48343 0.0
C1603 C 0.95383 0.70593 0.48983 0.0
C1604 C 0.98486 0.72069 0.48635 0.0
H1605 H 0.00932 0.71395 0.44246 0.0
C1606 C 0.99113 0.7252 0.51121 0.0
C1607 C 0.99143 0.71689 0.46095 0.0
C1608 C 0.98507 0.71248 0.43318 0.0
C1609 C 0.00392 0.72543 0.51192 0.0
C1610 C 0.01051 0.72121 0.4869 0.0
C1611 C 0.00421 0.71712 0.46163 0.0
C1612 C 0.02393 0.72023 0.48714 0.0
C1613 C 0.01029 0.72964 0.53987 0.0
C1614 C 0.03129 0.73065 0.48929 0.0
C1615 C 0.04398 0.72953 0.48997 0.0
C1616 C 0.04949 0.71795 0.4883 0.0
C1617 C 0.04206 0.70756 0.48573 0.0
C1618 C 0.02939 0.70869 0.4851 0.0
H1619 H 0.00392 0.73037 0.55902 0.0
H1620 H 0.01778 0.72328 0.5459 0.0
H1621 H 0.01436 0.73877 0.53596 0.0
H1622 H 0.02722 0.73964 0.49035 0.0
H1623 H 0.04949 0.73771 0.49152 0.0
H1624 H 0.27588 0.04857 0.54471 0.0
H1625 H 0.27485 0.02629 0.54509 0.0
H1626 H 0.2785 0.02576 0.44954 0.0
H1627 H 0.28006 0.048 0.44902 0.0
H1628 H 0.25862 0.01041 0.51721 0.0
H1629 H 0.30603 0.0034 0.47708 0.0
H1630 H 0.30061 0.01797 0.49025 0.0
H1631 H 0.29691 0.01288 0.4533 0.0
C1632 C 0.27659 0.04371 0.5238 0.0
C1633 C 0.27818 0.05004 0.49686 0.0
C1634 C 0.27589 0.031 0.52405 0.0
C1635 C 0.2768 0.02441 0.4974 0.0
C1636 C 0.27801 0.0307 0.47039 0.0
H1637 H 0.27733 0.9475 0.45425 0.0
H1638 H 0.27598 0.96978 0.45294 0.0
C1639 C 0.27876 0.0434 0.47011 0.0
C1640 C 0.27661 0.01094 0.49793 0.0
H1641 H 0.29354 0.98581 0.48062 0.0
C1642 C 0.26626 0.00501 0.5093 0.0
C1643 C 0.28662 0.00397 0.48768 0.0
C1644 C 0.29822 0.00986 0.47664 0.0
C1645 C 0.26558 0.99224 0.51024 0.0
C1646 C 0.27555 0.9853 0.49981 0.0
C1647 C 0.28589 0.99122 0.48844 0.0
C1648 C 0.27556 0.97186 0.50079 0.0
C1649 C 0.25415 0.98625 0.52197 0.0
C1650 C 0.27579 0.96573 0.52817 0.0
C1651 C 0.27655 0.95302 0.529 0.0
C1652 C 0.2771 0.94627 0.50244 0.0
C1653 C 0.27675 0.95246 0.47505 0.0
C1654 C 0.27604 0.96516 0.47426 0.0
H1655 H 0.24638 0.99274 0.52306 0.0
H1656 H 0.25151 0.97838 0.50779 0.0
H1657 H 0.2559 0.98277 0.54476 0.0
H1658 H 0.27561 0.97079 0.54887 0.0
H1659 H 0.27673 0.94848 0.5504 0.0
H1660 H 0.04796 0.27838 0.54732 0.0
H1661 H 0.02571 0.27659 0.54821 0.0
H1662 H 0.02505 0.27598 0.45225 0.0
H1663 H 0.04727 0.27781 0.45115 0.0
H1664 H 0.00913 0.29287 0.52304 0.0
H1665 H 0.0039 0.24656 0.47471 0.0
H1666 H 0.01824 0.25213 0.48909 0.0
H1667 H 0.01311 0.25669 0.45275 0.0
C1668 C 0.04307 0.27787 0.52642 0.0
C1669 C 0.04935 0.27823 0.49915 0.0
C1670 C 0.03038 0.27678 0.52697 0.0
C1671 C 0.02378 0.27597 0.50031 0.0
C1672 C 0.03002 0.2763 0.47307 0.0
H1673 H 0.94785 0.27733 0.45065 0.0
H1674 H 0.97017 0.27652 0.45225 0.0
C1675 C 0.0427 0.27736 0.47248 0.0
C1676 C 0.01032 0.27548 0.50095 0.0
H1677 H 0.98582 0.2585 0.47899 0.0
C1678 C 0.00401 0.28532 0.51366 0.0
C1679 C 0.00373 0.26561 0.48859 0.0
C1680 C 0.01008 0.25459 0.47575 0.0
C1681 C 0.99124 0.2857 0.51371 0.0
C1682 C 0.98465 0.27589 0.50111 0.0
C1683 C 0.99094 0.266 0.4886 0.0
C1684 C 0.9712 0.27586 0.50029 0.0
C1685 C 0.98489 0.29674 0.5265 0.0
C1686 C 0.96445 0.27553 0.52679 0.0
C1687 C 0.95174 0.27607 0.52597 0.0
C1688 C 0.94557 0.27688 0.4986 0.0
C1689 C 0.95237 0.27689 0.47207 0.0
C1690 C 0.96508 0.27635 0.47292 0.0
H1691 H 0.99122 0.30458 0.52916 0.0
H1692 H 0.97717 0.29959 0.51211 0.0
H1693 H 0.98117 0.29442 0.54876 0.0
H1694 H 0.96904 0.275 0.5481 0.0
H1695 H 0.94676 0.27613 0.54679 0.0
H1696 H 0.27548 0.34853 0.95103 0.0
H1697 H 0.29312 0.33477 0.95127 0.0
H1698 H 0.28534 0.32508 0.04238 0.0
H1699 H 0.26793 0.33902 0.04247 0.0
H1700 H 0.30985 0.32728 0.03218 0.0
H1701 H 0.288 0.29829 0.94571 0.0
H1702 H 0.29056 0.31381 0.93471 0.0
H1703 H 0.27997 0.31048 0.96418 0.0
C1704 C 0.27764 0.34353 0.97115 0.0
C1705 C 0.27032 0.34474 0.99666 0.0
C1706 C 0.28767 0.33567 0.97125 0.0
C1707 C 0.29036 0.32872 0.99664 0.0
C1708 C 0.2834 0.33035 0.02254 0.0
H1709 H 0.32337 0.25883 0.01287 0.0
H1710 H 0.31047 0.27692 0.01116 0.0
C1711 C 0.27347 0.33831 0.02258 0.0
C1712 C 0.2999 0.31917 0.9959 0.0
H1713 H 0.30726 0.2921 0.96304 0.0
C1714 C 0.30936 0.31962 0.01694 0.0
C1715 C 0.29912 0.30913 0.97619 0.0
C1716 C 0.28882 0.30779 0.95408 0.0
C1717 C 0.31795 0.31017 0.01918 0.0
C1718 C 0.31714 0.30015 -0.00053 0.0
C1719 C 0.30786 0.29984 0.97801 0.0
C1720 C 0.32527 0.28943 0.00193 0.0
C1721 C 0.32748 0.31073 0.04336 0.0
C1722 C 0.33788 0.29049 0.99738 0.0
C1723 C 0.34534 0.28015 -0.0013 0.0
C1724 C 0.34026 0.26859 0.00441 0.0
C1725 C 0.32761 0.26761 0.009 0.0
C1726 C 0.3202 0.27793 0.00777 0.0
H1727 H 0.32525 0.31769 0.0605 0.0
H1728 H 0.32848 0.30173 0.05444 0.0
H1729 H 0.33641 0.31317 0.03336 0.0
H1730 H 0.34194 0.29926 0.99236 0.0
H1731 H 0.35506 0.28121 0.99525 0.0
H1732 H 0.71586 0.35084 0.96909 0.0
H1733 H 0.69827 0.33701 0.96815 0.0
H1734 H 0.71388 0.31626 0.04021 0.0
H1735 H 0.73155 0.32985 0.04098 0.0
H1736 H 0.70699 0.30266 0.98749 0.0
H1737 H 0.6699 0.3326 0.03032 0.0
H1738 H 0.67943 0.33874 0.00132 0.0
H1739 H 0.68586 0.33566 0.03725 0.0
C1740 C 0.7155 0.34336 0.98483 0.0
C1741 C 0.72507 0.34142 0.00512 0.0
C1742 C 0.70541 0.33556 0.98444 0.0
C1743 C 0.70477 0.32572 0.00431 0.0
C1744 C 0.7142 0.32388 0.02488 0.0
H1745 H 0.65115 0.27146 0.04745 0.0
H1746 H 0.66522 0.28883 0.04703 0.0
C1747 C 0.72425 0.33169 0.02538 0.0
C1748 C 0.69475 0.31676 0.00229 0.0
H1749 H 0.66425 0.31282 0.01429 0.0
C1750 C 0.69763 0.30487 0.99323 0.0
C1751 C 0.68261 0.31974 0.00995 0.0
C1752 C 0.6792 0.33235 0.02047 0.0
C1753 C 0.68866 0.2958 0.99172 0.0
C1754 C 0.6765 0.29876 -0.00076 0.0
C1755 C 0.67359 0.31066 0.0083 0.0
C1756 C 0.66687 0.28937 -0.00091 0.0
C1757 C 0.69229 0.28303 0.98276 0.0
C1758 C 0.66295 0.2842 0.97221 0.0
C1759 C 0.65497 0.27427 0.97237 0.0
C1760 C 0.65082 0.26937 -0.00055 0.0
C1761 C 0.65435 0.27495 0.02629 0.0
C1762 C 0.66229 0.2849 0.02608 0.0
H1763 H 0.70235 0.2818 0.98257 0.0
H1764 H 0.68822 0.27623 0.99815 0.0
H1765 H 0.68878 0.28111 0.96006 0.0
H1766 H 0.66638 0.28759 0.95117 0.0
H1767 H 0.65248 0.27011 0.95137 0.0
H1768 H 0.72268 0.65402 0.04247 0.0
H1769 H 0.70513 0.66777 0.04036 0.0
H1770 H 0.7062 0.6668 0.94445 0.0
H1771 H 0.72398 0.65335 0.94633 0.0
H1772 H 0.70639 0.69013 0.96823 0.0
H1773 H 0.66924 0.66256 0.01828 0.0
H1774 H 0.68291 0.66308 0.04025 0.0
H1775 H 0.68316 0.65585 0.00434 0.0
C1776 C 0.71912 0.65667 0.02093 0.0
C1777 C 0.72474 0.65265 0.99456 0.0
C1778 C 0.709 0.66439 0.01977 0.0
C1779 C 0.70428 0.66815 0.99225 0.0
C1780 C 0.70965 0.66389 0.9659 0.0
H1781 H 0.65283 0.72576 0.94603 0.0
H1782 H 0.66616 0.70786 0.94403 0.0
C1783 C 0.71977 0.65617 0.96703 0.0
C1784 C 0.69459 0.6775 0.99098 0.0
H1785 H 0.66555 0.68396 0.01342 0.0
C1786 C 0.6974 0.68874 0.97777 0.0
C1787 C 0.68293 0.67565 0.00366 0.0
C1788 C 0.67931 0.66359 0.01721 0.0
C1789 C 0.68899 0.69835 0.97764 0.0
C1790 C 0.67736 0.69656 0.99057 0.0
C1791 C 0.67447 0.68527 0.00348 0.0
C1792 C 0.66829 0.70651 0.99178 0.0
C1793 C 0.69277 0.71048 0.96461 0.0
C1794 C 0.66472 0.71133 0.01934 0.0
C1795 C 0.65708 0.72152 0.02056 0.0
C1796 C 0.65291 0.72702 0.9942 0.0
C1797 C 0.6561 0.72184 0.96667 0.0
C1798 C 0.66368 0.71162 0.96548 0.0
H1799 H 0.70283 0.71116 0.96193 0.0
H1800 H 0.68855 0.71155 0.94232 0.0
H1801 H 0.68963 0.71814 0.97886 0.0
H1802 H 0.66818 0.70748 0.03987 0.0
H1803 H 0.65483 0.72536 0.04208 0.0
H1804 H 0.27446 0.65232 0.03723 0.0
H1805 H 0.29283 0.66497 0.03476 0.0
H1806 H 0.29356 0.6609 0.9393 0.0
H1807 H 0.27509 0.64835 0.94158 0.0
H1808 H 0.3165 0.66175 0.01145 0.0
H1809 H 0.29061 0.69776 0.95128 0.0
H1810 H 0.28321 0.68497 0.96895 0.0
H1811 H 0.29063 0.68307 0.93358 0.0
C1812 C 0.27866 0.65395 0.01578 0.0
C1813 C 0.27328 0.6495 0.98955 0.0
C1814 C 0.28913 0.66118 0.0144 0.0
C1815 C 0.29439 0.66403 0.98681 0.0
C1816 C 0.28947 0.659 0.96074 0.0
H1817 H 0.34813 0.71991 0.94444 0.0
H1818 H 0.33551 0.70153 0.94138 0.0
C1819 C 0.27894 0.65186 0.96207 0.0
C1820 C 0.30447 0.67298 0.98526 0.0
H1821 H 0.31137 0.70155 0.96038 0.0
C1822 C 0.31544 0.67043 0.00015 0.0
C1823 C 0.30299 0.6843 0.97057 0.0
C1824 C 0.2912 0.68778 0.95539 0.0
C1825 C 0.32498 0.67897 0.00083 0.0
C1826 C 0.32341 0.69035 0.98655 0.0
C1827 C 0.31255 0.69277 0.97113 0.0
C1828 C 0.33248 0.70028 0.98885 0.0
C1829 C 0.33665 0.67577 0.01682 0.0
C1830 C 0.33503 0.70556 0.0166 0.0
C1831 C 0.34215 0.7161 0.0184 0.0
C1832 C 0.34675 0.72158 0.99243 0.0
C1833 C 0.34456 0.71599 0.96478 0.0
C1834 C 0.33744 0.70545 0.96301 0.0
H1835 H 0.33778 0.66574 0.01903 0.0
H1836 H 0.3447 0.67955 0.00501 0.0
H1837 H 0.33642 0.67974 0.03954 0.0
H1838 H 0.33104 0.70187 0.03673 0.0
H1839 H 0.34353 0.72028 0.03997 0.0
H1840 H 0.84024 0.76858 0.45641 0.0
H1841 H 0.82642 0.78603 0.45868 0.0
H1842 H 0.82712 0.78465 0.55456 0.0
H1843 H 0.8411 0.76726 0.55255 0.0
H1844 H 0.80368 0.78437 0.52983 0.0
H1845 H 0.83156 0.82196 0.48272 0.0
H1846 H 0.83146 0.80834 0.46046 0.0
H1847 H 0.8382 0.80804 0.49692 0.0
C1848 C 0.8377 0.77217 0.47799 0.0
C1849 C 0.84174 0.76652 0.50431 0.0
C1850 C 0.82981 0.78215 0.47924 0.0
C1851 C 0.82587 0.7867 0.50678 0.0
C1852 C 0.83011 0.78128 0.5331 0.0
H1853 H 0.77732 0.84905 0.53369 0.0
H1854 H 0.7947 0.83498 0.53623 0.0
C1855 C 0.83802 0.77131 0.53189 0.0
C1856 C 0.81646 0.79633 0.50802 0.0
H1857 H 0.81004 0.82543 0.48591 0.0
C1858 C 0.80511 0.79339 0.52052 0.0
C1859 C 0.8184 0.8081 0.49603 0.0
C1860 C 0.8306 0.81187 0.48351 0.0
C1861 C 0.79548 0.80179 0.52043 0.0
C1862 C 0.79725 0.81335 0.50727 0.0
C1863 C 0.80872 0.81648 0.49571 0.0
C1864 C 0.78713 0.82215 0.50465 0.0
C1865 C 0.78344 0.79821 0.53418 0.0
C1866 C 0.7773 0.81964 0.48567 0.0
C1867 C 0.76741 0.82762 0.48417 0.0
C1868 C 0.76719 0.83824 0.50167 0.0
C1869 C 0.77719 0.84086 0.52021 0.0
C1870 C 0.78713 0.83289 0.52157 0.0
H1871 H 0.78435 0.79012 0.54891 0.0
H1872 H 0.77958 0.80589 0.5473 0.0
H1873 H 0.77686 0.79594 0.51624 0.0
H1874 H 0.77722 0.81141 0.47231 0.0
H1875 H 0.75979 0.8253 0.4699 0.0
H1876 H 0.2267 0.83904 0.54824 0.0
H1877 H 0.20921 0.82516 0.54742 0.0
H1878 H 0.20756 0.82805 0.4518 0.0
H1879 H 0.22502 0.84198 0.4524 0.0
H1880 H 0.18499 0.82761 0.52319 0.0
H1881 H 0.21222 0.79121 0.46823 0.0
H1882 H 0.21916 0.8044 0.48528 0.0
H1883 H 0.21209 0.80565 0.44934 0.0
C1884 C 0.22249 0.83688 0.52708 0.0
C1885 C 0.2273 0.8415 0.50034 0.0
C1886 C 0.21254 0.82893 0.52666 0.0
C1887 C 0.20726 0.82547 0.49953 0.0
C1888 C 0.21169 0.83046 0.47291 0.0
H1889 H 0.1545 0.76974 0.45393 0.0
H1890 H 0.16813 0.78735 0.45308 0.0
C1891 C 0.22166 0.83838 0.47329 0.0
C1892 C 0.19751 0.81617 0.49902 0.0
H1893 H 0.19136 0.78716 0.47613 0.0
C1894 C 0.18634 0.81876 0.51288 0.0
C1895 C 0.19937 0.80465 0.48562 0.0
C1896 C 0.21138 0.80122 0.47147 0.0
C1897 C 0.17687 0.81013 0.51339 0.0
C1898 C 0.17877 0.79859 0.50013 0.0
C1899 C 0.18993 0.79605 0.48615 0.0
C1900 C 0.16948 0.78882 0.50098 0.0
C1901 C 0.16489 0.81349 0.52773 0.0
C1902 C 0.16566 0.78388 0.52823 0.0
C1903 C 0.15778 0.77386 0.52881 0.0
C1904 C 0.15366 0.76857 0.50213 0.0
C1905 C 0.15735 0.77371 0.47489 0.0
C1906 C 0.16519 0.78372 0.47434 0.0
H1907 H 0.16375 0.82354 0.52938 0.0
H1908 H 0.15708 0.80965 0.51505 0.0
H1909 H 0.16461 0.80968 0.5506 0.0
H1910 H 0.16906 0.78754 0.54903 0.0
H1911 H 0.15503 0.77018 0.55014 0.0
H1912 H 0.22165 0.15251 0.4498 0.0
H1913 H 0.20404 0.16618 0.45262 0.0
H1914 H 0.20634 0.16594 0.54841 0.0
H1915 H 0.22426 0.15279 0.54584 0.0
H1916 H 0.1812 0.16455 0.4808 0.0
H1917 H 0.20945 0.20206 0.52755 0.0
H1918 H 0.21606 0.18849 0.51158 0.0
H1919 H 0.20989 0.18816 0.54865 0.0
C1920 C 0.21843 0.1554 0.47147 0.0
C1921 C 0.22448 0.15169 0.49757 0.0
C1922 C 0.20831 0.16311 0.47304 0.0
C1923 C 0.20405 0.16722 0.5007 0.0
C1924 C 0.20964 0.16303 0.52683 0.0
H1925 H 0.15165 0.2234 0.54777 0.0
H1926 H 0.16486 0.20542 0.5492 0.0
C1927 C 0.21981 0.15539 0.5253 0.0
C1928 C 0.19421 0.17642 0.5021 0.0
H1929 H 0.18832 0.20569 0.52352 0.0
C1930 C 0.18272 0.17354 0.49019 0.0
C1931 C 0.19628 0.18815 0.51425 0.0
C1932 C 0.20861 0.19198 0.52599 0.0
C1933 C 0.17319 0.1821 0.49028 0.0
C1934 C 0.1753 0.19382 0.50233 0.0
C1935 C 0.18673 0.19664 0.51452 0.0
C1936 C 0.16602 0.20358 0.50136 0.0
C1937 C 0.16095 0.17854 0.47768 0.0
C1938 C 0.16224 0.2084 0.47396 0.0
C1939 C 0.1547 0.21865 0.47306 0.0
C1940 C 0.15085 0.22428 0.49957 0.0
C1941 C 0.15435 0.21918 0.52699 0.0
C1942 C 0.16192 0.20895 0.52785 0.0
H1943 H 0.15987 0.16847 0.47646 0.0
H1944 H 0.15341 0.18237 0.49131 0.0
H1945 H 0.16009 0.18225 0.4548 0.0
H1946 H 0.16549 0.20451 0.45327 0.0
H1947 H 0.15207 0.22233 0.45163 0.0
H1948 H 0.82294 0.23739 0.50544 0.0
H1949 H 0.81 0.21924 0.50498 0.0
H1950 H 0.84181 0.19643 0.49543 0.0
H1951 H 0.85491 0.21459 0.49653 0.0
H1952 H 0.80889 0.20134 0.45808 0.0
H1953 H 0.82262 0.18183 0.56753 0.0
H1954 H 0.82537 0.19758 0.55784 0.0
H1955 H 0.83465 0.18577 0.54202 0.0
C1956 C 0.82721 0.22851 0.50366 0.0
C1957 C 0.83994 0.2274 0.5012 0.0
C1958 C 0.8198 0.21817 0.50318 0.0
C1959 C 0.82498 0.20654 0.5004 0.0
C1960 C 0.83768 0.20535 0.49791 0.0
H1961 H 0.77821 0.14321 0.46324 0.0
H1962 H 0.79562 0.15726 0.46203 0.0
C1963 C 0.84512 0.21572 0.4983 0.0
C1964 C 0.81695 0.19573 0.49955 0.0
H1965 H 0.80773 0.17112 0.54023 0.0
C1966 C 0.80871 0.19464 0.47584 0.0
C1967 C 0.81674 0.1871 0.52289 0.0
C1968 C 0.82525 0.18809 0.54918 0.0
C1969 C 0.8 0.18527 0.47519 0.0
C1970 C 0.79967 0.17673 0.49875 0.0
C1971 C 0.80811 0.17765 0.52213 0.0
C1972 C 0.78991 0.16748 0.50078 0.0
C1973 C 0.79089 0.1849 0.45002 0.0
C1974 C 0.78118 0.1684 0.52347 0.0
C1975 C 0.77125 0.16045 0.52419 0.0
C1976 C 0.7699 0.15139 0.50227 0.0
C1977 C 0.77891 0.15022 0.48015 0.0
C1978 C 0.78886 0.15819 0.47946 0.0
H1979 H 0.79107 0.19338 0.43648 0.0
H1980 H 0.79304 0.17711 0.43516 0.0
H1981 H 0.78151 0.18356 0.45874 0.0
H1982 H 0.78184 0.17554 0.54006 0.0
H1983 H 0.76441 0.1617 0.54129 0.0
H1984 H 0.1283 0.3072 0.32882 0.0
H1985 H 0.13581 0.31629 0.28262 0.0
H1986 H 0.15883 0.34061 0.33295 0.0
H1987 H 0.15113 0.33185 0.37939 0.0
H1988 H 0.13632 0.34338 0.26589 0.0
H1989 H 0.1815 0.32032 0.27337 0.0
H1990 H 0.16817 0.31474 0.29275 0.0
H1991 H 0.17603 0.32799 0.30619 0.0
C1992 C 0.1348 0.31463 0.33015 0.0
C1993 C 0.13915 0.31877 0.35784 0.0
C1994 C 0.13912 0.31975 0.30372 0.0
C1995 C 0.14792 0.32901 0.30452 0.0
C1996 C 0.15211 0.33336 0.332 0.0
H1997 H 0.19145 0.36428 0.16883 0.0
H1998 H 0.18233 0.35731 0.2155 0.0
C1999 C 0.14776 0.3283 0.35846 0.0
C2000 C 0.15295 0.33393 0.27655 0.0
H2001 H 0.17857 0.33396 0.23352 0.0
C2002 C 0.14555 0.34135 0.25869 0.0
C2003 C 0.16499 0.33123 0.26749 0.0
C2004 C 0.17317 0.32308 0.28576 0.0
C2005 C 0.14996 0.34632 0.232 0.0
C2006 C 0.16197 0.34352 0.22272 0.0
C2007 C 0.16936 0.3361 0.2407 0.0
C2008 C 0.16712 0.34814 0.19443 0.0
C2009 C 0.14181 0.35473 0.21435 0.0
C2010 C 0.16162 0.34524 0.16712 0.0
C2011 C 0.1668 0.34924 0.14044 0.0
C2012 C 0.17765 0.35606 0.14062 0.0
C2013 C 0.18315 0.35893 0.16801 0.0
C2014 C 0.17792 0.355 0.19466 0.0
H2015 H 0.13445 0.35866 0.22839 0.0
H2016 H 0.14712 0.36232 0.20433 0.0
H2017 H 0.13743 0.3495 0.1961 0.0
H2018 H 0.15345 0.33968 0.1664 0.0
H2019 H 0.16247 0.34674 0.11963 0.0
H2020 H 0.65983 0.13011 0.36338 0.0
H2021 H 0.65085 0.13758 0.3169 0.0
H2022 H 0.6838 0.15775 0.29829 0.0
H2023 H 0.69267 0.15056 0.34506 0.0
H2024 H 0.66415 0.1713 0.28807 0.0
H2025 H 0.65824 0.12629 0.23372 0.0
H2026 H 0.65062 0.12732 0.26896 0.0
H2027 H 0.66701 0.12823 0.26735 0.0
C2028 C 0.66515 0.13609 0.34924 0.0
C2029 C 0.67694 0.13976 0.35772 0.0
C2030 C 0.66005 0.1403 0.32266 0.0
C2031 C 0.66675 0.14803 0.30384 0.0
C2032 C 0.67849 0.15176 0.31242 0.0
H2033 H 0.65161 0.16443 0.1192 0.0
H2034 H 0.65941 0.15651 0.16628 0.0
C2035 C 0.68353 0.14768 0.33915 0.0
C2036 C 0.66146 0.15253 0.27555 0.0
H2037 H 0.64906 0.14328 0.20961 0.0
C2038 C 0.66088 0.16518 0.27087 0.0
C2039 C 0.65735 0.14451 0.25297 0.0
C2040 C 0.65844 0.13084 0.25581 0.0
C2041 C 0.65628 0.17005 0.24431 0.0
C2042 C 0.65176 0.16204 0.22217 0.0
C2043 C 0.65239 0.14939 0.22676 0.0
C2044 C 0.64671 0.16661 0.1937 0.0
C2045 C 0.65663 0.1837 0.23994 0.0
C2046 C 0.63682 0.17473 0.19345 0.0
C2047 C 0.6325 0.17948 0.16661 0.0
C2048 C 0.63784 0.17602 0.13941 0.0
C2049 C 0.64745 0.1675 0.13972 0.0
C2050 C 0.65185 0.16287 0.16661 0.0
H2051 H 0.66344 0.1881 0.25477 0.0
H2052 H 0.65886 0.18608 0.21655 0.0
H2053 H 0.64755 0.18758 0.24536 0.0
H2054 H 0.63252 0.17751 0.21406 0.0
H2055 H 0.62516 0.18608 0.16731 0.0
H2056 H 0.86813 0.68048 0.33059 0.0
H2057 H 0.86001 0.67087 0.28565 0.0
H2058 H 0.8309 0.65485 0.33705 0.0
H2059 H 0.8387 0.66477 0.38195 0.0
H2060 H 0.85596 0.64604 0.2733 0.0
H2061 H 0.81291 0.67284 0.27013 0.0
H2062 H 0.82571 0.6771 0.29319 0.0
H2063 H 0.81572 0.66495 0.30449 0.0
C2064 C 0.85993 0.67501 0.33229 0.0
C2065 C 0.854 0.67347 0.35978 0.0
C2066 C 0.85537 0.66945 0.30666 0.0
C2067 C 0.84478 0.6623 0.30802 0.0
C2068 C 0.83898 0.66051 0.33549 0.0
H2069 H 0.80239 0.62647 0.16977 0.0
H2070 H 0.81096 0.63285 0.21758 0.0
C2071 C 0.84352 0.66608 0.36116 0.0
C2072 C 0.83979 0.6568 0.28056 0.0
H2073 H 0.81511 0.65722 0.23431 0.0
C2074 C 0.84702 0.64847 0.26474 0.0
C2075 C 0.82814 0.66001 0.26955 0.0
C2076 C 0.82019 0.66929 0.28503 0.0
C2077 C 0.84288 0.64318 0.23817 0.0
C2078 C 0.83128 0.64648 0.22703 0.0
C2079 C 0.82399 0.6547 0.24303 0.0
C2080 C 0.82665 0.64185 0.19829 0.0
C2081 C 0.85087 0.63405 0.22237 0.0
C2082 C 0.83266 0.6448 0.1717 0.0
C2083 C 0.82782 0.64114 0.14438 0.0
C2084 C 0.81685 0.6345 0.14322 0.0
C2085 C 0.81094 0.63142 0.16997 0.0
C2086 C 0.81578 0.63512 0.19726 0.0
H2087 H 0.85787 0.63013 0.2375 0.0
H2088 H 0.84535 0.62649 0.21292 0.0
H2089 H 0.85569 0.63865 0.20378 0.0
H2090 H 0.84095 0.65018 0.17203 0.0
H2091 H 0.83262 0.64357 0.12416 0.0
H2092 H 0.32482 0.87077 0.34794 0.0
H2093 H 0.33327 0.86255 0.30166 0.0
H2094 H 0.32344 0.82617 0.32924 0.0
H2095 H 0.31504 0.83428 0.37561 0.0
H2096 H 0.35176 0.8449 0.29252 0.0
H2097 H 0.30707 0.82979 0.24734 0.0
H2098 H 0.30835 0.84018 0.27835 0.0
H2099 H 0.31047 0.82408 0.28388 0.0
C2100 C 0.32457 0.86101 0.34429 0.0
C2101 C 0.31918 0.85318 0.36532 0.0
C2102 C 0.32935 0.85634 0.3178 0.0
C2103 C 0.32877 0.8438 0.31187 0.0
C2104 C 0.32372 0.83592 0.33315 0.0
H2105 H 0.35017 0.79702 0.16644 0.0
H2106 H 0.34304 0.80573 0.21341 0.0
C2107 C 0.31892 0.84057 0.3596 0.0
C2108 C 0.33342 0.83893 0.28336 0.0
H2109 H 0.32471 0.8236 0.22079 0.0
C2110 C 0.34586 0.84029 0.27673 0.0
C2111 C 0.32566 0.83296 0.26287 0.0
C2112 C 0.31212 0.83174 0.26825 0.0
C2113 C 0.35081 0.83556 0.25035 0.0
C2114 C 0.34306 0.8295 0.22999 0.0
C2115 C 0.33062 0.82822 0.23655 0.0
C2116 C 0.34767 0.82431 0.20179 0.0
C2117 C 0.36433 0.83683 0.24478 0.0
C2118 C 0.35253 0.83192 0.17966 0.0
C2119 C 0.35655 0.82698 0.15272 0.0
C2120 C 0.3557 0.81436 0.14741 0.0
C2121 C 0.3508 0.80679 0.16968 0.0
C2122 C 0.34679 0.81173 0.19658 0.0
H2123 H 0.36939 0.83911 0.26547 0.0
H2124 H 0.36815 0.82828 0.23533 0.0
H2125 H 0.36589 0.84427 0.22849 0.0
H2126 H 0.35305 0.84169 0.18305 0.0
H2127 H 0.3601 0.83307 0.13583 0.0
H2128 H 0.15886 0.67813 0.62755 0.0
H2129 H 0.16577 0.6692 0.67453 0.0
H2130 H 0.12854 0.66085 0.69796 0.0
H2131 H 0.12152 0.66999 0.65129 0.0
H2132 H 0.14198 0.67306 0.7429 0.0
H2133 H 0.16682 0.63281 0.69874 0.0
H2134 H 0.17101 0.64705 0.68177 0.0
H2135 H 0.15581 0.64121 0.67697 0.0
C2136 C 0.15215 0.67438 0.6427 0.0
C2137 C 0.13965 0.67475 0.63574 0.0
C2138 C 0.15612 0.66918 0.66936 0.0
C2139 C 0.14767 0.66424 0.68946 0.0
C2140 C 0.1352 0.66454 0.68256 0.0
H2141 H 0.16681 0.62311 0.84914 0.0
H2142 H 0.15756 0.62969 0.8022 0.0
C2143 C 0.13122 0.6697 0.65586 0.0
C2144 C 0.15181 0.65934 0.71838 0.0
H2145 H 0.17007 0.63768 0.74983 0.0
C2146 C 0.14804 0.66526 0.74447 0.0
C2147 C 0.1596 0.64909 0.72028 0.0
C2148 C 0.16348 0.64208 0.69299 0.0
C2149 C 0.15219 0.66144 0.77248 0.0
C2150 C 0.16039 0.65152 0.77429 0.0
C2151 C 0.16385 0.64534 0.74828 0.0
C2152 C 0.16576 0.64764 0.80292 0.0
C2153 C 0.14777 0.66804 0.79991 0.0
C2154 C 0.17351 0.65553 0.8186 0.0
C2155 C 0.17887 0.65178 0.84524 0.0
C2156 C 0.17661 0.64004 0.85665 0.0
C2157 C 0.16883 0.63216 0.84081 0.0
C2158 C 0.16349 0.63591 0.8141 0.0
H2159 H 0.13927 0.67326 0.79549 0.0
H2160 H 0.14605 0.66153 0.81838 0.0
H2161 H 0.15488 0.67458 0.80729 0.0
H2162 H 0.17556 0.66452 0.80998 0.0
H2163 H 0.18501 0.65799 0.85654 0.0
H2164 H 0.30048 0.14548 0.66036 0.0
H2165 H 0.30968 0.15244 0.70682 0.0
H2166 H 0.3446 0.13854 0.67839 0.0
H2167 H 0.33558 0.13201 0.6312 0.0
H2168 H 0.32142 0.13924 0.75045 0.0
H2169 H 0.35257 0.17366 0.7006 0.0
H2170 H 0.34028 0.16672 0.67993 0.0
H2171 H 0.35424 0.1585 0.68602 0.0
C2172 C 0.31016 0.14405 0.66377 0.0
C2173 C 0.31733 0.13831 0.64191 0.0
C2174 C 0.31537 0.14794 0.69045 0.0
C2175 C 0.32785 0.14617 0.69582 0.0
C2176 C 0.335 0.1402 0.67441 0.0
H2177 H 0.37209 0.16748 0.84902 0.0
H2178 H 0.36479 0.15764 0.80333 0.0
C2179 C 0.3298 0.13635 0.64761 0.0
C2180 C 0.33328 0.15055 0.72399 0.0
H2181 H 0.35413 0.17053 0.7525 0.0
C2182 C 0.32859 0.14606 0.75091 0.0
C2183 C 0.34264 0.15944 0.72446 0.0
C2184 C 0.34768 0.16496 0.69625 0.0
C2185 C 0.33296 0.15028 0.77836 0.0
C2186 C 0.34218 0.15928 0.77879 0.0
C2187 C 0.34707 0.16359 0.75195 0.0
C2188 C 0.34646 0.1648 0.80688 0.0
C2189 C 0.3277 0.14511 0.8067 0.0
C2190 C 0.33856 0.17211 0.82371 0.0
C2191 C 0.34269 0.17775 0.84966 0.0
C2192 C 0.3548 0.17616 0.85919 0.0
C2193 C 0.36268 0.16876 0.84234 0.0
C2194 C 0.35855 0.16318 0.81625 0.0
H2195 H 0.32285 0.13636 0.80274 0.0
H2196 H 0.33498 0.1436 0.82349 0.0
H2197 H 0.32107 0.15171 0.81615 0.0
H2198 H 0.32923 0.17357 0.81656 0.0
H2199 H 0.3364 0.18332 0.86234 0.0
H2200 H 0.8052 0.36733 0.82902 0.0
H2201 H 0.81342 0.36002 0.78162 0.0
H2202 H 0.83908 0.3373 0.82868 0.0
H2203 H 0.83106 0.34472 0.87626 0.0
H2204 H 0.8489 0.35146 0.77871 0.0
H2205 H 0.80747 0.32448 0.75055 0.0
H2206 H 0.80492 0.34015 0.76064 0.0
H2207 H 0.8107 0.32967 0.78788 0.0
C2208 C 0.8127 0.36089 0.82928 0.0
C2209 C 0.81747 0.35656 0.85635 0.0
C2210 C 0.8173 0.35666 0.80222 0.0
C2211 C 0.82674 0.34804 0.80177 0.0
C2212 C 0.83174 0.34392 0.82867 0.0
H2213 H 0.85145 0.30119 0.66007 0.0
H2214 H 0.84395 0.31007 0.70647 0.0
C2215 C 0.82711 0.3481 0.85577 0.0
C2216 C 0.83125 0.34313 0.77322 0.0
H2217 H 0.82294 0.32552 0.714 0.0
C2218 C 0.84325 0.3458 0.76449 0.0
C2219 C 0.82385 0.33567 0.755 0.0
C2220 C 0.81104 0.33221 0.76398 0.0
C2221 C 0.84802 0.34125 0.73771 0.0
C2222 C 0.84054 0.33395 0.71928 0.0
C2223 C 0.82859 0.33121 0.72815 0.0
C2224 C 0.84508 0.32872 0.69107 0.0
C2225 C 0.86107 0.34409 0.72958 0.0
C2226 C 0.84804 0.3363 0.667 0.0
C2227 C 0.85222 0.33126 0.64031 0.0
C2228 C 0.85347 0.31855 0.63728 0.0
C2229 C 0.85042 0.311 0.66149 0.0
C2230 C 0.84621 0.31605 0.68808 0.0
H2231 H 0.86629 0.34774 0.74882 0.0
H2232 H 0.86575 0.3358 0.72113 0.0
H2233 H 0.86119 0.35104 0.71163 0.0
H2234 H 0.84702 0.34611 0.66878 0.0
H2235 H 0.85432 0.33731 0.62196 0.0
H2236 H 0.65409 0.81166 0.85644 0.0
H2237 H 0.66042 0.82006 0.80857 0.0
H2238 H 0.62484 0.83616 0.79705 0.0
H2239 H 0.61853 0.82813 0.84555 0.0
H2240 H 0.64981 0.81541 0.75292 0.0
H2241 H 0.64826 0.86479 0.78155 0.0
H2242 H 0.6482 0.85297 0.80954 0.0
H2243 H 0.63456 0.85629 0.78891 0.0
C2244 C 0.64767 0.81717 0.84401 0.0
C2245 C 0.63584 0.81932 0.85492 0.0
C2246 C 0.65127 0.82187 0.81655 0.0
C2247 C 0.64314 0.82883 0.79948 0.0
C2248 C 0.6313 0.83097 0.81014 0.0
H2249 H 0.65609 0.86325 0.62631 0.0
H2250 H 0.64608 0.85537 0.67122 0.0
C2251 C 0.62768 0.82627 0.83769 0.0
C2252 C 0.64707 0.83354 0.77018 0.0
H2253 H 0.65341 0.85972 0.73208 0.0
C2254 C 0.65055 0.8251 0.74829 0.0
C2255 C 0.64795 0.84618 0.76424 0.0
C2256 C 0.64464 0.85562 0.78732 0.0
C2257 C 0.65508 0.82897 0.7207 0.0
C2258 C 0.65629 0.84159 0.71508 0.0
C2259 C 0.65246 0.85005 0.73658 0.0
C2260 C 0.66218 0.84617 0.68772 0.0
C2261 C 0.65858 0.81952 0.69781 0.0
C2262 C 0.67454 0.84369 0.68244 0.0
C2263 C 0.68025 0.84815 0.65695 0.0
C2264 C 0.67371 0.85523 0.63631 0.0
C2265 C 0.66132 0.85772 0.64169 0.0
C2266 C 0.65561 0.85329 0.66733 0.0
H2267 H 0.65413 0.8106 0.70226 0.0
H2268 H 0.65607 0.82257 0.67505 0.0
H2269 H 0.6686 0.81813 0.69845 0.0
H2270 H 0.67979 0.83835 0.69817 0.0
H2271 H 0.68977 0.84598 0.65325 0.0
H2272 H 0.84691 0.66056 0.62187 0.0
H2273 H 0.83997 0.65231 0.66958 0.0
H2274 H 0.86417 0.67687 0.71593 0.0
H2275 H 0.87131 0.68499 0.66824 0.0
H2276 H 0.86399 0.65411 0.74084 0.0
H2277 H 0.81673 0.6707 0.72336 0.0
H2278 H 0.82194 0.66075 0.69434 0.0
H2279 H 0.82926 0.67527 0.69984 0.0
C2280 C 0.85076 0.66416 0.64226 0.0
C2281 C 0.85956 0.67347 0.64143 0.0
C2282 C 0.84678 0.65947 0.66946 0.0
C2283 C 0.85136 0.66417 0.69627 0.0
C2284 C 0.86048 0.67316 0.69547 0.0
H2285 H 0.81435 0.65788 0.86558 0.0
H2286 H 0.82438 0.66508 0.82025 0.0
C2287 C 0.86456 0.67776 0.66826 0.0
C2288 C 0.84639 0.65999 0.72515 0.0
H2289 H 0.81998 0.65777 0.7649 0.0
C2290 C 0.85438 0.65493 0.7462 0.0
C2291 C 0.83388 0.66129 0.73224 0.0
C2292 C 0.82497 0.66741 0.71139 0.0
C2293 C 0.85015 0.65095 0.77405 0.0
C2294 C 0.83756 0.65182 0.78066 0.0
C2295 C 0.82961 0.65702 0.75971 0.0
C2296 C 0.83235 0.64757 0.80926 0.0
C2297 C 0.85925 0.64611 0.79631 0.0
C2298 C 0.83355 0.63536 0.8182 0.0
C2299 C 0.8279 0.63126 0.84425 0.0
C2300 C 0.82079 0.63927 0.86142 0.0
C2301 C 0.81969 0.6515 0.85257 0.0
C2302 C 0.82544 0.65562 0.82676 0.0
H2303 H 0.86864 0.64936 0.79141 0.0
H2304 H 0.85681 0.64888 0.81932 0.0
H2305 H 0.85932 0.636 0.79527 0.0
H2306 H 0.83856 0.62891 0.80465 0.0
H2307 H 0.82876 0.62175 0.85043 0.0
H2308 H 0.33823 0.86173 0.62949 0.0
H2309 H 0.34794 0.85495 0.6757 0.0
H2310 H 0.31259 0.84685 0.71295 0.0
H2311 H 0.3028 0.85407 0.66749 0.0
H2312 H 0.32768 0.85884 0.75233 0.0
H2313 H 0.35129 0.81929 0.70047 0.0
H2314 H 0.35462 0.83384 0.684 0.0
H2315 H 0.33945 0.82771 0.68161 0.0
C2316 C 0.33252 0.85863 0.64765 0.0
C2317 C 0.31974 0.85833 0.6447 0.0
C2318 C 0.33809 0.85464 0.6739 0.0
C2319 C 0.33098 0.85021 0.69751 0.0
C2320 C 0.31824 0.85016 0.69489 0.0
H2321 H 0.34707 0.80278 0.84266 0.0
H2322 H 0.34079 0.81282 0.79672 0.0
C2323 C 0.31267 0.85418 0.66877 0.0
C2324 C 0.33672 0.84548 0.72499 0.0
H2325 H 0.35474 0.82257 0.75163 0.0
C2326 C 0.33367 0.85096 0.75222 0.0
C2327 C 0.34442 0.83513 0.72469 0.0
C2328 C 0.34758 0.82856 0.69619 0.0
C2329 C 0.33794 0.84622 0.77929 0.0
C2330 C 0.34566 0.83589 0.77898 0.0
C2331 C 0.34889 0.83055 0.75171 0.0
C2332 C 0.34975 0.82992 0.80677 0.0
C2333 C 0.33374 0.85202 0.80799 0.0
C2334 C 0.35699 0.83618 0.82752 0.0
C2335 C 0.36047 0.8305 0.85406 0.0
C2336 C 0.35683 0.81845 0.86018 0.0
C2337 C 0.34981 0.81215 0.83896 0.0
C2338 C 0.34631 0.81783 0.81255 0.0
H2339 H 0.32574 0.85808 0.80455 0.0
H2340 H 0.33129 0.84496 0.82465 0.0
H2341 H 0.34126 0.85762 0.81732 0.0
H2342 H 0.35993 0.84545 0.82322 0.0
H2343 H 0.36584 0.83563 0.86998 0.0
H2344 H 0.12246 0.32956 0.64594 0.0
H2345 H 0.12956 0.33922 0.69195 0.0
H2346 H 0.1635 0.31946 0.68553 0.0
H2347 H 0.15642 0.30973 0.63972 0.0
H2348 H 0.15325 0.31796 0.74078 0.0
H2349 H 0.15481 0.36614 0.70283 0.0
H2350 H 0.14033 0.3588 0.6974 0.0
H2351 H 0.15348 0.35349 0.67733 0.0
C2352 C 0.13149 0.32741 0.65418 0.0
C2353 C 0.13889 0.31889 0.63929 0.0
C2354 C 0.13555 0.33295 0.68039 0.0
C2355 C 0.14712 0.33017 0.69192 0.0
C2356 C 0.15454 0.32173 0.67697 0.0
H2357 H 0.18934 0.36608 0.8281 0.0
H2358 H 0.1804 0.35861 0.78165 0.0
C2359 C 0.15047 0.31615 0.6509 0.0
C2360 C 0.15134 0.3356 0.72026 0.0
H2361 H 0.15807 0.36262 0.75434 0.0
C2362 C 0.15431 0.32773 0.74377 0.0
C2363 C 0.15281 0.34834 0.72394 0.0
C2364 C 0.1503 0.3572 0.69897 0.0
C2365 C 0.15873 0.33222 0.77091 0.0
C2366 C 0.15994 0.34497 0.77484 0.0
C2367 C 0.15699 0.35286 0.75133 0.0
C2368 C 0.16477 0.35021 0.80279 0.0
C2369 C 0.16238 0.32325 0.7948 0.0
C2370 C 0.15878 0.34822 0.82995 0.0
C2371 C 0.16388 0.35243 0.85651 0.0
C2372 C 0.17499 0.35884 0.8563 0.0
C2373 C 0.18072 0.36124 0.82893 0.0
C2374 C 0.17565 0.35696 0.80241 0.0
H2375 H 0.16377 0.31393 0.78565 0.0
H2376 H 0.17091 0.32618 0.80606 0.0
H2377 H 0.15504 0.32273 0.81175 0.0
H2378 H 0.15023 0.34328 0.83063 0.0
H2379 H 0.15917 0.35063 0.87724 0.0
H2380 H 0.63077 0.19026 0.82628 0.0
H2381 H 0.63823 0.18069 0.78069 0.0
H2382 H 0.65191 0.1503 0.83171 0.0
H2383 H 0.64485 0.16002 0.8776 0.0
H2384 H 0.66876 0.15947 0.79239 0.0
H2385 H 0.62461 0.15144 0.7355 0.0
H2386 H 0.62665 0.16696 0.74724 0.0
H2387 H 0.62565 0.15503 0.77464 0.0
C2388 C 0.63539 0.18155 0.82782 0.0
C2389 C 0.63723 0.17591 0.85557 0.0
C2390 C 0.6395 0.17602 0.80171 0.0
C2391 C 0.64544 0.16469 0.8028 0.0
C2392 C 0.64724 0.15899 0.8304 0.0
H2393 H 0.6658 0.12183 0.64666 0.0
H2394 H 0.65663 0.1288 0.6934 0.0
C2395 C 0.64314 0.16453 0.85656 0.0
C2396 C 0.6504 0.15916 0.77532 0.0
H2397 H 0.64257 0.14963 0.70557 0.0
C2398 C 0.66303 0.15722 0.77349 0.0
C2399 C 0.64287 0.1561 0.75087 0.0
C2400 C 0.62918 0.15737 0.75218 0.0
C2401 C 0.66839 0.15263 0.74749 0.0
C2402 C 0.66094 0.15013 0.72253 0.0
C2403 C 0.64827 0.1517 0.72466 0.0
C2404 C 0.66619 0.14608 0.69388 0.0
C2405 C 0.68199 0.15046 0.74701 0.0
C2406 C 0.67437 0.15361 0.67845 0.0
C2407 C 0.67958 0.14968 0.6518 0.0
C2408 C 0.67664 0.13817 0.63998 0.0
C2409 C 0.66819 0.13077 0.65511 0.0
C2410 C 0.66299 0.13471 0.68184 0.0
H2411 H 0.68578 0.1496 0.76985 0.0
H2412 H 0.68426 0.14207 0.7343 0.0
H2413 H 0.68655 0.1583 0.73605 0.0
H2414 H 0.67672 0.16254 0.68704 0.0
H2415 H 0.68587 0.15568 0.64034 0.0
H2416 H 0.86133 0.33731 0.36985 0.0
H2417 H 0.85433 0.34679 0.32346 0.0
H2418 H 0.84611 0.31129 0.28745 0.0
H2419 H 0.85334 0.30171 0.33323 0.0
H2420 H 0.8625 0.34112 0.26024 0.0
H2421 H 0.81353 0.33218 0.28412 0.0
H2422 H 0.82505 0.33243 0.31288 0.0
H2423 H 0.82365 0.31941 0.28886 0.0
C2424 C 0.85818 0.33151 0.35191 0.0
C2425 C 0.85778 0.31875 0.35535 0.0
C2426 C 0.85415 0.33695 0.32553 0.0
C2427 C 0.8496 0.32972 0.30232 0.0
C2428 C 0.84945 0.317 0.30536 0.0
H2429 H 0.81476 0.33796 0.13327 0.0
H2430 H 0.82429 0.33109 0.17948 0.0
C2431 C 0.85351 0.31156 0.3316 0.0
C2432 C 0.84473 0.33538 0.27501 0.0
H2433 H 0.81841 0.3391 0.23567 0.0
C2434 C 0.85286 0.3408 0.25486 0.0
C2435 C 0.83215 0.33492 0.26829 0.0
C2436 C 0.82303 0.32951 0.28972 0.0
C2437 C 0.84875 0.34539 0.22744 0.0
C2438 C 0.83618 0.34471 0.22046 0.0
C2439 C 0.82805 0.33955 0.24103 0.0
C2440 C 0.83123 0.3489 0.19158 0.0
C2441 C 0.85794 0.3505 0.20577 0.0
C2442 C 0.83204 0.36118 0.183 0.0
C2443 C 0.82661 0.36513 0.15652 0.0
C2444 C 0.82017 0.35687 0.13847 0.0
C2445 C 0.81954 0.34455 0.14694 0.0
C2446 C 0.82501 0.34061 0.17324 0.0
H2447 H 0.8674 0.3477 0.21145 0.0
H2448 H 0.85589 0.34748 0.18271 0.0
H2449 H 0.85753 0.36061 0.20633 0.0
H2450 H 0.83658 0.36777 0.19713 0.0
H2451 H 0.82711 0.37471 0.15068 0.0
H2452 H 0.63333 0.80654 0.16818 0.0
H2453 H 0.64052 0.81703 0.21261 0.0
H2454 H 0.64567 0.85001 0.16175 0.0
H2455 H 0.63918 0.83935 0.11668 0.0
H2456 H 0.66492 0.84557 0.19539 0.0
H2457 H 0.62366 0.84122 0.26513 0.0
H2458 H 0.62862 0.8266 0.25206 0.0
H2459 H 0.62356 0.83794 0.22578 0.0
C2460 C 0.63605 0.816 0.16633 0.0
C2461 C 0.63571 0.82208 0.13877 0.0
C2462 C 0.63996 0.82206 0.19192 0.0
C2463 C 0.64339 0.83438 0.19066 0.0
C2464 C 0.64295 0.84052 0.16329 0.0
H2465 H 0.66034 0.87193 0.35773 0.0
H2466 H 0.65108 0.86665 0.30995 0.0
C2467 C 0.63915 0.83444 0.13758 0.0
C2468 C 0.64821 0.84055 0.21753 0.0
H2469 H 0.64246 0.84536 0.29122 0.0
C2470 C 0.65993 0.84568 0.21624 0.0
C2471 C 0.64162 0.84093 0.24459 0.0
C2472 C 0.62862 0.8365 0.2469 0.0
C2473 C 0.66547 0.85066 0.24162 0.0
C2474 C 0.65926 0.85014 0.26919 0.0
C2475 C 0.6473 0.84556 0.27017 0.0
C2476 C 0.66517 0.85381 0.29746 0.0
C2477 C 0.67793 0.85639 0.23856 0.0
C2478 C 0.67611 0.84828 0.30639 0.0
C2479 C 0.68154 0.85142 0.33341 0.0
C2480 C 0.67601 0.86 0.35238 0.0
C2481 C 0.66496 0.86545 0.34348 0.0
C2482 C 0.6596 0.86237 0.31628 0.0
H2483 H 0.67946 0.85983 0.21559 0.0
H2484 H 0.67915 0.86408 0.25438 0.0
H2485 H 0.68501 0.84942 0.2432 0.0
H2486 H 0.68041 0.84141 0.29261 0.0
H2487 H 0.6901 0.84715 0.33932 0.0
H2488 H 0.14635 0.69446 0.33584 0.0
H2489 H 0.15429 0.6851 0.29046 0.0
H2490 H 0.14383 0.64958 0.32266 0.0
H2491 H 0.13617 0.65878 0.36873 0.0
H2492 H 0.17306 0.66303 0.29185 0.0
H2493 H 0.12876 0.65586 0.23339 0.0
H2494 H 0.13075 0.66792 0.26038 0.0
H2495 H 0.12995 0.65238 0.27252 0.0
C2496 C 0.14583 0.68464 0.33349 0.0
C2497 C 0.14068 0.67736 0.35604 0.0
C2498 C 0.15029 0.67934 0.30746 0.0
C2499 C 0.14957 0.6667 0.30334 0.0
C2500 C 0.14435 0.65938 0.3255 0.0
H2501 H 0.16988 0.62358 0.14777 0.0
H2502 H 0.16113 0.63045 0.19508 0.0
C2503 C 0.13994 0.66466 0.35169 0.0
C2504 C 0.15463 0.66119 0.27608 0.0
H2505 H 0.14662 0.65016 0.20786 0.0
C2506 C 0.16732 0.66015 0.27349 0.0
C2507 C 0.14704 0.65738 0.25247 0.0
C2508 C 0.13335 0.65843 0.25452 0.0
C2509 C 0.17268 0.65546 0.24758 0.0
C2510 C 0.16512 0.65205 0.22342 0.0
C2511 C 0.15239 0.65284 0.22635 0.0
C2512 C 0.17028 0.64795 0.19467 0.0
C2513 C 0.18638 0.6541 0.24647 0.0
C2514 C 0.17811 0.65562 0.17854 0.0
C2515 C 0.18314 0.65171 0.15164 0.0
C2516 C 0.18029 0.64013 0.14019 0.0
C2517 C 0.17219 0.63258 0.15601 0.0
C2518 C 0.16722 0.63647 0.18304 0.0
H2519 H 0.19036 0.65353 0.26916 0.0
H2520 H 0.18907 0.64583 0.23379 0.0
H2521 H 0.19038 0.66219 0.2353 0.0
H2522 H 0.18031 0.66465 0.1867 0.0
H2523 H 0.18917 0.65781 0.13965 0.0
H2524 H 0.31624 0.12071 0.33295 0.0
H2525 H 0.32637 0.12633 0.28632 0.0
H2526 H 0.33961 0.15942 0.32699 0.0
H2527 H 0.32968 0.15379 0.3738 0.0
H2528 H 0.32121 0.14842 0.25465 0.0
H2529 H 0.37012 0.1447 0.28558 0.0
H2530 H 0.35811 0.13726 0.30636 0.0
H2531 H 0.3609 0.1533 0.31116 0.0
C2532 C 0.32151 0.12907 0.33211 0.0
C2533 C 0.32218 0.13682 0.35699 0.0
C2534 C 0.32723 0.13228 0.30547 0.0
C2535 C 0.33384 0.14321 0.30341 0.0
C2536 C 0.33471 0.15085 0.32833 0.0
H2537 H 0.3672 0.18728 0.16858 0.0
H2538 H 0.36039 0.17741 0.2145 0.0
C2539 C 0.32894 0.14769 0.35492 0.0
C2540 C 0.33901 0.1471 0.27459 0.0
H2541 H 0.36562 0.15489 0.24006 0.0
C2542 C 0.33092 0.1497 0.25126 0.0
C2543 C 0.35167 0.14882 0.27048 0.0
C2544 C 0.36074 0.14578 0.29461 0.0
C2545 C 0.33514 0.1544 0.22413 0.0
C2546 C 0.34781 0.15625 0.22007 0.0
C2547 C 0.35591 0.15343 0.24326 0.0
C2548 C 0.35273 0.16163 0.19239 0.0
C2549 C 0.32593 0.15779 0.20054 0.0
C2550 C 0.35095 0.15586 0.16486 0.0
C2551 C 0.35478 0.16149 0.13861 0.0
C2552 C 0.3606 0.17292 0.13951 0.0
C2553 C 0.36282 0.17843 0.16722 0.0
C2554 C 0.35891 0.17283 0.19344 0.0
H2555 H 0.31657 0.1586 0.20982 0.0
H2556 H 0.32839 0.16658 0.18977 0.0
H2557 H 0.32579 0.15061 0.18314 0.0
H2558 H 0.34645 0.14708 0.16367 0.0
H2559 H 0.35314 0.15695 0.11757 0.0
loop_
_geom_bond_atom_site_label_1
_geom_bond_atom_site_label_2
_geom_bond_distance
_geom_bond_site_symmetry_2
_ccdc_geom_bond_type
Li0 N17 1.991 . S
Li0 O60 1.983 . S
Li0 O61 1.969 1_554 S
Li0 O62 1.933 1_554 S
Li1 N25 1.990 . S
Li1 O60 1.970 . S
Li1 O61 1.936 1_554 S
Li1 O63 1.986 . S
Li2 N47 1.991 . S
Li2 O60 1.939 1_556 S
Li2 O62 1.977 . S
Li2 O63 1.969 1_556 S
Li3 N53 1.990 . S
Li3 O61 1.980 . S
Li3 O62 1.970 . S
Li3 O63 1.930 1_556 S
C4 C6 1.348 . S
C4 C7 1.356 . S
C4 O60 1.325 . S
N5 C8 1.314 . S
N5 C9 1.279 . S
C6 C4 1.348 . S
C6 C8 1.353 . S
C6 H64 0.929 . S
C7 C4 1.356 . S
C7 C9 1.358 . S
C7 H65 0.930 . S
C8 N5 1.314 . S
C8 C6 1.353 . S
C8 H66 0.930 . S
C9 N5 1.279 . S
C9 C7 1.358 . S
C9 H67 0.930 . S
C10 C13 1.346 . S
C10 C14 1.357 1_554 S
C10 O61 1.324 1_554 S
C11 N12 1.279 1_556 S
C11 C14 1.358 . S
C11 H68 0.930 . S
N12 C11 1.279 1_554 S
N12 C15 1.314 . S
C13 C10 1.346 . S
C13 C15 1.353 . S
C13 H69 0.929 . S
C14 C10 1.357 1_556 S
C14 C11 1.358 . S
C14 H70 0.930 . S
C15 N12 1.314 . S
C15 C13 1.353 . S
C15 H71 0.930 . S
C16 N17 1.314 1_556 S
C16 C21 1.353 . S
C16 H22 0.930 . S
N17 Li0 1.991 . S
N17 C16 1.314 1_554 S
N17 C19 1.279 . S
C18 C19 1.358 . S
C18 C20 1.359 . S
C18 H72 0.930 . S
C19 N17 1.279 . S
C19 C18 1.358 . S
C19 H23 0.930 . S
C20 C18 1.359 . S
C20 C21 1.345 1_554 S
C21 C16 1.353 . S
C21 C20 1.345 1_556 S
C21 H73 0.929 . S
H22 C16 0.930 . S
H23 C19 0.930 . S
C24 N25 1.314 . S
C24 C26 1.353 . S
C24 H30 0.930 . S
N25 Li1 1.990 . S
N25 C24 1.314 . S
N25 C28 1.279 . S
C26 C24 1.353 . S
C26 C29 1.348 . S
C26 H74 0.929 . S
C27 C28 1.358 . S
C27 C29 1.356 . S
C27 H75 0.930 . S
C28 N25 1.279 . S
C28 C27 1.358 . S
C28 H31 0.930 . S
C29 C26 1.348 . S
C29 C27 1.356 . S
H30 C24 0.930 . S
H31 C28 0.930 . S
C32 C34 1.348 . S
C32 C35 1.356 . S
C32 O62 1.325 . S
N33 C36 1.314 . S
N33 C37 1.279 . S
C34 C32 1.348 . S
C34 C36 1.353 . S
C34 H76 0.929 . S
C35 C32 1.356 . S
C35 C37 1.358 . S
C35 H77 0.930 . S
C36 N33 1.314 . S
C36 C34 1.353 . S
C36 H78 0.930 . S
C37 N33 1.279 . S
C37 C35 1.358 . S
C37 H79 0.930 . S
C38 C39 1.347 1_554 S
C38 C40 1.357 . S
C38 O63 1.324 . S
C39 C38 1.347 1_556 S
C39 C41 1.353 . S
C39 H80 0.929 . S
C40 C38 1.357 . S
C40 C42 1.358 . S
C40 H81 0.930 . S
C41 C39 1.353 . S
C41 N43 1.314 . S
C41 H82 0.930 . S
C42 C40 1.358 . S
C42 N43 1.279 1_554 S
C42 H83 0.930 . S
N43 C41 1.314 . S
N43 C42 1.279 1_556 S
C44 C46 1.353 . S
C44 N47 1.314 1_554 S
C44 H50 0.930 . S
C45 N47 1.279 . S
C45 C48 1.358 . S
C45 H51 0.930 . S
C46 C44 1.353 . S
C46 C49 1.345 . S
C46 H84 0.929 . S
N47 Li2 1.991 . S
N47 C44 1.314 1_556 S
N47 C45 1.279 . S
C48 C45 1.358 . S
C48 C49 1.359 1_556 S
C48 H85 0.930 . S
C49 C46 1.345 . S
C49 C48 1.359 1_554 S
H50 C44 0.930 . S
H51 C45 0.930 . S
C52 N53 1.314 . S
C52 C54 1.353 . S
C52 H58 0.930 . S
N53 Li3 1.990 . S
N53 C52 1.314 . S
N53 C56 1.279 . S
C54 C52 1.353 . S
C54 C57 1.348 . S
C54 H86 0.929 . S
C55 C56 1.358 . S
C55 C57 1.356 . S
C55 H87 0.930 . S
C56 N53 1.279 . S
C56 C55 1.358 . S
C56 H59 0.930 . S
C57 C54 1.348 . S
C57 C55 1.356 . S
H58 C52 0.930 . S
H59 C56 0.930 . S
O60 Li0 1.983 . S
O60 Li1 1.970 . S
O60 Li2 1.939 1_554 S
O60 C4 1.325 . S
O61 Li0 1.969 1_556 S
O61 Li1 1.936 1_556 S
O61 Li3 1.980 . S
O61 C10 1.324 1_556 S
O62 Li0 1.933 1_556 S
O62 Li2 1.977 . S
O62 Li3 1.970 . S
O62 C32 1.325 . S
O63 Li1 1.986 . S
O63 Li2 1.969 1_554 S
O63 Li3 1.930 1_554 S
O63 C38 1.324 . S
H64 C6 0.929 . S
H65 C7 0.930 . S
H66 C8 0.930 . S
H67 C9 0.930 . S
H68 C11 0.930 . S
H69 C13 0.929 . S
H70 C14 0.930 . S
H71 C15 0.930 . S
H72 C18 0.930 . S
H73 C21 0.929 . S
H74 C26 0.929 . S
H75 C27 0.930 . S
H76 C34 0.929 . S
H77 C35 0.930 . S
H78 C36 0.930 . S
H79 C37 0.930 . S
H80 C39 0.929 . S
H81 C40 0.930 . S
H82 C41 0.930 . S
H83 C42 0.930 . S
H84 C46 0.929 . S
H85 C48 0.930 . S
H86 C54 0.929 . S
H87 C55 0.930 . S
Li88 N105 1.991 . S
Li88 O148 1.983 . S
Li88 O149 1.969 1_554 S
Li88 O150 1.933 1_554 S
Li89 N113 1.990 . S
Li89 O148 1.970 . S
Li89 O149 1.936 1_554 S
Li89 O151 1.986 . S
Li90 N135 1.991 . S
Li90 O148 1.939 1_556 S
Li90 O150 1.977 . S
Li90 O151 1.969 1_556 S
Li91 N141 1.990 . S
Li91 O149 1.980 . S
Li91 O150 1.970 . S
Li91 O151 1.930 1_556 S
C92 C94 1.348 . S
C92 C95 1.356 . S
C92 O148 1.325 . S
N93 C96 1.314 . S
N93 C97 1.279 . S
C94 C92 1.348 . S
C94 C96 1.353 . S
C94 H152 0.929 . S
C95 C92 1.356 . S
C95 C97 1.358 . S
C95 H153 0.930 . S
C96 N93 1.314 . S
C96 C94 1.353 . S
C96 H154 0.930 . S
C97 N93 1.279 . S
C97 C95 1.358 . S
C97 H155 0.930 . S
C98 C101 1.346 . S
C98 C102 1.357 1_554 S
C98 O149 1.324 1_554 S
C99 N100 1.279 1_556 S
C99 C102 1.358 . S
C99 H156 0.930 . S
N100 C99 1.279 1_554 S
N100 C103 1.314 . S
C101 C98 1.346 . S
C101 C103 1.353 . S
C101 H157 0.929 . S
C102 C98 1.357 1_556 S
C102 C99 1.358 . S
C102 H158 0.930 . S
C103 N100 1.314 . S
C103 C101 1.353 . S
C103 H159 0.930 . S
C104 N105 1.314 1_556 S
C104 C109 1.353 . S
C104 H110 0.930 . S
N105 Li88 1.991 . S
N105 C104 1.314 1_554 S
N105 C107 1.279 . S
C106 C107 1.358 . S
C106 C108 1.359 . S
C106 H160 0.930 . S
C107 N105 1.279 . S
C107 C106 1.358 . S
C107 H111 0.930 . S
C108 C106 1.359 . S
C108 C109 1.345 1_554 S
C109 C104 1.353 . S
C109 C108 1.345 1_556 S
C109 H161 0.929 . S
H110 C104 0.930 . S
H111 C107 0.930 . S
C112 N113 1.314 . S
C112 C114 1.353 . S
C112 H118 0.930 . S
N113 Li89 1.990 . S
N113 C112 1.314 . S
N113 C116 1.279 . S
C114 C112 1.353 . S
C114 C117 1.348 . S
C114 H162 0.929 . S
C115 C116 1.358 . S
C115 C117 1.356 . S
C115 H163 0.930 . S
C116 N113 1.279 . S
C116 C115 1.358 . S
C116 H119 0.930 . S
C117 C114 1.348 . S
C117 C115 1.356 . S
H118 C112 0.930 . S
H119 C116 0.930 . S
C120 C122 1.348 . S
C120 C123 1.356 . S
C120 O150 1.325 . S
N121 C124 1.314 . S
N121 C125 1.279 . S
C122 C120 1.348 . S
C122 C124 1.353 . S
C122 H164 0.929 . S
C123 C120 1.356 . S
C123 C125 1.358 . S
C123 H165 0.930 . S
C124 N121 1.314 . S
C124 C122 1.353 . S
C124 H166 0.930 . S
C125 N121 1.279 . S
C125 C123 1.358 . S
C125 H167 0.930 . S
C126 C127 1.347 1_554 S
C126 C128 1.357 . S
C126 O151 1.324 . S
C127 C126 1.347 1_556 S
C127 C129 1.353 . S
C127 H168 0.929 . S
C128 C126 1.357 . S
C128 C130 1.358 . S
C128 H169 0.930 . S
C129 C127 1.353 . S
C129 N131 1.314 . S
C129 H170 0.930 . S
C130 C128 1.358 . S
C130 N131 1.279 1_554 S
C130 H171 0.930 . S
N131 C129 1.314 . S
N131 C130 1.279 1_556 S
C132 C134 1.353 . S
C132 N135 1.314 1_554 S
C132 H138 0.930 . S
C133 N135 1.279 . S
C133 C136 1.358 . S
C133 H139 0.930 . S
C134 C132 1.353 . S
C134 C137 1.345 . S
C134 H172 0.929 . S
N135 Li90 1.991 . S
N135 C132 1.314 1_556 S
N135 C133 1.279 . S
C136 C133 1.358 . S
C136 C137 1.359 1_556 S
C136 H173 0.930 . S
C137 C134 1.345 . S
C137 C136 1.359 1_554 S
H138 C132 0.930 . S
H139 C133 0.930 . S
C140 N141 1.314 . S
C140 C142 1.353 . S
C140 H146 0.930 . S
N141 Li91 1.990 . S
N141 C140 1.314 . S
N141 C144 1.279 . S
C142 C140 1.353 . S
C142 C145 1.348 . S
C142 H174 0.929 . S
C143 C144 1.358 . S
C143 C145 1.356 . S
C143 H175 0.930 . S
C144 N141 1.279 . S
C144 C143 1.358 . S
C144 H147 0.930 . S
C145 C142 1.348 . S
C145 C143 1.356 . S
H146 C140 0.930 . S
H147 C144 0.930 . S
O148 Li88 1.983 . S
O148 Li89 1.970 . S
O148 Li90 1.939 1_554 S
O148 C92 1.325 . S
O149 Li88 1.969 1_556 S
O149 Li89 1.936 1_556 S
O149 Li91 1.980 . S
O149 C98 1.324 1_556 S
O150 Li88 1.933 1_556 S
O150 Li90 1.977 . S
O150 Li91 1.970 . S
O150 C120 1.325 . S
O151 Li89 1.986 . S
O151 Li90 1.969 1_554 S
O151 Li91 1.930 1_554 S
O151 C126 1.324 . S
H152 C94 0.929 . S
H153 C95 0.930 . S
H154 C96 0.930 . S
H155 C97 0.930 . S
H156 C99 0.930 . S
H157 C101 0.929 . S
H158 C102 0.930 . S
H159 C103 0.930 . S
H160 C106 0.930 . S
H161 C109 0.929 . S
H162 C114 0.929 . S
H163 C115 0.930 . S
H164 C122 0.929 . S
H165 C123 0.930 . S
H166 C124 0.930 . S
H167 C125 0.930 . S
H168 C127 0.929 . S
H169 C128 0.930 . S
H170 C129 0.930 . S
H171 C130 0.930 . S
H172 C134 0.929 . S
H173 C136 0.930 . S
H174 C142 0.929 . S
H175 C143 0.930 . S
Li176 N193 1.990 . S
Li176 O236 1.936 1_554 S
Li176 O237 1.970 . S
Li176 O238 1.986 . S
Li177 N201 1.991 . S
Li177 O236 1.969 1_554 S
Li177 O237 1.983 . S
Li177 O239 1.933 1_554 S
Li178 N223 1.990 . S
Li178 O236 1.980 . S
Li178 O238 1.930 1_556 S
Li178 O239 1.970 . S
Li179 N229 1.991 . S
Li179 O237 1.939 1_556 S
Li179 O238 1.969 1_556 S
Li179 O239 1.977 . S
C180 C182 1.346 . S
C180 C183 1.357 1_554 S
C180 O236 1.324 1_554 S
N181 C184 1.314 . S
N181 C185 1.279 1_554 S
C182 C180 1.346 . S
C182 C184 1.353 . S
C182 H240 0.929 . S
C183 C180 1.357 1_556 S
C183 C185 1.358 . S
C183 H241 0.930 . S
C184 N181 1.314 . S
C184 C182 1.353 . S
C184 H242 0.930 . S
C185 N181 1.279 1_556 S
C185 C183 1.358 . S
C185 H243 0.930 . S
C186 C189 1.348 . S
C186 C190 1.356 . S
C186 O237 1.325 . S
C187 N188 1.279 . S
C187 C190 1.358 . S
C187 H244 0.930 . S
N188 C187 1.279 . S
N188 C191 1.314 . S
C189 C186 1.348 . S
C189 C191 1.353 . S
C189 H245 0.929 . S
C190 C186 1.356 . S
C190 C187 1.358 . S
C190 H246 0.930 . S
C191 N188 1.314 . S
C191 C189 1.353 . S
C191 H247 0.930 . S
C192 N193 1.314 . S
C192 C197 1.353 . S
C192 H198 0.930 . S
N193 Li176 1.990 . S
N193 C192 1.314 . S
N193 C195 1.279 . S
C194 C195 1.358 . S
C194 C196 1.356 . S
C194 H248 0.930 . S
C195 N193 1.279 . S
C195 C194 1.358 . S
C195 H199 0.930 . S
C196 C194 1.356 . S
C196 C197 1.348 . S
C197 C192 1.353 . S
C197 C196 1.348 . S
C197 H249 0.929 . S
H198 C192 0.930 . S
H199 C195 0.930 . S
C200 N201 1.314 1_556 S
C200 C202 1.353 . S
C200 H206 0.930 . S
N201 Li177 1.991 . S
N201 C200 1.314 1_554 S
N201 C204 1.279 . S
C202 C200 1.353 . S
C202 C205 1.345 1_556 S
C202 H250 0.929 . S
C203 C204 1.358 . S
C203 C205 1.359 . S
C203 H251 0.930 . S
C204 N201 1.279 . S
C204 C203 1.358 . S
C204 H207 0.930 . S
C205 C202 1.345 1_554 S
C205 C203 1.359 . S
H206 C200 0.930 . S
H207 C204 0.930 . S
C208 C210 1.347 1_554 S
C208 C211 1.357 . S
C208 O238 1.324 . S
N209 C212 1.314 . S
N209 C213 1.279 1_556 S
C210 C208 1.347 1_556 S
C210 C212 1.353 . S
C210 H252 0.929 . S
C211 C208 1.357 . S
C211 C213 1.358 . S
C211 H253 0.930 . S
C212 N209 1.314 . S
C212 C210 1.353 . S
C212 H254 0.930 . S
C213 N209 1.279 1_554 S
C213 C211 1.358 . S
C213 H255 0.930 . S
C214 C215 1.348 . S
C214 C216 1.356 . S
C214 O239 1.325 . S
C215 C214 1.348 . S
C215 C217 1.353 . S
C215 H256 0.929 . S
C216 C214 1.356 . S
C216 C218 1.358 . S
C216 H257 0.930 . S
C217 C215 1.353 . S
C217 N219 1.314 . S
C217 H258 0.930 . S
C218 C216 1.358 . S
C218 N219 1.279 . S
C218 H259 0.930 . S
N219 C217 1.314 . S
N219 C218 1.279 . S
C220 C222 1.353 . S
C220 N223 1.314 . S
C220 H226 0.930 . S
C221 N223 1.279 . S
C221 C224 1.358 . S
C221 H227 0.930 . S
C222 C220 1.353 . S
C222 C225 1.348 . S
C222 H260 0.929 . S
N223 Li178 1.990 . S
N223 C220 1.314 . S
N223 C221 1.279 . S
C224 C221 1.358 . S
C224 C225 1.356 . S
C224 H261 0.930 . S
C225 C222 1.348 . S
C225 C224 1.356 . S
H226 C220 0.930 . S
H227 C221 0.930 . S
C228 N229 1.314 1_554 S
C228 C230 1.353 . S
C228 H234 0.930 . S
N229 Li179 1.991 . S
N229 C228 1.314 1_556 S
N229 C232 1.279 . S
C230 C228 1.353 . S
C230 C233 1.345 . S
C230 H262 0.929 . S
C231 C232 1.358 . S
C231 C233 1.359 1_556 S
C231 H263 0.930 . S
C232 N229 1.279 . S
C232 C231 1.358 . S
C232 H235 0.930 . S
C233 C230 1.345 . S
C233 C231 1.359 1_554 S
H234 C228 0.930 . S
H235 C232 0.930 . S
O236 Li176 1.936 1_556 S
O236 Li177 1.969 1_556 S
O236 Li178 1.980 . S
O236 C180 1.324 1_556 S
O237 Li176 1.970 . S
O237 Li177 1.983 . S
O237 Li179 1.939 1_554 S
O237 C186 1.325 . S
O238 Li176 1.986 . S
O238 Li178 1.930 1_554 S
O238 Li179 1.969 1_554 S
O238 C208 1.324 . S
O239 Li177 1.933 1_556 S
O239 Li178 1.970 . S
O239 Li179 1.977 . S
O239 C214 1.325 . S
H240 C182 0.929 . S
H241 C183 0.930 . S
H242 C184 0.930 . S
H243 C185 0.930 . S
H244 C187 0.930 . S
H245 C189 0.929 . S
H246 C190 0.930 . S
H247 C191 0.930 . S
H248 C194 0.930 . S
H249 C197 0.929 . S
H250 C202 0.929 . S
H251 C203 0.930 . S
H252 C210 0.929 . S
H253 C211 0.930 . S
H254 C212 0.930 . S
H255 C213 0.930 . S
H256 C215 0.929 . S
H257 C216 0.930 . S
H258 C217 0.930 . S
H259 C218 0.930 . S
H260 C222 0.929 . S
H261 C224 0.930 . S
H262 C230 0.929 . S
H263 C231 0.930 . S
Li264 N281 1.990 . S
Li264 O324 1.936 1_554 S
Li264 O325 1.970 . S
Li264 O326 1.986 . S
Li265 N289 1.991 . S
Li265 O324 1.969 1_554 S
Li265 O325 1.983 . S
Li265 O327 1.933 1_554 S
Li266 N311 1.990 . S
Li266 O324 1.980 . S
Li266 O326 1.930 1_556 S
Li266 O327 1.970 . S
Li267 N317 1.991 . S
Li267 O325 1.939 1_556 S
Li267 O326 1.969 1_556 S
Li267 O327 1.977 . S
C268 C270 1.346 . S
C268 C271 1.357 1_554 S
C268 O324 1.324 1_554 S
N269 C272 1.314 . S
N269 C273 1.279 1_554 S
C270 C268 1.346 . S
C270 C272 1.353 . S
C270 H328 0.929 . S
C271 C268 1.357 1_556 S
C271 C273 1.358 . S
C271 H329 0.930 . S
C272 N269 1.314 . S
C272 C270 1.353 . S
C272 H330 0.930 . S
C273 N269 1.279 1_556 S
C273 C271 1.358 . S
C273 H331 0.930 . S
C274 C277 1.348 . S
C274 C278 1.356 . S
C274 O325 1.325 . S
C275 N276 1.279 . S
C275 C278 1.358 . S
C275 H332 0.930 . S
N276 C275 1.279 . S
N276 C279 1.314 . S
C277 C274 1.348 . S
C277 C279 1.353 . S
C277 H333 0.929 . S
C278 C274 1.356 . S
C278 C275 1.358 . S
C278 H334 0.930 . S
C279 N276 1.314 . S
C279 C277 1.353 . S
C279 H335 0.930 . S
C280 N281 1.314 . S
C280 C285 1.353 . S
C280 H286 0.930 . S
N281 Li264 1.990 . S
N281 C280 1.314 . S
N281 C283 1.279 . S
C282 C283 1.358 . S
C282 C284 1.356 . S
C282 H336 0.930 . S
C283 N281 1.279 . S
C283 C282 1.358 . S
C283 H287 0.930 . S
C284 C282 1.356 . S
C284 C285 1.348 . S
C285 C280 1.353 . S
C285 C284 1.348 . S
C285 H337 0.929 . S
H286 C280 0.930 . S
H287 C283 0.930 . S
C288 N289 1.314 1_556 S
C288 C290 1.353 . S
C288 H294 0.930 . S
N289 Li265 1.991 . S
N289 C288 1.314 1_554 S
N289 C292 1.279 . S
C290 C288 1.353 . S
C290 C293 1.345 1_556 S
C290 H338 0.929 . S
C291 C292 1.358 . S
C291 C293 1.359 . S
C291 H339 0.930 . S
C292 N289 1.279 . S
C292 C291 1.358 . S
C292 H295 0.930 . S
C293 C290 1.345 1_554 S
C293 C291 1.359 . S
H294 C288 0.930 . S
H295 C292 0.930 . S
C296 C298 1.347 1_554 S
C296 C299 1.357 . S
C296 O326 1.324 . S
N297 C300 1.314 . S
N297 C301 1.279 1_556 S
C298 C296 1.347 1_556 S
C298 C300 1.353 . S
C298 H340 0.929 . S
C299 C296 1.357 . S
C299 C301 1.358 . S
C299 H341 0.930 . S
C300 N297 1.314 . S
C300 C298 1.353 . S
C300 H342 0.930 . S
C301 N297 1.279 1_554 S
C301 C299 1.358 . S
C301 H343 0.930 . S
C302 C303 1.348 . S
C302 C304 1.356 . S
C302 O327 1.325 . S
C303 C302 1.348 . S
C303 C305 1.353 . S
C303 H344 0.929 . S
C304 C302 1.356 . S
C304 C306 1.358 . S
C304 H345 0.930 . S
C305 C303 1.353 . S
C305 N307 1.314 . S
C305 H346 0.930 . S
C306 C304 1.358 . S
C306 N307 1.279 . S
C306 H347 0.930 . S
N307 C305 1.314 . S
N307 C306 1.279 . S
C308 C310 1.353 . S
C308 N311 1.314 . S
C308 H314 0.930 . S
C309 N311 1.279 . S
C309 C312 1.358 . S
C309 H315 0.930 . S
C310 C308 1.353 . S
C310 C313 1.348 . S
C310 H348 0.929 . S
N311 Li266 1.990 . S
N311 C308 1.314 . S
N311 C309 1.279 . S
C312 C309 1.358 . S
C312 C313 1.356 . S
C312 H349 0.930 . S
C313 C310 1.348 . S
C313 C312 1.356 . S
H314 C308 0.930 . S
H315 C309 0.930 . S
C316 N317 1.314 1_554 S
C316 C318 1.353 . S
C316 H322 0.930 . S
N317 Li267 1.991 . S
N317 C316 1.314 1_556 S
N317 C320 1.279 . S
C318 C316 1.353 . S
C318 C321 1.345 . S
C318 H350 0.929 . S
C319 C320 1.358 . S
C319 C321 1.359 1_556 S
C319 H351 0.930 . S
C320 N317 1.279 . S
C320 C319 1.358 . S
C320 H323 0.930 . S
C321 C318 1.345 . S
C321 C319 1.359 1_554 S
H322 C316 0.930 . S
H323 C320 0.930 . S
O324 Li264 1.936 1_556 S
O324 Li265 1.969 1_556 S
O324 Li266 1.980 . S
O324 C268 1.324 1_556 S
O325 Li264 1.970 . S
O325 Li265 1.983 . S
O325 Li267 1.939 1_554 S
O325 C274 1.325 . S
O326 Li264 1.986 . S
O326 Li266 1.930 1_554 S
O326 Li267 1.969 1_554 S
O326 C296 1.324 . S
O327 Li265 1.933 1_556 S
O327 Li266 1.970 . S
O327 Li267 1.977 . S
O327 C302 1.325 . S
H328 C270 0.929 . S
H329 C271 0.930 . S
H330 C272 0.930 . S
H331 C273 0.930 . S
H332 C275 0.930 . S
H333 C277 0.929 . S
H334 C278 0.930 . S
H335 C279 0.930 . S
H336 C282 0.930 . S
H337 C285 0.929 . S
H338 C290 0.929 . S
H339 C291 0.930 . S
H340 C298 0.929 . S
H341 C299 0.930 . S
H342 C300 0.930 . S
H343 C301 0.930 . S
H344 C303 0.929 . S
H345 C304 0.930 . S
H346 C305 0.930 . S
H347 C306 0.930 . S
H348 C310 0.929 . S
H349 C312 0.930 . S
H350 C318 0.929 . S
H351 C319 0.930 . S
Li352 N369 1.990 . S
Li352 O412 1.936 1_554 S
Li352 O413 1.970 . S
Li352 O414 1.986 . S
Li353 N377 1.991 . S
Li353 O412 1.969 1_554 S
Li353 O413 1.983 . S
Li353 O415 1.933 1_554 S
Li354 N399 1.990 . S
Li354 O412 1.980 . S
Li354 O414 1.930 1_556 S
Li354 O415 1.970 . S
Li355 N405 1.991 . S
Li355 O413 1.939 1_556 S
Li355 O414 1.969 1_556 S
Li355 O415 1.977 . S
C356 C358 1.347 . S
C356 C359 1.357 1_554 S
C356 O412 1.324 1_554 S
N357 C360 1.314 . S
N357 C361 1.279 1_554 S
C358 C356 1.347 . S
C358 C360 1.353 . S
C358 H416 0.929 . S
C359 C356 1.357 1_556 S
C359 C361 1.358 . S
C359 H417 0.930 . S
C360 N357 1.314 . S
C360 C358 1.353 . S
C360 H418 0.930 . S
C361 N357 1.279 1_556 S
C361 C359 1.358 . S
C361 H419 0.930 . S
C362 C365 1.348 . S
C362 C366 1.356 . S
C362 O413 1.325 . S
C363 N364 1.279 . S
C363 C366 1.358 . S
C363 H420 0.930 . S
N364 C363 1.279 . S
N364 C367 1.314 . S
C365 C362 1.348 . S
C365 C367 1.353 . S
C365 H421 0.929 . S
C366 C362 1.356 . S
C366 C363 1.358 . S
C366 H422 0.930 . S
C367 N364 1.314 . S
C367 C365 1.353 . S
C367 H423 0.930 . S
C368 N369 1.314 . S
C368 C373 1.353 . S
C368 H374 0.930 . S
N369 Li352 1.990 . S
N369 C368 1.314 . S
N369 C371 1.279 . S
C370 C371 1.358 . S
C370 C372 1.356 . S
C370 H424 0.930 . S
C371 N369 1.279 . S
C371 C370 1.358 . S
C371 H375 0.930 . S
C372 C370 1.356 . S
C372 C373 1.348 . S
C373 C368 1.353 . S
C373 C372 1.348 . S
C373 H425 0.929 . S
H374 C368 0.930 . S
H375 C371 0.930 . S
C376 N377 1.314 1_556 S
C376 C378 1.353 . S
C376 H382 0.930 . S
N377 Li353 1.991 . S
N377 C376 1.314 1_554 S
N377 C380 1.279 . S
C378 C376 1.353 . S
C378 C381 1.345 1_556 S
C378 H426 0.929 . S
C379 C380 1.358 . S
C379 C381 1.359 . S
C379 H427 0.930 . S
C380 N377 1.279 . S
C380 C379 1.358 . S
C380 H383 0.930 . S
C381 C378 1.345 1_554 S
C381 C379 1.359 . S
H382 C376 0.930 . S
H383 C380 0.930 . S
C384 C386 1.346 1_554 S
C384 C387 1.357 . S
C384 O414 1.324 . S
N385 C388 1.314 . S
N385 C389 1.279 1_556 S
C386 C384 1.346 1_556 S
C386 C388 1.353 . S
C386 H428 0.929 . S
C387 C384 1.357 . S
C387 C389 1.358 . S
C387 H429 0.930 . S
C388 N385 1.314 . S
C388 C386 1.353 . S
C388 H430 0.930 . S
C389 N385 1.279 1_554 S
C389 C387 1.358 . S
C389 H431 0.930 . S
C390 C391 1.348 . S
C390 C392 1.356 . S
C390 O415 1.325 . S
C391 C390 1.348 . S
C391 C393 1.353 . S
C391 H432 0.929 . S
C392 C390 1.356 . S
C392 C394 1.358 . S
C392 H433 0.930 . S
C393 C391 1.353 . S
C393 N395 1.314 . S
C393 H434 0.930 . S
C394 C392 1.358 . S
C394 N395 1.279 . S
C394 H435 0.930 . S
N395 C393 1.314 . S
N395 C394 1.279 . S
C396 C398 1.353 . S
C396 N399 1.314 . S
C396 H402 0.930 . S
C397 N399 1.279 . S
C397 C400 1.358 . S
C397 H403 0.930 . S
C398 C396 1.353 . S
C398 C401 1.348 . S
C398 H436 0.929 . S
N399 Li354 1.990 . S
N399 C396 1.314 . S
N399 C397 1.279 . S
C400 C397 1.358 . S
C400 C401 1.356 . S
C400 H437 0.930 . S
C401 C398 1.348 . S
C401 C400 1.356 . S
H402 C396 0.930 . S
H403 C397 0.930 . S
C404 N405 1.314 1_554 S
C404 C406 1.353 . S
C404 H410 0.930 . S
N405 Li355 1.991 . S
N405 C404 1.314 1_556 S
N405 C408 1.279 . S
C406 C404 1.353 . S
C406 C409 1.345 . S
C406 H438 0.929 . S
C407 C408 1.358 . S
C407 C409 1.359 1_556 S
C407 H439 0.930 . S
C408 N405 1.279 . S
C408 C407 1.358 . S
C408 H411 0.930 . S
C409 C406 1.345 . S
C409 C407 1.359 1_554 S
H410 C404 0.930 . S
H411 C408 0.930 . S
O412 Li352 1.936 1_556 S
O412 Li353 1.969 1_556 S
O412 Li354 1.980 . S
O412 C356 1.324 1_556 S
O413 Li352 1.970 . S
O413 Li353 1.983 . S
O413 Li355 1.939 1_554 S
O413 C362 1.325 . S
O414 Li352 1.986 . S
O414 Li354 1.930 1_554 S
O414 Li355 1.969 1_554 S
O414 C384 1.324 . S
O415 Li353 1.933 1_556 S
O415 Li354 1.970 . S
O415 Li355 1.977 . S
O415 C390 1.325 . S
H416 C358 0.929 . S
H417 C359 0.930 . S
H418 C360 0.930 . S
H419 C361 0.930 . S
H420 C363 0.930 . S
H421 C365 0.929 . S
H422 C366 0.930 . S
H423 C367 0.930 . S
H424 C370 0.930 . S
H425 C373 0.929 . S
H426 C378 0.929 . S
H427 C379 0.930 . S
H428 C386 0.929 . S
H429 C387 0.930 . S
H430 C388 0.930 . S
H431 C389 0.930 . S
H432 C391 0.929 . S
H433 C392 0.930 . S
H434 C393 0.930 . S
H435 C394 0.930 . S
H436 C398 0.929 . S
H437 C400 0.930 . S
H438 C406 0.929 . S
H439 C407 0.930 . S
Li440 N457 1.991 . S
Li440 O500 1.983 . S
Li440 O501 1.969 1_554 S
Li440 O502 1.933 1_554 S
Li441 N465 1.990 . S
Li441 O500 1.970 . S
Li441 O501 1.936 1_554 S
Li441 O503 1.986 . S
Li442 N487 1.991 . S
Li442 O500 1.939 1_556 S
Li442 O502 1.977 . S
Li442 O503 1.969 1_556 S
Li443 N493 1.990 . S
Li443 O501 1.980 . S
Li443 O502 1.970 . S
Li443 O503 1.930 1_556 S
C444 C446 1.348 . S
C444 C447 1.356 . S
C444 O500 1.325 . S
N445 C448 1.314 . S
N445 C449 1.279 . S
C446 C444 1.348 . S
C446 C448 1.353 . S
C446 H504 0.929 . S
C447 C444 1.356 . S
C447 C449 1.358 . S
C447 H505 0.930 . S
C448 N445 1.314 . S
C448 C446 1.353 . S
C448 H506 0.930 . S
C449 N445 1.279 . S
C449 C447 1.358 . S
C449 H507 0.930 . S
C450 C453 1.347 . S
C450 C454 1.357 1_554 S
C450 O501 1.324 1_554 S
C451 N452 1.279 1_556 S
C451 C454 1.358 . S
C451 H508 0.930 . S
N452 C451 1.279 1_554 S
N452 C455 1.314 . S
C453 C450 1.347 . S
C453 C455 1.353 . S
C453 H509 0.929 . S
C454 C450 1.357 1_556 S
C454 C451 1.358 . S
C454 H510 0.930 . S
C455 N452 1.314 . S
C455 C453 1.353 . S
C455 H511 0.930 . S
C456 N457 1.314 1_556 S
C456 C461 1.353 . S
C456 H462 0.930 . S
N457 Li440 1.991 . S
N457 C456 1.314 1_554 S
N457 C459 1.279 . S
C458 C459 1.358 . S
C458 C460 1.359 . S
C458 H512 0.930 . S
C459 N457 1.279 . S
C459 C458 1.358 . S
C459 H463 0.930 . S
C460 C458 1.359 . S
C460 C461 1.345 1_554 S
C461 C456 1.353 . S
C461 C460 1.345 1_556 S
C461 H513 0.929 . S
H462 C456 0.930 . S
H463 C459 0.930 . S
C464 N465 1.314 . S
C464 C466 1.353 . S
C464 H470 0.930 . S
N465 Li441 1.990 . S
N465 C464 1.314 . S
N465 C468 1.279 . S
C466 C464 1.353 . S
C466 C469 1.348 . S
C466 H514 0.929 . S
C467 C468 1.358 . S
C467 C469 1.356 . S
C467 H515 0.930 . S
C468 N465 1.279 . S
C468 C467 1.358 . S
C468 H471 0.930 . S
C469 C466 1.348 . S
C469 C467 1.356 . S
H470 C464 0.930 . S
H471 C468 0.930 . S
C472 C474 1.348 . S
C472 C475 1.356 . S
C472 O502 1.325 . S
N473 C476 1.314 . S
N473 C477 1.279 . S
C474 C472 1.348 . S
C474 C476 1.353 . S
C474 H516 0.929 . S
C475 C472 1.356 . S
C475 C477 1.358 . S
C475 H517 0.930 . S
C476 N473 1.314 . S
C476 C474 1.353 . S
C476 H518 0.930 . S
C477 N473 1.279 . S
C477 C475 1.358 . S
C477 H519 0.930 . S
C478 C479 1.346 1_554 S
C478 C480 1.357 . S
C478 O503 1.324 . S
C479 C478 1.346 1_556 S
C479 C481 1.353 . S
C479 H520 0.929 . S
C480 C478 1.357 . S
C480 C482 1.358 . S
C480 H521 0.930 . S
C481 C479 1.353 . S
C481 N483 1.314 . S
C481 H522 0.930 . S
C482 C480 1.358 . S
C482 N483 1.279 1_554 S
C482 H523 0.930 . S
N483 C481 1.314 . S
N483 C482 1.279 1_556 S
C484 C486 1.353 . S
C484 N487 1.314 1_554 S
C484 H490 0.930 . S
C485 N487 1.279 . S
C485 C488 1.358 . S
C485 H491 0.930 . S
C486 C484 1.353 . S
C486 C489 1.345 . S
C486 H524 0.929 . S
N487 Li442 1.991 . S
N487 C484 1.314 1_556 S
N487 C485 1.279 . S
C488 C485 1.358 . S
C488 C489 1.359 1_556 S
C488 H525 0.930 . S
C489 C486 1.345 . S
C489 C488 1.359 1_554 S
H490 C484 0.930 . S
H491 C485 0.930 . S
C492 N493 1.314 . S
C492 C494 1.353 . S
C492 H498 0.930 . S
N493 Li443 1.990 . S
N493 C492 1.314 . S
N493 C496 1.279 . S
C494 C492 1.353 . S
C494 C497 1.348 . S
C494 H526 0.929 . S
C495 C496 1.358 . S
C495 C497 1.356 . S
C495 H527 0.930 . S
C496 N493 1.279 . S
C496 C495 1.358 . S
C496 H499 0.930 . S
C497 C494 1.348 . S
C497 C495 1.356 . S
H498 C492 0.930 . S
H499 C496 0.930 . S
O500 Li440 1.983 . S
O500 Li441 1.970 . S
O500 Li442 1.939 1_554 S
O500 C444 1.325 . S
O501 Li440 1.969 1_556 S
O501 Li441 1.936 1_556 S
O501 Li443 1.980 . S
O501 C450 1.324 1_556 S
O502 Li440 1.933 1_556 S
O502 Li442 1.977 . S
O502 Li443 1.970 . S
O502 C472 1.325 . S
O503 Li441 1.986 . S
O503 Li442 1.969 1_554 S
O503 Li443 1.930 1_554 S
O503 C478 1.324 . S
H504 C446 0.929 . S
H505 C447 0.930 . S
H506 C448 0.930 . S
H507 C449 0.930 . S
H508 C451 0.930 . S
H509 C453 0.929 . S
H510 C454 0.930 . S
H511 C455 0.930 . S
H512 C458 0.930 . S
H513 C461 0.929 . S
H514 C466 0.929 . S
H515 C467 0.930 . S
H516 C474 0.929 . S
H517 C475 0.930 . S
H518 C476 0.930 . S
H519 C477 0.930 . S
H520 C479 0.929 . S
H521 C480 0.930 . S
H522 C481 0.930 . S
H523 C482 0.930 . S
H524 C486 0.929 . S
H525 C488 0.930 . S
H526 C494 0.929 . S
H527 C495 0.930 . S
Li528 N545 1.990 . S
Li528 O588 1.936 1_554 S
Li528 O589 1.970 . S
Li528 O590 1.986 . S
Li529 N553 1.991 . S
Li529 O588 1.969 1_554 S
Li529 O589 1.983 . S
Li529 O591 1.933 1_554 S
Li530 N575 1.990 . S
Li530 O588 1.980 . S
Li530 O590 1.930 1_556 S
Li530 O591 1.970 . S
Li531 N581 1.991 . S
Li531 O589 1.939 1_556 S
Li531 O590 1.969 1_556 S
Li531 O591 1.977 . S
C532 C534 1.347 . S
C532 C535 1.357 1_554 S
C532 O588 1.324 1_554 S
N533 C536 1.314 . S
N533 C537 1.279 1_554 S
C534 C532 1.347 . S
C534 C536 1.353 . S
C534 H592 0.929 . S
C535 C532 1.357 1_556 S
C535 C537 1.358 . S
C535 H593 0.930 . S
C536 N533 1.314 . S
C536 C534 1.353 . S
C536 H594 0.930 . S
C537 N533 1.279 1_556 S
C537 C535 1.358 . S
C537 H595 0.930 . S
C538 C541 1.348 . S
C538 C542 1.356 . S
C538 O589 1.325 . S
C539 N540 1.279 . S
C539 C542 1.358 . S
C539 H596 0.930 . S
N540 C539 1.279 . S
N540 C543 1.314 . S
C541 C538 1.348 . S
C541 C543 1.353 . S
C541 H597 0.929 . S
C542 C538 1.356 . S
C542 C539 1.358 . S
C542 H598 0.930 . S
C543 N540 1.314 . S
C543 C541 1.353 . S
C543 H599 0.930 . S
C544 N545 1.314 . S
C544 C549 1.353 . S
C544 H550 0.930 . S
N545 Li528 1.990 . S
N545 C544 1.314 . S
N545 C547 1.279 . S
C546 C547 1.358 . S
C546 C548 1.356 . S
C546 H600 0.930 . S
C547 N545 1.279 . S
C547 C546 1.358 . S
C547 H551 0.930 . S
C548 C546 1.356 . S
C548 C549 1.348 . S
C549 C544 1.353 . S
C549 C548 1.348 . S
C549 H601 0.929 . S
H550 C544 0.930 . S
H551 C547 0.930 . S
C552 N553 1.314 1_556 S
C552 C554 1.353 . S
C552 H558 0.930 . S
N553 Li529 1.991 . S
N553 C552 1.314 1_554 S
N553 C556 1.279 . S
C554 C552 1.353 . S
C554 C557 1.345 1_556 S
C554 H602 0.929 . S
C555 C556 1.358 . S
C555 C557 1.359 . S
C555 H603 0.930 . S
C556 N553 1.279 . S
C556 C555 1.358 . S
C556 H559 0.930 . S
C557 C554 1.345 1_554 S
C557 C555 1.359 . S
H558 C552 0.930 . S
H559 C556 0.930 . S
C560 C562 1.346 1_554 S
C560 C563 1.357 . S
C560 O590 1.324 . S
N561 C564 1.314 . S
N561 C565 1.279 1_556 S
C562 C560 1.346 1_556 S
C562 C564 1.353 . S
C562 H604 0.929 . S
C563 C560 1.357 . S
C563 C565 1.358 . S
C563 H605 0.930 . S
C564 N561 1.314 . S
C564 C562 1.353 . S
C564 H606 0.930 . S
C565 N561 1.279 1_554 S
C565 C563 1.358 . S
C565 H607 0.930 . S
C566 C567 1.348 . S
C566 C568 1.356 . S
C566 O591 1.325 . S
C567 C566 1.348 . S
C567 C569 1.353 . S
C567 H608 0.929 . S
C568 C566 1.356 . S
C568 C570 1.358 . S
C568 H609 0.930 . S
C569 C567 1.353 . S
C569 N571 1.314 . S
C569 H610 0.930 . S
C570 C568 1.358 . S
C570 N571 1.279 . S
C570 H611 0.930 . S
N571 C569 1.314 . S
N571 C570 1.279 . S
C572 C574 1.353 . S
C572 N575 1.314 . S
C572 H578 0.930 . S
C573 N575 1.279 . S
C573 C576 1.358 . S
C573 H579 0.930 . S
C574 C572 1.353 . S
C574 C577 1.348 . S
C574 H612 0.929 . S
N575 Li530 1.990 . S
N575 C572 1.314 . S
N575 C573 1.279 . S
C576 C573 1.358 . S
C576 C577 1.356 . S
C576 H613 0.930 . S
C577 C574 1.348 . S
C577 C576 1.356 . S
H578 C572 0.930 . S
H579 C573 0.930 . S
C580 N581 1.314 1_554 S
C580 C582 1.353 . S
C580 H586 0.930 . S
N581 Li531 1.991 . S
N581 C580 1.314 1_556 S
N581 C584 1.279 . S
C582 C580 1.353 . S
C582 C585 1.345 . S
C582 H614 0.929 . S
C583 C584 1.358 . S
C583 C585 1.359 1_556 S
C583 H615 0.930 . S
C584 N581 1.279 . S
C584 C583 1.358 . S
C584 H587 0.930 . S
C585 C582 1.345 . S
C585 C583 1.359 1_554 S
H586 C580 0.930 . S
H587 C584 0.930 . S
O588 Li528 1.936 1_556 S
O588 Li529 1.969 1_556 S
O588 Li530 1.980 . S
O588 C532 1.324 1_556 S
O589 Li528 1.970 . S
O589 Li529 1.983 . S
O589 Li531 1.939 1_554 S
O589 C538 1.325 . S
O590 Li528 1.986 . S
O590 Li530 1.930 1_554 S
O590 Li531 1.969 1_554 S
O590 C560 1.324 . S
O591 Li529 1.933 1_556 S
O591 Li530 1.970 . S
O591 Li531 1.977 . S
O591 C566 1.325 . S
H592 C534 0.929 . S
H593 C535 0.930 . S
H594 C536 0.930 . S
H595 C537 0.930 . S
H596 C539 0.930 . S
H597 C541 0.929 . S
H598 C542 0.930 . S
H599 C543 0.930 . S
H600 C546 0.930 . S
H601 C549 0.929 . S
H602 C554 0.929 . S
H603 C555 0.930 . S
H604 C562 0.929 . S
H605 C563 0.930 . S
H606 C564 0.930 . S
H607 C565 0.930 . S
H608 C567 0.929 . S
H609 C568 0.930 . S
H610 C569 0.930 . S
H611 C570 0.930 . S
H612 C574 0.929 . S
H613 C576 0.930 . S
H614 C582 0.929 . S
H615 C583 0.930 . S
Li616 N633 1.990 . S
Li616 O676 1.936 1_554 S
Li616 O677 1.970 . S
Li616 O678 1.986 . S
Li617 N641 1.991 . S
Li617 O676 1.969 1_554 S
Li617 O677 1.983 . S
Li617 O679 1.933 1_554 S
Li618 N663 1.990 . S
Li618 O676 1.980 . S
Li618 O678 1.930 1_556 S
Li618 O679 1.970 . S
Li619 N669 1.991 . S
Li619 O677 1.939 1_556 S
Li619 O678 1.969 1_556 S
Li619 O679 1.977 . S
C620 C622 1.347 . S
C620 C623 1.357 1_554 S
C620 O676 1.324 1_554 S
N621 C624 1.314 . S
N621 C625 1.279 1_554 S
C622 C620 1.347 . S
C622 C624 1.353 . S
C622 H680 0.929 . S
C623 C620 1.357 1_556 S
C623 C625 1.358 . S
C623 H681 0.930 . S
C624 N621 1.314 . S
C624 C622 1.353 . S
C624 H682 0.930 . S
C625 N621 1.279 1_556 S
C625 C623 1.358 . S
C625 H683 0.930 . S
C626 C629 1.348 . S
C626 C630 1.356 . S
C626 O677 1.325 . S
C627 N628 1.279 . S
C627 C630 1.358 . S
C627 H684 0.930 . S
N628 C627 1.279 . S
N628 C631 1.314 . S
C629 C626 1.348 . S
C629 C631 1.353 . S
C629 H685 0.929 . S
C630 C626 1.356 . S
C630 C627 1.358 . S
C630 H686 0.930 . S
C631 N628 1.314 . S
C631 C629 1.353 . S
C631 H687 0.930 . S
C632 N633 1.314 . S
C632 C637 1.353 . S
C632 H638 0.930 . S
N633 Li616 1.990 . S
N633 C632 1.314 . S
N633 C635 1.279 . S
C634 C635 1.358 . S
C634 C636 1.356 . S
C634 H688 0.930 . S
C635 N633 1.279 . S
C635 C634 1.358 . S
C635 H639 0.930 . S
C636 C634 1.356 . S
C636 C637 1.348 . S
C637 C632 1.353 . S
C637 C636 1.348 . S
C637 H689 0.929 . S
H638 C632 0.930 . S
H639 C635 0.930 . S
C640 N641 1.314 1_556 S
C640 C642 1.353 . S
C640 H646 0.930 . S
N641 Li617 1.991 . S
N641 C640 1.314 1_554 S
N641 C644 1.279 . S
C642 C640 1.353 . S
C642 C645 1.345 1_556 S
C642 H690 0.929 . S
C643 C644 1.358 . S
C643 C645 1.359 . S
C643 H691 0.930 . S
C644 N641 1.279 . S
C644 C643 1.358 . S
C644 H647 0.930 . S
C645 C642 1.345 1_554 S
C645 C643 1.359 . S
H646 C640 0.930 . S
H647 C644 0.930 . S
C648 C650 1.346 1_554 S
C648 C651 1.357 . S
C648 O678 1.324 . S
N649 C652 1.314 . S
N649 C653 1.279 1_556 S
C650 C648 1.346 1_556 S
C650 C652 1.353 . S
C650 H692 0.929 . S
C651 C648 1.357 . S
C651 C653 1.358 . S
C651 H693 0.930 . S
C652 N649 1.314 . S
C652 C650 1.353 . S
C652 H694 0.930 . S
C653 N649 1.279 1_554 S
C653 C651 1.358 . S
C653 H695 0.930 . S
C654 C655 1.348 . S
C654 C656 1.356 . S
C654 O679 1.325 . S
C655 C654 1.348 . S
C655 C657 1.353 . S
C655 H696 0.929 . S
C656 C654 1.356 . S
C656 C658 1.358 . S
C656 H697 0.930 . S
C657 C655 1.353 . S
C657 N659 1.314 . S
C657 H698 0.930 . S
C658 C656 1.358 . S
C658 N659 1.279 . S
C658 H699 0.930 . S
N659 C657 1.314 . S
N659 C658 1.279 . S
C660 C662 1.353 . S
C660 N663 1.314 . S
C660 H666 0.930 . S
C661 N663 1.279 . S
C661 C664 1.358 . S
C661 H667 0.930 . S
C662 C660 1.353 . S
C662 C665 1.348 . S
C662 H700 0.929 . S
N663 Li618 1.990 . S
N663 C660 1.314 . S
N663 C661 1.279 . S
C664 C661 1.358 . S
C664 C665 1.356 . S
C664 H701 0.930 . S
C665 C662 1.348 . S
C665 C664 1.356 . S
H666 C660 0.930 . S
H667 C661 0.930 . S
C668 N669 1.314 1_554 S
C668 C670 1.353 . S
C668 H674 0.930 . S
N669 Li619 1.991 . S
N669 C668 1.314 1_556 S
N669 C672 1.279 . S
C670 C668 1.353 . S
C670 C673 1.345 . S
C670 H702 0.929 . S
C671 C672 1.358 . S
C671 C673 1.359 1_556 S
C671 H703 0.930 . S
C672 N669 1.279 . S
C672 C671 1.358 . S
C672 H675 0.930 . S
C673 C670 1.345 . S
C673 C671 1.359 1_554 S
H674 C668 0.930 . S
H675 C672 0.930 . S
O676 Li616 1.936 1_556 S
O676 Li617 1.969 1_556 S
O676 Li618 1.980 . S
O676 C620 1.324 1_556 S
O677 Li616 1.970 . S
O677 Li617 1.983 . S
O677 Li619 1.939 1_554 S
O677 C626 1.325 . S
O678 Li616 1.986 . S
O678 Li618 1.930 1_554 S
O678 Li619 1.969 1_554 S
O678 C648 1.324 . S
O679 Li617 1.933 1_556 S
O679 Li618 1.970 . S
O679 Li619 1.977 . S
O679 C654 1.325 . S
H680 C622 0.929 . S
H681 C623 0.930 . S
H682 C624 0.930 . S
H683 C625 0.930 . S
H684 C627 0.930 . S
H685 C629 0.929 . S
H686 C630 0.930 . S
H687 C631 0.930 . S
H688 C634 0.930 . S
H689 C637 0.929 . S
H690 C642 0.929 . S
H691 C643 0.930 . S
H692 C650 0.929 . S
H693 C651 0.930 . S
H694 C652 0.930 . S
H695 C653 0.930 . S
H696 C655 0.929 . S
H697 C656 0.930 . S
H698 C657 0.930 . S
H699 C658 0.930 . S
H700 C662 0.929 . S
H701 C664 0.930 . S
H702 C670 0.929 . S
H703 C671 0.930 . S
Li704 N721 1.990 . S
Li704 O764 1.956 . S
Li704 O765 1.970 . S
Li704 O766 1.961 . S
Li705 N729 1.990 . S
Li705 O764 1.970 . S
Li705 O765 1.956 . S
Li705 O767 1.961 . S
Li706 N751 1.990 . S
Li706 O764 1.961 . S
Li706 O766 1.956 . S
Li706 O767 1.970 . S
Li707 N757 1.990 . S
Li707 O765 1.961 . S
Li707 O766 1.970 . S
Li707 O767 1.956 . S
C708 C710 1.348 . S
C708 C711 1.356 . S
C708 O764 1.325 . S
N709 C712 1.314 . S
N709 C713 1.279 . S
C710 C708 1.348 . S
C710 C712 1.353 . S
C710 H768 0.929 . S
C711 C708 1.356 . S
C711 C713 1.358 . S
C711 H769 0.930 . S
C712 N709 1.314 . S
C712 C710 1.353 . S
C712 H770 0.930 . S
C713 N709 1.279 . S
C713 C711 1.358 . S
C713 H771 0.930 . S
C714 C717 1.348 . S
C714 C718 1.356 . S
C714 O765 1.325 . S
C715 N716 1.279 . S
C715 C718 1.358 . S
C715 H772 0.930 . S
N716 C715 1.279 . S
N716 C719 1.314 . S
C717 C714 1.348 . S
C717 C719 1.353 . S
C717 H773 0.929 . S
C718 C714 1.356 . S
C718 C715 1.358 . S
C718 H774 0.930 . S
C719 N716 1.314 . S
C719 C717 1.353 . S
C719 H775 0.930 . S
C720 N721 1.314 . S
C720 C725 1.353 . S
C720 H726 0.930 . S
N721 Li704 1.990 . S
N721 C720 1.314 . S
N721 C723 1.279 . S
C722 C723 1.358 . S
C722 C724 1.356 . S
C722 H776 0.930 . S
C723 N721 1.279 . S
C723 C722 1.358 . S
C723 H727 0.930 . S
C724 C722 1.356 . S
C724 C725 1.348 . S
C725 C720 1.353 . S
C725 C724 1.348 . S
C725 H777 0.929 . S
H726 C720 0.930 . S
H727 C723 0.930 . S
C728 N729 1.314 . S
C728 C730 1.353 . S
C728 H734 0.930 . S
N729 Li705 1.990 . S
N729 C728 1.314 . S
N729 C732 1.279 . S
C730 C728 1.353 . S
C730 C733 1.348 . S
C730 H778 0.929 . S
C731 C732 1.358 . S
C731 C733 1.356 . S
C731 H779 0.930 . S
C732 N729 1.279 . S
C732 C731 1.358 . S
C732 H735 0.930 . S
C733 C730 1.348 . S
C733 C731 1.356 . S
H734 C728 0.930 . S
H735 C732 0.930 . S
C736 C738 1.348 . S
C736 C739 1.356 . S
C736 O766 1.325 . S
N737 C740 1.314 . S
N737 C741 1.279 . S
C738 C736 1.348 . S
C738 C740 1.353 . S
C738 H780 0.929 . S
C739 C736 1.356 . S
C739 C741 1.358 . S
C739 H781 0.930 . S
C740 N737 1.314 . S
C740 C738 1.353 . S
C740 H782 0.930 . S
C741 N737 1.279 . S
C741 C739 1.358 . S
C741 H783 0.930 . S
C742 C743 1.348 . S
C742 C744 1.356 . S
C742 O767 1.325 . S
C743 C742 1.348 . S
C743 C745 1.353 . S
C743 H784 0.929 . S
C744 C742 1.356 . S
C744 C746 1.358 . S
C744 H785 0.930 . S
C745 C743 1.353 . S
C745 N747 1.314 . S
C745 H786 0.930 . S
C746 C744 1.358 . S
C746 N747 1.279 . S
C746 H787 0.930 . S
N747 C745 1.314 . S
N747 C746 1.279 . S
C748 C750 1.353 . S
C748 N751 1.314 . S
C748 H754 0.930 . S
C749 N751 1.279 . S
C749 C752 1.358 . S
C749 H755 0.930 . S
C750 C748 1.353 . S
C750 C753 1.348 . S
C750 H788 0.929 . S
N751 Li706 1.990 . S
N751 C748 1.314 . S
N751 C749 1.279 . S
C752 C749 1.358 . S
C752 C753 1.356 . S
C752 H789 0.930 . S
C753 C750 1.348 . S
C753 C752 1.356 . S
H754 C748 0.930 . S
H755 C749 0.930 . S
C756 N757 1.314 . S
C756 C758 1.353 . S
C756 H762 0.930 . S
N757 Li707 1.990 . S
N757 C756 1.314 . S
N757 C760 1.279 . S
C758 C756 1.353 . S
C758 C761 1.348 . S
C758 H790 0.929 . S
C759 C760 1.358 . S
C759 C761 1.356 . S
C759 H791 0.930 . S
C760 N757 1.279 . S
C760 C759 1.358 . S
C760 H763 0.930 . S
C761 C758 1.348 . S
C761 C759 1.356 . S
H762 C756 0.930 . S
H763 C760 0.930 . S
O764 Li704 1.956 . S
O764 Li705 1.970 . S
O764 Li706 1.961 . S
O764 C708 1.325 . S
O765 Li704 1.970 . S
O765 Li705 1.956 . S
O765 Li707 1.961 . S
O765 C714 1.325 . S
O766 Li704 1.961 . S
O766 Li706 1.956 . S
O766 Li707 1.970 . S
O766 C736 1.325 . S
O767 Li705 1.961 . S
O767 Li706 1.970 . S
O767 Li707 1.956 . S
O767 C742 1.325 . S
H768 C710 0.929 . S
H769 C711 0.930 . S
H770 C712 0.930 . S
H771 C713 0.930 . S
H772 C715 0.930 . S
H773 C717 0.929 . S
H774 C718 0.930 . S
H775 C719 0.930 . S
H776 C722 0.930 . S
H777 C725 0.929 . S
H778 C730 0.929 . S
H779 C731 0.930 . S
H780 C738 0.929 . S
H781 C739 0.930 . S
H782 C740 0.930 . S
H783 C741 0.930 . S
H784 C743 0.929 . S
H785 C744 0.930 . S
H786 C745 0.930 . S
H787 C746 0.930 . S
H788 C750 0.929 . S
H789 C752 0.930 . S
H790 C758 0.929 . S
H791 C759 0.930 . S
Li792 N809 1.990 . S
Li792 O852 1.956 . S
Li792 O853 1.970 . S
Li792 O854 1.961 . S
Li793 N817 1.990 . S
Li793 O852 1.970 . S
Li793 O853 1.956 . S
Li793 O855 1.961 . S
Li794 N839 1.990 . S
Li794 O852 1.961 . S
Li794 O854 1.956 . S
Li794 O855 1.970 . S
Li795 N845 1.990 . S
Li795 O853 1.961 . S
Li795 O854 1.970 . S
Li795 O855 1.956 . S
C796 C798 1.348 . S
C796 C799 1.356 . S
C796 O852 1.325 . S
N797 C800 1.314 . S
N797 C801 1.279 . S
C798 C796 1.348 . S
C798 C800 1.353 . S
C798 H856 0.929 . S
C799 C796 1.356 . S
C799 C801 1.358 . S
C799 H857 0.930 . S
C800 N797 1.314 . S
C800 C798 1.353 . S
C800 H858 0.930 . S
C801 N797 1.279 . S
C801 C799 1.358 . S
C801 H859 0.930 . S
C802 C805 1.348 . S
C802 C806 1.356 . S
C802 O853 1.325 . S
C803 N804 1.279 . S
C803 C806 1.358 . S
C803 H860 0.930 . S
N804 C803 1.279 . S
N804 C807 1.314 . S
C805 C802 1.348 . S
C805 C807 1.353 . S
C805 H861 0.929 . S
C806 C802 1.356 . S
C806 C803 1.358 . S
C806 H862 0.930 . S
C807 N804 1.314 . S
C807 C805 1.353 . S
C807 H863 0.930 . S
C808 N809 1.314 . S
C808 C813 1.353 . S
C808 H814 0.930 . S
N809 Li792 1.990 . S
N809 C808 1.314 . S
N809 C811 1.279 . S
C810 C811 1.358 . S
C810 C812 1.356 . S
C810 H864 0.930 . S
C811 N809 1.279 . S
C811 C810 1.358 . S
C811 H815 0.930 . S
C812 C810 1.356 . S
C812 C813 1.348 . S
C813 C808 1.353 . S
C813 C812 1.348 . S
C813 H865 0.929 . S
H814 C808 0.930 . S
H815 C811 0.930 . S
C816 N817 1.314 . S
C816 C818 1.353 . S
C816 H822 0.930 . S
N817 Li793 1.990 . S
N817 C816 1.314 . S
N817 C820 1.279 . S
C818 C816 1.353 . S
C818 C821 1.348 . S
C818 H866 0.929 . S
C819 C820 1.358 . S
C819 C821 1.356 . S
C819 H867 0.930 . S
C820 N817 1.279 . S
C820 C819 1.358 . S
C820 H823 0.930 . S
C821 C818 1.348 . S
C821 C819 1.356 . S
H822 C816 0.930 . S
H823 C820 0.930 . S
C824 C826 1.348 . S
C824 C827 1.356 . S
C824 O854 1.325 . S
N825 C828 1.314 . S
N825 C829 1.279 . S
C826 C824 1.348 . S
C826 C828 1.353 . S
C826 H868 0.929 . S
C827 C824 1.356 . S
C827 C829 1.358 . S
C827 H869 0.930 . S
C828 N825 1.314 . S
C828 C826 1.353 . S
C828 H870 0.930 . S
C829 N825 1.279 . S
C829 C827 1.358 . S
C829 H871 0.930 . S
C830 C831 1.348 . S
C830 C832 1.356 . S
C830 O855 1.325 . S
C831 C830 1.348 . S
C831 C833 1.353 . S
C831 H872 0.929 . S
C832 C830 1.356 . S
C832 C834 1.358 . S
C832 H873 0.930 . S
C833 C831 1.353 . S
C833 N835 1.314 . S
C833 H874 0.930 . S
C834 C832 1.358 . S
C834 N835 1.279 . S
C834 H875 0.930 . S
N835 C833 1.314 . S
N835 C834 1.279 . S
C836 C838 1.353 . S
C836 N839 1.314 . S
C836 H842 0.930 . S
C837 N839 1.279 . S
C837 C840 1.358 . S
C837 H843 0.930 . S
C838 C836 1.353 . S
C838 C841 1.348 . S
C838 H876 0.929 . S
N839 Li794 1.990 . S
N839 C836 1.314 . S
N839 C837 1.279 . S
C840 C837 1.358 . S
C840 C841 1.356 . S
C840 H877 0.930 . S
C841 C838 1.348 . S
C841 C840 1.356 . S
H842 C836 0.930 . S
H843 C837 0.930 . S
C844 N845 1.314 . S
C844 C846 1.353 . S
C844 H850 0.930 . S
N845 Li795 1.990 . S
N845 C844 1.314 . S
N845 C848 1.279 . S
C846 C844 1.353 . S
C846 C849 1.348 . S
C846 H878 0.929 . S
C847 C848 1.358 . S
C847 C849 1.356 . S
C847 H879 0.930 . S
C848 N845 1.279 . S
C848 C847 1.358 . S
C848 H851 0.930 . S
C849 C846 1.348 . S
C849 C847 1.356 . S
H850 C844 0.930 . S
H851 C848 0.930 . S
O852 Li792 1.956 . S
O852 Li793 1.970 . S
O852 Li794 1.961 . S
O852 C796 1.325 . S
O853 Li792 1.970 . S
O853 Li793 1.956 . S
O853 Li795 1.961 . S
O853 C802 1.325 . S
O854 Li792 1.961 . S
O854 Li794 1.956 . S
O854 Li795 1.970 . S
O854 C824 1.325 . S
O855 Li793 1.961 . S
O855 Li794 1.970 . S
O855 Li795 1.956 . S
O855 C830 1.325 . S
H856 C798 0.929 . S
H857 C799 0.930 . S
H858 C800 0.930 . S
H859 C801 0.930 . S
H860 C803 0.930 . S
H861 C805 0.929 . S
H862 C806 0.930 . S
H863 C807 0.930 . S
H864 C810 0.930 . S
H865 C813 0.929 . S
H866 C818 0.929 . S
H867 C819 0.930 . S
H868 C826 0.929 . S
H869 C827 0.930 . S
H870 C828 0.930 . S
H871 C829 0.930 . S
H872 C831 0.929 . S
H873 C832 0.930 . S
H874 C833 0.930 . S
H875 C834 0.930 . S
H876 C838 0.929 . S
H877 C840 0.930 . S
H878 C846 0.929 . S
H879 C847 0.930 . S
Li880 N897 1.990 . S
Li880 O940 1.956 . S
Li880 O941 1.970 . S
Li880 O942 1.961 . S
Li881 N905 1.990 . S
Li881 O940 1.970 . S
Li881 O941 1.956 . S
Li881 O943 1.961 . S
Li882 N927 1.990 . S
Li882 O940 1.961 . S
Li882 O942 1.956 . S
Li882 O943 1.970 . S
Li883 N933 1.990 . S
Li883 O941 1.961 . S
Li883 O942 1.970 . S
Li883 O943 1.956 . S
C884 C886 1.348 . S
C884 C887 1.356 . S
C884 O940 1.325 . S
N885 C888 1.314 . S
N885 C889 1.279 . S
C886 C884 1.348 . S
C886 C888 1.353 . S
C886 H944 0.929 . S
C887 C884 1.356 . S
C887 C889 1.358 . S
C887 H945 0.930 . S
C888 N885 1.314 . S
C888 C886 1.353 . S
C888 H946 0.930 . S
C889 N885 1.279 . S
C889 C887 1.358 . S
C889 H947 0.930 . S
C890 C893 1.348 . S
C890 C894 1.356 . S
C890 O941 1.325 . S
C891 N892 1.279 . S
C891 C894 1.358 . S
C891 H948 0.930 . S
N892 C891 1.279 . S
N892 C895 1.314 . S
C893 C890 1.348 . S
C893 C895 1.353 . S
C893 H949 0.929 . S
C894 C890 1.356 . S
C894 C891 1.358 . S
C894 H950 0.930 . S
C895 N892 1.314 . S
C895 C893 1.353 . S
C895 H951 0.930 . S
C896 N897 1.314 . S
C896 C901 1.353 . S
C896 H902 0.930 . S
N897 Li880 1.990 . S
N897 C896 1.314 . S
N897 C899 1.279 . S
C898 C899 1.358 . S
C898 C900 1.356 . S
C898 H952 0.930 . S
C899 N897 1.279 . S
C899 C898 1.358 . S
C899 H903 0.930 . S
C900 C898 1.356 . S
C900 C901 1.348 . S
C901 C896 1.353 . S
C901 C900 1.348 . S
C901 H953 0.929 . S
H902 C896 0.930 . S
H903 C899 0.930 . S
C904 N905 1.314 . S
C904 C906 1.353 . S
C904 H910 0.930 . S
N905 Li881 1.990 . S
N905 C904 1.314 . S
N905 C908 1.279 . S
C906 C904 1.353 . S
C906 C909 1.348 . S
C906 H954 0.929 . S
C907 C908 1.358 . S
C907 C909 1.356 . S
C907 H955 0.930 . S
C908 N905 1.279 . S
C908 C907 1.358 . S
C908 H911 0.930 . S
C909 C906 1.348 . S
C909 C907 1.356 . S
H910 C904 0.930 . S
H911 C908 0.930 . S
C912 C914 1.348 . S
C912 C915 1.356 . S
C912 O942 1.325 . S
N913 C916 1.314 . S
N913 C917 1.279 . S
C914 C912 1.348 . S
C914 C916 1.353 . S
C914 H956 0.929 . S
C915 C912 1.356 . S
C915 C917 1.358 . S
C915 H957 0.930 . S
C916 N913 1.314 . S
C916 C914 1.353 . S
C916 H958 0.930 . S
C917 N913 1.279 . S
C917 C915 1.358 . S
C917 H959 0.930 . S
C918 C919 1.348 . S
C918 C920 1.356 . S
C918 O943 1.325 . S
C919 C918 1.348 . S
C919 C921 1.353 . S
C919 H960 0.929 . S
C920 C918 1.356 . S
C920 C922 1.358 . S
C920 H961 0.930 . S
C921 C919 1.353 . S
C921 N923 1.314 . S
C921 H962 0.930 . S
C922 C920 1.358 . S
C922 N923 1.279 . S
C922 H963 0.930 . S
N923 C921 1.314 . S
N923 C922 1.279 . S
C924 C926 1.353 . S
C924 N927 1.314 . S
C924 H930 0.930 . S
C925 N927 1.279 . S
C925 C928 1.358 . S
C925 H931 0.930 . S
C926 C924 1.353 . S
C926 C929 1.348 . S
C926 H964 0.929 . S
N927 Li882 1.990 . S
N927 C924 1.314 . S
N927 C925 1.279 . S
C928 C925 1.358 . S
C928 C929 1.356 . S
C928 H965 0.930 . S
C929 C926 1.348 . S
C929 C928 1.356 . S
H930 C924 0.930 . S
H931 C925 0.930 . S
C932 N933 1.314 . S
C932 C934 1.353 . S
C932 H938 0.930 . S
N933 Li883 1.990 . S
N933 C932 1.314 . S
N933 C936 1.279 . S
C934 C932 1.353 . S
C934 C937 1.348 . S
C934 H966 0.929 . S
C935 C936 1.358 . S
C935 C937 1.356 . S
C935 H967 0.930 . S
C936 N933 1.279 . S
C936 C935 1.358 . S
C936 H939 0.930 . S
C937 C934 1.348 . S
C937 C935 1.356 . S
H938 C932 0.930 . S
H939 C936 0.930 . S
O940 Li880 1.956 . S
O940 Li881 1.970 . S
O940 Li882 1.961 . S
O940 C884 1.325 . S
O941 Li880 1.970 . S
O941 Li881 1.956 . S
O941 Li883 1.961 . S
O941 C890 1.325 . S
O942 Li880 1.961 . S
O942 Li882 1.956 . S
O942 Li883 1.970 . S
O942 C912 1.325 . S
O943 Li881 1.961 . S
O943 Li882 1.970 . S
O943 Li883 1.956 . S
O943 C918 1.325 . S
H944 C886 0.929 . S
H945 C887 0.930 . S
H946 C888 0.930 . S
H947 C889 0.930 . S
H948 C891 0.930 . S
H949 C893 0.929 . S
H950 C894 0.930 . S
H951 C895 0.930 . S
H952 C898 0.930 . S
H953 C901 0.929 . S
H954 C906 0.929 . S
H955 C907 0.930 . S
H956 C914 0.929 . S
H957 C915 0.930 . S
H958 C916 0.930 . S
H959 C917 0.930 . S
H960 C919 0.929 . S
H961 C920 0.930 . S
H962 C921 0.930 . S
H963 C922 0.930 . S
H964 C926 0.929 . S
H965 C928 0.930 . S
H966 C934 0.929 . S
H967 C935 0.930 . S
Li968 N985 1.990 . S
Li968 O1028 1.956 . S
Li968 O1029 1.970 . S
Li968 O1030 1.961 . S
Li969 N993 1.990 . S
Li969 O1028 1.970 . S
Li969 O1029 1.956 . S
Li969 O1031 1.961 . S
Li970 N1015 1.990 . S
Li970 O1028 1.961 . S
Li970 O1030 1.956 . S
Li970 O1031 1.970 . S
Li971 N1021 1.990 . S
Li971 O1029 1.961 . S
Li971 O1030 1.970 . S
Li971 O1031 1.956 . S
C972 C974 1.348 . S
C972 C975 1.356 . S
C972 O1028 1.325 . S
N973 C976 1.314 . S
N973 C977 1.279 . S
C974 C972 1.348 . S
C974 C976 1.353 . S
C974 H1032 0.929 . S
C975 C972 1.356 . S
C975 C977 1.358 . S
C975 H1033 0.930 . S
C976 N973 1.314 . S
C976 C974 1.353 . S
C976 H1034 0.930 . S
C977 N973 1.279 . S
C977 C975 1.358 . S
C977 H1035 0.930 . S
C978 C981 1.348 . S
C978 C982 1.356 . S
C978 O1029 1.325 . S
C979 N980 1.279 . S
C979 C982 1.358 . S
C979 H1036 0.930 . S
N980 C979 1.279 . S
N980 C983 1.314 . S
C981 C978 1.348 . S
C981 C983 1.353 . S
C981 H1037 0.929 . S
C982 C978 1.356 . S
C982 C979 1.358 . S
C982 H1038 0.930 . S
C983 N980 1.314 . S
C983 C981 1.353 . S
C983 H1039 0.930 . S
C984 N985 1.314 . S
C984 C989 1.353 . S
C984 H990 0.930 . S
N985 Li968 1.990 . S
N985 C984 1.314 . S
N985 C987 1.279 . S
C986 C987 1.358 . S
C986 C988 1.356 . S
C986 H1040 0.930 . S
C987 N985 1.279 . S
C987 C986 1.358 . S
C987 H991 0.930 . S
C988 C986 1.356 . S
C988 C989 1.348 . S
C989 C984 1.353 . S
C989 C988 1.348 . S
C989 H1041 0.929 . S
H990 C984 0.930 . S
H991 C987 0.930 . S
C992 N993 1.314 . S
C992 C994 1.353 . S
C992 H998 0.930 . S
N993 Li969 1.990 . S
N993 C992 1.314 . S
N993 C996 1.279 . S
C994 C992 1.353 . S
C994 C997 1.348 . S
C994 H1042 0.929 . S
C995 C996 1.358 . S
C995 C997 1.356 . S
C995 H1043 0.930 . S
C996 N993 1.279 . S
C996 C995 1.358 . S
C996 H999 0.930 . S
C997 C994 1.348 . S
C997 C995 1.356 . S
H998 C992 0.930 . S
H999 C996 0.930 . S
C1000 C1002 1.348 . S
C1000 C1003 1.356 . S
C1000 O1030 1.325 . S
N1001 C1004 1.314 . S
N1001 C1005 1.279 . S
C1002 C1000 1.348 . S
C1002 C1004 1.353 . S
C1002 H1044 0.929 . S
C1003 C1000 1.356 . S
C1003 C1005 1.358 . S
C1003 H1045 0.930 . S
C1004 N1001 1.314 . S
C1004 C1002 1.353 . S
C1004 H1046 0.930 . S
C1005 N1001 1.279 . S
C1005 C1003 1.358 . S
C1005 H1047 0.930 . S
C1006 C1007 1.348 . S
C1006 C1008 1.356 . S
C1006 O1031 1.325 . S
C1007 C1006 1.348 . S
C1007 C1009 1.353 . S
C1007 H1048 0.929 . S
C1008 C1006 1.356 . S
C1008 C1010 1.358 . S
C1008 H1049 0.930 . S
C1009 C1007 1.353 . S
C1009 N1011 1.314 . S
C1009 H1050 0.930 . S
C1010 C1008 1.358 . S
C1010 N1011 1.279 . S
C1010 H1051 0.930 . S
N1011 C1009 1.314 . S
N1011 C1010 1.279 . S
C1012 C1014 1.353 . S
C1012 N1015 1.314 . S
C1012 H1018 0.930 . S
C1013 N1015 1.279 . S
C1013 C1016 1.358 . S
C1013 H1019 0.930 . S
C1014 C1012 1.353 . S
C1014 C1017 1.348 . S
C1014 H1052 0.929 . S
N1015 Li970 1.990 . S
N1015 C1012 1.314 . S
N1015 C1013 1.279 . S
C1016 C1013 1.358 . S
C1016 C1017 1.356 . S
C1016 H1053 0.930 . S
C1017 C1014 1.348 . S
C1017 C1016 1.356 . S
H1018 C1012 0.930 . S
H1019 C1013 0.930 . S
C1020 N1021 1.314 . S
C1020 C1022 1.353 . S
C1020 H1026 0.930 . S
N1021 Li971 1.990 . S
N1021 C1020 1.314 . S
N1021 C1024 1.279 . S
C1022 C1020 1.353 . S
C1022 C1025 1.348 . S
C1022 H1054 0.929 . S
C1023 C1024 1.358 . S
C1023 C1025 1.356 . S
C1023 H1055 0.930 . S
C1024 N1021 1.279 . S
C1024 C1023 1.358 . S
C1024 H1027 0.930 . S
C1025 C1022 1.348 . S
C1025 C1023 1.356 . S
H1026 C1020 0.930 . S
H1027 C1024 0.930 . S
O1028 Li968 1.956 . S
O1028 Li969 1.970 . S
O1028 Li970 1.961 . S
O1028 C972 1.325 . S
O1029 Li968 1.970 . S
O1029 Li969 1.956 . S
O1029 Li971 1.961 . S
O1029 C978 1.325 . S
O1030 Li968 1.961 . S
O1030 Li970 1.956 . S
O1030 Li971 1.970 . S
O1030 C1000 1.325 . S
O1031 Li969 1.961 . S
O1031 Li970 1.970 . S
O1031 Li971 1.956 . S
O1031 C1006 1.325 . S
H1032 C974 0.929 . S
H1033 C975 0.930 . S
H1034 C976 0.930 . S
H1035 C977 0.930 . S
H1036 C979 0.930 . S
H1037 C981 0.929 . S
H1038 C982 0.930 . S
H1039 C983 0.930 . S
H1040 C986 0.930 . S
H1041 C989 0.929 . S
H1042 C994 0.929 . S
H1043 C995 0.930 . S
H1044 C1002 0.929 . S
H1045 C1003 0.930 . S
H1046 C1004 0.930 . S
H1047 C1005 0.930 . S
H1048 C1007 0.929 . S
H1049 C1008 0.930 . S
H1050 C1009 0.930 . S
H1051 C1010 0.930 . S
H1052 C1014 0.929 . S
H1053 C1016 0.930 . S
H1054 C1022 0.929 . S
H1055 C1023 0.930 . S
Li1056 N1073 1.990 . S
Li1056 O1116 1.956 . S
Li1056 O1117 1.970 . S
Li1056 O1118 1.961 . S
Li1057 N1081 1.990 . S
Li1057 O1116 1.970 . S
Li1057 O1117 1.956 . S
Li1057 O1119 1.961 . S
Li1058 N1103 1.990 . S
Li1058 O1116 1.961 . S
Li1058 O1118 1.956 . S
Li1058 O1119 1.970 . S
Li1059 N1109 1.990 . S
Li1059 O1117 1.961 . S
Li1059 O1118 1.970 . S
Li1059 O1119 1.956 . S
C1060 C1062 1.348 . S
C1060 C1063 1.356 . S
C1060 O1116 1.325 . S
N1061 C1064 1.314 . S
N1061 C1065 1.279 . S
C1062 C1060 1.348 . S
C1062 C1064 1.353 . S
C1062 H1120 0.929 . S
C1063 C1060 1.356 . S
C1063 C1065 1.358 . S
C1063 H1121 0.930 . S
C1064 N1061 1.314 . S
C1064 C1062 1.353 . S
C1064 H1122 0.930 . S
C1065 N1061 1.279 . S
C1065 C1063 1.358 . S
C1065 H1123 0.930 . S
C1066 C1069 1.348 . S
C1066 C1070 1.356 . S
C1066 O1117 1.325 . S
C1067 N1068 1.279 . S
C1067 C1070 1.358 . S
C1067 H1124 0.930 . S
N1068 C1067 1.279 . S
N1068 C1071 1.314 . S
C1069 C1066 1.348 . S
C1069 C1071 1.353 . S
C1069 H1125 0.929 . S
C1070 C1066 1.356 . S
C1070 C1067 1.358 . S
C1070 H1126 0.930 . S
C1071 N1068 1.314 . S
C1071 C1069 1.353 . S
C1071 H1127 0.930 . S
C1072 N1073 1.314 . S
C1072 C1077 1.353 . S
C1072 H1078 0.930 . S
N1073 Li1056 1.990 . S
N1073 C1072 1.314 . S
N1073 C1075 1.279 . S
C1074 C1075 1.358 . S
C1074 C1076 1.356 . S
C1074 H1128 0.930 . S
C1075 N1073 1.279 . S
C1075 C1074 1.358 . S
C1075 H1079 0.930 . S
C1076 C1074 1.356 . S
C1076 C1077 1.348 . S
C1077 C1072 1.353 . S
C1077 C1076 1.348 . S
C1077 H1129 0.929 . S
H1078 C1072 0.930 . S
H1079 C1075 0.930 . S
C1080 N1081 1.314 . S
C1080 C1082 1.353 . S
C1080 H1086 0.930 . S
N1081 Li1057 1.990 . S
N1081 C1080 1.314 . S
N1081 C1084 1.279 . S
C1082 C1080 1.353 . S
C1082 C1085 1.348 . S
C1082 H1130 0.929 . S
C1083 C1084 1.358 . S
C1083 C1085 1.356 . S
C1083 H1131 0.930 . S
C1084 N1081 1.279 . S
C1084 C1083 1.358 . S
C1084 H1087 0.930 . S
C1085 C1082 1.348 . S
C1085 C1083 1.356 . S
H1086 C1080 0.930 . S
H1087 C1084 0.930 . S
C1088 C1090 1.348 . S
C1088 C1091 1.356 . S
C1088 O1118 1.325 . S
N1089 C1092 1.314 . S
N1089 C1093 1.279 . S
C1090 C1088 1.348 . S
C1090 C1092 1.353 . S
C1090 H1132 0.929 . S
C1091 C1088 1.356 . S
C1091 C1093 1.358 . S
C1091 H1133 0.930 . S
C1092 N1089 1.314 . S
C1092 C1090 1.353 . S
C1092 H1134 0.930 . S
C1093 N1089 1.279 . S
C1093 C1091 1.358 . S
C1093 H1135 0.930 . S
C1094 C1095 1.348 . S
C1094 C1096 1.356 . S
C1094 O1119 1.325 . S
C1095 C1094 1.348 . S
C1095 C1097 1.353 . S
C1095 H1136 0.929 . S
C1096 C1094 1.356 . S
C1096 C1098 1.358 . S
C1096 H1137 0.930 . S
C1097 C1095 1.353 . S
C1097 N1099 1.314 . S
C1097 H1138 0.930 . S
C1098 C1096 1.358 . S
C1098 N1099 1.279 . S
C1098 H1139 0.930 . S
N1099 C1097 1.314 . S
N1099 C1098 1.279 . S
C1100 C1102 1.353 . S
C1100 N1103 1.314 . S
C1100 H1106 0.930 . S
C1101 N1103 1.279 . S
C1101 C1104 1.358 . S
C1101 H1107 0.930 . S
C1102 C1100 1.353 . S
C1102 C1105 1.348 . S
C1102 H1140 0.929 . S
N1103 Li1058 1.990 . S
N1103 C1100 1.314 . S
N1103 C1101 1.279 . S
C1104 C1101 1.358 . S
C1104 C1105 1.356 . S
C1104 H1141 0.930 . S
C1105 C1102 1.348 . S
C1105 C1104 1.356 . S
H1106 C1100 0.930 . S
H1107 C1101 0.930 . S
C1108 N1109 1.314 . S
C1108 C1110 1.353 . S
C1108 H1114 0.930 . S
N1109 Li1059 1.990 . S
N1109 C1108 1.314 . S
N1109 C1112 1.279 . S
C1110 C1108 1.353 . S
C1110 C1113 1.348 . S
C1110 H1142 0.929 . S
C1111 C1112 1.358 . S
C1111 C1113 1.356 . S
C1111 H1143 0.930 . S
C1112 N1109 1.279 . S
C1112 C1111 1.358 . S
C1112 H1115 0.930 . S
C1113 C1110 1.348 . S
C1113 C1111 1.356 . S
H1114 C1108 0.930 . S
H1115 C1112 0.930 . S
O1116 Li1056 1.956 . S
O1116 Li1057 1.970 . S
O1116 Li1058 1.961 . S
O1116 C1060 1.325 . S
O1117 Li1056 1.970 . S
O1117 Li1057 1.956 . S
O1117 Li1059 1.961 . S
O1117 C1066 1.325 . S
O1118 Li1056 1.961 . S
O1118 Li1058 1.956 . S
O1118 Li1059 1.970 . S
O1118 C1088 1.325 . S
O1119 Li1057 1.961 . S
O1119 Li1058 1.970 . S
O1119 Li1059 1.956 . S
O1119 C1094 1.325 . S
H1120 C1062 0.929 . S
H1121 C1063 0.930 . S
H1122 C1064 0.930 . S
H1123 C1065 0.930 . S
H1124 C1067 0.930 . S
H1125 C1069 0.929 . S
H1126 C1070 0.930 . S
H1127 C1071 0.930 . S
H1128 C1074 0.930 . S
H1129 C1077 0.929 . S
H1130 C1082 0.929 . S
H1131 C1083 0.930 . S
H1132 C1090 0.929 . S
H1133 C1091 0.930 . S
H1134 C1092 0.930 . S
H1135 C1093 0.930 . S
H1136 C1095 0.929 . S
H1137 C1096 0.930 . S
H1138 C1097 0.930 . S
H1139 C1098 0.930 . S
H1140 C1102 0.929 . S
H1141 C1104 0.930 . S
H1142 C1110 0.929 . S
H1143 C1111 0.930 . S
Li1144 N1161 1.990 . S
Li1144 O1204 1.956 . S
Li1144 O1205 1.970 . S
Li1144 O1206 1.961 . S
Li1145 N1169 1.990 . S
Li1145 O1204 1.970 . S
Li1145 O1205 1.956 . S
Li1145 O1207 1.961 . S
Li1146 N1191 1.990 . S
Li1146 O1204 1.961 . S
Li1146 O1206 1.956 . S
Li1146 O1207 1.970 . S
Li1147 N1197 1.990 . S
Li1147 O1205 1.961 . S
Li1147 O1206 1.970 . S
Li1147 O1207 1.956 . S
C1148 C1150 1.348 . S
C1148 C1151 1.356 . S
C1148 O1204 1.325 . S
N1149 C1152 1.314 . S
N1149 C1153 1.279 . S
C1150 C1148 1.348 . S
C1150 C1152 1.353 . S
C1150 H1208 0.929 . S
C1151 C1148 1.356 . S
C1151 C1153 1.358 . S
C1151 H1209 0.930 . S
C1152 N1149 1.314 . S
C1152 C1150 1.353 . S
C1152 H1210 0.930 . S
C1153 N1149 1.279 . S
C1153 C1151 1.358 . S
C1153 H1211 0.930 . S
C1154 C1157 1.348 . S
C1154 C1158 1.356 . S
C1154 O1205 1.325 . S
C1155 N1156 1.279 . S
C1155 C1158 1.358 . S
C1155 H1212 0.930 . S
N1156 C1155 1.279 . S
N1156 C1159 1.314 . S
C1157 C1154 1.348 . S
C1157 C1159 1.353 . S
C1157 H1213 0.929 . S
C1158 C1154 1.356 . S
C1158 C1155 1.358 . S
C1158 H1214 0.930 . S
C1159 N1156 1.314 . S
C1159 C1157 1.353 . S
C1159 H1215 0.930 . S
C1160 N1161 1.314 . S
C1160 C1165 1.353 . S
C1160 H1166 0.930 . S
N1161 Li1144 1.990 . S
N1161 C1160 1.314 . S
N1161 C1163 1.279 . S
C1162 C1163 1.358 . S
C1162 C1164 1.356 . S
C1162 H1216 0.930 . S
C1163 N1161 1.279 . S
C1163 C1162 1.358 . S
C1163 H1167 0.930 . S
C1164 C1162 1.356 . S
C1164 C1165 1.348 . S
C1165 C1160 1.353 . S
C1165 C1164 1.348 . S
C1165 H1217 0.929 . S
H1166 C1160 0.930 . S
H1167 C1163 0.930 . S
C1168 N1169 1.314 . S
C1168 C1170 1.353 . S
C1168 H1174 0.930 . S
N1169 Li1145 1.990 . S
N1169 C1168 1.314 . S
N1169 C1172 1.279 . S
C1170 C1168 1.353 . S
C1170 C1173 1.348 . S
C1170 H1218 0.929 . S
C1171 C1172 1.358 . S
C1171 C1173 1.356 . S
C1171 H1219 0.930 . S
C1172 N1169 1.279 . S
C1172 C1171 1.358 . S
C1172 H1175 0.930 . S
C1173 C1170 1.348 . S
C1173 C1171 1.356 . S
H1174 C1168 0.930 . S
H1175 C1172 0.930 . S
C1176 C1178 1.348 . S
C1176 C1179 1.356 . S
C1176 O1206 1.325 . S
N1177 C1180 1.314 . S
N1177 C1181 1.279 . S
C1178 C1176 1.348 . S
C1178 C1180 1.353 . S
C1178 H1220 0.929 . S
C1179 C1176 1.356 . S
C1179 C1181 1.358 . S
C1179 H1221 0.930 . S
C1180 N1177 1.314 . S
C1180 C1178 1.353 . S
C1180 H1222 0.930 . S
C1181 N1177 1.279 . S
C1181 C1179 1.358 . S
C1181 H1223 0.930 . S
C1182 C1183 1.348 . S
C1182 C1184 1.356 . S
C1182 O1207 1.325 . S
C1183 C1182 1.348 . S
C1183 C1185 1.353 . S
C1183 H1224 0.929 . S
C1184 C1182 1.356 . S
C1184 C1186 1.358 . S
C1184 H1225 0.930 . S
C1185 C1183 1.353 . S
C1185 N1187 1.314 . S
C1185 H1226 0.930 . S
C1186 C1184 1.358 . S
C1186 N1187 1.279 . S
C1186 H1227 0.930 . S
N1187 C1185 1.314 . S
N1187 C1186 1.279 . S
C1188 C1190 1.353 . S
C1188 N1191 1.314 . S
C1188 H1194 0.930 . S
C1189 N1191 1.279 . S
C1189 C1192 1.358 . S
C1189 H1195 0.930 . S
C1190 C1188 1.353 . S
C1190 C1193 1.348 . S
C1190 H1228 0.929 . S
N1191 Li1146 1.990 . S
N1191 C1188 1.314 . S
N1191 C1189 1.279 . S
C1192 C1189 1.358 . S
C1192 C1193 1.356 . S
C1192 H1229 0.930 . S
C1193 C1190 1.348 . S
C1193 C1192 1.356 . S
H1194 C1188 0.930 . S
H1195 C1189 0.930 . S
C1196 N1197 1.314 . S
C1196 C1198 1.353 . S
C1196 H1202 0.930 . S
N1197 Li1147 1.990 . S
N1197 C1196 1.314 . S
N1197 C1200 1.279 . S
C1198 C1196 1.353 . S
C1198 C1201 1.348 . S
C1198 H1230 0.929 . S
C1199 C1200 1.358 . S
C1199 C1201 1.356 . S
C1199 H1231 0.930 . S
C1200 N1197 1.279 . S
C1200 C1199 1.358 . S
C1200 H1203 0.930 . S
C1201 C1198 1.348 . S
C1201 C1199 1.356 . S
H1202 C1196 0.930 . S
H1203 C1200 0.930 . S
O1204 Li1144 1.956 . S
O1204 Li1145 1.970 . S
O1204 Li1146 1.961 . S
O1204 C1148 1.325 . S
O1205 Li1144 1.970 . S
O1205 Li1145 1.956 . S
O1205 Li1147 1.961 . S
O1205 C1154 1.325 . S
O1206 Li1144 1.961 . S
O1206 Li1146 1.956 . S
O1206 Li1147 1.970 . S
O1206 C1176 1.325 . S
O1207 Li1145 1.961 . S
O1207 Li1146 1.970 . S
O1207 Li1147 1.956 . S
O1207 C1182 1.325 . S
H1208 C1150 0.929 . S
H1209 C1151 0.930 . S
H1210 C1152 0.930 . S
H1211 C1153 0.930 . S
H1212 C1155 0.930 . S
H1213 C1157 0.929 . S
H1214 C1158 0.930 . S
H1215 C1159 0.930 . S
H1216 C1162 0.930 . S
H1217 C1165 0.929 . S
H1218 C1170 0.929 . S
H1219 C1171 0.930 . S
H1220 C1178 0.929 . S
H1221 C1179 0.930 . S
H1222 C1180 0.930 . S
H1223 C1181 0.930 . S
H1224 C1183 0.929 . S
H1225 C1184 0.930 . S
H1226 C1185 0.930 . S
H1227 C1186 0.930 . S
H1228 C1190 0.929 . S
H1229 C1192 0.930 . S
H1230 C1198 0.929 . S
H1231 C1199 0.930 . S
Li1232 N1249 1.990 . S
Li1232 O1292 1.956 . S
Li1232 O1293 1.970 . S
Li1232 O1294 1.961 . S
Li1233 N1257 1.990 . S
Li1233 O1292 1.970 . S
Li1233 O1293 1.956 . S
Li1233 O1295 1.961 . S
Li1234 N1279 1.990 . S
Li1234 O1292 1.961 . S
Li1234 O1294 1.956 . S
Li1234 O1295 1.970 . S
Li1235 N1285 1.990 . S
Li1235 O1293 1.961 . S
Li1235 O1294 1.970 . S
Li1235 O1295 1.956 . S
C1236 C1238 1.348 . S
C1236 C1239 1.356 . S
C1236 O1292 1.325 . S
N1237 C1240 1.314 . S
N1237 C1241 1.279 . S
C1238 C1236 1.348 . S
C1238 C1240 1.353 . S
C1238 H1296 0.929 . S
C1239 C1236 1.356 . S
C1239 C1241 1.358 . S
C1239 H1297 0.930 . S
C1240 N1237 1.314 . S
C1240 C1238 1.353 . S
C1240 H1298 0.930 . S
C1241 N1237 1.279 . S
C1241 C1239 1.358 . S
C1241 H1299 0.930 . S
C1242 C1245 1.348 . S
C1242 C1246 1.356 . S
C1242 O1293 1.325 . S
C1243 N1244 1.279 . S
C1243 C1246 1.358 . S
C1243 H1300 0.930 . S
N1244 C1243 1.279 . S
N1244 C1247 1.314 . S
C1245 C1242 1.348 . S
C1245 C1247 1.353 . S
C1245 H1301 0.929 . S
C1246 C1242 1.356 . S
C1246 C1243 1.358 . S
C1246 H1302 0.930 . S
C1247 N1244 1.314 . S
C1247 C1245 1.353 . S
C1247 H1303 0.930 . S
C1248 N1249 1.314 . S
C1248 C1253 1.353 . S
C1248 H1254 0.930 . S
N1249 Li1232 1.990 . S
N1249 C1248 1.314 . S
N1249 C1251 1.279 . S
C1250 C1251 1.358 . S
C1250 C1252 1.356 . S
C1250 H1304 0.930 . S
C1251 N1249 1.279 . S
C1251 C1250 1.358 . S
C1251 H1255 0.930 . S
C1252 C1250 1.356 . S
C1252 C1253 1.348 . S
C1253 C1248 1.353 . S
C1253 C1252 1.348 . S
C1253 H1305 0.929 . S
H1254 C1248 0.930 . S
H1255 C1251 0.930 . S
C1256 N1257 1.314 . S
C1256 C1258 1.353 . S
C1256 H1262 0.930 . S
N1257 Li1233 1.990 . S
N1257 C1256 1.314 . S
N1257 C1260 1.279 . S
C1258 C1256 1.353 . S
C1258 C1261 1.348 . S
C1258 H1306 0.929 . S
C1259 C1260 1.358 . S
C1259 C1261 1.356 . S
C1259 H1307 0.930 . S
C1260 N1257 1.279 . S
C1260 C1259 1.358 . S
C1260 H1263 0.930 . S
C1261 C1258 1.348 . S
C1261 C1259 1.356 . S
H1262 C1256 0.930 . S
H1263 C1260 0.930 . S
C1264 C1266 1.348 . S
C1264 C1267 1.356 . S
C1264 O1294 1.325 . S
N1265 C1268 1.314 . S
N1265 C1269 1.279 . S
C1266 C1264 1.348 . S
C1266 C1268 1.353 . S
C1266 H1308 0.929 . S
C1267 C1264 1.356 . S
C1267 C1269 1.358 . S
C1267 H1309 0.930 . S
C1268 N1265 1.314 . S
C1268 C1266 1.353 . S
C1268 H1310 0.930 . S
C1269 N1265 1.279 . S
C1269 C1267 1.358 . S
C1269 H1311 0.930 . S
C1270 C1271 1.348 . S
C1270 C1272 1.356 . S
C1270 O1295 1.325 . S
C1271 C1270 1.348 . S
C1271 C1273 1.353 . S
C1271 H1312 0.929 . S
C1272 C1270 1.356 . S
C1272 C1274 1.358 . S
C1272 H1313 0.930 . S
C1273 C1271 1.353 . S
C1273 N1275 1.314 . S
C1273 H1314 0.930 . S
C1274 C1272 1.358 . S
C1274 N1275 1.279 . S
C1274 H1315 0.930 . S
N1275 C1273 1.314 . S
N1275 C1274 1.279 . S
C1276 C1278 1.353 . S
C1276 N1279 1.314 . S
C1276 H1282 0.930 . S
C1277 N1279 1.279 . S
C1277 C1280 1.358 . S
C1277 H1283 0.930 . S
C1278 C1276 1.353 . S
C1278 C1281 1.348 . S
C1278 H1316 0.929 . S
N1279 Li1234 1.990 . S
N1279 C1276 1.314 . S
N1279 C1277 1.279 . S
C1280 C1277 1.358 . S
C1280 C1281 1.356 . S
C1280 H1317 0.930 . S
C1281 C1278 1.348 . S
C1281 C1280 1.356 . S
H1282 C1276 0.930 . S
H1283 C1277 0.930 . S
C1284 N1285 1.314 . S
C1284 C1286 1.353 . S
C1284 H1290 0.930 . S
N1285 Li1235 1.990 . S
N1285 C1284 1.314 . S
N1285 C1288 1.279 . S
C1286 C1284 1.353 . S
C1286 C1289 1.348 . S
C1286 H1318 0.929 . S
C1287 C1288 1.358 . S
C1287 C1289 1.356 . S
C1287 H1319 0.930 . S
C1288 N1285 1.279 . S
C1288 C1287 1.358 . S
C1288 H1291 0.930 . S
C1289 C1286 1.348 . S
C1289 C1287 1.356 . S
H1290 C1284 0.930 . S
H1291 C1288 0.930 . S
O1292 Li1232 1.956 . S
O1292 Li1233 1.970 . S
O1292 Li1234 1.961 . S
O1292 C1236 1.325 . S
O1293 Li1232 1.970 . S
O1293 Li1233 1.956 . S
O1293 Li1235 1.961 . S
O1293 C1242 1.325 . S
O1294 Li1232 1.961 . S
O1294 Li1234 1.956 . S
O1294 Li1235 1.970 . S
O1294 C1264 1.325 . S
O1295 Li1233 1.961 . S
O1295 Li1234 1.970 . S
O1295 Li1235 1.956 . S
O1295 C1270 1.325 . S
H1296 C1238 0.929 . S
H1297 C1239 0.930 . S
H1298 C1240 0.930 . S
H1299 C1241 0.930 . S
H1300 C1243 0.930 . S
H1301 C1245 0.929 . S
H1302 C1246 0.930 . S
H1303 C1247 0.930 . S
H1304 C1250 0.930 . S
H1305 C1253 0.929 . S
H1306 C1258 0.929 . S
H1307 C1259 0.930 . S
H1308 C1266 0.929 . S
H1309 C1267 0.930 . S
H1310 C1268 0.930 . S
H1311 C1269 0.930 . S
H1312 C1271 0.929 . S
H1313 C1272 0.930 . S
H1314 C1273 0.930 . S
H1315 C1274 0.930 . S
H1316 C1278 0.929 . S
H1317 C1280 0.930 . S
H1318 C1286 0.929 . S
H1319 C1287 0.930 . S
Li1320 N1337 1.990 . S
Li1320 O1380 1.956 . S
Li1320 O1381 1.970 . S
Li1320 O1382 1.961 . S
Li1321 N1345 1.990 . S
Li1321 O1380 1.970 . S
Li1321 O1381 1.956 . S
Li1321 O1383 1.961 . S
Li1322 N1367 1.990 . S
Li1322 O1380 1.961 . S
Li1322 O1382 1.956 . S
Li1322 O1383 1.970 . S
Li1323 N1373 1.990 . S
Li1323 O1381 1.961 . S
Li1323 O1382 1.970 . S
Li1323 O1383 1.956 . S
C1324 C1326 1.348 . S
C1324 C1327 1.356 . S
C1324 O1380 1.325 . S
N1325 C1328 1.314 . S
N1325 C1329 1.279 . S
C1326 C1324 1.348 . S
C1326 C1328 1.353 . S
C1326 H1384 0.929 . S
C1327 C1324 1.356 . S
C1327 C1329 1.358 . S
C1327 H1385 0.930 . S
C1328 N1325 1.314 . S
C1328 C1326 1.353 . S
C1328 H1386 0.930 . S
C1329 N1325 1.279 . S
C1329 C1327 1.358 . S
C1329 H1387 0.930 . S
C1330 C1333 1.348 . S
C1330 C1334 1.356 . S
C1330 O1381 1.325 . S
C1331 N1332 1.279 . S
C1331 C1334 1.358 . S
C1331 H1388 0.930 . S
N1332 C1331 1.279 . S
N1332 C1335 1.314 . S
C1333 C1330 1.348 . S
C1333 C1335 1.353 . S
C1333 H1389 0.929 . S
C1334 C1330 1.356 . S
C1334 C1331 1.358 . S
C1334 H1390 0.930 . S
C1335 N1332 1.314 . S
C1335 C1333 1.353 . S
C1335 H1391 0.930 . S
C1336 N1337 1.314 . S
C1336 C1341 1.353 . S
C1336 H1342 0.930 . S
N1337 Li1320 1.990 . S
N1337 C1336 1.314 . S
N1337 C1339 1.279 . S
C1338 C1339 1.358 . S
C1338 C1340 1.356 . S
C1338 H1392 0.930 . S
C1339 N1337 1.279 . S
C1339 C1338 1.358 . S
C1339 H1343 0.930 . S
C1340 C1338 1.356 . S
C1340 C1341 1.348 . S
C1341 C1336 1.353 . S
C1341 C1340 1.348 . S
C1341 H1393 0.929 . S
H1342 C1336 0.930 . S
H1343 C1339 0.930 . S
C1344 N1345 1.314 . S
C1344 C1346 1.353 . S
C1344 H1350 0.930 . S
N1345 Li1321 1.990 . S
N1345 C1344 1.314 . S
N1345 C1348 1.279 . S
C1346 C1344 1.353 . S
C1346 C1349 1.348 . S
C1346 H1394 0.929 . S
C1347 C1348 1.358 . S
C1347 C1349 1.356 . S
C1347 H1395 0.930 . S
C1348 N1345 1.279 . S
C1348 C1347 1.358 . S
C1348 H1351 0.930 . S
C1349 C1346 1.348 . S
C1349 C1347 1.356 . S
H1350 C1344 0.930 . S
H1351 C1348 0.930 . S
C1352 C1354 1.348 . S
C1352 C1355 1.356 . S
C1352 O1382 1.325 . S
N1353 C1356 1.314 . S
N1353 C1357 1.279 . S
C1354 C1352 1.348 . S
C1354 C1356 1.353 . S
C1354 H1396 0.929 . S
C1355 C1352 1.356 . S
C1355 C1357 1.358 . S
C1355 H1397 0.930 . S
C1356 N1353 1.314 . S
C1356 C1354 1.353 . S
C1356 H1398 0.930 . S
C1357 N1353 1.279 . S
C1357 C1355 1.358 . S
C1357 H1399 0.930 . S
C1358 C1359 1.348 . S
C1358 C1360 1.356 . S
C1358 O1383 1.325 . S
C1359 C1358 1.348 . S
C1359 C1361 1.353 . S
C1359 H1400 0.929 . S
C1360 C1358 1.356 . S
C1360 C1362 1.358 . S
C1360 H1401 0.930 . S
C1361 C1359 1.353 . S
C1361 N1363 1.314 . S
C1361 H1402 0.930 . S
C1362 C1360 1.358 . S
C1362 N1363 1.279 . S
C1362 H1403 0.930 . S
N1363 C1361 1.314 . S
N1363 C1362 1.279 . S
C1364 C1366 1.353 . S
C1364 N1367 1.314 . S
C1364 H1370 0.930 . S
C1365 N1367 1.279 . S
C1365 C1368 1.358 . S
C1365 H1371 0.930 . S
C1366 C1364 1.353 . S
C1366 C1369 1.348 . S
C1366 H1404 0.929 . S
N1367 Li1322 1.990 . S
N1367 C1364 1.314 . S
N1367 C1365 1.279 . S
C1368 C1365 1.358 . S
C1368 C1369 1.356 . S
C1368 H1405 0.930 . S
C1369 C1366 1.348 . S
C1369 C1368 1.356 . S
H1370 C1364 0.930 . S
H1371 C1365 0.930 . S
C1372 N1373 1.314 . S
C1372 C1374 1.353 . S
C1372 H1378 0.930 . S
N1373 Li1323 1.990 . S
N1373 C1372 1.314 . S
N1373 C1376 1.279 . S
C1374 C1372 1.353 . S
C1374 C1377 1.348 . S
C1374 H1406 0.929 . S
C1375 C1376 1.358 . S
C1375 C1377 1.356 . S
C1375 H1407 0.930 . S
C1376 N1373 1.279 . S
C1376 C1375 1.358 . S
C1376 H1379 0.930 . S
C1377 C1374 1.348 . S
C1377 C1375 1.356 . S
H1378 C1372 0.930 . S
H1379 C1376 0.930 . S
O1380 Li1320 1.956 . S
O1380 Li1321 1.970 . S
O1380 Li1322 1.961 . S
O1380 C1324 1.325 . S
O1381 Li1320 1.970 . S
O1381 Li1321 1.956 . S
O1381 Li1323 1.961 . S
O1381 C1330 1.325 . S
O1382 Li1320 1.961 . S
O1382 Li1322 1.956 . S
O1382 Li1323 1.970 . S
O1382 C1352 1.325 . S
O1383 Li1321 1.961 . S
O1383 Li1322 1.970 . S
O1383 Li1323 1.956 . S
O1383 C1358 1.325 . S
H1384 C1326 0.929 . S
H1385 C1327 0.930 . S
H1386 C1328 0.930 . S
H1387 C1329 0.930 . S
H1388 C1331 0.930 . S
H1389 C1333 0.929 . S
H1390 C1334 0.930 . S
H1391 C1335 0.930 . S
H1392 C1338 0.930 . S
H1393 C1341 0.929 . S
H1394 C1346 0.929 . S
H1395 C1347 0.930 . S
H1396 C1354 0.929 . S
H1397 C1355 0.930 . S
H1398 C1356 0.930 . S
H1399 C1357 0.930 . S
H1400 C1359 0.929 . S
H1401 C1360 0.930 . S
H1402 C1361 0.930 . S
H1403 C1362 0.930 . S
H1404 C1366 0.929 . S
H1405 C1368 0.930 . S
H1406 C1374 0.929 . S
H1407 C1375 0.930 . S
H1408 C1416 0.929 . S
H1409 C1418 0.930 . S
H1410 C1420 0.930 . S
H1411 C1423 0.929 . S
H1412 C1426 0.930 . S
H1413 C1428 0.960 . S
H1414 C1428 0.960 . S
H1415 C1428 0.960 . S
C1416 H1408 0.929 . S
C1416 C1417 1.378 1_554 S
C1416 C1418 1.384 . S
C1417 C1416 1.378 1_556 S
C1417 C1423 1.389 . S
C1418 H1409 0.930 . S
C1418 C1416 1.384 . S
C1418 C1419 1.373 . S
C1419 C1418 1.373 . S
C1419 C1420 1.399 1_554 S
C1419 C1424 1.490 . S
C1420 H1410 0.930 . S
C1420 C1419 1.399 1_556 S
C1420 C1423 1.386 . S
H1421 C1437 0.928 1_556 S
H1422 C1438 0.931 . S
C1423 H1411 0.929 . S
C1423 C1417 1.389 . S
C1423 C1420 1.386 . S
C1424 C1419 1.490 . S
C1424 C1426 1.395 . S
C1424 C1427 1.403 1_554 S
H1425 C1431 0.930 . S
C1426 H1412 0.930 . S
C1426 C1424 1.395 . S
C1426 C1429 1.403 . S
C1427 C1424 1.403 1_556 S
C1427 C1428 1.524 . S
C1427 C1431 1.400 . S
C1428 H1413 0.960 . S
C1428 H1414 0.960 . S
C1428 H1415 0.960 . S
C1428 C1427 1.524 . S
C1429 C1426 1.403 . S
C1429 C1430 1.392 . S
C1429 C1433 1.495 . S
C1430 C1429 1.392 . S
C1430 C1431 1.385 1_554 S
C1430 C1432 1.478 . S
C1431 H1425 0.930 . S
C1431 C1427 1.400 . S
C1431 C1430 1.385 1_556 S
C1432 C1430 1.478 . S
C1432 C1434 1.381 . S
C1432 C1438 1.383 . S
C1433 C1429 1.495 . S
C1433 H1439 0.959 . S
C1433 H1440 0.961 . S
C1433 H1441 0.960 . S
C1434 C1432 1.381 . S
C1434 C1435 1.394 . S
C1434 H1442 0.930 . S
C1435 C1434 1.394 . S
C1435 C1436 1.383 . S
C1435 H1443 0.929 . S
C1436 C1435 1.383 . S
C1436 C1437 1.377 . S
C1437 H1421 0.928 1_554 S
C1437 C1436 1.377 . S
C1437 C1438 1.380 . S
C1438 H1422 0.931 . S
C1438 C1432 1.383 . S
C1438 C1437 1.380 . S
H1439 C1433 0.959 . S
H1440 C1433 0.961 . S
H1441 C1433 0.960 . S
H1442 C1434 0.930 . S
H1443 C1435 0.929 . S
H1444 C1452 0.929 . S
H1445 C1454 0.930 . S
H1446 C1456 0.930 . S
H1447 C1459 0.929 . S
H1448 C1462 0.930 . S
H1449 C1464 0.960 . S
H1450 C1464 0.960 . S
H1451 C1464 0.960 . S
C1452 H1444 0.929 . S
C1452 C1453 1.387 . S
C1452 C1454 1.384 . S
C1453 C1452 1.387 . S
C1453 C1459 1.380 1_554 S
C1454 H1445 0.930 . S
C1454 C1452 1.384 . S
C1454 C1455 1.372 . S
C1455 C1454 1.372 . S
C1455 C1456 1.400 1_554 S
C1455 C1460 1.490 . S
C1456 H1446 0.930 . S
C1456 C1455 1.400 1_556 S
C1456 C1459 1.386 . S
H1457 C1473 0.930 . S
H1458 C1474 0.931 . S
C1459 H1447 0.929 . S
C1459 C1453 1.380 1_556 S
C1459 C1456 1.386 . S
C1460 C1455 1.490 . S
C1460 C1462 1.395 . S
C1460 C1463 1.403 1_554 S
H1461 C1467 0.930 . S
C1462 H1448 0.930 . S
C1462 C1460 1.395 . S
C1462 C1465 1.403 . S
C1463 C1460 1.403 1_556 S
C1463 C1464 1.524 . S
C1463 C1467 1.400 . S
C1464 H1449 0.960 . S
C1464 H1450 0.960 . S
C1464 H1451 0.960 . S
C1464 C1463 1.524 . S
C1465 C1462 1.403 . S
C1465 C1466 1.392 . S
C1465 C1469 1.495 . S
C1466 C1465 1.392 . S
C1466 C1467 1.385 1_554 S
C1466 C1468 1.478 . S
C1467 H1461 0.930 . S
C1467 C1463 1.400 . S
C1467 C1466 1.385 1_556 S
C1468 C1466 1.478 . S
C1468 C1470 1.381 . S
C1468 C1474 1.383 1_554 S
C1469 C1465 1.495 . S
C1469 H1475 0.959 . S
C1469 H1476 0.961 . S
C1469 H1477 0.960 . S
C1470 C1468 1.381 . S
C1470 C1471 1.394 . S
C1470 H1478 0.930 . S
C1471 C1470 1.394 . S
C1471 C1472 1.383 . S
C1471 H1479 0.929 . S
C1472 C1471 1.383 . S
C1472 C1473 1.377 1_554 S
C1473 H1457 0.930 . S
C1473 C1472 1.377 1_556 S
C1473 C1474 1.379 . S
C1474 H1458 0.931 . S
C1474 C1468 1.383 1_556 S
C1474 C1473 1.379 . S
H1475 C1469 0.959 . S
H1476 C1469 0.961 . S
H1477 C1469 0.960 . S
H1478 C1470 0.930 . S
H1479 C1471 0.929 . S
H1480 C1488 0.929 . S
H1481 C1490 0.930 . S
H1482 C1492 0.930 . S
H1483 C1495 0.929 . S
H1484 C1498 0.930 . S
H1485 C1500 0.960 . S
H1486 C1500 0.960 . S
H1487 C1500 0.960 . S
C1488 H1480 0.929 . S
C1488 C1489 1.378 . S
C1488 C1490 1.384 . S
C1489 C1488 1.378 . S
C1489 C1495 1.389 1_554 S
C1490 H1481 0.930 . S
C1490 C1488 1.384 . S
C1490 C1491 1.391 . S
C1491 C1490 1.391 . S
C1491 C1492 1.380 1_554 S
C1491 C1496 1.492 . S
C1492 H1482 0.930 . S
C1492 C1491 1.380 1_556 S
C1492 C1495 1.386 . S
H1493 C1509 0.930 . S
H1494 C1510 0.931 . S
C1495 H1483 0.929 . S
C1495 C1489 1.389 1_556 S
C1495 C1492 1.386 . S
C1496 C1491 1.492 . S
C1496 C1498 1.395 . S
C1496 C1499 1.403 1_554 S
H1497 C1503 0.930 . S
C1498 H1484 0.930 . S
C1498 C1496 1.395 . S
C1498 C1501 1.403 . S
C1499 C1496 1.403 1_556 S
C1499 C1500 1.524 . S
C1499 C1503 1.400 . S
C1500 H1485 0.960 . S
C1500 H1486 0.960 . S
C1500 H1487 0.960 . S
C1500 C1499 1.524 . S
C1501 C1498 1.403 . S
C1501 C1502 1.392 . S
C1501 C1505 1.495 . S
C1502 C1501 1.392 . S
C1502 C1503 1.385 1_554 S
C1502 C1504 1.478 . S
C1503 H1497 0.930 . S
C1503 C1499 1.400 . S
C1503 C1502 1.385 1_556 S
C1504 C1502 1.478 . S
C1504 C1506 1.381 . S
C1504 C1510 1.383 1_554 S
C1505 C1501 1.495 . S
C1505 H1511 0.959 . S
C1505 H1512 0.961 . S
C1505 H1513 0.960 . S
C1506 C1504 1.381 . S
C1506 C1507 1.394 . S
C1506 H1514 0.930 . S
C1507 C1506 1.394 . S
C1507 C1508 1.383 . S
C1507 H1515 0.929 . S
C1508 C1507 1.383 . S
C1508 C1509 1.377 1_554 S
C1509 H1493 0.930 . S
C1509 C1508 1.377 1_556 S
C1509 C1510 1.379 . S
C1510 H1494 0.931 . S
C1510 C1504 1.383 1_556 S
C1510 C1509 1.379 . S
H1511 C1505 0.959 . S
H1512 C1505 0.961 . S
H1513 C1505 0.960 . S
H1514 C1506 0.930 . S
H1515 C1507 0.929 . S
H1516 C1524 0.929 . S
H1517 C1526 0.930 . S
H1518 C1528 0.930 . S
H1519 C1531 0.929 . S
H1520 C1534 0.930 . S
H1521 C1536 0.960 . S
H1522 C1536 0.960 . S
H1523 C1536 0.960 . S
C1524 H1516 0.929 . S
C1524 C1525 1.376 . S
C1524 C1526 1.384 . S
C1525 C1524 1.376 . S
C1525 C1531 1.391 1_554 S
C1526 H1517 0.930 . S
C1526 C1524 1.384 . S
C1526 C1527 1.378 . S
C1527 C1526 1.378 . S
C1527 C1528 1.393 1_554 S
C1527 C1532 1.491 . S
C1528 H1518 0.930 . S
C1528 C1527 1.393 1_556 S
C1528 C1531 1.386 . S
H1529 C1545 0.930 . S
H1530 C1546 0.931 . S
C1531 H1519 0.929 . S
C1531 C1525 1.391 1_556 S
C1531 C1528 1.386 . S
C1532 C1527 1.491 . S
C1532 C1534 1.395 . S
C1532 C1535 1.403 1_554 S
H1533 C1539 0.930 . S
C1534 H1520 0.930 . S
C1534 C1532 1.395 . S
C1534 C1537 1.403 . S
C1535 C1532 1.403 1_556 S
C1535 C1536 1.524 . S
C1535 C1539 1.400 . S
C1536 H1521 0.960 . S
C1536 H1522 0.960 . S
C1536 H1523 0.960 . S
C1536 C1535 1.524 . S
C1537 C1534 1.403 . S
C1537 C1538 1.392 . S
C1537 C1541 1.495 . S
C1538 C1537 1.392 . S
C1538 C1539 1.385 1_554 S
C1538 C1540 1.478 . S
C1539 H1533 0.930 . S
C1539 C1535 1.400 . S
C1539 C1538 1.385 1_556 S
C1540 C1538 1.478 . S
C1540 C1542 1.381 . S
C1540 C1546 1.383 1_554 S
C1541 C1537 1.495 . S
C1541 H1547 0.959 . S
C1541 H1548 0.961 . S
C1541 H1549 0.960 . S
C1542 C1540 1.381 . S
C1542 C1543 1.394 . S
C1542 H1550 0.930 . S
C1543 C1542 1.394 . S
C1543 C1544 1.383 . S
C1543 H1551 0.929 . S
C1544 C1543 1.383 . S
C1544 C1545 1.377 1_554 S
C1545 H1529 0.930 . S
C1545 C1544 1.377 1_556 S
C1545 C1546 1.379 . S
C1546 H1530 0.931 . S
C1546 C1540 1.383 1_556 S
C1546 C1545 1.379 . S
H1547 C1541 0.959 . S
H1548 C1541 0.961 . S
H1549 C1541 0.960 . S
H1550 C1542 0.930 . S
H1551 C1543 0.929 . S
H1552 C1560 0.929 . S
H1553 C1562 0.930 . S
H1554 C1564 0.930 . S
H1555 C1567 0.929 . S
H1556 C1570 0.930 . S
H1557 C1572 0.960 . S
H1558 C1572 0.960 . S
H1559 C1572 0.960 . S
C1560 H1552 0.929 . S
C1560 C1561 1.377 . S
C1560 C1562 1.384 . S
C1561 C1560 1.377 . S
C1561 C1567 1.390 . S
C1562 H1553 0.930 . S
C1562 C1560 1.384 . S
C1562 C1563 1.372 . S
C1563 C1562 1.372 . S
C1563 C1564 1.400 . S
C1563 C1568 1.490 . S
C1564 H1554 0.930 . S
C1564 C1563 1.400 . S
C1564 C1567 1.386 . S
H1565 C1581 0.930 . S
H1566 C1582 0.931 . S
C1567 H1555 0.929 . S
C1567 C1561 1.390 . S
C1567 C1564 1.386 . S
C1568 C1563 1.490 . S
C1568 C1570 1.395 . S
C1568 C1571 1.403 . S
H1569 C1575 0.930 . S
C1570 H1556 0.930 . S
C1570 C1568 1.395 . S
C1570 C1573 1.403 1_545 S
C1571 C1568 1.403 . S
C1571 C1572 1.524 . S
C1571 C1575 1.400 1_545 S
C1572 H1557 0.960 . S
C1572 H1558 0.960 . S
C1572 H1559 0.960 . S
C1572 C1571 1.524 . S
C1573 C1570 1.403 1_565 S
C1573 C1574 1.392 . S
C1573 C1577 1.495 . S
C1574 C1573 1.392 . S
C1574 C1575 1.385 . S
C1574 C1576 1.478 . S
C1575 H1569 0.930 . S
C1575 C1571 1.400 1_565 S
C1575 C1574 1.385 . S
C1576 C1574 1.478 . S
C1576 C1578 1.381 . S
C1576 C1582 1.383 . S
C1577 C1573 1.495 . S
C1577 H1583 0.959 . S
C1577 H1584 0.961 . S
C1577 H1585 0.960 . S
C1578 C1576 1.381 . S
C1578 C1579 1.394 . S
C1578 H1586 0.930 . S
C1579 C1578 1.394 . S
C1579 C1580 1.383 . S
C1579 H1587 0.929 . S
C1580 C1579 1.383 . S
C1580 C1581 1.377 . S
C1581 H1565 0.930 . S
C1581 C1580 1.377 . S
C1581 C1582 1.379 . S
C1582 H1566 0.931 . S
C1582 C1576 1.383 . S
C1582 C1581 1.379 . S
H1583 C1577 0.959 . S
H1584 C1577 0.961 . S
H1585 C1577 0.960 . S
H1586 C1578 0.930 . S
H1587 C1579 0.929 . S
H1588 C1596 0.929 . S
H1589 C1598 0.930 . S
H1590 C1600 0.930 . S
H1591 C1603 0.929 . S
H1592 C1606 0.930 . S
H1593 C1608 0.960 . S
H1594 C1608 0.960 . S
H1595 C1608 0.960 . S
C1596 H1588 0.929 . S
C1596 C1597 1.377 . S
C1596 C1598 1.384 . S
C1597 C1596 1.377 . S
C1597 C1603 1.390 . S
C1598 H1589 0.930 . S
C1598 C1596 1.384 . S
C1598 C1599 1.372 . S
C1599 C1598 1.372 . S
C1599 C1600 1.400 . S
C1599 C1604 1.490 . S
C1600 H1590 0.930 . S
C1600 C1599 1.400 . S
C1600 C1603 1.386 . S
H1601 C1617 0.930 . S
H1602 C1618 0.931 . S
C1603 H1591 0.929 . S
C1603 C1597 1.390 . S
C1603 C1600 1.386 . S
C1604 C1599 1.490 . S
C1604 C1606 1.395 . S
C1604 C1607 1.403 . S
H1605 C1611 0.930 . S
C1606 H1592 0.930 . S
C1606 C1604 1.395 . S
C1606 C1609 1.403 1_655 S
C1607 C1604 1.403 . S
C1607 C1608 1.524 . S
C1607 C1611 1.400 1_655 S
C1608 H1593 0.960 . S
C1608 H1594 0.960 . S
C1608 H1595 0.960 . S
C1608 C1607 1.524 . S
C1609 C1606 1.403 1_455 S
C1609 C1610 1.392 . S
C1609 C1613 1.495 . S
C1610 C1609 1.392 . S
C1610 C1611 1.385 . S
C1610 C1612 1.478 . S
C1611 H1605 0.930 . S
C1611 C1607 1.400 1_455 S
C1611 C1610 1.385 . S
C1612 C1610 1.478 . S
C1612 C1614 1.381 . S
C1612 C1618 1.383 . S
C1613 C1609 1.495 . S
C1613 H1619 0.959 . S
C1613 H1620 0.961 . S
C1613 H1621 0.960 . S
C1614 C1612 1.381 . S
C1614 C1615 1.394 . S
C1614 H1622 0.930 . S
C1615 C1614 1.394 . S
C1615 C1616 1.383 . S
C1615 H1623 0.929 . S
C1616 C1615 1.383 . S
C1616 C1617 1.377 . S
C1617 H1601 0.930 . S
C1617 C1616 1.377 . S
C1617 C1618 1.379 . S
C1618 H1602 0.931 . S
C1618 C1612 1.383 . S
C1618 C1617 1.379 . S
H1619 C1613 0.959 . S
H1620 C1613 0.961 . S
H1621 C1613 0.960 . S
H1622 C1614 0.930 . S
H1623 C1615 0.929 . S
H1624 C1632 0.929 . S
H1625 C1634 0.930 . S
H1626 C1636 0.930 . S
H1627 C1639 0.929 . S
H1628 C1642 0.930 . S
H1629 C1644 0.960 . S
H1630 C1644 0.960 . S
H1631 C1644 0.960 . S
C1632 H1624 0.929 . S
C1632 C1633 1.377 . S
C1632 C1634 1.384 . S
C1633 C1632 1.377 . S
C1633 C1639 1.390 . S
C1634 H1625 0.930 . S
C1634 C1632 1.384 . S
C1634 C1635 1.372 . S
C1635 C1634 1.372 . S
C1635 C1636 1.400 . S
C1635 C1640 1.490 . S
C1636 H1626 0.930 . S
C1636 C1635 1.400 . S
C1636 C1639 1.386 . S
H1637 C1653 0.930 . S
H1638 C1654 0.931 . S
C1639 H1627 0.929 . S
C1639 C1633 1.390 . S
C1639 C1636 1.386 . S
C1640 C1635 1.490 . S
C1640 C1642 1.395 . S
C1640 C1643 1.403 . S
H1641 C1647 0.930 . S
C1642 H1628 0.930 . S
C1642 C1640 1.395 . S
C1642 C1645 1.403 1_545 S
C1643 C1640 1.403 . S
C1643 C1644 1.524 . S
C1643 C1647 1.400 1_545 S
C1644 H1629 0.960 . S
C1644 H1630 0.960 . S
C1644 H1631 0.960 . S
C1644 C1643 1.524 . S
C1645 C1642 1.403 1_565 S
C1645 C1646 1.392 . S
C1645 C1649 1.495 . S
C1646 C1645 1.392 . S
C1646 C1647 1.385 . S
C1646 C1648 1.478 . S
C1647 H1641 0.930 . S
C1647 C1643 1.400 1_565 S
C1647 C1646 1.385 . S
C1648 C1646 1.478 . S
C1648 C1650 1.381 . S
C1648 C1654 1.383 . S
C1649 C1645 1.495 . S
C1649 H1655 0.959 . S
C1649 H1656 0.961 . S
C1649 H1657 0.960 . S
C1650 C1648 1.381 . S
C1650 C1651 1.394 . S
C1650 H1658 0.930 . S
C1651 C1650 1.394 . S
C1651 C1652 1.383 . S
C1651 H1659 0.929 . S
C1652 C1651 1.383 . S
C1652 C1653 1.377 . S
C1653 H1637 0.930 . S
C1653 C1652 1.377 . S
C1653 C1654 1.379 . S
C1654 H1638 0.931 . S
C1654 C1648 1.383 . S
C1654 C1653 1.379 . S
H1655 C1649 0.959 . S
H1656 C1649 0.961 . S
H1657 C1649 0.960 . S
H1658 C1650 0.930 . S
H1659 C1651 0.929 . S
H1660 C1668 0.929 . S
H1661 C1670 0.930 . S
H1662 C1672 0.930 . S
H1663 C1675 0.929 . S
H1664 C1678 0.930 . S
H1665 C1680 0.960 . S
H1666 C1680 0.960 . S
H1667 C1680 0.960 . S
C1668 H1660 0.929 . S
C1668 C1669 1.377 . S
C1668 C1670 1.384 . S
C1669 C1668 1.377 . S
C1669 C1675 1.390 . S
C1670 H1661 0.930 . S
C1670 C1668 1.384 . S
C1670 C1671 1.372 . S
C1671 C1670 1.372 . S
C1671 C1672 1.400 . S
C1671 C1676 1.490 . S
C1672 H1662 0.930 . S
C1672 C1671 1.400 . S
C1672 C1675 1.386 . S
H1673 C1689 0.930 . S
H1674 C1690 0.931 . S
C1675 H1663 0.929 . S
C1675 C1669 1.390 . S
C1675 C1672 1.386 . S
C1676 C1671 1.490 . S
C1676 C1678 1.395 . S
C1676 C1679 1.403 . S
H1677 C1683 0.930 . S
C1678 H1664 0.930 . S
C1678 C1676 1.395 . S
C1678 C1681 1.403 1_455 S
C1679 C1676 1.403 . S
C1679 C1680 1.524 . S
C1679 C1683 1.400 1_455 S
C1680 H1665 0.960 . S
C1680 H1666 0.960 . S
C1680 H1667 0.960 . S
C1680 C1679 1.524 . S
C1681 C1678 1.403 1_655 S
C1681 C1682 1.392 . S
C1681 C1685 1.495 . S
C1682 C1681 1.392 . S
C1682 C1683 1.385 . S
C1682 C1684 1.478 . S
C1683 H1677 0.930 . S
C1683 C1679 1.400 1_655 S
C1683 C1682 1.385 . S
C1684 C1682 1.478 . S
C1684 C1686 1.381 . S
C1684 C1690 1.383 . S
C1685 C1681 1.495 . S
C1685 H1691 0.959 . S
C1685 H1692 0.961 . S
C1685 H1693 0.960 . S
C1686 C1684 1.381 . S
C1686 C1687 1.394 . S
C1686 H1694 0.930 . S
C1687 C1686 1.394 . S
C1687 C1688 1.383 . S
C1687 H1695 0.929 . S
C1688 C1687 1.383 . S
C1688 C1689 1.377 . S
C1689 H1673 0.930 . S
C1689 C1688 1.377 . S
C1689 C1690 1.379 . S
C1690 H1674 0.931 . S
C1690 C1684 1.383 . S
C1690 C1689 1.379 . S
H1691 C1685 0.959 . S
H1692 C1685 0.961 . S
H1693 C1685 0.960 . S
H1694 C1686 0.930 . S
H1695 C1687 0.929 . S
H1696 C1704 0.929 . S
H1697 C1706 0.930 . S
H1698 C1708 0.930 . S
H1699 C1711 0.929 . S
H1700 C1714 0.930 . S
H1701 C1716 0.960 . S
H1702 C1716 0.960 . S
H1703 C1716 0.960 . S
C1704 H1696 0.929 . S
C1704 C1705 1.380 . S
C1704 C1706 1.384 . S
C1705 C1704 1.380 . S
C1705 C1711 1.387 1_556 S
C1706 H1697 0.930 . S
C1706 C1704 1.384 . S
C1706 C1707 1.372 . S
C1707 C1706 1.372 . S
C1707 C1708 1.400 1_556 S
C1707 C1712 1.490 . S
C1708 H1698 0.930 . S
C1708 C1707 1.400 1_554 S
C1708 C1711 1.386 . S
H1709 C1725 0.930 . S
H1710 C1726 0.931 . S
C1711 H1699 0.929 . S
C1711 C1705 1.387 1_554 S
C1711 C1708 1.386 . S
C1712 C1707 1.490 . S
C1712 C1714 1.386 1_556 S
C1712 C1715 1.411 . S
H1713 C1719 0.930 . S
C1714 H1700 0.930 . S
C1714 C1712 1.386 1_554 S
C1714 C1717 1.403 . S
C1715 C1712 1.411 . S
C1715 C1716 1.524 . S
C1715 C1719 1.400 . S
C1716 H1701 0.960 . S
C1716 H1702 0.960 . S
C1716 H1703 0.960 . S
C1716 C1715 1.524 . S
C1717 C1714 1.403 . S
C1717 C1718 1.392 . S
C1717 C1721 1.495 . S
C1718 C1717 1.392 . S
C1718 C1719 1.385 1_554 S
C1718 C1720 1.478 . S
C1719 H1713 0.930 . S
C1719 C1715 1.400 . S
C1719 C1718 1.385 1_556 S
C1720 C1718 1.478 . S
C1720 C1722 1.381 1_554 S
C1720 C1726 1.383 . S
C1721 C1717 1.495 . S
C1721 H1727 0.959 . S
C1721 H1728 0.961 . S
C1721 H1729 0.960 . S
C1722 C1720 1.381 1_556 S
C1722 C1723 1.394 . S
C1722 H1730 0.930 . S
C1723 C1722 1.394 . S
C1723 C1724 1.383 1_556 S
C1723 H1731 0.929 . S
C1724 C1723 1.383 1_554 S
C1724 C1725 1.377 . S
C1725 H1709 0.930 . S
C1725 C1724 1.377 . S
C1725 C1726 1.379 . S
C1726 H1710 0.931 . S
C1726 C1720 1.383 . S
C1726 C1725 1.379 . S
H1727 C1721 0.959 . S
H1728 C1721 0.961 . S
H1729 C1721 0.960 . S
H1730 C1722 0.930 . S
H1731 C1723 0.929 . S
H1732 C1740 0.929 . S
H1733 C1742 0.930 . S
H1734 C1744 0.930 . S
H1735 C1747 0.929 . S
H1736 C1750 0.930 . S
H1737 C1752 0.960 . S
H1738 C1752 0.960 . S
H1739 C1752 0.960 . S
C1740 H1732 0.929 . S
C1740 C1741 1.387 . S
C1740 C1742 1.384 . S
C1741 C1740 1.387 . S
C1741 C1747 1.381 1_556 S
C1742 H1733 0.930 . S
C1742 C1740 1.384 . S
C1742 C1743 1.372 . S
C1743 C1742 1.372 . S
C1743 C1744 1.400 1_556 S
C1743 C1748 1.490 . S
C1744 H1734 0.930 . S
C1744 C1743 1.400 1_554 S
C1744 C1747 1.386 . S
H1745 C1761 0.930 . S
H1746 C1762 0.931 . S
C1747 H1735 0.929 . S
C1747 C1741 1.381 1_554 S
C1747 C1744 1.386 . S
C1748 C1743 1.490 . S
C1748 C1750 1.395 . S
C1748 C1751 1.403 1_556 S
H1749 C1755 0.930 . S
C1750 H1736 0.930 . S
C1750 C1748 1.395 . S
C1750 C1753 1.403 . S
C1751 C1748 1.403 1_554 S
C1751 C1752 1.524 . S
C1751 C1755 1.400 . S
C1752 H1737 0.960 . S
C1752 H1738 0.960 . S
C1752 H1739 0.960 . S
C1752 C1751 1.524 . S
C1753 C1750 1.403 . S
C1753 C1754 1.392 . S
C1753 C1757 1.495 . S
C1754 C1753 1.392 . S
C1754 C1755 1.385 1_556 S
C1754 C1756 1.478 . S
C1755 H1749 0.930 . S
C1755 C1751 1.400 . S
C1755 C1754 1.385 1_554 S
C1756 C1754 1.478 . S
C1756 C1758 1.381 . S
C1756 C1762 1.383 1_556 S
C1757 C1753 1.495 . S
C1757 H1763 0.959 . S
C1757 H1764 0.961 . S
C1757 H1765 0.960 . S
C1758 C1756 1.381 . S
C1758 C1759 1.394 . S
C1758 H1766 0.930 . S
C1759 C1758 1.394 . S
C1759 C1760 1.407 . S
C1759 H1767 0.929 . S
C1760 C1759 1.407 . S
C1760 C1761 1.355 1_556 S
C1761 H1745 0.930 . S
C1761 C1760 1.355 1_554 S
C1761 C1762 1.379 . S
C1762 H1746 0.931 . S
C1762 C1756 1.383 1_554 S
C1762 C1761 1.379 . S
H1763 C1757 0.959 . S
H1764 C1757 0.961 . S
H1765 C1757 0.960 . S
H1766 C1758 0.930 . S
H1767 C1759 0.929 . S
H1768 C1776 0.929 . S
H1769 C1778 0.930 . S
H1770 C1780 0.930 . S
H1771 C1783 0.929 . S
H1772 C1786 0.930 . S
H1773 C1788 0.960 . S
H1774 C1788 0.960 . S
H1775 C1788 0.960 . S
C1776 H1768 0.929 . S
C1776 C1777 1.396 . S
C1776 C1778 1.384 . S
C1777 C1776 1.396 . S
C1777 C1783 1.371 1_554 S
C1778 H1769 0.930 . S
C1778 C1776 1.384 . S
C1778 C1779 1.372 . S
C1779 C1778 1.372 . S
C1779 C1780 1.400 1_554 S
C1779 C1784 1.490 . S
C1780 H1770 0.930 . S
C1780 C1779 1.400 1_556 S
C1780 C1783 1.386 . S
H1781 C1797 0.930 . S
H1782 C1798 0.931 . S
C1783 H1771 0.929 . S
C1783 C1777 1.371 1_556 S
C1783 C1780 1.386 . S
C1784 C1779 1.490 . S
C1784 C1786 1.395 . S
C1784 C1787 1.403 1_554 S
H1785 C1791 0.930 . S
C1786 H1772 0.930 . S
C1786 C1784 1.395 . S
C1786 C1789 1.403 . S
C1787 C1784 1.403 1_556 S
C1787 C1788 1.524 . S
C1787 C1791 1.400 . S
C1788 H1773 0.960 . S
C1788 H1774 0.960 . S
C1788 H1775 0.960 . S
C1788 C1787 1.524 . S
C1789 C1786 1.403 . S
C1789 C1790 1.392 . S
C1789 C1793 1.495 . S
C1790 C1789 1.392 . S
C1790 C1791 1.385 1_554 S
C1790 C1792 1.478 . S
C1791 H1785 0.930 . S
C1791 C1787 1.400 . S
C1791 C1790 1.385 1_556 S
C1792 C1790 1.478 . S
C1792 C1794 1.381 . S
C1792 C1798 1.383 1_554 S
C1793 C1789 1.495 . S
C1793 H1799 0.959 . S
C1793 H1800 0.961 . S
C1793 H1801 0.960 . S
C1794 C1792 1.381 . S
C1794 C1795 1.394 . S
C1794 H1802 0.930 . S
C1795 C1794 1.394 . S
C1795 C1796 1.403 . S
C1795 H1803 0.929 . S
C1796 C1795 1.403 . S
C1796 C1797 1.358 1_554 S
C1797 H1781 0.930 . S
C1797 C1796 1.358 1_556 S
C1797 C1798 1.379 . S
C1798 H1782 0.931 . S
C1798 C1792 1.383 1_556 S
C1798 C1797 1.379 . S
H1799 C1793 0.959 . S
H1800 C1793 0.961 . S
H1801 C1793 0.960 . S
H1802 C1794 0.930 . S
H1803 C1795 0.929 . S
H1804 C1812 0.929 . S
H1805 C1814 0.930 . S
H1806 C1816 0.930 . S
H1807 C1819 0.929 . S
H1808 C1822 0.930 . S
H1809 C1824 0.960 . S
H1810 C1824 0.960 . S
H1811 C1824 0.960 . S
C1812 H1804 0.929 . S
C1812 C1813 1.378 . S
C1812 C1814 1.384 . S
C1813 C1812 1.378 . S
C1813 C1819 1.390 1_554 S
C1814 H1805 0.930 . S
C1814 C1812 1.384 . S
C1814 C1815 1.372 . S
C1815 C1814 1.372 . S
C1815 C1816 1.400 1_554 S
C1815 C1820 1.490 . S
C1816 H1806 0.930 . S
C1816 C1815 1.400 1_556 S
C1816 C1819 1.386 . S
H1817 C1833 0.930 . S
H1818 C1834 0.931 . S
C1819 H1807 0.929 . S
C1819 C1813 1.390 1_556 S
C1819 C1816 1.386 . S
C1820 C1815 1.490 . S
C1820 C1822 1.395 . S
C1820 C1823 1.403 1_554 S
H1821 C1827 0.930 . S
C1822 H1808 0.930 . S
C1822 C1820 1.395 . S
C1822 C1825 1.403 . S
C1823 C1820 1.403 1_556 S
C1823 C1824 1.524 . S
C1823 C1827 1.400 . S
C1824 H1809 0.960 . S
C1824 H1810 0.960 . S
C1824 H1811 0.960 . S
C1824 C1823 1.524 . S
C1825 C1822 1.403 . S
C1825 C1826 1.392 . S
C1825 C1829 1.495 . S
C1826 C1825 1.392 . S
C1826 C1827 1.385 1_554 S
C1826 C1828 1.478 . S
C1827 H1821 0.930 . S
C1827 C1823 1.400 . S
C1827 C1826 1.385 1_556 S
C1828 C1826 1.478 . S
C1828 C1830 1.381 . S
C1828 C1834 1.383 1_554 S
C1829 C1825 1.495 . S
C1829 H1835 0.959 . S
C1829 H1836 0.961 . S
C1829 H1837 0.960 . S
C1830 C1828 1.381 . S
C1830 C1831 1.394 . S
C1830 H1838 0.930 . S
C1831 C1830 1.394 . S
C1831 C1832 1.383 . S
C1831 H1839 0.929 . S
C1832 C1831 1.383 . S
C1832 C1833 1.377 1_554 S
C1833 H1817 0.930 . S
C1833 C1832 1.377 1_556 S
C1833 C1834 1.379 . S
C1834 H1818 0.931 . S
C1834 C1828 1.383 1_556 S
C1834 C1833 1.379 . S
H1835 C1829 0.959 . S
H1836 C1829 0.961 . S
H1837 C1829 0.960 . S
H1838 C1830 0.930 . S
H1839 C1831 0.929 . S
H1840 C1848 0.929 . S
H1841 C1850 0.930 . S
H1842 C1852 0.930 . S
H1843 C1855 0.929 . S
H1844 C1858 0.930 . S
H1845 C1860 0.960 . S
H1846 C1860 0.960 . S
H1847 C1860 0.960 . S
C1848 H1840 0.929 . S
C1848 C1849 1.377 . S
C1848 C1850 1.384 . S
C1849 C1848 1.377 . S
C1849 C1855 1.390 . S
C1850 H1841 0.930 . S
C1850 C1848 1.384 . S
C1850 C1851 1.372 . S
C1851 C1850 1.372 . S
C1851 C1852 1.400 . S
C1851 C1856 1.490 . S
C1852 H1842 0.930 . S
C1852 C1851 1.400 . S
C1852 C1855 1.386 . S
H1853 C1869 0.930 . S
H1854 C1870 0.931 . S
C1855 H1843 0.929 . S
C1855 C1849 1.390 . S
C1855 C1852 1.386 . S
C1856 C1851 1.490 . S
C1856 C1858 1.395 . S
C1856 C1859 1.403 . S
H1857 C1863 0.930 . S
C1858 H1844 0.930 . S
C1858 C1856 1.395 . S
C1858 C1861 1.403 . S
C1859 C1856 1.403 . S
C1859 C1860 1.524 . S
C1859 C1863 1.400 . S
C1860 H1845 0.960 . S
C1860 H1846 0.960 . S
C1860 H1847 0.960 . S
C1860 C1859 1.524 . S
C1861 C1858 1.403 . S
C1861 C1862 1.392 . S
C1861 C1865 1.495 . S
C1862 C1861 1.392 . S
C1862 C1863 1.385 . S
C1862 C1864 1.478 . S
C1863 H1857 0.930 . S
C1863 C1859 1.400 . S
C1863 C1862 1.385 . S
C1864 C1862 1.478 . S
C1864 C1866 1.381 . S
C1864 C1870 1.383 . S
C1865 C1861 1.495 . S
C1865 H1871 0.959 . S
C1865 H1872 0.961 . S
C1865 H1873 0.960 . S
C1866 C1864 1.381 . S
C1866 C1867 1.394 . S
C1866 H1874 0.930 . S
C1867 C1866 1.394 . S
C1867 C1868 1.383 . S
C1867 H1875 0.929 . S
C1868 C1867 1.383 . S
C1868 C1869 1.377 . S
C1869 H1853 0.930 . S
C1869 C1868 1.377 . S
C1869 C1870 1.379 . S
C1870 H1854 0.931 . S
C1870 C1864 1.383 . S
C1870 C1869 1.379 . S
H1871 C1865 0.959 . S
H1872 C1865 0.961 . S
H1873 C1865 0.960 . S
H1874 C1866 0.930 . S
H1875 C1867 0.929 . S
H1876 C1884 0.929 . S
H1877 C1886 0.930 . S
H1878 C1888 0.930 . S
H1879 C1891 0.929 . S
H1880 C1894 0.930 . S
H1881 C1896 0.960 . S
H1882 C1896 0.960 . S
H1883 C1896 0.960 . S
C1884 H1876 0.929 . S
C1884 C1885 1.377 . S
C1884 C1886 1.384 . S
C1885 C1884 1.377 . S
C1885 C1891 1.390 . S
C1886 H1877 0.930 . S
C1886 C1884 1.384 . S
C1886 C1887 1.372 . S
C1887 C1886 1.372 . S
C1887 C1888 1.400 . S
C1887 C1892 1.490 . S
C1888 H1878 0.930 . S
C1888 C1887 1.400 . S
C1888 C1891 1.386 . S
H1889 C1905 0.930 . S
H1890 C1906 0.931 . S
C1891 H1879 0.929 . S
C1891 C1885 1.390 . S
C1891 C1888 1.386 . S
C1892 C1887 1.490 . S
C1892 C1894 1.395 . S
C1892 C1895 1.403 . S
H1893 C1899 0.930 . S
C1894 H1880 0.930 . S
C1894 C1892 1.395 . S
C1894 C1897 1.403 . S
C1895 C1892 1.403 . S
C1895 C1896 1.524 . S
C1895 C1899 1.400 . S
C1896 H1881 0.960 . S
C1896 H1882 0.960 . S
C1896 H1883 0.960 . S
C1896 C1895 1.524 . S
C1897 C1894 1.403 . S
C1897 C1898 1.392 . S
C1897 C1901 1.495 . S
C1898 C1897 1.392 . S
C1898 C1899 1.385 . S
C1898 C1900 1.478 . S
C1899 H1893 0.930 . S
C1899 C1895 1.400 . S
C1899 C1898 1.385 . S
C1900 C1898 1.478 . S
C1900 C1902 1.381 . S
C1900 C1906 1.383 . S
C1901 C1897 1.495 . S
C1901 H1907 0.959 . S
C1901 H1908 0.961 . S
C1901 H1909 0.960 . S
C1902 C1900 1.381 . S
C1902 C1903 1.394 . S
C1902 H1910 0.930 . S
C1903 C1902 1.394 . S
C1903 C1904 1.383 . S
C1903 H1911 0.929 . S
C1904 C1903 1.383 . S
C1904 C1905 1.377 . S
C1905 H1889 0.930 . S
C1905 C1904 1.377 . S
C1905 C1906 1.379 . S
C1906 H1890 0.931 . S
C1906 C1900 1.383 . S
C1906 C1905 1.379 . S
H1907 C1901 0.959 . S
H1908 C1901 0.961 . S
H1909 C1901 0.960 . S
H1910 C1902 0.930 . S
H1911 C1903 0.929 . S
H1912 C1920 0.929 . S
H1913 C1922 0.930 . S
H1914 C1924 0.930 . S
H1915 C1927 0.929 . S
H1916 C1930 0.930 . S
H1917 C1932 0.960 . S
H1918 C1932 0.960 . S
H1919 C1932 0.960 . S
C1920 H1912 0.929 . S
C1920 C1921 1.377 . S
C1920 C1922 1.384 . S
C1921 C1920 1.377 . S
C1921 C1927 1.390 . S
C1922 H1913 0.930 . S
C1922 C1920 1.384 . S
C1922 C1923 1.372 . S
C1923 C1922 1.372 . S
C1923 C1924 1.400 . S
C1923 C1928 1.490 . S
C1924 H1914 0.930 . S
C1924 C1923 1.400 . S
C1924 C1927 1.386 . S
H1925 C1941 0.930 . S
H1926 C1942 0.931 . S
C1927 H1915 0.929 . S
C1927 C1921 1.390 . S
C1927 C1924 1.386 . S
C1928 C1923 1.490 . S
C1928 C1930 1.395 . S
C1928 C1931 1.403 . S
H1929 C1935 0.930 . S
C1930 H1916 0.930 . S
C1930 C1928 1.395 . S
C1930 C1933 1.403 . S
C1931 C1928 1.403 . S
C1931 C1932 1.524 . S
C1931 C1935 1.400 . S
C1932 H1917 0.960 . S
C1932 H1918 0.960 . S
C1932 H1919 0.960 . S
C1932 C1931 1.524 . S
C1933 C1930 1.403 . S
C1933 C1934 1.392 . S
C1933 C1937 1.495 . S
C1934 C1933 1.392 . S
C1934 C1935 1.385 . S
C1934 C1936 1.478 . S
C1935 H1929 0.930 . S
C1935 C1931 1.400 . S
C1935 C1934 1.385 . S
C1936 C1934 1.478 . S
C1936 C1938 1.381 . S
C1936 C1942 1.383 . S
C1937 C1933 1.495 . S
C1937 H1943 0.959 . S
C1937 H1944 0.961 . S
C1937 H1945 0.960 . S
C1938 C1936 1.381 . S
C1938 C1939 1.394 . S
C1938 H1946 0.930 . S
C1939 C1938 1.394 . S
C1939 C1940 1.383 . S
C1939 H1947 0.929 . S
C1940 C1939 1.383 . S
C1940 C1941 1.377 . S
C1941 H1925 0.930 . S
C1941 C1940 1.377 . S
C1941 C1942 1.379 . S
C1942 H1926 0.931 . S
C1942 C1936 1.383 . S
C1942 C1941 1.379 . S
H1943 C1937 0.959 . S
H1944 C1937 0.961 . S
H1945 C1937 0.960 . S
H1946 C1938 0.930 . S
H1947 C1939 0.929 . S
H1948 C1956 0.929 . S
H1949 C1958 0.930 . S
H1950 C1960 0.930 . S
H1951 C1963 0.929 . S
H1952 C1966 0.930 . S
H1953 C1968 0.960 . S
H1954 C1968 0.960 . S
H1955 C1968 0.960 . S
C1956 H1948 0.929 . S
C1956 C1957 1.377 . S
C1956 C1958 1.384 . S
C1957 C1956 1.377 . S
C1957 C1963 1.390 . S
C1958 H1949 0.930 . S
C1958 C1956 1.384 . S
C1958 C1959 1.372 . S
C1959 C1958 1.372 . S
C1959 C1960 1.400 . S
C1959 C1964 1.490 . S
C1960 H1950 0.930 . S
C1960 C1959 1.400 . S
C1960 C1963 1.386 . S
H1961 C1977 0.930 . S
H1962 C1978 0.931 . S
C1963 H1951 0.929 . S
C1963 C1957 1.390 . S
C1963 C1960 1.386 . S
C1964 C1959 1.490 . S
C1964 C1966 1.395 . S
C1964 C1967 1.403 . S
H1965 C1971 0.930 . S
C1966 H1952 0.930 . S
C1966 C1964 1.395 . S
C1966 C1969 1.403 . S
C1967 C1964 1.403 . S
C1967 C1968 1.524 . S
C1967 C1971 1.400 . S
C1968 H1953 0.960 . S
C1968 H1954 0.960 . S
C1968 H1955 0.960 . S
C1968 C1967 1.524 . S
C1969 C1966 1.403 . S
C1969 C1970 1.392 . S
C1969 C1973 1.495 . S
C1970 C1969 1.392 . S
C1970 C1971 1.385 . S
C1970 C1972 1.478 . S
C1971 H1965 0.930 . S
C1971 C1967 1.400 . S
C1971 C1970 1.385 . S
C1972 C1970 1.478 . S
C1972 C1974 1.381 . S
C1972 C1978 1.383 . S
C1973 C1969 1.495 . S
C1973 H1979 0.959 . S
C1973 H1980 0.961 . S
C1973 H1981 0.960 . S
C1974 C1972 1.381 . S
C1974 C1975 1.394 . S
C1974 H1982 0.930 . S
C1975 C1974 1.394 . S
C1975 C1976 1.383 . S
C1975 H1983 0.929 . S
C1976 C1975 1.383 . S
C1976 C1977 1.377 . S
C1977 H1961 0.930 . S
C1977 C1976 1.377 . S
C1977 C1978 1.379 . S
C1978 H1962 0.931 . S
C1978 C1972 1.383 . S
C1978 C1977 1.379 . S
H1979 C1973 0.959 . S
H1980 C1973 0.961 . S
H1981 C1973 0.960 . S
H1982 C1974 0.930 . S
H1983 C1975 0.929 . S
H1984 C1992 0.929 . S
H1985 C1994 0.930 . S
H1986 C1996 0.930 . S
H1987 C1999 0.929 . S
H1988 C2002 0.930 . S
H1989 C2004 0.960 . S
H1990 C2004 0.960 . S
H1991 C2004 0.960 . S
C1992 H1984 0.929 . S
C1992 C1993 1.377 . S
C1992 C1994 1.384 . S
C1993 C1992 1.377 . S
C1993 C1999 1.390 . S
C1994 H1985 0.930 . S
C1994 C1992 1.384 . S
C1994 C1995 1.372 . S
C1995 C1994 1.372 . S
C1995 C1996 1.400 . S
C1995 C2000 1.490 . S
C1996 H1986 0.930 . S
C1996 C1995 1.400 . S
C1996 C1999 1.386 . S
H1997 C2013 0.930 . S
H1998 C2014 0.931 . S
C1999 H1987 0.929 . S
C1999 C1993 1.390 . S
C1999 C1996 1.386 . S
C2000 C1995 1.490 . S
C2000 C2002 1.395 . S
C2000 C2003 1.403 . S
H2001 C2007 0.930 . S
C2002 H1988 0.930 . S
C2002 C2000 1.395 . S
C2002 C2005 1.403 . S
C2003 C2000 1.403 . S
C2003 C2004 1.524 . S
C2003 C2007 1.400 . S
C2004 H1989 0.960 . S
C2004 H1990 0.960 . S
C2004 H1991 0.960 . S
C2004 C2003 1.524 . S
C2005 C2002 1.403 . S
C2005 C2006 1.392 . S
C2005 C2009 1.495 . S
C2006 C2005 1.392 . S
C2006 C2007 1.385 . S
C2006 C2008 1.478 . S
C2007 H2001 0.930 . S
C2007 C2003 1.400 . S
C2007 C2006 1.385 . S
C2008 C2006 1.478 . S
C2008 C2010 1.381 . S
C2008 C2014 1.383 . S
C2009 C2005 1.495 . S
C2009 H2015 0.959 . S
C2009 H2016 0.961 . S
C2009 H2017 0.960 . S
C2010 C2008 1.381 . S
C2010 C2011 1.394 . S
C2010 H2018 0.930 . S
C2011 C2010 1.394 . S
C2011 C2012 1.383 . S
C2011 H2019 0.929 . S
C2012 C2011 1.383 . S
C2012 C2013 1.377 . S
C2013 H1997 0.930 . S
C2013 C2012 1.377 . S
C2013 C2014 1.379 . S
C2014 H1998 0.931 . S
C2014 C2008 1.383 . S
C2014 C2013 1.379 . S
H2015 C2009 0.959 . S
H2016 C2009 0.961 . S
H2017 C2009 0.960 . S
H2018 C2010 0.930 . S
H2019 C2011 0.929 . S
H2020 C2028 0.929 . S
H2021 C2030 0.930 . S
H2022 C2032 0.930 . S
H2023 C2035 0.929 . S
H2024 C2038 0.930 . S
H2025 C2040 0.960 . S
H2026 C2040 0.960 . S
H2027 C2040 0.960 . S
C2028 H2020 0.929 . S
C2028 C2029 1.377 . S
C2028 C2030 1.384 . S
C2029 C2028 1.377 . S
C2029 C2035 1.390 . S
C2030 H2021 0.930 . S
C2030 C2028 1.384 . S
C2030 C2031 1.372 . S
C2031 C2030 1.372 . S
C2031 C2032 1.400 . S
C2031 C2036 1.490 . S
C2032 H2022 0.930 . S
C2032 C2031 1.400 . S
C2032 C2035 1.386 . S
H2033 C2049 0.930 . S
H2034 C2050 0.931 . S
C2035 H2023 0.929 . S
C2035 C2029 1.390 . S
C2035 C2032 1.386 . S
C2036 C2031 1.490 . S
C2036 C2038 1.395 . S
C2036 C2039 1.403 . S
H2037 C2043 0.930 . S
C2038 H2024 0.930 . S
C2038 C2036 1.395 . S
C2038 C2041 1.403 . S
C2039 C2036 1.403 . S
C2039 C2040 1.524 . S
C2039 C2043 1.400 . S
C2040 H2025 0.960 . S
C2040 H2026 0.960 . S
C2040 H2027 0.960 . S
C2040 C2039 1.524 . S
C2041 C2038 1.403 . S
C2041 C2042 1.392 . S
C2041 C2045 1.495 . S
C2042 C2041 1.392 . S
C2042 C2043 1.385 . S
C2042 C2044 1.478 . S
C2043 H2037 0.930 . S
C2043 C2039 1.400 . S
C2043 C2042 1.385 . S
C2044 C2042 1.478 . S
C2044 C2046 1.381 . S
C2044 C2050 1.383 . S
C2045 C2041 1.495 . S
C2045 H2051 0.959 . S
C2045 H2052 0.961 . S
C2045 H2053 0.960 . S
C2046 C2044 1.381 . S
C2046 C2047 1.394 . S
C2046 H2054 0.930 . S
C2047 C2046 1.394 . S
C2047 C2048 1.383 . S
C2047 H2055 0.929 . S
C2048 C2047 1.383 . S
C2048 C2049 1.377 . S
C2049 H2033 0.930 . S
C2049 C2048 1.377 . S
C2049 C2050 1.379 . S
C2050 H2034 0.931 . S
C2050 C2044 1.383 . S
C2050 C2049 1.379 . S
H2051 C2045 0.959 . S
H2052 C2045 0.961 . S
H2053 C2045 0.960 . S
H2054 C2046 0.930 . S
H2055 C2047 0.929 . S
H2056 C2064 0.929 . S
H2057 C2066 0.930 . S
H2058 C2068 0.930 . S
H2059 C2071 0.929 . S
H2060 C2074 0.930 . S
H2061 C2076 0.960 . S
H2062 C2076 0.960 . S
H2063 C2076 0.960 . S
C2064 H2056 0.929 . S
C2064 C2065 1.377 . S
C2064 C2066 1.384 . S
C2065 C2064 1.377 . S
C2065 C2071 1.390 . S
C2066 H2057 0.930 . S
C2066 C2064 1.384 . S
C2066 C2067 1.372 . S
C2067 C2066 1.372 . S
C2067 C2068 1.400 . S
C2067 C2072 1.490 . S
C2068 H2058 0.930 . S
C2068 C2067 1.400 . S
C2068 C2071 1.386 . S
H2069 C2085 0.930 . S
H2070 C2086 0.931 . S
C2071 H2059 0.929 . S
C2071 C2065 1.390 . S
C2071 C2068 1.386 . S
C2072 C2067 1.490 . S
C2072 C2074 1.395 . S
C2072 C2075 1.403 . S
H2073 C2079 0.930 . S
C2074 H2060 0.930 . S
C2074 C2072 1.395 . S
C2074 C2077 1.403 . S
C2075 C2072 1.403 . S
C2075 C2076 1.524 . S
C2075 C2079 1.400 . S
C2076 H2061 0.960 . S
C2076 H2062 0.960 . S
C2076 H2063 0.960 . S
C2076 C2075 1.524 . S
C2077 C2074 1.403 . S
C2077 C2078 1.392 . S
C2077 C2081 1.495 . S
C2078 C2077 1.392 . S
C2078 C2079 1.385 . S
C2078 C2080 1.478 . S
C2079 H2073 0.930 . S
C2079 C2075 1.400 . S
C2079 C2078 1.385 . S
C2080 C2078 1.478 . S
C2080 C2082 1.381 . S
C2080 C2086 1.383 . S
C2081 C2077 1.495 . S
C2081 H2087 0.959 . S
C2081 H2088 0.961 . S
C2081 H2089 0.960 . S
C2082 C2080 1.381 . S
C2082 C2083 1.394 . S
C2082 H2090 0.930 . S
C2083 C2082 1.394 . S
C2083 C2084 1.383 . S
C2083 H2091 0.929 . S
C2084 C2083 1.383 . S
C2084 C2085 1.377 . S
C2085 H2069 0.930 . S
C2085 C2084 1.377 . S
C2085 C2086 1.379 . S
C2086 H2070 0.931 . S
C2086 C2080 1.383 . S
C2086 C2085 1.379 . S
H2087 C2081 0.959 . S
H2088 C2081 0.961 . S
H2089 C2081 0.960 . S
H2090 C2082 0.930 . S
H2091 C2083 0.929 . S
H2092 C2100 0.929 . S
H2093 C2102 0.930 . S
H2094 C2104 0.930 . S
H2095 C2107 0.929 . S
H2096 C2110 0.930 . S
H2097 C2112 0.960 . S
H2098 C2112 0.960 . S
H2099 C2112 0.960 . S
C2100 H2092 0.929 . S
C2100 C2101 1.377 . S
C2100 C2102 1.384 . S
C2101 C2100 1.377 . S
C2101 C2107 1.390 . S
C2102 H2093 0.930 . S
C2102 C2100 1.384 . S
C2102 C2103 1.372 . S
C2103 C2102 1.372 . S
C2103 C2104 1.400 . S
C2103 C2108 1.490 . S
C2104 H2094 0.930 . S
C2104 C2103 1.400 . S
C2104 C2107 1.386 . S
H2105 C2121 0.930 . S
H2106 C2122 0.931 . S
C2107 H2095 0.929 . S
C2107 C2101 1.390 . S
C2107 C2104 1.386 . S
C2108 C2103 1.490 . S
C2108 C2110 1.395 . S
C2108 C2111 1.403 . S
H2109 C2115 0.930 . S
C2110 H2096 0.930 . S
C2110 C2108 1.395 . S
C2110 C2113 1.403 . S
C2111 C2108 1.403 . S
C2111 C2112 1.524 . S
C2111 C2115 1.400 . S
C2112 H2097 0.960 . S
C2112 H2098 0.960 . S
C2112 H2099 0.960 . S
C2112 C2111 1.524 . S
C2113 C2110 1.403 . S
C2113 C2114 1.392 . S
C2113 C2117 1.495 . S
C2114 C2113 1.392 . S
C2114 C2115 1.385 . S
C2114 C2116 1.478 . S
C2115 H2109 0.930 . S
C2115 C2111 1.400 . S
C2115 C2114 1.385 . S
C2116 C2114 1.478 . S
C2116 C2118 1.381 . S
C2116 C2122 1.383 . S
C2117 C2113 1.495 . S
C2117 H2123 0.959 . S
C2117 H2124 0.961 . S
C2117 H2125 0.960 . S
C2118 C2116 1.381 . S
C2118 C2119 1.394 . S
C2118 H2126 0.930 . S
C2119 C2118 1.394 . S
C2119 C2120 1.383 . S
C2119 H2127 0.929 . S
C2120 C2119 1.383 . S
C2120 C2121 1.377 . S
C2121 H2105 0.930 . S
C2121 C2120 1.377 . S
C2121 C2122 1.379 . S
C2122 H2106 0.931 . S
C2122 C2116 1.383 . S
C2122 C2121 1.379 . S
H2123 C2117 0.959 . S
H2124 C2117 0.961 . S
H2125 C2117 0.960 . S
H2126 C2118 0.930 . S
H2127 C2119 0.929 . S
H2128 C2136 0.929 . S
H2129 C2138 0.930 . S
H2130 C2140 0.930 . S
H2131 C2143 0.929 . S
H2132 C2146 0.930 . S
H2133 C2148 0.960 . S
H2134 C2148 0.960 . S
H2135 C2148 0.960 . S
C2136 H2128 0.929 . S
C2136 C2137 1.377 . S
C2136 C2138 1.384 . S
C2137 C2136 1.377 . S
C2137 C2143 1.390 . S
C2138 H2129 0.930 . S
C2138 C2136 1.384 . S
C2138 C2139 1.372 . S
C2139 C2138 1.372 . S
C2139 C2140 1.400 . S
C2139 C2144 1.490 . S
C2140 H2130 0.930 . S
C2140 C2139 1.400 . S
C2140 C2143 1.386 . S
H2141 C2157 0.930 . S
H2142 C2158 0.931 . S
C2143 H2131 0.929 . S
C2143 C2137 1.390 . S
C2143 C2140 1.386 . S
C2144 C2139 1.490 . S
C2144 C2146 1.395 . S
C2144 C2147 1.403 . S
H2145 C2151 0.930 . S
C2146 H2132 0.930 . S
C2146 C2144 1.395 . S
C2146 C2149 1.403 . S
C2147 C2144 1.403 . S
C2147 C2148 1.524 . S
C2147 C2151 1.400 . S
C2148 H2133 0.960 . S
C2148 H2134 0.960 . S
C2148 H2135 0.960 . S
C2148 C2147 1.524 . S
C2149 C2146 1.403 . S
C2149 C2150 1.392 . S
C2149 C2153 1.495 . S
C2150 C2149 1.392 . S
C2150 C2151 1.385 . S
C2150 C2152 1.478 . S
C2151 H2145 0.930 . S
C2151 C2147 1.400 . S
C2151 C2150 1.385 . S
C2152 C2150 1.478 . S
C2152 C2154 1.381 . S
C2152 C2158 1.383 . S
C2153 C2149 1.495 . S
C2153 H2159 0.959 . S
C2153 H2160 0.961 . S
C2153 H2161 0.960 . S
C2154 C2152 1.381 . S
C2154 C2155 1.394 . S
C2154 H2162 0.930 . S
C2155 C2154 1.394 . S
C2155 C2156 1.383 . S
C2155 H2163 0.929 . S
C2156 C2155 1.383 . S
C2156 C2157 1.377 . S
C2157 H2141 0.930 . S
C2157 C2156 1.377 . S
C2157 C2158 1.379 . S
C2158 H2142 0.931 . S
C2158 C2152 1.383 . S
C2158 C2157 1.379 . S
H2159 C2153 0.959 . S
H2160 C2153 0.961 . S
H2161 C2153 0.960 . S
H2162 C2154 0.930 . S
H2163 C2155 0.929 . S
H2164 C2172 0.929 . S
H2165 C2174 0.930 . S
H2166 C2176 0.930 . S
H2167 C2179 0.929 . S
H2168 C2182 0.930 . S
H2169 C2184 0.960 . S
H2170 C2184 0.960 . S
H2171 C2184 0.960 . S
C2172 H2164 0.929 . S
C2172 C2173 1.377 . S
C2172 C2174 1.384 . S
C2173 C2172 1.377 . S
C2173 C2179 1.390 . S
C2174 H2165 0.930 . S
C2174 C2172 1.384 . S
C2174 C2175 1.372 . S
C2175 C2174 1.372 . S
C2175 C2176 1.400 . S
C2175 C2180 1.490 . S
C2176 H2166 0.930 . S
C2176 C2175 1.400 . S
C2176 C2179 1.386 . S
H2177 C2193 0.930 . S
H2178 C2194 0.931 . S
C2179 H2167 0.929 . S
C2179 C2173 1.390 . S
C2179 C2176 1.386 . S
C2180 C2175 1.490 . S
C2180 C2182 1.395 . S
C2180 C2183 1.403 . S
H2181 C2187 0.930 . S
C2182 H2168 0.930 . S
C2182 C2180 1.395 . S
C2182 C2185 1.403 . S
C2183 C2180 1.403 . S
C2183 C2184 1.524 . S
C2183 C2187 1.400 . S
C2184 H2169 0.960 . S
C2184 H2170 0.960 . S
C2184 H2171 0.960 . S
C2184 C2183 1.524 . S
C2185 C2182 1.403 . S
C2185 C2186 1.392 . S
C2185 C2189 1.495 . S
C2186 C2185 1.392 . S
C2186 C2187 1.385 . S
C2186 C2188 1.478 . S
C2187 H2181 0.930 . S
C2187 C2183 1.400 . S
C2187 C2186 1.385 . S
C2188 C2186 1.478 . S
C2188 C2190 1.381 . S
C2188 C2194 1.383 . S
C2189 C2185 1.495 . S
C2189 H2195 0.959 . S
C2189 H2196 0.961 . S
C2189 H2197 0.960 . S
C2190 C2188 1.381 . S
C2190 C2191 1.394 . S
C2190 H2198 0.930 . S
C2191 C2190 1.394 . S
C2191 C2192 1.383 . S
C2191 H2199 0.929 . S
C2192 C2191 1.383 . S
C2192 C2193 1.377 . S
C2193 H2177 0.930 . S
C2193 C2192 1.377 . S
C2193 C2194 1.379 . S
C2194 H2178 0.931 . S
C2194 C2188 1.383 . S
C2194 C2193 1.379 . S
H2195 C2189 0.959 . S
H2196 C2189 0.961 . S
H2197 C2189 0.960 . S
H2198 C2190 0.930 . S
H2199 C2191 0.929 . S
H2200 C2208 0.929 . S
H2201 C2210 0.930 . S
H2202 C2212 0.930 . S
H2203 C2215 0.929 . S
H2204 C2218 0.930 . S
H2205 C2220 0.960 . S
H2206 C2220 0.960 . S
H2207 C2220 0.960 . S
C2208 H2200 0.929 . S
C2208 C2209 1.377 . S
C2208 C2210 1.384 . S
C2209 C2208 1.377 . S
C2209 C2215 1.390 . S
C2210 H2201 0.930 . S
C2210 C2208 1.384 . S
C2210 C2211 1.372 . S
C2211 C2210 1.372 . S
C2211 C2212 1.400 . S
C2211 C2216 1.490 . S
C2212 H2202 0.930 . S
C2212 C2211 1.400 . S
C2212 C2215 1.386 . S
H2213 C2229 0.930 . S
H2214 C2230 0.931 . S
C2215 H2203 0.929 . S
C2215 C2209 1.390 . S
C2215 C2212 1.386 . S
C2216 C2211 1.490 . S
C2216 C2218 1.395 . S
C2216 C2219 1.403 . S
H2217 C2223 0.930 . S
C2218 H2204 0.930 . S
C2218 C2216 1.395 . S
C2218 C2221 1.403 . S
C2219 C2216 1.403 . S
C2219 C2220 1.524 . S
C2219 C2223 1.400 . S
C2220 H2205 0.960 . S
C2220 H2206 0.960 . S
C2220 H2207 0.960 . S
C2220 C2219 1.524 . S
C2221 C2218 1.403 . S
C2221 C2222 1.392 . S
C2221 C2225 1.495 . S
C2222 C2221 1.392 . S
C2222 C2223 1.385 . S
C2222 C2224 1.478 . S
C2223 H2217 0.930 . S
C2223 C2219 1.400 . S
C2223 C2222 1.385 . S
C2224 C2222 1.478 . S
C2224 C2226 1.381 . S
C2224 C2230 1.383 . S
C2225 C2221 1.495 . S
C2225 H2231 0.959 . S
C2225 H2232 0.961 . S
C2225 H2233 0.960 . S
C2226 C2224 1.381 . S
C2226 C2227 1.394 . S
C2226 H2234 0.930 . S
C2227 C2226 1.394 . S
C2227 C2228 1.383 . S
C2227 H2235 0.929 . S
C2228 C2227 1.383 . S
C2228 C2229 1.377 . S
C2229 H2213 0.930 . S
C2229 C2228 1.377 . S
C2229 C2230 1.379 . S
C2230 H2214 0.931 . S
C2230 C2224 1.383 . S
C2230 C2229 1.379 . S
H2231 C2225 0.959 . S
H2232 C2225 0.961 . S
H2233 C2225 0.960 . S
H2234 C2226 0.930 . S
H2235 C2227 0.929 . S
H2236 C2244 0.929 . S
H2237 C2246 0.930 . S
H2238 C2248 0.930 . S
H2239 C2251 0.929 . S
H2240 C2254 0.930 . S
H2241 C2256 0.960 . S
H2242 C2256 0.960 . S
H2243 C2256 0.960 . S
C2244 H2236 0.929 . S
C2244 C2245 1.377 . S
C2244 C2246 1.384 . S
C2245 C2244 1.377 . S
C2245 C2251 1.390 . S
C2246 H2237 0.930 . S
C2246 C2244 1.384 . S
C2246 C2247 1.372 . S
C2247 C2246 1.372 . S
C2247 C2248 1.400 . S
C2247 C2252 1.490 . S
C2248 H2238 0.930 . S
C2248 C2247 1.400 . S
C2248 C2251 1.386 . S
H2249 C2265 0.930 . S
H2250 C2266 0.931 . S
C2251 H2239 0.929 . S
C2251 C2245 1.390 . S
C2251 C2248 1.386 . S
C2252 C2247 1.490 . S
C2252 C2254 1.395 . S
C2252 C2255 1.403 . S
H2253 C2259 0.930 . S
C2254 H2240 0.930 . S
C2254 C2252 1.395 . S
C2254 C2257 1.403 . S
C2255 C2252 1.403 . S
C2255 C2256 1.524 . S
C2255 C2259 1.400 . S
C2256 H2241 0.960 . S
C2256 H2242 0.960 . S
C2256 H2243 0.960 . S
C2256 C2255 1.524 . S
C2257 C2254 1.403 . S
C2257 C2258 1.392 . S
C2257 C2261 1.495 . S
C2258 C2257 1.392 . S
C2258 C2259 1.385 . S
C2258 C2260 1.478 . S
C2259 H2253 0.930 . S
C2259 C2255 1.400 . S
C2259 C2258 1.385 . S
C2260 C2258 1.478 . S
C2260 C2262 1.381 . S
C2260 C2266 1.383 . S
C2261 C2257 1.495 . S
C2261 H2267 0.959 . S
C2261 H2268 0.961 . S
C2261 H2269 0.960 . S
C2262 C2260 1.381 . S
C2262 C2263 1.394 . S
C2262 H2270 0.930 . S
C2263 C2262 1.394 . S
C2263 C2264 1.383 . S
C2263 H2271 0.929 . S
C2264 C2263 1.383 . S
C2264 C2265 1.377 . S
C2265 H2249 0.930 . S
C2265 C2264 1.377 . S
C2265 C2266 1.379 . S
C2266 H2250 0.931 . S
C2266 C2260 1.383 . S
C2266 C2265 1.379 . S
H2267 C2261 0.959 . S
H2268 C2261 0.961 . S
H2269 C2261 0.960 . S
H2270 C2262 0.930 . S
H2271 C2263 0.929 . S
H2272 C2280 0.929 . S
H2273 C2282 0.930 . S
H2274 C2284 0.930 . S
H2275 C2287 0.929 . S
H2276 C2290 0.930 . S
H2277 C2292 0.960 . S
H2278 C2292 0.960 . S
H2279 C2292 0.960 . S
C2280 H2272 0.929 . S
C2280 C2281 1.377 . S
C2280 C2282 1.384 . S
C2281 C2280 1.377 . S
C2281 C2287 1.390 . S
C2282 H2273 0.930 . S
C2282 C2280 1.384 . S
C2282 C2283 1.372 . S
C2283 C2282 1.372 . S
C2283 C2284 1.400 . S
C2283 C2288 1.490 . S
C2284 H2274 0.930 . S
C2284 C2283 1.400 . S
C2284 C2287 1.386 . S
H2285 C2301 0.930 . S
H2286 C2302 0.931 . S
C2287 H2275 0.929 . S
C2287 C2281 1.390 . S
C2287 C2284 1.386 . S
C2288 C2283 1.490 . S
C2288 C2290 1.395 . S
C2288 C2291 1.403 . S
H2289 C2295 0.930 . S
C2290 H2276 0.930 . S
C2290 C2288 1.395 . S
C2290 C2293 1.403 . S
C2291 C2288 1.403 . S
C2291 C2292 1.524 . S
C2291 C2295 1.400 . S
C2292 H2277 0.960 . S
C2292 H2278 0.960 . S
C2292 H2279 0.960 . S
C2292 C2291 1.524 . S
C2293 C2290 1.403 . S
C2293 C2294 1.392 . S
C2293 C2297 1.495 . S
C2294 C2293 1.392 . S
C2294 C2295 1.385 . S
C2294 C2296 1.478 . S
C2295 H2289 0.930 . S
C2295 C2291 1.400 . S
C2295 C2294 1.385 . S
C2296 C2294 1.478 . S
C2296 C2298 1.381 . S
C2296 C2302 1.383 . S
C2297 C2293 1.495 . S
C2297 H2303 0.959 . S
C2297 H2304 0.961 . S
C2297 H2305 0.960 . S
C2298 C2296 1.381 . S
C2298 C2299 1.394 . S
C2298 H2306 0.930 . S
C2299 C2298 1.394 . S
C2299 C2300 1.383 . S
C2299 H2307 0.929 . S
C2300 C2299 1.383 . S
C2300 C2301 1.377 . S
C2301 H2285 0.930 . S
C2301 C2300 1.377 . S
C2301 C2302 1.379 . S
C2302 H2286 0.931 . S
C2302 C2296 1.383 . S
C2302 C2301 1.379 . S
H2303 C2297 0.959 . S
H2304 C2297 0.961 . S
H2305 C2297 0.960 . S
H2306 C2298 0.930 . S
H2307 C2299 0.929 . S
H2308 C2316 0.929 . S
H2309 C2318 0.930 . S
H2310 C2320 0.930 . S
H2311 C2323 0.929 . S
H2312 C2326 0.930 . S
H2313 C2328 0.960 . S
H2314 C2328 0.960 . S
H2315 C2328 0.960 . S
C2316 H2308 0.929 . S
C2316 C2317 1.377 . S
C2316 C2318 1.384 . S
C2317 C2316 1.377 . S
C2317 C2323 1.390 . S
C2318 H2309 0.930 . S
C2318 C2316 1.384 . S
C2318 C2319 1.372 . S
C2319 C2318 1.372 . S
C2319 C2320 1.400 . S
C2319 C2324 1.490 . S
C2320 H2310 0.930 . S
C2320 C2319 1.400 . S
C2320 C2323 1.386 . S
H2321 C2337 0.930 . S
H2322 C2338 0.931 . S
C2323 H2311 0.929 . S
C2323 C2317 1.390 . S
C2323 C2320 1.386 . S
C2324 C2319 1.490 . S
C2324 C2326 1.395 . S
C2324 C2327 1.403 . S
H2325 C2331 0.930 . S
C2326 H2312 0.930 . S
C2326 C2324 1.395 . S
C2326 C2329 1.403 . S
C2327 C2324 1.403 . S
C2327 C2328 1.524 . S
C2327 C2331 1.400 . S
C2328 H2313 0.960 . S
C2328 H2314 0.960 . S
C2328 H2315 0.960 . S
C2328 C2327 1.524 . S
C2329 C2326 1.403 . S
C2329 C2330 1.392 . S
C2329 C2333 1.495 . S
C2330 C2329 1.392 . S
C2330 C2331 1.385 . S
C2330 C2332 1.478 . S
C2331 H2325 0.930 . S
C2331 C2327 1.400 . S
C2331 C2330 1.385 . S
C2332 C2330 1.478 . S
C2332 C2334 1.381 . S
C2332 C2338 1.383 . S
C2333 C2329 1.495 . S
C2333 H2339 0.959 . S
C2333 H2340 0.961 . S
C2333 H2341 0.960 . S
C2334 C2332 1.381 . S
C2334 C2335 1.394 . S
C2334 H2342 0.930 . S
C2335 C2334 1.394 . S
C2335 C2336 1.383 . S
C2335 H2343 0.929 . S
C2336 C2335 1.383 . S
C2336 C2337 1.377 . S
C2337 H2321 0.930 . S
C2337 C2336 1.377 . S
C2337 C2338 1.379 . S
C2338 H2322 0.931 . S
C2338 C2332 1.383 . S
C2338 C2337 1.379 . S
H2339 C2333 0.959 . S
H2340 C2333 0.961 . S
H2341 C2333 0.960 . S
H2342 C2334 0.930 . S
H2343 C2335 0.929 . S
H2344 C2352 0.929 . S
H2345 C2354 0.930 . S
H2346 C2356 0.930 . S
H2347 C2359 0.929 . S
H2348 C2362 0.930 . S
H2349 C2364 0.960 . S
H2350 C2364 0.960 . S
H2351 C2364 0.960 . S
C2352 H2344 0.929 . S
C2352 C2353 1.377 . S
C2352 C2354 1.384 . S
C2353 C2352 1.377 . S
C2353 C2359 1.390 . S
C2354 H2345 0.930 . S
C2354 C2352 1.384 . S
C2354 C2355 1.372 . S
C2355 C2354 1.372 . S
C2355 C2356 1.400 . S
C2355 C2360 1.490 . S
C2356 H2346 0.930 . S
C2356 C2355 1.400 . S
C2356 C2359 1.386 . S
H2357 C2373 0.930 . S
H2358 C2374 0.931 . S
C2359 H2347 0.929 . S
C2359 C2353 1.390 . S
C2359 C2356 1.386 . S
C2360 C2355 1.490 . S
C2360 C2362 1.395 . S
C2360 C2363 1.403 . S
H2361 C2367 0.930 . S
C2362 H2348 0.930 . S
C2362 C2360 1.395 . S
C2362 C2365 1.403 . S
C2363 C2360 1.403 . S
C2363 C2364 1.524 . S
C2363 C2367 1.400 . S
C2364 H2349 0.960 . S
C2364 H2350 0.960 . S
C2364 H2351 0.960 . S
C2364 C2363 1.524 . S
C2365 C2362 1.403 . S
C2365 C2366 1.392 . S
C2365 C2369 1.495 . S
C2366 C2365 1.392 . S
C2366 C2367 1.385 . S
C2366 C2368 1.478 . S
C2367 H2361 0.930 . S
C2367 C2363 1.400 . S
C2367 C2366 1.385 . S
C2368 C2366 1.478 . S
C2368 C2370 1.381 . S
C2368 C2374 1.383 . S
C2369 C2365 1.495 . S
C2369 H2375 0.959 . S
C2369 H2376 0.961 . S
C2369 H2377 0.960 . S
C2370 C2368 1.381 . S
C2370 C2371 1.394 . S
C2370 H2378 0.930 . S
C2371 C2370 1.394 . S
C2371 C2372 1.383 . S
C2371 H2379 0.929 . S
C2372 C2371 1.383 . S
C2372 C2373 1.377 . S
C2373 H2357 0.930 . S
C2373 C2372 1.377 . S
C2373 C2374 1.379 . S
C2374 H2358 0.931 . S
C2374 C2368 1.383 . S
C2374 C2373 1.379 . S
H2375 C2369 0.959 . S
H2376 C2369 0.961 . S
H2377 C2369 0.960 . S
H2378 C2370 0.930 . S
H2379 C2371 0.929 . S
H2380 C2388 0.929 . S
H2381 C2390 0.930 . S
H2382 C2392 0.930 . S
H2383 C2395 0.929 . S
H2384 C2398 0.930 . S
H2385 C2400 0.960 . S
H2386 C2400 0.960 . S
H2387 C2400 0.960 . S
C2388 H2380 0.929 . S
C2388 C2389 1.377 . S
C2388 C2390 1.384 . S
C2389 C2388 1.377 . S
C2389 C2395 1.390 . S
C2390 H2381 0.930 . S
C2390 C2388 1.384 . S
C2390 C2391 1.372 . S
C2391 C2390 1.372 . S
C2391 C2392 1.400 . S
C2391 C2396 1.490 . S
C2392 H2382 0.930 . S
C2392 C2391 1.400 . S
C2392 C2395 1.386 . S
H2393 C2409 0.930 . S
H2394 C2410 0.931 . S
C2395 H2383 0.929 . S
C2395 C2389 1.390 . S
C2395 C2392 1.386 . S
C2396 C2391 1.490 . S
C2396 C2398 1.395 . S
C2396 C2399 1.403 . S
H2397 C2403 0.930 . S
C2398 H2384 0.930 . S
C2398 C2396 1.395 . S
C2398 C2401 1.403 . S
C2399 C2396 1.403 . S
C2399 C2400 1.524 . S
C2399 C2403 1.400 . S
C2400 H2385 0.960 . S
C2400 H2386 0.960 . S
C2400 H2387 0.960 . S
C2400 C2399 1.524 . S
C2401 C2398 1.403 . S
C2401 C2402 1.392 . S
C2401 C2405 1.495 . S
C2402 C2401 1.392 . S
C2402 C2403 1.385 . S
C2402 C2404 1.478 . S
C2403 H2397 0.930 . S
C2403 C2399 1.400 . S
C2403 C2402 1.385 . S
C2404 C2402 1.478 . S
C2404 C2406 1.381 . S
C2404 C2410 1.383 . S
C2405 C2401 1.495 . S
C2405 H2411 0.959 . S
C2405 H2412 0.961 . S
C2405 H2413 0.960 . S
C2406 C2404 1.381 . S
C2406 C2407 1.394 . S
C2406 H2414 0.930 . S
C2407 C2406 1.394 . S
C2407 C2408 1.383 . S
C2407 H2415 0.929 . S
C2408 C2407 1.383 . S
C2408 C2409 1.377 . S
C2409 H2393 0.930 . S
C2409 C2408 1.377 . S
C2409 C2410 1.379 . S
C2410 H2394 0.931 . S
C2410 C2404 1.383 . S
C2410 C2409 1.379 . S
H2411 C2405 0.959 . S
H2412 C2405 0.961 . S
H2413 C2405 0.960 . S
H2414 C2406 0.930 . S
H2415 C2407 0.929 . S
H2416 C2424 0.929 . S
H2417 C2426 0.930 . S
H2418 C2428 0.930 . S
H2419 C2431 0.929 . S
H2420 C2434 0.930 . S
H2421 C2436 0.960 . S
H2422 C2436 0.960 . S
H2423 C2436 0.960 . S
C2424 H2416 0.929 . S
C2424 C2425 1.377 . S
C2424 C2426 1.384 . S
C2425 C2424 1.377 . S
C2425 C2431 1.390 . S
C2426 H2417 0.930 . S
C2426 C2424 1.384 . S
C2426 C2427 1.372 . S
C2427 C2426 1.372 . S
C2427 C2428 1.400 . S
C2427 C2432 1.490 . S
C2428 H2418 0.930 . S
C2428 C2427 1.400 . S
C2428 C2431 1.386 . S
H2429 C2445 0.930 . S
H2430 C2446 0.931 . S
C2431 H2419 0.929 . S
C2431 C2425 1.390 . S
C2431 C2428 1.386 . S
C2432 C2427 1.490 . S
C2432 C2434 1.395 . S
C2432 C2435 1.403 . S
H2433 C2439 0.930 . S
C2434 H2420 0.930 . S
C2434 C2432 1.395 . S
C2434 C2437 1.403 . S
C2435 C2432 1.403 . S
C2435 C2436 1.524 . S
C2435 C2439 1.400 . S
C2436 H2421 0.960 . S
C2436 H2422 0.960 . S
C2436 H2423 0.960 . S
C2436 C2435 1.524 . S
C2437 C2434 1.403 . S
C2437 C2438 1.392 . S
C2437 C2441 1.495 . S
C2438 C2437 1.392 . S
C2438 C2439 1.385 . S
C2438 C2440 1.478 . S
C2439 H2433 0.930 . S
C2439 C2435 1.400 . S
C2439 C2438 1.385 . S
C2440 C2438 1.478 . S
C2440 C2442 1.381 . S
C2440 C2446 1.383 . S
C2441 C2437 1.495 . S
C2441 H2447 0.959 . S
C2441 H2448 0.961 . S
C2441 H2449 0.960 . S
C2442 C2440 1.381 . S
C2442 C2443 1.394 . S
C2442 H2450 0.930 . S
C2443 C2442 1.394 . S
C2443 C2444 1.383 . S
C2443 H2451 0.929 . S
C2444 C2443 1.383 . S
C2444 C2445 1.377 . S
C2445 H2429 0.930 . S
C2445 C2444 1.377 . S
C2445 C2446 1.379 . S
C2446 H2430 0.931 . S
C2446 C2440 1.383 . S
C2446 C2445 1.379 . S
H2447 C2441 0.959 . S
H2448 C2441 0.961 . S
H2449 C2441 0.960 . S
H2450 C2442 0.930 . S
H2451 C2443 0.929 . S
H2452 C2460 0.929 . S
H2453 C2462 0.930 . S
H2454 C2464 0.930 . S
H2455 C2467 0.929 . S
H2456 C2470 0.930 . S
H2457 C2472 0.960 . S
H2458 C2472 0.960 . S
H2459 C2472 0.960 . S
C2460 H2452 0.929 . S
C2460 C2461 1.377 . S
C2460 C2462 1.384 . S
C2461 C2460 1.377 . S
C2461 C2467 1.390 . S
C2462 H2453 0.930 . S
C2462 C2460 1.384 . S
C2462 C2463 1.372 . S
C2463 C2462 1.372 . S
C2463 C2464 1.400 . S
C2463 C2468 1.490 . S
C2464 H2454 0.930 . S
C2464 C2463 1.400 . S
C2464 C2467 1.386 . S
H2465 C2481 0.930 . S
H2466 C2482 0.931 . S
C2467 H2455 0.929 . S
C2467 C2461 1.390 . S
C2467 C2464 1.386 . S
C2468 C2463 1.490 . S
C2468 C2470 1.395 . S
C2468 C2471 1.403 . S
H2469 C2475 0.930 . S
C2470 H2456 0.930 . S
C2470 C2468 1.395 . S
C2470 C2473 1.403 . S
C2471 C2468 1.403 . S
C2471 C2472 1.524 . S
C2471 C2475 1.400 . S
C2472 H2457 0.960 . S
C2472 H2458 0.960 . S
C2472 H2459 0.960 . S
C2472 C2471 1.524 . S
C2473 C2470 1.403 . S
C2473 C2474 1.392 . S
C2473 C2477 1.495 . S
C2474 C2473 1.392 . S
C2474 C2475 1.385 . S
C2474 C2476 1.478 . S
C2475 H2469 0.930 . S
C2475 C2471 1.400 . S
C2475 C2474 1.385 . S
C2476 C2474 1.478 . S
C2476 C2478 1.381 . S
C2476 C2482 1.383 . S
C2477 C2473 1.495 . S
C2477 H2483 0.959 . S
C2477 H2484 0.961 . S
C2477 H2485 0.960 . S
C2478 C2476 1.381 . S
C2478 C2479 1.394 . S
C2478 H2486 0.930 . S
C2479 C2478 1.394 . S
C2479 C2480 1.383 . S
C2479 H2487 0.929 . S
C2480 C2479 1.383 . S
C2480 C2481 1.377 . S
C2481 H2465 0.930 . S
C2481 C2480 1.377 . S
C2481 C2482 1.379 . S
C2482 H2466 0.931 . S
C2482 C2476 1.383 . S
C2482 C2481 1.379 . S
H2483 C2477 0.959 . S
H2484 C2477 0.961 . S
H2485 C2477 0.960 . S
H2486 C2478 0.930 . S
H2487 C2479 0.929 . S
H2488 C2496 0.929 . S
H2489 C2498 0.930 . S
H2490 C2500 0.930 . S
H2491 C2503 0.929 . S
H2492 C2506 0.930 . S
H2493 C2508 0.960 . S
H2494 C2508 0.960 . S
H2495 C2508 0.960 . S
C2496 H2488 0.929 . S
C2496 C2497 1.377 . S
C2496 C2498 1.384 . S
C2497 C2496 1.377 . S
C2497 C2503 1.390 . S
C2498 H2489 0.930 . S
C2498 C2496 1.384 . S
C2498 C2499 1.372 . S
C2499 C2498 1.372 . S
C2499 C2500 1.400 . S
C2499 C2504 1.490 . S
C2500 H2490 0.930 . S
C2500 C2499 1.400 . S
C2500 C2503 1.386 . S
H2501 C2517 0.930 . S
H2502 C2518 0.931 . S
C2503 H2491 0.929 . S
C2503 C2497 1.390 . S
C2503 C2500 1.386 . S
C2504 C2499 1.490 . S
C2504 C2506 1.395 . S
C2504 C2507 1.403 . S
H2505 C2511 0.930 . S
C2506 H2492 0.930 . S
C2506 C2504 1.395 . S
C2506 C2509 1.403 . S
C2507 C2504 1.403 . S
C2507 C2508 1.524 . S
C2507 C2511 1.400 . S
C2508 H2493 0.960 . S
C2508 H2494 0.960 . S
C2508 H2495 0.960 . S
C2508 C2507 1.524 . S
C2509 C2506 1.403 . S
C2509 C2510 1.392 . S
C2509 C2513 1.495 . S
C2510 C2509 1.392 . S
C2510 C2511 1.385 . S
C2510 C2512 1.478 . S
C2511 H2505 0.930 . S
C2511 C2507 1.400 . S
C2511 C2510 1.385 . S
C2512 C2510 1.478 . S
C2512 C2514 1.381 . S
C2512 C2518 1.383 . S
C2513 C2509 1.495 . S
C2513 H2519 0.959 . S
C2513 H2520 0.961 . S
C2513 H2521 0.960 . S
C2514 C2512 1.381 . S
C2514 C2515 1.394 . S
C2514 H2522 0.930 . S
C2515 C2514 1.394 . S
C2515 C2516 1.383 . S
C2515 H2523 0.929 . S
C2516 C2515 1.383 . S
C2516 C2517 1.377 . S
C2517 H2501 0.930 . S
C2517 C2516 1.377 . S
C2517 C2518 1.379 . S
C2518 H2502 0.931 . S
C2518 C2512 1.383 . S
C2518 C2517 1.379 . S
H2519 C2513 0.959 . S
H2520 C2513 0.961 . S
H2521 C2513 0.960 . S
H2522 C2514 0.930 . S
H2523 C2515 0.929 . S
H2524 C2532 0.929 . S
H2525 C2534 0.930 . S
H2526 C2536 0.930 . S
H2527 C2539 0.929 . S
H2528 C2542 0.930 . S
H2529 C2544 0.960 . S
H2530 C2544 0.960 . S
H2531 C2544 0.960 . S
C2532 H2524 0.929 . S
C2532 C2533 1.377 . S
C2532 C2534 1.384 . S
C2533 C2532 1.377 . S
C2533 C2539 1.390 . S
C2534 H2525 0.930 . S
C2534 C2532 1.384 . S
C2534 C2535 1.372 . S
C2535 C2534 1.372 . S
C2535 C2536 1.400 . S
C2535 C2540 1.490 . S
C2536 H2526 0.930 . S
C2536 C2535 1.400 . S
C2536 C2539 1.386 . S
H2537 C2553 0.930 . S
H2538 C2554 0.931 . S
C2539 H2527 0.929 . S
C2539 C2533 1.390 . S
C2539 C2536 1.386 . S
C2540 C2535 1.490 . S
C2540 C2542 1.395 . S
C2540 C2543 1.403 . S
H2541 C2547 0.930 . S
C2542 H2528 0.930 . S
C2542 C2540 1.395 . S
C2542 C2545 1.403 . S
C2543 C2540 1.403 . S
C2543 C2544 1.524 . S
C2543 C2547 1.400 . S
C2544 H2529 0.960 . S
C2544 H2530 0.960 . S
C2544 H2531 0.960 . S
C2544 C2543 1.524 . S
C2545 C2542 1.403 . S
C2545 C2546 1.392 . S
C2545 C2549 1.495 . S
C2546 C2545 1.392 . S
C2546 C2547 1.385 . S
C2546 C2548 1.478 . S
C2547 H2541 0.930 . S
C2547 C2543 1.400 . S
C2547 C2546 1.385 . S
C2548 C2546 1.478 . S
C2548 C2550 1.381 . S
C2548 C2554 1.383 . S
C2549 C2545 1.495 . S
C2549 H2555 0.959 . S
C2549 H2556 0.961 . S
C2549 H2557 0.960 . S
C2550 C2548 1.381 . S
C2550 C2551 1.394 . S
C2550 H2558 0.930 . S
C2551 C2550 1.394 . S
C2551 C2552 1.383 . S
C2551 H2559 0.929 . S
C2552 C2551 1.383 . S
C2552 C2553 1.377 . S
C2553 H2537 0.930 . S
C2553 C2552 1.377 . S
C2553 C2554 1.379 . S
C2554 H2538 0.931 . S
C2554 C2548 1.383 . S
C2554 C2553 1.379 . S
H2555 C2549 0.959 . S
H2556 C2549 0.961 . S
H2557 C2549 0.960 . S
H2558 C2550 0.930 . S
H2559 C2551 0.929 . S
C1417 C409 0.719 1_556 S
C1436 C20 0.719 . S
C1453 C489 0.719 . S
C1472 C108 0.710 . S
C1489 C585 0.719 . S
C1508 C205 0.714 . S
C1525 C673 0.719 . S
C1544 C293 0.717 . S
C1561 C1105 0.719 . S
C1580 C724 0.718 . S
C1597 C1193 0.719 . S
C1616 C812 0.713 . S
C1633 C909 0.716 . S
C1652 C1281 0.728 . S
C1669 C1377 0.719 . S
C1688 C997 0.708 . S
C1705 C49 1.127 1_556 S
C1724 C460 1.140 . S
C1741 C557 1.130 1_556 S
C1760 C137 1.108 1_556 S
C1777 C233 1.130 . S
C1796 C645 1.107 . S
C1813 C381 1.123 . S
C1832 C321 1.139 . S
C1849 C1164 1.129 . S
C1868 C753 1.107 . S
C1885 C1252 1.124 . S
C1904 C841 1.142 . S
C1921 C937 1.125 . S
C1940 C1349 1.143 . S
C1957 C1025 1.127 . S
C1976 C1076 1.112 . S
C1993 C1369 1.518 . S
C2012 C29 1.518 . S
C2029 C1113 1.519 . S
C2048 C117 1.507 . S
C2065 C1201 1.516 . S
C2084 C196 1.516 . S
C2101 C1289 1.519 . S
C2120 C284 1.516 . S
C2137 C821 1.516 . S
C2156 C401 1.512 . S
C2173 C900 1.516 . S
C2192 C497 1.520 . S
C2209 C577 1.517 . S
C2228 C988 1.525 . S
C2245 C665 1.516 . S
C2264 C733 1.517 . S
C2281 C1173 1.517 . S
C2300 C225 1.528 . S
C2317 C1261 1.519 . S
C2336 C313 1.521 . S
C2353 C1340 1.520 . S
C2372 C57 1.510 . S
C2389 C145 1.519 . S
C2408 C1085 1.513 . S
C2425 C1017 1.518 . S
C2444 C548 1.516 . S
C2461 C636 1.518 . S
C2480 C761 1.509 . S
C2497 C849 1.519 . S
C2516 C372 1.504 . S
C2533 C929 1.520 . S
C2552 C469 1.503 . S
