# Generated by pormake.
# Topology wji, (4)-cn, num edge types: 1
# Building blocks:
#     Node 0, Type 0, BuildingBlock: NAHDIM_clean_sbu_0, # of connection points: 4
#     Node 1, Type 0, BuildingBlock: NAHDIM_clean_sbu_0, # of connection points: 4
#     Node 2, Type 0, BuildingBlock: NAHDIM_clean_sbu_0, # of connection points: 4
#     Node 3, Type 0, BuildingBlock: NAHDIM_clean_sbu_0, # of connection points: 4
#     Node 4, Type 0, BuildingBlock: NAHDIM_clean_sbu_0, # of connection points: 4
#     Node 5, Type 0, BuildingBlock: NAHDIM_clean_sbu_0, # of connection points: 4
#     Node 6, Type 0, BuildingBlock: NAHDIM_clean_sbu_0, # of connection points: 4
#     Node 7, Type 0, BuildingBlock: NAHDIM_clean_sbu_0, # of connection points: 4
#     Node 8, Type 0, BuildingBlock: NAHDIM_clean_sbu_0, # of connection points: 4
#     Node 9, Type 0, BuildingBlock: NAHDIM_clean_sbu_0, # of connection points: 4
#     Node 10, Type 0, BuildingBlock: NAHDIM_clean_sbu_0, # of connection points: 4
#     Node 11, Type 0, BuildingBlock: NAHDIM_clean_sbu_0, # of connection points: 4
#     Edge 12, Type (0, 0), BuildingBlock: MIFKUJ_clean_linker_0, # of connection points: 2
#     Edge 13, Type (0, 0), BuildingBlock: MIFKUJ_clean_linker_0, # of connection points: 2
#     Edge 14, Type (0, 0), BuildingBlock: MIFKUJ_clean_linker_0, # of connection points: 2
#     Edge 15, Type (0, 0), BuildingBlock: MIFKUJ_clean_linker_0, # of connection points: 2
#     Edge 16, Type (0, 0), BuildingBlock: MIFKUJ_clean_linker_0, # of connection points: 2
#     Edge 17, Type (0, 0), BuildingBlock: MIFKUJ_clean_linker_0, # of connection points: 2
#     Edge 18, Type (0, 0), BuildingBlock: MIFKUJ_clean_linker_0, # of connection points: 2
#     Edge 19, Type (0, 0), BuildingBlock: MIFKUJ_clean_linker_0, # of connection points: 2
#     Edge 20, Type (0, 0), BuildingBlock: MIFKUJ_clean_linker_0, # of connection points: 2
#     Edge 21, Type (0, 0), BuildingBlock: MIFKUJ_clean_linker_0, # of connection points: 2
#     Edge 22, Type (0, 0), BuildingBlock: MIFKUJ_clean_linker_0, # of connection points: 2
#     Edge 23, Type (0, 0), BuildingBlock: MIFKUJ_clean_linker_0, # of connection points: 2
#     Edge 24, Type (0, 0), BuildingBlock: MIFKUJ_clean_linker_0, # of connection points: 2
#     Edge 25, Type (0, 0), BuildingBlock: MIFKUJ_clean_linker_0, # of connection points: 2
#     Edge 26, Type (0, 0), BuildingBlock: MIFKUJ_clean_linker_0, # of connection points: 2
#     Edge 27, Type (0, 0), BuildingBlock: MIFKUJ_clean_linker_0, # of connection points: 2
#     Edge 28, Type (0, 0), BuildingBlock: MIFKUJ_clean_linker_0, # of connection points: 2
#     Edge 29, Type (0, 0), BuildingBlock: MIFKUJ_clean_linker_0, # of connection points: 2
#     Edge 30, Type (0, 0), BuildingBlock: MIFKUJ_clean_linker_0, # of connection points: 2
#     Edge 31, Type (0, 0), BuildingBlock: MIFKUJ_clean_linker_0, # of connection points: 2
#     Edge 32, Type (0, 0), BuildingBlock: MIFKUJ_clean_linker_0, # of connection points: 2
#     Edge 33, Type (0, 0), BuildingBlock: MIFKUJ_clean_linker_0, # of connection points: 2
#     Edge 34, Type (0, 0), BuildingBlock: MIFKUJ_clean_linker_0, # of connection points: 2
#     Edge 35, Type (0, 0), BuildingBlock: MIFKUJ_clean_linker_0, # of connection points: 2
# Relax obj value: 0.157
# Max RMSD: 0.088
# Mean RMSD: 0.088
data_MOF--net-wji--node1-NAHDIM_clean_sbu_0--edge1-MIFKUJ_clean_linker_0
_symmetry_space_group_name_H-M    P1
_symmetry_Int_Tables_number       1
_symmetry_cell_setting            triclinic
loop_
_symmetry_equiv_pos_as_xyz
'x, y, z'
_cell_length_a     74.054319
_cell_length_b     74.072756
_cell_length_c     29.71948
_cell_angle_alpha  90.040917
_cell_angle_beta   89.995896
_cell_angle_gamma 119.99859
loop_
_atom_site_label
_atom_site_type_symbol
_atom_site_fract_x
_atom_site_fract_y
_atom_site_fract_z
_atom_type_partial_charge
C0 C 0.42518 0.27977 0.40916 0.0
O1 O 0.44307 0.29475 0.3938 0.0
O2 O 0.44346 0.33337 0.39956 0.0
Zn3 Zn 0.41335 0.31141 0.40586 0.0
O4 O 0.40362 0.3174 0.46387 0.0
C5 C 0.39958 0.3327 0.35284 0.0
O6 O 0.41184 0.34676 0.38227 0.0
O7 O 0.40987 0.28292 0.41235 0.0
C8 C 0.38472 0.31193 0.47181 0.0
O9 O 0.37054 0.3019 0.44075 0.0
C10 C 0.4555 0.33888 0.43352 0.0
O11 O 0.44832 0.32911 0.47195 0.0
O12 O 0.39716 0.31448 0.35513 0.0
C13 C 0.14393 0.43479 0.58536 0.0
O14 O 0.14631 0.45276 0.57206 0.0
O15 O 0.10611 0.44925 0.56371 0.0
Zn16 Zn 0.10009 0.41955 0.56778 0.0
O17 O 0.08039 0.40595 0.6196 0.0
C18 C 0.07234 0.40661 0.49402 0.0
O19 O 0.06969 0.4216 0.51035 0.0
O20 O 0.12601 0.41858 0.58323 0.0
C21 C 0.06631 0.41027 0.62972 0.0
O22 O 0.06403 0.42369 0.60502 0.0
C23 C 0.11053 0.45992 0.59973 0.0
O24 O 0.112 0.4516 0.6376 0.0
O25 O 0.0859 0.40315 0.51195 0.0
C26 C 0.70277 0.12638 0.81086 0.0
O27 O 0.68693 0.11517 0.83763 0.0
O28 O 0.65286 0.11092 0.73728 0.0
Zn29 Zn 0.6726 0.1 0.74718 0.0
O30 O 0.66072 0.07773 0.79451 0.0
C31 C 0.6577 0.07422 0.67125 0.0
O32 O 0.64046 0.07282 0.68701 0.0
O33 O 0.70055 0.12295 0.76872 0.0
C34 C 0.66869 0.06624 0.80108 0.0
O35 O 0.68434 0.06879 0.77575 0.0
C36 C 0.64212 0.11154 0.76998 0.0
O37 O 0.64477 0.10581 0.81011 0.0
O38 O 0.67484 0.08624 0.69089 0.0
C39 C 0.5605 0.707 0.92825 0.0
O40 O 0.54265 0.69003 0.92009 0.0
O41 O 0.55016 0.656 0.89803 0.0
Zn42 Zn 0.5787 0.68123 0.90588 0.0
O43 O 0.59239 0.67585 0.95802 0.0
C44 C 0.58847 0.68077 0.81225 0.0
O45 O 0.56873 0.67512 0.80677 0.0
O46 O 0.57742 0.70695 0.92147 0.0
C47 C 0.59416 0.65968 0.95922 0.0
O48 O 0.58703 0.64647 0.92542 0.0
C49 C 0.539 0.64708 0.93237 0.0
O50 O 0.54602 0.65498 0.97246 0.0
O51 O 0.59623 0.68504 0.85152 0.0
C52 C 0.87978 0.58646 0.14327 0.0
O53 O 0.89479 0.58742 0.16851 0.0
O54 O 0.89212 0.54714 0.07768 0.0
Zn55 Zn 0.90255 0.57802 0.07802 0.0
O56 O 0.92711 0.59282 0.11945 0.0
C57 C 0.92518 0.58393 8e-05 0.0
O58 O 0.92693 0.56934 0.02137 0.0
O59 O 0.87968 0.58287 0.10132 0.0
C60 C 0.9401 0.58721 0.13078 0.0
O61 O 0.93836 0.56996 0.11425 0.0
C62 C 0.88991 0.53695 0.11363 0.0
O63 O 0.89407 0.54665 0.15255 0.0
O64 O 0.91342 0.59015 0.01668 0.0
C65 C 0.30068 0.8712 0.30935 0.0
O66 O 0.31527 0.88179 0.33925 0.0
O67 O 0.35476 0.89653 0.25287 0.0
Zn68 Zn 0.33145 0.90301 0.25695 0.0
O69 O 0.33651 0.92226 0.30922 0.0
C70 C 0.34373 0.93737 0.19943 0.0
O71 O 0.35613 0.94633 0.23394 0.0
O72 O 0.30401 0.87688 0.26839 0.0
C73 C 0.32513 0.93043 0.31467 0.0
O74 O 0.31032 0.92651 0.28538 0.0
C75 C 0.3652 0.89721 0.28742 0.0
O76 O 0.36038 0.90183 0.32665 0.0
O77 O 0.33114 0.91782 0.20033 0.0
C78 C 0.70123 0.57458 0.35995 0.0
O79 O 0.68401 0.56641 0.33607 0.0
O80 O 0.65154 0.54896 0.42325 0.0
Zn81 Zn 0.6736 0.5792 0.41436 0.0
O82 O 0.66561 0.59047 0.36118 0.0
C83 C 0.65707 0.59562 0.4736 0.0
O84 O 0.64171 0.58458 0.44553 0.0
O85 O 0.70115 0.58149 0.3991 0.0
C86 C 0.67096 0.60948 0.35543 0.0
O87 O 0.6824 0.62333 0.38601 0.0
C88 C 0.6385 0.53916 0.39204 0.0
O89 O 0.63983 0.54877 0.35403 0.0
O90 O 0.67419 0.59576 0.46853 0.0
C91 C 0.12223 0.70387 0.51697 0.0
O92 O 0.11152 0.68522 0.49898 0.0
O93 O 0.10404 0.66014 0.59786 0.0
Zn94 Zn 0.09496 0.68108 0.58582 0.0
O95 O 0.07221 0.66814 0.54023 0.0
C96 C 0.0873 0.6831 0.6802 0.0
O97 O 0.10222 0.67856 0.68488 0.0
O98 O 0.11833 0.70661 0.55729 0.0
C99 C 0.06399 0.6781 0.52349 0.0
O100 O 0.06985 0.69698 0.53815 0.0
C101 C 0.09035 0.64213 0.61124 0.0
O102 O 0.07131 0.6384 0.61889 0.0
O103 O 0.08279 0.68648 0.64105 0.0
C104 C 0.42353 0.14329 0.74521 0.0
O105 O 0.44111 0.14577 0.76157 0.0
O106 O 0.44035 0.10694 0.75371 0.0
Zn107 Zn 0.41029 0.09946 0.75113 0.0
O108 O 0.39756 0.08146 0.69658 0.0
C109 C 0.3938 0.06538 0.80983 0.0
O110 O 0.4005 0.05853 0.77664 0.0
O111 O 0.40795 0.12501 0.74168 0.0
C112 C 0.37859 0.06719 0.6938 0.0
O113 O 0.36608 0.0634 0.72824 0.0
C114 C 0.45179 0.11291 0.7188 0.0
O115 O 0.44388 0.11461 0.68053 0.0
O116 O 0.39607 0.08353 0.80718 0.0
C117 C 0.28805 0.42684 0.893 0.0
O118 O 0.30338 0.44427 0.90936 0.0
O119 O 0.33984 0.43999 0.91675 0.0
Zn120 Zn 0.31574 0.41062 0.91131 0.0
O121 O 0.32214 0.39602 0.86249 0.0
C122 C 0.31835 0.40528 0.00601 0.0
O123 O 0.32456 0.42529 0.00629 0.0
O124 O 0.28962 0.41053 0.89301 0.0
C125 C 0.33872 0.39494 0.86293 0.0
O126 O 0.35193 0.40346 0.8964 0.0
C127 C 0.35002 0.45026 0.88245 0.0
O128 O 0.34448 0.44167 0.84242 0.0
O129 O 0.31261 0.39535 0.96909 0.0
C130 C 0.88551 0.29228 0.01676 0.0
O131 O 0.89927 0.30758 0.99171 0.0
O132 O 0.89722 0.34059 0.09802 0.0
Zn133 Zn 0.90874 0.32155 0.08615 0.0
O134 O 0.93229 0.33629 0.04204 0.0
C135 C 0.92464 0.30388 0.15457 0.0
O136 O 0.92055 0.28878 0.12596 0.0
O137 O 0.88645 0.29439 0.05935 0.0
C138 C 0.94435 0.32945 0.0309 0.0
O139 O 0.94194 0.31236 0.04972 0.0
C140 C 0.88707 0.34422 0.06842 0.0
O141 O 0.88313 0.33456 0.0295 0.0
O142 O 0.92028 0.31792 0.14436 0.0
C143 C 0.58171 0.86096 0.24582 0.0
O144 O 0.56583 0.85951 0.26854 0.0
O145 O 0.56908 0.8998 0.26722 0.0
Zn146 Zn 0.59821 0.9053 0.25619 0.0
O147 O 0.6096 0.92431 0.20289 0.0
C148 C 0.60919 0.91535 0.34929 0.0
O149 O 0.59062 0.89903 0.35578 0.0
O150 O 0.5977 0.87878 0.23978 0.0
C151 C 0.60604 0.93927 0.19783 0.0
O152 O 0.59528 0.94256 0.22863 0.0
C153 C 0.5563 0.89449 0.23465 0.0
O154 O 0.56223 0.89214 0.19445 0.0
O155 O 0.61612 0.92011 0.30941 0.0
H156 H 0.33795 0.42404 0.08441 0.0
H157 H 0.34824 0.40879 0.14498 0.0
H158 H 0.31642 0.34894 0.07905 0.0
H159 H 0.3061 0.36407 0.01795 0.0
H160 H 0.31255 0.34724 0.17601 0.0
H161 H 0.36434 0.37468 0.06044 0.0
H162 H 0.38818 0.40106 0.00633 0.0
H163 H 0.42089 0.44312 0.11497 0.0
H164 H 0.397 0.41706 0.16977 0.0
H165 H 0.37098 0.30712 0.29004 0.0
H166 H 0.35397 0.31702 0.23208 0.0
H167 H 0.38724 0.38062 0.27918 0.0
H168 H 0.4043 0.37097 0.33672 0.0
H169 H 0.38927 0.37804 0.18823 0.0
H170 H 0.33653 0.34969 0.30404 0.0
H171 H 0.31243 0.32262 0.3567 0.0
H172 H 0.28146 0.28123 0.24598 0.0
H173 H 0.30559 0.30798 0.19268 0.0
C174 C 0.33277 0.40754 0.08313 0.0
C175 C 0.32143 0.39532 0.04609 0.0
C176 C 0.33869 0.39887 0.11775 0.0
C177 C 0.33329 0.37783 0.11606 0.0
C178 C 0.32075 0.36522 0.08081 0.0
C179 C 0.31495 0.37392 0.0459 0.0
C180 C 0.34243 0.36966 0.14882 0.0
C181 C 0.32929 0.35374 0.17843 0.0
C182 C 0.36427 0.37828 0.15189 0.0
C183 C 0.37875 0.39399 0.11917 0.0
C184 C 0.3765 0.38962 0.07278 0.0
C185 C 0.39003 0.4045 0.04199 0.0
C186 C 0.40601 0.42376 0.05719 0.0
C187 C 0.40849 0.42819 0.10325 0.0
C188 C 0.39496 0.41336 0.1342 0.0
C189 C 0.37463 0.3232 0.28804 0.0
C190 C 0.389 0.33826 0.31793 0.0
C191 C 0.36484 0.3288 0.25507 0.0
C192 C 0.36928 0.34953 0.25156 0.0
C193 C 0.38362 0.36455 0.28132 0.0
C194 C 0.39332 0.35897 0.31427 0.0
C195 C 0.35945 0.35588 0.21631 0.0
C196 C 0.37251 0.37145 0.18591 0.0
C197 C 0.33755 0.3468 0.21243 0.0
C198 C 0.32301 0.33075 0.24442 0.0
C199 C 0.3247 0.33475 0.29095 0.0
C200 C 0.31101 0.31948 0.32091 0.0
C201 C 0.29547 0.30019 0.30471 0.0
C202 C 0.29354 0.29616 0.25849 0.0
C203 C 0.3072 0.31138 0.22839 0.0
H204 H 0.28488 0.28839 0.32795 0.0
H205 H 0.41651 0.43521 0.03327 0.0
H206 H 0.07409 0.37502 0.44934 0.0
H207 H 0.04874 0.3505 0.39488 0.0
H208 H 0.01304 0.38179 0.40588 0.0
H209 H 0.03815 0.4063 0.4597 0.0
H210 H 0.98894 0.33829 0.41443 0.0
H211 H 0.04292 0.39046 0.31741 0.0
H212 H 0.07881 0.41073 0.28819 0.0
H213 H 0.07751 0.35407 0.25091 0.0
H214 H 0.04168 0.33345 0.28048 0.0
H215 H 0.92796 0.3272 0.2279 0.0
H216 H 0.95223 0.33632 0.29038 0.0
H217 H 0.97384 0.2963 0.23685 0.0
H218 H 0.94942 0.28707 0.17362 0.0
H219 H 0.00581 0.33547 0.25395 0.0
H220 H 0.94889 0.28379 0.33595 0.0
H221 H 0.91281 0.26356 0.36393 0.0
H222 H 0.91919 0.31808 0.42969 0.0
H223 H 0.95521 0.33874 0.40156 0.0
C224 C 0.0609 0.37675 0.43986 0.0
C225 C 0.05812 0.3926 0.45883 0.0
C226 C 0.04646 0.36272 0.40886 0.0
C227 C 0.02899 0.36431 0.39666 0.0
C228 C 0.02634 0.38024 0.41517 0.0
C229 C 0.0408 0.39432 0.44572 0.0
C230 C 0.01327 0.34952 0.36461 0.0
C231 C 0.99256 0.33761 0.37931 0.0
C232 C 0.01824 0.34803 0.31934 0.0
C233 C 0.03976 0.36042 0.30172 0.0
C234 C 0.05037 0.38232 0.3034 0.0
C235 C 0.07068 0.39387 0.28668 0.0
C236 C 0.08047 0.38369 0.26787 0.0
C237 C 0.06994 0.36193 0.26561 0.0
C238 C 0.04963 0.35031 0.28233 0.0
C239 C 0.93757 0.32 0.2298 0.0
C240 C 0.93686 0.3065 0.19576 0.0
C241 C 0.95137 0.32514 0.26572 0.0
C242 C 0.96475 0.31688 0.26843 0.0
C243 C 0.96356 0.30275 0.23543 0.0
C244 C 0.94955 0.29743 0.19951 0.0
C245 C 0.98125 0.3249 0.30331 0.0
C246 C 0.00215 0.33556 0.28928 0.0
C247 C 0.97647 0.32518 0.34929 0.0
C248 C 0.95478 0.31285 0.36646 0.0
C249 C 0.94257 0.29151 0.35612 0.0
C250 C 0.92212 0.27996 0.37206 0.0
C251 C 0.91371 0.28953 0.39854 0.0
C252 C 0.92573 0.31068 0.4092 0.0
C253 C 0.94619 0.32232 0.39333 0.0
H254 H 0.89787 0.28055 0.41085 0.0
H255 H 0.09619 0.39266 0.25491 0.0
H256 H 0.59677 0.91248 0.437 0.0
H257 H 0.61071 0.94045 0.49293 0.0
H258 H 0.65973 0.98015 0.40119 0.0
H259 H 0.64591 0.95237 0.34498 0.0
H260 H 0.64873 0.9668 0.53667 0.0
H261 H 0.66054 0.02681 0.40097 0.0
H262 H 0.64858 0.02776 0.32392 0.0
H263 H 0.59074 0.97153 0.3496 0.0
H264 H 0.60223 0.97045 0.42695 0.0
H265 H 0.68821 0.06611 0.64329 0.0
H266 H 0.68483 0.04019 0.58756 0.0
H267 H 0.62144 0.02484 0.56113 0.0
H268 H 0.62467 0.05064 0.61648 0.0
H269 H 0.64252 0.02705 0.4838 0.0
H270 H 0.6305 0.99542 0.63117 0.0
H271 H 0.63995 0.99318 0.70971 0.0
H272 H 0.6935 0.99033 0.66411 0.0
H273 H 0.68452 0.99287 0.58527 0.0
C274 C 0.61081 0.92698 0.42908 0.0
C275 C 0.62 0.93034 0.38623 0.0
C276 C 0.6188 0.94291 0.46117 0.0
C277 C 0.63602 0.96243 0.45083 0.0
C278 C 0.64627 0.96524 0.40955 0.0
C279 C 0.63833 0.94933 0.37748 0.0
C280 C 0.64149 0.98046 0.48059 0.0
C281 C 0.64762 0.98009 0.52505 0.0
C282 C 0.63968 0.99762 0.46551 0.0
C283 C 0.63236 0.99843 0.41951 0.0
C284 C 0.64524 0.01471 0.3902 0.0
C285 C 0.63854 0.01527 0.34648 0.0
C286 C 0.61894 -0.00033 0.33182 0.0
C287 C 0.60594 0.98356 0.36093 0.0
C288 C 0.61254 0.98296 0.4047 0.0
C289 C 0.67366 0.05741 0.62514 0.0
C290 C 0.65665 0.06032 0.63444 0.0
C291 C 0.67173 0.04257 0.5935 0.0
C292 C 0.65283 0.03049 0.57062 0.0
C293 C 0.63616 0.03401 0.57848 0.0
C294 C 0.63802 0.04871 0.61024 0.0
C295 C 0.64989 0.01349 0.53993 0.0
C296 C 0.64411 0.014 0.49524 0.0
C297 C 0.6517 0.99634 0.55507 0.0
C298 C 0.65697 0.99457 0.60239 0.0
C299 C 0.64438 0.99448 0.63792 0.0
C300 C 0.64964 0.99313 0.68248 0.0
C301 C 0.66735 0.99167 0.6919 0.0
C302 C 0.6798 0.99149 0.65676 0.0
C303 C 0.67463 0.99288 0.61214 0.0
H304 H 0.6714 0.99064 0.72642 0.0
H305 H 0.61382 0.0001 0.29793 0.0
H306 H 0.62454 0.6025 0.48339 0.0
H307 H 0.61991 0.62349 0.54024 0.0
H308 H 0.67894 0.63873 0.60003 0.0
H309 H 0.68378 0.61758 0.54276 0.0
H310 H 0.64695 0.62628 0.66245 0.0
H311 H 0.67627 0.67568 0.54438 0.0
H312 H 0.68078 0.68873 0.46656 0.0
H313 H 0.61847 0.67876 0.46712 0.0
H314 H 0.61343 0.66532 0.54472 0.0
H315 H 0.62896 0.6894 0.81368 0.0
H316 H 0.64723 0.68168 0.75503 0.0
H317 H 0.59385 0.66032 0.66771 0.0
H318 H 0.57554 0.66823 0.7259 0.0
H319 H 0.63058 0.68148 0.62122 0.0
H320 H 0.59965 0.62627 0.73273 0.0
H321 H 0.59432 0.61227 0.8099 0.0
H322 H 0.65962 0.63284 0.82067 0.0
H323 H 0.66537 0.64723 0.74373 0.0
C324 C 0.63661 0.61031 0.50851 0.0
C325 C 0.65454 0.60837 0.50858 0.0
C326 C 0.63399 0.62243 0.54082 0.0
C327 C 0.64922 0.63289 0.5739 0.0
C328 C 0.66709 0.63088 0.57451 0.0
C329 C 0.66981 0.61881 0.54183 0.0
C330 C 0.64574 0.64513 0.60871 0.0
C331 C 0.6439 0.63873 0.65366 0.0
C332 C 0.64147 0.66114 0.59698 0.0
C333 C 0.64444 0.66937 0.55036 0.0
C334 C 0.66346 0.67612 0.52782 0.0
C335 C 0.66613 0.68362 0.48375 0.0
C336 C 0.64991 0.68455 0.46189 0.0
C337 C 0.63101 0.67803 0.4841 0.0
C338 C 0.62826 0.6705 0.52817 0.0
C339 C 0.62122 0.6834 0.78172 0.0
C340 C 0.60066 0.67915 0.77465 0.0
C341 C 0.63169 0.67897 0.74829 0.0
C342 C 0.62175 0.6701 0.70737 0.0
C343 C 0.60177 0.66711 0.69914 0.0
C344 C 0.5913 0.67157 0.73251 0.0
C345 C 0.63125 0.66222 0.67465 0.0
C346 C 0.63415 0.6694 0.63013 0.0
C347 C 0.63647 0.64688 0.68671 0.0
C348 C 0.63298 0.63804 0.73274 0.0
C349 C 0.61289 0.62793 0.75169 0.0
C350 C 0.60979 0.61991 0.79536 0.0
C351 C 0.62663 0.62173 0.82023 0.0
C352 C 0.64659 0.63149 0.80141 0.0
C353 C 0.64979 0.63958 0.75777 0.0
H354 H 0.6242 0.61551 0.85404 0.0
H355 H 0.652 0.69035 0.42776 0.0
H356 H 0.05682 0.69368 0.68463 0.0
H357 H 0.02802 0.68058 0.73876 0.0
H358 H 0.05518 0.64997 0.81267 0.0
H359 H 0.08414 0.66321 0.75944 0.0
H360 H 0.0123 0.62395 0.77437 0.0
H361 H 0.05528 0.68635 0.86303 0.0
H362 H 0.07558 0.72439 0.87461 0.0
H363 H 0.02153 0.72927 0.84383 0.0
H364 H 0.00097 0.69127 0.83142 0.0
H365 H 0.95578 0.57769 0.96708 0.0
H366 H 0.98122 0.59748 0.90949 0.0
H367 H 0.95176 0.63436 0.8872 0.0
H368 H 0.92641 0.61492 0.94679 0.0
H369 H 0.99226 0.65889 0.89035 0.0
H370 H 0.94797 0.59773 0.8085 0.0
H371 H 0.92637 0.56012 0.79284 0.0
H372 H 0.98037 0.55312 0.8031 0.0
H373 H 0.00228 0.59063 0.81947 0.0
C374 C 0.05695 0.68463 0.71311 0.0
C375 C 0.07264 0.6793 0.71753 0.0
C376 C 0.04051 0.67719 0.74394 0.0
C377 C 0.03949 0.66422 0.77931 0.0
C378 C 0.05576 0.65996 0.78542 0.0
C379 C 0.07233 0.66761 0.75505 0.0
C380 C 0.02041 0.65302 0.80671 0.0
C381 C 0.00795 0.63149 0.80005 0.0
C382 C 0.01429 0.66319 0.83827 0.0
C383 C 0.02667 0.68601 0.84572 0.0
C384 C 0.04778 0.69556 0.85823 0.0
C385 C 0.05932 0.71711 0.86508 0.0
C386 C 0.04987 0.72925 0.8598 0.0
C387 C 0.02884 0.71985 0.84781 0.0
C388 C 0.01724 0.69831 0.8409 0.0
C389 C 0.95445 0.58982 0.94968 0.0
C390 C 0.939 0.59468 0.96146 0.0
C391 C 0.96901 0.60109 0.91647 0.0
C392 C 0.96822 0.6172 0.89338 0.0
C393 C 0.95261 0.62194 0.90446 0.0
C394 C 0.93809 0.61076 0.9383 0.0
C395 C 0.98446 0.62951 0.85939 0.0
C396 C 0.99635 0.65127 0.86437 0.0
C397 C 0.98985 0.61962 0.82544 0.0
C398 C 0.97676 0.59701 0.81545 0.0
C399 C 0.95523 0.58815 0.80771 0.0
C400 C 0.94293 0.56685 0.79867 0.0
C401 C 0.95199 0.55423 0.79704 0.0
C402 C 0.97338 0.56291 0.80437 0.0
C403 C 0.98575 0.5842 0.81345 0.0
H404 H 0.94243 0.53774 0.79004 0.0
H405 H 0.05883 0.74593 0.86513 0.0
H406 H 0.37759 0.02346 0.81665 0.0
H407 H 0.36453 0.002 0.88435 0.0
H408 H 0.37615 0.05612 0.96146 0.0
H409 H 0.389 0.07772 0.89357 0.0
H410 H 0.39449 0.03288 0.99609 0.0
H411 H 0.32826 0.02178 0.94472 0.0
H412 H 0.30017 0.01251 0.88936 0.0
H413 H 0.29184 0.95104 0.87708 0.0
H414 H 0.32011 0.96004 0.9319 0.0
H415 H 0.357 0.97876 0.19858 0.0
H416 H 0.36117 0.00058 0.13355 0.0
H417 H 0.33788 0.94676 0.04673 0.0
H418 H 0.33273 0.92462 0.11231 0.0
H419 H 0.32424 0.97109 0.01803 0.0
H420 H 0.39123 0.98164 0.06085 0.0
H421 H 0.42047 0.98976 0.11229 0.0
H422 H 0.42896 0.05076 0.13556 0.0
H423 H 0.39958 0.04288 0.08469 0.0
C424 C 0.37716 0.03076 0.84792 0.0
C425 C 0.38441 0.05227 0.84996 0.0
C426 C 0.36959 0.01846 0.88644 0.0
C427 C 0.36933 0.02751 0.9277 0.0
C428 C 0.37618 0.0489 0.92976 0.0
C429 C 0.38347 0.06118 0.89103 0.0
C430 C 0.36347 0.01486 0.96919 0.0
C431 C 0.37901 0.01961 0.00143 0.0
C432 C 0.34351 0.99714 0.97501 0.0
C433 C 0.32644 0.99165 0.94216 0.0
C434 C 0.32057 0.00634 0.92994 0.0
C435 C 0.30458 0.00112 0.8987 0.0
C436 C 0.29426 0.98121 0.87963 0.0
C437 C 0.29986 0.96646 0.89185 0.0
C438 C 0.31585 0.97161 0.92304 0.0
C439 C 0.35263 0.97155 0.16565 0.0
C440 C 0.34481 0.95007 0.1603 0.0
C441 C 0.35507 0.98405 0.1285 0.0
C442 C 0.35035 0.97541 0.0851 0.0
C443 C 0.34173 0.95379 0.07988 0.0
C444 C 0.33886 0.94117 0.11728 0.0
C445 C 0.35529 0.98909 0.04515 0.0
C446 C 0.33965 0.98448 0.01304 0.0
C447 C 0.37533 0.00677 0.03889 0.0
C448 C 0.39307 0.01159 0.06934 0.0
C449 C 0.39924 0.99673 0.07719 0.0
C450 C 0.41585 0.0013 0.1062 0.0
C451 C 0.42653 0.02074 0.12728 0.0
C452 C 0.42065 0.03569 0.11927 0.0
C453 C 0.40404 0.03119 0.09033 0.0
H454 H 0.43938 0.02425 0.14974 0.0
H455 H 0.28188 0.9772 0.85546 0.0
H456 H 0.62965 0.51478 0.46749 0.0
H457 H 0.60011 0.47952 0.47875 0.0
H458 H 0.57938 0.47944 0.34306 0.0
H459 H 0.60858 0.51456 0.33166 0.0
H460 H 0.54802 0.46709 0.40306 0.0
H461 H 0.60297 0.45175 0.37083 0.0
H462 H 0.63712 0.45429 0.3827 0.0
H463 H 0.61903 0.43031 0.5167 0.0
H464 H 0.58485 0.42789 0.50582 0.0
H465 H 0.47392 0.36364 0.36047 0.0
H466 H 0.50688 0.39651 0.35824 0.0
H467 H 0.51769 0.3893 0.49795 0.0
H468 H 0.48465 0.3562 0.50056 0.0
H469 H 0.55404 0.40539 0.44436 0.0
H470 H 0.49892 0.41929 0.47644 0.0
H471 H 0.46452 0.41629 0.46542 0.0
H472 H 0.48296 0.44323 0.33377 0.0
H473 H 0.51738 0.44609 0.34374 0.0
C474 C 0.61887 0.50718 0.43999 0.0
C475 C 0.62142 0.51749 0.39873 0.0
C476 C 0.60205 0.48703 0.44643 0.0
C477 C 0.58761 0.47687 0.41167 0.0
C478 C 0.59031 0.48704 0.37036 0.0
C479 C 0.60706 0.50711 0.36389 0.0
C480 C 0.56918 0.45593 0.41841 0.0
C481 C 0.54937 0.45358 0.41167 0.0
C482 C 0.57093 0.43846 0.43117 0.0
C483 C 0.59145 0.43987 0.43769 0.0
C484 C 0.60634 0.44719 0.40296 0.0
C485 C 0.62569 0.44857 0.40948 0.0
C486 C 0.63027 0.44253 0.45048 0.0
C487 C 0.61548 0.43503 0.48499 0.0
C488 C 0.59611 0.43363 0.47866 0.0
C489 C 0.48339 0.36886 0.39063 0.0
C490 C 0.47655 0.35743 0.43085 0.0
C491 C 0.50221 0.38767 0.38928 0.0
C492 C 0.51451 0.39542 0.42812 0.0
C493 C 0.50834 0.38355 0.4677 0.0
C494 C 0.48944 0.3647 0.46912 0.0
C495 C 0.53303 0.41656 0.42777 0.0
C496 C 0.55276 0.41896 0.436 0.0
C497 C 0.53126 0.43417 0.41662 0.0
C498 C 0.51067 0.43275 0.4107 0.0
C499 C 0.49559 0.42444 0.44501 0.0
C500 C 0.47609 0.42278 0.43898 0.0
C501 C 0.47154 0.42952 0.39888 0.0
C502 C 0.48651 0.43799 0.3648 0.0
C503 C 0.50602 0.43966 0.37064 0.0
H504 H 0.45643 0.42821 0.39425 0.0
H505 H 0.64526 0.4436 0.45546 0.0
H506 H 0.11087 0.48278 0.52715 0.0
H507 H 0.11155 0.51613 0.5279 0.0
H508 H 0.11406 0.51692 0.67301 0.0
H509 H 0.11395 0.48394 0.67248 0.0
H510 H 0.08407 0.52474 0.55992 0.0
H511 H 0.1385 0.56629 0.71228 0.0
H512 H 0.16957 0.5686 0.74845 0.0
H513 H 0.18718 0.55262 0.62346 0.0
H514 H 0.15638 0.55049 0.58639 0.0
H515 H 0.06498 0.60239 0.64096 0.0
H516 H 0.07178 0.57336 0.6391 0.0
H517 H 0.13321 0.61402 0.58551 0.0
H518 H 0.12668 0.64328 0.58794 0.0
H519 H 0.13403 0.58744 0.64616 0.0
H520 H 0.0943 0.58292 0.51561 0.0
H521 H 0.06507 0.58191 0.47371 0.0
H522 H 0.02185 0.52604 0.5435 0.0
H523 H 0.05081 0.52689 0.58632 0.0
C524 C 0.11183 0.49019 0.55919 0.0
C525 C 0.11236 0.48073 0.59975 0.0
C526 C 0.11216 0.50922 0.55957 0.0
C527 C 0.11301 0.51911 0.60048 0.0
C528 C 0.11381 0.5098 0.64098 0.0
C529 C 0.11364 0.49087 0.64062 0.0
C530 C 0.11179 0.53851 0.60096 0.0
C531 C 0.09506 0.53845 0.57866 0.0
C532 C 0.12629 0.55655 0.62483 0.0
C533 C 0.14502 0.55806 0.64668 0.0
C534 C 0.14905 0.56337 0.69246 0.0
C535 C 0.16661 0.56462 0.71313 0.0
C536 C 0.18031 0.5607 0.6883 0.0
C537 C 0.17652 0.55558 0.6427 0.0
C538 C 0.159 0.55432 0.62186 0.0
C539 C 0.08002 0.60523 0.62918 0.0
C540 C 0.09521 0.62509 0.61416 0.0
C541 C 0.08385 0.5886 0.62802 0.0
C542 C 0.10286 0.59147 0.61142 0.0
C543 C 0.11841 0.61147 0.59828 0.0
C544 C 0.11462 0.62815 0.5996 0.0
C545 C 0.10609 0.5734 0.60596 0.0
C546 C 0.12314 0.57371 0.62733 0.0
C547 C 0.09217 0.55574 0.58037 0.0
C548 C 0.07471 0.55507 0.55443 0.0
C549 C 0.07855 0.5705 0.52224 0.0
C550 C 0.06203 0.56994 0.4983 0.0
C551 C 0.04161 0.55394 0.50601 0.0
C552 C 0.03767 0.53843 0.5376 0.0
C553 C 0.05414 0.53893 0.56168 0.0
H554 H 0.02884 0.55354 0.48745 0.0
H555 H 0.19388 0.56166 0.70437 0.0
H556 H 0.47267 0.11113 0.7928 0.0
H557 H 0.50787 0.11639 0.79615 0.0
H558 H 0.5155 0.12973 0.65392 0.0
H559 H 0.48007 0.12426 0.6501 0.0
H560 H 0.52737 0.102 0.67703 0.0
H561 H 0.54146 0.16863 0.7294 0.0
H562 H 0.53644 0.1934 0.7757 0.0
H563 H 0.549 0.16912 0.89539 0.0
H564 H 0.55381 0.14398 0.84987 0.0
H565 H 0.63202 0.12356 0.69116 0.0
H566 H 0.60268 0.12932 0.67776 0.0
H567 H 0.58524 0.11673 0.81762 0.0
H568 H 0.61469 0.11137 0.8315 0.0
H569 H 0.58068 0.14835 0.7877 0.0
H570 H 0.56165 0.07895 0.73684 0.0
H571 H 0.56599 0.05341 0.69171 0.0
H572 H 0.5621 0.08254 0.57007 0.0
H573 H 0.55802 0.10844 0.61455 0.0
C574 C 0.48186 0.11534 0.76224 0.0
C575 C 0.47355 0.11723 0.72115 0.0
C576 C 0.50204 0.11847 0.76428 0.0
C577 C 0.51439 0.12368 0.72538 0.0
C578 C 0.50624 0.12579 0.68435 0.0
C579 C 0.48601 0.12268 0.68227 0.0
C580 C 0.53534 0.12574 0.72741 0.0
C581 C 0.53922 0.11248 0.70051 0.0
C582 C 0.55062 0.13913 0.75867 0.0
C583 C 0.54786 0.15431 0.7862 0.0
C584 C 0.54301 0.16846 0.76561 0.0
C585 C 0.54023 0.18259 0.79172 0.0
C586 C 0.54237 0.18281 0.83846 0.0
C587 C 0.54735 0.16893 0.85918 0.0
C588 C 0.55013 0.15475 0.83323 0.0
C589 C 0.62207 0.12224 0.71917 0.0
C590 C 0.62557 0.11682 0.76233 0.0
C591 C 0.60528 0.12548 0.71142 0.0
C592 C 0.59161 0.12315 0.74656 0.0
C593 C 0.59559 0.11859 0.79 0.0
C594 C 0.6124 0.11545 0.79783 0.0
C595 C 0.5725 0.12433 0.73796 0.0
C596 C 0.56897 0.13817 0.76366 0.0
C597 C 0.55748 0.11141 0.70574 0.0
C598 C 0.55978 0.09577 0.679 0.0
C599 C 0.56188 0.08 0.70047 0.0
C600 C 0.56426 0.06545 0.67502 0.0
C601 C 0.56438 0.06639 0.62805 0.0
C602 C 0.56205 0.08185 0.60645 0.0
C603 C 0.55969 0.09646 0.63176 0.0
H604 H 0.56624 0.05512 0.6084 0.0
H605 H 0.5402 0.19376 0.85861 0.0
H606 H 0.52201 0.62411 0.85604 0.0
H607 H 0.48885 0.59161 0.84871 0.0
H608 H 0.47645 0.59412 0.98977 0.0
H609 H 0.50985 0.62638 0.99762 0.0
H610 H 0.46805 0.55636 0.96805 0.0
H611 H 0.45081 0.60547 0.90669 0.0
H612 H 0.45486 0.634 0.85733 0.0
H613 H 0.44768 0.59667 0.7408 0.0
H614 H 0.44387 0.568 0.78947 0.0
H615 H 0.36297 0.47417 0.95861 0.0
H616 H 0.3939 0.50853 0.96789 0.0
H617 H 0.40971 0.50818 0.82827 0.0
H618 H 0.37851 0.47406 0.81841 0.0
H619 H 0.41559 0.54539 0.85144 0.0
H620 H 0.4337 0.49643 0.9153 0.0
H621 H 0.42941 0.46834 0.9665 0.0
H622 H 0.43442 0.50612 0.08069 0.0
H623 H 0.43843 0.53431 0.0302 0.0
C624 C 0.51218 0.61782 0.88547 0.0
C625 C 0.51855 0.62784 0.92742 0.0
C626 C 0.49317 0.59927 0.88117 0.0
C627 C 0.48002 0.59054 0.91857 0.0
C628 C 0.48632 0.60057 0.96045 0.0
C629 C 0.5054 0.61904 0.96485 0.0
C630 C 0.46003 0.57059 0.91434 0.0
C631 C 0.45643 0.55407 0.943 0.0
C632 C 0.44503 0.56747 0.88113 0.0
C633 C 0.44724 0.58465 0.85174 0.0
C634 C 0.45025 0.6034 0.87054 0.0
C635 C 0.45247 0.61959 0.84268 0.0
C636 C 0.45158 0.61717 0.79596 0.0
C637 C 0.44839 0.59853 0.777 0.0
C638 C 0.44618 0.5823 0.80471 0.0
C639 C 0.373 0.48143 0.92983 0.0
C640 C 0.36836 0.47134 0.88781 0.0
C641 C 0.39072 0.50104 0.93525 0.0
C642 C 0.40432 0.51078 0.89896 0.0
C643 C 0.39947 0.50093 0.85676 0.0
C644 C 0.38165 0.4814 0.85121 0.0
C645 C 0.4237 0.53115 0.90494 0.0
C646 C 0.42718 0.54773 0.87659 0.0
C647 C 0.43854 0.53437 0.93865 0.0
C648 C 0.43617 0.5174 0.96895 0.0
C649 C 0.43373 0.49868 0.95133 0.0
C650 C 0.43137 0.48275 0.98022 0.0
C651 C 0.4316 0.48544 0.02681 0.0
C652 C 0.43422 0.50406 0.0446 0.0
C653 C 0.43655 0.52001 0.01587 0.0
H654 H 0.42983 0.47314 0.04917 0.0
H655 H 0.4533 0.62972 0.77445 0.0
H656 H 0.8671 0.35728 0.01084 0.0
H657 H 0.86204 0.38726 0.0201 0.0
H658 H 0.89032 0.39884 0.15164 0.0
H659 H 0.89519 0.36875 0.143 0.0
H660 H 0.85723 0.4057 0.14989 0.0
H661 H 0.91919 0.42484 0.06195 0.0
H662 H 0.93875 0.4214 0.99853 0.0
H663 H 0.90018 0.43099 0.90486 0.0
H664 H 0.8802 0.43419 0.96778 0.0
H665 H 0.89459 0.51379 0.17916 0.0
H666 H 0.88888 0.47846 0.1725 0.0
H667 H 0.86707 0.4748 0.03627 0.0
H668 H 0.8735 0.51044 0.04221 0.0
H669 H 0.89386 0.46233 0.03819 0.0
H670 H 0.83373 0.44648 0.12662 0.0
H671 H 0.81434 0.45002 0.19023 0.0
H672 H 0.8489 0.43438 0.28284 0.0
H673 H 0.8687 0.43102 0.21983 0.0
C674 C 0.87199 0.36602 0.042 0.0
C675 C 0.88179 0.36079 0.07595 0.0
C676 C 0.86911 0.38317 0.0472 0.0
C677 C 0.8761 0.39544 0.08627 0.0
C678 C 0.88486 0.38959 0.12119 0.0
C679 C 0.88771 0.37244 0.11608 0.0
C680 C 0.87574 0.41522 0.0895 0.0
C681 C 0.86531 0.41816 0.12567 0.0
C682 C 0.88595 0.43127 0.05734 0.0
C683 C 0.89807 0.42953 0.01953 0.0
C684 C 0.91479 0.42606 0.02782 0.0
C685 C 0.92596 0.42418 0.99197 0.0
C686 C 0.92067 0.42591 0.94769 0.0
C687 C 0.90424 0.42961 0.93917 0.0
C688 C 0.89299 0.43147 0.97491 0.0
C689 C 0.88832 0.50536 0.14798 0.0
C690 C 0.88454 0.5149 0.11116 0.0
C691 C 0.88495 0.4851 0.14429 0.0
C692 C 0.87731 0.47383 0.10403 0.0
C693 C 0.87298 0.48317 0.06766 0.0
C694 C 0.87664 0.50353 0.07111 0.0
C695 C 0.87531 0.45297 0.09869 0.0
C696 C 0.88545 0.44982 0.06216 0.0
C697 C 0.86479 0.43677 0.13052 0.0
C698 C 0.85281 0.43865 0.16849 0.0
C699 C 0.83729 0.44393 0.16057 0.0
C700 C 0.82621 0.44588 0.19652 0.0
C701 C 0.83041 0.44247 0.24055 0.0
C702 C 0.84567 0.43704 0.24871 0.0
C703 C 0.85681 0.43508 0.21289 0.0
H704 H 0.82182 0.444 0.26834 0.0
H705 H 0.92934 0.42445 0.91997 0.0
H706 H 0.39049 0.89738 0.35452 0.0
H707 H 0.42161 0.89418 0.34691 0.0
H708 H 0.41223 0.88691 0.20331 0.0
H709 H 0.38088 0.88979 0.21064 0.0
H710 H 0.42406 0.8603 0.23734 0.0
H711 H 0.44709 0.93348 0.24694 0.0
H712 H 0.44939 0.96498 0.28074 0.0
H713 H 0.47597 0.9556 0.40071 0.0
H714 H 0.47356 0.92386 0.36783 0.0
H715 H 0.52665 0.88673 0.17098 0.0
H716 H 0.49293 0.88455 0.18187 0.0
H717 H 0.5048 0.89418 0.3245 0.0
H718 H 0.53875 0.8968 0.31378 0.0
H719 H 0.49124 0.9187 0.29249 0.0
H720 H 0.46951 0.84607 0.28125 0.0
H721 H 0.46724 0.8147 0.2468 0.0
H722 H 0.43843 0.82308 0.12941 0.0
H723 H 0.44079 0.85468 0.1629 0.0
C724 C 0.39495 0.89497 0.32133 0.0
C725 C 0.3833 0.89402 0.28313 0.0
C726 C 0.41277 0.89319 0.31704 0.0
C727 C 0.41938 0.89061 0.27447 0.0
C728 C 0.40741 0.88894 0.23646 0.0
C729 C 0.38954 0.89067 0.24071 0.0
C730 C 0.43918 0.89041 0.26943 0.0
C731 C 0.4388 0.87314 0.24896 0.0
C732 C 0.45832 0.90701 0.28541 0.0
C733 C 0.45995 0.92618 0.3051 0.0
C734 C 0.45329 0.93805 0.28066 0.0
C735 C 0.45463 0.95596 0.29963 0.0
C736 C 0.46277 0.96226 0.3429 0.0
C737 C 0.46964 0.95069 0.36722 0.0
C738 C 0.4683 0.93275 0.34843 0.0
C739 C 0.52203 0.88823 0.20472 0.0
C740 C 0.53539 0.89196 0.24152 0.0
C741 C 0.50269 0.88688 0.21092 0.0
C742 C 0.49625 0.889 0.25407 0.0
C743 C 0.50946 0.89249 0.29092 0.0
C744 C 0.52883 0.89393 0.28473 0.0
C745 C 0.47617 0.88854 0.26051 0.0
C746 C 0.47651 0.90576 0.28112 0.0
C747 C 0.45703 0.87191 0.24457 0.0
C748 C 0.4555 0.85285 0.22444 0.0
C749 C 0.46283 0.84131 0.24795 0.0
C750 C 0.4615 0.82348 0.22862 0.0
C751 C 0.45274 0.81693 0.1859 0.0
C752 C 0.44523 0.82818 0.16248 0.0
C753 C 0.44654 0.84604 0.18164 0.0
H754 H 0.45173 0.80312 0.17099 0.0
H755 H 0.46379 0.97612 0.35753 0.0
H756 H 0.31418 0.37527 0.79014 0.0
H757 H 0.322 0.35919 0.72709 0.0
H758 H 0.38119 0.37528 0.78728 0.0
H759 H 0.37359 0.39163 0.85052 0.0
H760 H 0.38489 0.38515 0.69828 0.0
H761 H 0.34174 0.32554 0.78957 0.0
H762 H 0.31057 0.30195 0.83381 0.0
H763 H 0.27216 0.2892 0.71655 0.0
H764 H 0.30307 0.31295 0.67173 0.0
H765 H 0.40876 0.32676 0.54716 0.0
H766 H 0.40049 0.33861 0.61674 0.0
H767 H 0.34001 0.32242 0.56363 0.0
H768 H 0.34801 0.31012 0.49407 0.0
H769 H 0.33758 0.31193 0.65121 0.0
H770 H 0.37991 0.37246 0.56085 0.0
H771 H 0.41074 0.39604 0.51566 0.0
H772 H 0.45027 0.40736 0.63038 0.0
H773 H 0.41968 0.3836 0.6761 0.0
C774 C 0.32884 0.37533 0.79015 0.0
C775 C 0.34326 0.3847 0.8254 0.0
C776 C 0.33323 0.36604 0.75415 0.0
C777 C 0.35207 0.36585 0.75278 0.0
C778 C 0.36653 0.37522 0.78783 0.0
C779 C 0.36214 0.3845 0.82395 0.0
C780 C 0.35688 0.3564 0.71401 0.0
C781 C 0.37474 0.36904 0.68842 0.0
C782 C 0.34332 0.33554 0.70055 0.0
C783 C 0.32471 0.32117 0.72739 0.0
C784 C 0.32663 0.31784 0.77329 0.0
C785 C 0.30901 0.30441 0.79846 0.0
C786 C 0.28939 0.29412 0.77803 0.0
C787 C 0.28736 0.29719 0.73235 0.0
C788 C 0.30493 0.31062 0.70703 0.0
C789 C 0.39365 0.32563 0.55033 0.0
C790 C 0.37911 0.31775 0.51493 0.0
C791 C 0.38897 0.33243 0.5901 0.0
C792 C 0.3698 0.33175 0.59498 0.0
C793 C 0.35494 0.32315 0.56042 0.0
C794 C 0.35955 0.31618 0.52069 0.0
C795 C 0.36556 0.3407 0.63547 0.0
C796 C 0.34779 0.328 0.66127 0.0
C797 C 0.37914 0.36155 0.64903 0.0
C798 C 0.39752 0.37609 0.62177 0.0
C799 C 0.39519 0.37988 0.57636 0.0
C800 C 0.41262 0.39328 0.55066 0.0
C801 C 0.43246 0.40315 0.5701 0.0
C802 C 0.43489 0.39968 0.61534 0.0
C803 C 0.41752 0.38626 0.64118 0.0
H804 H 0.44593 0.41351 0.55014 0.0
H805 H 0.27577 0.28373 0.79757 0.0
H806 H 0.95083 0.36303 0.98065 0.0
H807 H 0.97294 0.37715 0.91426 0.0
H808 H 0.99349 0.33233 0.92957 0.0
H809 H 0.9715 0.31814 0.99638 0.0
H810 H 0.02563 0.3718 0.90574 0.0
H811 H 0.95622 0.32239 0.85699 0.0
H812 H 0.91805 0.30712 0.85404 0.0
H813 H 0.92572 0.36414 0.79911 0.0
H814 H 0.96396 0.37988 0.80247 0.0
H815 H 0.06512 0.38016 0.68479 0.0
H816 H 0.04513 0.36653 0.75414 0.0
H817 H 0.01923 0.40691 0.73714 0.0
H818 H 0.0388 0.42029 0.66723 0.0
H819 H 0.98994 0.36908 0.76241 0.0
H820 H 0.05934 0.41868 0.81105 0.0
H821 H 0.09755 0.43426 0.81507 0.0
H822 H 0.09012 0.37743 0.87052 0.0
H823 H 0.05186 0.36138 0.86615 0.0
C824 C 0.96021 0.3563 0.97026 0.0
C825 C 0.95926 0.33932 0.99353 0.0
C826 C 0.97279 0.36436 0.93225 0.0
C827 C 0.98458 0.35557 0.91674 0.0
C828 C 0.98444 0.33927 0.94102 0.0
C829 C 0.97182 0.33115 0.97906 0.0
C830 C 0.99619 0.3627 0.87391 0.0
C831 C 0.01785 0.371 0.87425 0.0
C832 C 0.98597 0.36192 0.83311 0.0
C833 C 0.96297 0.35238 0.83037 0.0
C834 C 0.94977 0.33172 0.84458 0.0
C835 C 0.92812 0.32298 0.8428 0.0
C836 C 0.91946 0.33467 0.82649 0.0
C837 C 0.93245 0.35511 0.81179 0.0
C838 C 0.95411 0.36395 0.81359 0.0
C839 C 0.05511 0.38609 0.69572 0.0
C840 C 0.0536 0.40137 0.67063 0.0
C841 C 0.04378 0.37835 0.73547 0.0
C842 C 0.03096 0.38596 0.75115 0.0
C843 C 0.02909 0.40088 0.72568 0.0
C844 C 0.0403 0.40852 0.68577 0.0
C845 C 0.01949 0.37839 0.79414 0.0
C846 C 0.99779 0.36993 0.79383 0.0
C847 C 0.0297 0.37908 0.83494 0.0
C848 C 0.05272 0.38876 0.83789 0.0
C849 C 0.06585 0.40945 0.82379 0.0
C850 C 0.08752 0.41837 0.82617 0.0
C851 C 0.09625 0.40683 0.84297 0.0
C852 C 0.08333 0.38635 0.85747 0.0
C853 C 0.06166 0.37733 0.85508 0.0
H854 H 0.11302 0.41377 0.84488 0.0
H855 H 0.9027 0.32788 0.82515 0.0
H856 H 0.63232 0.93964 0.13282 0.0
H857 H 0.64295 0.96012 0.06345 0.0
H858 H 0.60596 0.98804 0.09975 0.0
H859 H 0.5953 0.96769 0.16935 0.0
H860 H 0.59997 0.9734 0.01058 0.0
H861 H 0.6565 0.01573 0.11177 0.0
H862 H 0.68466 0.02261 0.16533 0.0
H863 H 0.71549 0.00625 0.0644 0.0
H864 H 0.68733 0.99898 0.0104 0.0
H865 H 0.63853 0.05924 0.86267 0.0
H866 H 0.6277 0.03583 0.92724 0.0
H867 H 0.67109 0.01568 0.88928 0.0
H868 H 0.68229 0.03936 0.82478 0.0
H869 H 0.67397 0.02454 0.97704 0.0
H870 H 0.61905 0.98372 0.8745 0.0
H871 H 0.59104 0.97618 0.82003 0.0
H872 H 0.55719 0.98837 0.92142 0.0
H873 H 0.58516 0.99629 0.97637 0.0
C874 C 0.62651 0.9502 0.12615 0.0
C875 C 0.61301 0.9521 0.1566 0.0
C876 C 0.63262 0.96189 0.08656 0.0
C877 C 0.62528 0.97561 0.07668 0.0
C878 C 0.61176 0.9775 0.10687 0.0
C879 C 0.60578 0.96595 0.14667 0.0
C880 C 0.63159 0.98791 0.03465 0.0
C881 C 0.61611 0.98477 0.00337 0.0
C882 C 0.65273 0.00219 0.02482 0.0
C883 C 0.66969 0.00659 0.05721 0.0
C884 C 0.66918 0.01341 0.10112 0.0
C885 C 0.68517 0.01742 0.13153 0.0
C886 C 0.70183 0.01481 0.11832 0.0
C887 C 0.70256 0.00823 0.07461 0.0
C888 C 0.6866 0.00418 0.04409 0.0
C889 C 0.64568 0.04972 0.8678 0.0
C890 C 0.66128 0.05116 0.83861 0.0
C891 C 0.6394 0.03628 0.90465 0.0
C892 C 0.64845 0.02387 0.91281 0.0
C893 C 0.6639 0.02512 0.88353 0.0
C894 C 0.67023 0.03861 0.84665 0.0
C895 C 0.64231 0.01024 0.95299 0.0
C896 C 0.65783 0.0131 0.98397 0.0
C897 C 0.62121 0.99557 0.96237 0.0
C898 C 0.60431 0.99078 0.92946 0.0
C899 C 0.60572 0.98496 0.8851 0.0
C900 C 0.58983 0.98059 0.85415 0.0
C901 C 0.57237 0.98184 0.86723 0.0
C902 C 0.57074 0.98742 0.91133 0.0
C903 C 0.5866 0.99184 0.94241 0.0
H904 H 0.56008 0.97844 0.84321 0.0
H905 H 0.71419 0.01793 0.14191 0.0
H906 H 0.59779 0.62532 0.97573 0.0
H907 H 0.61189 0.61794 0.04318 0.0
H908 H 0.62543 0.67699 0.10012 0.0
H909 H 0.61149 0.68458 0.0328 0.0
H910 H 0.65758 0.66892 0.11219 0.0
H911 H 0.5834 0.63391 0.13439 0.0
H912 H 0.54662 0.61032 0.11396 0.0
H913 H 0.55766 0.5587 0.10864 0.0
H914 H 0.5946 0.58205 0.12839 0.0
H915 H 0.67333 0.6469 0.3378 0.0
H916 H 0.66111 0.65652 0.27034 0.0
H917 H 0.64142 0.59589 0.21313 0.0
H918 H 0.65304 0.586 0.28067 0.0
H919 H 0.61228 0.60568 0.20196 0.0
H920 H 0.68645 0.64041 0.17824 0.0
H921 H 0.7234 0.66383 0.19764 0.0
H922 H 0.71271 0.71564 0.20502 0.0
H923 H 0.67562 0.69246 0.18621 0.0
C924 C 0.60384 0.63678 0.00251 0.0
C925 C 0.60341 0.65547 -0.00096 0.0
C926 C 0.61184 0.63251 0.04104 0.0
C927 C 0.61948 0.64684 0.07674 0.0
C928 C 0.61957 0.66573 0.07292 0.0
C929 C 0.61153 0.66999 0.03448 0.0
C930 C 0.62699 0.64192 0.11851 0.0
C931 C 0.64764 0.65524 0.13219 0.0
C932 C 0.61407 0.62387 0.14402 0.0
C933 C 0.59182 0.60977 0.13244 0.0
C934 C 0.57802 0.61756 0.12852 0.0
C935 C 0.55714 0.60423 0.11712 0.0
C936 C 0.54982 0.58303 0.10989 0.0
C937 C 0.56336 0.57512 0.11418 0.0
C938 C 0.58427 0.5884 0.12552 0.0
C939 C 0.66646 0.63567 0.31076 0.0
C940 C 0.66415 0.61571 0.31453 0.0
C941 C 0.65956 0.6412 0.27217 0.0
C942 C 0.65055 0.62698 0.2365 0.0
C943 C 0.6483 0.60709 0.24026 0.0
C944 C 0.65499 0.60149 0.27888 0.0
C945 C 0.64301 0.63254 0.19552 0.0
C946 C 0.62228 0.61937 0.18204 0.0
C947 C 0.6559 0.65068 0.17014 0.0
C948 C 0.67822 0.66466 0.18126 0.0
C949 C 0.69195 0.65677 0.18433 0.0
C950 C 0.71292 0.67001 0.19516 0.0
C951 C 0.72039 0.6912 0.20268 0.0
C952 C 0.7069 0.69922 0.19925 0.0
C953 C 0.68591 0.68604 0.18846 0.0
H954 H 0.73663 0.70143 0.21106 0.0
H955 H 0.53364 0.57274 0.10107 0.0
H956 H 0.05189 0.64109 0.48142 0.0
H957 H 0.03145 0.62807 0.41265 0.0
H958 H 0.02376 0.68204 0.40797 0.0
H959 H 0.0443 0.69531 0.47717 0.0
H960 H 0.98714 0.64416 0.38723 0.0
H961 H 0.05871 0.68235 0.34341 0.0
H962 H 0.09583 0.69238 0.34677 0.0
H963 H 0.08028 0.63032 0.30871 0.0
H964 H 0.04299 0.6198 0.30596 0.0
H965 H 0.9503 0.62538 0.1643 0.0
H966 H 0.97295 0.64334 0.22811 0.0
H967 H 0.98737 0.59391 0.24127 0.0
H968 H 0.96497 0.57594 0.17672 0.0
H969 H 0.02153 0.63238 0.25603 0.0
H970 H 0.94973 0.59385 0.30479 0.0
H971 H 0.91262 0.58393 0.30137 0.0
H972 H 0.92878 0.64708 0.32999 0.0
H973 H 0.96604 0.65746 0.33285 0.0
C974 C 0.04571 0.65015 0.46611 0.0
C975 C 0.04986 0.66934 0.48452 0.0
C976 C 0.03409 0.6427 0.42674 0.0
C977 C 0.02642 0.65428 0.40504 0.0
C978 C 0.02968 0.67297 0.42427 0.0
C979 C 0.04143 0.68052 0.46369 0.0
C980 C 0.01563 0.64707 0.3614 0.0
C981 C 0.99472 0.6419 0.35827 0.0
C982 C 0.02555 0.64389 0.324 0.0
C983 C 0.04802 0.65024 0.32485 0.0
C984 C 0.06318 0.67079 0.33607 0.0
C985 C 0.08426 0.67657 0.33784 0.0
C986 C 0.09041 0.66198 0.32804 0.0
C987 C 0.07549 0.6416 0.31633 0.0
C988 C 0.05438 0.63572 0.31464 0.0
C989 C 0.95847 0.61842 0.1804 0.0
C990 C 0.95565 0.5991 0.16589 0.0
C991 C 0.97138 0.6287 0.21689 0.0
C992 C 0.98148 0.61973 0.23986 0.0
C993 C 0.97961 0.60101 0.22402 0.0
C994 C 0.96678 0.59075 0.18725 0.0
C995 C 0.99293 0.6292 0.282 0.0
C996 C 0.01399 0.63479 0.28485 0.0
C997 C 0.98314 0.6328 0.31913 0.0
C998 C 0.96069 0.62647 0.31861 0.0
C999 C 0.94538 0.60564 0.31012 0.0
C1000 C 0.92432 0.59994 0.30828 0.0
C1001 C 0.91835 0.61487 0.31533 0.0
C1002 C 0.93343 0.63553 0.32446 0.0
C1003 C 0.95452 0.64133 0.32623 0.0
H1004 H 0.90204 0.61043 0.31379 0.0
H1005 H 0.10673 0.66649 0.32944 0.0
H1006 H 0.31136 0.95819 0.32504 0.0
H1007 H 0.3193 0.9829 0.38687 0.0
H1008 H 0.35469 0.95872 0.45294 0.0
H1009 H 0.34746 0.93459 0.3906 0.0
H1010 H 0.31144 0.97981 0.47263 0.0
H1011 H 0.39567 0.99618 0.50696 0.0
H1012 H 0.42491 0.99727 0.46482 0.0
H1013 H 0.40243 0.01011 0.3427 0.0
H1014 H 0.37324 0.00939 0.38419 0.0
H1015 H 0.34622 0.02733 0.68598 0.0
H1016 H 0.33569 0.00532 0.61881 0.0
H1017 H 0.38303 0.05653 0.5416 0.0
H1018 H 0.39429 0.07816 0.60923 0.0
H1019 H 0.38479 0.02458 0.52172 0.0
H1020 H 0.32848 0.03818 0.53118 0.0
H1021 H 0.29951 0.04032 0.56672 0.0
H1022 H 0.26693 0.97423 0.58942 0.0
H1023 H 0.29583 0.97173 0.55453 0.0
C1024 C 0.32082 0.95816 0.3528 0.0
C1025 C 0.32899 0.94464 0.35282 0.0
C1026 C 0.32529 0.97223 0.38813 0.0
C1027 C 0.33787 0.9729 0.42415 0.0
C1028 C 0.34538 0.95885 0.42496 0.0
C1029 C 0.34118 0.94502 0.38939 0.0
C1030 C 0.34346 0.98847 0.46063 0.0
C1031 C 0.32748 0.98967 0.48334 0.0
C1032 C 0.36443 0.00172 0.47378 0.0
C1033 C 0.38216 0.00254 0.44866 0.0
C1034 C 0.39703 -0.00066 0.47116 0.0
C1035 C 0.41358 -0.00013 0.44737 0.0
C1036 C 0.41549 0.0037 0.40109 0.0
C1037 C 0.4009 0.00708 0.37852 0.0
C1038 C 0.38433 0.00659 0.40215 0.0
C1039 C 0.35422 0.03391 0.65454 0.0
C1040 C 0.37108 0.0544 0.65272 0.0
C1041 C 0.34813 0.02136 0.61608 0.0
C1042 C 0.35839 0.02931 0.57488 0.0
C1043 C 0.37491 0.04999 0.57296 0.0
C1044 C 0.38131 0.06236 0.61157 0.0
C1045 C 0.35274 0.01578 0.53441 0.0
C1046 C 0.36874 0.01489 0.51095 0.0
C1047 C 0.33185 0.00338 0.51964 0.0
C1048 C 0.31441 0.0048 0.54056 0.0
C1049 C 0.3152 0.02413 0.54403 0.0
C1050 C 0.29878 0.0254 0.56401 0.0
C1051 C 0.28141 0.00743 0.5804 0.0
C1052 C 0.2804 0.98814 0.57674 0.0
C1053 C 0.29679 0.98678 0.55681 0.0
H1054 H 0.26872 0.00845 0.59587 0.0
H1055 H 0.4283 0.00407 0.38273 0.0
H1056 H 0.3907 0.24535 0.44178 0.0
H1057 H 0.39017 0.22126 0.49852 0.0
H1058 H 0.45719 0.25076 0.49157 0.0
H1059 H 0.45786 0.27463 0.4341 0.0
H1060 H 0.43976 0.20949 0.50707 0.0
H1061 H 0.43497 0.26681 0.56806 0.0
H1062 H 0.42032 0.29015 0.57475 0.0
H1063 H 0.36146 0.23852 0.61559 0.0
H1064 H 0.37566 0.21478 0.60834 0.0
H1065 H 0.4569 0.18056 0.72031 0.0
H1066 H 0.4569 0.20477 0.66453 0.0
H1067 H 0.38979 0.16903 0.65782 0.0
H1068 H 0.38959 0.1446 0.71342 0.0
H1069 H 0.40773 0.21397 0.65047 0.0
H1070 H 0.41369 0.15679 0.58709 0.0
H1071 H 0.42976 0.13465 0.58189 0.0
H1072 H 0.48853 0.18814 0.54758 0.0
H1073 H 0.47287 0.21066 0.55339 0.0
C1074 C 0.40528 0.24636 0.45143 0.0
C1075 C 0.42436 0.26213 0.43407 0.0
C1076 C 0.40496 0.23266 0.48402 0.0
C1077 C 0.42369 0.23468 0.50015 0.0
C1078 C 0.44258 0.2491 0.47987 0.0
C1079 C 0.44291 0.26272 0.44696 0.0
C1080 C 0.42376 0.22319 0.54081 0.0
C1081 C 0.43294 0.21063 0.53849 0.0
C1082 C 0.41479 0.22467 0.58182 0.0
C1083 C 0.40632 0.23898 0.58724 0.0
C1084 C 0.41887 0.26041 0.57822 0.0
C1085 C 0.41064 0.27371 0.5821 0.0
C1086 C 0.38995 0.26582 0.59548 0.0
C1087 C 0.37747 0.24461 0.60517 0.0
C1088 C 0.3856 0.23122 0.60119 0.0
C1089 C 0.44209 0.17816 0.70801 0.0
C1090 C 0.42325 0.16049 0.72073 0.0
C1091 C 0.44214 0.19198 0.67604 0.0
C1092 C 0.42337 0.18842 0.65667 0.0
C1093 C 0.40443 0.17193 0.67234 0.0
C1094 C 0.40436 0.15798 0.704 0.0
C1095 C 0.42361 0.20026 0.6165 0.0
C1096 C 0.41453 0.21288 0.61898 0.0
C1097 C 0.43287 0.19904 0.57579 0.0
C1098 C 0.44216 0.18543 0.57111 0.0
C1099 C 0.43007 0.16385 0.57872 0.0
C1100 C 0.4391 0.15123 0.57565 0.0
C1101 C 0.46017 0.15999 0.56453 0.0
C1102 C 0.47222 0.18138 0.55626 0.0
C1103 C 0.46328 0.19408 0.55942 0.0
H1104 H 0.46715 0.1502 0.56222 0.0
H1105 H 0.38361 0.27614 0.59841 0.0
H1106 H 0.2548 0.39379 0.85267 0.0
H1107 H 0.22953 0.39486 0.80168 0.0
H1108 H 0.25713 0.46095 0.82463 0.0
H1109 H 0.28244 0.46004 0.87614 0.0
H1110 H 0.21402 0.44087 0.81872 0.0
H1111 H 0.27148 0.4447 0.73491 0.0
H1112 H 0.29605 0.43303 0.71232 0.0
H1113 H 0.24503 0.37486 0.66615 0.0
H1114 H 0.22011 0.38607 0.68911 0.0
H1115 H 0.17855 0.46741 0.62265 0.0
H1116 H 0.20285 0.4655 0.67547 0.0
H1117 H 0.17132 0.39873 0.65932 0.0
H1118 H 0.14672 0.40042 0.60682 0.0
H1119 H 0.21605 0.41887 0.66176 0.0
H1120 H 0.15862 0.41475 0.74467 0.0
H1121 H 0.13369 0.42596 0.76717 0.0
H1122 H 0.18414 0.48408 0.81518 0.0
H1123 H 0.20944 0.47338 0.79209 0.0
C1124 C 0.25532 0.40851 0.84749 0.0
C1125 C 0.27081 0.42689 0.86801 0.0
C1126 C 0.2409 0.40909 0.81822 0.0
C1127 C 0.24176 0.42806 0.80876 0.0
C1128 C 0.25632 0.44619 0.83135 0.0
C1129 C 0.27077 0.44563 0.86071 0.0
C1130 C 0.2284 0.42918 0.77313 0.0
C1131 C 0.21463 0.43631 0.7843 0.0
C1132 C 0.22896 0.42283 0.72843 0.0
C1133 C 0.24392 0.41615 0.71413 0.0
C1134 C 0.26549 0.42936 0.72024 0.0
C1135 C 0.27948 0.42284 0.70733 0.0
C1136 C 0.2721 0.4032 0.68792 0.0
C1137 C 0.25072 0.39006 0.68125 0.0
C1138 C 0.23666 0.3965 0.69417 0.0
C1139 C 0.17701 0.45235 0.62961 0.0
C1140 C 0.16064 0.43404 0.61083 0.0
C1141 C 0.19083 0.4513 0.65998 0.0
C1142 C 0.18864 0.43196 0.6716 0.0
C1143 C 0.17316 0.41378 0.6508 0.0
C1144 C 0.15914 0.41478 0.6209 0.0
C1145 C 0.20176 0.43061 0.70736 0.0
C1146 C 0.21546 0.42344 0.69619 0.0
C1147 C 0.20111 0.43688 0.75204 0.0
C1148 C 0.18595 0.44336 0.76616 0.0
C1149 C 0.16443 0.43001 0.7596 0.0
C1150 C 0.15022 0.43625 0.77255 0.0
C1151 C 0.15733 0.45573 0.79253 0.0
C1152 C 0.17866 0.46901 0.79964 0.0
C1153 C 0.19294 0.46286 0.78663 0.0
H1154 H 0.1463 0.46052 0.80259 0.0
H1155 H 0.28296 0.39817 0.67795 0.0
H1156 H 0.88011 0.2831 0.92722 0.0
H1157 H 0.85053 0.2537 0.89067 0.0
H1158 H 0.82229 0.22995 0.02017 0.0
H1159 H 0.85204 0.25927 0.05725 0.0
H1160 H 0.8181 0.19887 0.96427 0.0
H1161 H 0.80645 0.25705 0.95712 0.0
H1162 H 0.81545 0.29313 0.93966 0.0
H1163 H 0.82117 0.28259 0.79962 0.0
H1164 H 0.8125 0.2465 0.81635 0.0
H1165 H 0.71288 0.13474 0.89949 0.0
H1166 H 0.74561 0.16175 0.9317 0.0
H1167 H 0.77079 0.18178 0.79842 0.0
H1168 H 0.7379 0.15474 0.76567 0.0
H1169 H 0.77764 0.21439 0.85324 0.0
H1170 H 0.78705 0.15509 0.86079 0.0
H1171 H 0.77749 0.11895 0.87936 0.0
H1172 H 0.77527 0.13145 0.01974 0.0
H1173 H 0.78453 0.1676 0.00196 0.0
C1174 C 0.86769 0.27157 0.94805 0.0
C1175 C 0.86832 0.27361 0.99515 0.0
C1176 C 0.85078 0.2548 0.92704 0.0
C1177 C 0.83409 0.23985 0.95268 0.0
C1178 C 0.83501 0.24139 -0.0002 0.0
C1179 C 0.85198 0.25816 0.0209 0.0
C1180 C 0.81536 0.22304 0.93021 0.0
C1181 C 0.80912 0.20224 0.94034 0.0
C1182 C 0.80394 0.22749 0.89825 0.0
C1183 C 0.80905 0.24914 0.88806 0.0
C1184 C 0.80979 0.26247 0.92265 0.0
C1185 C 0.81481 0.28292 0.91288 0.0
C1186 C 0.81894 0.29017 0.86858 0.0
C1187 C 0.818 0.27696 0.83393 0.0
C1188 C 0.81303 0.25651 0.84353 0.0
C1189 C 0.72537 0.14483 0.87692 0.0
C1190 C 0.7228 0.1426 0.82999 0.0
C1191 C 0.74411 0.16019 0.89544 0.0
C1192 C 0.76068 0.17359 0.86744 0.0
C1193 C 0.75818 0.17151 0.82056 0.0
C1194 C 0.73942 0.15605 0.80195 0.0
C1195 C 0.78032 0.1902 0.88738 0.0
C1196 C 0.78671 0.211 0.87687 0.0
C1197 C 0.7918 0.18573 0.91912 0.0
C1198 C 0.78631 0.16401 0.92998 0.0
C1199 C 0.78436 0.15009 0.89559 0.0
C1200 C 0.77903 0.12961 0.90598 0.0
C1201 C 0.77573 0.12289 0.95069 0.0
C1202 C 0.77781 0.13667 0.98512 0.0
C1203 C 0.78313 0.15716 0.9749 0.0
H1204 H 0.7716 0.10703 0.95867 0.0
H1205 H 0.82282 0.306 0.86108 0.0
H1206 H 0.61179 0.85825 0.19818 0.0
H1207 H 0.60666 0.83126 0.14413 0.0
H1208 H 0.54137 0.79642 0.17845 0.0
H1209 H 0.54641 0.82319 0.23326 0.0
H1210 H 0.55708 0.77085 0.16342 0.0
H1211 H 0.55676 0.82773 0.08803 0.0
H1212 H 0.57036 0.86458 0.06786 0.0
H1213 H 0.62499 0.86749 0.01062 0.0
H1214 H 0.61186 0.83072 0.03111 0.0
H1215 H 0.52779 0.70843 0.96731 0.0
H1216 H 0.52978 0.73476 0.01994 0.0
H1217 H 0.59626 0.7711 -0.00052 0.0
H1218 H 0.59445 0.74494 0.94675 0.0
H1219 H 0.57761 0.7955 0.00639 0.0
H1220 H 0.57825 0.73886 0.08592 0.0
H1221 H 0.56427 0.70195 0.10619 0.0
H1222 H 0.50808 0.69856 0.15502 0.0
H1223 H 0.52162 0.7354 0.1344 0.0
C1224 C 0.5964 0.84467 0.19485 0.0
C1225 C 0.57944 0.84299 0.21958 0.0
C1226 C 0.59348 0.82932 0.16378 0.0
C1227 C 0.57353 0.81214 0.15651 0.0
C1228 C 0.55685 0.80967 0.18332 0.0
C1229 C 0.55978 0.82498 0.21466 0.0
C1230 C 0.56992 0.79744 0.11923 0.0
C1231 C 0.56128 0.77618 0.129 0.0
C1232 C 0.57558 0.80447 0.07437 0.0
C1233 C 0.58341 0.82652 0.06147 0.0
C1234 C 0.57174 0.83626 0.07141 0.0
C1235 C 0.57935 0.85714 0.05989 0.0
C1236 C 0.59855 0.86839 0.03806 0.0
C1237 C 0.61014 0.85876 0.02758 0.0
C1238 C 0.60261 0.8379 0.03911 0.0
C1239 C 0.54278 0.72223 0.97326 0.0
C1240 C 0.56101 0.72449 0.95328 0.0
C1241 C 0.54388 0.73719 0.0035 0.0
C1242 C 0.56321 0.75464 0.01411 0.0
C1243 C 0.58121 0.75766 0.99187 0.0
C1244 C 0.58014 0.74268 0.96182 0.0
C1245 C 0.56501 0.76899 0.05071 0.0
C1246 C 0.57328 0.79017 0.04078 0.0
C1247 C 0.55891 0.76188 0.09535 0.0
C1248 C 0.55085 0.73981 0.10817 0.0
C1249 C 0.56285 0.7302 0.10067 0.0
C1250 C 0.55502 0.7093 0.11226 0.0
C1251 C 0.53527 0.6979 0.13177 0.0
C1252 C 0.52335 0.7074 0.13984 0.0
C1253 C 0.5311 0.72829 0.12822 0.0
H1254 H 0.52923 0.68172 0.14072 0.0
H1255 H 0.60442 0.88455 0.02919 0.0
H1256 H 0.7064 0.56508 0.27439 0.0
H1257 H 0.73772 0.56836 0.24025 0.0
H1258 H 0.77074 0.59108 0.36582 0.0
H1259 H 0.73932 0.58829 0.40031 0.0
H1260 H 0.79424 0.61371 0.29616 0.0
H1261 H 0.75433 0.54134 0.33127 0.0
H1262 H 0.72318 0.50628 0.3336 0.0
H1263 H 0.7221 0.50367 0.18923 0.0
H1264 H 0.75308 0.53885 0.186 0.0
H1265 H 0.87787 0.59768 0.22965 0.0
H1266 H 0.84844 0.59735 0.26722 0.0
H1267 H 0.81332 0.57831 0.14345 0.0
H1268 H 0.84276 0.57847 0.10543 0.0
H1269 H 0.79164 0.55375 0.21557 0.0
H1270 H 0.83196 0.62706 0.18211 0.0
H1271 H 0.86362 0.66177 0.18186 0.0
H1272 H 0.86465 0.66191 0.32632 0.0
H1273 H 0.83313 0.62706 0.32743 0.0
C1274 C 0.72026 0.57071 0.29497 0.0
C1275 C 0.72034 0.57631 0.3402 0.0
C1276 C 0.73816 0.5725 0.27536 0.0
C1277 C 0.75646 0.57963 0.30067 0.0
C1278 C 0.75672 0.58546 0.34577 0.0
C1279 C 0.73877 0.58379 0.36544 0.0
C1280 C 0.77528 0.58116 0.27946 0.0
C1281 C 0.79379 0.60052 0.27917 0.0
C1282 C 0.77455 0.56403 0.25662 0.0
C1283 C 0.75594 0.54282 0.2584 0.0
C1284 C 0.74736 0.53336 0.3 0.0
C1285 C 0.72975 0.51345 0.30149 0.0
C1286 C 0.72064 0.50278 0.26158 0.0
C1287 C 0.72916 0.51196 0.22011 0.0
C1288 C 0.74676 0.53188 0.21843 0.0
C1289 C 0.86397 0.5936 0.21021 0.0
C1290 C 0.8626 0.58802 0.16456 0.0
C1291 C 0.8472 0.59352 0.23175 0.0
C1292 C 0.82877 0.5879 0.20805 0.0
C1293 C 0.82746 0.58271 0.16226 0.0
C1294 C 0.84429 0.58288 0.14057 0.0
C1295 C 0.81047 0.58634 0.23173 0.0
C1296 C 0.79208 0.56692 0.23262 0.0
C1297 C 0.8114 0.60335 0.25544 0.0
C1298 C 0.83029 0.62436 0.25483 0.0
C1299 C 0.83903 0.63441 0.21382 0.0
C1300 C 0.85693 0.65413 0.21353 0.0
C1301 C 0.86617 0.66401 0.25405 0.0
C1302 C 0.85749 0.65422 0.29496 0.0
C1303 C 0.83959 0.6345 0.29544 0.0
H1304 H 0.88003 0.67927 0.25375 0.0
H1305 H 0.707 0.48736 0.2628 0.0
H1306 H 0.1513 0.74271 0.54636 0.0
H1307 H 0.17859 0.7709 0.50199 0.0
H1308 H 0.15658 0.73264 0.38267 0.0
H1309 H 0.1296 0.7042 0.42702 0.0
H1310 H 0.1971 0.75054 0.38704 0.0
H1311 H 0.14843 0.77412 0.39802 0.0
H1312 H 0.12396 0.78295 0.43458 0.0
H1313 H 0.174 0.83014 0.5131 0.0
H1314 H 0.19874 0.82139 0.47749 0.0
H1315 H 0.26961 0.84076 0.25765 0.0
H1316 H 0.23617 0.81181 0.28413 0.0
H1317 H 0.2527 0.83378 0.42063 0.0
H1318 H 0.28599 0.86239 0.39481 0.0
H1319 H 0.21156 0.82349 0.39528 0.0
H1320 H 0.2586 0.79528 0.38887 0.0
H1321 H 0.28234 0.78614 0.34985 0.0
H1322 H 0.23347 0.74737 0.25771 0.0
H1323 H 0.20952 0.75653 0.29588 0.0
C1324 C 0.15222 0.74034 0.51065 0.0
C1325 C 0.13836 0.72123 0.49023 0.0
C1326 C 0.16773 0.75651 0.48525 0.0
C1327 C 0.16945 0.75397 0.43886 0.0
C1328 C 0.15553 0.73494 0.41837 0.0
C1329 C 0.14013 0.71872 0.44381 0.0
C1330 C 0.1864 0.77089 0.41233 0.0
C1331 C 0.19998 0.76641 0.38808 0.0
C1332 C 0.19023 0.79161 0.41375 0.0
C1333 C 0.17542 0.79699 0.43528 0.0
C1334 C 0.1542 0.78628 0.42332 0.0
C1335 C 0.14028 0.79128 0.44385 0.0
C1336 C 0.14741 0.80707 0.4762 0.0
C1337 C 0.1685 0.81791 0.48804 0.0
C1338 C 0.18248 0.81295 0.46765 0.0
C1339 C 0.26606 0.83939 0.29326 0.0
C1340 C 0.28044 0.85375 0.32419 0.0
C1341 C 0.24701 0.82289 0.30828 0.0
C1342 C 0.24206 0.82075 0.35428 0.0
C1343 C 0.25625 0.83526 0.38498 0.0
C1344 C 0.27531 0.85151 0.37016 0.0
C1345 C 0.2224 0.80314 0.37129 0.0
C1346 C 0.20835 0.80752 0.39366 0.0
C1347 C 0.21798 0.78231 0.36766 0.0
C1348 C 0.23237 0.7768 0.34483 0.0
C1349 C 0.25299 0.78497 0.36003 0.0
C1350 C 0.26646 0.77975 0.33813 0.0
C1351 C 0.25944 0.76624 0.30122 0.0
C1352 C 0.2389 0.75787 0.28623 0.0
C1353 C 0.22537 0.76306 0.30799 0.0
H1354 H 0.2699 0.76221 0.28432 0.0
H1355 H 0.13661 0.81093 0.49205 0.0
loop_
_geom_bond_atom_site_label_1
_geom_bond_atom_site_label_2
_geom_bond_distance
_geom_bond_site_symmetry_2
_ccdc_geom_bond_type
C0 O1 1.160 . S
C0 O7 1.185 . S
O1 C0 1.160 . S
O2 Zn3 1.899 . S
O2 C10 1.284 . S
Zn3 O2 1.899 . S
Zn3 O4 2.032 . S
Zn3 O7 2.086 . S
Zn3 O12 1.977 . S
O4 Zn3 2.032 . S
O4 C8 1.278 . S
C5 O6 1.203 . S
C5 O12 1.267 . S
O6 C5 1.203 . S
O7 C0 1.185 . S
O7 Zn3 2.086 . S
C8 O4 1.278 . S
C8 O9 1.211 . S
O9 C8 1.211 . S
C10 O2 1.284 . S
C10 O11 1.273 . S
O11 C10 1.273 . S
O12 Zn3 1.977 . S
O12 C5 1.267 . S
C13 O14 1.160 . S
C13 O20 1.185 . S
O14 C13 1.160 . S
O15 Zn16 1.899 . S
O15 C23 1.284 . S
Zn16 O15 1.899 . S
Zn16 O17 2.032 . S
Zn16 O20 2.086 . S
Zn16 O25 1.977 . S
O17 Zn16 2.032 . S
O17 C21 1.278 . S
C18 O19 1.203 . S
C18 O25 1.267 . S
O19 C18 1.203 . S
O20 C13 1.185 . S
O20 Zn16 2.086 . S
C21 O17 1.278 . S
C21 O22 1.211 . S
O22 C21 1.211 . S
C23 O15 1.284 . S
C23 O24 1.273 . S
O24 C23 1.273 . S
O25 Zn16 1.977 . S
O25 C18 1.267 . S
C26 O27 1.160 . S
C26 O33 1.185 . S
O27 C26 1.160 . S
O28 Zn29 1.899 . S
O28 C36 1.284 . S
Zn29 O28 1.899 . S
Zn29 O30 2.032 . S
Zn29 O33 2.086 . S
Zn29 O38 1.977 . S
O30 Zn29 2.032 . S
O30 C34 1.278 . S
C31 O32 1.203 . S
C31 O38 1.267 . S
O32 C31 1.203 . S
O33 C26 1.185 . S
O33 Zn29 2.086 . S
C34 O30 1.278 . S
C34 O35 1.211 . S
O35 C34 1.211 . S
C36 O28 1.284 . S
C36 O37 1.273 . S
O37 C36 1.273 . S
O38 Zn29 1.977 . S
O38 C31 1.267 . S
C39 O40 1.160 . S
C39 O46 1.185 . S
O40 C39 1.160 . S
O41 Zn42 1.899 . S
O41 C49 1.284 . S
Zn42 O41 1.899 . S
Zn42 O43 2.032 . S
Zn42 O46 2.086 . S
Zn42 O51 1.977 . S
O43 Zn42 2.032 . S
O43 C47 1.278 . S
C44 O45 1.203 . S
C44 O51 1.267 . S
O45 C44 1.203 . S
O46 C39 1.185 . S
O46 Zn42 2.086 . S
C47 O43 1.278 . S
C47 O48 1.211 . S
O48 C47 1.211 . S
C49 O41 1.284 . S
C49 O50 1.273 . S
O50 C49 1.273 . S
O51 Zn42 1.977 . S
O51 C44 1.267 . S
C52 O53 1.160 . S
C52 O59 1.185 . S
O53 C52 1.160 . S
O54 Zn55 1.899 . S
O54 C62 1.284 . S
Zn55 O54 1.899 . S
Zn55 O56 2.032 . S
Zn55 O59 2.086 . S
Zn55 O64 1.977 . S
O56 Zn55 2.032 . S
O56 C60 1.278 . S
C57 O58 1.203 . S
C57 O64 1.267 . S
O58 C57 1.203 . S
O59 C52 1.185 . S
O59 Zn55 2.086 . S
C60 O56 1.278 . S
C60 O61 1.211 . S
O61 C60 1.211 . S
C62 O54 1.284 . S
C62 O63 1.273 . S
O63 C62 1.273 . S
O64 Zn55 1.977 . S
O64 C57 1.267 . S
C65 O66 1.160 . S
C65 O72 1.185 . S
O66 C65 1.160 . S
O67 Zn68 1.899 . S
O67 C75 1.284 . S
Zn68 O67 1.899 . S
Zn68 O69 2.032 . S
Zn68 O72 2.086 . S
Zn68 O77 1.977 . S
O69 Zn68 2.032 . S
O69 C73 1.278 . S
C70 O71 1.203 . S
C70 O77 1.267 . S
O71 C70 1.203 . S
O72 C65 1.185 . S
O72 Zn68 2.086 . S
C73 O69 1.278 . S
C73 O74 1.211 . S
O74 C73 1.211 . S
C75 O67 1.284 . S
C75 O76 1.273 . S
O76 C75 1.273 . S
O77 Zn68 1.977 . S
O77 C70 1.267 . S
C78 O79 1.160 . S
C78 O85 1.185 . S
O79 C78 1.160 . S
O80 Zn81 1.899 . S
O80 C88 1.284 . S
Zn81 O80 1.899 . S
Zn81 O82 2.032 . S
Zn81 O85 2.086 . S
Zn81 O90 1.977 . S
O82 Zn81 2.032 . S
O82 C86 1.278 . S
C83 O84 1.203 . S
C83 O90 1.267 . S
O84 C83 1.203 . S
O85 C78 1.185 . S
O85 Zn81 2.086 . S
C86 O82 1.278 . S
C86 O87 1.211 . S
O87 C86 1.211 . S
C88 O80 1.284 . S
C88 O89 1.273 . S
O89 C88 1.273 . S
O90 Zn81 1.977 . S
O90 C83 1.267 . S
C91 O92 1.160 . S
C91 O98 1.185 . S
O92 C91 1.160 . S
O93 Zn94 1.899 . S
O93 C101 1.284 . S
Zn94 O93 1.899 . S
Zn94 O95 2.032 . S
Zn94 O98 2.086 . S
Zn94 O103 1.977 . S
O95 Zn94 2.032 . S
O95 C99 1.278 . S
C96 O97 1.203 . S
C96 O103 1.267 . S
O97 C96 1.203 . S
O98 C91 1.185 . S
O98 Zn94 2.086 . S
C99 O95 1.278 . S
C99 O100 1.211 . S
O100 C99 1.211 . S
C101 O93 1.284 . S
C101 O102 1.273 . S
O102 C101 1.273 . S
O103 Zn94 1.977 . S
O103 C96 1.267 . S
C104 O105 1.160 . S
C104 O111 1.185 . S
O105 C104 1.160 . S
O106 Zn107 1.899 . S
O106 C114 1.284 . S
Zn107 O106 1.899 . S
Zn107 O108 2.032 . S
Zn107 O111 2.086 . S
Zn107 O116 1.977 . S
O108 Zn107 2.032 . S
O108 C112 1.278 . S
C109 O110 1.203 . S
C109 O116 1.267 . S
O110 C109 1.203 . S
O111 C104 1.185 . S
O111 Zn107 2.086 . S
C112 O108 1.278 . S
C112 O113 1.211 . S
O113 C112 1.211 . S
C114 O106 1.284 . S
C114 O115 1.273 . S
O115 C114 1.273 . S
O116 Zn107 1.977 . S
O116 C109 1.267 . S
C117 O118 1.160 . S
C117 O124 1.185 . S
O118 C117 1.160 . S
O119 Zn120 1.899 . S
O119 C127 1.284 . S
Zn120 O119 1.899 . S
Zn120 O121 2.032 . S
Zn120 O124 2.086 . S
Zn120 O129 1.977 . S
O121 Zn120 2.032 . S
O121 C125 1.278 . S
C122 O123 1.203 . S
C122 O129 1.267 . S
O123 C122 1.203 . S
O124 C117 1.185 . S
O124 Zn120 2.086 . S
C125 O121 1.278 . S
C125 O126 1.211 . S
O126 C125 1.211 . S
C127 O119 1.284 . S
C127 O128 1.273 . S
O128 C127 1.273 . S
O129 Zn120 1.977 . S
O129 C122 1.267 . S
C130 O131 1.160 . S
C130 O137 1.185 . S
O131 C130 1.160 . S
O132 Zn133 1.899 . S
O132 C140 1.284 . S
Zn133 O132 1.899 . S
Zn133 O134 2.032 . S
Zn133 O137 2.086 . S
Zn133 O142 1.977 . S
O134 Zn133 2.032 . S
O134 C138 1.278 . S
C135 O136 1.203 . S
C135 O142 1.267 . S
O136 C135 1.203 . S
O137 C130 1.185 . S
O137 Zn133 2.086 . S
C138 O134 1.278 . S
C138 O139 1.211 . S
O139 C138 1.211 . S
C140 O132 1.284 . S
C140 O141 1.273 . S
O141 C140 1.273 . S
O142 Zn133 1.977 . S
O142 C135 1.267 . S
C143 O144 1.160 . S
C143 O150 1.185 . S
O144 C143 1.160 . S
O145 Zn146 1.899 . S
O145 C153 1.284 . S
Zn146 O145 1.899 . S
Zn146 O147 2.032 . S
Zn146 O150 2.086 . S
Zn146 O155 1.977 . S
O147 Zn146 2.032 . S
O147 C151 1.278 . S
C148 O149 1.203 . S
C148 O155 1.267 . S
O149 C148 1.203 . S
O150 C143 1.185 . S
O150 Zn146 2.086 . S
C151 O147 1.278 . S
C151 O152 1.211 . S
O152 C151 1.211 . S
C153 O145 1.284 . S
C153 O154 1.273 . S
O154 C153 1.273 . S
O155 Zn146 1.977 . S
O155 C148 1.267 . S
H156 C174 0.951 . S
H157 C176 0.951 . S
H158 C178 0.950 . S
H159 C179 0.950 . S
H160 C181 0.950 . S
H161 C184 0.950 . S
H162 C185 0.950 . S
H163 C187 0.950 . S
H164 C188 0.950 . S
H165 C189 0.951 . S
H166 C191 0.951 . S
H167 C193 0.950 . S
H168 C194 0.950 . S
H169 C196 0.950 . S
H170 C199 0.950 . S
H171 C200 0.950 . S
H172 C202 0.950 . S
H173 C203 0.950 . S
C174 H156 0.951 . S
C174 C175 1.366 . S
C174 C176 1.388 . S
C175 C174 1.366 . S
C175 C179 1.385 . S
C176 H157 0.951 . S
C176 C174 1.388 . S
C176 C177 1.366 . S
C177 C176 1.366 . S
C177 C178 1.414 . S
C177 C180 1.499 . S
C178 H158 0.950 . S
C178 C177 1.414 . S
C178 C179 1.374 . S
C179 H159 0.950 . S
C179 C175 1.385 . S
C179 C178 1.374 . S
C180 C177 1.499 . S
C180 C181 1.373 . S
C180 C182 1.389 . S
C181 H160 0.950 . S
C181 C180 1.373 . S
C181 C197 1.377 . S
C182 C180 1.389 . S
C182 C183 1.524 . S
C182 C196 1.377 . S
C183 C182 1.524 . S
C183 C184 1.397 . S
C183 C188 1.363 . S
C184 H161 0.950 . S
C184 C183 1.397 . S
C184 C185 1.334 . S
C185 H162 0.950 . S
C185 C184 1.334 . S
C185 C186 1.287 . S
C186 C185 1.287 . S
C186 C187 1.524 . S
C186 H205 0.913 . S
C187 H163 0.950 . S
C187 C186 1.524 . S
C187 C188 1.415 . S
C188 H164 0.950 . S
C188 C183 1.363 . S
C188 C187 1.415 . S
C189 H165 0.951 . S
C189 C190 1.366 . S
C189 C191 1.388 . S
C190 C189 1.366 . S
C190 C194 1.385 . S
C191 H166 0.951 . S
C191 C189 1.388 . S
C191 C192 1.366 . S
C192 C191 1.366 . S
C192 C193 1.414 . S
C192 C195 1.499 . S
C193 H167 0.950 . S
C193 C192 1.414 . S
C193 C194 1.374 . S
C194 H168 0.950 . S
C194 C190 1.385 . S
C194 C193 1.374 . S
C195 C192 1.499 . S
C195 C196 1.373 . S
C195 C197 1.389 . S
C196 H169 0.950 . S
C196 C182 1.377 . S
C196 C195 1.373 . S
C197 C181 1.377 . S
C197 C195 1.389 . S
C197 C198 1.524 . S
C198 C197 1.524 . S
C198 C199 1.397 . S
C198 C203 1.363 . S
C199 H170 0.950 . S
C199 C198 1.397 . S
C199 C200 1.334 . S
C200 H171 0.950 . S
C200 C199 1.334 . S
C200 C201 1.287 . S
C201 C200 1.287 . S
C201 C202 1.524 . S
C201 H204 0.999 . S
C202 H172 0.950 . S
C202 C201 1.524 . S
C202 C203 1.415 . S
C203 H173 0.950 . S
C203 C198 1.363 . S
C203 C202 1.415 . S
H204 C201 0.999 . S
H205 C186 0.913 . S
H206 C224 0.951 . S
H207 C226 0.951 . S
H208 C228 0.950 . S
H209 C229 0.950 . S
H210 C231 0.950 . S
H211 C234 0.950 . S
H212 C235 0.950 . S
H213 C237 0.950 . S
H214 C238 0.950 . S
H215 C239 0.951 . S
H216 C241 0.951 . S
H217 C243 0.950 . S
H218 C244 0.950 . S
H219 C246 0.950 . S
H220 C249 0.950 . S
H221 C250 0.950 . S
H222 C252 0.950 . S
H223 C253 0.950 . S
C224 H206 0.951 . S
C224 C225 1.366 . S
C224 C226 1.388 . S
C225 C224 1.366 . S
C225 C229 1.385 . S
C226 H207 0.951 . S
C226 C224 1.388 . S
C226 C227 1.366 . S
C227 C226 1.366 . S
C227 C228 1.414 . S
C227 C230 1.499 . S
C228 H208 0.950 . S
C228 C227 1.414 . S
C228 C229 1.374 . S
C229 H209 0.950 . S
C229 C225 1.385 . S
C229 C228 1.374 . S
C230 C227 1.499 . S
C230 C231 1.373 1_455 S
C230 C232 1.389 . S
C231 H210 0.950 . S
C231 C230 1.373 1_655 S
C231 C247 1.377 . S
C232 C230 1.389 . S
C232 C233 1.524 . S
C232 C246 1.377 . S
C233 C232 1.524 . S
C233 C234 1.397 . S
C233 C238 1.363 . S
C234 H211 0.950 . S
C234 C233 1.397 . S
C234 C235 1.334 . S
C235 H212 0.950 . S
C235 C234 1.334 . S
C235 C236 1.287 . S
C236 C235 1.287 . S
C236 C237 1.524 . S
C236 H255 0.913 . S
C237 H213 0.950 . S
C237 C236 1.524 . S
C237 C238 1.415 . S
C238 H214 0.950 . S
C238 C233 1.363 . S
C238 C237 1.415 . S
C239 H215 0.951 . S
C239 C240 1.366 . S
C239 C241 1.388 . S
C240 C239 1.366 . S
C240 C244 1.385 . S
C241 H216 0.951 . S
C241 C239 1.388 . S
C241 C242 1.366 . S
C242 C241 1.366 . S
C242 C243 1.414 . S
C242 C245 1.499 . S
C243 H217 0.950 . S
C243 C242 1.414 . S
C243 C244 1.374 . S
C244 H218 0.950 . S
C244 C240 1.385 . S
C244 C243 1.374 . S
C245 C242 1.499 . S
C245 C246 1.373 1_655 S
C245 C247 1.389 . S
C246 H219 0.950 . S
C246 C232 1.377 . S
C246 C245 1.373 1_455 S
C247 C231 1.377 . S
C247 C245 1.389 . S
C247 C248 1.524 . S
C248 C247 1.524 . S
C248 C249 1.397 . S
C248 C253 1.363 . S
C249 H220 0.950 . S
C249 C248 1.397 . S
C249 C250 1.334 . S
C250 H221 0.950 . S
C250 C249 1.334 . S
C250 C251 1.287 . S
C251 C250 1.287 . S
C251 C252 1.524 . S
C251 H254 0.999 . S
C252 H222 0.950 . S
C252 C251 1.524 . S
C252 C253 1.415 . S
C253 H223 0.950 . S
C253 C248 1.363 . S
C253 C252 1.415 . S
H254 C251 0.999 . S
H255 C236 0.913 . S
H256 C274 0.951 . S
H257 C276 0.951 . S
H258 C278 0.950 . S
H259 C279 0.950 . S
H260 C281 0.950 . S
H261 C284 0.950 . S
H262 C285 0.950 . S
H263 C287 0.950 . S
H264 C288 0.950 . S
H265 C289 0.951 . S
H266 C291 0.951 . S
H267 C293 0.950 . S
H268 C294 0.950 . S
H269 C296 0.950 . S
H270 C299 0.950 . S
H271 C300 0.950 . S
H272 C302 0.950 . S
H273 C303 0.950 . S
C274 H256 0.951 . S
C274 C275 1.366 . S
C274 C276 1.388 . S
C275 C274 1.366 . S
C275 C279 1.385 . S
C276 H257 0.951 . S
C276 C274 1.388 . S
C276 C277 1.366 . S
C277 C276 1.366 . S
C277 C278 1.414 . S
C277 C280 1.499 . S
C278 H258 0.950 . S
C278 C277 1.414 . S
C278 C279 1.374 . S
C279 H259 0.950 . S
C279 C275 1.385 . S
C279 C278 1.374 . S
C280 C277 1.499 . S
C280 C281 1.373 . S
C280 C282 1.389 1_565 S
C281 H260 0.950 . S
C281 C280 1.373 . S
C281 C297 1.377 . S
C282 C280 1.389 1_545 S
C282 C283 1.524 . S
C282 C296 1.377 . S
C283 C282 1.524 . S
C283 C284 1.397 . S
C283 C288 1.363 . S
C284 H261 0.950 . S
C284 C283 1.397 . S
C284 C285 1.334 . S
C285 H262 0.950 . S
C285 C284 1.334 . S
C285 C286 1.287 . S
C286 C285 1.287 . S
C286 C287 1.524 . S
C286 H305 0.913 . S
C287 H263 0.950 . S
C287 C286 1.524 . S
C287 C288 1.415 . S
C288 H264 0.950 . S
C288 C283 1.363 . S
C288 C287 1.415 . S
C289 H265 0.951 . S
C289 C290 1.366 . S
C289 C291 1.388 . S
C290 C289 1.366 . S
C290 C294 1.385 . S
C291 H266 0.951 . S
C291 C289 1.388 . S
C291 C292 1.366 . S
C292 C291 1.366 . S
C292 C293 1.414 . S
C292 C295 1.499 . S
C293 H267 0.950 . S
C293 C292 1.414 . S
C293 C294 1.374 . S
C294 H268 0.950 . S
C294 C290 1.385 . S
C294 C293 1.374 . S
C295 C292 1.499 . S
C295 C296 1.373 . S
C295 C297 1.389 1_545 S
C296 H269 0.950 . S
C296 C282 1.377 . S
C296 C295 1.373 . S
C297 C281 1.377 . S
C297 C295 1.389 1_565 S
C297 C298 1.524 . S
C298 C297 1.524 . S
C298 C299 1.397 . S
C298 C303 1.363 . S
C299 H270 0.950 . S
C299 C298 1.397 . S
C299 C300 1.334 . S
C300 H271 0.950 . S
C300 C299 1.334 . S
C300 C301 1.287 . S
C301 C300 1.287 . S
C301 C302 1.524 . S
C301 H304 0.999 . S
C302 H272 0.950 . S
C302 C301 1.524 . S
C302 C303 1.415 . S
C303 H273 0.950 . S
C303 C298 1.363 . S
C303 C302 1.415 . S
H304 C301 0.999 . S
H305 C286 0.913 . S
H306 C324 0.951 . S
H307 C326 0.951 . S
H308 C328 0.950 . S
H309 C329 0.950 . S
H310 C331 0.950 . S
H311 C334 0.950 . S
H312 C335 0.950 . S
H313 C337 0.950 . S
H314 C338 0.950 . S
H315 C339 0.951 . S
H316 C341 0.951 . S
H317 C343 0.950 . S
H318 C344 0.950 . S
H319 C346 0.950 . S
H320 C349 0.950 . S
H321 C350 0.950 . S
H322 C352 0.950 . S
H323 C353 0.950 . S
C324 H306 0.951 . S
C324 C325 1.366 . S
C324 C326 1.388 . S
C325 C324 1.366 . S
C325 C329 1.385 . S
C326 H307 0.951 . S
C326 C324 1.388 . S
C326 C327 1.366 . S
C327 C326 1.366 . S
C327 C328 1.414 . S
C327 C330 1.499 . S
C328 H308 0.950 . S
C328 C327 1.414 . S
C328 C329 1.374 . S
C329 H309 0.950 . S
C329 C325 1.385 . S
C329 C328 1.374 . S
C330 C327 1.499 . S
C330 C331 1.373 . S
C330 C332 1.389 . S
C331 H310 0.950 . S
C331 C330 1.373 . S
C331 C347 1.377 . S
C332 C330 1.389 . S
C332 C333 1.524 . S
C332 C346 1.377 . S
C333 C332 1.524 . S
C333 C334 1.397 . S
C333 C338 1.363 . S
C334 H311 0.950 . S
C334 C333 1.397 . S
C334 C335 1.334 . S
C335 H312 0.950 . S
C335 C334 1.334 . S
C335 C336 1.287 . S
C336 C335 1.287 . S
C336 C337 1.524 . S
C336 H355 0.913 . S
C337 H313 0.950 . S
C337 C336 1.524 . S
C337 C338 1.415 . S
C338 H314 0.950 . S
C338 C333 1.363 . S
C338 C337 1.415 . S
C339 H315 0.951 . S
C339 C340 1.366 . S
C339 C341 1.388 . S
C340 C339 1.366 . S
C340 C344 1.385 . S
C341 H316 0.951 . S
C341 C339 1.388 . S
C341 C342 1.366 . S
C342 C341 1.366 . S
C342 C343 1.414 . S
C342 C345 1.499 . S
C343 H317 0.950 . S
C343 C342 1.414 . S
C343 C344 1.374 . S
C344 H318 0.950 . S
C344 C340 1.385 . S
C344 C343 1.374 . S
C345 C342 1.499 . S
C345 C346 1.373 . S
C345 C347 1.389 . S
C346 H319 0.950 . S
C346 C332 1.377 . S
C346 C345 1.373 . S
C347 C331 1.377 . S
C347 C345 1.389 . S
C347 C348 1.524 . S
C348 C347 1.524 . S
C348 C349 1.397 . S
C348 C353 1.363 . S
C349 H320 0.950 . S
C349 C348 1.397 . S
C349 C350 1.334 . S
C350 H321 0.950 . S
C350 C349 1.334 . S
C350 C351 1.287 . S
C351 C350 1.287 . S
C351 C352 1.524 . S
C351 H354 0.999 . S
C352 H322 0.950 . S
C352 C351 1.524 . S
C352 C353 1.415 . S
C353 H323 0.950 . S
C353 C348 1.363 . S
C353 C352 1.415 . S
H354 C351 0.999 . S
H355 C336 0.913 . S
H356 C374 0.951 . S
H357 C376 0.951 . S
H358 C378 0.950 . S
H359 C379 0.950 . S
H360 C381 0.950 . S
H361 C384 0.950 . S
H362 C385 0.950 . S
H363 C387 0.906 1_655 S
H364 C388 0.950 . S
H365 C389 0.951 1_554 S
H366 C391 0.951 . S
H367 C393 0.950 . S
H368 C394 0.950 . S
H369 C396 0.950 . S
H370 C399 0.950 . S
H371 C400 0.950 . S
H372 C402 0.907 1_455 S
H373 C403 0.950 . S
C374 H356 0.951 . S
C374 C375 1.366 . S
C374 C376 1.388 . S
C375 C374 1.366 . S
C375 C379 1.385 . S
C376 H357 0.951 . S
C376 C374 1.388 . S
C376 C377 1.366 . S
C377 C376 1.366 . S
C377 C378 1.414 . S
C377 C380 1.499 . S
C378 H358 0.950 . S
C378 C377 1.414 . S
C378 C379 1.374 . S
C379 H359 0.950 . S
C379 C375 1.385 . S
C379 C378 1.374 . S
C380 C377 1.499 . S
C380 C381 1.373 . S
C380 C382 1.389 . S
C381 H360 0.950 . S
C381 C380 1.373 . S
C381 C397 1.377 1_455 S
C382 C380 1.389 . S
C382 C383 1.524 . S
C382 C396 1.377 1_455 S
C383 C382 1.524 . S
C383 C384 1.397 . S
C383 C388 1.363 1_455 S
C384 H361 0.950 . S
C384 C383 1.397 . S
C384 C385 1.334 . S
C385 H362 0.950 . S
C385 C384 1.334 . S
C385 C386 1.287 . S
C386 C385 1.287 . S
C386 C387 1.562 . S
C386 H405 0.913 . S
C387 H363 0.906 1_455 S
C387 C386 1.562 . S
C387 C388 1.428 1_455 S
C388 H364 0.950 . S
C388 C383 1.363 1_655 S
C388 C387 1.428 1_655 S
C389 H365 0.951 1_556 S
C389 C390 1.366 . S
C389 C391 1.388 . S
C390 C389 1.366 . S
C390 C394 1.385 . S
C391 H366 0.951 . S
C391 C389 1.388 . S
C391 C392 1.366 . S
C392 C391 1.366 . S
C392 C393 1.414 . S
C392 C395 1.499 . S
C393 H367 0.950 . S
C393 C392 1.414 . S
C393 C394 1.374 . S
C394 H368 0.950 . S
C394 C390 1.385 . S
C394 C393 1.374 . S
C395 C392 1.499 . S
C395 C396 1.373 . S
C395 C397 1.389 . S
C396 H369 0.950 . S
C396 C382 1.377 1_655 S
C396 C395 1.373 . S
C397 C381 1.377 1_655 S
C397 C395 1.389 . S
C397 C398 1.524 . S
C398 C397 1.524 . S
C398 C399 1.397 . S
C398 C403 1.363 1_655 S
C399 H370 0.950 . S
C399 C398 1.397 . S
C399 C400 1.334 . S
C400 H371 0.950 . S
C400 C399 1.334 . S
C400 C401 1.287 . S
C401 C400 1.287 . S
C401 C402 1.561 . S
C401 H404 0.999 . S
C402 H372 0.907 1_655 S
C402 C401 1.561 . S
C402 C403 1.428 1_655 S
C403 H373 0.950 . S
C403 C398 1.363 1_455 S
C403 C402 1.428 1_455 S
H404 C401 0.999 . S
H405 C386 0.913 . S
H406 C424 0.951 . S
H407 C426 0.951 . S
H408 C428 0.950 . S
H409 C429 0.950 . S
H410 C431 0.950 . S
H411 C434 0.950 . S
H412 C435 0.950 . S
H413 C437 0.950 . S
H414 C438 0.950 . S
H415 C439 0.951 . S
H416 C441 0.951 . S
H417 C443 0.950 . S
H418 C444 0.950 . S
H419 C446 0.950 . S
H420 C449 0.950 . S
H421 C450 0.950 . S
H422 C452 0.950 . S
H423 C453 0.950 . S
C424 H406 0.951 . S
C424 C425 1.366 . S
C424 C426 1.388 . S
C425 C424 1.366 . S
C425 C429 1.385 . S
C426 H407 0.951 . S
C426 C424 1.388 . S
C426 C427 1.366 . S
C427 C426 1.366 . S
C427 C428 1.414 . S
C427 C430 1.499 . S
C428 H408 0.950 . S
C428 C427 1.414 . S
C428 C429 1.374 . S
C429 H409 0.950 . S
C429 C425 1.385 . S
C429 C428 1.374 . S
C430 C427 1.499 . S
C430 C431 1.373 . S
C430 C432 1.389 1_545 S
C431 H410 0.950 . S
C431 C430 1.373 . S
C431 C447 1.377 1_556 S
C432 C430 1.389 1_565 S
C432 C433 1.524 . S
C432 C446 1.377 1_556 S
C433 C432 1.524 . S
C433 C434 1.397 1_565 S
C433 C438 1.363 . S
C434 H411 0.950 . S
C434 C433 1.397 1_545 S
C434 C435 1.334 . S
C435 H412 0.950 . S
C435 C434 1.334 . S
C435 C436 1.287 1_545 S
C436 C435 1.287 1_565 S
C436 C437 1.524 . S
C436 H455 0.913 . S
C437 H413 0.950 . S
C437 C436 1.524 . S
C437 C438 1.415 . S
C438 H414 0.950 . S
C438 C433 1.363 . S
C438 C437 1.415 . S
C439 H415 0.951 . S
C439 C440 1.366 . S
C439 C441 1.388 . S
C440 C439 1.366 . S
C440 C444 1.385 . S
C441 H416 0.951 . S
C441 C439 1.388 . S
C441 C442 1.366 . S
C442 C441 1.366 . S
C442 C443 1.414 . S
C442 C445 1.499 . S
C443 H417 0.950 . S
C443 C442 1.414 . S
C443 C444 1.374 . S
C444 H418 0.950 . S
C444 C440 1.385 . S
C444 C443 1.374 . S
C445 C442 1.499 . S
C445 C446 1.373 . S
C445 C447 1.389 1_565 S
C446 H419 0.950 . S
C446 C432 1.377 1_554 S
C446 C445 1.373 . S
C447 C431 1.377 1_554 S
C447 C445 1.389 1_545 S
C447 C448 1.524 . S
C448 C447 1.524 . S
C448 C449 1.397 1_545 S
C448 C453 1.363 . S
C449 H420 0.950 . S
C449 C448 1.397 1_565 S
C449 C450 1.334 . S
C450 H421 0.950 . S
C450 C449 1.334 . S
C450 C451 1.287 1_565 S
C451 C450 1.287 1_545 S
C451 C452 1.524 . S
C451 H454 0.999 . S
C452 H422 0.950 . S
C452 C451 1.524 . S
C452 C453 1.415 . S
C453 H423 0.950 . S
C453 C448 1.363 . S
C453 C452 1.415 . S
H454 C451 0.999 . S
H455 C436 0.913 . S
H456 C474 0.951 . S
H457 C476 0.951 . S
H458 C478 0.950 . S
H459 C479 0.950 . S
H460 C481 0.950 . S
H461 C484 0.950 . S
H462 C485 0.950 . S
H463 C487 0.950 . S
H464 C488 0.950 . S
H465 C489 0.951 . S
H466 C491 0.951 . S
H467 C493 0.950 . S
H468 C494 0.950 . S
H469 C496 0.950 . S
H470 C499 0.950 . S
H471 C500 0.950 . S
H472 C502 0.950 . S
H473 C503 0.950 . S
C474 H456 0.951 . S
C474 C475 1.366 . S
C474 C476 1.388 . S
C475 C474 1.366 . S
C475 C479 1.385 . S
C476 H457 0.951 . S
C476 C474 1.388 . S
C476 C477 1.366 . S
C477 C476 1.366 . S
C477 C478 1.414 . S
C477 C480 1.499 . S
C478 H458 0.950 . S
C478 C477 1.414 . S
C478 C479 1.374 . S
C479 H459 0.950 . S
C479 C475 1.385 . S
C479 C478 1.374 . S
C480 C477 1.499 . S
C480 C481 1.373 . S
C480 C482 1.389 . S
C481 H460 0.950 . S
C481 C480 1.373 . S
C481 C497 1.377 . S
C482 C480 1.389 . S
C482 C483 1.524 . S
C482 C496 1.377 . S
C483 C482 1.524 . S
C483 C484 1.397 . S
C483 C488 1.363 . S
C484 H461 0.950 . S
C484 C483 1.397 . S
C484 C485 1.334 . S
C485 H462 0.950 . S
C485 C484 1.334 . S
C485 C486 1.287 . S
C486 C485 1.287 . S
C486 C487 1.524 . S
C486 H505 0.913 . S
C487 H463 0.950 . S
C487 C486 1.524 . S
C487 C488 1.415 . S
C488 H464 0.950 . S
C488 C483 1.363 . S
C488 C487 1.415 . S
C489 H465 0.951 . S
C489 C490 1.366 . S
C489 C491 1.388 . S
C490 C489 1.366 . S
C490 C494 1.385 . S
C491 H466 0.951 . S
C491 C489 1.388 . S
C491 C492 1.366 . S
C492 C491 1.366 . S
C492 C493 1.414 . S
C492 C495 1.499 . S
C493 H467 0.950 . S
C493 C492 1.414 . S
C493 C494 1.374 . S
C494 H468 0.950 . S
C494 C490 1.385 . S
C494 C493 1.374 . S
C495 C492 1.499 . S
C495 C496 1.373 . S
C495 C497 1.389 . S
C496 H469 0.950 . S
C496 C482 1.377 . S
C496 C495 1.373 . S
C497 C481 1.377 . S
C497 C495 1.389 . S
C497 C498 1.524 . S
C498 C497 1.524 . S
C498 C499 1.397 . S
C498 C503 1.363 . S
C499 H470 0.950 . S
C499 C498 1.397 . S
C499 C500 1.334 . S
C500 H471 0.950 . S
C500 C499 1.334 . S
C500 C501 1.287 . S
C501 C500 1.287 . S
C501 C502 1.524 . S
C501 H504 0.999 . S
C502 H472 0.950 . S
C502 C501 1.524 . S
C502 C503 1.415 . S
C503 H473 0.950 . S
C503 C498 1.363 . S
C503 C502 1.415 . S
H504 C501 0.999 . S
H505 C486 0.913 . S
H506 C524 0.951 . S
H507 C526 0.951 . S
H508 C528 0.950 . S
H509 C529 0.950 . S
H510 C531 0.950 . S
H511 C534 0.950 . S
H512 C535 0.950 . S
H513 C537 0.950 . S
H514 C538 0.950 . S
H515 C539 0.951 . S
H516 C541 0.951 . S
H517 C543 0.950 . S
H518 C544 0.950 . S
H519 C546 0.950 . S
H520 C549 0.950 . S
H521 C550 0.950 . S
H522 C552 0.950 . S
H523 C553 0.950 . S
C524 H506 0.951 . S
C524 C525 1.366 . S
C524 C526 1.388 . S
C525 C524 1.366 . S
C525 C529 1.385 . S
C526 H507 0.951 . S
C526 C524 1.388 . S
C526 C527 1.366 . S
C527 C526 1.366 . S
C527 C528 1.414 . S
C527 C530 1.499 . S
C528 H508 0.950 . S
C528 C527 1.414 . S
C528 C529 1.374 . S
C529 H509 0.950 . S
C529 C525 1.385 . S
C529 C528 1.374 . S
C530 C527 1.499 . S
C530 C531 1.373 . S
C530 C532 1.389 . S
C531 H510 0.950 . S
C531 C530 1.373 . S
C531 C547 1.377 . S
C532 C530 1.389 . S
C532 C533 1.524 . S
C532 C546 1.377 . S
C533 C532 1.524 . S
C533 C534 1.397 . S
C533 C538 1.363 . S
C534 H511 0.950 . S
C534 C533 1.397 . S
C534 C535 1.334 . S
C535 H512 0.950 . S
C535 C534 1.334 . S
C535 C536 1.287 . S
C536 C535 1.287 . S
C536 C537 1.524 . S
C536 H555 0.913 . S
C537 H513 0.950 . S
C537 C536 1.524 . S
C537 C538 1.415 . S
C538 H514 0.950 . S
C538 C533 1.363 . S
C538 C537 1.415 . S
C539 H515 0.951 . S
C539 C540 1.366 . S
C539 C541 1.388 . S
C540 C539 1.366 . S
C540 C544 1.385 . S
C541 H516 0.951 . S
C541 C539 1.388 . S
C541 C542 1.366 . S
C542 C541 1.366 . S
C542 C543 1.414 . S
C542 C545 1.499 . S
C543 H517 0.950 . S
C543 C542 1.414 . S
C543 C544 1.374 . S
C544 H518 0.950 . S
C544 C540 1.385 . S
C544 C543 1.374 . S
C545 C542 1.499 . S
C545 C546 1.373 . S
C545 C547 1.389 . S
C546 H519 0.950 . S
C546 C532 1.377 . S
C546 C545 1.373 . S
C547 C531 1.377 . S
C547 C545 1.389 . S
C547 C548 1.524 . S
C548 C547 1.524 . S
C548 C549 1.397 . S
C548 C553 1.363 . S
C549 H520 0.950 . S
C549 C548 1.397 . S
C549 C550 1.334 . S
C550 H521 0.950 . S
C550 C549 1.334 . S
C550 C551 1.287 . S
C551 C550 1.287 . S
C551 C552 1.524 . S
C551 H554 0.999 . S
C552 H522 0.950 . S
C552 C551 1.524 . S
C552 C553 1.415 . S
C553 H523 0.950 . S
C553 C548 1.363 . S
C553 C552 1.415 . S
H554 C551 0.999 . S
H555 C536 0.913 . S
H556 C574 0.951 . S
H557 C576 0.951 . S
H558 C578 0.950 . S
H559 C579 0.950 . S
H560 C581 0.950 . S
H561 C584 0.950 . S
H562 C585 0.950 . S
H563 C587 0.950 . S
H564 C588 0.950 . S
H565 C589 0.951 . S
H566 C591 0.951 . S
H567 C593 0.950 . S
H568 C594 0.950 . S
H569 C596 0.950 . S
H570 C599 0.950 . S
H571 C600 0.950 . S
H572 C602 0.950 . S
H573 C603 0.950 . S
C574 H556 0.951 . S
C574 C575 1.366 . S
C574 C576 1.388 . S
C575 C574 1.366 . S
C575 C579 1.385 . S
C576 H557 0.951 . S
C576 C574 1.388 . S
C576 C577 1.366 . S
C577 C576 1.366 . S
C577 C578 1.414 . S
C577 C580 1.499 . S
C578 H558 0.950 . S
C578 C577 1.414 . S
C578 C579 1.374 . S
C579 H559 0.950 . S
C579 C575 1.385 . S
C579 C578 1.374 . S
C580 C577 1.499 . S
C580 C581 1.373 . S
C580 C582 1.389 . S
C581 H560 0.950 . S
C581 C580 1.373 . S
C581 C597 1.377 . S
C582 C580 1.389 . S
C582 C583 1.524 . S
C582 C596 1.377 . S
C583 C582 1.524 . S
C583 C584 1.397 . S
C583 C588 1.363 . S
C584 H561 0.950 . S
C584 C583 1.397 . S
C584 C585 1.334 . S
C585 H562 0.950 . S
C585 C584 1.334 . S
C585 C586 1.287 . S
C586 C585 1.287 . S
C586 C587 1.524 . S
C586 H605 0.913 . S
C587 H563 0.950 . S
C587 C586 1.524 . S
C587 C588 1.415 . S
C588 H564 0.950 . S
C588 C583 1.363 . S
C588 C587 1.415 . S
C589 H565 0.951 . S
C589 C590 1.366 . S
C589 C591 1.388 . S
C590 C589 1.366 . S
C590 C594 1.385 . S
C591 H566 0.951 . S
C591 C589 1.388 . S
C591 C592 1.366 . S
C592 C591 1.366 . S
C592 C593 1.414 . S
C592 C595 1.499 . S
C593 H567 0.950 . S
C593 C592 1.414 . S
C593 C594 1.374 . S
C594 H568 0.950 . S
C594 C590 1.385 . S
C594 C593 1.374 . S
C595 C592 1.499 . S
C595 C596 1.373 . S
C595 C597 1.389 . S
C596 H569 0.950 . S
C596 C582 1.377 . S
C596 C595 1.373 . S
C597 C581 1.377 . S
C597 C595 1.389 . S
C597 C598 1.524 . S
C598 C597 1.524 . S
C598 C599 1.397 . S
C598 C603 1.363 . S
C599 H570 0.950 . S
C599 C598 1.397 . S
C599 C600 1.334 . S
C600 H571 0.950 . S
C600 C599 1.334 . S
C600 C601 1.287 . S
C601 C600 1.287 . S
C601 C602 1.524 . S
C601 H604 0.999 . S
C602 H572 0.950 . S
C602 C601 1.524 . S
C602 C603 1.415 . S
C603 H573 0.950 . S
C603 C598 1.363 . S
C603 C602 1.415 . S
H604 C601 0.999 . S
H605 C586 0.913 . S
H606 C624 0.951 . S
H607 C626 0.951 . S
H608 C628 0.950 . S
H609 C629 0.950 . S
H610 C631 0.950 . S
H611 C634 0.950 . S
H612 C635 0.950 . S
H613 C637 0.950 . S
H614 C638 0.950 . S
H615 C639 0.951 . S
H616 C641 0.951 . S
H617 C643 0.950 . S
H618 C644 0.950 . S
H619 C646 0.950 . S
H620 C649 0.950 . S
H621 C650 0.957 . S
H622 C652 0.950 . S
H623 C653 0.950 . S
C624 H606 0.951 . S
C624 C625 1.366 . S
C624 C626 1.388 . S
C625 C624 1.366 . S
C625 C629 1.385 . S
C626 H607 0.951 . S
C626 C624 1.388 . S
C626 C627 1.366 . S
C627 C626 1.366 . S
C627 C628 1.414 . S
C627 C630 1.499 . S
C628 H608 0.950 . S
C628 C627 1.414 . S
C628 C629 1.374 . S
C629 H609 0.950 . S
C629 C625 1.385 . S
C629 C628 1.374 . S
C630 C627 1.499 . S
C630 C631 1.373 . S
C630 C632 1.389 . S
C631 H610 0.950 . S
C631 C630 1.373 . S
C631 C647 1.377 . S
C632 C630 1.389 . S
C632 C633 1.524 . S
C632 C646 1.377 . S
C633 C632 1.524 . S
C633 C634 1.397 . S
C633 C638 1.363 . S
C634 H611 0.950 . S
C634 C633 1.397 . S
C634 C635 1.334 . S
C635 H612 0.950 . S
C635 C634 1.334 . S
C635 C636 1.287 . S
C636 C635 1.287 . S
C636 C637 1.524 . S
C636 H655 0.913 . S
C637 H613 0.950 . S
C637 C636 1.524 . S
C637 C638 1.415 . S
C638 H614 0.950 . S
C638 C633 1.363 . S
C638 C637 1.415 . S
C639 H615 0.951 . S
C639 C640 1.366 . S
C639 C641 1.388 . S
C640 C639 1.366 . S
C640 C644 1.385 . S
C641 H616 0.951 . S
C641 C639 1.388 . S
C641 C642 1.366 . S
C642 C641 1.366 . S
C642 C643 1.414 . S
C642 C645 1.499 . S
C643 H617 0.950 . S
C643 C642 1.414 . S
C643 C644 1.374 . S
C644 H618 0.950 . S
C644 C640 1.385 . S
C644 C643 1.374 . S
C645 C642 1.499 . S
C645 C646 1.373 . S
C645 C647 1.389 . S
C646 H619 0.950 . S
C646 C632 1.377 . S
C646 C645 1.373 . S
C647 C631 1.377 . S
C647 C645 1.389 . S
C647 C648 1.524 . S
C648 C647 1.524 . S
C648 C649 1.397 . S
C648 C653 1.363 1_556 S
C649 H620 0.950 . S
C649 C648 1.397 . S
C649 C650 1.347 . S
C650 H621 0.957 . S
C650 C649 1.347 . S
C650 C651 1.267 1_556 S
C651 C650 1.267 1_554 S
C651 C652 1.524 . S
C651 H654 0.999 . S
C652 H622 0.950 . S
C652 C651 1.524 . S
C652 C653 1.415 . S
C653 H623 0.950 . S
C653 C648 1.363 1_554 S
C653 C652 1.415 . S
H654 C651 0.999 . S
H655 C636 0.913 . S
H656 C674 0.951 . S
H657 C676 0.951 . S
H658 C678 0.950 . S
H659 C679 0.950 . S
H660 C681 0.950 . S
H661 C684 0.950 1_554 S
H662 C685 0.950 . S
H663 C687 0.950 . S
H664 C688 0.950 . S
H665 C689 0.951 . S
H666 C691 0.951 . S
H667 C693 0.950 . S
H668 C694 0.950 . S
H669 C696 0.950 . S
H670 C699 0.950 . S
H671 C700 0.950 . S
H672 C702 0.950 . S
H673 C703 0.950 . S
C674 H656 0.951 . S
C674 C675 1.366 . S
C674 C676 1.388 . S
C675 C674 1.366 . S
C675 C679 1.385 . S
C676 H657 0.951 . S
C676 C674 1.388 . S
C676 C677 1.366 . S
C677 C676 1.366 . S
C677 C678 1.414 . S
C677 C680 1.499 . S
C678 H658 0.950 . S
C678 C677 1.414 . S
C678 C679 1.374 . S
C679 H659 0.950 . S
C679 C675 1.385 . S
C679 C678 1.374 . S
C680 C677 1.499 . S
C680 C681 1.373 . S
C680 C682 1.389 . S
C681 H660 0.950 . S
C681 C680 1.373 . S
C681 C697 1.377 . S
C682 C680 1.389 . S
C682 C683 1.524 1_554 S
C682 C696 1.377 . S
C683 C682 1.524 1_556 S
C683 C684 1.397 . S
C683 C688 1.363 . S
C684 H661 0.950 1_556 S
C684 C683 1.397 . S
C684 C685 1.334 . S
C685 H662 0.950 . S
C685 C684 1.334 . S
C685 C686 1.287 . S
C686 C685 1.287 . S
C686 C687 1.524 . S
C686 H705 0.913 . S
C687 H663 0.950 . S
C687 C686 1.524 . S
C687 C688 1.415 . S
C688 H664 0.950 . S
C688 C683 1.363 . S
C688 C687 1.415 . S
C689 H665 0.951 . S
C689 C690 1.366 . S
C689 C691 1.388 . S
C690 C689 1.366 . S
C690 C694 1.385 . S
C691 H666 0.951 . S
C691 C689 1.388 . S
C691 C692 1.366 . S
C692 C691 1.366 . S
C692 C693 1.414 . S
C692 C695 1.499 . S
C693 H667 0.950 . S
C693 C692 1.414 . S
C693 C694 1.374 . S
C694 H668 0.950 . S
C694 C690 1.385 . S
C694 C693 1.374 . S
C695 C692 1.499 . S
C695 C696 1.373 . S
C695 C697 1.389 . S
C696 H669 0.950 . S
C696 C682 1.377 . S
C696 C695 1.373 . S
C697 C681 1.377 . S
C697 C695 1.389 . S
C697 C698 1.524 . S
C698 C697 1.524 . S
C698 C699 1.397 . S
C698 C703 1.363 . S
C699 H670 0.950 . S
C699 C698 1.397 . S
C699 C700 1.334 . S
C700 H671 0.950 . S
C700 C699 1.334 . S
C700 C701 1.287 . S
C701 C700 1.287 . S
C701 C702 1.524 . S
C701 H704 0.999 . S
C702 H672 0.950 . S
C702 C701 1.524 . S
C702 C703 1.415 . S
C703 H673 0.950 . S
C703 C698 1.363 . S
C703 C702 1.415 . S
H704 C701 0.999 . S
H705 C686 0.913 . S
H706 C724 0.951 . S
H707 C726 0.951 . S
H708 C728 0.950 . S
H709 C729 0.950 . S
H710 C731 0.950 . S
H711 C734 0.950 . S
H712 C735 0.950 . S
H713 C737 0.950 . S
H714 C738 0.950 . S
H715 C739 0.951 . S
H716 C741 0.951 . S
H717 C743 0.950 . S
H718 C744 0.950 . S
H719 C746 0.950 . S
H720 C749 0.950 . S
H721 C750 0.950 . S
H722 C752 0.950 . S
H723 C753 0.950 . S
C724 H706 0.951 . S
C724 C725 1.366 . S
C724 C726 1.388 . S
C725 C724 1.366 . S
C725 C729 1.385 . S
C726 H707 0.951 . S
C726 C724 1.388 . S
C726 C727 1.366 . S
C727 C726 1.366 . S
C727 C728 1.414 . S
C727 C730 1.499 . S
C728 H708 0.950 . S
C728 C727 1.414 . S
C728 C729 1.374 . S
C729 H709 0.950 . S
C729 C725 1.385 . S
C729 C728 1.374 . S
C730 C727 1.499 . S
C730 C731 1.373 . S
C730 C732 1.389 . S
C731 H710 0.950 . S
C731 C730 1.373 . S
C731 C747 1.377 . S
C732 C730 1.389 . S
C732 C733 1.524 . S
C732 C746 1.377 . S
C733 C732 1.524 . S
C733 C734 1.397 . S
C733 C738 1.363 . S
C734 H711 0.950 . S
C734 C733 1.397 . S
C734 C735 1.334 . S
C735 H712 0.950 . S
C735 C734 1.334 . S
C735 C736 1.287 . S
C736 C735 1.287 . S
C736 C737 1.524 . S
C736 H755 0.913 . S
C737 H713 0.950 . S
C737 C736 1.524 . S
C737 C738 1.415 . S
C738 H714 0.950 . S
C738 C733 1.363 . S
C738 C737 1.415 . S
C739 H715 0.951 . S
C739 C740 1.366 . S
C739 C741 1.388 . S
C740 C739 1.366 . S
C740 C744 1.385 . S
C741 H716 0.951 . S
C741 C739 1.388 . S
C741 C742 1.366 . S
C742 C741 1.366 . S
C742 C743 1.414 . S
C742 C745 1.499 . S
C743 H717 0.950 . S
C743 C742 1.414 . S
C743 C744 1.374 . S
C744 H718 0.950 . S
C744 C740 1.385 . S
C744 C743 1.374 . S
C745 C742 1.499 . S
C745 C746 1.373 . S
C745 C747 1.389 . S
C746 H719 0.950 . S
C746 C732 1.377 . S
C746 C745 1.373 . S
C747 C731 1.377 . S
C747 C745 1.389 . S
C747 C748 1.524 . S
C748 C747 1.524 . S
C748 C749 1.397 . S
C748 C753 1.363 . S
C749 H720 0.950 . S
C749 C748 1.397 . S
C749 C750 1.334 . S
C750 H721 0.950 . S
C750 C749 1.334 . S
C750 C751 1.287 . S
C751 C750 1.287 . S
C751 C752 1.524 . S
C751 H754 0.999 . S
C752 H722 0.950 . S
C752 C751 1.524 . S
C752 C753 1.415 . S
C753 H723 0.950 . S
C753 C748 1.363 . S
C753 C752 1.415 . S
H754 C751 0.999 . S
H755 C736 0.913 . S
H756 C774 0.951 . S
H757 C776 0.951 . S
H758 C778 0.950 . S
H759 C779 0.950 . S
H760 C781 0.950 . S
H761 C784 0.950 . S
H762 C785 0.950 . S
H763 C787 0.950 . S
H764 C788 0.950 . S
H765 C789 0.951 . S
H766 C791 0.951 . S
H767 C793 0.950 . S
H768 C794 0.950 . S
H769 C796 0.950 . S
H770 C799 0.950 . S
H771 C800 0.950 . S
H772 C802 0.950 . S
H773 C803 0.950 . S
C774 H756 0.951 . S
C774 C775 1.366 . S
C774 C776 1.388 . S
C775 C774 1.366 . S
C775 C779 1.385 . S
C776 H757 0.951 . S
C776 C774 1.388 . S
C776 C777 1.366 . S
C777 C776 1.366 . S
C777 C778 1.414 . S
C777 C780 1.499 . S
C778 H758 0.950 . S
C778 C777 1.414 . S
C778 C779 1.374 . S
C779 H759 0.950 . S
C779 C775 1.385 . S
C779 C778 1.374 . S
C780 C777 1.499 . S
C780 C781 1.373 . S
C780 C782 1.389 . S
C781 H760 0.950 . S
C781 C780 1.373 . S
C781 C797 1.377 . S
C782 C780 1.389 . S
C782 C783 1.524 . S
C782 C796 1.377 . S
C783 C782 1.524 . S
C783 C784 1.397 . S
C783 C788 1.363 . S
C784 H761 0.950 . S
C784 C783 1.397 . S
C784 C785 1.334 . S
C785 H762 0.950 . S
C785 C784 1.334 . S
C785 C786 1.287 . S
C786 C785 1.287 . S
C786 C787 1.524 . S
C786 H805 0.913 . S
C787 H763 0.950 . S
C787 C786 1.524 . S
C787 C788 1.415 . S
C788 H764 0.950 . S
C788 C783 1.363 . S
C788 C787 1.415 . S
C789 H765 0.951 . S
C789 C790 1.366 . S
C789 C791 1.388 . S
C790 C789 1.366 . S
C790 C794 1.385 . S
C791 H766 0.951 . S
C791 C789 1.388 . S
C791 C792 1.366 . S
C792 C791 1.366 . S
C792 C793 1.414 . S
C792 C795 1.499 . S
C793 H767 0.950 . S
C793 C792 1.414 . S
C793 C794 1.374 . S
C794 H768 0.950 . S
C794 C790 1.385 . S
C794 C793 1.374 . S
C795 C792 1.499 . S
C795 C796 1.373 . S
C795 C797 1.389 . S
C796 H769 0.950 . S
C796 C782 1.377 . S
C796 C795 1.373 . S
C797 C781 1.377 . S
C797 C795 1.389 . S
C797 C798 1.524 . S
C798 C797 1.524 . S
C798 C799 1.397 . S
C798 C803 1.363 . S
C799 H770 0.950 . S
C799 C798 1.397 . S
C799 C800 1.334 . S
C800 H771 0.950 . S
C800 C799 1.334 . S
C800 C801 1.287 . S
C801 C800 1.287 . S
C801 C802 1.524 . S
C801 H804 0.999 . S
C802 H772 0.950 . S
C802 C801 1.524 . S
C802 C803 1.415 . S
C803 H773 0.950 . S
C803 C798 1.363 . S
C803 C802 1.415 . S
H804 C801 0.999 . S
H805 C786 0.913 . S
H806 C824 0.951 . S
H807 C826 0.951 . S
H808 C828 0.950 . S
H809 C829 0.950 . S
H810 C831 0.950 . S
H811 C834 0.950 . S
H812 C835 0.950 . S
H813 C837 0.950 . S
H814 C838 0.950 . S
H815 C839 0.951 . S
H816 C841 0.951 . S
H817 C843 0.950 . S
H818 C844 0.950 . S
H819 C846 0.950 . S
H820 C849 0.950 . S
H821 C850 0.950 . S
H822 C852 0.950 . S
H823 C853 0.950 . S
C824 H806 0.951 . S
C824 C825 1.366 . S
C824 C826 1.388 . S
C825 C824 1.366 . S
C825 C829 1.385 . S
C826 H807 0.951 . S
C826 C824 1.388 . S
C826 C827 1.366 . S
C827 C826 1.366 . S
C827 C828 1.414 . S
C827 C830 1.499 . S
C828 H808 0.950 . S
C828 C827 1.414 . S
C828 C829 1.374 . S
C829 H809 0.950 . S
C829 C825 1.385 . S
C829 C828 1.374 . S
C830 C827 1.499 . S
C830 C831 1.373 1_655 S
C830 C832 1.389 . S
C831 H810 0.950 . S
C831 C830 1.373 1_455 S
C831 C847 1.377 . S
C832 C830 1.389 . S
C832 C833 1.524 . S
C832 C846 1.377 . S
C833 C832 1.524 . S
C833 C834 1.397 . S
C833 C838 1.363 . S
C834 H811 0.950 . S
C834 C833 1.397 . S
C834 C835 1.334 . S
C835 H812 0.950 . S
C835 C834 1.334 . S
C835 C836 1.287 . S
C836 C835 1.287 . S
C836 C837 1.524 . S
C836 H855 0.913 . S
C837 H813 0.950 . S
C837 C836 1.524 . S
C837 C838 1.415 . S
C838 H814 0.950 . S
C838 C833 1.363 . S
C838 C837 1.415 . S
C839 H815 0.951 . S
C839 C840 1.366 . S
C839 C841 1.388 . S
C840 C839 1.366 . S
C840 C844 1.385 . S
C841 H816 0.951 . S
C841 C839 1.388 . S
C841 C842 1.366 . S
C842 C841 1.366 . S
C842 C843 1.414 . S
C842 C845 1.499 . S
C843 H817 0.950 . S
C843 C842 1.414 . S
C843 C844 1.374 . S
C844 H818 0.950 . S
C844 C840 1.385 . S
C844 C843 1.374 . S
C845 C842 1.499 . S
C845 C846 1.373 1_455 S
C845 C847 1.389 . S
C846 H819 0.950 . S
C846 C832 1.377 . S
C846 C845 1.373 1_655 S
C847 C831 1.377 . S
C847 C845 1.389 . S
C847 C848 1.524 . S
C848 C847 1.524 . S
C848 C849 1.397 . S
C848 C853 1.363 . S
C849 H820 0.950 . S
C849 C848 1.397 . S
C849 C850 1.334 . S
C850 H821 0.950 . S
C850 C849 1.334 . S
C850 C851 1.287 . S
C851 C850 1.287 . S
C851 C852 1.524 . S
C851 H854 0.999 . S
C852 H822 0.950 . S
C852 C851 1.524 . S
C852 C853 1.415 . S
C853 H823 0.950 . S
C853 C848 1.363 . S
C853 C852 1.415 . S
H854 C851 0.999 . S
H855 C836 0.913 . S
H856 C874 0.951 . S
H857 C876 0.951 . S
H858 C878 0.950 . S
H859 C879 0.950 . S
H860 C881 0.950 . S
H861 C884 0.950 . S
H862 C885 0.950 . S
H863 C887 0.950 . S
H864 C888 0.950 . S
H865 C889 0.951 . S
H866 C891 0.951 . S
H867 C893 0.950 . S
H868 C894 0.950 . S
H869 C896 0.950 . S
H870 C899 0.950 . S
H871 C900 0.950 . S
H872 C902 0.950 . S
H873 C903 0.950 . S
C874 H856 0.951 . S
C874 C875 1.366 . S
C874 C876 1.388 . S
C875 C874 1.366 . S
C875 C879 1.385 . S
C876 H857 0.951 . S
C876 C874 1.388 . S
C876 C877 1.366 . S
C877 C876 1.366 . S
C877 C878 1.414 . S
C877 C880 1.499 . S
C878 H858 0.950 . S
C878 C877 1.414 . S
C878 C879 1.374 . S
C879 H859 0.950 . S
C879 C875 1.385 . S
C879 C878 1.374 . S
C880 C877 1.499 . S
C880 C881 1.373 . S
C880 C882 1.389 1_565 S
C881 H860 0.950 . S
C881 C880 1.373 . S
C881 C897 1.377 1_554 S
C882 C880 1.389 1_545 S
C882 C883 1.524 . S
C882 C896 1.377 1_554 S
C883 C882 1.524 . S
C883 C884 1.397 . S
C883 C888 1.363 . S
C884 H861 0.950 . S
C884 C883 1.397 . S
C884 C885 1.334 . S
C885 H862 0.950 . S
C885 C884 1.334 . S
C885 C886 1.287 . S
C886 C885 1.287 . S
C886 C887 1.524 . S
C886 H905 0.913 . S
C887 H863 0.950 . S
C887 C886 1.524 . S
C887 C888 1.415 . S
C888 H864 0.950 . S
C888 C883 1.363 . S
C888 C887 1.415 . S
C889 H865 0.951 . S
C889 C890 1.366 . S
C889 C891 1.388 . S
C890 C889 1.366 . S
C890 C894 1.385 . S
C891 H866 0.951 . S
C891 C889 1.388 . S
C891 C892 1.366 . S
C892 C891 1.366 . S
C892 C893 1.414 . S
C892 C895 1.499 . S
C893 H867 0.950 . S
C893 C892 1.414 . S
C893 C894 1.374 . S
C894 H868 0.950 . S
C894 C890 1.385 . S
C894 C893 1.374 . S
C895 C892 1.499 . S
C895 C896 1.373 . S
C895 C897 1.389 1_545 S
C896 H869 0.950 . S
C896 C882 1.377 1_556 S
C896 C895 1.373 . S
C897 C881 1.377 1_556 S
C897 C895 1.389 1_565 S
C897 C898 1.524 . S
C898 C897 1.524 . S
C898 C899 1.397 . S
C898 C903 1.363 . S
C899 H870 0.950 . S
C899 C898 1.397 . S
C899 C900 1.334 . S
C900 H871 0.950 . S
C900 C899 1.334 . S
C900 C901 1.287 . S
C901 C900 1.287 . S
C901 C902 1.524 . S
C901 H904 0.999 . S
C902 H872 0.950 . S
C902 C901 1.524 . S
C902 C903 1.415 . S
C903 H873 0.950 . S
C903 C898 1.363 . S
C903 C902 1.415 . S
H904 C901 0.999 . S
H905 C886 0.913 . S
H906 C924 0.951 1_556 S
H907 C926 0.951 . S
H908 C928 0.950 . S
H909 C929 0.950 . S
H910 C931 0.950 . S
H911 C934 0.950 . S
H912 C935 0.950 . S
H913 C937 0.950 . S
H914 C938 0.950 . S
H915 C939 0.951 . S
H916 C941 0.951 . S
H917 C943 0.950 . S
H918 C944 0.950 . S
H919 C946 0.950 . S
H920 C949 0.950 . S
H921 C950 0.950 . S
H922 C952 0.950 . S
H923 C953 0.950 . S
C924 H906 0.951 1_554 S
C924 C925 1.366 . S
C924 C926 1.388 . S
C925 C924 1.366 . S
C925 C929 1.385 . S
C926 H907 0.951 . S
C926 C924 1.388 . S
C926 C927 1.366 . S
C927 C926 1.366 . S
C927 C928 1.414 . S
C927 C930 1.499 . S
C928 H908 0.950 . S
C928 C927 1.414 . S
C928 C929 1.374 . S
C929 H909 0.950 . S
C929 C925 1.385 . S
C929 C928 1.374 . S
C930 C927 1.499 . S
C930 C931 1.373 . S
C930 C932 1.389 . S
C931 H910 0.950 . S
C931 C930 1.373 . S
C931 C947 1.377 . S
C932 C930 1.389 . S
C932 C933 1.524 . S
C932 C946 1.377 . S
C933 C932 1.524 . S
C933 C934 1.397 . S
C933 C938 1.363 . S
C934 H911 0.950 . S
C934 C933 1.397 . S
C934 C935 1.334 . S
C935 H912 0.950 . S
C935 C934 1.334 . S
C935 C936 1.287 . S
C936 C935 1.287 . S
C936 C937 1.524 . S
C936 H955 0.913 . S
C937 H913 0.950 . S
C937 C936 1.524 . S
C937 C938 1.415 . S
C938 H914 0.950 . S
C938 C933 1.363 . S
C938 C937 1.415 . S
C939 H915 0.951 . S
C939 C940 1.366 . S
C939 C941 1.388 . S
C940 C939 1.366 . S
C940 C944 1.385 . S
C941 H916 0.951 . S
C941 C939 1.388 . S
C941 C942 1.366 . S
C942 C941 1.366 . S
C942 C943 1.414 . S
C942 C945 1.499 . S
C943 H917 0.950 . S
C943 C942 1.414 . S
C943 C944 1.374 . S
C944 H918 0.950 . S
C944 C940 1.385 . S
C944 C943 1.374 . S
C945 C942 1.499 . S
C945 C946 1.373 . S
C945 C947 1.389 . S
C946 H919 0.950 . S
C946 C932 1.377 . S
C946 C945 1.373 . S
C947 C931 1.377 . S
C947 C945 1.389 . S
C947 C948 1.524 . S
C948 C947 1.524 . S
C948 C949 1.397 . S
C948 C953 1.363 . S
C949 H920 0.950 . S
C949 C948 1.397 . S
C949 C950 1.334 . S
C950 H921 0.950 . S
C950 C949 1.334 . S
C950 C951 1.287 . S
C951 C950 1.287 . S
C951 C952 1.524 . S
C951 H954 0.999 . S
C952 H922 0.950 . S
C952 C951 1.524 . S
C952 C953 1.415 . S
C953 H923 0.950 . S
C953 C948 1.363 . S
C953 C952 1.415 . S
H954 C951 0.999 . S
H955 C936 0.913 . S
H956 C974 0.951 . S
H957 C976 0.951 . S
H958 C978 0.950 . S
H959 C979 0.950 . S
H960 C981 0.950 . S
H961 C984 0.950 . S
H962 C985 0.950 . S
H963 C987 0.950 . S
H964 C988 0.950 . S
H965 C989 0.951 . S
H966 C991 0.951 . S
H967 C993 0.950 . S
H968 C994 0.950 . S
H969 C996 0.950 . S
H970 C999 0.950 . S
H971 C1000 0.950 . S
H972 C1002 0.950 . S
H973 C1003 0.950 . S
C974 H956 0.951 . S
C974 C975 1.366 . S
C974 C976 1.388 . S
C975 C974 1.366 . S
C975 C979 1.385 . S
C976 H957 0.951 . S
C976 C974 1.388 . S
C976 C977 1.366 . S
C977 C976 1.366 . S
C977 C978 1.414 . S
C977 C980 1.499 . S
C978 H958 0.950 . S
C978 C977 1.414 . S
C978 C979 1.374 . S
C979 H959 0.950 . S
C979 C975 1.385 . S
C979 C978 1.374 . S
C980 C977 1.499 . S
C980 C981 1.373 1_455 S
C980 C982 1.389 . S
C981 H960 0.950 . S
C981 C980 1.373 1_655 S
C981 C997 1.377 . S
C982 C980 1.389 . S
C982 C983 1.524 . S
C982 C996 1.377 . S
C983 C982 1.524 . S
C983 C984 1.397 . S
C983 C988 1.363 . S
C984 H961 0.950 . S
C984 C983 1.397 . S
C984 C985 1.334 . S
C985 H962 0.950 . S
C985 C984 1.334 . S
C985 C986 1.287 . S
C986 C985 1.287 . S
C986 C987 1.524 . S
C986 H1005 0.913 . S
C987 H963 0.950 . S
C987 C986 1.524 . S
C987 C988 1.415 . S
C988 H964 0.950 . S
C988 C983 1.363 . S
C988 C987 1.415 . S
C989 H965 0.951 . S
C989 C990 1.366 . S
C989 C991 1.388 . S
C990 C989 1.366 . S
C990 C994 1.385 . S
C991 H966 0.951 . S
C991 C989 1.388 . S
C991 C992 1.366 . S
C992 C991 1.366 . S
C992 C993 1.414 . S
C992 C995 1.499 . S
C993 H967 0.950 . S
C993 C992 1.414 . S
C993 C994 1.374 . S
C994 H968 0.950 . S
C994 C990 1.385 . S
C994 C993 1.374 . S
C995 C992 1.499 . S
C995 C996 1.373 1_655 S
C995 C997 1.389 . S
C996 H969 0.950 . S
C996 C982 1.377 . S
C996 C995 1.373 1_455 S
C997 C981 1.377 . S
C997 C995 1.389 . S
C997 C998 1.524 . S
C998 C997 1.524 . S
C998 C999 1.397 . S
C998 C1003 1.363 . S
C999 H970 0.950 . S
C999 C998 1.397 . S
C999 C1000 1.334 . S
C1000 H971 0.950 . S
C1000 C999 1.334 . S
C1000 C1001 1.287 . S
C1001 C1000 1.287 . S
C1001 C1002 1.524 . S
C1001 H1004 0.999 . S
C1002 H972 0.950 . S
C1002 C1001 1.524 . S
C1002 C1003 1.415 . S
C1003 H973 0.950 . S
C1003 C998 1.363 . S
C1003 C1002 1.415 . S
H1004 C1001 0.999 . S
H1005 C986 0.913 . S
H1006 C1024 0.951 . S
H1007 C1026 0.951 . S
H1008 C1028 0.950 . S
H1009 C1029 0.950 . S
H1010 C1031 0.950 . S
H1011 C1034 0.950 . S
H1012 C1035 0.939 1_565 S
H1013 C1037 0.950 . S
H1014 C1038 0.950 . S
H1015 C1039 0.951 . S
H1016 C1041 0.951 . S
H1017 C1043 0.950 . S
H1018 C1044 0.950 . S
H1019 C1046 0.950 . S
H1020 C1049 0.950 . S
H1021 C1050 0.938 1_545 S
H1022 C1052 0.950 . S
H1023 C1053 0.950 . S
C1024 H1006 0.951 . S
C1024 C1025 1.366 . S
C1024 C1026 1.388 . S
C1025 C1024 1.366 . S
C1025 C1029 1.385 . S
C1026 H1007 0.951 . S
C1026 C1024 1.388 . S
C1026 C1027 1.366 . S
C1027 C1026 1.366 . S
C1027 C1028 1.414 . S
C1027 C1030 1.499 . S
C1028 H1008 0.950 . S
C1028 C1027 1.414 . S
C1028 C1029 1.374 . S
C1029 H1009 0.950 . S
C1029 C1025 1.385 . S
C1029 C1028 1.374 . S
C1030 C1027 1.499 . S
C1030 C1031 1.373 . S
C1030 C1032 1.389 1_565 S
C1031 H1010 0.950 . S
C1031 C1030 1.373 . S
C1031 C1047 1.377 . S
C1032 C1030 1.389 1_545 S
C1032 C1033 1.524 . S
C1032 C1046 1.377 . S
C1033 C1032 1.524 . S
C1033 C1034 1.397 1_545 S
C1033 C1038 1.363 . S
C1034 H1011 0.950 . S
C1034 C1033 1.397 1_565 S
C1034 C1035 1.336 1_565 S
C1035 H1012 0.939 1_545 S
C1035 C1034 1.336 1_545 S
C1035 C1036 1.296 . S
C1036 C1035 1.296 . S
C1036 C1037 1.524 . S
C1036 H1055 0.913 . S
C1037 H1013 0.950 . S
C1037 C1036 1.524 . S
C1037 C1038 1.415 . S
C1038 H1014 0.950 . S
C1038 C1033 1.363 . S
C1038 C1037 1.415 . S
C1039 H1015 0.951 . S
C1039 C1040 1.366 . S
C1039 C1041 1.388 . S
C1040 C1039 1.366 . S
C1040 C1044 1.385 . S
C1041 H1016 0.951 . S
C1041 C1039 1.388 . S
C1041 C1042 1.366 . S
C1042 C1041 1.366 . S
C1042 C1043 1.414 . S
C1042 C1045 1.499 . S
C1043 H1017 0.950 . S
C1043 C1042 1.414 . S
C1043 C1044 1.374 . S
C1044 H1018 0.950 . S
C1044 C1040 1.385 . S
C1044 C1043 1.374 . S
C1045 C1042 1.499 . S
C1045 C1046 1.373 . S
C1045 C1047 1.389 1_545 S
C1046 H1019 0.950 . S
C1046 C1032 1.377 . S
C1046 C1045 1.373 . S
C1047 C1031 1.377 . S
C1047 C1045 1.389 1_565 S
C1047 C1048 1.524 . S
C1048 C1047 1.524 . S
C1048 C1049 1.397 1_565 S
C1048 C1053 1.363 . S
C1049 H1020 0.950 . S
C1049 C1048 1.397 1_545 S
C1049 C1050 1.336 1_545 S
C1050 H1021 0.938 1_565 S
C1050 C1049 1.336 1_565 S
C1050 C1051 1.297 . S
C1051 C1050 1.297 . S
C1051 C1052 1.524 . S
C1051 H1054 0.999 . S
C1052 H1022 0.950 . S
C1052 C1051 1.524 . S
C1052 C1053 1.415 . S
C1053 H1023 0.950 . S
C1053 C1048 1.363 . S
C1053 C1052 1.415 . S
H1054 C1051 0.999 . S
H1055 C1036 0.913 . S
H1056 C1074 0.951 . S
H1057 C1076 0.951 . S
H1058 C1078 0.950 . S
H1059 C1079 0.950 . S
H1060 C1081 0.950 . S
H1061 C1084 0.950 . S
H1062 C1085 0.950 . S
H1063 C1087 0.950 . S
H1064 C1088 0.950 . S
H1065 C1089 0.951 . S
H1066 C1091 0.951 . S
H1067 C1093 0.950 . S
H1068 C1094 0.950 . S
H1069 C1096 0.950 . S
H1070 C1099 0.950 . S
H1071 C1100 0.950 . S
H1072 C1102 0.950 . S
H1073 C1103 0.950 . S
C1074 H1056 0.951 . S
C1074 C1075 1.366 . S
C1074 C1076 1.388 . S
C1075 C1074 1.366 . S
C1075 C1079 1.385 . S
C1076 H1057 0.951 . S
C1076 C1074 1.388 . S
C1076 C1077 1.366 . S
C1077 C1076 1.366 . S
C1077 C1078 1.414 . S
C1077 C1080 1.499 . S
C1078 H1058 0.950 . S
C1078 C1077 1.414 . S
C1078 C1079 1.374 . S
C1079 H1059 0.950 . S
C1079 C1075 1.385 . S
C1079 C1078 1.374 . S
C1080 C1077 1.499 . S
C1080 C1081 1.373 . S
C1080 C1082 1.389 . S
C1081 H1060 0.950 . S
C1081 C1080 1.373 . S
C1081 C1097 1.377 . S
C1082 C1080 1.389 . S
C1082 C1083 1.524 . S
C1082 C1096 1.377 . S
C1083 C1082 1.524 . S
C1083 C1084 1.397 . S
C1083 C1088 1.363 . S
C1084 H1061 0.950 . S
C1084 C1083 1.397 . S
C1084 C1085 1.334 . S
C1085 H1062 0.950 . S
C1085 C1084 1.334 . S
C1085 C1086 1.287 . S
C1086 C1085 1.287 . S
C1086 C1087 1.524 . S
C1086 H1105 0.913 . S
C1087 H1063 0.950 . S
C1087 C1086 1.524 . S
C1087 C1088 1.415 . S
C1088 H1064 0.950 . S
C1088 C1083 1.363 . S
C1088 C1087 1.415 . S
C1089 H1065 0.951 . S
C1089 C1090 1.366 . S
C1089 C1091 1.388 . S
C1090 C1089 1.366 . S
C1090 C1094 1.385 . S
C1091 H1066 0.951 . S
C1091 C1089 1.388 . S
C1091 C1092 1.366 . S
C1092 C1091 1.366 . S
C1092 C1093 1.414 . S
C1092 C1095 1.499 . S
C1093 H1067 0.950 . S
C1093 C1092 1.414 . S
C1093 C1094 1.374 . S
C1094 H1068 0.950 . S
C1094 C1090 1.385 . S
C1094 C1093 1.374 . S
C1095 C1092 1.499 . S
C1095 C1096 1.373 . S
C1095 C1097 1.389 . S
C1096 H1069 0.950 . S
C1096 C1082 1.377 . S
C1096 C1095 1.373 . S
C1097 C1081 1.377 . S
C1097 C1095 1.389 . S
C1097 C1098 1.524 . S
C1098 C1097 1.524 . S
C1098 C1099 1.397 . S
C1098 C1103 1.363 . S
C1099 H1070 0.950 . S
C1099 C1098 1.397 . S
C1099 C1100 1.334 . S
C1100 H1071 0.950 . S
C1100 C1099 1.334 . S
C1100 C1101 1.287 . S
C1101 C1100 1.287 . S
C1101 C1102 1.524 . S
C1101 H1104 0.999 . S
C1102 H1072 0.950 . S
C1102 C1101 1.524 . S
C1102 C1103 1.415 . S
C1103 H1073 0.950 . S
C1103 C1098 1.363 . S
C1103 C1102 1.415 . S
H1104 C1101 0.999 . S
H1105 C1086 0.913 . S
H1106 C1124 0.951 . S
H1107 C1126 0.951 . S
H1108 C1128 0.950 . S
H1109 C1129 0.950 . S
H1110 C1131 0.950 . S
H1111 C1134 0.950 . S
H1112 C1135 0.950 . S
H1113 C1137 0.950 . S
H1114 C1138 0.950 . S
H1115 C1139 0.951 . S
H1116 C1141 0.951 . S
H1117 C1143 0.950 . S
H1118 C1144 0.950 . S
H1119 C1146 0.950 . S
H1120 C1149 0.950 . S
H1121 C1150 0.950 . S
H1122 C1152 0.950 . S
H1123 C1153 0.950 . S
C1124 H1106 0.951 . S
C1124 C1125 1.366 . S
C1124 C1126 1.388 . S
C1125 C1124 1.366 . S
C1125 C1129 1.385 . S
C1126 H1107 0.951 . S
C1126 C1124 1.388 . S
C1126 C1127 1.366 . S
C1127 C1126 1.366 . S
C1127 C1128 1.414 . S
C1127 C1130 1.499 . S
C1128 H1108 0.950 . S
C1128 C1127 1.414 . S
C1128 C1129 1.374 . S
C1129 H1109 0.950 . S
C1129 C1125 1.385 . S
C1129 C1128 1.374 . S
C1130 C1127 1.499 . S
C1130 C1131 1.373 . S
C1130 C1132 1.389 . S
C1131 H1110 0.950 . S
C1131 C1130 1.373 . S
C1131 C1147 1.377 . S
C1132 C1130 1.389 . S
C1132 C1133 1.524 . S
C1132 C1146 1.377 . S
C1133 C1132 1.524 . S
C1133 C1134 1.397 . S
C1133 C1138 1.363 . S
C1134 H1111 0.950 . S
C1134 C1133 1.397 . S
C1134 C1135 1.334 . S
C1135 H1112 0.950 . S
C1135 C1134 1.334 . S
C1135 C1136 1.287 . S
C1136 C1135 1.287 . S
C1136 C1137 1.524 . S
C1136 H1155 0.913 . S
C1137 H1113 0.950 . S
C1137 C1136 1.524 . S
C1137 C1138 1.415 . S
C1138 H1114 0.950 . S
C1138 C1133 1.363 . S
C1138 C1137 1.415 . S
C1139 H1115 0.951 . S
C1139 C1140 1.366 . S
C1139 C1141 1.388 . S
C1140 C1139 1.366 . S
C1140 C1144 1.385 . S
C1141 H1116 0.951 . S
C1141 C1139 1.388 . S
C1141 C1142 1.366 . S
C1142 C1141 1.366 . S
C1142 C1143 1.414 . S
C1142 C1145 1.499 . S
C1143 H1117 0.950 . S
C1143 C1142 1.414 . S
C1143 C1144 1.374 . S
C1144 H1118 0.950 . S
C1144 C1140 1.385 . S
C1144 C1143 1.374 . S
C1145 C1142 1.499 . S
C1145 C1146 1.373 . S
C1145 C1147 1.389 . S
C1146 H1119 0.950 . S
C1146 C1132 1.377 . S
C1146 C1145 1.373 . S
C1147 C1131 1.377 . S
C1147 C1145 1.389 . S
C1147 C1148 1.524 . S
C1148 C1147 1.524 . S
C1148 C1149 1.397 . S
C1148 C1153 1.363 . S
C1149 H1120 0.950 . S
C1149 C1148 1.397 . S
C1149 C1150 1.334 . S
C1150 H1121 0.950 . S
C1150 C1149 1.334 . S
C1150 C1151 1.287 . S
C1151 C1150 1.287 . S
C1151 C1152 1.524 . S
C1151 H1154 0.999 . S
C1152 H1122 0.950 . S
C1152 C1151 1.524 . S
C1152 C1153 1.415 . S
C1153 H1123 0.950 . S
C1153 C1148 1.363 . S
C1153 C1152 1.415 . S
H1154 C1151 0.999 . S
H1155 C1136 0.913 . S
H1156 C1174 0.951 . S
H1157 C1176 0.951 . S
H1158 C1178 0.950 . S
H1159 C1179 0.950 . S
H1160 C1181 0.950 . S
H1161 C1184 0.950 . S
H1162 C1185 0.950 . S
H1163 C1187 0.950 . S
H1164 C1188 0.950 . S
H1165 C1189 0.951 . S
H1166 C1191 0.951 . S
H1167 C1193 0.950 . S
H1168 C1194 0.950 . S
H1169 C1196 0.950 . S
H1170 C1199 0.950 . S
H1171 C1200 0.950 . S
H1172 C1202 0.950 1_554 S
H1173 C1203 0.950 . S
C1174 H1156 0.951 . S
C1174 C1175 1.366 1_556 S
C1174 C1176 1.388 . S
C1175 C1174 1.366 1_554 S
C1175 C1179 1.385 . S
C1176 H1157 0.951 . S
C1176 C1174 1.388 . S
C1176 C1177 1.366 . S
C1177 C1176 1.366 . S
C1177 C1178 1.414 1_556 S
C1177 C1180 1.499 . S
C1178 H1158 0.950 . S
C1178 C1177 1.414 1_554 S
C1178 C1179 1.374 . S
C1179 H1159 0.950 . S
C1179 C1175 1.385 . S
C1179 C1178 1.374 . S
C1180 C1177 1.499 . S
C1180 C1181 1.373 . S
C1180 C1182 1.389 . S
C1181 H1160 0.950 . S
C1181 C1180 1.373 . S
C1181 C1197 1.377 . S
C1182 C1180 1.389 . S
C1182 C1183 1.524 . S
C1182 C1196 1.377 . S
C1183 C1182 1.524 . S
C1183 C1184 1.397 . S
C1183 C1188 1.363 . S
C1184 H1161 0.950 . S
C1184 C1183 1.397 . S
C1184 C1185 1.334 . S
C1185 H1162 0.950 . S
C1185 C1184 1.334 . S
C1185 C1186 1.287 . S
C1186 C1185 1.287 . S
C1186 C1187 1.524 . S
C1186 H1205 0.913 . S
C1187 H1163 0.950 . S
C1187 C1186 1.524 . S
C1187 C1188 1.415 . S
C1188 H1164 0.950 . S
C1188 C1183 1.363 . S
C1188 C1187 1.415 . S
C1189 H1165 0.951 . S
C1189 C1190 1.366 . S
C1189 C1191 1.388 . S
C1190 C1189 1.366 . S
C1190 C1194 1.385 . S
C1191 H1166 0.951 . S
C1191 C1189 1.388 . S
C1191 C1192 1.366 . S
C1192 C1191 1.366 . S
C1192 C1193 1.414 . S
C1192 C1195 1.499 . S
C1193 H1167 0.950 . S
C1193 C1192 1.414 . S
C1193 C1194 1.374 . S
C1194 H1168 0.950 . S
C1194 C1190 1.385 . S
C1194 C1193 1.374 . S
C1195 C1192 1.499 . S
C1195 C1196 1.373 . S
C1195 C1197 1.389 . S
C1196 H1169 0.950 . S
C1196 C1182 1.377 . S
C1196 C1195 1.373 . S
C1197 C1181 1.377 . S
C1197 C1195 1.389 . S
C1197 C1198 1.524 . S
C1198 C1197 1.524 . S
C1198 C1199 1.397 . S
C1198 C1203 1.363 . S
C1199 H1170 0.950 . S
C1199 C1198 1.397 . S
C1199 C1200 1.334 . S
C1200 H1171 0.950 . S
C1200 C1199 1.334 . S
C1200 C1201 1.287 . S
C1201 C1200 1.287 . S
C1201 C1202 1.524 . S
C1201 H1204 0.999 . S
C1202 H1172 0.950 1_556 S
C1202 C1201 1.524 . S
C1202 C1203 1.415 . S
C1203 H1173 0.950 . S
C1203 C1198 1.363 . S
C1203 C1202 1.415 . S
H1204 C1201 0.999 . S
H1205 C1186 0.913 . S
H1206 C1224 0.951 . S
H1207 C1226 0.951 . S
H1208 C1228 0.950 . S
H1209 C1229 0.950 . S
H1210 C1231 0.950 . S
H1211 C1234 0.950 . S
H1212 C1235 0.950 . S
H1213 C1237 0.950 . S
H1214 C1238 0.950 . S
H1215 C1239 0.951 . S
H1216 C1241 0.951 . S
H1217 C1243 0.950 . S
H1218 C1244 0.950 . S
H1219 C1246 0.950 . S
H1220 C1249 0.950 . S
H1221 C1250 0.950 . S
H1222 C1252 0.950 . S
H1223 C1253 0.950 . S
C1224 H1206 0.951 . S
C1224 C1225 1.366 . S
C1224 C1226 1.388 . S
C1225 C1224 1.366 . S
C1225 C1229 1.385 . S
C1226 H1207 0.951 . S
C1226 C1224 1.388 . S
C1226 C1227 1.366 . S
C1227 C1226 1.366 . S
C1227 C1228 1.414 . S
C1227 C1230 1.499 . S
C1228 H1208 0.950 . S
C1228 C1227 1.414 . S
C1228 C1229 1.374 . S
C1229 H1209 0.950 . S
C1229 C1225 1.385 . S
C1229 C1228 1.374 . S
C1230 C1227 1.499 . S
C1230 C1231 1.373 . S
C1230 C1232 1.389 . S
C1231 H1210 0.950 . S
C1231 C1230 1.373 . S
C1231 C1247 1.377 . S
C1232 C1230 1.389 . S
C1232 C1233 1.524 . S
C1232 C1246 1.377 . S
C1233 C1232 1.524 . S
C1233 C1234 1.397 . S
C1233 C1238 1.363 . S
C1234 H1211 0.950 . S
C1234 C1233 1.397 . S
C1234 C1235 1.334 . S
C1235 H1212 0.950 . S
C1235 C1234 1.334 . S
C1235 C1236 1.287 . S
C1236 C1235 1.287 . S
C1236 C1237 1.524 . S
C1236 H1255 0.913 . S
C1237 H1213 0.950 . S
C1237 C1236 1.524 . S
C1237 C1238 1.415 . S
C1238 H1214 0.950 . S
C1238 C1233 1.363 . S
C1238 C1237 1.415 . S
C1239 H1215 0.951 . S
C1239 C1240 1.366 . S
C1239 C1241 1.388 1_556 S
C1240 C1239 1.366 . S
C1240 C1244 1.385 . S
C1241 H1216 0.951 . S
C1241 C1239 1.388 1_554 S
C1241 C1242 1.366 . S
C1242 C1241 1.366 . S
C1242 C1243 1.414 . S
C1242 C1245 1.499 . S
C1243 H1217 0.950 . S
C1243 C1242 1.414 . S
C1243 C1244 1.374 1_554 S
C1244 H1218 0.950 . S
C1244 C1240 1.385 . S
C1244 C1243 1.374 1_556 S
C1245 C1242 1.499 . S
C1245 C1246 1.373 . S
C1245 C1247 1.389 . S
C1246 H1219 0.950 . S
C1246 C1232 1.377 . S
C1246 C1245 1.373 . S
C1247 C1231 1.377 . S
C1247 C1245 1.389 . S
C1247 C1248 1.524 . S
C1248 C1247 1.524 . S
C1248 C1249 1.397 . S
C1248 C1253 1.363 . S
C1249 H1220 0.950 . S
C1249 C1248 1.397 . S
C1249 C1250 1.334 . S
C1250 H1221 0.950 . S
C1250 C1249 1.334 . S
C1250 C1251 1.287 . S
C1251 C1250 1.287 . S
C1251 C1252 1.524 . S
C1251 H1254 0.999 . S
C1252 H1222 0.950 . S
C1252 C1251 1.524 . S
C1252 C1253 1.415 . S
C1253 H1223 0.950 . S
C1253 C1248 1.363 . S
C1253 C1252 1.415 . S
H1254 C1251 0.999 . S
H1255 C1236 0.913 . S
H1256 C1274 0.951 . S
H1257 C1276 0.951 . S
H1258 C1278 0.950 . S
H1259 C1279 0.950 . S
H1260 C1281 0.950 . S
H1261 C1284 0.950 . S
H1262 C1285 0.950 . S
H1263 C1287 0.950 . S
H1264 C1288 0.950 . S
H1265 C1289 0.951 . S
H1266 C1291 0.951 . S
H1267 C1293 0.950 . S
H1268 C1294 0.950 . S
H1269 C1296 0.950 . S
H1270 C1299 0.950 . S
H1271 C1300 0.950 . S
H1272 C1302 0.950 . S
H1273 C1303 0.950 . S
C1274 H1256 0.951 . S
C1274 C1275 1.366 . S
C1274 C1276 1.388 . S
C1275 C1274 1.366 . S
C1275 C1279 1.385 . S
C1276 H1257 0.951 . S
C1276 C1274 1.388 . S
C1276 C1277 1.366 . S
C1277 C1276 1.366 . S
C1277 C1278 1.414 . S
C1277 C1280 1.499 . S
C1278 H1258 0.950 . S
C1278 C1277 1.414 . S
C1278 C1279 1.374 . S
C1279 H1259 0.950 . S
C1279 C1275 1.385 . S
C1279 C1278 1.374 . S
C1280 C1277 1.499 . S
C1280 C1281 1.373 . S
C1280 C1282 1.389 . S
C1281 H1260 0.950 . S
C1281 C1280 1.373 . S
C1281 C1297 1.377 . S
C1282 C1280 1.389 . S
C1282 C1283 1.524 . S
C1282 C1296 1.377 . S
C1283 C1282 1.524 . S
C1283 C1284 1.397 . S
C1283 C1288 1.363 . S
C1284 H1261 0.950 . S
C1284 C1283 1.397 . S
C1284 C1285 1.334 . S
C1285 H1262 0.950 . S
C1285 C1284 1.334 . S
C1285 C1286 1.287 . S
C1286 C1285 1.287 . S
C1286 C1287 1.524 . S
C1286 H1305 0.913 . S
C1287 H1263 0.950 . S
C1287 C1286 1.524 . S
C1287 C1288 1.415 . S
C1288 H1264 0.950 . S
C1288 C1283 1.363 . S
C1288 C1287 1.415 . S
C1289 H1265 0.951 . S
C1289 C1290 1.366 . S
C1289 C1291 1.388 . S
C1290 C1289 1.366 . S
C1290 C1294 1.385 . S
C1291 H1266 0.951 . S
C1291 C1289 1.388 . S
C1291 C1292 1.366 . S
C1292 C1291 1.366 . S
C1292 C1293 1.414 . S
C1292 C1295 1.499 . S
C1293 H1267 0.950 . S
C1293 C1292 1.414 . S
C1293 C1294 1.374 . S
C1294 H1268 0.950 . S
C1294 C1290 1.385 . S
C1294 C1293 1.374 . S
C1295 C1292 1.499 . S
C1295 C1296 1.373 . S
C1295 C1297 1.389 . S
C1296 H1269 0.950 . S
C1296 C1282 1.377 . S
C1296 C1295 1.373 . S
C1297 C1281 1.377 . S
C1297 C1295 1.389 . S
C1297 C1298 1.524 . S
C1298 C1297 1.524 . S
C1298 C1299 1.397 . S
C1298 C1303 1.363 . S
C1299 H1270 0.950 . S
C1299 C1298 1.397 . S
C1299 C1300 1.334 . S
C1300 H1271 0.950 . S
C1300 C1299 1.334 . S
C1300 C1301 1.287 . S
C1301 C1300 1.287 . S
C1301 C1302 1.524 . S
C1301 H1304 0.999 . S
C1302 H1272 0.950 . S
C1302 C1301 1.524 . S
C1302 C1303 1.415 . S
C1303 H1273 0.950 . S
C1303 C1298 1.363 . S
C1303 C1302 1.415 . S
H1304 C1301 0.999 . S
H1305 C1286 0.913 . S
H1306 C1324 0.951 . S
H1307 C1326 0.951 . S
H1308 C1328 0.950 . S
H1309 C1329 0.950 . S
H1310 C1331 0.950 . S
H1311 C1334 0.950 . S
H1312 C1335 0.950 . S
H1313 C1337 0.950 . S
H1314 C1338 0.950 . S
H1315 C1339 0.951 . S
H1316 C1341 0.951 . S
H1317 C1343 0.950 . S
H1318 C1344 0.950 . S
H1319 C1346 0.950 . S
H1320 C1349 0.950 . S
H1321 C1350 0.950 . S
H1322 C1352 0.950 . S
H1323 C1353 0.950 . S
C1324 H1306 0.951 . S
C1324 C1325 1.366 . S
C1324 C1326 1.388 . S
C1325 C1324 1.366 . S
C1325 C1329 1.385 . S
C1326 H1307 0.951 . S
C1326 C1324 1.388 . S
C1326 C1327 1.366 . S
C1327 C1326 1.366 . S
C1327 C1328 1.414 . S
C1327 C1330 1.499 . S
C1328 H1308 0.950 . S
C1328 C1327 1.414 . S
C1328 C1329 1.374 . S
C1329 H1309 0.950 . S
C1329 C1325 1.385 . S
C1329 C1328 1.374 . S
C1330 C1327 1.499 . S
C1330 C1331 1.373 . S
C1330 C1332 1.389 . S
C1331 H1310 0.950 . S
C1331 C1330 1.373 . S
C1331 C1347 1.377 . S
C1332 C1330 1.389 . S
C1332 C1333 1.524 . S
C1332 C1346 1.377 . S
C1333 C1332 1.524 . S
C1333 C1334 1.397 . S
C1333 C1338 1.363 . S
C1334 H1311 0.950 . S
C1334 C1333 1.397 . S
C1334 C1335 1.334 . S
C1335 H1312 0.950 . S
C1335 C1334 1.334 . S
C1335 C1336 1.287 . S
C1336 C1335 1.287 . S
C1336 C1337 1.524 . S
C1336 H1355 0.913 . S
C1337 H1313 0.950 . S
C1337 C1336 1.524 . S
C1337 C1338 1.415 . S
C1338 H1314 0.950 . S
C1338 C1333 1.363 . S
C1338 C1337 1.415 . S
C1339 H1315 0.951 . S
C1339 C1340 1.366 . S
C1339 C1341 1.388 . S
C1340 C1339 1.366 . S
C1340 C1344 1.385 . S
C1341 H1316 0.951 . S
C1341 C1339 1.388 . S
C1341 C1342 1.366 . S
C1342 C1341 1.366 . S
C1342 C1343 1.414 . S
C1342 C1345 1.499 . S
C1343 H1317 0.950 . S
C1343 C1342 1.414 . S
C1343 C1344 1.374 . S
C1344 H1318 0.950 . S
C1344 C1340 1.385 . S
C1344 C1343 1.374 . S
C1345 C1342 1.499 . S
C1345 C1346 1.373 . S
C1345 C1347 1.389 . S
C1346 H1319 0.950 . S
C1346 C1332 1.377 . S
C1346 C1345 1.373 . S
C1347 C1331 1.377 . S
C1347 C1345 1.389 . S
C1347 C1348 1.524 . S
C1348 C1347 1.524 . S
C1348 C1349 1.397 . S
C1348 C1353 1.363 . S
C1349 H1320 0.950 . S
C1349 C1348 1.397 . S
C1349 C1350 1.334 . S
C1350 H1321 0.950 . S
C1350 C1349 1.334 . S
C1350 C1351 1.287 . S
C1351 C1350 1.287 . S
C1351 C1352 1.524 . S
C1351 H1354 0.999 . S
C1352 H1322 0.950 . S
C1352 C1351 1.524 . S
C1352 C1353 1.415 . S
C1353 H1323 0.950 . S
C1353 C1348 1.363 . S
C1353 C1352 1.415 . S
H1354 C1351 0.999 . S
H1355 C1336 0.913 . S
C175 C122 1.347 1_554 S
C190 C5 1.346 . S
C225 C18 1.346 . S
C240 C135 1.345 . S
C275 C148 1.347 . S
C290 C31 1.346 . S
C325 C83 1.346 . S
C340 C44 1.347 . S
C375 C96 1.346 . S
C390 C57 1.347 1_556 S
C425 C109 1.346 . S
C440 C70 1.347 . S
C475 C88 1.425 . S
C490 C10 1.425 . S
C525 C23 1.425 . S
C540 C101 1.426 . S
C575 C114 1.425 . S
C590 C36 1.425 . S
C625 C49 1.425 . S
C640 C127 1.425 . S
C675 C140 1.426 . S
C690 C62 1.425 . S
C725 C75 1.426 . S
C740 C153 1.425 . S
C775 C125 0.805 . S
C790 C8 0.805 . S
C825 C138 0.804 1_556 S
C840 C21 0.804 . S
C875 C151 0.805 . S
C890 C34 0.805 . S
C925 C47 0.805 1_554 S
C940 C86 0.804 . S
C975 C99 0.804 . S
C990 C60 0.804 . S
C1025 C73 0.805 . S
C1040 C112 0.805 . S
C1075 C0 1.241 . S
C1090 C104 1.242 . S
C1125 C117 1.242 . S
C1140 C13 1.242 . S
C1175 C130 1.242 . S
C1190 C26 1.241 . S
C1225 C143 1.242 . S
C1240 C39 1.242 . S
C1275 C78 1.242 . S
C1290 C52 1.241 . S
C1325 C91 1.241 . S
C1340 C65 1.242 . S
