# Generated by pormake.
# Topology und, (4)-cn, num edge types: 1
# Building blocks:
#     Node 0, Type 0, BuildingBlock: KUFVIS_clean_sbu_0, # of connection points: 4
#     Node 1, Type 0, BuildingBlock: KUFVIS_clean_sbu_0, # of connection points: 4
#     Node 2, Type 0, BuildingBlock: KUFVIS_clean_sbu_0, # of connection points: 4
#     Node 3, Type 0, BuildingBlock: KUFVIS_clean_sbu_0, # of connection points: 4
#     Node 4, Type 0, BuildingBlock: KUFVIS_clean_sbu_0, # of connection points: 4
#     Node 5, Type 0, BuildingBlock: KUFVIS_clean_sbu_0, # of connection points: 4
#     Node 6, Type 0, BuildingBlock: KUFVIS_clean_sbu_0, # of connection points: 4
#     Node 7, Type 0, BuildingBlock: KUFVIS_clean_sbu_0, # of connection points: 4
#     Node 8, Type 0, BuildingBlock: KUFVIS_clean_sbu_0, # of connection points: 4
#     Node 9, Type 0, BuildingBlock: KUFVIS_clean_sbu_0, # of connection points: 4
#     Node 10, Type 0, BuildingBlock: KUFVIS_clean_sbu_0, # of connection points: 4
#     Node 11, Type 0, BuildingBlock: KUFVIS_clean_sbu_0, # of connection points: 4
#     Node 12, Type 0, BuildingBlock: KUFVIS_clean_sbu_0, # of connection points: 4
#     Node 13, Type 0, BuildingBlock: KUFVIS_clean_sbu_0, # of connection points: 4
#     Node 14, Type 0, BuildingBlock: KUFVIS_clean_sbu_0, # of connection points: 4
#     Node 15, Type 0, BuildingBlock: KUFVIS_clean_sbu_0, # of connection points: 4
#     Edge 16, Type (0, 0), None
#     Edge 17, Type (0, 0), None
#     Edge 18, Type (0, 0), None
#     Edge 19, Type (0, 0), None
#     Edge 20, Type (0, 0), None
#     Edge 21, Type (0, 0), None
#     Edge 22, Type (0, 0), None
#     Edge 23, Type (0, 0), None
#     Edge 24, Type (0, 0), None
#     Edge 25, Type (0, 0), None
#     Edge 26, Type (0, 0), None
#     Edge 27, Type (0, 0), None
#     Edge 28, Type (0, 0), None
#     Edge 29, Type (0, 0), None
#     Edge 30, Type (0, 0), None
#     Edge 31, Type (0, 0), None
#     Edge 32, Type (0, 0), None
#     Edge 33, Type (0, 0), None
#     Edge 34, Type (0, 0), None
#     Edge 35, Type (0, 0), None
#     Edge 36, Type (0, 0), None
#     Edge 37, Type (0, 0), None
#     Edge 38, Type (0, 0), None
#     Edge 39, Type (0, 0), None
#     Edge 40, Type (0, 0), None
#     Edge 41, Type (0, 0), None
#     Edge 42, Type (0, 0), None
#     Edge 43, Type (0, 0), None
#     Edge 44, Type (0, 0), None
#     Edge 45, Type (0, 0), None
#     Edge 46, Type (0, 0), None
#     Edge 47, Type (0, 0), None
# Relax obj value: 0.021
# Max RMSD: 0.093
# Mean RMSD: 0.076
data_MOF--net-und--node1-KUFVIS_clean_sbu_0--edge1-none
_symmetry_space_group_name_H-M    P1
_symmetry_Int_Tables_number       1
_symmetry_cell_setting            triclinic
loop_
_symmetry_equiv_pos_as_xyz
'x, y, z'
_cell_length_a     27.004084
_cell_length_b     27.004565
_cell_length_c     10.513077
_cell_angle_alpha  93.236959
_cell_angle_beta   93.2333302
_cell_angle_gamma 84.530338
loop_
_atom_site_label
_atom_site_type_symbol
_atom_site_fract_x
_atom_site_fract_y
_atom_site_fract_z
_atom_type_partial_charge
Mn0 Mn 0.26973 0.33972 -0.00159 0.0
Mn1 Mn 0.20956 0.39924 0.76692 0.0
C2 C 0.25894 0.29181 0.79735 0.0
C3 C 0.25716 0.28995 0.18136 0.0
C4 C 0.31314 0.42598 0.87223 0.0
O5 O 0.23186 0.40693 0.0778 0.0
O6 O 0.17391 0.41543 0.92416 0.0
C7 C 0.11667 0.34837 0.74887 0.0
N8 N 0.15485 0.36662 0.69284 0.0
C9 C 0.12218 0.34419 0.48329 0.0
C10 C 0.08349 0.32313 0.53817 0.0
C11 C 0.0804 0.32555 0.6715 0.0
C12 C 0.15838 0.36388 0.56548 0.0
H13 H 0.11467 0.35043 0.85146 0.0
C14 C 0.19032 0.42826 0.03475 0.0
O15 O 0.2967 0.31316 0.17213 0.0
O16 O 0.22522 0.29569 0.08638 0.0
N17 N 0.23854 0.38656 0.6092 0.0
C18 C 0.28532 0.3934 0.57696 0.0
C19 C 0.29494 0.39469 0.44965 0.0
C20 C 0.25654 0.38849 0.35794 0.0
C21 C 0.20959 0.37643 0.39184 0.0
C22 C 0.20222 0.37657 0.52111 0.0
H23 H 0.31522 0.39821 0.64621 0.0
O24 O 0.29176 0.27745 0.8846 0.0
O25 O 0.23705 0.33551 0.82955 0.0
O26 O 0.32387 0.38464 0.92984 0.0
O27 O 0.26784 0.43811 0.83232 0.0
C28 C 0.17057 0.36265 0.30554 0.0
C29 C 0.12767 0.3448 0.3511 0.0
H30 H 0.05642 0.30433 0.47917 0.0
H31 H 0.05034 0.30973 0.71419 0.0
H32 H 0.33178 0.40059 0.42236 0.0
H33 H 0.26637 0.39078 0.26346 0.0
H34 H 0.17377 0.3628 0.20425 0.0
H35 H 0.09957 0.33121 0.28387 0.0
Mn36 Mn 0.93791 0.00788 0.22829 0.0
Mn37 Mn 0.87837 0.06801 0.45983 0.0
C38 C 0.98581 0.01867 0.42935 0.0
C39 C 0.98768 0.02045 0.04533 0.0
C40 C 0.85165 0.96443 0.35449 0.0
O41 O 0.87069 0.04574 0.14891 0.0
O42 O 0.86214 0.10367 0.30261 0.0
C43 C 0.92921 0.16091 0.47787 0.0
N44 N 0.91098 0.12273 0.5339 0.0
C45 C 0.9334 0.15541 0.74345 0.0
C46 C 0.95446 0.1941 0.68857 0.0
C47 C 0.95203 0.19719 0.55524 0.0
C48 C 0.91373 0.1192 0.66125 0.0
H49 H 0.92715 0.16291 0.37528 0.0
C50 C 0.84934 0.08727 0.19199 0.0
O51 O 0.96447 0.98091 0.05455 0.0
O52 O 0.98193 0.05239 0.14032 0.0
N53 N 0.89108 0.03903 0.61753 0.0
C54 C 0.88424 0.99225 0.64976 0.0
C55 C 0.88295 0.98263 0.77707 0.0
C56 C 0.88914 0.02103 0.86878 0.0
C57 C 0.90119 0.06799 0.83489 0.0
C58 C 0.90105 0.07535 0.70562 0.0
H59 H 0.87945 0.96234 0.5805 0.0
O60 O 1.00018 0.98586 0.34209 0.0
O61 O 0.94211 0.04055 0.39716 0.0
O62 O 0.89299 0.95372 0.29684 0.0
O63 O 0.83952 0.00972 0.39444 0.0
C64 C 0.91496 0.10701 0.9212 0.0
C65 C 0.93279 0.14991 0.87564 0.0
H66 H 0.97325 0.22117 0.74756 0.0
H67 H 0.96784 0.22725 0.51255 0.0
H68 H 0.87706 0.94579 0.80435 0.0
H69 H 0.88683 0.0112 0.96326 0.0
H70 H 0.9148 0.10382 0.02248 0.0
H71 H 0.94638 0.17802 0.94287 0.0
Mn72 Mn 0.25798 0.70716 0.48246 0.0
Mn73 Mn 0.20292 0.66341 0.72135 0.0
C74 C 0.25534 0.75461 0.68417 0.0
C75 C 0.25512 0.7601 0.29936 0.0
C76 C 0.30426 0.61615 0.62784 0.0
O77 O 0.21196 0.65596 0.38548 0.0
O78 O 0.16734 0.63522 0.54251 0.0
C79 C 0.10141 0.67534 0.76102 0.0
N80 N 0.14668 0.70111 0.79172 0.0
C81 C 0.11209 0.76005 0.02264 0.0
C82 C 0.0503 0.74767 0.02442 0.0
C83 C 0.02741 0.70507 0.91335 0.0
C84 C 0.15541 0.73461 0.91303 0.0
H85 H 0.10622 0.65078 0.68188 0.0
C86 C 0.17582 0.63299 0.41887 0.0
O87 O 0.28983 0.72439 0.31945 0.0
O88 O 0.22342 0.76663 0.38801 0.0
N89 N 0.23217 0.68781 0.87951 0.0
C90 C 0.27804 0.67037 0.92105 0.0
C91 C 0.2851 0.65661 0.04503 0.0
C92 C 0.24669 0.66879 0.12616 0.0
C93 C 0.2061 0.70347 0.09146 0.0
C94 C 0.20073 0.71364 0.96275 0.0
H95 H 0.30712 0.66614 0.8569 0.0
O96 O 0.29067 0.75341 0.60883 0.0
O97 O 0.22313 0.72283 0.64498 0.0
O98 O 0.30961 0.64956 0.54955 0.0
O99 O 0.2639 0.61711 0.68563 0.0
C100 C 0.17075 0.72614 0.17814 0.0
C101 C 0.13227 0.76227 0.14597 0.0
H102 H 0.0279 0.7603 0.10374 0.0
H103 H 0.98967 0.69399 0.91727 0.0
H104 H 0.31869 0.63556 0.07748 0.0
H105 H 0.25344 0.6537 0.21638 0.0
H106 H 0.17087 0.71564 0.27373 0.0
H107 H 0.10871 0.77602 0.22209 0.0
Mn108 Mn 0.57045 0.01958 0.74425 0.0
Mn109 Mn 0.61419 0.07465 0.50536 0.0
C110 C 0.52299 0.02222 0.54254 0.0
C111 C 0.51751 0.02243 0.92736 0.0
C112 C 0.66147 0.97331 0.59886 0.0
O113 O 0.62165 0.06561 0.84123 0.0
O114 O 0.64238 0.11023 0.6842 0.0
C115 C 0.60225 0.17616 0.46571 0.0
N116 N 0.57649 0.13088 0.43501 0.0
C117 C 0.51754 0.16547 0.2041 0.0
C118 C 0.52991 0.22727 0.20234 0.0
C119 C 0.57251 0.25016 0.31341 0.0
C120 C 0.54299 0.12216 0.31369 0.0
H121 H 0.62681 0.17135 0.54485 0.0
C122 C 0.64461 0.10175 0.80784 0.0
O123 O 0.55323 0.98773 0.90726 0.0
O124 O 0.51098 0.05413 0.83871 0.0
N125 N 0.5898 0.0454 0.34719 0.0
C126 C 0.60725 0.99953 0.30565 0.0
C127 C 0.621 0.99247 0.18167 0.0
C128 C 0.60882 0.03088 0.10055 0.0
C129 C 0.57414 0.07147 0.13526 0.0
C130 C 0.56397 0.07684 0.26397 0.0
H131 H 0.61147 0.97045 0.3698 0.0
O132 O 0.5242 0.98689 0.61789 0.0
O133 O 0.55477 0.05443 0.58174 0.0
O134 O 0.62805 0.96796 0.67715 0.0
O135 O 0.6605 0.01367 0.54107 0.0
C136 C 0.55146 0.10682 0.04859 0.0
C137 C 0.51533 0.14529 0.08077 0.0
H138 H 0.51728 0.24967 0.12303 0.0
H139 H 0.58359 0.2879 0.3095 0.0
H140 H 0.64205 0.95889 0.14921 0.0
H141 H 0.62391 0.02413 0.01033 0.0
H142 H 0.56196 0.1067 0.95299 0.0
H143 H 0.50156 0.16885 0.00467 0.0
Mn144 Mn 0.73534 0.7104 -0.02172 0.0
Mn145 Mn 0.79549 0.65088 0.20978 0.0
C146 C 0.74613 0.75831 0.17934 0.0
C147 C 0.74791 0.76017 0.79532 0.0
C148 C 0.69191 0.62414 0.10447 0.0
O149 O 0.77319 0.64318 0.8989 0.0
O150 O 0.83115 0.63468 0.05255 0.0
C151 C 0.88838 0.70174 0.22784 0.0
N152 N 0.8502 0.68349 0.28387 0.0
C153 C 0.88288 0.70592 0.49342 0.0
C154 C 0.92157 0.72698 0.43854 0.0
C155 C 0.92465 0.72456 0.30521 0.0
C156 C 0.84667 0.68623 0.41122 0.0
H157 H 0.89038 0.69969 0.12525 0.0
C158 C 0.81474 0.62185 0.94196 0.0
O159 O 0.70837 0.73696 0.80455 0.0
O160 O 0.77985 0.75442 0.89031 0.0
N161 N 0.76651 0.66356 0.3675 0.0
C162 C 0.71973 0.65672 0.39974 0.0
C163 C 0.71011 0.65543 0.52705 0.0
C164 C 0.74851 0.66162 0.61876 0.0
C165 C 0.79546 0.67368 0.58486 0.0
C166 C 0.80283 0.67354 0.45559 0.0
H167 H 0.68983 0.65192 0.33049 0.0
O168 O 0.71332 0.77268 0.09209 0.0
O169 O 0.76801 0.71461 0.14715 0.0
O170 O 0.68118 0.66548 0.04685 0.0
O171 O 0.73721 0.61201 0.14438 0.0
C172 C 0.83448 0.68746 0.67117 0.0
C173 C 0.87738 0.7053 0.62561 0.0
H174 H 0.94863 0.74578 0.49754 0.0
H175 H 0.95471 0.74038 0.26253 0.0
H176 H 0.67327 0.64953 0.55433 0.0
H177 H 0.73868 0.65932 0.71324 0.0
H178 H 0.83129 0.6873 0.77245 0.0
H179 H 0.90549 0.71889 0.69284 0.0
Mn180 Mn 0.0672 0.04228 0.74842 0.0
Mn181 Mn 0.12673 0.9821 0.51692 0.0
C182 C 0.01928 0.03147 0.54739 0.0
C183 C 0.01744 0.02971 0.9314 0.0
C184 C 0.15348 0.08568 0.62224 0.0
O185 O 0.13442 1.00442 0.82778 0.0
O186 O 0.14291 0.94645 0.67415 0.0
C187 C 0.07585 0.88923 0.49885 0.0
N188 N 0.0941 0.9274 0.44283 0.0
C189 C 0.07167 0.89473 0.23327 0.0
C190 C 0.05061 0.85604 0.28814 0.0
C191 C 0.05302 0.85296 0.42147 0.0
C192 C 0.09136 0.93093 0.31547 0.0
H193 H 0.0779 0.88723 0.60144 0.0
C194 C 0.15574 0.96286 0.78474 0.0
O195 O 0.04065 0.06925 0.92216 0.0
O196 O 0.02318 0.99777 0.83639 0.0
N197 N 0.11406 0.01109 0.3592 0.0
C198 C 0.12091 0.05786 0.32697 0.0
C199 C 0.1222 0.06748 0.19966 0.0
C200 C 0.11599 0.02909 0.10794 0.0
C201 C 0.10392 0.98214 0.14184 0.0
C202 C 0.10406 0.97478 0.27111 0.0
H203 H 0.12571 0.08777 0.39622 0.0
O204 O 0.00493 0.0643 0.63462 0.0
O205 O 0.06299 0.0096 0.57955 0.0
O206 O 0.11213 0.09642 0.67984 0.0
O207 O 0.1656 0.04038 0.58233 0.0
C208 C 0.09014 0.94312 0.05553 0.0
C209 C 0.07229 0.90023 0.10108 0.0
H210 H 0.03181 0.82898 0.22914 0.0
H211 H 0.0372 0.8229 0.46415 0.0
H212 H 0.1281 0.10432 0.17238 0.0
H213 H 0.11828 0.03892 0.01347 0.0
H214 H 0.09029 0.94632 0.95424 0.0
H215 H 0.0587 0.87213 0.03384 0.0
Mn216 Mn 0.74706 0.34296 0.49425 0.0
Mn217 Mn 0.80212 0.38671 0.25537 0.0
C218 C 0.74971 0.29551 0.29254 0.0
C219 C 0.74992 0.29001 0.67735 0.0
C220 C 0.70078 0.43398 0.34888 0.0
O221 O 0.79308 0.39416 0.59124 0.0
O222 O 0.8377 0.4149 0.4342 0.0
C223 C 0.90364 0.37477 0.2157 0.0
N224 N 0.85836 0.34901 0.18499 0.0
C225 C 0.89295 0.29007 0.95407 0.0
C226 C 0.95475 0.30244 0.95229 0.0
C227 C 0.97763 0.34504 0.06337 0.0
C228 C 0.84964 0.31551 0.06368 0.0
H229 H 0.89882 0.39933 0.29484 0.0
C230 C 0.82922 0.41713 0.55784 0.0
O231 O 0.71521 0.32573 0.65727 0.0
O232 O 0.78162 0.28349 0.5887 0.0
N233 N 0.77288 0.36231 0.0972 0.0
C234 C 0.727 0.37976 0.05567 0.0
C235 C 0.71994 0.39351 0.93169 0.0
C236 C 0.75835 0.38133 0.85056 0.0
C237 C 0.79894 0.34665 0.88526 0.0
C238 C 0.80431 0.33648 0.01396 0.0
H239 H 0.69792 0.38398 0.11982 0.0
O240 O 0.71437 0.29671 0.36788 0.0
O241 O 0.78191 0.32729 0.33174 0.0
O242 O 0.69544 0.40056 0.42716 0.0
O243 O 0.74114 0.43301 0.29109 0.0
C244 C 0.83429 0.32398 0.79858 0.0
C245 C 0.87277 0.28786 0.83074 0.0
H246 H 0.97715 0.28982 0.87297 0.0
H247 H 0.01538 0.35612 0.05945 0.0
H248 H 0.68635 0.41456 0.89924 0.0
H249 H 0.75159 0.39642 0.76034 0.0
H250 H 0.83417 0.33449 0.70299 0.0
H251 H 0.89633 0.2741 0.75462 0.0
Mn252 Mn 0.43463 0.03051 0.23246 0.0
Mn253 Mn 0.39087 0.97547 0.47134 0.0
C254 C 0.4821 0.02785 0.43413 0.0
C255 C 0.48757 0.02765 0.04935 0.0
C256 C 0.34361 0.07681 0.3778 0.0
O257 O 0.38342 0.9845 0.13547 0.0
O258 O 0.36268 0.93989 0.29251 0.0
C259 C 0.4028 0.87395 0.51099 0.0
N260 N 0.42856 0.91924 0.5417 0.0
C261 C 0.48751 0.88465 0.77259 0.0
C262 C 0.47515 0.82285 0.77435 0.0
C263 C 0.43255 0.79996 0.66329 0.0
C264 C 0.46206 0.92796 0.66301 0.0
H265 H 0.37825 0.87876 0.43185 0.0
C266 C 0.36045 0.94836 0.16887 0.0
O267 O 0.45186 0.06236 0.06946 0.0
O268 O 0.4941 0.99595 0.138 0.0
N269 N 0.41526 1.00472 0.62951 0.0
C270 C 0.3978 0.05059 0.67106 0.0
C271 C 0.38405 0.05765 0.79505 0.0
C272 C 0.39625 0.01924 0.87617 0.0
C273 C 0.43092 0.97865 0.84145 0.0
C274 C 0.44109 0.97328 0.71274 0.0
H275 H 0.39355 0.07967 0.60692 0.0
O276 O 0.48088 0.0632 0.35883 0.0
O277 O 0.4503 0.99567 0.39497 0.0
O278 O 0.37704 0.08215 0.29953 0.0
O279 O 0.34457 0.03646 0.43561 0.0
C280 C 0.4536 0.9433 0.9281 0.0
C281 C 0.48973 0.90482 0.89593 0.0
H282 H 0.48779 0.80045 0.85366 0.0
H283 H 0.42148 0.76221 0.66719 0.0
H284 H 0.363 0.09123 0.82751 0.0
H285 H 0.38116 0.02599 0.9664 0.0
H286 H 0.4431 0.94341 0.0237 0.0
H287 H 0.50349 0.88126 0.97203 0.0
Mn288 Mn 0.76974 0.83969 0.49842 0.0
Mn289 Mn 0.70959 0.89922 0.26689 0.0
C290 C 0.75893 0.79177 0.29738 0.0
C291 C 0.75717 0.78993 0.68139 0.0
C292 C 0.81317 0.92595 0.37221 0.0
O293 O 0.73188 0.90691 0.57779 0.0
O294 O 0.67394 0.91543 0.42411 0.0
C295 C 0.61669 0.84837 0.24884 0.0
N296 N 0.65488 0.8666 0.19281 0.0
C297 C 0.62219 0.8442 -0.01674 0.0
C298 C 0.5835 0.82315 0.03813 0.0
C299 C 0.58041 0.82557 0.17147 0.0
C300 C 0.65841 0.86386 0.06546 0.0
H301 H 0.61469 0.85043 0.35143 0.0
C302 C 0.69034 0.92825 0.53471 0.0
O303 O 0.79671 0.81313 0.67215 0.0
O304 O 0.72523 0.79567 0.58639 0.0
N305 N 0.73858 0.88652 0.10918 0.0
C306 C 0.78536 0.89335 0.07695 0.0
C307 C 0.79497 0.89465 0.94963 0.0
C308 C 0.75658 0.88847 0.85793 0.0
C309 C 0.70962 0.87641 0.89182 0.0
C310 C 0.70226 0.87655 0.02109 0.0
H311 H 0.81527 0.89814 0.1462 0.0
O312 O 0.79176 0.77742 0.38461 0.0
O313 O 0.73706 0.83548 0.32955 0.0
O314 O 0.8239 0.88461 0.42985 0.0
O315 O 0.76788 0.93808 0.33228 0.0
C316 C 0.67059 0.86265 0.80551 0.0
C317 C 0.62769 0.84481 0.85107 0.0
H318 H 0.55642 0.80436 -0.02086 0.0
H319 H 0.55034 0.80976 0.21415 0.0
H320 H 0.83182 0.90054 0.92235 0.0
H321 H 0.7664 0.89078 0.76345 0.0
H322 H 0.67379 0.86281 0.70423 0.0
H323 H 0.59958 0.83124 0.78383 0.0
Mn324 Mn 0.43788 0.50788 0.72829 0.0
Mn325 Mn 0.37835 0.56804 0.9598 0.0
C326 C 0.48579 0.51866 0.92935 0.0
C327 C 0.48764 0.52044 0.54533 0.0
C328 C 0.35162 0.46446 0.85448 0.0
O329 O 0.37066 0.54574 0.64891 0.0
O330 O 0.36216 0.60369 0.80257 0.0
C331 C 0.42922 0.66092 -0.02214 0.0
N332 N 0.41098 0.62275 0.03389 0.0
C333 C 0.4334 0.65542 0.24344 0.0
C334 C 0.45446 0.69411 0.18857 0.0
C335 C 0.45205 0.69719 0.05524 0.0
C336 C 0.41372 0.61922 0.16124 0.0
H337 H 0.42717 0.66292 0.87527 0.0
C338 C 0.34933 0.58728 0.69198 0.0
O339 O 0.46444 0.4809 0.55456 0.0
O340 O 0.48191 0.55238 0.64032 0.0
N341 N 0.39103 0.53906 0.11752 0.0
C342 C 0.38419 0.49228 0.14975 0.0
C343 C 0.38291 0.48266 0.27706 0.0
C344 C 0.38911 0.52105 0.36877 0.0
C345 C 0.40116 0.56801 0.33488 0.0
C346 C 0.40102 0.57537 0.20561 0.0
H347 H 0.3794 0.46237 0.08049 0.0
O348 O 0.50015 0.48585 0.84209 0.0
O349 O 0.44209 0.54055 0.89716 0.0
O350 O 0.39296 0.45373 0.79686 0.0
O351 O 0.33949 0.50976 0.8944 0.0
C352 C 0.41494 0.60703 0.42119 0.0
C353 C 0.43279 0.64992 0.37563 0.0
H354 H 0.47327 0.72117 0.24756 0.0
H355 H 0.46787 0.72725 0.01255 0.0
H356 H 0.37701 0.44582 0.30433 0.0
H357 H 0.38681 0.51122 0.46325 0.0
H358 H 0.41479 0.60383 0.52247 0.0
H359 H 0.44638 0.67803 0.44287 0.0
Mn360 Mn 0.758 0.20714 -0.01754 0.0
Mn361 Mn 0.70293 0.1634 0.22136 0.0
C362 C 0.75534 0.25461 0.18412 0.0
C363 C 0.75515 0.26008 0.79934 0.0
C364 C 0.80427 0.11613 0.12783 0.0
O365 O 0.71198 0.15594 0.88548 0.0
O366 O 0.66736 0.13521 0.04252 0.0
C367 C 0.60142 0.17533 0.26102 0.0
N368 N 0.6467 0.2011 0.29172 0.0
C369 C 0.6121 0.26004 0.52265 0.0
C370 C 0.55031 0.24766 0.52443 0.0
C371 C 0.52742 0.20506 0.41335 0.0
C372 C 0.65542 0.2346 0.41304 0.0
H373 H 0.60623 0.15078 0.18187 0.0
C374 C 0.67584 0.13297 0.91888 0.0
O375 O 0.78986 0.22436 0.81944 0.0
O376 O 0.72345 0.26661 0.888 0.0
N377 N 0.73218 0.1878 0.37952 0.0
C378 C 0.77806 0.17037 0.42105 0.0
C379 C 0.78512 0.1566 0.54502 0.0
C380 C 0.7467 0.16877 0.62615 0.0
C381 C 0.70611 0.20345 0.59146 0.0
C382 C 0.70074 0.21363 0.46276 0.0
H383 H 0.80714 0.16616 0.3569 0.0
O384 O 0.7907 0.25339 0.10883 0.0
O385 O 0.72315 0.22282 0.14496 0.0
O386 O 0.80963 0.14954 0.04955 0.0
O387 O 0.76392 0.11709 0.18566 0.0
C388 C 0.67076 0.22612 0.67814 0.0
C389 C 0.63228 0.26225 0.64599 0.0
H390 H 0.52791 0.26028 0.60375 0.0
H391 H 0.48968 0.19398 0.41727 0.0
H392 H 0.8187 0.13556 0.57747 0.0
H393 H 0.75345 0.15367 0.71636 0.0
H394 H 0.67088 0.21562 0.77374 0.0
H395 H 0.60872 0.27601 0.7221 0.0
Mn396 Mn 0.07043 0.5196 0.24425 0.0
Mn397 Mn 0.11418 0.57466 0.00536 0.0
C398 C 0.02298 0.52223 0.04254 0.0
C399 C 0.01749 0.52245 0.42735 0.0
C400 C 0.16145 0.47334 0.09889 0.0
O401 O 0.12163 0.56562 0.34123 0.0
O402 O 0.14237 0.61024 0.1842 0.0
C403 C 0.10224 0.67617 0.96571 0.0
N404 N 0.07648 0.63089 0.93501 0.0
C405 C 0.01753 0.66548 0.7041 0.0
C406 C 0.0299 0.72728 0.70233 0.0
C407 C 0.0725 0.75017 0.81341 0.0
C408 C 0.04298 0.62217 0.8137 0.0
H409 H 0.1268 0.67136 0.04485 0.0
C410 C 0.1446 0.60176 0.30784 0.0
O411 O 0.05321 0.48774 0.40726 0.0
O412 O 0.01096 0.55415 0.33871 0.0
N413 N 0.08979 0.54541 0.84719 0.0
C414 C 0.10723 0.49954 0.80565 0.0
C415 C 0.12099 0.49248 0.68166 0.0
C416 C 0.1088 0.53089 0.60054 0.0
C417 C 0.07412 0.57148 0.63526 0.0
C418 C 0.06395 0.57685 0.76397 0.0
H419 H 0.11146 0.47046 0.8698 0.0
O420 O 0.02419 0.4869 0.11788 0.0
O421 O 0.05476 0.55444 0.08173 0.0
O422 O 0.12803 0.46797 0.17716 0.0
O423 O 0.16049 0.51368 0.04106 0.0
C424 C 0.05144 0.60683 0.54859 0.0
C425 C 0.01532 0.6453 0.58077 0.0
H426 H 0.01727 0.74968 0.62302 0.0
H427 H 0.08357 0.78791 0.80949 0.0
H428 H 0.14204 0.4589 0.64921 0.0
H429 H 0.12389 0.52414 0.51032 0.0
H430 H 0.06195 0.60671 0.453 0.0
H431 H 1.00156 0.66886 0.50466 0.0
Mn432 Mn 0.23535 0.21042 0.47827 0.0
Mn433 Mn 0.29555 0.15091 0.7097 0.0
C434 C 0.24616 0.25835 0.67929 0.0
C435 C 0.24791 0.26018 0.29529 0.0
C436 C 0.19196 0.12416 0.60446 0.0
O437 O 0.27319 0.14319 0.3989 0.0
O438 O 0.33119 0.13477 0.55242 0.0
C439 C 0.38842 0.20181 0.72773 0.0
N440 N 0.35026 0.18355 0.78377 0.0
C441 C 0.38294 0.20598 -0.00669 0.0
C442 C 0.42162 0.22705 0.93842 0.0
C443 C 0.42469 0.22464 0.80508 0.0
C444 C 0.34674 0.18628 0.91113 0.0
H445 H 0.39041 0.19977 0.62513 0.0
C446 C 0.31475 0.12189 0.44191 0.0
O447 O 0.20837 0.23697 0.30454 0.0
O448 O 0.27986 0.25444 0.39027 0.0
N449 N 0.26659 0.16356 0.86745 0.0
C450 C 0.21982 0.15671 0.89971 0.0
C451 C 0.2102 0.15543 0.02703 0.0
C452 C 0.2486 0.16165 0.11872 0.0
C453 C 0.29555 0.17372 0.0848 0.0
C454 C 0.3029 0.17357 0.95552 0.0
H455 H 0.18991 0.1519 0.83048 0.0
O456 O 0.21334 0.27271 0.59206 0.0
O457 O 0.26802 0.21464 0.64713 0.0
O458 O 0.18121 0.16551 0.54689 0.0
O459 O 0.23727 0.11204 0.64431 0.0
C460 C 0.33456 0.18751 0.17109 0.0
C461 C 0.37745 0.20537 0.12551 0.0
H462 H 0.44868 0.24586 -0.00261 0.0
H463 H 0.45474 0.24047 0.76238 0.0
H464 H 0.17337 0.14952 0.05433 0.0
H465 H 0.23877 0.15938 0.2132 0.0
H466 H 0.33137 0.18736 0.27238 0.0
H467 H 0.40555 0.21897 0.19273 0.0
Mn468 Mn 0.56717 0.54225 0.24843 0.0
Mn469 Mn 0.62669 0.48208 0.01691 0.0
C470 C 0.51925 0.53145 0.0474 0.0
C471 C 0.51741 0.52969 0.4314 0.0
C472 C 0.65343 0.58566 0.12222 0.0
O473 O 0.63439 0.50439 0.32779 0.0
O474 O 0.64288 0.44643 0.17415 0.0
C475 C 0.57582 0.3892 -0.00114 0.0
N476 N 0.59406 0.42737 0.94284 0.0
C477 C 0.57165 0.3947 0.73329 0.0
C478 C 0.55058 0.35601 0.78816 0.0
C479 C 0.553 0.35292 0.92149 0.0
C480 C 0.59133 0.4309 0.81548 0.0
H481 H 0.57787 0.3872 0.10146 0.0
C482 C 0.65571 0.46285 0.28473 0.0
O483 O 0.54062 0.56923 0.42216 0.0
O484 O 0.52315 0.49775 0.3364 0.0
N485 N 0.61401 0.51106 0.8592 0.0
C486 C 0.62085 0.55784 0.82697 0.0
C487 C 0.62214 0.56746 0.69965 0.0
C488 C 0.61594 0.52906 0.60795 0.0
C489 C 0.60388 0.48211 0.64184 0.0
C490 C 0.60402 0.47475 0.77111 0.0
H491 H 0.62564 0.58775 0.89622 0.0
O492 O 0.50489 0.56428 0.13464 0.0
O493 O 0.56296 0.50958 0.07956 0.0
O494 O 0.61209 0.5964 0.17984 0.0
O495 O 0.66556 0.54037 0.0823 0.0
C496 C 0.5901 0.44309 0.55553 0.0
C497 C 0.57226 0.40019 0.60109 0.0
H498 H 0.53179 0.32894 0.72917 0.0
H499 H 0.53718 0.32286 0.96418 0.0
H500 H 0.62803 0.6043 0.67237 0.0
H501 H 0.61824 0.53889 0.51347 0.0
H502 H 0.59026 0.44628 0.45425 0.0
H503 H 0.55867 0.37208 0.53386 0.0
Mn504 Mn 0.24705 0.84298 -0.00574 0.0
Mn505 Mn 0.30213 0.88671 0.75536 0.0
C506 C 0.24971 0.7955 0.79259 0.0
C507 C 0.2499 0.79004 0.17737 0.0
C508 C 0.20081 0.934 0.84889 0.0
O509 O 0.29308 0.89418 0.09123 0.0
O510 O 0.3377 0.9149 0.9342 0.0
C511 C 0.40364 0.87478 0.71569 0.0
N512 N 0.35836 0.84901 0.68499 0.0
C513 C 0.39296 0.79008 0.45405 0.0
C514 C 0.45475 0.80246 0.45226 0.0
C515 C 0.47763 0.84506 0.56334 0.0
C516 C 0.34964 0.81551 0.56367 0.0
H517 H 0.39882 0.89934 0.79482 0.0
C518 C 0.32922 0.91714 0.05783 0.0
O519 O 0.21519 0.82576 0.15728 0.0
O520 O 0.2816 0.78351 0.08871 0.0
N521 N 0.27288 0.86231 0.5972 0.0
C522 C 0.227 0.87976 0.55567 0.0
C523 C 0.21995 0.89353 0.4317 0.0
C524 C 0.25836 0.88134 0.35056 0.0
C525 C 0.29895 0.84666 0.38525 0.0
C526 C 0.30432 0.83648 0.51396 0.0
H527 H 0.19793 0.88398 0.61982 0.0
O528 O 0.21435 0.79673 0.86789 0.0
O529 O 0.2819 0.8273 0.83175 0.0
O530 O 0.19543 0.90058 0.92716 0.0
O531 O 0.24115 0.93303 0.79106 0.0
C532 C 0.33429 0.82399 0.29857 0.0
C533 C 0.37277 0.78786 0.33072 0.0
H534 H 0.47715 0.78984 0.37294 0.0
H535 H 0.51537 0.85615 0.55941 0.0
H536 H 0.18637 0.91458 0.39926 0.0
H537 H 0.25161 0.89644 0.26035 0.0
H538 H 0.33417 0.83449 0.20297 0.0
H539 H 0.39633 0.7741 0.25461 0.0
Mn540 Mn 0.93462 0.53052 0.73246 0.0
Mn541 Mn 0.89087 0.47545 0.97136 0.0
C542 C 0.98209 0.52786 0.93412 0.0
C543 C 0.98755 0.52767 0.54935 0.0
C544 C 0.8436 0.57678 0.87782 0.0
O545 O 0.88342 0.48449 0.63548 0.0
O546 O 0.86268 0.43988 0.79252 0.0
C547 C 0.90281 0.37394 0.011 0.0
N548 N 0.92857 0.41922 0.04171 0.0
C549 C 0.98752 0.38463 0.27262 0.0
C550 C 0.97514 0.32283 0.27439 0.0
C551 C 0.93254 0.29995 0.16331 0.0
C552 C 0.96207 0.42794 0.16302 0.0
H553 H 0.87825 0.37876 0.93187 0.0
C554 C 0.86045 0.44836 0.66888 0.0
O555 O 0.95183 0.56237 0.56945 0.0
O556 O 0.99409 0.49597 0.638 0.0
N557 N 0.91527 0.5047 0.12952 0.0
C558 C 0.89782 0.55058 0.17107 0.0
C559 C 0.88406 0.55763 0.29504 0.0
C560 C 0.89624 0.51922 0.37617 0.0
C561 C 0.93092 0.47863 0.34146 0.0
C562 C 0.9411 0.47326 0.21275 0.0
H563 H 0.89359 0.57965 0.10692 0.0
O564 O 0.98086 0.56322 0.85883 0.0
O565 O 0.95029 0.49567 0.89496 0.0
O566 O 0.87701 0.58214 0.79955 0.0
O567 O 0.84456 0.53644 0.93566 0.0
C568 C 0.9536 0.44328 0.42813 0.0
C569 C 0.98973 0.40481 0.39595 0.0
H570 H 0.98777 0.30043 0.3537 0.0
H571 H 0.92146 0.2622 0.16722 0.0
H572 H 0.863 0.59121 0.3275 0.0
H573 H 0.88115 0.52597 0.46638 0.0
H574 H 0.9431 0.4434 0.52372 0.0
H575 H 0.00349 0.38125 0.47206 0.0
loop_
_geom_bond_atom_site_label_1
_geom_bond_atom_site_label_2
_geom_bond_distance
_geom_bond_site_symmetry_2
_ccdc_geom_bond_type
Mn0 O5 2.095 . S
Mn0 O15 2.162 . S
Mn0 O16 2.297 . S
Mn0 O24 2.385 1_554 S
Mn0 O25 2.209 1_554 S
Mn0 O26 2.094 . S
Mn1 O6 2.121 . S
Mn1 N8 2.257 . S
Mn1 N17 2.282 . S
Mn1 O25 2.215 . S
Mn1 O27 2.117 . S
C2 O24 1.234 . S
C2 O25 1.283 . S
C3 O15 1.281 . S
C3 O16 1.236 . S
C4 O26 1.240 1_556 S
C4 O27 1.264 . S
O5 Mn0 2.095 . S
O5 C14 1.250 . S
O6 Mn1 2.121 . S
O6 C14 1.258 1_556 S
C7 N8 1.326 . S
C7 C11 1.460 . S
C7 H13 0.929 . S
N8 Mn1 2.257 . S
N8 C7 1.326 . S
N8 C12 1.362 . S
C9 C10 1.258 . S
C9 C12 1.431 . S
C9 C29 1.449 . S
C10 C9 1.258 . S
C10 C11 1.477 . S
C10 H30 0.931 . S
C11 C7 1.460 . S
C11 C10 1.477 . S
C11 H31 0.930 . S
C12 N8 1.362 . S
C12 C9 1.431 . S
C12 C22 1.476 . S
H13 C7 0.929 . S
C14 O5 1.250 . S
C14 O6 1.258 1_554 S
O15 Mn0 2.162 . S
O15 C3 1.281 . S
O16 Mn0 2.297 . S
O16 C3 1.236 . S
N17 Mn1 2.282 . S
N17 C18 1.328 . S
N17 C22 1.318 . S
C18 N17 1.328 . S
C18 C19 1.457 . S
C18 H23 0.929 . S
C19 C18 1.457 . S
C19 C20 1.291 . S
C19 H32 0.931 . S
C20 C19 1.291 . S
C20 C21 1.373 . S
C20 H33 0.929 . S
C21 C20 1.373 . S
C21 C22 1.396 . S
C21 C28 1.403 . S
C22 C12 1.476 . S
C22 N17 1.318 . S
C22 C21 1.396 . S
H23 C18 0.929 . S
O24 Mn0 2.385 1_556 S
O24 C2 1.234 . S
O25 Mn0 2.209 1_556 S
O25 Mn1 2.215 . S
O25 C2 1.283 . S
O26 Mn0 2.094 . S
O26 C4 1.240 1_554 S
O27 Mn1 2.117 . S
O27 C4 1.264 . S
C28 C21 1.403 . S
C28 C29 1.399 . S
C28 H34 0.929 . S
C29 C9 1.449 . S
C29 C28 1.399 . S
C29 H35 0.930 . S
H30 C10 0.931 . S
H31 C11 0.930 . S
H32 C19 0.931 . S
H33 C20 0.929 . S
H34 C28 0.929 . S
H35 C29 0.930 . S
Mn36 O41 2.095 . S
Mn36 O51 2.162 1_545 S
Mn36 O52 2.297 . S
Mn36 O60 2.385 1_545 S
Mn36 O61 2.209 . S
Mn36 O62 2.094 1_545 S
Mn37 O42 2.121 . S
Mn37 N44 2.257 . S
Mn37 N53 2.282 . S
Mn37 O61 2.215 . S
Mn37 O63 2.117 1_545 S
C38 O60 1.234 1_545 S
C38 O61 1.283 . S
C39 O51 1.281 1_545 S
C39 O52 1.236 . S
C40 O62 1.240 . S
C40 O63 1.264 . S
O41 Mn36 2.095 . S
O41 C50 1.250 . S
O42 Mn37 2.121 . S
O42 C50 1.258 . S
C43 N44 1.326 . S
C43 C47 1.460 . S
C43 H49 0.929 . S
N44 Mn37 2.257 . S
N44 C43 1.326 . S
N44 C48 1.362 . S
C45 C46 1.258 . S
C45 C48 1.431 . S
C45 C65 1.449 1_556 S
C46 C45 1.258 . S
C46 C47 1.477 . S
C46 H66 0.931 . S
C47 C43 1.460 . S
C47 C46 1.477 . S
C47 H67 0.930 . S
C48 N44 1.362 . S
C48 C45 1.431 . S
C48 C58 1.476 . S
H49 C43 0.929 . S
C50 O41 1.250 . S
C50 O42 1.258 . S
O51 Mn36 2.162 1_565 S
O51 C39 1.281 1_565 S
O52 Mn36 2.297 . S
O52 C39 1.236 . S
N53 Mn37 2.282 . S
N53 C54 1.328 1_545 S
N53 C58 1.318 . S
C54 N53 1.328 1_565 S
C54 C55 1.457 . S
C54 H59 0.929 . S
C55 C54 1.457 . S
C55 C56 1.291 1_565 S
C55 H68 0.931 . S
C56 C55 1.291 1_545 S
C56 C57 1.373 . S
C56 H69 0.929 1_546 S
C57 C56 1.373 . S
C57 C58 1.396 . S
C57 C64 1.403 1_556 S
C58 C48 1.476 . S
C58 N53 1.318 . S
C58 C57 1.396 . S
H59 C54 0.929 . S
O60 Mn36 2.385 1_565 S
O60 C38 1.234 1_565 S
O61 Mn36 2.209 . S
O61 Mn37 2.215 . S
O61 C38 1.283 . S
O62 Mn36 2.094 1_565 S
O62 C40 1.240 . S
O63 Mn37 2.117 1_565 S
O63 C40 1.264 . S
C64 C57 1.403 1_554 S
C64 C65 1.399 . S
C64 H70 0.929 . S
C65 C45 1.449 1_554 S
C65 C64 1.399 . S
C65 H71 0.930 . S
H66 C46 0.931 . S
H67 C47 0.930 . S
H68 C55 0.931 . S
H69 C56 0.929 1_564 S
H70 C64 0.929 . S
H71 C65 0.930 . S
Mn72 O77 2.095 . S
Mn72 O87 2.162 . S
Mn72 O88 2.297 . S
Mn72 O96 2.385 . S
Mn72 O97 2.209 . S
Mn72 O98 2.094 . S
Mn73 O78 2.121 . S
Mn73 N80 2.257 . S
Mn73 N89 2.282 . S
Mn73 O97 2.215 . S
Mn73 O99 2.117 . S
C74 O96 1.234 . S
C74 O97 1.283 . S
C75 O87 1.281 . S
C75 O88 1.236 . S
C76 O98 1.240 . S
C76 O99 1.264 . S
O77 Mn72 2.095 . S
O77 C86 1.250 . S
O78 Mn73 2.121 . S
O78 C86 1.258 . S
C79 N80 1.326 . S
C79 C83 1.460 . S
C79 H85 0.929 . S
N80 Mn73 2.257 . S
N80 C79 1.326 . S
N80 C84 1.362 1_556 S
C81 C82 1.258 . S
C81 C84 1.431 . S
C81 C101 1.449 . S
C82 C81 1.258 . S
C82 C83 1.477 1_554 S
C82 H102 0.931 . S
C83 C79 1.460 . S
C83 C82 1.477 1_556 S
C83 H103 0.930 . S
C84 N80 1.362 1_554 S
C84 C81 1.431 . S
C84 C94 1.476 . S
H85 C79 0.929 . S
C86 O77 1.250 . S
C86 O78 1.258 . S
O87 Mn72 2.162 . S
O87 C75 1.281 . S
O88 Mn72 2.297 . S
O88 C75 1.236 . S
N89 Mn73 2.282 . S
N89 C90 1.328 1_556 S
N89 C94 1.318 1_556 S
C90 N89 1.328 1_554 S
C90 C91 1.457 . S
C90 H95 0.929 1_554 S
C91 C90 1.457 . S
C91 C92 1.291 . S
C91 H104 0.931 . S
C92 C91 1.291 . S
C92 C93 1.373 . S
C92 H105 0.929 . S
C93 C92 1.373 . S
C93 C94 1.396 . S
C93 C100 1.403 . S
C94 C84 1.476 . S
C94 N89 1.318 1_554 S
C94 C93 1.396 . S
H95 C90 0.929 1_556 S
O96 Mn72 2.385 . S
O96 C74 1.234 . S
O97 Mn72 2.209 . S
O97 Mn73 2.215 . S
O97 C74 1.283 . S
O98 Mn72 2.094 . S
O98 C76 1.240 . S
O99 Mn73 2.117 . S
O99 C76 1.264 . S
C100 C93 1.403 . S
C100 C101 1.399 . S
C100 H106 0.929 . S
C101 C81 1.449 . S
C101 C100 1.399 . S
C101 H107 0.930 . S
H102 C82 0.931 . S
H103 C83 0.930 . S
H104 C91 0.931 . S
H105 C92 0.929 . S
H106 C100 0.929 . S
H107 C101 0.930 . S
Mn108 O113 2.095 . S
Mn108 O123 2.162 1_545 S
Mn108 O124 2.297 . S
Mn108 O132 2.385 1_545 S
Mn108 O133 2.209 . S
Mn108 O134 2.094 1_545 S
Mn109 O114 2.121 . S
Mn109 N116 2.257 . S
Mn109 N125 2.282 . S
Mn109 O133 2.215 . S
Mn109 O135 2.117 1_545 S
C110 O132 1.234 1_545 S
C110 O133 1.283 . S
C111 O123 1.281 1_545 S
C111 O124 1.236 . S
C112 O134 1.240 . S
C112 O135 1.264 . S
O113 Mn108 2.095 . S
O113 C122 1.250 . S
O114 Mn109 2.121 . S
O114 C122 1.258 . S
C115 N116 1.326 . S
C115 C119 1.460 . S
C115 H121 0.929 . S
N116 Mn109 2.257 . S
N116 C115 1.326 . S
N116 C120 1.362 . S
C117 C118 1.258 . S
C117 C120 1.431 . S
C117 C137 1.449 . S
C118 C117 1.258 . S
C118 C119 1.477 . S
C118 H138 0.931 . S
C119 C115 1.460 . S
C119 C118 1.477 . S
C119 H139 0.930 . S
C120 N116 1.362 . S
C120 C117 1.431 . S
C120 C130 1.476 . S
H121 C115 0.929 . S
C122 O113 1.250 . S
C122 O114 1.258 . S
O123 Mn108 2.162 1_565 S
O123 C111 1.281 1_565 S
O124 Mn108 2.297 . S
O124 C111 1.236 . S
N125 Mn109 2.282 . S
N125 C126 1.328 1_545 S
N125 C130 1.318 . S
C126 N125 1.328 1_565 S
C126 C127 1.457 . S
C126 H131 0.929 . S
C127 C126 1.457 . S
C127 C128 1.291 . S
C127 H140 0.931 . S
C128 C127 1.291 . S
C128 C129 1.373 1_565 S
C128 H141 0.929 1_554 S
C129 C128 1.373 1_545 S
C129 C130 1.396 . S
C129 C136 1.403 . S
C130 C120 1.476 . S
C130 N125 1.318 . S
C130 C129 1.396 . S
H131 C126 0.929 . S
O132 Mn108 2.385 1_565 S
O132 C110 1.234 1_565 S
O133 Mn108 2.209 . S
O133 Mn109 2.215 . S
O133 C110 1.283 . S
O134 Mn108 2.094 1_565 S
O134 C112 1.240 . S
O135 Mn109 2.117 1_565 S
O135 C112 1.264 . S
C136 C129 1.403 . S
C136 C137 1.399 . S
C136 H142 0.929 1_554 S
C137 C117 1.449 . S
C137 C136 1.399 . S
C137 H143 0.930 1_554 S
H138 C118 0.931 . S
H139 C119 0.930 . S
H140 C127 0.931 . S
H141 C128 0.929 1_556 S
H142 C136 0.929 1_556 S
H143 C137 0.930 1_556 S
Mn144 O149 2.095 . S
Mn144 O159 2.162 . S
Mn144 O160 2.297 . S
Mn144 O168 2.385 1_556 S
Mn144 O169 2.209 1_556 S
Mn144 O170 2.094 1_556 S
Mn145 O150 2.121 . S
Mn145 N152 2.257 . S
Mn145 N161 2.282 . S
Mn145 O169 2.215 . S
Mn145 O171 2.117 . S
C146 O168 1.234 . S
C146 O169 1.283 . S
C147 O159 1.281 . S
C147 O160 1.236 . S
C148 O170 1.240 . S
C148 O171 1.264 . S
O149 Mn144 2.095 . S
O149 C158 1.250 . S
O150 Mn145 2.121 . S
O150 C158 1.258 1_554 S
C151 N152 1.326 . S
C151 C155 1.460 . S
C151 H157 0.929 . S
N152 Mn145 2.257 . S
N152 C151 1.326 . S
N152 C156 1.362 . S
C153 C154 1.258 . S
C153 C156 1.431 . S
C153 C173 1.449 . S
C154 C153 1.258 . S
C154 C155 1.477 . S
C154 H174 0.931 . S
C155 C151 1.460 . S
C155 C154 1.477 . S
C155 H175 0.930 . S
C156 N152 1.362 . S
C156 C153 1.431 . S
C156 C166 1.476 . S
H157 C151 0.929 . S
C158 O149 1.250 . S
C158 O150 1.258 1_556 S
O159 Mn144 2.162 . S
O159 C147 1.281 . S
O160 Mn144 2.297 . S
O160 C147 1.236 . S
N161 Mn145 2.282 . S
N161 C162 1.328 . S
N161 C166 1.318 . S
C162 N161 1.328 . S
C162 C163 1.457 . S
C162 H167 0.929 . S
C163 C162 1.457 . S
C163 C164 1.291 . S
C163 H176 0.931 . S
C164 C163 1.291 . S
C164 C165 1.373 . S
C164 H177 0.929 . S
C165 C164 1.373 . S
C165 C166 1.396 . S
C165 C172 1.403 . S
C166 C156 1.476 . S
C166 N161 1.318 . S
C166 C165 1.396 . S
H167 C162 0.929 . S
O168 Mn144 2.385 1_554 S
O168 C146 1.234 . S
O169 Mn144 2.209 1_554 S
O169 Mn145 2.215 . S
O169 C146 1.283 . S
O170 Mn144 2.094 1_554 S
O170 C148 1.240 . S
O171 Mn145 2.117 . S
O171 C148 1.264 . S
C172 C165 1.403 . S
C172 C173 1.399 . S
C172 H178 0.929 . S
C173 C153 1.449 . S
C173 C172 1.399 . S
C173 H179 0.930 . S
H174 C154 0.931 . S
H175 C155 0.930 . S
H176 C163 0.931 . S
H177 C164 0.929 . S
H178 C172 0.929 . S
H179 C173 0.930 . S
Mn180 O185 2.095 1_545 S
Mn180 O195 2.162 . S
Mn180 O196 2.297 1_545 S
Mn180 O204 2.385 . S
Mn180 O205 2.209 1_545 S
Mn180 O206 2.094 . S
Mn181 O186 2.121 . S
Mn181 N188 2.257 . S
Mn181 N197 2.282 1_565 S
Mn181 O205 2.215 . S
Mn181 O207 2.117 1_565 S
C182 O204 1.234 . S
C182 O205 1.283 1_545 S
C183 O195 1.281 . S
C183 O196 1.236 1_545 S
C184 O206 1.240 . S
C184 O207 1.264 . S
O185 Mn180 2.095 1_565 S
O185 C194 1.250 . S
O186 Mn181 2.121 . S
O186 C194 1.258 . S
C187 N188 1.326 . S
C187 C191 1.460 . S
C187 H193 0.929 . S
N188 Mn181 2.257 . S
N188 C187 1.326 . S
N188 C192 1.362 . S
C189 C190 1.258 . S
C189 C192 1.431 . S
C189 C209 1.449 . S
C190 C189 1.258 . S
C190 C191 1.477 . S
C190 H210 0.931 . S
C191 C187 1.460 . S
C191 C190 1.477 . S
C191 H211 0.930 . S
C192 N188 1.362 . S
C192 C189 1.431 . S
C192 C202 1.476 . S
H193 C187 0.929 . S
C194 O185 1.250 . S
C194 O186 1.258 . S
O195 Mn180 2.162 . S
O195 C183 1.281 . S
O196 Mn180 2.297 1_565 S
O196 C183 1.236 1_565 S
N197 Mn181 2.282 1_545 S
N197 C198 1.328 . S
N197 C202 1.318 1_545 S
C198 N197 1.328 . S
C198 C199 1.457 . S
C198 H203 0.929 . S
C199 C198 1.457 . S
C199 C200 1.291 . S
C199 H212 0.931 . S
C200 C199 1.291 . S
C200 C201 1.373 1_545 S
C200 H213 0.929 1_554 S
C201 C200 1.373 1_565 S
C201 C202 1.396 . S
C201 C208 1.403 1_554 S
C202 C192 1.476 . S
C202 N197 1.318 1_565 S
C202 C201 1.396 . S
H203 C198 0.929 . S
O204 Mn180 2.385 . S
O204 C182 1.234 . S
O205 Mn180 2.209 1_565 S
O205 Mn181 2.215 . S
O205 C182 1.283 1_565 S
O206 Mn180 2.094 . S
O206 C184 1.240 . S
O207 Mn181 2.117 1_545 S
O207 C184 1.264 . S
C208 C201 1.403 1_556 S
C208 C209 1.399 1_556 S
C208 H214 0.929 . S
C209 C189 1.449 . S
C209 C208 1.399 1_554 S
C209 H215 0.930 1_554 S
H210 C190 0.931 . S
H211 C191 0.930 . S
H212 C199 0.931 . S
H213 C200 0.929 1_556 S
H214 C208 0.929 . S
H215 C209 0.930 1_556 S
Mn216 O221 2.095 . S
Mn216 O231 2.162 . S
Mn216 O232 2.297 . S
Mn216 O240 2.385 . S
Mn216 O241 2.209 . S
Mn216 O242 2.094 . S
Mn217 O222 2.121 . S
Mn217 N224 2.257 . S
Mn217 N233 2.282 . S
Mn217 O241 2.215 . S
Mn217 O243 2.117 . S
C218 O240 1.234 . S
C218 O241 1.283 . S
C219 O231 1.281 . S
C219 O232 1.236 . S
C220 O242 1.240 . S
C220 O243 1.264 . S
O221 Mn216 2.095 . S
O221 C230 1.250 . S
O222 Mn217 2.121 . S
O222 C230 1.258 . S
C223 N224 1.326 . S
C223 C227 1.460 . S
C223 H229 0.929 . S
N224 Mn217 2.257 . S
N224 C223 1.326 . S
N224 C228 1.362 . S
C225 C226 1.258 . S
C225 C228 1.431 1_556 S
C225 C245 1.449 . S
C226 C225 1.258 . S
C226 C227 1.477 1_556 S
C226 H246 0.931 . S
C227 C223 1.460 . S
C227 C226 1.477 1_554 S
C227 H247 0.930 . S
C228 N224 1.362 . S
C228 C225 1.431 1_554 S
C228 C238 1.476 1_554 S
H229 C223 0.929 . S
C230 O221 1.250 . S
C230 O222 1.258 . S
O231 Mn216 2.162 . S
O231 C219 1.281 . S
O232 Mn216 2.297 . S
O232 C219 1.236 . S
N233 Mn217 2.282 . S
N233 C234 1.328 . S
N233 C238 1.318 1_554 S
C234 N233 1.328 . S
C234 C235 1.457 1_554 S
C234 H239 0.929 . S
C235 C234 1.457 1_556 S
C235 C236 1.291 . S
C235 H248 0.931 . S
C236 C235 1.291 . S
C236 C237 1.373 . S
C236 H249 0.929 . S
C237 C236 1.373 . S
C237 C238 1.396 . S
C237 C244 1.403 . S
C238 C228 1.476 1_556 S
C238 N233 1.318 1_556 S
C238 C237 1.396 . S
H239 C234 0.929 . S
O240 Mn216 2.385 . S
O240 C218 1.234 . S
O241 Mn216 2.209 . S
O241 Mn217 2.215 . S
O241 C218 1.283 . S
O242 Mn216 2.094 . S
O242 C220 1.240 . S
O243 Mn217 2.117 . S
O243 C220 1.264 . S
C244 C237 1.403 . S
C244 C245 1.399 . S
C244 H250 0.929 . S
C245 C225 1.449 . S
C245 C244 1.399 . S
C245 H251 0.930 . S
H246 C226 0.931 . S
H247 C227 0.930 . S
H248 C235 0.931 . S
H249 C236 0.929 . S
H250 C244 0.929 . S
H251 C245 0.930 . S
Mn252 O257 2.095 1_545 S
Mn252 O267 2.162 . S
Mn252 O268 2.297 1_545 S
Mn252 O276 2.385 . S
Mn252 O277 2.209 1_545 S
Mn252 O278 2.094 . S
Mn253 O258 2.121 . S
Mn253 N260 2.257 . S
Mn253 N269 2.282 1_565 S
Mn253 O277 2.215 . S
Mn253 O279 2.117 1_565 S
C254 O276 1.234 . S
C254 O277 1.283 1_545 S
C255 O267 1.281 . S
C255 O268 1.236 1_545 S
C256 O278 1.240 . S
C256 O279 1.264 . S
O257 Mn252 2.095 1_565 S
O257 C266 1.250 . S
O258 Mn253 2.121 . S
O258 C266 1.258 . S
C259 N260 1.326 . S
C259 C263 1.460 . S
C259 H265 0.929 . S
N260 Mn253 2.257 . S
N260 C259 1.326 . S
N260 C264 1.362 . S
C261 C262 1.258 . S
C261 C264 1.431 . S
C261 C281 1.449 . S
C262 C261 1.258 . S
C262 C263 1.477 . S
C262 H282 0.931 . S
C263 C259 1.460 . S
C263 C262 1.477 . S
C263 H283 0.930 . S
C264 N260 1.362 . S
C264 C261 1.431 . S
C264 C274 1.476 . S
H265 C259 0.929 . S
C266 O257 1.250 . S
C266 O258 1.258 . S
O267 Mn252 2.162 . S
O267 C255 1.281 . S
O268 Mn252 2.297 1_565 S
O268 C255 1.236 1_565 S
N269 Mn253 2.282 1_545 S
N269 C270 1.328 . S
N269 C274 1.318 1_545 S
C270 N269 1.328 . S
C270 C271 1.457 . S
C270 H275 0.929 . S
C271 C270 1.457 . S
C271 C272 1.291 . S
C271 H284 0.931 . S
C272 C271 1.291 . S
C272 C273 1.373 1_545 S
C272 H285 0.929 1_556 S
C273 C272 1.373 1_565 S
C273 C274 1.396 . S
C273 C280 1.403 1_556 S
C274 C264 1.476 . S
C274 N269 1.318 1_565 S
C274 C273 1.396 . S
H275 C270 0.929 . S
O276 Mn252 2.385 . S
O276 C254 1.234 . S
O277 Mn252 2.209 1_565 S
O277 Mn253 2.215 . S
O277 C254 1.283 1_565 S
O278 Mn252 2.094 . S
O278 C256 1.240 . S
O279 Mn253 2.117 1_545 S
O279 C256 1.264 . S
C280 C273 1.403 1_554 S
C280 C281 1.399 1_554 S
C280 H286 0.929 . S
C281 C261 1.449 . S
C281 C280 1.399 1_556 S
C281 H287 0.930 1_556 S
H282 C262 0.931 . S
H283 C263 0.930 . S
H284 C271 0.931 . S
H285 C272 0.929 1_554 S
H286 C280 0.929 . S
H287 C281 0.930 1_554 S
Mn288 O293 2.095 . S
Mn288 O303 2.162 . S
Mn288 O304 2.297 . S
Mn288 O312 2.385 . S
Mn288 O313 2.209 . S
Mn288 O314 2.094 . S
Mn289 O294 2.121 . S
Mn289 N296 2.257 . S
Mn289 N305 2.282 . S
Mn289 O313 2.215 . S
Mn289 O315 2.117 . S
C290 O312 1.234 . S
C290 O313 1.283 . S
C291 O303 1.281 . S
C291 O304 1.236 . S
C292 O314 1.240 . S
C292 O315 1.264 . S
O293 Mn288 2.095 . S
O293 C302 1.250 . S
O294 Mn289 2.121 . S
O294 C302 1.258 . S
C295 N296 1.326 . S
C295 C299 1.460 . S
C295 H301 0.929 . S
N296 Mn289 2.257 . S
N296 C295 1.326 . S
N296 C300 1.362 1_554 S
C297 C298 1.258 . S
C297 C300 1.431 . S
C297 C317 1.449 . S
C298 C297 1.258 . S
C298 C299 1.477 1_556 S
C298 H318 0.931 . S
C299 C295 1.460 . S
C299 C298 1.477 1_554 S
C299 H319 0.930 . S
C300 N296 1.362 1_556 S
C300 C297 1.431 . S
C300 C310 1.476 . S
H301 C295 0.929 . S
C302 O293 1.250 . S
C302 O294 1.258 . S
O303 Mn288 2.162 . S
O303 C291 1.281 . S
O304 Mn288 2.297 . S
O304 C291 1.236 . S
N305 Mn289 2.282 . S
N305 C306 1.328 . S
N305 C310 1.318 1_554 S
C306 N305 1.328 . S
C306 C307 1.457 1_554 S
C306 H311 0.929 . S
C307 C306 1.457 1_556 S
C307 C308 1.291 . S
C307 H320 0.931 . S
C308 C307 1.291 . S
C308 C309 1.373 . S
C308 H321 0.929 . S
C309 C308 1.373 . S
C309 C310 1.396 . S
C309 C316 1.403 . S
C310 C300 1.476 . S
C310 N305 1.318 1_556 S
C310 C309 1.396 . S
H311 C306 0.929 . S
O312 Mn288 2.385 . S
O312 C290 1.234 . S
O313 Mn288 2.209 . S
O313 Mn289 2.215 . S
O313 C290 1.283 . S
O314 Mn288 2.094 . S
O314 C292 1.240 . S
O315 Mn289 2.117 . S
O315 C292 1.264 . S
C316 C309 1.403 . S
C316 C317 1.399 . S
C316 H322 0.929 . S
C317 C297 1.449 . S
C317 C316 1.399 . S
C317 H323 0.930 . S
H318 C298 0.931 . S
H319 C299 0.930 . S
H320 C307 0.931 . S
H321 C308 0.929 . S
H322 C316 0.929 . S
H323 C317 0.930 . S
Mn324 O329 2.095 . S
Mn324 O339 2.162 . S
Mn324 O340 2.297 . S
Mn324 O348 2.385 . S
Mn324 O349 2.209 . S
Mn324 O350 2.094 . S
Mn325 O330 2.121 1_554 S
Mn325 N332 2.257 . S
Mn325 N341 2.282 . S
Mn325 O349 2.215 1_554 S
Mn325 O351 2.117 1_554 S
C326 O348 1.234 . S
C326 O349 1.283 . S
C327 O339 1.281 . S
C327 O340 1.236 . S
C328 O350 1.240 . S
C328 O351 1.264 . S
O329 Mn324 2.095 . S
O329 C338 1.250 . S
O330 Mn325 2.121 1_556 S
O330 C338 1.258 . S
C331 N332 1.326 . S
C331 C335 1.460 . S
C331 H337 0.929 . S
N332 Mn325 2.257 . S
N332 C331 1.326 . S
N332 C336 1.362 . S
C333 C334 1.258 . S
C333 C336 1.431 . S
C333 C353 1.449 . S
C334 C333 1.258 . S
C334 C335 1.477 . S
C334 H354 0.931 . S
C335 C331 1.460 . S
C335 C334 1.477 . S
C335 H355 0.930 . S
C336 N332 1.362 . S
C336 C333 1.431 . S
C336 C346 1.476 . S
H337 C331 0.929 . S
C338 O329 1.250 . S
C338 O330 1.258 . S
O339 Mn324 2.162 . S
O339 C327 1.281 . S
O340 Mn324 2.297 . S
O340 C327 1.236 . S
N341 Mn325 2.282 . S
N341 C342 1.328 . S
N341 C346 1.318 . S
C342 N341 1.328 . S
C342 C343 1.457 . S
C342 H347 0.929 . S
C343 C342 1.457 . S
C343 C344 1.291 . S
C343 H356 0.931 . S
C344 C343 1.291 . S
C344 C345 1.373 . S
C344 H357 0.929 . S
C345 C344 1.373 . S
C345 C346 1.396 . S
C345 C352 1.403 . S
C346 C336 1.476 . S
C346 N341 1.318 . S
C346 C345 1.396 . S
H347 C342 0.929 . S
O348 Mn324 2.385 . S
O348 C326 1.234 . S
O349 Mn324 2.209 . S
O349 Mn325 2.215 1_556 S
O349 C326 1.283 . S
O350 Mn324 2.094 . S
O350 C328 1.240 . S
O351 Mn325 2.117 1_556 S
O351 C328 1.264 . S
C352 C345 1.403 . S
C352 C353 1.399 . S
C352 H358 0.929 . S
C353 C333 1.449 . S
C353 C352 1.399 . S
C353 H359 0.930 . S
H354 C334 0.931 . S
H355 C335 0.930 . S
H356 C343 0.931 . S
H357 C344 0.929 . S
H358 C352 0.929 . S
H359 C353 0.930 . S
Mn360 O365 2.094 1_554 S
Mn360 O375 2.156 1_554 S
Mn360 O376 2.294 1_554 S
Mn360 O384 2.389 . S
Mn360 O385 2.213 . S
Mn360 O386 2.095 . S
Mn361 O366 2.121 . S
Mn361 N368 2.257 . S
Mn361 N377 2.282 . S
Mn361 O385 2.215 . S
Mn361 O387 2.117 . S
C362 O384 1.234 . S
C362 O385 1.283 . S
C363 O375 1.281 . S
C363 O376 1.236 . S
C364 O386 1.240 . S
C364 O387 1.264 . S
O365 Mn360 2.094 1_556 S
O365 C374 1.250 . S
O366 Mn361 2.121 . S
O366 C374 1.258 1_554 S
C367 N368 1.326 . S
C367 C371 1.460 . S
C367 H373 0.929 . S
N368 Mn361 2.257 . S
N368 C367 1.326 . S
N368 C372 1.362 . S
C369 C370 1.258 . S
C369 C372 1.431 . S
C369 C389 1.449 . S
C370 C369 1.258 . S
C370 C371 1.477 . S
C370 H390 0.931 . S
C371 C367 1.460 . S
C371 C370 1.477 . S
C371 H391 0.930 . S
C372 N368 1.362 . S
C372 C369 1.431 . S
C372 C382 1.476 . S
H373 C367 0.929 . S
C374 O365 1.250 . S
C374 O366 1.258 1_556 S
O375 Mn360 2.156 1_556 S
O375 C363 1.281 . S
O376 Mn360 2.294 1_556 S
O376 C363 1.236 . S
N377 Mn361 2.282 . S
N377 C378 1.328 . S
N377 C382 1.318 . S
C378 N377 1.328 . S
C378 C379 1.457 . S
C378 H383 0.929 . S
C379 C378 1.457 . S
C379 C380 1.291 . S
C379 H392 0.931 . S
C380 C379 1.291 . S
C380 C381 1.373 . S
C380 H393 0.929 . S
C381 C380 1.373 . S
C381 C382 1.396 . S
C381 C388 1.403 . S
C382 C372 1.476 . S
C382 N377 1.318 . S
C382 C381 1.396 . S
H383 C378 0.929 . S
O384 Mn360 2.389 . S
O384 C362 1.234 . S
O385 Mn360 2.213 . S
O385 Mn361 2.215 . S
O385 C362 1.283 . S
O386 Mn360 2.095 . S
O386 C364 1.240 . S
O387 Mn361 2.117 . S
O387 C364 1.264 . S
C388 C381 1.403 . S
C388 C389 1.399 . S
C388 H394 0.929 . S
C389 C369 1.449 . S
C389 C388 1.399 . S
C389 H395 0.930 . S
H390 C370 0.931 . S
H391 C371 0.930 . S
H392 C379 0.931 . S
H393 C380 0.929 . S
H394 C388 0.929 . S
H395 C389 0.930 . S
Mn396 O401 2.095 . S
Mn396 O411 2.162 . S
Mn396 O412 2.297 . S
Mn396 O420 2.385 . S
Mn396 O421 2.209 . S
Mn396 O422 2.094 . S
Mn397 O402 2.121 . S
Mn397 N404 2.257 1_554 S
Mn397 N413 2.282 1_554 S
Mn397 O421 2.215 . S
Mn397 O423 2.117 . S
C398 O420 1.234 . S
C398 O421 1.283 . S
C399 O411 1.281 . S
C399 O412 1.236 . S
C400 O422 1.240 . S
C400 O423 1.264 . S
O401 Mn396 2.095 . S
O401 C410 1.250 . S
O402 Mn397 2.121 . S
O402 C410 1.258 . S
C403 N404 1.326 . S
C403 C407 1.460 . S
C403 H409 0.929 1_556 S
N404 Mn397 2.257 1_556 S
N404 C403 1.326 . S
N404 C408 1.362 . S
C405 C406 1.258 . S
C405 C408 1.431 . S
C405 C425 1.449 . S
C406 C405 1.258 . S
C406 C407 1.477 . S
C406 H426 0.931 . S
C407 C403 1.460 . S
C407 C406 1.477 . S
C407 H427 0.930 . S
C408 N404 1.362 . S
C408 C405 1.431 . S
C408 C418 1.476 . S
H409 C403 0.929 1_554 S
C410 O401 1.250 . S
C410 O402 1.258 . S
O411 Mn396 2.162 . S
O411 C399 1.281 . S
O412 Mn396 2.297 . S
O412 C399 1.236 . S
N413 Mn397 2.282 1_556 S
N413 C414 1.328 . S
N413 C418 1.318 . S
C414 N413 1.328 . S
C414 C415 1.457 . S
C414 H419 0.929 . S
C415 C414 1.457 . S
C415 C416 1.291 . S
C415 H428 0.931 . S
C416 C415 1.291 . S
C416 C417 1.373 . S
C416 H429 0.929 . S
C417 C416 1.373 . S
C417 C418 1.396 . S
C417 C424 1.403 . S
C418 C408 1.476 . S
C418 N413 1.318 . S
C418 C417 1.396 . S
H419 C414 0.929 . S
O420 Mn396 2.385 . S
O420 C398 1.234 . S
O421 Mn396 2.209 . S
O421 Mn397 2.215 . S
O421 C398 1.283 . S
O422 Mn396 2.094 . S
O422 C400 1.240 . S
O423 Mn397 2.117 . S
O423 C400 1.264 . S
C424 C417 1.403 . S
C424 C425 1.399 . S
C424 H430 0.929 . S
C425 C405 1.449 . S
C425 C424 1.399 . S
C425 H431 0.930 . S
H426 C406 0.931 . S
H427 C407 0.930 . S
H428 C415 0.931 . S
H429 C416 0.929 . S
H430 C424 0.929 . S
H431 C425 0.930 . S
Mn432 O437 2.095 . S
Mn432 O447 2.162 . S
Mn432 O448 2.297 . S
Mn432 O456 2.385 . S
Mn432 O457 2.209 . S
Mn432 O458 2.094 . S
Mn433 O438 2.121 . S
Mn433 N440 2.257 . S
Mn433 N449 2.282 . S
Mn433 O457 2.215 . S
Mn433 O459 2.117 . S
C434 O456 1.234 . S
C434 O457 1.283 . S
C435 O447 1.281 . S
C435 O448 1.236 . S
C436 O458 1.240 . S
C436 O459 1.264 . S
O437 Mn432 2.095 . S
O437 C446 1.250 . S
O438 Mn433 2.121 . S
O438 C446 1.258 . S
C439 N440 1.326 . S
C439 C443 1.460 . S
C439 H445 0.929 . S
N440 Mn433 2.257 . S
N440 C439 1.326 . S
N440 C444 1.362 1_556 S
C441 C442 1.258 . S
C441 C444 1.431 . S
C441 C461 1.449 . S
C442 C441 1.258 . S
C442 C443 1.477 1_554 S
C442 H462 0.931 . S
C443 C439 1.460 . S
C443 C442 1.477 1_556 S
C443 H463 0.930 . S
C444 N440 1.362 1_554 S
C444 C441 1.431 . S
C444 C454 1.476 . S
H445 C439 0.929 . S
C446 O437 1.250 . S
C446 O438 1.258 . S
O447 Mn432 2.162 . S
O447 C435 1.281 . S
O448 Mn432 2.297 . S
O448 C435 1.236 . S
N449 Mn433 2.282 . S
N449 C450 1.328 . S
N449 C454 1.318 1_556 S
C450 N449 1.328 . S
C450 C451 1.457 1_556 S
C450 H455 0.929 . S
C451 C450 1.457 1_554 S
C451 C452 1.291 . S
C451 H464 0.931 . S
C452 C451 1.291 . S
C452 C453 1.373 . S
C452 H465 0.929 . S
C453 C452 1.373 . S
C453 C454 1.396 . S
C453 C460 1.403 . S
C454 C444 1.476 . S
C454 N449 1.318 1_554 S
C454 C453 1.396 . S
H455 C450 0.929 . S
O456 Mn432 2.385 . S
O456 C434 1.234 . S
O457 Mn432 2.209 . S
O457 Mn433 2.215 . S
O457 C434 1.283 . S
O458 Mn432 2.094 . S
O458 C436 1.240 . S
O459 Mn433 2.117 . S
O459 C436 1.264 . S
C460 C453 1.403 . S
C460 C461 1.399 . S
C460 H466 0.929 . S
C461 C441 1.449 . S
C461 C460 1.399 . S
C461 H467 0.930 . S
H462 C442 0.931 . S
H463 C443 0.930 . S
H464 C451 0.931 . S
H465 C452 0.929 . S
H466 C460 0.929 . S
H467 C461 0.930 . S
Mn468 O473 2.095 . S
Mn468 O483 2.162 . S
Mn468 O484 2.297 . S
Mn468 O492 2.385 . S
Mn468 O493 2.209 . S
Mn468 O494 2.094 . S
Mn469 O474 2.121 . S
Mn469 N476 2.257 1_554 S
Mn469 N485 2.282 1_554 S
Mn469 O493 2.215 . S
Mn469 O495 2.117 . S
C470 O492 1.234 . S
C470 O493 1.283 . S
C471 O483 1.281 . S
C471 O484 1.236 . S
C472 O494 1.240 . S
C472 O495 1.264 . S
O473 Mn468 2.095 . S
O473 C482 1.250 . S
O474 Mn469 2.121 . S
O474 C482 1.258 . S
C475 N476 1.326 . S
C475 C479 1.460 . S
C475 H481 0.929 . S
N476 Mn469 2.257 1_556 S
N476 C475 1.326 . S
N476 C480 1.362 . S
C477 C478 1.258 . S
C477 C480 1.431 . S
C477 C497 1.449 . S
C478 C477 1.258 . S
C478 C479 1.477 . S
C478 H498 0.931 . S
C479 C475 1.460 . S
C479 C478 1.477 . S
C479 H499 0.930 . S
C480 N476 1.362 . S
C480 C477 1.431 . S
C480 C490 1.476 . S
H481 C475 0.929 . S
C482 O473 1.250 . S
C482 O474 1.258 . S
O483 Mn468 2.162 . S
O483 C471 1.281 . S
O484 Mn468 2.297 . S
O484 C471 1.236 . S
N485 Mn469 2.282 1_556 S
N485 C486 1.328 . S
N485 C490 1.318 . S
C486 N485 1.328 . S
C486 C487 1.457 . S
C486 H491 0.929 . S
C487 C486 1.457 . S
C487 C488 1.291 . S
C487 H500 0.931 . S
C488 C487 1.291 . S
C488 C489 1.373 . S
C488 H501 0.929 . S
C489 C488 1.373 . S
C489 C490 1.396 . S
C489 C496 1.403 . S
C490 C480 1.476 . S
C490 N485 1.318 . S
C490 C489 1.396 . S
H491 C486 0.929 . S
O492 Mn468 2.385 . S
O492 C470 1.234 . S
O493 Mn468 2.209 . S
O493 Mn469 2.215 . S
O493 C470 1.283 . S
O494 Mn468 2.094 . S
O494 C472 1.240 . S
O495 Mn469 2.117 . S
O495 C472 1.264 . S
C496 C489 1.403 . S
C496 C497 1.399 . S
C496 H502 0.929 . S
C497 C477 1.449 . S
C497 C496 1.399 . S
C497 H503 0.930 . S
H498 C478 0.931 . S
H499 C479 0.930 . S
H500 C487 0.931 . S
H501 C488 0.929 . S
H502 C496 0.929 . S
H503 C497 0.930 . S
Mn504 O509 2.095 . S
Mn504 O519 2.162 . S
Mn504 O520 2.297 . S
Mn504 O528 2.385 1_554 S
Mn504 O529 2.209 1_554 S
Mn504 O530 2.094 1_554 S
Mn505 O510 2.121 . S
Mn505 N512 2.257 . S
Mn505 N521 2.282 . S
Mn505 O529 2.215 . S
Mn505 O531 2.117 . S
C506 O528 1.234 . S
C506 O529 1.283 . S
C507 O519 1.281 . S
C507 O520 1.236 . S
C508 O530 1.240 . S
C508 O531 1.264 . S
O509 Mn504 2.095 . S
O509 C518 1.250 . S
O510 Mn505 2.121 . S
O510 C518 1.258 1_556 S
C511 N512 1.326 . S
C511 C515 1.460 . S
C511 H517 0.929 . S
N512 Mn505 2.257 . S
N512 C511 1.326 . S
N512 C516 1.362 . S
C513 C514 1.258 . S
C513 C516 1.431 . S
C513 C533 1.449 . S
C514 C513 1.258 . S
C514 C515 1.477 . S
C514 H534 0.931 . S
C515 C511 1.460 . S
C515 C514 1.477 . S
C515 H535 0.930 . S
C516 N512 1.362 . S
C516 C513 1.431 . S
C516 C526 1.476 . S
H517 C511 0.929 . S
C518 O509 1.250 . S
C518 O510 1.258 1_554 S
O519 Mn504 2.162 . S
O519 C507 1.281 . S
O520 Mn504 2.297 . S
O520 C507 1.236 . S
N521 Mn505 2.282 . S
N521 C522 1.328 . S
N521 C526 1.318 . S
C522 N521 1.328 . S
C522 C523 1.457 . S
C522 H527 0.929 . S
C523 C522 1.457 . S
C523 C524 1.291 . S
C523 H536 0.931 . S
C524 C523 1.291 . S
C524 C525 1.373 . S
C524 H537 0.929 . S
C525 C524 1.373 . S
C525 C526 1.396 . S
C525 C532 1.403 . S
C526 C516 1.476 . S
C526 N521 1.318 . S
C526 C525 1.396 . S
H527 C522 0.929 . S
O528 Mn504 2.385 1_556 S
O528 C506 1.234 . S
O529 Mn504 2.209 1_556 S
O529 Mn505 2.215 . S
O529 C506 1.283 . S
O530 Mn504 2.094 1_556 S
O530 C508 1.240 . S
O531 Mn505 2.117 . S
O531 C508 1.264 . S
C532 C525 1.403 . S
C532 C533 1.399 . S
C532 H538 0.929 . S
C533 C513 1.449 . S
C533 C532 1.399 . S
C533 H539 0.930 . S
H534 C514 0.931 . S
H535 C515 0.930 . S
H536 C523 0.931 . S
H537 C524 0.929 . S
H538 C532 0.929 . S
H539 C533 0.930 . S
Mn540 O545 2.095 . S
Mn540 O555 2.162 . S
Mn540 O556 2.297 . S
Mn540 O564 2.385 . S
Mn540 O565 2.209 . S
Mn540 O566 2.094 . S
Mn541 O546 2.121 1_554 S
Mn541 N548 2.257 . S
Mn541 N557 2.282 . S
Mn541 O565 2.215 1_554 S
Mn541 O567 2.117 1_554 S
C542 O564 1.234 . S
C542 O565 1.283 . S
C543 O555 1.281 . S
C543 O556 1.236 . S
C544 O566 1.240 . S
C544 O567 1.264 . S
O545 Mn540 2.095 . S
O545 C554 1.250 . S
O546 Mn541 2.121 1_556 S
O546 C554 1.258 . S
C547 N548 1.326 . S
C547 C551 1.460 . S
C547 H553 0.929 1_554 S
N548 Mn541 2.257 . S
N548 C547 1.326 . S
N548 C552 1.362 . S
C549 C550 1.258 . S
C549 C552 1.431 . S
C549 C569 1.449 . S
C550 C549 1.258 . S
C550 C551 1.477 . S
C550 H570 0.931 . S
C551 C547 1.460 . S
C551 C550 1.477 . S
C551 H571 0.930 . S
C552 N548 1.362 . S
C552 C549 1.431 . S
C552 C562 1.476 . S
H553 C547 0.929 1_556 S
C554 O545 1.250 . S
C554 O546 1.258 . S
O555 Mn540 2.162 . S
O555 C543 1.281 . S
O556 Mn540 2.297 . S
O556 C543 1.236 . S
N557 Mn541 2.282 . S
N557 C558 1.328 . S
N557 C562 1.318 . S
C558 N557 1.328 . S
C558 C559 1.457 . S
C558 H563 0.929 . S
C559 C558 1.457 . S
C559 C560 1.291 . S
C559 H572 0.931 . S
C560 C559 1.291 . S
C560 C561 1.373 . S
C560 H573 0.929 . S
C561 C560 1.373 . S
C561 C562 1.396 . S
C561 C568 1.403 . S
C562 C552 1.476 . S
C562 N557 1.318 . S
C562 C561 1.396 . S
H563 C558 0.929 . S
O564 Mn540 2.385 . S
O564 C542 1.234 . S
O565 Mn540 2.209 . S
O565 Mn541 2.215 1_556 S
O565 C542 1.283 . S
O566 Mn540 2.094 . S
O566 C544 1.240 . S
O567 Mn541 2.117 1_556 S
O567 C544 1.264 . S
C568 C561 1.403 . S
C568 C569 1.399 . S
C568 H574 0.929 . S
C569 C549 1.449 . S
C569 C568 1.399 . S
C569 H575 0.930 . S
H570 C550 0.931 . S
H571 C551 0.930 . S
H572 C559 0.931 . S
H573 C560 0.929 . S
H574 C568 0.929 . S
H575 C569 0.930 . S
C3 C435 1.443 . S
C38 C182 1.298 1_655 S
C74 C506 1.283 . S
C255 C111 1.416 1_554 S
C507 C75 1.416 . S
C254 C110 1.283 . S
C434 C2 1.298 . S
C183 C39 1.443 1_456 S
C147 C291 1.443 . S
C218 C362 1.284 . S
C363 C219 1.416 . S
C146 C290 1.298 . S
C470 C326 1.298 1_554 S
C399 C543 1.416 1_455 S
C398 C542 1.284 1_454 S
C327 C471 1.443 . S
C400 C14 1.494 . S
C292 C40 1.415 . S
C76 C338 1.494 . S
C374 C122 1.697 . S
C410 C86 1.697 . S
C112 C302 1.494 . S
C328 C4 1.415 . S
C364 C50 1.494 . S
C158 C544 1.494 . S
C436 C184 1.415 . S
C220 C482 1.494 . S
C266 C518 1.697 . S
C230 C554 1.697 . S
C446 C256 1.494 . S
C472 C148 1.415 . S
C508 C194 1.494 . S
