# Generated by pormake.
# Topology lcy-e, (6)-cn, num edge types: 1
# Building blocks:
#     Node 0, Type 0, BuildingBlock: MIFKUJ_clean_sbu_0, # of connection points: 6
#     Node 1, Type 0, BuildingBlock: MIFKUJ_clean_sbu_0, # of connection points: 6
#     Node 2, Type 0, BuildingBlock: MIFKUJ_clean_sbu_0, # of connection points: 6
#     Node 3, Type 0, BuildingBlock: MIFKUJ_clean_sbu_0, # of connection points: 6
#     Node 4, Type 0, BuildingBlock: MIFKUJ_clean_sbu_0, # of connection points: 6
#     Node 5, Type 0, BuildingBlock: MIFKUJ_clean_sbu_0, # of connection points: 6
#     Node 6, Type 0, BuildingBlock: MIFKUJ_clean_sbu_0, # of connection points: 6
#     Node 7, Type 0, BuildingBlock: MIFKUJ_clean_sbu_0, # of connection points: 6
#     Node 8, Type 0, BuildingBlock: MIFKUJ_clean_sbu_0, # of connection points: 6
#     Node 9, Type 0, BuildingBlock: MIFKUJ_clean_sbu_0, # of connection points: 6
#     Node 10, Type 0, BuildingBlock: MIFKUJ_clean_sbu_0, # of connection points: 6
#     Node 11, Type 0, BuildingBlock: MIFKUJ_clean_sbu_0, # of connection points: 6
#     Edge 12, Type (0, 0), BuildingBlock: ZUJKAS_clean_linker_0, # of connection points: 2
#     Edge 13, Type (0, 0), BuildingBlock: ZUJKAS_clean_linker_0, # of connection points: 2
#     Edge 14, Type (0, 0), BuildingBlock: ZUJKAS_clean_linker_0, # of connection points: 2
#     Edge 15, Type (0, 0), BuildingBlock: ZUJKAS_clean_linker_0, # of connection points: 2
#     Edge 16, Type (0, 0), BuildingBlock: ZUJKAS_clean_linker_0, # of connection points: 2
#     Edge 17, Type (0, 0), BuildingBlock: ZUJKAS_clean_linker_0, # of connection points: 2
#     Edge 18, Type (0, 0), BuildingBlock: ZUJKAS_clean_linker_0, # of connection points: 2
#     Edge 19, Type (0, 0), BuildingBlock: ZUJKAS_clean_linker_0, # of connection points: 2
#     Edge 20, Type (0, 0), BuildingBlock: ZUJKAS_clean_linker_0, # of connection points: 2
#     Edge 21, Type (0, 0), BuildingBlock: ZUJKAS_clean_linker_0, # of connection points: 2
#     Edge 22, Type (0, 0), BuildingBlock: ZUJKAS_clean_linker_0, # of connection points: 2
#     Edge 23, Type (0, 0), BuildingBlock: ZUJKAS_clean_linker_0, # of connection points: 2
#     Edge 24, Type (0, 0), BuildingBlock: ZUJKAS_clean_linker_0, # of connection points: 2
#     Edge 25, Type (0, 0), BuildingBlock: ZUJKAS_clean_linker_0, # of connection points: 2
#     Edge 26, Type (0, 0), BuildingBlock: ZUJKAS_clean_linker_0, # of connection points: 2
#     Edge 27, Type (0, 0), BuildingBlock: ZUJKAS_clean_linker_0, # of connection points: 2
#     Edge 28, Type (0, 0), BuildingBlock: ZUJKAS_clean_linker_0, # of connection points: 2
#     Edge 29, Type (0, 0), BuildingBlock: ZUJKAS_clean_linker_0, # of connection points: 2
#     Edge 30, Type (0, 0), BuildingBlock: ZUJKAS_clean_linker_0, # of connection points: 2
#     Edge 31, Type (0, 0), BuildingBlock: ZUJKAS_clean_linker_0, # of connection points: 2
#     Edge 32, Type (0, 0), BuildingBlock: ZUJKAS_clean_linker_0, # of connection points: 2
#     Edge 33, Type (0, 0), BuildingBlock: ZUJKAS_clean_linker_0, # of connection points: 2
#     Edge 34, Type (0, 0), BuildingBlock: ZUJKAS_clean_linker_0, # of connection points: 2
#     Edge 35, Type (0, 0), BuildingBlock: ZUJKAS_clean_linker_0, # of connection points: 2
#     Edge 36, Type (0, 0), BuildingBlock: ZUJKAS_clean_linker_0, # of connection points: 2
#     Edge 37, Type (0, 0), BuildingBlock: ZUJKAS_clean_linker_0, # of connection points: 2
#     Edge 38, Type (0, 0), BuildingBlock: ZUJKAS_clean_linker_0, # of connection points: 2
#     Edge 39, Type (0, 0), BuildingBlock: ZUJKAS_clean_linker_0, # of connection points: 2
#     Edge 40, Type (0, 0), BuildingBlock: ZUJKAS_clean_linker_0, # of connection points: 2
#     Edge 41, Type (0, 0), BuildingBlock: ZUJKAS_clean_linker_0, # of connection points: 2
#     Edge 42, Type (0, 0), BuildingBlock: ZUJKAS_clean_linker_0, # of connection points: 2
#     Edge 43, Type (0, 0), BuildingBlock: ZUJKAS_clean_linker_0, # of connection points: 2
#     Edge 44, Type (0, 0), BuildingBlock: ZUJKAS_clean_linker_0, # of connection points: 2
#     Edge 45, Type (0, 0), BuildingBlock: ZUJKAS_clean_linker_0, # of connection points: 2
#     Edge 46, Type (0, 0), BuildingBlock: ZUJKAS_clean_linker_0, # of connection points: 2
#     Edge 47, Type (0, 0), BuildingBlock: ZUJKAS_clean_linker_0, # of connection points: 2
# Relax obj value: 0.171
# Max RMSD: 0.274
# Mean RMSD: 0.237
data_MOF--net-lcy-e--node1-MIFKUJ_clean_sbu_0--edge1-ZUJKAS_clean_linker_0
_symmetry_space_group_name_H-M    P1
_symmetry_Int_Tables_number       1
_symmetry_cell_setting            triclinic
loop_
_symmetry_equiv_pos_as_xyz
'x, y, z'
_cell_length_a     46.929417
_cell_length_b     50.432586
_cell_length_c     50.481744
_cell_angle_alpha  87.729977
_cell_angle_beta   88.889975
_cell_angle_gamma 88.779994
loop_
_atom_site_label
_atom_site_type_symbol
_atom_site_fract_x
_atom_site_fract_y
_atom_site_fract_z
_atom_type_partial_charge
Zn0 Zn 0.11581 0.23286 0.43807 0.0
Zn1 Zn 0.11756 0.18029 0.4753 0.0
C2 C 0.12828 0.27827 0.46492 0.0
O3 O 0.10284 0.28364 0.45542 0.0
C4 C 0.08936 0.14804 0.43943 0.0
O5 O 0.11153 0.13269 0.44524 0.0
O6 O 0.10664 0.25605 0.40576 0.0
O7 O 0.13983 0.20254 0.42274 0.0
O8 O 0.15586 0.18047 0.45806 0.0
C9 C 0.12907 0.26319 0.39311 0.0
O10 O 0.15394 0.25485 0.40206 0.0
O11 O 0.14021 0.25604 0.46001 0.0
C12 C 0.09455 0.14216 0.51224 0.0
O13 O 0.07073 0.15374 0.50421 0.0
O14 O 0.11814 0.15048 0.50278 0.0
O15 O 0.10608 0.21271 0.49426 0.0
O16 O 0.08002 0.22774 0.4611 0.0
O17 O 0.08759 0.17094 0.44909 0.0
C18 C 0.15808 0.18681 0.4336 0.0
C19 C 0.08508 0.22663 0.48582 0.0
Zn20 Zn 0.00933 0.87113 0.68042 0.0
Zn21 Zn 0.05395 0.87636 0.72321 0.0
C22 C 0.95644 0.89216 0.69523 0.0
O23 O 0.94971 0.86886 0.68673 0.0
C24 C 0.0906 0.84465 0.69022 0.0
O25 O 0.10932 0.86251 0.69584 0.0
O26 O 0.99037 0.8606 0.64686 0.0
O27 O 0.04559 0.88985 0.66741 0.0
O28 O 0.05496 0.91093 0.70336 0.0
C29 C 0.98748 0.88007 0.63025 0.0
O30 O 0.99785 0.9031 0.63601 0.0
O31 O 0.98246 0.89872 0.69473 0.0
C32 C 0.08473 0.85639 0.76792 0.0
O33 O 0.0667 0.83704 0.76581 0.0
O34 O 0.08324 0.8763 0.75173 0.0
O35 O 0.01686 0.86799 0.74045 0.0
O36 O 0.00704 0.84099 0.70884 0.0
O37 O 0.06534 0.84679 0.69945 0.0
C38 C 0.05555 0.9099 0.67833 0.0
C39 C 0.00466 0.84742 0.73299 0.0
Zn40 Zn 0.36614 0.75269 0.94224 0.0
Zn41 Zn 0.37076 0.82165 0.9699 0.0
C42 C 0.36607 0.70197 0.9677 0.0
O43 O 0.39224 0.70259 0.95799 0.0
C44 C 0.40451 0.84131 0.92513 0.0
O45 O 0.37947 0.84896 0.91607 0.0
O46 O 0.3786 0.73686 0.90736 0.0
O47 O 0.33454 0.77962 0.93327 0.0
O48 O 0.33542 0.82042 0.94838 0.0
C49 C 0.35691 0.72867 0.89558 0.0
O50 O 0.33172 0.7314 0.90706 0.0
O51 O 0.34969 0.72211 0.96383 0.0
C52 C 0.38298 0.85504 0.01286 0.0
O53 O 0.40081 0.83531 0.01861 0.0
O54 O 0.36715 0.85358 0.99281 0.0
O55 O 0.37596 0.78966 0.99411 0.0
O56 O 0.39796 0.76619 0.96392 0.0
O57 O 0.40575 0.82791 0.94697 0.0
C58 C 0.32368 0.80287 0.93511 0.0
C59 C 0.39042 0.7692 0.98796 0.0
Zn60 Zn 0.43982 0.11594 0.23117 0.0
Zn61 Zn 0.4755 0.11907 0.17814 0.0
C62 C 0.47509 0.13298 0.2704 0.0
O63 O 0.46987 0.10833 0.27804 0.0
C64 C 0.43487 0.0911 0.14884 0.0
O65 O 0.43485 0.11353 0.13467 0.0
O66 O 0.40831 0.10876 0.25827 0.0
O67 O 0.41851 0.13415 0.20025 0.0
O68 O 0.4548 0.15356 0.18018 0.0
C69 C 0.39567 0.13027 0.26452 0.0
O70 O 0.40423 0.15267 0.25312 0.0
O71 O 0.46418 0.14237 0.24903 0.0
C72 C 0.52683 0.13144 0.14792 0.0
O73 O 0.53596 0.13963 0.17058 0.0
O74 O 0.50186 0.1224 0.14675 0.0
O75 O 0.49936 0.10835 0.20876 0.0
O76 O 0.4663 0.08335 0.22759 0.0
O77 O 0.44958 0.0892 0.16974 0.0
C78 C 0.42844 0.15319 0.18589 0.0
C79 C 0.49257 0.08835 0.22335 0.0
Zn80 Zn 0.62138 0.31063 0.51133 0.0
Zn81 Zn 0.63178 0.28191 0.57889 0.0
C82 C 0.61588 0.28187 0.46414 0.0
O83 O 0.64303 0.28748 0.46177 0.0
C84 C 0.66023 0.32973 0.59224 0.0
O85 O 0.63398 0.33803 0.59701 0.0
O86 O 0.63227 0.34497 0.49225 0.0
O87 O 0.59101 0.32026 0.53892 0.0
O88 O 0.5946 0.30115 0.57905 0.0
C89 C 0.61071 0.35773 0.4831 0.0
O90 O 0.58534 0.3476 0.48705 0.0
O91 O 0.6017 0.28976 0.48414 0.0
C92 C 0.65087 0.24123 0.61583 0.0
O93 O 0.67077 0.2381 0.59749 0.0
O94 O 0.63149 0.25886 0.61209 0.0
O95 O 0.63771 0.25769 0.54888 0.0
O96 O 0.65616 0.2882 0.52185 0.0
O97 O 0.6644 0.30693 0.58276 0.0
C98 C 0.58153 0.31627 0.5625 0.0
C99 C 0.65166 0.26391 0.52788 0.0
Zn100 Zn 0.94928 0.36943 0.75644 0.0
Zn101 Zn 0.9579 0.39035 0.82839 0.0
C102 C 0.96168 0.36525 0.70129 0.0
O103 O 0.95744 0.39105 0.70216 0.0
C104 C 0.90696 0.41354 0.8494 0.0
O105 O 0.90685 0.39059 0.86266 0.0
O106 O 0.91193 0.38856 0.74807 0.0
O107 O 0.94324 0.34001 0.78407 0.0
O108 O 0.94518 0.35277 0.82561 0.0
C109 C 0.89078 0.37315 0.74833 0.0
O110 O 0.89461 0.34836 0.75669 0.0
O111 O 0.95925 0.35111 0.72261 0.0
C112 C 0.00229 0.38248 0.86668 0.0
O113 O 0.01623 0.37293 0.84623 0.0
O114 O 0.97669 0.39073 0.86389 0.0
O115 O 0.98861 0.40305 0.80303 0.0
O116 O 0.983 0.39258 0.76121 0.0
O117 O 0.92575 0.41731 0.83122 0.0
C118 C 0.94102 0.3351 0.80891 0.0
C119 C 0.99679 0.4038 0.7789 0.0
Zn120 Zn 0.86844 0.69512 0.00875 0.0
Zn121 Zn 0.86413 0.72234 0.07409 0.0
C122 C 0.87097 0.71177 0.95408 0.0
O123 O 0.84642 0.6997 0.95443 0.0
C124 C 0.83644 0.67302 0.0881 0.0
O125 O 0.86194 0.66595 0.09644 0.0
O126 O 0.85437 0.65961 0.99751 0.0
O127 O 0.90182 0.68763 0.03331 0.0
O128 O 0.90203 0.70458 0.07311 0.0
C129 C 0.87441 0.64522 0.98807 0.0
O130 O 0.90046 0.6543 0.98768 0.0
O131 O 0.88489 0.71243 0.9754 0.0
C132 C 0.84399 0.76274 0.10883 0.0
O133 O 0.82657 0.76788 0.08914 0.0
O134 O 0.86202 0.74367 0.10711 0.0
O135 O 0.85829 0.74813 0.04377 0.0
O136 O 0.83624 0.72045 0.01887 0.0
O137 O 0.83272 0.69584 0.07694 0.0
C138 C 0.91385 0.69089 0.0553 0.0
C139 C 0.84211 0.74403 0.02459 0.0
Zn140 Zn 0.53846 0.6236 0.25748 0.0
Zn141 Zn 0.51061 0.62387 0.32146 0.0
C142 C 0.5007 0.62513 0.21243 0.0
O143 O 0.50258 0.59917 0.21546 0.0
C144 C 0.56068 0.59713 0.34122 0.0
O145 O 0.5635 0.61999 0.3524 0.0
O146 O 0.57388 0.61048 0.2385 0.0
O147 O 0.55079 0.65458 0.27919 0.0
O148 O 0.52914 0.65866 0.31822 0.0
C149 C 0.58404 0.62768 0.22202 0.0
O150 O 0.57132 0.65111 0.21976 0.0
O151 O 0.51362 0.63949 0.22833 0.0
C152 C 0.4792 0.59937 0.36325 0.0
O153 O 0.48541 0.57894 0.34866 0.0
O154 O 0.48777 0.62218 0.35552 0.0
O155 O 0.48327 0.61673 0.29291 0.0
O156 O 0.51635 0.59248 0.27364 0.0
O157 O 0.54025 0.59449 0.32543 0.0
C158 C 0.54637 0.66713 0.30033 0.0
C159 C 0.4902 0.59737 0.27875 0.0
Zn160 Zn 0.22799 0.43269 0.12903 0.0
Zn161 Zn 0.18179 0.47601 0.13327 0.0
C162 C 0.27675 0.45578 0.14701 0.0
O163 O 0.28373 0.45038 0.12244 0.0
C164 C 0.14203 0.4482 0.10429 0.0
O165 O 0.12626 0.45493 0.12485 0.0
O166 O 0.24989 0.39895 0.12112 0.0
O167 O 0.19114 0.41961 0.14689 0.0
O168 O 0.17821 0.45563 0.16749 0.0
C169 C 0.25348 0.38441 0.14202 0.0
O170 O 0.24268 0.39259 0.16456 0.0
O171 O 0.25224 0.44951 0.1561 0.0
C172 C 0.15472 0.52249 0.11322 0.0
O173 O 0.17297 0.51766 0.09384 0.0
O174 O 0.15466 0.50717 0.13382 0.0
O175 O 0.21976 0.49071 0.12462 0.0
O176 O 0.22942 0.4591 0.09703 0.0
O177 O 0.1682 0.45423 0.10351 0.0
C178 C 0.17846 0.43059 0.16622 0.0
C179 C 0.23194 0.48311 0.10353 0.0
Zn180 Zn 0.69814 0.02462 0.88045 0.0
Zn181 Zn 0.7426 0.06777 0.88788 0.0
C182 C 0.72451 0.97525 0.88908 0.0
O183 O 0.71532 0.97405 0.86473 0.0
C184 C 0.70514 0.10706 0.86335 0.0
O185 O 0.71229 0.12095 0.88358 0.0
O186 O 0.66246 0.00592 0.87031 0.0
O187 O 0.68422 0.05353 0.90505 0.0
O188 O 0.72463 0.06335 0.92341 0.0
C189 C 0.65012 0.99401 0.88988 0.0
O190 O 0.66053 0.99614 0.91366 0.0
O191 O 0.72008 0.99649 0.90144 0.0
C192 C 0.78595 0.10061 0.86725 0.0
O193 O 0.77849 0.08859 0.84591 0.0
O194 O 0.7735 0.09463 0.8892 0.0
O195 O 0.76019 0.03564 0.87283 0.0
O196 O 0.72307 0.0314 0.84755 0.0
O197 O 0.7145 0.08335 0.86186 0.0
C198 C 0.69767 0.06257 0.92429 0.0
C199 C 0.74982 0.02908 0.85107 0.0
Zn200 Zn 0.7857 0.98724 0.38531 0.0
Zn201 Zn 0.75417 0.92396 0.37954 0.0
C202 C 0.76097 0.03778 0.39208 0.0
O203 O 0.76705 0.0385 0.36654 0.0
C204 C 0.79764 0.90375 0.34596 0.0
O205 O 0.80259 0.88962 0.36788 0.0
O206 O 0.82297 0.0037 0.37261 0.0
O207 O 0.79693 0.95716 0.41178 0.0
O208 O 0.77702 0.91782 0.41179 0.0
C209 C 0.83762 0.00952 0.39248 0.0
O210 O 0.8272 0.00422 0.41639 0.0
O211 O 0.76662 0.01662 0.40571 0.0
C212 C 0.71325 0.89336 0.35569 0.0
O213 O 0.71563 0.91331 0.33829 0.0
O214 O 0.72784 0.89334 0.37666 0.0
O215 O 0.72917 0.95645 0.37979 0.0
O216 O 0.75795 0.98152 0.35536 0.0
O217 O 0.77878 0.92221 0.34644 0.0
C218 C 0.79429 0.93362 0.42149 0.0
C219 C 0.73287 0.97386 0.36134 0.0
Zn220 Zn 0.29574 0.51104 0.63834 0.0
Zn221 Zn 0.26349 0.56573 0.63386 0.0
C222 C 0.25993 0.4711 0.62331 0.0
O223 O 0.26665 0.46371 0.6477 0.0
C224 C 0.30373 0.59727 0.65946 0.0
O225 O 0.29789 0.61305 0.63885 0.0
O226 O 0.32654 0.48319 0.6451 0.0
O227 O 0.31775 0.54017 0.61856 0.0
O228 O 0.28155 0.55975 0.59858 0.0
C229 C 0.33648 0.47461 0.62333 0.0
O230 O 0.32609 0.48448 0.60097 0.0
O231 O 0.26919 0.49306 0.61371 0.0
C232 C 0.21333 0.59919 0.62254 0.0
O233 O 0.20095 0.57689 0.61741 0.0
O234 O 0.2392 0.59868 0.62948 0.0
O235 O 0.23832 0.53744 0.64876 0.0
O236 O 0.27217 0.51715 0.6719 0.0
O237 O 0.29262 0.57446 0.66117 0.0
C238 C 0.30766 0.55294 0.59858 0.0
C239 C 0.2459 0.52308 0.66871 0.0
H240 H 0.17995 0.27377 0.48967 0.0
H241 H 0.20187 0.30661 0.51708 0.0
H242 H 0.1301 0.36 0.50382 0.0
H243 H 0.1079 0.32734 0.47705 0.0
H244 H 0.2181 0.35785 0.50438 0.0
H245 H 0.13495 0.35766 0.58385 0.0
H246 H 0.13725 0.3326 0.55932 0.0
H247 H 0.12086 0.36444 0.55145 0.0
C248 C 0.16882 0.29247 0.4927 0.0
C249 C 0.14213 0.29787 0.48127 0.0
C250 C 0.18137 0.31122 0.50832 0.0
C251 C 0.16739 0.33558 0.51285 0.0
C252 C 0.14098 0.34112 0.50112 0.0
H253 H 0.24516 0.47779 0.57097 0.0
H254 H 0.22225 0.4455 0.54366 0.0
C255 C 0.12841 0.32243 0.48564 0.0
C256 C 0.18051 0.3555 0.52943 0.0
H257 H 0.16846 0.3925 0.58389 0.0
C258 C 0.20734 0.36535 0.52184 0.0
C259 C 0.16655 0.36507 0.55236 0.0
C260 C 0.13845 0.35422 0.56241 0.0
C261 C 0.2204 0.3848 0.53635 0.0
C262 C 0.20596 0.39506 0.55873 0.0
C263 C 0.17932 0.38492 0.56651 0.0
C264 C 0.21872 0.41531 0.5752 0.0
C265 C 0.24981 0.39375 0.52792 0.0
C266 C 0.22331 0.40948 0.60218 0.0
C267 C 0.23599 0.42794 0.61785 0.0
C268 C 0.24439 0.4527 0.60688 0.0
C269 C 0.23907 0.45885 0.57999 0.0
C270 C 0.22622 0.44033 0.56431 0.0
H271 H 0.26072 0.37932 0.51487 0.0
H272 H 0.24801 0.41305 0.51667 0.0
H273 H 0.26329 0.39648 0.5454 0.0
H274 H 0.21754 0.39038 0.61106 0.0
H275 H 0.23967 0.42254 0.6385 0.0
H276 H 0.73599 -0.00032 0.80873 0.0
H277 H 0.7694 0.97803 0.77786 0.0
H278 H 0.84002 0.01276 0.81638 0.0
H279 H 0.80715 0.03392 0.84735 0.0
H280 H 0.81349 0.99836 0.74254 0.0
H281 H 0.85627 0.93231 0.82349 0.0
H282 H 0.82338 0.95117 0.82693 0.0
H283 H 0.85707 0.96687 0.83058 0.0
C284 C 0.75863 0.00284 0.81039 0.0
C285 C 0.76903 0.01811 0.83066 0.0
C286 C 0.77762 0.99051 0.7928 0.0
C287 C 0.80711 0.99343 0.7953 0.0
C288 C 0.81735 0.00983 0.81457 0.0
H289 H 0.96334 0.93621 0.72415 0.0
H290 H 0.92582 0.96247 0.74598 0.0
C291 C 0.79852 0.02191 0.83221 0.0
C292 C 0.82755 0.97855 0.77869 0.0
H293 H 0.88283 0.93366 0.7828 0.0
C294 C 0.8285 0.98403 0.75122 0.0
C295 C 0.84692 0.95977 0.79019 0.0
C296 C 0.84575 0.95194 0.81938 0.0
C297 C 0.84912 0.97177 0.73503 0.0
C298 C 0.86903 0.95372 0.74674 0.0
C299 C 0.86769 0.94786 0.77407 0.0
C300 C 0.89119 0.94008 0.73103 0.0
C301 C 0.85001 0.97847 0.70566 0.0
C302 C 0.8839 0.91903 0.7154 0.0
C303 C 0.90519 0.90388 0.70318 0.0
C304 C 0.93408 0.90964 0.70637 0.0
C305 C 0.94126 0.93136 0.72132 0.0
C306 C 0.91992 0.94636 0.73374 0.0
H307 H 0.83544 0.99537 0.70017 0.0
H308 H 0.87204 0.98346 0.69909 0.0
H309 H 0.84366 0.96091 0.69476 0.0
H310 H 0.86179 0.91378 0.71341 0.0
H311 H 0.89901 0.88733 0.69167 0.0
H312 H 0.31243 0.69288 0.98768 0.0
H313 H 0.29481 0.65201 0.00925 0.0
H314 H 0.37813 0.61522 0.00081 0.0
H315 H 0.39607 0.65613 0.97958 0.0
H316 H 0.29393 0.60166 0.98795 0.0
H317 H 0.35837 0.60107 0.07931 0.0
H318 H 0.35465 0.63007 0.05744 0.0
H319 H 0.37832 0.60328 0.0486 0.0
C320 C 0.32708 0.67618 0.99058 0.0
C321 C 0.35563 0.67774 0.98186 0.0
C322 C 0.31696 0.65281 0.00283 0.0
C323 C 0.3352 0.63065 0.00673 0.0
C324 C 0.36378 0.6322 0.99829 0.0
H325 H 0.26185 0.47557 0.05667 0.0
H326 H 0.29039 0.50854 0.03129 0.0
C327 C 0.37395 0.65557 0.98604 0.0
C328 C 0.32395 0.60581 0.01915 0.0
H329 H 0.32824 0.56479 0.0744 0.0
C330 C 0.30156 0.59342 0.00675 0.0
C331 C 0.33402 0.5952 0.04365 0.0
C332 C 0.3575 0.60814 0.05821 0.0
C333 C 0.28833 0.57111 0.01859 0.0
C334 C 0.29806 0.56075 0.0433 0.0
C335 C 0.32104 0.57266 0.05531 0.0
C336 C 0.28231 0.53994 0.05866 0.0
C337 C 0.26315 0.55962 0.00523 0.0
C338 C 0.26887 0.54656 0.08257 0.0
C339 C 0.25275 0.52795 0.09696 0.0
C340 C 0.2497 0.50217 0.08786 0.0
C341 C 0.26363 0.49531 0.0641 0.0
C342 C 0.27986 0.51411 0.04958 0.0
H343 H 0.25561 0.57248 0.98831 0.0
H344 H 0.26934 0.53994 0.99761 0.0
H345 H 0.24518 0.55672 0.01962 0.0
H346 H 0.27045 0.56637 0.0899 0.0
H347 H 0.24248 0.53398 0.11523 0.0
H348 H 0.4879 0.04981 0.26348 0.0
H349 H 0.52716 0.02703 0.2873 0.0
H350 H 0.58814 0.06962 0.23783 0.0
H351 H 0.54952 0.09193 0.21386 0.0
H352 H 0.60195 0.01612 0.24479 0.0
H353 H 0.57736 0.06253 0.34098 0.0
H354 H 0.54867 0.04495 0.32705 0.0
H355 H 0.56169 0.07447 0.31027 0.0
C356 C 0.50968 0.05411 0.25758 0.0
C357 C 0.51555 0.07281 0.23689 0.0
C358 C 0.53206 0.04126 0.27132 0.0
C359 C 0.56055 0.04697 0.26457 0.0
C360 C 0.56634 0.065 0.24344 0.0
H361 H 0.73142 0.0109 0.31987 0.0
H362 H 0.68927 0.0279 0.29612 0.0
C363 C 0.54415 0.07779 0.2298 0.0
C364 C 0.58465 0.03465 0.27946 0.0
H365 H 0.61649 0.03239 0.33981 0.0
C366 C 0.60509 0.01958 0.26559 0.0
C367 C 0.58876 0.03937 0.30655 0.0
C368 C 0.56814 0.05638 0.32212 0.0
C369 C 0.62954 0.00909 0.27808 0.0
C370 C 0.63379 0.01406 0.30505 0.0
C371 C 0.61316 0.02874 0.31907 0.0
C372 C 0.65938 0.00392 0.31919 0.0
C373 C 0.65054 0.99258 0.26242 0.0
C374 C 0.65642 0.98517 0.34022 0.0
C375 C 0.68034 0.97546 0.35375 0.0
C376 C 0.70776 0.98446 0.34669 0.0
C377 C 0.71066 0.00347 0.32572 0.0
C378 C 0.68663 0.01313 0.31209 0.0
H379 H 0.64125 0.98589 0.2438 0.0
H380 H 0.66947 0.00462 0.25709 0.0
H381 H 0.65786 0.97487 0.27441 0.0
H382 H 0.63557 0.97788 0.34603 0.0
H383 H 0.67725 0.96084 0.3698 0.0
H384 H 0.69413 0.26659 0.48969 0.0
H385 H 0.71274 0.23029 0.4628 0.0
H386 H 0.65251 0.17707 0.50082 0.0
H387 H 0.63389 0.21295 0.52766 0.0
H388 H 0.73573 0.17934 0.48468 0.0
H389 H 0.64348 0.16811 0.4191 0.0
H390 H 0.64962 0.19813 0.43633 0.0
H391 H 0.63452 0.16991 0.45379 0.0
C392 C 0.68472 0.2472 0.49213 0.0
C393 C 0.66256 0.24263 0.5108 0.0
C394 C 0.69538 0.22652 0.47681 0.0
C395 C 0.68377 0.20113 0.47969 0.0
C396 C 0.66149 0.19662 0.49808 0.0
H397 H 0.74992 0.04503 0.4449 0.0
H398 H 0.73171 0.08544 0.46532 0.0
C399 C 0.65102 0.21713 0.51351 0.0
C400 C 0.69572 0.17879 0.4646 0.0
H401 H 0.67818 0.13284 0.42013 0.0
C402 C 0.72331 0.16929 0.47037 0.0
C403 C 0.67949 0.16593 0.44583 0.0
C404 C 0.65021 0.17611 0.43815 0.0
C405 C 0.73478 0.14665 0.45845 0.0
C406 C 0.71803 0.13303 0.44059 0.0
C407 C 0.69081 0.14311 0.43412 0.0
C408 C 0.72847 0.10835 0.42829 0.0
C409 C 0.76474 0.13754 0.46502 0.0
C410 C 0.73192 0.10763 0.40069 0.0
C411 C 0.74218 0.08459 0.38898 0.0
C412 C 0.74901 0.06172 0.40465 0.0
C413 C 0.74496 0.06232 0.43229 0.0
C414 C 0.73474 0.08544 0.444 0.0
H415 H 0.77708 0.15363 0.47351 0.0
H416 H 0.76387 0.12077 0.4799 0.0
H417 H 0.77628 0.13052 0.44712 0.0
H418 H 0.72704 0.12505 0.38821 0.0
H419 H 0.74493 0.0848 0.36762 0.0
H420 H 0.01993 0.41209 0.72913 0.0
H421 H 0.06586 0.43148 0.71719 0.0
H422 H 0.08168 0.44363 0.79966 0.0
H423 H 0.0355 0.42467 0.81185 0.0
H424 H 0.09484 0.48695 0.76803 0.0
H425 H 0.14399 0.39646 0.72675 0.0
H426 H 0.11055 0.40515 0.71175 0.0
H427 H 0.11152 0.3958 0.74652 0.0
C428 C 0.03312 0.41889 0.74477 0.0
C429 C 0.02403 0.41671 0.77147 0.0
C430 C 0.0595 0.42976 0.73792 0.0
C431 C 0.07746 0.43841 0.75759 0.0
C432 C 0.06824 0.43683 0.78419 0.0
H433 H 0.25127 0.48325 0.70729 0.0
H434 H 0.2127 0.46286 0.73409 0.0
C435 C 0.0418 0.42604 0.7911 0.0
C436 C 0.10548 0.44982 0.75019 0.0
H437 H 0.16658 0.43765 0.71457 0.0
C438 C 0.11072 0.47605 0.75668 0.0
C439 C 0.12649 0.43539 0.73594 0.0
C440 C 0.12302 0.40654 0.73008 0.0
C441 C 0.13566 0.48877 0.74786 0.0
C442 C 0.15558 0.47501 0.73177 0.0
C443 C 0.15116 0.44828 0.72668 0.0
C444 C 0.17946 0.48868 0.71779 0.0
C445 C 0.14021 0.51697 0.75549 0.0
C446 C 0.17352 0.50987 0.6998 0.0
C447 C 0.19533 0.52145 0.68457 0.0
C448 C 0.22362 0.51198 0.68681 0.0
C449 C 0.22972 0.49107 0.70523 0.0
C450 C 0.20774 0.47939 0.72049 0.0
H451 H 0.12904 0.52124 0.77451 0.0
H452 H 0.16322 0.52105 0.75742 0.0
H453 H 0.13133 0.53078 0.73995 0.0
H454 H 0.1518 0.51694 0.6969 0.0
H455 H 0.18984 0.53751 0.67058 0.0
H456 H 0.74761 0.97081 0.93854 0.0
H457 H 0.76885 0.93097 0.96013 0.0
H458 H 0.75301 0.88664 0.89076 0.0
H459 H 0.73244 0.92631 0.86887 0.0
H460 H 0.74273 0.88385 0.97196 0.0
H461 H 0.83567 0.86729 0.90456 0.0
H462 H 0.81536 0.8981 0.9042 0.0
H463 H 0.80232 0.8699 0.88777 0.0
C464 C 0.74894 0.95264 0.92779 0.0
C465 C 0.73842 0.95172 0.90198 0.0
C466 C 0.76105 0.92992 0.94014 0.0
C467 C 0.76289 0.90597 0.92687 0.0
C468 C 0.75245 0.90505 0.90111 0.0
H469 H 0.81348 0.74447 0.97769 0.0
H470 H 0.79312 0.78328 0.95333 0.0
C471 C 0.74051 0.92774 0.88871 0.0
C472 C 0.77426 0.88158 0.9405 0.0
H473 H 0.82504 0.83234 0.93606 0.0
C474 C 0.76081 0.87267 0.96418 0.0
C475 C 0.79774 0.86695 0.93018 0.0
C476 C 0.8138 0.87615 0.90541 0.0
C477 C 0.77013 0.84942 0.97778 0.0
C478 C 0.79359 0.83487 0.96749 0.0
C479 C 0.80691 0.84356 0.94371 0.0
C480 C 0.80559 0.81139 0.98202 0.0
C481 C 0.75477 0.84045 0.00299 0.0
C482 C 0.81949 0.81456 0.00594 0.0
C483 C 0.8312 0.79262 0.01975 0.0
C484 C 0.82915 0.76703 0.00992 0.0
C485 C 0.81521 0.7639 0.98586 0.0
C486 C 0.80367 0.78599 0.97191 0.0
H487 H 0.73357 0.85046 0.00513 0.0
H488 H 0.75184 0.81864 0.00357 0.0
H489 H 0.76773 0.84525 0.02025 0.0
H490 H 0.82144 0.8341 0.01384 0.0
H491 H 0.84186 0.79577 0.03817 0.0
H492 H 0.43681 0.61339 0.26467 0.0
H493 H 0.40019 0.58692 0.24525 0.0
H494 H 0.45636 0.51802 0.24969 0.0
H495 H 0.49369 0.54496 0.26766 0.0
H496 H 0.4326 0.52002 0.20483 0.0
H497 H 0.34693 0.53584 0.27927 0.0
H498 H 0.35852 0.56704 0.26525 0.0
H499 H 0.38296 0.5461 0.28417 0.0
C500 C 0.44121 0.59254 0.26167 0.0
C501 C 0.46793 0.58111 0.26779 0.0
C502 C 0.42019 0.57735 0.2508 0.0
C503 C 0.42515 0.55024 0.2467 0.0
C504 C 0.45192 0.53883 0.25285 0.0
H505 H 0.28439 0.45082 0.20055 0.0
H506 H 0.32115 0.47192 0.22604 0.0
C507 C 0.47322 0.5542 0.2631 0.0
C508 C 0.40305 0.53423 0.23453 0.0
H509 H 0.33212 0.5204 0.23716 0.0
C510 C 0.41072 0.51984 0.21216 0.0
C511 C 0.37458 0.53341 0.24436 0.0
C512 C 0.36538 0.54619 0.26976 0.0
C513 C 0.3906 0.50546 0.19882 0.0
C514 C 0.36166 0.50651 0.20732 0.0
C515 C 0.35417 0.52003 0.23029 0.0
C516 C 0.33886 0.49425 0.19227 0.0
C517 C 0.40077 0.48906 0.17597 0.0
C518 C 0.33605 0.50037 0.16507 0.0
C519 C 0.31564 0.48793 0.1505 0.0
C520 C 0.29699 0.4698 0.16303 0.0
C521 C 0.29865 0.46471 0.19049 0.0
C522 C 0.31961 0.47671 0.205 0.0
H523 H 0.42345 0.48272 0.17823 0.0
H524 H 0.3878 0.47108 0.17426 0.0
H525 H 0.39928 0.50124 0.15724 0.0
H526 H 0.34981 0.51466 0.155 0.0
H527 H 0.31435 0.49259 0.12941 0.0
H528 H 0.51143 0.11577 0.30889 0.0
H529 H 0.53636 0.14244 0.34002 0.0
H530 H 0.50195 0.21397 0.30212 0.0
H531 H 0.47733 0.18729 0.27033 0.0
H532 H 0.55827 0.21859 0.31539 0.0
H533 H 0.49548 0.17787 0.40115 0.0
H534 H 0.51355 0.15255 0.38287 0.0
H535 H 0.48604 0.17273 0.3673 0.0
C536 C 0.50924 0.13719 0.30708 0.0
C537 C 0.49212 0.14947 0.28741 0.0
C538 C 0.52341 0.15239 0.32497 0.0
C539 C 0.52038 0.18013 0.32383 0.0
C540 C 0.50433 0.19255 0.30348 0.0
H541 H 0.55884 0.278 0.45583 0.0
H542 H 0.53583 0.25452 0.42086 0.0
C543 C 0.49033 0.17732 0.28533 0.0
C544 C 0.5335 0.196 0.34428 0.0
H545 H 0.53596 0.20304 0.41116 0.0
C546 C 0.55331 0.21533 0.33633 0.0
C547 C 0.52659 0.19203 0.37155 0.0
C548 C 0.50404 0.17287 0.38124 0.0
C549 C 0.56694 0.23037 0.355 0.0
C550 C 0.56104 0.22547 0.38236 0.0
C551 C 0.54075 0.20655 0.39022 0.0
C552 C 0.57528 0.23998 0.40323 0.0
C553 C 0.58712 0.25165 0.34519 0.0
C554 C 0.60509 0.23928 0.40519 0.0
C555 C 0.61831 0.25293 0.42499 0.0
C556 C 0.60191 0.2671 0.44348 0.0
C557 C 0.57205 0.26725 0.44187 0.0
C558 C 0.55887 0.25388 0.42188 0.0
H559 H 0.58288 0.25811 0.32431 0.0
H560 H 0.58549 0.26927 0.35769 0.0
H561 H 0.60932 0.24366 0.346 0.0
H562 H 0.61815 0.228 0.39156 0.0
H563 H 0.64135 0.25214 0.42598 0.0
H564 H 0.03753 0.25843 0.47639 0.0
H565 H 0.01208 0.28665 0.50816 0.0
H566 H 0.0709 0.26094 0.56897 0.0
H567 H 0.09615 0.23288 0.53783 0.0
H568 H 0.98696 0.26966 0.56005 0.0
H569 H 0.07157 0.3438 0.56789 0.0
H570 H 0.06987 0.32206 0.54038 0.0
H571 H 0.08441 0.31006 0.57139 0.0
C572 C 0.04497 0.25881 0.49654 0.0
C573 C 0.06887 0.2434 0.50454 0.0
C574 C 0.03046 0.27493 0.51461 0.0
C575 C 0.03991 0.2761 0.54075 0.0
C576 C 0.06356 0.26062 0.54876 0.0
H577 H 0.97139 0.31261 0.69229 0.0
H578 H 0.98715 0.29293 0.65087 0.0
C579 C 0.07786 0.24445 0.53091 0.0
C580 C 0.02496 0.29282 0.56028 0.0
H581 H 0.03665 0.34189 0.60317 0.0
C582 C 0.99756 0.28577 0.5692 0.0
C583 C 0.03875 0.31397 0.57195 0.0
C584 C 0.06767 0.32313 0.56226 0.0
C585 C 0.98421 0.29842 0.59057 0.0
C586 C 0.99886 0.31835 0.60344 0.0
C587 C 0.02558 0.32639 0.59349 0.0
C588 C 0.98759 0.33018 0.62805 0.0
C589 C 0.95473 0.2901 0.59941 0.0
C590 C 0.98306 0.3577 0.6291 0.0
C591 C 0.97421 0.36904 0.6528 0.0
C592 C 0.96997 0.35307 0.67597 0.0
C593 C 0.97437 0.32547 0.6748 0.0
C594 C 0.98316 0.31416 0.65108 0.0
H595 H 0.94331 0.28084 0.58318 0.0
H596 H 0.95649 0.27522 0.61612 0.0
H597 H 0.94182 0.30729 0.60631 0.0
H598 H 0.98657 0.37044 0.6116 0.0
H599 H 0.97106 0.39037 0.653 0.0
H600 H 0.00492 0.85127 0.78646 0.0
H601 H 0.97802 0.82569 0.81977 0.0
H602 H 0.94024 0.78149 0.7585 0.0
H603 H 0.96778 0.80692 0.72466 0.0
H604 H 0.91983 0.82258 0.82555 0.0
H605 H 0.96948 0.72296 0.81017 0.0
H606 H 0.98488 0.75311 0.79646 0.0
H607 H 0.9543 0.73958 0.78144 0.0
C608 C 0.99099 0.83607 0.77993 0.0
C609 C 0.98851 0.83111 0.75285 0.0
C610 C 0.97559 0.82146 0.79906 0.0
C611 C 0.95728 0.80158 0.79166 0.0
C612 C 0.95463 0.79647 0.76466 0.0
H613 H 0.85085 0.70751 0.90399 0.0
H614 H 0.86938 0.72871 0.86282 0.0
C615 C 0.97028 0.81105 0.74537 0.0
C616 C 0.94084 0.78682 0.8126 0.0
H617 H 0.93463 0.726 0.84422 0.0
C618 C 0.92285 0.80141 0.82946 0.0
C619 C 0.94484 0.7592 0.81765 0.0
C620 C 0.96456 0.74272 0.80066 0.0
C621 C 0.90944 0.78927 0.85169 0.0
C622 C 0.91419 0.76191 0.85718 0.0
C623 C 0.93117 0.74703 0.83982 0.0
C624 C 0.90313 0.74886 0.88185 0.0
C625 C 0.89078 0.80581 0.86958 0.0
C626 C 0.91621 0.75314 0.906 0.0
C627 C 0.90587 0.74097 0.92949 0.0
C628 C 0.88214 0.72444 0.92919 0.0
C629 C 0.86911 0.7202 0.90488 0.0
C630 C 0.87965 0.73221 0.88135 0.0
H631 H 0.88554 0.82564 0.86036 0.0
H632 H 0.87064 0.79543 0.87464 0.0
H633 H 0.90202 0.8087 0.88837 0.0
H634 H 0.93445 0.7659 0.90665 0.0
H635 H 0.91634 0.74467 0.94788 0.0
H636 H 0.50914 0.67381 0.18875 0.0
H637 H 0.48525 0.69357 0.15006 0.0
H638 H 0.43294 0.62451 0.14639 0.0
H639 H 0.45789 0.60403 0.18451 0.0
H640 H 0.44946 0.63926 0.09846 0.0
H641 H 0.409 0.72864 0.14748 0.0
H642 H 0.44694 0.72614 0.15021 0.0
H643 H 0.42489 0.70093 0.16586 0.0
C644 C 0.49238 0.66293 0.17985 0.0
C645 C 0.4852 0.63749 0.18977 0.0
C646 C 0.4786 0.6743 0.15779 0.0
C647 C 0.45673 0.66086 0.14565 0.0
C648 C 0.4496 0.63536 0.15549 0.0
H649 H 0.35814 0.75707 0.03181 0.0
H650 H 0.37005 0.72624 0.06862 0.0
C651 C 0.46381 0.62371 0.17729 0.0
C652 C 0.44195 0.67332 0.12235 0.0
H653 H 0.41154 0.7317 0.09978 0.0
C654 C 0.4408 0.65935 0.09884 0.0
C655 C 0.42983 0.69924 0.12294 0.0
C656 C 0.42742 0.71443 0.14809 0.0
C657 C 0.42918 0.67111 0.07561 0.0
C658 C 0.41948 0.69788 0.07566 0.0
C659 C 0.41942 0.71133 0.0995 0.0
C660 C 0.41014 0.71288 0.05127 0.0
C661 C 0.42718 0.65466 0.05143 0.0
C662 C 0.42826 0.71513 0.0288 0.0
C663 C 0.4212 0.73248 0.00746 0.0
C664 C 0.39627 0.74831 0.00857 0.0
C665 C 0.37769 0.74532 0.03058 0.0
C666 C 0.38444 0.72766 0.05161 0.0
H667 H 0.42567 0.6332 0.05704 0.0
H668 H 0.40839 0.6607 0.03941 0.0
H669 H 0.4467 0.65728 0.03893 0.0
H670 H 0.44853 0.7045 0.02825 0.0
H671 H 0.43594 0.73451 0.99076 0.0
H672 H 0.17373 0.2805 0.36258 0.0
H673 H 0.17272 0.31102 0.32404 0.0
H674 H 0.0811 0.31722 0.33058 0.0
H675 H 0.08181 0.28629 0.36948 0.0
H676 H 0.10407 0.30992 0.27739 0.0
H677 H 0.1553 0.39167 0.32754 0.0
H678 H 0.17432 0.36056 0.33157 0.0
H679 H 0.13896 0.36412 0.34555 0.0
C680 C 0.15329 0.28829 0.35594 0.0
C681 C 0.12784 0.28111 0.36924 0.0
C682 C 0.1528 0.30582 0.33393 0.0
C683 C 0.12691 0.31668 0.3248 0.0
C684 C 0.10131 0.30915 0.33753 0.0
H685 H 0.14436 0.44732 0.20707 0.0
H686 H 0.12544 0.42052 0.24452 0.0
C687 C 0.10177 0.29153 0.3597 0.0
C688 C 0.1271 0.33581 0.30184 0.0
H689 H 0.15711 0.39381 0.28001 0.0
C690 C 0.11521 0.32851 0.27799 0.0
C691 C 0.14121 0.36022 0.30284 0.0
C692 C 0.15293 0.36978 0.32833 0.0
C693 C 0.1186 0.34432 0.25463 0.0
C694 C 0.13468 0.36771 0.25521 0.0
C695 C 0.14504 0.37574 0.27947 0.0
C696 C 0.14281 0.3833 0.23082 0.0
C697 C 0.10524 0.33563 0.22955 0.0
C698 C 0.15867 0.37125 0.21055 0.0
C699 C 0.16941 0.38648 0.18905 0.0
C700 C 0.16485 0.41414 0.18763 0.0
C701 C 0.14837 0.42608 0.20763 0.0
C702 C 0.13747 0.41079 0.22902 0.0
H703 H 0.08625 0.32334 0.23404 0.0
H704 H 0.09878 0.35292 0.21658 0.0
H705 H 0.12092 0.32331 0.21848 0.0
H706 H 0.16374 0.35019 0.21185 0.0
H707 H 0.18213 0.37668 0.17405 0.0
H708 H 0.9504 0.84107 0.6181 0.0
H709 H 0.91791 0.84167 0.58045 0.0
H710 H 0.95275 0.91597 0.55134 0.0
H711 H 0.98518 0.9154 0.58839 0.0
H712 H 0.87676 0.8814 0.57006 0.0
H713 H 0.9513 0.87355 0.48447 0.0
H714 H 0.96154 0.8645 0.51799 0.0
H715 H 0.96158 0.89871 0.50632 0.0
C716 C 0.9515 0.8572 0.60333 0.0
C717 C 0.97031 0.87819 0.6062 0.0
C718 C 0.9329 0.85756 0.58192 0.0
C719 C 0.93319 0.87869 0.56294 0.0
C720 C 0.95256 0.89919 0.56542 0.0
H721 H 0.83839 0.95937 0.44326 0.0
H722 H 0.87051 0.94257 0.47773 0.0
C723 C 0.97096 0.89892 0.58676 0.0
C724 C 0.91172 0.88097 0.5418 0.0
H725 H 0.90522 0.89378 0.47529 0.0
C726 C 0.88284 0.88351 0.54925 0.0
C727 C 0.91977 0.88372 0.51471 0.0
C728 C 0.95022 0.8797 0.50537 0.0
C729 C 0.862 0.89042 0.53046 0.0
C730 C 0.87034 0.89462 0.5036 0.0
C731 C 0.89898 0.89078 0.49598 0.0
C732 C 0.85004 0.90469 0.48334 0.0
C733 C 0.8315 0.89458 0.53961 0.0
C734 C 0.82783 0.88895 0.47516 0.0
C735 C 0.80933 0.89852 0.45542 0.0
C736 C 0.81275 0.92403 0.44353 0.0
C737 C 0.83493 0.93977 0.45205 0.0
C738 C 0.85343 0.93015 0.47168 0.0
H739 H 0.82932 0.89434 0.56157 0.0
H740 H 0.82284 0.91378 0.53139 0.0
H741 H 0.8183 0.87854 0.53222 0.0
H742 H 0.82509 0.86912 0.48374 0.0
H743 H 0.79258 0.8858 0.44927 0.0
H744 H 0.32369 0.56957 0.70347 0.0
H745 H 0.34309 0.58803 0.74336 0.0
H746 H 0.33652 0.66677 0.70711 0.0
H747 H 0.31832 0.64845 0.66696 0.0
H748 H 0.38343 0.66171 0.73675 0.0
H749 H 0.28972 0.62373 0.79445 0.0
H750 H 0.31159 0.59846 0.77975 0.0
H751 H 0.2924 0.62217 0.75891 0.0
C752 C 0.32682 0.59077 0.70387 0.0
C753 C 0.31908 0.60758 0.68217 0.0
C754 C 0.33775 0.60132 0.72674 0.0
C755 C 0.34055 0.62888 0.72853 0.0
C756 C 0.33442 0.64546 0.7063 0.0
H757 H 0.31548 0.72615 0.85946 0.0
H758 H 0.31595 0.7013 0.81913 0.0
C759 C 0.32392 0.63493 0.68333 0.0
C760 C 0.34757 0.6409 0.75399 0.0
H761 H 0.32235 0.64843 0.8172 0.0
C762 C 0.37025 0.65866 0.75445 0.0
C763 C 0.33017 0.63709 0.77701 0.0
C764 C 0.30446 0.61954 0.77757 0.0
C765 C 0.37541 0.67333 0.77696 0.0
C766 C 0.35777 0.66969 0.7998 0.0
C767 C 0.33588 0.65116 0.79967 0.0
C768 C 0.3594 0.68666 0.82314 0.0
C769 C 0.39872 0.6935 0.77564 0.0
C770 C 0.38397 0.68728 0.83863 0.0
C771 C 0.38388 0.70193 0.86173 0.0
C772 C 0.35905 0.71572 0.86983 0.0
C773 C 0.33487 0.71555 0.85388 0.0
C774 C 0.33509 0.70131 0.8308 0.0
H775 H 0.40637 0.69773 0.75497 0.0
H776 H 0.3912 0.7124 0.78422 0.0
H777 H 0.41707 0.68575 0.78735 0.0
H778 H 0.40284 0.67579 0.83337 0.0
H779 H 0.40274 0.70157 0.87379 0.0
H780 H 0.58371 0.14255 0.14465 0.0
H781 H 0.61579 0.13753 0.1062 0.0
H782 H 0.54527 0.11327 0.05995 0.0
H783 H 0.51312 0.11844 0.09795 0.0
H784 H 0.62518 0.08963 0.08109 0.0
H785 H 0.58477 0.1674 0.01004 0.0
H786 H 0.57653 0.16753 0.04515 0.0
H787 H 0.55712 0.14679 0.02395 0.0
C788 C 0.57497 0.13657 0.12616 0.0
C789 C 0.5459 0.13083 0.12434 0.0
C790 C 0.59331 0.13372 0.10426 0.0
C791 C 0.58279 0.12539 0.08019 0.0
C792 C 0.55369 0.12027 0.07818 0.0
H793 H 0.64009 0.06277 0.93366 0.0
H794 H 0.61417 0.07986 0.97208 0.0
C795 C 0.53539 0.12304 0.10001 0.0
C796 C 0.6024 0.11955 0.05786 0.0
H797 H 0.61348 0.13242 0.99165 0.0
C798 C 0.62301 0.09927 0.06162 0.0
C799 C 0.59935 0.13214 0.03252 0.0
C800 C 0.57842 0.15486 0.02768 0.0
C801 C 0.63979 0.09033 0.04037 0.0
C802 C 0.63608 0.10234 0.01486 0.0
C803 C 0.61611 0.1232 0.01125 0.0
C804 C 0.65191 0.09276 0.99145 0.0
C805 C 0.66043 0.06735 0.04514 0.0
C806 C 0.68163 0.09466 0.98959 0.0
C807 C 0.69651 0.08484 0.96774 0.0
C808 C 0.68187 0.07311 0.94731 0.0
C809 C 0.652 0.07163 0.94908 0.0
C810 C 0.63716 0.08143 0.97096 0.0
H811 H 0.65643 0.05684 0.06458 0.0
H812 H 0.65909 0.05285 0.02923 0.0
H813 H 0.68249 0.07487 0.04497 0.0
H814 H 0.6933 0.10373 0.00504 0.0
H815 H 0.71949 0.08648 0.9669 0.0
H816 H 0.68988 0.20274 0.63061 0.0
H817 H 0.69294 0.17857 0.67344 0.0
H818 H 0.61756 0.22013 0.70121 0.0
H819 H 0.61408 0.2442 0.65836 0.0
H820 H 0.69934 0.2024 0.72179 0.0
H821 H 0.60157 0.14212 0.72235 0.0
H822 H 0.61651 0.15747 0.69242 0.0
H823 H 0.59594 0.17701 0.71515 0.0
C824 C 0.67375 0.20655 0.64571 0.0
C825 C 0.65178 0.22543 0.64111 0.0
C826 C 0.67554 0.19271 0.67014 0.0
C827 C 0.65531 0.19739 0.69034 0.0
C828 C 0.63307 0.21589 0.6857 0.0
H829 H 0.68803 0.15909 0.85687 0.0
H830 H 0.67199 0.18172 0.81587 0.0
C831 C 0.63125 0.22974 0.66125 0.0
C832 C 0.65876 0.18429 0.71684 0.0
H833 H 0.62729 0.14189 0.76242 0.0
C834 C 0.68359 0.18918 0.7307 0.0
C835 C 0.63819 0.16699 0.72826 0.0
C836 C 0.61164 0.16034 0.71374 0.0
C837 C 0.6885 0.17718 0.75573 0.0
C838 C 0.66775 0.16022 0.76739 0.0
C839 C 0.64291 0.15523 0.75353 0.0
C840 C 0.6726 0.14619 0.7932 0.0
C841 C 0.71624 0.18219 0.76918 0.0
C842 C 0.67677 0.11857 0.79428 0.0
C843 C 0.68579 0.10557 0.81766 0.0
C844 C 0.69078 0.12002 0.84033 0.0
C845 C 0.68463 0.14744 0.83969 0.0
C846 C 0.67557 0.16042 0.81628 0.0
H847 H 0.73226 0.19116 0.75523 0.0
H848 H 0.71224 0.19609 0.7854 0.0
H849 H 0.72541 0.16345 0.778 0.0
H850 H 0.67443 0.10726 0.77668 0.0
H851 H 0.6901 0.08439 0.81755 0.0
H852 H 0.16785 0.43308 0.05791 0.0
H853 H 0.14452 0.418 0.0183 0.0
H854 H 0.06297 0.42206 0.05886 0.0
H855 H 0.08593 0.43703 0.09848 0.0
H856 H 0.10336 0.37225 0.01285 0.0
H857 H 0.05862 0.47351 0.9901 0.0
H858 H 0.08886 0.46764 0.0113 0.0
H859 H 0.05358 0.4605 0.02352 0.0
C860 C 0.14499 0.43046 0.05851 0.0
C861 C 0.12871 0.43647 0.08127 0.0
C862 C 0.13174 0.42183 0.03589 0.0
C863 C 0.10206 0.41923 0.03568 0.0
C864 C 0.0859 0.4242 0.05865 0.0
H865 H 0.97858 0.39737 0.91386 0.0
H866 H 0.00299 0.40398 0.95535 0.0
C867 C 0.09909 0.43271 0.08126 0.0
C868 C 0.08768 0.41266 0.01107 0.0
H869 H 0.04431 0.43932 0.9631 0.0
C870 C 0.09049 0.38685 0.00186 0.0
C871 C 0.07091 0.43182 0.99695 0.0
C872 C 0.06786 0.46001 0.00575 0.0
C873 C 0.07641 0.37952 0.97903 0.0
C874 C 0.05968 0.39874 0.96482 0.0
C875 C 0.05705 0.42459 0.97406 0.0
C876 C 0.04478 0.39272 0.94019 0.0
C877 C 0.07902 0.35114 0.97074 0.0
C878 C 0.06017 0.38415 0.91788 0.0
C879 C 0.04624 0.38018 0.89417 0.0
C880 C 0.01672 0.38507 0.89223 0.0
C881 C 0.00134 0.39345 0.91468 0.0
C882 C 0.01525 0.39723 0.93841 0.0
H883 H 0.08544 0.33753 0.98752 0.0
H884 H 0.05862 0.34432 0.96287 0.0
H885 H 0.09562 0.34969 0.95489 0.0
H886 H 0.08306 0.38117 0.91858 0.0
H887 H 0.05875 0.37392 0.87719 0.0
H888 H 0.78057 0.91863 0.29584 0.0
H889 H 0.79363 0.89693 0.25469 0.0
H890 H 0.85405 0.84638 0.29698 0.0
H891 H 0.84078 0.86759 0.33828 0.0
H892 H 0.84478 0.88767 0.22589 0.0
H893 H 0.79882 0.79382 0.26716 0.0
H894 H 0.79321 0.82516 0.28269 0.0
H895 H 0.82628 0.80694 0.28685 0.0
C896 C 0.79703 0.90325 0.29631 0.0
C897 C 0.80936 0.89457 0.3204 0.0
C898 C 0.80443 0.89083 0.27277 0.0
C899 C 0.82428 0.86962 0.27294 0.0
C900 C 0.83816 0.86229 0.29657 0.0
H901 H 0.87412 0.75553 0.1546 0.0
H902 H 0.87132 0.78248 0.1939 0.0
C903 C 0.83067 0.87454 0.32012 0.0
C904 C 0.82903 0.85405 0.24889 0.0
H905 H 0.82136 0.79221 0.22503 0.0
C906 C 0.8397 0.8668 0.22567 0.0
C907 C 0.82221 0.82684 0.24865 0.0
C908 C 0.80925 0.81238 0.27257 0.0
C909 C 0.84405 0.85295 0.20226 0.0
C910 C 0.83721 0.82578 0.20207 0.0
C911 C 0.82674 0.81301 0.22532 0.0
C912 C 0.83988 0.81032 0.17776 0.0
C913 C 0.85619 0.8674 0.178 0.0
C914 C 0.82291 0.81691 0.15581 0.0
C915 C 0.82433 0.80149 0.1334 0.0
C916 C 0.84273 0.77914 0.13255 0.0
C917 C 0.85977 0.77263 0.15458 0.0
C918 C 0.85823 0.78801 0.17704 0.0
H919 H 0.86686 0.88593 0.18313 0.0
H920 H 0.87177 0.85456 0.16738 0.0
H921 H 0.83865 0.87286 0.16427 0.0
H922 H 0.80818 0.83373 0.15618 0.0
H923 H 0.81088 0.80705 0.1168 0.0
H924 H 0.29448 0.5844 0.55501 0.0
H925 H 0.32449 0.59379 0.51579 0.0
H926 H 0.39244 0.54562 0.54999 0.0
H927 H 0.36276 0.53642 0.58952 0.0
H928 H 0.411 0.59342 0.52671 0.0
H929 H 0.34246 0.54016 0.45884 0.0
H930 H 0.32398 0.56544 0.4769 0.0
H931 H 0.33875 0.5368 0.49446 0.0
C932 C 0.31583 0.57583 0.55423 0.0
C933 C 0.32617 0.55952 0.57531 0.0
C934 C 0.33289 0.58113 0.53176 0.0
C935 C 0.36047 0.57002 0.52983 0.0
C936 C 0.37114 0.55428 0.55108 0.0
H937 H 0.46174 0.55271 0.38668 0.0
H938 H 0.43398 0.54633 0.42774 0.0
C939 C 0.35414 0.54904 0.57363 0.0
C940 C 0.37812 0.57458 0.50552 0.0
H941 H 0.38014 0.56492 0.43899 0.0
C942 C 0.40432 0.58718 0.50751 0.0
C943 C 0.36947 0.56606 0.48061 0.0
C944 C 0.34227 0.55114 0.47751 0.0
C945 C 0.42202 0.59178 0.48513 0.0
C946 C 0.41297 0.58395 0.46009 0.0
C947 C 0.38689 0.57112 0.45818 0.0
C948 C 0.43053 0.58814 0.43566 0.0
C949 C 0.45049 0.60444 0.48859 0.0
C950 C 0.43767 0.61381 0.42642 0.0
C951 C 0.45368 0.61754 0.40296 0.0
C952 C 0.46255 0.59565 0.38824 0.0
C953 C 0.45523 0.57 0.39752 0.0
C954 C 0.43936 0.5663 0.42099 0.0
H955 H 0.45732 0.60292 0.50956 0.0
H956 H 0.46722 0.59507 0.47599 0.0
H957 H 0.44881 0.6258 0.48256 0.0
H958 H 0.43055 0.63098 0.43715 0.0
H959 H 0.45885 0.63756 0.39625 0.0
H960 H 0.17014 0.19677 0.38092 0.0
H961 H 0.21027 0.17942 0.35488 0.0
H962 H 0.24 0.1342 0.42356 0.0
H963 H 0.20007 0.15165 0.44991 0.0
H964 H 0.28216 0.16314 0.39843 0.0
H965 H 0.22483 0.10593 0.32558 0.0
H966 H 0.21143 0.1394 0.32756 0.0
H967 H 0.20818 0.11685 0.35593 0.0
C968 C 0.18504 0.18295 0.39048 0.0
C969 C 0.18186 0.17562 0.41753 0.0
C970 C 0.20786 0.17288 0.37549 0.0
C971 C 0.22783 0.15515 0.38717 0.0
C972 C 0.22468 0.14768 0.41412 0.0
H973 H 0.36814 0.08809 0.28931 0.0
H974 H 0.32818 0.09027 0.32151 0.0
C975 C 0.20186 0.15773 0.42914 0.0
C976 C 0.2531 0.14602 0.37169 0.0
H977 H 0.27317 0.11735 0.31387 0.0
C978 C 0.28022 0.15274 0.38017 0.0
C979 C 0.2506 0.13207 0.34809 0.0
C980 C 0.22221 0.12289 0.33887 0.0
C981 C 0.30475 0.14729 0.36487 0.0
C982 C 0.30203 0.13508 0.34034 0.0
C983 C 0.27514 0.12692 0.33259 0.0
C984 C 0.32634 0.13318 0.32135 0.0
C985 C 0.33336 0.15524 0.37475 0.0
C986 C 0.33814 0.15653 0.31045 0.0
C987 C 0.36067 0.15537 0.29213 0.0
C988 C 0.37191 0.13079 0.28423 0.0
C989 C 0.36001 0.10731 0.29509 0.0
C990 C 0.33722 0.10852 0.31343 0.0
H991 H 0.33299 0.15701 0.39663 0.0
H992 H 0.35032 0.14066 0.36927 0.0
H993 H 0.33892 0.17486 0.36559 0.0
H994 H 0.32971 0.17576 0.31595 0.0
H995 H 0.36921 0.17387 0.28414 0.0
H996 H 0.04784 0.11552 0.53086 0.0
H997 H 0.0467 0.07651 0.56103 0.0
H998 H 0.13824 0.07764 0.5669 0.0
H999 H 0.13967 0.11638 0.53618 0.0
H1000 H 0.11931 0.02817 0.55897 0.0
H1001 H 0.05688 0.0731 0.64043 0.0
H1002 H 0.03913 0.07685 0.60932 0.0
H1003 H 0.07265 0.09274 0.61354 0.0
C1004 C 0.06773 0.10762 0.53871 0.0
C1005 C 0.09383 0.11912 0.53123 0.0
C1006 C 0.06702 0.0854 0.55607 0.0
C1007 C 0.09233 0.07449 0.56659 0.0
C1008 C 0.11845 0.08587 0.55913 0.0
H1009 H 0.08152 0.9541 0.69505 0.0
H1010 H 0.09513 0.99339 0.66829 0.0
C1011 C 0.11921 0.10801 0.54161 0.0
C1012 C 0.09151 0.0506 0.58459 0.0
H1013 H 0.05981 0.02558 0.64128 0.0
C1014 C 0.10658 0.02765 0.57714 0.0
C1015 C 0.07534 0.05012 0.60853 0.0
C1016 C 0.06034 0.07461 0.61859 0.0
C1017 C 0.10496 0.00388 0.59247 0.0
C1018 C 0.08726 0.00295 0.61548 0.0
C1019 C 0.07313 0.02621 0.62347 0.0
C1020 C 0.08209 0.97797 0.6311 0.0
C1021 C 0.12226 0.98007 0.58386 0.0
C1022 C 0.07056 0.95611 0.61903 0.0
C1023 C 0.06304 0.9335 0.63422 0.0
C1024 C 0.06638 0.93255 0.66187 0.0
C1025 C 0.07856 0.95423 0.67381 0.0
C1026 C 0.08634 0.97671 0.65856 0.0
H1027 H 0.14126 0.98614 0.57181 0.0
H1028 H 0.12947 0.96759 0.60117 0.0
H1029 H 0.10895 0.96782 0.57137 0.0
H1030 H 0.06644 0.95685 0.59798 0.0
H1031 H 0.05373 0.91717 0.62439 0.0
H1032 H 0.09248 0.81739 0.80635 0.0
H1033 H 0.13172 0.81229 0.83737 0.0
H1034 H 0.16764 0.88516 0.80572 0.0
H1035 H 0.12854 0.89038 0.77443 0.0
H1036 H 0.20633 0.84197 0.80812 0.0
H1037 H 0.14872 0.8531 0.90418 0.0
H1038 H 0.13335 0.8295 0.88319 0.0
H1039 H 0.13367 0.864 0.87283 0.0
C1040 C 0.10855 0.8325 0.80614 0.0
C1041 C 0.10741 0.85428 0.78789 0.0
C1042 C 0.13085 0.82964 0.82402 0.0
C1043 C 0.15236 0.84853 0.82405 0.0
C1044 C 0.15112 0.87047 0.80611 0.0
H1045 H 0.29251 0.84952 0.93568 0.0
H1046 H 0.25082 0.86194 0.90914 0.0
C1047 C 0.12876 0.87341 0.78826 0.0
C1048 C 0.17718 0.84432 0.84146 0.0
H1049 H 0.19625 0.83522 0.90619 0.0
C1050 C 0.20418 0.84074 0.82957 0.0
C1051 C 0.17431 0.84296 0.86943 0.0
C1052 C 0.146 0.84783 0.88323 0.0
C1053 C 0.22829 0.83496 0.84488 0.0
C1054 C 0.22521 0.83244 0.87277 0.0
C1055 C 0.19842 0.83691 0.88476 0.0
C1056 C 0.24957 0.82456 0.88969 0.0
C1057 C 0.25689 0.8315 0.83112 0.0
C1058 C 0.2622 0.79924 0.88788 0.0
C1059 C 0.2859 0.79203 0.90301 0.0
C1060 C 0.29746 0.81002 0.92029 0.0
C1061 C 0.28426 0.8352 0.92251 0.0
C1062 C 0.26043 0.84234 0.90741 0.0
H1063 H 0.25685 0.84019 0.81055 0.0
H1064 H 0.27392 0.84086 0.84228 0.0
H1065 H 0.26218 0.81 0.83013 0.0
H1066 H 0.25382 0.78512 0.87456 0.0
H1067 H 0.29538 0.77249 0.9008 0.0
H1068 H 0.39992 0.0888 0.10635 0.0
H1069 H 0.38348 0.04907 0.08555 0.0
H1070 H 0.42467 -0.0001 0.14595 0.0
H1071 H 0.44054 0.0395 0.16723 0.0
H1072 H 0.41784 0.01233 0.06436 0.0
H1073 H 0.34971 0.9633 0.14158 0.0
H1074 H 0.36043 0.99734 0.1434 0.0
H1075 H 0.38428 0.97058 0.1536 0.0
C1076 C 0.40497 0.06955 0.11554 0.0
C1077 C 0.4216 0.06733 0.13843 0.0
C1078 C 0.39558 0.04684 0.1036 0.0
C1079 C 0.40258 0.02147 0.1143 0.0
C1080 C 0.41839 0.01923 0.13765 0.0
H1081 H 0.41121 0.86278 0.05865 0.0
H1082 H 0.41318 0.90354 0.08317 0.0
C1083 C 0.42761 0.04193 0.14973 0.0
C1084 C 0.39591 0.99747 0.0996 0.0
H1085 H 0.36626 0.93618 0.1061 0.0
C1086 C 0.40618 0.99586 0.07338 0.0
C1087 C 0.3808 0.97591 0.11139 0.0
C1088 C 0.36792 0.97694 0.13895 0.0
C1089 C 0.40258 0.973 0.05894 0.0
C1090 C 0.3881 0.95124 0.07095 0.0
C1091 C 0.3774 0.95292 0.09699 0.0
C1092 C 0.38501 0.92617 0.05704 0.0
C1093 C 0.41513 0.97191 0.03124 0.0
C1094 C 0.36806 0.9253 0.03451 0.0
C1095 C 0.36682 0.902 0.02044 0.0
C1096 C 0.3826 0.8792 0.02866 0.0
C1097 C 0.39892 0.88 0.05169 0.0
C1098 C 0.40002 0.90324 0.06579 0.0
H1099 H 0.42993 0.98844 0.02662 0.0
H1100 H 0.42682 0.95279 0.02858 0.0
H1101 H 0.39767 0.97327 0.0167 0.0
H1102 H 0.3561 0.94275 0.02761 0.0
H1103 H 0.35398 0.90204 0.00285 0.0
H1104 H 0.88009 0.41605 0.71431 0.0
H1105 H 0.83816 0.42309 0.68631 0.0
H1106 H 0.79982 0.35371 0.72344 0.0
H1107 H 0.84091 0.34699 0.75161 0.0
H1108 H 0.82202 0.38922 0.65015 0.0
H1109 H 0.73212 0.40322 0.72017 0.0
H1110 H 0.76869 0.4066 0.72982 0.0
H1111 H 0.75264 0.37439 0.73037 0.0
C1112 C 0.86228 0.40284 0.71706 0.0
C1113 C 0.86382 0.38092 0.73513 0.0
C1114 C 0.83841 0.40681 0.70096 0.0
C1115 C 0.81565 0.38911 0.70296 0.0
C1116 C 0.81669 0.36804 0.72193 0.0
H1117 H 0.71608 0.3135 0.59527 0.0
H1118 H 0.75392 0.33457 0.61861 0.0
C1119 C 0.8404 0.36408 0.73792 0.0
C1120 C 0.79245 0.39026 0.68334 0.0
H1121 H 0.72078 0.38205 0.67899 0.0
C1122 C 0.79979 0.38834 0.65636 0.0
C1123 C 0.76337 0.38967 0.69123 0.0
C1124 C 0.75378 0.3939 0.71947 0.0
C1125 C 0.7791 0.3836 0.63748 0.0
C1126 C 0.75046 0.38006 0.64592 0.0
C1127 C 0.7428 0.38425 0.67249 0.0
C1128 C 0.72869 0.36943 0.6284 0.0
C1129 C 0.78832 0.3818 0.60881 0.0
C1130 C 0.70176 0.38189 0.62608 0.0
C1131 C 0.67987 0.36964 0.61303 0.0
C1132 C 0.68447 0.34464 0.6021 0.0
C1133 C 0.71183 0.33282 0.60331 0.0
C1134 C 0.73362 0.34498 0.61652 0.0
H1135 H 0.80685 0.39464 0.60416 0.0
H1136 H 0.79508 0.36106 0.60499 0.0
H1137 H 0.77077 0.38769 0.59521 0.0
H1138 H 0.69739 0.40069 0.63517 0.0
H1139 H 0.65905 0.37931 0.61241 0.0
H1140 H 0.86515 0.41262 0.88794 0.0
H1141 H 0.84501 0.45055 0.91108 0.0
H1142 H 0.89188 0.50379 0.85829 0.0
H1143 H 0.91144 0.46614 0.83467 0.0
H1144 H 0.87685 0.48154 0.93811 0.0
H1145 H 0.8186 0.54521 0.86527 0.0
H1146 H 0.82823 0.5111 0.85915 0.0
H1147 H 0.85351 0.53709 0.85263 0.0
C1148 C 0.8705 0.43245 0.88074 0.0
C1149 C 0.89011 0.43632 0.85958 0.0
C1150 C 0.85897 0.45413 0.89402 0.0
C1151 C 0.86675 0.48011 0.8864 0.0
C1152 C 0.88496 0.48406 0.86423 0.0
H1153 H 0.91384 0.60821 0.97349 0.0
H1154 H 0.90623 0.5671 0.95126 0.0
C1155 C 0.89633 0.46241 0.85082 0.0
C1156 C 0.8596 0.50253 0.90377 0.0
H1157 H 0.83855 0.56784 0.90237 0.0
C1158 C 0.86782 0.50019 0.93039 0.0
C1159 C 0.84745 0.52684 0.89398 0.0
C1160 C 0.83617 0.5301 0.86625 0.0
C1161 C 0.86619 0.52196 0.94683 0.0
C1162 C 0.85657 0.54687 0.93629 0.0
C1163 C 0.84632 0.5488 0.91033 0.0
C1164 C 0.86028 0.57151 0.9508 0.0
C1165 C 0.87572 0.5183 0.97514 0.0
C1166 C 0.83693 0.58791 0.95765 0.0
C1167 C 0.84123 0.61164 0.9705 0.0
C1168 C 0.86898 0.61943 0.97627 0.0
C1169 C 0.89218 0.60283 0.9694 0.0
C1170 C 0.88787 0.5792 0.9568 0.0
H1171 H 0.87349 0.49739 0.98253 0.0
H1172 H 0.89857 0.52335 0.97618 0.0
H1173 H 0.8633 0.53143 0.98845 0.0
H1174 H 0.81547 0.58239 0.953 0.0
H1175 H 0.82295 0.62411 0.97538 0.0
H1176 H 0.83588 0.62532 0.11603 0.0
H1177 H 0.79407 0.60233 0.13433 0.0
H1178 H 0.73913 0.66116 0.09598 0.0
H1179 H 0.78054 0.68384 0.07726 0.0
H1180 H 0.75828 0.62468 0.16886 0.0
H1181 H 0.69576 0.5951 0.08408 0.0
H1182 H 0.73286 0.60373 0.08065 0.0
H1183 H 0.70532 0.62922 0.07974 0.0
C1184 C 0.81486 0.63296 0.11093 0.0
C1185 C 0.81154 0.65656 0.09538 0.0
C1186 C 0.791 0.61977 0.12139 0.0
C1187 C 0.76344 0.62982 0.11631 0.0
C1188 C 0.76011 0.65259 0.09966 0.0
H1189 H 0.60547 0.65821 0.18119 0.0
H1190 H 0.64924 0.65095 0.15563 0.0
C1191 C 0.78389 0.66573 0.08915 0.0
C1192 C 0.73842 0.61927 0.13138 0.0
H1193 H 0.6682 0.60539 0.12431 0.0
C1194 C 0.73881 0.61961 0.15918 0.0
C1195 C 0.71308 0.61252 0.11876 0.0
C1196 C 0.71185 0.60984 0.08916 0.0
C1197 C 0.71387 0.61584 0.17451 0.0
C1198 C 0.68802 0.61141 0.16166 0.0
C1199 C 0.68807 0.60897 0.13407 0.0
C1200 C 0.66032 0.61369 0.17592 0.0
C1201 C 0.71485 0.61872 0.20413 0.0
C1202 C 0.65186 0.59487 0.19559 0.0
C1203 C 0.62668 0.59898 0.21039 0.0
C1204 C 0.6098 0.62203 0.20572 0.0
C1205 C 0.61806 0.64036 0.18547 0.0
C1206 C 0.64301 0.63618 0.17069 0.0
H1207 H 0.73627 0.62433 0.21074 0.0
H1208 H 0.69902 0.63401 0.21042 0.0
H1209 H 0.70918 0.59963 0.21437 0.0
H1210 H 0.66493 0.5773 0.19976 0.0
H1211 H 0.62077 0.58446 0.22579 0.0
H1212 H 0.6597 0.38223 0.46508 0.0
H1213 H 0.66308 0.42488 0.43988 0.0
H1214 H 0.57149 0.43353 0.44236 0.0
H1215 H 0.56786 0.39137 0.46726 0.0
H1216 H 0.63488 0.44009 0.38903 0.0
H1217 H 0.60225 0.5036 0.47188 0.0
H1218 H 0.61602 0.4701 0.47707 0.0
H1219 H 0.57941 0.4759 0.46822 0.0
C1220 C 0.64033 0.39332 0.46032 0.0
C1221 C 0.61352 0.38346 0.46824 0.0
C1222 C 0.6423 0.41758 0.4459 0.0
C1223 C 0.61753 0.4324 0.43958 0.0
C1224 C 0.59086 0.42253 0.44738 0.0
H1225 H 0.55388 0.54535 0.32888 0.0
H1226 H 0.57536 0.50617 0.35092 0.0
C1227 C 0.58885 0.39835 0.46154 0.0
C1228 C 0.61891 0.4581 0.42447 0.0
H1229 H 0.59661 0.52262 0.42797 0.0
C1230 C 0.62709 0.45832 0.39759 0.0
C1231 C 0.60916 0.48188 0.43581 0.0
C1232 C 0.60146 0.48301 0.46491 0.0
C1233 C 0.62391 0.48141 0.3813 0.0
C1234 C 0.61189 0.50464 0.3922 0.0
C1235 C 0.60561 0.5048 0.4195 0.0
C1236 C 0.60299 0.52817 0.37554 0.0
C1237 C 0.63288 0.48053 0.3525 0.0
C1238 C 0.61147 0.55365 0.38185 0.0
C1239 C 0.59894 0.57616 0.36948 0.0
C1240 C 0.57757 0.5736 0.35064 0.0
C1241 C 0.57032 0.54805 0.34324 0.0
C1242 C 0.58278 0.52556 0.35571 0.0
H1243 H 0.65032 0.46562 0.34958 0.0
H1244 H 0.61448 0.47464 0.34073 0.0
H1245 H 0.64014 0.5002 0.34468 0.0
H1246 H 0.62693 0.55613 0.39718 0.0
H1247 H 0.6051 0.59555 0.37557 0.0
H1248 H 0.26524 0.35106 0.18416 0.0
H1249 H 0.2951 0.31096 0.18499 0.0
H1250 H 0.31017 0.32042 0.10069 0.0
H1251 H 0.28015 0.36104 0.09955 0.0
H1252 H 0.29456 0.26475 0.12543 0.0
H1253 H 0.38529 0.31475 0.17033 0.0
H1254 H 0.35077 0.32112 0.18516 0.0
H1255 H 0.35808 0.3327 0.15168 0.0
C1256 C 0.27474 0.34467 0.16569 0.0
C1257 C 0.27046 0.35937 0.14178 0.0
C1258 C 0.29181 0.32173 0.16626 0.0
C1259 C 0.30492 0.31295 0.14296 0.0
C1260 C 0.30019 0.32703 0.11886 0.0
H1261 H 0.44238 0.19444 0.15176 0.0
H1262 H 0.41214 0.23207 0.13742 0.0
C1263 C 0.28312 0.35019 0.11827 0.0
C1264 C 0.32425 0.28947 0.14438 0.0
H1265 H 0.38713 0.26767 0.17101 0.0
C1266 C 0.31498 0.26535 0.13506 0.0
C1267 C 0.35089 0.2905 0.15679 0.0
C1268 C 0.36207 0.31617 0.16643 0.0
C1269 C 0.33135 0.24188 0.13877 0.0
C1270 C 0.35737 0.24268 0.15239 0.0
C1271 C 0.36708 0.26706 0.16073 0.0
C1272 C 0.37461 0.21847 0.15901 0.0
C1273 C 0.32061 0.21644 0.12824 0.0
C1274 C 0.36349 0.19827 0.17588 0.0
C1275 C 0.38075 0.17667 0.18417 0.0
C1276 C 0.40949 0.17504 0.17589 0.0
C1277 C 0.42037 0.19509 0.15859 0.0
C1278 C 0.40311 0.21661 0.15031 0.0
H1279 H 0.30502 0.22036 0.11219 0.0
H1280 H 0.33848 0.20401 0.1205 0.0
H1281 H 0.30974 0.20497 0.14455 0.0
H1282 H 0.34172 0.19961 0.1833 0.0
H1283 H 0.37176 0.16164 0.19758 0.0
H1284 H 0.92823 0.29278 0.7793 0.0
H1285 H 0.90737 0.25092 0.79483 0.0
H1286 H 0.9106 0.27529 0.8756 0.0
H1287 H 0.93126 0.31745 0.86032 0.0
H1288 H 0.9266 0.21039 0.83232 0.0
H1289 H 0.82543 0.26049 0.86408 0.0
H1290 H 0.85153 0.27691 0.84285 0.0
H1291 H 0.85759 0.27243 0.87777 0.0
C1292 C 0.92478 0.28922 0.80041 0.0
C1293 C 0.93117 0.30865 0.81853 0.0
C1294 C 0.9129 0.26524 0.80923 0.0
C1295 C 0.90709 0.26023 0.83629 0.0
C1296 C 0.91453 0.27901 0.85458 0.0
H1297 H 0.80363 0.13212 0.90655 0.0
H1298 H 0.83631 0.16934 0.90198 0.0
C1299 C 0.92643 0.30304 0.84579 0.0
C1300 C 0.892 0.23587 0.84503 0.0
H1301 H 0.82804 0.21406 0.86958 0.0
C1302 C 0.90514 0.21113 0.84068 0.0
C1303 C 0.86405 0.23699 0.85598 0.0
C1304 C 0.84863 0.26308 0.86032 0.0
C1305 C 0.89085 0.1874 0.84664 0.0
C1306 C 0.86254 0.18855 0.85673 0.0
C1307 C 0.84977 0.21327 0.86189 0.0
C1308 C 0.84494 0.1646 0.86016 0.0
C1309 C 0.90615 0.16135 0.84197 0.0
C1310 C 0.83897 0.14966 0.83816 0.0
C1311 C 0.82036 0.12845 0.84068 0.0
C1312 C 0.80716 0.1219 0.86523 0.0
C1313 C 0.81351 0.13663 0.88737 0.0
C1314 C 0.83216 0.15789 0.88481 0.0
H1315 H 0.92966 0.16343 0.84246 0.0
H1316 H 0.8997 0.14584 0.85701 0.0
H1317 H 0.90072 0.15454 0.82208 0.0
H1318 H 0.84805 0.15489 0.81881 0.0
H1319 H 0.81587 0.11759 0.8232 0.0
H1320 H 0.14977 0.55877 0.07194 0.0
H1321 H 0.11107 0.59115 0.06426 0.0
H1322 H 0.0716 0.56686 0.13892 0.0
H1323 H 0.11012 0.5342 0.14673 0.0
H1324 H 0.03554 0.56617 0.09513 0.0
H1325 H 0.09106 0.66205 0.09888 0.0
H1326 H 0.10792 0.63847 0.07755 0.0
H1327 H 0.10587 0.63128 0.11267 0.0
C1328 C 0.13308 0.56055 0.08692 0.0
C1329 C 0.13294 0.54386 0.10991 0.0
C1330 C 0.11109 0.57919 0.08256 0.0
C1331 C 0.0887 0.58154 0.10116 0.0
C1332 C 0.08884 0.5654 0.12443 0.0
H1333 H 0.94631 0.69402 0.09947 0.0
H1334 H 0.98954 0.66832 0.11037 0.0
C1335 C 0.11086 0.54679 0.12885 0.0
C1336 C 0.06392 0.59917 0.09522 0.0
H1337 H 0.04405 0.66372 0.08168 0.0
C1338 C 0.03734 0.58752 0.09235 0.0
C1339 C 0.0664 0.62698 0.09174 0.0
C1340 C 0.09429 0.64054 0.09559 0.0
C1341 C 0.01319 0.60292 0.08558 0.0
C1342 C 0.01585 0.63063 0.08129 0.0
C1343 C 0.04227 0.6424 0.08471 0.0
C1344 C 0.99115 0.64764 0.07365 0.0
C1345 C 0.98496 0.58949 0.08325 0.0
C1346 C 0.97829 0.64492 0.0491 0.0
C1347 C 0.95361 0.65957 0.04275 0.0
C1348 C 0.9414 0.67718 0.0609 0.0
C1349 C 0.95504 0.68054 0.08509 0.0
C1350 C 0.97977 0.66593 0.09136 0.0
H1351 H 0.98527 0.56921 0.09269 0.0
H1352 H 0.96751 0.60133 0.09254 0.0
H1353 H 0.98006 0.58779 0.06197 0.0
H1354 H 0.98707 0.63111 0.03505 0.0
H1355 H 0.94379 0.6566 0.0239 0.0
H1356 H 0.70555 0.84763 0.3859 0.0
H1357 H 0.67647 0.80978 0.37556 0.0
H1358 H 0.65082 0.85003 0.30264 0.0
H1359 H 0.6795 0.88803 0.31289 0.0
H1360 H 0.60564 0.82686 0.33163 0.0
H1361 H 0.69634 0.75573 0.31868 0.0
H1362 H 0.69561 0.77196 0.34973 0.0
H1363 H 0.70101 0.79114 0.31935 0.0
C1364 C 0.69367 0.84845 0.36769 0.0
C1365 C 0.69494 0.87079 0.35016 0.0
C1366 C 0.67722 0.82675 0.36174 0.0
C1367 C 0.66189 0.82697 0.33814 0.0
C1368 C 0.66264 0.84943 0.32089 0.0
H1369 H 0.58674 0.69065 0.26772 0.0
H1370 H 0.61393 0.73031 0.27588 0.0
C1371 C 0.67907 0.87111 0.32679 0.0
C1372 C 0.64483 0.80388 0.33145 0.0
H1373 H 0.64989 0.73798 0.3186 0.0
C1374 C 0.61528 0.80743 0.32871 0.0
C1375 C 0.65759 0.7787 0.32725 0.0
C1376 C 0.68941 0.77409 0.32864 0.0
C1377 C 0.59802 0.78628 0.3224 0.0
C1378 C 0.61065 0.76088 0.31911 0.0
C1379 C 0.64027 0.75746 0.32132 0.0
C1380 C 0.59345 0.73748 0.31376 0.0
C1381 C 0.56647 0.79136 0.31903 0.0
C1382 C 0.57305 0.72836 0.33243 0.0
C1383 C 0.55748 0.70576 0.32786 0.0
C1384 C 0.5621 0.69174 0.30455 0.0
C1385 C 0.58254 0.70101 0.28583 0.0
C1386 C 0.59814 0.72363 0.29046 0.0
H1387 H 0.56146 0.81279 0.31519 0.0
H1388 H 0.55829 0.78005 0.30244 0.0
H1389 H 0.55497 0.78483 0.33748 0.0
H1390 H 0.5695 0.73847 0.35077 0.0
H1391 H 0.54205 0.69913 0.34278 0.0
H1392 H 0.55272 0.35728 0.5369 0.0
H1393 H 0.51061 0.38167 0.55302 0.0
H1394 H 0.50877 0.33153 0.62418 0.0
H1395 H 0.55084 0.30702 0.60837 0.0
H1396 H 0.45433 0.34025 0.59711 0.0
H1397 H 0.51068 0.43302 0.61691 0.0
H1398 H 0.51754 0.41994 0.58472 0.0
H1399 H 0.52904 0.4014 0.61382 0.0
C1400 C 0.54331 0.35134 0.55592 0.0
C1401 C 0.55521 0.33026 0.57138 0.0
C1402 C 0.51938 0.3654 0.56516 0.0
C1403 C 0.50693 0.35855 0.58991 0.0
C1404 C 0.51827 0.33717 0.60511 0.0
H1405 H 0.37381 0.45926 0.66263 0.0
H1406 H 0.41488 0.42841 0.65873 0.0
C1407 C 0.5423 0.32323 0.59601 0.0
C1408 C 0.48186 0.37362 0.5998 0.0
H1409 H 0.45993 0.43534 0.61792 0.0
C1410 C 0.45555 0.36095 0.60195 0.0
C1411 C 0.48372 0.40045 0.60652 0.0
C1412 C 0.51178 0.41454 0.60564 0.0
C1413 C 0.43068 0.37491 0.60938 0.0
C1414 C 0.43229 0.40214 0.61466 0.0
C1415 C 0.45883 0.41444 0.6138 0.0
C1416 C 0.4064 0.41887 0.61826 0.0
C1417 C 0.40276 0.36062 0.61099 0.0
C1418 C 0.38825 0.42357 0.59682 0.0
C1419 C 0.36516 0.44121 0.59888 0.0
C1420 C 0.3597 0.45446 0.62248 0.0
C1421 C 0.37746 0.44922 0.64426 0.0
C1422 C 0.40088 0.43169 0.64206 0.0
H1423 H 0.40609 0.33879 0.61346 0.0
H1424 H 0.38926 0.36761 0.62774 0.0
H1425 H 0.39099 0.36476 0.59237 0.0
H1426 H 0.39244 0.41416 0.57817 0.0
H1427 H 0.35182 0.44475 0.58178 0.0
H1428 H 0.23385 0.64855 0.6293 0.0
H1429 H 0.20674 0.69013 0.63226 0.0
H1430 H 0.12912 0.64945 0.61732 0.0
H1431 H 0.15612 0.60744 0.61451 0.0
H1432 H 0.16847 0.71767 0.59556 0.0
H1433 H 0.11573 0.68347 0.69038 0.0
H1434 H 0.14679 0.66669 0.67694 0.0
H1435 H 0.11261 0.66278 0.66242 0.0
C1436 C 0.21104 0.64839 0.62644 0.0
C1437 C 0.19707 0.62462 0.62196 0.0
C1438 C 0.19562 0.67222 0.62802 0.0
C1439 C 0.16596 0.67274 0.62528 0.0
C1440 C 0.152 0.64931 0.61977 0.0
H1441 H 0.05665 0.80531 0.6739 0.0
H1442 H 0.07175 0.76428 0.65302 0.0
C1443 C 0.16746 0.62538 0.61812 0.0
C1444 C 0.14981 0.69764 0.62992 0.0
H1445 H 0.10721 0.72752 0.6759 0.0
C1446 C 0.15474 0.71981 0.61291 0.0
C1447 C 0.1319 0.70025 0.65254 0.0
C1448 C 0.12646 0.67715 0.67179 0.0
C1449 C 0.14281 0.74481 0.61835 0.0
C1450 C 0.12605 0.74768 0.64168 0.0
C1451 C 0.12009 0.72524 0.65802 0.0
C1452 C 0.11644 0.77397 0.65087 0.0
C1453 C 0.14853 0.76792 0.59924 0.0
C1454 C 0.13656 0.79312 0.65637 0.0
C1455 C 0.12802 0.81659 0.66826 0.0
C1456 C 0.09924 0.82118 0.67516 0.0
C1457 C 0.07901 0.80232 0.66892 0.0
C1458 C 0.08757 0.77889 0.65694 0.0
H1459 H 0.15301 0.76112 0.57888 0.0
H1460 H 0.13021 0.78222 0.59861 0.0
H1461 H 0.16757 0.77844 0.60569 0.0
H1462 H 0.15904 0.78944 0.65247 0.0
H1463 H 0.14413 0.83068 0.67288 0.0
H1464 H 0.45849 0.8379 0.94444 0.0
H1465 H 0.5002 0.86174 0.92775 0.0
H1466 H 0.45251 0.89253 0.86071 0.0
H1467 H 0.41024 0.86932 0.87774 0.0
H1468 H 0.53249 0.86271 0.8823 0.0
H1469 H 0.47625 0.96001 0.89407 0.0
H1470 H 0.46156 0.92922 0.90681 0.0
H1471 H 0.45998 0.938 0.872 0.0
C1472 C 0.4569 0.84945 0.92596 0.0
C1473 C 0.43088 0.85205 0.91264 0.0
C1474 C 0.48081 0.86307 0.91642 0.0
C1475 C 0.47929 0.87943 0.89332 0.0
C1476 C 0.45394 0.88059 0.87896 0.0
H1477 H 0.61636 0.99111 0.84614 0.0
H1478 H 0.575 0.96255 0.84142 0.0
C1479 C 0.42987 0.86716 0.88864 0.0
C1480 C 0.50378 0.89639 0.88556 0.0
H1481 H 0.52455 0.96101 0.88147 0.0
C1482 C 0.53066 0.8842 0.88171 0.0
C1483 C 0.50139 0.92448 0.88482 0.0
C1484 C 0.47333 0.9388 0.88984 0.0
C1485 C 0.55531 0.89932 0.87826 0.0
C1486 C 0.55301 0.92726 0.87868 0.0
C1487 C 0.52607 0.93954 0.88102 0.0
C1488 C 0.57848 0.94378 0.88052 0.0
C1489 C 0.58384 0.88534 0.87516 0.0
C1490 C 0.59371 0.94279 0.90413 0.0
C1491 C 0.61689 0.95919 0.90702 0.0
C1492 C 0.62544 0.97684 0.88626 0.0
C1493 C 0.61028 0.97768 0.86245 0.0
C1494 C 0.58674 0.9614 0.8597 0.0
H1495 H 0.58154 0.86461 0.86897 0.0
H1496 H 0.59752 0.89619 0.86035 0.0
H1497 H 0.59486 0.88475 0.89443 0.0
H1498 H 0.58739 0.92954 0.92052 0.0
H1499 H 0.62814 0.95794 0.92557 0.0
H1500 H 0.85783 0.0411 0.35069 0.0
H1501 H 0.90101 0.06805 0.35009 0.0
H1502 H 0.92246 0.03507 0.42749 0.0
H1503 H 0.8795 0.00886 0.42844 0.0
H1504 H 0.92176 0.08925 0.42516 0.0
H1505 H 0.98626 0.0495 0.34145 0.0
H1506 H 0.95027 0.05995 0.3342 0.0
H1507 H 0.95657 0.03187 0.35643 0.0
C1508 C 0.87211 0.03931 0.3673 0.0
C1509 C 0.86522 0.02305 0.38968 0.0
C1510 C 0.89677 0.05465 0.36693 0.0
C1511 C 0.91499 0.05355 0.38876 0.0
C1512 C 0.90866 0.03638 0.4105 0.0
H1513 H 0.08256 0.09707 0.42485 0.0
H1514 H 0.03962 0.07758 0.40822 0.0
C1515 C 0.88407 0.02139 0.411 0.0
C1516 C 0.93961 0.07142 0.39037 0.0
H1517 H 0.00601 0.08417 0.36465 0.0
C1518 C 0.94008 0.08836 0.41176 0.0
C1519 C 0.96348 0.07013 0.37292 0.0
C1520 C 0.9644 0.05178 0.35003 0.0
C1521 C 0.96418 0.10316 0.41693 0.0
C1522 C 0.98827 0.10167 0.39969 0.0
C1523 C 0.98744 0.08545 0.3777 0.0
C1524 C 0.01541 0.11457 0.40589 0.0
C1525 C 0.96411 0.11902 0.4417 0.0
C1526 C 0.01651 0.14206 0.40918 0.0
C1527 C 0.04099 0.15327 0.41908 0.0
C1528 C 0.06496 0.13721 0.42544 0.0
C1529 C 0.06445 0.11001 0.42031 0.0
C1530 C 0.0399 0.09881 0.41071 0.0
H1531 H 0.94657 0.11326 0.45573 0.0
H1532 H 0.98464 0.11638 0.45215 0.0
H1533 H 0.96113 0.1404 0.43618 0.0
H1534 H 0.99809 0.15472 0.40497 0.0
H1535 H 0.04081 0.17434 0.4225 0.0
loop_
_geom_bond_atom_site_label_1
_geom_bond_atom_site_label_2
_geom_bond_distance
_geom_bond_site_symmetry_2
_ccdc_geom_bond_type
Zn0 O6 1.969 . S
Zn0 O7 1.965 . S
Zn0 O11 2.024 . S
Zn0 O16 1.969 . S
Zn1 O8 1.969 . S
Zn1 O14 1.969 . S
Zn1 O15 1.965 . S
Zn1 O17 2.024 . S
C2 O3 1.229 . S
C2 O11 1.058 . S
O3 C2 1.229 . S
C4 O5 1.229 . S
C4 O17 1.058 . S
O5 C4 1.229 . S
O6 Zn0 1.969 . S
O6 C9 1.267 . S
O7 Zn0 1.965 . S
O7 C18 1.260 . S
O8 Zn1 1.969 . S
O8 C18 1.258 . S
C9 O6 1.267 . S
C9 O10 1.228 . S
O10 C9 1.228 . S
O11 Zn0 2.024 . S
O11 C2 1.058 . S
C12 O13 1.228 . S
C12 O14 1.267 . S
O13 C12 1.228 . S
O14 Zn1 1.969 . S
O14 C12 1.267 . S
O15 Zn1 1.965 . S
O15 C19 1.260 . S
O16 Zn0 1.969 . S
O16 C19 1.258 . S
O17 Zn1 2.024 . S
O17 C4 1.058 . S
C18 O7 1.260 . S
C18 O8 1.258 . S
C19 O15 1.260 . S
C19 O16 1.258 . S
Zn20 O26 1.969 . S
Zn20 O27 1.965 1_655 S
Zn20 O31 2.024 . S
Zn20 O36 1.969 . S
Zn21 O28 1.969 . S
Zn21 O34 1.969 . S
Zn21 O35 1.965 . S
Zn21 O37 2.024 . S
C22 O23 1.229 . S
C22 O31 1.058 . S
O23 C22 1.229 . S
C24 O25 1.229 . S
C24 O37 1.058 . S
O25 C24 1.229 . S
O26 Zn20 1.969 . S
O26 C29 1.267 . S
O27 Zn20 1.965 1_455 S
O27 C38 1.260 . S
O28 Zn21 1.969 . S
O28 C38 1.258 . S
C29 O26 1.267 . S
C29 O30 1.228 . S
O30 C29 1.228 . S
O31 Zn20 2.024 . S
O31 C22 1.058 . S
C32 O33 1.228 . S
C32 O34 1.267 . S
O33 C32 1.228 . S
O34 Zn21 1.969 . S
O34 C32 1.267 . S
O35 Zn21 1.965 . S
O35 C39 1.260 . S
O36 Zn20 1.969 . S
O36 C39 1.258 1_655 S
O37 Zn21 2.024 . S
O37 C24 1.058 . S
C38 O27 1.260 . S
C38 O28 1.258 . S
C39 O35 1.260 . S
C39 O36 1.258 1_455 S
Zn40 O46 1.969 . S
Zn40 O47 1.965 . S
Zn40 O51 2.024 . S
Zn40 O56 1.969 . S
Zn41 O48 1.969 . S
Zn41 O54 1.969 . S
Zn41 O55 1.965 . S
Zn41 O57 2.024 . S
C42 O43 1.229 . S
C42 O51 1.058 . S
O43 C42 1.229 . S
C44 O45 1.229 . S
C44 O57 1.058 . S
O45 C44 1.229 . S
O46 Zn40 1.969 . S
O46 C49 1.267 . S
O47 Zn40 1.965 . S
O47 C58 1.260 . S
O48 Zn41 1.969 . S
O48 C58 1.258 . S
C49 O46 1.267 . S
C49 O50 1.228 . S
O50 C49 1.228 . S
O51 Zn40 2.024 . S
O51 C42 1.058 . S
C52 O53 1.228 . S
C52 O54 1.267 1_554 S
O53 C52 1.228 . S
O54 Zn41 1.969 . S
O54 C52 1.267 1_556 S
O55 Zn41 1.965 . S
O55 C59 1.260 . S
O56 Zn40 1.969 . S
O56 C59 1.258 . S
O57 Zn41 2.024 . S
O57 C44 1.058 . S
C58 O47 1.260 . S
C58 O48 1.258 . S
C59 O55 1.260 . S
C59 O56 1.258 . S
Zn60 O66 1.969 . S
Zn60 O67 1.965 . S
Zn60 O71 2.024 . S
Zn60 O76 1.969 . S
Zn61 O68 1.969 . S
Zn61 O74 1.969 . S
Zn61 O75 1.965 . S
Zn61 O77 2.024 . S
C62 O63 1.229 . S
C62 O71 1.058 . S
O63 C62 1.229 . S
C64 O65 1.229 . S
C64 O77 1.058 . S
O65 C64 1.229 . S
O66 Zn60 1.969 . S
O66 C69 1.267 . S
O67 Zn60 1.965 . S
O67 C78 1.260 . S
O68 Zn61 1.969 . S
O68 C78 1.258 . S
C69 O66 1.267 . S
C69 O70 1.228 . S
O70 C69 1.228 . S
O71 Zn60 2.024 . S
O71 C62 1.058 . S
C72 O73 1.228 . S
C72 O74 1.267 . S
O73 C72 1.228 . S
O74 Zn61 1.969 . S
O74 C72 1.267 . S
O75 Zn61 1.965 . S
O75 C79 1.260 . S
O76 Zn60 1.969 . S
O76 C79 1.258 . S
O77 Zn61 2.024 . S
O77 C64 1.058 . S
C78 O67 1.260 . S
C78 O68 1.258 . S
C79 O75 1.260 . S
C79 O76 1.258 . S
Zn80 O86 1.969 . S
Zn80 O87 1.965 . S
Zn80 O91 2.024 . S
Zn80 O96 1.969 . S
Zn81 O88 1.969 . S
Zn81 O94 1.969 . S
Zn81 O95 1.965 . S
Zn81 O97 2.024 . S
C82 O83 1.229 . S
C82 O91 1.058 . S
O83 C82 1.229 . S
C84 O85 1.229 . S
C84 O97 1.058 . S
O85 C84 1.229 . S
O86 Zn80 1.969 . S
O86 C89 1.267 . S
O87 Zn80 1.965 . S
O87 C98 1.260 . S
O88 Zn81 1.969 . S
O88 C98 1.258 . S
C89 O86 1.267 . S
C89 O90 1.228 . S
O90 C89 1.228 . S
O91 Zn80 2.024 . S
O91 C82 1.058 . S
C92 O93 1.228 . S
C92 O94 1.267 . S
O93 C92 1.228 . S
O94 Zn81 1.969 . S
O94 C92 1.267 . S
O95 Zn81 1.965 . S
O95 C99 1.260 . S
O96 Zn80 1.969 . S
O96 C99 1.258 . S
O97 Zn81 2.024 . S
O97 C84 1.058 . S
C98 O87 1.260 . S
C98 O88 1.258 . S
C99 O95 1.260 . S
C99 O96 1.258 . S
Zn100 O106 1.969 . S
Zn100 O107 1.965 . S
Zn100 O111 2.024 . S
Zn100 O116 1.969 . S
Zn101 O108 1.969 . S
Zn101 O114 1.969 1_655 S
Zn101 O115 1.965 . S
Zn101 O117 2.024 . S
C102 O103 1.229 . S
C102 O111 1.058 . S
O103 C102 1.229 . S
C104 O105 1.229 . S
C104 O117 1.058 . S
O105 C104 1.229 . S
O106 Zn100 1.969 . S
O106 C109 1.267 . S
O107 Zn100 1.965 . S
O107 C118 1.260 . S
O108 Zn101 1.969 . S
O108 C118 1.258 . S
C109 O106 1.267 . S
C109 O110 1.228 . S
O110 C109 1.228 . S
O111 Zn100 2.024 . S
O111 C102 1.058 . S
C112 O113 1.228 . S
C112 O114 1.267 . S
O113 C112 1.228 . S
O114 Zn101 1.969 1_455 S
O114 C112 1.267 . S
O115 Zn101 1.965 . S
O115 C119 1.260 . S
O116 Zn100 1.969 . S
O116 C119 1.258 . S
O117 Zn101 2.024 . S
O117 C104 1.058 . S
C118 O107 1.260 . S
C118 O108 1.258 . S
C119 O115 1.260 . S
C119 O116 1.258 . S
Zn120 O126 1.969 . S
Zn120 O127 1.965 1_556 S
Zn120 O131 2.024 . S
Zn120 O136 1.969 . S
Zn121 O128 1.969 . S
Zn121 O134 1.969 . S
Zn121 O135 1.965 . S
Zn121 O137 2.024 . S
C122 O123 1.229 . S
C122 O131 1.058 . S
O123 C122 1.229 . S
C124 O125 1.229 . S
C124 O137 1.058 . S
O125 C124 1.229 . S
O126 Zn120 1.969 . S
O126 C129 1.267 . S
O127 Zn120 1.965 1_554 S
O127 C138 1.260 . S
O128 Zn121 1.969 . S
O128 C138 1.258 . S
C129 O126 1.267 . S
C129 O130 1.228 . S
O130 C129 1.228 . S
O131 Zn120 2.024 . S
O131 C122 1.058 . S
C132 O133 1.228 . S
C132 O134 1.267 . S
O133 C132 1.228 . S
O134 Zn121 1.969 . S
O134 C132 1.267 . S
O135 Zn121 1.965 . S
O135 C139 1.260 . S
O136 Zn120 1.969 . S
O136 C139 1.258 1_556 S
O137 Zn121 2.024 . S
O137 C124 1.058 . S
C138 O127 1.260 . S
C138 O128 1.258 . S
C139 O135 1.260 . S
C139 O136 1.258 1_554 S
Zn140 O146 1.969 . S
Zn140 O147 1.965 . S
Zn140 O151 2.024 . S
Zn140 O156 1.969 . S
Zn141 O148 1.969 . S
Zn141 O154 1.969 . S
Zn141 O155 1.965 . S
Zn141 O157 2.024 . S
C142 O143 1.229 . S
C142 O151 1.058 . S
O143 C142 1.229 . S
C144 O145 1.229 . S
C144 O157 1.058 . S
O145 C144 1.229 . S
O146 Zn140 1.969 . S
O146 C149 1.267 . S
O147 Zn140 1.965 . S
O147 C158 1.260 . S
O148 Zn141 1.969 . S
O148 C158 1.258 . S
C149 O146 1.267 . S
C149 O150 1.228 . S
O150 C149 1.228 . S
O151 Zn140 2.024 . S
O151 C142 1.058 . S
C152 O153 1.228 . S
C152 O154 1.267 . S
O153 C152 1.228 . S
O154 Zn141 1.969 . S
O154 C152 1.267 . S
O155 Zn141 1.965 . S
O155 C159 1.260 . S
O156 Zn140 1.969 . S
O156 C159 1.258 . S
O157 Zn141 2.024 . S
O157 C144 1.058 . S
C158 O147 1.260 . S
C158 O148 1.258 . S
C159 O155 1.260 . S
C159 O156 1.258 . S
Zn160 O166 1.969 . S
Zn160 O167 1.965 . S
Zn160 O171 2.024 . S
Zn160 O176 1.969 . S
Zn161 O168 1.969 . S
Zn161 O174 1.969 . S
Zn161 O175 1.965 . S
Zn161 O177 2.024 . S
C162 O163 1.229 . S
C162 O171 1.058 . S
O163 C162 1.229 . S
C164 O165 1.229 . S
C164 O177 1.058 . S
O165 C164 1.229 . S
O166 Zn160 1.969 . S
O166 C169 1.267 . S
O167 Zn160 1.965 . S
O167 C178 1.260 . S
O168 Zn161 1.969 . S
O168 C178 1.258 . S
C169 O166 1.267 . S
C169 O170 1.228 . S
O170 C169 1.228 . S
O171 Zn160 2.024 . S
O171 C162 1.058 . S
C172 O173 1.228 . S
C172 O174 1.267 . S
O173 C172 1.228 . S
O174 Zn161 1.969 . S
O174 C172 1.267 . S
O175 Zn161 1.965 . S
O175 C179 1.260 . S
O176 Zn160 1.969 . S
O176 C179 1.258 . S
O177 Zn161 2.024 . S
O177 C164 1.058 . S
C178 O167 1.260 . S
C178 O168 1.258 . S
C179 O175 1.260 . S
C179 O176 1.258 . S
Zn180 O186 1.969 1_545 S
Zn180 O187 1.965 . S
Zn180 O191 2.024 . S
Zn180 O196 1.969 . S
Zn181 O188 1.969 . S
Zn181 O194 1.969 . S
Zn181 O195 1.965 . S
Zn181 O197 2.024 . S
C182 O183 1.229 . S
C182 O191 1.058 1_565 S
O183 C182 1.229 . S
C184 O185 1.229 . S
C184 O197 1.058 . S
O185 C184 1.229 . S
O186 Zn180 1.969 1_565 S
O186 C189 1.267 . S
O187 Zn180 1.965 . S
O187 C198 1.260 . S
O188 Zn181 1.969 . S
O188 C198 1.258 . S
C189 O186 1.267 . S
C189 O190 1.228 . S
O190 C189 1.228 . S
O191 Zn180 2.024 . S
O191 C182 1.058 1_545 S
C192 O193 1.228 . S
C192 O194 1.267 . S
O193 C192 1.228 . S
O194 Zn181 1.969 . S
O194 C192 1.267 . S
O195 Zn181 1.965 . S
O195 C199 1.260 . S
O196 Zn180 1.969 . S
O196 C199 1.258 . S
O197 Zn181 2.024 . S
O197 C184 1.058 . S
C198 O187 1.260 . S
C198 O188 1.258 . S
C199 O195 1.260 . S
C199 O196 1.258 . S
Zn200 O206 1.969 1_565 S
Zn200 O207 1.965 . S
Zn200 O211 2.024 . S
Zn200 O216 1.969 . S
Zn201 O208 1.969 . S
Zn201 O214 1.969 . S
Zn201 O215 1.965 . S
Zn201 O217 2.024 . S
C202 O203 1.229 . S
C202 O211 1.058 1_545 S
O203 C202 1.229 . S
C204 O205 1.229 . S
C204 O217 1.058 . S
O205 C204 1.229 . S
O206 Zn200 1.969 1_545 S
O206 C209 1.267 . S
O207 Zn200 1.965 . S
O207 C218 1.260 . S
O208 Zn201 1.969 . S
O208 C218 1.258 . S
C209 O206 1.267 . S
C209 O210 1.228 . S
O210 C209 1.228 . S
O211 Zn200 2.024 . S
O211 C202 1.058 1_565 S
C212 O213 1.228 . S
C212 O214 1.267 . S
O213 C212 1.228 . S
O214 Zn201 1.969 . S
O214 C212 1.267 . S
O215 Zn201 1.965 . S
O215 C219 1.260 . S
O216 Zn200 1.969 . S
O216 C219 1.258 . S
O217 Zn201 2.024 . S
O217 C204 1.058 . S
C218 O207 1.260 . S
C218 O208 1.258 . S
C219 O215 1.260 . S
C219 O216 1.258 . S
Zn220 O226 1.969 . S
Zn220 O227 1.965 . S
Zn220 O231 2.024 . S
Zn220 O236 1.969 . S
Zn221 O228 1.969 . S
Zn221 O234 1.969 . S
Zn221 O235 1.965 . S
Zn221 O237 2.024 . S
C222 O223 1.229 . S
C222 O231 1.058 . S
O223 C222 1.229 . S
C224 O225 1.229 . S
C224 O237 1.058 . S
O225 C224 1.229 . S
O226 Zn220 1.969 . S
O226 C229 1.267 . S
O227 Zn220 1.965 . S
O227 C238 1.260 . S
O228 Zn221 1.969 . S
O228 C238 1.258 . S
C229 O226 1.267 . S
C229 O230 1.228 . S
O230 C229 1.228 . S
O231 Zn220 2.024 . S
O231 C222 1.058 . S
C232 O233 1.228 . S
C232 O234 1.267 . S
O233 C232 1.228 . S
O234 Zn221 1.969 . S
O234 C232 1.267 . S
O235 Zn221 1.965 . S
O235 C239 1.260 . S
O236 Zn220 1.969 . S
O236 C239 1.258 . S
O237 Zn221 2.024 . S
O237 C224 1.058 . S
C238 O227 1.260 . S
C238 O228 1.258 . S
C239 O235 1.260 . S
C239 O236 1.258 . S
H240 C248 0.929 . S
H241 C250 0.930 . S
H242 C252 0.930 . S
H243 C255 0.929 . S
H244 C258 0.930 . S
H245 C260 0.960 . S
H246 C260 0.960 . S
H247 C260 0.960 . S
C248 H240 0.929 . S
C248 C249 1.377 . S
C248 C250 1.384 . S
C249 C248 1.377 . S
C249 C255 1.390 . S
C250 H241 0.930 . S
C250 C248 1.384 . S
C250 C251 1.372 . S
C251 C250 1.372 . S
C251 C252 1.400 . S
C251 C256 1.490 . S
C252 H242 0.930 . S
C252 C251 1.400 . S
C252 C255 1.386 . S
H253 C269 0.930 . S
H254 C270 0.931 . S
C255 H243 0.929 . S
C255 C249 1.390 . S
C255 C252 1.386 . S
C256 C251 1.490 . S
C256 C258 1.395 . S
C256 C259 1.403 . S
H257 C263 0.930 . S
C258 H244 0.930 . S
C258 C256 1.395 . S
C258 C261 1.403 . S
C259 C256 1.403 . S
C259 C260 1.524 . S
C259 C263 1.400 . S
C260 H245 0.960 . S
C260 H246 0.960 . S
C260 H247 0.960 . S
C260 C259 1.524 . S
C261 C258 1.403 . S
C261 C262 1.392 . S
C261 C265 1.495 . S
C262 C261 1.392 . S
C262 C263 1.385 . S
C262 C264 1.478 . S
C263 H257 0.930 . S
C263 C259 1.400 . S
C263 C262 1.385 . S
C264 C262 1.478 . S
C264 C266 1.381 . S
C264 C270 1.383 . S
C265 C261 1.495 . S
C265 H271 0.959 . S
C265 H272 0.961 . S
C265 H273 0.960 . S
C266 C264 1.381 . S
C266 C267 1.394 . S
C266 H274 0.930 . S
C267 C266 1.394 . S
C267 C268 1.383 . S
C267 H275 0.929 . S
C268 C267 1.383 . S
C268 C269 1.377 . S
C269 H253 0.930 . S
C269 C268 1.377 . S
C269 C270 1.379 . S
C270 H254 0.931 . S
C270 C264 1.383 . S
C270 C269 1.379 . S
H271 C265 0.959 . S
H272 C265 0.961 . S
H273 C265 0.960 . S
H274 C266 0.930 . S
H275 C267 0.929 . S
H276 C284 0.930 1_565 S
H277 C286 0.930 . S
H278 C288 0.930 . S
H279 C291 0.929 . S
H280 C294 0.930 1_545 S
H281 C296 0.960 . S
H282 C296 0.960 . S
H283 C296 0.960 . S
C284 H276 0.930 1_545 S
C284 C285 1.377 . S
C284 C286 1.384 1_545 S
C285 C284 1.377 . S
C285 C291 1.390 . S
C286 H277 0.930 . S
C286 C284 1.384 1_565 S
C286 C287 1.372 1_565 S
C287 C286 1.372 1_545 S
C287 C288 1.400 . S
C287 C292 1.490 1_545 S
C288 H278 0.930 . S
C288 C287 1.400 . S
C288 C291 1.386 . S
H289 C305 0.930 . S
H290 C306 0.931 . S
C291 H279 0.929 . S
C291 C285 1.390 . S
C291 C288 1.386 . S
C292 C287 1.490 1_565 S
C292 C294 1.395 . S
C292 C295 1.403 . S
H293 C299 0.930 . S
C294 H280 0.930 1_565 S
C294 C292 1.395 . S
C294 C297 1.403 . S
C295 C292 1.403 . S
C295 C296 1.524 . S
C295 C299 1.400 . S
C296 H281 0.960 . S
C296 H282 0.960 . S
C296 H283 0.960 . S
C296 C295 1.524 . S
C297 C294 1.403 . S
C297 C298 1.392 . S
C297 C301 1.495 . S
C298 C297 1.392 . S
C298 C299 1.385 . S
C298 C300 1.478 . S
C299 H293 0.930 . S
C299 C295 1.400 . S
C299 C298 1.385 . S
C300 C298 1.478 . S
C300 C302 1.381 . S
C300 C306 1.383 . S
C301 C297 1.495 . S
C301 H307 0.959 . S
C301 H308 0.975 . S
C301 H309 0.960 . S
C302 C300 1.381 . S
C302 C303 1.394 . S
C302 H310 0.930 . S
C303 C302 1.394 . S
C303 C304 1.383 . S
C303 H311 0.929 . S
C304 C303 1.383 . S
C304 C305 1.377 . S
C305 H289 0.930 . S
C305 C304 1.377 . S
C305 C306 1.379 . S
C306 H290 0.931 . S
C306 C300 1.383 . S
C306 C305 1.379 . S
H307 C301 0.959 . S
H308 C301 0.975 . S
H309 C301 0.960 . S
H310 C302 0.930 . S
H311 C303 0.929 . S
H312 C320 0.929 . S
H313 C322 0.930 . S
H314 C324 0.931 . S
H315 C327 0.929 . S
H316 C330 0.953 . S
H317 C332 0.960 . S
H318 C332 0.960 . S
H319 C332 0.960 . S
C320 H312 0.929 . S
C320 C321 1.386 . S
C320 C322 1.376 1_556 S
C321 C320 1.386 . S
C321 C327 1.390 . S
C322 H313 0.930 . S
C322 C320 1.376 1_554 S
C322 C323 1.372 . S
C323 C322 1.372 . S
C323 C324 1.411 . S
C323 C328 1.490 . S
C324 H314 0.931 . S
C324 C323 1.411 . S
C324 C327 1.374 1_554 S
H325 C341 0.930 . S
H326 C342 0.931 . S
C327 H315 0.929 . S
C327 C321 1.390 . S
C327 C324 1.374 1_556 S
C328 C323 1.490 . S
C328 C330 1.395 . S
C328 C331 1.403 . S
H329 C335 0.930 . S
C330 H316 0.953 . S
C330 C328 1.395 . S
C330 C333 1.403 . S
C331 C328 1.403 . S
C331 C332 1.524 . S
C331 C335 1.400 . S
C332 H317 0.960 . S
C332 H318 0.960 . S
C332 H319 0.960 . S
C332 C331 1.524 . S
C333 C330 1.403 . S
C333 C334 1.392 . S
C333 C337 1.495 . S
C334 C333 1.392 . S
C334 C335 1.385 . S
C334 C336 1.478 . S
C335 H329 0.930 . S
C335 C331 1.400 . S
C335 C334 1.385 . S
C336 C334 1.478 . S
C336 C338 1.381 . S
C336 C342 1.383 . S
C337 C333 1.495 . S
C337 H343 0.932 1_554 S
C337 H344 0.961 . S
C337 H345 0.960 . S
C338 C336 1.381 . S
C338 C339 1.394 . S
C338 H346 0.930 . S
C339 C338 1.394 . S
C339 C340 1.383 . S
C339 H347 0.929 . S
C340 C339 1.383 . S
C340 C341 1.377 . S
C341 H325 0.930 . S
C341 C340 1.377 . S
C341 C342 1.379 . S
C342 H326 0.931 . S
C342 C336 1.383 . S
C342 C341 1.379 . S
H343 C337 0.932 1_556 S
H344 C337 0.961 . S
H345 C337 0.960 . S
H346 C338 0.930 . S
H347 C339 0.929 . S
H348 C356 0.929 . S
H349 C358 0.930 . S
H350 C360 0.930 . S
H351 C363 0.929 . S
H352 C366 0.930 . S
H353 C368 0.960 . S
H354 C368 0.960 . S
H355 C368 0.960 . S
C356 H348 0.929 . S
C356 C357 1.377 . S
C356 C358 1.384 . S
C357 C356 1.377 . S
C357 C363 1.390 . S
C358 H349 0.930 . S
C358 C356 1.384 . S
C358 C359 1.372 . S
C359 C358 1.372 . S
C359 C360 1.400 . S
C359 C364 1.490 . S
C360 H350 0.930 . S
C360 C359 1.400 . S
C360 C363 1.386 . S
H361 C377 0.930 . S
H362 C378 0.931 . S
C363 H351 0.929 . S
C363 C357 1.390 . S
C363 C360 1.386 . S
C364 C359 1.490 . S
C364 C366 1.395 . S
C364 C367 1.403 . S
H365 C371 0.930 . S
C366 H352 0.930 . S
C366 C364 1.395 . S
C366 C369 1.403 . S
C367 C364 1.403 . S
C367 C368 1.524 . S
C367 C371 1.400 . S
C368 H353 0.960 . S
C368 H354 0.960 . S
C368 H355 0.960 . S
C368 C367 1.524 . S
C369 C366 1.403 . S
C369 C370 1.392 . S
C369 C373 1.495 . S
C370 C369 1.392 . S
C370 C371 1.385 . S
C370 C372 1.478 . S
C371 H365 0.930 . S
C371 C367 1.400 . S
C371 C370 1.385 . S
C372 C370 1.478 . S
C372 C374 1.381 1_545 S
C372 C378 1.383 . S
C373 C369 1.495 . S
C373 H379 0.959 . S
C373 H380 0.961 . S
C373 H381 0.960 1_545 S
C374 C372 1.381 1_565 S
C374 C375 1.394 . S
C374 H382 0.930 . S
C375 C374 1.394 . S
C375 C376 1.383 . S
C375 H383 0.929 . S
C376 C375 1.383 . S
C376 C377 1.377 1_565 S
C377 H361 0.930 . S
C377 C376 1.377 1_545 S
C377 C378 1.379 . S
C378 H362 0.931 . S
C378 C372 1.383 . S
C378 C377 1.379 . S
H379 C373 0.959 . S
H380 C373 0.961 . S
H381 C373 0.960 1_565 S
H382 C374 0.930 . S
H383 C375 0.929 . S
H384 C392 0.929 . S
H385 C394 0.930 . S
H386 C396 0.930 . S
H387 C399 0.929 . S
H388 C402 0.930 . S
H389 C404 0.960 . S
H390 C404 0.960 . S
H391 C404 0.960 . S
C392 H384 0.929 . S
C392 C393 1.377 . S
C392 C394 1.384 . S
C393 C392 1.377 . S
C393 C399 1.390 . S
C394 H385 0.930 . S
C394 C392 1.384 . S
C394 C395 1.372 . S
C395 C394 1.372 . S
C395 C396 1.400 . S
C395 C400 1.490 . S
C396 H386 0.930 . S
C396 C395 1.400 . S
C396 C399 1.386 . S
H397 C413 0.930 . S
H398 C414 0.931 . S
C399 H387 0.929 . S
C399 C393 1.390 . S
C399 C396 1.386 . S
C400 C395 1.490 . S
C400 C402 1.395 . S
C400 C403 1.403 . S
H401 C407 0.930 . S
C402 H388 0.930 . S
C402 C400 1.395 . S
C402 C405 1.403 . S
C403 C400 1.403 . S
C403 C404 1.524 . S
C403 C407 1.400 . S
C404 H389 0.960 . S
C404 H390 0.960 . S
C404 H391 0.960 . S
C404 C403 1.524 . S
C405 C402 1.403 . S
C405 C406 1.392 . S
C405 C409 1.495 . S
C406 C405 1.392 . S
C406 C407 1.385 . S
C406 C408 1.478 . S
C407 H401 0.930 . S
C407 C403 1.400 . S
C407 C406 1.385 . S
C408 C406 1.478 . S
C408 C410 1.381 . S
C408 C414 1.383 . S
C409 C405 1.495 . S
C409 H415 0.959 . S
C409 H416 0.961 . S
C409 H417 0.960 . S
C410 C408 1.381 . S
C410 C411 1.394 . S
C410 H418 0.930 . S
C411 C410 1.394 . S
C411 C412 1.383 . S
C411 H419 0.929 . S
C412 C411 1.383 . S
C412 C413 1.377 . S
C413 H397 0.930 . S
C413 C412 1.377 . S
C413 C414 1.379 . S
C414 H398 0.931 . S
C414 C408 1.383 . S
C414 C413 1.379 . S
H415 C409 0.959 . S
H416 C409 0.961 . S
H417 C409 0.960 . S
H418 C410 0.930 . S
H419 C411 0.929 . S
H420 C428 0.929 . S
H421 C430 0.930 . S
H422 C432 0.930 . S
H423 C435 0.929 . S
H424 C438 0.930 . S
H425 C440 0.960 . S
H426 C440 0.960 . S
H427 C440 0.960 . S
C428 H420 0.929 . S
C428 C429 1.377 . S
C428 C430 1.384 . S
C429 C428 1.377 . S
C429 C435 1.390 . S
C430 H421 0.930 . S
C430 C428 1.384 . S
C430 C431 1.372 . S
C431 C430 1.372 . S
C431 C432 1.400 . S
C431 C436 1.490 . S
C432 H422 0.930 . S
C432 C431 1.400 . S
C432 C435 1.386 . S
H433 C449 0.930 . S
H434 C450 0.931 . S
C435 H423 0.929 . S
C435 C429 1.390 . S
C435 C432 1.386 . S
C436 C431 1.490 . S
C436 C438 1.395 . S
C436 C439 1.403 . S
H437 C443 0.930 . S
C438 H424 0.930 . S
C438 C436 1.395 . S
C438 C441 1.403 . S
C439 C436 1.403 . S
C439 C440 1.524 . S
C439 C443 1.400 . S
C440 H425 0.960 . S
C440 H426 0.960 . S
C440 H427 0.960 . S
C440 C439 1.524 . S
C441 C438 1.403 . S
C441 C442 1.392 . S
C441 C445 1.495 . S
C442 C441 1.392 . S
C442 C443 1.385 . S
C442 C444 1.478 . S
C443 H437 0.930 . S
C443 C439 1.400 . S
C443 C442 1.385 . S
C444 C442 1.478 . S
C444 C446 1.381 . S
C444 C450 1.383 . S
C445 C441 1.495 . S
C445 H451 0.959 . S
C445 H452 0.961 . S
C445 H453 0.960 . S
C446 C444 1.381 . S
C446 C447 1.394 . S
C446 H454 0.930 . S
C447 C446 1.394 . S
C447 C448 1.383 . S
C447 H455 0.929 . S
C448 C447 1.383 . S
C448 C449 1.377 . S
C449 H433 0.930 . S
C449 C448 1.377 . S
C449 C450 1.379 . S
C450 H434 0.931 . S
C450 C444 1.383 . S
C450 C449 1.379 . S
H451 C445 0.959 . S
H452 C445 0.961 . S
H453 C445 0.960 . S
H454 C446 0.930 . S
H455 C447 0.929 . S
H456 C464 0.929 . S
H457 C466 0.930 . S
H458 C468 0.930 . S
H459 C471 0.929 . S
H460 C474 0.930 1_554 S
H461 C476 0.960 . S
H462 C476 0.960 . S
H463 C476 0.960 . S
C464 H456 0.929 . S
C464 C465 1.377 . S
C464 C466 1.384 . S
C465 C464 1.377 . S
C465 C471 1.390 . S
C466 H457 0.930 . S
C466 C464 1.384 . S
C466 C467 1.372 . S
C467 C466 1.372 . S
C467 C468 1.400 . S
C467 C472 1.490 . S
C468 H458 0.930 . S
C468 C467 1.400 . S
C468 C471 1.386 . S
H469 C485 0.930 . S
H470 C486 0.931 . S
C471 H459 0.929 . S
C471 C465 1.390 . S
C471 C468 1.386 . S
C472 C467 1.490 . S
C472 C474 1.395 . S
C472 C475 1.403 . S
H473 C479 0.930 . S
C474 H460 0.930 1_556 S
C474 C472 1.395 . S
C474 C477 1.403 1_556 S
C475 C472 1.403 . S
C475 C476 1.524 . S
C475 C479 1.400 . S
C476 H461 0.960 . S
C476 H462 0.960 . S
C476 H463 0.960 . S
C476 C475 1.524 . S
C477 C474 1.403 1_554 S
C477 C478 1.392 1_554 S
C477 C481 1.495 . S
C478 C477 1.392 1_556 S
C478 C479 1.385 . S
C478 C480 1.478 . S
C479 H473 0.930 . S
C479 C475 1.400 . S
C479 C478 1.385 . S
C480 C478 1.478 . S
C480 C482 1.381 1_556 S
C480 C486 1.383 . S
C481 C477 1.495 . S
C481 H487 0.959 . S
C481 H488 0.961 . S
C481 H489 0.960 . S
C482 C480 1.381 1_554 S
C482 C483 1.394 . S
C482 H490 0.930 . S
C483 C482 1.394 . S
C483 C484 1.383 . S
C483 H491 0.929 . S
C484 C483 1.383 . S
C484 C485 1.377 1_554 S
C485 H469 0.930 . S
C485 C484 1.377 1_556 S
C485 C486 1.379 . S
C486 H470 0.931 . S
C486 C480 1.383 . S
C486 C485 1.379 . S
H487 C481 0.959 . S
H488 C481 0.961 . S
H489 C481 0.960 . S
H490 C482 0.930 . S
H491 C483 0.929 . S
H492 C500 0.929 . S
H493 C502 0.930 . S
H494 C504 0.930 . S
H495 C507 0.929 . S
H496 C510 0.930 . S
H497 C512 0.960 . S
H498 C512 0.960 . S
H499 C512 0.960 . S
C500 H492 0.929 . S
C500 C501 1.377 . S
C500 C502 1.384 . S
C501 C500 1.377 . S
C501 C507 1.390 . S
C502 H493 0.930 . S
C502 C500 1.384 . S
C502 C503 1.372 . S
C503 C502 1.372 . S
C503 C504 1.400 . S
C503 C508 1.490 . S
C504 H494 0.930 . S
C504 C503 1.400 . S
C504 C507 1.386 . S
H505 C521 0.930 . S
H506 C522 0.931 . S
C507 H495 0.929 . S
C507 C501 1.390 . S
C507 C504 1.386 . S
C508 C503 1.490 . S
C508 C510 1.395 . S
C508 C511 1.403 . S
H509 C515 0.930 . S
C510 H496 0.930 . S
C510 C508 1.395 . S
C510 C513 1.403 . S
C511 C508 1.403 . S
C511 C512 1.524 . S
C511 C515 1.400 . S
C512 H497 0.960 . S
C512 H498 0.960 . S
C512 H499 0.960 . S
C512 C511 1.524 . S
C513 C510 1.403 . S
C513 C514 1.392 . S
C513 C517 1.495 . S
C514 C513 1.392 . S
C514 C515 1.385 . S
C514 C516 1.478 . S
C515 H509 0.930 . S
C515 C511 1.400 . S
C515 C514 1.385 . S
C516 C514 1.478 . S
C516 C518 1.381 . S
C516 C522 1.383 . S
C517 C513 1.495 . S
C517 H523 0.959 . S
C517 H524 0.961 . S
C517 H525 0.960 . S
C518 C516 1.381 . S
C518 C519 1.394 . S
C518 H526 0.930 . S
C519 C518 1.394 . S
C519 C520 1.383 . S
C519 H527 0.929 . S
C520 C519 1.383 . S
C520 C521 1.377 . S
C521 H505 0.930 . S
C521 C520 1.377 . S
C521 C522 1.379 . S
C522 H506 0.931 . S
C522 C516 1.383 . S
C522 C521 1.379 . S
H523 C517 0.959 . S
H524 C517 0.961 . S
H525 C517 0.960 . S
H526 C518 0.930 . S
H527 C519 0.929 . S
H528 C536 0.929 . S
H529 C538 0.930 . S
H530 C540 0.930 . S
H531 C543 0.929 . S
H532 C546 0.930 . S
H533 C548 0.960 . S
H534 C548 0.960 . S
H535 C548 0.960 . S
C536 H528 0.929 . S
C536 C537 1.377 . S
C536 C538 1.384 . S
C537 C536 1.377 . S
C537 C543 1.390 . S
C538 H529 0.930 . S
C538 C536 1.384 . S
C538 C539 1.372 . S
C539 C538 1.372 . S
C539 C540 1.400 . S
C539 C544 1.490 . S
C540 H530 0.930 . S
C540 C539 1.400 . S
C540 C543 1.386 . S
H541 C557 0.930 . S
H542 C558 0.931 . S
C543 H531 0.929 . S
C543 C537 1.390 . S
C543 C540 1.386 . S
C544 C539 1.490 . S
C544 C546 1.395 . S
C544 C547 1.403 . S
H545 C551 0.930 . S
C546 H532 0.930 . S
C546 C544 1.395 . S
C546 C549 1.403 . S
C547 C544 1.403 . S
C547 C548 1.524 . S
C547 C551 1.400 . S
C548 H533 0.960 . S
C548 H534 0.960 . S
C548 H535 0.960 . S
C548 C547 1.524 . S
C549 C546 1.403 . S
C549 C550 1.392 . S
C549 C553 1.495 . S
C550 C549 1.392 . S
C550 C551 1.385 . S
C550 C552 1.478 . S
C551 H545 0.930 . S
C551 C547 1.400 . S
C551 C550 1.385 . S
C552 C550 1.478 . S
C552 C554 1.381 . S
C552 C558 1.383 . S
C553 C549 1.495 . S
C553 H559 0.959 . S
C553 H560 0.961 . S
C553 H561 0.960 . S
C554 C552 1.381 . S
C554 C555 1.394 . S
C554 H562 0.930 . S
C555 C554 1.394 . S
C555 C556 1.383 . S
C555 H563 0.929 . S
C556 C555 1.383 . S
C556 C557 1.377 . S
C557 H541 0.930 . S
C557 C556 1.377 . S
C557 C558 1.379 . S
C558 H542 0.931 . S
C558 C552 1.383 . S
C558 C557 1.379 . S
H559 C553 0.959 . S
H560 C553 0.961 . S
H561 C553 0.960 . S
H562 C554 0.930 . S
H563 C555 0.929 . S
H564 C572 0.929 . S
H565 C574 0.930 . S
H566 C576 0.930 . S
H567 C579 0.929 . S
H568 C582 0.930 . S
H569 C584 0.960 . S
H570 C584 0.960 . S
H571 C584 0.960 . S
C572 H564 0.929 . S
C572 C573 1.377 . S
C572 C574 1.384 . S
C573 C572 1.377 . S
C573 C579 1.390 . S
C574 H565 0.930 . S
C574 C572 1.384 . S
C574 C575 1.372 . S
C575 C574 1.372 . S
C575 C576 1.400 . S
C575 C580 1.490 . S
C576 H566 0.930 . S
C576 C575 1.400 . S
C576 C579 1.386 . S
H577 C593 0.930 . S
H578 C594 0.931 . S
C579 H567 0.929 . S
C579 C573 1.390 . S
C579 C576 1.386 . S
C580 C575 1.490 . S
C580 C582 1.395 . S
C580 C583 1.403 . S
H581 C587 0.930 . S
C582 H568 0.930 . S
C582 C580 1.395 . S
C582 C585 1.403 . S
C583 C580 1.403 . S
C583 C584 1.524 . S
C583 C587 1.400 . S
C584 H569 0.960 . S
C584 H570 0.960 . S
C584 H571 0.960 . S
C584 C583 1.524 . S
C585 C582 1.403 . S
C585 C586 1.392 . S
C585 C589 1.495 1_455 S
C586 C585 1.392 . S
C586 C587 1.385 . S
C586 C588 1.478 . S
C587 H581 0.930 . S
C587 C583 1.400 . S
C587 C586 1.385 . S
C588 C586 1.478 . S
C588 C590 1.381 1_455 S
C588 C594 1.383 . S
C589 C585 1.495 1_655 S
C589 H595 0.959 . S
C589 H596 0.961 1_655 S
C589 H597 0.960 . S
C590 C588 1.381 1_655 S
C590 C591 1.394 . S
C590 H598 0.930 . S
C591 C590 1.394 . S
C591 C592 1.409 . S
C591 H599 0.929 . S
C592 C591 1.409 . S
C592 C593 1.342 1_655 S
C593 H577 0.930 . S
C593 C592 1.342 1_455 S
C593 C594 1.379 . S
C594 H578 0.931 . S
C594 C588 1.383 . S
C594 C593 1.379 . S
H595 C589 0.959 . S
H596 C589 0.961 1_455 S
H597 C589 0.960 . S
H598 C590 0.930 . S
H599 C591 0.929 . S
H600 C608 0.929 . S
H601 C610 0.930 . S
H602 C612 0.930 . S
H603 C615 0.929 . S
H604 C618 0.930 . S
H605 C620 0.960 . S
H606 C620 0.960 . S
H607 C620 0.960 1_655 S
C608 H600 0.929 . S
C608 C609 1.377 . S
C608 C610 1.384 . S
C609 C608 1.377 . S
C609 C615 1.390 1_455 S
C610 H601 0.930 . S
C610 C608 1.384 . S
C610 C611 1.372 1_455 S
C611 C610 1.372 1_655 S
C611 C612 1.400 . S
C611 C616 1.490 . S
C612 H602 0.930 . S
C612 C611 1.400 . S
C612 C615 1.386 . S
H613 C629 0.930 . S
H614 C630 0.931 . S
C615 H603 0.929 . S
C615 C609 1.390 1_655 S
C615 C612 1.386 . S
C616 C611 1.490 . S
C616 C618 1.395 . S
C616 C619 1.403 . S
H617 C623 0.930 . S
C618 H604 0.930 . S
C618 C616 1.395 . S
C618 C621 1.403 . S
C619 C616 1.403 . S
C619 C620 1.524 1_655 S
C619 C623 1.400 . S
C620 H605 0.960 . S
C620 H606 0.960 . S
C620 H607 0.960 1_455 S
C620 C619 1.524 1_455 S
C621 C618 1.403 . S
C621 C622 1.392 . S
C621 C625 1.495 . S
C622 C621 1.392 . S
C622 C623 1.385 . S
C622 C624 1.478 . S
C623 H617 0.930 . S
C623 C619 1.400 . S
C623 C622 1.385 . S
C624 C622 1.478 . S
C624 C626 1.381 . S
C624 C630 1.383 . S
C625 C621 1.495 . S
C625 H631 0.959 . S
C625 H632 0.961 . S
C625 H633 0.960 . S
C626 C624 1.381 . S
C626 C627 1.394 . S
C626 H634 0.930 . S
C627 C626 1.394 . S
C627 C628 1.383 . S
C627 H635 0.929 . S
C628 C627 1.383 . S
C628 C629 1.377 . S
C629 H613 0.930 . S
C629 C628 1.377 . S
C629 C630 1.379 . S
C630 H614 0.931 . S
C630 C624 1.383 . S
C630 C629 1.379 . S
H631 C625 0.959 . S
H632 C625 0.961 . S
H633 C625 0.960 . S
H634 C626 0.930 . S
H635 C627 0.929 . S
H636 C644 0.929 . S
H637 C646 0.930 . S
H638 C648 0.930 . S
H639 C651 0.929 . S
H640 C654 0.930 . S
H641 C656 0.960 . S
H642 C656 0.960 . S
H643 C656 0.960 . S
C644 H636 0.929 . S
C644 C645 1.377 . S
C644 C646 1.384 . S
C645 C644 1.377 . S
C645 C651 1.390 . S
C646 H637 0.930 . S
C646 C644 1.384 . S
C646 C647 1.372 . S
C647 C646 1.372 . S
C647 C648 1.400 . S
C647 C652 1.490 . S
C648 H638 0.930 . S
C648 C647 1.400 . S
C648 C651 1.386 . S
H649 C665 0.930 . S
H650 C666 0.931 . S
C651 H639 0.929 . S
C651 C645 1.390 . S
C651 C648 1.386 . S
C652 C647 1.490 . S
C652 C654 1.395 . S
C652 C655 1.403 . S
H653 C659 0.930 . S
C654 H640 0.930 . S
C654 C652 1.395 . S
C654 C657 1.403 . S
C655 C652 1.403 . S
C655 C656 1.524 . S
C655 C659 1.400 . S
C656 H641 0.960 . S
C656 H642 0.960 . S
C656 H643 0.960 . S
C656 C655 1.524 . S
C657 C654 1.403 . S
C657 C658 1.392 . S
C657 C661 1.495 . S
C658 C657 1.392 . S
C658 C659 1.385 . S
C658 C660 1.478 . S
C659 H653 0.930 . S
C659 C655 1.400 . S
C659 C658 1.385 . S
C660 C658 1.478 . S
C660 C662 1.381 . S
C660 C666 1.383 . S
C661 C657 1.495 . S
C661 H667 0.959 . S
C661 H668 0.961 . S
C661 H669 0.960 . S
C662 C660 1.381 . S
C662 C663 1.394 . S
C662 H670 0.930 . S
C663 C662 1.394 . S
C663 C664 1.383 . S
C663 H671 0.929 1_554 S
C664 C663 1.383 . S
C664 C665 1.377 . S
C665 H649 0.930 . S
C665 C664 1.377 . S
C665 C666 1.379 . S
C666 H650 0.931 . S
C666 C660 1.383 . S
C666 C665 1.379 . S
H667 C661 0.959 . S
H668 C661 0.961 . S
H669 C661 0.960 . S
H670 C662 0.930 . S
H671 C663 0.929 1_556 S
H672 C680 0.929 . S
H673 C682 0.930 . S
H674 C684 0.930 . S
H675 C687 0.929 . S
H676 C690 0.930 . S
H677 C692 0.960 . S
H678 C692 0.960 . S
H679 C692 0.960 . S
C680 H672 0.929 . S
C680 C681 1.377 . S
C680 C682 1.384 . S
C681 C680 1.377 . S
C681 C687 1.390 . S
C682 H673 0.930 . S
C682 C680 1.384 . S
C682 C683 1.372 . S
C683 C682 1.372 . S
C683 C684 1.400 . S
C683 C688 1.490 . S
C684 H674 0.930 . S
C684 C683 1.400 . S
C684 C687 1.386 . S
H685 C701 0.930 . S
H686 C702 0.931 . S
C687 H675 0.929 . S
C687 C681 1.390 . S
C687 C684 1.386 . S
C688 C683 1.490 . S
C688 C690 1.395 . S
C688 C691 1.403 . S
H689 C695 0.930 . S
C690 H676 0.930 . S
C690 C688 1.395 . S
C690 C693 1.403 . S
C691 C688 1.403 . S
C691 C692 1.524 . S
C691 C695 1.400 . S
C692 H677 0.960 . S
C692 H678 0.960 . S
C692 H679 0.960 . S
C692 C691 1.524 . S
C693 C690 1.403 . S
C693 C694 1.392 . S
C693 C697 1.495 . S
C694 C693 1.392 . S
C694 C695 1.385 . S
C694 C696 1.478 . S
C695 H689 0.930 . S
C695 C691 1.400 . S
C695 C694 1.385 . S
C696 C694 1.478 . S
C696 C698 1.381 . S
C696 C702 1.383 . S
C697 C693 1.495 . S
C697 H703 0.959 . S
C697 H704 0.961 . S
C697 H705 0.960 . S
C698 C696 1.381 . S
C698 C699 1.394 . S
C698 H706 0.930 . S
C699 C698 1.394 . S
C699 C700 1.383 . S
C699 H707 0.929 . S
C700 C699 1.383 . S
C700 C701 1.377 . S
C701 H685 0.930 . S
C701 C700 1.377 . S
C701 C702 1.379 . S
C702 H686 0.931 . S
C702 C696 1.383 . S
C702 C701 1.379 . S
H703 C697 0.959 . S
H704 C697 0.961 . S
H705 C697 0.960 . S
H706 C698 0.930 . S
H707 C699 0.929 . S
H708 C716 0.929 . S
H709 C718 0.930 . S
H710 C720 0.930 . S
H711 C723 0.929 . S
H712 C726 0.930 . S
H713 C728 0.960 . S
H714 C728 0.960 . S
H715 C728 0.960 . S
C716 H708 0.929 . S
C716 C717 1.377 . S
C716 C718 1.384 . S
C717 C716 1.377 . S
C717 C723 1.390 . S
C718 H709 0.930 . S
C718 C716 1.384 . S
C718 C719 1.372 . S
C719 C718 1.372 . S
C719 C720 1.400 . S
C719 C724 1.490 . S
C720 H710 0.930 . S
C720 C719 1.400 . S
C720 C723 1.386 . S
H721 C737 0.930 . S
H722 C738 0.931 . S
C723 H711 0.929 . S
C723 C717 1.390 . S
C723 C720 1.386 . S
C724 C719 1.490 . S
C724 C726 1.395 . S
C724 C727 1.403 . S
H725 C731 0.930 . S
C726 H712 0.930 . S
C726 C724 1.395 . S
C726 C729 1.403 . S
C727 C724 1.403 . S
C727 C728 1.524 . S
C727 C731 1.400 . S
C728 H713 0.960 . S
C728 H714 0.960 . S
C728 H715 0.960 . S
C728 C727 1.524 . S
C729 C726 1.403 . S
C729 C730 1.392 . S
C729 C733 1.495 . S
C730 C729 1.392 . S
C730 C731 1.385 . S
C730 C732 1.478 . S
C731 H725 0.930 . S
C731 C727 1.400 . S
C731 C730 1.385 . S
C732 C730 1.478 . S
C732 C734 1.381 . S
C732 C738 1.383 . S
C733 C729 1.495 . S
C733 H739 0.959 . S
C733 H740 0.961 . S
C733 H741 0.960 . S
C734 C732 1.381 . S
C734 C735 1.394 . S
C734 H742 0.930 . S
C735 C734 1.394 . S
C735 C736 1.383 . S
C735 H743 0.929 . S
C736 C735 1.383 . S
C736 C737 1.377 . S
C737 H721 0.930 . S
C737 C736 1.377 . S
C737 C738 1.379 . S
C738 H722 0.931 . S
C738 C732 1.383 . S
C738 C737 1.379 . S
H739 C733 0.959 . S
H740 C733 0.961 . S
H741 C733 0.960 . S
H742 C734 0.930 . S
H743 C735 0.929 . S
H744 C752 0.929 . S
H745 C754 0.930 . S
H746 C756 0.930 . S
H747 C759 0.929 . S
H748 C762 0.930 . S
H749 C764 0.960 . S
H750 C764 0.960 . S
H751 C764 0.960 . S
C752 H744 0.929 . S
C752 C753 1.377 . S
C752 C754 1.384 . S
C753 C752 1.377 . S
C753 C759 1.390 . S
C754 H745 0.930 . S
C754 C752 1.384 . S
C754 C755 1.372 . S
C755 C754 1.372 . S
C755 C756 1.400 . S
C755 C760 1.490 . S
C756 H746 0.930 . S
C756 C755 1.400 . S
C756 C759 1.386 . S
H757 C773 0.930 . S
H758 C774 0.931 . S
C759 H747 0.929 . S
C759 C753 1.390 . S
C759 C756 1.386 . S
C760 C755 1.490 . S
C760 C762 1.395 . S
C760 C763 1.403 . S
H761 C767 0.930 . S
C762 H748 0.930 . S
C762 C760 1.395 . S
C762 C765 1.403 . S
C763 C760 1.403 . S
C763 C764 1.524 . S
C763 C767 1.400 . S
C764 H749 0.960 . S
C764 H750 0.960 . S
C764 H751 0.960 . S
C764 C763 1.524 . S
C765 C762 1.403 . S
C765 C766 1.392 . S
C765 C769 1.495 . S
C766 C765 1.392 . S
C766 C767 1.385 . S
C766 C768 1.478 . S
C767 H761 0.930 . S
C767 C763 1.400 . S
C767 C766 1.385 . S
C768 C766 1.478 . S
C768 C770 1.381 . S
C768 C774 1.383 . S
C769 C765 1.495 . S
C769 H775 0.959 . S
C769 H776 0.961 . S
C769 H777 0.960 . S
C770 C768 1.381 . S
C770 C771 1.394 . S
C770 H778 0.930 . S
C771 C770 1.394 . S
C771 C772 1.383 . S
C771 H779 0.929 . S
C772 C771 1.383 . S
C772 C773 1.377 . S
C773 H757 0.930 . S
C773 C772 1.377 . S
C773 C774 1.379 . S
C774 H758 0.931 . S
C774 C768 1.383 . S
C774 C773 1.379 . S
H775 C769 0.959 . S
H776 C769 0.961 . S
H777 C769 0.960 . S
H778 C770 0.930 . S
H779 C771 0.929 . S
H780 C788 0.929 . S
H781 C790 0.930 . S
H782 C792 0.930 . S
H783 C795 0.929 . S
H784 C798 0.930 . S
H785 C800 0.923 1_556 S
H786 C800 0.960 . S
H787 C800 0.960 . S
C788 H780 0.929 . S
C788 C789 1.377 . S
C788 C790 1.384 . S
C789 C788 1.377 . S
C789 C795 1.390 . S
C790 H781 0.930 . S
C790 C788 1.384 . S
C790 C791 1.372 . S
C791 C790 1.372 . S
C791 C792 1.400 . S
C791 C796 1.490 . S
C792 H782 0.930 . S
C792 C791 1.400 . S
C792 C795 1.386 . S
H793 C809 0.930 . S
H794 C810 0.931 . S
C795 H783 0.929 . S
C795 C789 1.390 . S
C795 C792 1.386 . S
C796 C791 1.490 . S
C796 C798 1.395 . S
C796 C799 1.403 . S
H797 C803 0.923 1_556 S
C798 H784 0.930 . S
C798 C796 1.395 . S
C798 C801 1.403 . S
C799 C796 1.403 . S
C799 C800 1.524 . S
C799 C803 1.406 . S
C800 H785 0.923 1_554 S
C800 H786 0.960 . S
C800 H787 0.960 . S
C800 C799 1.524 . S
C801 C798 1.403 . S
C801 C802 1.392 . S
C801 C805 1.495 . S
C802 C801 1.392 . S
C802 C803 1.386 . S
C802 C804 1.478 1_554 S
C803 H797 0.923 1_554 S
C803 C799 1.406 . S
C803 C802 1.386 . S
C804 C802 1.478 1_556 S
C804 C806 1.381 . S
C804 C810 1.383 . S
C805 C801 1.495 . S
C805 H811 0.959 . S
C805 H812 0.961 . S
C805 H813 0.960 . S
C806 C804 1.381 . S
C806 C807 1.394 . S
C806 H814 0.930 . S
C807 C806 1.394 . S
C807 C808 1.383 . S
C807 H815 0.929 . S
C808 C807 1.383 . S
C808 C809 1.377 . S
C809 H793 0.930 . S
C809 C808 1.377 . S
C809 C810 1.379 . S
C810 H794 0.931 . S
C810 C804 1.383 . S
C810 C809 1.379 . S
H811 C805 0.959 . S
H812 C805 0.961 . S
H813 C805 0.960 . S
H814 C806 0.930 . S
H815 C807 0.929 . S
H816 C824 0.929 . S
H817 C826 0.930 . S
H818 C828 0.930 . S
H819 C831 0.929 . S
H820 C834 0.930 . S
H821 C836 0.960 . S
H822 C836 0.960 . S
H823 C836 0.960 . S
C824 H816 0.929 . S
C824 C825 1.377 . S
C824 C826 1.384 . S
C825 C824 1.377 . S
C825 C831 1.390 . S
C826 H817 0.930 . S
C826 C824 1.384 . S
C826 C827 1.372 . S
C827 C826 1.372 . S
C827 C828 1.400 . S
C827 C832 1.490 . S
C828 H818 0.930 . S
C828 C827 1.400 . S
C828 C831 1.386 . S
H829 C845 0.930 . S
H830 C846 0.931 . S
C831 H819 0.929 . S
C831 C825 1.390 . S
C831 C828 1.386 . S
C832 C827 1.490 . S
C832 C834 1.395 . S
C832 C835 1.403 . S
H833 C839 0.930 . S
C834 H820 0.930 . S
C834 C832 1.395 . S
C834 C837 1.403 . S
C835 C832 1.403 . S
C835 C836 1.524 . S
C835 C839 1.400 . S
C836 H821 0.960 . S
C836 H822 0.960 . S
C836 H823 0.960 . S
C836 C835 1.524 . S
C837 C834 1.403 . S
C837 C838 1.392 . S
C837 C841 1.495 . S
C838 C837 1.392 . S
C838 C839 1.385 . S
C838 C840 1.478 . S
C839 H833 0.930 . S
C839 C835 1.400 . S
C839 C838 1.385 . S
C840 C838 1.478 . S
C840 C842 1.381 . S
C840 C846 1.383 . S
C841 C837 1.495 . S
C841 H847 0.959 . S
C841 H848 0.961 . S
C841 H849 0.960 . S
C842 C840 1.381 . S
C842 C843 1.394 . S
C842 H850 0.930 . S
C843 C842 1.394 . S
C843 C844 1.383 . S
C843 H851 0.929 . S
C844 C843 1.383 . S
C844 C845 1.377 . S
C845 H829 0.930 . S
C845 C844 1.377 . S
C845 C846 1.379 . S
C846 H830 0.931 . S
C846 C840 1.383 . S
C846 C845 1.379 . S
H847 C841 0.959 . S
H848 C841 0.961 . S
H849 C841 0.960 . S
H850 C842 0.930 . S
H851 C843 0.929 . S
H852 C860 0.929 . S
H853 C862 0.930 1_556 S
H854 C864 0.930 . S
H855 C867 0.929 . S
H856 C870 0.930 . S
H857 C872 0.960 . S
H858 C872 0.960 . S
H859 C872 0.960 . S
C860 H852 0.929 . S
C860 C861 1.377 . S
C860 C862 1.384 . S
C861 C860 1.377 . S
C861 C867 1.390 . S
C862 H853 0.930 1_554 S
C862 C860 1.384 . S
C862 C863 1.372 . S
C863 C862 1.372 . S
C863 C864 1.400 . S
C863 C868 1.490 1_554 S
C864 H854 0.930 . S
C864 C863 1.400 . S
C864 C867 1.386 . S
H865 C881 0.930 . S
H866 C882 0.931 . S
C867 H855 0.929 . S
C867 C861 1.390 . S
C867 C864 1.386 . S
C868 C863 1.490 1_556 S
C868 C870 1.395 . S
C868 C871 1.403 . S
H869 C875 0.930 . S
C870 H856 0.930 . S
C870 C868 1.395 . S
C870 C873 1.403 . S
C871 C868 1.403 . S
C871 C872 1.524 . S
C871 C875 1.400 . S
C872 H857 0.960 . S
C872 H858 0.960 . S
C872 H859 0.960 . S
C872 C871 1.524 . S
C873 C870 1.403 . S
C873 C874 1.392 . S
C873 C877 1.495 . S
C874 C873 1.392 . S
C874 C875 1.385 . S
C874 C876 1.478 . S
C875 H869 0.930 . S
C875 C871 1.400 . S
C875 C874 1.385 . S
C876 C874 1.478 . S
C876 C878 1.381 . S
C876 C882 1.383 . S
C877 C873 1.495 . S
C877 H883 0.959 . S
C877 H884 0.961 . S
C877 H885 0.960 . S
C878 C876 1.381 . S
C878 C879 1.394 . S
C878 H886 0.930 . S
C879 C878 1.394 . S
C879 C880 1.383 . S
C879 H887 0.929 . S
C880 C879 1.383 . S
C880 C881 1.377 . S
C881 H865 0.930 . S
C881 C880 1.377 . S
C881 C882 1.379 . S
C882 H866 0.931 . S
C882 C876 1.383 . S
C882 C881 1.379 . S
H883 C877 0.959 . S
H884 C877 0.961 . S
H885 C877 0.960 . S
H886 C878 0.930 . S
H887 C879 0.929 . S
H888 C896 0.929 . S
H889 C898 0.930 . S
H890 C900 0.930 . S
H891 C903 0.929 . S
H892 C906 0.930 . S
H893 C908 0.960 . S
H894 C908 0.960 . S
H895 C908 0.960 . S
C896 H888 0.929 . S
C896 C897 1.377 . S
C896 C898 1.384 . S
C897 C896 1.377 . S
C897 C903 1.390 . S
C898 H889 0.930 . S
C898 C896 1.384 . S
C898 C899 1.372 . S
C899 C898 1.372 . S
C899 C900 1.400 . S
C899 C904 1.490 . S
C900 H890 0.930 . S
C900 C899 1.400 . S
C900 C903 1.386 . S
H901 C917 0.930 . S
H902 C918 0.931 . S
C903 H891 0.929 . S
C903 C897 1.390 . S
C903 C900 1.386 . S
C904 C899 1.490 . S
C904 C906 1.395 . S
C904 C907 1.403 . S
H905 C911 0.930 . S
C906 H892 0.930 . S
C906 C904 1.395 . S
C906 C909 1.403 . S
C907 C904 1.403 . S
C907 C908 1.524 . S
C907 C911 1.400 . S
C908 H893 0.960 . S
C908 H894 0.960 . S
C908 H895 0.960 . S
C908 C907 1.524 . S
C909 C906 1.403 . S
C909 C910 1.392 . S
C909 C913 1.495 . S
C910 C909 1.392 . S
C910 C911 1.385 . S
C910 C912 1.478 . S
C911 H905 0.930 . S
C911 C907 1.400 . S
C911 C910 1.385 . S
C912 C910 1.478 . S
C912 C914 1.381 . S
C912 C918 1.383 . S
C913 C909 1.495 . S
C913 H919 0.959 . S
C913 H920 0.961 . S
C913 H921 0.960 . S
C914 C912 1.381 . S
C914 C915 1.394 . S
C914 H922 0.930 . S
C915 C914 1.394 . S
C915 C916 1.383 . S
C915 H923 0.929 . S
C916 C915 1.383 . S
C916 C917 1.377 . S
C917 H901 0.930 . S
C917 C916 1.377 . S
C917 C918 1.379 . S
C918 H902 0.931 . S
C918 C912 1.383 . S
C918 C917 1.379 . S
H919 C913 0.959 . S
H920 C913 0.961 . S
H921 C913 0.960 . S
H922 C914 0.930 . S
H923 C915 0.929 . S
H924 C932 0.929 . S
H925 C934 0.930 . S
H926 C936 0.930 . S
H927 C939 0.929 . S
H928 C942 0.930 . S
H929 C944 0.960 . S
H930 C944 0.960 . S
H931 C944 0.960 . S
C932 H924 0.929 . S
C932 C933 1.377 . S
C932 C934 1.384 . S
C933 C932 1.377 . S
C933 C939 1.390 . S
C934 H925 0.930 . S
C934 C932 1.384 . S
C934 C935 1.372 . S
C935 C934 1.372 . S
C935 C936 1.400 . S
C935 C940 1.490 . S
C936 H926 0.930 . S
C936 C935 1.400 . S
C936 C939 1.386 . S
H937 C953 0.930 . S
H938 C954 0.931 . S
C939 H927 0.929 . S
C939 C933 1.390 . S
C939 C936 1.386 . S
C940 C935 1.490 . S
C940 C942 1.395 . S
C940 C943 1.403 . S
H941 C947 0.930 . S
C942 H928 0.930 . S
C942 C940 1.395 . S
C942 C945 1.403 . S
C943 C940 1.403 . S
C943 C944 1.524 . S
C943 C947 1.400 . S
C944 H929 0.960 . S
C944 H930 0.960 . S
C944 H931 0.960 . S
C944 C943 1.524 . S
C945 C942 1.403 . S
C945 C946 1.392 . S
C945 C949 1.495 . S
C946 C945 1.392 . S
C946 C947 1.385 . S
C946 C948 1.478 . S
C947 H941 0.930 . S
C947 C943 1.400 . S
C947 C946 1.385 . S
C948 C946 1.478 . S
C948 C950 1.381 . S
C948 C954 1.383 . S
C949 C945 1.495 . S
C949 H955 0.959 . S
C949 H956 0.961 . S
C949 H957 0.960 . S
C950 C948 1.381 . S
C950 C951 1.394 . S
C950 H958 0.930 . S
C951 C950 1.394 . S
C951 C952 1.383 . S
C951 H959 0.929 . S
C952 C951 1.383 . S
C952 C953 1.377 . S
C953 H937 0.930 . S
C953 C952 1.377 . S
C953 C954 1.379 . S
C954 H938 0.931 . S
C954 C948 1.383 . S
C954 C953 1.379 . S
H955 C949 0.959 . S
H956 C949 0.961 . S
H957 C949 0.960 . S
H958 C950 0.930 . S
H959 C951 0.929 . S
H960 C968 0.929 . S
H961 C970 0.930 . S
H962 C972 0.930 . S
H963 C975 0.929 . S
H964 C978 0.930 . S
H965 C980 0.960 . S
H966 C980 0.960 . S
H967 C980 0.960 . S
C968 H960 0.929 . S
C968 C969 1.377 . S
C968 C970 1.384 . S
C969 C968 1.377 . S
C969 C975 1.390 . S
C970 H961 0.930 . S
C970 C968 1.384 . S
C970 C971 1.372 . S
C971 C970 1.372 . S
C971 C972 1.400 . S
C971 C976 1.490 . S
C972 H962 0.930 . S
C972 C971 1.400 . S
C972 C975 1.386 . S
H973 C989 0.930 . S
H974 C990 0.931 . S
C975 H963 0.929 . S
C975 C969 1.390 . S
C975 C972 1.386 . S
C976 C971 1.490 . S
C976 C978 1.395 . S
C976 C979 1.403 . S
H977 C983 0.930 . S
C978 H964 0.930 . S
C978 C976 1.395 . S
C978 C981 1.403 . S
C979 C976 1.403 . S
C979 C980 1.524 . S
C979 C983 1.400 . S
C980 H965 0.960 . S
C980 H966 0.960 . S
C980 H967 0.960 . S
C980 C979 1.524 . S
C981 C978 1.403 . S
C981 C982 1.392 . S
C981 C985 1.495 . S
C982 C981 1.392 . S
C982 C983 1.385 . S
C982 C984 1.478 . S
C983 H977 0.930 . S
C983 C979 1.400 . S
C983 C982 1.385 . S
C984 C982 1.478 . S
C984 C986 1.381 . S
C984 C990 1.383 . S
C985 C981 1.495 . S
C985 H991 0.959 . S
C985 H992 0.961 . S
C985 H993 0.960 . S
C986 C984 1.381 . S
C986 C987 1.394 . S
C986 H994 0.930 . S
C987 C986 1.394 . S
C987 C988 1.383 . S
C987 H995 0.929 . S
C988 C987 1.383 . S
C988 C989 1.377 . S
C989 H973 0.930 . S
C989 C988 1.377 . S
C989 C990 1.379 . S
C990 H974 0.931 . S
C990 C984 1.383 . S
C990 C989 1.379 . S
H991 C985 0.959 . S
H992 C985 0.961 . S
H993 C985 0.960 . S
H994 C986 0.930 . S
H995 C987 0.929 . S
H996 C1004 0.929 . S
H997 C1006 0.930 . S
H998 C1008 0.930 . S
H999 C1011 0.929 . S
H1000 C1014 0.930 . S
H1001 C1016 0.960 . S
H1002 C1016 0.960 . S
H1003 C1016 0.960 . S
C1004 H996 0.929 . S
C1004 C1005 1.377 . S
C1004 C1006 1.384 . S
C1005 C1004 1.377 . S
C1005 C1011 1.390 . S
C1006 H997 0.930 . S
C1006 C1004 1.384 . S
C1006 C1007 1.372 . S
C1007 C1006 1.372 . S
C1007 C1008 1.400 . S
C1007 C1012 1.490 . S
C1008 H998 0.930 . S
C1008 C1007 1.400 . S
C1008 C1011 1.386 . S
H1009 C1025 0.930 . S
H1010 C1026 0.931 . S
C1011 H999 0.929 . S
C1011 C1005 1.390 . S
C1011 C1008 1.386 . S
C1012 C1007 1.490 . S
C1012 C1014 1.395 . S
C1012 C1015 1.403 . S
H1013 C1019 0.930 . S
C1014 H1000 0.930 . S
C1014 C1012 1.395 . S
C1014 C1017 1.403 1_545 S
C1015 C1012 1.403 . S
C1015 C1016 1.524 . S
C1015 C1019 1.400 . S
C1016 H1001 0.960 . S
C1016 H1002 0.960 . S
C1016 H1003 0.960 . S
C1016 C1015 1.524 . S
C1017 C1014 1.403 1_565 S
C1017 C1018 1.392 . S
C1017 C1021 1.495 . S
C1018 C1017 1.392 . S
C1018 C1019 1.385 1_565 S
C1018 C1020 1.478 . S
C1019 H1013 0.930 . S
C1019 C1015 1.400 . S
C1019 C1018 1.385 1_545 S
C1020 C1018 1.478 . S
C1020 C1022 1.381 . S
C1020 C1026 1.383 . S
C1021 C1017 1.495 . S
C1021 H1027 0.959 . S
C1021 H1028 0.961 . S
C1021 H1029 0.960 . S
C1022 C1020 1.381 . S
C1022 C1023 1.394 . S
C1022 H1030 0.930 . S
C1023 C1022 1.394 . S
C1023 C1024 1.383 . S
C1023 H1031 0.929 . S
C1024 C1023 1.383 . S
C1024 C1025 1.377 . S
C1025 H1009 0.930 . S
C1025 C1024 1.377 . S
C1025 C1026 1.379 . S
C1026 H1010 0.931 . S
C1026 C1020 1.383 . S
C1026 C1025 1.379 . S
H1027 C1021 0.959 . S
H1028 C1021 0.961 . S
H1029 C1021 0.960 . S
H1030 C1022 0.930 . S
H1031 C1023 0.929 . S
H1032 C1040 0.929 . S
H1033 C1042 0.930 . S
H1034 C1044 0.930 . S
H1035 C1047 0.929 . S
H1036 C1050 0.930 . S
H1037 C1052 0.960 . S
H1038 C1052 0.960 . S
H1039 C1052 0.960 . S
C1040 H1032 0.929 . S
C1040 C1041 1.377 . S
C1040 C1042 1.384 . S
C1041 C1040 1.377 . S
C1041 C1047 1.390 . S
C1042 H1033 0.930 . S
C1042 C1040 1.384 . S
C1042 C1043 1.372 . S
C1043 C1042 1.372 . S
C1043 C1044 1.400 . S
C1043 C1048 1.490 . S
C1044 H1034 0.930 . S
C1044 C1043 1.400 . S
C1044 C1047 1.386 . S
H1045 C1061 0.930 . S
H1046 C1062 0.931 . S
C1047 H1035 0.929 . S
C1047 C1041 1.390 . S
C1047 C1044 1.386 . S
C1048 C1043 1.490 . S
C1048 C1050 1.395 . S
C1048 C1051 1.403 . S
H1049 C1055 0.930 . S
C1050 H1036 0.930 . S
C1050 C1048 1.395 . S
C1050 C1053 1.403 . S
C1051 C1048 1.403 . S
C1051 C1052 1.524 . S
C1051 C1055 1.400 . S
C1052 H1037 0.960 . S
C1052 H1038 0.960 . S
C1052 H1039 0.960 . S
C1052 C1051 1.524 . S
C1053 C1050 1.403 . S
C1053 C1054 1.392 . S
C1053 C1057 1.495 . S
C1054 C1053 1.392 . S
C1054 C1055 1.385 . S
C1054 C1056 1.478 . S
C1055 H1049 0.930 . S
C1055 C1051 1.400 . S
C1055 C1054 1.385 . S
C1056 C1054 1.478 . S
C1056 C1058 1.381 . S
C1056 C1062 1.383 . S
C1057 C1053 1.495 . S
C1057 H1063 0.959 . S
C1057 H1064 0.961 . S
C1057 H1065 0.960 . S
C1058 C1056 1.381 . S
C1058 C1059 1.394 . S
C1058 H1066 0.930 . S
C1059 C1058 1.394 . S
C1059 C1060 1.383 . S
C1059 H1067 0.929 . S
C1060 C1059 1.383 . S
C1060 C1061 1.377 . S
C1061 H1045 0.930 . S
C1061 C1060 1.377 . S
C1061 C1062 1.379 . S
C1062 H1046 0.931 . S
C1062 C1056 1.383 . S
C1062 C1061 1.379 . S
H1063 C1057 0.959 . S
H1064 C1057 0.961 . S
H1065 C1057 0.960 . S
H1066 C1058 0.930 . S
H1067 C1059 0.929 . S
H1068 C1076 0.929 . S
H1069 C1078 0.930 . S
H1070 C1080 0.953 . S
H1071 C1083 0.929 . S
H1072 C1086 0.930 1_545 S
H1073 C1088 0.960 . S
H1074 C1088 0.960 . S
H1075 C1088 0.960 . S
C1076 H1068 0.929 . S
C1076 C1077 1.377 . S
C1076 C1078 1.384 . S
C1077 C1076 1.377 . S
C1077 C1083 1.390 . S
C1078 H1069 0.930 . S
C1078 C1076 1.384 . S
C1078 C1079 1.372 . S
C1079 C1078 1.372 . S
C1079 C1080 1.400 . S
C1079 C1084 1.490 1_545 S
C1080 H1070 0.953 . S
C1080 C1079 1.400 . S
C1080 C1083 1.386 . S
H1081 C1097 0.930 . S
H1082 C1098 0.931 . S
C1083 H1071 0.929 . S
C1083 C1077 1.390 . S
C1083 C1080 1.386 . S
C1084 C1079 1.490 1_565 S
C1084 C1086 1.395 . S
C1084 C1087 1.403 . S
H1085 C1091 0.930 . S
C1086 H1072 0.930 1_565 S
C1086 C1084 1.395 . S
C1086 C1089 1.403 . S
C1087 C1084 1.403 . S
C1087 C1088 1.524 . S
C1087 C1091 1.400 . S
C1088 H1073 0.960 . S
C1088 H1074 0.960 . S
C1088 H1075 0.960 . S
C1088 C1087 1.524 . S
C1089 C1086 1.403 . S
C1089 C1090 1.392 . S
C1089 C1093 1.495 . S
C1090 C1089 1.392 . S
C1090 C1091 1.385 . S
C1090 C1092 1.478 . S
C1091 H1085 0.930 . S
C1091 C1087 1.400 . S
C1091 C1090 1.385 . S
C1092 C1090 1.478 . S
C1092 C1094 1.381 . S
C1092 C1098 1.383 . S
C1093 C1089 1.495 . S
C1093 H1099 0.959 . S
C1093 H1100 0.961 . S
C1093 H1101 0.960 . S
C1094 C1092 1.381 . S
C1094 C1095 1.394 . S
C1094 H1102 0.930 . S
C1095 C1094 1.394 . S
C1095 C1096 1.383 . S
C1095 H1103 0.929 1_554 S
C1096 C1095 1.383 . S
C1096 C1097 1.377 . S
C1097 H1081 0.930 . S
C1097 C1096 1.377 . S
C1097 C1098 1.379 . S
C1098 H1082 0.931 . S
C1098 C1092 1.383 . S
C1098 C1097 1.379 . S
H1099 C1093 0.959 . S
H1100 C1093 0.961 . S
H1101 C1093 0.960 . S
H1102 C1094 0.930 . S
H1103 C1095 0.929 1_556 S
H1104 C1112 0.929 . S
H1105 C1114 0.930 . S
H1106 C1116 0.930 . S
H1107 C1119 0.929 . S
H1108 C1122 0.930 . S
H1109 C1124 0.960 . S
H1110 C1124 0.960 . S
H1111 C1124 0.960 . S
C1112 H1104 0.929 . S
C1112 C1113 1.377 . S
C1112 C1114 1.384 . S
C1113 C1112 1.377 . S
C1113 C1119 1.390 . S
C1114 H1105 0.930 . S
C1114 C1112 1.384 . S
C1114 C1115 1.372 . S
C1115 C1114 1.372 . S
C1115 C1116 1.400 . S
C1115 C1120 1.490 . S
C1116 H1106 0.930 . S
C1116 C1115 1.400 . S
C1116 C1119 1.386 . S
H1117 C1133 0.930 . S
H1118 C1134 0.931 . S
C1119 H1107 0.929 . S
C1119 C1113 1.390 . S
C1119 C1116 1.386 . S
C1120 C1115 1.490 . S
C1120 C1122 1.395 . S
C1120 C1123 1.403 . S
H1121 C1127 0.930 . S
C1122 H1108 0.930 . S
C1122 C1120 1.395 . S
C1122 C1125 1.403 . S
C1123 C1120 1.403 . S
C1123 C1124 1.524 . S
C1123 C1127 1.400 . S
C1124 H1109 0.960 . S
C1124 H1110 0.960 . S
C1124 H1111 0.960 . S
C1124 C1123 1.524 . S
C1125 C1122 1.403 . S
C1125 C1126 1.392 . S
C1125 C1129 1.495 . S
C1126 C1125 1.392 . S
C1126 C1127 1.385 . S
C1126 C1128 1.478 . S
C1127 H1121 0.930 . S
C1127 C1123 1.400 . S
C1127 C1126 1.385 . S
C1128 C1126 1.478 . S
C1128 C1130 1.381 . S
C1128 C1134 1.383 . S
C1129 C1125 1.495 . S
C1129 H1135 0.959 . S
C1129 H1136 0.961 . S
C1129 H1137 0.960 . S
C1130 C1128 1.381 . S
C1130 C1131 1.394 . S
C1130 H1138 0.930 . S
C1131 C1130 1.394 . S
C1131 C1132 1.383 . S
C1131 H1139 0.929 . S
C1132 C1131 1.383 . S
C1132 C1133 1.377 . S
C1133 H1117 0.930 . S
C1133 C1132 1.377 . S
C1133 C1134 1.379 . S
C1134 H1118 0.931 . S
C1134 C1128 1.383 . S
C1134 C1133 1.379 . S
H1135 C1129 0.959 . S
H1136 C1129 0.961 . S
H1137 C1129 0.960 . S
H1138 C1130 0.930 . S
H1139 C1131 0.929 . S
H1140 C1148 0.929 . S
H1141 C1150 0.930 . S
H1142 C1152 0.930 . S
H1143 C1155 0.929 . S
H1144 C1158 0.930 . S
H1145 C1160 0.960 . S
H1146 C1160 0.960 . S
H1147 C1160 0.960 . S
C1148 H1140 0.929 . S
C1148 C1149 1.377 . S
C1148 C1150 1.384 . S
C1149 C1148 1.377 . S
C1149 C1155 1.390 . S
C1150 H1141 0.930 . S
C1150 C1148 1.384 . S
C1150 C1151 1.372 . S
C1151 C1150 1.372 . S
C1151 C1152 1.400 . S
C1151 C1156 1.490 . S
C1152 H1142 0.930 . S
C1152 C1151 1.400 . S
C1152 C1155 1.386 . S
H1153 C1169 0.930 . S
H1154 C1170 0.931 . S
C1155 H1143 0.929 . S
C1155 C1149 1.390 . S
C1155 C1152 1.386 . S
C1156 C1151 1.490 . S
C1156 C1158 1.395 . S
C1156 C1159 1.403 . S
H1157 C1163 0.930 . S
C1158 H1144 0.930 . S
C1158 C1156 1.395 . S
C1158 C1161 1.403 . S
C1159 C1156 1.403 . S
C1159 C1160 1.524 . S
C1159 C1163 1.400 . S
C1160 H1145 0.960 . S
C1160 H1146 0.960 . S
C1160 H1147 0.960 . S
C1160 C1159 1.524 . S
C1161 C1158 1.403 . S
C1161 C1162 1.392 . S
C1161 C1165 1.495 . S
C1162 C1161 1.392 . S
C1162 C1163 1.385 . S
C1162 C1164 1.478 . S
C1163 H1157 0.930 . S
C1163 C1159 1.400 . S
C1163 C1162 1.385 . S
C1164 C1162 1.478 . S
C1164 C1166 1.381 . S
C1164 C1170 1.383 . S
C1165 C1161 1.495 . S
C1165 H1171 0.959 . S
C1165 H1172 0.961 . S
C1165 H1173 0.960 . S
C1166 C1164 1.381 . S
C1166 C1167 1.394 . S
C1166 H1174 0.930 . S
C1167 C1166 1.394 . S
C1167 C1168 1.383 . S
C1167 H1175 0.929 . S
C1168 C1167 1.383 . S
C1168 C1169 1.377 . S
C1169 H1153 0.930 . S
C1169 C1168 1.377 . S
C1169 C1170 1.379 . S
C1170 H1154 0.931 . S
C1170 C1164 1.383 . S
C1170 C1169 1.379 . S
H1171 C1165 0.959 . S
H1172 C1165 0.961 . S
H1173 C1165 0.960 . S
H1174 C1166 0.930 . S
H1175 C1167 0.929 . S
H1176 C1184 0.929 . S
H1177 C1186 0.930 . S
H1178 C1188 0.930 . S
H1179 C1191 0.929 . S
H1180 C1194 0.930 . S
H1181 C1196 0.960 . S
H1182 C1196 0.960 . S
H1183 C1196 0.960 . S
C1184 H1176 0.929 . S
C1184 C1185 1.377 . S
C1184 C1186 1.384 . S
C1185 C1184 1.377 . S
C1185 C1191 1.390 . S
C1186 H1177 0.930 . S
C1186 C1184 1.384 . S
C1186 C1187 1.372 . S
C1187 C1186 1.372 . S
C1187 C1188 1.400 . S
C1187 C1192 1.490 . S
C1188 H1178 0.930 . S
C1188 C1187 1.400 . S
C1188 C1191 1.386 . S
H1189 C1205 0.930 . S
H1190 C1206 0.931 . S
C1191 H1179 0.929 . S
C1191 C1185 1.390 . S
C1191 C1188 1.386 . S
C1192 C1187 1.490 . S
C1192 C1194 1.395 . S
C1192 C1195 1.403 . S
H1193 C1199 0.930 . S
C1194 H1180 0.930 . S
C1194 C1192 1.395 . S
C1194 C1197 1.403 . S
C1195 C1192 1.403 . S
C1195 C1196 1.524 . S
C1195 C1199 1.400 . S
C1196 H1181 0.960 . S
C1196 H1182 0.960 . S
C1196 H1183 0.960 . S
C1196 C1195 1.524 . S
C1197 C1194 1.403 . S
C1197 C1198 1.392 . S
C1197 C1201 1.495 . S
C1198 C1197 1.392 . S
C1198 C1199 1.385 . S
C1198 C1200 1.478 . S
C1199 H1193 0.930 . S
C1199 C1195 1.400 . S
C1199 C1198 1.385 . S
C1200 C1198 1.478 . S
C1200 C1202 1.381 . S
C1200 C1206 1.383 . S
C1201 C1197 1.495 . S
C1201 H1207 0.959 . S
C1201 H1208 0.961 . S
C1201 H1209 0.960 . S
C1202 C1200 1.381 . S
C1202 C1203 1.394 . S
C1202 H1210 0.930 . S
C1203 C1202 1.394 . S
C1203 C1204 1.383 . S
C1203 H1211 0.929 . S
C1204 C1203 1.383 . S
C1204 C1205 1.377 . S
C1205 H1189 0.930 . S
C1205 C1204 1.377 . S
C1205 C1206 1.379 . S
C1206 H1190 0.931 . S
C1206 C1200 1.383 . S
C1206 C1205 1.379 . S
H1207 C1201 0.959 . S
H1208 C1201 0.961 . S
H1209 C1201 0.960 . S
H1210 C1202 0.930 . S
H1211 C1203 0.929 . S
H1212 C1220 0.929 . S
H1213 C1222 0.930 . S
H1214 C1224 0.930 . S
H1215 C1227 0.929 . S
H1216 C1230 0.930 . S
H1217 C1232 0.960 . S
H1218 C1232 0.960 . S
H1219 C1232 0.960 . S
C1220 H1212 0.929 . S
C1220 C1221 1.377 . S
C1220 C1222 1.384 . S
C1221 C1220 1.377 . S
C1221 C1227 1.390 . S
C1222 H1213 0.930 . S
C1222 C1220 1.384 . S
C1222 C1223 1.372 . S
C1223 C1222 1.372 . S
C1223 C1224 1.400 . S
C1223 C1228 1.490 . S
C1224 H1214 0.930 . S
C1224 C1223 1.400 . S
C1224 C1227 1.386 . S
H1225 C1241 0.930 . S
H1226 C1242 0.931 . S
C1227 H1215 0.929 . S
C1227 C1221 1.390 . S
C1227 C1224 1.386 . S
C1228 C1223 1.490 . S
C1228 C1230 1.395 . S
C1228 C1231 1.403 . S
H1229 C1235 0.930 . S
C1230 H1216 0.930 . S
C1230 C1228 1.395 . S
C1230 C1233 1.403 . S
C1231 C1228 1.403 . S
C1231 C1232 1.524 . S
C1231 C1235 1.400 . S
C1232 H1217 0.960 . S
C1232 H1218 0.960 . S
C1232 H1219 0.960 . S
C1232 C1231 1.524 . S
C1233 C1230 1.403 . S
C1233 C1234 1.392 . S
C1233 C1237 1.495 . S
C1234 C1233 1.392 . S
C1234 C1235 1.385 . S
C1234 C1236 1.478 . S
C1235 H1229 0.930 . S
C1235 C1231 1.400 . S
C1235 C1234 1.385 . S
C1236 C1234 1.478 . S
C1236 C1238 1.381 . S
C1236 C1242 1.383 . S
C1237 C1233 1.495 . S
C1237 H1243 0.959 . S
C1237 H1244 0.961 . S
C1237 H1245 0.960 . S
C1238 C1236 1.381 . S
C1238 C1239 1.394 . S
C1238 H1246 0.930 . S
C1239 C1238 1.394 . S
C1239 C1240 1.383 . S
C1239 H1247 0.929 . S
C1240 C1239 1.383 . S
C1240 C1241 1.377 . S
C1241 H1225 0.930 . S
C1241 C1240 1.377 . S
C1241 C1242 1.379 . S
C1242 H1226 0.931 . S
C1242 C1236 1.383 . S
C1242 C1241 1.379 . S
H1243 C1237 0.959 . S
H1244 C1237 0.961 . S
H1245 C1237 0.960 . S
H1246 C1238 0.930 . S
H1247 C1239 0.929 . S
H1248 C1256 0.929 . S
H1249 C1258 0.930 . S
H1250 C1260 0.930 . S
H1251 C1263 0.929 . S
H1252 C1266 0.930 . S
H1253 C1268 0.960 . S
H1254 C1268 0.960 . S
H1255 C1268 0.960 . S
C1256 H1248 0.929 . S
C1256 C1257 1.377 . S
C1256 C1258 1.384 . S
C1257 C1256 1.377 . S
C1257 C1263 1.390 . S
C1258 H1249 0.930 . S
C1258 C1256 1.384 . S
C1258 C1259 1.372 . S
C1259 C1258 1.372 . S
C1259 C1260 1.400 . S
C1259 C1264 1.490 . S
C1260 H1250 0.930 . S
C1260 C1259 1.400 . S
C1260 C1263 1.386 . S
H1261 C1277 0.930 . S
H1262 C1278 0.931 . S
C1263 H1251 0.929 . S
C1263 C1257 1.390 . S
C1263 C1260 1.386 . S
C1264 C1259 1.490 . S
C1264 C1266 1.395 . S
C1264 C1267 1.403 . S
H1265 C1271 0.930 . S
C1266 H1252 0.930 . S
C1266 C1264 1.395 . S
C1266 C1269 1.403 . S
C1267 C1264 1.403 . S
C1267 C1268 1.524 . S
C1267 C1271 1.400 . S
C1268 H1253 0.960 . S
C1268 H1254 0.960 . S
C1268 H1255 0.960 . S
C1268 C1267 1.524 . S
C1269 C1266 1.403 . S
C1269 C1270 1.392 . S
C1269 C1273 1.495 . S
C1270 C1269 1.392 . S
C1270 C1271 1.385 . S
C1270 C1272 1.478 . S
C1271 H1265 0.930 . S
C1271 C1267 1.400 . S
C1271 C1270 1.385 . S
C1272 C1270 1.478 . S
C1272 C1274 1.381 . S
C1272 C1278 1.383 . S
C1273 C1269 1.495 . S
C1273 H1279 0.959 . S
C1273 H1280 0.961 . S
C1273 H1281 0.960 . S
C1274 C1272 1.381 . S
C1274 C1275 1.394 . S
C1274 H1282 0.930 . S
C1275 C1274 1.394 . S
C1275 C1276 1.383 . S
C1275 H1283 0.929 . S
C1276 C1275 1.383 . S
C1276 C1277 1.377 . S
C1277 H1261 0.930 . S
C1277 C1276 1.377 . S
C1277 C1278 1.379 . S
C1278 H1262 0.931 . S
C1278 C1272 1.383 . S
C1278 C1277 1.379 . S
H1279 C1273 0.959 . S
H1280 C1273 0.961 . S
H1281 C1273 0.960 . S
H1282 C1274 0.930 . S
H1283 C1275 0.929 . S
H1284 C1292 0.929 . S
H1285 C1294 0.930 . S
H1286 C1296 0.930 . S
H1287 C1299 0.929 . S
H1288 C1302 0.930 . S
H1289 C1304 0.960 . S
H1290 C1304 0.960 . S
H1291 C1304 0.960 . S
C1292 H1284 0.929 . S
C1292 C1293 1.377 . S
C1292 C1294 1.384 . S
C1293 C1292 1.377 . S
C1293 C1299 1.390 . S
C1294 H1285 0.930 . S
C1294 C1292 1.384 . S
C1294 C1295 1.372 . S
C1295 C1294 1.372 . S
C1295 C1296 1.400 . S
C1295 C1300 1.490 . S
C1296 H1286 0.930 . S
C1296 C1295 1.400 . S
C1296 C1299 1.386 . S
H1297 C1313 0.930 . S
H1298 C1314 0.931 . S
C1299 H1287 0.929 . S
C1299 C1293 1.390 . S
C1299 C1296 1.386 . S
C1300 C1295 1.490 . S
C1300 C1302 1.395 . S
C1300 C1303 1.403 . S
H1301 C1307 0.930 . S
C1302 H1288 0.930 . S
C1302 C1300 1.395 . S
C1302 C1305 1.403 . S
C1303 C1300 1.403 . S
C1303 C1304 1.524 . S
C1303 C1307 1.400 . S
C1304 H1289 0.960 . S
C1304 H1290 0.960 . S
C1304 H1291 0.960 . S
C1304 C1303 1.524 . S
C1305 C1302 1.403 . S
C1305 C1306 1.392 . S
C1305 C1309 1.495 . S
C1306 C1305 1.392 . S
C1306 C1307 1.385 . S
C1306 C1308 1.478 . S
C1307 H1301 0.930 . S
C1307 C1303 1.400 . S
C1307 C1306 1.385 . S
C1308 C1306 1.478 . S
C1308 C1310 1.381 . S
C1308 C1314 1.383 . S
C1309 C1305 1.495 . S
C1309 H1315 0.959 . S
C1309 H1316 0.961 . S
C1309 H1317 0.960 . S
C1310 C1308 1.381 . S
C1310 C1311 1.394 . S
C1310 H1318 0.930 . S
C1311 C1310 1.394 . S
C1311 C1312 1.383 . S
C1311 H1319 0.929 . S
C1312 C1311 1.383 . S
C1312 C1313 1.377 . S
C1313 H1297 0.930 . S
C1313 C1312 1.377 . S
C1313 C1314 1.379 . S
C1314 H1298 0.931 . S
C1314 C1308 1.383 . S
C1314 C1313 1.379 . S
H1315 C1309 0.959 . S
H1316 C1309 0.961 . S
H1317 C1309 0.960 . S
H1318 C1310 0.930 . S
H1319 C1311 0.929 . S
H1320 C1328 0.929 . S
H1321 C1330 0.930 . S
H1322 C1332 0.930 . S
H1323 C1335 0.929 . S
H1324 C1338 0.930 . S
H1325 C1340 0.960 . S
H1326 C1340 0.960 . S
H1327 C1340 0.960 . S
C1328 H1320 0.929 . S
C1328 C1329 1.377 . S
C1328 C1330 1.384 . S
C1329 C1328 1.377 . S
C1329 C1335 1.390 . S
C1330 H1321 0.930 . S
C1330 C1328 1.384 . S
C1330 C1331 1.372 . S
C1331 C1330 1.372 . S
C1331 C1332 1.400 . S
C1331 C1336 1.490 . S
C1332 H1322 0.930 . S
C1332 C1331 1.400 . S
C1332 C1335 1.386 . S
H1333 C1349 0.930 . S
H1334 C1350 0.931 . S
C1335 H1323 0.929 . S
C1335 C1329 1.390 . S
C1335 C1332 1.386 . S
C1336 C1331 1.490 . S
C1336 C1338 1.395 . S
C1336 C1339 1.403 . S
H1337 C1343 0.930 . S
C1338 H1324 0.930 . S
C1338 C1336 1.395 . S
C1338 C1341 1.403 1_455 S
C1339 C1336 1.403 . S
C1339 C1340 1.524 . S
C1339 C1343 1.400 . S
C1340 H1325 0.960 . S
C1340 H1326 0.960 . S
C1340 H1327 0.960 . S
C1340 C1339 1.524 . S
C1341 C1338 1.403 1_655 S
C1341 C1342 1.392 . S
C1341 C1345 1.495 . S
C1342 C1341 1.392 . S
C1342 C1343 1.385 1_655 S
C1342 C1344 1.478 . S
C1343 H1337 0.930 . S
C1343 C1339 1.400 . S
C1343 C1342 1.385 1_455 S
C1344 C1342 1.478 . S
C1344 C1346 1.381 . S
C1344 C1350 1.383 . S
C1345 C1341 1.495 . S
C1345 H1351 0.959 . S
C1345 H1352 0.961 . S
C1345 H1353 0.960 . S
C1346 C1344 1.381 . S
C1346 C1347 1.394 . S
C1346 H1354 0.930 . S
C1347 C1346 1.394 . S
C1347 C1348 1.383 . S
C1347 H1355 0.929 . S
C1348 C1347 1.383 . S
C1348 C1349 1.377 . S
C1349 H1333 0.930 . S
C1349 C1348 1.377 . S
C1349 C1350 1.379 . S
C1350 H1334 0.931 . S
C1350 C1344 1.383 . S
C1350 C1349 1.379 . S
H1351 C1345 0.959 . S
H1352 C1345 0.961 . S
H1353 C1345 0.960 . S
H1354 C1346 0.930 . S
H1355 C1347 0.929 . S
H1356 C1364 0.929 . S
H1357 C1366 0.930 . S
H1358 C1368 0.930 . S
H1359 C1371 0.929 . S
H1360 C1374 0.930 . S
H1361 C1376 0.960 . S
H1362 C1376 0.960 . S
H1363 C1376 0.960 . S
C1364 H1356 0.929 . S
C1364 C1365 1.377 . S
C1364 C1366 1.384 . S
C1365 C1364 1.377 . S
C1365 C1371 1.390 . S
C1366 H1357 0.930 . S
C1366 C1364 1.384 . S
C1366 C1367 1.372 . S
C1367 C1366 1.372 . S
C1367 C1368 1.400 . S
C1367 C1372 1.490 . S
C1368 H1358 0.930 . S
C1368 C1367 1.400 . S
C1368 C1371 1.386 . S
H1369 C1385 0.930 . S
H1370 C1386 0.931 . S
C1371 H1359 0.929 . S
C1371 C1365 1.390 . S
C1371 C1368 1.386 . S
C1372 C1367 1.490 . S
C1372 C1374 1.395 . S
C1372 C1375 1.403 . S
H1373 C1379 0.930 . S
C1374 H1360 0.930 . S
C1374 C1372 1.395 . S
C1374 C1377 1.403 . S
C1375 C1372 1.403 . S
C1375 C1376 1.524 . S
C1375 C1379 1.400 . S
C1376 H1361 0.960 . S
C1376 H1362 0.960 . S
C1376 H1363 0.960 . S
C1376 C1375 1.524 . S
C1377 C1374 1.403 . S
C1377 C1378 1.392 . S
C1377 C1381 1.495 . S
C1378 C1377 1.392 . S
C1378 C1379 1.385 . S
C1378 C1380 1.478 . S
C1379 H1373 0.930 . S
C1379 C1375 1.400 . S
C1379 C1378 1.385 . S
C1380 C1378 1.478 . S
C1380 C1382 1.381 . S
C1380 C1386 1.383 . S
C1381 C1377 1.495 . S
C1381 H1387 0.959 . S
C1381 H1388 0.961 . S
C1381 H1389 0.960 . S
C1382 C1380 1.381 . S
C1382 C1383 1.394 . S
C1382 H1390 0.930 . S
C1383 C1382 1.394 . S
C1383 C1384 1.383 . S
C1383 H1391 0.929 . S
C1384 C1383 1.383 . S
C1384 C1385 1.377 . S
C1385 H1369 0.930 . S
C1385 C1384 1.377 . S
C1385 C1386 1.379 . S
C1386 H1370 0.931 . S
C1386 C1380 1.383 . S
C1386 C1385 1.379 . S
H1387 C1381 0.959 . S
H1388 C1381 0.961 . S
H1389 C1381 0.960 . S
H1390 C1382 0.930 . S
H1391 C1383 0.929 . S
H1392 C1400 0.929 . S
H1393 C1402 0.930 . S
H1394 C1404 0.930 . S
H1395 C1407 0.929 . S
H1396 C1410 0.930 . S
H1397 C1412 0.960 . S
H1398 C1412 0.960 . S
H1399 C1412 0.960 . S
C1400 H1392 0.929 . S
C1400 C1401 1.377 . S
C1400 C1402 1.384 . S
C1401 C1400 1.377 . S
C1401 C1407 1.390 . S
C1402 H1393 0.930 . S
C1402 C1400 1.384 . S
C1402 C1403 1.372 . S
C1403 C1402 1.372 . S
C1403 C1404 1.400 . S
C1403 C1408 1.490 . S
C1404 H1394 0.930 . S
C1404 C1403 1.400 . S
C1404 C1407 1.386 . S
H1405 C1421 0.930 . S
H1406 C1422 0.931 . S
C1407 H1395 0.929 . S
C1407 C1401 1.390 . S
C1407 C1404 1.386 . S
C1408 C1403 1.490 . S
C1408 C1410 1.395 . S
C1408 C1411 1.403 . S
H1409 C1415 0.930 . S
C1410 H1396 0.930 . S
C1410 C1408 1.395 . S
C1410 C1413 1.403 . S
C1411 C1408 1.403 . S
C1411 C1412 1.524 . S
C1411 C1415 1.400 . S
C1412 H1397 0.960 . S
C1412 H1398 0.960 . S
C1412 H1399 0.960 . S
C1412 C1411 1.524 . S
C1413 C1410 1.403 . S
C1413 C1414 1.392 . S
C1413 C1417 1.495 . S
C1414 C1413 1.392 . S
C1414 C1415 1.385 . S
C1414 C1416 1.478 . S
C1415 H1409 0.930 . S
C1415 C1411 1.400 . S
C1415 C1414 1.385 . S
C1416 C1414 1.478 . S
C1416 C1418 1.381 . S
C1416 C1422 1.383 . S
C1417 C1413 1.495 . S
C1417 H1423 0.959 . S
C1417 H1424 0.961 . S
C1417 H1425 0.960 . S
C1418 C1416 1.381 . S
C1418 C1419 1.394 . S
C1418 H1426 0.930 . S
C1419 C1418 1.394 . S
C1419 C1420 1.383 . S
C1419 H1427 0.929 . S
C1420 C1419 1.383 . S
C1420 C1421 1.377 . S
C1421 H1405 0.930 . S
C1421 C1420 1.377 . S
C1421 C1422 1.379 . S
C1422 H1406 0.931 . S
C1422 C1416 1.383 . S
C1422 C1421 1.379 . S
H1423 C1417 0.959 . S
H1424 C1417 0.961 . S
H1425 C1417 0.960 . S
H1426 C1418 0.930 . S
H1427 C1419 0.929 . S
H1428 C1436 0.929 . S
H1429 C1438 0.930 . S
H1430 C1440 0.930 . S
H1431 C1443 0.929 . S
H1432 C1446 0.930 . S
H1433 C1448 0.960 . S
H1434 C1448 0.960 . S
H1435 C1448 0.960 . S
C1436 H1428 0.929 . S
C1436 C1437 1.377 . S
C1436 C1438 1.384 . S
C1437 C1436 1.377 . S
C1437 C1443 1.390 . S
C1438 H1429 0.930 . S
C1438 C1436 1.384 . S
C1438 C1439 1.372 . S
C1439 C1438 1.372 . S
C1439 C1440 1.400 . S
C1439 C1444 1.490 . S
C1440 H1430 0.930 . S
C1440 C1439 1.400 . S
C1440 C1443 1.386 . S
H1441 C1457 0.930 . S
H1442 C1458 0.931 . S
C1443 H1431 0.929 . S
C1443 C1437 1.390 . S
C1443 C1440 1.386 . S
C1444 C1439 1.490 . S
C1444 C1446 1.395 . S
C1444 C1447 1.403 . S
H1445 C1451 0.930 . S
C1446 H1432 0.930 . S
C1446 C1444 1.395 . S
C1446 C1449 1.403 . S
C1447 C1444 1.403 . S
C1447 C1448 1.524 . S
C1447 C1451 1.400 . S
C1448 H1433 0.960 . S
C1448 H1434 0.960 . S
C1448 H1435 0.960 . S
C1448 C1447 1.524 . S
C1449 C1446 1.403 . S
C1449 C1450 1.392 . S
C1449 C1453 1.495 . S
C1450 C1449 1.392 . S
C1450 C1451 1.385 . S
C1450 C1452 1.478 . S
C1451 H1445 0.930 . S
C1451 C1447 1.400 . S
C1451 C1450 1.385 . S
C1452 C1450 1.478 . S
C1452 C1454 1.381 . S
C1452 C1458 1.383 . S
C1453 C1449 1.495 . S
C1453 H1459 0.959 . S
C1453 H1460 0.961 . S
C1453 H1461 0.960 . S
C1454 C1452 1.381 . S
C1454 C1455 1.394 . S
C1454 H1462 0.930 . S
C1455 C1454 1.394 . S
C1455 C1456 1.383 . S
C1455 H1463 0.929 . S
C1456 C1455 1.383 . S
C1456 C1457 1.377 . S
C1457 H1441 0.930 . S
C1457 C1456 1.377 . S
C1457 C1458 1.379 . S
C1458 H1442 0.931 . S
C1458 C1452 1.383 . S
C1458 C1457 1.379 . S
H1459 C1453 0.959 . S
H1460 C1453 0.961 . S
H1461 C1453 0.960 . S
H1462 C1454 0.930 . S
H1463 C1455 0.929 . S
H1464 C1472 0.929 . S
H1465 C1474 0.930 . S
H1466 C1476 0.930 . S
H1467 C1479 0.929 . S
H1468 C1482 0.930 . S
H1469 C1484 0.960 . S
H1470 C1484 0.960 . S
H1471 C1484 0.960 . S
C1472 H1464 0.929 . S
C1472 C1473 1.377 . S
C1472 C1474 1.384 . S
C1473 C1472 1.377 . S
C1473 C1479 1.390 . S
C1474 H1465 0.930 . S
C1474 C1472 1.384 . S
C1474 C1475 1.372 . S
C1475 C1474 1.372 . S
C1475 C1476 1.400 . S
C1475 C1480 1.490 . S
C1476 H1466 0.930 . S
C1476 C1475 1.400 . S
C1476 C1479 1.386 . S
H1477 C1493 0.930 . S
H1478 C1494 0.931 . S
C1479 H1467 0.929 . S
C1479 C1473 1.390 . S
C1479 C1476 1.386 . S
C1480 C1475 1.490 . S
C1480 C1482 1.395 . S
C1480 C1483 1.403 . S
H1481 C1487 0.930 . S
C1482 H1468 0.930 . S
C1482 C1480 1.395 . S
C1482 C1485 1.403 . S
C1483 C1480 1.403 . S
C1483 C1484 1.524 . S
C1483 C1487 1.400 . S
C1484 H1469 0.960 . S
C1484 H1470 0.960 . S
C1484 H1471 0.960 . S
C1484 C1483 1.524 . S
C1485 C1482 1.403 . S
C1485 C1486 1.392 . S
C1485 C1489 1.495 . S
C1486 C1485 1.392 . S
C1486 C1487 1.385 . S
C1486 C1488 1.478 . S
C1487 H1481 0.930 . S
C1487 C1483 1.400 . S
C1487 C1486 1.385 . S
C1488 C1486 1.478 . S
C1488 C1490 1.381 . S
C1488 C1494 1.383 . S
C1489 C1485 1.495 . S
C1489 H1495 0.959 . S
C1489 H1496 0.961 . S
C1489 H1497 0.960 . S
C1490 C1488 1.381 . S
C1490 C1491 1.394 . S
C1490 H1498 0.930 . S
C1491 C1490 1.394 . S
C1491 C1492 1.383 . S
C1491 H1499 0.929 . S
C1492 C1491 1.383 . S
C1492 C1493 1.377 . S
C1493 H1477 0.930 . S
C1493 C1492 1.377 . S
C1493 C1494 1.379 . S
C1494 H1478 0.931 . S
C1494 C1488 1.383 . S
C1494 C1493 1.379 . S
H1495 C1489 0.959 . S
H1496 C1489 0.961 . S
H1497 C1489 0.960 . S
H1498 C1490 0.930 . S
H1499 C1491 0.929 . S
H1500 C1508 0.929 . S
H1501 C1510 0.930 . S
H1502 C1512 0.930 . S
H1503 C1515 0.929 . S
H1504 C1518 0.930 . S
H1505 C1520 0.960 . S
H1506 C1520 0.960 . S
H1507 C1520 0.960 . S
C1508 H1500 0.929 . S
C1508 C1509 1.377 . S
C1508 C1510 1.384 . S
C1509 C1508 1.377 . S
C1509 C1515 1.390 . S
C1510 H1501 0.930 . S
C1510 C1508 1.384 . S
C1510 C1511 1.372 . S
C1511 C1510 1.372 . S
C1511 C1512 1.400 . S
C1511 C1516 1.490 . S
C1512 H1502 0.930 . S
C1512 C1511 1.400 . S
C1512 C1515 1.386 . S
H1513 C1529 0.930 . S
H1514 C1530 0.931 1_655 S
C1515 H1503 0.929 . S
C1515 C1509 1.390 . S
C1515 C1512 1.386 . S
C1516 C1511 1.490 . S
C1516 C1518 1.395 . S
C1516 C1519 1.403 . S
H1517 C1523 0.930 . S
C1518 H1504 0.930 . S
C1518 C1516 1.395 . S
C1518 C1521 1.403 . S
C1519 C1516 1.403 . S
C1519 C1520 1.524 . S
C1519 C1523 1.400 . S
C1520 H1505 0.960 . S
C1520 H1506 0.960 . S
C1520 H1507 0.960 . S
C1520 C1519 1.524 . S
C1521 C1518 1.403 . S
C1521 C1522 1.392 . S
C1521 C1525 1.495 . S
C1522 C1521 1.392 . S
C1522 C1523 1.385 . S
C1522 C1524 1.478 . S
C1523 H1517 0.930 . S
C1523 C1519 1.400 . S
C1523 C1522 1.385 . S
C1524 C1522 1.478 . S
C1524 C1526 1.376 1_655 S
C1524 C1530 1.383 1_655 S
C1525 C1521 1.495 . S
C1525 H1531 0.959 . S
C1525 H1532 0.961 . S
C1525 H1533 0.960 . S
C1526 C1524 1.376 1_455 S
C1526 C1527 1.405 . S
C1526 H1534 0.924 1_455 S
C1527 C1526 1.405 . S
C1527 C1528 1.383 . S
C1527 H1535 0.929 . S
C1528 C1527 1.383 . S
C1528 C1529 1.377 . S
C1529 H1513 0.930 . S
C1529 C1528 1.377 . S
C1529 C1530 1.379 . S
C1530 H1514 0.931 1_455 S
C1530 C1524 1.383 1_455 S
C1530 C1529 1.379 . S
H1531 C1525 0.959 . S
H1532 C1525 0.961 . S
H1533 C1525 0.960 . S
H1534 C1526 0.924 1_655 S
H1535 C1527 0.929 . S
C249 C2 0.937 . S
C268 C222 0.896 . S
C285 C199 1.259 . S
C304 C22 1.187 . S
C321 C42 1.416 . S
C340 C179 1.525 . S
C357 C79 1.829 . S
C376 C219 1.859 . S
C393 C99 1.445 . S
C412 C202 1.311 . S
C429 C119 1.698 1_455 S
C448 C239 1.662 . S
C465 C182 1.346 . S
C484 C139 1.464 . S
C501 C159 1.179 . S
C520 C162 1.062 . S
C537 C62 0.931 . S
C556 C82 0.869 . S
C573 C19 1.438 . S
C592 C102 1.386 . S
C609 C39 1.483 . S
C628 C122 1.377 . S
C645 C142 1.354 . S
C664 C59 1.474 1_554 S
C681 C9 1.646 . S
C700 C178 1.708 . S
C717 C29 1.615 . S
C736 C218 1.657 . S
C753 C224 1.228 . S
C772 C49 1.249 . S
C789 C72 1.319 . S
C808 C198 1.382 . S
C825 C92 0.912 . S
C844 C184 0.906 . S
C861 C164 1.259 . S
C880 C112 1.263 . S
C897 C204 1.675 . S
C916 C132 1.647 . S
C933 C238 1.452 . S
C952 C152 1.357 . S
C969 C18 1.515 . S
C988 C69 1.449 . S
C1005 C12 1.567 . S
C1024 C38 1.640 . S
C1041 C32 1.638 . S
C1060 C58 1.694 . S
C1077 C64 1.645 . S
C1096 C52 1.592 . S
C1113 C109 0.940 . S
C1132 C84 0.978 . S
C1149 C104 1.275 . S
C1168 C129 1.259 . S
C1185 C124 0.745 . S
C1204 C149 0.750 . S
C1221 C89 0.967 . S
C1240 C144 1.014 . S
C1257 C169 1.429 . S
C1276 C78 1.469 . S
C1293 C118 1.574 . S
C1312 C192 1.484 . S
C1329 C172 1.413 . S
C1348 C138 1.479 . S
C1365 C212 1.509 . S
C1384 C158 1.603 . S
C1401 C98 1.012 . S
C1420 C229 0.988 . S
C1437 C232 1.087 . S
C1456 C24 1.124 . S
C1473 C44 0.910 . S
C1492 C189 0.934 . S
C1509 C209 1.374 . S
C1528 C4 1.356 . S
