# Generated by pormake.
# Topology umw, (4)-cn, num edge types: 1
# Building blocks:
#     Node 0, Type 0, BuildingBlock: KUFVIS_clean_sbu_0, # of connection points: 4
#     Node 1, Type 0, BuildingBlock: KUFVIS_clean_sbu_0, # of connection points: 4
#     Node 2, Type 0, BuildingBlock: KUFVIS_clean_sbu_0, # of connection points: 4
#     Node 3, Type 0, BuildingBlock: KUFVIS_clean_sbu_0, # of connection points: 4
#     Node 4, Type 0, BuildingBlock: KUFVIS_clean_sbu_0, # of connection points: 4
#     Node 5, Type 0, BuildingBlock: KUFVIS_clean_sbu_0, # of connection points: 4
#     Node 6, Type 0, BuildingBlock: KUFVIS_clean_sbu_0, # of connection points: 4
#     Node 7, Type 0, BuildingBlock: KUFVIS_clean_sbu_0, # of connection points: 4
#     Edge 8, Type (0, 0), BuildingBlock: KIFKEQ_clean_linker_1, # of connection points: 2
#     Edge 9, Type (0, 0), BuildingBlock: KIFKEQ_clean_linker_1, # of connection points: 2
#     Edge 10, Type (0, 0), BuildingBlock: KIFKEQ_clean_linker_1, # of connection points: 2
#     Edge 11, Type (0, 0), BuildingBlock: KIFKEQ_clean_linker_1, # of connection points: 2
#     Edge 12, Type (0, 0), BuildingBlock: KIFKEQ_clean_linker_1, # of connection points: 2
#     Edge 13, Type (0, 0), BuildingBlock: KIFKEQ_clean_linker_1, # of connection points: 2
#     Edge 14, Type (0, 0), BuildingBlock: KIFKEQ_clean_linker_1, # of connection points: 2
#     Edge 15, Type (0, 0), BuildingBlock: KIFKEQ_clean_linker_1, # of connection points: 2
#     Edge 16, Type (0, 0), BuildingBlock: KIFKEQ_clean_linker_1, # of connection points: 2
#     Edge 17, Type (0, 0), BuildingBlock: KIFKEQ_clean_linker_1, # of connection points: 2
#     Edge 18, Type (0, 0), BuildingBlock: KIFKEQ_clean_linker_1, # of connection points: 2
#     Edge 19, Type (0, 0), BuildingBlock: KIFKEQ_clean_linker_1, # of connection points: 2
#     Edge 20, Type (0, 0), BuildingBlock: KIFKEQ_clean_linker_1, # of connection points: 2
#     Edge 21, Type (0, 0), BuildingBlock: KIFKEQ_clean_linker_1, # of connection points: 2
#     Edge 22, Type (0, 0), BuildingBlock: KIFKEQ_clean_linker_1, # of connection points: 2
#     Edge 23, Type (0, 0), BuildingBlock: KIFKEQ_clean_linker_1, # of connection points: 2
# Relax obj value: 0.132
# Max RMSD: 0.105
# Mean RMSD: 0.105
data_MOF--net-umw--node1-KUFVIS_clean_sbu_0--edge1-KIFKEQ_clean_linker_1
_symmetry_space_group_name_H-M    P1
_symmetry_Int_Tables_number       1
_symmetry_cell_setting            triclinic
loop_
_symmetry_equiv_pos_as_xyz
'x, y, z'
_cell_length_a     42.19357
_cell_length_b     42.199234
_cell_length_c     25.77755
_cell_angle_alpha  90.029634
_cell_angle_beta   89.998736
_cell_angle_gamma 89.983315
loop_
_atom_site_label
_atom_site_type_symbol
_atom_site_fract_x
_atom_site_fract_y
_atom_site_fract_z
_atom_type_partial_charge
Mn0 Mn 0.41855 0.19603 0.29897 0.0
Mn1 Mn 0.49422 0.1699 0.29072 0.0
C2 C 0.44709 0.18415 0.37274 0.0
C3 C 0.38292 0.23806 0.31165 0.0
C4 C 0.43686 0.12802 0.27039 0.0
O5 O 0.43089 0.20761 0.22394 0.0
O6 O 0.48227 0.19224 0.22651 0.0
C7 C 0.52655 0.23217 0.28957 0.0
N8 N 0.5225 0.203 0.31115 0.0
C9 C 0.56285 0.21326 0.37497 0.0
C10 C 0.56759 0.24334 0.35323 0.0
C11 C 0.54928 0.25286 0.31045 0.0
C12 C 0.53977 0.19372 0.35262 0.0
H13 H 0.51249 0.23959 0.25675 0.0
C14 C 0.45855 0.20493 0.20377 0.0
O15 O 0.37349 0.2112 0.29225 0.0
O16 O 0.41314 0.24128 0.31831 0.0
N17 N 0.50924 0.14781 0.35072 0.0
C18 C 0.50149 0.11818 0.36748 0.0
C19 C 0.51778 0.10499 0.40977 0.0
C20 C 0.54208 0.12223 0.43402 0.0
C21 C 0.54985 0.15255 0.41583 0.0
C22 C 0.53303 0.16432 0.37315 0.0
H23 H 0.48307 0.10463 0.34869 0.0
O24 O 0.41644 0.18485 0.37427 0.0
O25 O 0.4601 0.19066 0.32855 0.0
O26 O 0.41536 0.1486 0.28005 0.0
O27 O 0.46652 0.13426 0.27107 0.0
C28 C 0.57352 0.17161 0.43847 0.0
C29 C 0.57988 0.20202 0.41826 0.0
H30 H 0.58509 0.25937 0.36923 0.0
H31 H 0.55271 0.27609 0.29359 0.0
H32 H 0.5117 0.08154 0.42352 0.0
H33 H 0.55465 0.11191 0.46651 0.0
H34 H 0.58677 0.16323 0.47174 0.0
H35 H 0.59788 0.2166 0.43637 0.0
Mn36 Mn 0.82772 0.41773 0.55132 0.0
Mn37 Mn 0.84828 0.49525 0.5453 0.0
C38 C 0.83543 0.44674 0.62605 0.0
C39 C 0.78903 0.37831 0.56011 0.0
C40 C 0.89506 0.44131 0.52902 0.0
O41 O 0.81742 0.42927 0.47546 0.0
O42 O 0.82891 0.48157 0.4795 0.0
C43 C 0.78362 0.52233 0.53913 0.0
N44 N 0.81246 0.52087 0.56272 0.0
C45 C 0.79748 0.56105 0.62431 0.0
C46 C 0.76768 0.56314 0.60045 0.0
C47 C 0.76069 0.5436 0.55781 0.0
C48 C 0.81927 0.53923 0.60423 0.0
H49 H 0.77817 0.50735 0.50638 0.0
C50 C 0.81865 0.45712 0.45564 0.0
O51 O 0.81726 0.37166 0.54309 0.0
O52 O 0.78248 0.40802 0.56679 0.0
N53 N 0.86741 0.51234 0.60655 0.0
C54 C 0.89732 0.50755 0.62496 0.0
C55 C 0.90836 0.5258 0.66676 0.0
C56 C 0.88872 0.54905 0.68878 0.0
C57 C 0.85811 0.55369 0.66906 0.0
C58 C 0.84857 0.53511 0.62685 0.0
H59 H 0.91277 0.49009 0.60772 0.0
O60 O 0.8369 0.41613 0.62725 0.0
O61 O 0.82899 0.45959 0.58166 0.0
O62 O 0.87571 0.41841 0.53633 0.0
O63 O 0.88664 0.47043 0.52903 0.0
C64 C 0.83674 0.57612 0.6895 0.0
C65 C 0.80634 0.57961 0.6674 0.0
H66 H 0.74996 0.57956 0.61467 0.0
H67 H 0.7377 0.54497 0.53932 0.0
H68 H 0.93204 0.52213 0.6817 0.0
H69 H 0.89747 0.56335 0.72057 0.0
H70 H 0.84336 0.59062 0.72245 0.0
H71 H 0.79 0.5967 0.68377 0.0
Mn72 Mn 0.60518 0.8255 0.79799 0.0
Mn73 Mn 0.5275 0.84504 0.7899 0.0
C74 C 0.57588 0.83474 0.87197 0.0
C75 C 0.64473 0.78714 0.80921 0.0
C76 C 0.58108 0.89179 0.77041 0.0
O77 O 0.59397 0.81359 0.72262 0.0
O78 O 0.54133 0.82364 0.72579 0.0
C79 C 0.50074 0.78017 0.78917 0.0
N80 N 0.50207 0.80971 0.81033 0.0
C81 C 0.46206 0.79649 0.87323 0.0
C82 C 0.46008 0.76599 0.85186 0.0
C83 C 0.4796 0.75777 0.80978 0.0
C84 C 0.4837 0.81774 0.85123 0.0
H85 H 0.51574 0.77377 0.75691 0.0
C86 C 0.56611 0.81343 0.70272 0.0
O87 O 0.65135 0.81504 0.79079 0.0
O88 O 0.61503 0.78067 0.81605 0.0
N89 N 0.51041 0.86597 0.84956 0.0
C90 C 0.51535 0.89631 0.86586 0.0
C91 C 0.49735 0.90844 0.90716 0.0
C92 C 0.47422 0.88942 0.93086 0.0
C93 C 0.46941 0.85836 0.91326 0.0
C94 C 0.48776 0.84771 0.87149 0.0
H95 H 0.53275 0.91125 0.84738 0.0
O96 O 0.60649 0.83636 0.87339 0.0
O97 O 0.56327 0.82717 0.82785 0.0
O98 O 0.60416 0.87307 0.78017 0.0
O99 O 0.55206 0.883 0.77028 0.0
C100 C 0.44713 0.83755 0.93553 0.0
C101 C 0.44362 0.80656 0.91576 0.0
H102 H 0.44379 0.74865 0.86761 0.0
H103 H 0.47833 0.73423 0.79324 0.0
H104 H 0.50116 0.93247 0.92047 0.0
H105 H 0.46019 0.89898 0.96235 0.0
H106 H 0.43279 0.84504 0.96817 0.0
H107 H 0.42667 0.79065 0.93357 0.0
Mn108 Mn 0.19653 0.59892 0.05105 0.0
Mn109 Mn 0.16947 0.52357 0.04911 0.0
C110 C 0.18035 0.57417 0.12637 0.0
C111 C 0.23899 0.63393 0.06447 0.0
C112 C 0.13012 0.58037 0.0153 0.0
O113 O 0.21139 0.58258 0.9795 0.0
O114 O 0.1966 0.53137 0.98834 0.0
C115 C 0.23081 0.49097 0.06575 0.0
N116 N 0.20006 0.49584 0.07961 0.0
C117 C 0.204 0.45767 0.14864 0.0
C118 C 0.23549 0.45167 0.13426 0.0
C119 C 0.24903 0.46859 0.0929 0.0
C120 C 0.18707 0.48031 0.12022 0.0
H121 H 0.24143 0.50432 0.03462 0.0
C122 C 0.2106 0.55368 0.96387 0.0
O123 O 0.21338 0.64314 0.04074 0.0
O124 O 0.24089 0.60407 0.0753 0.0
N125 N 0.143 0.51244 0.10667 0.0
C126 C 0.11301 0.52243 0.11769 0.0
C127 C 0.09645 0.50867 0.1592 0.0
C128 C 0.11068 0.4845 0.18852 0.0
C129 C 0.14143 0.47439 0.17618 0.0
C130 C 0.15673 0.48891 0.13426 0.0
H131 H 0.10175 0.54071 0.09498 0.0
O132 O 0.1819 0.60478 0.12454 0.0
O133 O 0.18858 0.55924 0.08478 0.0
O134 O 0.15026 0.60206 0.02612 0.0
O135 O 0.13608 0.55072 0.01908 0.0
C136 C 0.15761 0.4507 0.20415 0.0
C137 C 0.18898 0.44255 0.1907 0.0
H138 H 0.24963 0.43449 0.15521 0.0
H139 H 0.27347 0.46447 0.0821 0.0
H140 H 0.07272 0.51659 0.16845 0.0
H141 H 0.09784 0.47399 0.22056 0.0
H142 H 0.14634 0.43894 0.23661 0.0
H143 H 0.20142 0.42483 0.21325 0.0
Mn144 Mn 0.42014 0.82576 0.27144 0.0
Mn145 Mn 0.49564 0.85238 0.27949 0.0
C146 C 0.44862 0.83759 0.19762 0.0
C147 C 0.38469 0.78359 0.25901 0.0
C148 C 0.43806 0.89404 0.29926 0.0
O149 O 0.43254 0.81434 0.34649 0.0
O150 O 0.48368 0.83047 0.34406 0.0
C151 C 0.52824 0.79024 0.28196 0.0
N152 N 0.52409 0.81924 0.2598 0.0
C153 C 0.56454 0.80866 0.19628 0.0
C154 C 0.56938 0.77875 0.21861 0.0
C155 C 0.55107 0.76948 0.26154 0.0
C156 C 0.54137 0.82828 0.2182 0.0
H157 H 0.51418 0.78302 0.3149 0.0
C158 C 0.46011 0.81754 0.36682 0.0
O159 O 0.37515 0.81045 0.27829 0.0
O160 O 0.41492 0.78046 0.2523 0.0
N161 N 0.51068 0.87411 0.21916 0.0
C162 C 0.50286 0.90361 0.20186 0.0
C163 C 0.51916 0.91656 0.1594 0.0
C164 C 0.54354 0.89922 0.13551 0.0
C165 C 0.55138 0.86904 0.15426 0.0
C166 C 0.53455 0.85751 0.19711 0.0
H167 H 0.48438 0.91723 0.22036 0.0
O168 O 0.41797 0.83681 0.19611 0.0
O169 O 0.46168 0.83125 0.24185 0.0
O170 O 0.41669 0.87324 0.29014 0.0
O171 O 0.46776 0.88803 0.29837 0.0
C172 C 0.57514 0.84989 0.13203 0.0
C173 C 0.58158 0.81964 0.15283 0.0
H174 H 0.58696 0.76266 0.20297 0.0
H175 H 0.55457 0.74638 0.27885 0.0
H176 H 0.51302 0.9399 0.14521 0.0
H177 H 0.55612 0.90936 0.10289 0.0
H178 H 0.58839 0.85808 0.09864 0.0
H179 H 0.59965 0.80499 0.13503 0.0
Mn180 Mn 0.19597 0.4219 0.52613 0.0
Mn181 Mn 0.17008 0.49759 0.53347 0.0
C182 C 0.18005 0.44886 0.45273 0.0
C183 C 0.23783 0.38653 0.51025 0.0
C184 C 0.1299 0.44058 0.56348 0.0
O185 O 0.21113 0.43613 0.59866 0.0
O186 O 0.19732 0.48783 0.59342 0.0
C187 C 0.23188 0.52954 0.51825 0.0
N188 N 0.20099 0.52558 0.50451 0.0
C189 C 0.20541 0.56511 0.43764 0.0
C190 C 0.23704 0.57022 0.45206 0.0
C191 C 0.2504 0.55216 0.49226 0.0
C192 C 0.18814 0.54223 0.46496 0.0
H193 H 0.24238 0.51525 0.54833 0.0
C194 C 0.21094 0.46462 0.61621 0.0
O195 O 0.21208 0.37718 0.53343 0.0
O196 O 0.24021 0.41659 0.50135 0.0
N197 N 0.14358 0.51057 0.47697 0.0
C198 C 0.11339 0.50137 0.46562 0.0
C199 C 0.09698 0.51627 0.425 0.0
C200 C 0.11159 0.54073 0.39686 0.0
C201 C 0.14252 0.55005 0.40958 0.0
C202 C 0.15763 0.53446 0.45066 0.0
H203 H 0.10186 0.48282 0.48734 0.0
O204 O 0.18116 0.4182 0.45238 0.0
O205 O 0.18858 0.46256 0.49527 0.0
O206 O 0.14969 0.4189 0.55101 0.0
O207 O 0.13635 0.4702 0.56195 0.0
C208 C 0.15908 0.57393 0.38269 0.0
C209 C 0.19059 0.58129 0.39645 0.0
H210 H 0.25144 0.58755 0.43194 0.0
H211 H 0.27496 0.55555 0.50301 0.0
H212 H 0.0731 0.50896 0.41546 0.0
H213 H 0.0989 0.55205 0.36539 0.0
H214 H 0.148 0.58642 0.35079 0.0
H215 H 0.20331 0.59919 0.37471 0.0
Mn216 Mn 0.60379 0.19493 0.77236 0.0
Mn217 Mn 0.52617 0.17506 0.78031 0.0
C218 C 0.57445 0.18598 0.69833 0.0
C219 C 0.64327 0.23339 0.7616 0.0
C220 C 0.5799 0.12833 0.79875 0.0
O221 O 0.5926 0.20653 0.84786 0.0
O222 O 0.5401 0.19581 0.8449 0.0
C223 C 0.4993 0.23988 0.78296 0.0
N224 N 0.50065 0.21056 0.76098 0.0
C225 C 0.46049 0.22438 0.69867 0.0
C226 C 0.45851 0.25466 0.72087 0.0
C227 C 0.47809 0.26247 0.76307 0.0
C228 C 0.4822 0.20293 0.71996 0.0
H229 H 0.51433 0.24596 0.81535 0.0
C230 C 0.56481 0.20615 0.86798 0.0
O231 O 0.64993 0.20541 0.77966 0.0
O232 O 0.61356 0.23985 0.7548 0.0
N233 N 0.50894 0.15469 0.72025 0.0
C234 C 0.51383 0.12449 0.7032 0.0
C235 C 0.49572 0.11274 0.66176 0.0
C236 C 0.47254 0.13199 0.63867 0.0
C237 C 0.46778 0.1629 0.65703 0.0
C238 C 0.48624 0.17316 0.69892 0.0
H239 H 0.53127 0.10937 0.72122 0.0
O240 O 0.60506 0.1844 0.69685 0.0
O241 O 0.56183 0.19332 0.74256 0.0
O242 O 0.60291 0.14726 0.78964 0.0
O243 O 0.55084 0.13696 0.79877 0.0
C244 C 0.44544 0.18391 0.63543 0.0
C245 C 0.44196 0.21471 0.656 0.0
H246 H 0.44216 0.27214 0.70568 0.0
H247 H 0.47681 0.28583 0.78027 0.0
H248 H 0.49948 0.08883 0.64786 0.0
H249 H 0.45841 0.12272 0.60707 0.0
H250 H 0.43102 0.17672 0.60271 0.0
H251 H 0.42495 0.23078 0.63872 0.0
Mn252 Mn 0.82813 0.6043 0.02512 0.0
Mn253 Mn 0.84867 0.52681 0.03256 0.0
C254 C 0.8359 0.57477 0.95096 0.0
C255 C 0.78952 0.64373 0.01537 0.0
C256 C 0.89543 0.58082 0.04802 0.0
O257 O 0.8177 0.59328 0.10114 0.0
O258 O 0.82931 0.54097 0.0981 0.0
C259 C 0.78401 0.49983 0.03925 0.0
N260 N 0.81283 0.50113 0.01559 0.0
C261 C 0.79776 0.46068 0.95454 0.0
C262 C 0.76798 0.45876 0.97848 0.0
C263 C 0.76104 0.47851 0.02089 0.0
C264 C 0.81959 0.48255 0.97432 0.0
H265 H 0.7786 0.51498 0.07182 0.0
C266 C 0.81899 0.56558 0.12148 0.0
O267 O 0.81772 0.65044 0.03244 0.0
O268 O 0.78293 0.61398 0.00926 0.0
N269 N 0.86779 0.5093 0.97161 0.0
C270 C 0.89771 0.51393 0.95312 0.0
C271 C 0.90868 0.49549 0.91149 0.0
C272 C 0.88897 0.47222 0.88972 0.0
C273 C 0.85838 0.46771 0.90958 0.0
C274 C 0.8489 0.48649 0.9516 0.0
H275 H 0.9132 0.53142 0.97014 0.0
O276 O 0.83742 0.60537 0.9492 0.0
O277 O 0.8294 0.56224 -0.00444 0.0
O278 O 0.87608 0.60367 0.04032 0.0
O279 O 0.88704 0.5517 0.04841 0.0
C280 C 0.83695 0.44525 0.88944 0.0
C281 C 0.80657 0.44191 0.91165 0.0
H282 H 0.75022 0.4423 0.9645 0.0
H283 H 0.73807 0.47726 0.03944 0.0
H284 H 0.93236 0.49905 0.89645 0.0
H285 H 0.89766 0.4578 0.85801 0.0
H286 H 0.84352 0.43059 0.85664 0.0
H287 H 0.79019 0.42478 0.89551 0.0
H288 H 0.44817 0.13895 0.44746 0.0
H289 H 0.48521 0.23077 0.40605 0.0
H290 H 0.48055 0.13928 0.52645 0.0
H291 H 0.51678 0.23171 0.48558 0.0
H292 H 0.57221 0.13935 0.62626 0.0
H293 H 0.5402 0.1389 0.54686 0.0
H294 H 0.50616 0.23301 0.58244 0.0
H295 H 0.53768 0.23305 0.66212 0.0
C296 C 0.46309 0.15921 0.45577 0.0
C297 C 0.46516 0.18443 0.42078 0.0
C298 C 0.48149 0.15946 0.50069 0.0
C299 C 0.50103 0.18553 0.51189 0.0
C300 C 0.5018 0.21141 0.47781 0.0
C301 C 0.484 0.21081 0.43241 0.0
C302 C 0.55782 0.15981 0.61673 0.0
C303 C 0.55635 0.18582 0.6503 0.0
C304 C 0.53958 0.15956 0.57167 0.0
C305 C 0.52068 0.18584 0.55895 0.0
C306 C 0.52059 0.2125 0.59148 0.0
C307 C 0.53833 0.21246 0.63698 0.0
H308 H 0.78797 0.48352 0.6611 0.0
H309 H 0.88122 0.44876 0.69934 0.0
H310 H 0.78728 0.51504 0.7408 0.0
H311 H 0.88111 0.48097 0.77836 0.0
H312 H 0.88171 0.57193 0.8778 0.0
H313 H 0.88141 0.53926 0.79932 0.0
H314 H 0.78729 0.50619 0.83721 0.0
H315 H 0.78822 0.53808 0.91652 0.0
C316 C 0.80827 0.48276 0.68684 0.0
C317 C 0.835 0.46467 0.67422 0.0
C318 C 0.80781 0.5005 0.73236 0.0
C319 C 0.83419 0.5004 0.76552 0.0
C320 C 0.86054 0.48144 0.75339 0.0
C321 C 0.86066 0.46313 0.70842 0.0
C322 C 0.86106 0.55766 0.86893 0.0
C323 C 0.83537 0.55652 0.90312 0.0
C324 C 0.86082 0.5391 0.82425 0.0
C325 C 0.83431 0.52033 0.81232 0.0
C326 C 0.80794 0.52058 0.84549 0.0
C327 C 0.80853 0.53854 0.89078 0.0
H328 H 0.48705 0.79104 0.16495 0.0
H329 H 0.44936 0.8824 0.12224 0.0
H330 H 0.51861 0.78987 0.08542 0.0
H331 H 0.4817 0.88182 0.04319 0.0
H332 H 0.53941 0.78768 0.90889 0.0
H333 H 0.50792 0.78798 0.98859 0.0
H334 H 0.54139 0.88247 0.02276 0.0
H335 H 0.57338 0.88176 0.94334 0.0
C336 C 0.4857 0.81085 0.13831 0.0
C337 C 0.46669 0.83718 0.14957 0.0
C338 C 0.50348 0.81011 0.09291 0.0
C339 C 0.50253 0.8358 0.05845 0.0
C340 C 0.4828 0.8618 0.06927 0.0
C341 C 0.46442 0.86218 0.11421 0.0
C342 C 0.53995 0.8084 0.93373 0.0
C343 C 0.5578 0.83507 0.92 0.0
C344 C 0.52222 0.80851 0.97923 0.0
C345 C 0.52216 0.83535 0.01137 0.0
C346 C 0.54089 0.86166 -0.00174 0.0
C347 C 0.55912 0.86127 0.95318 0.0
H348 H 0.1326 0.45103 0.38107 0.0
H349 H 0.22663 0.48504 0.41606 0.0
H350 H 0.13167 0.48415 0.3026 0.0
H351 H 0.22605 0.5176 0.33816 0.0
H352 H 0.13345 0.57479 0.19922 0.0
H353 H 0.13243 0.54338 0.27965 0.0
H354 H 0.22583 0.50719 0.24413 0.0
H355 H 0.22658 0.5382 0.16464 0.0
C356 C 0.15303 0.46543 0.37148 0.0
C357 C 0.17939 0.46636 0.40432 0.0
C358 C 0.15247 0.48439 0.32714 0.0
C359 C 0.17876 0.50337 0.31472 0.0
C360 C 0.20557 0.50304 0.34681 0.0
C361 C 0.20588 0.4846 0.39127 0.0
C362 C 0.15367 0.56022 0.20933 0.0
C363 C 0.17976 0.55798 0.17602 0.0
C364 C 0.15307 0.54225 0.25478 0.0
C365 C 0.179 0.52287 0.26763 0.0
C366 C 0.20564 0.52209 0.23519 0.0
C367 C 0.20602 0.5396 0.18976 0.0
H368 H 0.31782 0.23479 0.32018 0.0
H369 H 0.39798 0.29413 0.35751 0.0
H370 H 0.28322 0.27015 0.36996 0.0
H371 H 0.36409 0.32843 0.40847 0.0
H372 H 0.29126 0.40141 0.45657 0.0
H373 H 0.32447 0.36672 0.40513 0.0
H374 H 0.27033 0.28582 0.45714 0.0
H375 H 0.23597 0.32115 0.50745 0.0
C376 C 0.32799 0.25557 0.33835 0.0
C377 C 0.36068 0.26168 0.33442 0.0
C378 C 0.30825 0.27561 0.36765 0.0
C379 C 0.32074 0.30218 0.39384 0.0
C380 C 0.35331 0.30858 0.38852 0.0
C381 C 0.37289 0.28877 0.35914 0.0
C382 C 0.28658 0.37618 0.45776 0.0
C383 C 0.26094 0.36413 0.4865 0.0
C384 C 0.30578 0.35614 0.4281 0.0
C385 C 0.30021 0.32328 0.42652 0.0
C386 C 0.27509 0.31103 0.45655 0.0
C387 C 0.25565 0.33122 0.48612 0.0
H388 H 0.8055 0.32142 0.60235 0.0
H389 H 0.72467 0.38061 0.56973 0.0
H390 H 0.77255 0.28694 0.65524 0.0
H391 H 0.69089 0.345 0.61919 0.0
H392 H 0.64095 0.29764 0.75074 0.0
H393 H 0.67666 0.33111 0.70093 0.0
H394 H 0.73476 0.24924 0.66627 0.0
H395 H 0.70017 0.2166 0.71953 0.0
C396 C 0.78037 0.3264 0.60498 0.0
C397 C 0.76767 0.35368 0.58167 0.0
C398 C 0.7613 0.30659 0.63558 0.0
C399 C 0.72879 0.31313 0.6428 0.0
C400 C 0.71588 0.3395 0.61656 0.0
C401 C 0.73513 0.35973 0.58716 0.0
C402 C 0.66185 0.28706 0.73351 0.0
C403 C 0.6679 0.25456 0.73954 0.0
C404 C 0.68214 0.30613 0.70391 0.0
C405 C 0.70857 0.29307 0.678 0.0
C406 C 0.71507 0.26059 0.68568 0.0
C407 C 0.6952 0.24171 0.71648 0.0
H408 H 0.7252 0.64145 0.00495 0.0
H409 H 0.80625 0.70029 0.97224 0.0
H410 H 0.69172 0.67669 0.95422 0.0
H411 H 0.7736 0.73438 0.91813 0.0
H412 H 0.70144 0.80428 0.85153 0.0
H413 H 0.73583 0.77204 0.90584 0.0
H414 H 0.67805 0.68986 0.87184 0.0
H415 H 0.64255 0.72295 0.82093 0.0
C416 C 0.73578 0.66218 0.98723 0.0
C417 C 0.76829 0.66823 -0.00695 0.0
C418 C 0.7167 0.68218 0.9571 0.0
C419 C 0.72978 0.70832 0.93048 0.0
C420 C 0.76224 0.7149 0.93805 0.0
C421 C 0.78113 0.69532 0.96935 0.0
C422 C 0.69651 0.77918 0.85494 0.0
C423 C 0.66935 0.76614 0.83175 0.0
C424 C 0.71626 0.76053 0.88635 0.0
C425 C 0.70976 0.7281 0.89454 0.0
C426 C 0.6835 0.71483 0.86847 0.0
C427 C 0.66335 0.73367 0.83824 0.0
H428 H 0.29287 0.61938 0.1172 0.0
H429 H 0.2374 0.69931 0.06534 0.0
H430 H 0.32641 0.65445 0.16736 0.0
H431 H 0.27205 0.73499 0.1144 0.0
H432 H 0.31958 0.78663 0.25078 0.0
H433 H 0.28501 0.75101 0.2015 0.0
H434 H 0.36599 0.69287 0.16296 0.0
H435 H 0.39989 0.72746 0.21339 0.0
C436 C 0.28823 0.64461 0.1155 0.0
C437 C 0.26242 0.65646 0.08692 0.0
C438 C 0.30761 0.66485 0.14441 0.0
C439 C 0.30204 0.69773 0.14543 0.0
C440 C 0.2768 0.70978 0.11542 0.0
C441 C 0.2572 0.68938 0.08656 0.0
C442 C 0.3298 0.76583 0.23269 0.0
C443 C 0.36251 0.75985 0.23647 0.0
C444 C 0.31007 0.74564 0.20369 0.0
C445 C 0.3226 0.71903 0.17765 0.0
C446 C 0.35521 0.71275 0.18279 0.0
C447 C 0.37478 0.73273 0.21187 0.0
H448 H 0.38404 0.92423 0.26457 0.0
H449 H 0.47274 0.94092 0.34385 0.0
H450 H 0.37704 0.98178 0.25413 0.0
H451 H 0.46582 0.99769 0.33276 0.0
H452 H 0.4717 0.08158 0.22483 0.0
H453 H 0.46539 0.02472 0.23567 0.0
H454 H 0.37691 0.03965 0.31573 0.0
H455 H 0.38329 0.09728 0.30552 0.0
C456 C 0.40149 0.94008 0.28116 0.0
C457 C 0.42915 0.92794 0.3045 0.0
C458 C 0.39753 0.97295 0.27492 0.0
C459 C 0.42122 0.99396 0.29177 0.0
C460 C 0.44747 0.98191 0.31871 0.0
C461 C 0.45134 0.94936 0.32518 0.0
C462 C 0.45048 0.0729 0.24374 0.0
C463 C 0.42821 0.09407 0.2649 0.0
C464 C 0.44696 0.04031 0.25006 0.0
C465 C 0.42099 0.02796 0.27735 0.0
C466 C 0.39719 0.04871 0.29466 0.0
C467 C 0.40079 0.08162 0.28855 0.0
H468 H 0.94205 0.48214 0.5011 0.0
H469 H 0.92688 0.3863 0.5549 0.0
H470 H 0.99854 0.47634 0.51587 0.0
H471 H 0.98416 0.38055 0.56919 0.0
H472 H 0.09778 0.388 0.52855 0.0
H473 H 0.04011 0.38332 0.5189 0.0
H474 H 0.02788 0.47065 0.60361 0.0
H475 H 0.085 0.47535 0.61356 0.0
C476 C 0.95074 0.4596 0.51527 0.0
C477 C 0.9297 0.43483 0.52739 0.0
C478 C 0.98317 0.45639 0.52409 0.0
C479 C 0.9956 0.42828 0.54491 0.0
C480 C 0.9751 0.40257 0.55351 0.0
C481 C 0.94236 0.40585 0.54502 0.0
C482 C 0.08272 0.40556 0.54679 0.0
C483 C 0.09604 0.43227 0.57131 0.0
C484 C 0.04973 0.40296 0.54091 0.0
C485 C 0.02967 0.42705 0.55933 0.0
C486 C 0.04287 0.4521 0.58798 0.0
C487 C 0.07561 0.45464 0.59402 0.0
H488 H 0.54106 0.9367 0.73209 0.0
H489 H 0.63408 0.92554 0.79995 0.0
H490 H 0.54514 0.99377 0.74202 0.0
H491 H 0.63806 0.98325 0.80976 0.0
H492 H 0.63344 0.09511 0.77001 0.0
H493 H 0.63805 0.03745 0.75977 0.0
H494 H 0.54454 0.02593 0.82485 0.0
H495 H 0.53985 0.08291 0.83521 0.0
C496 C 0.56267 0.94641 0.74832 0.0
C497 C 0.58708 0.92639 0.76579 0.0
C498 C 0.56488 0.97916 0.75434 0.0
C499 C 0.59158 0.9929 0.77786 0.0
C500 C 0.61712 0.97326 0.79179 0.0
C501 C 0.61487 0.94024 0.78591 0.0
C502 C 0.61421 0.0802 0.78333 0.0
C503 C 0.58611 0.09374 0.80287 0.0
C504 C 0.61682 0.04721 0.77722 0.0
C505 C 0.59133 0.02731 0.79029 0.0
C506 C 0.56426 0.04074 0.81316 0.0
C507 C 0.56169 0.07345 0.81944 0.0
H508 H 0.94234 0.54026 0.07741 0.0
H509 H 0.92729 0.63554 0.02086 0.0
H510 H 0.99886 0.54587 0.0628 0.0
H511 H 0.98461 0.64111 0.00672 0.0
H512 H 0.0853 0.54559 0.96534 0.0
H513 H 0.02816 0.55072 0.97466 0.0
H514 H 0.0406 0.63862 0.05766 0.0
H515 H 0.09829 0.63351 0.04859 0.0
C516 C 0.95107 0.56265 0.06267 0.0
C517 C 0.93006 0.5873 0.04973 0.0
C518 C 0.98351 0.56575 0.05395 0.0
C519 C 0.99598 0.59363 0.0324 0.0
C520 C 0.97552 0.61927 0.02298 0.0
C521 C 0.94276 0.61609 0.03138 0.0
C522 C 0.07594 0.56652 0.9843 0.0
C523 C 0.09642 0.58894 0.00673 0.0
C524 C 0.0432 0.56931 0.98999 0.0
C525 C 0.03006 0.59464 0.01804 0.0
C526 C 0.05018 0.61877 0.03611 0.0
C527 C 0.08318 0.61593 0.03055 0.0
H528 H 0.57415 0.16993 0.95243 0.0
H529 H 0.53904 0.26097 0.90322 0.0
H530 H 0.54417 0.17472 0.0333 0.0
H531 H 0.5093 0.2661 0.98465 0.0
H532 H 0.485 0.2599 0.17057 0.0
H533 H 0.5155 0.26566 0.08993 0.0
H534 H 0.48128 0.17457 0.03853 0.0
H535 H 0.45055 0.1692 0.11849 0.0
C536 C 0.56142 0.19173 0.96024 0.0
C537 C 0.55946 0.21539 0.92222 0.0
C538 C 0.54372 0.19419 0.00594 0.0
C539 C 0.52392 0.22049 0.0146 0.0
C540 C 0.5243 0.24556 0.97882 0.0
C541 C 0.54167 0.24285 0.93265 0.0
C542 C 0.48271 0.242 0.14067 0.0
C543 C 0.46479 0.21449 0.14997 0.0
C544 C 0.50054 0.24504 0.09501 0.0
C545 C 0.50126 0.22023 0.05868 0.0
C546 C 0.48149 0.19383 0.06634 0.0
C547 C 0.46336 0.19104 0.1115 0.0
H548 H 0.76377 0.54158 0.15796 0.0
H549 H 0.85673 0.57263 0.20479 0.0
H550 H 0.7589 0.51066 0.23809 0.0
H551 H 0.85211 0.54172 0.28462 0.0
H552 H 0.85627 0.44996 0.3722 0.0
H553 H 0.85184 0.48103 0.29248 0.0
H554 H 0.759 0.513 0.33947 0.0
H555 H 0.76368 0.48191 0.41947 0.0
C556 C 0.78243 0.54309 0.18672 0.0
C557 C 0.81032 0.56007 0.17589 0.0
C558 C 0.77987 0.525 0.23214 0.0
C559 C 0.80546 0.52314 0.26687 0.0
C560 C 0.83225 0.54223 0.25799 0.0
C561 C 0.83463 0.56054 0.21296 0.0
C562 C 0.83428 0.4623 0.36416 0.0
C563 C 0.81003 0.46297 0.4013 0.0
C564 C 0.83202 0.4807 0.3192 0.0
C565 C 0.80539 0.50006 0.31047 0.0
C566 C 0.77984 0.49843 0.34531 0.0
C567 C 0.7823 0.48026 0.39065 0.0
H568 H 0.53773 0.7598 0.66826 0.0
H569 H 0.57833 0.84817 0.6174 0.0
H570 H 0.50832 0.75555 0.58646 0.0
H571 H 0.5487 0.84425 0.53605 0.0
H572 H 0.4551 0.85452 0.45112 0.0
H573 H 0.48597 0.84813 0.53068 0.0
H574 H 0.51448 0.75468 0.48125 0.0
H575 H 0.48382 0.76144 0.40089 0.0
C576 C 0.54159 0.77745 0.63842 0.0
C577 C 0.56079 0.80399 0.64855 0.0
C578 C 0.52444 0.77524 0.59199 0.0
C579 C 0.52573 0.79992 0.55558 0.0
C580 C 0.54697 0.82511 0.5639 0.0
C581 C 0.56445 0.82705 0.6099 0.0
C582 C 0.46669 0.83204 0.45846 0.0
C583 C 0.46641 0.80814 0.42066 0.0
C584 C 0.48492 0.82863 0.50337 0.0
C585 C 0.50313 0.80118 0.51146 0.0
C586 C 0.50074 0.7761 0.47579 0.0
C587 C 0.48279 0.77974 0.43035 0.0
H588 H 0.24224 0.49926 0.94421 0.0
H589 H 0.20977 0.58518 0.87063 0.0
H590 H 0.25256 0.47564 0.86004 0.0
H591 H 0.21973 0.56125 0.78557 0.0
H592 H 0.24711 0.51581 0.63776 0.0
H593 H 0.25709 0.5386 0.7227 0.0
H594 H 0.21539 0.45605 0.79443 0.0
H595 H 0.20574 0.433 0.70867 0.0
C596 C 0.23812 0.51348 0.90996 0.0
C597 C 0.225 0.54407 0.91401 0.0
C598 C 0.24378 0.49975 0.86167 0.0
C599 C 0.2364 0.51624 0.81611 0.0
C600 C 0.22581 0.5479 0.82003 0.0
C601 C 0.22021 0.56176 0.86868 0.0
C602 C 0.24102 0.50201 0.67165 0.0
C603 C 0.22552 0.47263 0.66659 0.0
C604 C 0.24646 0.51528 0.72036 0.0
C605 C 0.23647 0.49952 0.76528 0.0
C606 C 0.2235 0.4688 0.7605 0.0
C607 C 0.21811 0.45543 0.71145 0.0
loop_
_geom_bond_atom_site_label_1
_geom_bond_atom_site_label_2
_geom_bond_distance
_geom_bond_site_symmetry_2
_ccdc_geom_bond_type
Mn0 O5 2.095 . S
Mn0 O15 2.162 . S
Mn0 O16 2.297 . S
Mn0 O24 2.385 . S
Mn0 O25 2.209 . S
Mn0 O26 2.094 . S
Mn1 O6 2.121 . S
Mn1 N8 2.257 . S
Mn1 N17 2.282 . S
Mn1 O25 2.215 . S
Mn1 O27 2.117 . S
C2 O24 1.234 . S
C2 O25 1.283 . S
C3 O15 1.281 . S
C3 O16 1.236 . S
C4 O26 1.240 . S
C4 O27 1.264 . S
O5 Mn0 2.095 . S
O5 C14 1.250 . S
O6 Mn1 2.121 . S
O6 C14 1.258 . S
C7 N8 1.326 . S
C7 C11 1.460 . S
C7 H13 0.929 . S
N8 Mn1 2.257 . S
N8 C7 1.326 . S
N8 C12 1.362 . S
C9 C10 1.258 . S
C9 C12 1.431 . S
C9 C29 1.449 . S
C10 C9 1.258 . S
C10 C11 1.477 . S
C10 H30 0.931 . S
C11 C7 1.460 . S
C11 C10 1.477 . S
C11 H31 0.930 . S
C12 N8 1.362 . S
C12 C9 1.431 . S
C12 C22 1.476 . S
H13 C7 0.929 . S
C14 O5 1.250 . S
C14 O6 1.258 . S
O15 Mn0 2.162 . S
O15 C3 1.281 . S
O16 Mn0 2.297 . S
O16 C3 1.236 . S
N17 Mn1 2.282 . S
N17 C18 1.328 . S
N17 C22 1.318 . S
C18 N17 1.328 . S
C18 C19 1.457 . S
C18 H23 0.929 . S
C19 C18 1.457 . S
C19 C20 1.291 . S
C19 H32 0.931 . S
C20 C19 1.291 . S
C20 C21 1.373 . S
C20 H33 0.929 . S
C21 C20 1.373 . S
C21 C22 1.396 . S
C21 C28 1.403 . S
C22 C12 1.476 . S
C22 N17 1.318 . S
C22 C21 1.396 . S
H23 C18 0.929 . S
O24 Mn0 2.385 . S
O24 C2 1.234 . S
O25 Mn0 2.209 . S
O25 Mn1 2.215 . S
O25 C2 1.283 . S
O26 Mn0 2.094 . S
O26 C4 1.240 . S
O27 Mn1 2.117 . S
O27 C4 1.264 . S
C28 C21 1.403 . S
C28 C29 1.399 . S
C28 H34 0.929 . S
C29 C9 1.449 . S
C29 C28 1.399 . S
C29 H35 0.930 . S
H30 C10 0.931 . S
H31 C11 0.930 . S
H32 C19 0.931 . S
H33 C20 0.929 . S
H34 C28 0.929 . S
H35 C29 0.930 . S
Mn36 O41 2.095 . S
Mn36 O51 2.162 . S
Mn36 O52 2.297 . S
Mn36 O60 2.385 . S
Mn36 O61 2.209 . S
Mn36 O62 2.094 . S
Mn37 O42 2.121 . S
Mn37 N44 2.257 . S
Mn37 N53 2.282 . S
Mn37 O61 2.215 . S
Mn37 O63 2.117 . S
C38 O60 1.234 . S
C38 O61 1.283 . S
C39 O51 1.281 . S
C39 O52 1.236 . S
C40 O62 1.240 . S
C40 O63 1.264 . S
O41 Mn36 2.095 . S
O41 C50 1.250 . S
O42 Mn37 2.121 . S
O42 C50 1.258 . S
C43 N44 1.326 . S
C43 C47 1.460 . S
C43 H49 0.929 . S
N44 Mn37 2.257 . S
N44 C43 1.326 . S
N44 C48 1.362 . S
C45 C46 1.258 . S
C45 C48 1.431 . S
C45 C65 1.449 . S
C46 C45 1.258 . S
C46 C47 1.477 . S
C46 H66 0.931 . S
C47 C43 1.460 . S
C47 C46 1.477 . S
C47 H67 0.930 . S
C48 N44 1.362 . S
C48 C45 1.431 . S
C48 C58 1.476 . S
H49 C43 0.929 . S
C50 O41 1.250 . S
C50 O42 1.258 . S
O51 Mn36 2.162 . S
O51 C39 1.281 . S
O52 Mn36 2.297 . S
O52 C39 1.236 . S
N53 Mn37 2.282 . S
N53 C54 1.328 . S
N53 C58 1.318 . S
C54 N53 1.328 . S
C54 C55 1.457 . S
C54 H59 0.929 . S
C55 C54 1.457 . S
C55 C56 1.291 . S
C55 H68 0.931 . S
C56 C55 1.291 . S
C56 C57 1.373 . S
C56 H69 0.929 . S
C57 C56 1.373 . S
C57 C58 1.396 . S
C57 C64 1.403 . S
C58 C48 1.476 . S
C58 N53 1.318 . S
C58 C57 1.396 . S
H59 C54 0.929 . S
O60 Mn36 2.385 . S
O60 C38 1.234 . S
O61 Mn36 2.209 . S
O61 Mn37 2.215 . S
O61 C38 1.283 . S
O62 Mn36 2.094 . S
O62 C40 1.240 . S
O63 Mn37 2.117 . S
O63 C40 1.264 . S
C64 C57 1.403 . S
C64 C65 1.399 . S
C64 H70 0.929 . S
C65 C45 1.449 . S
C65 C64 1.399 . S
C65 H71 0.930 . S
H66 C46 0.931 . S
H67 C47 0.930 . S
H68 C55 0.931 . S
H69 C56 0.929 . S
H70 C64 0.929 . S
H71 C65 0.930 . S
Mn72 O77 2.095 . S
Mn72 O87 2.162 . S
Mn72 O88 2.297 . S
Mn72 O96 2.385 . S
Mn72 O97 2.209 . S
Mn72 O98 2.094 . S
Mn73 O78 2.121 . S
Mn73 N80 2.257 . S
Mn73 N89 2.282 . S
Mn73 O97 2.215 . S
Mn73 O99 2.117 . S
C74 O96 1.234 . S
C74 O97 1.283 . S
C75 O87 1.281 . S
C75 O88 1.236 . S
C76 O98 1.240 . S
C76 O99 1.264 . S
O77 Mn72 2.095 . S
O77 C86 1.250 . S
O78 Mn73 2.121 . S
O78 C86 1.258 . S
C79 N80 1.326 . S
C79 C83 1.460 . S
C79 H85 0.929 . S
N80 Mn73 2.257 . S
N80 C79 1.326 . S
N80 C84 1.362 . S
C81 C82 1.258 . S
C81 C84 1.431 . S
C81 C101 1.449 . S
C82 C81 1.258 . S
C82 C83 1.477 . S
C82 H102 0.931 . S
C83 C79 1.460 . S
C83 C82 1.477 . S
C83 H103 0.930 . S
C84 N80 1.362 . S
C84 C81 1.431 . S
C84 C94 1.476 . S
H85 C79 0.929 . S
C86 O77 1.250 . S
C86 O78 1.258 . S
O87 Mn72 2.162 . S
O87 C75 1.281 . S
O88 Mn72 2.297 . S
O88 C75 1.236 . S
N89 Mn73 2.282 . S
N89 C90 1.328 . S
N89 C94 1.318 . S
C90 N89 1.328 . S
C90 C91 1.457 . S
C90 H95 0.929 . S
C91 C90 1.457 . S
C91 C92 1.291 . S
C91 H104 0.931 . S
C92 C91 1.291 . S
C92 C93 1.373 . S
C92 H105 0.929 1_556 S
C93 C92 1.373 . S
C93 C94 1.396 . S
C93 C100 1.403 . S
C94 C84 1.476 . S
C94 N89 1.318 . S
C94 C93 1.396 . S
H95 C90 0.929 . S
O96 Mn72 2.385 . S
O96 C74 1.234 . S
O97 Mn72 2.209 . S
O97 Mn73 2.215 . S
O97 C74 1.283 . S
O98 Mn72 2.094 . S
O98 C76 1.240 . S
O99 Mn73 2.117 . S
O99 C76 1.264 . S
C100 C93 1.403 . S
C100 C101 1.399 . S
C100 H106 0.929 . S
C101 C81 1.449 . S
C101 C100 1.399 . S
C101 H107 0.930 . S
H102 C82 0.931 . S
H103 C83 0.930 . S
H104 C91 0.931 . S
H105 C92 0.929 1_554 S
H106 C100 0.929 . S
H107 C101 0.930 . S
Mn108 O113 2.095 1_554 S
Mn108 O123 2.162 . S
Mn108 O124 2.297 . S
Mn108 O132 2.385 . S
Mn108 O133 2.209 . S
Mn108 O134 2.094 . S
Mn109 O114 2.121 1_554 S
Mn109 N116 2.257 . S
Mn109 N125 2.282 . S
Mn109 O133 2.215 . S
Mn109 O135 2.117 . S
C110 O132 1.234 . S
C110 O133 1.283 . S
C111 O123 1.281 . S
C111 O124 1.236 . S
C112 O134 1.240 . S
C112 O135 1.264 . S
O113 Mn108 2.095 1_556 S
O113 C122 1.250 . S
O114 Mn109 2.121 1_556 S
O114 C122 1.258 . S
C115 N116 1.326 . S
C115 C119 1.460 . S
C115 H121 0.929 . S
N116 Mn109 2.257 . S
N116 C115 1.326 . S
N116 C120 1.362 . S
C117 C118 1.258 . S
C117 C120 1.431 . S
C117 C137 1.449 . S
C118 C117 1.258 . S
C118 C119 1.477 . S
C118 H138 0.931 . S
C119 C115 1.460 . S
C119 C118 1.477 . S
C119 H139 0.930 . S
C120 N116 1.362 . S
C120 C117 1.431 . S
C120 C130 1.476 . S
H121 C115 0.929 . S
C122 O113 1.250 . S
C122 O114 1.258 . S
O123 Mn108 2.162 . S
O123 C111 1.281 . S
O124 Mn108 2.297 . S
O124 C111 1.236 . S
N125 Mn109 2.282 . S
N125 C126 1.328 . S
N125 C130 1.318 . S
C126 N125 1.328 . S
C126 C127 1.457 . S
C126 H131 0.929 . S
C127 C126 1.457 . S
C127 C128 1.291 . S
C127 H140 0.931 . S
C128 C127 1.291 . S
C128 C129 1.373 . S
C128 H141 0.929 . S
C129 C128 1.373 . S
C129 C130 1.396 . S
C129 C136 1.403 . S
C130 C120 1.476 . S
C130 N125 1.318 . S
C130 C129 1.396 . S
H131 C126 0.929 . S
O132 Mn108 2.385 . S
O132 C110 1.234 . S
O133 Mn108 2.209 . S
O133 Mn109 2.215 . S
O133 C110 1.283 . S
O134 Mn108 2.094 . S
O134 C112 1.240 . S
O135 Mn109 2.117 . S
O135 C112 1.264 . S
C136 C129 1.403 . S
C136 C137 1.399 . S
C136 H142 0.929 . S
C137 C117 1.449 . S
C137 C136 1.399 . S
C137 H143 0.930 . S
H138 C118 0.931 . S
H139 C119 0.930 . S
H140 C127 0.931 . S
H141 C128 0.929 . S
H142 C136 0.929 . S
H143 C137 0.930 . S
Mn144 O149 2.095 . S
Mn144 O159 2.162 . S
Mn144 O160 2.297 . S
Mn144 O168 2.385 . S
Mn144 O169 2.209 . S
Mn144 O170 2.094 . S
Mn145 O150 2.121 . S
Mn145 N152 2.257 . S
Mn145 N161 2.282 . S
Mn145 O169 2.215 . S
Mn145 O171 2.117 . S
C146 O168 1.234 . S
C146 O169 1.283 . S
C147 O159 1.281 . S
C147 O160 1.236 . S
C148 O170 1.240 . S
C148 O171 1.264 . S
O149 Mn144 2.095 . S
O149 C158 1.250 . S
O150 Mn145 2.121 . S
O150 C158 1.258 . S
C151 N152 1.326 . S
C151 C155 1.460 . S
C151 H157 0.929 . S
N152 Mn145 2.257 . S
N152 C151 1.326 . S
N152 C156 1.362 . S
C153 C154 1.258 . S
C153 C156 1.431 . S
C153 C173 1.449 . S
C154 C153 1.258 . S
C154 C155 1.477 . S
C154 H174 0.931 . S
C155 C151 1.460 . S
C155 C154 1.477 . S
C155 H175 0.930 . S
C156 N152 1.362 . S
C156 C153 1.431 . S
C156 C166 1.476 . S
H157 C151 0.929 . S
C158 O149 1.250 . S
C158 O150 1.258 . S
O159 Mn144 2.162 . S
O159 C147 1.281 . S
O160 Mn144 2.297 . S
O160 C147 1.236 . S
N161 Mn145 2.282 . S
N161 C162 1.328 . S
N161 C166 1.318 . S
C162 N161 1.328 . S
C162 C163 1.457 . S
C162 H167 0.929 . S
C163 C162 1.457 . S
C163 C164 1.291 . S
C163 H176 0.931 . S
C164 C163 1.291 . S
C164 C165 1.373 . S
C164 H177 0.929 . S
C165 C164 1.373 . S
C165 C166 1.396 . S
C165 C172 1.403 . S
C166 C156 1.476 . S
C166 N161 1.318 . S
C166 C165 1.396 . S
H167 C162 0.929 . S
O168 Mn144 2.385 . S
O168 C146 1.234 . S
O169 Mn144 2.209 . S
O169 Mn145 2.215 . S
O169 C146 1.283 . S
O170 Mn144 2.094 . S
O170 C148 1.240 . S
O171 Mn145 2.117 . S
O171 C148 1.264 . S
C172 C165 1.403 . S
C172 C173 1.399 . S
C172 H178 0.929 . S
C173 C153 1.449 . S
C173 C172 1.399 . S
C173 H179 0.930 . S
H174 C154 0.931 . S
H175 C155 0.930 . S
H176 C163 0.931 . S
H177 C164 0.929 . S
H178 C172 0.929 . S
H179 C173 0.930 . S
Mn180 O185 2.095 . S
Mn180 O195 2.162 . S
Mn180 O196 2.297 . S
Mn180 O204 2.385 . S
Mn180 O205 2.209 . S
Mn180 O206 2.094 . S
Mn181 O186 2.121 . S
Mn181 N188 2.257 . S
Mn181 N197 2.282 . S
Mn181 O205 2.215 . S
Mn181 O207 2.117 . S
C182 O204 1.234 . S
C182 O205 1.283 . S
C183 O195 1.281 . S
C183 O196 1.236 . S
C184 O206 1.240 . S
C184 O207 1.264 . S
O185 Mn180 2.095 . S
O185 C194 1.250 . S
O186 Mn181 2.121 . S
O186 C194 1.258 . S
C187 N188 1.326 . S
C187 C191 1.460 . S
C187 H193 0.929 . S
N188 Mn181 2.257 . S
N188 C187 1.326 . S
N188 C192 1.362 . S
C189 C190 1.258 . S
C189 C192 1.431 . S
C189 C209 1.449 . S
C190 C189 1.258 . S
C190 C191 1.477 . S
C190 H210 0.931 . S
C191 C187 1.460 . S
C191 C190 1.477 . S
C191 H211 0.930 . S
C192 N188 1.362 . S
C192 C189 1.431 . S
C192 C202 1.476 . S
H193 C187 0.929 . S
C194 O185 1.250 . S
C194 O186 1.258 . S
O195 Mn180 2.162 . S
O195 C183 1.281 . S
O196 Mn180 2.297 . S
O196 C183 1.236 . S
N197 Mn181 2.282 . S
N197 C198 1.328 . S
N197 C202 1.318 . S
C198 N197 1.328 . S
C198 C199 1.457 . S
C198 H203 0.929 . S
C199 C198 1.457 . S
C199 C200 1.291 . S
C199 H212 0.931 . S
C200 C199 1.291 . S
C200 C201 1.373 . S
C200 H213 0.929 . S
C201 C200 1.373 . S
C201 C202 1.396 . S
C201 C208 1.403 . S
C202 C192 1.476 . S
C202 N197 1.318 . S
C202 C201 1.396 . S
H203 C198 0.929 . S
O204 Mn180 2.385 . S
O204 C182 1.234 . S
O205 Mn180 2.209 . S
O205 Mn181 2.215 . S
O205 C182 1.283 . S
O206 Mn180 2.094 . S
O206 C184 1.240 . S
O207 Mn181 2.117 . S
O207 C184 1.264 . S
C208 C201 1.403 . S
C208 C209 1.399 . S
C208 H214 0.929 . S
C209 C189 1.449 . S
C209 C208 1.399 . S
C209 H215 0.930 . S
H210 C190 0.931 . S
H211 C191 0.930 . S
H212 C199 0.931 . S
H213 C200 0.929 . S
H214 C208 0.929 . S
H215 C209 0.930 . S
Mn216 O221 2.095 . S
Mn216 O231 2.162 . S
Mn216 O232 2.297 . S
Mn216 O240 2.385 . S
Mn216 O241 2.209 . S
Mn216 O242 2.094 . S
Mn217 O222 2.121 . S
Mn217 N224 2.257 . S
Mn217 N233 2.282 . S
Mn217 O241 2.215 . S
Mn217 O243 2.117 . S
C218 O240 1.234 . S
C218 O241 1.283 . S
C219 O231 1.281 . S
C219 O232 1.236 . S
C220 O242 1.240 . S
C220 O243 1.264 . S
O221 Mn216 2.095 . S
O221 C230 1.250 . S
O222 Mn217 2.121 . S
O222 C230 1.258 . S
C223 N224 1.326 . S
C223 C227 1.460 . S
C223 H229 0.929 . S
N224 Mn217 2.257 . S
N224 C223 1.326 . S
N224 C228 1.362 . S
C225 C226 1.258 . S
C225 C228 1.431 . S
C225 C245 1.449 . S
C226 C225 1.258 . S
C226 C227 1.477 . S
C226 H246 0.931 . S
C227 C223 1.460 . S
C227 C226 1.477 . S
C227 H247 0.930 . S
C228 N224 1.362 . S
C228 C225 1.431 . S
C228 C238 1.476 . S
H229 C223 0.929 . S
C230 O221 1.250 . S
C230 O222 1.258 . S
O231 Mn216 2.162 . S
O231 C219 1.281 . S
O232 Mn216 2.297 . S
O232 C219 1.236 . S
N233 Mn217 2.282 . S
N233 C234 1.328 . S
N233 C238 1.318 . S
C234 N233 1.328 . S
C234 C235 1.457 . S
C234 H239 0.929 . S
C235 C234 1.457 . S
C235 C236 1.291 . S
C235 H248 0.931 . S
C236 C235 1.291 . S
C236 C237 1.373 . S
C236 H249 0.929 . S
C237 C236 1.373 . S
C237 C238 1.396 . S
C237 C244 1.403 . S
C238 C228 1.476 . S
C238 N233 1.318 . S
C238 C237 1.396 . S
H239 C234 0.929 . S
O240 Mn216 2.385 . S
O240 C218 1.234 . S
O241 Mn216 2.209 . S
O241 Mn217 2.215 . S
O241 C218 1.283 . S
O242 Mn216 2.094 . S
O242 C220 1.240 . S
O243 Mn217 2.117 . S
O243 C220 1.264 . S
C244 C237 1.403 . S
C244 C245 1.399 . S
C244 H250 0.929 . S
C245 C225 1.449 . S
C245 C244 1.399 . S
C245 H251 0.930 . S
H246 C226 0.931 . S
H247 C227 0.930 . S
H248 C235 0.931 . S
H249 C236 0.929 . S
H250 C244 0.929 . S
H251 C245 0.930 . S
Mn252 O257 2.095 . S
Mn252 O267 2.162 . S
Mn252 O268 2.297 . S
Mn252 O276 2.385 1_554 S
Mn252 O277 2.209 1_554 S
Mn252 O278 2.094 . S
Mn253 O258 2.121 . S
Mn253 N260 2.257 . S
Mn253 N269 2.282 1_554 S
Mn253 O277 2.215 1_554 S
Mn253 O279 2.117 . S
C254 O276 1.234 . S
C254 O277 1.283 . S
C255 O267 1.281 . S
C255 O268 1.236 . S
C256 O278 1.240 . S
C256 O279 1.264 . S
O257 Mn252 2.095 . S
O257 C266 1.250 . S
O258 Mn253 2.121 . S
O258 C266 1.258 . S
C259 N260 1.326 . S
C259 C263 1.460 . S
C259 H265 0.929 . S
N260 Mn253 2.257 . S
N260 C259 1.326 . S
N260 C264 1.362 1_554 S
C261 C262 1.258 . S
C261 C264 1.431 . S
C261 C281 1.449 . S
C262 C261 1.258 . S
C262 C263 1.477 1_556 S
C262 H282 0.931 . S
C263 C259 1.460 . S
C263 C262 1.477 1_554 S
C263 H283 0.930 . S
C264 N260 1.362 1_556 S
C264 C261 1.431 . S
C264 C274 1.476 . S
H265 C259 0.929 . S
C266 O257 1.250 . S
C266 O258 1.258 . S
O267 Mn252 2.162 . S
O267 C255 1.281 . S
O268 Mn252 2.297 . S
O268 C255 1.236 . S
N269 Mn253 2.282 1_556 S
N269 C270 1.328 . S
N269 C274 1.318 . S
C270 N269 1.328 . S
C270 C271 1.457 . S
C270 H275 0.929 . S
C271 C270 1.457 . S
C271 C272 1.291 . S
C271 H284 0.931 . S
C272 C271 1.291 . S
C272 C273 1.373 . S
C272 H285 0.929 . S
C273 C272 1.373 . S
C273 C274 1.396 . S
C273 C280 1.403 . S
C274 C264 1.476 . S
C274 N269 1.318 . S
C274 C273 1.396 . S
H275 C270 0.929 . S
O276 Mn252 2.385 1_556 S
O276 C254 1.234 . S
O277 Mn252 2.209 1_556 S
O277 Mn253 2.215 1_556 S
O277 C254 1.283 . S
O278 Mn252 2.094 . S
O278 C256 1.240 . S
O279 Mn253 2.117 . S
O279 C256 1.264 . S
C280 C273 1.403 . S
C280 C281 1.399 . S
C280 H286 0.929 . S
C281 C261 1.449 . S
C281 C280 1.399 . S
C281 H287 0.930 . S
H282 C262 0.931 . S
H283 C263 0.930 . S
H284 C271 0.931 . S
H285 C272 0.929 . S
H286 C280 0.929 . S
H287 C281 0.930 . S
H288 C296 0.950 . S
H289 C301 0.950 . S
H290 C298 0.950 . S
H291 C300 0.950 . S
H292 C302 0.950 . S
H293 C304 0.950 . S
H294 C306 0.950 . S
H295 C307 0.950 . S
C296 H288 0.950 . S
C296 C297 1.386 . S
C296 C298 1.391 . S
C297 C296 1.386 . S
C297 C301 1.393 . S
C298 H290 0.950 . S
C298 C296 1.391 . S
C298 C299 1.400 . S
C299 C298 1.400 . S
C299 C300 1.398 . S
C299 C305 1.491 . S
C300 H291 0.950 . S
C300 C299 1.398 . S
C300 C301 1.391 . S
C301 H289 0.950 . S
C301 C297 1.393 . S
C301 C300 1.391 . S
C302 H292 0.950 . S
C302 C303 1.386 . S
C302 C304 1.391 . S
C303 C302 1.386 . S
C303 C307 1.393 . S
C304 H293 0.950 . S
C304 C302 1.391 . S
C304 C305 1.400 . S
C305 C299 1.491 . S
C305 C304 1.400 . S
C305 C306 1.398 . S
C306 H294 0.950 . S
C306 C305 1.398 . S
C306 C307 1.391 . S
C307 H295 0.950 . S
C307 C303 1.393 . S
C307 C306 1.391 . S
H308 C316 0.950 . S
H309 C321 0.950 . S
H310 C318 0.950 . S
H311 C320 0.950 . S
H312 C322 0.950 . S
H313 C324 0.950 . S
H314 C326 0.950 . S
H315 C327 0.950 . S
C316 H308 0.950 . S
C316 C317 1.386 . S
C316 C318 1.391 . S
C317 C316 1.386 . S
C317 C321 1.393 . S
C318 H310 0.950 . S
C318 C316 1.391 . S
C318 C319 1.400 . S
C319 C318 1.400 . S
C319 C320 1.398 . S
C319 C325 1.491 . S
C320 H311 0.950 . S
C320 C319 1.398 . S
C320 C321 1.391 . S
C321 H309 0.950 . S
C321 C317 1.393 . S
C321 C320 1.391 . S
C322 H312 0.950 . S
C322 C323 1.386 . S
C322 C324 1.391 . S
C323 C322 1.386 . S
C323 C327 1.393 . S
C324 H313 0.950 . S
C324 C322 1.391 . S
C324 C325 1.400 . S
C325 C319 1.491 . S
C325 C324 1.400 . S
C325 C326 1.398 . S
C326 H314 0.950 . S
C326 C325 1.398 . S
C326 C327 1.391 . S
C327 H315 0.950 . S
C327 C323 1.393 . S
C327 C326 1.391 . S
H328 C336 0.950 . S
H329 C341 0.950 . S
H330 C338 0.950 . S
H331 C340 0.950 . S
H332 C342 0.950 . S
H333 C344 0.950 . S
H334 C346 0.950 . S
H335 C347 0.950 . S
C336 H328 0.950 . S
C336 C337 1.386 . S
C336 C338 1.391 . S
C337 C336 1.386 . S
C337 C341 1.393 . S
C338 H330 0.950 . S
C338 C336 1.391 . S
C338 C339 1.400 . S
C339 C338 1.400 . S
C339 C340 1.398 . S
C339 C345 1.491 . S
C340 H331 0.950 . S
C340 C339 1.398 . S
C340 C341 1.391 . S
C341 H329 0.950 . S
C341 C337 1.393 . S
C341 C340 1.391 . S
C342 H332 0.950 . S
C342 C343 1.386 . S
C342 C344 1.391 . S
C343 C342 1.386 . S
C343 C347 1.393 . S
C344 H333 0.950 . S
C344 C342 1.391 . S
C344 C345 1.400 1_556 S
C345 C339 1.491 . S
C345 C344 1.400 1_554 S
C345 C346 1.398 . S
C346 H334 0.950 . S
C346 C345 1.398 . S
C346 C347 1.391 1_554 S
C347 H335 0.950 . S
C347 C343 1.393 . S
C347 C346 1.391 1_556 S
H348 C356 0.950 . S
H349 C361 0.950 . S
H350 C358 0.950 . S
H351 C360 0.950 . S
H352 C362 0.950 . S
H353 C364 0.950 . S
H354 C366 0.950 . S
H355 C367 0.950 . S
C356 H348 0.950 . S
C356 C357 1.386 . S
C356 C358 1.391 . S
C357 C356 1.386 . S
C357 C361 1.393 . S
C358 H350 0.950 . S
C358 C356 1.391 . S
C358 C359 1.400 . S
C359 C358 1.400 . S
C359 C360 1.398 . S
C359 C365 1.491 . S
C360 H351 0.950 . S
C360 C359 1.398 . S
C360 C361 1.391 . S
C361 H349 0.950 . S
C361 C357 1.393 . S
C361 C360 1.391 . S
C362 H352 0.950 . S
C362 C363 1.386 . S
C362 C364 1.391 . S
C363 C362 1.386 . S
C363 C367 1.393 . S
C364 H353 0.950 . S
C364 C362 1.391 . S
C364 C365 1.400 . S
C365 C359 1.491 . S
C365 C364 1.400 . S
C365 C366 1.398 . S
C366 H354 0.950 . S
C366 C365 1.398 . S
C366 C367 1.391 . S
C367 H355 0.950 . S
C367 C363 1.393 . S
C367 C366 1.391 . S
H368 C376 0.950 . S
H369 C381 0.950 . S
H370 C378 0.950 . S
H371 C380 0.950 . S
H372 C382 0.950 . S
H373 C384 0.950 . S
H374 C386 0.950 . S
H375 C387 0.950 . S
C376 H368 0.950 . S
C376 C377 1.386 . S
C376 C378 1.391 . S
C377 C376 1.386 . S
C377 C381 1.393 . S
C378 H370 0.950 . S
C378 C376 1.391 . S
C378 C379 1.400 . S
C379 C378 1.400 . S
C379 C380 1.398 . S
C379 C385 1.491 . S
C380 H371 0.950 . S
C380 C379 1.398 . S
C380 C381 1.391 . S
C381 H369 0.950 . S
C381 C377 1.393 . S
C381 C380 1.391 . S
C382 H372 0.950 . S
C382 C383 1.386 . S
C382 C384 1.391 . S
C383 C382 1.386 . S
C383 C387 1.393 . S
C384 H373 0.950 . S
C384 C382 1.391 . S
C384 C385 1.400 . S
C385 C379 1.491 . S
C385 C384 1.400 . S
C385 C386 1.398 . S
C386 H374 0.950 . S
C386 C385 1.398 . S
C386 C387 1.391 . S
C387 H375 0.950 . S
C387 C383 1.393 . S
C387 C386 1.391 . S
H388 C396 0.950 . S
H389 C401 0.950 . S
H390 C398 0.950 . S
H391 C400 0.950 . S
H392 C402 0.950 . S
H393 C404 0.950 . S
H394 C406 0.950 . S
H395 C407 0.950 . S
C396 H388 0.950 . S
C396 C397 1.386 . S
C396 C398 1.391 . S
C397 C396 1.386 . S
C397 C401 1.393 . S
C398 H390 0.950 . S
C398 C396 1.391 . S
C398 C399 1.400 . S
C399 C398 1.400 . S
C399 C400 1.398 . S
C399 C405 1.491 . S
C400 H391 0.950 . S
C400 C399 1.398 . S
C400 C401 1.391 . S
C401 H389 0.950 . S
C401 C397 1.393 . S
C401 C400 1.391 . S
C402 H392 0.950 . S
C402 C403 1.386 . S
C402 C404 1.391 . S
C403 C402 1.386 . S
C403 C407 1.393 . S
C404 H393 0.950 . S
C404 C402 1.391 . S
C404 C405 1.400 . S
C405 C399 1.491 . S
C405 C404 1.400 . S
C405 C406 1.398 . S
C406 H394 0.950 . S
C406 C405 1.398 . S
C406 C407 1.391 . S
C407 H395 0.950 . S
C407 C403 1.393 . S
C407 C406 1.391 . S
H408 C416 0.950 . S
H409 C421 0.950 . S
H410 C418 0.950 . S
H411 C420 0.950 1_554 S
H412 C422 0.950 . S
H413 C424 0.950 . S
H414 C426 0.950 . S
H415 C427 0.950 . S
C416 H408 0.950 . S
C416 C417 1.386 . S
C416 C418 1.391 . S
C417 C416 1.386 . S
C417 C421 1.393 1_556 S
C418 H410 0.950 . S
C418 C416 1.391 . S
C418 C419 1.400 . S
C419 C418 1.400 . S
C419 C420 1.398 . S
C419 C425 1.491 . S
C420 H411 0.950 1_556 S
C420 C419 1.398 . S
C420 C421 1.391 1_556 S
C421 H409 0.950 . S
C421 C417 1.393 1_554 S
C421 C420 1.391 1_554 S
C422 H412 0.950 . S
C422 C423 1.386 . S
C422 C424 1.391 . S
C423 C422 1.386 . S
C423 C427 1.393 . S
C424 H413 0.950 . S
C424 C422 1.391 . S
C424 C425 1.400 . S
C425 C419 1.491 . S
C425 C424 1.400 . S
C425 C426 1.398 . S
C426 H414 0.950 . S
C426 C425 1.398 . S
C426 C427 1.391 . S
C427 H415 0.950 . S
C427 C423 1.393 . S
C427 C426 1.391 . S
H428 C436 0.950 . S
H429 C441 0.950 . S
H430 C438 0.950 . S
H431 C440 0.950 . S
H432 C442 0.950 . S
H433 C444 0.950 . S
H434 C446 0.950 . S
H435 C447 0.950 . S
C436 H428 0.950 . S
C436 C437 1.386 . S
C436 C438 1.391 . S
C437 C436 1.386 . S
C437 C441 1.393 . S
C438 H430 0.950 . S
C438 C436 1.391 . S
C438 C439 1.400 . S
C439 C438 1.400 . S
C439 C440 1.398 . S
C439 C445 1.491 . S
C440 H431 0.950 . S
C440 C439 1.398 . S
C440 C441 1.391 . S
C441 H429 0.950 . S
C441 C437 1.393 . S
C441 C440 1.391 . S
C442 H432 0.950 . S
C442 C443 1.386 . S
C442 C444 1.391 . S
C443 C442 1.386 . S
C443 C447 1.393 . S
C444 H433 0.950 . S
C444 C442 1.391 . S
C444 C445 1.400 . S
C445 C439 1.491 . S
C445 C444 1.400 . S
C445 C446 1.398 . S
C446 H434 0.950 . S
C446 C445 1.398 . S
C446 C447 1.391 . S
C447 H435 0.950 . S
C447 C443 1.393 . S
C447 C446 1.391 . S
H448 C456 0.950 . S
H449 C461 0.950 . S
H450 C458 0.950 . S
H451 C460 0.950 . S
H452 C462 0.950 . S
H453 C464 0.950 . S
H454 C466 0.950 . S
H455 C467 0.950 . S
C456 H448 0.950 . S
C456 C457 1.386 . S
C456 C458 1.391 . S
C457 C456 1.386 . S
C457 C461 1.393 . S
C458 H450 0.950 . S
C458 C456 1.391 . S
C458 C459 1.400 . S
C459 C458 1.400 . S
C459 C460 1.398 . S
C459 C465 1.491 1_565 S
C460 H451 0.950 . S
C460 C459 1.398 . S
C460 C461 1.391 . S
C461 H449 0.950 . S
C461 C457 1.393 . S
C461 C460 1.391 . S
C462 H452 0.950 . S
C462 C463 1.386 . S
C462 C464 1.391 . S
C463 C462 1.386 . S
C463 C467 1.393 . S
C464 H453 0.950 . S
C464 C462 1.391 . S
C464 C465 1.400 . S
C465 C459 1.491 1_545 S
C465 C464 1.400 . S
C465 C466 1.398 . S
C466 H454 0.950 . S
C466 C465 1.398 . S
C466 C467 1.391 . S
C467 H455 0.950 . S
C467 C463 1.393 . S
C467 C466 1.391 . S
H468 C476 0.950 . S
H469 C481 0.950 . S
H470 C478 0.950 . S
H471 C480 0.950 . S
H472 C482 0.950 . S
H473 C484 0.950 . S
H474 C486 0.950 . S
H475 C487 0.950 . S
C476 H468 0.950 . S
C476 C477 1.386 . S
C476 C478 1.391 . S
C477 C476 1.386 . S
C477 C481 1.393 . S
C478 H470 0.950 . S
C478 C476 1.391 . S
C478 C479 1.400 . S
C479 C478 1.400 . S
C479 C480 1.398 . S
C479 C485 1.491 1_655 S
C480 H471 0.950 . S
C480 C479 1.398 . S
C480 C481 1.391 . S
C481 H469 0.950 . S
C481 C477 1.393 . S
C481 C480 1.391 . S
C482 H472 0.950 . S
C482 C483 1.386 . S
C482 C484 1.391 . S
C483 C482 1.386 . S
C483 C487 1.393 . S
C484 H473 0.950 . S
C484 C482 1.391 . S
C484 C485 1.400 . S
C485 C479 1.491 1_455 S
C485 C484 1.400 . S
C485 C486 1.398 . S
C486 H474 0.950 . S
C486 C485 1.398 . S
C486 C487 1.391 . S
C487 H475 0.950 . S
C487 C483 1.393 . S
C487 C486 1.391 . S
H488 C496 0.950 . S
H489 C501 0.950 . S
H490 C498 0.950 . S
H491 C500 0.950 . S
H492 C502 0.950 . S
H493 C504 0.950 . S
H494 C506 0.950 . S
H495 C507 0.950 . S
C496 H488 0.950 . S
C496 C497 1.386 . S
C496 C498 1.391 . S
C497 C496 1.386 . S
C497 C501 1.393 . S
C498 H490 0.950 . S
C498 C496 1.391 . S
C498 C499 1.400 . S
C499 C498 1.400 . S
C499 C500 1.398 . S
C499 C505 1.491 1_565 S
C500 H491 0.950 . S
C500 C499 1.398 . S
C500 C501 1.391 . S
C501 H489 0.950 . S
C501 C497 1.393 . S
C501 C500 1.391 . S
C502 H492 0.950 . S
C502 C503 1.386 . S
C502 C504 1.391 . S
C503 C502 1.386 . S
C503 C507 1.393 . S
C504 H493 0.950 . S
C504 C502 1.391 . S
C504 C505 1.400 . S
C505 C499 1.491 1_545 S
C505 C504 1.400 . S
C505 C506 1.398 . S
C506 H494 0.950 . S
C506 C505 1.398 . S
C506 C507 1.391 . S
C507 H495 0.950 . S
C507 C503 1.393 . S
C507 C506 1.391 . S
H508 C516 0.950 . S
H509 C521 0.950 1_556 S
H510 C518 0.950 . S
H511 C520 0.950 1_556 S
H512 C522 0.950 1_556 S
H513 C524 0.950 1_556 S
H514 C526 0.950 . S
H515 C527 0.950 . S
C516 H508 0.950 . S
C516 C517 1.386 . S
C516 C518 1.391 . S
C517 C516 1.386 . S
C517 C521 1.393 . S
C518 H510 0.950 . S
C518 C516 1.391 . S
C518 C519 1.400 . S
C519 C518 1.400 . S
C519 C520 1.398 . S
C519 C525 1.491 1_655 S
C520 H511 0.950 1_554 S
C520 C519 1.398 . S
C520 C521 1.391 . S
C521 H509 0.950 1_554 S
C521 C517 1.393 . S
C521 C520 1.391 . S
C522 H512 0.950 1_554 S
C522 C523 1.386 . S
C522 C524 1.391 . S
C523 C522 1.386 . S
C523 C527 1.393 . S
C524 H513 0.950 1_554 S
C524 C522 1.391 . S
C524 C525 1.400 . S
C525 C519 1.491 1_455 S
C525 C524 1.400 . S
C525 C526 1.398 . S
C526 H514 0.950 . S
C526 C525 1.398 . S
C526 C527 1.391 . S
C527 H515 0.950 . S
C527 C523 1.393 . S
C527 C526 1.391 . S
H528 C536 0.950 . S
H529 C541 0.950 . S
H530 C538 0.950 . S
H531 C540 0.950 . S
H532 C542 0.950 . S
H533 C544 0.950 . S
H534 C546 0.950 . S
H535 C547 0.950 . S
C536 H528 0.950 . S
C536 C537 1.386 . S
C536 C538 1.391 . S
C537 C536 1.386 . S
C537 C541 1.393 . S
C538 H530 0.950 . S
C538 C536 1.391 . S
C538 C539 1.400 1_556 S
C539 C538 1.400 1_554 S
C539 C540 1.398 . S
C539 C545 1.491 . S
C540 H531 0.950 . S
C540 C539 1.398 . S
C540 C541 1.391 1_554 S
C541 H529 0.950 . S
C541 C537 1.393 . S
C541 C540 1.391 1_556 S
C542 H532 0.950 . S
C542 C543 1.386 . S
C542 C544 1.391 . S
C543 C542 1.386 . S
C543 C547 1.393 . S
C544 H533 0.950 . S
C544 C542 1.391 . S
C544 C545 1.400 . S
C545 C539 1.491 . S
C545 C544 1.400 . S
C545 C546 1.398 . S
C546 H534 0.950 . S
C546 C545 1.398 . S
C546 C547 1.391 . S
C547 H535 0.950 . S
C547 C543 1.393 . S
C547 C546 1.391 . S
H548 C556 0.950 . S
H549 C561 0.950 . S
H550 C558 0.950 . S
H551 C560 0.950 . S
H552 C562 0.950 . S
H553 C564 0.950 . S
H554 C566 0.950 . S
H555 C567 0.950 . S
C556 H548 0.950 . S
C556 C557 1.386 . S
C556 C558 1.391 . S
C557 C556 1.386 . S
C557 C561 1.393 . S
C558 H550 0.950 . S
C558 C556 1.391 . S
C558 C559 1.400 . S
C559 C558 1.400 . S
C559 C560 1.398 . S
C559 C565 1.491 . S
C560 H551 0.950 . S
C560 C559 1.398 . S
C560 C561 1.391 . S
C561 H549 0.950 . S
C561 C557 1.393 . S
C561 C560 1.391 . S
C562 H552 0.950 . S
C562 C563 1.386 . S
C562 C564 1.391 . S
C563 C562 1.386 . S
C563 C567 1.393 . S
C564 H553 0.950 . S
C564 C562 1.391 . S
C564 C565 1.400 . S
C565 C559 1.491 . S
C565 C564 1.400 . S
C565 C566 1.398 . S
C566 H554 0.950 . S
C566 C565 1.398 . S
C566 C567 1.391 . S
C567 H555 0.950 . S
C567 C563 1.393 . S
C567 C566 1.391 . S
H568 C576 0.950 . S
H569 C581 0.950 . S
H570 C578 0.950 . S
H571 C580 0.950 . S
H572 C582 0.950 . S
H573 C584 0.950 . S
H574 C586 0.950 . S
H575 C587 0.950 . S
C576 H568 0.950 . S
C576 C577 1.386 . S
C576 C578 1.391 . S
C577 C576 1.386 . S
C577 C581 1.393 . S
C578 H570 0.950 . S
C578 C576 1.391 . S
C578 C579 1.400 . S
C579 C578 1.400 . S
C579 C580 1.398 . S
C579 C585 1.491 . S
C580 H571 0.950 . S
C580 C579 1.398 . S
C580 C581 1.391 . S
C581 H569 0.950 . S
C581 C577 1.393 . S
C581 C580 1.391 . S
C582 H572 0.950 . S
C582 C583 1.386 . S
C582 C584 1.391 . S
C583 C582 1.386 . S
C583 C587 1.393 . S
C584 H573 0.950 . S
C584 C582 1.391 . S
C584 C585 1.400 . S
C585 C579 1.491 . S
C585 C584 1.400 . S
C585 C586 1.398 . S
C586 H574 0.950 . S
C586 C585 1.398 . S
C586 C587 1.391 . S
C587 H575 0.950 . S
C587 C583 1.393 . S
C587 C586 1.391 . S
H588 C596 0.950 . S
H589 C601 0.950 . S
H590 C598 0.950 . S
H591 C600 0.950 . S
H592 C602 0.950 . S
H593 C604 0.950 . S
H594 C606 0.950 . S
H595 C607 0.950 . S
C596 H588 0.950 . S
C596 C597 1.386 . S
C596 C598 1.391 . S
C597 C596 1.386 . S
C597 C601 1.393 . S
C598 H590 0.950 . S
C598 C596 1.391 . S
C598 C599 1.400 . S
C599 C598 1.400 . S
C599 C600 1.398 . S
C599 C605 1.491 . S
C600 H591 0.950 . S
C600 C599 1.398 . S
C600 C601 1.391 . S
C601 H589 0.950 . S
C601 C597 1.393 . S
C601 C600 1.391 . S
C602 H592 0.950 . S
C602 C603 1.386 . S
C602 C604 1.391 . S
C603 C602 1.386 . S
C603 C607 1.393 . S
C604 H593 0.950 . S
C604 C602 1.391 . S
C604 C605 1.400 . S
C605 C599 1.491 . S
C605 C604 1.400 . S
C605 C606 1.398 . S
C606 H594 0.950 . S
C606 C605 1.398 . S
C606 C607 1.391 . S
C607 H595 0.950 . S
C607 C603 1.393 . S
C607 C606 1.391 . S
C297 C2 0.801 . S
C303 C218 0.816 . S
C317 C38 0.799 . S
C323 C254 0.805 . S
C337 C146 0.830 . S
C343 C74 0.818 . S
C357 C182 0.814 . S
C363 C110 0.828 . S
C377 C3 1.449 . S
C383 C183 1.451 . S
C397 C39 1.452 . S
C403 C219 1.455 . S
C417 C255 1.461 1_556 S
C423 C75 1.459 . S
C437 C111 1.459 . S
C443 C147 1.462 . S
C457 C148 1.472 . S
C463 C4 1.477 . S
C477 C40 1.477 . S
C483 C184 1.467 . S
C497 C76 1.470 . S
C503 C220 1.473 . S
C517 C256 1.467 . S
C523 C112 1.481 . S
C537 C230 1.371 . S
C543 C14 1.379 . S
C557 C266 1.349 . S
C563 C50 1.358 . S
C577 C86 1.351 . S
C583 C158 1.354 . S
C597 C122 1.354 . S
C603 C194 1.382 . S
