# Generated by pormake.
# Topology zfi, (5)-cn, num edge types: 1
# Building blocks:
#     Node 0, Type 0, BuildingBlock: XOMCOT_clean_sbu_1, # of connection points: 5
#     Node 1, Type 0, BuildingBlock: XOMCOT_clean_sbu_1, # of connection points: 5
#     Node 2, Type 0, BuildingBlock: XOMCOT_clean_sbu_1, # of connection points: 5
#     Node 3, Type 0, BuildingBlock: XOMCOT_clean_sbu_1, # of connection points: 5
#     Node 4, Type 0, BuildingBlock: XOMCOT_clean_sbu_1, # of connection points: 5
#     Node 5, Type 0, BuildingBlock: XOMCOT_clean_sbu_1, # of connection points: 5
#     Node 6, Type 0, BuildingBlock: XOMCOT_clean_sbu_1, # of connection points: 5
#     Node 7, Type 0, BuildingBlock: XOMCOT_clean_sbu_1, # of connection points: 5
#     Node 8, Type 0, BuildingBlock: XOMCOT_clean_sbu_1, # of connection points: 5
#     Node 9, Type 0, BuildingBlock: XOMCOT_clean_sbu_1, # of connection points: 5
#     Node 10, Type 0, BuildingBlock: XOMCOT_clean_sbu_1, # of connection points: 5
#     Node 11, Type 0, BuildingBlock: XOMCOT_clean_sbu_1, # of connection points: 5
#     Node 12, Type 0, BuildingBlock: XOMCOT_clean_sbu_1, # of connection points: 5
#     Node 13, Type 0, BuildingBlock: XOMCOT_clean_sbu_1, # of connection points: 5
#     Node 14, Type 0, BuildingBlock: XOMCOT_clean_sbu_1, # of connection points: 5
#     Node 15, Type 0, BuildingBlock: XOMCOT_clean_sbu_1, # of connection points: 5
#     Edge 16, Type (0, 0), BuildingBlock: OJICUG_clean_linker_0, # of connection points: 2
#     Edge 17, Type (0, 0), BuildingBlock: OJICUG_clean_linker_0, # of connection points: 2
#     Edge 18, Type (0, 0), BuildingBlock: OJICUG_clean_linker_0, # of connection points: 2
#     Edge 19, Type (0, 0), BuildingBlock: OJICUG_clean_linker_0, # of connection points: 2
#     Edge 20, Type (0, 0), BuildingBlock: OJICUG_clean_linker_0, # of connection points: 2
#     Edge 21, Type (0, 0), BuildingBlock: OJICUG_clean_linker_0, # of connection points: 2
#     Edge 22, Type (0, 0), BuildingBlock: OJICUG_clean_linker_0, # of connection points: 2
#     Edge 23, Type (0, 0), BuildingBlock: OJICUG_clean_linker_0, # of connection points: 2
#     Edge 24, Type (0, 0), BuildingBlock: OJICUG_clean_linker_0, # of connection points: 2
#     Edge 25, Type (0, 0), BuildingBlock: OJICUG_clean_linker_0, # of connection points: 2
#     Edge 26, Type (0, 0), BuildingBlock: OJICUG_clean_linker_0, # of connection points: 2
#     Edge 27, Type (0, 0), BuildingBlock: OJICUG_clean_linker_0, # of connection points: 2
#     Edge 28, Type (0, 0), BuildingBlock: OJICUG_clean_linker_0, # of connection points: 2
#     Edge 29, Type (0, 0), BuildingBlock: OJICUG_clean_linker_0, # of connection points: 2
#     Edge 30, Type (0, 0), BuildingBlock: OJICUG_clean_linker_0, # of connection points: 2
#     Edge 31, Type (0, 0), BuildingBlock: OJICUG_clean_linker_0, # of connection points: 2
#     Edge 32, Type (0, 0), BuildingBlock: OJICUG_clean_linker_0, # of connection points: 2
#     Edge 33, Type (0, 0), BuildingBlock: OJICUG_clean_linker_0, # of connection points: 2
#     Edge 34, Type (0, 0), BuildingBlock: OJICUG_clean_linker_0, # of connection points: 2
#     Edge 35, Type (0, 0), BuildingBlock: OJICUG_clean_linker_0, # of connection points: 2
#     Edge 36, Type (0, 0), BuildingBlock: OJICUG_clean_linker_0, # of connection points: 2
#     Edge 37, Type (0, 0), BuildingBlock: OJICUG_clean_linker_0, # of connection points: 2
#     Edge 38, Type (0, 0), BuildingBlock: OJICUG_clean_linker_0, # of connection points: 2
#     Edge 39, Type (0, 0), BuildingBlock: OJICUG_clean_linker_0, # of connection points: 2
#     Edge 40, Type (0, 0), BuildingBlock: OJICUG_clean_linker_0, # of connection points: 2
#     Edge 41, Type (0, 0), BuildingBlock: OJICUG_clean_linker_0, # of connection points: 2
#     Edge 42, Type (0, 0), BuildingBlock: OJICUG_clean_linker_0, # of connection points: 2
#     Edge 43, Type (0, 0), BuildingBlock: OJICUG_clean_linker_0, # of connection points: 2
#     Edge 44, Type (0, 0), BuildingBlock: OJICUG_clean_linker_0, # of connection points: 2
#     Edge 45, Type (0, 0), BuildingBlock: OJICUG_clean_linker_0, # of connection points: 2
#     Edge 46, Type (0, 0), BuildingBlock: OJICUG_clean_linker_0, # of connection points: 2
#     Edge 47, Type (0, 0), BuildingBlock: OJICUG_clean_linker_0, # of connection points: 2
#     Edge 48, Type (0, 0), BuildingBlock: OJICUG_clean_linker_0, # of connection points: 2
#     Edge 49, Type (0, 0), BuildingBlock: OJICUG_clean_linker_0, # of connection points: 2
#     Edge 50, Type (0, 0), BuildingBlock: OJICUG_clean_linker_0, # of connection points: 2
#     Edge 51, Type (0, 0), BuildingBlock: OJICUG_clean_linker_0, # of connection points: 2
#     Edge 52, Type (0, 0), BuildingBlock: OJICUG_clean_linker_0, # of connection points: 2
#     Edge 53, Type (0, 0), BuildingBlock: OJICUG_clean_linker_0, # of connection points: 2
#     Edge 54, Type (0, 0), BuildingBlock: OJICUG_clean_linker_0, # of connection points: 2
#     Edge 55, Type (0, 0), BuildingBlock: OJICUG_clean_linker_0, # of connection points: 2
# Relax obj value: 0.118
# Max RMSD: 0.131
# Mean RMSD: 0.131
data_MOF--net-zfi--node1-XOMCOT_clean_sbu_1--edge1-OJICUG_clean_linker_0
_symmetry_space_group_name_H-M    P1
_symmetry_Int_Tables_number       1
_symmetry_cell_setting            triclinic
loop_
_symmetry_equiv_pos_as_xyz
'x, y, z'
_cell_length_a     29.830508
_cell_length_b     29.832431
_cell_length_c     34.147598
_cell_angle_alpha  90.071147
_cell_angle_beta   89.974058
_cell_angle_gamma 89.998409
loop_
_atom_site_label
_atom_site_type_symbol
_atom_site_fract_x
_atom_site_fract_y
_atom_site_fract_z
_atom_type_partial_charge
C0 C 0.63563 0.15808 0.11301 0.0
C1 C 0.65478 0.20003 0.11246 0.0
N2 N 0.68789 0.20132 0.13927 0.0
N3 N 0.6566 0.13248 0.13991 0.0
C4 C 0.68767 0.16036 0.15597 0.0
H5 H 0.61026 0.14636 0.0929 0.0
Co6 Co 0.65086 0.06961 0.14605 0.0
C7 C 0.62609 0.05565 0.23055 0.0
O8 O 0.64543 0.01609 0.23106 0.0
N9 N 0.64521 1.00715 0.15176 0.0
C10 C 0.65617 0.93345 0.15525 0.0
C11 C 0.67625 0.97427 0.14873 0.0
C12 C 0.60649 0.98523 0.15936 0.0
N13 N 0.61233 0.94066 0.1618 0.0
O14 O 0.5908 0.07005 0.12394 0.0
H15 H 0.71127 0.97905 0.14208 0.0
H16 H 0.57462 1.00171 0.16406 0.0
O17 O 0.62684 0.07954 0.19933 0.0
C18 C 0.59084 0.05458 0.08889 0.0
O19 O 0.62975 0.04897 0.07147 0.0
N20 N 0.7106 0.06671 0.16265 0.0
C21 C 0.79853 0.03862 0.17104 0.0
C22 C 0.77247 0.04824 0.20416 0.0
C23 C 0.72849 0.06326 0.19934 0.0
C24 C 0.73735 0.06319 0.13045 0.0
C25 C 0.78162 0.04911 0.13394 0.0
H26 H 0.70914 0.07047 0.22509 0.0
H27 H 0.72286 0.06727 0.10164 0.0
H28 H 0.71261 0.14997 0.17701 0.0
H29 H 0.6473 0.22644 0.09173 0.0
H30 H 0.67228 0.90095 0.15435 0.0
H31 H 0.78516 0.04187 0.23335 0.0
H32 H 0.8008 0.04231 0.10765 0.0
C33 C 0.36671 0.63544 0.11415 0.0
C34 C 0.32476 0.6546 0.11341 0.0
N35 N 0.32322 0.68749 0.14045 0.0
N36 N 0.39207 0.65624 0.14135 0.0
C37 C 0.36406 0.68721 0.1574 0.0
H38 H 0.37864 0.61032 0.09387 0.0
Co39 Co 0.45494 0.65069 0.14768 0.0
C40 C 0.46879 0.62633 0.23234 0.0
O41 O 0.50844 0.6455 0.23279 0.0
N42 N 0.51739 0.64521 0.15356 0.0
C43 C 0.59111 0.65622 0.15683 0.0
C44 C 0.55024 0.6763 0.15054 0.0
C45 C 0.53939 0.60651 0.16099 0.0
N46 N 0.58396 0.61236 0.16324 0.0
O47 O 0.4547 0.59056 0.12558 0.0
H48 H 0.5454 0.7113 0.14394 0.0
H49 H 0.52298 0.57459 0.16554 0.0
O50 O 0.44493 0.62692 0.20106 0.0
C51 C 0.47025 0.59075 0.09055 0.0
O52 O 0.47569 0.62973 0.07328 0.0
N53 N 0.45767 0.7105 0.16416 0.0
C54 C 0.48621 0.79832 0.17226 0.0
C55 C 0.4766 0.77248 0.20547 0.0
C56 C 0.46134 0.72856 0.20079 0.0
C57 C 0.46113 0.73708 0.13189 0.0
C58 C 0.47542 0.7813 0.13524 0.0
H59 H 0.45422 0.70935 0.22661 0.0
H60 H 0.4569 0.72246 0.10312 0.0
H61 H 0.37434 0.71214 0.17854 0.0
H62 H 0.29865 0.64751 0.09226 0.0
H63 H 0.62362 0.67232 0.15574 0.0
H64 H 0.48321 0.78527 0.23461 0.0
H65 H 0.4822 0.80033 0.10889 0.0
C66 C 0.88646 0.3677 0.10876 0.0
C67 C 0.8667 0.32604 0.10768 0.0
N68 N 0.83543 0.32393 0.13611 0.0
N69 N 0.86779 0.39225 0.13768 0.0
C70 C 0.83748 0.36406 0.15435 0.0
H71 H 0.91046 0.38012 0.08771 0.0
Co72 Co 0.87387 0.45491 0.14485 0.0
C73 C 0.89839 0.46792 0.22954 0.0
O74 O 0.87899 0.50745 0.23016 0.0
N75 N 0.87972 0.51727 0.1514 0.0
C76 C 0.86895 0.59096 0.15559 0.0
C77 C 0.84872 0.55025 0.14888 0.0
C78 C 0.91854 0.53904 0.15895 0.0
N79 N 0.91282 0.5836 0.16177 0.0
O80 O 0.93394 0.45455 0.12261 0.0
H81 H 0.81366 0.54562 0.14236 0.0
H82 H 0.95044 0.52247 0.16318 0.0
O83 O 0.89788 0.44417 0.19815 0.0
C84 C 0.93398 0.47077 0.08783 0.0
O85 O 0.89509 0.47704 0.07061 0.0
N86 N 0.81413 0.45769 0.16157 0.0
C87 C 0.72643 0.48617 0.17062 0.0
C88 C 0.75245 0.47573 0.20352 0.0
C89 C 0.79629 0.46048 0.19834 0.0
C90 C 0.78734 0.46191 0.1295 0.0
C91 C 0.74316 0.47621 0.13331 0.0
H92 H 0.8156 0.45257 0.22393 0.0
H93 H 0.80175 0.45828 0.10059 0.0
H94 H 0.81425 0.37386 0.17708 0.0
H95 H 0.87256 0.30045 0.08575 0.0
H96 H 0.85293 0.62352 0.15493 0.0
H97 H 0.73985 0.48164 0.23283 0.0
H98 H 0.72396 0.48361 0.10719 0.0
C99 C 0.15715 0.88619 0.10747 0.0
C100 C 0.19881 0.8664 0.10655 0.0
N101 N 0.2007 0.83499 0.13485 0.0
N102 N 0.13241 0.86748 0.1362 0.0
C103 C 0.16047 0.83709 0.1529 0.0
H104 H 0.14492 0.91038 0.08653 0.0
Co105 Co 0.06975 0.87375 0.1433 0.0
C106 C 0.05675 0.8985 0.22793 0.0
O107 O 0.01729 0.87896 0.22858 0.0
N108 N 1.00739 0.87978 0.14977 0.0
C109 C 0.93372 0.86906 0.15419 0.0
C110 C 0.97437 0.84883 0.14721 0.0
C111 C 0.98569 0.9186 0.15756 0.0
N112 N 0.94114 0.91289 0.16058 0.0
O113 O 0.07028 0.93379 0.12113 0.0
H114 H 0.97894 0.81378 0.14058 0.0
H115 H 1.00233 0.95044 0.16196 0.0
O116 O 0.08051 0.89789 0.19657 0.0
C117 C 0.05411 0.93399 0.08634 0.0
O118 O 0.04768 0.89518 0.06896 0.0
N119 N 0.06681 0.81405 0.16005 0.0
C120 C 0.03871 0.72626 0.16925 0.0
C121 C 0.04918 0.75243 0.20209 0.0
C122 C 0.06423 0.79631 0.19685 0.0
C123 C 0.06252 0.78716 0.12801 0.0
C124 C 0.04839 0.74294 0.1319 0.0
H125 H 0.07224 0.81569 0.2224 0.0
H126 H 0.06601 0.80149 0.09908 0.0
H127 H 0.15056 0.81396 0.17562 0.0
H128 H 0.22466 0.87259 0.08495 0.0
H129 H 0.90116 0.85304 0.1537 0.0
H130 H 0.04349 0.73988 0.23144 0.0
H131 H 0.04095 0.72364 0.10581 0.0
C132 C 0.13443 0.86644 0.49081 0.0
C133 C 0.1534 0.82441 0.49142 0.0
N134 N 0.187 0.82315 0.46506 0.0
N135 N 0.15606 0.89214 0.46437 0.0
C136 C 0.18735 0.86425 0.44863 0.0
H137 H 0.10876 0.87812 0.51065 0.0
Co138 Co 0.15058 0.95507 0.45836 0.0
C139 C 0.12604 0.96923 0.37378 0.0
O140 O 0.14527 1.00884 0.37337 0.0
N141 N 0.14516 0.01754 0.45274 0.0
C142 C 0.1562 0.09126 0.44963 0.0
C143 C 0.17625 0.05037 0.45591 0.0
C144 C 0.10648 0.03955 0.44526 0.0
N145 N 0.11235 0.08413 0.44309 0.0
O146 O 0.09048 0.95481 0.48048 0.0
H147 H 0.21125 0.0455 0.46256 0.0
H148 H 0.07457 0.02315 0.44056 0.0
O149 O 0.1267 0.94532 0.405 0.0
C150 C 0.09065 0.9702 0.51557 0.0
O151 O 0.12961 0.97553 0.53292 0.0
N152 N 0.21037 0.95785 0.44184 0.0
C153 C 0.2982 0.98634 0.43369 0.0
C154 C 0.27227 0.97681 0.40049 0.0
C155 C 0.22834 0.96157 0.40519 0.0
C156 C 0.23703 0.96124 0.47408 0.0
C157 C 0.28126 0.9755 0.47071 0.0
H158 H 0.20907 0.95451 0.37938 0.0
H159 H 0.22248 0.95695 0.50286 0.0
H160 H 0.21285 0.87469 0.42812 0.0
H161 H 0.14562 0.79799 0.51206 0.0
H162 H 0.17231 0.12375 0.45077 0.0
H163 H 0.28499 0.98345 0.37135 0.0
H164 H 0.30035 0.98221 0.49706 0.0
C165 C 0.65745 0.13695 0.495 0.0
C166 C 0.69932 0.15629 0.49563 0.0
N167 N 0.70099 0.18837 0.46792 0.0
N168 N 0.6323 0.15677 0.46714 0.0
C169 C 0.66034 0.18732 0.45061 0.0
H170 H 0.64539 0.1124 0.5157 0.0
Co171 Co 0.56951 0.15095 0.46066 0.0
C172 C 0.55587 0.12625 0.3761 0.0
O173 O 0.51636 0.1457 0.37552 0.0
N174 N 0.50708 0.14525 0.45467 0.0
C175 C 0.43339 0.1562 0.4509 0.0
C176 C 0.47417 0.17629 0.45758 0.0
C177 C 0.48519 0.10654 0.44696 0.0
N178 N 0.44063 0.11236 0.44435 0.0
O179 O 0.56993 0.09089 0.4827 0.0
H180 H 0.47893 0.21131 0.46427 0.0
H181 H 0.5017 0.07466 0.44232 0.0
O182 O 0.57969 0.12694 0.40738 0.0
C183 C 0.55418 0.09083 0.51765 0.0
O184 O 0.54829 0.1297 0.53508 0.0
N185 N 0.56668 0.21071 0.44409 0.0
C186 C 0.53863 0.29864 0.43557 0.0
C187 C 0.54847 0.27256 0.4025 0.0
C188 C 0.56348 0.2286 0.40739 0.0
C189 C 0.56296 0.23748 0.47627 0.0
C190 C 0.54889 0.28175 0.47272 0.0
H191 H 0.57088 0.20925 0.38167 0.0
H192 H 0.56688 0.22301 0.5051 0.0
H193 H 0.65019 0.21141 0.42875 0.0
H194 H 0.72535 0.14973 0.51697 0.0
H195 H 0.40088 0.17231 0.45169 0.0
H196 H 0.5423 0.28524 0.37328 0.0
H197 H 0.54192 0.30094 0.49898 0.0
C198 C 0.38509 0.65677 0.49989 0.0
C199 C 0.36504 0.69831 0.50101 0.0
N200 N 0.33436 0.70054 0.47212 0.0
N201 N 0.36724 0.63246 0.47044 0.0
C202 C 0.33714 0.66066 0.45353 0.0
H203 H 0.40874 0.64425 0.52117 0.0
Co204 Co 0.37362 0.56988 0.46296 0.0
C205 C 0.39821 0.55727 0.37826 0.0
O206 O 0.3787 0.5178 0.37755 0.0
N207 N 0.37973 0.50756 0.45618 0.0
C208 C 0.36905 0.43389 0.4515 0.0
C209 C 0.34879 0.47451 0.45854 0.0
C210 C 0.41858 0.4859 0.44844 0.0
N211 N 0.41291 0.44135 0.44528 0.0
O212 O 0.43367 0.57039 0.48515 0.0
H213 H 0.31371 0.47904 0.4651 0.0
H214 H 0.45044 0.50255 0.44422 0.0
O215 O 0.39769 0.58095 0.4097 0.0
C216 C 0.43383 0.55403 0.51986 0.0
O217 O 0.395 0.54745 0.53713 0.0
N218 N 0.31391 0.567 0.44621 0.0
C219 C 0.22613 0.53885 0.43694 0.0
C220 C 0.25223 0.54951 0.40412 0.0
C221 C 0.29611 0.5646 0.40941 0.0
C222 C 0.28707 0.56252 0.47824 0.0
C223 C 0.24286 0.54838 0.47431 0.0
H224 H 0.31544 0.57276 0.38389 0.0
H225 H 0.30144 0.56589 0.50718 0.0
H226 H 0.3146 0.65098 0.43025 0.0
H227 H 0.37052 0.72378 0.52311 0.0
H228 H 0.35305 0.40133 0.45189 0.0
H229 H 0.23965 0.54394 0.37476 0.0
H230 H 0.2236 0.54079 0.50038 0.0
C231 C 0.86702 0.38783 0.49504 0.0
C232 C 0.82525 0.36829 0.49601 0.0
N233 N 0.82355 0.33599 0.46844 0.0
N234 N 0.89206 0.36798 0.46705 0.0
C235 C 0.86403 0.33717 0.4508 0.0
H236 H 0.87909 0.41263 0.51555 0.0
Co237 Co 0.95481 0.37395 0.46024 0.0
C238 C 0.96817 0.39849 0.37559 0.0
O239 O 1.00776 0.3792 0.37506 0.0
N240 N 0.0172 0.37975 0.45399 0.0
C241 C 0.09092 0.36897 0.45015 0.0
C242 C 0.05017 0.34875 0.45666 0.0
C243 C 0.03902 0.41855 0.44655 0.0
N244 N 0.08359 0.41283 0.44394 0.0
O245 O 0.95442 0.43403 0.48251 0.0
H246 H 0.0455 0.31369 0.46316 0.0
H247 H 0.02248 0.45045 0.44224 0.0
O248 O 0.94435 0.39791 0.40692 0.0
C249 C 0.97036 0.434 0.51739 0.0
O250 O 0.97633 0.39508 0.53463 0.0
N251 N 0.95766 0.31423 0.44354 0.0
C252 C 0.98617 0.22651 0.43473 0.0
C253 C 0.97601 0.25249 0.40175 0.0
C254 C 0.96075 0.29635 0.40679 0.0
C255 C 0.96164 0.28749 0.47566 0.0
C256 C 0.97593 0.24331 0.47196 0.0
H257 H 0.95309 0.31563 0.38114 0.0
H258 H 0.95779 0.30195 0.50453 0.0
H259 H 0.8741 0.31308 0.42886 0.0
H260 H 0.79926 0.37509 0.51737 0.0
H261 H 0.12348 0.35295 0.45096 0.0
H262 H 0.98216 0.23984 0.37248 0.0
H263 H 0.98313 0.22414 0.49814 0.0
C264 C 0.39048 0.86737 0.99214 0.0
C265 C 0.37133 0.82542 0.99287 0.0
N266 N 0.33702 0.82456 0.96722 0.0
N267 N 0.3684 0.89339 0.96622 0.0
C268 C 0.33661 0.86575 0.95094 0.0
H269 H 0.41695 0.87867 1.01133 0.0
Co270 Co 0.37442 0.9563 0.96001 0.0
C271 C 0.39971 0.97011 0.87561 0.0
O272 O 0.38041 1.00969 0.87504 0.0
N273 N 0.3803 0.01874 0.95427 0.0
C274 C 0.36954 0.09246 0.95073 0.0
C275 C 0.34931 0.0517 0.95712 0.0
C276 C 0.41912 0.04056 0.94689 0.0
N277 N 0.41341 0.08515 0.94442 0.0
O278 O 0.43433 0.95573 0.9824 0.0
H279 H 0.31424 0.04702 0.96358 0.0
H280 H 0.451 0.02401 0.94239 0.0
O281 O 0.39876 0.94622 0.90684 0.0
C282 C 0.43423 0.97111 1.01747 0.0
O283 O 0.3953 0.97676 1.03483 0.0
N284 N 0.31484 0.95938 0.94308 0.0
C285 C 0.227 0.98738 0.93402 0.0
C286 C 0.2533 0.97749 0.9011 0.0
C287 C 0.29722 0.9625 0.90627 0.0
C288 C 0.28786 0.96318 0.97511 0.0
C289 C 0.24362 0.97721 0.97128 0.0
H290 H 0.31673 0.95501 0.88068 0.0
H291 H 0.30213 0.9593 1.00403 0.0
H292 H 0.31101 0.87632 0.9306 0.0
H293 H 0.38012 0.79854 1.01271 0.0
H294 H 0.35351 0.12501 0.95157 0.0
H295 H 0.24082 0.98362 0.87181 0.0
H296 H 0.22424 0.98423 0.99742 0.0
C297 C 0.65792 0.38799 0.99694 0.0
C298 C 0.69971 0.36848 0.9975 0.0
N299 N 0.70174 0.33747 0.96883 0.0
N300 N 0.63317 0.36931 0.96818 0.0
C301 C 0.66138 0.33929 0.95106 0.0
H302 H 0.64553 0.41167 1.01831 0.0
Co303 Co 0.57045 0.37511 0.96153 0.0
C304 C 0.55696 0.3999 0.877 0.0
O305 O 0.51741 0.38052 0.87643 0.0
N306 N 0.50802 0.38078 0.9554 0.0
C307 C 0.43433 0.36982 0.95147 0.0
C308 C 0.47512 0.34969 0.95802 0.0
C309 C 0.48611 0.41954 0.94799 0.0
N310 N 0.44156 0.41372 0.9453 0.0
O311 O 0.57073 0.43509 0.98392 0.0
H312 H 0.47989 0.31463 0.96443 0.0
H313 H 0.5026 0.45147 0.94365 0.0
O314 O 0.58078 0.39925 0.9083 0.0
C315 C 0.55484 0.43481 1.01883 0.0
O316 O 0.54901 0.39578 1.03591 0.0
N317 N 0.56776 0.3154 0.9447 0.0
C318 C 0.53953 0.22758 0.93579 0.0
C319 C 0.54951 0.25369 0.90283 0.0
C320 C 0.56462 0.2976 0.90792 0.0
C321 C 0.56396 0.28856 0.97677 0.0
C322 C 0.5498 0.24433 0.97302 0.0
H323 H 0.5721 0.31699 0.88229 0.0
H324 H 0.56783 0.30295 1.00566 0.0
H325 H 0.65143 0.31596 0.92846 0.0
H326 H 0.72533 0.37397 1.01945 0.0
H327 H 0.40182 0.3537 0.95214 0.0
H328 H 0.54334 0.24111 0.87356 0.0
H329 H 0.54273 0.22509 0.99919 0.0
C330 C 0.13978 0.65753 0.99813 0.0
C331 C 0.15966 0.69913 0.99917 0.0
N332 N 0.18966 0.70175 0.96975 0.0
N333 N 0.15723 0.63351 0.9683 0.0
C334 C 0.18687 0.66195 0.95107 0.0
H335 H 0.11688 0.64463 1.01987 0.0
Co336 Co 0.15138 0.57093 0.96099 0.0
C337 C 0.12755 0.55803 0.87611 0.0
O338 O 0.14702 0.51854 0.87555 0.0
N339 N 0.14574 0.50859 0.95431 0.0
C340 C 0.15668 0.43493 0.95008 0.0
C341 C 0.17678 0.47567 0.95698 0.0
C342 C 0.10703 0.48676 0.94649 0.0
N343 N 0.11285 0.44222 0.94363 0.0
O344 O 0.09115 0.57112 0.98292 0.0
H345 H 0.21178 0.48037 0.96373 0.0
H346 H 0.07513 0.50328 0.94207 0.0
O347 O 0.12777 0.58172 0.90754 0.0
C348 C 0.09106 0.55478 1.01765 0.0
O349 O 0.12993 0.5485 1.03492 0.0
N350 N 0.21129 0.56836 0.94466 0.0
C351 C 0.29911 0.53988 0.93637 0.0
C352 C 0.27339 0.55015 0.90324 0.0
C353 C 0.22949 0.56541 0.90803 0.0
C354 C 0.23777 0.56429 0.97695 0.0
C355 C 0.282 0.55 0.97351 0.0
H356 H 0.2104 0.57314 0.88228 0.0
H357 H 0.22308 0.56802 1.00574 0.0
H358 H 0.20938 0.65238 0.92771 0.0
H359 H 0.15519 0.72413 1.02186 0.0
H360 H 0.17276 0.4024 0.95078 0.0
H361 H 0.28627 0.5441 0.87404 0.0
H362 H 0.30095 0.54272 0.9998 0.0
C363 C 0.86745 0.13714 0.99333 0.0
C364 C 0.8256 0.15652 0.99432 0.0
N365 N 0.82428 0.18985 0.96774 0.0
N366 N 0.89291 0.15807 0.96629 0.0
C367 C 0.86507 0.1894 0.95063 0.0
H368 H 0.87916 0.11149 1.01313 0.0
Co369 Co 0.95572 0.15207 0.95964 0.0
C370 C 0.96924 0.12759 0.87497 0.0
O371 O 1.00877 0.14701 0.87443 0.0
N372 N 0.01811 0.14624 0.95352 0.0
C373 C 0.09183 0.157 0.94973 0.0
C374 C 0.0511 0.17719 0.95646 0.0
C375 C 0.03989 0.10748 0.94574 0.0
N376 N 0.08446 0.1132 0.94312 0.0
O377 O 0.95523 0.09193 0.98161 0.0
H378 H 0.04646 0.2122 0.96322 0.0
H379 H 0.02331 0.07565 0.94112 0.0
O380 O 0.94541 0.12817 0.90628 0.0
C381 C 0.97103 0.09166 1.01653 0.0
O382 O 0.97706 0.13042 1.0341 0.0
N383 N 0.95871 0.21182 0.94314 0.0
C384 C 0.98699 0.29963 0.93456 0.0
C385 C 0.97688 0.27364 0.90151 0.0
C386 C 0.96173 0.22974 0.90644 0.0
C387 C 0.96268 0.23853 0.97533 0.0
C388 C 0.97687 0.28275 0.97175 0.0
H389 H 0.95406 0.21047 0.88075 0.0
H390 H 0.95887 0.22404 1.00417 0.0
H391 H 0.87537 0.21421 0.92945 0.0
H392 H 0.79919 0.14868 1.01497 0.0
H393 H 0.12439 0.173 0.95058 0.0
H394 H 0.98294 0.28634 0.87228 0.0
H395 H 0.98404 0.3019 0.99799 0.0
C396 C 0.88776 0.1575 0.60912 0.0
C397 C 0.86816 0.19924 0.60836 0.0
N398 N 0.8368 0.20122 0.63672 0.0
N399 N 0.86886 0.13275 0.63775 0.0
C400 C 0.83859 0.16092 0.65458 0.0
H401 H 0.9118 0.14518 0.58804 0.0
Co402 Co 0.87484 0.07006 0.64459 0.0
C403 C 0.89964 0.05699 0.72918 0.0
O404 O 0.88035 0.01741 0.72981 0.0
N405 N 0.88066 1.00767 0.65089 0.0
C406 C 0.86979 0.93399 0.65498 0.0
C407 C 0.84961 0.97473 0.64837 0.0
C408 C 0.91946 0.98583 0.65832 0.0
N409 N 0.91369 0.94128 0.6611 0.0
O410 O 0.93483 0.07039 0.62223 0.0
H411 H 0.81452 0.97943 0.64196 0.0
H412 H 0.95139 1.00236 0.66257 0.0
O413 O 0.89896 0.08069 0.69782 0.0
C414 C 0.93456 0.05445 0.58734 0.0
O415 O 0.89553 0.04849 0.57025 0.0
N416 N 0.81514 0.0673 0.66138 0.0
C417 C 0.72728 0.03922 0.67025 0.0
C418 C 0.75338 0.0493 0.70321 0.0
C419 C 0.79731 0.06433 0.69814 0.0
C420 C 0.78833 0.06337 0.62929 0.0
C421 C 0.74408 0.04929 0.63301 0.0
H422 H 0.81669 0.07191 0.72378 0.0
H423 H 0.80275 0.06712 0.6004 0.0
H424 H 0.81516 0.151 0.67709 0.0
H425 H 0.87407 0.22494 0.58659 0.0
H426 H 0.85371 0.90146 0.65437 0.0
H427 H 0.74076 0.04327 0.73249 0.0
H428 H 0.72485 0.04214 0.60683 0.0
C429 C 0.36695 0.89016 0.61391 0.0
C430 C 0.32501 0.87096 0.61316 0.0
N431 N 0.32436 0.83631 0.63844 0.0
N432 N 0.39315 0.86781 0.6395 0.0
C433 C 0.36565 0.83578 0.65456 0.0
H434 H 0.37805 0.91696 0.59502 0.0
Co435 Co 0.45608 0.87396 0.64572 0.0
C436 C 0.46996 0.89931 0.73013 0.0
O437 O 0.50954 0.88001 0.73069 0.0
N438 N 0.51851 0.87997 0.65146 0.0
C439 C 0.59225 0.86931 0.65507 0.0
C440 C 0.55153 0.84903 0.64861 0.0
C441 C 0.54028 0.91881 0.6589 0.0
N442 N 0.58487 0.91316 0.66142 0.0
O443 O 0.45537 0.93386 0.6234 0.0
H444 H 0.5469 0.81395 0.64212 0.0
H445 H 0.52368 0.95066 0.66342 0.0
O446 O 0.44602 0.89832 0.69891 0.0
C447 C 0.47076 0.93389 0.58834 0.0
O448 O 0.47648 0.89502 0.57088 0.0
N449 N 0.4593 0.81442 0.66263 0.0
C450 C 0.48743 0.72665 0.67171 0.0
C451 C 0.47749 0.75294 0.70462 0.0
C452 C 0.46243 0.79683 0.69945 0.0
C453 C 0.46315 0.78743 0.63061 0.0
C454 C 0.47724 0.74322 0.63444 0.0
H455 H 0.45487 0.81634 0.72504 0.0
H456 H 0.45925 0.80167 0.60169 0.0
H457 H 0.37635 0.81004 0.67469 0.0
H458 H 0.29792 0.88016 0.59367 0.0
H459 H 0.62482 0.85332 0.65425 0.0
H460 H 0.48363 0.74049 0.73392 0.0
H461 H 0.48429 0.72383 0.60831 0.0
C462 C 0.63686 0.36703 0.61281 0.0
C463 C 0.65615 0.32515 0.61194 0.0
N464 N 0.68913 0.32372 0.63886 0.0
N465 N 0.65756 0.39242 0.64007 0.0
C466 C 0.68863 0.3645 0.656 0.0
H467 H 0.61158 0.37888 0.59269 0.0
Co468 Co 0.65179 0.45525 0.64653 0.0
C469 C 0.62737 0.4692 0.73116 0.0
O470 O 0.64688 0.50867 0.73163 0.0
N471 N 0.64616 0.51767 0.65249 0.0
C472 C 0.65707 0.59138 0.65608 0.0
C473 C 0.67717 0.55059 0.64945 0.0
C474 C 0.60746 0.53955 0.66024 0.0
N475 N 0.61326 0.58412 0.66273 0.0
O476 O 0.59163 0.45485 0.62455 0.0
H477 H 0.71216 0.54585 0.64268 0.0
H478 H 0.5756 0.52306 0.66493 0.0
O479 O 0.62789 0.44525 0.69989 0.0
C480 C 0.59137 0.47062 0.58963 0.0
O481 O 0.63014 0.47652 0.57206 0.0
N482 N 0.71157 0.45812 0.66304 0.0
C483 C 0.79936 0.48651 0.67158 0.0
C484 C 0.77339 0.47654 0.70465 0.0
C485 C 0.7295 0.46133 0.69974 0.0
C486 C 0.73828 0.46191 0.63085 0.0
C487 C 0.7825 0.47616 0.63442 0.0
H488 H 0.71023 0.4538 0.72545 0.0
H489 H 0.72378 0.45796 0.60202 0.0
H490 H 0.71335 0.37476 0.6773 0.0
H491 H 0.64876 0.29888 0.59099 0.0
H492 H 0.67312 0.62391 0.65513 0.0
H493 H 0.78608 0.48277 0.73387 0.0
H494 H 0.80164 0.4832 0.60817 0.0
C495 C 0.15708 0.63958 0.60769 0.0
C496 C 0.19872 0.6594 0.60678 0.0
N497 N 0.20147 0.68903 0.63648 0.0
N498 N 0.13317 0.65673 0.6377 0.0
C499 C 0.16169 0.68613 0.65516 0.0
H500 H 0.14406 0.617 0.58571 0.0
Co501 Co 0.0706 0.65095 0.64501 0.0
C502 C 0.05784 0.62715 0.72989 0.0
O503 O 0.01833 0.64661 0.73048 0.0
N504 N 1.00826 0.64536 0.65171 0.0
C505 C 0.9346 0.65633 0.65597 0.0
C506 C 0.97535 0.67641 0.64908 0.0
C507 C 0.98643 0.60666 0.65951 0.0
N508 N 0.94188 0.61249 0.66238 0.0
O509 O 0.07071 0.59075 0.62299 0.0
H510 H 0.98006 0.71141 0.64236 0.0
H511 H 1.00295 0.57476 0.66389 0.0
O512 O 0.08146 0.62734 0.69843 0.0
C513 C 0.05438 0.59076 0.58825 0.0
O514 O 0.04813 0.62968 0.57109 0.0
N515 N 0.06811 0.71087 0.6614 0.0
C516 C 0.03977 0.79874 0.6698 0.0
C517 C 0.05008 0.77299 0.70289 0.0
C518 C 0.06526 0.72906 0.69804 0.0
C519 C 0.06401 0.73737 0.62914 0.0
C520 C 0.04978 0.78162 0.63264 0.0
H521 H 0.07301 0.70997 0.72378 0.0
H522 H 0.06765 0.72269 0.60033 0.0
H523 H 0.15218 0.70848 0.67867 0.0
H524 H 0.22358 0.65531 0.58392 0.0
H525 H 0.90208 0.67241 0.6553 0.0
H526 H 0.04413 0.78587 0.73211 0.0
H527 H 0.04247 0.80058 0.60637 0.0
C528 C 0.53604 0.91186 0.15064 0.0
C529 C 0.57833 0.90756 0.16833 0.0
H530 H 0.47304 0.88025 0.13817 0.0
C531 C 0.58773 0.8696 0.19101 0.0
H532 H 0.52824 0.94084 0.13285 0.0
C533 C 0.55604 0.83554 0.19469 0.0
C534 C 0.5147 0.83858 0.17519 0.0
H535 H 0.61999 0.86593 0.20518 0.0
H536 H 0.56494 0.80562 0.21089 0.0
C537 C 0.50458 0.87737 0.1537 0.0
C538 C 0.68949 0.55558 0.1944 0.0
C539 C 0.68622 0.51459 0.17429 0.0
H540 H 0.6592 0.61932 0.2061 0.0
C541 C 0.64719 0.50483 0.15298 0.0
H542 H 0.7196 0.56418 0.21047 0.0
C543 C 0.61265 0.53632 0.15071 0.0
C544 C 0.61714 0.57828 0.16902 0.0
H545 H 0.64415 0.47359 0.13699 0.0
H546 H 0.58347 0.52883 0.13304 0.0
C547 C 0.65537 0.58731 0.1915 0.0
C548 C 0.02025 0.64695 0.15152 0.0
C549 C 1.01054 0.68589 0.17303 0.0
H550 H 0.99625 0.58328 0.13137 0.0
C551 C 0.96973 0.68892 0.19343 0.0
H552 H 0.05137 0.64407 0.13533 0.0
C553 C 0.93808 0.65473 0.19054 0.0
C554 C 0.947 0.61665 0.16777 0.0
H555 H 0.96116 0.71894 0.20969 0.0
H556 H 0.90616 0.65842 0.20532 0.0
C557 C 0.98884 0.61234 0.14925 0.0
C558 C 0.87034 0.93766 0.19028 0.0
C559 C 0.90816 0.94697 0.16734 0.0
H560 H 0.80634 0.96037 0.21028 0.0
C561 C 0.91229 0.98915 0.14945 0.0
H562 H 0.86681 0.9055 0.20462 0.0
C563 C 0.87771 0.02053 0.15249 0.0
C564 C 0.83898 1.01042 0.17414 0.0
H565 H 0.94116 0.99689 0.13147 0.0
H566 H 0.88042 0.05194 0.13677 0.0
C567 C 0.83618 0.96926 0.19393 0.0
C568 C 0.05578 0.18956 0.41146 0.0
C569 C 0.01463 0.1863 0.43128 0.0
H570 H 0.11963 0.15928 0.40022 0.0
C571 C 1.00472 0.14732 0.45257 0.0
H572 H 0.0645 0.21964 0.39541 0.0
C573 C 0.03621 0.11282 0.45511 0.0
C574 C 0.07832 0.11729 0.43708 0.0
H575 H 0.97334 0.14431 0.46835 0.0
H576 H 0.02859 0.08368 0.47275 0.0
C577 C 0.08751 0.15547 0.41462 0.0
C578 C 0.3355 0.05612 0.41129 0.0
C579 C 0.3385 0.01478 0.43078 0.0
H580 H 0.36594 0.12003 0.40085 0.0
C581 C 0.3773 1.00463 0.45228 0.0
H582 H 0.30559 0.06503 0.39508 0.0
C583 C 0.41181 0.03607 0.45538 0.0
C584 C 0.40754 0.07836 0.43772 0.0
H585 H 0.38015 0.9731 0.46779 0.0
H586 H 0.44077 0.02825 0.4732 0.0
C587 C 0.36959 0.08778 0.415 0.0
C588 C 0.46946 0.33634 0.41225 0.0
C589 C 0.51047 0.33911 0.43231 0.0
H590 H 0.40581 0.36702 0.40114 0.0
C591 C 0.52045 0.37784 0.45403 0.0
H592 H 0.46067 0.3065 0.39583 0.0
C593 C 0.48908 0.41246 0.45686 0.0
C594 C 0.44703 0.40837 0.43869 0.0
H595 H 0.55174 0.38054 0.46996 0.0
H596 H 0.49671 0.44133 0.4749 0.0
C597 C 0.43787 0.37054 0.41568 0.0
C598 C 0.11226 0.48883 0.45668 0.0
C599 C 0.11666 0.44701 0.4381 0.0
H600 H 0.1439 0.55138 0.47074 0.0
C601 C 0.15478 0.43814 0.41541 0.0
H602 H 0.08316 0.49619 0.4745 0.0
C603 C 0.18894 0.46985 0.41262 0.0
C604 C 0.18581 0.51063 0.43305 0.0
H605 H 0.15853 0.40625 0.40059 0.0
H606 H 0.219 0.46132 0.39641 0.0
C607 C 0.14683 0.52028 0.45451 0.0
C608 C 0.43841 0.15626 0.91559 0.0
C609 C 0.44753 0.1182 0.93824 0.0
H610 H 0.4614 0.22037 0.89623 0.0
C611 C 0.48959 0.11383 0.95633 0.0
H612 H 0.40634 0.15999 0.90112 0.0
C613 C 0.52106 0.14837 0.95374 0.0
C614 C 0.51118 0.18728 0.93234 0.0
H615 H 0.49716 0.08478 0.9741 0.0
H616 H 0.55237 0.14544 0.9696 0.0
C617 C 0.47011 0.19037 0.91239 0.0
C618 C 0.37049 0.43871 0.91631 0.0
C619 C 0.40845 0.44779 0.93914 0.0
H620 H 0.30648 0.46176 0.8967 0.0
C621 C 0.41269 0.48981 0.9574 0.0
H622 H 0.36685 0.40667 0.90172 0.0
C623 C 0.37817 0.52128 0.95475 0.0
C624 C 0.33939 0.51145 0.9331 0.0
H625 H 0.44166 0.49735 0.97532 0.0
H626 H 0.38101 0.55256 0.9707 0.0
C627 C 0.33639 0.47042 0.91304 0.0
C628 C 1.00531 0.37882 0.95277 0.0
C629 C 0.01526 0.33998 0.9312 0.0
H630 H 0.0291 0.44238 0.97335 0.0
C631 C 0.05632 0.33699 0.9112 0.0
H632 H 0.974 0.38165 0.96867 0.0
C633 C 0.08796 0.37115 0.9145 0.0
C634 C 0.07878 0.40914 0.9373 0.0
H635 H 0.06507 0.30704 0.89492 0.0
H636 H 0.12004 0.36751 0.89999 0.0
C637 C 0.03672 0.4134 0.95545 0.0
C638 C 0.18969 0.05669 0.91069 0.0
C639 C 0.18662 0.01557 0.93052 0.0
H640 H 0.15925 0.12047 0.89968 0.0
C641 C 0.14768 1.00555 0.95189 0.0
H642 H 0.21971 0.0655 0.89456 0.0
C643 C 0.11311 0.03697 0.95461 0.0
C644 C 0.11748 0.0791 0.93668 0.0
H645 H 0.14478 0.97418 0.96765 0.0
H646 H 0.08406 0.0293 0.97239 0.0
C647 C 0.15554 0.08834 0.91402 0.0
C648 C 0.97048 0.83616 0.69333 0.0
C649 C 1.01142 0.83907 0.67314 0.0
H650 H 0.9068 0.86671 0.7048 0.0
C651 C 0.02119 0.87782 0.65146 0.0
H652 H 0.96185 0.80629 0.7097 0.0
C653 C 0.98975 0.91238 0.64888 0.0
C654 C 0.94781 0.9082 0.66725 0.0
H655 H 0.05241 0.88059 0.63542 0.0
H656 H 0.99725 0.9413 0.63092 0.0
C657 C 0.93879 0.87029 0.69013 0.0
C658 C 0.64806 0.02081 0.65223 0.0
C659 C 0.68694 1.01095 0.67371 0.0
H660 H 0.5845 0.99688 0.63175 0.0
C661 C 0.68999 0.96993 0.6937 0.0
H662 H 0.64517 0.05209 0.63635 0.0
C663 C 0.65588 0.93823 0.69044 0.0
C664 C 0.61787 0.94731 0.6677 0.0
H665 H 0.71997 0.96123 0.70992 0.0
H666 H 0.65959 0.90617 0.70493 0.0
C667 C 0.61352 0.98934 0.64959 0.0
C668 C 0.53703 0.61277 0.65121 0.0
C669 C 0.5792 0.6172 0.66909 0.0
H670 H 0.47419 0.64436 0.6382 0.0
C671 C 0.58849 0.65533 0.69167 0.0
H672 H 0.52933 0.58365 0.6335 0.0
C673 C 0.55684 0.68947 0.69499 0.0
C674 C 0.51566 0.68631 0.67522 0.0
H675 H 0.62067 0.65909 0.70597 0.0
H676 H 0.56567 0.71954 0.71105 0.0
C677 C 0.5056 0.64732 0.65392 0.0
C678 C 0.91308 0.53632 0.65062 0.0
C679 C 0.9088 0.57843 0.66871 0.0
H680 H 0.88139 0.47353 0.63749 0.0
C681 C 0.8708 0.58764 0.69147 0.0
H682 H 0.94207 0.52867 0.63275 0.0
C683 C 0.83666 0.55598 0.6948 0.0
C684 C 0.83968 0.51486 0.67487 0.0
H685 H 0.86714 0.61976 0.70593 0.0
H686 H 0.80671 0.56476 0.71105 0.0
C687 C 0.87853 0.50489 0.65334 0.0
C688 C 0.74411 0.24798 0.17497 0.0
C689 C 0.72464 0.23282 0.13982 0.0
H690 H 0.79474 0.29002 0.20142 0.0
C691 C 0.74288 0.24734 0.10431 0.0
H692 H 0.73081 0.23695 0.20284 0.0
C693 C 0.77955 0.27633 0.10343 0.0
C694 C 0.79887 0.29221 0.13815 0.0
H695 H 0.72879 0.23523 0.0772 0.0
H696 H 0.79252 0.28727 0.07549 0.0
C697 C 0.78056 0.27811 0.17414 0.0
C698 C 0.27424 0.7425 0.17514 0.0
C699 C 0.29222 0.72462 0.14038 0.0
H700 H 0.22998 0.79182 0.20064 0.0
C701 C 0.28084 0.74455 0.10475 0.0
H702 H 0.28292 0.72787 0.20313 0.0
C703 C 0.25187 0.78122 0.10327 0.0
C704 C 0.23289 0.79884 0.13755 0.0
H705 H 0.29518 0.73152 0.07806 0.0
H706 H 0.24328 0.79526 0.07512 0.0
C707 C 0.24417 0.77897 0.17369 0.0
C708 C 0.27933 0.74459 0.43273 0.0
C709 C 0.29814 0.73263 0.46913 0.0
H710 H 0.22911 0.78391 0.4027 0.0
C711 C 0.27948 0.75092 0.5033 0.0
H712 H 0.29299 0.73095 0.40587 0.0
C713 C 0.24286 0.77992 0.50138 0.0
C714 C 0.224 0.792 0.46549 0.0
H715 H 0.29268 0.74187 0.53167 0.0
H716 H 0.22905 0.79382 0.52792 0.0
C717 C 0.2429 0.77468 0.43088 0.0
C718 C 0.77815 0.27983 0.43138 0.0
C719 C 0.79178 0.29943 0.46701 0.0
H720 H 0.73737 0.22903 0.40362 0.0
C721 C 0.77549 0.28139 0.50205 0.0
H722 H 0.79043 0.293 0.40387 0.0
C723 C 0.74651 0.24468 0.5019 0.0
C724 C 0.73243 0.22516 0.46675 0.0
H725 H 0.78618 0.29539 0.52968 0.0
H726 H 0.73417 0.2316 0.52933 0.0
C727 C 0.74803 0.24336 0.43124 0.0
C728 C 0.24136 0.75145 0.93223 0.0
C729 C 0.22681 0.73269 0.96784 0.0
H730 H 0.288 0.79647 0.90408 0.0
C731 C 0.25004 0.74346 1.00218 0.0
H732 H 0.22415 0.74333 0.90523 0.0
C733 C 0.28664 0.77256 1.00139 0.0
C734 C 0.30091 0.79223 0.96636 0.0
H735 H 0.23977 0.72875 1.02965 0.0
H736 H 0.30337 0.78097 1.02842 0.0
C737 C 0.27777 0.78164 0.93159 0.0
C738 C 0.75055 0.28443 0.93168 0.0
C739 C 0.7328 0.3004 0.96725 0.0
H740 H 0.79468 0.23657 0.9039 0.0
C741 C 0.74453 0.27856 1.00198 0.0
H742 H 0.74167 0.30056 0.90438 0.0
C743 C 0.77353 0.24187 1.00165 0.0
C744 C 0.79216 0.22613 0.96661 0.0
H745 H 0.73054 0.28999 1.02939 0.0
H746 H 0.78256 0.22621 1.02901 0.0
C747 C 0.78066 0.24794 0.93142 0.0
C748 C 0.78233 0.24798 0.67438 0.0
C749 C 0.80004 0.2327 0.63853 0.0
H750 H 0.73303 0.29011 0.70269 0.0
C751 C 0.78005 0.24717 0.60371 0.0
H752 H 0.79702 0.23707 0.70174 0.0
C753 C 0.74333 0.27614 0.60428 0.0
C754 C 0.72574 0.29202 0.63965 0.0
H755 H 0.79267 0.23518 0.57596 0.0
H756 H 0.72888 0.28718 0.57698 0.0
C757 C 0.74583 0.27809 0.67492 0.0
C758 C 0.26992 0.78764 0.60501 0.0
C759 C 0.29174 0.80044 0.63956 0.0
H760 H 0.22448 0.74178 0.57731 0.0
C761 C 0.28301 0.77595 0.67402 0.0
H762 H 0.27674 0.80536 0.57815 0.0
C763 C 0.25283 0.73954 0.67354 0.0
C764 C 0.23212 0.72639 0.63835 0.0
H765 H 0.29939 0.78504 0.70118 0.0
H766 H 0.24629 0.7212 0.70027 0.0
C767 C 0.24077 0.75106 0.60438 0.0
C768 C 0.55223 0.01718 1.03206 0.0
C769 C 0.54995 0.03509 0.0703 0.0
H770 H 0.51825 0.98246 0.9856 0.0
C771 C 0.5097 0.03043 0.09121 0.0
H772 H 0.58274 0.01989 1.01503 0.0
C773 C 0.47284 1.00845 0.07435 0.0
C774 C 0.47512 0.99055 1.0361 0.0
H775 H 0.50683 0.04316 0.12082 0.0
H776 H 0.44233 1.00575 0.09138 0.0
C777 C 0.51537 0.9952 1.01521 0.0
C778 C 0.50832 0.5526 1.03378 0.0
C779 C 0.49003 0.55003 0.07186 0.0
H780 H 0.5436 0.51902 0.98738 0.0
C781 C 0.49459 0.50966 0.09254 0.0
H782 H 0.5057 0.58321 1.01692 0.0
C783 C 0.51685 0.47298 0.07562 0.0
C784 C 0.53513 0.47555 1.03754 0.0
H785 H 0.48157 0.50656 0.12202 0.0
H786 H 0.51946 0.44236 0.09247 0.0
C787 C 0.53058 0.51592 1.01687 0.0
C788 C 0.0153 0.49428 0.09037 0.0
C789 C 0.97498 0.49035 0.0695 0.0
H790 H 0.08283 0.51852 0.09085 0.0
C791 C 0.97276 0.50911 1.0316 0.0
H792 H 0.01815 0.48088 0.11973 0.0
C793 C 1.00973 0.53122 1.01506 0.0
C794 C 0.05005 0.53515 1.03594 0.0
H795 H 0.94219 0.50699 1.01459 0.0
H796 H 1.00689 0.54462 0.9857 0.0
C797 C 0.05227 0.51639 0.07384 0.0
C798 C 1.00883 0.05246 0.07279 0.0
C799 C 0.99043 0.05052 1.03473 0.0
H800 H 0.04384 0.01795 0.11873 0.0
C801 C 0.9945 1.01034 1.01361 0.0
H802 H 1.00659 0.0829 0.08999 0.0
C803 C 0.01638 0.97321 1.03007 0.0
C804 C 0.03478 0.97515 0.06813 0.0
H805 H 0.98138 1.00771 0.98413 0.0
H806 H 0.01862 0.94276 1.01288 0.0
C807 C 0.03072 0.01533 0.08925 0.0
C808 C 0.97283 0.0167 0.53047 0.0
C809 C 0.97535 0.03485 0.56862 0.0
H810 H 1.00649 0.98161 0.48401 0.0
C811 C 0.01571 0.03027 0.58933 0.0
H812 H 0.94223 0.01934 0.51358 0.0
C813 C 0.05243 1.00809 0.5724 0.0
C814 C 0.0499 0.98992 0.53425 0.0
H815 H 0.01877 0.04319 0.61886 0.0
H816 H 0.08302 1.00544 0.5893 0.0
C817 C 1.00955 0.99454 0.51354 0.0
C818 C 0.51662 0.05201 0.57422 0.0
C819 C 0.53472 0.04985 0.53605 0.0
H820 H 0.48176 0.01786 0.62045 0.0
C821 C 0.53025 1.00964 0.51503 0.0
H822 H 0.51917 0.08249 0.59133 0.0
C823 C 0.50828 0.9727 0.5317 0.0
C824 C 0.49019 0.97485 0.56988 0.0
H825 H 0.54314 1.00687 0.48547 0.0
H826 H 0.50573 0.94221 0.5146 0.0
C827 C 0.49464 0.01507 0.59089 0.0
C828 C 0.47299 0.51613 0.57607 0.0
C829 C 0.47497 0.53465 0.53808 0.0
H830 H 0.50741 0.48094 0.62194 0.0
C831 C 0.51518 0.53065 0.51701 0.0
H832 H 0.44252 0.51832 0.59322 0.0
C833 C 0.55227 0.50867 0.53344 0.0
C834 C 0.55028 0.49013 0.57144 0.0
H835 H 0.51784 0.54386 0.48757 0.0
H836 H 0.58274 0.50646 0.51629 0.0
C837 C 0.51008 0.49417 0.59251 0.0
C838 C 0.03065 0.50948 0.59058 0.0
C839 C 0.03476 0.54983 0.5698 0.0
H840 H 1.00627 0.442 0.59081 0.0
C841 C 0.01618 0.55216 0.53182 0.0
H842 H 0.0439 0.50656 0.61999 0.0
C843 C 0.99407 0.51527 0.51512 0.0
C844 C 0.98996 0.47492 0.5359 0.0
H845 H 0.01845 0.58273 0.51488 0.0
H846 H 0.98081 0.5182 0.48572 0.0
C847 C 1.00854 0.47259 0.57387 0.0
C848 C 0.60793 0.0755 0.33914 0.0
C849 C 0.57445 0.10851 0.33899 0.0
H850 H 0.64996 0.03245 0.3049 0.0
C851 C 0.55843 0.12452 0.30283 0.0
H852 H 0.62088 0.06255 0.36652 0.0
C853 C 0.57563 0.10795 0.26753 0.0
C854 C 0.60843 0.07428 0.26767 0.0
H855 H 0.53284 0.15024 0.30176 0.0
H856 H 0.56274 0.12097 0.24015 0.0
C857 C 0.62438 0.05819 0.30384 0.0
C858 C 0.44901 0.60911 0.34109 0.0
C859 C 0.41578 0.57586 0.3411 0.0
H860 H 0.49229 0.65059 0.30662 0.0
C861 C 0.39952 0.55979 0.30499 0.0
H862 H 0.46216 0.62209 0.36841 0.0
C863 C 0.41611 0.57663 0.2696 0.0
C864 C 0.45006 0.60914 0.26957 0.0
H865 H 0.37362 0.53436 0.30402 0.0
H866 H 0.40292 0.56366 0.24229 0.0
C867 C 0.46634 0.62521 0.30568 0.0
C868 C 0.89946 0.46547 0.30285 0.0
C869 C 0.91574 0.4493 0.26676 0.0
H870 H 0.90264 0.46157 0.36557 0.0
C871 C 0.9487 0.41579 0.26684 0.0
H872 H 0.87374 0.49108 0.30377 0.0
C873 C 0.96579 0.39956 0.30226 0.0
C874 C 0.94952 0.41574 0.33835 0.0
H875 H 0.96186 0.40271 0.23954 0.0
H876 H 0.99157 0.374 0.30136 0.0
C877 C 0.91581 0.4485 0.33827 0.0
C878 C 0.07613 0.91665 0.33657 0.0
C879 C 0.10869 0.95056 0.33656 0.0
H880 H 0.03379 0.87414 0.30218 0.0
C881 C 0.12472 0.96678 0.30044 0.0
H882 H 0.0632 0.90351 0.36389 0.0
C883 C 0.10855 0.9494 0.26506 0.0
C884 C 0.07528 0.91619 0.26508 0.0
H885 H 0.15013 0.9927 0.29949 0.0
H886 H 0.12152 0.96249 0.23773 0.0
C887 C 0.05923 0.90002 0.3012 0.0
C888 C 0.45026 0.91782 0.8387 0.0
C889 C 0.41739 0.95143 0.83852 0.0
H890 H 0.49311 0.87553 0.8045 0.0
C891 C 0.4014 0.96741 0.80233 0.0
H892 H 0.46318 0.90488 0.86609 0.0
C893 C 0.41785 0.95006 0.76704 0.0
C894 C 0.45139 0.91712 0.76722 0.0
H895 H 0.37576 0.9931 0.80124 0.0
H896 H 0.40485 0.96292 0.73965 0.0
C897 C 0.46747 0.90121 0.80341 0.0
C898 C 0.62582 0.46704 0.80446 0.0
C899 C 0.60974 0.4508 0.76835 0.0
H900 H 0.62237 0.46314 0.86716 0.0
C901 C 0.57675 0.41731 0.76834 0.0
H902 H 0.65154 0.49265 0.80542 0.0
C903 C 0.55951 0.40109 0.80371 0.0
C904 C 0.57564 0.41728 0.83983 0.0
H905 H 0.56375 0.40419 0.74102 0.0
H906 H 0.53377 0.3755 0.80274 0.0
C907 C 0.60932 0.45007 0.83984 0.0
C908 C 0.06036 0.62638 0.80322 0.0
C909 C 0.07657 0.61004 0.76716 0.0
H910 H 0.06428 0.62341 0.86594 0.0
C911 C 0.11022 0.57722 0.76731 0.0
H912 H 0.03463 0.65199 0.80408 0.0
C913 C 0.12655 0.56033 0.80278 0.0
C914 C 0.1103 0.57664 0.83884 0.0
H915 H 0.12334 0.56402 0.74005 0.0
H916 H 0.1522 0.53465 0.80192 0.0
C917 C 0.07741 0.61022 0.83868 0.0
C918 C 0.91717 0.07703 0.83783 0.0
C919 C 0.95069 0.10998 0.83779 0.0
H920 H 0.87529 0.03401 0.80347 0.0
C921 C 0.96686 0.12602 0.80166 0.0
H922 H 0.90409 0.06407 0.86517 0.0
C923 C 0.94982 0.10947 0.76629 0.0
C924 C 0.91702 0.0758 0.76634 0.0
H925 H 0.99249 0.15171 0.80067 0.0
H926 H 0.96286 0.12247 0.73896 0.0
C927 C 0.90088 0.05974 0.80247 0.0
loop_
_geom_bond_atom_site_label_1
_geom_bond_atom_site_label_2
_geom_bond_distance
_geom_bond_site_symmetry_2
_ccdc_geom_bond_type
C0 C1 1.351 . S
C0 N3 1.368 . S
C0 H5 0.931 . S
C1 C0 1.351 . S
C1 N2 1.373 . S
C1 H29 0.930 . S
N2 C1 1.373 . S
N2 C4 1.340 . S
N3 C0 1.368 . S
N3 C4 1.321 . S
N3 Co6 2.135 . S
C4 N2 1.340 . S
C4 N3 1.321 . S
C4 H28 0.930 . S
H5 C0 0.931 . S
Co6 N3 2.135 . S
Co6 N9 2.121 1_545 S
Co6 O14 2.055 . S
Co6 O17 2.039 . S
Co6 N20 2.140 . S
C7 O8 1.227 . S
C7 O17 1.265 . S
O8 C7 1.227 . S
N9 Co6 2.121 1_565 S
N9 C11 1.375 . S
N9 C12 1.313 . S
C10 C11 1.338 . S
C10 N13 1.377 . S
C10 H30 0.930 . S
C11 N9 1.375 . S
C11 C10 1.338 . S
C11 H15 0.931 . S
C12 N9 1.313 . S
C12 N13 1.344 . S
C12 H16 0.930 . S
N13 C10 1.377 . S
N13 C12 1.344 . S
O14 Co6 2.055 . S
O14 C18 1.253 . S
H15 C11 0.931 . S
H16 C12 0.930 . S
O17 Co6 2.039 . S
O17 C7 1.265 . S
C18 O14 1.253 . S
C18 O19 1.227 . S
O19 C18 1.227 . S
N20 Co6 2.140 . S
N20 C23 1.346 . S
N20 C24 1.345 1_545 S
C21 C22 1.387 1_565 S
C21 C25 1.391 . S
C22 C21 1.387 1_545 S
C22 C23 1.369 . S
C22 H31 0.929 . S
C23 N20 1.346 . S
C23 C22 1.369 . S
C23 H26 0.928 . S
C24 N20 1.345 1_565 S
C24 C25 1.371 . S
C24 H27 0.931 . S
C25 C21 1.391 . S
C25 C24 1.371 . S
C25 H32 0.930 . S
H26 C23 0.928 . S
H27 C24 0.931 . S
H28 C4 0.930 . S
H29 C1 0.930 . S
H30 C10 0.930 . S
H31 C22 0.929 . S
H32 C25 0.930 . S
C33 C34 1.351 . S
C33 N36 1.368 . S
C33 H38 0.931 . S
C34 C33 1.351 . S
C34 N35 1.373 . S
C34 H62 0.930 . S
N35 C34 1.373 . S
N35 C37 1.340 . S
N36 C33 1.368 . S
N36 C37 1.321 . S
N36 Co39 2.135 . S
C37 N35 1.340 . S
C37 N36 1.321 . S
C37 H61 0.930 . S
H38 C33 0.931 . S
Co39 N36 2.135 . S
Co39 N42 2.121 . S
Co39 O47 2.055 . S
Co39 O50 2.039 . S
Co39 N53 2.140 . S
C40 O41 1.227 . S
C40 O50 1.265 . S
O41 C40 1.227 . S
N42 Co39 2.121 . S
N42 C44 1.375 . S
N42 C45 1.313 . S
C43 C44 1.338 . S
C43 N46 1.377 . S
C43 H63 0.930 . S
C44 N42 1.375 . S
C44 C43 1.338 . S
C44 H48 0.931 . S
C45 N42 1.313 . S
C45 N46 1.344 . S
C45 H49 0.930 . S
N46 C43 1.377 . S
N46 C45 1.344 . S
O47 Co39 2.055 . S
O47 C51 1.253 . S
H48 C44 0.931 . S
H49 C45 0.930 . S
O50 Co39 2.039 . S
O50 C40 1.265 . S
C51 O47 1.253 . S
C51 O52 1.227 . S
O52 C51 1.227 . S
N53 Co39 2.140 . S
N53 C56 1.346 . S
N53 C57 1.345 . S
C54 C55 1.387 . S
C54 C58 1.391 . S
C55 C54 1.387 . S
C55 C56 1.369 . S
C55 H64 0.929 . S
C56 N53 1.346 . S
C56 C55 1.369 . S
C56 H59 0.928 . S
C57 N53 1.345 . S
C57 C58 1.371 . S
C57 H60 0.931 . S
C58 C54 1.391 . S
C58 C57 1.371 . S
C58 H65 0.930 . S
H59 C56 0.928 . S
H60 C57 0.931 . S
H61 C37 0.930 . S
H62 C34 0.930 . S
H63 C43 0.930 . S
H64 C55 0.929 . S
H65 C58 0.930 . S
C66 C67 1.351 . S
C66 N69 1.368 . S
C66 H71 0.931 . S
C67 C66 1.351 . S
C67 N68 1.373 . S
C67 H95 0.930 . S
N68 C67 1.373 . S
N68 C70 1.340 . S
N69 C66 1.368 . S
N69 C70 1.321 . S
N69 Co72 2.135 . S
C70 N68 1.340 . S
C70 N69 1.321 . S
C70 H94 0.930 . S
H71 C66 0.931 . S
Co72 N69 2.135 . S
Co72 N75 2.121 . S
Co72 O80 2.055 . S
Co72 O83 2.039 . S
Co72 N86 2.140 . S
C73 O74 1.227 . S
C73 O83 1.265 . S
O74 C73 1.227 . S
N75 Co72 2.121 . S
N75 C77 1.375 . S
N75 C78 1.313 . S
C76 C77 1.338 . S
C76 N79 1.377 . S
C76 H96 0.930 . S
C77 N75 1.375 . S
C77 C76 1.338 . S
C77 H81 0.931 . S
C78 N75 1.313 . S
C78 N79 1.344 . S
C78 H82 0.930 . S
N79 C76 1.377 . S
N79 C78 1.344 . S
O80 Co72 2.055 . S
O80 C84 1.253 . S
H81 C77 0.931 . S
H82 C78 0.930 . S
O83 Co72 2.039 . S
O83 C73 1.265 . S
C84 O80 1.253 . S
C84 O85 1.227 . S
O85 C84 1.227 . S
N86 Co72 2.140 . S
N86 C89 1.346 . S
N86 C90 1.345 . S
C87 C88 1.387 . S
C87 C91 1.391 . S
C88 C87 1.387 . S
C88 C89 1.369 . S
C88 H97 0.929 . S
C89 N86 1.346 . S
C89 C88 1.369 . S
C89 H92 0.928 . S
C90 N86 1.345 . S
C90 C91 1.371 . S
C90 H93 0.931 . S
C91 C87 1.391 . S
C91 C90 1.371 . S
C91 H98 0.930 . S
H92 C89 0.928 . S
H93 C90 0.931 . S
H94 C70 0.930 . S
H95 C67 0.930 . S
H96 C76 0.930 . S
H97 C88 0.929 . S
H98 C91 0.930 . S
C99 C100 1.351 . S
C99 N102 1.368 . S
C99 H104 0.931 . S
C100 C99 1.351 . S
C100 N101 1.373 . S
C100 H128 0.930 . S
N101 C100 1.373 . S
N101 C103 1.340 . S
N102 C99 1.368 . S
N102 C103 1.321 . S
N102 Co105 2.135 . S
C103 N101 1.340 . S
C103 N102 1.321 . S
C103 H127 0.930 . S
H104 C99 0.931 . S
Co105 N102 2.135 . S
Co105 N108 2.121 1_455 S
Co105 O113 2.055 . S
Co105 O116 2.039 . S
Co105 N119 2.140 . S
C106 O107 1.227 . S
C106 O116 1.265 . S
O107 C106 1.227 . S
N108 Co105 2.121 1_655 S
N108 C110 1.375 . S
N108 C111 1.313 . S
C109 C110 1.338 . S
C109 N112 1.377 . S
C109 H129 0.930 . S
C110 N108 1.375 . S
C110 C109 1.338 . S
C110 H114 0.931 . S
C111 N108 1.313 . S
C111 N112 1.344 . S
C111 H115 0.930 . S
N112 C109 1.377 . S
N112 C111 1.344 . S
O113 Co105 2.055 . S
O113 C117 1.253 . S
H114 C110 0.931 . S
H115 C111 0.930 . S
O116 Co105 2.039 . S
O116 C106 1.265 . S
C117 O113 1.253 . S
C117 O118 1.227 . S
O118 C117 1.227 . S
N119 Co105 2.140 . S
N119 C122 1.346 . S
N119 C123 1.345 1_455 S
C120 C121 1.387 1_655 S
C120 C124 1.391 . S
C121 C120 1.387 1_455 S
C121 C122 1.369 . S
C121 H130 0.929 . S
C122 N119 1.346 . S
C122 C121 1.369 . S
C122 H125 0.928 . S
C123 N119 1.345 1_655 S
C123 C124 1.371 . S
C123 H126 0.931 . S
C124 C120 1.391 . S
C124 C123 1.371 . S
C124 H131 0.930 . S
H125 C122 0.928 . S
H126 C123 0.931 . S
H127 C103 0.930 . S
H128 C100 0.930 . S
H129 C109 0.930 . S
H130 C121 0.929 . S
H131 C124 0.930 . S
C132 C133 1.351 . S
C132 N135 1.368 . S
C132 H137 0.931 . S
C133 C132 1.351 . S
C133 N134 1.373 . S
C133 H161 0.930 . S
N134 C133 1.373 . S
N134 C136 1.340 . S
N135 C132 1.368 . S
N135 C136 1.321 . S
N135 Co138 2.135 . S
C136 N134 1.340 . S
C136 N135 1.321 . S
C136 H160 0.930 . S
H137 C132 0.931 . S
Co138 N135 2.135 . S
Co138 N141 2.121 1_565 S
Co138 O146 2.055 . S
Co138 O149 2.039 . S
Co138 N152 2.140 . S
C139 O140 1.227 . S
C139 O149 1.265 . S
O140 C139 1.227 . S
N141 Co138 2.121 1_545 S
N141 C143 1.375 . S
N141 C144 1.313 . S
C142 C143 1.338 . S
C142 N145 1.377 . S
C142 H162 0.930 . S
C143 N141 1.375 . S
C143 C142 1.338 . S
C143 H147 0.931 . S
C144 N141 1.313 . S
C144 N145 1.344 . S
C144 H148 0.930 . S
N145 C142 1.377 . S
N145 C144 1.344 . S
O146 Co138 2.055 . S
O146 C150 1.253 . S
H147 C143 0.931 . S
H148 C144 0.930 . S
O149 Co138 2.039 . S
O149 C139 1.265 . S
C150 O146 1.253 . S
C150 O151 1.227 . S
O151 C150 1.227 . S
N152 Co138 2.140 . S
N152 C155 1.346 . S
N152 C156 1.345 1_565 S
C153 C154 1.387 1_545 S
C153 C157 1.391 . S
C154 C153 1.387 1_565 S
C154 C155 1.369 . S
C154 H163 0.929 . S
C155 N152 1.346 . S
C155 C154 1.369 . S
C155 H158 0.928 . S
C156 N152 1.345 1_545 S
C156 C157 1.371 . S
C156 H159 0.931 . S
C157 C153 1.391 . S
C157 C156 1.371 . S
C157 H164 0.930 . S
H158 C155 0.928 . S
H159 C156 0.931 . S
H160 C136 0.930 . S
H161 C133 0.930 . S
H162 C142 0.930 . S
H163 C154 0.929 . S
H164 C157 0.930 . S
C165 C166 1.351 . S
C165 N168 1.368 . S
C165 H170 0.931 . S
C166 C165 1.351 . S
C166 N167 1.373 . S
C166 H194 0.930 . S
N167 C166 1.373 . S
N167 C169 1.340 . S
N168 C165 1.368 . S
N168 C169 1.321 . S
N168 Co171 2.135 . S
C169 N167 1.340 . S
C169 N168 1.321 . S
C169 H193 0.930 . S
H170 C165 0.931 . S
Co171 N168 2.135 . S
Co171 N174 2.121 . S
Co171 O179 2.055 . S
Co171 O182 2.039 . S
Co171 N185 2.140 . S
C172 O173 1.227 . S
C172 O182 1.265 . S
O173 C172 1.227 . S
N174 Co171 2.121 . S
N174 C176 1.375 . S
N174 C177 1.313 . S
C175 C176 1.338 . S
C175 N178 1.377 . S
C175 H195 0.930 . S
C176 N174 1.375 . S
C176 C175 1.338 . S
C176 H180 0.931 . S
C177 N174 1.313 . S
C177 N178 1.344 . S
C177 H181 0.930 . S
N178 C175 1.377 . S
N178 C177 1.344 . S
O179 Co171 2.055 . S
O179 C183 1.253 . S
H180 C176 0.931 . S
H181 C177 0.930 . S
O182 Co171 2.039 . S
O182 C172 1.265 . S
C183 O179 1.253 . S
C183 O184 1.227 . S
O184 C183 1.227 . S
N185 Co171 2.140 . S
N185 C188 1.346 . S
N185 C189 1.345 . S
C186 C187 1.387 . S
C186 C190 1.391 . S
C187 C186 1.387 . S
C187 C188 1.369 . S
C187 H196 0.929 . S
C188 N185 1.346 . S
C188 C187 1.369 . S
C188 H191 0.928 . S
C189 N185 1.345 . S
C189 C190 1.371 . S
C189 H192 0.931 . S
C190 C186 1.391 . S
C190 C189 1.371 . S
C190 H197 0.930 . S
H191 C188 0.928 . S
H192 C189 0.931 . S
H193 C169 0.930 . S
H194 C166 0.930 . S
H195 C175 0.930 . S
H196 C187 0.929 . S
H197 C190 0.930 . S
C198 C199 1.351 . S
C198 N201 1.368 . S
C198 H203 0.931 . S
C199 C198 1.351 . S
C199 N200 1.373 . S
C199 H227 0.930 . S
N200 C199 1.373 . S
N200 C202 1.340 . S
N201 C198 1.368 . S
N201 C202 1.321 . S
N201 Co204 2.135 . S
C202 N200 1.340 . S
C202 N201 1.321 . S
C202 H226 0.930 . S
H203 C198 0.931 . S
Co204 N201 2.135 . S
Co204 N207 2.121 . S
Co204 O212 2.055 . S
Co204 O215 2.039 . S
Co204 N218 2.140 . S
C205 O206 1.227 . S
C205 O215 1.265 . S
O206 C205 1.227 . S
N207 Co204 2.121 . S
N207 C209 1.375 . S
N207 C210 1.313 . S
C208 C209 1.338 . S
C208 N211 1.377 . S
C208 H228 0.930 . S
C209 N207 1.375 . S
C209 C208 1.338 . S
C209 H213 0.931 . S
C210 N207 1.313 . S
C210 N211 1.344 . S
C210 H214 0.930 . S
N211 C208 1.377 . S
N211 C210 1.344 . S
O212 Co204 2.055 . S
O212 C216 1.253 . S
H213 C209 0.931 . S
H214 C210 0.930 . S
O215 Co204 2.039 . S
O215 C205 1.265 . S
C216 O212 1.253 . S
C216 O217 1.227 . S
O217 C216 1.227 . S
N218 Co204 2.140 . S
N218 C221 1.346 . S
N218 C222 1.345 . S
C219 C220 1.387 . S
C219 C223 1.391 . S
C220 C219 1.387 . S
C220 C221 1.369 . S
C220 H229 0.929 . S
C221 N218 1.346 . S
C221 C220 1.369 . S
C221 H224 0.928 . S
C222 N218 1.345 . S
C222 C223 1.371 . S
C222 H225 0.931 . S
C223 C219 1.391 . S
C223 C222 1.371 . S
C223 H230 0.930 . S
H224 C221 0.928 . S
H225 C222 0.931 . S
H226 C202 0.930 . S
H227 C199 0.930 . S
H228 C208 0.930 . S
H229 C220 0.929 . S
H230 C223 0.930 . S
C231 C232 1.351 . S
C231 N234 1.368 . S
C231 H236 0.931 . S
C232 C231 1.351 . S
C232 N233 1.373 . S
C232 H260 0.930 . S
N233 C232 1.373 . S
N233 C235 1.340 . S
N234 C231 1.368 . S
N234 C235 1.321 . S
N234 Co237 2.135 . S
C235 N233 1.340 . S
C235 N234 1.321 . S
C235 H259 0.930 . S
H236 C231 0.931 . S
Co237 N234 2.135 . S
Co237 N240 2.121 1_655 S
Co237 O245 2.055 . S
Co237 O248 2.039 . S
Co237 N251 2.140 . S
C238 O239 1.227 . S
C238 O248 1.265 . S
O239 C238 1.227 . S
N240 Co237 2.121 1_455 S
N240 C242 1.375 . S
N240 C243 1.313 . S
C241 C242 1.338 . S
C241 N244 1.377 . S
C241 H261 0.930 . S
C242 N240 1.375 . S
C242 C241 1.338 . S
C242 H246 0.931 . S
C243 N240 1.313 . S
C243 N244 1.344 . S
C243 H247 0.930 . S
N244 C241 1.377 . S
N244 C243 1.344 . S
O245 Co237 2.055 . S
O245 C249 1.253 . S
H246 C242 0.931 . S
H247 C243 0.930 . S
O248 Co237 2.039 . S
O248 C238 1.265 . S
C249 O245 1.253 . S
C249 O250 1.227 . S
O250 C249 1.227 . S
N251 Co237 2.140 . S
N251 C254 1.346 . S
N251 C255 1.345 1_655 S
C252 C253 1.387 1_455 S
C252 C256 1.391 . S
C253 C252 1.387 1_655 S
C253 C254 1.369 . S
C253 H262 0.929 . S
C254 N251 1.346 . S
C254 C253 1.369 . S
C254 H257 0.928 . S
C255 N251 1.345 1_455 S
C255 C256 1.371 . S
C255 H258 0.931 . S
C256 C252 1.391 . S
C256 C255 1.371 . S
C256 H263 0.930 . S
H257 C254 0.928 . S
H258 C255 0.931 . S
H259 C235 0.930 . S
H260 C232 0.930 . S
H261 C241 0.930 . S
H262 C253 0.929 . S
H263 C256 0.930 . S
C264 C265 1.351 . S
C264 N267 1.368 . S
C264 H269 0.931 . S
C265 C264 1.351 . S
C265 N266 1.373 . S
C265 H293 0.930 . S
N266 C265 1.373 . S
N266 C268 1.340 . S
N267 C264 1.368 . S
N267 C268 1.321 . S
N267 Co270 2.135 . S
C268 N266 1.340 . S
C268 N267 1.321 . S
C268 H292 0.930 . S
H269 C264 0.931 . S
Co270 N267 2.135 . S
Co270 N273 2.121 1_565 S
Co270 O278 2.055 . S
Co270 O281 2.039 . S
Co270 N284 2.140 . S
C271 O272 1.227 . S
C271 O281 1.265 . S
O272 C271 1.227 . S
N273 Co270 2.121 1_545 S
N273 C275 1.375 . S
N273 C276 1.313 . S
C274 C275 1.338 . S
C274 N277 1.377 . S
C274 H294 0.930 . S
C275 N273 1.375 . S
C275 C274 1.338 . S
C275 H279 0.931 . S
C276 N273 1.313 . S
C276 N277 1.344 . S
C276 H280 0.930 . S
N277 C274 1.377 . S
N277 C276 1.344 . S
O278 Co270 2.055 . S
O278 C282 1.253 . S
H279 C275 0.931 . S
H280 C276 0.930 . S
O281 Co270 2.039 . S
O281 C271 1.265 . S
C282 O278 1.253 . S
C282 O283 1.227 . S
O283 C282 1.227 . S
N284 Co270 2.140 . S
N284 C287 1.346 . S
N284 C288 1.345 1_565 S
C285 C286 1.387 1_545 S
C285 C289 1.391 . S
C286 C285 1.387 1_565 S
C286 C287 1.369 . S
C286 H295 0.929 . S
C287 N284 1.346 . S
C287 C286 1.369 . S
C287 H290 0.928 . S
C288 N284 1.345 1_545 S
C288 C289 1.371 . S
C288 H291 0.931 . S
C289 C285 1.391 . S
C289 C288 1.371 . S
C289 H296 0.930 . S
H290 C287 0.928 . S
H291 C288 0.931 . S
H292 C268 0.930 . S
H293 C265 0.930 . S
H294 C274 0.930 . S
H295 C286 0.929 . S
H296 C289 0.930 . S
C297 C298 1.351 . S
C297 N300 1.368 . S
C297 H302 0.931 . S
C298 C297 1.351 . S
C298 N299 1.373 . S
C298 H326 0.930 . S
N299 C298 1.373 . S
N299 C301 1.340 . S
N300 C297 1.368 . S
N300 C301 1.321 . S
N300 Co303 2.135 . S
C301 N299 1.340 . S
C301 N300 1.321 . S
C301 H325 0.930 . S
H302 C297 0.931 . S
Co303 N300 2.135 . S
Co303 N306 2.121 . S
Co303 O311 2.055 . S
Co303 O314 2.039 . S
Co303 N317 2.140 . S
C304 O305 1.227 . S
C304 O314 1.265 . S
O305 C304 1.227 . S
N306 Co303 2.121 . S
N306 C308 1.375 . S
N306 C309 1.313 . S
C307 C308 1.338 . S
C307 N310 1.377 . S
C307 H327 0.930 . S
C308 N306 1.375 . S
C308 C307 1.338 . S
C308 H312 0.931 . S
C309 N306 1.313 . S
C309 N310 1.344 . S
C309 H313 0.930 . S
N310 C307 1.377 . S
N310 C309 1.344 . S
O311 Co303 2.055 . S
O311 C315 1.253 . S
H312 C308 0.931 . S
H313 C309 0.930 . S
O314 Co303 2.039 . S
O314 C304 1.265 . S
C315 O311 1.253 . S
C315 O316 1.227 . S
O316 C315 1.227 . S
N317 Co303 2.140 . S
N317 C320 1.346 . S
N317 C321 1.345 . S
C318 C319 1.387 . S
C318 C322 1.391 . S
C319 C318 1.387 . S
C319 C320 1.369 . S
C319 H328 0.929 . S
C320 N317 1.346 . S
C320 C319 1.369 . S
C320 H323 0.928 . S
C321 N317 1.345 . S
C321 C322 1.371 . S
C321 H324 0.931 . S
C322 C318 1.391 . S
C322 C321 1.371 . S
C322 H329 0.930 . S
H323 C320 0.928 . S
H324 C321 0.931 . S
H325 C301 0.930 . S
H326 C298 0.930 . S
H327 C307 0.930 . S
H328 C319 0.929 . S
H329 C322 0.930 . S
C330 C331 1.351 . S
C330 N333 1.368 . S
C330 H335 0.931 . S
C331 C330 1.351 . S
C331 N332 1.373 . S
C331 H359 0.930 . S
N332 C331 1.373 . S
N332 C334 1.340 . S
N333 C330 1.368 . S
N333 C334 1.321 . S
N333 Co336 2.135 . S
C334 N332 1.340 . S
C334 N333 1.321 . S
C334 H358 0.930 . S
H335 C330 0.931 . S
Co336 N333 2.135 . S
Co336 N339 2.121 . S
Co336 O344 2.055 . S
Co336 O347 2.039 . S
Co336 N350 2.140 . S
C337 O338 1.227 . S
C337 O347 1.265 . S
O338 C337 1.227 . S
N339 Co336 2.121 . S
N339 C341 1.375 . S
N339 C342 1.313 . S
C340 C341 1.338 . S
C340 N343 1.377 . S
C340 H360 0.930 . S
C341 N339 1.375 . S
C341 C340 1.338 . S
C341 H345 0.931 . S
C342 N339 1.313 . S
C342 N343 1.344 . S
C342 H346 0.930 . S
N343 C340 1.377 . S
N343 C342 1.344 . S
O344 Co336 2.055 . S
O344 C348 1.253 . S
H345 C341 0.931 . S
H346 C342 0.930 . S
O347 Co336 2.039 . S
O347 C337 1.265 . S
C348 O344 1.253 . S
C348 O349 1.227 . S
O349 C348 1.227 . S
N350 Co336 2.140 . S
N350 C353 1.346 . S
N350 C354 1.345 . S
C351 C352 1.387 . S
C351 C355 1.391 . S
C352 C351 1.387 . S
C352 C353 1.369 . S
C352 H361 0.929 . S
C353 N350 1.346 . S
C353 C352 1.369 . S
C353 H356 0.928 . S
C354 N350 1.345 . S
C354 C355 1.371 . S
C354 H357 0.931 . S
C355 C351 1.391 . S
C355 C354 1.371 . S
C355 H362 0.930 . S
H356 C353 0.928 . S
H357 C354 0.931 . S
H358 C334 0.930 . S
H359 C331 0.930 . S
H360 C340 0.930 . S
H361 C352 0.929 . S
H362 C355 0.930 . S
C363 C364 1.351 . S
C363 N366 1.368 . S
C363 H368 0.931 . S
C364 C363 1.351 . S
C364 N365 1.373 . S
C364 H392 0.930 . S
N365 C364 1.373 . S
N365 C367 1.340 . S
N366 C363 1.368 . S
N366 C367 1.321 . S
N366 Co369 2.135 . S
C367 N365 1.340 . S
C367 N366 1.321 . S
C367 H391 0.930 . S
H368 C363 0.931 . S
Co369 N366 2.135 . S
Co369 N372 2.121 1_655 S
Co369 O377 2.055 . S
Co369 O380 2.039 . S
Co369 N383 2.140 . S
C370 O371 1.227 . S
C370 O380 1.265 . S
O371 C370 1.227 . S
N372 Co369 2.121 1_455 S
N372 C374 1.375 . S
N372 C375 1.313 . S
C373 C374 1.338 . S
C373 N376 1.377 . S
C373 H393 0.930 . S
C374 N372 1.375 . S
C374 C373 1.338 . S
C374 H378 0.931 . S
C375 N372 1.313 . S
C375 N376 1.344 . S
C375 H379 0.930 . S
N376 C373 1.377 . S
N376 C375 1.344 . S
O377 Co369 2.055 . S
O377 C381 1.253 . S
H378 C374 0.931 . S
H379 C375 0.930 . S
O380 Co369 2.039 . S
O380 C370 1.265 . S
C381 O377 1.253 . S
C381 O382 1.227 . S
O382 C381 1.227 . S
N383 Co369 2.140 . S
N383 C386 1.346 . S
N383 C387 1.345 1_655 S
C384 C385 1.387 1_455 S
C384 C388 1.391 . S
C385 C384 1.387 1_655 S
C385 C386 1.369 . S
C385 H394 0.929 . S
C386 N383 1.346 . S
C386 C385 1.369 . S
C386 H389 0.928 . S
C387 N383 1.345 1_455 S
C387 C388 1.371 . S
C387 H390 0.931 . S
C388 C384 1.391 . S
C388 C387 1.371 . S
C388 H395 0.930 . S
H389 C386 0.928 . S
H390 C387 0.931 . S
H391 C367 0.930 . S
H392 C364 0.930 . S
H393 C373 0.930 . S
H394 C385 0.929 . S
H395 C388 0.930 . S
C396 C397 1.351 . S
C396 N399 1.368 . S
C396 H401 0.931 . S
C397 C396 1.351 . S
C397 N398 1.373 . S
C397 H425 0.930 . S
N398 C397 1.373 . S
N398 C400 1.340 . S
N399 C396 1.368 . S
N399 C400 1.321 . S
N399 Co402 2.135 . S
C400 N398 1.340 . S
C400 N399 1.321 . S
C400 H424 0.930 . S
H401 C396 0.931 . S
Co402 N399 2.135 . S
Co402 N405 2.121 1_545 S
Co402 O410 2.055 . S
Co402 O413 2.039 . S
Co402 N416 2.140 . S
C403 O404 1.227 . S
C403 O413 1.265 . S
O404 C403 1.227 . S
N405 Co402 2.121 1_565 S
N405 C407 1.375 . S
N405 C408 1.313 . S
C406 C407 1.338 . S
C406 N409 1.377 . S
C406 H426 0.930 . S
C407 N405 1.375 . S
C407 C406 1.338 . S
C407 H411 0.931 . S
C408 N405 1.313 . S
C408 N409 1.344 . S
C408 H412 0.930 . S
N409 C406 1.377 . S
N409 C408 1.344 . S
O410 Co402 2.055 . S
O410 C414 1.253 . S
H411 C407 0.931 . S
H412 C408 0.930 . S
O413 Co402 2.039 . S
O413 C403 1.265 . S
C414 O410 1.253 . S
C414 O415 1.227 . S
O415 C414 1.227 . S
N416 Co402 2.140 . S
N416 C419 1.346 . S
N416 C420 1.345 1_545 S
C417 C418 1.387 1_565 S
C417 C421 1.391 . S
C418 C417 1.387 1_545 S
C418 C419 1.369 . S
C418 H427 0.929 . S
C419 N416 1.346 . S
C419 C418 1.369 . S
C419 H422 0.928 . S
C420 N416 1.345 1_565 S
C420 C421 1.371 . S
C420 H423 0.931 . S
C421 C417 1.391 . S
C421 C420 1.371 . S
C421 H428 0.930 . S
H422 C419 0.928 . S
H423 C420 0.931 . S
H424 C400 0.930 . S
H425 C397 0.930 . S
H426 C406 0.930 . S
H427 C418 0.929 . S
H428 C421 0.930 . S
C429 C430 1.351 . S
C429 N432 1.368 . S
C429 H434 0.931 . S
C430 C429 1.351 . S
C430 N431 1.373 . S
C430 H458 0.930 . S
N431 C430 1.373 . S
N431 C433 1.340 . S
N432 C429 1.368 . S
N432 C433 1.321 . S
N432 Co435 2.135 . S
C433 N431 1.340 . S
C433 N432 1.321 . S
C433 H457 0.930 . S
H434 C429 0.931 . S
Co435 N432 2.135 . S
Co435 N438 2.121 . S
Co435 O443 2.055 . S
Co435 O446 2.039 . S
Co435 N449 2.140 . S
C436 O437 1.227 . S
C436 O446 1.265 . S
O437 C436 1.227 . S
N438 Co435 2.121 . S
N438 C440 1.375 . S
N438 C441 1.313 . S
C439 C440 1.338 . S
C439 N442 1.377 . S
C439 H459 0.930 . S
C440 N438 1.375 . S
C440 C439 1.338 . S
C440 H444 0.931 . S
C441 N438 1.313 . S
C441 N442 1.344 . S
C441 H445 0.930 . S
N442 C439 1.377 . S
N442 C441 1.344 . S
O443 Co435 2.055 . S
O443 C447 1.253 . S
H444 C440 0.931 . S
H445 C441 0.930 . S
O446 Co435 2.039 . S
O446 C436 1.265 . S
C447 O443 1.253 . S
C447 O448 1.227 . S
O448 C447 1.227 . S
N449 Co435 2.140 . S
N449 C452 1.346 . S
N449 C453 1.345 . S
C450 C451 1.387 . S
C450 C454 1.391 . S
C451 C450 1.387 . S
C451 C452 1.369 . S
C451 H460 0.929 . S
C452 N449 1.346 . S
C452 C451 1.369 . S
C452 H455 0.928 . S
C453 N449 1.345 . S
C453 C454 1.371 . S
C453 H456 0.931 . S
C454 C450 1.391 . S
C454 C453 1.371 . S
C454 H461 0.930 . S
H455 C452 0.928 . S
H456 C453 0.931 . S
H457 C433 0.930 . S
H458 C430 0.930 . S
H459 C439 0.930 . S
H460 C451 0.929 . S
H461 C454 0.930 . S
C462 C463 1.351 . S
C462 N465 1.368 . S
C462 H467 0.931 . S
C463 C462 1.351 . S
C463 N464 1.373 . S
C463 H491 0.930 . S
N464 C463 1.373 . S
N464 C466 1.340 . S
N465 C462 1.368 . S
N465 C466 1.321 . S
N465 Co468 2.135 . S
C466 N464 1.340 . S
C466 N465 1.321 . S
C466 H490 0.930 . S
H467 C462 0.931 . S
Co468 N465 2.135 . S
Co468 N471 2.121 . S
Co468 O476 2.055 . S
Co468 O479 2.039 . S
Co468 N482 2.140 . S
C469 O470 1.227 . S
C469 O479 1.265 . S
O470 C469 1.227 . S
N471 Co468 2.121 . S
N471 C473 1.375 . S
N471 C474 1.313 . S
C472 C473 1.338 . S
C472 N475 1.377 . S
C472 H492 0.930 . S
C473 N471 1.375 . S
C473 C472 1.338 . S
C473 H477 0.931 . S
C474 N471 1.313 . S
C474 N475 1.344 . S
C474 H478 0.930 . S
N475 C472 1.377 . S
N475 C474 1.344 . S
O476 Co468 2.055 . S
O476 C480 1.253 . S
H477 C473 0.931 . S
H478 C474 0.930 . S
O479 Co468 2.039 . S
O479 C469 1.265 . S
C480 O476 1.253 . S
C480 O481 1.227 . S
O481 C480 1.227 . S
N482 Co468 2.140 . S
N482 C485 1.346 . S
N482 C486 1.345 . S
C483 C484 1.387 . S
C483 C487 1.391 . S
C484 C483 1.387 . S
C484 C485 1.369 . S
C484 H493 0.929 . S
C485 N482 1.346 . S
C485 C484 1.369 . S
C485 H488 0.928 . S
C486 N482 1.345 . S
C486 C487 1.371 . S
C486 H489 0.931 . S
C487 C483 1.391 . S
C487 C486 1.371 . S
C487 H494 0.930 . S
H488 C485 0.928 . S
H489 C486 0.931 . S
H490 C466 0.930 . S
H491 C463 0.930 . S
H492 C472 0.930 . S
H493 C484 0.929 . S
H494 C487 0.930 . S
C495 C496 1.351 . S
C495 N498 1.368 . S
C495 H500 0.931 . S
C496 C495 1.351 . S
C496 N497 1.373 . S
C496 H524 0.930 . S
N497 C496 1.373 . S
N497 C499 1.340 . S
N498 C495 1.368 . S
N498 C499 1.321 . S
N498 Co501 2.135 . S
C499 N497 1.340 . S
C499 N498 1.321 . S
C499 H523 0.930 . S
H500 C495 0.931 . S
Co501 N498 2.135 . S
Co501 N504 2.121 1_455 S
Co501 O509 2.055 . S
Co501 O512 2.039 . S
Co501 N515 2.140 . S
C502 O503 1.227 . S
C502 O512 1.265 . S
O503 C502 1.227 . S
N504 Co501 2.121 1_655 S
N504 C506 1.375 . S
N504 C507 1.313 . S
C505 C506 1.338 . S
C505 N508 1.377 . S
C505 H525 0.930 . S
C506 N504 1.375 . S
C506 C505 1.338 . S
C506 H510 0.931 . S
C507 N504 1.313 . S
C507 N508 1.344 . S
C507 H511 0.930 . S
N508 C505 1.377 . S
N508 C507 1.344 . S
O509 Co501 2.055 . S
O509 C513 1.253 . S
H510 C506 0.931 . S
H511 C507 0.930 . S
O512 Co501 2.039 . S
O512 C502 1.265 . S
C513 O509 1.253 . S
C513 O514 1.227 . S
O514 C513 1.227 . S
N515 Co501 2.140 . S
N515 C518 1.346 . S
N515 C519 1.345 1_455 S
C516 C517 1.387 1_655 S
C516 C520 1.391 . S
C517 C516 1.387 1_455 S
C517 C518 1.369 . S
C517 H526 0.929 . S
C518 N515 1.346 . S
C518 C517 1.369 . S
C518 H521 0.928 . S
C519 N515 1.345 1_655 S
C519 C520 1.371 . S
C519 H522 0.931 . S
C520 C516 1.391 . S
C520 C519 1.371 . S
C520 H527 0.930 . S
H521 C518 0.928 . S
H522 C519 0.931 . S
H523 C499 0.930 . S
H524 C496 0.930 . S
H525 C505 0.930 . S
H526 C517 0.929 . S
H527 C520 0.930 . S
C528 C529 1.387 . S
C528 H532 0.950 . S
C528 C537 1.390 . S
C529 C528 1.387 . S
C529 C531 1.387 . S
H530 C537 0.950 . S
C531 C529 1.387 . S
C531 C533 1.390 . S
C531 H535 0.950 . S
H532 C528 0.950 . S
C533 C531 1.390 . S
C533 C534 1.387 . S
C533 H536 0.950 . S
C534 C533 1.387 . S
C534 C537 1.387 . S
H535 C531 0.950 . S
H536 C533 0.950 . S
C537 C528 1.390 . S
C537 H530 0.950 . S
C537 C534 1.387 . S
C538 C539 1.387 . S
C538 H542 0.950 . S
C538 C547 1.390 . S
C539 C538 1.387 . S
C539 C541 1.387 . S
H540 C547 0.950 . S
C541 C539 1.387 . S
C541 C543 1.390 . S
C541 H545 0.950 . S
H542 C538 0.950 . S
C543 C541 1.390 . S
C543 C544 1.387 . S
C543 H546 0.950 . S
C544 C543 1.387 . S
C544 C547 1.387 . S
H545 C541 0.950 . S
H546 C543 0.950 . S
C547 C538 1.390 . S
C547 H540 0.950 . S
C547 C544 1.387 . S
C548 C549 1.387 . S
C548 H552 0.950 . S
C548 C557 1.390 . S
C549 C548 1.387 . S
C549 C551 1.387 . S
H550 C557 0.950 . S
C551 C549 1.387 . S
C551 C553 1.390 . S
C551 H555 0.950 . S
H552 C548 0.950 . S
C553 C551 1.390 . S
C553 C554 1.387 . S
C553 H556 0.950 . S
C554 C553 1.387 . S
C554 C557 1.387 . S
H555 C551 0.950 . S
H556 C553 0.950 . S
C557 C548 1.390 . S
C557 H550 0.950 . S
C557 C554 1.387 . S
C558 C559 1.387 . S
C558 H562 0.950 . S
C558 C567 1.390 . S
C559 C558 1.387 . S
C559 C561 1.387 . S
H560 C567 0.950 . S
C561 C559 1.387 . S
C561 C563 1.390 . S
C561 H565 0.950 . S
H562 C558 0.950 . S
C563 C561 1.390 . S
C563 C564 1.387 . S
C563 H566 0.950 . S
C564 C563 1.387 . S
C564 C567 1.387 . S
H565 C561 0.950 . S
H566 C563 0.950 . S
C567 C558 1.390 . S
C567 H560 0.950 . S
C567 C564 1.387 . S
C568 C569 1.387 . S
C568 H572 0.950 . S
C568 C577 1.390 . S
C569 C568 1.387 . S
C569 C571 1.387 . S
H570 C577 0.950 . S
C571 C569 1.387 . S
C571 C573 1.390 . S
C571 H575 0.950 . S
H572 C568 0.950 . S
C573 C571 1.390 . S
C573 C574 1.387 . S
C573 H576 0.950 . S
C574 C573 1.387 . S
C574 C577 1.387 . S
H575 C571 0.950 . S
H576 C573 0.950 . S
C577 C568 1.390 . S
C577 H570 0.950 . S
C577 C574 1.387 . S
C578 C579 1.387 . S
C578 H582 0.950 1_545 S
C578 C587 1.390 . S
C579 C578 1.387 . S
C579 C581 1.387 . S
H580 C587 0.950 . S
C581 C579 1.387 . S
C581 C583 1.390 . S
C581 H585 0.950 . S
H582 C578 0.950 1_565 S
C583 C581 1.390 . S
C583 C584 1.387 . S
C583 H586 0.950 . S
C584 C583 1.387 . S
C584 C587 1.387 . S
H585 C581 0.950 . S
H586 C583 0.950 . S
C587 C578 1.390 . S
C587 H580 0.950 . S
C587 C584 1.387 . S
C588 C589 1.387 . S
C588 H592 0.950 . S
C588 C597 1.390 . S
C589 C588 1.387 . S
C589 C591 1.387 . S
H590 C597 0.950 . S
C591 C589 1.387 . S
C591 C593 1.390 . S
C591 H595 0.950 . S
H592 C588 0.950 . S
C593 C591 1.390 . S
C593 C594 1.387 . S
C593 H596 0.950 . S
C594 C593 1.387 . S
C594 C597 1.387 . S
H595 C591 0.950 . S
H596 C593 0.950 . S
C597 C588 1.390 . S
C597 H590 0.950 . S
C597 C594 1.387 . S
C598 C599 1.387 . S
C598 H602 0.950 . S
C598 C607 1.390 . S
C599 C598 1.387 . S
C599 C601 1.387 . S
H600 C607 0.950 . S
C601 C599 1.387 . S
C601 C603 1.390 . S
C601 H605 0.950 . S
H602 C598 0.950 . S
C603 C601 1.390 . S
C603 C604 1.387 . S
C603 H606 0.950 . S
C604 C603 1.387 . S
C604 C607 1.387 . S
H605 C601 0.950 . S
H606 C603 0.950 . S
C607 C598 1.390 . S
C607 H600 0.950 . S
C607 C604 1.387 . S
C608 C609 1.387 . S
C608 H612 0.950 . S
C608 C617 1.390 . S
C609 C608 1.387 . S
C609 C611 1.387 . S
H610 C617 0.950 . S
C611 C609 1.387 . S
C611 C613 1.390 . S
C611 H615 0.950 . S
H612 C608 0.950 . S
C613 C611 1.390 . S
C613 C614 1.387 . S
C613 H616 0.950 . S
C614 C613 1.387 . S
C614 C617 1.387 . S
H615 C611 0.950 . S
H616 C613 0.950 . S
C617 C608 1.390 . S
C617 H610 0.950 . S
C617 C614 1.387 . S
C618 C619 1.387 . S
C618 H622 0.950 . S
C618 C627 1.390 . S
C619 C618 1.387 . S
C619 C621 1.387 . S
H620 C627 0.950 . S
C621 C619 1.387 . S
C621 C623 1.390 . S
C621 H625 0.950 . S
H622 C618 0.950 . S
C623 C621 1.390 . S
C623 C624 1.387 . S
C623 H626 0.950 . S
C624 C623 1.387 . S
C624 C627 1.387 . S
H625 C621 0.950 . S
H626 C623 0.950 . S
C627 C618 1.390 . S
C627 H620 0.950 . S
C627 C624 1.387 . S
C628 C629 1.387 . S
C628 H632 0.950 . S
C628 C637 1.390 . S
C629 C628 1.387 . S
C629 C631 1.387 . S
H630 C637 0.950 . S
C631 C629 1.387 . S
C631 C633 1.390 . S
C631 H635 0.950 . S
H632 C628 0.950 . S
C633 C631 1.390 . S
C633 C634 1.387 . S
C633 H636 0.950 . S
C634 C633 1.387 . S
C634 C637 1.387 . S
H635 C631 0.950 . S
H636 C633 0.950 . S
C637 C628 1.390 . S
C637 H630 0.950 . S
C637 C634 1.387 . S
C638 C639 1.387 . S
C638 H642 0.950 1_545 S
C638 C647 1.390 . S
C639 C638 1.387 . S
C639 C641 1.387 . S
H640 C647 0.950 . S
C641 C639 1.387 . S
C641 C643 1.390 . S
C641 H645 0.950 . S
H642 C638 0.950 1_565 S
C643 C641 1.390 . S
C643 C644 1.387 . S
C643 H646 0.950 . S
C644 C643 1.387 . S
C644 C647 1.387 . S
H645 C641 0.950 . S
H646 C643 0.950 . S
C647 C638 1.390 . S
C647 H640 0.950 . S
C647 C644 1.387 . S
C648 C649 1.387 . S
C648 H652 0.950 . S
C648 C657 1.390 . S
C649 C648 1.387 . S
C649 C651 1.387 . S
H650 C657 0.950 . S
C651 C649 1.387 . S
C651 C653 1.390 . S
C651 H655 0.950 . S
H652 C648 0.950 . S
C653 C651 1.390 . S
C653 C654 1.387 . S
C653 H656 0.950 . S
C654 C653 1.387 . S
C654 C657 1.387 . S
H655 C651 0.950 . S
H656 C653 0.950 . S
C657 C648 1.390 . S
C657 H650 0.950 . S
C657 C654 1.387 . S
C658 C659 1.387 . S
C658 H662 0.950 . S
C658 C667 1.390 . S
C659 C658 1.387 . S
C659 C661 1.387 . S
H660 C667 0.950 . S
C661 C659 1.387 . S
C661 C663 1.390 . S
C661 H665 0.950 1_565 S
H662 C658 0.950 . S
C663 C661 1.390 . S
C663 C664 1.387 . S
C663 H666 0.950 . S
C664 C663 1.387 . S
C664 C667 1.387 . S
H665 C661 0.950 1_545 S
H666 C663 0.950 . S
C667 C658 1.390 . S
C667 H660 0.950 . S
C667 C664 1.387 . S
C668 C669 1.387 . S
C668 H672 0.950 . S
C668 C677 1.390 . S
C669 C668 1.387 . S
C669 C671 1.387 . S
H670 C677 0.950 . S
C671 C669 1.387 . S
C671 C673 1.390 . S
C671 H675 0.950 . S
H672 C668 0.950 . S
C673 C671 1.390 . S
C673 C674 1.387 . S
C673 H676 0.950 . S
C674 C673 1.387 . S
C674 C677 1.387 . S
H675 C671 0.950 . S
H676 C673 0.950 . S
C677 C668 1.390 . S
C677 H670 0.950 . S
C677 C674 1.387 . S
C678 C679 1.387 . S
C678 H682 0.950 . S
C678 C687 1.390 . S
C679 C678 1.387 . S
C679 C681 1.387 . S
H680 C687 0.950 . S
C681 C679 1.387 . S
C681 C683 1.390 . S
C681 H685 0.950 . S
H682 C678 0.950 . S
C683 C681 1.390 . S
C683 C684 1.387 . S
C683 H686 0.950 . S
C684 C683 1.387 . S
C684 C687 1.387 . S
H685 C681 0.950 . S
H686 C683 0.950 . S
C687 C678 1.390 . S
C687 H680 0.950 . S
C687 C684 1.387 . S
C688 C689 1.387 . S
C688 H692 0.950 . S
C688 C697 1.390 . S
C689 C688 1.387 . S
C689 C691 1.387 . S
H690 C697 0.950 . S
C691 C689 1.387 . S
C691 C693 1.390 . S
C691 H695 0.950 . S
H692 C688 0.950 . S
C693 C691 1.390 . S
C693 C694 1.387 . S
C693 H696 0.950 . S
C694 C693 1.387 . S
C694 C697 1.387 . S
H695 C691 0.950 . S
H696 C693 0.950 . S
C697 C688 1.390 . S
C697 H690 0.950 . S
C697 C694 1.387 . S
C698 C699 1.387 . S
C698 H702 0.950 . S
C698 C707 1.390 . S
C699 C698 1.387 . S
C699 C701 1.387 . S
H700 C707 0.950 . S
C701 C699 1.387 . S
C701 C703 1.390 . S
C701 H705 0.950 . S
H702 C698 0.950 . S
C703 C701 1.390 . S
C703 C704 1.387 . S
C703 H706 0.950 . S
C704 C703 1.387 . S
C704 C707 1.387 . S
H705 C701 0.950 . S
H706 C703 0.950 . S
C707 C698 1.390 . S
C707 H700 0.950 . S
C707 C704 1.387 . S
C708 C709 1.387 . S
C708 H712 0.950 . S
C708 C717 1.390 . S
C709 C708 1.387 . S
C709 C711 1.387 . S
H710 C717 0.950 . S
C711 C709 1.387 . S
C711 C713 1.390 . S
C711 H715 0.950 . S
H712 C708 0.950 . S
C713 C711 1.390 . S
C713 C714 1.387 . S
C713 H716 0.950 . S
C714 C713 1.387 . S
C714 C717 1.387 . S
H715 C711 0.950 . S
H716 C713 0.950 . S
C717 C708 1.390 . S
C717 H710 0.950 . S
C717 C714 1.387 . S
C718 C719 1.387 . S
C718 H722 0.950 . S
C718 C727 1.390 . S
C719 C718 1.387 . S
C719 C721 1.387 . S
H720 C727 0.950 . S
C721 C719 1.387 . S
C721 C723 1.390 . S
C721 H725 0.950 . S
H722 C718 0.950 . S
C723 C721 1.390 . S
C723 C724 1.387 . S
C723 H726 0.950 . S
C724 C723 1.387 . S
C724 C727 1.387 . S
H725 C721 0.950 . S
H726 C723 0.950 . S
C727 C718 1.390 . S
C727 H720 0.950 . S
C727 C724 1.387 . S
C728 C729 1.387 . S
C728 H732 0.950 . S
C728 C737 1.390 . S
C729 C728 1.387 . S
C729 C731 1.387 . S
H730 C737 0.950 . S
C731 C729 1.387 . S
C731 C733 1.390 . S
C731 H735 0.950 . S
H732 C728 0.950 . S
C733 C731 1.390 . S
C733 C734 1.387 . S
C733 H736 0.950 . S
C734 C733 1.387 . S
C734 C737 1.387 . S
H735 C731 0.950 . S
H736 C733 0.950 . S
C737 C728 1.390 . S
C737 H730 0.950 . S
C737 C734 1.387 . S
C738 C739 1.387 . S
C738 H742 0.950 . S
C738 C747 1.390 . S
C739 C738 1.387 . S
C739 C741 1.387 . S
H740 C747 0.950 . S
C741 C739 1.387 . S
C741 C743 1.390 . S
C741 H745 0.950 . S
H742 C738 0.950 . S
C743 C741 1.390 . S
C743 C744 1.387 . S
C743 H746 0.950 . S
C744 C743 1.387 . S
C744 C747 1.387 . S
H745 C741 0.950 . S
H746 C743 0.950 . S
C747 C738 1.390 . S
C747 H740 0.950 . S
C747 C744 1.387 . S
C748 C749 1.387 . S
C748 H752 0.950 . S
C748 C757 1.390 . S
C749 C748 1.387 . S
C749 C751 1.387 . S
H750 C757 0.950 . S
C751 C749 1.387 . S
C751 C753 1.390 . S
C751 H755 0.950 . S
H752 C748 0.950 . S
C753 C751 1.390 . S
C753 C754 1.387 . S
C753 H756 0.950 . S
C754 C753 1.387 . S
C754 C757 1.387 . S
H755 C751 0.950 . S
H756 C753 0.950 . S
C757 C748 1.390 . S
C757 H750 0.950 . S
C757 C754 1.387 . S
C758 C759 1.387 . S
C758 H762 0.950 . S
C758 C767 1.390 . S
C759 C758 1.387 . S
C759 C761 1.387 . S
H760 C767 0.950 . S
C761 C759 1.387 . S
C761 C763 1.390 . S
C761 H765 0.950 . S
H762 C758 0.950 . S
C763 C761 1.390 . S
C763 C764 1.387 . S
C763 H766 0.950 . S
C764 C763 1.387 . S
C764 C767 1.387 . S
H765 C761 0.950 . S
H766 C763 0.950 . S
C767 C758 1.390 . S
C767 H760 0.950 . S
C767 C764 1.387 . S
C768 C769 1.387 1_556 S
C768 H772 0.950 . S
C768 C777 1.390 . S
C769 C768 1.387 1_554 S
C769 C771 1.387 1_545 S
H770 C777 0.950 . S
C771 C769 1.387 1_565 S
C771 C773 1.390 . S
C771 H775 0.950 . S
H772 C768 0.950 . S
C773 C771 1.390 . S
C773 C774 1.387 1_554 S
C773 H776 0.950 . S
C774 C773 1.387 1_556 S
C774 C777 1.387 1_565 S
H775 C771 0.950 . S
H776 C773 0.950 . S
C777 C768 1.390 . S
C777 H770 0.950 . S
C777 C774 1.387 1_545 S
C778 C779 1.387 1_556 S
C778 H782 0.950 . S
C778 C787 1.390 . S
C779 C778 1.387 1_554 S
C779 C781 1.387 . S
H780 C787 0.950 . S
C781 C779 1.387 . S
C781 C783 1.390 . S
C781 H785 0.950 . S
H782 C778 0.950 . S
C783 C781 1.390 . S
C783 C784 1.387 1_554 S
C783 H786 0.950 . S
C784 C783 1.387 1_556 S
C784 C787 1.387 . S
H785 C781 0.950 . S
H786 C783 0.950 . S
C787 C778 1.390 . S
C787 H780 0.950 . S
C787 C784 1.387 . S
C788 C789 1.387 . S
C788 H792 0.950 . S
C788 C797 1.390 1_655 S
C789 C788 1.387 . S
C789 C791 1.387 1_554 S
H790 C797 0.950 . S
C791 C789 1.387 1_556 S
C791 C793 1.390 1_655 S
C791 H795 0.950 . S
H792 C788 0.950 . S
C793 C791 1.390 1_455 S
C793 C794 1.387 . S
C793 H796 0.950 . S
C794 C793 1.387 . S
C794 C797 1.387 1_556 S
H795 C791 0.950 . S
H796 C793 0.950 . S
C797 C788 1.390 1_455 S
C797 H790 0.950 . S
C797 C794 1.387 1_554 S
C798 C799 1.387 1_554 S
C798 H802 0.950 . S
C798 C807 1.390 1_655 S
C799 C798 1.387 1_556 S
C799 C801 1.387 1_545 S
H800 C807 0.950 . S
C801 C799 1.387 1_565 S
C801 C803 1.390 1_655 S
C801 H805 0.950 . S
H802 C798 0.950 . S
C803 C801 1.390 1_455 S
C803 C804 1.387 1_556 S
C803 H806 0.950 . S
C804 C803 1.387 1_554 S
C804 C807 1.387 1_565 S
H805 C801 0.950 . S
H806 C803 0.950 . S
C807 C798 1.390 1_455 S
C807 H800 0.950 . S
C807 C804 1.387 1_545 S
C808 C809 1.387 . S
C808 H812 0.950 . S
C808 C817 1.390 1_645 S
C809 C808 1.387 . S
C809 C811 1.387 . S
H810 C817 0.950 . S
C811 C809 1.387 . S
C811 C813 1.390 1_645 S
C811 H815 0.950 . S
H812 C808 0.950 . S
C813 C811 1.390 1_465 S
C813 C814 1.387 . S
C813 H816 0.950 . S
C814 C813 1.387 . S
C814 C817 1.387 . S
H815 C811 0.950 . S
H816 C813 0.950 . S
C817 C808 1.390 1_465 S
C817 H810 0.950 . S
C817 C814 1.387 . S
C818 C819 1.387 . S
C818 H822 0.950 . S
C818 C827 1.390 1_545 S
C819 C818 1.387 . S
C819 C821 1.387 . S
H820 C827 0.950 . S
C821 C819 1.387 . S
C821 C823 1.390 1_545 S
C821 H825 0.950 . S
H822 C818 0.950 . S
C823 C821 1.390 1_565 S
C823 C824 1.387 . S
C823 H826 0.950 . S
C824 C823 1.387 . S
C824 C827 1.387 . S
H825 C821 0.950 . S
H826 C823 0.950 . S
C827 C818 1.390 1_565 S
C827 H820 0.950 . S
C827 C824 1.387 . S
C828 C829 1.387 . S
C828 H832 0.950 . S
C828 C837 1.390 . S
C829 C828 1.387 . S
C829 C831 1.387 . S
H830 C837 0.950 . S
C831 C829 1.387 . S
C831 C833 1.390 . S
C831 H835 0.950 . S
H832 C828 0.950 . S
C833 C831 1.390 . S
C833 C834 1.387 . S
C833 H836 0.950 . S
C834 C833 1.387 . S
C834 C837 1.387 . S
H835 C831 0.950 . S
H836 C833 0.950 . S
C837 C828 1.390 . S
C837 H830 0.950 . S
C837 C834 1.387 . S
C838 C839 1.387 . S
C838 H842 0.950 . S
C838 C847 1.390 . S
C839 C838 1.387 . S
C839 C841 1.387 1_455 S
H840 C847 0.950 . S
C841 C839 1.387 1_655 S
C841 C843 1.390 . S
C841 H845 0.950 . S
H842 C838 0.950 . S
C843 C841 1.390 . S
C843 C844 1.387 . S
C843 H846 0.950 . S
C844 C843 1.387 . S
C844 C847 1.387 1_655 S
H845 C841 0.950 . S
H846 C843 0.950 . S
C847 C838 1.390 . S
C847 H840 0.950 . S
C847 C844 1.387 1_455 S
C848 C849 1.387 . S
C848 H852 0.950 . S
C848 C857 1.390 . S
C849 C848 1.387 . S
C849 C851 1.387 . S
H850 C857 0.950 . S
C851 C849 1.387 . S
C851 C853 1.390 . S
C851 H855 0.950 . S
H852 C848 0.950 . S
C853 C851 1.390 . S
C853 C854 1.387 . S
C853 H856 0.950 . S
C854 C853 1.387 . S
C854 C857 1.387 . S
H855 C851 0.950 . S
H856 C853 0.950 . S
C857 C848 1.390 . S
C857 H850 0.950 . S
C857 C854 1.387 . S
C858 C859 1.387 . S
C858 H862 0.950 . S
C858 C867 1.390 . S
C859 C858 1.387 . S
C859 C861 1.387 . S
H860 C867 0.950 . S
C861 C859 1.387 . S
C861 C863 1.390 . S
C861 H865 0.950 . S
H862 C858 0.950 . S
C863 C861 1.390 . S
C863 C864 1.387 . S
C863 H866 0.950 . S
C864 C863 1.387 . S
C864 C867 1.387 . S
H865 C861 0.950 . S
H866 C863 0.950 . S
C867 C858 1.390 . S
C867 H860 0.950 . S
C867 C864 1.387 . S
C868 C869 1.387 . S
C868 H872 0.950 . S
C868 C877 1.390 . S
C869 C868 1.387 . S
C869 C871 1.387 . S
H870 C877 0.950 . S
C871 C869 1.387 . S
C871 C873 1.390 . S
C871 H875 0.950 . S
H872 C868 0.950 . S
C873 C871 1.390 . S
C873 C874 1.387 . S
C873 H876 0.950 . S
C874 C873 1.387 . S
C874 C877 1.387 . S
H875 C871 0.950 . S
H876 C873 0.950 . S
C877 C868 1.390 . S
C877 H870 0.950 . S
C877 C874 1.387 . S
C878 C879 1.387 . S
C878 H882 0.950 . S
C878 C887 1.390 . S
C879 C878 1.387 . S
C879 C881 1.387 . S
H880 C887 0.950 . S
C881 C879 1.387 . S
C881 C883 1.390 . S
C881 H885 0.950 . S
H882 C878 0.950 . S
C883 C881 1.390 . S
C883 C884 1.387 . S
C883 H886 0.950 . S
C884 C883 1.387 . S
C884 C887 1.387 . S
H885 C881 0.950 . S
H886 C883 0.950 . S
C887 C878 1.390 . S
C887 H880 0.950 . S
C887 C884 1.387 . S
C888 C889 1.387 . S
C888 H892 0.950 . S
C888 C897 1.390 . S
C889 C888 1.387 . S
C889 C891 1.387 . S
H890 C897 0.950 . S
C891 C889 1.387 . S
C891 C893 1.390 . S
C891 H895 0.950 . S
H892 C888 0.950 . S
C893 C891 1.390 . S
C893 C894 1.387 . S
C893 H896 0.950 . S
C894 C893 1.387 . S
C894 C897 1.387 . S
H895 C891 0.950 . S
H896 C893 0.950 . S
C897 C888 1.390 . S
C897 H890 0.950 . S
C897 C894 1.387 . S
C898 C899 1.387 . S
C898 H902 0.950 . S
C898 C907 1.390 . S
C899 C898 1.387 . S
C899 C901 1.387 . S
H900 C907 0.950 . S
C901 C899 1.387 . S
C901 C903 1.390 . S
C901 H905 0.950 . S
H902 C898 0.950 . S
C903 C901 1.390 . S
C903 C904 1.387 . S
C903 H906 0.950 . S
C904 C903 1.387 . S
C904 C907 1.387 . S
H905 C901 0.950 . S
H906 C903 0.950 . S
C907 C898 1.390 . S
C907 H900 0.950 . S
C907 C904 1.387 . S
C908 C909 1.387 . S
C908 H912 0.950 . S
C908 C917 1.390 . S
C909 C908 1.387 . S
C909 C911 1.387 . S
H910 C917 0.950 . S
C911 C909 1.387 . S
C911 C913 1.390 . S
C911 H915 0.950 . S
H912 C908 0.950 . S
C913 C911 1.390 . S
C913 C914 1.387 . S
C913 H916 0.950 . S
C914 C913 1.387 . S
C914 C917 1.387 . S
H915 C911 0.950 . S
H916 C913 0.950 . S
C917 C908 1.390 . S
C917 H910 0.950 . S
C917 C914 1.387 . S
C918 C919 1.387 . S
C918 H922 0.950 . S
C918 C927 1.390 . S
C919 C918 1.387 . S
C919 C921 1.387 . S
H920 C927 0.950 . S
C921 C919 1.387 . S
C921 C923 1.390 . S
C921 H925 0.950 . S
H922 C918 0.950 . S
C923 C921 1.390 . S
C923 C924 1.387 . S
C923 H926 0.950 . S
C924 C923 1.387 . S
C924 C927 1.387 . S
H925 C921 0.950 . S
H926 C923 0.950 . S
C927 C918 1.390 . S
C927 H920 0.950 . S
C927 C924 1.387 . S
C529 N13 0.998 . S
C534 C54 0.995 . S
C539 C87 0.994 . S
C544 N46 0.998 . S
C549 C120 0.994 . S
C554 N79 0.999 . S
C559 N112 0.998 . S
C564 C21 0.994 . S
C569 C252 0.994 . S
C574 N145 0.998 . S
C579 C153 0.995 . S
C584 N178 0.998 . S
C589 C186 0.994 . S
C594 N211 0.998 . S
C599 N244 0.999 . S
C604 C219 0.993 . S
C609 N277 0.999 . S
C614 C318 0.994 . S
C619 N310 0.999 . S
C624 C351 0.993 . S
C629 C384 0.994 . S
C634 N343 0.998 . S
C639 C285 0.993 . S
C644 N376 0.999 . S
C649 C516 0.994 . S
C654 N409 0.999 . S
C659 C417 0.995 . S
C664 N442 0.998 . S
C669 N475 0.998 . S
C674 C450 0.994 . S
C679 N508 0.998 . S
C684 C483 0.995 . S
C689 N2 1.904 . S
C694 N68 1.904 . S
C699 N35 1.904 . S
C704 N101 1.904 . S
C709 N200 1.904 . S
C714 N134 1.904 . S
C719 N233 1.904 . S
C724 N167 1.904 . S
C729 N332 1.903 . S
C734 N266 1.903 . S
C739 N299 1.903 . S
C744 N365 1.903 . S
C749 N398 1.903 . S
C754 N464 1.903 . S
C759 N431 1.904 . S
C764 N497 1.904 . S
C769 C18 1.849 . S
C774 C282 1.849 . S
C779 C51 1.849 . S
C784 C315 1.849 . S
C789 C84 1.849 . S
C794 C348 1.849 . S
C799 C381 1.848 . S
C804 C117 1.848 . S
C809 C414 1.848 . S
C814 C150 1.848 . S
C819 C183 1.850 . S
C824 C447 1.850 . S
C829 C216 1.849 . S
C834 C480 1.849 . S
C839 C513 1.851 . S
C844 C249 1.851 . S
C849 C172 1.588 . S
C854 C7 1.588 . S
C859 C205 1.587 . S
C864 C40 1.588 . S
C869 C73 1.588 . S
C874 C238 1.588 . S
C879 C139 1.587 . S
C884 C106 1.588 . S
C889 C271 1.588 . S
C894 C436 1.587 . S
C899 C469 1.587 . S
C904 C304 1.588 . S
C909 C502 1.588 . S
C914 C337 1.588 . S
C919 C370 1.588 . S
C924 C403 1.587 . S
