# Generated by pormake.
# Topology fcm, (5)-cn, num edge types: 1
# Building blocks:
#     Node 0, Type 0, BuildingBlock: BEQFEK_clean_sbu_0, # of connection points: 5
#     Node 1, Type 0, BuildingBlock: BEQFEK_clean_sbu_0, # of connection points: 5
#     Node 2, Type 0, BuildingBlock: BEQFEK_clean_sbu_0, # of connection points: 5
#     Node 3, Type 0, BuildingBlock: BEQFEK_clean_sbu_0, # of connection points: 5
#     Node 4, Type 0, BuildingBlock: BEQFEK_clean_sbu_0, # of connection points: 5
#     Node 5, Type 0, BuildingBlock: BEQFEK_clean_sbu_0, # of connection points: 5
#     Node 6, Type 0, BuildingBlock: BEQFEK_clean_sbu_0, # of connection points: 5
#     Node 7, Type 0, BuildingBlock: BEQFEK_clean_sbu_0, # of connection points: 5
#     Node 8, Type 0, BuildingBlock: BEQFEK_clean_sbu_0, # of connection points: 5
#     Node 9, Type 0, BuildingBlock: BEQFEK_clean_sbu_0, # of connection points: 5
#     Node 10, Type 0, BuildingBlock: BEQFEK_clean_sbu_0, # of connection points: 5
#     Node 11, Type 0, BuildingBlock: BEQFEK_clean_sbu_0, # of connection points: 5
#     Node 12, Type 0, BuildingBlock: BEQFEK_clean_sbu_0, # of connection points: 5
#     Node 13, Type 0, BuildingBlock: BEQFEK_clean_sbu_0, # of connection points: 5
#     Node 14, Type 0, BuildingBlock: BEQFEK_clean_sbu_0, # of connection points: 5
#     Node 15, Type 0, BuildingBlock: BEQFEK_clean_sbu_0, # of connection points: 5
#     Node 16, Type 0, BuildingBlock: BEQFEK_clean_sbu_0, # of connection points: 5
#     Node 17, Type 0, BuildingBlock: BEQFEK_clean_sbu_0, # of connection points: 5
#     Node 18, Type 0, BuildingBlock: BEQFEK_clean_sbu_0, # of connection points: 5
#     Node 19, Type 0, BuildingBlock: BEQFEK_clean_sbu_0, # of connection points: 5
#     Node 20, Type 0, BuildingBlock: BEQFEK_clean_sbu_0, # of connection points: 5
#     Node 21, Type 0, BuildingBlock: BEQFEK_clean_sbu_0, # of connection points: 5
#     Node 22, Type 0, BuildingBlock: BEQFEK_clean_sbu_0, # of connection points: 5
#     Node 23, Type 0, BuildingBlock: BEQFEK_clean_sbu_0, # of connection points: 5
#     Node 24, Type 0, BuildingBlock: BEQFEK_clean_sbu_0, # of connection points: 5
#     Node 25, Type 0, BuildingBlock: BEQFEK_clean_sbu_0, # of connection points: 5
#     Node 26, Type 0, BuildingBlock: BEQFEK_clean_sbu_0, # of connection points: 5
#     Node 27, Type 0, BuildingBlock: BEQFEK_clean_sbu_0, # of connection points: 5
#     Node 28, Type 0, BuildingBlock: BEQFEK_clean_sbu_0, # of connection points: 5
#     Node 29, Type 0, BuildingBlock: BEQFEK_clean_sbu_0, # of connection points: 5
#     Node 30, Type 0, BuildingBlock: BEQFEK_clean_sbu_0, # of connection points: 5
#     Node 31, Type 0, BuildingBlock: BEQFEK_clean_sbu_0, # of connection points: 5
#     Node 32, Type 0, BuildingBlock: BEQFEK_clean_sbu_0, # of connection points: 5
#     Node 33, Type 0, BuildingBlock: BEQFEK_clean_sbu_0, # of connection points: 5
#     Node 34, Type 0, BuildingBlock: BEQFEK_clean_sbu_0, # of connection points: 5
#     Node 35, Type 0, BuildingBlock: BEQFEK_clean_sbu_0, # of connection points: 5
#     Node 36, Type 0, BuildingBlock: BEQFEK_clean_sbu_0, # of connection points: 5
#     Node 37, Type 0, BuildingBlock: BEQFEK_clean_sbu_0, # of connection points: 5
#     Node 38, Type 0, BuildingBlock: BEQFEK_clean_sbu_0, # of connection points: 5
#     Node 39, Type 0, BuildingBlock: BEQFEK_clean_sbu_0, # of connection points: 5
#     Node 40, Type 0, BuildingBlock: BEQFEK_clean_sbu_0, # of connection points: 5
#     Node 41, Type 0, BuildingBlock: BEQFEK_clean_sbu_0, # of connection points: 5
#     Node 42, Type 0, BuildingBlock: BEQFEK_clean_sbu_0, # of connection points: 5
#     Node 43, Type 0, BuildingBlock: BEQFEK_clean_sbu_0, # of connection points: 5
#     Node 44, Type 0, BuildingBlock: BEQFEK_clean_sbu_0, # of connection points: 5
#     Node 45, Type 0, BuildingBlock: BEQFEK_clean_sbu_0, # of connection points: 5
#     Node 46, Type 0, BuildingBlock: BEQFEK_clean_sbu_0, # of connection points: 5
#     Node 47, Type 0, BuildingBlock: BEQFEK_clean_sbu_0, # of connection points: 5
#     Edge 48, Type (0, 0), BuildingBlock: OJICUG_clean_linker_0, # of connection points: 2
#     Edge 49, Type (0, 0), BuildingBlock: OJICUG_clean_linker_0, # of connection points: 2
#     Edge 50, Type (0, 0), BuildingBlock: OJICUG_clean_linker_0, # of connection points: 2
#     Edge 51, Type (0, 0), BuildingBlock: OJICUG_clean_linker_0, # of connection points: 2
#     Edge 52, Type (0, 0), BuildingBlock: OJICUG_clean_linker_0, # of connection points: 2
#     Edge 53, Type (0, 0), BuildingBlock: OJICUG_clean_linker_0, # of connection points: 2
#     Edge 54, Type (0, 0), BuildingBlock: OJICUG_clean_linker_0, # of connection points: 2
#     Edge 55, Type (0, 0), BuildingBlock: OJICUG_clean_linker_0, # of connection points: 2
#     Edge 56, Type (0, 0), BuildingBlock: OJICUG_clean_linker_0, # of connection points: 2
#     Edge 57, Type (0, 0), BuildingBlock: OJICUG_clean_linker_0, # of connection points: 2
#     Edge 58, Type (0, 0), BuildingBlock: OJICUG_clean_linker_0, # of connection points: 2
#     Edge 59, Type (0, 0), BuildingBlock: OJICUG_clean_linker_0, # of connection points: 2
#     Edge 60, Type (0, 0), BuildingBlock: OJICUG_clean_linker_0, # of connection points: 2
#     Edge 61, Type (0, 0), BuildingBlock: OJICUG_clean_linker_0, # of connection points: 2
#     Edge 62, Type (0, 0), BuildingBlock: OJICUG_clean_linker_0, # of connection points: 2
#     Edge 63, Type (0, 0), BuildingBlock: OJICUG_clean_linker_0, # of connection points: 2
#     Edge 64, Type (0, 0), BuildingBlock: OJICUG_clean_linker_0, # of connection points: 2
#     Edge 65, Type (0, 0), BuildingBlock: OJICUG_clean_linker_0, # of connection points: 2
#     Edge 66, Type (0, 0), BuildingBlock: OJICUG_clean_linker_0, # of connection points: 2
#     Edge 67, Type (0, 0), BuildingBlock: OJICUG_clean_linker_0, # of connection points: 2
#     Edge 68, Type (0, 0), BuildingBlock: OJICUG_clean_linker_0, # of connection points: 2
#     Edge 69, Type (0, 0), BuildingBlock: OJICUG_clean_linker_0, # of connection points: 2
#     Edge 70, Type (0, 0), BuildingBlock: OJICUG_clean_linker_0, # of connection points: 2
#     Edge 71, Type (0, 0), BuildingBlock: OJICUG_clean_linker_0, # of connection points: 2
#     Edge 72, Type (0, 0), BuildingBlock: OJICUG_clean_linker_0, # of connection points: 2
#     Edge 73, Type (0, 0), BuildingBlock: OJICUG_clean_linker_0, # of connection points: 2
#     Edge 74, Type (0, 0), BuildingBlock: OJICUG_clean_linker_0, # of connection points: 2
#     Edge 75, Type (0, 0), BuildingBlock: OJICUG_clean_linker_0, # of connection points: 2
#     Edge 76, Type (0, 0), BuildingBlock: OJICUG_clean_linker_0, # of connection points: 2
#     Edge 77, Type (0, 0), BuildingBlock: OJICUG_clean_linker_0, # of connection points: 2
#     Edge 78, Type (0, 0), BuildingBlock: OJICUG_clean_linker_0, # of connection points: 2
#     Edge 79, Type (0, 0), BuildingBlock: OJICUG_clean_linker_0, # of connection points: 2
#     Edge 80, Type (0, 0), BuildingBlock: OJICUG_clean_linker_0, # of connection points: 2
#     Edge 81, Type (0, 0), BuildingBlock: OJICUG_clean_linker_0, # of connection points: 2
#     Edge 82, Type (0, 0), BuildingBlock: OJICUG_clean_linker_0, # of connection points: 2
#     Edge 83, Type (0, 0), BuildingBlock: OJICUG_clean_linker_0, # of connection points: 2
#     Edge 84, Type (0, 0), BuildingBlock: OJICUG_clean_linker_0, # of connection points: 2
#     Edge 85, Type (0, 0), BuildingBlock: OJICUG_clean_linker_0, # of connection points: 2
#     Edge 86, Type (0, 0), BuildingBlock: OJICUG_clean_linker_0, # of connection points: 2
#     Edge 87, Type (0, 0), BuildingBlock: OJICUG_clean_linker_0, # of connection points: 2
#     Edge 88, Type (0, 0), BuildingBlock: OJICUG_clean_linker_0, # of connection points: 2
#     Edge 89, Type (0, 0), BuildingBlock: OJICUG_clean_linker_0, # of connection points: 2
#     Edge 90, Type (0, 0), BuildingBlock: OJICUG_clean_linker_0, # of connection points: 2
#     Edge 91, Type (0, 0), BuildingBlock: OJICUG_clean_linker_0, # of connection points: 2
#     Edge 92, Type (0, 0), BuildingBlock: OJICUG_clean_linker_0, # of connection points: 2
#     Edge 93, Type (0, 0), BuildingBlock: OJICUG_clean_linker_0, # of connection points: 2
#     Edge 94, Type (0, 0), BuildingBlock: OJICUG_clean_linker_0, # of connection points: 2
#     Edge 95, Type (0, 0), BuildingBlock: OJICUG_clean_linker_0, # of connection points: 2
#     Edge 96, Type (0, 0), BuildingBlock: OJICUG_clean_linker_0, # of connection points: 2
#     Edge 97, Type (0, 0), BuildingBlock: OJICUG_clean_linker_0, # of connection points: 2
#     Edge 98, Type (0, 0), BuildingBlock: OJICUG_clean_linker_0, # of connection points: 2
#     Edge 99, Type (0, 0), BuildingBlock: OJICUG_clean_linker_0, # of connection points: 2
#     Edge 100, Type (0, 0), BuildingBlock: OJICUG_clean_linker_0, # of connection points: 2
#     Edge 101, Type (0, 0), BuildingBlock: OJICUG_clean_linker_0, # of connection points: 2
#     Edge 102, Type (0, 0), BuildingBlock: OJICUG_clean_linker_0, # of connection points: 2
#     Edge 103, Type (0, 0), BuildingBlock: OJICUG_clean_linker_0, # of connection points: 2
#     Edge 104, Type (0, 0), BuildingBlock: OJICUG_clean_linker_0, # of connection points: 2
#     Edge 105, Type (0, 0), BuildingBlock: OJICUG_clean_linker_0, # of connection points: 2
#     Edge 106, Type (0, 0), BuildingBlock: OJICUG_clean_linker_0, # of connection points: 2
#     Edge 107, Type (0, 0), BuildingBlock: OJICUG_clean_linker_0, # of connection points: 2
#     Edge 108, Type (0, 0), BuildingBlock: OJICUG_clean_linker_0, # of connection points: 2
#     Edge 109, Type (0, 0), BuildingBlock: OJICUG_clean_linker_0, # of connection points: 2
#     Edge 110, Type (0, 0), BuildingBlock: OJICUG_clean_linker_0, # of connection points: 2
#     Edge 111, Type (0, 0), BuildingBlock: OJICUG_clean_linker_0, # of connection points: 2
#     Edge 112, Type (0, 0), BuildingBlock: OJICUG_clean_linker_0, # of connection points: 2
#     Edge 113, Type (0, 0), BuildingBlock: OJICUG_clean_linker_0, # of connection points: 2
#     Edge 114, Type (0, 0), BuildingBlock: OJICUG_clean_linker_0, # of connection points: 2
#     Edge 115, Type (0, 0), BuildingBlock: OJICUG_clean_linker_0, # of connection points: 2
#     Edge 116, Type (0, 0), BuildingBlock: OJICUG_clean_linker_0, # of connection points: 2
#     Edge 117, Type (0, 0), BuildingBlock: OJICUG_clean_linker_0, # of connection points: 2
#     Edge 118, Type (0, 0), BuildingBlock: OJICUG_clean_linker_0, # of connection points: 2
#     Edge 119, Type (0, 0), BuildingBlock: OJICUG_clean_linker_0, # of connection points: 2
#     Edge 120, Type (0, 0), BuildingBlock: OJICUG_clean_linker_0, # of connection points: 2
#     Edge 121, Type (0, 0), BuildingBlock: OJICUG_clean_linker_0, # of connection points: 2
#     Edge 122, Type (0, 0), BuildingBlock: OJICUG_clean_linker_0, # of connection points: 2
#     Edge 123, Type (0, 0), BuildingBlock: OJICUG_clean_linker_0, # of connection points: 2
#     Edge 124, Type (0, 0), BuildingBlock: OJICUG_clean_linker_0, # of connection points: 2
#     Edge 125, Type (0, 0), BuildingBlock: OJICUG_clean_linker_0, # of connection points: 2
#     Edge 126, Type (0, 0), BuildingBlock: OJICUG_clean_linker_0, # of connection points: 2
#     Edge 127, Type (0, 0), BuildingBlock: OJICUG_clean_linker_0, # of connection points: 2
#     Edge 128, Type (0, 0), BuildingBlock: OJICUG_clean_linker_0, # of connection points: 2
#     Edge 129, Type (0, 0), BuildingBlock: OJICUG_clean_linker_0, # of connection points: 2
#     Edge 130, Type (0, 0), BuildingBlock: OJICUG_clean_linker_0, # of connection points: 2
#     Edge 131, Type (0, 0), BuildingBlock: OJICUG_clean_linker_0, # of connection points: 2
#     Edge 132, Type (0, 0), BuildingBlock: OJICUG_clean_linker_0, # of connection points: 2
#     Edge 133, Type (0, 0), BuildingBlock: OJICUG_clean_linker_0, # of connection points: 2
#     Edge 134, Type (0, 0), BuildingBlock: OJICUG_clean_linker_0, # of connection points: 2
#     Edge 135, Type (0, 0), BuildingBlock: OJICUG_clean_linker_0, # of connection points: 2
#     Edge 136, Type (0, 0), BuildingBlock: OJICUG_clean_linker_0, # of connection points: 2
#     Edge 137, Type (0, 0), BuildingBlock: OJICUG_clean_linker_0, # of connection points: 2
#     Edge 138, Type (0, 0), BuildingBlock: OJICUG_clean_linker_0, # of connection points: 2
#     Edge 139, Type (0, 0), BuildingBlock: OJICUG_clean_linker_0, # of connection points: 2
#     Edge 140, Type (0, 0), BuildingBlock: OJICUG_clean_linker_0, # of connection points: 2
#     Edge 141, Type (0, 0), BuildingBlock: OJICUG_clean_linker_0, # of connection points: 2
#     Edge 142, Type (0, 0), BuildingBlock: OJICUG_clean_linker_0, # of connection points: 2
#     Edge 143, Type (0, 0), BuildingBlock: OJICUG_clean_linker_0, # of connection points: 2
#     Edge 144, Type (0, 0), BuildingBlock: OJICUG_clean_linker_0, # of connection points: 2
#     Edge 145, Type (0, 0), BuildingBlock: OJICUG_clean_linker_0, # of connection points: 2
#     Edge 146, Type (0, 0), BuildingBlock: OJICUG_clean_linker_0, # of connection points: 2
#     Edge 147, Type (0, 0), BuildingBlock: OJICUG_clean_linker_0, # of connection points: 2
#     Edge 148, Type (0, 0), BuildingBlock: OJICUG_clean_linker_0, # of connection points: 2
#     Edge 149, Type (0, 0), BuildingBlock: OJICUG_clean_linker_0, # of connection points: 2
#     Edge 150, Type (0, 0), BuildingBlock: OJICUG_clean_linker_0, # of connection points: 2
#     Edge 151, Type (0, 0), BuildingBlock: OJICUG_clean_linker_0, # of connection points: 2
#     Edge 152, Type (0, 0), BuildingBlock: OJICUG_clean_linker_0, # of connection points: 2
#     Edge 153, Type (0, 0), BuildingBlock: OJICUG_clean_linker_0, # of connection points: 2
#     Edge 154, Type (0, 0), BuildingBlock: OJICUG_clean_linker_0, # of connection points: 2
#     Edge 155, Type (0, 0), BuildingBlock: OJICUG_clean_linker_0, # of connection points: 2
#     Edge 156, Type (0, 0), BuildingBlock: OJICUG_clean_linker_0, # of connection points: 2
#     Edge 157, Type (0, 0), BuildingBlock: OJICUG_clean_linker_0, # of connection points: 2
#     Edge 158, Type (0, 0), BuildingBlock: OJICUG_clean_linker_0, # of connection points: 2
#     Edge 159, Type (0, 0), BuildingBlock: OJICUG_clean_linker_0, # of connection points: 2
#     Edge 160, Type (0, 0), BuildingBlock: OJICUG_clean_linker_0, # of connection points: 2
#     Edge 161, Type (0, 0), BuildingBlock: OJICUG_clean_linker_0, # of connection points: 2
#     Edge 162, Type (0, 0), BuildingBlock: OJICUG_clean_linker_0, # of connection points: 2
#     Edge 163, Type (0, 0), BuildingBlock: OJICUG_clean_linker_0, # of connection points: 2
#     Edge 164, Type (0, 0), BuildingBlock: OJICUG_clean_linker_0, # of connection points: 2
#     Edge 165, Type (0, 0), BuildingBlock: OJICUG_clean_linker_0, # of connection points: 2
#     Edge 166, Type (0, 0), BuildingBlock: OJICUG_clean_linker_0, # of connection points: 2
#     Edge 167, Type (0, 0), BuildingBlock: OJICUG_clean_linker_0, # of connection points: 2
# Relax obj value: 0.523
# Max RMSD: 0.212
# Mean RMSD: 0.212
data_MOF--net-fcm--node1-BEQFEK_clean_sbu_0--edge1-OJICUG_clean_linker_0
_symmetry_space_group_name_H-M    P1
_symmetry_Int_Tables_number       1
_symmetry_cell_setting            triclinic
loop_
_symmetry_equiv_pos_as_xyz
'x, y, z'
_cell_length_a     53.486845
_cell_length_b     53.5298
_cell_length_c     53.509017
_cell_angle_alpha  89.980398
_cell_angle_beta   90.047741
_cell_angle_gamma 89.981705
loop_
_atom_site_label
_atom_site_type_symbol
_atom_site_fract_x
_atom_site_fract_y
_atom_site_fract_z
_atom_type_partial_charge
Co0 Co 0.02417 0.06449 0.32801 0.0
Co1 Co 0.97986 0.03303 0.35064 0.0
C2 C 1.00035 0.02158 0.29993 0.0
O3 O 0.0153 0.03972 0.30251 0.0
O4 O 0.98558 0.01531 0.31754 0.0
C5 C 0.07202 0.059 0.31063 0.0
O6 O 0.06313 0.03618 0.30967 0.0
C7 C 0.96426 0.99 0.37935 0.0
C8 C 0.93173 0.00384 0.40055 0.0
C9 C 0.94836 0.98397 0.39904 0.0
N10 N 0.95806 0.01274 0.3706 0.0
N11 N 0.93821 0.02069 0.38294 0.0
C12 C 0.98561 0.97497 0.36925 0.0
H13 H 0.98778 0.97847 0.34896 0.0
H14 H 0.00324 0.98074 0.37852 0.0
H15 H 0.98257 0.95471 0.37242 0.0
C16 C 0.04562 0.05605 0.37776 0.0
N17 N 0.02775 0.05157 0.36054 0.0
N18 N 0.00925 0.0392 0.37094 0.0
C19 C 0.01492 0.03587 0.39551 0.0
C20 C 0.03825 0.04612 0.40035 0.0
C21 C 0.06923 0.07006 0.37284 0.0
H22 H 0.06494 0.08758 0.36266 0.0
H23 H 0.08151 0.05805 0.36135 0.0
H24 H 0.0796 0.0747 0.39012 0.0
O25 O 0.99645 0.08922 0.32747 0.0
O26 O 0.96432 0.06579 0.34078 0.0
H27 H 0.97803 0.0334 0.41104 0.0
H28 H 0.00272 0.03376 0.43392 0.0
C29 C 0.99721 0.02684 0.41515 0.0
H30 H 0.99759 0.0062 0.41578 0.0
H31 H 0.93016 0.03829 0.38056 0.0
O32 O 0.05772 0.07672 0.31762 0.0
C33 C 0.97315 0.08629 0.3321 0.0
Co34 Co 0.1847 0.77366 0.5749 0.0
Co35 Co 0.21719 0.73116 0.59889 0.0
C36 C 0.22974 0.75118 0.54885 0.0
O37 O 0.21106 0.76558 0.55079 0.0
O38 O 0.23588 0.73657 0.56662 0.0
C39 C 0.19337 0.8217 0.56627 0.0
O40 O 0.21486 0.81217 0.57342 0.0
C41 C 0.26022 0.71118 0.62581 0.0
C42 C 0.2428 0.68442 0.65191 0.0
C43 C 0.26518 0.69637 0.6466 0.0
N44 N 0.23589 0.70888 0.61987 0.0
N45 N 0.22571 0.69238 0.63517 0.0
C46 C 0.27804 0.72759 0.61178 0.0
H47 H 0.27569 0.72449 0.59144 0.0
H48 H 0.27371 0.74749 0.61553 0.0
H49 H 0.29775 0.7236 0.61687 0.0
C50 C 0.18888 0.79481 0.62481 0.0
N51 N 0.19522 0.77721 0.60803 0.0
N52 N 0.21051 0.76099 0.61829 0.0
C53 C 0.21498 0.76849 0.64215 0.0
C54 C 0.2016 0.79038 0.64678 0.0
C55 C 0.16829 0.81348 0.62123 0.0
H56 H 0.15484 0.80693 0.60689 0.0
H57 H 0.17635 0.83162 0.61535 0.0
H58 H 0.15813 0.81662 0.63904 0.0
O59 O 0.16031 0.74638 0.57331 0.0
O60 O 0.18446 0.71547 0.58819 0.0
H61 H 0.22393 0.73593 0.66348 0.0
H62 H 0.23252 0.76486 0.67854 0.0
C63 C 0.23133 0.755 0.66037 0.0
H64 H 0.25043 0.75355 0.65266 0.0
H65 H 0.20675 0.6878 0.63524 0.0
O66 O 0.17448 0.80734 0.56398 0.0
C67 C 0.16387 0.72341 0.57882 0.0
Co68 Co 0.47593 0.93675 0.82782 0.0
Co69 Co 0.52132 0.96604 0.85129 0.0
C70 C 0.50149 0.97891 0.80049 0.0
O71 O 0.48557 0.96157 0.80268 0.0
O72 O 0.51658 0.98403 0.81822 0.0
C73 C 0.42823 0.94186 0.80846 0.0
O74 O 0.43732 0.96441 0.80545 0.0
C75 C 0.53681 0.00853 0.8804 0.0
C76 C 0.56984 0.99503 0.90111 0.0
C77 C 0.55294 0.01469 0.89982 0.0
N78 N 0.54318 0.98594 0.87148 0.0
N79 N 0.56329 0.97815 0.88355 0.0
C80 C 0.51506 0.02331 0.87075 0.0
H81 H 0.49775 0.01741 0.88048 0.0
H82 H 0.51796 0.04361 0.87384 0.0
H83 H 0.51238 0.01976 0.85053 0.0
C84 C 0.45426 0.94586 0.87728 0.0
N85 N 0.47247 0.94968 0.8603 0.0
N86 N 0.49161 0.96062 0.87113 0.0
C87 C 0.48614 0.96344 0.89578 0.0
C88 C 0.4622 0.95452 0.9002 0.0
C89 C 0.42988 0.93345 0.87186 0.0
H90 H 0.43337 0.91504 0.86306 0.0
H91 H 0.41922 0.94549 0.85886 0.0
H92 H 0.4183 0.93078 0.8888 0.0
O93 O 0.50305 0.91132 0.82746 0.0
O94 O 0.53599 0.93299 0.84175 0.0
H95 H 0.52334 0.96356 0.91092 0.0
H96 H 0.4989 0.96251 0.93405 0.0
C97 C 0.50445 0.97047 0.91572 0.0
H98 H 0.50483 0.99103 0.91773 0.0
H99 H 0.57154 0.96068 0.88096 0.0
O100 O 0.44229 0.92476 0.81727 0.0
C101 C 0.52636 0.91307 0.83263 0.0
Co102 Co 0.31591 0.22728 0.07673 0.0
Co103 Co 0.28405 0.27045 0.10029 0.0
C104 C 0.27112 0.24961 0.05045 0.0
O105 O 0.28949 0.2349 0.0526 0.0
O106 O 0.26548 0.26472 0.06792 0.0
C107 C 0.30715 0.17935 0.06782 0.0
O108 O 0.28585 0.18875 0.07563 0.0
C109 C 0.24073 0.28822 0.12779 0.0
C110 C 0.25598 0.31908 0.15049 0.0
C111 C 0.23488 0.30432 0.14734 0.0
N112 N 0.26441 0.29256 0.12056 0.0
N113 N 0.27326 0.31142 0.13381 0.0
C114 C 0.22434 0.26874 0.11613 0.0
H115 H 0.22713 0.26855 0.09563 0.0
H116 H 0.22954 0.25002 0.12332 0.0
H117 H 0.2043 0.27235 0.12006 0.0
C118 C 0.31279 0.20729 0.12751 0.0
N119 N 0.30581 0.22417 0.11015 0.0
N120 N 0.29118 0.24107 0.1203 0.0
C121 C 0.28782 0.23477 0.14468 0.0
C122 C 0.30127 0.21312 0.14984 0.0
C123 C 0.3309 0.18639 0.12298 0.0
H124 H 0.34419 0.19141 0.10794 0.0
H125 H 0.32041 0.16936 0.11765 0.0
H126 H 0.34183 0.18178 0.13991 0.0
O127 O 0.34019 0.25478 0.07469 0.0
O128 O 0.31669 0.28616 0.0897 0.0
H129 H 0.28101 0.27007 0.1622 0.0
H130 H 0.27848 0.24375 0.18299 0.0
C131 C 0.27469 0.25045 0.16372 0.0
H132 H 0.25428 0.2496 0.16046 0.0
H133 H 0.29155 0.31806 0.13254 0.0
O134 O 0.32605 0.19369 0.06556 0.0
C135 C 0.33705 0.27782 0.08021 0.0
Co136 Co 0.02387 0.93327 0.17555 0.0
Co137 Co 0.98097 0.96469 0.15085 0.0
C138 C 1.00115 0.97826 0.20097 0.0
O139 O 0.01595 0.95992 0.19929 0.0
O140 O 0.98638 0.9837 0.18311 0.0
C141 C 0.07162 0.94205 0.18555 0.0
O142 O 0.06221 0.96332 0.17769 0.0
C143 C 0.96634 0.00756 0.12127 0.0
C144 C 0.9331 0.99451 0.10062 0.0
C145 C 0.95012 0.01403 0.10205 0.0
N146 N 0.95988 0.98491 0.13004 0.0
N147 N 0.93966 0.9774 0.11797 0.0
C148 C 0.98801 0.02235 0.13107 0.0
H149 H 0.00567 0.01519 0.12295 0.0
H150 H 0.98605 0.04246 0.12643 0.0
H151 H 0.98933 0.02019 0.15162 0.0
C152 C 0.04509 0.93626 0.12493 0.0
N153 N 0.02769 0.94298 0.14195 0.0
N154 N 0.01041 0.95672 0.13117 0.0
C155 C 0.01665 0.9593 0.10668 0.0
C156 C 0.039 0.94686 0.10219 0.0
C157 C 0.06661 0.91905 0.13006 0.0
H158 H 0.06177 0.9056 0.14502 0.0
H159 H 0.08306 0.93024 0.13577 0.0
H160 H 0.07207 0.90833 0.11327 0.0
O161 O 0.99579 0.90932 0.17778 0.0
O162 O 0.96458 0.93261 0.16195 0.0
H163 H 0.98041 0.96458 0.09027 0.0
H164 H 0.00554 0.96283 0.06801 0.0
C165 C 1.00009 0.96984 0.08676 0.0
H166 H 0.00187 0.99039 0.08651 0.0
H167 H 0.93121 0.96002 0.12054 0.0
O168 O 0.0573 0.9231 0.18748 0.0
C169 C 0.97273 0.91248 0.17211 0.0
Co170 Co 0.31782 0.77338 0.42354 0.0
Co171 Co 0.28473 0.73104 0.39986 0.0
C172 C 0.27285 0.75121 0.45002 0.0
O173 O 0.29157 0.76552 0.44789 0.0
O174 O 0.26646 0.73661 0.43233 0.0
C175 C 0.30972 0.82166 0.43221 0.0
O176 O 0.28809 0.81243 0.42514 0.0
C177 C 0.24105 0.7118 0.3733 0.0
C178 C 0.25787 0.68522 0.34665 0.0
C179 C 0.23569 0.6974 0.3523 0.0
N180 N 0.26542 0.70908 0.37898 0.0
N181 N 0.27522 0.69267 0.36335 0.0
C182 C 0.22357 0.72821 0.38774 0.0
H183 H 0.228 0.74812 0.38412 0.0
H184 H 0.20376 0.72444 0.3829 0.0
H185 H 0.22619 0.72488 0.40802 0.0
C186 C 0.31316 0.79457 0.37367 0.0
N187 N 0.30698 0.77697 0.39052 0.0
N188 N 0.29143 0.76088 0.38047 0.0
C189 C 0.28661 0.7685 0.35671 0.0
C190 C 0.30005 0.79029 0.3519 0.0
C191 C 0.33386 0.81316 0.37697 0.0
H192 H 0.34748 0.80654 0.39113 0.0
H193 H 0.32595 0.83133 0.38295 0.0
H194 H 0.34377 0.81626 0.35901 0.0
O195 O 0.34198 0.74579 0.42497 0.0
O196 O 0.31753 0.71502 0.41029 0.0
H197 H 0.2769 0.73617 0.33539 0.0
H198 H 0.26829 0.76525 0.32065 0.0
C199 C 0.26975 0.75529 0.33875 0.0
H200 H 0.2508 0.75406 0.34682 0.0
H201 H 0.29412 0.68786 0.363 0.0
O202 O 0.32844 0.80704 0.43437 0.0
C203 C 0.33825 0.72283 0.41953 0.0
Co204 Co 0.47839 0.06538 0.67353 0.0
Co205 Co 0.52286 0.03395 0.651 0.0
C206 C 0.50252 0.02255 0.70164 0.0
O207 O 0.48747 0.04061 0.699 0.0
O208 O 0.51733 0.01632 0.68407 0.0
C209 C 0.4305 0.05911 0.69054 0.0
O210 O 0.43964 0.03636 0.69098 0.0
C211 C 0.53937 0.99041 0.62339 0.0
C212 C 0.57128 0.00446 0.60141 0.0
C213 C 0.55534 0.98412 0.60384 0.0
N214 N 0.54488 0.01365 0.63121 0.0
N215 N 0.56437 0.02175 0.6184 0.0
C216 C 0.51867 0.97504 0.6343 0.0
H217 H 0.50069 0.98017 0.62532 0.0
H218 H 0.52218 0.9548 0.63154 0.0
H219 H 0.51687 0.97888 0.65455 0.0
C220 C 0.45708 0.05689 0.62378 0.0
N221 N 0.47495 0.05245 0.64101 0.0
N222 N 0.49331 0.03974 0.63075 0.0
C223 C 0.48744 0.03593 0.6063 0.0
C224 C 0.46421 0.04644 0.60134 0.0
C225 C 0.43362 0.07122 0.62859 0.0
H226 H 0.43799 0.08849 0.63914 0.0
H227 H 0.42096 0.05921 0.63966 0.0
H228 H 0.42359 0.07634 0.61123 0.0
O229 O 0.50591 0.0903 0.67412 0.0
O230 O 0.53814 0.06696 0.66084 0.0
H231 H 0.524 0.03271 0.59021 0.0
H232 H 0.49887 0.03148 0.56783 0.0
C233 C 0.5048 0.02579 0.58689 0.0
H234 H 0.50465 0.00514 0.58763 0.0
H235 H 0.57189 0.03966 0.62008 0.0
O236 O 0.44463 0.07713 0.68397 0.0
C237 C 0.52922 0.08745 0.66948 0.0
Co238 Co 0.18311 0.22602 0.92485 0.0
Co239 Co 0.21611 0.2684 0.90123 0.0
C240 C 0.22778 0.24843 0.95162 0.0
O241 O 0.20917 0.23398 0.94943 0.0
O242 O 0.23415 0.26299 0.93389 0.0
C243 C 0.191 0.1777 0.93369 0.0
O244 O 0.21274 0.18686 0.92688 0.0
C245 C 0.25985 0.2877 0.87501 0.0
C246 C 0.24336 0.31521 0.84904 0.0
C247 C 0.26542 0.30271 0.85453 0.0
N248 N 0.23549 0.29045 0.88062 0.0
N249 N 0.22587 0.30737 0.8654 0.0
C250 C 0.27715 0.27075 0.88909 0.0
H251 H 0.27469 0.27375 0.90944 0.0
H252 H 0.27235 0.25099 0.88515 0.0
H253 H 0.29699 0.27426 0.88423 0.0
C254 C 0.18796 0.2048 0.875 0.0
N255 N 0.19417 0.22235 0.8919 0.0
N256 N 0.20957 0.23856 0.88182 0.0
C257 C 0.21422 0.23111 0.85799 0.0
C258 C 0.20089 0.20926 0.85318 0.0
C259 C 0.16726 0.18621 0.87826 0.0
H260 H 0.15364 0.19281 0.89239 0.0
H261 H 0.17517 0.16803 0.88421 0.0
H262 H 0.15733 0.18314 0.86029 0.0
O263 O 0.15887 0.25359 0.92589 0.0
O264 O 0.18329 0.28435 0.91118 0.0
H265 H 0.22345 0.26391 0.83713 0.0
H266 H 0.23161 0.23512 0.82158 0.0
C267 C 0.23063 0.24469 0.83991 0.0
H268 H 0.24979 0.24576 0.84755 0.0
H269 H 0.20702 0.31238 0.86512 0.0
O270 O 0.17232 0.1924 0.93565 0.0
C271 C 0.16255 0.27652 0.92028 0.0
Co272 Co 0.32505 0.02512 0.0666 0.0
Co273 Co 0.34934 0.98192 0.03538 0.0
C274 C 0.29917 0.00222 0.02199 0.0
O275 O 0.30105 0.01716 0.04018 0.0
O276 O 0.3169 0.98728 0.01661 0.0
C277 C 0.31524 0.07295 0.05803 0.0
O278 O 0.3228 0.06369 0.03659 0.0
C279 C 0.37841 0.96595 0.99255 0.0
C280 C 0.3994 0.93337 0.00666 0.0
C281 C 0.39767 0.94961 0.9865 0.0
N282 N 0.36995 0.96031 0.01553 0.0
N283 N 0.38221 0.94047 0.02368 0.0
C284 C 0.36823 0.98693 0.97703 0.0
H285 H 0.37645 0.00488 0.98327 0.0
H286 H 0.37244 0.98412 0.95692 0.0
H287 H 0.34772 0.98828 0.97953 0.0
C288 C 0.37568 0.04584 0.06348 0.0
N289 N 0.35852 0.02868 0.05662 0.0
N290 N 0.36912 0.01138 0.0428 0.0
C291 C 0.39364 0.01746 0.04016 0.0
C292 C 0.39836 0.03961 0.05286 0.0
C293 C 0.37074 0.06723 0.08088 0.0
H294 H 0.35585 0.06232 0.09438 0.0
H295 H 0.365 0.08376 0.06983 0.0
H296 H 0.38757 0.07261 0.09158 0.0
O297 O 0.32322 0.99749 0.09091 0.0
O298 O 0.33873 0.96603 0.06784 0.0
H299 H 0.41022 0.98137 0.03491 0.0
H300 H 0.43231 0.00671 0.03531 0.0
C301 C 0.41334 1.00096 0.02914 0.0
H302 H 0.4127 0.0023 0.00854 0.0
H303 H 0.37988 0.93269 0.04141 0.0
O304 O 0.31342 0.05849 0.07688 0.0
C305 C 0.32895 0.97446 0.08802 0.0
Co306 Co 0.22682 0.07873 0.31593 0.0
Co307 Co 0.27173 0.1005 0.28483 0.0
C308 C 0.25079 0.05014 0.27341 0.0
O309 O 0.23567 0.05301 0.29134 0.0
O310 O 0.26589 0.06749 0.26726 0.0
C311 C 0.17895 0.06404 0.30791 0.0
O312 O 0.18871 0.06496 0.28543 0.0
C313 C 0.28927 0.12758 0.24146 0.0
C314 C 0.32089 0.14963 0.25608 0.0
C315 C 0.30532 0.14713 0.23544 0.0
N316 N 0.29433 0.11985 0.26485 0.0
N317 N 0.31368 0.13267 0.27328 0.0
C318 C 0.26882 0.11664 0.22575 0.0
H319 H 0.26726 0.09632 0.22931 0.0
H320 H 0.25069 0.1253 0.23086 0.0
H321 H 0.27245 0.11969 0.20557 0.0
C322 C 0.20673 0.12896 0.30799 0.0
N323 N 0.2241 0.11134 0.3032 0.0
N324 N 0.24251 0.12122 0.29028 0.0
C325 C 0.23709 0.14576 0.28648 0.0
C326 C 0.21417 0.15119 0.29737 0.0
C327 C 0.18353 0.12475 0.32293 0.0
H328 H 0.18774 0.11297 0.33943 0.0
H329 H 0.16973 0.11532 0.31076 0.0
H330 H 0.17488 0.14236 0.32942 0.0
O331 O 0.2539 0.0778 0.34121 0.0
O332 O 0.28643 0.09071 0.31808 0.0
H333 H 0.27375 0.16154 0.28314 0.0
H334 H 0.24879 0.18403 0.28107 0.0
C335 C 0.25462 0.16479 0.27596 0.0
H336 H 0.25462 0.16346 0.25534 0.0
H337 H 0.32083 0.13109 0.29136 0.0
O338 O 0.19272 0.06884 0.32676 0.0
C339 C 0.27727 0.08226 0.33854 0.0
Co340 Co 0.17627 0.97617 0.56772 0.0
Co341 Co 0.15186 0.01872 0.53554 0.0
C342 C 0.2018 0.99814 0.52232 0.0
O343 O 0.20003 0.98373 0.54096 0.0
O344 O 0.18403 0.01289 0.51654 0.0
C345 C 0.18532 0.92833 0.55906 0.0
O346 O 0.17756 0.93787 0.53779 0.0
C347 C 0.12282 0.03485 0.49252 0.0
C348 C 0.10071 0.06638 0.50724 0.0
C349 C 0.10303 0.0507 0.48672 0.0
N350 N 0.13098 0.04019 0.51571 0.0
N351 N 0.11805 0.05944 0.52421 0.0
C352 C 0.13384 0.01466 0.47656 0.0
H353 H 0.12675 0.9962 0.48272 0.0
H354 H 0.1292 0.0175 0.45655 0.0
H355 H 0.15444 0.01444 0.47873 0.0
C356 C 0.12554 0.95553 0.56528 0.0
N357 N 0.14263 0.97265 0.55814 0.0
N358 N 0.13209 0.98935 0.54354 0.0
C359 C 0.10772 0.98279 0.54052 0.0
C360 C 0.103 0.96104 0.55393 0.0
C361 C 0.13048 0.9347 0.58337 0.0
H362 H 0.1457 0.93982 0.59643 0.0
H363 H 0.13569 0.91766 0.57285 0.0
H364 H 0.11374 0.93009 0.59455 0.0
O365 O 0.17871 0.0042 0.59151 0.0
O366 O 0.16315 0.03511 0.56769 0.0
H367 H 0.09023 0.01813 0.53362 0.0
H368 H 0.06906 0.99205 0.53305 0.0
C369 C 0.08816 0.99836 0.52799 0.0
H370 H 0.09017 0.99678 0.50749 0.0
H371 H 0.12 0.06684 0.54214 0.0
O372 O 0.18775 0.94264 0.57796 0.0
C373 C 0.17317 0.02719 0.588 0.0
Co374 Co 0.27346 0.92202 0.81433 0.0
Co375 Co 0.22864 0.90019 0.78335 0.0
C376 C 0.24937 0.95039 0.77156 0.0
O377 O 0.26443 0.94765 0.78961 0.0
O378 O 0.23437 0.93297 0.7654 0.0
C379 C 0.32124 0.93653 0.80598 0.0
O380 O 0.31135 0.93532 0.78355 0.0
C381 C 0.21074 0.87417 0.73978 0.0
C382 C 0.17928 0.85161 0.75398 0.0
C383 C 0.19436 0.85512 0.73316 0.0
N384 N 0.20589 0.88111 0.76342 0.0
N385 N 0.18666 0.868 0.77166 0.0
C386 C 0.23324 0.88297 0.7256 0.0
H387 H 0.24696 0.89185 0.73836 0.0
H388 H 0.2423 0.86724 0.71559 0.0
H389 H 0.2273 0.89706 0.71159 0.0
C390 C 0.29364 0.87179 0.80654 0.0
N391 N 0.27621 0.88936 0.80177 0.0
N392 N 0.25793 0.87951 0.78864 0.0
C393 C 0.26356 0.85507 0.7845 0.0
C394 C 0.28643 0.84964 0.79557 0.0
C395 C 0.31665 0.87594 0.82184 0.0
H396 H 0.31232 0.88796 0.83812 0.0
H397 H 0.33077 0.88509 0.80983 0.0
H398 H 0.32497 0.8583 0.8287 0.0
O399 O 0.24662 0.92291 0.83976 0.0
O400 O 0.21404 0.91004 0.81666 0.0
H401 H 0.22714 0.83895 0.78019 0.0
H402 H 0.25244 0.81687 0.77758 0.0
C403 C 0.24637 0.8362 0.77311 0.0
H404 H 0.24648 0.83832 0.75253 0.0
H405 H 0.17979 0.86891 0.78987 0.0
O406 O 0.30757 0.932 0.82495 0.0
C407 C 0.22326 0.91843 0.83713 0.0
Co408 Co 0.32665 0.97648 0.43339 0.0
Co409 Co 0.35047 0.01918 0.46594 0.0
C410 C 0.30053 0.99813 0.47861 0.0
O411 O 0.30259 0.98367 0.46003 0.0
O412 O 0.31812 0.01306 0.48449 0.0
C413 C 0.31795 0.92822 0.44123 0.0
O414 O 0.32545 0.93735 0.46276 0.0
C415 C 0.37919 0.03516 0.50928 0.0
C416 C 0.40124 0.06683 0.49479 0.0
C417 C 0.39897 0.05099 0.51521 0.0
N418 N 0.37105 0.04066 0.4861 0.0
N419 N 0.38393 0.06 0.47776 0.0
C420 C 0.36819 0.01483 0.52507 0.0
H421 H 0.37578 0.99648 0.51917 0.0
H422 H 0.37237 0.01783 0.54516 0.0
H423 H 0.34766 0.01421 0.52245 0.0
C424 C 0.37753 0.95626 0.43631 0.0
N425 N 0.36021 0.97319 0.44332 0.0
N426 N 0.37047 0.98998 0.45802 0.0
C427 C 0.39487 0.98364 0.46123 0.0
C428 C 0.3999 0.96197 0.44786 0.0
C429 C 0.37304 0.93549 0.41805 0.0
H430 H 0.35793 0.94053 0.40483 0.0
H431 H 0.36792 0.91832 0.42841 0.0
H432 H 0.38998 0.93114 0.40706 0.0
O433 O 0.32427 0.0047 0.40973 0.0
O434 O 0.33943 0.03564 0.43373 0.0
H435 H 0.412 0.01913 0.46817 0.0
H436 H 0.43342 0.99326 0.46881 0.0
C437 C 0.41424 0.99939 0.47382 0.0
H438 H 0.41222 0.99775 0.49432 0.0
H439 H 0.38201 0.06752 0.45987 0.0
O440 O 0.31557 0.94293 0.42262 0.0
C441 C 0.32964 0.02772 0.41332 0.0
Co442 Co 0.27527 0.07815 0.68673 0.0
Co443 Co 0.22973 0.0999 0.71681 0.0
C444 C 0.25057 0.04969 0.72897 0.0
O445 O 0.26614 0.05246 0.71138 0.0
O446 O 0.23531 0.06707 0.73465 0.0
C447 C 0.32345 0.06309 0.69461 0.0
O448 O 0.31373 0.06289 0.71713 0.0
C449 C 0.21128 0.12579 0.76016 0.0
C450 C 0.17967 0.14804 0.74571 0.0
C451 C 0.19464 0.14465 0.76666 0.0
N452 N 0.20666 0.11881 0.73649 0.0
N453 N 0.18735 0.13173 0.72809 0.0
C454 C 0.23378 0.11723 0.77452 0.0
H455 H 0.24762 0.10837 0.76189 0.0
H456 H 0.24268 0.1331 0.78447 0.0
H457 H 0.2279 0.10319 0.78858 0.0
C458 C 0.29499 0.12851 0.6949 0.0
N459 N 0.27762 0.11084 0.69936 0.0
N460 N 0.25894 0.12067 0.71194 0.0
C461 C 0.26422 0.1452 0.71593 0.0
C462 C 0.28728 0.15073 0.70539 0.0
C463 C 0.31845 0.1244 0.68033 0.0
H464 H 0.31442 0.11301 0.66352 0.0
H465 H 0.33192 0.1145 0.69252 0.0
H466 H 0.32739 0.14207 0.6744 0.0
O467 O 0.24855 0.07703 0.66102 0.0
O468 O 0.2156 0.09008 0.68342 0.0
H469 H 0.22752 0.16093 0.7192 0.0
H470 H 0.25248 0.18335 0.72206 0.0
C471 C 0.24656 0.16402 0.72667 0.0
H472 H 0.24627 0.16219 0.74727 0.0
H473 H 0.18061 0.13075 0.70981 0.0
O474 O 0.30955 0.06855 0.67602 0.0
C475 C 0.22514 0.08151 0.6632 0.0
Co476 Co 0.17366 0.02278 0.93344 0.0
Co477 Co 0.15058 0.97947 0.96571 0.0
C478 C 0.20033 1.00104 0.97834 0.0
O479 O 0.19794 0.01566 0.95992 0.0
O480 O 0.18299 0.9858 0.98413 0.0
C481 C 0.18189 0.07112 0.94161 0.0
O482 O 0.17435 0.06182 0.96305 0.0
C483 C 0.12294 0.96209 0.00931 0.0
C484 C 0.1012 0.93029 0.99462 0.0
C485 C 0.10376 0.9456 0.0154 0.0
N486 N 0.13051 0.9574 0.98579 0.0
N487 N 0.1178 0.938 0.97729 0.0
C488 C 0.134 0.98218 0.02537 0.0
H489 H 0.12583 1.00051 0.02024 0.0
H490 H 0.13054 0.97849 0.04548 0.0
H491 H 0.15442 0.98333 0.0222 0.0
C492 C 0.12252 0.04219 0.93653 0.0
N493 N 0.14011 0.02551 0.94351 0.0
N494 N 0.13015 0.00853 0.95819 0.0
C495 C 0.10567 0.01452 0.96149 0.0
C496 C 0.10022 0.03611 0.94805 0.0
C497 C 0.12683 0.06319 0.91847 0.0
H498 H 0.14195 0.05837 0.9052 0.0
H499 H 0.13191 0.08026 0.92901 0.0
H500 H 0.1099 0.06761 0.90749 0.0
O501 O 0.17624 0.99486 0.90949 0.0
O502 O 0.16157 0.9635 0.93325 0.0
H503 H 0.08894 0.97887 0.96854 0.0
H504 H 0.06741 0.00464 0.97011 0.0
C505 C 0.08676 0.99854 0.97447 0.0
H506 H 0.08948 0.99985 0.99492 0.0
H507 H 0.11942 0.93096 0.95918 0.0
O508 O 0.18437 0.05653 0.92292 0.0
C509 C 0.17112 0.97175 0.91286 0.0
Co510 Co 0.22632 0.92516 0.18565 0.0
Co511 Co 0.27004 0.90149 0.21649 0.0
C512 C 0.24966 0.95123 0.23015 0.0
O513 O 0.23454 0.94921 0.21206 0.0
O514 O 0.26478 0.93364 0.23547 0.0
C515 C 0.17823 0.93397 0.19481 0.0
O516 O 0.18771 0.92626 0.21612 0.0
C517 C 0.28831 0.87434 0.25937 0.0
C518 C 0.31908 0.8515 0.2441 0.0
C519 C 0.30468 0.85507 0.26538 0.0
N520 N 0.29256 0.88141 0.23565 0.0
N521 N 0.31135 0.86809 0.22675 0.0
C522 C 0.26646 0.88348 0.27432 0.0
H523 H 0.25226 0.89218 0.26195 0.0
H524 H 0.25776 0.86797 0.28497 0.0
H525 H 0.27302 0.89779 0.2878 0.0
C526 C 0.20625 0.87435 0.18914 0.0
N527 N 0.22333 0.89168 0.1957 0.0
N528 N 0.24049 0.8815 0.21003 0.0
C529 C 0.23417 0.85718 0.21367 0.0
C530 C 0.21222 0.85207 0.20069 0.0
C531 C 0.18511 0.87876 0.17124 0.0
H532 H 0.18986 0.89386 0.15792 0.0
H533 H 0.16813 0.8839 0.18191 0.0
H534 H 0.18058 0.86178 0.16038 0.0
O535 O 0.25336 0.92731 0.1608 0.0
O536 O 0.28517 0.91224 0.18369 0.0
H537 H 0.26956 0.8397 0.22035 0.0
H538 H 0.24326 0.81889 0.22295 0.0
C539 C 0.24996 0.83815 0.22673 0.0
H540 H 0.24917 0.84137 0.24714 0.0
H541 H 0.31775 0.86913 0.20837 0.0
O542 O 0.19256 0.9363 0.17592 0.0
C543 C 0.27649 0.92183 0.16352 0.0
Co544 Co 0.06718 0.32705 0.02302 0.0
Co545 Co 0.03454 0.34984 0.97978 0.0
C546 C 0.02314 0.29958 1.00027 0.0
O547 O 0.04156 0.30236 0.01484 0.0
O548 O 0.0166 0.31703 0.98545 0.0
C549 C 0.05829 0.31784 0.07111 0.0
O550 O 0.03686 0.3252 0.0616 0.0
C551 C 0.9909 0.37721 0.96209 0.0
C552 C 0.0061 0.40014 0.9314 0.0
C553 C 0.98503 0.39696 0.94619 0.0
N554 N 0.01459 0.36996 0.95765 0.0
N555 N 0.02338 0.38335 0.93886 0.0
C556 C 0.97456 0.36537 0.9815 0.0
H557 H 0.97809 0.345 0.98223 0.0
H558 H 0.9791 0.37316 1.00016 0.0
H559 H 0.95449 0.36858 0.97737 0.0
C560 C 0.06289 0.37765 0.04293 0.0
N561 N 0.0562 0.36015 0.02609 0.0
N562 N 0.04138 0.37002 0.00916 0.0
C563 C 0.0377 0.39437 0.01534 0.0
C564 C 0.05107 0.39978 0.03698 0.0
C565 C 0.08112 0.37346 0.06383 0.0
H566 H 0.09479 0.35879 0.05873 0.0
H567 H 0.07077 0.36773 0.08082 0.0
H568 H 0.09156 0.39064 0.06856 0.0
O569 O 0.09157 0.32561 0.99555 0.0
O570 O 0.06744 0.33965 0.96414 0.0
H571 H 0.03093 0.41171 0.97993 0.0
H572 H 0.02813 0.43257 0.00612 0.0
C573 C 0.02449 0.41326 0.99951 0.0
H574 H 0.0041 0.40992 1.00029 0.0
H575 H 0.04168 0.38215 0.9322 0.0
O576 O 0.07728 0.31599 0.05682 0.0
C577 C 0.08811 0.33072 0.97243 0.0
Co578 Co 0.56495 0.17296 0.97664 0.0
Co579 Co 0.53425 0.15111 0.02196 0.0
C580 C 0.52329 0.20195 0.00137 0.0
O581 O 0.54085 0.19899 0.9858 0.0
O582 O 0.51729 0.18456 0.0165 0.0
C583 C 0.55939 0.1903 0.92851 0.0
O584 O 0.53674 0.19249 0.93764 0.0
C585 C 0.49086 0.12386 0.03906 0.0
C586 C 0.50475 0.10313 0.0719 0.0
C587 C 0.48449 0.10495 0.05574 0.0
N588 N 0.51405 0.13192 0.04445 0.0
N589 N 0.52207 0.11986 0.06446 0.0
C590 C 0.47565 0.13393 0.0178 0.0
H591 H 0.47986 0.15399 0.0149 0.0
H592 H 0.48061 0.12393 1.00035 0.0
H593 H 0.45536 0.13165 0.02143 0.0
C594 C 0.55545 0.12327 0.95609 0.0
N595 N 0.55125 0.14077 0.97369 0.0
N596 N 0.53929 0.13066 0.99262 0.0
C597 C 0.53594 0.106 0.98754 0.0
C598 C 0.54589 0.10077 0.96417 0.0
C599 C 0.56898 0.12783 0.93212 0.0
H600 H 0.58704 0.13721 0.936 0.0
H601 H 0.55715 0.13997 0.92028 0.0
H602 H 0.57255 0.1105 0.92144 0.0
O603 O 0.59032 0.17291 0.00383 0.0
O604 O 0.56759 0.15984 0.03655 0.0
H605 H 0.53436 0.09107 0.02472 0.0
H606 H 0.53349 0.06781 1.0004 0.0
C607 C 0.52712 0.08679 0.00583 0.0
H608 H 0.50644 0.08664 0.00619 0.0
H609 H 0.53993 0.12188 0.07205 0.0
O610 O 0.57695 0.1827 0.94275 0.0
C611 C 0.58801 0.16806 0.02716 0.0
Co612 Co 0.07443 0.31547 0.22601 0.0
Co613 Co 0.09921 0.28462 0.26946 0.0
C614 C 0.04941 0.27037 0.24898 0.0
O615 O 0.05103 0.28842 0.23379 0.0
O616 O 0.06712 0.26547 0.26412 0.0
C617 C 0.06541 0.3071 0.1777 0.0
O618 O 0.07327 0.2857 0.18682 0.0
C619 C 0.12862 0.24218 0.28607 0.0
C620 C 0.15094 0.25761 0.31713 0.0
C621 C 0.14874 0.23689 0.30169 0.0
N622 N 0.12021 0.2653 0.29123 0.0
N623 N 0.13324 0.27421 0.31024 0.0
C624 C 0.11761 0.2259 0.26612 0.0
H625 H 0.12492 0.2316 0.24759 0.0
H626 H 0.12208 0.20593 0.26944 0.0
H627 H 0.09703 0.2282 0.26567 0.0
C628 C 0.12532 0.3131 0.20559 0.0
N629 N 0.10818 0.30616 0.22275 0.0
N630 N 0.11882 0.29218 0.23993 0.0
C631 C 0.14328 0.28937 0.23365 0.0
C632 C 0.14795 0.30225 0.21161 0.0
C633 C 0.12043 0.33072 0.18436 0.0
H634 H 0.10514 0.34383 0.18911 0.0
H635 H 0.11535 0.31983 0.16751 0.0
H636 H 0.13718 0.34184 0.17961 0.0
O637 O 0.07161 0.33955 0.25386 0.0
O638 O 0.08786 0.31686 0.28527 0.0
H639 H 0.16066 0.28394 0.26931 0.0
H640 H 0.18201 0.28292 0.24341 0.0
C641 C 0.16296 0.27771 0.24974 0.0
H642 H 0.16135 0.25715 0.24877 0.0
H643 H 0.13116 0.29221 0.31742 0.0
O644 O 0.06294 0.32568 0.19241 0.0
C645 C 0.07741 0.33673 0.2769 0.0
Co646 Co 0.93595 0.82655 0.4782 0.0
Co647 Co 0.96751 0.8484 0.52286 0.0
C648 C 0.97869 0.79796 0.50185 0.0
O649 O 0.96059 0.80084 0.48689 0.0
O650 O 0.98501 0.81531 0.51689 0.0
C651 C 0.94267 0.81097 0.43018 0.0
O652 O 0.96539 0.81104 0.43946 0.0
C653 C 0.0111 0.87564 0.54017 0.0
C654 C 0.99681 0.89708 0.57232 0.0
C655 C 0.01732 0.89485 0.55658 0.0
N656 N 0.98775 0.86782 0.54528 0.0
N657 N 0.9795 0.88031 0.56491 0.0
C658 C 0.02666 0.86501 0.51947 0.0
H659 H 0.02174 0.87427 0.50159 0.0
H660 H 0.04689 0.86765 0.52324 0.0
H661 H 0.02276 0.84481 0.5173 0.0
C662 C 0.94404 0.87657 0.45779 0.0
N663 N 0.94887 0.85905 0.47524 0.0
N664 N 0.96179 0.86903 0.49361 0.0
C665 C 0.96547 0.89358 0.48813 0.0
C666 C 0.95451 0.89889 0.46518 0.0
C667 C 0.92922 0.87216 0.43454 0.0
H668 H 0.9123 0.86107 0.43894 0.0
H669 H 0.94119 0.86185 0.42122 0.0
H670 H 0.92341 0.88966 0.4252 0.0
O671 O 0.91095 0.82593 0.50549 0.0
O672 O 0.93433 0.83875 0.5379 0.0
H673 H 0.96898 0.90928 0.52481 0.0
H674 H 0.9705 0.93186 0.4999 0.0
C675 C 0.97592 0.91268 0.50564 0.0
H676 H 0.99657 0.91161 0.50549 0.0
H677 H 0.96151 0.87856 0.57222 0.0
O678 O 0.92434 0.8166 0.44433 0.0
C679 C 0.91375 0.83045 0.52882 0.0
Co680 Co 0.92385 0.18217 0.22721 0.0
Co681 Co 0.90055 0.21433 0.27053 0.0
C682 C 0.951 0.22605 0.25092 0.0
O683 O 0.94877 0.20735 0.23667 0.0
O684 O 0.93309 0.23281 0.26506 0.0
C685 C 0.93677 0.19299 0.18019 0.0
O686 O 0.933 0.21456 0.19125 0.0
C687 C 0.87218 0.25727 0.2875 0.0
C688 C 0.84874 0.24175 0.31763 0.0
C689 C 0.85169 0.26268 0.30259 0.0
N690 N 0.88 0.2339 0.2925 0.0
N691 N 0.86633 0.22494 0.31101 0.0
C692 C 0.88399 0.27361 0.26807 0.0
H693 H 0.87714 0.26822 0.24927 0.0
H694 H 0.87976 0.29361 0.27149 0.0
H695 H 0.90453 0.27099 0.26823 0.0
C696 C 0.87377 0.18797 0.20608 0.0
N697 N 0.89091 0.19373 0.22365 0.0
N698 N 0.88064 0.20787 0.2409 0.0
C699 C 0.85638 0.21179 0.2343 0.0
C700 C 0.85155 0.19959 0.21192 0.0
C701 C 0.87823 0.17088 0.18442 0.0
H702 H 0.89211 0.15634 0.18936 0.0
H703 H 0.88506 0.18216 0.16849 0.0
H704 H 0.86085 0.1615 0.17827 0.0
O705 O 0.92486 0.15723 0.25443 0.0
O706 O 0.9112 0.18142 0.28591 0.0
H707 H 0.83866 0.21716 0.26975 0.0
H708 H 0.81778 0.21951 0.24349 0.0
C709 C 0.83691 0.22386 0.25028 0.0
H710 H 0.83932 0.24435 0.24971 0.0
H711 H 0.8678 0.20675 0.31787 0.0
O712 O 0.93472 0.17295 0.19296 0.0
C713 C 0.92006 0.16074 0.27761 0.0
Co714 Co 0.43332 0.67265 0.52372 0.0
Co715 Co 0.46577 0.64949 0.4807 0.0
C716 C 0.47784 0.69958 0.50144 0.0
O717 O 0.45944 0.69716 0.51608 0.0
O718 O 0.48389 0.68211 0.48646 0.0
C719 C 0.44177 0.68141 0.5719 0.0
O720 O 0.46325 0.67406 0.56255 0.0
C721 C 0.5094 0.62214 0.46303 0.0
C722 C 0.49396 0.59869 0.43283 0.0
C723 C 0.51517 0.60216 0.44739 0.0
N724 N 0.48565 0.62924 0.45868 0.0
N725 N 0.47671 0.61554 0.44017 0.0
C726 C 0.52591 0.63433 0.48208 0.0
H727 H 0.52271 0.65477 0.48209 0.0
H728 H 0.52122 0.62726 0.50099 0.0
H729 H 0.54595 0.6307 0.47814 0.0
C730 C 0.43728 0.62193 0.54385 0.0
N731 N 0.4439 0.63935 0.52688 0.0
N732 N 0.45888 0.62944 0.51015 0.0
C733 C 0.46284 0.60521 0.51666 0.0
C734 C 0.44944 0.59988 0.53828 0.0
C735 C 0.41885 0.62607 0.56454 0.0
H736 H 0.40542 0.64098 0.55949 0.0
H737 H 0.42906 0.63132 0.58178 0.0
H738 H 0.4081 0.60895 0.5688 0.0
O739 O 0.40906 0.67446 0.49605 0.0
O740 O 0.43299 0.65985 0.46483 0.0
H741 H 0.47016 0.58743 0.48162 0.0
H742 H 0.47329 0.56708 0.50818 0.0
C743 C 0.47654 0.58635 0.50126 0.0
H744 H 0.49684 0.59016 0.50211 0.0
H745 H 0.45834 0.61658 0.43366 0.0
O746 O 0.42294 0.68356 0.55741 0.0
C747 C 0.41243 0.66914 0.47298 0.0
Co748 Co 0.07565 0.68439 0.273 0.0
Co749 Co 0.09923 0.71689 0.23029 0.0
C750 C 0.04918 0.7293 0.25077 0.0
O751 O 0.05139 0.71077 0.2653 0.0
O752 O 0.06678 0.73533 0.23594 0.0
C753 C 0.06667 0.69272 0.32115 0.0
O754 O 0.07422 0.71416 0.31189 0.0
C755 C 0.12691 0.76024 0.2127 0.0
C756 C 0.15066 0.74458 0.18286 0.0
C757 C 0.1471 0.76583 0.19729 0.0
N758 N 0.11976 0.73654 0.20838 0.0
N759 N 0.13363 0.72747 0.19008 0.0
C760 C 0.11458 0.77687 0.23155 0.0
H761 H 0.12095 0.77178 0.25061 0.0
H762 H 0.11879 0.79683 0.22792 0.0
H763 H 0.09406 0.77418 0.2309 0.0
C764 C 0.12632 0.68802 0.29354 0.0
N765 N 0.10903 0.69471 0.27643 0.0
N766 N 0.11909 0.70978 0.25986 0.0
C767 C 0.14327 0.71372 0.26665 0.0
C768 C 0.1484 0.70025 0.28828 0.0
C769 C 0.12213 0.66936 0.31401 0.0
H770 H 0.10718 0.65604 0.30878 0.0
H771 H 0.11685 0.67935 0.33136 0.0
H772 H 0.13931 0.6586 0.31813 0.0
O773 O 0.07369 0.6603 0.24521 0.0
O774 O 0.08858 0.68435 0.21421 0.0
H775 H 0.16151 0.7212 0.23188 0.0
H776 H 0.18148 0.7244 0.25874 0.0
C777 C 0.16227 0.72754 0.25153 0.0
H778 H 0.15831 0.74779 0.25235 0.0
H779 H 0.13259 0.70909 0.18365 0.0
O780 O 0.06449 0.67396 0.30661 0.0
C781 C 0.07909 0.66384 0.22219 0.0
Co782 Co 0.42605 0.31574 0.7759 0.0
Co783 Co 0.40136 0.28492 0.73254 0.0
C784 C 0.45164 0.27127 0.75222 0.0
O785 O 0.4499 0.28927 0.76744 0.0
O786 O 0.4338 0.26609 0.73733 0.0
C787 C 0.43611 0.30682 0.82377 0.0
O788 O 0.42844 0.28543 0.81447 0.0
C789 C 0.37229 0.24228 0.71593 0.0
C790 C 0.34935 0.25772 0.6853 0.0
C791 C 0.35201 0.23689 0.70054 0.0
N792 N 0.38034 0.26554 0.71083 0.0
N793 N 0.36695 0.27446 0.69208 0.0
C794 C 0.38374 0.22597 0.73561 0.0
H795 H 0.37673 0.23155 0.75429 0.0
H796 H 0.37934 0.20599 0.7323 0.0
H797 H 0.40431 0.22839 0.73571 0.0
C798 C 0.37563 0.31209 0.79714 0.0
N799 N 0.39262 0.30568 0.77964 0.0
N800 N 0.38197 0.29174 0.76244 0.0
C801 C 0.35765 0.28846 0.76905 0.0
C802 C 0.35312 0.30094 0.79134 0.0
C803 C 0.3804 0.32976 0.81835 0.0
H804 H 0.39525 0.34329 0.81337 0.0
H805 H 0.38611 0.31894 0.83506 0.0
H806 H 0.36338 0.34034 0.82342 0.0
O807 O 0.42779 0.34036 0.74852 0.0
O808 O 0.412 0.31763 0.71697 0.0
H809 H 0.33986 0.28334 0.73355 0.0
H810 H 0.31887 0.28176 0.75972 0.0
C811 C 0.33789 0.27683 0.75306 0.0
H812 H 0.33972 0.25628 0.75376 0.0
H813 H 0.3687 0.29256 0.68502 0.0
O814 O 0.43789 0.32571 0.80936 0.0
C815 C 0.42194 0.3377 0.72548 0.0
Co816 Co 0.52416 0.5654 0.82981 0.0
Co817 Co 0.47902 0.53462 0.8515 0.0
C818 C 0.50025 0.52288 0.80125 0.0
O819 O 0.51544 0.54076 0.80412 0.0
O820 O 0.48502 0.51691 0.81855 0.0
C821 C 0.57207 0.55773 0.81486 0.0
O822 O 0.56246 0.53518 0.81554 0.0
C823 C 0.4618 0.49142 0.8789 0.0
C824 C 0.42924 0.50553 0.89988 0.0
C825 C 0.44532 0.48524 0.89804 0.0
N826 N 0.45643 0.51458 0.87076 0.0
N827 N 0.43655 0.52272 0.88295 0.0
C828 C 0.48292 0.47609 0.86876 0.0
H829 H 0.48523 0.4797 0.84851 0.0
H830 H 0.5006 0.48148 0.87814 0.0
H831 H 0.47951 0.45585 0.87168 0.0
C832 C 0.54406 0.55754 0.88018 0.0
N833 N 0.52676 0.55274 0.86249 0.0
N834 N 0.50806 0.5403 0.87241 0.0
C835 C 0.5131 0.537 0.89712 0.0
C836 C 0.53615 0.54762 0.90261 0.0
C837 C 0.5677 0.57175 0.8758 0.0
H838 H 0.56376 0.58869 0.86457 0.0
H839 H 0.58079 0.55942 0.86561 0.0
H840 H 0.57711 0.5774 0.89332 0.0
O841 O 0.49701 0.59064 0.82866 0.0
O842 O 0.46432 0.56771 0.84153 0.0
H843 H 0.47602 0.53435 0.91208 0.0
H844 H 0.50041 0.53337 0.93528 0.0
C845 C 0.49506 0.52737 0.91615 0.0
H846 H 0.49509 0.50671 0.9158 0.0
H847 H 0.42903 0.54059 0.88093 0.0
O848 O 0.55822 0.57642 0.81999 0.0
C849 C 0.4736 0.58807 0.83301 0.0
Co850 Co 0.68318 0.27196 0.07461 0.0
Co851 Co 0.71701 0.23044 0.09828 0.0
C852 C 0.72817 0.25 0.04777 0.0
O853 O 0.70906 0.26374 0.05011 0.0
O854 O 0.73538 0.23596 0.06564 0.0
C855 C 0.69129 0.3196 0.06445 0.0
O856 O 0.71292 0.31036 0.07155 0.0
C857 C 0.76033 0.21157 0.1257 0.0
C858 C 0.74318 0.18449 0.15165 0.0
C859 C 0.76533 0.197 0.14668 0.0
N860 N 0.73616 0.20861 0.11937 0.0
N861 N 0.72618 0.19192 0.13458 0.0
C862 C 0.77798 0.2283 0.11183 0.0
H863 H 0.7756 0.22543 0.09145 0.0
H864 H 0.7735 0.24812 0.11582 0.0
H865 H 0.79772 0.22442 0.11689 0.0
C866 C 0.6882 0.29413 0.12414 0.0
N867 N 0.69436 0.27632 0.10748 0.0
N868 N 0.7099 0.2603 0.1177 0.0
C869 C 0.71451 0.26804 0.14148 0.0
C870 C 0.70113 0.28994 0.14606 0.0
C871 C 0.66775 0.31293 0.12047 0.0
H872 H 0.654 0.30618 0.10651 0.0
H873 H 0.67593 0.33081 0.114 0.0
H874 H 0.65794 0.31662 0.13837 0.0
O875 O 0.65923 0.24431 0.07373 0.0
O876 O 0.68448 0.21396 0.0879 0.0
H877 H 0.72392 0.23544 0.16258 0.0
H878 H 0.73164 0.26436 0.17808 0.0
C879 C 0.73091 0.25471 0.15978 0.0
H880 H 0.75014 0.25386 0.15236 0.0
H881 H 0.70733 0.18686 0.13439 0.0
O882 O 0.67238 0.30518 0.06303 0.0
C883 C 0.6635 0.22141 0.079 0.0
Co884 Co 0.97556 0.43699 0.32604 0.0
Co885 Co 0.02166 0.46586 0.34891 0.0
C886 C 1.00124 0.47875 0.29832 0.0
O887 O 0.98496 0.46176 0.30075 0.0
O888 O 0.01672 0.48355 0.3158 0.0
C889 C 0.92737 0.4409 0.30629 0.0
O890 O 0.93637 0.46306 0.30094 0.0
C891 C 0.03901 0.5085 0.37701 0.0
C892 C 0.07191 0.49423 0.39741 0.0
C893 C 0.05582 0.51454 0.39591 0.0
N894 N 0.04428 0.48544 0.36859 0.0
N895 N 0.06431 0.47716 0.38047 0.0
C896 C 0.01774 0.52391 0.36728 0.0
H897 H 1.00034 0.51893 0.37737 0.0
H898 H 0.0215 0.54415 0.36978 0.0
H899 H 0.01464 0.51997 0.34719 0.0
C900 C 0.95473 0.44648 0.37569 0.0
N901 N 0.97274 0.45014 0.35849 0.0
N902 N 0.99208 0.46101 0.36907 0.0
C903 C 0.98691 0.46397 0.39377 0.0
C904 C 0.96302 0.45502 0.39853 0.0
C905 C 0.93011 0.43443 0.37049 0.0
H906 H 0.93329 0.41553 0.36266 0.0
H907 H 0.91996 0.44606 0.35674 0.0
H908 H 0.91821 0.4329 0.38734 0.0
O909 O 0.00252 0.41136 0.3254 0.0
O910 O 0.0358 0.43261 0.33948 0.0
H911 H 0.02416 0.46408 0.40874 0.0
H912 H 0.99981 0.46451 0.43203 0.0
C913 C 0.00542 0.47154 0.41333 0.0
H914 H 0.00626 0.49217 0.41435 0.0
H915 H 0.07184 0.45934 0.37814 0.0
O916 O 0.94169 0.4247 0.31629 0.0
C917 C 0.02588 0.41281 0.33043 0.0
Co918 Co 0.81427 0.72783 0.57614 0.0
Co919 Co 0.78258 0.77245 0.59785 0.0
C920 C 0.7715 0.75128 0.54742 0.0
O921 O 0.78966 0.73641 0.55035 0.0
O922 O 0.76512 0.76632 0.56474 0.0
C923 C 0.80748 0.67984 0.56074 0.0
O924 O 0.78478 0.68914 0.56099 0.0
C925 C 0.73901 0.78972 0.62515 0.0
C926 C 0.75326 0.82212 0.64626 0.0
C927 C 0.7328 0.80628 0.64424 0.0
N928 N 0.76231 0.79487 0.6172 0.0
N929 N 0.77053 0.81464 0.62949 0.0
C930 C 0.7235 0.76888 0.61474 0.0
H931 H 0.72747 0.76644 0.59457 0.0
H932 H 0.72838 0.75114 0.62427 0.0
H933 H 0.70326 0.77267 0.61726 0.0
C934 C 0.80618 0.70754 0.62622 0.0
N935 N 0.80129 0.7249 0.60863 0.0
N936 N 0.78838 0.74329 0.61857 0.0
C937 C 0.78481 0.73793 0.64316 0.0
C938 C 0.79579 0.71504 0.64855 0.0
C939 C 0.82099 0.68428 0.62186 0.0
H940 H 0.83793 0.68866 0.61079 0.0
H941 H 0.80903 0.67097 0.61154 0.0
H942 H 0.82676 0.67495 0.63939 0.0
O943 O 0.83924 0.75519 0.57556 0.0
O944 O 0.81575 0.78753 0.58827 0.0
H945 H 0.78136 0.77472 0.65863 0.0
H946 H 0.78008 0.74997 0.68142 0.0
C947 C 0.77449 0.75556 0.66223 0.0
H948 H 0.75382 0.75535 0.66134 0.0
H949 H 0.78848 0.82202 0.62761 0.0
O950 O 0.82587 0.69396 0.56626 0.0
C951 C 0.83637 0.7785 0.58005 0.0
Co952 Co 0.52528 0.43502 0.67637 0.0
Co953 Co 0.4816 0.46602 0.65234 0.0
C954 C 0.50183 0.47943 0.70237 0.0
O955 O 0.51705 0.46144 0.70038 0.0
O956 O 0.48673 0.48469 0.68473 0.0
C957 C 0.57344 0.44396 0.68553 0.0
O958 O 0.56404 0.46534 0.67795 0.0
C959 C 0.46344 0.50881 0.62418 0.0
C960 C 0.43335 0.49271 0.60101 0.0
C961 C 0.44773 0.51407 0.6041 0.0
N962 N 0.45932 0.48518 0.63171 0.0
N963 N 0.44087 0.47584 0.61818 0.0
C964 C 0.48242 0.52565 0.63603 0.0
H965 H 0.48257 0.52279 0.65653 0.0
H966 H 0.50133 0.52098 0.62895 0.0
H967 H 0.47828 0.54557 0.63209 0.0
C968 C 0.54562 0.43856 0.62564 0.0
N969 N 0.52846 0.44514 0.6429 0.0
N970 N 0.51131 0.4594 0.63258 0.0
C971 C 0.51769 0.46289 0.60825 0.0
C972 C 0.5397 0.44998 0.60327 0.0
C973 C 0.56677 0.42072 0.63018 0.0
H974 H 0.5619 0.40731 0.64517 0.0
H975 H 0.58366 0.43141 0.63557 0.0
H976 H 0.57153 0.40996 0.61321 0.0
O977 O 0.49799 0.41032 0.67842 0.0
O978 O 0.46631 0.43321 0.66305 0.0
H979 H 0.48234 0.46868 0.59041 0.0
H980 H 0.5087 0.47174 0.5698 0.0
C981 C 0.5018 0.47549 0.58899 0.0
H982 H 0.50216 0.49592 0.59207 0.0
H983 H 0.43454 0.45746 0.61955 0.0
O984 O 0.55902 0.42512 0.68767 0.0
C985 C 0.47489 0.41307 0.67282 0.0
Co986 Co 0.81566 0.27487 0.92449 0.0
Co987 Co 0.78728 0.23016 0.89927 0.0
C988 C 0.771 0.25152 0.94867 0.0
O989 O 0.7877 0.2681 0.94681 0.0
O990 O 0.76808 0.23515 0.93164 0.0
C991 C 0.80696 0.32319 0.9321 0.0
O992 O 0.78597 0.31389 0.92335 0.0
C993 C 0.74462 0.21405 0.86997 0.0
C994 C 0.75928 0.18241 0.84801 0.0
C995 C 0.73886 0.19829 0.85011 0.0
N996 N 0.76769 0.2085 0.87834 0.0
N997 N 0.77616 0.18918 0.86551 0.0
C998 C 0.72881 0.2345 0.88073 0.0
H999 H 0.7315 0.2355 0.90122 0.0
H1000 H 0.7346 0.25273 0.87277 0.0
H1001 H 0.7087 0.23135 0.87671 0.0
C1002 C 0.81487 0.29441 0.87312 0.0
N1003 N 0.80791 0.27728 0.8903 0.0
N1004 N 0.79457 0.2597 0.87953 0.0
C1005 C 0.7921 0.26573 0.85497 0.0
C1006 C 0.80459 0.288 0.85034 0.0
C1007 C 0.83196 0.31603 0.8781 0.0
H1008 H 0.84459 0.3119 0.89397 0.0
H1009 H 0.82061 0.33285 0.88225 0.0
H1010 H 0.84363 0.32046 0.86163 0.0
O1011 O 0.83895 0.24674 0.92994 0.0
O1012 O 0.81982 0.21469 0.9107 0.0
H1013 H 0.78724 0.22982 0.83799 0.0
H1014 H 0.78667 0.25546 0.81626 0.0
C1015 C 0.781 0.24933 0.83525 0.0
H1016 H 0.76037 0.25024 0.8363 0.0
H1017 H 0.79403 0.18164 0.8676 0.0
O1018 O 0.82549 0.30861 0.93567 0.0
C1019 C 0.83802 0.22375 0.92341 0.0
Co1020 Co 0.97736 0.56582 0.17254 0.0
Co1021 Co 0.0215 0.53499 0.14916 0.0
C1022 C 0.00255 0.52293 0.1998 0.0
O1023 O 0.98765 0.54112 0.19751 0.0
O1024 O 0.01688 0.5166 0.18189 0.0
C1025 C 0.93061 0.55462 0.18666 0.0
O1026 O 0.94175 0.53302 0.18334 0.0
C1027 C 0.0394 0.49206 0.12154 0.0
C1028 C 0.0695 0.50761 0.09806 0.0
C1029 C 0.05488 0.48644 0.10143 0.0
N1030 N 0.04385 0.5157 0.12882 0.0
N1031 N 0.0623 0.52471 0.11512 0.0
C1032 C 0.02014 0.47563 0.13349 0.0
H1033 H 1.00131 0.48061 0.12636 0.0
H1034 H 0.02391 0.45561 0.12969 0.0
H1035 H 0.02007 0.47859 0.15397 0.0
C1036 C 0.95591 0.559 0.12277 0.0
N1037 N 0.97376 0.55381 0.13981 0.0
N1038 N 0.99153 0.54041 0.12942 0.0
C1039 C 0.98507 0.53647 0.10514 0.0
C1040 C 0.96222 0.54791 0.1004 0.0
C1041 C 0.93349 0.57503 0.12759 0.0
H1042 H 0.93827 0.59035 0.14065 0.0
H1043 H 0.91862 0.5632 0.13576 0.0
H1044 H 0.92583 0.58332 0.11026 0.0
O1045 O 0.00379 0.59153 0.17299 0.0
O1046 O 0.03601 0.56839 0.15926 0.0
H1047 H 0.0208 0.53245 0.08756 0.0
H1048 H 0.99469 0.5293 0.06655 0.0
C1049 C 0.00156 0.5251 0.08567 0.0
H1050 H 0.00179 0.50458 0.08801 0.0
H1051 H 0.06882 0.54305 0.11625 0.0
O1052 O 0.94319 0.57466 0.18377 0.0
C1053 C 0.02705 0.58883 0.16801 0.0
Co1054 Co 0.68271 0.72494 0.42358 0.0
Co1055 Co 0.71391 0.76786 0.39858 0.0
C1056 C 0.72782 0.74836 0.44865 0.0
O1057 O 0.70952 0.73343 0.44716 0.0
O1058 O 0.73318 0.76299 0.43065 0.0
C1059 C 0.69164 0.67679 0.43244 0.0
O1060 O 0.71295 0.68615 0.42462 0.0
C1061 C 0.75652 0.78669 0.3707 0.0
C1062 C 0.73959 0.81467 0.34554 0.0
C1063 C 0.76156 0.80166 0.35008 0.0
N1064 N 0.73249 0.78993 0.37732 0.0
N1065 N 0.72261 0.80713 0.36258 0.0
C1066 C 0.77393 0.76914 0.38388 0.0
H1067 H 0.76758 0.7496 0.38118 0.0
H1068 H 0.79347 0.77121 0.37729 0.0
H1069 H 0.77338 0.77299 0.40423 0.0
C1070 C 0.68589 0.70363 0.37353 0.0
N1071 N 0.69245 0.72131 0.39018 0.0
N1072 N 0.70698 0.7379 0.37944 0.0
C1073 C 0.71061 0.73063 0.35537 0.0
C1074 C 0.6976 0.70848 0.35111 0.0
C1075 C 0.66594 0.68443 0.37775 0.0
H1076 H 0.65269 0.69071 0.39238 0.0
H1077 H 0.67467 0.66657 0.38353 0.0
H1078 H 0.6554 0.68088 0.36022 0.0
O1079 O 0.65816 0.75221 0.42559 0.0
O1080 O 0.68133 0.78339 0.40975 0.0
H1081 H 0.71856 0.76386 0.33466 0.0
H1082 H 0.72577 0.73543 0.31804 0.0
C1083 C 0.72586 0.74459 0.33659 0.0
H1084 H 0.74543 0.74541 0.34309 0.0
H1085 H 0.70387 0.81253 0.36309 0.0
O1086 O 0.67286 0.69125 0.435 0.0
C1087 C 0.66117 0.77519 0.41978 0.0
Co1088 Co 0.82837 0.52506 0.56398 0.0
Co1089 Co 0.85087 0.47954 0.53419 0.0
C1090 C 0.8003 0.50028 0.52182 0.0
O1091 O 0.80285 0.51594 0.53933 0.0
O1092 O 0.81779 0.48504 0.5164 0.0
C1093 C 0.81167 0.57293 0.55718 0.0
O1094 O 0.81088 0.56351 0.53456 0.0
C1095 C 0.87963 0.46433 0.4913 0.0
C1096 C 0.89924 0.43029 0.50379 0.0
C1097 C 0.89845 0.44775 0.4846 0.0
N1098 N 0.87055 0.45765 0.51376 0.0
N1099 N 0.88197 0.43696 0.52094 0.0
C1100 C 0.8707 0.48677 0.47712 0.0
H1101 H 0.88117 0.50353 0.48331 0.0
H1102 H 0.87351 0.48423 0.45673 0.0
H1103 H 0.85062 0.49014 0.48095 0.0
C1104 C 0.87845 0.54554 0.55549 0.0
N1105 N 0.86097 0.52791 0.55117 0.0
N1106 N 0.87134 0.50871 0.53993 0.0
C1107 C 0.89615 0.51355 0.53735 0.0
C1108 C 0.90118 0.53715 0.54675 0.0
C1109 C 0.87369 0.56976 0.56847 0.0
H1110 H 0.86356 0.56628 0.58619 0.0
H1111 H 0.86218 0.58159 0.55601 0.0
H1112 H 0.89106 0.58021 0.5726 0.0
O1113 O 0.82763 0.49784 0.58935 0.0
O1114 O 0.84121 0.46484 0.56727 0.0
H1115 H 0.91024 0.47597 0.53671 0.0
H1116 H 0.93405 0.49971 0.53846 0.0
C1117 C 0.91564 0.49482 0.53019 0.0
H1118 H 0.91788 0.49475 0.50965 0.0
H1119 H 0.87914 0.42829 0.53817 0.0
O1120 O 0.81833 0.559 0.57535 0.0
C1121 C 0.8324 0.47446 0.58736 0.0
Co1122 Co 0.72673 0.5788 0.81479 0.0
Co1123 Co 0.77116 0.60147 0.78354 0.0
C1124 C 0.75097 0.55058 0.7723 0.0
O1125 O 0.73582 0.55318 0.79026 0.0
O1126 O 0.76575 0.56821 0.7661 0.0
C1127 C 0.67897 0.5611 0.80939 0.0
O1128 O 0.68789 0.55991 0.78659 0.0
C1129 C 0.78653 0.63003 0.7404 0.0
C1130 C 0.81921 0.65122 0.75392 0.0
C1131 C 0.80243 0.64964 0.73416 0.0
N1132 N 0.79287 0.62138 0.76313 0.0
N1133 N 0.81282 0.63371 0.7709 0.0
C1134 C 0.76502 0.61993 0.72558 0.0
H1135 H 0.76271 0.5997 0.72929 0.0
H1136 H 0.7475 0.62939 0.73134 0.0
H1137 H 0.76797 0.62289 0.70526 0.0
C1138 C 0.70514 0.62832 0.80594 0.0
N1139 N 0.72305 0.61114 0.80158 0.0
N1140 N 0.74167 0.6216 0.78943 0.0
C1141 C 0.73607 0.64617 0.78617 0.0
C1142 C 0.71264 0.65094 0.7962 0.0
C1143 C 0.68144 0.62338 0.8198 0.0
H1144 H 0.68568 0.61353 0.83752 0.0
H1145 H 0.66936 0.61157 0.80789 0.0
H1146 H 0.67086 0.64064 0.82406 0.0
O1147 O 0.75431 0.57869 0.83966 0.0
O1148 O 0.78656 0.59212 0.81647 0.0
H1149 H 0.77305 0.66159 0.78418 0.0
H1150 H 0.74844 0.68454 0.78464 0.0
C1151 C 0.75393 0.66585 0.77753 0.0
H1152 H 0.7537 0.66674 0.75688 0.0
H1153 H 0.82099 0.63138 0.78846 0.0
O1154 O 0.69323 0.56836 0.82705 0.0
C1155 C 0.77759 0.58355 0.83695 0.0
Co1156 Co 0.67544 0.47417 0.0623 0.0
Co1157 Co 0.65033 0.52031 0.0365 0.0
C1158 C 0.69921 0.49844 0.01837 0.0
O1159 O 0.69715 0.48086 0.03398 0.0
O1160 O 0.68267 0.51552 0.01696 0.0
C1161 C 0.68313 0.42586 0.05357 0.0
O1162 O 0.67414 0.43497 0.0326 0.0
C1163 C 0.62028 0.53637 0.99463 0.0
C1164 C 0.59974 0.56911 0.00892 0.0
C1165 C 0.60078 0.55259 0.98894 0.0
N1166 N 0.62948 0.5423 0.01727 0.0
N1167 N 0.61749 0.56225 0.02552 0.0
C1168 C 0.62983 0.515 0.97927 0.0
H1169 H 0.6502 0.51266 0.98214 0.0
H1170 H 0.62061 0.49744 0.98526 0.0
H1171 H 0.6261 0.5181 0.9591 0.0
C1172 C 0.62381 0.45529 0.06206 0.0
N1173 N 0.64113 0.47232 0.05525 0.0
N1174 N 0.63026 0.49088 0.04338 0.0
C1175 C 0.60543 0.48574 0.04189 0.0
C1176 C 0.60076 0.46294 0.05335 0.0
C1177 C 0.62888 0.43263 0.07774 0.0
H1178 H 0.64471 0.43606 0.09063 0.0
H1179 H 0.63322 0.41664 0.06535 0.0
H1180 H 0.61243 0.42729 0.08905 0.0
O1181 O 0.68165 0.50177 0.08588 0.0
O1182 O 0.66196 0.5349 0.06923 0.0
H1183 H 0.58988 0.52259 0.03947 0.0
H1184 H 0.56696 0.49799 0.04023 0.0
C1185 C 0.58565 0.50341 0.03303 0.0
H1186 H 0.58479 0.50304 0.01238 0.0
H1187 H 0.62033 0.57022 0.04309 0.0
O1188 O 0.68662 0.44052 0.07201 0.0
C1189 C 0.67535 0.52484 0.08639 0.0
Co1190 Co 0.77275 0.42021 0.31646 0.0
Co1191 Co 0.72855 0.39898 0.28401 0.0
C1192 C 0.7489 0.44951 0.27399 0.0
O1193 O 0.76333 0.44622 0.29244 0.0
O1194 O 0.73449 0.43207 0.26657 0.0
C1195 C 0.82027 0.43432 0.30726 0.0
O1196 O 0.80983 0.43256 0.28512 0.0
C1197 C 0.71091 0.37328 0.23986 0.0
C1198 C 0.67933 0.35068 0.25371 0.0
C1199 C 0.69449 0.35433 0.23296 0.0
N1200 N 0.70599 0.38002 0.26356 0.0
N1201 N 0.68669 0.36687 0.27158 0.0
C1202 C 0.73339 0.38225 0.22579 0.0
H1203 H 0.7471 0.39098 0.23867 0.0
H1204 H 0.74245 0.36664 0.21559 0.0
H1205 H 0.72745 0.3965 0.21194 0.0
C1206 C 0.79282 0.37016 0.30862 0.0
N1207 N 0.77561 0.38782 0.30346 0.0
N1208 N 0.75776 0.37823 0.28958 0.0
C1209 C 0.76351 0.35384 0.28527 0.0
C1210 C 0.78596 0.34819 0.29709 0.0
C1211 C 0.81529 0.3741 0.32479 0.0
H1212 H 0.81064 0.38655 0.34066 0.0
H1213 H 0.83012 0.38266 0.3132 0.0
H1214 H 0.82289 0.35642 0.33233 0.0
O1215 O 0.7458 0.42055 0.34165 0.0
O1216 O 0.71364 0.40866 0.31739 0.0
H1217 H 0.72731 0.33764 0.27968 0.0
H1218 H 0.75279 0.31578 0.27704 0.0
C1219 C 0.74672 0.33519 0.27297 0.0
H1220 H 0.74726 0.33789 0.25247 0.0
H1221 H 0.67973 0.36764 0.28977 0.0
O1222 O 0.80704 0.43028 0.32666 0.0
C1223 C 0.72245 0.41647 0.3383 0.0
Co1224 Co 0.82593 0.4776 0.93108 0.0
Co1225 Co 0.84889 0.51972 0.96475 0.0
C1226 C 0.7984 0.49951 0.97555 0.0
O1227 O 0.8011 0.48554 0.95669 0.0
O1228 O 0.81604 0.51383 0.98268 0.0
C1229 C 0.81627 0.42977 0.93955 0.0
O1230 O 0.82335 0.43924 0.96107 0.0
C1231 C 0.87671 0.53635 0.00847 0.0
C1232 C 0.89971 0.56716 0.99359 0.0
C1233 C 0.89668 0.55195 0.01439 0.0
N1234 N 0.8692 0.54135 0.98498 0.0
N1235 N 0.88263 0.5602 0.9764 0.0
C1236 C 0.86491 0.51672 0.02457 0.0
H1237 H 0.87215 0.49804 0.01932 0.0
H1238 H 0.86874 0.52018 0.04466 0.0
H1239 H 0.84442 0.51654 0.02154 0.0
C1240 C 0.87637 0.45677 0.93555 0.0
N1241 N 0.85906 0.47387 0.94214 0.0
N1242 N 0.86899 0.49036 0.95738 0.0
C1243 C 0.8932 0.48366 0.96136 0.0
C1244 C 0.89843 0.46206 0.94789 0.0
C1245 C 0.87209 0.43617 0.91705 0.0
H1246 H 0.85748 0.44155 0.9034 0.0
H1247 H 0.86626 0.41907 0.92717 0.0
H1248 H 0.88928 0.4315 0.9066 0.0
O1249 O 0.82465 0.50557 0.90719 0.0
O1250 O 0.83862 0.53621 0.93226 0.0
H1251 H 0.91076 0.51876 0.96904 0.0
H1252 H 0.93153 0.49242 0.97091 0.0
C1253 C 0.91226 0.499 0.97488 0.0
H1254 H 0.90909 0.49756 0.99524 0.0
H1255 H 0.88126 0.56722 0.95826 0.0
O1256 O 0.81465 0.44408 0.92055 0.0
C1257 C 0.82971 0.52857 0.91134 0.0
Co1258 Co 0.77705 0.57605 0.19193 0.0
Co1259 Co 0.72834 0.59875 0.21533 0.0
C1260 C 0.75085 0.54923 0.2324 0.0
O1261 O 0.76957 0.55226 0.21827 0.0
O1262 O 0.73331 0.5654 0.23328 0.0
C1263 C 0.82328 0.54983 0.18741 0.0
O1264 O 0.81224 0.53314 0.2016 0.0
C1265 C 0.70965 0.62532 0.25808 0.0
C1266 C 0.67726 0.6464 0.24363 0.0
C1267 C 0.69248 0.64374 0.2645 0.0
N1268 N 0.70498 0.61779 0.23458 0.0
N1269 N 0.68527 0.63008 0.22615 0.0
C1270 C 0.73253 0.61768 0.27234 0.0
H1271 H 0.74613 0.60816 0.25996 0.0
H1272 H 0.74149 0.63418 0.28115 0.0
H1273 H 0.72711 0.6044 0.2873 0.0
C1274 C 0.7965 0.62599 0.20145 0.0
N1275 N 0.77829 0.60881 0.20364 0.0
N1276 N 0.7578 0.61947 0.21192 0.0
C1277 C 0.76238 0.64429 0.21455 0.0
C1278 C 0.78708 0.64904 0.20796 0.0
C1279 C 0.82242 0.62059 0.19264 0.0
H1280 H 0.8218 0.61632 0.17237 0.0
H1281 H 0.82983 0.60421 0.20292 0.0
H1282 H 0.83519 0.63661 0.19576 0.0
O1283 O 0.75059 0.57257 0.1664 0.0
O1284 O 0.71551 0.58945 0.1814 0.0
H1285 H 0.72501 0.65857 0.21165 0.0
H1286 H 0.74897 0.68233 0.21373 0.0
C1287 C 0.74307 0.66361 0.22044 0.0
H1288 H 0.74054 0.66466 0.24097 0.0
H1289 H 0.67837 0.62859 0.20797 0.0
O1290 O 0.8106 0.56796 0.17877 0.0
C1291 C 0.72744 0.57803 0.1641 0.0
Co1292 Co 0.67449 0.522 0.43374 0.0
Co1293 Co 0.65108 0.47929 0.46644 0.0
C1294 C 0.70125 0.49988 0.47852 0.0
O1295 O 0.69895 0.51442 0.46 0.0
O1296 O 0.68369 0.48503 0.4846 0.0
C1297 C 0.68365 0.5702 0.44174 0.0
O1298 O 0.67651 0.561 0.46335 0.0
C1299 C 0.62378 0.46213 0.51022 0.0
C1300 C 0.6003 0.43173 0.49524 0.0
C1301 C 0.60387 0.44652 0.51625 0.0
N1302 N 0.63078 0.45753 0.48651 0.0
N1303 N 0.61706 0.43892 0.47785 0.0
C1304 C 0.636 0.4814 0.52645 0.0
H1305 H 0.6291 0.50025 0.52132 0.0
H1306 H 0.63222 0.47786 0.54653 0.0
H1307 H 0.65648 0.48119 0.52343 0.0
C1308 C 0.6238 0.5425 0.43764 0.0
N1309 N 0.64116 0.52544 0.44429 0.0
N1310 N 0.63115 0.50879 0.45931 0.0
C1311 C 0.60694 0.51543 0.46323 0.0
C1312 C 0.6017 0.53708 0.44981 0.0
C1313 C 0.62804 0.56316 0.4192 0.0
H1314 H 0.64285 0.55798 0.40572 0.0
H1315 H 0.6335 0.58034 0.42938 0.0
H1316 H 0.61089 0.56759 0.40853 0.0
O1317 O 0.67623 0.49407 0.40973 0.0
O1318 O 0.66143 0.4631 0.43387 0.0
H1319 H 0.5891 0.48043 0.47069 0.0
H1320 H 0.56871 0.50701 0.47347 0.0
C1321 C 0.58798 0.50011 0.4769 0.0
H1322 H 0.59168 0.50109 0.49721 0.0
H1323 H 0.61804 0.4322 0.45957 0.0
O1324 O 0.68556 0.55558 0.42302 0.0
C1325 C 0.67081 0.47106 0.4133 0.0
Co1326 Co 0.72823 0.42571 0.6846 0.0
Co1327 Co 0.77157 0.40162 0.71607 0.0
C1328 C 0.75106 0.45145 0.72953 0.0
O1329 O 0.73619 0.44947 0.71124 0.0
O1330 O 0.76608 0.43382 0.73503 0.0
C1331 C 0.68013 0.43476 0.69358 0.0
O1332 O 0.68959 0.42685 0.71483 0.0
C1333 C 0.78952 0.37322 0.7589 0.0
C1334 C 0.82044 0.35094 0.74315 0.0
C1335 C 0.80574 0.35362 0.76434 0.0
N1336 N 0.79376 0.38095 0.73535 0.0
N1337 N 0.81265 0.36792 0.72621 0.0
C1338 C 0.77009 0.38453 0.77559 0.0
H1339 H 0.75136 0.3773 0.77045 0.0
H1340 H 0.7739 0.38031 0.79553 0.0
H1341 H 0.76973 0.40506 0.77304 0.0
C1342 C 0.70791 0.37494 0.68755 0.0
N1343 N 0.72504 0.39213 0.69438 0.0
N1344 N 0.74202 0.38176 0.70881 0.0
C1345 C 0.73557 0.35741 0.71211 0.0
C1346 C 0.71367 0.35249 0.69894 0.0
C1347 C 0.6868 0.37972 0.66972 0.0
H1348 H 0.6917 0.39488 0.65653 0.0
H1349 H 0.66988 0.38496 0.68046 0.0
H1350 H 0.68204 0.36293 0.65869 0.0
O1351 O 0.75582 0.42821 0.66028 0.0
O1352 O 0.78724 0.41284 0.68355 0.0
H1353 H 0.74467 0.31895 0.72064 0.0
H1354 H 0.75043 0.34091 0.74532 0.0
C1355 C 0.75132 0.33813 0.72485 0.0
H1356 H 0.77095 0.33983 0.7186 0.0
H1357 H 0.81924 0.36958 0.70794 0.0
O1358 O 0.6945 0.43713 0.67471 0.0
C1359 C 0.77891 0.42276 0.66337 0.0
Co1360 Co 0.56548 0.82483 0.52435 0.0
Co1361 Co 0.53402 0.8485 0.48095 0.0
C1362 C 0.52087 0.79859 0.50153 0.0
O1363 O 0.53911 0.8007 0.51643 0.0
O1364 O 0.51531 0.81615 0.48645 0.0
C1365 C 0.5564 0.81601 0.57232 0.0
O1366 O 0.53507 0.82355 0.56271 0.0
C1367 C 0.49118 0.87652 0.46268 0.0
C1368 C 0.50714 0.89916 0.43214 0.0
C1369 C 0.48583 0.89628 0.44664 0.0
N1370 N 0.5148 0.86894 0.45859 0.0
N1371 N 0.52407 0.88215 0.4399 0.0
C1372 C 0.4744 0.86499 0.48189 0.0
H1373 H 0.47919 0.87232 0.50067 0.0
H1374 H 0.45444 0.86892 0.4778 0.0
H1375 H 0.47722 0.8445 0.48231 0.0
C1376 C 0.56227 0.87562 0.54441 0.0
N1377 N 0.55541 0.85829 0.52744 0.0
N1378 N 0.54094 0.86851 0.51042 0.0
C1379 C 0.53762 0.8929 0.51668 0.0
C1380 C 0.55087 0.898 0.53848 0.0
C1381 C 0.58026 0.87105 0.56544 0.0
H1382 H 0.59356 0.85597 0.56052 0.0
H1383 H 0.56965 0.86577 0.58241 0.0
H1384 H 0.59119 0.88794 0.5701 0.0
O1385 O 0.59004 0.82269 0.49701 0.0
O1386 O 0.56671 0.83774 0.46551 0.0
H1387 H 0.53137 0.91046 0.48128 0.0
H1388 H 0.5287 0.93127 0.50753 0.0
C1389 C 0.52482 0.91204 0.50082 0.0
H1390 H 0.50438 0.90899 0.50143 0.0
H1391 H 0.54243 0.88065 0.4335 0.0
O1392 O 0.57536 0.81372 0.55807 0.0
C1393 C 0.58701 0.82813 0.47392 0.0
Co1394 Co 0.06693 0.67389 0.47565 0.0
Co1395 Co 0.03663 0.64919 0.51937 0.0
C1396 C 0.02255 0.6993 0.49948 0.0
O1397 O 0.04038 0.6976 0.48407 0.0
O1398 O 0.0177 0.68152 0.51453 0.0
C1399 C 0.0578 0.68372 0.4277 0.0
O1400 O 0.03647 0.67595 0.43707 0.0
C1401 C 0.99407 0.62002 0.53559 0.0
C1402 C 0.00851 0.59873 0.56783 0.0
C1403 C 0.9882 0.6006 0.55179 0.0
N1404 N 0.01711 0.62844 0.5411 0.0
N1405 N 0.02547 0.61601 0.56075 0.0
C1406 C 0.97836 0.63034 0.5148 0.0
H1407 H 0.98087 0.65084 0.51355 0.0
H1408 H 0.98443 0.62222 0.49674 0.0
H1409 H 0.95827 0.62614 0.51776 0.0
C1410 C 0.06384 0.62328 0.45489 0.0
N1411 N 0.05712 0.64037 0.47217 0.0
N1412 N 0.04369 0.62963 0.48971 0.0
C1413 C 0.04116 0.60511 0.48366 0.0
C1414 C 0.05353 0.60052 0.46131 0.0
C1415 C 0.08084 0.62837 0.43321 0.0
H1416 H 0.09433 0.64332 0.43791 0.0
H1417 H 0.06945 0.63406 0.41687 0.0
H1418 H 0.09154 0.61162 0.42761 0.0
O1419 O 0.09162 0.67581 0.50307 0.0
O1420 O 0.06924 0.65984 0.53481 0.0
H1421 H 0.03673 0.58844 0.51982 0.0
H1422 H 0.03672 0.56643 0.49443 0.0
C1423 C 0.03058 0.58533 0.50033 0.0
H1424 H 0.00994 0.58587 0.4994 0.0
H1425 H 0.04327 0.61827 0.56839 0.0
O1426 O 0.07672 0.68566 0.44208 0.0
C1427 C 0.08918 0.6699 0.52613 0.0
Co1428 Co 0.57436 0.81777 0.72671 0.0
Co1429 Co 0.59912 0.78572 0.76909 0.0
C1430 C 0.54921 0.7722 0.74877 0.0
O1431 O 0.5508 0.79089 0.73442 0.0
O1432 O 0.56709 0.76649 0.76343 0.0
C1433 C 0.56499 0.80883 0.67897 0.0
O1434 O 0.57302 0.78769 0.68853 0.0
C1435 C 0.62825 0.74294 0.78538 0.0
C1436 C 0.65063 0.75793 0.81662 0.0
C1437 C 0.64814 0.73728 0.80114 0.0
N1438 N 0.62015 0.76615 0.79058 0.0
N1439 N 0.63324 0.77483 0.80966 0.0
C1440 C 0.61706 0.72681 0.7654 0.0
H1441 H 0.62353 0.7332 0.74678 0.0
H1442 H 0.62214 0.70689 0.76803 0.0
H1443 H 0.59643 0.72856 0.76571 0.0
C1444 C 0.62496 0.81544 0.7057 0.0
N1445 N 0.60802 0.80834 0.72298 0.0
N1446 N 0.61869 0.79375 0.73961 0.0
C1447 C 0.64299 0.79069 0.73283 0.0
C1448 C 0.64754 0.80407 0.71101 0.0
C1449 C 0.61982 0.83346 0.68486 0.0
H1450 H 0.60455 0.84643 0.69001 0.0
H1451 H 0.6146 0.82288 0.66784 0.0
H1452 H 0.63648 0.84473 0.68017 0.0
O1453 O 0.57197 0.84159 0.75473 0.0
O1454 O 0.5878 0.81777 0.78551 0.0
H1455 H 0.66082 0.78372 0.768 0.0
H1456 H 0.6817 0.783 0.74169 0.0
C1457 C 0.66264 0.77807 0.74821 0.0
H1458 H 0.66046 0.75759 0.74667 0.0
H1459 H 0.63136 0.79282 0.81692 0.0
O1460 O 0.56256 0.82779 0.69321 0.0
C1461 C 0.57769 0.83805 0.77769 0.0
Co1462 Co 0.43538 0.32635 0.97809 0.0
Co1463 Co 0.46583 0.35067 0.02193 0.0
C1464 C 0.47982 0.30077 0.00178 0.0
O1465 O 0.46187 0.30264 0.98651 0.0
O1466 O 0.48484 0.31839 0.01694 0.0
C1467 C 0.44476 0.31662 0.93022 0.0
O1468 O 0.466 0.32457 0.93967 0.0
C1469 C 0.50843 0.37926 0.03949 0.0
C1470 C 0.49316 0.40095 0.07105 0.0
C1471 C 0.51405 0.39863 0.05585 0.0
N1472 N 0.48505 0.37128 0.04411 0.0
N1473 N 0.47618 0.38395 0.06336 0.0
C1474 C 0.52475 0.36849 0.01945 0.0
H1475 H 0.52227 0.34797 0.01861 0.0
H1476 H 0.51921 0.37619 1.00102 0.0
H1477 H 0.54476 0.3727 0.02294 0.0
C1478 C 0.43857 0.37694 0.95759 0.0
N1479 N 0.44531 0.3598 0.9748 0.0
N1480 N 0.45902 0.37037 0.99224 0.0
C1481 C 0.46183 0.39485 0.9861 0.0
C1482 C 0.44918 0.39959 0.96389 0.0
C1483 C 0.42135 0.37196 0.93603 0.0
H1484 H 0.40787 0.35701 0.94081 0.0
H1485 H 0.43256 0.36626 0.9196 0.0
H1486 H 0.41063 0.38875 0.93055 0.0
O1487 O 0.41056 0.32442 0.00521 0.0
O1488 O 0.43303 0.34 0.03708 0.0
H1489 H 0.46682 0.41191 0.02198 0.0
H1490 H 0.46814 0.43347 0.99619 0.0
C1491 C 0.47327 0.41438 0.0025 0.0
H1492 H 0.49387 0.41273 0.00186 0.0
H1493 H 0.45806 0.38203 0.07031 0.0
O1494 O 0.42577 0.31465 0.94447 0.0
C1495 C 0.413 0.33019 0.02828 0.0
Co1496 Co 0.42483 0.68251 0.72666 0.0
Co1497 Co 0.40081 0.71519 0.76906 0.0
C1498 C 0.45079 0.72786 0.74845 0.0
O1499 O 0.44882 0.70919 0.73409 0.0
O1500 O 0.43309 0.73385 0.76318 0.0
C1501 C 0.43363 0.69049 0.67848 0.0
O1502 O 0.42606 0.71196 0.68765 0.0
C1503 C 0.37215 0.75833 0.78552 0.0
C1504 C 0.34881 0.74293 0.81581 0.0
C1505 C 0.35175 0.76381 0.80071 0.0
N1506 N 0.37998 0.73497 0.79058 0.0
N1507 N 0.36635 0.72609 0.80915 0.0
C1508 C 0.38402 0.77469 0.76615 0.0
H1509 H 0.37755 0.76907 0.74728 0.0
H1510 H 0.37947 0.79466 0.76933 0.0
H1511 H 0.40459 0.77235 0.76664 0.0
C1512 C 0.37413 0.68548 0.70603 0.0
N1513 N 0.39132 0.69243 0.72313 0.0
N1514 N 0.38106 0.70745 0.73962 0.0
C1515 C 0.35683 0.71103 0.73281 0.0
C1516 C 0.35191 0.69748 0.71123 0.0
C1517 C 0.37851 0.6668 0.68563 0.0
H1518 H 0.39362 0.65366 0.69088 0.0
H1519 H 0.38359 0.67679 0.66822 0.0
H1520 H 0.36146 0.65581 0.68162 0.0
O1521 O 0.42704 0.65881 0.75479 0.0
O1522 O 0.41181 0.68299 0.78553 0.0
H1523 H 0.33874 0.71845 0.76769 0.0
H1524 H 0.31834 0.72038 0.74105 0.0
C1525 C 0.33751 0.72439 0.74794 0.0
H1526 H 0.34061 0.74476 0.74661 0.0
H1527 H 0.36787 0.70794 0.81612 0.0
O1528 O 0.43604 0.67185 0.69315 0.0
C1529 C 0.42158 0.66253 0.77777 0.0
Co1530 Co 0.94058 0.17258 0.02663 0.0
Co1531 Co 0.96602 0.14994 0.97871 0.0
C1532 C 0.98137 0.19997 1.00103 0.0
O1533 O 0.96641 0.19691 0.01909 0.0
O1534 O 0.98346 0.18356 0.98382 0.0
C1535 C 0.93594 0.19865 0.07292 0.0
O1536 O 0.95023 0.21527 0.06193 0.0
C1537 C 0.00856 0.12146 0.96184 0.0
C1538 C 0.99451 0.10122 0.92881 0.0
C1539 C 0.01458 0.10232 0.94528 0.0
N1540 N 0.98575 0.13035 0.95606 0.0
N1541 N 0.97763 0.11853 0.93597 0.0
C1542 C 0.02363 0.13093 0.98345 0.0
H1543 H 0.0193 0.15086 0.987 0.0
H1544 H 0.01869 0.1203 1.00055 0.0
H1545 H 0.04394 0.12884 0.97979 0.0
C1546 C 0.95107 0.12307 0.0468 0.0
N1547 N 0.95326 0.14014 0.02847 0.0
N1548 N 0.9621 0.12943 0.00825 0.0
C1549 C 0.96484 0.10465 0.01307 0.0
C1550 C 0.95809 0.10006 0.03771 0.0
C1551 C 0.94167 0.12848 0.07248 0.0
H1552 H 0.9214 0.13268 0.07141 0.0
H1553 H 0.95177 0.1449 0.08003 0.0
H1554 H 0.94458 0.1125 0.08537 0.0
O1555 O 0.91526 0.17509 0.99965 0.0
O1556 O 0.93224 0.1589 0.96512 0.0
H1557 H 0.96253 0.09049 0.97559 0.0
H1558 H 0.96227 0.06676 0.99959 0.0
C1559 C 0.97034 0.08502 0.99396 0.0
H1560 H 0.99084 0.0826 0.99236 0.0
H1561 H 0.95993 0.12111 0.92813 0.0
O1562 O 0.92706 0.1807 0.06014 0.0
C1563 C 0.91406 0.16963 0.97641 0.0
Co1564 Co 0.57925 0.18501 0.77347 0.0
Co1565 Co 0.60095 0.21677 0.72884 0.0
C1566 C 0.55065 0.22799 0.75016 0.0
O1567 O 0.55357 0.20981 0.76499 0.0
O1568 O 0.56797 0.23437 0.73511 0.0
C1569 C 0.56486 0.19272 0.82148 0.0
O1570 O 0.56606 0.21524 0.81186 0.0
C1571 C 0.62829 0.26043 0.71193 0.0
C1572 C 0.64965 0.24645 0.67959 0.0
C1573 C 0.64755 0.26675 0.69561 0.0
N1574 N 0.62035 0.23719 0.70653 0.0
N1575 N 0.63278 0.22914 0.68678 0.0
C1576 C 0.61776 0.27576 0.73285 0.0
H1577 H 0.62709 0.27063 0.75064 0.0
H1578 H 0.62044 0.29601 0.7293 0.0
H1579 H 0.59754 0.2719 0.73503 0.0
C1580 C 0.62968 0.19251 0.79343 0.0
N1581 N 0.61198 0.19756 0.77618 0.0
N1582 N 0.62181 0.21066 0.75788 0.0
C1583 C 0.64643 0.21426 0.7632 0.0
C1584 C 0.65197 0.20308 0.78598 0.0
C1585 C 0.62545 0.17746 0.81657 0.0
H1586 H 0.61368 0.16098 0.81228 0.0
H1587 H 0.61592 0.18951 0.83039 0.0
H1588 H 0.64305 0.17096 0.82527 0.0
O1589 O 0.57801 0.16016 0.74592 0.0
O1590 O 0.59077 0.18377 0.71365 0.0
H1591 H 0.66183 0.21813 0.72643 0.0
H1592 H 0.68466 0.21933 0.75115 0.0
C1593 C 0.66542 0.22486 0.74565 0.0
H1594 H 0.66442 0.2455 0.74607 0.0
H1595 H 0.63095 0.21126 0.67924 0.0
O1596 O 0.56942 0.17391 0.80758 0.0
C1597 C 0.58227 0.16321 0.72256 0.0
Co1598 Co 0.92202 0.81478 0.27535 0.0
Co1599 Co 0.89956 0.78458 0.23007 0.0
C1600 C 0.95006 0.77236 0.25103 0.0
O1601 O 0.94753 0.79004 0.2665 0.0
O1602 O 0.93257 0.76677 0.23585 0.0
C1603 C 0.93808 0.80781 0.32325 0.0
O1604 O 0.93818 0.78518 0.31384 0.0
C1605 C 0.87045 0.74166 0.21571 0.0
C1606 C 0.85157 0.75323 0.18092 0.0
C1607 C 0.85189 0.7346 0.19898 0.0
N1608 N 0.87987 0.76381 0.20849 0.0
N1609 N 0.86887 0.77044 0.18738 0.0
C1610 C 0.87881 0.72807 0.23872 0.0
H1611 H 0.86787 0.7346 0.25506 0.0
H1612 H 0.87604 0.70763 0.23661 0.0
H1613 H 0.89878 0.73202 0.24255 0.0
C1614 C 0.87182 0.80663 0.29575 0.0
N1615 N 0.88936 0.80216 0.27823 0.0
N1616 N 0.87903 0.7908 0.25906 0.0
C1617 C 0.85419 0.78834 0.2638 0.0
C1618 C 0.84913 0.79782 0.28736 0.0
C1619 C 0.87635 0.82007 0.31977 0.0
H1620 H 0.88712 0.83738 0.31617 0.0
H1621 H 0.88713 0.80757 0.33224 0.0
H1622 H 0.8588 0.82503 0.32954 0.0
O1623 O 0.92297 0.83985 0.24784 0.0
O1624 O 0.90943 0.81743 0.21501 0.0
H1625 H 0.84046 0.78749 0.22604 0.0
H1626 H 0.81651 0.79037 0.24953 0.0
C1627 C 0.83469 0.78146 0.24496 0.0
H1628 H 0.83179 0.76102 0.24523 0.0
H1629 H 0.87204 0.78736 0.17822 0.0
O1630 O 0.93206 0.82617 0.30929 0.0
C1631 C 0.91831 0.83758 0.22445 0.0
C1632 C 0.05868 0.07024 0.4349 0.0
C1633 C 0.05225 0.04715 0.42421 0.0
H1634 H 0.08009 0.0894 0.46289 0.0
C1635 C 0.06131 0.02512 0.43506 0.0
H1636 H 0.05166 0.08747 0.42692 0.0
C1637 C 0.07767 0.02619 0.45547 0.0
C1638 C 0.08531 0.04935 0.46536 0.0
H1639 H 0.05639 0.00711 0.42723 0.0
H1640 H 0.08426 0.00883 0.46343 0.0
C1641 C 0.075 0.07133 0.45534 0.0
C1642 C 0.20186 0.84814 0.68739 0.0
C1643 C 0.19579 0.83849 0.71101 0.0
H1644 H 0.20915 0.84027 0.64886 0.0
C1645 C 0.19182 0.8126 0.71349 0.0
H1646 H 0.20439 0.86801 0.68467 0.0
C1647 C 0.1943 0.79668 0.69284 0.0
C1648 C 0.20075 0.80641 0.66936 0.0
H1649 H 0.18707 0.80461 0.73147 0.0
H1650 H 0.19076 0.7769 0.69511 0.0
C1651 C 0.20442 0.83227 0.66685 0.0
C1652 C 0.42447 0.92887 0.95423 0.0
C1653 C 0.4154 0.9509 0.96521 0.0
H1654 H 0.44669 0.91279 0.92492 0.0
C1655 C 0.42413 0.97404 0.95624 0.0
H1656 H 0.41847 0.91078 0.96103 0.0
C1657 C 0.44045 0.97515 0.93585 0.0
C1658 C 0.4483 0.95317 0.92405 0.0
H1659 H 0.41838 0.99136 0.96489 0.0
H1660 H 0.44626 0.9932 0.92876 0.0
C1661 C 0.44068 0.93 0.93372 0.0
C1662 C 0.32589 0.17658 0.20536 0.0
C1663 C 0.30405 0.16483 0.21402 0.0
H1664 H 0.34204 0.20184 0.17873 0.0
C1665 C 0.28103 0.17133 0.20297 0.0
H1666 H 0.34381 0.17257 0.21391 0.0
C1667 C 0.2801 0.18779 0.18269 0.0
C1668 C 0.30209 0.19838 0.17325 0.0
H1669 H 0.2636 0.16397 0.20997 0.0
H1670 H 0.26224 0.19181 0.174 0.0
C1671 C 0.3249 0.19325 0.18522 0.0
C1672 C 0.07919 0.96869 0.0483 0.0
C1673 C 0.08667 0.94598 0.03733 0.0
H1674 H 0.05813 0.98659 0.07739 0.0
C1675 C 0.07651 0.92361 0.04659 0.0
H1676 H 0.08548 0.98639 0.04089 0.0
C1677 C 0.06031 0.92384 0.06716 0.0
C1678 C 0.05399 0.94645 0.07888 0.0
H1679 H 0.08135 0.90587 0.03813 0.0
H1680 H 0.05286 0.90633 0.07402 0.0
C1681 C 0.0631 0.96889 0.06891 0.0
C1682 C 0.30619 0.79668 0.30572 0.0
C1683 C 0.30047 0.80639 0.32938 0.0
H1684 H 0.31212 0.8046 0.26686 0.0
C1685 C 0.29688 0.83225 0.33201 0.0
H1686 H 0.30967 0.77689 0.30333 0.0
C1687 C 0.29874 0.84812 0.31139 0.0
C1688 C 0.30399 0.83846 0.28758 0.0
H1689 H 0.29269 0.84024 0.35014 0.0
H1690 H 0.29629 0.86799 0.31418 0.0
C1691 C 0.30796 0.81259 0.28499 0.0
C1692 C 0.42749 0.07147 0.54622 0.0
C1693 C 0.41675 0.04956 0.53656 0.0
H1694 H 0.45134 0.08759 0.57421 0.0
C1695 C 0.42412 0.0264 0.54671 0.0
H1696 H 0.42266 0.08954 0.53848 0.0
C1697 C 0.44059 0.02531 0.56703 0.0
C1698 C 0.45011 0.04733 0.57751 0.0
H1699 H 0.41725 0.00904 0.539 0.0
H1700 H 0.44528 0.00733 0.57507 0.0
C1701 C 0.44397 0.07037 0.56653 0.0
C1702 C 0.19161 0.18711 0.78636 0.0
C1703 C 0.19575 0.16125 0.78884 0.0
H1704 H 0.19019 0.22277 0.8048 0.0
C1705 C 0.2017 0.15158 0.81249 0.0
H1706 H 0.18694 0.1951 0.76836 0.0
C1707 C 0.20402 0.16743 0.83308 0.0
C1708 C 0.20023 0.19327 0.83058 0.0
H1709 H 0.20434 0.13173 0.8152 0.0
H1710 H 0.20867 0.15942 0.8511 0.0
C1711 C 0.19386 0.203 0.80707 0.0
C1712 C 0.43327 0.06044 0.07641 0.0
C1713 C 0.42179 0.05434 0.05361 0.0
H1714 H 0.46179 0.08168 0.09494 0.0
C1715 C 0.43191 0.06368 0.03136 0.0
H1716 H 0.4263 0.05275 0.09378 0.0
C1717 C 0.45236 0.07993 0.03196 0.0
C1718 C 0.46295 0.08742 0.05487 0.0
H1719 H 0.42363 0.05885 0.01352 0.0
H1720 H 0.45989 0.08633 0.01437 0.0
C1721 C 0.45361 0.07689 0.07705 0.0
C1722 C 0.19487 0.18662 0.32106 0.0
C1723 C 0.2004 0.17516 0.29811 0.0
H1724 H 0.17381 0.21486 0.34016 0.0
C1725 C 0.19033 0.18515 0.2761 0.0
H1726 H 0.2027 0.17933 0.33826 0.0
C1727 C 0.1738 0.20539 0.27715 0.0
C1728 C 0.16687 0.21588 0.30028 0.0
H1729 H 0.19457 0.17674 0.25818 0.0
H1730 H 0.16648 0.21269 0.25979 0.0
C1731 C 0.17827 0.20681 0.32214 0.0
C1732 C 0.04774 0.92351 0.57782 0.0
C1733 C 0.03893 0.91236 0.55573 0.0
H1734 H 0.07441 0.94839 0.59454 0.0
C1735 C 0.04997 0.91934 0.53288 0.0
H1736 H 0.03921 0.91913 0.59565 0.0
C1737 C 0.07029 0.93578 0.53232 0.0
C1738 C 0.07982 0.94586 0.55453 0.0
H1739 H 0.04286 0.91243 0.51529 0.0
H1740 H 0.07889 0.94026 0.51455 0.0
C1741 C 0.06794 0.94015 0.57722 0.0
C1742 C 0.30522 0.81397 0.81931 0.0
C1743 C 0.3003 0.82572 0.79636 0.0
H1744 H 0.32574 0.78547 0.83867 0.0
C1745 C 0.3111 0.81612 0.77455 0.0
H1746 H 0.29687 0.821 0.83636 0.0
C1747 C 0.32765 0.7959 0.77584 0.0
C1748 C 0.33388 0.78504 0.79902 0.0
H1749 H 0.30738 0.82479 0.75663 0.0
H1750 H 0.33549 0.78886 0.75862 0.0
C1751 C 0.32183 0.7938 0.82063 0.0
C1752 C 0.45586 0.925 0.42485 0.0
C1753 C 0.46421 0.91371 0.44706 0.0
H1754 H 0.42935 0.94982 0.40774 0.0
C1755 C 0.45264 0.9204 0.46972 0.0
H1756 H 0.46483 0.9208 0.4072 0.0
C1757 C 0.43224 0.93674 0.46995 0.0
C1758 C 0.42315 0.94694 0.44761 0.0
H1759 H 0.45939 0.91326 0.48737 0.0
H1760 H 0.42322 0.94101 0.48757 0.0
C1761 C 0.43554 0.9415 0.42513 0.0
C1762 C 0.30615 0.18626 0.68157 0.0
C1763 C 0.30086 0.17479 0.70457 0.0
H1764 H 0.32682 0.21468 0.66229 0.0
C1765 C 0.3111 0.18478 0.72648 0.0
H1766 H 0.29826 0.17889 0.66443 0.0
C1767 C 0.3275 0.20511 0.72528 0.0
C1768 C 0.33411 0.21571 0.7021 0.0
H1769 H 0.3071 0.17631 0.74443 0.0
H1770 H 0.33497 0.21239 0.74257 0.0
C1771 C 0.32258 0.20658 0.68034 0.0
C1772 C 0.06694 0.06055 0.96973 0.0
C1773 C 0.07666 0.05072 0.94751 0.0
H1774 H 0.03935 0.08365 0.98674 0.0
C1775 C 0.06477 0.05645 0.9248 0.0
H1776 H 0.07548 0.056 0.98753 0.0
C1777 C 0.04461 0.07315 0.92417 0.0
C1778 C 0.03576 0.08425 0.94626 0.0
H1779 H 0.07132 0.04833 0.90747 0.0
H1780 H 0.03624 0.07771 0.9063 0.0
C1781 C 0.04657 0.07695 0.96915 0.0
C1782 C 0.1704 0.79905 0.22126 0.0
C1783 C 0.16439 0.78755 0.19836 0.0
H1784 H 0.19041 0.82847 0.23982 0.0
C1785 C 0.1763 0.796 0.17653 0.0
H1786 H 0.16273 0.79225 0.23866 0.0
C1787 C 0.19271 0.81636 0.17739 0.0
C1788 C 0.19751 0.82864 0.20007 0.0
H1789 H 0.17261 0.78712 0.15872 0.0
H1790 H 0.20139 0.82273 0.16026 0.0
C1791 C 0.18669 0.81947 0.22207 0.0
C1792 C 0.07453 0.43569 0.05597 0.0
C1793 C 0.05181 0.42338 0.05139 0.0
H1794 H 0.09334 0.46504 0.0758 0.0
C1795 C 0.02985 0.43273 0.06212 0.0
H1796 H 0.09164 0.42922 0.04729 0.0
C1797 C 0.03075 0.4533 0.07819 0.0
C1798 C 0.05371 0.46477 0.0841 0.0
H1799 H 0.01205 0.42375 0.05853 0.0
H1800 H 0.01336 0.46019 0.08578 0.0
C1801 C 0.07549 0.45618 0.07221 0.0
C1802 C 0.57269 0.04631 0.9281 0.0
C1803 C 0.55097 0.03558 0.91799 0.0
H1804 H 0.58804 0.07535 0.95113 0.0
C1805 C 0.52752 0.04453 0.92599 0.0
H1806 H 0.59099 0.03949 0.92276 0.0
C1807 C 0.52587 0.0649 0.94227 0.0
C1808 C 0.5476 0.07659 0.95095 0.0
H1809 H 0.51036 0.03598 0.91967 0.0
H1810 H 0.50763 0.07212 0.94729 0.0
C1811 C 0.57101 0.06667 0.94441 0.0
C1812 C 0.2018 0.28095 0.17125 0.0
C1813 C 0.21295 0.30374 0.16433 0.0
H1814 H 0.17247 0.26278 0.1917 0.0
C1815 C 0.20384 0.32595 0.17495 0.0
H1816 H 0.20912 0.26334 0.16459 0.0
C1817 C 0.1832 0.3255 0.19104 0.0
C1818 C 0.17129 0.30283 0.19675 0.0
H1819 H 0.21246 0.34372 0.17055 0.0
H1820 H 0.17644 0.34288 0.19887 0.0
C1821 C 0.18111 0.28053 0.18719 0.0
C1822 C 0.92864 0.95374 0.42887 0.0
C1823 C 0.95031 0.96317 0.41741 0.0
H1824 H 0.91309 0.92619 0.45354 0.0
C1825 C 0.97367 0.95325 0.42457 0.0
H1826 H 0.91043 0.96132 0.42427 0.0
C1827 C 0.97514 0.93321 0.44131 0.0
C1828 C 0.95334 0.92286 0.45141 0.0
H1829 H 0.9909 0.96083 0.41733 0.0
H1830 H 0.99324 0.92521 0.44567 0.0
C1831 C 0.93015 0.93379 0.44572 0.0
C1832 C 0.81539 0.1768 0.1927 0.0
C1833 C 0.82825 0.19926 0.19699 0.0
H1834 H 0.78559 0.15848 0.17307 0.0
C1835 C 0.81986 0.22117 0.18537 0.0
H1836 H 0.82138 0.15972 0.20178 0.0
C1837 C 0.79954 0.22048 0.1689 0.0
C1838 C 0.78728 0.1978 0.16367 0.0
H1839 H 0.82939 0.23874 0.18862 0.0
H1840 H 0.79334 0.23779 0.16051 0.0
C1841 C 0.79504 0.17609 0.17625 0.0
C1842 C 0.47145 0.56785 0.56405 0.0
C1843 C 0.44925 0.57657 0.55321 0.0
H1844 H 0.48862 0.54103 0.58807 0.0
C1845 C 0.42681 0.56387 0.55809 0.0
H1846 H 0.48904 0.57713 0.56024 0.0
C1847 C 0.42636 0.54362 0.57466 0.0
C1848 C 0.44838 0.53564 0.5866 0.0
H1849 H 0.40954 0.5698 0.54932 0.0
H1850 H 0.40872 0.53444 0.57842 0.0
C1851 C 0.47106 0.5475 0.58045 0.0
C1852 C 0.20549 0.67658 0.32314 0.0
C1853 C 0.21331 0.69819 0.33585 0.0
H1854 H 0.17901 0.66038 0.29768 0.0
C1855 C 0.20072 0.72081 0.33116 0.0
H1856 H 0.2152 0.65902 0.32586 0.0
C1857 C 0.18007 0.72155 0.31509 0.0
C1858 C 0.17169 0.69974 0.30327 0.0
H1859 H 0.20695 0.73808 0.3396 0.0
H1860 H 0.17037 0.73909 0.31221 0.0
C1861 C 0.18483 0.67734 0.30705 0.0
C1862 C 0.30005 0.27964 0.83273 0.0
C1863 C 0.28793 0.30229 0.83834 0.0
H1864 H 0.33013 0.2616 0.81324 0.0
C1865 C 0.29641 0.32433 0.82687 0.0
H1866 H 0.29332 0.26214 0.84027 0.0
C1867 C 0.31726 0.3239 0.81105 0.0
C1868 C 0.32988 0.30139 0.80632 0.0
H1869 H 0.28706 0.34195 0.83034 0.0
H1870 H 0.3236 0.34115 0.8026 0.0
C1871 C 0.32085 0.27922 0.81691 0.0
C1872 C 0.5582 0.5268 0.93805 0.0
C1873 C 0.54954 0.54878 0.92681 0.0
H1874 H 0.58071 0.5106 0.96676 0.0
C1875 C 0.55604 0.57192 0.93736 0.0
H1876 H 0.55315 0.50874 0.93041 0.0
C1877 C 0.57237 0.5731 0.95779 0.0
C1878 C 0.5825 0.55114 0.96804 0.0
H1879 H 0.54923 0.58914 0.92916 0.0
H1880 H 0.57771 0.59122 0.96506 0.0
C1881 C 0.57444 0.52795 0.95854 0.0
C1882 C 0.70422 0.33182 0.16634 0.0
C1883 C 0.70028 0.30597 0.16868 0.0
H1884 H 0.70478 0.36744 0.18447 0.0
C1885 C 0.69373 0.2962 0.19212 0.0
H1886 H 0.70898 0.33987 0.14839 0.0
C1887 C 0.69149 0.31201 0.2129 0.0
C1888 C 0.69583 0.33786 0.21063 0.0
H1889 H 0.68995 0.27644 0.19428 0.0
H1890 H 0.68665 0.30394 0.23082 0.0
C1891 C 0.70198 0.34759 0.18705 0.0
C1892 C 0.92545 0.42793 0.4519 0.0
C1893 C 0.91654 0.44965 0.46361 0.0
H1894 H 0.94751 0.41267 0.42207 0.0
C1895 C 0.92565 0.473 0.45553 0.0
H1896 H 0.91919 0.40968 0.45799 0.0
C1897 C 0.942 0.47466 0.4352 0.0
C1898 C 0.94956 0.45304 0.4226 0.0
H1899 H 0.92017 0.49008 0.46478 0.0
H1900 H 0.94796 0.49289 0.42872 0.0
C1901 C 0.94173 0.42962 0.4315 0.0
C1902 C 0.82202 0.67912 0.70351 0.0
C1903 C 0.80038 0.66786 0.71324 0.0
H1904 H 0.83743 0.70344 0.67558 0.0
C1905 C 0.77697 0.67504 0.70348 0.0
H1906 H 0.84027 0.6745 0.71097 0.0
C1907 C 0.77538 0.69159 0.68328 0.0
C1908 C 0.79713 0.70146 0.67262 0.0
H1909 H 0.75977 0.66797 0.7113 0.0
H1910 H 0.75723 0.69596 0.67542 0.0
C1911 C 0.8204 0.69577 0.6834 0.0
C1912 C 0.57542 0.42568 0.54708 0.0
C1913 C 0.58688 0.44757 0.53821 0.0
H1914 H 0.55087 0.40935 0.57429 0.0
C1915 C 0.58074 0.47049 0.54957 0.0
H1916 H 0.5792 0.40783 0.53832 0.0
C1917 C 0.56475 0.47129 0.57024 0.0
C1918 C 0.55435 0.44925 0.57979 0.0
H1919 H 0.58804 0.48792 0.54245 0.0
H1920 H 0.56088 0.48909 0.57907 0.0
C1921 C 0.55928 0.42652 0.56767 0.0
C1922 C 0.82774 0.32566 0.79489 0.0
C1923 C 0.80538 0.33622 0.78599 0.0
H1924 H 0.84502 0.30154 0.82195 0.0
C1925 C 0.78267 0.32889 0.79708 0.0
H1926 H 0.84546 0.33041 0.78633 0.0
C1927 C 0.78247 0.31254 0.81746 0.0
C1928 C 0.80491 0.30302 0.82708 0.0
H1929 H 0.76497 0.33558 0.78994 0.0
H1930 H 0.76478 0.30773 0.82608 0.0
C1931 C 0.82751 0.30923 0.81527 0.0
C1932 C 0.92065 0.52761 0.04697 0.0
C1933 C 0.91417 0.55064 0.03598 0.0
H1934 H 0.94122 0.50877 0.07592 0.0
C1935 C 0.92576 0.57247 0.04485 0.0
H1936 H 0.91319 0.51024 0.03987 0.0
C1937 C 0.94231 0.57146 0.06511 0.0
C1938 C 0.94761 0.54861 0.07688 0.0
H1939 H 0.92167 0.59041 0.03642 0.0
H1940 H 0.95055 0.58863 0.07198 0.0
C1941 C 0.93714 0.52663 0.06729 0.0
C1942 C 0.70142 0.66671 0.33095 0.0
C1943 C 0.69663 0.69239 0.32855 0.0
H1944 H 0.70288 0.6311 0.31302 0.0
C1945 C 0.68945 0.70188 0.30517 0.0
H1946 H 0.70669 0.65886 0.34887 0.0
C1947 C 0.68763 0.68596 0.28443 0.0
C1948 C 0.69296 0.66031 0.28675 0.0
H1949 H 0.68496 0.72149 0.30299 0.0
H1950 H 0.68242 0.6938 0.2665 0.0
C1951 C 0.69948 0.65084 0.31034 0.0
C1952 C 0.93702 0.55852 0.52613 0.0
C1953 C 0.92534 0.5505 0.54812 0.0
H1954 H 0.96614 0.58047 0.50995 0.0
C1955 C 0.93541 0.55756 0.57131 0.0
H1956 H 0.92965 0.55311 0.50806 0.0
C1957 C 0.95609 0.57354 0.57248 0.0
C1958 C 0.96689 0.58289 0.55047 0.0
H1959 H 0.92673 0.55137 0.58852 0.0
H1960 H 0.96315 0.57921 0.5906 0.0
C1961 C 0.95762 0.57456 0.52728 0.0
C1962 C 0.67608 0.70582 0.82169 0.0
C1963 C 0.66585 0.71597 0.79974 0.0
H1964 H 0.69927 0.67723 0.83772 0.0
C1965 C 0.67351 0.70623 0.77653 0.0
H1966 H 0.67096 0.71327 0.8398 0.0
C1967 C 0.6898 0.68582 0.77536 0.0
C1968 C 0.69877 0.67482 0.79736 0.0
H1969 H 0.66693 0.71429 0.7592 0.0
H1970 H 0.69474 0.67809 0.75731 0.0
C1971 C 0.69233 0.68535 0.82052 0.0
C1972 C 0.56643 0.4401 0.03183 0.0
C1973 C 0.57709 0.44867 0.05415 0.0
H1974 H 0.53801 0.4179 0.01475 0.0
C1975 C 0.56608 0.44196 0.077 0.0
H1976 H 0.57445 0.44531 0.01398 0.0
C1977 C 0.54546 0.42584 0.07753 0.0
C1978 C 0.53561 0.41609 0.05523 0.0
H1979 H 0.57369 0.44885 0.09444 0.0
H1980 H 0.53757 0.42056 0.09541 0.0
C1981 C 0.54585 0.42402 0.03234 0.0
C1982 C 0.81122 0.31506 0.27621 0.0
C1983 C 0.79987 0.3243 0.29788 0.0
H1984 H 0.83608 0.2882 0.26044 0.0
C1985 C 0.80432 0.31224 0.32077 0.0
H1986 H 0.80786 0.32395 0.25832 0.0
C1987 C 0.82106 0.29218 0.32221 0.0
C1988 C 0.83368 0.2838 0.30077 0.0
H1989 H 0.79551 0.31895 0.33772 0.0
H1990 H 0.82461 0.28365 0.34022 0.0
C1991 C 0.82787 0.29493 0.2776 0.0
C1992 C 0.93071 0.43645 0.96986 0.0
C1993 C 0.92176 0.44707 0.94764 0.0
H1994 H 0.95793 0.41289 0.98708 0.0
C1995 C 0.93441 0.44214 0.9252 0.0
H1996 H 0.9215 0.44033 0.98747 0.0
C1997 C 0.95485 0.42577 0.92477 0.0
C1998 C 0.96312 0.41411 0.94682 0.0
H1999 H 0.92836 0.45078 0.90791 0.0
H2000 H 0.964 0.42202 0.90712 0.0
C2001 C 0.95126 0.42027 0.9695 0.0
C2002 C 0.80951 0.6805 0.18188 0.0
C2003 C 0.80033 0.67312 0.20535 0.0
H2004 H 0.83304 0.7058 0.16155 0.0
C2005 C 0.80694 0.68688 0.22658 0.0
H2006 H 0.80468 0.66999 0.16527 0.0
C2007 C 0.8235 0.70701 0.22454 0.0
C2008 C 0.83367 0.71378 0.20121 0.0
H2009 H 0.80013 0.68141 0.24484 0.0
H2010 H 0.82838 0.71708 0.24134 0.0
C2011 C 0.82584 0.70081 0.1798 0.0
C2012 C 0.54893 0.57908 0.47096 0.0
C2013 C 0.53706 0.58502 0.44821 0.0
H2014 H 0.57869 0.55916 0.48917 0.0
C2015 C 0.54529 0.57312 0.4263 0.0
H2016 H 0.5423 0.58668 0.48846 0.0
C2017 C 0.5657 0.55674 0.42691 0.0
C2018 C 0.57835 0.552 0.44943 0.0
H2019 H 0.53612 0.57671 0.4086 0.0
H2020 H 0.57176 0.54795 0.40972 0.0
C2021 C 0.56945 0.56286 0.47152 0.0
C2022 C 0.67212 0.29919 0.71964 0.0
C2023 C 0.66518 0.28828 0.6967 0.0
H2024 H 0.69296 0.32804 0.7382 0.0
C2025 C 0.67645 0.29719 0.6747 0.0
H2026 H 0.66515 0.292 0.73716 0.0
C2027 C 0.69311 0.31736 0.67549 0.0
C2028 C 0.69872 0.32916 0.69825 0.0
H2029 H 0.67213 0.28877 0.65681 0.0
H2030 H 0.70137 0.32395 0.65823 0.0
C2031 C 0.68857 0.31951 0.72037 0.0
C2032 C 0.57467 0.9333 0.55825 0.0
C2033 C 0.5518 0.92149 0.55311 0.0
H2034 H 0.59373 0.96199 0.57874 0.0
C2035 C 0.52984 0.93125 0.5635 0.0
H2036 H 0.5918 0.92659 0.5498 0.0
C2037 C 0.53086 0.95168 0.57977 0.0
C2038 C 0.55394 0.96258 0.58629 0.0
H2039 H 0.51192 0.92271 0.55946 0.0
H2040 H 0.51346 0.95894 0.58698 0.0
C2041 C 0.57575 0.95359 0.57473 0.0
C2042 C 0.03229 0.54635 0.42146 0.0
C2043 C 0.05515 0.53594 0.41359 0.0
H2044 H 0.01403 0.57496 0.44281 0.0
C2045 C 0.07746 0.54543 0.42371 0.0
H2046 H 0.01464 0.53869 0.41535 0.0
C2047 C 0.07699 0.5658 0.44012 0.0
C2048 C 0.05421 0.57712 0.44659 0.0
H2049 H 0.09532 0.53738 0.41859 0.0
H2050 H 0.09445 0.57292 0.44748 0.0
C2051 C 0.03185 0.56681 0.43768 0.0
C2052 C 0.68241 0.82721 0.68965 0.0
C2053 C 0.67056 0.80457 0.6956 0.0
H2054 H 0.71102 0.84549 0.66835 0.0
C2055 C 0.68 0.78231 0.68558 0.0
H2056 H 0.67603 0.84457 0.69784 0.0
C2057 C 0.70021 0.78275 0.669 0.0
C2058 C 0.71125 0.80554 0.66182 0.0
H2059 H 0.67143 0.76457 0.69023 0.0
H2060 H 0.70727 0.76512 0.66218 0.0
C2061 C 0.7025 0.8277 0.67288 0.0
C2062 C 0.47037 0.43317 0.9396 0.0
C2063 C 0.44825 0.42303 0.94922 0.0
H2064 H 0.48702 0.46103 0.91655 0.0
C2065 C 0.42533 0.43437 0.94324 0.0
H2066 H 0.48829 0.42499 0.94431 0.0
C2067 C 0.42443 0.45458 0.92664 0.0
C2068 C 0.44647 0.4639 0.91582 0.0
H2069 H 0.40805 0.42732 0.95109 0.0
H2070 H 0.40645 0.46262 0.92194 0.0
C2071 C 0.46952 0.4535 0.9232 0.0
C2072 C 0.29512 0.67468 0.67539 0.0
C2073 C 0.28742 0.69663 0.6632 0.0
H2074 H 0.32141 0.6578 0.70063 0.0
C2075 C 0.30001 0.7191 0.66848 0.0
H2076 H 0.28537 0.65723 0.67219 0.0
C2077 C 0.32056 0.71938 0.68464 0.0
C2078 C 0.32884 0.69726 0.69595 0.0
H2079 H 0.29384 0.73659 0.66042 0.0
H2080 H 0.33025 0.73683 0.68801 0.0
C2081 C 0.3157 0.67498 0.69158 0.0
C2082 C 0.9324 0.06795 0.05969 0.0
C2083 C 0.95586 0.07604 0.05112 0.0
H2084 H 0.91226 0.04186 0.08254 0.0
C2085 C 0.97735 0.06292 0.05826 0.0
H2086 H 0.91558 0.07796 0.05444 0.0
C2087 C 0.97552 0.04267 0.07471 0.0
C2088 C 0.95213 0.03512 0.08416 0.0
H2089 H 0.99561 0.06895 0.05193 0.0
H2090 H 0.99248 0.03309 0.08008 0.0
C2091 C 0.93052 0.04749 0.07586 0.0
C2092 C 0.6873 0.17907 0.80529 0.0
C2093 C 0.6761 0.20211 0.79957 0.0
H2094 H 0.71568 0.15982 0.82614 0.0
C2095 C 0.68671 0.22409 0.809 0.0
H2096 H 0.6796 0.16188 0.79788 0.0
C2097 C 0.7073 0.22295 0.82513 0.0
C2098 C 0.71755 0.19977 0.83229 0.0
H2099 H 0.67856 0.24209 0.80456 0.0
H2100 H 0.71508 0.24029 0.83194 0.0
C2101 C 0.70784 0.1779 0.8215 0.0
C2102 C 0.7931 0.82269 0.32261 0.0
C2103 C 0.78338 0.80067 0.33304 0.0
H2104 H 0.82177 0.83902 0.2997 0.0
C2105 C 0.79393 0.7776 0.3261 0.0
H2106 H 0.78502 0.84066 0.32724 0.0
C2107 C 0.81457 0.77666 0.31011 0.0
C2108 C 0.82505 0.79875 0.30083 0.0
H2109 H 0.78632 0.76022 0.33303 0.0
H2110 H 0.82287 0.75874 0.30567 0.0
C2111 C 0.81391 0.82176 0.30677 0.0
C2112 C 0.13817 0.07722 0.32631 0.0
C2113 C 0.1517 0.06181 0.30999 0.0
H2114 H 0.10218 0.09074 0.33719 0.0
C2115 C 0.13879 0.04663 0.29296 0.0
H2116 H 0.14765 0.0891 0.33963 0.0
C2117 C 0.11275 0.04643 0.29264 0.0
C2118 C 0.0992 0.06227 0.30852 0.0
H2119 H 0.14887 0.03478 0.28001 0.0
H2120 H 0.10318 0.03384 0.27999 0.0
C2121 C 0.11213 0.07822 0.32485 0.0
C2122 C 0.20574 0.86426 0.57993 0.0
C2123 C 0.19092 0.84891 0.56455 0.0
H2124 H 0.21517 0.9017 0.59067 0.0
C2125 C 0.17408 0.85979 0.54777 0.0
H2126 H 0.21868 0.85619 0.59327 0.0
C2127 C 0.17257 0.88572 0.54589 0.0
C2128 C 0.18734 0.90109 0.56131 0.0
H2129 H 0.16247 0.84828 0.53581 0.0
H2130 H 0.15957 0.89375 0.53259 0.0
C2131 C 0.20369 0.8902 0.57858 0.0
C2132 C 0.36133 0.95361 0.79051 0.0
C2133 C 0.34849 0.93885 0.80795 0.0
H2134 H 0.39686 0.96613 0.77714 0.0
C2135 C 0.36209 0.92394 0.8247 0.0
H2136 H 0.3512 0.96507 0.77722 0.0
C2137 C 0.38814 0.92308 0.82335 0.0
C2138 C 0.40101 0.9386 0.80656 0.0
H2139 H 0.35264 0.91234 0.83829 0.0
H2140 H 0.39813 0.91094 0.83604 0.0
C2141 C 0.38737 0.9539 0.79019 0.0
C2142 C 0.32746 0.11588 0.04537 0.0
C2143 C 0.31296 0.10013 0.06063 0.0
H2144 H 0.33747 0.15357 0.03617 0.0
C2145 C 0.29679 0.11056 0.07831 0.0
H2146 H 0.34029 0.10819 0.03174 0.0
C2147 C 0.29475 0.13645 0.08033 0.0
C2148 C 0.30945 0.15219 0.06526 0.0
H2149 H 0.28549 0.09876 0.09026 0.0
H2150 H 0.28196 0.14416 0.094 0.0
C2151 C 0.32601 0.14176 0.04795 0.0
C2152 C 0.10941 0.92264 0.2048 0.0
C2153 C 0.09884 0.93981 0.18814 0.0
H2154 H 0.14316 0.90782 0.22032 0.0
C2155 C 0.11452 0.95509 0.17357 0.0
H2156 H 0.09767 0.91071 0.21618 0.0
C2157 C 0.14043 0.953 0.17539 0.0
C2158 C 0.151 0.93619 0.1924 0.0
H2159 H 0.10674 0.96836 0.16039 0.0
H2160 H 0.15216 0.96476 0.16382 0.0
C2161 C 0.13534 0.92112 0.2072 0.0
C2162 C 0.29776 0.86452 0.41899 0.0
C2163 C 0.31244 0.84885 0.43421 0.0
H2164 H 0.28841 0.90217 0.40887 0.0
C2165 C 0.32921 0.85941 0.45125 0.0
H2166 H 0.28485 0.85671 0.40547 0.0
C2167 C 0.33073 0.88531 0.4536 0.0
C2168 C 0.31605 0.901 0.43839 0.0
H2169 H 0.3407 0.84767 0.46311 0.0
H2170 H 0.34363 0.89308 0.46714 0.0
C2171 C 0.29982 0.89044 0.4208 0.0
C2172 C 0.36394 0.07691 0.6759 0.0
C2173 C 0.35075 0.06126 0.69229 0.0
H2174 H 0.3997 0.09068 0.6645 0.0
C2175 C 0.36405 0.04602 0.70899 0.0
H2176 H 0.35417 0.08884 0.66281 0.0
C2177 C 0.3901 0.04602 0.70893 0.0
C2178 C 0.40331 0.06208 0.69297 0.0
H2179 H 0.35427 0.03395 0.72198 0.0
H2180 H 0.39996 0.0334 0.72135 0.0
C2181 C 0.39001 0.07804 0.67693 0.0
C2182 C 0.17092 0.1399 0.95204 0.0
C2183 C 0.18809 0.1505 0.93543 0.0
H2184 H 0.15595 0.10617 0.9673 0.0
C2185 C 0.20289 0.13487 0.92033 0.0
H2186 H 0.15932 0.15161 0.96378 0.0
C2187 C 0.20057 0.10896 0.92183 0.0
C2188 C 0.18395 0.09834 0.93899 0.0
H2189 H 0.21609 0.14271 0.90713 0.0
H2190 H 0.2121 0.09726 0.91 0.0
C2191 C 0.16914 0.11398 0.95408 0.0
C2192 C 0.0784 0.29518 0.13471 0.0
C2193 C 0.06346 0.31003 0.15047 0.0
H2194 H 0.08897 0.28651 0.09703 0.0
C2195 C 0.04715 0.32758 0.13998 0.0
H2196 H 0.09135 0.28165 0.14242 0.0
C2197 C 0.04538 0.32985 0.11406 0.0
C2198 C 0.06047 0.31515 0.09832 0.0
H2199 H 0.03551 0.33922 0.15176 0.0
H2200 H 0.03244 0.34338 0.10632 0.0
C2201 C 0.0772 0.29801 0.10882 0.0
C2202 C 0.54689 0.20798 0.88756 0.0
C2203 C 0.56252 0.19197 0.90126 0.0
H2204 H 0.53555 0.2207 0.85137 0.0
C2205 C 0.57832 0.1754 0.88844 0.0
H2206 H 0.53442 0.22083 0.89701 0.0
C2207 C 0.57757 0.17403 0.86237 0.0
C2208 C 0.56239 0.19051 0.84872 0.0
H2209 H 0.59063 0.1629 0.8985 0.0
H2210 H 0.58949 0.1607 0.85295 0.0
C2211 C 0.54723 0.20762 0.86153 0.0
C2212 C 0.92431 0.82609 0.36391 0.0
C2213 C 0.94042 0.81037 0.35047 0.0
H2214 H 0.91027 0.83651 0.39984 0.0
C2215 C 0.9564 0.79415 0.36348 0.0
H2216 H 0.91184 0.83882 0.35436 0.0
C2217 C 0.95654 0.7939 0.38951 0.0
C2218 C 0.93989 0.80902 0.40296 0.0
H2219 H 0.96884 0.78168 0.35348 0.0
H2220 H 0.96963 0.7818 0.39915 0.0
C2221 C 0.92334 0.82469 0.38995 0.0
C2222 C 0.92694 0.17416 0.13868 0.0
C2223 C 0.93861 0.19285 0.15281 0.0
H2224 H 0.91452 0.16267 0.10259 0.0
C2225 C 0.94878 0.21372 0.14061 0.0
H2226 H 0.91863 0.15805 0.14767 0.0
C2227 C 0.94734 0.2159 0.1147 0.0
C2228 C 0.93514 0.19753 0.1005 0.0
H2229 H 0.95771 0.22852 0.15118 0.0
H2230 H 0.95581 0.23201 0.10585 0.0
C2231 C 0.92455 0.17687 0.11284 0.0
C2232 C 0.45228 0.67058 0.64072 0.0
C2233 C 0.43562 0.68773 0.65127 0.0
H2234 H 0.46759 0.65559 0.60701 0.0
C2235 C 0.42059 0.70259 0.63559 0.0
H2236 H 0.46399 0.65895 0.65247 0.0
C2237 C 0.42212 0.70025 0.60968 0.0
C2238 C 0.43926 0.68358 0.59912 0.0
H2239 H 0.40737 0.7158 0.64336 0.0
H2240 H 0.4103 0.71178 0.59793 0.0
C2241 C 0.45437 0.6688 0.6148 0.0
C2242 C 0.07765 0.70258 0.39001 0.0
C2243 C 0.0602 0.68618 0.40048 0.0
H2244 H 0.09292 0.71782 0.35639 0.0
C2245 C 0.04494 0.67166 0.38471 0.0
H2246 H 0.08959 0.7139 0.40182 0.0
C2247 C 0.04729 0.67334 0.3588 0.0
C2248 C 0.06435 0.69015 0.34834 0.0
H2249 H 0.03148 0.65865 0.39241 0.0
H2250 H 0.03551 0.66187 0.34699 0.0
C2251 C 0.07943 0.70484 0.36411 0.0
C2252 C 0.42402 0.29425 0.86678 0.0
C2253 C 0.43865 0.3093 0.85095 0.0
H2254 H 0.41402 0.28524 0.90453 0.0
C2255 C 0.45522 0.32666 0.86132 0.0
H2256 H 0.41091 0.28085 0.85915 0.0
C2257 C 0.45745 0.32863 0.88722 0.0
C2258 C 0.44255 0.31384 0.90304 0.0
H2259 H 0.46665 0.33842 0.84946 0.0
H2260 H 0.4705 0.34209 0.89486 0.0
C2261 C 0.42566 0.2968 0.89267 0.0
C2262 C 0.61281 0.5763 0.828 0.0
C2263 C 0.5993 0.56002 0.81252 0.0
H2264 H 0.64883 0.58742 0.84131 0.0
C2265 C 0.61222 0.54322 0.79712 0.0
H2266 H 0.6033 0.5894 0.84009 0.0
C2267 C 0.63826 0.54306 0.79679 0.0
C2268 C 0.65181 0.55892 0.81268 0.0
H2269 H 0.60216 0.53029 0.78521 0.0
H2270 H 0.64783 0.53054 0.78408 0.0
C2271 C 0.63887 0.57507 0.82879 0.0
C2272 C 0.70199 0.38843 0.07381 0.0
C2273 C 0.68536 0.3987 0.05641 0.0
H2274 H 0.71709 0.355 0.08962 0.0
C2275 C 0.67036 0.3828 0.04178 0.0
H2276 H 0.71365 0.40033 0.08531 0.0
C2277 C 0.67183 0.35696 0.04466 0.0
C2278 C 0.68885 0.34671 0.06166 0.0
H2279 H 0.65718 0.39035 0.02838 0.0
H2280 H 0.66003 0.34502 0.03333 0.0
C2281 C 0.70397 0.36258 0.07616 0.0
C2282 C 0.86183 0.4226 0.32505 0.0
C2283 C 0.84755 0.43704 0.30846 0.0
H2284 H 0.89838 0.4103 0.33556 0.0
C2285 C 0.85968 0.45166 0.29041 0.0
H2286 H 0.85292 0.41106 0.33906 0.0
C2287 C 0.88569 0.45225 0.28926 0.0
C2288 C 0.90006 0.43745 0.3055 0.0
H2289 H 0.84901 0.46274 0.27722 0.0
H2290 H 0.89459 0.46431 0.27565 0.0
C2291 C 0.88786 0.4221 0.32297 0.0
C2292 C 0.79345 0.63929 0.54354 0.0
C2293 C 0.81018 0.65263 0.55869 0.0
H2294 H 0.78097 0.60338 0.53122 0.0
C2295 C 0.82672 0.63952 0.57428 0.0
H2296 H 0.78036 0.64902 0.53151 0.0
C2297 C 0.8257 0.61348 0.57555 0.0
C2298 C 0.80949 0.60015 0.55981 0.0
H2299 H 0.83982 0.64934 0.58615 0.0
H2300 H 0.83819 0.60386 0.58821 0.0
C2301 C 0.7935 0.61327 0.54369 0.0
C2302 C 0.63722 0.42224 0.70619 0.0
C2303 C 0.65289 0.4372 0.69128 0.0
H2304 H 0.59957 0.41223 0.71562 0.0
C2305 C 0.64229 0.45418 0.67445 0.0
H2306 H 0.64503 0.4088 0.71918 0.0
C2307 C 0.61636 0.45658 0.67297 0.0
C2308 C 0.60069 0.44145 0.68771 0.0
H2309 H 0.65402 0.46586 0.6628 0.0
H2310 H 0.60856 0.46998 0.65994 0.0
C2311 C 0.61129 0.42408 0.70413 0.0
C2312 C 0.82824 0.38697 0.95291 0.0
C2313 C 0.8139 0.40256 0.93729 0.0
H2314 H 0.8377 0.34939 0.96311 0.0
C2315 C 0.79754 0.39192 0.9199 0.0
H2316 H 0.84121 0.39481 0.96634 0.0
C2317 C 0.79511 0.36601 0.91856 0.0
C2318 C 0.80957 0.35041 0.93405 0.0
H2319 H 0.78635 0.4036 0.9077 0.0
H2320 H 0.78216 0.35817 0.90509 0.0
C2321 C 0.82637 0.36105 0.95104 0.0
C2322 C 0.88907 0.57375 0.17758 0.0
C2323 C 0.90324 0.55478 0.18876 0.0
H2324 H 0.85287 0.58585 0.16613 0.0
C2325 C 0.89105 0.53387 0.19889 0.0
H2326 H 0.89805 0.58986 0.16926 0.0
C2327 C 0.86508 0.53196 0.19789 0.0
C2328 C 0.85084 0.55066 0.18624 0.0
H2329 H 0.90163 0.51887 0.20745 0.0
H2330 H 0.85621 0.51582 0.20628 0.0
C2331 C 0.86317 0.57136 0.17571 0.0
C2332 C 0.70157 0.60799 0.42114 0.0
C2333 C 0.68564 0.59742 0.43897 0.0
H2334 H 0.71625 0.64171 0.40551 0.0
C2335 C 0.67128 0.61311 0.45444 0.0
H2336 H 0.71275 0.59626 0.409 0.0
C2337 C 0.67276 0.63902 0.45205 0.0
C2338 C 0.68919 0.64958 0.43469 0.0
H2339 H 0.65861 0.60535 0.46818 0.0
H2340 H 0.66146 0.65076 0.46407 0.0
C2341 C 0.70362 0.63391 0.41927 0.0
C2342 C 0.54572 0.82766 0.64093 0.0
C2343 C 0.56266 0.81092 0.65174 0.0
H2344 H 0.53012 0.8419 0.607 0.0
C2345 C 0.57771 0.79587 0.6363 0.0
H2346 H 0.53397 0.8394 0.6525 0.0
C2347 C 0.57602 0.79771 0.61037 0.0
C2348 C 0.5587 0.81405 0.59956 0.0
H2349 H 0.59112 0.78296 0.64427 0.0
H2350 H 0.58793 0.78612 0.59881 0.0
C2351 C 0.54348 0.82893 0.61499 0.0
C2352 C 0.92373 0.1166 0.29233 0.0
C2353 C 0.92925 0.142 0.29557 0.0
H2354 H 0.93276 0.07893 0.30256 0.0
C2355 C 0.94703 0.14908 0.31358 0.0
H2356 H 0.91031 0.11075 0.27834 0.0
C2357 C 0.96051 0.13092 0.32674 0.0
C2358 C 0.9557 0.10547 0.32278 0.0
H2359 H 0.95186 0.16858 0.31607 0.0
H2360 H 0.9754 0.13671 0.33919 0.0
C2361 C 0.93651 0.09848 0.30622 0.0
C2362 C 0.15214 0.68753 0.55207 0.0
C2363 C 0.14521 0.70529 0.57008 0.0
H2364 H 0.13944 0.66244 0.52345 0.0
C2365 C 0.11987 0.7085 0.57593 0.0
H2366 H 0.17161 0.68512 0.54699 0.0
C2367 C 0.10159 0.6949 0.56312 0.0
C2368 C 0.10843 0.6787 0.54364 0.0
H2369 H 0.11417 0.72237 0.58953 0.0
H2370 H 0.08206 0.69858 0.56703 0.0
C2371 C 0.13383 0.67465 0.53858 0.0
C2372 C 0.5639 0.89958 0.80882 0.0
C2373 C 0.54306 0.89317 0.82348 0.0
H2374 H 0.59112 0.88688 0.78216 0.0
C2375 C 0.53607 0.86799 0.82548 0.0
H2376 H 0.56938 0.91895 0.80665 0.0
C2377 C 0.54904 0.84963 0.81216 0.0
C2378 C 0.5686 0.85635 0.79601 0.0
H2379 H 0.51991 0.86267 0.83646 0.0
H2380 H 0.54261 0.83046 0.81304 0.0
C2381 C 0.57628 0.88134 0.79477 0.0
C2382 C 0.39993 0.3053 0.06512 0.0
C2383 C 0.39351 0.32167 0.04563 0.0
H2384 H 0.38668 0.27797 0.09134 0.0
C2385 C 0.36822 0.32614 0.04032 0.0
H2386 H 0.41937 0.3013 0.06921 0.0
C2387 C 0.34959 0.31351 0.05356 0.0
C2388 C 0.35609 0.29559 0.07159 0.0
H2389 H 0.36293 0.3385 0.02516 0.0
H2390 H 0.33021 0.31626 0.04831 0.0
C2391 C 0.38133 0.29195 0.0777 0.0
C2392 C 0.92495 0.88256 0.21382 0.0
C2393 C 0.92759 0.85724 0.20753 0.0
H2394 H 0.93666 0.92017 0.20644 0.0
C2395 C 0.94277 0.85061 0.18714 0.0
H2396 H 0.91356 0.88806 0.22962 0.0
C2397 C 0.95663 0.86883 0.1745 0.0
C2398 C 0.9547 0.894 0.18144 0.0
H2399 H 0.94542 0.83116 0.18221 0.0
H2400 H 0.9696 0.86317 0.16003 0.0
C2401 C 0.93808 0.90085 0.20056 0.0
C2402 C 0.36802 0.67339 0.45934 0.0
C2403 C 0.3935 0.67786 0.455 0.0
H2404 H 0.3303 0.68359 0.45029 0.0
C2405 C 0.40054 0.69453 0.43598 0.0
H2406 H 0.36222 0.66083 0.47411 0.0
C2407 C 0.38238 0.70817 0.42301 0.0
C2408 C 0.35693 0.70459 0.42821 0.0
H2409 H 0.42011 0.69855 0.43261 0.0
H2410 H 0.38822 0.72239 0.40984 0.0
C2411 C 0.34984 0.68633 0.44568 0.0
C2412 C 0.56536 0.10014 0.69586 0.0
C2413 C 0.54659 0.10679 0.67868 0.0
H2414 H 0.59122 0.11303 0.72378 0.0
C2415 C 0.5421 0.13215 0.67384 0.0
H2416 H 0.56884 0.08068 0.70021 0.0
C2417 C 0.55555 0.1506 0.68664 0.0
C2418 C 0.57297 0.14394 0.70518 0.0
H2419 H 0.52751 0.13769 0.66092 0.0
H2420 H 0.55099 0.17005 0.68338 0.0
C2421 C 0.5781 0.11858 0.70938 0.0
C2422 C 0.11833 0.2909 0.92339 0.0
C2423 C 0.14375 0.29478 0.92855 0.0
H2424 H 0.08055 0.30048 0.93273 0.0
C2425 C 0.15074 0.31354 0.94552 0.0
H2426 H 0.11258 0.27632 0.91058 0.0
C2427 C 0.13249 0.32669 0.95882 0.0
C2428 C 0.10705 0.32191 0.95458 0.0
H2429 H 0.17026 0.31653 0.95005 0.0
H2430 H 0.13821 0.33964 0.97329 0.0
C2431 C 0.10009 0.30474 0.93599 0.0
C2432 C 0.31304 0.94734 0.15086 0.0
C2433 C 0.29397 0.93056 0.14425 0.0
H2434 H 0.33904 0.975 0.13786 0.0
C2435 C 0.28922 0.92579 0.11892 0.0
H2436 H 0.3167 0.95158 0.17033 0.0
C2437 C 0.30261 0.93847 0.10042 0.0
C2438 C 0.32021 0.95676 0.10708 0.0
H2439 H 0.27439 0.91312 0.11347 0.0
H2440 H 0.29779 0.93545 0.08098 0.0
C2441 C 0.32575 0.96074 0.13238 0.0
C2442 C 0.28858 0.07619 0.38346 0.0
C2443 C 0.29442 0.0731 0.35809 0.0
H2444 H 0.29627 0.06476 0.42113 0.0
C2445 C 0.31446 0.05748 0.35137 0.0
H2446 H 0.27305 0.08792 0.38904 0.0
C2447 C 0.3271 0.04359 0.36958 0.0
C2448 C 0.32054 0.04591 0.39483 0.0
H2449 H 0.31904 0.05449 0.33187 0.0
H2450 H 0.34122 0.03026 0.36387 0.0
C2451 C 0.30187 0.06302 0.40175 0.0
C2452 C 0.175 0.04379 0.63148 0.0
C2453 C 0.18237 0.04538 0.6064 0.0
H2454 H 0.18232 0.05516 0.66918 0.0
C2455 C 0.20183 0.06165 0.59969 0.0
H2456 H 0.16026 0.03107 0.63702 0.0
C2457 C 0.21501 0.07474 0.61809 0.0
C2458 C 0.20833 0.07238 0.64334 0.0
H2459 H 0.20804 0.06279 0.58045 0.0
H2460 H 0.23107 0.08584 0.61273 0.0
C2461 C 0.18758 0.0576 0.64978 0.0
C2462 C 0.19892 0.93669 0.90068 0.0
C2463 C 0.1802 0.95387 0.89407 0.0
H2464 H 0.22772 0.91203 0.88751 0.0
C2465 C 0.17353 0.95658 0.86887 0.0
H2466 H 0.2046 0.93465 0.92002 0.0
C2467 C 0.18611 0.943 0.85041 0.0
C2468 C 0.2062 0.92731 0.85684 0.0
H2469 H 0.15936 0.96997 0.86339 0.0
H2470 H 0.18145 0.9463 0.83097 0.0
C2471 C 0.21215 0.92383 0.88216 0.0
C2472 C 0.62019 0.20443 0.07787 0.0
C2473 C 0.64521 0.2029 0.07028 0.0
H2474 H 0.58239 0.19339 0.07059 0.0
C2475 C 0.65176 0.18682 0.05062 0.0
H2476 H 0.61476 0.21703 0.09276 0.0
C2477 C 0.63322 0.17402 0.03734 0.0
C2478 C 0.60801 0.17649 0.04414 0.0
H2479 H 0.67095 0.18575 0.04421 0.0
H2480 H 0.63843 0.16318 0.02106 0.0
C2481 C 0.60176 0.1909 0.0652 0.0
C2482 C 0.07619 0.38011 0.2938 0.0
C2483 C 0.06794 0.35529 0.29473 0.0
H2484 H 0.06974 0.41783 0.30558 0.0
C2485 C 0.04766 0.34898 0.31013 0.0
H2486 H 0.0916 0.38533 0.28175 0.0
C2487 C 0.03466 0.36758 0.32309 0.0
C2488 C 0.04229 0.3926 0.32144 0.0
H2489 H 0.04081 0.32994 0.31076 0.0
H2490 H 0.01806 0.36257 0.33354 0.0
C2491 C 0.06374 0.39859 0.30747 0.0
C2492 C 0.86889 0.82721 0.54128 0.0
C2493 C 0.89409 0.82167 0.54596 0.0
H2494 H 0.83066 0.81841 0.54955 0.0
C2495 C 0.90016 0.80415 0.56457 0.0
H2496 H 0.86381 0.84044 0.52681 0.0
C2497 C 0.88127 0.7909 0.57688 0.0
C2498 C 0.85606 0.79572 0.57147 0.0
H2499 H 0.9195 0.79929 0.56818 0.0
H2500 H 0.88635 0.77619 0.58984 0.0
C2501 C 0.85 0.81467 0.55431 0.0
C2502 C 0.05211 0.65202 0.18635 0.0
C2503 C 0.07028 0.64517 0.20404 0.0
H2504 H 0.02366 0.6392 0.16108 0.0
C2505 C 0.07651 0.61989 0.20695 0.0
H2506 H 0.04675 0.67142 0.18414 0.0
C2507 C 0.06397 0.6016 0.19311 0.0
C2508 C 0.04436 0.60829 0.17695 0.0
H2509 H 0.09026 0.61424 0.22073 0.0
H2510 H 0.06822 0.58211 0.1966 0.0
C2511 C 0.03889 0.63366 0.17323 0.0
C2512 C 0.46156 0.36858 0.67657 0.0
C2513 C 0.45727 0.39392 0.68166 0.0
H2514 H 0.45251 0.33068 0.68594 0.0
C2515 C 0.43857 0.40062 0.69882 0.0
H2516 H 0.47611 0.36305 0.66363 0.0
C2517 C 0.42576 0.38218 0.7122 0.0
C2518 C 0.4308 0.35684 0.70787 0.0
H2519 H 0.43528 0.42008 0.70332 0.0
H2520 H 0.41277 0.38771 0.72671 0.0
C2521 C 0.44804 0.35014 0.68925 0.0
C2522 C 0.43651 0.60081 0.80806 0.0
C2523 C 0.45656 0.6076 0.82364 0.0
H2524 H 0.4098 0.61316 0.7807 0.0
C2525 C 0.4625 0.63297 0.82652 0.0
H2526 H 0.43185 0.58131 0.80523 0.0
C2527 C 0.44929 0.65118 0.81318 0.0
C2528 C 0.4306 0.64417 0.79612 0.0
H2529 H 0.47805 0.63859 0.83823 0.0
H2530 H 0.45496 0.67055 0.81476 0.0
C2531 C 0.42394 0.61893 0.794 0.0
C2532 C 0.89225 0.17967 0.93562 0.0
C2533 C 0.89237 0.17931 0.96199 0.0
H2534 H 0.87459 0.19411 0.90234 0.0
C2535 C 0.8729 0.19144 0.97482 0.0
H2536 H 0.90698 0.17056 0.92515 0.0
C2537 C 0.85493 0.20508 0.96186 0.0
C2538 C 0.85562 0.20661 0.93575 0.0
H2539 H 0.87214 0.19145 0.99505 0.0
H2540 H 0.84079 0.2151 0.97236 0.0
C2541 C 0.87386 0.19318 0.92255 0.0
C2542 C 0.59902 0.80351 0.43649 0.0
C2543 C 0.60607 0.8194 0.45616 0.0
H2544 H 0.61131 0.77642 0.40954 0.0
C2545 C 0.63153 0.82327 0.46109 0.0
H2546 H 0.57945 0.79996 0.43265 0.0
C2547 C 0.64969 0.81054 0.44729 0.0
C2548 C 0.64256 0.79311 0.42903 0.0
H2549 H 0.63732 0.83525 0.47636 0.0
H2550 H 0.6692 0.81283 0.45224 0.0
C2551 C 0.61715 0.79004 0.42333 0.0
C2552 C 0.8262 0.46439 0.63254 0.0
C2553 C 0.82339 0.45776 0.60732 0.0
H2554 H 0.81484 0.45743 0.67035 0.0
C2555 C 0.80829 0.43717 0.60108 0.0
H2556 H 0.83753 0.48033 0.63774 0.0
C2557 C 0.79467 0.42468 0.61957 0.0
C2558 C 0.79676 0.43197 0.64464 0.0
H2559 H 0.80551 0.43197 0.5817 0.0
H2560 H 0.78175 0.41005 0.6142 0.0
C2561 C 0.8133 0.45128 0.65112 0.0
C2562 C 0.80264 0.56446 0.89998 0.0
C2563 C 0.82095 0.54702 0.89294 0.0
H2564 H 0.77403 0.5897 0.88744 0.0
C2565 C 0.82728 0.54457 0.86764 0.0
H2566 H 0.7972 0.56632 0.91939 0.0
C2567 C 0.81469 0.55859 0.8495 0.0
C2568 C 0.79492 0.57448 0.85636 0.0
H2569 H 0.84112 0.53098 0.86182 0.0
H2570 H 0.81902 0.55544 0.82997 0.0
C2571 C 0.78937 0.57777 0.88177 0.0
C2572 C 0.6753 0.55849 0.11951 0.0
C2573 C 0.688 0.54074 0.10494 0.0
H2574 H 0.67782 0.58437 0.15019 0.0
C2575 C 0.71377 0.53749 0.10827 0.0
H2576 H 0.65541 0.56141 0.11705 0.0
C2577 C 0.72659 0.55087 0.12642 0.0
C2578 C 0.7139 0.56756 0.14226 0.0
H2579 H 0.72408 0.52427 0.0969 0.0
H2580 H 0.74639 0.54724 0.12864 0.0
C2581 C 0.68814 0.57163 0.13833 0.0
C2582 C 0.71002 0.42135 0.38303 0.0
C2583 C 0.70505 0.42554 0.35762 0.0
H2584 H 0.70195 0.43198 0.42083 0.0
C2585 C 0.68599 0.44233 0.35087 0.0
H2586 H 0.72483 0.40871 0.38864 0.0
C2587 C 0.67359 0.45628 0.36918 0.0
C2588 C 0.67938 0.45289 0.39452 0.0
H2589 H 0.68212 0.44619 0.33137 0.0
H2590 H 0.66032 0.47049 0.3635 0.0
C2591 C 0.69693 0.4346 0.40138 0.0
C2592 C 0.02274 0.9962 0.238 0.0
C2593 C 1.00027 0.99144 0.22528 0.0
H2594 H 0.04024 0.00922 0.27151 0.0
C2595 C 0.9775 0.9956 0.23777 0.0
H2596 H 0.04056 0.99273 0.22901 0.0
C2597 C 0.97732 0.00414 0.26266 0.0
C2598 C 0.99991 0.0091 0.2752 0.0
H2599 H 0.95992 0.99148 0.22859 0.0
H2600 H 0.9596 0.00745 0.27185 0.0
C2601 C 0.02255 0.00527 0.26247 0.0
C2602 C 0.25632 0.77326 0.48744 0.0
C2603 C 0.26017 0.75072 0.47457 0.0
H2604 H 0.24377 0.79093 0.52108 0.0
C2605 C 0.25526 0.72804 0.4869 0.0
H2606 H 0.26034 0.79098 0.47851 0.0
C2607 C 0.2468 0.728 0.51177 0.0
C2608 C 0.24263 0.75064 0.52443 0.0
H2609 H 0.25863 0.71041 0.47757 0.0
H2610 H 0.24279 0.71035 0.52083 0.0
C2611 C 0.24724 0.77322 0.5119 0.0
C2612 C 0.48037 0.00702 0.73941 0.0
C2613 C 0.50293 0.00999 0.72633 0.0
H2614 H 0.4624 0.9952 0.77307 0.0
C2615 C 0.52549 0.00388 0.73843 0.0
H2616 H 0.46271 0.01182 0.73072 0.0
C2617 C 0.52536 0.9951 0.76324 0.0
C2618 C 0.50263 0.99187 0.77607 0.0
H2619 H 0.54319 0.00647 0.72895 0.0
H2620 H 0.54289 0.99015 0.77211 0.0
C2621 C 0.4802 0.99778 0.76379 0.0
C2622 C 0.24374 0.22683 0.98962 0.0
C2623 C 0.24035 0.24917 0.97625 0.0
H2624 H 0.25604 0.2096 0.02362 0.0
C2625 C 0.24578 0.27199 0.9881 0.0
H2626 H 0.23936 0.20901 0.98107 0.0
C2627 C 0.25432 0.27237 0.01296 0.0
C2628 C 0.25806 0.24992 0.02609 0.0
H2629 H 0.24279 0.28949 0.97839 0.0
H2630 H 0.25876 0.29011 0.02162 0.0
C2631 C 0.2529 0.22718 0.01407 0.0
C2632 C 0.23746 0.97831 0.99624 0.0
C2633 C 0.22487 1.00084 0.99117 0.0
H2634 H 0.27155 0.96102 0.00895 0.0
C2635 C 0.23753 0.02351 0.99498 0.0
H2636 H 0.22833 0.96056 0.9929 0.0
C2637 C 0.262 0.02377 0.00414 0.0
C2638 C 0.27477 0.00134 0.00893 0.0
H2639 H 0.22843 0.04113 0.99085 0.0
H2640 H 0.27098 0.04159 0.00755 0.0
C2641 C 0.26233 0.97856 0.00481 0.0
C2642 C 0.27363 0.01285 0.25595 0.0
C2643 C 0.25109 0.02541 0.261 0.0
H2644 H 0.29091 0.97881 0.24321 0.0
C2645 C 0.22839 0.01276 0.25717 0.0
H2646 H 0.29139 0.02199 0.25924 0.0
C2647 C 0.22812 0.98835 0.24798 0.0
C2648 C 0.25055 0.97561 0.24316 0.0
H2649 H 0.21074 0.02185 0.2612 0.0
H2650 H 0.21027 0.97939 0.24454 0.0
C2651 C 0.27336 0.98802 0.24734 0.0
C2652 C 0.23878 0.02131 0.50489 0.0
C2653 C 0.22615 0.99867 0.5092 0.0
H2654 H 0.27292 0.03892 0.49285 0.0
C2655 C 0.23874 0.9761 0.50463 0.0
H2656 H 0.22971 0.03896 0.50887 0.0
C2657 C 0.2632 0.97607 0.49547 0.0
C2658 C 0.27604 0.99861 0.49149 0.0
H2659 H 0.22961 0.95838 0.50822 0.0
H2660 H 0.27214 0.95835 0.49149 0.0
C2661 C 0.26364 0.02128 0.49634 0.0
C2662 C 0.27208 0.01195 0.74566 0.0
C2663 C 0.24967 0.02494 0.74134 0.0
H2664 H 0.28941 0.97825 0.75847 0.0
C2665 C 0.22683 0.01271 0.74587 0.0
H2666 H 0.28994 0.02077 0.74203 0.0
C2667 C 0.22653 0.98783 0.75439 0.0
C2668 C 0.24905 0.97506 0.75902 0.0
H2669 H 0.20928 0.02212 0.7422 0.0
H2670 H 0.20876 0.97885 0.75804 0.0
C2671 C 0.27177 0.98749 0.75475 0.0
C2672 C 0.00302 0.26341 0.97753 0.0
C2673 C 0.01109 0.27462 0.99991 0.0
H2674 H 0.9882 0.2303 0.96004 0.0
C2675 C 0.01076 0.2604 0.022 0.0
H2676 H 0.00355 0.27376 0.96014 0.0
C2677 C 0.0022 0.23579 0.02191 0.0
C2678 C 0.99423 0.22443 0.99964 0.0
H2679 H 0.01711 0.26838 0.0395 0.0
H2680 H 0.00158 0.22564 0.03942 0.0
C2681 C 0.99483 0.2384 0.97736 0.0
C2682 C 0.50795 0.24015 0.9797 0.0
C2683 C 0.51113 0.22682 0.00211 0.0
H2684 H 0.49579 0.27401 0.96219 0.0
C2685 C 0.50542 0.23873 0.02484 0.0
H2686 H 0.51242 0.23161 0.96191 0.0
C2687 C 0.49675 0.26355 0.02504 0.0
C2688 C 0.4932 0.2766 0.00248 0.0
H2689 H 0.50816 0.22905 0.04241 0.0
H2690 H 0.492 0.27223 0.04269 0.0
C2691 C 0.49877 0.26456 0.97986 0.0
C2692 C 0.98809 0.24241 0.22825 0.0
C2693 C 0.97552 0.23886 0.25102 0.0
H2694 H 0.02135 0.25501 0.20988 0.0
C2695 C 0.98807 0.24437 0.27345 0.0
H2696 H 0.979 0.23798 0.2107 0.0
C2697 C 0.01285 0.25317 0.273 0.0
C2698 C 0.02519 0.25706 0.2501 0.0
H2699 H 0.97898 0.24127 0.29126 0.0
H2700 H 0.02207 0.25769 0.29046 0.0
C2701 C 0.01245 0.25178 0.22778 0.0
C2702 C 0.00546 0.73581 0.52371 0.0
C2703 C 0.0093 0.72355 0.50077 0.0
H2704 H 0.9937 0.76964 0.5421 0.0
C2705 C 0.00399 0.73637 0.4785 0.0
H2706 H 0.00999 0.72653 0.54113 0.0
C2707 C 0.9947 0.76074 0.47906 0.0
C2708 C 0.9912 0.77326 0.50187 0.0
H2709 H 0.00716 0.72754 0.46056 0.0
H2710 H 0.99033 0.76989 0.46153 0.0
C2711 C 0.99672 0.7606 0.52425 0.0
C2712 C 0.50302 0.76171 0.52348 0.0
C2713 C 0.50795 0.77415 0.50091 0.0
H2714 H 0.48977 0.72838 0.54123 0.0
C2715 C 0.50407 0.76137 0.47827 0.0
H2716 H 0.50626 0.77096 0.54121 0.0
C2717 C 0.49563 0.73648 0.47831 0.0
C2718 C 0.49043 0.72422 0.50098 0.0
H2719 H 0.50832 0.77034 0.46062 0.0
H2720 H 0.49251 0.72707 0.46066 0.0
C2721 C 0.49398 0.73722 0.52351 0.0
C2722 C 0.01169 0.74569 0.27285 0.0
C2723 C 0.02463 0.74211 0.25031 0.0
H2724 H 0.97798 0.75789 0.2906 0.0
C2725 C 0.01235 0.7474 0.22765 0.0
H2726 H 0.02055 0.7414 0.29056 0.0
C2727 C 0.98746 0.75592 0.22764 0.0
C2728 C 0.97471 0.75976 0.2503 0.0
H2729 H 0.02173 0.74426 0.20999 0.0
H2730 H 0.97844 0.76016 0.21001 0.0
C2731 C 0.98721 0.75477 0.27286 0.0
C2732 C 0.51327 0.24593 0.72769 0.0
C2733 C 0.52587 0.24038 0.75011 0.0
H2734 H 0.47917 0.25905 0.71069 0.0
C2735 C 0.51321 0.2437 0.77287 0.0
H2736 H 0.52242 0.24304 0.70987 0.0
C2737 C 0.48876 0.25285 0.77334 0.0
C2738 C 0.47599 0.25817 0.75103 0.0
H2739 H 0.52231 0.23929 0.79043 0.0
H2740 H 0.4798 0.2559 0.79124 0.0
C2741 C 0.4884 0.25451 0.72814 0.0
C2742 C 0.52319 0.49712 0.7397 0.0
C2743 C 0.50083 0.49243 0.72677 0.0
H2744 H 0.54041 0.51027 0.77332 0.0
C2745 C 0.47795 0.49678 0.739 0.0
H2746 H 0.54108 0.49356 0.73089 0.0
C2747 C 0.47756 0.50544 0.76383 0.0
C2748 C 0.50004 0.51036 0.77656 0.0
H2749 H 0.46044 0.49276 0.72964 0.0
H2750 H 0.45975 0.50888 0.77281 0.0
C2751 C 0.5228 0.50634 0.7641 0.0
C2752 C 0.74785 0.22751 0.01129 0.0
C2753 C 0.74046 0.24987 0.02294 0.0
H2754 H 0.76227 0.21027 0.9779 0.0
C2755 C 0.74155 0.27223 0.00919 0.0
H2756 H 0.74667 0.20994 0.02127 0.0
C2757 C 0.75032 0.27241 0.98462 0.0
C2758 C 0.75756 0.25014 0.97282 0.0
H2759 H 0.73568 0.28971 0.01754 0.0
H2760 H 0.75172 0.2901 0.97486 0.0
C2761 C 0.75613 0.22761 0.98632 0.0
C2762 C 0.02523 0.49499 0.26117 0.0
C2763 C 0.00243 0.49162 0.27386 0.0
H2764 H 0.0432 0.50667 0.22705 0.0
C2765 C 0.98005 0.49753 0.26151 0.0
H2766 H 0.04273 0.49008 0.27011 0.0
C2767 C 0.98031 0.5069 0.2372 0.0
C2768 C 0.00294 0.51005 0.22428 0.0
H2769 H 0.96221 0.4949 0.2707 0.0
H2770 H 0.96268 0.51175 0.22846 0.0
C2771 C 0.02547 0.50393 0.23642 0.0
C2772 C 0.75383 0.77344 0.50977 0.0
C2773 C 0.759 0.75116 0.52271 0.0
H2774 H 0.74091 0.79009 0.47544 0.0
C2775 C 0.75521 0.72825 0.51045 0.0
H2776 H 0.75709 0.79135 0.51861 0.0
C2777 C 0.74596 0.72753 0.48604 0.0
C2778 C 0.74102 0.74971 0.47293 0.0
H2779 H 0.75932 0.71079 0.51982 0.0
H2780 H 0.74254 0.70954 0.4774 0.0
C2781 C 0.74516 0.77273 0.48494 0.0
C2782 C 0.76286 0.47683 0.50552 0.0
C2783 C 0.77569 0.49948 0.50914 0.0
H2784 H 0.72855 0.45918 0.49395 0.0
C2785 C 0.7633 0.52201 0.50383 0.0
H2786 H 0.7718 0.45923 0.51 0.0
C2787 C 0.73885 0.52199 0.49466 0.0
C2788 C 0.72582 0.49947 0.4913 0.0
H2789 H 0.77259 0.53975 0.50677 0.0
H2790 H 0.73008 0.53968 0.49015 0.0
C2791 C 0.73799 0.47684 0.4969 0.0
C2792 C 0.7291 0.51294 0.75598 0.0
C2793 C 0.75165 0.52581 0.75996 0.0
H2794 H 0.71138 0.47933 0.74347 0.0
C2795 C 0.77434 0.51338 0.75528 0.0
H2796 H 0.71134 0.52191 0.75972 0.0
C2797 C 0.77437 0.48846 0.74687 0.0
C2798 C 0.75169 0.47583 0.74256 0.0
H2799 H 0.79199 0.52268 0.75871 0.0
H2800 H 0.79203 0.47936 0.74297 0.0
C2801 C 0.72912 0.48844 0.74704 0.0
C2802 C 0.75893 0.47781 0.98731 0.0
C2803 C 0.77336 0.49976 0.98751 0.0
H2804 H 0.72409 0.4604 0.99649 0.0
C2805 C 0.76233 0.52201 0.99615 0.0
H2806 H 0.76677 0.46042 0.98051 0.0
C2807 C 0.73736 0.52216 0.00447 0.0
C2808 C 0.72321 0.49999 0.00466 0.0
H2809 H 0.77282 0.53931 0.99603 0.0
H2810 H 0.72946 0.53934 0.01168 0.0
C2811 C 0.73434 0.47786 0.99605 0.0
C2812 C 0.72669 0.48582 0.25334 0.0
C2813 C 0.74875 0.47474 0.26245 0.0
H2814 H 0.70972 0.51879 0.23759 0.0
C2815 C 0.77074 0.48912 0.26318 0.0
H2816 H 0.70937 0.47534 0.25298 0.0
C2817 C 0.77091 0.51371 0.25457 0.0
C2818 C 0.74898 0.5249 0.24547 0.0
H2819 H 0.78801 0.48125 0.27028 0.0
H2820 H 0.78839 0.52394 0.25469 0.0
C2821 C 0.72676 0.51081 0.2451 0.0
C2822 C 0.48828 0.74452 0.7265 0.0
C2823 C 0.47525 0.74079 0.74898 0.0
H2824 H 0.52194 0.75726 0.70895 0.0
C2825 C 0.48739 0.74608 0.7717 0.0
H2826 H 0.47952 0.74023 0.70874 0.0
C2827 C 0.51219 0.7548 0.77185 0.0
C2828 C 0.525 0.75886 0.74927 0.0
H2829 H 0.47796 0.74281 0.78931 0.0
H2830 H 0.52107 0.75913 0.78953 0.0
C2831 C 0.51267 0.75385 0.72663 0.0
loop_
_geom_bond_atom_site_label_1
_geom_bond_atom_site_label_2
_geom_bond_distance
_geom_bond_site_symmetry_2
_ccdc_geom_bond_type
Co0 O3 1.970 . S
Co0 N17 1.989 . S
Co0 O25 1.967 1_455 S
Co0 O32 1.920 . S
Co1 O4 1.966 . S
Co1 N10 2.022 . S
Co1 N18 1.993 1_655 S
Co1 O26 1.941 . S
C2 O3 1.258 1_655 S
C2 O4 1.263 . S
O3 Co0 1.970 . S
O3 C2 1.258 1_455 S
O4 Co1 1.966 . S
O4 C2 1.263 . S
C5 O6 1.235 . S
C5 O32 1.289 . S
O6 C5 1.235 . S
C7 C9 1.400 . S
C7 N10 1.351 1_565 S
C7 C12 1.501 . S
C8 C9 1.387 1_545 S
C8 N11 1.341 . S
C9 C7 1.400 . S
C9 C8 1.387 1_565 S
N10 Co1 2.022 . S
N10 C7 1.351 1_545 S
N10 N11 1.365 . S
N11 C8 1.341 . S
N11 N10 1.365 . S
N11 H31 0.862 . S
C12 C7 1.501 . S
C12 H13 0.961 . S
C12 H14 0.961 . S
C12 H15 0.960 . S
H13 C12 0.961 . S
H14 C12 0.961 . S
H15 C12 0.960 . S
C16 N17 1.342 . S
C16 C20 1.401 . S
C16 C21 1.499 . S
N17 Co0 1.989 . S
N17 C16 1.342 . S
N17 N18 1.388 . S
N18 Co1 1.993 1_455 S
N18 N17 1.388 . S
N18 C19 1.346 . S
C19 N18 1.346 . S
C19 C20 1.396 . S
C19 C29 1.510 1_455 S
C20 C16 1.401 . S
C20 C19 1.396 . S
C21 C16 1.499 . S
C21 H22 0.959 . S
C21 H23 0.960 . S
C21 H24 0.961 . S
H22 C21 0.959 . S
H23 C21 0.960 . S
H24 C21 0.961 . S
O25 Co0 1.967 1_655 S
O25 C33 1.258 . S
O26 Co1 1.941 . S
O26 C33 1.266 . S
H27 C29 0.959 . S
H28 C29 0.961 1_455 S
C29 C19 1.510 1_655 S
C29 H27 0.959 . S
C29 H28 0.961 1_655 S
C29 H30 0.960 . S
H30 C29 0.960 . S
H31 N11 0.862 . S
O32 Co0 1.920 . S
O32 C5 1.289 . S
C33 O25 1.258 . S
C33 O26 1.266 . S
Co34 O37 1.970 . S
Co34 N51 1.989 . S
Co34 O59 1.967 . S
Co34 O66 1.920 . S
Co35 O38 1.966 . S
Co35 N44 2.022 . S
Co35 N52 1.993 . S
Co35 O60 1.941 . S
C36 O37 1.258 . S
C36 O38 1.263 . S
O37 Co34 1.970 . S
O37 C36 1.258 . S
O38 Co35 1.966 . S
O38 C36 1.263 . S
C39 O40 1.235 . S
C39 O66 1.289 . S
O40 C39 1.235 . S
C41 C43 1.400 . S
C41 N44 1.351 . S
C41 C46 1.501 . S
C42 C43 1.387 . S
C42 N45 1.341 . S
C43 C41 1.400 . S
C43 C42 1.387 . S
N44 Co35 2.022 . S
N44 C41 1.351 . S
N44 N45 1.365 . S
N45 C42 1.341 . S
N45 N44 1.365 . S
N45 H65 0.862 . S
C46 C41 1.501 . S
C46 H47 0.961 . S
C46 H48 0.961 . S
C46 H49 0.960 . S
H47 C46 0.961 . S
H48 C46 0.961 . S
H49 C46 0.960 . S
C50 N51 1.342 . S
C50 C54 1.401 . S
C50 C55 1.499 . S
N51 Co34 1.989 . S
N51 C50 1.342 . S
N51 N52 1.388 . S
N52 Co35 1.993 . S
N52 N51 1.388 . S
N52 C53 1.346 . S
C53 N52 1.346 . S
C53 C54 1.396 . S
C53 C63 1.510 . S
C54 C50 1.401 . S
C54 C53 1.396 . S
C55 C50 1.499 . S
C55 H56 0.959 . S
C55 H57 0.960 . S
C55 H58 0.961 . S
H56 C55 0.959 . S
H57 C55 0.960 . S
H58 C55 0.961 . S
O59 Co34 1.967 . S
O59 C67 1.258 . S
O60 Co35 1.941 . S
O60 C67 1.266 . S
H61 C63 0.959 . S
H62 C63 0.961 . S
C63 C53 1.510 . S
C63 H61 0.959 . S
C63 H62 0.961 . S
C63 H64 0.960 . S
H64 C63 0.960 . S
H65 N45 0.862 . S
O66 Co34 1.920 . S
O66 C39 1.289 . S
C67 O59 1.258 . S
C67 O60 1.266 . S
Co68 O71 1.970 . S
Co68 N85 1.989 . S
Co68 O93 1.967 . S
Co68 O100 1.920 . S
Co69 O72 1.966 . S
Co69 N78 2.022 . S
Co69 N86 1.993 . S
Co69 O94 1.941 . S
C70 O71 1.258 . S
C70 O72 1.263 . S
O71 Co68 1.970 . S
O71 C70 1.258 . S
O72 Co69 1.966 . S
O72 C70 1.263 . S
C73 O74 1.235 . S
C73 O100 1.289 . S
O74 C73 1.235 . S
C75 C77 1.400 . S
C75 N78 1.351 1_545 S
C75 C80 1.501 . S
C76 C77 1.387 1_565 S
C76 N79 1.341 . S
C77 C75 1.400 . S
C77 C76 1.387 1_545 S
N78 Co69 2.022 . S
N78 C75 1.351 1_565 S
N78 N79 1.365 . S
N79 C76 1.341 . S
N79 N78 1.365 . S
N79 H99 0.862 . S
C80 C75 1.501 . S
C80 H81 0.961 . S
C80 H82 0.961 . S
C80 H83 0.960 . S
H81 C80 0.961 . S
H82 C80 0.961 . S
H83 C80 0.960 . S
C84 N85 1.342 . S
C84 C88 1.401 . S
C84 C89 1.499 . S
N85 Co68 1.989 . S
N85 C84 1.342 . S
N85 N86 1.388 . S
N86 Co69 1.993 . S
N86 N85 1.388 . S
N86 C87 1.346 . S
C87 N86 1.346 . S
C87 C88 1.396 . S
C87 C97 1.510 . S
C88 C84 1.401 . S
C88 C87 1.396 . S
C89 C84 1.499 . S
C89 H90 0.959 . S
C89 H91 0.960 . S
C89 H92 0.961 . S
H90 C89 0.959 . S
H91 C89 0.960 . S
H92 C89 0.961 . S
O93 Co68 1.967 . S
O93 C101 1.258 . S
O94 Co69 1.941 . S
O94 C101 1.266 . S
H95 C97 0.959 . S
H96 C97 0.961 . S
C97 C87 1.510 . S
C97 H95 0.959 . S
C97 H96 0.961 . S
C97 H98 0.960 . S
H98 C97 0.960 . S
H99 N79 0.862 . S
O100 Co68 1.920 . S
O100 C73 1.289 . S
C101 O93 1.258 . S
C101 O94 1.266 . S
Co102 O105 1.970 . S
Co102 N119 1.989 . S
Co102 O127 1.967 . S
Co102 O134 1.920 . S
Co103 O106 1.966 . S
Co103 N112 2.022 . S
Co103 N120 1.993 . S
Co103 O128 1.941 . S
C104 O105 1.258 . S
C104 O106 1.263 . S
O105 Co102 1.970 . S
O105 C104 1.258 . S
O106 Co103 1.966 . S
O106 C104 1.263 . S
C107 O108 1.235 . S
C107 O134 1.289 . S
O108 C107 1.235 . S
C109 C111 1.400 . S
C109 N112 1.351 . S
C109 C114 1.501 . S
C110 C111 1.387 . S
C110 N113 1.341 . S
C111 C109 1.400 . S
C111 C110 1.387 . S
N112 Co103 2.022 . S
N112 C109 1.351 . S
N112 N113 1.365 . S
N113 C110 1.341 . S
N113 N112 1.365 . S
N113 H133 0.862 . S
C114 C109 1.501 . S
C114 H115 0.961 . S
C114 H116 0.961 . S
C114 H117 0.960 . S
H115 C114 0.961 . S
H116 C114 0.961 . S
H117 C114 0.960 . S
C118 N119 1.342 . S
C118 C122 1.401 . S
C118 C123 1.499 . S
N119 Co102 1.989 . S
N119 C118 1.342 . S
N119 N120 1.388 . S
N120 Co103 1.993 . S
N120 N119 1.388 . S
N120 C121 1.346 . S
C121 N120 1.346 . S
C121 C122 1.396 . S
C121 C131 1.510 . S
C122 C118 1.401 . S
C122 C121 1.396 . S
C123 C118 1.499 . S
C123 H124 0.959 . S
C123 H125 0.960 . S
C123 H126 0.961 . S
H124 C123 0.959 . S
H125 C123 0.960 . S
H126 C123 0.961 . S
O127 Co102 1.967 . S
O127 C135 1.258 . S
O128 Co103 1.941 . S
O128 C135 1.266 . S
H129 C131 0.959 . S
H130 C131 0.961 . S
C131 C121 1.510 . S
C131 H129 0.959 . S
C131 H130 0.961 . S
C131 H132 0.960 . S
H132 C131 0.960 . S
H133 N113 0.862 . S
O134 Co102 1.920 . S
O134 C107 1.289 . S
C135 O127 1.258 . S
C135 O128 1.266 . S
Co136 O139 1.970 . S
Co136 N153 1.989 . S
Co136 O161 1.967 1_455 S
Co136 O168 1.920 . S
Co137 O140 1.966 . S
Co137 N146 2.022 . S
Co137 N154 1.993 1_655 S
Co137 O162 1.941 . S
C138 O139 1.258 1_655 S
C138 O140 1.263 . S
O139 Co136 1.970 . S
O139 C138 1.258 1_455 S
O140 Co137 1.966 . S
O140 C138 1.263 . S
C141 O142 1.235 . S
C141 O168 1.289 . S
O142 C141 1.235 . S
C143 C145 1.400 . S
C143 N146 1.351 1_545 S
C143 C148 1.501 . S
C144 C145 1.387 1_565 S
C144 N147 1.341 . S
C145 C143 1.400 . S
C145 C144 1.387 1_545 S
N146 Co137 2.022 . S
N146 C143 1.351 1_565 S
N146 N147 1.365 . S
N147 C144 1.341 . S
N147 N146 1.365 . S
N147 H167 0.862 . S
C148 C143 1.501 . S
C148 H149 0.961 . S
C148 H150 0.961 . S
C148 H151 0.960 . S
H149 C148 0.961 . S
H150 C148 0.961 . S
H151 C148 0.960 . S
C152 N153 1.342 . S
C152 C156 1.401 . S
C152 C157 1.499 . S
N153 Co136 1.989 . S
N153 C152 1.342 . S
N153 N154 1.388 . S
N154 Co137 1.993 1_455 S
N154 N153 1.388 . S
N154 C155 1.346 . S
C155 N154 1.346 . S
C155 C156 1.396 . S
C155 C165 1.510 1_455 S
C156 C152 1.401 . S
C156 C155 1.396 . S
C157 C152 1.499 . S
C157 H158 0.959 . S
C157 H159 0.960 . S
C157 H160 0.961 . S
H158 C157 0.959 . S
H159 C157 0.960 . S
H160 C157 0.961 . S
O161 Co136 1.967 1_655 S
O161 C169 1.258 . S
O162 Co137 1.941 . S
O162 C169 1.266 . S
H163 C165 0.959 . S
H164 C165 0.961 1_455 S
C165 C155 1.510 1_655 S
C165 H163 0.959 . S
C165 H164 0.961 1_655 S
C165 H166 0.960 . S
H166 C165 0.960 . S
H167 N147 0.862 . S
O168 Co136 1.920 . S
O168 C141 1.289 . S
C169 O161 1.258 . S
C169 O162 1.266 . S
Co170 O173 1.970 . S
Co170 N187 1.989 . S
Co170 O195 1.967 . S
Co170 O202 1.920 . S
Co171 O174 1.966 . S
Co171 N180 2.022 . S
Co171 N188 1.993 . S
Co171 O196 1.941 . S
C172 O173 1.258 . S
C172 O174 1.263 . S
O173 Co170 1.970 . S
O173 C172 1.258 . S
O174 Co171 1.966 . S
O174 C172 1.263 . S
C175 O176 1.235 . S
C175 O202 1.289 . S
O176 C175 1.235 . S
C177 C179 1.400 . S
C177 N180 1.351 . S
C177 C182 1.501 . S
C178 C179 1.387 . S
C178 N181 1.341 . S
C179 C177 1.400 . S
C179 C178 1.387 . S
N180 Co171 2.022 . S
N180 C177 1.351 . S
N180 N181 1.365 . S
N181 C178 1.341 . S
N181 N180 1.365 . S
N181 H201 0.862 . S
C182 C177 1.501 . S
C182 H183 0.961 . S
C182 H184 0.961 . S
C182 H185 0.960 . S
H183 C182 0.961 . S
H184 C182 0.961 . S
H185 C182 0.960 . S
C186 N187 1.342 . S
C186 C190 1.401 . S
C186 C191 1.499 . S
N187 Co170 1.989 . S
N187 C186 1.342 . S
N187 N188 1.388 . S
N188 Co171 1.993 . S
N188 N187 1.388 . S
N188 C189 1.346 . S
C189 N188 1.346 . S
C189 C190 1.396 . S
C189 C199 1.510 . S
C190 C186 1.401 . S
C190 C189 1.396 . S
C191 C186 1.499 . S
C191 H192 0.959 . S
C191 H193 0.960 . S
C191 H194 0.961 . S
H192 C191 0.959 . S
H193 C191 0.960 . S
H194 C191 0.961 . S
O195 Co170 1.967 . S
O195 C203 1.258 . S
O196 Co171 1.941 . S
O196 C203 1.266 . S
H197 C199 0.959 . S
H198 C199 0.961 . S
C199 C189 1.510 . S
C199 H197 0.959 . S
C199 H198 0.961 . S
C199 H200 0.960 . S
H200 C199 0.960 . S
H201 N181 0.862 . S
O202 Co170 1.920 . S
O202 C175 1.289 . S
C203 O195 1.258 . S
C203 O196 1.266 . S
Co204 O207 1.970 . S
Co204 N221 1.989 . S
Co204 O229 1.967 . S
Co204 O236 1.920 . S
Co205 O208 1.966 . S
Co205 N214 2.022 . S
Co205 N222 1.993 . S
Co205 O230 1.941 . S
C206 O207 1.258 . S
C206 O208 1.263 . S
O207 Co204 1.970 . S
O207 C206 1.258 . S
O208 Co205 1.966 . S
O208 C206 1.263 . S
C209 O210 1.235 . S
C209 O236 1.289 . S
O210 C209 1.235 . S
C211 C213 1.400 . S
C211 N214 1.351 1_565 S
C211 C216 1.501 . S
C212 C213 1.387 1_545 S
C212 N215 1.341 . S
C213 C211 1.400 . S
C213 C212 1.387 1_565 S
N214 Co205 2.022 . S
N214 C211 1.351 1_545 S
N214 N215 1.365 . S
N215 C212 1.341 . S
N215 N214 1.365 . S
N215 H235 0.862 . S
C216 C211 1.501 . S
C216 H217 0.961 . S
C216 H218 0.961 . S
C216 H219 0.960 . S
H217 C216 0.961 . S
H218 C216 0.961 . S
H219 C216 0.960 . S
C220 N221 1.342 . S
C220 C224 1.401 . S
C220 C225 1.499 . S
N221 Co204 1.989 . S
N221 C220 1.342 . S
N221 N222 1.388 . S
N222 Co205 1.993 . S
N222 N221 1.388 . S
N222 C223 1.346 . S
C223 N222 1.346 . S
C223 C224 1.396 . S
C223 C233 1.510 . S
C224 C220 1.401 . S
C224 C223 1.396 . S
C225 C220 1.499 . S
C225 H226 0.959 . S
C225 H227 0.960 . S
C225 H228 0.961 . S
H226 C225 0.959 . S
H227 C225 0.960 . S
H228 C225 0.961 . S
O229 Co204 1.967 . S
O229 C237 1.258 . S
O230 Co205 1.941 . S
O230 C237 1.266 . S
H231 C233 0.959 . S
H232 C233 0.961 . S
C233 C223 1.510 . S
C233 H231 0.959 . S
C233 H232 0.961 . S
C233 H234 0.960 . S
H234 C233 0.960 . S
H235 N215 0.862 . S
O236 Co204 1.920 . S
O236 C209 1.289 . S
C237 O229 1.258 . S
C237 O230 1.266 . S
Co238 O241 1.970 . S
Co238 N255 1.989 . S
Co238 O263 1.967 . S
Co238 O270 1.920 . S
Co239 O242 1.966 . S
Co239 N248 2.022 . S
Co239 N256 1.993 . S
Co239 O264 1.941 . S
C240 O241 1.258 . S
C240 O242 1.263 . S
O241 Co238 1.970 . S
O241 C240 1.258 . S
O242 Co239 1.966 . S
O242 C240 1.263 . S
C243 O244 1.235 . S
C243 O270 1.289 . S
O244 C243 1.235 . S
C245 C247 1.400 . S
C245 N248 1.351 . S
C245 C250 1.501 . S
C246 C247 1.387 . S
C246 N249 1.341 . S
C247 C245 1.400 . S
C247 C246 1.387 . S
N248 Co239 2.022 . S
N248 C245 1.351 . S
N248 N249 1.365 . S
N249 C246 1.341 . S
N249 N248 1.365 . S
N249 H269 0.862 . S
C250 C245 1.501 . S
C250 H251 0.961 . S
C250 H252 0.961 . S
C250 H253 0.960 . S
H251 C250 0.961 . S
H252 C250 0.961 . S
H253 C250 0.960 . S
C254 N255 1.342 . S
C254 C258 1.401 . S
C254 C259 1.499 . S
N255 Co238 1.989 . S
N255 C254 1.342 . S
N255 N256 1.388 . S
N256 Co239 1.993 . S
N256 N255 1.388 . S
N256 C257 1.346 . S
C257 N256 1.346 . S
C257 C258 1.396 . S
C257 C267 1.510 . S
C258 C254 1.401 . S
C258 C257 1.396 . S
C259 C254 1.499 . S
C259 H260 0.959 . S
C259 H261 0.960 . S
C259 H262 0.961 . S
H260 C259 0.959 . S
H261 C259 0.960 . S
H262 C259 0.961 . S
O263 Co238 1.967 . S
O263 C271 1.258 . S
O264 Co239 1.941 . S
O264 C271 1.266 . S
H265 C267 0.959 . S
H266 C267 0.961 . S
C267 C257 1.510 . S
C267 H265 0.959 . S
C267 H266 0.961 . S
C267 H268 0.960 . S
H268 C267 0.960 . S
H269 N249 0.862 . S
O270 Co238 1.920 . S
O270 C243 1.289 . S
C271 O263 1.258 . S
C271 O264 1.266 . S
Co272 O275 1.970 . S
Co272 N289 1.989 . S
Co272 O297 1.967 1_545 S
Co272 O304 1.920 . S
Co273 O276 1.966 . S
Co273 N282 2.022 . S
Co273 N290 1.993 1_565 S
Co273 O298 1.941 . S
C274 O275 1.258 1_565 S
C274 O276 1.263 . S
O275 Co272 1.970 . S
O275 C274 1.258 1_545 S
O276 Co273 1.966 . S
O276 C274 1.263 . S
C277 O278 1.235 . S
C277 O304 1.289 . S
O278 C277 1.235 . S
C279 C281 1.400 . S
C279 N282 1.351 1_556 S
C279 C284 1.501 . S
C280 C281 1.387 1_554 S
C280 N283 1.341 . S
C281 C279 1.400 . S
C281 C280 1.387 1_556 S
N282 Co273 2.022 . S
N282 C279 1.351 1_554 S
N282 N283 1.365 . S
N283 C280 1.341 . S
N283 N282 1.365 . S
N283 H303 0.862 . S
C284 C279 1.501 . S
C284 H285 0.961 . S
C284 H286 0.961 . S
C284 H287 0.960 . S
H285 C284 0.961 . S
H286 C284 0.961 . S
H287 C284 0.960 . S
C288 N289 1.342 . S
C288 C292 1.401 . S
C288 C293 1.499 . S
N289 Co272 1.989 . S
N289 C288 1.342 . S
N289 N290 1.388 . S
N290 Co273 1.993 1_545 S
N290 N289 1.388 . S
N290 C291 1.346 . S
C291 N290 1.346 . S
C291 C292 1.396 . S
C291 C301 1.510 1_545 S
C292 C288 1.401 . S
C292 C291 1.396 . S
C293 C288 1.499 . S
C293 H294 0.959 . S
C293 H295 0.960 . S
C293 H296 0.961 . S
H294 C293 0.959 . S
H295 C293 0.960 . S
H296 C293 0.961 . S
O297 Co272 1.967 1_565 S
O297 C305 1.258 . S
O298 Co273 1.941 . S
O298 C305 1.266 . S
H299 C301 0.959 . S
H300 C301 0.961 1_545 S
C301 C291 1.510 1_565 S
C301 H299 0.959 . S
C301 H300 0.961 1_565 S
C301 H302 0.960 . S
H302 C301 0.960 . S
H303 N283 0.862 . S
O304 Co272 1.920 . S
O304 C277 1.289 . S
C305 O297 1.258 . S
C305 O298 1.266 . S
Co306 O309 1.970 . S
Co306 N323 1.989 . S
Co306 O331 1.967 . S
Co306 O338 1.920 . S
Co307 O310 1.966 . S
Co307 N316 2.022 . S
Co307 N324 1.993 . S
Co307 O332 1.941 . S
C308 O309 1.258 . S
C308 O310 1.263 . S
O309 Co306 1.970 . S
O309 C308 1.258 . S
O310 Co307 1.966 . S
O310 C308 1.263 . S
C311 O312 1.235 . S
C311 O338 1.289 . S
O312 C311 1.235 . S
C313 C315 1.400 . S
C313 N316 1.351 . S
C313 C318 1.501 . S
C314 C315 1.387 . S
C314 N317 1.341 . S
C315 C313 1.400 . S
C315 C314 1.387 . S
N316 Co307 2.022 . S
N316 C313 1.351 . S
N316 N317 1.365 . S
N317 C314 1.341 . S
N317 N316 1.365 . S
N317 H337 0.862 . S
C318 C313 1.501 . S
C318 H319 0.961 . S
C318 H320 0.961 . S
C318 H321 0.960 . S
H319 C318 0.961 . S
H320 C318 0.961 . S
H321 C318 0.960 . S
C322 N323 1.342 . S
C322 C326 1.401 . S
C322 C327 1.499 . S
N323 Co306 1.989 . S
N323 C322 1.342 . S
N323 N324 1.388 . S
N324 Co307 1.993 . S
N324 N323 1.388 . S
N324 C325 1.346 . S
C325 N324 1.346 . S
C325 C326 1.396 . S
C325 C335 1.510 . S
C326 C322 1.401 . S
C326 C325 1.396 . S
C327 C322 1.499 . S
C327 H328 0.959 . S
C327 H329 0.960 . S
C327 H330 0.961 . S
H328 C327 0.959 . S
H329 C327 0.960 . S
H330 C327 0.961 . S
O331 Co306 1.967 . S
O331 C339 1.258 . S
O332 Co307 1.941 . S
O332 C339 1.266 . S
H333 C335 0.959 . S
H334 C335 0.961 . S
C335 C325 1.510 . S
C335 H333 0.959 . S
C335 H334 0.961 . S
C335 H336 0.960 . S
H336 C335 0.960 . S
H337 N317 0.862 . S
O338 Co306 1.920 . S
O338 C311 1.289 . S
C339 O331 1.258 . S
C339 O332 1.266 . S
Co340 O343 1.970 . S
Co340 N357 1.989 . S
Co340 O365 1.967 1_565 S
Co340 O372 1.920 . S
Co341 O344 1.966 . S
Co341 N350 2.022 . S
Co341 N358 1.993 1_545 S
Co341 O366 1.941 . S
C342 O343 1.225 1_545 S
C342 O344 1.292 . S
O343 Co340 1.970 . S
O343 C342 1.225 1_565 S
O344 Co341 1.966 . S
O344 C342 1.292 . S
C345 O346 1.235 . S
C345 O372 1.289 . S
O346 C345 1.235 . S
C347 C349 1.400 . S
C347 N350 1.351 . S
C347 C352 1.501 . S
C348 C349 1.387 . S
C348 N351 1.341 . S
C349 C347 1.400 . S
C349 C348 1.387 . S
N350 Co341 2.022 . S
N350 C347 1.351 . S
N350 N351 1.365 . S
N351 C348 1.341 . S
N351 N350 1.365 . S
N351 H371 0.862 . S
C352 C347 1.501 . S
C352 H353 0.961 . S
C352 H354 0.961 . S
C352 H355 0.960 . S
H353 C352 0.961 . S
H354 C352 0.961 . S
H355 C352 0.960 . S
C356 N357 1.342 . S
C356 C360 1.401 . S
C356 C361 1.499 . S
N357 Co340 1.989 . S
N357 C356 1.342 . S
N357 N358 1.388 . S
N358 Co341 1.993 1_565 S
N358 N357 1.388 . S
N358 C359 1.346 . S
C359 N358 1.346 . S
C359 C360 1.396 . S
C359 C369 1.510 1_565 S
C360 C356 1.401 . S
C360 C359 1.396 . S
C361 C356 1.499 . S
C361 H362 0.959 . S
C361 H363 0.960 . S
C361 H364 0.961 . S
H362 C361 0.959 . S
H363 C361 0.960 . S
H364 C361 0.961 . S
O365 Co340 1.967 1_545 S
O365 C373 1.258 . S
O366 Co341 1.941 . S
O366 C373 1.266 . S
H367 C369 0.959 . S
H368 C369 0.961 1_565 S
C369 C359 1.510 1_545 S
C369 H367 0.959 . S
C369 H368 0.961 1_545 S
C369 H370 0.960 . S
H370 C369 0.960 . S
H371 N351 0.862 . S
O372 Co340 1.920 . S
O372 C345 1.289 . S
C373 O365 1.258 . S
C373 O366 1.266 . S
Co374 O377 1.970 . S
Co374 N391 1.989 . S
Co374 O399 1.967 . S
Co374 O406 1.920 . S
Co375 O378 1.966 . S
Co375 N384 2.022 . S
Co375 N392 1.993 . S
Co375 O400 1.941 . S
C376 O377 1.258 . S
C376 O378 1.263 . S
O377 Co374 1.970 . S
O377 C376 1.258 . S
O378 Co375 1.966 . S
O378 C376 1.263 . S
C379 O380 1.235 . S
C379 O406 1.289 . S
O380 C379 1.235 . S
C381 C383 1.400 . S
C381 N384 1.351 . S
C381 C386 1.501 . S
C382 C383 1.387 . S
C382 N385 1.341 . S
C383 C381 1.400 . S
C383 C382 1.387 . S
N384 Co375 2.022 . S
N384 C381 1.351 . S
N384 N385 1.365 . S
N385 C382 1.341 . S
N385 N384 1.365 . S
N385 H405 0.862 . S
C386 C381 1.501 . S
C386 H387 0.961 . S
C386 H388 0.961 . S
C386 H389 0.960 . S
H387 C386 0.961 . S
H388 C386 0.961 . S
H389 C386 0.960 . S
C390 N391 1.342 . S
C390 C394 1.401 . S
C390 C395 1.499 . S
N391 Co374 1.989 . S
N391 C390 1.342 . S
N391 N392 1.388 . S
N392 Co375 1.993 . S
N392 N391 1.388 . S
N392 C393 1.346 . S
C393 N392 1.346 . S
C393 C394 1.396 . S
C393 C403 1.510 . S
C394 C390 1.401 . S
C394 C393 1.396 . S
C395 C390 1.499 . S
C395 H396 0.959 . S
C395 H397 0.960 . S
C395 H398 0.961 . S
H396 C395 0.959 . S
H397 C395 0.960 . S
H398 C395 0.961 . S
O399 Co374 1.967 . S
O399 C407 1.258 . S
O400 Co375 1.941 . S
O400 C407 1.266 . S
H401 C403 0.959 . S
H402 C403 0.961 . S
C403 C393 1.510 . S
C403 H401 0.959 . S
C403 H402 0.961 . S
C403 H404 0.960 . S
H404 C403 0.960 . S
H405 N385 0.862 . S
O406 Co374 1.920 . S
O406 C379 1.289 . S
C407 O399 1.258 . S
C407 O400 1.266 . S
Co408 O411 1.970 . S
Co408 N425 1.989 . S
Co408 O433 1.967 1_565 S
Co408 O440 1.920 . S
Co409 O412 1.966 . S
Co409 N418 2.022 . S
Co409 N426 1.993 1_545 S
Co409 O434 1.941 . S
C410 O411 1.225 1_545 S
C410 O412 1.292 . S
O411 Co408 1.970 . S
O411 C410 1.225 1_565 S
O412 Co409 1.966 . S
O412 C410 1.292 . S
C413 O414 1.235 . S
C413 O440 1.289 . S
O414 C413 1.235 . S
C415 C417 1.400 . S
C415 N418 1.351 . S
C415 C420 1.501 . S
C416 C417 1.387 . S
C416 N419 1.341 . S
C417 C415 1.400 . S
C417 C416 1.387 . S
N418 Co409 2.022 . S
N418 C415 1.351 . S
N418 N419 1.365 . S
N419 C416 1.341 . S
N419 N418 1.365 . S
N419 H439 0.862 . S
C420 C415 1.501 . S
C420 H421 0.961 . S
C420 H422 0.961 . S
C420 H423 0.960 . S
H421 C420 0.961 . S
H422 C420 0.961 . S
H423 C420 0.960 . S
C424 N425 1.342 . S
C424 C428 1.401 . S
C424 C429 1.499 . S
N425 Co408 1.989 . S
N425 C424 1.342 . S
N425 N426 1.388 . S
N426 Co409 1.993 1_565 S
N426 N425 1.388 . S
N426 C427 1.346 . S
C427 N426 1.346 . S
C427 C428 1.396 . S
C427 C437 1.510 1_565 S
C428 C424 1.401 . S
C428 C427 1.396 . S
C429 C424 1.499 . S
C429 H430 0.959 . S
C429 H431 0.960 . S
C429 H432 0.961 . S
H430 C429 0.959 . S
H431 C429 0.960 . S
H432 C429 0.961 . S
O433 Co408 1.967 1_545 S
O433 C441 1.258 . S
O434 Co409 1.941 . S
O434 C441 1.266 . S
H435 C437 0.959 . S
H436 C437 0.961 1_565 S
C437 C427 1.510 1_545 S
C437 H435 0.959 . S
C437 H436 0.961 1_545 S
C437 H438 0.960 . S
H438 C437 0.960 . S
H439 N419 0.862 . S
O440 Co408 1.920 . S
O440 C413 1.289 . S
C441 O433 1.258 . S
C441 O434 1.266 . S
Co442 O445 1.970 . S
Co442 N459 1.989 . S
Co442 O467 1.967 . S
Co442 O474 1.920 . S
Co443 O446 1.966 . S
Co443 N452 2.022 . S
Co443 N460 1.993 . S
Co443 O468 1.941 . S
C444 O445 1.258 . S
C444 O446 1.263 . S
O445 Co442 1.970 . S
O445 C444 1.258 . S
O446 Co443 1.966 . S
O446 C444 1.263 . S
C447 O448 1.235 . S
C447 O474 1.289 . S
O448 C447 1.235 . S
C449 C451 1.400 . S
C449 N452 1.351 . S
C449 C454 1.501 . S
C450 C451 1.387 . S
C450 N453 1.341 . S
C451 C449 1.400 . S
C451 C450 1.387 . S
N452 Co443 2.022 . S
N452 C449 1.351 . S
N452 N453 1.365 . S
N453 C450 1.341 . S
N453 N452 1.365 . S
N453 H473 0.862 . S
C454 C449 1.501 . S
C454 H455 0.961 . S
C454 H456 0.961 . S
C454 H457 0.960 . S
H455 C454 0.961 . S
H456 C454 0.961 . S
H457 C454 0.960 . S
C458 N459 1.342 . S
C458 C462 1.401 . S
C458 C463 1.499 . S
N459 Co442 1.989 . S
N459 C458 1.342 . S
N459 N460 1.388 . S
N460 Co443 1.993 . S
N460 N459 1.388 . S
N460 C461 1.346 . S
C461 N460 1.346 . S
C461 C462 1.396 . S
C461 C471 1.510 . S
C462 C458 1.401 . S
C462 C461 1.396 . S
C463 C458 1.499 . S
C463 H464 0.959 . S
C463 H465 0.960 . S
C463 H466 0.961 . S
H464 C463 0.959 . S
H465 C463 0.960 . S
H466 C463 0.961 . S
O467 Co442 1.967 . S
O467 C475 1.258 . S
O468 Co443 1.941 . S
O468 C475 1.266 . S
H469 C471 0.959 . S
H470 C471 0.961 . S
C471 C461 1.510 . S
C471 H469 0.959 . S
C471 H470 0.961 . S
C471 H472 0.960 . S
H472 C471 0.960 . S
H473 N453 0.862 . S
O474 Co442 1.920 . S
O474 C447 1.289 . S
C475 O467 1.258 . S
C475 O468 1.266 . S
Co476 O479 1.970 . S
Co476 N493 1.989 . S
Co476 O501 1.967 1_545 S
Co476 O508 1.920 . S
Co477 O480 1.966 . S
Co477 N486 2.022 . S
Co477 N494 1.993 1_565 S
Co477 O502 1.941 . S
C478 O479 1.258 1_565 S
C478 O480 1.263 . S
O479 Co476 1.970 . S
O479 C478 1.258 1_545 S
O480 Co477 1.966 . S
O480 C478 1.263 . S
C481 O482 1.235 . S
C481 O508 1.289 . S
O482 C481 1.235 . S
C483 C485 1.400 . S
C483 N486 1.351 1_554 S
C483 C488 1.501 . S
C484 C485 1.387 1_556 S
C484 N487 1.341 . S
C485 C483 1.400 . S
C485 C484 1.387 1_554 S
N486 Co477 2.022 . S
N486 C483 1.351 1_556 S
N486 N487 1.365 . S
N487 C484 1.341 . S
N487 N486 1.365 . S
N487 H507 0.862 . S
C488 C483 1.501 . S
C488 H489 0.961 . S
C488 H490 0.961 . S
C488 H491 0.960 . S
H489 C488 0.961 . S
H490 C488 0.961 . S
H491 C488 0.960 . S
C492 N493 1.342 . S
C492 C496 1.401 . S
C492 C497 1.499 . S
N493 Co476 1.989 . S
N493 C492 1.342 . S
N493 N494 1.388 . S
N494 Co477 1.993 1_545 S
N494 N493 1.388 . S
N494 C495 1.346 . S
C495 N494 1.346 . S
C495 C496 1.396 . S
C495 C505 1.510 1_545 S
C496 C492 1.401 . S
C496 C495 1.396 . S
C497 C492 1.499 . S
C497 H498 0.959 . S
C497 H499 0.960 . S
C497 H500 0.961 . S
H498 C497 0.959 . S
H499 C497 0.960 . S
H500 C497 0.961 . S
O501 Co476 1.967 1_565 S
O501 C509 1.258 . S
O502 Co477 1.941 . S
O502 C509 1.266 . S
H503 C505 0.959 . S
H504 C505 0.961 1_545 S
C505 C495 1.510 1_565 S
C505 H503 0.959 . S
C505 H504 0.961 1_565 S
C505 H506 0.960 . S
H506 C505 0.960 . S
H507 N487 0.862 . S
O508 Co476 1.920 . S
O508 C481 1.289 . S
C509 O501 1.258 . S
C509 O502 1.266 . S
Co510 O513 1.970 . S
Co510 N527 1.989 . S
Co510 O535 1.967 . S
Co510 O542 1.920 . S
Co511 O514 1.966 . S
Co511 N520 2.022 . S
Co511 N528 1.993 . S
Co511 O536 1.941 . S
C512 O513 1.258 . S
C512 O514 1.263 . S
O513 Co510 1.970 . S
O513 C512 1.258 . S
O514 Co511 1.966 . S
O514 C512 1.263 . S
C515 O516 1.235 . S
C515 O542 1.289 . S
O516 C515 1.235 . S
C517 C519 1.400 . S
C517 N520 1.351 . S
C517 C522 1.501 . S
C518 C519 1.387 . S
C518 N521 1.341 . S
C519 C517 1.400 . S
C519 C518 1.387 . S
N520 Co511 2.022 . S
N520 C517 1.351 . S
N520 N521 1.365 . S
N521 C518 1.341 . S
N521 N520 1.365 . S
N521 H541 0.862 . S
C522 C517 1.501 . S
C522 H523 0.961 . S
C522 H524 0.961 . S
C522 H525 0.960 . S
H523 C522 0.961 . S
H524 C522 0.961 . S
H525 C522 0.960 . S
C526 N527 1.342 . S
C526 C530 1.401 . S
C526 C531 1.499 . S
N527 Co510 1.989 . S
N527 C526 1.342 . S
N527 N528 1.388 . S
N528 Co511 1.993 . S
N528 N527 1.388 . S
N528 C529 1.346 . S
C529 N528 1.346 . S
C529 C530 1.396 . S
C529 C539 1.510 . S
C530 C526 1.401 . S
C530 C529 1.396 . S
C531 C526 1.499 . S
C531 H532 0.959 . S
C531 H533 0.960 . S
C531 H534 0.961 . S
H532 C531 0.959 . S
H533 C531 0.960 . S
H534 C531 0.961 . S
O535 Co510 1.967 . S
O535 C543 1.258 . S
O536 Co511 1.941 . S
O536 C543 1.266 . S
H537 C539 0.959 . S
H538 C539 0.961 . S
C539 C529 1.510 . S
C539 H537 0.959 . S
C539 H538 0.961 . S
C539 H540 0.960 . S
H540 C539 0.960 . S
H541 N521 0.862 . S
O542 Co510 1.920 . S
O542 C515 1.289 . S
C543 O535 1.258 . S
C543 O536 1.266 . S
Co544 O547 1.970 . S
Co544 N561 1.989 . S
Co544 O569 1.967 1_554 S
Co544 O576 1.920 . S
Co545 O548 1.966 . S
Co545 N554 2.022 . S
Co545 N562 1.993 1_556 S
Co545 O570 1.941 . S
C546 O547 1.258 1_556 S
C546 O548 1.263 . S
O547 Co544 1.970 . S
O547 C546 1.258 1_554 S
O548 Co545 1.966 . S
O548 C546 1.263 . S
C549 O550 1.235 . S
C549 O576 1.289 . S
O550 C549 1.235 . S
C551 C553 1.400 . S
C551 N554 1.351 1_655 S
C551 C556 1.501 . S
C552 C553 1.387 1_455 S
C552 N555 1.341 . S
C553 C551 1.400 . S
C553 C552 1.387 1_655 S
N554 Co545 2.022 . S
N554 C551 1.351 1_455 S
N554 N555 1.365 . S
N555 C552 1.341 . S
N555 N554 1.365 . S
N555 H575 0.862 . S
C556 C551 1.501 . S
C556 H557 0.961 . S
C556 H558 0.961 . S
C556 H559 0.960 . S
H557 C556 0.961 . S
H558 C556 0.961 . S
H559 C556 0.960 . S
C560 N561 1.342 . S
C560 C564 1.401 . S
C560 C565 1.499 . S
N561 Co544 1.989 . S
N561 C560 1.342 . S
N561 N562 1.388 . S
N562 Co545 1.993 1_554 S
N562 N561 1.388 . S
N562 C563 1.346 . S
C563 N562 1.346 . S
C563 C564 1.396 . S
C563 C573 1.510 1_554 S
C564 C560 1.401 . S
C564 C563 1.396 . S
C565 C560 1.499 . S
C565 H566 0.959 . S
C565 H567 0.960 . S
C565 H568 0.961 . S
H566 C565 0.959 . S
H567 C565 0.960 . S
H568 C565 0.961 . S
O569 Co544 1.967 1_556 S
O569 C577 1.258 . S
O570 Co545 1.941 . S
O570 C577 1.266 . S
H571 C573 0.959 . S
H572 C573 0.961 1_554 S
C573 C563 1.510 1_556 S
C573 H571 0.959 . S
C573 H572 0.961 1_556 S
C573 H574 0.960 . S
H574 C573 0.960 . S
H575 N555 0.862 . S
O576 Co544 1.920 . S
O576 C549 1.289 . S
C577 O569 1.258 . S
C577 O570 1.266 . S
Co578 O581 1.970 . S
Co578 N595 1.989 . S
Co578 O603 1.967 1_556 S
Co578 O610 1.920 . S
Co579 O582 1.966 . S
Co579 N588 2.022 . S
Co579 N596 1.993 1_554 S
Co579 O604 1.941 . S
C580 O581 1.225 1_554 S
C580 O582 1.292 . S
O581 Co578 1.970 . S
O581 C580 1.225 1_556 S
O582 Co579 1.966 . S
O582 C580 1.292 . S
C583 O584 1.235 . S
C583 O610 1.289 . S
O584 C583 1.235 . S
C585 C587 1.400 . S
C585 N588 1.351 . S
C585 C590 1.501 . S
C586 C587 1.387 . S
C586 N589 1.341 . S
C587 C585 1.400 . S
C587 C586 1.387 . S
N588 Co579 2.022 . S
N588 C585 1.351 . S
N588 N589 1.365 . S
N589 C586 1.341 . S
N589 N588 1.365 . S
N589 H609 0.862 . S
C590 C585 1.501 . S
C590 H591 0.961 . S
C590 H592 0.961 . S
C590 H593 0.960 . S
H591 C590 0.961 . S
H592 C590 0.961 . S
H593 C590 0.960 . S
C594 N595 1.342 . S
C594 C598 1.401 . S
C594 C599 1.499 . S
N595 Co578 1.989 . S
N595 C594 1.342 . S
N595 N596 1.388 . S
N596 Co579 1.993 1_556 S
N596 N595 1.388 . S
N596 C597 1.346 . S
C597 N596 1.346 . S
C597 C598 1.396 . S
C597 C607 1.510 1_556 S
C598 C594 1.401 . S
C598 C597 1.396 . S
C599 C594 1.499 . S
C599 H600 0.959 . S
C599 H601 0.960 . S
C599 H602 0.961 . S
H600 C599 0.959 . S
H601 C599 0.960 . S
H602 C599 0.961 . S
O603 Co578 1.967 1_554 S
O603 C611 1.258 . S
O604 Co579 1.941 . S
O604 C611 1.266 . S
H605 C607 0.959 . S
H606 C607 0.961 1_556 S
C607 C597 1.510 1_554 S
C607 H605 0.959 . S
C607 H606 0.961 1_554 S
C607 H608 0.960 . S
H608 C607 0.960 . S
H609 N589 0.862 . S
O610 Co578 1.920 . S
O610 C583 1.289 . S
C611 O603 1.258 . S
C611 O604 1.266 . S
Co612 O615 1.970 . S
Co612 N629 1.989 . S
Co612 O637 1.967 . S
Co612 O644 1.920 . S
Co613 O616 1.966 . S
Co613 N622 2.022 . S
Co613 N630 1.993 . S
Co613 O638 1.941 . S
C614 O615 1.258 . S
C614 O616 1.263 . S
O615 Co612 1.970 . S
O615 C614 1.258 . S
O616 Co613 1.966 . S
O616 C614 1.263 . S
C617 O618 1.235 . S
C617 O644 1.289 . S
O618 C617 1.235 . S
C619 C621 1.400 . S
C619 N622 1.351 . S
C619 C624 1.501 . S
C620 C621 1.387 . S
C620 N623 1.341 . S
C621 C619 1.400 . S
C621 C620 1.387 . S
N622 Co613 2.022 . S
N622 C619 1.351 . S
N622 N623 1.365 . S
N623 C620 1.341 . S
N623 N622 1.365 . S
N623 H643 0.862 . S
C624 C619 1.501 . S
C624 H625 0.961 . S
C624 H626 0.961 . S
C624 H627 0.960 . S
H625 C624 0.961 . S
H626 C624 0.961 . S
H627 C624 0.960 . S
C628 N629 1.342 . S
C628 C632 1.401 . S
C628 C633 1.499 . S
N629 Co612 1.989 . S
N629 C628 1.342 . S
N629 N630 1.388 . S
N630 Co613 1.993 . S
N630 N629 1.388 . S
N630 C631 1.346 . S
C631 N630 1.346 . S
C631 C632 1.396 . S
C631 C641 1.510 . S
C632 C628 1.401 . S
C632 C631 1.396 . S
C633 C628 1.499 . S
C633 H634 0.959 . S
C633 H635 0.960 . S
C633 H636 0.961 . S
H634 C633 0.959 . S
H635 C633 0.960 . S
H636 C633 0.961 . S
O637 Co612 1.967 . S
O637 C645 1.258 . S
O638 Co613 1.941 . S
O638 C645 1.266 . S
H639 C641 0.959 . S
H640 C641 0.961 . S
C641 C631 1.510 . S
C641 H639 0.959 . S
C641 H640 0.961 . S
C641 H642 0.960 . S
H642 C641 0.960 . S
H643 N623 0.862 . S
O644 Co612 1.920 . S
O644 C617 1.289 . S
C645 O637 1.258 . S
C645 O638 1.266 . S
Co646 O649 1.970 . S
Co646 N663 1.989 . S
Co646 O671 1.967 . S
Co646 O678 1.920 . S
Co647 O650 1.966 . S
Co647 N656 2.022 . S
Co647 N664 1.993 . S
Co647 O672 1.941 . S
C648 O649 1.258 . S
C648 O650 1.263 . S
O649 Co646 1.970 . S
O649 C648 1.258 . S
O650 Co647 1.966 . S
O650 C648 1.263 . S
C651 O652 1.235 . S
C651 O678 1.289 . S
O652 C651 1.235 . S
C653 C655 1.400 . S
C653 N656 1.351 1_455 S
C653 C658 1.501 . S
C654 C655 1.387 1_655 S
C654 N657 1.341 . S
C655 C653 1.400 . S
C655 C654 1.387 1_455 S
N656 Co647 2.022 . S
N656 C653 1.351 1_655 S
N656 N657 1.365 . S
N657 C654 1.341 . S
N657 N656 1.365 . S
N657 H677 0.862 . S
C658 C653 1.501 . S
C658 H659 0.961 . S
C658 H660 0.961 . S
C658 H661 0.960 . S
H659 C658 0.961 . S
H660 C658 0.961 . S
H661 C658 0.960 . S
C662 N663 1.342 . S
C662 C666 1.401 . S
C662 C667 1.499 . S
N663 Co646 1.989 . S
N663 C662 1.342 . S
N663 N664 1.388 . S
N664 Co647 1.993 . S
N664 N663 1.388 . S
N664 C665 1.346 . S
C665 N664 1.346 . S
C665 C666 1.396 . S
C665 C675 1.510 . S
C666 C662 1.401 . S
C666 C665 1.396 . S
C667 C662 1.499 . S
C667 H668 0.959 . S
C667 H669 0.960 . S
C667 H670 0.961 . S
H668 C667 0.959 . S
H669 C667 0.960 . S
H670 C667 0.961 . S
O671 Co646 1.967 . S
O671 C679 1.258 . S
O672 Co647 1.941 . S
O672 C679 1.266 . S
H673 C675 0.959 . S
H674 C675 0.961 . S
C675 C665 1.510 . S
C675 H673 0.959 . S
C675 H674 0.961 . S
C675 H676 0.960 . S
H676 C675 0.960 . S
H677 N657 0.862 . S
O678 Co646 1.920 . S
O678 C651 1.289 . S
C679 O671 1.258 . S
C679 O672 1.266 . S
Co680 O683 1.970 . S
Co680 N697 1.989 . S
Co680 O705 1.967 . S
Co680 O712 1.920 . S
Co681 O684 1.966 . S
Co681 N690 2.022 . S
Co681 N698 1.993 . S
Co681 O706 1.941 . S
C682 O683 1.258 . S
C682 O684 1.263 . S
O683 Co680 1.970 . S
O683 C682 1.258 . S
O684 Co681 1.966 . S
O684 C682 1.263 . S
C685 O686 1.235 . S
C685 O712 1.289 . S
O686 C685 1.235 . S
C687 C689 1.400 . S
C687 N690 1.351 . S
C687 C692 1.501 . S
C688 C689 1.387 . S
C688 N691 1.341 . S
C689 C687 1.400 . S
C689 C688 1.387 . S
N690 Co681 2.022 . S
N690 C687 1.351 . S
N690 N691 1.365 . S
N691 C688 1.341 . S
N691 N690 1.365 . S
N691 H711 0.862 . S
C692 C687 1.501 . S
C692 H693 0.961 . S
C692 H694 0.961 . S
C692 H695 0.960 . S
H693 C692 0.961 . S
H694 C692 0.961 . S
H695 C692 0.960 . S
C696 N697 1.342 . S
C696 C700 1.401 . S
C696 C701 1.499 . S
N697 Co680 1.989 . S
N697 C696 1.342 . S
N697 N698 1.388 . S
N698 Co681 1.993 . S
N698 N697 1.388 . S
N698 C699 1.346 . S
C699 N698 1.346 . S
C699 C700 1.396 . S
C699 C709 1.510 . S
C700 C696 1.401 . S
C700 C699 1.396 . S
C701 C696 1.499 . S
C701 H702 0.959 . S
C701 H703 0.960 . S
C701 H704 0.961 . S
H702 C701 0.959 . S
H703 C701 0.960 . S
H704 C701 0.961 . S
O705 Co680 1.967 . S
O705 C713 1.258 . S
O706 Co681 1.941 . S
O706 C713 1.266 . S
H707 C709 0.959 . S
H708 C709 0.961 . S
C709 C699 1.510 . S
C709 H707 0.959 . S
C709 H708 0.961 . S
C709 H710 0.960 . S
H710 C709 0.960 . S
H711 N691 0.862 . S
O712 Co680 1.920 . S
O712 C685 1.289 . S
C713 O705 1.258 . S
C713 O706 1.266 . S
Co714 O717 1.970 . S
Co714 N731 1.989 . S
Co714 O739 1.967 . S
Co714 O746 1.920 . S
Co715 O718 1.966 . S
Co715 N724 2.022 . S
Co715 N732 1.993 . S
Co715 O740 1.941 . S
C716 O717 1.258 . S
C716 O718 1.263 . S
O717 Co714 1.970 . S
O717 C716 1.258 . S
O718 Co715 1.966 . S
O718 C716 1.263 . S
C719 O720 1.235 . S
C719 O746 1.289 . S
O720 C719 1.235 . S
C721 C723 1.400 . S
C721 N724 1.351 . S
C721 C726 1.501 . S
C722 C723 1.387 . S
C722 N725 1.341 . S
C723 C721 1.400 . S
C723 C722 1.387 . S
N724 Co715 2.022 . S
N724 C721 1.351 . S
N724 N725 1.365 . S
N725 C722 1.341 . S
N725 N724 1.365 . S
N725 H745 0.862 . S
C726 C721 1.501 . S
C726 H727 0.961 . S
C726 H728 0.961 . S
C726 H729 0.960 . S
H727 C726 0.961 . S
H728 C726 0.961 . S
H729 C726 0.960 . S
C730 N731 1.342 . S
C730 C734 1.401 . S
C730 C735 1.499 . S
N731 Co714 1.989 . S
N731 C730 1.342 . S
N731 N732 1.388 . S
N732 Co715 1.993 . S
N732 N731 1.388 . S
N732 C733 1.346 . S
C733 N732 1.346 . S
C733 C734 1.396 . S
C733 C743 1.510 . S
C734 C730 1.401 . S
C734 C733 1.396 . S
C735 C730 1.499 . S
C735 H736 0.959 . S
C735 H737 0.960 . S
C735 H738 0.961 . S
H736 C735 0.959 . S
H737 C735 0.960 . S
H738 C735 0.961 . S
O739 Co714 1.967 . S
O739 C747 1.258 . S
O740 Co715 1.941 . S
O740 C747 1.266 . S
H741 C743 0.959 . S
H742 C743 0.961 . S
C743 C733 1.510 . S
C743 H741 0.959 . S
C743 H742 0.961 . S
C743 H744 0.960 . S
H744 C743 0.960 . S
H745 N725 0.862 . S
O746 Co714 1.920 . S
O746 C719 1.289 . S
C747 O739 1.258 . S
C747 O740 1.266 . S
Co748 O751 1.970 . S
Co748 N765 1.989 . S
Co748 O773 1.967 . S
Co748 O780 1.920 . S
Co749 O752 1.966 . S
Co749 N758 2.022 . S
Co749 N766 1.993 . S
Co749 O774 1.941 . S
C750 O751 1.258 . S
C750 O752 1.263 . S
O751 Co748 1.970 . S
O751 C750 1.258 . S
O752 Co749 1.966 . S
O752 C750 1.263 . S
C753 O754 1.235 . S
C753 O780 1.289 . S
O754 C753 1.235 . S
C755 C757 1.400 . S
C755 N758 1.351 . S
C755 C760 1.501 . S
C756 C757 1.387 . S
C756 N759 1.341 . S
C757 C755 1.400 . S
C757 C756 1.387 . S
N758 Co749 2.022 . S
N758 C755 1.351 . S
N758 N759 1.365 . S
N759 C756 1.341 . S
N759 N758 1.365 . S
N759 H779 0.862 . S
C760 C755 1.501 . S
C760 H761 0.961 . S
C760 H762 0.961 . S
C760 H763 0.960 . S
H761 C760 0.961 . S
H762 C760 0.961 . S
H763 C760 0.960 . S
C764 N765 1.342 . S
C764 C768 1.401 . S
C764 C769 1.499 . S
N765 Co748 1.989 . S
N765 C764 1.342 . S
N765 N766 1.388 . S
N766 Co749 1.993 . S
N766 N765 1.388 . S
N766 C767 1.346 . S
C767 N766 1.346 . S
C767 C768 1.396 . S
C767 C777 1.510 . S
C768 C764 1.401 . S
C768 C767 1.396 . S
C769 C764 1.499 . S
C769 H770 0.959 . S
C769 H771 0.960 . S
C769 H772 0.961 . S
H770 C769 0.959 . S
H771 C769 0.960 . S
H772 C769 0.961 . S
O773 Co748 1.967 . S
O773 C781 1.258 . S
O774 Co749 1.941 . S
O774 C781 1.266 . S
H775 C777 0.959 . S
H776 C777 0.961 . S
C777 C767 1.510 . S
C777 H775 0.959 . S
C777 H776 0.961 . S
C777 H778 0.960 . S
H778 C777 0.960 . S
H779 N759 0.862 . S
O780 Co748 1.920 . S
O780 C753 1.289 . S
C781 O773 1.258 . S
C781 O774 1.266 . S
Co782 O785 1.970 . S
Co782 N799 1.989 . S
Co782 O807 1.967 . S
Co782 O814 1.920 . S
Co783 O786 1.966 . S
Co783 N792 2.022 . S
Co783 N800 1.993 . S
Co783 O808 1.941 . S
C784 O785 1.258 . S
C784 O786 1.263 . S
O785 Co782 1.970 . S
O785 C784 1.258 . S
O786 Co783 1.966 . S
O786 C784 1.263 . S
C787 O788 1.235 . S
C787 O814 1.289 . S
O788 C787 1.235 . S
C789 C791 1.400 . S
C789 N792 1.351 . S
C789 C794 1.501 . S
C790 C791 1.387 . S
C790 N793 1.341 . S
C791 C789 1.400 . S
C791 C790 1.387 . S
N792 Co783 2.022 . S
N792 C789 1.351 . S
N792 N793 1.365 . S
N793 C790 1.341 . S
N793 N792 1.365 . S
N793 H813 0.862 . S
C794 C789 1.501 . S
C794 H795 0.961 . S
C794 H796 0.961 . S
C794 H797 0.960 . S
H795 C794 0.961 . S
H796 C794 0.961 . S
H797 C794 0.960 . S
C798 N799 1.342 . S
C798 C802 1.401 . S
C798 C803 1.499 . S
N799 Co782 1.989 . S
N799 C798 1.342 . S
N799 N800 1.388 . S
N800 Co783 1.993 . S
N800 N799 1.388 . S
N800 C801 1.346 . S
C801 N800 1.346 . S
C801 C802 1.396 . S
C801 C811 1.510 . S
C802 C798 1.401 . S
C802 C801 1.396 . S
C803 C798 1.499 . S
C803 H804 0.959 . S
C803 H805 0.960 . S
C803 H806 0.961 . S
H804 C803 0.959 . S
H805 C803 0.960 . S
H806 C803 0.961 . S
O807 Co782 1.967 . S
O807 C815 1.258 . S
O808 Co783 1.941 . S
O808 C815 1.266 . S
H809 C811 0.959 . S
H810 C811 0.961 . S
C811 C801 1.510 . S
C811 H809 0.959 . S
C811 H810 0.961 . S
C811 H812 0.960 . S
H812 C811 0.960 . S
H813 N793 0.862 . S
O814 Co782 1.920 . S
O814 C787 1.289 . S
C815 O807 1.258 . S
C815 O808 1.266 . S
Co816 O819 1.970 . S
Co816 N833 1.989 . S
Co816 O841 1.967 . S
Co816 O848 1.920 . S
Co817 O820 1.966 . S
Co817 N826 2.022 . S
Co817 N834 1.993 . S
Co817 O842 1.941 . S
C818 O819 1.258 . S
C818 O820 1.263 . S
O819 Co816 1.970 . S
O819 C818 1.258 . S
O820 Co817 1.966 . S
O820 C818 1.263 . S
C821 O822 1.235 . S
C821 O848 1.289 . S
O822 C821 1.235 . S
C823 C825 1.400 . S
C823 N826 1.351 . S
C823 C828 1.501 . S
C824 C825 1.387 . S
C824 N827 1.341 . S
C825 C823 1.400 . S
C825 C824 1.387 . S
N826 Co817 2.022 . S
N826 C823 1.351 . S
N826 N827 1.365 . S
N827 C824 1.341 . S
N827 N826 1.365 . S
N827 H847 0.862 . S
C828 C823 1.501 . S
C828 H829 0.961 . S
C828 H830 0.961 . S
C828 H831 0.960 . S
H829 C828 0.961 . S
H830 C828 0.961 . S
H831 C828 0.960 . S
C832 N833 1.342 . S
C832 C836 1.401 . S
C832 C837 1.499 . S
N833 Co816 1.989 . S
N833 C832 1.342 . S
N833 N834 1.388 . S
N834 Co817 1.993 . S
N834 N833 1.388 . S
N834 C835 1.346 . S
C835 N834 1.346 . S
C835 C836 1.396 . S
C835 C845 1.510 . S
C836 C832 1.401 . S
C836 C835 1.396 . S
C837 C832 1.499 . S
C837 H838 0.959 . S
C837 H839 0.960 . S
C837 H840 0.961 . S
H838 C837 0.959 . S
H839 C837 0.960 . S
H840 C837 0.961 . S
O841 Co816 1.967 . S
O841 C849 1.258 . S
O842 Co817 1.941 . S
O842 C849 1.266 . S
H843 C845 0.959 . S
H844 C845 0.961 . S
C845 C835 1.510 . S
C845 H843 0.959 . S
C845 H844 0.961 . S
C845 H846 0.960 . S
H846 C845 0.960 . S
H847 N827 0.862 . S
O848 Co816 1.920 . S
O848 C821 1.289 . S
C849 O841 1.258 . S
C849 O842 1.266 . S
Co850 O853 1.970 . S
Co850 N867 1.989 . S
Co850 O875 1.967 . S
Co850 O882 1.920 . S
Co851 O854 1.966 . S
Co851 N860 2.022 . S
Co851 N868 1.993 . S
Co851 O876 1.941 . S
C852 O853 1.258 . S
C852 O854 1.263 . S
O853 Co850 1.970 . S
O853 C852 1.258 . S
O854 Co851 1.966 . S
O854 C852 1.263 . S
C855 O856 1.235 . S
C855 O882 1.289 . S
O856 C855 1.235 . S
C857 C859 1.400 . S
C857 N860 1.351 . S
C857 C862 1.501 . S
C858 C859 1.387 . S
C858 N861 1.341 . S
C859 C857 1.400 . S
C859 C858 1.387 . S
N860 Co851 2.022 . S
N860 C857 1.351 . S
N860 N861 1.365 . S
N861 C858 1.341 . S
N861 N860 1.365 . S
N861 H881 0.862 . S
C862 C857 1.501 . S
C862 H863 0.961 . S
C862 H864 0.961 . S
C862 H865 0.960 . S
H863 C862 0.961 . S
H864 C862 0.961 . S
H865 C862 0.960 . S
C866 N867 1.342 . S
C866 C870 1.401 . S
C866 C871 1.499 . S
N867 Co850 1.989 . S
N867 C866 1.342 . S
N867 N868 1.388 . S
N868 Co851 1.993 . S
N868 N867 1.388 . S
N868 C869 1.346 . S
C869 N868 1.346 . S
C869 C870 1.396 . S
C869 C879 1.510 . S
C870 C866 1.401 . S
C870 C869 1.396 . S
C871 C866 1.499 . S
C871 H872 0.959 . S
C871 H873 0.960 . S
C871 H874 0.961 . S
H872 C871 0.959 . S
H873 C871 0.960 . S
H874 C871 0.961 . S
O875 Co850 1.967 . S
O875 C883 1.258 . S
O876 Co851 1.941 . S
O876 C883 1.266 . S
H877 C879 0.959 . S
H878 C879 0.961 . S
C879 C869 1.510 . S
C879 H877 0.959 . S
C879 H878 0.961 . S
C879 H880 0.960 . S
H880 C879 0.960 . S
H881 N861 0.862 . S
O882 Co850 1.920 . S
O882 C855 1.289 . S
C883 O875 1.258 . S
C883 O876 1.266 . S
Co884 O887 1.970 . S
Co884 N901 1.989 . S
Co884 O909 1.967 1_655 S
Co884 O916 1.920 . S
Co885 O888 1.966 . S
Co885 N894 2.022 . S
Co885 N902 1.993 1_455 S
Co885 O910 1.941 . S
C886 O887 1.225 1_455 S
C886 O888 1.292 . S
O887 Co884 1.970 . S
O887 C886 1.225 1_655 S
O888 Co885 1.966 . S
O888 C886 1.292 . S
C889 O890 1.235 . S
C889 O916 1.289 . S
O890 C889 1.235 . S
C891 C893 1.400 . S
C891 N894 1.351 . S
C891 C896 1.501 . S
C892 C893 1.387 . S
C892 N895 1.341 . S
C893 C891 1.400 . S
C893 C892 1.387 . S
N894 Co885 2.022 . S
N894 C891 1.351 . S
N894 N895 1.365 . S
N895 C892 1.341 . S
N895 N894 1.365 . S
N895 H915 0.862 . S
C896 C891 1.501 . S
C896 H897 0.961 . S
C896 H898 0.961 . S
C896 H899 0.960 . S
H897 C896 0.961 . S
H898 C896 0.961 . S
H899 C896 0.960 . S
C900 N901 1.342 . S
C900 C904 1.401 . S
C900 C905 1.499 . S
N901 Co884 1.989 . S
N901 C900 1.342 . S
N901 N902 1.388 . S
N902 Co885 1.993 1_655 S
N902 N901 1.388 . S
N902 C903 1.346 . S
C903 N902 1.346 . S
C903 C904 1.396 . S
C903 C913 1.510 1_655 S
C904 C900 1.401 . S
C904 C903 1.396 . S
C905 C900 1.499 . S
C905 H906 0.959 . S
C905 H907 0.960 . S
C905 H908 0.961 . S
H906 C905 0.959 . S
H907 C905 0.960 . S
H908 C905 0.961 . S
O909 Co884 1.967 1_455 S
O909 C917 1.258 . S
O910 Co885 1.941 . S
O910 C917 1.266 . S
H911 C913 0.959 . S
H912 C913 0.961 1_655 S
C913 C903 1.510 1_455 S
C913 H911 0.959 . S
C913 H912 0.961 1_455 S
C913 H914 0.960 . S
H914 C913 0.960 . S
H915 N895 0.862 . S
O916 Co884 1.920 . S
O916 C889 1.289 . S
C917 O909 1.258 . S
C917 O910 1.266 . S
Co918 O921 1.970 . S
Co918 N935 1.989 . S
Co918 O943 1.967 . S
Co918 O950 1.920 . S
Co919 O922 1.966 . S
Co919 N928 2.022 . S
Co919 N936 1.993 . S
Co919 O944 1.941 . S
C920 O921 1.258 . S
C920 O922 1.263 . S
O921 Co918 1.970 . S
O921 C920 1.258 . S
O922 Co919 1.966 . S
O922 C920 1.263 . S
C923 O924 1.235 . S
C923 O950 1.289 . S
O924 C923 1.235 . S
C925 C927 1.400 . S
C925 N928 1.351 . S
C925 C930 1.501 . S
C926 C927 1.387 . S
C926 N929 1.341 . S
C927 C925 1.400 . S
C927 C926 1.387 . S
N928 Co919 2.022 . S
N928 C925 1.351 . S
N928 N929 1.365 . S
N929 C926 1.341 . S
N929 N928 1.365 . S
N929 H949 0.862 . S
C930 C925 1.501 . S
C930 H931 0.961 . S
C930 H932 0.961 . S
C930 H933 0.960 . S
H931 C930 0.961 . S
H932 C930 0.961 . S
H933 C930 0.960 . S
C934 N935 1.342 . S
C934 C938 1.401 . S
C934 C939 1.499 . S
N935 Co918 1.989 . S
N935 C934 1.342 . S
N935 N936 1.388 . S
N936 Co919 1.993 . S
N936 N935 1.388 . S
N936 C937 1.346 . S
C937 N936 1.346 . S
C937 C938 1.396 . S
C937 C947 1.510 . S
C938 C934 1.401 . S
C938 C937 1.396 . S
C939 C934 1.499 . S
C939 H940 0.959 . S
C939 H941 0.960 . S
C939 H942 0.961 . S
H940 C939 0.959 . S
H941 C939 0.960 . S
H942 C939 0.961 . S
O943 Co918 1.967 . S
O943 C951 1.258 . S
O944 Co919 1.941 . S
O944 C951 1.266 . S
H945 C947 0.959 . S
H946 C947 0.961 . S
C947 C937 1.510 . S
C947 H945 0.959 . S
C947 H946 0.961 . S
C947 H948 0.960 . S
H948 C947 0.960 . S
H949 N929 0.862 . S
O950 Co918 1.920 . S
O950 C923 1.289 . S
C951 O943 1.258 . S
C951 O944 1.266 . S
Co952 O955 1.970 . S
Co952 N969 1.989 . S
Co952 O977 1.967 . S
Co952 O984 1.920 . S
Co953 O956 1.966 . S
Co953 N962 2.022 . S
Co953 N970 1.993 . S
Co953 O978 1.941 . S
C954 O955 1.258 . S
C954 O956 1.263 . S
O955 Co952 1.970 . S
O955 C954 1.258 . S
O956 Co953 1.966 . S
O956 C954 1.263 . S
C957 O958 1.235 . S
C957 O984 1.289 . S
O958 C957 1.235 . S
C959 C961 1.400 . S
C959 N962 1.351 . S
C959 C964 1.501 . S
C960 C961 1.387 . S
C960 N963 1.341 . S
C961 C959 1.400 . S
C961 C960 1.387 . S
N962 Co953 2.022 . S
N962 C959 1.351 . S
N962 N963 1.365 . S
N963 C960 1.341 . S
N963 N962 1.365 . S
N963 H983 0.862 . S
C964 C959 1.501 . S
C964 H965 0.961 . S
C964 H966 0.961 . S
C964 H967 0.960 . S
H965 C964 0.961 . S
H966 C964 0.961 . S
H967 C964 0.960 . S
C968 N969 1.342 . S
C968 C972 1.401 . S
C968 C973 1.499 . S
N969 Co952 1.989 . S
N969 C968 1.342 . S
N969 N970 1.388 . S
N970 Co953 1.993 . S
N970 N969 1.388 . S
N970 C971 1.346 . S
C971 N970 1.346 . S
C971 C972 1.396 . S
C971 C981 1.510 . S
C972 C968 1.401 . S
C972 C971 1.396 . S
C973 C968 1.499 . S
C973 H974 0.959 . S
C973 H975 0.960 . S
C973 H976 0.961 . S
H974 C973 0.959 . S
H975 C973 0.960 . S
H976 C973 0.961 . S
O977 Co952 1.967 . S
O977 C985 1.258 . S
O978 Co953 1.941 . S
O978 C985 1.266 . S
H979 C981 0.959 . S
H980 C981 0.961 . S
C981 C971 1.510 . S
C981 H979 0.959 . S
C981 H980 0.961 . S
C981 H982 0.960 . S
H982 C981 0.960 . S
H983 N963 0.862 . S
O984 Co952 1.920 . S
O984 C957 1.289 . S
C985 O977 1.258 . S
C985 O978 1.266 . S
Co986 O989 1.970 . S
Co986 N1003 1.989 . S
Co986 O1011 1.967 . S
Co986 O1018 1.920 . S
Co987 O990 1.966 . S
Co987 N996 2.022 . S
Co987 N1004 1.993 . S
Co987 O1012 1.941 . S
C988 O989 1.258 . S
C988 O990 1.263 . S
O989 Co986 1.970 . S
O989 C988 1.258 . S
O990 Co987 1.966 . S
O990 C988 1.263 . S
C991 O992 1.235 . S
C991 O1018 1.289 . S
O992 C991 1.235 . S
C993 C995 1.400 . S
C993 N996 1.351 . S
C993 C998 1.501 . S
C994 C995 1.387 . S
C994 N997 1.341 . S
C995 C993 1.400 . S
C995 C994 1.387 . S
N996 Co987 2.022 . S
N996 C993 1.351 . S
N996 N997 1.365 . S
N997 C994 1.341 . S
N997 N996 1.365 . S
N997 H1017 0.862 . S
C998 C993 1.501 . S
C998 H999 0.961 . S
C998 H1000 0.961 . S
C998 H1001 0.960 . S
H999 C998 0.961 . S
H1000 C998 0.961 . S
H1001 C998 0.960 . S
C1002 N1003 1.342 . S
C1002 C1006 1.401 . S
C1002 C1007 1.499 . S
N1003 Co986 1.989 . S
N1003 C1002 1.342 . S
N1003 N1004 1.388 . S
N1004 Co987 1.993 . S
N1004 N1003 1.388 . S
N1004 C1005 1.346 . S
C1005 N1004 1.346 . S
C1005 C1006 1.396 . S
C1005 C1015 1.510 . S
C1006 C1002 1.401 . S
C1006 C1005 1.396 . S
C1007 C1002 1.499 . S
C1007 H1008 0.959 . S
C1007 H1009 0.960 . S
C1007 H1010 0.961 . S
H1008 C1007 0.959 . S
H1009 C1007 0.960 . S
H1010 C1007 0.961 . S
O1011 Co986 1.967 . S
O1011 C1019 1.258 . S
O1012 Co987 1.941 . S
O1012 C1019 1.266 . S
H1013 C1015 0.959 . S
H1014 C1015 0.961 . S
C1015 C1005 1.510 . S
C1015 H1013 0.959 . S
C1015 H1014 0.961 . S
C1015 H1016 0.960 . S
H1016 C1015 0.960 . S
H1017 N997 0.862 . S
O1018 Co986 1.920 . S
O1018 C991 1.289 . S
C1019 O1011 1.258 . S
C1019 O1012 1.266 . S
Co1020 O1023 1.970 . S
Co1020 N1037 1.989 . S
Co1020 O1045 1.967 1_655 S
Co1020 O1052 1.920 . S
Co1021 O1024 1.966 . S
Co1021 N1030 2.022 . S
Co1021 N1038 1.993 1_455 S
Co1021 O1046 1.941 . S
C1022 O1023 1.225 1_455 S
C1022 O1024 1.292 . S
O1023 Co1020 1.970 . S
O1023 C1022 1.225 1_655 S
O1024 Co1021 1.966 . S
O1024 C1022 1.292 . S
C1025 O1026 1.235 . S
C1025 O1052 1.289 . S
O1026 C1025 1.235 . S
C1027 C1029 1.400 . S
C1027 N1030 1.351 . S
C1027 C1032 1.501 . S
C1028 C1029 1.387 . S
C1028 N1031 1.341 . S
C1029 C1027 1.400 . S
C1029 C1028 1.387 . S
N1030 Co1021 2.022 . S
N1030 C1027 1.351 . S
N1030 N1031 1.365 . S
N1031 C1028 1.341 . S
N1031 N1030 1.365 . S
N1031 H1051 0.862 . S
C1032 C1027 1.501 . S
C1032 H1033 0.961 . S
C1032 H1034 0.961 . S
C1032 H1035 0.960 . S
H1033 C1032 0.961 . S
H1034 C1032 0.961 . S
H1035 C1032 0.960 . S
C1036 N1037 1.342 . S
C1036 C1040 1.401 . S
C1036 C1041 1.499 . S
N1037 Co1020 1.989 . S
N1037 C1036 1.342 . S
N1037 N1038 1.388 . S
N1038 Co1021 1.993 1_655 S
N1038 N1037 1.388 . S
N1038 C1039 1.346 . S
C1039 N1038 1.346 . S
C1039 C1040 1.396 . S
C1039 C1049 1.510 1_655 S
C1040 C1036 1.401 . S
C1040 C1039 1.396 . S
C1041 C1036 1.499 . S
C1041 H1042 0.959 . S
C1041 H1043 0.960 . S
C1041 H1044 0.961 . S
H1042 C1041 0.959 . S
H1043 C1041 0.960 . S
H1044 C1041 0.961 . S
O1045 Co1020 1.967 1_455 S
O1045 C1053 1.258 . S
O1046 Co1021 1.941 . S
O1046 C1053 1.266 . S
H1047 C1049 0.959 . S
H1048 C1049 0.961 1_655 S
C1049 C1039 1.510 1_455 S
C1049 H1047 0.959 . S
C1049 H1048 0.961 1_455 S
C1049 H1050 0.960 . S
H1050 C1049 0.960 . S
H1051 N1031 0.862 . S
O1052 Co1020 1.920 . S
O1052 C1025 1.289 . S
C1053 O1045 1.258 . S
C1053 O1046 1.266 . S
Co1054 O1057 1.970 . S
Co1054 N1071 1.989 . S
Co1054 O1079 1.967 . S
Co1054 O1086 1.920 . S
Co1055 O1058 1.966 . S
Co1055 N1064 2.022 . S
Co1055 N1072 1.993 . S
Co1055 O1080 1.941 . S
C1056 O1057 1.258 . S
C1056 O1058 1.263 . S
O1057 Co1054 1.970 . S
O1057 C1056 1.258 . S
O1058 Co1055 1.966 . S
O1058 C1056 1.263 . S
C1059 O1060 1.235 . S
C1059 O1086 1.289 . S
O1060 C1059 1.235 . S
C1061 C1063 1.400 . S
C1061 N1064 1.351 . S
C1061 C1066 1.501 . S
C1062 C1063 1.387 . S
C1062 N1065 1.341 . S
C1063 C1061 1.400 . S
C1063 C1062 1.387 . S
N1064 Co1055 2.022 . S
N1064 C1061 1.351 . S
N1064 N1065 1.365 . S
N1065 C1062 1.341 . S
N1065 N1064 1.365 . S
N1065 H1085 0.862 . S
C1066 C1061 1.501 . S
C1066 H1067 0.961 . S
C1066 H1068 0.961 . S
C1066 H1069 0.960 . S
H1067 C1066 0.961 . S
H1068 C1066 0.961 . S
H1069 C1066 0.960 . S
C1070 N1071 1.342 . S
C1070 C1074 1.401 . S
C1070 C1075 1.499 . S
N1071 Co1054 1.989 . S
N1071 C1070 1.342 . S
N1071 N1072 1.388 . S
N1072 Co1055 1.993 . S
N1072 N1071 1.388 . S
N1072 C1073 1.346 . S
C1073 N1072 1.346 . S
C1073 C1074 1.396 . S
C1073 C1083 1.510 . S
C1074 C1070 1.401 . S
C1074 C1073 1.396 . S
C1075 C1070 1.499 . S
C1075 H1076 0.959 . S
C1075 H1077 0.960 . S
C1075 H1078 0.961 . S
H1076 C1075 0.959 . S
H1077 C1075 0.960 . S
H1078 C1075 0.961 . S
O1079 Co1054 1.967 . S
O1079 C1087 1.258 . S
O1080 Co1055 1.941 . S
O1080 C1087 1.266 . S
H1081 C1083 0.959 . S
H1082 C1083 0.961 . S
C1083 C1073 1.510 . S
C1083 H1081 0.959 . S
C1083 H1082 0.961 . S
C1083 H1084 0.960 . S
H1084 C1083 0.960 . S
H1085 N1065 0.862 . S
O1086 Co1054 1.920 . S
O1086 C1059 1.289 . S
C1087 O1079 1.258 . S
C1087 O1080 1.266 . S
Co1088 O1091 1.970 . S
Co1088 N1105 1.989 . S
Co1088 O1113 1.967 . S
Co1088 O1120 1.920 . S
Co1089 O1092 1.966 . S
Co1089 N1098 2.022 . S
Co1089 N1106 1.993 . S
Co1089 O1114 1.941 . S
C1090 O1091 1.258 . S
C1090 O1092 1.263 . S
O1091 Co1088 1.970 . S
O1091 C1090 1.258 . S
O1092 Co1089 1.966 . S
O1092 C1090 1.263 . S
C1093 O1094 1.235 . S
C1093 O1120 1.289 . S
O1094 C1093 1.235 . S
C1095 C1097 1.400 . S
C1095 N1098 1.351 . S
C1095 C1100 1.501 . S
C1096 C1097 1.387 . S
C1096 N1099 1.341 . S
C1097 C1095 1.400 . S
C1097 C1096 1.387 . S
N1098 Co1089 2.022 . S
N1098 C1095 1.351 . S
N1098 N1099 1.365 . S
N1099 C1096 1.341 . S
N1099 N1098 1.365 . S
N1099 H1119 0.862 . S
C1100 C1095 1.501 . S
C1100 H1101 0.961 . S
C1100 H1102 0.961 . S
C1100 H1103 0.960 . S
H1101 C1100 0.961 . S
H1102 C1100 0.961 . S
H1103 C1100 0.960 . S
C1104 N1105 1.342 . S
C1104 C1108 1.401 . S
C1104 C1109 1.499 . S
N1105 Co1088 1.989 . S
N1105 C1104 1.342 . S
N1105 N1106 1.388 . S
N1106 Co1089 1.993 . S
N1106 N1105 1.388 . S
N1106 C1107 1.346 . S
C1107 N1106 1.346 . S
C1107 C1108 1.396 . S
C1107 C1117 1.510 . S
C1108 C1104 1.401 . S
C1108 C1107 1.396 . S
C1109 C1104 1.499 . S
C1109 H1110 0.959 . S
C1109 H1111 0.960 . S
C1109 H1112 0.961 . S
H1110 C1109 0.959 . S
H1111 C1109 0.960 . S
H1112 C1109 0.961 . S
O1113 Co1088 1.967 . S
O1113 C1121 1.258 . S
O1114 Co1089 1.941 . S
O1114 C1121 1.266 . S
H1115 C1117 0.959 . S
H1116 C1117 0.961 . S
C1117 C1107 1.510 . S
C1117 H1115 0.959 . S
C1117 H1116 0.961 . S
C1117 H1118 0.960 . S
H1118 C1117 0.960 . S
H1119 N1099 0.862 . S
O1120 Co1088 1.920 . S
O1120 C1093 1.289 . S
C1121 O1113 1.258 . S
C1121 O1114 1.266 . S
Co1122 O1125 1.970 . S
Co1122 N1139 1.989 . S
Co1122 O1147 1.967 . S
Co1122 O1154 1.920 . S
Co1123 O1126 1.966 . S
Co1123 N1132 2.022 . S
Co1123 N1140 1.993 . S
Co1123 O1148 1.941 . S
C1124 O1125 1.258 . S
C1124 O1126 1.263 . S
O1125 Co1122 1.970 . S
O1125 C1124 1.258 . S
O1126 Co1123 1.966 . S
O1126 C1124 1.263 . S
C1127 O1128 1.235 . S
C1127 O1154 1.289 . S
O1128 C1127 1.235 . S
C1129 C1131 1.400 . S
C1129 N1132 1.351 . S
C1129 C1134 1.501 . S
C1130 C1131 1.387 . S
C1130 N1133 1.341 . S
C1131 C1129 1.400 . S
C1131 C1130 1.387 . S
N1132 Co1123 2.022 . S
N1132 C1129 1.351 . S
N1132 N1133 1.365 . S
N1133 C1130 1.341 . S
N1133 N1132 1.365 . S
N1133 H1153 0.862 . S
C1134 C1129 1.501 . S
C1134 H1135 0.961 . S
C1134 H1136 0.961 . S
C1134 H1137 0.960 . S
H1135 C1134 0.961 . S
H1136 C1134 0.961 . S
H1137 C1134 0.960 . S
C1138 N1139 1.342 . S
C1138 C1142 1.401 . S
C1138 C1143 1.499 . S
N1139 Co1122 1.989 . S
N1139 C1138 1.342 . S
N1139 N1140 1.388 . S
N1140 Co1123 1.993 . S
N1140 N1139 1.388 . S
N1140 C1141 1.346 . S
C1141 N1140 1.346 . S
C1141 C1142 1.396 . S
C1141 C1151 1.510 . S
C1142 C1138 1.401 . S
C1142 C1141 1.396 . S
C1143 C1138 1.499 . S
C1143 H1144 0.959 . S
C1143 H1145 0.960 . S
C1143 H1146 0.961 . S
H1144 C1143 0.959 . S
H1145 C1143 0.960 . S
H1146 C1143 0.961 . S
O1147 Co1122 1.967 . S
O1147 C1155 1.258 . S
O1148 Co1123 1.941 . S
O1148 C1155 1.266 . S
H1149 C1151 0.959 . S
H1150 C1151 0.961 . S
C1151 C1141 1.510 . S
C1151 H1149 0.959 . S
C1151 H1150 0.961 . S
C1151 H1152 0.960 . S
H1152 C1151 0.960 . S
H1153 N1133 0.862 . S
O1154 Co1122 1.920 . S
O1154 C1127 1.289 . S
C1155 O1147 1.258 . S
C1155 O1148 1.266 . S
Co1156 O1159 1.970 . S
Co1156 N1173 1.989 . S
Co1156 O1181 1.967 . S
Co1156 O1188 1.920 . S
Co1157 O1160 1.966 . S
Co1157 N1166 2.022 . S
Co1157 N1174 1.993 . S
Co1157 O1182 1.941 . S
C1158 O1159 1.258 . S
C1158 O1160 1.263 . S
O1159 Co1156 1.970 . S
O1159 C1158 1.258 . S
O1160 Co1157 1.966 . S
O1160 C1158 1.263 . S
C1161 O1162 1.235 . S
C1161 O1188 1.289 . S
O1162 C1161 1.235 . S
C1163 C1165 1.400 . S
C1163 N1166 1.351 1_556 S
C1163 C1168 1.501 . S
C1164 C1165 1.387 1_554 S
C1164 N1167 1.341 . S
C1165 C1163 1.400 . S
C1165 C1164 1.387 1_556 S
N1166 Co1157 2.022 . S
N1166 C1163 1.351 1_554 S
N1166 N1167 1.365 . S
N1167 C1164 1.341 . S
N1167 N1166 1.365 . S
N1167 H1187 0.862 . S
C1168 C1163 1.501 . S
C1168 H1169 0.961 . S
C1168 H1170 0.961 . S
C1168 H1171 0.960 . S
H1169 C1168 0.961 . S
H1170 C1168 0.961 . S
H1171 C1168 0.960 . S
C1172 N1173 1.342 . S
C1172 C1176 1.401 . S
C1172 C1177 1.499 . S
N1173 Co1156 1.989 . S
N1173 C1172 1.342 . S
N1173 N1174 1.388 . S
N1174 Co1157 1.993 . S
N1174 N1173 1.388 . S
N1174 C1175 1.346 . S
C1175 N1174 1.346 . S
C1175 C1176 1.396 . S
C1175 C1185 1.510 . S
C1176 C1172 1.401 . S
C1176 C1175 1.396 . S
C1177 C1172 1.499 . S
C1177 H1178 0.959 . S
C1177 H1179 0.960 . S
C1177 H1180 0.961 . S
H1178 C1177 0.959 . S
H1179 C1177 0.960 . S
H1180 C1177 0.961 . S
O1181 Co1156 1.967 . S
O1181 C1189 1.258 . S
O1182 Co1157 1.941 . S
O1182 C1189 1.266 . S
H1183 C1185 0.959 . S
H1184 C1185 0.961 . S
C1185 C1175 1.510 . S
C1185 H1183 0.959 . S
C1185 H1184 0.961 . S
C1185 H1186 0.960 . S
H1186 C1185 0.960 . S
H1187 N1167 0.862 . S
O1188 Co1156 1.920 . S
O1188 C1161 1.289 . S
C1189 O1181 1.258 . S
C1189 O1182 1.266 . S
Co1190 O1193 1.970 . S
Co1190 N1207 1.989 . S
Co1190 O1215 1.967 . S
Co1190 O1222 1.920 . S
Co1191 O1194 1.966 . S
Co1191 N1200 2.022 . S
Co1191 N1208 1.993 . S
Co1191 O1216 1.941 . S
C1192 O1193 1.258 . S
C1192 O1194 1.263 . S
O1193 Co1190 1.970 . S
O1193 C1192 1.258 . S
O1194 Co1191 1.966 . S
O1194 C1192 1.263 . S
C1195 O1196 1.235 . S
C1195 O1222 1.289 . S
O1196 C1195 1.235 . S
C1197 C1199 1.400 . S
C1197 N1200 1.351 . S
C1197 C1202 1.501 . S
C1198 C1199 1.387 . S
C1198 N1201 1.341 . S
C1199 C1197 1.400 . S
C1199 C1198 1.387 . S
N1200 Co1191 2.022 . S
N1200 C1197 1.351 . S
N1200 N1201 1.365 . S
N1201 C1198 1.341 . S
N1201 N1200 1.365 . S
N1201 H1221 0.862 . S
C1202 C1197 1.501 . S
C1202 H1203 0.961 . S
C1202 H1204 0.961 . S
C1202 H1205 0.960 . S
H1203 C1202 0.961 . S
H1204 C1202 0.961 . S
H1205 C1202 0.960 . S
C1206 N1207 1.342 . S
C1206 C1210 1.401 . S
C1206 C1211 1.499 . S
N1207 Co1190 1.989 . S
N1207 C1206 1.342 . S
N1207 N1208 1.388 . S
N1208 Co1191 1.993 . S
N1208 N1207 1.388 . S
N1208 C1209 1.346 . S
C1209 N1208 1.346 . S
C1209 C1210 1.396 . S
C1209 C1219 1.510 . S
C1210 C1206 1.401 . S
C1210 C1209 1.396 . S
C1211 C1206 1.499 . S
C1211 H1212 0.959 . S
C1211 H1213 0.960 . S
C1211 H1214 0.961 . S
H1212 C1211 0.959 . S
H1213 C1211 0.960 . S
H1214 C1211 0.961 . S
O1215 Co1190 1.967 . S
O1215 C1223 1.258 . S
O1216 Co1191 1.941 . S
O1216 C1223 1.266 . S
H1217 C1219 0.959 . S
H1218 C1219 0.961 . S
C1219 C1209 1.510 . S
C1219 H1217 0.959 . S
C1219 H1218 0.961 . S
C1219 H1220 0.960 . S
H1220 C1219 0.960 . S
H1221 N1201 0.862 . S
O1222 Co1190 1.920 . S
O1222 C1195 1.289 . S
C1223 O1215 1.258 . S
C1223 O1216 1.266 . S
Co1224 O1227 1.970 . S
Co1224 N1241 1.989 . S
Co1224 O1249 1.967 . S
Co1224 O1256 1.920 . S
Co1225 O1228 1.966 . S
Co1225 N1234 2.022 . S
Co1225 N1242 1.993 . S
Co1225 O1250 1.941 . S
C1226 O1227 1.258 . S
C1226 O1228 1.263 . S
O1227 Co1224 1.970 . S
O1227 C1226 1.258 . S
O1228 Co1225 1.966 . S
O1228 C1226 1.263 . S
C1229 O1230 1.235 . S
C1229 O1256 1.289 . S
O1230 C1229 1.235 . S
C1231 C1233 1.400 . S
C1231 N1234 1.351 1_554 S
C1231 C1236 1.501 . S
C1232 C1233 1.387 1_556 S
C1232 N1235 1.341 . S
C1233 C1231 1.400 . S
C1233 C1232 1.387 1_554 S
N1234 Co1225 2.022 . S
N1234 C1231 1.351 1_556 S
N1234 N1235 1.365 . S
N1235 C1232 1.341 . S
N1235 N1234 1.365 . S
N1235 H1255 0.862 . S
C1236 C1231 1.501 . S
C1236 H1237 0.961 . S
C1236 H1238 0.961 . S
C1236 H1239 0.960 . S
H1237 C1236 0.961 . S
H1238 C1236 0.961 . S
H1239 C1236 0.960 . S
C1240 N1241 1.342 . S
C1240 C1244 1.401 . S
C1240 C1245 1.499 . S
N1241 Co1224 1.989 . S
N1241 C1240 1.342 . S
N1241 N1242 1.388 . S
N1242 Co1225 1.993 . S
N1242 N1241 1.388 . S
N1242 C1243 1.346 . S
C1243 N1242 1.346 . S
C1243 C1244 1.396 . S
C1243 C1253 1.510 . S
C1244 C1240 1.401 . S
C1244 C1243 1.396 . S
C1245 C1240 1.499 . S
C1245 H1246 0.959 . S
C1245 H1247 0.960 . S
C1245 H1248 0.961 . S
H1246 C1245 0.959 . S
H1247 C1245 0.960 . S
H1248 C1245 0.961 . S
O1249 Co1224 1.967 . S
O1249 C1257 1.258 . S
O1250 Co1225 1.941 . S
O1250 C1257 1.266 . S
H1251 C1253 0.959 . S
H1252 C1253 0.961 . S
C1253 C1243 1.510 . S
C1253 H1251 0.959 . S
C1253 H1252 0.961 . S
C1253 H1254 0.960 . S
H1254 C1253 0.960 . S
H1255 N1235 0.862 . S
O1256 Co1224 1.920 . S
O1256 C1229 1.289 . S
C1257 O1249 1.258 . S
C1257 O1250 1.266 . S
Co1258 O1261 1.970 . S
Co1258 N1275 1.989 . S
Co1258 O1283 1.967 . S
Co1258 O1290 1.920 . S
Co1259 O1262 1.966 . S
Co1259 N1268 2.022 . S
Co1259 N1276 1.993 . S
Co1259 O1284 1.941 . S
C1260 O1261 1.258 . S
C1260 O1262 1.263 . S
O1261 Co1258 1.970 . S
O1261 C1260 1.258 . S
O1262 Co1259 1.966 . S
O1262 C1260 1.263 . S
C1263 O1264 1.235 . S
C1263 O1290 1.289 . S
O1264 C1263 1.235 . S
C1265 C1267 1.400 . S
C1265 N1268 1.351 . S
C1265 C1270 1.501 . S
C1266 C1267 1.387 . S
C1266 N1269 1.341 . S
C1267 C1265 1.400 . S
C1267 C1266 1.387 . S
N1268 Co1259 2.022 . S
N1268 C1265 1.351 . S
N1268 N1269 1.365 . S
N1269 C1266 1.341 . S
N1269 N1268 1.365 . S
N1269 H1289 0.862 . S
C1270 C1265 1.501 . S
C1270 H1271 0.961 . S
C1270 H1272 0.961 . S
C1270 H1273 0.960 . S
H1271 C1270 0.961 . S
H1272 C1270 0.961 . S
H1273 C1270 0.960 . S
C1274 N1275 1.342 . S
C1274 C1278 1.401 . S
C1274 C1279 1.499 . S
N1275 Co1258 1.989 . S
N1275 C1274 1.342 . S
N1275 N1276 1.388 . S
N1276 Co1259 1.993 . S
N1276 N1275 1.388 . S
N1276 C1277 1.346 . S
C1277 N1276 1.346 . S
C1277 C1278 1.396 . S
C1277 C1287 1.510 . S
C1278 C1274 1.401 . S
C1278 C1277 1.396 . S
C1279 C1274 1.499 . S
C1279 H1280 0.959 . S
C1279 H1281 0.960 . S
C1279 H1282 0.961 . S
H1280 C1279 0.959 . S
H1281 C1279 0.960 . S
H1282 C1279 0.961 . S
O1283 Co1258 1.967 . S
O1283 C1291 1.258 . S
O1284 Co1259 1.941 . S
O1284 C1291 1.266 . S
H1285 C1287 0.959 . S
H1286 C1287 0.961 . S
C1287 C1277 1.510 . S
C1287 H1285 0.959 . S
C1287 H1286 0.961 . S
C1287 H1288 0.960 . S
H1288 C1287 0.960 . S
H1289 N1269 0.862 . S
O1290 Co1258 1.920 . S
O1290 C1263 1.289 . S
C1291 O1283 1.258 . S
C1291 O1284 1.266 . S
Co1292 O1295 1.970 . S
Co1292 N1309 1.989 . S
Co1292 O1317 1.967 . S
Co1292 O1324 1.920 . S
Co1293 O1296 1.966 . S
Co1293 N1302 2.022 . S
Co1293 N1310 1.993 . S
Co1293 O1318 1.941 . S
C1294 O1295 1.258 . S
C1294 O1296 1.263 . S
O1295 Co1292 1.970 . S
O1295 C1294 1.258 . S
O1296 Co1293 1.966 . S
O1296 C1294 1.263 . S
C1297 O1298 1.235 . S
C1297 O1324 1.289 . S
O1298 C1297 1.235 . S
C1299 C1301 1.400 . S
C1299 N1302 1.351 . S
C1299 C1304 1.501 . S
C1300 C1301 1.387 . S
C1300 N1303 1.341 . S
C1301 C1299 1.400 . S
C1301 C1300 1.387 . S
N1302 Co1293 2.022 . S
N1302 C1299 1.351 . S
N1302 N1303 1.365 . S
N1303 C1300 1.341 . S
N1303 N1302 1.365 . S
N1303 H1323 0.862 . S
C1304 C1299 1.501 . S
C1304 H1305 0.961 . S
C1304 H1306 0.961 . S
C1304 H1307 0.960 . S
H1305 C1304 0.961 . S
H1306 C1304 0.961 . S
H1307 C1304 0.960 . S
C1308 N1309 1.342 . S
C1308 C1312 1.401 . S
C1308 C1313 1.499 . S
N1309 Co1292 1.989 . S
N1309 C1308 1.342 . S
N1309 N1310 1.388 . S
N1310 Co1293 1.993 . S
N1310 N1309 1.388 . S
N1310 C1311 1.346 . S
C1311 N1310 1.346 . S
C1311 C1312 1.396 . S
C1311 C1321 1.510 . S
C1312 C1308 1.401 . S
C1312 C1311 1.396 . S
C1313 C1308 1.499 . S
C1313 H1314 0.959 . S
C1313 H1315 0.960 . S
C1313 H1316 0.961 . S
H1314 C1313 0.959 . S
H1315 C1313 0.960 . S
H1316 C1313 0.961 . S
O1317 Co1292 1.967 . S
O1317 C1325 1.258 . S
O1318 Co1293 1.941 . S
O1318 C1325 1.266 . S
H1319 C1321 0.959 . S
H1320 C1321 0.961 . S
C1321 C1311 1.510 . S
C1321 H1319 0.959 . S
C1321 H1320 0.961 . S
C1321 H1322 0.960 . S
H1322 C1321 0.960 . S
H1323 N1303 0.862 . S
O1324 Co1292 1.920 . S
O1324 C1297 1.289 . S
C1325 O1317 1.258 . S
C1325 O1318 1.266 . S
Co1326 O1329 1.970 . S
Co1326 N1343 1.989 . S
Co1326 O1351 1.967 . S
Co1326 O1358 1.920 . S
Co1327 O1330 1.966 . S
Co1327 N1336 2.022 . S
Co1327 N1344 1.993 . S
Co1327 O1352 1.941 . S
C1328 O1329 1.258 . S
C1328 O1330 1.263 . S
O1329 Co1326 1.970 . S
O1329 C1328 1.258 . S
O1330 Co1327 1.966 . S
O1330 C1328 1.263 . S
C1331 O1332 1.235 . S
C1331 O1358 1.289 . S
O1332 C1331 1.235 . S
C1333 C1335 1.400 . S
C1333 N1336 1.351 . S
C1333 C1338 1.501 . S
C1334 C1335 1.387 . S
C1334 N1337 1.341 . S
C1335 C1333 1.400 . S
C1335 C1334 1.387 . S
N1336 Co1327 2.022 . S
N1336 C1333 1.351 . S
N1336 N1337 1.365 . S
N1337 C1334 1.341 . S
N1337 N1336 1.365 . S
N1337 H1357 0.862 . S
C1338 C1333 1.501 . S
C1338 H1339 0.961 . S
C1338 H1340 0.961 . S
C1338 H1341 0.960 . S
H1339 C1338 0.961 . S
H1340 C1338 0.961 . S
H1341 C1338 0.960 . S
C1342 N1343 1.342 . S
C1342 C1346 1.401 . S
C1342 C1347 1.499 . S
N1343 Co1326 1.989 . S
N1343 C1342 1.342 . S
N1343 N1344 1.388 . S
N1344 Co1327 1.993 . S
N1344 N1343 1.388 . S
N1344 C1345 1.346 . S
C1345 N1344 1.346 . S
C1345 C1346 1.396 . S
C1345 C1355 1.510 . S
C1346 C1342 1.401 . S
C1346 C1345 1.396 . S
C1347 C1342 1.499 . S
C1347 H1348 0.959 . S
C1347 H1349 0.960 . S
C1347 H1350 0.961 . S
H1348 C1347 0.959 . S
H1349 C1347 0.960 . S
H1350 C1347 0.961 . S
O1351 Co1326 1.967 . S
O1351 C1359 1.258 . S
O1352 Co1327 1.941 . S
O1352 C1359 1.266 . S
H1353 C1355 0.959 . S
H1354 C1355 0.961 . S
C1355 C1345 1.510 . S
C1355 H1353 0.959 . S
C1355 H1354 0.961 . S
C1355 H1356 0.960 . S
H1356 C1355 0.960 . S
H1357 N1337 0.862 . S
O1358 Co1326 1.920 . S
O1358 C1331 1.289 . S
C1359 O1351 1.258 . S
C1359 O1352 1.266 . S
Co1360 O1363 1.970 . S
Co1360 N1377 1.989 . S
Co1360 O1385 1.967 . S
Co1360 O1392 1.920 . S
Co1361 O1364 1.966 . S
Co1361 N1370 2.022 . S
Co1361 N1378 1.993 . S
Co1361 O1386 1.941 . S
C1362 O1363 1.258 . S
C1362 O1364 1.263 . S
O1363 Co1360 1.970 . S
O1363 C1362 1.258 . S
O1364 Co1361 1.966 . S
O1364 C1362 1.263 . S
C1365 O1366 1.235 . S
C1365 O1392 1.289 . S
O1366 C1365 1.235 . S
C1367 C1369 1.400 . S
C1367 N1370 1.351 . S
C1367 C1372 1.501 . S
C1368 C1369 1.387 . S
C1368 N1371 1.341 . S
C1369 C1367 1.400 . S
C1369 C1368 1.387 . S
N1370 Co1361 2.022 . S
N1370 C1367 1.351 . S
N1370 N1371 1.365 . S
N1371 C1368 1.341 . S
N1371 N1370 1.365 . S
N1371 H1391 0.862 . S
C1372 C1367 1.501 . S
C1372 H1373 0.961 . S
C1372 H1374 0.961 . S
C1372 H1375 0.960 . S
H1373 C1372 0.961 . S
H1374 C1372 0.961 . S
H1375 C1372 0.960 . S
C1376 N1377 1.342 . S
C1376 C1380 1.401 . S
C1376 C1381 1.499 . S
N1377 Co1360 1.989 . S
N1377 C1376 1.342 . S
N1377 N1378 1.388 . S
N1378 Co1361 1.993 . S
N1378 N1377 1.388 . S
N1378 C1379 1.346 . S
C1379 N1378 1.346 . S
C1379 C1380 1.396 . S
C1379 C1389 1.510 . S
C1380 C1376 1.401 . S
C1380 C1379 1.396 . S
C1381 C1376 1.499 . S
C1381 H1382 0.959 . S
C1381 H1383 0.960 . S
C1381 H1384 0.961 . S
H1382 C1381 0.959 . S
H1383 C1381 0.960 . S
H1384 C1381 0.961 . S
O1385 Co1360 1.967 . S
O1385 C1393 1.258 . S
O1386 Co1361 1.941 . S
O1386 C1393 1.266 . S
H1387 C1389 0.959 . S
H1388 C1389 0.961 . S
C1389 C1379 1.510 . S
C1389 H1387 0.959 . S
C1389 H1388 0.961 . S
C1389 H1390 0.960 . S
H1390 C1389 0.960 . S
H1391 N1371 0.862 . S
O1392 Co1360 1.920 . S
O1392 C1365 1.289 . S
C1393 O1385 1.258 . S
C1393 O1386 1.266 . S
Co1394 O1397 1.970 . S
Co1394 N1411 1.989 . S
Co1394 O1419 1.967 . S
Co1394 O1426 1.920 . S
Co1395 O1398 1.966 . S
Co1395 N1404 2.022 . S
Co1395 N1412 1.993 . S
Co1395 O1420 1.941 . S
C1396 O1397 1.258 . S
C1396 O1398 1.263 . S
O1397 Co1394 1.970 . S
O1397 C1396 1.258 . S
O1398 Co1395 1.966 . S
O1398 C1396 1.263 . S
C1399 O1400 1.235 . S
C1399 O1426 1.289 . S
O1400 C1399 1.235 . S
C1401 C1403 1.400 . S
C1401 N1404 1.351 1_655 S
C1401 C1406 1.501 . S
C1402 C1403 1.387 1_455 S
C1402 N1405 1.341 . S
C1403 C1401 1.400 . S
C1403 C1402 1.387 1_655 S
N1404 Co1395 2.022 . S
N1404 C1401 1.351 1_455 S
N1404 N1405 1.365 . S
N1405 C1402 1.341 . S
N1405 N1404 1.365 . S
N1405 H1425 0.862 . S
C1406 C1401 1.501 . S
C1406 H1407 0.961 . S
C1406 H1408 0.961 . S
C1406 H1409 0.960 . S
H1407 C1406 0.961 . S
H1408 C1406 0.961 . S
H1409 C1406 0.960 . S
C1410 N1411 1.342 . S
C1410 C1414 1.401 . S
C1410 C1415 1.499 . S
N1411 Co1394 1.989 . S
N1411 C1410 1.342 . S
N1411 N1412 1.388 . S
N1412 Co1395 1.993 . S
N1412 N1411 1.388 . S
N1412 C1413 1.346 . S
C1413 N1412 1.346 . S
C1413 C1414 1.396 . S
C1413 C1423 1.510 . S
C1414 C1410 1.401 . S
C1414 C1413 1.396 . S
C1415 C1410 1.499 . S
C1415 H1416 0.959 . S
C1415 H1417 0.960 . S
C1415 H1418 0.961 . S
H1416 C1415 0.959 . S
H1417 C1415 0.960 . S
H1418 C1415 0.961 . S
O1419 Co1394 1.967 . S
O1419 C1427 1.258 . S
O1420 Co1395 1.941 . S
O1420 C1427 1.266 . S
H1421 C1423 0.959 . S
H1422 C1423 0.961 . S
C1423 C1413 1.510 . S
C1423 H1421 0.959 . S
C1423 H1422 0.961 . S
C1423 H1424 0.960 . S
H1424 C1423 0.960 . S
H1425 N1405 0.862 . S
O1426 Co1394 1.920 . S
O1426 C1399 1.289 . S
C1427 O1419 1.258 . S
C1427 O1420 1.266 . S
Co1428 O1431 1.970 . S
Co1428 N1445 1.989 . S
Co1428 O1453 1.967 . S
Co1428 O1460 1.920 . S
Co1429 O1432 1.966 . S
Co1429 N1438 2.022 . S
Co1429 N1446 1.993 . S
Co1429 O1454 1.941 . S
C1430 O1431 1.258 . S
C1430 O1432 1.263 . S
O1431 Co1428 1.970 . S
O1431 C1430 1.258 . S
O1432 Co1429 1.966 . S
O1432 C1430 1.263 . S
C1433 O1434 1.235 . S
C1433 O1460 1.289 . S
O1434 C1433 1.235 . S
C1435 C1437 1.400 . S
C1435 N1438 1.351 . S
C1435 C1440 1.501 . S
C1436 C1437 1.387 . S
C1436 N1439 1.341 . S
C1437 C1435 1.400 . S
C1437 C1436 1.387 . S
N1438 Co1429 2.022 . S
N1438 C1435 1.351 . S
N1438 N1439 1.365 . S
N1439 C1436 1.341 . S
N1439 N1438 1.365 . S
N1439 H1459 0.862 . S
C1440 C1435 1.501 . S
C1440 H1441 0.961 . S
C1440 H1442 0.961 . S
C1440 H1443 0.960 . S
H1441 C1440 0.961 . S
H1442 C1440 0.961 . S
H1443 C1440 0.960 . S
C1444 N1445 1.342 . S
C1444 C1448 1.401 . S
C1444 C1449 1.499 . S
N1445 Co1428 1.989 . S
N1445 C1444 1.342 . S
N1445 N1446 1.388 . S
N1446 Co1429 1.993 . S
N1446 N1445 1.388 . S
N1446 C1447 1.346 . S
C1447 N1446 1.346 . S
C1447 C1448 1.396 . S
C1447 C1457 1.510 . S
C1448 C1444 1.401 . S
C1448 C1447 1.396 . S
C1449 C1444 1.499 . S
C1449 H1450 0.959 . S
C1449 H1451 0.960 . S
C1449 H1452 0.961 . S
H1450 C1449 0.959 . S
H1451 C1449 0.960 . S
H1452 C1449 0.961 . S
O1453 Co1428 1.967 . S
O1453 C1461 1.258 . S
O1454 Co1429 1.941 . S
O1454 C1461 1.266 . S
H1455 C1457 0.959 . S
H1456 C1457 0.961 . S
C1457 C1447 1.510 . S
C1457 H1455 0.959 . S
C1457 H1456 0.961 . S
C1457 H1458 0.960 . S
H1458 C1457 0.960 . S
H1459 N1439 0.862 . S
O1460 Co1428 1.920 . S
O1460 C1433 1.289 . S
C1461 O1453 1.258 . S
C1461 O1454 1.266 . S
Co1462 O1465 1.970 . S
Co1462 N1479 1.989 . S
Co1462 O1487 1.967 1_556 S
Co1462 O1494 1.920 . S
Co1463 O1466 1.966 . S
Co1463 N1472 2.022 . S
Co1463 N1480 1.993 1_554 S
Co1463 O1488 1.941 . S
C1464 O1465 1.225 1_554 S
C1464 O1466 1.292 . S
O1465 Co1462 1.970 . S
O1465 C1464 1.225 1_556 S
O1466 Co1463 1.966 . S
O1466 C1464 1.292 . S
C1467 O1468 1.235 . S
C1467 O1494 1.289 . S
O1468 C1467 1.235 . S
C1469 C1471 1.400 . S
C1469 N1472 1.351 . S
C1469 C1474 1.501 . S
C1470 C1471 1.387 . S
C1470 N1473 1.341 . S
C1471 C1469 1.400 . S
C1471 C1470 1.387 . S
N1472 Co1463 2.022 . S
N1472 C1469 1.351 . S
N1472 N1473 1.365 . S
N1473 C1470 1.341 . S
N1473 N1472 1.365 . S
N1473 H1493 0.862 . S
C1474 C1469 1.501 . S
C1474 H1475 0.961 . S
C1474 H1476 0.961 . S
C1474 H1477 0.960 . S
H1475 C1474 0.961 . S
H1476 C1474 0.961 . S
H1477 C1474 0.960 . S
C1478 N1479 1.342 . S
C1478 C1482 1.401 . S
C1478 C1483 1.499 . S
N1479 Co1462 1.989 . S
N1479 C1478 1.342 . S
N1479 N1480 1.388 . S
N1480 Co1463 1.993 1_556 S
N1480 N1479 1.388 . S
N1480 C1481 1.346 . S
C1481 N1480 1.346 . S
C1481 C1482 1.396 . S
C1481 C1491 1.510 1_556 S
C1482 C1478 1.401 . S
C1482 C1481 1.396 . S
C1483 C1478 1.499 . S
C1483 H1484 0.959 . S
C1483 H1485 0.960 . S
C1483 H1486 0.961 . S
H1484 C1483 0.959 . S
H1485 C1483 0.960 . S
H1486 C1483 0.961 . S
O1487 Co1462 1.967 1_554 S
O1487 C1495 1.258 . S
O1488 Co1463 1.941 . S
O1488 C1495 1.266 . S
H1489 C1491 0.959 . S
H1490 C1491 0.961 1_556 S
C1491 C1481 1.510 1_554 S
C1491 H1489 0.959 . S
C1491 H1490 0.961 1_554 S
C1491 H1492 0.960 . S
H1492 C1491 0.960 . S
H1493 N1473 0.862 . S
O1494 Co1462 1.920 . S
O1494 C1467 1.289 . S
C1495 O1487 1.258 . S
C1495 O1488 1.266 . S
Co1496 O1499 1.970 . S
Co1496 N1513 1.989 . S
Co1496 O1521 1.967 . S
Co1496 O1528 1.920 . S
Co1497 O1500 1.966 . S
Co1497 N1506 2.022 . S
Co1497 N1514 1.993 . S
Co1497 O1522 1.941 . S
C1498 O1499 1.258 . S
C1498 O1500 1.263 . S
O1499 Co1496 1.970 . S
O1499 C1498 1.258 . S
O1500 Co1497 1.966 . S
O1500 C1498 1.263 . S
C1501 O1502 1.235 . S
C1501 O1528 1.289 . S
O1502 C1501 1.235 . S
C1503 C1505 1.400 . S
C1503 N1506 1.351 . S
C1503 C1508 1.501 . S
C1504 C1505 1.387 . S
C1504 N1507 1.341 . S
C1505 C1503 1.400 . S
C1505 C1504 1.387 . S
N1506 Co1497 2.022 . S
N1506 C1503 1.351 . S
N1506 N1507 1.365 . S
N1507 C1504 1.341 . S
N1507 N1506 1.365 . S
N1507 H1527 0.862 . S
C1508 C1503 1.501 . S
C1508 H1509 0.961 . S
C1508 H1510 0.961 . S
C1508 H1511 0.960 . S
H1509 C1508 0.961 . S
H1510 C1508 0.961 . S
H1511 C1508 0.960 . S
C1512 N1513 1.342 . S
C1512 C1516 1.401 . S
C1512 C1517 1.499 . S
N1513 Co1496 1.989 . S
N1513 C1512 1.342 . S
N1513 N1514 1.388 . S
N1514 Co1497 1.993 . S
N1514 N1513 1.388 . S
N1514 C1515 1.346 . S
C1515 N1514 1.346 . S
C1515 C1516 1.396 . S
C1515 C1525 1.510 . S
C1516 C1512 1.401 . S
C1516 C1515 1.396 . S
C1517 C1512 1.499 . S
C1517 H1518 0.959 . S
C1517 H1519 0.960 . S
C1517 H1520 0.961 . S
H1518 C1517 0.959 . S
H1519 C1517 0.960 . S
H1520 C1517 0.961 . S
O1521 Co1496 1.967 . S
O1521 C1529 1.258 . S
O1522 Co1497 1.941 . S
O1522 C1529 1.266 . S
H1523 C1525 0.959 . S
H1524 C1525 0.961 . S
C1525 C1515 1.510 . S
C1525 H1523 0.959 . S
C1525 H1524 0.961 . S
C1525 H1526 0.960 . S
H1526 C1525 0.960 . S
H1527 N1507 0.862 . S
O1528 Co1496 1.920 . S
O1528 C1501 1.289 . S
C1529 O1521 1.258 . S
C1529 O1522 1.266 . S
Co1530 O1533 1.970 . S
Co1530 N1547 1.989 . S
Co1530 O1555 1.967 1_554 S
Co1530 O1562 1.920 . S
Co1531 O1534 1.966 . S
Co1531 N1540 2.022 . S
Co1531 N1548 1.993 1_556 S
Co1531 O1556 1.941 . S
C1532 O1533 1.258 1_556 S
C1532 O1534 1.263 . S
O1533 Co1530 1.970 . S
O1533 C1532 1.258 1_554 S
O1534 Co1531 1.966 . S
O1534 C1532 1.263 . S
C1535 O1536 1.235 . S
C1535 O1562 1.289 . S
O1536 C1535 1.235 . S
C1537 C1539 1.400 . S
C1537 N1540 1.351 1_455 S
C1537 C1542 1.501 . S
C1538 C1539 1.387 1_655 S
C1538 N1541 1.341 . S
C1539 C1537 1.400 . S
C1539 C1538 1.387 1_455 S
N1540 Co1531 2.022 . S
N1540 C1537 1.351 1_655 S
N1540 N1541 1.365 . S
N1541 C1538 1.341 . S
N1541 N1540 1.365 . S
N1541 H1561 0.862 . S
C1542 C1537 1.501 . S
C1542 H1543 0.961 . S
C1542 H1544 0.961 . S
C1542 H1545 0.960 . S
H1543 C1542 0.961 . S
H1544 C1542 0.961 . S
H1545 C1542 0.960 . S
C1546 N1547 1.342 . S
C1546 C1550 1.401 . S
C1546 C1551 1.499 . S
N1547 Co1530 1.989 . S
N1547 C1546 1.342 . S
N1547 N1548 1.388 . S
N1548 Co1531 1.993 1_554 S
N1548 N1547 1.388 . S
N1548 C1549 1.346 . S
C1549 N1548 1.346 . S
C1549 C1550 1.396 . S
C1549 C1559 1.510 1_554 S
C1550 C1546 1.401 . S
C1550 C1549 1.396 . S
C1551 C1546 1.499 . S
C1551 H1552 0.959 . S
C1551 H1553 0.960 . S
C1551 H1554 0.961 . S
H1552 C1551 0.959 . S
H1553 C1551 0.960 . S
H1554 C1551 0.961 . S
O1555 Co1530 1.967 1_556 S
O1555 C1563 1.258 . S
O1556 Co1531 1.941 . S
O1556 C1563 1.266 . S
H1557 C1559 0.959 . S
H1558 C1559 0.961 1_554 S
C1559 C1549 1.510 1_556 S
C1559 H1557 0.959 . S
C1559 H1558 0.961 1_556 S
C1559 H1560 0.960 . S
H1560 C1559 0.960 . S
H1561 N1541 0.862 . S
O1562 Co1530 1.920 . S
O1562 C1535 1.289 . S
C1563 O1555 1.258 . S
C1563 O1556 1.266 . S
Co1564 O1567 1.970 . S
Co1564 N1581 1.989 . S
Co1564 O1589 1.967 . S
Co1564 O1596 1.920 . S
Co1565 O1568 1.966 . S
Co1565 N1574 2.022 . S
Co1565 N1582 1.993 . S
Co1565 O1590 1.941 . S
C1566 O1567 1.258 . S
C1566 O1568 1.263 . S
O1567 Co1564 1.970 . S
O1567 C1566 1.258 . S
O1568 Co1565 1.966 . S
O1568 C1566 1.263 . S
C1569 O1570 1.235 . S
C1569 O1596 1.289 . S
O1570 C1569 1.235 . S
C1571 C1573 1.400 . S
C1571 N1574 1.351 . S
C1571 C1576 1.501 . S
C1572 C1573 1.387 . S
C1572 N1575 1.341 . S
C1573 C1571 1.400 . S
C1573 C1572 1.387 . S
N1574 Co1565 2.022 . S
N1574 C1571 1.351 . S
N1574 N1575 1.365 . S
N1575 C1572 1.341 . S
N1575 N1574 1.365 . S
N1575 H1595 0.862 . S
C1576 C1571 1.501 . S
C1576 H1577 0.961 . S
C1576 H1578 0.961 . S
C1576 H1579 0.960 . S
H1577 C1576 0.961 . S
H1578 C1576 0.961 . S
H1579 C1576 0.960 . S
C1580 N1581 1.342 . S
C1580 C1584 1.401 . S
C1580 C1585 1.499 . S
N1581 Co1564 1.989 . S
N1581 C1580 1.342 . S
N1581 N1582 1.388 . S
N1582 Co1565 1.993 . S
N1582 N1581 1.388 . S
N1582 C1583 1.346 . S
C1583 N1582 1.346 . S
C1583 C1584 1.396 . S
C1583 C1593 1.510 . S
C1584 C1580 1.401 . S
C1584 C1583 1.396 . S
C1585 C1580 1.499 . S
C1585 H1586 0.959 . S
C1585 H1587 0.960 . S
C1585 H1588 0.961 . S
H1586 C1585 0.959 . S
H1587 C1585 0.960 . S
H1588 C1585 0.961 . S
O1589 Co1564 1.967 . S
O1589 C1597 1.258 . S
O1590 Co1565 1.941 . S
O1590 C1597 1.266 . S
H1591 C1593 0.959 . S
H1592 C1593 0.961 . S
C1593 C1583 1.510 . S
C1593 H1591 0.959 . S
C1593 H1592 0.961 . S
C1593 H1594 0.960 . S
H1594 C1593 0.960 . S
H1595 N1575 0.862 . S
O1596 Co1564 1.920 . S
O1596 C1569 1.289 . S
C1597 O1589 1.258 . S
C1597 O1590 1.266 . S
Co1598 O1601 1.970 . S
Co1598 N1615 1.989 . S
Co1598 O1623 1.967 . S
Co1598 O1630 1.920 . S
Co1599 O1602 1.966 . S
Co1599 N1608 2.022 . S
Co1599 N1616 1.993 . S
Co1599 O1624 1.941 . S
C1600 O1601 1.258 . S
C1600 O1602 1.263 . S
O1601 Co1598 1.970 . S
O1601 C1600 1.258 . S
O1602 Co1599 1.966 . S
O1602 C1600 1.263 . S
C1603 O1604 1.235 . S
C1603 O1630 1.289 . S
O1604 C1603 1.235 . S
C1605 C1607 1.400 . S
C1605 N1608 1.351 . S
C1605 C1610 1.501 . S
C1606 C1607 1.387 . S
C1606 N1609 1.341 . S
C1607 C1605 1.400 . S
C1607 C1606 1.387 . S
N1608 Co1599 2.022 . S
N1608 C1605 1.351 . S
N1608 N1609 1.365 . S
N1609 C1606 1.341 . S
N1609 N1608 1.365 . S
N1609 H1629 0.862 . S
C1610 C1605 1.501 . S
C1610 H1611 0.961 . S
C1610 H1612 0.961 . S
C1610 H1613 0.960 . S
H1611 C1610 0.961 . S
H1612 C1610 0.961 . S
H1613 C1610 0.960 . S
C1614 N1615 1.342 . S
C1614 C1618 1.401 . S
C1614 C1619 1.499 . S
N1615 Co1598 1.989 . S
N1615 C1614 1.342 . S
N1615 N1616 1.388 . S
N1616 Co1599 1.993 . S
N1616 N1615 1.388 . S
N1616 C1617 1.346 . S
C1617 N1616 1.346 . S
C1617 C1618 1.396 . S
C1617 C1627 1.510 . S
C1618 C1614 1.401 . S
C1618 C1617 1.396 . S
C1619 C1614 1.499 . S
C1619 H1620 0.959 . S
C1619 H1621 0.960 . S
C1619 H1622 0.961 . S
H1620 C1619 0.959 . S
H1621 C1619 0.960 . S
H1622 C1619 0.961 . S
O1623 Co1598 1.967 . S
O1623 C1631 1.258 . S
O1624 Co1599 1.941 . S
O1624 C1631 1.266 . S
H1625 C1627 0.959 . S
H1626 C1627 0.961 . S
C1627 C1617 1.510 . S
C1627 H1625 0.959 . S
C1627 H1626 0.961 . S
C1627 H1628 0.960 . S
H1628 C1627 0.960 . S
H1629 N1609 0.862 . S
O1630 Co1598 1.920 . S
O1630 C1603 1.289 . S
C1631 O1623 1.258 . S
C1631 O1624 1.266 . S
C1632 C1633 1.387 . S
C1632 H1636 0.950 . S
C1632 C1641 1.390 . S
C1633 C1632 1.387 . S
C1633 C1635 1.387 . S
H1634 C1641 0.950 . S
C1635 C1633 1.387 . S
C1635 C1637 1.390 . S
C1635 H1639 0.950 . S
H1636 C1632 0.950 . S
C1637 C1635 1.390 . S
C1637 C1638 1.387 . S
C1637 H1640 0.950 . S
C1638 C1637 1.387 . S
C1638 C1641 1.387 . S
H1639 C1635 0.950 . S
H1640 C1637 0.950 . S
C1641 C1632 1.390 . S
C1641 H1634 0.950 . S
C1641 C1638 1.387 . S
C1642 C1643 1.387 . S
C1642 H1646 0.950 . S
C1642 C1651 1.390 . S
C1643 C1642 1.387 . S
C1643 C1645 1.387 . S
H1644 C1651 0.950 . S
C1645 C1643 1.387 . S
C1645 C1647 1.390 . S
C1645 H1649 0.950 . S
H1646 C1642 0.950 . S
C1647 C1645 1.390 . S
C1647 C1648 1.387 . S
C1647 H1650 0.950 . S
C1648 C1647 1.387 . S
C1648 C1651 1.387 . S
H1649 C1645 0.950 . S
H1650 C1647 0.950 . S
C1651 C1642 1.390 . S
C1651 H1644 0.950 . S
C1651 C1648 1.387 . S
C1652 C1653 1.387 . S
C1652 H1656 0.950 . S
C1652 C1661 1.390 . S
C1653 C1652 1.387 . S
C1653 C1655 1.387 . S
H1654 C1661 0.950 . S
C1655 C1653 1.387 . S
C1655 C1657 1.390 . S
C1655 H1659 0.950 . S
H1656 C1652 0.950 . S
C1657 C1655 1.390 . S
C1657 C1658 1.387 . S
C1657 H1660 0.950 . S
C1658 C1657 1.387 . S
C1658 C1661 1.387 . S
H1659 C1655 0.950 . S
H1660 C1657 0.950 . S
C1661 C1652 1.390 . S
C1661 H1654 0.950 . S
C1661 C1658 1.387 . S
C1662 C1663 1.387 . S
C1662 H1666 0.950 . S
C1662 C1671 1.390 . S
C1663 C1662 1.387 . S
C1663 C1665 1.387 . S
H1664 C1671 0.950 . S
C1665 C1663 1.387 . S
C1665 C1667 1.390 . S
C1665 H1669 0.950 . S
H1666 C1662 0.950 . S
C1667 C1665 1.390 . S
C1667 C1668 1.387 . S
C1667 H1670 0.950 . S
C1668 C1667 1.387 . S
C1668 C1671 1.387 . S
H1669 C1665 0.950 . S
H1670 C1667 0.950 . S
C1671 C1662 1.390 . S
C1671 H1664 0.950 . S
C1671 C1668 1.387 . S
C1672 C1673 1.387 . S
C1672 H1676 0.950 . S
C1672 C1681 1.390 . S
C1673 C1672 1.387 . S
C1673 C1675 1.387 . S
H1674 C1681 0.950 . S
C1675 C1673 1.387 . S
C1675 C1677 1.390 . S
C1675 H1679 0.950 . S
H1676 C1672 0.950 . S
C1677 C1675 1.390 . S
C1677 C1678 1.387 . S
C1677 H1680 0.950 . S
C1678 C1677 1.387 . S
C1678 C1681 1.387 . S
H1679 C1675 0.950 . S
H1680 C1677 0.950 . S
C1681 C1672 1.390 . S
C1681 H1674 0.950 . S
C1681 C1678 1.387 . S
C1682 C1683 1.387 . S
C1682 H1686 0.950 . S
C1682 C1691 1.390 . S
C1683 C1682 1.387 . S
C1683 C1685 1.387 . S
H1684 C1691 0.950 . S
C1685 C1683 1.387 . S
C1685 C1687 1.390 . S
C1685 H1689 0.950 . S
H1686 C1682 0.950 . S
C1687 C1685 1.390 . S
C1687 C1688 1.387 . S
C1687 H1690 0.950 . S
C1688 C1687 1.387 . S
C1688 C1691 1.387 . S
H1689 C1685 0.950 . S
H1690 C1687 0.950 . S
C1691 C1682 1.390 . S
C1691 H1684 0.950 . S
C1691 C1688 1.387 . S
C1692 C1693 1.387 . S
C1692 H1696 0.950 . S
C1692 C1701 1.390 . S
C1693 C1692 1.387 . S
C1693 C1695 1.387 . S
H1694 C1701 0.950 . S
C1695 C1693 1.387 . S
C1695 C1697 1.390 . S
C1695 H1699 0.950 . S
H1696 C1692 0.950 . S
C1697 C1695 1.390 . S
C1697 C1698 1.387 . S
C1697 H1700 0.950 . S
C1698 C1697 1.387 . S
C1698 C1701 1.387 . S
H1699 C1695 0.950 . S
H1700 C1697 0.950 . S
C1701 C1692 1.390 . S
C1701 H1694 0.950 . S
C1701 C1698 1.387 . S
C1702 C1703 1.387 . S
C1702 H1706 0.950 . S
C1702 C1711 1.390 . S
C1703 C1702 1.387 . S
C1703 C1705 1.387 . S
H1704 C1711 0.950 . S
C1705 C1703 1.387 . S
C1705 C1707 1.390 . S
C1705 H1709 0.950 . S
H1706 C1702 0.950 . S
C1707 C1705 1.390 . S
C1707 C1708 1.387 . S
C1707 H1710 0.950 . S
C1708 C1707 1.387 . S
C1708 C1711 1.387 . S
H1709 C1705 0.950 . S
H1710 C1707 0.950 . S
C1711 C1702 1.390 . S
C1711 H1704 0.950 . S
C1711 C1708 1.387 . S
C1712 C1713 1.387 . S
C1712 H1716 0.950 . S
C1712 C1721 1.390 . S
C1713 C1712 1.387 . S
C1713 C1715 1.387 . S
H1714 C1721 0.950 . S
C1715 C1713 1.387 . S
C1715 C1717 1.390 . S
C1715 H1719 0.950 . S
H1716 C1712 0.950 . S
C1717 C1715 1.390 . S
C1717 C1718 1.387 . S
C1717 H1720 0.950 . S
C1718 C1717 1.387 . S
C1718 C1721 1.387 . S
H1719 C1715 0.950 . S
H1720 C1717 0.950 . S
C1721 C1712 1.390 . S
C1721 H1714 0.950 . S
C1721 C1718 1.387 . S
C1722 C1723 1.387 . S
C1722 H1726 0.950 . S
C1722 C1731 1.390 . S
C1723 C1722 1.387 . S
C1723 C1725 1.387 . S
H1724 C1731 0.950 . S
C1725 C1723 1.387 . S
C1725 C1727 1.390 . S
C1725 H1729 0.950 . S
H1726 C1722 0.950 . S
C1727 C1725 1.390 . S
C1727 C1728 1.387 . S
C1727 H1730 0.950 . S
C1728 C1727 1.387 . S
C1728 C1731 1.387 . S
H1729 C1725 0.950 . S
H1730 C1727 0.950 . S
C1731 C1722 1.390 . S
C1731 H1724 0.950 . S
C1731 C1728 1.387 . S
C1732 C1733 1.387 . S
C1732 H1736 0.950 . S
C1732 C1741 1.390 . S
C1733 C1732 1.387 . S
C1733 C1735 1.387 . S
H1734 C1741 0.950 . S
C1735 C1733 1.387 . S
C1735 C1737 1.390 . S
C1735 H1739 0.950 . S
H1736 C1732 0.950 . S
C1737 C1735 1.390 . S
C1737 C1738 1.387 . S
C1737 H1740 0.950 . S
C1738 C1737 1.387 . S
C1738 C1741 1.387 . S
H1739 C1735 0.950 . S
H1740 C1737 0.950 . S
C1741 C1732 1.390 . S
C1741 H1734 0.950 . S
C1741 C1738 1.387 . S
C1742 C1743 1.387 . S
C1742 H1746 0.950 . S
C1742 C1751 1.390 . S
C1743 C1742 1.387 . S
C1743 C1745 1.387 . S
H1744 C1751 0.950 . S
C1745 C1743 1.387 . S
C1745 C1747 1.390 . S
C1745 H1749 0.950 . S
H1746 C1742 0.950 . S
C1747 C1745 1.390 . S
C1747 C1748 1.387 . S
C1747 H1750 0.950 . S
C1748 C1747 1.387 . S
C1748 C1751 1.387 . S
H1749 C1745 0.950 . S
H1750 C1747 0.950 . S
C1751 C1742 1.390 . S
C1751 H1744 0.950 . S
C1751 C1748 1.387 . S
C1752 C1753 1.387 . S
C1752 H1756 0.950 . S
C1752 C1761 1.390 . S
C1753 C1752 1.387 . S
C1753 C1755 1.387 . S
H1754 C1761 0.950 . S
C1755 C1753 1.387 . S
C1755 C1757 1.390 . S
C1755 H1759 0.950 . S
H1756 C1752 0.950 . S
C1757 C1755 1.390 . S
C1757 C1758 1.387 . S
C1757 H1760 0.950 . S
C1758 C1757 1.387 . S
C1758 C1761 1.387 . S
H1759 C1755 0.950 . S
H1760 C1757 0.950 . S
C1761 C1752 1.390 . S
C1761 H1754 0.950 . S
C1761 C1758 1.387 . S
C1762 C1763 1.387 . S
C1762 H1766 0.950 . S
C1762 C1771 1.390 . S
C1763 C1762 1.387 . S
C1763 C1765 1.387 . S
H1764 C1771 0.950 . S
C1765 C1763 1.387 . S
C1765 C1767 1.390 . S
C1765 H1769 0.950 . S
H1766 C1762 0.950 . S
C1767 C1765 1.390 . S
C1767 C1768 1.387 . S
C1767 H1770 0.950 . S
C1768 C1767 1.387 . S
C1768 C1771 1.387 . S
H1769 C1765 0.950 . S
H1770 C1767 0.950 . S
C1771 C1762 1.390 . S
C1771 H1764 0.950 . S
C1771 C1768 1.387 . S
C1772 C1773 1.387 . S
C1772 H1776 0.950 . S
C1772 C1781 1.390 . S
C1773 C1772 1.387 . S
C1773 C1775 1.387 . S
H1774 C1781 0.950 . S
C1775 C1773 1.387 . S
C1775 C1777 1.390 . S
C1775 H1779 0.950 . S
H1776 C1772 0.950 . S
C1777 C1775 1.390 . S
C1777 C1778 1.387 . S
C1777 H1780 0.950 . S
C1778 C1777 1.387 . S
C1778 C1781 1.387 . S
H1779 C1775 0.950 . S
H1780 C1777 0.950 . S
C1781 C1772 1.390 . S
C1781 H1774 0.950 . S
C1781 C1778 1.387 . S
C1782 C1783 1.387 . S
C1782 H1786 0.950 . S
C1782 C1791 1.390 . S
C1783 C1782 1.387 . S
C1783 C1785 1.387 . S
H1784 C1791 0.950 . S
C1785 C1783 1.387 . S
C1785 C1787 1.390 . S
C1785 H1789 0.950 . S
H1786 C1782 0.950 . S
C1787 C1785 1.390 . S
C1787 C1788 1.387 . S
C1787 H1790 0.950 . S
C1788 C1787 1.387 . S
C1788 C1791 1.387 . S
H1789 C1785 0.950 . S
H1790 C1787 0.950 . S
C1791 C1782 1.390 . S
C1791 H1784 0.950 . S
C1791 C1788 1.387 . S
C1792 C1793 1.387 . S
C1792 H1796 0.950 . S
C1792 C1801 1.390 . S
C1793 C1792 1.387 . S
C1793 C1795 1.387 . S
H1794 C1801 0.950 . S
C1795 C1793 1.387 . S
C1795 C1797 1.390 . S
C1795 H1799 0.950 . S
H1796 C1792 0.950 . S
C1797 C1795 1.390 . S
C1797 C1798 1.387 . S
C1797 H1800 0.950 . S
C1798 C1797 1.387 . S
C1798 C1801 1.387 . S
H1799 C1795 0.950 . S
H1800 C1797 0.950 . S
C1801 C1792 1.390 . S
C1801 H1794 0.950 . S
C1801 C1798 1.387 . S
C1802 C1803 1.387 . S
C1802 H1806 0.950 . S
C1802 C1811 1.390 . S
C1803 C1802 1.387 . S
C1803 C1805 1.387 . S
H1804 C1811 0.950 . S
C1805 C1803 1.387 . S
C1805 C1807 1.390 . S
C1805 H1809 0.950 . S
H1806 C1802 0.950 . S
C1807 C1805 1.390 . S
C1807 C1808 1.387 . S
C1807 H1810 0.950 . S
C1808 C1807 1.387 . S
C1808 C1811 1.387 . S
H1809 C1805 0.950 . S
H1810 C1807 0.950 . S
C1811 C1802 1.390 . S
C1811 H1804 0.950 . S
C1811 C1808 1.387 . S
C1812 C1813 1.387 . S
C1812 H1816 0.950 . S
C1812 C1821 1.390 . S
C1813 C1812 1.387 . S
C1813 C1815 1.387 . S
H1814 C1821 0.950 . S
C1815 C1813 1.387 . S
C1815 C1817 1.390 . S
C1815 H1819 0.950 . S
H1816 C1812 0.950 . S
C1817 C1815 1.390 . S
C1817 C1818 1.387 . S
C1817 H1820 0.950 . S
C1818 C1817 1.387 . S
C1818 C1821 1.387 . S
H1819 C1815 0.950 . S
H1820 C1817 0.950 . S
C1821 C1812 1.390 . S
C1821 H1814 0.950 . S
C1821 C1818 1.387 . S
C1822 C1823 1.387 . S
C1822 H1826 0.950 . S
C1822 C1831 1.390 . S
C1823 C1822 1.387 . S
C1823 C1825 1.387 . S
H1824 C1831 0.950 . S
C1825 C1823 1.387 . S
C1825 C1827 1.390 . S
C1825 H1829 0.950 . S
H1826 C1822 0.950 . S
C1827 C1825 1.390 . S
C1827 C1828 1.387 . S
C1827 H1830 0.950 . S
C1828 C1827 1.387 . S
C1828 C1831 1.387 . S
H1829 C1825 0.950 . S
H1830 C1827 0.950 . S
C1831 C1822 1.390 . S
C1831 H1824 0.950 . S
C1831 C1828 1.387 . S
C1832 C1833 1.387 . S
C1832 H1836 0.950 . S
C1832 C1841 1.390 . S
C1833 C1832 1.387 . S
C1833 C1835 1.387 . S
H1834 C1841 0.950 . S
C1835 C1833 1.387 . S
C1835 C1837 1.390 . S
C1835 H1839 0.950 . S
H1836 C1832 0.950 . S
C1837 C1835 1.390 . S
C1837 C1838 1.387 . S
C1837 H1840 0.950 . S
C1838 C1837 1.387 . S
C1838 C1841 1.387 . S
H1839 C1835 0.950 . S
H1840 C1837 0.950 . S
C1841 C1832 1.390 . S
C1841 H1834 0.950 . S
C1841 C1838 1.387 . S
C1842 C1843 1.387 . S
C1842 H1846 0.950 . S
C1842 C1851 1.390 . S
C1843 C1842 1.387 . S
C1843 C1845 1.387 . S
H1844 C1851 0.950 . S
C1845 C1843 1.387 . S
C1845 C1847 1.390 . S
C1845 H1849 0.950 . S
H1846 C1842 0.950 . S
C1847 C1845 1.390 . S
C1847 C1848 1.387 . S
C1847 H1850 0.950 . S
C1848 C1847 1.387 . S
C1848 C1851 1.387 . S
H1849 C1845 0.950 . S
H1850 C1847 0.950 . S
C1851 C1842 1.390 . S
C1851 H1844 0.950 . S
C1851 C1848 1.387 . S
C1852 C1853 1.387 . S
C1852 H1856 0.950 . S
C1852 C1861 1.390 . S
C1853 C1852 1.387 . S
C1853 C1855 1.387 . S
H1854 C1861 0.950 . S
C1855 C1853 1.387 . S
C1855 C1857 1.390 . S
C1855 H1859 0.950 . S
H1856 C1852 0.950 . S
C1857 C1855 1.390 . S
C1857 C1858 1.387 . S
C1857 H1860 0.950 . S
C1858 C1857 1.387 . S
C1858 C1861 1.387 . S
H1859 C1855 0.950 . S
H1860 C1857 0.950 . S
C1861 C1852 1.390 . S
C1861 H1854 0.950 . S
C1861 C1858 1.387 . S
C1862 C1863 1.387 . S
C1862 H1866 0.950 . S
C1862 C1871 1.390 . S
C1863 C1862 1.387 . S
C1863 C1865 1.387 . S
H1864 C1871 0.950 . S
C1865 C1863 1.387 . S
C1865 C1867 1.390 . S
C1865 H1869 0.950 . S
H1866 C1862 0.950 . S
C1867 C1865 1.390 . S
C1867 C1868 1.387 . S
C1867 H1870 0.950 . S
C1868 C1867 1.387 . S
C1868 C1871 1.387 . S
H1869 C1865 0.950 . S
H1870 C1867 0.950 . S
C1871 C1862 1.390 . S
C1871 H1864 0.950 . S
C1871 C1868 1.387 . S
C1872 C1873 1.387 . S
C1872 H1876 0.950 . S
C1872 C1881 1.390 . S
C1873 C1872 1.387 . S
C1873 C1875 1.387 . S
H1874 C1881 0.950 . S
C1875 C1873 1.387 . S
C1875 C1877 1.390 . S
C1875 H1879 0.950 . S
H1876 C1872 0.950 . S
C1877 C1875 1.390 . S
C1877 C1878 1.387 . S
C1877 H1880 0.950 . S
C1878 C1877 1.387 . S
C1878 C1881 1.387 . S
H1879 C1875 0.950 . S
H1880 C1877 0.950 . S
C1881 C1872 1.390 . S
C1881 H1874 0.950 . S
C1881 C1878 1.387 . S
C1882 C1883 1.387 . S
C1882 H1886 0.950 . S
C1882 C1891 1.390 . S
C1883 C1882 1.387 . S
C1883 C1885 1.387 . S
H1884 C1891 0.950 . S
C1885 C1883 1.387 . S
C1885 C1887 1.390 . S
C1885 H1889 0.950 . S
H1886 C1882 0.950 . S
C1887 C1885 1.390 . S
C1887 C1888 1.387 . S
C1887 H1890 0.950 . S
C1888 C1887 1.387 . S
C1888 C1891 1.387 . S
H1889 C1885 0.950 . S
H1890 C1887 0.950 . S
C1891 C1882 1.390 . S
C1891 H1884 0.950 . S
C1891 C1888 1.387 . S
C1892 C1893 1.387 . S
C1892 H1896 0.950 . S
C1892 C1901 1.390 . S
C1893 C1892 1.387 . S
C1893 C1895 1.387 . S
H1894 C1901 0.950 . S
C1895 C1893 1.387 . S
C1895 C1897 1.390 . S
C1895 H1899 0.950 . S
H1896 C1892 0.950 . S
C1897 C1895 1.390 . S
C1897 C1898 1.387 . S
C1897 H1900 0.950 . S
C1898 C1897 1.387 . S
C1898 C1901 1.387 . S
H1899 C1895 0.950 . S
H1900 C1897 0.950 . S
C1901 C1892 1.390 . S
C1901 H1894 0.950 . S
C1901 C1898 1.387 . S
C1902 C1903 1.387 . S
C1902 H1906 0.950 . S
C1902 C1911 1.390 . S
C1903 C1902 1.387 . S
C1903 C1905 1.387 . S
H1904 C1911 0.950 . S
C1905 C1903 1.387 . S
C1905 C1907 1.390 . S
C1905 H1909 0.950 . S
H1906 C1902 0.950 . S
C1907 C1905 1.390 . S
C1907 C1908 1.387 . S
C1907 H1910 0.950 . S
C1908 C1907 1.387 . S
C1908 C1911 1.387 . S
H1909 C1905 0.950 . S
H1910 C1907 0.950 . S
C1911 C1902 1.390 . S
C1911 H1904 0.950 . S
C1911 C1908 1.387 . S
C1912 C1913 1.387 . S
C1912 H1916 0.950 . S
C1912 C1921 1.390 . S
C1913 C1912 1.387 . S
C1913 C1915 1.387 . S
H1914 C1921 0.950 . S
C1915 C1913 1.387 . S
C1915 C1917 1.390 . S
C1915 H1919 0.950 . S
H1916 C1912 0.950 . S
C1917 C1915 1.390 . S
C1917 C1918 1.387 . S
C1917 H1920 0.950 . S
C1918 C1917 1.387 . S
C1918 C1921 1.387 . S
H1919 C1915 0.950 . S
H1920 C1917 0.950 . S
C1921 C1912 1.390 . S
C1921 H1914 0.950 . S
C1921 C1918 1.387 . S
C1922 C1923 1.387 . S
C1922 H1926 0.950 . S
C1922 C1931 1.390 . S
C1923 C1922 1.387 . S
C1923 C1925 1.387 . S
H1924 C1931 0.950 . S
C1925 C1923 1.387 . S
C1925 C1927 1.390 . S
C1925 H1929 0.950 . S
H1926 C1922 0.950 . S
C1927 C1925 1.390 . S
C1927 C1928 1.387 . S
C1927 H1930 0.950 . S
C1928 C1927 1.387 . S
C1928 C1931 1.387 . S
H1929 C1925 0.950 . S
H1930 C1927 0.950 . S
C1931 C1922 1.390 . S
C1931 H1924 0.950 . S
C1931 C1928 1.387 . S
C1932 C1933 1.387 . S
C1932 H1936 0.950 . S
C1932 C1941 1.390 . S
C1933 C1932 1.387 . S
C1933 C1935 1.387 . S
H1934 C1941 0.950 . S
C1935 C1933 1.387 . S
C1935 C1937 1.390 . S
C1935 H1939 0.950 . S
H1936 C1932 0.950 . S
C1937 C1935 1.390 . S
C1937 C1938 1.387 . S
C1937 H1940 0.950 . S
C1938 C1937 1.387 . S
C1938 C1941 1.387 . S
H1939 C1935 0.950 . S
H1940 C1937 0.950 . S
C1941 C1932 1.390 . S
C1941 H1934 0.950 . S
C1941 C1938 1.387 . S
C1942 C1943 1.387 . S
C1942 H1946 0.950 . S
C1942 C1951 1.390 . S
C1943 C1942 1.387 . S
C1943 C1945 1.387 . S
H1944 C1951 0.950 . S
C1945 C1943 1.387 . S
C1945 C1947 1.390 . S
C1945 H1949 0.950 . S
H1946 C1942 0.950 . S
C1947 C1945 1.390 . S
C1947 C1948 1.387 . S
C1947 H1950 0.950 . S
C1948 C1947 1.387 . S
C1948 C1951 1.387 . S
H1949 C1945 0.950 . S
H1950 C1947 0.950 . S
C1951 C1942 1.390 . S
C1951 H1944 0.950 . S
C1951 C1948 1.387 . S
C1952 C1953 1.387 . S
C1952 H1956 0.950 . S
C1952 C1961 1.390 . S
C1953 C1952 1.387 . S
C1953 C1955 1.387 . S
H1954 C1961 0.950 . S
C1955 C1953 1.387 . S
C1955 C1957 1.390 . S
C1955 H1959 0.950 . S
H1956 C1952 0.950 . S
C1957 C1955 1.390 . S
C1957 C1958 1.387 . S
C1957 H1960 0.950 . S
C1958 C1957 1.387 . S
C1958 C1961 1.387 . S
H1959 C1955 0.950 . S
H1960 C1957 0.950 . S
C1961 C1952 1.390 . S
C1961 H1954 0.950 . S
C1961 C1958 1.387 . S
C1962 C1963 1.387 . S
C1962 H1966 0.950 . S
C1962 C1971 1.390 . S
C1963 C1962 1.387 . S
C1963 C1965 1.387 . S
H1964 C1971 0.950 . S
C1965 C1963 1.387 . S
C1965 C1967 1.390 . S
C1965 H1969 0.950 . S
H1966 C1962 0.950 . S
C1967 C1965 1.390 . S
C1967 C1968 1.387 . S
C1967 H1970 0.950 . S
C1968 C1967 1.387 . S
C1968 C1971 1.387 . S
H1969 C1965 0.950 . S
H1970 C1967 0.950 . S
C1971 C1962 1.390 . S
C1971 H1964 0.950 . S
C1971 C1968 1.387 . S
C1972 C1973 1.387 . S
C1972 H1976 0.950 . S
C1972 C1981 1.390 . S
C1973 C1972 1.387 . S
C1973 C1975 1.387 . S
H1974 C1981 0.950 . S
C1975 C1973 1.387 . S
C1975 C1977 1.390 . S
C1975 H1979 0.950 . S
H1976 C1972 0.950 . S
C1977 C1975 1.390 . S
C1977 C1978 1.387 . S
C1977 H1980 0.950 . S
C1978 C1977 1.387 . S
C1978 C1981 1.387 . S
H1979 C1975 0.950 . S
H1980 C1977 0.950 . S
C1981 C1972 1.390 . S
C1981 H1974 0.950 . S
C1981 C1978 1.387 . S
C1982 C1983 1.387 . S
C1982 H1986 0.950 . S
C1982 C1991 1.390 . S
C1983 C1982 1.387 . S
C1983 C1985 1.387 . S
H1984 C1991 0.950 . S
C1985 C1983 1.387 . S
C1985 C1987 1.390 . S
C1985 H1989 0.950 . S
H1986 C1982 0.950 . S
C1987 C1985 1.390 . S
C1987 C1988 1.387 . S
C1987 H1990 0.950 . S
C1988 C1987 1.387 . S
C1988 C1991 1.387 . S
H1989 C1985 0.950 . S
H1990 C1987 0.950 . S
C1991 C1982 1.390 . S
C1991 H1984 0.950 . S
C1991 C1988 1.387 . S
C1992 C1993 1.387 . S
C1992 H1996 0.950 . S
C1992 C2001 1.390 . S
C1993 C1992 1.387 . S
C1993 C1995 1.387 . S
H1994 C2001 0.950 . S
C1995 C1993 1.387 . S
C1995 C1997 1.390 . S
C1995 H1999 0.950 . S
H1996 C1992 0.950 . S
C1997 C1995 1.390 . S
C1997 C1998 1.387 . S
C1997 H2000 0.950 . S
C1998 C1997 1.387 . S
C1998 C2001 1.387 . S
H1999 C1995 0.950 . S
H2000 C1997 0.950 . S
C2001 C1992 1.390 . S
C2001 H1994 0.950 . S
C2001 C1998 1.387 . S
C2002 C2003 1.387 . S
C2002 H2006 0.950 . S
C2002 C2011 1.390 . S
C2003 C2002 1.387 . S
C2003 C2005 1.387 . S
H2004 C2011 0.950 . S
C2005 C2003 1.387 . S
C2005 C2007 1.390 . S
C2005 H2009 0.950 . S
H2006 C2002 0.950 . S
C2007 C2005 1.390 . S
C2007 C2008 1.387 . S
C2007 H2010 0.950 . S
C2008 C2007 1.387 . S
C2008 C2011 1.387 . S
H2009 C2005 0.950 . S
H2010 C2007 0.950 . S
C2011 C2002 1.390 . S
C2011 H2004 0.950 . S
C2011 C2008 1.387 . S
C2012 C2013 1.387 . S
C2012 H2016 0.950 . S
C2012 C2021 1.390 . S
C2013 C2012 1.387 . S
C2013 C2015 1.387 . S
H2014 C2021 0.950 . S
C2015 C2013 1.387 . S
C2015 C2017 1.390 . S
C2015 H2019 0.950 . S
H2016 C2012 0.950 . S
C2017 C2015 1.390 . S
C2017 C2018 1.387 . S
C2017 H2020 0.950 . S
C2018 C2017 1.387 . S
C2018 C2021 1.387 . S
H2019 C2015 0.950 . S
H2020 C2017 0.950 . S
C2021 C2012 1.390 . S
C2021 H2014 0.950 . S
C2021 C2018 1.387 . S
C2022 C2023 1.387 . S
C2022 H2026 0.950 . S
C2022 C2031 1.390 . S
C2023 C2022 1.387 . S
C2023 C2025 1.387 . S
H2024 C2031 0.950 . S
C2025 C2023 1.387 . S
C2025 C2027 1.390 . S
C2025 H2029 0.950 . S
H2026 C2022 0.950 . S
C2027 C2025 1.390 . S
C2027 C2028 1.387 . S
C2027 H2030 0.950 . S
C2028 C2027 1.387 . S
C2028 C2031 1.387 . S
H2029 C2025 0.950 . S
H2030 C2027 0.950 . S
C2031 C2022 1.390 . S
C2031 H2024 0.950 . S
C2031 C2028 1.387 . S
C2032 C2033 1.387 . S
C2032 H2036 0.950 . S
C2032 C2041 1.390 . S
C2033 C2032 1.387 . S
C2033 C2035 1.387 . S
H2034 C2041 0.950 . S
C2035 C2033 1.387 . S
C2035 C2037 1.390 . S
C2035 H2039 0.950 . S
H2036 C2032 0.950 . S
C2037 C2035 1.390 . S
C2037 C2038 1.387 . S
C2037 H2040 0.950 . S
C2038 C2037 1.387 . S
C2038 C2041 1.387 . S
H2039 C2035 0.950 . S
H2040 C2037 0.950 . S
C2041 C2032 1.390 . S
C2041 H2034 0.950 . S
C2041 C2038 1.387 . S
C2042 C2043 1.387 . S
C2042 H2046 0.950 . S
C2042 C2051 1.390 . S
C2043 C2042 1.387 . S
C2043 C2045 1.387 . S
H2044 C2051 0.950 . S
C2045 C2043 1.387 . S
C2045 C2047 1.390 . S
C2045 H2049 0.950 . S
H2046 C2042 0.950 . S
C2047 C2045 1.390 . S
C2047 C2048 1.387 . S
C2047 H2050 0.950 . S
C2048 C2047 1.387 . S
C2048 C2051 1.387 . S
H2049 C2045 0.950 . S
H2050 C2047 0.950 . S
C2051 C2042 1.390 . S
C2051 H2044 0.950 . S
C2051 C2048 1.387 . S
C2052 C2053 1.387 . S
C2052 H2056 0.950 . S
C2052 C2061 1.390 . S
C2053 C2052 1.387 . S
C2053 C2055 1.387 . S
H2054 C2061 0.950 . S
C2055 C2053 1.387 . S
C2055 C2057 1.390 . S
C2055 H2059 0.950 . S
H2056 C2052 0.950 . S
C2057 C2055 1.390 . S
C2057 C2058 1.387 . S
C2057 H2060 0.950 . S
C2058 C2057 1.387 . S
C2058 C2061 1.387 . S
H2059 C2055 0.950 . S
H2060 C2057 0.950 . S
C2061 C2052 1.390 . S
C2061 H2054 0.950 . S
C2061 C2058 1.387 . S
C2062 C2063 1.387 . S
C2062 H2066 0.950 . S
C2062 C2071 1.390 . S
C2063 C2062 1.387 . S
C2063 C2065 1.387 . S
H2064 C2071 0.950 . S
C2065 C2063 1.387 . S
C2065 C2067 1.390 . S
C2065 H2069 0.950 . S
H2066 C2062 0.950 . S
C2067 C2065 1.390 . S
C2067 C2068 1.387 . S
C2067 H2070 0.950 . S
C2068 C2067 1.387 . S
C2068 C2071 1.387 . S
H2069 C2065 0.950 . S
H2070 C2067 0.950 . S
C2071 C2062 1.390 . S
C2071 H2064 0.950 . S
C2071 C2068 1.387 . S
C2072 C2073 1.387 . S
C2072 H2076 0.950 . S
C2072 C2081 1.390 . S
C2073 C2072 1.387 . S
C2073 C2075 1.387 . S
H2074 C2081 0.950 . S
C2075 C2073 1.387 . S
C2075 C2077 1.390 . S
C2075 H2079 0.950 . S
H2076 C2072 0.950 . S
C2077 C2075 1.390 . S
C2077 C2078 1.387 . S
C2077 H2080 0.950 . S
C2078 C2077 1.387 . S
C2078 C2081 1.387 . S
H2079 C2075 0.950 . S
H2080 C2077 0.950 . S
C2081 C2072 1.390 . S
C2081 H2074 0.950 . S
C2081 C2078 1.387 . S
C2082 C2083 1.387 . S
C2082 H2086 0.950 . S
C2082 C2091 1.390 . S
C2083 C2082 1.387 . S
C2083 C2085 1.387 . S
H2084 C2091 0.950 . S
C2085 C2083 1.387 . S
C2085 C2087 1.390 . S
C2085 H2089 0.950 . S
H2086 C2082 0.950 . S
C2087 C2085 1.390 . S
C2087 C2088 1.387 . S
C2087 H2090 0.950 . S
C2088 C2087 1.387 . S
C2088 C2091 1.387 . S
H2089 C2085 0.950 . S
H2090 C2087 0.950 . S
C2091 C2082 1.390 . S
C2091 H2084 0.950 . S
C2091 C2088 1.387 . S
C2092 C2093 1.387 . S
C2092 H2096 0.950 . S
C2092 C2101 1.390 . S
C2093 C2092 1.387 . S
C2093 C2095 1.387 . S
H2094 C2101 0.950 . S
C2095 C2093 1.387 . S
C2095 C2097 1.390 . S
C2095 H2099 0.950 . S
H2096 C2092 0.950 . S
C2097 C2095 1.390 . S
C2097 C2098 1.387 . S
C2097 H2100 0.950 . S
C2098 C2097 1.387 . S
C2098 C2101 1.387 . S
H2099 C2095 0.950 . S
H2100 C2097 0.950 . S
C2101 C2092 1.390 . S
C2101 H2094 0.950 . S
C2101 C2098 1.387 . S
C2102 C2103 1.387 . S
C2102 H2106 0.950 . S
C2102 C2111 1.390 . S
C2103 C2102 1.387 . S
C2103 C2105 1.387 . S
H2104 C2111 0.950 . S
C2105 C2103 1.387 . S
C2105 C2107 1.390 . S
C2105 H2109 0.950 . S
H2106 C2102 0.950 . S
C2107 C2105 1.390 . S
C2107 C2108 1.387 . S
C2107 H2110 0.950 . S
C2108 C2107 1.387 . S
C2108 C2111 1.387 . S
H2109 C2105 0.950 . S
H2110 C2107 0.950 . S
C2111 C2102 1.390 . S
C2111 H2104 0.950 . S
C2111 C2108 1.387 . S
C2112 C2113 1.387 . S
C2112 H2116 0.950 . S
C2112 C2121 1.390 . S
C2113 C2112 1.387 . S
C2113 C2115 1.387 . S
H2114 C2121 0.950 . S
C2115 C2113 1.387 . S
C2115 C2117 1.390 . S
C2115 H2119 0.950 . S
H2116 C2112 0.950 . S
C2117 C2115 1.390 . S
C2117 C2118 1.387 . S
C2117 H2120 0.950 . S
C2118 C2117 1.387 . S
C2118 C2121 1.387 . S
H2119 C2115 0.950 . S
H2120 C2117 0.950 . S
C2121 C2112 1.390 . S
C2121 H2114 0.950 . S
C2121 C2118 1.387 . S
C2122 C2123 1.387 . S
C2122 H2126 0.950 . S
C2122 C2131 1.390 . S
C2123 C2122 1.387 . S
C2123 C2125 1.387 . S
H2124 C2131 0.950 . S
C2125 C2123 1.387 . S
C2125 C2127 1.390 . S
C2125 H2129 0.950 . S
H2126 C2122 0.950 . S
C2127 C2125 1.390 . S
C2127 C2128 1.387 . S
C2127 H2130 0.950 . S
C2128 C2127 1.387 . S
C2128 C2131 1.387 . S
H2129 C2125 0.950 . S
H2130 C2127 0.950 . S
C2131 C2122 1.390 . S
C2131 H2124 0.950 . S
C2131 C2128 1.387 . S
C2132 C2133 1.387 . S
C2132 H2136 0.950 . S
C2132 C2141 1.390 . S
C2133 C2132 1.387 . S
C2133 C2135 1.387 . S
H2134 C2141 0.950 . S
C2135 C2133 1.387 . S
C2135 C2137 1.390 . S
C2135 H2139 0.950 . S
H2136 C2132 0.950 . S
C2137 C2135 1.390 . S
C2137 C2138 1.387 . S
C2137 H2140 0.950 . S
C2138 C2137 1.387 . S
C2138 C2141 1.387 . S
H2139 C2135 0.950 . S
H2140 C2137 0.950 . S
C2141 C2132 1.390 . S
C2141 H2134 0.950 . S
C2141 C2138 1.387 . S
C2142 C2143 1.387 . S
C2142 H2146 0.950 . S
C2142 C2151 1.390 . S
C2143 C2142 1.387 . S
C2143 C2145 1.387 . S
H2144 C2151 0.950 . S
C2145 C2143 1.387 . S
C2145 C2147 1.390 . S
C2145 H2149 0.950 . S
H2146 C2142 0.950 . S
C2147 C2145 1.390 . S
C2147 C2148 1.387 . S
C2147 H2150 0.950 . S
C2148 C2147 1.387 . S
C2148 C2151 1.387 . S
H2149 C2145 0.950 . S
H2150 C2147 0.950 . S
C2151 C2142 1.390 . S
C2151 H2144 0.950 . S
C2151 C2148 1.387 . S
C2152 C2153 1.387 . S
C2152 H2156 0.950 . S
C2152 C2161 1.390 . S
C2153 C2152 1.387 . S
C2153 C2155 1.387 . S
H2154 C2161 0.950 . S
C2155 C2153 1.387 . S
C2155 C2157 1.390 . S
C2155 H2159 0.950 . S
H2156 C2152 0.950 . S
C2157 C2155 1.390 . S
C2157 C2158 1.387 . S
C2157 H2160 0.950 . S
C2158 C2157 1.387 . S
C2158 C2161 1.387 . S
H2159 C2155 0.950 . S
H2160 C2157 0.950 . S
C2161 C2152 1.390 . S
C2161 H2154 0.950 . S
C2161 C2158 1.387 . S
C2162 C2163 1.387 . S
C2162 H2166 0.950 . S
C2162 C2171 1.390 . S
C2163 C2162 1.387 . S
C2163 C2165 1.387 . S
H2164 C2171 0.950 . S
C2165 C2163 1.387 . S
C2165 C2167 1.390 . S
C2165 H2169 0.950 . S
H2166 C2162 0.950 . S
C2167 C2165 1.390 . S
C2167 C2168 1.387 . S
C2167 H2170 0.950 . S
C2168 C2167 1.387 . S
C2168 C2171 1.387 . S
H2169 C2165 0.950 . S
H2170 C2167 0.950 . S
C2171 C2162 1.390 . S
C2171 H2164 0.950 . S
C2171 C2168 1.387 . S
C2172 C2173 1.387 . S
C2172 H2176 0.950 . S
C2172 C2181 1.390 . S
C2173 C2172 1.387 . S
C2173 C2175 1.387 . S
H2174 C2181 0.950 . S
C2175 C2173 1.387 . S
C2175 C2177 1.390 . S
C2175 H2179 0.950 . S
H2176 C2172 0.950 . S
C2177 C2175 1.390 . S
C2177 C2178 1.387 . S
C2177 H2180 0.950 . S
C2178 C2177 1.387 . S
C2178 C2181 1.387 . S
H2179 C2175 0.950 . S
H2180 C2177 0.950 . S
C2181 C2172 1.390 . S
C2181 H2174 0.950 . S
C2181 C2178 1.387 . S
C2182 C2183 1.387 . S
C2182 H2186 0.950 . S
C2182 C2191 1.390 . S
C2183 C2182 1.387 . S
C2183 C2185 1.387 . S
H2184 C2191 0.950 . S
C2185 C2183 1.387 . S
C2185 C2187 1.390 . S
C2185 H2189 0.950 . S
H2186 C2182 0.950 . S
C2187 C2185 1.390 . S
C2187 C2188 1.387 . S
C2187 H2190 0.950 . S
C2188 C2187 1.387 . S
C2188 C2191 1.387 . S
H2189 C2185 0.950 . S
H2190 C2187 0.950 . S
C2191 C2182 1.390 . S
C2191 H2184 0.950 . S
C2191 C2188 1.387 . S
C2192 C2193 1.387 . S
C2192 H2196 0.950 . S
C2192 C2201 1.390 . S
C2193 C2192 1.387 . S
C2193 C2195 1.387 . S
H2194 C2201 0.950 . S
C2195 C2193 1.387 . S
C2195 C2197 1.390 . S
C2195 H2199 0.950 . S
H2196 C2192 0.950 . S
C2197 C2195 1.390 . S
C2197 C2198 1.387 . S
C2197 H2200 0.950 . S
C2198 C2197 1.387 . S
C2198 C2201 1.387 . S
H2199 C2195 0.950 . S
H2200 C2197 0.950 . S
C2201 C2192 1.390 . S
C2201 H2194 0.950 . S
C2201 C2198 1.387 . S
C2202 C2203 1.387 . S
C2202 H2206 0.950 . S
C2202 C2211 1.390 . S
C2203 C2202 1.387 . S
C2203 C2205 1.387 . S
H2204 C2211 0.950 . S
C2205 C2203 1.387 . S
C2205 C2207 1.390 . S
C2205 H2209 0.950 . S
H2206 C2202 0.950 . S
C2207 C2205 1.390 . S
C2207 C2208 1.387 . S
C2207 H2210 0.950 . S
C2208 C2207 1.387 . S
C2208 C2211 1.387 . S
H2209 C2205 0.950 . S
H2210 C2207 0.950 . S
C2211 C2202 1.390 . S
C2211 H2204 0.950 . S
C2211 C2208 1.387 . S
C2212 C2213 1.387 . S
C2212 H2216 0.950 . S
C2212 C2221 1.390 . S
C2213 C2212 1.387 . S
C2213 C2215 1.387 . S
H2214 C2221 0.950 . S
C2215 C2213 1.387 . S
C2215 C2217 1.390 . S
C2215 H2219 0.950 . S
H2216 C2212 0.950 . S
C2217 C2215 1.390 . S
C2217 C2218 1.387 . S
C2217 H2220 0.950 . S
C2218 C2217 1.387 . S
C2218 C2221 1.387 . S
H2219 C2215 0.950 . S
H2220 C2217 0.950 . S
C2221 C2212 1.390 . S
C2221 H2214 0.950 . S
C2221 C2218 1.387 . S
C2222 C2223 1.387 . S
C2222 H2226 0.950 . S
C2222 C2231 1.390 . S
C2223 C2222 1.387 . S
C2223 C2225 1.387 . S
H2224 C2231 0.950 . S
C2225 C2223 1.387 . S
C2225 C2227 1.390 . S
C2225 H2229 0.950 . S
H2226 C2222 0.950 . S
C2227 C2225 1.390 . S
C2227 C2228 1.387 . S
C2227 H2230 0.950 . S
C2228 C2227 1.387 . S
C2228 C2231 1.387 . S
H2229 C2225 0.950 . S
H2230 C2227 0.950 . S
C2231 C2222 1.390 . S
C2231 H2224 0.950 . S
C2231 C2228 1.387 . S
C2232 C2233 1.387 . S
C2232 H2236 0.950 . S
C2232 C2241 1.390 . S
C2233 C2232 1.387 . S
C2233 C2235 1.387 . S
H2234 C2241 0.950 . S
C2235 C2233 1.387 . S
C2235 C2237 1.390 . S
C2235 H2239 0.950 . S
H2236 C2232 0.950 . S
C2237 C2235 1.390 . S
C2237 C2238 1.387 . S
C2237 H2240 0.950 . S
C2238 C2237 1.387 . S
C2238 C2241 1.387 . S
H2239 C2235 0.950 . S
H2240 C2237 0.950 . S
C2241 C2232 1.390 . S
C2241 H2234 0.950 . S
C2241 C2238 1.387 . S
C2242 C2243 1.387 . S
C2242 H2246 0.950 . S
C2242 C2251 1.390 . S
C2243 C2242 1.387 . S
C2243 C2245 1.387 . S
H2244 C2251 0.950 . S
C2245 C2243 1.387 . S
C2245 C2247 1.390 . S
C2245 H2249 0.950 . S
H2246 C2242 0.950 . S
C2247 C2245 1.390 . S
C2247 C2248 1.387 . S
C2247 H2250 0.950 . S
C2248 C2247 1.387 . S
C2248 C2251 1.387 . S
H2249 C2245 0.950 . S
H2250 C2247 0.950 . S
C2251 C2242 1.390 . S
C2251 H2244 0.950 . S
C2251 C2248 1.387 . S
C2252 C2253 1.387 . S
C2252 H2256 0.950 . S
C2252 C2261 1.390 . S
C2253 C2252 1.387 . S
C2253 C2255 1.387 . S
H2254 C2261 0.950 . S
C2255 C2253 1.387 . S
C2255 C2257 1.390 . S
C2255 H2259 0.950 . S
H2256 C2252 0.950 . S
C2257 C2255 1.390 . S
C2257 C2258 1.387 . S
C2257 H2260 0.950 . S
C2258 C2257 1.387 . S
C2258 C2261 1.387 . S
H2259 C2255 0.950 . S
H2260 C2257 0.950 . S
C2261 C2252 1.390 . S
C2261 H2254 0.950 . S
C2261 C2258 1.387 . S
C2262 C2263 1.387 . S
C2262 H2266 0.950 . S
C2262 C2271 1.390 . S
C2263 C2262 1.387 . S
C2263 C2265 1.387 . S
H2264 C2271 0.950 . S
C2265 C2263 1.387 . S
C2265 C2267 1.390 . S
C2265 H2269 0.950 . S
H2266 C2262 0.950 . S
C2267 C2265 1.390 . S
C2267 C2268 1.387 . S
C2267 H2270 0.950 . S
C2268 C2267 1.387 . S
C2268 C2271 1.387 . S
H2269 C2265 0.950 . S
H2270 C2267 0.950 . S
C2271 C2262 1.390 . S
C2271 H2264 0.950 . S
C2271 C2268 1.387 . S
C2272 C2273 1.387 . S
C2272 H2276 0.950 . S
C2272 C2281 1.390 . S
C2273 C2272 1.387 . S
C2273 C2275 1.387 . S
H2274 C2281 0.950 . S
C2275 C2273 1.387 . S
C2275 C2277 1.390 . S
C2275 H2279 0.950 . S
H2276 C2272 0.950 . S
C2277 C2275 1.390 . S
C2277 C2278 1.387 . S
C2277 H2280 0.950 . S
C2278 C2277 1.387 . S
C2278 C2281 1.387 . S
H2279 C2275 0.950 . S
H2280 C2277 0.950 . S
C2281 C2272 1.390 . S
C2281 H2274 0.950 . S
C2281 C2278 1.387 . S
C2282 C2283 1.387 . S
C2282 H2286 0.950 . S
C2282 C2291 1.390 . S
C2283 C2282 1.387 . S
C2283 C2285 1.387 . S
H2284 C2291 0.950 . S
C2285 C2283 1.387 . S
C2285 C2287 1.390 . S
C2285 H2289 0.950 . S
H2286 C2282 0.950 . S
C2287 C2285 1.390 . S
C2287 C2288 1.387 . S
C2287 H2290 0.950 . S
C2288 C2287 1.387 . S
C2288 C2291 1.387 . S
H2289 C2285 0.950 . S
H2290 C2287 0.950 . S
C2291 C2282 1.390 . S
C2291 H2284 0.950 . S
C2291 C2288 1.387 . S
C2292 C2293 1.387 . S
C2292 H2296 0.950 . S
C2292 C2301 1.390 . S
C2293 C2292 1.387 . S
C2293 C2295 1.387 . S
H2294 C2301 0.950 . S
C2295 C2293 1.387 . S
C2295 C2297 1.390 . S
C2295 H2299 0.950 . S
H2296 C2292 0.950 . S
C2297 C2295 1.390 . S
C2297 C2298 1.387 . S
C2297 H2300 0.950 . S
C2298 C2297 1.387 . S
C2298 C2301 1.387 . S
H2299 C2295 0.950 . S
H2300 C2297 0.950 . S
C2301 C2292 1.390 . S
C2301 H2294 0.950 . S
C2301 C2298 1.387 . S
C2302 C2303 1.387 . S
C2302 H2306 0.950 . S
C2302 C2311 1.390 . S
C2303 C2302 1.387 . S
C2303 C2305 1.387 . S
H2304 C2311 0.950 . S
C2305 C2303 1.387 . S
C2305 C2307 1.390 . S
C2305 H2309 0.950 . S
H2306 C2302 0.950 . S
C2307 C2305 1.390 . S
C2307 C2308 1.387 . S
C2307 H2310 0.950 . S
C2308 C2307 1.387 . S
C2308 C2311 1.387 . S
H2309 C2305 0.950 . S
H2310 C2307 0.950 . S
C2311 C2302 1.390 . S
C2311 H2304 0.950 . S
C2311 C2308 1.387 . S
C2312 C2313 1.387 . S
C2312 H2316 0.950 . S
C2312 C2321 1.390 . S
C2313 C2312 1.387 . S
C2313 C2315 1.387 . S
H2314 C2321 0.950 . S
C2315 C2313 1.387 . S
C2315 C2317 1.390 . S
C2315 H2319 0.950 . S
H2316 C2312 0.950 . S
C2317 C2315 1.390 . S
C2317 C2318 1.387 . S
C2317 H2320 0.950 . S
C2318 C2317 1.387 . S
C2318 C2321 1.387 . S
H2319 C2315 0.950 . S
H2320 C2317 0.950 . S
C2321 C2312 1.390 . S
C2321 H2314 0.950 . S
C2321 C2318 1.387 . S
C2322 C2323 1.387 . S
C2322 H2326 0.950 . S
C2322 C2331 1.390 . S
C2323 C2322 1.387 . S
C2323 C2325 1.387 . S
H2324 C2331 0.950 . S
C2325 C2323 1.387 . S
C2325 C2327 1.390 . S
C2325 H2329 0.950 . S
H2326 C2322 0.950 . S
C2327 C2325 1.390 . S
C2327 C2328 1.387 . S
C2327 H2330 0.950 . S
C2328 C2327 1.387 . S
C2328 C2331 1.387 . S
H2329 C2325 0.950 . S
H2330 C2327 0.950 . S
C2331 C2322 1.390 . S
C2331 H2324 0.950 . S
C2331 C2328 1.387 . S
C2332 C2333 1.387 . S
C2332 H2336 0.950 . S
C2332 C2341 1.390 . S
C2333 C2332 1.387 . S
C2333 C2335 1.387 . S
H2334 C2341 0.950 . S
C2335 C2333 1.387 . S
C2335 C2337 1.390 . S
C2335 H2339 0.950 . S
H2336 C2332 0.950 . S
C2337 C2335 1.390 . S
C2337 C2338 1.387 . S
C2337 H2340 0.950 . S
C2338 C2337 1.387 . S
C2338 C2341 1.387 . S
H2339 C2335 0.950 . S
H2340 C2337 0.950 . S
C2341 C2332 1.390 . S
C2341 H2334 0.950 . S
C2341 C2338 1.387 . S
C2342 C2343 1.387 . S
C2342 H2346 0.950 . S
C2342 C2351 1.390 . S
C2343 C2342 1.387 . S
C2343 C2345 1.387 . S
H2344 C2351 0.950 . S
C2345 C2343 1.387 . S
C2345 C2347 1.390 . S
C2345 H2349 0.950 . S
H2346 C2342 0.950 . S
C2347 C2345 1.390 . S
C2347 C2348 1.387 . S
C2347 H2350 0.950 . S
C2348 C2347 1.387 . S
C2348 C2351 1.387 . S
H2349 C2345 0.950 . S
H2350 C2347 0.950 . S
C2351 C2342 1.390 . S
C2351 H2344 0.950 . S
C2351 C2348 1.387 . S
C2352 C2353 1.387 . S
C2352 H2356 0.950 . S
C2352 C2361 1.390 . S
C2353 C2352 1.387 . S
C2353 C2355 1.387 . S
H2354 C2361 0.950 . S
C2355 C2353 1.387 . S
C2355 C2357 1.390 . S
C2355 H2359 0.950 . S
H2356 C2352 0.950 . S
C2357 C2355 1.390 . S
C2357 C2358 1.387 . S
C2357 H2360 0.950 . S
C2358 C2357 1.387 . S
C2358 C2361 1.387 . S
H2359 C2355 0.950 . S
H2360 C2357 0.950 . S
C2361 C2352 1.390 . S
C2361 H2354 0.950 . S
C2361 C2358 1.387 . S
C2362 C2363 1.387 . S
C2362 H2366 0.950 . S
C2362 C2371 1.390 . S
C2363 C2362 1.387 . S
C2363 C2365 1.387 . S
H2364 C2371 0.950 . S
C2365 C2363 1.387 . S
C2365 C2367 1.390 . S
C2365 H2369 0.950 . S
H2366 C2362 0.950 . S
C2367 C2365 1.390 . S
C2367 C2368 1.387 . S
C2367 H2370 0.950 . S
C2368 C2367 1.387 . S
C2368 C2371 1.387 . S
H2369 C2365 0.950 . S
H2370 C2367 0.950 . S
C2371 C2362 1.390 . S
C2371 H2364 0.950 . S
C2371 C2368 1.387 . S
C2372 C2373 1.387 . S
C2372 H2376 0.950 . S
C2372 C2381 1.390 . S
C2373 C2372 1.387 . S
C2373 C2375 1.387 . S
H2374 C2381 0.950 . S
C2375 C2373 1.387 . S
C2375 C2377 1.390 . S
C2375 H2379 0.950 . S
H2376 C2372 0.950 . S
C2377 C2375 1.390 . S
C2377 C2378 1.387 . S
C2377 H2380 0.950 . S
C2378 C2377 1.387 . S
C2378 C2381 1.387 . S
H2379 C2375 0.950 . S
H2380 C2377 0.950 . S
C2381 C2372 1.390 . S
C2381 H2374 0.950 . S
C2381 C2378 1.387 . S
C2382 C2383 1.387 . S
C2382 H2386 0.950 . S
C2382 C2391 1.390 . S
C2383 C2382 1.387 . S
C2383 C2385 1.387 . S
H2384 C2391 0.950 . S
C2385 C2383 1.387 . S
C2385 C2387 1.390 . S
C2385 H2389 0.950 . S
H2386 C2382 0.950 . S
C2387 C2385 1.390 . S
C2387 C2388 1.387 . S
C2387 H2390 0.950 . S
C2388 C2387 1.387 . S
C2388 C2391 1.387 . S
H2389 C2385 0.950 . S
H2390 C2387 0.950 . S
C2391 C2382 1.390 . S
C2391 H2384 0.950 . S
C2391 C2388 1.387 . S
C2392 C2393 1.387 . S
C2392 H2396 0.950 . S
C2392 C2401 1.390 . S
C2393 C2392 1.387 . S
C2393 C2395 1.387 . S
H2394 C2401 0.950 . S
C2395 C2393 1.387 . S
C2395 C2397 1.390 . S
C2395 H2399 0.950 . S
H2396 C2392 0.950 . S
C2397 C2395 1.390 . S
C2397 C2398 1.387 . S
C2397 H2400 0.950 . S
C2398 C2397 1.387 . S
C2398 C2401 1.387 . S
H2399 C2395 0.950 . S
H2400 C2397 0.950 . S
C2401 C2392 1.390 . S
C2401 H2394 0.950 . S
C2401 C2398 1.387 . S
C2402 C2403 1.387 . S
C2402 H2406 0.950 . S
C2402 C2411 1.390 . S
C2403 C2402 1.387 . S
C2403 C2405 1.387 . S
H2404 C2411 0.950 . S
C2405 C2403 1.387 . S
C2405 C2407 1.390 . S
C2405 H2409 0.950 . S
H2406 C2402 0.950 . S
C2407 C2405 1.390 . S
C2407 C2408 1.387 . S
C2407 H2410 0.950 . S
C2408 C2407 1.387 . S
C2408 C2411 1.387 . S
H2409 C2405 0.950 . S
H2410 C2407 0.950 . S
C2411 C2402 1.390 . S
C2411 H2404 0.950 . S
C2411 C2408 1.387 . S
C2412 C2413 1.387 . S
C2412 H2416 0.950 . S
C2412 C2421 1.390 . S
C2413 C2412 1.387 . S
C2413 C2415 1.387 . S
H2414 C2421 0.950 . S
C2415 C2413 1.387 . S
C2415 C2417 1.390 . S
C2415 H2419 0.950 . S
H2416 C2412 0.950 . S
C2417 C2415 1.390 . S
C2417 C2418 1.387 . S
C2417 H2420 0.950 . S
C2418 C2417 1.387 . S
C2418 C2421 1.387 . S
H2419 C2415 0.950 . S
H2420 C2417 0.950 . S
C2421 C2412 1.390 . S
C2421 H2414 0.950 . S
C2421 C2418 1.387 . S
C2422 C2423 1.387 . S
C2422 H2426 0.950 . S
C2422 C2431 1.390 . S
C2423 C2422 1.387 . S
C2423 C2425 1.387 . S
H2424 C2431 0.950 . S
C2425 C2423 1.387 . S
C2425 C2427 1.390 . S
C2425 H2429 0.950 . S
H2426 C2422 0.950 . S
C2427 C2425 1.390 . S
C2427 C2428 1.387 . S
C2427 H2430 0.950 . S
C2428 C2427 1.387 . S
C2428 C2431 1.387 . S
H2429 C2425 0.950 . S
H2430 C2427 0.950 . S
C2431 C2422 1.390 . S
C2431 H2424 0.950 . S
C2431 C2428 1.387 . S
C2432 C2433 1.387 . S
C2432 H2436 0.950 . S
C2432 C2441 1.390 . S
C2433 C2432 1.387 . S
C2433 C2435 1.387 . S
H2434 C2441 0.950 . S
C2435 C2433 1.387 . S
C2435 C2437 1.390 . S
C2435 H2439 0.950 . S
H2436 C2432 0.950 . S
C2437 C2435 1.390 . S
C2437 C2438 1.387 . S
C2437 H2440 0.950 . S
C2438 C2437 1.387 . S
C2438 C2441 1.387 . S
H2439 C2435 0.950 . S
H2440 C2437 0.950 . S
C2441 C2432 1.390 . S
C2441 H2434 0.950 . S
C2441 C2438 1.387 . S
C2442 C2443 1.387 . S
C2442 H2446 0.950 . S
C2442 C2451 1.390 . S
C2443 C2442 1.387 . S
C2443 C2445 1.387 . S
H2444 C2451 0.950 . S
C2445 C2443 1.387 . S
C2445 C2447 1.390 . S
C2445 H2449 0.950 . S
H2446 C2442 0.950 . S
C2447 C2445 1.390 . S
C2447 C2448 1.387 . S
C2447 H2450 0.950 . S
C2448 C2447 1.387 . S
C2448 C2451 1.387 . S
H2449 C2445 0.950 . S
H2450 C2447 0.950 . S
C2451 C2442 1.390 . S
C2451 H2444 0.950 . S
C2451 C2448 1.387 . S
C2452 C2453 1.387 . S
C2452 H2456 0.950 . S
C2452 C2461 1.390 . S
C2453 C2452 1.387 . S
C2453 C2455 1.387 . S
H2454 C2461 0.950 . S
C2455 C2453 1.387 . S
C2455 C2457 1.390 . S
C2455 H2459 0.950 . S
H2456 C2452 0.950 . S
C2457 C2455 1.390 . S
C2457 C2458 1.387 . S
C2457 H2460 0.950 . S
C2458 C2457 1.387 . S
C2458 C2461 1.387 . S
H2459 C2455 0.950 . S
H2460 C2457 0.950 . S
C2461 C2452 1.390 . S
C2461 H2454 0.950 . S
C2461 C2458 1.387 . S
C2462 C2463 1.387 . S
C2462 H2466 0.950 . S
C2462 C2471 1.390 . S
C2463 C2462 1.387 . S
C2463 C2465 1.387 . S
H2464 C2471 0.950 . S
C2465 C2463 1.387 . S
C2465 C2467 1.390 . S
C2465 H2469 0.950 . S
H2466 C2462 0.950 . S
C2467 C2465 1.390 . S
C2467 C2468 1.387 . S
C2467 H2470 0.950 . S
C2468 C2467 1.387 . S
C2468 C2471 1.387 . S
H2469 C2465 0.950 . S
H2470 C2467 0.950 . S
C2471 C2462 1.390 . S
C2471 H2464 0.950 . S
C2471 C2468 1.387 . S
C2472 C2473 1.387 . S
C2472 H2476 0.950 . S
C2472 C2481 1.390 . S
C2473 C2472 1.387 . S
C2473 C2475 1.387 . S
H2474 C2481 0.950 . S
C2475 C2473 1.387 . S
C2475 C2477 1.390 . S
C2475 H2479 0.950 . S
H2476 C2472 0.950 . S
C2477 C2475 1.390 . S
C2477 C2478 1.387 . S
C2477 H2480 0.950 . S
C2478 C2477 1.387 . S
C2478 C2481 1.387 . S
H2479 C2475 0.950 . S
H2480 C2477 0.950 . S
C2481 C2472 1.390 . S
C2481 H2474 0.950 . S
C2481 C2478 1.387 . S
C2482 C2483 1.387 . S
C2482 H2486 0.950 . S
C2482 C2491 1.390 . S
C2483 C2482 1.387 . S
C2483 C2485 1.387 . S
H2484 C2491 0.950 . S
C2485 C2483 1.387 . S
C2485 C2487 1.390 . S
C2485 H2489 0.950 . S
H2486 C2482 0.950 . S
C2487 C2485 1.390 . S
C2487 C2488 1.387 . S
C2487 H2490 0.950 . S
C2488 C2487 1.387 . S
C2488 C2491 1.387 . S
H2489 C2485 0.950 . S
H2490 C2487 0.950 . S
C2491 C2482 1.390 . S
C2491 H2484 0.950 . S
C2491 C2488 1.387 . S
C2492 C2493 1.387 . S
C2492 H2496 0.950 . S
C2492 C2501 1.390 . S
C2493 C2492 1.387 . S
C2493 C2495 1.387 . S
H2494 C2501 0.950 . S
C2495 C2493 1.387 . S
C2495 C2497 1.390 . S
C2495 H2499 0.950 . S
H2496 C2492 0.950 . S
C2497 C2495 1.390 . S
C2497 C2498 1.387 . S
C2497 H2500 0.950 . S
C2498 C2497 1.387 . S
C2498 C2501 1.387 . S
H2499 C2495 0.950 . S
H2500 C2497 0.950 . S
C2501 C2492 1.390 . S
C2501 H2494 0.950 . S
C2501 C2498 1.387 . S
C2502 C2503 1.387 . S
C2502 H2506 0.950 . S
C2502 C2511 1.390 . S
C2503 C2502 1.387 . S
C2503 C2505 1.387 . S
H2504 C2511 0.950 . S
C2505 C2503 1.387 . S
C2505 C2507 1.390 . S
C2505 H2509 0.950 . S
H2506 C2502 0.950 . S
C2507 C2505 1.390 . S
C2507 C2508 1.387 . S
C2507 H2510 0.950 . S
C2508 C2507 1.387 . S
C2508 C2511 1.387 . S
H2509 C2505 0.950 . S
H2510 C2507 0.950 . S
C2511 C2502 1.390 . S
C2511 H2504 0.950 . S
C2511 C2508 1.387 . S
C2512 C2513 1.387 . S
C2512 H2516 0.950 . S
C2512 C2521 1.390 . S
C2513 C2512 1.387 . S
C2513 C2515 1.387 . S
H2514 C2521 0.950 . S
C2515 C2513 1.387 . S
C2515 C2517 1.390 . S
C2515 H2519 0.950 . S
H2516 C2512 0.950 . S
C2517 C2515 1.390 . S
C2517 C2518 1.387 . S
C2517 H2520 0.950 . S
C2518 C2517 1.387 . S
C2518 C2521 1.387 . S
H2519 C2515 0.950 . S
H2520 C2517 0.950 . S
C2521 C2512 1.390 . S
C2521 H2514 0.950 . S
C2521 C2518 1.387 . S
C2522 C2523 1.387 . S
C2522 H2526 0.950 . S
C2522 C2531 1.390 . S
C2523 C2522 1.387 . S
C2523 C2525 1.387 . S
H2524 C2531 0.950 . S
C2525 C2523 1.387 . S
C2525 C2527 1.390 . S
C2525 H2529 0.950 . S
H2526 C2522 0.950 . S
C2527 C2525 1.390 . S
C2527 C2528 1.387 . S
C2527 H2530 0.950 . S
C2528 C2527 1.387 . S
C2528 C2531 1.387 . S
H2529 C2525 0.950 . S
H2530 C2527 0.950 . S
C2531 C2522 1.390 . S
C2531 H2524 0.950 . S
C2531 C2528 1.387 . S
C2532 C2533 1.387 . S
C2532 H2536 0.950 . S
C2532 C2541 1.390 . S
C2533 C2532 1.387 . S
C2533 C2535 1.387 . S
H2534 C2541 0.950 . S
C2535 C2533 1.387 . S
C2535 C2537 1.390 . S
C2535 H2539 0.950 . S
H2536 C2532 0.950 . S
C2537 C2535 1.390 . S
C2537 C2538 1.387 . S
C2537 H2540 0.950 . S
C2538 C2537 1.387 . S
C2538 C2541 1.387 . S
H2539 C2535 0.950 . S
H2540 C2537 0.950 . S
C2541 C2532 1.390 . S
C2541 H2534 0.950 . S
C2541 C2538 1.387 . S
C2542 C2543 1.387 . S
C2542 H2546 0.950 . S
C2542 C2551 1.390 . S
C2543 C2542 1.387 . S
C2543 C2545 1.387 . S
H2544 C2551 0.950 . S
C2545 C2543 1.387 . S
C2545 C2547 1.390 . S
C2545 H2549 0.950 . S
H2546 C2542 0.950 . S
C2547 C2545 1.390 . S
C2547 C2548 1.387 . S
C2547 H2550 0.950 . S
C2548 C2547 1.387 . S
C2548 C2551 1.387 . S
H2549 C2545 0.950 . S
H2550 C2547 0.950 . S
C2551 C2542 1.390 . S
C2551 H2544 0.950 . S
C2551 C2548 1.387 . S
C2552 C2553 1.387 . S
C2552 H2556 0.950 . S
C2552 C2561 1.390 . S
C2553 C2552 1.387 . S
C2553 C2555 1.387 . S
H2554 C2561 0.950 . S
C2555 C2553 1.387 . S
C2555 C2557 1.390 . S
C2555 H2559 0.950 . S
H2556 C2552 0.950 . S
C2557 C2555 1.390 . S
C2557 C2558 1.387 . S
C2557 H2560 0.950 . S
C2558 C2557 1.387 . S
C2558 C2561 1.387 . S
H2559 C2555 0.950 . S
H2560 C2557 0.950 . S
C2561 C2552 1.390 . S
C2561 H2554 0.950 . S
C2561 C2558 1.387 . S
C2562 C2563 1.387 . S
C2562 H2566 0.950 . S
C2562 C2571 1.390 . S
C2563 C2562 1.387 . S
C2563 C2565 1.387 . S
H2564 C2571 0.950 . S
C2565 C2563 1.387 . S
C2565 C2567 1.390 . S
C2565 H2569 0.950 . S
H2566 C2562 0.950 . S
C2567 C2565 1.390 . S
C2567 C2568 1.387 . S
C2567 H2570 0.950 . S
C2568 C2567 1.387 . S
C2568 C2571 1.387 . S
H2569 C2565 0.950 . S
H2570 C2567 0.950 . S
C2571 C2562 1.390 . S
C2571 H2564 0.950 . S
C2571 C2568 1.387 . S
C2572 C2573 1.387 . S
C2572 H2576 0.950 . S
C2572 C2581 1.390 . S
C2573 C2572 1.387 . S
C2573 C2575 1.387 . S
H2574 C2581 0.950 . S
C2575 C2573 1.387 . S
C2575 C2577 1.390 . S
C2575 H2579 0.950 . S
H2576 C2572 0.950 . S
C2577 C2575 1.390 . S
C2577 C2578 1.387 . S
C2577 H2580 0.950 . S
C2578 C2577 1.387 . S
C2578 C2581 1.387 . S
H2579 C2575 0.950 . S
H2580 C2577 0.950 . S
C2581 C2572 1.390 . S
C2581 H2574 0.950 . S
C2581 C2578 1.387 . S
C2582 C2583 1.387 . S
C2582 H2586 0.950 . S
C2582 C2591 1.390 . S
C2583 C2582 1.387 . S
C2583 C2585 1.387 . S
H2584 C2591 0.950 . S
C2585 C2583 1.387 . S
C2585 C2587 1.390 . S
C2585 H2589 0.950 . S
H2586 C2582 0.950 . S
C2587 C2585 1.390 . S
C2587 C2588 1.387 . S
C2587 H2590 0.950 . S
C2588 C2587 1.387 . S
C2588 C2591 1.387 . S
H2589 C2585 0.950 . S
H2590 C2587 0.950 . S
C2591 C2582 1.390 . S
C2591 H2584 0.950 . S
C2591 C2588 1.387 . S
C2592 C2593 1.387 1_455 S
C2592 H2596 0.950 . S
C2592 C2601 1.390 1_565 S
C2593 C2592 1.387 1_655 S
C2593 C2595 1.387 . S
H2594 C2601 0.950 . S
C2595 C2593 1.387 . S
C2595 C2597 1.390 1_565 S
C2595 H2599 0.950 . S
H2596 C2592 0.950 . S
C2597 C2595 1.390 1_545 S
C2597 C2598 1.387 . S
C2597 H2600 0.950 . S
C2598 C2597 1.387 . S
C2598 C2601 1.387 1_655 S
H2599 C2595 0.950 . S
H2600 C2597 0.950 . S
C2601 C2592 1.390 1_545 S
C2601 H2594 0.950 . S
C2601 C2598 1.387 1_455 S
C2602 C2603 1.387 . S
C2602 H2606 0.950 . S
C2602 C2611 1.390 . S
C2603 C2602 1.387 . S
C2603 C2605 1.387 . S
H2604 C2611 0.950 . S
C2605 C2603 1.387 . S
C2605 C2607 1.390 . S
C2605 H2609 0.950 . S
H2606 C2602 0.950 . S
C2607 C2605 1.390 . S
C2607 C2608 1.387 . S
C2607 H2610 0.950 . S
C2608 C2607 1.387 . S
C2608 C2611 1.387 . S
H2609 C2605 0.950 . S
H2610 C2607 0.950 . S
C2611 C2602 1.390 . S
C2611 H2604 0.950 . S
C2611 C2608 1.387 . S
C2612 C2613 1.387 . S
C2612 H2616 0.950 . S
C2612 C2621 1.390 1_545 S
C2613 C2612 1.387 . S
C2613 C2615 1.387 . S
H2614 C2621 0.950 . S
C2615 C2613 1.387 . S
C2615 C2617 1.390 1_545 S
C2615 H2619 0.950 . S
H2616 C2612 0.950 . S
C2617 C2615 1.390 1_565 S
C2617 C2618 1.387 . S
C2617 H2620 0.950 . S
C2618 C2617 1.387 . S
C2618 C2621 1.387 . S
H2619 C2615 0.950 . S
H2620 C2617 0.950 . S
C2621 C2612 1.390 1_565 S
C2621 H2614 0.950 . S
C2621 C2618 1.387 . S
C2622 C2623 1.387 . S
C2622 H2626 0.950 . S
C2622 C2631 1.390 1_556 S
C2623 C2622 1.387 . S
C2623 C2625 1.387 . S
H2624 C2631 0.950 . S
C2625 C2623 1.387 . S
C2625 C2627 1.390 1_556 S
C2625 H2629 0.950 . S
H2626 C2622 0.950 . S
C2627 C2625 1.390 1_554 S
C2627 C2628 1.387 . S
C2627 H2630 0.950 . S
C2628 C2627 1.387 . S
C2628 C2631 1.387 . S
H2629 C2625 0.950 . S
H2630 C2627 0.950 . S
C2631 C2622 1.390 1_554 S
C2631 H2624 0.950 . S
C2631 C2628 1.387 . S
C2632 C2633 1.387 . S
C2632 H2636 0.950 . S
C2632 C2641 1.390 1_556 S
C2633 C2632 1.387 . S
C2633 C2635 1.387 1_565 S
H2634 C2641 0.950 . S
C2635 C2633 1.387 1_545 S
C2635 C2637 1.390 1_556 S
C2635 H2639 0.950 . S
H2636 C2632 0.950 . S
C2637 C2635 1.390 1_554 S
C2637 C2638 1.387 1_545 S
C2637 H2640 0.950 . S
C2638 C2637 1.387 1_565 S
C2638 C2641 1.387 . S
H2639 C2635 0.950 . S
H2640 C2637 0.950 . S
C2641 C2632 1.390 1_554 S
C2641 H2634 0.950 . S
C2641 C2638 1.387 . S
C2642 C2643 1.387 . S
C2642 H2646 0.950 . S
C2642 C2651 1.390 1_545 S
C2643 C2642 1.387 . S
C2643 C2645 1.387 . S
H2644 C2651 0.950 . S
C2645 C2643 1.387 . S
C2645 C2647 1.390 1_545 S
C2645 H2649 0.950 . S
H2646 C2642 0.950 . S
C2647 C2645 1.390 1_565 S
C2647 C2648 1.387 . S
C2647 H2650 0.950 . S
C2648 C2647 1.387 . S
C2648 C2651 1.387 . S
H2649 C2645 0.950 . S
H2650 C2647 0.950 . S
C2651 C2642 1.390 1_565 S
C2651 H2644 0.950 . S
C2651 C2648 1.387 . S
C2652 C2653 1.387 . S
C2652 H2656 0.950 . S
C2652 C2661 1.390 . S
C2653 C2652 1.387 . S
C2653 C2655 1.387 1_545 S
H2654 C2661 0.950 . S
C2655 C2653 1.387 1_565 S
C2655 C2657 1.390 . S
C2655 H2659 0.950 . S
H2656 C2652 0.950 . S
C2657 C2655 1.390 . S
C2657 C2658 1.387 1_565 S
C2657 H2660 0.950 . S
C2658 C2657 1.387 1_545 S
C2658 C2661 1.387 . S
H2659 C2655 0.950 . S
H2660 C2657 0.950 . S
C2661 C2652 1.390 . S
C2661 H2654 0.950 . S
C2661 C2658 1.387 . S
C2662 C2663 1.387 . S
C2662 H2666 0.950 . S
C2662 C2671 1.390 1_545 S
C2663 C2662 1.387 . S
C2663 C2665 1.387 . S
H2664 C2671 0.950 . S
C2665 C2663 1.387 . S
C2665 C2667 1.390 1_545 S
C2665 H2669 0.950 . S
H2666 C2662 0.950 . S
C2667 C2665 1.390 1_565 S
C2667 C2668 1.387 . S
C2667 H2670 0.950 . S
C2668 C2667 1.387 . S
C2668 C2671 1.387 . S
H2669 C2665 0.950 . S
H2670 C2667 0.950 . S
C2671 C2662 1.390 1_565 S
C2671 H2664 0.950 . S
C2671 C2668 1.387 . S
C2672 C2673 1.387 . S
C2672 H2676 0.950 . S
C2672 C2681 1.390 1_455 S
C2673 C2672 1.387 . S
C2673 C2675 1.387 1_556 S
H2674 C2681 0.950 . S
C2675 C2673 1.387 1_554 S
C2675 C2677 1.390 1_455 S
C2675 H2679 0.950 . S
H2676 C2672 0.950 . S
C2677 C2675 1.390 1_655 S
C2677 C2678 1.387 1_554 S
C2677 H2680 0.950 . S
C2678 C2677 1.387 1_556 S
C2678 C2681 1.387 . S
H2679 C2675 0.950 . S
H2680 C2677 0.950 . S
C2681 C2672 1.390 1_655 S
C2681 H2674 0.950 . S
C2681 C2678 1.387 . S
C2682 C2683 1.387 1_556 S
C2682 H2686 0.950 . S
C2682 C2691 1.390 . S
C2683 C2682 1.387 1_554 S
C2683 C2685 1.387 . S
H2684 C2691 0.950 . S
C2685 C2683 1.387 . S
C2685 C2687 1.390 . S
C2685 H2689 0.950 . S
H2686 C2682 0.950 . S
C2687 C2685 1.390 . S
C2687 C2688 1.387 . S
C2687 H2690 0.950 . S
C2688 C2687 1.387 . S
C2688 C2691 1.387 1_554 S
H2689 C2685 0.950 . S
H2690 C2687 0.950 . S
C2691 C2682 1.390 . S
C2691 H2684 0.950 . S
C2691 C2688 1.387 1_556 S
C2692 C2693 1.387 . S
C2692 H2696 0.950 . S
C2692 C2701 1.390 1_655 S
C2693 C2692 1.387 . S
C2693 C2695 1.387 . S
H2694 C2701 0.950 . S
C2695 C2693 1.387 . S
C2695 C2697 1.390 1_655 S
C2695 H2699 0.950 . S
H2696 C2692 0.950 . S
C2697 C2695 1.390 1_455 S
C2697 C2698 1.387 . S
C2697 H2700 0.950 . S
C2698 C2697 1.387 . S
C2698 C2701 1.387 . S
H2699 C2695 0.950 . S
H2700 C2697 0.950 . S
C2701 C2692 1.390 1_455 S
C2701 H2694 0.950 . S
C2701 C2698 1.387 . S
C2702 C2703 1.387 . S
C2702 H2706 0.950 . S
C2702 C2711 1.390 1_455 S
C2703 C2702 1.387 . S
C2703 C2705 1.387 . S
H2704 C2711 0.950 . S
C2705 C2703 1.387 . S
C2705 C2707 1.390 1_455 S
C2705 H2709 0.950 . S
H2706 C2702 0.950 . S
C2707 C2705 1.390 1_655 S
C2707 C2708 1.387 . S
C2707 H2710 0.950 . S
C2708 C2707 1.387 . S
C2708 C2711 1.387 . S
H2709 C2705 0.950 . S
H2710 C2707 0.950 . S
C2711 C2702 1.390 1_655 S
C2711 H2704 0.950 . S
C2711 C2708 1.387 . S
C2712 C2713 1.387 . S
C2712 H2716 0.950 . S
C2712 C2721 1.390 . S
C2713 C2712 1.387 . S
C2713 C2715 1.387 . S
H2714 C2721 0.950 . S
C2715 C2713 1.387 . S
C2715 C2717 1.390 . S
C2715 H2719 0.950 . S
H2716 C2712 0.950 . S
C2717 C2715 1.390 . S
C2717 C2718 1.387 . S
C2717 H2720 0.950 . S
C2718 C2717 1.387 . S
C2718 C2721 1.387 . S
H2719 C2715 0.950 . S
H2720 C2717 0.950 . S
C2721 C2712 1.390 . S
C2721 H2714 0.950 . S
C2721 C2718 1.387 . S
C2722 C2723 1.387 . S
C2722 H2726 0.950 . S
C2722 C2731 1.390 1_455 S
C2723 C2722 1.387 . S
C2723 C2725 1.387 . S
H2724 C2731 0.950 . S
C2725 C2723 1.387 . S
C2725 C2727 1.390 1_455 S
C2725 H2729 0.950 . S
H2726 C2722 0.950 . S
C2727 C2725 1.390 1_655 S
C2727 C2728 1.387 . S
C2727 H2730 0.950 . S
C2728 C2727 1.387 . S
C2728 C2731 1.387 . S
H2729 C2725 0.950 . S
H2730 C2727 0.950 . S
C2731 C2722 1.390 1_655 S
C2731 H2724 0.950 . S
C2731 C2728 1.387 . S
C2732 C2733 1.387 . S
C2732 H2736 0.950 . S
C2732 C2741 1.390 . S
C2733 C2732 1.387 . S
C2733 C2735 1.387 . S
H2734 C2741 0.950 . S
C2735 C2733 1.387 . S
C2735 C2737 1.390 . S
C2735 H2739 0.950 . S
H2736 C2732 0.950 . S
C2737 C2735 1.390 . S
C2737 C2738 1.387 . S
C2737 H2740 0.950 . S
C2738 C2737 1.387 . S
C2738 C2741 1.387 . S
H2739 C2735 0.950 . S
H2740 C2737 0.950 . S
C2741 C2732 1.390 . S
C2741 H2734 0.950 . S
C2741 C2738 1.387 . S
C2742 C2743 1.387 . S
C2742 H2746 0.950 . S
C2742 C2751 1.390 . S
C2743 C2742 1.387 . S
C2743 C2745 1.387 . S
H2744 C2751 0.950 . S
C2745 C2743 1.387 . S
C2745 C2747 1.390 . S
C2745 H2749 0.950 . S
H2746 C2742 0.950 . S
C2747 C2745 1.390 . S
C2747 C2748 1.387 . S
C2747 H2750 0.950 . S
C2748 C2747 1.387 . S
C2748 C2751 1.387 . S
H2749 C2745 0.950 . S
H2750 C2747 0.950 . S
C2751 C2742 1.390 . S
C2751 H2744 0.950 . S
C2751 C2748 1.387 . S
C2752 C2753 1.387 . S
C2752 H2756 0.950 . S
C2752 C2761 1.390 1_554 S
C2753 C2752 1.387 . S
C2753 C2755 1.387 . S
H2754 C2761 0.950 . S
C2755 C2753 1.387 . S
C2755 C2757 1.390 1_554 S
C2755 H2759 0.950 . S
H2756 C2752 0.950 . S
C2757 C2755 1.390 1_556 S
C2757 C2758 1.387 . S
C2757 H2760 0.950 . S
C2758 C2757 1.387 . S
C2758 C2761 1.387 . S
H2759 C2755 0.950 . S
H2760 C2757 0.950 . S
C2761 C2752 1.390 1_556 S
C2761 H2754 0.950 . S
C2761 C2758 1.387 . S
C2762 C2763 1.387 . S
C2762 H2766 0.950 . S
C2762 C2771 1.390 . S
C2763 C2762 1.387 . S
C2763 C2765 1.387 1_455 S
H2764 C2771 0.950 . S
C2765 C2763 1.387 1_655 S
C2765 C2767 1.390 . S
C2765 H2769 0.950 . S
H2766 C2762 0.950 . S
C2767 C2765 1.390 . S
C2767 C2768 1.387 1_655 S
C2767 H2770 0.950 . S
C2768 C2767 1.387 1_455 S
C2768 C2771 1.387 . S
H2769 C2765 0.950 . S
H2770 C2767 0.950 . S
C2771 C2762 1.390 . S
C2771 H2764 0.950 . S
C2771 C2768 1.387 . S
C2772 C2773 1.387 . S
C2772 H2776 0.950 . S
C2772 C2781 1.390 . S
C2773 C2772 1.387 . S
C2773 C2775 1.387 . S
H2774 C2781 0.950 . S
C2775 C2773 1.387 . S
C2775 C2777 1.390 . S
C2775 H2779 0.950 . S
H2776 C2772 0.950 . S
C2777 C2775 1.390 . S
C2777 C2778 1.387 . S
C2777 H2780 0.950 . S
C2778 C2777 1.387 . S
C2778 C2781 1.387 . S
H2779 C2775 0.950 . S
H2780 C2777 0.950 . S
C2781 C2772 1.390 . S
C2781 H2774 0.950 . S
C2781 C2778 1.387 . S
C2782 C2783 1.387 . S
C2782 H2786 0.950 . S
C2782 C2791 1.390 . S
C2783 C2782 1.387 . S
C2783 C2785 1.387 . S
H2784 C2791 0.950 . S
C2785 C2783 1.387 . S
C2785 C2787 1.390 . S
C2785 H2789 0.950 . S
H2786 C2782 0.950 . S
C2787 C2785 1.390 . S
C2787 C2788 1.387 . S
C2787 H2790 0.950 . S
C2788 C2787 1.387 . S
C2788 C2791 1.387 . S
H2789 C2785 0.950 . S
H2790 C2787 0.950 . S
C2791 C2782 1.390 . S
C2791 H2784 0.950 . S
C2791 C2788 1.387 . S
C2792 C2793 1.387 . S
C2792 H2796 0.950 . S
C2792 C2801 1.390 . S
C2793 C2792 1.387 . S
C2793 C2795 1.387 . S
H2794 C2801 0.950 . S
C2795 C2793 1.387 . S
C2795 C2797 1.390 . S
C2795 H2799 0.950 . S
H2796 C2792 0.950 . S
C2797 C2795 1.390 . S
C2797 C2798 1.387 . S
C2797 H2800 0.950 . S
C2798 C2797 1.387 . S
C2798 C2801 1.387 . S
H2799 C2795 0.950 . S
H2800 C2797 0.950 . S
C2801 C2792 1.390 . S
C2801 H2794 0.950 . S
C2801 C2798 1.387 . S
C2802 C2803 1.387 . S
C2802 H2806 0.950 . S
C2802 C2811 1.390 1_556 S
C2803 C2802 1.387 . S
C2803 C2805 1.387 . S
H2804 C2811 0.950 . S
C2805 C2803 1.387 . S
C2805 C2807 1.390 1_556 S
C2805 H2809 0.950 . S
H2806 C2802 0.950 . S
C2807 C2805 1.390 1_554 S
C2807 C2808 1.387 . S
C2807 H2810 0.950 . S
C2808 C2807 1.387 . S
C2808 C2811 1.387 . S
H2809 C2805 0.950 . S
H2810 C2807 0.950 . S
C2811 C2802 1.390 1_554 S
C2811 H2804 0.950 . S
C2811 C2808 1.387 . S
C2812 C2813 1.387 . S
C2812 H2816 0.950 . S
C2812 C2821 1.390 . S
C2813 C2812 1.387 . S
C2813 C2815 1.387 . S
H2814 C2821 0.950 . S
C2815 C2813 1.387 . S
C2815 C2817 1.390 . S
C2815 H2819 0.950 . S
H2816 C2812 0.950 . S
C2817 C2815 1.390 . S
C2817 C2818 1.387 . S
C2817 H2820 0.950 . S
C2818 C2817 1.387 . S
C2818 C2821 1.387 . S
H2819 C2815 0.950 . S
H2820 C2817 0.950 . S
C2821 C2812 1.390 . S
C2821 H2814 0.950 . S
C2821 C2818 1.387 . S
C2822 C2823 1.387 . S
C2822 H2826 0.950 . S
C2822 C2831 1.390 . S
C2823 C2822 1.387 . S
C2823 C2825 1.387 . S
H2824 C2831 0.950 . S
C2825 C2823 1.387 . S
C2825 C2827 1.390 . S
C2825 H2829 0.950 . S
H2826 C2822 0.950 . S
C2827 C2825 1.390 . S
C2827 C2828 1.387 . S
C2827 H2830 0.950 . S
C2828 C2827 1.387 . S
C2828 C2831 1.387 . S
H2829 C2825 0.950 . S
H2830 C2827 0.950 . S
C2831 C2822 1.390 . S
C2831 H2824 0.950 . S
C2831 C2828 1.387 . S
C1633 C20 1.451 . S
C1638 C349 1.372 . S
C1643 C383 1.375 . S
C1648 C54 1.452 . S
C1653 C281 1.372 . S
C1658 C88 1.451 . S
C1663 C315 1.372 . S
C1668 C122 1.451 . S
C1673 C485 1.375 . S
C1678 C156 1.453 . S
C1683 C190 1.452 . S
C1688 C519 1.373 . S
C1693 C417 1.372 . S
C1698 C224 1.450 . S
C1703 C451 1.374 . S
C1708 C258 1.452 . S
C1713 C292 1.450 . S
C1718 C587 1.372 . S
C1723 C326 1.451 . S
C1728 C621 1.372 . S
C1733 C655 1.372 . S
C1738 C360 1.450 . S
C1743 C394 1.451 . S
C1748 C1505 1.372 . S
C1753 C1369 1.372 . S
C1758 C428 1.450 . S
C1763 C462 1.450 . S
C1768 C791 1.372 . S
C1773 C496 1.453 . S
C1778 C1539 1.376 . S
C1783 C757 1.376 . S
C1788 C530 1.453 . S
C1793 C564 1.450 . S
C1798 C1029 1.372 . S
C1803 C77 1.372 . S
C1808 C598 1.450 . S
C1813 C111 1.376 . S
C1818 C632 1.453 . S
C1823 C9 1.371 . S
C1828 C666 1.450 . S
C1833 C700 1.450 . S
C1838 C859 1.371 . S
C1843 C734 1.453 . S
C1848 C961 1.376 . S
C1853 C179 1.372 . S
C1858 C768 1.450 . S
C1863 C247 1.376 . S
C1868 C802 1.453 . S
C1873 C836 1.453 . S
C1878 C1165 1.376 . S
C1883 C870 1.452 . S
C1888 C1199 1.374 . S
C1893 C1097 1.372 . S
C1898 C904 1.451 . S
C1903 C1131 1.371 . S
C1908 C938 1.450 . S
C1913 C1301 1.372 . S
C1918 C972 1.451 . S
C1923 C1335 1.372 . S
C1928 C1006 1.451 . S
C1933 C1233 1.376 . S
C1938 C1040 1.453 . S
C1943 C1074 1.453 . S
C1948 C1267 1.375 . S
C1953 C1108 1.453 . S
C1958 C1403 1.376 . S
C1963 C1437 1.373 . S
C1968 C1142 1.451 . S
C1973 C1176 1.453 . S
C1978 C1471 1.376 . S
C1983 C1210 1.453 . S
C1988 C689 1.376 . S
C1993 C1244 1.453 . S
C1998 C553 1.376 . S
C2003 C1278 1.450 . S
C2008 C1607 1.372 . S
C2013 C723 1.376 . S
C2018 C1312 1.453 . S
C2023 C1573 1.374 . S
C2028 C1346 1.452 . S
C2033 C1380 1.450 . S
C2038 C213 1.372 . S
C2043 C893 1.375 . S
C2048 C1414 1.453 . S
C2053 C1448 1.450 . S
C2058 C927 1.371 . S
C2063 C1482 1.453 . S
C2068 C825 1.376 . S
C2073 C43 1.371 . S
C2078 C1516 1.450 . S
C2083 C1550 1.451 . S
C2088 C145 1.373 . S
C2093 C1584 1.450 . S
C2098 C995 1.371 . S
C2103 C1063 1.372 . S
C2108 C1618 1.450 . S
C2113 C311 1.687 . S
C2118 C5 1.687 . S
C2123 C39 1.686 . S
C2128 C345 1.685 . S
C2133 C379 1.682 . S
C2138 C73 1.682 . S
C2143 C277 1.683 . S
C2148 C107 1.682 . S
C2153 C141 1.682 . S
C2158 C515 1.683 . S
C2163 C175 1.686 . S
C2168 C413 1.685 . S
C2173 C447 1.687 . S
C2178 C209 1.687 . S
C2183 C243 1.684 . S
C2188 C481 1.685 . S
C2193 C617 1.684 . S
C2198 C549 1.683 . S
C2203 C583 1.682 . S
C2208 C1569 1.682 . S
C2213 C1603 1.687 . S
C2218 C651 1.687 . S
C2223 C685 1.686 . S
C2228 C1535 1.687 . S
C2233 C1501 1.685 . S
C2238 C719 1.686 . S
C2243 C1399 1.683 . S
C2248 C753 1.684 . S
C2253 C787 1.683 . S
C2258 C1467 1.682 . S
C2263 C821 1.687 . S
C2268 C1127 1.687 . S
C2273 C1161 1.684 . S
C2278 C855 1.686 . S
C2283 C1195 1.687 . S
C2288 C889 1.687 . S
C2293 C923 1.682 . S
C2298 C1093 1.682 . S
C2303 C1331 1.687 . S
C2308 C957 1.686 . S
C2313 C1229 1.683 . S
C2318 C991 1.682 . S
C2323 C1025 1.686 . S
C2328 C1263 1.687 . S
C2333 C1297 1.685 . S
C2338 C1059 1.686 . S
C2343 C1433 1.686 . S
C2348 C1365 1.687 . S
C2353 C713 1.548 . S
C2358 C33 1.546 . S
C2363 C67 1.545 . S
C2368 C1427 1.546 . S
C2373 C101 1.547 . S
C2378 C1461 1.548 . S
C2383 C1495 1.546 . S
C2388 C135 1.546 . S
C2393 C1631 1.548 . S
C2398 C169 1.547 . S
C2403 C747 1.548 . S
C2408 C203 1.548 . S
C2413 C237 1.548 . S
C2418 C1597 1.548 . S
C2423 C271 1.548 . S
C2428 C577 1.547 . S
C2433 C543 1.547 . S
C2438 C305 1.548 . S
C2443 C339 1.546 . S
C2448 C441 1.546 . S
C2453 C373 1.548 . S
C2458 C475 1.546 . S
C2463 C509 1.546 . S
C2468 C407 1.547 . S
C2473 C883 1.546 . S
C2478 C611 1.545 . S
C2483 C645 1.548 . S
C2488 C917 1.547 . S
C2493 C679 1.546 . S
C2498 C951 1.546 . S
C2503 C781 1.546 . S
C2508 C1053 1.547 . S
C2513 C985 1.546 . S
C2518 C815 1.546 . S
C2523 C849 1.546 . S
C2528 C1529 1.547 . S
C2533 C1563 1.546 . S
C2538 C1019 1.546 . S
C2543 C1393 1.546 . S
C2548 C1087 1.546 . S
C2553 C1121 1.548 . S
C2558 C1359 1.546 . S
C2563 C1257 1.546 . S
C2568 C1155 1.547 . S
C2573 C1189 1.546 . S
C2578 C1291 1.546 . S
C2583 C1223 1.547 . S
C2588 C1325 1.546 . S
C2593 C138 2.313 . S
C2598 C2 2.313 . S
C2603 C172 2.313 . S
C2608 C36 2.313 . S
C2613 C206 2.313 . S
C2618 C70 2.313 . S
C2623 C240 2.313 . S
C2628 C104 2.313 . S
C2633 C478 2.313 . S
C2638 C274 2.313 . S
C2643 C308 2.313 . S
C2648 C512 2.313 . S
C2653 C342 2.316 . S
C2658 C410 2.316 . S
C2663 C444 2.313 . S
C2668 C376 2.313 . S
C2673 C546 2.313 . S
C2678 C1532 2.313 . S
C2683 C580 2.315 . S
C2688 C1464 2.315 . S
C2693 C682 2.313 . S
C2698 C614 2.313 . S
C2703 C1396 2.313 . S
C2708 C648 2.313 . S
C2713 C1362 2.313 . S
C2718 C716 2.313 . S
C2723 C750 2.313 . S
C2728 C1600 2.313 . S
C2733 C1566 2.313 . S
C2738 C784 2.313 . S
C2743 C954 2.313 . S
C2748 C818 2.313 . S
C2753 C852 2.313 . S
C2758 C988 2.313 . S
C2763 C886 2.316 . S
C2768 C1022 2.316 . S
C2773 C920 2.313 . S
C2778 C1056 2.313 . S
C2783 C1090 2.313 . S
C2788 C1294 2.313 . S
C2793 C1124 2.313 . S
C2798 C1328 2.313 . S
C2803 C1226 2.313 . S
C2808 C1158 2.313 . S
C2813 C1192 2.313 . S
C2818 C1260 2.313 . S
C2823 C1498 2.313 . S
C2828 C1430 2.313 . S
