# Generated by pormake.
# Topology vbm, (6)-cn, num edge types: 1
# Building blocks:
#     Node 0, Type 0, BuildingBlock: BETGAK_clean_sbu_0, # of connection points: 6
#     Node 1, Type 0, BuildingBlock: BETGAK_clean_sbu_0, # of connection points: 6
#     Node 2, Type 0, BuildingBlock: BETGAK_clean_sbu_0, # of connection points: 6
#     Node 3, Type 0, BuildingBlock: BETGAK_clean_sbu_0, # of connection points: 6
#     Node 4, Type 0, BuildingBlock: BETGAK_clean_sbu_0, # of connection points: 6
#     Node 5, Type 0, BuildingBlock: BETGAK_clean_sbu_0, # of connection points: 6
#     Node 6, Type 0, BuildingBlock: BETGAK_clean_sbu_0, # of connection points: 6
#     Node 7, Type 0, BuildingBlock: BETGAK_clean_sbu_0, # of connection points: 6
#     Node 8, Type 0, BuildingBlock: BETGAK_clean_sbu_0, # of connection points: 6
#     Node 9, Type 0, BuildingBlock: BETGAK_clean_sbu_0, # of connection points: 6
#     Node 10, Type 0, BuildingBlock: BETGAK_clean_sbu_0, # of connection points: 6
#     Node 11, Type 0, BuildingBlock: BETGAK_clean_sbu_0, # of connection points: 6
#     Node 12, Type 0, BuildingBlock: BETGAK_clean_sbu_0, # of connection points: 6
#     Node 13, Type 0, BuildingBlock: BETGAK_clean_sbu_0, # of connection points: 6
#     Node 14, Type 0, BuildingBlock: BETGAK_clean_sbu_0, # of connection points: 6
#     Node 15, Type 0, BuildingBlock: BETGAK_clean_sbu_0, # of connection points: 6
#     Edge 16, Type (0, 0), BuildingBlock: EZIPEK_clean_linker_0, # of connection points: 2
#     Edge 17, Type (0, 0), BuildingBlock: EZIPEK_clean_linker_0, # of connection points: 2
#     Edge 18, Type (0, 0), BuildingBlock: EZIPEK_clean_linker_0, # of connection points: 2
#     Edge 19, Type (0, 0), BuildingBlock: EZIPEK_clean_linker_0, # of connection points: 2
#     Edge 20, Type (0, 0), BuildingBlock: EZIPEK_clean_linker_0, # of connection points: 2
#     Edge 21, Type (0, 0), BuildingBlock: EZIPEK_clean_linker_0, # of connection points: 2
#     Edge 22, Type (0, 0), BuildingBlock: EZIPEK_clean_linker_0, # of connection points: 2
#     Edge 23, Type (0, 0), BuildingBlock: EZIPEK_clean_linker_0, # of connection points: 2
#     Edge 24, Type (0, 0), BuildingBlock: EZIPEK_clean_linker_0, # of connection points: 2
#     Edge 25, Type (0, 0), BuildingBlock: EZIPEK_clean_linker_0, # of connection points: 2
#     Edge 26, Type (0, 0), BuildingBlock: EZIPEK_clean_linker_0, # of connection points: 2
#     Edge 27, Type (0, 0), BuildingBlock: EZIPEK_clean_linker_0, # of connection points: 2
#     Edge 28, Type (0, 0), BuildingBlock: EZIPEK_clean_linker_0, # of connection points: 2
#     Edge 29, Type (0, 0), BuildingBlock: EZIPEK_clean_linker_0, # of connection points: 2
#     Edge 30, Type (0, 0), BuildingBlock: EZIPEK_clean_linker_0, # of connection points: 2
#     Edge 31, Type (0, 0), BuildingBlock: EZIPEK_clean_linker_0, # of connection points: 2
#     Edge 32, Type (0, 0), BuildingBlock: EZIPEK_clean_linker_0, # of connection points: 2
#     Edge 33, Type (0, 0), BuildingBlock: EZIPEK_clean_linker_0, # of connection points: 2
#     Edge 34, Type (0, 0), BuildingBlock: EZIPEK_clean_linker_0, # of connection points: 2
#     Edge 35, Type (0, 0), BuildingBlock: EZIPEK_clean_linker_0, # of connection points: 2
#     Edge 36, Type (0, 0), BuildingBlock: EZIPEK_clean_linker_0, # of connection points: 2
#     Edge 37, Type (0, 0), BuildingBlock: EZIPEK_clean_linker_0, # of connection points: 2
#     Edge 38, Type (0, 0), BuildingBlock: EZIPEK_clean_linker_0, # of connection points: 2
#     Edge 39, Type (0, 0), BuildingBlock: EZIPEK_clean_linker_0, # of connection points: 2
#     Edge 40, Type (0, 0), BuildingBlock: EZIPEK_clean_linker_0, # of connection points: 2
#     Edge 41, Type (0, 0), BuildingBlock: EZIPEK_clean_linker_0, # of connection points: 2
#     Edge 42, Type (0, 0), BuildingBlock: EZIPEK_clean_linker_0, # of connection points: 2
#     Edge 43, Type (0, 0), BuildingBlock: EZIPEK_clean_linker_0, # of connection points: 2
#     Edge 44, Type (0, 0), BuildingBlock: EZIPEK_clean_linker_0, # of connection points: 2
#     Edge 45, Type (0, 0), BuildingBlock: EZIPEK_clean_linker_0, # of connection points: 2
#     Edge 46, Type (0, 0), BuildingBlock: EZIPEK_clean_linker_0, # of connection points: 2
#     Edge 47, Type (0, 0), BuildingBlock: EZIPEK_clean_linker_0, # of connection points: 2
#     Edge 48, Type (0, 0), BuildingBlock: EZIPEK_clean_linker_0, # of connection points: 2
#     Edge 49, Type (0, 0), BuildingBlock: EZIPEK_clean_linker_0, # of connection points: 2
#     Edge 50, Type (0, 0), BuildingBlock: EZIPEK_clean_linker_0, # of connection points: 2
#     Edge 51, Type (0, 0), BuildingBlock: EZIPEK_clean_linker_0, # of connection points: 2
#     Edge 52, Type (0, 0), BuildingBlock: EZIPEK_clean_linker_0, # of connection points: 2
#     Edge 53, Type (0, 0), BuildingBlock: EZIPEK_clean_linker_0, # of connection points: 2
#     Edge 54, Type (0, 0), BuildingBlock: EZIPEK_clean_linker_0, # of connection points: 2
#     Edge 55, Type (0, 0), BuildingBlock: EZIPEK_clean_linker_0, # of connection points: 2
#     Edge 56, Type (0, 0), BuildingBlock: EZIPEK_clean_linker_0, # of connection points: 2
#     Edge 57, Type (0, 0), BuildingBlock: EZIPEK_clean_linker_0, # of connection points: 2
#     Edge 58, Type (0, 0), BuildingBlock: EZIPEK_clean_linker_0, # of connection points: 2
#     Edge 59, Type (0, 0), BuildingBlock: EZIPEK_clean_linker_0, # of connection points: 2
#     Edge 60, Type (0, 0), BuildingBlock: EZIPEK_clean_linker_0, # of connection points: 2
#     Edge 61, Type (0, 0), BuildingBlock: EZIPEK_clean_linker_0, # of connection points: 2
#     Edge 62, Type (0, 0), BuildingBlock: EZIPEK_clean_linker_0, # of connection points: 2
#     Edge 63, Type (0, 0), BuildingBlock: EZIPEK_clean_linker_0, # of connection points: 2
# Relax obj value: 0.066
# Max RMSD: 0.150
# Mean RMSD: 0.150
data_MOF--net-vbm--node1-BETGAK_clean_sbu_0--edge1-EZIPEK_clean_linker_0
_symmetry_space_group_name_H-M    P1
_symmetry_Int_Tables_number       1
_symmetry_cell_setting            triclinic
loop_
_symmetry_equiv_pos_as_xyz
'x, y, z'
_cell_length_a     39.42274
_cell_length_b     21.289281
_cell_length_c     40.720829
_cell_angle_alpha  89.571086
_cell_angle_beta   90.046465
_cell_angle_gamma 89.951358
loop_
_atom_site_label
_atom_site_type_symbol
_atom_site_fract_x
_atom_site_fract_y
_atom_site_fract_z
_atom_type_partial_charge
La0 La 0.14137 0.09523 0.14951 0.0
La1 La 0.10476 0.21081 0.16192 0.0
C2 C 0.16505 0.9841 0.15034 0.0
C3 C 0.15434 0.9172 0.1498 0.0
C4 C 0.16816 0.87708 0.12601 0.0
C5 C 0.16091 0.81265 0.12644 0.0
C6 C 0.13985 0.78685 0.15083 0.0
C7 C 0.12559 0.82689 0.17441 0.0
C8 C 0.13274 0.89148 0.17393 0.0
C9 C 0.13207 0.16421 0.09495 0.0
C10 C 0.05982 0.09569 0.15237 0.0
C11 C 0.08294 0.3228 0.16454 0.0
C12 C 0.09544 0.38865 0.16136 0.0
C13 C 0.10161 0.42435 0.18973 0.0
C14 C 0.11029 0.48803 0.18732 0.0
C15 C 0.11282 0.51762 0.15651 0.0
C16 C 0.10729 0.48206 0.12808 0.0
C17 C 0.09861 0.41825 0.13046 0.0
C18 C 0.11415 0.1389 0.21599 0.0
C19 C 0.18409 0.21663 0.15695 0.0
O20 O 0.16057 1.01729 0.12361 0.0
O21 O 0.1582 1.01668 0.17654 0.0
O22 O 0.15912 0.1327 0.10251 0.0
O23 O 0.11067 0.15535 0.11792 0.0
O24 O 0.08823 0.06242 0.15434 0.0
O25 O 0.06003 0.15734 0.15122 0.0
O26 O 0.09335 0.29049 0.19002 0.0
O27 O 0.08179 0.2882 0.13813 0.0
O28 O 0.08691 0.16945 0.20812 0.0
O29 O 0.13544 0.1495 0.1932 0.0
O30 O 0.1553 0.24597 0.15171 0.0
O31 O 0.18503 0.15497 0.16127 0.0
H32 H 0.18512 0.89547 0.10737 0.0
H33 H 0.17214 0.78267 0.10801 0.0
H34 H 0.10923 0.80796 0.19341 0.0
H35 H 0.12181 0.92097 0.19273 0.0
H36 H 0.099 0.40338 0.21391 0.0
H37 H 0.11436 0.51462 0.20955 0.0
H38 H 0.10907 0.50405 0.10407 0.0
H39 H 0.09371 0.39255 0.1081 0.0
La40 La 0.84154 1.00279 0.14992 0.0
La41 La 0.87769 0.88773 0.1618 0.0
C42 C 0.81873 0.11441 0.15282 0.0
C43 C 0.82967 0.18123 0.15098 0.0
C44 C 0.81931 0.21911 0.12433 0.0
C45 C 0.8263 0.28368 0.12378 0.0
C46 C 0.84347 0.31186 0.15006 0.0
C47 C 0.85427 0.2741 0.17651 0.0
C48 C 0.84744 0.20949 0.17701 0.0
C49 C 0.8494 0.93804 0.09459 0.0
C50 C 0.92348 0.99956 0.14942 0.0
C51 C 0.89853 0.77531 0.16676 0.0
C52 C 0.88607 0.7099 0.16211 0.0
C53 C 0.87361 0.67511 0.18907 0.0
C54 C 0.86514 0.61156 0.18579 0.0
C55 C 0.86906 0.58125 0.15555 0.0
C56 C 0.88072 0.61603 0.12836 0.0
C57 C 0.88926 0.67964 0.13162 0.0
C58 C 0.86927 0.95922 0.21588 0.0
C59 C 0.79924 0.88067 0.15512 0.0
O60 O 0.81964 0.08141 0.12596 0.0
O61 O 0.82859 0.0813 0.17816 0.0
O62 O 0.8229 0.97022 0.10274 0.0
O63 O 0.87131 0.94397 0.11743 0.0
O64 O 0.89538 1.03376 0.15191 0.0
O65 O 0.92257 0.93806 0.14893 0.0
O66 O 0.88545 0.80715 0.19095 0.0
O67 O 0.90292 0.81061 0.14066 0.0
O68 O 0.89687 0.93121 0.20696 0.0
O69 O 0.84752 0.94776 0.19369 0.0
O70 O 0.82809 0.85294 0.14876 0.0
O71 O 0.79811 0.94159 0.16133 0.0
H72 H 0.80514 0.19899 0.10418 0.0
H73 H 0.81776 0.31194 0.10314 0.0
H74 H 0.86756 0.2949 0.19703 0.0
H75 H 0.85548 0.18205 0.19813 0.0
H76 H 0.87116 0.69656 0.21299 0.0
H77 H 0.85624 0.58559 0.20708 0.0
H78 H 0.88395 0.59349 0.10481 0.0
H79 H 0.8991 0.70467 0.11043 0.0
La80 La 0.14075 1.00752 0.39785 0.0
La81 La 0.10944 0.88556 0.38279 0.0
C82 C 0.16904 0.11391 0.39311 0.0
C83 C 0.16063 0.18135 0.39778 0.0
C84 C 0.18266 0.21985 0.41585 0.0
C85 C 0.17697 0.28481 0.4178 0.0
C86 C 0.14933 0.31261 0.40137 0.0
C87 C 0.12687 0.27401 0.38391 0.0
C88 C 0.13237 0.20907 0.38219 0.0
C89 C 0.11824 0.951 0.45227 0.0
C90 C 0.06067 0.99201 0.39875 0.0
C91 C 0.09072 0.77266 0.3761 0.0
C92 C 0.10268 0.70756 0.3823 0.0
C93 C 0.09821 0.66265 0.35758 0.0
C94 C 0.10779 0.60005 0.36273 0.0
C95 C 0.12194 0.58091 0.3928 0.0
C96 C 0.12694 0.62579 0.41752 0.0
C97 C 0.11745 0.68876 0.41229 0.0
C98 C 0.11336 0.96794 0.33189 0.0
C99 C 0.18788 0.88582 0.39328 0.0
O100 O 0.17129 0.07795 0.41926 0.0
O101 O 0.15375 0.08543 0.36889 0.0
O102 O 0.11791 1.01076 0.44615 0.0
O103 O 0.13198 0.9239 0.42764 0.0
O104 O 0.08622 1.03051 0.39139 0.0
O105 O 0.06583 0.93167 0.40306 0.0
O106 O 0.10696 0.80467 0.35357 0.0
O107 O 0.08283 0.80739 0.40143 0.0
O108 O 0.0886 0.92974 0.33737 0.0
O109 O 0.13519 0.95667 0.35383 0.0
O110 O 0.16047 0.85261 0.38822 0.0
O111 O 0.18695 0.94781 0.39723 0.0
H112 H 0.20472 0.19984 0.42789 0.0
H113 H 0.19454 0.31365 0.4315 0.0
H114 H 0.10534 0.29438 0.37115 0.0
H115 H 0.11488 0.18088 0.36803 0.0
H116 H 0.08691 0.67595 0.33427 0.0
H117 H 0.10378 0.56624 0.34336 0.0
H118 H 0.13792 0.61194 0.44086 0.0
H119 H 0.12138 0.72245 0.43173 0.0
La120 La 0.84116 0.08678 0.39771 0.0
La121 La 0.87846 0.2042 0.38372 0.0
C122 C 0.82095 0.97412 0.39252 0.0
C123 C 0.83467 0.90901 0.39538 0.0
C124 C 0.82453 0.86982 0.42135 0.0
C125 C 0.83602 0.80753 0.42362 0.0
C126 C 0.85967 0.78247 0.40093 0.0
C127 C 0.86644 0.82071 0.37297 0.0
C128 C 0.85501 0.883 0.37068 0.0
C129 C 0.84921 0.1542 0.4517 0.0
C130 C 0.92326 0.08921 0.39884 0.0
C131 C 0.90104 0.31542 0.38022 0.0
C132 C 0.89277 0.38185 0.38784 0.0
C133 C 0.91793 0.41957 0.40207 0.0
C134 C 0.91275 0.48411 0.40618 0.0
C135 C 0.88229 0.51249 0.39607 0.0
C136 C 0.85662 0.47479 0.38259 0.0
C137 C 0.86179 0.40993 0.37852 0.0
C138 C 0.87084 0.12793 0.33177 0.0
C139 C 0.79933 0.20979 0.38979 0.0
O140 O 0.81834 1.00694 0.41943 0.0
O141 O 0.83163 1.00864 0.36793 0.0
O142 O 0.82285 0.12039 0.4446 0.0
O143 O 0.87096 0.14868 0.42855 0.0
O144 O 0.89462 0.05704 0.40198 0.0
O145 O 0.92334 0.15 0.39288 0.0
O146 O 0.88365 0.28821 0.35694 0.0
O147 O 0.90729 0.27711 0.40483 0.0
O148 O 0.89641 0.16466 0.33682 0.0
O149 O 0.84946 0.13965 0.35417 0.0
O150 O 0.82819 0.23855 0.39524 0.0
O151 O 0.79802 0.14816 0.38539 0.0
H152 H 0.8069 0.88688 0.43965 0.0
H153 H 0.82498 0.77924 0.44289 0.0
H154 H 0.87957 0.80303 0.35176 0.0
H155 H 0.86153 0.91021 0.349 0.0
H156 H 0.94209 0.39934 0.40921 0.0
H157 H 0.93287 0.5123 0.4166 0.0
H158 H 0.83292 0.49575 0.37465 0.0
H159 H 0.84192 0.38215 0.3674 0.0
La160 La 0.87559 0.88695 0.88516 0.0
La161 La 0.8367 1.00364 0.89753 0.0
C162 C 0.89894 0.77608 0.8825 0.0
C163 C 0.89039 0.70912 0.88884 0.0
C164 C 0.91613 0.66851 0.89986 0.0
C165 C 0.91039 0.60377 0.90259 0.0
C166 C 0.87876 0.57807 0.89433 0.0
C167 C 0.85256 0.61864 0.88411 0.0
C168 C 0.85831 0.68372 0.88138 0.0
C169 C 0.86827 0.96288 0.83253 0.0
C170 C 0.79626 0.87979 0.89036 0.0
C171 C 0.81563 0.11597 0.892 0.0
C172 C 0.82944 0.18119 0.89356 0.0
C173 C 0.82536 0.2175 0.92186 0.0
C174 C 0.83707 0.27972 0.92297 0.0
C175 C 0.85505 0.30758 0.89641 0.0
C176 C 0.85526 0.27248 0.86689 0.0
C177 C 0.84366 0.21024 0.86575 0.0
C178 C 0.84589 0.93589 0.9522 0.0
C179 C 0.91869 1.0036 0.89985 0.0
O180 O 0.88319 0.80442 0.8583 0.0
O181 O 0.90301 0.813 0.90779 0.0
O182 O 0.89414 0.9271 0.83844 0.0
O183 O 0.84648 0.95081 0.85462 0.0
O184 O 0.82533 0.85181 0.89632 0.0
O185 O 0.79432 0.94129 0.88539 0.0
O186 O 0.81435 0.08326 0.9193 0.0
O187 O 0.8252 0.08127 0.86731 0.0
O188 O 0.81904 0.96846 0.94478 0.0
O189 O 0.86716 0.94335 0.92888 0.0
O190 O 0.88976 1.03529 0.90036 0.0
O191 O 0.91949 0.94214 0.89661 0.0
H192 H 0.9411 0.68673 0.90552 0.0
H193 H 0.93095 0.5734 0.91051 0.0
H194 H 0.82795 0.59982 0.87763 0.0
H195 H 0.83801 0.71388 0.87275 0.0
H196 H 0.81231 0.19831 0.94308 0.0
H197 H 0.83066 0.30578 0.9447 0.0
H198 H 0.86319 0.29265 0.8438 0.0
H199 H 0.84512 0.18542 0.84266 0.0
La200 La 0.10502 0.20398 0.88286 0.0
La201 La 0.13629 0.08717 0.9013 0.0
C202 C 0.08575 0.31566 0.87197 0.0
C203 C 0.09638 0.38141 0.87766 0.0
C204 C 0.1232 0.40885 0.8598 0.0
C205 C 0.13032 0.47293 0.86283 0.0
C206 C 0.11086 0.51056 0.8838 0.0
C207 C 0.08473 0.48303 0.9023 0.0
C208 C 0.07745 0.4191 0.89913 0.0
C209 C 0.10984 0.12072 0.83313 0.0
C210 C 0.18299 0.20369 0.8923 0.0
C211 C 0.15653 0.97447 0.90575 0.0
C212 C 0.14539 0.90877 0.90077 0.0
C213 C 0.13701 0.87118 0.92814 0.0
C214 C 0.13036 0.80714 0.92446 0.0
C215 C 0.1322 0.7794 0.8934 0.0
C216 C 0.1399 0.8168 0.86588 0.0
C217 C 0.14649 0.88099 0.86952 0.0
C218 C 0.13074 0.16236 0.95323 0.0
C219 C 0.05531 0.10099 0.89953 0.0
O220 O 0.10365 0.28247 0.85144 0.0
O221 O 0.07647 0.28253 0.89756 0.0
O222 O 0.08496 0.15855 0.83833 0.0
O223 O 0.13193 0.13231 0.85483 0.0
O224 O 0.15507 0.23625 0.89577 0.0
O225 O 0.18215 0.14178 0.88977 0.0
O226 O 0.14263 1.00535 0.92983 0.0
O227 O 0.16087 1.01007 0.8798 0.0
O228 O 0.15619 0.12626 0.94666 0.0
O229 O 0.10899 0.15593 0.93031 0.0
O230 O 0.0817 0.06302 0.89495 0.0
O231 O 0.05967 0.16175 0.9013 0.0
H232 H 0.13817 0.3813 0.84288 0.0
H233 H 0.15058 0.49348 0.84836 0.0
H234 H 0.06944 0.51143 0.91857 0.0
H235 H 0.05643 0.39943 0.91289 0.0
H236 H 0.13649 0.89092 0.95257 0.0
H237 H 0.1245 0.77888 0.94595 0.0
H238 H 0.14147 0.79601 0.84173 0.0
H239 H 0.15327 0.90836 0.84798 0.0
La240 La 0.87738 0.20278 0.66098 0.0
La241 La 0.84139 0.08677 0.64871 0.0
C242 C 0.90069 0.31363 0.66426 0.0
C243 C 0.89234 0.38063 0.65832 0.0
C244 C 0.91902 0.42255 0.65196 0.0
C245 C 0.91299 0.48716 0.64944 0.0
C246 C 0.8801 0.51135 0.65321 0.0
C247 C 0.85308 0.46945 0.65871 0.0
C248 C 0.85916 0.40444 0.66129 0.0
C249 C 0.86767 0.13171 0.71546 0.0
C250 C 0.79855 0.20875 0.65437 0.0
C251 C 0.81896 0.9747 0.65008 0.0
C252 C 0.8319 0.90885 0.65011 0.0
C253 C 0.83798 0.8769 0.6207 0.0
C254 C 0.8491 0.81425 0.62098 0.0
C255 C 0.85652 0.78178 0.65072 0.0
C256 C 0.84606 0.81241 0.67985 0.0
C257 C 0.83491 0.87498 0.67963 0.0
C258 C 0.85058 0.15465 0.59385 0.0
C259 C 0.92299 0.08782 0.65198 0.0
O260 O 0.88483 0.285 0.6882 0.0
O261 O 0.90446 0.27735 0.63874 0.0
O262 O 0.89477 0.16247 0.70765 0.0
O263 O 0.84665 0.14152 0.69231 0.0
O264 O 0.82733 0.23755 0.64844 0.0
O265 O 0.79767 0.1473 0.65979 0.0
O266 O 0.82255 1.00813 0.62329 0.0
O267 O 0.82512 1.00822 0.67609 0.0
O268 O 0.82366 0.12287 0.60139 0.0
O269 O 0.87194 0.14667 0.61702 0.0
O270 O 0.8947 0.05427 0.65374 0.0
O271 O 0.92239 0.14946 0.65112 0.0
H272 H 0.9448 0.40539 0.64976 0.0
H273 H 0.93417 0.51857 0.64521 0.0
H274 H 0.82751 0.48715 0.66169 0.0
H275 H 0.83815 0.37305 0.66624 0.0
H276 H 0.83344 0.89983 0.59726 0.0
H277 H 0.85057 0.79178 0.59741 0.0
H278 H 0.84533 0.78837 0.70324 0.0
H279 H 0.82795 0.89645 0.70272 0.0
La280 La 0.10778 0.8835 0.66095 0.0
La281 La 0.14155 1.00639 0.64877 0.0
C282 C 0.08857 0.77008 0.66155 0.0
C283 C 0.10209 0.70592 0.65517 0.0
C284 C 0.12617 0.6778 0.67627 0.0
C285 C 0.13537 0.61461 0.67256 0.0
C286 C 0.12084 0.57814 0.64764 0.0
C287 C 0.09781 0.60665 0.62576 0.0
C288 C 0.08841 0.66978 0.62959 0.0
C289 C 0.10978 0.9596 0.71363 0.0
C290 C 0.18735 0.88367 0.65608 0.0
C291 C 0.17151 0.11077 0.65507 0.0
C292 C 0.16397 0.1791 0.65156 0.0
C293 C 0.16044 0.2086 0.62065 0.0
C294 C 0.15391 0.27341 0.61834 0.0
C295 C 0.15087 0.30985 0.64684 0.0
C296 C 0.15459 0.28061 0.67761 0.0
C297 C 0.16121 0.2161 0.67995 0.0
C298 C 0.11857 0.9528 0.59369 0.0
C299 C 0.06157 0.99973 0.64901 0.0
O300 O 0.10054 0.79956 0.68713 0.0
O301 O 0.08416 0.80808 0.63641 0.0
O302 O 0.08627 0.91919 0.70703 0.0
O303 O 0.13242 0.95204 0.69188 0.0
O304 O 0.15953 0.85106 0.66078 0.0
O305 O 0.18696 0.94533 0.65075 0.0
O306 O 0.17333 0.07642 0.62853 0.0
O307 O 0.15573 0.08136 0.67891 0.0
O308 O 0.11839 1.01241 0.60014 0.0
O309 O 0.13233 0.92516 0.6182 0.0
O310 O 0.08858 1.03499 0.65459 0.0
O311 O 0.06419 0.93832 0.64517 0.0
H312 H 0.13723 0.70394 0.69631 0.0
H313 H 0.15318 0.59365 0.6897 0.0
H314 H 0.0863 0.57941 0.60636 0.0
H315 H 0.06965 0.68984 0.61312 0.0
H316 H 0.16268 0.18174 0.59828 0.0
H317 H 0.15107 0.2951 0.59435 0.0
H318 H 0.15233 0.30781 0.69989 0.0
H319 H 0.16417 0.19504 0.70409 0.0
La320 La 0.6399 0.58557 0.14864 0.0
La321 La 0.6085 0.70765 0.15896 0.0
C322 C 0.66843 0.4796 0.15552 0.0
C323 C 0.66187 0.41164 0.15054 0.0
C324 C 0.65682 0.38551 0.11925 0.0
C325 C 0.65089 0.32076 0.11589 0.0
C326 C 0.64989 0.28133 0.14374 0.0
C327 C 0.65515 0.30733 0.17485 0.0
C328 C 0.66122 0.37167 0.17819 0.0
C329 C 0.61773 0.63626 0.09216 0.0
C330 C 0.55994 0.59921 0.14821 0.0
C331 C 0.58986 0.82134 0.16161 0.0
C332 C 0.6031 0.88558 0.15461 0.0
C333 C 0.62512 0.91567 0.17677 0.0
C334 C 0.63412 0.97878 0.17218 0.0
C335 C 0.62134 1.01326 0.14539 0.0
C336 C 0.60032 0.98294 0.12259 0.0
C337 C 0.59116 0.91983 0.12724 0.0
C338 C 0.61294 0.63362 0.21354 0.0
C339 C 0.68732 0.7065 0.15255 0.0
O340 O 0.67286 0.51622 0.12987 0.0
O341 O 0.64988 0.50654 0.17796 0.0
O342 O 0.6171 0.57731 0.10011 0.0
O343 O 0.63167 0.66534 0.11589 0.0
O344 O 0.58575 0.56277 0.15721 0.0
O345 O 0.56482 0.65849 0.14076 0.0
O346 O 0.60355 0.7904 0.18611 0.0
O347 O 0.58349 0.78464 0.13665 0.0
O348 O 0.58709 0.66676 0.20453 0.0
O349 O 0.63481 0.64197 0.19127 0.0
O350 O 0.65967 0.74041 0.15416 0.0
O351 O 0.68636 0.64415 0.15101 0.0
H352 H 0.65731 0.41496 0.09745 0.0
H353 H 0.64679 0.30149 0.09168 0.0
H354 H 0.65442 0.27776 0.1966 0.0
H355 H 0.66528 0.39038 0.20256 0.0
H356 H 0.63467 0.89112 0.19826 0.0
H357 H 0.65032 1.00129 0.19008 0.0
H358 H 0.59014 1.00875 0.10178 0.0
H359 H 0.57391 0.89836 0.10992 0.0
La360 La 0.34064 0.51143 0.14496 0.0
La361 La 0.37459 0.39516 0.16506 0.0
C362 C 0.31817 0.62312 0.13926 0.0
C363 C 0.32664 0.68964 0.14622 0.0
C364 C 0.30011 0.7329 0.15052 0.0
C365 C 0.30689 0.79707 0.15436 0.0
C366 C 0.34042 0.81938 0.15411 0.0
C367 C 0.3671 0.77595 0.15055 0.0
C368 C 0.36028 0.71164 0.14652 0.0
C369 C 0.3501 0.4349 0.09404 0.0
C370 C 0.42231 0.503 0.14949 0.0
C371 C 0.395 0.28359 0.17567 0.0
C372 C 0.38496 0.217 0.17155 0.0
C373 C 0.40389 0.17026 0.18777 0.0
C374 C 0.39552 0.10667 0.18453 0.0
C375 C 0.36794 0.08834 0.16499 0.0
C376 C 0.34876 0.1351 0.1488 0.0
C377 C 0.35721 0.199 0.15203 0.0
C378 C 0.36748 0.48062 0.21336 0.0
C379 C 0.29608 0.39149 0.15361 0.0
O380 O 0.31142 0.58613 0.16415 0.0
O381 O 0.33626 0.59455 0.11709 0.0
O382 O 0.32374 0.46973 0.09926 0.0
O383 O 0.37046 0.44367 0.11789 0.0
O384 O 0.39476 0.53905 0.15082 0.0
O385 O 0.42033 0.44155 0.15065 0.0
O386 O 0.37761 0.31663 0.19669 0.0
O387 O 0.40205 0.31608 0.14916 0.0
O388 O 0.39285 0.44269 0.20975 0.0
O389 O 0.3459 0.46637 0.19159 0.0
O390 O 0.3248 0.36064 0.15221 0.0
O391 O 0.29541 0.45365 0.15448 0.0
H392 H 0.27397 0.71717 0.15021 0.0
H393 H 0.28592 0.82954 0.15707 0.0
H394 H 0.39316 0.79203 0.15036 0.0
H395 H 0.38122 0.67931 0.14322 0.0
H396 H 0.42534 0.183 0.20299 0.0
H397 H 0.41064 0.07161 0.19725 0.0
H398 H 0.32735 0.12208 0.13363 0.0
H399 H 0.34218 0.23417 0.1393 0.0
La400 La 0.64035 0.50575 0.39431 0.0
La401 La 0.60765 0.38355 0.38232 0.0
C402 C 0.6671 0.6131 0.38768 0.0
C403 C 0.65627 0.67954 0.39249 0.0
C404 C 0.67023 0.71579 0.41769 0.0
C405 C 0.66029 0.77858 0.42206 0.0
C406 C 0.63451 0.80675 0.4025 0.0
C407 C 0.62394 0.77156 0.37488 0.0
C408 C 0.63381 0.70901 0.37048 0.0
C409 C 0.61951 0.4515 0.45018 0.0
C410 C 0.56057 0.49273 0.3979 0.0
C411 C 0.58765 0.27095 0.37823 0.0
C412 C 0.59742 0.2055 0.38708 0.0
C413 C 0.5746 0.16848 0.40528 0.0
C414 C 0.58089 0.1045 0.41067 0.0
C415 C 0.61007 0.07595 0.3978 0.0
C416 C 0.63353 0.11304 0.38042 0.0
C417 C 0.62731 0.17734 0.37513 0.0
C418 C 0.60986 0.46322 0.33017 0.0
C419 C 0.68679 0.3837 0.38926 0.0
O420 O 0.67115 0.5777 0.41387 0.0
O421 O 0.65204 0.58255 0.36401 0.0
O422 O 0.61922 0.51102 0.44345 0.0
O423 O 0.63234 0.42355 0.42546 0.0
O424 O 0.58605 0.52942 0.38844 0.0
O425 O 0.56544 0.43273 0.4037 0.0
O426 O 0.60543 0.2998 0.35558 0.0
O427 O 0.57901 0.30867 0.40211 0.0
O428 O 0.58508 0.42582 0.33708 0.0
O429 O 0.63249 0.45251 0.35137 0.0
O430 O 0.65889 0.35036 0.38769 0.0
O431 O 0.68636 0.4461 0.3911 0.0
H432 H 0.68941 0.69591 0.43377 0.0
H433 H 0.67414 0.80439 0.44031 0.0
H434 H 0.60849 0.79197 0.35569 0.0
H435 H 0.62408 0.68416 0.34935 0.0
H436 H 0.55128 0.18868 0.41452 0.0
H437 H 0.56244 0.07672 0.42409 0.0
H438 H 0.65619 0.09192 0.3703 0.0
H439 H 0.64542 0.20447 0.36096 0.0
La440 La 0.34203 0.58769 0.40642 0.0
La441 La 0.37665 0.70296 0.38647 0.0
C442 C 0.32007 0.47573 0.41154 0.0
C443 C 0.32976 0.40934 0.40462 0.0
C444 C 0.35077 0.37529 0.42641 0.0
C445 C 0.35676 0.31101 0.42181 0.0
C446 C 0.34191 0.2792 0.39538 0.0
C447 C 0.32143 0.31305 0.37323 0.0
C448 C 0.31527 0.37735 0.37789 0.0
C449 C 0.35026 0.66396 0.45717 0.0
C450 C 0.42403 0.59488 0.40199 0.0
C451 C 0.3962 0.81485 0.37602 0.0
C452 C 0.38508 0.88092 0.38104 0.0
C453 C 0.35292 0.90256 0.37088 0.0
C454 C 0.34441 0.96648 0.37322 0.0
C455 C 0.36781 1.00993 0.38585 0.0
C456 C 0.3996 0.98809 0.39661 0.0
C457 C 0.40814 0.92434 0.39417 0.0
C458 C 0.36874 0.61786 0.3381 0.0
C459 C 0.29842 0.709 0.39762 0.0
O460 O 0.33676 0.50507 0.4345 0.0
O461 O 0.31335 0.51296 0.38668 0.0
O462 O 0.32423 0.62867 0.45176 0.0
O463 O 0.3715 0.65536 0.43395 0.0
O464 O 0.39621 0.5595 0.40103 0.0
O465 O 0.42242 0.65631 0.40046 0.0
O466 O 0.3792 0.78126 0.3549 0.0
O467 O 0.40462 0.78196 0.40205 0.0
O468 O 0.39441 0.65503 0.34167 0.0
O469 O 0.34739 0.63272 0.35991 0.0
O470 O 0.32733 0.73892 0.39924 0.0
O471 O 0.29721 0.64683 0.39648 0.0
H472 H 0.36202 0.3979 0.44751 0.0
H473 H 0.3726 0.28578 0.43921 0.0
H474 H 0.30968 0.28939 0.3527 0.0
H475 H 0.29861 0.40179 0.36092 0.0
H476 H 0.33458 0.87042 0.36058 0.0
H477 H 0.31974 0.98222 0.36478 0.0
H478 H 0.41803 1.02066 0.40644 0.0
H479 H 0.43313 0.90911 0.40197 0.0
La480 La 0.37594 0.37784 0.88653 0.0
La481 La 0.34095 0.49453 0.89679 0.0
C482 C 0.39916 0.26679 0.8854 0.0
C483 C 0.38758 0.20077 0.88788 0.0
C484 C 0.3616 0.17697 0.86778 0.0
C485 C 0.35336 0.11291 0.86884 0.0
C486 C 0.3708 0.07182 0.89012 0.0
C487 C 0.39605 0.09592 0.91079 0.0
C488 C 0.40441 0.15974 0.90961 0.0
C489 C 0.36622 0.44667 0.83114 0.0
C490 C 0.2971 0.37317 0.89266 0.0
C491 C 0.31859 0.60655 0.89506 0.0
C492 C 0.33027 0.67286 0.89392 0.0
C493 C 0.33929 0.70478 0.92282 0.0
C494 C 0.34664 0.76915 0.92193 0.0
C495 C 0.34501 0.80284 0.89221 0.0
C496 C 0.33662 0.77106 0.86327 0.0
C497 C 0.3292 0.70675 0.86412 0.0
C498 C 0.35056 0.43019 0.95278 0.0
C499 C 0.42245 0.4893 0.89449 0.0
O500 O 0.39055 0.29891 0.85924 0.0
O501 O 0.39709 0.30059 0.91193 0.0
O502 O 0.39345 0.41689 0.83949 0.0
O503 O 0.34515 0.4377 0.85421 0.0
O504 O 0.32572 0.3433 0.89771 0.0
O505 O 0.29653 0.43469 0.88736 0.0
O506 O 0.32367 0.57443 0.922 0.0
O507 O 0.3239 0.57231 0.86917 0.0
O508 O 0.32345 0.46084 0.94461 0.0
O509 O 0.37159 0.43697 0.92937 0.0
O510 O 0.39475 0.52306 0.88824 0.0
O511 O 0.41999 0.42926 0.90115 0.0
H512 H 0.34811 0.20749 0.85084 0.0
H513 H 0.33376 0.09516 0.85273 0.0
H514 H 0.40976 0.065 0.92738 0.0
H515 H 0.42457 0.17691 0.92526 0.0
H516 H 0.33996 0.68042 0.94626 0.0
H517 H 0.35308 0.79295 0.94451 0.0
H518 H 0.33521 0.79632 0.84011 0.0
H519 H 0.32187 0.68384 0.84153 0.0
La520 La 0.6061 0.70419 0.88281 0.0
La521 La 0.63975 0.58097 0.89501 0.0
C522 C 0.58569 0.81691 0.8818 0.0
C523 C 0.59586 0.88188 0.89053 0.0
C524 C 0.57214 0.92074 0.90615 0.0
C525 C 0.57889 0.98461 0.91085 0.0
C526 C 0.6095 1.01115 0.89992 0.0
C527 C 0.63387 0.9721 0.8853 0.0
C528 C 0.62715 0.90791 0.88068 0.0
C529 C 0.60749 0.6279 0.83001 0.0
C530 C 0.68558 0.7033 0.88885 0.0
C531 C 0.66796 0.47483 0.88914 0.0
C532 C 0.6576 0.40781 0.89341 0.0
C533 C 0.667 0.37322 0.92141 0.0
C534 C 0.65693 0.3103 0.92539 0.0
C535 C 0.63532 0.28036 0.90238 0.0
C536 C 0.62999 0.31367 0.87252 0.0
C537 C 0.64007 0.3763 0.86846 0.0
C538 C 0.6167 0.63427 0.95018 0.0
C539 C 0.5599 0.58845 0.89445 0.0
O540 O 0.6019 0.79005 0.85762 0.0
O541 O 0.57898 0.77735 0.90576 0.0
O542 O 0.58455 0.6694 0.83648 0.0
O543 O 0.63019 0.63501 0.85179 0.0
O544 O 0.65774 0.73638 0.88506 0.0
O545 O 0.6853 0.64132 0.89298 0.0
O546 O 0.67063 0.50947 0.9155 0.0
O547 O 0.65351 0.50574 0.86498 0.0
O548 O 0.61638 0.57483 0.94346 0.0
O549 O 0.63045 0.66214 0.92575 0.0
O550 O 0.58692 0.55293 0.88952 0.0
O551 O 0.56243 0.64981 0.89816 0.0
H552 H 0.54779 0.90209 0.91377 0.0
H553 H 0.55973 1.01389 0.92213 0.0
H554 H 0.65764 0.99163 0.87669 0.0
H555 H 0.64597 0.87919 0.86854 0.0
H556 H 0.68265 0.39454 0.94015 0.0
H557 H 0.66741 0.28592 0.9463 0.0
H558 H 0.61843 0.29168 0.8515 0.0
H559 H 0.63433 0.39976 0.84541 0.0
La560 La 0.37879 0.70558 0.66814 0.0
La561 La 0.34403 0.58991 0.65016 0.0
C562 C 0.39873 0.81697 0.6783 0.0
C563 C 0.38728 0.88314 0.67365 0.0
C564 C 0.3747 0.91709 0.70059 0.0
C565 C 0.36691 0.98109 0.69752 0.0
C566 C 0.37163 1.01266 0.6675 0.0
C567 C 0.38355 0.97881 0.64036 0.0
C568 C 0.3914 0.91474 0.6434 0.0
C569 C 0.3715 0.62139 0.71741 0.0
C570 C 0.30046 0.71081 0.65821 0.0
C571 C 0.32154 0.47842 0.64763 0.0
C572 C 0.33226 0.41182 0.65067 0.0
C573 C 0.32355 0.36991 0.62555 0.0
C574 C 0.3308 0.30576 0.62854 0.0
C575 C 0.34674 0.28203 0.65686 0.0
C576 C 0.35594 0.32386 0.68192 0.0
C577 C 0.34882 0.38828 0.67886 0.0
C578 C 0.35222 0.66621 0.59835 0.0
C579 C 0.42564 0.59739 0.65105 0.0
O580 O 0.38225 0.78287 0.69979 0.0
O581 O 0.40666 0.78451 0.65224 0.0
O582 O 0.39769 0.65683 0.71278 0.0
O583 O 0.34994 0.63612 0.69565 0.0
O584 O 0.32928 0.74058 0.65439 0.0
O585 O 0.29967 0.64883 0.66157 0.0
O586 O 0.33244 0.50991 0.62211 0.0
O587 O 0.32147 0.51272 0.67413 0.0
O588 O 0.32592 0.6315 0.60431 0.0
O589 O 0.37334 0.65674 0.62155 0.0
O590 O 0.39826 0.56141 0.65488 0.0
O591 O 0.42316 0.65889 0.65073 0.0
H592 H 0.3716 0.89449 0.72431 0.0
H593 H 0.35781 1.00635 0.71877 0.0
H594 H 0.3874 1.00234 0.61698 0.0
H595 H 0.40134 0.89038 0.62223 0.0
H596 H 0.31054 0.38673 0.60374 0.0
H597 H 0.32352 0.27437 0.60894 0.0
H598 H 0.3683 0.30651 0.70395 0.0
H599 H 0.35578 0.41934 0.6987 0.0
La600 La 0.60639 0.38692 0.65905 0.0
La601 La 0.64184 0.50686 0.64677 0.0
C602 C 0.58667 0.27387 0.66395 0.0
C603 C 0.59926 0.20854 0.65886 0.0
C604 C 0.60208 0.16777 0.68609 0.0
C605 C 0.61155 0.1048 0.68212 0.0
C606 C 0.61824 0.08083 0.65077 0.0
C607 C 0.61599 0.1215 0.62346 0.0
C608 C 0.60657 0.18476 0.62744 0.0
C609 C 0.60752 0.46623 0.71041 0.0
C610 C 0.6863 0.38365 0.65437 0.0
C611 C 0.66991 0.61304 0.65337 0.0
C612 C 0.66062 0.68069 0.64933 0.0
C613 C 0.67923 0.71962 0.62786 0.0
C614 C 0.67258 0.78443 0.62587 0.0
C615 C 0.64741 0.81189 0.6456 0.0
C616 C 0.62841 0.77294 0.66665 0.0
C617 C 0.63485 0.70819 0.66846 0.0
C618 C 0.6206 0.45313 0.59113 0.0
C619 C 0.5622 0.50109 0.63996 0.0
O620 O 0.60051 0.30535 0.68793 0.0
O621 O 0.58106 0.30965 0.63816 0.0
O622 O 0.58232 0.43059 0.70237 0.0
O623 O 0.63116 0.45487 0.69029 0.0
O624 O 0.65784 0.35221 0.6575 0.0
O625 O 0.68693 0.44558 0.65023 0.0
O626 O 0.67294 0.57881 0.62691 0.0
O627 O 0.65478 0.58216 0.67709 0.0
O628 O 0.62096 0.51281 0.59729 0.0
O629 O 0.63286 0.42509 0.61629 0.0
O630 O 0.58845 0.53415 0.65044 0.0
O631 O 0.56466 0.43949 0.63772 0.0
H632 H 0.59638 0.18441 0.71056 0.0
H633 H 0.61309 0.07439 0.70352 0.0
H634 H 0.62107 0.10402 0.59904 0.0
H635 H 0.60456 0.21466 0.60589 0.0
H636 H 0.69935 0.70005 0.61299 0.0
H637 H 0.68748 0.81341 0.60935 0.0
H638 H 0.60879 0.79288 0.682 0.0
H639 H 0.61995 0.67996 0.68533 0.0
C640 C 0.21707 0.30387 0.18319 0.0
C641 C 0.21498 0.25655 0.1587 0.0
C642 C 0.26024 0.30881 0.12785 0.0
C643 C 0.26468 0.35261 0.15362 0.0
N644 N 0.25056 0.38633 0.20831 0.0
N645 N 0.23956 0.20672 0.11141 0.0
C646 C 0.24383 0.34897 0.18195 0.0
C647 C 0.23826 0.25658 0.13228 0.0
N648 N 0.19338 0.30572 0.20767 0.0
N649 N 0.27593 0.31895 0.09843 0.0
H650 H 0.22382 0.16769 0.11386 0.0
H651 H 0.25831 0.20151 0.09362 0.0
H652 H 0.29038 0.35902 0.09386 0.0
H653 H 0.27139 0.29203 0.07762 0.0
H654 H 0.19071 0.34346 0.22359 0.0
H655 H 0.17529 0.27054 0.21115 0.0
H656 H 0.23893 0.38075 0.23109 0.0
H657 H 0.26949 0.4205 0.20816 0.0
C658 C 0.76812 0.78932 0.17982 0.0
C659 C 0.76888 0.83934 0.15638 0.0
C660 C 0.72243 0.78966 0.12608 0.0
C661 C 0.71945 0.74305 0.15108 0.0
N662 N 0.73741 0.70105 0.20331 0.0
N663 N 0.74408 0.89182 0.10961 0.0
C664 C 0.74199 0.74315 0.17823 0.0
C665 C 0.74515 0.84096 0.13025 0.0
N666 N 0.7926 0.78585 0.2036 0.0
N667 N 0.70396 0.78362 0.09783 0.0
H668 H 0.76035 0.93003 0.11195 0.0
H669 H 0.72518 0.89892 0.09209 0.0
H670 H 0.68773 0.74575 0.0938 0.0
H671 H 0.70711 0.81226 0.07723 0.0
H672 H 0.7965 0.74644 0.21842 0.0
H673 H 0.81013 0.82166 0.20765 0.0
H674 H 0.74991 0.70358 0.22579 0.0
H675 H 0.71971 0.66491 0.20221 0.0
C676 C 0.26519 0.79276 0.36906 0.0
C677 C 0.2677 0.74948 0.39576 0.0
C678 C 0.22059 0.80296 0.42336 0.0
C679 C 0.21935 0.84821 0.39742 0.0
N680 N 0.24337 0.89225 0.34819 0.0
N681 N 0.25048 0.71691 0.44996 0.0
C682 C 0.24274 0.84512 0.37115 0.0
C683 C 0.24604 0.75541 0.42332 0.0
N684 N 0.28351 0.78213 0.34112 0.0
N685 N 0.19672 0.80464 0.4477 0.0
H686 H 0.26699 0.67879 0.44986 0.0
H687 H 0.23902 0.72422 0.47264 0.0
H688 H 0.17943 0.84138 0.45009 0.0
H689 H 0.193 0.76854 0.46469 0.0
H690 H 0.28083 0.80823 0.31957 0.0
H691 H 0.29944 0.7433 0.3385 0.0
H692 H 0.26193 0.89639 0.33013 0.0
H693 H 0.2269 0.93057 0.34894 0.0
C694 C 0.7456 0.25181 0.41449 0.0
C695 C 0.76871 0.25066 0.38787 0.0
C696 C 0.74033 0.34314 0.36326 0.0
C697 C 0.7187 0.3465 0.39098 0.0
N698 N 0.70438 0.31166 0.4456 0.0
N699 N 0.79045 0.2979 0.3381 0.0
C700 C 0.72248 0.30294 0.41736 0.0
C701 C 0.76679 0.29733 0.36265 0.0
N702 N 0.74544 0.20361 0.43684 0.0
N703 N 0.73456 0.38176 0.33687 0.0
H704 H 0.80836 0.26228 0.33516 0.0
H705 H 0.79337 0.33492 0.32151 0.0
H706 H 0.71635 0.41731 0.33702 0.0
H707 H 0.74647 0.37668 0.31423 0.0
H708 H 0.72708 0.19825 0.45499 0.0
H709 H 0.76202 0.16562 0.4355 0.0
H710 H 0.70825 0.28581 0.46707 0.0
H711 H 0.68755 0.34901 0.44856 0.0
C712 C 0.71997 0.78419 0.91731 0.0
C713 C 0.71725 0.74069 0.89117 0.0
C714 C 0.76527 0.79151 0.8633 0.0
C715 C 0.76616 0.83806 0.88825 0.0
N716 N 0.74187 0.88376 0.93676 0.0
N717 N 0.73553 0.70388 0.83842 0.0
C718 C 0.74269 0.83594 0.91458 0.0
C719 C 0.73965 0.74426 0.86404 0.0
N720 N 0.70131 0.77465 0.94521 0.0
N721 N 0.78919 0.79246 0.83897 0.0
H722 H 0.71855 0.66644 0.83932 0.0
H723 H 0.74786 0.70847 0.81596 0.0
H724 H 0.80649 0.82911 0.83598 0.0
H725 H 0.79291 0.75596 0.82251 0.0
H726 H 0.70417 0.80077 0.96653 0.0
H727 H 0.68508 0.73633 0.94814 0.0
H728 H 0.72323 0.88842 0.95467 0.0
H729 H 0.75818 0.92214 0.93552 0.0
C730 C 0.24715 0.32529 0.86326 0.0
C731 C 0.2659 0.33398 0.89264 0.0
C732 C 0.23639 0.24406 0.91783 0.0
C733 C 0.21491 0.2403 0.89007 0.0
N734 N 0.19735 0.28106 0.83726 0.0
N735 N 0.27397 0.3093 0.94997 0.0
C736 C 0.21953 0.2822 0.86308 0.0
C737 C 0.25927 0.29535 0.92051 0.0
N738 N 0.25679 0.35543 0.83504 0.0
N739 N 0.23511 0.19844 0.94155 0.0
H740 H 0.2897 0.34815 0.95306 0.0
H741 H 0.26779 0.28668 0.97193 0.0
H742 H 0.21895 0.1599 0.94001 0.0
H743 H 0.25229 0.19551 0.96095 0.0
H744 H 0.24654 0.34557 0.81207 0.0
H745 H 0.27705 0.38668 0.83406 0.0
H746 H 0.19662 0.31564 0.81904 0.0
H747 H 0.17842 0.24714 0.83495 0.0
C748 C 0.72032 0.2996 0.62755 0.0
C749 C 0.71762 0.34475 0.65297 0.0
C750 C 0.76671 0.29707 0.68081 0.0
C751 C 0.76785 0.24931 0.65649 0.0
N752 N 0.74248 0.19904 0.60976 0.0
N753 N 0.73564 0.38343 0.70551 0.0
C754 C 0.74356 0.24865 0.63083 0.0
C755 C 0.74029 0.34297 0.67998 0.0
N756 N 0.70132 0.30693 0.59966 0.0
N757 N 0.79107 0.29851 0.70473 0.0
H758 H 0.71753 0.41915 0.705 0.0
H759 H 0.74843 0.37993 0.72781 0.0
H760 H 0.80884 0.26268 0.70806 0.0
H761 H 0.79462 0.33623 0.72048 0.0
H762 H 0.7043 0.27956 0.57879 0.0
H763 H 0.68476 0.34466 0.59614 0.0
H764 H 0.72325 0.19245 0.59259 0.0
H765 H 0.75927 0.16132 0.61128 0.0
C766 C 0.2217 0.79934 0.62998 0.0
C767 C 0.21918 0.84615 0.65455 0.0
C768 C 0.26835 0.80028 0.68309 0.0
C769 C 0.26948 0.75098 0.65957 0.0
N770 N 0.24463 0.69878 0.61308 0.0
N771 N 0.23881 0.89114 0.70502 0.0
C772 C 0.24529 0.74898 0.63379 0.0
C773 C 0.2424 0.84696 0.6811 0.0
N774 N 0.20219 0.80469 0.60229 0.0
N775 N 0.29233 0.80234 0.70738 0.0
H776 H 0.22183 0.92846 0.7029 0.0
H777 H 0.25178 0.89033 0.72728 0.0
H778 H 0.30922 0.76555 0.71199 0.0
H779 H 0.29624 0.84083 0.72251 0.0
H780 H 0.20483 0.77613 0.58183 0.0
H781 H 0.1854 0.84196 0.59845 0.0
H782 H 0.22548 0.69105 0.59597 0.0
H783 H 0.26173 0.66163 0.61473 0.0
C784 C 0.1444 1.01577 0.28183 0.0
C785 C 0.11584 1.01503 0.30346 0.0
C786 C 0.09294 0.10686 0.27297 0.0
C787 C 0.1186 0.10224 0.24849 0.0
N788 N 0.17647 0.07027 0.2392 0.0
N789 N 0.05981 0.05578 0.31506 0.0
C790 C 0.14659 0.06157 0.2555 0.0
C791 C 0.08926 0.05915 0.29756 0.0
N792 N 0.16851 0.96993 0.28497 0.0
N793 N 0.07424 0.16074 0.27529 0.0
H794 H 0.05586 1.024 0.33405 0.0
H795 H 0.03812 0.08115 0.30871 0.0
H796 H 0.07993 0.20123 0.26187 0.0
H797 H 0.0572 0.16921 0.2943 0.0
H798 H 0.18754 0.96226 0.26775 0.0
H799 H 0.16782 0.93552 0.30329 0.0
H800 H 0.19883 0.0467 0.24505 0.0
H801 H 0.18033 0.10699 0.22268 0.0
C802 C 0.83748 0.07496 0.28447 0.0
C803 C 0.86788 0.08101 0.3035 0.0
C804 C 0.89207 0.99284 0.27174 0.0
C805 C 0.86502 0.99464 0.24861 0.0
N806 N 0.80742 1.02772 0.23832 0.0
N807 N 0.92652 0.04837 0.31064 0.0
C808 C 0.83626 1.03273 0.25666 0.0
C809 C 0.89584 1.04123 0.29553 0.0
N810 N 0.80977 0.11019 0.29266 0.0
N811 N 0.91255 0.94109 0.27353 0.0
H812 H 0.9309 0.07818 0.33022 0.0
H813 H 0.94849 1.0264 0.30223 0.0
H814 H 0.9074 0.89999 0.26072 0.0
H815 H 0.93086 0.93479 0.29175 0.0
H816 H 0.78565 0.10407 0.2829 0.0
H817 H 0.81045 0.14571 0.31005 0.0
H818 H 0.78735 0.05937 0.23896 0.0
H819 H 0.80308 0.99062 0.22246 0.0
C820 C 0.88929 0.09891 0.77212 0.0
C821 C 0.8629 0.09616 0.74834 0.0
C822 C 0.83544 1.01471 0.78411 0.0
C823 C 0.86549 1.0096 0.80381 0.0
N824 N 0.92378 1.04369 0.8115 0.0
N825 N 0.80604 0.06087 0.73687 0.0
C826 C 0.8932 0.05025 0.79608 0.0
C827 C 0.83444 0.05689 0.75594 0.0
N828 N 0.90893 0.15159 0.77431 0.0
N829 N 0.80791 0.97862 0.79198 0.0
H830 H 0.80171 0.09792 0.72066 0.0
H831 H 0.78634 1.02847 0.73726 0.0
H832 H 0.80854 0.94318 0.8097 0.0
H833 H 0.78398 0.984 0.78164 0.0
H834 H 0.92677 0.15815 0.79288 0.0
H835 H 0.90339 0.19284 0.76144 0.0
H836 H 0.94558 0.06665 0.80327 0.0
H837 H 0.92831 1.01342 0.83109 0.0
C838 C 0.08191 1.04401 0.79358 0.0
C839 C 0.11177 0.07585 0.80398 0.0
C840 C 0.14217 1.02289 0.75844 0.0
C841 C 0.11103 1.00011 0.74477 0.0
N842 N 0.0494 1.00307 0.74852 0.0
N843 N 0.16975 0.10306 0.79114 0.0
C844 C 0.08046 1.01466 0.76213 0.0
C845 C 0.14175 0.06737 0.78496 0.0
N846 N 0.0548 1.03924 0.81428 0.0
N847 N 0.17244 0.99963 0.7478 0.0
H848 H 0.17065 0.13658 0.8096 0.0
H849 H 0.19086 0.1037 0.77575 0.0
H850 H 0.17427 0.96311 0.73114 0.0
H851 H 0.19552 1.01053 0.75887 0.0
H852 H 0.03394 1.01057 0.80967 0.0
H853 H 0.05493 0.05741 0.83782 0.0
H854 H 0.02682 1.01914 0.75879 0.0
H855 H 0.04571 0.98539 0.72512 0.0
C856 C 0.58555 0.55306 0.29479 0.0
C857 C 0.61192 0.50862 0.30099 0.0
C858 C 0.64326 0.55391 0.25324 0.0
C859 C 0.61569 0.59549 0.24583 0.0
N860 N 0.57047 0.65391 0.27146 0.0
N861 N 0.66349 0.46037 0.28195 0.0
C862 C 0.58945 0.60024 0.26982 0.0
C863 C 0.64031 0.50795 0.27928 0.0
N864 N 0.55616 0.55043 0.31242 0.0
N865 N 0.67357 0.56155 0.23756 0.0
H866 H 0.66197 0.4251 0.29977 0.0
H867 H 0.6822 0.45187 0.2645 0.0
H868 H 0.67808 0.59723 0.22067 0.0
H869 H 0.69565 0.53781 0.24423 0.0
H870 H 0.53447 0.57571 0.30599 0.0
H871 H 0.55221 0.51912 0.33164 0.0
H872 H 0.55306 0.66266 0.29011 0.0
H873 H 0.57614 0.69425 0.25796 0.0
C874 C 0.35847 0.61585 0.27639 0.0
C875 C 0.36157 0.58229 0.30655 0.0
C876 C 0.35817 0.48284 0.27517 0.0
C877 C 0.3608 0.51634 0.24495 0.0
N878 N 0.36507 0.61635 0.21722 0.0
N879 N 0.3662 0.48212 0.33416 0.0
C880 C 0.36093 0.58334 0.24572 0.0
C881 C 0.36146 0.51527 0.30578 0.0
N882 N 0.35242 0.67906 0.27705 0.0
N883 N 0.35174 0.41979 0.27463 0.0
H884 H 0.36799 0.50378 0.35683 0.0
H885 H 0.37104 0.43404 0.33499 0.0
H886 H 0.3487 0.39499 0.25282 0.0
H887 H 0.34599 0.3934 0.29554 0.0
H888 H 0.34635 0.70561 0.25628 0.0
H889 H 0.35012 0.70398 0.29891 0.0
H890 H 0.3699 0.6644 0.21624 0.0
H891 H 0.3662 0.59457 0.19455 0.0
C892 C 0.3356 0.52778 0.79241 0.0
C893 C 0.3624 0.48425 0.79894 0.0
C894 C 0.39254 0.5254 0.74995 0.0
C895 C 0.36748 0.57289 0.74492 0.0
N896 N 0.31659 0.62308 0.76446 0.0
N897 N 0.4048 0.42197 0.77167 0.0
C898 C 0.3391 0.57438 0.7667 0.0
C899 C 0.38767 0.47757 0.77427 0.0
N900 N 0.30552 0.52143 0.80861 0.0
N901 N 0.42175 0.52584 0.732 0.0
H902 H 0.39841 0.38224 0.78543 0.0
H903 H 0.42121 0.41184 0.75236 0.0
H904 H 0.42647 0.55768 0.71322 0.0
H905 H 0.44263 0.49773 0.73773 0.0
H906 H 0.28376 0.54681 0.80267 0.0
H907 H 0.30097 0.48558 0.82543 0.0
H908 H 0.29806 0.63198 0.78202 0.0
H909 H 0.31827 0.65831 0.74663 0.0
C910 C 0.63904 0.56089 0.78625 0.0
C911 C 0.60826 0.58694 0.79896 0.0
C912 C 0.57904 0.54327 0.74987 0.0
C913 C 0.60853 0.50923 0.74037 0.0
N914 N 0.66497 0.47597 0.75577 0.0
N915 N 0.54663 0.58927 0.79373 0.0
C916 C 0.63806 0.51535 0.76032 0.0
C917 C 0.57768 0.57439 0.78096 0.0
N918 N 0.66969 0.58174 0.79729 0.0
N919 N 0.55217 0.54798 0.72882 0.0
H920 H 0.54279 0.60803 0.81687 0.0
H921 H 0.52388 0.57455 0.78326 0.0
H922 H 0.55167 0.52705 0.7059 0.0
H923 H 0.53184 0.57834 0.73263 0.0
H924 H 0.69263 0.56825 0.78675 0.0
H925 H 0.67224 0.61866 0.8136 0.0
H926 H 0.68563 0.47425 0.77175 0.0
H927 H 0.66495 0.44011 0.73853 0.0
C928 C 0.15034 0.21326 1.00562 0.0
C929 C 0.12424 0.18043 0.98878 0.0
C930 C 0.09534 0.16578 0.04245 0.0
C931 C 0.12531 0.18365 0.05941 0.0
N932 N 0.17939 0.23548 0.05698 0.0
N933 N 0.07099 0.12402 0.99261 0.0
C934 C 0.1521 0.21115 0.04081 0.0
C935 C 0.09618 0.15721 1.0075 0.0
N936 N 0.17309 0.24779 0.98776 0.0
N937 N 0.06566 0.15928 0.05928 0.0
H938 H 0.0692 0.11865 0.96739 0.0
H939 H 0.05278 0.09863 1.00564 0.0
H940 H 0.06344 0.1705 0.084 0.0
H941 H 0.04241 0.15149 0.04784 0.0
H942 H 0.19138 0.27685 0.99806 0.0
H943 H 0.17146 0.25211 0.96228 0.0
H944 H 0.20201 0.24821 0.04558 0.0
H945 H 0.17935 0.24208 0.08234 0.0
C946 C 0.84679 0.87534 1.00608 0.0
C947 C 0.85557 0.93034 0.98805 0.0
C948 C 0.87059 0.98246 0.04033 0.0
C949 C 0.85736 0.93062 0.05851 0.0
N950 N 0.83245 0.82759 0.05888 0.0
N951 N 0.87475 1.03787 0.9881 0.0
C952 C 0.84575 0.87669 0.04136 0.0
C953 C 0.8678 0.9839 1.00522 0.0
N954 N 0.83947 0.82169 0.98929 0.0
N955 N 0.88541 1.03111 0.0567 0.0
H956 H 0.87409 1.04068 0.96259 0.0
H957 H 0.87924 0.0811 0.99903 0.0
H958 H 0.88627 1.03371 0.08221 0.0
H959 H 0.89925 0.06657 0.04521 0.0
H960 H 0.83556 0.77818 1.00045 0.0
H961 H 0.84009 0.81973 0.96369 0.0
H962 H 0.8197 0.79002 0.04834 0.0
H963 H 0.833 0.82576 0.08448 0.0
C964 C 0.09354 0.90885 0.50585 0.0
C965 C 0.12212 0.93074 0.48781 0.0
C966 C 0.15198 0.95066 0.54029 0.0
C967 C 0.12252 0.93274 0.55826 0.0
N968 N 0.06945 0.87783 0.55869 0.0
N969 N 0.18131 0.95816 0.48777 0.0
C970 C 0.09467 0.90618 0.54111 0.0
C971 C 0.1523 0.94657 0.50512 0.0
N972 N 0.06471 0.89315 0.48923 0.0
N973 N 0.17925 0.97418 0.5569 0.0
H974 H 0.1822 0.95683 0.46224 0.0
H975 H 0.20507 0.964 0.49844 0.0
H976 H 0.18085 0.97366 0.58246 0.0
H977 H 0.19982 0.99608 0.54567 0.0
H978 H 0.0415 0.88446 0.50053 0.0
H979 H 0.06388 0.89105 0.46367 0.0
H980 H 0.04963 0.85277 0.54815 0.0
H981 H 0.07009 0.8751 0.58425 0.0
C982 C 0.83209 0.20507 0.54005 0.0
C983 C 0.85753 0.17218 0.55817 0.0
C984 C 0.88221 0.13631 0.50578 0.0
C985 C 0.8565 0.16843 0.4875 0.0
N986 N 0.81241 0.24653 0.48745 0.0
N987 N 0.91422 0.12968 0.5566 0.0
C988 C 0.83326 0.20715 0.50482 0.0
C989 C 0.88507 0.14558 0.54053 0.0
N990 N 0.80636 0.2338 0.55665 0.0
N991 N 0.90239 0.09302 0.49081 0.0
H992 H 0.91818 0.13965 0.58126 0.0
H993 H 0.93603 0.11481 0.54446 0.0
H994 H 0.90057 0.0823 0.46604 0.0
H995 H 0.91878 0.06334 0.50372 0.0
H996 H 0.78447 0.25103 0.54545 0.0
H997 H 0.8066 0.23871 0.58211 0.0
H998 H 0.79678 0.27999 0.49821 0.0
H999 H 0.81311 0.24978 0.46188 0.0
C1000 C 0.59256 0.67722 0.03834 0.0
C1001 C 0.62104 0.65404 0.05621 0.0
C1002 C 0.65037 0.63368 1.00356 0.0
C1003 C 0.62106 0.65333 0.98573 0.0
N1004 N 0.56863 0.71037 0.98572 0.0
N1005 N 0.68001 0.62491 0.05596 0.0
C1006 C 0.59358 0.68057 1.00309 0.0
C1007 C 0.65095 0.63731 0.03875 0.0
N1008 N 0.56397 0.69378 0.05508 0.0
N1009 N 0.67728 0.6092 0.9868 0.0
H1010 H 0.68116 0.62642 0.08151 0.0
H1011 H 0.70362 0.61833 0.04512 0.0
H1012 H 0.67879 0.61012 0.96124 0.0
H1013 H 0.69757 0.58611 0.99792 0.0
H1014 H 0.54081 0.70353 0.04386 0.0
H1015 H 0.5632 0.69544 0.08063 0.0
H1016 H 0.5491 0.73595 0.99643 0.0
H1017 H 0.56932 0.71392 0.96018 0.0
C1018 C 0.35535 0.3694 1.00658 0.0
C1019 C 0.36027 0.42623 0.98861 0.0
C1020 C 0.37183 0.48114 0.04071 0.0
C1021 C 0.36117 0.4273 0.05881 0.0
N1022 N 0.34751 0.31764 0.0599 0.0
N1023 N 0.37401 0.53648 0.98838 0.0
C1024 C 0.35475 0.37036 0.04192 0.0
C1025 C 0.36938 0.48186 1.00566 0.0
N1026 N 0.35116 0.31477 0.98966 0.0
N1027 N 0.38455 0.53168 0.05715 0.0
H1028 H 0.37419 0.53833 0.96283 0.0
H1029 H 0.37601 0.5805 0.99914 0.0
H1030 H 0.38673 0.53274 0.08262 0.0
H1031 H 0.39598 0.57001 0.04568 0.0
H1032 H 0.34896 0.27064 1.00054 0.0
H1033 H 0.35185 0.31331 0.96406 0.0
H1034 H 0.33944 0.27536 0.04997 0.0
H1035 H 0.34936 0.31675 0.08548 0.0
C1036 C 0.59696 0.40521 0.50377 0.0
C1037 C 0.6243 0.43175 0.48564 0.0
C1038 C 0.65404 0.45388 0.53786 0.0
C1039 C 0.62536 0.43242 0.55594 0.0
N1040 N 0.57487 0.36999 0.55673 0.0
N1041 N 0.68234 0.46646 0.485 0.0
C1042 C 0.59856 0.40219 0.53899 0.0
C1043 C 0.65406 0.45092 0.50267 0.0
N1044 N 0.56883 0.38526 0.48731 0.0
N1045 N 0.68085 0.47906 0.55449 0.0
H1046 H 0.68298 0.46512 0.45942 0.0
H1047 H 0.7059 0.47581 0.49536 0.0
H1048 H 0.68276 0.47707 0.58003 0.0
H1049 H 0.70078 0.50307 0.54337 0.0
H1050 H 0.54622 0.3726 0.49874 0.0
H1051 H 0.56792 0.38336 0.46176 0.0
H1052 H 0.55592 0.34251 0.54635 0.0
H1053 H 0.57625 0.36653 0.58223 0.0
C1054 C 0.33705 0.72067 0.54481 0.0
C1055 C 0.36038 0.68288 0.56295 0.0
C1056 C 0.3819 0.64009 0.51078 0.0
C1057 C 0.35884 0.67825 0.49248 0.0
N1058 N 0.32017 0.76561 0.49206 0.0
N1059 N 0.41346 0.62631 0.56134 0.0
C1060 C 0.33842 0.72229 0.5096 0.0
C1061 C 0.38567 0.64934 0.54535 0.0
N1062 N 0.31282 0.75375 0.56131 0.0
N1063 N 0.39834 0.59138 0.49602 0.0
H1064 H 0.41839 0.63591 0.58583 0.0
H1065 H 0.43382 0.60558 0.54921 0.0
H1066 H 0.39566 0.58073 0.47126 0.0
H1067 H 0.41224 0.55786 0.50909 0.0
H1068 H 0.29226 0.77553 0.54988 0.0
H1069 H 0.31266 0.75724 0.58685 0.0
H1070 H 0.30687 0.80243 0.50274 0.0
H1071 H 0.32095 0.76803 0.46646 0.0
C1072 C 0.97065 0.05472 0.17819 0.0
C1073 C 0.95743 1.02908 0.14878 0.0
C1074 C 0.01307 1.04102 0.12213 0.0
C1075 C 0.02639 0.06414 0.15199 0.0
N1076 N 0.02097 0.07607 0.21038 0.0
N1077 N 0.96631 0.99067 0.09381 0.0
C1078 C 0.00601 0.06643 0.18057 0.0
C1079 C 0.97877 1.02013 0.12101 0.0
N1080 N 0.94958 0.06724 0.20399 0.0
N1081 N 0.03316 1.03988 0.0948 0.0
H1082 H 0.94091 0.97794 0.09137 0.0
H1083 H 0.98126 0.97607 0.07425 0.0
H1084 H 0.05902 0.0501 0.09556 0.0
H1085 H 0.02418 1.03118 0.07123 0.0
H1086 H 0.95718 0.09192 0.22471 0.0
H1087 H 0.92369 0.0576 0.20376 0.0
H1088 H 0.0082 0.07308 0.2327 0.0
H1089 H 0.04719 0.07908 0.21299 0.0
C1090 C 0.96471 1.00254 0.38545 0.0
C1091 C 0.95673 0.05773 0.40324 0.0
C1092 C 0.01605 0.06412 0.42231 0.0
C1093 C 0.02493 1.01501 0.40053 0.0
N1094 N 0.00751 0.94073 0.35886 0.0
N1095 N 0.97384 0.13813 0.4414 0.0
C1096 C -0.00084 0.98454 0.38186 0.0
C1097 C 0.98219 0.08757 0.42249 0.0
N1098 N 0.93974 0.96653 0.37178 0.0
N1099 N 0.03948 0.08602 0.44418 0.0
H1100 H 0.94886 0.15089 0.44643 0.0
H1101 H 0.99158 0.16844 0.45163 0.0
H1102 H 0.06437 0.07009 0.445 0.0
H1103 H 0.03385 0.11629 0.46336 0.0
H1104 H 0.94384 0.92084 0.36367 0.0
H1105 H 0.9144 0.97927 0.37009 0.0
H1106 H 0.99079 0.92527 0.34082 0.0
H1107 H 0.03173 0.92313 0.35563 0.0
C1108 C 0.01072 1.02853 0.92348 0.0
C1109 C 0.01981 0.07722 0.90108 0.0
C1110 C 0.9599 0.08984 0.88498 0.0
C1111 C 0.95155 1.03645 0.9043 0.0
N1112 N 0.96554 0.96945 0.95014 0.0
N1113 N 0.00317 0.14751 0.8566 0.0
C1114 C 0.97611 1.00955 0.92579 0.0
C1115 C -0.00561 0.10669 0.88123 0.0
N1116 N 0.03509 1.00009 0.94237 0.0
N1117 N 0.93524 0.12607 0.87058 0.0
H1118 H 0.02761 0.16301 0.85238 0.0
H1119 H 0.98658 0.16163 0.83802 0.0
H1120 H 0.9096 0.11532 0.87006 0.0
H1121 H 0.93991 0.17081 0.86107 0.0
H1122 H 0.03118 0.95906 0.95585 0.0
H1123 H 0.06004 1.01578 0.94373 0.0
H1124 H 0.98112 0.95166 0.96861 0.0
H1125 H 0.94001 0.95881 0.95402 0.0
C1126 C 0.979 0.07063 0.67831 0.0
C1127 C 0.95686 0.05725 0.65199 0.0
C1128 C 0.00442 1.01093 0.62164 0.0
C1129 C 0.02691 1.02832 0.64748 0.0
N1130 N 0.03595 0.09441 0.69512 0.0
N1131 N 0.94763 1.01601 0.59794 0.0
C1132 C 0.01446 0.06445 0.67409 0.0
C1133 C 0.96927 1.02723 0.62347 0.0
N1134 N 0.96589 0.08581 0.70824 0.0
N1135 N 0.01714 0.98089 0.5948 0.0
H1136 H 0.92161 1.02434 0.59944 0.0
H1137 H 0.95517 1.00003 0.57501 0.0
H1138 H 0.04313 0.97783 0.59042 0.0
H1139 H 0.00239 0.95971 0.57684 0.0
H1140 H 0.98067 0.09095 0.72928 0.0
H1141 H 0.93994 0.0841 0.71284 0.0
H1142 H 0.02748 0.12675 0.71239 0.0
H1143 H 0.06221 0.09186 0.69399 0.0
C1144 C 0.4675 0.57322 0.17239 0.0
C1145 C 0.45665 0.53111 0.14784 0.0
C1146 C 0.51455 0.52792 0.12566 0.0
C1147 C 0.52447 0.5752 0.14815 0.0
N1148 N 0.50676 0.65431 0.18742 0.0
N1149 N 0.46799 0.47842 0.09678 0.0
C1150 C 0.49985 0.60167 0.16967 0.0
C1151 C 0.47968 0.5112 0.12322 0.0
N1152 N 0.44796 0.58326 0.19955 0.0
N1153 N 0.53821 0.49907 0.10647 0.0
H1154 H 0.44247 0.46696 0.09365 0.0
H1155 H 0.48286 0.46818 0.07637 0.0
H1156 H 0.5637 0.51162 0.10635 0.0
H1157 H 0.53298 0.45951 0.09245 0.0
H1158 H 0.4564 0.60825 0.21989 0.0
H1159 H 0.42497 0.56057 0.20348 0.0
H1160 H 0.48823 0.67854 0.20048 0.0
H1161 H 0.5297 0.67794 0.18659 0.0
C1162 C 0.46743 0.52207 0.37798 0.0
C1163 C 0.45828 0.5658 0.40243 0.0
C1164 C 0.51725 0.5666 0.42212 0.0
C1165 C 0.52533 0.5176 0.39992 0.0
N1166 N 0.50477 0.4387 0.3618 0.0
N1167 N 0.47316 0.62182 0.4517 0.0
C1168 C 0.49934 0.49174 0.37975 0.0
C1169 C 0.48285 0.58595 0.42562 0.0
N1170 N 0.44694 0.51309 0.35138 0.0
N1171 N 0.54224 0.5948 0.43997 0.0
H1172 H 0.44828 0.63677 0.45527 0.0
H1173 H 0.48905 0.63197 0.4714 0.0
H1174 H 0.56737 0.57998 0.43975 0.0
H1175 H 0.53846 0.63573 0.45334 0.0
H1176 H 0.45409 0.48667 0.33107 0.0
H1177 H 0.4248 0.53858 0.34759 0.0
H1178 H 0.48518 0.41464 0.35014 0.0
H1179 H 0.52782 0.4154 0.36048 0.0
C1180 C 0.46642 0.56633 0.9144 0.0
C1181 C 0.45719 0.51681 0.89304 0.0
C1182 C 0.51581 0.51317 0.87213 0.0
C1183 C 0.52549 0.5594 0.89534 0.0
N1184 N 0.512 0.61255 0.94572 0.0
N1185 N 0.47567 0.43435 0.85607 0.0
C1186 C 0.5013 0.5814 0.91841 0.0
C1187 C 0.48266 0.48745 0.87346 0.0
N1188 N 0.44226 0.59825 0.93159 0.0
N1189 N 0.53738 0.49521 0.8476 0.0
H1190 H 0.45157 0.41629 0.85284 0.0
H1191 H 0.49445 0.40539 0.84641 0.0
H1192 H 0.56199 0.51144 0.8447 0.0
H1193 H 0.52969 0.46857 0.82756 0.0
H1194 H 0.44753 0.63903 0.94464 0.0
H1195 H 0.41657 0.58742 0.93078 0.0
H1196 H 0.49594 0.62496 0.96493 0.0
H1197 H 0.53761 0.61811 0.95126 0.0
C1198 C 0.488 0.60143 0.66216 0.0
C1199 C 0.46025 0.57032 0.64697 0.0
C1200 C 0.50082 0.5 0.61971 0.0
C1201 C 0.52813 0.53197 0.63533 0.0
N1202 N 0.54554 0.63487 0.6538 0.0
N1203 N 0.44132 0.50037 0.60413 0.0
C1204 C 0.52124 0.58952 0.65111 0.0
C1205 C 0.46682 0.52203 0.62382 0.0
N1206 N 0.48302 0.64163 0.68769 0.0
N1207 N 0.50753 0.4509 0.5994 0.0
H1208 H 0.41648 0.51675 0.60517 0.0
H1209 H 0.44516 0.47 0.58457 0.0
H1210 H 0.53162 0.44348 0.58971 0.0
H1211 H 0.48928 0.41888 0.5917 0.0
H1212 H 0.50303 0.66184 0.70062 0.0
H1213 H 0.45944 0.64902 0.6984 0.0
H1214 H 0.54062 0.67886 0.66386 0.0
H1215 H 0.56829 0.63313 0.64085 0.0
C1216 C 0.10066 0.69442 0.14277 0.0
C1217 C 0.13307 0.71768 0.15186 0.0
C1218 C 0.15327 0.60926 0.16026 0.0
C1219 C 0.12001 0.58652 0.15422 0.0
N1220 N 0.0607 0.60789 0.14473 0.0
N1221 N 0.18893 0.69823 0.17394 0.0
C1222 C 0.09332 0.62926 0.14681 0.0
C1223 C 0.15907 0.67531 0.16184 0.0
N1224 N 0.07722 0.73431 0.12925 0.0
N1225 N 0.17952 0.56766 0.16362 0.0
H1226 H 0.1941 0.74615 0.1756 0.0
H1227 H 0.20747 0.67015 0.18486 0.0
H1228 H 0.17619 0.51908 0.16276 0.0
H1229 H 0.20489 0.58111 0.16448 0.0
H1230 H 0.05458 0.71916 0.11877 0.0
H1231 H 0.08163 0.78223 0.12588 0.0
H1232 H 0.0397 0.63745 0.14311 0.0
H1233 H 0.05425 0.56061 0.14736 0.0
C1234 C 0.82245 0.42362 0.15531 0.0
C1235 C 0.84978 0.38116 0.15022 0.0
C1236 C 0.88986 0.46956 0.15038 0.0
C1237 C 0.86231 0.51236 0.15283 0.0
N1238 N 0.80201 0.53114 0.15196 0.0
N1239 N 0.90861 0.36436 0.13679 0.0
C1240 C 0.82846 0.48963 0.15364 0.0
C1241 C 0.88325 0.40438 0.14598 0.0
N1242 N 0.79098 0.40092 0.16299 0.0
N1243 N 0.92241 0.49083 0.15355 0.0
H1244 H 0.90475 0.31643 0.13321 0.0
H1245 H 0.9327 0.37945 0.12985 0.0
H1246 H 0.92838 0.53807 0.15688 0.0
H1247 H 0.94332 0.46117 0.15572 0.0
H1248 H 0.77093 0.42928 0.17046 0.0
H1249 H 0.78556 0.35305 0.16459 0.0
H1250 H 0.77686 0.51749 0.14891 0.0
H1251 H 0.80546 0.57969 0.15077 0.0
C1252 C 0.11583 0.40792 0.41869 0.0
C1253 C 0.14406 0.3823 0.40173 0.0
C1254 C 0.16124 0.48888 0.3848 0.0
C1255 C 0.13078 0.5133 0.39818 0.0
N1256 N 0.07712 0.4957 0.42507 0.0
N1257 N 0.19156 0.39742 0.36512 0.0
C1258 C 0.10759 0.47273 0.41452 0.0
C1259 C 0.16639 0.4226 0.38402 0.0
N1260 N 0.09742 0.37056 0.43949 0.0
N1261 N 0.18546 0.52924 0.37321 0.0
H1262 H 0.19603 0.34926 0.36357 0.0
H1263 H 0.20626 0.42374 0.34886 0.0
H1264 H 0.18234 0.57793 0.37316 0.0
H1265 H 0.20971 0.51501 0.36639 0.0
H1266 H 0.07874 0.38764 0.45513 0.0
H1267 H 0.1029 0.32312 0.44335 0.0
H1268 H 0.05746 0.46728 0.43354 0.0
H1269 H 0.07049 0.54303 0.42318 0.0
C1270 C 0.89375 0.62191 0.37475 0.0
C1271 C 0.87842 0.5822 0.39862 0.0
C1272 C 0.8653 0.67547 0.43145 0.0
C1273 C 0.87345 0.715 0.40423 0.0
N1274 N 0.92042 0.72251 0.36663 0.0
N1275 N 0.84965 0.57151 0.45063 0.0
C1276 C 0.89478 0.68785 0.38003 0.0
C1277 C 0.8642 0.60908 0.42728 0.0
N1278 N 0.9073 0.59704 0.34687 0.0
N1279 N 0.86495 0.69993 0.46231 0.0
H1280 H 0.84914 0.52264 0.44892 0.0
H1281 H 0.83597 0.58947 0.47036 0.0
H1282 H 0.87271 0.746 0.46671 0.0
H1283 H 0.86226 0.67261 0.48349 0.0
H1284 H 0.91584 0.62497 0.32743 0.0
H1285 H 0.90742 0.54893 0.34214 0.0
H1286 H 0.93866 0.70364 0.35102 0.0
H1287 H 0.92634 0.76717 0.37537 0.0
C1288 C 0.86805 0.4108 0.92757 0.0
C1289 C 0.86942 0.37481 0.89827 0.0
C1290 C 0.88317 0.47171 0.86773 0.0
C1291 C 0.87417 0.50826 0.89541 0.0
N1292 N 0.8577 0.51205 0.95238 0.0
N1293 N 0.90639 0.37222 0.85124 0.0
C1294 C 0.86653 0.47762 0.92556 0.0
C1295 C 0.88475 0.4051 0.87078 0.0
N1296 N 0.87465 0.38242 0.95703 0.0
N1297 N 0.89045 0.50028 0.83845 0.0
H1298 H 0.91405 0.32665 0.85737 0.0
H1299 H 0.92066 0.39299 0.83255 0.0
H1300 H 0.89032 0.54896 0.83529 0.0
H1301 H 0.89395 0.47508 0.81685 0.0
H1302 H 0.87709 0.40703 0.97893 0.0
H1303 H 0.88294 0.33588 0.95845 0.0
H1304 H 0.8487 0.4915 0.974 0.0
H1305 H 0.85682 0.56105 0.95204 0.0
C1306 C 0.09289 0.62157 0.87135 0.0
C1307 C 0.11689 0.57947 0.88546 0.0
C1308 C 0.15288 0.66848 0.90082 0.0
C1309 C 0.12716 0.71053 0.88997 0.0
N1310 N 0.07056 0.72766 0.86927 0.0
N1311 N 0.16736 0.56242 0.91786 0.0
C1312 C 0.09656 0.68723 0.87638 0.0
C1313 C 0.14632 0.6028 0.90132 0.0
N1314 N 0.06721 0.59889 0.85223 0.0
N1315 N 0.18394 0.69126 0.90977 0.0
H1316 H 0.16337 0.51402 0.91882 0.0
H1317 H 0.18713 0.57728 0.93288 0.0
H1318 H 0.18972 0.73907 0.90969 0.0
H1319 H 0.20486 0.66268 0.91449 0.0
H1320 H 0.0511 0.62757 0.83845 0.0
H1321 H 0.06384 0.55115 0.8477 0.0
H1322 H 0.0463 0.71282 0.86282 0.0
H1323 H 0.07235 0.77612 0.87242 0.0
C1324 C 0.87827 0.68081 0.62216 0.0
C1325 C 0.87091 0.7145 0.65136 0.0
C1326 C 0.8757 0.61514 0.68239 0.0
C1327 C 0.87503 0.581 0.65258 0.0
N1328 N 0.87486 0.5821 0.59334 0.0
N1329 N 0.89188 0.71336 0.70691 0.0
C1330 C 0.87603 0.6141 0.62224 0.0
C1331 C 0.87758 0.68193 0.68133 0.0
N1332 N 0.89383 0.71074 0.59659 0.0
N1333 N 0.87484 0.58411 0.71185 0.0
H1334 H 0.90009 0.75976 0.70438 0.0
H1335 H 0.90025 0.69125 0.72836 0.0
H1336 H 0.87459 0.53523 0.71382 0.0
H1337 H 0.87179 0.6073 0.73412 0.0
H1338 H 0.90249 0.68745 0.57578 0.0
H1339 H 0.90297 0.75653 0.59882 0.0
H1340 H 0.87241 0.60475 0.57065 0.0
H1341 H 0.87343 0.5332 0.59232 0.0
C1342 C 0.10943 0.39948 0.65134 0.0
C1343 C 0.14292 0.37852 0.64482 0.0
C1344 C 0.16091 0.48806 0.63589 0.0
C1345 C 0.12829 0.50922 0.64577 0.0
N1346 N 0.07308 0.48526 0.66818 0.0
N1347 N 0.20176 0.40257 0.63482 0.0
C1348 C 0.10291 0.46493 0.6548 0.0
C1349 C 0.16902 0.42277 0.63808 0.0
N1350 N 0.08364 0.35675 0.6536 0.0
N1351 N 0.18382 0.53023 0.62356 0.0
H1352 H 0.20855 0.35521 0.63572 0.0
H1353 H 0.22251 0.43274 0.63367 0.0
H1354 H 0.17872 0.5782 0.62152 0.0
H1355 H 0.20672 0.51726 0.61284 0.0
H1356 H 0.05814 0.36935 0.65468 0.0
H1357 H 0.08746 0.30846 0.65147 0.0
H1358 H 0.0552 0.4552 0.67862 0.0
H1359 H 0.06738 0.5326 0.67157 0.0
C1360 C 0.60221 0.12602 0.14985 0.0
C1361 C 0.62829 0.08216 0.14252 0.0
C1362 C 0.66881 0.16911 0.13536 0.0
C1363 C 0.64223 0.21288 0.14089 0.0
N1364 N 0.58258 0.23404 0.14733 0.0
N1365 N 0.68486 0.0616 0.12294 0.0
C1366 C 0.60858 0.19154 0.14619 0.0
C1367 C 0.66119 0.10367 0.13369 0.0
N1368 N 0.57182 0.10522 0.1619 0.0
N1369 N 0.70149 0.19002 0.13271 0.0
H1370 H 0.68011 1.0135 0.12143 0.0
H1371 H 0.70817 0.07463 0.11304 0.0
H1372 H 0.70784 0.23758 0.13285 0.0
H1373 H 0.7225 0.16038 0.13252 0.0
H1374 H 0.55326 0.13492 0.17126 0.0
H1375 H 0.56612 0.05778 0.16523 0.0
H1376 H 0.55709 0.22129 0.14748 0.0
H1377 H 0.58634 0.28241 0.14526 0.0
C1378 C 0.34189 0.9198 0.18705 0.0
C1379 C 0.34735 0.88849 0.1568 0.0
C1380 C 0.36763 0.98768 0.1322 0.0
C1381 C 0.35958 1.01993 0.16162 0.0
N1382 N 0.33352 1.01885 0.21512 0.0
N1383 N 0.35953 0.89489 0.09884 0.0
C1384 C 0.3451 0.98652 0.1885 0.0
C1385 C 0.35859 0.92312 0.12887 0.0
N1386 N 0.3348 0.8855 0.21472 0.0
N1387 N 0.38503 1.01812 0.10781 0.0
H1388 H 0.35306 0.84792 0.09533 0.0
H1389 H 0.36385 0.91926 0.07698 0.0
H1390 H 0.39191 0.06533 0.10917 0.0
H1391 H 0.39508 0.99542 0.08745 0.0
H1392 H 0.33414 0.90463 0.23817 0.0
H1393 H 0.33245 0.83669 0.21468 0.0
H1394 H 0.31946 0.99825 0.23396 0.0
H1395 H 0.33533 0.06758 0.217 0.0
C1396 C 0.59442 0.96567 0.38181 0.0
C1397 C 0.61455 1.00645 0.40116 0.0
C1398 C 0.63535 0.91466 0.4321 0.0
C1399 C 0.62155 0.87408 0.40792 0.0
N1400 N 0.56777 0.86391 0.38038 0.0
N1401 N 0.65429 1.01949 0.44571 0.0
C1402 C 0.59512 0.9 0.38828 0.0
C1403 C 0.63515 0.98087 0.42656 0.0
N1404 N 0.57501 0.98916 0.35679 0.0
N1405 N 0.64209 0.89173 0.46276 0.0
H1406 H 0.65391 0.0683 0.44327 0.0
H1407 H 0.67222 1.00238 0.46236 0.0
H1408 H 0.63451 0.84663 0.4698 0.0
H1409 H 0.64948 0.91997 0.4823 0.0
H1410 H 0.56255 0.96035 0.34007 0.0
H1411 H 0.57375 1.03697 0.35109 0.0
H1412 H 0.54625 0.88178 0.36871 0.0
H1413 H 0.56485 0.8185 0.38983 0.0
C1414 C 0.37597 0.12111 0.36509 0.0
C1415 C 0.35961 0.0787 0.38708 0.0
C1416 C 0.32802 0.16709 0.41099 0.0
C1417 C 0.34719 0.20995 0.39157 0.0
N1418 N 0.39208 0.22879 0.35263 0.0
N1419 N 0.32306 0.06176 0.43375 0.0
C1420 C 0.37186 0.18719 0.36923 0.0
C1421 C 0.3363 0.1018 0.4107 0.0
N1422 N 0.39461 0.09808 0.33956 0.0
N1423 N 0.30137 0.1887 0.42917 0.0
H1424 H 0.3284 1.01378 0.43433 0.0
H1425 H 0.30895 0.07669 0.45384 0.0
H1426 H 0.29481 0.23613 0.43024 0.0
H1427 H 0.28404 0.15934 0.44094 0.0
H1428 H 0.40421 0.12605 0.32066 0.0
H1429 H 0.39799 0.05013 0.33559 0.0
H1430 H 0.41313 0.21538 0.33893 0.0
H1431 H 0.38935 0.27738 0.35449 0.0
C1432 C 0.32591 0.91406 0.90228 0.0
C1433 C 0.35143 0.87186 0.89146 0.0
C1434 C 0.38774 0.96107 0.87625 0.0
C1435 C 0.36364 1.00299 0.89 0.0
N1436 N 0.31194 1.01932 0.92037 0.0
N1437 N 0.40857 0.85407 0.87269 0.0
C1438 C 0.33324 0.97947 0.90415 0.0
C1439 C 0.38291 0.89508 0.87969 0.0
N1440 N 0.29433 0.89179 0.90988 0.0
N1441 N 0.41468 0.98436 0.85891 0.0
H1442 H 0.40589 0.80544 0.87463 0.0
H1443 H 0.4333 0.8682 0.86758 0.0
H1444 H 0.41897 1.03234 0.85562 0.0
H1445 H 0.4311 0.95639 0.84533 0.0
H1446 H 0.27357 0.92072 0.91438 0.0
H1447 H 0.2881 0.84421 0.90909 0.0
H1448 H 0.29133 1.00413 0.93428 0.0
H1449 H 0.31639 0.06746 0.92218 0.0
C1450 C 0.63128 0.17345 0.93371 0.0
C1451 C 0.62152 0.21325 0.90708 0.0
C1452 C 0.59782 0.12088 0.87931 0.0
C1453 C 0.61452 0.08064 0.90209 0.0
N1454 N 0.64757 0.06899 0.95166 0.0
N1455 N 0.57284 0.22336 0.87165 0.0
C1456 C 0.63151 0.10704 0.92944 0.0
C1457 C 0.59821 0.18689 0.88435 0.0
N1458 N 0.63323 0.19736 0.9646 0.0
N1459 N 0.58195 0.09643 0.85246 0.0
H1460 H 0.56899 0.26942 0.87946 0.0
H1461 H 0.55318 0.20554 0.85736 0.0
H1462 H 0.58091 0.04832 0.84784 0.0
H1463 H 0.57239 0.12448 0.8335 0.0
H1464 H 0.63756 0.16974 0.98543 0.0
H1465 H 0.6244 0.24246 0.96977 0.0
H1466 H 0.66301 0.08659 0.97024 0.0
H1467 H 0.64744 1.02011 0.94998 0.0
C1468 C 0.393 0.12413 0.66308 0.0
C1469 C 0.36522 0.08176 0.66486 0.0
C1470 C 0.32565 0.1711 0.6653 0.0
C1471 C 0.35324 0.21306 0.6603 0.0
N1472 N 0.41269 0.22889 0.64909 0.0
N1473 N 0.30489 0.06392 0.66271 0.0
C1474 C 0.38682 0.18939 0.65775 0.0
C1475 C 0.33145 0.10501 0.66462 0.0
N1476 N 0.42532 0.10231 0.66755 0.0
N1477 N 0.29406 0.19448 0.67176 0.0
H1478 H 0.30813 1.01529 0.66223 0.0
H1479 H 0.27988 0.07793 0.65882 0.0
H1480 H 0.28886 0.24249 0.67268 0.0
H1481 H 0.27366 0.16663 0.67901 0.0
H1482 H 0.44627 0.1316 0.67018 0.0
H1483 H 0.43093 0.05497 0.67152 0.0
H1484 H 0.43698 0.21335 0.64323 0.0
H1485 H 0.40923 0.27689 0.64499 0.0
C1486 C 0.66536 0.92387 0.65774 0.0
C1487 C 0.64101 0.8815 0.64468 0.0
C1488 C 0.60157 0.96985 0.6357 0.0
C1489 C 0.6267 1.01256 0.64683 0.0
N1490 N 0.6847 1.0318 0.66234 0.0
N1491 N 0.58877 0.86581 0.61508 0.0
C1492 C 0.65929 0.98996 0.65596 0.0
C1493 C 0.60993 0.90507 0.63184 0.0
N1494 N 0.69359 0.90095 0.67324 0.0
N1495 N 0.56929 0.99072 0.62997 0.0
H1496 H 0.59417 0.81838 0.61148 0.0
H1497 H 0.5675 0.88131 0.60218 0.0
H1498 H 0.56221 1.03772 0.63214 0.0
H1499 H 0.5489 0.96085 0.62559 0.0
H1500 H 0.71038 0.92896 0.68638 0.0
H1501 H 0.69884 0.85309 0.67542 0.0
H1502 H 0.70993 1.01869 0.66568 0.0
H1503 H 0.68112 0.08035 0.66138 0.0
loop_
_geom_bond_atom_site_label_1
_geom_bond_atom_site_label_2
_geom_bond_distance
_geom_bond_site_symmetry_2
_ccdc_geom_bond_type
La0 C2 2.928 1_545 S
La0 O20 2.521 1_545 S
La0 O21 2.628 1_545 S
La0 O22 2.554 . S
La0 O23 2.757 . S
La0 O24 2.470 . S
La0 O29 2.482 . S
La0 O31 2.503 . S
La1 C11 2.928 . S
La1 O23 2.482 . S
La1 O25 2.503 . S
La1 O26 2.521 . S
La1 O27 2.628 . S
La1 O28 2.554 . S
La1 O29 2.757 . S
La1 O30 2.470 . S
C2 La0 2.928 1_565 S
C2 C3 1.503 . S
C2 O20 1.261 . S
C2 O21 1.243 . S
C3 C2 1.503 . S
C3 C4 1.394 . S
C3 C8 1.373 . S
C4 C3 1.394 . S
C4 C5 1.380 . S
C4 H32 0.930 . S
C5 C4 1.380 . S
C5 C6 1.376 . S
C5 H33 0.930 . S
C6 C5 1.376 . S
C6 C7 1.370 . S
C7 C6 1.370 . S
C7 C8 1.396 . S
C7 H34 0.929 . S
C8 C3 1.373 . S
C8 C7 1.396 . S
C8 H35 0.929 . S
C9 O22 1.240 . S
C9 O23 1.289 . S
C10 O24 1.258 . S
C10 O25 1.256 . S
C11 La1 2.928 . S
C11 C12 1.503 . S
C11 O26 1.261 . S
C11 O27 1.243 . S
C12 C11 1.503 . S
C12 C13 1.394 . S
C12 C17 1.373 . S
C13 C12 1.394 . S
C13 C14 1.380 . S
C13 H36 0.930 . S
C14 C13 1.380 . S
C14 C15 1.376 . S
C14 H37 0.930 . S
C15 C14 1.376 . S
C15 C16 1.370 . S
C16 C15 1.370 . S
C16 C17 1.396 . S
C16 H38 0.929 . S
C17 C12 1.373 . S
C17 C16 1.396 . S
C17 H39 0.929 . S
C18 O28 1.240 . S
C18 O29 1.289 . S
C19 O30 1.258 . S
C19 O31 1.256 . S
O20 La0 2.521 1_565 S
O20 C2 1.261 . S
O21 La0 2.628 1_565 S
O21 C2 1.243 . S
O22 La0 2.554 . S
O22 C9 1.240 . S
O23 La0 2.757 . S
O23 La1 2.482 . S
O23 C9 1.289 . S
O24 La0 2.470 . S
O24 C10 1.258 . S
O25 La1 2.503 . S
O25 C10 1.256 . S
O26 La1 2.521 . S
O26 C11 1.261 . S
O27 La1 2.628 . S
O27 C11 1.243 . S
O28 La1 2.554 . S
O28 C18 1.240 . S
O29 La0 2.482 . S
O29 La1 2.757 . S
O29 C18 1.289 . S
O30 La1 2.470 . S
O30 C19 1.258 . S
O31 La0 2.503 . S
O31 C19 1.256 . S
H32 C4 0.930 . S
H33 C5 0.930 . S
H34 C7 0.929 . S
H35 C8 0.929 . S
H36 C13 0.930 . S
H37 C14 0.930 . S
H38 C16 0.929 . S
H39 C17 0.929 . S
La40 C42 2.928 1_565 S
La40 O60 2.521 1_565 S
La40 O61 2.628 1_565 S
La40 O62 2.554 . S
La40 O63 2.757 . S
La40 O64 2.470 . S
La40 O69 2.482 . S
La40 O71 2.503 . S
La41 C51 2.928 . S
La41 O63 2.482 . S
La41 O65 2.503 . S
La41 O66 2.521 . S
La41 O67 2.628 . S
La41 O68 2.554 . S
La41 O69 2.757 . S
La41 O70 2.470 . S
C42 La40 2.928 1_545 S
C42 C43 1.503 . S
C42 O60 1.261 . S
C42 O61 1.243 . S
C43 C42 1.503 . S
C43 C44 1.394 . S
C43 C48 1.373 . S
C44 C43 1.394 . S
C44 C45 1.380 . S
C44 H72 0.930 . S
C45 C44 1.380 . S
C45 C46 1.376 . S
C45 H73 0.930 . S
C46 C45 1.376 . S
C46 C47 1.370 . S
C47 C46 1.370 . S
C47 C48 1.396 . S
C47 H74 0.929 . S
C48 C43 1.373 . S
C48 C47 1.396 . S
C48 H75 0.929 . S
C49 O62 1.240 . S
C49 O63 1.289 . S
C50 O64 1.258 . S
C50 O65 1.256 . S
C51 La41 2.928 . S
C51 C52 1.503 . S
C51 O66 1.261 . S
C51 O67 1.243 . S
C52 C51 1.503 . S
C52 C53 1.394 . S
C52 C57 1.373 . S
C53 C52 1.394 . S
C53 C54 1.380 . S
C53 H76 0.930 . S
C54 C53 1.380 . S
C54 C55 1.376 . S
C54 H77 0.930 . S
C55 C54 1.376 . S
C55 C56 1.370 . S
C56 C55 1.370 . S
C56 C57 1.396 . S
C56 H78 0.929 . S
C57 C52 1.373 . S
C57 C56 1.396 . S
C57 H79 0.929 . S
C58 O68 1.240 . S
C58 O69 1.289 . S
C59 O70 1.258 . S
C59 O71 1.256 . S
O60 La40 2.521 1_545 S
O60 C42 1.261 . S
O61 La40 2.628 1_545 S
O61 C42 1.243 . S
O62 La40 2.554 . S
O62 C49 1.240 . S
O63 La40 2.757 . S
O63 La41 2.482 . S
O63 C49 1.289 . S
O64 La40 2.470 . S
O64 C50 1.258 . S
O65 La41 2.503 . S
O65 C50 1.256 . S
O66 La41 2.521 . S
O66 C51 1.261 . S
O67 La41 2.628 . S
O67 C51 1.243 . S
O68 La41 2.554 . S
O68 C58 1.240 . S
O69 La40 2.482 . S
O69 La41 2.757 . S
O69 C58 1.289 . S
O70 La41 2.470 . S
O70 C59 1.258 . S
O71 La40 2.503 . S
O71 C59 1.256 . S
H72 C44 0.930 . S
H73 C45 0.930 . S
H74 C47 0.929 . S
H75 C48 0.929 . S
H76 C53 0.930 . S
H77 C54 0.930 . S
H78 C56 0.929 . S
H79 C57 0.929 . S
La80 C82 2.928 1_565 S
La80 O100 2.521 1_565 S
La80 O101 2.628 1_565 S
La80 O102 2.554 . S
La80 O103 2.757 . S
La80 O104 2.470 . S
La80 O109 2.482 . S
La80 O111 2.503 . S
La81 C91 2.928 . S
La81 O103 2.482 . S
La81 O105 2.503 . S
La81 O106 2.521 . S
La81 O107 2.628 . S
La81 O108 2.554 . S
La81 O109 2.757 . S
La81 O110 2.470 . S
C82 La80 2.928 1_545 S
C82 C83 1.503 . S
C82 O100 1.261 . S
C82 O101 1.243 . S
C83 C82 1.503 . S
C83 C84 1.394 . S
C83 C88 1.373 . S
C84 C83 1.394 . S
C84 C85 1.380 . S
C84 H112 0.930 . S
C85 C84 1.380 . S
C85 C86 1.376 . S
C85 H113 0.930 . S
C86 C85 1.376 . S
C86 C87 1.370 . S
C87 C86 1.370 . S
C87 C88 1.396 . S
C87 H114 0.929 . S
C88 C83 1.373 . S
C88 C87 1.396 . S
C88 H115 0.929 . S
C89 O102 1.240 . S
C89 O103 1.289 . S
C90 O104 1.258 . S
C90 O105 1.256 . S
C91 La81 2.928 . S
C91 C92 1.503 . S
C91 O106 1.261 . S
C91 O107 1.243 . S
C92 C91 1.503 . S
C92 C93 1.394 . S
C92 C97 1.373 . S
C93 C92 1.394 . S
C93 C94 1.380 . S
C93 H116 0.930 . S
C94 C93 1.380 . S
C94 C95 1.376 . S
C94 H117 0.930 . S
C95 C94 1.376 . S
C95 C96 1.370 . S
C96 C95 1.370 . S
C96 C97 1.396 . S
C96 H118 0.929 . S
C97 C92 1.373 . S
C97 C96 1.396 . S
C97 H119 0.929 . S
C98 O108 1.240 . S
C98 O109 1.289 . S
C99 O110 1.258 . S
C99 O111 1.256 . S
O100 La80 2.521 1_545 S
O100 C82 1.261 . S
O101 La80 2.628 1_545 S
O101 C82 1.243 . S
O102 La80 2.554 . S
O102 C89 1.240 . S
O103 La80 2.757 . S
O103 La81 2.482 . S
O103 C89 1.289 . S
O104 La80 2.470 . S
O104 C90 1.258 . S
O105 La81 2.503 . S
O105 C90 1.256 . S
O106 La81 2.521 . S
O106 C91 1.261 . S
O107 La81 2.628 . S
O107 C91 1.243 . S
O108 La81 2.554 . S
O108 C98 1.240 . S
O109 La80 2.482 . S
O109 La81 2.757 . S
O109 C98 1.289 . S
O110 La81 2.470 . S
O110 C99 1.258 . S
O111 La80 2.503 . S
O111 C99 1.256 . S
H112 C84 0.930 . S
H113 C85 0.930 . S
H114 C87 0.929 . S
H115 C88 0.929 . S
H116 C93 0.930 . S
H117 C94 0.930 . S
H118 C96 0.929 . S
H119 C97 0.929 . S
La120 C122 2.928 1_545 S
La120 O140 2.521 1_545 S
La120 O141 2.628 1_545 S
La120 O142 2.554 . S
La120 O143 2.757 . S
La120 O144 2.470 . S
La120 O149 2.482 . S
La120 O151 2.503 . S
La121 C131 2.928 . S
La121 O143 2.482 . S
La121 O145 2.503 . S
La121 O146 2.521 . S
La121 O147 2.628 . S
La121 O148 2.554 . S
La121 O149 2.757 . S
La121 O150 2.470 . S
C122 La120 2.928 1_565 S
C122 C123 1.503 . S
C122 O140 1.261 . S
C122 O141 1.243 . S
C123 C122 1.503 . S
C123 C124 1.394 . S
C123 C128 1.373 . S
C124 C123 1.394 . S
C124 C125 1.380 . S
C124 H152 0.930 . S
C125 C124 1.380 . S
C125 C126 1.376 . S
C125 H153 0.930 . S
C126 C125 1.376 . S
C126 C127 1.370 . S
C127 C126 1.370 . S
C127 C128 1.396 . S
C127 H154 0.929 . S
C128 C123 1.373 . S
C128 C127 1.396 . S
C128 H155 0.929 . S
C129 O142 1.240 . S
C129 O143 1.289 . S
C130 O144 1.258 . S
C130 O145 1.256 . S
C131 La121 2.928 . S
C131 C132 1.503 . S
C131 O146 1.261 . S
C131 O147 1.243 . S
C132 C131 1.503 . S
C132 C133 1.394 . S
C132 C137 1.373 . S
C133 C132 1.394 . S
C133 C134 1.380 . S
C133 H156 0.930 . S
C134 C133 1.380 . S
C134 C135 1.376 . S
C134 H157 0.930 . S
C135 C134 1.376 . S
C135 C136 1.370 . S
C136 C135 1.370 . S
C136 C137 1.396 . S
C136 H158 0.929 . S
C137 C132 1.373 . S
C137 C136 1.396 . S
C137 H159 0.929 . S
C138 O148 1.240 . S
C138 O149 1.289 . S
C139 O150 1.258 . S
C139 O151 1.256 . S
O140 La120 2.521 1_565 S
O140 C122 1.261 . S
O141 La120 2.628 1_565 S
O141 C122 1.243 . S
O142 La120 2.554 . S
O142 C129 1.240 . S
O143 La120 2.757 . S
O143 La121 2.482 . S
O143 C129 1.289 . S
O144 La120 2.470 . S
O144 C130 1.258 . S
O145 La121 2.503 . S
O145 C130 1.256 . S
O146 La121 2.521 . S
O146 C131 1.261 . S
O147 La121 2.628 . S
O147 C131 1.243 . S
O148 La121 2.554 . S
O148 C138 1.240 . S
O149 La120 2.482 . S
O149 La121 2.757 . S
O149 C138 1.289 . S
O150 La121 2.470 . S
O150 C139 1.258 . S
O151 La120 2.503 . S
O151 C139 1.256 . S
H152 C124 0.930 . S
H153 C125 0.930 . S
H154 C127 0.929 . S
H155 C128 0.929 . S
H156 C133 0.930 . S
H157 C134 0.930 . S
H158 C136 0.929 . S
H159 C137 0.929 . S
La160 C162 2.928 . S
La160 O180 2.521 . S
La160 O181 2.628 . S
La160 O182 2.554 . S
La160 O183 2.757 . S
La160 O184 2.470 . S
La160 O189 2.482 . S
La160 O191 2.503 . S
La161 C171 2.928 1_565 S
La161 O183 2.482 . S
La161 O185 2.503 . S
La161 O186 2.521 1_565 S
La161 O187 2.628 1_565 S
La161 O188 2.554 . S
La161 O189 2.757 . S
La161 O190 2.470 . S
C162 La160 2.928 . S
C162 C163 1.503 . S
C162 O180 1.261 . S
C162 O181 1.243 . S
C163 C162 1.503 . S
C163 C164 1.394 . S
C163 C168 1.373 . S
C164 C163 1.394 . S
C164 C165 1.380 . S
C164 H192 0.930 . S
C165 C164 1.380 . S
C165 C166 1.376 . S
C165 H193 0.930 . S
C166 C165 1.376 . S
C166 C167 1.370 . S
C167 C166 1.370 . S
C167 C168 1.396 . S
C167 H194 0.929 . S
C168 C163 1.373 . S
C168 C167 1.396 . S
C168 H195 0.929 . S
C169 O182 1.240 . S
C169 O183 1.289 . S
C170 O184 1.258 . S
C170 O185 1.256 . S
C171 La161 2.928 1_545 S
C171 C172 1.503 . S
C171 O186 1.261 . S
C171 O187 1.243 . S
C172 C171 1.503 . S
C172 C173 1.394 . S
C172 C177 1.373 . S
C173 C172 1.394 . S
C173 C174 1.380 . S
C173 H196 0.930 . S
C174 C173 1.380 . S
C174 C175 1.376 . S
C174 H197 0.930 . S
C175 C174 1.376 . S
C175 C176 1.370 . S
C176 C175 1.370 . S
C176 C177 1.396 . S
C176 H198 0.929 . S
C177 C172 1.373 . S
C177 C176 1.396 . S
C177 H199 0.929 . S
C178 O188 1.240 . S
C178 O189 1.289 . S
C179 O190 1.258 . S
C179 O191 1.256 . S
O180 La160 2.521 . S
O180 C162 1.261 . S
O181 La160 2.628 . S
O181 C162 1.243 . S
O182 La160 2.554 . S
O182 C169 1.240 . S
O183 La160 2.757 . S
O183 La161 2.482 . S
O183 C169 1.289 . S
O184 La160 2.470 . S
O184 C170 1.258 . S
O185 La161 2.503 . S
O185 C170 1.256 . S
O186 La161 2.521 1_545 S
O186 C171 1.261 . S
O187 La161 2.628 1_545 S
O187 C171 1.243 . S
O188 La161 2.554 . S
O188 C178 1.240 . S
O189 La160 2.482 . S
O189 La161 2.757 . S
O189 C178 1.289 . S
O190 La161 2.470 . S
O190 C179 1.258 . S
O191 La160 2.503 . S
O191 C179 1.256 . S
H192 C164 0.930 . S
H193 C165 0.930 . S
H194 C167 0.929 . S
H195 C168 0.929 . S
H196 C173 0.930 . S
H197 C174 0.930 . S
H198 C176 0.929 . S
H199 C177 0.929 . S
La200 C202 2.928 . S
La200 O220 2.521 . S
La200 O221 2.628 . S
La200 O222 2.554 . S
La200 O223 2.757 . S
La200 O224 2.470 . S
La200 O229 2.482 . S
La200 O231 2.503 . S
La201 C211 2.928 1_545 S
La201 O223 2.482 . S
La201 O225 2.503 . S
La201 O226 2.521 1_545 S
La201 O227 2.628 1_545 S
La201 O228 2.554 . S
La201 O229 2.757 . S
La201 O230 2.470 . S
C202 La200 2.928 . S
C202 C203 1.503 . S
C202 O220 1.261 . S
C202 O221 1.243 . S
C203 C202 1.503 . S
C203 C204 1.394 . S
C203 C208 1.373 . S
C204 C203 1.394 . S
C204 C205 1.380 . S
C204 H232 0.930 . S
C205 C204 1.380 . S
C205 C206 1.376 . S
C205 H233 0.930 . S
C206 C205 1.376 . S
C206 C207 1.370 . S
C207 C206 1.370 . S
C207 C208 1.396 . S
C207 H234 0.929 . S
C208 C203 1.373 . S
C208 C207 1.396 . S
C208 H235 0.929 . S
C209 O222 1.240 . S
C209 O223 1.289 . S
C210 O224 1.258 . S
C210 O225 1.256 . S
C211 La201 2.928 1_565 S
C211 C212 1.503 . S
C211 O226 1.261 . S
C211 O227 1.243 . S
C212 C211 1.503 . S
C212 C213 1.394 . S
C212 C217 1.373 . S
C213 C212 1.394 . S
C213 C214 1.380 . S
C213 H236 0.930 . S
C214 C213 1.380 . S
C214 C215 1.376 . S
C214 H237 0.930 . S
C215 C214 1.376 . S
C215 C216 1.370 . S
C216 C215 1.370 . S
C216 C217 1.396 . S
C216 H238 0.929 . S
C217 C212 1.373 . S
C217 C216 1.396 . S
C217 H239 0.929 . S
C218 O228 1.240 . S
C218 O229 1.289 . S
C219 O230 1.258 . S
C219 O231 1.256 . S
O220 La200 2.521 . S
O220 C202 1.261 . S
O221 La200 2.628 . S
O221 C202 1.243 . S
O222 La200 2.554 . S
O222 C209 1.240 . S
O223 La200 2.757 . S
O223 La201 2.482 . S
O223 C209 1.289 . S
O224 La200 2.470 . S
O224 C210 1.258 . S
O225 La201 2.503 . S
O225 C210 1.256 . S
O226 La201 2.521 1_565 S
O226 C211 1.261 . S
O227 La201 2.628 1_565 S
O227 C211 1.243 . S
O228 La201 2.554 . S
O228 C218 1.240 . S
O229 La200 2.482 . S
O229 La201 2.757 . S
O229 C218 1.289 . S
O230 La201 2.470 . S
O230 C219 1.258 . S
O231 La200 2.503 . S
O231 C219 1.256 . S
H232 C204 0.930 . S
H233 C205 0.930 . S
H234 C207 0.929 . S
H235 C208 0.929 . S
H236 C213 0.930 . S
H237 C214 0.930 . S
H238 C216 0.929 . S
H239 C217 0.929 . S
La240 C242 2.928 . S
La240 O260 2.521 . S
La240 O261 2.628 . S
La240 O262 2.554 . S
La240 O263 2.757 . S
La240 O264 2.470 . S
La240 O269 2.482 . S
La240 O271 2.503 . S
La241 C251 2.928 1_545 S
La241 O263 2.482 . S
La241 O265 2.503 . S
La241 O266 2.521 1_545 S
La241 O267 2.628 1_545 S
La241 O268 2.554 . S
La241 O269 2.757 . S
La241 O270 2.470 . S
C242 La240 2.928 . S
C242 C243 1.503 . S
C242 O260 1.261 . S
C242 O261 1.243 . S
C243 C242 1.503 . S
C243 C244 1.394 . S
C243 C248 1.373 . S
C244 C243 1.394 . S
C244 C245 1.380 . S
C244 H272 0.930 . S
C245 C244 1.380 . S
C245 C246 1.376 . S
C245 H273 0.930 . S
C246 C245 1.376 . S
C246 C247 1.370 . S
C247 C246 1.370 . S
C247 C248 1.396 . S
C247 H274 0.929 . S
C248 C243 1.373 . S
C248 C247 1.396 . S
C248 H275 0.929 . S
C249 O262 1.240 . S
C249 O263 1.289 . S
C250 O264 1.258 . S
C250 O265 1.256 . S
C251 La241 2.928 1_565 S
C251 C252 1.503 . S
C251 O266 1.261 . S
C251 O267 1.243 . S
C252 C251 1.503 . S
C252 C253 1.394 . S
C252 C257 1.373 . S
C253 C252 1.394 . S
C253 C254 1.380 . S
C253 H276 0.930 . S
C254 C253 1.380 . S
C254 C255 1.376 . S
C254 H277 0.930 . S
C255 C254 1.376 . S
C255 C256 1.370 . S
C256 C255 1.370 . S
C256 C257 1.396 . S
C256 H278 0.929 . S
C257 C252 1.373 . S
C257 C256 1.396 . S
C257 H279 0.929 . S
C258 O268 1.240 . S
C258 O269 1.289 . S
C259 O270 1.258 . S
C259 O271 1.256 . S
O260 La240 2.521 . S
O260 C242 1.261 . S
O261 La240 2.628 . S
O261 C242 1.243 . S
O262 La240 2.554 . S
O262 C249 1.240 . S
O263 La240 2.757 . S
O263 La241 2.482 . S
O263 C249 1.289 . S
O264 La240 2.470 . S
O264 C250 1.258 . S
O265 La241 2.503 . S
O265 C250 1.256 . S
O266 La241 2.521 1_565 S
O266 C251 1.261 . S
O267 La241 2.628 1_565 S
O267 C251 1.243 . S
O268 La241 2.554 . S
O268 C258 1.240 . S
O269 La240 2.482 . S
O269 La241 2.757 . S
O269 C258 1.289 . S
O270 La241 2.470 . S
O270 C259 1.258 . S
O271 La240 2.503 . S
O271 C259 1.256 . S
H272 C244 0.930 . S
H273 C245 0.930 . S
H274 C247 0.929 . S
H275 C248 0.929 . S
H276 C253 0.930 . S
H277 C254 0.930 . S
H278 C256 0.929 . S
H279 C257 0.929 . S
La280 C282 2.928 . S
La280 O300 2.521 . S
La280 O301 2.628 . S
La280 O302 2.554 . S
La280 O303 2.757 . S
La280 O304 2.470 . S
La280 O309 2.482 . S
La280 O311 2.503 . S
La281 C291 2.928 1_565 S
La281 O303 2.482 . S
La281 O305 2.503 . S
La281 O306 2.521 1_565 S
La281 O307 2.628 1_565 S
La281 O308 2.554 . S
La281 O309 2.757 . S
La281 O310 2.470 . S
C282 La280 2.928 . S
C282 C283 1.503 . S
C282 O300 1.261 . S
C282 O301 1.243 . S
C283 C282 1.503 . S
C283 C284 1.394 . S
C283 C288 1.373 . S
C284 C283 1.394 . S
C284 C285 1.380 . S
C284 H312 0.930 . S
C285 C284 1.380 . S
C285 C286 1.376 . S
C285 H313 0.930 . S
C286 C285 1.376 . S
C286 C287 1.370 . S
C287 C286 1.370 . S
C287 C288 1.396 . S
C287 H314 0.929 . S
C288 C283 1.373 . S
C288 C287 1.396 . S
C288 H315 0.929 . S
C289 O302 1.240 . S
C289 O303 1.289 . S
C290 O304 1.258 . S
C290 O305 1.256 . S
C291 La281 2.928 1_545 S
C291 C292 1.503 . S
C291 O306 1.261 . S
C291 O307 1.243 . S
C292 C291 1.503 . S
C292 C293 1.394 . S
C292 C297 1.373 . S
C293 C292 1.394 . S
C293 C294 1.380 . S
C293 H316 0.930 . S
C294 C293 1.380 . S
C294 C295 1.376 . S
C294 H317 0.930 . S
C295 C294 1.376 . S
C295 C296 1.370 . S
C296 C295 1.370 . S
C296 C297 1.396 . S
C296 H318 0.929 . S
C297 C292 1.373 . S
C297 C296 1.396 . S
C297 H319 0.929 . S
C298 O308 1.240 . S
C298 O309 1.289 . S
C299 O310 1.258 . S
C299 O311 1.256 . S
O300 La280 2.521 . S
O300 C282 1.261 . S
O301 La280 2.628 . S
O301 C282 1.243 . S
O302 La280 2.554 . S
O302 C289 1.240 . S
O303 La280 2.757 . S
O303 La281 2.482 . S
O303 C289 1.289 . S
O304 La280 2.470 . S
O304 C290 1.258 . S
O305 La281 2.503 . S
O305 C290 1.256 . S
O306 La281 2.521 1_545 S
O306 C291 1.261 . S
O307 La281 2.628 1_545 S
O307 C291 1.243 . S
O308 La281 2.554 . S
O308 C298 1.240 . S
O309 La280 2.482 . S
O309 La281 2.757 . S
O309 C298 1.289 . S
O310 La281 2.470 . S
O310 C299 1.258 . S
O311 La280 2.503 . S
O311 C299 1.256 . S
H312 C284 0.930 . S
H313 C285 0.930 . S
H314 C287 0.929 . S
H315 C288 0.929 . S
H316 C293 0.930 . S
H317 C294 0.930 . S
H318 C296 0.929 . S
H319 C297 0.929 . S
La320 C322 2.928 . S
La320 O340 2.521 . S
La320 O341 2.628 . S
La320 O342 2.554 . S
La320 O343 2.757 . S
La320 O344 2.470 . S
La320 O349 2.482 . S
La320 O351 2.503 . S
La321 C331 2.928 . S
La321 O343 2.482 . S
La321 O345 2.503 . S
La321 O346 2.521 . S
La321 O347 2.628 . S
La321 O348 2.554 . S
La321 O349 2.757 . S
La321 O350 2.470 . S
C322 La320 2.928 . S
C322 C323 1.503 . S
C322 O340 1.261 . S
C322 O341 1.243 . S
C323 C322 1.503 . S
C323 C324 1.394 . S
C323 C328 1.373 . S
C324 C323 1.394 . S
C324 C325 1.380 . S
C324 H352 0.930 . S
C325 C324 1.380 . S
C325 C326 1.376 . S
C325 H353 0.930 . S
C326 C325 1.376 . S
C326 C327 1.370 . S
C327 C326 1.370 . S
C327 C328 1.396 . S
C327 H354 0.929 . S
C328 C323 1.373 . S
C328 C327 1.396 . S
C328 H355 0.929 . S
C329 O342 1.240 . S
C329 O343 1.289 . S
C330 O344 1.258 . S
C330 O345 1.256 . S
C331 La321 2.928 . S
C331 C332 1.503 . S
C331 O346 1.261 . S
C331 O347 1.243 . S
C332 C331 1.503 . S
C332 C333 1.394 . S
C332 C337 1.373 . S
C333 C332 1.394 . S
C333 C334 1.380 . S
C333 H356 0.930 . S
C334 C333 1.380 . S
C334 C335 1.376 . S
C334 H357 0.930 . S
C335 C334 1.376 . S
C335 C336 1.370 . S
C336 C335 1.370 . S
C336 C337 1.396 . S
C336 H358 0.929 . S
C337 C332 1.373 . S
C337 C336 1.396 . S
C337 H359 0.929 . S
C338 O348 1.240 . S
C338 O349 1.289 . S
C339 O350 1.258 . S
C339 O351 1.256 . S
O340 La320 2.521 . S
O340 C322 1.261 . S
O341 La320 2.628 . S
O341 C322 1.243 . S
O342 La320 2.554 . S
O342 C329 1.240 . S
O343 La320 2.757 . S
O343 La321 2.482 . S
O343 C329 1.289 . S
O344 La320 2.470 . S
O344 C330 1.258 . S
O345 La321 2.503 . S
O345 C330 1.256 . S
O346 La321 2.521 . S
O346 C331 1.261 . S
O347 La321 2.628 . S
O347 C331 1.243 . S
O348 La321 2.554 . S
O348 C338 1.240 . S
O349 La320 2.482 . S
O349 La321 2.757 . S
O349 C338 1.289 . S
O350 La321 2.470 . S
O350 C339 1.258 . S
O351 La320 2.503 . S
O351 C339 1.256 . S
H352 C324 0.930 . S
H353 C325 0.930 . S
H354 C327 0.929 . S
H355 C328 0.929 . S
H356 C333 0.930 . S
H357 C334 0.930 . S
H358 C336 0.929 . S
H359 C337 0.929 . S
La360 C362 2.928 . S
La360 O380 2.521 . S
La360 O381 2.628 . S
La360 O382 2.554 . S
La360 O383 2.757 . S
La360 O384 2.470 . S
La360 O389 2.482 . S
La360 O391 2.503 . S
La361 C371 2.928 . S
La361 O383 2.482 . S
La361 O385 2.503 . S
La361 O386 2.521 . S
La361 O387 2.628 . S
La361 O388 2.554 . S
La361 O389 2.757 . S
La361 O390 2.470 . S
C362 La360 2.928 . S
C362 C363 1.503 . S
C362 O380 1.261 . S
C362 O381 1.243 . S
C363 C362 1.503 . S
C363 C364 1.394 . S
C363 C368 1.373 . S
C364 C363 1.394 . S
C364 C365 1.380 . S
C364 H392 0.930 . S
C365 C364 1.380 . S
C365 C366 1.376 . S
C365 H393 0.930 . S
C366 C365 1.376 . S
C366 C367 1.370 . S
C367 C366 1.370 . S
C367 C368 1.396 . S
C367 H394 0.929 . S
C368 C363 1.373 . S
C368 C367 1.396 . S
C368 H395 0.929 . S
C369 O382 1.240 . S
C369 O383 1.289 . S
C370 O384 1.258 . S
C370 O385 1.256 . S
C371 La361 2.928 . S
C371 C372 1.503 . S
C371 O386 1.261 . S
C371 O387 1.243 . S
C372 C371 1.503 . S
C372 C373 1.394 . S
C372 C377 1.373 . S
C373 C372 1.394 . S
C373 C374 1.380 . S
C373 H396 0.930 . S
C374 C373 1.380 . S
C374 C375 1.376 . S
C374 H397 0.930 . S
C375 C374 1.376 . S
C375 C376 1.370 . S
C376 C375 1.370 . S
C376 C377 1.396 . S
C376 H398 0.929 . S
C377 C372 1.373 . S
C377 C376 1.396 . S
C377 H399 0.929 . S
C378 O388 1.240 . S
C378 O389 1.289 . S
C379 O390 1.258 . S
C379 O391 1.256 . S
O380 La360 2.521 . S
O380 C362 1.261 . S
O381 La360 2.628 . S
O381 C362 1.243 . S
O382 La360 2.554 . S
O382 C369 1.240 . S
O383 La360 2.757 . S
O383 La361 2.482 . S
O383 C369 1.289 . S
O384 La360 2.470 . S
O384 C370 1.258 . S
O385 La361 2.503 . S
O385 C370 1.256 . S
O386 La361 2.521 . S
O386 C371 1.261 . S
O387 La361 2.628 . S
O387 C371 1.243 . S
O388 La361 2.554 . S
O388 C378 1.240 . S
O389 La360 2.482 . S
O389 La361 2.757 . S
O389 C378 1.289 . S
O390 La361 2.470 . S
O390 C379 1.258 . S
O391 La360 2.503 . S
O391 C379 1.256 . S
H392 C364 0.930 . S
H393 C365 0.930 . S
H394 C367 0.929 . S
H395 C368 0.929 . S
H396 C373 0.930 . S
H397 C374 0.930 . S
H398 C376 0.929 . S
H399 C377 0.929 . S
La400 C402 2.928 . S
La400 O420 2.521 . S
La400 O421 2.628 . S
La400 O422 2.554 . S
La400 O423 2.757 . S
La400 O424 2.470 . S
La400 O429 2.482 . S
La400 O431 2.503 . S
La401 C411 2.928 . S
La401 O423 2.482 . S
La401 O425 2.503 . S
La401 O426 2.521 . S
La401 O427 2.628 . S
La401 O428 2.554 . S
La401 O429 2.757 . S
La401 O430 2.470 . S
C402 La400 2.928 . S
C402 C403 1.503 . S
C402 O420 1.261 . S
C402 O421 1.243 . S
C403 C402 1.503 . S
C403 C404 1.394 . S
C403 C408 1.373 . S
C404 C403 1.394 . S
C404 C405 1.380 . S
C404 H432 0.930 . S
C405 C404 1.380 . S
C405 C406 1.376 . S
C405 H433 0.930 . S
C406 C405 1.376 . S
C406 C407 1.370 . S
C407 C406 1.370 . S
C407 C408 1.396 . S
C407 H434 0.929 . S
C408 C403 1.373 . S
C408 C407 1.396 . S
C408 H435 0.929 . S
C409 O422 1.240 . S
C409 O423 1.289 . S
C410 O424 1.258 . S
C410 O425 1.256 . S
C411 La401 2.928 . S
C411 C412 1.503 . S
C411 O426 1.261 . S
C411 O427 1.243 . S
C412 C411 1.503 . S
C412 C413 1.394 . S
C412 C417 1.373 . S
C413 C412 1.394 . S
C413 C414 1.380 . S
C413 H436 0.930 . S
C414 C413 1.380 . S
C414 C415 1.376 . S
C414 H437 0.930 . S
C415 C414 1.376 . S
C415 C416 1.370 . S
C416 C415 1.370 . S
C416 C417 1.396 . S
C416 H438 0.929 . S
C417 C412 1.373 . S
C417 C416 1.396 . S
C417 H439 0.929 . S
C418 O428 1.240 . S
C418 O429 1.289 . S
C419 O430 1.258 . S
C419 O431 1.256 . S
O420 La400 2.521 . S
O420 C402 1.261 . S
O421 La400 2.628 . S
O421 C402 1.243 . S
O422 La400 2.554 . S
O422 C409 1.240 . S
O423 La400 2.757 . S
O423 La401 2.482 . S
O423 C409 1.289 . S
O424 La400 2.470 . S
O424 C410 1.258 . S
O425 La401 2.503 . S
O425 C410 1.256 . S
O426 La401 2.521 . S
O426 C411 1.261 . S
O427 La401 2.628 . S
O427 C411 1.243 . S
O428 La401 2.554 . S
O428 C418 1.240 . S
O429 La400 2.482 . S
O429 La401 2.757 . S
O429 C418 1.289 . S
O430 La401 2.470 . S
O430 C419 1.258 . S
O431 La400 2.503 . S
O431 C419 1.256 . S
H432 C404 0.930 . S
H433 C405 0.930 . S
H434 C407 0.929 . S
H435 C408 0.929 . S
H436 C413 0.930 . S
H437 C414 0.930 . S
H438 C416 0.929 . S
H439 C417 0.929 . S
La440 C442 2.928 . S
La440 O460 2.521 . S
La440 O461 2.628 . S
La440 O462 2.554 . S
La440 O463 2.757 . S
La440 O464 2.470 . S
La440 O469 2.482 . S
La440 O471 2.503 . S
La441 C451 2.928 . S
La441 O463 2.482 . S
La441 O465 2.503 . S
La441 O466 2.521 . S
La441 O467 2.628 . S
La441 O468 2.554 . S
La441 O469 2.757 . S
La441 O470 2.470 . S
C442 La440 2.928 . S
C442 C443 1.503 . S
C442 O460 1.261 . S
C442 O461 1.243 . S
C443 C442 1.503 . S
C443 C444 1.394 . S
C443 C448 1.373 . S
C444 C443 1.394 . S
C444 C445 1.380 . S
C444 H472 0.930 . S
C445 C444 1.380 . S
C445 C446 1.376 . S
C445 H473 0.930 . S
C446 C445 1.376 . S
C446 C447 1.370 . S
C447 C446 1.370 . S
C447 C448 1.396 . S
C447 H474 0.929 . S
C448 C443 1.373 . S
C448 C447 1.396 . S
C448 H475 0.929 . S
C449 O462 1.240 . S
C449 O463 1.289 . S
C450 O464 1.258 . S
C450 O465 1.256 . S
C451 La441 2.928 . S
C451 C452 1.503 . S
C451 O466 1.261 . S
C451 O467 1.243 . S
C452 C451 1.503 . S
C452 C453 1.394 . S
C452 C457 1.373 . S
C453 C452 1.394 . S
C453 C454 1.380 . S
C453 H476 0.930 . S
C454 C453 1.380 . S
C454 C455 1.376 . S
C454 H477 0.930 . S
C455 C454 1.376 . S
C455 C456 1.370 . S
C456 C455 1.370 . S
C456 C457 1.396 . S
C456 H478 0.929 . S
C457 C452 1.373 . S
C457 C456 1.396 . S
C457 H479 0.929 . S
C458 O468 1.240 . S
C458 O469 1.289 . S
C459 O470 1.258 . S
C459 O471 1.256 . S
O460 La440 2.521 . S
O460 C442 1.261 . S
O461 La440 2.628 . S
O461 C442 1.243 . S
O462 La440 2.554 . S
O462 C449 1.240 . S
O463 La440 2.757 . S
O463 La441 2.482 . S
O463 C449 1.289 . S
O464 La440 2.470 . S
O464 C450 1.258 . S
O465 La441 2.503 . S
O465 C450 1.256 . S
O466 La441 2.521 . S
O466 C451 1.261 . S
O467 La441 2.628 . S
O467 C451 1.243 . S
O468 La441 2.554 . S
O468 C458 1.240 . S
O469 La440 2.482 . S
O469 La441 2.757 . S
O469 C458 1.289 . S
O470 La441 2.470 . S
O470 C459 1.258 . S
O471 La440 2.503 . S
O471 C459 1.256 . S
H472 C444 0.930 . S
H473 C445 0.930 . S
H474 C447 0.929 . S
H475 C448 0.929 . S
H476 C453 0.930 . S
H477 C454 0.930 . S
H478 C456 0.929 . S
H479 C457 0.929 . S
La480 C482 2.928 . S
La480 O500 2.521 . S
La480 O501 2.628 . S
La480 O502 2.554 . S
La480 O503 2.757 . S
La480 O504 2.470 . S
La480 O509 2.482 . S
La480 O511 2.503 . S
La481 C491 2.928 . S
La481 O503 2.482 . S
La481 O505 2.503 . S
La481 O506 2.521 . S
La481 O507 2.628 . S
La481 O508 2.554 . S
La481 O509 2.757 . S
La481 O510 2.470 . S
C482 La480 2.928 . S
C482 C483 1.503 . S
C482 O500 1.261 . S
C482 O501 1.243 . S
C483 C482 1.503 . S
C483 C484 1.394 . S
C483 C488 1.373 . S
C484 C483 1.394 . S
C484 C485 1.380 . S
C484 H512 0.930 . S
C485 C484 1.380 . S
C485 C486 1.376 . S
C485 H513 0.930 . S
C486 C485 1.376 . S
C486 C487 1.370 . S
C487 C486 1.370 . S
C487 C488 1.396 . S
C487 H514 0.929 . S
C488 C483 1.373 . S
C488 C487 1.396 . S
C488 H515 0.929 . S
C489 O502 1.240 . S
C489 O503 1.289 . S
C490 O504 1.258 . S
C490 O505 1.256 . S
C491 La481 2.928 . S
C491 C492 1.503 . S
C491 O506 1.261 . S
C491 O507 1.243 . S
C492 C491 1.503 . S
C492 C493 1.394 . S
C492 C497 1.373 . S
C493 C492 1.394 . S
C493 C494 1.380 . S
C493 H516 0.930 . S
C494 C493 1.380 . S
C494 C495 1.376 . S
C494 H517 0.930 . S
C495 C494 1.376 . S
C495 C496 1.370 . S
C496 C495 1.370 . S
C496 C497 1.396 . S
C496 H518 0.929 . S
C497 C492 1.373 . S
C497 C496 1.396 . S
C497 H519 0.929 . S
C498 O508 1.240 . S
C498 O509 1.289 . S
C499 O510 1.258 . S
C499 O511 1.256 . S
O500 La480 2.521 . S
O500 C482 1.261 . S
O501 La480 2.628 . S
O501 C482 1.243 . S
O502 La480 2.554 . S
O502 C489 1.240 . S
O503 La480 2.757 . S
O503 La481 2.482 . S
O503 C489 1.289 . S
O504 La480 2.470 . S
O504 C490 1.258 . S
O505 La481 2.503 . S
O505 C490 1.256 . S
O506 La481 2.521 . S
O506 C491 1.261 . S
O507 La481 2.628 . S
O507 C491 1.243 . S
O508 La481 2.554 . S
O508 C498 1.240 . S
O509 La480 2.482 . S
O509 La481 2.757 . S
O509 C498 1.289 . S
O510 La481 2.470 . S
O510 C499 1.258 . S
O511 La480 2.503 . S
O511 C499 1.256 . S
H512 C484 0.930 . S
H513 C485 0.930 . S
H514 C487 0.929 . S
H515 C488 0.929 . S
H516 C493 0.930 . S
H517 C494 0.930 . S
H518 C496 0.929 . S
H519 C497 0.929 . S
La520 C522 2.928 . S
La520 O540 2.521 . S
La520 O541 2.628 . S
La520 O542 2.554 . S
La520 O543 2.757 . S
La520 O544 2.470 . S
La520 O549 2.482 . S
La520 O551 2.503 . S
La521 C531 2.928 . S
La521 O543 2.482 . S
La521 O545 2.503 . S
La521 O546 2.521 . S
La521 O547 2.628 . S
La521 O548 2.554 . S
La521 O549 2.757 . S
La521 O550 2.470 . S
C522 La520 2.928 . S
C522 C523 1.503 . S
C522 O540 1.261 . S
C522 O541 1.243 . S
C523 C522 1.503 . S
C523 C524 1.394 . S
C523 C528 1.373 . S
C524 C523 1.394 . S
C524 C525 1.380 . S
C524 H552 0.930 . S
C525 C524 1.380 . S
C525 C526 1.376 . S
C525 H553 0.930 . S
C526 C525 1.376 . S
C526 C527 1.370 . S
C527 C526 1.370 . S
C527 C528 1.396 . S
C527 H554 0.929 . S
C528 C523 1.373 . S
C528 C527 1.396 . S
C528 H555 0.929 . S
C529 O542 1.240 . S
C529 O543 1.289 . S
C530 O544 1.258 . S
C530 O545 1.256 . S
C531 La521 2.928 . S
C531 C532 1.503 . S
C531 O546 1.261 . S
C531 O547 1.243 . S
C532 C531 1.503 . S
C532 C533 1.394 . S
C532 C537 1.373 . S
C533 C532 1.394 . S
C533 C534 1.380 . S
C533 H556 0.930 . S
C534 C533 1.380 . S
C534 C535 1.376 . S
C534 H557 0.930 . S
C535 C534 1.376 . S
C535 C536 1.370 . S
C536 C535 1.370 . S
C536 C537 1.396 . S
C536 H558 0.929 . S
C537 C532 1.373 . S
C537 C536 1.396 . S
C537 H559 0.929 . S
C538 O548 1.240 . S
C538 O549 1.289 . S
C539 O550 1.258 . S
C539 O551 1.256 . S
O540 La520 2.521 . S
O540 C522 1.261 . S
O541 La520 2.628 . S
O541 C522 1.243 . S
O542 La520 2.554 . S
O542 C529 1.240 . S
O543 La520 2.757 . S
O543 La521 2.482 . S
O543 C529 1.289 . S
O544 La520 2.470 . S
O544 C530 1.258 . S
O545 La521 2.503 . S
O545 C530 1.256 . S
O546 La521 2.521 . S
O546 C531 1.261 . S
O547 La521 2.628 . S
O547 C531 1.243 . S
O548 La521 2.554 . S
O548 C538 1.240 . S
O549 La520 2.482 . S
O549 La521 2.757 . S
O549 C538 1.289 . S
O550 La521 2.470 . S
O550 C539 1.258 . S
O551 La520 2.503 . S
O551 C539 1.256 . S
H552 C524 0.930 . S
H553 C525 0.930 . S
H554 C527 0.929 . S
H555 C528 0.929 . S
H556 C533 0.930 . S
H557 C534 0.930 . S
H558 C536 0.929 . S
H559 C537 0.929 . S
La560 C562 2.928 . S
La560 O580 2.521 . S
La560 O581 2.628 . S
La560 O582 2.554 . S
La560 O583 2.757 . S
La560 O584 2.470 . S
La560 O589 2.482 . S
La560 O591 2.503 . S
La561 C571 2.928 . S
La561 O583 2.482 . S
La561 O585 2.503 . S
La561 O586 2.521 . S
La561 O587 2.628 . S
La561 O588 2.554 . S
La561 O589 2.757 . S
La561 O590 2.470 . S
C562 La560 2.928 . S
C562 C563 1.503 . S
C562 O580 1.261 . S
C562 O581 1.243 . S
C563 C562 1.503 . S
C563 C564 1.394 . S
C563 C568 1.373 . S
C564 C563 1.394 . S
C564 C565 1.380 . S
C564 H592 0.930 . S
C565 C564 1.380 . S
C565 C566 1.376 . S
C565 H593 0.930 . S
C566 C565 1.376 . S
C566 C567 1.370 . S
C567 C566 1.370 . S
C567 C568 1.396 . S
C567 H594 0.929 . S
C568 C563 1.373 . S
C568 C567 1.396 . S
C568 H595 0.929 . S
C569 O582 1.240 . S
C569 O583 1.289 . S
C570 O584 1.258 . S
C570 O585 1.256 . S
C571 La561 2.928 . S
C571 C572 1.503 . S
C571 O586 1.261 . S
C571 O587 1.243 . S
C572 C571 1.503 . S
C572 C573 1.394 . S
C572 C577 1.373 . S
C573 C572 1.394 . S
C573 C574 1.380 . S
C573 H596 0.930 . S
C574 C573 1.380 . S
C574 C575 1.376 . S
C574 H597 0.930 . S
C575 C574 1.376 . S
C575 C576 1.370 . S
C576 C575 1.370 . S
C576 C577 1.396 . S
C576 H598 0.929 . S
C577 C572 1.373 . S
C577 C576 1.396 . S
C577 H599 0.929 . S
C578 O588 1.240 . S
C578 O589 1.289 . S
C579 O590 1.258 . S
C579 O591 1.256 . S
O580 La560 2.521 . S
O580 C562 1.261 . S
O581 La560 2.628 . S
O581 C562 1.243 . S
O582 La560 2.554 . S
O582 C569 1.240 . S
O583 La560 2.757 . S
O583 La561 2.482 . S
O583 C569 1.289 . S
O584 La560 2.470 . S
O584 C570 1.258 . S
O585 La561 2.503 . S
O585 C570 1.256 . S
O586 La561 2.521 . S
O586 C571 1.261 . S
O587 La561 2.628 . S
O587 C571 1.243 . S
O588 La561 2.554 . S
O588 C578 1.240 . S
O589 La560 2.482 . S
O589 La561 2.757 . S
O589 C578 1.289 . S
O590 La561 2.470 . S
O590 C579 1.258 . S
O591 La560 2.503 . S
O591 C579 1.256 . S
H592 C564 0.930 . S
H593 C565 0.930 . S
H594 C567 0.929 . S
H595 C568 0.929 . S
H596 C573 0.930 . S
H597 C574 0.930 . S
H598 C576 0.929 . S
H599 C577 0.929 . S
La600 C602 2.928 . S
La600 O620 2.521 . S
La600 O621 2.628 . S
La600 O622 2.554 . S
La600 O623 2.757 . S
La600 O624 2.470 . S
La600 O629 2.482 . S
La600 O631 2.503 . S
La601 C611 2.928 . S
La601 O623 2.482 . S
La601 O625 2.503 . S
La601 O626 2.521 . S
La601 O627 2.628 . S
La601 O628 2.554 . S
La601 O629 2.757 . S
La601 O630 2.470 . S
C602 La600 2.928 . S
C602 C603 1.503 . S
C602 O620 1.261 . S
C602 O621 1.243 . S
C603 C602 1.503 . S
C603 C604 1.394 . S
C603 C608 1.373 . S
C604 C603 1.394 . S
C604 C605 1.380 . S
C604 H632 0.930 . S
C605 C604 1.380 . S
C605 C606 1.376 . S
C605 H633 0.930 . S
C606 C605 1.376 . S
C606 C607 1.370 . S
C607 C606 1.370 . S
C607 C608 1.396 . S
C607 H634 0.929 . S
C608 C603 1.373 . S
C608 C607 1.396 . S
C608 H635 0.929 . S
C609 O622 1.240 . S
C609 O623 1.289 . S
C610 O624 1.258 . S
C610 O625 1.256 . S
C611 La601 2.928 . S
C611 C612 1.503 . S
C611 O626 1.261 . S
C611 O627 1.243 . S
C612 C611 1.503 . S
C612 C613 1.394 . S
C612 C617 1.373 . S
C613 C612 1.394 . S
C613 C614 1.380 . S
C613 H636 0.930 . S
C614 C613 1.380 . S
C614 C615 1.376 . S
C614 H637 0.930 . S
C615 C614 1.376 . S
C615 C616 1.370 . S
C616 C615 1.370 . S
C616 C617 1.396 . S
C616 H638 0.929 . S
C617 C612 1.373 . S
C617 C616 1.396 . S
C617 H639 0.929 . S
C618 O628 1.240 . S
C618 O629 1.289 . S
C619 O630 1.258 . S
C619 O631 1.256 . S
O620 La600 2.521 . S
O620 C602 1.261 . S
O621 La600 2.628 . S
O621 C602 1.243 . S
O622 La600 2.554 . S
O622 C609 1.240 . S
O623 La600 2.757 . S
O623 La601 2.482 . S
O623 C609 1.289 . S
O624 La600 2.470 . S
O624 C610 1.258 . S
O625 La601 2.503 . S
O625 C610 1.256 . S
O626 La601 2.521 . S
O626 C611 1.261 . S
O627 La601 2.628 . S
O627 C611 1.243 . S
O628 La601 2.554 . S
O628 C618 1.240 . S
O629 La600 2.482 . S
O629 La601 2.757 . S
O629 C618 1.289 . S
O630 La601 2.470 . S
O630 C619 1.258 . S
O631 La600 2.503 . S
O631 C619 1.256 . S
H632 C604 0.930 . S
H633 C605 0.930 . S
H634 C607 0.929 . S
H635 C608 0.929 . S
H636 C613 0.930 . S
H637 C614 0.930 . S
H638 C616 0.929 . S
H639 C617 0.929 . S
C640 C641 1.363 . S
C640 C646 1.379 . S
C640 N648 1.356 . S
C641 C640 1.363 . S
C641 C647 1.363 . S
C642 C643 1.363 . S
C642 C647 1.379 . S
C642 N649 1.356 . S
C643 C642 1.363 . S
C643 C646 1.363 . S
N644 C646 1.356 . S
N644 H656 0.984 . S
N644 H657 0.985 . S
N645 C647 1.356 . S
N645 H650 0.984 . S
N645 H651 0.985 . S
C646 C640 1.379 . S
C646 C643 1.363 . S
C646 N644 1.356 . S
C647 C641 1.363 . S
C647 C642 1.379 . S
C647 N645 1.356 . S
N648 C640 1.356 . S
N648 H654 0.984 . S
N648 H655 0.984 . S
N649 C642 1.356 . S
N649 H652 0.984 . S
N649 H653 0.985 . S
H650 N645 0.984 . S
H651 N645 0.985 . S
H652 N649 0.984 . S
H653 N649 0.985 . S
H654 N648 0.984 . S
H655 N648 0.984 . S
H656 N644 0.984 . S
H657 N644 0.985 . S
C658 C659 1.363 . S
C658 C664 1.379 . S
C658 N666 1.356 . S
C659 C658 1.363 . S
C659 C665 1.363 . S
C660 C661 1.363 . S
C660 C665 1.379 . S
C660 N667 1.356 . S
C661 C660 1.363 . S
C661 C664 1.363 . S
N662 C664 1.356 . S
N662 H674 0.984 . S
N662 H675 0.985 . S
N663 C665 1.356 . S
N663 H668 0.984 . S
N663 H669 0.985 . S
C664 C658 1.379 . S
C664 C661 1.363 . S
C664 N662 1.356 . S
C665 C659 1.363 . S
C665 C660 1.379 . S
C665 N663 1.356 . S
N666 C658 1.356 . S
N666 H672 0.984 . S
N666 H673 0.984 . S
N667 C660 1.356 . S
N667 H670 0.984 . S
N667 H671 0.985 . S
H668 N663 0.984 . S
H669 N663 0.985 . S
H670 N667 0.984 . S
H671 N667 0.985 . S
H672 N666 0.984 . S
H673 N666 0.984 . S
H674 N662 0.984 . S
H675 N662 0.985 . S
C676 C677 1.363 . S
C676 C682 1.379 . S
C676 N684 1.356 . S
C677 C676 1.363 . S
C677 C683 1.363 . S
C678 C679 1.363 . S
C678 C683 1.379 . S
C678 N685 1.356 . S
C679 C678 1.363 . S
C679 C682 1.363 . S
N680 C682 1.356 . S
N680 H692 0.984 . S
N680 H693 0.985 . S
N681 C683 1.356 . S
N681 H686 0.984 . S
N681 H687 0.985 . S
C682 C676 1.379 . S
C682 C679 1.363 . S
C682 N680 1.356 . S
C683 C677 1.363 . S
C683 C678 1.379 . S
C683 N681 1.356 . S
N684 C676 1.356 . S
N684 H690 0.984 . S
N684 H691 0.984 . S
N685 C678 1.356 . S
N685 H688 0.984 . S
N685 H689 0.985 . S
H686 N681 0.984 . S
H687 N681 0.985 . S
H688 N685 0.984 . S
H689 N685 0.985 . S
H690 N684 0.984 . S
H691 N684 0.984 . S
H692 N680 0.984 . S
H693 N680 0.985 . S
C694 C695 1.363 . S
C694 C700 1.379 . S
C694 N702 1.356 . S
C695 C694 1.363 . S
C695 C701 1.363 . S
C696 C697 1.363 . S
C696 C701 1.379 . S
C696 N703 1.356 . S
C697 C696 1.363 . S
C697 C700 1.363 . S
N698 C700 1.356 . S
N698 H710 0.984 . S
N698 H711 0.985 . S
N699 C701 1.356 . S
N699 H704 0.984 . S
N699 H705 0.985 . S
C700 C694 1.379 . S
C700 C697 1.363 . S
C700 N698 1.356 . S
C701 C695 1.363 . S
C701 C696 1.379 . S
C701 N699 1.356 . S
N702 C694 1.356 . S
N702 H708 0.984 . S
N702 H709 0.984 . S
N703 C696 1.356 . S
N703 H706 0.984 . S
N703 H707 0.985 . S
H704 N699 0.984 . S
H705 N699 0.985 . S
H706 N703 0.984 . S
H707 N703 0.985 . S
H708 N702 0.984 . S
H709 N702 0.984 . S
H710 N698 0.984 . S
H711 N698 0.985 . S
C712 C713 1.363 . S
C712 C718 1.379 . S
C712 N720 1.356 . S
C713 C712 1.363 . S
C713 C719 1.363 . S
C714 C715 1.363 . S
C714 C719 1.379 . S
C714 N721 1.356 . S
C715 C714 1.363 . S
C715 C718 1.363 . S
N716 C718 1.356 . S
N716 H728 0.984 . S
N716 H729 0.985 . S
N717 C719 1.356 . S
N717 H722 0.984 . S
N717 H723 0.985 . S
C718 C712 1.379 . S
C718 C715 1.363 . S
C718 N716 1.356 . S
C719 C713 1.363 . S
C719 C714 1.379 . S
C719 N717 1.356 . S
N720 C712 1.356 . S
N720 H726 0.984 . S
N720 H727 0.984 . S
N721 C714 1.356 . S
N721 H724 0.984 . S
N721 H725 0.985 . S
H722 N717 0.984 . S
H723 N717 0.985 . S
H724 N721 0.984 . S
H725 N721 0.985 . S
H726 N720 0.984 . S
H727 N720 0.984 . S
H728 N716 0.984 . S
H729 N716 0.985 . S
C730 C731 1.363 . S
C730 C736 1.379 . S
C730 N738 1.356 . S
C731 C730 1.363 . S
C731 C737 1.363 . S
C732 C733 1.363 . S
C732 C737 1.379 . S
C732 N739 1.356 . S
C733 C732 1.363 . S
C733 C736 1.363 . S
N734 C736 1.356 . S
N734 H746 0.984 . S
N734 H747 0.985 . S
N735 C737 1.356 . S
N735 H740 0.984 . S
N735 H741 0.985 . S
C736 C730 1.379 . S
C736 C733 1.363 . S
C736 N734 1.356 . S
C737 C731 1.363 . S
C737 C732 1.379 . S
C737 N735 1.356 . S
N738 C730 1.356 . S
N738 H744 0.984 . S
N738 H745 0.984 . S
N739 C732 1.356 . S
N739 H742 0.984 . S
N739 H743 0.985 . S
H740 N735 0.984 . S
H741 N735 0.985 . S
H742 N739 0.984 . S
H743 N739 0.985 . S
H744 N738 0.984 . S
H745 N738 0.984 . S
H746 N734 0.984 . S
H747 N734 0.985 . S
C748 C749 1.363 . S
C748 C754 1.379 . S
C748 N756 1.356 . S
C749 C748 1.363 . S
C749 C755 1.363 . S
C750 C751 1.363 . S
C750 C755 1.379 . S
C750 N757 1.356 . S
C751 C750 1.363 . S
C751 C754 1.363 . S
N752 C754 1.356 . S
N752 H764 0.984 . S
N752 H765 0.985 . S
N753 C755 1.356 . S
N753 H758 0.984 . S
N753 H759 0.985 . S
C754 C748 1.379 . S
C754 C751 1.363 . S
C754 N752 1.356 . S
C755 C749 1.363 . S
C755 C750 1.379 . S
C755 N753 1.356 . S
N756 C748 1.356 . S
N756 H762 0.984 . S
N756 H763 0.984 . S
N757 C750 1.356 . S
N757 H760 0.984 . S
N757 H761 0.985 . S
H758 N753 0.984 . S
H759 N753 0.985 . S
H760 N757 0.984 . S
H761 N757 0.985 . S
H762 N756 0.984 . S
H763 N756 0.984 . S
H764 N752 0.984 . S
H765 N752 0.985 . S
C766 C767 1.363 . S
C766 C772 1.379 . S
C766 N774 1.356 . S
C767 C766 1.363 . S
C767 C773 1.363 . S
C768 C769 1.363 . S
C768 C773 1.379 . S
C768 N775 1.356 . S
C769 C768 1.363 . S
C769 C772 1.363 . S
N770 C772 1.356 . S
N770 H782 0.984 . S
N770 H783 0.985 . S
N771 C773 1.356 . S
N771 H776 0.984 . S
N771 H777 0.985 . S
C772 C766 1.379 . S
C772 C769 1.363 . S
C772 N770 1.356 . S
C773 C767 1.363 . S
C773 C768 1.379 . S
C773 N771 1.356 . S
N774 C766 1.356 . S
N774 H780 0.984 . S
N774 H781 0.984 . S
N775 C768 1.356 . S
N775 H778 0.984 . S
N775 H779 0.985 . S
H776 N771 0.984 . S
H777 N771 0.985 . S
H778 N775 0.984 . S
H779 N775 0.985 . S
H780 N774 0.984 . S
H781 N774 0.984 . S
H782 N770 0.984 . S
H783 N770 0.985 . S
C784 C785 1.363 . S
C784 C790 1.379 . S
C784 N792 1.356 . S
C785 C784 1.363 . S
C785 C791 1.363 1_565 S
C786 C787 1.363 . S
C786 C791 1.379 . S
C786 N793 1.356 . S
C787 C786 1.363 . S
C787 C790 1.363 1_545 S
N788 C790 1.356 . S
N788 H800 0.984 . S
N788 H801 0.985 1_565 S
N789 C791 1.356 . S
N789 H794 0.984 1_545 S
N789 H795 0.985 . S
C790 C784 1.379 . S
C790 C787 1.363 1_565 S
C790 N788 1.356 . S
C791 C785 1.363 1_545 S
C791 C786 1.379 . S
C791 N789 1.356 . S
N792 C784 1.356 . S
N792 H798 0.984 . S
N792 H799 0.984 . S
N793 C786 1.356 . S
N793 H796 0.984 . S
N793 H797 0.985 . S
H794 N789 0.984 1_565 S
H795 N789 0.985 . S
H796 N793 0.984 . S
H797 N793 0.985 . S
H798 N792 0.984 . S
H799 N792 0.984 . S
H800 N788 0.984 . S
H801 N788 0.985 1_545 S
C802 C803 1.363 . S
C802 C808 1.379 . S
C802 N810 1.356 . S
C803 C802 1.363 . S
C803 C809 1.363 1_545 S
C804 C805 1.363 . S
C804 C809 1.379 . S
C804 N811 1.356 . S
C805 C804 1.363 . S
C805 C808 1.363 1_565 S
N806 C808 1.356 . S
N806 H818 0.984 . S
N806 H819 0.985 1_545 S
N807 C809 1.356 . S
N807 H812 0.984 1_565 S
N807 H813 0.985 . S
C808 C802 1.379 . S
C808 C805 1.363 1_545 S
C808 N806 1.356 . S
C809 C803 1.363 1_565 S
C809 C804 1.379 . S
C809 N807 1.356 . S
N810 C802 1.356 . S
N810 H816 0.984 . S
N810 H817 0.984 . S
N811 C804 1.356 . S
N811 H814 0.984 . S
N811 H815 0.985 . S
H812 N807 0.984 1_545 S
H813 N807 0.985 . S
H814 N811 0.984 . S
H815 N811 0.985 . S
H816 N810 0.984 . S
H817 N810 0.984 . S
H818 N806 0.984 . S
H819 N806 0.985 1_565 S
C820 C821 1.363 . S
C820 C826 1.379 1_545 S
C820 N828 1.356 . S
C821 C820 1.363 . S
C821 C827 1.363 . S
C822 C823 1.363 . S
C822 C827 1.379 1_565 S
C822 N829 1.356 . S
C823 C822 1.363 . S
C823 C826 1.363 . S
N824 C826 1.356 . S
N824 H836 0.984 . S
N824 H837 0.985 . S
N825 C827 1.356 . S
N825 H830 0.984 . S
N825 H831 0.985 . S
C826 C820 1.379 1_565 S
C826 C823 1.363 . S
C826 N824 1.356 . S
C827 C821 1.363 . S
C827 C822 1.379 1_545 S
C827 N825 1.356 . S
N828 C820 1.356 . S
N828 H834 0.984 . S
N828 H835 0.984 . S
N829 C822 1.356 . S
N829 H832 0.984 . S
N829 H833 0.985 . S
H830 N825 0.984 . S
H831 N825 0.985 . S
H832 N829 0.984 . S
H833 N829 0.985 . S
H834 N828 0.984 . S
H835 N828 0.984 . S
H836 N824 0.984 . S
H837 N824 0.985 . S
C838 C839 1.363 . S
C838 C844 1.379 . S
C838 N846 1.356 . S
C839 C838 1.363 . S
C839 C845 1.363 1_545 S
C840 C841 1.363 . S
C840 C845 1.379 . S
C840 N847 1.356 . S
C841 C840 1.363 . S
C841 C844 1.363 1_565 S
N842 C844 1.356 1_565 S
N842 H854 0.984 1_565 S
N842 H855 0.985 . S
N843 C845 1.356 1_545 S
N843 H848 0.984 . S
N843 H849 0.985 1_545 S
C844 C838 1.379 . S
C844 C841 1.363 1_545 S
C844 N842 1.356 1_545 S
C845 C839 1.363 1_565 S
C845 C840 1.379 . S
C845 N843 1.356 1_565 S
N846 C838 1.356 . S
N846 H852 0.984 . S
N846 H853 0.984 . S
N847 C840 1.356 . S
N847 H850 0.984 . S
N847 H851 0.985 . S
H848 N843 0.984 . S
H849 N843 0.985 1_565 S
H850 N847 0.984 . S
H851 N847 0.985 . S
H852 N846 0.984 . S
H853 N846 0.984 . S
H854 N842 0.984 1_545 S
H855 N842 0.985 . S
C856 C857 1.363 . S
C856 C862 1.379 . S
C856 N864 1.356 . S
C857 C856 1.363 . S
C857 C863 1.363 . S
C858 C859 1.363 . S
C858 C863 1.379 . S
C858 N865 1.356 . S
C859 C858 1.363 . S
C859 C862 1.363 . S
N860 C862 1.356 . S
N860 H872 0.984 . S
N860 H873 0.985 . S
N861 C863 1.356 . S
N861 H866 0.984 . S
N861 H867 0.985 . S
C862 C856 1.379 . S
C862 C859 1.363 . S
C862 N860 1.356 . S
C863 C857 1.363 . S
C863 C858 1.379 . S
C863 N861 1.356 . S
N864 C856 1.356 . S
N864 H870 0.984 . S
N864 H871 0.984 . S
N865 C858 1.356 . S
N865 H868 0.984 . S
N865 H869 0.985 . S
H866 N861 0.984 . S
H867 N861 0.985 . S
H868 N865 0.984 . S
H869 N865 0.985 . S
H870 N864 0.984 . S
H871 N864 0.984 . S
H872 N860 0.984 . S
H873 N860 0.985 . S
C874 C875 1.363 . S
C874 C880 1.379 . S
C874 N882 1.356 . S
C875 C874 1.363 . S
C875 C881 1.363 . S
C876 C877 1.363 . S
C876 C881 1.379 . S
C876 N883 1.356 . S
C877 C876 1.363 . S
C877 C880 1.363 . S
N878 C880 1.356 . S
N878 H890 0.984 . S
N878 H891 0.985 . S
N879 C881 1.356 . S
N879 H884 0.984 . S
N879 H885 0.985 . S
C880 C874 1.379 . S
C880 C877 1.363 . S
C880 N878 1.356 . S
C881 C875 1.363 . S
C881 C876 1.379 . S
C881 N879 1.356 . S
N882 C874 1.356 . S
N882 H888 0.984 . S
N882 H889 0.984 . S
N883 C876 1.356 . S
N883 H886 0.984 . S
N883 H887 0.985 . S
H884 N879 0.984 . S
H885 N879 0.985 . S
H886 N883 0.984 . S
H887 N883 0.985 . S
H888 N882 0.984 . S
H889 N882 0.984 . S
H890 N878 0.984 . S
H891 N878 0.985 . S
C892 C893 1.363 . S
C892 C898 1.379 . S
C892 N900 1.356 . S
C893 C892 1.363 . S
C893 C899 1.363 . S
C894 C895 1.363 . S
C894 C899 1.379 . S
C894 N901 1.356 . S
C895 C894 1.363 . S
C895 C898 1.363 . S
N896 C898 1.356 . S
N896 H908 0.984 . S
N896 H909 0.985 . S
N897 C899 1.356 . S
N897 H902 0.984 . S
N897 H903 0.985 . S
C898 C892 1.379 . S
C898 C895 1.363 . S
C898 N896 1.356 . S
C899 C893 1.363 . S
C899 C894 1.379 . S
C899 N897 1.356 . S
N900 C892 1.356 . S
N900 H906 0.984 . S
N900 H907 0.984 . S
N901 C894 1.356 . S
N901 H904 0.984 . S
N901 H905 0.985 . S
H902 N897 0.984 . S
H903 N897 0.985 . S
H904 N901 0.984 . S
H905 N901 0.985 . S
H906 N900 0.984 . S
H907 N900 0.984 . S
H908 N896 0.984 . S
H909 N896 0.985 . S
C910 C911 1.363 . S
C910 C916 1.379 . S
C910 N918 1.356 . S
C911 C910 1.363 . S
C911 C917 1.363 . S
C912 C913 1.363 . S
C912 C917 1.379 . S
C912 N919 1.356 . S
C913 C912 1.363 . S
C913 C916 1.363 . S
N914 C916 1.356 . S
N914 H926 0.984 . S
N914 H927 0.985 . S
N915 C917 1.356 . S
N915 H920 0.984 . S
N915 H921 0.985 . S
C916 C910 1.379 . S
C916 C913 1.363 . S
C916 N914 1.356 . S
C917 C911 1.363 . S
C917 C912 1.379 . S
C917 N915 1.356 . S
N918 C910 1.356 . S
N918 H924 0.984 . S
N918 H925 0.984 . S
N919 C912 1.356 . S
N919 H922 0.984 . S
N919 H923 0.985 . S
H920 N915 0.984 . S
H921 N915 0.985 . S
H922 N919 0.984 . S
H923 N919 0.985 . S
H924 N918 0.984 . S
H925 N918 0.984 . S
H926 N914 0.984 . S
H927 N914 0.985 . S
C928 C929 1.363 . S
C928 C934 1.379 1_556 S
C928 N936 1.356 . S
C929 C928 1.363 . S
C929 C935 1.363 . S
C930 C931 1.363 . S
C930 C935 1.379 1_554 S
C930 N937 1.356 . S
C931 C930 1.363 . S
C931 C934 1.363 . S
N932 C934 1.356 . S
N932 H944 0.984 . S
N932 H945 0.985 . S
N933 C935 1.356 . S
N933 H938 0.984 . S
N933 H939 0.985 . S
C934 C928 1.379 1_554 S
C934 C931 1.363 . S
C934 N932 1.356 . S
C935 C929 1.363 . S
C935 C930 1.379 1_556 S
C935 N933 1.356 . S
N936 C928 1.356 . S
N936 H942 0.984 . S
N936 H943 0.984 . S
N937 C930 1.356 . S
N937 H940 0.984 . S
N937 H941 0.985 . S
H938 N933 0.984 . S
H939 N933 0.985 . S
H940 N937 0.984 . S
H941 N937 0.985 . S
H942 N936 0.984 . S
H943 N936 0.984 . S
H944 N932 0.984 . S
H945 N932 0.985 . S
C946 C947 1.363 . S
C946 C952 1.379 1_556 S
C946 N954 1.356 . S
C947 C946 1.363 . S
C947 C953 1.363 . S
C948 C949 1.363 . S
C948 C953 1.379 1_554 S
C948 N955 1.356 . S
C949 C948 1.363 . S
C949 C952 1.363 . S
N950 C952 1.356 . S
N950 H962 0.984 . S
N950 H963 0.985 . S
N951 C953 1.356 . S
N951 H956 0.984 . S
N951 H957 0.985 . S
C952 C946 1.379 1_554 S
C952 C949 1.363 . S
C952 N950 1.356 . S
C953 C947 1.363 . S
C953 C948 1.379 1_556 S
C953 N951 1.356 . S
N954 C946 1.356 . S
N954 H960 0.984 . S
N954 H961 0.984 . S
N955 C948 1.356 . S
N955 H958 0.984 . S
N955 H959 0.985 . S
H956 N951 0.984 . S
H957 N951 0.985 . S
H958 N955 0.984 . S
H959 N955 0.985 . S
H960 N954 0.984 . S
H961 N954 0.984 . S
H962 N950 0.984 . S
H963 N950 0.985 . S
C964 C965 1.363 . S
C964 C970 1.379 . S
C964 N972 1.356 . S
C965 C964 1.363 . S
C965 C971 1.363 . S
C966 C967 1.363 . S
C966 C971 1.379 . S
C966 N973 1.356 . S
C967 C966 1.363 . S
C967 C970 1.363 . S
N968 C970 1.356 . S
N968 H980 0.984 . S
N968 H981 0.985 . S
N969 C971 1.356 . S
N969 H974 0.984 . S
N969 H975 0.985 . S
C970 C964 1.379 . S
C970 C967 1.363 . S
C970 N968 1.356 . S
C971 C965 1.363 . S
C971 C966 1.379 . S
C971 N969 1.356 . S
N972 C964 1.356 . S
N972 H978 0.984 . S
N972 H979 0.984 . S
N973 C966 1.356 . S
N973 H976 0.984 . S
N973 H977 0.985 . S
H974 N969 0.984 . S
H975 N969 0.985 . S
H976 N973 0.984 . S
H977 N973 0.985 . S
H978 N972 0.984 . S
H979 N972 0.984 . S
H980 N968 0.984 . S
H981 N968 0.985 . S
C982 C983 1.363 . S
C982 C988 1.379 . S
C982 N990 1.356 . S
C983 C982 1.363 . S
C983 C989 1.363 . S
C984 C985 1.363 . S
C984 C989 1.379 . S
C984 N991 1.356 . S
C985 C984 1.363 . S
C985 C988 1.363 . S
N986 C988 1.356 . S
N986 H998 0.984 . S
N986 H999 0.985 . S
N987 C989 1.356 . S
N987 H992 0.984 . S
N987 H993 0.985 . S
C988 C982 1.379 . S
C988 C985 1.363 . S
C988 N986 1.356 . S
C989 C983 1.363 . S
C989 C984 1.379 . S
C989 N987 1.356 . S
N990 C982 1.356 . S
N990 H996 0.984 . S
N990 H997 0.984 . S
N991 C984 1.356 . S
N991 H994 0.984 . S
N991 H995 0.985 . S
H992 N987 0.984 . S
H993 N987 0.985 . S
H994 N991 0.984 . S
H995 N991 0.985 . S
H996 N990 0.984 . S
H997 N990 0.984 . S
H998 N986 0.984 . S
H999 N986 0.985 . S
C1000 C1001 1.363 . S
C1000 C1006 1.379 1_554 S
C1000 N1008 1.356 . S
C1001 C1000 1.363 . S
C1001 C1007 1.363 . S
C1002 C1003 1.363 . S
C1002 C1007 1.379 1_556 S
C1002 N1009 1.356 . S
C1003 C1002 1.363 . S
C1003 C1006 1.363 . S
N1004 C1006 1.356 . S
N1004 H1016 0.984 . S
N1004 H1017 0.985 . S
N1005 C1007 1.356 . S
N1005 H1010 0.984 . S
N1005 H1011 0.985 . S
C1006 C1000 1.379 1_556 S
C1006 C1003 1.363 . S
C1006 N1004 1.356 . S
C1007 C1001 1.363 . S
C1007 C1002 1.379 1_554 S
C1007 N1005 1.356 . S
N1008 C1000 1.356 . S
N1008 H1014 0.984 . S
N1008 H1015 0.984 . S
N1009 C1002 1.356 . S
N1009 H1012 0.984 . S
N1009 H1013 0.985 . S
H1010 N1005 0.984 . S
H1011 N1005 0.985 . S
H1012 N1009 0.984 . S
H1013 N1009 0.985 . S
H1014 N1008 0.984 . S
H1015 N1008 0.984 . S
H1016 N1004 0.984 . S
H1017 N1004 0.985 . S
C1018 C1019 1.363 . S
C1018 C1024 1.379 1_556 S
C1018 N1026 1.356 . S
C1019 C1018 1.363 . S
C1019 C1025 1.363 . S
C1020 C1021 1.363 . S
C1020 C1025 1.379 1_554 S
C1020 N1027 1.356 . S
C1021 C1020 1.363 . S
C1021 C1024 1.363 . S
N1022 C1024 1.356 . S
N1022 H1034 0.984 . S
N1022 H1035 0.985 . S
N1023 C1025 1.356 . S
N1023 H1028 0.984 . S
N1023 H1029 0.985 . S
C1024 C1018 1.379 1_554 S
C1024 C1021 1.363 . S
C1024 N1022 1.356 . S
C1025 C1019 1.363 . S
C1025 C1020 1.379 1_556 S
C1025 N1023 1.356 . S
N1026 C1018 1.356 . S
N1026 H1032 0.984 . S
N1026 H1033 0.984 . S
N1027 C1020 1.356 . S
N1027 H1030 0.984 . S
N1027 H1031 0.985 . S
H1028 N1023 0.984 . S
H1029 N1023 0.985 . S
H1030 N1027 0.984 . S
H1031 N1027 0.985 . S
H1032 N1026 0.984 . S
H1033 N1026 0.984 . S
H1034 N1022 0.984 . S
H1035 N1022 0.985 . S
C1036 C1037 1.363 . S
C1036 C1042 1.379 . S
C1036 N1044 1.356 . S
C1037 C1036 1.363 . S
C1037 C1043 1.363 . S
C1038 C1039 1.363 . S
C1038 C1043 1.379 . S
C1038 N1045 1.356 . S
C1039 C1038 1.363 . S
C1039 C1042 1.363 . S
N1040 C1042 1.356 . S
N1040 H1052 0.984 . S
N1040 H1053 0.985 . S
N1041 C1043 1.356 . S
N1041 H1046 0.984 . S
N1041 H1047 0.985 . S
C1042 C1036 1.379 . S
C1042 C1039 1.363 . S
C1042 N1040 1.356 . S
C1043 C1037 1.363 . S
C1043 C1038 1.379 . S
C1043 N1041 1.356 . S
N1044 C1036 1.356 . S
N1044 H1050 0.984 . S
N1044 H1051 0.984 . S
N1045 C1038 1.356 . S
N1045 H1048 0.984 . S
N1045 H1049 0.985 . S
H1046 N1041 0.984 . S
H1047 N1041 0.985 . S
H1048 N1045 0.984 . S
H1049 N1045 0.985 . S
H1050 N1044 0.984 . S
H1051 N1044 0.984 . S
H1052 N1040 0.984 . S
H1053 N1040 0.985 . S
C1054 C1055 1.363 . S
C1054 C1060 1.379 . S
C1054 N1062 1.356 . S
C1055 C1054 1.363 . S
C1055 C1061 1.363 . S
C1056 C1057 1.363 . S
C1056 C1061 1.379 . S
C1056 N1063 1.356 . S
C1057 C1056 1.363 . S
C1057 C1060 1.363 . S
N1058 C1060 1.356 . S
N1058 H1070 0.984 . S
N1058 H1071 0.985 . S
N1059 C1061 1.356 . S
N1059 H1064 0.984 . S
N1059 H1065 0.985 . S
C1060 C1054 1.379 . S
C1060 C1057 1.363 . S
C1060 N1058 1.356 . S
C1061 C1055 1.363 . S
C1061 C1056 1.379 . S
C1061 N1059 1.356 . S
N1062 C1054 1.356 . S
N1062 H1068 0.984 . S
N1062 H1069 0.984 . S
N1063 C1056 1.356 . S
N1063 H1066 0.984 . S
N1063 H1067 0.985 . S
H1064 N1059 0.984 . S
H1065 N1059 0.985 . S
H1066 N1063 0.984 . S
H1067 N1063 0.985 . S
H1068 N1062 0.984 . S
H1069 N1062 0.984 . S
H1070 N1058 0.984 . S
H1071 N1058 0.985 . S
C1072 C1073 1.363 1_545 S
C1072 C1078 1.379 1_655 S
C1072 N1080 1.356 . S
C1073 C1072 1.363 1_565 S
C1073 C1079 1.363 . S
C1074 C1075 1.363 1_565 S
C1074 C1079 1.379 1_455 S
C1074 N1081 1.356 . S
C1075 C1074 1.363 1_545 S
C1075 C1078 1.363 . S
N1076 C1078 1.356 . S
N1076 H1088 0.984 . S
N1076 H1089 0.985 . S
N1077 C1079 1.356 . S
N1077 H1082 0.984 . S
N1077 H1083 0.985 . S
C1078 C1072 1.379 1_455 S
C1078 C1075 1.363 . S
C1078 N1076 1.356 . S
C1079 C1073 1.363 . S
C1079 C1074 1.379 1_655 S
C1079 N1077 1.356 . S
N1080 C1072 1.356 . S
N1080 H1086 0.984 . S
N1080 H1087 0.984 . S
N1081 C1074 1.356 . S
N1081 H1084 0.984 . S
N1081 H1085 0.985 . S
H1082 N1077 0.984 . S
H1083 N1077 0.985 . S
H1084 N1081 0.984 . S
H1085 N1081 0.985 . S
H1086 N1080 0.984 . S
H1087 N1080 0.984 . S
H1088 N1076 0.984 . S
H1089 N1076 0.985 . S
C1090 C1091 1.363 1_565 S
C1090 C1096 1.379 1_655 S
C1090 N1098 1.356 . S
C1091 C1090 1.363 1_545 S
C1091 C1097 1.363 . S
C1092 C1093 1.363 1_545 S
C1092 C1097 1.379 1_455 S
C1092 N1099 1.356 . S
C1093 C1092 1.363 1_565 S
C1093 C1096 1.363 . S
N1094 C1096 1.356 . S
N1094 H1106 0.984 . S
N1094 H1107 0.985 . S
N1095 C1097 1.356 . S
N1095 H1100 0.984 . S
N1095 H1101 0.985 . S
C1096 C1090 1.379 1_455 S
C1096 C1093 1.363 . S
C1096 N1094 1.356 . S
C1097 C1091 1.363 . S
C1097 C1092 1.379 1_655 S
C1097 N1095 1.356 . S
N1098 C1090 1.356 . S
N1098 H1104 0.984 . S
N1098 H1105 0.984 . S
N1099 C1092 1.356 . S
N1099 H1102 0.984 . S
N1099 H1103 0.985 . S
H1100 N1095 0.984 . S
H1101 N1095 0.985 . S
H1102 N1099 0.984 . S
H1103 N1099 0.985 . S
H1104 N1098 0.984 . S
H1105 N1098 0.984 . S
H1106 N1094 0.984 . S
H1107 N1094 0.985 . S
C1108 C1109 1.363 1_565 S
C1108 C1114 1.379 1_455 S
C1108 N1116 1.356 . S
C1109 C1108 1.363 1_545 S
C1109 C1115 1.363 . S
C1110 C1111 1.363 1_545 S
C1110 C1115 1.379 1_655 S
C1110 N1117 1.356 . S
C1111 C1110 1.363 1_565 S
C1111 C1114 1.363 . S
N1112 C1114 1.356 . S
N1112 H1124 0.984 . S
N1112 H1125 0.985 . S
N1113 C1115 1.356 . S
N1113 H1118 0.984 . S
N1113 H1119 0.985 . S
C1114 C1108 1.379 1_655 S
C1114 C1111 1.363 . S
C1114 N1112 1.356 . S
C1115 C1109 1.363 . S
C1115 C1110 1.379 1_455 S
C1115 N1113 1.356 . S
N1116 C1108 1.356 . S
N1116 H1122 0.984 . S
N1116 H1123 0.984 . S
N1117 C1110 1.356 . S
N1117 H1120 0.984 . S
N1117 H1121 0.985 . S
H1118 N1113 0.984 . S
H1119 N1113 0.985 . S
H1120 N1117 0.984 . S
H1121 N1117 0.985 . S
H1122 N1116 0.984 . S
H1123 N1116 0.984 . S
H1124 N1112 0.984 . S
H1125 N1112 0.985 . S
C1126 C1127 1.363 . S
C1126 C1132 1.379 1_655 S
C1126 N1134 1.356 . S
C1127 C1126 1.363 . S
C1127 C1133 1.363 1_545 S
C1128 C1129 1.363 . S
C1128 C1133 1.379 1_455 S
C1128 N1135 1.356 . S
C1129 C1128 1.363 . S
C1129 C1132 1.363 1_565 S
N1130 C1132 1.356 . S
N1130 H1142 0.984 . S
N1130 H1143 0.985 . S
N1131 C1133 1.356 . S
N1131 H1136 0.984 . S
N1131 H1137 0.985 . S
C1132 C1126 1.379 1_455 S
C1132 C1129 1.363 1_545 S
C1132 N1130 1.356 . S
C1133 C1127 1.363 1_565 S
C1133 C1128 1.379 1_655 S
C1133 N1131 1.356 . S
N1134 C1126 1.356 . S
N1134 H1140 0.984 . S
N1134 H1141 0.984 . S
N1135 C1128 1.356 . S
N1135 H1138 0.984 . S
N1135 H1139 0.985 . S
H1136 N1131 0.984 . S
H1137 N1131 0.985 . S
H1138 N1135 0.984 . S
H1139 N1135 0.985 . S
H1140 N1134 0.984 . S
H1141 N1134 0.984 . S
H1142 N1130 0.984 . S
H1143 N1130 0.985 . S
C1144 C1145 1.363 . S
C1144 C1150 1.379 . S
C1144 N1152 1.356 . S
C1145 C1144 1.363 . S
C1145 C1151 1.363 . S
C1146 C1147 1.363 . S
C1146 C1151 1.379 . S
C1146 N1153 1.356 . S
C1147 C1146 1.363 . S
C1147 C1150 1.363 . S
N1148 C1150 1.356 . S
N1148 H1160 0.984 . S
N1148 H1161 0.985 . S
N1149 C1151 1.356 . S
N1149 H1154 0.984 . S
N1149 H1155 0.985 . S
C1150 C1144 1.379 . S
C1150 C1147 1.363 . S
C1150 N1148 1.356 . S
C1151 C1145 1.363 . S
C1151 C1146 1.379 . S
C1151 N1149 1.356 . S
N1152 C1144 1.356 . S
N1152 H1158 0.984 . S
N1152 H1159 0.984 . S
N1153 C1146 1.356 . S
N1153 H1156 0.984 . S
N1153 H1157 0.985 . S
H1154 N1149 0.984 . S
H1155 N1149 0.985 . S
H1156 N1153 0.984 . S
H1157 N1153 0.985 . S
H1158 N1152 0.984 . S
H1159 N1152 0.984 . S
H1160 N1148 0.984 . S
H1161 N1148 0.985 . S
C1162 C1163 1.363 . S
C1162 C1168 1.379 . S
C1162 N1170 1.356 . S
C1163 C1162 1.363 . S
C1163 C1169 1.363 . S
C1164 C1165 1.363 . S
C1164 C1169 1.379 . S
C1164 N1171 1.356 . S
C1165 C1164 1.363 . S
C1165 C1168 1.363 . S
N1166 C1168 1.356 . S
N1166 H1178 0.984 . S
N1166 H1179 0.985 . S
N1167 C1169 1.356 . S
N1167 H1172 0.984 . S
N1167 H1173 0.985 . S
C1168 C1162 1.379 . S
C1168 C1165 1.363 . S
C1168 N1166 1.356 . S
C1169 C1163 1.363 . S
C1169 C1164 1.379 . S
C1169 N1167 1.356 . S
N1170 C1162 1.356 . S
N1170 H1176 0.984 . S
N1170 H1177 0.984 . S
N1171 C1164 1.356 . S
N1171 H1174 0.984 . S
N1171 H1175 0.985 . S
H1172 N1167 0.984 . S
H1173 N1167 0.985 . S
H1174 N1171 0.984 . S
H1175 N1171 0.985 . S
H1176 N1170 0.984 . S
H1177 N1170 0.984 . S
H1178 N1166 0.984 . S
H1179 N1166 0.985 . S
C1180 C1181 1.363 . S
C1180 C1186 1.379 . S
C1180 N1188 1.356 . S
C1181 C1180 1.363 . S
C1181 C1187 1.363 . S
C1182 C1183 1.363 . S
C1182 C1187 1.379 . S
C1182 N1189 1.356 . S
C1183 C1182 1.363 . S
C1183 C1186 1.363 . S
N1184 C1186 1.356 . S
N1184 H1196 0.984 . S
N1184 H1197 0.985 . S
N1185 C1187 1.356 . S
N1185 H1190 0.984 . S
N1185 H1191 0.985 . S
C1186 C1180 1.379 . S
C1186 C1183 1.363 . S
C1186 N1184 1.356 . S
C1187 C1181 1.363 . S
C1187 C1182 1.379 . S
C1187 N1185 1.356 . S
N1188 C1180 1.356 . S
N1188 H1194 0.984 . S
N1188 H1195 0.984 . S
N1189 C1182 1.356 . S
N1189 H1192 0.984 . S
N1189 H1193 0.985 . S
H1190 N1185 0.984 . S
H1191 N1185 0.985 . S
H1192 N1189 0.984 . S
H1193 N1189 0.985 . S
H1194 N1188 0.984 . S
H1195 N1188 0.984 . S
H1196 N1184 0.984 . S
H1197 N1184 0.985 . S
C1198 C1199 1.363 . S
C1198 C1204 1.379 . S
C1198 N1206 1.356 . S
C1199 C1198 1.363 . S
C1199 C1205 1.363 . S
C1200 C1201 1.363 . S
C1200 C1205 1.379 . S
C1200 N1207 1.356 . S
C1201 C1200 1.363 . S
C1201 C1204 1.363 . S
N1202 C1204 1.356 . S
N1202 H1214 0.984 . S
N1202 H1215 0.985 . S
N1203 C1205 1.356 . S
N1203 H1208 0.984 . S
N1203 H1209 0.985 . S
C1204 C1198 1.379 . S
C1204 C1201 1.363 . S
C1204 N1202 1.356 . S
C1205 C1199 1.363 . S
C1205 C1200 1.379 . S
C1205 N1203 1.356 . S
N1206 C1198 1.356 . S
N1206 H1212 0.984 . S
N1206 H1213 0.984 . S
N1207 C1200 1.356 . S
N1207 H1210 0.984 . S
N1207 H1211 0.985 . S
H1208 N1203 0.984 . S
H1209 N1203 0.985 . S
H1210 N1207 0.984 . S
H1211 N1207 0.985 . S
H1212 N1206 0.984 . S
H1213 N1206 0.984 . S
H1214 N1202 0.984 . S
H1215 N1202 0.985 . S
C1216 C1217 1.363 . S
C1216 C1222 1.379 . S
C1216 N1224 1.356 . S
C1217 C1216 1.363 . S
C1217 C1223 1.363 . S
C1218 C1219 1.363 . S
C1218 C1223 1.379 . S
C1218 N1225 1.356 . S
C1219 C1218 1.363 . S
C1219 C1222 1.363 . S
N1220 C1222 1.356 . S
N1220 H1232 0.984 . S
N1220 H1233 0.985 . S
N1221 C1223 1.356 . S
N1221 H1226 0.984 . S
N1221 H1227 0.985 . S
C1222 C1216 1.379 . S
C1222 C1219 1.363 . S
C1222 N1220 1.356 . S
C1223 C1217 1.363 . S
C1223 C1218 1.379 . S
C1223 N1221 1.356 . S
N1224 C1216 1.356 . S
N1224 H1230 0.984 . S
N1224 H1231 0.984 . S
N1225 C1218 1.356 . S
N1225 H1228 0.984 . S
N1225 H1229 0.985 . S
H1226 N1221 0.984 . S
H1227 N1221 0.985 . S
H1228 N1225 0.984 . S
H1229 N1225 0.985 . S
H1230 N1224 0.984 . S
H1231 N1224 0.984 . S
H1232 N1220 0.984 . S
H1233 N1220 0.985 . S
C1234 C1235 1.363 . S
C1234 C1240 1.379 . S
C1234 N1242 1.356 . S
C1235 C1234 1.363 . S
C1235 C1241 1.363 . S
C1236 C1237 1.363 . S
C1236 C1241 1.379 . S
C1236 N1243 1.356 . S
C1237 C1236 1.363 . S
C1237 C1240 1.363 . S
N1238 C1240 1.356 . S
N1238 H1250 0.984 . S
N1238 H1251 0.985 . S
N1239 C1241 1.356 . S
N1239 H1244 0.984 . S
N1239 H1245 0.985 . S
C1240 C1234 1.379 . S
C1240 C1237 1.363 . S
C1240 N1238 1.356 . S
C1241 C1235 1.363 . S
C1241 C1236 1.379 . S
C1241 N1239 1.356 . S
N1242 C1234 1.356 . S
N1242 H1248 0.984 . S
N1242 H1249 0.984 . S
N1243 C1236 1.356 . S
N1243 H1246 0.984 . S
N1243 H1247 0.985 . S
H1244 N1239 0.984 . S
H1245 N1239 0.985 . S
H1246 N1243 0.984 . S
H1247 N1243 0.985 . S
H1248 N1242 0.984 . S
H1249 N1242 0.984 . S
H1250 N1238 0.984 . S
H1251 N1238 0.985 . S
C1252 C1253 1.363 . S
C1252 C1258 1.379 . S
C1252 N1260 1.356 . S
C1253 C1252 1.363 . S
C1253 C1259 1.363 . S
C1254 C1255 1.363 . S
C1254 C1259 1.379 . S
C1254 N1261 1.356 . S
C1255 C1254 1.363 . S
C1255 C1258 1.363 . S
N1256 C1258 1.356 . S
N1256 H1268 0.984 . S
N1256 H1269 0.985 . S
N1257 C1259 1.356 . S
N1257 H1262 0.984 . S
N1257 H1263 0.985 . S
C1258 C1252 1.379 . S
C1258 C1255 1.363 . S
C1258 N1256 1.356 . S
C1259 C1253 1.363 . S
C1259 C1254 1.379 . S
C1259 N1257 1.356 . S
N1260 C1252 1.356 . S
N1260 H1266 0.984 . S
N1260 H1267 0.984 . S
N1261 C1254 1.356 . S
N1261 H1264 0.984 . S
N1261 H1265 0.985 . S
H1262 N1257 0.984 . S
H1263 N1257 0.985 . S
H1264 N1261 0.984 . S
H1265 N1261 0.985 . S
H1266 N1260 0.984 . S
H1267 N1260 0.984 . S
H1268 N1256 0.984 . S
H1269 N1256 0.985 . S
C1270 C1271 1.363 . S
C1270 C1276 1.379 . S
C1270 N1278 1.356 . S
C1271 C1270 1.363 . S
C1271 C1277 1.363 . S
C1272 C1273 1.363 . S
C1272 C1277 1.379 . S
C1272 N1279 1.356 . S
C1273 C1272 1.363 . S
C1273 C1276 1.363 . S
N1274 C1276 1.356 . S
N1274 H1286 0.984 . S
N1274 H1287 0.985 . S
N1275 C1277 1.356 . S
N1275 H1280 0.984 . S
N1275 H1281 0.985 . S
C1276 C1270 1.379 . S
C1276 C1273 1.363 . S
C1276 N1274 1.356 . S
C1277 C1271 1.363 . S
C1277 C1272 1.379 . S
C1277 N1275 1.356 . S
N1278 C1270 1.356 . S
N1278 H1284 0.984 . S
N1278 H1285 0.984 . S
N1279 C1272 1.356 . S
N1279 H1282 0.984 . S
N1279 H1283 0.985 . S
H1280 N1275 0.984 . S
H1281 N1275 0.985 . S
H1282 N1279 0.984 . S
H1283 N1279 0.985 . S
H1284 N1278 0.984 . S
H1285 N1278 0.984 . S
H1286 N1274 0.984 . S
H1287 N1274 0.985 . S
C1288 C1289 1.363 . S
C1288 C1294 1.379 . S
C1288 N1296 1.356 . S
C1289 C1288 1.363 . S
C1289 C1295 1.363 . S
C1290 C1291 1.363 . S
C1290 C1295 1.379 . S
C1290 N1297 1.356 . S
C1291 C1290 1.363 . S
C1291 C1294 1.363 . S
N1292 C1294 1.356 . S
N1292 H1304 0.984 . S
N1292 H1305 0.985 . S
N1293 C1295 1.356 . S
N1293 H1298 0.984 . S
N1293 H1299 0.985 . S
C1294 C1288 1.379 . S
C1294 C1291 1.363 . S
C1294 N1292 1.356 . S
C1295 C1289 1.363 . S
C1295 C1290 1.379 . S
C1295 N1293 1.356 . S
N1296 C1288 1.356 . S
N1296 H1302 0.984 . S
N1296 H1303 0.984 . S
N1297 C1290 1.356 . S
N1297 H1300 0.984 . S
N1297 H1301 0.985 . S
H1298 N1293 0.984 . S
H1299 N1293 0.985 . S
H1300 N1297 0.984 . S
H1301 N1297 0.985 . S
H1302 N1296 0.984 . S
H1303 N1296 0.984 . S
H1304 N1292 0.984 . S
H1305 N1292 0.985 . S
C1306 C1307 1.363 . S
C1306 C1312 1.379 . S
C1306 N1314 1.356 . S
C1307 C1306 1.363 . S
C1307 C1313 1.363 . S
C1308 C1309 1.363 . S
C1308 C1313 1.379 . S
C1308 N1315 1.356 . S
C1309 C1308 1.363 . S
C1309 C1312 1.363 . S
N1310 C1312 1.356 . S
N1310 H1322 0.984 . S
N1310 H1323 0.985 . S
N1311 C1313 1.356 . S
N1311 H1316 0.984 . S
N1311 H1317 0.985 . S
C1312 C1306 1.379 . S
C1312 C1309 1.363 . S
C1312 N1310 1.356 . S
C1313 C1307 1.363 . S
C1313 C1308 1.379 . S
C1313 N1311 1.356 . S
N1314 C1306 1.356 . S
N1314 H1320 0.984 . S
N1314 H1321 0.984 . S
N1315 C1308 1.356 . S
N1315 H1318 0.984 . S
N1315 H1319 0.985 . S
H1316 N1311 0.984 . S
H1317 N1311 0.985 . S
H1318 N1315 0.984 . S
H1319 N1315 0.985 . S
H1320 N1314 0.984 . S
H1321 N1314 0.984 . S
H1322 N1310 0.984 . S
H1323 N1310 0.985 . S
C1324 C1325 1.363 . S
C1324 C1330 1.379 . S
C1324 N1332 1.356 . S
C1325 C1324 1.363 . S
C1325 C1331 1.363 . S
C1326 C1327 1.363 . S
C1326 C1331 1.379 . S
C1326 N1333 1.356 . S
C1327 C1326 1.363 . S
C1327 C1330 1.363 . S
N1328 C1330 1.356 . S
N1328 H1340 0.984 . S
N1328 H1341 0.985 . S
N1329 C1331 1.356 . S
N1329 H1334 0.984 . S
N1329 H1335 0.985 . S
C1330 C1324 1.379 . S
C1330 C1327 1.363 . S
C1330 N1328 1.356 . S
C1331 C1325 1.363 . S
C1331 C1326 1.379 . S
C1331 N1329 1.356 . S
N1332 C1324 1.356 . S
N1332 H1338 0.984 . S
N1332 H1339 0.984 . S
N1333 C1326 1.356 . S
N1333 H1336 0.984 . S
N1333 H1337 0.985 . S
H1334 N1329 0.984 . S
H1335 N1329 0.985 . S
H1336 N1333 0.984 . S
H1337 N1333 0.985 . S
H1338 N1332 0.984 . S
H1339 N1332 0.984 . S
H1340 N1328 0.984 . S
H1341 N1328 0.985 . S
C1342 C1343 1.363 . S
C1342 C1348 1.379 . S
C1342 N1350 1.356 . S
C1343 C1342 1.363 . S
C1343 C1349 1.363 . S
C1344 C1345 1.363 . S
C1344 C1349 1.379 . S
C1344 N1351 1.356 . S
C1345 C1344 1.363 . S
C1345 C1348 1.363 . S
N1346 C1348 1.356 . S
N1346 H1358 0.984 . S
N1346 H1359 0.985 . S
N1347 C1349 1.356 . S
N1347 H1352 0.984 . S
N1347 H1353 0.985 . S
C1348 C1342 1.379 . S
C1348 C1345 1.363 . S
C1348 N1346 1.356 . S
C1349 C1343 1.363 . S
C1349 C1344 1.379 . S
C1349 N1347 1.356 . S
N1350 C1342 1.356 . S
N1350 H1356 0.984 . S
N1350 H1357 0.984 . S
N1351 C1344 1.356 . S
N1351 H1354 0.984 . S
N1351 H1355 0.985 . S
H1352 N1347 0.984 . S
H1353 N1347 0.985 . S
H1354 N1351 0.984 . S
H1355 N1351 0.985 . S
H1356 N1350 0.984 . S
H1357 N1350 0.984 . S
H1358 N1346 0.984 . S
H1359 N1346 0.985 . S
C1360 C1361 1.363 . S
C1360 C1366 1.379 . S
C1360 N1368 1.356 . S
C1361 C1360 1.363 . S
C1361 C1367 1.363 . S
C1362 C1363 1.363 . S
C1362 C1367 1.379 . S
C1362 N1369 1.356 . S
C1363 C1362 1.363 . S
C1363 C1366 1.363 . S
N1364 C1366 1.356 . S
N1364 H1376 0.984 . S
N1364 H1377 0.985 . S
N1365 C1367 1.356 . S
N1365 H1370 0.984 1_545 S
N1365 H1371 0.985 . S
C1366 C1360 1.379 . S
C1366 C1363 1.363 . S
C1366 N1364 1.356 . S
C1367 C1361 1.363 . S
C1367 C1362 1.379 . S
C1367 N1365 1.356 . S
N1368 C1360 1.356 . S
N1368 H1374 0.984 . S
N1368 H1375 0.984 1_545 S
N1369 C1362 1.356 . S
N1369 H1372 0.984 . S
N1369 H1373 0.985 . S
H1370 N1365 0.984 1_565 S
H1371 N1365 0.985 . S
H1372 N1369 0.984 . S
H1373 N1369 0.985 . S
H1374 N1368 0.984 . S
H1375 N1368 0.984 1_565 S
H1376 N1364 0.984 . S
H1377 N1364 0.985 . S
C1378 C1379 1.363 . S
C1378 C1384 1.379 . S
C1378 N1386 1.356 . S
C1379 C1378 1.363 . S
C1379 C1385 1.363 . S
C1380 C1381 1.363 . S
C1380 C1385 1.379 . S
C1380 N1387 1.356 1_565 S
C1381 C1380 1.363 . S
C1381 C1384 1.363 . S
N1382 C1384 1.356 . S
N1382 H1394 0.984 . S
N1382 H1395 0.985 . S
N1383 C1385 1.356 . S
N1383 H1388 0.984 . S
N1383 H1389 0.985 . S
C1384 C1378 1.379 . S
C1384 C1381 1.363 . S
C1384 N1382 1.356 . S
C1385 C1379 1.363 . S
C1385 C1380 1.379 . S
C1385 N1383 1.356 . S
N1386 C1378 1.356 . S
N1386 H1392 0.984 . S
N1386 H1393 0.984 . S
N1387 C1380 1.356 1_545 S
N1387 H1390 0.984 . S
N1387 H1391 0.985 . S
H1388 N1383 0.984 . S
H1389 N1383 0.985 . S
H1390 N1387 0.984 . S
H1391 N1387 0.985 . S
H1392 N1386 0.984 . S
H1393 N1386 0.984 . S
H1394 N1382 0.984 . S
H1395 N1382 0.985 . S
C1396 C1397 1.363 . S
C1396 C1402 1.379 . S
C1396 N1404 1.356 . S
C1397 C1396 1.363 . S
C1397 C1403 1.363 . S
C1398 C1399 1.363 . S
C1398 C1403 1.379 . S
C1398 N1405 1.356 . S
C1399 C1398 1.363 . S
C1399 C1402 1.363 . S
N1400 C1402 1.356 . S
N1400 H1412 0.984 . S
N1400 H1413 0.985 . S
N1401 C1403 1.356 . S
N1401 H1406 0.984 1_565 S
N1401 H1407 0.985 . S
C1402 C1396 1.379 . S
C1402 C1399 1.363 . S
C1402 N1400 1.356 . S
C1403 C1397 1.363 . S
C1403 C1398 1.379 . S
C1403 N1401 1.356 . S
N1404 C1396 1.356 . S
N1404 H1410 0.984 . S
N1404 H1411 0.984 1_565 S
N1405 C1398 1.356 . S
N1405 H1408 0.984 . S
N1405 H1409 0.985 . S
H1406 N1401 0.984 1_545 S
H1407 N1401 0.985 . S
H1408 N1405 0.984 . S
H1409 N1405 0.985 . S
H1410 N1404 0.984 . S
H1411 N1404 0.984 1_545 S
H1412 N1400 0.984 . S
H1413 N1400 0.985 . S
C1414 C1415 1.363 . S
C1414 C1420 1.379 . S
C1414 N1422 1.356 . S
C1415 C1414 1.363 . S
C1415 C1421 1.363 . S
C1416 C1417 1.363 . S
C1416 C1421 1.379 . S
C1416 N1423 1.356 . S
C1417 C1416 1.363 . S
C1417 C1420 1.363 . S
N1418 C1420 1.356 . S
N1418 H1430 0.984 . S
N1418 H1431 0.985 . S
N1419 C1421 1.356 . S
N1419 H1424 0.984 1_545 S
N1419 H1425 0.985 . S
C1420 C1414 1.379 . S
C1420 C1417 1.363 . S
C1420 N1418 1.356 . S
C1421 C1415 1.363 . S
C1421 C1416 1.379 . S
C1421 N1419 1.356 . S
N1422 C1414 1.356 . S
N1422 H1428 0.984 . S
N1422 H1429 0.984 1_545 S
N1423 C1416 1.356 . S
N1423 H1426 0.984 . S
N1423 H1427 0.985 . S
H1424 N1419 0.984 1_565 S
H1425 N1419 0.985 . S
H1426 N1423 0.984 . S
H1427 N1423 0.985 . S
H1428 N1422 0.984 . S
H1429 N1422 0.984 1_565 S
H1430 N1418 0.984 . S
H1431 N1418 0.985 . S
C1432 C1433 1.363 . S
C1432 C1438 1.379 . S
C1432 N1440 1.356 . S
C1433 C1432 1.363 . S
C1433 C1439 1.363 . S
C1434 C1435 1.363 . S
C1434 C1439 1.379 . S
C1434 N1441 1.356 . S
C1435 C1434 1.363 . S
C1435 C1438 1.363 . S
N1436 C1438 1.356 . S
N1436 H1448 0.984 . S
N1436 H1449 0.985 1_565 S
N1437 C1439 1.356 . S
N1437 H1442 0.984 . S
N1437 H1443 0.985 . S
C1438 C1432 1.379 . S
C1438 C1435 1.363 . S
C1438 N1436 1.356 . S
C1439 C1433 1.363 . S
C1439 C1434 1.379 . S
C1439 N1437 1.356 . S
N1440 C1432 1.356 . S
N1440 H1446 0.984 . S
N1440 H1447 0.984 . S
N1441 C1434 1.356 . S
N1441 H1444 0.984 1_565 S
N1441 H1445 0.985 . S
H1442 N1437 0.984 . S
H1443 N1437 0.985 . S
H1444 N1441 0.984 1_545 S
H1445 N1441 0.985 . S
H1446 N1440 0.984 . S
H1447 N1440 0.984 . S
H1448 N1436 0.984 . S
H1449 N1436 0.985 1_545 S
C1450 C1451 1.363 . S
C1450 C1456 1.379 . S
C1450 N1458 1.356 . S
C1451 C1450 1.363 . S
C1451 C1457 1.363 . S
C1452 C1453 1.363 . S
C1452 C1457 1.379 . S
C1452 N1459 1.356 . S
C1453 C1452 1.363 . S
C1453 C1456 1.363 . S
N1454 C1456 1.356 . S
N1454 H1466 0.984 . S
N1454 H1467 0.985 1_545 S
N1455 C1457 1.356 . S
N1455 H1460 0.984 . S
N1455 H1461 0.985 . S
C1456 C1450 1.379 . S
C1456 C1453 1.363 . S
C1456 N1454 1.356 . S
C1457 C1451 1.363 . S
C1457 C1452 1.379 . S
C1457 N1455 1.356 . S
N1458 C1450 1.356 . S
N1458 H1464 0.984 . S
N1458 H1465 0.984 . S
N1459 C1452 1.356 . S
N1459 H1462 0.984 1_545 S
N1459 H1463 0.985 . S
H1460 N1455 0.984 . S
H1461 N1455 0.985 . S
H1462 N1459 0.984 1_565 S
H1463 N1459 0.985 . S
H1464 N1458 0.984 . S
H1465 N1458 0.984 . S
H1466 N1454 0.984 . S
H1467 N1454 0.985 1_565 S
C1468 C1469 1.363 . S
C1468 C1474 1.379 . S
C1468 N1476 1.356 1_545 S
C1469 C1468 1.363 . S
C1469 C1475 1.363 . S
C1470 C1471 1.363 . S
C1470 C1475 1.379 . S
C1470 N1477 1.356 . S
C1471 C1470 1.363 . S
C1471 C1474 1.363 . S
N1472 C1474 1.356 . S
N1472 H1484 0.984 . S
N1472 H1485 0.985 . S
N1473 C1475 1.356 . S
N1473 H1478 0.984 . S
N1473 H1479 0.985 . S
C1474 C1468 1.379 . S
C1474 C1471 1.363 . S
C1474 N1472 1.356 . S
C1475 C1469 1.363 . S
C1475 C1470 1.379 . S
C1475 N1473 1.356 . S
N1476 C1468 1.356 1_565 S
N1476 H1482 0.984 . S
N1476 H1483 0.984 . S
N1477 C1470 1.356 . S
N1477 H1480 0.984 . S
N1477 H1481 0.985 . S
H1478 N1473 0.984 . S
H1479 N1473 0.985 . S
H1480 N1477 0.984 . S
H1481 N1477 0.985 . S
H1482 N1476 0.984 . S
H1483 N1476 0.984 . S
H1484 N1472 0.984 . S
H1485 N1472 0.985 . S
C1486 C1487 1.363 . S
C1486 C1492 1.379 . S
C1486 N1494 1.356 . S
C1487 C1486 1.363 . S
C1487 C1493 1.363 . S
C1488 C1489 1.363 . S
C1488 C1493 1.379 . S
C1488 N1495 1.356 1_565 S
C1489 C1488 1.363 . S
C1489 C1492 1.363 . S
N1490 C1492 1.356 . S
N1490 H1502 0.984 . S
N1490 H1503 0.985 . S
N1491 C1493 1.356 . S
N1491 H1496 0.984 . S
N1491 H1497 0.985 . S
C1492 C1486 1.379 . S
C1492 C1489 1.363 . S
C1492 N1490 1.356 . S
C1493 C1487 1.363 . S
C1493 C1488 1.379 . S
C1493 N1491 1.356 . S
N1494 C1486 1.356 . S
N1494 H1500 0.984 . S
N1494 H1501 0.984 . S
N1495 C1488 1.356 1_545 S
N1495 H1498 0.984 . S
N1495 H1499 0.985 . S
H1496 N1491 0.984 . S
H1497 N1491 0.985 . S
H1498 N1495 0.984 . S
H1499 N1495 0.985 . S
H1500 N1494 0.984 . S
H1501 N1494 0.984 . S
H1502 N1490 0.984 . S
H1503 N1490 0.985 . S
C641 C19 1.621 . S
C643 C379 1.621 . S
C659 C59 1.621 . S
C661 C339 1.621 . S
C677 C459 1.621 . S
C679 C99 1.621 . S
C695 C139 1.621 . S
C697 C419 1.621 . S
C713 C530 1.621 . S
C715 C170 1.621 . S
C731 C490 1.621 . S
C733 C210 1.621 . S
C749 C610 1.621 . S
C751 C250 1.621 . S
C767 C290 1.621 . S
C769 C570 1.621 . S
C785 C98 1.789 . S
C787 C18 1.789 . S
C803 C138 1.789 . S
C805 C58 1.789 . S
C821 C249 1.789 . S
C823 C169 1.789 . S
C839 C209 1.789 . S
C841 C289 1.789 . S
C857 C418 1.789 . S
C859 C338 1.789 . S
C875 C458 1.789 . S
C877 C378 1.789 . S
C893 C489 1.789 . S
C895 C569 1.789 . S
C911 C529 1.789 . S
C913 C609 1.789 . S
C929 C218 1.515 . S
C931 C9 1.515 . S
C947 C178 1.515 . S
C949 C49 1.515 . S
C965 C89 1.515 . S
C967 C298 1.515 . S
C983 C258 1.515 . S
C985 C129 1.515 . S
C1001 C329 1.515 . S
C1003 C538 1.515 . S
C1019 C498 1.515 . S
C1021 C369 1.515 . S
C1037 C409 1.515 . S
C1039 C618 1.515 . S
C1055 C578 1.515 . S
C1057 C449 1.515 . S
C1073 C50 1.622 . S
C1075 C10 1.622 . S
C1091 C130 1.622 . S
C1093 C90 1.622 . S
C1109 C219 1.622 . S
C1111 C179 1.622 . S
C1127 C259 1.622 . S
C1129 C299 1.622 . S
C1145 C370 1.622 . S
C1147 C330 1.622 . S
C1163 C450 1.622 . S
C1165 C410 1.622 . S
C1181 C499 1.622 . S
C1183 C539 1.622 . S
C1199 C579 1.622 . S
C1201 C619 1.622 . S
C1217 C6 1.503 . S
C1219 C15 1.503 . S
C1235 C46 1.503 . S
C1237 C55 1.503 . S
C1253 C86 1.503 . S
C1255 C95 1.503 . S
C1271 C135 1.503 . S
C1273 C126 1.503 . S
C1289 C175 1.503 . S
C1291 C166 1.503 . S
C1307 C206 1.503 . S
C1309 C215 1.503 . S
C1325 C255 1.503 . S
C1327 C246 1.503 . S
C1343 C295 1.503 . S
C1345 C286 1.503 . S
C1361 C335 1.503 1_545 S
C1363 C326 1.503 . S
C1379 C366 1.503 . S
C1381 C375 1.503 1_565 S
C1397 C415 1.503 1_565 S
C1399 C406 1.503 . S
C1415 C455 1.503 1_545 S
C1417 C446 1.503 . S
C1433 C495 1.503 . S
C1435 C486 1.503 1_565 S
C1451 C535 1.503 . S
C1453 C526 1.503 1_545 S
C1469 C566 1.503 1_545 S
C1471 C575 1.503 . S
C1487 C615 1.503 . S
C1489 C606 1.503 1_565 S
