# Generated by pormake.
# Topology svh, (7)-cn, num edge types: 1
# Building blocks:
#     Node 0, Type 0, BuildingBlock: HICVOG_clean_sbu_0, # of connection points: 7
#     Node 1, Type 0, BuildingBlock: HICVOG_clean_sbu_0, # of connection points: 7
#     Node 2, Type 0, BuildingBlock: HICVOG_clean_sbu_0, # of connection points: 7
#     Node 3, Type 0, BuildingBlock: HICVOG_clean_sbu_0, # of connection points: 7
#     Node 4, Type 0, BuildingBlock: HICVOG_clean_sbu_0, # of connection points: 7
#     Node 5, Type 0, BuildingBlock: HICVOG_clean_sbu_0, # of connection points: 7
#     Node 6, Type 0, BuildingBlock: HICVOG_clean_sbu_0, # of connection points: 7
#     Node 7, Type 0, BuildingBlock: HICVOG_clean_sbu_0, # of connection points: 7
#     Edge 8, Type (0, 0), BuildingBlock: XIVTED_clean_linker_0, # of connection points: 2
#     Edge 9, Type (0, 0), BuildingBlock: XIVTED_clean_linker_0, # of connection points: 2
#     Edge 10, Type (0, 0), BuildingBlock: XIVTED_clean_linker_0, # of connection points: 2
#     Edge 11, Type (0, 0), BuildingBlock: XIVTED_clean_linker_0, # of connection points: 2
#     Edge 12, Type (0, 0), BuildingBlock: XIVTED_clean_linker_0, # of connection points: 2
#     Edge 13, Type (0, 0), BuildingBlock: XIVTED_clean_linker_0, # of connection points: 2
#     Edge 14, Type (0, 0), BuildingBlock: XIVTED_clean_linker_0, # of connection points: 2
#     Edge 15, Type (0, 0), BuildingBlock: XIVTED_clean_linker_0, # of connection points: 2
#     Edge 16, Type (0, 0), BuildingBlock: XIVTED_clean_linker_0, # of connection points: 2
#     Edge 17, Type (0, 0), BuildingBlock: XIVTED_clean_linker_0, # of connection points: 2
#     Edge 18, Type (0, 0), BuildingBlock: XIVTED_clean_linker_0, # of connection points: 2
#     Edge 19, Type (0, 0), BuildingBlock: XIVTED_clean_linker_0, # of connection points: 2
#     Edge 20, Type (0, 0), BuildingBlock: XIVTED_clean_linker_0, # of connection points: 2
#     Edge 21, Type (0, 0), BuildingBlock: XIVTED_clean_linker_0, # of connection points: 2
#     Edge 22, Type (0, 0), BuildingBlock: XIVTED_clean_linker_0, # of connection points: 2
#     Edge 23, Type (0, 0), BuildingBlock: XIVTED_clean_linker_0, # of connection points: 2
#     Edge 24, Type (0, 0), BuildingBlock: XIVTED_clean_linker_0, # of connection points: 2
#     Edge 25, Type (0, 0), BuildingBlock: XIVTED_clean_linker_0, # of connection points: 2
#     Edge 26, Type (0, 0), BuildingBlock: XIVTED_clean_linker_0, # of connection points: 2
#     Edge 27, Type (0, 0), BuildingBlock: XIVTED_clean_linker_0, # of connection points: 2
#     Edge 28, Type (0, 0), BuildingBlock: XIVTED_clean_linker_0, # of connection points: 2
#     Edge 29, Type (0, 0), BuildingBlock: XIVTED_clean_linker_0, # of connection points: 2
#     Edge 30, Type (0, 0), BuildingBlock: XIVTED_clean_linker_0, # of connection points: 2
#     Edge 31, Type (0, 0), BuildingBlock: XIVTED_clean_linker_0, # of connection points: 2
#     Edge 32, Type (0, 0), BuildingBlock: XIVTED_clean_linker_0, # of connection points: 2
#     Edge 33, Type (0, 0), BuildingBlock: XIVTED_clean_linker_0, # of connection points: 2
#     Edge 34, Type (0, 0), BuildingBlock: XIVTED_clean_linker_0, # of connection points: 2
#     Edge 35, Type (0, 0), BuildingBlock: XIVTED_clean_linker_0, # of connection points: 2
# Relax obj value: 0.277
# Max RMSD: 0.252
# Mean RMSD: 0.252
data_MOF--net-svh--node1-HICVOG_clean_sbu_0--edge1-XIVTED_clean_linker_0
_symmetry_space_group_name_H-M    P1
_symmetry_Int_Tables_number       1
_symmetry_cell_setting            triclinic
loop_
_symmetry_equiv_pos_as_xyz
'x, y, z'
_cell_length_a     18.727617
_cell_length_b     18.678639
_cell_length_c     102.69861
_cell_angle_alpha  89.887014
_cell_angle_beta   89.807096
_cell_angle_gamma 90.29596
loop_
_atom_site_label
_atom_site_type_symbol
_atom_site_fract_x
_atom_site_fract_y
_atom_site_fract_z
_atom_type_partial_charge
Zn0 Zn 0.98734 0.76914 0.08852 0.0
C1 C 0.02175 0.60724 0.063 0.0
N2 N 0.05803 0.65934 0.05676 0.0
C3 C 0.04418 0.71783 0.06384 0.0
N4 N 1.00295 0.70192 0.07424 0.0
N5 N 0.98691 0.63268 0.07361 0.0
C6 C 0.86738 0.43948 0.08812 0.0
O7 O 0.82316 0.47014 0.09632 0.0
O8 O 0.94127 0.86539 0.0835 0.0
Zn9 Zn 0.9055 0.58949 0.08273 0.0
N10 N 0.08032 0.79722 0.09494 0.0
C11 C 0.14679 0.87621 0.10848 0.0
C12 C 0.08248 0.8555 0.10284 0.0
C13 C 0.14011 0.75829 0.0925 0.0
N14 N 0.20651 0.83777 0.106 0.0
C15 C 0.20543 0.77924 0.09811 0.0
O16 O 0.9023 0.61261 0.10219 0.0
C17 C 0.91716 0.6666 0.10928 0.0
O18 O 0.94463 0.72337 0.10452 0.0
H19 H 0.03434 0.88499 0.10491 0.0
H20 H 0.13625 0.71079 0.08655 0.0
C21 C 0.75364 0.61937 0.07934 0.0
C22 C 0.69458 0.64611 0.07243 0.0
C23 C 0.77257 0.68906 0.0559 0.0
C24 C 0.83072 0.6631 0.06277 0.0
N25 N 0.82048 0.62759 0.07424 0.0
N26 N 0.7061 0.67985 0.06085 0.0
H27 H 0.74665 0.59173 0.08852 0.0
C28 C 0.90288 0.90104 0.09142 0.0
O29 O 0.88411 0.87111 0.10251 0.0
O30 O 0.90815 0.47915 0.0812 0.0
H31 H 0.88355 0.67014 0.05876 0.0
H32 H 0.14925 0.92231 0.11482 0.0
H33 H 0.78013 0.71641 0.0467 0.0
Zn34 Zn 0.32669 0.84064 0.33293 0.0
C35 C 0.45636 0.70086 0.31573 0.0
N36 N 0.4003 0.68702 0.30802 0.0
C37 C 0.34743 0.72526 0.31341 0.0
N38 N 0.37007 0.76088 0.32409 0.0
N39 N 0.43826 0.7445 0.32566 0.0
C40 C 0.64631 0.7931 0.34569 0.0
O41 O 0.61994 0.80414 0.35737 0.0
O42 O 0.21752 0.83847 0.33121 0.0
Zn43 Zn 0.49718 0.76487 0.341 0.0
N44 N 0.36897 0.92694 0.3252 0.0
C45 C 0.44019 0.97494 0.30798 0.0
C46 C 0.40774 0.91701 0.31411 0.0
C47 C 0.36254 0.99342 0.33055 0.0
N48 N 0.43344 0.04092 0.31322 0.0
C49 C 0.39578 0.05253 0.32438 0.0
O50 O 0.46504 0.84908 0.35225 0.0
C51 C 0.40547 0.84904 0.35828 0.0
O52 O 0.34742 0.83745 0.35224 0.0
H53 H 0.41321 0.86454 0.30988 0.0
H54 H 0.33151 0.99986 0.33937 0.0
C55 C 0.47292 0.61622 0.34734 0.0
C56 C 0.46653 0.55635 0.35566 0.0
C57 C 0.49244 0.63163 0.37369 0.0
C58 C 0.49921 0.69028 0.36537 0.0
N59 N 0.48941 0.68158 0.35237 0.0
N60 N 0.47639 0.56639 0.36866 0.0
H61 H 0.46378 0.61176 0.33703 0.0
C62 C 0.18299 0.79685 0.33881 0.0
O63 O 0.21891 0.75697 0.34703 0.0
O64 O 0.60356 0.77709 0.33651 0.0
H65 H 0.51179 0.74243 0.36929 0.0
H66 H 0.47068 0.96761 0.29912 0.0
H67 H 0.49986 0.63787 0.38407 0.0
Zn68 Zn 0.59632 0.44039 0.5823 0.0
C69 C 0.45977 0.31029 0.56437 0.0
N70 N 0.44659 0.36673 0.55664 0.0
C71 C 0.4823 0.42048 0.56241 0.0
N72 N 0.51613 0.39806 0.57327 0.0
N73 N 0.49988 0.32942 0.57469 0.0
C74 C 0.57884 0.12604 0.58634 0.0
O75 O 0.6402 0.15735 0.58888 0.0
O76 O 0.60018 0.54942 0.58002 0.0
Zn77 Zn 0.51678 0.27093 0.59019 0.0
N78 N 0.6823 0.39604 0.57499 0.0
C79 C 0.72972 0.32209 0.5582 0.0
C80 C 0.67213 0.35514 0.56418 0.0
C81 C 0.74893 0.40449 0.58015 0.0
N82 N 0.79582 0.33106 0.56322 0.0
C83 C 0.8078 0.37125 0.57405 0.0
O84 O 0.60128 0.30211 0.6014 0.0
C85 C 0.60092 0.36121 0.60759 0.0
O86 O 0.59006 0.42007 0.60166 0.0
H87 H 0.61981 0.34873 0.56001 0.0
H88 H 0.75586 0.43751 0.5887 0.0
C89 C 0.36975 0.30322 0.59666 0.0
C90 C 0.31025 0.30823 0.60508 0.0
C91 C 0.38374 0.27076 0.62264 0.0
C92 C 0.4417 0.26448 0.6142 0.0
N93 N 0.43378 0.28114 0.60141 0.0
N94 N 0.3197 0.29209 0.6179 0.0
H95 H 0.36597 0.31692 0.58648 0.0
C96 C 0.54518 0.58816 0.58177 0.0
O97 O 0.48427 0.5569 0.58476 0.0
O98 O 0.5223 0.16367 0.58613 0.0
H99 H 0.49273 0.24638 0.6178 0.0
H100 H 0.72209 0.28977 0.54958 0.0
H101 H 0.38935 0.25813 0.63287 0.0
Zn102 Zn 0.01747 0.24079 0.83953 0.0
C103 C 0.16408 0.28144 0.81124 0.0
N104 N 0.10943 0.31683 0.80582 0.0
C105 C 0.05426 0.30181 0.81376 0.0
N106 N 0.0748 0.2607 0.82389 0.0
N107 N 0.14338 0.24637 0.82217 0.0
C108 C 0.331 0.21321 0.83653 0.0
O109 O 0.29412 0.25366 0.84452 0.0
O110 O 0.91067 0.22916 0.83542 0.0
Zn111 Zn 0.18818 0.16696 0.83093 0.0
N112 N 0.02683 0.32436 0.85074 0.0
C113 C 0.02572 0.37429 0.87204 0.0
C114 C 0.01771 0.31577 0.86379 0.0
C115 C 0.04391 0.38951 0.84561 0.0
N116 N 0.04228 0.43933 0.86692 0.0
C117 C 0.05154 0.44933 0.85387 0.0
O118 O 0.16795 0.16991 0.85026 0.0
C119 C 0.11061 0.15744 0.85654 0.0
O120 O 0.0505 0.15666 0.85077 0.0
H121 H 1.00474 0.26377 0.86778 0.0
H122 H 0.0525 0.39377 0.83526 0.0
C123 C 0.1538 0.01347 0.82868 0.0
C124 C 0.121 0.95414 0.82256 0.0
C125 C 0.07549 0.03163 0.80625 0.0
C126 C 0.10755 0.08973 0.81231 0.0
N127 N 0.14665 0.08001 0.82333 0.0
N128 N 0.08298 0.96563 0.81148 0.0
H129 H 0.18502 1.00713 0.83744 0.0
C130 C 0.86698 0.21638 0.84468 0.0
O131 O 0.89218 0.20814 0.8565 0.0
O132 O 0.29735 0.1704 0.82908 0.0
H133 H 0.10153 0.14217 0.80808 0.0
H134 H 0.01885 0.36813 0.88244 0.0
H135 H 0.04471 0.03885 0.79745 0.0
Zn136 Zn 0.01544 0.26911 0.97406 0.0
C137 C 0.97653 0.10887 1.00006 0.0
N138 N 0.94021 0.16117 1.00607 0.0
C139 C 0.95499 0.21935 0.99886 0.0
N140 N 0.99676 0.20296 0.98857 0.0
N141 N 0.01204 0.13385 0.98946 0.0
C142 C 0.13315 0.94278 0.9755 0.0
O143 O 0.17768 0.97522 0.9675 0.0
O144 O 0.05479 0.3677 0.97944 0.0
Zn145 Zn 0.09328 0.09093 0.9807 0.0
N146 N 0.92383 0.29159 0.9664 0.0
C147 C 0.86158 0.36087 0.95069 0.0
C148 C 0.9245 0.3434 0.9571 0.0
C149 C 0.86245 0.25606 0.96954 0.0
N150 N 0.80027 0.32597 0.95387 0.0
C151 C 0.7984 0.27397 0.96319 0.0
O152 O 0.09595 0.1126 0.96136 0.0
C153 C 0.09029 0.16769 0.95411 0.0
O154 O 0.06814 0.22739 0.95849 0.0
H155 H 0.97387 0.37032 0.95457 0.0
H156 H 0.864 0.21354 0.97668 0.0
C157 C 0.24536 0.12453 0.98393 0.0
C158 C 0.30409 0.15346 0.99072 0.0
C159 C 0.22546 0.19558 1.00713 0.0
C160 C 0.16772 0.16731 1.00039 0.0
N161 N 0.1784 0.13126 0.98903 0.0
N162 N 0.29202 0.18785 1.00218 0.0
H163 H 0.25273 0.09638 0.97483 0.0
C164 C 0.09518 0.40477 0.97201 0.0
O165 O 0.11914 0.37563 0.96122 0.0
O166 O 0.09109 0.98083 0.98234 0.0
H167 H 0.11484 0.17316 1.00441 0.0
H168 H 0.86139 0.40183 0.94322 0.0
H169 H 0.21752 0.22349 1.01623 0.0
Zn170 Zn 0.8286 0.65472 0.23241 0.0
C171 C 0.95611 0.7939 0.25043 0.0
N172 N 0.89968 0.80562 0.25821 0.0
C173 C 0.84688 0.76831 0.25251 0.0
N174 N 0.86982 0.73536 0.24155 0.0
N175 N 0.93801 0.75292 0.24013 0.0
C176 C 0.14339 0.67205 0.2284 0.0
O177 O 0.11393 0.61173 0.22456 0.0
O178 O 0.71954 0.6497 0.23434 0.0
Zn179 Zn 0.99855 0.73536 0.22488 0.0
N180 N 0.87242 0.56963 0.23991 0.0
C181 C 0.94615 0.52061 0.25651 0.0
C182 C 0.9143 0.57913 0.25059 0.0
C183 C 0.86204 0.50319 0.23478 0.0
N184 N 0.93532 0.45452 0.2515 0.0
C185 C 0.89429 0.44362 0.24076 0.0
O186 O 0.96837 0.6538 0.21287 0.0
C187 C 0.90872 0.64868 0.20697 0.0
O188 O 0.85 0.6575 0.21304 0.0
H189 H 0.92218 0.63156 0.25471 0.0
H190 H 0.8283 0.49706 0.22632 0.0
C191 C 0.96398 0.88141 0.21843 0.0
C192 C 0.96468 0.94296 0.21048 0.0
C193 C 0.02119 0.87571 0.19377 0.0
C194 C 0.02243 0.81585 0.20187 0.0
N195 N 0.99349 0.81972 0.21399 0.0
N196 N 0.99293 0.93772 0.19828 0.0
H197 H 0.94058 0.88206 0.22803 0.0
C198 C 0.67964 0.70435 0.23311 0.0
O199 O 0.70937 0.76696 0.23077 0.0
O200 O 0.10468 0.72763 0.22945 0.0
H201 H 0.04677 0.76677 0.1986 0.0
H202 H 0.97909 0.52753 0.26505 0.0
H203 H 0.04363 0.87335 0.18407 0.0
Zn204 Zn 0.43328 0.94238 0.48139 0.0
C205 C 0.56748 0.80948 0.49913 0.0
N206 N 0.58051 0.86503 0.50706 0.0
C207 C 0.54509 0.91932 0.50149 0.0
N208 N 0.51193 0.89807 0.49045 0.0
N209 N 0.52782 0.82964 0.48881 0.0
C210 C 0.49581 0.62168 0.46745 0.0
O211 O 0.49113 0.64738 0.45557 0.0
O212 O 0.43802 0.05174 0.48282 0.0
Zn213 Zn 0.51157 0.77291 0.47303 0.0
N214 N 0.34544 0.90279 0.4891 0.0
C215 C 0.2941 0.83541 0.50654 0.0
C216 C 0.35348 0.86413 0.50026 0.0
C217 C 0.27949 0.91177 0.48373 0.0
N218 N 0.22859 0.84523 0.50134 0.0
C219 C 0.21905 0.88222 0.49005 0.0
O220 O 0.42594 0.80288 0.46196 0.0
C221 C 0.42387 0.86289 0.45605 0.0
O222 O 0.43565 0.92099 0.46212 0.0
H223 H 0.40555 0.8563 0.50445 0.0
H224 H 0.27426 0.94211 0.4748 0.0
C225 C 0.66019 0.80334 0.46666 0.0
C226 C 0.71807 0.81619 0.45809 0.0
C227 C 0.64068 0.79491 0.44017 0.0
C228 C 0.58405 0.7826 0.44869 0.0
N229 N 0.59451 0.78735 0.46175 0.0
N230 N 0.7059 0.81133 0.44505 0.0
H231 H 0.66672 0.80503 0.47709 0.0
C232 C 0.48264 0.08438 0.47552 0.0
O233 O 0.52366 0.04641 0.46779 0.0
O234 O 0.50387 0.66522 0.47686 0.0
H235 H 0.53204 0.76927 0.44488 0.0
H236 H 0.29997 0.8054 0.51549 0.0
H237 H 0.63295 0.79145 0.42976 0.0
Zn238 Zn 0.51749 0.26014 0.72279 0.0
C239 C 0.66495 0.22328 0.75081 0.0
N240 N 0.61085 0.1867 0.75635 0.0
C241 C 0.55552 0.19978 0.74844 0.0
N242 N 0.57554 0.24082 0.73822 0.0
N243 N 0.64385 0.25714 0.73983 0.0
C244 C 0.83532 0.2875 0.73136 0.0
O245 O 0.8055 0.22521 0.72886 0.0
O246 O 0.41062 0.26543 0.72703 0.0
Zn247 Zn 0.68655 0.33744 0.73072 0.0
N248 N 0.52688 0.17792 0.71143 0.0
C249 C 0.51642 0.12775 0.69026 0.0
C250 C 0.51075 0.18606 0.69863 0.0
C251 C 0.54791 0.11353 0.71624 0.0
N252 N 0.53655 0.06323 0.69508 0.0
C253 C 0.55212 0.05374 0.70792 0.0
O254 O 0.66657 0.33196 0.71139 0.0
C255 C 0.60839 0.34451 0.70546 0.0
O256 O 0.54919 0.34531 0.71162 0.0
H257 H 0.49351 0.23746 0.69498 0.0
H258 H 0.56138 0.10965 0.72641 0.0
C259 C 0.64959 0.48961 0.7326 0.0
C260 C 0.61598 0.54864 0.73857 0.0
C261 C 0.56843 0.47103 0.75479 0.0
C262 C 0.60175 0.41323 0.74893 0.0
N263 N 0.64201 0.42317 0.73799 0.0
N264 N 0.57643 0.537 0.74952 0.0
H265 H 0.68216 0.49622 0.72396 0.0
C266 C 0.37186 0.32121 0.7265 0.0
O267 O 0.40161 0.38284 0.72343 0.0
O268 O 0.79551 0.3421 0.73274 0.0
H269 H 0.59599 0.36095 0.75326 0.0
H270 H 0.50418 0.13348 0.68002 0.0
H271 H 0.5366 0.46365 0.76351 0.0
H272 H 0.79337 0.62428 0.19092 0.0
H273 H 0.9972 0.7377 0.12715 0.0
H274 H 0.02253 0.65042 0.19007 0.0
H275 H 0.82695 0.58193 0.12428 0.0
H276 H 0.99477 0.72481 0.15079 0.0
H277 H 0.79313 0.62285 0.16697 0.0
C278 C 0.84365 0.62927 0.18574 0.0
C279 C 0.90803 0.63871 0.19258 0.0
C280 C 0.95788 0.69352 0.14499 0.0
C281 C 0.90751 0.63866 0.16525 0.0
C282 C 0.95869 0.70124 0.13149 0.0
C283 C 0.91198 0.66093 0.12369 0.0
C284 C 0.90892 0.64643 0.15086 0.0
C285 C 0.86388 0.61394 0.12993 0.0
C286 C 0.84332 0.62835 0.1721 0.0
C287 C 0.97146 0.64437 0.18529 0.0
N288 N 0.86302 0.60846 0.14319 0.0
N289 N 0.96943 0.64557 0.17206 0.0
H290 H 0.30497 0.79668 0.37517 0.0
H291 H 0.4734 0.96502 0.4392 0.0
H292 H 0.5034 0.91498 0.37422 0.0
H293 H 0.35799 0.76456 0.44012 0.0
H294 H 0.4677 0.96407 0.41538 0.0
H295 H 0.30671 0.80108 0.39902 0.0
C296 C 0.34847 0.82439 0.37997 0.0
C297 C 0.40401 0.85587 0.37268 0.0
C298 C 0.44333 0.92055 0.42081 0.0
C299 C 0.40584 0.86138 0.39996 0.0
C300 C 0.44598 0.92126 0.4344 0.0
C301 C 0.41574 0.8649 0.44168 0.0
C302 C 0.40882 0.86393 0.41441 0.0
C303 C 0.38185 0.80911 0.4349 0.0
C304 C 0.34962 0.82633 0.39357 0.0
C305 C 0.45948 0.89015 0.37945 0.0
N306 N 0.37883 0.81027 0.42164 0.0
N307 N 0.45873 0.89247 0.39271 0.0
H308 H 0.66499 0.26103 0.62321 0.0
H309 H 0.51007 0.4111 0.68981 0.0
H310 H 0.54896 0.45975 0.6248 0.0
H311 H 0.7074 0.29319 0.68829 0.0
H312 H 0.51064 0.41747 0.6659 0.0
H313 H 0.66876 0.25941 0.64712 0.0
C314 C 0.64065 0.30445 0.62858 0.0
C315 C 0.60718 0.36093 0.62199 0.0
C316 C 0.55395 0.39061 0.67084 0.0
C317 C 0.60986 0.3585 0.6493 0.0
C318 C 0.55361 0.38686 0.68446 0.0
C319 C 0.60907 0.35209 0.69106 0.0
C320 C 0.60915 0.3578 0.66377 0.0
C321 C 0.66399 0.32125 0.68362 0.0
C322 C 0.6429 0.30353 0.6422 0.0
C323 C 0.57608 0.41561 0.62946 0.0
N324 N 0.66228 0.32419 0.67038 0.0
N325 N 0.57753 0.41268 0.64271 0.0
H326 H 0.06818 0.04973 0.93884 0.0
H327 H 0.20573 0.22259 0.87271 0.0
H328 H 0.13672 0.27035 0.93693 0.0
H329 H 0.02089 0.08385 0.87318 0.0
H330 H 0.20548 0.22246 0.89658 0.0
H331 H 0.07536 0.04324 0.91496 0.0
C332 C 0.08588 0.09641 0.93342 0.0
C333 C 0.102 0.16071 0.93988 0.0
C334 C 0.16541 0.19162 0.89143 0.0
C335 C 0.11094 0.1532 0.91267 0.0
C336 C 0.16573 0.19119 0.87784 0.0
C337 C 0.11337 0.15287 0.87095 0.0
C338 C 0.11357 0.15195 0.89823 0.0
C339 C 0.06219 0.11402 0.87812 0.0
C340 C 0.08932 0.09276 0.91982 0.0
C341 C 0.12376 0.2198 0.93235 0.0
N342 N 0.06388 0.11404 0.89139 0.0
N343 N 0.1281 0.2145 0.91915 0.0
H344 H 0.06869 0.30722 1.00152 0.0
H345 H 0.89353 0.53686 0.05864 0.0
H346 H 0.84791 0.28288 1.01262 0.0
H347 H 0.11903 0.52734 0.05054 0.0
H348 H 0.87224 0.44775 0.0417 0.0
H349 H 0.08291 0.39981 1.0179 0.0
C350 C 0.02207 0.32422 1.00693 0.0
C351 C 0.95623 0.2895 1.00533 0.0
C352 C 0.92649 0.46436 0.04378 0.0
C353 C 0.97355 0.39141 1.02498 0.0
C354 C 0.93879 0.51452 0.05364 0.0
C355 C 0.00826 0.5391 0.05616 0.0
C356 C 0.98411 0.43974 0.03627 0.0
C357 C 0.06464 0.5093 0.04901 0.0
C358 C 0.03077 0.37556 1.01661 0.0
C359 C 0.89904 0.3099 1.01335 0.0
N360 N 0.05133 0.46187 0.03933 0.0
N361 N 0.90908 0.35925 1.02292 0.0
H362 H 0.51621 0.58626 0.30384 0.0
H363 H 0.78527 0.63626 0.25692 0.0
H364 H 0.55347 0.80773 0.3133 0.0
H365 H 0.76689 0.85965 0.26649 0.0
H366 H 0.69961 0.60715 0.27392 0.0
H367 H 0.61052 0.59288 0.28751 0.0
C368 C 0.547 0.6353 0.3029 0.0
C369 C 0.52854 0.69587 0.31019 0.0
C370 C 0.71257 0.66278 0.27221 0.0
C371 C 0.63517 0.70546 0.29111 0.0
C372 C 0.76133 0.67943 0.26231 0.0
C373 C 0.7822 0.75055 0.26009 0.0
C374 C 0.68483 0.71799 0.28002 0.0
C375 C 0.75127 0.80414 0.26774 0.0
C376 C 0.60048 0.63958 0.29341 0.0
C377 C 0.5679 0.75897 0.30827 0.0
N378 N 0.70454 0.78677 0.27738 0.0
N379 N 0.61866 0.76232 0.29882 0.0
H380 H 0.38464 0.50579 0.55139 0.0
H381 H 0.4565 0.71589 0.49851 0.0
H382 H 0.61171 0.48196 0.55598 0.0
H383 H 0.66736 0.7453 0.51436 0.0
H384 H 0.43506 0.61969 0.51395 0.0
H385 H 0.40581 0.59468 0.53446 0.0
C386 C 0.43915 0.52033 0.54893 0.0
C387 C 0.49647 0.48689 0.55512 0.0
C388 C 0.48618 0.64684 0.51413 0.0
C389 C 0.52173 0.58445 0.53495 0.0
C390 C 0.49955 0.69996 0.50489 0.0
C391 C 0.5646 0.73731 0.5049 0.0
C392 C 0.5373 0.63265 0.52378 0.0
C393 C 0.61688 0.71687 0.51392 0.0
C394 C 0.45137 0.56969 0.53899 0.0
C395 C 0.56606 0.50693 0.55152 0.0
N396 N 0.60184 0.66642 0.52312 0.0
N397 N 0.57685 0.55421 0.54159 0.0
H398 H 0.96409 0.18845 0.81297 0.0
H399 H 0.73147 0.35315 0.75521 0.0
H400 H 0.98708 0.40745 0.8003 0.0
H401 H 0.73977 0.12902 0.765 0.0
H402 H 0.81882 0.3782 0.7723 0.0
H403 H 0.86816 0.17171 0.79734 0.0
C404 C 0.94642 0.23416 0.80735 0.0
C405 C 0.98204 0.30011 0.8082 0.0
C406 C 0.80219 0.32343 0.77058 0.0
C407 C 0.87564 0.27991 0.78956 0.0
C408 C 0.75324 0.30898 0.76065 0.0
C409 C 0.72949 0.23872 0.75849 0.0
C410 C 0.82631 0.26722 0.77852 0.0
C411 C 0.75754 0.18386 0.76623 0.0
C412 C 0.8929 0.22404 0.79814 0.0
C413 C 0.95971 0.35625 0.80011 0.0
N414 N 0.80405 0.19926 0.77594 0.0
N415 N 0.90833 0.34473 0.791 0.0
H416 H 0.23581 0.37809 0.79678 0.0
H417 H 0.48802 0.0929 0.76178 0.0
H418 H 0.23533 0.15437 0.807 0.0
H419 H 0.46603 0.3125 0.74962 0.0
H420 H 0.39213 0.11077 0.77778 0.0
H421 H 0.32275 0.35378 0.77966 0.0
C422 C 0.25551 0.324 0.79564 0.0
C423 C 0.22917 0.26838 0.8035 0.0
C424 C 0.40691 0.15443 0.77135 0.0
C425 C 0.32695 0.23937 0.78358 0.0
C426 C 0.46068 0.14386 0.76208 0.0
C427 C 0.48339 0.20068 0.75411 0.0
C428 C 0.37687 0.22275 0.77277 0.0
C429 C 0.44835 0.2665 0.75521 0.0
C430 C 0.30436 0.30992 0.78574 0.0
C431 C 0.25527 0.19909 0.80142 0.0
N432 N 0.39744 0.27594 0.76447 0.0
N433 N 0.30262 0.1864 0.79162 0.0
H434 H 0.27903 0.85382 0.30897 0.0
H435 H 0.04812 0.68334 0.25153 0.0
H436 H 0.2724 0.62931 0.29952 0.0
H437 H 0.01978 0.90103 0.26423 0.0
H438 H 0.14444 0.66943 0.2671 0.0
H439 H 0.1906 0.87674 0.29202 0.0
C440 C 0.25745 0.80906 0.30365 0.0
C441 C 0.28216 0.73936 0.30585 0.0
C442 C 0.11841 0.7209 0.26633 0.0
C443 C 0.18396 0.76555 0.28596 0.0
C444 C 0.06467 0.72948 0.25715 0.0
C445 C 0.0277 0.79428 0.25625 0.0
C446 C 0.13426 0.77702 0.27495 0.0
C447 C 0.04835 0.85079 0.26443 0.0
C448 C 0.20784 0.82235 0.29379 0.0
C449 C 0.2541 0.68379 0.29824 0.0
N450 N 0.09992 0.84071 0.27355 0.0
N451 N 0.20698 0.69809 0.2886 0.0
H452 H 0.57198 0.22002 0.56393 0.0
H453 H 0.41762 0.99167 0.50463 0.0
H454 H 0.35724 0.24479 0.54978 0.0
H455 H 0.63729 0.99012 0.5169 0.0
H456 H 0.39098 0.07962 0.52147 0.0
H457 H 0.5908 0.12377 0.54842 0.0
C458 C 0.52748 0.20267 0.55799 0.0
C459 C 0.46208 0.23867 0.55846 0.0
C460 C 0.44521 0.06067 0.52036 0.0
C461 C 0.48505 0.13219 0.53987 0.0
C462 C 0.46072 0.01127 0.51056 0.0
C463 C 0.53005 0.98434 0.50915 0.0
C464 C 0.49936 0.08238 0.52894 0.0
C465 C 0.5832 0.0101 0.51754 0.0
C466 C 0.5389 0.14897 0.54886 0.0
C467 C 0.40787 0.21705 0.54991 0.0
N468 N 0.56672 0.05725 0.5271 0.0
N469 N 0.42073 0.1656 0.54085 0.0
H470 H 0.93125 0.80559 0.06148 0.0
H471 H 0.10468 0.04023 1.00452 0.0
H472 H 0.15059 0.78121 0.04963 0.0
H473 H 0.87947 0.0291 1.01293 0.0
H474 H 0.12628 0.95014 1.02127 0.0
H475 H 0.91688 0.89977 0.04538 0.0
C476 C 0.9776 0.8229 0.05597 0.0
C477 C 0.0431 0.78782 0.05729 0.0
C478 C 0.07201 0.9666 1.0193 0.0
C479 C 0.02545 0.89157 0.03795 0.0
C480 C 0.05951 0.01732 1.00955 0.0
C481 C 0.99003 0.04146 1.00712 0.0
C482 C 0.0146 0.94106 1.02684 0.0
C483 C 0.93384 0.01128 1.01436 0.0
C484 C 0.96876 0.87515 0.04645 0.0
C485 C 0.09979 0.80848 0.04912 0.0
N486 N 0.94735 0.96323 1.02395 0.0
N487 N 0.08961 0.85882 0.03971 0.0
H488 H 0.31972 0.76663 0.11429 0.0
H489 H 0.57454 0.62263 0.05838 0.0
H490 H 0.24651 0.70573 0.07603 0.0
H491 H 0.64605 0.66228 0.0976 0.0
H492 H 0.45139 0.63793 0.06555 0.0
H493 H 0.43635 0.71567 0.10926 0.0
C494 C 0.32786 0.74179 0.10488 0.0
C495 C 0.27308 0.74069 0.09558 0.0
C496 C 0.49375 0.64216 0.07267 0.0
C497 C 0.40683 0.68256 0.08972 0.0
C498 C 0.56411 0.63337 0.06857 0.0
C499 C 0.62054 0.64158 0.07739 0.0
C500 C 0.47962 0.66066 0.08566 0.0
C501 C 0.6041 0.65509 0.09049 0.0
C502 C 0.39444 0.71245 0.10204 0.0
C503 C 0.28658 0.70727 0.08359 0.0
N504 N 0.53508 0.66538 0.09419 0.0
N505 N 0.35232 0.68033 0.08096 0.0
H506 H 0.38096 0.09979 0.34993 0.0
H507 H 0.48278 0.50105 0.33067 0.0
H508 H 0.40615 0.1755 0.31039 0.0
H509 H 0.41319 0.44233 0.36947 0.0
H510 H 0.45521 0.38105 0.32338 0.0
H511 H 0.3911 0.22366 0.35756 0.0
C512 C 0.38722 0.14224 0.34282 0.0
C513 C 0.39281 0.12686 0.32947 0.0
C514 C 0.44527 0.39454 0.33347 0.0
C515 C 0.4061 0.26841 0.33818 0.0
C516 C 0.46054 0.46383 0.33768 0.0
C517 C 0.44925 0.4832 0.35075 0.0
C518 C 0.41942 0.34333 0.34237 0.0
C519 C 0.42283 0.4303 0.35932 0.0
C520 C 0.39359 0.21298 0.34721 0.0
C521 C 0.40234 0.18439 0.32079 0.0
N522 N 0.40906 0.36283 0.35499 0.0
N523 N 0.40916 0.25223 0.32529 0.0
H524 H 0.92853 0.36841 0.55944 0.0
H525 H 0.1978 0.35697 0.61966 0.0
H526 H 0.85795 0.38651 0.59936 0.0
H527 H 0.25443 0.30428 0.57997 0.0
H528 H 0.07649 0.38313 0.61243 0.0
H529 H 0.05139 0.3624 0.56687 0.0
C530 C 0.93886 0.37174 0.5698 0.0
C531 C 0.88247 0.3776 0.57877 0.0
C532 C 0.11588 0.36653 0.60532 0.0
C533 C 0.02407 0.37016 0.5874 0.0
C534 C 0.18533 0.35141 0.60942 0.0
C535 C 0.23761 0.32879 0.60046 0.0
C536 C 0.09817 0.3591 0.59213 0.0
C537 C 0.21755 0.3229 0.58731 0.0
C538 C 0.00926 0.36823 0.57403 0.0
C539 C 0.89954 0.38256 0.59206 0.0
N540 N 0.14965 0.33776 0.5836 0.0
N541 N 0.96888 0.37808 0.59599 0.0
H542 H 0.1362 0.90621 0.84808 0.0
H543 H 0.03704 0.5048 0.8288 0.0
H544 H 0.11206 0.8315 0.80855 0.0
H545 H 0.10453 0.56323 0.86762 0.0
H546 H 0.06468 0.62498 0.8215 0.0
H547 H 0.12684 0.78201 0.85569 0.0
C548 C 0.13035 0.86391 0.84097 0.0
C549 C 0.12477 0.87967 0.82763 0.0
C550 C 0.07414 0.61137 0.8316 0.0
C551 C 0.11239 0.73771 0.83631 0.0
C552 C 0.05881 0.54196 0.83582 0.0
C553 C 0.06936 0.52245 0.8489 0.0
C554 C 0.09934 0.66257 0.84049 0.0
C555 C 0.09538 0.57532 0.85745 0.0
C556 C 0.12443 0.79298 0.84534 0.0
C557 C 0.11582 0.82231 0.81894 0.0
N558 N 0.10917 0.64289 0.85312 0.0
N559 N 0.10941 0.75428 0.82343 0.0
H560 H 0.42422 0.13715 1.00505 0.0
H561 H 0.68371 0.25519 0.94722 0.0
H562 H 0.35344 0.16444 0.96542 0.0
H563 H 0.7534 0.2156 0.98662 0.0
H564 H 0.56529 0.20986 0.95304 0.0
H565 H 0.54744 0.15171 0.9978 0.0
C566 C 0.43477 0.1452 0.99477 0.0
C567 C 0.37844 0.1499 0.98584 0.0
C568 C 0.60679 0.21016 0.96036 0.0
C569 C 0.51971 0.16787 0.97746 0.0
C570 C 0.67445 0.23627 0.95706 0.0
C571 C 0.72898 0.2393 0.96641 0.0
C572 C 0.59306 0.18752 0.97316 0.0
C573 C 0.71378 0.21356 0.97899 0.0
C574 C 0.50522 0.15355 0.99063 0.0
C575 C 0.39521 0.15992 0.97263 0.0
N576 N 0.64714 0.18944 0.98201 0.0
N577 N 0.46438 0.1696 0.96886 0.0
H578 H 0.95028 0.99171 0.23588 0.0
H579 H 0.87915 0.39657 0.21534 0.0
H580 H 0.92302 0.05787 0.19583 0.0
H581 H 0.89341 0.32148 0.25503 0.0
H582 H 0.88267 0.27214 0.20787 0.0
H583 H 0.91736 0.11049 0.24288 0.0
C584 C 0.93591 0.0303 0.22849 0.0
C585 C 0.93894 0.01369 0.21516 0.0
C586 C 0.88404 0.283 0.21822 0.0
C587 C 0.90325 0.15218 0.22327 0.0
C588 C 0.88148 0.35404 0.2225 0.0
C589 C 0.8863 0.36953 0.23584 0.0
C590 C 0.89162 0.22739 0.22735 0.0
C591 C 0.89047 0.31214 0.24464 0.0
C592 C 0.91768 0.09893 0.23255 0.0
C593 C 0.9218 0.06799 0.2062 0.0
N594 N 0.89355 0.24387 0.24024 0.0
N595 N 0.90523 0.13489 0.21041 0.0
H596 H 0.09668 0.89695 0.50398 0.0
H597 H 0.84226 0.80787 0.44414 0.0
H598 H 0.17358 0.87773 0.4645 0.0
H599 H 0.76391 0.8668 0.48228 0.0
H600 H 0.96317 0.83492 0.45127 0.0
H601 H 0.97429 0.88867 0.49606 0.0
C602 C 0.08772 0.89191 0.4936 0.0
C603 C 0.1455 0.8881 0.48489 0.0
C604 C 0.91943 0.84198 0.45806 0.0
C605 C 1.00512 0.87735 0.47575 0.0
C606 C 0.85001 0.82643 0.45402 0.0
C607 C 0.79184 0.83355 0.46263 0.0
C608 C 0.93149 0.86474 0.47087 0.0
C609 C 0.80625 0.85816 0.4753 0.0
C610 C 0.01776 0.88716 0.48909 0.0
C611 C 0.13071 0.88172 0.47155 0.0
N612 N 0.87451 0.87236 0.47903 0.0
N613 N 0.06193 0.87569 0.4674 0.0
H614 H 0.63202 0.59667 0.71307 0.0
H615 H 0.54461 0.999 0.7331 0.0
H616 H 0.60998 0.67089 0.75267 0.0
H617 H 0.60056 0.93976 0.69368 0.0
H618 H 0.572 0.87891 0.74019 0.0
H619 H 0.62546 0.72121 0.70554 0.0
C620 C 0.6272 0.63897 0.7202 0.0
C621 C 0.62131 0.62307 0.73354 0.0
C622 C 0.57909 0.89224 0.73 0.0
C623 C 0.61239 0.7653 0.72497 0.0
C624 C 0.56399 0.96166 0.7259 0.0
C625 C 0.57125 0.98089 0.71271 0.0
C626 C 0.6007 0.84066 0.72089 0.0
C627 C 0.59408 0.92781 0.70394 0.0
C628 C 0.62291 0.71006 0.71588 0.0
C629 C 0.61386 0.68029 0.74229 0.0
N630 N 0.60765 0.86012 0.70816 0.0
N631 N 0.60915 0.74848 0.73785 0.0
H632 H 0.94889 0.3544 0.07181 0.0
H633 H 0.81497 0.98866 0.10539 0.0
H634 H 0.7916 0.34202 0.10255 0.0
H635 H 0.96128 0.99181 0.07286 0.0
H636 H 0.80342 0.11822 0.10368 0.0
H637 H 0.95297 0.22277 0.07137 0.0
C638 C 0.91516 0.3242 0.07845 0.0
C639 C 0.87009 0.35973 0.08729 0.0
C640 C 0.83775 0.09081 0.09683 0.0
C641 C 0.87447 0.20887 0.08681 0.0
C642 C 0.84424 0.01647 0.09779 0.0
C643 C 0.88934 0.97886 0.08929 0.0
C644 C 0.87703 0.12877 0.08736 0.0
C645 C 0.92578 0.01835 0.07962 0.0
C646 C 0.91743 0.24899 0.07817 0.0
C647 C 0.82738 0.31746 0.09559 0.0
N648 N 0.91931 0.09111 0.07899 0.0
N649 N 0.83087 0.24477 0.09517 0.0
H650 H 0.72326 0.79778 0.32259 0.0
H651 H 0.09736 0.74543 0.35815 0.0
H652 H 0.74916 0.79273 0.36432 0.0
H653 H 0.08753 0.84473 0.32022 0.0
H654 H 0.96744 0.74479 0.35915 0.0
H655 H 0.85444 0.79946 0.32018 0.0
C656 C 0.75632 0.79707 0.33122 0.0
C657 C 0.725 0.79524 0.34369 0.0
C658 C 0.99352 0.76679 0.35059 0.0
C659 C 0.8744 0.79607 0.34098 0.0
C660 C 0.06788 0.76691 0.34998 0.0
C661 C 0.10362 0.79553 0.33911 0.0
C662 C 0.95381 0.7945 0.34019 0.0
C663 C 0.06214 0.82267 0.32884 0.0
C664 C 0.83103 0.79825 0.32983 0.0
C665 C 0.77055 0.79442 0.35452 0.0
N666 N 0.98928 0.82122 0.32959 0.0
N667 N 0.84254 0.79431 0.35291 0.0
H668 H 0.43545 0.68452 0.58231 0.0
H669 H 0.68956 0.03038 0.58514 0.0
H670 H 0.66503 0.67346 0.57944 0.0
H671 H 0.4599 0.04155 0.5827 0.0
H672 H 0.68204 0.90022 0.58282 0.0
H673 H 0.44358 0.81511 0.58223 0.0
C674 C 0.48766 0.70948 0.58162 0.0
C675 C 0.5497 0.66764 0.58096 0.0
C676 C 0.63329 0.93112 0.58273 0.0
C677 C 0.55942 0.81795 0.58093 0.0
C678 C 0.63751 1.0056 0.58407 0.0
C679 C 0.57523 0.04725 0.58421 0.0
C680 C 0.56625 0.89758 0.58161 0.0
C681 C 0.50937 0.01182 0.58271 0.0
C682 C 0.49223 0.78424 0.58156 0.0
C683 C 0.61576 0.70336 0.57999 0.0
N684 N 0.50662 0.93921 0.58157 0.0
N685 N 0.6189 0.77629 0.5801 0.0
H686 H 0.79238 0.20484 0.82152 0.0
H687 H 0.41461 0.26986 0.85555 0.0
H688 H 0.76218 0.22434 0.86303 0.0
H689 H 0.42851 0.16096 0.81861 0.0
H690 H 0.54438 0.27055 0.85688 0.0
H691 H 0.66155 0.20368 0.8188 0.0
C692 C 0.75844 0.20889 0.83004 0.0
C693 C 0.78846 0.21459 0.84253 0.0
C694 C 0.51924 0.24645 0.84847 0.0
C695 C 0.63937 0.21427 0.83946 0.0
C696 C 0.44495 0.2463 0.84766 0.0
C697 C 0.41036 0.21496 0.83698 0.0
C698 C 0.56005 0.21596 0.83844 0.0
C699 C 0.45295 0.18521 0.82707 0.0
C700 C 0.68391 0.20797 0.82848 0.0
C701 C 0.74179 0.21955 0.85322 0.0
N702 N 0.52571 0.18666 0.82801 0.0
N703 N 0.66997 0.21978 0.85143 0.0
H704 H 0.21354 0.84885 0.96143 0.0
H705 H 0.03281 0.49175 0.99055 0.0
H706 H 0.04932 0.85419 0.99099 0.0
H707 H 0.18355 0.49618 0.95869 0.0
H708 H 0.04449 0.62249 0.99243 0.0
H709 H 0.20904 0.71867 0.9618 0.0
C710 C 0.1765 0.82272 0.96804 0.0
C711 C 0.13143 0.86301 0.97613 0.0
C712 C 0.0753 0.59468 0.98509 0.0
C713 C 0.12596 0.71237 0.9766 0.0
C714 C 0.06895 0.51994 0.98405 0.0
C715 C 0.10702 0.48263 0.97439 0.0
C716 C 0.12027 0.63245 0.97646 0.0
C717 C 0.15283 0.52231 0.96624 0.0
C718 C 0.17395 0.74801 0.96825 0.0
C719 C 0.08482 0.8255 0.98452 0.0
N720 N 0.1579 0.59467 0.96743 0.0
N721 N 0.08313 0.75236 0.98451 0.0
H722 H 0.224 0.79046 0.23462 0.0
H723 H 0.59787 0.5816 0.23435 0.0
H724 H 0.24195 0.56362 0.22751 0.0
H725 H 0.58055 0.81184 0.23366 0.0
H726 H 0.46723 0.5726 0.23446 0.0
H727 H 0.35384 0.79765 0.23696 0.0
C728 C 0.2551 0.74204 0.23361 0.0
C729 C 0.22175 0.6764 0.23074 0.0
C730 C 0.49205 0.62509 0.23433 0.0
C731 C 0.37098 0.68432 0.23345 0.0
C732 C 0.56671 0.63028 0.23429 0.0
C733 C 0.60049 0.6976 0.2339 0.0
C734 C 0.45058 0.68764 0.23407 0.0
C735 C 0.55707 0.75877 0.23387 0.0
C736 C 0.32937 0.74624 0.23493 0.0
C737 C 0.26513 0.61547 0.22963 0.0
N738 N 0.48461 0.75232 0.23393 0.0
N739 N 0.33733 0.62094 0.23095 0.0
H740 H 0.47534 0.54617 0.49038 0.0
H741 H 0.54623 0.16723 0.45693 0.0
H742 H 0.51233 0.51735 0.44923 0.0
H743 H 0.42802 0.18283 0.49295 0.0
H744 H 0.55028 0.29737 0.45561 0.0
H745 H 0.47233 0.415 0.49305 0.0
C746 C 0.48296 0.51244 0.48193 0.0
C747 C 0.49397 0.54293 0.46955 0.0
C748 C 0.52341 0.27251 0.46381 0.0
C749 C 0.4914 0.39341 0.47257 0.0
C750 C 0.5213 0.19801 0.46462 0.0
C751 C 0.48636 0.16384 0.47504 0.0
C752 C 0.49119 0.31386 0.47358 0.0
C753 C 0.45503 0.20696 0.48469 0.0
C754 C 0.48097 0.43771 0.48346 0.0
C755 C 0.50336 0.49654 0.45895 0.0
N756 N 0.45836 0.27985 0.48376 0.0
N757 N 0.50227 0.42446 0.46072 0.0
H758 H 0.91716 0.40989 0.73324 0.0
H759 H 0.29095 0.20094 0.73147 0.0
H760 H 0.9344 0.17993 0.73112 0.0
H761 H 0.27326 0.4297 0.7266 0.0
H762 H 0.16106 0.19308 0.73381 0.0
H763 H 0.04779 0.41882 0.73324 0.0
C764 C 0.9483 0.36123 0.73285 0.0
C765 C 0.91448 0.29405 0.73209 0.0
C766 C 0.18558 0.24504 0.73226 0.0
C767 C 0.06441 0.30394 0.73211 0.0
C768 C 0.25989 0.24962 0.73095 0.0
C769 C 0.29335 0.31606 0.72872 0.0
C770 C 0.14403 0.30736 0.73143 0.0
C771 C 0.25 0.37725 0.72822 0.0
C772 C 0.02297 0.3664 0.73281 0.0
C773 C 0.95789 0.23291 0.73163 0.0
N774 N 0.17778 0.37141 0.72952 0.0
N775 N 0.03035 0.23933 0.73162 0.0
loop_
_geom_bond_atom_site_label_1
_geom_bond_atom_site_label_2
_geom_bond_distance
_geom_bond_site_symmetry_2
_ccdc_geom_bond_type
Zn0 N4 2.020 . S
Zn0 O8 2.019 . S
Zn0 N10 2.119 . S
Zn0 O18 1.975 . S
C1 N2 1.334 1_655 S
C1 N5 1.336 . S
N2 C1 1.334 1_455 S
N2 C3 1.334 . S
C3 N2 1.334 . S
C3 N4 1.336 . S
N4 Zn0 2.020 . S
N4 C3 1.336 . S
N4 N5 1.354 1_455 S
N5 C1 1.336 . S
N5 N4 1.354 1_655 S
N5 Zn9 2.020 . S
C6 O7 1.244 1_655 S
C6 O30 1.257 . S
O7 C6 1.244 1_455 S
O8 Zn0 2.019 . S
O8 C28 1.257 . S
Zn9 N5 2.020 . S
Zn9 O16 1.975 . S
Zn9 N25 2.119 . S
Zn9 O30 2.019 . S
N10 Zn0 2.119 . S
N10 C12 1.334 . S
N10 C13 1.328 . S
C11 C12 1.391 . S
C11 N14 1.329 . S
C11 H32 0.930 . S
C12 N10 1.334 . S
C12 C11 1.391 . S
C12 H19 0.930 . S
C13 N10 1.328 . S
C13 C15 1.392 . S
C13 H20 0.930 . S
N14 C11 1.329 . S
N14 C15 1.331 . S
C15 C13 1.392 . S
C15 N14 1.331 . S
O16 Zn9 1.975 . S
O16 C17 1.252 1_655 S
C17 O16 1.252 1_455 S
C17 O18 1.252 . S
O18 Zn0 1.975 . S
O18 C17 1.252 . S
H19 C12 0.930 . S
H20 C13 0.930 . S
C21 C22 1.392 . S
C21 N25 1.328 . S
C21 H27 0.930 . S
C22 C21 1.392 . S
C22 N26 1.331 . S
C23 C24 1.391 . S
C23 N26 1.329 . S
C23 H33 0.930 . S
C24 C23 1.391 . S
C24 N25 1.334 . S
C24 H31 0.930 . S
N25 Zn9 2.119 . S
N25 C21 1.328 . S
N25 C24 1.334 . S
N26 C22 1.331 . S
N26 C23 1.329 . S
H27 C21 0.930 . S
C28 O8 1.257 . S
C28 O29 1.244 1_455 S
O29 C28 1.244 1_655 S
O30 C6 1.257 . S
O30 Zn9 2.019 . S
H31 C24 0.930 . S
H32 C11 0.930 . S
H33 C23 0.930 . S
Zn34 N38 2.020 . S
Zn34 O42 2.019 . S
Zn34 N44 2.119 . S
Zn34 O52 1.975 . S
C35 N36 1.334 . S
C35 N39 1.336 . S
N36 C35 1.334 . S
N36 C37 1.334 . S
C37 N36 1.334 . S
C37 N38 1.336 . S
N38 Zn34 2.020 . S
N38 C37 1.336 . S
N38 N39 1.354 . S
N39 C35 1.336 . S
N39 N38 1.354 . S
N39 Zn43 2.020 . S
C40 O41 1.244 . S
C40 O64 1.257 . S
O41 C40 1.244 . S
O42 Zn34 2.019 . S
O42 C62 1.257 . S
Zn43 N39 2.020 . S
Zn43 O50 1.975 . S
Zn43 N59 2.119 . S
Zn43 O64 2.019 . S
N44 Zn34 2.119 . S
N44 C46 1.334 . S
N44 C47 1.328 . S
C45 C46 1.391 . S
C45 N48 1.329 1_565 S
C45 H66 0.930 1_565 S
C46 N44 1.334 . S
C46 C45 1.391 . S
C46 H53 0.930 . S
C47 N44 1.328 . S
C47 C49 1.392 1_565 S
C47 H54 0.930 . S
N48 C45 1.329 1_545 S
N48 C49 1.331 . S
C49 C47 1.392 1_545 S
C49 N48 1.331 . S
O50 Zn43 1.975 . S
O50 C51 1.252 . S
C51 O50 1.252 . S
C51 O52 1.252 . S
O52 Zn34 1.975 . S
O52 C51 1.252 . S
H53 C46 0.930 . S
H54 C47 0.930 . S
C55 C56 1.392 . S
C55 N59 1.328 . S
C55 H61 0.930 . S
C56 C55 1.392 . S
C56 N60 1.331 . S
C57 C58 1.391 . S
C57 N60 1.329 . S
C57 H67 0.930 . S
C58 C57 1.391 . S
C58 N59 1.334 . S
C58 H65 0.930 . S
N59 Zn43 2.119 . S
N59 C55 1.328 . S
N59 C58 1.334 . S
N60 C56 1.331 . S
N60 C57 1.329 . S
H61 C55 0.930 . S
C62 O42 1.257 . S
C62 O63 1.244 . S
O63 C62 1.244 . S
O64 C40 1.257 . S
O64 Zn43 2.019 . S
H65 C58 0.930 . S
H66 C45 0.930 1_545 S
H67 C57 0.930 . S
Zn68 N72 2.020 . S
Zn68 O76 2.019 . S
Zn68 N78 2.119 . S
Zn68 O86 1.975 . S
C69 N70 1.334 . S
C69 N73 1.336 . S
N70 C69 1.334 . S
N70 C71 1.334 . S
C71 N70 1.334 . S
C71 N72 1.336 . S
N72 Zn68 2.020 . S
N72 C71 1.336 . S
N72 N73 1.354 . S
N73 C69 1.336 . S
N73 N72 1.354 . S
N73 Zn77 2.020 . S
C74 O75 1.244 . S
C74 O98 1.257 . S
O75 C74 1.244 . S
O76 Zn68 2.019 . S
O76 C96 1.257 . S
Zn77 N73 2.020 . S
Zn77 O84 1.975 . S
Zn77 N93 2.119 . S
Zn77 O98 2.019 . S
N78 Zn68 2.119 . S
N78 C80 1.334 . S
N78 C81 1.328 . S
C79 C80 1.391 . S
C79 N82 1.329 . S
C79 H100 0.930 . S
C80 N78 1.334 . S
C80 C79 1.391 . S
C80 H87 0.930 . S
C81 N78 1.328 . S
C81 C83 1.392 . S
C81 H88 0.930 . S
N82 C79 1.329 . S
N82 C83 1.331 . S
C83 C81 1.392 . S
C83 N82 1.331 . S
O84 Zn77 1.975 . S
O84 C85 1.252 . S
C85 O84 1.252 . S
C85 O86 1.252 . S
O86 Zn68 1.975 . S
O86 C85 1.252 . S
H87 C80 0.930 . S
H88 C81 0.930 . S
C89 C90 1.392 . S
C89 N93 1.328 . S
C89 H95 0.930 . S
C90 C89 1.392 . S
C90 N94 1.331 . S
C91 C92 1.391 . S
C91 N94 1.329 . S
C91 H101 0.930 . S
C92 C91 1.391 . S
C92 N93 1.334 . S
C92 H99 0.930 . S
N93 Zn77 2.119 . S
N93 C89 1.328 . S
N93 C92 1.334 . S
N94 C90 1.331 . S
N94 C91 1.329 . S
H95 C89 0.930 . S
C96 O76 1.257 . S
C96 O97 1.244 . S
O97 C96 1.244 . S
O98 C74 1.257 . S
O98 Zn77 2.019 . S
H99 C92 0.930 . S
H100 C79 0.930 . S
H101 C91 0.930 . S
Zn102 N106 2.020 . S
Zn102 O110 2.019 . S
Zn102 N112 2.119 . S
Zn102 O120 1.975 . S
C103 N104 1.334 . S
C103 N107 1.336 . S
N104 C103 1.334 . S
N104 C105 1.334 1_455 S
C105 N104 1.334 1_655 S
C105 N106 1.336 . S
N106 Zn102 2.020 . S
N106 C105 1.336 . S
N106 N107 1.354 1_655 S
N107 C103 1.336 . S
N107 N106 1.354 1_455 S
N107 Zn111 2.020 . S
C108 O109 1.244 . S
C108 O132 1.257 . S
O109 C108 1.244 . S
O110 Zn102 2.019 . S
O110 C130 1.257 . S
Zn111 N107 2.020 . S
Zn111 O118 1.975 . S
Zn111 N127 2.119 . S
Zn111 O132 2.019 . S
N112 Zn102 2.119 . S
N112 C114 1.334 1_655 S
N112 C115 1.328 . S
C113 C114 1.391 . S
C113 N116 1.329 1_455 S
C113 H134 0.930 . S
C114 N112 1.334 1_455 S
C114 C113 1.391 . S
C114 H121 0.930 . S
C115 N112 1.328 . S
C115 C117 1.392 . S
C115 H122 0.930 . S
N116 C113 1.329 1_655 S
N116 C117 1.331 . S
C117 C115 1.392 . S
C117 N116 1.331 . S
O118 Zn111 1.975 . S
O118 C119 1.252 . S
C119 O118 1.252 . S
C119 O120 1.252 1_455 S
O120 Zn102 1.975 . S
O120 C119 1.252 1_655 S
H121 C114 0.930 . S
H122 C115 0.930 . S
C123 C124 1.392 1_545 S
C123 N127 1.328 . S
C123 H129 0.930 . S
C124 C123 1.392 1_565 S
C124 N128 1.331 . S
C125 C126 1.391 . S
C125 N128 1.329 1_645 S
C125 H135 0.930 1_545 S
C126 C125 1.391 . S
C126 N127 1.334 1_655 S
C126 H133 0.930 . S
N127 Zn111 2.119 . S
N127 C123 1.328 . S
N127 C126 1.334 1_455 S
N128 C124 1.331 . S
N128 C125 1.329 1_465 S
H129 C123 0.930 . S
C130 O110 1.257 . S
C130 O131 1.244 . S
O131 C130 1.244 . S
O132 C108 1.257 . S
O132 Zn111 2.019 . S
H133 C126 0.930 . S
H134 C113 0.930 . S
H135 C125 0.930 1_565 S
Zn136 N140 2.020 . S
Zn136 O144 2.019 . S
Zn136 N146 2.119 . S
Zn136 O154 1.975 . S
C137 N138 1.334 . S
C137 N141 1.336 . S
N138 C137 1.334 . S
N138 C139 1.334 1_455 S
C139 N138 1.334 1_655 S
C139 N140 1.336 . S
N140 Zn136 2.020 . S
N140 C139 1.336 . S
N140 N141 1.354 1_655 S
N141 C137 1.336 . S
N141 N140 1.354 1_455 S
N141 Zn145 2.020 . S
C142 O143 1.244 1_455 S
C142 O166 1.257 . S
O143 C142 1.244 1_655 S
O144 Zn136 2.019 . S
O144 C164 1.257 . S
Zn145 N141 2.020 . S
Zn145 O152 1.975 . S
Zn145 N161 2.119 . S
Zn145 O166 2.019 . S
N146 Zn136 2.119 . S
N146 C148 1.334 . S
N146 C149 1.328 . S
C147 C148 1.391 . S
C147 N150 1.329 . S
C147 H168 0.930 . S
C148 N146 1.334 . S
C148 C147 1.391 . S
C148 H155 0.930 . S
C149 N146 1.328 . S
C149 C151 1.392 . S
C149 H156 0.930 . S
N150 C147 1.329 . S
N150 C151 1.331 . S
C151 C149 1.392 . S
C151 N150 1.331 . S
O152 Zn145 1.975 . S
O152 C153 1.252 . S
C153 O152 1.252 . S
C153 O154 1.252 1_455 S
O154 Zn136 1.975 . S
O154 C153 1.252 1_655 S
H155 C148 0.930 . S
H156 C149 0.930 . S
C157 C158 1.392 . S
C157 N161 1.328 . S
C157 H163 0.930 . S
C158 C157 1.392 . S
C158 N162 1.331 . S
C159 C160 1.391 . S
C159 N162 1.329 . S
C159 H169 0.930 . S
C160 C159 1.391 . S
C160 N161 1.334 . S
C160 H167 0.930 . S
N161 Zn145 2.119 . S
N161 C157 1.328 . S
N161 C160 1.334 . S
N162 C158 1.331 . S
N162 C159 1.329 . S
H163 C157 0.930 . S
C164 O144 1.257 . S
C164 O165 1.244 1_655 S
O165 C164 1.244 1_455 S
O166 C142 1.257 . S
O166 Zn145 2.019 . S
H167 C160 0.930 . S
H168 C147 0.930 . S
H169 C159 0.930 . S
Zn170 N174 2.020 . S
Zn170 O178 2.019 . S
Zn170 N180 2.119 . S
Zn170 O188 1.975 . S
C171 N172 1.334 . S
C171 N175 1.336 . S
N172 C171 1.334 . S
N172 C173 1.334 1_455 S
C173 N172 1.334 1_655 S
C173 N174 1.336 . S
N174 Zn170 2.020 . S
N174 C173 1.336 . S
N174 N175 1.354 1_655 S
N175 C171 1.336 . S
N175 N174 1.354 1_455 S
N175 Zn179 2.020 . S
C176 O177 1.244 . S
C176 O200 1.257 . S
O177 C176 1.244 . S
O178 Zn170 2.019 . S
O178 C198 1.257 . S
Zn179 N175 2.020 . S
Zn179 O186 1.975 . S
Zn179 N195 2.119 . S
Zn179 O200 2.019 . S
N180 Zn170 2.119 . S
N180 C182 1.334 1_655 S
N180 C183 1.328 . S
C181 C182 1.391 . S
C181 N184 1.329 1_455 S
C181 H202 0.930 . S
C182 N180 1.334 1_455 S
C182 C181 1.391 . S
C182 H189 0.930 . S
C183 N180 1.328 . S
C183 C185 1.392 . S
C183 H190 0.930 . S
N184 C181 1.329 1_655 S
N184 C185 1.331 . S
C185 C183 1.392 . S
C185 N184 1.331 . S
O186 Zn179 1.975 . S
O186 C187 1.252 . S
C187 O186 1.252 . S
C187 O188 1.252 1_455 S
O188 Zn170 1.975 . S
O188 C187 1.252 1_655 S
H189 C182 0.930 . S
H190 C183 0.930 . S
C191 C192 1.392 1_565 S
C191 N195 1.328 . S
C191 H197 0.930 . S
C192 C191 1.392 1_545 S
C192 N196 1.331 . S
C193 C194 1.391 . S
C193 N196 1.329 1_665 S
C193 H203 0.930 1_565 S
C194 C193 1.391 . S
C194 N195 1.334 1_655 S
C194 H201 0.930 . S
N195 Zn179 2.119 . S
N195 C191 1.328 . S
N195 C194 1.334 1_455 S
N196 C192 1.331 . S
N196 C193 1.329 1_445 S
H197 C191 0.930 . S
C198 O178 1.257 . S
C198 O199 1.244 . S
O199 C198 1.244 . S
O200 C176 1.257 . S
O200 Zn179 2.019 . S
H201 C194 0.930 . S
H202 C181 0.930 . S
H203 C193 0.930 1_545 S
Zn204 N208 2.020 . S
Zn204 O212 2.019 . S
Zn204 N214 2.119 . S
Zn204 O222 1.975 . S
C205 N206 1.334 . S
C205 N209 1.336 . S
N206 C205 1.334 . S
N206 C207 1.334 . S
C207 N206 1.334 . S
C207 N208 1.336 . S
N208 Zn204 2.020 . S
N208 C207 1.336 . S
N208 N209 1.354 . S
N209 C205 1.336 . S
N209 N208 1.354 . S
N209 Zn213 2.020 . S
C210 O211 1.244 . S
C210 O234 1.257 . S
O211 C210 1.244 . S
O212 Zn204 2.019 . S
O212 C232 1.257 . S
Zn213 N209 2.020 . S
Zn213 O220 1.975 . S
Zn213 N229 2.119 . S
Zn213 O234 2.019 . S
N214 Zn204 2.119 . S
N214 C216 1.334 . S
N214 C217 1.328 . S
C215 C216 1.391 . S
C215 N218 1.329 . S
C215 H236 0.930 . S
C216 N214 1.334 . S
C216 C215 1.391 . S
C216 H223 0.930 . S
C217 N214 1.328 . S
C217 C219 1.392 . S
C217 H224 0.930 . S
N218 C215 1.329 . S
N218 C219 1.331 . S
C219 C217 1.392 . S
C219 N218 1.331 . S
O220 Zn213 1.975 . S
O220 C221 1.252 . S
C221 O220 1.252 . S
C221 O222 1.252 . S
O222 Zn204 1.975 . S
O222 C221 1.252 . S
H223 C216 0.930 . S
H224 C217 0.930 . S
C225 C226 1.392 . S
C225 N229 1.328 . S
C225 H231 0.930 . S
C226 C225 1.392 . S
C226 N230 1.331 . S
C227 C228 1.391 . S
C227 N230 1.329 . S
C227 H237 0.930 . S
C228 C227 1.391 . S
C228 N229 1.334 . S
C228 H235 0.930 . S
N229 Zn213 2.119 . S
N229 C225 1.328 . S
N229 C228 1.334 . S
N230 C226 1.331 . S
N230 C227 1.329 . S
H231 C225 0.930 . S
C232 O212 1.257 . S
C232 O233 1.244 . S
O233 C232 1.244 . S
O234 C210 1.257 . S
O234 Zn213 2.019 . S
H235 C228 0.930 . S
H236 C215 0.930 . S
H237 C227 0.930 . S
Zn238 N242 2.020 . S
Zn238 O246 2.019 . S
Zn238 N248 2.119 . S
Zn238 O256 1.975 . S
C239 N240 1.334 . S
C239 N243 1.336 . S
N240 C239 1.334 . S
N240 C241 1.334 . S
C241 N240 1.334 . S
C241 N242 1.336 . S
N242 Zn238 2.020 . S
N242 C241 1.336 . S
N242 N243 1.354 . S
N243 C239 1.336 . S
N243 N242 1.354 . S
N243 Zn247 2.020 . S
C244 O245 1.244 . S
C244 O268 1.257 . S
O245 C244 1.244 . S
O246 Zn238 2.019 . S
O246 C266 1.257 . S
Zn247 N243 2.020 . S
Zn247 O254 1.975 . S
Zn247 N263 2.119 . S
Zn247 O268 2.019 . S
N248 Zn238 2.119 . S
N248 C250 1.334 . S
N248 C251 1.328 . S
C249 C250 1.391 . S
C249 N252 1.329 1_545 S
C249 H270 0.930 1_545 S
C250 N248 1.334 . S
C250 C249 1.391 . S
C250 H257 0.930 . S
C251 N248 1.328 . S
C251 C253 1.392 1_545 S
C251 H258 0.930 . S
N252 C249 1.329 1_565 S
N252 C253 1.331 . S
C253 C251 1.392 1_565 S
C253 N252 1.331 . S
O254 Zn247 1.975 . S
O254 C255 1.252 . S
C255 O254 1.252 . S
C255 O256 1.252 . S
O256 Zn238 1.975 . S
O256 C255 1.252 . S
H257 C250 0.930 . S
H258 C251 0.930 . S
C259 C260 1.392 . S
C259 N263 1.328 . S
C259 H265 0.930 . S
C260 C259 1.392 . S
C260 N264 1.331 . S
C261 C262 1.391 . S
C261 N264 1.329 . S
C261 H271 0.930 . S
C262 C261 1.391 . S
C262 N263 1.334 . S
C262 H269 0.930 . S
N263 Zn247 2.119 . S
N263 C259 1.328 . S
N263 C262 1.334 . S
N264 C260 1.331 . S
N264 C261 1.329 . S
H265 C259 0.930 . S
C266 O246 1.257 . S
C266 O267 1.244 . S
O267 C266 1.244 . S
O268 C244 1.257 . S
O268 Zn247 2.019 . S
H269 C262 0.930 . S
H270 C249 0.930 1_565 S
H271 C261 0.930 . S
H272 C278 0.930 . S
H273 C282 0.930 . S
H274 C287 0.929 . S
H275 C285 0.929 . S
H276 C280 0.929 . S
H277 C286 0.929 . S
C278 H272 0.930 . S
C278 C279 1.373 . S
C278 C286 1.378 . S
C279 C278 1.373 . S
C279 C287 1.427 1_655 S
C280 H276 0.929 . S
C280 C282 1.378 . S
C280 C284 1.350 . S
C281 C284 1.463 1_655 S
C281 C286 1.350 . S
C281 N289 1.427 1_655 S
C282 H273 0.930 . S
C282 C280 1.378 . S
C282 C283 1.375 . S
C283 C282 1.375 . S
C283 C285 1.425 1_455 S
C284 C280 1.350 . S
C284 C281 1.463 1_455 S
C284 N288 1.427 1_455 S
C285 H275 0.929 . S
C285 C283 1.425 1_655 S
C285 N288 1.384 . S
C286 H277 0.929 . S
C286 C278 1.378 . S
C286 C281 1.350 . S
C287 H274 0.929 . S
C287 C279 1.427 1_455 S
C287 N289 1.384 . S
N288 C284 1.427 1_655 S
N288 C285 1.384 . S
N289 C281 1.427 1_455 S
N289 C287 1.384 . S
H290 C296 0.930 . S
H291 C300 0.930 . S
H292 C305 0.929 . S
H293 C303 0.929 . S
H294 C298 0.929 . S
H295 C304 0.929 . S
C296 H290 0.930 . S
C296 C297 1.367 . S
C296 C304 1.378 . S
C297 C296 1.367 . S
C297 C305 1.433 . S
C298 H294 0.929 . S
C298 C300 1.378 . S
C298 C302 1.350 . S
C299 C302 1.463 . S
C299 C304 1.350 . S
C299 N307 1.427 . S
C300 H291 0.930 . S
C300 C298 1.378 . S
C300 C301 1.367 . S
C301 C300 1.367 . S
C301 C303 1.433 . S
C302 C298 1.350 . S
C302 C299 1.463 . S
C302 N306 1.427 . S
C303 H293 0.929 . S
C303 C301 1.433 . S
C303 N306 1.384 . S
C304 H295 0.929 . S
C304 C296 1.378 . S
C304 C299 1.350 . S
C305 H292 0.929 . S
C305 C297 1.433 . S
C305 N307 1.384 . S
N306 C302 1.427 . S
N306 C303 1.384 . S
N307 C299 1.427 . S
N307 C305 1.384 . S
H308 C314 0.930 . S
H309 C318 0.930 . S
H310 C323 0.929 . S
H311 C321 0.929 . S
H312 C316 0.929 . S
H313 C322 0.929 . S
C314 H308 0.930 . S
C314 C315 1.367 . S
C314 C322 1.378 . S
C315 C314 1.367 . S
C315 C323 1.433 . S
C316 H312 0.929 . S
C316 C318 1.378 . S
C316 C320 1.350 . S
C317 C320 1.463 . S
C317 C322 1.350 . S
C317 N325 1.427 . S
C318 H309 0.930 . S
C318 C316 1.378 . S
C318 C319 1.367 . S
C319 C318 1.367 . S
C319 C321 1.433 . S
C320 C316 1.350 . S
C320 C317 1.463 . S
C320 N324 1.427 . S
C321 H311 0.929 . S
C321 C319 1.433 . S
C321 N324 1.384 . S
C322 H313 0.929 . S
C322 C314 1.378 . S
C322 C317 1.350 . S
C323 H310 0.929 . S
C323 C315 1.433 . S
C323 N325 1.384 . S
N324 C320 1.427 . S
N324 C321 1.384 . S
N325 C317 1.427 . S
N325 C323 1.384 . S
H326 C332 0.930 . S
H327 C336 0.930 . S
H328 C341 0.929 . S
H329 C339 0.929 . S
H330 C334 0.929 . S
H331 C340 0.929 . S
C332 H326 0.930 . S
C332 C333 1.374 . S
C332 C340 1.378 . S
C333 C332 1.374 . S
C333 C341 1.426 1_655 S
C334 H330 0.929 . S
C334 C336 1.378 . S
C334 C338 1.350 . S
C335 C338 1.463 1_655 S
C335 C340 1.350 . S
C335 N343 1.427 1_655 S
C336 H327 0.930 . S
C336 C334 1.378 . S
C336 C337 1.367 . S
C337 C336 1.367 . S
C337 C339 1.433 1_455 S
C338 C334 1.350 . S
C338 C335 1.463 1_455 S
C338 N342 1.427 1_455 S
C339 H329 0.929 . S
C339 C337 1.433 1_655 S
C339 N342 1.384 . S
C340 H331 0.929 . S
C340 C332 1.378 . S
C340 C335 1.350 . S
C341 H328 0.929 . S
C341 C333 1.426 1_455 S
C341 N343 1.384 . S
N342 C338 1.427 1_655 S
N342 C339 1.384 . S
N343 C335 1.427 1_455 S
N343 C341 1.384 . S
H344 C350 0.930 1_455 S
H345 C354 0.930 . S
H346 C359 0.929 . S
H347 C357 0.929 1_455 S
H348 C352 0.929 . S
H349 C358 0.929 1_455 S
C350 H344 0.930 1_655 S
C350 C351 1.367 . S
C350 C358 1.378 . S
C351 C350 1.367 . S
C351 C359 1.433 . S
C352 H348 0.929 . S
C352 C354 1.378 . S
C352 C356 1.350 . S
C353 C356 1.463 1_556 S
C353 C358 1.350 . S
C353 N361 1.427 . S
C354 H345 0.930 . S
C354 C352 1.378 . S
C354 C355 1.367 . S
C355 C354 1.367 . S
C355 C357 1.433 . S
C356 C352 1.350 . S
C356 C353 1.463 1_554 S
C356 N360 1.427 . S
C357 H347 0.929 1_655 S
C357 C355 1.433 . S
C357 N360 1.384 . S
C358 H349 0.929 1_655 S
C358 C350 1.378 . S
C358 C353 1.350 . S
C359 H346 0.929 . S
C359 C351 1.433 . S
C359 N361 1.384 . S
N360 C356 1.427 . S
N360 C357 1.384 . S
N361 C353 1.427 . S
N361 C359 1.384 . S
H362 C368 0.930 . S
H363 C372 0.930 . S
H364 C377 0.929 . S
H365 C375 0.929 . S
H366 C370 0.929 . S
H367 C376 0.929 . S
C368 H362 0.930 . S
C368 C369 1.367 . S
C368 C376 1.378 . S
C369 C368 1.367 . S
C369 C377 1.433 . S
C370 H366 0.929 . S
C370 C372 1.378 . S
C370 C374 1.350 . S
C371 C374 1.463 . S
C371 C376 1.350 . S
C371 N379 1.427 . S
C372 H363 0.930 . S
C372 C370 1.378 . S
C372 C373 1.367 . S
C373 C372 1.367 . S
C373 C375 1.433 . S
C374 C370 1.350 . S
C374 C371 1.463 . S
C374 N378 1.427 . S
C375 H365 0.929 . S
C375 C373 1.433 . S
C375 N378 1.384 . S
C376 H367 0.929 . S
C376 C368 1.378 . S
C376 C371 1.350 . S
C377 H364 0.929 . S
C377 C369 1.433 . S
C377 N379 1.384 . S
N378 C374 1.427 . S
N378 C375 1.384 . S
N379 C371 1.427 . S
N379 C377 1.384 . S
H380 C386 0.930 . S
H381 C390 0.930 . S
H382 C395 0.929 . S
H383 C393 0.929 . S
H384 C388 0.929 . S
H385 C394 0.929 . S
C386 H380 0.930 . S
C386 C387 1.367 . S
C386 C394 1.378 . S
C387 C386 1.367 . S
C387 C395 1.433 . S
C388 H384 0.929 . S
C388 C390 1.378 . S
C388 C392 1.350 . S
C389 C392 1.463 . S
C389 C394 1.350 . S
C389 N397 1.427 . S
C390 H381 0.930 . S
C390 C388 1.378 . S
C390 C391 1.367 . S
C391 C390 1.367 . S
C391 C393 1.433 . S
C392 C388 1.350 . S
C392 C389 1.463 . S
C392 N396 1.427 . S
C393 H383 0.929 . S
C393 C391 1.433 . S
C393 N396 1.384 . S
C394 H385 0.929 . S
C394 C386 1.378 . S
C394 C389 1.350 . S
C395 H382 0.929 . S
C395 C387 1.433 . S
C395 N397 1.384 . S
N396 C392 1.427 . S
N396 C393 1.384 . S
N397 C389 1.427 . S
N397 C395 1.384 . S
H398 C404 0.930 . S
H399 C408 0.930 . S
H400 C413 0.929 . S
H401 C411 0.929 . S
H402 C406 0.929 . S
H403 C412 0.929 . S
C404 H398 0.930 . S
C404 C405 1.367 . S
C404 C412 1.378 . S
C405 C404 1.367 . S
C405 C413 1.433 . S
C406 H402 0.929 . S
C406 C408 1.378 . S
C406 C410 1.350 . S
C407 C410 1.463 . S
C407 C412 1.350 . S
C407 N415 1.427 . S
C408 H399 0.930 . S
C408 C406 1.378 . S
C408 C409 1.367 . S
C409 C408 1.367 . S
C409 C411 1.433 . S
C410 C406 1.350 . S
C410 C407 1.463 . S
C410 N414 1.427 . S
C411 H401 0.929 . S
C411 C409 1.433 . S
C411 N414 1.384 . S
C412 H403 0.929 . S
C412 C404 1.378 . S
C412 C407 1.350 . S
C413 H400 0.929 . S
C413 C405 1.433 . S
C413 N415 1.384 . S
N414 C410 1.427 . S
N414 C411 1.384 . S
N415 C407 1.427 . S
N415 C413 1.384 . S
H416 C422 0.930 . S
H417 C426 0.930 . S
H418 C431 0.929 . S
H419 C429 0.929 . S
H420 C424 0.929 . S
H421 C430 0.929 . S
C422 H416 0.930 . S
C422 C423 1.367 . S
C422 C430 1.378 . S
C423 C422 1.367 . S
C423 C431 1.433 . S
C424 H420 0.929 . S
C424 C426 1.378 . S
C424 C428 1.350 . S
C425 C428 1.463 . S
C425 C430 1.350 . S
C425 N433 1.427 . S
C426 H417 0.930 . S
C426 C424 1.378 . S
C426 C427 1.367 . S
C427 C426 1.367 . S
C427 C429 1.433 . S
C428 C424 1.350 . S
C428 C425 1.463 . S
C428 N432 1.427 . S
C429 H419 0.929 . S
C429 C427 1.433 . S
C429 N432 1.384 . S
C430 H421 0.929 . S
C430 C422 1.378 . S
C430 C425 1.350 . S
C431 H418 0.929 . S
C431 C423 1.433 . S
C431 N433 1.384 . S
N432 C428 1.427 . S
N432 C429 1.384 . S
N433 C425 1.427 . S
N433 C431 1.384 . S
H434 C440 0.930 . S
H435 C444 0.930 . S
H436 C449 0.929 . S
H437 C447 0.929 . S
H438 C442 0.929 . S
H439 C448 0.929 . S
C440 H434 0.930 . S
C440 C441 1.367 . S
C440 C448 1.378 . S
C441 C440 1.367 . S
C441 C449 1.433 . S
C442 H438 0.929 . S
C442 C444 1.378 . S
C442 C446 1.350 . S
C443 C446 1.463 . S
C443 C448 1.350 . S
C443 N451 1.427 . S
C444 H435 0.930 . S
C444 C442 1.378 . S
C444 C445 1.367 . S
C445 C444 1.367 . S
C445 C447 1.433 . S
C446 C442 1.350 . S
C446 C443 1.463 . S
C446 N450 1.427 . S
C447 H437 0.929 . S
C447 C445 1.433 . S
C447 N450 1.384 . S
C448 H439 0.929 . S
C448 C440 1.378 . S
C448 C443 1.350 . S
C449 H436 0.929 . S
C449 C441 1.433 . S
C449 N451 1.384 . S
N450 C446 1.427 . S
N450 C447 1.384 . S
N451 C443 1.427 . S
N451 C449 1.384 . S
H452 C458 0.930 . S
H453 C462 0.930 . S
H454 C467 0.929 . S
H455 C465 0.929 . S
H456 C460 0.929 . S
H457 C466 0.929 . S
C458 H452 0.930 . S
C458 C459 1.367 . S
C458 C466 1.378 . S
C459 C458 1.367 . S
C459 C467 1.433 . S
C460 H456 0.929 . S
C460 C462 1.378 . S
C460 C464 1.350 . S
C461 C464 1.463 1_545 S
C461 C466 1.350 . S
C461 N469 1.427 . S
C462 H453 0.930 . S
C462 C460 1.378 . S
C462 C463 1.367 . S
C463 C462 1.367 . S
C463 C465 1.433 . S
C464 C460 1.350 . S
C464 C461 1.463 1_565 S
C464 N468 1.427 . S
C465 H455 0.929 . S
C465 C463 1.433 . S
C465 N468 1.384 . S
C466 H457 0.929 . S
C466 C458 1.378 . S
C466 C461 1.350 . S
C467 H454 0.929 . S
C467 C459 1.433 . S
C467 N469 1.384 . S
N468 C464 1.427 . S
N468 C465 1.384 . S
N469 C461 1.427 . S
N469 C467 1.384 . S
H470 C476 0.930 . S
H471 C480 0.930 . S
H472 C485 0.929 . S
H473 C483 0.929 . S
H474 C478 0.929 1_554 S
H475 C484 0.929 1_556 S
C476 H470 0.930 . S
C476 C477 1.367 1_655 S
C476 C484 1.378 . S
C477 C476 1.367 1_455 S
C477 C485 1.433 . S
C478 H474 0.929 1_556 S
C478 C480 1.378 . S
C478 C482 1.350 . S
C479 C482 1.463 1_564 S
C479 C484 1.350 1_455 S
C479 N487 1.427 . S
C480 H471 0.930 . S
C480 C478 1.378 . S
C480 C481 1.367 . S
C481 C480 1.367 . S
C481 C483 1.433 1_455 S
C482 C478 1.350 . S
C482 C479 1.463 1_546 S
C482 N486 1.427 1_455 S
C483 H473 0.929 . S
C483 C481 1.433 1_655 S
C483 N486 1.384 . S
C484 H475 0.929 1_554 S
C484 C476 1.378 . S
C484 C479 1.350 1_655 S
C485 H472 0.929 . S
C485 C477 1.433 . S
C485 N487 1.384 . S
N486 C482 1.427 1_655 S
N486 C483 1.384 . S
N487 C479 1.427 . S
N487 C485 1.384 . S
H488 C494 0.930 . S
H489 C498 0.930 . S
H490 C503 0.929 . S
H491 C501 0.929 . S
H492 C496 0.929 . S
H493 C502 0.929 . S
C494 H488 0.930 . S
C494 C495 1.367 . S
C494 C502 1.378 . S
C495 C494 1.367 . S
C495 C503 1.433 . S
C496 H492 0.929 . S
C496 C498 1.378 . S
C496 C500 1.350 . S
C497 C500 1.463 . S
C497 C502 1.350 . S
C497 N505 1.427 . S
C498 H489 0.930 . S
C498 C496 1.378 . S
C498 C499 1.367 . S
C499 C498 1.367 . S
C499 C501 1.433 . S
C500 C496 1.350 . S
C500 C497 1.463 . S
C500 N504 1.427 . S
C501 H491 0.929 . S
C501 C499 1.433 . S
C501 N504 1.384 . S
C502 H493 0.929 . S
C502 C494 1.378 . S
C502 C497 1.350 . S
C503 H490 0.929 . S
C503 C495 1.433 . S
C503 N505 1.384 . S
N504 C500 1.427 . S
N504 C501 1.384 . S
N505 C497 1.427 . S
N505 C503 1.384 . S
H506 C512 0.930 . S
H507 C516 0.930 . S
H508 C521 0.929 . S
H509 C519 0.929 . S
H510 C514 0.929 . S
H511 C520 0.929 . S
C512 H506 0.930 . S
C512 C513 1.367 . S
C512 C520 1.378 . S
C513 C512 1.367 . S
C513 C521 1.433 . S
C514 H510 0.929 . S
C514 C516 1.378 . S
C514 C518 1.350 . S
C515 C518 1.463 . S
C515 C520 1.350 . S
C515 N523 1.427 . S
C516 H507 0.930 . S
C516 C514 1.378 . S
C516 C517 1.367 . S
C517 C516 1.367 . S
C517 C519 1.433 . S
C518 C514 1.350 . S
C518 C515 1.463 . S
C518 N522 1.427 . S
C519 H509 0.929 . S
C519 C517 1.433 . S
C519 N522 1.384 . S
C520 H511 0.929 . S
C520 C512 1.378 . S
C520 C515 1.350 . S
C521 H508 0.929 . S
C521 C513 1.433 . S
C521 N523 1.384 . S
N522 C518 1.427 . S
N522 C519 1.384 . S
N523 C515 1.427 . S
N523 C521 1.384 . S
H524 C530 0.930 . S
H525 C534 0.930 . S
H526 C539 0.929 . S
H527 C537 0.929 . S
H528 C532 0.929 . S
H529 C538 0.929 . S
C530 H524 0.930 . S
C530 C531 1.367 . S
C530 C538 1.378 . S
C531 C530 1.367 . S
C531 C539 1.433 . S
C532 H528 0.929 . S
C532 C534 1.378 . S
C532 C536 1.350 . S
C533 C536 1.463 1_655 S
C533 C538 1.350 . S
C533 N541 1.427 . S
C534 H525 0.930 . S
C534 C532 1.378 . S
C534 C535 1.367 . S
C535 C534 1.367 . S
C535 C537 1.433 . S
C536 C532 1.350 . S
C536 C533 1.463 1_455 S
C536 N540 1.427 . S
C537 H527 0.929 . S
C537 C535 1.433 . S
C537 N540 1.384 . S
C538 H529 0.929 . S
C538 C530 1.378 . S
C538 C533 1.350 . S
C539 H526 0.929 . S
C539 C531 1.433 . S
C539 N541 1.384 . S
N540 C536 1.427 . S
N540 C537 1.384 . S
N541 C533 1.427 . S
N541 C539 1.384 . S
H542 C548 0.930 . S
H543 C552 0.930 . S
H544 C557 0.929 . S
H545 C555 0.929 . S
H546 C550 0.929 . S
H547 C556 0.929 . S
C548 H542 0.930 . S
C548 C549 1.367 . S
C548 C556 1.378 . S
C549 C548 1.367 . S
C549 C557 1.433 . S
C550 H546 0.929 . S
C550 C552 1.378 . S
C550 C554 1.350 . S
C551 C554 1.463 1_455 S
C551 C556 1.350 . S
C551 N559 1.427 . S
C552 H543 0.930 . S
C552 C550 1.378 . S
C552 C553 1.367 . S
C553 C552 1.367 . S
C553 C555 1.433 . S
C554 C550 1.350 . S
C554 C551 1.463 1_655 S
C554 N558 1.427 . S
C555 H545 0.929 . S
C555 C553 1.433 . S
C555 N558 1.384 . S
C556 H547 0.929 . S
C556 C548 1.378 . S
C556 C551 1.350 . S
C557 H544 0.929 . S
C557 C549 1.433 . S
C557 N559 1.384 . S
N558 C554 1.427 . S
N558 C555 1.384 . S
N559 C551 1.427 . S
N559 C557 1.384 . S
H560 C566 0.930 . S
H561 C570 0.930 . S
H562 C575 0.929 . S
H563 C573 0.929 . S
H564 C568 0.929 . S
H565 C574 0.929 . S
C566 H560 0.930 . S
C566 C567 1.367 . S
C566 C574 1.378 . S
C567 C566 1.367 . S
C567 C575 1.433 . S
C568 H564 0.929 . S
C568 C570 1.378 . S
C568 C572 1.350 . S
C569 C572 1.463 . S
C569 C574 1.350 . S
C569 N577 1.427 . S
C570 H561 0.930 . S
C570 C568 1.378 . S
C570 C571 1.367 . S
C571 C570 1.367 . S
C571 C573 1.433 . S
C572 C568 1.350 . S
C572 C569 1.463 . S
C572 N576 1.427 . S
C573 H563 0.929 . S
C573 C571 1.433 . S
C573 N576 1.384 . S
C574 H565 0.929 . S
C574 C566 1.378 . S
C574 C569 1.350 . S
C575 H562 0.929 . S
C575 C567 1.433 . S
C575 N577 1.384 . S
N576 C572 1.427 . S
N576 C573 1.384 . S
N577 C569 1.427 . S
N577 C575 1.384 . S
H578 C584 0.930 . S
H579 C588 0.930 . S
H580 C593 0.929 . S
H581 C591 0.929 . S
H582 C586 0.929 . S
H583 C592 0.929 . S
C584 H578 0.930 . S
C584 C585 1.367 . S
C584 C592 1.378 . S
C585 C584 1.367 . S
C585 C593 1.433 . S
C586 H582 0.929 . S
C586 C588 1.378 . S
C586 C590 1.350 . S
C587 C590 1.463 1_455 S
C587 C592 1.350 . S
C587 N595 1.427 . S
C588 H579 0.930 . S
C588 C586 1.378 . S
C588 C589 1.367 . S
C589 C588 1.367 . S
C589 C591 1.433 . S
C590 C586 1.350 . S
C590 C587 1.463 1_655 S
C590 N594 1.427 . S
C591 H581 0.929 . S
C591 C589 1.433 . S
C591 N594 1.384 . S
C592 H583 0.929 . S
C592 C584 1.378 . S
C592 C587 1.350 . S
C593 H580 0.929 . S
C593 C585 1.433 . S
C593 N595 1.384 . S
N594 C590 1.427 . S
N594 C591 1.384 . S
N595 C587 1.427 . S
N595 C593 1.384 . S
H596 C602 0.930 . S
H597 C606 0.930 . S
H598 C611 0.929 . S
H599 C609 0.929 . S
H600 C604 0.929 . S
H601 C610 0.929 . S
C602 H596 0.930 . S
C602 C603 1.367 . S
C602 C610 1.378 . S
C603 C602 1.367 . S
C603 C611 1.433 . S
C604 H600 0.929 . S
C604 C606 1.378 . S
C604 C608 1.350 . S
C605 C608 1.463 1_455 S
C605 C610 1.350 . S
C605 N613 1.427 . S
C606 H597 0.930 . S
C606 C604 1.378 . S
C606 C607 1.367 . S
C607 C606 1.367 . S
C607 C609 1.433 . S
C608 C604 1.350 . S
C608 C605 1.463 1_655 S
C608 N612 1.427 . S
C609 H599 0.929 . S
C609 C607 1.433 . S
C609 N612 1.384 . S
C610 H601 0.929 . S
C610 C602 1.378 . S
C610 C605 1.350 . S
C611 H598 0.929 . S
C611 C603 1.433 . S
C611 N613 1.384 . S
N612 C608 1.427 . S
N612 C609 1.384 . S
N613 C605 1.427 . S
N613 C611 1.384 . S
H614 C620 0.930 . S
H615 C624 0.930 . S
H616 C629 0.929 . S
H617 C627 0.929 . S
H618 C622 0.929 . S
H619 C628 0.929 . S
C620 H614 0.930 . S
C620 C621 1.367 . S
C620 C628 1.378 . S
C621 C620 1.367 . S
C621 C629 1.433 . S
C622 H618 0.929 . S
C622 C624 1.378 . S
C622 C626 1.350 . S
C623 C626 1.463 . S
C623 C628 1.350 . S
C623 N631 1.427 . S
C624 H615 0.930 . S
C624 C622 1.378 . S
C624 C625 1.367 . S
C625 C624 1.367 . S
C625 C627 1.433 . S
C626 C622 1.350 . S
C626 C623 1.463 . S
C626 N630 1.427 . S
C627 H617 0.929 . S
C627 C625 1.433 . S
C627 N630 1.384 . S
C628 H619 0.929 . S
C628 C620 1.378 . S
C628 C623 1.350 . S
C629 H616 0.929 . S
C629 C621 1.433 . S
C629 N631 1.384 . S
N630 C626 1.427 . S
N630 C627 1.384 . S
N631 C623 1.427 . S
N631 C629 1.384 . S
H632 C638 0.930 . S
H633 C642 0.930 . S
H634 C647 0.929 . S
H635 C645 0.929 . S
H636 C640 0.929 . S
H637 C646 0.929 . S
C638 H632 0.930 . S
C638 C639 1.367 1_455 S
C638 C646 1.378 . S
C639 C638 1.367 1_655 S
C639 C647 1.433 . S
C640 H636 0.929 . S
C640 C642 1.378 . S
C640 C644 1.350 1_655 S
C641 C644 1.463 1_655 S
C641 C646 1.350 1_655 S
C641 N649 1.427 . S
C642 H633 0.930 . S
C642 C640 1.378 . S
C642 C643 1.367 1_655 S
C643 C642 1.367 1_455 S
C643 C645 1.433 . S
C644 C640 1.350 1_455 S
C644 C641 1.463 1_455 S
C644 N648 1.427 . S
C645 H635 0.929 . S
C645 C643 1.433 . S
C645 N648 1.384 . S
C646 H637 0.929 . S
C646 C638 1.378 . S
C646 C641 1.350 1_455 S
C647 H634 0.929 . S
C647 C639 1.433 . S
C647 N649 1.384 . S
N648 C644 1.427 . S
N648 C645 1.384 . S
N649 C641 1.427 . S
N649 C647 1.384 . S
H650 C656 0.930 . S
H651 C660 0.930 . S
H652 C665 0.929 . S
H653 C663 0.929 . S
H654 C658 0.929 . S
H655 C664 0.929 . S
C656 H650 0.930 . S
C656 C657 1.367 . S
C656 C664 1.378 . S
C657 C656 1.367 . S
C657 C665 1.433 . S
C658 H654 0.929 . S
C658 C660 1.378 . S
C658 C662 1.350 . S
C659 C662 1.463 1_655 S
C659 C664 1.350 . S
C659 N667 1.427 . S
C660 H651 0.930 . S
C660 C658 1.378 . S
C660 C661 1.367 . S
C661 C660 1.367 . S
C661 C663 1.433 . S
C662 C658 1.350 . S
C662 C659 1.463 1_455 S
C662 N666 1.427 . S
C663 H653 0.929 . S
C663 C661 1.433 . S
C663 N666 1.384 . S
C664 H655 0.929 . S
C664 C656 1.378 . S
C664 C659 1.350 . S
C665 H652 0.929 . S
C665 C657 1.433 . S
C665 N667 1.384 . S
N666 C662 1.427 . S
N666 C663 1.384 . S
N667 C659 1.427 . S
N667 C665 1.384 . S
H668 C674 0.930 . S
H669 C678 0.930 . S
H670 C683 0.929 . S
H671 C681 0.929 . S
H672 C676 0.929 . S
H673 C682 0.929 . S
C674 H668 0.930 . S
C674 C675 1.367 . S
C674 C682 1.378 . S
C675 C674 1.367 . S
C675 C683 1.433 . S
C676 H672 0.929 . S
C676 C678 1.378 . S
C676 C680 1.350 . S
C677 C680 1.463 . S
C677 C682 1.350 . S
C677 N685 1.427 . S
C678 H669 0.930 . S
C678 C676 1.378 . S
C678 C679 1.367 . S
C679 C678 1.367 . S
C679 C681 1.433 . S
C680 C676 1.350 . S
C680 C677 1.463 . S
C680 N684 1.427 . S
C681 H671 0.929 . S
C681 C679 1.433 . S
C681 N684 1.384 . S
C682 H673 0.929 . S
C682 C674 1.378 . S
C682 C677 1.350 . S
C683 H670 0.929 . S
C683 C675 1.433 . S
C683 N685 1.384 . S
N684 C680 1.427 . S
N684 C681 1.384 . S
N685 C677 1.427 . S
N685 C683 1.384 . S
H686 C692 0.930 . S
H687 C696 0.930 . S
H688 C701 0.929 . S
H689 C699 0.929 . S
H690 C694 0.929 . S
H691 C700 0.929 . S
C692 H686 0.930 . S
C692 C693 1.367 . S
C692 C700 1.378 . S
C693 C692 1.367 . S
C693 C701 1.433 . S
C694 H690 0.929 . S
C694 C696 1.378 . S
C694 C698 1.350 . S
C695 C698 1.463 . S
C695 C700 1.350 . S
C695 N703 1.427 . S
C696 H687 0.930 . S
C696 C694 1.378 . S
C696 C697 1.367 . S
C697 C696 1.367 . S
C697 C699 1.433 . S
C698 C694 1.350 . S
C698 C695 1.463 . S
C698 N702 1.427 . S
C699 H689 0.929 . S
C699 C697 1.433 . S
C699 N702 1.384 . S
C700 H691 0.929 . S
C700 C692 1.378 . S
C700 C695 1.350 . S
C701 H688 0.929 . S
C701 C693 1.433 . S
C701 N703 1.384 . S
N702 C698 1.427 . S
N702 C699 1.384 . S
N703 C695 1.427 . S
N703 C701 1.384 . S
H704 C710 0.930 . S
H705 C714 0.930 . S
H706 C719 0.929 . S
H707 C717 0.929 . S
H708 C712 0.929 . S
H709 C718 0.929 . S
C710 H704 0.930 . S
C710 C711 1.367 . S
C710 C718 1.378 . S
C711 C710 1.367 . S
C711 C719 1.433 . S
C712 H708 0.929 . S
C712 C714 1.378 . S
C712 C716 1.350 . S
C713 C716 1.463 1_455 S
C713 C718 1.350 . S
C713 N721 1.427 . S
C714 H705 0.930 . S
C714 C712 1.378 . S
C714 C715 1.367 . S
C715 C714 1.367 . S
C715 C717 1.433 . S
C716 C712 1.350 . S
C716 C713 1.463 1_655 S
C716 N720 1.427 . S
C717 H707 0.929 . S
C717 C715 1.433 . S
C717 N720 1.384 . S
C718 H709 0.929 . S
C718 C710 1.378 . S
C718 C713 1.350 . S
C719 H706 0.929 . S
C719 C711 1.433 . S
C719 N721 1.384 . S
N720 C716 1.427 . S
N720 C717 1.384 . S
N721 C713 1.427 . S
N721 C719 1.384 . S
H722 C728 0.930 . S
H723 C732 0.930 . S
H724 C737 0.929 . S
H725 C735 0.929 . S
H726 C730 0.929 . S
H727 C736 0.929 . S
C728 H722 0.930 . S
C728 C729 1.367 . S
C728 C736 1.378 . S
C729 C728 1.367 . S
C729 C737 1.433 . S
C730 H726 0.929 . S
C730 C732 1.378 . S
C730 C734 1.350 . S
C731 C734 1.463 . S
C731 C736 1.350 . S
C731 N739 1.427 . S
C732 H723 0.930 . S
C732 C730 1.378 . S
C732 C733 1.367 . S
C733 C732 1.367 . S
C733 C735 1.433 . S
C734 C730 1.350 . S
C734 C731 1.463 . S
C734 N738 1.427 . S
C735 H725 0.929 . S
C735 C733 1.433 . S
C735 N738 1.384 . S
C736 H727 0.929 . S
C736 C728 1.378 . S
C736 C731 1.350 . S
C737 H724 0.929 . S
C737 C729 1.433 . S
C737 N739 1.384 . S
N738 C734 1.427 . S
N738 C735 1.384 . S
N739 C731 1.427 . S
N739 C737 1.384 . S
H740 C746 0.930 . S
H741 C750 0.930 . S
H742 C755 0.929 . S
H743 C753 0.929 . S
H744 C748 0.929 . S
H745 C754 0.929 . S
C746 H740 0.930 . S
C746 C747 1.367 . S
C746 C754 1.378 . S
C747 C746 1.367 . S
C747 C755 1.433 . S
C748 H744 0.929 . S
C748 C750 1.378 . S
C748 C752 1.350 . S
C749 C752 1.463 . S
C749 C754 1.350 . S
C749 N757 1.427 . S
C750 H741 0.930 . S
C750 C748 1.378 . S
C750 C751 1.367 . S
C751 C750 1.367 . S
C751 C753 1.433 . S
C752 C748 1.350 . S
C752 C749 1.463 . S
C752 N756 1.427 . S
C753 H743 0.929 . S
C753 C751 1.433 . S
C753 N756 1.384 . S
C754 H745 0.929 . S
C754 C746 1.378 . S
C754 C749 1.350 . S
C755 H742 0.929 . S
C755 C747 1.433 . S
C755 N757 1.384 . S
N756 C752 1.427 . S
N756 C753 1.384 . S
N757 C749 1.427 . S
N757 C755 1.384 . S
H758 C764 0.930 . S
H759 C768 0.930 . S
H760 C773 0.929 . S
H761 C771 0.929 . S
H762 C766 0.929 . S
H763 C772 0.929 . S
C764 H758 0.930 . S
C764 C765 1.367 . S
C764 C772 1.378 . S
C765 C764 1.367 . S
C765 C773 1.433 . S
C766 H762 0.929 . S
C766 C768 1.378 . S
C766 C770 1.350 . S
C767 C770 1.463 1_655 S
C767 C772 1.350 . S
C767 N775 1.427 . S
C768 H759 0.930 . S
C768 C766 1.378 . S
C768 C769 1.367 . S
C769 C768 1.367 . S
C769 C771 1.433 . S
C770 C766 1.350 . S
C770 C767 1.463 1_455 S
C770 N774 1.427 . S
C771 H761 0.929 . S
C771 C769 1.433 . S
C771 N774 1.384 . S
C772 H763 0.929 . S
C772 C764 1.378 . S
C772 C767 1.350 . S
C773 H760 0.929 . S
C773 C765 1.433 . S
C773 N775 1.384 . S
N774 C770 1.427 . S
N774 C771 1.384 . S
N775 C767 1.427 . S
N775 C773 1.384 . S
C279 C187 1.549 1_655 S
C283 C17 1.549 . S
C297 C51 1.549 . S
C301 C221 1.549 . S
C315 C85 1.549 . S
C319 C255 1.549 . S
C333 C153 1.549 1_655 S
C337 C119 1.549 . S
C351 C139 1.906 . S
C355 C1 1.912 . S
C369 C35 1.901 . S
C373 C173 1.902 . S
C387 C71 1.911 . S
C391 C205 1.908 . S
C405 C105 1.906 . S
C409 C239 1.913 . S
C423 C103 1.905 . S
C427 C241 1.910 . S
C441 C37 1.912 . S
C445 C171 1.902 . S
C459 C69 1.898 . S
C463 C207 1.904 . S
C477 C3 1.898 . S
C481 C137 1.906 . S
C495 C15 1.135 . S
C499 C22 1.134 . S
C513 C49 1.164 . S
C517 C56 1.164 . S
C531 C83 1.159 . S
C535 C90 1.160 . S
C549 C124 1.149 . S
C553 C117 1.148 . S
C567 C158 1.154 . S
C571 C151 1.155 . S
C585 C192 1.153 . S
C589 C185 1.154 . S
C603 C219 1.144 . S
C607 C226 1.145 . S
C621 C260 1.136 . S
C625 C253 1.136 . S
C639 C6 1.907 . S
C643 C28 1.909 1_545 S
C657 C40 1.908 . S
C661 C62 1.910 . S
C675 C96 1.907 . S
C679 C74 1.908 1_565 S
C693 C130 1.907 . S
C697 C108 1.910 . S
C711 C142 1.911 1_565 S
C715 C164 1.908 . S
C729 C176 1.910 . S
C733 C198 1.911 . S
C747 C210 1.907 . S
C751 C232 1.909 1_545 S
C765 C244 1.911 . S
C769 C266 1.911 . S
