# Generated by pormake.
# Topology zfs, (5)-cn, num edge types: 1
# Building blocks:
#     Node 0, Type 0, BuildingBlock: XOMCOT_clean_sbu_0, # of connection points: 5
#     Node 1, Type 0, BuildingBlock: XOMCOT_clean_sbu_0, # of connection points: 5
#     Node 2, Type 0, BuildingBlock: XOMCOT_clean_sbu_0, # of connection points: 5
#     Node 3, Type 0, BuildingBlock: XOMCOT_clean_sbu_0, # of connection points: 5
#     Node 4, Type 0, BuildingBlock: XOMCOT_clean_sbu_0, # of connection points: 5
#     Node 5, Type 0, BuildingBlock: XOMCOT_clean_sbu_0, # of connection points: 5
#     Node 6, Type 0, BuildingBlock: XOMCOT_clean_sbu_0, # of connection points: 5
#     Node 7, Type 0, BuildingBlock: XOMCOT_clean_sbu_0, # of connection points: 5
#     Edge 8, Type (0, 0), BuildingBlock: MIFKUJ_clean_linker_0, # of connection points: 2
#     Edge 9, Type (0, 0), BuildingBlock: MIFKUJ_clean_linker_0, # of connection points: 2
#     Edge 10, Type (0, 0), BuildingBlock: MIFKUJ_clean_linker_0, # of connection points: 2
#     Edge 11, Type (0, 0), BuildingBlock: MIFKUJ_clean_linker_0, # of connection points: 2
#     Edge 12, Type (0, 0), BuildingBlock: MIFKUJ_clean_linker_0, # of connection points: 2
#     Edge 13, Type (0, 0), BuildingBlock: MIFKUJ_clean_linker_0, # of connection points: 2
#     Edge 14, Type (0, 0), BuildingBlock: MIFKUJ_clean_linker_0, # of connection points: 2
#     Edge 15, Type (0, 0), BuildingBlock: MIFKUJ_clean_linker_0, # of connection points: 2
#     Edge 16, Type (0, 0), BuildingBlock: MIFKUJ_clean_linker_0, # of connection points: 2
#     Edge 17, Type (0, 0), BuildingBlock: MIFKUJ_clean_linker_0, # of connection points: 2
#     Edge 18, Type (0, 0), BuildingBlock: MIFKUJ_clean_linker_0, # of connection points: 2
#     Edge 19, Type (0, 0), BuildingBlock: MIFKUJ_clean_linker_0, # of connection points: 2
#     Edge 20, Type (0, 0), BuildingBlock: MIFKUJ_clean_linker_0, # of connection points: 2
#     Edge 21, Type (0, 0), BuildingBlock: MIFKUJ_clean_linker_0, # of connection points: 2
#     Edge 22, Type (0, 0), BuildingBlock: MIFKUJ_clean_linker_0, # of connection points: 2
#     Edge 23, Type (0, 0), BuildingBlock: MIFKUJ_clean_linker_0, # of connection points: 2
#     Edge 24, Type (0, 0), BuildingBlock: MIFKUJ_clean_linker_0, # of connection points: 2
#     Edge 25, Type (0, 0), BuildingBlock: MIFKUJ_clean_linker_0, # of connection points: 2
#     Edge 26, Type (0, 0), BuildingBlock: MIFKUJ_clean_linker_0, # of connection points: 2
#     Edge 27, Type (0, 0), BuildingBlock: MIFKUJ_clean_linker_0, # of connection points: 2
# Relax obj value: 0.120
# Max RMSD: 0.155
# Mean RMSD: 0.155
data_MOF--net-zfs--node1-XOMCOT_clean_sbu_0--edge1-MIFKUJ_clean_linker_0
_symmetry_space_group_name_H-M    P1
_symmetry_Int_Tables_number       1
_symmetry_cell_setting            triclinic
loop_
_symmetry_equiv_pos_as_xyz
'x, y, z'
_cell_length_a     44.051592
_cell_length_b     44.150045
_cell_length_c     50.746941
_cell_angle_alpha  89.999437
_cell_angle_beta   89.870076
_cell_angle_gamma 89.925474
loop_
_atom_site_label
_atom_site_type_symbol
_atom_site_fract_x
_atom_site_fract_y
_atom_site_fract_z
_atom_type_partial_charge
Co0 Co 0.02317 0.23926 0.20597 0.0
C1 C 0.99315 0.24615 0.15444 0.0
C2 C 0.96945 0.21461 0.17887 0.0
C3 C 0.95766 0.21298 0.1538 0.0
N4 N 0.99144 0.2359 0.1795 0.0
N5 N 0.97279 0.23274 0.13842 0.0
H6 H 0.01147 0.25998 0.14709 0.0
H7 H 0.96432 0.19905 0.1947 0.0
C8 C 0.96693 0.23228 0.23944 0.0
O9 O 0.95359 0.25312 0.22503 0.0
N10 N 0.05512 0.2417 0.23155 0.0
C11 C 0.07644 0.26339 0.23329 0.0
C12 C 0.09588 0.256 0.25346 0.0
C13 C 0.0619 0.22127 0.25029 0.0
N14 N 0.08679 0.22943 0.26409 0.0
C15 C 0.0171 0.30295 0.19323 0.0
C16 C 1.00559 0.32253 0.24401 0.0
C17 C 1.0084 0.34424 0.22397 0.0
C18 C 0.01396 0.334 0.19825 0.0
C19 C 1.0085 0.29166 0.23808 0.0
N20 N 0.01375 0.28201 0.21284 0.0
H21 H 0.02382 0.29607 0.17377 0.0
H22 H 1.00788 0.27561 0.25413 0.0
H23 H 0.07783 0.28308 0.22067 0.0
H24 H 0.04928 0.20052 0.25317 0.0
O25 O 0.05349 0.24352 0.17822 0.0
O26 O 0.0379 0.19995 0.19499 0.0
O27 O 0.99446 0.22479 0.23465 0.0
C28 C 0.05522 0.21404 0.17823 0.0
H29 H 0.94093 0.19685 0.14704 0.0
H30 H 0.11512 0.26932 0.25978 0.0
H31 H 1.00162 0.32933 0.26423 0.0
H32 H 0.01731 0.34994 0.18228 0.0
Co33 Co 0.77316 0.02993 0.46041 0.0
C34 C 0.77033 1.00614 0.40645 0.0
C35 C 0.80091 0.98014 0.43 0.0
C36 C 0.80493 0.97198 0.40401 0.0
N37 N 0.77876 1.0013 0.43168 0.0
N38 N 0.78594 0.98876 0.38932 0.0
H39 H 0.75571 0.0244 0.4002 0.0
H40 H 0.81577 0.97362 0.44593 0.0
C41 C 0.78168 0.97096 0.48989 0.0
O42 O 0.7615 0.95801 0.47455 0.0
N43 N 0.76852 0.05881 0.48834 0.0
C44 C 0.74678 0.08013 0.49057 0.0
C45 C 0.75346 0.0981 0.51194 0.0
C46 C 0.78809 0.06395 0.50811 0.0
N47 N 0.77943 0.08786 0.52286 0.0
C48 C 0.71029 0.02553 0.44551 0.0
C49 C 0.68865 1.00522 0.49354 0.0
C50 C 0.66778 0.01235 0.47368 0.0
C51 C 0.67897 0.02253 0.4494 0.0
C52 C 0.7198 0.00921 0.48903 0.0
N53 N 0.73046 0.01868 0.46504 0.0
H54 H 0.71806 0.03505 0.4272 0.0
H55 H 0.73514 1.00612 0.50536 0.0
H56 H 0.72789 0.08286 0.4772 0.0
H57 H 0.80891 0.05131 0.51087 0.0
O58 O 0.76869 0.06259 0.43499 0.0
O59 O 0.81234 0.04708 0.45175 0.0
O60 O 0.7879 0.99905 0.48702 0.0
C61 C 0.79812 0.0652 0.43576 0.0
H62 H 0.82272 0.95753 0.3963 0.0
H63 H 0.74045 0.11742 0.5187 0.0
H64 H 0.68088 0.99813 0.51284 0.0
H65 H 0.66356 0.02875 0.43369 0.0
Co66 Co 0.99483 0.77663 0.70349 0.0
C67 C 0.02622 0.77156 0.65213 0.0
C68 C 0.05031 0.80066 0.6784 0.0
C69 C 0.06329 0.8029 0.6538 0.0
N70 N 0.02736 0.78042 0.67763 0.0
N71 N 0.0479 0.78476 0.6372 0.0
H72 H 1.00773 0.75868 0.64388 0.0
H73 H 0.05556 0.81521 0.69487 0.0
C74 C 0.04952 0.78279 0.73869 0.0
O75 O 0.06295 0.76133 0.72499 0.0
N76 N 0.96218 0.77402 0.72855 0.0
C77 C 0.94072 0.75243 0.73002 0.0
C78 C 0.9207 0.76009 0.74978 0.0
C79 C 0.95491 0.79464 0.74701 0.0
N80 N 0.92959 0.78672 0.7604 0.0
C81 C 1.00343 0.71339 0.69045 0.0
C82 C 0.01045 0.69327 0.74166 0.0
C83 C 0.00969 0.67182 0.7213 0.0
C84 C 1.00648 0.68231 0.69537 0.0
C85 C 1.00765 0.72414 0.73587 0.0
N86 N 1.00445 0.73404 0.71046 0.0
H87 H 0.99875 0.72053 0.67063 0.0
H88 H 1.00677 0.74003 0.75204 0.0
H89 H 0.93961 0.73266 0.71747 0.0
H90 H 0.96745 0.81542 0.7499 0.0
O91 O 0.96539 0.77181 0.67534 0.0
O92 O 0.97987 0.81574 0.69217 0.0
O93 O 0.02258 0.79118 0.73273 0.0
C94 C 0.96312 0.80124 0.67527 0.0
H95 H 0.08124 0.81836 0.64828 0.0
H96 H 0.90116 0.74697 0.75579 0.0
H97 H 0.01272 0.68626 0.76202 0.0
H98 H 1.00492 0.66655 0.67907 0.0
Co99 Co 0.24322 0.98574 0.96016 0.0
C100 C 0.25078 0.01295 0.90803 0.0
C101 C 0.21822 0.03765 0.93074 0.0
C102 C 0.21629 0.04706 0.90486 0.0
N103 N 0.24015 0.01635 0.93281 0.0
N104 N 0.23655 0.03107 0.89068 0.0
H105 H 0.26559 0.9948 0.90189 0.0
H106 H 0.20218 0.04333 0.94612 0.0
C107 C 0.2361 0.04337 0.99186 0.0
O108 O 0.25657 0.05655 0.9769 0.0
N109 N 0.24582 0.95489 0.98667 0.0
C110 C 0.26659 0.93255 0.98779 0.0
C111 C 0.26049 0.91491 0.00948 0.0
C112 C 0.22725 0.9506 0.0074 0.0
N113 N 0.23576 0.9263 0.02177 0.0
C114 C 0.30683 0.98728 0.94698 0.0
C115 C 0.32748 1.00714 0.99531 0.0
C116 C 0.34895 1.00043 0.97562 0.0
C117 C 0.33804 0.9902 0.95122 0.0
C118 C 0.29643 1.0034 0.99036 0.0
N119 N 0.28624 0.99462 0.9661 0.0
H120 H 0.29948 0.97745 0.9287 0.0
H121 H 0.28077 1.00658 0.00649 0.0
H122 H 0.28472 0.92921 0.97367 0.0
H123 H 0.20803 0.96502 0.01185 0.0
O124 O 0.2468 0.95454 0.9332 0.0
O125 O 0.2035 0.97114 0.94995 0.0
O126 O 0.22913 0.01562 0.98796 0.0
C127 C 0.21726 0.95342 0.93328 0.0
H128 H 0.19892 0.06162 0.89664 0.0
H129 H 0.27289 0.89485 0.01535 0.0
H130 H 0.33445 0.01485 0.01461 0.0
H131 H 0.35344 0.98327 0.9357 0.0
Co132 Co 0.02533 0.77169 0.29543 0.0
C133 C 0.99659 0.76834 0.34754 0.0
C134 C 0.97587 0.80193 0.32317 0.0
C135 C 0.96796 0.8076 0.34896 0.0
N136 N 0.99408 0.77728 0.32213 0.0
N137 N 0.98111 0.78642 0.36417 0.0
H138 H 0.01355 0.75266 0.35451 0.0
H139 H 0.97241 0.81754 0.30704 0.0
C140 C 0.96877 0.78027 0.26301 0.0
O141 O 0.95471 0.76094 0.27849 0.0
N142 N 0.05685 0.76738 0.26956 0.0
C143 C 0.07844 0.7458 0.26859 0.0
C144 C 0.09813 0.75265 0.24835 0.0
C145 C 0.06359 0.78708 0.25023 0.0
N146 N 0.08875 0.77863 0.23691 0.0
C147 C 0.01826 0.70861 0.3096 0.0
C148 C 1.0052 0.68792 0.25952 0.0
C149 C 1.00872 0.66653 0.27979 0.0
C150 C 0.01494 0.67747 0.3052 0.0
C151 C 1.0084 0.71891 0.26483 0.0
N152 N 0.01453 0.7291 0.28973 0.0
H153 H 0.02546 0.71587 0.32878 0.0
H154 H 1.0076 0.73455 0.24849 0.0
H155 H 0.08003 0.72679 0.28196 0.0
H156 H 0.051 0.80775 0.24673 0.0
O157 O 0.05557 0.7673 0.32309 0.0
O158 O 0.0415 0.81079 0.30517 0.0
O159 O 0.99681 0.78624 0.26682 0.0
C160 C 0.05807 0.79671 0.32245 0.0
H161 H 0.95668 0.82774 0.35625 0.0
H162 H 0.11789 0.73961 0.24263 0.0
H163 H 1.0014 0.68083 0.23938 0.0
H164 H 0.01792 0.66212 0.32162 0.0
Co165 Co 0.23937 0.02598 0.54421 0.0
C166 C 0.25237 0.99632 0.59457 0.0
C167 C 0.21346 0.97693 0.57597 0.0
C168 C 0.21471 0.96661 0.60156 0.0
N169 N 0.23729 0.99544 0.57151 0.0
N170 N 0.23894 0.97931 0.61332 0.0
H171 H 0.27071 0.01173 0.59858 0.0
H172 H 0.19469 0.97377 0.56256 0.0
C173 C 0.22857 0.96733 0.51478 0.0
O174 O 0.2472 0.9533 0.53088 0.0
N175 N 0.24104 0.05684 0.51761 0.0
C176 C 0.26058 0.08021 0.51682 0.0
C177 C 0.25411 0.09754 0.49505 0.0
C178 C 0.22287 0.06019 0.49652 0.0
N179 N 0.23043 0.08491 0.48225 0.0
C180 C 0.30346 0.02891 0.55444 0.0
C181 C 0.32325 1.00147 0.50859 0.0
C182 C 0.34487 0.01281 0.52622 0.0
C183 C 0.33459 0.02674 0.54934 0.0
C184 C 0.29218 1.00471 0.51418 0.0
N185 N 0.28246 0.01744 0.53734 0.0
H186 H 0.2964 0.04125 0.5717 0.0
H187 H 0.27626 0.99817 0.49916 0.0
H188 H 0.27806 0.08455 0.53125 0.0
H189 H 0.20458 0.04481 0.4918 0.0
O190 O 0.24332 0.05707 0.57128 0.0
O191 O 0.19975 0.0405 0.55548 0.0
O192 O 0.22454 0.99596 0.51679 0.0
C193 C 0.21382 0.05821 0.57187 0.0
H194 H 0.1972 0.95378 0.61155 0.0
H195 H 0.26555 0.11827 0.48953 0.0
H196 H 0.33026 0.99145 0.49007 0.0
H197 H 0.35052 0.03634 0.56326 0.0
Co198 Co 0.99026 0.24508 0.79525 0.0
C199 C 0.01976 0.25166 0.8469 0.0
C200 C 0.04228 0.2189 0.82275 0.0
C201 C 0.05221 0.21544 0.84828 0.0
N202 N 0.02189 0.24176 0.82174 0.0
N203 N 0.03798 0.23613 0.86332 0.0
H204 H 1.00187 0.26621 0.85408 0.0
H205 H 0.04658 0.20303 0.80696 0.0
C206 C 0.04667 0.23795 0.7619 0.0
O207 O 0.06008 0.25892 0.77608 0.0
N208 N 0.95856 0.24728 0.76948 0.0
C209 C 0.93632 0.26813 0.76792 0.0
C210 C 0.918 0.26092 0.74689 0.0
C211 C 0.95349 0.22758 0.74979 0.0
N212 N 0.92885 0.23541 0.7356 0.0
C213 C 0.99551 0.30864 0.80796 0.0
C214 C 1.00816 0.32836 0.75744 0.0
C215 C 1.00482 0.35007 0.77747 0.0
C216 C 0.99862 0.33967 0.80307 0.0
C217 C 1.00508 0.29748 0.76324 0.0
N218 N 0.99939 0.28778 0.78838 0.0
H219 H 0.98855 0.30168 0.82732 0.0
H220 H 1.00593 0.28148 0.74717 0.0
H221 H 0.93354 0.28705 0.78125 0.0
H222 H 0.96764 0.20801 0.74597 0.0
O223 O 0.95981 0.24929 0.8229 0.0
O224 O 0.97586 0.20573 0.80626 0.0
O225 O 0.01918 0.2306 0.76683 0.0
C226 C 0.95856 0.2198 0.82307 0.0
H227 H 0.0661 0.19708 0.85569 0.0
H228 H 0.89788 0.27311 0.7408 0.0
H229 H 0.01191 0.33512 0.73719 0.0
H230 H 0.99568 0.35536 0.81927 0.0
Co231 Co 0.77864 0.98699 0.0416 0.0
C232 C 0.76801 0.01378 0.0939 0.0
C233 C 0.80329 0.03697 0.0731 0.0
C234 C 0.80298 0.0471 0.09875 0.0
N235 N 0.78103 0.01633 0.06992 0.0
N236 N 0.78102 0.03213 0.11186 0.0
H237 H 0.75151 0.99675 0.09892 0.0
H238 H 0.82059 0.04209 0.05864 0.0
C239 C 0.78656 0.04655 0.01321 0.0
O240 O 0.76507 0.05861 0.02785 0.0
N241 N 0.77672 0.95754 0.01376 0.0
C242 C 0.75778 0.93371 0.01285 0.0
C243 C 0.76242 0.91862 0.98952 0.0
C244 C 0.79267 0.95676 0.99108 0.0
N245 N 0.78428 0.93317 0.97574 0.0
C246 C 0.71475 0.98604 0.05327 0.0
C247 C 0.69489 0.01056 0.00633 0.0
C248 C 0.67304 1.00135 0.02491 0.0
C249 C 0.6836 0.9887 0.04859 0.0
C250 C 0.72589 1.00685 0.0116 0.0
N251 N 0.73566 0.99586 0.03532 0.0
H252 H 0.72185 0.97444 0.07085 0.0
H253 H 0.74185 0.01189 0.99608 0.0
H254 H 0.74164 0.92779 0.02809 0.0
H255 H 0.80974 0.97329 0.98585 0.0
O256 O 0.77468 0.95469 0.06749 0.0
O257 O 0.81824 0.97196 0.05193 0.0
O258 O 0.79327 0.01849 0.01557 0.0
C259 C 0.8042 0.95356 0.06783 0.0
H260 H 0.81968 0.06185 0.10766 0.0
H261 H 0.75088 0.89816 0.98348 0.0
H262 H 0.68831 0.02019 0.98759 0.0
H263 H 0.66804 0.97969 0.06312 0.0
H264 H 0.04239 0.62091 0.30262 0.0
H265 H 0.04096 0.56685 0.29338 0.0
H266 H 0.97289 0.58189 0.23384 0.0
H267 H 0.97276 0.63596 0.24413 0.0
H268 H 0.95883 0.53327 0.25968 0.0
H269 H 0.05021 0.56802 0.21894 0.0
H270 H 0.09975 0.59376 0.21613 0.0
H271 H 0.1359 0.53391 0.27494 0.0
H272 H 0.08643 0.50805 0.27836 0.0
H273 H 0.979 0.38914 0.1966 0.0
H274 H 0.97827 0.44362 0.20603 0.0
H275 H 0.03471 0.42884 0.27413 0.0
H276 H 0.03558 0.3744 0.2648 0.0
H277 H 0.05452 0.47708 0.24287 0.0
H278 H 0.96152 0.44264 0.28277 0.0
H279 H 0.91194 0.41679 0.28351 0.0
H280 H 0.87904 0.47643 0.2231 0.0
H281 H 0.92861 0.50237 0.22174 0.0
C282 C 0.02667 0.61284 0.28785 0.0
C283 C 1.00764 0.63316 0.2742 0.0
C284 C 0.02624 0.58178 0.28227 0.0
C285 C 1.00725 0.57011 0.26251 0.0
C286 C 0.98792 0.5902 0.24907 0.0
C287 C 0.9881 0.62128 0.25483 0.0
C288 C 1.00743 0.53702 0.25602 0.0
C289 C 0.97976 0.52117 0.25562 0.0
C290 C 0.03471 0.52082 0.2511 0.0
C291 C 0.06451 0.53629 0.24909 0.0
C292 C 0.06866 0.56049 0.23142 0.0
C293 C 0.09674 0.57508 0.22969 0.0
C294 C 0.12094 0.56553 0.2454 0.0
C295 C 0.11712 0.54131 0.26282 0.0
C296 C 0.08907 0.52666 0.26464 0.0
C297 C 0.99126 0.39749 0.21358 0.0
C298 C 1.00722 0.37734 0.23001 0.0
C299 C 0.99071 0.42863 0.21902 0.0
C300 C 1.0063 0.44037 0.24089 0.0
C301 C 0.02245 0.42035 0.25719 0.0
C302 C 0.02272 0.38918 0.25194 0.0
C303 C 1.00601 0.47352 0.24665 0.0
C304 C 0.03365 0.48932 0.24688 0.0
C305 C 0.97871 0.48972 0.25109 0.0
C306 C 0.94887 0.47424 0.25196 0.0
C307 C 0.9438 0.45008 0.26948 0.0
C308 C 0.91568 0.43544 0.27005 0.0
C309 C 0.89238 0.44491 0.25331 0.0
C310 C 0.89713 0.46909 0.23603 0.0
C311 C 0.92522 0.48378 0.23537 0.0
H312 H 0.87063 0.43355 0.25378 0.0
H313 H 0.14266 0.57685 0.24403 0.0
H314 H 0.63417 0.96473 0.49233 0.0
H315 H 0.57911 0.96338 0.50074 0.0
H316 H 0.57172 0.05651 0.47611 0.0
H317 H 0.62645 0.05768 0.46691 0.0
H318 H 0.54266 0.03594 0.52948 0.0
H319 H 0.54763 0.01638 0.4351 0.0
H320 H 0.56585 0.98834 0.39612 0.0
H321 H 0.5293 0.90583 0.42774 0.0
H322 H 0.51127 0.93335 0.46713 0.0
H323 H 0.38476 0.05991 0.52545 0.0
H324 H 0.43917 0.05859 0.51606 0.0
H325 H 0.43437 0.9618 0.50472 0.0
H326 H 0.37941 0.9635 0.51272 0.0
H327 H 0.47099 0.98189 0.47071 0.0
H328 H 0.46404 0.998 0.5633 0.0
H329 H 0.44731 0.02227 0.60463 0.0
H330 H 0.48904 0.10572 0.58069 0.0
H331 H 0.50568 0.08206 0.53904 0.0
C332 C 0.62072 0.98484 0.48866 0.0
C333 C 0.63452 0.01125 0.47883 0.0
C334 C 0.58934 0.98405 0.49343 0.0
C335 C 0.57136 0.00985 0.48902 0.0
C336 C 0.58518 0.03636 0.47961 0.0
C337 C 0.61638 0.03695 0.47425 0.0
C338 C 0.53814 0.00929 0.49428 0.0
C339 C 0.52686 0.02443 0.51653 0.0
C340 C 0.51777 0.99334 0.4779 0.0
C341 C 0.52846 0.97684 0.45419 0.0
C342 C 0.54378 0.9922 0.43387 0.0
C343 C 0.554 0.97642 0.41167 0.0
C344 C 0.54883 0.9453 0.40949 0.0
C345 C 0.53334 0.92992 0.42948 0.0
C346 C 0.5231 0.9456 0.45174 0.0
C347 C 0.39536 0.03836 0.52095 0.0
C348 C 0.37791 0.01176 0.52003 0.0
C349 C 0.42657 0.03755 0.51575 0.0
C350 C 0.44136 0.00995 0.51034 0.0
C351 C 0.42375 0.9834 0.50895 0.0
C352 C 0.39233 0.98433 0.51357 0.0
C353 C 0.47501 0.00894 0.50595 0.0
C354 C 0.48655 0.99339 0.48386 0.0
C355 C 0.49574 0.02401 0.52287 0.0
C356 C 0.48587 0.03832 0.54794 0.0
C357 C 0.46947 0.02158 0.56677 0.0
C358 C 0.46003 0.03522 0.59026 0.0
C359 C 0.46704 0.06554 0.59525 0.0
C360 C 0.48359 0.08225 0.57679 0.0
C361 C 0.49306 0.06873 0.55324 0.0
H362 H 0.45971 0.07606 0.61346 0.0
H363 H 0.55675 0.93312 0.39229 0.0
H364 H 0.97923 0.6412 0.76007 0.0
H365 H 0.97966 0.58689 0.76919 0.0
H366 H 0.04254 0.57294 0.705 0.0
H367 H 0.04163 0.62734 0.69545 0.0
H368 H 1.00161 0.53049 0.70379 0.0
H369 H 0.0646 0.57103 0.77196 0.0
H370 H 0.07797 0.60472 0.8089 0.0
H371 H 1.00361 0.56947 0.85429 0.0
H372 H 0.98954 0.53585 0.81748 0.0
H373 H 0.04204 0.37962 0.74212 0.0
H374 H 0.04366 0.43379 0.73208 0.0
H375 H 0.97327 0.45024 0.78947 0.0
H376 H 0.97086 0.39617 0.79916 0.0
H377 H 0.01983 0.491 0.79391 0.0
H378 H 0.95682 0.45098 0.72496 0.0
H379 H 0.9442 0.41711 0.68795 0.0
H380 H 0.02024 0.4512 0.64401 0.0
H381 H 0.03359 0.48499 0.68093 0.0
C382 C 0.99342 0.62663 0.74806 0.0
C383 C 0.01061 0.6387 0.72716 0.0
C384 C 0.99367 0.5955 0.75331 0.0
C385 C 0.01156 0.57567 0.73811 0.0
C386 C 0.02858 0.58766 0.71708 0.0
C387 C 0.02806 0.61879 0.71163 0.0
C388 C 0.01213 0.54247 0.74391 0.0
C389 C 1.0061 0.5219 0.72343 0.0
C390 C 0.01736 0.53103 0.76963 0.0
C391 C 0.02586 0.55111 0.79186 0.0
C392 C 0.05098 0.57061 0.78975 0.0
C393 C 0.0587 0.58967 0.81068 0.0
C394 C 0.04161 0.58929 0.83391 0.0
C395 C 0.01681 0.56977 0.83628 0.0
C396 C 1.00897 0.55068 0.8154 0.0
C397 C 0.02664 0.39465 0.75245 0.0
C398 C 1.00635 0.38328 0.77153 0.0
C399 C 0.02769 0.4257 0.74673 0.0
C400 C 1.00848 0.44615 0.75992 0.0
C401 C 0.98843 0.43497 0.77911 0.0
C402 C 0.98723 0.40395 0.78474 0.0
C403 C 1.00925 0.47919 0.75383 0.0
C404 C 0.01551 0.49967 0.77426 0.0
C405 C 1.00442 0.49052 0.72806 0.0
C406 C 0.99639 0.47027 0.70583 0.0
C407 C 0.97101 0.45107 0.7075 0.0
C408 C 0.96369 0.43192 0.68652 0.0
C409 C 0.98146 0.43194 0.66367 0.0
C410 C 1.00653 0.45117 0.66173 0.0
C411 C 0.01397 0.47034 0.68267 0.0
H412 H 0.97575 0.4171 0.64745 0.0
H413 H 0.04762 0.60407 0.85008 0.0
H414 H 0.37977 0.99031 0.02219 0.0
H415 H 0.43435 0.99303 0.03002 0.0
H416 H 0.44932 0.01614 0.94857 0.0
H417 H 0.39467 0.01522 0.94069 0.0
H418 H 0.48698 0.9666 0.96993 0.0
H419 H 0.45651 0.06977 0.98873 0.0
H420 H 0.42572 0.10871 0.01118 0.0
H421 H 0.45758 0.07731 0.08629 0.0
H422 H 0.48823 0.03788 0.06428 0.0
H423 H 0.64359 0.99781 0.97686 0.0
H424 H 0.58944 1.00044 0.9682 0.0
H425 H 0.57166 0.00925 0.05147 0.0
H426 H 0.6259 0.00978 0.06013 0.0
H427 H 0.53438 0.04274 0.02872 0.0
H428 H 0.56276 0.93968 0.01369 0.0
H429 H 0.59171 0.89723 0.99445 0.0
H430 H 0.56222 0.92287 0.91699 0.0
H431 H 0.53339 0.96573 0.93575 0.0
C432 C 0.39442 0.99663 0.00596 0.0
C433 C 0.38241 1.00259 0.98074 0.0
C434 C 0.42575 0.99789 0.01048 0.0
C435 C 0.44588 1.00474 0.98987 0.0
C436 C 0.43418 0.01062 0.96472 0.0
C437 C 0.40283 0.00988 0.96025 0.0
C438 C 0.47918 1.0055 0.99453 0.0
C439 C 0.4975 0.98347 0.98249 0.0
C440 C 0.49265 0.02684 0.01165 0.0
C441 C 0.47443 0.05069 0.02487 0.0
C442 C 0.45675 0.071 0.01004 0.0
C443 C 0.43936 0.0932 0.02269 0.0
C444 C 0.43963 0.09543 0.05015 0.0
C445 C 0.45736 0.07553 0.06502 0.0
C446 C 0.47476 0.05327 0.05247 0.0
C447 C 0.62839 1.00099 0.9934 0.0
C448 C 0.63962 1.00339 0.01932 0.0
C449 C 0.59714 1.00189 0.9884 0.0
C450 C 0.57611 1.00422 0.00919 0.0
C451 C 0.58721 1.00718 0.035 0.0
C452 C 0.61846 1.00703 0.03997 0.0
C453 C 0.54264 1.00369 0.00414 0.0
C454 C 0.52413 0.02577 0.01612 0.0
C455 C 0.52887 0.98186 0.98746 0.0
C456 C 0.54618 0.9561 0.97611 0.0
C457 C 0.56263 0.9364 0.99254 0.0
C458 C 0.57899 0.91224 0.98172 0.0
C459 C 0.57887 0.90741 0.95451 0.0
C460 C 0.56233 0.92667 0.93806 0.0
C461 C 0.54595 0.95089 0.94878 0.0
H462 H 0.59155 0.88869 0.94617 0.0
H463 H 0.42615 0.11263 0.05991 0.0
H464 H 0.25465 0.12246 0.44549 0.0
H465 H 0.22889 0.14456 0.40766 0.0
H466 H 0.14772 0.09475 0.42694 0.0
H467 H 0.173 0.07304 0.46538 0.0
H468 H 0.16275 0.09511 0.37197 0.0
H469 H 0.14886 0.16443 0.44395 0.0
H470 H 0.1654 0.19615 0.48122 0.0
H471 H 0.22186 0.24828 0.42919 0.0
H472 H 0.206 0.21654 0.39165 0.0
H473 H 0.06137 0.18612 0.29524 0.0
H474 H 0.08577 0.15855 0.33111 0.0
H475 H 0.16859 0.20819 0.31775 0.0
H476 H 0.14486 0.23521 0.28137 0.0
H477 H 0.15096 0.20694 0.37028 0.0
H478 H 0.16578 0.13817 0.29847 0.0
H479 H 0.15018 0.10667 0.26076 0.0
H480 H 0.09304 0.05376 0.31161 0.0
H481 H 0.10793 0.08529 0.34959 0.0
C482 C 0.23127 0.11628 0.44191 0.0
C483 C 0.21583 0.09625 0.45882 0.0
C484 C 0.21667 0.12878 0.42013 0.0
C485 C 0.18637 0.12147 0.41473 0.0
C486 C 0.17116 0.10061 0.43083 0.0
C487 C 0.18571 0.0882 0.45278 0.0
C488 C 0.17031 0.13681 0.39296 0.0
C489 C 0.15972 0.11949 0.37171 0.0
C490 C 0.167 0.16867 0.39253 0.0
C491 C 0.17646 0.18792 0.41504 0.0
C492 C 0.165 0.18249 0.44049 0.0
C493 C 0.17422 0.2005 0.46166 0.0
C494 C 0.19473 0.22417 0.45759 0.0
C495 C 0.206 0.22991 0.43232 0.0
C496 C 0.19689 0.21193 0.41108 0.0
C497 C 0.08488 0.19095 0.2996 0.0
C498 C 0.10107 0.21301 0.28529 0.0
C499 C 0.09875 0.17521 0.3202 0.0
C500 C 0.12897 0.18131 0.32695 0.0
C501 C 0.14518 0.20328 0.31285 0.0
C502 C 0.13146 0.21884 0.29213 0.0
C503 C 0.14356 0.16531 0.34913 0.0
C504 C 0.15385 0.18253 0.37052 0.0
C505 C 0.14664 0.13341 0.3496 0.0
C506 C 0.1377 0.11433 0.32683 0.0
C507 C 0.14965 0.12001 0.30158 0.0
C508 C 0.14099 0.10211 0.28015 0.0
C509 C 0.12056 0.07829 0.28377 0.0
C510 C 0.10882 0.07226 0.30884 0.0
C511 C 0.11738 0.09013 0.33032 0.0
H512 H 0.11389 0.06445 0.26716 0.0
H513 H 0.20184 0.23809 0.474 0.0
H514 H 0.78125 0.14706 0.53628 0.0
H515 H 0.81013 0.16972 0.57227 0.0
H516 H 0.8442 0.08154 0.59392 0.0
H517 H 0.81496 0.05863 0.55804 0.0
H518 H 0.82407 0.11514 0.63673 0.0
H519 H 0.8901 0.12747 0.56298 0.0
H520 H 0.90451 0.14202 0.51776 0.0
H521 H 0.88296 0.23486 0.53479 0.0
H522 H 0.86795 0.22079 0.58003 0.0
H523 H 0.93299 0.17525 0.72553 0.0
H524 H 0.91072 0.14803 0.68842 0.0
H525 H 0.87336 0.23168 0.65877 0.0
H526 H 0.89628 0.25921 0.69547 0.0
H527 H 0.89869 0.19701 0.61966 0.0
H528 H 0.82921 0.18363 0.69241 0.0
H529 H 0.81471 0.16883 0.73757 0.0
H530 H 0.84315 0.07745 0.72217 0.0
H531 H 0.85823 0.09182 0.67701 0.0
C532 C 0.79465 0.13247 0.54885 0.0
C533 C 0.79588 0.10109 0.54439 0.0
C534 C 0.81135 0.14546 0.56922 0.0
C535 C 0.82951 0.1273 0.58551 0.0
C536 C 0.83041 0.0959 0.58143 0.0
C537 C 0.81388 0.08291 0.5609 0.0
C538 C 0.84719 0.14125 0.607 0.0
C539 C 0.84078 0.13267 0.63301 0.0
C540 C 0.86859 0.16442 0.60203 0.0
C541 C 0.87763 0.17301 0.57484 0.0
C542 C 0.88817 0.15095 0.55703 0.0
C543 C 0.8965 0.15912 0.5314 0.0
C544 C 0.89458 0.18933 0.52339 0.0
C545 C 0.8844 0.21146 0.54102 0.0
C546 C 0.876 0.2034 0.56666 0.0
C547 C 0.92037 0.18793 0.71096 0.0
C548 C 0.91627 0.21939 0.71349 0.0
C549 C 0.90747 0.1723 0.68989 0.0
C550 C 0.89017 0.18783 0.67106 0.0
C551 C 0.88659 0.2193 0.67318 0.0
C552 C 0.89943 0.23494 0.69427 0.0
C553 C 0.8752 0.17125 0.6494 0.0
C554 C 0.88216 0.17931 0.62336 0.0
C555 C 0.85432 0.14757 0.65433 0.0
C556 C 0.84516 0.13888 0.68144 0.0
C557 C 0.83261 0.16044 0.69873 0.0
C558 C 0.82424 0.15212 0.72431 0.0
C559 C 0.82809 0.12224 0.73276 0.0
C560 C 0.84024 0.1006 0.71562 0.0
C561 C 0.84868 0.10881 0.69002 0.0
H562 H 0.82159 0.11584 0.75258 0.0
H563 H 0.90105 0.19562 0.50354 0.0
H564 H 0.83894 0.94917 0.95457 0.0
H565 H 0.86164 0.9295 0.91406 0.0
H566 H 0.78096 0.87715 0.89916 0.0
H567 H 0.75766 0.89731 0.939 0.0
H568 H 0.83357 0.84278 0.90141 0.0
H569 H 0.79588 0.93072 0.85888 0.0
H570 H 0.78654 0.98423 0.84768 0.0
H571 H 0.88217 0.99837 0.8369 0.0
H572 H 0.89217 0.94504 0.84852 0.0
H573 H 0.87082 0.78179 0.77629 0.0
H574 H 0.84585 0.81005 0.81142 0.0
H575 H 0.92858 0.85922 0.82611 0.0
H576 H 0.95419 0.83043 0.79151 0.0
H577 H 0.87533 0.89606 0.82332 0.0
H578 H 0.91139 0.80593 0.8668 0.0
H579 H 0.91755 0.75081 0.87256 0.0
H580 H 0.82087 0.74044 0.87847 0.0
H581 H 0.8141 0.79548 0.87235 0.0
C582 C 0.82568 0.93403 0.94245 0.0
C583 C 0.79662 0.92437 0.95049 0.0
C584 C 0.83873 0.92283 0.91925 0.0
C585 C 0.82299 0.90179 0.90376 0.0
C586 C 0.79351 0.89327 0.91099 0.0
C587 C 0.78036 0.90461 0.93397 0.0
C588 C 0.83846 0.88587 0.88189 0.0
C589 C 0.84236 0.85442 0.88418 0.0
C590 C 0.85048 0.90122 0.85974 0.0
C591 C 0.84481 0.9339 0.8549 0.0
C592 C 0.81499 0.94534 0.8546 0.0
C593 C 0.80954 0.97559 0.84794 0.0
C594 C 0.83373 0.99463 0.8414 0.0
C595 C 0.86344 0.98354 0.8418 0.0
C596 C 0.86901 0.95333 0.8485 0.0
C597 C 0.88394 0.7983 0.7871 0.0
C598 C 0.91466 0.80364 0.78102 0.0
C599 C 0.86952 0.81458 0.80709 0.0
C600 C 0.88546 0.83657 0.82135 0.0
C601 C 0.91591 0.84238 0.81519 0.0
C602 C 0.93046 0.82592 0.79532 0.0
C603 C 0.87034 0.85319 0.84297 0.0
C604 C 0.86662 0.88463 0.84068 0.0
C605 C 0.85819 0.83788 0.86504 0.0
C606 C 0.86223 0.80479 0.86886 0.0
C607 C 0.89143 0.79187 0.8691 0.0
C608 C 0.89503 0.76065 0.87248 0.0
C609 C 0.86962 0.74213 0.87581 0.0
C610 C 0.84054 0.75481 0.87585 0.0
C611 C 0.8368 0.78602 0.87245 0.0
H612 H 0.87245 0.71796 0.87842 0.0
H613 H 0.82947 0.01804 0.83625 0.0
H614 H 0.17641 0.93177 0.03538 0.0
H615 H 0.15133 0.90922 0.07362 0.0
H616 H 0.23659 0.87074 0.09863 0.0
H617 H 0.26187 0.89344 0.06063 0.0
H618 H 0.19177 0.82924 0.09835 0.0
H619 H 0.20627 0.93006 0.13095 0.0
H620 H 0.20278 0.98579 0.12997 0.0
H621 H 0.1055 0.98036 0.12868 0.0
H622 H 0.10839 0.92453 0.12923 0.0
H623 H 0.1486 0.77857 0.22473 0.0
H624 H 0.17323 0.80591 0.18877 0.0
H625 H 0.08679 0.84315 0.16541 0.0
H626 H 0.06196 0.81577 0.20139 0.0
H627 H 0.13137 0.88584 0.16476 0.0
H628 H 0.11709 0.78501 0.13155 0.0
H629 H 0.12076 0.72928 0.13235 0.0
H630 H 0.21801 0.73506 0.13464 0.0
H631 H 0.21491 0.79086 0.13422 0.0
C632 C 0.18992 0.91893 0.04923 0.0
C633 C 0.22113 0.91429 0.04489 0.0
C634 C 0.17554 0.90602 0.07104 0.0
C635 C 0.19216 0.88843 0.08897 0.0
C636 C 0.22337 0.88414 0.08493 0.0
C637 C 0.23774 0.89702 0.06315 0.0
C638 C 0.17683 0.87329 0.1113 0.0
C639 C 0.17892 0.84166 0.11309 0.0
C640 C 0.15941 0.88949 0.13006 0.0
C641 C 0.15757 0.92308 0.12985 0.0
C642 C 0.18413 0.94073 0.13022 0.0
C643 C 0.18226 0.97234 0.12979 0.0
C644 C 0.15394 0.9866 0.12918 0.0
C645 C 0.12742 0.96927 0.1291 0.0
C646 C 0.12916 0.93764 0.12949 0.0
C647 C 0.13479 0.79234 0.21182 0.0
C648 C 0.1033 0.79483 0.21578 0.0
C649 C 0.1489 0.80805 0.19135 0.0
C650 C 0.13176 0.82628 0.17429 0.0
C651 C 0.10041 0.82922 0.17841 0.0
C652 C 0.08628 0.81359 0.19896 0.0
C653 C 0.14655 0.84184 0.15188 0.0
C654 C 0.14425 0.87348 0.15002 0.0
C655 C 0.16382 0.82568 0.133 0.0
C656 C 0.16575 0.79211 0.1331 0.0
C657 C 0.13925 0.7744 0.13242 0.0
C658 C 0.14123 0.74279 0.13278 0.0
C659 C 0.1696 0.72863 0.13361 0.0
C660 C 0.19605 0.74605 0.13402 0.0
C661 C 0.1942 0.77767 0.1337 0.0
H662 H 0.17108 0.70416 0.13389 0.0
H663 H 0.15257 0.01106 0.12882 0.0
H664 H 0.98841 0.28079 0.10835 0.0
H665 H 0.99664 0.28108 0.06076 0.0
H666 H 0.96588 0.18849 0.05626 0.0
H667 H 0.95865 0.18774 0.10399 0.0
H668 H 0.01779 0.19449 0.03119 0.0
H669 H 0.92327 0.24662 0.02954 0.0
H670 H 0.88497 0.28493 0.04178 0.0
H671 H 0.94479 0.35588 0.0163 0.0
H672 H 0.9836 0.318 0.00417 0.0
H673 H 0.01859 0.18821 0.89119 0.0
H674 H 1.00513 0.18753 0.93803 0.0
H675 H 0.03373 0.28072 0.94509 0.0
H676 H 0.04559 0.28161 0.89773 0.0
H677 H 0.98242 0.27362 0.96905 0.0
H678 H 0.07577 0.21678 0.96774 0.0
H679 H 0.10885 0.17574 0.95163 0.0
H680 H 0.0465 0.10944 0.98162 0.0
H681 H 0.01227 0.1501 0.99682 0.0
C682 C 0.98315 0.26058 0.09719 0.0
C683 C 0.97307 0.23421 0.11002 0.0
C684 C 0.9876 0.26085 0.06994 0.0
C685 C 0.98178 0.23483 0.0549 0.0
C686 C 0.97054 0.20883 0.06749 0.0
C687 C 0.96613 0.20853 0.09478 0.0
C688 C 0.98969 0.23409 0.02645 0.0
C689 C 0.00959 0.21145 0.01746 0.0
C690 C 0.97955 0.25658 0.00867 0.0
C691 C 0.95647 0.27949 0.01625 0.0
C692 C 0.92838 0.27041 0.0268 0.0
C693 C 0.90654 0.29204 0.03364 0.0
C694 C 0.91248 0.32282 0.0299 0.0
C695 C 0.94024 0.33203 0.01923 0.0
C696 C 0.96215 0.31049 0.01234 0.0
C697 C 0.02257 0.20824 0.903 0.0
C698 C 0.03378 0.23476 0.8913 0.0
C699 C 0.01491 0.2079 0.92971 0.0
C700 C 0.01911 0.23386 0.94533 0.0
C701 C 0.03052 0.26034 0.93354 0.0
C702 C 0.03752 0.26084 0.90666 0.0
C703 C 0.01033 0.23384 0.97363 0.0
C704 C 0.99048 0.2565 0.98269 0.0
C705 C 0.02002 0.21096 0.99131 0.0
C706 C 0.04129 0.18654 0.9832 0.0
C707 C 0.069 0.19346 0.97078 0.0
C708 C 0.08793 0.17025 0.96174 0.0
C709 C 0.07981 0.13999 0.96564 0.0
C710 C 0.05274 0.13289 0.97859 0.0
C711 C 0.03349 0.15601 0.98732 0.0
H712 H 0.09449 0.12203 0.95862 0.0
H713 H 0.89554 0.33954 0.03521 0.0
H714 H 0.76576 0.9825 0.1404 0.0
H715 H 0.76475 0.97801 0.1881 0.0
H716 H 0.78917 0.07224 0.19544 0.0
H717 H 0.79011 0.07694 0.14727 0.0
H718 H 0.82482 0.03676 0.22486 0.0
H719 H 0.71807 0.0479 0.21242 0.0
H720 H 0.66803 0.03735 0.19283 0.0
H721 H 0.67238 0.94565 0.22077 0.0
H722 H 0.72267 0.95551 0.24022 0.0
H723 H 0.78954 0.04237 0.36414 0.0
H724 H 0.7911 0.0506 0.3164 0.0
H725 H 0.78818 0.95406 0.3037 0.0
H726 H 0.78741 0.94574 0.35172 0.0
H727 H 0.74091 0.99264 0.27763 0.0
H728 H 0.84899 0.97954 0.28504 0.0
H729 H 0.90207 0.98735 0.29882 0.0
H730 H 0.89542 0.08169 0.27905 0.0
H731 H 0.8423 0.07439 0.26508 0.0
C732 C 0.77008 1.00255 0.15204 0.0
C733 C 0.77774 0.03023 0.14003 0.0
C734 C 0.76958 0.99989 0.17939 0.0
C735 C 0.77651 0.02487 0.19532 0.0
C736 C 0.78365 0.0527 0.18346 0.0
C737 C 0.78422 0.05537 0.15602 0.0
C738 C 0.77854 0.02111 0.22424 0.0
C739 C 0.80622 0.02776 0.23653 0.0
C740 C 0.75459 0.0084 0.23921 0.0
C741 C 0.72428 1.0024 0.22761 0.0
C742 C 0.70848 0.02541 0.21422 0.0
C743 C 0.68004 0.01957 0.20317 0.0
C744 C 0.66706 0.99083 0.2055 0.0
C745 C 0.68247 0.9679 0.21896 0.0
C746 C 0.71092 0.97361 0.23003 0.0
C747 C 0.78924 0.02295 0.35111 0.0
C748 C 0.78786 0.9934 0.36139 0.0
C749 C 0.79049 0.02765 0.32395 0.0
C750 C 0.78982 1.00292 0.30668 0.0
C751 C 0.78888 0.97337 0.31686 0.0
C752 C 0.78836 0.96863 0.3441 0.0
C753 C 0.78721 0.00819 0.27808 0.0
C754 C 0.75934 1.00193 0.26594 0.0
C755 C 0.81094 0.0213 0.26324 0.0
C756 C 0.84159 0.02648 0.27431 0.0
C757 C 0.85869 1.00204 0.28405 0.0
C758 C 0.88889 1.0063 0.29158 0.0
C759 C 0.90217 0.03495 0.28961 0.0
C760 C 0.88518 0.05948 0.28038 0.0
C761 C 0.85503 0.05529 0.27266 0.0
H762 H 0.92556 0.0382 0.29543 0.0
H763 H 0.64504 0.98635 0.19693 0.0
H764 H 0.02863 0.74021 0.60456 0.0
H765 H 0.02482 0.74251 0.55674 0.0
H766 H 0.06736 0.83041 0.55724 0.0
H767 H 0.0699 0.82897 0.60502 0.0
H768 H 0.02229 0.83373 0.52779 0.0
H769 H 0.10331 0.7646 0.53056 0.0
H770 H 0.13304 0.72006 0.54449 0.0
H771 H 0.06383 0.66098 0.51462 0.0
H772 H 0.03346 0.70516 0.50083 0.0
H773 H 0.01023 0.83281 0.3872 0.0
H774 H 0.02899 0.83465 0.43264 0.0
H775 H 0.98775 0.74766 0.44792 0.0
H776 H 0.97037 0.74545 0.402 0.0
H777 H 0.04224 0.74815 0.4671 0.0
H778 H 0.95793 0.81952 0.47067 0.0
H779 H 0.92902 0.86536 0.45865 0.0
H780 H 1.00574 0.9209 0.4781 0.0
H781 H 0.03522 0.87535 0.48991 0.0
C782 C 0.03739 0.75997 0.59448 0.0
C783 C 0.04945 0.78443 0.60878 0.0
C784 C 0.03562 0.76108 0.56702 0.0
C785 C 0.0464 0.78642 0.55314 0.0
C786 C 0.05932 0.81044 0.56733 0.0
C787 C 0.06089 0.80947 0.5948 0.0
C788 C 0.04138 0.78901 0.52422 0.0
C789 C 0.02693 0.81507 0.51457 0.0
C790 C 0.04781 0.76495 0.50664 0.0
C791 C 0.06601 0.73824 0.51481 0.0
C792 C 0.09432 0.74211 0.52712 0.0
C793 C 0.1113 0.71693 0.53497 0.0
C794 C 0.10031 0.68771 0.53048 0.0
C795 C 0.07232 0.68363 0.51808 0.0
C796 C 0.05523 0.70874 0.51021 0.0
C797 C 1.00467 0.81452 0.40058 0.0
C798 C 0.98825 0.78933 0.39159 0.0
C799 C 0.01543 0.81549 0.42646 0.0
C800 C 0.00939 0.79151 0.44393 0.0
C801 C 0.99266 0.76647 0.43488 0.0
C802 C 0.98245 0.76528 0.40886 0.0
C803 C 0.02106 0.79191 0.4714 0.0
C804 C 0.03737 0.76663 0.48055 0.0
C805 C 0.01636 0.81674 0.48858 0.0
C806 C 0.99889 0.84401 0.48079 0.0
C807 C 0.96873 0.84149 0.47209 0.0
C808 C 0.95222 0.86742 0.46539 0.0
C809 C 0.96557 0.89602 0.46751 0.0
C810 C 0.99545 0.89874 0.47638 0.0
C811 C 0.01207 0.87288 0.48307 0.0
H812 H 0.95272 0.91607 0.46236 0.0
H813 H 0.11349 0.66824 0.53658 0.0
H814 H 0.22947 0.93628 0.65036 0.0
H815 H 0.23178 0.94307 0.69826 0.0
H816 H 0.2602 0.03574 0.68701 0.0
H817 H 0.2581 0.02902 0.63974 0.0
H818 H 0.28701 0.01665 0.72673 0.0
H819 H 0.1805 0.01106 0.70052 0.0
H820 H 0.13623 0.98656 0.68006 0.0
H821 H 0.14705 0.90974 0.73107 0.0
H822 H 0.19119 0.934 0.75209 0.0
H823 H 0.23953 0.07362 0.85255 0.0
H824 H 0.24095 0.06442 0.8046 0.0
H825 H 0.23277 0.96834 0.81852 0.0
H826 H 0.23147 0.97751 0.866 0.0
H827 H 0.19537 0.98893 0.77832 0.0
H828 H 0.29984 0.99537 0.80552 0.0
H829 H 0.34404 0.01961 0.82644 0.0
H830 H 0.33692 0.0947 0.77302 0.0
H831 H 0.29239 0.07109 0.75203 0.0
C832 C 0.23635 0.95798 0.65826 0.0
C833 C 0.24346 0.98207 0.64129 0.0
C834 C 0.23746 0.96197 0.68559 0.0
C835 C 0.24491 0.99036 0.69636 0.0
C836 C 0.25373 0.01381 0.67934 0.0
C837 C 0.25283 0.00981 0.65216 0.0
C838 C 0.24252 0.99632 0.72513 0.0
C839 C 0.26676 0.01091 0.73785 0.0
C840 C 0.21635 0.98846 0.73994 0.0
C841 C 0.18928 0.9743 0.72777 0.0
C842 C 0.17342 0.98901 0.70743 0.0
C843 C 0.14827 0.97518 0.69578 0.0
C844 C 0.13875 0.94665 0.70432 0.0
C845 C 0.15428 0.93194 0.72462 0.0
C846 C 0.1793 0.94577 0.73647 0.0
C847 C 0.23792 0.05067 0.84517 0.0
C848 C 0.23591 0.02625 0.86273 0.0
C849 C 0.2388 0.0454 0.81796 0.0
C850 C 0.23725 0.01566 0.80813 0.0
C851 C 0.23413 0.99141 0.82572 0.0
C852 C 0.23364 0.99663 0.85277 0.0
C853 C 0.23963 0.00946 0.77956 0.0
C854 C 0.21544 0.99483 0.767 0.0
C855 C 0.26571 0.01745 0.76488 0.0
C856 C 0.29256 0.03163 0.7774 0.0
C857 C 0.30753 0.01718 0.79839 0.0
C858 C 0.33268 0.03078 0.81023 0.0
C859 C 0.34323 0.05873 0.80112 0.0
C860 C 0.32869 0.07308 0.7801 0.0
C861 C 0.3035 0.05959 0.76821 0.0
H862 H 0.36271 0.06922 0.81031 0.0
H863 H 0.11936 0.93591 0.6952 0.0
H864 H 0.05371 0.15372 0.16676 0.0
H865 H 0.08597 0.12561 0.13618 0.0
H866 H 0.13487 0.20758 0.11776 0.0
H867 H 0.10163 0.2361 0.14763 0.0
H868 H 0.12664 0.17809 0.07471 0.0
H869 H 0.16389 0.14875 0.15966 0.0
H870 H 0.16072 0.12917 0.20512 0.0
H871 H 0.1267 0.04437 0.17619 0.0
H872 H 0.12911 0.06368 0.13061 0.0
H873 H 0.24656 0.10192 0.00771 0.0
H874 H 0.21877 0.13112 0.04093 0.0
H875 H 0.16167 0.0539 0.05665 0.0
H876 H 0.18975 0.02437 0.02396 0.0
H877 H 0.1761 0.08198 0.10163 0.0
H878 H 0.14146 0.11265 0.01564 0.0
H879 H 0.14992 0.1322 0.97076 0.0
H880 H 0.18118 0.21669 0.00246 0.0
H881 H 0.17452 0.19708 0.0476 0.0
C882 C 0.07139 0.16578 0.15627 0.0
C883 C 0.07524 0.19713 0.15978 0.0
C884 C 0.09001 0.14961 0.13885 0.0
C885 C 0.11345 0.16421 0.12496 0.0
C886 C 0.11711 0.19565 0.12826 0.0
C887 C 0.09813 0.21196 0.14541 0.0
C888 C 0.13372 0.14679 0.1067 0.0
C889 C 0.13783 0.15734 0.08079 0.0
C890 C 0.14803 0.11933 0.1143 0.0
C891 C 0.14651 0.10773 0.14173 0.0
C892 C 0.15553 0.12601 0.16301 0.0
C893 C 0.15387 0.11496 0.1888 0.0
C894 C 0.14346 0.08557 0.19355 0.0
C895 C 0.13473 0.06715 0.1725 0.0
C896 C 0.13626 0.07812 0.14669 0.0
C897 C 0.2282 0.09107 0.01832 0.0
C898 C 0.22027 0.06083 0.01293 0.0
C899 C 0.21225 0.10785 0.0373 0.0
C900 C 0.18771 0.09494 0.05105 0.0
C901 C 0.18039 0.06447 0.04629 0.0
C902 C 0.19645 0.04762 0.02746 0.0
C903 C 0.16897 0.11331 0.06974 0.0
C904 C 0.16505 0.10285 0.09566 0.0
C905 C 0.15511 0.14101 0.06223 0.0
C906 C 0.15786 0.15322 0.03506 0.0
C907 C 0.15042 0.13529 0.01309 0.0
C908 C 0.15502 0.14634 0.98759 0.0
C909 C 0.16607 0.17566 0.98376 0.0
C910 C 0.17267 0.19396 0.00545 0.0
C911 C 0.16867 0.18282 0.03101 0.0
H912 H 0.16943 0.18422 0.96399 0.0
H913 H 0.1422 0.07706 0.21353 0.0
H914 H 0.90559 0.23327 0.24831 0.0
H915 H 0.87692 0.20586 0.28191 0.0
H916 H 0.96014 0.16784 0.31212 0.0
H917 H 0.98888 0.19447 0.27792 0.0
H918 H 0.91915 0.12572 0.31225 0.0
H919 H 0.9212 0.22769 0.34344 0.0
H920 H 0.91454 0.2831 0.34142 0.0
H921 H 0.81901 0.27165 0.32815 0.0
H922 H 0.82517 0.21612 0.32974 0.0
H923 H 0.85916 0.07595 0.43428 0.0
H924 H 0.88729 0.10648 0.4023 0.0
H925 H 0.8034 0.13121 0.36428 0.0
H926 H 0.77501 0.10094 0.39646 0.0
H927 H 0.84447 0.17979 0.36859 0.0
H928 H 0.84519 0.07489 0.34119 0.0
H929 H 0.85472 0.0208 0.35022 0.0
H930 H 0.94946 0.03914 0.36117 0.0
H931 H 0.94048 0.09347 0.353 0.0
C932 C 0.91785 0.21918 0.26215 0.0
C933 C 0.9496 0.21627 0.26046 0.0
C934 C 0.9014 0.20353 0.28147 0.0
C935 C 0.91629 0.18503 0.29996 0.0
C936 C 0.94801 0.18192 0.29818 0.0
C937 C 0.96446 0.1973 0.27864 0.0
C938 C 0.89881 0.16903 0.32111 0.0
C939 C 0.90309 0.13769 0.3247 0.0
C940 C 0.87753 0.18436 0.33739 0.0
C941 C 0.8737 0.21774 0.33644 0.0
C942 C 0.89881 0.23698 0.33989 0.0
C943 C 0.89512 0.26841 0.33886 0.0
C944 C 0.86638 0.28089 0.33459 0.0
C945 C 0.84126 0.26195 0.33141 0.0
C946 C 0.84483 0.2305 0.3324 0.0
C947 C 0.84663 0.08815 0.41931 0.0
C948 C 0.81483 0.0859 0.41785 0.0
C949 C 0.86277 0.10556 0.401 0.0
C950 C 0.84751 0.12086 0.38068 0.0
C951 C 0.81566 0.11961 0.37978 0.0
C952 C 0.79947 0.10224 0.39816 0.0
C953 C 0.86487 0.13674 0.35958 0.0
C954 C 0.86048 0.16793 0.356 0.0
C955 C 0.88643 0.12138 0.34368 0.0
C956 C 0.8921 0.08838 0.34677 0.0
C957 C 0.86803 0.06746 0.34574 0.0
C958 C 0.87328 0.03679 0.35086 0.0
C959 C 0.90258 0.02662 0.35652 0.0
C960 C 0.92675 0.04708 0.35692 0.0
C961 C 0.92159 0.07783 0.35205 0.0
H962 H 0.90661 1.00284 0.36033 0.0
H963 H 0.86357 0.30523 0.3338 0.0
H964 H 0.77457 0.91078 0.50225 0.0
H965 H 0.80422 0.88061 0.53348 0.0
H966 H 0.85729 0.95938 0.5532 0.0
H967 H 0.82792 0.98964 0.52201 0.0
H968 H 0.89329 0.91019 0.54542 0.0
H969 H 0.80287 0.93349 0.59478 0.0
H970 H 0.74771 0.93555 0.60295 0.0
H971 H 0.74266 0.83862 0.59763 0.0
H972 H 0.79777 0.83602 0.58906 0.0
H973 H 0.9623 0.86181 0.66443 0.0
H974 H 0.93027 0.88868 0.63276 0.0
H975 H 0.88628 0.80478 0.61224 0.0
H976 H 0.91859 0.7776 0.64375 0.0
H977 H 0.84537 0.85394 0.61922 0.0
H978 H 0.9367 0.83041 0.57378 0.0
H979 H 0.99206 0.8283 0.56816 0.0
H980 H 0.99583 0.92543 0.56497 0.0
H981 H 0.94047 0.92819 0.57206 0.0
C982 C 0.79245 0.92175 0.5133 0.0
C983 C 0.79876 0.9527 0.50959 0.0
C984 C 0.80937 0.90445 0.53121 0.0
C985 C 0.83294 0.91771 0.54584 0.0
C986 C 0.83929 0.94859 0.54214 0.0
C987 C 0.82233 0.96591 0.52434 0.0
C988 C 0.85115 0.89948 0.56488 0.0
C989 C 0.88283 0.8982 0.56174 0.0
C990 C 0.83749 0.88309 0.58578 0.0
C991 C 0.80438 0.88459 0.59099 0.0
C992 C 0.78996 0.91263 0.59513 0.0
C993 C 0.75871 0.91389 0.59988 0.0
C994 C 0.74167 0.88723 0.60073 0.0
C995 C 0.75588 0.85925 0.59692 0.0
C996 C 0.78712 0.85787 0.59213 0.0
C997 C 0.94576 0.84905 0.65326 0.0
C998 C 0.94306 0.81754 0.65655 0.0
C999 C 0.92748 0.86445 0.63513 0.0
C1000 C 0.90595 0.84874 0.62003 0.0
C1001 C 0.90271 0.81737 0.62369 0.0
C1002 C 0.92129 0.80186 0.64161 0.0
C1003 C 0.88748 0.86504 0.59996 0.0
C1004 C 0.8558 0.86588 0.60286 0.0
C1005 C 0.90115 0.88101 0.57882 0.0
C1006 C 0.93439 0.87951 0.57386 0.0
C1007 C 0.94932 0.85137 0.57224 0.0
C1008 C 0.98075 0.85006 0.5688 0.0
C1009 C 0.99752 0.87673 0.56618 0.0
C1010 C 0.98283 0.90478 0.56707 0.0
C1011 C 0.95141 0.90623 0.57094 0.0
H1012 H 0.02187 0.87567 0.56342 0.0
H1013 H 0.71749 0.88826 0.60442 0.0
H1014 H 0.02707 0.82264 0.77536 0.0
H1015 H 0.05524 0.85045 0.80902 0.0
H1016 H 0.13839 0.80799 0.78316 0.0
H1017 H 0.11021 0.77944 0.75001 0.0
H1018 H 0.13812 0.81022 0.83438 0.0
H1019 H 0.11719 0.88183 0.76616 0.0
H1020 H 0.08558 0.91121 0.73529 0.0
H1021 H 0.03859 0.95229 0.80033 0.0
H1022 H 0.06946 0.92266 0.8316 0.0
H1023 H 0.2399 0.91433 0.89612 0.0
H1024 H 0.21141 0.88473 0.8637 0.0
H1025 H 0.12742 0.92051 0.89456 0.0
H1026 H 0.15574 0.95022 0.92692 0.0
H1027 H 0.12851 0.92192 0.84084 0.0
H1028 H 0.14914 0.84883 0.90882 0.0
H1029 H 0.18166 0.81979 0.93922 0.0
H1030 H 0.23068 0.78247 0.87356 0.0
H1031 H 0.19871 0.81163 0.84276 0.0
C1032 C 0.05135 0.81914 0.77688 0.0
C1033 C 0.06638 0.79888 0.75985 0.0
C1034 C 0.0675 0.8352 0.79609 0.0
C1035 C 0.09914 0.83183 0.79843 0.0
C1036 C 0.11405 0.81112 0.7818 0.0
C1037 C 0.09788 0.79481 0.76277 0.0
C1038 C 0.11674 0.84991 0.81806 0.0
C1039 C 0.13626 0.83468 0.83551 0.0
C1040 C 0.11406 0.88187 0.82001 0.0
C1041 C 0.09549 0.89979 0.80123 0.0
C1042 C 0.09997 0.89696 0.77388 0.0
C1043 C 0.0822 0.91368 0.75631 0.0
C1044 C 0.0601 0.9336 0.76584 0.0
C1045 C 0.05571 0.93684 0.79297 0.0
C1046 C 0.07333 0.92007 0.81063 0.0
C1047 C 0.21535 0.91572 0.89614 0.0
C1048 C 0.2001 0.93447 0.91427 0.0
C1049 C 0.19908 0.89877 0.87758 0.0
C1050 C 0.1672 0.90016 0.87678 0.0
C1051 C 0.15197 0.91901 0.89477 0.0
C1052 C 0.16821 0.93587 0.91337 0.0
C1053 C 0.1497 0.88218 0.8571 0.0
C1054 C 0.13028 0.89745 0.83965 0.0
C1055 C 0.15259 0.85032 0.85503 0.0
C1056 C 0.17172 0.83264 0.8735 0.0
C1057 C 0.16701 0.83461 0.90087 0.0
C1058 C 0.18531 0.8181 0.91817 0.0
C1059 C 0.20827 0.79936 0.90833 0.0
C1060 C 0.21291 0.79702 0.88116 0.0
C1061 C 0.19469 0.81352 0.86377 0.0
H1062 H 0.22242 0.78659 0.92176 0.0
H1063 H 0.0464 0.94656 0.7522 0.0
H1064 H 0.07019 0.85731 0.32284 0.0
H1065 H 0.09938 0.88587 0.3553 0.0
H1066 H 0.11759 0.80343 0.39806 0.0
H1067 H 0.08811 0.77467 0.36567 0.0
H1068 H 0.10061 0.84909 0.43087 0.0
H1069 H 0.17241 0.83672 0.3601 0.0
H1070 H 0.19018 0.83991 0.31406 0.0
H1071 H 0.17803 0.93641 0.31517 0.0
H1072 H 0.15978 0.93376 0.36111 0.0
H1073 H 0.21966 0.906 0.51257 0.0
H1074 H 0.19003 0.8774 0.48027 0.0
H1075 H 0.16907 0.96022 0.43909 0.0
H1076 H 0.19838 0.98904 0.47149 0.0
H1077 H 0.18721 0.91467 0.40537 0.0
H1078 H 0.1159 0.92824 0.47491 0.0
H1079 H 0.09479 0.92652 0.51989 0.0
H1080 H 0.10324 0.82958 0.52042 0.0
H1081 H 0.12472 0.83077 0.47561 0.0
C1082 C 0.08058 0.84518 0.33904 0.0
C1083 C 0.07707 0.81364 0.34152 0.0
C1084 C 0.09735 0.86156 0.35757 0.0
C1085 C 0.11105 0.8468 0.37899 0.0
C1086 C 0.10737 0.81532 0.38164 0.0
C1087 C 0.09067 0.79887 0.36303 0.0
C1088 C 0.12876 0.86431 0.39881 0.0
C1089 C 0.11991 0.86299 0.42537 0.0
C1090 C 0.15327 0.88334 0.39153 0.0
C1091 C 0.16447 0.885 0.36397 0.0
C1092 C 0.17332 0.8586 0.35047 0.0
C1093 C 0.18351 0.86031 0.3244 0.0
C1094 C 0.18516 0.88833 0.31168 0.0
C1095 C 0.17671 0.91472 0.32504 0.0
C1096 C 0.16647 0.91313 0.3511 0.0
C1097 C 0.20883 0.91815 0.49661 0.0
C1098 C 0.21147 0.94984 0.49463 0.0
C1099 C 0.19172 0.90177 0.47824 0.0
C1100 C 0.1771 0.91665 0.45733 0.0
C1101 C 0.18007 0.94823 0.45508 0.0
C1102 C 0.19682 0.96468 0.47365 0.0
C1103 C 0.15929 0.89919 0.43753 0.0
C1104 C 0.16807 0.9006 0.41093 0.0
C1105 C 0.13458 0.88039 0.44476 0.0
C1106 C 0.12244 0.87965 0.47205 0.0
C1107 C 0.11367 0.90659 0.48476 0.0
C1108 C 0.10148 0.90571 0.5102 0.0
C1109 C 0.09777 0.87801 0.52308 0.0
C1110 C 0.10615 0.85108 0.51051 0.0
C1111 C 0.11834 0.85184 0.48507 0.0
H1112 H 0.08837 0.87749 0.54278 0.0
H1113 H 0.19305 0.88961 0.2915 0.0
H1114 H 0.23641 0.10384 0.60271 0.0
H1115 H 0.20883 0.13567 0.63413 0.0
H1116 H 0.1262 0.08723 0.61681 0.0
H1117 H 0.15349 0.05631 0.58455 0.0
H1118 H 0.11252 0.14262 0.61965 0.0
H1119 H 0.167 0.07882 0.68203 0.0
H1120 H 0.2108 0.0544 0.70358 0.0
H1121 H 0.25496 0.14049 0.71103 0.0
H1122 H 0.21089 0.16565 0.6904 0.0
H1123 H 0.02698 0.19087 0.7312 0.0
H1124 H 0.05561 0.16249 0.69818 0.0
H1125 H 0.13346 0.21959 0.71145 0.0
H1126 H 0.10512 0.24775 0.74502 0.0
H1127 H 0.15013 0.16201 0.7101 0.0
H1128 H 0.08835 0.22533 0.65472 0.0
H1129 H 0.04024 0.24748 0.63905 0.0
H1130 H 1.00715 0.1588 0.61973 0.0
H1131 H 0.05494 0.13607 0.63559 0.0
C1132 C 0.21235 0.09999 0.6056 0.0
C1133 C 0.19714 0.0776 0.59102 0.0
C1134 C 0.19659 0.11804 0.62384 0.0
C1135 C 0.16535 0.1137 0.62839 0.0
C1136 C 0.15022 0.09123 0.6138 0.0
C1137 C 0.16587 0.07349 0.5953 0.0
C1138 C 0.14818 0.13316 0.64753 0.0
C1139 C 0.12064 0.14647 0.63953 0.0
C1140 C 0.15881 0.1391 0.67336 0.0
C1141 C 0.18594 0.12399 0.68435 0.0
C1142 C 0.1862 0.09247 0.68802 0.0
C1143 C 0.21097 0.07853 0.70019 0.0
C1144 C 0.23581 0.09577 0.70833 0.0
C1145 C 0.23578 0.12712 0.7046 0.0
C1146 C 0.21083 0.14128 0.69286 0.0
C1147 C 0.05014 0.19759 0.72702 0.0
C1148 C 0.0637 0.22168 0.74083 0.0
C1149 C 0.06647 0.18138 0.70796 0.0
C1150 C 0.09666 0.18907 0.70197 0.0
C1151 C 0.1102 0.21322 0.71562 0.0
C1152 C 0.09392 0.22938 0.7348 0.0
C1153 C 0.11446 0.17115 0.68229 0.0
C1154 C 0.14212 0.15824 0.69016 0.0
C1155 C 0.1037 0.16531 0.65649 0.0
C1156 C 0.07515 0.17899 0.64653 0.0
C1157 C 0.07076 0.21054 0.64726 0.0
C1158 C 0.04355 0.2232 0.63832 0.0
C1159 C 0.02063 0.20455 0.62845 0.0
C1160 C 0.02492 0.17321 0.62739 0.0
C1161 C 0.05208 0.16044 0.63631 0.0
H1162 H 0.99957 0.21439 0.62158 0.0
H1163 H 0.25497 0.08485 0.71766 0.0
H1164 H 0.9077 0.239 0.84948 0.0
H1165 H 0.87753 0.21052 0.88168 0.0
H1166 H 0.93866 0.13453 0.87367 0.0
H1167 H 0.96765 0.16229 0.84051 0.0
H1168 H 0.88635 0.11289 0.87711 0.0
H1169 H 0.93854 0.1886 0.92517 0.0
H1170 H 0.95495 0.23984 0.93747 0.0
H1171 H 0.86387 0.26288 0.95987 0.0
H1172 H 0.84629 0.21239 0.94586 0.0
H1173 H 0.84212 0.03437 0.99192 0.0
H1174 H 0.87167 0.06561 0.96166 0.0
H1175 H 0.80062 0.13293 0.96169 0.0
H1176 H 0.7714 0.10224 0.99307 0.0
H1177 H 0.85726 0.15874 0.9628 0.0
H1178 H 0.80756 0.07972 0.91054 0.0
H1179 H 0.79627 0.0252 0.90612 0.0
H1180 H 0.89146 1.00561 0.89966 0.0
H1181 H 0.90335 0.05998 0.90426 0.0
C1182 C 0.91454 0.21616 0.85455 0.0
C1183 C 0.93997 0.20284 0.84245 0.0
C1184 C 0.89739 0.19991 0.87308 0.0
C1185 C 0.90594 0.17038 0.88056 0.0
C1186 C 0.93135 0.15713 0.8683 0.0
C1187 C 0.94801 0.17308 0.84935 0.0
C1188 C 0.88867 0.15321 0.90114 0.0
C1189 C 0.88026 0.12305 0.89585 0.0
C1190 C 0.8805 0.16613 0.92583 0.0
C1191 C 0.89099 0.1967 0.9341 0.0
C1192 C 0.92186 0.20466 0.93235 0.0
C1193 C 0.93141 0.23361 0.93969 0.0
C1194 C 0.91059 0.25452 0.94975 0.0
C1195 C 0.88001 0.24665 0.9521 0.0
C1196 C 0.87017 0.21794 0.94423 0.0
C1197 C 0.83272 0.05582 0.98551 0.0
C1198 C 0.8042 0.06564 0.99465 0.0
C1199 C 0.84967 0.07368 0.96817 0.0
C1200 C 0.83813 0.10137 0.95889 0.0
C1201 C 0.80996 0.1116 0.96846 0.0
C1202 C 0.7932 0.09396 0.98627 0.0
C1203 C 0.85491 0.11899 0.93847 0.0
C1204 C 0.86321 0.14903 0.94384 0.0
C1205 C 0.86369 0.10583 0.91417 0.0
C1206 C 0.85633 0.07386 0.90787 0.0
C1207 C 0.82605 0.06379 0.90792 0.0
C1208 C 0.81957 0.03292 0.90558 0.0
C1209 C 0.84317 0.01196 0.90301 0.0
C1210 C 0.87325 0.02188 0.90193 0.0
C1211 C 0.87986 0.05273 0.90425 0.0
H1212 H 0.83813 0.98805 0.90161 0.0
H1213 H 0.91815 0.27682 0.95567 0.0
H1214 H 0.9912 0.81979 0.22613 0.0
H1215 H 0.96307 0.84789 0.19264 0.0
H1216 H 0.87977 0.80614 0.21864 0.0
H1217 H 0.90786 0.77751 0.25194 0.0
H1218 H 0.88103 0.80808 0.16657 0.0
H1219 H 0.89778 0.88017 0.23536 0.0
H1220 H 0.9273 0.9099 0.26747 0.0
H1221 H 0.97913 0.94937 0.2045 0.0
H1222 H 0.95012 0.91962 0.17202 0.0
H1223 H 0.7808 0.91312 0.10344 0.0
H1224 H 0.80852 0.88258 0.13574 0.0
H1225 H 0.89318 0.91923 0.10733 0.0
H1226 H 0.86561 0.9499 0.07509 0.0
H1227 H 0.89054 0.91984 0.16082 0.0
H1228 H 0.87207 0.84729 0.09201 0.0
H1229 H 0.84059 0.81841 0.06074 0.0
H1230 H 0.78993 0.78041 0.12509 0.0
H1231 H 0.82084 0.80941 0.15675 0.0
C1232 C 0.96689 0.81648 0.22473 0.0
C1233 C 0.95181 0.79644 0.24189 0.0
C1234 C 0.95078 0.83274 0.2056 0.0
C1235 C 0.91913 0.8296 0.2033 0.0
C1236 C 0.90412 0.80908 0.22002 0.0
C1237 C 0.92025 0.79273 0.23911 0.0
C1238 C 0.90175 0.84771 0.18353 0.0
C1239 C 0.88284 0.83256 0.16558 0.0
C1240 C 0.90435 0.87965 0.1818 0.0
C1241 C 0.92198 0.89743 0.20128 0.0
C1242 C 0.91564 0.895 0.22838 0.0
C1243 C 0.93224 0.9119 0.24664 0.0
C1244 C 0.95513 0.93145 0.23804 0.0
C1245 C 0.96142 0.93419 0.21114 0.0
C1246 C 0.94488 0.91734 0.19279 0.0
C1247 C 0.80534 0.9145 0.10391 0.0
C1248 C 0.82099 0.93384 0.08655 0.0
C1249 C 0.82118 0.89697 0.12238 0.0
C1250 C 0.85302 0.89838 0.12389 0.0
C1251 C 0.86866 0.9177 0.10657 0.0
C1252 C 0.85285 0.93514 0.08804 0.0
C1253 C 0.87001 0.88019 0.14382 0.0
C1254 C 0.8888 0.89535 0.16182 0.0
C1255 C 0.86709 0.84831 0.14572 0.0
C1256 C 0.84858 0.83075 0.12673 0.0
C1257 C 0.85406 0.83296 0.09948 0.0
C1258 C 0.83635 0.81654 0.08169 0.0
C1259 C 0.81322 0.79765 0.09092 0.0
C1260 C 0.80782 0.79508 0.11797 0.0
C1261 C 0.82545 0.81148 0.13584 0.0
H1262 H 0.79953 0.78496 0.07711 0.0
H1263 H 0.96794 0.94453 0.25221 0.0
loop_
_geom_bond_atom_site_label_1
_geom_bond_atom_site_label_2
_geom_bond_distance
_geom_bond_site_symmetry_2
_ccdc_geom_bond_type
Co0 N4 2.148 . S
Co0 N10 2.128 . S
Co0 N20 2.194 . S
Co0 O25 2.351 . S
Co0 O26 2.155 . S
Co0 O27 2.096 . S
C1 N4 1.301 . S
C1 N5 1.328 . S
C1 H6 0.930 . S
C2 C3 1.333 1_455 S
C2 N4 1.317 . S
C2 H7 0.930 1_455 S
C3 C2 1.333 1_655 S
C3 N5 1.350 1_655 S
C3 H29 0.931 . S
N4 Co0 2.148 . S
N4 C1 1.301 . S
N4 C2 1.317 . S
N5 C1 1.328 . S
N5 C3 1.350 1_455 S
H6 C1 0.930 . S
H7 C2 0.930 1_655 S
C8 O9 1.224 . S
C8 O27 1.247 . S
O9 C8 1.224 . S
N10 Co0 2.128 . S
N10 C11 1.355 . S
N10 C13 1.311 . S
C11 N10 1.355 . S
C11 C12 1.363 . S
C11 H23 0.929 . S
C12 C11 1.363 . S
C12 N14 1.375 . S
C12 H30 0.931 . S
C13 N10 1.311 . S
C13 N14 1.347 . S
C13 H24 0.929 . S
N14 C12 1.375 . S
N14 C13 1.347 . S
C15 C18 1.365 . S
C15 N20 1.328 . S
C15 H21 0.929 . S
C16 C17 1.362 . S
C16 C19 1.378 . S
C16 H31 0.929 . S
C17 C16 1.362 . S
C17 C18 1.366 . S
C18 C15 1.365 . S
C18 C17 1.366 . S
C18 H32 0.930 . S
C19 C16 1.378 . S
C19 N20 1.315 . S
C19 H22 0.930 . S
N20 Co0 2.194 . S
N20 C15 1.328 . S
N20 C19 1.315 . S
H21 C15 0.929 . S
H22 C19 0.930 . S
H23 C11 0.929 . S
H24 C13 0.929 . S
O25 Co0 2.351 . S
O25 C28 1.244 . S
O26 Co0 2.155 . S
O26 C28 1.240 . S
O27 Co0 2.096 . S
O27 C8 1.247 . S
C28 O25 1.244 . S
C28 O26 1.240 . S
H29 C3 0.931 . S
H30 C12 0.931 . S
H31 C16 0.929 . S
H32 C18 0.930 . S
Co33 N37 2.148 . S
Co33 N43 2.128 . S
Co33 N53 2.194 . S
Co33 O58 2.351 . S
Co33 O59 2.155 . S
Co33 O60 2.096 . S
C34 N37 1.301 . S
C34 N38 1.328 . S
C34 H39 0.930 . S
C35 C36 1.333 1_545 S
C35 N37 1.317 . S
C35 H40 0.930 1_545 S
C36 C35 1.333 1_565 S
C36 N38 1.350 1_565 S
C36 H62 0.931 . S
N37 Co33 2.148 . S
N37 C34 1.301 . S
N37 C35 1.317 . S
N38 C34 1.328 . S
N38 C36 1.350 1_545 S
H39 C34 0.930 . S
H40 C35 0.930 1_565 S
C41 O42 1.224 . S
C41 O60 1.247 . S
O42 C41 1.224 . S
N43 Co33 2.128 . S
N43 C44 1.355 . S
N43 C46 1.311 . S
C44 N43 1.355 . S
C44 C45 1.363 . S
C44 H56 0.929 . S
C45 C44 1.363 . S
C45 N47 1.375 . S
C45 H63 0.931 . S
C46 N43 1.311 . S
C46 N47 1.347 . S
C46 H57 0.929 . S
N47 C45 1.375 . S
N47 C46 1.347 . S
C48 C51 1.365 . S
C48 N53 1.328 . S
C48 H54 0.929 . S
C49 C50 1.362 . S
C49 C52 1.378 . S
C49 H64 0.929 . S
C50 C49 1.362 . S
C50 C51 1.366 . S
C51 C48 1.365 . S
C51 C50 1.366 . S
C51 H65 0.930 . S
C52 C49 1.378 . S
C52 N53 1.315 . S
C52 H55 0.930 . S
N53 Co33 2.194 . S
N53 C48 1.328 . S
N53 C52 1.315 . S
H54 C48 0.929 . S
H55 C52 0.930 . S
H56 C44 0.929 . S
H57 C46 0.929 . S
O58 Co33 2.351 . S
O58 C61 1.244 . S
O59 Co33 2.155 . S
O59 C61 1.240 . S
O60 Co33 2.096 . S
O60 C41 1.247 . S
C61 O58 1.244 . S
C61 O59 1.240 . S
H62 C36 0.931 . S
H63 C45 0.931 . S
H64 C49 0.929 . S
H65 C51 0.930 . S
Co66 N70 2.148 . S
Co66 N76 2.128 . S
Co66 N86 2.194 . S
Co66 O91 2.351 . S
Co66 O92 2.155 . S
Co66 O93 2.096 . S
C67 N70 1.301 . S
C67 N71 1.328 . S
C67 H72 0.930 . S
C68 C69 1.333 1_655 S
C68 N70 1.317 . S
C68 H73 0.930 1_655 S
C69 C68 1.333 1_455 S
C69 N71 1.350 1_455 S
C69 H95 0.931 . S
N70 Co66 2.148 . S
N70 C67 1.301 . S
N70 C68 1.317 . S
N71 C67 1.328 . S
N71 C69 1.350 1_655 S
H72 C67 0.930 . S
H73 C68 0.930 1_455 S
C74 O75 1.224 . S
C74 O93 1.247 . S
O75 C74 1.224 . S
N76 Co66 2.128 . S
N76 C77 1.355 . S
N76 C79 1.311 . S
C77 N76 1.355 . S
C77 C78 1.363 . S
C77 H89 0.929 . S
C78 C77 1.363 . S
C78 N80 1.375 . S
C78 H96 0.931 . S
C79 N76 1.311 . S
C79 N80 1.347 . S
C79 H90 0.929 . S
N80 C78 1.375 . S
N80 C79 1.347 . S
C81 C84 1.365 . S
C81 N86 1.328 . S
C81 H87 0.929 . S
C82 C83 1.362 . S
C82 C85 1.378 . S
C82 H97 0.929 . S
C83 C82 1.362 . S
C83 C84 1.366 . S
C84 C81 1.365 . S
C84 C83 1.366 . S
C84 H98 0.930 . S
C85 C82 1.378 . S
C85 N86 1.315 . S
C85 H88 0.930 . S
N86 Co66 2.194 . S
N86 C81 1.328 . S
N86 C85 1.315 . S
H87 C81 0.929 . S
H88 C85 0.930 . S
H89 C77 0.929 . S
H90 C79 0.929 . S
O91 Co66 2.351 . S
O91 C94 1.244 . S
O92 Co66 2.155 . S
O92 C94 1.240 . S
O93 Co66 2.096 . S
O93 C74 1.247 . S
C94 O91 1.244 . S
C94 O92 1.240 . S
H95 C69 0.931 . S
H96 C78 0.931 . S
H97 C82 0.929 . S
H98 C84 0.930 . S
Co99 N103 2.148 . S
Co99 N109 2.128 . S
Co99 N119 2.194 . S
Co99 O124 2.351 . S
Co99 O125 2.155 . S
Co99 O126 2.096 . S
C100 N103 1.301 . S
C100 N104 1.328 . S
C100 H105 0.930 . S
C101 C102 1.333 1_565 S
C101 N103 1.317 . S
C101 H106 0.930 1_565 S
C102 C101 1.333 1_545 S
C102 N104 1.350 1_545 S
C102 H128 0.931 . S
N103 Co99 2.148 . S
N103 C100 1.301 . S
N103 C101 1.317 . S
N104 C100 1.328 . S
N104 C102 1.350 1_565 S
H105 C100 0.930 . S
H106 C101 0.930 1_545 S
C107 O108 1.224 . S
C107 O126 1.247 . S
O108 C107 1.224 . S
N109 Co99 2.128 . S
N109 C110 1.355 . S
N109 C112 1.311 1_556 S
C110 N109 1.355 . S
C110 C111 1.363 1_556 S
C110 H122 0.929 . S
C111 C110 1.363 1_554 S
C111 N113 1.375 . S
C111 H129 0.931 . S
C112 N109 1.311 1_554 S
C112 N113 1.347 . S
C112 H123 0.929 . S
N113 C111 1.375 . S
N113 C112 1.347 . S
C114 C117 1.365 . S
C114 N119 1.328 . S
C114 H120 0.929 . S
C115 C116 1.362 . S
C115 C118 1.378 . S
C115 H130 0.929 . S
C116 C115 1.362 . S
C116 C117 1.366 . S
C117 C114 1.365 . S
C117 C116 1.366 . S
C117 H131 0.930 . S
C118 C115 1.378 . S
C118 N119 1.315 . S
C118 H121 0.930 . S
N119 Co99 2.194 . S
N119 C114 1.328 . S
N119 C118 1.315 . S
H120 C114 0.929 . S
H121 C118 0.930 . S
H122 C110 0.929 . S
H123 C112 0.929 . S
O124 Co99 2.351 . S
O124 C127 1.244 . S
O125 Co99 2.155 . S
O125 C127 1.240 . S
O126 Co99 2.096 . S
O126 C107 1.247 . S
C127 O124 1.244 . S
C127 O125 1.240 . S
H128 C102 0.931 . S
H129 C111 0.931 . S
H130 C115 0.929 . S
H131 C117 0.930 . S
Co132 N136 2.148 . S
Co132 N142 2.128 . S
Co132 N152 2.194 . S
Co132 O157 2.351 . S
Co132 O158 2.155 . S
Co132 O159 2.096 . S
C133 N136 1.301 . S
C133 N137 1.328 . S
C133 H138 0.930 . S
C134 C135 1.333 1_455 S
C134 N136 1.317 . S
C134 H139 0.930 1_455 S
C135 C134 1.333 1_655 S
C135 N137 1.350 1_655 S
C135 H161 0.931 . S
N136 Co132 2.148 . S
N136 C133 1.301 . S
N136 C134 1.317 . S
N137 C133 1.328 . S
N137 C135 1.350 1_455 S
H138 C133 0.930 . S
H139 C134 0.930 1_655 S
C140 O141 1.224 . S
C140 O159 1.247 . S
O141 C140 1.224 . S
N142 Co132 2.128 . S
N142 C143 1.355 . S
N142 C145 1.311 . S
C143 N142 1.355 . S
C143 C144 1.363 . S
C143 H155 0.929 . S
C144 C143 1.363 . S
C144 N146 1.375 . S
C144 H162 0.931 . S
C145 N142 1.311 . S
C145 N146 1.347 . S
C145 H156 0.929 . S
N146 C144 1.375 . S
N146 C145 1.347 . S
C147 C150 1.365 . S
C147 N152 1.328 . S
C147 H153 0.929 . S
C148 C149 1.362 . S
C148 C151 1.378 . S
C148 H163 0.929 . S
C149 C148 1.362 . S
C149 C150 1.366 . S
C150 C147 1.365 . S
C150 C149 1.366 . S
C150 H164 0.930 . S
C151 C148 1.378 . S
C151 N152 1.315 . S
C151 H154 0.930 . S
N152 Co132 2.194 . S
N152 C147 1.328 . S
N152 C151 1.315 . S
H153 C147 0.929 . S
H154 C151 0.930 . S
H155 C143 0.929 . S
H156 C145 0.929 . S
O157 Co132 2.351 . S
O157 C160 1.244 . S
O158 Co132 2.155 . S
O158 C160 1.240 . S
O159 Co132 2.096 . S
O159 C140 1.247 . S
C160 O157 1.244 . S
C160 O158 1.240 . S
H161 C135 0.931 . S
H162 C144 0.931 . S
H163 C148 0.929 . S
H164 C150 0.930 . S
Co165 N169 2.148 . S
Co165 N175 2.128 . S
Co165 N185 2.194 . S
Co165 O190 2.351 . S
Co165 O191 2.155 . S
Co165 O192 2.096 . S
C166 N169 1.301 . S
C166 N170 1.328 . S
C166 H171 0.930 . S
C167 C168 1.333 1_545 S
C167 N169 1.317 . S
C167 H172 0.930 1_545 S
C168 C167 1.333 1_565 S
C168 N170 1.350 1_565 S
C168 H194 0.931 . S
N169 Co165 2.148 . S
N169 C166 1.301 . S
N169 C167 1.317 . S
N170 C166 1.328 . S
N170 C168 1.350 1_545 S
H171 C166 0.930 . S
H172 C167 0.930 1_565 S
C173 O174 1.224 . S
C173 O192 1.247 . S
O174 C173 1.224 . S
N175 Co165 2.128 . S
N175 C176 1.355 . S
N175 C178 1.311 . S
C176 N175 1.355 . S
C176 C177 1.363 . S
C176 H188 0.929 . S
C177 C176 1.363 . S
C177 N179 1.375 . S
C177 H195 0.931 . S
C178 N175 1.311 . S
C178 N179 1.347 . S
C178 H189 0.929 . S
N179 C177 1.375 . S
N179 C178 1.347 . S
C180 C183 1.365 . S
C180 N185 1.328 . S
C180 H186 0.929 . S
C181 C182 1.362 . S
C181 C184 1.378 . S
C181 H196 0.929 . S
C182 C181 1.362 . S
C182 C183 1.366 . S
C183 C180 1.365 . S
C183 C182 1.366 . S
C183 H197 0.930 . S
C184 C181 1.378 . S
C184 N185 1.315 . S
C184 H187 0.930 . S
N185 Co165 2.194 . S
N185 C180 1.328 . S
N185 C184 1.315 . S
H186 C180 0.929 . S
H187 C184 0.930 . S
H188 C176 0.929 . S
H189 C178 0.929 . S
O190 Co165 2.351 . S
O190 C193 1.244 . S
O191 Co165 2.155 . S
O191 C193 1.240 . S
O192 Co165 2.096 . S
O192 C173 1.247 . S
C193 O190 1.244 . S
C193 O191 1.240 . S
H194 C168 0.931 . S
H195 C177 0.931 . S
H196 C181 0.929 . S
H197 C183 0.930 . S
Co198 N202 2.148 . S
Co198 N208 2.128 . S
Co198 N218 2.194 . S
Co198 O223 2.351 . S
Co198 O224 2.155 . S
Co198 O225 2.096 . S
C199 N202 1.301 . S
C199 N203 1.328 . S
C199 H204 0.930 . S
C200 C201 1.333 1_655 S
C200 N202 1.317 . S
C200 H205 0.930 1_655 S
C201 C200 1.333 1_455 S
C201 N203 1.350 1_455 S
C201 H227 0.931 . S
N202 Co198 2.148 . S
N202 C199 1.301 . S
N202 C200 1.317 . S
N203 C199 1.328 . S
N203 C201 1.350 1_655 S
H204 C199 0.930 . S
H205 C200 0.930 1_455 S
C206 O207 1.224 . S
C206 O225 1.247 . S
O207 C206 1.224 . S
N208 Co198 2.128 . S
N208 C209 1.355 . S
N208 C211 1.311 . S
C209 N208 1.355 . S
C209 C210 1.363 . S
C209 H221 0.929 . S
C210 C209 1.363 . S
C210 N212 1.375 . S
C210 H228 0.931 . S
C211 N208 1.311 . S
C211 N212 1.347 . S
C211 H222 0.929 . S
N212 C210 1.375 . S
N212 C211 1.347 . S
C213 C216 1.365 . S
C213 N218 1.328 . S
C213 H219 0.929 . S
C214 C215 1.362 . S
C214 C217 1.378 . S
C214 H229 0.929 . S
C215 C214 1.362 . S
C215 C216 1.366 . S
C216 C213 1.365 . S
C216 C215 1.366 . S
C216 H230 0.930 . S
C217 C214 1.378 . S
C217 N218 1.315 . S
C217 H220 0.930 . S
N218 Co198 2.194 . S
N218 C213 1.328 . S
N218 C217 1.315 . S
H219 C213 0.929 . S
H220 C217 0.930 . S
H221 C209 0.929 . S
H222 C211 0.929 . S
O223 Co198 2.351 . S
O223 C226 1.244 . S
O224 Co198 2.155 . S
O224 C226 1.240 . S
O225 Co198 2.096 . S
O225 C206 1.247 . S
C226 O223 1.244 . S
C226 O224 1.240 . S
H227 C201 0.931 . S
H228 C210 0.931 . S
H229 C214 0.929 . S
H230 C216 0.930 . S
Co231 N235 2.148 . S
Co231 N241 2.128 . S
Co231 N251 2.194 . S
Co231 O256 2.351 . S
Co231 O257 2.155 . S
Co231 O258 2.096 . S
C232 N235 1.301 . S
C232 N236 1.328 . S
C232 H237 0.930 . S
C233 C234 1.333 1_565 S
C233 N235 1.317 . S
C233 H238 0.930 1_565 S
C234 C233 1.333 1_545 S
C234 N236 1.350 1_545 S
C234 H260 0.931 . S
N235 Co231 2.148 . S
N235 C232 1.301 . S
N235 C233 1.317 . S
N236 C232 1.328 . S
N236 C234 1.350 1_565 S
H237 C232 0.930 . S
H238 C233 0.930 1_545 S
C239 O240 1.224 . S
C239 O258 1.247 . S
O240 C239 1.224 . S
N241 Co231 2.128 . S
N241 C242 1.355 . S
N241 C244 1.311 1_554 S
C242 N241 1.355 . S
C242 C243 1.363 1_554 S
C242 H254 0.929 . S
C243 C242 1.363 1_556 S
C243 N245 1.375 . S
C243 H261 0.931 . S
C244 N241 1.311 1_556 S
C244 N245 1.347 . S
C244 H255 0.929 . S
N245 C243 1.375 . S
N245 C244 1.347 . S
C246 C249 1.365 . S
C246 N251 1.328 . S
C246 H252 0.929 . S
C247 C248 1.362 . S
C247 C250 1.378 . S
C247 H262 0.929 . S
C248 C247 1.362 . S
C248 C249 1.366 . S
C249 C246 1.365 . S
C249 C248 1.366 . S
C249 H263 0.930 . S
C250 C247 1.378 . S
C250 N251 1.315 . S
C250 H253 0.930 . S
N251 Co231 2.194 . S
N251 C246 1.328 . S
N251 C250 1.315 . S
H252 C246 0.929 . S
H253 C250 0.930 . S
H254 C242 0.929 . S
H255 C244 0.929 . S
O256 Co231 2.351 . S
O256 C259 1.244 . S
O257 Co231 2.155 . S
O257 C259 1.240 . S
O258 Co231 2.096 . S
O258 C239 1.247 . S
C259 O256 1.244 . S
C259 O257 1.240 . S
H260 C234 0.931 . S
H261 C243 0.931 . S
H262 C247 0.929 . S
H263 C249 0.930 . S
H264 C282 0.951 . S
H265 C284 0.951 . S
H266 C286 0.950 . S
H267 C287 0.950 . S
H268 C289 0.950 . S
H269 C292 0.950 . S
H270 C293 0.950 . S
H271 C295 0.950 . S
H272 C296 0.950 . S
H273 C297 0.951 . S
H274 C299 0.951 . S
H275 C301 0.950 . S
H276 C302 0.950 . S
H277 C304 0.950 . S
H278 C307 0.950 . S
H279 C308 0.950 . S
H280 C310 0.950 . S
H281 C311 0.950 . S
C282 H264 0.951 . S
C282 C283 1.366 . S
C282 C284 1.388 . S
C283 C282 1.366 . S
C283 C287 1.385 . S
C284 H265 0.951 . S
C284 C282 1.388 . S
C284 C285 1.366 . S
C285 C284 1.366 . S
C285 C286 1.414 . S
C285 C288 1.499 . S
C286 H266 0.950 . S
C286 C285 1.414 . S
C286 C287 1.374 . S
C287 H267 0.950 . S
C287 C283 1.385 . S
C287 C286 1.374 . S
C288 C285 1.499 . S
C288 C289 1.373 . S
C288 C290 1.389 . S
C289 H268 0.950 . S
C289 C288 1.373 . S
C289 C305 1.377 . S
C290 C288 1.389 . S
C290 C291 1.524 . S
C290 C304 1.377 . S
C291 C290 1.524 . S
C291 C292 1.397 . S
C291 C296 1.363 . S
C292 H269 0.950 . S
C292 C291 1.397 . S
C292 C293 1.334 . S
C293 H270 0.950 . S
C293 C292 1.334 . S
C293 C294 1.287 . S
C294 C293 1.287 . S
C294 C295 1.524 . S
C294 H313 0.913 . S
C295 H271 0.950 . S
C295 C294 1.524 . S
C295 C296 1.415 . S
C296 H272 0.950 . S
C296 C291 1.363 . S
C296 C295 1.415 . S
C297 H273 0.951 . S
C297 C298 1.366 . S
C297 C299 1.388 . S
C298 C297 1.366 . S
C298 C302 1.385 . S
C299 H274 0.951 . S
C299 C297 1.388 . S
C299 C300 1.366 . S
C300 C299 1.366 . S
C300 C301 1.414 . S
C300 C303 1.499 . S
C301 H275 0.950 . S
C301 C300 1.414 . S
C301 C302 1.374 . S
C302 H276 0.950 . S
C302 C298 1.385 . S
C302 C301 1.374 . S
C303 C300 1.499 . S
C303 C304 1.373 . S
C303 C305 1.389 . S
C304 H277 0.950 . S
C304 C290 1.377 . S
C304 C303 1.373 . S
C305 C289 1.377 . S
C305 C303 1.389 . S
C305 C306 1.524 . S
C306 C305 1.524 . S
C306 C307 1.397 . S
C306 C311 1.363 . S
C307 H278 0.950 . S
C307 C306 1.397 . S
C307 C308 1.334 . S
C308 H279 0.950 . S
C308 C307 1.334 . S
C308 C309 1.250 1_455 S
C309 C308 1.250 1_655 S
C309 C310 1.538 . S
C309 H312 1.029 . S
C310 H280 0.950 . S
C310 C309 1.538 . S
C310 C311 1.415 1_655 S
C311 H281 0.950 . S
C311 C306 1.363 . S
C311 C310 1.415 1_455 S
H312 C309 1.029 . S
H313 C294 0.913 . S
H314 C332 0.951 . S
H315 C334 0.951 . S
H316 C336 0.950 . S
H317 C337 0.950 . S
H318 C339 0.950 . S
H319 C342 0.950 . S
H320 C343 0.950 . S
H321 C345 0.950 1_565 S
H322 C346 0.950 . S
H323 C347 0.951 . S
H324 C349 0.951 . S
H325 C351 0.950 . S
H326 C352 0.950 . S
H327 C354 0.950 . S
H328 C357 0.950 . S
H329 C358 0.950 . S
H330 C360 0.950 . S
H331 C361 0.950 . S
C332 H314 0.951 . S
C332 C333 1.366 . S
C332 C334 1.388 . S
C333 C332 1.366 . S
C333 C337 1.385 . S
C334 H315 0.951 . S
C334 C332 1.388 . S
C334 C335 1.366 . S
C335 C334 1.366 . S
C335 C336 1.414 . S
C335 C338 1.499 . S
C336 H316 0.950 . S
C336 C335 1.414 . S
C336 C337 1.374 . S
C337 H317 0.950 . S
C337 C333 1.385 . S
C337 C336 1.374 . S
C338 C335 1.499 . S
C338 C339 1.373 . S
C338 C340 1.389 . S
C339 H318 0.950 . S
C339 C338 1.373 . S
C339 C355 1.377 . S
C340 C338 1.389 . S
C340 C341 1.524 . S
C340 C354 1.377 . S
C341 C340 1.524 . S
C341 C342 1.397 . S
C341 C346 1.363 . S
C342 H319 0.950 . S
C342 C341 1.397 . S
C342 C343 1.334 . S
C343 H320 0.950 . S
C343 C342 1.334 . S
C343 C344 1.287 . S
C344 C343 1.287 . S
C344 C345 1.524 . S
C344 H363 0.913 . S
C345 H321 0.950 1_545 S
C345 C344 1.524 . S
C345 C346 1.415 . S
C346 H322 0.950 . S
C346 C341 1.363 . S
C346 C345 1.415 . S
C347 H323 0.951 . S
C347 C348 1.366 . S
C347 C349 1.388 . S
C348 C347 1.366 . S
C348 C352 1.385 . S
C349 H324 0.951 . S
C349 C347 1.388 . S
C349 C350 1.366 . S
C350 C349 1.366 . S
C350 C351 1.414 . S
C350 C353 1.499 . S
C351 H325 0.950 . S
C351 C350 1.414 . S
C351 C352 1.374 . S
C352 H326 0.950 . S
C352 C348 1.385 . S
C352 C351 1.374 . S
C353 C350 1.499 . S
C353 C354 1.373 . S
C353 C355 1.389 . S
C354 H327 0.950 . S
C354 C340 1.377 . S
C354 C353 1.373 . S
C355 C339 1.377 . S
C355 C353 1.389 . S
C355 C356 1.524 . S
C356 C355 1.524 . S
C356 C357 1.397 . S
C356 C361 1.363 . S
C357 H328 0.950 . S
C357 C356 1.397 . S
C357 C358 1.334 . S
C358 H329 0.950 . S
C358 C357 1.334 . S
C358 C359 1.287 . S
C359 C358 1.287 . S
C359 C360 1.524 . S
C359 H362 0.999 . S
C360 H330 0.950 . S
C360 C359 1.524 . S
C360 C361 1.415 . S
C361 H331 0.950 . S
C361 C356 1.363 . S
C361 C360 1.415 . S
H362 C359 0.999 . S
H363 C344 0.913 . S
H364 C382 0.951 . S
H365 C384 0.951 . S
H366 C386 0.950 . S
H367 C387 0.950 . S
H368 C389 0.950 . S
H369 C392 0.950 . S
H370 C393 0.950 . S
H371 C395 0.950 . S
H372 C396 0.950 . S
H373 C397 0.951 . S
H374 C399 0.951 . S
H375 C401 0.950 . S
H376 C402 0.950 . S
H377 C404 0.950 . S
H378 C407 0.950 . S
H379 C408 0.950 . S
H380 C410 0.950 . S
H381 C411 0.950 . S
C382 H364 0.951 . S
C382 C383 1.366 . S
C382 C384 1.388 . S
C383 C382 1.366 . S
C383 C387 1.385 . S
C384 H365 0.951 . S
C384 C382 1.388 . S
C384 C385 1.366 . S
C385 C384 1.366 . S
C385 C386 1.414 . S
C385 C388 1.499 . S
C386 H366 0.950 . S
C386 C385 1.414 . S
C386 C387 1.374 . S
C387 H367 0.950 . S
C387 C383 1.385 . S
C387 C386 1.374 . S
C388 C385 1.499 . S
C388 C389 1.373 . S
C388 C390 1.389 . S
C389 H368 0.950 . S
C389 C388 1.373 . S
C389 C405 1.377 . S
C390 C388 1.389 . S
C390 C391 1.524 . S
C390 C404 1.377 . S
C391 C390 1.524 . S
C391 C392 1.397 . S
C391 C396 1.363 . S
C392 H369 0.950 . S
C392 C391 1.397 . S
C392 C393 1.334 . S
C393 H370 0.950 . S
C393 C392 1.334 . S
C393 C394 1.287 . S
C394 C393 1.287 . S
C394 C395 1.524 . S
C394 H413 0.913 . S
C395 H371 0.950 . S
C395 C394 1.524 . S
C395 C396 1.415 . S
C396 H372 0.950 . S
C396 C391 1.363 . S
C396 C395 1.415 . S
C397 H373 0.951 . S
C397 C398 1.366 . S
C397 C399 1.388 . S
C398 C397 1.366 . S
C398 C402 1.385 . S
C399 H374 0.951 . S
C399 C397 1.388 . S
C399 C400 1.366 . S
C400 C399 1.366 . S
C400 C401 1.414 . S
C400 C403 1.499 . S
C401 H375 0.950 . S
C401 C400 1.414 . S
C401 C402 1.374 . S
C402 H376 0.950 . S
C402 C398 1.385 . S
C402 C401 1.374 . S
C403 C400 1.499 . S
C403 C404 1.373 . S
C403 C405 1.389 . S
C404 H377 0.950 . S
C404 C390 1.377 . S
C404 C403 1.373 . S
C405 C389 1.377 . S
C405 C403 1.389 . S
C405 C406 1.524 . S
C406 C405 1.524 . S
C406 C407 1.397 . S
C406 C411 1.363 . S
C407 H378 0.950 . S
C407 C406 1.397 . S
C407 C408 1.334 . S
C408 H379 0.950 . S
C408 C407 1.334 . S
C408 C409 1.287 . S
C409 C408 1.287 . S
C409 C410 1.524 . S
C409 H412 0.999 . S
C410 H380 0.950 . S
C410 C409 1.524 . S
C410 C411 1.415 . S
C411 H381 0.950 . S
C411 C406 1.363 . S
C411 C410 1.415 . S
H412 C409 0.999 . S
H413 C394 0.913 . S
H414 C432 0.951 1_554 S
H415 C434 0.953 1_554 S
H416 C436 0.950 . S
H417 C437 0.950 . S
H418 C439 0.950 . S
H419 C442 0.950 . S
H420 C443 0.950 . S
H421 C445 0.950 . S
H422 C446 0.950 . S
H423 C447 0.951 1_556 S
H424 C449 0.953 1_556 S
H425 C451 0.950 . S
H426 C452 0.950 . S
H427 C454 0.950 . S
H428 C457 0.950 . S
H429 C458 0.950 . S
H430 C460 0.950 . S
H431 C461 0.950 . S
C432 H414 0.951 1_556 S
C432 C433 1.366 . S
C432 C434 1.387 . S
C433 C432 1.366 . S
C433 C437 1.385 . S
C434 H415 0.953 1_556 S
C434 C432 1.387 . S
C434 C435 1.364 . S
C435 C434 1.364 . S
C435 C436 1.414 . S
C435 C438 1.499 . S
C436 H416 0.950 . S
C436 C435 1.414 . S
C436 C437 1.374 . S
C437 H417 0.950 . S
C437 C433 1.385 . S
C437 C436 1.374 . S
C438 C435 1.499 . S
C438 C439 1.373 . S
C438 C440 1.389 1_556 S
C439 H418 0.950 . S
C439 C438 1.373 . S
C439 C455 1.377 . S
C440 C438 1.389 1_554 S
C440 C441 1.524 . S
C440 C454 1.377 . S
C441 C440 1.524 . S
C441 C442 1.397 . S
C441 C446 1.363 . S
C442 H419 0.950 . S
C442 C441 1.397 . S
C442 C443 1.334 . S
C443 H420 0.950 . S
C443 C442 1.334 . S
C443 C444 1.287 . S
C444 C443 1.287 . S
C444 C445 1.524 . S
C444 H463 0.913 . S
C445 H421 0.950 . S
C445 C444 1.524 . S
C445 C446 1.415 . S
C446 H422 0.950 . S
C446 C441 1.363 . S
C446 C445 1.415 . S
C447 H423 0.951 1_554 S
C447 C448 1.366 . S
C447 C449 1.387 . S
C448 C447 1.366 . S
C448 C452 1.385 . S
C449 H424 0.953 1_554 S
C449 C447 1.387 . S
C449 C450 1.364 . S
C450 C449 1.364 . S
C450 C451 1.414 . S
C450 C453 1.499 . S
C451 H425 0.950 . S
C451 C450 1.414 . S
C451 C452 1.374 . S
C452 H426 0.950 . S
C452 C448 1.385 . S
C452 C451 1.374 . S
C453 C450 1.499 . S
C453 C454 1.373 . S
C453 C455 1.389 1_554 S
C454 H427 0.950 . S
C454 C440 1.377 . S
C454 C453 1.373 . S
C455 C439 1.377 . S
C455 C453 1.389 1_556 S
C455 C456 1.524 . S
C456 C455 1.524 . S
C456 C457 1.397 . S
C456 C461 1.363 . S
C457 H428 0.950 . S
C457 C456 1.397 . S
C457 C458 1.334 . S
C458 H429 0.950 . S
C458 C457 1.334 . S
C458 C459 1.287 . S
C459 C458 1.287 . S
C459 C460 1.524 . S
C459 H462 0.999 . S
C460 H430 0.950 . S
C460 C459 1.524 . S
C460 C461 1.415 . S
C461 H431 0.950 . S
C461 C456 1.363 . S
C461 C460 1.415 . S
H462 C459 0.999 . S
H463 C444 0.913 . S
H464 C482 0.951 . S
H465 C484 0.951 . S
H466 C486 0.950 . S
H467 C487 0.950 . S
H468 C489 0.950 . S
H469 C492 0.950 . S
H470 C493 0.950 . S
H471 C495 0.950 . S
H472 C496 0.950 . S
H473 C497 0.951 . S
H474 C499 0.951 . S
H475 C501 0.950 . S
H476 C502 0.950 . S
H477 C504 0.950 . S
H478 C507 0.950 . S
H479 C508 0.950 . S
H480 C510 0.950 . S
H481 C511 0.950 . S
C482 H464 0.951 . S
C482 C483 1.366 . S
C482 C484 1.388 . S
C483 C482 1.366 . S
C483 C487 1.385 . S
C484 H465 0.951 . S
C484 C482 1.388 . S
C484 C485 1.366 . S
C485 C484 1.366 . S
C485 C486 1.414 . S
C485 C488 1.499 . S
C486 H466 0.950 . S
C486 C485 1.414 . S
C486 C487 1.374 . S
C487 H467 0.950 . S
C487 C483 1.385 . S
C487 C486 1.374 . S
C488 C485 1.499 . S
C488 C489 1.373 . S
C488 C490 1.389 . S
C489 H468 0.950 . S
C489 C488 1.373 . S
C489 C505 1.377 . S
C490 C488 1.389 . S
C490 C491 1.524 . S
C490 C504 1.377 . S
C491 C490 1.524 . S
C491 C492 1.397 . S
C491 C496 1.363 . S
C492 H469 0.950 . S
C492 C491 1.397 . S
C492 C493 1.334 . S
C493 H470 0.950 . S
C493 C492 1.334 . S
C493 C494 1.287 . S
C494 C493 1.287 . S
C494 C495 1.524 . S
C494 H513 0.913 . S
C495 H471 0.950 . S
C495 C494 1.524 . S
C495 C496 1.415 . S
C496 H472 0.950 . S
C496 C491 1.363 . S
C496 C495 1.415 . S
C497 H473 0.951 . S
C497 C498 1.366 . S
C497 C499 1.388 . S
C498 C497 1.366 . S
C498 C502 1.385 . S
C499 H474 0.951 . S
C499 C497 1.388 . S
C499 C500 1.366 . S
C500 C499 1.366 . S
C500 C501 1.414 . S
C500 C503 1.499 . S
C501 H475 0.950 . S
C501 C500 1.414 . S
C501 C502 1.374 . S
C502 H476 0.950 . S
C502 C498 1.385 . S
C502 C501 1.374 . S
C503 C500 1.499 . S
C503 C504 1.373 . S
C503 C505 1.389 . S
C504 H477 0.950 . S
C504 C490 1.377 . S
C504 C503 1.373 . S
C505 C489 1.377 . S
C505 C503 1.389 . S
C505 C506 1.524 . S
C506 C505 1.524 . S
C506 C507 1.397 . S
C506 C511 1.363 . S
C507 H478 0.950 . S
C507 C506 1.397 . S
C507 C508 1.334 . S
C508 H479 0.950 . S
C508 C507 1.334 . S
C508 C509 1.287 . S
C509 C508 1.287 . S
C509 C510 1.524 . S
C509 H512 0.999 . S
C510 H480 0.950 . S
C510 C509 1.524 . S
C510 C511 1.415 . S
C511 H481 0.950 . S
C511 C506 1.363 . S
C511 C510 1.415 . S
H512 C509 0.999 . S
H513 C494 0.913 . S
H514 C532 0.951 . S
H515 C534 0.951 . S
H516 C536 0.950 . S
H517 C537 0.950 . S
H518 C539 0.950 . S
H519 C542 0.950 . S
H520 C543 0.950 . S
H521 C545 0.950 . S
H522 C546 0.950 . S
H523 C547 0.951 . S
H524 C549 0.951 . S
H525 C551 0.950 . S
H526 C552 0.950 . S
H527 C554 0.950 . S
H528 C557 0.950 . S
H529 C558 0.950 . S
H530 C560 0.950 . S
H531 C561 0.950 . S
C532 H514 0.951 . S
C532 C533 1.366 . S
C532 C534 1.388 . S
C533 C532 1.366 . S
C533 C537 1.385 . S
C534 H515 0.951 . S
C534 C532 1.388 . S
C534 C535 1.366 . S
C535 C534 1.366 . S
C535 C536 1.414 . S
C535 C538 1.499 . S
C536 H516 0.950 . S
C536 C535 1.414 . S
C536 C537 1.374 . S
C537 H517 0.950 . S
C537 C533 1.385 . S
C537 C536 1.374 . S
C538 C535 1.499 . S
C538 C539 1.373 . S
C538 C540 1.389 . S
C539 H518 0.950 . S
C539 C538 1.373 . S
C539 C555 1.377 . S
C540 C538 1.389 . S
C540 C541 1.524 . S
C540 C554 1.377 . S
C541 C540 1.524 . S
C541 C542 1.397 . S
C541 C546 1.363 . S
C542 H519 0.950 . S
C542 C541 1.397 . S
C542 C543 1.334 . S
C543 H520 0.950 . S
C543 C542 1.334 . S
C543 C544 1.287 . S
C544 C543 1.287 . S
C544 C545 1.524 . S
C544 H563 0.913 . S
C545 H521 0.950 . S
C545 C544 1.524 . S
C545 C546 1.415 . S
C546 H522 0.950 . S
C546 C541 1.363 . S
C546 C545 1.415 . S
C547 H523 0.951 . S
C547 C548 1.366 . S
C547 C549 1.388 . S
C548 C547 1.366 . S
C548 C552 1.385 . S
C549 H524 0.951 . S
C549 C547 1.388 . S
C549 C550 1.366 . S
C550 C549 1.366 . S
C550 C551 1.414 . S
C550 C553 1.499 . S
C551 H525 0.950 . S
C551 C550 1.414 . S
C551 C552 1.374 . S
C552 H526 0.950 . S
C552 C548 1.385 . S
C552 C551 1.374 . S
C553 C550 1.499 . S
C553 C554 1.373 . S
C553 C555 1.389 . S
C554 H527 0.950 . S
C554 C540 1.377 . S
C554 C553 1.373 . S
C555 C539 1.377 . S
C555 C553 1.389 . S
C555 C556 1.524 . S
C556 C555 1.524 . S
C556 C557 1.397 . S
C556 C561 1.363 . S
C557 H528 0.950 . S
C557 C556 1.397 . S
C557 C558 1.334 . S
C558 H529 0.950 . S
C558 C557 1.334 . S
C558 C559 1.287 . S
C559 C558 1.287 . S
C559 C560 1.524 . S
C559 H562 0.999 . S
C560 H530 0.950 . S
C560 C559 1.524 . S
C560 C561 1.415 . S
C561 H531 0.950 . S
C561 C556 1.363 . S
C561 C560 1.415 . S
H562 C559 0.999 . S
H563 C544 0.913 . S
H564 C582 0.951 . S
H565 C584 0.951 . S
H566 C586 0.950 . S
H567 C587 0.950 . S
H568 C589 0.950 . S
H569 C592 0.950 . S
H570 C593 0.950 . S
H571 C595 0.950 . S
H572 C596 0.950 . S
H573 C597 0.951 . S
H574 C599 0.951 . S
H575 C601 0.950 . S
H576 C602 0.950 . S
H577 C604 0.950 . S
H578 C607 0.950 . S
H579 C608 0.950 . S
H580 C610 0.950 . S
H581 C611 0.950 . S
C582 H564 0.951 . S
C582 C583 1.366 . S
C582 C584 1.388 . S
C583 C582 1.366 . S
C583 C587 1.385 . S
C584 H565 0.951 . S
C584 C582 1.388 . S
C584 C585 1.366 . S
C585 C584 1.366 . S
C585 C586 1.414 . S
C585 C588 1.499 . S
C586 H566 0.950 . S
C586 C585 1.414 . S
C586 C587 1.374 . S
C587 H567 0.950 . S
C587 C583 1.385 . S
C587 C586 1.374 . S
C588 C585 1.499 . S
C588 C589 1.373 . S
C588 C590 1.389 . S
C589 H568 0.950 . S
C589 C588 1.373 . S
C589 C605 1.377 . S
C590 C588 1.389 . S
C590 C591 1.524 . S
C590 C604 1.377 . S
C591 C590 1.524 . S
C591 C592 1.397 . S
C591 C596 1.363 . S
C592 H569 0.950 . S
C592 C591 1.397 . S
C592 C593 1.334 . S
C593 H570 0.950 . S
C593 C592 1.334 . S
C593 C594 1.287 . S
C594 C593 1.287 . S
C594 C595 1.524 . S
C594 H613 0.913 . S
C595 H571 0.950 . S
C595 C594 1.524 . S
C595 C596 1.415 . S
C596 H572 0.950 . S
C596 C591 1.363 . S
C596 C595 1.415 . S
C597 H573 0.951 . S
C597 C598 1.366 . S
C597 C599 1.388 . S
C598 C597 1.366 . S
C598 C602 1.385 . S
C599 H574 0.951 . S
C599 C597 1.388 . S
C599 C600 1.366 . S
C600 C599 1.366 . S
C600 C601 1.414 . S
C600 C603 1.499 . S
C601 H575 0.950 . S
C601 C600 1.414 . S
C601 C602 1.374 . S
C602 H576 0.950 . S
C602 C598 1.385 . S
C602 C601 1.374 . S
C603 C600 1.499 . S
C603 C604 1.373 . S
C603 C605 1.389 . S
C604 H577 0.950 . S
C604 C590 1.377 . S
C604 C603 1.373 . S
C605 C589 1.377 . S
C605 C603 1.389 . S
C605 C606 1.524 . S
C606 C605 1.524 . S
C606 C607 1.397 . S
C606 C611 1.363 . S
C607 H578 0.950 . S
C607 C606 1.397 . S
C607 C608 1.334 . S
C608 H579 0.950 . S
C608 C607 1.334 . S
C608 C609 1.287 . S
C609 C608 1.287 . S
C609 C610 1.524 . S
C609 H612 0.999 . S
C610 H580 0.950 . S
C610 C609 1.524 . S
C610 C611 1.415 . S
C611 H581 0.950 . S
C611 C606 1.363 . S
C611 C610 1.415 . S
H612 C609 0.999 . S
H613 C594 0.913 . S
H614 C632 0.951 . S
H615 C634 0.951 . S
H616 C636 0.950 . S
H617 C637 0.950 . S
H618 C639 0.950 . S
H619 C642 0.950 . S
H620 C643 0.950 . S
H621 C645 0.950 . S
H622 C646 0.950 . S
H623 C647 0.951 . S
H624 C649 0.951 . S
H625 C651 0.950 . S
H626 C652 0.950 . S
H627 C654 0.950 . S
H628 C657 0.950 . S
H629 C658 0.950 . S
H630 C660 0.950 . S
H631 C661 0.950 . S
C632 H614 0.951 . S
C632 C633 1.366 . S
C632 C634 1.388 . S
C633 C632 1.366 . S
C633 C637 1.385 . S
C634 H615 0.951 . S
C634 C632 1.388 . S
C634 C635 1.366 . S
C635 C634 1.366 . S
C635 C636 1.414 . S
C635 C638 1.499 . S
C636 H616 0.950 . S
C636 C635 1.414 . S
C636 C637 1.374 . S
C637 H617 0.950 . S
C637 C633 1.385 . S
C637 C636 1.374 . S
C638 C635 1.499 . S
C638 C639 1.373 . S
C638 C640 1.389 . S
C639 H618 0.950 . S
C639 C638 1.373 . S
C639 C655 1.377 . S
C640 C638 1.389 . S
C640 C641 1.524 . S
C640 C654 1.377 . S
C641 C640 1.524 . S
C641 C642 1.397 . S
C641 C646 1.363 . S
C642 H619 0.950 . S
C642 C641 1.397 . S
C642 C643 1.334 . S
C643 H620 0.950 . S
C643 C642 1.334 . S
C643 C644 1.287 . S
C644 C643 1.287 . S
C644 C645 1.524 . S
C644 H663 0.913 . S
C645 H621 0.950 . S
C645 C644 1.524 . S
C645 C646 1.415 . S
C646 H622 0.950 . S
C646 C641 1.363 . S
C646 C645 1.415 . S
C647 H623 0.951 . S
C647 C648 1.366 . S
C647 C649 1.388 . S
C648 C647 1.366 . S
C648 C652 1.385 . S
C649 H624 0.951 . S
C649 C647 1.388 . S
C649 C650 1.366 . S
C650 C649 1.366 . S
C650 C651 1.414 . S
C650 C653 1.499 . S
C651 H625 0.950 . S
C651 C650 1.414 . S
C651 C652 1.374 . S
C652 H626 0.950 . S
C652 C648 1.385 . S
C652 C651 1.374 . S
C653 C650 1.499 . S
C653 C654 1.373 . S
C653 C655 1.389 . S
C654 H627 0.950 . S
C654 C640 1.377 . S
C654 C653 1.373 . S
C655 C639 1.377 . S
C655 C653 1.389 . S
C655 C656 1.524 . S
C656 C655 1.524 . S
C656 C657 1.397 . S
C656 C661 1.363 . S
C657 H628 0.950 . S
C657 C656 1.397 . S
C657 C658 1.334 . S
C658 H629 0.950 . S
C658 C657 1.334 . S
C658 C659 1.287 . S
C659 C658 1.287 . S
C659 C660 1.524 . S
C659 H662 0.999 . S
C660 H630 0.950 . S
C660 C659 1.524 . S
C660 C661 1.415 . S
C661 H631 0.950 . S
C661 C656 1.363 . S
C661 C660 1.415 . S
H662 C659 0.999 . S
H663 C644 0.913 . S
H664 C682 0.951 . S
H665 C684 0.951 . S
H666 C686 0.950 . S
H667 C687 0.950 . S
H668 C689 0.950 . S
H669 C692 0.950 . S
H670 C693 0.950 . S
H671 C695 0.950 1_455 S
H672 C696 0.950 . S
H673 C697 0.951 . S
H674 C699 0.951 . S
H675 C701 0.950 . S
H676 C702 0.950 . S
H677 C704 0.950 . S
H678 C707 0.950 . S
H679 C708 0.950 . S
H680 C710 0.950 1_655 S
H681 C711 0.950 . S
C682 H664 0.951 . S
C682 C683 1.366 . S
C682 C684 1.388 . S
C683 C682 1.366 . S
C683 C687 1.385 1_455 S
C684 H665 0.951 . S
C684 C682 1.388 . S
C684 C685 1.366 . S
C685 C684 1.366 . S
C685 C686 1.414 1_455 S
C685 C688 1.499 . S
C686 H666 0.950 . S
C686 C685 1.414 1_655 S
C686 C687 1.374 . S
C687 H667 0.950 . S
C687 C683 1.385 1_655 S
C687 C686 1.374 . S
C688 C685 1.499 . S
C688 C689 1.373 . S
C688 C690 1.389 1_455 S
C689 H668 0.950 . S
C689 C688 1.373 . S
C689 C705 1.377 1_554 S
C690 C688 1.389 1_655 S
C690 C691 1.524 . S
C690 C704 1.377 1_554 S
C691 C690 1.524 . S
C691 C692 1.397 . S
C691 C696 1.363 1_655 S
C692 H669 0.950 . S
C692 C691 1.397 . S
C692 C693 1.334 . S
C693 H670 0.950 . S
C693 C692 1.334 . S
C693 C694 1.287 . S
C694 C693 1.287 . S
C694 C695 1.524 . S
C694 H713 0.913 . S
C695 H671 0.950 1_655 S
C695 C694 1.524 . S
C695 C696 1.415 1_655 S
C696 H672 0.950 . S
C696 C691 1.363 1_455 S
C696 C695 1.415 1_455 S
C697 H673 0.951 . S
C697 C698 1.366 . S
C697 C699 1.388 . S
C698 C697 1.366 . S
C698 C702 1.385 1_655 S
C699 H674 0.951 . S
C699 C697 1.388 . S
C699 C700 1.366 . S
C700 C699 1.366 . S
C700 C701 1.414 1_655 S
C700 C703 1.499 . S
C701 H675 0.950 . S
C701 C700 1.414 1_455 S
C701 C702 1.374 . S
C702 H676 0.950 . S
C702 C698 1.385 1_455 S
C702 C701 1.374 . S
C703 C700 1.499 . S
C703 C704 1.373 . S
C703 C705 1.389 1_655 S
C704 H677 0.950 . S
C704 C690 1.377 1_556 S
C704 C703 1.373 . S
C705 C689 1.377 1_556 S
C705 C703 1.389 1_455 S
C705 C706 1.524 . S
C706 C705 1.524 . S
C706 C707 1.397 . S
C706 C711 1.363 1_455 S
C707 H678 0.950 . S
C707 C706 1.397 . S
C707 C708 1.334 . S
C708 H679 0.950 . S
C708 C707 1.334 . S
C708 C709 1.287 . S
C709 C708 1.287 . S
C709 C710 1.524 . S
C709 H712 0.999 . S
C710 H680 0.950 1_455 S
C710 C709 1.524 . S
C710 C711 1.415 1_455 S
C711 H681 0.950 . S
C711 C706 1.363 1_655 S
C711 C710 1.415 1_655 S
H712 C709 0.999 . S
H713 C694 0.913 . S
H714 C732 0.951 . S
H715 C734 0.951 . S
H716 C736 0.950 . S
H717 C737 0.950 . S
H718 C739 0.950 . S
H719 C742 0.950 . S
H720 C743 0.950 . S
H721 C745 0.950 . S
H722 C746 0.950 . S
H723 C747 0.951 . S
H724 C749 0.951 . S
H725 C751 0.950 . S
H726 C752 0.950 . S
H727 C754 0.950 . S
H728 C757 0.950 . S
H729 C758 0.950 . S
H730 C760 0.950 . S
H731 C761 0.950 . S
C732 H714 0.951 . S
C732 C733 1.366 . S
C732 C734 1.388 . S
C733 C732 1.366 . S
C733 C737 1.385 1_565 S
C734 H715 0.951 . S
C734 C732 1.388 . S
C734 C735 1.366 . S
C735 C734 1.366 . S
C735 C736 1.414 1_565 S
C735 C738 1.499 . S
C736 H716 0.950 . S
C736 C735 1.414 1_545 S
C736 C737 1.374 . S
C737 H717 0.950 . S
C737 C733 1.385 1_545 S
C737 C736 1.374 . S
C738 C735 1.499 . S
C738 C739 1.373 1_565 S
C738 C740 1.389 . S
C739 H718 0.950 . S
C739 C738 1.373 1_545 S
C739 C755 1.377 . S
C740 C738 1.389 . S
C740 C741 1.524 . S
C740 C754 1.377 . S
C741 C740 1.524 . S
C741 C742 1.397 1_565 S
C741 C746 1.363 . S
C742 H719 0.950 . S
C742 C741 1.397 1_545 S
C742 C743 1.334 . S
C743 H720 0.950 . S
C743 C742 1.334 . S
C743 C744 1.287 1_545 S
C744 C743 1.287 1_565 S
C744 C745 1.524 . S
C744 H763 0.913 . S
C745 H721 0.950 . S
C745 C744 1.524 . S
C745 C746 1.415 . S
C746 H722 0.950 . S
C746 C741 1.363 . S
C746 C745 1.415 . S
C747 H723 0.951 . S
C747 C748 1.366 . S
C747 C749 1.388 . S
C748 C747 1.366 . S
C748 C752 1.385 1_545 S
C749 H724 0.951 . S
C749 C747 1.388 . S
C749 C750 1.366 . S
C750 C749 1.366 . S
C750 C751 1.414 1_545 S
C750 C753 1.499 . S
C751 H725 0.950 . S
C751 C750 1.414 1_565 S
C751 C752 1.374 . S
C752 H726 0.950 . S
C752 C748 1.385 1_565 S
C752 C751 1.374 . S
C753 C750 1.499 . S
C753 C754 1.373 1_545 S
C753 C755 1.389 . S
C754 H727 0.950 . S
C754 C740 1.377 . S
C754 C753 1.373 1_565 S
C755 C739 1.377 . S
C755 C753 1.389 . S
C755 C756 1.524 . S
C756 C755 1.524 . S
C756 C757 1.397 1_545 S
C756 C761 1.363 . S
C757 H728 0.950 . S
C757 C756 1.397 1_565 S
C757 C758 1.334 . S
C758 H729 0.950 . S
C758 C757 1.334 . S
C758 C759 1.287 1_565 S
C759 C758 1.287 1_545 S
C759 C760 1.524 . S
C759 H762 0.999 . S
C760 H730 0.950 . S
C760 C759 1.524 . S
C760 C761 1.415 . S
C761 H731 0.950 . S
C761 C756 1.363 . S
C761 C760 1.415 . S
H762 C759 0.999 . S
H763 C744 0.913 . S
H764 C782 0.951 . S
H765 C784 0.951 . S
H766 C786 0.950 . S
H767 C787 0.947 1_455 S
H768 C789 0.950 . S
H769 C792 0.950 . S
H770 C793 0.950 . S
H771 C795 0.950 . S
H772 C796 0.950 1_655 S
H773 C797 0.951 . S
H774 C799 0.951 . S
H775 C801 0.950 . S
H776 C802 0.947 1_655 S
H777 C804 0.950 . S
H778 C807 0.950 . S
H779 C808 0.950 . S
H780 C810 0.950 . S
H781 C811 0.950 1_455 S
C782 H764 0.951 . S
C782 C783 1.366 . S
C782 C784 1.388 . S
C783 C782 1.366 . S
C783 C787 1.388 . S
C784 H765 0.951 . S
C784 C782 1.388 . S
C784 C785 1.366 . S
C785 C784 1.366 . S
C785 C786 1.414 1_655 S
C785 C788 1.499 . S
C786 H766 0.950 . S
C786 C785 1.414 1_455 S
C786 C787 1.373 1_455 S
C787 H767 0.947 1_655 S
C787 C783 1.388 . S
C787 C786 1.373 1_655 S
C788 C785 1.499 . S
C788 C789 1.373 . S
C788 C790 1.389 1_655 S
C789 H768 0.950 . S
C789 C788 1.373 . S
C789 C805 1.377 . S
C790 C788 1.389 1_455 S
C790 C791 1.524 . S
C790 C804 1.377 . S
C791 C790 1.524 . S
C791 C792 1.397 . S
C791 C796 1.363 . S
C792 H769 0.950 . S
C792 C791 1.397 . S
C792 C793 1.334 . S
C793 H770 0.950 . S
C793 C792 1.334 . S
C793 C794 1.287 . S
C794 C793 1.287 . S
C794 C795 1.524 . S
C794 H813 0.913 . S
C795 H771 0.950 . S
C795 C794 1.524 . S
C795 C796 1.415 . S
C796 H772 0.950 1_455 S
C796 C791 1.363 . S
C796 C795 1.415 . S
C797 H773 0.951 . S
C797 C798 1.366 . S
C797 C799 1.388 . S
C798 C797 1.366 . S
C798 C802 1.388 . S
C799 H774 0.951 . S
C799 C797 1.388 . S
C799 C800 1.366 . S
C800 C799 1.366 . S
C800 C801 1.414 1_455 S
C800 C803 1.499 . S
C801 H775 0.950 . S
C801 C800 1.414 1_655 S
C801 C802 1.373 1_655 S
C802 H776 0.947 1_455 S
C802 C798 1.388 . S
C802 C801 1.373 1_455 S
C803 C800 1.499 . S
C803 C804 1.373 . S
C803 C805 1.389 1_455 S
C804 H777 0.950 . S
C804 C790 1.377 . S
C804 C803 1.373 . S
C805 C789 1.377 . S
C805 C803 1.389 1_655 S
C805 C806 1.524 . S
C806 C805 1.524 . S
C806 C807 1.397 . S
C806 C811 1.363 . S
C807 H778 0.950 . S
C807 C806 1.397 . S
C807 C808 1.334 . S
C808 H779 0.950 . S
C808 C807 1.334 . S
C808 C809 1.287 . S
C809 C808 1.287 . S
C809 C810 1.524 . S
C809 H812 0.999 . S
C810 H780 0.950 . S
C810 C809 1.524 . S
C810 C811 1.415 . S
C811 H781 0.950 1_655 S
C811 C806 1.363 . S
C811 C810 1.415 . S
H812 C809 0.999 . S
H813 C794 0.913 . S
H814 C832 0.951 . S
H815 C834 0.951 . S
H816 C836 0.950 . S
H817 C837 0.950 . S
H818 C839 0.950 . S
H819 C842 0.950 . S
H820 C843 0.950 . S
H821 C845 0.950 . S
H822 C846 0.950 . S
H823 C847 0.951 . S
H824 C849 0.951 . S
H825 C851 0.950 . S
H826 C852 0.950 . S
H827 C854 0.950 . S
H828 C857 0.950 . S
H829 C858 0.950 . S
H830 C860 0.950 . S
H831 C861 0.950 . S
C832 H814 0.951 . S
C832 C833 1.366 1_565 S
C832 C834 1.388 . S
C833 C832 1.366 1_545 S
C833 C837 1.385 . S
C834 H815 0.951 . S
C834 C832 1.388 . S
C834 C835 1.366 1_565 S
C835 C834 1.366 1_545 S
C835 C836 1.414 . S
C835 C838 1.499 . S
C836 H816 0.950 . S
C836 C835 1.414 . S
C836 C837 1.374 . S
C837 H817 0.950 . S
C837 C833 1.385 . S
C837 C836 1.374 . S
C838 C835 1.499 . S
C838 C839 1.373 . S
C838 C840 1.389 1_545 S
C839 H818 0.950 . S
C839 C838 1.373 . S
C839 C855 1.377 . S
C840 C838 1.389 1_565 S
C840 C841 1.525 . S
C840 C854 1.377 . S
C841 C840 1.525 . S
C841 C842 1.366 1_565 S
C841 C846 1.391 . S
C842 H819 0.950 . S
C842 C841 1.366 1_545 S
C842 C843 1.334 . S
C843 H820 0.950 . S
C843 C842 1.334 . S
C843 C844 1.287 . S
C844 C843 1.287 . S
C844 C845 1.524 1_545 S
C844 H863 0.913 . S
C845 H821 0.950 . S
C845 C844 1.524 1_565 S
C845 C846 1.415 . S
C846 H822 0.950 . S
C846 C841 1.391 . S
C846 C845 1.415 . S
C847 H823 0.951 . S
C847 C848 1.366 1_545 S
C847 C849 1.388 . S
C848 C847 1.366 1_565 S
C848 C852 1.385 . S
C849 H824 0.951 . S
C849 C847 1.388 . S
C849 C850 1.366 1_545 S
C850 C849 1.366 1_565 S
C850 C851 1.414 . S
C850 C853 1.499 . S
C851 H825 0.950 . S
C851 C850 1.414 . S
C851 C852 1.374 . S
C852 H826 0.950 . S
C852 C848 1.385 . S
C852 C851 1.374 . S
C853 C850 1.499 . S
C853 C854 1.373 . S
C853 C855 1.389 1_565 S
C854 H827 0.950 . S
C854 C840 1.377 . S
C854 C853 1.373 . S
C855 C839 1.377 . S
C855 C853 1.389 1_545 S
C855 C856 1.525 . S
C856 C855 1.525 . S
C856 C857 1.366 1_545 S
C856 C861 1.391 . S
C857 H828 0.950 . S
C857 C856 1.366 1_565 S
C857 C858 1.334 . S
C858 H829 0.950 . S
C858 C857 1.334 . S
C858 C859 1.287 . S
C859 C858 1.287 . S
C859 C860 1.524 1_565 S
C859 H862 0.999 . S
C860 H830 0.950 . S
C860 C859 1.524 1_545 S
C860 C861 1.415 . S
C861 H831 0.950 . S
C861 C856 1.391 . S
C861 C860 1.415 . S
H862 C859 0.999 . S
H863 C844 0.913 . S
H864 C882 0.951 . S
H865 C884 0.951 . S
H866 C886 0.950 . S
H867 C887 0.950 . S
H868 C889 0.950 . S
H869 C892 0.950 . S
H870 C893 0.950 . S
H871 C895 0.950 . S
H872 C896 0.950 . S
H873 C897 0.942 1_556 S
H874 C899 0.951 . S
H875 C901 0.950 . S
H876 C902 0.950 1_565 S
H877 C904 0.950 . S
H878 C907 0.950 . S
H879 C908 0.950 . S
H880 C910 0.950 . S
H881 C911 0.950 . S
C882 H864 0.951 . S
C882 C883 1.366 . S
C882 C884 1.388 . S
C883 C882 1.366 . S
C883 C887 1.385 . S
C884 H865 0.951 . S
C884 C882 1.388 . S
C884 C885 1.366 . S
C885 C884 1.366 . S
C885 C886 1.414 . S
C885 C888 1.499 . S
C886 H866 0.950 . S
C886 C885 1.414 . S
C886 C887 1.374 . S
C887 H867 0.950 . S
C887 C883 1.385 . S
C887 C886 1.374 . S
C888 C885 1.499 . S
C888 C889 1.373 . S
C888 C890 1.389 . S
C889 H868 0.950 . S
C889 C888 1.373 . S
C889 C905 1.377 . S
C890 C888 1.389 . S
C890 C891 1.524 . S
C890 C904 1.377 . S
C891 C890 1.524 . S
C891 C892 1.397 . S
C891 C896 1.363 . S
C892 H869 0.950 . S
C892 C891 1.397 . S
C892 C893 1.334 . S
C893 H870 0.950 . S
C893 C892 1.334 . S
C893 C894 1.287 . S
C894 C893 1.287 . S
C894 C895 1.524 . S
C894 H913 0.913 . S
C895 H871 0.950 . S
C895 C894 1.524 . S
C895 C896 1.415 . S
C896 H872 0.950 . S
C896 C891 1.363 . S
C896 C895 1.415 . S
C897 H873 0.942 1_554 S
C897 C898 1.366 . S
C897 C899 1.388 . S
C898 C897 1.366 . S
C898 C902 1.385 . S
C899 H874 0.951 . S
C899 C897 1.388 . S
C899 C900 1.366 . S
C900 C899 1.366 . S
C900 C901 1.414 . S
C900 C903 1.499 . S
C901 H875 0.950 . S
C901 C900 1.414 . S
C901 C902 1.374 . S
C902 H876 0.950 1_545 S
C902 C898 1.385 . S
C902 C901 1.374 . S
C903 C900 1.499 . S
C903 C904 1.373 . S
C903 C905 1.389 . S
C904 H877 0.950 . S
C904 C890 1.377 . S
C904 C903 1.373 . S
C905 C889 1.377 . S
C905 C903 1.389 . S
C905 C906 1.524 . S
C906 C905 1.524 . S
C906 C907 1.397 . S
C906 C911 1.363 . S
C907 H878 0.950 . S
C907 C906 1.397 . S
C907 C908 1.334 1_554 S
C908 H879 0.950 . S
C908 C907 1.334 1_556 S
C908 C909 1.287 . S
C909 C908 1.287 . S
C909 C910 1.524 . S
C909 H912 0.999 . S
C910 H880 0.950 . S
C910 C909 1.524 . S
C910 C911 1.415 1_556 S
C911 H881 0.950 . S
C911 C906 1.363 . S
C911 C910 1.415 1_554 S
H912 C909 0.999 . S
H913 C894 0.913 . S
H914 C932 0.951 . S
H915 C934 0.951 . S
H916 C936 0.950 . S
H917 C937 0.950 1_455 S
H918 C939 0.950 . S
H919 C942 0.950 . S
H920 C943 0.950 . S
H921 C945 0.950 . S
H922 C946 0.950 . S
H923 C947 0.951 . S
H924 C949 0.951 . S
H925 C951 0.950 . S
H926 C952 0.950 . S
H927 C954 0.950 . S
H928 C957 0.950 . S
H929 C958 0.950 . S
H930 C960 0.950 . S
H931 C961 0.950 . S
C932 H914 0.951 . S
C932 C933 1.366 . S
C932 C934 1.388 . S
C933 C932 1.366 . S
C933 C937 1.385 . S
C934 H915 0.951 . S
C934 C932 1.388 . S
C934 C935 1.366 . S
C935 C934 1.366 . S
C935 C936 1.414 . S
C935 C938 1.499 . S
C936 H916 0.950 . S
C936 C935 1.414 . S
C936 C937 1.374 . S
C937 H917 0.950 1_655 S
C937 C933 1.385 . S
C937 C936 1.374 . S
C938 C935 1.499 . S
C938 C939 1.373 . S
C938 C940 1.389 . S
C939 H918 0.950 . S
C939 C938 1.373 . S
C939 C955 1.377 . S
C940 C938 1.389 . S
C940 C941 1.524 . S
C940 C954 1.377 . S
C941 C940 1.524 . S
C941 C942 1.397 . S
C941 C946 1.363 . S
C942 H919 0.950 . S
C942 C941 1.397 . S
C942 C943 1.334 . S
C943 H920 0.950 . S
C943 C942 1.334 . S
C943 C944 1.287 . S
C944 C943 1.287 . S
C944 C945 1.524 . S
C944 H963 0.913 . S
C945 H921 0.950 . S
C945 C944 1.524 . S
C945 C946 1.415 . S
C946 H922 0.950 . S
C946 C941 1.363 . S
C946 C945 1.415 . S
C947 H923 0.951 . S
C947 C948 1.366 . S
C947 C949 1.388 . S
C948 C947 1.366 . S
C948 C952 1.385 . S
C949 H924 0.951 . S
C949 C947 1.388 . S
C949 C950 1.366 . S
C950 C949 1.366 . S
C950 C951 1.414 . S
C950 C953 1.499 . S
C951 H925 0.950 . S
C951 C950 1.414 . S
C951 C952 1.374 . S
C952 H926 0.950 . S
C952 C948 1.385 . S
C952 C951 1.374 . S
C953 C950 1.499 . S
C953 C954 1.373 . S
C953 C955 1.389 . S
C954 H927 0.950 . S
C954 C940 1.377 . S
C954 C953 1.373 . S
C955 C939 1.377 . S
C955 C953 1.389 . S
C955 C956 1.524 . S
C956 C955 1.524 . S
C956 C957 1.397 . S
C956 C961 1.363 . S
C957 H928 0.950 . S
C957 C956 1.397 . S
C957 C958 1.334 . S
C958 H929 0.950 . S
C958 C957 1.334 . S
C958 C959 1.287 . S
C959 C958 1.287 . S
C959 C960 1.524 . S
C959 H962 0.999 . S
C960 H930 0.950 . S
C960 C959 1.524 . S
C960 C961 1.415 . S
C961 H931 0.950 . S
C961 C956 1.363 . S
C961 C960 1.415 . S
H962 C959 0.999 . S
H963 C944 0.913 . S
H964 C982 0.951 . S
H965 C984 0.951 . S
H966 C986 0.950 . S
H967 C987 0.950 1_545 S
H968 C989 0.950 . S
H969 C992 0.950 . S
H970 C993 0.950 . S
H971 C995 0.950 . S
H972 C996 0.950 . S
H973 C997 0.951 . S
H974 C999 0.951 . S
H975 C1001 0.950 . S
H976 C1002 0.950 . S
H977 C1004 0.950 . S
H978 C1007 0.950 . S
H979 C1008 0.950 . S
H980 C1010 0.950 . S
H981 C1011 0.950 . S
C982 H964 0.951 . S
C982 C983 1.366 . S
C982 C984 1.388 . S
C983 C982 1.366 . S
C983 C987 1.385 . S
C984 H965 0.951 . S
C984 C982 1.388 . S
C984 C985 1.366 . S
C985 C984 1.366 . S
C985 C986 1.414 . S
C985 C988 1.499 . S
C986 H966 0.950 . S
C986 C985 1.414 . S
C986 C987 1.374 . S
C987 H967 0.950 1_565 S
C987 C983 1.385 . S
C987 C986 1.374 . S
C988 C985 1.499 . S
C988 C989 1.373 . S
C988 C990 1.389 . S
C989 H968 0.950 . S
C989 C988 1.373 . S
C989 C1005 1.377 . S
C990 C988 1.389 . S
C990 C991 1.524 . S
C990 C1004 1.377 . S
C991 C990 1.524 . S
C991 C992 1.397 . S
C991 C996 1.363 . S
C992 H969 0.950 . S
C992 C991 1.397 . S
C992 C993 1.334 . S
C993 H970 0.950 . S
C993 C992 1.334 . S
C993 C994 1.287 . S
C994 C993 1.287 . S
C994 C995 1.524 . S
C994 H1013 0.913 . S
C995 H971 0.950 . S
C995 C994 1.524 . S
C995 C996 1.415 . S
C996 H972 0.950 . S
C996 C991 1.363 . S
C996 C995 1.415 . S
C997 H973 0.951 . S
C997 C998 1.366 . S
C997 C999 1.388 . S
C998 C997 1.366 . S
C998 C1002 1.385 . S
C999 H974 0.951 . S
C999 C997 1.388 . S
C999 C1000 1.366 . S
C1000 C999 1.366 . S
C1000 C1001 1.414 . S
C1000 C1003 1.499 . S
C1001 H975 0.950 . S
C1001 C1000 1.414 . S
C1001 C1002 1.374 . S
C1002 H976 0.950 . S
C1002 C998 1.385 . S
C1002 C1001 1.374 . S
C1003 C1000 1.499 . S
C1003 C1004 1.373 . S
C1003 C1005 1.389 . S
C1004 H977 0.950 . S
C1004 C990 1.377 . S
C1004 C1003 1.373 . S
C1005 C989 1.377 . S
C1005 C1003 1.389 . S
C1005 C1006 1.524 . S
C1006 C1005 1.524 . S
C1006 C1007 1.397 . S
C1006 C1011 1.363 . S
C1007 H978 0.950 . S
C1007 C1006 1.397 . S
C1007 C1008 1.334 . S
C1008 H979 0.950 . S
C1008 C1007 1.334 . S
C1008 C1009 1.287 . S
C1009 C1008 1.287 . S
C1009 C1010 1.524 . S
C1009 H1012 0.999 . S
C1010 H980 0.950 . S
C1010 C1009 1.524 . S
C1010 C1011 1.415 . S
C1011 H981 0.950 . S
C1011 C1006 1.363 . S
C1011 C1010 1.415 . S
H1012 C1009 0.999 . S
H1013 C994 0.913 . S
H1014 C1032 0.951 1_655 S
H1015 C1034 0.951 . S
H1016 C1036 0.950 . S
H1017 C1037 0.950 . S
H1018 C1039 0.950 . S
H1019 C1042 0.950 . S
H1020 C1043 0.950 . S
H1021 C1045 0.950 1_655 S
H1022 C1046 0.950 . S
H1023 C1047 0.951 . S
H1024 C1049 0.951 . S
H1025 C1051 0.950 . S
H1026 C1052 0.950 . S
H1027 C1054 0.950 . S
H1028 C1057 0.950 . S
H1029 C1058 0.950 . S
H1030 C1060 0.950 . S
H1031 C1061 0.950 . S
C1032 H1014 0.951 1_455 S
C1032 C1033 1.366 . S
C1032 C1034 1.388 . S
C1033 C1032 1.366 . S
C1033 C1037 1.385 . S
C1034 H1015 0.951 . S
C1034 C1032 1.388 . S
C1034 C1035 1.366 . S
C1035 C1034 1.366 . S
C1035 C1036 1.414 . S
C1035 C1038 1.499 . S
C1036 H1016 0.950 . S
C1036 C1035 1.414 . S
C1036 C1037 1.374 . S
C1037 H1017 0.950 . S
C1037 C1033 1.385 . S
C1037 C1036 1.374 . S
C1038 C1035 1.499 . S
C1038 C1039 1.373 . S
C1038 C1040 1.389 . S
C1039 H1018 0.950 . S
C1039 C1038 1.373 . S
C1039 C1055 1.377 . S
C1040 C1038 1.389 . S
C1040 C1041 1.524 . S
C1040 C1054 1.377 . S
C1041 C1040 1.524 . S
C1041 C1042 1.397 . S
C1041 C1046 1.363 . S
C1042 H1019 0.950 . S
C1042 C1041 1.397 . S
C1042 C1043 1.334 . S
C1043 H1020 0.950 . S
C1043 C1042 1.334 . S
C1043 C1044 1.287 1_455 S
C1044 C1043 1.287 1_655 S
C1044 C1045 1.524 1_655 S
C1044 H1063 0.913 . S
C1045 H1021 0.950 1_455 S
C1045 C1044 1.524 1_455 S
C1045 C1046 1.415 . S
C1046 H1022 0.950 . S
C1046 C1041 1.363 . S
C1046 C1045 1.415 . S
C1047 H1023 0.951 . S
C1047 C1048 1.366 . S
C1047 C1049 1.388 . S
C1048 C1047 1.366 . S
C1048 C1052 1.385 . S
C1049 H1024 0.951 . S
C1049 C1047 1.388 . S
C1049 C1050 1.366 . S
C1050 C1049 1.366 . S
C1050 C1051 1.414 . S
C1050 C1053 1.499 . S
C1051 H1025 0.950 . S
C1051 C1050 1.414 . S
C1051 C1052 1.374 . S
C1052 H1026 0.950 . S
C1052 C1048 1.385 . S
C1052 C1051 1.374 . S
C1053 C1050 1.499 . S
C1053 C1054 1.373 . S
C1053 C1055 1.389 . S
C1054 H1027 0.950 . S
C1054 C1040 1.377 . S
C1054 C1053 1.373 . S
C1055 C1039 1.377 . S
C1055 C1053 1.389 . S
C1055 C1056 1.524 . S
C1056 C1055 1.524 . S
C1056 C1057 1.397 . S
C1056 C1061 1.363 . S
C1057 H1028 0.950 . S
C1057 C1056 1.397 . S
C1057 C1058 1.334 . S
C1058 H1029 0.950 . S
C1058 C1057 1.334 . S
C1058 C1059 1.287 . S
C1059 C1058 1.287 . S
C1059 C1060 1.524 . S
C1059 H1062 0.999 . S
C1060 H1030 0.950 . S
C1060 C1059 1.524 . S
C1060 C1061 1.415 . S
C1061 H1031 0.950 . S
C1061 C1056 1.363 . S
C1061 C1060 1.415 . S
H1062 C1059 0.999 . S
H1063 C1044 0.913 . S
H1064 C1082 0.951 . S
H1065 C1084 0.951 . S
H1066 C1086 0.950 . S
H1067 C1087 0.950 . S
H1068 C1089 0.950 . S
H1069 C1092 0.950 . S
H1070 C1093 0.950 . S
H1071 C1095 0.950 . S
H1072 C1096 0.950 . S
H1073 C1097 0.951 . S
H1074 C1099 0.951 . S
H1075 C1101 0.950 . S
H1076 C1102 0.950 1_545 S
H1077 C1104 0.950 . S
H1078 C1107 0.950 . S
H1079 C1108 0.950 . S
H1080 C1110 0.950 . S
H1081 C1111 0.950 . S
C1082 H1064 0.951 . S
C1082 C1083 1.366 . S
C1082 C1084 1.388 . S
C1083 C1082 1.366 . S
C1083 C1087 1.385 . S
C1084 H1065 0.951 . S
C1084 C1082 1.388 . S
C1084 C1085 1.366 . S
C1085 C1084 1.366 . S
C1085 C1086 1.414 . S
C1085 C1088 1.499 . S
C1086 H1066 0.950 . S
C1086 C1085 1.414 . S
C1086 C1087 1.374 . S
C1087 H1067 0.950 . S
C1087 C1083 1.385 . S
C1087 C1086 1.374 . S
C1088 C1085 1.499 . S
C1088 C1089 1.373 . S
C1088 C1090 1.389 . S
C1089 H1068 0.950 . S
C1089 C1088 1.373 . S
C1089 C1105 1.377 . S
C1090 C1088 1.389 . S
C1090 C1091 1.524 . S
C1090 C1104 1.377 . S
C1091 C1090 1.524 . S
C1091 C1092 1.397 . S
C1091 C1096 1.363 . S
C1092 H1069 0.950 . S
C1092 C1091 1.397 . S
C1092 C1093 1.334 . S
C1093 H1070 0.950 . S
C1093 C1092 1.334 . S
C1093 C1094 1.287 . S
C1094 C1093 1.287 . S
C1094 C1095 1.524 . S
C1094 H1113 0.913 . S
C1095 H1071 0.950 . S
C1095 C1094 1.524 . S
C1095 C1096 1.415 . S
C1096 H1072 0.950 . S
C1096 C1091 1.363 . S
C1096 C1095 1.415 . S
C1097 H1073 0.951 . S
C1097 C1098 1.366 . S
C1097 C1099 1.388 . S
C1098 C1097 1.366 . S
C1098 C1102 1.385 . S
C1099 H1074 0.951 . S
C1099 C1097 1.388 . S
C1099 C1100 1.366 . S
C1100 C1099 1.366 . S
C1100 C1101 1.414 . S
C1100 C1103 1.499 . S
C1101 H1075 0.950 . S
C1101 C1100 1.414 . S
C1101 C1102 1.374 . S
C1102 H1076 0.950 1_565 S
C1102 C1098 1.385 . S
C1102 C1101 1.374 . S
C1103 C1100 1.499 . S
C1103 C1104 1.373 . S
C1103 C1105 1.389 . S
C1104 H1077 0.950 . S
C1104 C1090 1.377 . S
C1104 C1103 1.373 . S
C1105 C1089 1.377 . S
C1105 C1103 1.389 . S
C1105 C1106 1.524 . S
C1106 C1105 1.524 . S
C1106 C1107 1.397 . S
C1106 C1111 1.363 . S
C1107 H1078 0.950 . S
C1107 C1106 1.397 . S
C1107 C1108 1.334 . S
C1108 H1079 0.950 . S
C1108 C1107 1.334 . S
C1108 C1109 1.287 . S
C1109 C1108 1.287 . S
C1109 C1110 1.524 . S
C1109 H1112 0.999 . S
C1110 H1080 0.950 . S
C1110 C1109 1.524 . S
C1110 C1111 1.415 . S
C1111 H1081 0.950 . S
C1111 C1106 1.363 . S
C1111 C1110 1.415 . S
H1112 C1109 0.999 . S
H1113 C1094 0.913 . S
H1114 C1132 0.951 . S
H1115 C1134 0.951 . S
H1116 C1136 0.950 . S
H1117 C1137 0.950 . S
H1118 C1139 0.950 . S
H1119 C1142 0.950 . S
H1120 C1143 0.950 . S
H1121 C1145 0.950 . S
H1122 C1146 0.950 . S
H1123 C1147 0.951 1_655 S
H1124 C1149 0.951 . S
H1125 C1151 0.950 . S
H1126 C1152 0.950 . S
H1127 C1154 0.950 . S
H1128 C1157 0.950 . S
H1129 C1158 0.950 1_655 S
H1130 C1160 0.963 . S
H1131 C1161 0.950 . S
C1132 H1114 0.951 . S
C1132 C1133 1.366 . S
C1132 C1134 1.388 . S
C1133 C1132 1.366 . S
C1133 C1137 1.385 . S
C1134 H1115 0.951 . S
C1134 C1132 1.388 . S
C1134 C1135 1.366 . S
C1135 C1134 1.366 . S
C1135 C1136 1.414 . S
C1135 C1138 1.499 . S
C1136 H1116 0.950 . S
C1136 C1135 1.414 . S
C1136 C1137 1.374 . S
C1137 H1117 0.950 . S
C1137 C1133 1.385 . S
C1137 C1136 1.374 . S
C1138 C1135 1.499 . S
C1138 C1139 1.373 . S
C1138 C1140 1.389 . S
C1139 H1118 0.950 . S
C1139 C1138 1.373 . S
C1139 C1155 1.377 . S
C1140 C1138 1.389 . S
C1140 C1141 1.524 . S
C1140 C1154 1.377 . S
C1141 C1140 1.524 . S
C1141 C1142 1.397 . S
C1141 C1146 1.363 . S
C1142 H1119 0.950 . S
C1142 C1141 1.397 . S
C1142 C1143 1.334 . S
C1143 H1120 0.950 . S
C1143 C1142 1.334 . S
C1143 C1144 1.287 . S
C1144 C1143 1.287 . S
C1144 C1145 1.524 . S
C1144 H1163 0.913 . S
C1145 H1121 0.950 . S
C1145 C1144 1.524 . S
C1145 C1146 1.415 . S
C1146 H1122 0.950 . S
C1146 C1141 1.363 . S
C1146 C1145 1.415 . S
C1147 H1123 0.951 1_455 S
C1147 C1148 1.366 . S
C1147 C1149 1.388 . S
C1148 C1147 1.366 . S
C1148 C1152 1.385 . S
C1149 H1124 0.951 . S
C1149 C1147 1.388 . S
C1149 C1150 1.366 . S
C1150 C1149 1.366 . S
C1150 C1151 1.414 . S
C1150 C1153 1.499 . S
C1151 H1125 0.950 . S
C1151 C1150 1.414 . S
C1151 C1152 1.374 . S
C1152 H1126 0.950 . S
C1152 C1148 1.385 . S
C1152 C1151 1.374 . S
C1153 C1150 1.499 . S
C1153 C1154 1.373 . S
C1153 C1155 1.389 . S
C1154 H1127 0.950 . S
C1154 C1140 1.377 . S
C1154 C1153 1.373 . S
C1155 C1139 1.377 . S
C1155 C1153 1.389 . S
C1155 C1156 1.524 . S
C1156 C1155 1.524 . S
C1156 C1157 1.397 . S
C1156 C1161 1.363 . S
C1157 H1128 0.950 . S
C1157 C1156 1.397 . S
C1157 C1158 1.334 . S
C1158 H1129 0.950 1_455 S
C1158 C1157 1.334 . S
C1158 C1159 1.287 1_455 S
C1159 C1158 1.287 1_655 S
C1159 C1160 1.531 . S
C1159 H1162 0.999 . S
C1160 H1130 0.963 . S
C1160 C1159 1.531 . S
C1160 C1161 1.393 1_655 S
C1161 H1131 0.950 . S
C1161 C1156 1.363 . S
C1161 C1160 1.393 1_455 S
H1162 C1159 0.999 . S
H1163 C1144 0.913 . S
H1164 C1182 0.951 . S
H1165 C1184 0.951 . S
H1166 C1186 0.950 . S
H1167 C1187 0.950 . S
H1168 C1189 0.950 . S
H1169 C1192 0.950 . S
H1170 C1193 0.950 . S
H1171 C1195 0.950 . S
H1172 C1196 0.950 . S
H1173 C1197 0.951 1_554 S
H1174 C1199 0.951 . S
H1175 C1201 0.950 . S
H1176 C1202 0.950 . S
H1177 C1204 0.950 . S
H1178 C1207 0.950 . S
H1179 C1208 0.950 . S
H1180 C1210 0.950 . S
H1181 C1211 0.950 . S
C1182 H1164 0.951 . S
C1182 C1183 1.366 . S
C1182 C1184 1.388 . S
C1183 C1182 1.366 . S
C1183 C1187 1.385 . S
C1184 H1165 0.951 . S
C1184 C1182 1.388 . S
C1184 C1185 1.366 . S
C1185 C1184 1.366 . S
C1185 C1186 1.414 . S
C1185 C1188 1.499 . S
C1186 H1166 0.950 . S
C1186 C1185 1.414 . S
C1186 C1187 1.374 . S
C1187 H1167 0.950 . S
C1187 C1183 1.385 . S
C1187 C1186 1.374 . S
C1188 C1185 1.499 . S
C1188 C1189 1.373 . S
C1188 C1190 1.389 . S
C1189 H1168 0.950 . S
C1189 C1188 1.373 . S
C1189 C1205 1.377 . S
C1190 C1188 1.389 . S
C1190 C1191 1.524 . S
C1190 C1204 1.377 . S
C1191 C1190 1.524 . S
C1191 C1192 1.397 . S
C1191 C1196 1.363 . S
C1192 H1169 0.950 . S
C1192 C1191 1.397 . S
C1192 C1193 1.334 . S
C1193 H1170 0.950 . S
C1193 C1192 1.334 . S
C1193 C1194 1.287 . S
C1194 C1193 1.287 . S
C1194 C1195 1.524 . S
C1194 H1213 0.913 . S
C1195 H1171 0.950 . S
C1195 C1194 1.524 . S
C1195 C1196 1.415 . S
C1196 H1172 0.950 . S
C1196 C1191 1.363 . S
C1196 C1195 1.415 . S
C1197 H1173 0.951 1_556 S
C1197 C1198 1.366 . S
C1197 C1199 1.388 . S
C1198 C1197 1.366 . S
C1198 C1202 1.385 . S
C1199 H1174 0.951 . S
C1199 C1197 1.388 . S
C1199 C1200 1.366 . S
C1200 C1199 1.366 . S
C1200 C1201 1.414 . S
C1200 C1203 1.499 . S
C1201 H1175 0.950 . S
C1201 C1200 1.414 . S
C1201 C1202 1.374 . S
C1202 H1176 0.950 . S
C1202 C1198 1.385 . S
C1202 C1201 1.374 . S
C1203 C1200 1.499 . S
C1203 C1204 1.373 . S
C1203 C1205 1.389 . S
C1204 H1177 0.950 . S
C1204 C1190 1.377 . S
C1204 C1203 1.373 . S
C1205 C1189 1.377 . S
C1205 C1203 1.389 . S
C1205 C1206 1.524 . S
C1206 C1205 1.524 . S
C1206 C1207 1.397 . S
C1206 C1211 1.363 . S
C1207 H1178 0.950 . S
C1207 C1206 1.397 . S
C1207 C1208 1.334 1_545 S
C1208 H1179 0.950 . S
C1208 C1207 1.334 1_565 S
C1208 C1209 1.287 . S
C1209 C1208 1.287 . S
C1209 C1210 1.524 1_565 S
C1209 H1212 0.999 . S
C1210 H1180 0.950 . S
C1210 C1209 1.524 1_545 S
C1210 C1211 1.415 . S
C1211 H1181 0.950 . S
C1211 C1206 1.363 . S
C1211 C1210 1.415 . S
H1212 C1209 0.999 . S
H1213 C1194 0.913 . S
H1214 C1232 0.951 1_455 S
H1215 C1234 0.951 . S
H1216 C1236 0.950 . S
H1217 C1237 0.950 . S
H1218 C1239 0.950 . S
H1219 C1242 0.950 . S
H1220 C1243 0.950 . S
H1221 C1245 0.950 . S
H1222 C1246 0.950 . S
H1223 C1247 0.951 . S
H1224 C1249 0.951 . S
H1225 C1251 0.950 . S
H1226 C1252 0.950 . S
H1227 C1254 0.950 . S
H1228 C1257 0.950 . S
H1229 C1258 0.950 . S
H1230 C1260 0.950 . S
H1231 C1261 0.950 . S
C1232 H1214 0.951 1_655 S
C1232 C1233 1.366 . S
C1232 C1234 1.388 . S
C1233 C1232 1.366 . S
C1233 C1237 1.385 . S
C1234 H1215 0.951 . S
C1234 C1232 1.388 . S
C1234 C1235 1.366 . S
C1235 C1234 1.366 . S
C1235 C1236 1.414 . S
C1235 C1238 1.499 . S
C1236 H1216 0.950 . S
C1236 C1235 1.414 . S
C1236 C1237 1.374 . S
C1237 H1217 0.950 . S
C1237 C1233 1.385 . S
C1237 C1236 1.374 . S
C1238 C1235 1.499 . S
C1238 C1239 1.373 . S
C1238 C1240 1.389 . S
C1239 H1218 0.950 . S
C1239 C1238 1.373 . S
C1239 C1255 1.377 . S
C1240 C1238 1.389 . S
C1240 C1241 1.524 . S
C1240 C1254 1.377 . S
C1241 C1240 1.524 . S
C1241 C1242 1.397 . S
C1241 C1246 1.363 . S
C1242 H1219 0.950 . S
C1242 C1241 1.397 . S
C1242 C1243 1.334 . S
C1243 H1220 0.950 . S
C1243 C1242 1.334 . S
C1243 C1244 1.287 . S
C1244 C1243 1.287 . S
C1244 C1245 1.524 . S
C1244 H1263 0.913 . S
C1245 H1221 0.950 . S
C1245 C1244 1.524 . S
C1245 C1246 1.415 . S
C1246 H1222 0.950 . S
C1246 C1241 1.363 . S
C1246 C1245 1.415 . S
C1247 H1223 0.951 . S
C1247 C1248 1.366 . S
C1247 C1249 1.388 . S
C1248 C1247 1.366 . S
C1248 C1252 1.385 . S
C1249 H1224 0.951 . S
C1249 C1247 1.388 . S
C1249 C1250 1.366 . S
C1250 C1249 1.366 . S
C1250 C1251 1.414 . S
C1250 C1253 1.499 . S
C1251 H1225 0.950 . S
C1251 C1250 1.414 . S
C1251 C1252 1.374 . S
C1252 H1226 0.950 . S
C1252 C1248 1.385 . S
C1252 C1251 1.374 . S
C1253 C1250 1.499 . S
C1253 C1254 1.373 . S
C1253 C1255 1.389 . S
C1254 H1227 0.950 . S
C1254 C1240 1.377 . S
C1254 C1253 1.373 . S
C1255 C1239 1.377 . S
C1255 C1253 1.389 . S
C1255 C1256 1.524 . S
C1256 C1255 1.524 . S
C1256 C1257 1.397 . S
C1256 C1261 1.363 . S
C1257 H1228 0.950 . S
C1257 C1256 1.397 . S
C1257 C1258 1.334 . S
C1258 H1229 0.950 . S
C1258 C1257 1.334 . S
C1258 C1259 1.287 . S
C1259 C1258 1.287 . S
C1259 C1260 1.524 . S
C1259 H1262 0.999 . S
C1260 H1230 0.950 . S
C1260 C1259 1.524 . S
C1260 C1261 1.415 . S
C1261 H1231 0.950 . S
C1261 C1256 1.363 . S
C1261 C1260 1.415 . S
H1262 C1259 0.999 . S
H1263 C1244 0.913 . S
C283 C149 1.342 . S
C298 C17 1.342 . S
C333 C50 1.342 . S
C348 C182 1.342 . S
C383 C83 1.342 . S
C398 C215 1.342 . S
C433 C116 1.342 . S
C448 C248 1.342 . S
C483 N179 0.679 . S
C498 N14 0.679 . S
C533 N47 0.678 . S
C548 N212 0.679 . S
C583 N245 0.677 . S
C598 N80 0.678 . S
C633 N113 0.677 . S
C648 N146 0.678 . S
C683 N5 1.025 . S
C698 N203 1.026 . S
C733 N236 1.025 . S
C748 N38 1.026 . S
C783 N71 1.025 . S
C798 N137 1.026 . S
C833 N170 1.026 . S
C848 N104 1.025 . S
C883 C28 1.917 . S
C898 C107 1.929 1_544 S
C933 C8 1.930 1_655 S
C948 C61 1.917 . S
C983 C41 1.930 1_565 S
C998 C94 1.917 . S
C1033 C74 1.929 1_455 S
C1048 C127 1.916 . S
C1083 C160 1.916 . S
C1098 C173 1.929 1_565 S
C1133 C193 1.916 . S
C1148 C206 1.930 1_455 S
C1183 C226 1.916 . S
C1198 C239 1.929 1_546 S
C1233 C140 1.929 1_655 S
C1248 C259 1.916 . S
