# Generated by pormake.
# Topology utj, (3)-cn, num edge types: 1
# Building blocks:
#     Node 0, Type 0, BuildingBlock: OLANEW_clean_sbu_2, # of connection points: 3
#     Node 1, Type 0, BuildingBlock: OLANEW_clean_sbu_2, # of connection points: 3
#     Node 2, Type 0, BuildingBlock: OLANEW_clean_sbu_2, # of connection points: 3
#     Node 3, Type 0, BuildingBlock: OLANEW_clean_sbu_2, # of connection points: 3
#     Node 4, Type 0, BuildingBlock: OLANEW_clean_sbu_2, # of connection points: 3
#     Node 5, Type 0, BuildingBlock: OLANEW_clean_sbu_2, # of connection points: 3
#     Node 6, Type 0, BuildingBlock: OLANEW_clean_sbu_2, # of connection points: 3
#     Node 7, Type 0, BuildingBlock: OLANEW_clean_sbu_2, # of connection points: 3
#     Node 8, Type 0, BuildingBlock: OLANEW_clean_sbu_2, # of connection points: 3
#     Node 9, Type 0, BuildingBlock: OLANEW_clean_sbu_2, # of connection points: 3
#     Node 10, Type 0, BuildingBlock: OLANEW_clean_sbu_2, # of connection points: 3
#     Node 11, Type 0, BuildingBlock: OLANEW_clean_sbu_2, # of connection points: 3
#     Node 12, Type 0, BuildingBlock: OLANEW_clean_sbu_2, # of connection points: 3
#     Node 13, Type 0, BuildingBlock: OLANEW_clean_sbu_2, # of connection points: 3
#     Node 14, Type 0, BuildingBlock: OLANEW_clean_sbu_2, # of connection points: 3
#     Node 15, Type 0, BuildingBlock: OLANEW_clean_sbu_2, # of connection points: 3
#     Edge 16, Type (0, 0), BuildingBlock: EZIPEK_clean_linker_0, # of connection points: 2
#     Edge 17, Type (0, 0), BuildingBlock: EZIPEK_clean_linker_0, # of connection points: 2
#     Edge 18, Type (0, 0), BuildingBlock: EZIPEK_clean_linker_0, # of connection points: 2
#     Edge 19, Type (0, 0), BuildingBlock: EZIPEK_clean_linker_0, # of connection points: 2
#     Edge 20, Type (0, 0), BuildingBlock: EZIPEK_clean_linker_0, # of connection points: 2
#     Edge 21, Type (0, 0), BuildingBlock: EZIPEK_clean_linker_0, # of connection points: 2
#     Edge 22, Type (0, 0), BuildingBlock: EZIPEK_clean_linker_0, # of connection points: 2
#     Edge 23, Type (0, 0), BuildingBlock: EZIPEK_clean_linker_0, # of connection points: 2
#     Edge 24, Type (0, 0), BuildingBlock: EZIPEK_clean_linker_0, # of connection points: 2
#     Edge 25, Type (0, 0), BuildingBlock: EZIPEK_clean_linker_0, # of connection points: 2
#     Edge 26, Type (0, 0), BuildingBlock: EZIPEK_clean_linker_0, # of connection points: 2
#     Edge 27, Type (0, 0), BuildingBlock: EZIPEK_clean_linker_0, # of connection points: 2
#     Edge 28, Type (0, 0), BuildingBlock: EZIPEK_clean_linker_0, # of connection points: 2
#     Edge 29, Type (0, 0), BuildingBlock: EZIPEK_clean_linker_0, # of connection points: 2
#     Edge 30, Type (0, 0), BuildingBlock: EZIPEK_clean_linker_0, # of connection points: 2
#     Edge 31, Type (0, 0), BuildingBlock: EZIPEK_clean_linker_0, # of connection points: 2
#     Edge 32, Type (0, 0), BuildingBlock: EZIPEK_clean_linker_0, # of connection points: 2
#     Edge 33, Type (0, 0), BuildingBlock: EZIPEK_clean_linker_0, # of connection points: 2
#     Edge 34, Type (0, 0), BuildingBlock: EZIPEK_clean_linker_0, # of connection points: 2
#     Edge 35, Type (0, 0), BuildingBlock: EZIPEK_clean_linker_0, # of connection points: 2
#     Edge 36, Type (0, 0), BuildingBlock: EZIPEK_clean_linker_0, # of connection points: 2
#     Edge 37, Type (0, 0), BuildingBlock: EZIPEK_clean_linker_0, # of connection points: 2
#     Edge 38, Type (0, 0), BuildingBlock: EZIPEK_clean_linker_0, # of connection points: 2
#     Edge 39, Type (0, 0), BuildingBlock: EZIPEK_clean_linker_0, # of connection points: 2
# Relax obj value: 0.000
# Max RMSD: 0.031
# Mean RMSD: 0.031
data_MOF--net-utj--node1-OLANEW_clean_sbu_2--edge1-EZIPEK_clean_linker_0
_symmetry_space_group_name_H-M    P1
_symmetry_Int_Tables_number       1
_symmetry_cell_setting            triclinic
loop_
_symmetry_equiv_pos_as_xyz
'x, y, z'
_cell_length_a     47.836402
_cell_length_b     47.721988
_cell_length_c     25.515659
_cell_angle_alpha  90.090428
_cell_angle_beta   90.120017
_cell_angle_gamma 89.986958
loop_
_atom_site_label
_atom_site_type_symbol
_atom_site_fract_x
_atom_site_fract_y
_atom_site_fract_z
_atom_type_partial_charge
O0 O 0.07945 0.37046 0.11287 0.0
Cd1 Cd 0.0632 0.35492 0.02684 0.0
O2 O 0.04463 0.40028 0.11235 0.0
Cd3 Cd 0.02018 0.43498 0.14414 0.0
O4 O 0.99253 0.47123 0.13897 0.0
C5 C -0.0007 0.48987 0.10586 0.0
O6 O 0.02302 0.48744 0.08042 0.0
C7 C 0.06585 0.38994 0.13523 0.0
C8 C 0.06468 0.29699 0.01631 0.0
O9 O 0.0855 0.31203 0.00204 0.0
O10 O 0.04319 0.30921 0.03567 0.0
O11 O 0.13431 0.07535 0.61626 0.0
Cd12 Cd 0.14092 0.04877 0.53548 0.0
O13 O 0.11496 0.03916 0.65582 0.0
Cd14 Cd 0.10931 0.01271 0.58708 0.0
O15 O 0.07709 0.98768 0.54861 0.0
C16 C 0.0523 0.99315 0.56334 0.0
O17 O 0.04812 0.01307 0.59805 0.0
C18 C 0.12398 0.06419 0.65703 0.0
C19 C 0.19721 0.0492 0.50882 0.0
O20 O 0.18046 0.06773 0.49048 0.0
O21 O 0.18738 0.03019 0.53899 0.0
O22 O 0.40233 0.10959 0.06343 0.0
Cd23 Cd 0.4179 0.12623 0.97804 0.0
O24 O 0.4395 0.12694 0.10308 0.0
Cd25 Cd 0.46256 0.13121 0.03005 0.0
O26 O 0.49064 0.10383 0.98659 0.0
C27 C 0.48437 0.07807 0.99104 0.0
O28 O 0.46151 0.07106 0.01625 0.0
C29 C 0.41579 0.115 0.10527 0.0
C30 C 0.406 0.18305 0.97088 0.0
O31 O 0.3885 0.16476 0.95423 0.0
O32 O 0.42934 0.17464 0.98985 0.0
O33 O 0.38082 0.379 0.60397 0.0
Cd34 Cd 0.37425 0.37999 0.50919 0.0
O35 O 0.40738 0.41636 0.59967 0.0
Cd36 Cd 0.43407 0.44902 0.63291 0.0
O37 O 0.465 0.48252 0.62784 0.0
C38 C 0.48205 0.47977 0.59011 0.0
O39 O 0.48011 0.45765 0.55959 0.0
C40 C 0.39536 0.39765 0.62681 0.0
C41 C 0.31862 0.39191 0.4873 0.0
O42 O 0.32694 0.36651 0.49207 0.0
O43 O 0.33661 0.41166 0.49183 0.0
O44 O 0.09835 0.11006 0.89653 0.0
Cd45 Cd 0.07098 0.11911 0.97533 0.0
O46 O 0.06048 0.09899 0.85158 0.0
Cd47 Cd 0.03171 0.09664 0.91735 0.0
O48 O 0.00062 0.06971 0.95407 0.0
C49 C 0.00172 0.04409 0.94045 0.0
O50 O 0.02114 0.03586 0.90752 0.0
C51 C 0.08669 0.10317 0.85362 0.0
C52 C 0.06768 0.17659 0.99141 0.0
O53 O 0.087 0.16212 0.01331 0.0
O54 O 0.04964 0.16393 0.96272 0.0
O55 O 0.37459 0.08168 0.34495 0.0
Cd56 Cd 0.37096 0.06106 0.43213 0.0
O57 O 0.41247 0.05743 0.32545 0.0
Cd58 Cd 0.41937 0.03761 0.40119 0.0
O59 O 0.44738 0.01498 0.45374 0.0
C60 C 0.47205 0.01127 0.43667 0.0
O61 O 0.47889 0.02095 0.39029 0.0
C62 C 0.3936 0.07488 0.31266 0.0
C63 C 0.31492 0.05569 0.45907 0.0
O64 O 0.32879 0.07761 0.47202 0.0
O65 O 0.32754 0.03609 0.43416 0.0
O66 O 0.37055 0.36974 0.86353 0.0
Cd67 Cd 0.36404 0.35692 0.95497 0.0
O68 O 0.40581 0.39671 0.88551 0.0
Cd69 Cd 0.44022 0.4251 0.86768 0.0
O70 O 0.47268 0.45628 0.88192 0.0
C71 C 0.46637 0.48213 0.88267 0.0
O72 O 0.44073 0.48995 0.87142 0.0
C73 C 0.39024 0.3861 0.8504 0.0
C74 C 0.37773 0.30069 0.96475 0.0
O75 O 0.35251 0.3082 0.95527 0.0
O76 O 0.3964 0.31965 0.97093 0.0
O77 O 0.12705 0.41217 0.35646 0.0
Cd78 Cd 0.14477 0.42647 0.4422 0.0
O79 O 0.09715 0.44679 0.36282 0.0
Cd80 Cd 0.0615 0.47169 0.33663 0.0
O81 O 0.02633 0.5004 0.34575 0.0
C82 C 0.01356 0.49863 0.38922 0.0
O83 O 0.02106 0.47923 0.42291 0.0
C84 C 0.10692 0.42617 0.33725 0.0
C85 C 0.20138 0.41546 0.45456 0.0
O86 O 0.18306 0.39714 0.46733 0.0
O87 O 0.1931 0.43891 0.4357 0.0
O88 O 0.93452 0.6297 0.87828 0.0
Cd89 Cd 0.9492 0.64158 0.96721 0.0
O90 O 0.88965 0.62666 0.89721 0.0
Cd91 Cd 0.89986 0.62525 0.98047 0.0
O92 O 0.92197 0.59964 0.03795 0.0
C93 C 0.93045 0.57665 0.01849 0.0
O94 O 0.92457 0.57084 0.96934 0.0
C95 C 0.90926 0.62664 0.86363 0.0
C96 C 0.94084 0.69855 0.98298 0.0
O97 O 0.96416 0.68946 0.96518 0.0
O98 O 0.92165 0.68086 0.99423 0.0
O99 O 0.85387 0.90951 0.39189 0.0
Cd100 Cd 0.85193 0.91361 0.48713 0.0
O101 O 0.89598 0.8906 0.39034 0.0
Cd102 Cd 0.9061 0.89798 0.47231 0.0
O103 O 0.9401 0.91881 0.51394 0.0
C104 C 0.95619 0.93289 0.48439 0.0
O105 O 0.95094 0.93405 0.43388 0.0
C106 C 0.87399 0.89857 0.36671 0.0
C107 C 0.79783 0.92721 0.51773 0.0
O108 O 0.80544 0.90157 0.51356 0.0
O109 O 0.81574 0.94648 0.50819 0.0
O110 O 0.61786 0.85024 0.92468 0.0
Cd111 Cd 0.6057 0.83631 0.01362 0.0
O112 O 0.60267 0.89175 0.94807 0.0
Cd113 Cd 0.58995 0.93437 0.92818 0.0
O114 O 0.5711 0.97591 0.92324 0.0
C115 C 0.54882 0.9794 0.94941 0.0
O116 O 0.53826 0.95822 0.97555 0.0
C117 C 0.61211 0.87543 0.91298 0.0
C118 C 0.58999 0.78012 0.01798 0.0
O119 O 0.57346 0.79874 -0.00065 0.0
O120 O 0.61403 0.78809 0.03453 0.0
O121 O 0.63468 0.5437 0.36376 0.0
Cd122 Cd 0.64397 0.5333 0.45582 0.0
O123 O 0.61797 0.58592 0.3796 0.0
Cd124 Cd 0.61495 0.5768 0.46314 0.0
O125 O 0.5881 0.55236 0.5148 0.0
C126 C 0.56329 0.56113 0.52141 0.0
O127 O 0.55595 0.58549 0.50176 0.0
C128 C 0.62524 0.56699 0.34725 0.0
C129 C 0.70014 0.54189 0.47808 0.0
O130 O 0.69134 0.5178 0.4632 0.0
O131 O 0.68247 0.56189 0.48305 0.0
O132 O 0.89668 0.87839 0.12089 0.0
Cd133 Cd 0.90621 0.87284 0.02758 0.0
O134 O 0.86635 0.91296 0.1132 0.0
Cd135 Cd 0.8785 0.92094 0.03249 0.0
O136 O 0.90634 0.94898 0.99001 0.0
C137 C 0.92297 0.96267 0.01935 0.0
O138 O 0.92238 0.95856 0.07022 0.0
C139 C 0.87899 0.89499 0.14121 0.0
C140 C 0.91874 0.81679 0.00886 0.0
O141 O 0.89357 0.82578 0.00507 0.0
O142 O 0.93812 0.83432 0.02021 0.0
O143 O 0.62318 0.94305 0.69433 0.0
Cd144 Cd 0.62954 0.96397 0.60794 0.0
O145 O 0.61373 0.90115 0.66221 0.0
Cd146 Cd 0.60581 0.91854 0.58488 0.0
O147 O 0.57745 0.94116 0.53317 0.0
C148 C 0.55627 0.95197 0.55541 0.0
O149 O 0.55323 0.94927 0.60631 0.0
C150 C 0.61866 0.91706 0.70113 0.0
C151 C 0.68405 0.95361 0.57563 0.0
O152 O 0.67802 0.97597 0.60104 0.0
O153 O 0.66436 0.93641 0.56442 0.0
O154 O 0.56947 0.59065 0.1262 0.0
Cd155 Cd 0.54439 0.60689 0.0487 0.0
O156 O 0.61187 0.58961 0.09242 0.0
Cd157 Cd 0.59315 0.59118 0.01447 0.0
O158 O 0.56297 0.57279 0.96011 0.0
C159 C 0.55055 0.55152 0.97884 0.0
O160 O 0.5567 0.54325 0.02659 0.0
C161 C 0.59573 0.58778 0.13179 0.0
C162 C 0.55774 0.66307 0.03302 0.0
O163 O 0.54031 0.65564 0.06841 0.0
O164 O 0.56828 0.64395 0.00382 0.0
O165 O 0.88216 0.58088 0.62876 0.0
Cd166 Cd 0.87437 0.5665 0.53803 0.0
O167 O 0.89412 0.62433 0.60992 0.0
Cd168 Cd 0.89562 0.61413 0.52664 0.0
O169 O 0.91704 0.59019 0.46587 0.0
C170 C 0.93437 0.57258 0.48426 0.0
O171 O 0.9371 0.57009 0.53527 0.0
C172 C 0.88913 0.60537 0.64358 0.0
C173 C 0.81786 0.55889 0.51794 0.0
O174 O 0.82933 0.58286 0.51109 0.0
O175 O 0.833 0.53847 0.53399 0.0
C176 C 0.07284 0.38179 0.2313 0.0
C177 C 0.07456 0.40012 0.18761 0.0
C178 C 0.09708 0.43595 0.24239 0.0
C179 C 0.09458 0.41792 0.28631 0.0
N180 N 0.07528 0.37638 0.32573 0.0
N181 N 0.08434 0.44599 0.15229 0.0
C182 C 0.08116 0.39154 0.28163 0.0
C183 C 0.08526 0.42772 0.1935 0.0
N184 N 0.06333 0.35498 0.22463 0.0
N185 N 0.1121 0.46025 0.24671 0.0
H186 H 0.07769 0.44029 0.11484 0.0
H187 H 0.08847 0.46733 0.15581 0.0
H188 H 0.12107 0.46703 0.28179 0.0
H189 H 0.11755 0.47274 0.21494 0.0
H190 H 0.06505 0.33948 0.2531 0.0
H191 H 0.05489 0.34764 0.18948 0.0
H192 H 0.06292 0.35844 0.32584 0.0
H193 H 0.08072 0.38306 0.36334 0.0
C194 C 0.13372 0.06903 0.75232 0.0
C195 C 0.12126 0.08015 0.70647 0.0
C196 C 0.09563 0.1141 0.75992 0.0
C197 C 0.10322 0.09886 0.80536 0.0
N198 N 0.12936 0.06119 0.84558 0.0
N199 N 0.08983 0.11331 0.66571 0.0
C200 C 0.12278 0.07654 0.80208 0.0
C201 C 0.10255 0.10317 0.7098 0.0
N202 N 0.15593 0.05117 0.74796 0.0
N203 N 0.08171 0.13896 0.765 0.0
H204 H 0.09438 0.10611 0.62812 0.0
H205 H 0.07344 0.12766 0.6666 0.0
H206 H 0.07671 0.14746 0.80153 0.0
H207 H 0.0777 0.15236 0.7337 0.0
H208 H 0.16759 0.04425 0.77992 0.0
H209 H 0.1644 0.04561 0.71172 0.0
H210 H 0.14072 0.04259 0.84416 0.0
H211 H 0.12199 0.06594 0.88293 0.0
C212 C 0.39863 0.11531 0.25013 0.0
C213 C 0.39375 0.08637 0.25889 0.0
C214 C 0.40096 0.07638 0.16584 0.0
C215 C 0.40517 0.10543 0.15664 0.0
N216 N 0.40117 0.15312 0.18685 0.0
N217 N 0.38226 0.04092 0.22377 0.0
C218 C 0.40178 0.12511 0.19787 0.0
C219 C 0.39227 0.06743 0.21619 0.0
N220 N 0.4018 0.13317 0.29165 0.0
N221 N 0.40706 0.0571 0.12783 0.0
H222 H 0.37536 0.03384 0.2602 0.0
H223 H 0.3781 0.02705 0.19317 0.0
H224 H 0.4142 0.06244 0.09062 0.0
H225 H 0.40748 0.03559 0.13471 0.0
H226 H 0.40865 0.15378 0.2878 0.0
H227 H 0.39953 0.12688 0.33051 0.0
H228 H 0.39609 0.1684 0.21443 0.0
H229 H 0.40308 0.16089 0.14882 0.0
C230 C 0.38846 0.41704 0.77118 0.0
C231 C 0.39581 0.39105 0.79426 0.0
C232 C 0.40979 0.37279 0.70843 0.0
C233 C 0.3983 0.397 0.68454 0.0
N234 N 0.37476 0.44159 0.69212 0.0
N235 N 0.41321 0.34379 0.78606 0.0
C236 C 0.38753 0.41924 0.7156 0.0
C237 C 0.40655 0.36884 0.76322 0.0
N238 N 0.38208 0.43946 0.80234 0.0
N239 N 0.42455 0.35403 0.67881 0.0
H240 H 0.41295 0.34065 0.82652 0.0
H241 H 0.41764 0.32566 0.76489 0.0
H242 H 0.42781 0.35668 0.6387 0.0
H243 H 0.43579 0.33734 0.69451 0.0
H244 H 0.37954 0.45974 0.78811 0.0
H245 H 0.38155 0.43829 0.84313 0.0
H246 H 0.36359 0.45679 0.71259 0.0
H247 H 0.37345 0.44401 0.65161 0.0
C248 C 0.9156 0.59751 0.78311 0.0
C249 C 0.90311 0.62104 0.80773 0.0
C250 C 0.8788 0.63263 0.72586 0.0
C251 C 0.89379 0.61098 0.70002 0.0
N252 N 0.93105 0.57676 0.70176 0.0
N253 N 0.87625 0.66369 0.80101 0.0
C254 C 0.91345 0.59446 0.728 0.0
C255 C 0.88556 0.63935 0.77875 0.0
N256 N 0.92866 0.57746 0.81254 0.0
N257 N 0.85748 0.64608 0.70054 0.0
H258 H 0.88097 0.66946 0.83947 0.0
H259 H 0.86592 0.67929 0.78003 0.0
H260 H 0.85172 0.64149 0.66202 0.0
H261 H 0.84391 0.65996 0.71913 0.0
H262 H 0.9355 0.55843 0.7971 0.0
H263 H 0.93013 0.57847 0.85329 0.0
H264 H 0.94773 0.56652 0.71976 0.0
H265 H 0.93092 0.57449 0.66111 0.0
C266 C 0.89615 0.91286 0.22708 0.0
C267 C 0.87656 0.89644 0.19872 0.0
C268 C 0.85494 0.88099 0.28076 0.0
C269 C 0.87369 0.89853 0.30884 0.0
N270 N 0.90778 0.93582 0.30889 0.0
N271 N 0.83496 0.86808 0.19643 0.0
C272 C 0.8931 0.91578 0.28203 0.0
C273 C 0.85515 0.8815 0.22495 0.0
N274 N 0.91803 0.92525 0.20158 0.0
N275 N 0.8378 0.8631 0.30744 0.0
H276 H 0.83505 0.86748 0.15555 0.0
H277 H 0.81715 0.85921 0.21289 0.0
H278 H 0.83701 0.86239 0.34827 0.0
H279 H 0.82578 0.84765 0.28945 0.0
H280 H 0.93485 0.93454 0.22087 0.0
H281 H 0.92054 0.92452 0.16101 0.0
H282 H 0.91995 0.95105 0.29074 0.0
H283 H 0.90577 0.93903 0.34915 0.0
C284 C 0.64219 0.90146 0.7839 0.0
C285 C 0.61722 0.90567 0.75482 0.0
C286 C 0.58903 0.89037 0.82963 0.0
C287 C 0.61404 0.88513 0.85811 0.0
N288 N 0.66432 0.88264 0.86212 0.0
N289 N 0.56712 0.90185 0.74651 0.0
C290 C 0.64063 0.88973 0.83509 0.0
C291 C 0.5907 0.89943 0.7767 0.0
N292 N 0.6673 0.90914 0.76272 0.0
N293 N 0.56366 0.88704 0.85357 0.0
H294 H 0.56722 0.90997 0.70859 0.0
H295 H 0.54756 0.89445 0.75757 0.0
H296 H 0.56137 0.87849 0.89089 0.0
H297 H 0.54482 0.89396 0.83782 0.0
H298 H 0.68602 0.90964 0.78351 0.0
H299 H 0.66931 0.91652 0.72446 0.0
H300 H 0.68424 0.88254 0.84589 0.0
H301 H 0.664 0.87525 0.90056 0.0
C302 C 0.60177 0.55261 0.26355 0.0
C303 C 0.62015 0.57107 0.2905 0.0
C304 C 0.624 0.60029 0.2118 0.0
C305 C 0.60686 0.58093 0.18432 0.0
N306 N 0.58544 0.53528 0.17971 0.0
N307 N 0.65334 0.60906 0.28779 0.0
C308 C 0.59769 0.55599 0.20889 0.0
C309 C 0.63269 0.59391 0.26384 0.0
N310 N 0.58682 0.53293 0.29052 0.0
N311 N 0.63089 0.6253 0.18922 0.0
H312 H 0.66037 0.60474 0.32566 0.0
H313 H 0.66521 0.62416 0.26857 0.0
H314 H 0.6251 0.63064 0.1511 0.0
H315 H 0.64056 0.64159 0.20952 0.0
H316 H 0.57087 0.52111 0.2736 0.0
H317 H 0.58829 0.53022 0.33096 0.0
H318 H 0.58091 0.51547 0.19453 0.0
H319 H 0.58245 0.53691 0.1393 0.0
C320 C 0.0641 0.24869 0.05493 0.0
C321 C 0.06532 0.26617 0.01004 0.0
C322 C 0.07047 0.2249 0.95357 0.0
C323 C 0.06671 0.20738 -0.00211 0.0
N324 N 0.05537 0.20222 0.08942 0.0
N325 N 0.06472 0.27112 0.91594 0.0
C326 C 0.06229 0.21916 0.04829 0.0
C327 C 0.06718 0.25434 0.95911 0.0
N328 N 0.06575 0.26024 0.10392 0.0
N329 N 0.0783 0.21352 0.90659 0.0
H330 H 0.06206 0.29277 0.9183 0.0
H331 H 0.06278 0.26335 0.87793 0.0
H332 H 0.08117 0.19207 0.90093 0.0
H333 H 0.08438 0.22549 0.87448 0.0
H334 H 0.06807 0.24843 0.13794 0.0
H335 H 0.06728 0.28177 0.11043 0.0
H336 H 0.0489 0.20981 0.12571 0.0
H337 H 0.05369 0.1805 0.08603 0.0
C338 C 0.26483 0.05149 0.43084 0.0
C339 C 0.28485 0.05329 0.47187 0.0
C340 C 0.24723 0.05433 0.53691 0.0
C341 C 0.22739 0.05012 0.4962 0.0
N342 N 0.21744 0.03958 0.40559 0.0
N343 N 0.29569 0.0513 0.56415 0.0
C344 C 0.23622 0.04727 0.44343 0.0
C345 C 0.27622 0.05329 0.52502 0.0
N346 N 0.27297 0.055 0.37992 0.0
N347 N 0.2384 0.06054 0.58654 0.0
H348 H 0.31712 0.05026 0.55699 0.0
H349 H 0.29054 0.04812 0.60333 0.0
H350 H 0.21735 0.0618 0.59685 0.0
H351 H 0.25184 0.06689 0.61644 0.0
H352 H 0.25893 0.05703 0.34891 0.0
H353 H 0.29369 0.05842 0.369 0.0
H354 H 0.22319 0.0342 0.36754 0.0
H355 H 0.19633 0.03607 0.41335 0.0
C356 C 0.39154 0.25783 0.01514 0.0
C357 C 0.38533 0.27069 0.96641 0.0
C358 C 0.39522 0.22667 0.92024 0.0
C359 C 0.39915 0.21326 0.96927 0.0
N360 N 0.39704 0.21453 0.06372 0.0
N361 N 0.37861 0.26744 0.87282 0.0
C362 C 0.3964 0.22845 0.01688 0.0
C363 C 0.38629 0.25509 0.91901 0.0
N364 N 0.39286 0.27372 0.05972 0.0
N365 N 0.40132 0.21262 0.8749 0.0
H366 H 0.37366 0.28865 0.86964 0.0
H367 H 0.37552 0.25639 0.83807 0.0
H368 H 0.40818 0.19187 0.87427 0.0
H369 H 0.40189 0.22205 0.83817 0.0
H370 H 0.40052 0.2663 0.09531 0.0
H371 H 0.38801 0.29503 0.0605 0.0
H372 H 0.3921 0.2238 0.09947 0.0
H373 H 0.40023 0.19297 0.06665 0.0
C374 C 0.27504 0.3878 0.43292 0.0
C375 C 0.28871 0.39831 0.4783 0.0
C376 C 0.24571 0.42233 0.50514 0.0
C377 C 0.23147 0.40981 0.46227 0.0
N378 N 0.23118 0.37813 0.38856 0.0
N379 N 0.28614 0.42137 0.56245 0.0
C380 C 0.24572 0.39171 0.42719 0.0
C381 C 0.27386 0.4146 0.51563 0.0
N382 N 0.29031 0.37526 0.39416 0.0
N383 N 0.23234 0.44163 0.53582 0.0
H384 H 0.30651 0.4156 0.57228 0.0
H385 H 0.27541 0.43048 0.59358 0.0
H386 H 0.21131 0.44684 0.53108 0.0
H387 H 0.24254 0.45395 0.56362 0.0
H388 H 0.28211 0.36983 0.35771 0.0
H389 H 0.3119 0.37246 0.39651 0.0
H390 H 0.23965 0.36216 0.36573 0.0
H391 H 0.20996 0.38151 0.38148 0.0
C392 C 0.93697 0.77114 0.04371 0.0
C393 C 0.92513 0.78665 0.00167 0.0
C394 C 0.9221 0.74386 0.94858 0.0
C395 C 0.93585 0.7289 0.98911 0.0
N396 N 0.96022 0.72854 0.07185 0.0
N397 N 0.91094 0.78915 0.91103 0.0
C398 C 0.94454 0.74266 0.03561 0.0
C399 C 0.91884 0.77338 0.95324 0.0
N400 N 0.93959 0.78317 0.09217 0.0
N401 N 0.91184 0.72978 0.90595 0.0
H402 H 0.90878 0.81089 0.91267 0.0
H403 H 0.90893 0.78114 0.87323 0.0
H404 H 0.91473 0.70832 0.90022 0.0
H405 H 0.8988 0.73892 0.87807 0.0
H406 H 0.94518 0.77205 0.12568 0.0
H407 H 0.93378 0.80379 0.10015 0.0
H408 H 0.96989 0.73824 0.10366 0.0
H409 H 0.96536 0.70739 0.06803 0.0
C410 C 0.72166 0.94978 0.50775 0.0
C411 C 0.71328 0.94733 0.56087 0.0
C412 C 0.76005 0.93057 0.58532 0.0
C413 C 0.76883 0.9344 0.53272 0.0
N414 N 0.75955 0.95002 0.44454 0.0
N415 N 0.7244 0.93818 0.65148 0.0
C416 C 0.75007 0.94475 0.49412 0.0
C417 C 0.73249 0.93856 0.60006 0.0
N418 N 0.70228 0.9565 0.47029 0.0
N419 N 0.77801 0.9189 0.62096 0.0
H420 H 0.70404 0.94251 0.66356 0.0
H421 H 0.73806 0.93515 0.68274 0.0
H422 H 0.79878 0.91417 0.61237 0.0
H423 H 0.77211 0.91241 0.65823 0.0
H424 H 0.70603 0.95547 0.43019 0.0
H425 H 0.68164 0.9617 0.47912 0.0
H426 H 0.74803 0.96057 0.41612 0.0
H427 H 0.77979 0.94524 0.43229 0.0
C428 C 0.54532 0.71433 0.03083 0.0
C429 C 0.56587 0.69296 0.027 0.0
C430 C 0.60102 0.72873 0.00768 0.0
C431 C 0.58153 0.75014 0.02039 0.0
N432 N 0.53645 0.76199 0.05754 0.0
N433 N 0.61516 0.68117 0.02535 0.0
C434 C 0.55399 0.74263 0.03573 0.0
C435 C 0.5943 0.70046 0.01918 0.0
N436 N 0.51753 0.70792 0.0279 0.0
N437 N 0.62546 0.73501 0.98273 0.0
H438 H 0.61163 0.66067 0.03766 0.0
H439 H 0.63628 0.68657 0.02443 0.0
H440 H 0.63047 0.75515 0.9701 0.0
H441 H 0.63908 0.71963 0.9689 0.0
H442 H 0.50199 0.72322 0.02604 0.0
H443 H 0.5102 0.68768 0.0209 0.0
H444 H 0.51708 0.75665 0.07334 0.0
H445 H 0.54246 0.78251 0.06579 0.0
C446 C 0.73981 0.5496 0.54072 0.0
C447 C 0.73021 0.54663 0.48834 0.0
C448 C 0.77785 0.55365 0.45527 0.0
C449 C 0.78769 0.55488 0.50774 0.0
N450 N 0.77926 0.55185 0.60068 0.0
N451 N 0.7395 0.54354 0.39565 0.0
C452 C 0.76899 0.55223 0.55058 0.0
C453 C 0.74909 0.548 0.44555 0.0
N454 N 0.72093 0.55025 0.58092 0.0
N455 N 0.79601 0.55826 0.41482 0.0
H456 H 0.71839 0.54095 0.38661 0.0
H457 H 0.75242 0.5409 0.36328 0.0
H458 H 0.81744 0.56105 0.42024 0.0
H459 H 0.78984 0.56093 0.37603 0.0
H460 H 0.726 0.55558 0.61933 0.0
H461 H 0.69956 0.54699 0.57551 0.0
H462 H 0.7674 0.54673 0.63342 0.0
H463 H 0.80028 0.5552 0.60962 0.0
C464 C 0.9351 0.52847 0.05489 0.0
C465 C 0.94608 0.55592 0.05018 0.0
C466 C 0.9888 0.54096 0.09538 0.0
C467 C 0.9797 0.51272 0.09185 0.0
N468 N 0.94534 0.47905 0.06199 0.0
N469 N 0.98435 0.5883 0.06215 0.0
C470 C 0.95299 0.50629 0.07059 0.0
C471 C 0.97307 0.56233 0.07004 0.0
N472 N 0.90742 0.52371 0.04491 0.0
N473 N 0.01224 0.54736 0.12368 0.0
H474 H 0.97355 0.60457 0.04392 0.0
H475 H 0.00515 0.59313 0.0702 0.0
H476 H 0.02402 0.53219 0.14319 0.0
H477 H 0.01845 0.56781 0.132 0.0
H478 H 0.89757 0.5047 0.05267 0.0
H479 H 0.89365 0.53966 0.03403 0.0
H480 H 0.92751 0.47339 0.041 0.0
H481 H 0.95793 0.46198 0.07152 0.0
C482 C 0.02557 0.94825 0.55214 0.0
C483 C 0.02817 0.97738 0.54211 0.0
C484 C 0.98198 0.9777 0.50042 0.0
C485 C 0.98054 0.94817 0.50605 0.0
N486 N 0.00288 0.90453 0.52909 0.0
N487 N 0.01137 0.01901 0.49879 0.0
C488 C 0.00284 0.93318 0.52977 0.0
C489 C 0.00705 0.99191 0.51407 0.0
N490 N 0.04416 0.93517 0.58472 0.0
N491 N 0.95902 0.99232 0.48385 0.0
H492 H 0.02965 0.03003 0.50743 0.0
H493 H -0.00194 0.02973 0.47344 0.0
H494 H 0.9401 0.9827 0.47423 0.0
H495 H 0.95783 0.01411 0.48433 0.0
H496 H 0.0415 0.91476 0.5982 0.0
H497 H 0.06105 0.94546 0.60205 0.0
H498 H 0.02002 0.8925 0.54043 0.0
H499 H 0.98668 0.89268 0.51295 0.0
C500 C 0.53001 0.05221 0.99663 0.0
C501 C 0.50345 0.05577 0.97252 0.0
C502 C 0.50839 0.0106 0.92759 0.0
C503 C 0.53488 0.00703 0.95178 0.0
N504 N 0.57379 0.02663 -0.00035 0.0
N505 N 0.47013 0.04213 0.90646 0.0
C506 C 0.54673 0.02871 0.98275 0.0
C507 C 0.49351 0.03608 0.93524 0.0
N508 N 0.53841 0.07008 0.03557 0.0
N509 N 0.49726 0.98937 0.89816 0.0
H510 H 0.45906 0.06084 0.91083 0.0
H511 H 0.4631 0.02996 0.87523 0.0
H512 H 0.50833 0.97117 0.88897 0.0
H513 H 0.47668 0.98912 0.88482 0.0
H514 H 0.55583 0.06656 0.05918 0.0
H515 H 0.52687 0.0875 0.04732 0.0
H516 H 0.58461 0.0431 0.01723 0.0
H517 H 0.58632 0.00919 0.99241 0.0
C518 C 0.52006 0.53272 0.5066 0.0
C519 C 0.54161 0.5417 0.54107 0.0
C520 C 0.52383 0.51029 0.60943 0.0
C521 C 0.50138 0.5027 0.5758 0.0
N522 N 0.47412 0.51205 0.49816 0.0
N523 N 0.56157 0.54294 0.62782 0.0
C524 C 0.49828 0.51558 0.52613 0.0
C525 C 0.54278 0.53164 0.59335 0.0
N526 N 0.52113 0.53923 0.45444 0.0
N527 N 0.52769 0.49634 0.65564 0.0
H528 H 0.57577 0.55851 0.61715 0.0
H529 H 0.56161 0.53862 0.66781 0.0
H530 H 0.51409 0.48083 0.66888 0.0
H531 H 0.54536 0.49871 0.67914 0.0
H532 H 0.50764 0.53059 0.42668 0.0
H533 H 0.53715 0.55102 0.43777 0.0
H534 H 0.46952 0.52329 0.46425 0.0
H535 H 0.45737 0.50009 0.51171 0.0
C536 C 0.95254 0.02633 0.94869 0.0
C537 C 0.98135 0.02354 0.96096 0.0
C538 C 0.97206 0.97887 0.0048 0.0
C539 C 0.94298 0.98306 0.99713 0.0
N540 N 0.90499 0.01292 0.96946 0.0
N541 N 0.01815 -0.0002 0.00804 0.0
C542 C 0.93302 0.00735 0.97103 0.0
C543 C 0.99104 0.00049 0.99099 0.0
N544 N 0.9439 0.04643 0.91412 0.0
N545 N 0.98161 0.9538 0.02358 0.0
H546 H 0.03263 0.01544 -0.0007 0.0
H547 H 0.02565 0.98512 0.03476 0.0
H548 H 0.96836 0.93727 0.03341 0.0
H549 H 0.0027 0.9484 0.02478 0.0
H550 H 0.92366 0.04745 0.89915 0.0
H551 H 0.95754 0.06068 0.8967 0.0
H552 H 0.89675 0.03185 0.95628 0.0
H553 H 0.88999 -0.00037 0.9855 0.0
C554 C 0.50649 0.00933 0.51058 0.0
C555 C 0.49295 0.9958 0.46801 0.0
C556 C 0.51959 0.95284 0.48495 0.0
C557 C 0.53487 0.96715 0.52454 0.0
N558 N 0.5463 0.01016 0.56953 0.0
N559 N 0.48846 0.95605 0.41009 0.0
C560 C 0.52916 0.99569 0.53609 0.0
C561 C 0.50014 0.96798 0.45371 0.0
N562 N 0.49762 0.03518 0.52669 0.0
N563 N 0.5226 0.92451 0.479 0.0
H564 H 0.47296 0.96582 0.38786 0.0
H565 H 0.49537 0.93724 0.39392 0.0
H566 H 0.53629 0.91255 0.50163 0.0
H567 H 0.50984 0.91238 0.4549 0.0
H568 H 0.50443 0.04474 0.56113 0.0
H569 H 0.48187 0.04635 0.5076 0.0
H570 H 0.54511 0.03172 0.5753 0.0
H571 H 0.56348 0.00107 0.58813 0.0
C572 C 0.50106 0.53557 0.97227 0.0
C573 C 0.52802 0.53711 0.9495 0.0
C574 C 0.5122 0.50742 0.87669 0.0
C575 C 0.48674 0.50262 0.90364 0.0
N576 N 0.45829 0.50904 0.98093 0.0
N577 N 0.56045 0.5227 0.88229 0.0
C578 C 0.48138 0.51606 0.95226 0.0
C579 C 0.53388 0.52281 0.90192 0.0
N580 N 0.49407 0.55323 0.01241 0.0
N581 N 0.5154 0.49767 0.82665 0.0
H582 H 0.57689 0.53375 0.8995 0.0
H583 H 0.56671 0.51005 0.85117 0.0
H584 H 0.49987 0.48635 0.80713 0.0
H585 H 0.53229 0.50288 0.80289 0.0
H586 H 0.47384 0.55507 0.02702 0.0
H587 H 0.50784 0.56815 0.02751 0.0
H588 H 0.45512 0.51574 0.01933 0.0
H589 H 0.44344 0.49451 0.96838 0.0
C590 C 0.97662 0.56626 0.4282 0.0
C591 C 0.95174 0.55498 0.44953 0.0
C592 C 0.96447 0.50838 0.41703 0.0
C593 C 0.99129 0.51877 0.4036 0.0
N594 N 0.02408 0.55726 0.39999 0.0
N595 N 0.9214 0.51562 0.46529 0.0
C596 C -0.00243 0.54774 0.40916 0.0
C597 C 0.94538 0.52613 0.44384 0.0
N598 N 0.98035 0.59465 0.42684 0.0
N599 N 0.95714 0.4817 0.40304 0.0
H600 H 0.90621 0.52833 0.4825 0.0
H601 H 0.91715 0.49429 0.46831 0.0
H602 H 0.97056 0.4684 0.38251 0.0
H603 H 0.93707 0.47361 0.40732 0.0
H604 H 0.99668 0.60431 0.40692 0.0
H605 H 0.9657 0.60874 0.44175 0.0
H606 H 0.03076 0.5774 0.40946 0.0
H607 H 0.04023 0.54448 0.38665 0.0
loop_
_geom_bond_atom_site_label_1
_geom_bond_atom_site_label_2
_geom_bond_distance
_geom_bond_site_symmetry_2
_ccdc_geom_bond_type
O0 Cd1 2.300 . S
O0 C7 1.275 . S
Cd1 O0 2.300 . S
Cd1 O9 2.381 . S
Cd1 O10 2.378 . S
O2 Cd3 2.385 1_455 S
O2 C7 1.255 . S
Cd3 O2 2.385 1_655 S
Cd3 O4 2.317 1_655 S
O4 Cd3 2.317 1_455 S
O4 C5 1.232 . S
C5 O4 1.232 . S
C5 O6 1.218 . S
O6 C5 1.218 . S
C7 O0 1.275 . S
C7 O2 1.255 . S
C8 O9 1.258 . S
C8 O10 1.256 . S
O9 Cd1 2.381 . S
O9 C8 1.258 . S
O10 Cd1 2.378 . S
O10 C8 1.256 . S
O11 Cd12 2.300 . S
O11 C18 1.275 . S
Cd12 O11 2.300 . S
Cd12 O20 2.381 . S
Cd12 O21 2.378 . S
O13 Cd14 2.385 1_545 S
O13 C18 1.255 . S
Cd14 O13 2.385 1_565 S
Cd14 O15 2.317 1_565 S
O15 Cd14 2.317 1_545 S
O15 C16 1.232 . S
C16 O15 1.232 . S
C16 O17 1.218 . S
O17 C16 1.218 . S
C18 O11 1.275 . S
C18 O13 1.255 . S
C19 O20 1.258 . S
C19 O21 1.256 . S
O20 Cd12 2.381 . S
O20 C19 1.258 . S
O21 Cd12 2.378 . S
O21 C19 1.256 . S
O22 Cd23 2.300 . S
O22 C29 1.275 . S
Cd23 O22 2.300 . S
Cd23 O31 2.381 . S
Cd23 O32 2.378 . S
O24 Cd25 2.385 . S
O24 C29 1.255 . S
Cd25 O24 2.385 . S
Cd25 O26 2.317 . S
O26 Cd25 2.317 . S
O26 C27 1.232 . S
C27 O26 1.232 . S
C27 O28 1.218 . S
O28 C27 1.218 . S
C29 O22 1.275 . S
C29 O24 1.255 . S
C30 O31 1.258 . S
C30 O32 1.256 . S
O31 Cd23 2.381 . S
O31 C30 1.258 . S
O32 Cd23 2.378 . S
O32 C30 1.256 . S
O33 Cd34 2.300 . S
O33 C40 1.275 . S
Cd34 O33 2.300 . S
Cd34 O42 2.381 . S
Cd34 O43 2.378 . S
O35 Cd36 2.385 . S
O35 C40 1.255 . S
Cd36 O35 2.385 . S
Cd36 O37 2.317 . S
O37 Cd36 2.317 . S
O37 C38 1.232 . S
C38 O37 1.232 . S
C38 O39 1.218 . S
O39 C38 1.218 . S
C40 O33 1.275 . S
C40 O35 1.255 . S
C41 O42 1.258 . S
C41 O43 1.256 . S
O42 Cd34 2.381 . S
O42 C41 1.258 . S
O43 Cd34 2.378 . S
O43 C41 1.256 . S
O44 Cd45 2.300 . S
O44 C51 1.275 . S
Cd45 O44 2.300 . S
Cd45 O53 2.381 . S
Cd45 O54 2.378 . S
O46 Cd47 2.385 1_455 S
O46 C51 1.255 . S
Cd47 O46 2.385 1_655 S
Cd47 O48 2.317 1_655 S
O48 Cd47 2.317 1_455 S
O48 C49 1.232 . S
C49 O48 1.232 . S
C49 O50 1.218 . S
O50 C49 1.218 . S
C51 O44 1.275 . S
C51 O46 1.255 . S
C52 O53 1.258 . S
C52 O54 1.256 . S
O53 Cd45 2.381 . S
O53 C52 1.258 . S
O54 Cd45 2.378 . S
O54 C52 1.256 . S
O55 Cd56 2.300 . S
O55 C62 1.275 . S
Cd56 O55 2.300 . S
Cd56 O64 2.381 . S
Cd56 O65 2.378 . S
O57 Cd58 2.385 1_545 S
O57 C62 1.255 . S
Cd58 O57 2.385 1_565 S
Cd58 O59 2.317 1_565 S
O59 Cd58 2.317 1_545 S
O59 C60 1.232 . S
C60 O59 1.232 . S
C60 O61 1.218 . S
O61 C60 1.218 . S
C62 O55 1.275 . S
C62 O57 1.255 . S
C63 O64 1.258 . S
C63 O65 1.256 . S
O64 Cd56 2.381 . S
O64 C63 1.258 . S
O65 Cd56 2.378 . S
O65 C63 1.256 . S
O66 Cd67 2.300 . S
O66 C73 1.275 . S
Cd67 O66 2.300 . S
Cd67 O75 2.381 . S
Cd67 O76 2.378 . S
O68 Cd69 2.385 . S
O68 C73 1.255 . S
Cd69 O68 2.385 . S
Cd69 O70 2.317 . S
O70 Cd69 2.317 . S
O70 C71 1.232 . S
C71 O70 1.232 . S
C71 O72 1.218 . S
O72 C71 1.218 . S
C73 O66 1.275 . S
C73 O68 1.255 . S
C74 O75 1.258 . S
C74 O76 1.256 . S
O75 Cd67 2.381 . S
O75 C74 1.258 . S
O76 Cd67 2.378 . S
O76 C74 1.256 . S
O77 Cd78 2.300 . S
O77 C84 1.275 . S
Cd78 O77 2.300 . S
Cd78 O86 2.381 . S
Cd78 O87 2.378 . S
O79 Cd80 2.385 . S
O79 C84 1.255 . S
Cd80 O79 2.385 . S
Cd80 O81 2.317 . S
O81 Cd80 2.317 . S
O81 C82 1.232 . S
C82 O81 1.232 . S
C82 O83 1.218 . S
O83 C82 1.218 . S
C84 O77 1.275 . S
C84 O79 1.255 . S
C85 O86 1.258 . S
C85 O87 1.256 . S
O86 Cd78 2.381 . S
O86 C85 1.258 . S
O87 Cd78 2.378 . S
O87 C85 1.256 . S
O88 Cd89 2.300 . S
O88 C95 1.275 . S
Cd89 O88 2.300 . S
Cd89 O97 2.381 . S
Cd89 O98 2.378 1_556 S
O90 Cd91 2.385 . S
O90 C95 1.255 . S
Cd91 O90 2.385 . S
Cd91 O92 2.317 . S
O92 Cd91 2.317 . S
O92 C93 1.232 . S
C93 O92 1.232 . S
C93 O94 1.218 . S
O94 C93 1.218 . S
C95 O88 1.275 . S
C95 O90 1.255 . S
C96 O97 1.258 . S
C96 O98 1.256 1_556 S
O97 Cd89 2.381 . S
O97 C96 1.258 . S
O98 Cd89 2.378 1_554 S
O98 C96 1.256 1_554 S
O99 Cd100 2.300 . S
O99 C106 1.275 . S
Cd100 O99 2.300 . S
Cd100 O108 2.381 . S
Cd100 O109 2.378 . S
O101 Cd102 2.385 . S
O101 C106 1.255 . S
Cd102 O101 2.385 . S
Cd102 O103 2.317 . S
O103 Cd102 2.317 . S
O103 C104 1.232 . S
C104 O103 1.232 . S
C104 O105 1.218 . S
O105 C104 1.218 . S
C106 O99 1.275 . S
C106 O101 1.255 . S
C107 O108 1.258 . S
C107 O109 1.256 . S
O108 Cd100 2.381 . S
O108 C107 1.258 . S
O109 Cd100 2.378 . S
O109 C107 1.256 . S
O110 Cd111 2.300 . S
O110 C117 1.275 . S
Cd111 O110 2.300 . S
Cd111 O119 2.381 . S
Cd111 O120 2.378 1_556 S
O112 Cd113 2.385 . S
O112 C117 1.255 . S
Cd113 O112 2.385 . S
Cd113 O114 2.317 . S
O114 Cd113 2.317 . S
O114 C115 1.232 . S
C115 O114 1.232 . S
C115 O116 1.218 . S
O116 C115 1.218 . S
C117 O110 1.275 . S
C117 O112 1.255 . S
C118 O119 1.258 . S
C118 O120 1.256 1_556 S
O119 Cd111 2.381 . S
O119 C118 1.258 . S
O120 Cd111 2.378 1_554 S
O120 C118 1.256 1_554 S
O121 Cd122 2.300 . S
O121 C128 1.275 . S
Cd122 O121 2.300 . S
Cd122 O130 2.381 . S
Cd122 O131 2.378 . S
O123 Cd124 2.385 . S
O123 C128 1.255 . S
Cd124 O123 2.385 . S
Cd124 O125 2.317 . S
O125 Cd124 2.317 . S
O125 C126 1.232 . S
C126 O125 1.232 . S
C126 O127 1.218 . S
O127 C126 1.218 . S
C128 O121 1.275 . S
C128 O123 1.255 . S
C129 O130 1.258 . S
C129 O131 1.256 . S
O130 Cd122 2.381 . S
O130 C129 1.258 . S
O131 Cd122 2.378 . S
O131 C129 1.256 . S
O132 Cd133 2.300 . S
O132 C139 1.275 . S
Cd133 O132 2.300 . S
Cd133 O141 2.381 . S
Cd133 O142 2.378 1_554 S
O134 Cd135 2.385 . S
O134 C139 1.255 . S
Cd135 O134 2.385 . S
Cd135 O136 2.317 . S
O136 Cd135 2.317 . S
O136 C137 1.232 . S
C137 O136 1.232 . S
C137 O138 1.218 . S
O138 C137 1.218 . S
C139 O132 1.275 . S
C139 O134 1.255 . S
C140 O141 1.258 . S
C140 O142 1.256 1_554 S
O141 Cd133 2.381 . S
O141 C140 1.258 . S
O142 Cd133 2.378 1_556 S
O142 C140 1.256 1_556 S
O143 Cd144 2.300 . S
O143 C150 1.275 . S
Cd144 O143 2.300 . S
Cd144 O152 2.381 . S
Cd144 O153 2.378 . S
O145 Cd146 2.385 . S
O145 C150 1.255 . S
Cd146 O145 2.385 . S
Cd146 O147 2.317 . S
O147 Cd146 2.317 . S
O147 C148 1.232 . S
C148 O147 1.232 . S
C148 O149 1.218 . S
O149 C148 1.218 . S
C150 O143 1.275 . S
C150 O145 1.255 . S
C151 O152 1.258 . S
C151 O153 1.256 . S
O152 Cd144 2.381 . S
O152 C151 1.258 . S
O153 Cd144 2.378 . S
O153 C151 1.256 . S
O154 Cd155 2.300 . S
O154 C161 1.275 . S
Cd155 O154 2.300 . S
Cd155 O163 2.381 . S
Cd155 O164 2.378 1_554 S
O156 Cd157 2.385 . S
O156 C161 1.255 . S
Cd157 O156 2.385 . S
Cd157 O158 2.317 . S
O158 Cd157 2.317 . S
O158 C159 1.232 . S
C159 O158 1.232 . S
C159 O160 1.218 . S
O160 C159 1.218 . S
C161 O154 1.275 . S
C161 O156 1.255 . S
C162 O163 1.258 . S
C162 O164 1.256 1_554 S
O163 Cd155 2.381 . S
O163 C162 1.258 . S
O164 Cd155 2.378 1_556 S
O164 C162 1.256 1_556 S
O165 Cd166 2.300 . S
O165 C172 1.275 . S
Cd166 O165 2.300 . S
Cd166 O174 2.381 . S
Cd166 O175 2.378 . S
O167 Cd168 2.385 . S
O167 C172 1.255 . S
Cd168 O167 2.385 . S
Cd168 O169 2.317 . S
O169 Cd168 2.317 . S
O169 C170 1.232 . S
C170 O169 1.232 . S
C170 O171 1.218 . S
O171 C170 1.218 . S
C172 O165 1.275 . S
C172 O167 1.255 . S
C173 O174 1.258 . S
C173 O175 1.256 . S
O174 Cd166 2.381 . S
O174 C173 1.258 . S
O175 Cd166 2.378 . S
O175 C173 1.256 . S
C176 C177 1.363 . S
C176 C182 1.379 . S
C176 N184 1.356 . S
C177 C176 1.363 . S
C177 C183 1.363 . S
C178 C179 1.363 . S
C178 C183 1.379 . S
C178 N185 1.356 . S
C179 C178 1.363 . S
C179 C182 1.363 . S
N180 C182 1.356 . S
N180 H192 0.984 . S
N180 H193 0.985 . S
N181 C183 1.356 . S
N181 H186 0.984 . S
N181 H187 0.985 . S
C182 C176 1.379 . S
C182 C179 1.363 . S
C182 N180 1.356 . S
C183 C177 1.363 . S
C183 C178 1.379 . S
C183 N181 1.356 . S
N184 C176 1.356 . S
N184 H190 0.984 . S
N184 H191 0.984 . S
N185 C178 1.356 . S
N185 H188 0.984 . S
N185 H189 0.985 . S
H186 N181 0.984 . S
H187 N181 0.985 . S
H188 N185 0.984 . S
H189 N185 0.985 . S
H190 N184 0.984 . S
H191 N184 0.984 . S
H192 N180 0.984 . S
H193 N180 0.985 . S
C194 C195 1.363 . S
C194 C200 1.379 . S
C194 N202 1.356 . S
C195 C194 1.363 . S
C195 C201 1.363 . S
C196 C197 1.363 . S
C196 C201 1.379 . S
C196 N203 1.356 . S
C197 C196 1.363 . S
C197 C200 1.363 . S
N198 C200 1.356 . S
N198 H210 0.984 . S
N198 H211 0.985 . S
N199 C201 1.356 . S
N199 H204 0.984 . S
N199 H205 0.985 . S
C200 C194 1.379 . S
C200 C197 1.363 . S
C200 N198 1.356 . S
C201 C195 1.363 . S
C201 C196 1.379 . S
C201 N199 1.356 . S
N202 C194 1.356 . S
N202 H208 0.984 . S
N202 H209 0.984 . S
N203 C196 1.356 . S
N203 H206 0.984 . S
N203 H207 0.985 . S
H204 N199 0.984 . S
H205 N199 0.985 . S
H206 N203 0.984 . S
H207 N203 0.985 . S
H208 N202 0.984 . S
H209 N202 0.984 . S
H210 N198 0.984 . S
H211 N198 0.985 . S
C212 C213 1.363 . S
C212 C218 1.379 . S
C212 N220 1.356 . S
C213 C212 1.363 . S
C213 C219 1.363 . S
C214 C215 1.363 . S
C214 C219 1.379 . S
C214 N221 1.356 . S
C215 C214 1.363 . S
C215 C218 1.363 . S
N216 C218 1.356 . S
N216 H228 0.984 . S
N216 H229 0.985 . S
N217 C219 1.356 . S
N217 H222 0.984 . S
N217 H223 0.985 . S
C218 C212 1.379 . S
C218 C215 1.363 . S
C218 N216 1.356 . S
C219 C213 1.363 . S
C219 C214 1.379 . S
C219 N217 1.356 . S
N220 C212 1.356 . S
N220 H226 0.984 . S
N220 H227 0.984 . S
N221 C214 1.356 . S
N221 H224 0.984 . S
N221 H225 0.985 . S
H222 N217 0.984 . S
H223 N217 0.985 . S
H224 N221 0.984 . S
H225 N221 0.985 . S
H226 N220 0.984 . S
H227 N220 0.984 . S
H228 N216 0.984 . S
H229 N216 0.985 . S
C230 C231 1.363 . S
C230 C236 1.379 . S
C230 N238 1.356 . S
C231 C230 1.363 . S
C231 C237 1.363 . S
C232 C233 1.363 . S
C232 C237 1.379 . S
C232 N239 1.356 . S
C233 C232 1.363 . S
C233 C236 1.363 . S
N234 C236 1.356 . S
N234 H246 0.984 . S
N234 H247 0.985 . S
N235 C237 1.356 . S
N235 H240 0.984 . S
N235 H241 0.985 . S
C236 C230 1.379 . S
C236 C233 1.363 . S
C236 N234 1.356 . S
C237 C231 1.363 . S
C237 C232 1.379 . S
C237 N235 1.356 . S
N238 C230 1.356 . S
N238 H244 0.984 . S
N238 H245 0.984 . S
N239 C232 1.356 . S
N239 H242 0.984 . S
N239 H243 0.985 . S
H240 N235 0.984 . S
H241 N235 0.985 . S
H242 N239 0.984 . S
H243 N239 0.985 . S
H244 N238 0.984 . S
H245 N238 0.984 . S
H246 N234 0.984 . S
H247 N234 0.985 . S
C248 C249 1.363 . S
C248 C254 1.379 . S
C248 N256 1.356 . S
C249 C248 1.363 . S
C249 C255 1.363 . S
C250 C251 1.363 . S
C250 C255 1.379 . S
C250 N257 1.356 . S
C251 C250 1.363 . S
C251 C254 1.363 . S
N252 C254 1.356 . S
N252 H264 0.984 . S
N252 H265 0.985 . S
N253 C255 1.356 . S
N253 H258 0.984 . S
N253 H259 0.985 . S
C254 C248 1.379 . S
C254 C251 1.363 . S
C254 N252 1.356 . S
C255 C249 1.363 . S
C255 C250 1.379 . S
C255 N253 1.356 . S
N256 C248 1.356 . S
N256 H262 0.984 . S
N256 H263 0.984 . S
N257 C250 1.356 . S
N257 H260 0.984 . S
N257 H261 0.985 . S
H258 N253 0.984 . S
H259 N253 0.985 . S
H260 N257 0.984 . S
H261 N257 0.985 . S
H262 N256 0.984 . S
H263 N256 0.984 . S
H264 N252 0.984 . S
H265 N252 0.985 . S
C266 C267 1.363 . S
C266 C272 1.379 . S
C266 N274 1.356 . S
C267 C266 1.363 . S
C267 C273 1.363 . S
C268 C269 1.363 . S
C268 C273 1.379 . S
C268 N275 1.356 . S
C269 C268 1.363 . S
C269 C272 1.363 . S
N270 C272 1.356 . S
N270 H282 0.984 . S
N270 H283 0.985 . S
N271 C273 1.356 . S
N271 H276 0.984 . S
N271 H277 0.985 . S
C272 C266 1.379 . S
C272 C269 1.363 . S
C272 N270 1.356 . S
C273 C267 1.363 . S
C273 C268 1.379 . S
C273 N271 1.356 . S
N274 C266 1.356 . S
N274 H280 0.984 . S
N274 H281 0.984 . S
N275 C268 1.356 . S
N275 H278 0.984 . S
N275 H279 0.985 . S
H276 N271 0.984 . S
H277 N271 0.985 . S
H278 N275 0.984 . S
H279 N275 0.985 . S
H280 N274 0.984 . S
H281 N274 0.984 . S
H282 N270 0.984 . S
H283 N270 0.985 . S
C284 C285 1.363 . S
C284 C290 1.379 . S
C284 N292 1.356 . S
C285 C284 1.363 . S
C285 C291 1.363 . S
C286 C287 1.363 . S
C286 C291 1.379 . S
C286 N293 1.356 . S
C287 C286 1.363 . S
C287 C290 1.363 . S
N288 C290 1.356 . S
N288 H300 0.984 . S
N288 H301 0.985 . S
N289 C291 1.356 . S
N289 H294 0.984 . S
N289 H295 0.985 . S
C290 C284 1.379 . S
C290 C287 1.363 . S
C290 N288 1.356 . S
C291 C285 1.363 . S
C291 C286 1.379 . S
C291 N289 1.356 . S
N292 C284 1.356 . S
N292 H298 0.984 . S
N292 H299 0.984 . S
N293 C286 1.356 . S
N293 H296 0.984 . S
N293 H297 0.985 . S
H294 N289 0.984 . S
H295 N289 0.985 . S
H296 N293 0.984 . S
H297 N293 0.985 . S
H298 N292 0.984 . S
H299 N292 0.984 . S
H300 N288 0.984 . S
H301 N288 0.985 . S
C302 C303 1.363 . S
C302 C308 1.379 . S
C302 N310 1.356 . S
C303 C302 1.363 . S
C303 C309 1.363 . S
C304 C305 1.363 . S
C304 C309 1.379 . S
C304 N311 1.356 . S
C305 C304 1.363 . S
C305 C308 1.363 . S
N306 C308 1.356 . S
N306 H318 0.984 . S
N306 H319 0.985 . S
N307 C309 1.356 . S
N307 H312 0.984 . S
N307 H313 0.985 . S
C308 C302 1.379 . S
C308 C305 1.363 . S
C308 N306 1.356 . S
C309 C303 1.363 . S
C309 C304 1.379 . S
C309 N307 1.356 . S
N310 C302 1.356 . S
N310 H316 0.984 . S
N310 H317 0.984 . S
N311 C304 1.356 . S
N311 H314 0.984 . S
N311 H315 0.985 . S
H312 N307 0.984 . S
H313 N307 0.985 . S
H314 N311 0.984 . S
H315 N311 0.985 . S
H316 N310 0.984 . S
H317 N310 0.984 . S
H318 N306 0.984 . S
H319 N306 0.985 . S
C320 C321 1.363 . S
C320 C326 1.379 . S
C320 N328 1.356 . S
C321 C320 1.363 . S
C321 C327 1.363 1_554 S
C322 C323 1.363 . S
C322 C327 1.379 . S
C322 N329 1.356 . S
C323 C322 1.363 . S
C323 C326 1.363 1_556 S
N324 C326 1.356 . S
N324 H336 0.984 . S
N324 H337 0.985 . S
N325 C327 1.356 . S
N325 H330 0.984 . S
N325 H331 0.985 . S
C326 C320 1.379 . S
C326 C323 1.363 1_554 S
C326 N324 1.356 . S
C327 C321 1.363 1_556 S
C327 C322 1.379 . S
C327 N325 1.356 . S
N328 C320 1.356 . S
N328 H334 0.984 . S
N328 H335 0.984 . S
N329 C322 1.356 . S
N329 H332 0.984 . S
N329 H333 0.985 . S
H330 N325 0.984 . S
H331 N325 0.985 . S
H332 N329 0.984 . S
H333 N329 0.985 . S
H334 N328 0.984 . S
H335 N328 0.984 . S
H336 N324 0.984 . S
H337 N324 0.985 . S
C338 C339 1.363 . S
C338 C344 1.379 . S
C338 N346 1.356 . S
C339 C338 1.363 . S
C339 C345 1.363 . S
C340 C341 1.363 . S
C340 C345 1.379 . S
C340 N347 1.356 . S
C341 C340 1.363 . S
C341 C344 1.363 . S
N342 C344 1.356 . S
N342 H354 0.984 . S
N342 H355 0.985 . S
N343 C345 1.356 . S
N343 H348 0.984 . S
N343 H349 0.985 . S
C344 C338 1.379 . S
C344 C341 1.363 . S
C344 N342 1.356 . S
C345 C339 1.363 . S
C345 C340 1.379 . S
C345 N343 1.356 . S
N346 C338 1.356 . S
N346 H352 0.984 . S
N346 H353 0.984 . S
N347 C340 1.356 . S
N347 H350 0.984 . S
N347 H351 0.985 . S
H348 N343 0.984 . S
H349 N343 0.985 . S
H350 N347 0.984 . S
H351 N347 0.985 . S
H352 N346 0.984 . S
H353 N346 0.984 . S
H354 N342 0.984 . S
H355 N342 0.985 . S
C356 C357 1.363 1_554 S
C356 C362 1.379 . S
C356 N364 1.356 . S
C357 C356 1.363 1_556 S
C357 C363 1.363 . S
C358 C359 1.363 1_556 S
C358 C363 1.379 . S
C358 N365 1.356 . S
C359 C358 1.363 1_554 S
C359 C362 1.363 . S
N360 C362 1.356 . S
N360 H372 0.984 . S
N360 H373 0.985 . S
N361 C363 1.356 . S
N361 H366 0.984 . S
N361 H367 0.985 . S
C362 C356 1.379 . S
C362 C359 1.363 . S
C362 N360 1.356 . S
C363 C357 1.363 . S
C363 C358 1.379 . S
C363 N361 1.356 . S
N364 C356 1.356 . S
N364 H370 0.984 . S
N364 H371 0.984 . S
N365 C358 1.356 . S
N365 H368 0.984 . S
N365 H369 0.985 . S
H366 N361 0.984 . S
H367 N361 0.985 . S
H368 N365 0.984 . S
H369 N365 0.985 . S
H370 N364 0.984 . S
H371 N364 0.984 . S
H372 N360 0.984 . S
H373 N360 0.985 . S
C374 C375 1.363 . S
C374 C380 1.379 . S
C374 N382 1.356 . S
C375 C374 1.363 . S
C375 C381 1.363 . S
C376 C377 1.363 . S
C376 C381 1.379 . S
C376 N383 1.356 . S
C377 C376 1.363 . S
C377 C380 1.363 . S
N378 C380 1.356 . S
N378 H390 0.984 . S
N378 H391 0.985 . S
N379 C381 1.356 . S
N379 H384 0.984 . S
N379 H385 0.985 . S
C380 C374 1.379 . S
C380 C377 1.363 . S
C380 N378 1.356 . S
C381 C375 1.363 . S
C381 C376 1.379 . S
C381 N379 1.356 . S
N382 C374 1.356 . S
N382 H388 0.984 . S
N382 H389 0.984 . S
N383 C376 1.356 . S
N383 H386 0.984 . S
N383 H387 0.985 . S
H384 N379 0.984 . S
H385 N379 0.985 . S
H386 N383 0.984 . S
H387 N383 0.985 . S
H388 N382 0.984 . S
H389 N382 0.984 . S
H390 N378 0.984 . S
H391 N378 0.985 . S
C392 C393 1.363 . S
C392 C398 1.379 . S
C392 N400 1.356 . S
C393 C392 1.363 . S
C393 C399 1.363 1_554 S
C394 C395 1.363 . S
C394 C399 1.379 . S
C394 N401 1.356 . S
C395 C394 1.363 . S
C395 C398 1.363 1_556 S
N396 C398 1.356 . S
N396 H408 0.984 . S
N396 H409 0.985 . S
N397 C399 1.356 . S
N397 H402 0.984 . S
N397 H403 0.985 . S
C398 C392 1.379 . S
C398 C395 1.363 1_554 S
C398 N396 1.356 . S
C399 C393 1.363 1_556 S
C399 C394 1.379 . S
C399 N397 1.356 . S
N400 C392 1.356 . S
N400 H406 0.984 . S
N400 H407 0.984 . S
N401 C394 1.356 . S
N401 H404 0.984 . S
N401 H405 0.985 . S
H402 N397 0.984 . S
H403 N397 0.985 . S
H404 N401 0.984 . S
H405 N401 0.985 . S
H406 N400 0.984 . S
H407 N400 0.984 . S
H408 N396 0.984 . S
H409 N396 0.985 . S
C410 C411 1.363 . S
C410 C416 1.379 . S
C410 N418 1.356 . S
C411 C410 1.363 . S
C411 C417 1.363 . S
C412 C413 1.363 . S
C412 C417 1.379 . S
C412 N419 1.356 . S
C413 C412 1.363 . S
C413 C416 1.363 . S
N414 C416 1.356 . S
N414 H426 0.984 . S
N414 H427 0.985 . S
N415 C417 1.356 . S
N415 H420 0.984 . S
N415 H421 0.985 . S
C416 C410 1.379 . S
C416 C413 1.363 . S
C416 N414 1.356 . S
C417 C411 1.363 . S
C417 C412 1.379 . S
C417 N415 1.356 . S
N418 C410 1.356 . S
N418 H424 0.984 . S
N418 H425 0.984 . S
N419 C412 1.356 . S
N419 H422 0.984 . S
N419 H423 0.985 . S
H420 N415 0.984 . S
H421 N415 0.985 . S
H422 N419 0.984 . S
H423 N419 0.985 . S
H424 N418 0.984 . S
H425 N418 0.984 . S
H426 N414 0.984 . S
H427 N414 0.985 . S
C428 C429 1.363 . S
C428 C434 1.379 . S
C428 N436 1.356 . S
C429 C428 1.363 . S
C429 C435 1.363 1_554 S
C430 C431 1.363 . S
C430 C435 1.379 . S
C430 N437 1.356 . S
C431 C430 1.363 . S
C431 C434 1.363 1_556 S
N432 C434 1.356 . S
N432 H444 0.984 . S
N432 H445 0.985 . S
N433 C435 1.356 . S
N433 H438 0.984 . S
N433 H439 0.985 . S
C434 C428 1.379 . S
C434 C431 1.363 1_554 S
C434 N432 1.356 . S
C435 C429 1.363 1_556 S
C435 C430 1.379 . S
C435 N433 1.356 . S
N436 C428 1.356 . S
N436 H442 0.984 . S
N436 H443 0.984 . S
N437 C430 1.356 . S
N437 H440 0.984 . S
N437 H441 0.985 . S
H438 N433 0.984 . S
H439 N433 0.985 . S
H440 N437 0.984 . S
H441 N437 0.985 . S
H442 N436 0.984 . S
H443 N436 0.984 . S
H444 N432 0.984 . S
H445 N432 0.985 . S
C446 C447 1.363 . S
C446 C452 1.379 . S
C446 N454 1.356 . S
C447 C446 1.363 . S
C447 C453 1.363 . S
C448 C449 1.363 . S
C448 C453 1.379 . S
C448 N455 1.356 . S
C449 C448 1.363 . S
C449 C452 1.363 . S
N450 C452 1.356 . S
N450 H462 0.984 . S
N450 H463 0.985 . S
N451 C453 1.356 . S
N451 H456 0.984 . S
N451 H457 0.985 . S
C452 C446 1.379 . S
C452 C449 1.363 . S
C452 N450 1.356 . S
C453 C447 1.363 . S
C453 C448 1.379 . S
C453 N451 1.356 . S
N454 C446 1.356 . S
N454 H460 0.984 . S
N454 H461 0.984 . S
N455 C448 1.356 . S
N455 H458 0.984 . S
N455 H459 0.985 . S
H456 N451 0.984 . S
H457 N451 0.985 . S
H458 N455 0.984 . S
H459 N455 0.985 . S
H460 N454 0.984 . S
H461 N454 0.984 . S
H462 N450 0.984 . S
H463 N450 0.985 . S
C464 C465 1.363 . S
C464 C470 1.379 1_556 S
C464 N472 1.356 . S
C465 C464 1.363 . S
C465 C471 1.363 1_655 S
C466 C467 1.363 . S
C466 C471 1.379 1_554 S
C466 N473 1.356 . S
C467 C466 1.363 . S
C467 C470 1.363 1_455 S
N468 C470 1.356 . S
N468 H480 0.986 . S
N468 H481 0.985 . S
N469 C471 1.356 . S
N469 H474 0.984 . S
N469 H475 0.986 . S
C470 C464 1.379 1_554 S
C470 C467 1.363 1_655 S
C470 N468 1.356 . S
C471 C465 1.363 1_455 S
C471 C466 1.379 1_556 S
C471 N469 1.356 . S
N472 C464 1.356 . S
N472 H478 0.984 . S
N472 H479 0.984 . S
N473 C466 1.356 . S
N473 H476 0.984 . S
N473 H477 0.985 . S
H474 N469 0.984 . S
H475 N469 0.986 . S
H476 N473 0.984 . S
H477 N473 0.985 . S
H478 N472 0.984 . S
H479 N472 0.984 . S
H480 N468 0.986 . S
H481 N468 0.985 . S
C482 C483 1.363 1_565 S
C482 C488 1.379 1_455 S
C482 N490 1.356 . S
C483 C482 1.363 1_545 S
C483 C489 1.363 . S
C484 C485 1.363 1_545 S
C484 C489 1.379 1_655 S
C484 N491 1.356 . S
C485 C484 1.363 1_565 S
C485 C488 1.363 . S
N486 C488 1.356 . S
N486 H498 0.984 . S
N486 H499 0.985 . S
N487 C489 1.356 . S
N487 H492 0.984 . S
N487 H493 0.985 . S
C488 C482 1.379 1_655 S
C488 C485 1.363 . S
C488 N486 1.356 . S
C489 C483 1.363 . S
C489 C484 1.379 1_455 S
C489 N487 1.356 . S
N490 C482 1.356 . S
N490 H496 0.984 . S
N490 H497 0.984 . S
N491 C484 1.356 . S
N491 H494 0.984 . S
N491 H495 0.985 . S
H492 N487 0.984 . S
H493 N487 0.985 . S
H494 N491 0.984 . S
H495 N491 0.985 . S
H496 N490 0.984 . S
H497 N490 0.984 . S
H498 N486 0.984 . S
H499 N486 0.985 . S
C500 C501 1.363 . S
C500 C506 1.379 1_545 S
C500 N508 1.356 . S
C501 C500 1.363 . S
C501 C507 1.363 1_554 S
C502 C503 1.363 . S
C502 C507 1.379 1_565 S
C502 N509 1.356 . S
C503 C502 1.363 . S
C503 C506 1.363 1_556 S
N504 C506 1.356 . S
N504 H516 0.984 . S
N504 H517 0.985 . S
N505 C507 1.356 . S
N505 H510 0.984 . S
N505 H511 0.985 . S
C506 C500 1.379 1_565 S
C506 C503 1.363 1_554 S
C506 N504 1.356 . S
C507 C501 1.363 1_556 S
C507 C502 1.379 1_545 S
C507 N505 1.356 . S
N508 C500 1.356 . S
N508 H514 0.984 . S
N508 H515 0.984 . S
N509 C502 1.356 . S
N509 H512 0.984 . S
N509 H513 0.985 . S
H510 N505 0.984 . S
H511 N505 0.985 . S
H512 N509 0.984 . S
H513 N509 0.985 . S
H514 N508 0.984 . S
H515 N508 0.984 . S
H516 N504 0.984 . S
H517 N504 0.985 . S
C518 C519 1.363 . S
C518 C524 1.379 . S
C518 N526 1.356 . S
C519 C518 1.363 . S
C519 C525 1.363 . S
C520 C521 1.363 . S
C520 C525 1.379 . S
C520 N527 1.356 . S
C521 C520 1.363 . S
C521 C524 1.363 . S
N522 C524 1.356 . S
N522 H534 0.984 . S
N522 H535 0.985 . S
N523 C525 1.356 . S
N523 H528 0.984 . S
N523 H529 0.985 . S
C524 C518 1.379 . S
C524 C521 1.363 . S
C524 N522 1.356 . S
C525 C519 1.363 . S
C525 C520 1.379 . S
C525 N523 1.356 . S
N526 C518 1.356 . S
N526 H532 0.984 . S
N526 H533 0.984 . S
N527 C520 1.356 . S
N527 H530 0.984 . S
N527 H531 0.985 . S
H528 N523 0.984 . S
H529 N523 0.985 . S
H530 N527 0.984 . S
H531 N527 0.985 . S
H532 N526 0.984 . S
H533 N526 0.984 . S
H534 N522 0.984 . S
H535 N522 0.985 . S
C536 C537 1.363 1_655 S
C536 C542 1.379 1_545 S
C536 N544 1.356 . S
C537 C536 1.363 1_455 S
C537 C543 1.363 1_556 S
C538 C539 1.363 1_455 S
C538 C543 1.379 1_565 S
C538 N545 1.356 . S
C539 C538 1.363 1_655 S
C539 C542 1.363 1_554 S
N540 C542 1.356 . S
N540 H552 0.984 . S
N540 H553 0.985 . S
N541 C543 1.356 . S
N541 H546 0.984 . S
N541 H547 0.985 . S
C542 C536 1.379 1_565 S
C542 C539 1.363 1_556 S
C542 N540 1.356 . S
C543 C537 1.363 1_554 S
C543 C538 1.379 1_545 S
C543 N541 1.356 . S
N544 C536 1.356 . S
N544 H550 0.984 . S
N544 H551 0.984 1_655 S
N545 C538 1.356 . S
N545 H548 0.984 1_455 S
N545 H549 0.985 . S
H546 N541 0.984 . S
H547 N541 0.985 . S
H548 N545 0.984 1_655 S
H549 N545 0.985 . S
H550 N544 0.984 . S
H551 N544 0.984 1_455 S
H552 N540 0.984 . S
H553 N540 0.985 . S
C554 C555 1.363 . S
C554 C560 1.379 . S
C554 N562 1.356 . S
C555 C554 1.363 . S
C555 C561 1.363 1_545 S
C556 C557 1.363 . S
C556 C561 1.379 . S
C556 N563 1.356 . S
C557 C556 1.363 . S
C557 C560 1.363 1_565 S
N558 C560 1.356 . S
N558 H570 0.984 . S
N558 H571 0.998 . S
N559 C561 1.356 . S
N559 H564 0.998 . S
N559 H565 0.985 . S
C560 C554 1.379 . S
C560 C557 1.363 1_545 S
C560 N558 1.356 . S
C561 C555 1.363 1_565 S
C561 C556 1.379 . S
C561 N559 1.356 . S
N562 C554 1.356 . S
N562 H568 0.984 . S
N562 H569 0.984 . S
N563 C556 1.356 . S
N563 H566 0.984 . S
N563 H567 0.985 . S
H564 N559 0.998 . S
H565 N559 0.985 . S
H566 N563 0.984 . S
H567 N563 0.985 . S
H568 N562 0.984 . S
H569 N562 0.984 . S
H570 N558 0.984 . S
H571 N558 0.998 . S
C572 C573 1.363 . S
C572 C578 1.379 . S
C572 N580 1.356 . S
C573 C572 1.363 . S
C573 C579 1.363 1_554 S
C574 C575 1.363 . S
C574 C579 1.379 . S
C574 N581 1.356 . S
C575 C574 1.363 . S
C575 C578 1.363 1_556 S
N576 C578 1.356 . S
N576 H588 0.984 . S
N576 H589 0.985 . S
N577 C579 1.356 . S
N577 H582 0.984 . S
N577 H583 0.985 . S
C578 C572 1.379 . S
C578 C575 1.363 1_554 S
C578 N576 1.356 . S
C579 C573 1.363 1_556 S
C579 C574 1.379 . S
C579 N577 1.356 . S
N580 C572 1.356 . S
N580 H586 0.984 . S
N580 H587 0.984 . S
N581 C574 1.356 . S
N581 H584 0.984 . S
N581 H585 0.985 . S
H582 N577 0.984 . S
H583 N577 0.985 . S
H584 N581 0.984 . S
H585 N581 0.985 . S
H586 N580 0.984 . S
H587 N580 0.984 . S
H588 N576 0.984 . S
H589 N576 0.985 . S
C590 C591 1.374 . S
C590 C596 1.368 1_655 S
C590 N598 1.360 . S
C591 C590 1.374 . S
C591 C597 1.363 . S
C592 C593 1.374 . S
C592 C597 1.368 1_455 S
C592 N599 1.360 . S
C593 C592 1.374 . S
C593 C596 1.363 . S
N594 C596 1.356 . S
N594 H606 0.984 . S
N594 H607 0.985 . S
N595 C597 1.356 . S
N595 H600 0.984 . S
N595 H601 0.985 . S
C596 C590 1.368 1_455 S
C596 C593 1.363 . S
C596 N594 1.356 . S
C597 C591 1.363 . S
C597 C592 1.368 1_655 S
C597 N595 1.356 . S
N598 C590 1.360 . S
N598 H604 0.984 1_655 S
N598 H605 0.984 . S
N599 C592 1.360 . S
N599 H602 0.984 . S
N599 H603 0.985 1_455 S
H600 N595 0.984 . S
H601 N595 0.985 . S
H602 N599 0.984 . S
H603 N599 0.985 1_655 S
H604 N598 0.984 1_455 S
H605 N598 0.984 . S
H606 N594 0.984 . S
H607 N594 0.985 . S
C177 C7 1.453 . S
C179 C84 1.453 . S
C195 C18 1.453 . S
C197 C51 1.453 . S
C213 C62 1.453 . S
C215 C29 1.453 . S
C231 C73 1.453 . S
C233 C40 1.453 . S
C249 C95 1.497 . S
C251 C172 1.497 . S
C267 C139 1.497 . S
C269 C106 1.497 . S
C285 C150 1.497 . S
C287 C117 1.497 . S
C303 C128 1.497 . S
C305 C161 1.497 . S
C321 C8 1.502 . S
C323 C52 1.502 . S
C339 C63 1.502 . S
C341 C19 1.502 . S
C357 C74 1.502 . S
C359 C30 1.502 . S
C375 C41 1.502 . S
C377 C85 1.502 . S
C393 C140 1.516 . S
C395 C96 1.516 . S
C411 C151 1.516 . S
C413 C107 1.516 . S
C429 C162 1.516 . S
C431 C118 1.516 . S
C447 C129 1.516 . S
C449 C173 1.516 . S
C465 C93 1.395 . S
C467 C5 1.253 . S
C483 C16 1.253 . S
C485 C104 1.395 . S
C501 C27 1.253 . S
C503 C115 1.395 . S
C519 C126 1.395 . S
C521 C38 1.253 . S
C537 C49 1.253 . S
C539 C137 1.395 . S
C555 C60 1.253 . S
C557 C148 1.395 . S
C573 C159 1.395 . S
C575 C71 1.253 . S
C591 C170 1.395 . S
C593 C82 1.253 . S
