# Generated by pormake.
# Topology atn, (4)-cn, num edge types: 1
# Building blocks:
#     Node 0, Type 0, BuildingBlock: AZAVOO_clean_sbu_0, # of connection points: 4
#     Node 1, Type 0, BuildingBlock: AZAVOO_clean_sbu_0, # of connection points: 4
#     Node 2, Type 0, BuildingBlock: AZAVOO_clean_sbu_0, # of connection points: 4
#     Node 3, Type 0, BuildingBlock: AZAVOO_clean_sbu_0, # of connection points: 4
#     Node 4, Type 0, BuildingBlock: AZAVOO_clean_sbu_0, # of connection points: 4
#     Node 5, Type 0, BuildingBlock: AZAVOO_clean_sbu_0, # of connection points: 4
#     Node 6, Type 0, BuildingBlock: AZAVOO_clean_sbu_0, # of connection points: 4
#     Node 7, Type 0, BuildingBlock: AZAVOO_clean_sbu_0, # of connection points: 4
#     Node 8, Type 0, BuildingBlock: AZAVOO_clean_sbu_0, # of connection points: 4
#     Node 9, Type 0, BuildingBlock: AZAVOO_clean_sbu_0, # of connection points: 4
#     Node 10, Type 0, BuildingBlock: AZAVOO_clean_sbu_0, # of connection points: 4
#     Node 11, Type 0, BuildingBlock: AZAVOO_clean_sbu_0, # of connection points: 4
#     Node 12, Type 0, BuildingBlock: AZAVOO_clean_sbu_0, # of connection points: 4
#     Node 13, Type 0, BuildingBlock: AZAVOO_clean_sbu_0, # of connection points: 4
#     Node 14, Type 0, BuildingBlock: AZAVOO_clean_sbu_0, # of connection points: 4
#     Node 15, Type 0, BuildingBlock: AZAVOO_clean_sbu_0, # of connection points: 4
#     Edge 16, Type (0, 0), BuildingBlock: OJICUG_clean_linker_0, # of connection points: 2
#     Edge 17, Type (0, 0), BuildingBlock: OJICUG_clean_linker_0, # of connection points: 2
#     Edge 18, Type (0, 0), BuildingBlock: OJICUG_clean_linker_0, # of connection points: 2
#     Edge 19, Type (0, 0), BuildingBlock: OJICUG_clean_linker_0, # of connection points: 2
#     Edge 20, Type (0, 0), BuildingBlock: OJICUG_clean_linker_0, # of connection points: 2
#     Edge 21, Type (0, 0), BuildingBlock: OJICUG_clean_linker_0, # of connection points: 2
#     Edge 22, Type (0, 0), BuildingBlock: OJICUG_clean_linker_0, # of connection points: 2
#     Edge 23, Type (0, 0), BuildingBlock: OJICUG_clean_linker_0, # of connection points: 2
#     Edge 24, Type (0, 0), BuildingBlock: OJICUG_clean_linker_0, # of connection points: 2
#     Edge 25, Type (0, 0), BuildingBlock: OJICUG_clean_linker_0, # of connection points: 2
#     Edge 26, Type (0, 0), BuildingBlock: OJICUG_clean_linker_0, # of connection points: 2
#     Edge 27, Type (0, 0), BuildingBlock: OJICUG_clean_linker_0, # of connection points: 2
#     Edge 28, Type (0, 0), BuildingBlock: OJICUG_clean_linker_0, # of connection points: 2
#     Edge 29, Type (0, 0), BuildingBlock: OJICUG_clean_linker_0, # of connection points: 2
#     Edge 30, Type (0, 0), BuildingBlock: OJICUG_clean_linker_0, # of connection points: 2
#     Edge 31, Type (0, 0), BuildingBlock: OJICUG_clean_linker_0, # of connection points: 2
#     Edge 32, Type (0, 0), BuildingBlock: OJICUG_clean_linker_0, # of connection points: 2
#     Edge 33, Type (0, 0), BuildingBlock: OJICUG_clean_linker_0, # of connection points: 2
#     Edge 34, Type (0, 0), BuildingBlock: OJICUG_clean_linker_0, # of connection points: 2
#     Edge 35, Type (0, 0), BuildingBlock: OJICUG_clean_linker_0, # of connection points: 2
#     Edge 36, Type (0, 0), BuildingBlock: OJICUG_clean_linker_0, # of connection points: 2
#     Edge 37, Type (0, 0), BuildingBlock: OJICUG_clean_linker_0, # of connection points: 2
#     Edge 38, Type (0, 0), BuildingBlock: OJICUG_clean_linker_0, # of connection points: 2
#     Edge 39, Type (0, 0), BuildingBlock: OJICUG_clean_linker_0, # of connection points: 2
#     Edge 40, Type (0, 0), BuildingBlock: OJICUG_clean_linker_0, # of connection points: 2
#     Edge 41, Type (0, 0), BuildingBlock: OJICUG_clean_linker_0, # of connection points: 2
#     Edge 42, Type (0, 0), BuildingBlock: OJICUG_clean_linker_0, # of connection points: 2
#     Edge 43, Type (0, 0), BuildingBlock: OJICUG_clean_linker_0, # of connection points: 2
#     Edge 44, Type (0, 0), BuildingBlock: OJICUG_clean_linker_0, # of connection points: 2
#     Edge 45, Type (0, 0), BuildingBlock: OJICUG_clean_linker_0, # of connection points: 2
#     Edge 46, Type (0, 0), BuildingBlock: OJICUG_clean_linker_0, # of connection points: 2
#     Edge 47, Type (0, 0), BuildingBlock: OJICUG_clean_linker_0, # of connection points: 2
# Relax obj value: 0.122
# Max RMSD: 0.132
# Mean RMSD: 0.132
data_MOF--net-atn--node1-AZAVOO_clean_sbu_0--edge1-OJICUG_clean_linker_0
_symmetry_space_group_name_H-M    P1
_symmetry_Int_Tables_number       1
_symmetry_cell_setting            triclinic
loop_
_symmetry_equiv_pos_as_xyz
'x, y, z'
_cell_length_a     45.054496
_cell_length_b     45.002109
_cell_length_c     19.769416
_cell_angle_alpha  89.747228
_cell_angle_beta   89.963545
_cell_angle_gamma 89.777808
loop_
_atom_site_label
_atom_site_type_symbol
_atom_site_fract_x
_atom_site_fract_y
_atom_site_fract_z
_atom_type_partial_charge
Mg0 Mg 0.18291 0.38066 0.00603 0.0
O1 O 0.22224 0.34877 0.01203 0.0
O2 O 0.24847 0.35302 0.91643 0.0
Mg3 Mg 0.226 0.3876 0.84869 0.0
C4 C 0.24414 0.34146 0.97465 0.0
C5 C 0.1653 0.34686 0.13585 0.0
O6 O 0.16485 0.32581 0.09004 0.0
O7 O 0.21405 0.41923 0.02521 0.0
O8 O 0.23638 0.4246 0.92457 0.0
O9 O 0.15559 0.34661 0.9549 0.0
O10 O 0.18392 0.37893 0.90091 0.0
C11 C 0.23161 0.43304 0.98526 0.0
C12 C 0.1666 0.35631 0.89853 0.0
O13 O 0.17317 0.37291 0.11824 0.0
Mg14 Mg 0.59604 0.20468 0.01425 0.0
O15 O 0.62592 0.2451 0.02372 0.0
O16 O 0.62155 0.2721 0.92895 0.0
Mg17 Mg 0.58911 0.2488 0.85804 0.0
C18 C 0.63265 0.26762 0.98754 0.0
C19 C 0.62703 0.18444 0.14615 0.0
O20 O 0.64869 0.18251 0.10186 0.0
O21 O 0.5554 0.23349 0.03115 0.0
O22 O 0.54971 0.25556 0.93014 0.0
O23 O 0.63217 0.1791 0.96484 0.0
O24 O 0.59951 0.20666 0.90941 0.0
C25 C 0.54067 0.24982 -0.00996 0.0
C26 C 0.62278 0.19004 0.90809 0.0
O27 O 0.60187 0.19421 0.12679 0.0
Mg28 Mg 0.80319 0.60543 0.00342 0.0
O29 O 0.75708 0.62633 0.00985 0.0
O30 O 0.73263 0.61628 0.91415 0.0
Mg31 Mg 0.76274 0.58794 0.84723 0.0
C32 C 0.73408 0.6283 0.97242 0.0
C33 C 0.81644 0.64092 0.13366 0.0
O34 O 0.8154 0.66224 0.08812 0.0
O35 O 0.78325 0.56023 0.02368 0.0
O36 O 0.76207 0.54961 0.92424 0.0
O37 O 0.82046 0.64571 0.95219 0.0
O38 O 0.8012 0.60738 0.89845 0.0
C39 C 0.76933 0.54255 0.98469 0.0
C40 C 0.81191 0.63383 0.89603 0.0
O41 O 0.81121 0.61436 0.11553 0.0
Mg42 Mg 0.37802 0.7958 0.01161 0.0
O43 O 0.35015 0.75362 0.01886 0.0
O44 O 0.35592 0.72836 0.92249 0.0
Mg45 Mg 0.38729 0.75401 0.85326 0.0
C46 C 0.34468 0.73129 0.98137 0.0
C47 C 0.34451 0.81193 0.14251 0.0
O48 O 0.32317 0.81174 0.09729 0.0
O49 O 0.41975 0.76817 0.02855 0.0
O50 O 0.42568 0.74678 0.92721 0.0
O51 O 0.341 0.82034 0.96165 0.0
O52 O 0.37528 0.79489 0.90667 0.0
C53 C 0.43455 0.75205 0.98731 0.0
C54 C 0.35128 0.81038 0.90494 0.0
O55 O 0.3707 0.80486 0.12423 0.0
Mg56 Mg 0.19805 0.60983 0.04348 0.0
O57 O 0.23957 0.6382 0.04013 0.0
O58 O 0.26516 0.63148 0.13583 0.0
Mg59 Mg 0.23928 0.59856 0.2017 0.0
C60 C 0.26183 0.64358 0.07782 0.0
C61 C 0.1648 0.62868 0.91509 0.0
O62 O 0.14429 0.63087 0.96211 0.0
O63 O 0.22578 0.56865 0.02454 0.0
O64 O 0.24631 0.56047 0.12618 0.0
O65 O 0.17297 0.64581 0.09411 0.0
O66 O 0.19813 0.61081 0.14844 0.0
C67 C 0.24122 0.55274 0.06515 0.0
C68 C 0.18217 0.63455 0.15076 0.0
O69 O 0.19043 0.61916 0.93152 0.0
Mg70 Mg 0.36698 0.19349 0.0366 0.0
O71 O 0.33549 0.23309 0.03413 0.0
O72 O 0.33962 0.25809 0.13108 0.0
Mg73 Mg 0.37392 0.2341 0.19677 0.0
C74 C 0.32823 0.25458 0.0726 0.0
C75 C 0.34925 0.16024 0.90792 0.0
O76 O 0.34732 0.13965 0.95504 0.0
O77 O 0.40591 0.22464 0.01915 0.0
O78 O 0.41097 0.24524 0.12152 0.0
O79 O 0.33294 0.16543 0.08703 0.0
O80 O 0.36576 0.19271 0.14152 0.0
C81 C 0.41971 0.24138 0.06066 0.0
C82 C 0.34341 0.17507 0.14376 0.0
O83 O 0.35833 0.18597 0.92427 0.0
Mg84 Mg 0.80017 0.3569 0.05133 0.0
O85 O 0.7531 0.33864 0.04557 0.0
O86 O 0.72961 0.34947 0.14225 0.0
Mg87 Mg 0.76151 0.37549 0.20926 0.0
C88 C 0.73017 0.33783 0.08349 0.0
C89 C 0.82814 0.3303 0.92367 0.0
O90 O 0.84405 0.31835 0.97241 0.0
O91 O 0.78196 0.40315 0.03307 0.0
O92 O 0.76174 0.41425 0.13343 0.0
O93 O 0.81607 0.31544 0.10056 0.0
O94 O 0.79876 0.35438 0.15607 0.0
C95 C 0.76888 0.42124 0.07288 0.0
C96 C 0.80878 0.32757 0.15746 0.0
O97 O 0.80734 0.34826 0.93897 0.0
Mg98 Mg 0.61701 0.77776 0.03269 0.0
O99 O 0.64138 0.73343 0.02569 0.0
O100 O 0.63345 0.70841 0.1221 0.0
Mg101 Mg 0.60417 0.73679 0.19103 0.0
C102 C 0.64505 0.71061 0.06336 0.0
C103 C 0.60901 0.80696 0.89193 0.0
O104 O 0.58723 0.81956 0.92563 0.0
O105 O 0.57305 0.75463 0.01632 0.0
O106 O 0.56467 0.73443 0.11831 0.0
O107 O 0.65602 0.79897 0.08064 0.0
O108 O 0.62017 0.77622 0.13691 0.0
C109 C 0.55643 0.74072 0.0581 0.0
C110 C 0.64518 0.7899 0.13774 0.0
O111 O 0.62449 0.78695 0.92083 0.0
Mg112 Mg 0.67979 0.86535 0.50255 0.0
O113 O 0.72699 0.84753 0.5127 0.0
O114 O 0.75219 0.85953 0.41898 0.0
Mg115 Mg 0.72139 0.8863 0.3499 0.0
C116 C 0.75062 0.84718 0.4771 0.0
C117 C 0.64356 0.85462 0.63166 0.0
O118 O 0.62314 0.86365 0.58876 0.0
O119 O 0.69611 0.91181 0.52487 0.0
O120 O 0.71805 0.92405 0.42695 0.0
O121 O 0.66627 0.82425 0.45014 0.0
O122 O 0.68348 0.86427 0.39808 0.0
C123 C 0.70932 0.9305 0.48662 0.0
C124 C 0.67465 0.83716 0.39469 0.0
O125 O 0.67055 0.85428 0.61285 0.0
Mg126 Mg 0.10673 0.68518 0.51156 0.0
O127 O 0.13497 0.72702 0.51846 0.0
O128 O 0.12937 0.75273 0.42217 0.0
Mg129 Mg 0.09762 0.7276 0.35344 0.0
C130 C 0.14065 0.74943 0.48094 0.0
C131 C 0.14018 0.66927 0.64259 0.0
O132 O 0.16159 0.66976 0.5975 0.0
O133 O 0.06538 0.71311 0.52882 0.0
O134 O 0.05932 0.73504 0.42775 0.0
O135 O 0.14358 0.66056 0.46195 0.0
O136 O 0.10949 0.6864 0.40671 0.0
C137 C 0.05062 0.72959 0.48804 0.0
C138 C 0.13347 0.67083 0.4052 0.0
O139 O 0.11393 0.67596 0.62407 0.0
Mg140 Mg 0.29067 0.10205 0.50713 0.0
O141 O 0.2508 0.1332 0.51425 0.0
O142 O 0.22425 0.12877 0.41934 0.0
Mg143 Mg 0.24716 0.09501 0.35072 0.0
C144 C 0.22862 0.14023 0.47741 0.0
C145 C 0.30815 0.1355 0.63659 0.0
O146 O 0.30813 0.15673 0.59077 0.0
O147 O 0.26059 0.06261 0.5265 0.0
O148 O 0.23837 0.05706 0.42595 0.0
O149 O 0.31713 0.13688 0.45556 0.0
O150 O 0.28925 0.10425 0.4021 0.0
C151 C 0.24355 0.04838 0.48645 0.0
C152 C 0.30618 0.12715 0.3994 0.0
O153 O 0.30063 0.10939 0.61914 0.0
Mg154 Mg 0.87536 0.26859 0.51747 0.0
O155 O 0.84786 0.22659 0.52793 0.0
O156 O 0.85327 0.20001 0.43341 0.0
Mg157 Mg 0.88457 0.22503 0.36215 0.0
C158 C 0.8421 0.20385 0.49211 0.0
C159 C 0.85321 0.30062 0.64507 0.0
O160 O 0.84203 0.31704 0.5962 0.0
O161 O 0.9177 0.24237 0.53432 0.0
O162 O 0.92443 0.2205 0.43388 0.0
O163 O 0.83744 0.29168 0.46846 0.0
O164 O 0.87182 0.26659 0.41271 0.0
C165 C 0.93326 0.22686 0.49346 0.0
C166 C 0.84749 0.28164 0.41163 0.0
O167 O 0.8691 0.27819 0.62986 0.0
Mg168 Mg 0.67349 0.11676 0.54822 0.0
O169 O 0.72086 0.13431 0.54655 0.0
O170 O 0.74302 0.12277 0.64453 0.0
Mg171 Mg 0.70962 0.09708 0.70901 0.0
C172 C 0.74336 0.13456 0.5857 0.0
C173 C 0.64469 0.14051 0.41893 0.0
O174 O 0.62459 0.14578 0.46559 0.0
O175 O 0.69155 0.07031 0.5308 0.0
O176 O 0.71004 0.05887 0.63292 0.0
O177 O 0.65703 0.15797 0.59701 0.0
O178 O 0.67323 0.11849 0.65305 0.0
C179 C 0.70379 0.05203 0.57194 0.0
C180 C 0.66328 0.14533 0.65422 0.0
O181 O 0.6685 0.12711 0.43582 0.0
Mg182 Mg 0.86962 0.7 0.53633 0.0
O183 O 0.84445 0.74384 0.53258 0.0
O184 O 0.85187 0.76804 0.62969 0.0
Mg185 Mg 0.88196 0.73918 0.69637 0.0
C186 C 0.84035 0.76621 0.57089 0.0
C187 C 0.85279 0.6673 0.40748 0.0
O188 O 0.85066 0.64681 0.45478 0.0
O189 O 0.91286 0.72451 0.52023 0.0
O190 O 0.92108 0.74378 0.62282 0.0
O191 O 0.83137 0.6772 0.58433 0.0
O192 O 0.86708 0.69975 0.64089 0.0
C193 C 0.92921 0.73849 0.56211 0.0
C194 C 0.84245 0.6854 0.64168 0.0
O195 O 0.86152 0.69313 0.42389 0.0
Mg196 Mg 0.28649 0.8721 0.54223 0.0
O197 O 0.2457 0.84266 0.53952 0.0
O198 O 0.22015 0.84827 0.63559 0.0
Mg199 Mg 0.24516 0.88164 0.70109 0.0
C200 C 0.22367 0.83653 0.57749 0.0
C201 C 0.31986 0.85327 0.41389 0.0
O202 O 0.3403 0.8509 0.461 0.0
O203 O 0.25746 0.91259 0.52339 0.0
O204 O 0.23666 0.91945 0.62518 0.0
O205 O 0.31258 0.83668 0.59326 0.0
O206 O 0.28653 0.87089 0.64733 0.0
C207 C 0.24139 0.92768 0.56417 0.0
C208 C 0.3031 0.84759 0.64985 0.0
O209 O 0.29428 0.86298 0.43013 0.0
Mg210 Mg 0.10651 0.28876 0.53737 0.0
O211 O 0.13808 0.24918 0.53601 0.0
O212 O 0.13409 0.22435 0.63373 0.0
Mg213 Mg 0.09981 0.24846 0.69889 0.0
C214 C 0.14539 0.22774 0.57501 0.0
C215 C 0.12433 0.32187 0.40786 0.0
O216 O 0.12628 0.34244 0.45458 0.0
O217 O 0.0677 0.25734 0.52097 0.0
O218 O 0.06291 0.23687 0.62396 0.0
O219 O 0.14039 0.31713 0.58704 0.0
O220 O 0.1077 0.28977 0.6423 0.0
C221 C 0.0541 0.24053 0.56305 0.0
C222 C 0.12988 0.30761 0.64407 0.0
O223 O 0.1152 0.29615 0.42473 0.0
C224 C 0.24752 0.49928 0.09427 0.0
C225 C 0.24808 0.52198 0.04515 0.0
H226 H 0.24161 0.45283 0.11356 0.0
C227 C 0.24938 0.51433 0.97651 0.0
H228 H 0.24657 0.50451 0.14766 0.0
C229 C 0.24711 0.48466 0.9571 0.0
C230 C 0.24279 0.46233 0.00608 0.0
H231 H 0.25007 0.5314 0.93771 0.0
H232 H 0.24604 0.47963 0.90363 0.0
C233 C 0.24452 0.46968 0.07484 0.0
C234 C 0.47092 0.25644 0.09245 0.0
C235 C 0.4494 0.25232 0.04183 0.0
H236 H 0.51727 0.25888 0.11551 0.0
C237 C 0.45796 0.25395 0.97367 0.0
H238 H 0.465 0.25546 0.14553 0.0
C239 C 0.48789 0.25665 0.95659 0.0
C240 C 0.5097 0.25701 0.00748 0.0
H241 H 0.44179 0.25118 0.93368 0.0
H242 H 0.49405 0.2556 0.90368 0.0
C243 C 0.50089 0.25838 0.07541 0.0
C244 C 0.76327 0.45912 0.98121 0.0
C245 C 0.76436 0.45214 0.05039 0.0
H246 H 0.76325 0.49344 0.90617 0.0
C247 C 0.76373 0.47523 0.09805 0.0
H248 H 0.76352 0.44174 0.94348 0.0
C249 C 0.76407 0.50482 0.07677 0.0
C250 C 0.76439 0.51179 0.00753 0.0
H251 H 0.76458 0.47048 0.15178 0.0
H252 H 0.76498 0.52219 0.11446 0.0
C253 C 0.76297 0.48871 0.95995 0.0
C254 C 0.51625 0.73586 0.97226 0.0
C255 C 0.52503 0.73645 0.04026 0.0
H256 H 0.48038 0.73959 0.90225 0.0
C257 C 0.50322 0.7376 0.09115 0.0
H258 H 0.53261 0.73484 0.93214 0.0
C259 C 0.47334 0.741 0.07415 0.0
C260 C 0.46478 0.74257 0.00604 0.0
H261 H 0.50936 0.73815 0.1441 0.0
H262 H 0.45716 0.74377 0.1142 0.0
C263 C 0.48632 0.73854 0.9553 0.0
C264 C 0.70938 -0.00188 0.59858 0.0
C265 C 0.70884 0.02117 0.55033 0.0
H266 H 0.70977 0.95115 0.61614 0.0
C267 C 0.71118 0.01421 0.48146 0.0
H268 H 0.70755 0.00286 0.6521 0.0
C269 C 0.71299 0.98463 0.46105 0.0
C270 C 0.71185 0.96153 0.5091 0.0
H271 H 0.71101 0.03156 0.44331 0.0
H272 H 0.71389 0.97988 0.40741 0.0
C273 C 0.71056 0.96853 0.57809 0.0
C274 C 0.98243 0.74294 0.59384 0.0
C275 C 0.96037 0.74395 0.54358 0.0
H276 H 0.02867 0.73734 0.61553 0.0
C277 C 0.96882 0.74531 0.47535 0.0
H278 H 0.97657 0.74187 0.64695 0.0
C279 C -0.0013 0.74324 0.45751 0.0
C280 C 0.02051 0.7391 0.50759 0.0
H281 H 0.95226 0.7463 0.43569 0.0
H282 H 0.00441 0.7426 0.40429 0.0
C283 C 0.01227 0.74018 0.57596 0.0
C284 C 0.23163 -0.00391 0.45698 0.0
C285 C 0.23407 0.01832 0.50644 0.0
H286 H 0.23212 0.94939 0.43671 0.0
C287 C 0.23255 0.01035 0.57501 0.0
H288 H 0.23264 0.00159 0.40363 0.0
C289 C 0.23158 0.98046 0.59384 0.0
C290 C 0.2329 0.95813 0.54435 0.0
H291 H 0.23408 0.02709 0.61407 0.0
H292 H 0.23259 0.97494 0.64718 0.0
C293 C 0.23142 0.96618 0.47581 0.0
C294 C 0.01611 0.22703 0.47646 0.0
C295 C 0.02467 0.22887 0.54452 0.0
H296 H 0.98005 0.22378 0.40678 0.0
C297 C 0.00339 0.2238 0.59538 0.0
H298 H 0.0321 0.23052 0.43629 0.0
C299 C 0.97353 0.22049 0.57861 0.0
C300 C 0.96461 0.22144 0.51072 0.0
H301 H 0.00932 0.22491 0.6484 0.0
H302 H 0.95724 0.21913 0.61885 0.0
C303 C 0.98631 0.22297 0.45966 0.0
C304 C 0.26882 0.31415 0.06965 0.0
C305 C 0.26531 0.31895 -0.00018 0.0
H306 H 0.29188 0.29024 0.14753 0.0
C307 C 0.28234 0.30218 0.95422 0.0
H308 H 0.25602 0.32684 0.10593 0.0
C309 C 0.30244 0.28091 0.97797 0.0
C310 C 0.30634 0.27647 0.0478 0.0
H311 H 0.27995 0.3053 0.90012 0.0
H312 H 0.31529 0.26831 0.94163 0.0
C313 C 0.28941 0.29332 0.09344 0.0
C314 C 0.68456 0.30795 0.10535 0.0
C315 C 0.70375 0.32194 0.05924 0.0
H316 H 0.64704 0.27943 0.11859 0.0
C317 C 0.69818 0.31955 -0.01039 0.0
H318 H 0.68842 0.30939 0.15932 0.0
C319 C 0.67417 0.30296 0.96639 0.0
C320 C 0.65575 0.2879 0.01238 0.0
H321 H 0.71254 0.33029 0.95303 0.0
H322 H 0.67075 0.30099 0.91236 0.0
C323 C 0.66097 0.29077 0.08209 0.0
C324 C 0.69117 0.66196 0.94869 0.0
C325 C 0.70906 0.64677 -0.00427 0.0
H326 H 0.65694 0.69446 0.93343 0.0
C327 C 0.70411 0.65098 0.06516 0.0
H328 H 0.69462 0.6592 0.89484 0.0
C329 C 0.68217 0.67067 0.08719 0.0
C330 C 0.66533 0.68702 0.04013 0.0
H331 H 0.71752 0.63942 0.10244 0.0
H332 H 0.67932 0.67407 0.14103 0.0
C333 C 0.66973 0.6822 0.97071 0.0
C334 C 0.28813 0.66961 0.9839 0.0
C335 C 0.28402 0.66511 0.05361 0.0
H336 H 0.31088 0.69381 0.90646 0.0
C337 C 0.3005 0.68208 0.09962 0.0
H338 H 0.27578 0.65675 0.94733 0.0
C339 C 0.32019 0.70373 0.0762 0.0
C340 C 0.32424 0.70824 0.00642 0.0
H341 H 0.29761 0.67916 0.15364 0.0
H342 H 0.33234 0.71683 0.11268 0.0
C343 C 0.30828 0.69074 0.96053 0.0
C344 C 0.81663 0.79549 0.47812 0.0
C345 C 0.82005 0.78981 0.54758 0.0
H346 H 0.79234 0.81879 0.40142 0.0
C347 C 0.80225 0.80524 0.59411 0.0
H348 H 0.83022 0.78397 0.44127 0.0
C349 C 0.78019 0.82472 0.57128 0.0
C350 C 0.7761 0.82961 0.50168 0.0
H351 H 0.8044 0.80118 0.64794 0.0
H352 H 0.76591 0.83544 0.608 0.0
C353 C 0.79508 0.8155 0.45538 0.0
C354 C 0.19766 0.81067 0.48348 0.0
C355 C 0.20175 0.81485 0.55321 0.0
H356 H 0.17476 0.78696 0.40601 0.0
C357 C 0.18526 0.79768 0.59919 0.0
H358 H 0.21002 0.8237 0.44693 0.0
C359 C 0.16546 0.77626 0.57574 0.0
C360 C 0.16134 0.77215 0.50596 0.0
H361 H 0.18811 0.80037 0.65322 0.0
H362 H 0.15325 0.76305 0.6122 0.0
C363 C 0.17741 0.78974 0.46008 0.0
C364 C 0.19032 0.17948 0.45694 0.0
C365 C 0.20744 0.16267 0.50257 0.0
H366 H 0.15761 0.21361 0.44419 0.0
C367 C 0.20427 0.16762 0.57235 0.0
H368 H 0.19245 0.17626 0.40287 0.0
C369 C 0.18398 0.18869 0.59606 0.0
C370 C 0.16701 0.20563 0.55036 0.0
H371 H 0.21718 0.15493 0.60866 0.0
H372 H 0.18178 0.1919 0.65011 0.0
C373 C 0.17052 0.20097 0.48058 0.0
C374 C 0.81353 0.18019 0.58624 0.0
C375 C 0.8193 0.18304 0.51666 0.0
H376 H 0.78513 0.16206 0.66281 0.0
C377 C 0.80114 0.16808 0.47033 0.0
H378 H 0.82724 0.19147 0.62301 0.0
C379 C 0.77672 0.15185 0.49297 0.0
C380 C 0.77043 0.14973 0.56241 0.0
H381 H 0.80495 0.17004 0.41639 0.0
H382 H 0.76249 0.14132 0.45605 0.0
C383 C 0.7895 0.16336 0.60898 0.0
C384 C 0.13466 0.30592 0.28863 0.0
C385 C 0.13431 0.3283 0.33791 0.0
H386 H 0.14492 0.29416 0.18653 0.0
C387 C 0.14449 0.35684 0.32033 0.0
H388 H 0.1271 0.28369 0.30055 0.0
C389 C 0.15479 0.36286 0.25497 0.0
C390 C 0.15517 0.34047 0.20571 0.0
H391 H 0.1446 0.3746 0.35712 0.0
H392 H 0.16238 0.38509 0.24308 0.0
C393 C 0.14501 0.31193 0.2233 0.0
C394 C 0.61312 0.16501 0.33033 0.0
C395 C 0.6401 0.1514 0.34889 0.0
H396 H 0.58781 0.1862 0.25199 0.0
C397 C 0.66279 0.14908 0.30045 0.0
H398 H 0.59518 0.16723 0.36648 0.0
C399 C 0.65862 0.16015 0.23495 0.0
C400 C 0.6316 0.17366 0.21629 0.0
H401 H 0.68388 0.13885 0.31317 0.0
H402 H 0.67657 0.15792 0.19884 0.0
C403 C 0.6089 0.17597 0.26472 0.0
C404 C 0.84299 0.68303 0.28769 0.0
C405 C 0.8438 0.66057 0.33722 0.0
H406 H 0.83348 0.6945 0.18486 0.0
C407 C 0.8352 0.63162 0.31945 0.0
H408 H 0.84935 0.70558 0.29979 0.0
C409 C 0.82608 0.62524 0.25355 0.0
C410 C 0.82526 0.6477 0.20402 0.0
H411 H 0.83551 0.6138 0.35645 0.0
H412 H 0.81973 0.60269 0.24147 0.0
C413 C 0.83376 0.67668 0.22185 0.0
C414 C 0.35482 0.83307 0.32658 0.0
C415 C 0.32624 0.84313 0.34416 0.0
H416 H 0.38304 0.81523 0.24939 0.0
C417 C 0.30373 0.84253 0.29509 0.0
H418 H 0.37268 0.83317 0.36322 0.0
C419 C 0.30964 0.83206 0.22996 0.0
C420 C 0.33824 0.82205 0.21231 0.0
H421 H 0.28145 0.84998 0.30702 0.0
H422 H 0.29177 0.83196 0.19337 0.0
C423 C 0.36077 0.82269 0.26135 0.0
C424 C 0.1751 0.64964 0.73071 0.0
C425 C 0.14645 0.65933 0.71266 0.0
H426 H 0.20334 0.63216 0.80841 0.0
C427 C 0.12384 0.6586 0.7616 0.0
H428 H 0.19303 0.64983 0.69418 0.0
C429 C 0.12978 0.64842 0.82715 0.0
C430 C 0.15843 0.63867 0.84513 0.0
H431 H 0.10152 0.66583 0.74931 0.0
H432 H 0.11188 0.64822 0.86372 0.0
C433 C 0.18102 0.63938 0.79616 0.0
C434 C 0.32831 0.17038 0.72349 0.0
C435 C 0.31835 0.1418 0.70627 0.0
H436 H 0.34608 0.1986 0.80028 0.0
C437 C 0.31899 0.11929 0.75571 0.0
H438 H 0.3282 0.18823 0.68656 0.0
C439 C 0.32931 0.12526 0.82092 0.0
C440 C 0.33928 0.15384 0.83813 0.0
H441 H 0.31155 0.09703 0.74408 0.0
H442 H 0.32939 0.10742 0.85789 0.0
C443 C 0.33869 0.17632 0.78865 0.0
C444 C 0.85506 0.30018 0.83671 0.0
C445 C 0.83447 0.32272 0.85237 0.0
H446 H 0.87705 0.2754 0.75906 0.0
C447 C 0.82013 0.33785 0.79935 0.0
H448 H 0.86644 0.28804 0.87642 0.0
C449 C 0.82636 0.33071 0.7321 0.0
C450 C 0.84689 0.30813 0.71643 0.0
H451 H 0.80419 0.35533 0.80971 0.0
H452 H 0.81494 0.34284 0.69241 0.0
C453 C 0.86112 0.29289 0.76945 0.0
C454 C 0.59784 0.83638 0.78716 0.0
C455 C 0.61745 0.81827 0.82428 0.0
H456 H 0.5907 0.86202 0.69707 0.0
C457 C 0.64583 0.81241 0.79779 0.0
H458 H 0.57585 0.84134 0.80631 0.0
C459 C 0.65455 0.82471 0.73588 0.0
C460 C 0.63488 0.84273 0.69864 0.0
H461 H 0.66155 0.79873 0.82544 0.0
H462 H 0.67657 0.81981 0.71685 0.0
C463 C 0.60638 0.84828 0.7247 0.0
C464 C 0.81232 0.64977 0.70858 0.0
C465 C 0.82932 0.67577 0.70612 0.0
H466 H 0.79396 0.61568 0.77069 0.0
C467 C 0.83713 0.68988 0.76668 0.0
H468 H 0.80606 0.63838 0.66259 0.0
C469 C 0.82988 0.67708 0.82879 0.0
C470 C 0.81502 0.64975 0.83126 0.0
H471 H 0.84986 0.71017 0.76637 0.0
H472 H 0.83727 0.68785 0.87465 0.0
C473 C 0.80545 0.6367 0.77067 0.0
C474 C 0.30045 0.84569 0.77605 0.0
C475 C 0.31241 0.83489 0.71523 0.0
H476 H 0.30308 0.84598 0.88401 0.0
C477 C 0.33549 0.81393 0.71763 0.0
H478 H 0.28273 0.86196 0.77604 0.0
C479 C 0.34752 0.80523 0.77954 0.0
C480 C 0.33635 0.81689 0.84029 0.0
H481 H 0.34526 0.8053 0.67164 0.0
H482 H 0.36629 0.79022 0.7792 0.0
C483 C 0.31217 0.83661 0.83808 0.0
C484 C 0.16312 0.34048 0.71113 0.0
C485 C 0.14197 0.3177 0.7092 0.0
H486 H 0.18712 0.37096 0.77241 0.0
C487 C 0.13054 0.30644 0.77026 0.0
H488 H 0.17218 0.34974 0.6649 0.0
C489 C 0.13944 0.31828 0.83195 0.0
C490 C 0.15964 0.34188 0.83379 0.0
H491 H 0.114 0.28912 0.7707 0.0
H492 H 0.1297 0.30955 0.87801 0.0
C493 C 0.17172 0.35261 0.77287 0.0
C494 C 0.62777 0.19553 0.78276 0.0
C495 C 0.63714 0.18229 0.84364 0.0
H496 H 0.62928 0.19452 0.67471 0.0
C497 C 0.65824 0.15932 0.84166 0.0
H498 H 0.61158 0.2133 0.78246 0.0
C499 C 0.66803 0.14826 0.77982 0.0
C500 C 0.65726 0.16027 0.71887 0.0
H501 H 0.666 0.14875 0.88774 0.0
H502 H 0.68307 0.12955 0.78018 0.0
C503 C 0.63794 0.18477 0.72088 0.0
C504 C 0.81209 0.31243 0.34481 0.0
C505 C 0.833 0.28927 0.34721 0.0
H506 H 0.78805 0.34287 0.2827 0.0
C507 C 0.84243 0.27608 0.28661 0.0
H508 H 0.80431 0.32296 0.39072 0.0
C509 C 0.83275 0.28724 0.22454 0.0
C510 C 0.81387 0.31208 0.22211 0.0
H511 H 0.85836 0.25808 0.28671 0.0
H512 H 0.84155 0.27756 0.1786 0.0
C513 C 0.8028 0.3239 0.28275 0.0
C514 C 0.65175 0.78241 0.26172 0.0
C515 C 0.65891 0.79801 0.20232 0.0
H516 H 0.65165 0.78242 0.3698 0.0
C517 C 0.67549 0.82421 0.20662 0.0
H518 H 0.63951 0.76184 0.25984 0.0
C519 C 0.68214 0.83621 0.26961 0.0
C520 C 0.67279 0.82189 0.32919 0.0
H521 H 0.6813 0.83667 0.16153 0.0
H522 H 0.69307 0.85752 0.27114 0.0
C523 C 0.65879 0.79418 0.32475 0.0
C524 C 0.17277 0.64488 0.3388 0.0
C525 C 0.14861 0.66462 0.34075 0.0
H526 H 0.20236 0.61976 0.27703 0.0
C527 C 0.13771 0.67666 0.27992 0.0
H528 H 0.18169 0.63525 0.38485 0.0
C529 C 0.14993 0.66822 0.21817 0.0
C530 C 0.17292 0.64716 0.216 0.0
H531 H 0.119 0.69173 0.27941 0.0
H532 H 0.14031 0.67708 0.17206 0.0
C533 C 0.18469 0.63606 0.27692 0.0
C534 C 0.30093 0.13088 0.27377 0.0
C535 C 0.31304 0.14164 0.33438 0.0
H536 H 0.30065 0.13346 0.16574 0.0
C537 C 0.33336 0.16513 0.33191 0.0
H538 H 0.28541 0.11262 0.27382 0.0
C539 C 0.34244 0.17674 0.26987 0.0
C540 C 0.33107 0.16536 0.20914 0.0
H541 H 0.34311 0.17387 0.37772 0.0
H542 H 0.35912 0.19392 0.26983 0.0
C543 C 0.30971 0.14278 0.2117 0.0
loop_
_geom_bond_atom_site_label_1
_geom_bond_atom_site_label_2
_geom_bond_distance
_geom_bond_site_symmetry_2
_ccdc_geom_bond_type
Mg0 O1 2.028 . S
Mg0 O7 1.986 . S
Mg0 O9 2.114 1_554 S
Mg0 O10 2.251 1_554 S
Mg0 O13 2.010 . S
O1 Mg0 2.028 . S
O1 C4 1.250 . S
O2 Mg3 2.028 . S
O2 C4 1.248 1_556 S
Mg3 O2 2.028 . S
Mg3 O8 2.032 . S
Mg3 O10 2.079 . S
C4 O1 1.250 . S
C4 O2 1.248 1_554 S
C5 O6 1.264 . S
C5 O13 1.249 . S
O6 C5 1.264 . S
O7 Mg0 1.986 . S
O7 C11 1.246 . S
O8 Mg3 2.032 . S
O8 C11 1.259 1_556 S
O9 Mg0 2.114 1_556 S
O9 C12 1.252 . S
O10 Mg0 2.251 1_556 S
O10 Mg3 2.079 . S
O10 C12 1.273 . S
C11 O7 1.246 . S
C11 O8 1.259 1_554 S
C12 O9 1.252 . S
C12 O10 1.273 . S
O13 Mg0 2.010 . S
O13 C5 1.249 . S
Mg14 O15 2.028 . S
Mg14 O21 1.986 . S
Mg14 O23 2.114 1_554 S
Mg14 O24 2.251 1_554 S
Mg14 O27 2.010 . S
O15 Mg14 2.028 . S
O15 C18 1.250 . S
O16 Mg17 2.028 . S
O16 C18 1.248 1_556 S
Mg17 O16 2.028 . S
Mg17 O22 2.032 . S
Mg17 O24 2.079 . S
C18 O15 1.250 . S
C18 O16 1.248 1_554 S
C19 O20 1.264 . S
C19 O27 1.249 . S
O20 C19 1.264 . S
O21 Mg14 1.986 . S
O21 C25 1.246 . S
O22 Mg17 2.032 . S
O22 C25 1.259 1_556 S
O23 Mg14 2.114 1_556 S
O23 C26 1.252 . S
O24 Mg14 2.251 1_556 S
O24 Mg17 2.079 . S
O24 C26 1.273 . S
C25 O21 1.246 . S
C25 O22 1.259 1_554 S
C26 O23 1.252 . S
C26 O24 1.273 . S
O27 Mg14 2.010 . S
O27 C19 1.249 . S
Mg28 O29 2.028 . S
Mg28 O35 1.986 . S
Mg28 O37 2.114 1_554 S
Mg28 O38 2.251 1_554 S
Mg28 O41 2.010 . S
O29 Mg28 2.028 . S
O29 C32 1.250 . S
O30 Mg31 2.028 . S
O30 C32 1.248 1_556 S
Mg31 O30 2.028 . S
Mg31 O36 2.032 . S
Mg31 O38 2.079 . S
C32 O29 1.250 . S
C32 O30 1.248 1_554 S
C33 O34 1.264 . S
C33 O41 1.249 . S
O34 C33 1.264 . S
O35 Mg28 1.986 . S
O35 C39 1.246 . S
O36 Mg31 2.032 . S
O36 C39 1.259 1_556 S
O37 Mg28 2.114 1_556 S
O37 C40 1.252 . S
O38 Mg28 2.251 1_556 S
O38 Mg31 2.079 . S
O38 C40 1.273 . S
C39 O35 1.246 . S
C39 O36 1.259 1_554 S
C40 O37 1.252 . S
C40 O38 1.273 . S
O41 Mg28 2.010 . S
O41 C33 1.249 . S
Mg42 O43 2.028 . S
Mg42 O49 1.986 . S
Mg42 O51 2.114 1_554 S
Mg42 O52 2.251 1_554 S
Mg42 O55 2.010 . S
O43 Mg42 2.028 . S
O43 C46 1.250 . S
O44 Mg45 2.028 . S
O44 C46 1.248 1_556 S
Mg45 O44 2.028 . S
Mg45 O50 2.032 . S
Mg45 O52 2.079 . S
C46 O43 1.250 . S
C46 O44 1.248 1_554 S
C47 O48 1.264 . S
C47 O55 1.249 . S
O48 C47 1.264 . S
O49 Mg42 1.986 . S
O49 C53 1.246 . S
O50 Mg45 2.032 . S
O50 C53 1.259 1_556 S
O51 Mg42 2.114 1_556 S
O51 C54 1.252 . S
O52 Mg42 2.251 1_556 S
O52 Mg45 2.079 . S
O52 C54 1.273 . S
C53 O49 1.246 . S
C53 O50 1.259 1_554 S
C54 O51 1.252 . S
C54 O52 1.273 . S
O55 Mg42 2.010 . S
O55 C47 1.249 . S
Mg56 O57 2.028 . S
Mg56 O63 1.986 . S
Mg56 O65 2.114 . S
Mg56 O66 2.251 . S
Mg56 O69 2.010 1_554 S
O57 Mg56 2.028 . S
O57 C60 1.250 . S
O58 Mg59 2.028 . S
O58 C60 1.248 . S
Mg59 O58 2.028 . S
Mg59 O64 2.032 . S
Mg59 O66 2.079 . S
C60 O57 1.250 . S
C60 O58 1.248 . S
C61 O62 1.264 . S
C61 O69 1.249 . S
O62 C61 1.264 . S
O63 Mg56 1.986 . S
O63 C67 1.246 . S
O64 Mg59 2.032 . S
O64 C67 1.259 . S
O65 Mg56 2.114 . S
O65 C68 1.252 . S
O66 Mg56 2.251 . S
O66 Mg59 2.079 . S
O66 C68 1.273 . S
C67 O63 1.246 . S
C67 O64 1.259 . S
C68 O65 1.252 . S
C68 O66 1.273 . S
O69 Mg56 2.010 1_556 S
O69 C61 1.249 . S
Mg70 O71 2.028 . S
Mg70 O77 1.986 . S
Mg70 O79 2.114 . S
Mg70 O80 2.251 . S
Mg70 O83 2.010 1_554 S
O71 Mg70 2.028 . S
O71 C74 1.250 . S
O72 Mg73 2.028 . S
O72 C74 1.248 . S
Mg73 O72 2.028 . S
Mg73 O78 2.032 . S
Mg73 O80 2.079 . S
C74 O71 1.250 . S
C74 O72 1.248 . S
C75 O76 1.264 . S
C75 O83 1.249 . S
O76 C75 1.264 . S
O77 Mg70 1.986 . S
O77 C81 1.246 . S
O78 Mg73 2.032 . S
O78 C81 1.259 . S
O79 Mg70 2.114 . S
O79 C82 1.252 . S
O80 Mg70 2.251 . S
O80 Mg73 2.079 . S
O80 C82 1.273 . S
C81 O77 1.246 . S
C81 O78 1.259 . S
C82 O79 1.252 . S
C82 O80 1.273 . S
O83 Mg70 2.010 1_556 S
O83 C75 1.249 . S
Mg84 O85 2.028 . S
Mg84 O91 1.986 . S
Mg84 O93 2.114 . S
Mg84 O94 2.251 . S
Mg84 O97 2.010 1_554 S
O85 Mg84 2.028 . S
O85 C88 1.250 . S
O86 Mg87 2.028 . S
O86 C88 1.248 . S
Mg87 O86 2.028 . S
Mg87 O92 2.032 . S
Mg87 O94 2.079 . S
C88 O85 1.250 . S
C88 O86 1.248 . S
C89 O90 1.264 . S
C89 O97 1.249 . S
O90 C89 1.264 . S
O91 Mg84 1.986 . S
O91 C95 1.246 . S
O92 Mg87 2.032 . S
O92 C95 1.259 . S
O93 Mg84 2.114 . S
O93 C96 1.252 . S
O94 Mg84 2.251 . S
O94 Mg87 2.079 . S
O94 C96 1.273 . S
C95 O91 1.246 . S
C95 O92 1.259 . S
C96 O93 1.252 . S
C96 O94 1.273 . S
O97 Mg84 2.010 1_556 S
O97 C89 1.249 . S
Mg98 O99 2.028 . S
Mg98 O105 1.986 . S
Mg98 O107 2.114 . S
Mg98 O108 2.251 . S
Mg98 O111 2.010 1_554 S
O99 Mg98 2.028 . S
O99 C102 1.250 . S
O100 Mg101 2.028 . S
O100 C102 1.248 . S
Mg101 O100 2.028 . S
Mg101 O106 2.032 . S
Mg101 O108 2.079 . S
C102 O99 1.250 . S
C102 O100 1.248 . S
C103 O104 1.264 . S
C103 O111 1.249 . S
O104 C103 1.264 . S
O105 Mg98 1.986 . S
O105 C109 1.246 . S
O106 Mg101 2.032 . S
O106 C109 1.259 . S
O107 Mg98 2.114 . S
O107 C110 1.252 . S
O108 Mg98 2.251 . S
O108 Mg101 2.079 . S
O108 C110 1.273 . S
C109 O105 1.246 . S
C109 O106 1.259 . S
C110 O107 1.252 . S
C110 O108 1.273 . S
O111 Mg98 2.010 1_556 S
O111 C103 1.249 . S
Mg112 O113 2.028 . S
Mg112 O119 1.986 . S
Mg112 O121 2.114 . S
Mg112 O122 2.251 . S
Mg112 O125 2.010 . S
O113 Mg112 2.028 . S
O113 C116 1.250 . S
O114 Mg115 2.028 . S
O114 C116 1.248 . S
Mg115 O114 2.028 . S
Mg115 O120 2.032 . S
Mg115 O122 2.079 . S
C116 O113 1.250 . S
C116 O114 1.248 . S
C117 O118 1.264 . S
C117 O125 1.249 . S
O118 C117 1.264 . S
O119 Mg112 1.986 . S
O119 C123 1.246 . S
O120 Mg115 2.032 . S
O120 C123 1.259 . S
O121 Mg112 2.114 . S
O121 C124 1.252 . S
O122 Mg112 2.251 . S
O122 Mg115 2.079 . S
O122 C124 1.273 . S
C123 O119 1.246 . S
C123 O120 1.259 . S
C124 O121 1.252 . S
C124 O122 1.273 . S
O125 Mg112 2.010 . S
O125 C117 1.249 . S
Mg126 O127 2.028 . S
Mg126 O133 1.986 . S
Mg126 O135 2.114 . S
Mg126 O136 2.251 . S
Mg126 O139 2.010 . S
O127 Mg126 2.028 . S
O127 C130 1.250 . S
O128 Mg129 2.028 . S
O128 C130 1.248 . S
Mg129 O128 2.028 . S
Mg129 O134 2.032 . S
Mg129 O136 2.079 . S
C130 O127 1.250 . S
C130 O128 1.248 . S
C131 O132 1.264 . S
C131 O139 1.249 . S
O132 C131 1.264 . S
O133 Mg126 1.986 . S
O133 C137 1.246 . S
O134 Mg129 2.032 . S
O134 C137 1.259 . S
O135 Mg126 2.114 . S
O135 C138 1.252 . S
O136 Mg126 2.251 . S
O136 Mg129 2.079 . S
O136 C138 1.273 . S
C137 O133 1.246 . S
C137 O134 1.259 . S
C138 O135 1.252 . S
C138 O136 1.273 . S
O139 Mg126 2.010 . S
O139 C131 1.249 . S
Mg140 O141 2.028 . S
Mg140 O147 1.986 . S
Mg140 O149 2.114 . S
Mg140 O150 2.251 . S
Mg140 O153 2.010 . S
O141 Mg140 2.028 . S
O141 C144 1.250 . S
O142 Mg143 2.028 . S
O142 C144 1.248 . S
Mg143 O142 2.028 . S
Mg143 O148 2.032 . S
Mg143 O150 2.079 . S
C144 O141 1.250 . S
C144 O142 1.248 . S
C145 O146 1.264 . S
C145 O153 1.249 . S
O146 C145 1.264 . S
O147 Mg140 1.986 . S
O147 C151 1.246 . S
O148 Mg143 2.032 . S
O148 C151 1.259 . S
O149 Mg140 2.114 . S
O149 C152 1.252 . S
O150 Mg140 2.251 . S
O150 Mg143 2.079 . S
O150 C152 1.273 . S
C151 O147 1.246 . S
C151 O148 1.259 . S
C152 O149 1.252 . S
C152 O150 1.273 . S
O153 Mg140 2.010 . S
O153 C145 1.249 . S
Mg154 O155 2.028 . S
Mg154 O161 1.986 . S
Mg154 O163 2.114 . S
Mg154 O164 2.251 . S
Mg154 O167 2.010 . S
O155 Mg154 2.028 . S
O155 C158 1.250 . S
O156 Mg157 2.028 . S
O156 C158 1.248 . S
Mg157 O156 2.028 . S
Mg157 O162 2.032 . S
Mg157 O164 2.079 . S
C158 O155 1.250 . S
C158 O156 1.248 . S
C159 O160 1.264 . S
C159 O167 1.249 . S
O160 C159 1.264 . S
O161 Mg154 1.986 . S
O161 C165 1.246 . S
O162 Mg157 2.032 . S
O162 C165 1.259 . S
O163 Mg154 2.114 . S
O163 C166 1.252 . S
O164 Mg154 2.251 . S
O164 Mg157 2.079 . S
O164 C166 1.273 . S
C165 O161 1.246 . S
C165 O162 1.259 . S
C166 O163 1.252 . S
C166 O164 1.273 . S
O167 Mg154 2.010 . S
O167 C159 1.249 . S
Mg168 O169 2.028 . S
Mg168 O175 1.986 . S
Mg168 O177 2.114 . S
Mg168 O178 2.251 . S
Mg168 O181 2.010 . S
O169 Mg168 2.028 . S
O169 C172 1.250 . S
O170 Mg171 2.028 . S
O170 C172 1.248 . S
Mg171 O170 2.028 . S
Mg171 O176 2.032 . S
Mg171 O178 2.079 . S
C172 O169 1.250 . S
C172 O170 1.248 . S
C173 O174 1.264 . S
C173 O181 1.249 . S
O174 C173 1.264 . S
O175 Mg168 1.986 . S
O175 C179 1.246 . S
O176 Mg171 2.032 . S
O176 C179 1.259 . S
O177 Mg168 2.114 . S
O177 C180 1.252 . S
O178 Mg168 2.251 . S
O178 Mg171 2.079 . S
O178 C180 1.273 . S
C179 O175 1.246 . S
C179 O176 1.259 . S
C180 O177 1.252 . S
C180 O178 1.273 . S
O181 Mg168 2.010 . S
O181 C173 1.249 . S
Mg182 O183 2.028 . S
Mg182 O189 1.986 . S
Mg182 O191 2.114 . S
Mg182 O192 2.251 . S
Mg182 O195 2.010 . S
O183 Mg182 2.028 . S
O183 C186 1.250 . S
O184 Mg185 2.028 . S
O184 C186 1.248 . S
Mg185 O184 2.028 . S
Mg185 O190 2.032 . S
Mg185 O192 2.079 . S
C186 O183 1.250 . S
C186 O184 1.248 . S
C187 O188 1.264 . S
C187 O195 1.249 . S
O188 C187 1.264 . S
O189 Mg182 1.986 . S
O189 C193 1.246 . S
O190 Mg185 2.032 . S
O190 C193 1.259 . S
O191 Mg182 2.114 . S
O191 C194 1.252 . S
O192 Mg182 2.251 . S
O192 Mg185 2.079 . S
O192 C194 1.273 . S
C193 O189 1.246 . S
C193 O190 1.259 . S
C194 O191 1.252 . S
C194 O192 1.273 . S
O195 Mg182 2.010 . S
O195 C187 1.249 . S
Mg196 O197 2.028 . S
Mg196 O203 1.986 . S
Mg196 O205 2.114 . S
Mg196 O206 2.251 . S
Mg196 O209 2.010 . S
O197 Mg196 2.028 . S
O197 C200 1.250 . S
O198 Mg199 2.028 . S
O198 C200 1.248 . S
Mg199 O198 2.028 . S
Mg199 O204 2.032 . S
Mg199 O206 2.079 . S
C200 O197 1.250 . S
C200 O198 1.248 . S
C201 O202 1.264 . S
C201 O209 1.249 . S
O202 C201 1.264 . S
O203 Mg196 1.986 . S
O203 C207 1.246 . S
O204 Mg199 2.032 . S
O204 C207 1.259 . S
O205 Mg196 2.114 . S
O205 C208 1.252 . S
O206 Mg196 2.251 . S
O206 Mg199 2.079 . S
O206 C208 1.273 . S
C207 O203 1.246 . S
C207 O204 1.259 . S
C208 O205 1.252 . S
C208 O206 1.273 . S
O209 Mg196 2.010 . S
O209 C201 1.249 . S
Mg210 O211 2.028 . S
Mg210 O217 1.986 . S
Mg210 O219 2.114 . S
Mg210 O220 2.251 . S
Mg210 O223 2.010 . S
O211 Mg210 2.028 . S
O211 C214 1.250 . S
O212 Mg213 2.028 . S
O212 C214 1.248 . S
Mg213 O212 2.028 . S
Mg213 O218 2.032 . S
Mg213 O220 2.079 . S
C214 O211 1.250 . S
C214 O212 1.248 . S
C215 O216 1.264 . S
C215 O223 1.249 . S
O216 C215 1.264 . S
O217 Mg210 1.986 . S
O217 C221 1.246 . S
O218 Mg213 2.032 . S
O218 C221 1.259 . S
O219 Mg210 2.114 . S
O219 C222 1.252 . S
O220 Mg210 2.251 . S
O220 Mg213 2.079 . S
O220 C222 1.273 . S
C221 O217 1.246 . S
C221 O218 1.259 . S
C222 O219 1.252 . S
C222 O220 1.273 . S
O223 Mg210 2.010 . S
O223 C215 1.249 . S
C224 C225 1.387 . S
C224 H228 0.950 . S
C224 C233 1.390 . S
C225 C224 1.387 . S
C225 C227 1.387 . S
H226 C233 0.950 . S
C227 C225 1.387 . S
C227 C229 1.390 . S
C227 H231 0.950 . S
H228 C224 0.950 . S
C229 C227 1.390 . S
C229 C230 1.387 . S
C229 H232 0.950 . S
C230 C229 1.387 . S
C230 C233 1.387 . S
H231 C227 0.950 . S
H232 C229 0.950 . S
C233 C224 1.390 . S
C233 H226 0.950 . S
C233 C230 1.387 . S
C234 C235 1.387 . S
C234 H238 0.950 . S
C234 C243 1.390 . S
C235 C234 1.387 . S
C235 C237 1.387 . S
H236 C243 0.950 . S
C237 C235 1.387 . S
C237 C239 1.390 . S
C237 H241 0.950 . S
H238 C234 0.950 . S
C239 C237 1.390 . S
C239 C240 1.387 . S
C239 H242 0.950 . S
C240 C239 1.387 . S
C240 C243 1.387 . S
H241 C237 0.950 . S
H242 C239 0.950 . S
C243 C234 1.390 . S
C243 H236 0.950 . S
C243 C240 1.387 . S
C244 C245 1.387 . S
C244 H248 0.950 . S
C244 C253 1.390 . S
C245 C244 1.387 . S
C245 C247 1.387 . S
H246 C253 0.950 . S
C247 C245 1.387 . S
C247 C249 1.390 . S
C247 H251 0.950 . S
H248 C244 0.950 . S
C249 C247 1.390 . S
C249 C250 1.387 . S
C249 H252 0.950 . S
C250 C249 1.387 . S
C250 C253 1.387 . S
H251 C247 0.950 . S
H252 C249 0.950 . S
C253 C244 1.390 . S
C253 H246 0.950 . S
C253 C250 1.387 . S
C254 C255 1.387 . S
C254 H258 0.950 . S
C254 C263 1.390 . S
C255 C254 1.387 . S
C255 C257 1.387 . S
H256 C263 0.950 . S
C257 C255 1.387 . S
C257 C259 1.390 . S
C257 H261 0.950 . S
H258 C254 0.950 . S
C259 C257 1.390 . S
C259 C260 1.387 . S
C259 H262 0.950 . S
C260 C259 1.387 . S
C260 C263 1.387 . S
H261 C257 0.950 . S
H262 C259 0.950 . S
C263 C254 1.390 . S
C263 H256 0.950 . S
C263 C260 1.387 . S
C264 C265 1.387 . S
C264 H268 0.950 . S
C264 C273 1.390 1_545 S
C265 C264 1.387 . S
C265 C267 1.387 . S
H266 C273 0.950 . S
C267 C265 1.387 . S
C267 C269 1.390 1_545 S
C267 H271 0.950 . S
H268 C264 0.950 . S
C269 C267 1.390 1_565 S
C269 C270 1.387 . S
C269 H272 0.950 . S
C270 C269 1.387 . S
C270 C273 1.387 . S
H271 C267 0.950 . S
H272 C269 0.950 . S
C273 C264 1.390 1_565 S
C273 H266 0.950 . S
C273 C270 1.387 . S
C274 C275 1.387 . S
C274 H278 0.950 . S
C274 C283 1.390 1_655 S
C275 C274 1.387 . S
C275 C277 1.387 . S
H276 C283 0.950 . S
C277 C275 1.387 . S
C277 C279 1.390 1_655 S
C277 H281 0.950 . S
H278 C274 0.950 . S
C279 C277 1.390 1_455 S
C279 C280 1.387 . S
C279 H282 0.950 . S
C280 C279 1.387 . S
C280 C283 1.387 . S
H281 C277 0.950 . S
H282 C279 0.950 . S
C283 C274 1.390 1_455 S
C283 H276 0.950 . S
C283 C280 1.387 . S
C284 C285 1.387 . S
C284 H288 0.950 . S
C284 C293 1.390 1_545 S
C285 C284 1.387 . S
C285 C287 1.387 . S
H286 C293 0.950 . S
C287 C285 1.387 . S
C287 C289 1.390 1_545 S
C287 H291 0.950 . S
H288 C284 0.950 . S
C289 C287 1.390 1_565 S
C289 C290 1.387 . S
C289 H292 0.950 . S
C290 C289 1.387 . S
C290 C293 1.387 . S
H291 C287 0.950 . S
H292 C289 0.950 . S
C293 C284 1.390 1_565 S
C293 H286 0.950 . S
C293 C290 1.387 . S
C294 C295 1.387 . S
C294 H298 0.950 . S
C294 C303 1.390 1_455 S
C295 C294 1.387 . S
C295 C297 1.387 . S
H296 C303 0.950 . S
C297 C295 1.387 . S
C297 C299 1.390 1_455 S
C297 H301 0.950 . S
H298 C294 0.950 . S
C299 C297 1.390 1_655 S
C299 C300 1.387 . S
C299 H302 0.950 . S
C300 C299 1.387 . S
C300 C303 1.387 . S
H301 C297 0.950 . S
H302 C299 0.950 . S
C303 C294 1.390 1_655 S
C303 H296 0.950 . S
C303 C300 1.387 . S
C304 C305 1.387 . S
C304 H308 0.950 . S
C304 C313 1.390 . S
C305 C304 1.387 . S
C305 C307 1.387 1_554 S
H306 C313 0.950 . S
C307 C305 1.387 1_556 S
C307 C309 1.390 . S
C307 H311 0.950 . S
H308 C304 0.950 . S
C309 C307 1.390 . S
C309 C310 1.387 1_556 S
C309 H312 0.950 . S
C310 C309 1.387 1_554 S
C310 C313 1.387 . S
H311 C307 0.950 . S
H312 C309 0.950 . S
C313 C304 1.390 . S
C313 H306 0.950 . S
C313 C310 1.387 . S
C314 C315 1.387 . S
C314 H318 0.950 . S
C314 C323 1.390 . S
C315 C314 1.387 . S
C315 C317 1.387 1_554 S
H316 C323 0.950 . S
C317 C315 1.387 1_556 S
C317 C319 1.390 . S
C317 H321 0.950 . S
H318 C314 0.950 . S
C319 C317 1.390 . S
C319 C320 1.387 1_556 S
C319 H322 0.950 . S
C320 C319 1.387 1_554 S
C320 C323 1.387 . S
H321 C317 0.950 . S
H322 C319 0.950 . S
C323 C314 1.390 . S
C323 H316 0.950 . S
C323 C320 1.387 . S
C324 C325 1.387 1_556 S
C324 H328 0.950 . S
C324 C333 1.390 . S
C325 C324 1.387 1_554 S
C325 C327 1.387 . S
H326 C333 0.950 . S
C327 C325 1.387 . S
C327 C329 1.390 . S
C327 H331 0.950 . S
H328 C324 0.950 . S
C329 C327 1.390 . S
C329 C330 1.387 . S
C329 H332 0.950 . S
C330 C329 1.387 . S
C330 C333 1.387 1_554 S
H331 C327 0.950 . S
H332 C329 0.950 . S
C333 C324 1.390 . S
C333 H326 0.950 . S
C333 C330 1.387 1_556 S
C334 C335 1.387 1_556 S
C334 H338 0.950 . S
C334 C343 1.390 . S
C335 C334 1.387 1_554 S
C335 C337 1.387 . S
H336 C343 0.950 . S
C337 C335 1.387 . S
C337 C339 1.390 . S
C337 H341 0.950 . S
H338 C334 0.950 . S
C339 C337 1.390 . S
C339 C340 1.387 . S
C339 H342 0.950 . S
C340 C339 1.387 . S
C340 C343 1.387 1_554 S
H341 C337 0.950 . S
H342 C339 0.950 . S
C343 C334 1.390 . S
C343 H336 0.950 . S
C343 C340 1.387 1_556 S
C344 C345 1.387 . S
C344 H348 0.950 . S
C344 C353 1.390 . S
C345 C344 1.387 . S
C345 C347 1.387 . S
H346 C353 0.950 . S
C347 C345 1.387 . S
C347 C349 1.390 . S
C347 H351 0.950 . S
H348 C344 0.950 . S
C349 C347 1.390 . S
C349 C350 1.387 . S
C349 H352 0.950 . S
C350 C349 1.387 . S
C350 C353 1.387 . S
H351 C347 0.950 . S
H352 C349 0.950 . S
C353 C344 1.390 . S
C353 H346 0.950 . S
C353 C350 1.387 . S
C354 C355 1.387 . S
C354 H358 0.950 . S
C354 C363 1.390 . S
C355 C354 1.387 . S
C355 C357 1.387 . S
H356 C363 0.950 . S
C357 C355 1.387 . S
C357 C359 1.390 . S
C357 H361 0.950 . S
H358 C354 0.950 . S
C359 C357 1.390 . S
C359 C360 1.387 . S
C359 H362 0.950 . S
C360 C359 1.387 . S
C360 C363 1.387 . S
H361 C357 0.950 . S
H362 C359 0.950 . S
C363 C354 1.390 . S
C363 H356 0.950 . S
C363 C360 1.387 . S
C364 C365 1.387 . S
C364 H368 0.950 . S
C364 C373 1.390 . S
C365 C364 1.387 . S
C365 C367 1.387 . S
H366 C373 0.950 . S
C367 C365 1.387 . S
C367 C369 1.390 . S
C367 H371 0.950 . S
H368 C364 0.950 . S
C369 C367 1.390 . S
C369 C370 1.387 . S
C369 H372 0.950 . S
C370 C369 1.387 . S
C370 C373 1.387 . S
H371 C367 0.950 . S
H372 C369 0.950 . S
C373 C364 1.390 . S
C373 H366 0.950 . S
C373 C370 1.387 . S
C374 C375 1.387 . S
C374 H378 0.950 . S
C374 C383 1.390 . S
C375 C374 1.387 . S
C375 C377 1.387 . S
H376 C383 0.950 . S
C377 C375 1.387 . S
C377 C379 1.390 . S
C377 H381 0.950 . S
H378 C374 0.950 . S
C379 C377 1.390 . S
C379 C380 1.387 . S
C379 H382 0.950 . S
C380 C379 1.387 . S
C380 C383 1.387 . S
H381 C377 0.950 . S
H382 C379 0.950 . S
C383 C374 1.390 . S
C383 H376 0.950 . S
C383 C380 1.387 . S
C384 C385 1.387 . S
C384 H388 0.950 . S
C384 C393 1.390 . S
C385 C384 1.387 . S
C385 C387 1.387 . S
H386 C393 0.950 . S
C387 C385 1.387 . S
C387 C389 1.390 . S
C387 H391 0.950 . S
H388 C384 0.950 . S
C389 C387 1.390 . S
C389 C390 1.387 . S
C389 H392 0.950 . S
C390 C389 1.387 . S
C390 C393 1.387 . S
H391 C387 0.950 . S
H392 C389 0.950 . S
C393 C384 1.390 . S
C393 H386 0.950 . S
C393 C390 1.387 . S
C394 C395 1.387 . S
C394 H398 0.950 . S
C394 C403 1.390 . S
C395 C394 1.387 . S
C395 C397 1.387 . S
H396 C403 0.950 . S
C397 C395 1.387 . S
C397 C399 1.390 . S
C397 H401 0.950 . S
H398 C394 0.950 . S
C399 C397 1.390 . S
C399 C400 1.387 . S
C399 H402 0.950 . S
C400 C399 1.387 . S
C400 C403 1.387 . S
H401 C397 0.950 . S
H402 C399 0.950 . S
C403 C394 1.390 . S
C403 H396 0.950 . S
C403 C400 1.387 . S
C404 C405 1.387 . S
C404 H408 0.950 . S
C404 C413 1.390 . S
C405 C404 1.387 . S
C405 C407 1.387 . S
H406 C413 0.950 . S
C407 C405 1.387 . S
C407 C409 1.390 . S
C407 H411 0.950 . S
H408 C404 0.950 . S
C409 C407 1.390 . S
C409 C410 1.387 . S
C409 H412 0.950 . S
C410 C409 1.387 . S
C410 C413 1.387 . S
H411 C407 0.950 . S
H412 C409 0.950 . S
C413 C404 1.390 . S
C413 H406 0.950 . S
C413 C410 1.387 . S
C414 C415 1.387 . S
C414 H418 0.950 . S
C414 C423 1.390 . S
C415 C414 1.387 . S
C415 C417 1.387 . S
H416 C423 0.950 . S
C417 C415 1.387 . S
C417 C419 1.390 . S
C417 H421 0.950 . S
H418 C414 0.950 . S
C419 C417 1.390 . S
C419 C420 1.387 . S
C419 H422 0.950 . S
C420 C419 1.387 . S
C420 C423 1.387 . S
H421 C417 0.950 . S
H422 C419 0.950 . S
C423 C414 1.390 . S
C423 H416 0.950 . S
C423 C420 1.387 . S
C424 C425 1.387 . S
C424 H428 0.950 . S
C424 C433 1.390 . S
C425 C424 1.387 . S
C425 C427 1.387 . S
H426 C433 0.950 . S
C427 C425 1.387 . S
C427 C429 1.390 . S
C427 H431 0.950 . S
H428 C424 0.950 . S
C429 C427 1.390 . S
C429 C430 1.387 . S
C429 H432 0.950 . S
C430 C429 1.387 . S
C430 C433 1.387 . S
H431 C427 0.950 . S
H432 C429 0.950 . S
C433 C424 1.390 . S
C433 H426 0.950 . S
C433 C430 1.387 . S
C434 C435 1.387 . S
C434 H438 0.950 . S
C434 C443 1.390 . S
C435 C434 1.387 . S
C435 C437 1.387 . S
H436 C443 0.950 . S
C437 C435 1.387 . S
C437 C439 1.390 . S
C437 H441 0.950 . S
H438 C434 0.950 . S
C439 C437 1.390 . S
C439 C440 1.387 . S
C439 H442 0.950 . S
C440 C439 1.387 . S
C440 C443 1.387 . S
H441 C437 0.950 . S
H442 C439 0.950 . S
C443 C434 1.390 . S
C443 H436 0.950 . S
C443 C440 1.387 . S
C444 C445 1.387 . S
C444 H448 0.950 . S
C444 C453 1.390 . S
C445 C444 1.387 . S
C445 C447 1.387 . S
H446 C453 0.950 . S
C447 C445 1.387 . S
C447 C449 1.390 . S
C447 H451 0.950 . S
H448 C444 0.950 . S
C449 C447 1.390 . S
C449 C450 1.387 . S
C449 H452 0.950 . S
C450 C449 1.387 . S
C450 C453 1.387 . S
H451 C447 0.950 . S
H452 C449 0.950 . S
C453 C444 1.390 . S
C453 H446 0.950 . S
C453 C450 1.387 . S
C454 C455 1.387 . S
C454 H458 0.950 . S
C454 C463 1.390 . S
C455 C454 1.387 . S
C455 C457 1.387 . S
H456 C463 0.950 . S
C457 C455 1.387 . S
C457 C459 1.390 . S
C457 H461 0.950 . S
H458 C454 0.950 . S
C459 C457 1.390 . S
C459 C460 1.387 . S
C459 H462 0.950 . S
C460 C459 1.387 . S
C460 C463 1.387 . S
H461 C457 0.950 . S
H462 C459 0.950 . S
C463 C454 1.390 . S
C463 H456 0.950 . S
C463 C460 1.387 . S
C464 C465 1.387 . S
C464 H468 0.950 . S
C464 C473 1.390 . S
C465 C464 1.387 . S
C465 C467 1.387 . S
H466 C473 0.950 . S
C467 C465 1.387 . S
C467 C469 1.390 . S
C467 H471 0.950 . S
H468 C464 0.950 . S
C469 C467 1.390 . S
C469 C470 1.387 . S
C469 H472 0.950 . S
C470 C469 1.387 . S
C470 C473 1.387 . S
H471 C467 0.950 . S
H472 C469 0.950 . S
C473 C464 1.390 . S
C473 H466 0.950 . S
C473 C470 1.387 . S
C474 C475 1.387 . S
C474 H478 0.950 . S
C474 C483 1.390 . S
C475 C474 1.387 . S
C475 C477 1.387 . S
H476 C483 0.950 . S
C477 C475 1.387 . S
C477 C479 1.390 . S
C477 H481 0.950 . S
H478 C474 0.950 . S
C479 C477 1.390 . S
C479 C480 1.387 . S
C479 H482 0.950 . S
C480 C479 1.387 . S
C480 C483 1.387 . S
H481 C477 0.950 . S
H482 C479 0.950 . S
C483 C474 1.390 . S
C483 H476 0.950 . S
C483 C480 1.387 . S
C484 C485 1.387 . S
C484 H488 0.950 . S
C484 C493 1.390 . S
C485 C484 1.387 . S
C485 C487 1.387 . S
H486 C493 0.950 . S
C487 C485 1.387 . S
C487 C489 1.390 . S
C487 H491 0.950 . S
H488 C484 0.950 . S
C489 C487 1.390 . S
C489 C490 1.387 . S
C489 H492 0.950 . S
C490 C489 1.387 . S
C490 C493 1.387 . S
H491 C487 0.950 . S
H492 C489 0.950 . S
C493 C484 1.390 . S
C493 H486 0.950 . S
C493 C490 1.387 . S
C494 C495 1.387 . S
C494 H498 0.950 . S
C494 C503 1.390 . S
C495 C494 1.387 . S
C495 C497 1.387 . S
H496 C503 0.950 . S
C497 C495 1.387 . S
C497 C499 1.390 . S
C497 H501 0.950 . S
H498 C494 0.950 . S
C499 C497 1.390 . S
C499 C500 1.387 . S
C499 H502 0.950 . S
C500 C499 1.387 . S
C500 C503 1.387 . S
H501 C497 0.950 . S
H502 C499 0.950 . S
C503 C494 1.390 . S
C503 H496 0.950 . S
C503 C500 1.387 . S
C504 C505 1.387 . S
C504 H508 0.950 . S
C504 C513 1.390 . S
C505 C504 1.387 . S
C505 C507 1.387 . S
H506 C513 0.950 . S
C507 C505 1.387 . S
C507 C509 1.390 . S
C507 H511 0.950 . S
H508 C504 0.950 . S
C509 C507 1.390 . S
C509 C510 1.387 . S
C509 H512 0.950 . S
C510 C509 1.387 . S
C510 C513 1.387 . S
H511 C507 0.950 . S
H512 C509 0.950 . S
C513 C504 1.390 . S
C513 H506 0.950 . S
C513 C510 1.387 . S
C514 C515 1.387 . S
C514 H518 0.950 . S
C514 C523 1.390 . S
C515 C514 1.387 . S
C515 C517 1.387 . S
H516 C523 0.950 . S
C517 C515 1.387 . S
C517 C519 1.390 . S
C517 H521 0.950 . S
H518 C514 0.950 . S
C519 C517 1.390 . S
C519 C520 1.387 . S
C519 H522 0.950 . S
C520 C519 1.387 . S
C520 C523 1.387 . S
H521 C517 0.950 . S
H522 C519 0.950 . S
C523 C514 1.390 . S
C523 H516 0.950 . S
C523 C520 1.387 . S
C524 C525 1.387 . S
C524 H528 0.950 . S
C524 C533 1.390 . S
C525 C524 1.387 . S
C525 C527 1.387 . S
H526 C533 0.950 . S
C527 C525 1.387 . S
C527 C529 1.390 . S
C527 H531 0.950 . S
H528 C524 0.950 . S
C529 C527 1.390 . S
C529 C530 1.387 . S
C529 H532 0.950 . S
C530 C529 1.387 . S
C530 C533 1.387 . S
H531 C527 0.950 . S
H532 C529 0.950 . S
C533 C524 1.390 . S
C533 H526 0.950 . S
C533 C530 1.387 . S
C534 C535 1.387 . S
C534 H538 0.950 . S
C534 C543 1.390 . S
C535 C534 1.387 . S
C535 C537 1.387 . S
H536 C543 0.950 . S
C537 C535 1.387 . S
C537 C539 1.390 . S
C537 H541 0.950 . S
H538 C534 0.950 . S
C539 C537 1.390 . S
C539 C540 1.387 . S
C539 H542 0.950 . S
C540 C539 1.387 . S
C540 C543 1.387 . S
H541 C537 0.950 . S
H542 C539 0.950 . S
C543 C534 1.390 . S
C543 H536 0.950 . S
C543 C540 1.387 . S
C225 C67 1.313 . S
C230 C11 1.313 . S
C235 C81 1.314 . S
C240 C25 1.314 . S
C245 C95 1.314 . S
C250 C39 1.314 . S
C255 C109 1.314 . S
C260 C53 1.314 . S
C265 C179 1.313 . S
C270 C123 1.313 . S
C275 C193 1.314 . S
C280 C137 1.314 . S
C285 C151 1.314 . S
C290 C207 1.314 . S
C295 C221 1.314 . S
C300 C165 1.314 . S
C305 C4 1.227 . S
C310 C74 1.227 . S
C315 C88 1.227 . S
C320 C18 1.227 . S
C325 C32 1.227 . S
C330 C102 1.227 . S
C335 C60 1.228 . S
C340 C46 1.228 . S
C345 C186 1.227 . S
C350 C116 1.227 . S
C355 C200 1.227 . S
C360 C130 1.227 . S
C365 C144 1.227 . S
C370 C214 1.227 . S
C375 C158 1.227 . S
C380 C172 1.227 . S
C385 C215 1.216 . S
C390 C5 1.212 . S
C395 C173 1.215 . S
C400 C19 1.216 . S
C405 C187 1.216 . S
C410 C33 1.212 . S
C415 C201 1.214 . S
C420 C47 1.217 . S
C425 C131 1.213 . S
C430 C61 1.215 . S
C435 C145 1.213 . S
C440 C75 1.214 . S
C445 C89 1.212 . S
C450 C159 1.218 . S
C455 C103 1.216 . S
C460 C117 1.215 . S
C465 C194 1.654 . S
C470 C40 1.654 . S
C475 C208 1.654 . S
C480 C54 1.654 . S
C485 C222 1.653 . S
C490 C12 1.654 . S
C495 C26 1.654 . S
C500 C180 1.654 . S
C505 C166 1.653 . S
C510 C96 1.654 . S
C515 C110 1.654 . S
C520 C124 1.654 . S
C525 C138 1.653 . S
C530 C68 1.654 . S
C535 C152 1.654 . S
C540 C82 1.653 . S
