# Generated by pormake.
# Topology ech, (8)-cn, num edge types: 1
# Building blocks:
#     Node 0, Type 0, BuildingBlock: TAGTUT_clean_sbu_3, # of connection points: 8
#     Node 1, Type 0, BuildingBlock: TAGTUT_clean_sbu_3, # of connection points: 8
#     Node 2, Type 0, BuildingBlock: TAGTUT_clean_sbu_3, # of connection points: 8
#     Node 3, Type 0, BuildingBlock: TAGTUT_clean_sbu_3, # of connection points: 8
#     Node 4, Type 0, BuildingBlock: TAGTUT_clean_sbu_3, # of connection points: 8
#     Node 5, Type 0, BuildingBlock: TAGTUT_clean_sbu_3, # of connection points: 8
#     Node 6, Type 0, BuildingBlock: TAGTUT_clean_sbu_3, # of connection points: 8
#     Node 7, Type 0, BuildingBlock: TAGTUT_clean_sbu_3, # of connection points: 8
#     Node 8, Type 0, BuildingBlock: TAGTUT_clean_sbu_3, # of connection points: 8
#     Node 9, Type 0, BuildingBlock: TAGTUT_clean_sbu_3, # of connection points: 8
#     Node 10, Type 0, BuildingBlock: TAGTUT_clean_sbu_3, # of connection points: 8
#     Node 11, Type 0, BuildingBlock: TAGTUT_clean_sbu_3, # of connection points: 8
#     Node 12, Type 0, BuildingBlock: TAGTUT_clean_sbu_3, # of connection points: 8
#     Node 13, Type 0, BuildingBlock: TAGTUT_clean_sbu_3, # of connection points: 8
#     Node 14, Type 0, BuildingBlock: TAGTUT_clean_sbu_3, # of connection points: 8
#     Node 15, Type 0, BuildingBlock: TAGTUT_clean_sbu_3, # of connection points: 8
#     Node 16, Type 0, BuildingBlock: TAGTUT_clean_sbu_3, # of connection points: 8
#     Node 17, Type 0, BuildingBlock: TAGTUT_clean_sbu_3, # of connection points: 8
#     Node 18, Type 0, BuildingBlock: TAGTUT_clean_sbu_3, # of connection points: 8
#     Node 19, Type 0, BuildingBlock: TAGTUT_clean_sbu_3, # of connection points: 8
#     Node 20, Type 0, BuildingBlock: TAGTUT_clean_sbu_3, # of connection points: 8
#     Node 21, Type 0, BuildingBlock: TAGTUT_clean_sbu_3, # of connection points: 8
#     Node 22, Type 0, BuildingBlock: TAGTUT_clean_sbu_3, # of connection points: 8
#     Node 23, Type 0, BuildingBlock: TAGTUT_clean_sbu_3, # of connection points: 8
#     Edge 24, Type (0, 0), None
#     Edge 25, Type (0, 0), None
#     Edge 26, Type (0, 0), None
#     Edge 27, Type (0, 0), None
#     Edge 28, Type (0, 0), None
#     Edge 29, Type (0, 0), None
#     Edge 30, Type (0, 0), None
#     Edge 31, Type (0, 0), None
#     Edge 32, Type (0, 0), None
#     Edge 33, Type (0, 0), None
#     Edge 34, Type (0, 0), None
#     Edge 35, Type (0, 0), None
#     Edge 36, Type (0, 0), None
#     Edge 37, Type (0, 0), None
#     Edge 38, Type (0, 0), None
#     Edge 39, Type (0, 0), None
#     Edge 40, Type (0, 0), None
#     Edge 41, Type (0, 0), None
#     Edge 42, Type (0, 0), None
#     Edge 43, Type (0, 0), None
#     Edge 44, Type (0, 0), None
#     Edge 45, Type (0, 0), None
#     Edge 46, Type (0, 0), None
#     Edge 47, Type (0, 0), None
#     Edge 48, Type (0, 0), None
#     Edge 49, Type (0, 0), None
#     Edge 50, Type (0, 0), None
#     Edge 51, Type (0, 0), None
#     Edge 52, Type (0, 0), None
#     Edge 53, Type (0, 0), None
#     Edge 54, Type (0, 0), None
#     Edge 55, Type (0, 0), None
#     Edge 56, Type (0, 0), None
#     Edge 57, Type (0, 0), None
#     Edge 58, Type (0, 0), None
#     Edge 59, Type (0, 0), None
#     Edge 60, Type (0, 0), None
#     Edge 61, Type (0, 0), None
#     Edge 62, Type (0, 0), None
#     Edge 63, Type (0, 0), None
#     Edge 64, Type (0, 0), None
#     Edge 65, Type (0, 0), None
#     Edge 66, Type (0, 0), None
#     Edge 67, Type (0, 0), None
#     Edge 68, Type (0, 0), None
#     Edge 69, Type (0, 0), None
#     Edge 70, Type (0, 0), None
#     Edge 71, Type (0, 0), None
#     Edge 72, Type (0, 0), None
#     Edge 73, Type (0, 0), None
#     Edge 74, Type (0, 0), None
#     Edge 75, Type (0, 0), None
#     Edge 76, Type (0, 0), None
#     Edge 77, Type (0, 0), None
#     Edge 78, Type (0, 0), None
#     Edge 79, Type (0, 0), None
#     Edge 80, Type (0, 0), None
#     Edge 81, Type (0, 0), None
#     Edge 82, Type (0, 0), None
#     Edge 83, Type (0, 0), None
#     Edge 84, Type (0, 0), None
#     Edge 85, Type (0, 0), None
#     Edge 86, Type (0, 0), None
#     Edge 87, Type (0, 0), None
#     Edge 88, Type (0, 0), None
#     Edge 89, Type (0, 0), None
#     Edge 90, Type (0, 0), None
#     Edge 91, Type (0, 0), None
#     Edge 92, Type (0, 0), None
#     Edge 93, Type (0, 0), None
#     Edge 94, Type (0, 0), None
#     Edge 95, Type (0, 0), None
#     Edge 96, Type (0, 0), None
#     Edge 97, Type (0, 0), None
#     Edge 98, Type (0, 0), None
#     Edge 99, Type (0, 0), None
#     Edge 100, Type (0, 0), None
#     Edge 101, Type (0, 0), None
#     Edge 102, Type (0, 0), None
#     Edge 103, Type (0, 0), None
#     Edge 104, Type (0, 0), None
#     Edge 105, Type (0, 0), None
#     Edge 106, Type (0, 0), None
#     Edge 107, Type (0, 0), None
#     Edge 108, Type (0, 0), None
#     Edge 109, Type (0, 0), None
#     Edge 110, Type (0, 0), None
#     Edge 111, Type (0, 0), None
#     Edge 112, Type (0, 0), None
#     Edge 113, Type (0, 0), None
#     Edge 114, Type (0, 0), None
#     Edge 115, Type (0, 0), None
#     Edge 116, Type (0, 0), None
#     Edge 117, Type (0, 0), None
#     Edge 118, Type (0, 0), None
#     Edge 119, Type (0, 0), None
# Relax obj value: 0.302
# Max RMSD: 0.244
# Mean RMSD: 0.241
data_MOF--net-ech--node1-TAGTUT_clean_sbu_3--edge1-none
_symmetry_space_group_name_H-M    P1
_symmetry_Int_Tables_number       1
_symmetry_cell_setting            triclinic
loop_
_symmetry_equiv_pos_as_xyz
'x, y, z'
_cell_length_a     23.995937
_cell_length_b     24.400432
_cell_length_c     23.874752
_cell_angle_alpha  90.375166
_cell_angle_beta   90.003059
_cell_angle_gamma 90.00119
loop_
_atom_site_label
_atom_site_type_symbol
_atom_site_fract_x
_atom_site_fract_y
_atom_site_fract_z
_atom_type_partial_charge
C0 C 0.09486 0.12265 0.47149 0.0
C1 C 0.24325 0.14204 0.33222 0.0
C2 C 0.15704 0.2839 0.29247 0.0
Mg3 Mg 0.98287 0.21914 0.50693 0.0
Mg4 Mg 0.03987 0.33931 0.50017 0.0
O5 O 0.01397 0.27557 0.46312 0.0
Mg6 Mg 0.07925 0.24118 0.43492 0.0
O7 O 0.14494 0.20451 0.40763 0.0
Mg8 Mg 0.10723 0.16636 0.34364 0.0
Mg9 Mg 0.2124 0.23777 0.40029 0.0
C10 C 0.07661 0.35963 0.38446 0.0
O11 O 0.13631 0.29812 0.49328 0.0
O12 O 0.91007 0.29146 0.49654 0.0
O13 O 0.22624 0.29061 0.471 0.0
O14 O 0.00229 0.26057 0.59163 0.0
O15 O 0.96215 0.36891 0.4924 0.0
O16 O 0.04765 0.33942 0.59015 0.0
O17 O 0.02588 0.18911 0.37495 0.0
O18 O 0.95446 0.17462 0.43004 0.0
C19 C 0.98505 0.15882 0.3897 0.0
C20 C 0.91549 0.34452 0.49013 0.0
O21 O 0.0727 0.30962 0.3702 0.0
O22 O 0.19311 0.13798 0.31502 0.0
O23 O 0.08995 0.37277 0.43466 0.0
O24 O 0.12229 0.24393 0.2862 0.0
O25 O 0.25645 0.16728 0.37728 0.0
O26 O 0.19298 0.2855 0.33155 0.0
O27 O 0.07652 0.16824 0.49541 0.0
O28 O 0.09254 0.11198 0.41845 0.0
C29 C 0.02219 0.30224 0.61716 0.0
C30 C 0.18723 0.31365 0.49882 0.0
C31 C 0.49839 0.85618 0.88906 0.0
C32 C 0.58488 0.66757 0.97662 0.0
C33 C 0.47984 0.70093 0.11688 0.0
Mg34 Mg 0.3815 0.82183 0.83901 0.0
Mg35 Mg 0.29785 0.72654 0.89097 0.0
O36 O 0.36478 0.76039 0.88818 0.0
Mg37 Mg 0.43542 0.74248 0.92194 0.0
O38 O 0.50822 0.73239 0.96262 0.0
Mg39 Mg 0.50772 0.79691 0.01327 0.0
Mg40 Mg 0.4885 0.66253 0.00018 0.0
C41 C 0.34087 0.65206 0.98523 0.0
O42 O 0.46374 0.67663 0.85649 0.0
O43 O 0.29367 0.83151 0.80931 0.0
O44 O 0.47439 0.61396 0.92388 0.0
O45 O 0.37692 0.74763 0.77262 0.0
O46 O 0.23625 0.78159 0.86202 0.0
O47 O 0.32037 0.68759 0.81814 0.0
O48 O 0.41142 0.80402 0.98368 0.0
O49 O 0.3658 0.86341 0.92626 0.0
C50 C 0.37762 0.84503 0.97561 0.0
C51 C 0.24551 0.81389 0.8211 0.0
O52 O 0.3902 0.6703 0.97489 0.0
O53 O 0.56107 0.7148 0.96307 0.0
O54 O 0.298 0.67264 0.96149 0.0
O55 O 0.49805 0.74481 0.09445 0.0
O56 O 0.57005 0.644 0.0208 0.0
O57 O 0.45888 0.66329 0.08607 0.0
O58 O 0.47146 0.81545 0.86762 0.0
O59 O 0.51763 0.85233 0.93872 0.0
C60 C 0.34936 0.70169 0.77585 0.0
C61 C 0.4759 0.62789 0.87179 0.0
C62 C 0.48491 0.33025 0.60956 0.0
C63 C 0.4154 0.14433 0.50929 0.0
C64 C 0.52234 0.18631 0.38254 0.0
Mg65 Mg 0.60708 0.32259 0.65592 0.0
Mg66 Mg 0.71226 0.25119 0.59933 0.0
O67 O 0.64497 0.28471 0.59184 0.0
Mg68 Mg 0.57926 0.248 0.56447 0.0
O69 O 0.51404 0.21345 0.53637 0.0
Mg70 Mg 0.48277 0.26968 0.49242 0.0
Mg71 Mg 0.53986 0.14953 0.49956 0.0
C72 C 0.68724 0.17551 0.50064 0.0
O73 O 0.57275 0.17965 0.62931 0.0
O74 O 0.69299 0.35079 0.6849 0.0
O75 O 0.5902 0.11641 0.56504 0.0
O76 O 0.62212 0.24497 0.71337 0.0
O77 O 0.75651 0.32134 0.62287 0.0
O78 O 0.69274 0.20338 0.66794 0.0
O79 O 0.57614 0.32099 0.50376 0.0
O80 O 0.59247 0.37688 0.58107 0.0
C81 C 0.59531 0.36609 0.52808 0.0
C82 C 0.7432 0.34653 0.66793 0.0
O83 O 0.63633 0.19106 0.50614 0.0
O84 O 0.41 0.19738 0.50274 0.0
O85 O 0.72623 0.19849 0.52855 0.0
O86 O 0.5024 0.22803 0.40795 0.0
O87 O 0.46208 0.11994 0.50733 0.0
O88 O 0.54778 0.14919 0.40964 0.0
O89 O 0.5258 0.29994 0.62412 0.0
O90 O 0.45427 0.31446 0.56924 0.0
C91 C 0.65688 0.20501 0.70709 0.0
C92 C 0.57675 0.12961 0.61517 0.0
C93 C -0.00166 0.63266 0.11015 0.0
C94 C 0.08497 0.82113 0.02239 0.0
C95 C 0.9797 0.78793 0.8824 0.0
Mg96 Mg 0.88158 0.66705 0.16036 0.0
Mg97 Mg 0.79778 0.76215 0.10838 0.0
O98 O 0.86485 0.72857 0.1113 0.0
Mg99 Mg 0.93543 0.74641 0.07738 0.0
O100 O 0.00819 0.75643 0.03662 0.0
Mg101 Mg 0.00761 0.6919 0.98595 0.0
Mg102 Mg 0.98847 0.82626 0.99906 0.0
C103 C 0.84077 0.83683 0.01424 0.0
O104 O 0.96382 0.81227 0.14277 0.0
O105 O 0.7938 0.65735 0.19016 0.0
O106 O 0.97449 0.87487 0.07532 0.0
O107 O 0.87703 0.74131 0.22673 0.0
O108 O 0.73629 0.70688 0.13716 0.0
O109 O 0.82012 0.80107 0.18129 0.0
O110 O 0.91133 0.68487 0.01567 0.0
O111 O 0.86567 0.62553 0.0731 0.0
C112 C 0.8775 0.64389 0.02374 0.0
C113 C 0.7456 0.67477 0.17823 0.0
O114 O 0.89012 0.8186 0.02452 0.0
O115 O 0.06114 0.77396 0.03607 0.0
O116 O 0.79792 0.8162 0.03797 0.0
O117 O 0.99795 0.74404 0.90479 0.0
O118 O 0.07 0.84466 0.97824 0.0
O119 O 0.9587 0.82551 0.91324 0.0
O120 O 0.97149 0.67344 0.1316 0.0
O121 O 0.01756 0.63646 0.06047 0.0
C122 C 0.8493 0.78715 0.22352 0.0
C123 C 0.97596 0.861 0.12742 0.0
C124 C 0.47342 0.09597 0.13562 0.0
C125 C 0.33602 0.2377 0.15215 0.0
C126 C 0.28573 0.14255 0.28972 0.0
Mg127 Mg 0.49855 0.97805 0.22205 0.0
Mg128 Mg 0.48207 0.02222 0.35611 0.0
O129 O 0.45231 0.00373 0.28374 0.0
Mg130 Mg 0.42715 0.07052 0.25473 0.0
O131 O 0.40206 0.13699 0.22016 0.0
Mg132 Mg 0.34327 0.10346 0.17215 0.0
Mg133 Mg 0.39481 0.20292 0.2539 0.0
C134 C 0.36039 0.05206 0.37757 0.0
O135 O 0.48441 0.12215 0.31711 0.0
O136 O 0.46318 0.90686 0.28939 0.0
O137 O 0.46763 0.21145 0.30554 0.0
O138 O 0.57806 0.99011 0.27838 0.0
O139 O 0.47705 0.9421 0.37619 0.0
O140 O 0.57227 0.03087 0.36155 0.0
O141 O 0.37139 0.02203 0.19444 0.0
O142 O 0.42742 0.9594 0.1598 0.0
C143 C 0.38408 0.98868 0.15496 0.0
C144 C 0.4584 0.90482 0.34402 0.0
O145 O 0.35662 0.05836 0.32437 0.0
O146 O 0.31631 0.18952 0.14607 0.0
O147 O 0.40889 0.0557 0.40023 0.0
O148 O 0.28213 0.11184 0.24595 0.0
O149 O 0.38002 0.24725 0.18044 0.0
O150 O 0.32331 0.17892 0.29696 0.0
O151 O 0.49269 0.07501 0.18272 0.0
O152 O 0.42156 0.09583 0.12107 0.0
C153 C 0.60133 0.0075 0.32347 0.0
C154 C 0.49477 0.17269 0.32874 0.0
C155 C 0.01983 0.88412 0.63858 0.0
C156 C 0.14629 0.74577 0.62564 0.0
C157 C 0.20335 0.81723 0.77782 0.0
Mg158 Mg 0.99723 -0.00114 0.72865 0.0
Mg159 Mg 0.01186 0.95102 0.85666 0.0
O160 O 0.04489 0.97115 0.78832 0.0
Mg161 Mg 0.07052 0.90538 0.75518 0.0
O162 O 0.09292 0.8407 0.71488 0.0
Mg163 Mg 0.14734 0.87598 0.66316 0.0
Mg164 Mg 0.09184 0.76904 0.73677 0.0
C165 C 0.1351 0.91273 0.87885 0.0
O166 O 0.01522 0.85186 0.81641 0.0
O167 O 0.01257 0.07679 0.79352 0.0
O168 O 0.02351 0.76245 0.79684 0.0
O169 O 0.91726 0.98469 0.77228 0.0
O170 O 0.02011 0.03155 0.87581 0.0
O171 O 0.91947 0.94835 0.85656 0.0
O172 O 0.12913 0.95661 0.69658 0.0
O173 O 0.06837 0.02077 0.67697 0.0
C174 C 0.11339 -0.00361 0.66562 0.0
C175 C 0.02193 0.07541 0.84744 0.0
O176 O 0.14279 0.91034 0.82555 0.0
O177 O 0.16512 0.79427 0.62299 0.0
O178 O 0.08465 0.91231 0.89756 0.0
O179 O 0.20766 0.85188 0.73715 0.0
O180 O 0.10326 0.73398 0.65495 0.0
O181 O 0.1652 0.78109 0.78114 0.0
O182 O 0.00055 0.90493 0.6854 0.0
O183 O 0.06621 0.90109 0.61803 0.0
C184 C 0.89212 0.96913 0.81574 0.0
C185 C 0.0027 0.80163 0.82618 0.0
C186 C 0.884 0.50028 0.84434 0.0
C187 C 0.95756 0.58416 0.65523 0.0
C188 C 0.10099 0.4819 0.67545 0.0
Mg189 Mg 0.84342 0.3855 0.82779 0.0
Mg190 Mg 0.89482 0.28566 0.74626 0.0
O191 O 0.90224 0.35166 0.77992 0.0
Mg192 Mg 0.92719 0.41803 0.74504 0.0
O193 O 0.95207 0.48455 0.71557 0.0
Mg194 Mg -0.00187 0.5112 0.7768 0.0
Mg195 Mg 0.98162 0.46617 0.64318 0.0
C196 C 0.99464 0.31576 0.67102 0.0
O197 O 0.85657 0.42975 0.67535 0.0
O198 O 0.81658 0.29951 0.85425 0.0
O199 O 0.90878 0.43167 0.59947 0.0
O200 O 0.7821 0.37681 0.75418 0.0
O201 O 0.88041 0.24178 0.82011 0.0
O202 O 0.82313 0.30951 0.7034 0.0
O203 O 0.99305 0.41454 0.81715 0.0
O204 O 0.9217 0.39383 0.87873 0.0
C205 C 0.97344 0.39287 0.86382 0.0
C206 C 0.8363 0.25133 0.84823 0.0
O207 O 0.98447 0.3663 0.68281 0.0
O208 O 0.96345 0.58286 0.70979 0.0
O209 O 0.96739 0.27703 0.69417 0.0
O210 O 0.07773 0.49916 0.72059 0.0
O211 O 0.97477 0.5461 0.62318 0.0
O212 O 0.07192 0.45862 0.63732 0.0
O213 O 0.87145 0.46675 0.80499 0.0
O214 O 0.92703 0.52993 0.83913 0.0
C215 C 0.78558 0.34593 0.71055 0.0
C216 C 0.86032 0.43578 0.6221 0.0
C217 C 0.61322 0.49277 0.33421 0.0
C218 C 0.52173 0.41351 0.15222 0.0
C219 C 0.39197 0.51986 0.18388 0.0
Mg220 Mg 0.64737 0.61311 0.3363 0.0
Mg221 Mg 0.59198 0.71997 0.26246 0.0
O222 O 0.59296 0.64838 0.28456 0.0
Mg223 Mg 0.57042 0.58363 0.24444 0.0
O224 O 0.54473 0.51784 0.21138 0.0
Mg225 Mg 0.49703 0.49006 0.271 0.0
Mg226 Mg 0.5117 0.53794 0.14303 0.0
C227 C 0.50276 0.68733 0.17317 0.0
O228 O 0.64268 0.57857 0.174 0.0
O229 O 0.66525 0.69491 0.37623 0.0
O230 O 0.58436 0.57692 0.10215 0.0
O231 O 0.70771 0.63696 0.26225 0.0
O232 O 0.60339 0.75517 0.3442 0.0
O233 O 0.66534 0.70773 0.21814 0.0
O234 O 0.50026 0.58388 0.31432 0.0
O235 O 0.56623 0.58838 0.38141 0.0
C236 C 0.51997 0.60541 0.36064 0.0
C237 C 0.64641 0.74341 0.37354 0.0
O238 O 0.51515 0.63711 0.18312 0.0
O239 O 0.51238 0.41212 0.20614 0.0
O240 O 0.52368 0.72655 0.20237 0.0
O241 O 0.41712 0.50422 0.22731 0.0
O242 O 0.51996 0.45739 0.12387 0.0
O243 O 0.41931 0.5407 0.1431 0.0
O244 O 0.62891 0.53241 0.30302 0.0
O245 O 0.56822 0.4683 0.32289 0.0
C246 C 0.70344 0.67155 0.22152 0.0
C247 C 0.63485 0.57632 0.12072 0.0
C248 C 0.14716 0.46763 0.10945 0.0
C249 C 0.16474 0.32646 0.2506 0.0
C250 C 0.29737 0.28301 0.14982 0.0
Mg251 Mg 0.23446 0.4952 0.98608 0.0
Mg252 Mg 0.36548 0.47837 0.02925 0.0
O253 O 0.29339 0.44869 0.01147 0.0
Mg254 Mg 0.2622 0.42309 0.07812 0.0
O255 O 0.22663 0.39885 0.14702 0.0
Mg256 Mg 0.17775 0.34123 0.11229 0.0
Mg257 Mg 0.26658 0.39099 0.21046 0.0
C258 C 0.38709 0.35999 0.06243 0.0
O259 O 0.32288 0.48106 0.12533 0.0
O260 O 0.29822 0.46705 0.90664 0.0
O261 O 0.31812 0.46444 0.21655 0.0
O262 O 0.28677 0.57342 0.99749 0.0
O263 O 0.38274 0.46361 0.94862 0.0
O264 O 0.3733 0.56848 0.02907 0.0
O265 O 0.20307 0.36476 0.02848 0.0
O266 O 0.17822 0.42701 0.9677 0.0
C267 C 0.1688 0.38187 0.99154 0.0
C268 C 0.35161 0.45537 0.90651 0.0
O269 O 0.33382 0.3547 0.06598 0.0
O270 O 0.14927 0.31635 0.2004 0.0
O271 O 0.408 0.40827 0.06836 0.0
O272 O 0.2503 0.27873 0.12427 0.0
O273 O 0.20223 0.36196 0.26304 0.0
O274 O 0.31018 0.32313 0.18176 0.0
O275 O 0.19082 0.49042 0.08464 0.0
O276 O 0.12848 0.42045 0.09388 0.0
C277 C 0.33263 0.59675 0.01028 0.0
C278 C 0.33783 0.49181 0.17532 0.0
C279 C 0.64717 0.02145 0.89012 0.0
C280 C 0.6648 0.16257 0.74904 0.0
C281 C 0.79754 0.20609 0.85015 0.0
Mg282 Mg 0.73439 0.99384 0.01352 0.0
Mg283 Mg 0.86551 0.01049 0.97047 0.0
O284 O 0.79342 0.04024 0.98814 0.0
Mg285 Mg 0.7623 0.06586 0.92145 0.0
O286 O 0.72677 0.09017 0.85254 0.0
Mg287 Mg 0.67789 0.1478 0.88733 0.0
Mg288 Mg 0.76685 0.09821 0.78921 0.0
C289 C 0.88725 0.12879 0.93719 0.0
O290 O 0.82295 0.00783 0.87428 0.0
O291 O 0.79818 0.02216 0.09291 0.0
O292 O 0.81841 0.02477 0.78311 0.0
O293 O 0.78669 0.91555 0.00215 0.0
O294 O 0.88282 0.02521 0.05113 0.0
O295 O 0.87319 0.92041 0.97045 0.0
O296 O 0.70328 0.12426 0.97106 0.0
O297 O 0.67819 0.06214 0.03185 0.0
C298 C 0.66893 0.1073 0.00796 0.0
C299 C 0.85161 0.03371 0.09313 0.0
O300 O 0.834 0.13415 0.93364 0.0
O301 O 0.64932 0.17268 0.79924 0.0
O302 O 0.9081 0.08048 0.93127 0.0
O303 O 0.7504 0.21033 0.87555 0.0
O304 O 0.70245 0.1272 0.73664 0.0
O305 O 0.8104 0.16605 0.81813 0.0
O306 O 0.69082 -0.00139 0.9149 0.0
O307 O 0.62855 0.06863 0.90572 0.0
C308 C 0.83252 0.89217 0.98929 0.0
C309 C 0.838 -0.00276 0.82429 0.0
C310 C 0.85074 0.8959 0.51021 0.0
C311 C 0.67403 0.96865 0.5985 0.0
C312 C 0.69791 0.11823 0.48138 0.0
Mg313 Mg 0.81335 0.83495 0.40604 0.0
Mg314 Mg 0.73299 0.8846 0.30555 0.0
O315 O 0.76079 0.88865 0.37527 0.0
Mg316 Mg 0.74113 0.92911 0.44103 0.0
O317 O 0.72936 0.9714 0.51057 0.0
Mg318 Mg 0.79692 0.01652 0.51113 0.0
Mg319 Mg 0.65697 0.00598 0.50206 0.0
C320 C 0.65708 0.98384 0.33693 0.0
O321 O 0.6731 0.86833 0.46893 0.0
O322 O 0.83514 0.7985 0.32024 0.0
O323 O 0.60923 0.93444 0.47713 0.0
O324 O 0.73245 0.78121 0.40651 0.0
O325 O 0.80845 0.86441 0.26215 0.0
O326 O 0.6866 0.81751 0.33231 0.0
O327 O 0.81021 0.98512 0.41291 0.0
O328 O 0.86354 0.90942 0.39231 0.0
C329 C 0.85373 0.96126 0.39019 0.0
C330 C 0.83645 0.82091 0.27231 0.0
O331 O 0.67237 0.97903 0.38852 0.0
O332 O 0.71879 0.95928 0.56722 0.0
O333 O 0.68038 0.95609 0.29768 0.0
O334 O 0.74343 0.09602 0.49749 0.0
O335 O 0.64754 0.01264 0.5893 0.0
O336 O 0.65661 0.08806 0.46814 0.0
O337 O 0.80558 0.877 0.48844 0.0
O338 O 0.85332 0.9456 0.52608 0.0
C339 C 0.68961 0.7847 0.3737 0.0
C340 C 0.62306 0.88339 0.47723 0.0
C341 C 0.35094 0.59322 0.48911 0.0
C342 C 0.17422 0.52055 0.40079 0.0
C343 C 0.1979 0.37096 0.51799 0.0
Mg344 Mg 0.31335 0.65424 0.59329 0.0
Mg345 Mg 0.23283 0.60456 0.69364 0.0
O346 O 0.26066 0.6006 0.62392 0.0
Mg347 Mg 0.24115 0.5601 0.55817 0.0
O348 O 0.2295 0.51774 0.48868 0.0
Mg349 Mg 0.29703 0.4726 0.48829 0.0
Mg350 Mg 0.15705 0.48322 0.49713 0.0
C351 C 0.1568 0.50548 0.66211 0.0
O352 O 0.1732 0.62088 0.53015 0.0
O353 O 0.33501 0.69062 0.67913 0.0
O354 O 0.10928 0.5548 0.52199 0.0
O355 O 0.23239 0.70799 0.59273 0.0
O356 O 0.3083 0.6246 0.73708 0.0
O357 O 0.1865 0.67171 0.66692 0.0
O358 O 0.31014 0.50408 0.58647 0.0
O359 O 0.36347 0.57975 0.60719 0.0
C360 C 0.35365 0.52791 0.60926 0.0
C361 C 0.33636 0.66808 0.727 0.0
O362 O 0.17222 0.51027 0.61055 0.0
O363 O 0.21895 0.52987 0.43215 0.0
O364 O 0.18009 0.53316 0.70141 0.0
O365 O 0.24347 0.39312 0.50193 0.0
O366 O 0.14773 0.47654 0.40988 0.0
O367 O 0.1566 0.40117 0.53113 0.0
O368 O 0.30577 0.61217 0.51082 0.0
O369 O 0.3535 0.54348 0.47334 0.0
C370 C 0.18953 0.7045 0.62553 0.0
C371 C 0.12313 0.60584 0.5219 0.0
C372 C 0.00495 0.82821 0.61601 0.0
C373 C 0.07722 0.64489 0.51238 0.0
C374 C 0.96973 0.68392 0.38474 0.0
Mg375 Mg 0.87943 0.81122 0.66729 0.0
Mg376 Mg 0.78452 0.72872 0.61029 0.0
O377 O 0.84261 0.77695 0.60117 0.0
Mg378 Mg 0.91206 0.74362 0.57195 0.0
O379 O 0.97831 0.71215 0.54105 0.0
Mg380 Mg 0.00623 0.76892 0.49578 0.0
Mg381 Mg 0.95339 0.64769 0.50435 0.0
C382 C 0.80708 0.67244 0.5026 0.0
O383 O 0.92539 0.67534 0.63699 0.0
O384 O 0.79189 0.83248 0.70445 0.0
O385 O 0.91071 0.61059 0.57362 0.0
O386 O 0.8625 0.72929 0.71694 0.0
O387 O 0.73196 0.77679 0.65916 0.0
O388 O 0.81191 0.66955 0.66591 0.0
O389 O 0.91117 0.81575 0.51144 0.0
O390 O 0.88591 0.86587 0.59066 0.0
C391 C 0.89131 0.85979 0.53691 0.0
C392 C 0.74318 0.81217 0.69723 0.0
O393 O 0.85774 0.68584 0.51289 0.0
O394 O 0.08148 0.69808 0.50576 0.0
O395 O 0.7672 0.69325 0.53088 0.0
O396 O 0.98771 0.72715 0.40924 0.0
O397 O 0.03111 0.61977 0.51054 0.0
O398 O 0.94728 0.64581 0.41325 0.0
O399 O 0.96393 0.79763 0.63095 0.0
O400 O 0.03259 0.81495 0.57254 0.0
C401 C 0.83512 0.68366 0.71141 0.0
C402 C 0.92486 0.62496 0.62347 0.0
C403 C 0.50203 0.13936 0.1035 0.0
C404 C 0.4179 0.32288 0.02191 0.0
C405 C 0.52268 0.29614 0.87298 0.0
Mg406 Mg 0.60694 0.17252 0.16849 0.0
Mg407 Mg 0.70739 0.24733 0.11638 0.0
O408 O 0.6342 0.2289 0.11823 0.0
Mg409 Mg 0.57045 0.2482 0.07409 0.0
O410 O 0.50228 0.26211 0.02744 0.0
Mg411 Mg 0.50153 0.19739 0.97946 0.0
Mg412 Mg 0.51832 0.33108 0.98989 0.0
C413 C 0.67687 0.32975 0.02626 0.0
O414 O 0.5403 0.31732 0.13391 0.0
O415 O 0.69293 0.15398 0.20562 0.0
O416 O 0.54055 0.37802 0.06355 0.0
O417 O 0.6137 0.2502 0.2268 0.0
O418 O 0.7549 0.17822 0.14115 0.0
O419 O 0.69041 0.29021 0.18852 0.0
O420 O 0.60038 0.18331 0.01261 0.0
O421 O 0.62293 0.12915 0.08747 0.0
C422 C 0.6247 0.14048 0.03484 0.0
C423 C 0.74284 0.15597 0.18789 0.0
O424 O 0.62581 0.31392 0.02962 0.0
O425 O 0.44391 0.27662 0.03503 0.0
O426 O 0.71684 0.30531 0.05106 0.0
O427 O 0.50785 0.25136 0.89663 0.0
O428 O 0.4342 0.34769 0.9786 0.0
O429 O 0.54338 0.33445 0.90285 0.0
O430 O 0.52322 0.18236 0.12649 0.0
O431 O 0.48846 0.14054 0.05201 0.0
C432 C 0.65137 0.2884 0.22466 0.0
C433 C 0.53516 0.36631 0.11588 0.0
C434 C 0.39163 0.62926 0.46242 0.0
C435 C 0.24291 0.67702 0.30244 0.0
C436 C 0.33478 0.80556 0.28796 0.0
Mg437 Mg 0.50595 0.7204 0.50346 0.0
Mg438 Mg 0.45333 0.84175 0.4949 0.0
O439 O 0.47824 0.77728 0.4582 0.0
Mg440 Mg 0.41196 0.74586 0.4273 0.0
O441 O 0.34251 0.71251 0.39825 0.0
Mg442 Mg 0.37916 0.67804 0.33225 0.0
Mg443 Mg 0.28433 0.76062 0.38918 0.0
C444 C 0.4249 0.86453 0.37564 0.0
O445 O 0.3577 0.80355 0.48649 0.0
O446 O 0.58131 0.79117 0.49346 0.0
O447 O 0.26713 0.7959 0.46869 0.0
O448 O 0.48752 0.76213 0.59005 0.0
O449 O 0.53105 0.86956 0.48876 0.0
O450 O 0.44737 0.84361 0.58605 0.0
O451 O 0.46388 0.69184 0.36795 0.0
O452 O 0.53224 0.67448 0.42679 0.0
C453 C 0.50475 0.66121 0.38325 0.0
C454 C 0.57713 0.84438 0.48685 0.0
O455 O 0.42519 0.81411 0.36226 0.0
O456 O 0.2916 0.65661 0.29531 0.0
O457 O 0.41094 0.87904 0.42551 0.0
O458 O 0.36206 0.75986 0.28248 0.0
O459 O 0.23172 0.71248 0.34043 0.0
O460 O 0.31158 0.81977 0.33345 0.0
O461 O 0.41073 0.67377 0.48759 0.0
O462 O 0.38635 0.62295 0.40867 0.0
C463 C 0.46971 0.80542 0.61457 0.0
C464 C 0.30701 0.81673 0.49696 0.0
C465 C 0.12422 0.34903 0.96476 0.0
C466 C 0.24311 0.33313 0.81196 0.0
C467 C 0.15119 0.20087 0.77451 0.0
Mg468 Mg 0.00161 0.29153 0.01993 0.0
Mg469 Mg 0.01862 0.15787 0.0097 0.0
O470 O 0.00244 0.22675 0.97205 0.0
Mg471 Mg 0.07066 0.24074 0.92545 0.0
O472 O 0.13453 0.26023 0.88155 0.0
Mg473 Mg 0.10718 0.31651 0.83128 0.0
Mg474 Mg 0.20761 0.24142 0.88285 0.0
C475 C 0.03547 0.1226 0.88374 0.0
O476 O 0.1261 0.17513 0.96999 0.0
O477 O 0.94403 0.21219 0.96452 0.0
O478 O 0.21707 0.18351 0.94817 0.0
O479 O 0.00795 0.23773 0.10288 0.0
O480 O 0.93456 0.14106 0.02092 0.0
O481 O 0.04353 0.15466 0.09681 0.0
O482 O 0.02341 0.3065 0.8728 0.0
O483 O 0.98828 0.34804 0.94731 0.0
C484 C 0.00184 0.34928 0.89584 0.0
C485 C 0.91813 0.16587 0.97766 0.0
O486 O 0.04064 0.17157 0.86568 0.0
O487 O 0.19318 0.33529 0.79432 0.0
O488 O 0.04094 0.11091 0.93607 0.0
O489 O 0.1137 0.23924 0.77247 0.0
O490 O 0.25519 0.31061 0.85855 0.0
O491 O 0.19023 0.1988 0.81062 0.0
O492 O 0.10046 0.30571 0.98661 0.0
O493 O 0.12216 0.36073 0.9122 0.0
C494 C 0.02278 0.193 0.12661 0.0
C495 C 0.17715 0.15922 0.97319 0.0
C496 C 0.62381 0.00637 0.83289 0.0
C497 C 0.54831 0.08675 0.64693 0.0
C498 C 0.40135 0.98749 0.66945 0.0
Mg499 Mg 0.63443 0.88499 0.84724 0.0
Mg500 Mg 0.57862 0.77985 0.76253 0.0
O501 O 0.5815 0.85186 0.78868 0.0
Mg502 Mg 0.56915 0.91676 0.74462 0.0
O503 O 0.5522 0.98249 0.70733 0.0
Mg504 Mg 0.50661 0.0175 0.76389 0.0
Mg505 Mg 0.52108 0.96613 0.63583 0.0
C506 C 0.49393 0.81758 0.67105 0.0
O507 O 0.64314 0.91591 0.67673 0.0
O508 O 0.61776 0.8079 0.89745 0.0
O509 O 0.59015 0.91815 0.60121 0.0
O510 O 0.7033 0.84995 0.78285 0.0
O511 O 0.58396 0.74377 0.84355 0.0
O512 O 0.65465 0.79364 0.72525 0.0
O513 O 0.49671 0.92646 0.81194 0.0
O514 O 0.55761 0.92905 0.88202 0.0
C515 C 0.51287 0.90983 0.86136 0.0
C516 C 0.62468 0.76299 0.87201 0.0
O517 O 0.50953 0.86703 0.68195 0.0
O518 O 0.53637 0.08955 0.70011 0.0
O519 O 0.51262 0.77714 0.69945 0.0
O520 O 0.4256 0.00614 0.71314 0.0
O521 O 0.53824 0.04497 0.6165 0.0
O522 O 0.42954 0.96316 0.63128 0.0
O523 O 0.63407 0.96248 0.80514 0.0
O524 O 0.58166 0.03474 0.81874 0.0
C525 C 0.69796 0.8216 0.73704 0.0
C526 C 0.63864 0.92363 0.62353 0.0
C527 C 0.88985 0.98592 0.34782 0.0
C528 C 0.99461 0.90473 0.16691 0.0
C529 C 0.11269 0.01307 0.2123 0.0
Mg530 Mg 0.84977 0.1041 0.34477 0.0
Mg531 Mg 0.89914 0.20773 0.26482 0.0
O532 O 0.90649 0.13917 0.29402 0.0
Mg533 Mg 0.93527 0.07289 0.25885 0.0
O534 O 0.96347 0.00372 0.22982 0.0
Mg535 Mg 0.01033 0.97745 0.29202 0.0
Mg536 Mg 0.00399 0.02705 0.16808 0.0
C537 C 0.99672 0.17972 0.18222 0.0
O538 O 0.86774 0.06198 0.18977 0.0
O539 O 0.82515 0.18836 0.38008 0.0
O540 O 0.93568 0.06885 0.12745 0.0
O541 O 0.7853 0.12119 0.27173 0.0
O542 O 0.88497 0.24817 0.34328 0.0
O543 O 0.82574 0.18888 0.22198 0.0
O544 O 0.00178 0.07519 0.33116 0.0
O545 O 0.93069 0.08127 0.39311 0.0
C546 C 0.97679 0.09974 0.37347 0.0
C547 C 0.84229 0.2373 0.37346 0.0
O548 O 0.99163 0.12911 0.19699 0.0
O549 O 0.99174 0.90303 0.2217 0.0
O550 O 0.96778 0.21751 0.20579 0.0
O551 O 0.09591 0.98084 0.2496 0.0
O552 O 0.01003 0.94747 0.14077 0.0
O553 O 0.08221 0.05436 0.20138 0.0
O554 O 0.87533 0.02382 0.31442 0.0
O555 O 0.93567 0.96132 0.34075 0.0
C556 C 0.78747 0.15343 0.22906 0.0
C557 C 0.88451 0.05869 0.13932 0.0
C558 C 0.01269 0.57902 0.13791 0.0
C559 C 0.12461 0.72618 0.12741 0.0
C560 C 0.19775 0.66763 0.26254 0.0
Mg561 Mg 0.00678 0.47187 0.23565 0.0
Mg562 Mg 0.02126 0.52321 0.3637 0.0
O563 O 0.05239 0.50676 0.29223 0.0
Mg564 Mg 0.06924 0.57245 0.25488 0.0
O565 O 0.08142 0.63731 0.21072 0.0
Mg566 Mg 0.13438 0.60421 0.15223 0.0
Mg567 Mg 0.0785 0.70935 0.2368 0.0
C568 C 0.13886 0.56562 0.37586 0.0
O569 O 0.00966 0.62224 0.31753 0.0
O570 O 0.03643 0.39978 0.29946 0.0
O571 O 0.01245 0.7121 0.29976 0.0
O572 O 0.92581 0.48327 0.28642 0.0
O573 O 0.03837 0.44438 0.38305 0.0
O574 O 0.92972 0.5262 0.3683 0.0
O575 O 0.13421 0.52676 0.19426 0.0
O576 O 0.08175 0.45448 0.1809 0.0
C577 C 0.12391 0.48277 0.16669 0.0
C578 C 0.04836 0.40258 0.35265 0.0
O579 O 0.14328 0.57333 0.32265 0.0
O580 O 0.11759 0.68126 0.10202 0.0
O581 O 0.0904 0.57115 0.39824 0.0
O582 O 0.20315 0.63929 0.21674 0.0
O583 O 0.08393 0.74551 0.15583 0.0
O584 O 0.15445 0.69563 0.27425 0.0
O585 O 0.99686 0.56303 0.18764 0.0
O586 O 0.05758 0.55993 0.11744 0.0
C587 C 0.90155 0.50188 0.33011 0.0
C588 C 0.99391 0.67167 0.32828 0.0
C589 C 0.47686 0.38937 0.62572 0.0
C590 C 0.34216 0.25174 0.6262 0.0
C591 C 0.28766 0.33571 0.77071 0.0
Mg592 Mg 0.51026 0.51141 0.70716 0.0
Mg593 Mg 0.50415 0.46211 0.83116 0.0
O594 O 0.46347 0.48552 0.76955 0.0
Mg595 Mg 0.43521 0.41631 0.74071 0.0
O596 O 0.40648 0.35 0.70559 0.0
Mg597 Mg 0.34973 0.38496 0.65485 0.0
Mg598 Mg 0.39922 0.28141 0.73473 0.0
C599 C 0.38461 0.43072 0.86024 0.0
O600 O 0.49151 0.36009 0.80266 0.0
O601 O 0.49162 0.58584 0.77751 0.0
O602 O 0.46789 0.27163 0.79368 0.0
O603 O 0.59587 0.50802 0.74954 0.0
O604 O 0.51062 0.54167 0.85842 0.0
O605 O 0.58224 0.43451 0.7978 0.0
O606 O 0.37513 0.4653 0.68499 0.0
O607 O 0.43567 0.5276 0.65853 0.0
C608 C 0.38976 0.50315 0.65157 0.0
C609 C 0.49479 0.58426 0.8323 0.0
O610 O 0.3678 0.42738 0.8098 0.0
O611 O 0.32508 0.30071 0.6196 0.0
O612 O 0.43582 0.42068 0.8721 0.0
O613 O 0.28538 0.36791 0.72801 0.0
O614 O 0.38478 0.24078 0.65641 0.0
O615 O 0.32594 0.30026 0.77772 0.0
O616 O 0.50154 0.41344 0.66849 0.0
O617 O 0.43063 0.40777 0.60631 0.0
C618 C 0.61275 0.47575 0.78675 0.0
C619 C 0.4967 0.30945 0.81735 0.0
C620 C 0.61665 0.63355 0.93631 0.0
C621 C 0.68056 0.75467 0.85085 0.0
C622 C 0.8082 0.66336 0.76172 0.0
Mg623 Mg 0.63897 0.50141 0.96905 0.0
Mg624 Mg 0.76815 0.49275 0.00565 0.0
O625 O 0.71973 0.49463 0.94455 0.0
Mg626 Mg 0.72949 0.56907 0.91118 0.0
O627 O 0.73386 0.64045 0.87789 0.0
Mg628 Mg 0.68157 0.63292 0.81548 0.0
Mg629 Mg 0.78231 0.69981 0.88046 0.0
C630 C 0.84103 0.51445 0.8866 0.0
O631 O 0.79531 0.60095 0.98172 0.0
O632 O 0.64637 0.41074 0.9836 0.0
O633 O 0.83487 0.67623 0.94462 0.0
O634 O 0.65232 0.50478 0.05993 0.0
O635 O 0.73355 0.40918 0.02017 0.0
O636 O 0.72529 0.55664 0.06829 0.0
O637 O 0.67844 0.53826 0.83307 0.0
O638 O 0.61984 0.487 0.88188 0.0
C639 C 0.63887 0.50264 0.83547 0.0
C640 C 0.68747 0.38523 0.00588 0.0
O641 O 0.80102 0.54123 0.86656 0.0
O642 O 0.68733 0.72366 0.80845 0.0
O643 O 0.84083 0.49733 0.93842 0.0
O644 O 0.76277 0.63448 0.75772 0.0
O645 O 0.72025 0.76149 0.88567 0.0
O646 O 0.82037 0.6917 0.80462 0.0
O647 O 0.65065 0.59758 0.95555 0.0
O648 O 0.61515 0.64552 0.88423 0.0
C649 C 0.67496 0.54487 0.08339 0.0
C650 C 0.83441 0.63769 0.98014 0.0
C651 C 0.13852 0.98611 0.16348 0.0
C652 C 0.18773 0.10375 0.99354 0.0
C653 C 0.17538 0.94422 0.9159 0.0
Mg654 Mg 0.18147 0.85623 0.18361 0.0
Mg655 Mg 0.28228 0.78917 0.11886 0.0
O656 O 0.23376 0.84849 0.12121 0.0
Mg657 Mg 0.22951 0.91988 0.0879 0.0
O658 O 0.21985 0.99434 0.05468 0.0
Mg659 Mg 0.13913 0.98763 0.02996 0.0
Mg660 Mg 0.26838 -0.00382 0.99366 0.0
C661 C 0.33451 0.85121 0.01917 0.0
O662 O 0.30104 0.94774 0.1327 0.0
O663 O 0.1873 0.76551 0.19093 0.0
O664 O 0.34101 0.99155 0.06086 0.0
O665 O 0.26257 0.85481 0.2415 0.0
O666 O 0.2202 0.72745 0.11382 0.0
O667 O 0.32022 0.79754 0.19474 0.0
O668 O 0.15061 0.89137 0.04315 0.0
O669 O 0.1153 0.84348 0.11471 0.0
C670 C 0.11687 0.85522 0.06257 0.0
C671 C 0.1805 0.7344 0.14861 0.0
O672 O 0.29545 0.88799 0.01755 0.0
O673 O 0.1466 0.07827 0.01578 0.0
O674 O 0.3349 0.81267 0.0547 0.0
O675 O 0.15306 0.98462 0.93912 0.0
O676 O 0.23376 0.07976 0.97919 0.0
O677 O 0.22559 0.93218 0.93117 0.0
O678 O 0.17832 0.95076 0.16563 0.0
O679 O 0.1194 0.00183 0.11712 0.0
C680 C 0.30799 0.82591 0.2376 0.0
C681 C 0.34113 0.97446 0.11269 0.0
C682 C 0.14525 0.02187 0.61898 0.0
C683 C 0.16012 0.16354 0.72872 0.0
C684 C 0.29956 0.20922 0.62629 0.0
Mg685 Mg 0.19704 0.97032 0.49389 0.0
Mg686 Mg 0.33579 0.98126 0.50145 0.0
O687 O 0.26333 0.01615 0.48983 0.0
Mg688 Mg 0.25369 0.05883 0.55921 0.0
O689 O 0.23676 0.10026 0.62459 0.0
Mg690 Mg 0.17902 0.14994 0.59636 0.0
Mg691 Mg 0.26479 0.10502 0.69419 0.0
C692 C 0.36992 0.10512 0.5196 0.0
O693 O 0.32582 0.01164 0.6082 0.0
O694 O 0.27658 0.02482 0.43469 0.0
O695 O 0.32221 0.03676 0.6987 0.0
O696 O 0.2511 0.89381 0.50612 0.0
O697 O 0.34457 0.96643 0.41551 0.0
O698 O 0.3369 0.90069 0.53784 0.0
O699 O 0.18535 0.10972 0.51436 0.0
O700 O 0.13875 0.03922 0.48009 0.0
C701 C 0.13998 0.08911 0.4951 0.0
C702 C 0.32117 0.01146 0.40436 0.0
O703 O 0.31972 0.12003 0.52785 0.0
O704 O 0.15965 0.18467 0.68045 0.0
O705 O 0.3842 0.05422 0.52058 0.0
O706 O 0.25663 0.20992 0.5932 0.0
O707 O 0.18948 0.12114 0.73964 0.0
O708 O 0.3049 0.1759 0.66707 0.0
O709 O 0.18828 0.00011 0.59332 0.0
O710 O 0.13158 0.07276 0.61417 0.0
C711 C 0.29606 0.87109 0.52221 0.0
C712 C 0.34425 0.00891 0.65874 0.0
C713 C 0.64522 0.4673 0.38078 0.0
C714 C 0.66054 0.32575 0.27039 0.0
C715 C 0.79976 0.27988 0.37327 0.0
Mg716 Mg 0.69734 0.51853 0.50592 0.0
Mg717 Mg 0.83615 0.50755 0.49823 0.0
O718 O 0.76366 0.47272 0.50975 0.0
Mg719 Mg 0.75386 0.43027 0.44021 0.0
O720 O 0.73672 0.38917 0.37463 0.0
Mg721 Mg 0.67919 0.33926 0.40294 0.0
Mg722 Mg 0.76526 0.38411 0.30527 0.0
C723 C 0.87008 0.38377 0.47962 0.0
O724 O 0.82596 0.47766 0.39129 0.0
O725 O 0.77683 0.46381 0.56495 0.0
O726 O 0.82256 0.45242 0.30082 0.0
O727 O 0.75132 0.59515 0.49372 0.0
O728 O 0.84532 0.52166 0.58423 0.0
O729 O 0.83722 0.58832 0.46222 0.0
O730 O 0.68568 0.37918 0.48503 0.0
O731 O 0.63916 0.44954 0.51966 0.0
C732 C 0.64037 0.3997 0.50449 0.0
C733 C 0.82154 0.47677 0.59528 0.0
O734 O 0.81988 0.36893 0.47132 0.0
O735 O 0.65971 0.30477 0.31872 0.0
O736 O 0.88443 0.43465 0.47864 0.0
O737 O 0.75668 0.27914 0.40612 0.0
O738 O 0.69025 0.3679 0.25941 0.0
O739 O 0.80533 0.3133 0.33261 0.0
O740 O 0.6883 0.48906 0.40638 0.0
O741 O 0.63158 0.4164 0.38556 0.0
C742 C 0.79628 0.61789 0.47768 0.0
C743 C 0.84447 0.48037 0.34078 0.0
loop_
_geom_bond_atom_site_label_1
_geom_bond_atom_site_label_2
_geom_bond_distance
_geom_bond_site_symmetry_2
_ccdc_geom_bond_type
C0 O27 1.312 . S
C0 O28 1.208 . S
C1 O22 1.331 . S
C1 O25 1.244 . S
C2 O24 1.264 . S
C2 O26 1.273 . S
Mg3 O5 1.936 1_655 S
Mg3 O12 2.081 . S
Mg3 O14 2.023 1_655 S
Mg3 O18 2.031 . S
Mg3 O27 2.291 1_655 S
Mg4 O5 1.963 . S
Mg4 O15 1.942 1_455 S
Mg4 O16 1.955 . S
Mg4 O23 1.986 . S
O5 Mg3 1.936 1_455 S
O5 Mg4 1.963 . S
O5 Mg6 1.915 . S
Mg6 O5 1.915 . S
Mg6 O7 1.915 . S
Mg6 O11 2.013 . S
Mg6 O17 2.114 . S
Mg6 O21 2.013 . S
Mg6 O27 2.114 . S
O7 Mg6 1.915 . S
O7 Mg8 1.936 . S
O7 Mg9 1.963 . S
Mg8 O7 1.936 . S
Mg8 O17 2.291 . S
Mg8 O22 2.081 . S
Mg8 O24 2.023 . S
Mg8 O28 2.031 . S
Mg9 O7 1.963 . S
Mg9 O13 1.986 . S
Mg9 O25 1.942 . S
Mg9 O26 1.955 . S
C10 O21 1.191 . S
C10 O23 1.307 . S
O11 Mg6 2.013 . S
O11 C30 1.191 . S
O12 Mg3 2.081 . S
O12 C20 1.331 . S
O13 Mg9 1.986 . S
O13 C30 1.307 . S
O14 Mg3 2.023 1_455 S
O14 C29 1.267 . S
O15 Mg4 1.942 1_655 S
O15 C20 1.244 . S
O16 Mg4 1.955 . S
O16 C29 1.273 . S
O17 Mg6 2.114 . S
O17 Mg8 2.291 . S
O17 C19 1.312 . S
O18 Mg3 2.031 . S
O18 C19 1.196 1_655 S
C19 O17 1.312 . S
C19 O18 1.196 1_455 S
C20 O12 1.331 . S
C20 O15 1.244 . S
O21 Mg6 2.013 . S
O21 C10 1.191 . S
O22 C1 1.331 . S
O22 Mg8 2.081 . S
O23 Mg4 1.986 . S
O23 C10 1.307 . S
O24 C2 1.264 . S
O24 Mg8 2.023 . S
O25 C1 1.244 . S
O25 Mg9 1.942 . S
O26 C2 1.273 . S
O26 Mg9 1.955 . S
O27 C0 1.312 . S
O27 Mg3 2.291 1_455 S
O27 Mg6 2.114 . S
O28 C0 1.208 . S
O28 Mg8 2.031 . S
C29 O14 1.267 . S
C29 O16 1.273 . S
C30 O11 1.191 . S
C30 O13 1.307 . S
C31 O58 1.312 . S
C31 O59 1.208 . S
C32 O53 1.331 . S
C32 O56 1.244 . S
C33 O55 1.264 . S
C33 O57 1.273 . S
Mg34 O36 1.936 . S
Mg34 O43 2.081 . S
Mg34 O45 2.023 . S
Mg34 O49 2.031 . S
Mg34 O58 2.291 . S
Mg35 O36 1.963 . S
Mg35 O46 1.942 . S
Mg35 O47 1.955 . S
Mg35 O54 1.986 . S
O36 Mg34 1.936 . S
O36 Mg35 1.963 . S
O36 Mg37 1.915 . S
Mg37 O36 1.915 . S
Mg37 O38 1.915 . S
Mg37 O42 2.013 . S
Mg37 O48 2.114 . S
Mg37 O52 2.013 . S
Mg37 O58 2.114 . S
O38 Mg37 1.915 . S
O38 Mg39 1.936 . S
O38 Mg40 1.963 . S
Mg39 O38 1.936 . S
Mg39 O48 2.291 . S
Mg39 O53 2.081 . S
Mg39 O55 2.023 1_556 S
Mg39 O59 2.031 . S
Mg40 O38 1.963 . S
Mg40 O44 1.986 . S
Mg40 O56 1.942 . S
Mg40 O57 1.955 1_556 S
C41 O52 1.191 . S
C41 O54 1.307 . S
O42 Mg37 2.013 . S
O42 C61 1.191 . S
O43 Mg34 2.081 . S
O43 C51 1.331 . S
O44 Mg40 1.986 . S
O44 C61 1.307 . S
O45 Mg34 2.023 . S
O45 C60 1.264 . S
O46 Mg35 1.942 . S
O46 C51 1.244 . S
O47 Mg35 1.955 . S
O47 C60 1.273 . S
O48 Mg37 2.114 . S
O48 Mg39 2.291 . S
O48 C50 1.312 . S
O49 Mg34 2.031 . S
O49 C50 1.208 . S
C50 O48 1.312 . S
C50 O49 1.208 . S
C51 O43 1.331 . S
C51 O46 1.244 . S
O52 Mg37 2.013 . S
O52 C41 1.191 . S
O53 C32 1.331 . S
O53 Mg39 2.081 . S
O54 Mg35 1.986 . S
O54 C41 1.307 . S
O55 C33 1.264 . S
O55 Mg39 2.023 1_554 S
O56 C32 1.244 . S
O56 Mg40 1.942 . S
O57 C33 1.273 . S
O57 Mg40 1.955 1_554 S
O58 C31 1.312 . S
O58 Mg34 2.291 . S
O58 Mg37 2.114 . S
O59 C31 1.208 . S
O59 Mg39 2.031 . S
C60 O45 1.264 . S
C60 O47 1.273 . S
C61 O42 1.191 . S
C61 O44 1.307 . S
C62 O89 1.312 . S
C62 O90 1.208 . S
C63 O84 1.331 . S
C63 O87 1.244 . S
C64 O86 1.264 . S
C64 O88 1.273 . S
Mg65 O67 1.936 . S
Mg65 O74 2.081 . S
Mg65 O76 2.023 . S
Mg65 O80 2.031 . S
Mg65 O89 2.291 . S
Mg66 O67 1.963 . S
Mg66 O77 1.942 . S
Mg66 O78 1.955 . S
Mg66 O85 1.986 . S
O67 Mg65 1.936 . S
O67 Mg66 1.963 . S
O67 Mg68 1.915 . S
Mg68 O67 1.915 . S
Mg68 O69 1.915 . S
Mg68 O73 2.013 . S
Mg68 O79 2.114 . S
Mg68 O83 2.013 . S
Mg68 O89 2.114 . S
O69 Mg68 1.915 . S
O69 Mg70 1.936 . S
O69 Mg71 1.963 . S
Mg70 O69 1.936 . S
Mg70 O79 2.291 . S
Mg70 O84 2.081 . S
Mg70 O86 2.023 . S
Mg70 O90 2.031 . S
Mg71 O69 1.963 . S
Mg71 O75 1.986 . S
Mg71 O87 1.942 . S
Mg71 O88 1.955 . S
C72 O83 1.191 . S
C72 O85 1.307 . S
O73 Mg68 2.013 . S
O73 C92 1.191 . S
O74 Mg65 2.081 . S
O74 C82 1.331 . S
O75 Mg71 1.986 . S
O75 C92 1.307 . S
O76 Mg65 2.023 . S
O76 C91 1.264 . S
O77 Mg66 1.942 . S
O77 C82 1.244 . S
O78 Mg66 1.955 . S
O78 C91 1.273 . S
O79 Mg68 2.114 . S
O79 Mg70 2.291 . S
O79 C81 1.312 . S
O80 Mg65 2.031 . S
O80 C81 1.208 . S
C81 O79 1.312 . S
C81 O80 1.208 . S
C82 O74 1.331 . S
C82 O77 1.244 . S
O83 Mg68 2.013 . S
O83 C72 1.191 . S
O84 C63 1.331 . S
O84 Mg70 2.081 . S
O85 Mg66 1.986 . S
O85 C72 1.307 . S
O86 C64 1.264 . S
O86 Mg70 2.023 . S
O87 C63 1.244 . S
O87 Mg71 1.942 . S
O88 C64 1.273 . S
O88 Mg71 1.955 . S
O89 C62 1.312 . S
O89 Mg65 2.291 . S
O89 Mg68 2.114 . S
O90 C62 1.208 . S
O90 Mg70 2.031 . S
C91 O76 1.264 . S
C91 O78 1.273 . S
C92 O73 1.191 . S
C92 O75 1.307 . S
C93 O120 1.312 . S
C93 O121 1.208 1_655 S
C94 O115 1.331 . S
C94 O118 1.244 . S
C95 O117 1.264 1_655 S
C95 O119 1.273 . S
Mg96 O98 1.936 . S
Mg96 O105 2.081 . S
Mg96 O107 2.023 . S
Mg96 O111 2.031 . S
Mg96 O120 2.291 . S
Mg97 O98 1.963 . S
Mg97 O108 1.942 . S
Mg97 O109 1.955 . S
Mg97 O116 1.986 . S
O98 Mg96 1.936 . S
O98 Mg97 1.963 . S
O98 Mg99 1.915 . S
Mg99 O98 1.915 . S
Mg99 O100 1.915 . S
Mg99 O104 2.013 . S
Mg99 O110 2.114 . S
Mg99 O114 2.013 . S
Mg99 O120 2.114 . S
O100 Mg99 1.915 . S
O100 Mg101 1.936 1_655 S
O100 Mg102 1.963 . S
Mg101 O100 1.936 1_455 S
Mg101 O110 2.291 1_455 S
Mg101 O115 2.081 . S
Mg101 O117 2.023 1_554 S
Mg101 O121 2.031 . S
Mg102 O100 1.963 . S
Mg102 O106 1.986 . S
Mg102 O118 1.942 1_655 S
Mg102 O119 1.955 1_554 S
C103 O114 1.191 . S
C103 O116 1.307 . S
O104 Mg99 2.013 . S
O104 C123 1.191 . S
O105 Mg96 2.081 . S
O105 C113 1.331 . S
O106 Mg102 1.986 . S
O106 C123 1.307 . S
O107 Mg96 2.023 . S
O107 C122 1.264 . S
O108 Mg97 1.942 . S
O108 C113 1.244 . S
O109 Mg97 1.955 . S
O109 C122 1.273 . S
O110 Mg99 2.114 . S
O110 Mg101 2.291 1_655 S
O110 C112 1.312 . S
O111 Mg96 2.031 . S
O111 C112 1.208 . S
C112 O110 1.312 . S
C112 O111 1.208 . S
C113 O105 1.331 . S
C113 O108 1.244 . S
O114 Mg99 2.013 . S
O114 C103 1.191 . S
O115 C94 1.331 . S
O115 Mg101 2.081 . S
O116 Mg97 1.986 . S
O116 C103 1.307 . S
O117 C95 1.264 1_455 S
O117 Mg101 2.023 1_556 S
O118 C94 1.244 . S
O118 Mg102 1.942 1_455 S
O119 C95 1.273 . S
O119 Mg102 1.955 1_556 S
O120 C93 1.312 . S
O120 Mg96 2.291 . S
O120 Mg99 2.114 . S
O121 C93 1.208 1_455 S
O121 Mg101 2.031 . S
C122 O107 1.264 . S
C122 O109 1.273 . S
C123 O104 1.191 . S
C123 O106 1.307 . S
C124 O151 1.312 . S
C124 O152 1.208 . S
C125 O146 1.331 . S
C125 O149 1.244 . S
C126 O148 1.264 . S
C126 O150 1.273 . S
Mg127 O129 1.936 1_565 S
Mg127 O136 2.081 . S
Mg127 O138 2.023 1_565 S
Mg127 O142 2.031 1_565 S
Mg127 O151 2.291 1_565 S
Mg128 O129 1.963 . S
Mg128 O139 1.942 1_545 S
Mg128 O140 1.955 . S
Mg128 O147 1.986 . S
O129 Mg127 1.936 1_545 S
O129 Mg128 1.963 . S
O129 Mg130 1.915 . S
Mg130 O129 1.915 . S
Mg130 O131 1.915 . S
Mg130 O135 2.013 . S
Mg130 O141 2.114 . S
Mg130 O145 2.013 . S
Mg130 O151 2.114 . S
O131 Mg130 1.915 . S
O131 Mg132 1.936 . S
O131 Mg133 1.963 . S
Mg132 O131 1.936 . S
Mg132 O141 2.291 . S
Mg132 O146 2.081 . S
Mg132 O148 2.023 . S
Mg132 O152 2.031 . S
Mg133 O131 1.963 . S
Mg133 O137 1.986 . S
Mg133 O149 1.942 . S
Mg133 O150 1.955 . S
C134 O145 1.191 . S
C134 O147 1.307 . S
O135 Mg130 2.013 . S
O135 C154 1.191 . S
O136 Mg127 2.081 . S
O136 C144 1.331 . S
O137 Mg133 1.986 . S
O137 C154 1.307 . S
O138 Mg127 2.023 1_545 S
O138 C153 1.264 . S
O139 Mg128 1.942 1_565 S
O139 C144 1.244 . S
O140 Mg128 1.955 . S
O140 C153 1.273 . S
O141 Mg130 2.114 . S
O141 Mg132 2.291 . S
O141 C143 1.312 . S
O142 Mg127 2.031 1_545 S
O142 C143 1.210 . S
C143 O141 1.312 . S
C143 O142 1.210 . S
C144 O136 1.331 . S
C144 O139 1.244 . S
O145 Mg130 2.013 . S
O145 C134 1.191 . S
O146 C125 1.331 . S
O146 Mg132 2.081 . S
O147 Mg128 1.986 . S
O147 C134 1.307 . S
O148 C126 1.264 . S
O148 Mg132 2.023 . S
O149 C125 1.244 . S
O149 Mg133 1.942 . S
O150 C126 1.273 . S
O150 Mg133 1.955 . S
O151 C124 1.312 . S
O151 Mg127 2.291 1_545 S
O151 Mg130 2.114 . S
O152 C124 1.208 . S
O152 Mg132 2.031 . S
C153 O138 1.264 . S
C153 O140 1.273 . S
C154 O135 1.191 . S
C154 O137 1.307 . S
C155 O182 1.312 . S
C155 O183 1.208 . S
C156 O177 1.331 . S
C156 O180 1.244 . S
C157 O179 1.264 . S
C157 O181 1.273 . S
Mg158 O160 1.936 1_545 S
Mg158 O167 2.081 . S
Mg158 O169 2.023 1_445 S
Mg158 O173 2.030 1_545 S
Mg158 O182 2.291 1_545 S
Mg159 O160 1.963 . S
Mg159 O170 1.942 1_565 S
Mg159 O171 1.955 1_455 S
Mg159 O178 1.986 . S
O160 Mg158 1.936 1_565 S
O160 Mg159 1.963 . S
O160 Mg161 1.915 . S
Mg161 O160 1.915 . S
Mg161 O162 1.915 . S
Mg161 O166 2.013 . S
Mg161 O172 2.114 . S
Mg161 O176 2.013 . S
Mg161 O182 2.114 . S
O162 Mg161 1.915 . S
O162 Mg163 1.936 . S
O162 Mg164 1.963 . S
Mg163 O162 1.936 . S
Mg163 O172 2.291 . S
Mg163 O177 2.081 . S
Mg163 O179 2.023 . S
Mg163 O183 2.031 . S
Mg164 O162 1.963 . S
Mg164 O168 1.986 . S
Mg164 O180 1.942 . S
Mg164 O181 1.955 . S
C165 O176 1.191 . S
C165 O178 1.307 . S
O166 Mg161 2.013 . S
O166 C185 1.191 . S
O167 Mg158 2.081 . S
O167 C175 1.331 . S
O168 Mg164 1.986 . S
O168 C185 1.307 . S
O169 Mg158 2.023 1_665 S
O169 C184 1.264 . S
O170 Mg159 1.942 1_545 S
O170 C175 1.244 . S
O171 Mg159 1.955 1_655 S
O171 C184 1.273 . S
O172 Mg161 2.114 . S
O172 Mg163 2.291 . S
O172 C174 1.312 . S
O173 Mg158 2.030 1_565 S
O173 C174 1.214 . S
C174 O172 1.312 . S
C174 O173 1.214 . S
C175 O167 1.331 . S
C175 O170 1.244 . S
O176 Mg161 2.013 . S
O176 C165 1.191 . S
O177 C156 1.331 . S
O177 Mg163 2.081 . S
O178 Mg159 1.986 . S
O178 C165 1.307 . S
O179 C157 1.264 . S
O179 Mg163 2.023 . S
O180 C156 1.244 . S
O180 Mg164 1.942 . S
O181 C157 1.273 . S
O181 Mg164 1.955 . S
O182 C155 1.312 . S
O182 Mg158 2.291 1_565 S
O182 Mg161 2.114 . S
O183 C155 1.208 . S
O183 Mg163 2.031 . S
C184 O169 1.264 . S
C184 O171 1.273 . S
C185 O166 1.191 . S
C185 O168 1.307 . S
C186 O213 1.312 . S
C186 O214 1.208 . S
C187 O208 1.331 . S
C187 O211 1.244 . S
C188 O210 1.264 . S
C188 O212 1.273 . S
Mg189 O191 1.936 . S
Mg189 O198 2.081 . S
Mg189 O200 2.023 . S
Mg189 O204 2.031 . S
Mg189 O213 2.291 . S
Mg190 O191 1.963 . S
Mg190 O201 1.942 . S
Mg190 O202 1.955 . S
Mg190 O209 1.986 . S
O191 Mg189 1.936 . S
O191 Mg190 1.963 . S
O191 Mg192 1.915 . S
Mg192 O191 1.915 . S
Mg192 O193 1.915 . S
Mg192 O197 2.013 . S
Mg192 O203 2.114 . S
Mg192 O207 2.013 . S
Mg192 O213 2.114 . S
O193 Mg192 1.915 . S
O193 Mg194 1.936 . S
O193 Mg195 1.963 . S
Mg194 O193 1.936 . S
Mg194 O203 2.291 . S
Mg194 O208 2.081 . S
Mg194 O210 2.023 1_655 S
Mg194 O214 2.031 . S
Mg195 O193 1.963 . S
Mg195 O199 1.986 . S
Mg195 O211 1.942 . S
Mg195 O212 1.955 1_655 S
C196 O207 1.191 . S
C196 O209 1.307 . S
O197 Mg192 2.013 . S
O197 C216 1.191 . S
O198 Mg189 2.081 . S
O198 C206 1.331 . S
O199 Mg195 1.986 . S
O199 C216 1.307 . S
O200 Mg189 2.023 . S
O200 C215 1.264 . S
O201 Mg190 1.942 . S
O201 C206 1.244 . S
O202 Mg190 1.955 . S
O202 C215 1.273 . S
O203 Mg192 2.114 . S
O203 Mg194 2.291 . S
O203 C205 1.312 . S
O204 Mg189 2.031 . S
O204 C205 1.208 . S
C205 O203 1.312 . S
C205 O204 1.208 . S
C206 O198 1.331 . S
C206 O201 1.244 . S
O207 Mg192 2.013 . S
O207 C196 1.191 . S
O208 C187 1.331 . S
O208 Mg194 2.081 . S
O209 Mg190 1.986 . S
O209 C196 1.307 . S
O210 C188 1.264 . S
O210 Mg194 2.023 1_455 S
O211 C187 1.244 . S
O211 Mg195 1.942 . S
O212 C188 1.273 . S
O212 Mg195 1.955 1_455 S
O213 C186 1.312 . S
O213 Mg189 2.291 . S
O213 Mg192 2.114 . S
O214 C186 1.208 . S
O214 Mg194 2.031 . S
C215 O200 1.264 . S
C215 O202 1.273 . S
C216 O197 1.191 . S
C216 O199 1.307 . S
C217 O244 1.312 . S
C217 O245 1.208 . S
C218 O239 1.331 . S
C218 O242 1.244 . S
C219 O241 1.264 . S
C219 O243 1.273 . S
Mg220 O222 1.936 . S
Mg220 O229 2.081 . S
Mg220 O231 2.023 . S
Mg220 O235 2.031 . S
Mg220 O244 2.291 . S
Mg221 O222 1.963 . S
Mg221 O232 1.942 . S
Mg221 O233 1.955 . S
Mg221 O240 1.986 . S
O222 Mg220 1.936 . S
O222 Mg221 1.963 . S
O222 Mg223 1.915 . S
Mg223 O222 1.915 . S
Mg223 O224 1.915 . S
Mg223 O228 2.013 . S
Mg223 O234 2.114 . S
Mg223 O238 2.013 . S
Mg223 O244 2.114 . S
O224 Mg223 1.915 . S
O224 Mg225 1.936 . S
O224 Mg226 1.963 . S
Mg225 O224 1.936 . S
Mg225 O234 2.291 . S
Mg225 O239 2.081 . S
Mg225 O241 2.023 . S
Mg225 O245 2.031 . S
Mg226 O224 1.963 . S
Mg226 O230 1.986 . S
Mg226 O242 1.942 . S
Mg226 O243 1.955 . S
C227 O238 1.191 . S
C227 O240 1.307 . S
O228 Mg223 2.013 . S
O228 C247 1.191 . S
O229 Mg220 2.081 . S
O229 C237 1.331 . S
O230 Mg226 1.986 . S
O230 C247 1.307 . S
O231 Mg220 2.023 . S
O231 C246 1.264 . S
O232 Mg221 1.942 . S
O232 C237 1.244 . S
O233 Mg221 1.955 . S
O233 C246 1.273 . S
O234 Mg223 2.114 . S
O234 Mg225 2.291 . S
O234 C236 1.312 . S
O235 Mg220 2.031 . S
O235 C236 1.208 . S
C236 O234 1.312 . S
C236 O235 1.208 . S
C237 O229 1.331 . S
C237 O232 1.244 . S
O238 Mg223 2.013 . S
O238 C227 1.191 . S
O239 C218 1.331 . S
O239 Mg225 2.081 . S
O240 Mg221 1.986 . S
O240 C227 1.307 . S
O241 C219 1.264 . S
O241 Mg225 2.023 . S
O242 C218 1.244 . S
O242 Mg226 1.942 . S
O243 C219 1.273 . S
O243 Mg226 1.955 . S
O244 C217 1.312 . S
O244 Mg220 2.291 . S
O244 Mg223 2.114 . S
O245 C217 1.208 . S
O245 Mg225 2.031 . S
C246 O231 1.264 . S
C246 O233 1.273 . S
C247 O228 1.191 . S
C247 O230 1.307 . S
C248 O275 1.312 . S
C248 O276 1.208 . S
C249 O270 1.331 . S
C249 O273 1.244 . S
C250 O272 1.264 . S
C250 O274 1.273 . S
Mg251 O253 1.936 1_556 S
Mg251 O260 2.081 . S
Mg251 O262 2.023 1_556 S
Mg251 O266 2.031 . S
Mg251 O275 2.291 1_556 S
Mg252 O253 1.963 . S
Mg252 O263 1.942 1_554 S
Mg252 O264 1.955 . S
Mg252 O271 1.986 . S
O253 Mg251 1.936 1_554 S
O253 Mg252 1.963 . S
O253 Mg254 1.915 . S
Mg254 O253 1.915 . S
Mg254 O255 1.915 . S
Mg254 O259 2.013 . S
Mg254 O265 2.114 . S
Mg254 O269 2.013 . S
Mg254 O275 2.114 . S
O255 Mg254 1.915 . S
O255 Mg256 1.936 . S
O255 Mg257 1.963 . S
Mg256 O255 1.936 . S
Mg256 O265 2.291 . S
Mg256 O270 2.081 . S
Mg256 O272 2.023 . S
Mg256 O276 2.031 . S
Mg257 O255 1.963 . S
Mg257 O261 1.986 . S
Mg257 O273 1.942 . S
Mg257 O274 1.955 . S
C258 O269 1.191 . S
C258 O271 1.307 . S
O259 Mg254 2.013 . S
O259 C278 1.191 . S
O260 Mg251 2.081 . S
O260 C268 1.331 . S
O261 Mg257 1.986 . S
O261 C278 1.307 . S
O262 Mg251 2.023 1_554 S
O262 C277 1.264 . S
O263 Mg252 1.942 1_556 S
O263 C268 1.244 . S
O264 Mg252 1.955 . S
O264 C277 1.273 . S
O265 Mg254 2.114 . S
O265 Mg256 2.291 . S
O265 C267 1.312 . S
O266 Mg251 2.031 . S
O266 C267 1.208 1_556 S
C267 O265 1.312 . S
C267 O266 1.208 1_554 S
C268 O260 1.331 . S
C268 O263 1.244 . S
O269 Mg254 2.013 . S
O269 C258 1.191 . S
O270 C249 1.331 . S
O270 Mg256 2.081 . S
O271 Mg252 1.986 . S
O271 C258 1.307 . S
O272 C250 1.264 . S
O272 Mg256 2.023 . S
O273 C249 1.244 . S
O273 Mg257 1.942 . S
O274 C250 1.273 . S
O274 Mg257 1.955 . S
O275 C248 1.312 . S
O275 Mg251 2.291 1_554 S
O275 Mg254 2.114 . S
O276 C248 1.208 . S
O276 Mg256 2.031 . S
C277 O262 1.264 . S
C277 O264 1.273 . S
C278 O259 1.191 . S
C278 O261 1.307 . S
C279 O306 1.312 . S
C279 O307 1.208 . S
C280 O301 1.331 . S
C280 O304 1.244 . S
C281 O303 1.264 . S
C281 O305 1.273 . S
Mg282 O284 1.936 1_554 S
Mg282 O291 2.081 . S
Mg282 O293 2.023 1_544 S
Mg282 O297 2.031 . S
Mg282 O306 2.291 1_554 S
Mg283 O284 1.963 . S
Mg283 O294 1.942 1_556 S
Mg283 O295 1.955 1_545 S
Mg283 O302 1.986 . S
O284 Mg282 1.936 1_556 S
O284 Mg283 1.963 . S
O284 Mg285 1.915 . S
Mg285 O284 1.915 . S
Mg285 O286 1.915 . S
Mg285 O290 2.013 . S
Mg285 O296 2.114 . S
Mg285 O300 2.013 . S
Mg285 O306 2.114 . S
O286 Mg285 1.915 . S
O286 Mg287 1.936 . S
O286 Mg288 1.963 . S
Mg287 O286 1.936 . S
Mg287 O296 2.291 . S
Mg287 O301 2.081 . S
Mg287 O303 2.023 . S
Mg287 O307 2.031 . S
Mg288 O286 1.963 . S
Mg288 O292 1.986 . S
Mg288 O304 1.942 . S
Mg288 O305 1.955 . S
C289 O300 1.191 . S
C289 O302 1.307 . S
O290 Mg285 2.013 . S
O290 C309 1.191 . S
O291 Mg282 2.081 . S
O291 C299 1.331 . S
O292 Mg288 1.986 . S
O292 C309 1.307 . S
O293 Mg282 2.023 1_566 S
O293 C308 1.264 . S
O294 Mg283 1.942 1_554 S
O294 C299 1.244 . S
O295 Mg283 1.955 1_565 S
O295 C308 1.273 . S
O296 Mg285 2.114 . S
O296 Mg287 2.291 . S
O296 C298 1.312 . S
O297 Mg282 2.031 . S
O297 C298 1.208 1_554 S
C298 O296 1.312 . S
C298 O297 1.208 1_556 S
C299 O291 1.331 . S
C299 O294 1.244 . S
O300 Mg285 2.013 . S
O300 C289 1.191 . S
O301 C280 1.331 . S
O301 Mg287 2.081 . S
O302 Mg283 1.986 . S
O302 C289 1.307 . S
O303 C281 1.264 . S
O303 Mg287 2.023 . S
O304 C280 1.244 . S
O304 Mg288 1.942 . S
O305 C281 1.273 . S
O305 Mg288 1.955 . S
O306 C279 1.312 . S
O306 Mg282 2.291 1_556 S
O306 Mg285 2.114 . S
O307 C279 1.208 . S
O307 Mg287 2.031 . S
C308 O293 1.264 . S
C308 O295 1.273 . S
C309 O290 1.191 . S
C309 O292 1.307 . S
C310 O337 1.312 . S
C310 O338 1.208 . S
C311 O332 1.331 . S
C311 O335 1.244 . S
C312 O334 1.264 . S
C312 O336 1.273 . S
Mg313 O315 1.936 . S
Mg313 O322 2.081 . S
Mg313 O324 2.023 . S
Mg313 O328 2.031 . S
Mg313 O337 2.291 . S
Mg314 O315 1.963 . S
Mg314 O325 1.942 . S
Mg314 O326 1.955 . S
Mg314 O333 1.986 . S
O315 Mg313 1.936 . S
O315 Mg314 1.963 . S
O315 Mg316 1.915 . S
Mg316 O315 1.915 . S
Mg316 O317 1.915 . S
Mg316 O321 2.013 . S
Mg316 O327 2.114 . S
Mg316 O331 2.013 . S
Mg316 O337 2.114 . S
O317 Mg316 1.915 . S
O317 Mg318 1.936 . S
O317 Mg319 1.963 . S
Mg318 O317 1.936 . S
Mg318 O327 2.291 . S
Mg318 O332 2.081 . S
Mg318 O334 2.023 1_565 S
Mg318 O338 2.031 . S
Mg319 O317 1.963 . S
Mg319 O323 1.986 . S
Mg319 O335 1.942 . S
Mg319 O336 1.955 1_565 S
C320 O331 1.191 . S
C320 O333 1.307 . S
O321 Mg316 2.013 . S
O321 C340 1.191 . S
O322 Mg313 2.081 . S
O322 C330 1.331 . S
O323 Mg319 1.986 . S
O323 C340 1.307 . S
O324 Mg313 2.023 . S
O324 C339 1.264 . S
O325 Mg314 1.942 . S
O325 C330 1.244 . S
O326 Mg314 1.955 . S
O326 C339 1.273 . S
O327 Mg316 2.114 . S
O327 Mg318 2.291 . S
O327 C329 1.312 . S
O328 Mg313 2.031 . S
O328 C329 1.208 . S
C329 O327 1.312 . S
C329 O328 1.208 . S
C330 O322 1.331 . S
C330 O325 1.244 . S
O331 Mg316 2.013 . S
O331 C320 1.191 . S
O332 C311 1.331 . S
O332 Mg318 2.081 . S
O333 Mg314 1.986 . S
O333 C320 1.307 . S
O334 C312 1.264 . S
O334 Mg318 2.023 1_545 S
O335 C311 1.244 . S
O335 Mg319 1.942 . S
O336 C312 1.273 . S
O336 Mg319 1.955 1_545 S
O337 C310 1.312 . S
O337 Mg313 2.291 . S
O337 Mg316 2.114 . S
O338 C310 1.208 . S
O338 Mg318 2.031 . S
C339 O324 1.264 . S
C339 O326 1.273 . S
C340 O321 1.191 . S
C340 O323 1.307 . S
C341 O368 1.312 . S
C341 O369 1.208 . S
C342 O363 1.331 . S
C342 O366 1.244 . S
C343 O365 1.264 . S
C343 O367 1.273 . S
Mg344 O346 1.936 . S
Mg344 O353 2.081 . S
Mg344 O355 2.023 . S
Mg344 O359 2.031 . S
Mg344 O368 2.291 . S
Mg345 O346 1.963 . S
Mg345 O356 1.942 . S
Mg345 O357 1.955 . S
Mg345 O364 1.986 . S
O346 Mg344 1.936 . S
O346 Mg345 1.963 . S
O346 Mg347 1.915 . S
Mg347 O346 1.915 . S
Mg347 O348 1.915 . S
Mg347 O352 2.013 . S
Mg347 O358 2.114 . S
Mg347 O362 2.013 . S
Mg347 O368 2.114 . S
O348 Mg347 1.915 . S
O348 Mg349 1.936 . S
O348 Mg350 1.963 . S
Mg349 O348 1.936 . S
Mg349 O358 2.291 . S
Mg349 O363 2.081 . S
Mg349 O365 2.023 . S
Mg349 O369 2.031 . S
Mg350 O348 1.963 . S
Mg350 O354 1.986 . S
Mg350 O366 1.942 . S
Mg350 O367 1.955 . S
C351 O362 1.191 . S
C351 O364 1.307 . S
O352 Mg347 2.013 . S
O352 C371 1.191 . S
O353 Mg344 2.081 . S
O353 C361 1.331 . S
O354 Mg350 1.986 . S
O354 C371 1.307 . S
O355 Mg344 2.023 . S
O355 C370 1.264 . S
O356 Mg345 1.942 . S
O356 C361 1.244 . S
O357 Mg345 1.955 . S
O357 C370 1.273 . S
O358 Mg347 2.114 . S
O358 Mg349 2.291 . S
O358 C360 1.312 . S
O359 Mg344 2.031 . S
O359 C360 1.208 . S
C360 O358 1.312 . S
C360 O359 1.208 . S
C361 O353 1.331 . S
C361 O356 1.244 . S
O362 Mg347 2.013 . S
O362 C351 1.191 . S
O363 C342 1.331 . S
O363 Mg349 2.081 . S
O364 Mg345 1.986 . S
O364 C351 1.307 . S
O365 C343 1.264 . S
O365 Mg349 2.023 . S
O366 C342 1.244 . S
O366 Mg350 1.942 . S
O367 C343 1.273 . S
O367 Mg350 1.955 . S
O368 C341 1.312 . S
O368 Mg344 2.291 . S
O368 Mg347 2.114 . S
O369 C341 1.208 . S
O369 Mg349 2.031 . S
C370 O355 1.264 . S
C370 O357 1.273 . S
C371 O352 1.191 . S
C371 O354 1.307 . S
C372 O399 1.312 . S
C372 O400 1.208 . S
C373 O394 1.331 . S
C373 O397 1.244 . S
C374 O396 1.264 . S
C374 O398 1.273 . S
Mg375 O377 1.936 . S
Mg375 O384 2.081 . S
Mg375 O386 2.023 . S
Mg375 O390 2.031 . S
Mg375 O399 2.291 . S
Mg376 O377 1.963 . S
Mg376 O387 1.942 . S
Mg376 O388 1.955 . S
Mg376 O395 1.986 . S
O377 Mg375 1.936 . S
O377 Mg376 1.963 . S
O377 Mg378 1.915 . S
Mg378 O377 1.915 . S
Mg378 O379 1.915 . S
Mg378 O383 2.013 . S
Mg378 O389 2.114 . S
Mg378 O393 2.013 . S
Mg378 O399 2.114 . S
O379 Mg378 1.915 . S
O379 Mg380 1.936 1_655 S
O379 Mg381 1.963 . S
Mg380 O379 1.936 1_455 S
Mg380 O389 2.291 1_455 S
Mg380 O394 2.081 . S
Mg380 O396 2.023 1_455 S
Mg380 O400 2.031 1_455 S
Mg381 O379 1.963 . S
Mg381 O385 1.986 . S
Mg381 O397 1.942 1_655 S
Mg381 O398 1.955 . S
C382 O393 1.191 . S
C382 O395 1.307 . S
O383 Mg378 2.013 . S
O383 C402 1.191 . S
O384 Mg375 2.081 . S
O384 C392 1.331 . S
O385 Mg381 1.986 . S
O385 C402 1.307 . S
O386 Mg375 2.023 . S
O386 C401 1.264 . S
O387 Mg376 1.942 . S
O387 C392 1.244 . S
O388 Mg376 1.955 . S
O388 C401 1.273 . S
O389 Mg378 2.114 . S
O389 Mg380 2.291 1_655 S
O389 C391 1.312 . S
O390 Mg375 2.031 . S
O390 C391 1.208 . S
C391 O389 1.312 . S
C391 O390 1.208 . S
C392 O384 1.331 . S
C392 O387 1.244 . S
O393 Mg378 2.013 . S
O393 C382 1.191 . S
O394 C373 1.331 . S
O394 Mg380 2.081 . S
O395 Mg376 1.986 . S
O395 C382 1.307 . S
O396 C374 1.264 . S
O396 Mg380 2.023 1_655 S
O397 C373 1.244 . S
O397 Mg381 1.942 1_455 S
O398 C374 1.273 . S
O398 Mg381 1.955 . S
O399 C372 1.312 . S
O399 Mg375 2.291 . S
O399 Mg378 2.114 . S
O400 C372 1.208 . S
O400 Mg380 2.031 1_655 S
C401 O386 1.264 . S
C401 O388 1.273 . S
C402 O383 1.191 . S
C402 O385 1.307 . S
C403 O430 1.312 . S
C403 O431 1.208 . S
C404 O425 1.331 . S
C404 O428 1.244 . S
C405 O427 1.264 . S
C405 O429 1.273 . S
Mg406 O408 1.936 . S
Mg406 O415 2.081 . S
Mg406 O417 2.023 . S
Mg406 O421 2.031 . S
Mg406 O430 2.291 . S
Mg407 O408 1.963 . S
Mg407 O418 1.942 . S
Mg407 O419 1.955 . S
Mg407 O426 1.986 . S
O408 Mg406 1.936 . S
O408 Mg407 1.963 . S
O408 Mg409 1.915 . S
Mg409 O408 1.915 . S
Mg409 O410 1.915 . S
Mg409 O414 2.013 . S
Mg409 O420 2.114 . S
Mg409 O424 2.013 . S
Mg409 O430 2.114 . S
O410 Mg409 1.915 . S
O410 Mg411 1.936 . S
O410 Mg412 1.963 . S
Mg411 O410 1.936 . S
Mg411 O420 2.291 . S
Mg411 O425 2.081 . S
Mg411 O427 2.023 1_554 S
Mg411 O431 2.031 . S
Mg412 O410 1.963 . S
Mg412 O416 1.986 . S
Mg412 O428 1.942 . S
Mg412 O429 1.955 1_554 S
C413 O424 1.191 . S
C413 O426 1.307 . S
O414 Mg409 2.013 . S
O414 C433 1.191 . S
O415 Mg406 2.081 . S
O415 C423 1.331 . S
O416 Mg412 1.986 . S
O416 C433 1.307 . S
O417 Mg406 2.023 . S
O417 C432 1.264 . S
O418 Mg407 1.942 . S
O418 C423 1.244 . S
O419 Mg407 1.955 . S
O419 C432 1.273 . S
O420 Mg409 2.114 . S
O420 Mg411 2.291 . S
O420 C422 1.312 . S
O421 Mg406 2.031 . S
O421 C422 1.208 . S
C422 O420 1.312 . S
C422 O421 1.208 . S
C423 O415 1.331 . S
C423 O418 1.244 . S
O424 Mg409 2.013 . S
O424 C413 1.191 . S
O425 C404 1.331 . S
O425 Mg411 2.081 . S
O426 Mg407 1.986 . S
O426 C413 1.307 . S
O427 C405 1.264 . S
O427 Mg411 2.023 1_556 S
O428 C404 1.244 . S
O428 Mg412 1.942 . S
O429 C405 1.273 . S
O429 Mg412 1.955 1_556 S
O430 C403 1.312 . S
O430 Mg406 2.291 . S
O430 Mg409 2.114 . S
O431 C403 1.208 . S
O431 Mg411 2.031 . S
C432 O417 1.264 . S
C432 O419 1.273 . S
C433 O414 1.191 . S
C433 O416 1.307 . S
C434 O461 1.312 . S
C434 O462 1.208 . S
C435 O456 1.331 . S
C435 O459 1.244 . S
C436 O458 1.264 . S
C436 O460 1.273 . S
Mg437 O439 1.936 . S
Mg437 O446 2.081 . S
Mg437 O448 2.023 . S
Mg437 O452 2.031 . S
Mg437 O461 2.291 . S
Mg438 O439 1.963 . S
Mg438 O449 1.942 . S
Mg438 O450 1.955 . S
Mg438 O457 1.986 . S
O439 Mg437 1.936 . S
O439 Mg438 1.963 . S
O439 Mg440 1.915 . S
Mg440 O439 1.915 . S
Mg440 O441 1.915 . S
Mg440 O445 2.013 . S
Mg440 O451 2.114 . S
Mg440 O455 2.013 . S
Mg440 O461 2.114 . S
O441 Mg440 1.915 . S
O441 Mg442 1.936 . S
O441 Mg443 1.963 . S
Mg442 O441 1.936 . S
Mg442 O451 2.291 . S
Mg442 O456 2.081 . S
Mg442 O458 2.023 . S
Mg442 O462 2.031 . S
Mg443 O441 1.963 . S
Mg443 O447 1.986 . S
Mg443 O459 1.942 . S
Mg443 O460 1.955 . S
C444 O455 1.191 . S
C444 O457 1.307 . S
O445 Mg440 2.013 . S
O445 C464 1.191 . S
O446 Mg437 2.081 . S
O446 C454 1.331 . S
O447 Mg443 1.986 . S
O447 C464 1.307 . S
O448 Mg437 2.023 . S
O448 C463 1.264 . S
O449 Mg438 1.942 . S
O449 C454 1.244 . S
O450 Mg438 1.955 . S
O450 C463 1.273 . S
O451 Mg440 2.114 . S
O451 Mg442 2.291 . S
O451 C453 1.312 . S
O452 Mg437 2.031 . S
O452 C453 1.208 . S
C453 O451 1.312 . S
C453 O452 1.208 . S
C454 O446 1.331 . S
C454 O449 1.244 . S
O455 Mg440 2.013 . S
O455 C444 1.191 . S
O456 C435 1.331 . S
O456 Mg442 2.081 . S
O457 Mg438 1.986 . S
O457 C444 1.307 . S
O458 C436 1.264 . S
O458 Mg442 2.023 . S
O459 C435 1.244 . S
O459 Mg443 1.942 . S
O460 C436 1.273 . S
O460 Mg443 1.955 . S
O461 C434 1.312 . S
O461 Mg437 2.291 . S
O461 Mg440 2.114 . S
O462 C434 1.208 . S
O462 Mg442 2.031 . S
C463 O448 1.264 . S
C463 O450 1.273 . S
C464 O445 1.191 . S
C464 O447 1.307 . S
C465 O492 1.312 . S
C465 O493 1.208 . S
C466 O487 1.331 . S
C466 O490 1.244 . S
C467 O489 1.264 . S
C467 O491 1.273 . S
Mg468 O470 1.936 1_655 S
Mg468 O477 2.081 . S
Mg468 O479 2.024 1_556 S
Mg468 O483 2.031 . S
Mg468 O492 2.291 1_655 S
Mg469 O470 1.963 . S
Mg469 O480 1.942 1_455 S
Mg469 O481 1.955 1_556 S
Mg469 O488 1.986 . S
O470 Mg468 1.936 1_455 S
O470 Mg469 1.963 . S
O470 Mg471 1.915 . S
Mg471 O470 1.915 . S
Mg471 O472 1.915 . S
Mg471 O476 2.013 . S
Mg471 O482 2.114 . S
Mg471 O486 2.013 . S
Mg471 O492 2.114 . S
O472 Mg471 1.915 . S
O472 Mg473 1.936 . S
O472 Mg474 1.963 . S
Mg473 O472 1.936 . S
Mg473 O482 2.291 . S
Mg473 O487 2.081 . S
Mg473 O489 2.023 . S
Mg473 O493 2.031 . S
Mg474 O472 1.963 . S
Mg474 O478 1.986 . S
Mg474 O490 1.942 . S
Mg474 O491 1.955 . S
C475 O486 1.191 . S
C475 O488 1.307 . S
O476 Mg471 2.013 . S
O476 C495 1.191 . S
O477 Mg468 2.081 . S
O477 C485 1.331 . S
O478 Mg474 1.986 . S
O478 C495 1.307 . S
O479 Mg468 2.024 1_554 S
O479 C494 1.261 1_655 S
O480 Mg469 1.942 1_655 S
O480 C485 1.244 . S
O481 Mg469 1.955 1_554 S
O481 C494 1.273 . S
O482 Mg471 2.114 . S
O482 Mg473 2.291 . S
O482 C484 1.312 . S
O483 Mg468 2.031 . S
O483 C484 1.208 1_655 S
C484 O482 1.312 . S
C484 O483 1.208 1_455 S
C485 O477 1.331 . S
C485 O480 1.244 . S
O486 Mg471 2.013 . S
O486 C475 1.191 . S
O487 C466 1.331 . S
O487 Mg473 2.081 . S
O488 Mg469 1.986 . S
O488 C475 1.307 . S
O489 C467 1.264 . S
O489 Mg473 2.023 . S
O490 C466 1.244 . S
O490 Mg474 1.942 . S
O491 C467 1.273 . S
O491 Mg474 1.955 . S
O492 C465 1.312 . S
O492 Mg468 2.291 1_455 S
O492 Mg471 2.114 . S
O493 C465 1.208 . S
O493 Mg473 2.031 . S
C494 O479 1.261 1_455 S
C494 O481 1.273 . S
C495 O476 1.191 . S
C495 O478 1.307 . S
C496 O523 1.312 . S
C496 O524 1.208 1_565 S
C497 O518 1.331 . S
C497 O521 1.244 . S
C498 O520 1.264 1_565 S
C498 O522 1.273 . S
Mg499 O501 1.936 . S
Mg499 O508 2.081 . S
Mg499 O510 2.023 . S
Mg499 O514 2.031 . S
Mg499 O523 2.291 . S
Mg500 O501 1.963 . S
Mg500 O511 1.942 . S
Mg500 O512 1.955 . S
Mg500 O519 1.986 . S
O501 Mg499 1.936 . S
O501 Mg500 1.963 . S
O501 Mg502 1.915 . S
Mg502 O501 1.915 . S
Mg502 O503 1.915 . S
Mg502 O507 2.013 . S
Mg502 O513 2.114 . S
Mg502 O517 2.013 . S
Mg502 O523 2.114 . S
O503 Mg502 1.915 . S
O503 Mg504 1.936 1_565 S
O503 Mg505 1.963 . S
Mg504 O503 1.936 1_545 S
Mg504 O513 2.291 1_545 S
Mg504 O518 2.081 . S
Mg504 O520 2.023 . S
Mg504 O524 2.031 . S
Mg505 O503 1.963 . S
Mg505 O509 1.986 . S
Mg505 O521 1.942 1_565 S
Mg505 O522 1.955 . S
C506 O517 1.191 . S
C506 O519 1.307 . S
O507 Mg502 2.013 . S
O507 C526 1.191 . S
O508 Mg499 2.081 . S
O508 C516 1.331 . S
O509 Mg505 1.986 . S
O509 C526 1.307 . S
O510 Mg499 2.023 . S
O510 C525 1.264 . S
O511 Mg500 1.942 . S
O511 C516 1.244 . S
O512 Mg500 1.955 . S
O512 C525 1.273 . S
O513 Mg502 2.114 . S
O513 Mg504 2.291 1_565 S
O513 C515 1.312 . S
O514 Mg499 2.031 . S
O514 C515 1.208 . S
C515 O513 1.312 . S
C515 O514 1.208 . S
C516 O508 1.331 . S
C516 O511 1.244 . S
O517 Mg502 2.013 . S
O517 C506 1.191 . S
O518 C497 1.331 . S
O518 Mg504 2.081 . S
O519 Mg500 1.986 . S
O519 C506 1.307 . S
O520 C498 1.264 1_545 S
O520 Mg504 2.023 . S
O521 C497 1.244 . S
O521 Mg505 1.942 1_545 S
O522 C498 1.273 . S
O522 Mg505 1.955 . S
O523 C496 1.312 . S
O523 Mg499 2.291 . S
O523 Mg502 2.114 . S
O524 C496 1.208 1_545 S
O524 Mg504 2.031 . S
C525 O510 1.264 . S
C525 O512 1.273 . S
C526 O507 1.191 . S
C526 O509 1.307 . S
C527 O554 1.312 . S
C527 O555 1.219 . S
C528 O549 1.331 . S
C528 O552 1.244 . S
C529 O551 1.264 . S
C529 O553 1.273 . S
Mg530 O532 1.936 . S
Mg530 O539 2.081 . S
Mg530 O541 2.023 . S
Mg530 O545 2.031 . S
Mg530 O554 2.291 . S
Mg531 O532 1.963 . S
Mg531 O542 1.942 . S
Mg531 O543 1.955 . S
Mg531 O550 1.986 . S
O532 Mg530 1.936 . S
O532 Mg531 1.963 . S
O532 Mg533 1.915 . S
Mg533 O532 1.915 . S
Mg533 O534 1.915 . S
Mg533 O538 2.013 . S
Mg533 O544 2.114 . S
Mg533 O548 2.013 . S
Mg533 O554 2.114 . S
O534 Mg533 1.915 . S
O534 Mg535 1.936 1_545 S
O534 Mg536 1.963 . S
Mg535 O534 1.936 1_565 S
Mg535 O544 2.291 1_565 S
Mg535 O549 2.081 . S
Mg535 O551 2.023 1_665 S
Mg535 O555 2.030 1_565 S
Mg536 O534 1.963 . S
Mg536 O540 1.986 . S
Mg536 O552 1.942 1_545 S
Mg536 O553 1.955 1_655 S
C537 O548 1.191 . S
C537 O550 1.307 . S
O538 Mg533 2.013 . S
O538 C557 1.191 . S
O539 Mg530 2.081 . S
O539 C547 1.331 . S
O540 Mg536 1.986 . S
O540 C557 1.307 . S
O541 Mg530 2.023 . S
O541 C556 1.264 . S
O542 Mg531 1.942 . S
O542 C547 1.244 . S
O543 Mg531 1.955 . S
O543 C556 1.273 . S
O544 Mg533 2.114 . S
O544 Mg535 2.291 1_545 S
O544 C546 1.312 . S
O545 Mg530 2.031 . S
O545 C546 1.208 . S
C546 O544 1.312 . S
C546 O545 1.208 . S
C547 O539 1.331 . S
C547 O542 1.244 . S
O548 Mg533 2.013 . S
O548 C537 1.191 . S
O549 C528 1.331 . S
O549 Mg535 2.081 . S
O550 Mg531 1.986 . S
O550 C537 1.307 . S
O551 C529 1.264 . S
O551 Mg535 2.023 1_445 S
O552 C528 1.244 . S
O552 Mg536 1.942 1_565 S
O553 C529 1.273 . S
O553 Mg536 1.955 1_455 S
O554 C527 1.312 . S
O554 Mg530 2.291 . S
O554 Mg533 2.114 . S
O555 C527 1.219 . S
O555 Mg535 2.030 1_545 S
C556 O541 1.264 . S
C556 O543 1.273 . S
C557 O538 1.191 . S
C557 O540 1.307 . S
C558 O585 1.312 . S
C558 O586 1.208 . S
C559 O580 1.331 . S
C559 O583 1.244 . S
C560 O582 1.264 . S
C560 O584 1.273 . S
Mg561 O563 1.936 . S
Mg561 O570 2.081 . S
Mg561 O572 2.023 1_455 S
Mg561 O576 2.031 . S
Mg561 O585 2.291 . S
Mg562 O563 1.963 . S
Mg562 O573 1.942 . S
Mg562 O574 1.955 1_455 S
Mg562 O581 1.986 . S
O563 Mg561 1.936 . S
O563 Mg562 1.963 . S
O563 Mg564 1.915 . S
Mg564 O563 1.915 . S
Mg564 O565 1.915 . S
Mg564 O569 2.013 . S
Mg564 O575 2.114 . S
Mg564 O579 2.013 . S
Mg564 O585 2.114 . S
O565 Mg564 1.915 . S
O565 Mg566 1.936 . S
O565 Mg567 1.963 . S
Mg566 O565 1.936 . S
Mg566 O575 2.291 . S
Mg566 O580 2.081 . S
Mg566 O582 2.023 . S
Mg566 O586 2.031 . S
Mg567 O565 1.963 . S
Mg567 O571 1.986 . S
Mg567 O583 1.942 . S
Mg567 O584 1.955 . S
C568 O579 1.191 . S
C568 O581 1.307 . S
O569 Mg564 2.013 . S
O569 C588 1.191 . S
O570 Mg561 2.081 . S
O570 C578 1.331 . S
O571 Mg567 1.986 . S
O571 C588 1.307 . S
O572 Mg561 2.023 1_655 S
O572 C587 1.264 . S
O573 Mg562 1.942 . S
O573 C578 1.244 . S
O574 Mg562 1.955 1_655 S
O574 C587 1.273 . S
O575 Mg564 2.114 . S
O575 Mg566 2.291 . S
O575 C577 1.312 . S
O576 Mg561 2.031 . S
O576 C577 1.208 . S
C577 O575 1.312 . S
C577 O576 1.208 . S
C578 O570 1.331 . S
C578 O573 1.244 . S
O579 Mg564 2.013 . S
O579 C568 1.191 . S
O580 C559 1.331 . S
O580 Mg566 2.081 . S
O581 Mg562 1.986 . S
O581 C568 1.307 . S
O582 C560 1.264 . S
O582 Mg566 2.023 . S
O583 C559 1.244 . S
O583 Mg567 1.942 . S
O584 C560 1.273 . S
O584 Mg567 1.955 . S
O585 C558 1.312 . S
O585 Mg561 2.291 . S
O585 Mg564 2.114 . S
O586 C558 1.208 . S
O586 Mg566 2.031 . S
C587 O572 1.264 . S
C587 O574 1.273 . S
C588 O569 1.191 . S
C588 O571 1.307 . S
C589 O616 1.312 . S
C589 O617 1.208 . S
C590 O611 1.331 . S
C590 O614 1.244 . S
C591 O613 1.264 . S
C591 O615 1.273 . S
Mg592 O594 1.936 . S
Mg592 O601 2.081 . S
Mg592 O603 2.023 . S
Mg592 O607 2.031 . S
Mg592 O616 2.291 . S
Mg593 O594 1.963 . S
Mg593 O604 1.942 . S
Mg593 O605 1.955 . S
Mg593 O612 1.986 . S
O594 Mg592 1.936 . S
O594 Mg593 1.963 . S
O594 Mg595 1.915 . S
Mg595 O594 1.915 . S
Mg595 O596 1.915 . S
Mg595 O600 2.013 . S
Mg595 O606 2.114 . S
Mg595 O610 2.013 . S
Mg595 O616 2.114 . S
O596 Mg595 1.915 . S
O596 Mg597 1.936 . S
O596 Mg598 1.963 . S
Mg597 O596 1.936 . S
Mg597 O606 2.291 . S
Mg597 O611 2.081 . S
Mg597 O613 2.023 . S
Mg597 O617 2.031 . S
Mg598 O596 1.963 . S
Mg598 O602 1.986 . S
Mg598 O614 1.942 . S
Mg598 O615 1.955 . S
C599 O610 1.191 . S
C599 O612 1.307 . S
O600 Mg595 2.013 . S
O600 C619 1.191 . S
O601 Mg592 2.081 . S
O601 C609 1.331 . S
O602 Mg598 1.986 . S
O602 C619 1.307 . S
O603 Mg592 2.023 . S
O603 C618 1.264 . S
O604 Mg593 1.942 . S
O604 C609 1.244 . S
O605 Mg593 1.955 . S
O605 C618 1.273 . S
O606 Mg595 2.114 . S
O606 Mg597 2.291 . S
O606 C608 1.312 . S
O607 Mg592 2.031 . S
O607 C608 1.208 . S
C608 O606 1.312 . S
C608 O607 1.208 . S
C609 O601 1.331 . S
C609 O604 1.244 . S
O610 Mg595 2.013 . S
O610 C599 1.191 . S
O611 C590 1.331 . S
O611 Mg597 2.081 . S
O612 Mg593 1.986 . S
O612 C599 1.307 . S
O613 C591 1.264 . S
O613 Mg597 2.023 . S
O614 C590 1.244 . S
O614 Mg598 1.942 . S
O615 C591 1.273 . S
O615 Mg598 1.955 . S
O616 C589 1.312 . S
O616 Mg592 2.291 . S
O616 Mg595 2.114 . S
O617 C589 1.208 . S
O617 Mg597 2.031 . S
C618 O603 1.264 . S
C618 O605 1.273 . S
C619 O600 1.191 . S
C619 O602 1.307 . S
C620 O647 1.312 . S
C620 O648 1.208 . S
C621 O642 1.331 . S
C621 O645 1.244 . S
C622 O644 1.264 . S
C622 O646 1.273 . S
Mg623 O625 1.936 . S
Mg623 O632 2.081 . S
Mg623 O634 2.023 1_556 S
Mg623 O638 2.031 . S
Mg623 O647 2.291 . S
Mg624 O625 1.951 1_554 S
Mg624 O635 1.944 . S
Mg624 O636 1.970 . S
Mg624 O643 1.970 1_554 S
O625 Mg623 1.936 . S
O625 Mg624 1.951 1_556 S
O625 Mg626 1.915 . S
Mg626 O625 1.915 . S
Mg626 O627 1.915 . S
Mg626 O631 2.013 . S
Mg626 O637 2.114 . S
Mg626 O641 2.013 . S
Mg626 O647 2.114 . S
O627 Mg626 1.915 . S
O627 Mg628 1.936 . S
O627 Mg629 1.963 . S
Mg628 O627 1.936 . S
Mg628 O637 2.291 . S
Mg628 O642 2.081 . S
Mg628 O644 2.023 . S
Mg628 O648 2.031 . S
Mg629 O627 1.963 . S
Mg629 O633 1.986 . S
Mg629 O645 1.942 . S
Mg629 O646 1.955 . S
C630 O641 1.191 . S
C630 O643 1.307 . S
O631 Mg626 2.013 . S
O631 C650 1.191 . S
O632 Mg623 2.081 . S
O632 C640 1.331 . S
O633 Mg629 1.986 . S
O633 C650 1.307 . S
O634 Mg623 2.023 1_554 S
O634 C649 1.264 . S
O635 Mg624 1.944 . S
O635 C640 1.244 1_554 S
O636 Mg624 1.970 . S
O636 C649 1.273 . S
O637 Mg626 2.114 . S
O637 Mg628 2.291 . S
O637 C639 1.312 . S
O638 Mg623 2.031 . S
O638 C639 1.208 . S
C639 O637 1.312 . S
C639 O638 1.208 . S
C640 O632 1.331 . S
C640 O635 1.244 1_556 S
O641 Mg626 2.013 . S
O641 C630 1.191 . S
O642 C621 1.331 . S
O642 Mg628 2.081 . S
O643 Mg624 1.970 1_556 S
O643 C630 1.307 . S
O644 C622 1.264 . S
O644 Mg628 2.023 . S
O645 C621 1.244 . S
O645 Mg629 1.942 . S
O646 C622 1.273 . S
O646 Mg629 1.955 . S
O647 C620 1.312 . S
O647 Mg623 2.291 . S
O647 Mg626 2.114 . S
O648 C620 1.208 . S
O648 Mg628 2.031 . S
C649 O634 1.264 . S
C649 O636 1.273 . S
C650 O631 1.191 . S
C650 O633 1.307 . S
C651 O678 1.312 1_545 S
C651 O679 1.208 . S
C652 O673 1.331 . S
C652 O676 1.244 1_554 S
C653 O675 1.264 . S
C653 O677 1.273 . S
Mg654 O656 1.936 . S
Mg654 O663 2.081 . S
Mg654 O665 2.023 . S
Mg654 O669 2.031 . S
Mg654 O678 2.291 . S
Mg655 O656 1.963 . S
Mg655 O666 1.942 . S
Mg655 O667 1.955 . S
Mg655 O674 1.986 . S
O656 Mg654 1.936 . S
O656 Mg655 1.963 . S
O656 Mg657 1.915 . S
Mg657 O656 1.915 . S
Mg657 O658 1.915 . S
Mg657 O662 2.013 . S
Mg657 O668 2.114 . S
Mg657 O672 2.013 . S
Mg657 O678 2.114 . S
O658 Mg657 1.915 . S
O658 Mg659 1.936 . S
O658 Mg660 1.951 1_564 S
Mg659 O658 1.936 . S
Mg659 O668 2.291 . S
Mg659 O673 2.081 1_565 S
Mg659 O675 2.023 1_554 S
Mg659 O679 2.031 1_565 S
Mg660 O658 1.951 1_546 S
Mg660 O664 1.970 1_556 S
Mg660 O676 1.944 . S
Mg660 O677 1.970 1_545 S
C661 O672 1.191 . S
C661 O674 1.307 . S
O662 Mg657 2.013 . S
O662 C681 1.191 . S
O663 Mg654 2.081 . S
O663 C671 1.331 . S
O664 Mg660 1.970 1_554 S
O664 C681 1.307 1_545 S
O665 Mg654 2.023 . S
O665 C680 1.264 . S
O666 Mg655 1.942 . S
O666 C671 1.244 . S
O667 Mg655 1.955 . S
O667 C680 1.273 . S
O668 Mg657 2.114 . S
O668 Mg659 2.291 . S
O668 C670 1.312 . S
O669 Mg654 2.031 . S
O669 C670 1.208 . S
C670 O668 1.312 . S
C670 O669 1.208 . S
C671 O663 1.331 . S
C671 O666 1.244 . S
O672 Mg657 2.013 . S
O672 C661 1.191 . S
O673 C652 1.331 . S
O673 Mg659 2.081 1_545 S
O674 Mg655 1.986 . S
O674 C661 1.307 . S
O675 C653 1.264 . S
O675 Mg659 2.023 1_556 S
O676 C652 1.244 1_556 S
O676 Mg660 1.944 . S
O677 C653 1.273 . S
O677 Mg660 1.970 1_565 S
O678 C651 1.312 1_565 S
O678 Mg654 2.291 . S
O678 Mg657 2.114 . S
O679 C651 1.208 . S
O679 Mg659 2.031 1_545 S
C680 O665 1.264 . S
C680 O667 1.273 . S
C681 O662 1.191 . S
C681 O664 1.307 1_565 S
C682 O709 1.312 . S
C682 O710 1.208 . S
C683 O704 1.331 . S
C683 O707 1.244 . S
C684 O706 1.264 . S
C684 O708 1.273 . S
Mg685 O687 1.936 . S
Mg685 O694 2.081 . S
Mg685 O696 2.023 1_545 S
Mg685 O700 2.031 . S
Mg685 O709 2.291 . S
Mg686 O687 1.963 . S
Mg686 O697 1.942 . S
Mg686 O698 1.955 1_545 S
Mg686 O705 1.986 . S
O687 Mg685 1.936 . S
O687 Mg686 1.963 . S
O687 Mg688 1.915 . S
Mg688 O687 1.915 . S
Mg688 O689 1.915 . S
Mg688 O693 2.013 . S
Mg688 O699 2.114 . S
Mg688 O703 2.013 . S
Mg688 O709 2.114 . S
O689 Mg688 1.915 . S
O689 Mg690 1.936 . S
O689 Mg691 1.963 . S
Mg690 O689 1.936 . S
Mg690 O699 2.291 . S
Mg690 O704 2.081 . S
Mg690 O706 2.023 . S
Mg690 O710 2.031 . S
Mg691 O689 1.963 . S
Mg691 O695 1.986 . S
Mg691 O707 1.942 . S
Mg691 O708 1.955 . S
C692 O703 1.191 . S
C692 O705 1.307 . S
O693 Mg688 2.013 . S
O693 C712 1.191 . S
O694 Mg685 2.081 . S
O694 C702 1.331 . S
O695 Mg691 1.986 . S
O695 C712 1.307 . S
O696 Mg685 2.023 1_565 S
O696 C711 1.264 . S
O697 Mg686 1.942 . S
O697 C702 1.244 . S
O698 Mg686 1.955 1_565 S
O698 C711 1.273 . S
O699 Mg688 2.114 . S
O699 Mg690 2.291 . S
O699 C701 1.312 . S
O700 Mg685 2.031 . S
O700 C701 1.208 . S
C701 O699 1.312 . S
C701 O700 1.208 . S
C702 O694 1.331 . S
C702 O697 1.244 . S
O703 Mg688 2.013 . S
O703 C692 1.191 . S
O704 C683 1.331 . S
O704 Mg690 2.081 . S
O705 Mg686 1.986 . S
O705 C692 1.307 . S
O706 C684 1.264 . S
O706 Mg690 2.023 . S
O707 C683 1.244 . S
O707 Mg691 1.942 . S
O708 C684 1.273 . S
O708 Mg691 1.955 . S
O709 C682 1.312 . S
O709 Mg685 2.291 . S
O709 Mg688 2.114 . S
O710 C682 1.208 . S
O710 Mg690 2.031 . S
C711 O696 1.264 . S
C711 O698 1.273 . S
C712 O693 1.191 . S
C712 O695 1.307 . S
C713 O740 1.312 . S
C713 O741 1.208 . S
C714 O735 1.331 . S
C714 O738 1.244 . S
C715 O737 1.264 . S
C715 O739 1.273 . S
Mg716 O718 1.936 . S
Mg716 O725 2.081 . S
Mg716 O727 2.023 . S
Mg716 O731 2.031 . S
Mg716 O740 2.291 . S
Mg717 O718 1.963 . S
Mg717 O728 1.942 . S
Mg717 O729 1.955 . S
Mg717 O736 1.986 . S
O718 Mg716 1.936 . S
O718 Mg717 1.963 . S
O718 Mg719 1.915 . S
Mg719 O718 1.915 . S
Mg719 O720 1.915 . S
Mg719 O724 2.013 . S
Mg719 O730 2.114 . S
Mg719 O734 2.013 . S
Mg719 O740 2.114 . S
O720 Mg719 1.915 . S
O720 Mg721 1.936 . S
O720 Mg722 1.963 . S
Mg721 O720 1.936 . S
Mg721 O730 2.291 . S
Mg721 O735 2.081 . S
Mg721 O737 2.023 . S
Mg721 O741 2.031 . S
Mg722 O720 1.963 . S
Mg722 O726 1.986 . S
Mg722 O738 1.942 . S
Mg722 O739 1.955 . S
C723 O734 1.191 . S
C723 O736 1.307 . S
O724 Mg719 2.013 . S
O724 C743 1.191 . S
O725 Mg716 2.081 . S
O725 C733 1.331 . S
O726 Mg722 1.986 . S
O726 C743 1.307 . S
O727 Mg716 2.023 . S
O727 C742 1.264 . S
O728 Mg717 1.942 . S
O728 C733 1.244 . S
O729 Mg717 1.955 . S
O729 C742 1.273 . S
O730 Mg719 2.114 . S
O730 Mg721 2.291 . S
O730 C732 1.312 . S
O731 Mg716 2.031 . S
O731 C732 1.208 . S
C732 O730 1.312 . S
C732 O731 1.208 . S
C733 O725 1.331 . S
C733 O728 1.244 . S
O734 Mg719 2.013 . S
O734 C723 1.191 . S
O735 C714 1.331 . S
O735 Mg721 2.081 . S
O736 Mg717 1.986 . S
O736 C723 1.307 . S
O737 C715 1.264 . S
O737 Mg721 2.023 . S
O738 C714 1.244 . S
O738 Mg722 1.942 . S
O739 C715 1.273 . S
O739 Mg722 1.955 . S
O740 C713 1.312 . S
O740 Mg716 2.291 . S
O740 Mg719 2.114 . S
O741 C713 1.208 . S
O741 Mg721 2.031 . S
C742 O727 1.264 . S
C742 O729 1.273 . S
C743 O724 1.191 . S
C743 O726 1.307 . S
C578 C10 1.671 . S
C61 C609 1.619 . S
C497 C92 1.671 . S
C123 C528 1.619 . S
C702 C134 1.703 . S
C653 C165 1.823 . S
C733 C216 1.703 . S
C649 C247 1.823 . S
C258 C404 1.723 . S
C485 C289 1.723 . S
C340 C454 1.623 . S
C373 C371 1.623 . S
C187 C402 1.620 . S
C218 C433 1.538 . S
C144 C444 1.620 . S
C475 C175 1.538 . S
C311 C526 1.631 . S
C557 C299 1.669 . S
C342 C568 1.631 . S
C268 C599 1.669 . S
C620 C32 1.755 . S
C94 C670 1.755 . S
C692 C63 1.677 . S
C723 C20 1.677 . S
C249 C2 3.017 . S
C60 C361 2.955 . S
C91 C280 3.017 . S
C122 C330 2.955 . S
C126 C1 2.976 . S
C157 C51 2.950 . S
C82 C215 2.976 . S
C246 C113 2.950 . S
C125 C250 2.980 . S
C281 C206 2.980 . S
C237 C339 2.928 . S
C156 C370 2.928 . S
C622 C401 3.024 . S
C432 C714 3.030 . S
C680 C436 3.024 . S
C467 C683 3.030 . S
C392 C525 2.831 . S
C423 C556 2.924 . S
C560 C435 2.831 . S
C466 C591 2.924 . S
C516 C621 3.070 . S
C671 C559 3.070 . S
C684 C590 2.986 . S
C715 C547 2.986 . S
C30 C343 1.623 . S
C277 C41 1.689 1_554 S
C72 C312 1.623 . S
C103 C308 1.689 1_554 S
C64 C154 1.581 . S
C95 C185 1.529 1_655 S
C29 C196 1.581 1_455 S
C227 C33 1.529 . S
C219 C278 1.604 . S
C309 C184 1.604 1_545 S
C153 C320 1.628 1_545 S
C351 C188 1.628 . S
C742 C382 1.630 . S
C640 C413 1.271 1_556 S
C711 C464 1.630 . S
C652 C495 1.271 1_554 S
C506 C463 1.669 . S
C537 C494 1.664 1_655 S
C588 C374 1.669 1_455 S
C619 C405 1.664 . S
C618 C639 1.689 . S
C529 C651 1.689 . S
C498 C712 1.562 1_565 S
C587 C743 1.562 . S
C701 C0 2.310 . S
C661 C50 2.414 1_554 S
C81 C732 2.310 . S
C650 C112 2.414 1_556 S
C124 C403 2.280 . S
C372 C155 2.430 1_655 S
C205 C484 2.280 1_655 S
C236 C453 2.430 . S
C577 C248 2.351 . S
C496 C279 2.351 1_565 S
C329 C527 2.406 1_565 S
C360 C608 2.406 . S
C391 C310 2.446 . S
C422 C298 2.356 1_554 S
C341 C434 2.446 . S
C267 C465 2.356 1_554 S
C515 C31 2.467 . S
C546 C19 2.328 1_655 S
C558 C93 2.467 1_455 S
C589 C62 2.328 . S
C630 C186 2.403 . S
C681 C143 2.403 1_565 S
C682 C174 2.461 1_545 S
C217 C713 2.461 . S
