# Generated by pormake.
# Topology umc, (4)-cn, num edge types: 1
# Building blocks:
#     Node 0, Type 0, BuildingBlock: QUQFOY_clean_sbu_1, # of connection points: 4
#     Node 1, Type 0, BuildingBlock: QUQFOY_clean_sbu_1, # of connection points: 4
#     Node 2, Type 0, BuildingBlock: QUQFOY_clean_sbu_1, # of connection points: 4
#     Node 3, Type 0, BuildingBlock: QUQFOY_clean_sbu_1, # of connection points: 4
#     Node 4, Type 0, BuildingBlock: QUQFOY_clean_sbu_1, # of connection points: 4
#     Node 5, Type 0, BuildingBlock: QUQFOY_clean_sbu_1, # of connection points: 4
#     Node 6, Type 0, BuildingBlock: QUQFOY_clean_sbu_1, # of connection points: 4
#     Node 7, Type 0, BuildingBlock: QUQFOY_clean_sbu_1, # of connection points: 4
#     Node 8, Type 0, BuildingBlock: QUQFOY_clean_sbu_1, # of connection points: 4
#     Node 9, Type 0, BuildingBlock: QUQFOY_clean_sbu_1, # of connection points: 4
#     Node 10, Type 0, BuildingBlock: QUQFOY_clean_sbu_1, # of connection points: 4
#     Node 11, Type 0, BuildingBlock: QUQFOY_clean_sbu_1, # of connection points: 4
#     Node 12, Type 0, BuildingBlock: QUQFOY_clean_sbu_1, # of connection points: 4
#     Node 13, Type 0, BuildingBlock: QUQFOY_clean_sbu_1, # of connection points: 4
#     Node 14, Type 0, BuildingBlock: QUQFOY_clean_sbu_1, # of connection points: 4
#     Node 15, Type 0, BuildingBlock: QUQFOY_clean_sbu_1, # of connection points: 4
#     Edge 16, Type (0, 0), BuildingBlock: OJICUG_clean_linker_0, # of connection points: 2
#     Edge 17, Type (0, 0), BuildingBlock: OJICUG_clean_linker_0, # of connection points: 2
#     Edge 18, Type (0, 0), BuildingBlock: OJICUG_clean_linker_0, # of connection points: 2
#     Edge 19, Type (0, 0), BuildingBlock: OJICUG_clean_linker_0, # of connection points: 2
#     Edge 20, Type (0, 0), BuildingBlock: OJICUG_clean_linker_0, # of connection points: 2
#     Edge 21, Type (0, 0), BuildingBlock: OJICUG_clean_linker_0, # of connection points: 2
#     Edge 22, Type (0, 0), BuildingBlock: OJICUG_clean_linker_0, # of connection points: 2
#     Edge 23, Type (0, 0), BuildingBlock: OJICUG_clean_linker_0, # of connection points: 2
#     Edge 24, Type (0, 0), BuildingBlock: OJICUG_clean_linker_0, # of connection points: 2
#     Edge 25, Type (0, 0), BuildingBlock: OJICUG_clean_linker_0, # of connection points: 2
#     Edge 26, Type (0, 0), BuildingBlock: OJICUG_clean_linker_0, # of connection points: 2
#     Edge 27, Type (0, 0), BuildingBlock: OJICUG_clean_linker_0, # of connection points: 2
#     Edge 28, Type (0, 0), BuildingBlock: OJICUG_clean_linker_0, # of connection points: 2
#     Edge 29, Type (0, 0), BuildingBlock: OJICUG_clean_linker_0, # of connection points: 2
#     Edge 30, Type (0, 0), BuildingBlock: OJICUG_clean_linker_0, # of connection points: 2
#     Edge 31, Type (0, 0), BuildingBlock: OJICUG_clean_linker_0, # of connection points: 2
#     Edge 32, Type (0, 0), BuildingBlock: OJICUG_clean_linker_0, # of connection points: 2
#     Edge 33, Type (0, 0), BuildingBlock: OJICUG_clean_linker_0, # of connection points: 2
#     Edge 34, Type (0, 0), BuildingBlock: OJICUG_clean_linker_0, # of connection points: 2
#     Edge 35, Type (0, 0), BuildingBlock: OJICUG_clean_linker_0, # of connection points: 2
#     Edge 36, Type (0, 0), BuildingBlock: OJICUG_clean_linker_0, # of connection points: 2
#     Edge 37, Type (0, 0), BuildingBlock: OJICUG_clean_linker_0, # of connection points: 2
#     Edge 38, Type (0, 0), BuildingBlock: OJICUG_clean_linker_0, # of connection points: 2
#     Edge 39, Type (0, 0), BuildingBlock: OJICUG_clean_linker_0, # of connection points: 2
#     Edge 40, Type (0, 0), BuildingBlock: OJICUG_clean_linker_0, # of connection points: 2
#     Edge 41, Type (0, 0), BuildingBlock: OJICUG_clean_linker_0, # of connection points: 2
#     Edge 42, Type (0, 0), BuildingBlock: OJICUG_clean_linker_0, # of connection points: 2
#     Edge 43, Type (0, 0), BuildingBlock: OJICUG_clean_linker_0, # of connection points: 2
#     Edge 44, Type (0, 0), BuildingBlock: OJICUG_clean_linker_0, # of connection points: 2
#     Edge 45, Type (0, 0), BuildingBlock: OJICUG_clean_linker_0, # of connection points: 2
#     Edge 46, Type (0, 0), BuildingBlock: OJICUG_clean_linker_0, # of connection points: 2
#     Edge 47, Type (0, 0), BuildingBlock: OJICUG_clean_linker_0, # of connection points: 2
# Relax obj value: 0.042
# Max RMSD: 0.111
# Mean RMSD: 0.111
data_MOF--net-umc--node1-QUQFOY_clean_sbu_1--edge1-OJICUG_clean_linker_0
_symmetry_space_group_name_H-M    P1
_symmetry_Int_Tables_number       1
_symmetry_cell_setting            triclinic
loop_
_symmetry_equiv_pos_as_xyz
'x, y, z'
_cell_length_a     29.104619
_cell_length_b     29.219639
_cell_length_c     41.637447
_cell_angle_alpha  90.000076
_cell_angle_beta   90.000372
_cell_angle_gamma 89.997338
loop_
_atom_site_label
_atom_site_type_symbol
_atom_site_fract_x
_atom_site_fract_y
_atom_site_fract_z
_atom_type_partial_charge
O0 O 0.30098 0.11737 0.44508 0.0
Cd1 Cd 0.32863 0.13815 0.40185 0.0
Cd2 Cd 0.3062 0.04974 0.39107 0.0
O3 O 0.27448 0.04806 0.43546 0.0
O4 O 0.33342 0.20512 0.41085 0.0
O5 O 0.28886 0.17732 0.37263 0.0
C6 C 0.30246 0.21195 0.38928 0.0
C7 C 0.27164 0.04885 0.34096 0.0
C8 C 0.27978 0.08174 0.4544 0.0
C9 C 0.4064 0.07254 0.3892 0.0
O10 O 0.37632 1.04103 0.39087 0.0
O11 O 0.39437 0.11448 0.39063 0.0
O12 O 0.27812 1.01122 0.35669 0.0
O13 O 0.28173 0.08701 0.35498 0.0
O14 O 0.7047 0.97748 0.44512 0.0
Cd15 Cd 0.67702 0.95664 0.40191 0.0
Cd16 Cd 0.69942 1.04505 0.39107 0.0
O17 O 0.73114 1.0468 0.43545 0.0
O18 O 0.67226 0.88968 0.41094 0.0
O19 O 0.71678 0.91746 0.37269 0.0
C20 C 0.7032 0.88284 0.38937 0.0
C21 C 0.73399 1.04592 0.34096 0.0
C22 C 0.72588 1.01313 0.45441 0.0
C23 C 0.59923 1.02221 0.38923 0.0
O24 O 0.6293 0.05373 0.39085 0.0
O25 O 0.61127 0.98028 0.39069 0.0
O26 O 0.72749 0.08356 0.35669 0.0
O27 O 0.72392 1.00776 0.35498 0.0
O28 O 0.30102 0.97736 0.09984 0.0
Cd29 Cd 0.32868 0.95655 0.14306 0.0
Cd30 Cd 0.30622 1.04494 0.15389 0.0
O31 O 0.27451 1.04666 0.1095 0.0
O32 O 0.33349 0.88958 0.13405 0.0
O33 O 0.28892 0.91736 0.17227 0.0
C34 C 0.30253 0.88273 0.15561 0.0
C35 C 0.27164 1.0458 0.20399 0.0
C36 C 0.27981 1.01299 0.09054 0.0
C37 C 0.40642 1.02217 0.15575 0.0
O38 O 0.37634 0.05366 0.15411 0.0
O39 O 0.39441 0.98022 0.15429 0.0
O40 O 0.27812 0.08345 0.18826 0.0
O41 O 0.28174 1.00765 0.18997 0.0
O42 O 0.70459 0.11748 0.09987 0.0
Cd43 Cd 0.67695 0.13824 0.14311 0.0
Cd44 Cd 0.69943 0.04984 0.15389 0.0
O45 O 0.73114 0.04819 0.10949 0.0
O46 O 0.67212 0.20521 0.13412 0.0
O47 O 0.71672 0.17742 0.17232 0.0
C48 C 0.70309 0.21205 0.15567 0.0
C49 C 0.734 0.04897 0.20399 0.0
C50 C 0.72582 0.08186 0.09055 0.0
C51 C 0.59923 0.0726 0.15577 0.0
O52 O 0.62932 1.0411 0.1541 0.0
O53 O 0.61123 0.11454 0.15434 0.0
O54 O 0.72754 1.01134 0.18826 0.0
O55 O 0.72389 0.08713 0.18998 0.0
O56 O 0.7047 0.97748 0.59983 0.0
Cd57 Cd 0.67703 0.95664 0.64304 0.0
Cd58 Cd 0.69942 1.04505 0.65389 0.0
O59 O 0.73114 1.0468 0.6095 0.0
O60 O 0.67226 0.88968 0.63401 0.0
O61 O 0.71678 0.91745 0.67226 0.0
C62 C 0.7032 0.88283 0.65558 0.0
C63 C 0.73399 1.04592 0.704 0.0
C64 C 0.72588 1.01313 0.59054 0.0
C65 C 0.59923 1.02221 0.65573 0.0
O66 O 0.6293 0.05373 0.6541 0.0
O67 O 0.61127 0.98028 0.65426 0.0
O68 O 0.72749 0.08356 0.68827 0.0
O69 O 0.72392 1.00776 0.68997 0.0
O70 O 0.30098 0.11737 0.59986 0.0
Cd71 Cd 0.32863 0.13815 0.64309 0.0
Cd72 Cd 0.30621 0.04973 0.65387 0.0
O73 O 0.27449 0.04806 0.60949 0.0
O74 O 0.33342 0.20512 0.6341 0.0
O75 O 0.28886 0.17731 0.67232 0.0
C76 C 0.30247 0.21195 0.65566 0.0
C77 C 0.27163 0.04885 0.70399 0.0
C78 C 0.27978 0.08174 0.59054 0.0
C79 C 0.4064 0.07254 0.65574 0.0
O80 O 0.37632 1.04103 0.65408 0.0
O81 O 0.39437 0.11447 0.65432 0.0
O82 O 0.27812 1.01121 0.68825 0.0
O83 O 0.28173 0.08701 0.68997 0.0
O84 O 0.70459 0.11748 0.94508 0.0
Cd85 Cd 0.67695 0.13824 0.90184 0.0
Cd86 Cd 0.69942 0.04984 0.89107 0.0
O87 O 0.73113 0.04819 0.93546 0.0
O88 O 0.67211 0.20521 0.91083 0.0
O89 O 0.71671 0.17742 0.87263 0.0
C90 C 0.70309 0.21205 0.88928 0.0
C91 C 0.734 0.04897 0.84096 0.0
C92 C 0.72581 0.08187 0.9544 0.0
C93 C 0.59922 0.07259 0.88919 0.0
O94 O 0.62931 1.0411 0.89086 0.0
O95 O 0.61122 0.11454 0.89061 0.0
O96 O 0.72754 1.01133 0.8567 0.0
O97 O 0.72389 0.08713 0.85498 0.0
O98 O 0.30101 0.97736 0.9451 0.0
Cd99 Cd 0.32867 0.95655 0.90189 0.0
Cd100 Cd 0.30622 1.04494 0.89106 0.0
O101 O 0.2745 1.04666 0.93545 0.0
O102 O 0.33348 0.88958 0.9109 0.0
O103 O 0.28892 0.91735 0.87267 0.0
C104 C 0.30253 0.88273 0.88934 0.0
C105 C 0.27164 1.0458 0.84095 0.0
C106 C 0.2798 1.01299 0.9544 0.0
C107 C 0.40642 1.02216 0.8892 0.0
O108 O 0.37633 0.05366 0.89084 0.0
O109 O 0.39441 0.98022 0.89065 0.0
O110 O 0.27812 0.08344 0.85668 0.0
O111 O 0.28174 1.00765 0.85497 0.0
O112 O 0.80099 0.61738 0.44511 0.0
Cd113 Cd 0.82867 0.6382 0.4019 0.0
Cd114 Cd 0.80624 0.54981 0.39106 0.0
O115 O 0.77452 0.54807 0.43545 0.0
O116 O 0.83347 0.70517 0.41093 0.0
O117 O 0.78892 0.67741 0.37269 0.0
C118 C 0.80252 0.71202 0.38937 0.0
C119 C 0.77166 0.54896 0.34095 0.0
C120 C 0.7798 0.58174 0.45441 0.0
C121 C 0.90643 0.57261 0.38922 0.0
O122 O 0.87635 0.5411 0.39085 0.0
O123 O 0.89441 0.61454 0.39068 0.0
O124 O 0.77815 0.51131 0.35668 0.0
O125 O 0.78175 0.58711 0.35498 0.0
O126 O 0.20464 0.47733 0.44508 0.0
Cd127 Cd 0.17699 0.45656 0.40185 0.0
Cd128 Cd 0.19945 0.54497 0.39107 0.0
O129 O 0.23116 0.54663 0.43546 0.0
O130 O 0.17217 0.38959 0.41084 0.0
O131 O 0.21675 0.41738 0.37263 0.0
C132 C 0.20313 0.38275 0.38929 0.0
C133 C 0.23402 0.54583 0.34096 0.0
C134 C 0.22585 0.51295 0.4544 0.0
C135 C 0.09925 0.5222 0.3892 0.0
O136 O 0.12933 0.5537 0.39086 0.0
O137 O 0.11126 0.48026 0.39062 0.0
O138 O 0.22755 0.58347 0.3567 0.0
O139 O 0.22391 0.50768 0.35498 0.0
O140 O 0.80099 0.47739 0.09987 0.0
Cd141 Cd 0.82864 0.45662 0.1431 0.0
Cd142 Cd 0.8062 0.54503 0.15388 0.0
O143 O 0.77449 0.5467 0.10949 0.0
O144 O 0.83342 0.38964 0.13412 0.0
O145 O 0.78886 0.41747 0.17233 0.0
C146 C 0.80246 0.38282 0.15568 0.0
C147 C 0.77163 0.54591 0.20399 0.0
C148 C 0.77979 0.51302 0.09055 0.0
C149 C 0.9064 0.52222 0.15575 0.0
O150 O 0.87632 0.55373 0.15409 0.0
O151 O 0.89437 0.48028 0.15433 0.0
O152 O 0.77811 0.58355 0.18825 0.0
O153 O 0.78173 0.50775 0.18997 0.0
O154 O 0.20466 0.61733 0.09984 0.0
Cd155 Cd 0.177 0.63815 0.14306 0.0
Cd156 Cd 0.19941 0.54974 0.15389 0.0
O157 O 0.23113 0.54801 0.1095 0.0
O158 O 0.17223 0.70512 0.13404 0.0
O159 O 0.21677 0.67732 0.17228 0.0
C160 C 0.20318 0.71195 0.15561 0.0
C161 C 0.234 0.54887 0.204 0.0
C162 C 0.22585 0.58168 0.09054 0.0
C163 C 0.09922 0.57257 0.15574 0.0
O164 O 0.12929 0.54106 0.15411 0.0
O165 O 0.11125 0.61451 0.15428 0.0
O166 O 0.2275 0.51123 0.18827 0.0
O167 O 0.22391 0.58703 0.18997 0.0
O168 O 0.20464 0.47733 0.59986 0.0
Cd169 Cd 0.17699 0.45656 0.64309 0.0
Cd170 Cd 0.19945 0.54496 0.65388 0.0
O171 O 0.23117 0.54663 0.60949 0.0
O172 O 0.17217 0.38959 0.6341 0.0
O173 O 0.21675 0.41738 0.67232 0.0
C174 C 0.20313 0.38275 0.65566 0.0
C175 C 0.23402 0.54583 0.70399 0.0
C176 C 0.22586 0.51295 0.59055 0.0
C177 C 0.09925 0.52219 0.65575 0.0
O178 O 0.12933 0.5537 0.65408 0.0
O179 O 0.11126 0.48026 0.65432 0.0
O180 O 0.22755 0.58347 0.68825 0.0
O181 O 0.22391 0.50767 0.68997 0.0
O182 O 0.80099 0.61738 0.59983 0.0
Cd183 Cd 0.82867 0.6382 0.64304 0.0
Cd184 Cd 0.80624 0.5498 0.65389 0.0
O185 O 0.77452 0.54807 0.6095 0.0
O186 O 0.83346 0.70516 0.63401 0.0
O187 O 0.78892 0.67741 0.67226 0.0
C188 C 0.80252 0.71202 0.65558 0.0
C189 C 0.77166 0.54895 0.704 0.0
C190 C 0.77979 0.58173 0.59054 0.0
C191 C 0.90643 0.5726 0.65573 0.0
O192 O 0.87635 0.54109 0.6541 0.0
O193 O 0.89441 0.61453 0.65427 0.0
O194 O 0.77815 0.51131 0.68827 0.0
O195 O 0.78175 0.58711 0.68997 0.0
O196 O 0.20467 0.61732 0.94511 0.0
Cd197 Cd 0.177 0.63814 0.90189 0.0
Cd198 Cd 0.19942 0.54974 0.89106 0.0
O199 O 0.23113 0.54801 0.93545 0.0
O200 O 0.17223 0.70511 0.91091 0.0
O201 O 0.21677 0.67732 0.87267 0.0
C202 C 0.20318 0.71195 0.88934 0.0
C203 C 0.234 0.54887 0.84095 0.0
C204 C 0.22585 0.58167 0.95441 0.0
C205 C 0.09923 0.57256 0.88921 0.0
O206 O 0.1293 0.54105 0.89085 0.0
O207 O 0.11125 0.6145 0.89067 0.0
O208 O 0.2275 0.51123 0.85668 0.0
O209 O 0.22391 0.58702 0.85498 0.0
O210 O 0.801 0.47739 0.94508 0.0
Cd211 Cd 0.82864 0.45661 0.90185 0.0
Cd212 Cd 0.80621 0.54502 0.89107 0.0
O213 O 0.77449 0.5467 0.93546 0.0
O214 O 0.83342 0.38963 0.91083 0.0
O215 O 0.78886 0.41746 0.87262 0.0
C216 C 0.80246 0.38282 0.88927 0.0
C217 C 0.77163 0.54591 0.84096 0.0
C218 C 0.7798 0.51302 0.9544 0.0
C219 C 0.9064 0.52222 0.8892 0.0
O220 O 0.87632 0.55372 0.89086 0.0
O221 O 0.89438 0.48028 0.89062 0.0
O222 O 0.77812 0.58355 0.8567 0.0
O223 O 0.78173 0.50775 0.85498 0.0
C224 C 0.25999 0.12003 0.50575 0.0
C225 C 0.26637 0.07913 0.48862 0.0
H226 H 0.25812 0.15257 0.55162 0.0
C227 C 0.26778 1.03753 0.5056 0.0
H228 H 0.25812 0.15256 0.49332 0.0
C229 C 0.26778 1.03753 0.53935 0.0
C230 C 0.26637 0.07913 0.55633 0.0
H231 H 0.27276 1.0055 0.49297 0.0
H232 H 0.27276 1.0055 0.55197 0.0
C233 C 0.25999 0.12003 0.53919 0.0
C234 C 0.74581 0.9749 0.53919 0.0
C235 C 0.73931 1.01579 0.55633 0.0
H236 H 0.74776 0.94237 0.49333 0.0
C237 C 0.73779 0.05738 0.53935 0.0
H238 H 0.74777 0.94237 0.55163 0.0
C239 C 0.73779 0.05738 0.5056 0.0
C240 C 0.73931 1.01578 0.48862 0.0
H241 H 0.73272 0.0894 0.55197 0.0
H242 H 0.73272 0.0894 0.49298 0.0
C243 C 0.74581 0.9749 0.50576 0.0
C244 C 0.26785 0.05722 0.03935 0.0
C245 C 0.26639 1.01562 0.05633 0.0
H246 H 0.27288 0.08925 0.99298 0.0
C247 C 0.25995 0.97474 0.03919 0.0
H248 H 0.27288 0.08924 0.05197 0.0
C249 C 0.25994 0.97474 1.00575 0.0
C250 C 0.26638 1.01563 0.98862 0.0
H251 H 0.25803 0.9422 0.05162 0.0
H252 H 0.25803 0.9422 0.99332 0.0
C253 C 0.26785 0.05723 1.0056 0.0
C254 C 0.73784 1.03766 1.0056 0.0
C255 C 0.73921 0.07927 0.98862 0.0
H256 H 0.73289 1.00563 0.05197 0.0
C257 C 0.74556 0.12017 1.00576 0.0
H258 H 0.73289 1.00563 0.99298 0.0
C259 C 0.74556 0.12017 0.0392 0.0
C260 C 0.73922 0.07926 0.05633 0.0
H261 H 0.74741 0.15271 0.99333 0.0
H262 H 0.74741 0.15271 0.05162 0.0
C263 C 0.73784 1.03766 0.03935 0.0
C264 C 0.75989 0.61997 0.53919 0.0
C265 C 0.76636 0.57909 0.55633 0.0
H266 H 0.75795 0.65251 0.49333 0.0
C267 C 0.76786 0.53749 0.53935 0.0
H268 H 0.75795 0.65251 0.55162 0.0
C269 C 0.76786 0.53749 0.5056 0.0
C270 C 0.76637 0.57909 0.48862 0.0
H271 H 0.77292 0.50547 0.55197 0.0
H272 H 0.77292 0.50548 0.49298 0.0
C273 C 0.75989 0.61997 0.50576 0.0
C274 C 0.24563 0.47466 0.53919 0.0
C275 C 0.23927 0.51556 0.55633 0.0
H276 H 0.24749 0.44211 0.49333 0.0
C277 C 0.23787 0.55716 0.53935 0.0
H278 H 0.24749 0.44212 0.55162 0.0
C279 C 0.23787 0.55716 0.5056 0.0
C280 C 0.23926 0.51556 0.48862 0.0
H281 H 0.23291 0.58919 0.55197 0.0
H282 H 0.2329 0.58919 0.49298 0.0
C283 C 0.24563 0.47466 0.50576 0.0
C284 C 0.76779 0.55723 1.0056 0.0
C285 C 0.76639 0.51562 0.98862 0.0
H286 H 0.77276 0.58926 0.05197 0.0
C287 C 0.76002 0.47473 1.00576 0.0
H288 H 0.77276 0.58925 0.99297 0.0
C289 C 0.76002 0.47473 0.03919 0.0
C290 C 0.76638 0.51563 0.05633 0.0
H291 H 0.75816 0.44219 0.99333 0.0
H292 H 0.75815 0.44219 0.05162 0.0
C293 C 0.76779 0.55723 0.03935 0.0
C294 C 0.23778 0.53744 0.03935 0.0
C295 C 0.23927 0.57904 0.05633 0.0
H296 H 0.23274 0.50542 0.99298 0.0
C297 C 0.24573 0.61992 0.03919 0.0
H298 H 0.23273 0.50542 0.05198 0.0
C299 C 0.24574 0.61992 1.00576 0.0
C300 C 0.23928 0.57903 0.98862 0.0
H301 H 0.24767 0.65246 0.05162 0.0
H302 H 0.24768 0.65245 0.99333 0.0
C303 C 0.23779 0.53744 1.0056 0.0
C304 C 0.53658 0.08127 0.38653 0.0
C305 C 0.54989 1.03494 0.38701 0.0
H306 H 0.48119 0.12952 0.38675 0.0
C307 C 0.51551 1.00117 0.38664 0.0
H308 H 0.56211 0.10829 0.38672 0.0
C309 C 0.46904 1.01347 0.38661 0.0
C310 C 0.45573 0.0598 0.387 0.0
H311 H 0.52443 0.96522 0.38692 0.0
H312 H 0.44352 0.98645 0.38686 0.0
C313 C 0.49011 0.09357 0.38654 0.0
C314 C 0.49015 1.00117 0.15835 0.0
C315 C 0.45576 1.03491 0.15797 0.0
H316 H 0.56216 0.9865 0.15813 0.0
C317 C 0.46903 0.08126 0.15843 0.0
H318 H 0.48126 0.9652 0.15808 0.0
C319 C 0.5155 0.09358 0.15842 0.0
C320 C 0.54989 0.05984 0.15797 0.0
H321 H 0.44349 0.10825 0.15824 0.0
H322 H 0.52439 0.12955 0.15821 0.0
C323 C 0.53662 1.01349 0.15837 0.0
C324 C 0.51552 1.00117 0.65831 0.0
C325 C 0.54989 1.03494 0.65794 0.0
H326 H 0.44352 0.98645 0.65808 0.0
C327 C 0.53659 0.08127 0.65842 0.0
H328 H 0.52444 0.96521 0.65803 0.0
C329 C 0.49011 0.09357 0.6584 0.0
C330 C 0.45574 0.0598 0.65795 0.0
H331 H 0.56211 0.10828 0.65823 0.0
H332 H 0.48119 0.12952 0.6582 0.0
C333 C 0.46904 1.01347 0.65833 0.0
C334 C 0.51549 0.09358 0.88653 0.0
C335 C 0.54989 0.05984 0.88698 0.0
H336 H 0.44349 0.10825 0.8867 0.0
C337 C 0.53661 1.01349 0.88658 0.0
H338 H 0.52439 0.12955 0.88674 0.0
C339 C 0.49015 1.00117 0.8866 0.0
C340 C 0.45575 1.03491 0.88698 0.0
H341 H 0.56215 0.9865 0.88682 0.0
H342 H 0.48125 0.9652 0.88687 0.0
C343 C 0.46903 0.08126 0.88651 0.0
C344 C 0.99016 0.59361 0.38663 0.0
C345 C 0.95577 0.55986 0.387 0.0
H346 H 0.06216 0.6083 0.38685 0.0
C347 C 0.96906 0.51352 0.38653 0.0
H348 H 0.98125 0.62957 0.38691 0.0
C349 C 0.01552 0.5012 0.38654 0.0
C350 C 0.04991 0.53496 0.38699 0.0
H351 H 0.94352 0.48651 0.38671 0.0
H352 H 0.02443 0.46524 0.38675 0.0
C353 C 0.03662 0.5813 0.38661 0.0
C354 C 0.03659 0.5135 0.15842 0.0
C355 C 0.04988 0.55984 0.15796 0.0
H356 H 0.9812 0.46524 0.1582 0.0
C357 C 0.0155 0.5936 0.15834 0.0
H358 H 0.06211 0.4865 0.15824 0.0
C359 C 0.96903 0.5813 0.15836 0.0
C360 C 0.95573 0.53496 0.15796 0.0
H361 H 0.02441 0.62957 0.15806 0.0
H362 H 0.9435 0.60831 0.15811 0.0
C363 C 0.99012 0.5012 0.15841 0.0
C364 C 0.96906 0.51352 0.65842 0.0
C365 C 0.95577 0.55985 0.65794 0.0
H366 H 0.02443 0.46524 0.65819 0.0
C367 C 0.99016 0.59361 0.65832 0.0
H368 H 0.94352 0.48651 0.65823 0.0
C369 C 0.03662 0.58129 0.65834 0.0
C370 C 0.04991 0.53495 0.65795 0.0
H371 H 0.98125 0.62957 0.65804 0.0
H372 H 0.06216 0.6083 0.6581 0.0
C373 C 0.01552 0.5012 0.65841 0.0
C374 C 0.01551 0.5936 0.88661 0.0
C375 C 0.04989 0.55984 0.88699 0.0
H376 H 0.94351 0.6083 0.88684 0.0
C377 C 0.03659 0.5135 0.88653 0.0
H378 H 0.02442 0.62956 0.88689 0.0
C379 C 0.99012 0.50119 0.88654 0.0
C380 C 0.95574 0.53495 0.88699 0.0
H381 H 0.06212 0.48649 0.88671 0.0
H382 H 0.98121 0.46523 0.88675 0.0
C383 C 0.96903 0.5813 0.88659 0.0
C384 C 0.24067 0.31818 0.35871 0.0
C385 C 0.22742 0.33848 0.38789 0.0
H386 H 0.27408 0.26071 0.33606 0.0
C387 C 0.23988 0.31741 0.41688 0.0
H388 H 0.23166 0.33407 0.33606 0.0
C389 C 0.2656 0.27722 0.41688 0.0
C390 C 0.27815 0.25621 0.38789 0.0
H391 H 0.23062 0.33268 0.43971 0.0
H392 H 0.27479 0.2619 0.43971 0.0
C393 C 0.26499 0.27656 0.35871 0.0
C394 C 0.74007 0.81757 0.41697 0.0
C395 C 0.72751 0.83858 0.38798 0.0
H396 H 0.77504 0.7621 0.43979 0.0
C397 C 0.74067 0.81822 0.35879 0.0
H398 H 0.73088 0.83288 0.4398 0.0
C399 C 0.76498 0.7766 0.35879 0.0
C400 C 0.77823 0.7563 0.38798 0.0
H401 H 0.73158 0.83407 0.33615 0.0
H402 H 0.77398 0.7607 0.33615 0.0
C403 C 0.76578 0.77737 0.41697 0.0
C404 C 0.24064 0.77657 0.18618 0.0
C405 C 0.22751 0.7562 0.15699 0.0
H406 H 0.27394 0.83409 0.20882 0.0
C407 C 0.24009 0.77719 0.12801 0.0
H408 H 0.23152 0.76074 0.20882 0.0
C409 C 0.26582 0.81738 0.12801 0.0
C410 C 0.27824 0.83846 0.157 0.0
H411 H 0.23092 0.76186 0.10518 0.0
H412 H 0.27509 0.83264 0.10518 0.0
C413 C 0.26496 0.81818 0.18618 0.0
C414 C 0.74071 0.27658 0.18625 0.0
C415 C 0.72738 0.25632 0.15707 0.0
H416 H 0.77419 0.334 0.2089 0.0
C417 C 0.73975 0.27744 0.12808 0.0
H418 H 0.73176 0.26065 0.2089 0.0
C419 C 0.76549 0.31763 0.12808 0.0
C420 C 0.77812 0.33858 0.15707 0.0
H421 H 0.73043 0.26221 0.10526 0.0
H422 H 0.77461 0.33297 0.10525 0.0
C423 C 0.76504 0.31819 0.18626 0.0
C424 C 0.74007 0.81757 0.62798 0.0
C425 C 0.72751 0.83857 0.65697 0.0
H426 H 0.77504 0.7621 0.60516 0.0
C427 C 0.74067 0.81822 0.68616 0.0
H428 H 0.73089 0.83288 0.60515 0.0
C429 C 0.76498 0.77659 0.68616 0.0
C430 C 0.77823 0.75629 0.65697 0.0
H431 H 0.73158 0.83406 0.7088 0.0
H432 H 0.77398 0.7607 0.7088 0.0
C433 C 0.76579 0.77737 0.62798 0.0
C434 C 0.24068 0.31818 0.68624 0.0
C435 C 0.22742 0.33848 0.65705 0.0
H436 H 0.27408 0.26071 0.70888 0.0
C437 C 0.23987 0.31741 0.62806 0.0
H438 H 0.23167 0.33407 0.70888 0.0
C439 C 0.2656 0.27721 0.62806 0.0
C440 C 0.27815 0.25621 0.65705 0.0
H441 H 0.23062 0.33268 0.60524 0.0
H442 H 0.27478 0.2619 0.60524 0.0
C443 C 0.26499 0.27656 0.68624 0.0
C444 C 0.74071 0.27657 0.8587 0.0
C445 C 0.72738 0.25632 0.88788 0.0
H446 H 0.77419 0.33399 0.83605 0.0
C447 C 0.73975 0.27743 0.91687 0.0
H448 H 0.73176 0.26065 0.83605 0.0
C449 C 0.76549 0.31762 0.91687 0.0
C450 C 0.77812 0.33858 0.88788 0.0
H451 H 0.73043 0.2622 0.93969 0.0
H452 H 0.77462 0.33297 0.9397 0.0
C453 C 0.76503 0.31818 0.85869 0.0
C454 C 0.24064 0.77656 0.85877 0.0
C455 C 0.22751 0.7562 0.88796 0.0
H456 H 0.27394 0.83408 0.83612 0.0
C457 C 0.24009 0.77718 0.91694 0.0
H458 H 0.23152 0.76073 0.83612 0.0
C459 C 0.26581 0.81738 0.91694 0.0
C460 C 0.27824 0.83846 0.88795 0.0
H461 H 0.23092 0.76186 0.93977 0.0
H462 H 0.27509 0.83264 0.93977 0.0
C463 C 0.26495 0.81818 0.85877 0.0
C464 C 0.25744 0.0891 0.28881 0.0
C465 C 0.25965 0.04806 0.30638 0.0
H466 H 0.2587 0.12062 0.24243 0.0
C467 C 0.25741 1.00628 0.28972 0.0
H468 H 0.25874 0.1219 0.30091 0.0
C469 C 0.25747 1.00555 0.25614 0.0
C470 C 0.25965 1.04659 0.23857 0.0
H471 H 0.25875 0.97403 0.30252 0.0
H472 H 0.2588 0.97275 0.24404 0.0
C473 C 0.25738 0.08837 0.25523 0.0
C474 C 0.74824 1.0064 0.25523 0.0
C475 C 0.74599 0.04818 0.23857 0.0
H476 H 0.74687 0.97287 0.3009 0.0
C477 C 0.74818 0.08922 0.25614 0.0
H478 H 0.74692 0.97416 0.24243 0.0
C479 C 0.74823 0.08849 0.28973 0.0
C480 C 0.74598 1.04671 0.30638 0.0
H481 H 0.74687 0.12202 0.24405 0.0
H482 H 0.7469 0.12074 0.30252 0.0
C483 C 0.74819 1.00567 0.28881 0.0
C484 C 0.74818 0.08922 0.78881 0.0
C485 C 0.74599 0.04818 0.80639 0.0
H486 H 0.7469 0.12074 0.74243 0.0
C487 C 0.74824 1.0064 0.78973 0.0
H488 H 0.74686 0.12202 0.80091 0.0
C489 C 0.74819 1.00567 0.75614 0.0
C490 C 0.74598 1.04671 0.73857 0.0
H491 H 0.74692 0.97415 0.80253 0.0
H492 H 0.74687 0.97287 0.74405 0.0
C493 C 0.74823 0.08849 0.75523 0.0
C494 C 0.25747 1.00554 0.7888 0.0
C495 C 0.25965 1.04659 0.80637 0.0
H496 H 0.25876 0.97403 0.74242 0.0
C497 C 0.25738 0.08837 0.78972 0.0
H498 H 0.2588 0.97275 0.8009 0.0
C499 C 0.25743 0.08909 0.75613 0.0
C500 C 0.25965 0.04805 0.73856 0.0
H501 H 0.2587 0.12061 0.80251 0.0
H502 H 0.25874 0.12189 0.74404 0.0
C503 C 0.25741 1.00627 0.75522 0.0
C504 C 0.75744 0.50567 0.25614 0.0
C505 C 0.75965 0.54671 0.23857 0.0
H506 H 0.75871 0.47415 0.30252 0.0
C507 C 0.75742 0.58849 0.25523 0.0
H508 H 0.75874 0.47287 0.24404 0.0
C509 C 0.75748 0.58922 0.28881 0.0
C510 C 0.75966 0.54817 0.30638 0.0
H511 H 0.75876 0.62074 0.24243 0.0
H512 H 0.75881 0.62202 0.30091 0.0
C513 C 0.75739 0.5064 0.28972 0.0
C514 C 0.24825 0.5884 0.28973 0.0
C515 C 0.246 0.54662 0.30638 0.0
H516 H 0.24687 0.62193 0.24405 0.0
C517 C 0.24819 0.50558 0.28881 0.0
H518 H 0.24692 0.62064 0.30253 0.0
C519 C 0.24824 0.5063 0.25523 0.0
C520 C 0.24599 0.54808 0.23857 0.0
H521 H 0.24688 0.47278 0.30091 0.0
H522 H 0.24691 0.47406 0.24243 0.0
C523 C 0.24819 0.58913 0.25614 0.0
C524 C 0.24819 0.58912 0.78881 0.0
C525 C 0.24599 0.54808 0.80638 0.0
H526 H 0.24692 0.62064 0.74243 0.0
C527 C 0.24824 0.5063 0.78972 0.0
H528 H 0.24687 0.62192 0.80091 0.0
C529 C 0.24819 0.50557 0.75614 0.0
C530 C 0.246 0.54662 0.73857 0.0
H531 H 0.24691 0.47405 0.80252 0.0
H532 H 0.24688 0.47277 0.74404 0.0
C533 C 0.24825 0.5884 0.75522 0.0
C534 C 0.75748 0.58921 0.75614 0.0
C535 C 0.75967 0.54817 0.73857 0.0
H536 H 0.75877 0.62074 0.80252 0.0
C537 C 0.75739 0.50639 0.75523 0.0
H538 H 0.75882 0.62201 0.74404 0.0
C539 C 0.75744 0.50567 0.78881 0.0
C540 C 0.75965 0.54671 0.80638 0.0
H541 H 0.75871 0.47415 0.74243 0.0
H542 H 0.75874 0.47287 0.80091 0.0
C543 C 0.75742 0.58849 0.78972 0.0
loop_
_geom_bond_atom_site_label_1
_geom_bond_atom_site_label_2
_geom_bond_distance
_geom_bond_site_symmetry_2
_ccdc_geom_bond_type
O0 Cd1 2.223 . S
O0 C8 1.315 . S
Cd1 O0 2.223 . S
Cd1 O4 2.297 . S
Cd1 O5 2.439 . S
Cd1 O11 2.240 . S
Cd2 O3 2.240 . S
Cd2 O10 2.223 1_545 S
Cd2 O12 2.297 1_545 S
Cd2 O13 2.439 . S
O3 Cd2 2.240 . S
O3 C8 1.279 . S
O4 Cd1 2.297 . S
O4 C6 1.247 . S
O5 Cd1 2.439 . S
O5 C6 1.208 . S
C6 O4 1.247 . S
C6 O5 1.208 . S
C7 O12 1.247 1_545 S
C7 O13 1.208 . S
C8 O0 1.315 . S
C8 O3 1.279 . S
C9 O10 1.315 1_545 S
C9 O11 1.279 . S
O10 Cd2 2.223 1_565 S
O10 C9 1.315 1_565 S
O11 Cd1 2.240 . S
O11 C9 1.279 . S
O12 Cd2 2.297 1_565 S
O12 C7 1.247 1_565 S
O13 Cd2 2.439 . S
O13 C7 1.208 . S
O14 Cd15 2.223 . S
O14 C22 1.315 . S
Cd15 O14 2.223 . S
Cd15 O18 2.297 . S
Cd15 O19 2.439 . S
Cd15 O25 2.240 . S
Cd16 O17 2.240 . S
Cd16 O24 2.223 1_565 S
Cd16 O26 2.297 1_565 S
Cd16 O27 2.439 . S
O17 Cd16 2.240 . S
O17 C22 1.279 . S
O18 Cd15 2.297 . S
O18 C20 1.247 . S
O19 Cd15 2.439 . S
O19 C20 1.208 . S
C20 O18 1.247 . S
C20 O19 1.208 . S
C21 O26 1.247 1_565 S
C21 O27 1.208 . S
C22 O14 1.315 . S
C22 O17 1.279 . S
C23 O24 1.315 1_565 S
C23 O25 1.279 . S
O24 Cd16 2.223 1_545 S
O24 C23 1.315 1_545 S
O25 Cd15 2.240 . S
O25 C23 1.279 . S
O26 Cd16 2.297 1_545 S
O26 C21 1.247 1_545 S
O27 Cd16 2.439 . S
O27 C21 1.208 . S
O28 Cd29 2.223 . S
O28 C36 1.315 . S
Cd29 O28 2.223 . S
Cd29 O32 2.297 . S
Cd29 O33 2.439 . S
Cd29 O39 2.240 . S
Cd30 O31 2.240 . S
Cd30 O38 2.223 1_565 S
Cd30 O40 2.297 1_565 S
Cd30 O41 2.439 . S
O31 Cd30 2.240 . S
O31 C36 1.279 . S
O32 Cd29 2.297 . S
O32 C34 1.247 . S
O33 Cd29 2.439 . S
O33 C34 1.208 . S
C34 O32 1.247 . S
C34 O33 1.208 . S
C35 O40 1.247 1_565 S
C35 O41 1.208 . S
C36 O28 1.315 . S
C36 O31 1.279 . S
C37 O38 1.315 1_565 S
C37 O39 1.279 . S
O38 Cd30 2.223 1_545 S
O38 C37 1.315 1_545 S
O39 Cd29 2.240 . S
O39 C37 1.279 . S
O40 Cd30 2.297 1_545 S
O40 C35 1.247 1_545 S
O41 Cd30 2.439 . S
O41 C35 1.208 . S
O42 Cd43 2.223 . S
O42 C50 1.315 . S
Cd43 O42 2.223 . S
Cd43 O46 2.297 . S
Cd43 O47 2.439 . S
Cd43 O53 2.240 . S
Cd44 O45 2.240 . S
Cd44 O52 2.223 1_545 S
Cd44 O54 2.297 1_545 S
Cd44 O55 2.439 . S
O45 Cd44 2.240 . S
O45 C50 1.279 . S
O46 Cd43 2.297 . S
O46 C48 1.247 . S
O47 Cd43 2.439 . S
O47 C48 1.208 . S
C48 O46 1.247 . S
C48 O47 1.208 . S
C49 O54 1.247 1_545 S
C49 O55 1.208 . S
C50 O42 1.315 . S
C50 O45 1.279 . S
C51 O52 1.315 1_545 S
C51 O53 1.279 . S
O52 Cd44 2.223 1_565 S
O52 C51 1.315 1_565 S
O53 Cd43 2.240 . S
O53 C51 1.279 . S
O54 Cd44 2.297 1_565 S
O54 C49 1.247 1_565 S
O55 Cd44 2.439 . S
O55 C49 1.208 . S
O56 Cd57 2.223 . S
O56 C64 1.315 . S
Cd57 O56 2.223 . S
Cd57 O60 2.297 . S
Cd57 O61 2.439 . S
Cd57 O67 2.240 . S
Cd58 O59 2.240 . S
Cd58 O66 2.223 1_565 S
Cd58 O68 2.297 1_565 S
Cd58 O69 2.439 . S
O59 Cd58 2.240 . S
O59 C64 1.279 . S
O60 Cd57 2.297 . S
O60 C62 1.247 . S
O61 Cd57 2.439 . S
O61 C62 1.208 . S
C62 O60 1.247 . S
C62 O61 1.208 . S
C63 O68 1.247 1_565 S
C63 O69 1.208 . S
C64 O56 1.315 . S
C64 O59 1.279 . S
C65 O66 1.315 1_565 S
C65 O67 1.279 . S
O66 Cd58 2.223 1_545 S
O66 C65 1.315 1_545 S
O67 Cd57 2.240 . S
O67 C65 1.279 . S
O68 Cd58 2.297 1_545 S
O68 C63 1.247 1_545 S
O69 Cd58 2.439 . S
O69 C63 1.208 . S
O70 Cd71 2.223 . S
O70 C78 1.315 . S
Cd71 O70 2.223 . S
Cd71 O74 2.297 . S
Cd71 O75 2.439 . S
Cd71 O81 2.240 . S
Cd72 O73 2.240 . S
Cd72 O80 2.223 1_545 S
Cd72 O82 2.297 1_545 S
Cd72 O83 2.439 . S
O73 Cd72 2.240 . S
O73 C78 1.279 . S
O74 Cd71 2.297 . S
O74 C76 1.247 . S
O75 Cd71 2.439 . S
O75 C76 1.208 . S
C76 O74 1.247 . S
C76 O75 1.208 . S
C77 O82 1.247 1_545 S
C77 O83 1.208 . S
C78 O70 1.315 . S
C78 O73 1.279 . S
C79 O80 1.315 1_545 S
C79 O81 1.279 . S
O80 Cd72 2.223 1_565 S
O80 C79 1.315 1_565 S
O81 Cd71 2.240 . S
O81 C79 1.279 . S
O82 Cd72 2.297 1_565 S
O82 C77 1.247 1_565 S
O83 Cd72 2.439 . S
O83 C77 1.208 . S
O84 Cd85 2.223 . S
O84 C92 1.315 . S
Cd85 O84 2.223 . S
Cd85 O88 2.297 . S
Cd85 O89 2.439 . S
Cd85 O95 2.240 . S
Cd86 O87 2.240 . S
Cd86 O94 2.223 1_545 S
Cd86 O96 2.297 1_545 S
Cd86 O97 2.439 . S
O87 Cd86 2.240 . S
O87 C92 1.279 . S
O88 Cd85 2.297 . S
O88 C90 1.247 . S
O89 Cd85 2.439 . S
O89 C90 1.208 . S
C90 O88 1.247 . S
C90 O89 1.208 . S
C91 O96 1.247 1_545 S
C91 O97 1.208 . S
C92 O84 1.315 . S
C92 O87 1.279 . S
C93 O94 1.315 1_545 S
C93 O95 1.279 . S
O94 Cd86 2.223 1_565 S
O94 C93 1.315 1_565 S
O95 Cd85 2.240 . S
O95 C93 1.279 . S
O96 Cd86 2.297 1_565 S
O96 C91 1.247 1_565 S
O97 Cd86 2.439 . S
O97 C91 1.208 . S
O98 Cd99 2.223 . S
O98 C106 1.315 . S
Cd99 O98 2.223 . S
Cd99 O102 2.297 . S
Cd99 O103 2.439 . S
Cd99 O109 2.240 . S
Cd100 O101 2.240 . S
Cd100 O108 2.223 1_565 S
Cd100 O110 2.297 1_565 S
Cd100 O111 2.439 . S
O101 Cd100 2.240 . S
O101 C106 1.279 . S
O102 Cd99 2.297 . S
O102 C104 1.247 . S
O103 Cd99 2.439 . S
O103 C104 1.208 . S
C104 O102 1.247 . S
C104 O103 1.208 . S
C105 O110 1.247 1_565 S
C105 O111 1.208 . S
C106 O98 1.315 . S
C106 O101 1.279 . S
C107 O108 1.315 1_565 S
C107 O109 1.279 . S
O108 Cd100 2.223 1_545 S
O108 C107 1.315 1_545 S
O109 Cd99 2.240 . S
O109 C107 1.279 . S
O110 Cd100 2.297 1_545 S
O110 C105 1.247 1_545 S
O111 Cd100 2.439 . S
O111 C105 1.208 . S
O112 Cd113 2.223 . S
O112 C120 1.315 . S
Cd113 O112 2.223 . S
Cd113 O116 2.297 . S
Cd113 O117 2.439 . S
Cd113 O123 2.240 . S
Cd114 O115 2.240 . S
Cd114 O122 2.223 . S
Cd114 O124 2.297 . S
Cd114 O125 2.439 . S
O115 Cd114 2.240 . S
O115 C120 1.279 . S
O116 Cd113 2.297 . S
O116 C118 1.247 . S
O117 Cd113 2.439 . S
O117 C118 1.208 . S
C118 O116 1.247 . S
C118 O117 1.208 . S
C119 O124 1.247 . S
C119 O125 1.208 . S
C120 O112 1.315 . S
C120 O115 1.279 . S
C121 O122 1.315 . S
C121 O123 1.279 . S
O122 Cd114 2.223 . S
O122 C121 1.315 . S
O123 Cd113 2.240 . S
O123 C121 1.279 . S
O124 Cd114 2.297 . S
O124 C119 1.247 . S
O125 Cd114 2.439 . S
O125 C119 1.208 . S
O126 Cd127 2.223 . S
O126 C134 1.315 . S
Cd127 O126 2.223 . S
Cd127 O130 2.297 . S
Cd127 O131 2.439 . S
Cd127 O137 2.240 . S
Cd128 O129 2.240 . S
Cd128 O136 2.223 . S
Cd128 O138 2.297 . S
Cd128 O139 2.439 . S
O129 Cd128 2.240 . S
O129 C134 1.279 . S
O130 Cd127 2.297 . S
O130 C132 1.247 . S
O131 Cd127 2.439 . S
O131 C132 1.208 . S
C132 O130 1.247 . S
C132 O131 1.208 . S
C133 O138 1.247 . S
C133 O139 1.208 . S
C134 O126 1.315 . S
C134 O129 1.279 . S
C135 O136 1.315 . S
C135 O137 1.279 . S
O136 Cd128 2.223 . S
O136 C135 1.315 . S
O137 Cd127 2.240 . S
O137 C135 1.279 . S
O138 Cd128 2.297 . S
O138 C133 1.247 . S
O139 Cd128 2.439 . S
O139 C133 1.208 . S
O140 Cd141 2.223 . S
O140 C148 1.315 . S
Cd141 O140 2.223 . S
Cd141 O144 2.297 . S
Cd141 O145 2.439 . S
Cd141 O151 2.240 . S
Cd142 O143 2.240 . S
Cd142 O150 2.223 . S
Cd142 O152 2.297 . S
Cd142 O153 2.439 . S
O143 Cd142 2.240 . S
O143 C148 1.279 . S
O144 Cd141 2.297 . S
O144 C146 1.247 . S
O145 Cd141 2.439 . S
O145 C146 1.208 . S
C146 O144 1.247 . S
C146 O145 1.208 . S
C147 O152 1.247 . S
C147 O153 1.208 . S
C148 O140 1.315 . S
C148 O143 1.279 . S
C149 O150 1.315 . S
C149 O151 1.279 . S
O150 Cd142 2.223 . S
O150 C149 1.315 . S
O151 Cd141 2.240 . S
O151 C149 1.279 . S
O152 Cd142 2.297 . S
O152 C147 1.247 . S
O153 Cd142 2.439 . S
O153 C147 1.208 . S
O154 Cd155 2.223 . S
O154 C162 1.315 . S
Cd155 O154 2.223 . S
Cd155 O158 2.297 . S
Cd155 O159 2.439 . S
Cd155 O165 2.240 . S
Cd156 O157 2.240 . S
Cd156 O164 2.223 . S
Cd156 O166 2.297 . S
Cd156 O167 2.439 . S
O157 Cd156 2.240 . S
O157 C162 1.279 . S
O158 Cd155 2.297 . S
O158 C160 1.247 . S
O159 Cd155 2.439 . S
O159 C160 1.208 . S
C160 O158 1.247 . S
C160 O159 1.208 . S
C161 O166 1.247 . S
C161 O167 1.208 . S
C162 O154 1.315 . S
C162 O157 1.279 . S
C163 O164 1.315 . S
C163 O165 1.279 . S
O164 Cd156 2.223 . S
O164 C163 1.315 . S
O165 Cd155 2.240 . S
O165 C163 1.279 . S
O166 Cd156 2.297 . S
O166 C161 1.247 . S
O167 Cd156 2.439 . S
O167 C161 1.208 . S
O168 Cd169 2.223 . S
O168 C176 1.315 . S
Cd169 O168 2.223 . S
Cd169 O172 2.297 . S
Cd169 O173 2.439 . S
Cd169 O179 2.240 . S
Cd170 O171 2.240 . S
Cd170 O178 2.223 . S
Cd170 O180 2.297 . S
Cd170 O181 2.439 . S
O171 Cd170 2.240 . S
O171 C176 1.279 . S
O172 Cd169 2.297 . S
O172 C174 1.247 . S
O173 Cd169 2.439 . S
O173 C174 1.208 . S
C174 O172 1.247 . S
C174 O173 1.208 . S
C175 O180 1.247 . S
C175 O181 1.208 . S
C176 O168 1.315 . S
C176 O171 1.279 . S
C177 O178 1.315 . S
C177 O179 1.279 . S
O178 Cd170 2.223 . S
O178 C177 1.315 . S
O179 Cd169 2.240 . S
O179 C177 1.279 . S
O180 Cd170 2.297 . S
O180 C175 1.247 . S
O181 Cd170 2.439 . S
O181 C175 1.208 . S
O182 Cd183 2.223 . S
O182 C190 1.315 . S
Cd183 O182 2.223 . S
Cd183 O186 2.297 . S
Cd183 O187 2.439 . S
Cd183 O193 2.240 . S
Cd184 O185 2.240 . S
Cd184 O192 2.223 . S
Cd184 O194 2.297 . S
Cd184 O195 2.439 . S
O185 Cd184 2.240 . S
O185 C190 1.279 . S
O186 Cd183 2.297 . S
O186 C188 1.247 . S
O187 Cd183 2.439 . S
O187 C188 1.208 . S
C188 O186 1.247 . S
C188 O187 1.208 . S
C189 O194 1.247 . S
C189 O195 1.208 . S
C190 O182 1.315 . S
C190 O185 1.279 . S
C191 O192 1.315 . S
C191 O193 1.279 . S
O192 Cd184 2.223 . S
O192 C191 1.315 . S
O193 Cd183 2.240 . S
O193 C191 1.279 . S
O194 Cd184 2.297 . S
O194 C189 1.247 . S
O195 Cd184 2.439 . S
O195 C189 1.208 . S
O196 Cd197 2.223 . S
O196 C204 1.315 . S
Cd197 O196 2.223 . S
Cd197 O200 2.297 . S
Cd197 O201 2.439 . S
Cd197 O207 2.240 . S
Cd198 O199 2.240 . S
Cd198 O206 2.223 . S
Cd198 O208 2.297 . S
Cd198 O209 2.439 . S
O199 Cd198 2.240 . S
O199 C204 1.279 . S
O200 Cd197 2.297 . S
O200 C202 1.247 . S
O201 Cd197 2.439 . S
O201 C202 1.208 . S
C202 O200 1.247 . S
C202 O201 1.208 . S
C203 O208 1.247 . S
C203 O209 1.208 . S
C204 O196 1.315 . S
C204 O199 1.279 . S
C205 O206 1.315 . S
C205 O207 1.279 . S
O206 Cd198 2.223 . S
O206 C205 1.315 . S
O207 Cd197 2.240 . S
O207 C205 1.279 . S
O208 Cd198 2.297 . S
O208 C203 1.247 . S
O209 Cd198 2.439 . S
O209 C203 1.208 . S
O210 Cd211 2.223 . S
O210 C218 1.315 . S
Cd211 O210 2.223 . S
Cd211 O214 2.297 . S
Cd211 O215 2.439 . S
Cd211 O221 2.240 . S
Cd212 O213 2.240 . S
Cd212 O220 2.223 . S
Cd212 O222 2.297 . S
Cd212 O223 2.439 . S
O213 Cd212 2.240 . S
O213 C218 1.279 . S
O214 Cd211 2.297 . S
O214 C216 1.247 . S
O215 Cd211 2.439 . S
O215 C216 1.208 . S
C216 O214 1.247 . S
C216 O215 1.208 . S
C217 O222 1.247 . S
C217 O223 1.208 . S
C218 O210 1.315 . S
C218 O213 1.279 . S
C219 O220 1.315 . S
C219 O221 1.279 . S
O220 Cd212 2.223 . S
O220 C219 1.315 . S
O221 Cd211 2.240 . S
O221 C219 1.279 . S
O222 Cd212 2.297 . S
O222 C217 1.247 . S
O223 Cd212 2.439 . S
O223 C217 1.208 . S
C224 C225 1.387 . S
C224 H228 0.950 . S
C224 C233 1.390 . S
C225 C224 1.387 . S
C225 C227 1.387 . S
H226 C233 0.950 . S
C227 C225 1.387 . S
C227 C229 1.390 . S
C227 H231 0.950 1_545 S
H228 C224 0.950 . S
C229 C227 1.390 . S
C229 C230 1.387 . S
C229 H232 0.950 1_545 S
C230 C229 1.387 . S
C230 C233 1.387 . S
H231 C227 0.950 1_565 S
H232 C229 0.950 1_565 S
C233 C224 1.390 . S
C233 H226 0.950 . S
C233 C230 1.387 . S
C234 C235 1.387 . S
C234 H238 0.950 . S
C234 C243 1.390 . S
C235 C234 1.387 . S
C235 C237 1.387 . S
H236 C243 0.950 . S
C237 C235 1.387 . S
C237 C239 1.390 . S
C237 H241 0.950 1_565 S
H238 C234 0.950 . S
C239 C237 1.390 . S
C239 C240 1.387 . S
C239 H242 0.950 1_565 S
C240 C239 1.387 . S
C240 C243 1.387 . S
H241 C237 0.950 1_545 S
H242 C239 0.950 1_545 S
C243 C234 1.390 . S
C243 H236 0.950 . S
C243 C240 1.387 . S
C244 C245 1.387 . S
C244 H248 0.950 1_565 S
C244 C253 1.390 1_554 S
C245 C244 1.387 . S
C245 C247 1.387 . S
H246 C253 0.950 1_545 S
C247 C245 1.387 . S
C247 C249 1.390 1_554 S
C247 H251 0.950 . S
H248 C244 0.950 1_545 S
C249 C247 1.390 1_556 S
C249 C250 1.387 . S
C249 H252 0.950 . S
C250 C249 1.387 . S
C250 C253 1.387 . S
H251 C247 0.950 . S
H252 C249 0.950 . S
C253 C244 1.390 1_556 S
C253 H246 0.950 1_565 S
C253 C250 1.387 . S
C254 C255 1.387 . S
C254 H258 0.950 1_545 S
C254 C263 1.390 1_556 S
C255 C254 1.387 . S
C255 C257 1.387 . S
H256 C263 0.950 1_565 S
C257 C255 1.387 . S
C257 C259 1.390 1_556 S
C257 H261 0.950 . S
H258 C254 0.950 1_565 S
C259 C257 1.390 1_554 S
C259 C260 1.387 . S
C259 H262 0.950 . S
C260 C259 1.387 . S
C260 C263 1.387 . S
H261 C257 0.950 . S
H262 C259 0.950 . S
C263 C254 1.390 1_554 S
C263 H256 0.950 1_545 S
C263 C260 1.387 . S
C264 C265 1.387 . S
C264 H268 0.950 . S
C264 C273 1.390 . S
C265 C264 1.387 . S
C265 C267 1.387 . S
H266 C273 0.950 . S
C267 C265 1.387 . S
C267 C269 1.390 . S
C267 H271 0.950 . S
H268 C264 0.950 . S
C269 C267 1.390 . S
C269 C270 1.387 . S
C269 H272 0.950 . S
C270 C269 1.387 . S
C270 C273 1.387 . S
H271 C267 0.950 . S
H272 C269 0.950 . S
C273 C264 1.390 . S
C273 H266 0.950 . S
C273 C270 1.387 . S
C274 C275 1.387 . S
C274 H278 0.950 . S
C274 C283 1.390 . S
C275 C274 1.387 . S
C275 C277 1.387 . S
H276 C283 0.950 . S
C277 C275 1.387 . S
C277 C279 1.390 . S
C277 H281 0.950 . S
H278 C274 0.950 . S
C279 C277 1.390 . S
C279 C280 1.387 . S
C279 H282 0.950 . S
C280 C279 1.387 . S
C280 C283 1.387 . S
H281 C277 0.950 . S
H282 C279 0.950 . S
C283 C274 1.390 . S
C283 H276 0.950 . S
C283 C280 1.387 . S
C284 C285 1.387 . S
C284 H288 0.950 . S
C284 C293 1.390 1_556 S
C285 C284 1.387 . S
C285 C287 1.387 . S
H286 C293 0.950 . S
C287 C285 1.387 . S
C287 C289 1.390 1_556 S
C287 H291 0.950 . S
H288 C284 0.950 . S
C289 C287 1.390 1_554 S
C289 C290 1.387 . S
C289 H292 0.950 . S
C290 C289 1.387 . S
C290 C293 1.387 . S
H291 C287 0.950 . S
H292 C289 0.950 . S
C293 C284 1.390 1_554 S
C293 H286 0.950 . S
C293 C290 1.387 . S
C294 C295 1.387 . S
C294 H298 0.950 . S
C294 C303 1.390 1_554 S
C295 C294 1.387 . S
C295 C297 1.387 . S
H296 C303 0.950 . S
C297 C295 1.387 . S
C297 C299 1.390 1_554 S
C297 H301 0.950 . S
H298 C294 0.950 . S
C299 C297 1.390 1_556 S
C299 C300 1.387 . S
C299 H302 0.950 . S
C300 C299 1.387 . S
C300 C303 1.387 . S
H301 C297 0.950 . S
H302 C299 0.950 . S
C303 C294 1.390 1_556 S
C303 H296 0.950 . S
C303 C300 1.387 . S
C304 C305 1.387 . S
C304 H308 0.950 . S
C304 C313 1.390 1_565 S
C305 C304 1.387 . S
C305 C307 1.387 . S
H306 C313 0.950 . S
C307 C305 1.387 . S
C307 C309 1.390 1_565 S
C307 H311 0.950 . S
H308 C304 0.950 . S
C309 C307 1.390 1_545 S
C309 C310 1.387 . S
C309 H312 0.950 . S
C310 C309 1.387 . S
C310 C313 1.387 . S
H311 C307 0.950 . S
H312 C309 0.950 . S
C313 C304 1.390 1_545 S
C313 H306 0.950 . S
C313 C310 1.387 . S
C314 C315 1.387 . S
C314 H318 0.950 . S
C314 C323 1.390 1_565 S
C315 C314 1.387 . S
C315 C317 1.387 . S
H316 C323 0.950 . S
C317 C315 1.387 . S
C317 C319 1.390 1_565 S
C317 H321 0.950 . S
H318 C314 0.950 . S
C319 C317 1.390 1_545 S
C319 C320 1.387 . S
C319 H322 0.950 . S
C320 C319 1.387 . S
C320 C323 1.387 . S
H321 C317 0.950 . S
H322 C319 0.950 . S
C323 C314 1.390 1_545 S
C323 H316 0.950 . S
C323 C320 1.387 . S
C324 C325 1.387 . S
C324 H328 0.950 . S
C324 C333 1.390 1_565 S
C325 C324 1.387 . S
C325 C327 1.387 . S
H326 C333 0.950 . S
C327 C325 1.387 . S
C327 C329 1.390 1_565 S
C327 H331 0.950 . S
H328 C324 0.950 . S
C329 C327 1.390 1_545 S
C329 C330 1.387 . S
C329 H332 0.950 . S
C330 C329 1.387 . S
C330 C333 1.387 . S
H331 C327 0.950 . S
H332 C329 0.950 . S
C333 C324 1.390 1_545 S
C333 H326 0.950 . S
C333 C330 1.387 . S
C334 C335 1.387 . S
C334 H338 0.950 . S
C334 C343 1.390 1_545 S
C335 C334 1.387 . S
C335 C337 1.387 . S
H336 C343 0.950 . S
C337 C335 1.387 . S
C337 C339 1.390 1_545 S
C337 H341 0.950 . S
H338 C334 0.950 . S
C339 C337 1.390 1_565 S
C339 C340 1.387 . S
C339 H342 0.950 . S
C340 C339 1.387 . S
C340 C343 1.387 . S
H341 C337 0.950 . S
H342 C339 0.950 . S
C343 C334 1.390 1_565 S
C343 H336 0.950 . S
C343 C340 1.387 . S
C344 C345 1.387 . S
C344 H348 0.950 . S
C344 C353 1.390 1_655 S
C345 C344 1.387 . S
C345 C347 1.387 . S
H346 C353 0.950 . S
C347 C345 1.387 . S
C347 C349 1.390 1_655 S
C347 H351 0.950 . S
H348 C344 0.950 . S
C349 C347 1.390 1_455 S
C349 C350 1.387 . S
C349 H352 0.950 . S
C350 C349 1.387 . S
C350 C353 1.387 . S
H351 C347 0.950 . S
H352 C349 0.950 . S
C353 C344 1.390 1_455 S
C353 H346 0.950 . S
C353 C350 1.387 . S
C354 C355 1.387 . S
C354 H358 0.950 . S
C354 C363 1.390 1_455 S
C355 C354 1.387 . S
C355 C357 1.387 . S
H356 C363 0.950 . S
C357 C355 1.387 . S
C357 C359 1.390 1_455 S
C357 H361 0.950 . S
H358 C354 0.950 . S
C359 C357 1.390 1_655 S
C359 C360 1.387 . S
C359 H362 0.950 . S
C360 C359 1.387 . S
C360 C363 1.387 . S
H361 C357 0.950 . S
H362 C359 0.950 . S
C363 C354 1.390 1_655 S
C363 H356 0.950 . S
C363 C360 1.387 . S
C364 C365 1.387 . S
C364 H368 0.950 . S
C364 C373 1.390 1_655 S
C365 C364 1.387 . S
C365 C367 1.387 . S
H366 C373 0.950 . S
C367 C365 1.387 . S
C367 C369 1.390 1_655 S
C367 H371 0.950 . S
H368 C364 0.950 . S
C369 C367 1.390 1_455 S
C369 C370 1.387 . S
C369 H372 0.950 . S
C370 C369 1.387 . S
C370 C373 1.387 . S
H371 C367 0.950 . S
H372 C369 0.950 . S
C373 C364 1.390 1_455 S
C373 H366 0.950 . S
C373 C370 1.387 . S
C374 C375 1.387 . S
C374 H378 0.950 . S
C374 C383 1.390 1_455 S
C375 C374 1.387 . S
C375 C377 1.387 . S
H376 C383 0.950 . S
C377 C375 1.387 . S
C377 C379 1.390 1_455 S
C377 H381 0.950 . S
H378 C374 0.950 . S
C379 C377 1.390 1_655 S
C379 C380 1.387 . S
C379 H382 0.950 . S
C380 C379 1.387 . S
C380 C383 1.387 . S
H381 C377 0.950 . S
H382 C379 0.950 . S
C383 C374 1.390 1_655 S
C383 H376 0.950 . S
C383 C380 1.387 . S
C384 C385 1.387 . S
C384 H388 0.950 . S
C384 C393 1.390 . S
C385 C384 1.387 . S
C385 C387 1.387 . S
H386 C393 0.950 . S
C387 C385 1.387 . S
C387 C389 1.390 . S
C387 H391 0.950 . S
H388 C384 0.950 . S
C389 C387 1.390 . S
C389 C390 1.387 . S
C389 H392 0.950 . S
C390 C389 1.387 . S
C390 C393 1.387 . S
H391 C387 0.950 . S
H392 C389 0.950 . S
C393 C384 1.390 . S
C393 H386 0.950 . S
C393 C390 1.387 . S
C394 C395 1.387 . S
C394 H398 0.950 . S
C394 C403 1.390 . S
C395 C394 1.387 . S
C395 C397 1.387 . S
H396 C403 0.950 . S
C397 C395 1.387 . S
C397 C399 1.390 . S
C397 H401 0.950 . S
H398 C394 0.950 . S
C399 C397 1.390 . S
C399 C400 1.387 . S
C399 H402 0.950 . S
C400 C399 1.387 . S
C400 C403 1.387 . S
H401 C397 0.950 . S
H402 C399 0.950 . S
C403 C394 1.390 . S
C403 H396 0.950 . S
C403 C400 1.387 . S
C404 C405 1.387 . S
C404 H408 0.950 . S
C404 C413 1.390 . S
C405 C404 1.387 . S
C405 C407 1.387 . S
H406 C413 0.950 . S
C407 C405 1.387 . S
C407 C409 1.390 . S
C407 H411 0.950 . S
H408 C404 0.950 . S
C409 C407 1.390 . S
C409 C410 1.387 . S
C409 H412 0.950 . S
C410 C409 1.387 . S
C410 C413 1.387 . S
H411 C407 0.950 . S
H412 C409 0.950 . S
C413 C404 1.390 . S
C413 H406 0.950 . S
C413 C410 1.387 . S
C414 C415 1.387 . S
C414 H418 0.950 . S
C414 C423 1.390 . S
C415 C414 1.387 . S
C415 C417 1.387 . S
H416 C423 0.950 . S
C417 C415 1.387 . S
C417 C419 1.390 . S
C417 H421 0.950 . S
H418 C414 0.950 . S
C419 C417 1.390 . S
C419 C420 1.387 . S
C419 H422 0.950 . S
C420 C419 1.387 . S
C420 C423 1.387 . S
H421 C417 0.950 . S
H422 C419 0.950 . S
C423 C414 1.390 . S
C423 H416 0.950 . S
C423 C420 1.387 . S
C424 C425 1.387 . S
C424 H428 0.950 . S
C424 C433 1.390 . S
C425 C424 1.387 . S
C425 C427 1.387 . S
H426 C433 0.950 . S
C427 C425 1.387 . S
C427 C429 1.390 . S
C427 H431 0.950 . S
H428 C424 0.950 . S
C429 C427 1.390 . S
C429 C430 1.387 . S
C429 H432 0.950 . S
C430 C429 1.387 . S
C430 C433 1.387 . S
H431 C427 0.950 . S
H432 C429 0.950 . S
C433 C424 1.390 . S
C433 H426 0.950 . S
C433 C430 1.387 . S
C434 C435 1.387 . S
C434 H438 0.950 . S
C434 C443 1.390 . S
C435 C434 1.387 . S
C435 C437 1.387 . S
H436 C443 0.950 . S
C437 C435 1.387 . S
C437 C439 1.390 . S
C437 H441 0.950 . S
H438 C434 0.950 . S
C439 C437 1.390 . S
C439 C440 1.387 . S
C439 H442 0.950 . S
C440 C439 1.387 . S
C440 C443 1.387 . S
H441 C437 0.950 . S
H442 C439 0.950 . S
C443 C434 1.390 . S
C443 H436 0.950 . S
C443 C440 1.387 . S
C444 C445 1.387 . S
C444 H448 0.950 . S
C444 C453 1.390 . S
C445 C444 1.387 . S
C445 C447 1.387 . S
H446 C453 0.950 . S
C447 C445 1.387 . S
C447 C449 1.390 . S
C447 H451 0.950 . S
H448 C444 0.950 . S
C449 C447 1.390 . S
C449 C450 1.387 . S
C449 H452 0.950 . S
C450 C449 1.387 . S
C450 C453 1.387 . S
H451 C447 0.950 . S
H452 C449 0.950 . S
C453 C444 1.390 . S
C453 H446 0.950 . S
C453 C450 1.387 . S
C454 C455 1.387 . S
C454 H458 0.950 . S
C454 C463 1.390 . S
C455 C454 1.387 . S
C455 C457 1.387 . S
H456 C463 0.950 . S
C457 C455 1.387 . S
C457 C459 1.390 . S
C457 H461 0.950 . S
H458 C454 0.950 . S
C459 C457 1.390 . S
C459 C460 1.387 . S
C459 H462 0.950 . S
C460 C459 1.387 . S
C460 C463 1.387 . S
H461 C457 0.950 . S
H462 C459 0.950 . S
C463 C454 1.390 . S
C463 H456 0.950 . S
C463 C460 1.387 . S
C464 C465 1.387 . S
C464 H468 0.950 . S
C464 C473 1.390 1_545 S
C465 C464 1.387 . S
C465 C467 1.387 . S
H466 C473 0.950 . S
C467 C465 1.387 . S
C467 C469 1.390 1_545 S
C467 H471 0.950 . S
H468 C464 0.950 . S
C469 C467 1.390 1_565 S
C469 C470 1.387 . S
C469 H472 0.950 . S
C470 C469 1.387 . S
C470 C473 1.387 . S
H471 C467 0.950 . S
H472 C469 0.950 . S
C473 C464 1.390 1_565 S
C473 H466 0.950 . S
C473 C470 1.387 . S
C474 C475 1.387 . S
C474 H478 0.950 . S
C474 C483 1.390 1_545 S
C475 C474 1.387 . S
C475 C477 1.387 . S
H476 C483 0.950 . S
C477 C475 1.387 . S
C477 C479 1.390 1_545 S
C477 H481 0.950 . S
H478 C474 0.950 . S
C479 C477 1.390 1_565 S
C479 C480 1.387 . S
C479 H482 0.950 . S
C480 C479 1.387 . S
C480 C483 1.387 . S
H481 C477 0.950 . S
H482 C479 0.950 . S
C483 C474 1.390 1_565 S
C483 H476 0.950 . S
C483 C480 1.387 . S
C484 C485 1.387 . S
C484 H488 0.950 . S
C484 C493 1.390 1_545 S
C485 C484 1.387 . S
C485 C487 1.387 . S
H486 C493 0.950 . S
C487 C485 1.387 . S
C487 C489 1.390 1_545 S
C487 H491 0.950 . S
H488 C484 0.950 . S
C489 C487 1.390 1_565 S
C489 C490 1.387 . S
C489 H492 0.950 . S
C490 C489 1.387 . S
C490 C493 1.387 . S
H491 C487 0.950 . S
H492 C489 0.950 . S
C493 C484 1.390 1_565 S
C493 H486 0.950 . S
C493 C490 1.387 . S
C494 C495 1.387 . S
C494 H498 0.950 . S
C494 C503 1.390 1_565 S
C495 C494 1.387 . S
C495 C497 1.387 . S
H496 C503 0.950 . S
C497 C495 1.387 . S
C497 C499 1.390 1_565 S
C497 H501 0.950 . S
H498 C494 0.950 . S
C499 C497 1.390 1_545 S
C499 C500 1.387 . S
C499 H502 0.950 . S
C500 C499 1.387 . S
C500 C503 1.387 . S
H501 C497 0.950 . S
H502 C499 0.950 . S
C503 C494 1.390 1_545 S
C503 H496 0.950 . S
C503 C500 1.387 . S
C504 C505 1.387 . S
C504 H508 0.950 . S
C504 C513 1.390 . S
C505 C504 1.387 . S
C505 C507 1.387 . S
H506 C513 0.950 . S
C507 C505 1.387 . S
C507 C509 1.390 . S
C507 H511 0.950 . S
H508 C504 0.950 . S
C509 C507 1.390 . S
C509 C510 1.387 . S
C509 H512 0.950 . S
C510 C509 1.387 . S
C510 C513 1.387 . S
H511 C507 0.950 . S
H512 C509 0.950 . S
C513 C504 1.390 . S
C513 H506 0.950 . S
C513 C510 1.387 . S
C514 C515 1.387 . S
C514 H518 0.950 . S
C514 C523 1.390 . S
C515 C514 1.387 . S
C515 C517 1.387 . S
H516 C523 0.950 . S
C517 C515 1.387 . S
C517 C519 1.390 . S
C517 H521 0.950 . S
H518 C514 0.950 . S
C519 C517 1.390 . S
C519 C520 1.387 . S
C519 H522 0.950 . S
C520 C519 1.387 . S
C520 C523 1.387 . S
H521 C517 0.950 . S
H522 C519 0.950 . S
C523 C514 1.390 . S
C523 H516 0.950 . S
C523 C520 1.387 . S
C524 C525 1.387 . S
C524 H528 0.950 . S
C524 C533 1.390 . S
C525 C524 1.387 . S
C525 C527 1.387 . S
H526 C533 0.950 . S
C527 C525 1.387 . S
C527 C529 1.390 . S
C527 H531 0.950 . S
H528 C524 0.950 . S
C529 C527 1.390 . S
C529 C530 1.387 . S
C529 H532 0.950 . S
C530 C529 1.387 . S
C530 C533 1.387 . S
H531 C527 0.950 . S
H532 C529 0.950 . S
C533 C524 1.390 . S
C533 H526 0.950 . S
C533 C530 1.387 . S
C534 C535 1.387 . S
C534 H538 0.950 . S
C534 C543 1.390 . S
C535 C534 1.387 . S
C535 C537 1.387 . S
H536 C543 0.950 . S
C537 C535 1.387 . S
C537 C539 1.390 . S
C537 H541 0.950 . S
H538 C534 0.950 . S
C539 C537 1.390 . S
C539 C540 1.387 . S
C539 H542 0.950 . S
C540 C539 1.387 . S
C540 C543 1.387 . S
H541 C537 0.950 . S
H542 C539 0.950 . S
C543 C534 1.390 . S
C543 H536 0.950 . S
C543 C540 1.387 . S
C225 C8 1.269 . S
C230 C78 1.270 . S
C235 C64 1.270 . S
C240 C22 1.269 . S
C245 C36 1.271 . S
C250 C106 1.268 . S
C255 C92 1.269 . S
C260 C50 1.270 . S
C265 C190 1.271 . S
C270 C120 1.268 . S
C275 C176 1.270 . S
C280 C134 1.269 . S
C285 C218 1.269 . S
C290 C148 1.270 . S
C295 C162 1.271 . S
C300 C204 1.268 . S
C305 C23 1.510 . S
C310 C9 1.510 . S
C315 C37 1.512 . S
C320 C51 1.512 . S
C325 C65 1.510 . S
C330 C79 1.510 . S
C335 C93 1.512 . S
C340 C107 1.512 . S
C345 C121 1.512 . S
C350 C135 1.512 . S
C355 C163 1.510 . S
C360 C149 1.510 . S
C365 C191 1.512 . S
C370 C177 1.512 . S
C375 C205 1.510 . S
C380 C219 1.510 . S
C385 C132 1.518 . S
C390 C6 1.518 . S
C395 C20 1.521 . S
C400 C118 1.521 . S
C405 C160 1.518 . S
C410 C34 1.518 . S
C415 C48 1.518 . S
C420 C146 1.518 . S
C425 C62 1.518 . S
C430 C188 1.518 . S
C435 C174 1.521 . S
C440 C76 1.521 . S
C445 C90 1.521 . S
C450 C216 1.521 . S
C455 C202 1.521 . S
C460 C104 1.521 . S
C465 C7 1.530 . S
C470 C35 1.530 . S
C475 C49 1.531 . S
C480 C21 1.531 . S
C485 C91 1.531 . S
C490 C63 1.531 . S
C495 C105 1.530 . S
C500 C77 1.530 . S
C505 C147 1.530 . S
C510 C119 1.530 . S
C515 C133 1.531 . S
C520 C161 1.531 . S
C525 C203 1.530 . S
C530 C175 1.530 . S
C535 C189 1.530 . S
C540 C217 1.530 . S
