# Generated by pormake.
# Topology swl, (7)-cn, num edge types: 1
# Building blocks:
#     Node 0, Type 0, BuildingBlock: HICVOG_clean_sbu_0, # of connection points: 7
#     Node 1, Type 0, BuildingBlock: HICVOG_clean_sbu_0, # of connection points: 7
#     Node 2, Type 0, BuildingBlock: HICVOG_clean_sbu_0, # of connection points: 7
#     Node 3, Type 0, BuildingBlock: HICVOG_clean_sbu_0, # of connection points: 7
#     Node 4, Type 0, BuildingBlock: HICVOG_clean_sbu_0, # of connection points: 7
#     Node 5, Type 0, BuildingBlock: HICVOG_clean_sbu_0, # of connection points: 7
#     Node 6, Type 0, BuildingBlock: HICVOG_clean_sbu_0, # of connection points: 7
#     Node 7, Type 0, BuildingBlock: HICVOG_clean_sbu_0, # of connection points: 7
#     Node 8, Type 0, BuildingBlock: HICVOG_clean_sbu_0, # of connection points: 7
#     Node 9, Type 0, BuildingBlock: HICVOG_clean_sbu_0, # of connection points: 7
#     Node 10, Type 0, BuildingBlock: HICVOG_clean_sbu_0, # of connection points: 7
#     Node 11, Type 0, BuildingBlock: HICVOG_clean_sbu_0, # of connection points: 7
#     Node 12, Type 0, BuildingBlock: HICVOG_clean_sbu_0, # of connection points: 7
#     Node 13, Type 0, BuildingBlock: HICVOG_clean_sbu_0, # of connection points: 7
#     Node 14, Type 0, BuildingBlock: HICVOG_clean_sbu_0, # of connection points: 7
#     Node 15, Type 0, BuildingBlock: HICVOG_clean_sbu_0, # of connection points: 7
#     Edge 16, Type (0, 0), BuildingBlock: CIFDUS_clean_linker_0, # of connection points: 2
#     Edge 17, Type (0, 0), BuildingBlock: CIFDUS_clean_linker_0, # of connection points: 2
#     Edge 18, Type (0, 0), BuildingBlock: CIFDUS_clean_linker_0, # of connection points: 2
#     Edge 19, Type (0, 0), BuildingBlock: CIFDUS_clean_linker_0, # of connection points: 2
#     Edge 20, Type (0, 0), BuildingBlock: CIFDUS_clean_linker_0, # of connection points: 2
#     Edge 21, Type (0, 0), BuildingBlock: CIFDUS_clean_linker_0, # of connection points: 2
#     Edge 22, Type (0, 0), BuildingBlock: CIFDUS_clean_linker_0, # of connection points: 2
#     Edge 23, Type (0, 0), BuildingBlock: CIFDUS_clean_linker_0, # of connection points: 2
#     Edge 24, Type (0, 0), BuildingBlock: CIFDUS_clean_linker_0, # of connection points: 2
#     Edge 25, Type (0, 0), BuildingBlock: CIFDUS_clean_linker_0, # of connection points: 2
#     Edge 26, Type (0, 0), BuildingBlock: CIFDUS_clean_linker_0, # of connection points: 2
#     Edge 27, Type (0, 0), BuildingBlock: CIFDUS_clean_linker_0, # of connection points: 2
#     Edge 28, Type (0, 0), BuildingBlock: CIFDUS_clean_linker_0, # of connection points: 2
#     Edge 29, Type (0, 0), BuildingBlock: CIFDUS_clean_linker_0, # of connection points: 2
#     Edge 30, Type (0, 0), BuildingBlock: CIFDUS_clean_linker_0, # of connection points: 2
#     Edge 31, Type (0, 0), BuildingBlock: CIFDUS_clean_linker_0, # of connection points: 2
#     Edge 32, Type (0, 0), BuildingBlock: CIFDUS_clean_linker_0, # of connection points: 2
#     Edge 33, Type (0, 0), BuildingBlock: CIFDUS_clean_linker_0, # of connection points: 2
#     Edge 34, Type (0, 0), BuildingBlock: CIFDUS_clean_linker_0, # of connection points: 2
#     Edge 35, Type (0, 0), BuildingBlock: CIFDUS_clean_linker_0, # of connection points: 2
#     Edge 36, Type (0, 0), BuildingBlock: CIFDUS_clean_linker_0, # of connection points: 2
#     Edge 37, Type (0, 0), BuildingBlock: CIFDUS_clean_linker_0, # of connection points: 2
#     Edge 38, Type (0, 0), BuildingBlock: CIFDUS_clean_linker_0, # of connection points: 2
#     Edge 39, Type (0, 0), BuildingBlock: CIFDUS_clean_linker_0, # of connection points: 2
#     Edge 40, Type (0, 0), BuildingBlock: CIFDUS_clean_linker_0, # of connection points: 2
#     Edge 41, Type (0, 0), BuildingBlock: CIFDUS_clean_linker_0, # of connection points: 2
#     Edge 42, Type (0, 0), BuildingBlock: CIFDUS_clean_linker_0, # of connection points: 2
#     Edge 43, Type (0, 0), BuildingBlock: CIFDUS_clean_linker_0, # of connection points: 2
#     Edge 44, Type (0, 0), BuildingBlock: CIFDUS_clean_linker_0, # of connection points: 2
#     Edge 45, Type (0, 0), BuildingBlock: CIFDUS_clean_linker_0, # of connection points: 2
#     Edge 46, Type (0, 0), BuildingBlock: CIFDUS_clean_linker_0, # of connection points: 2
#     Edge 47, Type (0, 0), BuildingBlock: CIFDUS_clean_linker_0, # of connection points: 2
#     Edge 48, Type (0, 0), BuildingBlock: CIFDUS_clean_linker_0, # of connection points: 2
#     Edge 49, Type (0, 0), BuildingBlock: CIFDUS_clean_linker_0, # of connection points: 2
#     Edge 50, Type (0, 0), BuildingBlock: CIFDUS_clean_linker_0, # of connection points: 2
#     Edge 51, Type (0, 0), BuildingBlock: CIFDUS_clean_linker_0, # of connection points: 2
#     Edge 52, Type (0, 0), BuildingBlock: CIFDUS_clean_linker_0, # of connection points: 2
#     Edge 53, Type (0, 0), BuildingBlock: CIFDUS_clean_linker_0, # of connection points: 2
#     Edge 54, Type (0, 0), BuildingBlock: CIFDUS_clean_linker_0, # of connection points: 2
#     Edge 55, Type (0, 0), BuildingBlock: CIFDUS_clean_linker_0, # of connection points: 2
#     Edge 56, Type (0, 0), BuildingBlock: CIFDUS_clean_linker_0, # of connection points: 2
#     Edge 57, Type (0, 0), BuildingBlock: CIFDUS_clean_linker_0, # of connection points: 2
#     Edge 58, Type (0, 0), BuildingBlock: CIFDUS_clean_linker_0, # of connection points: 2
#     Edge 59, Type (0, 0), BuildingBlock: CIFDUS_clean_linker_0, # of connection points: 2
#     Edge 60, Type (0, 0), BuildingBlock: CIFDUS_clean_linker_0, # of connection points: 2
#     Edge 61, Type (0, 0), BuildingBlock: CIFDUS_clean_linker_0, # of connection points: 2
#     Edge 62, Type (0, 0), BuildingBlock: CIFDUS_clean_linker_0, # of connection points: 2
#     Edge 63, Type (0, 0), BuildingBlock: CIFDUS_clean_linker_0, # of connection points: 2
#     Edge 64, Type (0, 0), BuildingBlock: CIFDUS_clean_linker_0, # of connection points: 2
#     Edge 65, Type (0, 0), BuildingBlock: CIFDUS_clean_linker_0, # of connection points: 2
#     Edge 66, Type (0, 0), BuildingBlock: CIFDUS_clean_linker_0, # of connection points: 2
#     Edge 67, Type (0, 0), BuildingBlock: CIFDUS_clean_linker_0, # of connection points: 2
#     Edge 68, Type (0, 0), BuildingBlock: CIFDUS_clean_linker_0, # of connection points: 2
#     Edge 69, Type (0, 0), BuildingBlock: CIFDUS_clean_linker_0, # of connection points: 2
#     Edge 70, Type (0, 0), BuildingBlock: CIFDUS_clean_linker_0, # of connection points: 2
#     Edge 71, Type (0, 0), BuildingBlock: CIFDUS_clean_linker_0, # of connection points: 2
# Relax obj value: 0.086
# Max RMSD: 0.181
# Mean RMSD: 0.181
data_MOF--net-swl--node1-HICVOG_clean_sbu_0--edge1-CIFDUS_clean_linker_0
_symmetry_space_group_name_H-M    P1
_symmetry_Int_Tables_number       1
_symmetry_cell_setting            triclinic
loop_
_symmetry_equiv_pos_as_xyz
'x, y, z'
_cell_length_a     16.440236
_cell_length_b     71.948654
_cell_length_c     45.703732
_cell_angle_alpha  89.536695
_cell_angle_beta   89.625749
_cell_angle_gamma 90.164568
loop_
_atom_site_label
_atom_site_type_symbol
_atom_site_fract_x
_atom_site_fract_y
_atom_site_fract_z
_atom_type_partial_charge
Zn0 Zn 0.00626 0.1207 0.51242 0.0
C1 C 0.16124 0.14361 0.45563 0.0
N2 N 0.10337 0.1401 0.43582 0.0
C3 C 0.04033 0.13477 0.45266 0.0
N4 N 0.05841 0.13482 0.48139 0.0
N5 N 0.13452 0.14053 0.4832 0.0
C6 C 0.35329 0.13822 0.51903 0.0
O7 O 0.32166 0.12222 0.52732 0.0
O8 O 0.88457 0.11813 0.50625 0.0
Zn9 Zn 0.18364 0.14965 0.51863 0.0
N10 N 0.05773 0.09645 0.51221 0.0
C11 C 0.18367 0.08027 0.51317 0.0
C12 C 0.14032 0.09682 0.51259 0.0
C13 C 0.01618 0.08004 0.51251 0.0
N14 N 0.14262 0.06392 0.51353 0.0
C15 C 0.05983 0.06316 0.51321 0.0
O16 O 0.15741 0.13522 0.55607 0.0
C17 C 0.08872 0.13204 0.56828 0.0
O18 O 0.02372 0.13049 0.55341 0.0
H19 H 0.17222 0.10993 0.51276 0.0
H20 H 0.95042 0.08024 0.51288 0.0
C21 C 0.18283 0.18979 0.52787 0.0
C22 C 0.14345 0.20705 0.53151 0.0
C23 C 0.01564 0.19179 0.52736 0.0
C24 C 0.05483 0.17484 0.52393 0.0
N25 N 0.13736 0.17413 0.52422 0.0
N26 N 0.06062 0.20741 0.53103 0.0
H27 H 0.24841 0.18874 0.52742 0.0
C28 C 0.8379 0.1315 0.51317 0.0
O29 O 0.87014 0.14687 0.52327 0.0
O30 O 0.30634 0.1519 0.51405 0.0
H31 H 0.01982 0.16231 0.52089 0.0
H32 H 0.24946 0.08041 0.5135 0.0
H33 H 0.94994 0.19256 0.52707 0.0
Zn34 Zn 0.04202 0.14723 0.79095 0.0
C35 C 0.20683 0.14053 0.85434 0.0
N36 N 0.14902 0.14917 0.86976 0.0
C37 C 0.0852 0.14943 0.8518 0.0
N38 N 0.1038 0.14163 0.82587 0.0
N39 N 0.18045 0.1359 0.82735 0.0
C40 C 0.39354 0.13733 0.79885 0.0
O41 O 0.34865 0.15227 0.79552 0.0
O42 O 0.91774 0.1457 0.7971 0.0
Zn43 Zn 0.23244 0.11919 0.79953 0.0
N44 N 0.07599 0.17235 0.78132 0.0
C45 C 0.19035 0.19047 0.76637 0.0
C46 C 0.15525 0.17333 0.77283 0.0
C47 C 0.02981 0.18798 0.78375 0.0
N48 N 0.14486 0.20605 0.76882 0.0
C49 C 0.06531 0.20547 0.77732 0.0
O50 O 0.19952 0.12314 0.75724 0.0
C51 C 0.13597 0.12674 0.74241 0.0
O52 O 0.07143 0.13306 0.75427 0.0
H53 H 0.19122 0.16082 0.77148 0.0
H54 H 0.96746 0.18677 0.79121 0.0
C55 C 0.23049 0.07862 0.79813 0.0
C56 C 0.20104 0.06082 0.80624 0.0
C57 C 0.10463 0.07507 0.83779 0.0
C58 C 0.134 0.09252 0.82976 0.0
N59 N 0.19639 0.09405 0.81016 0.0
N60 N 0.13858 0.05972 0.8259 0.0
H61 H 0.27863 0.08036 0.7821 0.0
C62 C 0.88231 0.13058 0.80455 0.0
O63 O 0.92709 0.11578 0.80937 0.0
O64 O 0.35811 0.12158 0.80088 0.0
H65 H 0.10669 0.10475 0.8391 0.0
H66 H 0.25347 0.19143 0.75967 0.0
H67 H 0.05501 0.0737 0.85333 0.0
Zn68 Zn 0.97473 0.89975 0.5341 0.0
C69 C 0.82976 0.88443 0.60026 0.0
N70 N 0.89124 0.89183 0.61546 0.0
C71 C 0.9487 0.89462 0.59517 0.0
N72 N 0.92358 0.88939 0.56856 0.0
N73 N 0.84877 0.88265 0.57146 0.0
C74 C 0.6305 0.882 0.54722 0.0
O75 O 0.66454 0.89752 0.55595 0.0
O76 O 0.0974 0.9032 0.5396 0.0
Zn77 Zn 0.79947 0.86656 0.54203 0.0
N78 N 0.92223 0.92348 0.52819 0.0
C79 C 0.79657 0.93887 0.52015 0.0
C80 C 0.84065 0.92258 0.52394 0.0
C81 C 0.96208 0.94008 0.52873 0.0
N82 N 0.83589 0.95545 0.52081 0.0
C83 C 0.9177 0.95672 0.52506 0.0
O84 O 0.83903 0.87036 0.49977 0.0
C85 C 0.90061 0.87635 0.48537 0.0
O86 O 0.95657 0.88579 0.49728 0.0
H87 H 0.81024 0.90923 0.52359 0.0
H88 H 0.02723 0.94012 0.53166 0.0
C89 C 0.79315 0.82597 0.54233 0.0
C90 C 0.82202 0.80808 0.54983 0.0
C91 C 0.92869 0.82204 0.57684 0.0
C92 C 0.90012 0.83959 0.56931 0.0
N93 N 0.8329 0.8413 0.55232 0.0
N94 N 0.88932 0.80679 0.56694 0.0
H95 H 0.74114 0.82782 0.52826 0.0
C96 C 0.14663 0.89087 0.53037 0.0
O97 O 0.11711 0.87624 0.51704 0.0
O98 O 0.67529 0.86812 0.54109 0.0
H99 H 0.93202 0.85175 0.57683 0.0
H100 H 0.73153 0.93837 0.51676 0.0
H101 H 0.98214 0.82052 0.59033 0.0
Zn102 Zn 0.76098 0.89779 0.26362 0.0
C103 C 0.9122 0.88642 0.19657 0.0
N104 N 0.85013 0.89342 0.18112 0.0
C105 C 0.79232 0.89593 0.20135 0.0
N106 N 0.81794 0.89091 0.22816 0.0
N107 N 0.89356 0.88475 0.22544 0.0
C108 C 0.11095 0.88791 0.24626 0.0
O109 O 0.0667 0.90255 0.23988 0.0
O110 O 0.63544 0.89782 0.2591 0.0
Zn111 Zn 0.94959 0.87061 0.25611 0.0
N112 N 0.80347 0.92228 0.27254 0.0
C113 C 0.92446 0.93894 0.28356 0.0
C114 C 0.88481 0.92235 0.2776 0.0
C115 C 0.75979 0.93836 0.27272 0.0
N116 N 0.88133 0.95494 0.28388 0.0
C117 C 0.79989 0.95533 0.2786 0.0
O118 O 0.91965 0.87661 0.29841 0.0
C119 C 0.85179 0.87757 0.31201 0.0
O120 O 0.7864 0.88211 0.29908 0.0
H121 H 0.9189 0.90958 0.27659 0.0
H122 H 0.6957 0.93785 0.26765 0.0
C123 C 0.95544 0.82961 0.25527 0.0
C124 C 0.91726 0.81203 0.25349 0.0
C125 C 0.79068 0.82698 0.24535 0.0
C126 C 0.82836 0.84421 0.24744 0.0
N127 N 0.90983 0.84528 0.25207 0.0
N128 N 0.83573 0.81138 0.2485 0.0
H129 H 0.01958 0.83093 0.25994 0.0
C130 C 0.59618 0.88349 0.26804 0.0
O131 O 0.63739 0.86963 0.27946 0.0
O132 O 0.07493 0.87274 0.25316 0.0
H133 H 0.79246 0.85669 0.24593 0.0
H134 H 0.9892 0.93916 0.28764 0.0
H135 H 0.72589 0.82599 0.24165 0.0
Zn136 Zn 0.21879 0.64491 1.00744 0.0
C137 C 0.07001 0.61873 0.95133 0.0
N138 N 0.12695 0.62239 0.93119 0.0
C139 C 0.18749 0.62988 0.94679 0.0
N140 N 0.16854 0.63087 0.97567 0.0
N141 N 0.09473 0.62358 0.9782 0.0
C142 C 0.87125 0.62321 1.01589 0.0
O143 O 0.90065 0.63824 0.02813 0.0
O144 O 0.34271 0.6454 1.00535 0.0
Zn145 Zn 0.04285 0.6144 1.01319 0.0
N146 N 0.17418 0.6699 1.00459 0.0
C147 C 0.05249 0.68735 0.99936 0.0
C148 C 0.0924 0.67038 1.00068 0.0
C149 C 0.2181 0.68588 1.00768 0.0
N150 N 0.09575 0.70325 1.00258 0.0
C151 C 0.17768 0.70324 1.00691 0.0
O152 O 0.05761 0.63032 0.0484 0.0
C153 C 0.12151 0.6347 0.06224 0.0
O154 O 0.19001 0.63668 0.0493 0.0
H155 H 0.05824 0.65761 0.99895 0.0
H156 H 0.28307 0.68489 1.01066 0.0
C157 C 0.05423 0.57443 1.023 0.0
C158 C 0.09775 0.55777 0.02771 0.0
C159 C 0.22043 0.5753 0.02979 0.0
C160 C 0.17728 0.59159 1.02469 0.0
N161 N 0.09526 0.59089 1.02152 0.0
N162 N 0.17991 0.55888 0.0311 0.0
H163 H 0.9889 0.57452 1.02064 0.0
C164 C 0.38772 0.63147 0.99977 0.0
O165 O 0.35361 0.61545 0.99362 0.0
O166 O 0.92053 0.61063 1.00756 0.0
H167 H 0.20895 0.60472 1.02302 0.0
H168 H 0.9874 0.68791 0.99616 0.0
H169 H 0.28576 0.57567 0.03241 0.0
Zn170 Zn 0.04367 0.65013 0.2863 0.0
C171 C 0.18403 0.63391 0.35323 0.0
N172 N 0.12031 0.64008 0.36876 0.0
C173 C 0.06523 0.64375 0.34821 0.0
N174 N 0.09371 0.64001 0.3212 0.0
N175 N 0.16912 0.63379 0.32417 0.0
C176 C 0.39442 0.63765 0.30701 0.0
O177 O 0.35141 0.65209 0.3152 0.0
O178 O 0.91757 0.64945 0.2893 0.0
Zn179 Zn 0.23173 0.62225 0.29284 0.0
N180 N 0.0857 0.67531 0.28417 0.0
C181 C 0.20726 0.69329 0.28502 0.0
C182 C 0.16806 0.67619 0.28614 0.0
C183 C 0.0404 0.69101 0.28088 0.0
N184 N 0.16252 0.70894 0.28187 0.0
C185 C 0.07991 0.7085 0.27974 0.0
O186 O 0.21236 0.63313 0.2525 0.0
C187 C 0.14987 0.63611 0.23681 0.0
O188 O 0.07966 0.63875 0.24802 0.0
H189 H 0.20311 0.6636 0.28847 0.0
H190 H 0.97521 0.68971 0.27874 0.0
C191 C 0.23184 0.58099 0.29059 0.0
C192 C 0.19041 0.56379 0.28825 0.0
C193 C 0.06501 0.58003 0.2853 0.0
C194 C 0.10596 0.59684 0.28771 0.0
N195 N 0.18826 0.59709 0.29032 0.0
N196 N 0.10795 0.564 0.28562 0.0
H197 H 0.29737 0.58168 0.29216 0.0
C198 C 0.87843 0.63603 0.27781 0.0
O199 O 0.91976 0.62334 0.26357 0.0
O200 O 0.35709 0.62321 0.29805 0.0
H201 H 0.0723 0.6097 0.28735 0.0
H202 H 0.27279 0.69416 0.28659 0.0
H203 H 0.99952 0.57969 0.28317 0.0
Zn204 Zn 0.83083 0.3645 0.04408 0.0
C205 C 0.97384 0.38236 0.10828 0.0
N206 N 0.91034 0.37795 0.12552 0.0
C207 C 0.85282 0.37358 0.10606 0.0
N208 N 0.88002 0.37524 0.0783 0.0
N209 N 0.95631 0.38093 0.07959 0.0
C210 C 0.17664 0.38329 0.04585 0.0
O211 O 0.14408 0.3678 0.03633 0.0
O212 O 0.70802 0.36218 0.0489 0.0
Zn213 Zn 0.00792 0.39414 0.04739 0.0
N214 N 0.87884 0.33999 0.04058 0.0
C215 C 1.00167 0.32265 0.03903 0.0
C216 C 0.96138 0.33954 0.04124 0.0
C217 C 0.83445 0.3241 0.03769 0.0
N218 N 0.95774 0.30679 0.03633 0.0
C219 C 0.87489 0.30683 0.03564 0.0
O220 O 0.9881 0.38354 1.00702 0.0
C221 C 0.92246 0.38118 0.99277 0.0
O222 O 0.85508 0.37764 1.00562 0.0
H223 H 0.99558 0.35228 0.04344 0.0
H224 H 0.76897 0.32509 0.03664 0.0
C225 C 0.99813 0.43483 0.04584 0.0
C226 C 0.95431 0.45168 0.04452 0.0
C227 C 0.83066 0.43449 0.04468 0.0
C228 C 0.87416 0.41798 0.04587 0.0
N229 N 0.95673 0.4184 0.0465 0.0
N230 N 0.87154 0.45087 0.04397 0.0
H231 H 0.06389 0.43466 0.0457 0.0
C232 C 0.66129 0.37562 0.04219 0.0
O233 O 0.69332 0.39119 0.0322 0.0
O234 O 0.13017 0.39673 0.05266 0.0
H235 H 0.84237 0.40485 0.04602 0.0
H236 H 0.0674 0.32211 0.03951 0.0
H237 H 0.76488 0.43432 0.04416 0.0
Zn238 Zn 0.77562 0.39774 0.76311 0.0
C239 C 0.92811 0.37151 0.70811 0.0
N240 N 0.87248 0.37495 0.68767 0.0
C241 C 0.81085 0.38243 0.70291 0.0
N242 N 0.82785 0.38363 0.73183 0.0
N243 N 0.90151 0.37647 0.73483 0.0
C244 C 0.12231 0.37711 0.77313 0.0
O245 O 0.09249 0.39232 0.7847 0.0
O246 O 0.65206 0.39893 0.75984 0.0
Zn247 Zn 0.95061 0.36738 0.77033 0.0
N248 N 0.82383 0.42248 0.7614 0.0
C249 C 0.94804 0.43942 0.7579 0.0
C250 C 0.9061 0.42262 0.75842 0.0
C251 C 0.78138 0.43864 0.76427 0.0
N252 N 0.90613 0.4555 0.76074 0.0
C253 C 0.82372 0.45579 0.76397 0.0
O254 O 0.92993 0.38249 0.80649 0.0
C255 C 0.86267 0.38602 0.81916 0.0
O256 O 0.79757 0.38864 0.8047 0.0
H257 H 0.93907 0.40972 0.7569 0.0
H258 H 0.71623 0.43798 0.76749 0.0
C259 C 0.944 0.32724 0.77838 0.0
C260 C 0.90325 0.3102 0.78357 0.0
C261 C 0.77805 0.32657 0.7866 0.0
C262 C 0.81868 0.34328 0.7815 0.0
N263 N 0.90068 0.34334 0.77769 0.0
N264 N 0.82104 0.31052 0.78749 0.0
H265 H 0.00876 0.32785 0.77431 0.0
C266 C 0.60652 0.38486 0.75571 0.0
O267 O 0.64012 0.36851 0.75179 0.0
O268 O 0.07343 0.36432 0.76537 0.0
H269 H 0.78506 0.35612 0.78032 0.0
H270 H 0.01355 0.43969 0.75554 0.0
H271 H 0.71276 0.32632 0.78967 0.0
Zn272 Zn 0.74264 0.14456 1.01175 0.0
C273 C 0.58112 0.12362 0.95592 0.0
N274 N 0.64068 0.12625 0.93614 0.0
C275 C 0.70416 0.13072 0.9529 0.0
N276 N 0.68491 0.13102 0.98162 0.0
N277 N 0.60708 0.1264 0.98349 0.0
C278 C 0.39033 0.13418 1.02047 0.0
O279 O 0.43318 0.14844 0.02948 0.0
O280 O 0.86693 0.1436 1.00658 0.0
Zn281 Zn 0.55151 0.11787 1.01881 0.0
N282 N 0.70173 0.1699 1.00968 0.0
C283 C 0.58153 0.18815 1.0068 0.0
C284 C 0.61948 0.17094 1.00748 0.0
C285 C 0.74804 0.18559 1.01184 0.0
N286 N 0.62722 0.20376 1.00896 0.0
C287 C 0.70966 0.20316 1.01159 0.0
O288 O 0.58389 0.13086 0.05662 0.0
C289 C 0.65258 0.1343 0.06832 0.0
O290 O 0.71744 0.13628 0.05316 0.0
H291 H 0.58335 0.15844 1.00678 0.0
H292 H 0.81305 0.18427 1.01458 0.0
C293 C 0.54102 0.0768 1.02519 0.0
C294 C 0.57839 0.05919 0.02843 0.0
C295 C 0.70778 0.07407 0.02901 0.0
C296 C 0.67072 0.09126 1.02571 0.0
N297 N 0.58849 0.09239 1.02388 0.0
N298 N 0.66103 0.05856 0.03026 0.0
H299 H 0.47571 0.07825 1.02402 0.0
C300 C 0.90352 0.12879 1.01446 0.0
O301 O 0.86003 0.1148 1.02462 0.0
O302 O 0.42723 0.1191 1.01446 0.0
H303 H 0.70717 0.10373 1.02451 0.0
H304 H 0.5161 0.18912 1.00499 0.0
H305 H 0.77326 0.07302 0.03048 0.0
Zn306 Zn 0.69749 0.11856 0.29082 0.0
C307 C 0.54134 0.12792 0.35556 0.0
N308 N 0.59692 0.11828 0.37054 0.0
C309 C 0.66066 0.1175 0.3523 0.0
N310 N 0.64348 0.12585 0.32651 0.0
N311 N 0.56854 0.13258 0.32847 0.0
C312 C 0.35265 0.13628 0.30309 0.0
O313 O 0.38642 0.11976 0.30226 0.0
O314 O 0.82017 0.11653 0.2957 0.0
Zn315 Zn 0.52244 0.15018 0.3005 0.0
N316 N 0.65113 0.09444 0.28249 0.0
C317 C 0.52971 0.07831 0.27033 0.0
C318 C 0.57052 0.0948 0.27618 0.0
C319 C 0.69306 0.07815 0.2833 0.0
N320 N 0.57123 0.06207 0.27095 0.0
C321 C 0.6521 0.06134 0.27718 0.0
O322 O 0.55085 0.14545 0.25799 0.0
C323 C 0.61218 0.14071 0.24263 0.0
O324 O 0.67508 0.13345 0.25408 0.0
H325 H 0.53818 0.10785 0.27591 0.0
H326 H 0.75668 0.07839 0.28911 0.0
C327 C 0.53762 0.19049 0.29741 0.0
C328 C 0.5726 0.20784 0.30455 0.0
C329 C 0.66265 0.19232 0.33701 0.0
C330 C 0.62851 0.1753 0.32964 0.0
N331 N 0.56659 0.17464 0.31008 0.0
N332 N 0.63414 0.20808 0.32435 0.0
H333 H 0.48758 0.18945 0.28228 0.0
C334 C 0.86547 0.13055 0.30049 0.0
O335 O 0.83192 0.14704 0.30278 0.0
O336 O 0.39801 0.15066 0.30248 0.0
H337 H 0.65148 0.16272 0.33957 0.0
H338 H 0.46547 0.07839 0.26535 0.0
H339 H 0.71175 0.19302 0.35261 0.0
Zn340 Zn 0.4536 0.89665 0.0432 0.0
C341 C 0.29358 0.87125 0.097 0.0
N342 N 0.34844 0.87464 0.11775 0.0
C343 C 0.41128 0.88188 0.10268 0.0
N344 N 0.39612 0.88291 0.07369 0.0
N345 N 0.32211 0.87598 0.07018 0.0
C346 C 0.10569 0.87641 0.03014 0.0
O347 O 0.13587 0.89195 1.01926 0.0
O348 O 0.57702 0.89793 0.04827 0.0
Zn349 Zn 0.27764 0.86634 0.03404 0.0
N350 N 0.406 0.92136 0.04271 0.0
C351 C 0.28289 0.93862 0.04135 0.0
C352 C 0.32342 0.92169 0.0421 0.0
C353 C 0.45019 0.93742 0.04241 0.0
N354 N 0.32659 0.95463 0.04117 0.0
C355 C 0.40943 0.9547 0.04173 0.0
O356 O 0.30634 0.88072 0.99673 0.0
C357 C 0.37664 0.88432 0.98611 0.0
O358 O 0.43812 0.88691 1.00238 0.0
H359 H 0.2893 0.90884 0.04198 0.0
H360 H 0.51584 0.9366 0.04221 0.0
C361 C 0.28518 0.82588 1.02576 0.0
C362 C 0.32803 0.80895 1.02286 0.0
C363 C 0.4525 0.82551 0.02783 0.0
C364 C 0.40997 0.84209 0.03048 0.0
N365 N 0.32744 0.84202 0.02944 0.0
N366 N 0.41078 0.80943 1.02411 0.0
H367 H 0.21946 0.82629 1.02558 0.0
C368 C 0.62243 0.88372 0.05114 0.0
O369 O 0.58865 0.86719 0.05304 0.0
O370 O 0.15424 0.86345 0.03752 0.0
H371 H 0.44242 0.85499 0.03349 0.0
H372 H 0.21715 0.93906 0.04084 0.0
H373 H 0.51824 0.82539 0.02871 0.0
Zn374 Zn 0.28553 0.90015 0.75236 0.0
C375 C 0.44682 0.87292 0.70143 0.0
N376 N 0.38971 0.87476 0.68098 0.0
C377 C 0.32698 0.88212 0.69569 0.0
N378 N 0.34438 0.88464 0.72433 0.0
N379 N 0.42028 0.87875 0.72779 0.0
C380 C 0.63828 0.8853 0.77038 0.0
O381 O 0.59662 0.89867 0.78283 0.0
O382 O 0.15981 0.89697 0.75067 0.0
Zn383 Zn 0.47338 0.87062 0.76361 0.0
N384 N 0.31986 0.92581 0.74379 0.0
C385 C 0.41282 0.94549 0.71794 0.0
C386 C 0.38367 0.92786 0.72489 0.0
C387 C 0.28441 0.94093 0.75634 0.0
N388 N 0.37763 0.9605 0.73032 0.0
C389 C 0.31408 0.95894 0.74944 0.0
O390 O 0.4372 0.88302 0.80108 0.0
C391 C 0.37237 0.89028 0.8112 0.0
O392 O 0.31459 0.89544 0.79462 0.0
H393 H 0.41247 0.91594 0.71523 0.0
H394 H 0.23523 0.93881 0.77183 0.0
C395 C 0.47903 0.82975 0.76869 0.0
C396 C 0.44 0.81233 0.77225 0.0
C397 C 0.31264 0.82776 0.7759 0.0
C398 C 0.35131 0.84481 0.77229 0.0
N399 N 0.43338 0.84552 0.76878 0.0
N400 N 0.35764 0.81203 0.77579 0.0
H401 H 0.54428 0.83091 0.76623 0.0
C402 C 0.12368 0.88176 0.74458 0.0
O403 O 0.16779 0.86717 0.73796 0.0
O404 O 0.5994 0.87134 0.76046 0.0
H405 H 0.31622 0.8575 0.77221 0.0
H406 H 0.46341 0.94726 0.70291 0.0
H407 H 0.24732 0.827 0.77872 0.0
Zn408 Zn 0.53463 0.61671 0.51422 0.0
C409 C 0.68184 0.63019 0.44726 0.0
N410 N 0.62118 0.62246 0.43205 0.0
C411 C 0.56368 0.61948 0.45227 0.0
N412 N 0.58841 0.62485 0.47889 0.0
N413 N 0.66258 0.6319 0.47604 0.0
C414 C 0.87981 0.633 0.50036 0.0
O415 O 0.84575 0.61698 0.49413 0.0
O416 O 0.41261 0.61309 0.50847 0.0
Zn417 Zn 0.71141 0.64748 0.50615 0.0
N418 N 0.58347 0.5931 0.52389 0.0
C419 C 0.70381 0.57647 0.53564 0.0
C420 C 0.6645 0.59314 0.5295 0.0
C421 C 0.53981 0.57701 0.52407 0.0
N422 N 0.66045 0.56039 0.53589 0.0
C423 C 0.57912 0.56007 0.53038 0.0
O424 O 0.67944 0.64165 0.54861 0.0
C425 C 0.6127 0.63858 0.56218 0.0
O426 O 0.54957 0.63284 0.54915 0.0
H427 H 0.69835 0.60605 0.52889 0.0
H428 H 0.4759 0.57748 0.5187 0.0
C429 C 0.7132 0.68805 0.50821 0.0
C430 C 0.68183 0.70593 0.50202 0.0
C431 C 0.57204 0.69189 0.47672 0.0
C432 C 0.6033 0.67437 0.48286 0.0
N433 N 0.67324 0.67271 0.49837 0.0
N434 N 0.61176 0.70715 0.48639 0.0
H435 H 0.76757 0.68618 0.52105 0.0
C436 C 0.363 0.62549 0.51712 0.0
O437 O 0.39186 0.64045 0.52971 0.0
O438 O 0.83497 0.64703 0.50536 0.0
H439 H 0.57159 0.66218 0.47538 0.0
H440 H 0.76838 0.57627 0.54005 0.0
H441 H 0.51642 0.69337 0.46441 0.0
Zn442 Zn 0.55288 0.65012 0.78634 0.0
C443 C 0.68879 0.63229 0.85295 0.0
N444 N 0.62691 0.63933 0.86854 0.0
C445 C 0.57208 0.64349 0.84815 0.0
N446 N 0.59929 0.63929 0.82114 0.0
N447 N 0.6729 0.63206 0.82393 0.0
C448 C 0.89692 0.63157 0.80075 0.0
O449 O 0.8633 0.6479 0.80479 0.0
O450 O 0.42952 0.6528 0.79053 0.0
Zn451 Zn 0.72765 0.61892 0.79231 0.0
N452 N 0.60316 0.67439 0.78322 0.0
C453 C 0.72749 0.69121 0.77911 0.0
C454 C 0.68562 0.67442 0.78119 0.0
C455 C 0.56042 0.69057 0.78348 0.0
N456 N 0.6852 0.70736 0.77941 0.0
C457 C 0.60255 0.70767 0.78169 0.0
O458 O 0.70914 0.62947 0.7516 0.0
C459 C 0.6473 0.63381 0.73636 0.0
O460 O 0.57895 0.63759 0.74813 0.0
H461 H 0.71851 0.66145 0.78126 0.0
H462 H 0.49479 0.68996 0.78475 0.0
C463 C 0.72105 0.57805 0.78924 0.0
C464 C 0.67827 0.56096 0.78846 0.0
C465 C 0.55376 0.57751 0.79261 0.0
C466 C 0.59617 0.59423 0.79323 0.0
N467 N 0.67873 0.59425 0.79173 0.0
N468 N 0.59554 0.56139 0.79022 0.0
H469 H 0.78656 0.57866 0.78729 0.0
C470 C 0.38093 0.64009 0.78217 0.0
O471 O 0.41115 0.6251 0.77006 0.0
O472 O 0.85133 0.61754 0.79633 0.0
H473 H 0.56341 0.60719 0.79461 0.0
H474 H 0.79315 0.69143 0.77739 0.0
H475 H 0.48802 0.57733 0.79383 0.0
Zn476 Zn 0.45297 0.39813 0.54036 0.0
C477 C 0.31308 0.38396 0.60907 0.0
N478 N 0.37473 0.39148 0.62401 0.0
C479 C 0.43077 0.39478 0.60333 0.0
N480 N 0.40427 0.38968 0.57671 0.0
N481 N 0.33021 0.38268 0.58014 0.0
C482 C 0.10735 0.38177 0.5567 0.0
O483 O 0.1408 0.39831 0.5588 0.0
O484 O 0.5756 0.40105 0.54446 0.0
Zn485 Zn 0.2761 0.36883 0.54946 0.0
N486 N 0.40562 0.42234 0.53324 0.0
C487 C 0.28469 0.43973 0.52579 0.0
C488 C 0.3235 0.42282 0.5303 0.0
C489 C 0.45086 0.43821 0.53231 0.0
N490 N 0.32955 0.45556 0.52474 0.0
C491 C 0.41192 0.45546 0.52787 0.0
O492 O 0.29577 0.37804 0.50801 0.0
C493 C 0.3602 0.37977 0.4926 0.0
O494 O 0.4291 0.38284 0.50424 0.0
H495 H 0.28835 0.41016 0.53183 0.0
H496 H 0.51571 0.43732 0.53573 0.0
C497 C 0.27661 0.32839 0.54732 0.0
C498 C 0.31534 0.31089 0.54658 0.0
C499 C 0.44292 0.326 0.55266 0.0
C500 C 0.40445 0.34318 0.55284 0.0
N501 N 0.32227 0.34407 0.55033 0.0
N502 N 0.39775 0.31037 0.54947 0.0
H503 H 0.21136 0.32972 0.54565 0.0
C504 C 0.6246 0.38815 0.53734 0.0
O505 O 0.59515 0.37263 0.52672 0.0
O506 O 0.15293 0.36763 0.55377 0.0
H507 H 0.43991 0.35577 0.55468 0.0
H508 H 0.21933 0.44032 0.52341 0.0
H509 H 0.5083 0.32509 0.55473 0.0
Zn510 Zn 0.30981 0.39982 0.26946 0.0
C511 C 0.47414 0.39183 0.20557 0.0
N512 N 0.41733 0.40071 0.19009 0.0
C513 C 0.35315 0.40125 0.20816 0.0
N514 N 0.37084 0.39349 0.23435 0.0
N515 N 0.44714 0.38744 0.23282 0.0
C516 C 0.66013 0.38905 0.2605 0.0
O517 O 0.61468 0.40401 0.26199 0.0
O518 O 0.18502 0.3985 0.26409 0.0
Zn519 Zn 0.49884 0.3706 0.26084 0.0
N520 N 0.34726 0.42487 0.27764 0.0
C521 C 0.46638 0.44175 0.29018 0.0
C522 C 0.42754 0.42505 0.28444 0.0
C523 C 0.30354 0.44094 0.27622 0.0
N524 N 0.42345 0.45775 0.28872 0.0
C525 C 0.34291 0.45809 0.28188 0.0
O526 O 0.46427 0.37433 0.3028 0.0
C527 C 0.4021 0.3786 0.31807 0.0
O528 O 0.33887 0.38582 0.30669 0.0
H529 H 0.46124 0.41218 0.28521 0.0
H530 H 0.23964 0.4402 0.27099 0.0
C531 C 0.49458 0.32981 0.26331 0.0
C532 C 0.46348 0.31215 0.25567 0.0
C533 C 0.37094 0.32691 0.22326 0.0
C534 C 0.40111 0.34421 0.23111 0.0
N535 N 0.46249 0.34542 0.25085 0.0
N536 N 0.40252 0.31141 0.23568 0.0
H537 H 0.54377 0.33127 0.2787 0.0
C538 C 0.15006 0.38319 0.25784 0.0
O539 O 0.19544 0.36838 0.25404 0.0
O540 O 0.62512 0.37321 0.25989 0.0
H541 H 0.37535 0.35655 0.22142 0.0
H542 H 0.53033 0.44205 0.2956 0.0
H543 H 0.32235 0.3258 0.20751 0.0
H544 H 0.36664 0.27614 0.56068 0.0
H545 H 0.16361 0.3051 0.52175 0.0
H546 H 0.09456 0.27568 0.51411 0.0
H547 H 0.09191 0.2417 0.51754 0.0
H548 H 0.29534 0.21263 0.55577 0.0
H549 H 0.36455 0.24213 0.56371 0.0
C550 C 0.30725 0.27611 0.55049 0.0
C551 C 0.27042 0.29306 0.54236 0.0
C552 C 0.26813 0.25905 0.54557 0.0
C553 C 0.19328 0.29254 0.52914 0.0
C554 C 0.15379 0.27561 0.52439 0.0
C555 C 0.15141 0.24175 0.52765 0.0
C556 C 0.18838 0.22482 0.53567 0.0
C557 C 0.19068 0.2588 0.53248 0.0
C558 C 0.26574 0.22528 0.54866 0.0
C559 C 0.3052 0.24221 0.55352 0.0
H560 H 0.85724 0.98874 0.50222 0.0
H561 H 0.06414 0.96754 0.54985 0.0
H562 H 0.12424 0.9984 0.55007 0.0
H563 H 0.11861 0.03146 0.53715 0.0
H564 H 0.91121 0.0529 0.4903 0.0
H565 H 0.8502 0.02196 0.49023 0.0
C566 C 0.91546 0.99078 0.51276 0.0
C567 C 0.95628 0.97552 0.52547 0.0
C568 C 0.94939 0.00872 0.51331 0.0
C569 C 0.03172 0.97866 0.53904 0.0
C570 C 0.06604 0.99645 0.5395 0.0
C571 C 0.06 0.02942 0.52688 0.0
C572 C 0.01951 0.04463 0.51399 0.0
C573 C 0.02552 0.01155 0.52666 0.0
C574 C 0.94333 0.04164 0.50096 0.0
C575 C 0.90864 0.02387 0.50065 0.0
H576 H 0.12358 0.02762 0.8017 0.0
H577 H 0.35548 0.05409 0.78436 0.0
H578 H 0.40904 0.02495 0.76581 0.0
H579 H 0.3913 0.99199 0.75501 0.0
H580 H 0.15959 0.96536 0.77207 0.0
H581 H 0.10599 0.99446 0.79101 0.0
C582 C 0.18597 0.02707 0.79391 0.0
C583 C 0.23467 0.04326 0.79411 0.0
C584 C 0.21698 0.01016 0.78357 0.0
C585 C 0.31539 0.04215 0.78385 0.0
C586 C 0.34657 0.02537 0.77349 0.0
C587 C 0.3289 0.99245 0.76281 0.0
C588 C 0.28019 0.97628 0.76228 0.0
C589 C 0.29791 0.00932 0.77326 0.0
C590 C 0.19959 0.97731 0.77269 0.0
C591 C 0.16843 0.99406 0.78329 0.0
H592 H 0.1288 0.23918 0.78943 0.0
H593 H 0.90104 0.21209 0.76982 0.0
H594 H 0.83191 0.24207 0.77065 0.0
H595 H 0.83721 0.27604 0.77487 0.0
H596 H 0.06556 0.30287 0.79513 0.0
H597 H 0.13319 0.27291 0.79536 0.0
C598 C 0.06392 0.23977 0.78536 0.0
C599 C 0.02039 0.2233 0.77971 0.0
C600 C 0.02472 0.25706 0.78552 0.0
C601 C 0.93618 0.2244 0.77475 0.0
C602 C 0.89663 0.2416 0.77493 0.0
C603 C 0.90178 0.27542 0.77946 0.0
C604 C 0.946 0.29194 0.78431 0.0
C605 C 0.94049 0.25803 0.78004 0.0
C606 C 0.0297 0.29066 0.79034 0.0
C607 C 0.0686 0.27342 0.79082 0.0
H608 H 0.89421 0.77463 0.54224 0.0
H609 H 0.66118 0.80186 0.53515 0.0
H610 H 0.59909 0.77273 0.51993 0.0
H611 H 0.60998 0.73948 0.50949 0.0
H612 H 0.84341 0.71231 0.51621 0.0
H613 H 0.90528 0.7414 0.53144 0.0
C614 C 0.82973 0.77425 0.53741 0.0
C615 C 0.783 0.79061 0.53957 0.0
C616 C 0.79404 0.75738 0.52896 0.0
C617 C 0.69953 0.78974 0.53308 0.0
C618 C 0.66362 0.77298 0.52463 0.0
C619 C 0.67451 0.73984 0.51421 0.0
C620 C 0.72121 0.72347 0.51202 0.0
C621 C 0.71027 0.75673 0.52256 0.0
C622 C 0.80483 0.72438 0.51834 0.0
C623 C 0.84072 0.74114 0.5268 0.0
H624 H 0.86879 0.98911 0.26951 0.0
H625 H 0.6369 0.96315 0.28876 0.0
H626 H 0.57255 0.9936 0.28998 0.0
H627 H 0.58217 0.02759 0.28639 0.0
H628 H 0.81448 0.05337 0.26718 0.0
H629 H 0.8785 0.02294 0.26604 0.0
C630 C 0.8041 0.99002 0.27406 0.0
C631 C 0.75802 0.97367 0.27869 0.0
C632 C 0.76754 1.00759 0.27516 0.0
C633 C 0.67412 0.97529 0.28441 0.0
C634 C 0.63721 0.99278 0.28542 0.0
C635 C 0.64688 0.02662 0.28193 0.0
C636 C 0.69323 0.04293 0.27731 0.0
C637 C 0.68339 0.00901 0.28088 0.0
C638 C 0.77711 0.04126 0.2716 0.0
C639 C 0.81385 0.02378 0.27061 0.0
H640 H 0.85476 0.77958 0.27381 0.0
H641 H 0.0786 0.80411 0.24164 0.0
H642 H 0.14688 0.77422 0.24696 0.0
H643 H 0.14242 0.74113 0.25968 0.0
H644 H 0.91866 0.71676 0.2925 0.0
H645 H 0.85077 0.74656 0.28711 0.0
C646 C 0.91854 0.77844 0.26789 0.0
C647 C 0.9614 0.79421 0.25757 0.0
C648 C 0.95727 0.76118 0.27071 0.0
C649 C 0.04418 0.79241 0.25021 0.0
C650 C 0.08318 0.77524 0.25298 0.0
C651 C 0.07876 0.74224 0.26576 0.0
C652 C 0.03593 0.72645 0.27609 0.0
C653 C 0.0402 0.75954 0.26311 0.0
C654 C 0.95332 0.72835 0.28375 0.0
C655 C 0.91439 0.74552 0.28098 0.0
H656 H 0.12069 0.7375 0.99253 0.0
H657 H 0.32855 0.71061 0.03187 0.0
H658 H 0.39118 0.74075 0.03989 0.0
H659 H 0.38659 0.77479 0.03682 0.0
H660 H 0.17805 0.80164 0.99811 0.0
H661 H 0.11567 0.77144 0.98972 0.0
C662 C 0.17977 0.73809 1.0029 0.0
C663 C 0.21963 0.7215 1.01113 0.0
C664 C 0.21512 0.75556 1.00805 0.0
C665 C 0.29638 0.72284 1.02451 0.0
C666 C 0.33222 0.7402 0.02946 0.0
C667 C 0.32742 0.77411 1.02652 0.0
C668 C 0.28704 0.79066 1.01851 0.0
C669 C 0.29204 0.75663 1.02141 0.0
C670 C 0.21023 0.78934 1.00525 0.0
C671 C 0.17469 0.77199 1.00011 0.0
H672 H 0.15733 0.52624 0.05244 0.0
H673 H 0.9498 0.54674 1.00442 0.0
H674 H 0.88908 0.51595 1.00583 0.0
H675 H 0.89497 0.48308 1.01984 0.0
H676 H 0.103 0.4623 0.06706 0.0
H677 H 0.16401 0.49324 0.06595 0.0
C678 C 0.09878 0.52406 0.04222 0.0
C679 C 0.05809 0.5391 0.02883 0.0
C680 C 0.06455 0.50615 0.04255 0.0
C681 C 0.98219 0.5358 1.0157 0.0
C682 C 0.94752 0.51804 1.01616 0.0
C683 C 0.95369 0.48527 0.02995 0.0
C684 C 0.99442 0.47023 0.04324 0.0
C685 C 0.98817 0.50313 0.0295 0.0
C686 C 0.0707 0.4734 0.05608 0.0
C687 C 0.1054 0.49118 0.05572 0.0
H688 H 0.13756 0.53172 0.26402 0.0
H689 H 0.33635 0.55423 0.31413 0.0
H690 H 0.39883 0.52359 0.31642 0.0
H691 H 0.39565 0.49043 0.30541 0.0
H692 H 0.19757 0.4679 0.25476 0.0
H693 H 0.13543 0.49849 0.2524 0.0
C694 C 0.19466 0.52999 0.27546 0.0
C695 C 0.23231 0.54546 0.2886 0.0
C696 C 0.2299 0.51225 0.27705 0.0
C697 C 0.3065 0.54283 0.3032 0.0
C698 C 0.34197 0.52521 0.30481 0.0
C699 C 0.33889 0.49207 0.29374 0.0
C700 C 0.30143 0.47654 0.28065 0.0
C701 C 0.30398 0.50983 0.29193 0.0
C702 C 0.22764 0.47923 0.26574 0.0
C703 C 0.19219 0.49687 0.26407 0.0
H704 H 0.93537 0.27455 1.01415 0.0
H705 H 0.71633 0.29784 0.0516 0.0
H706 H 0.64828 0.268 0.0472 0.0
H707 H 0.65052 0.23525 0.03346 0.0
H708 H 0.86925 0.21162 0.99657 0.0
H709 H 0.93807 0.24156 1.0009 0.0
C710 C 0.87271 0.27318 1.02143 0.0
C711 C 0.83118 0.28873 0.03273 0.0
C712 C 0.83395 0.25581 1.01932 0.0
C713 C 0.74989 0.28649 0.04202 0.0
C714 C 0.71087 0.26928 0.03983 0.0
C715 C 0.71329 0.23658 1.02627 0.0
C716 C 0.7545 0.22103 1.01491 0.0
C717 C 0.75229 0.25387 0.02852 0.0
C718 C 0.83607 0.22311 1.00595 0.0
C719 C 0.87538 0.24033 1.00815 0.0
H720 H 0.61146 0.52902 0.7683 0.0
H721 H 0.83655 0.55096 0.80239 0.0
H722 H 0.89929 0.52052 0.79765 0.0
H723 H 0.89043 0.48761 0.7845 0.0
H724 H 0.66523 0.46563 0.75068 0.0
H725 H 0.60229 0.49608 0.7555 0.0
C726 C 0.67429 0.52723 0.7748 0.0
C727 C 0.71905 0.54255 0.78532 0.0
C728 C 0.70994 0.50957 0.77243 0.0
C729 C 0.80054 0.53976 0.79352 0.0
C730 C 0.83649 0.52222 0.7911 0.0
C731 C 0.82751 0.48941 0.77811 0.0
C732 C 0.78277 0.47412 0.76753 0.0
C733 C 0.79176 0.50705 0.7806 0.0
C734 C 0.70114 0.47686 0.75952 0.0
C735 C 0.66514 0.49439 0.76199 0.0
H736 H 0.63066 0.02645 0.0511 0.0
H737 H 0.42317 0.05105 1.00812 0.0
H738 H 0.35416 0.02106 1.00894 0.0
H739 H 0.35383 0.98764 1.02051 0.0
H740 H 0.5622 0.96318 0.06309 0.0
H741 H 0.63011 0.99327 0.06288 0.0
C742 C 0.57028 0.02537 0.04184 0.0
C743 C 0.53244 0.04126 0.02983 0.0
C744 C 0.53133 1.00798 0.04187 0.0
C745 C 0.45385 0.03937 1.01813 0.0
C746 C 0.4144 0.02209 1.01829 0.0
C747 C 0.41411 0.98883 0.02982 0.0
C748 C 0.45292 0.97293 0.04136 0.0
C749 C 0.45276 1.00629 0.02996 0.0
C750 C 0.53115 0.97489 0.0533 0.0
C751 C 0.56991 0.99221 0.05349 0.0
H752 H 0.5903 0.24236 0.32728 0.0
H753 H 0.49656 0.21413 0.25142 0.0
H754 H 0.45666 0.2438 0.23017 0.0
H755 H 0.44936 0.2777 0.2326 0.0
H756 H 0.54237 0.30604 0.30849 0.0
H757 H 0.58365 0.27639 0.32957 0.0
C758 C 0.56119 0.24262 0.30606 0.0
C759 C 0.54554 0.22581 0.29137 0.0
C760 C 0.53926 0.25981 0.29365 0.0
C761 C 0.50769 0.2266 0.26384 0.0
C762 C 0.48555 0.24366 0.25142 0.0
C763 C 0.47867 0.2775 0.25379 0.0
C764 C 0.49327 0.29431 0.26859 0.0
C765 C 0.50106 0.26033 0.26613 0.0
C766 C 0.53169 0.29357 0.29602 0.0
C767 C 0.55465 0.27651 0.30834 0.0
H768 H 0.38937 0.77991 0.79669 0.0
H769 H 0.58945 0.80374 0.74718 0.0
H770 H 0.65613 0.77357 0.74623 0.0
H771 H 0.65627 0.74024 0.75825 0.0
H772 H 0.45528 0.71657 0.80744 0.0
H773 H 0.38969 0.74681 0.80886 0.0
C774 C 0.44759 0.7786 0.78562 0.0
C775 C 0.48428 0.79429 0.77233 0.0
C776 C 0.48507 0.76113 0.78466 0.0
C777 C 0.56005 0.79217 0.75824 0.0
C778 C 0.59805 0.77481 0.75739 0.0
C779 C 0.5981 0.74165 0.76933 0.0
C780 C 0.56049 0.72595 0.78226 0.0
C781 C 0.56091 0.75918 0.77041 0.0
C782 C 0.48505 0.72815 0.79653 0.0
C783 C 0.44772 0.74554 0.79766 0.0
H784 H 0.64145 0.52612 0.5183 0.0
H785 H 0.41835 0.55311 0.5444 0.0
H786 H 0.34862 0.52322 0.54558 0.0
H787 H 0.35088 0.48946 0.53998 0.0
H788 H 0.57344 0.46236 0.51342 0.0
H789 H 0.64341 0.49222 0.51237 0.0
C790 C 0.57756 0.52549 0.5243 0.0
C791 C 0.53526 0.54197 0.53082 0.0
C792 C 0.53774 0.50819 0.5252 0.0
C793 C 0.45236 0.54082 0.53851 0.0
C794 C 0.41242 0.52366 0.53949 0.0
C795 C 0.4147 0.49001 0.53386 0.0
C796 C 0.45662 0.47349 0.52723 0.0
C797 C 0.45451 0.50728 0.53287 0.0
C798 C 0.53949 0.47463 0.51942 0.0
C799 C 0.57963 0.49179 0.51851 0.0
H800 H 0.21249 0.12564 0.60659 0.0
H801 H 0.95327 0.13469 0.60283 0.0
H802 H 0.94447 0.13299 0.65609 0.0
H803 H 0.01065 0.13004 0.70385 0.0
H804 H 0.26946 0.12033 0.70778 0.0
H805 H 0.27766 0.12097 0.65445 0.0
C806 C 0.15405 0.12723 0.61741 0.0
C807 C 0.08378 0.13043 0.60066 0.0
C808 C 0.14917 0.12606 0.64813 0.0
C809 C 0.00841 0.13223 0.6151 0.0
C810 C 0.00327 0.13127 0.64561 0.0
C811 C 0.06886 0.12792 0.6931 0.0
C812 C 0.13935 0.12524 0.70998 0.0
C813 C 0.0733 0.12833 0.66236 0.0
C814 C 0.21407 0.12241 0.69549 0.0
C815 C 0.21896 0.12286 0.66492 0.0
H816 H 0.97863 0.8765 0.35019 0.0
H817 H 0.7171 0.87178 0.34619 0.0
H818 H 0.70958 0.86911 0.39936 0.0
H819 H 0.77619 0.87041 0.44736 0.0
H820 H 0.03698 0.87671 0.45129 0.0
H821 H 0.04573 0.87624 0.39801 0.0
C822 C 0.92005 0.87468 0.3609 0.0
C823 C 0.84861 0.87447 0.34414 0.0
C824 C 0.91588 0.87348 0.39161 0.0
C825 C 0.77316 0.87217 0.3585 0.0
C826 C 0.7687 0.87061 0.38896 0.0
C827 C 0.835 0.87137 0.43655 0.0
C828 C 0.90571 0.87364 0.45331 0.0
C829 C 0.83951 0.87157 0.40579 0.0
C830 C 0.98146 0.87506 0.43893 0.0
C831 C 0.98659 0.87481 0.40843 0.0
H832 H 0.24423 0.63413 0.10235 0.0
H833 H 0.98369 0.63949 0.09453 0.0
H834 H 0.96988 0.64079 0.14753 0.0
H835 H 0.03044 0.63942 0.19615 0.0
H836 H 0.29051 0.63332 0.20461 0.0
H837 H 0.30546 0.63329 0.15145 0.0
C838 C 0.18456 0.63575 0.11224 0.0
C839 C 0.1152 0.63667 0.09442 0.0
C840 C 0.17671 0.63623 0.14291 0.0
C841 C 0.0382 0.63864 0.10766 0.0
C842 C 0.03011 0.63938 0.13802 0.0
C843 C 0.09053 0.63813 0.18645 0.0
C844 C 0.1591 0.63633 0.20448 0.0
C845 C 0.09878 0.638 0.15586 0.0
C846 C 0.23643 0.63466 0.19136 0.0
C847 C 0.24516 0.63467 0.1609 0.0
H848 H 0.79396 0.38377 0.95548 0.0
H849 H 0.05641 0.38165 0.95704 0.0
H850 H 0.06083 0.38337 0.90374 0.0
H851 H 0.99065 0.38492 0.85666 0.0
H852 H 0.72833 0.38756 0.85486 0.0
H853 H 0.72373 0.3863 0.90827 0.0
C854 C 0.85218 0.38366 0.94419 0.0
C855 C 0.92471 0.38248 0.96034 0.0
C856 C 0.85443 0.38479 0.91346 0.0
C857 C 0.99957 0.38255 0.94526 0.0
C858 C 1.00222 0.38351 0.91473 0.0
C859 C 0.93234 0.38528 0.86789 0.0
C860 C 0.85994 0.38627 0.85165 0.0
C861 C 0.93007 0.38457 0.89861 0.0
C862 C 0.78509 0.38683 0.86671 0.0
C863 C 0.78235 0.38605 0.89729 0.0
H864 H 0.53043 0.14151 0.10747 0.0
H865 H 0.78812 0.13061 0.1018 0.0
H866 H 0.79899 0.13245 0.15487 0.0
H867 H 0.73519 0.13619 0.20305 0.0
H868 H 0.47825 0.14792 0.20907 0.0
H869 H 0.46772 0.14695 0.15584 0.0
C870 C 0.58892 0.13953 0.11786 0.0
C871 C 0.65819 0.1358 0.10062 0.0
C872 C 0.59511 0.14084 0.1485 0.0
C873 C 0.73374 0.13351 0.11446 0.0
C874 C 0.74009 0.13454 0.14486 0.0
C875 C 0.6769 0.13867 0.19277 0.0
C876 C 0.60762 0.14204 0.21019 0.0
C877 C 0.67116 0.13809 0.16212 0.0
C878 C 0.53277 0.14534 0.19632 0.0
C879 C 0.52652 0.14469 0.16583 0.0
H880 H 0.26251 0.89104 0.94414 0.0
H881 H 0.5184 0.88021 0.95586 0.0
H882 H 0.54024 0.88173 0.9031 0.0
H883 H 0.48673 0.88544 0.85348 0.0
H884 H 0.23172 0.89725 0.84148 0.0
H885 H 0.21 0.89625 0.89433 0.0
C886 C 0.32297 0.88898 0.93512 0.0
C887 C 0.38854 0.88541 0.95396 0.0
C888 C 0.33552 0.89014 0.90466 0.0
C889 C 0.46676 0.88301 0.94191 0.0
C890 C 0.4794 0.88386 0.9117 0.0
C891 C 0.42644 0.8879 0.86239 0.0
C892 C 0.36103 0.89134 0.84341 0.0
C893 C 0.41424 0.88735 0.89285 0.0
C894 C 0.28342 0.89463 0.85547 0.0
C895 C 0.27074 0.89396 0.88575 0.0
H896 H 0.73647 0.63531 0.60133 0.0
H897 H 0.4783 0.64519 0.59534 0.0
H898 H 0.46656 0.6449 0.64855 0.0
H899 H 0.52796 0.64053 0.69667 0.0
H900 H 0.78532 0.6295 0.70314 0.0
H901 H 0.79872 0.63144 0.64997 0.0
C902 C 0.67794 0.63766 0.61172 0.0
C903 C 0.60845 0.64032 0.5944 0.0
C904 C 0.67117 0.63704 0.64243 0.0
C905 C 0.53274 0.64308 0.60817 0.0
C906 C 0.52588 0.64287 0.63861 0.0
C907 C 0.58711 0.63856 0.68653 0.0
C908 C 0.65537 0.63479 0.704 0.0
C909 C 0.59443 0.6396 0.65594 0.0
C910 C 0.73149 0.63231 0.69032 0.0
C911 C 0.73935 0.63348 0.65987 0.0
H912 H 0.27786 0.38153 0.35773 0.0
H913 H 0.53593 0.37113 0.35133 0.0
H914 H 0.54567 0.37037 0.40452 0.0
H915 H 0.48226 0.37392 0.45304 0.0
H916 H 0.22367 0.38346 0.45945 0.0
H917 H 0.21313 0.38326 0.40623 0.0
C918 C 0.3362 0.37898 0.36793 0.0
C919 C 0.40604 0.3765 0.35041 0.0
C920 C 0.34151 0.37849 0.39863 0.0
C921 C 0.48099 0.37307 0.36414 0.0
C922 C 0.4868 0.3727 0.39463 0.0
C923 C 0.42357 0.37592 0.4428 0.0
C924 C 0.35402 0.37882 0.46027 0.0
C925 C 0.41767 0.37562 0.41211 0.0
C926 C 0.27828 0.38118 0.44659 0.0
C927 C 0.27214 0.38111 0.41611 0.0
H928 H 0.47042 0.11146 0.40105 0.0
H929 H 0.45861 0.16119 0.34826 0.0
H930 H 0.34131 0.17188 0.37686 0.0
H931 H 0.23874 0.16579 0.41627 0.0
H932 H 0.2678 0.11779 0.47219 0.0
H933 H 0.38774 0.10848 0.44473 0.0
C934 C 0.44239 0.12468 0.39568 0.0
C935 C 0.46889 0.13487 0.37106 0.0
C936 C 0.38111 0.13143 0.41384 0.0
C937 C 0.4343 0.1523 0.36529 0.0
C938 C 0.36916 0.15868 0.38234 0.0
C939 C 0.27376 0.15377 0.42305 0.0
C940 C 0.2464 0.14274 0.44667 0.0
C941 C 0.34165 0.14823 0.40657 0.0
C942 C 0.29012 0.12689 0.45493 0.0
C943 C 0.35728 0.12129 0.43872 0.0
H944 H 0.00611 0.10981 0.41062 0.0
H945 H 0.90181 0.15267 0.46431 0.0
H946 H 0.77679 0.15173 0.43583 0.0
H947 H 0.70235 0.14043 0.39413 0.0
H948 H 0.79586 0.09537 0.34238 0.0
H949 H 0.92349 0.09609 0.3705 0.0
C950 C 0.95475 0.1185 0.41642 0.0
C951 C 0.96095 0.13082 0.44008 0.0
C952 C 0.88369 0.11804 0.39958 0.0
C953 C 0.89606 0.14251 0.44708 0.0
C954 C 0.82568 0.14226 0.4304 0.0
C955 C 0.75071 0.13071 0.38898 0.0
C956 C 0.74136 0.11821 0.36579 0.0
C957 C 0.81978 0.13037 0.40636 0.0
C958 C 0.80346 0.10555 0.35948 0.0
C959 C 0.87536 0.10576 0.37589 0.0
H960 H 0.27537 0.15691 0.89985 0.0
H961 H 0.29616 0.10836 0.84586 0.0
H962 H 0.41005 0.09733 0.87523 0.0
H963 H 0.50619 0.10235 0.91604 0.0
H964 H 0.47498 0.14989 0.9716 0.0
H965 H 0.35703 0.15965 0.94358 0.0
C966 C 0.30485 0.1439 0.89435 0.0
C967 C 0.28043 0.134 0.86951 0.0
C968 C 0.36538 0.13703 0.91269 0.0
C969 C 0.31752 0.11694 0.86338 0.0
C970 C 0.38107 0.11036 0.8808 0.0
C971 C 0.47113 0.11439 0.92261 0.0
C972 C 0.49675 0.12502 0.94651 0.0
C973 C 0.4055 0.12034 0.90553 0.0
C974 C 0.45341 0.14098 0.95433 0.0
C975 C 0.38761 0.14687 0.93773 0.0
H976 H 0.0446 0.12615 0.89403 0.0
H977 H 0.94816 0.17065 0.84112 0.0
H978 H 0.82035 0.16954 0.8697 0.0
H979 H 0.73872 0.15581 0.91058 0.0
H980 H 0.84222 0.11238 0.96387 0.0
H981 H 0.96843 0.11392 0.93544 0.0
C982 C 0.99547 0.13564 0.88873 0.0
C983 C 0.00435 0.14826 0.86534 0.0
C984 C 0.92564 0.13555 0.90605 0.0
C985 C 0.94119 0.16054 0.85863 0.0
C986 C 0.8691 0.16006 0.87523 0.0
C987 C 0.79011 0.1471 0.91629 0.0
C988 C 0.78375 0.1346 0.94003 0.0
C989 C 0.86124 0.14774 0.89921 0.0
C990 C 0.84844 0.12281 0.94678 0.0
C991 C 0.9194 0.12338 0.93008 0.0
H992 H 0.51391 0.85094 0.66031 0.0
H993 H 0.56413 0.89636 0.71843 0.0
H994 H 0.6898 0.90318 0.69215 0.0
H995 H 0.77254 0.89942 0.64883 0.0
H996 H 0.72544 0.85483 0.58885 0.0
H997 H 0.60729 0.8452 0.61838 0.0
C998 C 0.55438 0.86183 0.66777 0.0
C999 C 0.53222 0.87256 0.69219 0.0
C1000 C 0.62365 0.86652 0.65115 0.0
C1001 C 0.58277 0.88716 0.70102 0.0
C1002 C 0.65316 0.89145 0.68535 0.0
C1003 C 0.73684 0.88749 0.64215 0.0
C1004 C 0.75573 0.87828 0.61597 0.0
C1005 C 0.67209 0.88171 0.6598 0.0
C1006 C 0.70956 0.86276 0.60794 0.0
C1007 C 0.64322 0.85702 0.62526 0.0
H1008 H 0.27251 0.86761 0.64633 0.0
H1009 H 0.22464 0.91186 0.70689 0.0
H1010 H 0.10831 0.92177 0.67783 0.0
H1011 H 0.01521 0.91622 0.63648 0.0
H1012 H 0.06632 0.87165 0.57673 0.0
H1013 H 0.19099 0.86443 0.60274 0.0
C1014 C 0.2369 0.8795 0.65323 0.0
C1015 C 0.25476 0.88845 0.67961 0.0
C1016 C 0.17291 0.8855 0.63574 0.0
C1017 C 0.20932 0.90404 0.68776 0.0
C1018 C 0.1439 0.90997 0.67071 0.0
C1019 C 0.05565 0.90543 0.62862 0.0
C1020 C 0.03373 0.89493 0.60413 0.0
C1021 C 0.12464 0.90063 0.6448 0.0
C1022 C 0.08433 0.88051 0.59462 0.0
C1023 C 0.15435 0.87604 0.60998 0.0
H1024 H 0.47056 0.86696 0.15096 0.0
H1025 H 0.50667 0.91282 0.09115 0.0
H1026 H 0.62473 0.92319 0.11954 0.0
H1027 H 0.72151 0.9176 0.16028 0.0
H1028 H 0.68004 0.87127 0.21885 0.0
H1029 H 0.55529 0.86351 0.19357 0.0
C1030 C 0.50412 0.87928 0.14411 0.0
C1031 C 0.48335 0.88858 0.11816 0.0
C1032 C 0.56831 0.88549 0.16118 0.0
C1033 C 0.52554 0.90476 0.10994 0.0
C1034 C 0.59144 0.91091 0.12661 0.0
C1035 C 0.68303 0.9063 0.16806 0.0
C1036 C 0.7073 0.89556 0.19231 0.0
C1037 C 0.61387 0.90121 0.15214 0.0
C1038 C 0.65962 0.88042 0.2015 0.0
C1039 C 0.58967 0.87564 0.18647 0.0
H1040 H 0.22335 0.85013 0.13915 0.0
H1041 H 0.178 0.89418 0.07705 0.0
H1042 H 0.05291 0.90217 0.10257 0.0
H1043 H 0.97004 0.9 0.14644 0.0
H1044 H 0.01204 0.85659 0.20994 0.0
H1045 H 0.12882 0.84567 0.18122 0.0
C1046 C 0.18388 0.86093 0.13063 0.0
C1047 C 0.20749 0.87098 0.1054 0.0
C1048 C 0.11503 0.86631 0.14676 0.0
C1049 C 0.15826 0.88548 0.09519 0.0
C1050 C 0.08823 0.89046 0.11041 0.0
C1051 C 0.00452 0.88809 0.15408 0.0
C1052 C 0.98511 0.87965 0.18108 0.0
C1053 C 0.06832 0.8815 0.13683 0.0
C1054 C 0.02905 0.86402 0.19025 0.0
C1055 C 0.09442 0.85752 0.1734 0.0
H1056 H 0.24559 0.61633 0.89744 0.0
H1057 H 0.28782 0.65984 0.95977 0.0
H1058 H 0.40793 0.67012 0.93147 0.0
H1059 H 0.50454 0.66491 0.89006 0.0
H1060 H 0.4543 0.6213 0.82861 0.0
H1061 H 0.32799 0.61394 0.85398 0.0
C1062 C 0.28057 0.62818 0.9049 0.0
C1063 C 0.26088 0.63672 0.93153 0.0
C1064 C 0.34534 0.63449 0.8878 0.0
C1065 C 0.30556 0.65226 0.94048 0.0
C1066 C 0.37261 0.65841 0.92383 0.0
C1067 C 0.46378 0.65436 0.88166 0.0
C1068 C 0.48639 0.6442 0.8567 0.0
C1069 C 0.39352 0.64944 0.89758 0.0
C1070 C 0.43553 0.63003 0.84661 0.0
C1071 C 0.36467 0.62543 0.86169 0.0
H1072 H 1.00297 0.59737 0.90938 0.0
H1073 H 0.95337 0.64151 0.97009 0.0
H1074 H 0.8283 0.6489 0.94481 0.0
H1075 H 0.74625 0.64619 0.90175 0.0
H1076 H 0.78753 0.60218 0.84013 0.0
H1077 H 0.9069 0.59198 0.86826 0.0
C1078 C 0.96266 0.60806 0.9176 0.0
C1079 C 0.98501 0.61836 0.94235 0.0
C1080 C 0.89296 0.61296 0.90177 0.0
C1081 C 0.93482 0.63272 0.95221 0.0
C1082 C 0.86458 0.63731 0.93722 0.0
C1083 C 0.78097 0.63426 0.89443 0.0
C1084 C 0.76145 0.62553 0.86808 0.0
C1085 C 0.84528 0.62804 0.9114 0.0
C1086 C 0.80547 0.60988 0.85925 0.0
C1087 C 0.87202 0.60379 0.87577 0.0
H1088 H 0.49687 0.59868 0.40979 0.0
H1089 H 0.44734 0.6425 0.47107 0.0
H1090 H 0.32261 0.65015 0.44568 0.0
H1091 H 0.24001 0.64758 0.40253 0.0
H1092 H 0.28571 0.60467 0.33942 0.0
H1093 H 0.40343 0.59406 0.36792 0.0
C1094 C 0.4567 0.60938 0.41809 0.0
C1095 C 0.4788 0.61943 0.44309 0.0
C1096 C 0.38776 0.61454 0.40209 0.0
C1097 C 0.42887 0.63385 0.45301 0.0
C1098 C 0.35887 0.63859 0.43796 0.0
C1099 C 0.27554 0.63584 0.39499 0.0
C1100 C 0.25701 0.62738 0.36833 0.0
C1101 C 0.33984 0.62953 0.41193 0.0
C1102 C 0.30212 0.612 0.35906 0.0
C1103 C 0.368 0.60572 0.3757 0.0
H1104 H 0.73932 0.61641 0.39782 0.0
H1105 H 0.78131 0.66048 0.45921 0.0
H1106 H 0.90022 0.67077 0.43057 0.0
H1107 H 0.99662 0.66539 0.38935 0.0
H1108 H 0.94814 0.62124 0.3287 0.0
H1109 H 0.82176 0.61385 0.35422 0.0
C1110 C 0.77403 0.62838 0.40501 0.0
C1111 C 0.75453 0.63706 0.43156 0.0
C1112 C 0.83847 0.63468 0.38768 0.0
C1113 C 0.79878 0.65276 0.44007 0.0
C1114 C 0.86524 0.65893 0.4232 0.0
C1115 C 0.95624 0.6547 0.38115 0.0
C1116 C 0.97937 0.64436 0.35647 0.0
C1117 C 0.88619 0.64978 0.39713 0.0
C1118 C 0.92894 0.63005 0.34655 0.0
C1119 C 0.8581 0.62545 0.36172 0.0
H1120 H 0.54085 0.40656 0.15753 0.0
H1121 H 0.56369 0.3599 0.21639 0.0
H1122 H 0.67932 0.34846 0.18829 0.0
H1123 H 0.77802 0.35292 0.1476 0.0
H1124 H 0.74382 0.3982 0.08674 0.0
H1125 H 0.62302 0.40809 0.11335 0.0
C1126 C 0.57096 0.39386 0.16435 0.0
C1127 C 0.54702 0.38476 0.19035 0.0
C1128 C 0.63258 0.38665 0.14672 0.0
C1129 C 0.58484 0.368 0.19806 0.0
C1130 C 0.64946 0.36114 0.18136 0.0
C1131 C 0.74173 0.36445 0.1396 0.0
C1132 C 0.7676 0.3745 0.11479 0.0
C1133 C 0.67418 0.37047 0.15573 0.0
C1134 C 0.72243 0.38977 0.10495 0.0
C1135 C 0.65486 0.39574 0.12067 0.0
H1136 H 0.00598 0.40714 0.15074 0.0
H1137 H 0.11435 0.36536 0.09602 0.0
H1138 H 0.24035 0.36716 0.1238 0.0
H1139 H 0.31452 0.37877 0.16534 0.0
H1140 H 0.21453 0.422 0.21936 0.0
H1141 H 0.08681 0.42078 0.19131 0.0
C1142 C 0.05834 0.39887 0.14456 0.0
C1143 C 0.05315 0.38671 0.12066 0.0
C1144 C 0.1296 0.39967 0.16124 0.0
C1145 C 0.11938 0.37552 0.11326 0.0
C1146 C 0.1903 0.37622 0.12961 0.0
C1147 C 0.2648 0.38801 0.17098 0.0
C1148 C 0.27256 0.4002 0.19465 0.0
C1149 C 0.1952 0.38796 0.15388 0.0
C1150 C 0.20843 0.41215 0.20173 0.0
C1151 C 0.13641 0.41163 0.1854 0.0
H1152 H 0.75354 0.36781 0.65443 0.0
H1153 H 0.71192 0.4128 0.71425 0.0
H1154 H 0.59368 0.42274 0.68531 0.0
H1155 H 0.49856 0.41691 0.64408 0.0
H1156 H 0.54753 0.37172 0.58529 0.0
H1157 H 0.67222 0.36459 0.61113 0.0
C1158 C 0.71898 0.37989 0.66119 0.0
C1159 C 0.73824 0.38898 0.68733 0.0
C1160 C 0.65526 0.38596 0.64372 0.0
C1161 C 0.6943 0.40482 0.69538 0.0
C1162 C 0.6284 0.41076 0.67836 0.0
C1163 C 0.53873 0.40605 0.63633 0.0
C1164 C 0.51626 0.3954 0.61193 0.0
C1165 C 0.60787 0.40126 0.6526 0.0
C1166 C 0.56633 0.38083 0.60274 0.0
C1167 C 0.6362 0.37636 0.61814 0.0
H1168 H 0.99734 0.34949 0.66731 0.0
H1169 H 0.04421 0.39471 0.72618 0.0
H1170 H 0.17042 0.40187 0.70064 0.0
H1171 H 0.2544 0.39857 0.6576 0.0
H1172 H 0.21536 0.35338 0.59804 0.0
H1173 H 0.09516 0.3435 0.6266 0.0
C1174 C 0.03729 0.36038 0.67512 0.0
C1175 C 0.01374 0.37106 0.69939 0.0
C1176 C 0.10766 0.36511 0.65913 0.0
C1177 C 0.06359 0.38565 0.70869 0.0
C1178 C 0.1345 0.39009 0.69353 0.0
C1179 C 0.21991 0.38647 0.65083 0.0
C1180 C 0.24025 0.37734 0.6248 0.0
C1181 C 0.15494 0.38043 0.6681 0.0
C1182 C 0.19669 0.36143 0.61677 0.0
C1183 C 0.12965 0.35552 0.63357 0.0
H1184 H 0.46441 0.11067 0.51193 0.0
H1185 H 0.44252 0.17027 0.51788 0.0
H1186 H 0.59049 0.17349 0.51534 0.0
H1187 H 0.72625 0.15926 0.51408 0.0
H1188 H 0.74833 0.09974 0.5066 0.0
H1189 H 0.60016 0.09662 0.50682 0.0
C1190 C 0.49205 0.12437 0.51264 0.0
C1191 C 0.44257 0.1402 0.51555 0.0
C1192 C 0.57718 0.12612 0.51092 0.0
C1193 C 0.47921 0.15786 0.51582 0.0
C1194 C 0.56384 0.15971 0.51442 0.0
C1195 C 0.69867 0.1456 0.5124 0.0
C1196 C 0.74834 0.12973 0.51076 0.0
C1197 C 0.61345 0.14392 0.5124 0.0
C1198 C 0.71158 0.11217 0.50805 0.0
C1199 C 0.62682 0.11037 0.50826 0.0
H1200 H 0.50615 0.11034 0.81175 0.0
H1201 H 0.48535 0.16841 0.78869 0.0
H1202 H 0.63296 0.17169 0.78934 0.0
H1203 H 0.76937 0.15801 0.79512 0.0
H1204 H 0.79047 0.09999 0.81838 0.0
H1205 H 0.64268 0.09689 0.81914 0.0
C1206 C 0.53386 0.12371 0.80683 0.0
C1207 C 0.48408 0.13905 0.79996 0.0
C1208 C 0.61948 0.12557 0.80729 0.0
C1209 C 0.52157 0.1563 0.79397 0.0
C1210 C 0.60634 0.15823 0.79432 0.0
C1211 C 0.74174 0.1447 0.80045 0.0
C1212 C 0.79167 0.12925 0.80647 0.0
C1213 C 0.6561 0.14294 0.80076 0.0
C1214 C 0.75416 0.11214 0.81351 0.0
C1215 C 0.66929 0.11033 0.81392 0.0
H1216 H 0.51502 0.90796 0.56111 0.0
H1217 H 0.54362 0.85302 0.52516 0.0
H1218 H 0.39757 0.85101 0.51704 0.0
H1219 H 0.26209 0.86494 0.51894 0.0
H1220 H 0.23088 0.91957 0.55555 0.0
H1221 H 0.37726 0.92156 0.56462 0.0
C1222 C 0.48932 0.89553 0.55155 0.0
C1223 C 0.54077 0.88072 0.54359 0.0
C1224 C 0.40469 0.89441 0.54694 0.0
C1225 C 0.50596 0.86467 0.53144 0.0
C1226 C 0.42224 0.8635 0.52673 0.0
C1227 C 0.28709 0.87733 0.52886 0.0
C1228 C 0.23538 0.89217 0.53622 0.0
C1229 C 0.37113 0.87833 0.53417 0.0
C1230 C 0.26915 0.90799 0.54941 0.0
C1231 C 0.35294 0.90913 0.55464 0.0
H1232 H 0.48744 0.90848 0.24425 0.0
H1233 H 0.50176 0.85394 0.28395 0.0
H1234 H 0.3554 0.85012 0.27959 0.0
H1235 H 0.22147 0.86237 0.26593 0.0
H1236 H 0.20492 0.91706 0.22708 0.0
H1237 H 0.35253 0.92055 0.22955 0.0
C1238 C 0.45853 0.89578 0.25196 0.0
C1239 C 0.50622 0.88162 0.26462 0.0
C1240 C 0.37326 0.89362 0.24954 0.0
C1241 C 0.46724 0.86519 0.27426 0.0
C1242 C 0.38311 0.86293 0.27176 0.0
C1243 C 0.25007 0.87503 0.25786 0.0
C1244 C 0.20156 0.88943 0.24646 0.0
C1245 C 0.33529 0.87707 0.25963 0.0
C1246 C 0.24025 0.90573 0.23613 0.0
C1247 C 0.32496 0.90777 0.23754 0.0
H1248 H 0.7573 0.65007 1.02279 0.0
H1249 H 0.78602 0.59322 0.99529 0.0
H1250 H 0.63944 0.59092 0.98678 0.0
H1251 H 0.50224 0.60482 0.9888 0.0
H1252 H 0.47586 0.66191 1.01569 0.0
H1253 H 0.62236 0.66432 1.02259 0.0
C1254 C 0.73169 0.63713 1.01498 0.0
C1255 C 0.78266 0.62176 1.01007 0.0
C1256 C 0.64759 0.63595 1.00998 0.0
C1257 C 0.74825 0.60523 0.99949 0.0
C1258 C 0.66437 0.60391 0.9946 0.0
C1259 C 0.52853 0.61782 0.99604 0.0
C1260 C 0.47764 0.63311 1.00194 0.0
C1261 C 0.61329 0.61915 1.00001 0.0
C1262 C 0.51314 0.64988 1.0111 0.0
C1263 C 0.59709 0.65128 1.01511 0.0
H1264 H 0.50305 0.61483 0.2792 0.0
H1265 H 0.49069 0.66353 0.33344 0.0
H1266 H 0.63817 0.66732 0.32986 0.0
H1267 H 0.77154 0.65751 0.30975 0.0
H1268 H 0.78202 0.60913 0.25462 0.0
H1269 H 0.63591 0.60467 0.2601 0.0
C1270 C 0.5326 0.62619 0.29045 0.0
C1271 C 0.48523 0.63888 0.30649 0.0
C1272 C 0.61775 0.62851 0.28792 0.0
C1273 C 0.52511 0.65356 0.32078 0.0
C1274 C 0.60974 0.65578 0.31872 0.0
C1275 C 0.74185 0.64603 0.29886 0.0
C1276 C 0.78842 0.6338 0.28157 0.0
C1277 C 0.6568 0.64349 0.30201 0.0
C1278 C 0.7484 0.61888 0.26794 0.0
C1279 C 0.66442 0.61626 0.27108 0.0
H1280 H 0.28741 0.35534 0.04715 0.0
H1281 H 0.26717 0.41507 0.05017 0.0
H1282 H 0.41547 0.41794 0.05021 0.0
H1283 H 0.55089 0.40352 0.04673 0.0
H1284 H 0.57099 0.34375 0.04553 0.0
H1285 H 0.42279 0.34086 0.04759 0.0
C1286 C 0.31543 0.36899 0.0479 0.0
C1287 C 0.26626 0.38498 0.04823 0.0
C1288 C 0.40072 0.37053 0.04814 0.0
C1289 C 0.30355 0.40255 0.04976 0.0
C1290 C 0.38838 0.4042 0.0497 0.0
C1291 C 0.5228 0.38986 0.04696 0.0
C1292 C 0.57185 0.37387 0.04552 0.0
C1293 C 0.43756 0.3883 0.04843 0.0
C1294 C 0.53464 0.35627 0.04646 0.0
C1295 C 0.44987 0.35461 0.04757 0.0
H1296 H 0.49155 0.3579 0.74737 0.0
H1297 H 0.5187 0.41601 0.7682 0.0
H1298 H 0.37197 0.4187 0.77501 0.0
H1299 H 0.23645 0.40439 0.77705 0.0
H1300 H 0.20771 0.34648 0.75546 0.0
H1301 H 0.35431 0.34393 0.74692 0.0
C1302 C 0.4654 0.37119 0.75324 0.0
C1303 C 0.51654 0.38668 0.75751 0.0
C1304 C 0.38059 0.37266 0.75718 0.0
C1305 C 0.4812 0.40381 0.7649 0.0
C1306 C 0.39713 0.40537 0.76887 0.0
C1307 C 0.26212 0.39118 0.77053 0.0
C1308 C 0.21108 0.37559 0.76731 0.0
C1309 C 0.34637 0.38985 0.76546 0.0
C1310 C 0.24551 0.35868 0.75834 0.0
C1311 C 0.32942 0.35721 0.75343 0.0
H1312 H 0.01842 0.15643 1.01132 0.0
H1313 H 0.99095 0.09679 1.01284 0.0
H1314 H 0.13839 0.09305 1.01295 0.0
H1315 H 0.27603 0.10663 1.01544 0.0
H1316 H 0.30342 0.16626 1.01651 0.0
H1317 H 0.15644 0.17003 1.01246 0.0
C1318 C 0.04478 0.14263 1.0114 0.0
C1319 C 0.99346 0.12694 1.01224 0.0
C1320 C 0.1301 0.14054 1.01213 0.0
C1321 C 0.02881 0.10914 1.01247 0.0
C1322 C 0.11332 0.10696 1.01251 0.0
C1323 C 0.24985 0.12044 1.01461 0.0
C1324 C 0.30092 0.13611 1.01653 0.0
C1325 C 0.1647 0.12254 1.01282 0.0
C1326 C 0.26572 0.15392 1.01542 0.0
C1327 C 0.18147 0.15611 1.01303 0.0
H1328 H 0.97966 0.15786 0.30626 0.0
H1329 H 0.95353 0.09834 0.29958 0.0
H1330 H 0.10122 0.09481 0.30068 0.0
H1331 H 0.23828 0.10868 0.30175 0.0
H1332 H 0.26412 0.16823 0.30811 0.0
H1333 H 0.11644 0.17163 0.30898 0.0
C1334 C 0.00613 0.14409 0.30515 0.0
C1335 C 0.95524 0.12841 0.30259 0.0
C1336 C 0.09133 0.14216 0.30562 0.0
C1337 C 0.99097 0.11068 0.30133 0.0
C1338 C 0.07558 0.10865 0.30197 0.0
C1339 C 0.21171 0.12241 0.30341 0.0
C1340 C 0.26262 0.13818 0.30461 0.0
C1341 C 0.12644 0.12429 0.30379 0.0
C1342 C 0.22675 0.15584 0.30691 0.0
C1343 C 0.14212 0.15781 0.30744 0.0
H1344 H 0.73659 0.85633 0.05584 0.0
H1345 H 0.71133 0.91548 0.04224 0.0
H1346 H 0.85797 0.91839 0.0348 0.0
H1347 H 0.99283 0.90404 0.03 0.0
H1348 H 0.01917 0.84504 0.04449 0.0
H1349 H 0.87292 0.84221 0.0537 0.0
C1350 C 0.76311 0.86989 0.05144 0.0
C1351 C 0.7125 0.88563 0.04937 0.0
C1352 C 0.84779 0.87149 0.04709 0.0
C1353 C 0.7484 0.9031 0.04386 0.0
C1354 C 0.83241 0.90478 0.0395 0.0
C1355 C 0.96664 0.89054 0.03508 0.0
C1356 C 0.01695 0.87473 0.03611 0.0
C1357 C 0.88255 0.88904 0.04063 0.0
C1358 C 0.98195 0.85742 0.0433 0.0
C1359 C 0.89824 0.85579 0.04861 0.0
H1360 H 0.01368 0.9064 0.76736 0.0
H1361 H 0.02896 0.85339 0.7243 0.0
H1362 H 0.88141 0.84978 0.72777 0.0
H1363 H 0.74689 0.86128 0.74426 0.0
H1364 H 0.73346 0.91403 0.78835 0.0
H1365 H 0.87992 0.91801 0.78325 0.0
C1366 C 0.9848 0.8941 0.75859 0.0
C1367 C 0.03299 0.88019 0.74566 0.0
C1368 C 0.89955 0.89196 0.761 0.0
C1369 C 0.99393 0.86432 0.73452 0.0
C1370 C 0.90924 0.86222 0.7365 0.0
C1371 C 0.77599 0.87363 0.7528 0.0
C1372 C 0.72846 0.88725 0.76685 0.0
C1373 C 0.86126 0.87586 0.74995 0.0
C1374 C 0.7678 0.90321 0.77755 0.0
C1375 C 0.85198 0.90555 0.77463 0.0
H1376 H 0.99512 0.60653 0.48937 0.0
H1377 H 0.96655 0.66336 0.51733 0.0
H1378 H 0.11271 0.66597 0.52458 0.0
H1379 H 0.24805 0.65201 0.52459 0.0
H1380 H 0.27928 0.59547 0.49593 0.0
H1381 H 0.13287 0.59291 0.4873 0.0
C1382 C 0.02089 0.6195 0.49695 0.0
C1383 C 0.9695 0.63466 0.50301 0.0
C1384 C 0.10551 0.62096 0.50109 0.0
C1385 C 0.00426 0.65142 0.51259 0.0
C1386 C 0.08801 0.65294 0.5168 0.0
C1387 C 0.22301 0.63909 0.5165 0.0
C1388 C 0.27458 0.62388 0.51128 0.0
C1389 C 0.13906 0.63776 0.51143 0.0
C1390 C 0.24097 0.60735 0.50037 0.0
C1391 C 0.15721 0.60588 0.49541 0.0
H1392 H 0.0116 0.65856 0.80932 0.0
H1393 H 0.9853 0.60056 0.78766 0.0
H1394 H 0.13202 0.59811 0.78032 0.0
H1395 H 0.26731 0.61264 0.77801 0.0
H1396 H 0.29484 0.67044 0.8005 0.0
H1397 H 0.14841 0.67271 0.80955 0.0
C1398 C 0.03791 0.64534 0.80316 0.0
C1399 C 0.98698 0.62981 0.79881 0.0
C1400 C 0.12267 0.64401 0.79891 0.0
C1401 C 0.02261 0.61278 0.79105 0.0
C1402 C 0.10667 0.61136 0.78677 0.0
C1403 C 0.24138 0.62577 0.78481 0.0
C1404 C 0.29209 0.64142 0.78814 0.0
C1405 C 0.15717 0.62694 0.79022 0.0
C1406 C 0.25734 0.65821 0.79751 0.0
C1407 C 0.17351 0.65951 0.80273 0.0
H1408 H 0.99213 0.40886 0.56198 0.0
H1409 H 0.02021 0.34997 0.54766 0.0
H1410 H 0.8739 0.34679 0.54073 0.0
H1411 H 0.73857 0.36084 0.53662 0.0
H1412 H 0.70912 0.41956 0.55179 0.0
H1413 H 0.85512 0.42265 0.56051 0.0
C1414 C 0.96626 0.3953 0.55753 0.0
C1415 C 0.01752 0.37972 0.55509 0.0
C1416 C 0.88174 0.39355 0.55349 0.0
C1417 C 0.98256 0.36224 0.54953 0.0
C1418 C 0.89875 0.3604 0.54548 0.0
C1419 C 0.76402 0.37434 0.54176 0.0
C1420 C 0.713 0.38999 0.54312 0.0
C1421 C 0.84792 0.37599 0.54698 0.0
C1422 C 0.74698 0.4073 0.55035 0.0
C1423 C 0.83053 0.40908 0.55537 0.0
H1424 H 0.03522 0.41066 0.26409 0.0
H1425 H 0.06009 0.35203 0.2471 0.0
H1426 H 0.91259 0.34858 0.24604 0.0
H1427 H 0.77495 0.36192 0.25123 0.0
H1428 H 0.75015 0.42059 0.26788 0.0
H1429 H 0.89765 0.42418 0.26773 0.0
C1430 C 0.00846 0.39713 0.26009 0.0
C1431 C 0.05946 0.38163 0.25591 0.0
C1432 C 0.92285 0.39517 0.25954 0.0
C1433 C 0.02302 0.36425 0.25055 0.0
C1434 C 0.93827 0.36222 0.24995 0.0
C1435 C 0.80175 0.37549 0.25486 0.0
C1436 C 0.7508 0.39091 0.25978 0.0
C1437 C 0.88737 0.37753 0.25469 0.0
C1438 C 0.78723 0.40841 0.26413 0.0
C1439 C 0.87196 0.41051 0.26406 0.0
loop_
_geom_bond_atom_site_label_1
_geom_bond_atom_site_label_2
_geom_bond_distance
_geom_bond_site_symmetry_2
_ccdc_geom_bond_type
Zn0 N4 2.020 . S
Zn0 O8 2.019 1_455 S
Zn0 N10 2.119 . S
Zn0 O18 1.975 . S
C1 N2 1.334 . S
C1 N5 1.336 . S
N2 C1 1.334 . S
N2 C3 1.334 . S
C3 N2 1.334 . S
C3 N4 1.336 . S
N4 Zn0 2.020 . S
N4 C3 1.336 . S
N4 N5 1.354 . S
N5 C1 1.336 . S
N5 N4 1.354 . S
N5 Zn9 2.020 . S
C6 O7 1.244 . S
C6 O30 1.257 . S
O7 C6 1.244 . S
O8 Zn0 2.019 1_655 S
O8 C28 1.257 . S
Zn9 N5 2.020 . S
Zn9 O16 1.975 . S
Zn9 N25 2.119 . S
Zn9 O30 2.019 . S
N10 Zn0 2.119 . S
N10 C12 1.334 . S
N10 C13 1.328 1_455 S
C11 C12 1.391 . S
C11 N14 1.329 . S
C11 H32 0.930 . S
C12 N10 1.334 . S
C12 C11 1.391 . S
C12 H19 0.930 . S
C13 N10 1.328 1_655 S
C13 C15 1.392 1_655 S
C13 H20 0.930 . S
N14 C11 1.329 . S
N14 C15 1.331 . S
C15 C13 1.392 1_455 S
C15 N14 1.331 . S
O16 Zn9 1.975 . S
O16 C17 1.252 . S
C17 O16 1.252 . S
C17 O18 1.252 . S
O18 Zn0 1.975 . S
O18 C17 1.252 . S
H19 C12 0.930 . S
H20 C13 0.930 . S
C21 C22 1.392 . S
C21 N25 1.328 . S
C21 H27 0.930 . S
C22 C21 1.392 . S
C22 N26 1.331 . S
C23 C24 1.391 . S
C23 N26 1.329 . S
C23 H33 0.930 . S
C24 C23 1.391 . S
C24 N25 1.334 . S
C24 H31 0.930 . S
N25 Zn9 2.119 . S
N25 C21 1.328 . S
N25 C24 1.334 . S
N26 C22 1.331 . S
N26 C23 1.329 . S
H27 C21 0.930 . S
C28 O8 1.257 . S
C28 O29 1.244 . S
O29 C28 1.244 . S
O30 C6 1.257 . S
O30 Zn9 2.019 . S
H31 C24 0.930 . S
H32 C11 0.930 . S
H33 C23 0.930 . S
Zn34 N38 2.020 . S
Zn34 O42 2.019 1_455 S
Zn34 N44 2.119 . S
Zn34 O52 1.975 . S
C35 N36 1.334 . S
C35 N39 1.336 . S
N36 C35 1.334 . S
N36 C37 1.334 . S
C37 N36 1.334 . S
C37 N38 1.336 . S
N38 Zn34 2.020 . S
N38 C37 1.336 . S
N38 N39 1.354 . S
N39 C35 1.336 . S
N39 N38 1.354 . S
N39 Zn43 2.020 . S
C40 O41 1.244 . S
C40 O64 1.257 . S
O41 C40 1.244 . S
O42 Zn34 2.019 1_655 S
O42 C62 1.257 . S
Zn43 N39 2.020 . S
Zn43 O50 1.975 . S
Zn43 N59 2.119 . S
Zn43 O64 2.019 . S
N44 Zn34 2.119 . S
N44 C46 1.334 . S
N44 C47 1.328 1_455 S
C45 C46 1.391 . S
C45 N48 1.329 . S
C45 H66 0.930 . S
C46 N44 1.334 . S
C46 C45 1.391 . S
C46 H53 0.930 . S
C47 N44 1.328 1_655 S
C47 C49 1.392 1_655 S
C47 H54 0.930 . S
N48 C45 1.329 . S
N48 C49 1.331 . S
C49 C47 1.392 1_455 S
C49 N48 1.331 . S
O50 Zn43 1.975 . S
O50 C51 1.252 . S
C51 O50 1.252 . S
C51 O52 1.252 . S
O52 Zn34 1.975 . S
O52 C51 1.252 . S
H53 C46 0.930 . S
H54 C47 0.930 . S
C55 C56 1.392 . S
C55 N59 1.328 . S
C55 H61 0.930 . S
C56 C55 1.392 . S
C56 N60 1.331 . S
C57 C58 1.391 . S
C57 N60 1.329 . S
C57 H67 0.930 . S
C58 C57 1.391 . S
C58 N59 1.334 . S
C58 H65 0.930 . S
N59 Zn43 2.119 . S
N59 C55 1.328 . S
N59 C58 1.334 . S
N60 C56 1.331 . S
N60 C57 1.329 . S
H61 C55 0.930 . S
C62 O42 1.257 . S
C62 O63 1.244 . S
O63 C62 1.244 . S
O64 C40 1.257 . S
O64 Zn43 2.019 . S
H65 C58 0.930 . S
H66 C45 0.930 . S
H67 C57 0.930 . S
Zn68 N72 2.020 . S
Zn68 O76 2.019 1_655 S
Zn68 N78 2.119 . S
Zn68 O86 1.975 . S
C69 N70 1.334 . S
C69 N73 1.336 . S
N70 C69 1.334 . S
N70 C71 1.334 . S
C71 N70 1.334 . S
C71 N72 1.336 . S
N72 Zn68 2.020 . S
N72 C71 1.336 . S
N72 N73 1.354 . S
N73 C69 1.336 . S
N73 N72 1.354 . S
N73 Zn77 2.020 . S
C74 O75 1.244 . S
C74 O98 1.257 . S
O75 C74 1.244 . S
O76 Zn68 2.019 1_455 S
O76 C96 1.257 . S
Zn77 N73 2.020 . S
Zn77 O84 1.975 . S
Zn77 N93 2.119 . S
Zn77 O98 2.019 . S
N78 Zn68 2.119 . S
N78 C80 1.334 . S
N78 C81 1.328 1_655 S
C79 C80 1.391 . S
C79 N82 1.329 . S
C79 H100 0.930 . S
C80 N78 1.334 . S
C80 C79 1.391 . S
C80 H87 0.930 . S
C81 N78 1.328 1_455 S
C81 C83 1.392 1_455 S
C81 H88 0.930 . S
N82 C79 1.329 . S
N82 C83 1.331 . S
C83 C81 1.392 1_655 S
C83 N82 1.331 . S
O84 Zn77 1.975 . S
O84 C85 1.252 . S
C85 O84 1.252 . S
C85 O86 1.252 . S
O86 Zn68 1.975 . S
O86 C85 1.252 . S
H87 C80 0.930 . S
H88 C81 0.930 . S
C89 C90 1.392 . S
C89 N93 1.328 . S
C89 H95 0.930 . S
C90 C89 1.392 . S
C90 N94 1.331 . S
C91 C92 1.391 . S
C91 N94 1.329 . S
C91 H101 0.930 . S
C92 C91 1.391 . S
C92 N93 1.334 . S
C92 H99 0.930 . S
N93 Zn77 2.119 . S
N93 C89 1.328 . S
N93 C92 1.334 . S
N94 C90 1.331 . S
N94 C91 1.329 . S
H95 C89 0.930 . S
C96 O76 1.257 . S
C96 O97 1.244 . S
O97 C96 1.244 . S
O98 C74 1.257 . S
O98 Zn77 2.019 . S
H99 C92 0.930 . S
H100 C79 0.930 . S
H101 C91 0.930 . S
Zn102 N106 2.020 . S
Zn102 O110 2.019 . S
Zn102 N112 2.119 . S
Zn102 O120 1.975 . S
C103 N104 1.334 . S
C103 N107 1.336 . S
N104 C103 1.334 . S
N104 C105 1.334 . S
C105 N104 1.334 . S
C105 N106 1.336 . S
N106 Zn102 2.020 . S
N106 C105 1.336 . S
N106 N107 1.354 . S
N107 C103 1.336 . S
N107 N106 1.354 . S
N107 Zn111 2.020 . S
C108 O109 1.244 . S
C108 O132 1.257 . S
O109 C108 1.244 . S
O110 Zn102 2.019 . S
O110 C130 1.257 . S
Zn111 N107 2.020 . S
Zn111 O118 1.975 . S
Zn111 N127 2.119 . S
Zn111 O132 2.019 1_655 S
N112 Zn102 2.119 . S
N112 C114 1.334 . S
N112 C115 1.328 . S
C113 C114 1.391 . S
C113 N116 1.329 . S
C113 H134 0.930 . S
C114 N112 1.334 . S
C114 C113 1.391 . S
C114 H121 0.930 . S
C115 N112 1.328 . S
C115 C117 1.392 . S
C115 H122 0.930 . S
N116 C113 1.329 . S
N116 C117 1.331 . S
C117 C115 1.392 . S
C117 N116 1.331 . S
O118 Zn111 1.975 . S
O118 C119 1.252 . S
C119 O118 1.252 . S
C119 O120 1.252 . S
O120 Zn102 1.975 . S
O120 C119 1.252 . S
H121 C114 0.930 . S
H122 C115 0.930 . S
C123 C124 1.392 1_455 S
C123 N127 1.328 1_455 S
C123 H129 0.930 . S
C124 C123 1.392 1_655 S
C124 N128 1.331 . S
C125 C126 1.391 . S
C125 N128 1.329 . S
C125 H135 0.930 . S
C126 C125 1.391 . S
C126 N127 1.334 . S
C126 H133 0.930 . S
N127 Zn111 2.119 . S
N127 C123 1.328 1_655 S
N127 C126 1.334 . S
N128 C124 1.331 . S
N128 C125 1.329 . S
H129 C123 0.930 . S
C130 O110 1.257 . S
C130 O131 1.244 . S
O131 C130 1.244 . S
O132 C108 1.257 . S
O132 Zn111 2.019 1_455 S
H133 C126 0.930 . S
H134 C113 0.930 . S
H135 C125 0.930 . S
Zn136 N140 2.020 . S
Zn136 O144 2.019 1_556 S
Zn136 N146 2.119 . S
Zn136 O154 1.975 1_556 S
C137 N138 1.334 . S
C137 N141 1.336 . S
N138 C137 1.334 . S
N138 C139 1.334 . S
C139 N138 1.334 . S
C139 N140 1.336 . S
N140 Zn136 2.020 . S
N140 C139 1.336 . S
N140 N141 1.354 . S
N141 C137 1.336 . S
N141 N140 1.354 . S
N141 Zn145 2.020 . S
C142 O143 1.244 . S
C142 O166 1.257 1_556 S
O143 C142 1.244 . S
O144 Zn136 2.019 1_554 S
O144 C164 1.257 1_554 S
Zn145 N141 2.020 . S
Zn145 O152 1.975 1_556 S
Zn145 N161 2.119 . S
Zn145 O166 2.019 1_456 S
N146 Zn136 2.119 . S
N146 C148 1.334 . S
N146 C149 1.328 . S
C147 C148 1.391 1_554 S
C147 N150 1.329 . S
C147 H168 0.930 . S
C148 N146 1.334 . S
C148 C147 1.391 1_556 S
C148 H155 0.930 . S
C149 N146 1.328 . S
C149 C151 1.386 1_556 S
C149 H156 0.930 . S
N150 C147 1.329 . S
N150 C151 1.335 . S
C151 C149 1.386 1_554 S
C151 N150 1.335 . S
O152 Zn145 1.975 1_554 S
O152 C153 1.252 . S
C153 O152 1.252 . S
C153 O154 1.252 . S
O154 Zn136 1.975 1_554 S
O154 C153 1.252 . S
H155 C148 0.930 . S
H156 C149 0.930 . S
C157 C158 1.386 1_656 S
C157 N161 1.328 1_655 S
C157 H163 0.930 . S
C158 C157 1.386 1_454 S
C158 N162 1.335 . S
C159 C160 1.391 1_554 S
C159 N162 1.329 . S
C159 H169 0.930 . S
C160 C159 1.391 1_556 S
C160 N161 1.334 . S
C160 H167 0.930 . S
N161 Zn145 2.119 . S
N161 C157 1.328 1_455 S
N161 C160 1.334 . S
N162 C158 1.335 . S
N162 C159 1.329 . S
H163 C157 0.930 . S
C164 O144 1.257 1_556 S
C164 O165 1.244 . S
O165 C164 1.244 . S
O166 C142 1.257 1_554 S
O166 Zn145 2.019 1_654 S
H167 C160 0.930 . S
H168 C147 0.930 . S
H169 C159 0.930 . S
Zn170 N174 2.020 . S
Zn170 O178 2.019 1_455 S
Zn170 N180 2.119 . S
Zn170 O188 1.975 . S
C171 N172 1.334 . S
C171 N175 1.336 . S
N172 C171 1.334 . S
N172 C173 1.334 . S
C173 N172 1.334 . S
C173 N174 1.336 . S
N174 Zn170 2.020 . S
N174 C173 1.336 . S
N174 N175 1.354 . S
N175 C171 1.336 . S
N175 N174 1.354 . S
N175 Zn179 2.020 . S
C176 O177 1.244 . S
C176 O200 1.257 . S
O177 C176 1.244 . S
O178 Zn170 2.019 1_655 S
O178 C198 1.257 . S
Zn179 N175 2.020 . S
Zn179 O186 1.975 . S
Zn179 N195 2.119 . S
Zn179 O200 2.019 . S
N180 Zn170 2.119 . S
N180 C182 1.334 . S
N180 C183 1.328 1_455 S
C181 C182 1.391 . S
C181 N184 1.329 . S
C181 H202 0.930 . S
C182 N180 1.334 . S
C182 C181 1.391 . S
C182 H189 0.930 . S
C183 N180 1.328 1_655 S
C183 C185 1.392 1_655 S
C183 H190 0.930 . S
N184 C181 1.329 . S
N184 C185 1.331 . S
C185 C183 1.392 1_455 S
C185 N184 1.331 . S
O186 Zn179 1.975 . S
O186 C187 1.252 . S
C187 O186 1.252 . S
C187 O188 1.252 . S
O188 Zn170 1.975 . S
O188 C187 1.252 . S
H189 C182 0.930 . S
H190 C183 0.930 . S
C191 C192 1.392 . S
C191 N195 1.328 . S
C191 H197 0.930 . S
C192 C191 1.392 . S
C192 N196 1.331 . S
C193 C194 1.391 . S
C193 N196 1.329 . S
C193 H203 0.930 . S
C194 C193 1.391 . S
C194 N195 1.334 . S
C194 H201 0.930 . S
N195 Zn179 2.119 . S
N195 C191 1.328 . S
N195 C194 1.334 . S
N196 C192 1.331 . S
N196 C193 1.329 . S
H197 C191 0.930 . S
C198 O178 1.257 . S
C198 O199 1.244 . S
O199 C198 1.244 . S
O200 C176 1.257 . S
O200 Zn179 2.019 . S
H201 C194 0.930 . S
H202 C181 0.930 . S
H203 C193 0.930 . S
Zn204 N208 2.020 . S
Zn204 O212 2.019 1_554 S
Zn204 N214 2.119 . S
Zn204 O222 1.975 1_554 S
C205 N206 1.334 . S
C205 N209 1.336 . S
N206 C205 1.334 . S
N206 C207 1.334 . S
C207 N206 1.334 . S
C207 N208 1.336 . S
N208 Zn204 2.020 . S
N208 C207 1.336 . S
N208 N209 1.354 . S
N209 C205 1.336 . S
N209 N208 1.354 . S
N209 Zn213 2.020 . S
C210 O211 1.244 . S
C210 O234 1.257 1_554 S
O211 C210 1.244 . S
O212 Zn204 2.019 1_556 S
O212 C232 1.257 1_556 S
Zn213 N209 2.020 . S
Zn213 O220 1.975 1_554 S
Zn213 N229 2.119 . S
Zn213 O234 2.019 1_654 S
N214 Zn204 2.119 . S
N214 C216 1.334 . S
N214 C217 1.328 . S
C215 C216 1.391 1_556 S
C215 N218 1.329 . S
C215 H236 0.930 . S
C216 N214 1.334 . S
C216 C215 1.391 1_554 S
C216 H223 0.930 . S
C217 N214 1.328 . S
C217 C219 1.386 1_554 S
C217 H224 0.930 . S
N218 C215 1.329 . S
N218 C219 1.335 . S
C219 C217 1.386 1_556 S
C219 N218 1.335 . S
O220 Zn213 1.975 1_556 S
O220 C221 1.252 . S
C221 O220 1.252 . S
C221 O222 1.252 . S
O222 Zn204 1.975 1_556 S
O222 C221 1.252 . S
H223 C216 0.930 . S
H224 C217 0.930 . S
C225 C226 1.386 1_454 S
C225 N229 1.328 1_455 S
C225 H231 0.930 . S
C226 C225 1.386 1_656 S
C226 N230 1.335 . S
C227 C228 1.391 1_556 S
C227 N230 1.329 . S
C227 H237 0.930 . S
C228 C227 1.391 1_554 S
C228 N229 1.334 . S
C228 H235 0.930 . S
N229 Zn213 2.119 . S
N229 C225 1.328 1_655 S
N229 C228 1.334 . S
N230 C226 1.335 . S
N230 C227 1.329 . S
H231 C225 0.930 . S
C232 O212 1.257 1_554 S
C232 O233 1.244 . S
O233 C232 1.244 . S
O234 C210 1.257 1_556 S
O234 Zn213 2.019 1_456 S
H235 C228 0.930 . S
H236 C215 0.930 . S
H237 C227 0.930 . S
Zn238 N242 2.020 . S
Zn238 O246 2.019 . S
Zn238 N248 2.119 . S
Zn238 O256 1.975 . S
C239 N240 1.334 . S
C239 N243 1.336 . S
N240 C239 1.334 . S
N240 C241 1.334 . S
C241 N240 1.334 . S
C241 N242 1.336 . S
N242 Zn238 2.020 . S
N242 C241 1.336 . S
N242 N243 1.354 . S
N243 C239 1.336 . S
N243 N242 1.354 . S
N243 Zn247 2.020 . S
C244 O245 1.244 . S
C244 O268 1.257 . S
O245 C244 1.244 . S
O246 Zn238 2.019 . S
O246 C266 1.257 . S
Zn247 N243 2.020 . S
Zn247 O254 1.975 . S
Zn247 N263 2.119 . S
Zn247 O268 2.019 1_655 S
N248 Zn238 2.119 . S
N248 C250 1.334 . S
N248 C251 1.328 . S
C249 C250 1.391 . S
C249 N252 1.329 . S
C249 H270 0.930 . S
C250 N248 1.334 . S
C250 C249 1.391 . S
C250 H257 0.930 . S
C251 N248 1.328 . S
C251 C253 1.392 . S
C251 H258 0.930 . S
N252 C249 1.329 . S
N252 C253 1.331 . S
C253 C251 1.392 . S
C253 N252 1.331 . S
O254 Zn247 1.975 . S
O254 C255 1.252 . S
C255 O254 1.252 . S
C255 O256 1.252 . S
O256 Zn238 1.975 . S
O256 C255 1.252 . S
H257 C250 0.930 . S
H258 C251 0.930 . S
C259 C260 1.392 1_455 S
C259 N263 1.328 1_455 S
C259 H265 0.930 . S
C260 C259 1.392 1_655 S
C260 N264 1.331 . S
C261 C262 1.391 . S
C261 N264 1.329 . S
C261 H271 0.930 . S
C262 C261 1.391 . S
C262 N263 1.334 . S
C262 H269 0.930 . S
N263 Zn247 2.119 . S
N263 C259 1.328 1_655 S
N263 C262 1.334 . S
N264 C260 1.331 . S
N264 C261 1.329 . S
H265 C259 0.930 . S
C266 O246 1.257 . S
C266 O267 1.244 . S
O267 C266 1.244 . S
O268 C244 1.257 . S
O268 Zn247 2.019 1_455 S
H269 C262 0.930 . S
H270 C249 0.930 . S
H271 C261 0.930 . S
Zn272 N276 2.020 . S
Zn272 O280 2.019 1_556 S
Zn272 N282 2.119 . S
Zn272 O290 1.975 1_556 S
C273 N274 1.334 . S
C273 N277 1.336 . S
N274 C273 1.334 . S
N274 C275 1.334 . S
C275 N274 1.334 . S
C275 N276 1.336 . S
N276 Zn272 2.020 . S
N276 C275 1.336 . S
N276 N277 1.354 . S
N277 C273 1.336 . S
N277 N276 1.354 . S
N277 Zn281 2.020 . S
C278 O279 1.244 . S
C278 O302 1.257 1_556 S
O279 C278 1.244 . S
O280 Zn272 2.019 1_554 S
O280 C300 1.257 1_554 S
Zn281 N277 2.020 . S
Zn281 O288 1.975 1_556 S
Zn281 N297 2.119 . S
Zn281 O302 2.019 1_556 S
N282 Zn272 2.119 . S
N282 C284 1.334 . S
N282 C285 1.328 . S
C283 C284 1.391 1_554 S
C283 N286 1.329 . S
C283 H304 0.930 . S
C284 N282 1.334 . S
C284 C283 1.391 1_556 S
C284 H291 0.930 . S
C285 N282 1.328 . S
C285 C287 1.386 1_556 S
C285 H292 0.930 . S
N286 C283 1.329 . S
N286 C287 1.335 . S
C287 C285 1.386 1_554 S
C287 N286 1.335 . S
O288 Zn281 1.975 1_554 S
O288 C289 1.252 . S
C289 O288 1.252 . S
C289 O290 1.252 . S
O290 Zn272 1.975 1_554 S
O290 C289 1.252 . S
H291 C284 0.930 . S
H292 C285 0.930 . S
C293 C294 1.386 1_556 S
C293 N297 1.328 . S
C293 H299 0.930 . S
C294 C293 1.386 1_554 S
C294 N298 1.335 . S
C295 C296 1.391 1_554 S
C295 N298 1.329 . S
C295 H305 0.930 . S
C296 C295 1.391 1_556 S
C296 N297 1.334 . S
C296 H303 0.930 . S
N297 Zn281 2.119 . S
N297 C293 1.328 . S
N297 C296 1.334 . S
N298 C294 1.335 . S
N298 C295 1.329 . S
H299 C293 0.930 . S
C300 O280 1.257 1_556 S
C300 O301 1.244 . S
O301 C300 1.244 . S
O302 C278 1.257 1_554 S
O302 Zn281 2.019 1_554 S
H303 C296 0.930 . S
H304 C283 0.930 . S
H305 C295 0.930 . S
Zn306 N310 2.020 . S
Zn306 O314 2.019 . S
Zn306 N316 2.119 . S
Zn306 O324 1.975 . S
C307 N308 1.334 . S
C307 N311 1.336 . S
N308 C307 1.334 . S
N308 C309 1.334 . S
C309 N308 1.334 . S
C309 N310 1.336 . S
N310 Zn306 2.020 . S
N310 C309 1.336 . S
N310 N311 1.354 . S
N311 C307 1.336 . S
N311 N310 1.354 . S
N311 Zn315 2.020 . S
C312 O313 1.244 . S
C312 O336 1.257 . S
O313 C312 1.244 . S
O314 Zn306 2.019 . S
O314 C334 1.257 . S
Zn315 N311 2.020 . S
Zn315 O322 1.975 . S
Zn315 N331 2.119 . S
Zn315 O336 2.019 . S
N316 Zn306 2.119 . S
N316 C318 1.334 . S
N316 C319 1.328 . S
C317 C318 1.391 . S
C317 N320 1.329 . S
C317 H338 0.930 . S
C318 N316 1.334 . S
C318 C317 1.391 . S
C318 H325 0.930 . S
C319 N316 1.328 . S
C319 C321 1.392 . S
C319 H326 0.930 . S
N320 C317 1.329 . S
N320 C321 1.331 . S
C321 C319 1.392 . S
C321 N320 1.331 . S
O322 Zn315 1.975 . S
O322 C323 1.252 . S
C323 O322 1.252 . S
C323 O324 1.252 . S
O324 Zn306 1.975 . S
O324 C323 1.252 . S
H325 C318 0.930 . S
H326 C319 0.930 . S
C327 C328 1.392 . S
C327 N331 1.328 . S
C327 H333 0.930 . S
C328 C327 1.392 . S
C328 N332 1.331 . S
C329 C330 1.391 . S
C329 N332 1.329 . S
C329 H339 0.930 . S
C330 C329 1.391 . S
C330 N331 1.334 . S
C330 H337 0.930 . S
N331 Zn315 2.119 . S
N331 C327 1.328 . S
N331 C330 1.334 . S
N332 C328 1.331 . S
N332 C329 1.329 . S
H333 C327 0.930 . S
C334 O314 1.257 . S
C334 O335 1.244 . S
O335 C334 1.244 . S
O336 C312 1.257 . S
O336 Zn315 2.019 . S
H337 C330 0.930 . S
H338 C317 0.930 . S
H339 C329 0.930 . S
Zn340 N344 2.020 . S
Zn340 O348 2.019 1_554 S
Zn340 N350 2.119 . S
Zn340 O358 1.975 1_554 S
C341 N342 1.334 . S
C341 N345 1.336 . S
N342 C341 1.334 . S
N342 C343 1.334 . S
C343 N342 1.334 . S
C343 N344 1.336 . S
N344 Zn340 2.020 . S
N344 C343 1.336 . S
N344 N345 1.354 . S
N345 C341 1.336 . S
N345 N344 1.354 . S
N345 Zn349 2.020 . S
C346 O347 1.244 . S
C346 O370 1.257 1_554 S
O347 C346 1.244 . S
O348 Zn340 2.019 1_556 S
O348 C368 1.257 1_556 S
Zn349 N345 2.020 . S
Zn349 O356 1.975 1_554 S
Zn349 N365 2.119 . S
Zn349 O370 2.019 1_554 S
N350 Zn340 2.119 . S
N350 C352 1.334 . S
N350 C353 1.328 . S
C351 C352 1.391 1_556 S
C351 N354 1.329 . S
C351 H372 0.930 . S
C352 N350 1.334 . S
C352 C351 1.391 1_554 S
C352 H359 0.930 . S
C353 N350 1.328 . S
C353 C355 1.386 1_554 S
C353 H360 0.930 . S
N354 C351 1.329 . S
N354 C355 1.335 . S
C355 C353 1.386 1_556 S
C355 N354 1.335 . S
O356 Zn349 1.975 1_556 S
O356 C357 1.252 . S
C357 O356 1.252 . S
C357 O358 1.252 . S
O358 Zn340 1.975 1_556 S
O358 C357 1.252 . S
H359 C352 0.930 . S
H360 C353 0.930 . S
C361 C362 1.386 1_554 S
C361 N365 1.328 . S
C361 H367 0.930 . S
C362 C361 1.386 1_556 S
C362 N366 1.335 . S
C363 C364 1.391 1_556 S
C363 N366 1.329 . S
C363 H373 0.930 . S
C364 C363 1.391 1_554 S
C364 N365 1.334 . S
C364 H371 0.930 . S
N365 Zn349 2.119 . S
N365 C361 1.328 . S
N365 C364 1.334 . S
N366 C362 1.335 . S
N366 C363 1.329 . S
H367 C361 0.930 . S
C368 O348 1.257 1_554 S
C368 O369 1.244 . S
O369 C368 1.244 . S
O370 C346 1.257 1_556 S
O370 Zn349 2.019 1_556 S
H371 C364 0.930 . S
H372 C351 0.930 . S
H373 C363 0.930 . S
Zn374 N378 2.020 . S
Zn374 O382 2.019 . S
Zn374 N384 2.119 . S
Zn374 O392 1.975 . S
C375 N376 1.334 . S
C375 N379 1.336 . S
N376 C375 1.334 . S
N376 C377 1.334 . S
C377 N376 1.334 . S
C377 N378 1.336 . S
N378 Zn374 2.020 . S
N378 C377 1.336 . S
N378 N379 1.354 . S
N379 C375 1.336 . S
N379 N378 1.354 . S
N379 Zn383 2.020 . S
C380 O381 1.244 . S
C380 O404 1.257 . S
O381 C380 1.244 . S
O382 Zn374 2.019 . S
O382 C402 1.257 . S
Zn383 N379 2.020 . S
Zn383 O390 1.975 . S
Zn383 N399 2.119 . S
Zn383 O404 2.019 . S
N384 Zn374 2.119 . S
N384 C386 1.334 . S
N384 C387 1.328 . S
C385 C386 1.391 . S
C385 N388 1.329 . S
C385 H406 0.930 . S
C386 N384 1.334 . S
C386 C385 1.391 . S
C386 H393 0.930 . S
C387 N384 1.328 . S
C387 C389 1.392 . S
C387 H394 0.930 . S
N388 C385 1.329 . S
N388 C389 1.331 . S
C389 C387 1.392 . S
C389 N388 1.331 . S
O390 Zn383 1.975 . S
O390 C391 1.252 . S
C391 O390 1.252 . S
C391 O392 1.252 . S
O392 Zn374 1.975 . S
O392 C391 1.252 . S
H393 C386 0.930 . S
H394 C387 0.930 . S
C395 C396 1.392 . S
C395 N399 1.328 . S
C395 H401 0.930 . S
C396 C395 1.392 . S
C396 N400 1.331 . S
C397 C398 1.391 . S
C397 N400 1.329 . S
C397 H407 0.930 . S
C398 C397 1.391 . S
C398 N399 1.334 . S
C398 H405 0.930 . S
N399 Zn383 2.119 . S
N399 C395 1.328 . S
N399 C398 1.334 . S
N400 C396 1.331 . S
N400 C397 1.329 . S
H401 C395 0.930 . S
C402 O382 1.257 . S
C402 O403 1.244 . S
O403 C402 1.244 . S
O404 C380 1.257 . S
O404 Zn383 2.019 . S
H405 C398 0.930 . S
H406 C385 0.930 . S
H407 C397 0.930 . S
Zn408 N412 2.020 . S
Zn408 O416 2.019 . S
Zn408 N418 2.119 . S
Zn408 O426 1.975 . S
C409 N410 1.334 . S
C409 N413 1.336 . S
N410 C409 1.334 . S
N410 C411 1.334 . S
C411 N410 1.334 . S
C411 N412 1.336 . S
N412 Zn408 2.020 . S
N412 C411 1.336 . S
N412 N413 1.354 . S
N413 C409 1.336 . S
N413 N412 1.354 . S
N413 Zn417 2.020 . S
C414 O415 1.244 . S
C414 O438 1.257 . S
O415 C414 1.244 . S
O416 Zn408 2.019 . S
O416 C436 1.257 . S
Zn417 N413 2.020 . S
Zn417 O424 1.975 . S
Zn417 N433 2.119 . S
Zn417 O438 2.019 . S
N418 Zn408 2.119 . S
N418 C420 1.334 . S
N418 C421 1.328 . S
C419 C420 1.391 . S
C419 N422 1.329 . S
C419 H440 0.930 . S
C420 N418 1.334 . S
C420 C419 1.391 . S
C420 H427 0.930 . S
C421 N418 1.328 . S
C421 C423 1.392 . S
C421 H428 0.930 . S
N422 C419 1.329 . S
N422 C423 1.331 . S
C423 C421 1.392 . S
C423 N422 1.331 . S
O424 Zn417 1.975 . S
O424 C425 1.252 . S
C425 O424 1.252 . S
C425 O426 1.252 . S
O426 Zn408 1.975 . S
O426 C425 1.252 . S
H427 C420 0.930 . S
H428 C421 0.930 . S
C429 C430 1.392 . S
C429 N433 1.328 . S
C429 H435 0.930 . S
C430 C429 1.392 . S
C430 N434 1.331 . S
C431 C432 1.391 . S
C431 N434 1.329 . S
C431 H441 0.930 . S
C432 C431 1.391 . S
C432 N433 1.334 . S
C432 H439 0.930 . S
N433 Zn417 2.119 . S
N433 C429 1.328 . S
N433 C432 1.334 . S
N434 C430 1.331 . S
N434 C431 1.329 . S
H435 C429 0.930 . S
C436 O416 1.257 . S
C436 O437 1.244 . S
O437 C436 1.244 . S
O438 C414 1.257 . S
O438 Zn417 2.019 . S
H439 C432 0.930 . S
H440 C419 0.930 . S
H441 C431 0.930 . S
Zn442 N446 2.020 . S
Zn442 O450 2.019 . S
Zn442 N452 2.119 . S
Zn442 O460 1.975 . S
C443 N444 1.334 . S
C443 N447 1.336 . S
N444 C443 1.334 . S
N444 C445 1.334 . S
C445 N444 1.334 . S
C445 N446 1.336 . S
N446 Zn442 2.020 . S
N446 C445 1.336 . S
N446 N447 1.354 . S
N447 C443 1.336 . S
N447 N446 1.354 . S
N447 Zn451 2.020 . S
C448 O449 1.244 . S
C448 O472 1.257 . S
O449 C448 1.244 . S
O450 Zn442 2.019 . S
O450 C470 1.257 . S
Zn451 N447 2.020 . S
Zn451 O458 1.975 . S
Zn451 N467 2.119 . S
Zn451 O472 2.019 . S
N452 Zn442 2.119 . S
N452 C454 1.334 . S
N452 C455 1.328 . S
C453 C454 1.391 . S
C453 N456 1.329 . S
C453 H474 0.930 . S
C454 N452 1.334 . S
C454 C453 1.391 . S
C454 H461 0.930 . S
C455 N452 1.328 . S
C455 C457 1.392 . S
C455 H462 0.930 . S
N456 C453 1.329 . S
N456 C457 1.331 . S
C457 C455 1.392 . S
C457 N456 1.331 . S
O458 Zn451 1.975 . S
O458 C459 1.252 . S
C459 O458 1.252 . S
C459 O460 1.252 . S
O460 Zn442 1.975 . S
O460 C459 1.252 . S
H461 C454 0.930 . S
H462 C455 0.930 . S
C463 C464 1.392 . S
C463 N467 1.328 . S
C463 H469 0.930 . S
C464 C463 1.392 . S
C464 N468 1.331 . S
C465 C466 1.391 . S
C465 N468 1.329 . S
C465 H475 0.930 . S
C466 C465 1.391 . S
C466 N467 1.334 . S
C466 H473 0.930 . S
N467 Zn451 2.119 . S
N467 C463 1.328 . S
N467 C466 1.334 . S
N468 C464 1.331 . S
N468 C465 1.329 . S
H469 C463 0.930 . S
C470 O450 1.257 . S
C470 O471 1.244 . S
O471 C470 1.244 . S
O472 C448 1.257 . S
O472 Zn451 2.019 . S
H473 C466 0.930 . S
H474 C453 0.930 . S
H475 C465 0.930 . S
Zn476 N480 2.020 . S
Zn476 O484 2.019 . S
Zn476 N486 2.119 . S
Zn476 O494 1.975 . S
C477 N478 1.334 . S
C477 N481 1.336 . S
N478 C477 1.334 . S
N478 C479 1.334 . S
C479 N478 1.334 . S
C479 N480 1.336 . S
N480 Zn476 2.020 . S
N480 C479 1.336 . S
N480 N481 1.354 . S
N481 C477 1.336 . S
N481 N480 1.354 . S
N481 Zn485 2.020 . S
C482 O483 1.244 . S
C482 O506 1.257 . S
O483 C482 1.244 . S
O484 Zn476 2.019 . S
O484 C504 1.257 . S
Zn485 N481 2.020 . S
Zn485 O492 1.975 . S
Zn485 N501 2.119 . S
Zn485 O506 2.019 . S
N486 Zn476 2.119 . S
N486 C488 1.334 . S
N486 C489 1.328 . S
C487 C488 1.391 . S
C487 N490 1.329 . S
C487 H508 0.930 . S
C488 N486 1.334 . S
C488 C487 1.391 . S
C488 H495 0.930 . S
C489 N486 1.328 . S
C489 C491 1.392 . S
C489 H496 0.930 . S
N490 C487 1.329 . S
N490 C491 1.331 . S
C491 C489 1.392 . S
C491 N490 1.331 . S
O492 Zn485 1.975 . S
O492 C493 1.252 . S
C493 O492 1.252 . S
C493 O494 1.252 . S
O494 Zn476 1.975 . S
O494 C493 1.252 . S
H495 C488 0.930 . S
H496 C489 0.930 . S
C497 C498 1.392 . S
C497 N501 1.328 . S
C497 H503 0.930 . S
C498 C497 1.392 . S
C498 N502 1.331 . S
C499 C500 1.391 . S
C499 N502 1.329 . S
C499 H509 0.930 . S
C500 C499 1.391 . S
C500 N501 1.334 . S
C500 H507 0.930 . S
N501 Zn485 2.119 . S
N501 C497 1.328 . S
N501 C500 1.334 . S
N502 C498 1.331 . S
N502 C499 1.329 . S
H503 C497 0.930 . S
C504 O484 1.257 . S
C504 O505 1.244 . S
O505 C504 1.244 . S
O506 C482 1.257 . S
O506 Zn485 2.019 . S
H507 C500 0.930 . S
H508 C487 0.930 . S
H509 C499 0.930 . S
Zn510 N514 2.020 . S
Zn510 O518 2.019 . S
Zn510 N520 2.119 . S
Zn510 O528 1.975 . S
C511 N512 1.334 . S
C511 N515 1.336 . S
N512 C511 1.334 . S
N512 C513 1.334 . S
C513 N512 1.334 . S
C513 N514 1.336 . S
N514 Zn510 2.020 . S
N514 C513 1.336 . S
N514 N515 1.354 . S
N515 C511 1.336 . S
N515 N514 1.354 . S
N515 Zn519 2.020 . S
C516 O517 1.244 . S
C516 O540 1.257 . S
O517 C516 1.244 . S
O518 Zn510 2.019 . S
O518 C538 1.257 . S
Zn519 N515 2.020 . S
Zn519 O526 1.975 . S
Zn519 N535 2.119 . S
Zn519 O540 2.019 . S
N520 Zn510 2.119 . S
N520 C522 1.334 . S
N520 C523 1.328 . S
C521 C522 1.391 . S
C521 N524 1.329 . S
C521 H542 0.930 . S
C522 N520 1.334 . S
C522 C521 1.391 . S
C522 H529 0.930 . S
C523 N520 1.328 . S
C523 C525 1.392 . S
C523 H530 0.930 . S
N524 C521 1.329 . S
N524 C525 1.331 . S
C525 C523 1.392 . S
C525 N524 1.331 . S
O526 Zn519 1.975 . S
O526 C527 1.252 . S
C527 O526 1.252 . S
C527 O528 1.252 . S
O528 Zn510 1.975 . S
O528 C527 1.252 . S
H529 C522 0.930 . S
H530 C523 0.930 . S
C531 C532 1.392 . S
C531 N535 1.328 . S
C531 H537 0.930 . S
C532 C531 1.392 . S
C532 N536 1.331 . S
C533 C534 1.391 . S
C533 N536 1.329 . S
C533 H543 0.930 . S
C534 C533 1.391 . S
C534 N535 1.334 . S
C534 H541 0.930 . S
N535 Zn519 2.119 . S
N535 C531 1.328 . S
N535 C534 1.334 . S
N536 C532 1.331 . S
N536 C533 1.329 . S
H537 C531 0.930 . S
C538 O518 1.257 . S
C538 O539 1.244 . S
O539 C538 1.244 . S
O540 C516 1.257 . S
O540 Zn519 2.019 . S
H541 C534 0.930 . S
H542 C521 0.930 . S
H543 C533 0.930 . S
H544 C550 0.930 . S
H545 C553 0.930 . S
H546 C554 0.930 . S
H547 C555 0.930 . S
H548 C558 0.930 . S
H549 C559 0.930 . S
C550 H544 0.930 . S
C550 C551 1.355 . S
C550 C552 1.415 . S
C551 C550 1.355 . S
C551 C553 1.419 . S
C552 C550 1.415 . S
C552 C557 1.425 . S
C552 C559 1.409 . S
C553 H545 0.930 . S
C553 C551 1.419 . S
C553 C554 1.362 . S
C554 H546 0.930 . S
C554 C553 1.362 . S
C554 C557 1.409 . S
C555 H547 0.930 . S
C555 C556 1.355 . S
C555 C557 1.415 . S
C556 C555 1.355 . S
C556 C558 1.419 . S
C557 C552 1.425 . S
C557 C554 1.409 . S
C557 C555 1.415 . S
C558 H548 0.930 . S
C558 C556 1.419 . S
C558 C559 1.362 . S
C559 H549 0.930 . S
C559 C552 1.409 . S
C559 C558 1.362 . S
H560 C566 0.930 . S
H561 C569 0.930 . S
H562 C570 0.930 . S
H563 C571 0.930 . S
H564 C574 0.930 . S
H565 C575 0.930 . S
C566 H560 0.930 . S
C566 C567 1.355 1_655 S
C566 C568 1.415 . S
C567 C566 1.355 1_455 S
C567 C569 1.419 . S
C568 C566 1.415 . S
C568 C573 1.425 1_665 S
C568 C575 1.409 1_565 S
C569 H561 0.930 . S
C569 C567 1.419 . S
C569 C570 1.362 . S
C570 H562 0.930 . S
C570 C569 1.362 . S
C570 C573 1.409 1_565 S
C571 H563 0.930 . S
C571 C572 1.355 1_455 S
C571 C573 1.415 . S
C572 C571 1.355 1_655 S
C572 C574 1.419 . S
C573 C568 1.425 1_445 S
C573 C570 1.409 1_545 S
C573 C571 1.415 . S
C574 H564 0.930 . S
C574 C572 1.419 . S
C574 C575 1.362 . S
C575 H565 0.930 . S
C575 C568 1.409 1_545 S
C575 C574 1.362 . S
H576 C582 0.930 . S
H577 C585 0.930 . S
H578 C586 0.930 . S
H579 C587 0.930 . S
H580 C590 0.930 . S
H581 C591 0.930 . S
C582 H576 0.930 . S
C582 C583 1.355 . S
C582 C584 1.415 . S
C583 C582 1.355 . S
C583 C585 1.419 . S
C584 C582 1.415 . S
C584 C589 1.425 1_545 S
C584 C591 1.409 1_545 S
C585 H577 0.930 . S
C585 C583 1.419 . S
C585 C586 1.362 . S
C586 H578 0.930 . S
C586 C585 1.362 . S
C586 C589 1.409 1_545 S
C587 H579 0.930 . S
C587 C588 1.355 . S
C587 C589 1.415 . S
C588 C587 1.355 . S
C588 C590 1.419 . S
C589 C584 1.425 1_565 S
C589 C586 1.409 1_565 S
C589 C587 1.415 . S
C590 H580 0.930 . S
C590 C588 1.419 . S
C590 C591 1.362 . S
C591 H581 0.930 . S
C591 C584 1.409 1_565 S
C591 C590 1.362 . S
H592 C598 0.930 . S
H593 C601 0.930 . S
H594 C602 0.930 . S
H595 C603 0.930 . S
H596 C606 0.930 . S
H597 C607 0.930 . S
C598 H592 0.930 . S
C598 C599 1.355 1_455 S
C598 C600 1.415 . S
C599 C598 1.355 1_655 S
C599 C601 1.419 . S
C600 C598 1.415 . S
C600 C605 1.425 1_455 S
C600 C607 1.409 . S
C601 H593 0.930 . S
C601 C599 1.419 . S
C601 C602 1.362 . S
C602 H594 0.930 . S
C602 C601 1.362 . S
C602 C605 1.409 . S
C603 H595 0.930 . S
C603 C604 1.355 1_655 S
C603 C605 1.415 . S
C604 C603 1.355 1_455 S
C604 C606 1.419 . S
C605 C600 1.425 1_655 S
C605 C602 1.409 . S
C605 C603 1.415 . S
C606 H596 0.930 . S
C606 C604 1.419 . S
C606 C607 1.362 . S
C607 H597 0.930 . S
C607 C600 1.409 . S
C607 C606 1.362 . S
H608 C614 0.930 . S
H609 C617 0.930 . S
H610 C618 0.930 . S
H611 C619 0.930 . S
H612 C622 0.930 . S
H613 C623 0.930 . S
C614 H608 0.930 . S
C614 C615 1.355 . S
C614 C616 1.415 . S
C615 C614 1.355 . S
C615 C617 1.419 . S
C616 C614 1.415 . S
C616 C621 1.425 . S
C616 C623 1.409 . S
C617 H609 0.930 . S
C617 C615 1.419 . S
C617 C618 1.362 . S
C618 H610 0.930 . S
C618 C617 1.362 . S
C618 C621 1.409 . S
C619 H611 0.930 . S
C619 C620 1.355 . S
C619 C621 1.415 . S
C620 C619 1.355 . S
C620 C622 1.419 . S
C621 C616 1.425 . S
C621 C618 1.409 . S
C621 C619 1.415 . S
C622 H612 0.930 . S
C622 C620 1.419 . S
C622 C623 1.362 . S
C623 H613 0.930 . S
C623 C616 1.409 . S
C623 C622 1.362 . S
H624 C630 0.930 . S
H625 C633 0.930 . S
H626 C634 0.930 . S
H627 C635 0.930 . S
H628 C638 0.930 . S
H629 C639 0.930 . S
C630 H624 0.930 . S
C630 C631 1.355 . S
C630 C632 1.415 . S
C631 C630 1.355 . S
C631 C633 1.419 . S
C632 C630 1.415 . S
C632 C637 1.425 1_565 S
C632 C639 1.409 1_565 S
C633 H625 0.930 . S
C633 C631 1.419 . S
C633 C634 1.362 . S
C634 H626 0.930 . S
C634 C633 1.362 . S
C634 C637 1.409 1_565 S
C635 H627 0.930 . S
C635 C636 1.355 . S
C635 C637 1.415 . S
C636 C635 1.355 . S
C636 C638 1.419 . S
C637 C632 1.425 1_545 S
C637 C634 1.409 1_545 S
C637 C635 1.415 . S
C638 H628 0.930 . S
C638 C636 1.419 . S
C638 C639 1.362 . S
C639 H629 0.930 . S
C639 C632 1.409 1_545 S
C639 C638 1.362 . S
H640 C646 0.930 . S
H641 C649 0.930 . S
H642 C650 0.930 . S
H643 C651 0.930 . S
H644 C654 0.930 . S
H645 C655 0.930 . S
C646 H640 0.930 . S
C646 C647 1.355 . S
C646 C648 1.415 . S
C647 C646 1.355 . S
C647 C649 1.419 1_455 S
C648 C646 1.415 . S
C648 C653 1.425 1_455 S
C648 C655 1.409 . S
C649 H641 0.930 . S
C649 C647 1.419 1_655 S
C649 C650 1.362 . S
C650 H642 0.930 . S
C650 C649 1.362 . S
C650 C653 1.409 . S
C651 H643 0.930 . S
C651 C652 1.355 . S
C651 C653 1.415 . S
C652 C651 1.355 . S
C652 C654 1.419 1_655 S
C653 C648 1.425 1_655 S
C653 C650 1.409 . S
C653 C651 1.415 . S
C654 H644 0.930 . S
C654 C652 1.419 1_455 S
C654 C655 1.362 . S
C655 H645 0.930 . S
C655 C648 1.409 . S
C655 C654 1.362 . S
H656 C662 0.930 . S
H657 C665 0.930 . S
H658 C666 0.930 . S
H659 C667 0.930 . S
H660 C670 0.930 . S
H661 C671 0.930 . S
C662 H656 0.930 . S
C662 C663 1.355 1_556 S
C662 C664 1.415 . S
C663 C662 1.355 1_554 S
C663 C665 1.419 . S
C664 C662 1.415 . S
C664 C669 1.425 1_556 S
C664 C671 1.409 . S
C665 H657 0.930 . S
C665 C663 1.419 . S
C665 C666 1.362 . S
C666 H658 0.930 . S
C666 C665 1.362 . S
C666 C669 1.409 . S
C667 H659 0.930 . S
C667 C668 1.355 1_554 S
C667 C669 1.415 . S
C668 C667 1.355 1_556 S
C668 C670 1.419 . S
C669 C664 1.425 1_554 S
C669 C666 1.409 . S
C669 C667 1.415 . S
C670 H660 0.930 . S
C670 C668 1.419 . S
C670 C671 1.362 . S
C671 H661 0.930 . S
C671 C664 1.409 . S
C671 C670 1.362 . S
H672 C678 0.930 . S
H673 C681 0.930 . S
H674 C682 0.930 . S
H675 C683 0.930 . S
H676 C686 0.930 . S
H677 C687 0.930 . S
C678 H672 0.930 . S
C678 C679 1.352 1_454 S
C678 C680 1.415 . S
C679 C678 1.352 1_656 S
C679 C681 1.423 . S
C680 C678 1.415 . S
C680 C685 1.425 1_454 S
C680 C687 1.409 . S
C681 H673 0.930 . S
C681 C679 1.423 . S
C681 C682 1.362 . S
C682 H674 0.930 . S
C682 C681 1.362 . S
C682 C685 1.409 . S
C683 H675 0.930 . S
C683 C684 1.352 1_656 S
C683 C685 1.415 . S
C684 C683 1.352 1_454 S
C684 C686 1.423 . S
C685 C680 1.425 1_656 S
C685 C682 1.409 . S
C685 C683 1.415 . S
C686 H676 0.930 . S
C686 C684 1.423 . S
C686 C687 1.362 . S
C687 H677 0.930 . S
C687 C680 1.409 . S
C687 C686 1.362 . S
H688 C694 0.930 . S
H689 C697 0.930 . S
H690 C698 0.930 . S
H691 C699 0.930 . S
H692 C702 0.930 . S
H693 C703 0.930 . S
C694 H688 0.930 . S
C694 C695 1.355 . S
C694 C696 1.415 . S
C695 C694 1.355 . S
C695 C697 1.419 . S
C696 C694 1.415 . S
C696 C701 1.425 . S
C696 C703 1.409 . S
C697 H689 0.930 . S
C697 C695 1.419 . S
C697 C698 1.362 . S
C698 H690 0.930 . S
C698 C697 1.362 . S
C698 C701 1.409 . S
C699 H691 0.930 . S
C699 C700 1.355 . S
C699 C701 1.415 . S
C700 C699 1.355 . S
C700 C702 1.419 . S
C701 C696 1.425 . S
C701 C698 1.409 . S
C701 C699 1.415 . S
C702 H692 0.930 . S
C702 C700 1.419 . S
C702 C703 1.362 . S
C703 H693 0.930 . S
C703 C696 1.409 . S
C703 C702 1.362 . S
H704 C710 0.930 . S
H705 C713 0.930 . S
H706 C714 0.930 . S
H707 C715 0.930 . S
H708 C718 0.930 . S
H709 C719 0.930 . S
C710 H704 0.930 . S
C710 C711 1.355 1_556 S
C710 C712 1.415 . S
C711 C710 1.355 1_554 S
C711 C713 1.419 . S
C712 C710 1.415 . S
C712 C717 1.425 1_556 S
C712 C719 1.409 . S
C713 H705 0.930 . S
C713 C711 1.419 . S
C713 C714 1.362 . S
C714 H706 0.930 . S
C714 C713 1.362 . S
C714 C717 1.409 . S
C715 H707 0.930 . S
C715 C716 1.355 1_554 S
C715 C717 1.415 . S
C716 C715 1.355 1_556 S
C716 C718 1.419 . S
C717 C712 1.425 1_554 S
C717 C714 1.409 . S
C717 C715 1.415 . S
C718 H708 0.930 . S
C718 C716 1.419 . S
C718 C719 1.362 . S
C719 H709 0.930 . S
C719 C712 1.409 . S
C719 C718 1.362 . S
H720 C726 0.930 . S
H721 C729 0.930 . S
H722 C730 0.930 . S
H723 C731 0.930 . S
H724 C734 0.930 . S
H725 C735 0.930 . S
C726 H720 0.930 . S
C726 C727 1.355 . S
C726 C728 1.415 . S
C727 C726 1.355 . S
C727 C729 1.419 . S
C728 C726 1.415 . S
C728 C733 1.425 . S
C728 C735 1.409 . S
C729 H721 0.930 . S
C729 C727 1.419 . S
C729 C730 1.362 . S
C730 H722 0.930 . S
C730 C729 1.362 . S
C730 C733 1.409 . S
C731 H723 0.930 . S
C731 C732 1.355 . S
C731 C733 1.415 . S
C732 C731 1.355 . S
C732 C734 1.419 . S
C733 C728 1.425 . S
C733 C730 1.409 . S
C733 C731 1.415 . S
C734 H724 0.930 . S
C734 C732 1.419 . S
C734 C735 1.362 . S
C735 H725 0.930 . S
C735 C728 1.409 . S
C735 C734 1.362 . S
H736 C742 0.931 . S
H737 C745 0.930 . S
H738 C746 0.930 . S
H739 C747 0.931 . S
H740 C750 0.930 . S
H741 C751 0.930 . S
C742 H736 0.931 . S
C742 C743 1.354 1_554 S
C742 C744 1.415 . S
C743 C742 1.354 1_556 S
C743 C745 1.419 . S
C744 C742 1.415 . S
C744 C749 1.422 1_544 S
C744 C751 1.412 1_545 S
C745 H737 0.930 . S
C745 C743 1.419 . S
C745 C746 1.362 . S
C746 H738 0.930 . S
C746 C745 1.362 . S
C746 C749 1.412 1_545 S
C747 H739 0.931 . S
C747 C748 1.354 1_556 S
C747 C749 1.415 . S
C748 C747 1.354 1_554 S
C748 C750 1.419 . S
C749 C744 1.422 1_566 S
C749 C746 1.412 1_565 S
C749 C747 1.415 . S
C750 H740 0.930 . S
C750 C748 1.419 . S
C750 C751 1.362 . S
C751 H741 0.930 . S
C751 C744 1.412 1_565 S
C751 C750 1.362 . S
H752 C758 0.930 . S
H753 C761 0.930 . S
H754 C762 0.930 . S
H755 C763 0.930 . S
H756 C766 0.930 . S
H757 C767 0.930 . S
C758 H752 0.930 . S
C758 C759 1.355 . S
C758 C760 1.415 . S
C759 C758 1.355 . S
C759 C761 1.419 . S
C760 C758 1.415 . S
C760 C765 1.425 . S
C760 C767 1.409 . S
C761 H753 0.930 . S
C761 C759 1.419 . S
C761 C762 1.362 . S
C762 H754 0.930 . S
C762 C761 1.362 . S
C762 C765 1.409 . S
C763 H755 0.930 . S
C763 C764 1.355 . S
C763 C765 1.415 . S
C764 C763 1.355 . S
C764 C766 1.419 . S
C765 C760 1.425 . S
C765 C762 1.409 . S
C765 C763 1.415 . S
C766 H756 0.930 . S
C766 C764 1.419 . S
C766 C767 1.362 . S
C767 H757 0.930 . S
C767 C760 1.409 . S
C767 C766 1.362 . S
H768 C774 0.930 . S
H769 C777 0.930 . S
H770 C778 0.930 . S
H771 C779 0.930 . S
H772 C782 0.930 . S
H773 C783 0.930 . S
C774 H768 0.930 . S
C774 C775 1.355 . S
C774 C776 1.415 . S
C775 C774 1.355 . S
C775 C777 1.419 . S
C776 C774 1.415 . S
C776 C781 1.425 . S
C776 C783 1.409 . S
C777 H769 0.930 . S
C777 C775 1.419 . S
C777 C778 1.362 . S
C778 H770 0.930 . S
C778 C777 1.362 . S
C778 C781 1.409 . S
C779 H771 0.930 . S
C779 C780 1.355 . S
C779 C781 1.415 . S
C780 C779 1.355 . S
C780 C782 1.419 . S
C781 C776 1.425 . S
C781 C778 1.409 . S
C781 C779 1.415 . S
C782 H772 0.930 . S
C782 C780 1.419 . S
C782 C783 1.362 . S
C783 H773 0.930 . S
C783 C776 1.409 . S
C783 C782 1.362 . S
H784 C790 0.930 . S
H785 C793 0.930 . S
H786 C794 0.930 . S
H787 C795 0.930 . S
H788 C798 0.930 . S
H789 C799 0.930 . S
C790 H784 0.930 . S
C790 C791 1.355 . S
C790 C792 1.415 . S
C791 C790 1.355 . S
C791 C793 1.419 . S
C792 C790 1.415 . S
C792 C797 1.425 . S
C792 C799 1.409 . S
C793 H785 0.930 . S
C793 C791 1.419 . S
C793 C794 1.362 . S
C794 H786 0.930 . S
C794 C793 1.362 . S
C794 C797 1.409 . S
C795 H787 0.930 . S
C795 C796 1.355 . S
C795 C797 1.415 . S
C796 C795 1.355 . S
C796 C798 1.419 . S
C797 C792 1.425 . S
C797 C794 1.409 . S
C797 C795 1.415 . S
C798 H788 0.930 . S
C798 C796 1.419 . S
C798 C799 1.362 . S
C799 H789 0.930 . S
C799 C792 1.409 . S
C799 C798 1.362 . S
H800 C806 0.930 . S
H801 C809 0.930 . S
H802 C810 0.930 1_655 S
H803 C811 0.930 . S
H804 C814 0.930 . S
H805 C815 0.930 . S
C806 H800 0.930 . S
C806 C807 1.355 . S
C806 C808 1.415 . S
C807 C806 1.355 . S
C807 C809 1.419 . S
C808 C806 1.415 . S
C808 C813 1.425 . S
C808 C815 1.409 . S
C809 H801 0.930 . S
C809 C807 1.419 . S
C809 C810 1.362 . S
C810 H802 0.930 1_455 S
C810 C809 1.362 . S
C810 C813 1.409 . S
C811 H803 0.930 . S
C811 C812 1.355 . S
C811 C813 1.415 . S
C812 C811 1.355 . S
C812 C814 1.419 . S
C813 C808 1.425 . S
C813 C810 1.409 . S
C813 C811 1.415 . S
C814 H804 0.930 . S
C814 C812 1.419 . S
C814 C815 1.362 . S
C815 H805 0.930 . S
C815 C808 1.409 . S
C815 C814 1.362 . S
H816 C822 0.930 . S
H817 C825 0.930 . S
H818 C826 0.930 . S
H819 C827 0.930 . S
H820 C830 0.930 . S
H821 C831 0.937 . S
C822 H816 0.930 . S
C822 C823 1.355 . S
C822 C824 1.415 . S
C823 C822 1.355 . S
C823 C825 1.419 . S
C824 C822 1.415 . S
C824 C829 1.425 . S
C824 C831 1.409 . S
C825 H817 0.930 . S
C825 C823 1.419 . S
C825 C826 1.362 . S
C826 H818 0.930 . S
C826 C825 1.362 . S
C826 C829 1.409 . S
C827 H819 0.930 . S
C827 C828 1.355 . S
C827 C829 1.415 . S
C828 C827 1.355 . S
C828 C830 1.419 . S
C829 C824 1.425 . S
C829 C826 1.409 . S
C829 C827 1.415 . S
C830 H820 0.930 . S
C830 C828 1.419 . S
C830 C831 1.362 . S
C831 H821 0.937 . S
C831 C824 1.409 . S
C831 C830 1.362 . S
H832 C838 0.930 . S
H833 C841 0.930 . S
H834 C842 0.930 1_655 S
H835 C843 0.930 . S
H836 C846 0.930 . S
H837 C847 0.930 . S
C838 H832 0.930 . S
C838 C839 1.355 . S
C838 C840 1.415 . S
C839 C838 1.355 . S
C839 C841 1.419 . S
C840 C838 1.415 . S
C840 C845 1.425 . S
C840 C847 1.409 . S
C841 H833 0.930 . S
C841 C839 1.419 . S
C841 C842 1.362 . S
C842 H834 0.930 1_455 S
C842 C841 1.362 . S
C842 C845 1.409 . S
C843 H835 0.930 . S
C843 C844 1.355 . S
C843 C845 1.415 . S
C844 C843 1.355 . S
C844 C846 1.419 . S
C845 C840 1.425 . S
C845 C842 1.409 . S
C845 C843 1.415 . S
C846 H836 0.930 . S
C846 C844 1.419 . S
C846 C847 1.362 . S
C847 H837 0.930 . S
C847 C840 1.409 . S
C847 C846 1.362 . S
H848 C854 0.930 . S
H849 C857 0.930 . S
H850 C858 0.930 1_455 S
H851 C859 0.930 . S
H852 C862 0.930 . S
H853 C863 0.930 . S
C854 H848 0.930 . S
C854 C855 1.355 . S
C854 C856 1.415 . S
C855 C854 1.355 . S
C855 C857 1.419 . S
C856 C854 1.415 . S
C856 C861 1.425 . S
C856 C863 1.409 . S
C857 H849 0.930 . S
C857 C855 1.419 . S
C857 C858 1.362 . S
C858 H850 0.930 1_655 S
C858 C857 1.362 . S
C858 C861 1.409 . S
C859 H851 0.930 . S
C859 C860 1.355 . S
C859 C861 1.415 . S
C860 C859 1.355 . S
C860 C862 1.419 . S
C861 C856 1.425 . S
C861 C858 1.409 . S
C861 C859 1.415 . S
C862 H852 0.930 . S
C862 C860 1.419 . S
C862 C863 1.362 . S
C863 H853 0.930 . S
C863 C856 1.409 . S
C863 C862 1.362 . S
H864 C870 0.930 . S
H865 C873 0.930 . S
H866 C874 0.930 . S
H867 C875 0.930 . S
H868 C878 0.930 . S
H869 C879 0.930 . S
C870 H864 0.930 . S
C870 C871 1.355 . S
C870 C872 1.415 . S
C871 C870 1.355 . S
C871 C873 1.419 . S
C872 C870 1.415 . S
C872 C877 1.425 . S
C872 C879 1.409 . S
C873 H865 0.930 . S
C873 C871 1.419 . S
C873 C874 1.362 . S
C874 H866 0.930 . S
C874 C873 1.362 . S
C874 C877 1.409 . S
C875 H867 0.930 . S
C875 C876 1.355 . S
C875 C877 1.415 . S
C876 C875 1.355 . S
C876 C878 1.419 . S
C877 C872 1.425 . S
C877 C874 1.409 . S
C877 C875 1.415 . S
C878 H868 0.930 . S
C878 C876 1.419 . S
C878 C879 1.362 . S
C879 H869 0.930 . S
C879 C872 1.409 . S
C879 C878 1.362 . S
H880 C886 0.930 . S
H881 C889 0.930 . S
H882 C890 0.930 . S
H883 C891 0.930 . S
H884 C894 0.930 . S
H885 C895 0.930 . S
C886 H880 0.930 . S
C886 C887 1.355 . S
C886 C888 1.415 . S
C887 C886 1.355 . S
C887 C889 1.419 . S
C888 C886 1.415 . S
C888 C893 1.425 . S
C888 C895 1.409 . S
C889 H881 0.930 . S
C889 C887 1.419 . S
C889 C890 1.362 . S
C890 H882 0.930 . S
C890 C889 1.362 . S
C890 C893 1.409 . S
C891 H883 0.930 . S
C891 C892 1.355 . S
C891 C893 1.415 . S
C892 C891 1.355 . S
C892 C894 1.419 . S
C893 C888 1.425 . S
C893 C890 1.409 . S
C893 C891 1.415 . S
C894 H884 0.930 . S
C894 C892 1.419 . S
C894 C895 1.362 . S
C895 H885 0.930 . S
C895 C888 1.409 . S
C895 C894 1.362 . S
H896 C902 0.930 . S
H897 C905 0.930 . S
H898 C906 0.930 . S
H899 C907 0.930 . S
H900 C910 0.930 . S
H901 C911 0.930 . S
C902 H896 0.930 . S
C902 C903 1.355 . S
C902 C904 1.415 . S
C903 C902 1.355 . S
C903 C905 1.419 . S
C904 C902 1.415 . S
C904 C909 1.425 . S
C904 C911 1.409 . S
C905 H897 0.930 . S
C905 C903 1.419 . S
C905 C906 1.362 . S
C906 H898 0.930 . S
C906 C905 1.362 . S
C906 C909 1.409 . S
C907 H899 0.930 . S
C907 C908 1.355 . S
C907 C909 1.415 . S
C908 C907 1.355 . S
C908 C910 1.419 . S
C909 C904 1.425 . S
C909 C906 1.409 . S
C909 C907 1.415 . S
C910 H900 0.930 . S
C910 C908 1.419 . S
C910 C911 1.362 . S
C911 H901 0.930 . S
C911 C904 1.409 . S
C911 C910 1.362 . S
H912 C918 0.930 . S
H913 C921 0.930 . S
H914 C922 0.930 . S
H915 C923 0.930 . S
H916 C926 0.930 . S
H917 C927 0.930 . S
C918 H912 0.930 . S
C918 C919 1.355 . S
C918 C920 1.415 . S
C919 C918 1.355 . S
C919 C921 1.419 . S
C920 C918 1.415 . S
C920 C925 1.425 . S
C920 C927 1.409 . S
C921 H913 0.930 . S
C921 C919 1.419 . S
C921 C922 1.362 . S
C922 H914 0.930 . S
C922 C921 1.362 . S
C922 C925 1.409 . S
C923 H915 0.930 . S
C923 C924 1.355 . S
C923 C925 1.415 . S
C924 C923 1.355 . S
C924 C926 1.419 . S
C925 C920 1.425 . S
C925 C922 1.409 . S
C925 C923 1.415 . S
C926 H916 0.930 . S
C926 C924 1.419 . S
C926 C927 1.362 . S
C927 H917 0.930 . S
C927 C920 1.409 . S
C927 C926 1.362 . S
H928 C934 0.930 . S
H929 C937 0.930 . S
H930 C938 0.930 . S
H931 C939 0.930 . S
H932 C942 0.930 . S
H933 C943 0.930 . S
C934 H928 0.930 . S
C934 C935 1.355 . S
C934 C936 1.415 . S
C935 C934 1.355 . S
C935 C937 1.419 . S
C936 C934 1.415 . S
C936 C941 1.425 . S
C936 C943 1.409 . S
C937 H929 0.930 . S
C937 C935 1.419 . S
C937 C938 1.362 . S
C938 H930 0.930 . S
C938 C937 1.362 . S
C938 C941 1.409 . S
C939 H931 0.930 . S
C939 C940 1.355 . S
C939 C941 1.415 . S
C940 C939 1.355 . S
C940 C942 1.419 . S
C941 C936 1.425 . S
C941 C938 1.409 . S
C941 C939 1.415 . S
C942 H932 0.930 . S
C942 C940 1.419 . S
C942 C943 1.362 . S
C943 H933 0.930 . S
C943 C936 1.409 . S
C943 C942 1.362 . S
H944 C950 0.930 . S
H945 C953 0.930 . S
H946 C954 0.930 . S
H947 C955 0.930 . S
H948 C958 0.930 . S
H949 C959 0.930 . S
C950 H944 0.930 . S
C950 C951 1.355 . S
C950 C952 1.415 . S
C951 C950 1.355 . S
C951 C953 1.419 1_655 S
C952 C950 1.415 . S
C952 C957 1.425 . S
C952 C959 1.409 . S
C953 H945 0.930 . S
C953 C951 1.419 1_455 S
C953 C954 1.362 1_455 S
C954 H946 0.930 . S
C954 C953 1.362 1_655 S
C954 C957 1.409 . S
C955 H947 0.930 . S
C955 C956 1.355 . S
C955 C957 1.415 . S
C956 C955 1.355 . S
C956 C958 1.419 . S
C957 C952 1.425 . S
C957 C954 1.409 . S
C957 C955 1.415 . S
C958 H948 0.930 . S
C958 C956 1.419 . S
C958 C959 1.362 . S
C959 H949 0.930 . S
C959 C952 1.409 . S
C959 C958 1.362 . S
H960 C966 0.930 . S
H961 C969 0.930 . S
H962 C970 0.930 . S
H963 C971 0.930 . S
H964 C974 0.930 . S
H965 C975 0.930 . S
C966 H960 0.930 . S
C966 C967 1.355 . S
C966 C968 1.415 . S
C967 C966 1.355 . S
C967 C969 1.419 . S
C968 C966 1.415 . S
C968 C973 1.425 . S
C968 C975 1.409 . S
C969 H961 0.930 . S
C969 C967 1.419 . S
C969 C970 1.362 . S
C970 H962 0.930 . S
C970 C969 1.362 . S
C970 C973 1.409 . S
C971 H963 0.930 . S
C971 C972 1.355 . S
C971 C973 1.415 . S
C972 C971 1.355 . S
C972 C974 1.419 . S
C973 C968 1.425 . S
C973 C970 1.409 . S
C973 C971 1.415 . S
C974 H964 0.930 . S
C974 C972 1.419 . S
C974 C975 1.362 . S
C975 H965 0.930 . S
C975 C968 1.409 . S
C975 C974 1.362 . S
H976 C982 0.930 1_455 S
H977 C985 0.930 . S
H978 C986 0.930 . S
H979 C987 0.930 . S
H980 C990 0.930 . S
H981 C991 0.930 . S
C982 H976 0.930 1_655 S
C982 C983 1.355 . S
C982 C984 1.415 . S
C983 C982 1.355 . S
C983 C985 1.419 . S
C984 C982 1.415 . S
C984 C989 1.425 . S
C984 C991 1.409 . S
C985 H977 0.930 . S
C985 C983 1.419 . S
C985 C986 1.362 . S
C986 H978 0.930 . S
C986 C985 1.362 . S
C986 C989 1.409 . S
C987 H979 0.930 . S
C987 C988 1.355 . S
C987 C989 1.415 . S
C988 C987 1.355 . S
C988 C990 1.419 . S
C989 C984 1.425 . S
C989 C986 1.409 . S
C989 C987 1.415 . S
C990 H980 0.930 . S
C990 C988 1.419 . S
C990 C991 1.362 . S
C991 H981 0.930 . S
C991 C984 1.409 . S
C991 C990 1.362 . S
H992 C998 0.930 . S
H993 C1001 0.930 . S
H994 C1002 0.930 . S
H995 C1003 0.930 . S
H996 C1006 0.930 . S
H997 C1007 0.930 . S
C998 H992 0.930 . S
C998 C999 1.355 . S
C998 C1000 1.415 . S
C999 C998 1.355 . S
C999 C1001 1.419 . S
C1000 C998 1.415 . S
C1000 C1005 1.425 . S
C1000 C1007 1.409 . S
C1001 H993 0.930 . S
C1001 C999 1.419 . S
C1001 C1002 1.362 . S
C1002 H994 0.930 . S
C1002 C1001 1.362 . S
C1002 C1005 1.409 . S
C1003 H995 0.930 . S
C1003 C1004 1.355 . S
C1003 C1005 1.415 . S
C1004 C1003 1.355 . S
C1004 C1006 1.419 . S
C1005 C1000 1.425 . S
C1005 C1002 1.409 . S
C1005 C1003 1.415 . S
C1006 H996 0.930 . S
C1006 C1004 1.419 . S
C1006 C1007 1.362 . S
C1007 H997 0.930 . S
C1007 C1000 1.409 . S
C1007 C1006 1.362 . S
H1008 C1014 0.930 . S
H1009 C1017 0.930 . S
H1010 C1018 0.930 . S
H1011 C1019 0.930 1_655 S
H1012 C1022 0.930 . S
H1013 C1023 0.930 . S
C1014 H1008 0.930 . S
C1014 C1015 1.355 . S
C1014 C1016 1.415 . S
C1015 C1014 1.355 . S
C1015 C1017 1.419 . S
C1016 C1014 1.415 . S
C1016 C1021 1.425 . S
C1016 C1023 1.409 . S
C1017 H1009 0.930 . S
C1017 C1015 1.419 . S
C1017 C1018 1.362 . S
C1018 H1010 0.930 . S
C1018 C1017 1.362 . S
C1018 C1021 1.409 . S
C1019 H1011 0.930 1_455 S
C1019 C1020 1.355 . S
C1019 C1021 1.415 . S
C1020 C1019 1.355 . S
C1020 C1022 1.419 . S
C1021 C1016 1.425 . S
C1021 C1018 1.409 . S
C1021 C1019 1.415 . S
C1022 H1012 0.930 . S
C1022 C1020 1.419 . S
C1022 C1023 1.362 . S
C1023 H1013 0.930 . S
C1023 C1016 1.409 . S
C1023 C1022 1.362 . S
H1024 C1030 0.930 . S
H1025 C1033 0.930 . S
H1026 C1034 0.930 . S
H1027 C1035 0.930 . S
H1028 C1038 0.930 . S
H1029 C1039 0.930 . S
C1030 H1024 0.930 . S
C1030 C1031 1.355 . S
C1030 C1032 1.415 . S
C1031 C1030 1.355 . S
C1031 C1033 1.419 . S
C1032 C1030 1.415 . S
C1032 C1037 1.425 . S
C1032 C1039 1.409 . S
C1033 H1025 0.930 . S
C1033 C1031 1.419 . S
C1033 C1034 1.362 . S
C1034 H1026 0.930 . S
C1034 C1033 1.362 . S
C1034 C1037 1.409 . S
C1035 H1027 0.930 . S
C1035 C1036 1.355 . S
C1035 C1037 1.415 . S
C1036 C1035 1.355 . S
C1036 C1038 1.419 . S
C1037 C1032 1.425 . S
C1037 C1034 1.409 . S
C1037 C1035 1.415 . S
C1038 H1028 0.930 . S
C1038 C1036 1.419 . S
C1038 C1039 1.362 . S
C1039 H1029 0.930 . S
C1039 C1032 1.409 . S
C1039 C1038 1.362 . S
H1040 C1046 0.930 . S
H1041 C1049 0.930 . S
H1042 C1050 0.930 . S
H1043 C1051 0.930 1_655 S
H1044 C1054 0.930 . S
H1045 C1055 0.930 . S
C1046 H1040 0.930 . S
C1046 C1047 1.355 . S
C1046 C1048 1.415 . S
C1047 C1046 1.355 . S
C1047 C1049 1.419 . S
C1048 C1046 1.415 . S
C1048 C1053 1.425 . S
C1048 C1055 1.409 . S
C1049 H1041 0.930 . S
C1049 C1047 1.419 . S
C1049 C1050 1.362 . S
C1050 H1042 0.930 . S
C1050 C1049 1.362 . S
C1050 C1053 1.409 . S
C1051 H1043 0.930 1_455 S
C1051 C1052 1.355 . S
C1051 C1053 1.415 . S
C1052 C1051 1.355 . S
C1052 C1054 1.419 . S
C1053 C1048 1.425 . S
C1053 C1050 1.409 . S
C1053 C1051 1.415 . S
C1054 H1044 0.930 . S
C1054 C1052 1.419 . S
C1054 C1055 1.362 . S
C1055 H1045 0.930 . S
C1055 C1048 1.409 . S
C1055 C1054 1.362 . S
H1056 C1062 0.930 . S
H1057 C1065 0.930 . S
H1058 C1066 0.930 . S
H1059 C1067 0.930 . S
H1060 C1070 0.930 . S
H1061 C1071 0.930 . S
C1062 H1056 0.930 . S
C1062 C1063 1.355 . S
C1062 C1064 1.415 . S
C1063 C1062 1.355 . S
C1063 C1065 1.419 . S
C1064 C1062 1.415 . S
C1064 C1069 1.425 . S
C1064 C1071 1.409 . S
C1065 H1057 0.930 . S
C1065 C1063 1.419 . S
C1065 C1066 1.362 . S
C1066 H1058 0.930 . S
C1066 C1065 1.362 . S
C1066 C1069 1.409 . S
C1067 H1059 0.930 . S
C1067 C1068 1.355 . S
C1067 C1069 1.415 . S
C1068 C1067 1.355 . S
C1068 C1070 1.419 . S
C1069 C1064 1.425 . S
C1069 C1066 1.409 . S
C1069 C1067 1.415 . S
C1070 H1060 0.930 . S
C1070 C1068 1.419 . S
C1070 C1071 1.362 . S
C1071 H1061 0.930 . S
C1071 C1064 1.409 . S
C1071 C1070 1.362 . S
H1072 C1078 0.930 1_455 S
H1073 C1081 0.930 . S
H1074 C1082 0.930 . S
H1075 C1083 0.930 . S
H1076 C1086 0.930 . S
H1077 C1087 0.930 . S
C1078 H1072 0.930 1_655 S
C1078 C1079 1.355 . S
C1078 C1080 1.415 . S
C1079 C1078 1.355 . S
C1079 C1081 1.419 . S
C1080 C1078 1.415 . S
C1080 C1085 1.425 . S
C1080 C1087 1.409 . S
C1081 H1073 0.930 . S
C1081 C1079 1.419 . S
C1081 C1082 1.362 . S
C1082 H1074 0.930 . S
C1082 C1081 1.362 . S
C1082 C1085 1.409 . S
C1083 H1075 0.930 . S
C1083 C1084 1.355 . S
C1083 C1085 1.415 . S
C1084 C1083 1.355 . S
C1084 C1086 1.419 . S
C1085 C1080 1.425 . S
C1085 C1082 1.409 . S
C1085 C1083 1.415 . S
C1086 H1076 0.930 . S
C1086 C1084 1.419 . S
C1086 C1087 1.362 . S
C1087 H1077 0.930 . S
C1087 C1080 1.409 . S
C1087 C1086 1.362 . S
H1088 C1094 0.930 . S
H1089 C1097 0.930 . S
H1090 C1098 0.930 . S
H1091 C1099 0.930 . S
H1092 C1102 0.930 . S
H1093 C1103 0.930 . S
C1094 H1088 0.930 . S
C1094 C1095 1.355 . S
C1094 C1096 1.415 . S
C1095 C1094 1.355 . S
C1095 C1097 1.419 . S
C1096 C1094 1.415 . S
C1096 C1101 1.425 . S
C1096 C1103 1.409 . S
C1097 H1089 0.930 . S
C1097 C1095 1.419 . S
C1097 C1098 1.362 . S
C1098 H1090 0.930 . S
C1098 C1097 1.362 . S
C1098 C1101 1.409 . S
C1099 H1091 0.930 . S
C1099 C1100 1.355 . S
C1099 C1101 1.415 . S
C1100 C1099 1.355 . S
C1100 C1102 1.419 . S
C1101 C1096 1.425 . S
C1101 C1098 1.409 . S
C1101 C1099 1.415 . S
C1102 H1092 0.930 . S
C1102 C1100 1.419 . S
C1102 C1103 1.362 . S
C1103 H1093 0.930 . S
C1103 C1096 1.409 . S
C1103 C1102 1.362 . S
H1104 C1110 0.930 . S
H1105 C1113 0.930 . S
H1106 C1114 0.930 . S
H1107 C1115 0.930 . S
H1108 C1118 0.930 . S
H1109 C1119 0.930 . S
C1110 H1104 0.930 . S
C1110 C1111 1.355 . S
C1110 C1112 1.415 . S
C1111 C1110 1.355 . S
C1111 C1113 1.419 . S
C1112 C1110 1.415 . S
C1112 C1117 1.425 . S
C1112 C1119 1.409 . S
C1113 H1105 0.930 . S
C1113 C1111 1.419 . S
C1113 C1114 1.362 . S
C1114 H1106 0.930 . S
C1114 C1113 1.362 . S
C1114 C1117 1.409 . S
C1115 H1107 0.930 . S
C1115 C1116 1.355 . S
C1115 C1117 1.415 . S
C1116 C1115 1.355 . S
C1116 C1118 1.419 1_655 S
C1117 C1112 1.425 . S
C1117 C1114 1.409 . S
C1117 C1115 1.415 . S
C1118 H1108 0.930 . S
C1118 C1116 1.419 1_455 S
C1118 C1119 1.362 1_455 S
C1119 H1109 0.930 . S
C1119 C1112 1.409 . S
C1119 C1118 1.362 1_655 S
H1120 C1126 0.930 . S
H1121 C1129 0.930 . S
H1122 C1130 0.930 . S
H1123 C1131 0.930 . S
H1124 C1134 0.930 . S
H1125 C1135 0.930 . S
C1126 H1120 0.930 . S
C1126 C1127 1.355 . S
C1126 C1128 1.415 . S
C1127 C1126 1.355 . S
C1127 C1129 1.419 . S
C1128 C1126 1.415 . S
C1128 C1133 1.425 . S
C1128 C1135 1.409 . S
C1129 H1121 0.930 . S
C1129 C1127 1.419 . S
C1129 C1130 1.362 . S
C1130 H1122 0.930 . S
C1130 C1129 1.362 . S
C1130 C1133 1.409 . S
C1131 H1123 0.930 . S
C1131 C1132 1.355 . S
C1131 C1133 1.415 . S
C1132 C1131 1.355 . S
C1132 C1134 1.419 . S
C1133 C1128 1.425 . S
C1133 C1130 1.409 . S
C1133 C1131 1.415 . S
C1134 H1124 0.930 . S
C1134 C1132 1.419 . S
C1134 C1135 1.362 . S
C1135 H1125 0.930 . S
C1135 C1128 1.409 . S
C1135 C1134 1.362 . S
H1136 C1142 0.930 . S
H1137 C1145 0.930 . S
H1138 C1146 0.930 . S
H1139 C1147 0.930 . S
H1140 C1150 0.930 . S
H1141 C1151 0.930 . S
C1142 H1136 0.930 . S
C1142 C1143 1.355 . S
C1142 C1144 1.415 . S
C1143 C1142 1.355 . S
C1143 C1145 1.419 1_455 S
C1144 C1142 1.415 . S
C1144 C1149 1.425 . S
C1144 C1151 1.409 . S
C1145 H1137 0.930 . S
C1145 C1143 1.419 1_655 S
C1145 C1146 1.362 1_655 S
C1146 H1138 0.930 . S
C1146 C1145 1.362 1_455 S
C1146 C1149 1.409 . S
C1147 H1139 0.930 . S
C1147 C1148 1.355 . S
C1147 C1149 1.415 . S
C1148 C1147 1.355 . S
C1148 C1150 1.419 . S
C1149 C1144 1.425 . S
C1149 C1146 1.409 . S
C1149 C1147 1.415 . S
C1150 H1140 0.930 . S
C1150 C1148 1.419 . S
C1150 C1151 1.362 . S
C1151 H1141 0.930 . S
C1151 C1144 1.409 . S
C1151 C1150 1.362 . S
H1152 C1158 0.930 . S
H1153 C1161 0.930 . S
H1154 C1162 0.930 . S
H1155 C1163 0.930 . S
H1156 C1166 0.930 . S
H1157 C1167 0.930 . S
C1158 H1152 0.930 . S
C1158 C1159 1.355 . S
C1158 C1160 1.415 . S
C1159 C1158 1.355 . S
C1159 C1161 1.419 . S
C1160 C1158 1.415 . S
C1160 C1165 1.425 . S
C1160 C1167 1.409 . S
C1161 H1153 0.930 . S
C1161 C1159 1.419 . S
C1161 C1162 1.362 . S
C1162 H1154 0.930 . S
C1162 C1161 1.362 . S
C1162 C1165 1.409 . S
C1163 H1155 0.930 . S
C1163 C1164 1.355 . S
C1163 C1165 1.415 . S
C1164 C1163 1.355 . S
C1164 C1166 1.419 . S
C1165 C1160 1.425 . S
C1165 C1162 1.409 . S
C1165 C1163 1.415 . S
C1166 H1156 0.930 . S
C1166 C1164 1.419 . S
C1166 C1167 1.362 . S
C1167 H1157 0.930 . S
C1167 C1160 1.409 . S
C1167 C1166 1.362 . S
H1168 C1174 0.930 . S
H1169 C1177 0.930 . S
H1170 C1178 0.930 . S
H1171 C1179 0.930 . S
H1172 C1182 0.930 . S
H1173 C1183 0.930 . S
C1174 H1168 0.930 . S
C1174 C1175 1.355 . S
C1174 C1176 1.415 . S
C1175 C1174 1.355 . S
C1175 C1177 1.419 . S
C1176 C1174 1.415 . S
C1176 C1181 1.425 . S
C1176 C1183 1.409 . S
C1177 H1169 0.930 . S
C1177 C1175 1.419 . S
C1177 C1178 1.362 . S
C1178 H1170 0.930 . S
C1178 C1177 1.362 . S
C1178 C1181 1.409 . S
C1179 H1171 0.930 . S
C1179 C1180 1.355 . S
C1179 C1181 1.415 . S
C1180 C1179 1.355 . S
C1180 C1182 1.419 . S
C1181 C1176 1.425 . S
C1181 C1178 1.409 . S
C1181 C1179 1.415 . S
C1182 H1172 0.930 . S
C1182 C1180 1.419 . S
C1182 C1183 1.362 . S
C1183 H1173 0.930 . S
C1183 C1176 1.409 . S
C1183 C1182 1.362 . S
H1184 C1190 0.930 . S
H1185 C1193 0.930 . S
H1186 C1194 0.930 . S
H1187 C1195 0.930 . S
H1188 C1198 0.930 . S
H1189 C1199 0.930 . S
C1190 H1184 0.930 . S
C1190 C1191 1.355 . S
C1190 C1192 1.415 . S
C1191 C1190 1.355 . S
C1191 C1193 1.419 . S
C1192 C1190 1.415 . S
C1192 C1197 1.425 . S
C1192 C1199 1.409 . S
C1193 H1185 0.930 . S
C1193 C1191 1.419 . S
C1193 C1194 1.362 . S
C1194 H1186 0.930 . S
C1194 C1193 1.362 . S
C1194 C1197 1.409 . S
C1195 H1187 0.930 . S
C1195 C1196 1.355 . S
C1195 C1197 1.415 . S
C1196 C1195 1.355 . S
C1196 C1198 1.419 . S
C1197 C1192 1.425 . S
C1197 C1194 1.409 . S
C1197 C1195 1.415 . S
C1198 H1188 0.930 . S
C1198 C1196 1.419 . S
C1198 C1199 1.362 . S
C1199 H1189 0.930 . S
C1199 C1192 1.409 . S
C1199 C1198 1.362 . S
H1200 C1206 0.930 . S
H1201 C1209 0.930 . S
H1202 C1210 0.930 . S
H1203 C1211 0.930 . S
H1204 C1214 0.930 . S
H1205 C1215 0.930 . S
C1206 H1200 0.930 . S
C1206 C1207 1.355 . S
C1206 C1208 1.415 . S
C1207 C1206 1.355 . S
C1207 C1209 1.419 . S
C1208 C1206 1.415 . S
C1208 C1213 1.425 . S
C1208 C1215 1.409 . S
C1209 H1201 0.930 . S
C1209 C1207 1.419 . S
C1209 C1210 1.362 . S
C1210 H1202 0.930 . S
C1210 C1209 1.362 . S
C1210 C1213 1.409 . S
C1211 H1203 0.930 . S
C1211 C1212 1.355 . S
C1211 C1213 1.415 . S
C1212 C1211 1.355 . S
C1212 C1214 1.419 . S
C1213 C1208 1.425 . S
C1213 C1210 1.409 . S
C1213 C1211 1.415 . S
C1214 H1204 0.930 . S
C1214 C1212 1.419 . S
C1214 C1215 1.362 . S
C1215 H1205 0.930 . S
C1215 C1208 1.409 . S
C1215 C1214 1.362 . S
H1216 C1222 0.930 . S
H1217 C1225 0.930 . S
H1218 C1226 0.930 . S
H1219 C1227 0.930 . S
H1220 C1230 0.930 . S
H1221 C1231 0.930 . S
C1222 H1216 0.930 . S
C1222 C1223 1.355 . S
C1222 C1224 1.415 . S
C1223 C1222 1.355 . S
C1223 C1225 1.419 . S
C1224 C1222 1.415 . S
C1224 C1229 1.425 . S
C1224 C1231 1.409 . S
C1225 H1217 0.930 . S
C1225 C1223 1.419 . S
C1225 C1226 1.362 . S
C1226 H1218 0.930 . S
C1226 C1225 1.362 . S
C1226 C1229 1.409 . S
C1227 H1219 0.930 . S
C1227 C1228 1.355 . S
C1227 C1229 1.415 . S
C1228 C1227 1.355 . S
C1228 C1230 1.419 . S
C1229 C1224 1.425 . S
C1229 C1226 1.409 . S
C1229 C1227 1.415 . S
C1230 H1220 0.930 . S
C1230 C1228 1.419 . S
C1230 C1231 1.362 . S
C1231 H1221 0.930 . S
C1231 C1224 1.409 . S
C1231 C1230 1.362 . S
H1232 C1238 0.930 . S
H1233 C1241 0.930 . S
H1234 C1242 0.930 . S
H1235 C1243 0.930 . S
H1236 C1246 0.930 . S
H1237 C1247 0.930 . S
C1238 H1232 0.930 . S
C1238 C1239 1.355 . S
C1238 C1240 1.415 . S
C1239 C1238 1.355 . S
C1239 C1241 1.419 . S
C1240 C1238 1.415 . S
C1240 C1245 1.425 . S
C1240 C1247 1.409 . S
C1241 H1233 0.930 . S
C1241 C1239 1.419 . S
C1241 C1242 1.362 . S
C1242 H1234 0.930 . S
C1242 C1241 1.362 . S
C1242 C1245 1.409 . S
C1243 H1235 0.930 . S
C1243 C1244 1.355 . S
C1243 C1245 1.415 . S
C1244 C1243 1.355 . S
C1244 C1246 1.419 . S
C1245 C1240 1.425 . S
C1245 C1242 1.409 . S
C1245 C1243 1.415 . S
C1246 H1236 0.930 . S
C1246 C1244 1.419 . S
C1246 C1247 1.362 . S
C1247 H1237 0.930 . S
C1247 C1240 1.409 . S
C1247 C1246 1.362 . S
H1248 C1254 0.930 . S
H1249 C1257 0.930 . S
H1250 C1258 0.930 . S
H1251 C1259 0.930 . S
H1252 C1262 0.930 . S
H1253 C1263 0.930 . S
C1254 H1248 0.930 . S
C1254 C1255 1.355 1_554 S
C1254 C1256 1.415 . S
C1255 C1254 1.355 1_556 S
C1255 C1257 1.419 . S
C1256 C1254 1.415 . S
C1256 C1261 1.425 1_554 S
C1256 C1263 1.409 . S
C1257 H1249 0.930 . S
C1257 C1255 1.419 . S
C1257 C1258 1.362 . S
C1258 H1250 0.930 . S
C1258 C1257 1.362 . S
C1258 C1261 1.409 . S
C1259 H1251 0.930 . S
C1259 C1260 1.355 . S
C1259 C1261 1.415 . S
C1260 C1259 1.355 . S
C1260 C1262 1.419 1_556 S
C1261 C1256 1.425 1_556 S
C1261 C1258 1.409 . S
C1261 C1259 1.415 . S
C1262 H1252 0.930 . S
C1262 C1260 1.419 1_554 S
C1262 C1263 1.362 . S
C1263 H1253 0.930 . S
C1263 C1256 1.409 . S
C1263 C1262 1.362 . S
H1264 C1270 0.930 . S
H1265 C1273 0.930 . S
H1266 C1274 0.930 . S
H1267 C1275 0.930 . S
H1268 C1278 0.930 . S
H1269 C1279 0.930 . S
C1270 H1264 0.930 . S
C1270 C1271 1.355 . S
C1270 C1272 1.415 . S
C1271 C1270 1.355 . S
C1271 C1273 1.419 . S
C1272 C1270 1.415 . S
C1272 C1277 1.425 . S
C1272 C1279 1.409 . S
C1273 H1265 0.930 . S
C1273 C1271 1.419 . S
C1273 C1274 1.362 . S
C1274 H1266 0.930 . S
C1274 C1273 1.362 . S
C1274 C1277 1.409 . S
C1275 H1267 0.930 . S
C1275 C1276 1.355 . S
C1275 C1277 1.415 . S
C1276 C1275 1.355 . S
C1276 C1278 1.419 . S
C1277 C1272 1.425 . S
C1277 C1274 1.409 . S
C1277 C1275 1.415 . S
C1278 H1268 0.930 . S
C1278 C1276 1.419 . S
C1278 C1279 1.362 . S
C1279 H1269 0.930 . S
C1279 C1272 1.409 . S
C1279 C1278 1.362 . S
H1280 C1286 0.930 . S
H1281 C1289 0.930 . S
H1282 C1290 0.930 . S
H1283 C1291 0.930 . S
H1284 C1294 0.930 . S
H1285 C1295 0.930 . S
C1286 H1280 0.930 . S
C1286 C1287 1.355 . S
C1286 C1288 1.415 . S
C1287 C1286 1.355 . S
C1287 C1289 1.419 1_554 S
C1288 C1286 1.415 . S
C1288 C1293 1.425 1_554 S
C1288 C1295 1.409 . S
C1289 H1281 0.930 . S
C1289 C1287 1.419 1_556 S
C1289 C1290 1.362 . S
C1290 H1282 0.930 . S
C1290 C1289 1.362 . S
C1290 C1293 1.409 . S
C1291 H1283 0.930 . S
C1291 C1292 1.355 1_556 S
C1291 C1293 1.415 . S
C1292 C1291 1.355 1_554 S
C1292 C1294 1.419 . S
C1293 C1288 1.425 1_556 S
C1293 C1290 1.409 . S
C1293 C1291 1.415 . S
C1294 H1284 0.930 . S
C1294 C1292 1.419 . S
C1294 C1295 1.362 . S
C1295 H1285 0.930 . S
C1295 C1288 1.409 . S
C1295 C1294 1.362 . S
H1296 C1302 0.930 . S
H1297 C1305 0.930 . S
H1298 C1306 0.930 . S
H1299 C1307 0.930 . S
H1300 C1310 0.930 . S
H1301 C1311 0.930 . S
C1302 H1296 0.930 . S
C1302 C1303 1.355 . S
C1302 C1304 1.415 . S
C1303 C1302 1.355 . S
C1303 C1305 1.419 . S
C1304 C1302 1.415 . S
C1304 C1309 1.425 . S
C1304 C1311 1.409 . S
C1305 H1297 0.930 . S
C1305 C1303 1.419 . S
C1305 C1306 1.362 . S
C1306 H1298 0.930 . S
C1306 C1305 1.362 . S
C1306 C1309 1.409 . S
C1307 H1299 0.930 . S
C1307 C1308 1.355 . S
C1307 C1309 1.415 . S
C1308 C1307 1.355 . S
C1308 C1310 1.419 . S
C1309 C1304 1.425 . S
C1309 C1306 1.409 . S
C1309 C1307 1.415 . S
C1310 H1300 0.930 . S
C1310 C1308 1.419 . S
C1310 C1311 1.362 . S
C1311 H1301 0.930 . S
C1311 C1304 1.409 . S
C1311 C1310 1.362 . S
H1312 C1318 0.930 . S
H1313 C1321 0.930 . S
H1314 C1322 0.930 . S
H1315 C1323 0.930 . S
H1316 C1326 0.933 . S
H1317 C1327 0.930 . S
C1318 H1312 0.930 . S
C1318 C1319 1.355 1_455 S
C1318 C1320 1.415 . S
C1319 C1318 1.355 1_655 S
C1319 C1321 1.419 . S
C1320 C1318 1.415 . S
C1320 C1325 1.425 . S
C1320 C1327 1.409 1_556 S
C1321 H1313 0.930 . S
C1321 C1319 1.419 . S
C1321 C1322 1.362 1_655 S
C1322 H1314 0.930 . S
C1322 C1321 1.362 1_455 S
C1322 C1325 1.409 . S
C1323 H1315 0.930 . S
C1323 C1324 1.355 . S
C1323 C1325 1.415 . S
C1324 C1323 1.355 . S
C1324 C1326 1.417 1_556 S
C1325 C1320 1.425 . S
C1325 C1322 1.409 . S
C1325 C1323 1.415 . S
C1326 H1316 0.933 . S
C1326 C1324 1.417 1_554 S
C1326 C1327 1.363 . S
C1327 H1317 0.930 . S
C1327 C1320 1.409 1_554 S
C1327 C1326 1.363 . S
H1328 C1334 0.930 . S
H1329 C1337 0.930 1_655 S
H1330 C1338 0.930 . S
H1331 C1339 0.930 . S
H1332 C1342 0.930 . S
H1333 C1343 0.930 . S
C1334 H1328 0.930 . S
C1334 C1335 1.355 1_455 S
C1334 C1336 1.415 . S
C1335 C1334 1.355 1_655 S
C1335 C1337 1.419 1_655 S
C1336 C1334 1.415 . S
C1336 C1341 1.425 . S
C1336 C1343 1.409 . S
C1337 H1329 0.930 1_455 S
C1337 C1335 1.419 1_455 S
C1337 C1338 1.362 . S
C1338 H1330 0.930 . S
C1338 C1337 1.362 . S
C1338 C1341 1.409 . S
C1339 H1331 0.930 . S
C1339 C1340 1.355 . S
C1339 C1341 1.415 . S
C1340 C1339 1.355 . S
C1340 C1342 1.419 . S
C1341 C1336 1.425 . S
C1341 C1338 1.409 . S
C1341 C1339 1.415 . S
C1342 H1332 0.930 . S
C1342 C1340 1.419 . S
C1342 C1343 1.362 . S
C1343 H1333 0.930 . S
C1343 C1336 1.409 . S
C1343 C1342 1.362 . S
H1344 C1350 0.930 . S
H1345 C1353 0.930 . S
H1346 C1354 0.930 . S
H1347 C1355 0.930 . S
H1348 C1358 0.930 1_455 S
H1349 C1359 0.930 . S
C1350 H1344 0.930 . S
C1350 C1351 1.355 . S
C1350 C1352 1.415 . S
C1351 C1350 1.355 . S
C1351 C1353 1.419 1_554 S
C1352 C1350 1.415 . S
C1352 C1357 1.425 1_554 S
C1352 C1359 1.409 . S
C1353 H1345 0.930 . S
C1353 C1351 1.419 1_556 S
C1353 C1354 1.362 . S
C1354 H1346 0.930 . S
C1354 C1353 1.362 . S
C1354 C1357 1.409 . S
C1355 H1347 0.930 . S
C1355 C1356 1.355 1_656 S
C1355 C1357 1.415 . S
C1356 C1355 1.355 1_454 S
C1356 C1358 1.419 1_455 S
C1357 C1352 1.425 1_556 S
C1357 C1354 1.409 . S
C1357 C1355 1.415 . S
C1358 H1348 0.930 1_655 S
C1358 C1356 1.419 1_655 S
C1358 C1359 1.362 . S
C1359 H1349 0.930 . S
C1359 C1352 1.409 . S
C1359 C1358 1.362 . S
H1360 C1366 0.930 . S
H1361 C1369 0.930 . S
H1362 C1370 0.930 . S
H1363 C1371 0.930 . S
H1364 C1374 0.930 . S
H1365 C1375 0.930 . S
C1366 H1360 0.930 . S
C1366 C1367 1.355 1_655 S
C1366 C1368 1.415 . S
C1367 C1366 1.355 1_455 S
C1367 C1369 1.419 . S
C1368 C1366 1.415 . S
C1368 C1373 1.425 . S
C1368 C1375 1.409 . S
C1369 H1361 0.930 . S
C1369 C1367 1.419 . S
C1369 C1370 1.362 1_455 S
C1370 H1362 0.930 . S
C1370 C1369 1.362 1_655 S
C1370 C1373 1.409 . S
C1371 H1363 0.930 . S
C1371 C1372 1.355 . S
C1371 C1373 1.415 . S
C1372 C1371 1.355 . S
C1372 C1374 1.419 . S
C1373 C1368 1.425 . S
C1373 C1370 1.409 . S
C1373 C1371 1.415 . S
C1374 H1364 0.930 . S
C1374 C1372 1.419 . S
C1374 C1375 1.362 . S
C1375 H1365 0.930 . S
C1375 C1368 1.409 . S
C1375 C1374 1.362 . S
H1376 C1382 0.930 . S
H1377 C1385 0.930 1_655 S
H1378 C1386 0.930 . S
H1379 C1387 0.930 . S
H1380 C1390 0.930 . S
H1381 C1391 0.930 . S
C1382 H1376 0.930 . S
C1382 C1383 1.355 1_455 S
C1382 C1384 1.415 . S
C1383 C1382 1.355 1_655 S
C1383 C1385 1.419 1_655 S
C1384 C1382 1.415 . S
C1384 C1389 1.425 . S
C1384 C1391 1.409 . S
C1385 H1377 0.930 1_455 S
C1385 C1383 1.419 1_455 S
C1385 C1386 1.362 . S
C1386 H1378 0.930 . S
C1386 C1385 1.362 . S
C1386 C1389 1.409 . S
C1387 H1379 0.930 . S
C1387 C1388 1.355 . S
C1387 C1389 1.415 . S
C1388 C1387 1.355 . S
C1388 C1390 1.419 . S
C1389 C1384 1.425 . S
C1389 C1386 1.409 . S
C1389 C1387 1.415 . S
C1390 H1380 0.930 . S
C1390 C1388 1.419 . S
C1390 C1391 1.362 . S
C1391 H1381 0.930 . S
C1391 C1384 1.409 . S
C1391 C1390 1.362 . S
H1392 C1398 0.930 . S
H1393 C1401 0.930 1_655 S
H1394 C1402 0.930 . S
H1395 C1403 0.930 . S
H1396 C1406 0.930 . S
H1397 C1407 0.930 . S
C1398 H1392 0.930 . S
C1398 C1399 1.355 1_455 S
C1398 C1400 1.415 . S
C1399 C1398 1.355 1_655 S
C1399 C1401 1.419 1_655 S
C1400 C1398 1.415 . S
C1400 C1405 1.425 . S
C1400 C1407 1.409 . S
C1401 H1393 0.930 1_455 S
C1401 C1399 1.419 1_455 S
C1401 C1402 1.362 . S
C1402 H1394 0.930 . S
C1402 C1401 1.362 . S
C1402 C1405 1.409 . S
C1403 H1395 0.930 . S
C1403 C1404 1.355 . S
C1403 C1405 1.415 . S
C1404 C1403 1.355 . S
C1404 C1406 1.419 . S
C1405 C1400 1.425 . S
C1405 C1402 1.409 . S
C1405 C1403 1.415 . S
C1406 H1396 0.930 . S
C1406 C1404 1.419 . S
C1406 C1407 1.362 . S
C1407 H1397 0.930 . S
C1407 C1400 1.409 . S
C1407 C1406 1.362 . S
H1408 C1414 0.930 . S
H1409 C1417 0.930 1_455 S
H1410 C1418 0.930 . S
H1411 C1419 0.930 . S
H1412 C1422 0.930 . S
H1413 C1423 0.930 . S
C1414 H1408 0.930 . S
C1414 C1415 1.355 1_655 S
C1414 C1416 1.415 . S
C1415 C1414 1.355 1_455 S
C1415 C1417 1.419 1_455 S
C1416 C1414 1.415 . S
C1416 C1421 1.425 . S
C1416 C1423 1.409 . S
C1417 H1409 0.930 1_655 S
C1417 C1415 1.419 1_655 S
C1417 C1418 1.362 . S
C1418 H1410 0.930 . S
C1418 C1417 1.362 . S
C1418 C1421 1.409 . S
C1419 H1411 0.930 . S
C1419 C1420 1.355 . S
C1419 C1421 1.415 . S
C1420 C1419 1.355 . S
C1420 C1422 1.419 . S
C1421 C1416 1.425 . S
C1421 C1418 1.409 . S
C1421 C1419 1.415 . S
C1422 H1412 0.930 . S
C1422 C1420 1.419 . S
C1422 C1423 1.362 . S
C1423 H1413 0.930 . S
C1423 C1416 1.409 . S
C1423 C1422 1.362 . S
H1424 C1430 0.930 . S
H1425 C1433 0.930 . S
H1426 C1434 0.930 . S
H1427 C1435 0.930 . S
H1428 C1438 0.930 . S
H1429 C1439 0.930 . S
C1430 H1424 0.930 . S
C1430 C1431 1.355 1_655 S
C1430 C1432 1.415 . S
C1431 C1430 1.355 1_455 S
C1431 C1433 1.419 . S
C1432 C1430 1.415 . S
C1432 C1437 1.425 . S
C1432 C1439 1.409 . S
C1433 H1425 0.930 . S
C1433 C1431 1.419 . S
C1433 C1434 1.362 1_455 S
C1434 H1426 0.930 . S
C1434 C1433 1.362 1_655 S
C1434 C1437 1.409 . S
C1435 H1427 0.930 . S
C1435 C1436 1.355 . S
C1435 C1437 1.415 . S
C1436 C1435 1.355 . S
C1436 C1438 1.419 . S
C1437 C1432 1.425 . S
C1437 C1434 1.409 . S
C1437 C1435 1.415 . S
C1438 H1428 0.930 . S
C1438 C1436 1.419 . S
C1438 C1439 1.362 . S
C1439 H1429 0.930 . S
C1439 C1432 1.409 . S
C1439 C1438 1.362 . S
C551 C498 1.523 . S
C556 C22 1.523 . S
C567 C83 1.604 1_455 S
C572 C15 1.604 1_655 S
C583 C56 1.616 . S
C588 C389 1.616 . S
C599 C49 1.618 1_655 S
C604 C260 1.618 1_455 S
C615 C90 1.618 . S
C620 C430 1.618 . S
C631 C117 1.542 . S
C636 C321 1.542 . S
C647 C124 1.565 1_455 S
C652 C185 1.565 1_655 S
C663 C151 1.618 . S
C668 C362 1.618 . S
C679 C158 1.607 1_656 S
C684 C226 1.607 1_454 S
C695 C192 1.606 . S
C700 C525 1.606 . S
C711 C219 1.590 1_554 S
C716 C287 1.590 1_556 S
C727 C464 1.525 . S
C732 C253 1.525 . S
C743 C294 1.612 1_556 S
C748 C355 1.612 1_554 S
C759 C328 1.617 . S
C764 C532 1.617 . S
C775 C396 1.612 . S
C780 C457 1.612 . S
C791 C423 1.570 . S
C796 C491 1.570 . S
C807 C17 1.798 . S
C812 C51 1.798 . S
C823 C119 1.798 . S
C828 C85 1.798 . S
C839 C153 1.798 . S
C844 C187 1.798 . S
C855 C221 1.798 . S
C860 C255 1.798 . S
C871 C289 1.798 . S
C876 C323 1.798 . S
C887 C357 1.798 . S
C892 C391 1.798 . S
C903 C425 1.798 . S
C908 C459 1.798 . S
C919 C527 1.798 . S
C924 C493 1.798 . S
C935 C307 1.758 . S
C940 C1 1.746 . S
C951 C3 1.702 1_655 S
C956 C309 1.710 . S
C967 C35 1.713 . S
C972 C273 1.699 . S
C983 C37 1.751 1_655 S
C988 C275 1.754 . S
C999 C375 1.752 . S
C1004 C69 1.754 . S
C1015 C377 1.761 . S
C1020 C71 1.718 1_455 S
C1031 C343 1.706 . S
C1036 C105 1.704 . S
C1047 C341 1.755 . S
C1052 C103 1.750 1_455 S
C1063 C139 1.761 . S
C1068 C445 1.719 . S
C1079 C137 1.736 1_655 S
C1084 C443 1.762 . S
C1095 C411 1.711 . S
C1100 C171 1.757 . S
C1111 C409 1.740 . S
C1116 C173 1.697 1_655 S
C1127 C511 1.762 . S
C1132 C207 1.738 . S
C1143 C205 1.696 1_455 S
C1148 C513 1.724 . S
C1159 C241 1.754 . S
C1164 C479 1.707 . S
C1175 C239 1.714 1_455 S
C1180 C477 1.759 . S
C1191 C6 1.550 . S
C1196 C28 1.539 . S
C1207 C40 1.546 . S
C1212 C62 1.547 . S
C1223 C74 1.544 . S
C1228 C96 1.543 . S
C1239 C130 1.549 . S
C1244 C108 1.544 . S
C1255 C142 1.541 . S
C1260 C164 1.547 . S
C1271 C176 1.543 . S
C1276 C198 1.550 . S
C1287 C210 1.549 . S
C1292 C232 1.539 . S
C1303 C266 1.541 . S
C1308 C244 1.546 . S
C1319 C300 1.544 . S
C1324 C278 1.549 . S
C1335 C334 1.546 . S
C1340 C312 1.542 . S
C1351 C368 1.545 . S
C1356 C346 1.543 . S
C1367 C402 1.544 . S
C1372 C380 1.548 . S
C1383 C414 1.545 . S
C1388 C436 1.542 . S
C1399 C448 1.542 . S
C1404 C470 1.545 . S
C1415 C482 1.538 . S
C1420 C504 1.551 . S
C1431 C538 1.548 . S
C1436 C516 1.544 . S
