# Generated by pormake.
# Topology wkb, (5)-cn, num edge types: 1
# Building blocks:
#     Node 0, Type 0, BuildingBlock: XOMCOT_clean_sbu_0, # of connection points: 5
#     Node 1, Type 0, BuildingBlock: XOMCOT_clean_sbu_0, # of connection points: 5
#     Node 2, Type 0, BuildingBlock: XOMCOT_clean_sbu_0, # of connection points: 5
#     Node 3, Type 0, BuildingBlock: XOMCOT_clean_sbu_0, # of connection points: 5
#     Node 4, Type 0, BuildingBlock: XOMCOT_clean_sbu_0, # of connection points: 5
#     Node 5, Type 0, BuildingBlock: XOMCOT_clean_sbu_0, # of connection points: 5
#     Node 6, Type 0, BuildingBlock: XOMCOT_clean_sbu_0, # of connection points: 5
#     Node 7, Type 0, BuildingBlock: XOMCOT_clean_sbu_0, # of connection points: 5
#     Node 8, Type 0, BuildingBlock: XOMCOT_clean_sbu_0, # of connection points: 5
#     Node 9, Type 0, BuildingBlock: XOMCOT_clean_sbu_0, # of connection points: 5
#     Node 10, Type 0, BuildingBlock: XOMCOT_clean_sbu_0, # of connection points: 5
#     Node 11, Type 0, BuildingBlock: XOMCOT_clean_sbu_0, # of connection points: 5
#     Edge 12, Type (0, 0), BuildingBlock: MIFKUJ_clean_linker_0, # of connection points: 2
#     Edge 13, Type (0, 0), BuildingBlock: MIFKUJ_clean_linker_0, # of connection points: 2
#     Edge 14, Type (0, 0), BuildingBlock: MIFKUJ_clean_linker_0, # of connection points: 2
#     Edge 15, Type (0, 0), BuildingBlock: MIFKUJ_clean_linker_0, # of connection points: 2
#     Edge 16, Type (0, 0), BuildingBlock: MIFKUJ_clean_linker_0, # of connection points: 2
#     Edge 17, Type (0, 0), BuildingBlock: MIFKUJ_clean_linker_0, # of connection points: 2
#     Edge 18, Type (0, 0), BuildingBlock: MIFKUJ_clean_linker_0, # of connection points: 2
#     Edge 19, Type (0, 0), BuildingBlock: MIFKUJ_clean_linker_0, # of connection points: 2
#     Edge 20, Type (0, 0), BuildingBlock: MIFKUJ_clean_linker_0, # of connection points: 2
#     Edge 21, Type (0, 0), BuildingBlock: MIFKUJ_clean_linker_0, # of connection points: 2
#     Edge 22, Type (0, 0), BuildingBlock: MIFKUJ_clean_linker_0, # of connection points: 2
#     Edge 23, Type (0, 0), BuildingBlock: MIFKUJ_clean_linker_0, # of connection points: 2
#     Edge 24, Type (0, 0), BuildingBlock: MIFKUJ_clean_linker_0, # of connection points: 2
#     Edge 25, Type (0, 0), BuildingBlock: MIFKUJ_clean_linker_0, # of connection points: 2
#     Edge 26, Type (0, 0), BuildingBlock: MIFKUJ_clean_linker_0, # of connection points: 2
#     Edge 27, Type (0, 0), BuildingBlock: MIFKUJ_clean_linker_0, # of connection points: 2
#     Edge 28, Type (0, 0), BuildingBlock: MIFKUJ_clean_linker_0, # of connection points: 2
#     Edge 29, Type (0, 0), BuildingBlock: MIFKUJ_clean_linker_0, # of connection points: 2
#     Edge 30, Type (0, 0), BuildingBlock: MIFKUJ_clean_linker_0, # of connection points: 2
#     Edge 31, Type (0, 0), BuildingBlock: MIFKUJ_clean_linker_0, # of connection points: 2
#     Edge 32, Type (0, 0), BuildingBlock: MIFKUJ_clean_linker_0, # of connection points: 2
#     Edge 33, Type (0, 0), BuildingBlock: MIFKUJ_clean_linker_0, # of connection points: 2
#     Edge 34, Type (0, 0), BuildingBlock: MIFKUJ_clean_linker_0, # of connection points: 2
#     Edge 35, Type (0, 0), BuildingBlock: MIFKUJ_clean_linker_0, # of connection points: 2
#     Edge 36, Type (0, 0), BuildingBlock: MIFKUJ_clean_linker_0, # of connection points: 2
#     Edge 37, Type (0, 0), BuildingBlock: MIFKUJ_clean_linker_0, # of connection points: 2
#     Edge 38, Type (0, 0), BuildingBlock: MIFKUJ_clean_linker_0, # of connection points: 2
#     Edge 39, Type (0, 0), BuildingBlock: MIFKUJ_clean_linker_0, # of connection points: 2
#     Edge 40, Type (0, 0), BuildingBlock: MIFKUJ_clean_linker_0, # of connection points: 2
#     Edge 41, Type (0, 0), BuildingBlock: MIFKUJ_clean_linker_0, # of connection points: 2
# Relax obj value: 0.098
# Max RMSD: 0.139
# Mean RMSD: 0.139
data_MOF--net-wkb--node1-XOMCOT_clean_sbu_0--edge1-MIFKUJ_clean_linker_0
_symmetry_space_group_name_H-M    P1
_symmetry_Int_Tables_number       1
_symmetry_cell_setting            triclinic
loop_
_symmetry_equiv_pos_as_xyz
'x, y, z'
_cell_length_a     59.539157
_cell_length_b     59.481809
_cell_length_c     45.534108
_cell_angle_alpha  89.977279
_cell_angle_beta   90.016519
_cell_angle_gamma 119.93642
loop_
_atom_site_label
_atom_site_type_symbol
_atom_site_fract_x
_atom_site_fract_y
_atom_site_fract_z
_atom_type_partial_charge
Co0 Co 0.05316 0.33706 0.07878 0.0
C1 C 0.03746 0.3277 0.01552 0.0
C2 C 0.03097 0.35674 0.03524 0.0
C3 C 1.02264 0.35342 0.00661 0.0
N4 N 0.0408 0.34107 0.04074 0.0
N5 N 0.02692 0.33536 0.99412 0.0
H6 H 0.04303 0.31306 0.01274 0.0
H7 H 0.02977 0.36967 0.05101 0.0
C8 C 0.09821 0.34829 0.03668 0.0
O9 O 0.09047 0.35897 0.01685 0.0
N10 N 0.06487 0.33299 0.11749 0.0
C11 C 0.05052 0.32511 0.14226 0.0
C12 C 0.06553 0.32478 0.16492 0.0
C13 C 0.08869 0.33761 0.12577 0.0
N14 N 0.0896 0.3327 0.15471 0.0
C15 C 0.05536 0.38042 0.10792 0.0
C16 C 0.09277 0.4196 0.0739 0.0
C17 C 0.07892 0.42595 0.09408 0.0
C18 C 0.06046 0.40587 0.11173 0.0
C19 C 0.08696 0.39373 0.0707 0.0
N20 N 0.06771 0.37426 0.08682 0.0
H21 H 0.04044 0.36539 0.12124 0.0
H22 H 0.09761 0.38971 0.05468 0.0
H23 H 0.03042 0.31991 0.14415 0.0
H24 H 0.10514 0.34479 0.11115 0.0
O25 O 1.01849 0.32489 0.09374 0.0
O26 O 0.032 0.29938 0.07538 0.0
O27 O 0.08657 0.34089 0.06149 0.0
C28 C 1.01334 0.30146 0.0876 0.0
H29 H 1.01468 0.364 0.99556 0.0
H30 H 0.05891 0.31872 0.18717 0.0
H31 H 0.10776 0.43441 0.06029 0.0
H32 H 0.04903 0.40942 0.12757 0.0
Co33 Co 0.74098 0.04431 0.24167 0.0
C34 C 0.73961 0.0325 0.17744 0.0
C35 C 0.7165 0.99818 0.20285 0.0
C36 C 0.71519 0.99117 0.17391 0.0
N37 N 0.73192 0.02412 0.20532 0.0
N38 N 0.72979 1.01268 0.15784 0.0
H39 H 0.75232 0.05257 0.17153 0.0
H40 H 0.70653 0.98494 0.22071 0.0
C41 C 0.78204 0.1 0.22485 0.0
O42 O 0.77712 0.10937 0.24852 0.0
N43 N 0.74973 0.06364 0.27825 0.0
C44 C 0.73286 0.06482 0.29705 0.0
C45 C 0.74619 0.07875 0.32147 0.0
C46 C 0.77298 0.07608 0.29199 0.0
N47 N 0.77141 0.08603 0.31809 0.0
C48 C 0.68848 0.03147 0.2345 0.0
C49 C 0.69517 0.08076 0.23156 0.0
C50 C 0.66985 0.05964 0.23428 0.0
C51 C 0.66679 0.03469 0.23466 0.0
C52 C 0.71647 0.07663 0.23119 0.0
N53 N 0.71311 0.05223 0.23391 0.0
H54 H 0.68534 1.01201 0.23597 0.0
H55 H 0.73533 0.09329 0.22963 0.0
H56 H 0.71223 0.05603 0.29341 0.0
H57 H 0.79074 0.07828 0.2828 0.0
O58 O 0.72078 1.01324 0.26476 0.0
O59 O 0.76202 0.02894 0.25358 0.0
O60 O 0.76878 0.07566 0.21889 0.0
C61 C 0.74134 1.01104 0.26677 0.0
H62 H 0.70391 0.97168 0.16535 0.0
H63 H 0.7381 0.08369 0.34 0.0
H64 H 0.69871 0.10046 0.23091 0.0
H65 H 0.64772 0.01761 0.23566 0.0
Co66 Co 0.71453 0.73116 0.41131 0.0
C67 C 0.73452 0.72367 0.35235 0.0
C68 C 0.7 0.72655 0.35023 0.0
C69 C 0.70676 0.72415 0.32222 0.0
N70 N 0.71714 0.72619 0.36937 0.0
N71 N 0.72834 0.72235 0.32343 0.0
H72 H 0.75137 0.72333 0.36064 0.0
H73 H 0.68369 0.72885 0.35627 0.0
C74 C 0.70245 0.77668 0.40998 0.0
O75 O 0.69118 0.77165 0.43579 0.0
N76 N 0.71131 0.73632 0.45291 0.0
C77 C 0.69695 0.71749 0.47231 0.0
C78 C 0.69798 0.72867 0.49907 0.0
C79 C 0.72191 0.75864 0.46852 0.0
N80 N 0.71327 0.75467 0.49666 0.0
C81 C 0.67154 0.6813 0.39996 0.0
C82 C 0.63186 0.68899 0.41884 0.0
C83 C 0.62573 0.66382 0.4102 0.0
C84 C 0.64619 0.66039 0.40047 0.0
C85 C 0.65771 0.70948 0.41818 0.0
N86 N 0.67731 0.7055 0.40901 0.0
H87 H 0.68684 0.67785 0.39274 0.0
H88 H 0.66171 0.72808 0.42591 0.0
H89 H 0.68587 0.69704 0.46714 0.0
H90 H 0.73435 0.77751 0.4589 0.0
O91 O 0.72618 0.70711 0.42198 0.0
O92 O 0.75229 0.74916 0.41592 0.0
O93 O 0.7108 0.76228 0.3992 0.0
C94 C 0.74959 0.72673 0.4233 0.0
H95 H 0.69681 0.72407 0.30227 0.0
H96 H 0.68765 0.71831 0.51859 0.0
H97 H 0.61688 0.69289 0.42628 0.0
H98 H 0.64296 0.64148 0.39409 0.0
Co99 Co 0.99884 0.70053 0.58202 0.0
C100 C 1.01156 0.70877 0.51784 0.0
C101 C 0.0364 0.69896 0.54205 0.0
C102 C 0.04354 0.7019 0.51304 0.0
N103 N 1.01645 0.70334 0.54519 0.0
N104 N 0.02788 0.70792 0.49757 0.0
H105 H 0.99615 0.71278 0.51286 0.0
H106 H 0.04511 0.69372 0.55966 0.0
C107 C 0.94318 0.68223 0.56343 0.0
O108 O 0.93478 0.66412 0.58375 0.0
N109 N 0.9816 0.69794 0.61948 0.0
C110 C 0.98703 0.69065 0.64538 0.0
C111 C 0.97273 0.6934 0.66723 0.0
C112 C 0.96444 0.70586 0.62639 0.0
N113 N 0.95844 0.70286 0.65536 0.0
C114 C 0.99947 0.65477 0.60057 0.0
C115 C 0.96517 0.62016 0.5601 0.0
C116 C 0.97775 0.61161 0.57948 0.0
C117 C 0.99501 0.6294 0.59986 0.0
C118 C 0.97056 0.64613 0.56122 0.0
N119 N 0.98698 0.66303 0.58199 0.0
H120 H 1.01421 0.66804 0.61533 0.0
H121 H 0.96232 0.65273 0.54454 0.0
H122 H 1.00118 0.68469 0.64886 0.0
H123 H 0.95704 0.71433 0.61086 0.0
O124 O 0.03147 0.71264 0.60266 0.0
O125 O 1.01765 0.73839 0.58602 0.0
O126 O 0.9676 0.6969 0.55944 0.0
C127 C 0.03571 0.73611 0.59953 0.0
H128 H 0.05927 0.69982 0.50426 0.0
H129 H 0.97285 0.68878 0.69021 0.0
H130 H 0.95223 0.60726 0.54336 0.0
H131 H 1.00553 0.6239 0.61492 0.0
Co132 Co 0.31332 0.99241 0.74402 0.0
C133 C 0.31187 1.00384 0.67926 0.0
C134 C 0.34193 0.036 0.70253 0.0
C135 C 0.34285 0.04302 0.67372 0.0
N136 N 0.32285 1.01114 0.70628 0.0
N137 N 0.32397 0.02285 0.65891 0.0
H138 H 0.29495 0.98545 0.67446 0.0
H139 H 0.35478 0.04856 0.71944 0.0
C140 C 0.28207 0.94443 0.70542 0.0
O141 O 0.30326 0.94752 0.69279 0.0
N142 N 0.30394 0.97459 0.7815 0.0
C143 C 0.32058 0.97839 0.80349 0.0
C144 C 0.3071 0.96211 0.82634 0.0
C145 C 0.28041 0.95619 0.79137 0.0
N146 N 0.28184 0.94805 0.81877 0.0
C147 C 0.36385 0.99954 0.733 0.0
C148 C 0.3533 0.94974 0.74535 0.0
C149 C 0.3792 0.96902 0.74035 0.0
C150 C 0.38407 0.99404 0.73357 0.0
C151 C 0.33343 0.95612 0.74461 0.0
N152 N 0.33878 0.98084 0.73826 0.0
H153 H 0.36884 0.0194 0.72993 0.0
H154 H 0.3139 0.94138 0.75025 0.0
H155 H 0.34119 0.99197 0.80282 0.0
H156 H 0.26276 0.94865 0.77863 0.0
O157 O 0.33572 0.02455 0.7646 0.0
O158 O 0.29451 1.01034 0.75445 0.0
O159 O 0.28341 0.96052 0.72498 0.0
C160 C 0.31606 0.02836 0.76602 0.0
H161 H 0.35682 0.06154 0.66443 0.0
H162 H 0.31531 0.96096 0.84711 0.0
H163 H 0.34854 0.93019 0.75112 0.0
H164 H 0.40362 1.00964 0.72944 0.0
Co165 Co 0.33775 0.30548 0.91046 0.0
C166 C 0.32684 0.30626 0.84552 0.0
C167 C 0.32533 0.33639 0.86944 0.0
C168 C 0.32016 0.33833 0.84057 0.0
N169 N 0.33023 0.31667 0.87283 0.0
N170 N 0.32103 0.31939 0.82529 0.0
H171 H 0.3277 0.28903 0.84049 0.0
H172 H 0.32538 0.34886 0.88671 0.0
C173 C 0.35601 0.27586 0.87131 0.0
O174 O 0.37475 0.29749 0.86018 0.0
N175 N 0.34442 0.29432 0.9478 0.0
C176 C 0.35574 0.30977 0.97117 0.0
C177 C 0.3551 0.29471 0.99442 0.0
C178 C 0.33706 0.27 0.95708 0.0
N179 N 0.34334 0.26973 0.98561 0.0
C180 C 0.38136 0.35642 0.90361 0.0
C181 C 0.42014 0.34518 0.91579 0.0
C182 C 0.42674 0.37128 0.91257 0.0
C183 C 0.40691 0.37658 0.906 0.0
C184 C 0.394 0.32537 0.9135 0.0
N185 N 0.37489 0.33107 0.90705 0.0
H186 H 0.36664 0.36161 0.90079 0.0
H187 H 0.38903 0.30557 0.91796 0.0
H188 H 0.3636 0.33056 0.97137 0.0
H189 H 0.32666 0.25284 0.9436 0.0
O190 O 0.32741 0.32718 0.93141 0.0
O191 O 0.3007 0.28637 0.919 0.0
O192 O 0.34047 0.27639 0.89035 0.0
C193 C 0.30395 0.30752 0.9315 0.0
H194 H 0.31637 0.35297 0.8317 0.0
H195 H 0.36276 0.30161 0.01619 0.0
H196 H 0.43482 0.34023 0.92139 0.0
H197 H 0.411 0.3964 0.90354 0.0
Co198 Co 0.70764 0.98473 0.75844 0.0
C199 C 0.72153 0.99695 0.8225 0.0
C200 C 0.71555 0.02557 0.80118 0.0
C201 C 0.72163 0.03259 0.83 0.0
N202 N 0.7146 1.00272 0.79636 0.0
N203 N 0.72535 1.0146 0.84364 0.0
H204 H 0.72465 0.98076 0.82592 0.0
H205 H 0.71289 0.03715 0.78484 0.0
C206 C 0.69047 0.93816 0.79962 0.0
O207 O 0.67509 0.94395 0.81443 0.0
N208 N 0.70131 0.96735 0.72088 0.0
C209 C 0.68888 0.97043 0.69791 0.0
C210 C 0.68825 0.95477 0.6753 0.0
C211 C 0.7083 0.95004 0.71191 0.0
N212 N 0.70039 0.94186 0.68407 0.0
C213 C 0.6645 0.99336 0.76 0.0
C214 C 0.62471 0.94253 0.75986 0.0
C215 C 0.61837 0.96241 0.76065 0.0
C216 C 0.6389 0.98806 0.76023 0.0
C217 C 0.65095 0.94879 0.75967 0.0
N218 N 0.67059 0.97407 0.76093 0.0
H219 H 0.6794 1.01328 0.75784 0.0
H220 H 0.65536 0.93329 0.75792 0.0
H221 H 0.68086 0.98322 0.69764 0.0
H222 H 0.71866 0.94338 0.7256 0.0
O223 O 0.71974 1.01743 0.73794 0.0
O224 O 0.74487 1.00171 0.75159 0.0
O225 O 0.70345 0.95213 0.77779 0.0
C226 C 0.74277 0.02022 0.73898 0.0
H227 H 0.723 0.04971 0.84003 0.0
H228 H 0.67976 0.95334 0.65388 0.0
H229 H 0.6096 0.92236 0.7594 0.0
H230 H 0.6353 1.00418 0.75915 0.0
Co231 Co 0.73747 0.70079 0.92898 0.0
C232 C 0.73588 0.70325 0.99432 0.0
C233 C 0.71951 0.72443 0.97425 0.0
C234 C 0.71847 0.72641 1.00423 0.0
N235 N 0.73058 0.71001 0.96784 0.0
N236 N 0.72872 0.71309 0.01701 0.0
H237 H 0.74445 0.69106 0.99695 0.0
H238 H 0.71251 0.73306 0.95848 0.0
C239 C 0.78115 0.68823 0.93916 0.0
O240 O 0.77628 0.67532 0.91441 0.0
N241 N 0.74437 0.69191 0.89018 0.0
C242 C 0.72711 0.67342 0.87211 0.0
C243 C 0.73935 0.67404 0.8462 0.0
C244 C 0.76663 0.70421 0.87451 0.0
N245 N 0.76429 0.69327 0.84777 0.0
C246 C 0.68637 0.66005 0.94074 0.0
C247 C 0.69429 0.61823 0.93678 0.0
C248 C 0.66873 0.61337 0.93971 0.0
C249 C 0.66514 0.63488 0.94222 0.0
C250 C 0.71512 0.64388 0.93543 0.0
N251 N 0.71099 0.66451 0.93663 0.0
H252 H 0.68283 0.67615 0.94198 0.0
H253 H 0.73418 0.64671 0.93252 0.0
H254 H 0.70697 0.66032 0.87732 0.0
H255 H 0.78431 0.72048 0.88283 0.0
O256 O 0.71513 0.7116 0.91024 0.0
O257 O 0.75693 0.73752 0.91826 0.0
O258 O 0.76702 0.6977 0.9476 0.0
C259 C 0.73528 0.73462 0.90766 0.0
H260 H 0.71103 0.73728 0.01564 0.0
H261 H 0.73068 0.66083 0.82793 0.0
H262 H 0.69824 0.60236 0.93527 0.0
H263 H 0.64593 0.63244 0.94421 0.0
Co264 Co 0.05458 0.73487 0.09641 0.0
C265 C 0.0479 0.73377 0.16243 0.0
C266 C 1.0117 0.71814 0.1397 0.0
C267 C 1.00701 0.71777 0.16921 0.0
N268 N 0.03746 0.72846 0.13502 0.0
N269 N 0.02971 0.72761 0.18353 0.0
H270 H 0.06821 0.7422 0.16721 0.0
H271 H 0.99681 0.71097 0.12309 0.0
C272 C 0.10577 0.76835 0.12914 0.0
O273 O 0.10638 0.74791 0.13895 0.0
N274 N 0.07096 0.74165 0.05806 0.0
C275 C 0.06596 0.72379 0.03711 0.0
C276 C 0.07992 0.73614 0.01237 0.0
C277 C 0.08767 0.76473 0.04565 0.0
N278 N 0.09352 0.76192 0.01759 0.0
C279 C 0.04781 0.68622 0.11672 0.0
C280 C 0.09351 0.69154 0.0948 0.0
C281 C 0.07528 0.66763 0.10708 0.0
C282 C 0.0524 0.66537 0.11857 0.0
C283 C 0.08833 0.71212 0.09376 0.0
N284 N 0.06563 0.70938 0.10459 0.0
H285 H 0.02921 0.68319 0.12379 0.0
H286 H 0.10244 0.73014 0.08362 0.0
H287 H 0.05297 0.70316 0.03967 0.0
H288 H 0.09481 0.78317 0.05668 0.0
O289 O 1.02185 0.71145 0.07773 0.0
O290 O 0.03709 0.75351 0.08417 0.0
O291 O 0.08697 0.76575 0.11308 0.0
C292 C 1.01884 0.73148 0.07381 0.0
H293 H 0.98822 0.71041 0.17945 0.0
H294 H 0.08011 0.72669 0.99215 0.0
H295 H 0.1115 0.69424 0.08571 0.0
H296 H 0.03748 0.64715 0.12764 0.0
Co297 Co 0.34437 0.04844 0.25978 0.0
C298 C 0.33262 0.03818 0.32408 0.0
C299 C 0.32854 1.00487 0.30114 0.0
C300 C 0.3229 0.99851 0.3302 0.0
N301 N 0.33461 0.02975 0.29706 0.0
N302 N 0.32536 0.01937 0.34473 0.0
H303 H 0.33622 0.05753 0.32863 0.0
H304 H 0.32836 0.99199 0.2843 0.0
C305 C 0.35854 0.10443 0.27317 0.0
O306 O 0.37337 0.11296 0.24979 0.0
N307 N 0.35378 0.0663 0.22226 0.0
C308 C 0.37274 0.06874 0.2041 0.0
C309 C 0.37239 0.0816 0.17912 0.0
C310 C 0.34164 0.07702 0.20766 0.0
N311 N 0.35294 0.08695 0.18143 0.0
C312 C 0.38517 0.03672 0.26374 0.0
C313 C 0.42642 0.08582 0.27356 0.0
C314 C 0.43143 0.06533 0.26934 0.0
C315 C 0.41023 0.04048 0.26492 0.0
C316 C 0.40078 0.08113 0.27261 0.0
N317 N 0.38045 0.05688 0.26673 0.0
H318 H 0.36957 1.01733 0.25968 0.0
H319 H 0.39779 0.09719 0.27646 0.0
H320 H 0.38595 0.06165 0.20855 0.0
H321 H 0.32514 0.07785 0.21631 0.0
O322 O 0.3327 1.01628 0.23861 0.0
O323 O 0.30771 0.03273 0.24936 0.0
O324 O 0.34799 0.08049 0.28071 0.0
C325 C 0.30987 1.01395 0.23757 0.0
H326 H 0.31794 0.98001 0.33994 0.0
H327 H 0.38585 0.08712 0.16097 0.0
H328 H 0.44216 0.1053 0.27769 0.0
H329 H 0.41296 0.02399 0.26141 0.0
Co330 Co 0.31339 0.3343 0.42576 0.0
C331 C 0.31308 0.32533 0.49043 0.0
C332 C 0.33581 0.31231 0.46718 0.0
C333 C 0.33628 0.30728 0.49653 0.0
N334 N 0.32107 0.32345 0.46312 0.0
N335 N 0.32195 0.31537 0.51119 0.0
H336 H 0.30089 0.33358 0.49512 0.0
H337 H 0.34588 0.30819 0.45018 0.0
C338 C 0.27128 0.34838 0.43908 0.0
O339 O 0.27731 0.36316 0.41567 0.0
N340 N 0.30614 0.34481 0.38822 0.0
C341 C 0.32371 0.36311 0.37017 0.0
C342 C 0.3115 0.36345 0.34463 0.0
C343 C 0.28362 0.3337 0.373 0.0
N344 N 0.28628 0.34511 0.34653 0.0
C345 C 0.36565 0.37409 0.43372 0.0
C346 C 0.35855 0.41638 0.4383 0.0
C347 C 0.38396 0.42077 0.43572 0.0
C348 C 0.38723 0.39905 0.43433 0.0
C349 C 0.33733 0.3909 0.43749 0.0
N350 N 0.34095 0.37007 0.43404 0.0
H351 H 0.36897 0.3579 0.43204 0.0
H352 H 0.3183 0.38842 0.43896 0.0
H353 H 0.3441 0.37525 0.37503 0.0
H354 H 0.26562 0.31782 0.38128 0.0
O355 O 0.33426 0.32301 0.40464 0.0
O356 O 0.29262 0.2979 0.41409 0.0
O357 O 0.28465 0.33771 0.44632 0.0
C358 C 0.31369 0.30028 0.40244 0.0
H359 H 0.34683 0.29874 0.50637 0.0
H360 H 0.32038 0.37654 0.32629 0.0
H361 H 0.355 0.43251 0.4398 0.0
H362 H 0.40641 0.40128 0.43327 0.0
Co363 Co 0.9955 0.29924 0.59469 0.0
C364 C 1.00965 0.31265 0.65906 0.0
C365 C 1.02579 0.29085 0.64035 0.0
C366 C 0.03222 0.29465 0.66949 0.0
N367 N 1.01165 0.30217 0.63332 0.0
N368 N 1.02202 0.30824 0.68141 0.0
H369 H 0.99906 0.32289 0.66177 0.0
H370 H 0.03059 0.27954 0.62582 0.0
C371 C 0.94858 0.26674 0.63278 0.0
O372 O 0.95481 0.28708 0.64928 0.0
N373 N 0.97956 0.29511 0.55655 0.0
C374 C 0.9844 0.31364 0.53651 0.0
C375 C 0.97005 0.30195 0.51162 0.0
C376 C 0.96259 0.27249 0.54362 0.0
N377 N 0.95635 0.27604 0.51611 0.0
C378 C 1.00587 0.34974 0.6115 0.0
C379 C 0.95783 0.34347 0.59795 0.0
C380 C 0.9783 0.36869 0.604 0.0
C381 C 1.00232 0.37128 0.61185 0.0
C382 C 0.96212 0.32222 0.59831 0.0
N383 N 0.98607 0.32556 0.60462 0.0
H384 H 1.02504 0.35268 0.61566 0.0
H385 H 0.94662 0.30336 0.59165 0.0
H386 H 0.99758 0.33415 0.53971 0.0
H387 H 0.95558 0.25375 0.55388 0.0
O388 O 0.02917 0.32249 0.57771 0.0
O389 O 1.01166 0.27989 0.57986 0.0
O390 O 0.96191 0.26885 0.60985 0.0
C391 C 0.03123 0.30219 0.57204 0.0
H392 H 0.04255 0.28682 0.68134 0.0
H393 H 0.9697 0.31184 0.49183 0.0
H394 H 0.93898 0.34026 0.59138 0.0
H395 H 1.01868 0.39001 0.61743 0.0
H396 H 0.29048 0.34713 0.28738 0.0
H397 H 0.25781 0.34302 0.2518 0.0
H398 H 0.20458 0.33002 0.32274 0.0
H399 H 0.23699 0.33315 0.35819 0.0
H400 H 0.17877 0.30021 0.28006 0.0
H401 H 0.24197 0.39094 0.28595 0.0
H402 H 0.28564 0.42953 0.28363 0.0
H403 H 0.29233 0.41337 0.19316 0.0
H404 H 0.24882 0.37447 0.19505 0.0
H405 H 0.09597 0.33786 0.21389 0.0
H406 H 0.13023 0.33791 0.24293 0.0
H407 H 0.16773 0.33363 0.16391 0.0
H408 H 0.13284 0.33276 0.13433 0.0
H409 H 0.20203 0.37016 0.2067 0.0
H410 H 0.13571 0.28056 0.20157 0.0
H411 H 0.09104 0.24383 0.20547 0.0
H412 H 0.08938 0.26028 0.29701 0.0
H413 H 0.13392 0.29737 0.29355 0.0
C414 C 0.27173 0.34323 0.29529 0.0
C415 C 0.2663 0.34057 0.32554 0.0
C416 C 0.2531 0.34104 0.27497 0.0
C417 C 0.22883 0.33682 0.2845 0.0
C418 C 0.22312 0.33334 0.31472 0.0
C419 C 0.24161 0.33507 0.33501 0.0
C420 C 0.20953 0.3364 0.26318 0.0
C421 C 0.1839 0.31567 0.26425 0.0
C422 C 0.21614 0.35623 0.24195 0.0
C423 C 0.24227 0.37964 0.24074 0.0
C424 C 0.25284 0.39551 0.26562 0.0
C425 C 0.27755 0.41745 0.26438 0.0
C426 C 0.29178 0.42385 0.23829 0.0
C427 C 0.28131 0.40836 0.21337 0.0
C428 C 0.25662 0.38637 0.21451 0.0
C429 C 0.11124 0.33663 0.20247 0.0
C430 C 0.11121 0.33482 0.17161 0.0
C431 C 0.13096 0.33681 0.21923 0.0
C432 C 0.15132 0.33535 0.20566 0.0
C433 C 0.15209 0.33462 0.17484 0.0
C434 C 0.13215 0.33422 0.15796 0.0
C435 C 0.17141 0.33423 0.22402 0.0
C436 C 0.19711 0.35464 0.22237 0.0
C437 C 0.1648 0.31434 0.24502 0.0
C438 C 0.1381 0.29187 0.24724 0.0
C439 C 0.12576 0.27646 0.22248 0.0
C440 C 0.10047 0.25556 0.22462 0.0
C441 C 0.08736 0.24975 0.25146 0.0
C442 C 0.09955 0.2648 0.27623 0.0
C443 C 0.12483 0.28575 0.2742 0.0
H444 H 0.06778 0.23356 0.25307 0.0
H445 H 0.31091 0.44085 0.23737 0.0
H446 H 0.81766 0.12669 0.30221 0.0
H447 H 0.85075 0.15884 0.33498 0.0
H448 H 0.80543 0.11567 0.4101 0.0
H449 H 0.77179 0.0845 0.37717 0.0
H450 H 0.82072 0.16266 0.4197 0.0
H451 H 0.86573 0.11925 0.38514 0.0
H452 H 0.88342 0.10252 0.34752 0.0
H453 H 0.93163 0.17969 0.31435 0.0
H454 H 0.91401 0.19685 0.35157 0.0
H455 H 0.91597 0.22828 0.52922 0.0
H456 H 0.88639 0.19526 0.49475 0.0
H457 H 0.92709 0.24591 0.42214 0.0
H458 H 0.95721 0.27878 0.45645 0.0
H459 H 0.91519 0.19617 0.41068 0.0
H460 H 0.86997 0.23906 0.44549 0.0
H461 H 0.85211 0.25562 0.4831 0.0
H462 H 0.80418 0.17837 0.51621 0.0
H463 H 0.82202 0.16139 0.47902 0.0
C464 C 0.81507 0.12395 0.32574 0.0
C465 C 0.79228 0.1031 0.33723 0.0
C466 C 0.83402 0.14229 0.34452 0.0
C467 C 0.83093 0.13968 0.37524 0.0
C468 C 0.80838 0.11834 0.3866 0.0
C469 C 0.7892 0.10043 0.36782 0.0
C470 C 0.85033 0.15969 0.39563 0.0
C471 C 0.84132 0.16957 0.41793 0.0
C472 C 0.87741 0.16953 0.39302 0.0
C473 C 0.88838 0.15929 0.37099 0.0
C474 C 0.88002 0.13263 0.36974 0.0
C475 C 0.89005 0.12308 0.3485 0.0
C476 C 0.9086 0.14003 0.32852 0.0
C477 C 0.91728 0.16659 0.32985 0.0
C478 C 0.90729 0.17624 0.35104 0.0
C479 C 0.91885 0.23235 0.50593 0.0
C480 C 0.93898 0.25634 0.49571 0.0
C481 C 0.90175 0.21349 0.48622 0.0
C482 C 0.90429 0.21817 0.45581 0.0
C483 C 0.92467 0.24185 0.44548 0.0
C484 C 0.94174 0.26076 0.46519 0.0
C485 C 0.8854 0.19858 0.43486 0.0
C486 C 0.89454 0.189 0.41244 0.0
C487 C 0.85841 0.18885 0.43741 0.0
C488 C 0.84751 0.199 0.45964 0.0
C489 C 0.85576 0.22563 0.46092 0.0
C490 C 0.84561 0.23509 0.48214 0.0
C491 C 0.82707 0.21807 0.50208 0.0
C492 C 0.81857 0.19154 0.50078 0.0
C493 C 0.82867 0.18199 0.47961 0.0
H494 H 0.81924 0.22542 0.5185 0.0
H495 H 0.91629 0.13259 0.31203 0.0
H496 H 0.68197 0.74782 0.5435 0.0
H497 H 0.68436 0.78065 0.57698 0.0
H498 H 0.75267 0.83888 0.5325 0.0
H499 H 0.75058 0.8059 0.49868 0.0
H500 H 0.71801 0.81312 0.61621 0.0
H501 H 0.75025 0.89529 0.53128 0.0
H502 H 0.74895 0.90078 0.47767 0.0
H503 H 0.68002 0.82617 0.47151 0.0
H504 H 0.68076 0.82039 0.52507 0.0
H505 H 0.73791 0.92861 0.69036 0.0
H506 H 0.74386 0.89775 0.6604 0.0
H507 H 0.67655 0.88177 0.60919 0.0
H508 H 0.67048 0.91234 0.6389 0.0
H509 H 0.71395 0.88783 0.5738 0.0
H510 H 0.67567 0.83995 0.66258 0.0
H511 H 0.67229 0.83125 0.71583 0.0
H512 H 0.74489 0.83226 0.71437 0.0
H513 H 0.74894 0.84145 0.66116 0.0
C514 C 0.69789 0.76742 0.54095 0.0
C515 C 0.71607 0.774 0.51805 0.0
C516 C 0.69916 0.78629 0.56026 0.0
C517 C 0.71853 0.81234 0.55722 0.0
C518 C 0.73729 0.81896 0.53509 0.0
C519 C 0.73603 0.80004 0.51567 0.0
C520 C 0.71799 0.83251 0.57626 0.0
C521 C 0.71738 0.8296 0.60695 0.0
C522 C 0.7167 0.85382 0.56428 0.0
C523 C 0.71576 0.85731 0.53212 0.0
C524 C 0.73478 0.88011 0.51848 0.0
C525 C 0.73415 0.88326 0.4881 0.0
C526 C 0.71449 0.86378 0.47117 0.0
C527 C 0.69532 0.84118 0.48461 0.0
C528 C 0.69585 0.83796 0.51497 0.0
C529 C 0.72425 0.91837 0.67289 0.0
C530 C 0.70377 0.92317 0.66704 0.0
C531 C 0.72771 0.90073 0.65571 0.0
C532 C 0.71064 0.88732 0.63247 0.0
C533 C 0.69015 0.89199 0.62676 0.0
C534 C 0.68673 0.9096 0.64381 0.0
C535 C 0.71392 0.86847 0.61385 0.0
C536 C 0.71503 0.87162 0.58317 0.0
C537 C 0.71511 0.84709 0.62588 0.0
C538 C 0.71277 0.84174 0.65793 0.0
C539 C 0.69105 0.8386 0.67365 0.0
C540 C 0.689 0.83353 0.70383 0.0
C541 C 0.70842 0.83131 0.7185 0.0
C542 C 0.7299 0.83408 0.703 0.0
C543 C 0.73209 0.83922 0.67283 0.0
H544 H 0.70678 0.82738 0.74184 0.0
H545 H 0.71406 0.86625 0.44767 0.0
H546 H 0.96383 0.7217 0.7103 0.0
H547 H 0.93077 0.7237 0.74004 0.0
H548 H 0.87814 0.6962 0.66648 0.0
H549 H 0.91167 0.69471 0.63627 0.0
H550 H 0.8723 0.73184 0.69813 0.0
H551 H 0.8741 0.65427 0.71934 0.0
H552 H 0.89388 0.62773 0.7322 0.0
H553 H 0.91927 0.66742 0.81477 0.0
H554 H 0.89998 0.6945 0.8022 0.0
H555 H 0.75873 0.68539 0.78882 0.0
H556 H 0.79203 0.6907 0.75359 0.0
H557 H 0.84909 0.71919 0.82278 0.0
H558 H 0.81573 0.71336 0.85824 0.0
H559 H 0.85115 0.68206 0.79131 0.0
H560 H 0.84778 0.75936 0.76917 0.0
H561 H 0.82677 0.78455 0.75532 0.0
H562 H 0.80235 0.74339 0.6735 0.0
H563 H 0.82287 0.71765 0.68706 0.0
C564 C 0.94531 0.71635 0.70035 0.0
C565 C 0.94022 0.70771 0.67108 0.0
C566 C 0.92638 0.71745 0.71738 0.0
C567 C 0.90167 0.70948 0.70578 0.0
C568 C 0.89699 0.70232 0.67599 0.0
C569 C 0.91614 0.70151 0.65873 0.0
C570 C 0.88057 0.70729 0.72542 0.0
C571 C 0.86743 0.72069 0.71832 0.0
C572 C 0.87429 0.69294 0.75196 0.0
C573 C 0.88579 0.67658 0.7597 0.0
C574 C 0.88406 0.65747 0.74015 0.0
C575 C 0.89517 0.64231 0.7474 0.0
C576 C 0.90788 0.64593 0.77426 0.0
C577 C 0.90945 0.66467 0.79396 0.0
C578 C 0.89841 0.67992 0.78679 0.0
C579 C 0.77838 0.69289 0.79655 0.0
C580 C 0.78447 0.69887 0.82646 0.0
C581 C 0.79748 0.69613 0.77628 0.0
C582 C 0.82319 0.7055 0.78541 0.0
C583 C 0.82944 0.71199 0.81514 0.0
C584 C 0.81036 0.70885 0.8354 0.0
C585 C 0.84321 0.70706 0.76443 0.0
C586 C 0.85604 0.69331 0.77119 0.0
C587 C 0.84892 0.72086 0.73751 0.0
C588 C 0.83661 0.73636 0.7293 0.0
C589 C 0.83772 0.7555 0.74835 0.0
C590 C 0.82594 0.76992 0.74052 0.0
C591 C 0.81316 0.76552 0.71359 0.0
C592 C 0.8122 0.74674 0.69439 0.0
C593 C 0.82392 0.73224 0.70212 0.0
H594 H 0.80405 0.77671 0.70757 0.0
H595 H 0.91646 0.63417 0.77983 0.0
H596 H 0.2304 0.93293 0.8173 0.0
H597 H 0.1963 0.90118 0.84966 0.0
H598 H 0.25256 0.88726 0.89318 0.0
H599 H 0.28632 0.91823 0.8607 0.0
H600 H 0.20898 0.84265 0.88367 0.0
H601 H 0.23241 0.92652 0.9239 0.0
H602 H 0.23891 0.97083 0.92247 0.0
H603 H 0.15846 0.94017 0.90174 0.0
H604 H 0.15157 0.89567 0.90267 0.0
H605 H 0.13341 0.81035 0.0303 0.0
H606 H 0.16368 0.84266 0.99538 0.0
H607 H 0.12278 0.79117 0.92352 0.0
H608 H 0.09233 0.75912 0.95797 0.0
H609 H 0.15836 0.8688 0.94744 0.0
H610 H 0.16777 0.79481 0.87406 0.0
H611 H 0.1637 0.75155 0.87801 0.0
H612 H 0.18297 0.76449 0.96965 0.0
H613 H 0.1875 0.80794 0.96615 0.0
C614 C 0.23543 0.92291 0.83356 0.0
C615 C 0.26123 0.92844 0.83658 0.0
C616 C 0.21595 0.90491 0.85222 0.0
C617 C 0.2219 0.89204 0.87418 0.0
C618 C 0.24746 0.89698 0.87656 0.0
C619 C 0.26685 0.91494 0.85808 0.0
C620 C 0.20182 0.87365 0.89509 0.0
C621 C 0.19781 0.84836 0.89743 0.0
C622 C 0.18746 0.88111 0.91348 0.0
C623 C 0.19154 0.90781 0.91306 0.0
C624 C 0.21616 0.92925 0.91882 0.0
C625 C 0.2199 0.95439 0.91814 0.0
C626 C 0.19913 0.95832 0.91194 0.0
C627 C 0.17454 0.9371 0.90649 0.0
C628 C 0.1707 0.91192 0.90711 0.0
C629 C 0.13061 0.80601 0.00707 0.0
C630 C 0.11054 0.78185 0.99712 0.0
C631 C 0.14798 0.82452 0.9871 0.0
C632 C 0.14573 0.81922 0.95683 0.0
C633 C 0.12519 0.79556 0.94679 0.0
C634 C 0.10784 0.77713 0.96664 0.0
C635 C 0.16542 0.8378 0.93576 0.0
C636 C 0.16936 0.86306 0.93343 0.0
C637 C 0.18001 0.83046 0.91761 0.0
C638 C 0.17768 0.8045 0.91989 0.0
C639 C 0.17122 0.78845 0.89502 0.0
C640 C 0.16883 0.76389 0.89719 0.0
C641 C 0.17298 0.75524 0.92408 0.0
C642 C 0.17965 0.77117 0.94885 0.0
C643 C 0.1821 0.79575 0.9468 0.0
H644 H 0.1711 0.73622 0.92572 0.0
H645 H 0.20206 0.9778 0.91142 0.0
H646 H 0.34514 0.22682 0.96908 0.0
H647 H 0.34181 0.1922 1.00137 0.0
H648 H 0.32669 0.22834 0.07509 0.0
H649 H 0.33073 0.26306 0.04307 0.0
H650 H 0.36109 0.21824 0.09086 0.0
H651 H 0.27918 0.16713 0.04386 0.0
H652 H 0.24646 0.1451 0.00507 0.0
H653 H 0.28664 0.10615 0.97559 0.0
H654 H 0.31969 0.12805 0.01412 0.0
H655 H 0.33253 0.11775 0.19389 0.0
H656 H 0.32627 0.14595 0.15969 0.0
H657 H 0.35465 0.11908 0.0886 0.0
H658 H 0.36042 0.09047 0.12253 0.0
H659 H 0.31256 0.12353 0.07209 0.0
H660 H 0.39436 0.17621 0.12205 0.0
H661 H 0.42185 0.19424 0.16602 0.0
H662 H 0.37691 0.22889 0.19314 0.0
H663 H 0.34895 0.21079 0.14949 0.0
C664 C 0.34068 0.22703 0.99209 0.0
C665 C 0.33846 0.24776 1.00361 0.0
C666 C 0.3387 0.20721 0.01057 0.0
C667 C 0.33397 0.2075 0.04086 0.0
C668 C 0.33062 0.22767 0.05198 0.0
C669 C 0.33296 0.24757 0.03365 0.0
C670 C 0.33455 0.18821 0.06148 0.0
C671 C 0.35007 0.19752 0.08683 0.0
C672 C 0.32073 0.16109 0.05624 0.0
C673 C 0.30201 0.14938 0.03174 0.0
C674 C 0.28122 0.15412 0.02887 0.0
C675 C 0.26251 0.1415 0.00708 0.0
C676 C 0.26434 0.12405 0.98808 0.0
C677 C 0.28513 0.1195 0.99049 0.0
C678 C 0.30385 0.13201 0.0123 0.0
C679 C 0.33701 0.1175 0.17091 0.0
C680 C 0.34715 0.10196 0.161 0.0
C681 C 0.33363 0.13381 0.15141 0.0
C682 C 0.34034 0.13492 0.12162 0.0
C683 C 0.34947 0.11866 0.11148 0.0
C684 C 0.35294 0.10245 0.13096 0.0
C685 C 0.33882 0.15368 0.10121 0.0
C686 C 0.32338 0.14429 0.07593 0.0
C687 C 0.35234 0.18069 0.1067 0.0
C688 C 0.36944 0.19196 0.13265 0.0
C689 C 0.39026 0.18756 0.13747 0.0
C690 C 0.40594 0.19781 0.16232 0.0
C691 C 0.40109 0.21265 0.18239 0.0
C692 C 0.38063 0.21737 0.17759 0.0
C693 C 0.36488 0.20715 0.15278 0.0
H694 H 0.41323 0.22054 0.20164 0.0
H695 H 0.24979 0.11424 0.97129 0.0
H696 H 0.08974 0.46123 0.04934 0.0
H697 H 0.09237 0.50354 0.05191 0.0
H698 H 0.07795 0.49377 0.14506 0.0
H699 H 0.07614 0.45189 0.14297 0.0
H700 H 0.04626 0.50852 0.11658 0.0
H701 H 0.13731 0.53608 0.12003 0.0
H702 H 0.17765 0.53864 0.10231 0.0
H703 H 0.17188 0.57263 0.02148 0.0
H704 H 0.13128 0.56994 0.03856 0.0
H705 H 0.0662 0.63272 0.15124 0.0
H706 H 0.06969 0.59349 0.14928 0.0
H707 H 0.09588 0.6107 0.05947 0.0
H708 H 0.09307 0.65037 0.06164 0.0
H709 H 0.12175 0.59197 0.08526 0.0
H710 H 0.03163 0.5642 0.07896 0.0
H711 H 0.99017 0.56078 0.09362 0.0
H712 H 0.99226 0.52587 0.17537 0.0
H713 H 0.03395 0.52942 0.16138 0.0
C714 C 0.08768 0.46823 0.07054 0.0
C715 C 0.08261 0.45282 0.09592 0.0
C716 C 0.08905 0.49246 0.07192 0.0
C717 C 0.08534 0.50193 0.09868 0.0
C718 C 0.08071 0.48687 0.1241 0.0
C719 C 0.07956 0.46277 0.12281 0.0
C720 C 0.08532 0.52704 0.10009 0.0
C721 C 0.06291 0.52683 0.11014 0.0
C722 C 0.10667 0.55085 0.09071 0.0
C723 C 0.13112 0.55257 0.08047 0.0
C724 C 0.14453 0.5439 0.09838 0.0
C725 C 0.16746 0.54541 0.08847 0.0
C726 C 0.17729 0.55572 0.06076 0.0
C727 C 0.16423 0.56461 0.04293 0.0
C728 C 0.14127 0.56312 0.05272 0.0
C729 C 0.07278 0.62819 0.13109 0.0
C730 C 0.07921 0.64467 0.10655 0.0
C731 C 0.07468 0.60565 0.12993 0.0
C732 C 0.08251 0.59863 0.104 0.0
C733 C 0.08971 0.6155 0.07975 0.0
C734 C 0.08814 0.63826 0.08102 0.0
C735 C 0.08271 0.57355 0.10204 0.0
C736 C 0.10508 0.57371 0.09178 0.0
C737 C 0.06115 0.54956 0.11077 0.0
C738 C 0.03605 0.54732 0.11924 0.0
C739 C 1.02335 0.55597 0.10016 0.0
C740 C 0.99979 0.55398 0.10833 0.0
C741 C 0.98862 0.54318 0.13544 0.0
C742 C 1.00096 0.53427 0.1544 0.0
C743 C 1.02454 0.53625 0.14635 0.0
H744 H 0.97038 0.54165 0.14173 0.0
H745 H 0.19505 0.55688 0.05312 0.0
H746 H 0.44911 0.03525 0.2946 0.0
H747 H 0.49166 0.03904 0.28931 0.0
H748 H 0.5176 0.10831 0.23741 0.0
H749 H 0.47466 0.1043 0.24215 0.0
H750 H 0.53093 0.07538 0.21185 0.0
H751 H 0.53965 0.11185 0.30746 0.0
H752 H 0.52699 0.1138 0.35854 0.0
H753 H 0.52895 0.04436 0.37919 0.0
H754 H 0.54126 0.04178 0.32811 0.0
H755 H 0.66051 0.0965 0.20879 0.0
H756 H 0.62292 0.10226 0.2158 0.0
H757 H 0.58906 0.03661 0.2745 0.0
H758 H 0.62694 0.03155 0.26883 0.0
H759 H 0.58218 0.07298 0.29644 0.0
H760 H 0.56917 0.03395 0.20056 0.0
H761 H 0.58075 0.03073 0.14934 0.0
H762 H 0.586 0.10374 0.12921 0.0
H763 H 0.57477 0.10754 0.18043 0.0
C764 C 0.46387 0.05139 0.28214 0.0
C765 C 0.45836 0.06944 0.26874 0.0
C766 C 0.48832 0.05364 0.2793 0.0
C767 C 0.50804 0.07407 0.2631 0.0
C768 C 0.50278 0.09239 0.25006 0.0
C769 C 0.47828 0.09022 0.25302 0.0
C770 C 0.53368 0.07554 0.259 0.0
C771 C 0.54239 0.07536 0.23037 0.0
C772 C 0.54847 0.07496 0.28308 0.0
C773 C 0.5412 0.07652 0.31387 0.0
C774 C 0.5372 0.09689 0.32283 0.0
C775 C 0.53012 0.09812 0.3518 0.0
C776 C 0.52712 0.07919 0.37208 0.0
C777 C 0.53126 0.05901 0.36345 0.0
C778 C 0.53833 0.05767 0.3345 0.0
C779 C 0.64519 0.0834 0.2234 0.0
C780 C 0.64684 0.06336 0.23796 0.0
C781 C 0.6235 0.08657 0.22716 0.0
C782 C 0.6028 0.06965 0.24539 0.0
C783 C 0.6046 0.0499 0.26022 0.0
C784 C 0.62626 0.04682 0.25662 0.0
C785 C 0.57923 0.0723 0.24926 0.0
C786 C 0.57089 0.07326 0.27789 0.0
C787 C 0.56472 0.07345 0.22518 0.0
C788 C 0.57143 0.07117 0.19439 0.0
C789 C 0.573 0.04941 0.18526 0.0
C790 C 0.57946 0.04746 0.15623 0.0
C791 C 0.58419 0.06705 0.13606 0.0
C792 C 0.58239 0.0886 0.14487 0.0
C793 C 0.57596 0.09065 0.17389 0.0
H794 H 0.58919 0.06551 0.11359 0.0
H795 H 0.52163 0.08018 0.3945 0.0
H796 H 0.60213 0.6211 0.37385 0.0
H797 H 0.55992 0.58246 0.37927 0.0
H798 H 0.54415 0.61612 0.4548 0.0
H799 H 0.5874 0.65427 0.45085 0.0
H800 H 0.52797 0.56834 0.46648 0.0
H801 H 0.51462 0.60949 0.38392 0.0
H802 H 0.52364 0.63083 0.33549 0.0
H803 H 0.51594 0.56225 0.29471 0.0
H804 H 0.5072 0.5406 0.34295 0.0
H805 H 0.39475 0.46485 0.46705 0.0
H806 H 0.43331 0.5082 0.46326 0.0
H807 H 0.46373 0.48051 0.39518 0.0
H808 H 0.42532 0.43751 0.39856 0.0
H809 H 0.46972 0.52762 0.38119 0.0
H810 H 0.48601 0.48831 0.46571 0.0
H811 H 0.47613 0.46755 0.51452 0.0
H812 H 0.47666 0.5341 0.55185 0.0
H813 H 0.48622 0.55512 0.50316 0.0
C814 C 0.58993 0.62037 0.39186 0.0
C815 C 0.5986 0.64106 0.41201 0.0
C816 C 0.56541 0.59824 0.39465 0.0
C817 C 0.54837 0.59628 0.41718 0.0
C818 C 0.55674 0.61702 0.43711 0.0
C819 C 0.58149 0.63908 0.43459 0.0
C820 C 0.52232 0.57224 0.42039 0.0
C821 C 0.51507 0.55979 0.44788 0.0
C822 C 0.50533 0.5606 0.39621 0.0
C823 C 0.51044 0.5735 0.36711 0.0
C824 C 0.51501 0.59902 0.36465 0.0
C825 C 0.52005 0.61116 0.33722 0.0
C826 C 0.52041 0.59792 0.31205 0.0
C827 C 0.51566 0.57249 0.31423 0.0
C828 C 0.51063 0.56026 0.34161 0.0
C829 C 0.40958 0.46805 0.45115 0.0
C830 C 0.40696 0.44754 0.43332 0.0
C831 C 0.43172 0.49283 0.44912 0.0
C832 C 0.45166 0.49767 0.4291 0.0
C833 C 0.44875 0.47736 0.41086 0.0
C834 C 0.42681 0.45265 0.41301 0.0
C835 C 0.47572 0.52369 0.42706 0.0
C836 C 0.48256 0.53644 0.3998 0.0
C837 C 0.49215 0.53573 0.45149 0.0
C838 C 0.48653 0.52315 0.48075 0.0
C839 C 0.48381 0.49843 0.48429 0.0
C840 C 0.47831 0.48663 0.51193 0.0
C841 C 0.47569 0.49946 0.53625 0.0
C842 C 0.47865 0.52416 0.53299 0.0
C843 C 0.48412 0.53603 0.50538 0.0
H844 H 0.47143 0.4903 0.55764 0.0
H845 H 0.52433 0.60736 0.29084 0.0
H846 H 1.01573 0.5989 0.5752 0.0
H847 H 1.01149 0.55582 0.57676 0.0
H848 H 0.92846 0.52081 0.58284 0.0
H849 H 0.93266 0.56419 0.58084 0.0
H850 H 0.95097 0.50154 0.62522 0.0
H851 H 0.95167 0.51425 0.52129 0.0
H852 H 0.96814 0.53798 0.47467 0.0
H853 H 0.04018 0.53907 0.48698 0.0
H854 H 1.02429 0.51567 0.53392 0.0
H855 H 0.9352 0.37402 0.61441 0.0
H856 H 0.93099 0.41258 0.60764 0.0
H857 H 1.01076 0.456 0.57982 0.0
H858 H 1.01464 0.41741 0.58471 0.0
H859 H 0.98495 0.46904 0.54649 0.0
H860 H 0.98763 0.46109 0.6513 0.0
H861 H 0.97369 0.43939 0.69941 0.0
H862 H 0.8985 0.43139 0.6874 0.0
H863 H 0.9119 0.45277 0.63902 0.0
C864 C 0.99653 0.58203 0.57661 0.0
C865 C 0.97452 0.58501 0.57786 0.0
C866 C 0.99412 0.55737 0.57747 0.0
C867 C 0.96966 0.53494 0.57992 0.0
C868 C 0.94756 0.53778 0.58098 0.0
C869 C 0.94994 0.56255 0.57961 0.0
C870 C 0.96755 0.50879 0.5819 0.0
C871 C 0.95793 0.49416 0.60778 0.0
C872 C 0.97726 0.49939 0.55954 0.0
C873 C 0.98685 0.51338 0.53126 0.0
C874 C 0.97111 0.51973 0.51419 0.0
C875 C 0.98033 0.53309 0.48768 0.0
C876 C 1.00521 0.54008 0.4779 0.0
C877 C 1.02091 0.53366 0.49459 0.0
C878 C 1.0118 0.52032 0.52114 0.0
C879 C 0.95182 0.39167 0.6066 0.0
C880 C 0.97539 0.39234 0.60051 0.0
C881 C 0.94947 0.41393 0.60305 0.0
C882 C 0.97068 0.43761 0.59363 0.0
C883 C 0.99405 0.43819 0.58723 0.0
C884 C 0.99635 0.41599 0.59049 0.0
C885 C 0.96878 0.46179 0.59012 0.0
C886 C 0.97771 0.47615 0.56391 0.0
C887 C 0.95878 0.47111 0.61237 0.0
C888 C 0.95067 0.45824 0.6414 0.0
C889 C 0.96806 0.45451 0.65882 0.0
C890 C 0.96026 0.44231 0.68615 0.0
C891 C 0.9352 0.43394 0.69641 0.0
C892 C 0.91789 0.43783 0.67939 0.0
C893 C 0.92558 0.45 0.65203 0.0
H894 H 0.9292 0.4245 0.71758 0.0
H895 H 1.01231 0.55041 0.45737 0.0
H896 H 0.38319 0.92699 0.72109 0.0
H897 H 0.42113 0.92104 0.724 0.0
H898 H 0.46326 0.99366 0.77039 0.0
H899 H 0.42578 0.99972 0.76733 0.0
H900 H 0.49293 0.99237 0.72972 0.0
H901 H 0.43869 0.93211 0.80402 0.0
H902 H 0.39908 0.89467 0.82369 0.0
H903 H 0.40724 0.84422 0.76261 0.0
H904 H 0.44674 0.88145 0.7423 0.0
H905 H 0.59887 0.98869 0.79094 0.0
H906 H 0.55636 0.98494 0.78639 0.0
H907 H 0.53227 0.92055 0.72701 0.0
H908 H 0.57537 0.9246 0.73083 0.0
H909 H 0.49267 0.91451 0.76924 0.0
H910 H 0.54902 0.97553 0.69743 0.0
H911 H 0.58929 1.0134 0.67977 0.0
H912 H 0.57717 0.06299 0.73822 0.0
H913 H 0.53702 0.02533 0.75659 0.0
C914 C 0.40046 0.94153 0.73217 0.0
C915 C 0.40142 0.96399 0.74365 0.0
C916 C 0.4222 0.93811 0.73386 0.0
C917 C 0.4453 0.95689 0.74745 0.0
C918 C 0.44594 0.97895 0.7595 0.0
C919 C 0.42439 0.98243 0.75767 0.0
C920 C 0.4692 0.95438 0.74846 0.0
C921 C 0.49276 0.97537 0.73864 0.0
C922 C 0.46921 0.93199 0.75926 0.0
C923 C 0.44548 0.90961 0.77141 0.0
C924 C 0.43191 0.91307 0.79461 0.0
C925 C 0.40951 0.89188 0.80591 0.0
C926 C 0.4006 0.8671 0.79434 0.0
C927 C 0.41413 0.86344 0.7715 0.0
C928 C 0.43653 0.88457 0.7601 0.0
C929 C 0.58464 0.97368 0.77683 0.0
C930 C 0.59093 0.95727 0.76082 0.0
C931 C 0.5602 0.97148 0.77439 0.0
C932 C 0.54112 0.95271 0.75602 0.0
C933 C 0.54666 0.93525 0.74128 0.0
C934 C 0.57133 0.93754 0.74357 0.0
C935 C 0.51623 0.95271 0.75114 0.0
C936 C 0.49262 0.93134 0.76013 0.0
C937 C 0.5161 0.97481 0.73974 0.0
C938 C 0.54011 0.99756 0.72856 0.0
C939 C 0.55504 0.99448 0.70668 0.0
C940 C 0.57783 1.01591 0.69652 0.0
C941 C 0.58581 0.04058 0.70791 0.0
C942 C 0.57097 0.04386 0.72944 0.0
C943 C 0.54818 0.02248 0.73971 0.0
H944 H 0.60346 0.05715 0.70001 0.0
H945 H 0.38325 0.85072 0.80312 0.0
H946 H 0.44117 0.41289 0.94834 0.0
H947 H 0.48379 0.4515 0.9534 0.0
H948 H 0.51577 0.41898 0.89305 0.0
H949 H 0.47287 0.37966 0.88858 0.0
H950 H 0.55032 0.44511 0.9352 0.0
H951 H 0.49964 0.46494 0.87059 0.0
H952 H 0.46145 0.46743 0.85425 0.0
H953 H 0.47083 0.51753 0.92676 0.0
H954 H 0.50886 0.51503 0.9438 0.0
H955 H 0.66173 0.57151 0.90649 0.0
H956 H 0.62287 0.52864 0.90271 0.0
H957 H 0.58448 0.55109 0.96679 0.0
H958 H 0.62329 0.59368 0.97118 0.0
H959 H 0.55428 0.5295 0.91896 0.0
H960 H 0.60526 0.50825 0.98353 0.0
H961 H 0.64387 0.50576 0.99807 0.0
H962 H 0.63479 0.45884 0.92245 0.0
H963 H 0.59631 0.46134 0.90725 0.0
C964 C 0.4573 0.41385 0.93627 0.0
C965 C 0.45355 0.39333 0.91774 0.0
C966 C 0.48171 0.43604 0.93908 0.0
C967 C 0.50303 0.43865 0.923 0.0
C968 C 0.49966 0.41763 0.90554 0.0
C969 C 0.47515 0.39514 0.903 0.0
C970 C 0.52835 0.46368 0.92384 0.0
C971 C 0.55122 0.46352 0.93121 0.0
C972 C 0.52974 0.4879 0.9189 0.0
C973 C 0.50698 0.48962 0.9086 0.0
C974 C 0.49346 0.47636 0.88316 0.0
C975 C 0.47185 0.47778 0.87376 0.0
C976 C 0.46369 0.49258 0.88949 0.0
C977 C 0.47716 0.50605 0.91461 0.0
C978 C 0.49876 0.50465 0.92414 0.0
C979 C 0.64524 0.56722 0.92025 0.0
C980 C 0.6458 0.58633 0.93905 0.0
C981 C 0.62292 0.54263 0.91796 0.0
C982 C 0.60061 0.53649 0.93446 0.0
C983 C 0.6013 0.55531 0.95365 0.0
C984 C 0.62358 0.5798 0.95604 0.0
C985 C 0.57613 0.51098 0.93094 0.0
C986 C 0.5534 0.51108 0.92289 0.0
C987 C 0.57501 0.4868 0.93492 0.0
C988 C 0.59807 0.48521 0.94409 0.0
C989 C 0.61162 0.49758 0.96987 0.0
C990 C 0.63346 0.49613 0.97826 0.0
C991 C 0.64182 0.48221 0.96115 0.0
C992 C 0.62831 0.46965 0.93566 0.0
C993 C 0.60648 0.47106 0.92716 0.0
H994 H 0.65873 0.48112 0.96768 0.0
H995 H 0.44695 0.49366 0.88218 0.0
H996 H 0.9846 0.31098 0.71295 0.0
H997 H 0.98335 0.31499 0.76655 0.0
H998 H 0.0586 0.32144 0.77343 0.0
H999 H 0.06001 0.3177 0.72021 0.0
H1000 H 1.02454 0.28568 0.81133 0.0
H1001 H 0.05086 0.37384 0.78358 0.0
H1002 H 0.04658 0.40774 0.75721 0.0
H1003 H 0.97327 0.38296 0.79907 0.0
H1004 H 0.97696 0.34867 0.82541 0.0
H1005 H 0.05839 0.32594 0.95971 0.0
H1006 H 0.05554 0.32014 0.90632 0.0
H1007 H 0.98468 0.32333 0.90574 0.0
H1008 H 0.98806 0.32997 0.95895 0.0
H1009 H 1.01365 0.35243 0.8643 0.0
H1010 H 0.98706 0.2654 0.89333 0.0
H1011 H 0.98998 0.23061 0.91941 0.0
H1012 H 0.06139 0.25146 0.87503 0.0
H1013 H 0.05907 0.28661 0.84894 0.0
C1014 C 1.00108 0.3138 0.72587 0.0
C1015 C 1.02234 0.31387 0.71232 0.0
C1016 C 1.0003 0.31595 0.75651 0.0
C1017 C 1.02085 0.31838 0.77409 0.0
C1018 C 0.04241 0.31931 0.76043 0.0
C1019 C 0.04319 0.31718 0.72997 0.0
C1020 C 1.01979 0.31911 0.80674 0.0
C1021 C 1.02241 0.30044 0.82295 0.0
C1022 C 1.01621 0.33783 0.82192 0.0
C1023 C 1.01406 0.35852 0.80622 0.0
C1024 C 0.03373 0.37549 0.78698 0.0
C1025 C 0.03143 0.3948 0.77207 0.0
C1026 C 1.00963 0.39745 0.77639 0.0
C1027 C 0.99013 0.38085 0.79571 0.0
C1028 C 0.99232 0.36149 0.81065 0.0
C1029 C 0.04196 0.32487 0.94821 0.0
C1030 C 1.02343 0.32836 0.96346 0.0
C1031 C 0.04031 0.32156 0.91765 0.0
C1032 C 1.01975 0.32109 0.90181 0.0
C1033 C 1.0008 0.32375 0.91728 0.0
C1034 C 1.00268 0.32745 0.94771 0.0
C1035 C 1.01863 0.31909 0.86908 0.0
C1036 C 1.01559 0.33752 0.8528 0.0
C1037 C 1.02159 0.29998 0.85381 0.0
C1038 C 1.023 0.27879 0.86938 0.0
C1039 C 1.00348 0.26269 0.88928 0.0
C1040 C 1.00501 0.24288 0.90404 0.0
C1041 C 1.02589 0.23887 0.89893 0.0
C1042 C 0.04524 0.25461 0.87898 0.0
C1043 C 0.04381 0.27446 0.86418 0.0
H1044 H 0.02704 0.22353 0.91038 0.0
H1045 H 1.00789 0.41241 0.76482 0.0
H1046 H 0.74544 0.05533 0.88168 0.0
H1047 H 0.74966 0.05397 0.93443 0.0
H1048 H 0.72389 0.9722 0.92976 0.0
H1049 H 0.71793 0.97303 0.87666 0.0
H1050 H 0.69995 0.97973 0.97229 0.0
H1051 H 0.78904 0.02081 0.94601 0.0
H1052 H 0.82966 0.05247 0.92165 0.0
H1053 H 0.82837 0.11474 0.96781 0.0
H1054 H 0.78753 0.08351 0.99213 0.0
H1055 H 0.72681 0.97436 0.12287 0.0
H1056 H 0.72979 0.97448 0.0695 0.0
H1057 H 0.74473 0.05324 0.0672 0.0
H1058 H 0.74155 0.0532 0.12093 0.0
H1059 H 0.77587 0.04533 0.02854 0.0
H1060 H 0.68468 1.00298 0.05214 0.0
H1061 H 0.64469 0.97039 0.07681 0.0
H1062 H 0.65143 0.90911 0.03556 0.0
H1063 H 0.69168 0.94135 0.01095 0.0
C1064 C 0.74052 0.03693 0.89163 0.0
C1065 C 0.73097 1.01421 0.87459 0.0
C1066 C 0.74338 0.0363 0.92202 0.0
C1067 C 0.73743 1.01307 0.93633 0.0
C1068 C 0.72867 0.99043 0.91935 0.0
C1069 C 0.72548 0.99098 0.88884 0.0
C1070 C 0.73876 1.01228 0.9691 0.0
C1071 C 0.71681 0.99379 0.98448 0.0
C1072 C 0.76049 0.03092 0.98531 0.0
C1073 C 0.78509 0.0498 0.97073 0.0
C1074 C 0.79731 0.04127 0.9508 0.0
C1075 C 0.82039 0.05914 0.93703 0.0
C1076 C 0.83156 0.0856 0.94313 0.0
C1077 C 0.81969 0.09424 0.96308 0.0
C1078 C 0.79658 0.07646 0.9769 0.0
C1079 C 0.73057 0.99171 0.11113 0.0
C1080 C 0.73352 1.01365 0.12633 0.0
C1081 C 0.73236 0.99176 0.08051 0.0
C1082 C 0.73703 1.0137 0.06421 0.0
C1083 C 0.74101 0.03602 0.07929 0.0
C1084 C 0.73924 0.036 0.11004 0.0
C1085 C 0.73704 1.01299 0.03146 0.0
C1086 C 0.75919 0.0312 0.01619 0.0
C1087 C 0.71562 0.99395 0.01531 0.0
C1088 C 0.69132 0.97457 0.02994 0.0
C1089 C 0.67773 0.98255 0.0485 0.0
C1090 C 0.65501 0.96415 0.06245 0.0
C1091 C 0.64556 0.9377 0.05782 0.0
C1092 C 0.65879 0.9296 0.03916 0.0
C1093 C 0.68154 0.94793 0.02519 0.0
H1094 H 0.62796 0.92348 0.06864 0.0
H1095 H 0.84943 0.09941 0.93245 0.0
H1096 H 0.70122 0.7188 0.06109 0.0
H1097 H 0.70756 0.71767 0.11358 0.0
H1098 H 0.76778 0.69893 0.0978 0.0
H1099 H 0.76237 0.70132 0.04472 0.0
H1100 H 0.70153 0.68241 0.15021 0.0
H1101 H 0.81144 0.72247 0.15512 0.0
H1102 H 0.85073 0.75001 0.12595 0.0
H1103 H 0.81451 0.79067 0.0896 0.0
H1104 H 0.77514 0.76356 0.11877 0.0
H1105 H 0.72443 0.67905 0.30008 0.0
H1106 H 0.73177 0.6738 0.24802 0.0
H1107 H 0.7655 0.75627 0.23522 0.0
H1108 H 0.75842 0.76129 0.28723 0.0
H1109 H 0.78712 0.73713 0.19735 0.0
H1110 H 0.7012 0.7166 0.22783 0.0
H1111 H 0.66118 0.69329 0.25713 0.0
H1112 H 0.64784 0.62068 0.2219 0.0
H1113 H 0.68806 0.64356 0.19273 0.0
C1114 C 0.71606 0.71472 0.06854 0.0
C1115 C 0.7315 0.71053 0.04833 0.0
C1116 C 0.71948 0.71378 0.0988 0.0
C1117 C 0.73835 0.70849 0.10994 0.0
C1118 C 0.75335 0.70349 0.08992 0.0
C1119 C 0.75004 0.70459 0.05946 0.0
C1120 C 0.74217 0.70864 0.14249 0.0
C1121 C 0.72035 0.69417 0.16038 0.0
C1122 C 0.76661 0.72411 0.15614 0.0
C1123 C 0.79028 0.74079 0.13886 0.0
C1124 C 0.81191 0.73734 0.14095 0.0
C1125 C 0.83418 0.75286 0.12442 0.0
C1126 C 0.83508 0.77201 0.10586 0.0
C1127 C 0.81375 0.77576 0.10389 0.0
C1128 C 0.79145 0.76031 0.1204 0.0
C1129 C 0.73474 0.69612 0.28642 0.0
C1130 C 0.74133 0.72062 0.29768 0.0
C1131 C 0.73861 0.69313 0.25659 0.0
C1132 C 0.74878 0.71459 0.23745 0.0
C1133 C 0.75769 0.7394 0.2494 0.0
C1134 C 0.75384 0.74234 0.27918 0.0
C1135 C 0.74647 0.71101 0.20486 0.0
C1136 C 0.76847 0.72488 0.18704 0.0
C1137 C 0.72208 0.69549 0.19118 0.0
C1138 C 0.69776 0.68174 0.20839 0.0
C1139 C 0.68981 0.69564 0.22649 0.0
C1140 C 0.66709 0.68252 0.24306 0.0
C1141 C 0.65201 0.65551 0.24144 0.0
C1142 C 0.65958 0.64159 0.22318 0.0
C1143 C 0.68233 0.65462 0.20663 0.0
H1144 H 0.63443 0.64538 0.25429 0.0
H1145 H 0.85232 0.78398 0.09305 0.0
H1146 H 0.05245 0.69466 0.45625 0.0
H1147 H 0.05452 0.70214 0.40376 0.0
H1148 H 1.00612 0.73654 0.41301 0.0
H1149 H 1.00442 0.72984 0.4662 0.0
H1150 H 0.9908 0.70018 0.3672 0.0
H1151 H 0.06869 0.77485 0.40053 0.0
H1152 H 0.11008 0.79803 0.42738 0.0
H1153 H 0.1409 0.75908 0.3761 0.0
H1154 H 0.09953 0.73533 0.34925 0.0
H1155 H 1.00426 0.74217 0.22088 0.0
H1156 H 1.00595 0.74248 0.27448 0.0
H1157 H 0.06359 0.71875 0.27128 0.0
H1158 H 0.06248 0.71933 0.2173 0.0
H1159 H 0.07441 0.75144 0.31476 0.0
H1160 H 0.99733 0.67482 0.28389 0.0
H1161 H 0.95599 0.64954 0.25738 0.0
H1162 H 0.92369 0.68938 0.30433 0.0
H1163 H 0.96498 0.71517 0.33084 0.0
C1164 C 0.04249 0.70421 0.44756 0.0
C1165 C 0.02849 0.71189 0.46603 0.0
C1166 C 0.04367 0.70839 0.41727 0.0
C1167 C 0.03079 0.72021 0.40442 0.0
C1168 C 1.01633 0.72747 0.42248 0.0
C1169 C 1.01531 0.72351 0.45297 0.0
C1170 C 0.03206 0.72433 0.37206 0.0
C1171 C 1.00902 0.71178 0.35577 0.0
C1172 C 0.05594 0.73876 0.35703 0.0
C1173 C 0.0809 0.75312 0.37306 0.0
C1174 C 0.08421 0.77105 0.39514 0.0
C1175 C 0.10769 0.78433 0.41034 0.0
C1176 C 0.12809 0.77999 0.4035 0.0
C1177 C 0.12507 0.7624 0.3814 0.0
C1178 C 0.10161 0.74904 0.36617 0.0
C1179 C 1.01741 0.73719 0.23164 0.0
C1180 C 0.033 0.7304 0.21496 0.0
C1181 C 1.0183 0.73726 0.2623 0.0
C1182 C 0.03433 0.7299 0.2771 0.0
C1183 C 0.05088 0.72431 0.26046 0.0
C1184 C 0.0503 0.72467 0.22964 0.0
C1185 C 0.03311 0.72725 0.30979 0.0
C1186 C 0.05614 0.73998 0.32615 0.0
C1187 C 1.00923 0.71268 0.32491 0.0
C1188 C 0.98433 0.6971 0.30913 0.0
C1189 C 0.98147 0.67831 0.28841 0.0
C1190 C 0.95804 0.66388 0.27341 0.0
C1191 C 0.93725 0.6679 0.27912 0.0
C1192 C 0.93983 0.68631 0.2999 0.0
C1193 C 0.96323 0.70083 0.31494 0.0
H1194 H 0.91913 0.6567 0.26748 0.0
H1195 H 0.14625 0.79029 0.41529 0.0
H1196 H 0.33785 0.0638 0.62219 0.0
H1197 H 0.33466 0.06291 0.56905 0.0
H1198 H 0.29472 0.97925 0.57047 0.0
H1199 H 0.29928 0.98004 0.62393 0.0
H1200 H 0.32996 0.99558 0.53041 0.0
H1201 H 0.26427 1.01635 0.5538 0.0
H1202 H 0.24508 0.04027 0.57707 0.0
H1203 H 0.29992 0.10993 0.53253 0.0
H1204 H 0.31971 0.08653 0.50931 0.0
H1205 H 0.29503 0.97945 0.38103 0.0
H1206 H 0.29194 0.98068 0.43424 0.0
H1207 H 0.34317 0.06351 0.43328 0.0
H1208 H 0.34681 0.06242 0.37966 0.0
H1209 H 0.30116 0.04732 0.47249 0.0
H1210 H 0.36736 0.02596 0.4507 0.0
H1211 H 0.38535 1.0012 0.42676 0.0
H1212 H 0.32737 0.93128 0.46819 0.0
H1213 H 0.3088 0.95557 0.49206 0.0
C1214 C 0.32844 0.04513 0.61139 0.0
C1215 C 0.31912 0.02197 0.62762 0.0
C1216 C 0.32627 0.04466 0.58081 0.0
C1217 C 0.31418 0.02102 0.56553 0.0
C1218 C 0.30412 0.99779 0.58167 0.0
C1219 C 0.30653 0.99824 0.61236 0.0
C1220 C 0.3136 0.0207 0.53271 0.0
C1221 C 0.32317 1.00653 0.51785 0.0
C1222 C 0.30547 0.03556 0.51606 0.0
C1223 C 0.29364 0.04972 0.53004 0.0
C1224 C 0.27239 0.03682 0.54916 0.0
C1225 C 0.26137 0.05028 0.56231 0.0
C1226 C 0.27132 0.07662 0.55635 0.0
C1227 C 0.29226 0.08954 0.53716 0.0
C1228 C 0.30337 0.07618 0.52398 0.0
C1229 C 0.30581 0.99798 0.39199 0.0
C1230 C 0.32162 0.02077 0.37595 0.0
C1231 C 0.30389 0.99864 0.4225 0.0
C1232 C 0.31769 0.02209 0.43783 0.0
C1233 C 0.33246 0.04515 0.4219 0.0
C1234 C 0.33448 0.0445 0.39122 0.0
C1235 C 0.31737 0.02215 0.47052 0.0
C1236 C 0.30775 0.0363 0.48524 0.0
C1237 C 0.32527 1.00715 0.4871 0.0
C1238 C 0.33654 0.99254 0.47295 0.0
C1239 C 0.35833 1.00527 0.45453 0.0
C1240 C 0.36865 0.99133 0.441 0.0
C1241 C 0.35747 0.96468 0.44589 0.0
C1242 C 0.33599 0.95192 0.46439 0.0
C1243 C 0.32557 0.96577 0.47795 0.0
H1244 H 0.36549 0.95391 0.43539 0.0
H1245 H 0.26276 0.087 0.56655 0.0
H1246 H 0.32083 0.2792 0.54816 0.0
H1247 H 0.317 0.278 0.60149 0.0
H1248 H 0.30879 0.34604 0.59926 0.0
H1249 H 0.31323 0.34767 0.54558 0.0
H1250 H 0.3435 0.35072 0.64036 0.0
H1251 H 0.25742 0.28793 0.61569 0.0
H1252 H 0.22218 0.24967 0.59109 0.0
H1253 H 0.24629 0.20062 0.63333 0.0
H1254 H 0.28193 0.2387 0.65791 0.0
H1255 H 0.29913 0.33878 0.78777 0.0
H1256 H 0.29722 0.33582 0.73462 0.0
H1257 H 0.33081 0.28636 0.73681 0.0
H1258 H 0.33417 0.29019 0.79044 0.0
H1259 H 0.28206 0.27219 0.69636 0.0
H1260 H 0.37042 0.33856 0.71923 0.0
H1261 H 0.40307 0.37807 0.74462 0.0
H1262 H 0.37089 0.42159 0.70581 0.0
H1263 H 0.33776 0.38219 0.68056 0.0
C1264 C 0.31825 0.29396 0.55894 0.0
C1265 C 0.31758 0.31369 0.54255 0.0
C1266 C 0.31579 0.29309 0.58949 0.0
C1267 C 0.31249 0.31184 0.60447 0.0
C1268 C 0.31134 0.33134 0.58819 0.0
C1269 C 0.31369 0.33216 0.55749 0.0
C1270 C 0.31147 0.3116 0.63717 0.0
C1271 C 0.32982 0.33364 0.65252 0.0
C1272 C 0.29385 0.28922 0.65319 0.0
C1273 C 0.27251 0.26623 0.63842 0.0
C1274 C 0.25535 0.26903 0.61954 0.0
C1275 C 0.23527 0.24736 0.60564 0.0
C1276 C 0.23204 0.22273 0.61058 0.0
C1277 C 0.24884 0.21972 0.6295 0.0
C1278 C 0.26898 0.24134 0.64345 0.0
C1279 C 0.30642 0.32741 0.7773 0.0
C1280 C 0.31733 0.31515 0.79384 0.0
C1281 C 0.30502 0.32556 0.74673 0.0
C1282 C 0.31401 0.31103 0.73181 0.0
C1283 C 0.32375 0.29768 0.74801 0.0
C1284 C 0.32559 0.29986 0.77874 0.0
C1285 C 0.31431 0.31109 0.69922 0.0
C1286 C 0.29575 0.28914 0.68401 0.0
C1287 C 0.33144 0.33365 0.68329 0.0
C1288 C 0.35144 0.35737 0.69829 0.0
C1289 C 0.37014 0.35649 0.71636 0.0
C1290 C 0.38877 0.37887 0.73067 0.0
C1291 C 0.38901 0.40231 0.72691 0.0
C1292 C 0.37066 0.40341 0.70875 0.0
C1293 C 0.35196 0.38107 0.69442 0.0
H1294 H 0.40346 0.41962 0.73799 0.0
H1295 H 0.21647 0.20597 0.59981 0.0
H1296 H 0.25591 0.2686 0.94912 0.0
H1297 H 0.22075 0.27332 0.97076 0.0
H1298 H 0.26755 0.35656 0.96295 0.0
H1299 H 0.30297 0.3519 0.94288 0.0
H1300 H 0.24467 0.34784 0.01149 0.0
H1301 H 0.21436 0.3148 0.91422 0.0
H1302 H 0.2024 0.28402 0.87297 0.0
H1303 H 0.14482 0.22319 0.92667 0.0
H1304 H 0.15666 0.25355 0.96834 0.0
H1305 H 0.13415 0.37082 0.99289 0.0
H1306 H 0.1686 0.36174 0.97912 0.0
H1307 H 0.14593 0.3061 0.04942 0.0
H1308 H 0.11181 0.3156 0.06399 0.0
H1309 H 0.15493 0.29856 0.97285 0.0
H1310 H 0.19005 0.33478 0.0718 0.0
H1311 H 0.20175 0.3688 0.10929 0.0
H1312 H 0.25031 0.42704 0.04683 0.0
H1313 H 0.23849 0.39332 0.00885 0.0
C1314 C 0.25863 0.28788 0.95206 0.0
C1315 C 0.28222 0.30986 0.94424 0.0
C1316 C 0.23845 0.2906 0.96431 0.0
C1317 C 0.24114 0.31534 0.96821 0.0
C1318 C 0.26481 0.33724 0.9604 0.0
C1319 C 0.2851 0.33455 0.94877 0.0
C1320 C 0.21956 0.3187 0.98034 0.0
C1321 C 0.22511 0.33696 1.00288 0.0
C1322 C 0.19377 0.3046 0.96952 0.0
C1323 C 0.18659 0.28636 0.94447 0.0
C1324 C 0.19927 0.29481 0.91727 0.0
C1325 C 0.1925 0.27745 0.89381 0.0
C1326 C 0.17292 0.25165 0.89722 0.0
C1327 C 0.16001 0.24317 0.92407 0.0
C1328 C 0.16673 0.26045 0.94761 0.0
C1329 C 0.13661 0.35684 0.00567 0.0
C1330 C 0.12021 0.344 0.02963 0.0
C1331 C 0.15631 0.35165 0.99771 0.0
C1332 C 0.15987 0.33332 0.01329 0.0
C1333 C 0.14364 0.32048 0.03725 0.0
C1334 C 0.12419 0.32598 0.04558 0.0
C1335 C 0.18025 0.32734 1.00385 0.0
C1336 C 0.17447 0.30892 0.98163 0.0
C1337 C 0.20585 0.34145 0.01463 0.0
C1338 C 0.21313 0.36162 0.03745 0.0
C1339 C 0.20298 0.35487 0.066 0.0
C1340 C 0.20969 0.37408 0.08735 0.0
C1341 C 0.2267 0.40008 0.08042 0.0
C1342 C 0.23709 0.4069 0.05215 0.0
C1343 C 0.2304 0.38776 0.03071 0.0
H1344 H 0.23188 0.41493 0.09697 0.0
H1345 H 0.1677 0.23824 0.87904 0.0
H1346 H 0.99604 0.24951 0.07836 0.0
H1347 H 0.95649 0.21228 0.0981 0.0
H1348 H 0.9355 0.26461 0.13886 0.0
H1349 H 0.97461 0.30162 0.11926 0.0
H1350 H 0.9323 0.22763 0.1773 0.0
H1351 H 0.90452 0.23078 0.07817 0.0
H1352 H 0.90697 0.23 0.02415 0.0
H1353 H 0.89913 0.15427 0.02778 0.0
H1354 H 0.89704 0.15477 0.08189 0.0
H1355 H 0.80476 0.1526 0.2231 0.0
H1356 H 0.84328 0.18331 0.19619 0.0
H1357 H 0.84832 0.12003 0.15685 0.0
H1358 H 0.80892 0.08885 0.18334 0.0
H1359 H 0.86193 0.15865 0.11761 0.0
H1360 H 0.88664 0.15333 0.21566 0.0
H1361 H 0.88347 0.15292 0.26969 0.0
H1362 H 0.89827 0.23133 0.26864 0.0
H1363 H 0.90109 0.23209 0.21456 0.0
C1364 C 0.98283 0.25304 0.09125 0.0
C1365 C 0.98851 0.27858 0.09715 0.0
C1366 C 0.96022 0.23174 0.10252 0.0
C1367 C 0.94294 0.23559 0.12002 0.0
C1368 C 0.9485 0.26108 0.12554 0.0
C1369 C 0.97087 0.28227 0.11414 0.0
C1370 C 0.91946 0.21337 0.1335 0.0
C1371 C 0.91684 0.21267 0.1642 0.0
C1372 C 0.89966 0.19323 0.11659 0.0
C1373 C 0.90095 0.19296 0.08409 0.0
C1374 C 0.90358 0.21407 0.06747 0.0
C1375 C 0.90485 0.21366 0.03683 0.0
C1376 C 0.90329 0.19214 0.02254 0.0
C1377 C 0.90039 0.17095 0.03887 0.0
C1378 C 0.89916 0.17129 0.06952 0.0
C1379 C 0.81385 0.14508 0.20856 0.0
C1380 C 0.80386 0.1182 0.20569 0.0
C1381 C 0.83604 0.16275 0.19323 0.0
C1382 C 0.84925 0.15411 0.17504 0.0
C1383 C 0.83866 0.12724 0.17094 0.0
C1384 C 0.81612 0.10942 0.1861 0.0
C1385 C 0.87447 0.17336 0.16135 0.0
C1386 C 0.8775 0.17345 0.13073 0.0
C1387 C 0.89488 0.19283 0.17836 0.0
C1388 C 0.8939 0.1927 0.21099 0.0
C1389 C 0.88911 0.17046 0.22693 0.0
C1390 C 0.88737 0.17015 0.25757 0.0
C1391 C 0.8906 0.19206 0.27257 0.0
C1392 C 0.89574 0.21436 0.25697 0.0
C1393 C 0.89745 0.21476 0.22633 0.0
H1394 H 0.88913 0.19176 0.29626 0.0
H1395 H 0.90426 0.19184 0.99882 0.0
H1396 H 0.68063 0.80701 0.42059 0.0
H1397 H 0.68891 0.84665 0.39512 0.0
H1398 H 0.7429 0.84023 0.33758 0.0
H1399 H 0.73451 0.8003 0.36275 0.0
H1400 H 0.76167 0.89133 0.36082 0.0
H1401 H 0.68661 0.82493 0.31086 0.0
H1402 H 0.64241 0.78726 0.30773 0.0
H1403 H 0.61188 0.8313 0.34889 0.0
H1404 H 0.65597 0.86913 0.35265 0.0
H1405 H 0.77408 0.99096 0.26143 0.0
H1406 H 0.76918 0.95136 0.28432 0.0
H1407 H 0.7014 0.94103 0.33059 0.0
H1408 H 0.70563 0.97969 0.30688 0.0
H1409 H 0.69074 0.89721 0.31092 0.0
H1410 H 0.76415 0.96257 0.36383 0.0
H1411 H 0.80787 1.00053 0.36981 0.0
H1412 H 0.84107 0.95964 0.32691 0.0
H1413 H 0.79748 0.92154 0.32034 0.0
C1414 C 0.69422 0.81393 0.40246 0.0
C1415 C 0.70683 0.80033 0.39373 0.0
C1416 C 0.69892 0.83663 0.38788 0.0
C1417 C 0.71651 0.84647 0.36437 0.0
C1418 C 0.72929 0.83308 0.35569 0.0
C1419 C 0.72433 0.81014 0.37002 0.0
C1420 C 0.72135 0.87061 0.3488 0.0
C1421 C 0.74627 0.89256 0.34952 0.0
C1422 C 0.70117 0.87246 0.33467 0.0
C1423 C 0.67462 0.84979 0.33227 0.0
C1424 C 0.6705 0.82651 0.31946 0.0
C1425 C 0.64546 0.80515 0.31753 0.0
C1426 C 0.62436 0.80687 0.32817 0.0
C1427 C 0.62825 0.82999 0.34069 0.0
C1428 C 0.65325 0.85141 0.3427 0.0
C1429 C 0.75831 0.98033 0.27671 0.0
C1430 C 0.74026 0.9885 0.28232 0.0
C1431 C 0.75553 0.95768 0.28991 0.0
C1432 C 0.73497 0.94305 0.30953 0.0
C1433 C 0.71733 0.95166 0.31549 0.0
C1434 C 0.71985 0.97393 0.30198 0.0
C1435 C 0.73109 0.91838 0.32323 0.0
C1436 C 0.70628 0.89618 0.32212 0.0
C1437 C 0.75133 0.91646 0.33737 0.0
C1438 C 0.77754 0.93932 0.34131 0.0
C1439 C 0.78076 0.96175 0.35547 0.0
C1440 C 0.80552 0.98328 0.359 0.0
C1441 C 0.82723 0.98253 0.34867 0.0
C1442 C 0.82423 0.96021 0.33486 0.0
C1443 C 0.79951 0.93864 0.33124 0.0
H1444 H 0.84638 0.99921 0.35142 0.0
H1445 H 0.60499 0.7903 0.32666 0.0
H1446 H 0.80229 0.76181 0.42335 0.0
H1447 H 0.83691 0.7561 0.44544 0.0
H1448 H 0.78016 0.67898 0.47306 0.0
H1449 H 0.74582 0.68431 0.45077 0.0
H1450 H 0.81475 0.70867 0.51814 0.0
H1451 H 0.81751 0.68587 0.41677 0.0
H1452 H 0.82199 0.69382 0.36338 0.0
H1453 H 0.89799 0.75953 0.37613 0.0
H1454 H 0.8938 0.75219 0.42969 0.0
H1455 H 0.89001 0.6537 0.56429 0.0
H1456 H 0.85917 0.66294 0.53938 0.0
H1457 H 0.92246 0.73156 0.50076 0.0
H1458 H 0.95345 0.72197 0.52497 0.0
H1459 H 0.88651 0.7099 0.46156 0.0
H1460 H 0.88623 0.73309 0.56137 0.0
H1461 H 0.88268 0.72824 0.61523 0.0
H1462 H 0.80398 0.66639 0.60689 0.0
H1463 H 0.80719 0.67049 0.55294 0.0
C1464 C 0.79725 0.74357 0.43391 0.0
C1465 C 0.77123 0.7235 0.43511 0.0
C1466 C 0.81706 0.74032 0.44655 0.0
C1467 C 0.81121 0.71707 0.461 0.0
C1468 C 0.78525 0.6971 0.46216 0.0
C1469 C 0.7656 0.70017 0.4492 0.0
C1470 C 0.83182 0.71339 0.47535 0.0
C1471 C 0.83031 0.70868 0.50573 0.0
C1472 C 0.85267 0.71427 0.45943 0.0
C1473 C 0.85521 0.71866 0.42726 0.0
C1474 C 0.83508 0.70216 0.40822 0.0
C1475 C 0.83758 0.70653 0.37792 0.0
C1476 C 0.86022 0.72722 0.36638 0.0
C1477 C 0.88044 0.74355 0.38511 0.0
C1478 C 0.87801 0.73928 0.41544 0.0
C1479 C 0.89744 0.6707 0.55037 0.0
C1480 C 0.92433 0.6871 0.54682 0.0
C1481 C 0.8797 0.67611 0.53625 0.0
C1482 C 0.88829 0.69831 0.51852 0.0
C1483 C 0.91515 0.71437 0.51434 0.0
C1484 C 0.93292 0.70885 0.52828 0.0
C1485 C 0.8693 0.70472 0.50447 0.0
C1486 C 0.87109 0.71 0.47413 0.0
C1487 C 0.8489 0.70478 0.52056 0.0
C1488 C 0.84703 0.70195 0.55303 0.0
C1489 C 0.86824 0.71827 0.57098 0.0
C1490 C 0.86628 0.71568 0.60155 0.0
C1491 C 0.84312 0.69702 0.61446 0.0
C1492 C 0.82191 0.68083 0.59684 0.0
C1493 C 0.82379 0.68327 0.56627 0.0
H1494 H 0.84155 0.69516 0.63812 0.0
H1495 H 0.86213 0.73056 0.34291 0.0
H1496 H 0.23468 0.94097 0.71255 0.0
H1497 H 0.19257 0.90728 0.69443 0.0
H1498 H 0.22846 0.86594 0.65793 0.0
H1499 H 0.27083 0.90036 0.67472 0.0
H1500 H 0.19544 0.86254 0.62102 0.0
H1501 H 0.18992 0.8479 0.72458 0.0
H1502 H 0.19258 0.85951 0.77697 0.0
H1503 H 0.13265 0.8788 0.76486 0.0
H1504 H 0.12991 0.86769 0.71227 0.0
H1505 H 0.08104 0.73746 0.61227 0.0
H1506 H 0.12164 0.77407 0.63004 0.0
H1507 H 0.08675 0.82244 0.63007 0.0
H1508 H 0.04599 0.78586 0.6114 0.0
H1509 H 0.11765 0.82284 0.68504 0.0
H1510 H 0.12394 0.83491 0.5796 0.0
H1511 H 0.12184 0.82023 0.52852 0.0
H1512 H 0.1813 0.80143 0.54699 0.0
H1513 H 0.18346 0.81562 0.59834 0.0
C1514 C 0.23362 0.92467 0.70074 0.0
C1515 C 0.25622 0.92339 0.69522 0.0
C1516 C 0.2094 0.90523 0.69048 0.0
C1517 C 0.20694 0.88355 0.67515 0.0
C1518 C 0.22958 0.88232 0.66963 0.0
C1519 C 0.25388 0.90202 0.67937 0.0
C1520 C 0.181 0.86241 0.6645 0.0
C1521 C 0.1786 0.85378 0.63527 0.0
C1522 C 0.15859 0.8509 0.68268 0.0
C1523 C 0.1599 0.85722 0.7144 0.0
C1524 C 0.17741 0.85477 0.73305 0.0
C1525 C 0.17893 0.86125 0.76278 0.0
C1526 C 0.16285 0.86996 0.77422 0.0
C1527 C 0.14513 0.87209 0.75596 0.0
C1528 C 0.14358 0.86569 0.72619 0.0
C1529 C 0.08193 0.75587 0.61603 0.0
C1530 C 0.06023 0.75872 0.61036 0.0
C1531 C 0.1052 0.7768 0.6262 0.0
C1532 C 0.10729 0.80102 0.63147 0.0
C1533 C 0.08558 0.80392 0.62625 0.0
C1534 C 0.06235 0.78305 0.61544 0.0
C1535 C 0.13241 0.82324 0.64184 0.0
C1536 C 0.13459 0.83188 0.67095 0.0
C1537 C 0.15476 0.83438 0.62382 0.0
C1538 C 0.15367 0.82609 0.59289 0.0
C1539 C 0.1364 0.82743 0.57284 0.0
C1540 C 0.13523 0.81924 0.54382 0.0
C1541 C 0.15138 0.80984 0.53453 0.0
C1542 C 0.16878 0.80868 0.55422 0.0
C1543 C 0.17 0.81682 0.58328 0.0
H1544 H 0.15044 0.8035 0.51206 0.0
H1545 H 0.16409 0.875 0.79723 0.0
H1546 H 0.30975 0.23104 0.86493 0.0
H1547 H 0.30197 0.18937 0.84589 0.0
H1548 H 0.3843 0.22105 0.83449 0.0
H1549 H 0.39189 0.2634 0.85155 0.0
H1550 H 0.36203 0.19095 0.7914 0.0
H1551 H 0.34665 0.17834 0.89555 0.0
H1552 H 0.32665 0.18337 0.94068 0.0
H1553 H 0.2509 0.13339 0.90505 0.0
H1554 H 0.27045 0.12813 0.85962 0.0
H1555 H 0.36046 0.07108 0.78454 0.0
H1556 H 0.36593 0.11215 0.80277 0.0
H1557 H 0.28378 0.08253 0.79428 0.0
H1558 H 0.27813 0.04117 0.77581 0.0
H1559 H 0.30492 0.11067 0.84731 0.0
H1560 H 0.32255 0.12211 0.74342 0.0
H1561 H 0.34411 0.12064 0.69782 0.0
H1562 H 0.41828 0.17438 0.7346 0.0
H1563 H 0.39719 0.17585 0.78063 0.0
C1564 C 0.32619 0.2291 0.85838 0.0
C1565 C 0.35146 0.25045 0.86004 0.0
C1566 C 0.32175 0.20515 0.84764 0.0
C1567 C 0.34255 0.20153 0.83946 0.0
C1568 C 0.36783 0.22306 0.84072 0.0
C1569 C 0.3722 0.24729 0.85061 0.0
C1570 C 0.338 0.1754 0.82982 0.0
C1571 C 0.34984 0.17353 0.80394 0.0
C1572 C 0.32175 0.15231 0.84571 0.0
C1573 C 0.30999 0.15305 0.87412 0.0
C1574 C 0.32572 0.16827 0.89745 0.0
C1575 C 0.31448 0.17125 0.92301 0.0
C1576 C 0.28755 0.159 0.92552 0.0
C1577 C 0.27177 0.14302 0.90293 0.0
C1578 C 0.28291 0.13993 0.87733 0.0
C1579 C 0.34347 0.07316 0.78669 0.0
C1580 C 0.31884 0.05278 0.77858 0.0
C1581 C 0.34667 0.09675 0.79707 0.0
C1582 C 0.32532 0.10062 0.79971 0.0
C1583 C 0.30056 0.08006 0.79244 0.0
C1584 C 0.29737 0.05645 0.78179 0.0
C1585 C 0.32915 0.12641 0.8091 0.0
C1586 C 0.31718 0.12817 0.83491 0.0
C1587 C 0.34562 0.14946 0.7934 0.0
C1588 C 0.3583 0.14891 0.76557 0.0
C1589 C 0.34347 0.13348 0.74186 0.0
C1590 C 0.3556 0.13266 0.71593 0.0
C1591 C 0.38255 0.14736 0.71334 0.0
C1592 C 0.39741 0.16298 0.73665 0.0
C1593 C 0.38538 0.16383 0.76266 0.0
H1594 H 0.39191 0.14669 0.69325 0.0
H1595 H 0.27892 0.16202 0.94491 0.0
H1596 H 0.69373 0.73166 0.87881 0.0
H1597 H 0.68847 0.76703 0.85936 0.0
H1598 H 0.76567 0.82244 0.88813 0.0
H1599 H 0.7711 0.78691 0.90772 0.0
H1600 H 0.73176 0.83873 0.90209 0.0
H1601 H 0.75362 0.80829 0.81639 0.0
H1602 H 0.75143 0.77732 0.77897 0.0
H1603 H 0.67374 0.75828 0.75714 0.0
H1604 H 0.67528 0.78879 0.79481 0.0
H1605 H 0.72176 0.9219 0.77457 0.0
H1606 H 0.73115 0.88875 0.79221 0.0
H1607 H 0.67856 0.87228 0.86471 0.0
H1608 H 0.66945 0.90594 0.84747 0.0
H1609 H 0.70444 0.83903 0.79922 0.0
H1610 H 0.6997 0.85334 0.92467 0.0
H1611 H 0.7065 0.88828 0.959 0.0
H1612 H 0.7585 0.94546 0.89769 0.0
H1613 H 0.7524 0.91087 0.86324 0.0
C1614 C 0.7097 0.75135 0.88089 0.0
C1615 C 0.73289 0.7564 0.89479 0.0
C1616 C 0.70667 0.7716 0.86964 0.0
C1617 C 0.7267 0.7975 0.87203 0.0
C1618 C 0.74991 0.80266 0.88596 0.0
C1619 C 0.75305 0.78231 0.89704 0.0
C1620 C 0.72307 0.81903 0.8604 0.0
C1621 C 0.7258 0.83877 0.87959 0.0
C1622 C 0.71574 0.81953 0.83087 0.0
C1623 C 0.71447 0.80062 0.80871 0.0
C1624 C 0.73594 0.79726 0.80389 0.0
C1625 C 0.73484 0.77983 0.78256 0.0
C1626 C 0.71243 0.76578 0.76575 0.0
C1627 C 0.69106 0.76912 0.77024 0.0
C1628 C 0.69204 0.78647 0.79159 0.0
C1629 C 0.7121 0.91125 0.79427 0.0
C1630 C 0.69489 0.91678 0.80964 0.0
C1631 C 0.71748 0.89217 0.80432 0.0
C1632 C 0.7059 0.87812 0.83007 0.0
C1633 C 0.68819 0.88313 0.8451 0.0
C1634 C 0.68284 0.90231 0.83509 0.0
C1635 C 0.71246 0.85835 0.84107 0.0
C1636 C 0.71031 0.83895 0.82176 0.0
C1637 C 0.72089 0.85854 0.87027 0.0
C1638 C 0.72536 0.87948 0.89125 0.0
C1639 C 0.71271 0.87335 0.91859 0.0
C1640 C 0.71643 0.89311 0.93806 0.0
C1641 C 0.73285 0.91907 0.93048 0.0
C1642 C 0.74573 0.92534 0.9035 0.0
C1643 C 0.74214 0.90567 0.88399 0.0
H1644 H 0.73563 0.93433 0.94555 0.0
H1645 H 0.71164 0.75235 0.7492 0.0
H1646 H 0.80743 0.66159 0.93603 0.0
H1647 H 0.84674 0.67035 0.9624 0.0
H1648 H 0.84671 0.73386 0.00788 0.0
H1649 H 0.80689 0.72491 0.98191 0.0
H1650 H 0.89606 0.74553 0.98086 0.0
H1651 H 0.8316 0.68437 0.04651 0.0
H1652 H 0.79229 0.64348 0.0598 0.0
H1653 H 0.82713 0.60001 0.02803 0.0
H1654 H 0.86653 0.64065 0.01413 0.0
H1655 H 1.00136 0.76631 0.07431 0.0
H1656 H 0.96047 0.76031 0.05449 0.0
H1657 H 0.9414 0.68446 0.02272 0.0
H1658 H 0.98172 0.69004 0.04343 0.0
H1659 H 0.90053 0.68099 0.04598 0.0
H1660 H 0.96307 0.74021 0.97687 0.0
H1661 H 1.00221 0.78015 0.96083 0.0
H1662 H 0.97134 0.8262 0.99578 0.0
H1663 H 0.93214 0.78652 0.01238 0.0
C1664 C 0.81561 0.67731 0.95181 0.0
C1665 C 0.80398 0.69255 0.95683 0.0
C1666 C 0.8381 0.68227 0.96689 0.0
C1667 C 0.84969 0.70277 0.98708 0.0
C1668 C 0.8381 0.71797 0.99235 0.0
C1669 C 0.81528 0.71273 0.97761 0.0
C1670 C 0.8742 0.70844 1.00208 0.0
C1671 C 0.89703 0.73167 0.99555 0.0
C1672 C 0.87554 0.69004 0.02057 0.0
C1673 C 0.85193 0.66556 0.02904 0.0
C1674 C 0.8308 0.66609 0.04212 0.0
C1675 C 0.80851 0.64295 0.04981 0.0
C1676 C 0.80719 0.61916 0.0447 0.0
C1677 C 0.82817 0.61846 0.03195 0.0
C1678 C 0.8505 0.64154 0.02419 0.0
C1679 C 0.98851 0.74843 0.06293 0.0
C1680 C 0.99484 0.72868 0.06037 0.0
C1681 C 0.96513 0.74503 0.05149 0.0
C1682 C 0.94779 0.72201 0.03673 0.0
C1683 C 0.95427 0.70238 0.03404 0.0
C1684 C 0.97744 0.70563 0.04579 0.0
C1685 C 0.92273 0.71803 0.02449 0.0
C1686 C 0.8997 0.69505 0.0315 0.0
C1687 C 0.92128 0.73655 0.00613 0.0
C1688 C 0.94481 0.76042 0.99615 0.0
C1689 C 0.96472 0.75887 0.98134 0.0
C1690 C 0.9869 0.78146 0.97211 0.0
C1691 C 0.98929 0.8057 0.97736 0.0
C1692 C 0.96948 0.80741 0.99178 0.0
C1693 C 0.94727 0.78488 1.00108 0.0
H1694 H 1.00648 0.82317 0.9702 0.0
H1695 H 0.78992 0.60127 0.05067 0.0
H1696 H 0.15215 0.7822 0.15557 0.0
H1697 H 0.18473 0.82497 0.17316 0.0
H1698 H 0.13769 0.85691 0.14328 0.0
H1699 H 0.10537 0.81422 0.12463 0.0
H1700 H 0.18567 0.89024 0.13215 0.0
H1701 H 0.14156 0.84323 0.2176 0.0
H1702 H 0.12283 0.80674 0.25263 0.0
H1703 H 0.19849 0.81733 0.2694 0.0
H1704 H 0.21764 0.85364 0.23412 0.0
H1705 H 0.26159 1.0057 0.22181 0.0
H1706 H 0.22486 0.96531 0.20263 0.0
H1707 H 0.27092 0.92798 0.20774 0.0
H1708 H 0.30754 0.96805 0.22618 0.0
H1709 H 0.22012 0.89901 0.23328 0.0
H1710 H 0.26252 0.94567 0.14399 0.0
H1711 H 0.27933 0.98306 0.11027 0.0
H1712 H 0.20339 0.9742 0.10348 0.0
H1713 H 0.18619 0.93696 0.13753 0.0
C1714 C 0.14871 0.7983 0.15266 0.0
C1715 C 0.126 0.79466 0.13886 0.0
C1716 C 0.16734 0.8228 0.16291 0.0
C1717 C 0.16351 0.84422 0.16023 0.0
C1718 C 0.14112 0.84077 0.14581 0.0
C1719 C 0.12261 0.81629 0.13518 0.0
C1720 C 0.18287 0.87007 0.17255 0.0
C1721 C 0.19283 0.89215 0.15444 0.0
C1722 C 0.19241 0.87282 0.20166 0.0
C1723 C 0.18101 0.85104 0.22301 0.0
C1724 C 0.15419 0.83767 0.2286 0.0
C1725 C 0.1435 0.81703 0.24852 0.0
C1726 C 0.15945 0.80969 0.26319 0.0
C1727 C 0.18615 0.82302 0.258 0.0
C1728 C 0.19694 0.84365 0.23806 0.0
C1729 C 0.26385 0.98889 0.21869 0.0
C1730 C 0.2875 0.99011 0.22541 0.0
C1731 C 0.2429 0.96586 0.20773 0.0
C1732 C 0.24516 0.94362 0.20377 0.0
C1733 C 0.2687 0.94485 0.21065 0.0
C1734 C 0.28968 0.96786 0.22108 0.0
C1735 C 0.22314 0.91884 0.19269 0.0
C1736 C 0.21268 0.89701 0.2111 0.0
C1737 C 0.21282 0.91645 0.16412 0.0
C1738 C 0.22314 0.93875 0.14358 0.0
C1739 C 0.24946 0.95185 0.13553 0.0
C1740 C 0.25905 0.97298 0.11631 0.0
C1741 C 0.24246 0.98105 0.10482 0.0
C1742 C 0.21623 0.96796 0.11245 0.0
C1743 C 0.20655 0.94683 0.1317 0.0
H1744 H 0.24992 0.99741 0.08993 0.0
H1745 H 0.15114 0.79371 0.27861 0.0
H1746 H 0.35361 0.30256 0.37094 0.0
H1747 H 0.35765 0.2668 0.35062 0.0
H1748 H 0.28171 0.2121 0.38348 0.0
H1749 H 0.27747 0.2481 0.40398 0.0
H1750 H 0.31888 0.1968 0.39446 0.0
H1751 H 0.2885 0.22456 0.31266 0.0
H1752 H 0.28794 0.25596 0.27774 0.0
H1753 H 0.36457 0.27701 0.24869 0.0
H1754 H 0.36578 0.24604 0.28379 0.0
H1755 H 0.31914 0.0932 0.31239 0.0
H1756 H 0.30829 0.12373 0.33561 0.0
H1757 H 0.3756 0.18771 0.2957 0.0
H1758 H 0.38585 0.15734 0.27162 0.0
H1759 H 0.33743 0.19525 0.28854 0.0
H1760 H 0.36956 0.17026 0.37248 0.0
H1761 H 0.37082 0.1392 0.40742 0.0
H1762 H 0.29217 0.11339 0.43268 0.0
H1763 H 0.29031 0.14404 0.39756 0.0
C1764 C 0.33764 0.28295 0.37376 0.0
C1765 C 0.31513 0.27823 0.38897 0.0
C1766 C 0.33999 0.26248 0.36208 0.0
C1767 C 0.31994 0.23669 0.36533 0.0
C1768 C 0.29744 0.23182 0.38066 0.0
C1769 C 0.29497 0.25241 0.39219 0.0
C1770 C 0.32279 0.21512 0.35253 0.0
C1771 C 0.32252 0.19617 0.37122 0.0
C1772 C 0.328 0.21451 0.32229 0.0
C1773 C 0.32731 0.23312 0.30107 0.0
C1774 C 0.30533 0.23604 0.29901 0.0
C1775 C 0.30488 0.25374 0.27915 0.0
C1776 C 0.32623 0.26851 0.26106 0.0
C1777 C 0.34806 0.26557 0.26274 0.0
C1778 C 0.34863 0.24793 0.28261 0.0
C1779 C 0.33179 0.1138 0.30887 0.0
C1780 C 0.35338 0.12279 0.29011 0.0
C1781 C 0.3256 0.13131 0.32225 0.0
C1782 C 0.34118 0.15822 0.31768 0.0
C1783 C 0.36311 0.16713 0.29955 0.0
C1784 C 0.36905 0.14969 0.28586 0.0
C1785 C 0.33433 0.17722 0.33055 0.0
C1786 C 0.33371 0.1957 0.31179 0.0
C1787 C 0.32849 0.17743 0.36075 0.0
C1788 C 0.32971 0.15925 0.38215 0.0
C1789 C 0.35248 0.15784 0.38534 0.0
C1790 C 0.3533 0.14032 0.40519 0.0
C1791 C 0.33155 0.12427 0.42219 0.0
C1792 C 0.30898 0.12579 0.41945 0.0
C1793 C 0.30803 0.14325 0.39959 0.0
H1794 H 0.33222 0.11069 0.43751 0.0
H1795 H 0.32584 0.2822 0.24569 0.0
H1796 H 0.0704 0.34474 0.54525 0.0
H1797 H 0.11054 0.34984 0.52445 0.0
H1798 H 0.08731 0.27109 0.54846 0.0
H1799 H 0.04675 0.26573 0.56916 0.0
H1800 H 0.14048 0.30792 0.56237 0.0
H1801 H 0.08267 0.28217 0.48005 0.0
H1802 H 0.0511 0.28417 0.44666 0.0
H1803 H 0.10736 0.36227 0.42292 0.0
H1804 H 0.13916 0.36089 0.45653 0.0
H1805 H 0.24242 0.30813 0.47713 0.0
H1806 H 0.20145 0.29775 0.50096 0.0
H1807 H 0.20679 0.36721 0.4644 0.0
H1808 H 0.24692 0.37693 0.43958 0.0
H1809 H 0.16066 0.33081 0.45719 0.0
H1810 H 0.21775 0.35838 0.54097 0.0
H1811 H 0.24987 0.35756 0.57452 0.0
H1812 H 0.19626 0.2781 0.59609 0.0
H1813 H 0.16389 0.27835 0.56238 0.0
C1814 C 0.07373 0.32843 0.54606 0.0
C1815 C 0.05525 0.30477 0.55873 0.0
C1816 C 0.09674 0.33139 0.53414 0.0
C1817 C 0.10199 0.31084 0.53478 0.0
C1818 C 0.08373 0.28724 0.54773 0.0
C1819 C 0.06048 0.28415 0.55936 0.0
C1820 C 0.12637 0.31412 0.52138 0.0
C1821 C 0.14478 0.31256 0.53928 0.0
C1822 C 0.13225 0.32065 0.49139 0.0
C1823 C 0.11322 0.3215 0.47101 0.0
C1824 C 0.08825 0.29985 0.46789 0.0
C1825 C 0.07032 0.30086 0.44889 0.0
C1826 C 0.0772 0.32335 0.43273 0.0
C1827 C 0.10205 0.34487 0.43548 0.0
C1828 C 0.12004 0.34397 0.45448 0.0
C1829 C 0.23498 0.32133 0.47447 0.0
C1830 C 0.248 0.34337 0.4564 0.0
C1831 C 0.21153 0.31542 0.48821 0.0
C1832 C 0.20087 0.33176 0.48481 0.0
C1833 C 0.21432 0.35412 0.46736 0.0
C1834 C 0.23743 0.35976 0.45324 0.0
C1835 C 0.17533 0.32531 0.49826 0.0
C1836 C 0.15652 0.32616 0.4803 0.0
C1837 C 0.16926 0.31837 0.52825 0.0
C1838 C 0.18849 0.31831 0.54893 0.0
C1839 C 0.21286 0.34069 0.55275 0.0
C1840 C 0.2311 0.34033 0.5718 0.0
C1841 C 0.22513 0.31777 0.58736 0.0
C1842 C 0.20086 0.29555 0.58399 0.0
C1843 C 0.18254 0.29579 0.56494 0.0
H1844 H 0.23929 0.31755 0.60208 0.0
H1845 H 0.06329 0.32409 0.41803 0.0
H1846 H 0.92571 0.25267 0.68679 0.0
H1847 H 0.89157 0.20993 0.70296 0.0
H1848 H 0.88781 0.17943 0.61613 0.0
H1849 H 0.9224 0.22221 0.59977 0.0
H1850 H 0.83779 0.16476 0.643 0.0
H1851 H 0.91734 0.16522 0.66511 0.0
H1852 H 0.96093 0.18356 0.68685 0.0
H1853 H 0.92933 0.17975 0.77266 0.0
H1854 H 0.88558 0.16175 0.75136 0.0
H1855 H 0.75549 0.03308 0.6817 0.0
H1856 H 0.79126 0.07355 0.66201 0.0
H1857 H 0.81518 0.1018 0.75037 0.0
H1858 H 0.78031 0.06058 0.76983 0.0
H1859 H 0.85596 0.11764 0.72088 0.0
H1860 H 0.77835 0.12044 0.70218 0.0
H1861 H 0.73424 0.10516 0.68326 0.0
H1862 H 0.7607 0.10629 0.59526 0.0
H1863 H 0.80492 0.12125 0.61371 0.0
C1864 C 0.91757 0.23695 0.671 0.0
C1865 C 0.92686 0.24093 0.64194 0.0
C1866 C 0.89809 0.21247 0.68036 0.0
C1867 C 0.8872 0.19139 0.66084 0.0
C1868 C 0.89594 0.19538 0.6316 0.0
C1869 C 0.91576 0.21984 0.62231 0.0
C1870 C 0.86696 0.1652 0.67121 0.0
C1871 C 0.84181 0.15421 0.65969 0.0
C1872 C 0.87197 0.15186 0.69372 0.0
C1873 C 0.89821 0.16234 0.7066 0.0
C1874 C 0.91971 0.16847 0.68858 0.0
C1875 C 0.94444 0.17878 0.70084 0.0
C1876 C 0.9479 0.18287 0.73111 0.0
C1877 C 0.92662 0.17659 0.74921 0.0
C1878 C 0.90185 0.16631 0.73706 0.0
C1879 C 0.76867 0.04788 0.69679 0.0
C1880 C 0.76537 0.04379 0.7272 0.0
C1881 C 0.78896 0.07116 0.68559 0.0
C1882 C 0.80579 0.09127 0.70458 0.0
C1883 C 0.80263 0.08681 0.7351 0.0
C1884 C 0.7827 0.06326 0.74627 0.0
C1885 C 0.82643 0.11695 0.69281 0.0
C1886 C 0.85176 0.12797 0.70409 0.0
C1887 C 0.82142 0.13062 0.67054 0.0
C1888 C 0.79488 0.12169 0.65936 0.0
C1889 C 0.77472 0.11725 0.67881 0.0
C1890 C 0.74971 0.10867 0.66817 0.0
C1891 C 0.74466 0.10468 0.63809 0.0
C1892 C 0.76463 0.10934 0.61856 0.0
C1893 C 0.78968 0.11788 0.6291 0.0
H1894 H 0.72528 0.09804 0.62989 0.0
H1895 H 0.96707 0.19087 0.74055 0.0
loop_
_geom_bond_atom_site_label_1
_geom_bond_atom_site_label_2
_geom_bond_distance
_geom_bond_site_symmetry_2
_ccdc_geom_bond_type
Co0 N4 2.148 . S
Co0 N10 2.128 . S
Co0 N20 2.194 . S
Co0 O25 2.351 . S
Co0 O26 2.155 . S
Co0 O27 2.096 . S
C1 N4 1.301 1_556 S
C1 N5 1.328 . S
C1 H6 0.930 1_556 S
C2 C3 1.333 . S
C2 N4 1.317 1_556 S
C2 H7 0.930 . S
C3 C2 1.333 . S
C3 N5 1.350 . S
C3 H29 0.931 . S
N4 Co0 2.148 . S
N4 C1 1.301 1_554 S
N4 C2 1.317 1_554 S
N5 C1 1.328 . S
N5 C3 1.350 . S
H6 C1 0.930 1_554 S
H7 C2 0.930 . S
C8 O9 1.224 . S
C8 O27 1.247 . S
O9 C8 1.224 . S
N10 Co0 2.128 . S
N10 C11 1.355 . S
N10 C13 1.311 . S
C11 N10 1.355 . S
C11 C12 1.363 . S
C11 H23 0.929 . S
C12 C11 1.363 . S
C12 N14 1.375 . S
C12 H30 0.931 . S
C13 N10 1.311 . S
C13 N14 1.347 . S
C13 H24 0.929 . S
N14 C12 1.375 . S
N14 C13 1.347 . S
C15 C18 1.365 . S
C15 N20 1.328 . S
C15 H21 0.929 . S
C16 C17 1.362 . S
C16 C19 1.378 . S
C16 H31 0.929 . S
C17 C16 1.362 . S
C17 C18 1.366 . S
C18 C15 1.365 . S
C18 C17 1.366 . S
C18 H32 0.930 . S
C19 C16 1.378 . S
C19 N20 1.315 . S
C19 H22 0.930 . S
N20 Co0 2.194 . S
N20 C15 1.328 . S
N20 C19 1.315 . S
H21 C15 0.929 . S
H22 C19 0.930 . S
H23 C11 0.929 . S
H24 C13 0.929 . S
O25 Co0 2.351 . S
O25 C28 1.244 . S
O26 Co0 2.155 . S
O26 C28 1.240 . S
O27 Co0 2.096 . S
O27 C8 1.247 . S
C28 O25 1.244 . S
C28 O26 1.240 . S
H29 C3 0.931 . S
H30 C12 0.931 . S
H31 C16 0.929 . S
H32 C18 0.930 . S
Co33 N37 2.148 . S
Co33 N43 2.128 . S
Co33 N53 2.194 . S
Co33 O58 2.351 . S
Co33 O59 2.155 . S
Co33 O60 2.096 . S
C34 N37 1.301 . S
C34 N38 1.328 . S
C34 H39 0.930 . S
C35 C36 1.333 . S
C35 N37 1.317 . S
C35 H40 0.930 . S
C36 C35 1.333 . S
C36 N38 1.350 . S
C36 H62 0.931 . S
N37 Co33 2.148 . S
N37 C34 1.301 . S
N37 C35 1.317 . S
N38 C34 1.328 . S
N38 C36 1.350 . S
H39 C34 0.930 . S
H40 C35 0.930 . S
C41 O42 1.224 . S
C41 O60 1.247 . S
O42 C41 1.224 . S
N43 Co33 2.128 . S
N43 C44 1.355 . S
N43 C46 1.311 . S
C44 N43 1.355 . S
C44 C45 1.363 . S
C44 H56 0.929 . S
C45 C44 1.363 . S
C45 N47 1.375 . S
C45 H63 0.931 . S
C46 N43 1.311 . S
C46 N47 1.347 . S
C46 H57 0.929 . S
N47 C45 1.375 . S
N47 C46 1.347 . S
C48 C51 1.365 . S
C48 N53 1.328 . S
C48 H54 0.929 . S
C49 C50 1.362 . S
C49 C52 1.378 . S
C49 H64 0.929 . S
C50 C49 1.362 . S
C50 C51 1.366 . S
C51 C48 1.365 . S
C51 C50 1.366 . S
C51 H65 0.930 . S
C52 C49 1.378 . S
C52 N53 1.315 . S
C52 H55 0.930 . S
N53 Co33 2.194 . S
N53 C48 1.328 . S
N53 C52 1.315 . S
H54 C48 0.929 . S
H55 C52 0.930 . S
H56 C44 0.929 . S
H57 C46 0.929 . S
O58 Co33 2.351 . S
O58 C61 1.244 . S
O59 Co33 2.155 . S
O59 C61 1.240 . S
O60 Co33 2.096 . S
O60 C41 1.247 . S
C61 O58 1.244 . S
C61 O59 1.240 . S
H62 C36 0.931 . S
H63 C45 0.931 . S
H64 C49 0.929 . S
H65 C51 0.930 . S
Co66 N70 2.148 . S
Co66 N76 2.128 . S
Co66 N86 2.194 . S
Co66 O91 2.351 . S
Co66 O92 2.155 . S
Co66 O93 2.096 . S
C67 N70 1.301 . S
C67 N71 1.328 . S
C67 H72 0.930 . S
C68 C69 1.333 . S
C68 N70 1.317 . S
C68 H73 0.930 . S
C69 C68 1.333 . S
C69 N71 1.350 . S
C69 H95 0.931 . S
N70 Co66 2.148 . S
N70 C67 1.301 . S
N70 C68 1.317 . S
N71 C67 1.328 . S
N71 C69 1.350 . S
H72 C67 0.930 . S
H73 C68 0.930 . S
C74 O75 1.224 . S
C74 O93 1.247 . S
O75 C74 1.224 . S
N76 Co66 2.128 . S
N76 C77 1.355 . S
N76 C79 1.311 . S
C77 N76 1.355 . S
C77 C78 1.363 . S
C77 H89 0.929 . S
C78 C77 1.363 . S
C78 N80 1.375 . S
C78 H96 0.931 . S
C79 N76 1.311 . S
C79 N80 1.347 . S
C79 H90 0.929 . S
N80 C78 1.375 . S
N80 C79 1.347 . S
C81 C84 1.365 . S
C81 N86 1.328 . S
C81 H87 0.929 . S
C82 C83 1.362 . S
C82 C85 1.378 . S
C82 H97 0.929 . S
C83 C82 1.362 . S
C83 C84 1.366 . S
C84 C81 1.365 . S
C84 C83 1.366 . S
C84 H98 0.930 . S
C85 C82 1.378 . S
C85 N86 1.315 . S
C85 H88 0.930 . S
N86 Co66 2.194 . S
N86 C81 1.328 . S
N86 C85 1.315 . S
H87 C81 0.929 . S
H88 C85 0.930 . S
H89 C77 0.929 . S
H90 C79 0.929 . S
O91 Co66 2.351 . S
O91 C94 1.244 . S
O92 Co66 2.155 . S
O92 C94 1.240 . S
O93 Co66 2.096 . S
O93 C74 1.247 . S
C94 O91 1.244 . S
C94 O92 1.240 . S
H95 C69 0.931 . S
H96 C78 0.931 . S
H97 C82 0.929 . S
H98 C84 0.930 . S
Co99 N103 2.148 . S
Co99 N109 2.128 . S
Co99 N119 2.194 . S
Co99 O124 2.351 . S
Co99 O125 2.155 . S
Co99 O126 2.096 . S
C100 N103 1.301 . S
C100 N104 1.328 . S
C100 H105 0.930 . S
C101 C102 1.333 . S
C101 N103 1.317 . S
C101 H106 0.930 . S
C102 C101 1.333 . S
C102 N104 1.350 . S
C102 H128 0.931 . S
N103 Co99 2.148 . S
N103 C100 1.301 . S
N103 C101 1.317 . S
N104 C100 1.328 . S
N104 C102 1.350 . S
H105 C100 0.930 . S
H106 C101 0.930 . S
C107 O108 1.224 . S
C107 O126 1.247 . S
O108 C107 1.224 . S
N109 Co99 2.128 . S
N109 C110 1.355 . S
N109 C112 1.311 . S
C110 N109 1.355 . S
C110 C111 1.363 . S
C110 H122 0.929 . S
C111 C110 1.363 . S
C111 N113 1.375 . S
C111 H129 0.931 . S
C112 N109 1.311 . S
C112 N113 1.347 . S
C112 H123 0.929 . S
N113 C111 1.375 . S
N113 C112 1.347 . S
C114 C117 1.365 . S
C114 N119 1.328 . S
C114 H120 0.929 . S
C115 C116 1.362 . S
C115 C118 1.378 . S
C115 H130 0.929 . S
C116 C115 1.362 . S
C116 C117 1.366 . S
C117 C114 1.365 . S
C117 C116 1.366 . S
C117 H131 0.930 . S
C118 C115 1.378 . S
C118 N119 1.315 . S
C118 H121 0.930 . S
N119 Co99 2.194 . S
N119 C114 1.328 . S
N119 C118 1.315 . S
H120 C114 0.929 . S
H121 C118 0.930 . S
H122 C110 0.929 . S
H123 C112 0.929 . S
O124 Co99 2.351 . S
O124 C127 1.244 . S
O125 Co99 2.155 . S
O125 C127 1.240 . S
O126 Co99 2.096 . S
O126 C107 1.247 . S
C127 O124 1.244 . S
C127 O125 1.240 . S
H128 C102 0.931 . S
H129 C111 0.931 . S
H130 C115 0.929 . S
H131 C117 0.930 . S
Co132 N136 2.148 . S
Co132 N142 2.128 . S
Co132 N152 2.194 . S
Co132 O157 2.351 . S
Co132 O158 2.155 . S
Co132 O159 2.096 . S
C133 N136 1.301 . S
C133 N137 1.328 . S
C133 H138 0.930 . S
C134 C135 1.333 . S
C134 N136 1.317 . S
C134 H139 0.930 . S
C135 C134 1.333 . S
C135 N137 1.350 . S
C135 H161 0.931 . S
N136 Co132 2.148 . S
N136 C133 1.301 . S
N136 C134 1.317 . S
N137 C133 1.328 . S
N137 C135 1.350 . S
H138 C133 0.930 . S
H139 C134 0.930 . S
C140 O141 1.224 . S
C140 O159 1.247 . S
O141 C140 1.224 . S
N142 Co132 2.128 . S
N142 C143 1.355 . S
N142 C145 1.311 . S
C143 N142 1.355 . S
C143 C144 1.363 . S
C143 H155 0.929 . S
C144 C143 1.363 . S
C144 N146 1.375 . S
C144 H162 0.931 . S
C145 N142 1.311 . S
C145 N146 1.347 . S
C145 H156 0.929 . S
N146 C144 1.375 . S
N146 C145 1.347 . S
C147 C150 1.365 . S
C147 N152 1.328 . S
C147 H153 0.929 . S
C148 C149 1.362 . S
C148 C151 1.378 . S
C148 H163 0.929 . S
C149 C148 1.362 . S
C149 C150 1.366 . S
C150 C147 1.365 . S
C150 C149 1.366 . S
C150 H164 0.930 . S
C151 C148 1.378 . S
C151 N152 1.315 . S
C151 H154 0.930 . S
N152 Co132 2.194 . S
N152 C147 1.328 . S
N152 C151 1.315 . S
H153 C147 0.929 . S
H154 C151 0.930 . S
H155 C143 0.929 . S
H156 C145 0.929 . S
O157 Co132 2.351 . S
O157 C160 1.244 . S
O158 Co132 2.155 . S
O158 C160 1.240 . S
O159 Co132 2.096 . S
O159 C140 1.247 . S
C160 O157 1.244 . S
C160 O158 1.240 . S
H161 C135 0.931 . S
H162 C144 0.931 . S
H163 C148 0.929 . S
H164 C150 0.930 . S
Co165 N169 2.148 . S
Co165 N175 2.128 . S
Co165 N185 2.194 . S
Co165 O190 2.351 . S
Co165 O191 2.155 . S
Co165 O192 2.096 . S
C166 N169 1.301 . S
C166 N170 1.328 . S
C166 H171 0.930 . S
C167 C168 1.333 . S
C167 N169 1.317 . S
C167 H172 0.930 . S
C168 C167 1.333 . S
C168 N170 1.350 . S
C168 H194 0.931 . S
N169 Co165 2.148 . S
N169 C166 1.301 . S
N169 C167 1.317 . S
N170 C166 1.328 . S
N170 C168 1.350 . S
H171 C166 0.930 . S
H172 C167 0.930 . S
C173 O174 1.224 . S
C173 O192 1.247 . S
O174 C173 1.224 . S
N175 Co165 2.128 . S
N175 C176 1.355 . S
N175 C178 1.311 . S
C176 N175 1.355 . S
C176 C177 1.363 . S
C176 H188 0.929 . S
C177 C176 1.363 . S
C177 N179 1.375 . S
C177 H195 0.931 . S
C178 N175 1.311 . S
C178 N179 1.347 . S
C178 H189 0.929 . S
N179 C177 1.375 . S
N179 C178 1.347 . S
C180 C183 1.365 . S
C180 N185 1.328 . S
C180 H186 0.929 . S
C181 C182 1.362 . S
C181 C184 1.378 . S
C181 H196 0.929 . S
C182 C181 1.362 . S
C182 C183 1.366 . S
C183 C180 1.365 . S
C183 C182 1.366 . S
C183 H197 0.930 . S
C184 C181 1.378 . S
C184 N185 1.315 . S
C184 H187 0.930 . S
N185 Co165 2.194 . S
N185 C180 1.328 . S
N185 C184 1.315 . S
H186 C180 0.929 . S
H187 C184 0.930 . S
H188 C176 0.929 . S
H189 C178 0.929 . S
O190 Co165 2.351 . S
O190 C193 1.244 . S
O191 Co165 2.155 . S
O191 C193 1.240 . S
O192 Co165 2.096 . S
O192 C173 1.247 . S
C193 O190 1.244 . S
C193 O191 1.240 . S
H194 C168 0.931 . S
H195 C177 0.931 . S
H196 C181 0.929 . S
H197 C183 0.930 . S
Co198 N202 2.148 . S
Co198 N208 2.128 . S
Co198 N218 2.194 . S
Co198 O223 2.351 . S
Co198 O224 2.155 . S
Co198 O225 2.096 . S
C199 N202 1.301 . S
C199 N203 1.328 . S
C199 H204 0.930 . S
C200 C201 1.333 . S
C200 N202 1.317 . S
C200 H205 0.930 . S
C201 C200 1.333 . S
C201 N203 1.350 . S
C201 H227 0.931 . S
N202 Co198 2.148 . S
N202 C199 1.301 . S
N202 C200 1.317 . S
N203 C199 1.328 . S
N203 C201 1.350 . S
H204 C199 0.930 . S
H205 C200 0.930 . S
C206 O207 1.224 . S
C206 O225 1.247 . S
O207 C206 1.224 . S
N208 Co198 2.128 . S
N208 C209 1.355 . S
N208 C211 1.311 . S
C209 N208 1.355 . S
C209 C210 1.363 . S
C209 H221 0.929 . S
C210 C209 1.363 . S
C210 N212 1.375 . S
C210 H228 0.931 . S
C211 N208 1.311 . S
C211 N212 1.347 . S
C211 H222 0.929 . S
N212 C210 1.375 . S
N212 C211 1.347 . S
C213 C216 1.365 . S
C213 N218 1.328 . S
C213 H219 0.929 . S
C214 C215 1.362 . S
C214 C217 1.378 . S
C214 H229 0.929 . S
C215 C214 1.362 . S
C215 C216 1.366 . S
C216 C213 1.365 . S
C216 C215 1.366 . S
C216 H230 0.930 . S
C217 C214 1.378 . S
C217 N218 1.315 . S
C217 H220 0.930 . S
N218 Co198 2.194 . S
N218 C213 1.328 . S
N218 C217 1.315 . S
H219 C213 0.929 . S
H220 C217 0.930 . S
H221 C209 0.929 . S
H222 C211 0.929 . S
O223 Co198 2.351 . S
O223 C226 1.244 . S
O224 Co198 2.155 . S
O224 C226 1.240 . S
O225 Co198 2.096 . S
O225 C206 1.247 . S
C226 O223 1.244 . S
C226 O224 1.240 . S
H227 C201 0.931 . S
H228 C210 0.931 . S
H229 C214 0.929 . S
H230 C216 0.930 . S
Co231 N235 2.148 . S
Co231 N241 2.128 . S
Co231 N251 2.194 . S
Co231 O256 2.351 . S
Co231 O257 2.155 . S
Co231 O258 2.096 . S
C232 N235 1.312 . S
C232 N236 1.300 1_556 S
C232 H237 0.946 . S
C233 C234 1.333 . S
C233 N235 1.317 1_554 S
C233 H238 0.930 . S
C234 C233 1.333 . S
C234 N236 1.350 . S
C234 H260 0.931 . S
N235 Co231 2.148 . S
N235 C232 1.312 . S
N235 C233 1.317 1_556 S
N236 C232 1.300 1_554 S
N236 C234 1.350 . S
H237 C232 0.946 . S
H238 C233 0.930 . S
C239 O240 1.224 . S
C239 O258 1.247 . S
O240 C239 1.224 . S
N241 Co231 2.128 . S
N241 C242 1.355 . S
N241 C244 1.311 . S
C242 N241 1.355 . S
C242 C243 1.363 . S
C242 H254 0.929 . S
C243 C242 1.363 . S
C243 N245 1.375 . S
C243 H261 0.931 . S
C244 N241 1.311 . S
C244 N245 1.347 . S
C244 H255 0.929 . S
N245 C243 1.375 . S
N245 C244 1.347 . S
C246 C249 1.365 . S
C246 N251 1.328 . S
C246 H252 0.929 . S
C247 C248 1.362 . S
C247 C250 1.378 . S
C247 H262 0.929 . S
C248 C247 1.362 . S
C248 C249 1.366 . S
C249 C246 1.365 . S
C249 C248 1.366 . S
C249 H263 0.930 . S
C250 C247 1.378 . S
C250 N251 1.315 . S
C250 H253 0.930 . S
N251 Co231 2.194 . S
N251 C246 1.328 . S
N251 C250 1.315 . S
H252 C246 0.929 . S
H253 C250 0.930 . S
H254 C242 0.929 . S
H255 C244 0.929 . S
O256 Co231 2.351 . S
O256 C259 1.244 . S
O257 Co231 2.155 . S
O257 C259 1.240 . S
O258 Co231 2.096 . S
O258 C239 1.247 . S
C259 O256 1.244 . S
C259 O257 1.240 . S
H260 C234 0.931 . S
H261 C243 0.931 . S
H262 C247 0.929 . S
H263 C249 0.930 . S
Co264 N268 2.148 . S
Co264 N274 2.128 . S
Co264 N284 2.194 . S
Co264 O289 2.351 . S
Co264 O290 2.155 . S
Co264 O291 2.096 . S
C265 N268 1.301 . S
C265 N269 1.328 . S
C265 H270 0.930 . S
C266 C267 1.333 . S
C266 N268 1.317 . S
C266 H271 0.930 . S
C267 C266 1.333 . S
C267 N269 1.350 . S
C267 H293 0.931 . S
N268 Co264 2.148 . S
N268 C265 1.301 . S
N268 C266 1.317 . S
N269 C265 1.328 . S
N269 C267 1.350 . S
H270 C265 0.930 . S
H271 C266 0.930 . S
C272 O273 1.224 . S
C272 O291 1.247 . S
O273 C272 1.224 . S
N274 Co264 2.128 . S
N274 C275 1.355 . S
N274 C277 1.311 . S
C275 N274 1.355 . S
C275 C276 1.363 . S
C275 H287 0.929 . S
C276 C275 1.363 . S
C276 N278 1.375 . S
C276 H294 0.931 . S
C277 N274 1.311 . S
C277 N278 1.347 . S
C277 H288 0.929 . S
N278 C276 1.375 . S
N278 C277 1.347 . S
C279 C282 1.365 . S
C279 N284 1.328 . S
C279 H285 0.929 . S
C280 C281 1.362 . S
C280 C283 1.378 . S
C280 H295 0.929 . S
C281 C280 1.362 . S
C281 C282 1.366 . S
C282 C279 1.365 . S
C282 C281 1.366 . S
C282 H296 0.930 . S
C283 C280 1.378 . S
C283 N284 1.315 . S
C283 H286 0.930 . S
N284 Co264 2.194 . S
N284 C279 1.328 . S
N284 C283 1.315 . S
H285 C279 0.929 . S
H286 C283 0.930 . S
H287 C275 0.929 . S
H288 C277 0.929 . S
O289 Co264 2.351 . S
O289 C292 1.244 . S
O290 Co264 2.155 . S
O290 C292 1.240 . S
O291 Co264 2.096 . S
O291 C272 1.247 . S
C292 O289 1.244 . S
C292 O290 1.240 . S
H293 C267 0.931 . S
H294 C276 0.931 . S
H295 C280 0.929 . S
H296 C282 0.930 . S
Co297 N301 2.148 . S
Co297 N307 2.128 . S
Co297 N317 2.194 . S
Co297 O322 2.351 . S
Co297 O323 2.155 . S
Co297 O324 2.096 . S
C298 N301 1.301 . S
C298 N302 1.328 . S
C298 H303 0.930 . S
C299 C300 1.333 . S
C299 N301 1.317 . S
C299 H304 0.930 . S
C300 C299 1.333 . S
C300 N302 1.350 . S
C300 H326 0.931 . S
N301 Co297 2.148 . S
N301 C298 1.301 . S
N301 C299 1.317 . S
N302 C298 1.328 . S
N302 C300 1.350 . S
H303 C298 0.930 . S
H304 C299 0.930 . S
C305 O306 1.224 . S
C305 O324 1.247 . S
O306 C305 1.224 . S
N307 Co297 2.128 . S
N307 C308 1.355 . S
N307 C310 1.311 . S
C308 N307 1.355 . S
C308 C309 1.363 . S
C308 H320 0.929 . S
C309 C308 1.363 . S
C309 N311 1.375 . S
C309 H327 0.931 . S
C310 N307 1.311 . S
C310 N311 1.347 . S
C310 H321 0.929 . S
N311 C309 1.375 . S
N311 C310 1.347 . S
C312 C315 1.365 . S
C312 N317 1.328 . S
C312 H318 0.929 . S
C313 C314 1.362 . S
C313 C316 1.378 . S
C313 H328 0.929 . S
C314 C313 1.362 . S
C314 C315 1.366 . S
C315 C312 1.365 . S
C315 C314 1.366 . S
C315 H329 0.930 . S
C316 C313 1.378 . S
C316 N317 1.315 . S
C316 H319 0.930 . S
N317 Co297 2.194 . S
N317 C312 1.328 . S
N317 C316 1.315 . S
H318 C312 0.929 . S
H319 C316 0.930 . S
H320 C308 0.929 . S
H321 C310 0.929 . S
O322 Co297 2.351 . S
O322 C325 1.244 . S
O323 Co297 2.155 . S
O323 C325 1.240 . S
O324 Co297 2.096 . S
O324 C305 1.247 . S
C325 O322 1.244 . S
C325 O323 1.240 . S
H326 C300 0.931 . S
H327 C309 0.931 . S
H328 C313 0.929 . S
H329 C315 0.930 . S
Co330 N334 2.148 . S
Co330 N340 2.128 . S
Co330 N350 2.194 . S
Co330 O355 2.351 . S
Co330 O356 2.155 . S
Co330 O357 2.096 . S
C331 N334 1.301 . S
C331 N335 1.328 . S
C331 H336 0.930 . S
C332 C333 1.333 . S
C332 N334 1.317 . S
C332 H337 0.930 . S
C333 C332 1.333 . S
C333 N335 1.350 . S
C333 H359 0.931 . S
N334 Co330 2.148 . S
N334 C331 1.301 . S
N334 C332 1.317 . S
N335 C331 1.328 . S
N335 C333 1.350 . S
H336 C331 0.930 . S
H337 C332 0.930 . S
C338 O339 1.224 . S
C338 O357 1.247 . S
O339 C338 1.224 . S
N340 Co330 2.128 . S
N340 C341 1.355 . S
N340 C343 1.311 . S
C341 N340 1.355 . S
C341 C342 1.363 . S
C341 H353 0.929 . S
C342 C341 1.363 . S
C342 N344 1.375 . S
C342 H360 0.931 . S
C343 N340 1.311 . S
C343 N344 1.347 . S
C343 H354 0.929 . S
N344 C342 1.375 . S
N344 C343 1.347 . S
C345 C348 1.365 . S
C345 N350 1.328 . S
C345 H351 0.929 . S
C346 C347 1.362 . S
C346 C349 1.378 . S
C346 H361 0.929 . S
C347 C346 1.362 . S
C347 C348 1.366 . S
C348 C345 1.365 . S
C348 C347 1.366 . S
C348 H362 0.930 . S
C349 C346 1.378 . S
C349 N350 1.315 . S
C349 H352 0.930 . S
N350 Co330 2.194 . S
N350 C345 1.328 . S
N350 C349 1.315 . S
H351 C345 0.929 . S
H352 C349 0.930 . S
H353 C341 0.929 . S
H354 C343 0.929 . S
O355 Co330 2.351 . S
O355 C358 1.244 . S
O356 Co330 2.155 . S
O356 C358 1.240 . S
O357 Co330 2.096 . S
O357 C338 1.247 . S
C358 O355 1.244 . S
C358 O356 1.240 . S
H359 C333 0.931 . S
H360 C342 0.931 . S
H361 C346 0.929 . S
H362 C348 0.930 . S
Co363 N367 2.148 . S
Co363 N373 2.128 . S
Co363 N383 2.194 . S
Co363 O388 2.351 . S
Co363 O389 2.155 . S
Co363 O390 2.096 . S
C364 N367 1.301 . S
C364 N368 1.328 . S
C364 H369 0.930 . S
C365 C366 1.333 . S
C365 N367 1.317 . S
C365 H370 0.930 . S
C366 C365 1.333 . S
C366 N368 1.350 . S
C366 H392 0.931 . S
N367 Co363 2.148 . S
N367 C364 1.301 . S
N367 C365 1.317 . S
N368 C364 1.328 . S
N368 C366 1.350 . S
H369 C364 0.930 . S
H370 C365 0.930 . S
C371 O372 1.224 . S
C371 O390 1.247 . S
O372 C371 1.224 . S
N373 Co363 2.128 . S
N373 C374 1.355 . S
N373 C376 1.311 . S
C374 N373 1.355 . S
C374 C375 1.363 . S
C374 H386 0.929 . S
C375 C374 1.363 . S
C375 N377 1.375 . S
C375 H393 0.931 . S
C376 N373 1.311 . S
C376 N377 1.347 . S
C376 H387 0.929 . S
N377 C375 1.375 . S
N377 C376 1.347 . S
C378 C381 1.365 . S
C378 N383 1.328 . S
C378 H384 0.929 . S
C379 C380 1.362 . S
C379 C382 1.378 . S
C379 H394 0.929 . S
C380 C379 1.362 . S
C380 C381 1.366 . S
C381 C378 1.365 . S
C381 C380 1.366 . S
C381 H395 0.930 . S
C382 C379 1.378 . S
C382 N383 1.315 . S
C382 H385 0.930 . S
N383 Co363 2.194 . S
N383 C378 1.328 . S
N383 C382 1.315 . S
H384 C378 0.929 . S
H385 C382 0.930 . S
H386 C374 0.929 . S
H387 C376 0.929 . S
O388 Co363 2.351 . S
O388 C391 1.244 . S
O389 Co363 2.155 . S
O389 C391 1.240 . S
O390 Co363 2.096 . S
O390 C371 1.247 . S
C391 O388 1.244 . S
C391 O389 1.240 . S
H392 C366 0.931 . S
H393 C375 0.931 . S
H394 C379 0.929 . S
H395 C381 0.930 . S
H396 C414 0.951 . S
H397 C416 0.951 . S
H398 C418 0.950 . S
H399 C419 0.950 . S
H400 C421 0.950 . S
H401 C424 0.950 . S
H402 C425 0.950 . S
H403 C427 0.950 . S
H404 C428 0.950 . S
H405 C429 0.951 . S
H406 C431 0.951 . S
H407 C433 0.950 . S
H408 C434 0.950 . S
H409 C436 0.950 . S
H410 C439 0.950 . S
H411 C440 0.950 . S
H412 C442 0.950 . S
H413 C443 0.950 . S
C414 H396 0.951 . S
C414 C415 1.366 . S
C414 C416 1.388 . S
C415 C414 1.366 . S
C415 C419 1.385 . S
C416 H397 0.951 . S
C416 C414 1.388 . S
C416 C417 1.366 . S
C417 C416 1.366 . S
C417 C418 1.414 . S
C417 C420 1.499 . S
C418 H398 0.950 . S
C418 C417 1.414 . S
C418 C419 1.374 . S
C419 H399 0.950 . S
C419 C415 1.385 . S
C419 C418 1.374 . S
C420 C417 1.499 . S
C420 C421 1.373 . S
C420 C422 1.389 . S
C421 H400 0.950 . S
C421 C420 1.373 . S
C421 C437 1.377 . S
C422 C420 1.389 . S
C422 C423 1.524 . S
C422 C436 1.377 . S
C423 C422 1.524 . S
C423 C424 1.397 . S
C423 C428 1.363 . S
C424 H401 0.950 . S
C424 C423 1.397 . S
C424 C425 1.334 . S
C425 H402 0.950 . S
C425 C424 1.334 . S
C425 C426 1.287 . S
C426 C425 1.287 . S
C426 C427 1.524 . S
C426 H445 0.913 . S
C427 H403 0.950 . S
C427 C426 1.524 . S
C427 C428 1.415 . S
C428 H404 0.950 . S
C428 C423 1.363 . S
C428 C427 1.415 . S
C429 H405 0.951 . S
C429 C430 1.366 . S
C429 C431 1.388 . S
C430 C429 1.366 . S
C430 C434 1.385 . S
C431 H406 0.951 . S
C431 C429 1.388 . S
C431 C432 1.366 . S
C432 C431 1.366 . S
C432 C433 1.414 . S
C432 C435 1.499 . S
C433 H407 0.950 . S
C433 C432 1.414 . S
C433 C434 1.374 . S
C434 H408 0.950 . S
C434 C430 1.385 . S
C434 C433 1.374 . S
C435 C432 1.499 . S
C435 C436 1.373 . S
C435 C437 1.389 . S
C436 H409 0.950 . S
C436 C422 1.377 . S
C436 C435 1.373 . S
C437 C421 1.377 . S
C437 C435 1.389 . S
C437 C438 1.524 . S
C438 C437 1.524 . S
C438 C439 1.397 . S
C438 C443 1.363 . S
C439 H410 0.950 . S
C439 C438 1.397 . S
C439 C440 1.334 . S
C440 H411 0.950 . S
C440 C439 1.334 . S
C440 C441 1.287 . S
C441 C440 1.287 . S
C441 C442 1.524 . S
C441 H444 0.999 . S
C442 H412 0.950 . S
C442 C441 1.524 . S
C442 C443 1.415 . S
C443 H413 0.950 . S
C443 C438 1.363 . S
C443 C442 1.415 . S
H444 C441 0.999 . S
H445 C426 0.913 . S
H446 C464 0.951 . S
H447 C466 0.951 . S
H448 C468 0.950 . S
H449 C469 0.950 . S
H450 C471 0.950 . S
H451 C474 0.950 . S
H452 C475 0.950 . S
H453 C477 0.950 . S
H454 C478 0.950 . S
H455 C479 0.951 . S
H456 C481 0.951 . S
H457 C483 0.950 . S
H458 C484 0.950 . S
H459 C486 0.950 . S
H460 C489 0.950 . S
H461 C490 0.950 . S
H462 C492 0.950 . S
H463 C493 0.950 . S
C464 H446 0.951 . S
C464 C465 1.366 . S
C464 C466 1.388 . S
C465 C464 1.366 . S
C465 C469 1.385 . S
C466 H447 0.951 . S
C466 C464 1.388 . S
C466 C467 1.366 . S
C467 C466 1.366 . S
C467 C468 1.414 . S
C467 C470 1.499 . S
C468 H448 0.950 . S
C468 C467 1.414 . S
C468 C469 1.374 . S
C469 H449 0.950 . S
C469 C465 1.385 . S
C469 C468 1.374 . S
C470 C467 1.499 . S
C470 C471 1.373 . S
C470 C472 1.389 . S
C471 H450 0.950 . S
C471 C470 1.373 . S
C471 C487 1.377 . S
C472 C470 1.389 . S
C472 C473 1.524 . S
C472 C486 1.377 . S
C473 C472 1.524 . S
C473 C474 1.397 . S
C473 C478 1.363 . S
C474 H451 0.950 . S
C474 C473 1.397 . S
C474 C475 1.334 . S
C475 H452 0.950 . S
C475 C474 1.334 . S
C475 C476 1.287 . S
C476 C475 1.287 . S
C476 C477 1.524 . S
C476 H495 0.913 . S
C477 H453 0.950 . S
C477 C476 1.524 . S
C477 C478 1.415 . S
C478 H454 0.950 . S
C478 C473 1.363 . S
C478 C477 1.415 . S
C479 H455 0.951 . S
C479 C480 1.366 . S
C479 C481 1.388 . S
C480 C479 1.366 . S
C480 C484 1.385 . S
C481 H456 0.951 . S
C481 C479 1.388 . S
C481 C482 1.366 . S
C482 C481 1.366 . S
C482 C483 1.414 . S
C482 C485 1.499 . S
C483 H457 0.950 . S
C483 C482 1.414 . S
C483 C484 1.374 . S
C484 H458 0.950 . S
C484 C480 1.385 . S
C484 C483 1.374 . S
C485 C482 1.499 . S
C485 C486 1.373 . S
C485 C487 1.389 . S
C486 H459 0.950 . S
C486 C472 1.377 . S
C486 C485 1.373 . S
C487 C471 1.377 . S
C487 C485 1.389 . S
C487 C488 1.524 . S
C488 C487 1.524 . S
C488 C489 1.397 . S
C488 C493 1.363 . S
C489 H460 0.950 . S
C489 C488 1.397 . S
C489 C490 1.334 . S
C490 H461 0.950 . S
C490 C489 1.334 . S
C490 C491 1.287 . S
C491 C490 1.287 . S
C491 C492 1.524 . S
C491 H494 0.999 . S
C492 H462 0.950 . S
C492 C491 1.524 . S
C492 C493 1.415 . S
C493 H463 0.950 . S
C493 C488 1.363 . S
C493 C492 1.415 . S
H494 C491 0.999 . S
H495 C476 0.913 . S
H496 C514 0.951 . S
H497 C516 0.951 . S
H498 C518 0.950 . S
H499 C519 0.950 . S
H500 C521 0.950 . S
H501 C524 0.950 . S
H502 C525 0.950 . S
H503 C527 0.950 . S
H504 C528 0.950 . S
H505 C529 0.951 . S
H506 C531 0.951 . S
H507 C533 0.950 . S
H508 C534 0.950 . S
H509 C536 0.950 . S
H510 C539 0.950 . S
H511 C540 0.950 . S
H512 C542 0.950 . S
H513 C543 0.950 . S
C514 H496 0.951 . S
C514 C515 1.366 . S
C514 C516 1.388 . S
C515 C514 1.366 . S
C515 C519 1.385 . S
C516 H497 0.951 . S
C516 C514 1.388 . S
C516 C517 1.366 . S
C517 C516 1.366 . S
C517 C518 1.414 . S
C517 C520 1.499 . S
C518 H498 0.950 . S
C518 C517 1.414 . S
C518 C519 1.374 . S
C519 H499 0.950 . S
C519 C515 1.385 . S
C519 C518 1.374 . S
C520 C517 1.499 . S
C520 C521 1.373 . S
C520 C522 1.389 . S
C521 H500 0.950 . S
C521 C520 1.373 . S
C521 C537 1.377 . S
C522 C520 1.389 . S
C522 C523 1.524 . S
C522 C536 1.377 . S
C523 C522 1.524 . S
C523 C524 1.397 . S
C523 C528 1.363 . S
C524 H501 0.950 . S
C524 C523 1.397 . S
C524 C525 1.334 . S
C525 H502 0.950 . S
C525 C524 1.334 . S
C525 C526 1.287 . S
C526 C525 1.287 . S
C526 C527 1.524 . S
C526 H545 0.913 . S
C527 H503 0.950 . S
C527 C526 1.524 . S
C527 C528 1.415 . S
C528 H504 0.950 . S
C528 C523 1.363 . S
C528 C527 1.415 . S
C529 H505 0.951 . S
C529 C530 1.366 . S
C529 C531 1.388 . S
C530 C529 1.366 . S
C530 C534 1.385 . S
C531 H506 0.951 . S
C531 C529 1.388 . S
C531 C532 1.366 . S
C532 C531 1.366 . S
C532 C533 1.414 . S
C532 C535 1.499 . S
C533 H507 0.950 . S
C533 C532 1.414 . S
C533 C534 1.374 . S
C534 H508 0.950 . S
C534 C530 1.385 . S
C534 C533 1.374 . S
C535 C532 1.499 . S
C535 C536 1.373 . S
C535 C537 1.389 . S
C536 H509 0.950 . S
C536 C522 1.377 . S
C536 C535 1.373 . S
C537 C521 1.377 . S
C537 C535 1.389 . S
C537 C538 1.524 . S
C538 C537 1.524 . S
C538 C539 1.397 . S
C538 C543 1.363 . S
C539 H510 0.950 . S
C539 C538 1.397 . S
C539 C540 1.334 . S
C540 H511 0.950 . S
C540 C539 1.334 . S
C540 C541 1.287 . S
C541 C540 1.287 . S
C541 C542 1.524 . S
C541 H544 0.999 . S
C542 H512 0.950 . S
C542 C541 1.524 . S
C542 C543 1.415 . S
C543 H513 0.950 . S
C543 C538 1.363 . S
C543 C542 1.415 . S
H544 C541 0.999 . S
H545 C526 0.913 . S
H546 C564 0.951 . S
H547 C566 0.951 . S
H548 C568 0.950 . S
H549 C569 0.950 . S
H550 C571 0.950 . S
H551 C574 0.950 . S
H552 C575 0.950 . S
H553 C577 0.950 . S
H554 C578 0.950 . S
H555 C579 0.951 . S
H556 C581 0.951 . S
H557 C583 0.950 . S
H558 C584 0.950 . S
H559 C586 0.950 . S
H560 C589 0.950 . S
H561 C590 0.950 . S
H562 C592 0.950 . S
H563 C593 0.950 . S
C564 H546 0.951 . S
C564 C565 1.366 . S
C564 C566 1.388 . S
C565 C564 1.366 . S
C565 C569 1.385 . S
C566 H547 0.951 . S
C566 C564 1.388 . S
C566 C567 1.366 . S
C567 C566 1.366 . S
C567 C568 1.414 . S
C567 C570 1.499 . S
C568 H548 0.950 . S
C568 C567 1.414 . S
C568 C569 1.374 . S
C569 H549 0.950 . S
C569 C565 1.385 . S
C569 C568 1.374 . S
C570 C567 1.499 . S
C570 C571 1.373 . S
C570 C572 1.389 . S
C571 H550 0.950 . S
C571 C570 1.373 . S
C571 C587 1.377 . S
C572 C570 1.389 . S
C572 C573 1.524 . S
C572 C586 1.377 . S
C573 C572 1.524 . S
C573 C574 1.397 . S
C573 C578 1.363 . S
C574 H551 0.950 . S
C574 C573 1.397 . S
C574 C575 1.334 . S
C575 H552 0.950 . S
C575 C574 1.334 . S
C575 C576 1.287 . S
C576 C575 1.287 . S
C576 C577 1.524 . S
C576 H595 0.913 . S
C577 H553 0.950 . S
C577 C576 1.524 . S
C577 C578 1.415 . S
C578 H554 0.950 . S
C578 C573 1.363 . S
C578 C577 1.415 . S
C579 H555 0.951 . S
C579 C580 1.366 . S
C579 C581 1.388 . S
C580 C579 1.366 . S
C580 C584 1.385 . S
C581 H556 0.951 . S
C581 C579 1.388 . S
C581 C582 1.366 . S
C582 C581 1.366 . S
C582 C583 1.414 . S
C582 C585 1.499 . S
C583 H557 0.950 . S
C583 C582 1.414 . S
C583 C584 1.374 . S
C584 H558 0.950 . S
C584 C580 1.385 . S
C584 C583 1.374 . S
C585 C582 1.499 . S
C585 C586 1.373 . S
C585 C587 1.389 . S
C586 H559 0.950 . S
C586 C572 1.377 . S
C586 C585 1.373 . S
C587 C571 1.377 . S
C587 C585 1.389 . S
C587 C588 1.524 . S
C588 C587 1.524 . S
C588 C589 1.397 . S
C588 C593 1.363 . S
C589 H560 0.950 . S
C589 C588 1.397 . S
C589 C590 1.334 . S
C590 H561 0.950 . S
C590 C589 1.334 . S
C590 C591 1.287 . S
C591 C590 1.287 . S
C591 C592 1.524 . S
C591 H594 0.999 . S
C592 H562 0.950 . S
C592 C591 1.524 . S
C592 C593 1.415 . S
C593 H563 0.950 . S
C593 C588 1.363 . S
C593 C592 1.415 . S
H594 C591 0.999 . S
H595 C576 0.913 . S
H596 C614 0.951 . S
H597 C616 0.951 . S
H598 C618 0.950 . S
H599 C619 0.950 . S
H600 C621 0.950 . S
H601 C624 0.950 . S
H602 C625 0.950 . S
H603 C627 0.950 . S
H604 C628 0.950 . S
H605 C629 0.951 . S
H606 C631 0.951 . S
H607 C633 0.950 . S
H608 C634 0.950 1_554 S
H609 C636 0.950 . S
H610 C639 0.950 . S
H611 C640 0.950 . S
H612 C642 0.950 . S
H613 C643 0.950 . S
C614 H596 0.951 . S
C614 C615 1.366 . S
C614 C616 1.388 . S
C615 C614 1.366 . S
C615 C619 1.385 . S
C616 H597 0.951 . S
C616 C614 1.388 . S
C616 C617 1.366 . S
C617 C616 1.366 . S
C617 C618 1.414 . S
C617 C620 1.499 . S
C618 H598 0.950 . S
C618 C617 1.414 . S
C618 C619 1.374 . S
C619 H599 0.950 . S
C619 C615 1.385 . S
C619 C618 1.374 . S
C620 C617 1.499 . S
C620 C621 1.373 . S
C620 C622 1.389 . S
C621 H600 0.950 . S
C621 C620 1.373 . S
C621 C637 1.377 . S
C622 C620 1.389 . S
C622 C623 1.524 . S
C622 C636 1.377 . S
C623 C622 1.524 . S
C623 C624 1.397 . S
C623 C628 1.363 . S
C624 H601 0.950 . S
C624 C623 1.397 . S
C624 C625 1.334 . S
C625 H602 0.950 . S
C625 C624 1.334 . S
C625 C626 1.287 . S
C626 C625 1.287 . S
C626 C627 1.524 . S
C626 H645 0.913 . S
C627 H603 0.950 . S
C627 C626 1.524 . S
C627 C628 1.415 . S
C628 H604 0.950 . S
C628 C623 1.363 . S
C628 C627 1.415 . S
C629 H605 0.951 . S
C629 C630 1.366 . S
C629 C631 1.388 1_554 S
C630 C629 1.366 . S
C630 C634 1.385 1_554 S
C631 H606 0.951 . S
C631 C629 1.388 1_556 S
C631 C632 1.366 . S
C632 C631 1.366 . S
C632 C633 1.414 . S
C632 C635 1.499 . S
C633 H607 0.950 . S
C633 C632 1.414 . S
C633 C634 1.374 . S
C634 H608 0.950 1_556 S
C634 C630 1.385 1_556 S
C634 C633 1.374 . S
C635 C632 1.499 . S
C635 C636 1.373 . S
C635 C637 1.389 . S
C636 H609 0.950 . S
C636 C622 1.377 . S
C636 C635 1.373 . S
C637 C621 1.377 . S
C637 C635 1.389 . S
C637 C638 1.524 . S
C638 C637 1.524 . S
C638 C639 1.397 . S
C638 C643 1.363 . S
C639 H610 0.950 . S
C639 C638 1.397 . S
C639 C640 1.334 . S
C640 H611 0.950 . S
C640 C639 1.334 . S
C640 C641 1.287 . S
C641 C640 1.287 . S
C641 C642 1.524 . S
C641 H644 0.999 . S
C642 H612 0.950 . S
C642 C641 1.524 . S
C642 C643 1.415 . S
C643 H613 0.950 . S
C643 C638 1.363 . S
C643 C642 1.415 . S
H644 C641 0.999 . S
H645 C626 0.913 . S
H646 C664 0.951 . S
H647 C666 0.951 . S
H648 C668 0.950 . S
H649 C669 0.950 . S
H650 C671 0.950 . S
H651 C674 0.950 . S
H652 C675 0.950 . S
H653 C677 0.950 . S
H654 C678 0.950 . S
H655 C679 0.951 . S
H656 C681 0.951 . S
H657 C683 0.950 . S
H658 C684 0.950 . S
H659 C686 0.950 . S
H660 C689 0.950 . S
H661 C690 0.950 . S
H662 C692 0.950 . S
H663 C693 0.950 . S
C664 H646 0.951 . S
C664 C665 1.366 . S
C664 C666 1.388 1_556 S
C665 C664 1.366 . S
C665 C669 1.385 1_556 S
C666 H647 0.951 . S
C666 C664 1.388 1_554 S
C666 C667 1.366 . S
C667 C666 1.366 . S
C667 C668 1.414 . S
C667 C670 1.499 . S
C668 H648 0.950 . S
C668 C667 1.414 . S
C668 C669 1.374 . S
C669 H649 0.950 . S
C669 C665 1.385 1_554 S
C669 C668 1.374 . S
C670 C667 1.499 . S
C670 C671 1.373 . S
C670 C672 1.389 . S
C671 H650 0.950 . S
C671 C670 1.373 . S
C671 C687 1.377 . S
C672 C670 1.389 . S
C672 C673 1.524 . S
C672 C686 1.377 . S
C673 C672 1.524 . S
C673 C674 1.397 . S
C673 C678 1.363 . S
C674 H651 0.950 . S
C674 C673 1.397 . S
C674 C675 1.334 1_554 S
C675 H652 0.950 . S
C675 C674 1.334 1_556 S
C675 C676 1.287 . S
C676 C675 1.287 . S
C676 C677 1.524 . S
C676 H695 0.913 . S
C677 H653 0.950 . S
C677 C676 1.524 . S
C677 C678 1.415 1_556 S
C678 H654 0.950 . S
C678 C673 1.363 . S
C678 C677 1.415 1_554 S
C679 H655 0.951 . S
C679 C680 1.366 . S
C679 C681 1.388 . S
C680 C679 1.366 . S
C680 C684 1.385 . S
C681 H656 0.951 . S
C681 C679 1.388 . S
C681 C682 1.366 . S
C682 C681 1.366 . S
C682 C683 1.414 . S
C682 C685 1.499 . S
C683 H657 0.950 . S
C683 C682 1.414 . S
C683 C684 1.374 . S
C684 H658 0.950 . S
C684 C680 1.385 . S
C684 C683 1.374 . S
C685 C682 1.499 . S
C685 C686 1.373 . S
C685 C687 1.389 . S
C686 H659 0.950 . S
C686 C672 1.377 . S
C686 C685 1.373 . S
C687 C671 1.377 . S
C687 C685 1.389 . S
C687 C688 1.524 . S
C688 C687 1.524 . S
C688 C689 1.397 . S
C688 C693 1.363 . S
C689 H660 0.950 . S
C689 C688 1.397 . S
C689 C690 1.334 . S
C690 H661 0.950 . S
C690 C689 1.334 . S
C690 C691 1.287 . S
C691 C690 1.287 . S
C691 C692 1.524 . S
C691 H694 0.999 . S
C692 H662 0.950 . S
C692 C691 1.524 . S
C692 C693 1.415 . S
C693 H663 0.950 . S
C693 C688 1.363 . S
C693 C692 1.415 . S
H694 C691 0.999 . S
H695 C676 0.913 . S
H696 C714 0.951 . S
H697 C716 0.951 . S
H698 C718 0.950 . S
H699 C719 0.950 . S
H700 C721 0.950 . S
H701 C724 0.950 . S
H702 C725 0.950 . S
H703 C727 0.950 . S
H704 C728 0.950 . S
H705 C729 0.951 . S
H706 C731 0.951 . S
H707 C733 0.950 . S
H708 C734 0.950 . S
H709 C736 0.950 . S
H710 C739 0.950 . S
H711 C740 0.950 . S
H712 C742 0.950 1_655 S
H713 C743 0.950 . S
C714 H696 0.951 . S
C714 C715 1.366 . S
C714 C716 1.388 . S
C715 C714 1.366 . S
C715 C719 1.385 . S
C716 H697 0.951 . S
C716 C714 1.388 . S
C716 C717 1.366 . S
C717 C716 1.366 . S
C717 C718 1.414 . S
C717 C720 1.499 . S
C718 H698 0.950 . S
C718 C717 1.414 . S
C718 C719 1.374 . S
C719 H699 0.950 . S
C719 C715 1.385 . S
C719 C718 1.374 . S
C720 C717 1.499 . S
C720 C721 1.373 . S
C720 C722 1.389 . S
C721 H700 0.950 . S
C721 C720 1.373 . S
C721 C737 1.377 . S
C722 C720 1.389 . S
C722 C723 1.524 . S
C722 C736 1.377 . S
C723 C722 1.524 . S
C723 C724 1.397 . S
C723 C728 1.363 . S
C724 H701 0.950 . S
C724 C723 1.397 . S
C724 C725 1.334 . S
C725 H702 0.950 . S
C725 C724 1.334 . S
C725 C726 1.287 . S
C726 C725 1.287 . S
C726 C727 1.524 . S
C726 H745 0.913 . S
C727 H703 0.950 . S
C727 C726 1.524 . S
C727 C728 1.415 . S
C728 H704 0.950 . S
C728 C723 1.363 . S
C728 C727 1.415 . S
C729 H705 0.951 . S
C729 C730 1.366 . S
C729 C731 1.388 . S
C730 C729 1.366 . S
C730 C734 1.385 . S
C731 H706 0.951 . S
C731 C729 1.388 . S
C731 C732 1.366 . S
C732 C731 1.366 . S
C732 C733 1.414 . S
C732 C735 1.499 . S
C733 H707 0.950 . S
C733 C732 1.414 . S
C733 C734 1.374 . S
C734 H708 0.950 . S
C734 C730 1.385 . S
C734 C733 1.374 . S
C735 C732 1.499 . S
C735 C736 1.373 . S
C735 C737 1.389 . S
C736 H709 0.950 . S
C736 C722 1.377 . S
C736 C735 1.373 . S
C737 C721 1.377 . S
C737 C735 1.389 . S
C737 C738 1.524 . S
C738 C737 1.524 . S
C738 C739 1.397 . S
C738 C743 1.363 . S
C739 H710 0.950 . S
C739 C738 1.397 . S
C739 C740 1.334 . S
C740 H711 0.950 . S
C740 C739 1.334 . S
C740 C741 1.287 . S
C741 C740 1.287 . S
C741 C742 1.524 . S
C741 H744 0.999 1_455 S
C742 H712 0.950 1_455 S
C742 C741 1.524 . S
C742 C743 1.415 . S
C743 H713 0.950 . S
C743 C738 1.363 . S
C743 C742 1.415 . S
H744 C741 0.999 1_655 S
H745 C726 0.913 . S
H746 C764 0.951 . S
H747 C766 0.951 . S
H748 C768 0.950 . S
H749 C769 0.950 . S
H750 C771 0.950 . S
H751 C774 0.950 . S
H752 C775 0.950 . S
H753 C777 0.950 . S
H754 C778 0.950 . S
H755 C779 0.951 . S
H756 C781 0.951 . S
H757 C783 0.950 . S
H758 C784 0.950 . S
H759 C786 0.950 . S
H760 C789 0.950 . S
H761 C790 0.950 . S
H762 C792 0.950 . S
H763 C793 0.950 . S
C764 H746 0.951 . S
C764 C765 1.366 . S
C764 C766 1.388 . S
C765 C764 1.366 . S
C765 C769 1.385 . S
C766 H747 0.951 . S
C766 C764 1.388 . S
C766 C767 1.366 . S
C767 C766 1.366 . S
C767 C768 1.414 . S
C767 C770 1.499 . S
C768 H748 0.950 . S
C768 C767 1.414 . S
C768 C769 1.374 . S
C769 H749 0.950 . S
C769 C765 1.385 . S
C769 C768 1.374 . S
C770 C767 1.499 . S
C770 C771 1.373 . S
C770 C772 1.389 . S
C771 H750 0.950 . S
C771 C770 1.373 . S
C771 C787 1.377 . S
C772 C770 1.389 . S
C772 C773 1.524 . S
C772 C786 1.377 . S
C773 C772 1.524 . S
C773 C774 1.397 . S
C773 C778 1.363 . S
C774 H751 0.950 . S
C774 C773 1.397 . S
C774 C775 1.334 . S
C775 H752 0.950 . S
C775 C774 1.334 . S
C775 C776 1.287 . S
C776 C775 1.287 . S
C776 C777 1.524 . S
C776 H795 0.913 . S
C777 H753 0.950 . S
C777 C776 1.524 . S
C777 C778 1.415 . S
C778 H754 0.950 . S
C778 C773 1.363 . S
C778 C777 1.415 . S
C779 H755 0.951 . S
C779 C780 1.366 . S
C779 C781 1.388 . S
C780 C779 1.366 . S
C780 C784 1.385 . S
C781 H756 0.951 . S
C781 C779 1.388 . S
C781 C782 1.366 . S
C782 C781 1.366 . S
C782 C783 1.414 . S
C782 C785 1.499 . S
C783 H757 0.950 . S
C783 C782 1.414 . S
C783 C784 1.374 . S
C784 H758 0.950 . S
C784 C780 1.385 . S
C784 C783 1.374 . S
C785 C782 1.499 . S
C785 C786 1.373 . S
C785 C787 1.389 . S
C786 H759 0.950 . S
C786 C772 1.377 . S
C786 C785 1.373 . S
C787 C771 1.377 . S
C787 C785 1.389 . S
C787 C788 1.524 . S
C788 C787 1.524 . S
C788 C789 1.397 . S
C788 C793 1.363 . S
C789 H760 0.950 . S
C789 C788 1.397 . S
C789 C790 1.334 . S
C790 H761 0.950 . S
C790 C789 1.334 . S
C790 C791 1.287 . S
C791 C790 1.287 . S
C791 C792 1.524 . S
C791 H794 0.999 . S
C792 H762 0.950 . S
C792 C791 1.524 . S
C792 C793 1.415 . S
C793 H763 0.950 . S
C793 C788 1.363 . S
C793 C792 1.415 . S
H794 C791 0.999 . S
H795 C776 0.913 . S
H796 C814 0.951 . S
H797 C816 0.951 . S
H798 C818 0.950 . S
H799 C819 0.950 . S
H800 C821 0.950 . S
H801 C824 0.950 . S
H802 C825 0.950 . S
H803 C827 0.950 . S
H804 C828 0.950 . S
H805 C829 0.951 . S
H806 C831 0.951 . S
H807 C833 0.950 . S
H808 C834 0.950 . S
H809 C836 0.950 . S
H810 C839 0.950 . S
H811 C840 0.950 . S
H812 C842 0.950 . S
H813 C843 0.950 . S
C814 H796 0.951 . S
C814 C815 1.366 . S
C814 C816 1.388 . S
C815 C814 1.366 . S
C815 C819 1.385 . S
C816 H797 0.951 . S
C816 C814 1.388 . S
C816 C817 1.366 . S
C817 C816 1.366 . S
C817 C818 1.414 . S
C817 C820 1.499 . S
C818 H798 0.950 . S
C818 C817 1.414 . S
C818 C819 1.374 . S
C819 H799 0.950 . S
C819 C815 1.385 . S
C819 C818 1.374 . S
C820 C817 1.499 . S
C820 C821 1.373 . S
C820 C822 1.389 . S
C821 H800 0.950 . S
C821 C820 1.373 . S
C821 C837 1.377 . S
C822 C820 1.389 . S
C822 C823 1.524 . S
C822 C836 1.377 . S
C823 C822 1.524 . S
C823 C824 1.397 . S
C823 C828 1.363 . S
C824 H801 0.950 . S
C824 C823 1.397 . S
C824 C825 1.334 . S
C825 H802 0.950 . S
C825 C824 1.334 . S
C825 C826 1.287 . S
C826 C825 1.287 . S
C826 C827 1.524 . S
C826 H845 0.913 . S
C827 H803 0.950 . S
C827 C826 1.524 . S
C827 C828 1.415 . S
C828 H804 0.950 . S
C828 C823 1.363 . S
C828 C827 1.415 . S
C829 H805 0.951 . S
C829 C830 1.366 . S
C829 C831 1.388 . S
C830 C829 1.366 . S
C830 C834 1.385 . S
C831 H806 0.951 . S
C831 C829 1.388 . S
C831 C832 1.366 . S
C832 C831 1.366 . S
C832 C833 1.414 . S
C832 C835 1.499 . S
C833 H807 0.950 . S
C833 C832 1.414 . S
C833 C834 1.374 . S
C834 H808 0.950 . S
C834 C830 1.385 . S
C834 C833 1.374 . S
C835 C832 1.499 . S
C835 C836 1.373 . S
C835 C837 1.389 . S
C836 H809 0.950 . S
C836 C822 1.377 . S
C836 C835 1.373 . S
C837 C821 1.377 . S
C837 C835 1.389 . S
C837 C838 1.524 . S
C838 C837 1.524 . S
C838 C839 1.397 . S
C838 C843 1.363 . S
C839 H810 0.950 . S
C839 C838 1.397 . S
C839 C840 1.334 . S
C840 H811 0.950 . S
C840 C839 1.334 . S
C840 C841 1.287 . S
C841 C840 1.287 . S
C841 C842 1.524 . S
C841 H844 0.999 . S
C842 H812 0.950 . S
C842 C841 1.524 . S
C842 C843 1.415 . S
C843 H813 0.950 . S
C843 C838 1.363 . S
C843 C842 1.415 . S
H844 C841 0.999 . S
H845 C826 0.913 . S
H846 C864 0.951 . S
H847 C866 0.951 . S
H848 C868 0.950 . S
H849 C869 0.950 . S
H850 C871 0.950 . S
H851 C874 0.950 . S
H852 C875 0.950 . S
H853 C877 0.950 . S
H854 C878 0.950 . S
H855 C879 0.951 . S
H856 C881 0.951 . S
H857 C883 0.950 . S
H858 C884 0.950 . S
H859 C886 0.950 . S
H860 C889 0.950 . S
H861 C890 0.950 . S
H862 C892 0.950 . S
H863 C893 0.950 . S
C864 H846 0.951 . S
C864 C865 1.366 . S
C864 C866 1.388 . S
C865 C864 1.366 . S
C865 C869 1.385 . S
C866 H847 0.951 . S
C866 C864 1.388 . S
C866 C867 1.366 . S
C867 C866 1.366 . S
C867 C868 1.414 . S
C867 C870 1.499 . S
C868 H848 0.950 . S
C868 C867 1.414 . S
C868 C869 1.374 . S
C869 H849 0.950 . S
C869 C865 1.385 . S
C869 C868 1.374 . S
C870 C867 1.499 . S
C870 C871 1.373 . S
C870 C872 1.389 . S
C871 H850 0.950 . S
C871 C870 1.373 . S
C871 C887 1.377 . S
C872 C870 1.389 . S
C872 C873 1.524 . S
C872 C886 1.377 . S
C873 C872 1.524 . S
C873 C874 1.397 . S
C873 C878 1.363 . S
C874 H851 0.950 . S
C874 C873 1.397 . S
C874 C875 1.334 . S
C875 H852 0.950 . S
C875 C874 1.334 . S
C875 C876 1.287 . S
C876 C875 1.287 . S
C876 C877 1.524 . S
C876 H895 0.913 . S
C877 H853 0.950 . S
C877 C876 1.524 . S
C877 C878 1.415 . S
C878 H854 0.950 . S
C878 C873 1.363 . S
C878 C877 1.415 . S
C879 H855 0.951 . S
C879 C880 1.366 . S
C879 C881 1.388 . S
C880 C879 1.366 . S
C880 C884 1.385 . S
C881 H856 0.951 . S
C881 C879 1.388 . S
C881 C882 1.366 . S
C882 C881 1.366 . S
C882 C883 1.414 . S
C882 C885 1.499 . S
C883 H857 0.950 . S
C883 C882 1.414 . S
C883 C884 1.374 . S
C884 H858 0.950 . S
C884 C880 1.385 . S
C884 C883 1.374 . S
C885 C882 1.499 . S
C885 C886 1.373 . S
C885 C887 1.389 . S
C886 H859 0.950 . S
C886 C872 1.377 . S
C886 C885 1.373 . S
C887 C871 1.377 . S
C887 C885 1.389 . S
C887 C888 1.524 . S
C888 C887 1.524 . S
C888 C889 1.397 . S
C888 C893 1.363 . S
C889 H860 0.950 . S
C889 C888 1.397 . S
C889 C890 1.334 . S
C890 H861 0.950 . S
C890 C889 1.334 . S
C890 C891 1.287 . S
C891 C890 1.287 . S
C891 C892 1.524 . S
C891 H894 0.999 . S
C892 H862 0.950 . S
C892 C891 1.524 . S
C892 C893 1.415 . S
C893 H863 0.950 . S
C893 C888 1.363 . S
C893 C892 1.415 . S
H894 C891 0.999 . S
H895 C876 0.913 . S
H896 C914 0.951 . S
H897 C916 0.951 . S
H898 C918 0.950 . S
H899 C919 0.950 . S
H900 C921 0.950 . S
H901 C924 0.950 . S
H902 C925 0.950 . S
H903 C927 0.950 . S
H904 C928 0.950 . S
H905 C929 0.951 . S
H906 C931 0.951 . S
H907 C933 0.950 . S
H908 C934 0.950 . S
H909 C936 0.950 . S
H910 C939 0.950 . S
H911 C940 0.950 . S
H912 C942 0.950 1_545 S
H913 C943 0.950 . S
C914 H896 0.951 . S
C914 C915 1.366 . S
C914 C916 1.388 . S
C915 C914 1.366 . S
C915 C919 1.385 . S
C916 H897 0.951 . S
C916 C914 1.388 . S
C916 C917 1.366 . S
C917 C916 1.366 . S
C917 C918 1.414 . S
C917 C920 1.499 . S
C918 H898 0.950 . S
C918 C917 1.414 . S
C918 C919 1.374 . S
C919 H899 0.950 . S
C919 C915 1.385 . S
C919 C918 1.374 . S
C920 C917 1.499 . S
C920 C921 1.373 . S
C920 C922 1.389 . S
C921 H900 0.950 . S
C921 C920 1.373 . S
C921 C937 1.377 . S
C922 C920 1.389 . S
C922 C923 1.524 . S
C922 C936 1.377 . S
C923 C922 1.524 . S
C923 C924 1.397 . S
C923 C928 1.363 . S
C924 H901 0.950 . S
C924 C923 1.397 . S
C924 C925 1.334 . S
C925 H902 0.950 . S
C925 C924 1.334 . S
C925 C926 1.287 . S
C926 C925 1.287 . S
C926 C927 1.524 . S
C926 H945 0.913 . S
C927 H903 0.950 . S
C927 C926 1.524 . S
C927 C928 1.415 . S
C928 H904 0.950 . S
C928 C923 1.363 . S
C928 C927 1.415 . S
C929 H905 0.951 . S
C929 C930 1.366 . S
C929 C931 1.388 . S
C930 C929 1.366 . S
C930 C934 1.385 . S
C931 H906 0.951 . S
C931 C929 1.388 . S
C931 C932 1.366 . S
C932 C931 1.366 . S
C932 C933 1.414 . S
C932 C935 1.499 . S
C933 H907 0.950 . S
C933 C932 1.414 . S
C933 C934 1.374 . S
C934 H908 0.950 . S
C934 C930 1.385 . S
C934 C933 1.374 . S
C935 C932 1.499 . S
C935 C936 1.373 . S
C935 C937 1.389 . S
C936 H909 0.950 . S
C936 C922 1.377 . S
C936 C935 1.373 . S
C937 C921 1.377 . S
C937 C935 1.389 . S
C937 C938 1.524 . S
C938 C937 1.524 . S
C938 C939 1.397 . S
C938 C943 1.363 . S
C939 H910 0.950 . S
C939 C938 1.397 . S
C939 C940 1.334 . S
C940 H911 0.950 . S
C940 C939 1.334 . S
C940 C941 1.287 . S
C941 C940 1.287 . S
C941 C942 1.524 . S
C941 H944 0.999 1_565 S
C942 H912 0.950 1_565 S
C942 C941 1.524 . S
C942 C943 1.415 . S
C943 H913 0.950 . S
C943 C938 1.363 . S
C943 C942 1.415 . S
H944 C941 0.999 1_545 S
H945 C926 0.913 . S
H946 C964 0.951 . S
H947 C966 0.951 . S
H948 C968 0.950 . S
H949 C969 0.950 . S
H950 C971 0.950 . S
H951 C974 0.950 . S
H952 C975 0.950 . S
H953 C977 0.950 . S
H954 C978 0.950 . S
H955 C979 0.951 . S
H956 C981 0.951 . S
H957 C983 0.950 . S
H958 C984 0.950 . S
H959 C986 0.950 . S
H960 C989 0.950 . S
H961 C990 0.950 . S
H962 C992 0.950 . S
H963 C993 0.950 . S
C964 H946 0.951 . S
C964 C965 1.366 . S
C964 C966 1.388 . S
C965 C964 1.366 . S
C965 C969 1.385 . S
C966 H947 0.951 . S
C966 C964 1.388 . S
C966 C967 1.366 . S
C967 C966 1.366 . S
C967 C968 1.414 . S
C967 C970 1.499 . S
C968 H948 0.950 . S
C968 C967 1.414 . S
C968 C969 1.374 . S
C969 H949 0.950 . S
C969 C965 1.385 . S
C969 C968 1.374 . S
C970 C967 1.499 . S
C970 C971 1.373 . S
C970 C972 1.389 . S
C971 H950 0.950 . S
C971 C970 1.373 . S
C971 C987 1.377 . S
C972 C970 1.389 . S
C972 C973 1.524 . S
C972 C986 1.377 . S
C973 C972 1.524 . S
C973 C974 1.397 . S
C973 C978 1.363 . S
C974 H951 0.950 . S
C974 C973 1.397 . S
C974 C975 1.334 . S
C975 H952 0.950 . S
C975 C974 1.334 . S
C975 C976 1.287 . S
C976 C975 1.287 . S
C976 C977 1.524 . S
C976 H995 0.913 . S
C977 H953 0.950 . S
C977 C976 1.524 . S
C977 C978 1.415 . S
C978 H954 0.950 . S
C978 C973 1.363 . S
C978 C977 1.415 . S
C979 H955 0.951 . S
C979 C980 1.366 . S
C979 C981 1.388 . S
C980 C979 1.366 . S
C980 C984 1.385 . S
C981 H956 0.951 . S
C981 C979 1.388 . S
C981 C982 1.366 . S
C982 C981 1.366 . S
C982 C983 1.414 . S
C982 C985 1.499 . S
C983 H957 0.950 . S
C983 C982 1.414 . S
C983 C984 1.374 . S
C984 H958 0.950 . S
C984 C980 1.385 . S
C984 C983 1.374 . S
C985 C982 1.499 . S
C985 C986 1.373 . S
C985 C987 1.389 . S
C986 H959 0.950 . S
C986 C972 1.377 . S
C986 C985 1.373 . S
C987 C971 1.377 . S
C987 C985 1.389 . S
C987 C988 1.524 . S
C988 C987 1.524 . S
C988 C989 1.397 . S
C988 C993 1.363 . S
C989 H960 0.950 . S
C989 C988 1.397 . S
C989 C990 1.334 . S
C990 H961 0.950 . S
C990 C989 1.334 . S
C990 C991 1.287 . S
C991 C990 1.287 . S
C991 C992 1.524 . S
C991 H994 0.999 . S
C992 H962 0.950 . S
C992 C991 1.524 . S
C992 C993 1.415 . S
C993 H963 0.950 . S
C993 C988 1.363 . S
C993 C992 1.415 . S
H994 C991 0.999 . S
H995 C976 0.913 . S
H996 C1014 0.951 . S
H997 C1016 0.951 . S
H998 C1018 0.950 1_455 S
H999 C1019 0.950 . S
H1000 C1021 0.950 . S
H1001 C1024 0.950 . S
H1002 C1025 0.950 . S
H1003 C1027 0.950 . S
H1004 C1028 0.950 . S
H1005 C1029 0.951 . S
H1006 C1031 0.951 . S
H1007 C1033 0.950 1_655 S
H1008 C1034 0.950 . S
H1009 C1036 0.950 . S
H1010 C1039 0.950 . S
H1011 C1040 0.950 . S
H1012 C1042 0.950 . S
H1013 C1043 0.950 . S
C1014 H996 0.951 . S
C1014 C1015 1.366 . S
C1014 C1016 1.388 . S
C1015 C1014 1.366 . S
C1015 C1019 1.385 . S
C1016 H997 0.951 . S
C1016 C1014 1.388 . S
C1016 C1017 1.366 . S
C1017 C1016 1.366 . S
C1017 C1018 1.414 . S
C1017 C1020 1.499 . S
C1018 H998 0.950 1_655 S
C1018 C1017 1.414 . S
C1018 C1019 1.374 . S
C1019 H999 0.950 . S
C1019 C1015 1.385 . S
C1019 C1018 1.374 . S
C1020 C1017 1.499 . S
C1020 C1021 1.373 . S
C1020 C1022 1.378 . S
C1021 H1000 0.950 . S
C1021 C1020 1.373 . S
C1021 C1037 1.369 1_655 S
C1022 C1020 1.378 . S
C1022 C1023 1.556 1_655 S
C1022 C1036 1.369 1_655 S
C1023 C1022 1.556 1_455 S
C1023 C1024 1.411 . S
C1023 C1028 1.340 1_455 S
C1024 H1001 0.950 . S
C1024 C1023 1.411 . S
C1024 C1025 1.334 . S
C1025 H1002 0.950 . S
C1025 C1024 1.334 . S
C1025 C1026 1.287 . S
C1026 C1025 1.287 . S
C1026 C1027 1.524 1_455 S
C1026 H1045 0.913 . S
C1027 H1003 0.950 . S
C1027 C1026 1.524 1_655 S
C1027 C1028 1.415 . S
C1028 H1004 0.950 . S
C1028 C1023 1.340 1_655 S
C1028 C1027 1.415 . S
C1029 H1005 0.951 . S
C1029 C1030 1.366 . S
C1029 C1031 1.388 . S
C1030 C1029 1.366 . S
C1030 C1034 1.385 . S
C1031 H1006 0.951 . S
C1031 C1029 1.388 . S
C1031 C1032 1.366 . S
C1032 C1031 1.366 . S
C1032 C1033 1.414 . S
C1032 C1035 1.499 . S
C1033 H1007 0.950 1_455 S
C1033 C1032 1.414 . S
C1033 C1034 1.374 . S
C1034 H1008 0.950 . S
C1034 C1030 1.385 . S
C1034 C1033 1.374 . S
C1035 C1032 1.499 . S
C1035 C1036 1.373 . S
C1035 C1037 1.378 . S
C1036 H1009 0.950 . S
C1036 C1022 1.369 1_455 S
C1036 C1035 1.373 . S
C1037 C1021 1.369 1_455 S
C1037 C1035 1.378 . S
C1037 C1038 1.556 1_455 S
C1038 C1037 1.556 1_655 S
C1038 C1039 1.411 . S
C1038 C1043 1.340 1_655 S
C1039 H1010 0.950 . S
C1039 C1038 1.411 . S
C1039 C1040 1.334 . S
C1040 H1011 0.950 . S
C1040 C1039 1.334 . S
C1040 C1041 1.287 . S
C1041 C1040 1.287 . S
C1041 C1042 1.524 1_655 S
C1041 H1044 0.999 . S
C1042 H1012 0.950 . S
C1042 C1041 1.524 1_455 S
C1042 C1043 1.415 . S
C1043 H1013 0.950 . S
C1043 C1038 1.340 1_455 S
C1043 C1042 1.415 . S
H1044 C1041 0.999 . S
H1045 C1026 0.913 . S
H1046 C1064 0.951 . S
H1047 C1066 0.951 . S
H1048 C1068 0.950 . S
H1049 C1069 0.950 . S
H1050 C1071 0.950 . S
H1051 C1074 0.950 . S
H1052 C1075 0.950 . S
H1053 C1077 0.950 . S
H1054 C1078 0.950 . S
H1055 C1079 0.951 . S
H1056 C1081 0.951 . S
H1057 C1083 0.950 . S
H1058 C1084 0.950 . S
H1059 C1086 0.950 . S
H1060 C1089 0.950 . S
H1061 C1090 0.950 . S
H1062 C1092 0.950 . S
H1063 C1093 0.950 . S
C1064 H1046 0.951 . S
C1064 C1065 1.366 . S
C1064 C1066 1.388 . S
C1065 C1064 1.366 . S
C1065 C1069 1.385 . S
C1066 H1047 0.951 . S
C1066 C1064 1.388 . S
C1066 C1067 1.366 . S
C1067 C1066 1.366 . S
C1067 C1068 1.414 . S
C1067 C1070 1.499 . S
C1068 H1048 0.950 . S
C1068 C1067 1.414 . S
C1068 C1069 1.374 . S
C1069 H1049 0.950 . S
C1069 C1065 1.385 . S
C1069 C1068 1.374 . S
C1070 C1067 1.499 . S
C1070 C1071 1.373 . S
C1070 C1072 1.389 1_565 S
C1071 H1050 0.950 . S
C1071 C1070 1.373 . S
C1071 C1087 1.377 1_556 S
C1072 C1070 1.389 1_545 S
C1072 C1073 1.524 . S
C1072 C1086 1.377 1_556 S
C1073 C1072 1.524 . S
C1073 C1074 1.397 . S
C1073 C1078 1.363 . S
C1074 H1051 0.950 . S
C1074 C1073 1.397 . S
C1074 C1075 1.334 . S
C1075 H1052 0.950 . S
C1075 C1074 1.334 . S
C1075 C1076 1.287 . S
C1076 C1075 1.287 . S
C1076 C1077 1.524 . S
C1076 H1095 0.913 . S
C1077 H1053 0.950 . S
C1077 C1076 1.524 . S
C1077 C1078 1.415 . S
C1078 H1054 0.950 . S
C1078 C1073 1.363 . S
C1078 C1077 1.415 . S
C1079 H1055 0.951 . S
C1079 C1080 1.366 . S
C1079 C1081 1.388 . S
C1080 C1079 1.366 . S
C1080 C1084 1.385 . S
C1081 H1056 0.951 . S
C1081 C1079 1.388 . S
C1081 C1082 1.366 . S
C1082 C1081 1.366 . S
C1082 C1083 1.414 . S
C1082 C1085 1.499 . S
C1083 H1057 0.950 . S
C1083 C1082 1.414 . S
C1083 C1084 1.374 . S
C1084 H1058 0.950 . S
C1084 C1080 1.385 . S
C1084 C1083 1.374 . S
C1085 C1082 1.499 . S
C1085 C1086 1.373 . S
C1085 C1087 1.389 1_545 S
C1086 H1059 0.950 . S
C1086 C1072 1.377 1_554 S
C1086 C1085 1.373 . S
C1087 C1071 1.377 1_554 S
C1087 C1085 1.389 1_565 S
C1087 C1088 1.524 . S
C1088 C1087 1.524 . S
C1088 C1089 1.397 . S
C1088 C1093 1.363 . S
C1089 H1060 0.950 . S
C1089 C1088 1.397 . S
C1089 C1090 1.334 . S
C1090 H1061 0.950 . S
C1090 C1089 1.334 . S
C1090 C1091 1.287 . S
C1091 C1090 1.287 . S
C1091 C1092 1.524 . S
C1091 H1094 0.999 . S
C1092 H1062 0.950 . S
C1092 C1091 1.524 . S
C1092 C1093 1.415 . S
C1093 H1063 0.950 . S
C1093 C1088 1.363 . S
C1093 C1092 1.415 . S
H1094 C1091 0.999 . S
H1095 C1076 0.913 . S
H1096 C1114 0.951 . S
H1097 C1116 0.951 . S
H1098 C1118 0.950 . S
H1099 C1119 0.950 . S
H1100 C1121 0.950 . S
H1101 C1124 0.950 . S
H1102 C1125 0.950 . S
H1103 C1127 0.950 . S
H1104 C1128 0.950 . S
H1105 C1129 0.951 . S
H1106 C1131 0.951 . S
H1107 C1133 0.950 . S
H1108 C1134 0.950 . S
H1109 C1136 0.950 . S
H1110 C1139 0.950 . S
H1111 C1140 0.950 . S
H1112 C1142 0.950 . S
H1113 C1143 0.950 . S
C1114 H1096 0.951 . S
C1114 C1115 1.366 . S
C1114 C1116 1.388 . S
C1115 C1114 1.366 . S
C1115 C1119 1.385 . S
C1116 H1097 0.951 . S
C1116 C1114 1.388 . S
C1116 C1117 1.366 . S
C1117 C1116 1.366 . S
C1117 C1118 1.414 . S
C1117 C1120 1.499 . S
C1118 H1098 0.950 . S
C1118 C1117 1.414 . S
C1118 C1119 1.374 . S
C1119 H1099 0.950 . S
C1119 C1115 1.385 . S
C1119 C1118 1.374 . S
C1120 C1117 1.499 . S
C1120 C1121 1.373 . S
C1120 C1122 1.389 . S
C1121 H1100 0.950 . S
C1121 C1120 1.373 . S
C1121 C1137 1.377 . S
C1122 C1120 1.389 . S
C1122 C1123 1.524 . S
C1122 C1136 1.377 . S
C1123 C1122 1.524 . S
C1123 C1124 1.397 . S
C1123 C1128 1.363 . S
C1124 H1101 0.950 . S
C1124 C1123 1.397 . S
C1124 C1125 1.334 . S
C1125 H1102 0.950 . S
C1125 C1124 1.334 . S
C1125 C1126 1.287 . S
C1126 C1125 1.287 . S
C1126 C1127 1.524 . S
C1126 H1145 0.913 . S
C1127 H1103 0.950 . S
C1127 C1126 1.524 . S
C1127 C1128 1.415 . S
C1128 H1104 0.950 . S
C1128 C1123 1.363 . S
C1128 C1127 1.415 . S
C1129 H1105 0.951 . S
C1129 C1130 1.366 . S
C1129 C1131 1.388 . S
C1130 C1129 1.366 . S
C1130 C1134 1.385 . S
C1131 H1106 0.951 . S
C1131 C1129 1.388 . S
C1131 C1132 1.366 . S
C1132 C1131 1.366 . S
C1132 C1133 1.414 . S
C1132 C1135 1.499 . S
C1133 H1107 0.950 . S
C1133 C1132 1.414 . S
C1133 C1134 1.374 . S
C1134 H1108 0.950 . S
C1134 C1130 1.385 . S
C1134 C1133 1.374 . S
C1135 C1132 1.499 . S
C1135 C1136 1.373 . S
C1135 C1137 1.389 . S
C1136 H1109 0.950 . S
C1136 C1122 1.377 . S
C1136 C1135 1.373 . S
C1137 C1121 1.377 . S
C1137 C1135 1.389 . S
C1137 C1138 1.524 . S
C1138 C1137 1.524 . S
C1138 C1139 1.397 . S
C1138 C1143 1.363 . S
C1139 H1110 0.950 . S
C1139 C1138 1.397 . S
C1139 C1140 1.334 . S
C1140 H1111 0.950 . S
C1140 C1139 1.334 . S
C1140 C1141 1.287 . S
C1141 C1140 1.287 . S
C1141 C1142 1.524 . S
C1141 H1144 0.999 . S
C1142 H1112 0.950 . S
C1142 C1141 1.524 . S
C1142 C1143 1.415 . S
C1143 H1113 0.950 . S
C1143 C1138 1.363 . S
C1143 C1142 1.415 . S
H1144 C1141 0.999 . S
H1145 C1126 0.913 . S
H1146 C1164 0.951 . S
H1147 C1166 0.951 . S
H1148 C1168 0.950 . S
H1149 C1169 0.950 . S
H1150 C1171 0.950 . S
H1151 C1174 0.950 . S
H1152 C1175 0.950 . S
H1153 C1177 0.950 . S
H1154 C1178 0.950 . S
H1155 C1179 0.951 . S
H1156 C1181 0.951 . S
H1157 C1183 0.950 . S
H1158 C1184 0.950 . S
H1159 C1186 0.950 . S
H1160 C1189 0.950 . S
H1161 C1190 0.950 . S
H1162 C1192 0.950 . S
H1163 C1193 0.950 . S
C1164 H1146 0.951 . S
C1164 C1165 1.366 . S
C1164 C1166 1.388 . S
C1165 C1164 1.366 . S
C1165 C1169 1.385 . S
C1166 H1147 0.951 . S
C1166 C1164 1.388 . S
C1166 C1167 1.366 . S
C1167 C1166 1.366 . S
C1167 C1168 1.414 . S
C1167 C1170 1.499 . S
C1168 H1148 0.950 . S
C1168 C1167 1.414 . S
C1168 C1169 1.374 . S
C1169 H1149 0.950 . S
C1169 C1165 1.385 . S
C1169 C1168 1.374 . S
C1170 C1167 1.499 . S
C1170 C1171 1.373 . S
C1170 C1172 1.389 1_655 S
C1171 H1150 0.950 . S
C1171 C1170 1.373 . S
C1171 C1187 1.377 . S
C1172 C1170 1.389 1_455 S
C1172 C1173 1.524 . S
C1172 C1186 1.377 . S
C1173 C1172 1.524 . S
C1173 C1174 1.397 . S
C1173 C1178 1.363 . S
C1174 H1151 0.950 . S
C1174 C1173 1.397 . S
C1174 C1175 1.334 . S
C1175 H1152 0.950 . S
C1175 C1174 1.334 . S
C1175 C1176 1.287 . S
C1176 C1175 1.287 . S
C1176 C1177 1.524 . S
C1176 H1195 0.913 . S
C1177 H1153 0.950 . S
C1177 C1176 1.524 . S
C1177 C1178 1.415 . S
C1178 H1154 0.950 . S
C1178 C1173 1.363 . S
C1178 C1177 1.415 . S
C1179 H1155 0.951 . S
C1179 C1180 1.366 . S
C1179 C1181 1.388 . S
C1180 C1179 1.366 . S
C1180 C1184 1.385 . S
C1181 H1156 0.951 . S
C1181 C1179 1.388 . S
C1181 C1182 1.366 . S
C1182 C1181 1.366 . S
C1182 C1183 1.414 . S
C1182 C1185 1.499 . S
C1183 H1157 0.950 . S
C1183 C1182 1.414 . S
C1183 C1184 1.374 . S
C1184 H1158 0.950 . S
C1184 C1180 1.385 . S
C1184 C1183 1.374 . S
C1185 C1182 1.499 . S
C1185 C1186 1.373 . S
C1185 C1187 1.389 1_455 S
C1186 H1159 0.950 . S
C1186 C1172 1.377 . S
C1186 C1185 1.373 . S
C1187 C1171 1.377 . S
C1187 C1185 1.389 1_655 S
C1187 C1188 1.524 . S
C1188 C1187 1.524 . S
C1188 C1189 1.397 . S
C1188 C1193 1.363 . S
C1189 H1160 0.950 . S
C1189 C1188 1.397 . S
C1189 C1190 1.334 . S
C1190 H1161 0.950 . S
C1190 C1189 1.334 . S
C1190 C1191 1.287 . S
C1191 C1190 1.287 . S
C1191 C1192 1.524 . S
C1191 H1194 0.999 . S
C1192 H1162 0.950 . S
C1192 C1191 1.524 . S
C1192 C1193 1.415 . S
C1193 H1163 0.950 . S
C1193 C1188 1.363 . S
C1193 C1192 1.415 . S
H1194 C1191 0.999 . S
H1195 C1176 0.913 . S
H1196 C1214 0.945 1_545 S
H1197 C1216 0.951 1_545 S
H1198 C1218 0.950 . S
H1199 C1219 0.950 . S
H1200 C1221 0.950 . S
H1201 C1224 0.950 . S
H1202 C1225 0.950 . S
H1203 C1227 0.950 . S
H1204 C1228 0.950 . S
H1205 C1229 0.945 1_565 S
H1206 C1231 0.951 1_565 S
H1207 C1233 0.950 . S
H1208 C1234 0.950 . S
H1209 C1236 0.950 . S
H1210 C1239 0.950 . S
H1211 C1240 0.950 . S
H1212 C1242 0.950 . S
H1213 C1243 0.950 . S
C1214 H1196 0.945 1_565 S
C1214 C1215 1.366 . S
C1214 C1216 1.388 . S
C1215 C1214 1.366 . S
C1215 C1219 1.385 . S
C1216 H1197 0.951 1_565 S
C1216 C1214 1.388 . S
C1216 C1217 1.366 . S
C1217 C1216 1.366 . S
C1217 C1218 1.414 . S
C1217 C1220 1.499 . S
C1218 H1198 0.950 . S
C1218 C1217 1.414 . S
C1218 C1219 1.374 . S
C1219 H1199 0.950 . S
C1219 C1215 1.385 . S
C1219 C1218 1.374 . S
C1220 C1217 1.499 . S
C1220 C1221 1.373 . S
C1220 C1222 1.389 1_565 S
C1221 H1200 0.950 . S
C1221 C1220 1.373 . S
C1221 C1237 1.377 . S
C1222 C1220 1.389 1_545 S
C1222 C1223 1.524 . S
C1222 C1236 1.377 . S
C1223 C1222 1.524 . S
C1223 C1224 1.397 . S
C1223 C1228 1.363 . S
C1224 H1201 0.950 . S
C1224 C1223 1.397 . S
C1224 C1225 1.334 . S
C1225 H1202 0.950 . S
C1225 C1224 1.334 . S
C1225 C1226 1.287 . S
C1226 C1225 1.287 . S
C1226 C1227 1.524 . S
C1226 H1245 0.913 . S
C1227 H1203 0.950 . S
C1227 C1226 1.524 . S
C1227 C1228 1.415 . S
C1228 H1204 0.950 . S
C1228 C1223 1.363 . S
C1228 C1227 1.415 . S
C1229 H1205 0.945 1_545 S
C1229 C1230 1.366 . S
C1229 C1231 1.388 . S
C1230 C1229 1.366 . S
C1230 C1234 1.385 . S
C1231 H1206 0.951 1_545 S
C1231 C1229 1.388 . S
C1231 C1232 1.366 . S
C1232 C1231 1.366 . S
C1232 C1233 1.414 . S
C1232 C1235 1.499 . S
C1233 H1207 0.950 . S
C1233 C1232 1.414 . S
C1233 C1234 1.374 . S
C1234 H1208 0.950 . S
C1234 C1230 1.385 . S
C1234 C1233 1.374 . S
C1235 C1232 1.499 . S
C1235 C1236 1.373 . S
C1235 C1237 1.389 1_545 S
C1236 H1209 0.950 . S
C1236 C1222 1.377 . S
C1236 C1235 1.373 . S
C1237 C1221 1.377 . S
C1237 C1235 1.389 1_565 S
C1237 C1238 1.524 . S
C1238 C1237 1.524 . S
C1238 C1239 1.397 . S
C1238 C1243 1.363 . S
C1239 H1210 0.950 . S
C1239 C1238 1.397 . S
C1239 C1240 1.334 . S
C1240 H1211 0.950 . S
C1240 C1239 1.334 . S
C1240 C1241 1.287 . S
C1241 C1240 1.287 . S
C1241 C1242 1.524 . S
C1241 H1244 0.999 . S
C1242 H1212 0.950 . S
C1242 C1241 1.524 . S
C1242 C1243 1.415 . S
C1243 H1213 0.950 . S
C1243 C1238 1.363 . S
C1243 C1242 1.415 . S
H1244 C1241 0.999 . S
H1245 C1226 0.913 . S
H1246 C1264 0.951 . S
H1247 C1266 0.951 . S
H1248 C1268 0.950 . S
H1249 C1269 0.950 . S
H1250 C1271 0.950 . S
H1251 C1274 0.950 . S
H1252 C1275 0.950 . S
H1253 C1277 0.950 . S
H1254 C1278 0.950 . S
H1255 C1279 0.951 . S
H1256 C1281 0.951 . S
H1257 C1283 0.950 . S
H1258 C1284 0.950 . S
H1259 C1286 0.950 . S
H1260 C1289 0.950 . S
H1261 C1290 0.950 . S
H1262 C1292 0.950 . S
H1263 C1293 0.950 . S
C1264 H1246 0.951 . S
C1264 C1265 1.366 . S
C1264 C1266 1.388 . S
C1265 C1264 1.366 . S
C1265 C1269 1.385 . S
C1266 H1247 0.951 . S
C1266 C1264 1.388 . S
C1266 C1267 1.366 . S
C1267 C1266 1.366 . S
C1267 C1268 1.414 . S
C1267 C1270 1.499 . S
C1268 H1248 0.950 . S
C1268 C1267 1.414 . S
C1268 C1269 1.374 . S
C1269 H1249 0.950 . S
C1269 C1265 1.385 . S
C1269 C1268 1.374 . S
C1270 C1267 1.499 . S
C1270 C1271 1.373 . S
C1270 C1272 1.389 . S
C1271 H1250 0.950 . S
C1271 C1270 1.373 . S
C1271 C1287 1.377 . S
C1272 C1270 1.389 . S
C1272 C1273 1.524 . S
C1272 C1286 1.377 . S
C1273 C1272 1.524 . S
C1273 C1274 1.397 . S
C1273 C1278 1.363 . S
C1274 H1251 0.950 . S
C1274 C1273 1.397 . S
C1274 C1275 1.334 . S
C1275 H1252 0.950 . S
C1275 C1274 1.334 . S
C1275 C1276 1.287 . S
C1276 C1275 1.287 . S
C1276 C1277 1.524 . S
C1276 H1295 0.913 . S
C1277 H1253 0.950 . S
C1277 C1276 1.524 . S
C1277 C1278 1.415 . S
C1278 H1254 0.950 . S
C1278 C1273 1.363 . S
C1278 C1277 1.415 . S
C1279 H1255 0.951 . S
C1279 C1280 1.366 . S
C1279 C1281 1.388 . S
C1280 C1279 1.366 . S
C1280 C1284 1.385 . S
C1281 H1256 0.951 . S
C1281 C1279 1.388 . S
C1281 C1282 1.366 . S
C1282 C1281 1.366 . S
C1282 C1283 1.414 . S
C1282 C1285 1.499 . S
C1283 H1257 0.950 . S
C1283 C1282 1.414 . S
C1283 C1284 1.374 . S
C1284 H1258 0.950 . S
C1284 C1280 1.385 . S
C1284 C1283 1.374 . S
C1285 C1282 1.499 . S
C1285 C1286 1.373 . S
C1285 C1287 1.389 . S
C1286 H1259 0.950 . S
C1286 C1272 1.377 . S
C1286 C1285 1.373 . S
C1287 C1271 1.377 . S
C1287 C1285 1.389 . S
C1287 C1288 1.524 . S
C1288 C1287 1.524 . S
C1288 C1289 1.397 . S
C1288 C1293 1.363 . S
C1289 H1260 0.950 . S
C1289 C1288 1.397 . S
C1289 C1290 1.334 . S
C1290 H1261 0.950 . S
C1290 C1289 1.334 . S
C1290 C1291 1.287 . S
C1291 C1290 1.287 . S
C1291 C1292 1.524 . S
C1291 H1294 0.999 . S
C1292 H1262 0.950 . S
C1292 C1291 1.524 . S
C1292 C1293 1.415 . S
C1293 H1263 0.950 . S
C1293 C1288 1.363 . S
C1293 C1292 1.415 . S
H1294 C1291 0.999 . S
H1295 C1276 0.913 . S
H1296 C1314 0.951 . S
H1297 C1316 0.951 . S
H1298 C1318 0.950 . S
H1299 C1319 0.950 . S
H1300 C1321 0.950 . S
H1301 C1324 0.950 . S
H1302 C1325 0.950 . S
H1303 C1327 0.950 . S
H1304 C1328 0.927 1_554 S
H1305 C1329 0.951 . S
H1306 C1331 0.951 . S
H1307 C1333 0.950 . S
H1308 C1334 0.950 . S
H1309 C1336 0.950 . S
H1310 C1339 0.950 1_554 S
H1311 C1340 0.950 1_554 S
H1312 C1342 0.950 . S
H1313 C1343 0.950 . S
C1314 H1296 0.951 . S
C1314 C1315 1.366 . S
C1314 C1316 1.388 . S
C1315 C1314 1.366 . S
C1315 C1319 1.385 . S
C1316 H1297 0.951 . S
C1316 C1314 1.388 . S
C1316 C1317 1.366 . S
C1317 C1316 1.366 . S
C1317 C1318 1.414 . S
C1317 C1320 1.499 . S
C1318 H1298 0.950 . S
C1318 C1317 1.414 . S
C1318 C1319 1.374 . S
C1319 H1299 0.950 . S
C1319 C1315 1.385 . S
C1319 C1318 1.374 . S
C1320 C1317 1.499 . S
C1320 C1321 1.373 . S
C1320 C1322 1.389 . S
C1321 H1300 0.950 . S
C1321 C1320 1.373 . S
C1321 C1337 1.377 . S
C1322 C1320 1.389 . S
C1322 C1323 1.524 . S
C1322 C1336 1.377 . S
C1323 C1322 1.524 . S
C1323 C1324 1.397 . S
C1323 C1328 1.388 . S
C1324 H1301 0.950 . S
C1324 C1323 1.397 . S
C1324 C1325 1.334 . S
C1325 H1302 0.950 . S
C1325 C1324 1.334 . S
C1325 C1326 1.287 . S
C1326 C1325 1.287 . S
C1326 C1327 1.524 1_556 S
C1326 H1345 0.913 . S
C1327 H1303 0.950 . S
C1327 C1326 1.524 1_554 S
C1327 C1328 1.413 1_554 S
C1328 H1304 0.927 1_556 S
C1328 C1323 1.388 . S
C1328 C1327 1.413 1_556 S
C1329 H1305 0.951 . S
C1329 C1330 1.366 1_556 S
C1329 C1331 1.388 . S
C1330 C1329 1.366 1_554 S
C1330 C1334 1.385 . S
C1331 H1306 0.951 . S
C1331 C1329 1.388 . S
C1331 C1332 1.366 . S
C1332 C1331 1.366 . S
C1332 C1333 1.414 1_556 S
C1332 C1335 1.499 . S
C1333 H1307 0.950 . S
C1333 C1332 1.414 1_554 S
C1333 C1334 1.374 . S
C1334 H1308 0.950 . S
C1334 C1330 1.385 . S
C1334 C1333 1.374 . S
C1335 C1332 1.499 . S
C1335 C1336 1.373 . S
C1335 C1337 1.389 . S
C1336 H1309 0.950 . S
C1336 C1322 1.377 . S
C1336 C1335 1.373 . S
C1337 C1321 1.377 . S
C1337 C1335 1.389 . S
C1337 C1338 1.524 . S
C1338 C1337 1.524 . S
C1338 C1339 1.397 . S
C1338 C1343 1.363 . S
C1339 H1310 0.950 1_556 S
C1339 C1338 1.397 . S
C1339 C1340 1.334 . S
C1340 H1311 0.950 1_556 S
C1340 C1339 1.334 . S
C1340 C1341 1.287 . S
C1341 C1340 1.287 . S
C1341 C1342 1.524 . S
C1341 H1344 0.999 . S
C1342 H1312 0.950 . S
C1342 C1341 1.524 . S
C1342 C1343 1.415 . S
C1343 H1313 0.950 . S
C1343 C1338 1.363 . S
C1343 C1342 1.415 . S
H1344 C1341 0.999 . S
H1345 C1326 0.913 . S
H1346 C1364 0.951 1_455 S
H1347 C1366 0.951 . S
H1348 C1368 0.950 . S
H1349 C1369 0.950 . S
H1350 C1371 0.950 . S
H1351 C1374 0.950 . S
H1352 C1375 0.950 . S
H1353 C1377 0.950 . S
H1354 C1378 0.950 . S
H1355 C1379 0.951 . S
H1356 C1381 0.951 . S
H1357 C1383 0.950 . S
H1358 C1384 0.950 . S
H1359 C1386 0.950 . S
H1360 C1389 0.950 . S
H1361 C1390 0.950 . S
H1362 C1392 0.950 . S
H1363 C1393 0.950 . S
C1364 H1346 0.951 1_655 S
C1364 C1365 1.366 . S
C1364 C1366 1.388 . S
C1365 C1364 1.366 . S
C1365 C1369 1.385 . S
C1366 H1347 0.951 . S
C1366 C1364 1.388 . S
C1366 C1367 1.366 . S
C1367 C1366 1.366 . S
C1367 C1368 1.414 . S
C1367 C1370 1.499 . S
C1368 H1348 0.950 . S
C1368 C1367 1.414 . S
C1368 C1369 1.374 . S
C1369 H1349 0.950 . S
C1369 C1365 1.385 . S
C1369 C1368 1.374 . S
C1370 C1367 1.499 . S
C1370 C1371 1.373 . S
C1370 C1372 1.389 . S
C1371 H1350 0.950 . S
C1371 C1370 1.373 . S
C1371 C1387 1.377 . S
C1372 C1370 1.389 . S
C1372 C1373 1.524 . S
C1372 C1386 1.377 . S
C1373 C1372 1.524 . S
C1373 C1374 1.397 . S
C1373 C1378 1.363 . S
C1374 H1351 0.950 . S
C1374 C1373 1.397 . S
C1374 C1375 1.334 . S
C1375 H1352 0.950 . S
C1375 C1374 1.334 . S
C1375 C1376 1.287 . S
C1376 C1375 1.287 . S
C1376 C1377 1.524 . S
C1376 H1395 0.913 . S
C1377 H1353 0.950 . S
C1377 C1376 1.524 . S
C1377 C1378 1.415 . S
C1378 H1354 0.950 . S
C1378 C1373 1.363 . S
C1378 C1377 1.415 . S
C1379 H1355 0.951 . S
C1379 C1380 1.366 . S
C1379 C1381 1.388 . S
C1380 C1379 1.366 . S
C1380 C1384 1.385 . S
C1381 H1356 0.951 . S
C1381 C1379 1.388 . S
C1381 C1382 1.366 . S
C1382 C1381 1.366 . S
C1382 C1383 1.414 . S
C1382 C1385 1.499 . S
C1383 H1357 0.950 . S
C1383 C1382 1.414 . S
C1383 C1384 1.374 . S
C1384 H1358 0.950 . S
C1384 C1380 1.385 . S
C1384 C1383 1.374 . S
C1385 C1382 1.499 . S
C1385 C1386 1.373 . S
C1385 C1387 1.389 . S
C1386 H1359 0.950 . S
C1386 C1372 1.377 . S
C1386 C1385 1.373 . S
C1387 C1371 1.377 . S
C1387 C1385 1.389 . S
C1387 C1388 1.524 . S
C1388 C1387 1.524 . S
C1388 C1389 1.397 . S
C1388 C1393 1.363 . S
C1389 H1360 0.950 . S
C1389 C1388 1.397 . S
C1389 C1390 1.334 . S
C1390 H1361 0.950 . S
C1390 C1389 1.334 . S
C1390 C1391 1.287 . S
C1391 C1390 1.287 . S
C1391 C1392 1.524 . S
C1391 H1394 0.999 . S
C1392 H1362 0.950 . S
C1392 C1391 1.524 . S
C1392 C1393 1.415 . S
C1393 H1363 0.950 . S
C1393 C1388 1.363 . S
C1393 C1392 1.415 . S
H1394 C1391 0.999 . S
H1395 C1376 0.913 . S
H1396 C1414 0.951 . S
H1397 C1416 0.951 . S
H1398 C1418 0.950 . S
H1399 C1419 0.950 . S
H1400 C1421 0.950 . S
H1401 C1424 0.950 . S
H1402 C1425 0.950 . S
H1403 C1427 0.950 . S
H1404 C1428 0.950 . S
H1405 C1429 0.951 . S
H1406 C1431 0.951 . S
H1407 C1433 0.950 . S
H1408 C1434 0.950 1_545 S
H1409 C1436 0.950 . S
H1410 C1439 0.950 . S
H1411 C1440 0.950 . S
H1412 C1442 0.950 . S
H1413 C1443 0.950 . S
C1414 H1396 0.951 . S
C1414 C1415 1.366 . S
C1414 C1416 1.388 . S
C1415 C1414 1.366 . S
C1415 C1419 1.385 . S
C1416 H1397 0.951 . S
C1416 C1414 1.388 . S
C1416 C1417 1.366 . S
C1417 C1416 1.366 . S
C1417 C1418 1.414 . S
C1417 C1420 1.499 . S
C1418 H1398 0.950 . S
C1418 C1417 1.414 . S
C1418 C1419 1.374 . S
C1419 H1399 0.950 . S
C1419 C1415 1.385 . S
C1419 C1418 1.374 . S
C1420 C1417 1.499 . S
C1420 C1421 1.373 . S
C1420 C1422 1.389 . S
C1421 H1400 0.950 . S
C1421 C1420 1.373 . S
C1421 C1437 1.377 . S
C1422 C1420 1.389 . S
C1422 C1423 1.524 . S
C1422 C1436 1.377 . S
C1423 C1422 1.524 . S
C1423 C1424 1.397 . S
C1423 C1428 1.363 . S
C1424 H1401 0.950 . S
C1424 C1423 1.397 . S
C1424 C1425 1.334 . S
C1425 H1402 0.950 . S
C1425 C1424 1.334 . S
C1425 C1426 1.287 . S
C1426 C1425 1.287 . S
C1426 C1427 1.524 . S
C1426 H1445 0.913 . S
C1427 H1403 0.950 . S
C1427 C1426 1.524 . S
C1427 C1428 1.415 . S
C1428 H1404 0.950 . S
C1428 C1423 1.363 . S
C1428 C1427 1.415 . S
C1429 H1405 0.951 . S
C1429 C1430 1.366 . S
C1429 C1431 1.388 . S
C1430 C1429 1.366 . S
C1430 C1434 1.385 . S
C1431 H1406 0.951 . S
C1431 C1429 1.388 . S
C1431 C1432 1.366 . S
C1432 C1431 1.366 . S
C1432 C1433 1.414 . S
C1432 C1435 1.499 . S
C1433 H1407 0.950 . S
C1433 C1432 1.414 . S
C1433 C1434 1.374 . S
C1434 H1408 0.950 1_565 S
C1434 C1430 1.385 . S
C1434 C1433 1.374 . S
C1435 C1432 1.499 . S
C1435 C1436 1.373 . S
C1435 C1437 1.389 . S
C1436 H1409 0.950 . S
C1436 C1422 1.377 . S
C1436 C1435 1.373 . S
C1437 C1421 1.377 . S
C1437 C1435 1.389 . S
C1437 C1438 1.524 . S
C1438 C1437 1.524 . S
C1438 C1439 1.397 . S
C1438 C1443 1.363 . S
C1439 H1410 0.950 . S
C1439 C1438 1.397 . S
C1439 C1440 1.334 . S
C1440 H1411 0.950 . S
C1440 C1439 1.334 . S
C1440 C1441 1.287 . S
C1441 C1440 1.287 . S
C1441 C1442 1.524 . S
C1441 H1444 0.999 . S
C1442 H1412 0.950 . S
C1442 C1441 1.524 . S
C1442 C1443 1.415 . S
C1443 H1413 0.950 . S
C1443 C1438 1.363 . S
C1443 C1442 1.415 . S
H1444 C1441 0.999 . S
H1445 C1426 0.913 . S
H1446 C1464 0.951 . S
H1447 C1466 0.951 . S
H1448 C1468 0.950 . S
H1449 C1469 0.950 . S
H1450 C1471 0.950 . S
H1451 C1474 0.950 . S
H1452 C1475 0.950 . S
H1453 C1477 0.950 . S
H1454 C1478 0.950 . S
H1455 C1479 0.951 . S
H1456 C1481 0.951 . S
H1457 C1483 0.950 . S
H1458 C1484 0.950 . S
H1459 C1486 0.950 . S
H1460 C1489 0.950 . S
H1461 C1490 0.950 . S
H1462 C1492 0.950 . S
H1463 C1493 0.950 . S
C1464 H1446 0.951 . S
C1464 C1465 1.366 . S
C1464 C1466 1.388 . S
C1465 C1464 1.366 . S
C1465 C1469 1.385 . S
C1466 H1447 0.951 . S
C1466 C1464 1.388 . S
C1466 C1467 1.366 . S
C1467 C1466 1.366 . S
C1467 C1468 1.414 . S
C1467 C1470 1.499 . S
C1468 H1448 0.950 . S
C1468 C1467 1.414 . S
C1468 C1469 1.374 . S
C1469 H1449 0.950 . S
C1469 C1465 1.385 . S
C1469 C1468 1.374 . S
C1470 C1467 1.499 . S
C1470 C1471 1.373 . S
C1470 C1472 1.389 . S
C1471 H1450 0.950 . S
C1471 C1470 1.373 . S
C1471 C1487 1.377 . S
C1472 C1470 1.389 . S
C1472 C1473 1.524 . S
C1472 C1486 1.377 . S
C1473 C1472 1.524 . S
C1473 C1474 1.397 . S
C1473 C1478 1.363 . S
C1474 H1451 0.950 . S
C1474 C1473 1.397 . S
C1474 C1475 1.334 . S
C1475 H1452 0.950 . S
C1475 C1474 1.334 . S
C1475 C1476 1.287 . S
C1476 C1475 1.287 . S
C1476 C1477 1.524 . S
C1476 H1495 0.913 . S
C1477 H1453 0.950 . S
C1477 C1476 1.524 . S
C1477 C1478 1.415 . S
C1478 H1454 0.950 . S
C1478 C1473 1.363 . S
C1478 C1477 1.415 . S
C1479 H1455 0.951 . S
C1479 C1480 1.366 . S
C1479 C1481 1.388 . S
C1480 C1479 1.366 . S
C1480 C1484 1.385 . S
C1481 H1456 0.951 . S
C1481 C1479 1.388 . S
C1481 C1482 1.366 . S
C1482 C1481 1.366 . S
C1482 C1483 1.414 . S
C1482 C1485 1.499 . S
C1483 H1457 0.950 . S
C1483 C1482 1.414 . S
C1483 C1484 1.374 . S
C1484 H1458 0.950 . S
C1484 C1480 1.385 . S
C1484 C1483 1.374 . S
C1485 C1482 1.499 . S
C1485 C1486 1.373 . S
C1485 C1487 1.389 . S
C1486 H1459 0.950 . S
C1486 C1472 1.377 . S
C1486 C1485 1.373 . S
C1487 C1471 1.377 . S
C1487 C1485 1.389 . S
C1487 C1488 1.524 . S
C1488 C1487 1.524 . S
C1488 C1489 1.397 . S
C1488 C1493 1.363 . S
C1489 H1460 0.950 . S
C1489 C1488 1.397 . S
C1489 C1490 1.334 . S
C1490 H1461 0.950 . S
C1490 C1489 1.334 . S
C1490 C1491 1.287 . S
C1491 C1490 1.287 . S
C1491 C1492 1.524 . S
C1491 H1494 0.999 . S
C1492 H1462 0.950 . S
C1492 C1491 1.524 . S
C1492 C1493 1.415 . S
C1493 H1463 0.950 . S
C1493 C1488 1.363 . S
C1493 C1492 1.415 . S
H1494 C1491 0.999 . S
H1495 C1476 0.913 . S
H1496 C1514 0.951 . S
H1497 C1516 0.951 . S
H1498 C1518 0.950 . S
H1499 C1519 0.950 . S
H1500 C1521 0.950 . S
H1501 C1524 0.950 . S
H1502 C1525 0.950 . S
H1503 C1527 0.950 . S
H1504 C1528 0.950 . S
H1505 C1529 0.951 . S
H1506 C1531 0.951 . S
H1507 C1533 0.950 . S
H1508 C1534 0.950 . S
H1509 C1536 0.950 . S
H1510 C1539 0.950 . S
H1511 C1540 0.950 . S
H1512 C1542 0.950 . S
H1513 C1543 0.950 . S
C1514 H1496 0.951 . S
C1514 C1515 1.366 . S
C1514 C1516 1.388 . S
C1515 C1514 1.366 . S
C1515 C1519 1.385 . S
C1516 H1497 0.951 . S
C1516 C1514 1.388 . S
C1516 C1517 1.366 . S
C1517 C1516 1.366 . S
C1517 C1518 1.414 . S
C1517 C1520 1.499 . S
C1518 H1498 0.950 . S
C1518 C1517 1.414 . S
C1518 C1519 1.374 . S
C1519 H1499 0.950 . S
C1519 C1515 1.385 . S
C1519 C1518 1.374 . S
C1520 C1517 1.499 . S
C1520 C1521 1.373 . S
C1520 C1522 1.389 . S
C1521 H1500 0.950 . S
C1521 C1520 1.373 . S
C1521 C1537 1.377 . S
C1522 C1520 1.389 . S
C1522 C1523 1.524 . S
C1522 C1536 1.377 . S
C1523 C1522 1.524 . S
C1523 C1524 1.397 . S
C1523 C1528 1.363 . S
C1524 H1501 0.950 . S
C1524 C1523 1.397 . S
C1524 C1525 1.334 . S
C1525 H1502 0.950 . S
C1525 C1524 1.334 . S
C1525 C1526 1.287 . S
C1526 C1525 1.287 . S
C1526 C1527 1.524 . S
C1526 H1545 0.913 . S
C1527 H1503 0.950 . S
C1527 C1526 1.524 . S
C1527 C1528 1.415 . S
C1528 H1504 0.950 . S
C1528 C1523 1.363 . S
C1528 C1527 1.415 . S
C1529 H1505 0.951 . S
C1529 C1530 1.366 . S
C1529 C1531 1.388 . S
C1530 C1529 1.366 . S
C1530 C1534 1.385 . S
C1531 H1506 0.951 . S
C1531 C1529 1.388 . S
C1531 C1532 1.366 . S
C1532 C1531 1.366 . S
C1532 C1533 1.414 . S
C1532 C1535 1.499 . S
C1533 H1507 0.950 . S
C1533 C1532 1.414 . S
C1533 C1534 1.374 . S
C1534 H1508 0.950 . S
C1534 C1530 1.385 . S
C1534 C1533 1.374 . S
C1535 C1532 1.499 . S
C1535 C1536 1.373 . S
C1535 C1537 1.389 . S
C1536 H1509 0.950 . S
C1536 C1522 1.377 . S
C1536 C1535 1.373 . S
C1537 C1521 1.377 . S
C1537 C1535 1.389 . S
C1537 C1538 1.524 . S
C1538 C1537 1.524 . S
C1538 C1539 1.397 . S
C1538 C1543 1.363 . S
C1539 H1510 0.950 . S
C1539 C1538 1.397 . S
C1539 C1540 1.334 . S
C1540 H1511 0.950 . S
C1540 C1539 1.334 . S
C1540 C1541 1.287 . S
C1541 C1540 1.287 . S
C1541 C1542 1.524 . S
C1541 H1544 0.999 . S
C1542 H1512 0.950 . S
C1542 C1541 1.524 . S
C1542 C1543 1.415 . S
C1543 H1513 0.950 . S
C1543 C1538 1.363 . S
C1543 C1542 1.415 . S
H1544 C1541 0.999 . S
H1545 C1526 0.913 . S
H1546 C1564 0.951 . S
H1547 C1566 0.951 . S
H1548 C1568 0.950 . S
H1549 C1569 0.950 . S
H1550 C1571 0.950 . S
H1551 C1574 0.950 . S
H1552 C1575 0.950 . S
H1553 C1577 0.950 . S
H1554 C1578 0.950 . S
H1555 C1579 0.951 . S
H1556 C1581 0.951 . S
H1557 C1583 0.950 . S
H1558 C1584 0.950 . S
H1559 C1586 0.950 . S
H1560 C1589 0.950 . S
H1561 C1590 0.950 . S
H1562 C1592 0.950 . S
H1563 C1593 0.950 . S
C1564 H1546 0.951 . S
C1564 C1565 1.366 . S
C1564 C1566 1.388 . S
C1565 C1564 1.366 . S
C1565 C1569 1.385 . S
C1566 H1547 0.951 . S
C1566 C1564 1.388 . S
C1566 C1567 1.366 . S
C1567 C1566 1.366 . S
C1567 C1568 1.414 . S
C1567 C1570 1.499 . S
C1568 H1548 0.950 . S
C1568 C1567 1.414 . S
C1568 C1569 1.374 . S
C1569 H1549 0.950 . S
C1569 C1565 1.385 . S
C1569 C1568 1.374 . S
C1570 C1567 1.499 . S
C1570 C1571 1.373 . S
C1570 C1572 1.389 . S
C1571 H1550 0.950 . S
C1571 C1570 1.373 . S
C1571 C1587 1.377 . S
C1572 C1570 1.389 . S
C1572 C1573 1.524 . S
C1572 C1586 1.377 . S
C1573 C1572 1.524 . S
C1573 C1574 1.397 . S
C1573 C1578 1.363 . S
C1574 H1551 0.950 . S
C1574 C1573 1.397 . S
C1574 C1575 1.334 . S
C1575 H1552 0.950 . S
C1575 C1574 1.334 . S
C1575 C1576 1.287 . S
C1576 C1575 1.287 . S
C1576 C1577 1.524 . S
C1576 H1595 0.913 . S
C1577 H1553 0.950 . S
C1577 C1576 1.524 . S
C1577 C1578 1.415 . S
C1578 H1554 0.950 . S
C1578 C1573 1.363 . S
C1578 C1577 1.415 . S
C1579 H1555 0.951 . S
C1579 C1580 1.366 . S
C1579 C1581 1.388 . S
C1580 C1579 1.366 . S
C1580 C1584 1.385 . S
C1581 H1556 0.951 . S
C1581 C1579 1.388 . S
C1581 C1582 1.366 . S
C1582 C1581 1.366 . S
C1582 C1583 1.414 . S
C1582 C1585 1.499 . S
C1583 H1557 0.950 . S
C1583 C1582 1.414 . S
C1583 C1584 1.374 . S
C1584 H1558 0.950 . S
C1584 C1580 1.385 . S
C1584 C1583 1.374 . S
C1585 C1582 1.499 . S
C1585 C1586 1.373 . S
C1585 C1587 1.389 . S
C1586 H1559 0.950 . S
C1586 C1572 1.377 . S
C1586 C1585 1.373 . S
C1587 C1571 1.377 . S
C1587 C1585 1.389 . S
C1587 C1588 1.524 . S
C1588 C1587 1.524 . S
C1588 C1589 1.397 . S
C1588 C1593 1.363 . S
C1589 H1560 0.950 . S
C1589 C1588 1.397 . S
C1589 C1590 1.334 . S
C1590 H1561 0.950 . S
C1590 C1589 1.334 . S
C1590 C1591 1.287 . S
C1591 C1590 1.287 . S
C1591 C1592 1.524 . S
C1591 H1594 0.999 . S
C1592 H1562 0.950 . S
C1592 C1591 1.524 . S
C1592 C1593 1.415 . S
C1593 H1563 0.950 . S
C1593 C1588 1.363 . S
C1593 C1592 1.415 . S
H1594 C1591 0.999 . S
H1595 C1576 0.913 . S
H1596 C1614 0.951 . S
H1597 C1616 0.951 . S
H1598 C1618 0.950 . S
H1599 C1619 0.950 . S
H1600 C1621 0.950 . S
H1601 C1624 0.950 . S
H1602 C1625 0.950 . S
H1603 C1627 0.950 . S
H1604 C1628 0.950 . S
H1605 C1629 0.951 . S
H1606 C1631 0.951 . S
H1607 C1633 0.950 . S
H1608 C1634 0.950 . S
H1609 C1636 0.950 . S
H1610 C1639 0.950 . S
H1611 C1640 0.950 . S
H1612 C1642 0.950 . S
H1613 C1643 0.950 . S
C1614 H1596 0.951 . S
C1614 C1615 1.366 . S
C1614 C1616 1.388 . S
C1615 C1614 1.366 . S
C1615 C1619 1.385 . S
C1616 H1597 0.951 . S
C1616 C1614 1.388 . S
C1616 C1617 1.366 . S
C1617 C1616 1.366 . S
C1617 C1618 1.414 . S
C1617 C1620 1.499 . S
C1618 H1598 0.950 . S
C1618 C1617 1.414 . S
C1618 C1619 1.374 . S
C1619 H1599 0.950 . S
C1619 C1615 1.385 . S
C1619 C1618 1.374 . S
C1620 C1617 1.499 . S
C1620 C1621 1.373 . S
C1620 C1622 1.389 . S
C1621 H1600 0.950 . S
C1621 C1620 1.373 . S
C1621 C1637 1.377 . S
C1622 C1620 1.389 . S
C1622 C1623 1.524 . S
C1622 C1636 1.377 . S
C1623 C1622 1.524 . S
C1623 C1624 1.397 . S
C1623 C1628 1.363 . S
C1624 H1601 0.950 . S
C1624 C1623 1.397 . S
C1624 C1625 1.334 . S
C1625 H1602 0.950 . S
C1625 C1624 1.334 . S
C1625 C1626 1.287 . S
C1626 C1625 1.287 . S
C1626 C1627 1.524 . S
C1626 H1645 0.913 . S
C1627 H1603 0.950 . S
C1627 C1626 1.524 . S
C1627 C1628 1.415 . S
C1628 H1604 0.950 . S
C1628 C1623 1.363 . S
C1628 C1627 1.415 . S
C1629 H1605 0.951 . S
C1629 C1630 1.366 . S
C1629 C1631 1.388 . S
C1630 C1629 1.366 . S
C1630 C1634 1.385 . S
C1631 H1606 0.951 . S
C1631 C1629 1.388 . S
C1631 C1632 1.366 . S
C1632 C1631 1.366 . S
C1632 C1633 1.414 . S
C1632 C1635 1.499 . S
C1633 H1607 0.950 . S
C1633 C1632 1.414 . S
C1633 C1634 1.374 . S
C1634 H1608 0.950 . S
C1634 C1630 1.385 . S
C1634 C1633 1.374 . S
C1635 C1632 1.499 . S
C1635 C1636 1.373 . S
C1635 C1637 1.389 . S
C1636 H1609 0.950 . S
C1636 C1622 1.377 . S
C1636 C1635 1.373 . S
C1637 C1621 1.377 . S
C1637 C1635 1.389 . S
C1637 C1638 1.524 . S
C1638 C1637 1.524 . S
C1638 C1639 1.397 . S
C1638 C1643 1.363 . S
C1639 H1610 0.950 . S
C1639 C1638 1.397 . S
C1639 C1640 1.334 . S
C1640 H1611 0.950 . S
C1640 C1639 1.334 . S
C1640 C1641 1.287 . S
C1641 C1640 1.287 . S
C1641 C1642 1.524 . S
C1641 H1644 0.999 . S
C1642 H1612 0.950 . S
C1642 C1641 1.524 . S
C1642 C1643 1.415 . S
C1643 H1613 0.950 . S
C1643 C1638 1.363 . S
C1643 C1642 1.415 . S
H1644 C1641 0.999 . S
H1645 C1626 0.913 . S
H1646 C1664 0.951 . S
H1647 C1666 0.951 . S
H1648 C1668 0.950 . S
H1649 C1669 0.950 . S
H1650 C1671 0.950 . S
H1651 C1674 0.950 . S
H1652 C1675 0.950 . S
H1653 C1677 0.950 . S
H1654 C1678 0.950 . S
H1655 C1679 0.951 . S
H1656 C1681 0.951 . S
H1657 C1683 0.950 . S
H1658 C1684 0.950 1_455 S
H1659 C1686 0.950 . S
H1660 C1689 0.950 . S
H1661 C1690 0.950 . S
H1662 C1692 0.950 . S
H1663 C1693 0.950 . S
C1664 H1646 0.951 . S
C1664 C1665 1.366 . S
C1664 C1666 1.388 . S
C1665 C1664 1.366 . S
C1665 C1669 1.385 1_556 S
C1666 H1647 0.951 . S
C1666 C1664 1.388 . S
C1666 C1667 1.366 1_556 S
C1667 C1666 1.366 1_554 S
C1667 C1668 1.414 . S
C1667 C1670 1.499 . S
C1668 H1648 0.950 . S
C1668 C1667 1.414 . S
C1668 C1669 1.374 . S
C1669 H1649 0.950 . S
C1669 C1665 1.385 1_554 S
C1669 C1668 1.374 . S
C1670 C1667 1.499 . S
C1670 C1671 1.373 . S
C1670 C1672 1.389 . S
C1671 H1650 0.950 . S
C1671 C1670 1.373 . S
C1671 C1687 1.377 . S
C1672 C1670 1.389 . S
C1672 C1673 1.540 . S
C1672 C1686 1.377 . S
C1673 C1672 1.540 . S
C1673 C1674 1.412 . S
C1673 C1678 1.337 1_554 S
C1674 H1651 0.950 . S
C1674 C1673 1.412 . S
C1674 C1675 1.334 . S
C1675 H1652 0.950 . S
C1675 C1674 1.334 . S
C1675 C1676 1.287 1_554 S
C1676 C1675 1.287 1_556 S
C1676 C1677 1.524 . S
C1676 H1695 0.913 . S
C1677 H1653 0.950 . S
C1677 C1676 1.524 . S
C1677 C1678 1.415 . S
C1678 H1654 0.950 . S
C1678 C1673 1.337 1_556 S
C1678 C1677 1.415 . S
C1679 H1655 0.951 . S
C1679 C1680 1.366 . S
C1679 C1681 1.388 . S
C1680 C1679 1.366 . S
C1680 C1684 1.385 . S
C1681 H1656 0.951 . S
C1681 C1679 1.388 . S
C1681 C1682 1.366 . S
C1682 C1681 1.366 . S
C1682 C1683 1.414 . S
C1682 C1685 1.499 . S
C1683 H1657 0.950 . S
C1683 C1682 1.414 . S
C1683 C1684 1.374 . S
C1684 H1658 0.950 1_655 S
C1684 C1680 1.385 . S
C1684 C1683 1.374 . S
C1685 C1682 1.499 . S
C1685 C1686 1.373 . S
C1685 C1687 1.389 . S
C1686 H1659 0.950 . S
C1686 C1672 1.377 . S
C1686 C1685 1.373 . S
C1687 C1671 1.377 . S
C1687 C1685 1.389 . S
C1687 C1688 1.524 . S
C1688 C1687 1.524 . S
C1688 C1689 1.397 . S
C1688 C1693 1.363 . S
C1689 H1660 0.950 . S
C1689 C1688 1.397 . S
C1689 C1690 1.334 . S
C1690 H1661 0.950 . S
C1690 C1689 1.334 . S
C1690 C1691 1.287 . S
C1691 C1690 1.287 . S
C1691 C1692 1.524 . S
C1691 H1694 0.999 . S
C1692 H1662 0.950 . S
C1692 C1691 1.524 . S
C1692 C1693 1.415 . S
C1693 H1663 0.950 . S
C1693 C1688 1.363 . S
C1693 C1692 1.415 . S
H1694 C1691 0.999 . S
H1695 C1676 0.913 . S
H1696 C1714 0.951 . S
H1697 C1716 0.951 . S
H1698 C1718 0.950 . S
H1699 C1719 0.950 . S
H1700 C1721 0.950 . S
H1701 C1724 0.950 . S
H1702 C1725 0.950 . S
H1703 C1727 0.950 . S
H1704 C1728 0.950 . S
H1705 C1729 0.951 1_545 S
H1706 C1731 0.951 . S
H1707 C1733 0.950 . S
H1708 C1734 0.950 . S
H1709 C1736 0.950 . S
H1710 C1739 0.950 . S
H1711 C1740 0.950 . S
H1712 C1742 0.950 . S
H1713 C1743 0.950 . S
C1714 H1696 0.951 . S
C1714 C1715 1.366 . S
C1714 C1716 1.388 . S
C1715 C1714 1.366 . S
C1715 C1719 1.385 . S
C1716 H1697 0.951 . S
C1716 C1714 1.388 . S
C1716 C1717 1.366 . S
C1717 C1716 1.366 . S
C1717 C1718 1.414 . S
C1717 C1720 1.499 . S
C1718 H1698 0.950 . S
C1718 C1717 1.414 . S
C1718 C1719 1.374 . S
C1719 H1699 0.950 . S
C1719 C1715 1.385 . S
C1719 C1718 1.374 . S
C1720 C1717 1.499 . S
C1720 C1721 1.373 . S
C1720 C1722 1.389 . S
C1721 H1700 0.950 . S
C1721 C1720 1.373 . S
C1721 C1737 1.377 . S
C1722 C1720 1.389 . S
C1722 C1723 1.524 . S
C1722 C1736 1.377 . S
C1723 C1722 1.524 . S
C1723 C1724 1.397 . S
C1723 C1728 1.363 . S
C1724 H1701 0.950 . S
C1724 C1723 1.397 . S
C1724 C1725 1.334 . S
C1725 H1702 0.950 . S
C1725 C1724 1.334 . S
C1725 C1726 1.287 . S
C1726 C1725 1.287 . S
C1726 C1727 1.524 . S
C1726 H1745 0.913 . S
C1727 H1703 0.950 . S
C1727 C1726 1.524 . S
C1727 C1728 1.415 . S
C1728 H1704 0.950 . S
C1728 C1723 1.363 . S
C1728 C1727 1.415 . S
C1729 H1705 0.951 1_565 S
C1729 C1730 1.366 . S
C1729 C1731 1.388 . S
C1730 C1729 1.366 . S
C1730 C1734 1.385 . S
C1731 H1706 0.951 . S
C1731 C1729 1.388 . S
C1731 C1732 1.366 . S
C1732 C1731 1.366 . S
C1732 C1733 1.414 . S
C1732 C1735 1.499 . S
C1733 H1707 0.950 . S
C1733 C1732 1.414 . S
C1733 C1734 1.374 . S
C1734 H1708 0.950 . S
C1734 C1730 1.385 . S
C1734 C1733 1.374 . S
C1735 C1732 1.499 . S
C1735 C1736 1.373 . S
C1735 C1737 1.389 . S
C1736 H1709 0.950 . S
C1736 C1722 1.377 . S
C1736 C1735 1.373 . S
C1737 C1721 1.377 . S
C1737 C1735 1.389 . S
C1737 C1738 1.524 . S
C1738 C1737 1.524 . S
C1738 C1739 1.397 . S
C1738 C1743 1.363 . S
C1739 H1710 0.950 . S
C1739 C1738 1.397 . S
C1739 C1740 1.334 . S
C1740 H1711 0.950 . S
C1740 C1739 1.334 . S
C1740 C1741 1.287 . S
C1741 C1740 1.287 . S
C1741 C1742 1.524 . S
C1741 H1744 0.999 . S
C1742 H1712 0.950 . S
C1742 C1741 1.524 . S
C1742 C1743 1.415 . S
C1743 H1713 0.950 . S
C1743 C1738 1.363 . S
C1743 C1742 1.415 . S
H1744 C1741 0.999 . S
H1745 C1726 0.913 . S
H1746 C1764 0.951 . S
H1747 C1766 0.951 . S
H1748 C1768 0.950 . S
H1749 C1769 0.950 . S
H1750 C1771 0.950 . S
H1751 C1774 0.950 . S
H1752 C1775 0.950 . S
H1753 C1777 0.950 . S
H1754 C1778 0.950 . S
H1755 C1779 0.951 . S
H1756 C1781 0.951 . S
H1757 C1783 0.950 . S
H1758 C1784 0.950 . S
H1759 C1786 0.950 . S
H1760 C1789 0.950 . S
H1761 C1790 0.950 . S
H1762 C1792 0.950 . S
H1763 C1793 0.950 . S
C1764 H1746 0.951 . S
C1764 C1765 1.366 . S
C1764 C1766 1.388 . S
C1765 C1764 1.366 . S
C1765 C1769 1.385 . S
C1766 H1747 0.951 . S
C1766 C1764 1.388 . S
C1766 C1767 1.366 . S
C1767 C1766 1.366 . S
C1767 C1768 1.414 . S
C1767 C1770 1.499 . S
C1768 H1748 0.950 . S
C1768 C1767 1.414 . S
C1768 C1769 1.374 . S
C1769 H1749 0.950 . S
C1769 C1765 1.385 . S
C1769 C1768 1.374 . S
C1770 C1767 1.499 . S
C1770 C1771 1.373 . S
C1770 C1772 1.389 . S
C1771 H1750 0.950 . S
C1771 C1770 1.373 . S
C1771 C1787 1.377 . S
C1772 C1770 1.389 . S
C1772 C1773 1.524 . S
C1772 C1786 1.377 . S
C1773 C1772 1.524 . S
C1773 C1774 1.397 . S
C1773 C1778 1.363 . S
C1774 H1751 0.950 . S
C1774 C1773 1.397 . S
C1774 C1775 1.334 . S
C1775 H1752 0.950 . S
C1775 C1774 1.334 . S
C1775 C1776 1.287 . S
C1776 C1775 1.287 . S
C1776 C1777 1.524 . S
C1776 H1795 0.913 . S
C1777 H1753 0.950 . S
C1777 C1776 1.524 . S
C1777 C1778 1.415 . S
C1778 H1754 0.950 . S
C1778 C1773 1.363 . S
C1778 C1777 1.415 . S
C1779 H1755 0.951 . S
C1779 C1780 1.366 . S
C1779 C1781 1.388 . S
C1780 C1779 1.366 . S
C1780 C1784 1.385 . S
C1781 H1756 0.951 . S
C1781 C1779 1.388 . S
C1781 C1782 1.366 . S
C1782 C1781 1.366 . S
C1782 C1783 1.414 . S
C1782 C1785 1.499 . S
C1783 H1757 0.950 . S
C1783 C1782 1.414 . S
C1783 C1784 1.374 . S
C1784 H1758 0.950 . S
C1784 C1780 1.385 . S
C1784 C1783 1.374 . S
C1785 C1782 1.499 . S
C1785 C1786 1.373 . S
C1785 C1787 1.389 . S
C1786 H1759 0.950 . S
C1786 C1772 1.377 . S
C1786 C1785 1.373 . S
C1787 C1771 1.377 . S
C1787 C1785 1.389 . S
C1787 C1788 1.524 . S
C1788 C1787 1.524 . S
C1788 C1789 1.397 . S
C1788 C1793 1.363 . S
C1789 H1760 0.950 . S
C1789 C1788 1.397 . S
C1789 C1790 1.334 . S
C1790 H1761 0.950 . S
C1790 C1789 1.334 . S
C1790 C1791 1.287 . S
C1791 C1790 1.287 . S
C1791 C1792 1.524 . S
C1791 H1794 0.999 . S
C1792 H1762 0.950 . S
C1792 C1791 1.524 . S
C1792 C1793 1.415 . S
C1793 H1763 0.950 . S
C1793 C1788 1.363 . S
C1793 C1792 1.415 . S
H1794 C1791 0.999 . S
H1795 C1776 0.913 . S
H1796 C1814 0.951 . S
H1797 C1816 0.951 . S
H1798 C1818 0.950 . S
H1799 C1819 0.950 . S
H1800 C1821 0.950 . S
H1801 C1824 0.950 . S
H1802 C1825 0.950 . S
H1803 C1827 0.950 . S
H1804 C1828 0.950 . S
H1805 C1829 0.951 . S
H1806 C1831 0.951 . S
H1807 C1833 0.950 . S
H1808 C1834 0.950 . S
H1809 C1836 0.950 . S
H1810 C1839 0.950 . S
H1811 C1840 0.950 . S
H1812 C1842 0.950 . S
H1813 C1843 0.950 . S
C1814 H1796 0.951 . S
C1814 C1815 1.366 . S
C1814 C1816 1.388 . S
C1815 C1814 1.366 . S
C1815 C1819 1.385 . S
C1816 H1797 0.951 . S
C1816 C1814 1.388 . S
C1816 C1817 1.366 . S
C1817 C1816 1.366 . S
C1817 C1818 1.414 . S
C1817 C1820 1.499 . S
C1818 H1798 0.950 . S
C1818 C1817 1.414 . S
C1818 C1819 1.374 . S
C1819 H1799 0.950 . S
C1819 C1815 1.385 . S
C1819 C1818 1.374 . S
C1820 C1817 1.499 . S
C1820 C1821 1.373 . S
C1820 C1822 1.389 . S
C1821 H1800 0.950 . S
C1821 C1820 1.373 . S
C1821 C1837 1.377 . S
C1822 C1820 1.389 . S
C1822 C1823 1.524 . S
C1822 C1836 1.377 . S
C1823 C1822 1.524 . S
C1823 C1824 1.397 . S
C1823 C1828 1.363 . S
C1824 H1801 0.950 . S
C1824 C1823 1.397 . S
C1824 C1825 1.334 . S
C1825 H1802 0.950 . S
C1825 C1824 1.334 . S
C1825 C1826 1.287 . S
C1826 C1825 1.287 . S
C1826 C1827 1.524 . S
C1826 H1845 0.913 . S
C1827 H1803 0.950 . S
C1827 C1826 1.524 . S
C1827 C1828 1.415 . S
C1828 H1804 0.950 . S
C1828 C1823 1.363 . S
C1828 C1827 1.415 . S
C1829 H1805 0.951 . S
C1829 C1830 1.366 . S
C1829 C1831 1.388 . S
C1830 C1829 1.366 . S
C1830 C1834 1.385 . S
C1831 H1806 0.951 . S
C1831 C1829 1.388 . S
C1831 C1832 1.366 . S
C1832 C1831 1.366 . S
C1832 C1833 1.414 . S
C1832 C1835 1.499 . S
C1833 H1807 0.950 . S
C1833 C1832 1.414 . S
C1833 C1834 1.374 . S
C1834 H1808 0.950 . S
C1834 C1830 1.385 . S
C1834 C1833 1.374 . S
C1835 C1832 1.499 . S
C1835 C1836 1.373 . S
C1835 C1837 1.389 . S
C1836 H1809 0.950 . S
C1836 C1822 1.377 . S
C1836 C1835 1.373 . S
C1837 C1821 1.377 . S
C1837 C1835 1.389 . S
C1837 C1838 1.524 . S
C1838 C1837 1.524 . S
C1838 C1839 1.397 . S
C1838 C1843 1.363 . S
C1839 H1810 0.950 . S
C1839 C1838 1.397 . S
C1839 C1840 1.334 . S
C1840 H1811 0.950 . S
C1840 C1839 1.334 . S
C1840 C1841 1.287 . S
C1841 C1840 1.287 . S
C1841 C1842 1.524 . S
C1841 H1844 0.999 . S
C1842 H1812 0.950 . S
C1842 C1841 1.524 . S
C1842 C1843 1.415 . S
C1843 H1813 0.950 . S
C1843 C1838 1.363 . S
C1843 C1842 1.415 . S
H1844 C1841 0.999 . S
H1845 C1826 0.913 . S
H1846 C1864 0.951 . S
H1847 C1866 0.951 . S
H1848 C1868 0.950 . S
H1849 C1869 0.950 . S
H1850 C1871 0.950 . S
H1851 C1874 0.950 . S
H1852 C1875 0.950 . S
H1853 C1877 0.950 . S
H1854 C1878 0.950 . S
H1855 C1879 0.951 1_565 S
H1856 C1881 0.951 . S
H1857 C1883 0.950 . S
H1858 C1884 0.950 . S
H1859 C1886 0.950 . S
H1860 C1889 0.950 . S
H1861 C1890 0.950 . S
H1862 C1892 0.950 . S
H1863 C1893 0.950 . S
C1864 H1846 0.951 . S
C1864 C1865 1.366 . S
C1864 C1866 1.388 . S
C1865 C1864 1.366 . S
C1865 C1869 1.385 . S
C1866 H1847 0.951 . S
C1866 C1864 1.388 . S
C1866 C1867 1.366 . S
C1867 C1866 1.366 . S
C1867 C1868 1.414 . S
C1867 C1870 1.499 . S
C1868 H1848 0.950 . S
C1868 C1867 1.414 . S
C1868 C1869 1.374 . S
C1869 H1849 0.950 . S
C1869 C1865 1.385 . S
C1869 C1868 1.374 . S
C1870 C1867 1.499 . S
C1870 C1871 1.373 . S
C1870 C1872 1.389 . S
C1871 H1850 0.950 . S
C1871 C1870 1.373 . S
C1871 C1887 1.377 . S
C1872 C1870 1.389 . S
C1872 C1873 1.524 . S
C1872 C1886 1.377 . S
C1873 C1872 1.524 . S
C1873 C1874 1.397 . S
C1873 C1878 1.363 . S
C1874 H1851 0.950 . S
C1874 C1873 1.397 . S
C1874 C1875 1.334 . S
C1875 H1852 0.950 . S
C1875 C1874 1.334 . S
C1875 C1876 1.287 . S
C1876 C1875 1.287 . S
C1876 C1877 1.524 . S
C1876 H1895 0.913 . S
C1877 H1853 0.950 . S
C1877 C1876 1.524 . S
C1877 C1878 1.415 . S
C1878 H1854 0.950 . S
C1878 C1873 1.363 . S
C1878 C1877 1.415 . S
C1879 H1855 0.951 1_545 S
C1879 C1880 1.366 . S
C1879 C1881 1.388 . S
C1880 C1879 1.366 . S
C1880 C1884 1.385 . S
C1881 H1856 0.951 . S
C1881 C1879 1.388 . S
C1881 C1882 1.366 . S
C1882 C1881 1.366 . S
C1882 C1883 1.414 . S
C1882 C1885 1.499 . S
C1883 H1857 0.950 . S
C1883 C1882 1.414 . S
C1883 C1884 1.374 . S
C1884 H1858 0.950 . S
C1884 C1880 1.385 . S
C1884 C1883 1.374 . S
C1885 C1882 1.499 . S
C1885 C1886 1.373 . S
C1885 C1887 1.389 . S
C1886 H1859 0.950 . S
C1886 C1872 1.377 . S
C1886 C1885 1.373 . S
C1887 C1871 1.377 . S
C1887 C1885 1.389 . S
C1887 C1888 1.524 . S
C1888 C1887 1.524 . S
C1888 C1889 1.397 . S
C1888 C1893 1.363 . S
C1889 H1860 0.950 . S
C1889 C1888 1.397 . S
C1889 C1890 1.334 . S
C1890 H1861 0.950 . S
C1890 C1889 1.334 . S
C1890 C1891 1.287 . S
C1891 C1890 1.287 . S
C1891 C1892 1.524 . S
C1891 H1894 0.999 . S
C1892 H1862 0.950 . S
C1892 C1891 1.524 . S
C1892 C1893 1.415 . S
C1893 H1863 0.950 . S
C1893 C1888 1.363 . S
C1893 C1892 1.415 . S
H1894 C1891 0.999 . S
H1895 C1876 0.913 . S
C415 N344 0.928 . S
C430 N14 0.928 . S
C465 N47 0.927 . S
C480 N377 0.927 . S
C515 N80 0.927 . S
C530 N212 0.927 . S
C565 N113 0.927 . S
C580 N245 0.927 . S
C615 N146 0.928 . S
C630 N278 0.928 . S
C665 N179 0.927 . S
C680 N311 0.927 . S
C715 C17 1.469 . S
C730 C281 1.470 . S
C765 C314 1.469 . S
C780 C50 1.470 . S
C815 C83 1.469 . S
C830 C347 1.470 . S
C865 C116 1.469 . S
C880 C380 1.469 . S
C915 C149 1.469 . S
C930 C215 1.470 . S
C965 C182 1.470 . S
C980 C248 1.469 . S
C1015 N368 1.105 . S
C1030 N5 1.106 . S
C1065 N203 1.105 . S
C1080 N38 1.105 . S
C1115 N236 1.107 . S
C1130 N71 1.106 . S
C1165 N104 1.105 . S
C1180 N269 1.105 . S
C1215 N137 1.106 . S
C1230 N302 1.105 . S
C1265 N335 1.107 . S
C1280 N170 1.106 . S
C1315 C193 2.072 . S
C1330 C8 2.079 . S
C1365 C28 2.072 1_655 S
C1380 C41 2.080 . S
C1415 C74 2.079 . S
C1430 C61 2.072 1_565 S
C1465 C94 2.072 . S
C1480 C107 2.079 . S
C1515 C140 2.080 . S
C1530 C127 2.072 1_455 S
C1565 C173 2.079 . S
C1580 C160 2.072 1_545 S
C1615 C259 2.072 . S
C1630 C206 2.080 . S
C1665 C239 2.079 . S
C1680 C292 2.072 1_655 S
C1715 C272 2.080 . S
C1730 C325 2.072 1_565 S
C1765 C358 2.072 . S
C1780 C305 2.080 . S
C1815 C391 2.072 1_455 S
C1830 C338 2.080 . S
C1865 C371 2.080 . S
C1880 C226 2.072 1_545 S
