# Generated by pormake.
# Topology lon, (4)-cn, num edge types: 1
# Building blocks:
#     Node 0, Type 0, BuildingBlock: UXUYUI_clean_sbu_0, # of connection points: 4
#     Node 1, Type 0, BuildingBlock: UXUYUI_clean_sbu_0, # of connection points: 4
#     Node 2, Type 0, BuildingBlock: UXUYUI_clean_sbu_0, # of connection points: 4
#     Node 3, Type 0, BuildingBlock: UXUYUI_clean_sbu_0, # of connection points: 4
#     Edge 4, Type (0, 0), BuildingBlock: FUNLAD_clean_linker_1, # of connection points: 2
#     Edge 5, Type (0, 0), BuildingBlock: FUNLAD_clean_linker_1, # of connection points: 2
#     Edge 6, Type (0, 0), BuildingBlock: FUNLAD_clean_linker_1, # of connection points: 2
#     Edge 7, Type (0, 0), BuildingBlock: FUNLAD_clean_linker_1, # of connection points: 2
#     Edge 8, Type (0, 0), BuildingBlock: FUNLAD_clean_linker_1, # of connection points: 2
#     Edge 9, Type (0, 0), BuildingBlock: FUNLAD_clean_linker_1, # of connection points: 2
#     Edge 10, Type (0, 0), BuildingBlock: FUNLAD_clean_linker_1, # of connection points: 2
#     Edge 11, Type (0, 0), BuildingBlock: FUNLAD_clean_linker_1, # of connection points: 2
# Relax obj value: 0.000
# Max RMSD: 0.004
# Mean RMSD: 0.003
data_MOF--net-lon--node1-UXUYUI_clean_sbu_0--edge1-FUNLAD_clean_linker_1
_symmetry_space_group_name_H-M    P1
_symmetry_Int_Tables_number       1
_symmetry_cell_setting            triclinic
loop_
_symmetry_equiv_pos_as_xyz
'x, y, z'
_cell_length_a     37.223063
_cell_length_b     37.244092
_cell_length_c     60.946472
_cell_angle_alpha  90.092382
_cell_angle_beta   89.97028
_cell_angle_gamma 119.77806
loop_
_atom_site_label
_atom_site_type_symbol
_atom_site_fract_x
_atom_site_fract_y
_atom_site_fract_z
_atom_type_partial_charge
Li0 Li 0.35359 0.67876 0.0996 0.0
Li1 Li 0.37396 0.65762 0.06576 0.0
Li2 Li 0.37135 0.72425 0.06791 0.0
Li3 Li 0.30735 0.65725 0.0659 0.0
C4 C 0.43806 0.72146 0.09945 0.0
N5 N 0.49872 0.74795 0.13137 0.0
C6 C 0.46034 0.70076 0.10259 0.0
C7 C 0.44717 0.75607 0.1123 0.0
C8 C 0.49075 0.71451 0.11887 0.0
C9 C 0.47778 0.76886 0.12843 0.0
C10 C 0.31383 0.58324 0.08498 0.0
C11 C 0.28443 0.51617 0.06772 0.0
N12 N 0.2931 0.50094 0.08598 0.0
C13 C 0.32188 0.56675 0.10371 0.0
C14 C 0.29446 0.55761 0.06695 0.0
C15 C 0.31139 0.52515 0.10385 0.0
C16 C 0.33376 0.69015 0.1432 0.0
N17 N 0.35537 0.6768 0.13094 0.0
C18 C 0.3816 0.66179 0.16335 0.0
C19 C 0.37871 0.66243 0.14054 0.0
C20 C 0.3598 0.67546 0.17649 0.0
C21 C 0.33563 0.68992 0.16612 0.0
H22 H 0.31519 0.7012 0.13521 0.0
H23 H 0.39516 0.65143 0.13048 0.0
C24 C 0.41967 0.64292 0.0335 0.0
N25 N 0.40328 0.63194 0.05396 0.0
C26 C 0.44154 0.62513 0.02429 0.0
C27 C 0.43038 0.58592 0.05761 0.0
C28 C 0.40864 0.60441 0.06613 0.0
C29 C 0.44685 0.59593 0.03625 0.0
H30 H 0.41593 0.66568 0.02434 0.0
H31 H 0.3969 0.59746 0.08269 0.0
C32 C 0.31552 0.73648 0.09029 0.0
N33 N 0.30468 0.80403 0.09647 0.0
C34 C 0.28275 0.73806 0.08005 0.0
C35 C 0.34232 0.76894 0.10398 0.0
C36 C 0.27789 0.77256 0.0833 0.0
C37 C 0.33647 0.80291 0.10681 0.0
C38 C 0.33858 0.67115 0.02302 0.0
C39 C 0.33613 0.6994 1.0089 0.0
C40 C 0.32696 0.63142 0.01543 0.0
C41 C 0.32105 0.68707 0.98761 0.0
C42 C 0.31208 0.62025 0.99403 0.0
N43 N 0.30937 0.64805 0.98069 0.0
C44 C 0.43718 0.80639 0.06113 0.0
C45 C 0.37189 0.79245 0.04753 0.0
C46 C 0.45552 0.84714 0.05356 0.0
N47 N 0.39608 0.78007 0.05802 0.0
C48 C 0.38884 0.83287 0.03977 0.0
C49 C 0.43122 0.86072 0.04251 0.0
H50 H 0.45581 0.7957 0.06939 0.0
H51 H 0.3394 0.77078 0.045 0.0
C52 C 0.22296 0.59304 0.06241 0.0
N53 N 0.25216 0.63056 0.05469 0.0
C54 C 0.18294 0.5734 0.05364 0.0
C55 C 0.20357 0.63187 0.02955 0.0
C56 C 0.24306 0.65028 0.03876 0.0
C57 C 0.17281 0.59296 0.03694 0.0
H58 H 0.23076 0.57823 0.07532 0.0
H59 H 0.26645 0.68057 0.03331 0.0
O60 O 0.4079 0.70818 0.08371 0.0
O61 O 0.32415 0.62402 0.08454 0.0
O62 O 0.32109 0.70318 0.08707 0.0
O63 O 0.35301 0.68265 0.04399 0.0
H64 H 0.45408 0.67422 0.09267 0.0
H65 H 0.43091 0.77298 0.10983 0.0
H66 H 0.50801 0.69858 0.12157 0.0
H67 H 0.48496 0.79546 0.13856 0.0
H68 H 0.26956 0.49606 0.05383 0.0
H69 H 0.33624 0.58586 0.11795 0.0
H70 H 0.28675 0.56938 0.05261 0.0
H71 H 0.31776 0.51211 0.11817 0.0
H72 H 0.40064 0.65051 0.17067 0.0
H73 H 0.31891 0.7017 0.1754 0.0
H74 H 0.45425 0.63418 1.00793 0.0
H75 H 0.4348 0.56488 0.06794 0.0
H76 H 0.26134 0.71302 0.06965 0.0
H77 H 0.36732 0.76788 0.11236 0.0
H78 H 0.25282 0.77429 0.07535 0.0
H79 H 0.35715 0.82834 0.11727 0.0
H80 H 0.34552 0.73046 0.01433 0.0
H81 H 0.3299 0.6096 0.02582 0.0
H82 H 0.31867 0.70853 0.97659 0.0
H83 H 0.30286 0.58954 0.98799 0.0
H84 H 0.48813 0.86754 0.0566 0.0
H85 H 0.36904 0.8421 0.03141 0.0
H86 H 0.16079 0.54313 0.05977 0.0
H87 H 0.19709 0.64807 0.01678 0.0
Li88 Li 0.66388 0.36399 0.56556 0.0
Li89 Li 0.72974 0.36412 0.56663 0.0
Li90 Li 0.66162 0.29629 0.56645 0.0
Li91 Li 0.68665 0.34063 0.59941 0.0
C92 C 0.67246 0.34107 0.52286 0.0
N93 N 0.6447 0.34276 0.48102 0.0
C94 C 0.69908 0.37006 0.50758 0.0
C95 C 0.63198 0.31243 0.5167 0.0
C96 C 0.6844 0.37059 0.48656 0.0
C97 C 0.61846 0.31389 0.49552 0.0
C98 C 0.74614 0.43428 0.58801 0.0
C99 C 0.81383 0.47804 0.60354 0.0
N100 N 0.81627 0.51094 0.59255 0.0
C101 C 0.74912 0.46861 0.57707 0.0
C102 C 0.77856 0.43909 0.60153 0.0
C103 C 0.7849 0.50707 0.57951 0.0
C104 C 0.60161 0.38743 0.56335 0.0
N105 N 0.6377 0.39333 0.55453 0.0
C106 C 0.63832 0.44227 0.52897 0.0
C107 C 0.65639 0.42045 0.53781 0.0
C108 C 0.60085 0.43661 0.53752 0.0
C109 C 0.58235 0.40857 0.55497 0.0
H110 H 0.58769 0.36627 0.5769 0.0
H111 H 0.68564 0.42551 0.53148 0.0
C112 C 0.8122 0.37957 0.5601 0.0
N113 N 0.78523 0.39334 0.55588 0.0
C114 C 0.85317 0.40197 0.55277 0.0
C115 C 0.83766 0.45207 0.5368 0.0
C116 C 0.79706 0.42863 0.54432 0.0
C117 C 0.86632 0.43882 0.54088 0.0
H118 H 0.80201 0.35134 0.56928 0.0
H119 H 0.77496 0.43878 0.54106 0.0
C120 C 0.58975 0.28892 0.58776 0.0
N121 N 0.5062 0.23356 0.5926 0.0
C122 C 0.57433 0.2689 0.6078 0.0
C123 C 0.56254 0.28128 0.57031 0.0
C124 C 0.53203 0.24088 0.60989 0.0
C125 C 0.52045 0.25307 0.57304 0.0
C126 C 0.72594 0.29493 0.5991 0.0
C127 C 0.70398 0.25214 0.60235 0.0
C128 C 0.76118 0.31943 0.61171 0.0
C129 C 0.71722 0.23467 0.61847 0.0
C130 C 0.77341 0.30081 0.62767 0.0
N131 N 0.75133 0.25917 0.63071 0.0
C132 C 0.64277 0.23081 0.53643 0.0
C133 C 0.60252 0.21045 0.56891 0.0
C134 C 0.62156 0.19021 0.52845 0.0
N135 N 0.63267 0.24019 0.55625 0.0
C136 C 0.58021 0.16968 0.56146 0.0
C137 C 0.5897 0.15908 0.54106 0.0
H138 H 0.66709 0.25495 0.52674 0.0
H139 H 0.59594 0.2182 0.5849 0.0
C140 C 0.70061 0.3753 0.64226 0.0
N141 N 0.68671 0.33947 0.63079 0.0
C142 C 0.70189 0.37515 0.66519 0.0
C143 C 0.67427 0.30118 0.66409 0.0
C144 C 0.67315 0.30273 0.64123 0.0
C145 C 0.68856 0.33761 0.67639 0.0
H146 H 0.71092 0.40409 0.63361 0.0
H147 H 0.66138 0.27452 0.63181 0.0
O148 O 0.68628 0.34032 0.54358 0.0
O149 O 0.71158 0.39624 0.58559 0.0
O150 O 0.63119 0.31616 0.58541 0.0
O151 O 0.71327 0.31257 0.58347 0.0
H152 H 0.73068 0.39211 0.51193 0.0
H153 H 0.61134 0.289 0.52805 0.0
H154 H 0.70458 0.39309 0.47465 0.0
H155 H 0.58715 0.29198 0.49058 0.0
H156 H 0.83924 0.48213 0.61385 0.0
H157 H 0.72419 0.46558 0.56673 0.0
H158 H 0.77649 0.41304 0.61038 0.0
H159 H 0.78772 0.53384 0.57102 0.0
H160 H 0.65372 0.46363 0.5156 0.0
H161 H 0.55321 0.40238 0.56205 0.0
H162 H 0.87416 0.39079 0.55682 0.0
H163 H 0.84655 0.48031 0.52777 0.0
H164 H 0.59479 0.27473 0.62157 0.0
H165 H 0.57365 0.29729 0.5549 0.0
H166 H 0.51975 0.22496 0.62526 0.0
H167 H 0.49909 0.24681 0.55963 0.0
H168 H 0.67688 0.23263 0.59263 0.0
H169 H 0.77893 0.35246 0.6092 0.0
H170 H 0.70037 0.20163 0.62124 0.0
H171 H 0.80049 0.31946 0.63762 0.0
H172 H 0.62945 0.18365 0.51241 0.0
H173 H 0.556 0.1465 0.57169 0.0
H174 H 0.71405 0.40423 0.67389 0.0
H175 H 0.66373 0.27166 0.6721 0.0
Li176 Li 0.37334 0.71944 0.45722 0.0
Li177 Li 0.35001 0.67588 0.42478 0.0
Li178 Li 0.30884 0.65557 0.45897 0.0
Li179 Li 0.37213 0.65202 0.45739 0.0
C180 C 0.31659 0.73648 0.43853 0.0
N181 N 0.30595 0.80477 0.43664 0.0
C182 C 0.31812 0.75502 0.41836 0.0
C183 C 0.30954 0.75265 0.45772 0.0
C184 C 0.31269 0.78953 0.41775 0.0
C185 C 0.30428 0.7872 0.45643 0.0
C186 C 0.43656 0.73499 0.42781 0.0
C187 C 0.50886 0.78035 0.41986 0.0
N188 N 0.49858 0.80327 0.40664 0.0
C189 C 0.42673 0.75896 0.41413 0.0
C190 C 0.47794 0.74571 0.4307 0.0
C191 C 0.45851 0.79336 0.40358 0.0
C192 C 0.42404 0.78126 0.48735 0.0
N193 N 0.40522 0.77556 0.46751 0.0
C194 C 0.43426 0.84868 0.46322 0.0
C195 C 0.41043 0.80838 0.45528 0.0
C196 C 0.45359 0.85537 0.48378 0.0
C197 C 0.44874 0.82113 0.49575 0.0
H198 H 0.42011 0.75477 0.49658 0.0
H199 H 0.39645 0.80351 0.43926 0.0
C200 C 0.31083 0.66705 0.38411 0.0
N201 N 0.34659 0.67335 0.3935 0.0
C202 C 0.30684 0.66581 0.3613 0.0
C203 C 0.37624 0.67663 0.35822 0.0
C204 C 0.37886 0.67763 0.38111 0.0
C205 C 0.33976 0.6707 0.34797 0.0
H206 H 0.28552 0.66335 0.39439 0.0
H207 H 0.40684 0.68217 0.38898 0.0
C208 C 0.33296 0.66527 0.49975 0.0
N209 N 0.28606 0.6397 0.53761 0.0
C210 C 0.31863 0.62531 0.50777 0.0
C211 C 0.32391 0.69243 0.51113 0.0
C212 C 0.29483 0.6129 0.5269 0.0
C213 C 0.30004 0.67887 0.53021 0.0
C214 C 0.32418 0.59233 0.42605 0.0
C215 C 0.28861 0.5552 0.42071 0.0
C216 C 0.36245 0.60076 0.4175 0.0
C217 C 0.29192 0.527 0.4069 0.0
C218 C 0.36447 0.57178 0.40374 0.0
N219 N 0.32946 0.53581 0.39877 0.0
C220 C 0.23172 0.64471 0.47572 0.0
C221 C 0.23777 0.58448 0.47339 0.0
C222 C 0.1917 0.6218 0.48424 0.0
N223 N 0.25384 0.62583 0.47051 0.0
C224 C 0.19791 0.56037 0.48183 0.0
C225 C 0.1741 0.5788 0.48729 0.0
H226 H 0.24501 0.67755 0.4733 0.0
H227 H 0.25611 0.57024 0.46923 0.0
C228 C 0.43894 0.64265 0.47279 0.0
N229 N 0.39791 0.62215 0.4679 0.0
C230 C 0.45793 0.62123 0.48114 0.0
C231 C 0.39191 0.55808 0.47939 0.0
C232 C 0.37427 0.5807 0.47109 0.0
C233 C 0.43428 0.57818 0.48446 0.0
H234 H 0.45679 0.67577 0.47051 0.0
H235 H 0.34154 0.56524 0.46739 0.0
O236 O 0.32198 0.70273 0.43942 0.0
O237 O 0.40594 0.70132 0.43843 0.0
O238 O 0.35534 0.67759 0.48073 0.0
O239 O 0.32127 0.62026 0.43947 0.0
H240 H 0.32367 0.74308 0.40333 0.0
H241 H 0.30888 0.73913 0.47348 0.0
H242 H 0.31391 0.80423 0.40226 0.0
H243 H 0.29906 0.80015 0.47118 0.0
H244 H 0.54102 0.78902 0.42196 0.0
H245 H 0.39492 0.75118 0.41175 0.0
H246 H 0.48612 0.72748 0.4412 0.0
H247 H 0.4513 0.8122 0.39299 0.0
H248 H 0.43828 0.87427 0.45308 0.0
H249 H 0.46364 0.82516 0.51154 0.0
H250 H 0.27821 0.66117 0.35413 0.0
H251 H 0.4029 0.68111 0.34896 0.0
H252 H 0.32532 0.60391 0.49914 0.0
H253 H 0.33522 0.72364 0.5053 0.0
H254 H 0.28323 0.58194 0.53319 0.0
H255 H 0.29263 0.69949 0.53913 0.0
H256 H 0.25874 0.54828 0.42716 0.0
H257 H 0.39034 0.62932 0.42143 0.0
H258 H 0.26463 0.49812 0.40264 0.0
H259 H 0.39387 0.57791 0.39701 0.0
H260 H 0.17537 0.63806 0.48838 0.0
H261 H 0.18576 0.52747 0.484 0.0
H262 H 0.4904 0.63863 0.48532 0.0
H263 H 0.37251 0.52508 0.48188 0.0
Li264 Li 0.6625 0.29892 0.95631 0.0
Li265 Li 0.66185 0.36436 0.95909 0.0
Li266 Li 0.68585 0.34562 0.92434 0.0
Li267 Li 0.72895 0.36784 0.95772 0.0
C268 C 0.5934 0.28389 0.93248 0.0
N269 N 0.51939 0.21542 0.92056 0.0
C270 C 0.55642 0.27637 0.94238 0.0
C271 C 0.59261 0.25698 0.91625 0.0
C272 C 0.51935 0.24147 0.93621 0.0
C273 C 0.55493 0.22244 0.91051 0.0
C274 C 0.67524 0.34894 1.0006 0.0
C275 C 0.68647 0.39704 0.02989 0.0
N276 N 0.655 0.36618 0.0414 0.0
C277 C 0.64333 0.3176 0.01282 0.0
C278 C 0.69728 0.38889 1.00928 0.0
C279 C 0.63345 0.32697 0.03338 0.0
C280 C 0.65924 0.22327 0.9656 0.0
N281 N 0.63664 0.24281 0.96589 0.0
C282 C 0.57922 0.18345 0.98193 0.0
C283 C 0.59742 0.22389 0.97395 0.0
C284 C 0.60173 0.16225 0.98162 0.0
C285 C 0.64227 0.18281 0.97336 0.0
H286 H 0.69075 0.23934 0.95965 0.0
H287 H 0.58061 0.24057 0.97478 0.0
C288 C 0.64369 0.42911 0.96534 0.0
N289 N 0.63197 0.38941 0.97078 0.0
C290 C 0.62252 0.44822 0.97385 0.0
C291 C 0.57738 0.38511 0.9933 0.0
C292 C 0.59936 0.36723 0.98437 0.0
C293 C 0.58862 0.42601 0.98798 0.0
H294 H 0.66954 0.446 0.95437 0.0
H295 H 0.59036 0.33558 0.98828 0.0
C296 C 0.72981 0.3028 0.92385 0.0
N297 N 0.76127 0.2708 0.89328 0.0
C298 C 0.77205 0.32382 0.91891 0.0
C299 C 0.70372 0.2651 0.91353 0.0
C300 C 0.78733 0.30726 0.90333 0.0
C301 C 0.72016 0.24954 0.89804 0.0
C302 C 0.74319 0.43885 0.93779 0.0
C303 C 0.76487 0.45138 0.91798 0.0
C304 C 0.75576 0.46638 0.95549 0.0
C305 C 0.79926 0.49103 0.91633 0.0
C306 C 0.79034 0.50574 0.9532 0.0
N307 N 0.81123 0.51714 0.93384 0.0
C308 C 0.65007 0.34259 0.88319 0.0
C309 C 0.71901 0.35565 0.88083 0.0
C310 C 0.64761 0.34403 0.86038 0.0
N311 N 0.68521 0.34788 0.89294 0.0
C312 C 0.71796 0.35739 0.85795 0.0
C313 C 0.68165 0.3511 0.84739 0.0
H314 H 0.6239 0.33743 0.89316 0.0
H315 H 0.74718 0.36143 0.8889 0.0
C316 C 0.78855 0.3871 0.99057 0.0
N317 N 0.78403 0.3949 0.96927 0.0
C318 C 0.82777 0.40509 1.00011 0.0
C319 C 0.85732 0.43842 0.96556 0.0
C320 C 0.81744 0.4197 0.95667 0.0
C321 C 0.86282 0.43138 0.98768 0.0
H322 H 0.76167 0.36652 1.00013 0.0
H323 H 0.8133 0.42444 0.9396 0.0
O324 O 0.63005 0.31773 0.93846 0.0
O325 O 0.68508 0.34046 0.98033 0.0
O326 O 0.71433 0.31866 0.93904 0.0
O327 O 0.70953 0.40006 0.93973 0.0
H328 H 0.55633 0.2971 0.95477 0.0
H329 H 0.62072 0.26291 0.90801 0.0
H330 H 0.49055 0.23512 0.94385 0.0
H331 H 0.55393 0.20129 0.89802 0.0
H332 H 0.70315 0.42789 0.03675 0.0
H333 H 0.6262 0.28644 1.00647 0.0
H334 H 0.72254 0.4133 1.00024 0.0
H335 H 0.60863 0.30307 0.04294 0.0
H336 H 0.54841 0.16983 0.98876 0.0
H337 H 0.66087 0.16784 0.97309 0.0
H338 H 0.63323 0.48012 0.96958 0.0
H339 H 0.55157 0.36698 1.00417 0.0
H340 H 0.79279 0.35279 0.92688 0.0
H341 H 0.67121 0.24778 0.91759 0.0
H342 H 0.8199 0.3234 0.89922 0.0
H343 H 0.70027 0.22047 0.88988 0.0
H344 H 0.75537 0.43071 0.90405 0.0
H345 H 0.73898 0.45751 0.9708 0.0
H346 H 0.81646 0.50103 0.90113 0.0
H347 H 0.80052 0.52726 0.96681 0.0
H348 H 0.61926 0.33959 0.85294 0.0
H349 H 0.74568 0.3645 0.84889 0.0
H350 H 0.83067 0.39843 0.01711 0.0
H351 H 0.88323 0.45727 0.95497 0.0
H352 H 0.39011 0.67277 0.20719 0.0
C353 C 0.36415 0.67521 0.20074 0.0
H354 H 0.30945 0.67605 0.20953 0.0
H355 H 0.29912 0.59572 0.30261 0.0
H356 H 0.2431 0.53806 0.28339 0.0
H357 H 0.23207 0.54235 0.2438 0.0
H358 H 0.27717 0.6043 0.22315 0.0
C359 C 0.33738 0.67659 0.2151 0.0
C360 C 0.3432 0.67495 0.23918 0.0
C361 C 0.31603 0.63886 0.25111 0.0
C362 C 0.32206 0.63659 0.27401 0.0
C363 C 0.29538 0.59955 0.28533 0.0
C364 C 0.26323 0.56609 0.27446 0.0
C365 C 0.25705 0.56849 0.25217 0.0
C366 C 0.28312 0.60429 0.24052 0.0
H367 H 0.30779 0.6711 0.31742 0.0
C368 C 0.33481 0.67041 0.32369 0.0
H369 H 0.38875 0.66847 0.31416 0.0
H370 H 0.39881 0.75007 0.22162 0.0
H371 H 0.45482 0.80772 0.24083 0.0
H372 H 0.46588 0.80339 0.28042 0.0
H373 H 0.42084 0.74142 0.30106 0.0
C374 C 0.36116 0.66899 0.30903 0.0
C375 C 0.35483 0.67074 0.28502 0.0
C376 C 0.38194 0.70687 0.2731 0.0
C377 C 0.37591 0.70914 0.2502 0.0
C378 C 0.40256 0.74621 0.23889 0.0
C379 C 0.43471 0.77967 0.24976 0.0
C380 C 0.44091 0.77726 0.27205 0.0
C381 C 0.41486 0.74144 0.28369 0.0
H382 H 0.692 0.30932 0.70763 0.0
C383 C 0.69029 0.33531 0.70067 0.0
H384 H 0.68579 0.3885 0.70809 0.0
H385 H 0.63735 0.27965 0.80142 0.0
H386 H 0.57743 0.22741 0.78179 0.0
H387 H 0.5677 0.23579 0.74247 0.0
H388 H 0.61825 0.29602 0.72247 0.0
C389 C 0.68813 0.36251 0.7144 0.0
C390 C 0.69114 0.35927 0.73864 0.0
C391 C 0.66022 0.32474 0.75031 0.0
C392 C 0.66476 0.3209 0.77324 0.0
C393 C 0.63468 0.28495 0.7842 0.0
C394 C 0.60022 0.25458 0.77311 0.0
C395 C 0.59482 0.25922 0.75096 0.0
C396 C 0.62429 0.29384 0.73962 0.0
H397 H 0.65295 0.3565 0.81667 0.0
C398 C 0.6783 0.35302 0.82312 0.0
H399 H 0.72937 0.34558 0.81423 0.0
H400 H 0.75549 0.42991 0.72141 0.0
H401 H 0.81365 0.48371 0.74144 0.0
H402 H 0.81997 0.4784 0.78143 0.0
H403 H 0.76827 0.41908 0.80164 0.0
C404 C 0.70379 0.34942 0.80874 0.0
C405 C 0.69914 0.3526 0.78466 0.0
C406 C 0.72947 0.38757 0.7731 0.0
C407 C 0.72551 0.39089 0.75008 0.0
C408 C 0.75663 0.42596 0.73893 0.0
C409 C 0.79025 0.45708 0.75022 0.0
C410 C 0.79383 0.45407 0.77273 0.0
C411 C 0.76393 0.41981 0.78412 0.0
H412 H 0.48913 0.59305 1.01163 0.0
C413 C 0.47093 0.57802 0.02619 0.0
H414 H 0.45109 0.52624 0.04721 0.0
H415 H 0.49008 0.42223 0.97915 0.0
H416 H 0.41506 0.3852 0.97862 0.0
H417 H 0.37568 0.41261 0.99813 0.0
H418 H 0.41112 0.47734 0.0182 0.0
C419 C 0.47086 0.54402 0.03371 0.0
C420 C 0.49495 0.52725 0.02246 0.0
C421 C 0.47374 0.48899 1.01113 0.0
C422 C 0.49644 0.47291 1.00012 0.0
C423 C 0.47444 0.43536 0.98828 0.0
C424 C 0.43134 0.4139 0.98771 0.0
C425 C 0.40917 0.42935 0.99868 0.0
C426 C 0.42993 0.46651 1.01019 0.0
H427 H 0.54553 0.42888 0.01203 0.0
C428 C 0.56478 0.44433 0.99783 0.0
H429 H 0.58264 0.49411 0.97556 0.0
H430 H 0.54534 0.5997 0.04424 0.0
H431 H 0.62033 0.6368 0.04462 0.0
H432 H 0.65966 0.60961 0.02487 0.0
H433 H 0.62415 0.54494 1.00473 0.0
C434 C 0.56442 0.47779 0.9898 0.0
C435 C 0.54034 0.49481 1.00078 0.0
C436 C 0.56155 0.53314 0.01203 0.0
C437 C 0.53887 0.54918 0.02309 0.0
C438 C 0.56092 0.58665 0.035 0.0
C439 C 0.60402 0.60815 0.03549 0.0
C440 C 0.62616 0.59281 0.02439 0.0
C441 C 0.60537 0.55569 0.01286 0.0
H442 H 0.12196 0.51968 0.49924 0.0
C443 C 0.13154 0.55196 0.49609 0.0
H444 H 0.11077 0.59574 0.49617 0.0
H445 H 0.92161 0.4616 0.4895 0.0
H446 H 0.9345 0.49151 0.45309 0.0
H447 H 1.00536 0.54172 0.44119 0.0
H448 H 0.06378 0.56206 0.46558 0.0
C449 C 0.10392 0.56459 0.49999 0.0
C450 C 0.06116 0.53504 0.50762 0.0
C451 C 0.02722 0.5241 0.49332 0.0
C452 C 0.98625 0.49571 0.50033 0.0
C453 C 0.95319 0.48403 0.48533 0.0
C454 C 0.96018 0.50071 0.46429 0.0
C455 C 1.00008 0.52893 0.45758 0.0
C456 C 0.03334 0.54044 0.47179 0.0
H457 H 0.91954 0.49686 0.52877 0.0
C458 C 0.90954 0.46486 0.53296 0.0
H459 H 0.9277 0.41916 0.53345 0.0
H460 H 0.11888 0.55157 0.53978 0.0
H461 H 0.10598 0.52132 0.5761 0.0
H462 H 0.03508 0.47129 0.58803 0.0
H463 H 0.97659 0.45142 0.56373 0.0
C464 C 0.93625 0.45089 0.52976 0.0
C465 C 0.97919 0.47903 0.52185 0.0
C466 C 1.01317 0.48962 0.53607 0.0
C467 C 0.05416 0.51797 0.52905 0.0
C468 C 0.08726 0.52931 0.54397 0.0
C469 C 0.08027 0.51239 0.56496 0.0
C470 C 0.04034 0.48427 0.57168 0.0
C471 C 1.00705 0.47307 0.55754 0.0
H472 H 0.60697 0.10893 0.99356 0.0
C473 C 0.58512 0.11979 0.99062 0.0
H474 H 0.52143 0.10204 0.99115 0.0
H475 H 0.46142 0.91061 0.98962 0.0
H476 H 0.4443 0.92072 0.95261 0.0
H477 H 0.46636 0.99078 0.93865 0.0
H478 H 0.50587 0.05118 0.96158 0.0
C479 C 0.54491 0.09394 0.9951 0.0
C480 C 0.53069 0.05173 1.00392 0.0
C481 C 0.50692 0.0167 0.99045 0.0
C482 C 0.4937 0.97627 0.99861 0.0
C483 C 0.47132 0.94195 0.98449 0.0
C484 C 0.46152 0.94733 0.96314 0.0
C485 C 0.47397 0.98677 0.95527 0.0
C486 C 0.49656 0.02117 0.96864 0.0
H487 H 0.42675 0.91408 0.02996 0.0
C488 C 0.44845 0.90341 0.0338 0.0
H489 H 0.51169 0.91948 0.03257 0.0
H490 H 0.57303 0.11202 0.03471 0.0
H491 H 0.59033 0.10188 0.07165 0.0
H492 H 0.56844 0.03182 0.08556 0.0
H493 H 0.52885 0.97143 0.06261 0.0
C494 C 0.48878 0.9287 0.02935 0.0
C495 C 0.50362 0.97092 0.02039 0.0
C496 C 0.52755 1.00594 0.03383 0.0
C497 C 0.54076 0.04638 0.02568 0.0
C498 C 0.56317 0.08068 0.0398 0.0
C499 C 0.57308 0.07528 0.06112 0.0
C500 C 0.56071 0.03584 0.06896 0.0
C501 C 0.53807 1.00145 0.05559 0.0
H502 H 0.5954 0.47605 0.51211 0.0
C503 C 0.58226 0.46009 0.52749 0.0
H504 H 0.53861 0.45075 0.55238 0.0
H505 H 0.52595 0.60895 0.52935 0.0
H506 H 0.56273 0.62927 0.56403 0.0
H507 H 0.5879 0.58618 0.58149 0.0
H508 H 0.57626 0.52239 0.56445 0.0
C509 C 0.55115 0.46376 0.53643 0.0
C510 C 0.53568 0.48947 0.52576 0.0
C511 C 0.54294 0.5268 0.53588 0.0
C512 C 0.52889 0.55193 0.52567 0.0
C513 C 0.53627 0.58888 0.53626 0.0
C514 C 0.55732 0.6009 0.55619 0.0
C515 C 0.57145 0.57662 0.56603 0.0
C516 C 0.56448 0.54001 0.55608 0.0
H517 H 0.43014 0.52241 0.4998 0.0
C518 C 0.45184 0.55328 0.49385 0.0
H519 H 0.51561 0.5964 0.48926 0.0
H520 H 0.51274 0.41772 0.50299 0.0
H521 H 0.47802 0.39858 0.46774 0.0
H522 H 0.45781 0.44442 0.44888 0.0
H523 H 0.47156 0.50934 0.46535 0.0
C524 C 0.49255 0.56604 0.495 0.0
C525 C 0.50762 0.53974 0.50535 0.0
C526 C 0.50071 0.5026 0.49509 0.0
C527 C 0.51399 0.47702 0.50552 0.0
C528 C 0.50477 0.4391 0.49544 0.0
C529 C 0.48461 0.42759 0.47525 0.0
C530 C 0.4731 0.45332 0.46467 0.0
C531 C 0.48098 0.49042 0.47438 0.0
H532 H 0.12841 0.58796 1.01135 0.0
C533 C 0.13126 0.57395 0.02643 0.0
H534 H 0.09733 0.52792 0.05027 0.0
H535 H 0.92736 0.51671 0.02437 0.0
H536 H 0.94062 0.55068 0.05979 0.0
H537 H 1.0068 0.57346 0.07901 0.0
H538 H 0.06021 0.56258 0.06287 0.0
C539 C 0.09695 0.54144 0.03459 0.0
C540 C 0.05626 0.52557 0.0234 0.0
C541 C 0.02503 0.53138 0.03328 0.0
C542 C 0.98662 0.51771 0.02233 0.0
C543 C 0.95664 0.52541 0.0322 0.0
C544 C 0.96396 0.54516 0.05247 0.0
C545 C 1.00123 0.55803 0.06328 0.0
C546 C 0.03159 0.55148 0.05384 0.0
H547 H 0.90639 0.43572 0.01362 0.0
C548 C 0.90424 0.44936 0.99824 0.0
H549 H 0.93846 0.49707 0.97522 0.0
H550 H 0.10802 0.50612 1.00078 0.0
H551 H 0.09478 0.47224 0.96534 0.0
H552 H 0.02869 0.4497 0.94606 0.0
H553 H 0.97533 0.4607 0.9622 0.0
C554 C 0.93876 0.48203 0.99038 0.0
C555 C 0.97925 0.49753 1.0017 0.0
C556 C 1.01047 0.49168 0.99183 0.0
C557 C 0.04885 0.5053 1.00279 0.0
C558 C 0.07879 0.49752 0.99293 0.0
C559 C 0.07147 0.47781 0.97264 0.0
C560 C 0.03424 0.46507 0.9618 0.0
C561 C 1.00392 0.47167 0.97124 0.0
H562 H 0.53334 0.09758 0.53928 0.0
C563 C 0.56491 0.11572 0.53326 0.0
H564 H 0.61168 0.11443 0.51414 0.0
H565 H 0.46393 0.91714 0.53167 0.0
H566 H 0.48104 0.93124 0.57021 0.0
H567 H 0.53357 1.00086 0.58269 0.0
H568 H 0.56825 0.05705 0.55674 0.0
C569 C 0.58008 0.09732 0.52014 0.0
C570 C 0.55359 0.05379 0.51247 0.0
C571 C 0.53573 0.02062 0.5277 0.0
C572 C 0.5077 0.97977 0.52032 0.0
C573 C 0.48738 0.94814 0.53614 0.0
C574 C 0.49661 0.9559 0.55838 0.0
C575 C 0.526 0.99514 0.56542 0.0
C576 C 0.54542 0.02722 0.55035 0.0
H577 H 0.50636 0.90311 0.50288 0.0
C578 C 0.48018 0.89765 0.49266 0.0
H579 H 0.44562 0.92348 0.4795 0.0
H580 H 0.5828 0.10998 0.47886 0.0
H581 H 0.56934 0.0951 0.44007 0.0
H582 H 0.52499 0.02356 0.42701 0.0
H583 H 0.49345 0.96655 0.45267 0.0
C584 C 0.47211 0.92867 0.48933 0.0
C585 C 0.50015 0.97152 0.49752 0.0
C586 C 0.51916 1.00448 0.48224 0.0
C587 C 0.54554 0.04565 0.48973 0.0
C588 C 0.56309 0.07804 0.47411 0.0
C589 C 0.55556 0.06996 0.45176 0.0
C590 C 0.53055 0.0297 0.44441 0.0
C591 C 0.51252 0.99724 0.45937 0.0
loop_
_geom_bond_atom_site_label_1
_geom_bond_atom_site_label_2
_geom_bond_distance
_geom_bond_site_symmetry_2
_ccdc_geom_bond_type
Li0 N17 1.990 . S
Li0 O60 1.956 . S
Li0 O61 1.970 . S
Li0 O62 1.961 . S
Li1 N25 1.990 . S
Li1 O60 1.970 . S
Li1 O61 1.956 . S
Li1 O63 1.961 . S
Li2 N47 1.990 . S
Li2 O60 1.961 . S
Li2 O62 1.956 . S
Li2 O63 1.970 . S
Li3 N53 1.990 . S
Li3 O61 1.961 . S
Li3 O62 1.970 . S
Li3 O63 1.956 . S
C4 C6 1.348 . S
C4 C7 1.356 . S
C4 O60 1.325 . S
N5 C8 1.314 . S
N5 C9 1.279 . S
C6 C4 1.348 . S
C6 C8 1.353 . S
C6 H64 0.929 . S
C7 C4 1.356 . S
C7 C9 1.358 . S
C7 H65 0.930 . S
C8 N5 1.314 . S
C8 C6 1.353 . S
C8 H66 0.930 . S
C9 N5 1.279 . S
C9 C7 1.358 . S
C9 H67 0.930 . S
C10 C13 1.348 . S
C10 C14 1.356 . S
C10 O61 1.325 . S
C11 N12 1.279 . S
C11 C14 1.358 . S
C11 H68 0.930 . S
N12 C11 1.279 . S
N12 C15 1.314 . S
C13 C10 1.348 . S
C13 C15 1.353 . S
C13 H69 0.929 . S
C14 C10 1.356 . S
C14 C11 1.358 . S
C14 H70 0.930 . S
C15 N12 1.314 . S
C15 C13 1.353 . S
C15 H71 0.930 . S
C16 N17 1.314 . S
C16 C21 1.353 . S
C16 H22 0.930 . S
N17 Li0 1.990 . S
N17 C16 1.314 . S
N17 C19 1.279 . S
C18 C19 1.358 . S
C18 C20 1.356 . S
C18 H72 0.930 . S
C19 N17 1.279 . S
C19 C18 1.358 . S
C19 H23 0.930 . S
C20 C18 1.356 . S
C20 C21 1.348 . S
C21 C16 1.353 . S
C21 C20 1.348 . S
C21 H73 0.929 . S
H22 C16 0.930 . S
H23 C19 0.930 . S
C24 N25 1.314 . S
C24 C26 1.353 . S
C24 H30 0.930 . S
N25 Li1 1.990 . S
N25 C24 1.314 . S
N25 C28 1.279 . S
C26 C24 1.353 . S
C26 C29 1.348 . S
C26 H74 0.929 . S
C27 C28 1.358 . S
C27 C29 1.356 . S
C27 H75 0.930 . S
C28 N25 1.279 . S
C28 C27 1.358 . S
C28 H31 0.930 . S
C29 C26 1.348 . S
C29 C27 1.356 . S
H30 C24 0.930 . S
H31 C28 0.930 . S
C32 C34 1.348 . S
C32 C35 1.356 . S
C32 O62 1.325 . S
N33 C36 1.314 . S
N33 C37 1.279 . S
C34 C32 1.348 . S
C34 C36 1.353 . S
C34 H76 0.929 . S
C35 C32 1.356 . S
C35 C37 1.358 . S
C35 H77 0.930 . S
C36 N33 1.314 . S
C36 C34 1.353 . S
C36 H78 0.930 . S
C37 N33 1.279 . S
C37 C35 1.358 . S
C37 H79 0.930 . S
C38 C39 1.348 . S
C38 C40 1.356 . S
C38 O63 1.325 . S
C39 C38 1.348 . S
C39 C41 1.353 1_554 S
C39 H80 0.929 . S
C40 C38 1.356 . S
C40 C42 1.358 1_554 S
C40 H81 0.930 . S
C41 C39 1.353 1_556 S
C41 N43 1.314 . S
C41 H82 0.930 . S
C42 C40 1.358 1_556 S
C42 N43 1.279 . S
C42 H83 0.930 . S
N43 C41 1.314 . S
N43 C42 1.279 . S
C44 C46 1.353 . S
C44 N47 1.314 . S
C44 H50 0.930 . S
C45 N47 1.279 . S
C45 C48 1.358 . S
C45 H51 0.930 . S
C46 C44 1.353 . S
C46 C49 1.348 . S
C46 H84 0.929 . S
N47 Li2 1.990 . S
N47 C44 1.314 . S
N47 C45 1.279 . S
C48 C45 1.358 . S
C48 C49 1.356 . S
C48 H85 0.930 . S
C49 C46 1.348 . S
C49 C48 1.356 . S
H50 C44 0.930 . S
H51 C45 0.930 . S
C52 N53 1.314 . S
C52 C54 1.353 . S
C52 H58 0.930 . S
N53 Li3 1.990 . S
N53 C52 1.314 . S
N53 C56 1.279 . S
C54 C52 1.353 . S
C54 C57 1.348 . S
C54 H86 0.929 . S
C55 C56 1.358 . S
C55 C57 1.356 . S
C55 H87 0.950 . S
C56 N53 1.279 . S
C56 C55 1.358 . S
C56 H59 0.930 . S
C57 C54 1.348 . S
C57 C55 1.356 . S
H58 C52 0.930 . S
H59 C56 0.930 . S
O60 Li0 1.956 . S
O60 Li1 1.970 . S
O60 Li2 1.961 . S
O60 C4 1.325 . S
O61 Li0 1.970 . S
O61 Li1 1.956 . S
O61 Li3 1.961 . S
O61 C10 1.325 . S
O62 Li0 1.961 . S
O62 Li2 1.956 . S
O62 Li3 1.970 . S
O62 C32 1.325 . S
O63 Li1 1.961 . S
O63 Li2 1.970 . S
O63 Li3 1.956 . S
O63 C38 1.325 . S
H64 C6 0.929 . S
H65 C7 0.930 . S
H66 C8 0.930 . S
H67 C9 0.930 . S
H68 C11 0.930 . S
H69 C13 0.929 . S
H70 C14 0.930 . S
H71 C15 0.930 . S
H72 C18 0.930 . S
H73 C21 0.929 . S
H74 C26 0.929 . S
H75 C27 0.930 . S
H76 C34 0.929 . S
H77 C35 0.930 . S
H78 C36 0.930 . S
H79 C37 0.930 . S
H80 C39 0.929 . S
H81 C40 0.930 . S
H82 C41 0.930 . S
H83 C42 0.930 . S
H84 C46 0.929 . S
H85 C48 0.930 . S
H86 C54 0.929 . S
H87 C55 0.950 . S
Li88 N105 1.990 . S
Li88 O148 1.956 . S
Li88 O149 1.970 . S
Li88 O150 1.961 . S
Li89 N113 1.990 . S
Li89 O148 1.970 . S
Li89 O149 1.956 . S
Li89 O151 1.961 . S
Li90 N135 1.990 . S
Li90 O148 1.961 . S
Li90 O150 1.956 . S
Li90 O151 1.970 . S
Li91 N141 1.990 . S
Li91 O149 1.961 . S
Li91 O150 1.970 . S
Li91 O151 1.956 . S
C92 C94 1.348 . S
C92 C95 1.356 . S
C92 O148 1.325 . S
N93 C96 1.314 . S
N93 C97 1.279 . S
C94 C92 1.348 . S
C94 C96 1.353 . S
C94 H152 0.929 . S
C95 C92 1.356 . S
C95 C97 1.358 . S
C95 H153 0.930 . S
C96 N93 1.314 . S
C96 C94 1.353 . S
C96 H154 0.930 . S
C97 N93 1.279 . S
C97 C95 1.358 . S
C97 H155 0.930 . S
C98 C101 1.348 . S
C98 C102 1.356 . S
C98 O149 1.325 . S
C99 N100 1.279 . S
C99 C102 1.358 . S
C99 H156 0.930 . S
N100 C99 1.279 . S
N100 C103 1.314 . S
C101 C98 1.348 . S
C101 C103 1.353 . S
C101 H157 0.929 . S
C102 C98 1.356 . S
C102 C99 1.358 . S
C102 H158 0.930 . S
C103 N100 1.314 . S
C103 C101 1.353 . S
C103 H159 0.930 . S
C104 N105 1.314 . S
C104 C109 1.353 . S
C104 H110 0.930 . S
N105 Li88 1.990 . S
N105 C104 1.314 . S
N105 C107 1.279 . S
C106 C107 1.358 . S
C106 C108 1.356 . S
C106 H160 0.930 . S
C107 N105 1.279 . S
C107 C106 1.358 . S
C107 H111 0.930 . S
C108 C106 1.356 . S
C108 C109 1.348 . S
C109 C104 1.353 . S
C109 C108 1.348 . S
C109 H161 0.929 . S
H110 C104 0.930 . S
H111 C107 0.930 . S
C112 N113 1.314 . S
C112 C114 1.353 . S
C112 H118 0.930 . S
N113 Li89 1.990 . S
N113 C112 1.314 . S
N113 C116 1.279 . S
C114 C112 1.353 . S
C114 C117 1.348 . S
C114 H162 0.929 . S
C115 C116 1.358 . S
C115 C117 1.356 . S
C115 H163 0.930 . S
C116 N113 1.279 . S
C116 C115 1.358 . S
C116 H119 0.930 . S
C117 C114 1.348 . S
C117 C115 1.356 . S
H118 C112 0.930 . S
H119 C116 0.930 . S
C120 C122 1.348 . S
C120 C123 1.356 . S
C120 O150 1.325 . S
N121 C124 1.314 . S
N121 C125 1.279 . S
C122 C120 1.348 . S
C122 C124 1.353 . S
C122 H164 0.929 . S
C123 C120 1.356 . S
C123 C125 1.358 . S
C123 H165 0.930 . S
C124 N121 1.314 . S
C124 C122 1.353 . S
C124 H166 0.930 . S
C125 N121 1.279 . S
C125 C123 1.358 . S
C125 H167 0.930 . S
C126 C127 1.348 . S
C126 C128 1.356 . S
C126 O151 1.325 . S
C127 C126 1.348 . S
C127 C129 1.353 . S
C127 H168 0.929 . S
C128 C126 1.356 . S
C128 C130 1.358 . S
C128 H169 0.930 . S
C129 C127 1.353 . S
C129 N131 1.314 . S
C129 H170 0.930 . S
C130 C128 1.358 . S
C130 N131 1.279 . S
C130 H171 0.930 . S
N131 C129 1.314 . S
N131 C130 1.279 . S
C132 C134 1.353 . S
C132 N135 1.314 . S
C132 H138 0.930 . S
C133 N135 1.279 . S
C133 C136 1.358 . S
C133 H139 0.930 . S
C134 C132 1.353 . S
C134 C137 1.348 . S
C134 H172 0.929 . S
N135 Li90 1.990 . S
N135 C132 1.314 . S
N135 C133 1.279 . S
C136 C133 1.358 . S
C136 C137 1.356 . S
C136 H173 0.930 . S
C137 C134 1.348 . S
C137 C136 1.356 . S
H138 C132 0.930 . S
H139 C133 0.930 . S
C140 N141 1.314 . S
C140 C142 1.353 . S
C140 H146 0.930 . S
N141 Li91 1.990 . S
N141 C140 1.314 . S
N141 C144 1.279 . S
C142 C140 1.353 . S
C142 C145 1.348 . S
C142 H174 0.929 . S
C143 C144 1.358 . S
C143 C145 1.356 . S
C143 H175 0.930 . S
C144 N141 1.279 . S
C144 C143 1.358 . S
C144 H147 0.930 . S
C145 C142 1.348 . S
C145 C143 1.356 . S
H146 C140 0.930 . S
H147 C144 0.930 . S
O148 Li88 1.956 . S
O148 Li89 1.970 . S
O148 Li90 1.961 . S
O148 C92 1.325 . S
O149 Li88 1.970 . S
O149 Li89 1.956 . S
O149 Li91 1.961 . S
O149 C98 1.325 . S
O150 Li88 1.961 . S
O150 Li90 1.956 . S
O150 Li91 1.970 . S
O150 C120 1.325 . S
O151 Li89 1.961 . S
O151 Li90 1.970 . S
O151 Li91 1.956 . S
O151 C126 1.325 . S
H152 C94 0.929 . S
H153 C95 0.930 . S
H154 C96 0.930 . S
H155 C97 0.930 . S
H156 C99 0.930 . S
H157 C101 0.929 . S
H158 C102 0.930 . S
H159 C103 0.930 . S
H160 C106 0.930 . S
H161 C109 0.929 . S
H162 C114 0.929 . S
H163 C115 0.930 . S
H164 C122 0.929 . S
H165 C123 0.930 . S
H166 C124 0.930 . S
H167 C125 0.930 . S
H168 C127 0.929 . S
H169 C128 0.930 . S
H170 C129 0.930 . S
H171 C130 0.930 . S
H172 C134 0.929 . S
H173 C136 0.930 . S
H174 C142 0.929 . S
H175 C143 0.930 . S
Li176 N193 1.990 . S
Li176 O236 1.956 . S
Li176 O237 1.970 . S
Li176 O238 1.961 . S
Li177 N201 1.990 . S
Li177 O236 1.970 . S
Li177 O237 1.956 . S
Li177 O239 1.961 . S
Li178 N223 1.990 . S
Li178 O236 1.961 . S
Li178 O238 1.956 . S
Li178 O239 1.970 . S
Li179 N229 1.990 . S
Li179 O237 1.961 . S
Li179 O238 1.970 . S
Li179 O239 1.956 . S
C180 C182 1.348 . S
C180 C183 1.356 . S
C180 O236 1.325 . S
N181 C184 1.314 . S
N181 C185 1.279 . S
C182 C180 1.348 . S
C182 C184 1.353 . S
C182 H240 0.929 . S
C183 C180 1.356 . S
C183 C185 1.358 . S
C183 H241 0.930 . S
C184 N181 1.314 . S
C184 C182 1.353 . S
C184 H242 0.930 . S
C185 N181 1.279 . S
C185 C183 1.358 . S
C185 H243 0.930 . S
C186 C189 1.348 . S
C186 C190 1.356 . S
C186 O237 1.325 . S
C187 N188 1.279 . S
C187 C190 1.358 . S
C187 H244 0.930 . S
N188 C187 1.279 . S
N188 C191 1.314 . S
C189 C186 1.348 . S
C189 C191 1.353 . S
C189 H245 0.929 . S
C190 C186 1.356 . S
C190 C187 1.358 . S
C190 H246 0.930 . S
C191 N188 1.314 . S
C191 C189 1.353 . S
C191 H247 0.930 . S
C192 N193 1.314 . S
C192 C197 1.353 . S
C192 H198 0.930 . S
N193 Li176 1.990 . S
N193 C192 1.314 . S
N193 C195 1.279 . S
C194 C195 1.358 . S
C194 C196 1.356 . S
C194 H248 0.930 . S
C195 N193 1.279 . S
C195 C194 1.358 . S
C195 H199 0.930 . S
C196 C194 1.356 . S
C196 C197 1.348 . S
C197 C192 1.353 . S
C197 C196 1.348 . S
C197 H249 0.929 . S
H198 C192 0.930 . S
H199 C195 0.930 . S
C200 N201 1.314 . S
C200 C202 1.353 . S
C200 H206 0.930 . S
N201 Li177 1.990 . S
N201 C200 1.314 . S
N201 C204 1.279 . S
C202 C200 1.353 . S
C202 C205 1.348 . S
C202 H250 0.929 . S
C203 C204 1.358 . S
C203 C205 1.356 . S
C203 H251 0.930 . S
C204 N201 1.279 . S
C204 C203 1.358 . S
C204 H207 0.930 . S
C205 C202 1.348 . S
C205 C203 1.356 . S
H206 C200 0.930 . S
H207 C204 0.930 . S
C208 C210 1.348 . S
C208 C211 1.356 . S
C208 O238 1.325 . S
N209 C212 1.314 . S
N209 C213 1.279 . S
C210 C208 1.348 . S
C210 C212 1.353 . S
C210 H252 0.929 . S
C211 C208 1.356 . S
C211 C213 1.358 . S
C211 H253 0.930 . S
C212 N209 1.314 . S
C212 C210 1.353 . S
C212 H254 0.930 . S
C213 N209 1.279 . S
C213 C211 1.358 . S
C213 H255 0.930 . S
C214 C215 1.348 . S
C214 C216 1.356 . S
C214 O239 1.325 . S
C215 C214 1.348 . S
C215 C217 1.353 . S
C215 H256 0.929 . S
C216 C214 1.356 . S
C216 C218 1.358 . S
C216 H257 0.930 . S
C217 C215 1.353 . S
C217 N219 1.314 . S
C217 H258 0.930 . S
C218 C216 1.358 . S
C218 N219 1.279 . S
C218 H259 0.930 . S
N219 C217 1.314 . S
N219 C218 1.279 . S
C220 C222 1.353 . S
C220 N223 1.314 . S
C220 H226 0.930 . S
C221 N223 1.279 . S
C221 C224 1.358 . S
C221 H227 0.930 . S
C222 C220 1.353 . S
C222 C225 1.348 . S
C222 H260 0.929 . S
N223 Li178 1.990 . S
N223 C220 1.314 . S
N223 C221 1.279 . S
C224 C221 1.358 . S
C224 C225 1.356 . S
C224 H261 0.930 . S
C225 C222 1.348 . S
C225 C224 1.356 . S
H226 C220 0.930 . S
H227 C221 0.930 . S
C228 N229 1.314 . S
C228 C230 1.353 . S
C228 H234 0.930 . S
N229 Li179 1.990 . S
N229 C228 1.314 . S
N229 C232 1.279 . S
C230 C228 1.353 . S
C230 C233 1.348 . S
C230 H262 0.929 . S
C231 C232 1.358 . S
C231 C233 1.356 . S
C231 H263 0.930 . S
C232 N229 1.279 . S
C232 C231 1.358 . S
C232 H235 0.930 . S
C233 C230 1.348 . S
C233 C231 1.356 . S
H234 C228 0.930 . S
H235 C232 0.930 . S
O236 Li176 1.956 . S
O236 Li177 1.970 . S
O236 Li178 1.961 . S
O236 C180 1.325 . S
O237 Li176 1.970 . S
O237 Li177 1.956 . S
O237 Li179 1.961 . S
O237 C186 1.325 . S
O238 Li176 1.961 . S
O238 Li178 1.956 . S
O238 Li179 1.970 . S
O238 C208 1.325 . S
O239 Li177 1.961 . S
O239 Li178 1.970 . S
O239 Li179 1.956 . S
O239 C214 1.325 . S
H240 C182 0.929 . S
H241 C183 0.930 . S
H242 C184 0.930 . S
H243 C185 0.930 . S
H244 C187 0.930 . S
H245 C189 0.929 . S
H246 C190 0.930 . S
H247 C191 0.930 . S
H248 C194 0.930 . S
H249 C197 0.929 . S
H250 C202 0.929 . S
H251 C203 0.930 . S
H252 C210 0.929 . S
H253 C211 0.930 . S
H254 C212 0.930 . S
H255 C213 0.930 . S
H256 C215 0.929 . S
H257 C216 0.930 . S
H258 C217 0.930 . S
H259 C218 0.930 . S
H260 C222 0.929 . S
H261 C224 0.930 . S
H262 C230 0.929 . S
H263 C231 0.930 . S
Li264 N281 1.990 . S
Li264 O324 1.956 . S
Li264 O325 1.970 . S
Li264 O326 1.961 . S
Li265 N289 1.990 . S
Li265 O324 1.970 . S
Li265 O325 1.956 . S
Li265 O327 1.961 . S
Li266 N311 1.990 . S
Li266 O324 1.961 . S
Li266 O326 1.956 . S
Li266 O327 1.970 . S
Li267 N317 1.990 . S
Li267 O325 1.961 . S
Li267 O326 1.970 . S
Li267 O327 1.956 . S
C268 C270 1.348 . S
C268 C271 1.356 . S
C268 O324 1.325 . S
N269 C272 1.314 . S
N269 C273 1.279 . S
C270 C268 1.348 . S
C270 C272 1.353 . S
C270 H328 0.929 . S
C271 C268 1.356 . S
C271 C273 1.358 . S
C271 H329 0.930 . S
C272 N269 1.314 . S
C272 C270 1.353 . S
C272 H330 0.930 . S
C273 N269 1.279 . S
C273 C271 1.358 . S
C273 H331 0.930 . S
C274 C277 1.348 . S
C274 C278 1.356 . S
C274 O325 1.325 . S
C275 N276 1.279 . S
C275 C278 1.358 1_554 S
C275 H332 0.930 . S
N276 C275 1.279 . S
N276 C279 1.314 . S
C277 C274 1.348 . S
C277 C279 1.353 1_556 S
C277 H333 0.929 . S
C278 C274 1.356 . S
C278 C275 1.358 1_556 S
C278 H334 0.930 . S
C279 N276 1.314 . S
C279 C277 1.353 1_554 S
C279 H335 0.930 . S
C280 N281 1.314 . S
C280 C285 1.353 . S
C280 H286 0.930 . S
N281 Li264 1.990 . S
N281 C280 1.314 . S
N281 C283 1.279 . S
C282 C283 1.358 . S
C282 C284 1.356 . S
C282 H336 0.930 . S
C283 N281 1.279 . S
C283 C282 1.358 . S
C283 H287 0.930 . S
C284 C282 1.356 . S
C284 C285 1.348 . S
C285 C280 1.353 . S
C285 C284 1.348 . S
C285 H337 0.929 . S
H286 C280 0.930 . S
H287 C283 0.930 . S
C288 N289 1.314 . S
C288 C290 1.353 . S
C288 H294 0.930 . S
N289 Li265 1.990 . S
N289 C288 1.314 . S
N289 C292 1.279 . S
C290 C288 1.353 . S
C290 C293 1.348 . S
C290 H338 0.929 . S
C291 C292 1.358 . S
C291 C293 1.356 . S
C291 H339 0.951 . S
C292 N289 1.279 . S
C292 C291 1.358 . S
C292 H295 0.930 . S
C293 C290 1.348 . S
C293 C291 1.356 . S
H294 C288 0.930 . S
H295 C292 0.930 . S
C296 C298 1.348 . S
C296 C299 1.356 . S
C296 O326 1.325 . S
N297 C300 1.314 . S
N297 C301 1.279 . S
C298 C296 1.348 . S
C298 C300 1.353 . S
C298 H340 0.929 . S
C299 C296 1.356 . S
C299 C301 1.358 . S
C299 H341 0.930 . S
C300 N297 1.314 . S
C300 C298 1.353 . S
C300 H342 0.930 . S
C301 N297 1.279 . S
C301 C299 1.358 . S
C301 H343 0.930 . S
C302 C303 1.348 . S
C302 C304 1.356 . S
C302 O327 1.325 . S
C303 C302 1.348 . S
C303 C305 1.353 . S
C303 H344 0.929 . S
C304 C302 1.356 . S
C304 C306 1.358 . S
C304 H345 0.930 . S
C305 C303 1.353 . S
C305 N307 1.314 . S
C305 H346 0.930 . S
C306 C304 1.358 . S
C306 N307 1.279 . S
C306 H347 0.930 . S
N307 C305 1.314 . S
N307 C306 1.279 . S
C308 C310 1.353 . S
C308 N311 1.314 . S
C308 H314 0.930 . S
C309 N311 1.279 . S
C309 C312 1.358 . S
C309 H315 0.930 . S
C310 C308 1.353 . S
C310 C313 1.348 . S
C310 H348 0.929 . S
N311 Li266 1.990 . S
N311 C308 1.314 . S
N311 C309 1.279 . S
C312 C309 1.358 . S
C312 C313 1.356 . S
C312 H349 0.930 . S
C313 C310 1.348 . S
C313 C312 1.356 . S
H314 C308 0.930 . S
H315 C309 0.930 . S
C316 N317 1.314 . S
C316 C318 1.353 . S
C316 H322 0.930 . S
N317 Li267 1.990 . S
N317 C316 1.314 . S
N317 C320 1.279 . S
C318 C316 1.353 . S
C318 C321 1.348 . S
C318 H350 0.929 . S
C319 C320 1.358 . S
C319 C321 1.356 . S
C319 H351 0.930 . S
C320 N317 1.279 . S
C320 C319 1.358 . S
C320 H323 0.930 . S
C321 C318 1.348 . S
C321 C319 1.356 . S
H322 C316 0.930 . S
H323 C320 0.930 . S
O324 Li264 1.956 . S
O324 Li265 1.970 . S
O324 Li266 1.961 . S
O324 C268 1.325 . S
O325 Li264 1.970 . S
O325 Li265 1.956 . S
O325 Li267 1.961 . S
O325 C274 1.325 . S
O326 Li264 1.961 . S
O326 Li266 1.956 . S
O326 Li267 1.970 . S
O326 C296 1.325 . S
O327 Li265 1.961 . S
O327 Li266 1.970 . S
O327 Li267 1.956 . S
O327 C302 1.325 . S
H328 C270 0.929 . S
H329 C271 0.930 . S
H330 C272 0.930 . S
H331 C273 0.930 . S
H332 C275 0.930 . S
H333 C277 0.929 . S
H334 C278 0.930 . S
H335 C279 0.930 . S
H336 C282 0.930 . S
H337 C285 0.929 . S
H338 C290 0.929 . S
H339 C291 0.951 . S
H340 C298 0.929 . S
H341 C299 0.930 . S
H342 C300 0.930 . S
H343 C301 0.930 . S
H344 C303 0.929 . S
H345 C304 0.930 . S
H346 C305 0.930 . S
H347 C306 0.930 . S
H348 C310 0.929 . S
H349 C312 0.930 . S
H350 C318 0.929 . S
H351 C319 0.930 . S
H352 C353 0.951 . S
C353 H352 0.951 . S
C353 C359 1.265 . S
H354 C359 0.950 . S
H355 C363 0.949 . S
H356 C364 0.950 . S
H357 C365 0.951 . S
H358 C366 0.951 . S
C359 C353 1.265 . S
C359 H354 0.950 . S
C359 C360 1.478 . S
C360 C359 1.478 . S
C360 C361 1.397 . S
C360 C377 1.394 . S
C361 C360 1.397 . S
C361 C362 1.438 . S
C361 C366 1.429 . S
C362 C361 1.438 . S
C362 C363 1.428 . S
C362 C375 1.394 . S
C363 H355 0.949 . S
C363 C362 1.428 . S
C363 C364 1.345 . S
C364 H356 0.950 . S
C364 C363 1.345 . S
C364 C365 1.424 . S
C365 H357 0.951 . S
C365 C364 1.424 . S
C365 C366 1.347 . S
C366 H358 0.951 . S
C366 C361 1.429 . S
C366 C365 1.347 . S
H367 C368 0.951 . S
C368 H367 0.951 . S
C368 C374 1.265 . S
H369 C374 0.950 . S
H370 C378 0.949 . S
H371 C379 0.950 . S
H372 C380 0.951 . S
H373 C381 0.951 . S
C374 C368 1.265 . S
C374 H369 0.950 . S
C374 C375 1.478 . S
C375 C362 1.394 . S
C375 C374 1.478 . S
C375 C376 1.397 . S
C376 C375 1.397 . S
C376 C377 1.438 . S
C376 C381 1.429 . S
C377 C360 1.394 . S
C377 C376 1.438 . S
C377 C378 1.428 . S
C378 H370 0.949 . S
C378 C377 1.428 . S
C378 C379 1.345 . S
C379 H371 0.950 . S
C379 C378 1.345 . S
C379 C380 1.424 . S
C380 H372 0.951 . S
C380 C379 1.424 . S
C380 C381 1.347 . S
C381 H373 0.951 . S
C381 C376 1.429 . S
C381 C380 1.347 . S
H382 C383 0.951 . S
C383 H382 0.951 . S
C383 C389 1.265 . S
H384 C389 0.950 . S
H385 C393 0.949 . S
H386 C394 0.950 . S
H387 C395 0.951 . S
H388 C396 0.951 . S
C389 C383 1.265 . S
C389 H384 0.950 . S
C389 C390 1.478 . S
C390 C389 1.478 . S
C390 C391 1.397 . S
C390 C407 1.394 . S
C391 C390 1.397 . S
C391 C392 1.438 . S
C391 C396 1.429 . S
C392 C391 1.438 . S
C392 C393 1.428 . S
C392 C405 1.394 . S
C393 H385 0.949 . S
C393 C392 1.428 . S
C393 C394 1.345 . S
C394 H386 0.950 . S
C394 C393 1.345 . S
C394 C395 1.424 . S
C395 H387 0.951 . S
C395 C394 1.424 . S
C395 C396 1.347 . S
C396 H388 0.951 . S
C396 C391 1.429 . S
C396 C395 1.347 . S
H397 C398 0.951 . S
C398 H397 0.951 . S
C398 C404 1.265 . S
H399 C404 0.950 . S
H400 C408 0.949 . S
H401 C409 0.950 . S
H402 C410 0.951 . S
H403 C411 0.951 . S
C404 C398 1.265 . S
C404 H399 0.950 . S
C404 C405 1.478 . S
C405 C392 1.394 . S
C405 C404 1.478 . S
C405 C406 1.397 . S
C406 C405 1.397 . S
C406 C407 1.438 . S
C406 C411 1.429 . S
C407 C390 1.394 . S
C407 C406 1.438 . S
C407 C408 1.428 . S
C408 H400 0.949 . S
C408 C407 1.428 . S
C408 C409 1.345 . S
C409 H401 0.950 . S
C409 C408 1.345 . S
C409 C410 1.424 . S
C410 H402 0.951 . S
C410 C409 1.424 . S
C410 C411 1.347 . S
C411 H403 0.951 . S
C411 C406 1.429 . S
C411 C410 1.347 . S
H412 C413 0.951 . S
C413 H412 0.951 . S
C413 C419 1.265 . S
H414 C419 0.950 . S
H415 C423 0.949 . S
H416 C424 0.950 . S
H417 C425 0.951 . S
H418 C426 0.951 1_554 S
C419 C413 1.265 . S
C419 H414 0.950 . S
C419 C420 1.478 . S
C420 C419 1.478 . S
C420 C421 1.397 1_554 S
C420 C437 1.394 . S
C421 C420 1.397 1_556 S
C421 C422 1.438 . S
C421 C426 1.429 . S
C422 C421 1.438 . S
C422 C423 1.428 . S
C422 C435 1.394 . S
C423 H415 0.949 . S
C423 C422 1.428 . S
C423 C424 1.345 . S
C424 H416 0.950 . S
C424 C423 1.345 . S
C424 C425 1.424 . S
C425 H417 0.951 . S
C425 C424 1.424 . S
C425 C426 1.347 . S
C426 H418 0.951 1_556 S
C426 C421 1.429 . S
C426 C425 1.347 . S
H427 C428 0.951 . S
C428 H427 0.951 . S
C428 C434 1.265 . S
H429 C434 0.950 . S
H430 C438 0.949 . S
H431 C439 0.950 . S
H432 C440 0.951 . S
H433 C441 0.951 1_556 S
C434 C428 1.265 . S
C434 H429 0.950 . S
C434 C435 1.478 . S
C435 C422 1.394 . S
C435 C434 1.478 . S
C435 C436 1.377 1_556 S
C436 C435 1.377 1_554 S
C436 C437 1.456 . S
C436 C441 1.432 . S
C437 C420 1.394 . S
C437 C436 1.456 . S
C437 C438 1.428 . S
C438 H430 0.949 . S
C438 C437 1.428 . S
C438 C439 1.345 . S
C439 H431 0.950 . S
C439 C438 1.345 . S
C439 C440 1.424 . S
C440 H432 0.951 . S
C440 C439 1.424 . S
C440 C441 1.347 . S
C441 H433 0.951 1_554 S
C441 C436 1.432 . S
C441 C440 1.347 . S
H442 C443 0.951 . S
C443 H442 0.951 . S
C443 C449 1.265 . S
H444 C449 0.950 . S
H445 C453 0.949 . S
H446 C454 0.950 . S
H447 C455 0.951 . S
H448 C456 0.951 . S
C449 C443 1.265 . S
C449 H444 0.950 . S
C449 C450 1.478 . S
C450 C449 1.478 . S
C450 C451 1.397 . S
C450 C467 1.394 . S
C451 C450 1.397 . S
C451 C452 1.438 1_455 S
C451 C456 1.429 . S
C452 C451 1.438 1_655 S
C452 C453 1.428 . S
C452 C465 1.394 . S
C453 H445 0.949 . S
C453 C452 1.428 . S
C453 C454 1.345 . S
C454 H446 0.950 . S
C454 C453 1.345 . S
C454 C455 1.424 . S
C455 H447 0.951 . S
C455 C454 1.424 . S
C455 C456 1.347 1_655 S
C456 H448 0.951 . S
C456 C451 1.429 . S
C456 C455 1.347 1_455 S
H457 C458 0.951 . S
C458 H457 0.951 . S
C458 C464 1.265 . S
H459 C464 0.950 . S
H460 C468 0.949 . S
H461 C469 0.950 . S
H462 C470 0.951 . S
H463 C471 0.951 . S
C464 C458 1.265 . S
C464 H459 0.950 . S
C464 C465 1.478 . S
C465 C452 1.394 . S
C465 C464 1.478 . S
C465 C466 1.397 . S
C466 C465 1.397 . S
C466 C467 1.438 1_655 S
C466 C471 1.429 . S
C467 C450 1.394 . S
C467 C466 1.438 1_455 S
C467 C468 1.428 . S
C468 H460 0.949 . S
C468 C467 1.428 . S
C468 C469 1.345 . S
C469 H461 0.950 . S
C469 C468 1.345 . S
C469 C470 1.424 . S
C470 H462 0.951 . S
C470 C469 1.424 . S
C470 C471 1.347 1_455 S
C471 H463 0.951 . S
C471 C466 1.429 . S
C471 C470 1.347 1_655 S
H472 C473 0.951 . S
C473 H472 0.951 . S
C473 C479 1.265 . S
H474 C479 0.950 . S
H475 C483 0.949 . S
H476 C484 0.950 . S
H477 C485 0.951 . S
H478 C486 0.951 . S
C479 C473 1.265 . S
C479 H474 0.950 . S
C479 C480 1.478 . S
C480 C479 1.478 . S
C480 C481 1.397 . S
C480 C497 1.394 1_556 S
C481 C480 1.397 . S
C481 C482 1.438 1_545 S
C481 C486 1.429 . S
C482 C481 1.438 1_565 S
C482 C483 1.428 . S
C482 C495 1.394 1_556 S
C483 H475 0.949 . S
C483 C482 1.428 . S
C483 C484 1.345 . S
C484 H476 0.950 . S
C484 C483 1.345 . S
C484 C485 1.424 . S
C485 H477 0.951 . S
C485 C484 1.424 . S
C485 C486 1.347 1_565 S
C486 H478 0.951 . S
C486 C481 1.429 . S
C486 C485 1.347 1_545 S
H487 C488 0.951 . S
C488 H487 0.951 . S
C488 C494 1.265 . S
H489 C494 0.950 . S
H490 C498 0.949 . S
H491 C499 0.950 . S
H492 C500 0.951 . S
H493 C501 0.951 . S
C494 C488 1.265 . S
C494 H489 0.950 . S
C494 C495 1.478 . S
C495 C482 1.394 1_554 S
C495 C494 1.478 . S
C495 C496 1.397 . S
C496 C495 1.397 . S
C496 C497 1.438 1_565 S
C496 C501 1.429 . S
C497 C480 1.394 1_554 S
C497 C496 1.438 1_545 S
C497 C498 1.428 . S
C498 H490 0.949 . S
C498 C497 1.428 . S
C498 C499 1.345 . S
C499 H491 0.950 . S
C499 C498 1.345 . S
C499 C500 1.424 . S
C500 H492 0.951 . S
C500 C499 1.424 . S
C500 C501 1.347 1_545 S
C501 H493 0.951 . S
C501 C496 1.429 . S
C501 C500 1.347 1_565 S
H502 C503 0.951 . S
C503 H502 0.951 . S
C503 C509 1.265 . S
H504 C509 0.950 . S
H505 C513 0.949 . S
H506 C514 0.950 . S
H507 C515 0.951 . S
H508 C516 0.951 . S
C509 C503 1.265 . S
C509 H504 0.950 . S
C509 C510 1.478 . S
C510 C509 1.478 . S
C510 C511 1.397 . S
C510 C527 1.394 . S
C511 C510 1.397 . S
C511 C512 1.438 . S
C511 C516 1.429 . S
C512 C511 1.438 . S
C512 C513 1.428 . S
C512 C525 1.394 . S
C513 H505 0.949 . S
C513 C512 1.428 . S
C513 C514 1.345 . S
C514 H506 0.950 . S
C514 C513 1.345 . S
C514 C515 1.424 . S
C515 H507 0.951 . S
C515 C514 1.424 . S
C515 C516 1.347 . S
C516 H508 0.951 . S
C516 C511 1.429 . S
C516 C515 1.347 . S
H517 C518 0.951 . S
C518 H517 0.951 . S
C518 C524 1.265 . S
H519 C524 0.950 . S
H520 C528 0.949 . S
H521 C529 0.950 . S
H522 C530 0.951 . S
H523 C531 0.951 . S
C524 C518 1.265 . S
C524 H519 0.950 . S
C524 C525 1.478 . S
C525 C512 1.394 . S
C525 C524 1.478 . S
C525 C526 1.397 . S
C526 C525 1.397 . S
C526 C527 1.438 . S
C526 C531 1.429 . S
C527 C510 1.394 . S
C527 C526 1.438 . S
C527 C528 1.428 . S
C528 H520 0.949 . S
C528 C527 1.428 . S
C528 C529 1.345 . S
C529 H521 0.950 . S
C529 C528 1.345 . S
C529 C530 1.424 . S
C530 H522 0.951 . S
C530 C529 1.424 . S
C530 C531 1.347 . S
C531 H523 0.951 . S
C531 C526 1.429 . S
C531 C530 1.347 . S
H532 C533 0.951 . S
C533 H532 0.951 . S
C533 C539 1.265 . S
H534 C539 0.950 . S
H535 C543 0.949 . S
H536 C544 0.950 . S
H537 C545 0.951 . S
H538 C546 0.951 . S
C539 C533 1.265 . S
C539 H534 0.950 . S
C539 C540 1.478 . S
C540 C539 1.478 . S
C540 C541 1.397 . S
C540 C557 1.394 1_554 S
C541 C540 1.397 . S
C541 C542 1.438 1_455 S
C541 C546 1.429 . S
C542 C541 1.438 1_655 S
C542 C543 1.428 . S
C542 C555 1.394 1_554 S
C543 H535 0.949 . S
C543 C542 1.428 . S
C543 C544 1.345 . S
C544 H536 0.950 . S
C544 C543 1.345 . S
C544 C545 1.424 . S
C545 H537 0.951 . S
C545 C544 1.424 . S
C545 C546 1.347 1_655 S
C546 H538 0.951 . S
C546 C541 1.429 . S
C546 C545 1.347 1_455 S
H547 C548 0.951 . S
C548 H547 0.951 . S
C548 C554 1.265 . S
H549 C554 0.950 . S
H550 C558 0.949 . S
H551 C559 0.950 . S
H552 C560 0.951 . S
H553 C561 0.951 . S
C554 C548 1.265 . S
C554 H549 0.950 . S
C554 C555 1.478 . S
C555 C542 1.394 1_556 S
C555 C554 1.478 . S
C555 C556 1.397 . S
C556 C555 1.397 . S
C556 C557 1.438 1_655 S
C556 C561 1.429 . S
C557 C540 1.394 1_556 S
C557 C556 1.438 1_455 S
C557 C558 1.428 . S
C558 H550 0.949 . S
C558 C557 1.428 . S
C558 C559 1.345 . S
C559 H551 0.950 . S
C559 C558 1.345 . S
C559 C560 1.424 . S
C560 H552 0.951 . S
C560 C559 1.424 . S
C560 C561 1.347 1_455 S
C561 H553 0.951 . S
C561 C556 1.429 . S
C561 C560 1.347 1_655 S
H562 C563 0.951 . S
C563 H562 0.951 . S
C563 C569 1.265 . S
H564 C569 0.950 . S
H565 C573 0.949 . S
H566 C574 0.950 . S
H567 C575 0.951 . S
H568 C576 0.951 . S
C569 C563 1.265 . S
C569 H564 0.950 . S
C569 C570 1.478 . S
C570 C569 1.478 . S
C570 C571 1.397 . S
C570 C587 1.394 . S
C571 C570 1.397 . S
C571 C572 1.438 1_545 S
C571 C576 1.429 . S
C572 C571 1.438 1_565 S
C572 C573 1.428 . S
C572 C585 1.394 . S
C573 H565 0.949 . S
C573 C572 1.428 . S
C573 C574 1.345 . S
C574 H566 0.950 . S
C574 C573 1.345 . S
C574 C575 1.424 . S
C575 H567 0.951 . S
C575 C574 1.424 . S
C575 C576 1.347 1_565 S
C576 H568 0.951 . S
C576 C571 1.429 . S
C576 C575 1.347 1_545 S
H577 C578 0.951 . S
C578 H577 0.951 . S
C578 C584 1.265 . S
H579 C584 0.950 . S
H580 C588 0.949 . S
H581 C589 0.950 . S
H582 C590 0.951 . S
H583 C591 0.951 . S
C584 C578 1.265 . S
C584 H579 0.950 . S
C584 C585 1.478 . S
C585 C572 1.394 . S
C585 C584 1.478 . S
C585 C586 1.397 . S
C586 C585 1.397 . S
C586 C587 1.438 1_565 S
C586 C591 1.429 . S
C587 C570 1.394 . S
C587 C586 1.438 1_545 S
C587 C588 1.428 . S
C588 H580 0.949 . S
C588 C587 1.428 . S
C588 C589 1.345 . S
C589 H581 0.950 . S
C589 C588 1.345 . S
C589 C590 1.424 . S
C590 H582 0.951 . S
C590 C589 1.424 . S
C590 C591 1.347 1_545 S
C591 H583 0.951 . S
C591 C586 1.429 . S
C591 C590 1.347 1_565 S
C353 C20 1.488 . S
C368 C205 1.493 . S
C383 C145 1.486 . S
C398 C313 1.489 . S
C413 C29 1.485 . S
C428 C293 1.483 . S
C443 C225 1.499 . S
C458 C117 1.494 . S
C473 C284 1.503 . S
C488 C49 1.501 . S
C503 C108 1.494 . S
C518 C233 1.498 . S
C533 C57 1.482 . S
C548 C321 1.485 . S
C563 C137 1.473 . S
C578 C196 1.481 . S
