# Generated by pormake.
# Topology reo, (8)-cn, num edge types: 1
# Building blocks:
#     Node 0, Type 0, BuildingBlock: TAGTUT_clean_sbu_3, # of connection points: 8
#     Node 1, Type 0, BuildingBlock: TAGTUT_clean_sbu_3, # of connection points: 8
#     Node 2, Type 0, BuildingBlock: TAGTUT_clean_sbu_3, # of connection points: 8
#     Edge 3, Type (0, 0), BuildingBlock: ZUJKAS_clean_linker_0, # of connection points: 2
#     Edge 4, Type (0, 0), BuildingBlock: ZUJKAS_clean_linker_0, # of connection points: 2
#     Edge 5, Type (0, 0), BuildingBlock: ZUJKAS_clean_linker_0, # of connection points: 2
#     Edge 6, Type (0, 0), BuildingBlock: ZUJKAS_clean_linker_0, # of connection points: 2
#     Edge 7, Type (0, 0), BuildingBlock: ZUJKAS_clean_linker_0, # of connection points: 2
#     Edge 8, Type (0, 0), BuildingBlock: ZUJKAS_clean_linker_0, # of connection points: 2
#     Edge 9, Type (0, 0), BuildingBlock: ZUJKAS_clean_linker_0, # of connection points: 2
#     Edge 10, Type (0, 0), BuildingBlock: ZUJKAS_clean_linker_0, # of connection points: 2
#     Edge 11, Type (0, 0), BuildingBlock: ZUJKAS_clean_linker_0, # of connection points: 2
#     Edge 12, Type (0, 0), BuildingBlock: ZUJKAS_clean_linker_0, # of connection points: 2
#     Edge 13, Type (0, 0), BuildingBlock: ZUJKAS_clean_linker_0, # of connection points: 2
#     Edge 14, Type (0, 0), BuildingBlock: ZUJKAS_clean_linker_0, # of connection points: 2
# Relax obj value: 0.169
# Max RMSD: 0.190
# Mean RMSD: 0.190
data_MOF--net-reo--node1-TAGTUT_clean_sbu_3--edge1-ZUJKAS_clean_linker_0
_symmetry_space_group_name_H-M    P1
_symmetry_Int_Tables_number       1
_symmetry_cell_setting            triclinic
loop_
_symmetry_equiv_pos_as_xyz
'x, y, z'
_cell_length_a     29.628697
_cell_length_b     29.629378
_cell_length_c     29.676211
_cell_angle_alpha  90.877575
_cell_angle_beta   90.872312
_cell_angle_gamma 90.891415
loop_
_atom_site_label
_atom_site_type_symbol
_atom_site_fract_x
_atom_site_fract_y
_atom_site_fract_z
_atom_type_partial_charge
C0 C 0.96272 0.90693 0.53626 0.0
C1 C 0.81907 0.01289 0.52704 0.0
C2 C 0.88738 0.06211 0.40821 0.0
Mg3 Mg 0.06527 0.93222 0.50458 0.0
Mg4 Mg 0.10023 0.03888 0.50495 0.0
O5 O 0.0582 0.99554 0.48218 0.0
Mg6 Mg 0.9938 0.00445 0.49812 0.0
O7 O 0.92886 0.01052 0.51258 0.0
Mg8 Mg 0.90267 0.9663 0.46691 0.0
Mg9 Mg 0.90624 0.06965 0.50898 0.0
C10 C 0.02799 0.10292 0.46004 0.0
O11 O 0.00995 0.04826 0.56069 0.0
O12 O 0.13665 0.93601 0.47091 0.0
O13 O 0.95665 0.1016 0.55433 0.0
O14 O 0.09551 0.95568 0.57291 0.0
O15 O 0.15771 0.00955 0.47376 0.0
O16 O 0.10712 0.03015 0.57659 0.0
O17 O 0.97413 0.96183 0.43653 0.0
O18 O 0.0295 0.91122 0.43866 0.0
C19 C 0.99339 0.92673 0.42063 0.0
C20 C 0.16502 0.96827 0.46301 0.0
O21 O 0.99739 0.07182 0.46156 0.0
O22 O 0.83477 0.97928 0.50433 0.0
O23 O 0.06804 0.09839 0.47651 0.0
O24 O 0.88567 0.01979 0.41514 0.0
O25 O 0.84094 0.05034 0.53246 0.0
O26 O 0.89838 0.09004 0.43965 0.0
O27 O 0.99385 0.93742 0.53447 0.0
O28 O 0.92437 0.91229 0.51662 0.0
C29 C 0.10643 0.99158 0.59512 0.0
C30 C 0.99278 0.08607 0.57264 0.0
C31 C 0.42406 0.98868 0.92475 0.0
C32 C 0.4647 0.16216 0.96284 0.0
C33 C 0.59668 0.10807 0.98527 0.0
Mg34 Mg 0.47218 0.9 0.96778 0.0
Mg35 Mg 0.51501 0.90688 0.07097 0.0
O36 O 0.51693 0.9285 0.01136 0.0
Mg37 Mg 0.50102 0.99285 0.0031 0.0
O38 O 0.48439 0.05663 0.99221 0.0
Mg39 Mg 0.50672 0.06232 0.92878 0.0
Mg40 Mg 0.50766 0.09923 0.03476 0.0
C41 C 0.57701 0.99484 0.08512 0.0
O42 O 0.46212 0.99796 0.06876 0.0
O43 O 0.51127 0.83325 0.98251 0.0
O44 O 0.4801 0.06774 0.09551 0.0
O45 O 0.42121 0.88378 0.02226 0.0
O46 O 0.53951 0.84151 0.05325 0.0
O47 O 0.44597 0.89829 0.09219 0.0
O48 O 0.53824 0.99173 0.93646 0.0
O49 O 0.52147 0.92125 0.91345 0.0
C50 C 0.54049 0.95972 0.907 0.0
C51 C 0.5343 0.81871 0.0164 0.0
O52 O 0.56324 0.01128 0.04755 0.0
O53 O 0.47223 0.13324 0.93101 0.0
O54 O 0.56018 0.95838 0.10145 0.0
O55 O 0.57417 0.09516 0.95031 0.0
O56 O 0.47565 0.15558 0.00417 0.0
O57 O 0.579 0.10868 0.02423 0.0
O58 O 0.44004 0.97066 0.96048 0.0
O59 O 0.44152 0.02477 0.90865 0.0
C60 C 0.41452 0.8862 0.06457 0.0
C61 C 0.46119 0.02863 0.09976 0.0
C62 C 0.91128 0.53461 0.96584 0.0
C63 C 0.0144 0.531 0.82059 0.0
C64 C 0.07257 0.41596 0.88799 0.0
Mg65 Mg 0.93955 0.50481 0.06772 0.0
Mg66 Mg 0.0468 0.50806 0.10141 0.0
O67 O 0.00337 0.48443 0.05998 0.0
Mg68 Mg 0.01059 0.50007 0.99546 0.0
O69 O 0.01513 0.5151 0.93071 0.0
Mg70 Mg 0.97259 0.46774 0.90497 0.0
Mg71 Mg 0.07375 0.51676 0.90645 0.0
C72 C 0.11024 0.46406 0.02797 0.0
O73 O 0.05282 0.56454 0.01104 0.0
O74 O 0.94532 0.47231 0.13895 0.0
O75 O 0.10448 0.56381 0.9559 0.0
O76 O 0.96056 0.57389 0.09708 0.0
O77 O 0.01918 0.47434 0.15846 0.0
O78 O 0.03479 0.57914 0.11002 0.0
O79 O 0.96992 0.43641 0.97641 0.0
O80 O 0.92188 0.43742 0.03389 0.0
C81 C 0.93693 0.41881 -0.00207 0.0
C82 C 0.97799 0.46364 0.16649 0.0
O83 O 0.07807 0.46421 -0.00149 0.0
O84 O 0.98241 0.50642 0.8369 0.0
O85 O 0.10693 0.48245 0.06735 0.0
O86 O 0.02968 0.41935 0.88762 0.0
O87 O 0.0518 0.53889 0.84175 0.0
O88 O 0.09867 0.44945 0.89741 0.0
O89 O 0.94258 0.53425 0.99617 0.0
O90 O 0.91638 0.5148 0.92757 0.0
C91 C 0.99576 0.59677 0.10875 0.0
C92 C 0.08897 0.57998 0.99295 0.0
H93 H 0.90226 0.4132 0.18561 0.0
H94 H 0.89436 0.35831 0.24606 0.0
H95 H 0.02653 0.39663 0.29779 0.0
H96 H 0.03434 0.45174 0.23854 0.0
H97 H 0.94915 0.28686 0.25357 0.0
H98 H 0.95778 0.38493 0.41311 0.0
H99 H 0.94548 0.41074 0.35963 0.0
H100 H 0.00303 0.40107 0.37703 0.0
C101 C 0.92904 0.41087 0.21068 0.0
C102 C 0.96908 0.43662 0.20704 0.0
C103 C 0.92451 0.37942 0.24512 0.0
C104 C 0.95965 0.37368 0.27672 0.0
C105 C -0.00148 0.40111 0.27449 0.0
H106 H 0.07807 0.14967 0.39998 0.0
H107 H 0.05494 0.21622 0.35752 0.0
C108 C 0.00311 0.43236 0.24019 0.0
C109 C 0.95907 0.33521 0.30802 0.0
H110 H 0.98395 0.30739 0.41677 0.0
C111 C 0.9557 0.29139 0.28943 0.0
C112 C 0.96723 0.34103 0.35489 0.0
C113 C 0.96809 0.38705 0.37735 0.0
C114 C 0.96341 0.25343 0.31592 0.0
C115 C 0.97533 0.2596 0.36184 0.0
C116 C 0.97567 0.30303 0.38122 0.0
C117 C 0.98997 0.22136 0.38939 0.0
C118 C 0.96016 0.20696 0.29447 0.0
C119 C 0.96146 0.20331 0.42197 0.0
C120 C 0.97459 0.16544 0.44604 0.0
C121 C 0.01635 0.1453 0.43789 0.0
C122 C 0.04567 0.16463 0.40668 0.0
C123 C 0.03242 0.20232 0.38236 0.0
H124 H 0.9424 0.2073 0.26123 0.0
H125 H 0.99467 0.19394 0.28942 0.0
H126 H 0.94208 0.18324 0.31682 0.0
H127 H 0.9288 0.21795 0.42808 0.0
H128 H 0.95214 0.15185 0.47105 0.0
H129 H 0.88084 0.01233 0.33106 0.0
H130 H 0.84004 0.03078 0.26297 0.0
H131 H 0.8199 0.16613 0.3139 0.0
H132 H 0.86015 0.14707 0.38388 0.0
H133 H 0.74277 0.12971 0.29272 0.0
H134 H 0.84971 0.09508 0.14838 0.0
H135 H 0.85525 0.04785 0.18473 0.0
H136 H 0.87352 0.10335 0.20437 0.0
C137 C 0.86884 0.04647 0.32753 0.0
C138 C 0.87282 0.07793 0.36333 0.0
C139 C 0.84597 0.05727 0.28799 0.0
C140 C 0.82707 0.10004 0.28283 0.0
C141 C 0.8343 0.13293 0.31702 0.0
H142 H 0.64093 0.05374 0.05371 0.0
H143 H 0.69961 0.09487 0.09732 0.0
C144 C 0.8573 0.12203 0.35697 0.0
C145 C 0.79293 0.10609 0.24632 0.0
H146 H 0.76949 0.06669 0.13987 0.0
C147 C 0.74895 0.11744 0.25879 0.0
C148 C 0.80067 0.09165 0.20145 0.0
C149 C 0.84758 0.08439 0.18402 0.0
C150 C 0.71204 0.10911 0.22954 0.0
C151 C 0.7192 0.08746 0.18747 0.0
C152 C 0.76362 0.08169 0.17279 0.0
C153 C 0.68157 0.06569 0.16111 0.0
C154 C 0.6656 0.12187 0.24496 0.0
C155 C 0.65242 0.03494 0.18216 0.0
C156 C 0.61841 0.01218 0.15751 0.0
C157 C 0.61316 0.01913 0.11104 0.0
C158 C 0.64301 0.04906 0.08973 0.0
C159 C 0.67684 0.07222 0.11454 0.0
H160 H 0.66727 0.1531 0.26617 0.0
H161 H 0.6422 0.12736 0.21604 0.0
H162 H 0.6516 0.09453 0.26601 0.0
H163 H 0.65647 0.02778 0.21765 0.0
H164 H 0.5963 0.98903 0.17491 0.0
H165 H 0.95355 0.964 0.34646 0.0
H166 H 0.93506 0.92478 0.27447 0.0
H167 H 0.97383 0.79841 0.33285 0.0
H168 H 0.993 0.83713 0.40378 0.0
H169 H 0.00669 0.86961 0.22826 0.0
H170 H 0.85033 0.77279 0.2634 0.0
H171 H 0.86562 0.82498 0.29267 0.0
H172 H 0.89038 0.77267 0.30948 0.0
C173 C 0.95699 0.9277 0.34399 0.0
C174 C 0.97483 0.90342 0.38031 0.0
C175 C 0.94662 0.90549 0.30301 0.0
C176 C 0.95286 0.85879 0.29871 0.0
C177 C 0.96833 0.8344 0.3358 0.0
H178 H 0.05485 0.65092 0.15726 0.0
H179 H 0.04003 0.72534 0.18952 0.0
C180 C 0.97945 0.85654 0.37617 0.0
C181 C 0.94859 0.83506 0.25484 0.0
H182 H 0.90205 0.73801 0.21119 0.0
C183 C 0.98288 0.8417 0.22342 0.0
C184 C 0.91718 0.79922 0.24839 0.0
C185 C 0.87849 0.79219 0.28008 0.0
C186 C 0.98951 0.81027 0.18839 0.0
C187 C 0.96144 0.77127 0.18544 0.0
C188 C 0.92406 0.76756 0.21379 0.0
C189 C 0.97368 0.73097 0.1585 0.0
C190 C 0.0279 0.81794 0.15647 0.0
C191 C 0.94147 0.70941 0.1302 0.0
C192 C 0.9496 0.66653 0.11234 0.0
C193 C 0.9901 0.64441 0.12256 0.0
C194 C 0.02338 0.66711 0.14876 0.0
C195 C 0.01511 0.70992 0.16682 0.0
H196 H 0.03386 0.85459 0.15126 0.0
H197 H 0.05931 0.80408 0.17125 0.0
H198 H 0.02125 0.80117 0.12325 0.0
H199 H 0.90921 0.72492 0.12356 0.0
H200 H 0.92345 0.6501 0.0918 0.0
H201 H 0.39059 0.96996 0.10861 0.0
H202 H 0.34927 0.95205 0.17676 0.0
H203 H 0.43328 0.04683 0.25293 0.0
H204 H 0.47523 0.06462 0.18457 0.0
H205 H 0.37841 0.9191 0.2612 0.0
H206 H 0.30449 0.08996 0.27518 0.0
H207 H 0.3321 0.07027 0.22498 0.0
H208 H 0.36502 0.08929 0.27317 0.0
C209 C 0.40083 0.98639 0.14001 0.0
C210 C 0.43643 0.01835 0.14135 0.0
C211 C 0.37702 0.97628 0.17888 0.0
C212 C 0.38803 -0.00171 0.2198 0.0
C213 C 0.4239 0.02989 0.22149 0.0
H214 H 0.2465 0.0106 0.47155 0.0
H215 H 0.30678 0.01098 0.41639 0.0
C216 C 0.44777 0.04007 0.18248 0.0
C217 C 0.36063 0.9893 0.26013 0.0
H218 H 0.28793 0.03907 0.33287 0.0
C219 C 0.35876 0.94531 0.27713 0.0
C220 C 0.33479 0.02349 0.28049 0.0
C221 C 0.33373 0.07083 0.2624 0.0
C222 C 0.33205 0.93475 0.31441 0.0
C223 C 0.30607 0.96896 0.33463 0.0
C224 C 0.3082 0.01293 0.31764 0.0
C225 C 0.27509 0.96041 0.37251 0.0
C226 C 0.33225 0.88729 0.33204 0.0
C227 C 0.23818 0.93026 0.36727 0.0
C228 C 0.2039 0.92948 0.39928 0.0
C229 C 0.20573 0.95948 0.43641 0.0
C230 C 0.2442 0.98723 0.44313 0.0
C231 C 0.27861 0.98754 0.4116 0.0
H232 H 0.36326 0.86925 0.32214 0.0
H233 H 0.32979 0.88718 0.36934 0.0
H234 H 0.30278 0.86823 0.31759 0.0
H235 H 0.23426 0.90962 0.337 0.0
H236 H 0.17435 0.90818 0.39303 0.0
H237 H 0.03991 0.87926 0.58 0.0
H238 H 0.05089 0.80806 0.61954 0.0
H239 H 0.9138 0.76738 0.58657 0.0
H240 H 0.90273 0.83744 0.5467 0.0
H241 H 0.00403 0.77712 0.69244 0.0
H242 H 0.98274 0.65606 0.54923 0.0
H243 H 0.99223 0.71576 0.54139 0.0
H244 H 0.9367 0.69439 0.55388 0.0
C245 C 0.01228 0.85498 0.58086 0.0
C246 C 0.97054 0.86407 0.56 0.0
C247 C 0.0186 0.81431 0.60338 0.0
C248 C 0.98343 0.78203 0.60513 0.0
C249 C 0.94179 0.79118 0.58455 0.0
H250 H 0.93431 0.55944 0.7842 0.0
H251 H 0.92567 0.61693 0.72603 0.0
C252 C 0.93546 0.83158 0.56207 0.0
C253 C 0.9889 0.74004 0.63096 0.0
H254 H 0.97876 0.625 0.62322 0.0
C255 C -0.00109 0.74389 0.67721 0.0
C256 C 0.98208 0.69667 0.61097 0.0
C257 C 0.97327 0.69035 0.56105 0.0
C258 C 0.00128 0.7056 0.70422 0.0
C259 C 0.9935 0.66245 0.68445 0.0
C260 C 0.98412 0.65832 0.63817 0.0
C261 C 0.99695 0.62148 0.71179 0.0
C262 C 0.01183 0.71128 0.75392 0.0
C263 C 0.03957 0.60398 0.72129 0.0
C264 C 0.0446 0.57144 0.75434 0.0
C265 C 0.00703 0.55583 0.77838 0.0
C266 C 0.96378 0.57064 0.76606 0.0
C267 C 0.95882 0.60354 0.73303 0.0
H268 H 0.0142 0.74734 0.76462 0.0
H269 H 0.98535 0.69421 0.77388 0.0
H270 H 0.04443 0.69503 0.76194 0.0
H271 H 0.06928 0.61751 0.70511 0.0
H272 H 0.07832 0.5604 0.76287 0.0
H273 H 0.3473 0.95369 0.96195 0.0
H274 H 0.27542 0.93691 0.92165 0.0
H275 H 0.33951 0.96501 0.79532 0.0
H276 H 0.41036 0.98224 0.83509 0.0
H277 H 0.23338 0.00558 0.86544 0.0
H278 H 0.26411 0.84799 0.76964 0.0
H279 H 0.29516 0.8634 0.82066 0.0
H280 H 0.31119 0.88672 0.76746 0.0
C281 C 0.3461 0.95487 0.92549 0.0
C282 C 0.38406 0.96926 0.90143 0.0
C283 C 0.30516 0.94556 0.90262 0.0
C284 C 0.30239 0.94944 0.85555 0.0
C285 C 0.34113 0.96118 0.83156 0.0
H286 H 0.1532 0.05322 0.64821 0.0
H287 H 0.1885 0.03971 0.72147 0.0
C288 C 0.38151 0.97118 0.85429 0.0
C289 C 0.25874 0.94692 0.83091 0.0
H290 H 0.21344 0.90105 0.73434 0.0
C291 C 0.22801 0.9819 0.83756 0.0
C292 C 0.2515 0.9157 0.79506 0.0
C293 C 0.28204 0.87604 0.78803 0.0
C294 C 0.19269 0.98903 0.80651 0.0
C295 C 0.18871 0.96084 0.7677 0.0
C296 C 0.21674 0.92319 0.76369 0.0
C297 C 0.16 0.97235 0.72827 0.0
C298 C 0.16119 0.02769 0.81474 0.0
C299 C 0.13186 0.93928 0.70776 0.0
C300 C 0.11248 0.94658 0.66541 0.0
C301 C 0.12081 0.98718 0.64275 0.0
C302 C 0.1463 0.02155 0.66471 0.0
C303 C 0.16612 0.014 0.70691 0.0
H304 H 0.15674 0.03376 0.85143 0.0
H305 H 0.17599 0.05895 0.80057 0.0
H306 H 0.12755 0.0213 0.79869 0.0
H307 H 0.12665 0.90692 0.72355 0.0
H308 H 0.09243 0.91964 0.64967 0.0
H309 H 0.13136 0.40156 0.8203 0.0
H310 H 0.13673 0.33061 0.77734 0.0
H311 H 0.06012 0.26204 0.87883 0.0
H312 H 0.05276 0.33337 0.92054 0.0
H313 H 0.15495 0.23477 0.78334 0.0
H314 H 0.97213 0.27482 0.7714 0.0
H315 H 0.01306 0.31341 0.79659 0.0
H316 H 0.99328 0.26536 0.82738 0.0
C317 C 0.11752 0.37088 0.83437 0.0
C318 C 0.09104 0.37269 0.87309 0.0
C319 C 0.12061 0.33036 0.80987 0.0
C320 C 0.09777 0.29146 0.8244 0.0
C321 C 0.0773 0.29194 0.86673 0.0
H322 H 0.0424 0.0561 0.6445 0.0
H323 H 0.07395 0.10169 0.70749 0.0
C324 C 0.07319 0.33258 0.89056 0.0
C325 C 0.08607 0.25516 0.79128 0.0
H326 H 0.99672 0.21332 0.72913 0.0
C327 C 0.12037 0.22961 0.77166 0.0
C328 C 0.04089 0.24912 0.77574 0.0
C329 C 0.00271 0.2773 0.79349 0.0
C330 C 0.11066 0.19866 0.7362 0.0
C331 C 0.06555 0.19327 0.72048 0.0
C332 C 0.03129 0.21772 0.74121 0.0
C333 C 0.05265 0.16549 0.6803 0.0
C334 C 0.14874 0.17336 0.71472 0.0
C335 C 0.03037 0.18618 0.64419 0.0
C336 C 0.01172 0.16029 0.60885 0.0
C337 C 0.01542 0.11317 0.60863 0.0
C338 C 0.03945 0.09246 0.64374 0.0
C339 C 0.05767 0.11845 0.67959 0.0
H340 H 0.18228 0.18792 0.72465 0.0
H341 H 0.14748 0.13768 0.72555 0.0
H342 H 0.14536 0.17355 0.67741 0.0
H343 H 0.02618 0.22245 0.64407 0.0
H344 H 0.9939 0.17716 0.58194 0.0
H345 H 0.57965 0.03777 0.87534 0.0
H346 H 0.6183 0.04739 0.80345 0.0
H347 H 0.59227 0.90732 0.76949 0.0
H348 H 0.55395 0.89722 0.84062 0.0
H349 H 0.68536 0.9395 0.76307 0.0
H350 H 0.56149 0.04529 0.6716 0.0
H351 H 0.57695 0.06268 0.72823 0.0
H352 H 0.54597 0.01082 0.71883 0.0
C353 C 0.58197 0.00912 0.85248 0.0
C354 C 0.5637 0.96676 0.86381 0.0
C355 C 0.60377 0.01474 0.81135 0.0
C356 C 0.60754 0.97812 0.78112 0.0
C357 C 0.58935 0.93599 0.79232 0.0
H358 H 0.77079 0.93464 0.54215 0.0
H359 H 0.71239 0.92409 0.59877 0.0
C360 C 0.56752 0.93037 0.83311 0.0
C361 C 0.6328 0.98257 0.7389 0.0
H362 H 0.63056 0.03101 0.63535 0.0
C363 C 0.67338 0.95929 0.73498 0.0
C364 C 0.61681 0.00841 0.70258 0.0
C365 C 0.57276 0.03309 0.70509 0.0
C366 C 0.69924 0.96208 0.69597 0.0
C367 C 0.68328 0.98783 0.65938 0.0
C368 C 0.64238 0.01084 0.66321 0.0
C369 C 0.71089 0.99461 0.61882 0.0
C370 C 0.74426 0.93888 0.69512 0.0
C371 C 0.7267 0.03811 0.60908 0.0
C372 C 0.7594 0.04433 0.57642 0.0
C373 C 0.77715 0.00709 0.553 0.0
C374 C 0.75823 0.96397 0.5599 0.0
C375 C 0.72515 0.95783 0.5925 0.0
H376 H 0.75593 0.92941 0.72941 0.0
H377 H 0.74109 0.9075 0.67434 0.0
H378 H 0.77049 0.96089 0.68007 0.0
H379 H 0.71579 0.06701 0.62865 0.0
H380 H 0.77263 0.07816 0.5715 0.0
H381 H 0.11789 0.39298 0.97016 0.0
H382 H 0.18593 0.35233 0.95031 0.0
H383 H 0.26474 0.43948 0.03999 0.0
H384 H 0.19636 0.48074 0.05974 0.0
H385 H 0.2691 0.38096 0.91374 0.0
H386 H 0.2887 0.31218 0.0862 0.0
H387 H 0.23779 0.33919 0.06738 0.0
H388 H 0.2867 0.37262 0.08345 0.0
C389 C 0.14983 0.40409 0.98494 0.0
C390 C 0.15192 0.44027 0.01613 0.0
C391 C 0.18864 0.3807 0.97374 0.0
C392 C 0.23027 0.39274 0.99386 0.0
C393 C 0.23275 0.42936 0.02451 0.0
H394 H 0.47864 0.2447 0.00109 0.0
H395 H 0.42632 0.30751 0.001 0.0
C396 C 0.19376 0.4528 0.03581 0.0
C397 C 0.27036 0.3652 0.98438 0.0
H398 H 0.34345 0.29242 0.03346 0.0
C399 C 0.28569 0.36181 0.9399 0.0
C400 C 0.29156 0.34006 0.01855 0.0
C401 C 0.27524 0.34073 0.06652 0.0
C402 C 0.32193 0.33391 0.92872 0.0
C403 C 0.34276 0.3084 0.96285 0.0
C404 C 0.32768 0.31232 0.00737 0.0
C405 C 0.37901 0.27574 0.95369 0.0
C406 C 0.33768 0.33219 0.88066 0.0
C407 C 0.37083 0.23788 0.92541 0.0
C408 C 0.40118 0.20209 0.92489 0.0
C409 C 0.43949 0.20349 0.95334 0.0
C410 C 0.44917 0.24276 0.97901 0.0
C411 C 0.41932 0.27863 0.97901 0.0
H412 H 0.32796 0.36295 0.86213 0.0
H413 H 0.37488 0.32858 0.8792 0.0
H414 H 0.32166 0.30262 0.86306 0.0
H415 H 0.33954 0.23451 0.90624 0.0
H416 H 0.39276 0.17194 0.90522 0.0
H417 H 0.17839 0.60078 0.98546 0.0
H418 H 0.22129 0.66043 0.02493 0.0
H419 H 0.10118 0.70167 0.0938 0.0
H420 H 0.05742 0.64352 0.05192 0.0
H421 H 0.14434 0.77247 0.06812 0.0
H422 H 0.26988 0.6661 0.15046 0.0
H423 H 0.2694 0.65236 0.09152 0.0
H424 H 0.21934 0.64242 0.12413 0.0
C425 C 0.16106 0.62247 0.00903 0.0
C426 C 0.11468 0.6167 0.01651 0.0
C427 C 0.18579 0.65613 0.03221 0.0
C428 C 0.1649 0.68439 0.06386 0.0
C429 C 0.1183 0.67949 0.07053 0.0
H430 H 0.39088 0.85677 0.14883 0.0
H431 H 0.3202 0.81736 0.16765 0.0
C432 C 0.09341 0.646 0.04695 0.0
C433 C 0.19159 0.72104 0.08686 0.0
H434 H 0.29725 0.74207 0.12956 0.0
C435 C 0.17729 0.76578 0.08274 0.0
C436 C 0.23362 0.71272 0.10818 0.0
C437 C 0.24855 0.66569 0.11932 0.0
C438 C 0.20641 0.80221 0.09387 0.0
C439 C 0.25132 0.79353 0.10778 0.0
C440 C 0.26332 0.74904 0.11765 0.0
C441 C 0.28831 0.82737 0.10245 0.0
C442 C 0.18939 0.84953 0.08837 0.0
C443 C 0.29329 0.8476 0.06034 0.0
C444 C 0.33321 0.86997 0.04971 0.0
C445 C 0.36956 0.87212 0.08065 0.0
C446 C 0.3635 0.85533 0.12422 0.0
C447 C 0.32315 0.83283 0.13497 0.0
H448 H 0.15389 0.85166 0.09965 0.0
H449 H 0.21031 0.87467 0.1078 0.0
H450 H 0.18966 0.85834 0.05216 0.0
H451 H 0.26777 0.84305 0.03409 0.0
H452 H 0.33656 0.88306 0.01601 0.0
H453 H 0.652 0.15211 0.04707 0.0
H454 H 0.72553 0.18762 0.03317 0.0
H455 H 0.72066 0.13763 0.89597 0.0
H456 H 0.64739 0.10183 0.90939 0.0
H457 H 0.81174 0.15144 0.99461 0.0
H458 H 0.72518 0.27939 0.88917 0.0
H459 H 0.69442 0.2445 0.92789 0.0
H460 H 0.7151 0.22046 0.87651 0.0
C461 C 0.6669 0.14796 0.01419 0.0
C462 C 0.64354 0.12465 0.97923 0.0
C463 C 0.7089 0.16821 0.00631 0.0
C464 C 0.72806 0.16561 0.9634 0.0
C465 C 0.70609 0.14035 0.92915 0.0
H466 H 0.93173 0.37813 0.91354 0.0
H467 H 0.89174 0.30665 0.8938 0.0
C468 C 0.66419 0.12002 0.93697 0.0
C469 C 0.76884 0.19287 0.95382 0.0
H470 H 0.80043 0.29398 0.90981 0.0
C471 C 0.80967 0.1821 0.97522 0.0
C472 C 0.76617 0.23236 0.92777 0.0
C473 C 0.72294 0.24525 0.90403 0.0
C474 C 0.84708 0.21161 0.97392 0.0
C475 C 0.84296 0.25328 0.95168 0.0
C476 C 0.8035 0.26202 0.92684 0.0
C477 C 0.87371 0.29186 0.96254 0.0
C478 C 0.88991 0.19901 -0.00157 0.0
C479 C 0.87675 0.30695 0.00744 0.0
C480 C 0.89862 0.34746 0.01849 0.0
C481 C 0.91801 0.37408 0.9849 0.0
C482 C 0.91694 0.35822 0.94001 0.0
C483 C 0.89432 0.31748 0.92878 0.0
H484 H 0.89467 0.1619 0.99711 0.0
H485 H 0.91996 0.21595 0.98395 0.0
H486 H 0.88753 0.20925 0.03444 0.0
H487 H 0.86015 0.2885 0.03391 0.0
H488 H 0.89933 0.35844 0.05349 0.0
H489 H 0.88446 0.57768 0.0435 0.0
H490 H 0.81321 0.6165 0.05597 0.0
H491 H 0.76989 0.58282 0.92 0.0
H492 H 0.84012 0.54348 0.90751 0.0
H493 H 0.78187 0.68897 0.01071 0.0
H494 H 0.65947 0.54672 0.99003 0.0
H495 H 0.71926 0.53829 -0.00196 0.0
H496 H 0.69673 0.55143 0.9432 0.0
C497 C 0.85958 0.57814 0.01644 0.0
C498 C 0.86803 0.55733 0.97458 0.0
C499 C 0.81886 0.60026 0.02363 0.0
C500 C 0.78586 0.60173 0.98919 0.0
C501 C 0.79426 0.581 0.94747 0.0
H502 H 0.55964 0.77496 0.93877 0.0
H503 H 0.61726 0.71663 0.93269 0.0
C504 C 0.83474 0.55884 0.9403 0.0
C505 C 0.74411 0.62782 0.99543 0.0
H506 H 0.62897 0.6212 0.98629 0.0
C507 C 0.74846 0.67402 0.00587 0.0
C508 C 0.70051 0.60824 0.98893 0.0
C509 C 0.69361 0.55835 0.97987 0.0
C510 C 0.71048 0.70142 0.00887 0.0
C511 C 0.66708 0.68206 0.00142 0.0
C512 C 0.66246 0.63583 0.99156 0.0
C513 C 0.62641 0.70992 0.00469 0.0
C514 C 0.71687 0.75114 0.01936 0.0
C515 C 0.61142 0.72372 0.04713 0.0
C516 C 0.57871 0.75683 0.05074 0.0
C517 C 0.56046 0.77678 0.0119 0.0
C518 C 0.57298 0.76023 0.96929 0.0
C519 C 0.60592 0.72703 0.96573 0.0
H520 H 0.75294 0.7619 0.01884 0.0
H521 H 0.69764 0.77144 0.99469 0.0
H522 H 0.70352 0.75877 0.05333 0.0
H523 H 0.62683 0.71064 0.0775 0.0
H524 H 0.56947 0.76847 0.08409 0.0
loop_
_geom_bond_atom_site_label_1
_geom_bond_atom_site_label_2
_geom_bond_distance
_geom_bond_site_symmetry_2
_ccdc_geom_bond_type
C0 O27 1.312 1_655 S
C0 O28 1.208 . S
C1 O22 1.331 . S
C1 O25 1.244 1_565 S
C2 O24 1.264 1_545 S
C2 O26 1.273 . S
Mg3 O5 1.936 1_565 S
Mg3 O12 2.081 . S
Mg3 O14 2.023 . S
Mg3 O18 2.031 . S
Mg3 O27 2.291 . S
Mg4 O5 1.963 . S
Mg4 O15 1.942 . S
Mg4 O16 1.955 . S
Mg4 O23 1.986 . S
O5 Mg3 1.936 1_545 S
O5 Mg4 1.963 . S
O5 Mg6 1.915 . S
Mg6 O5 1.915 . S
Mg6 O7 1.915 1_455 S
Mg6 O11 2.013 . S
Mg6 O17 2.114 1_445 S
Mg6 O21 2.013 1_455 S
Mg6 O27 2.114 1_545 S
O7 Mg6 1.915 1_655 S
O7 Mg8 1.936 1_545 S
O7 Mg9 1.963 . S
Mg8 O7 1.936 1_565 S
Mg8 O17 2.291 . S
Mg8 O22 2.081 . S
Mg8 O24 2.023 . S
Mg8 O28 2.031 . S
Mg9 O7 1.963 . S
Mg9 O13 1.986 . S
Mg9 O25 1.942 . S
Mg9 O26 1.955 . S
C10 O21 1.191 1_455 S
C10 O23 1.307 . S
O11 Mg6 2.013 . S
O11 C30 1.191 1_455 S
O12 Mg3 2.081 . S
O12 C20 1.331 . S
O13 Mg9 1.986 . S
O13 C30 1.307 . S
O14 Mg3 2.023 . S
O14 C29 1.264 1_565 S
O15 Mg4 1.942 . S
O15 C20 1.244 1_545 S
O16 Mg4 1.955 . S
O16 C29 1.273 . S
O17 Mg6 2.114 1_665 S
O17 Mg8 2.291 . S
O17 C19 1.312 1_655 S
O18 Mg3 2.031 . S
O18 C19 1.208 . S
C19 O17 1.312 1_455 S
C19 O18 1.208 . S
C20 O12 1.331 . S
C20 O15 1.244 1_565 S
O21 Mg6 2.013 1_655 S
O21 C10 1.191 1_655 S
O22 C1 1.331 . S
O22 Mg8 2.081 . S
O23 Mg4 1.986 . S
O23 C10 1.307 . S
O24 C2 1.264 1_565 S
O24 Mg8 2.023 . S
O25 C1 1.244 1_545 S
O25 Mg9 1.942 . S
O26 C2 1.273 . S
O26 Mg9 1.955 . S
O27 C0 1.312 1_455 S
O27 Mg3 2.291 . S
O27 Mg6 2.114 1_565 S
O28 C0 1.208 . S
O28 Mg8 2.031 . S
C29 O14 1.264 1_545 S
C29 O16 1.273 . S
C30 O11 1.191 1_655 S
C30 O13 1.307 . S
C31 O58 1.312 1_545 S
C31 O59 1.208 . S
C32 O53 1.331 . S
C32 O56 1.244 1_556 S
C33 O55 1.264 1_554 S
C33 O57 1.273 . S
Mg34 O36 1.936 1_556 S
Mg34 O43 2.081 . S
Mg34 O45 2.023 . S
Mg34 O49 2.031 . S
Mg34 O58 2.291 . S
Mg35 O36 1.963 . S
Mg35 O46 1.942 . S
Mg35 O47 1.955 . S
Mg35 O54 1.986 . S
O36 Mg34 1.936 1_554 S
O36 Mg35 1.963 . S
O36 Mg37 1.915 1_565 S
Mg37 O36 1.915 1_545 S
Mg37 O38 1.915 . S
Mg37 O42 2.013 1_545 S
Mg37 O48 2.114 1_554 S
Mg37 O52 2.013 . S
Mg37 O58 2.114 1_544 S
O38 Mg37 1.915 . S
O38 Mg39 1.936 1_554 S
O38 Mg40 1.963 . S
Mg39 O38 1.936 1_556 S
Mg39 O48 2.291 . S
Mg39 O53 2.081 . S
Mg39 O55 2.023 . S
Mg39 O59 2.031 . S
Mg40 O38 1.963 . S
Mg40 O44 1.986 . S
Mg40 O56 1.942 . S
Mg40 O57 1.955 . S
C41 O52 1.191 1_565 S
C41 O54 1.307 . S
O42 Mg37 2.013 1_565 S
O42 C61 1.191 1_565 S
O43 Mg34 2.081 . S
O43 C51 1.331 . S
O44 Mg40 1.986 . S
O44 C61 1.307 . S
O45 Mg34 2.023 . S
O45 C60 1.264 1_556 S
O46 Mg35 1.942 . S
O46 C51 1.244 1_554 S
O47 Mg35 1.955 . S
O47 C60 1.273 . S
O48 Mg37 2.114 1_556 S
O48 Mg39 2.291 . S
O48 C50 1.312 1_545 S
O49 Mg34 2.031 . S
O49 C50 1.208 . S
C50 O48 1.312 1_565 S
C50 O49 1.208 . S
C51 O43 1.331 . S
C51 O46 1.244 1_556 S
O52 Mg37 2.013 . S
O52 C41 1.191 1_545 S
O53 C32 1.331 . S
O53 Mg39 2.081 . S
O54 Mg35 1.986 . S
O54 C41 1.307 . S
O55 C33 1.264 1_556 S
O55 Mg39 2.023 . S
O56 C32 1.244 1_554 S
O56 Mg40 1.942 . S
O57 C33 1.273 . S
O57 Mg40 1.955 . S
O58 C31 1.312 1_565 S
O58 Mg34 2.291 . S
O58 Mg37 2.114 1_566 S
O59 C31 1.208 . S
O59 Mg39 2.031 . S
C60 O45 1.264 1_554 S
C60 O47 1.273 . S
C61 O42 1.191 1_545 S
C61 O44 1.307 . S
C62 O89 1.312 1_556 S
C62 O90 1.208 . S
C63 O84 1.331 . S
C63 O87 1.244 1_655 S
C64 O86 1.264 1_455 S
C64 O88 1.273 . S
Mg65 O67 1.936 1_655 S
Mg65 O74 2.081 . S
Mg65 O76 2.023 . S
Mg65 O80 2.031 . S
Mg65 O89 2.291 . S
Mg66 O67 1.963 . S
Mg66 O77 1.942 . S
Mg66 O78 1.955 . S
Mg66 O85 1.986 . S
O67 Mg65 1.936 1_455 S
O67 Mg66 1.963 . S
O67 Mg68 1.915 . S
Mg68 O67 1.915 . S
Mg68 O69 1.915 1_554 S
Mg68 O73 2.013 . S
Mg68 O79 2.114 1_454 S
Mg68 O83 2.013 1_554 S
Mg68 O89 2.114 1_455 S
O69 Mg68 1.915 1_556 S
O69 Mg70 1.936 1_455 S
O69 Mg71 1.963 . S
Mg70 O69 1.936 1_655 S
Mg70 O79 2.291 . S
Mg70 O84 2.081 . S
Mg70 O86 2.023 . S
Mg70 O90 2.031 . S
Mg71 O69 1.963 . S
Mg71 O75 1.986 . S
Mg71 O87 1.942 . S
Mg71 O88 1.955 . S
C72 O83 1.191 1_554 S
C72 O85 1.307 . S
O73 Mg68 2.013 . S
O73 C92 1.191 1_554 S
O74 Mg65 2.081 . S
O74 C82 1.331 . S
O75 Mg71 1.986 . S
O75 C92 1.307 . S
O76 Mg65 2.023 . S
O76 C91 1.264 1_655 S
O77 Mg66 1.942 . S
O77 C82 1.244 1_455 S
O78 Mg66 1.955 . S
O78 C91 1.273 . S
O79 Mg68 2.114 1_656 S
O79 Mg70 2.291 . S
O79 C81 1.312 1_556 S
O80 Mg65 2.031 . S
O80 C81 1.208 . S
C81 O79 1.312 1_554 S
C81 O80 1.208 . S
C82 O74 1.331 . S
C82 O77 1.244 1_655 S
O83 Mg68 2.013 1_556 S
O83 C72 1.191 1_556 S
O84 C63 1.331 . S
O84 Mg70 2.081 . S
O85 Mg66 1.986 . S
O85 C72 1.307 . S
O86 C64 1.264 1_655 S
O86 Mg70 2.023 . S
O87 C63 1.244 1_455 S
O87 Mg71 1.942 . S
O88 C64 1.273 . S
O88 Mg71 1.955 . S
O89 C62 1.312 1_554 S
O89 Mg65 2.291 . S
O89 Mg68 2.114 1_655 S
O90 C62 1.208 . S
O90 Mg70 2.031 . S
C91 O76 1.264 1_455 S
C91 O78 1.273 . S
C92 O73 1.191 1_556 S
C92 O75 1.307 . S
H93 C101 0.929 . S
H94 C103 0.930 . S
H95 C105 0.930 . S
H96 C108 0.929 . S
H97 C111 0.930 . S
H98 C113 0.960 . S
H99 C113 0.960 1_655 S
H100 C113 0.960 . S
C101 H93 0.929 . S
C101 C102 1.377 . S
C101 C103 1.384 . S
C102 C101 1.377 . S
C102 C108 1.390 1_655 S
C103 H94 0.930 . S
C103 C101 1.384 . S
C103 C104 1.372 . S
C104 C103 1.372 . S
C104 C105 1.400 1_655 S
C104 C109 1.490 . S
C105 H95 0.930 . S
C105 C104 1.400 1_455 S
C105 C108 1.386 . S
H106 C122 0.930 . S
H107 C123 0.931 . S
C108 H96 0.929 . S
C108 C102 1.390 1_455 S
C108 C105 1.386 . S
C109 C104 1.490 . S
C109 C111 1.395 . S
C109 C112 1.403 1_655 S
H110 C116 0.930 . S
C111 H97 0.930 . S
C111 C109 1.395 . S
C111 C114 1.403 . S
C112 C109 1.403 1_455 S
C112 C113 1.524 . S
C112 C116 1.400 . S
C113 H98 0.960 . S
C113 H99 0.960 1_455 S
C113 H100 0.960 . S
C113 C112 1.524 . S
C114 C111 1.403 . S
C114 C115 1.392 . S
C114 C118 1.495 . S
C115 C114 1.392 . S
C115 C116 1.385 1_655 S
C115 C117 1.478 . S
C116 H110 0.930 . S
C116 C112 1.400 . S
C116 C115 1.385 1_455 S
C117 C115 1.478 . S
C117 C119 1.381 . S
C117 C123 1.383 1_655 S
C118 C114 1.495 . S
C118 H124 0.959 . S
C118 H125 0.961 . S
C118 H126 0.960 . S
C119 C117 1.381 . S
C119 C120 1.394 . S
C119 H127 0.930 . S
C120 C119 1.394 . S
C120 C121 1.383 1_655 S
C120 H128 0.929 . S
C121 C120 1.383 1_455 S
C121 C122 1.377 . S
C122 H106 0.930 . S
C122 C121 1.377 . S
C122 C123 1.379 . S
C123 H107 0.931 . S
C123 C117 1.383 1_455 S
C123 C122 1.379 . S
H124 C118 0.959 . S
H125 C118 0.961 . S
H126 C118 0.960 . S
H127 C119 0.930 . S
H128 C120 0.929 . S
H129 C137 0.929 . S
H130 C139 0.930 . S
H131 C141 0.930 . S
H132 C144 0.929 . S
H133 C147 0.930 . S
H134 C149 0.960 . S
H135 C149 0.960 . S
H136 C149 0.960 1_545 S
C137 H129 0.929 . S
C137 C138 1.377 1_565 S
C137 C139 1.384 . S
C138 C137 1.377 1_545 S
C138 C144 1.390 . S
C139 H130 0.930 . S
C139 C137 1.384 . S
C139 C140 1.372 1_565 S
C140 C139 1.372 1_545 S
C140 C141 1.400 . S
C140 C145 1.490 . S
C141 H131 0.930 . S
C141 C140 1.400 . S
C141 C144 1.386 . S
H142 C158 0.930 . S
H143 C159 0.931 . S
C144 H132 0.929 . S
C144 C138 1.390 . S
C144 C141 1.386 . S
C145 C140 1.490 . S
C145 C147 1.395 . S
C145 C148 1.403 1_545 S
H146 C152 0.930 . S
C147 H133 0.930 . S
C147 C145 1.395 . S
C147 C150 1.403 . S
C148 C145 1.403 1_565 S
C148 C149 1.524 . S
C148 C152 1.400 . S
C149 H134 0.960 . S
C149 H135 0.960 . S
C149 H136 0.960 1_565 S
C149 C148 1.524 . S
C150 C147 1.403 . S
C150 C151 1.392 . S
C150 C154 1.495 . S
C151 C150 1.392 . S
C151 C152 1.385 1_545 S
C151 C153 1.478 . S
C152 H146 0.930 . S
C152 C148 1.400 . S
C152 C151 1.385 1_565 S
C153 C151 1.478 . S
C153 C155 1.381 1_545 S
C153 C159 1.383 . S
C154 C150 1.495 . S
C154 H160 0.959 . S
C154 H161 0.961 . S
C154 H162 0.947 1_545 S
C155 C153 1.381 1_565 S
C155 C156 1.394 . S
C155 H163 0.930 . S
C156 C155 1.394 . S
C156 C157 1.383 1_565 S
C156 H164 0.929 . S
C157 C156 1.383 1_545 S
C157 C158 1.377 . S
C158 H142 0.930 . S
C158 C157 1.377 . S
C158 C159 1.379 . S
C159 H143 0.931 . S
C159 C153 1.383 . S
C159 C158 1.379 . S
H160 C154 0.959 . S
H161 C154 0.961 . S
H162 C154 0.947 1_565 S
H163 C155 0.930 . S
H164 C156 0.929 . S
H165 C173 0.929 . S
H166 C175 0.930 . S
H167 C177 0.930 . S
H168 C180 0.929 . S
H169 C183 0.930 . S
H170 C185 0.960 . S
H171 C185 0.960 . S
H172 C185 0.960 1_455 S
C173 H165 0.929 . S
C173 C174 1.393 . S
C173 C175 1.384 . S
C174 C173 1.393 . S
C174 C180 1.374 1_655 S
C175 H166 0.930 . S
C175 C173 1.384 . S
C175 C176 1.358 1_655 S
C176 C175 1.358 1_455 S
C176 C177 1.413 . S
C176 C181 1.491 . S
C177 H167 0.930 . S
C177 C176 1.413 . S
C177 C180 1.386 . S
H178 C194 0.930 . S
H179 C195 0.931 . S
C180 H168 0.929 . S
C180 C174 1.374 1_455 S
C180 C177 1.386 . S
C181 C176 1.491 . S
C181 C183 1.395 . S
C181 C184 1.403 1_455 S
H182 C188 0.930 . S
C183 H169 0.930 . S
C183 C181 1.395 . S
C183 C186 1.403 . S
C184 C181 1.403 1_655 S
C184 C185 1.524 . S
C184 C188 1.400 1_655 S
C185 H170 0.960 . S
C185 H171 0.960 . S
C185 H172 0.960 1_655 S
C185 C184 1.524 . S
C186 C183 1.403 . S
C186 C187 1.392 . S
C186 C190 1.495 . S
C187 C186 1.392 . S
C187 C188 1.385 . S
C187 C189 1.478 . S
C188 H182 0.930 . S
C188 C184 1.400 1_455 S
C188 C187 1.385 . S
C189 C187 1.478 . S
C189 C191 1.381 1_455 S
C189 C195 1.383 . S
C190 C186 1.495 . S
C190 H196 0.959 . S
C190 H197 0.961 . S
C190 H198 0.960 1_455 S
C191 C189 1.381 1_655 S
C191 C192 1.394 . S
C191 H199 0.930 . S
C192 C191 1.394 . S
C192 C193 1.383 1_655 S
C192 H200 0.929 . S
C193 C192 1.383 1_455 S
C193 C194 1.377 . S
C194 H178 0.930 . S
C194 C193 1.377 . S
C194 C195 1.379 . S
C195 H179 0.931 . S
C195 C189 1.383 . S
C195 C194 1.379 . S
H196 C190 0.959 . S
H197 C190 0.961 . S
H198 C190 0.960 1_655 S
H199 C191 0.930 . S
H200 C192 0.929 . S
H201 C209 0.929 . S
H202 C211 0.930 . S
H203 C213 0.930 . S
H204 C216 0.929 . S
H205 C219 0.930 . S
H206 C221 0.960 . S
H207 C221 0.960 . S
H208 C221 0.960 . S
C209 H201 0.929 . S
C209 C210 1.377 1_565 S
C209 C211 1.384 . S
C210 C209 1.377 1_545 S
C210 C216 1.390 . S
C211 H202 0.930 . S
C211 C209 1.384 . S
C211 C212 1.376 . S
C212 C211 1.376 . S
C212 C213 1.396 1_565 S
C212 C217 1.490 . S
C213 H203 0.930 . S
C213 C212 1.396 1_545 S
C213 C216 1.386 . S
H214 C230 0.930 . S
H215 C231 0.931 . S
C216 H204 0.929 . S
C216 C210 1.390 . S
C216 C213 1.386 . S
C217 C212 1.490 . S
C217 C219 1.395 . S
C217 C220 1.403 1_565 S
H218 C224 0.930 . S
C219 H205 0.930 . S
C219 C217 1.395 . S
C219 C222 1.403 . S
C220 C217 1.403 1_545 S
C220 C221 1.524 . S
C220 C224 1.400 . S
C221 H206 0.960 . S
C221 H207 0.960 . S
C221 H208 0.960 . S
C221 C220 1.524 . S
C222 C219 1.403 . S
C222 C223 1.392 . S
C222 C226 1.495 . S
C223 C222 1.392 . S
C223 C224 1.385 1_565 S
C223 C225 1.478 . S
C224 H218 0.930 . S
C224 C220 1.400 . S
C224 C223 1.385 1_545 S
C225 C223 1.478 . S
C225 C227 1.381 . S
C225 C231 1.383 1_565 S
C226 C222 1.495 . S
C226 H232 0.959 . S
C226 H233 0.961 . S
C226 H234 0.960 . S
C227 C225 1.381 . S
C227 C228 1.394 . S
C227 H235 0.930 . S
C228 C227 1.394 . S
C228 C229 1.383 . S
C228 H236 0.929 . S
C229 C228 1.383 . S
C229 C230 1.377 1_565 S
C230 H214 0.930 . S
C230 C229 1.377 1_545 S
C230 C231 1.379 . S
C231 H215 0.931 . S
C231 C225 1.383 1_545 S
C231 C230 1.379 . S
H232 C226 0.959 . S
H233 C226 0.961 . S
H234 C226 0.960 . S
H235 C227 0.930 . S
H236 C228 0.929 . S
H237 C245 0.929 . S
H238 C247 0.930 . S
H239 C249 0.930 . S
H240 C252 0.929 . S
H241 C255 0.930 . S
H242 C257 0.960 . S
H243 C257 0.960 . S
H244 C257 0.960 . S
C245 H237 0.929 . S
C245 C246 1.377 . S
C245 C247 1.384 . S
C246 C245 1.377 . S
C246 C252 1.390 1_455 S
C247 H238 0.930 . S
C247 C245 1.384 . S
C247 C248 1.372 . S
C248 C247 1.372 . S
C248 C249 1.400 1_455 S
C248 C253 1.490 . S
C249 H239 0.930 . S
C249 C248 1.400 1_655 S
C249 C252 1.386 . S
H250 C266 0.930 . S
H251 C267 0.931 . S
C252 H240 0.929 . S
C252 C246 1.390 1_655 S
C252 C249 1.386 . S
C253 C248 1.490 . S
C253 C255 1.395 . S
C253 C256 1.403 1_455 S
H254 C260 0.930 . S
C255 H241 0.930 . S
C255 C253 1.395 . S
C255 C258 1.403 . S
C256 C253 1.403 1_655 S
C256 C257 1.524 . S
C256 C260 1.400 . S
C257 H242 0.960 . S
C257 H243 0.960 . S
C257 H244 0.960 . S
C257 C256 1.524 . S
C258 C255 1.403 . S
C258 C259 1.392 . S
C258 C262 1.495 . S
C259 C258 1.392 . S
C259 C260 1.385 1_455 S
C259 C261 1.478 . S
C260 H254 0.930 . S
C260 C256 1.400 . S
C260 C259 1.385 1_655 S
C261 C259 1.478 . S
C261 C263 1.381 . S
C261 C267 1.383 1_455 S
C262 C258 1.495 . S
C262 H268 0.959 . S
C262 H269 0.961 . S
C262 H270 0.960 . S
C263 C261 1.381 . S
C263 C264 1.394 . S
C263 H271 0.930 . S
C264 C263 1.394 . S
C264 C265 1.383 1_455 S
C264 H272 0.929 . S
C265 C264 1.383 1_655 S
C265 C266 1.377 . S
C266 H250 0.930 . S
C266 C265 1.377 . S
C266 C267 1.379 . S
C267 H251 0.931 . S
C267 C261 1.383 1_655 S
C267 C266 1.379 . S
H268 C262 0.959 . S
H269 C262 0.961 . S
H270 C262 0.960 . S
H271 C263 0.930 . S
H272 C264 0.929 . S
H273 C281 0.929 . S
H274 C283 0.930 . S
H275 C285 0.930 . S
H276 C288 0.929 . S
H277 C291 0.930 . S
H278 C293 0.960 . S
H279 C293 0.960 . S
H280 C293 0.960 . S
C281 H273 0.929 . S
C281 C282 1.375 1_545 S
C281 C283 1.384 . S
C282 C281 1.375 1_565 S
C282 C288 1.392 . S
C283 H274 0.930 . S
C283 C281 1.384 . S
C283 C284 1.372 . S
C284 C283 1.372 . S
C284 C285 1.400 1_545 S
C284 C289 1.490 . S
C285 H275 0.930 . S
C285 C284 1.400 1_565 S
C285 C288 1.386 . S
H286 C302 0.930 . S
H287 C303 0.931 . S
C288 H276 0.929 . S
C288 C282 1.392 . S
C288 C285 1.386 . S
C289 C284 1.490 . S
C289 C291 1.395 . S
C289 C292 1.403 1_545 S
H290 C296 0.930 . S
C291 H277 0.930 . S
C291 C289 1.395 . S
C291 C294 1.403 . S
C292 C289 1.403 1_565 S
C292 C293 1.524 . S
C292 C296 1.400 . S
C293 H278 0.960 . S
C293 H279 0.960 . S
C293 H280 0.960 . S
C293 C292 1.524 . S
C294 C291 1.403 . S
C294 C295 1.392 . S
C294 C298 1.495 . S
C295 C294 1.392 . S
C295 C296 1.385 1_545 S
C295 C297 1.478 . S
C296 H290 0.930 . S
C296 C292 1.400 . S
C296 C295 1.385 1_565 S
C297 C295 1.478 . S
C297 C299 1.381 . S
C297 C303 1.383 . S
C298 C294 1.495 . S
C298 H304 0.959 . S
C298 H305 0.961 . S
C298 H306 0.960 . S
C299 C297 1.381 . S
C299 C300 1.394 . S
C299 H307 0.930 . S
C300 C299 1.394 . S
C300 C301 1.383 . S
C300 H308 0.929 . S
C301 C300 1.383 . S
C301 C302 1.377 . S
C302 H286 0.930 . S
C302 C301 1.377 . S
C302 C303 1.379 . S
C303 H287 0.931 . S
C303 C297 1.383 . S
C303 C302 1.379 . S
H304 C298 0.959 . S
H305 C298 0.961 . S
H306 C298 0.960 . S
H307 C299 0.930 . S
H308 C300 0.929 . S
H309 C317 0.929 . S
H310 C319 0.930 . S
H311 C321 0.930 . S
H312 C324 0.929 . S
H313 C327 0.930 . S
H314 C329 0.960 . S
H315 C329 0.960 . S
H316 C329 0.960 . S
C317 H309 0.929 . S
C317 C318 1.377 . S
C317 C319 1.384 . S
C318 C317 1.377 . S
C318 C324 1.390 1_455 S
C319 H310 0.930 . S
C319 C317 1.384 . S
C319 C320 1.372 . S
C320 C319 1.372 . S
C320 C321 1.400 1_455 S
C320 C325 1.490 . S
C321 H311 0.930 . S
C321 C320 1.400 1_655 S
C321 C324 1.386 . S
H322 C338 0.930 . S
H323 C339 0.931 1_655 S
C324 H312 0.929 . S
C324 C318 1.390 1_655 S
C324 C321 1.386 . S
C325 C320 1.490 . S
C325 C327 1.395 . S
C325 C328 1.403 1_455 S
H326 C332 0.930 . S
C327 H313 0.930 . S
C327 C325 1.395 . S
C327 C330 1.403 . S
C328 C325 1.403 1_655 S
C328 C329 1.524 . S
C328 C332 1.400 . S
C329 H314 0.960 . S
C329 H315 0.960 . S
C329 H316 0.960 . S
C329 C328 1.524 . S
C330 C327 1.403 . S
C330 C331 1.392 . S
C330 C334 1.495 . S
C331 C330 1.392 . S
C331 C332 1.385 1_455 S
C331 C333 1.478 . S
C332 H326 0.930 . S
C332 C328 1.400 . S
C332 C331 1.385 1_655 S
C333 C331 1.478 . S
C333 C335 1.381 . S
C333 C339 1.383 . S
C334 C330 1.495 . S
C334 H340 0.959 . S
C334 H341 0.961 . S
C334 H342 0.960 . S
C335 C333 1.381 . S
C335 C336 1.394 . S
C335 H343 0.930 . S
C336 C335 1.394 . S
C336 C337 1.383 . S
C336 H344 0.929 . S
C337 C336 1.383 . S
C337 C338 1.377 1_455 S
C338 H322 0.930 . S
C338 C337 1.377 1_655 S
C338 C339 1.379 1_655 S
C339 H323 0.931 1_455 S
C339 C333 1.383 . S
C339 C338 1.379 1_455 S
H340 C334 0.959 . S
H341 C334 0.961 . S
H342 C334 0.960 . S
H343 C335 0.930 . S
H344 C336 0.929 . S
H345 C353 0.929 . S
H346 C355 0.930 . S
H347 C357 0.930 . S
H348 C360 0.929 . S
H349 C363 0.930 . S
H350 C365 0.960 . S
H351 C365 0.960 . S
H352 C365 0.960 1_565 S
C353 H345 0.929 . S
C353 C354 1.377 . S
C353 C355 1.384 . S
C354 C353 1.377 . S
C354 C360 1.390 1_545 S
C355 H346 0.930 . S
C355 C353 1.384 . S
C355 C356 1.372 . S
C356 C355 1.372 . S
C356 C357 1.400 1_545 S
C356 C361 1.491 . S
C357 H347 0.930 . S
C357 C356 1.400 1_565 S
C357 C360 1.386 . S
H358 C374 0.930 . S
H359 C375 0.931 . S
C360 H348 0.929 . S
C360 C354 1.390 1_565 S
C360 C357 1.386 . S
C361 C356 1.491 . S
C361 C363 1.391 1_545 S
C361 C364 1.406 . S
H362 C368 0.930 . S
C363 H349 0.930 . S
C363 C361 1.391 1_565 S
C363 C366 1.403 . S
C364 C361 1.406 . S
C364 C365 1.524 . S
C364 C368 1.400 . S
C365 H350 0.960 . S
C365 H351 0.960 . S
C365 H352 0.960 1_545 S
C365 C364 1.524 . S
C366 C363 1.403 . S
C366 C367 1.392 . S
C366 C370 1.495 . S
C367 C366 1.392 . S
C367 C368 1.385 1_565 S
C367 C369 1.478 . S
C368 H362 0.930 . S
C368 C364 1.400 . S
C368 C367 1.385 1_545 S
C369 C367 1.478 . S
C369 C371 1.381 1_565 S
C369 C375 1.383 . S
C370 C366 1.495 . S
C370 H376 0.959 . S
C370 H377 0.961 . S
C370 H378 0.960 1_565 S
C371 C369 1.381 1_545 S
C371 C372 1.394 . S
C371 H379 0.930 . S
C372 C371 1.394 . S
C372 C373 1.383 1_545 S
C372 H380 0.929 . S
C373 C372 1.383 1_565 S
C373 C374 1.377 . S
C374 H358 0.930 . S
C374 C373 1.377 . S
C374 C375 1.379 . S
C375 H359 0.931 . S
C375 C369 1.383 . S
C375 C374 1.379 . S
H376 C370 0.959 . S
H377 C370 0.961 . S
H378 C370 0.960 1_545 S
H379 C371 0.930 . S
H380 C372 0.929 . S
H381 C389 0.929 . S
H382 C391 0.930 . S
H383 C393 0.930 . S
H384 C396 0.929 . S
H385 C399 0.930 . S
H386 C401 0.960 . S
H387 C401 0.960 . S
H388 C401 0.960 . S
C389 H381 0.929 . S
C389 C390 1.377 1_556 S
C389 C391 1.384 . S
C390 C389 1.377 1_554 S
C390 C396 1.390 . S
C391 H382 0.930 . S
C391 C389 1.384 . S
C391 C392 1.372 1_556 S
C392 C391 1.372 1_554 S
C392 C393 1.400 . S
C392 C397 1.490 1_554 S
C393 H383 0.930 . S
C393 C392 1.400 . S
C393 C396 1.386 . S
H394 C410 0.930 . S
H395 C411 0.931 . S
C396 H384 0.929 . S
C396 C390 1.390 . S
C396 C393 1.386 . S
C397 C392 1.490 1_556 S
C397 C399 1.395 . S
C397 C400 1.403 1_556 S
H398 C404 0.930 . S
C399 H385 0.930 . S
C399 C397 1.395 . S
C399 C402 1.403 . S
C400 C397 1.403 1_554 S
C400 C401 1.524 . S
C400 C404 1.400 . S
C401 H386 0.960 . S
C401 H387 0.960 . S
C401 H388 0.960 . S
C401 C400 1.524 . S
C402 C399 1.403 . S
C402 C403 1.392 . S
C402 C406 1.495 . S
C403 C402 1.392 . S
C403 C404 1.385 1_556 S
C403 C405 1.478 . S
C404 H398 0.930 . S
C404 C400 1.400 . S
C404 C403 1.385 1_554 S
C405 C403 1.478 . S
C405 C407 1.381 . S
C405 C411 1.383 . S
C406 C402 1.495 . S
C406 H412 0.959 . S
C406 H413 0.961 . S
C406 H414 0.960 . S
C407 C405 1.381 . S
C407 C408 1.394 . S
C407 H415 0.930 . S
C408 C407 1.394 . S
C408 C409 1.383 . S
C408 H416 0.929 . S
C409 C408 1.383 . S
C409 C410 1.377 . S
C410 H394 0.930 . S
C410 C409 1.377 . S
C410 C411 1.379 . S
C411 H395 0.931 . S
C411 C405 1.383 . S
C411 C410 1.379 . S
H412 C406 0.959 . S
H413 C406 0.961 . S
H414 C406 0.960 . S
H415 C407 0.930 . S
H416 C408 0.929 . S
H417 C425 0.929 . S
H418 C427 0.930 . S
H419 C429 0.930 . S
H420 C432 0.929 . S
H421 C435 0.930 . S
H422 C437 0.960 . S
H423 C437 0.960 . S
H424 C437 0.960 . S
C425 H417 0.929 . S
C425 C426 1.377 1_556 S
C425 C427 1.384 . S
C426 C425 1.377 1_554 S
C426 C432 1.390 . S
C427 H418 0.930 . S
C427 C425 1.384 . S
C427 C428 1.372 1_556 S
C428 C427 1.372 1_554 S
C428 C429 1.400 . S
C428 C433 1.490 . S
C429 H419 0.930 . S
C429 C428 1.400 . S
C429 C432 1.386 . S
H430 C446 0.930 . S
H431 C447 0.931 . S
C432 H420 0.929 . S
C432 C426 1.390 . S
C432 C429 1.386 . S
C433 C428 1.490 . S
C433 C435 1.395 1_554 S
C433 C436 1.403 . S
H434 C440 0.930 . S
C435 H421 0.930 . S
C435 C433 1.395 1_556 S
C435 C438 1.403 . S
C436 C433 1.403 . S
C436 C437 1.524 . S
C436 C440 1.400 . S
C437 H422 0.960 . S
C437 H423 0.960 . S
C437 H424 0.960 . S
C437 C436 1.524 . S
C438 C435 1.403 . S
C438 C439 1.392 . S
C438 C442 1.495 . S
C439 C438 1.392 . S
C439 C440 1.385 1_556 S
C439 C441 1.478 . S
C440 H434 0.930 . S
C440 C436 1.400 . S
C440 C439 1.385 1_554 S
C441 C439 1.478 . S
C441 C443 1.387 . S
C441 C447 1.376 1_556 S
C442 C438 1.495 . S
C442 H448 0.959 . S
C442 H449 0.961 . S
C442 H450 0.960 . S
C443 C441 1.387 . S
C443 C444 1.394 . S
C443 H451 0.930 . S
C444 C443 1.394 . S
C444 C445 1.383 1_556 S
C444 H452 0.929 . S
C445 C444 1.383 1_554 S
C445 C446 1.377 . S
C446 H430 0.930 . S
C446 C445 1.377 . S
C446 C447 1.379 . S
C447 H431 0.931 . S
C447 C441 1.376 1_554 S
C447 C446 1.379 . S
H448 C442 0.959 . S
H449 C442 0.961 . S
H450 C442 0.960 . S
H451 C443 0.930 . S
H452 C444 0.929 . S
H453 C461 0.929 . S
H454 C463 0.930 . S
H455 C465 0.930 . S
H456 C468 0.929 . S
H457 C471 0.931 . S
H458 C473 0.960 . S
H459 C473 0.960 . S
H460 C473 0.960 . S
C461 H453 0.929 . S
C461 C462 1.377 . S
C461 C463 1.384 . S
C462 C461 1.377 . S
C462 C468 1.390 1_554 S
C463 H454 0.930 . S
C463 C461 1.384 . S
C463 C464 1.372 . S
C464 C463 1.372 . S
C464 C465 1.400 1_554 S
C464 C469 1.490 . S
C465 H455 0.930 . S
C465 C464 1.400 1_556 S
C465 C468 1.386 . S
H466 C482 0.930 . S
H467 C483 0.931 . S
C468 H456 0.929 . S
C468 C462 1.390 1_556 S
C468 C465 1.386 . S
C469 C464 1.490 . S
C469 C471 1.395 . S
C469 C472 1.403 . S
H470 C476 0.930 . S
C471 H457 0.931 . S
C471 C469 1.395 . S
C471 C474 1.405 . S
C472 C469 1.403 . S
C472 C473 1.524 . S
C472 C476 1.400 . S
C473 H458 0.960 . S
C473 H459 0.960 . S
C473 H460 0.960 . S
C473 C472 1.524 . S
C474 C471 1.405 . S
C474 C475 1.393 . S
C474 C478 1.493 1_554 S
C475 C474 1.393 . S
C475 C476 1.385 . S
C475 C477 1.478 . S
C476 H470 0.930 . S
C476 C472 1.400 . S
C476 C475 1.385 . S
C477 C475 1.478 . S
C477 C479 1.381 . S
C477 C483 1.383 1_554 S
C478 C474 1.493 1_556 S
C478 H484 0.959 . S
C478 H485 0.961 . S
C478 H486 0.960 1_556 S
C479 C477 1.381 . S
C479 C480 1.394 . S
C479 H487 0.930 . S
C480 C479 1.394 . S
C480 C481 1.363 1_554 S
C480 H488 0.929 . S
C481 C480 1.363 1_556 S
C481 C482 1.395 . S
C482 H466 0.930 . S
C482 C481 1.395 . S
C482 C483 1.379 . S
C483 H467 0.931 . S
C483 C477 1.383 1_556 S
C483 C482 1.379 . S
H484 C478 0.959 . S
H485 C478 0.961 . S
H486 C478 0.960 1_554 S
H487 C479 0.930 . S
H488 C480 0.929 . S
H489 C497 0.929 . S
H490 C499 0.930 . S
H491 C501 0.930 . S
H492 C504 0.929 . S
H493 C507 0.930 . S
H494 C509 0.960 . S
H495 C509 0.960 . S
H496 C509 0.960 . S
C497 H489 0.929 . S
C497 C498 1.377 . S
C497 C499 1.384 . S
C498 C497 1.377 . S
C498 C504 1.390 1_554 S
C499 H490 0.930 . S
C499 C497 1.384 . S
C499 C500 1.372 . S
C500 C499 1.372 . S
C500 C501 1.400 1_554 S
C500 C505 1.490 . S
C501 H491 0.930 . S
C501 C500 1.400 1_556 S
C501 C504 1.386 . S
H502 C518 0.930 . S
H503 C519 0.931 . S
C504 H492 0.929 . S
C504 C498 1.390 1_556 S
C504 C501 1.386 . S
C505 C500 1.490 . S
C505 C507 1.395 . S
C505 C508 1.403 1_554 S
H506 C512 0.930 . S
C507 H493 0.930 . S
C507 C505 1.395 . S
C507 C510 1.403 . S
C508 C505 1.403 1_556 S
C508 C509 1.524 . S
C508 C512 1.400 . S
C509 H494 0.960 . S
C509 H495 0.960 . S
C509 H496 0.960 . S
C509 C508 1.524 . S
C510 C507 1.403 . S
C510 C511 1.392 . S
C510 C514 1.495 . S
C511 C510 1.392 . S
C511 C512 1.385 1_554 S
C511 C513 1.479 . S
C512 H506 0.930 . S
C512 C508 1.400 . S
C512 C511 1.385 1_556 S
C513 C511 1.479 . S
C513 C515 1.398 . S
C513 C519 1.364 1_554 S
C514 C510 1.495 . S
C514 H520 0.959 . S
C514 H521 0.961 . S
C514 H522 0.960 . S
C515 C513 1.398 . S
C515 C516 1.394 . S
C515 H523 0.930 . S
C516 C515 1.394 . S
C516 C517 1.383 1_554 S
C516 H524 0.929 . S
C517 C516 1.383 1_556 S
C517 C518 1.377 . S
C518 H502 0.930 . S
C518 C517 1.377 . S
C518 C519 1.379 . S
C519 H503 0.931 . S
C519 C513 1.364 1_556 S
C519 C518 1.379 . S
H520 C514 0.959 . S
H521 C514 0.961 . S
H522 C514 0.960 . S
H523 C515 0.930 . S
H524 C516 0.929 . S
C102 C82 1.168 . S
C121 C10 1.168 . S
C138 C2 1.219 . S
C157 C41 1.178 1_545 S
C174 C19 1.237 1_655 S
C193 C91 1.298 . S
C210 C61 1.151 . S
C229 C20 1.171 . S
C246 C0 1.139 1_455 S
C265 C63 1.181 . S
C282 C31 1.243 1_565 S
C301 C29 1.297 . S
C318 C64 1.217 . S
C337 C30 1.208 1_455 S
C354 C50 1.150 1_545 S
C373 C1 1.200 . S
C390 C72 1.147 . S
C409 C32 1.178 . S
C426 C92 1.188 1_554 S
C445 C60 1.218 . S
C462 C33 1.292 . S
C481 C81 1.263 1_556 S
C498 C62 1.142 1_554 S
C517 C51 1.188 . S
