# Generated by pormake.
# Topology sml, (6)-cn, num edge types: 1
# Building blocks:
#     Node 0, Type 0, BuildingBlock: OJICUG_clean_sbu_0, # of connection points: 6
#     Node 1, Type 0, BuildingBlock: OJICUG_clean_sbu_0, # of connection points: 6
#     Node 2, Type 0, BuildingBlock: OJICUG_clean_sbu_0, # of connection points: 6
#     Node 3, Type 0, BuildingBlock: OJICUG_clean_sbu_0, # of connection points: 6
#     Node 4, Type 0, BuildingBlock: OJICUG_clean_sbu_0, # of connection points: 6
#     Node 5, Type 0, BuildingBlock: OJICUG_clean_sbu_0, # of connection points: 6
#     Edge 6, Type (0, 0), BuildingBlock: XIVTED_clean_linker_0, # of connection points: 2
#     Edge 7, Type (0, 0), BuildingBlock: XIVTED_clean_linker_0, # of connection points: 2
#     Edge 8, Type (0, 0), BuildingBlock: XIVTED_clean_linker_0, # of connection points: 2
#     Edge 9, Type (0, 0), BuildingBlock: XIVTED_clean_linker_0, # of connection points: 2
#     Edge 10, Type (0, 0), BuildingBlock: XIVTED_clean_linker_0, # of connection points: 2
#     Edge 11, Type (0, 0), BuildingBlock: XIVTED_clean_linker_0, # of connection points: 2
#     Edge 12, Type (0, 0), BuildingBlock: XIVTED_clean_linker_0, # of connection points: 2
#     Edge 13, Type (0, 0), BuildingBlock: XIVTED_clean_linker_0, # of connection points: 2
#     Edge 14, Type (0, 0), BuildingBlock: XIVTED_clean_linker_0, # of connection points: 2
#     Edge 15, Type (0, 0), BuildingBlock: XIVTED_clean_linker_0, # of connection points: 2
#     Edge 16, Type (0, 0), BuildingBlock: XIVTED_clean_linker_0, # of connection points: 2
#     Edge 17, Type (0, 0), BuildingBlock: XIVTED_clean_linker_0, # of connection points: 2
#     Edge 18, Type (0, 0), BuildingBlock: XIVTED_clean_linker_0, # of connection points: 2
#     Edge 19, Type (0, 0), BuildingBlock: XIVTED_clean_linker_0, # of connection points: 2
#     Edge 20, Type (0, 0), BuildingBlock: XIVTED_clean_linker_0, # of connection points: 2
#     Edge 21, Type (0, 0), BuildingBlock: XIVTED_clean_linker_0, # of connection points: 2
#     Edge 22, Type (0, 0), BuildingBlock: XIVTED_clean_linker_0, # of connection points: 2
#     Edge 23, Type (0, 0), BuildingBlock: XIVTED_clean_linker_0, # of connection points: 2
# Relax obj value: 0.230
# Max RMSD: 0.261
# Mean RMSD: 0.261
data_MOF--net-sml--node1-OJICUG_clean_sbu_0--edge1-XIVTED_clean_linker_0
_symmetry_space_group_name_H-M    P1
_symmetry_Int_Tables_number       1
_symmetry_cell_setting            triclinic
loop_
_symmetry_equiv_pos_as_xyz
'x, y, z'
_cell_length_a     42.389636
_cell_length_b     42.368309
_cell_length_c     15.644438
_cell_angle_alpha  89.954834
_cell_angle_beta   90.161028
_cell_angle_gamma 120.03951
loop_
_atom_site_label
_atom_site_type_symbol
_atom_site_fract_x
_atom_site_fract_y
_atom_site_fract_z
_atom_type_partial_charge
Sc0 Sc 0.17892 0.35612 0.97143 0.0
Sc1 Sc 0.25326 0.44039 0.03265 0.0
Sc2 Sc 0.18029 0.43751 0.92076 0.0
O3 O 0.20402 0.41124 0.97514 0.0
C4 C 0.1666 0.3771 0.78236 0.0
C5 C 0.26082 0.37737 0.94279 0.0
C6 C 0.26483 0.48889 0.87342 0.0
C7 C 0.20953 0.37635 0.16393 0.0
C8 C 0.11171 0.36763 0.00176 0.0
C9 C 0.21388 0.48583 0.08199 0.0
O10 O 0.16567 0.35417 0.83658 0.0
O11 O 0.27412 0.40622 0.98736 0.0
O12 O 0.23176 0.48158 0.87168 0.0
O13 O 0.18987 0.35319 0.10687 0.0
O14 O 0.12626 0.39874 0.96616 0.0
O15 O 0.24122 0.48102 0.08336 0.0
O16 O 0.12802 0.34964 0.01046 0.0
O17 O 0.23271 0.40935 0.14682 0.0
O18 O 0.18647 0.46776 0.03399 0.0
O19 O 0.22706 0.35724 0.92911 0.0
O20 O 0.17259 0.40865 0.80332 0.0
O21 O 0.27609 0.47246 0.92143 0.0
Sc22 Sc 0.7345 0.19319 0.29295 0.0
Sc23 Sc 0.80971 0.25907 0.40347 0.0
Sc24 Sc 0.80458 0.17675 0.34509 0.0
O25 O 0.78337 0.20982 0.34731 0.0
C26 C 0.72242 0.11892 0.36591 0.0
C27 C 0.72581 0.22494 0.46086 0.0
C28 C 0.82257 0.20921 0.53456 0.0
C29 C 0.77331 0.27947 0.2632 0.0
C30 C 0.77682 0.17694 0.1538 0.0
C31 C 0.87467 0.25375 0.31415 0.0
O32 O 0.71253 0.13547 0.31465 0.0
O33 O 0.75864 0.25157 0.45759 0.0
O34 O 0.81998 0.18603 0.47904 0.0
O35 O 0.74528 0.24785 0.26448 0.0
O36 O 0.79098 0.16524 0.20889 0.0
O37 O 0.86231 0.27196 0.35171 0.0
O38 O 0.7569 0.19041 0.17386 0.0
O39 O 0.80343 0.28564 0.29442 0.0
O40 O 0.85641 0.21941 0.30513 0.0
O41 O 0.7139 0.19681 0.41367 0.0
O42 O 0.75507 0.13189 0.38971 0.0
O43 O 0.81843 0.23622 0.51681 0.0
Sc44 Sc 0.6229 0.82169 0.65128 0.0
Sc45 Sc 0.53693 0.80548 0.70891 0.0
Sc46 Sc 0.54494 0.74001 0.59405 0.0
O47 O 0.56852 0.78902 0.65089 0.0
C48 C 0.60651 0.78912 0.46164 0.0
C49 C 0.59854 0.87946 0.63219 0.0
C50 C 0.49374 0.77358 0.54383 0.0
C51 C 0.59753 0.82246 0.84362 0.0
C52 C 0.61552 0.74456 0.68073 0.0
C53 C 0.49098 0.71942 0.74092 0.0
O54 O 0.62791 0.81161 0.51741 0.0
O55 O 0.57265 0.86314 0.6849 0.0
O56 O 0.5004 0.74724 0.54465 0.0
O57 O 0.62263 0.83442 0.787 0.0
O58 O 0.58525 0.72703 0.64128 0.0
O59 O 0.49361 0.75065 0.74017 0.0
O60 O 0.63175 0.77879 0.69207 0.0
O61 O 0.56382 0.8084 0.82581 0.0
O62 O 0.51438 0.71367 0.70533 0.0
O63 O 0.61787 0.86636 0.60677 0.0
O64 O 0.57488 0.7629 0.47912 0.0
O65 O 0.51054 0.80167 0.59087 0.0
Sc66 Sc 0.78691 0.54091 0.96425 0.0
Sc67 Sc 0.72257 0.5491 0.0851 0.0
Sc68 Sc 0.80427 0.62697 0.02592 0.0
O69 O 0.77108 0.57246 0.02551 0.0
C70 C 0.86178 0.60217 0.0396 0.0
C71 C 0.7577 0.49918 0.13423 0.0
C72 C 0.77277 0.61185 0.21555 0.0
C73 C 0.70051 0.49424 0.93637 0.0
C74 C 0.80375 0.60227 0.83234 0.0
C75 C 0.72685 0.61957 -0.00178 0.0
O76 O 0.8447 0.57614 0.98741 0.0
O77 O 0.73159 0.50615 0.13777 0.0
O78 O 0.79575 0.63246 0.16005 0.0
O79 O 0.73216 0.49808 0.93206 0.0
O80 O 0.81599 0.62707 0.88979 0.0
O81 O 0.70899 0.58865 0.03482 0.0
O82 O 0.78943 0.56844 0.84876 0.0
O83 O 0.69414 0.51599 0.97802 0.0
O84 O 0.76119 0.63612 0.98891 0.0
O85 O 0.78359 0.51375 0.08057 0.0
O86 O 0.84916 0.62162 0.06705 0.0
O87 O 0.74592 0.58061 0.19812 0.0
Sc88 Sc 0.16898 0.80334 0.31426 0.0
Sc89 Sc 0.17676 0.72862 0.37646 0.0
Sc90 Sc 0.24475 0.79738 0.25651 0.0
O91 O 0.19679 0.77662 0.31671 0.0
C92 C 0.19653 0.80823 0.12296 0.0
C93 C 0.10641 0.72276 0.28875 0.0
C94 C 0.21044 0.71178 0.22422 0.0
C95 C 0.15791 0.77269 0.50614 0.0
C96 C 0.24791 0.86779 0.33517 0.0
C97 C 0.26303 0.76874 0.41603 0.0
O98 O 0.18214 0.81859 0.17996 0.0
O99 O 0.12085 0.71004 0.33932 0.0
O100 O 0.23777 0.74402 0.22443 0.0
O101 O 0.15278 0.79073 0.44776 0.0
O102 O 0.26032 0.85381 0.28263 0.0
O103 O 0.23118 0.74054 0.41718 0.0
O104 O 0.21523 0.85135 0.36081 0.0
O105 O 0.17023 0.75134 0.49167 0.0
O106 O 0.27046 0.797 0.37281 0.0
O107 O 0.12162 0.75611 0.26788 0.0
O108 O 0.21836 0.79676 0.14036 0.0
O109 O 0.18122 0.70369 0.26311 0.0
Sc110 Sc 0.44043 0.24873 0.5815 0.0
Sc111 Sc 0.43563 0.17839 0.70362 0.0
Sc112 Sc 0.35606 0.17568 0.63477 0.0
O113 O 0.41053 0.20072 0.64075 0.0
C114 C 0.37551 0.25601 0.65474 0.0
C115 C 0.48176 0.26402 0.75105 0.0
C116 C 0.37083 0.16087 0.82761 0.0
C117 C 0.49099 0.21315 0.56032 0.0
C118 C 0.38254 0.20288 0.44456 0.0
C119 C 0.37007 0.11028 0.60934 0.0
O120 O 0.40083 0.26639 0.5999 0.0
O121 O 0.47733 0.23181 0.75274 0.0
O122 O 0.34914 0.15845 0.76801 0.0
O123 O 0.48656 0.24069 0.55757 0.0
O124 O 0.35707 0.19032 0.50013 0.0
O125 O 0.39772 0.1237 0.65877 0.0
O126 O 0.41606 0.22273 0.4638 0.0
O127 O 0.46798 0.18359 0.59528 0.0
O128 O 0.35293 0.1267 0.5897 0.0
O129 O 0.46454 0.27342 0.70005 0.0
O130 O 0.35773 0.22354 0.68145 0.0
O131 O 0.40407 0.1707 0.81514 0.0
H132 H 0.37185 0.26576 0.82335 0.0
H133 H 0.25564 0.35728 0.77781 0.0
H134 H 0.36256 0.30653 0.57753 0.0
H135 H 0.32164 0.37751 0.00373 0.0
H136 H 0.29316 0.33744 0.70274 0.0
H137 H 0.35297 0.30537 0.89253 0.0
C138 C 0.36613 0.28345 0.78421 0.0
C139 C 0.36815 0.28279 0.69493 0.0
C140 C 0.29982 0.34678 0.76825 0.0
C141 C 0.34623 0.32745 0.77304 0.0
C142 C 0.27825 0.35768 0.8113 0.0
C143 C 0.2854 0.36836 0.8972 0.0
C144 C 0.328 0.34558 0.81228 0.0
C145 C 0.31526 0.3691 0.93762 0.0
C146 C 0.35572 0.30617 0.82362 0.0
C147 C 0.36101 0.30631 0.64662 0.0
N148 N 0.33511 0.35697 0.89523 0.0
N149 N 0.34945 0.32723 0.68634 0.0
H150 H 0.07372 0.4026 0.04337 0.0
H151 H 0.91622 0.22421 0.27064 0.0
H152 H 0.06684 0.29739 0.04964 0.0
H153 H 0.91599 0.32603 0.26713 0.0
H154 H 0.97276 0.25259 0.19169 0.0
H155 H 0.01619 0.37653 0.12308 0.0
C156 C 0.05993 0.37399 0.06046 0.0
C157 C 0.07519 0.35217 0.0402 0.0
C158 C 0.96058 0.26895 0.20814 0.0
C159 C 0.01005 0.32254 0.13185 0.0
C160 C 0.92822 0.25272 0.2536 0.0
C161 C 0.9112 0.27272 0.27509 0.0
C162 C 0.9763 0.30558 0.18332 0.0
C163 C 0.92831 0.30968 0.25195 0.0
C164 C 0.02731 0.35925 0.10645 0.0
C165 C 0.05634 0.31538 0.06441 0.0
N166 N 0.95994 0.32496 0.20663 0.0
N167 N 0.02495 0.30186 0.10907 0.0
H168 H 0.66461 0.0605 0.28836 0.0
H169 H 0.60652 0.94011 0.71429 0.0
H170 H 0.71811 0.10006 0.53175 0.0
H171 H 0.60686 0.89685 0.46509 0.0
H172 H 0.6277 0.00033 0.64865 0.0
H173 H 0.62354 0.00113 0.35543 0.0
C174 C 0.66722 0.05677 0.356 0.0
C175 C 0.69502 0.08455 0.40458 0.0
C176 C 0.62233 0.97733 0.6085 0.0
C177 C 0.64813 0.01807 0.48121 0.0
C178 C 0.61031 0.94322 0.64571 0.0
C179 C 0.60574 0.9141 0.59479 0.0
C180 C 0.62884 0.98166 0.52005 0.0
C181 C 0.61081 0.91909 0.50629 0.0
C182 C 0.64392 0.02317 0.39405 0.0
C183 C 0.69738 0.07882 0.49206 0.0
N184 N 0.62231 0.95239 0.47155 0.0
N185 N 0.67429 0.04609 0.52769 0.0
H186 H 0.68515 0.77255 0.73728 0.0
H187 H 0.65476 0.58745 0.94907 0.0
H188 H 0.58297 0.67125 0.7176 0.0
H189 H 0.75504 0.69094 0.95787 0.0
H190 H 0.62639 0.61663 0.86836 0.0
H191 H 0.71038 0.7416 0.81829 0.0
C192 C 0.66803 0.74364 0.74951 0.0
C193 C 0.63183 0.7245 0.72082 0.0
C194 C 0.65453 0.63285 0.88851 0.0
C195 C 0.6606 0.68872 0.81492 0.0
C196 C 0.67061 0.61633 0.93512 0.0
C197 C 0.70736 0.63677 0.95974 0.0
C198 C 0.67544 0.66996 0.86705 0.0
C199 C 0.72675 0.674 0.93951 0.0
C200 C 0.68246 0.72594 0.79617 0.0
C201 C 0.61108 0.687 0.73826 0.0
N202 N 0.71061 0.68926 0.89421 0.0
N203 N 0.62573 0.67029 0.78479 0.0
H204 H 0.086 0.72579 0.12646 0.0
H205 H 0.87985 0.60582 0.20566 0.0
H206 H 0.04781 0.6628 0.35854 0.0
H207 H 0.92285 0.61547 0.9516 0.0
H208 H 0.94063 0.62667 0.26485 0.0
H209 H 0.02647 0.68675 0.06082 0.0
C210 C 0.06499 0.7036 0.16342 0.0
C211 C 0.07135 0.69773 0.24837 0.0
C212 C 0.93666 0.62351 0.19629 0.0
C213 C 0.00353 0.65329 0.174 0.0
C214 C 0.90218 0.61187 0.16262 0.0
C215 C 0.89685 0.60938 0.07398 0.0
C216 C 0.96604 0.63378 0.14058 0.0
C217 C 0.92623 0.61722 0.02038 0.0
C218 C 0.03128 0.68114 0.12565 0.0
C219 C 0.04368 0.66827 0.29309 0.0
N220 N 0.95998 0.62996 0.05455 0.0
N221 N 0.01052 0.64748 0.25585 0.0
H222 H 0.36606 0.04928 0.68013 0.0
H223 H 0.2981 0.93026 0.25408 0.0
H224 H 0.34799 0.09159 0.44554 0.0
H225 H 0.2533 0.88592 0.50173 0.0
H226 H 0.33462 0.99089 0.3205 0.0
H227 H 0.34225 0.98944 0.61057 0.0
C228 C 0.35747 0.04599 0.61387 0.0
C229 C 0.35828 0.07491 0.56861 0.0
C230 C 0.31708 0.96764 0.36 0.0
C231 C 0.33237 0.0077 0.48895 0.0
C232 C 0.29645 0.9333 0.32241 0.0
C233 C 0.27254 0.90356 0.37272 0.0
C234 C 0.31432 0.97159 0.44836 0.0
C235 C 0.27116 0.90853 0.46093 0.0
C236 C 0.34398 0.01208 0.57447 0.0
C237 C 0.34707 0.06959 0.4828 0.0
N238 N 0.29184 0.94198 0.49617 0.0
N239 N 0.33457 0.03654 0.44552 0.0
H240 H 0.16909 0.41995 0.6495 0.0
H241 H 0.15221 0.31538 0.23895 0.0
H242 H 0.16067 0.31587 0.70328 0.0
H243 H 0.25153 0.4154 0.29888 0.0
H244 H 0.13671 0.30796 0.39244 0.0
H245 H 0.1775 0.41194 0.49899 0.0
C246 C 0.16831 0.39506 0.62983 0.0
C247 C 0.16472 0.36879 0.6898 0.0
C248 C 0.16217 0.33098 0.37125 0.0
C249 C 0.17393 0.35958 0.51697 0.0
C250 C 0.17111 0.33525 0.28412 0.0
C251 C 0.20293 0.36643 0.25564 0.0
C252 C 0.18501 0.3583 0.42885 0.0
C253 C 0.22638 0.39131 0.3172 0.0
C254 C 0.17317 0.39064 0.54389 0.0
C255 C 0.16364 0.33695 0.65943 0.0
N256 N 0.21654 0.38712 0.40047 0.0
N257 N 0.1686 0.3333 0.57468 0.0
H258 H 0.78345 0.22822 0.04204 0.0
H259 H 0.80278 0.14455 0.61776 0.0
H260 H 0.79533 0.13297 0.06004 0.0
H261 H 0.85184 0.26046 0.65916 0.0
H262 H 0.79716 0.1353 0.77369 0.0
H263 H 0.80268 0.23572 0.89434 0.0
C264 C 0.78984 0.2086 0.01459 0.0
C265 C 0.78744 0.17968 0.06319 0.0
C266 C 0.80999 0.16273 0.74821 0.0
C267 C 0.80988 0.18841 0.89317 0.0
C268 C 0.81331 0.16807 0.65953 0.0
C269 C 0.8271 0.20329 0.62567 0.0
C270 C 0.82025 0.19281 0.80213 0.0
C271 C 0.84027 0.23278 0.68246 0.0
C272 C 0.80128 0.21321 0.9304 0.0
C273 C 0.79675 0.15555 0.02439 0.0
N274 N 0.83592 0.22682 0.7677 0.0
N275 N 0.80717 0.16014 0.9407 0.0
H276 H 0.58609 0.73684 0.34052 0.0
H277 H 0.65786 0.87079 0.93874 0.0
H278 H 0.65072 0.85328 0.37654 0.0
H279 H 0.55816 0.76702 0.95065 0.0
H280 H 0.66957 0.86332 0.09056 0.0
H281 H 0.59249 0.74585 0.18657 0.0
C282 C 0.60213 0.76432 0.31589 0.0
C283 C 0.61725 0.79441 0.371 0.0
C284 C 0.64534 0.84228 0.05912 0.0
C285 C 0.62415 0.80495 0.19484 0.0
C286 C 0.63866 0.84651 0.97312 0.0
C287 C 0.60671 0.81976 0.93308 0.0
C288 C 0.62039 0.81062 0.10319 0.0
C289 C 0.58275 0.78865 0.97962 0.0
C290 C 0.60572 0.76945 0.22809 0.0
C291 C 0.6384 0.8294 0.33582 0.0
N292 N 0.59013 0.78494 0.06185 0.0
N293 N 0.64069 0.83387 0.24935 0.0
H294 H 0.85386 0.66148 0.73811 0.0
H295 H 0.72032 0.59421 0.33444 0.0
H296 H 0.74708 0.56556 0.72633 0.0
H297 H 0.83705 0.65452 0.30189 0.0
H298 H 0.72879 0.60122 0.48856 0.0
H299 H 0.84711 0.67403 0.58658 0.0
C300 C 0.82905 0.64334 0.7038 0.0
C301 C 0.80123 0.61211 0.7436 0.0
C302 C 0.75259 0.61339 0.44773 0.0
C303 C 0.79296 0.62678 0.57391 0.0
C304 C 0.74777 0.60944 0.35987 0.0
C305 C 0.77806 0.6231 0.30582 0.0
C306 C 0.78794 0.63067 0.48203 0.0
C307 C 0.81303 0.64329 0.34186 0.0
C308 C 0.82522 0.65049 0.618 0.0
C309 C 0.76947 0.5895 0.69733 0.0
N310 N 0.81713 0.64589 0.4284 0.0
N311 N 0.76621 0.59731 0.61518 0.0
H312 H 0.12862 0.71988 0.62572 0.0
H313 H 0.18117 0.85384 0.02657 0.0
H314 H 0.17128 0.8352 0.59037 0.0
H315 H 0.18195 0.75244 0.01848 0.0
H316 H 0.16172 0.84473 0.87484 0.0
H317 H 0.12898 0.72828 0.77965 0.0
C318 C 0.1375 0.74693 0.65061 0.0
C319 C 0.15056 0.777 0.59587 0.0
C320 C 0.16597 0.82453 0.90708 0.0
C321 C 0.15192 0.787 0.77192 0.0
C322 C 0.17704 0.8297 -0.00696 0.0
C323 C 0.18381 0.80418 0.03398 0.0
C324 C 0.16072 0.79315 0.86393 0.0
C325 C 0.1778 0.77317 0.98864 0.0
C326 C 0.13781 0.75175 0.73836 0.0
C327 C 0.16121 0.8114 0.63101 0.0
N328 N 0.16661 0.76856 0.90635 0.0
N329 N 0.1624 0.81569 0.71752 0.0
H330 H 0.42213 0.18612 0.33999 0.0
H331 H 0.32628 0.18093 0.90988 0.0
H332 H 0.32293 0.19101 0.34726 0.0
H333 H 0.38864 0.12704 0.94846 0.0
H334 H 0.32127 0.18427 0.06618 0.0
H335 H 0.40956 0.16615 0.19242 0.0
C336 C 0.39769 0.18312 0.31006 0.0
C337 C 0.37377 0.19068 0.35522 0.0
C338 C 0.33509 0.17079 0.04006 0.0
C339 C 0.35903 0.16764 0.18558 0.0
C340 C 0.33778 0.16871 0.95118 0.0
C341 C 0.35841 0.15422 0.91688 0.0
C342 C 0.3534 0.1585 0.0936 0.0
C343 C 0.37307 0.13901 0.97265 0.0
C344 C 0.39027 0.17129 0.22602 0.0
C345 C 0.3421 0.18562 0.31397 0.0
N346 N 0.37079 0.14209 0.05817 0.0
N347 N 0.33585 0.17494 0.23044 0.0
H348 H 0.15758 0.49187 0.14461 0.0
H349 H 0.27296 0.70816 0.20363 0.0
H350 H 0.27434 0.55228 0.11331 0.0
H351 H 0.15595 0.64489 0.17687 0.0
H352 H 0.27601 0.65235 0.18125 0.0
H353 H 0.15856 0.54836 0.17859 0.0
C354 C 0.18356 0.51703 0.14682 0.0
C355 C 0.21587 0.51753 0.12556 0.0
C356 C 0.24978 0.6509 0.1795 0.0
C357 C 0.21715 0.58254 0.16163 0.0
C358 C 0.24805 0.68275 0.19105 0.0
C359 C 0.21412 0.68108 0.19228 0.0
C360 C 0.21734 0.61741 0.16966 0.0
C361 C 0.18266 0.6474 0.17703 0.0
C362 C 0.18409 0.54936 0.16519 0.0
C363 C 0.24884 0.5508 0.1297 0.0
N364 N 0.18503 0.61693 0.16709 0.0
N365 N 0.24862 0.58223 0.14611 0.0
H366 H 0.71948 0.28587 0.4712 0.0
H367 H 0.50656 0.15887 0.53643 0.0
H368 H 0.66714 0.1727 0.54485 0.0
H369 H 0.55675 0.27623 0.53788 0.0
H370 H 0.56652 0.16494 0.53033 0.0
H371 H 0.66216 0.28539 0.4975 0.0
C372 C 0.69637 0.2614 0.49639 0.0
C373 C 0.69778 0.22918 0.50562 0.0
C374 C 0.56455 0.18945 0.53183 0.0
C375 C 0.63231 0.22806 0.53224 0.0
C376 C 0.53023 0.18599 0.53427 0.0
C377 C 0.5266 0.21708 0.53811 0.0
C378 C 0.59569 0.22426 0.53271 0.0
C379 C 0.55832 0.25152 0.5346 0.0
C380 C 0.66356 0.26098 0.50999 0.0
C381 C 0.66699 0.19801 0.53659 0.0
N382 N 0.59169 0.25423 0.53244 0.0
N383 N 0.63534 0.19806 0.54742 0.0
H384 H 0.32588 0.49661 0.7995 0.0
H385 H 0.42438 0.7138 0.77038 0.0
H386 H 0.2692 0.55513 0.85301 0.0
H387 H 0.47935 0.65118 0.77158 0.0
H388 H 0.36609 0.65708 0.78886 0.0
H389 H 0.38053 0.55403 0.76607 0.0
C390 C 0.32477 0.52161 0.80203 0.0
C391 C 0.29318 0.52129 0.82929 0.0
C392 C 0.39101 0.65595 0.78566 0.0
C393 C 0.35595 0.58729 0.79427 0.0
C394 C 0.42431 0.68829 0.77621 0.0
C395 C 0.45681 0.68722 0.76916 0.0
C396 C 0.39038 0.6225 0.78756 0.0
C397 C 0.45503 0.65336 0.77611 0.0
C398 C 0.35608 0.55443 0.78405 0.0
C399 C 0.29306 0.55433 0.83161 0.0
N400 N 0.42241 0.62242 0.78425 0.0
N401 N 0.32429 0.58625 0.81561 0.0
H402 H 0.71029 0.2804 0.2268 0.0
H403 H 0.81332 0.49805 0.21601 0.0
H404 H 0.82668 0.35099 0.25288 0.0
H405 H 0.69905 0.43115 0.15718 0.0
H406 H 0.81575 0.44347 0.2534 0.0
H407 H 0.70354 0.3343 0.21429 0.0
C408 C 0.73449 0.30715 0.22854 0.0
C409 C 0.76916 0.31111 0.24074 0.0
C410 C 0.78992 0.44061 0.2338 0.0
C411 C 0.76141 0.37275 0.22884 0.0
C412 C 0.78845 0.47181 0.21371 0.0
C413 C 0.75597 0.46891 0.18358 0.0
C414 C 0.75878 0.40622 0.22243 0.0
C415 C 0.72452 0.4344 0.18097 0.0
C416 C 0.73052 0.33788 0.22242 0.0
C417 C 0.79942 0.34649 0.24354 0.0
N418 N 0.72683 0.40416 0.19864 0.0
N419 N 0.79479 0.37585 0.23803 0.0
H420 H 0.26799 0.70741 0.44544 0.0
H421 H 0.48496 0.8264 0.46964 0.0
H422 H 0.33007 0.82498 0.45717 0.0
H423 H 0.42744 0.71143 0.5275 0.0
H424 H 0.42701 0.82333 0.4413 0.0
H425 H 0.32468 0.70582 0.46452 0.0
C426 C 0.29335 0.7328 0.45432 0.0
C427 C 0.29438 0.76642 0.44938 0.0
C428 C 0.42695 0.7986 0.45914 0.0
C429 C 0.35904 0.76475 0.46794 0.0
C430 C 0.46006 0.80027 0.47405 0.0
C431 C 0.46086 0.76917 0.50114 0.0
C432 C 0.39432 0.76564 0.47203 0.0
C433 C 0.42789 0.73596 0.50606 0.0
C434 C 0.32569 0.73186 0.4639 0.0
C435 C 0.32803 0.79847 0.45993 0.0
N436 N 0.39572 0.73512 0.49286 0.0
N437 N 0.35899 0.79684 0.46778 0.0
H438 H 0.63151 0.4816 0.91063 0.0
H439 H 0.54752 0.27067 0.79431 0.0
H440 H 0.69701 0.43008 0.8894 0.0
H441 H 0.48533 0.32572 0.81141 0.0
H442 H 0.60199 0.32696 0.84042 0.0
H443 H 0.57749 0.42361 0.87814 0.0
C444 C 0.63461 0.45814 0.89812 0.0
C445 C 0.66888 0.46074 0.9028 0.0
C446 C 0.57628 0.32651 0.83521 0.0
C447 C 0.6068 0.39384 0.86683 0.0
C448 C 0.54513 0.29427 0.81013 0.0
C449 C 0.51201 0.29371 0.79876 0.0
C450 C 0.57404 0.35811 0.84899 0.0
C451 C 0.51045 0.32514 0.81879 0.0
C452 C 0.60365 0.42491 0.88014 0.0
C453 C 0.67115 0.42938 0.88587 0.0
N454 N 0.54108 0.35612 0.84217 0.0
N455 N 0.64044 0.39711 0.86905 0.0
loop_
_geom_bond_atom_site_label_1
_geom_bond_atom_site_label_2
_geom_bond_distance
_geom_bond_site_symmetry_2
_ccdc_geom_bond_type
Sc0 O3 2.025 . S
Sc0 O10 2.105 1_554 S
Sc0 O13 2.105 . S
Sc0 O16 2.105 . S
Sc0 O19 2.105 1_554 S
Sc1 O3 2.025 . S
Sc1 O11 2.105 . S
Sc1 O15 2.105 . S
Sc1 O17 2.105 . S
Sc1 O21 2.105 1_554 S
Sc2 O3 2.025 1_556 S
Sc2 O12 2.105 . S
Sc2 O14 2.105 . S
Sc2 O18 2.105 1_556 S
Sc2 O20 2.105 . S
O3 Sc0 2.025 . S
O3 Sc1 2.025 . S
O3 Sc2 2.025 1_554 S
C4 O10 1.268 . S
C4 O20 1.268 . S
C5 O11 1.268 1_556 S
C5 O19 1.268 . S
C6 O12 1.268 . S
C6 O21 1.268 . S
C7 O13 1.268 . S
C7 O17 1.268 . S
C8 O14 1.268 1_554 S
C8 O16 1.268 . S
C9 O15 1.268 . S
C9 O18 1.268 . S
O10 Sc0 2.105 1_556 S
O10 C4 1.268 . S
O11 Sc1 2.105 . S
O11 C5 1.268 1_554 S
O12 Sc2 2.105 . S
O12 C6 1.268 . S
O13 Sc0 2.105 . S
O13 C7 1.268 . S
O14 Sc2 2.105 . S
O14 C8 1.268 1_556 S
O15 Sc1 2.105 . S
O15 C9 1.268 . S
O16 Sc0 2.105 . S
O16 C8 1.268 . S
O17 Sc1 2.105 . S
O17 C7 1.268 . S
O18 Sc2 2.105 1_554 S
O18 C9 1.268 . S
O19 Sc0 2.105 1_556 S
O19 C5 1.268 . S
O20 Sc2 2.105 . S
O20 C4 1.268 . S
O21 Sc1 2.105 1_556 S
O21 C6 1.268 . S
Sc22 O25 2.025 . S
Sc22 O32 2.105 . S
Sc22 O35 2.105 . S
Sc22 O38 2.105 . S
Sc22 O41 2.105 . S
Sc23 O25 2.025 . S
Sc23 O33 2.105 . S
Sc23 O37 2.105 . S
Sc23 O39 2.105 . S
Sc23 O43 2.105 . S
Sc24 O25 2.025 . S
Sc24 O34 2.105 . S
Sc24 O36 2.105 . S
Sc24 O40 2.105 . S
Sc24 O42 2.105 . S
O25 Sc22 2.025 . S
O25 Sc23 2.025 . S
O25 Sc24 2.025 . S
C26 O32 1.268 . S
C26 O42 1.268 . S
C27 O33 1.268 . S
C27 O41 1.268 . S
C28 O34 1.268 . S
C28 O43 1.268 . S
C29 O35 1.268 . S
C29 O39 1.268 . S
C30 O36 1.268 . S
C30 O38 1.268 . S
C31 O37 1.268 . S
C31 O40 1.268 . S
O32 Sc22 2.105 . S
O32 C26 1.268 . S
O33 Sc23 2.105 . S
O33 C27 1.268 . S
O34 Sc24 2.105 . S
O34 C28 1.268 . S
O35 Sc22 2.105 . S
O35 C29 1.268 . S
O36 Sc24 2.105 . S
O36 C30 1.268 . S
O37 Sc23 2.105 . S
O37 C31 1.268 . S
O38 Sc22 2.105 . S
O38 C30 1.268 . S
O39 Sc23 2.105 . S
O39 C29 1.268 . S
O40 Sc24 2.105 . S
O40 C31 1.268 . S
O41 Sc22 2.105 . S
O41 C27 1.268 . S
O42 Sc24 2.105 . S
O42 C26 1.268 . S
O43 Sc23 2.105 . S
O43 C28 1.268 . S
Sc44 O47 2.025 . S
Sc44 O54 2.105 . S
Sc44 O57 2.105 . S
Sc44 O60 2.105 . S
Sc44 O63 2.105 . S
Sc45 O47 2.025 . S
Sc45 O55 2.105 . S
Sc45 O59 2.105 . S
Sc45 O61 2.105 . S
Sc45 O65 2.105 . S
Sc46 O47 2.025 . S
Sc46 O56 2.105 . S
Sc46 O58 2.105 . S
Sc46 O62 2.105 . S
Sc46 O64 2.105 . S
O47 Sc44 2.025 . S
O47 Sc45 2.025 . S
O47 Sc46 2.025 . S
C48 O54 1.268 . S
C48 O64 1.268 . S
C49 O55 1.268 . S
C49 O63 1.268 . S
C50 O56 1.268 . S
C50 O65 1.268 . S
C51 O57 1.268 . S
C51 O61 1.268 . S
C52 O58 1.268 . S
C52 O60 1.268 . S
C53 O59 1.268 . S
C53 O62 1.268 . S
O54 Sc44 2.105 . S
O54 C48 1.268 . S
O55 Sc45 2.105 . S
O55 C49 1.268 . S
O56 Sc46 2.105 . S
O56 C50 1.268 . S
O57 Sc44 2.105 . S
O57 C51 1.268 . S
O58 Sc46 2.105 . S
O58 C52 1.268 . S
O59 Sc45 2.105 . S
O59 C53 1.268 . S
O60 Sc44 2.105 . S
O60 C52 1.268 . S
O61 Sc45 2.105 . S
O61 C51 1.268 . S
O62 Sc46 2.105 . S
O62 C53 1.268 . S
O63 Sc44 2.105 . S
O63 C49 1.268 . S
O64 Sc46 2.105 . S
O64 C48 1.268 . S
O65 Sc45 2.105 . S
O65 C50 1.268 . S
Sc66 O69 2.025 1_556 S
Sc66 O76 2.105 . S
Sc66 O79 2.105 . S
Sc66 O82 2.105 . S
Sc66 O85 2.105 1_556 S
Sc67 O69 2.025 . S
Sc67 O77 2.105 . S
Sc67 O81 2.105 . S
Sc67 O83 2.105 1_554 S
Sc67 O87 2.105 . S
Sc68 O69 2.025 . S
Sc68 O78 2.105 . S
Sc68 O80 2.105 1_554 S
Sc68 O84 2.105 1_554 S
Sc68 O86 2.105 . S
O69 Sc66 2.025 1_554 S
O69 Sc67 2.025 . S
O69 Sc68 2.025 . S
C70 O76 1.268 1_554 S
C70 O86 1.268 . S
C71 O77 1.268 . S
C71 O85 1.268 . S
C72 O78 1.268 . S
C72 O87 1.268 . S
C73 O79 1.268 . S
C73 O83 1.268 . S
C74 O80 1.268 . S
C74 O82 1.268 . S
C75 O81 1.268 1_556 S
C75 O84 1.268 . S
O76 Sc66 2.105 . S
O76 C70 1.268 1_556 S
O77 Sc67 2.105 . S
O77 C71 1.268 . S
O78 Sc68 2.105 . S
O78 C72 1.268 . S
O79 Sc66 2.105 . S
O79 C73 1.268 . S
O80 Sc68 2.105 1_556 S
O80 C74 1.268 . S
O81 Sc67 2.105 . S
O81 C75 1.268 1_554 S
O82 Sc66 2.105 . S
O82 C74 1.268 . S
O83 Sc67 2.105 1_556 S
O83 C73 1.268 . S
O84 Sc68 2.105 1_556 S
O84 C75 1.268 . S
O85 Sc66 2.105 1_554 S
O85 C71 1.268 . S
O86 Sc68 2.105 . S
O86 C70 1.268 . S
O87 Sc67 2.105 . S
O87 C72 1.268 . S
Sc88 O91 2.025 . S
Sc88 O98 2.105 . S
Sc88 O101 2.105 . S
Sc88 O104 2.105 . S
Sc88 O107 2.105 . S
Sc89 O91 2.025 . S
Sc89 O99 2.105 . S
Sc89 O103 2.105 . S
Sc89 O105 2.105 . S
Sc89 O109 2.105 . S
Sc90 O91 2.025 . S
Sc90 O100 2.105 . S
Sc90 O102 2.105 . S
Sc90 O106 2.105 . S
Sc90 O108 2.105 . S
O91 Sc88 2.025 . S
O91 Sc89 2.025 . S
O91 Sc90 2.025 . S
C92 O98 1.268 . S
C92 O108 1.268 . S
C93 O99 1.268 . S
C93 O107 1.268 . S
C94 O100 1.268 . S
C94 O109 1.268 . S
C95 O101 1.268 . S
C95 O105 1.268 . S
C96 O102 1.268 . S
C96 O104 1.268 . S
C97 O103 1.268 . S
C97 O106 1.268 . S
O98 Sc88 2.105 . S
O98 C92 1.268 . S
O99 Sc89 2.105 . S
O99 C93 1.268 . S
O100 Sc90 2.105 . S
O100 C94 1.268 . S
O101 Sc88 2.105 . S
O101 C95 1.268 . S
O102 Sc90 2.105 . S
O102 C96 1.268 . S
O103 Sc89 2.105 . S
O103 C97 1.268 . S
O104 Sc88 2.105 . S
O104 C96 1.268 . S
O105 Sc89 2.105 . S
O105 C95 1.268 . S
O106 Sc90 2.105 . S
O106 C97 1.268 . S
O107 Sc88 2.105 . S
O107 C93 1.268 . S
O108 Sc90 2.105 . S
O108 C92 1.268 . S
O109 Sc89 2.105 . S
O109 C94 1.268 . S
Sc110 O113 2.025 . S
Sc110 O120 2.105 . S
Sc110 O123 2.105 . S
Sc110 O126 2.105 . S
Sc110 O129 2.105 . S
Sc111 O113 2.025 . S
Sc111 O121 2.105 . S
Sc111 O125 2.105 . S
Sc111 O127 2.105 . S
Sc111 O131 2.105 . S
Sc112 O113 2.025 . S
Sc112 O122 2.105 . S
Sc112 O124 2.105 . S
Sc112 O128 2.105 . S
Sc112 O130 2.105 . S
O113 Sc110 2.025 . S
O113 Sc111 2.025 . S
O113 Sc112 2.025 . S
C114 O120 1.268 . S
C114 O130 1.268 . S
C115 O121 1.268 . S
C115 O129 1.268 . S
C116 O122 1.268 . S
C116 O131 1.268 . S
C117 O123 1.268 . S
C117 O127 1.268 . S
C118 O124 1.268 . S
C118 O126 1.268 . S
C119 O125 1.268 . S
C119 O128 1.268 . S
O120 Sc110 2.105 . S
O120 C114 1.268 . S
O121 Sc111 2.105 . S
O121 C115 1.268 . S
O122 Sc112 2.105 . S
O122 C116 1.268 . S
O123 Sc110 2.105 . S
O123 C117 1.268 . S
O124 Sc112 2.105 . S
O124 C118 1.268 . S
O125 Sc111 2.105 . S
O125 C119 1.268 . S
O126 Sc110 2.105 . S
O126 C118 1.268 . S
O127 Sc111 2.105 . S
O127 C117 1.268 . S
O128 Sc112 2.105 . S
O128 C119 1.268 . S
O129 Sc110 2.105 . S
O129 C115 1.268 . S
O130 Sc112 2.105 . S
O130 C114 1.268 . S
O131 Sc111 2.105 . S
O131 C116 1.268 . S
H132 C138 0.930 . S
H133 C142 0.930 . S
H134 C147 0.929 . S
H135 C145 0.929 1_554 S
H136 C140 0.929 . S
H137 C146 0.929 . S
C138 H132 0.930 . S
C138 C139 1.367 . S
C138 C146 1.378 . S
C139 C138 1.367 . S
C139 C147 1.433 . S
C140 H136 0.929 . S
C140 C142 1.378 . S
C140 C144 1.350 . S
C141 C144 1.463 . S
C141 C146 1.350 . S
C141 N149 1.427 . S
C142 H133 0.930 . S
C142 C140 1.378 . S
C142 C143 1.367 . S
C143 C142 1.367 . S
C143 C145 1.433 . S
C144 C140 1.350 . S
C144 C141 1.463 . S
C144 N148 1.427 . S
C145 H135 0.929 1_556 S
C145 C143 1.433 . S
C145 N148 1.384 . S
C146 H137 0.929 . S
C146 C138 1.378 . S
C146 C141 1.350 . S
C147 H134 0.929 . S
C147 C139 1.433 . S
C147 N149 1.384 . S
N148 C144 1.427 . S
N148 C145 1.384 . S
N149 C141 1.427 . S
N149 C147 1.384 . S
H150 C156 0.930 . S
H151 C160 0.930 . S
H152 C165 0.929 1_556 S
H153 C163 0.929 . S
H154 C158 0.929 . S
H155 C164 0.929 . S
C156 H150 0.930 . S
C156 C157 1.367 . S
C156 C164 1.378 . S
C157 C156 1.367 . S
C157 C165 1.433 . S
C158 H154 0.929 . S
C158 C160 1.378 . S
C158 C162 1.350 . S
C159 C162 1.463 1_455 S
C159 C164 1.350 . S
C159 N167 1.427 . S
C160 H151 0.930 . S
C160 C158 1.378 . S
C160 C161 1.367 . S
C161 C160 1.367 . S
C161 C163 1.433 . S
C162 C158 1.350 . S
C162 C159 1.463 1_655 S
C162 N166 1.427 . S
C163 H153 0.929 . S
C163 C161 1.433 . S
C163 N166 1.384 . S
C164 H155 0.929 . S
C164 C156 1.378 . S
C164 C159 1.350 . S
C165 H152 0.929 1_554 S
C165 C157 1.433 . S
C165 N167 1.384 . S
N166 C162 1.427 . S
N166 C163 1.384 . S
N167 C159 1.427 . S
N167 C165 1.384 . S
H168 C174 0.930 . S
H169 C178 0.930 . S
H170 C183 0.929 . S
H171 C181 0.929 . S
H172 C176 0.929 1_545 S
H173 C182 0.929 1_565 S
C174 H168 0.930 . S
C174 C175 1.367 . S
C174 C182 1.378 . S
C175 C174 1.367 . S
C175 C183 1.433 . S
C176 H172 0.929 1_565 S
C176 C178 1.378 . S
C176 C180 1.350 . S
C177 C180 1.463 1_545 S
C177 C182 1.350 . S
C177 N185 1.427 . S
C178 H169 0.930 . S
C178 C176 1.378 . S
C178 C179 1.367 . S
C179 C178 1.367 . S
C179 C181 1.433 . S
C180 C176 1.350 . S
C180 C177 1.463 1_565 S
C180 N184 1.427 . S
C181 H171 0.929 . S
C181 C179 1.433 . S
C181 N184 1.384 . S
C182 H173 0.929 1_545 S
C182 C174 1.378 . S
C182 C177 1.350 . S
C183 H170 0.929 . S
C183 C175 1.433 . S
C183 N185 1.384 . S
N184 C180 1.427 . S
N184 C181 1.384 . S
N185 C177 1.427 . S
N185 C183 1.384 . S
H186 C192 0.930 . S
H187 C196 0.930 . S
H188 C201 0.929 . S
H189 C199 0.929 1_554 S
H190 C194 0.929 . S
H191 C200 0.929 . S
C192 H186 0.930 . S
C192 C193 1.367 . S
C192 C200 1.378 . S
C193 C192 1.367 . S
C193 C201 1.433 . S
C194 H190 0.929 . S
C194 C196 1.378 . S
C194 C198 1.350 . S
C195 C198 1.463 . S
C195 C200 1.350 . S
C195 N203 1.427 . S
C196 H187 0.930 . S
C196 C194 1.378 . S
C196 C197 1.367 . S
C197 C196 1.367 . S
C197 C199 1.433 . S
C198 C194 1.350 . S
C198 C195 1.463 . S
C198 N202 1.427 . S
C199 H189 0.929 1_556 S
C199 C197 1.433 . S
C199 N202 1.384 . S
C200 H191 0.929 . S
C200 C192 1.378 . S
C200 C195 1.350 . S
C201 H188 0.929 . S
C201 C193 1.433 . S
C201 N203 1.384 . S
N202 C198 1.427 . S
N202 C199 1.384 . S
N203 C195 1.427 . S
N203 C201 1.384 . S
H204 C210 0.930 . S
H205 C214 0.930 . S
H206 C219 0.929 . S
H207 C217 0.929 1_556 S
H208 C212 0.929 . S
H209 C218 0.929 . S
C210 H204 0.930 . S
C210 C211 1.367 . S
C210 C218 1.378 . S
C211 C210 1.367 . S
C211 C219 1.433 . S
C212 H208 0.929 . S
C212 C214 1.378 . S
C212 C216 1.350 . S
C213 C216 1.463 1_455 S
C213 C218 1.350 . S
C213 N221 1.427 . S
C214 H205 0.930 . S
C214 C212 1.378 . S
C214 C215 1.367 . S
C215 C214 1.367 . S
C215 C217 1.433 . S
C216 C212 1.350 . S
C216 C213 1.463 1_655 S
C216 N220 1.427 . S
C217 H207 0.929 1_554 S
C217 C215 1.433 . S
C217 N220 1.384 . S
C218 H209 0.929 . S
C218 C210 1.378 . S
C218 C213 1.350 . S
C219 H206 0.929 . S
C219 C211 1.433 . S
C219 N221 1.384 . S
N220 C216 1.427 . S
N220 C217 1.384 . S
N221 C213 1.427 . S
N221 C219 1.384 . S
H222 C228 0.930 . S
H223 C232 0.930 . S
H224 C237 0.929 . S
H225 C235 0.929 . S
H226 C230 0.929 1_545 S
H227 C236 0.929 1_565 S
C228 H222 0.930 . S
C228 C229 1.367 . S
C228 C236 1.378 . S
C229 C228 1.367 . S
C229 C237 1.433 . S
C230 H226 0.929 1_565 S
C230 C232 1.378 . S
C230 C234 1.350 . S
C231 C234 1.463 1_545 S
C231 C236 1.350 . S
C231 N239 1.427 . S
C232 H223 0.930 . S
C232 C230 1.378 . S
C232 C233 1.367 . S
C233 C232 1.367 . S
C233 C235 1.433 . S
C234 C230 1.350 . S
C234 C231 1.463 1_565 S
C234 N238 1.427 . S
C235 H225 0.929 . S
C235 C233 1.433 . S
C235 N238 1.384 . S
C236 H227 0.929 1_545 S
C236 C228 1.378 . S
C236 C231 1.350 . S
C237 H224 0.929 . S
C237 C229 1.433 . S
C237 N239 1.384 . S
N238 C234 1.427 . S
N238 C235 1.384 . S
N239 C231 1.427 . S
N239 C237 1.384 . S
H240 C246 0.930 . S
H241 C250 0.930 . S
H242 C255 0.929 . S
H243 C253 0.929 . S
H244 C248 0.929 . S
H245 C254 0.929 . S
C246 H240 0.930 . S
C246 C247 1.367 . S
C246 C254 1.378 . S
C247 C246 1.367 . S
C247 C255 1.433 . S
C248 H244 0.929 . S
C248 C250 1.378 . S
C248 C252 1.350 . S
C249 C252 1.463 . S
C249 C254 1.350 . S
C249 N257 1.427 . S
C250 H241 0.930 . S
C250 C248 1.378 . S
C250 C251 1.367 . S
C251 C250 1.367 . S
C251 C253 1.433 . S
C252 C248 1.350 . S
C252 C249 1.463 . S
C252 N256 1.427 . S
C253 H243 0.929 . S
C253 C251 1.433 . S
C253 N256 1.384 . S
C254 H245 0.929 . S
C254 C246 1.378 . S
C254 C249 1.350 . S
C255 H242 0.929 . S
C255 C247 1.433 . S
C255 N257 1.384 . S
N256 C252 1.427 . S
N256 C253 1.384 . S
N257 C249 1.427 . S
N257 C255 1.384 . S
H258 C264 0.930 . S
H259 C268 0.930 . S
H260 C273 0.929 . S
H261 C271 0.929 . S
H262 C266 0.929 . S
H263 C272 0.929 . S
C264 H258 0.930 . S
C264 C265 1.367 . S
C264 C272 1.378 1_554 S
C265 C264 1.367 . S
C265 C273 1.433 . S
C266 H262 0.929 . S
C266 C268 1.378 . S
C266 C270 1.350 . S
C267 C270 1.463 . S
C267 C272 1.350 . S
C267 N275 1.427 . S
C268 H259 0.930 . S
C268 C266 1.378 . S
C268 C269 1.367 . S
C269 C268 1.367 . S
C269 C271 1.433 . S
C270 C266 1.350 . S
C270 C267 1.463 . S
C270 N274 1.427 . S
C271 H261 0.929 . S
C271 C269 1.433 . S
C271 N274 1.384 . S
C272 H263 0.929 . S
C272 C264 1.378 1_556 S
C272 C267 1.350 . S
C273 H260 0.929 . S
C273 C265 1.433 . S
C273 N275 1.384 1_554 S
N274 C270 1.427 . S
N274 C271 1.384 . S
N275 C267 1.427 . S
N275 C273 1.384 1_556 S
H276 C282 0.930 . S
H277 C286 0.930 . S
H278 C291 0.929 . S
H279 C289 0.929 . S
H280 C284 0.929 . S
H281 C290 0.929 . S
C282 H276 0.930 . S
C282 C283 1.367 . S
C282 C290 1.378 . S
C283 C282 1.367 . S
C283 C291 1.433 . S
C284 H280 0.929 . S
C284 C286 1.378 1_554 S
C284 C288 1.350 . S
C285 C288 1.463 . S
C285 C290 1.350 . S
C285 N293 1.427 . S
C286 H277 0.930 . S
C286 C284 1.378 1_556 S
C286 C287 1.367 . S
C287 C286 1.367 . S
C287 C289 1.433 . S
C288 C284 1.350 . S
C288 C285 1.463 . S
C288 N292 1.427 . S
C289 H279 0.929 . S
C289 C287 1.433 . S
C289 N292 1.384 1_556 S
C290 H281 0.929 . S
C290 C282 1.378 . S
C290 C285 1.350 . S
C291 H278 0.929 . S
C291 C283 1.433 . S
C291 N293 1.384 . S
N292 C288 1.427 . S
N292 C289 1.384 1_554 S
N293 C285 1.427 . S
N293 C291 1.384 . S
H294 C300 0.930 . S
H295 C304 0.930 . S
H296 C309 0.929 . S
H297 C307 0.929 . S
H298 C302 0.929 . S
H299 C308 0.929 . S
C300 H294 0.930 . S
C300 C301 1.367 . S
C300 C308 1.378 . S
C301 C300 1.367 . S
C301 C309 1.433 . S
C302 H298 0.929 . S
C302 C304 1.378 . S
C302 C306 1.350 . S
C303 C306 1.463 . S
C303 C308 1.350 . S
C303 N311 1.427 . S
C304 H295 0.930 . S
C304 C302 1.378 . S
C304 C305 1.367 . S
C305 C304 1.367 . S
C305 C307 1.433 . S
C306 C302 1.350 . S
C306 C303 1.463 . S
C306 N310 1.427 . S
C307 H297 0.929 . S
C307 C305 1.433 . S
C307 N310 1.384 . S
C308 H299 0.929 . S
C308 C300 1.378 . S
C308 C303 1.350 . S
C309 H296 0.929 . S
C309 C301 1.433 . S
C309 N311 1.384 . S
N310 C306 1.427 . S
N310 C307 1.384 . S
N311 C303 1.427 . S
N311 C309 1.384 . S
H312 C318 0.930 . S
H313 C322 0.930 . S
H314 C327 0.929 . S
H315 C325 0.929 . S
H316 C320 0.929 . S
H317 C326 0.929 . S
C318 H312 0.930 . S
C318 C319 1.367 . S
C318 C326 1.378 . S
C319 C318 1.367 . S
C319 C327 1.433 . S
C320 H316 0.929 . S
C320 C322 1.378 1_556 S
C320 C324 1.350 . S
C321 C324 1.463 . S
C321 C326 1.350 . S
C321 N329 1.427 . S
C322 H313 0.930 . S
C322 C320 1.378 1_554 S
C322 C323 1.367 . S
C323 C322 1.367 . S
C323 C325 1.433 . S
C324 C320 1.350 . S
C324 C321 1.463 . S
C324 N328 1.427 . S
C325 H315 0.929 . S
C325 C323 1.433 . S
C325 N328 1.384 1_554 S
C326 H317 0.929 . S
C326 C318 1.378 . S
C326 C321 1.350 . S
C327 H314 0.929 . S
C327 C319 1.433 . S
C327 N329 1.384 . S
N328 C324 1.427 . S
N328 C325 1.384 1_556 S
N329 C321 1.427 . S
N329 C327 1.384 . S
H330 C336 0.930 . S
H331 C340 0.930 . S
H332 C345 0.929 . S
H333 C343 0.929 . S
H334 C338 0.929 . S
H335 C344 0.929 . S
C336 H330 0.930 . S
C336 C337 1.367 . S
C336 C344 1.378 . S
C337 C336 1.367 . S
C337 C345 1.433 . S
C338 H334 0.929 . S
C338 C340 1.378 1_554 S
C338 C342 1.350 . S
C339 C342 1.463 . S
C339 C344 1.350 . S
C339 N347 1.427 . S
C340 H331 0.930 . S
C340 C338 1.378 1_556 S
C340 C341 1.367 . S
C341 C340 1.367 . S
C341 C343 1.433 . S
C342 C338 1.350 . S
C342 C339 1.463 . S
C342 N346 1.427 . S
C343 H333 0.929 . S
C343 C341 1.433 . S
C343 N346 1.384 1_556 S
C344 H335 0.929 . S
C344 C336 1.378 . S
C344 C339 1.350 . S
C345 H332 0.929 . S
C345 C337 1.433 . S
C345 N347 1.384 . S
N346 C342 1.427 . S
N346 C343 1.384 1_554 S
N347 C339 1.427 . S
N347 C345 1.384 . S
H348 C354 0.930 . S
H349 C358 0.930 . S
H350 C363 0.929 . S
H351 C361 0.929 . S
H352 C356 0.929 . S
H353 C362 0.929 . S
C354 H348 0.930 . S
C354 C355 1.367 . S
C354 C362 1.378 . S
C355 C354 1.367 . S
C355 C363 1.433 . S
C356 H352 0.929 . S
C356 C358 1.378 . S
C356 C360 1.350 . S
C357 C360 1.463 . S
C357 C362 1.350 . S
C357 N365 1.427 . S
C358 H349 0.930 . S
C358 C356 1.378 . S
C358 C359 1.367 . S
C359 C358 1.367 . S
C359 C361 1.433 . S
C360 C356 1.350 . S
C360 C357 1.463 . S
C360 N364 1.427 . S
C361 H351 0.929 . S
C361 C359 1.433 . S
C361 N364 1.384 . S
C362 H353 0.929 . S
C362 C354 1.378 . S
C362 C357 1.350 . S
C363 H350 0.929 . S
C363 C355 1.433 . S
C363 N365 1.384 . S
N364 C360 1.427 . S
N364 C361 1.384 . S
N365 C357 1.427 . S
N365 C363 1.384 . S
H366 C372 0.930 . S
H367 C376 0.930 . S
H368 C381 0.929 . S
H369 C379 0.929 . S
H370 C374 0.929 . S
H371 C380 0.929 . S
C372 H366 0.930 . S
C372 C373 1.367 . S
C372 C380 1.378 . S
C373 C372 1.367 . S
C373 C381 1.433 . S
C374 H370 0.929 . S
C374 C376 1.378 . S
C374 C378 1.350 . S
C375 C378 1.463 . S
C375 C380 1.350 . S
C375 N383 1.427 . S
C376 H367 0.930 . S
C376 C374 1.378 . S
C376 C377 1.367 . S
C377 C376 1.367 . S
C377 C379 1.433 . S
C378 C374 1.350 . S
C378 C375 1.463 . S
C378 N382 1.427 . S
C379 H369 0.929 . S
C379 C377 1.433 . S
C379 N382 1.384 . S
C380 H371 0.929 . S
C380 C372 1.378 . S
C380 C375 1.350 . S
C381 H368 0.929 . S
C381 C373 1.433 . S
C381 N383 1.384 . S
N382 C378 1.427 . S
N382 C379 1.384 . S
N383 C375 1.427 . S
N383 C381 1.384 . S
H384 C390 0.930 . S
H385 C394 0.930 . S
H386 C399 0.929 . S
H387 C397 0.929 . S
H388 C392 0.929 . S
H389 C398 0.929 . S
C390 H384 0.930 . S
C390 C391 1.367 . S
C390 C398 1.378 . S
C391 C390 1.367 . S
C391 C399 1.433 . S
C392 H388 0.929 . S
C392 C394 1.378 . S
C392 C396 1.350 . S
C393 C396 1.463 . S
C393 C398 1.350 . S
C393 N401 1.427 . S
C394 H385 0.930 . S
C394 C392 1.378 . S
C394 C395 1.367 . S
C395 C394 1.367 . S
C395 C397 1.433 . S
C396 C392 1.350 . S
C396 C393 1.463 . S
C396 N400 1.427 . S
C397 H387 0.929 . S
C397 C395 1.433 . S
C397 N400 1.384 . S
C398 H389 0.929 . S
C398 C390 1.378 . S
C398 C393 1.350 . S
C399 H386 0.929 . S
C399 C391 1.433 . S
C399 N401 1.384 . S
N400 C396 1.427 . S
N400 C397 1.384 . S
N401 C393 1.427 . S
N401 C399 1.384 . S
H402 C408 0.930 . S
H403 C412 0.930 . S
H404 C417 0.929 . S
H405 C415 0.929 . S
H406 C410 0.929 . S
H407 C416 0.929 . S
C408 H402 0.930 . S
C408 C409 1.367 . S
C408 C416 1.378 . S
C409 C408 1.367 . S
C409 C417 1.433 . S
C410 H406 0.929 . S
C410 C412 1.378 . S
C410 C414 1.350 . S
C411 C414 1.463 . S
C411 C416 1.350 . S
C411 N419 1.427 . S
C412 H403 0.930 . S
C412 C410 1.378 . S
C412 C413 1.367 . S
C413 C412 1.367 . S
C413 C415 1.433 . S
C414 C410 1.350 . S
C414 C411 1.463 . S
C414 N418 1.427 . S
C415 H405 0.929 . S
C415 C413 1.433 . S
C415 N418 1.384 . S
C416 H407 0.929 . S
C416 C408 1.378 . S
C416 C411 1.350 . S
C417 H404 0.929 . S
C417 C409 1.433 . S
C417 N419 1.384 . S
N418 C414 1.427 . S
N418 C415 1.384 . S
N419 C411 1.427 . S
N419 C417 1.384 . S
H420 C426 0.930 . S
H421 C430 0.930 . S
H422 C435 0.929 . S
H423 C433 0.929 . S
H424 C428 0.929 . S
H425 C434 0.929 . S
C426 H420 0.930 . S
C426 C427 1.367 . S
C426 C434 1.378 . S
C427 C426 1.367 . S
C427 C435 1.433 . S
C428 H424 0.929 . S
C428 C430 1.378 . S
C428 C432 1.350 . S
C429 C432 1.463 . S
C429 C434 1.350 . S
C429 N437 1.427 . S
C430 H421 0.930 . S
C430 C428 1.378 . S
C430 C431 1.367 . S
C431 C430 1.367 . S
C431 C433 1.433 . S
C432 C428 1.350 . S
C432 C429 1.463 . S
C432 N436 1.427 . S
C433 H423 0.929 . S
C433 C431 1.433 . S
C433 N436 1.384 . S
C434 H425 0.929 . S
C434 C426 1.378 . S
C434 C429 1.350 . S
C435 H422 0.929 . S
C435 C427 1.433 . S
C435 N437 1.384 . S
N436 C432 1.427 . S
N436 C433 1.384 . S
N437 C429 1.427 . S
N437 C435 1.384 . S
H438 C444 0.930 . S
H439 C448 0.930 . S
H440 C453 0.929 . S
H441 C451 0.929 . S
H442 C446 0.929 . S
H443 C452 0.929 . S
C444 H438 0.930 . S
C444 C445 1.367 . S
C444 C452 1.378 . S
C445 C444 1.367 . S
C445 C453 1.433 . S
C446 H442 0.929 . S
C446 C448 1.378 . S
C446 C450 1.350 . S
C447 C450 1.463 . S
C447 C452 1.350 . S
C447 N455 1.427 . S
C448 H439 0.930 . S
C448 C446 1.378 . S
C448 C449 1.367 . S
C449 C448 1.367 . S
C449 C451 1.433 . S
C450 C446 1.350 . S
C450 C447 1.463 . S
C450 N454 1.427 . S
C451 H441 0.929 . S
C451 C449 1.433 . S
C451 N454 1.384 . S
C452 H443 0.929 . S
C452 C444 1.378 . S
C452 C447 1.350 . S
C453 H440 0.929 . S
C453 C445 1.433 . S
C453 N455 1.384 . S
N454 C450 1.427 . S
N454 C451 1.384 . S
N455 C447 1.427 . S
N455 C453 1.384 . S
C139 C114 1.686 . S
C143 C5 1.683 . S
C157 C8 1.685 . S
C161 C31 1.683 . S
C175 C26 1.685 . S
C179 C49 1.688 . S
C193 C52 1.682 . S
C197 C75 1.687 . S
C211 C93 1.682 . S
C215 C70 1.686 . S
C229 C119 1.685 . S
C233 C96 1.687 . S
C247 C4 1.248 . S
C251 C7 1.254 . S
C265 C30 1.251 . S
C269 C28 1.252 . S
C283 C48 1.245 . S
C287 C51 1.251 . S
C301 C74 1.251 . S
C305 C72 1.245 . S
C319 C95 1.245 . S
C323 C92 1.252 . S
C337 C118 1.249 . S
C341 C116 1.254 . S
C355 C9 1.182 . S
C359 C94 1.177 . S
C373 C27 1.176 . S
C377 C117 1.180 . S
C391 C6 1.178 . S
C395 C53 1.177 . S
C409 C29 1.197 . S
C413 C71 1.198 . S
C427 C97 1.195 . S
C431 C50 1.198 . S
C445 C73 1.179 . S
C449 C115 1.176 . S
