# Generated by pormake.
# Topology umv, (4)-cn, num edge types: 1
# Building blocks:
#     Node 0, Type 0, BuildingBlock: GALJAG_clean_sbu_0, # of connection points: 4
#     Node 1, Type 0, BuildingBlock: GALJAG_clean_sbu_0, # of connection points: 4
#     Node 2, Type 0, BuildingBlock: GALJAG_clean_sbu_0, # of connection points: 4
#     Node 3, Type 0, BuildingBlock: GALJAG_clean_sbu_0, # of connection points: 4
#     Node 4, Type 0, BuildingBlock: GALJAG_clean_sbu_0, # of connection points: 4
#     Node 5, Type 0, BuildingBlock: GALJAG_clean_sbu_0, # of connection points: 4
#     Node 6, Type 0, BuildingBlock: GALJAG_clean_sbu_0, # of connection points: 4
#     Node 7, Type 0, BuildingBlock: GALJAG_clean_sbu_0, # of connection points: 4
#     Node 8, Type 0, BuildingBlock: GALJAG_clean_sbu_0, # of connection points: 4
#     Node 9, Type 0, BuildingBlock: GALJAG_clean_sbu_0, # of connection points: 4
#     Node 10, Type 0, BuildingBlock: GALJAG_clean_sbu_0, # of connection points: 4
#     Node 11, Type 0, BuildingBlock: GALJAG_clean_sbu_0, # of connection points: 4
#     Node 12, Type 0, BuildingBlock: GALJAG_clean_sbu_0, # of connection points: 4
#     Node 13, Type 0, BuildingBlock: GALJAG_clean_sbu_0, # of connection points: 4
#     Node 14, Type 0, BuildingBlock: GALJAG_clean_sbu_0, # of connection points: 4
#     Node 15, Type 0, BuildingBlock: GALJAG_clean_sbu_0, # of connection points: 4
#     Node 16, Type 0, BuildingBlock: GALJAG_clean_sbu_0, # of connection points: 4
#     Node 17, Type 0, BuildingBlock: GALJAG_clean_sbu_0, # of connection points: 4
#     Node 18, Type 0, BuildingBlock: GALJAG_clean_sbu_0, # of connection points: 4
#     Node 19, Type 0, BuildingBlock: GALJAG_clean_sbu_0, # of connection points: 4
#     Node 20, Type 0, BuildingBlock: GALJAG_clean_sbu_0, # of connection points: 4
#     Node 21, Type 0, BuildingBlock: GALJAG_clean_sbu_0, # of connection points: 4
#     Node 22, Type 0, BuildingBlock: GALJAG_clean_sbu_0, # of connection points: 4
#     Node 23, Type 0, BuildingBlock: GALJAG_clean_sbu_0, # of connection points: 4
#     Node 24, Type 0, BuildingBlock: GALJAG_clean_sbu_0, # of connection points: 4
#     Node 25, Type 0, BuildingBlock: GALJAG_clean_sbu_0, # of connection points: 4
#     Node 26, Type 0, BuildingBlock: GALJAG_clean_sbu_0, # of connection points: 4
#     Node 27, Type 0, BuildingBlock: GALJAG_clean_sbu_0, # of connection points: 4
#     Node 28, Type 0, BuildingBlock: GALJAG_clean_sbu_0, # of connection points: 4
#     Node 29, Type 0, BuildingBlock: GALJAG_clean_sbu_0, # of connection points: 4
#     Node 30, Type 0, BuildingBlock: GALJAG_clean_sbu_0, # of connection points: 4
#     Node 31, Type 0, BuildingBlock: GALJAG_clean_sbu_0, # of connection points: 4
#     Edge 32, Type (0, 0), BuildingBlock: UVAHIK_clean_linker_0, # of connection points: 2
#     Edge 33, Type (0, 0), BuildingBlock: UVAHIK_clean_linker_0, # of connection points: 2
#     Edge 34, Type (0, 0), BuildingBlock: UVAHIK_clean_linker_0, # of connection points: 2
#     Edge 35, Type (0, 0), BuildingBlock: UVAHIK_clean_linker_0, # of connection points: 2
#     Edge 36, Type (0, 0), BuildingBlock: UVAHIK_clean_linker_0, # of connection points: 2
#     Edge 37, Type (0, 0), BuildingBlock: UVAHIK_clean_linker_0, # of connection points: 2
#     Edge 38, Type (0, 0), BuildingBlock: UVAHIK_clean_linker_0, # of connection points: 2
#     Edge 39, Type (0, 0), BuildingBlock: UVAHIK_clean_linker_0, # of connection points: 2
#     Edge 40, Type (0, 0), BuildingBlock: UVAHIK_clean_linker_0, # of connection points: 2
#     Edge 41, Type (0, 0), BuildingBlock: UVAHIK_clean_linker_0, # of connection points: 2
#     Edge 42, Type (0, 0), BuildingBlock: UVAHIK_clean_linker_0, # of connection points: 2
#     Edge 43, Type (0, 0), BuildingBlock: UVAHIK_clean_linker_0, # of connection points: 2
#     Edge 44, Type (0, 0), BuildingBlock: UVAHIK_clean_linker_0, # of connection points: 2
#     Edge 45, Type (0, 0), BuildingBlock: UVAHIK_clean_linker_0, # of connection points: 2
#     Edge 46, Type (0, 0), BuildingBlock: UVAHIK_clean_linker_0, # of connection points: 2
#     Edge 47, Type (0, 0), BuildingBlock: UVAHIK_clean_linker_0, # of connection points: 2
#     Edge 48, Type (0, 0), BuildingBlock: UVAHIK_clean_linker_0, # of connection points: 2
#     Edge 49, Type (0, 0), BuildingBlock: UVAHIK_clean_linker_0, # of connection points: 2
#     Edge 50, Type (0, 0), BuildingBlock: UVAHIK_clean_linker_0, # of connection points: 2
#     Edge 51, Type (0, 0), BuildingBlock: UVAHIK_clean_linker_0, # of connection points: 2
#     Edge 52, Type (0, 0), BuildingBlock: UVAHIK_clean_linker_0, # of connection points: 2
#     Edge 53, Type (0, 0), BuildingBlock: UVAHIK_clean_linker_0, # of connection points: 2
#     Edge 54, Type (0, 0), BuildingBlock: UVAHIK_clean_linker_0, # of connection points: 2
#     Edge 55, Type (0, 0), BuildingBlock: UVAHIK_clean_linker_0, # of connection points: 2
#     Edge 56, Type (0, 0), BuildingBlock: UVAHIK_clean_linker_0, # of connection points: 2
#     Edge 57, Type (0, 0), BuildingBlock: UVAHIK_clean_linker_0, # of connection points: 2
#     Edge 58, Type (0, 0), BuildingBlock: UVAHIK_clean_linker_0, # of connection points: 2
#     Edge 59, Type (0, 0), BuildingBlock: UVAHIK_clean_linker_0, # of connection points: 2
#     Edge 60, Type (0, 0), BuildingBlock: UVAHIK_clean_linker_0, # of connection points: 2
#     Edge 61, Type (0, 0), BuildingBlock: UVAHIK_clean_linker_0, # of connection points: 2
#     Edge 62, Type (0, 0), BuildingBlock: UVAHIK_clean_linker_0, # of connection points: 2
#     Edge 63, Type (0, 0), BuildingBlock: UVAHIK_clean_linker_0, # of connection points: 2
#     Edge 64, Type (0, 0), BuildingBlock: UVAHIK_clean_linker_0, # of connection points: 2
#     Edge 65, Type (0, 0), BuildingBlock: UVAHIK_clean_linker_0, # of connection points: 2
#     Edge 66, Type (0, 0), BuildingBlock: UVAHIK_clean_linker_0, # of connection points: 2
#     Edge 67, Type (0, 0), BuildingBlock: UVAHIK_clean_linker_0, # of connection points: 2
#     Edge 68, Type (0, 0), BuildingBlock: UVAHIK_clean_linker_0, # of connection points: 2
#     Edge 69, Type (0, 0), BuildingBlock: UVAHIK_clean_linker_0, # of connection points: 2
#     Edge 70, Type (0, 0), BuildingBlock: UVAHIK_clean_linker_0, # of connection points: 2
#     Edge 71, Type (0, 0), BuildingBlock: UVAHIK_clean_linker_0, # of connection points: 2
#     Edge 72, Type (0, 0), BuildingBlock: UVAHIK_clean_linker_0, # of connection points: 2
#     Edge 73, Type (0, 0), BuildingBlock: UVAHIK_clean_linker_0, # of connection points: 2
#     Edge 74, Type (0, 0), BuildingBlock: UVAHIK_clean_linker_0, # of connection points: 2
#     Edge 75, Type (0, 0), BuildingBlock: UVAHIK_clean_linker_0, # of connection points: 2
#     Edge 76, Type (0, 0), BuildingBlock: UVAHIK_clean_linker_0, # of connection points: 2
#     Edge 77, Type (0, 0), BuildingBlock: UVAHIK_clean_linker_0, # of connection points: 2
#     Edge 78, Type (0, 0), BuildingBlock: UVAHIK_clean_linker_0, # of connection points: 2
#     Edge 79, Type (0, 0), BuildingBlock: UVAHIK_clean_linker_0, # of connection points: 2
#     Edge 80, Type (0, 0), BuildingBlock: UVAHIK_clean_linker_0, # of connection points: 2
#     Edge 81, Type (0, 0), BuildingBlock: UVAHIK_clean_linker_0, # of connection points: 2
#     Edge 82, Type (0, 0), BuildingBlock: UVAHIK_clean_linker_0, # of connection points: 2
#     Edge 83, Type (0, 0), BuildingBlock: UVAHIK_clean_linker_0, # of connection points: 2
#     Edge 84, Type (0, 0), BuildingBlock: UVAHIK_clean_linker_0, # of connection points: 2
#     Edge 85, Type (0, 0), BuildingBlock: UVAHIK_clean_linker_0, # of connection points: 2
#     Edge 86, Type (0, 0), BuildingBlock: UVAHIK_clean_linker_0, # of connection points: 2
#     Edge 87, Type (0, 0), BuildingBlock: UVAHIK_clean_linker_0, # of connection points: 2
#     Edge 88, Type (0, 0), BuildingBlock: UVAHIK_clean_linker_0, # of connection points: 2
#     Edge 89, Type (0, 0), BuildingBlock: UVAHIK_clean_linker_0, # of connection points: 2
#     Edge 90, Type (0, 0), BuildingBlock: UVAHIK_clean_linker_0, # of connection points: 2
#     Edge 91, Type (0, 0), BuildingBlock: UVAHIK_clean_linker_0, # of connection points: 2
#     Edge 92, Type (0, 0), BuildingBlock: UVAHIK_clean_linker_0, # of connection points: 2
#     Edge 93, Type (0, 0), BuildingBlock: UVAHIK_clean_linker_0, # of connection points: 2
#     Edge 94, Type (0, 0), BuildingBlock: UVAHIK_clean_linker_0, # of connection points: 2
#     Edge 95, Type (0, 0), BuildingBlock: UVAHIK_clean_linker_0, # of connection points: 2
# Relax obj value: 0.082
# Max RMSD: 0.091
# Mean RMSD: 0.091
data_MOF--net-umv--node1-GALJAG_clean_sbu_0--edge1-UVAHIK_clean_linker_0
_symmetry_space_group_name_H-M    P1
_symmetry_Int_Tables_number       1
_symmetry_cell_setting            triclinic
loop_
_symmetry_equiv_pos_as_xyz
'x, y, z'
_cell_length_a     137.74241
_cell_length_b     35.257201
_cell_length_c     65.009353
_cell_angle_alpha  89.998463
_cell_angle_beta   90.007035
_cell_angle_gamma 90.016005
loop_
_atom_site_label
_atom_site_type_symbol
_atom_site_fract_x
_atom_site_fract_y
_atom_site_fract_z
_atom_type_partial_charge
In0 In 0.05462 0.12531 0.31121 0.0
O1 O 0.05735 0.1616 0.33985 0.0
O2 O 0.05865 0.18771 0.31055 0.0
C3 C 0.04979 0.05894 0.32901 0.0
C4 C 0.03784 0.14644 0.29327 0.0
C5 C 0.07204 0.10859 0.29463 0.0
O6 O 0.05137 0.08884 0.33917 0.0
O7 O 0.05052 0.06259 0.30972 0.0
O8 O 0.06498 0.11945 0.2837 0.0
O9 O 0.07021 0.1057 0.31356 0.0
C10 C 0.05906 0.19149 0.32979 0.0
O11 O 0.04532 0.13842 0.2829 0.0
O12 O 0.03875 0.14216 0.31242 0.0
In13 In 0.19125 0.12122 0.30593 0.0
O14 O 0.19942 0.10825 0.27611 0.0
O15 O 0.20765 0.12053 0.30295 0.0
C16 C 0.17263 0.12017 0.2931 0.0
C17 C 0.19223 0.05343 0.32474 0.0
C18 C 0.19272 0.18926 0.32462 0.0
O19 O 0.17941 0.13104 0.2814 0.0
O20 O 0.17527 0.11113 0.31099 0.0
O21 O 0.19261 0.15832 0.33437 0.0
O22 O 0.19212 0.18597 0.30531 0.0
C23 C 0.20772 0.11044 0.28435 0.0
O24 O 0.19269 0.08424 0.33464 0.0
O25 O 0.19121 0.05705 0.30556 0.0
In26 In 0.05449 0.1237 0.94175 0.0
O27 O 0.0546 0.08702 0.91277 0.0
O28 O 0.05499 0.0595 0.9419 0.0
C29 C 0.05185 0.1916 0.92351 0.0
C30 C 0.03808 0.10976 0.96298 0.0
C31 C 0.07308 0.12593 0.95472 0.0
O32 O 0.05179 0.16069 0.91374 0.0
O33 O 0.05324 0.18837 0.94264 0.0
O34 O 0.06613 0.13383 0.96668 0.0
O35 O 0.0706 0.11841 0.93653 0.0
C36 C 0.0549 0.05611 0.9226 0.0
O37 O 0.04634 0.10953 0.97145 0.0
O38 O 0.03812 0.11921 0.94428 0.0
In39 In 0.19149 0.12441 0.94124 0.0
O40 O 0.20044 0.1393 0.96982 0.0
O41 O 0.20753 0.13862 0.94078 0.0
C42 C 0.17375 0.10965 0.95681 0.0
C43 C 0.18811 0.19067 0.92185 0.0
C44 C 0.19569 0.05691 0.92408 0.0
O45 O 0.18081 0.11865 0.96824 0.0
O46 O 0.17573 0.10772 0.93791 0.0
O47 O 0.1938 0.08617 0.91363 0.0
O48 O 0.1956 0.06176 0.94336 0.0
C49 C 0.20816 0.14511 0.95979 0.0
O50 O 0.19054 0.16102 0.91226 0.0
O51 O 0.18721 0.18654 0.94099 0.0
In52 In 0.94165 0.87386 0.69201 0.0
O53 O 0.94318 0.83869 0.66268 0.0
O54 O 0.94175 0.80965 0.69124 0.0
C55 C 0.94292 0.9429 0.67432 0.0
C56 C 0.95811 0.86282 0.71362 0.0
C57 C 0.92306 0.87139 0.70506 0.0
O58 O 0.94282 0.91247 0.66412 0.0
O59 O 0.94242 0.9386 0.69358 0.0
O60 O 0.92986 0.88205 0.71678 0.0
O61 O 0.92567 0.86318 0.68704 0.0
C62 C 0.94278 0.80727 0.672 0.0
O63 O 0.94981 0.8606 0.72181 0.0
O64 O 0.95806 0.87286 0.695 0.0
In65 In 0.80476 0.86997 0.69034 0.0
O66 O 0.79558 0.88394 0.71868 0.0
O67 O 0.78888 0.88646 0.68923 0.0
C68 C 0.82238 0.85473 0.70632 0.0
C69 C 0.80884 0.93532 0.6706 0.0
C70 C 0.8 0.80201 0.67436 0.0
O71 O 0.81544 0.86614 0.71741 0.0
O72 O 0.82035 0.85064 0.68755 0.0
O73 O 0.80169 0.83079 0.66335 0.0
O74 O 0.8006 0.80764 0.69352 0.0
C75 C 0.78803 0.89128 0.70835 0.0
O76 O 0.80682 0.90516 0.66104 0.0
O77 O 0.80891 0.9322 0.6899 0.0
In78 In 0.942 0.87274 0.05485 0.0
O79 O 0.94327 0.90857 0.08404 0.0
O80 O 0.94173 0.93687 0.05529 0.0
C81 C 0.94376 0.80374 0.07234 0.0
C82 C 0.95839 0.8853 0.03328 0.0
C83 C 0.92333 0.87363 0.04234 0.0
O84 O 0.94368 0.83411 0.0826 0.0
O85 O 0.943 0.8081 0.05312 0.0
O86 O 0.93013 0.86436 0.03026 0.0
O87 O 0.926 0.88113 0.06043 0.0
C88 C 0.9427 0.93975 0.07451 0.0
O89 O 0.95008 0.88678 0.02506 0.0
O90 O 0.95839 0.8751 0.05187 0.0
In91 In 0.80506 0.87488 0.05965 0.0
O92 O 0.79569 0.86335 0.03123 0.0
O93 O 0.78917 0.85866 0.06077 0.0
C94 C 0.82264 0.89049 0.04347 0.0
C95 C 0.80914 0.80833 0.0782 0.0
C96 C 0.80039 0.94141 0.07742 0.0
O97 O 0.81561 0.87984 0.03239 0.0
O98 O 0.8207 0.8937 0.06234 0.0
O99 O 0.80185 0.91144 0.08759 0.0
O100 O 0.80119 0.93777 0.05814 0.0
C101 C 0.7882 0.85533 0.04158 0.0
O102 O 0.80759 0.83835 0.08826 0.0
O103 O 0.80875 0.81213 0.05896 0.0
In104 In 0.05452 0.62288 0.80712 0.0
O105 O 0.05502 0.65945 0.83615 0.0
O106 O 0.05839 0.68543 0.80756 0.0
C107 C 0.05058 0.55503 0.82415 0.0
C108 C 0.03792 0.64234 0.78793 0.0
C109 C 0.07248 0.6096 0.79231 0.0
O110 O 0.05217 0.58451 0.83465 0.0
O111 O 0.05084 0.55982 0.80488 0.0
O112 O 0.06544 0.61715 0.78053 0.0
O113 O 0.07038 0.60839 0.81117 0.0
C114 C 0.05733 0.68937 0.82668 0.0
O115 O 0.04579 0.63781 0.77824 0.0
O116 O 0.03838 0.63513 0.80689 0.0
In117 In 0.19197 0.62516 0.80747 0.0
O118 O 0.1916 0.58853 0.83646 0.0
O119 O 0.19107 0.56104 0.80734 0.0
C120 C 0.19496 0.69314 0.82536 0.0
C121 C 0.20834 0.61004 0.78636 0.0
C122 C 0.17336 0.62867 0.79476 0.0
O123 O 0.19503 0.66234 0.83524 0.0
O124 O 0.1934 0.68976 0.80629 0.0
O125 O 0.18032 0.63491 0.78252 0.0
O126 O 0.17586 0.6222 0.81306 0.0
C127 C 0.19111 0.55766 0.82664 0.0
O128 O 0.20011 0.61065 0.77779 0.0
O129 O 0.2083 0.61921 0.8051 0.0
In130 In 0.05502 0.62577 0.44087 0.0
O131 O 0.04578 0.61029 0.46894 0.0
O132 O 0.03921 0.60857 0.43935 0.0
C133 C 0.07252 0.64268 0.45692 0.0
C134 C 0.05947 0.5599 0.42206 0.0
C135 C 0.05018 0.69318 0.42435 0.0
O136 O 0.06552 0.6321 0.46811 0.0
O137 O 0.07059 0.64524 0.43801 0.0
O138 O 0.0522 0.66445 0.41355 0.0
O139 O 0.05049 0.68776 0.44357 0.0
C140 C 0.03831 0.60282 0.45839 0.0
O141 O 0.057 0.58905 0.41206 0.0
O142 O 0.05982 0.56437 0.44127 0.0
In143 In 0.19181 0.62189 0.44285 0.0
O144 O 0.19985 0.63668 0.47258 0.0
O145 O 0.20821 0.62363 0.44605 0.0
C146 C 0.17318 0.62358 0.45561 0.0
C147 C 0.19272 0.68837 0.4227 0.0
C148 C 0.19336 0.55272 0.42543 0.0
O149 O 0.17997 0.61357 0.46751 0.0
O150 O 0.17582 0.63142 0.43755 0.0
O151 O 0.19329 0.58305 0.41514 0.0
O152 O 0.19271 0.55718 0.44466 0.0
C153 C 0.20818 0.63459 0.46451 0.0
O154 O 0.19324 0.65692 0.41342 0.0
O155 O 0.19167 0.68603 0.44192 0.0
In156 In 0.94176 0.37242 0.19178 0.0
O157 O 0.94981 0.36072 0.22192 0.0
O158 O 0.95814 0.37031 0.19491 0.0
C159 C 0.9231 0.37151 0.20445 0.0
C160 C 0.94262 0.30485 0.17271 0.0
C161 C 0.9434 0.4405 0.17315 0.0
O162 O 0.92989 0.38186 0.21627 0.0
O163 O 0.92576 0.36287 0.18652 0.0
O164 O 0.94333 0.40957 0.16341 0.0
O165 O 0.94268 0.4372 0.19243 0.0
C166 C 0.95813 0.36173 0.21374 0.0
O167 O 0.94311 0.33582 0.16297 0.0
O168 O 0.94165 0.30815 0.19192 0.0
In169 In 0.80465 0.37401 0.18994 0.0
O170 O 0.79539 0.38601 0.21847 0.0
O171 O 0.78893 0.3926 0.18896 0.0
C172 C 0.82225 0.35778 0.20574 0.0
C173 C 0.80891 0.44009 0.17114 0.0
C174 C 0.79984 0.30681 0.17311 0.0
O175 O 0.81536 0.3694 0.21692 0.0
O176 O 0.82017 0.35391 0.18698 0.0
O177 O 0.8018 0.33575 0.16243 0.0
O178 O 0.80018 0.31192 0.19234 0.0
C179 C 0.78799 0.39544 0.20819 0.0
O180 O 0.80647 0.41086 0.16116 0.0
O181 O 0.80932 0.43563 0.19034 0.0
In182 In 0.94184 0.37466 0.55495 0.0
O183 O 0.94996 0.38546 0.52481 0.0
O184 O 0.95823 0.37577 0.55189 0.0
C185 C 0.92318 0.37668 0.54239 0.0
C186 C 0.943 0.44251 0.57366 0.0
C187 C 0.94314 0.30646 0.57357 0.0
O188 O 0.92991 0.36595 0.53052 0.0
O189 O 0.92589 0.38517 0.5603 0.0
O190 O 0.94323 0.33737 0.58334 0.0
O191 O 0.94243 0.30986 0.55429 0.0
C192 C 0.95826 0.38413 0.53304 0.0
O193 O 0.94339 0.4117 0.58358 0.0
O194 O 0.94197 0.43888 0.55448 0.0
In195 In 0.80499 0.37083 0.56041 0.0
O196 O 0.79547 0.36163 0.53194 0.0
O197 O 0.78922 0.35286 0.56147 0.0
C198 C 0.82246 0.38775 0.54416 0.0
C199 C 0.80927 0.30349 0.57788 0.0
C200 C 0.80029 0.43654 0.57902 0.0
O201 O 0.81548 0.37646 0.53313 0.0
O202 O 0.82054 0.39092 0.56303 0.0
O203 O 0.80207 0.40647 0.58888 0.0
O204 O 0.80079 0.43338 0.55968 0.0
C205 C 0.78811 0.35173 0.54223 0.0
O206 O 0.80734 0.33258 0.58844 0.0
O207 O 0.80917 0.30867 0.55871 0.0
In208 In 0.5541 0.12427 0.8046 0.0
O209 O 0.54618 0.1363 0.77435 0.0
O210 O 0.53773 0.12529 0.80103 0.0
C211 C 0.57283 0.12668 0.79256 0.0
C212 C 0.55282 0.19131 0.82411 0.0
C213 C 0.55263 0.05567 0.8227 0.0
O214 O 0.56617 0.1164 0.7804 0.0
O215 O 0.57002 0.13451 0.81049 0.0
O216 O 0.55249 0.08638 0.83264 0.0
O217 O 0.55347 0.05944 0.80346 0.0
C218 C 0.53782 0.13449 0.7823 0.0
O219 O 0.55243 0.16009 0.83362 0.0
O220 O 0.5539 0.18853 0.8049 0.0
In221 In 0.69151 0.12314 0.80926 0.0
O222 O 0.69249 0.08449 0.83739 0.0
O223 O 0.68537 0.0632 0.81086 0.0
C224 C 0.69573 0.18971 0.82748 0.0
C225 C 0.70777 0.10318 0.78879 0.0
C226 C 0.67383 0.13986 0.79413 0.0
O227 O 0.69359 0.16013 0.83743 0.0
O228 O 0.69581 0.18576 0.80815 0.0
O229 O 0.68073 0.12955 0.78259 0.0
O230 O 0.67593 0.14212 0.81297 0.0
C231 C 0.68814 0.05708 0.82901 0.0
O232 O 0.69982 0.10887 0.77963 0.0
O233 O 0.70754 0.10898 0.80789 0.0
In234 In 0.55416 0.12131 0.44242 0.0
O235 O 0.55268 0.08419 0.41381 0.0
O236 O 0.55395 0.05708 0.44295 0.0
C237 C 0.553 0.18928 0.42352 0.0
C238 C 0.53763 0.11221 0.464 0.0
C239 C 0.57273 0.1194 0.45561 0.0
O240 O 0.55308 0.15828 0.41384 0.0
O241 O 0.55348 0.18608 0.44284 0.0
O242 O 0.56593 0.1308 0.46711 0.0
O243 O 0.57014 0.11015 0.43772 0.0
C244 C 0.55299 0.05341 0.42376 0.0
O245 O 0.5459 0.11046 0.47237 0.0
O246 O 0.53776 0.12074 0.44517 0.0
In247 In 0.69085 0.12437 0.43926 0.0
O248 O 0.70017 0.13668 0.46763 0.0
O249 O 0.70649 0.14401 0.43805 0.0
C250 C 0.67336 0.10842 0.45574 0.0
C251 C 0.68639 0.18938 0.41954 0.0
C252 C 0.69584 0.05687 0.42298 0.0
O253 O 0.68025 0.12136 0.46648 0.0
O254 O 0.67538 0.10316 0.43705 0.0
O255 O 0.6939 0.08553 0.41207 0.0
O256 O 0.69539 0.0624 0.44216 0.0
C257 C 0.7075 0.14666 0.45727 0.0
O258 O 0.68858 0.1594 0.40997 0.0
O259 O 0.68633 0.18622 0.43884 0.0
In260 In 0.44113 0.87425 0.19013 0.0
O261 O 0.45034 0.85917 0.21831 0.0
O262 O 0.45698 0.85743 0.18878 0.0
C263 C 0.42362 0.89097 0.2062 0.0
C264 C 0.43678 0.80821 0.17137 0.0
C265 C 0.44589 0.9416 0.17342 0.0
O266 O 0.43064 0.88058 0.21739 0.0
O267 O 0.42554 0.89342 0.18729 0.0
O268 O 0.4439 0.91274 0.16271 0.0
O269 O 0.4456 0.93636 0.19265 0.0
C270 C 0.45784 0.85182 0.20785 0.0
O271 O 0.4392 0.83742 0.16135 0.0
O272 O 0.43643 0.8127 0.19057 0.0
In273 In 0.30426 0.87499 0.19346 0.0
O274 O 0.29612 0.88933 0.22314 0.0
O275 O 0.28786 0.87693 0.19637 0.0
C276 C 0.3229 0.87584 0.20616 0.0
C277 C 0.30355 0.94202 0.17383 0.0
C278 C 0.30262 0.80607 0.17583 0.0
O279 O 0.31609 0.8663 0.21813 0.0
O280 O 0.32027 0.88366 0.1881 0.0
O281 O 0.30275 0.83649 0.16562 0.0
O282 O 0.30326 0.81033 0.19508 0.0
C283 C 0.28783 0.88751 0.2149 0.0
O284 O 0.30291 0.91086 0.1643 0.0
O285 O 0.3046 0.93911 0.19303 0.0
In286 In 0.4411 0.87306 0.55949 0.0
O287 O 0.45014 0.88813 0.53109 0.0
O288 O 0.45694 0.89034 0.56045 0.0
C289 C 0.42354 0.85623 0.54371 0.0
C290 C 0.43682 0.93898 0.57843 0.0
C291 C 0.446 0.80579 0.57611 0.0
O292 O 0.4305 0.86678 0.53242 0.0
O293 O 0.42553 0.85367 0.56259 0.0
O294 O 0.444 0.8346 0.58686 0.0
O295 O 0.44565 0.81105 0.55689 0.0
C296 C 0.45769 0.8958 0.54135 0.0
O297 O 0.43932 0.90977 0.58835 0.0
O298 O 0.43635 0.93453 0.55924 0.0
In299 In 0.30403 0.872 0.55679 0.0
O300 O 0.3026 0.83619 0.58591 0.0
O301 O 0.30413 0.80779 0.55719 0.0
C302 C 0.3024 0.94041 0.57502 0.0
C303 C 0.28771 0.86006 0.53485 0.0
C304 C 0.32271 0.87098 0.54424 0.0
O305 O 0.30244 0.90964 0.58492 0.0
O306 O 0.30314 0.93678 0.55575 0.0
O307 O 0.31595 0.88147 0.53238 0.0
O308 O 0.32002 0.8623 0.56214 0.0
C309 C 0.3031 0.80498 0.57641 0.0
O310 O 0.29606 0.8578 0.52689 0.0
O311 O 0.28765 0.87079 0.55335 0.0
In312 In 0.55407 0.62211 0.3054 0.0
O313 O 0.54608 0.63458 0.27528 0.0
O314 O 0.53768 0.62375 0.30205 0.0
C315 C 0.57276 0.62504 0.29306 0.0
C316 C 0.55285 0.68868 0.32541 0.0
C317 C 0.5527 0.55285 0.32281 0.0
O318 O 0.56605 0.61501 0.28095 0.0
O319 O 0.57001 0.63238 0.3111 0.0
O320 O 0.5526 0.58318 0.33309 0.0
O321 O 0.55345 0.55735 0.3036 0.0
C322 C 0.53774 0.63302 0.28333 0.0
O323 O 0.55241 0.65724 0.33471 0.0
O324 O 0.55395 0.68633 0.30619 0.0
In325 In 0.69105 0.62497 0.30986 0.0
O326 O 0.68867 0.5867 0.3379 0.0
O327 O 0.68676 0.56296 0.30814 0.0
C328 C 0.69584 0.69093 0.32813 0.0
C329 C 0.70785 0.60506 0.29168 0.0
C330 C 0.67352 0.64206 0.29397 0.0
O331 O 0.69416 0.66094 0.33814 0.0
O332 O 0.69522 0.68755 0.30882 0.0
O333 O 0.68049 0.63142 0.28273 0.0
O334 O 0.67549 0.64456 0.31286 0.0
C335 C 0.68667 0.55771 0.3273 0.0
O336 O 0.70046 0.61463 0.28137 0.0
O337 O 0.70681 0.60702 0.31091 0.0
In338 In 0.55384 0.62362 0.94146 0.0
O339 O 0.54582 0.61191 0.97164 0.0
O340 O 0.53747 0.62173 0.94467 0.0
C341 C 0.57257 0.62213 0.95356 0.0
C342 C 0.55279 0.55611 0.92238 0.0
C343 C 0.55228 0.69228 0.92349 0.0
O344 O 0.56585 0.63153 0.96578 0.0
O345 O 0.56981 0.61468 0.93554 0.0
O346 O 0.55228 0.66168 0.91343 0.0
O347 O 0.55302 0.68832 0.94273 0.0
C348 C 0.5375 0.61303 0.96348 0.0
O349 O 0.55221 0.58707 0.91265 0.0
O350 O 0.55394 0.55943 0.94154 0.0
In351 In 0.69166 0.62175 0.941 0.0
O352 O 0.69211 0.65881 0.91216 0.0
O353 O 0.68576 0.68183 0.93918 0.0
C354 C 0.69617 0.55391 0.9246 0.0
C355 C 0.70793 0.6434 0.96088 0.0
C356 C 0.67381 0.606 0.95554 0.0
O357 O 0.69419 0.58264 0.9138 0.0
O358 O 0.69598 0.55945 0.9438 0.0
O359 O 0.68058 0.61703 0.96724 0.0
O360 O 0.67614 0.60249 0.93687 0.0
C361 C 0.68809 0.68689 0.92064 0.0
O362 O 0.70013 0.63638 0.97038 0.0
O363 O 0.70754 0.63812 0.94174 0.0
In364 In 0.44109 0.37399 0.68948 0.0
O365 O 0.45026 0.35976 0.71784 0.0
O366 O 0.45705 0.35873 0.68845 0.0
C367 C 0.42352 0.39044 0.70539 0.0
C368 C 0.43695 0.30751 0.67093 0.0
C369 C 0.44588 0.44046 0.67181 0.0
O370 O 0.43058 0.38087 0.71669 0.0
O371 O 0.42543 0.39217 0.68646 0.0
O372 O 0.4444 0.41053 0.66161 0.0
O373 O 0.44506 0.43681 0.69108 0.0
C374 C 0.45786 0.35315 0.70753 0.0
O375 O 0.43861 0.33743 0.66085 0.0
O376 O 0.43725 0.31141 0.69017 0.0
In377 In 0.30408 0.37251 0.69371 0.0
O378 O 0.30266 0.40886 0.66475 0.0
O379 O 0.30434 0.43665 0.69362 0.0
C380 C 0.30239 0.30374 0.67592 0.0
C381 C 0.2877 0.38449 0.71539 0.0
C382 C 0.32277 0.37358 0.70608 0.0
O383 O 0.30248 0.33426 0.66578 0.0
O384 O 0.30311 0.30784 0.69517 0.0
O385 O 0.316 0.36418 0.7182 0.0
O386 O 0.32007 0.38111 0.68803 0.0
C387 C 0.30326 0.43987 0.67443 0.0
O388 O 0.29601 0.38584 0.7236 0.0
O389 O 0.28769 0.37467 0.69674 0.0
In390 In 0.44133 0.3737 0.06009 0.0
O391 O 0.45049 0.38742 0.03167 0.0
O392 O 0.45723 0.39011 0.06106 0.0
C393 C 0.42381 0.35711 0.04392 0.0
C394 C 0.43703 0.43989 0.0788 0.0
C395 C 0.44615 0.30721 0.07774 0.0
O396 O 0.43085 0.36745 0.03279 0.0
O397 O 0.4257 0.35467 0.06284 0.0
O398 O 0.44465 0.3371 0.08795 0.0
O399 O 0.44536 0.31093 0.05847 0.0
C400 C 0.45804 0.39498 0.04193 0.0
O401 O 0.43878 0.40999 0.0888 0.0
O402 O 0.43731 0.43612 0.05955 0.0
In403 In 0.30456 0.37448 0.05642 0.0
O404 O 0.29637 0.36255 0.02648 0.0
O405 O 0.28816 0.3736 0.0535 0.0
C406 C 0.32318 0.37247 0.04358 0.0
C407 C 0.30351 0.30706 0.07561 0.0
C408 C 0.30319 0.44274 0.07493 0.0
O409 O 0.31642 0.38319 0.03181 0.0
O410 O 0.32053 0.36405 0.06154 0.0
O411 O 0.30315 0.41186 0.08473 0.0
O412 O 0.3039 0.4393 0.05565 0.0
C413 C 0.28808 0.36442 0.03476 0.0
O414 O 0.30321 0.3381 0.08532 0.0
O415 O 0.30438 0.31022 0.05638 0.0
C416 C 0.08863 0.08191 0.29837 0.0
C417 C 0.08189 0.10206 0.28647 0.0
C418 C 0.09828 0.07914 0.29215 0.0
C419 C 0.11662 0.1323 0.26469 0.0
H420 H 0.13196 0.04238 0.27574 0.0
C421 C 0.15903 0.13165 0.26791 0.0
C422 C 0.16242 0.1162 0.28651 0.0
C423 C 0.14926 0.12731 0.26219 0.0
C424 C 0.12777 0.06764 0.27238 0.0
H425 H 0.07983 0.1341 0.25836 0.0
H426 H 0.09689 0.1298 0.24756 0.0
H427 H 0.11429 0.03799 0.27531 0.0
H428 H 0.15832 0.0837 0.31351 0.0
H429 H 0.14148 0.07598 0.30353 0.0
H430 H 0.13015 0.16228 0.26285 0.0
C431 C 0.09464 0.11599 0.26166 0.0
C432 C 0.11767 0.06512 0.27214 0.0
C433 C 0.0849 0.11829 0.26778 0.0
C434 C 0.15594 0.09604 0.2991 0.0
C435 C 0.1463 0.09127 0.29329 0.0
C436 C 0.12676 0.1348 0.26491 0.0
C437 C 0.10145 0.0968 0.27397 0.0
C438 C 0.11198 0.09774 0.26923 0.0
C439 C 0.14284 0.10683 0.27482 0.0
C440 C 0.1324 0.1028 0.2697 0.0
H441 H 0.08651 0.06908 0.31284 0.0
H442 H 0.10337 0.06463 0.30213 0.0
H443 H 0.11242 0.15795 0.26249 0.0
H444 H 0.16388 0.14732 0.25793 0.0
H445 H 0.14675 0.1397 0.24791 0.0
C446 C 0.157 0.08538 0.95183 0.0
C447 C 0.16377 0.1039 0.96442 0.0
C448 C 0.14728 0.08321 0.9576 0.0
C449 C 0.12899 0.13576 0.98555 0.0
H450 H 0.11333 0.04795 0.97172 0.0
C451 C 0.08643 0.13559 0.98076 0.0
C452 C 0.0833 0.12274 0.96138 0.0
C453 C 0.09616 0.13108 0.98673 0.0
C454 C 0.11761 0.07257 0.97589 0.0
H455 H 0.16579 0.13376 0.99324 0.0
H456 H 0.14861 0.13052 0.00326 0.0
H457 H 0.13097 0.04218 0.97291 0.0
H458 H 0.08785 0.09503 0.93316 0.0
H459 H 0.10462 0.08686 0.94362 0.0
H460 H 0.11557 0.16652 0.9875 0.0
C461 C 0.15089 0.1175 0.98897 0.0
C462 C 0.12769 0.06929 0.97655 0.0
C463 C 0.1607 0.11919 0.98329 0.0
C464 C 0.09002 0.10531 0.94818 0.0
C465 C 0.09962 0.1003 0.95423 0.0
C466 C 0.11886 0.13902 0.98495 0.0
C467 C 0.14407 0.09986 0.97602 0.0
C468 C 0.13351 0.10124 0.98042 0.0
C469 C 0.1028 0.11293 0.97356 0.0
C470 C 0.11313 0.10782 0.97917 0.0
H471 H 0.15916 0.0733 0.93721 0.0
H472 H 0.14219 0.06993 0.94713 0.0
H473 H 0.13329 0.1609 0.98851 0.0
H474 H 0.08139 0.14912 0.99122 0.0
H475 H 0.09847 0.14124 0.00167 0.0
C476 C 0.90955 0.88157 0.73058 0.0
C477 C 0.91289 0.86681 0.71178 0.0
C478 C 0.89982 0.87673 0.73644 0.0
C479 C 0.87845 0.81654 0.72631 0.0
H480 H 0.8629 0.90597 0.73717 0.0
C481 C 0.83902 0.82882 0.70198 0.0
C482 C 0.83233 0.84882 0.71408 0.0
C483 C 0.84874 0.82653 0.70781 0.0
C484 C 0.86716 0.88055 0.7347 0.0
H485 H 0.90876 0.83503 0.68457 0.0
H486 H 0.89197 0.82639 0.69481 0.0
H487 H 0.88061 0.91109 0.7363 0.0
H488 H 0.83044 0.88107 0.74218 0.0
H489 H 0.8476 0.87752 0.75231 0.0
H490 H 0.86504 0.78631 0.7237 0.0
C491 C 0.8968 0.84155 0.70508 0.0
C492 C 0.87729 0.88352 0.73418 0.0
C493 C 0.90641 0.84683 0.69913 0.0
C494 C 0.83547 0.86538 0.7326 0.0
C495 C 0.84527 0.86351 0.73833 0.0
C496 C 0.86836 0.81356 0.72687 0.0
C497 C 0.89339 0.85642 0.72375 0.0
C498 C 0.88299 0.85186 0.72906 0.0
C499 C 0.85202 0.84449 0.72581 0.0
C500 C 0.86259 0.84586 0.73014 0.0
H501 H 0.91441 0.8971 0.74061 0.0
H502 H 0.89734 0.88859 0.75088 0.0
H503 H 0.88269 0.79155 0.72269 0.0
H504 H 0.83681 0.81572 0.68765 0.0
H505 H 0.85377 0.81214 0.69765 0.0
C506 C 0.9066 0.8965 0.04916 0.0
C507 C 0.9131 0.87783 0.03596 0.0
C508 C 0.89697 0.90183 0.04347 0.0
C509 C 0.87738 0.86192 0.01394 0.0
H510 H 0.86528 0.95877 0.02603 0.0
C511 C 0.83557 0.88074 0.01676 0.0
C512 C 0.83256 0.8965 0.03556 0.0
C513 C 0.84534 0.88264 0.01082 0.0
C514 C 0.86855 0.93164 0.0224 0.0
H515 H 0.91459 0.8498 0.00646 0.0
H516 H 0.89746 0.85834 0.99665 0.0
H517 H 0.88293 0.95323 0.02662 0.0
H518 H 0.83723 0.92819 0.06236 0.0
H519 H 0.85414 0.93183 0.05201 0.0
H520 H 0.86295 0.83981 0.01095 0.0
C521 C 0.89996 0.86916 0.01131 0.0
C522 C 0.87864 0.92849 0.02272 0.0
C523 C 0.90973 0.86429 0.01691 0.0
C524 C 0.83935 0.91573 0.0478 0.0
C525 C 0.84904 0.91806 0.04177 0.0
C526 C 0.86724 0.86505 0.01368 0.0
C527 C 0.89353 0.88832 0.02451 0.0
C528 C 0.88313 0.89325 0.01939 0.0
C529 C 0.85219 0.90091 0.02344 0.0
C530 C 0.86274 0.89958 0.01883 0.0
H531 H 0.90898 0.90733 0.06393 0.0
H532 H 0.89213 0.91606 0.05412 0.0
H533 H 0.88066 0.83442 0.01137 0.0
H534 H 0.83046 0.86565 0.00707 0.0
H535 H 0.84757 0.86926 0.99659 0.0
C536 C 0.08564 0.61851 0.76597 0.0
C537 C 0.08255 0.60442 0.78511 0.0
C538 C 0.09549 0.61716 0.76054 0.0
C539 C 0.11877 0.57113 0.77441 0.0
H540 H 0.13072 0.66776 0.76116 0.0
C541 C 0.1563 0.61067 0.80213 0.0
C542 C 0.16309 0.62589 0.78832 0.0
C543 C 0.14668 0.6055 0.79626 0.0
C544 C 0.12748 0.6404 0.76436 0.0
H545 H 0.08718 0.57639 0.81311 0.0
H546 H 0.10421 0.57362 0.80363 0.0
H547 H 0.113 0.66145 0.76015 0.0
H548 H 0.16511 0.64839 0.75758 0.0
H549 H 0.14799 0.64025 0.74741 0.0
H550 H 0.13317 0.55075 0.7799 0.0
C551 C 0.09911 0.58568 0.79276 0.0
C552 C 0.11735 0.63674 0.76377 0.0
C553 C 0.08936 0.58752 0.79827 0.0
C554 C 0.16001 0.63659 0.76852 0.0
C555 C 0.15026 0.63193 0.76271 0.0
C556 C 0.12884 0.57483 0.77507 0.0
C557 C 0.10233 0.60103 0.77401 0.0
C558 C 0.1129 0.60252 0.76971 0.0
C559 C 0.14357 0.61577 0.77649 0.0
C560 C 0.13325 0.60992 0.77094 0.0
H561 H 0.08052 0.63183 0.75559 0.0
H562 H 0.09778 0.62916 0.74599 0.0
H563 H 0.11555 0.54423 0.77867 0.0
H564 H 0.15843 0.6021 0.81749 0.0
H565 H 0.14163 0.59362 0.8073 0.0
C566 C 0.08556 0.63311 0.48341 0.0
C567 C 0.08245 0.64901 0.46471 0.0
C568 C 0.09537 0.6349 0.48909 0.0
C569 C 0.1186 0.68337 0.47685 0.0
H570 H 0.13057 0.58568 0.48735 0.0
C571 C 0.15649 0.64735 0.44919 0.0
C572 C 0.16298 0.62813 0.46217 0.0
C573 C 0.14688 0.65299 0.45508 0.0
C574 C 0.12733 0.61331 0.48492 0.0
H575 H 0.08698 0.68095 0.43789 0.0
H576 H 0.10395 0.68443 0.44781 0.0
H577 H 0.11287 0.59167 0.48833 0.0
H578 H 0.1645 0.59944 0.49148 0.0
H579 H 0.14744 0.60854 0.50164 0.0
H580 H 0.13299 0.70451 0.47223 0.0
C581 C 0.09889 0.67061 0.45815 0.0
C582 C 0.1172 0.61678 0.48551 0.0
C583 C 0.08917 0.66839 0.45237 0.0
C584 C 0.15964 0.61436 0.48119 0.0
C585 C 0.14991 0.61955 0.48699 0.0
C586 C 0.12868 0.67988 0.47621 0.0
C587 C 0.10216 0.65319 0.47633 0.0
C588 C 0.11274 0.65149 0.48058 0.0
C589 C 0.14348 0.63924 0.47401 0.0
C590 C 0.13311 0.64448 0.47935 0.0
H591 H 0.08051 0.61788 0.49316 0.0
H592 H 0.09769 0.62133 0.50321 0.0
H593 H 0.11536 0.71064 0.47338 0.0
H594 H 0.15884 0.65838 0.43445 0.0
H595 H 0.14205 0.66763 0.44459 0.0
C596 C 0.90954 0.38238 0.22977 0.0
C597 C 0.91289 0.3676 0.21098 0.0
C598 C 0.89979 0.37794 0.23551 0.0
C599 C 0.87832 0.31848 0.22514 0.0
H600 H 0.8629 0.40813 0.23625 0.0
C601 C 0.83885 0.33151 0.20119 0.0
C602 C 0.83221 0.35157 0.2134 0.0
C603 C 0.84857 0.32905 0.2069 0.0
C604 C 0.86712 0.38264 0.2337 0.0
H605 H 0.90871 0.3363 0.18362 0.0
H606 H 0.89187 0.32838 0.19366 0.0
H607 H 0.88062 0.41291 0.23534 0.0
H608 H 0.83043 0.38375 0.24155 0.0
H609 H 0.84761 0.37987 0.25148 0.0
H610 H 0.86488 0.28852 0.22252 0.0
C611 C 0.89673 0.34322 0.20402 0.0
C612 C 0.87726 0.38542 0.23316 0.0
C613 C 0.90637 0.3481 0.19819 0.0
C614 C 0.83541 0.36801 0.23189 0.0
C615 C 0.84522 0.36596 0.23751 0.0
C616 C 0.86823 0.31568 0.22573 0.0
C617 C 0.89332 0.35803 0.22271 0.0
C618 C 0.88291 0.35368 0.22796 0.0
C619 C 0.85192 0.34689 0.22488 0.0
C620 C 0.86251 0.34807 0.2291 0.0
H621 H 0.91443 0.39753 0.23991 0.0
H622 H 0.89731 0.38975 0.24998 0.0
H623 H 0.88253 0.29342 0.22146 0.0
H624 H 0.83658 0.31851 0.18687 0.0
H625 H 0.85356 0.31462 0.19667 0.0
C626 C 0.90652 0.4008 0.54877 0.0
C627 C 0.91296 0.38094 0.53596 0.0
C628 C 0.89686 0.4057 0.54312 0.0
C629 C 0.87727 0.36271 0.51459 0.0
H630 H 0.86474 0.45905 0.52587 0.0
C631 C 0.8354 0.37858 0.51744 0.0
C632 C 0.83234 0.39445 0.53617 0.0
C633 C 0.84516 0.38112 0.51143 0.0
C634 C 0.86814 0.43205 0.52247 0.0
H635 H 0.91433 0.35053 0.50713 0.0
H636 H 0.89718 0.3584 0.49739 0.0
H637 H 0.88242 0.45484 0.52624 0.0
H638 H 0.83688 0.42705 0.56275 0.0
H639 H 0.85376 0.43186 0.55226 0.0
H640 H 0.86294 0.33948 0.51197 0.0
C641 C 0.89973 0.37044 0.51173 0.0
C642 C 0.87824 0.42964 0.52268 0.0
C643 C 0.90951 0.36596 0.51729 0.0
C644 C 0.83904 0.41448 0.54825 0.0
C645 C 0.84871 0.41746 0.54215 0.0
C646 C 0.86712 0.3651 0.51441 0.0
C647 C 0.89334 0.39058 0.52459 0.0
C648 C 0.88289 0.39462 0.51965 0.0
C649 C 0.85193 0.40017 0.52391 0.0
C650 C 0.86247 0.39947 0.51926 0.0
H651 H 0.90895 0.41277 0.56324 0.0
H652 H 0.89207 0.42072 0.55354 0.0
H653 H 0.88067 0.33535 0.51225 0.0
H654 H 0.83037 0.36288 0.50787 0.0
H655 H 0.84744 0.36761 0.49728 0.0
C656 C 0.65716 0.16495 0.79947 0.0
C657 C 0.66386 0.14651 0.78667 0.0
C658 C 0.64745 0.16799 0.7937 0.0
C659 C 0.629 0.11786 0.76475 0.0
H660 H 0.61361 0.20598 0.77922 0.0
C661 C 0.5866 0.11786 0.76748 0.0
C662 C 0.5831 0.13123 0.78646 0.0
C663 C 0.59639 0.12281 0.76218 0.0
C664 C 0.61781 0.18124 0.77493 0.0
H665 H 0.66576 0.11781 0.75746 0.0
H666 H 0.64861 0.12265 0.74743 0.0
H667 H 0.63128 0.21059 0.77892 0.0
H668 H 0.58703 0.16057 0.8146 0.0
H669 H 0.60394 0.1693 0.80536 0.0
H670 H 0.61549 0.08807 0.76176 0.0
C671 C 0.65093 0.13486 0.76191 0.0
C672 C 0.62792 0.18388 0.77476 0.0
C673 C 0.66073 0.13225 0.7676 0.0
C674 C 0.5895 0.14988 0.79987 0.0
C675 C 0.59918 0.15522 0.7945 0.0
C676 C 0.61886 0.11523 0.7649 0.0
C677 C 0.64418 0.15236 0.77506 0.0
C678 C 0.63362 0.1518 0.77056 0.0
C679 C 0.60275 0.14181 0.77563 0.0
C680 C 0.6132 0.14648 0.77088 0.0
H681 H 0.65937 0.17625 0.81425 0.0
H682 H 0.64241 0.18114 0.80432 0.0
H683 H 0.63322 0.09261 0.76153 0.0
H684 H 0.5818 0.1034 0.75686 0.0
H685 H 0.59899 0.11209 0.74757 0.0
C686 C 0.65683 0.08091 0.45218 0.0
C687 C 0.66347 0.1022 0.46378 0.0
C688 C 0.64716 0.07826 0.45824 0.0
C689 C 0.62861 0.13276 0.48441 0.0
H690 H 0.61339 0.04205 0.47445 0.0
C691 C 0.58626 0.13158 0.48083 0.0
C692 C 0.5829 0.11531 0.46241 0.0
C693 C 0.596 0.12743 0.4867 0.0
C694 C 0.61755 0.06753 0.47749 0.0
H695 H 0.66531 0.13636 0.49122 0.0
H696 H 0.64822 0.13216 0.50174 0.0
H697 H 0.63107 0.03801 0.47519 0.0
H698 H 0.58701 0.08144 0.43594 0.0
H699 H 0.60384 0.07403 0.4462 0.0
H700 H 0.61505 0.16255 0.48567 0.0
C701 C 0.65057 0.11743 0.48799 0.0
C702 C 0.62766 0.06523 0.47791 0.0
C703 C 0.66033 0.11968 0.48203 0.0
C704 C 0.58938 0.09442 0.4502 0.0
C705 C 0.59901 0.08984 0.45617 0.0
C706 C 0.61847 0.13505 0.48403 0.0
C707 C 0.64386 0.09712 0.47595 0.0
C708 C 0.6333 0.09809 0.48044 0.0
C709 C 0.60244 0.10632 0.47443 0.0
C710 C 0.61288 0.10272 0.47964 0.0
H711 H 0.65906 0.06708 0.43806 0.0
H712 H 0.64216 0.06286 0.44846 0.0
H713 H 0.63277 0.1586 0.48631 0.0
H714 H 0.5814 0.14782 0.49052 0.0
H715 H 0.5985 0.14052 0.50082 0.0
C716 C 0.33965 0.89875 0.19959 0.0
C717 C 0.33312 0.87992 0.21265 0.0
C718 C 0.34929 0.90392 0.20537 0.0
C719 C 0.36879 0.86342 0.23499 0.0
H720 H 0.38102 0.96017 0.2232 0.0
C721 C 0.41063 0.88173 0.23283 0.0
C722 C 0.41371 0.89738 0.21404 0.0
C723 C 0.40084 0.88379 0.23864 0.0
C724 C 0.37771 0.93306 0.22674 0.0
H725 H 0.33157 0.85145 0.24201 0.0
H726 H 0.34869 0.85972 0.252 0.0
H727 H 0.36336 0.95487 0.22238 0.0
H728 H 0.40914 0.9291 0.18717 0.0
H729 H 0.39221 0.93307 0.19732 0.0
H730 H 0.38319 0.84112 0.23816 0.0
C731 C 0.34622 0.87079 0.23736 0.0
C732 C 0.36762 0.93005 0.22629 0.0
C733 C 0.33646 0.86607 0.23166 0.0
C734 C 0.40697 0.91672 0.20172 0.0
C735 C 0.39727 0.91923 0.20762 0.0
C736 C 0.37893 0.86642 0.2354 0.0
C737 C 0.35268 0.89009 0.22429 0.0
C738 C 0.36308 0.89485 0.22951 0.0
C739 C 0.39404 0.90213 0.22591 0.0
C740 C 0.38348 0.90092 0.23037 0.0
H741 H 0.33731 0.90983 0.18485 0.0
H742 H 0.35414 0.91827 0.19482 0.0
H743 H 0.36547 0.83595 0.23749 0.0
H744 H 0.41568 0.86653 0.24257 0.0
H745 H 0.39854 0.87045 0.25284 0.0
C746 C 0.33942 0.84757 0.55073 0.0
C747 C 0.33294 0.86694 0.5378 0.0
C748 C 0.34906 0.84249 0.54498 0.0
C749 C 0.36862 0.88381 0.51566 0.0
H750 H 0.38088 0.78702 0.52714 0.0
C751 C 0.41046 0.86558 0.5173 0.0
C752 C 0.4136 0.84984 0.53602 0.0
C753 C 0.40065 0.86353 0.51163 0.0
C754 C 0.37756 0.81414 0.52368 0.0
H755 H 0.33146 0.89643 0.50871 0.0
H756 H 0.34859 0.88825 0.4988 0.0
H757 H 0.36323 0.7922 0.52802 0.0
H758 H 0.40912 0.81798 0.5629 0.0
H759 H 0.39215 0.81401 0.55299 0.0
H760 H 0.38301 0.9062 0.51247 0.0
C761 C 0.34608 0.87673 0.5133 0.0
C762 C 0.36747 0.81709 0.52418 0.0
C763 C 0.33632 0.88138 0.51896 0.0
C764 C 0.4069 0.83042 0.54841 0.0
C765 C 0.39719 0.82792 0.54264 0.0
C766 C 0.37876 0.88086 0.5152 0.0
C767 C 0.35251 0.85692 0.52623 0.0
C768 C 0.36292 0.85229 0.52106 0.0
C769 C 0.3939 0.84511 0.52442 0.0
C770 C 0.38333 0.84634 0.5201 0.0
H771 H 0.33704 0.83603 0.56533 0.0
H772 H 0.35389 0.82776 0.55545 0.0
H773 H 0.3653 0.91129 0.51325 0.0
H774 H 0.41548 0.88083 0.5075 0.0
H775 H 0.39831 0.87694 0.49748 0.0
C776 C 0.65687 0.66775 0.29866 0.0
C777 C 0.6636 0.64867 0.2862 0.0
C778 C 0.64717 0.67041 0.29278 0.0
C779 C 0.62885 0.61819 0.26453 0.0
H780 H 0.6132 0.70602 0.27828 0.0
C781 C 0.58644 0.6165 0.26777 0.0
C782 C 0.58298 0.62994 0.28676 0.0
C783 C 0.5962 0.62177 0.26227 0.0
C784 C 0.61748 0.68137 0.27418 0.0
H785 H 0.66556 0.61852 0.25745 0.0
H786 H 0.64843 0.62274 0.24721 0.0
H787 H 0.63085 0.71154 0.27765 0.0
H788 H 0.58695 0.65978 0.31472 0.0
H789 H 0.6038 0.66914 0.30512 0.0
H790 H 0.61543 0.58764 0.26204 0.0
C791 C 0.65073 0.63573 0.26151 0.0
C792 C 0.62757 0.68452 0.27383 0.0
C793 C 0.66051 0.63349 0.26731 0.0
C794 C 0.58939 0.64901 0.3 0.0
C795 C 0.59903 0.65471 0.29442 0.0
C796 C 0.61872 0.61507 0.26483 0.0
C797 C 0.64394 0.65376 0.27437 0.0
C798 C 0.63337 0.65257 0.26992 0.0
C799 C 0.60256 0.64119 0.27553 0.0
C800 C 0.61298 0.64624 0.27056 0.0
H801 H 0.65905 0.67977 0.31329 0.0
H802 H 0.64211 0.68401 0.30318 0.0
H803 H 0.63313 0.59303 0.26154 0.0
H804 H 0.58164 0.60171 0.25728 0.0
H805 H 0.59876 0.61096 0.24765 0.0
C806 C 0.66041 0.61502 0.98127 0.0
C807 C 0.66373 0.59999 0.96252 0.0
C808 C 0.65054 0.61301 0.98641 0.0
C809 C 0.62752 0.56466 0.97245 0.0
H810 H 0.61523 0.66088 0.98506 0.0
C811 C 0.58933 0.60004 0.94619 0.0
C812 C 0.58283 0.61796 0.95971 0.0
C813 C 0.599 0.59478 0.95169 0.0
C814 C 0.61856 0.63363 0.982 0.0
H815 H 0.65949 0.56956 0.93498 0.0
H816 H 0.64241 0.56583 0.94393 0.0
H817 H 0.63294 0.65569 0.986 0.0
H818 H 0.58139 0.64474 0.98956 0.0
H819 H 0.59855 0.63623 0.99905 0.0
H820 H 0.6132 0.54316 0.96734 0.0
C821 C 0.64735 0.57907 0.95473 0.0
C822 C 0.6287 0.63061 0.98256 0.0
C823 C 0.65714 0.58145 0.94951 0.0
C824 C 0.58625 0.63083 0.97886 0.0
C825 C 0.59603 0.62599 0.98428 0.0
C826 C 0.61743 0.56771 0.97183 0.0
C827 C 0.64389 0.59542 0.97303 0.0
C828 C 0.63328 0.59649 0.97695 0.0
C829 C 0.60246 0.60758 0.97077 0.0
C830 C 0.61288 0.6026 0.97577 0.0
H831 H 0.66535 0.62956 0.99155 0.0
H832 H 0.64807 0.62574 0.00065 0.0
H833 H 0.63084 0.5378 0.96846 0.0
H834 H 0.58693 0.58976 0.93133 0.0
H835 H 0.60382 0.58114 0.9408 0.0
C836 C 0.33951 0.39625 0.69906 0.0
C837 C 0.33301 0.37787 0.71239 0.0
C838 C 0.34915 0.40174 0.70471 0.0
C839 C 0.36874 0.36277 0.7347 0.0
H840 H 0.38083 0.45924 0.72169 0.0
C841 C 0.41056 0.38192 0.73217 0.0
C842 C 0.4136 0.39683 0.71317 0.0
C843 C 0.40077 0.38398 0.73798 0.0
C844 C 0.37756 0.43222 0.72558 0.0
H845 H 0.33153 0.35049 0.74208 0.0
H846 H 0.34867 0.35933 0.75182 0.0
H847 H 0.36319 0.45357 0.721 0.0
H848 H 0.40896 0.42723 0.68592 0.0
H849 H 0.39203 0.43121 0.69607 0.0
H850 H 0.38317 0.34089 0.73808 0.0
C851 C 0.34616 0.3698 0.73708 0.0
C852 C 0.36748 0.42899 0.72519 0.0
C853 C 0.3364 0.36475 0.73152 0.0
C854 C 0.40682 0.41543 0.70063 0.0
C855 C 0.39712 0.41795 0.70653 0.0
C856 C 0.37887 0.36598 0.73503 0.0
C857 C 0.35259 0.38869 0.72375 0.0
C858 C 0.36299 0.39385 0.72886 0.0
C859 C 0.39394 0.40159 0.72505 0.0
C860 C 0.38338 0.40035 0.72957 0.0
H861 H 0.33713 0.40675 0.68423 0.0
H862 H 0.35397 0.41574 0.69395 0.0
H863 H 0.36546 0.33534 0.73754 0.0
H864 H 0.41565 0.3673 0.74209 0.0
H865 H 0.39851 0.37121 0.75236 0.0
C866 C 0.33677 0.38258 0.0182 0.0
C867 C 0.33338 0.36797 0.037 0.0
C868 C 0.34651 0.3777 0.01246 0.0
C869 C 0.36787 0.31765 0.02312 0.0
H870 H 0.38344 0.40691 0.01193 0.0
C871 C 0.40717 0.33116 0.0482 0.0
C872 C 0.41391 0.35067 0.03598 0.0
C873 C 0.39748 0.32856 0.04219 0.0
C874 C 0.37918 0.38153 0.0145 0.0
H875 H 0.33745 0.33645 0.06434 0.0
H876 H 0.35426 0.32779 0.05433 0.0
H877 H 0.36572 0.41198 0.01252 0.0
H878 H 0.41593 0.38174 0.00754 0.0
H879 H 0.39882 0.37773 0.9971 0.0
H880 H 0.38128 0.28756 0.02616 0.0
C881 C 0.34946 0.34283 0.04395 0.0
C882 C 0.36904 0.38446 0.01485 0.0
C883 C 0.33984 0.34813 0.04978 0.0
C884 C 0.41087 0.36642 0.0172 0.0
C885 C 0.40109 0.36429 0.01129 0.0
C886 C 0.37797 0.31471 0.02274 0.0
C887 C 0.35292 0.35751 0.02527 0.0
C888 C 0.36333 0.35288 0.0201 0.0
C889 C 0.39429 0.34577 0.0239 0.0
C890 C 0.38373 0.34697 0.01936 0.0
H891 H 0.33193 0.39798 0.00807 0.0
H892 H 0.34903 0.38942 0.99801 0.0
H893 H 0.36362 0.2927 0.02683 0.0
H894 H 0.40932 0.3187 0.06274 0.0
H895 H 0.3924 0.31457 0.0524 0.0
C896 C 0.02925 0.17808 0.26403 0.0
C897 C 0.0291 0.16401 0.28422 0.0
C898 C 0.0215 0.19967 0.25657 0.0
C899 C 0.00119 0.25913 0.27534 0.0
H900 H 0.99269 0.25395 0.21858 0.0
C901 C 0.96639 0.3317 0.24393 0.0
C902 C 0.96694 0.34758 0.22414 0.0
C903 C 0.97429 0.31183 0.25209 0.0
C904 C 0.99507 0.25603 0.23442 0.0
H905 H 0.02053 0.15966 0.31209 0.0
H906 H 0.00689 0.19629 0.29891 0.0
H907 H 0.0054 0.21132 0.23059 0.0
H908 H 0.97638 0.35728 0.19795 0.0
H909 H 0.99016 0.32289 0.21225 0.0
H910 H 0.99072 0.30353 0.27917 0.0
C911 C 0.01309 0.19167 0.28899 0.0
C912 C 0.00235 0.23157 0.24131 0.0
C913 C 0.02087 0.17035 0.29648 0.0
C914 C 0.97572 0.3452 0.21321 0.0
C915 C 0.98358 0.32523 0.22131 0.0
C916 C 0.99386 0.28343 0.26847 0.0
C917 C 0.01341 0.20738 0.26913 0.0
C918 C 0.00552 0.23284 0.26185 0.0
C919 C 0.98285 0.30738 0.24056 0.0
C920 C 0.99075 0.28222 0.24792 0.0
H921 H 0.03554 0.17383 0.25428 0.0
H922 H 0.02203 0.21156 0.24125 0.0
H923 H 0.00358 0.2614 0.29116 0.0
H924 H 0.95971 0.333 0.25269 0.0
H925 H 0.97352 0.2983 0.26696 0.0
C926 C 0.21596 0.07463 0.25611 0.0
C927 C 0.21658 0.0953 0.27453 0.0
C928 C 0.22389 0.05337 0.2492 0.0
C929 C 0.24541 0.00509 0.27012 0.0
H930 H 0.25231 0.9917 0.2128 0.0
C931 C 0.2797 0.92424 0.24294 0.0
C932 C 0.27903 0.90338 0.22459 0.0
C933 C 0.27184 0.94593 0.24978 0.0
C934 C 0.25038 0.99472 0.22887 0.0
H935 H 0.22616 0.11228 0.29934 0.0
H936 H 0.24004 0.07588 0.28707 0.0
H937 H 0.23956 0.03649 0.22207 0.0
H938 H 0.26939 0.88663 0.19981 0.0
H939 H 0.25563 0.92379 0.21197 0.0
H940 H 0.25622 0.96331 0.27692 0.0
C941 C 0.23338 0.07528 0.27823 0.0
C942 C 0.2431 0.02052 0.23417 0.0
C943 C 0.22546 0.09645 0.28514 0.0
C944 C 0.27015 0.90259 0.21397 0.0
C945 C 0.26229 0.9242 0.2208 0.0
C946 C 0.25269 0.97929 0.26482 0.0
C947 C 0.23258 0.05247 0.26058 0.0
C948 C 0.24053 0.02603 0.25486 0.0
C949 C 0.26315 0.94709 0.23841 0.0
C950 C 0.25525 0.97375 0.24413 0.0
H951 H 0.2092 0.07308 0.24766 0.0
H952 H 0.22303 0.03604 0.23557 0.0
H953 H 0.24347 0.00808 0.28619 0.0
H954 H 0.28647 0.92553 0.25141 0.0
H955 H 0.27275 0.96333 0.26338 0.0
C956 C 0.03004 0.07393 0.9915 0.0
C957 C 0.02933 0.09371 0.97281 0.0
C958 C 0.02224 0.05225 0.99864 0.0
C959 C 0.99592 0.03403 0.9917 0.0
H960 H 0.00261 0.93238 0.00957 0.0
C961 C 0.96646 0.92108 0.0048 0.0
C962 C 0.96716 0.90106 0.02342 0.0
C963 C 0.97429 0.9427 0.99771 0.0
C964 C 0.00063 0.96074 0.00475 0.0
H965 H 0.01971 0.10836 0.94763 0.0
H966 H 0.00611 0.07072 0.96008 0.0
H967 H 0.01547 0.97721 0.00095 0.0
H968 H 0.97679 0.88592 0.0485 0.0
H969 H 0.99042 0.92351 0.03616 0.0
H970 H 0.98108 0.01759 0.9955 0.0
C971 C 0.01267 0.07188 0.96926 0.0
C972 C 0.00799 0.98651 -7e-05 0.0
C973 C 0.02047 0.09341 0.9621 0.0
C974 C 0.97603 0.90104 0.03408 0.0
C975 C 0.98386 0.92256 0.02699 0.0
C976 C 0.98855 0.00827 0.99653 0.0
C977 C 0.01356 0.05011 0.98727 0.0
C978 C 0.00572 0.02345 0.99334 0.0
C979 C 0.98297 0.9446 0.00907 0.0
C980 C 0.99082 0.97131 0.00309 0.0
H981 H 0.03678 0.07364 9e-05 0.0
H982 H 0.02308 0.03634 0.01278 0.0
H983 H 0.99393 0.06239 0.98686 0.0
H984 H 0.95971 0.92162 0.99624 0.0
H985 H 0.97345 0.95879 0.98363 0.0
C986 C 0.21647 0.17973 0.98842 0.0
C987 C 0.21685 0.16308 0.96882 0.0
C988 C 0.22418 0.20198 0.99551 0.0
C989 C 0.24476 0.25861 0.97565 0.0
H990 H 0.25284 0.25987 0.03275 0.0
C991 C 0.27964 0.33281 0.00527 0.0
C992 C 0.27918 0.35038 0.02464 0.0
C993 C 0.27165 0.3128 0.99762 0.0
C994 C 0.25057 0.26021 0.01679 0.0
H995 H 0.2258 0.15481 0.94174 0.0
H996 H 0.23935 0.19268 0.95432 0.0
H997 H 0.24009 0.2164 0.02182 0.0
H998 H 0.26978 0.36308 0.05052 0.0
H999 H 0.25583 0.32857 0.03706 0.0
H1000 H 0.25537 0.30213 0.97063 0.0
C1001 C 0.233 0.18951 0.96401 0.0
C1002 C 0.24328 0.23524 0.01053 0.0
C1003 C 0.22528 0.16749 0.95688 0.0
C1004 C 0.27038 0.34965 0.03559 0.0
C1005 C 0.26242 0.32961 0.02798 0.0
C1006 C 0.2521 0.28347 0.9819 0.0
C1007 C 0.23245 0.20784 0.98317 0.0
C1008 C 0.24029 0.23407 0.98987 0.0
C1009 C 0.26306 0.30997 0.00923 0.0
C1010 C 0.25507 0.28456 0.00255 0.0
H1011 H 0.21004 0.17701 0.99789 0.0
H1012 H 0.22349 0.21587 0.0103 0.0
H1013 H 0.24251 0.25901 0.95969 0.0
H1014 H 0.28633 0.33279 0.99652 0.0
H1015 H 0.27237 0.29788 0.98313 0.0
C1016 C 0.96647 0.82995 0.74277 0.0
C1017 C 0.96698 0.84828 0.72362 0.0
C1018 C 0.97443 0.80962 0.75028 0.0
C1019 C 0.99565 0.75803 0.73085 0.0
H1020 H 0.00335 0.75436 0.78814 0.0
C1021 C 0.02973 0.67747 0.75933 0.0
C1022 C 0.02923 0.65994 0.7787 0.0
C1023 C 0.022 0.69962 0.75221 0.0
C1024 C 0.0012 0.75466 0.77212 0.0
H1025 H 0.97644 0.86193 0.69798 0.0
H1026 H 0.99035 0.8269 0.7112 0.0
H1027 H 0.99054 0.79779 0.77742 0.0
H1028 H 0.02005 0.64989 0.80525 0.0
H1029 H 0.0065 0.68762 0.79261 0.0
H1030 H 0.00622 0.71466 0.72554 0.0
C1031 C 0.98374 0.82758 0.72022 0.0
C1032 C 0.99389 0.77969 0.76599 0.0
C1033 C 0.9758 0.84793 0.71275 0.0
C1034 C 0.02067 0.66326 0.7903 0.0
C1035 C 0.01294 0.6852 0.78315 0.0
C1036 C 0.00293 0.73291 0.73699 0.0
C1037 C 0.98305 0.80723 0.73874 0.0
C1038 C 0.99103 0.78166 0.74528 0.0
C1039 C 0.01362 0.7045 0.76429 0.0
C1040 C 0.00578 0.73085 0.7577 0.0
H1041 H 0.95976 0.82963 0.75146 0.0
H1042 H 0.97366 0.79415 0.76458 0.0
H1043 H 0.99348 0.75837 0.71483 0.0
H1044 H 0.03626 0.67558 0.75011 0.0
H1045 H 0.02279 0.71424 0.73765 0.0
C1046 C 0.72498 0.08165 0.78999 0.0
C1047 C 0.71641 0.08693 0.77865 0.0
C1048 C 0.73278 0.06177 0.78157 0.0
C1049 C 0.73808 0.989 0.74273 0.0
H1050 H 0.76484 0.01674 0.75365 0.0
C1051 C 0.77099 0.9145 0.70511 0.0
C1052 C 0.77922 0.90828 0.71742 0.0
C1053 C 0.7631 0.93501 0.7127 0.0
C1054 C 0.7574 0.00839 0.75069 0.0
H1055 H 0.7094 0.07696 0.7493 0.0
H1056 H 0.72312 0.0425 0.7344 0.0
H1057 H 0.75176 0.05809 0.7653 0.0
H1058 H 0.78551 0.9173 0.74759 0.0
H1059 H 0.77167 0.95308 0.76094 0.0
H1060 H 0.74374 0.93932 0.72806 0.0
C1061 C 0.72374 0.05329 0.74994 0.0
C1062 C 0.74991 0.03213 0.7573 0.0
C1063 C 0.71593 0.0733 0.75838 0.0
C1064 C 0.77926 0.92167 0.73776 0.0
C1065 C 0.77138 0.94242 0.74532 0.0
C1066 C 0.74558 0.96529 0.73606 0.0
C1067 C 0.73218 0.04669 0.7616 0.0
C1068 C 0.74016 0.02262 0.7535 0.0
C1069 C 0.7633 0.94992 0.73273 0.0
C1070 C 0.75531 0.97464 0.74008 0.0
H1071 H 0.72556 0.09179 0.80567 0.0
H1072 H 0.73912 0.05691 0.79105 0.0
H1073 H 0.73064 0.9805 0.73987 0.0
H1074 H 0.77076 0.90452 0.68935 0.0
H1075 H 0.75701 0.9405 0.70258 0.0
C1076 C 0.71627 0.67275 0.99124 0.0
C1077 C 0.71656 0.66027 0.97074 0.0
C1078 C 0.72407 0.69308 0.99955 0.0
C1079 C 0.75002 0.71679 0.99107 0.0
H1080 H 0.74381 0.80707 0.02252 0.0
C1081 C 0.77923 0.82718 0.01178 0.0
C1082 C 0.77933 0.83899 0.0324 0.0
C1083 C 0.77132 0.80677 0.00404 0.0
C1084 C 0.74566 0.78181 0.01388 0.0
H1085 H 0.72538 0.65787 0.94312 0.0
H1086 H 0.7389 0.6933 0.95752 0.0
H1087 H 0.73075 0.76579 0.01057 0.0
H1088 H 0.77109 0.84039 0.06082 0.0
H1089 H 0.75731 0.80498 0.04729 0.0
H1090 H 0.76491 0.73294 0.99427 0.0
C1091 C 0.73272 0.68729 0.96728 0.0
C1092 C 0.73819 0.75805 0.00713 0.0
C1093 C 0.72494 0.6671 0.95899 0.0
C1094 C 0.77121 0.83163 0.04484 0.0
C1095 C 0.7633 0.81144 0.03708 0.0
C1096 C 0.75748 0.74059 0.99776 0.0
C1097 C 0.73231 0.70114 0.98752 0.0
C1098 C 0.74028 0.72532 0.9956 0.0
C1099 C 0.76336 0.79803 0.01674 0.0
C1100 C 0.75538 0.77342 0.00919 0.0
H1101 H 0.7099 0.66789 0.00065 0.0
H1102 H 0.7236 0.70289 0.01531 0.0
H1103 H 0.75188 0.69153 0.98246 0.0
H1104 H 0.78539 0.83245 0.00184 0.0
H1105 H 0.77151 0.79728 0.98819 0.0
C1106 C 0.21629 0.57396 0.75781 0.0
C1107 C 0.21704 0.59356 0.77655 0.0
C1108 C 0.22405 0.55205 0.75064 0.0
C1109 C 0.25033 0.53307 0.75757 0.0
H1110 H 0.24349 0.43184 0.73921 0.0
C1111 C 0.27964 0.41981 0.74405 0.0
C1112 C 0.27893 0.40012 0.72533 0.0
C1113 C 0.27183 0.44142 0.75122 0.0
C1114 C 0.24552 0.46008 0.74417 0.0
H1115 H 0.22668 0.60756 0.80182 0.0
H1116 H 0.24019 0.56953 0.78931 0.0
H1117 H 0.2307 0.47683 0.74799 0.0
H1118 H 0.2693 0.38551 0.70015 0.0
H1119 H 0.2557 0.42307 0.71265 0.0
H1120 H 0.26515 0.51637 0.75374 0.0
C1121 C 0.23364 0.57101 0.78011 0.0
C1122 C 0.23819 0.48594 0.74909 0.0
C1123 C 0.22589 0.59277 0.7873 0.0
C1124 C 0.27006 0.40037 0.71465 0.0
C1125 C 0.26226 0.42189 0.72183 0.0
C1126 C 0.25766 0.50723 0.75265 0.0
C1127 C 0.23271 0.54949 0.76202 0.0
C1128 C 0.24051 0.52273 0.75586 0.0
C1129 C 0.26316 0.44363 0.73985 0.0
C1130 C 0.25534 0.47041 0.74592 0.0
H1131 H 0.20956 0.57403 0.7492 0.0
H1132 H 0.22317 0.53632 0.73644 0.0
H1133 H 0.25236 0.56131 0.76253 0.0
H1134 H 0.28638 0.42014 0.75262 0.0
H1135 H 0.27268 0.45728 0.76538 0.0
C1136 C 0.02137 0.57891 0.45456 0.0
C1137 C 0.02959 0.58437 0.46701 0.0
C1138 C 0.01361 0.5569 0.46149 0.0
C1139 C 0.00825 0.47866 0.49675 0.0
H1140 H 0.98141 0.50679 0.48736 0.0
C1141 C 0.9759 0.39997 0.53359 0.0
C1142 C 0.96712 0.39789 0.52265 0.0
C1143 C 0.98381 0.4198 0.52554 0.0
C1144 C 0.98887 0.49817 0.48977 0.0
H1145 H 0.036 0.57227 0.49675 0.0
H1146 H 0.02237 0.5338 0.50892 0.0
H1147 H 0.99435 0.54994 0.47705 0.0
H1148 H 0.95995 0.41263 0.49407 0.0
H1149 H 0.97385 0.44656 0.47975 0.0
H1150 H 0.0028 0.42681 0.50938 0.0
C1151 C 0.022 0.5463 0.49372 0.0
C1152 C 0.99627 0.52304 0.48398 0.0
C1153 C 0.02974 0.56861 0.48685 0.0
C1154 C 0.96661 0.41386 0.50289 0.0
C1155 C 0.97454 0.43364 0.4948 0.0
C1156 C 0.00085 0.45369 0.50245 0.0
C1157 C 0.01393 0.53967 0.48096 0.0
C1158 C 0.00604 0.51363 0.48749 0.0
C1159 C 0.98313 0.43787 0.50632 0.0
C1160 C 0.99106 0.4632 0.49911 0.0
H1161 H 0.02106 0.59067 0.43918 0.0
H1162 H 0.00752 0.55214 0.45125 0.0
H1163 H 0.01573 0.47033 0.4993 0.0
H1164 H 0.97651 0.38799 0.54888 0.0
H1165 H 0.99027 0.42264 0.53491 0.0
C1166 C 0.21621 0.6716 0.49258 0.0
C1167 C 0.21695 0.65061 0.47429 0.0
C1168 C 0.22404 0.69341 0.49949 0.0
C1169 C 0.24555 0.74225 0.47883 0.0
H1170 H 0.25217 0.75637 0.53626 0.0
C1171 C 0.2797 0.82342 0.50661 0.0
C1172 C 0.27894 0.84438 0.52492 0.0
C1173 C 0.27185 0.8018 0.4996 0.0
C1174 C 0.25031 0.75315 0.52016 0.0
H1175 H 0.22667 0.63379 0.44968 0.0
H1176 H 0.24038 0.67117 0.46197 0.0
H1177 H 0.23952 0.71122 0.52685 0.0
H1178 H 0.26918 0.86142 0.5494 0.0
H1179 H 0.25545 0.82435 0.53696 0.0
H1180 H 0.25635 0.78417 0.47215 0.0
C1181 C 0.23368 0.67157 0.47071 0.0
C1182 C 0.24309 0.72715 0.51478 0.0
C1183 C 0.22586 0.64984 0.46379 0.0
C1184 C 0.27 0.84538 0.5353 0.0
C1185 C 0.26217 0.82383 0.52829 0.0
C1186 C 0.25277 0.76825 0.48421 0.0
C1187 C 0.23276 0.69457 0.48825 0.0
C1188 C 0.24063 0.72136 0.49405 0.0
C1189 C 0.2631 0.80079 0.51076 0.0
C1190 C 0.25523 0.77405 0.50495 0.0
H1191 H 0.20941 0.67288 0.50095 0.0
H1192 H 0.22307 0.71089 0.51304 0.0
H1193 H 0.24369 0.73904 0.46274 0.0
H1194 H 0.28651 0.82198 0.49833 0.0
H1195 H 0.27282 0.78429 0.48607 0.0
C1196 C 0.77132 0.42242 0.20505 0.0
C1197 C 0.77924 0.4124 0.21754 0.0
C1198 C 0.76352 0.44273 0.21317 0.0
C1199 C 0.75157 0.4708 0.2617 0.0
H1200 H 0.74196 0.55474 0.22891 0.0
C1201 C 0.7246 0.57892 0.29482 0.0
C1202 C 0.71667 0.58875 0.28231 0.0
C1203 C 0.73246 0.55897 0.28669 0.0
C1204 C 0.74449 0.5312 0.23816 0.0
H1205 H 0.78505 0.41457 0.24849 0.0
H1206 H 0.77142 0.45029 0.26274 0.0
H1207 H 0.75493 0.51471 0.2155 0.0
H1208 H 0.71092 0.58674 0.2513 0.0
H1209 H 0.72465 0.55162 0.23705 0.0
H1210 H 0.74113 0.48726 0.28436 0.0
C1211 C 0.77121 0.4422 0.24667 0.0
C1212 C 0.75191 0.50821 0.23048 0.0
C1213 C 0.77903 0.42179 0.23852 0.0
C1214 C 0.71694 0.57965 0.26129 0.0
C1215 C 0.72482 0.55958 0.25314 0.0
C1216 C 0.74415 0.49379 0.26938 0.0
C1217 C 0.76347 0.45355 0.23397 0.0
C1218 C 0.75553 0.47771 0.24215 0.0
C1219 C 0.73256 0.54831 0.26587 0.0
C1220 C 0.74053 0.52428 0.25771 0.0
H1221 H 0.77125 0.4154 0.18882 0.0
H1222 H 0.75758 0.45036 0.20308 0.0
H1223 H 0.75411 0.44725 0.27095 0.0
H1224 H 0.72462 0.58574 0.31107 0.0
H1225 H 0.7384 0.55141 0.2968 0.0
C1226 C 0.77136 0.32561 0.5453 0.0
C1227 C 0.77923 0.33605 0.53279 0.0
C1228 C 0.76343 0.30631 0.537 0.0
C1229 C 0.75109 0.28173 0.48833 0.0
H1230 H 0.74164 0.19575 0.51977 0.0
C1231 C 0.72405 0.1748 0.45401 0.0
C1232 C 0.71624 0.16377 0.46658 0.0
C1233 C 0.73186 0.19489 0.46224 0.0
C1234 C 0.74413 0.21988 0.5109 0.0
H1235 H 0.78482 0.33584 0.50163 0.0
H1236 H 0.77097 0.30186 0.48708 0.0
H1237 H 0.75472 0.2348 0.53356 0.0
H1238 H 0.71064 0.16403 0.49772 0.0
H1239 H 0.7243 0.19936 0.51214 0.0
H1240 H 0.7405 0.26676 0.46566 0.0
C1241 C 0.7709 0.30883 0.5033 0.0
C1242 C 0.75161 0.24232 0.51881 0.0
C1243 C 0.77884 0.32824 0.51163 0.0
C1244 C 0.71657 0.17205 0.48769 0.0
C1245 C 0.7244 0.19222 0.49594 0.0
C1246 C 0.7436 0.25929 0.48042 0.0
C1247 C 0.76321 0.29694 0.516 0.0
C1248 C 0.75517 0.27352 0.50762 0.0
C1249 C 0.73205 0.20446 0.48321 0.0
C1250 C 0.74005 0.22808 0.49161 0.0
H1251 H 0.77143 0.33145 0.56167 0.0
H1252 H 0.75753 0.29824 0.54711 0.0
H1253 H 0.75358 0.30583 0.47945 0.0
H1254 H 0.72402 0.16867 0.43768 0.0
H1255 H 0.73773 0.20325 0.45211 0.0
C1256 C 0.47497 0.33092 0.70422 0.0
C1257 C 0.46662 0.33545 0.71639 0.0
C1258 C 0.48276 0.30922 0.71125 0.0
C1259 C 0.488 0.22992 0.74579 0.0
H1260 H 0.51487 0.25906 0.73765 0.0
C1261 C 0.52017 0.15008 0.78253 0.0
C1262 C 0.52903 0.14864 0.77183 0.0
C1263 C 0.51231 0.1702 0.77453 0.0
C1264 C 0.50741 0.25017 0.7397 0.0
H1265 H 0.46003 0.3222 0.7458 0.0
H1266 H 0.47371 0.28426 0.75817 0.0
H1267 H 0.50194 0.30237 0.72747 0.0
H1268 H 0.53638 0.16489 0.74371 0.0
H1269 H 0.52255 0.19935 0.72946 0.0
H1270 H 0.49344 0.17763 0.75789 0.0
C1271 C 0.47417 0.29724 0.74309 0.0
C1272 C 0.5 0.27513 0.734 0.0
C1273 C 0.46639 0.31924 0.73611 0.0
C1274 C 0.52966 0.1656 0.75233 0.0
C1275 C 0.52177 0.18569 0.74429 0.0
C1276 C 0.4954 0.20486 0.75139 0.0
C1277 C 0.48235 0.29139 0.73055 0.0
C1278 C 0.49023 0.26534 0.73707 0.0
C1279 C 0.51311 0.18923 0.7556 0.0
C1280 C 0.5052 0.21474 0.7485 0.0
H1281 H 0.47535 0.34307 0.68893 0.0
H1282 H 0.48894 0.30509 0.70119 0.0
H1283 H 0.48052 0.2213 0.74797 0.0
H1284 H 0.51946 0.13733 0.79762 0.0
H1285 H 0.50578 0.17249 0.78373 0.0
C1286 C 0.47463 0.92005 0.54446 0.0
C1287 C 0.46632 0.91419 0.53234 0.0
C1288 C 0.48232 0.94203 0.53713 0.0
C1289 C 0.49277 0.98456 0.4899 0.0
H1290 H 0.50461 0.0544 0.52864 0.0
C1291 C 0.51993 0.09743 0.46314 0.0
C1292 C 0.52869 0.09877 0.47421 0.0
C1293 C 0.51193 0.07792 0.47099 0.0
C1294 C 0.5014 0.03492 0.51769 0.0
H1295 H 0.45967 0.92562 0.50279 0.0
H1296 H 0.47304 0.96447 0.49002 0.0
H1297 H 0.49171 0.01197 0.54017 0.0
H1298 H 0.53574 0.08291 0.50275 0.0
H1299 H 0.52172 0.04897 0.51655 0.0
H1300 H 0.50243 0.00771 0.4674 0.0
C1301 C 0.47368 0.95171 0.50511 0.0
C1302 C 0.49405 0.01046 0.52429 0.0
C1303 C 0.46601 0.92947 0.51241 0.0
C1304 C 0.52908 0.08241 0.4939 0.0
C1305 C 0.52105 0.06297 0.50179 0.0
C1306 C 0.50008 0.00916 0.48328 0.0
C1307 C 0.48184 0.95889 0.51756 0.0
C1308 C 0.48967 0.98485 0.51049 0.0
C1309 C 0.51251 0.05948 0.4901 0.0
C1310 C 0.50449 0.03455 0.49711 0.0
H1311 H 0.4751 0.90843 0.55986 0.0
H1312 H 0.48858 0.94622 0.54693 0.0
H1313 H 0.48966 0.96487 0.47894 0.0
H1314 H 0.51939 0.10992 0.44796 0.0
H1315 H 0.50538 0.07633 0.46182 0.0
C1316 C 0.47483 0.82828 0.20427 0.0
C1317 C 0.46657 0.83363 0.2166 0.0
C1318 C 0.4826 0.80648 0.21133 0.0
C1319 C 0.48791 0.7284 0.24668 0.0
H1320 H 0.51477 0.75687 0.23776 0.0
C1321 C 0.52013 0.64936 0.28377 0.0
C1322 C 0.52894 0.64733 0.27293 0.0
C1323 C 0.51227 0.66942 0.27571 0.0
C1324 C 0.50731 0.74816 0.24004 0.0
H1325 H 0.4601 0.82158 0.24628 0.0
H1326 H 0.47373 0.78344 0.25869 0.0
H1327 H 0.50184 0.79989 0.22726 0.0
H1328 H 0.53622 0.66253 0.24455 0.0
H1329 H 0.52239 0.69687 0.2302 0.0
H1330 H 0.49335 0.67657 0.25934 0.0
C1331 C 0.47414 0.79588 0.24348 0.0
C1332 C 0.4999 0.77295 0.23415 0.0
C1333 C 0.46638 0.81799 0.23646 0.0
C1334 C 0.52953 0.66371 0.25328 0.0
C1335 C 0.52164 0.68372 0.24518 0.0
C1336 C 0.49531 0.70349 0.25248 0.0
C1337 C 0.48225 0.78933 0.23082 0.0
C1338 C 0.49013 0.76341 0.23748 0.0
C1339 C 0.51302 0.6878 0.25659 0.0
C1340 C 0.5051 0.71313 0.24931 0.0
H1341 H 0.47517 0.83997 0.18887 0.0
H1342 H 0.48872 0.80179 0.20119 0.0
H1343 H 0.48043 0.71996 0.2491 0.0
H1344 H 0.51946 0.63708 0.29898 0.0
H1345 H 0.50578 0.67215 0.285 0.0
C1346 C 0.47505 0.41862 0.04498 0.0
C1347 C 0.46674 0.4128 0.03285 0.0
C1348 C 0.48278 0.44029 0.03758 0.0
C1349 C 0.49327 0.48235 0.99021 0.0
H1350 H 0.50505 0.55274 0.02874 0.0
C1351 C 0.51988 0.59685 0.96301 0.0
C1352 C 0.52869 0.59878 0.97388 0.0
C1353 C 0.51202 0.57669 0.971 0.0
C1354 C 0.50186 0.53309 0.01785 0.0
H1355 H 0.46014 0.42388 0.0032 0.0
H1356 H 0.47358 0.46219 0.99032 0.0
H1357 H 0.49225 0.51004 0.04044 0.0
H1358 H 0.53597 0.58322 0.00221 0.0
H1359 H 0.52218 0.54816 0.01628 0.0
H1360 H 0.50284 0.50571 0.96759 0.0
C1361 C 0.47419 0.44965 0.00547 0.0
C1362 C 0.49457 0.50846 0.02455 0.0
C1363 C 0.46648 0.42772 0.01284 0.0
C1364 C 0.52927 0.58228 0.99351 0.0
C1365 C 0.52137 0.5622 0.00155 0.0
C1366 C 0.50052 0.50713 0.98349 0.0
C1367 C 0.48235 0.45687 0.01793 0.0
C1368 C 0.49019 0.48271 0.01081 0.0
C1369 C 0.51278 0.55817 0.99006 0.0
C1370 C 0.50489 0.53275 0.99724 0.0
H1371 H 0.47547 0.40728 0.06045 0.0
H1372 H 0.48904 0.44451 0.0474 0.0
H1373 H 0.49017 0.46254 0.97929 0.0
H1374 H 0.5192 0.60942 0.94787 0.0
H1375 H 0.50543 0.57469 0.96199 0.0
C1376 C 0.06068 0.5181 0.39098 0.0
C1377 C 0.06126 0.52269 0.41241 0.0
C1378 C 0.06169 0.4821 0.38219 0.0
C1379 C 0.05826 0.38193 0.3948 0.0
H1380 H 0.07323 0.36307 0.34535 0.0
C1381 C 0.0617 0.23162 0.36105 0.0
C1382 C 0.06088 0.22853 0.3396 0.0
C1383 C 0.06283 0.26716 0.37028 0.0
C1384 C 0.06895 0.36794 0.35907 0.0
H1385 H 0.06365 0.49355 0.44137 0.0
H1386 H 0.06539 0.4309 0.42602 0.0
H1387 H 0.07313 0.42646 0.36052 0.0
H1388 H 0.06077 0.25999 0.31093 0.0
H1389 H 0.06251 0.32191 0.32699 0.0
H1390 H 0.05384 0.32394 0.39316 0.0
C1391 C 0.06408 0.45497 0.41605 0.0
C1392 C 0.06891 0.40422 0.36774 0.0
C1393 C 0.06312 0.49088 0.42481 0.0
C1394 C 0.06142 0.26148 0.32752 0.0
C1395 C 0.06248 0.29699 0.33673 0.0
C1396 C 0.05824 0.34579 0.38607 0.0
C1397 C 0.06324 0.45012 0.39469 0.0
C1398 C 0.06354 0.41156 0.38566 0.0
C1399 C 0.06309 0.30032 0.35823 0.0
C1400 C 0.06354 0.33836 0.36804 0.0
H1401 H 0.05925 0.54214 0.38107 0.0
H1402 H 0.06095 0.47912 0.36568 0.0
H1403 H 0.05393 0.38692 0.40845 0.0
H1404 H 0.06137 0.20664 0.37072 0.0
H1405 H 0.06344 0.26865 0.38687 0.0
C1406 C 0.19375 0.72718 0.39052 0.0
C1407 C 0.19325 0.72523 0.41207 0.0
C1408 C 0.19411 0.76236 0.38063 0.0
C1409 C 0.20005 0.86305 0.38936 0.0
H1410 H 0.18336 0.88059 0.34228 0.0
C1411 C 0.19328 0.01255 0.35612 0.0
C1412 C 0.1928 0.01589 0.33463 0.0
C1413 C 0.1937 0.97677 0.36534 0.0
C1414 C 0.18816 0.87602 0.35524 0.0
H1415 H 0.19283 0.75836 0.44018 0.0
H1416 H 0.19342 0.81961 0.42293 0.0
H1417 H 0.18361 0.81828 0.35851 0.0
H1418 H 0.19254 0.98463 0.30589 0.0
H1419 H 0.19342 0.92235 0.32193 0.0
H1420 H 0.20459 0.92077 0.38612 0.0
C1421 C 0.19362 0.79407 0.41368 0.0
C1422 C 0.1883 0.84032 0.36452 0.0
C1423 C 0.19321 0.75899 0.42354 0.0
C1424 C 0.19284 0.98291 0.32252 0.0
C1425 C 0.19329 0.94721 0.33171 0.0
C1426 C 0.19993 0.89872 0.38004 0.0
C1427 C 0.19404 0.79614 0.39212 0.0
C1428 C 0.1942 0.83354 0.38175 0.0
C1429 C 0.19368 0.94371 0.35322 0.0
C1430 C 0.19394 0.90566 0.36294 0.0
H1431 H 0.19381 0.70159 0.38131 0.0
H1432 H 0.19451 0.76313 0.36399 0.0
H1433 H 0.20477 0.85848 0.40246 0.0
H1434 H 0.19324 0.03752 0.36582 0.0
H1435 H 0.19387 0.97501 0.38197 0.0
C1436 C 0.05624 0.01586 0.89103 0.0
C1437 C 0.05529 0.01875 0.91247 0.0
C1438 C 0.05682 0.98028 0.88164 0.0
C1439 C 0.06235 0.87964 0.89292 0.0
H1440 H 0.04885 0.86138 0.84153 0.0
C1441 C 0.05683 0.73012 0.85817 0.0
C1442 C 0.05814 0.72662 0.83683 0.0
C1443 C 0.05697 0.76586 0.86746 0.0
C1444 C 0.05274 0.8662 0.85577 0.0
H1445 H 0.05404 0.98687 0.94089 0.0
H1446 H 0.05484 0.9249 0.92449 0.0
H1447 H 0.04797 0.92381 0.85753 0.0
H1448 H 0.06082 0.75752 0.80853 0.0
H1449 H 0.06108 0.81982 0.82477 0.0
H1450 H 0.067 0.82175 0.89126 0.0
C1451 C 0.05535 0.94999 0.91494 0.0
C1452 C 0.05225 0.90196 0.86492 0.0
C1453 C 0.05483 0.9855 0.92432 0.0
C1454 C 0.05977 0.75936 0.82502 0.0
C1455 C 0.05986 0.79504 0.83428 0.0
C1456 C 0.0628 0.84381 0.88382 0.0
C1457 C 0.0564 0.94694 0.89351 0.0
C1458 C 0.05704 0.90908 0.88362 0.0
C1459 C 0.05836 0.79869 0.85555 0.0
C1460 C 0.058 0.83675 0.86516 0.0
H1461 H 0.05665 0.04105 0.88154 0.0
H1462 H 0.05774 0.97891 0.86511 0.0
H1463 H 0.06625 0.88436 0.90716 0.0
H1464 H 0.05554 0.70534 0.86763 0.0
H1465 H 0.05573 0.76788 0.88388 0.0
C1466 C 0.19074 0.48707 0.82492 0.0
C1467 C 0.19045 0.52035 0.83677 0.0
C1468 C 0.18999 0.45161 0.8343 0.0
C1469 C 0.1928 0.40346 0.88434 0.0
H1470 H 0.17793 0.32386 0.85775 0.0
C1471 C 0.18531 0.26042 0.92374 0.0
C1472 C 0.18705 0.22792 0.9118 0.0
C1473 C 0.1851 0.29621 0.91461 0.0
C1474 C 0.18216 0.34576 0.86527 0.0
H1475 H 0.18913 0.54278 0.86767 0.0
H1476 H 0.18764 0.48075 0.8841 0.0
H1477 H 0.17882 0.38658 0.84199 0.0
H1478 H 0.18965 0.20715 0.8809 0.0
H1479 H 0.18923 0.26987 0.86489 0.0
H1480 H 0.1961 0.36261 0.90765 0.0
C1481 C 0.1886 0.48203 0.86758 0.0
C1482 C 0.18269 0.38165 0.85624 0.0
C1483 C 0.18941 0.51755 0.85819 0.0
C1484 C 0.18828 0.23174 0.89046 0.0
C1485 C 0.18801 0.26758 0.8813 0.0
C1486 C 0.19222 0.36765 0.89341 0.0
C1487 C 0.18887 0.44866 0.85573 0.0
C1488 C 0.18807 0.41084 0.86562 0.0
C1489 C 0.18657 0.30021 0.89335 0.0
C1490 C 0.18693 0.33841 0.88392 0.0
H1491 H 0.19159 0.48836 0.80837 0.0
H1492 H 0.1904 0.42649 0.82476 0.0
H1493 H 0.19713 0.4251 0.89179 0.0
H1494 H 0.18431 0.25833 0.94023 0.0
H1495 H 0.18384 0.32082 0.92422 0.0
C1496 C 0.94395 0.76849 0.63985 0.0
C1497 C 0.94342 0.7704 0.66139 0.0
C1498 C 0.94441 0.73335 0.62994 0.0
C1499 C 0.95052 0.6328 0.63863 0.0
H1500 H 0.93401 0.61505 0.5913 0.0
C1501 C 0.94404 0.48331 0.60508 0.0
C1502 C 0.9436 0.48003 0.58358 0.0
C1503 C 0.94443 0.51905 0.61434 0.0
C1504 C 0.93876 0.61969 0.60433 0.0
H1505 H 0.94304 0.73724 0.68949 0.0
H1506 H 0.94379 0.67602 0.67221 0.0
H1507 H 0.93409 0.67725 0.60765 0.0
H1508 H 0.94338 0.51139 0.55487 0.0
H1509 H 0.94419 0.57364 0.57099 0.0
H1510 H 0.95518 0.57523 0.63535 0.0
C1511 C 0.94394 0.70158 0.66297 0.0
C1512 C 0.93881 0.65532 0.61368 0.0
C1513 C 0.94344 0.73664 0.67285 0.0
C1514 C 0.94365 0.51306 0.5715 0.0
C1515 C 0.94407 0.54873 0.58074 0.0
C1516 C 0.9505 0.59718 0.62924 0.0
C1517 C 0.94439 0.69954 0.64142 0.0
C1518 C 0.94464 0.66218 0.631 0.0
C1519 C 0.9444 0.55216 0.60226 0.0
C1520 C 0.94458 0.59017 0.61204 0.0
H1521 H 0.94397 0.7941 0.63065 0.0
H1522 H 0.94484 0.73264 0.61331 0.0
H1523 H 0.95519 0.63743 0.6518 0.0
H1524 H 0.94399 0.4583 0.61475 0.0
H1525 H 0.94457 0.52074 0.63097 0.0
C1526 C 0.81169 0.00511 0.67198 0.0
C1527 C 0.81055 0.97196 0.66025 0.0
C1528 C 0.81273 0.04027 0.66239 0.0
C1529 C 0.80742 0.08885 0.61347 0.0
H1530 H 0.8238 0.16762 0.63656 0.0
C1531 C 0.81208 0.23395 0.57421 0.0
C1532 C 0.81098 0.26577 0.58701 0.0
C1533 C 0.81301 0.19775 0.58265 0.0
C1534 C 0.81916 0.14592 0.63002 0.0
H1535 H 0.80988 0.94937 0.62929 0.0
H1536 H 0.81189 0.01081 0.61243 0.0
H1537 H 0.82384 0.10436 0.65184 0.0
H1538 H 0.81028 0.28488 0.61866 0.0
H1539 H 0.81195 0.22144 0.63347 0.0
H1540 H 0.80273 0.13045 0.59167 0.0
C1541 C 0.8118 0.00972 0.62908 0.0
C1542 C 0.81917 0.10971 0.63876 0.0
C1543 C 0.8107 0.97451 0.63871 0.0
C1544 C 0.81112 0.26084 0.60844 0.0
C1545 C 0.81211 0.22458 0.6169 0.0
C1546 C 0.80746 0.12494 0.60465 0.0
C1547 C 0.81271 0.04308 0.64082 0.0
C1548 C 0.81322 0.08085 0.63073 0.0
C1549 C 0.81292 0.19263 0.60407 0.0
C1550 C 0.81326 0.15394 0.61295 0.0
H1551 H 0.81157 0.00405 0.68864 0.0
H1552 H 0.81326 0.06537 0.67192 0.0
H1553 H 0.80261 0.06755 0.60711 0.0
H1554 H 0.81203 0.23688 0.55762 0.0
H1555 H 0.81374 0.17369 0.57241 0.0
C1556 C 0.94348 0.2648 0.14101 0.0
C1557 C 0.94306 0.26753 0.16254 0.0
C1558 C 0.94373 0.22929 0.13148 0.0
C1559 C 0.9495 0.12878 0.14092 0.0
H1560 H 0.9329 0.11103 0.09372 0.0
C1561 C 0.94344 0.97949 0.1064 0.0
C1562 C 0.94307 0.97692 0.08486 0.0
C1563 C 0.94364 0.01495 0.11601 0.0
C1564 C 0.93767 0.11565 0.10673 0.0
H1565 H 0.94265 0.23545 0.191 0.0
H1566 H 0.94305 0.17352 0.17435 0.0
H1567 H 0.93305 0.17325 0.11001 0.0
H1568 H 0.94278 0.00923 0.05647 0.0
H1569 H 0.94328 0.07092 0.07319 0.0
H1570 H 0.95416 0.0712 0.13759 0.0
C1571 C 0.94327 0.19874 0.16485 0.0
C1572 C 0.93775 0.15129 0.11605 0.0
C1573 C 0.94298 0.23419 0.17436 0.0
C1574 C 0.943 0.01034 0.07312 0.0
C1575 C 0.94323 0.0457 0.0827 0.0
C1576 C 0.94945 0.09313 0.13155 0.0
C1577 C 0.9436 0.19591 0.14331 0.0
C1578 C 0.94366 0.15822 0.13325 0.0
C1579 C 0.94349 0.04845 0.10425 0.0
C1580 C 0.94354 0.08618 0.11434 0.0
H1581 H 0.94358 0.29005 0.13153 0.0
H1582 H 0.94409 0.22796 0.11485 0.0
H1583 H 0.95422 0.13345 0.15402 0.0
H1584 H 0.94349 0.95415 0.11581 0.0
H1585 H 0.94374 0.01613 0.13266 0.0
C1586 C 0.81244 0.50926 0.17375 0.0
C1587 C 0.81063 0.47731 0.16142 0.0
C1588 C 0.81337 0.5451 0.1649 0.0
C1589 C 0.81829 0.59531 0.11644 0.0
H1590 H 0.80332 0.6761 0.14161 0.0
C1591 C 0.81119 0.73816 0.07597 0.0
C1592 C 0.81077 0.77117 0.08803 0.0
C1593 C 0.8121 0.70262 0.08521 0.0
C1594 C 0.80769 0.6541 0.13458 0.0
H1595 H 0.80866 0.45756 0.13012 0.0
H1596 H 0.81033 0.52045 0.11457 0.0
H1597 H 0.8033 0.61324 0.15704 0.0
H1598 H 0.81131 0.79308 0.11915 0.0
H1599 H 0.81312 0.731 0.13534 0.0
H1600 H 0.82269 0.63618 0.09396 0.0
C1601 C 0.81105 0.51764 0.1311 0.0
C1602 C 0.80765 0.61802 0.1434 0.0
C1603 C 0.81005 0.48171 0.13998 0.0
C1604 C 0.81155 0.76807 0.10949 0.0
C1605 C 0.81253 0.73249 0.11875 0.0
C1606 C 0.81839 0.63151 0.10767 0.0
C1607 C 0.81256 0.54975 0.14352 0.0
C1608 C 0.8129 0.58821 0.13436 0.0
C1609 C 0.81268 0.6993 0.10672 0.0
C1610 C 0.81303 0.66127 0.11656 0.0
H1611 H 0.81295 0.50673 0.19032 0.0
H1612 H 0.81467 0.56927 0.17481 0.0
H1613 H 0.82249 0.57293 0.10929 0.0
H1614 H 0.81057 0.73967 0.05938 0.0
H1615 H 0.81205 0.67767 0.07549 0.0
C1616 C 0.55209 0.26193 0.82289 0.0
C1617 C 0.55217 0.22835 0.83451 0.0
C1618 C 0.55164 0.29715 0.83262 0.0
C1619 C 0.55712 0.34393 0.88157 0.0
H1620 H 0.54054 0.42385 0.86041 0.0
C1621 C 0.55231 0.48554 0.92422 0.0
C1622 C 0.55222 0.51874 0.91229 0.0
C1623 C 0.55192 0.45 0.91485 0.0
C1624 C 0.54529 0.40195 0.86636 0.0
H1625 H 0.55176 0.20515 0.86538 0.0
H1626 H 0.55098 0.26686 0.88244 0.0
H1627 H 0.54047 0.36163 0.84394 0.0
H1628 H 0.55159 0.54093 0.88123 0.0
H1629 H 0.55105 0.47869 0.86475 0.0
H1630 H 0.56204 0.38423 0.90381 0.0
C1631 C 0.55133 0.26588 0.8658 0.0
C1632 C 0.54523 0.36633 0.85696 0.0
C1633 C 0.55173 0.2306 0.85605 0.0
C1634 C 0.55165 0.51578 0.8908 0.0
C1635 C 0.55129 0.48016 0.88139 0.0
C1636 C 0.55721 0.37956 0.89091 0.0
C1637 C 0.55131 0.29951 0.85418 0.0
C1638 C 0.55116 0.33699 0.86445 0.0
C1639 C 0.55146 0.44688 0.89332 0.0
C1640 C 0.5513 0.40899 0.8834 0.0
H1641 H 0.55242 0.26105 0.80625 0.0
H1642 H 0.55175 0.32258 0.82327 0.0
H1643 H 0.56188 0.32204 0.88747 0.0
H1644 H 0.55268 0.48696 0.94085 0.0
H1645 H 0.5519 0.42495 0.92449 0.0
C1646 C 0.6913 0.73115 0.8914 0.0
C1647 C 0.68669 0.72359 0.9102 0.0
C1648 C 0.69059 0.76703 0.88239 0.0
C1649 C 0.68514 0.8668 0.89584 0.0
H1650 H 0.68456 0.87955 0.83663 0.0
C1651 C 0.69195 0.01153 0.85728 0.0
C1652 C 0.68686 0.02005 0.83917 0.0
C1653 C 0.69125 0.97552 0.86612 0.0
C1654 C 0.68458 0.87656 0.85321 0.0
H1655 H 0.67741 0.74694 0.93397 0.0
H1656 H 0.6759 0.80912 0.91797 0.0
H1657 H 0.68415 0.81605 0.85121 0.0
H1658 H 0.6768 -0.00179 0.81642 0.0
H1659 H 0.67532 0.93574 0.83218 0.0
H1660 H 0.68528 0.92729 0.89787 0.0
C1661 C 0.6803 0.78782 0.91043 0.0
C1662 C 0.6845 0.84007 0.86157 0.0
C1663 C 0.6811 0.7521 0.91952 0.0
C1664 C 0.68086 0.99229 0.83034 0.0
C1665 C 0.68007 0.95642 0.83929 0.0
C1666 C 0.68513 0.90328 0.88749 0.0
C1667 C 0.68517 0.79594 0.89192 0.0
C1668 C 0.68485 0.83473 0.88298 0.0
C1669 C 0.68536 0.94742 0.85714 0.0
C1670 C 0.68494 0.90863 0.86607 0.0
H1671 H 0.69569 0.70971 0.88394 0.0
H1672 H 0.69453 0.77238 0.86828 0.0
H1673 H 0.68555 0.86381 0.91239 0.0
H1674 H 0.69668 0.03235 0.86434 0.0
H1675 H 0.69555 0.96947 0.87968 0.0
C1676 C 0.55164 0.72738 0.35758 0.0
C1677 C 0.5522 0.72552 0.33604 0.0
C1678 C 0.5512 0.7625 0.36751 0.0
C1679 C 0.54522 0.8632 0.35887 0.0
H1680 H 0.56173 0.88054 0.40625 0.0
C1681 C 0.55194 0.01255 0.39237 0.0
C1682 C 0.55237 0.01586 0.41387 0.0
C1683 C 0.5515 0.97679 0.38314 0.0
C1684 C 0.55698 0.87602 0.39321 0.0
H1685 H 0.55265 0.75875 0.30797 0.0
H1686 H 0.55192 0.81994 0.3253 0.0
H1687 H 0.56156 0.81835 0.3899 0.0
H1688 H 0.55251 0.98457 0.4426 0.0
H1689 H 0.55161 0.9223 0.42652 0.0
H1690 H 0.54065 0.92089 0.36214 0.0
C1691 C 0.55174 0.79436 0.33451 0.0
C1692 C 0.55688 0.84039 0.38385 0.0
C1693 C 0.55221 0.75932 0.32461 0.0
C1694 C 0.55225 0.98287 0.42597 0.0
C1695 C 0.55179 0.94718 0.41676 0.0
C1696 C 0.54529 0.89882 0.36826 0.0
C1697 C 0.55126 0.79634 0.35607 0.0
C1698 C 0.55105 0.83369 0.36651 0.0
C1699 C 0.55146 0.94371 0.39524 0.0
C1700 C 0.55121 0.90568 0.38547 0.0
H1701 H 0.55159 0.70175 0.36676 0.0
H1702 H 0.55075 0.76318 0.38415 0.0
H1703 H 0.54055 0.8587 0.34568 0.0
H1704 H 0.55203 0.03753 0.38268 0.0
H1705 H 0.55137 0.97506 0.36651 0.0
C1706 C 0.68446 0.22853 0.38765 0.0
C1707 C 0.68457 0.22594 0.40919 0.0
C1708 C 0.68336 0.26375 0.37803 0.0
C1709 C 0.67607 0.36392 0.3877 0.0
H1710 H 0.69273 0.3844 0.34093 0.0
C1711 C 0.68467 0.51495 0.35779 0.0
C1712 C 0.68486 0.52 0.33637 0.0
C1713 C 0.68354 0.47869 0.36618 0.0
C1714 C 0.68794 0.37897 0.35382 0.0
H1715 H 0.68342 0.25793 0.43759 0.0
H1716 H 0.68172 0.31926 0.4209 0.0
H1717 H 0.69265 0.32141 0.35624 0.0
H1718 H 0.68378 0.49131 0.30693 0.0
H1719 H 0.68185 0.42813 0.32158 0.0
H1720 H 0.6716 0.42202 0.38554 0.0
C1721 C 0.6823 0.2942 0.41135 0.0
C1722 C 0.68786 0.34282 0.36257 0.0
C1723 C 0.68334 0.25903 0.42093 0.0
C1724 C 0.68369 0.4883 0.32351 0.0
C1725 C 0.68263 0.4521 0.33188 0.0
C1726 C 0.6762 0.40019 0.37903 0.0
C1727 C 0.6824 0.29708 0.38978 0.0
C1728 C 0.68199 0.3349 0.37972 0.0
C1729 C 0.68266 0.44685 0.35329 0.0
C1730 C 0.68218 0.40812 0.36208 0.0
H1731 H 0.68535 0.20344 0.37822 0.0
H1732 H 0.68332 0.26488 0.36139 0.0
H1733 H 0.67134 0.35865 0.4007 0.0
H1734 H 0.68555 0.5389 0.36806 0.0
H1735 H 0.68366 0.47543 0.38275 0.0
C1736 C 0.43468 0.5099 0.0766 0.0
C1737 C 0.43528 0.47693 0.08866 0.0
C1738 C 0.43368 0.5454 0.08585 0.0
C1739 C 0.43817 0.59418 0.1351 0.0
H1740 H 0.42309 0.67472 0.10997 0.0
C1741 C 0.43329 0.73906 0.17411 0.0
C1742 C 0.43504 0.77096 0.16171 0.0
C1743 C 0.43236 0.70316 0.16533 0.0
C1744 C 0.42736 0.65252 0.11707 0.0
H1745 H 0.43497 0.45501 0.11979 0.0
H1746 H 0.433 0.51701 0.136 0.0
H1747 H 0.42296 0.61137 0.09475 0.0
H1748 H 0.4369 0.79057 0.13036 0.0
H1749 H 0.43524 0.72756 0.11493 0.0
H1750 H 0.44256 0.63531 0.15743 0.0
C1751 C 0.43352 0.51553 0.1194 0.0
C1752 C 0.4273 0.61627 0.10837 0.0
C1753 C 0.43459 0.48 0.11014 0.0
C1754 C 0.43555 0.76646 0.14027 0.0
C1755 C 0.43456 0.73047 0.13146 0.0
C1756 C 0.43816 0.6303 0.14387 0.0
C1757 C 0.43319 0.54871 0.10737 0.0
C1758 C 0.43277 0.58673 0.1172 0.0
C1759 C 0.43311 0.69841 0.14395 0.0
C1760 C 0.43281 0.65988 0.13488 0.0
H1761 H 0.43522 0.50841 0.06 0.0
H1762 H 0.43359 0.57032 0.07612 0.0
H1763 H 0.44262 0.57237 0.14208 0.0
H1764 H 0.43282 0.74166 0.19069 0.0
H1765 H 0.43112 0.67902 0.1753 0.0
C1766 C 0.3026 0.98183 0.14199 0.0
C1767 C 0.30314 0.97921 0.16351 0.0
C1768 C 0.30235 0.01732 0.13241 0.0
C1769 C 0.3085 0.1179 0.14152 0.0
H1770 H 0.29157 0.13605 0.09488 0.0
C1771 C 0.30272 0.26715 0.10738 0.0
C1772 C 0.303 0.26981 0.08584 0.0
C1773 C 0.30245 0.23169 0.11695 0.0
C1774 C 0.29639 0.13128 0.1078 0.0
H1775 H 0.30368 0.01146 0.19191 0.0
H1776 H 0.3031 0.07319 0.17524 0.0
H1777 H 0.29169 0.07377 0.11128 0.0
H1778 H 0.30309 0.23762 0.0574 0.0
H1779 H 0.30264 0.17577 0.07411 0.0
H1780 H 0.31318 0.17541 0.13807 0.0
C1781 C 0.30306 0.04799 0.16572 0.0
C1782 C 0.29648 0.09562 0.11715 0.0
C1783 C 0.30333 0.01261 0.17527 0.0
C1784 C 0.30288 0.23643 0.07404 0.0
C1785 C 0.30256 0.20102 0.0836 0.0
C1786 C 0.30839 0.15355 0.13221 0.0
C1787 C 0.30262 0.05078 0.14418 0.0
C1788 C 0.30253 0.08854 0.13412 0.0
C1789 C 0.30239 0.19827 0.10515 0.0
C1790 C 0.30235 0.1606 0.11524 0.0
H1791 H 0.30246 0.95651 0.13256 0.0
H1792 H 0.30212 0.01854 0.11577 0.0
H1793 H 0.31337 0.11317 0.15435 0.0
H1794 H 0.30278 0.29244 0.11684 0.0
H1795 H 0.30222 0.23041 0.13359 0.0
C1796 C 0.43456 0.26712 0.63968 0.0
C1797 C 0.43529 0.27033 0.66114 0.0
C1798 C 0.43355 0.2315 0.63049 0.0
C1799 C 0.42756 0.13067 0.64175 0.0
H1800 H 0.44263 0.11187 0.59243 0.0
C1801 C 0.43576 0.98062 0.60959 0.0
C1802 C 0.43513 0.97618 0.58816 0.0
C1803 C 0.4348 0.01657 0.61846 0.0
C1804 C 0.43829 0.11681 0.60607 0.0
H1805 H 0.43541 0.23901 0.68986 0.0
H1806 H 0.43388 0.17695 0.67385 0.0
H1807 H 0.44269 0.17482 0.60776 0.0
H1808 H 0.43274 0.00556 0.55927 0.0
H1809 H 0.4311 0.06814 0.57475 0.0
H1810 H 0.42339 0.07214 0.64023 0.0
C1811 C 0.43388 0.20182 0.66408 0.0
C1812 C 0.4383 0.15293 0.61482 0.0
C1813 C 0.43482 0.23741 0.67326 0.0
C1814 C 0.43329 0.00811 0.57584 0.0
C1815 C 0.43241 0.04397 0.58467 0.0
C1816 C 0.42762 0.09442 0.63305 0.0
C1817 C 0.43334 0.19838 0.64257 0.0
C1818 C 0.43296 0.1603 0.63281 0.0
C1819 C 0.43328 0.04866 0.60603 0.0
C1820 C 0.433 0.08714 0.61514 0.0
H1821 H 0.43485 0.29207 0.62998 0.0
H1822 H 0.43299 0.22992 0.61389 0.0
H1823 H 0.42325 0.1355 0.65544 0.0
H1824 H 0.43717 0.95648 0.61945 0.0
H1825 H 0.43557 0.01943 0.63498 0.0
C1826 C 0.3023 0.48017 0.64279 0.0
C1827 C 0.30279 0.47722 0.6643 0.0
C1828 C 0.30199 0.51579 0.63338 0.0
C1829 C 0.30786 0.61646 0.64298 0.0
H1830 H 0.29115 0.63435 0.59597 0.0
C1831 C 0.30217 0.76553 0.60834 0.0
C1832 C 0.30259 0.76789 0.5868 0.0
C1833 C 0.30185 0.73018 0.61804 0.0
C1834 C 0.2959 0.62966 0.609 0.0
H1835 H 0.30319 0.50903 0.69286 0.0
H1836 H 0.3025 0.57101 0.67648 0.0
H1837 H 0.29127 0.57205 0.61233 0.0
H1838 H 0.30292 0.73532 0.55849 0.0
H1839 H 0.3024 0.67371 0.57543 0.0
H1840 H 0.31248 0.67408 0.63966 0.0
C1841 C 0.30254 0.54596 0.66684 0.0
C1842 C 0.29599 0.59399 0.61833 0.0
C1843 C 0.30288 0.51043 0.67622 0.0
C1844 C 0.3026 0.73436 0.57514 0.0
C1845 C 0.30224 0.69908 0.58482 0.0
C1846 C 0.30775 0.65213 0.6337 0.0
C1847 C 0.30214 0.54907 0.64531 0.0
C1848 C 0.30199 0.58697 0.6354 0.0
C1849 C 0.3019 0.69662 0.60636 0.0
C1850 C 0.30179 0.65906 0.61657 0.0
H1851 H 0.30224 0.455 0.63324 0.0
H1852 H 0.30179 0.51725 0.61674 0.0
H1853 H 0.31268 0.6118 0.6559 0.0
H1854 H 0.30213 0.79095 0.61769 0.0
H1855 H 0.3015 0.72911 0.63468 0.0
C1856 C 0.04794 0.73515 0.39371 0.0
C1857 C 0.04813 0.73068 0.41518 0.0
C1858 C 0.04666 0.77101 0.38497 0.0
C1859 C 0.05037 0.87179 0.39668 0.0
H1860 H 0.03512 0.88805 0.3473 0.0
C1861 C 0.04681 0.02009 0.36054 0.0
C1862 C 0.04778 0.02217 0.33906 0.0
C1863 C 0.04563 0.98507 0.37028 0.0
C1864 C 0.03946 0.8839 0.36101 0.0
H1865 H 0.04683 0.76004 0.44435 0.0
H1866 H 0.04456 0.82272 0.42909 0.0
H1867 H 0.0352 0.82565 0.36363 0.0
H1868 H 0.04801 0.98937 0.31087 0.0
H1869 H 0.04609 0.92812 0.32787 0.0
H1870 H 0.05482 0.92962 0.39388 0.0
C1871 C 0.0455 0.79854 0.41901 0.0
C1872 C 0.03949 0.84818 0.37037 0.0
C1873 C 0.04675 0.76263 0.42774 0.0
C1874 C 0.04727 0.98864 0.32745 0.0
C1875 C 0.04611 0.95356 0.3372 0.0
C1876 C 0.05035 0.90742 0.38731 0.0
C1877 C 0.04557 0.8032 0.39752 0.0
C1878 C 0.04501 0.84165 0.38822 0.0
C1879 C 0.04542 0.95131 0.35876 0.0
C1880 C 0.04497 0.91386 0.36926 0.0
H1881 H 0.04898 0.71104 0.38362 0.0
H1882 H 0.04685 0.77368 0.36838 0.0
H1883 H 0.05483 0.86755 0.41021 0.0
H1884 H 0.04712 0.04548 0.36989 0.0
H1885 H 0.04495 0.98444 0.38687 0.0
C1886 C 0.19404 0.48179 0.42748 0.0
C1887 C 0.194 0.51504 0.41558 0.0
C1888 C 0.1944 0.4462 0.418 0.0
C1889 C 0.20066 0.3989 0.36883 0.0
H1890 H 0.18408 0.31863 0.38953 0.0
C1891 C 0.19358 0.26022 0.32377 0.0
C1892 C 0.19338 0.22634 0.33512 0.0
C1893 C 0.19405 0.29524 0.33383 0.0
C1894 C 0.18884 0.3406 0.38371 0.0
H1895 H 0.19437 0.53715 0.38446 0.0
H1896 H 0.19488 0.47519 0.36794 0.0
H1897 H 0.18427 0.37996 0.40681 0.0
H1898 H 0.19361 0.20247 0.36587 0.0
H1899 H 0.19449 0.26352 0.3834 0.0
H1900 H 0.20514 0.35958 0.3456 0.0
C1901 C 0.19477 0.47651 0.38459 0.0
C1902 C 0.18896 0.37575 0.39363 0.0
C1903 C 0.19442 0.51203 0.39405 0.0
C1904 C 0.19373 0.22812 0.3567 0.0
C1905 C 0.19417 0.2631 0.36675 0.0
C1906 C 0.20052 0.36376 0.35888 0.0
C1907 C 0.19473 0.44315 0.39643 0.0
C1908 C 0.19484 0.40538 0.38626 0.0
C1909 C 0.1943 0.29707 0.35544 0.0
C1910 C 0.19458 0.33425 0.36617 0.0
H1911 H 0.19375 0.48325 0.44411 0.0
H1912 H 0.19448 0.42108 0.42759 0.0
H1913 H 0.20538 0.42092 0.36294 0.0
H1914 H 0.19331 0.25971 0.30712 0.0
H1915 H 0.19404 0.32091 0.32468 0.0
C1916 C 0.04921 0.51401 0.85533 0.0
C1917 C 0.04906 0.51757 0.83381 0.0
C1918 C 0.04843 0.4784 0.86458 0.0
C1919 C 0.05265 0.37732 0.85386 0.0
H1920 H 0.03849 0.3624 0.9048 0.0
C1921 C 0.04917 0.23018 0.89179 0.0
C1922 C 0.05056 0.22857 0.91318 0.0
C1923 C 0.04821 0.26506 0.88182 0.0
C1924 C 0.04254 0.36621 0.89066 0.0
H1925 H 0.0477 0.4868 0.80509 0.0
H1926 H 0.04624 0.42448 0.82126 0.0
H1927 H 0.03794 0.42395 0.88763 0.0
H1928 H 0.05189 0.26215 0.94097 0.0
H1929 H 0.05028 0.32321 0.92352 0.0
H1930 H 0.05733 0.31977 0.85698 0.0
C1931 C 0.0471 0.44921 0.83098 0.0
C1932 C 0.04222 0.40144 0.88081 0.0
C1933 C 0.04787 0.48489 0.82172 0.0
C1934 C 0.05082 0.26253 0.92446 0.0
C1935 C 0.04985 0.29746 0.91448 0.0
C1936 C 0.05296 0.34211 0.86369 0.0
C1937 C 0.04749 0.44552 0.85251 0.0
C1938 C 0.04734 0.40749 0.86238 0.0
C1939 C 0.0486 0.29912 0.89302 0.0
C1940 C 0.04797 0.33622 0.88227 0.0
H1941 H 0.05012 0.53868 0.86506 0.0
H1942 H 0.04888 0.47655 0.88118 0.0
H1943 H 0.05681 0.38118 0.83988 0.0
H1944 H 0.04889 0.20448 0.88269 0.0
H1945 H 0.04713 0.26535 0.86531 0.0
C1946 C 0.19888 0.9871 0.92649 0.0
C1947 C 0.19736 0.01957 0.91441 0.0
C1948 C 0.19978 0.95145 0.91726 0.0
C1949 C 0.20443 0.90376 0.86729 0.0
H1950 H 0.18997 0.82107 0.89193 0.0
C1951 C 0.19594 0.76408 0.82422 0.0
C1952 C 0.19638 0.73019 0.83554 0.0
C1953 C 0.19694 0.7991 0.83411 0.0
C1954 C 0.19416 0.84369 0.885 0.0
H1955 H 0.19585 0.04039 0.88318 0.0
H1956 H 0.19733 0.97829 0.8671 0.0
H1957 H 0.19035 0.88259 0.90891 0.0
H1958 H 0.19844 0.70631 0.86598 0.0
H1959 H 0.20026 0.76731 0.88317 0.0
H1960 H 0.2081 0.86488 0.8432 0.0
C1961 C 0.19794 0.98028 0.88368 0.0
C1962 C 0.19439 0.87897 0.89475 0.0
C1963 C 0.19703 0.01587 0.8929 0.0
C1964 C 0.19801 0.73196 0.85685 0.0
C1965 C 0.199 0.76692 0.86672 0.0
C1966 C 0.20419 0.86845 0.85752 0.0
C1967 C 0.1992 0.94758 0.89575 0.0
C1968 C 0.19947 0.90951 0.88594 0.0
C1969 C 0.1984 0.80091 0.8555 0.0
C1970 C 0.19899 0.83809 0.86619 0.0
H1971 H 0.1992 0.98911 0.94311 0.0
H1972 H 0.20089 0.92687 0.92697 0.0
H1973 H 0.20852 0.92657 0.86025 0.0
H1974 H 0.19468 0.76358 0.80777 0.0
H1975 H 0.19634 0.82478 0.82506 0.0
C1976 C 0.94361 0.23547 0.5726 0.0
C1977 C 0.94367 0.2693 0.58401 0.0
C1978 C 0.94394 0.20037 0.58259 0.0
C1979 C 0.93874 0.15518 0.63251 0.0
H1980 H 0.95477 0.07372 0.6113 0.0
C1981 C 0.94368 0.0138 0.67622 0.0
C1982 C 0.94348 0.98051 0.66437 0.0
C1983 C 0.94406 0.04933 0.66668 0.0
C1984 C 0.95018 0.09606 0.61731 0.0
H1985 H 0.9442 0.29298 0.61477 0.0
H1986 H 0.94482 0.23178 0.63219 0.0
H1987 H 0.95474 0.13512 0.59401 0.0
H1988 H 0.94355 0.95822 0.63329 0.0
H1989 H 0.94408 0.02009 0.61665 0.0
H1990 H 0.93411 0.1161 0.6557 0.0
C1991 C 0.94442 0.23232 0.61555 0.0
C1992 C 0.95017 0.13123 0.60739 0.0
C1993 C 0.94412 0.26738 0.60557 0.0
C1994 C 0.94372 0.98339 0.64283 0.0
C1995 C 0.94409 0.01885 0.6333 0.0
C1996 C 0.93874 0.12 0.6424 0.0
C1997 C 0.9443 0.19841 0.60419 0.0
C1998 C 0.94442 0.16116 0.61485 0.0
C1999 C 0.94424 0.05226 0.6451 0.0
C2000 C 0.94443 0.08998 0.63488 0.0
H2001 H 0.94325 0.23609 0.55596 0.0
H2002 H 0.94373 0.17475 0.57341 0.0
H2003 H 0.93412 0.1775 0.63847 0.0
H2004 H 0.94353 0.01244 0.69287 0.0
H2005 H 0.94428 0.07449 0.67622 0.0
C2006 C 0.79737 0.50657 0.57793 0.0
C2007 C 0.79827 0.47299 0.58938 0.0
C2008 C 0.79613 0.5414 0.58786 0.0
C2009 C 0.80078 0.58765 0.63773 0.0
H2010 H 0.78472 0.66779 0.61516 0.0
C2011 C 0.79699 0.73235 0.67819 0.0
C2012 C 0.79799 0.76428 0.66544 0.0
C2013 C 0.79579 0.69627 0.66964 0.0
C2014 C 0.78927 0.64572 0.6216 0.0
H2015 H 0.79824 0.44928 0.62015 0.0
H2016 H 0.79593 0.50994 0.63749 0.0
H2017 H 0.78479 0.60539 0.59886 0.0
H2018 H 0.79822 0.78369 0.6338 0.0
H2019 H 0.79618 0.72075 0.61888 0.0
H2020 H 0.80536 0.62802 0.66029 0.0
C2021 C 0.79636 0.50953 0.62085 0.0
C2022 C 0.78932 0.61 0.61225 0.0
C2023 C 0.79763 0.47474 0.61092 0.0
C2024 C 0.79747 0.7596 0.64401 0.0
C2025 C 0.79624 0.72356 0.63547 0.0
C2026 C 0.80071 0.62329 0.6471 0.0
C2027 C 0.79574 0.54336 0.60946 0.0
C2028 C 0.79516 0.58066 0.62007 0.0
C2029 C 0.79553 0.69141 0.64817 0.0
C2030 C 0.79504 0.65286 0.63901 0.0
H2031 H 0.79785 0.5061 0.5613 0.0
H2032 H 0.79579 0.56692 0.57862 0.0
H2033 H 0.8055 0.56593 0.64397 0.0
H2034 H 0.79733 0.73511 0.69477 0.0
H2035 H 0.79514 0.67211 0.67984 0.0
C2036 C 0.9446 0.4793 0.14109 0.0
C2037 C 0.94415 0.47755 0.16266 0.0
C2038 C 0.94509 0.51425 0.13104 0.0
C2039 C 0.95131 0.615 0.1389 0.0
H2040 H 0.93509 0.63086 0.0909 0.0
C2041 C 0.94497 0.76313 0.10372 0.0
C2042 C 0.94451 0.76611 0.08219 0.0
C2043 C 0.94542 0.72762 0.11318 0.0
C2044 C 0.93977 0.62675 0.1041 0.0
H2045 H 0.94395 0.51096 0.19065 0.0
H2046 H 0.94475 0.57214 0.17307 0.0
H2047 H 0.93496 0.56954 0.10817 0.0
H2048 H 0.94432 0.73432 0.05366 0.0
H2049 H 0.94522 0.67219 0.07018 0.0
H2050 H 0.9561 0.67227 0.13486 0.0
C2051 C 0.94482 0.54645 0.16394 0.0
C2052 C 0.93969 0.5916 0.11402 0.0
C2053 C 0.9443 0.51145 0.174 0.0
C2054 C 0.94463 0.73288 0.07029 0.0
C2055 C 0.94509 0.69731 0.07976 0.0
C2056 C 0.95141 0.65014 0.12895 0.0
C2057 C 0.94516 0.54823 0.14234 0.0
C2058 C 0.94542 0.58539 0.13159 0.0
C2059 C 0.94544 0.69426 0.10133 0.0
C2060 C 0.9456 0.6565 0.11149 0.0
H2061 H 0.94453 0.45364 0.13193 0.0
H2062 H 0.94547 0.51465 0.1144 0.0
H2063 H 0.95592 0.61091 0.15222 0.0
H2064 H 0.94487 0.78825 0.11331 0.0
H2065 H 0.94555 0.7263 0.12982 0.0
C2066 C 0.79645 0.23731 0.17626 0.0
C2067 C 0.79784 0.26939 0.16379 0.0
C2068 C 0.7953 0.20145 0.16742 0.0
C2069 C 0.78967 0.1519 0.11857 0.0
H2070 H 0.80503 0.07091 0.14238 0.0
C2071 C 0.7979 0.0117 0.07581 0.0
C2072 C 0.79837 0.97818 0.08743 0.0
C2073 C 0.79667 0.04676 0.08552 0.0
C2074 C 0.80056 0.09298 0.13571 0.0
H2075 H 0.7988 0.28932 0.1323 0.0
H2076 H 0.79685 0.22673 0.11687 0.0
H2077 H 0.80482 0.13292 0.15875 0.0
H2078 H 0.79755 0.95485 0.11824 0.0
H2079 H 0.79524 0.01587 0.13516 0.0
H2080 H 0.7855 0.11195 0.09536 0.0
C2081 C 0.79657 0.22926 0.13347 0.0
C2082 C 0.80045 0.12858 0.14511 0.0
C2083 C 0.79775 0.2651 0.14231 0.0
C2084 C 0.79729 0.98024 0.10888 0.0
C2085 C 0.79602 0.01524 0.11859 0.0
C2086 C 0.78976 0.11621 0.10917 0.0
C2087 C 0.79549 0.19695 0.14593 0.0
C2088 C 0.79507 0.15855 0.13656 0.0
C2089 C 0.79585 0.04899 0.10706 0.0
C2090 C 0.79528 0.08642 0.11754 0.0
H2091 H 0.79645 0.23977 0.19287 0.0
H2092 H 0.79435 0.17717 0.17743 0.0
H2093 H 0.78536 0.1743 0.11174 0.0
H2094 H 0.79873 0.01098 0.05924 0.0
H2095 H 0.79668 0.07221 0.07619 0.0
C2096 C 0.55151 0.76316 0.92512 0.0
C2097 C 0.55164 0.72972 0.9134 0.0
C2098 C 0.55115 0.79856 0.91546 0.0
C2099 C 0.54512 0.84505 0.86592 0.0
H2100 H 0.56136 0.92601 0.88706 0.0
C2101 C 0.55204 0.98468 0.82142 0.0
C2102 C 0.55199 0.01837 0.83294 0.0
C2103 C 0.55163 0.94946 0.83128 0.0
C2104 C 0.5567 0.90382 0.8811 0.0
H2105 H 0.55143 0.70703 0.8824 0.0
H2106 H 0.55093 0.76871 0.86553 0.0
H2107 H 0.56124 0.86468 0.90432 0.0
H2108 H 0.55137 0.04168 0.86379 0.0
H2109 H 0.55061 0.98032 0.88097 0.0
H2110 H 0.54067 0.88422 0.84256 0.0
C2111 C 0.55096 0.76768 0.88219 0.0
C2112 C 0.55662 0.86868 0.89101 0.0
C2113 C 0.55131 0.73232 0.89184 0.0
C2114 C 0.55145 0.0162 0.85449 0.0
C2115 C 0.55107 0.98105 0.86434 0.0
C2116 C 0.54523 0.88019 0.85597 0.0
C2117 C 0.55092 0.80124 0.89387 0.0
C2118 C 0.55084 0.83885 0.88353 0.0
C2119 C 0.5512 0.94728 0.85287 0.0
C2120 C 0.55103 0.90996 0.86344 0.0
H2121 H 0.55172 0.76202 0.94177 0.0
H2122 H 0.55099 0.82384 0.92491 0.0
H2123 H 0.54048 0.82285 0.85993 0.0
H2124 H 0.55246 0.9855 0.80478 0.0
H2125 H 0.55183 0.92393 0.82203 0.0
C2126 C 0.69906 0.48407 0.92786 0.0
C2127 C 0.69807 0.51636 0.91539 0.0
C2128 C 0.70015 0.4482 0.919 0.0
C2129 C 0.7065 0.39878 0.87061 0.0
H2130 H 0.68995 0.31918 0.89217 0.0
C2131 C 0.69861 0.25984 0.82633 0.0
C2132 C 0.69759 0.22632 0.83779 0.0
C2133 C 0.69974 0.29473 0.83629 0.0
C2134 C 0.69475 0.34084 0.88615 0.0
H2135 H 0.69775 0.53664 0.8839 0.0
H2136 H 0.69962 0.47408 0.86844 0.0
H2137 H 0.69022 0.38086 0.90892 0.0
H2138 H 0.69732 0.20275 0.86859 0.0
H2139 H 0.69947 0.26338 0.88594 0.0
H2140 H 0.71096 0.35877 0.8477 0.0
C2141 C 0.69962 0.47644 0.88505 0.0
C2142 C 0.69489 0.37623 0.89577 0.0
C2143 C 0.69849 0.51225 0.89391 0.0
C2144 C 0.69801 0.22817 0.85935 0.0
C2145 C 0.69918 0.26295 0.86929 0.0
C2146 C 0.70638 0.36328 0.86102 0.0
C2147 C 0.70032 0.44396 0.89749 0.0
C2148 C 0.7007 0.4057 0.888 0.0
C2149 C 0.69991 0.29673 0.85791 0.0
C2150 C 0.70044 0.33398 0.86857 0.0
H2151 H 0.6988 0.4864 0.94447 0.0
H2152 H 0.70078 0.42372 0.92897 0.0
H2153 H 0.71113 0.42082 0.86441 0.0
H2154 H 0.6983 0.25925 0.80968 0.0
H2155 H 0.70018 0.32022 0.82705 0.0
C2156 C 0.55222 0.48191 0.32071 0.0
C2157 C 0.55214 0.51513 0.33263 0.0
C2158 C 0.55188 0.44629 0.33015 0.0
C2159 C 0.54539 0.39881 0.37912 0.0
H2160 H 0.56212 0.31874 0.35879 0.0
C2161 C 0.55223 0.26022 0.4243 0.0
C2162 C 0.55246 0.22633 0.41296 0.0
C2163 C 0.55184 0.29523 0.41423 0.0
C2164 C 0.55732 0.34066 0.36451 0.0
H2165 H 0.55158 0.53716 0.36375 0.0
H2166 H 0.5511 0.47515 0.38022 0.0
H2167 H 0.562 0.38014 0.34156 0.0
H2168 H 0.5524 0.20242 0.38223 0.0
H2169 H 0.55168 0.26348 0.36466 0.0
H2170 H 0.54078 0.35938 0.40219 0.0
C2171 C 0.55129 0.47651 0.36358 0.0
C2172 C 0.55724 0.37584 0.35461 0.0
C2173 C 0.55163 0.51206 0.35415 0.0
C2174 C 0.55226 0.22809 0.39138 0.0
C2175 C 0.5519 0.26306 0.38131 0.0
C2176 C 0.54548 0.36365 0.38904 0.0
C2177 C 0.55144 0.44318 0.35171 0.0
C2178 C 0.5513 0.40539 0.36185 0.0
C2179 C 0.55171 0.29704 0.39261 0.0
C2180 C 0.55148 0.33422 0.38189 0.0
H2181 H 0.55258 0.48342 0.30408 0.0
H2182 H 0.55188 0.42119 0.32055 0.0
H2183 H 0.54061 0.42076 0.38489 0.0
H2184 H 0.5524 0.25974 0.44096 0.0
H2185 H 0.55182 0.32091 0.42337 0.0
C2186 C 0.69823 0.01461 0.3925 0.0
C2187 C 0.69795 0.0193 0.41395 0.0
C2188 C 0.69951 0.97863 0.3839 0.0
C2189 C 0.69557 0.87813 0.39584 0.0
H2190 H 0.71098 0.86091 0.3468 0.0
C2191 C 0.69875 0.72952 0.35981 0.0
C2192 C 0.69789 0.72754 0.33831 0.0
C2193 C 0.70001 0.76446 0.3696 0.0
C2194 C 0.70659 0.86532 0.36042 0.0
H2195 H 0.69908 0.99021 0.44324 0.0
H2196 H 0.70136 0.92735 0.42822 0.0
H2197 H 0.711 0.92342 0.363 0.0
H2198 H 0.69793 0.76043 0.31013 0.0
H2199 H 0.69998 0.8215 0.32721 0.0
H2200 H 0.69097 0.82047 0.39306 0.0
C2201 C 0.70049 0.95144 0.41805 0.0
C2202 C 0.70661 0.90111 0.3697 0.0
C2203 C 0.69923 0.98745 0.42664 0.0
C2204 C 0.69858 0.76107 0.32674 0.0
C2205 C 0.69982 0.79605 0.33653 0.0
C2206 C 0.69552 0.84243 0.38654 0.0
C2207 C 0.7005 0.94655 0.39658 0.0
C2208 C 0.70103 0.908 0.38741 0.0
C2209 C 0.70041 0.79822 0.3581 0.0
C2210 C 0.70096 0.83566 0.3686 0.0
H2211 H 0.69726 0.03863 0.38232 0.0
H2212 H 0.69939 0.97579 0.36731 0.0
H2213 H 0.69106 0.88265 0.40926 0.0
H2214 H 0.6983 0.70412 0.36913 0.0
H2215 H 0.70061 0.76503 0.38621 0.0
C2216 C 0.44859 0.23686 0.07611 0.0
C2217 C 0.44816 0.27039 0.08774 0.0
C2218 C 0.44973 0.20175 0.08583 0.0
C2219 C 0.4456 0.15565 0.13599 0.0
H2220 H 0.46063 0.07371 0.11219 0.0
C2221 C 0.4493 0.01111 0.17662 0.0
C2222 C 0.44791 0.97905 0.16414 0.0
C2223 C 0.45051 0.04696 0.16779 0.0
C2224 C 0.45637 0.09628 0.11896 0.0
H2225 H 0.44896 0.29364 0.11856 0.0
H2226 H 0.45111 0.23254 0.13549 0.0
H2227 H 0.46069 0.13604 0.09579 0.0
H2228 H 0.44697 0.95917 0.13264 0.0
H2229 H 0.44902 0.02171 0.11723 0.0
H2230 H 0.44118 0.11589 0.15899 0.0
C2231 C 0.45037 0.23321 0.1189 0.0
C2232 C 0.45639 0.13197 0.10956 0.0
C2233 C 0.4492 0.26826 0.1092 0.0
C2234 C 0.44803 0.98336 0.14266 0.0
C2235 C 0.44926 0.01918 0.13382 0.0
C2236 C 0.44559 0.12005 0.14539 0.0
C2237 C 0.45049 0.19946 0.10738 0.0
C2238 C 0.45093 0.162 0.11786 0.0
C2239 C 0.45038 0.05147 0.14629 0.0
C2240 C 0.45091 0.08985 0.1369 0.0
H2241 H 0.44779 0.23763 0.05953 0.0
H2242 H 0.44969 0.17631 0.07649 0.0
H2243 H 0.44117 0.1779 0.14261 0.0
H2244 H 0.44928 0.00864 0.19323 0.0
H2245 H 0.45148 0.07122 0.1778 0.0
C2246 C 0.30162 0.76561 0.14435 0.0
C2247 C 0.30196 0.76847 0.16589 0.0
C2248 C 0.30126 0.73014 0.13482 0.0
C2249 C 0.30692 0.62927 0.14387 0.0
H2250 H 0.29097 0.61345 0.09544 0.0
C2251 C 0.30208 0.48175 0.10692 0.0
C2252 C 0.30255 0.47988 0.08536 0.0
C2253 C 0.30164 0.51677 0.11692 0.0
C2254 C 0.29553 0.61754 0.10884 0.0
H2255 H 0.30203 0.73652 0.19437 0.0
H2256 H 0.30128 0.67447 0.17773 0.0
H2257 H 0.29072 0.67478 0.11282 0.0
H2258 H 0.30286 0.51314 0.05732 0.0
H2259 H 0.30215 0.57444 0.07481 0.0
H2260 H 0.31174 0.57206 0.13987 0.0
C2261 C 0.30144 0.69964 0.16819 0.0
C2262 C 0.29538 0.65267 0.1188 0.0
C2263 C 0.30181 0.73517 0.17773 0.0
C2264 C 0.30249 0.51372 0.07397 0.0
C2265 C 0.30203 0.54879 0.08397 0.0
C2266 C 0.30705 0.59413 0.13394 0.0
C2267 C 0.30121 0.69672 0.14661 0.0
C2268 C 0.30111 0.659 0.13638 0.0
C2269 C 0.30165 0.5507 0.10557 0.0
C2270 C 0.30138 0.58791 0.11627 0.0
H2271 H 0.30175 0.79078 0.13481 0.0
H2272 H 0.30122 0.72892 0.11817 0.0
H2273 H 0.31154 0.63337 0.15717 0.0
H2274 H 0.30208 0.45614 0.11612 0.0
H2275 H 0.30123 0.51726 0.13356 0.0
C2276 C 0.44903 0.47925 0.64034 0.0
C2277 C 0.44793 0.47723 0.66179 0.0
C2278 C 0.45029 0.51423 0.63061 0.0
C2279 C 0.45643 0.61536 0.63992 0.0
H2280 H 0.44133 0.63162 0.59036 0.0
C2281 C 0.44819 0.76401 0.60684 0.0
C2282 C 0.44806 0.76837 0.58536 0.0
C2283 C 0.44944 0.72819 0.61565 0.0
C2284 C 0.44572 0.62741 0.60399 0.0
H2285 H 0.44753 0.51009 0.68995 0.0
H2286 H 0.44957 0.57131 0.67295 0.0
H2287 H 0.44122 0.56964 0.60676 0.0
H2288 H 0.44944 0.73886 0.55625 0.0
H2289 H 0.45166 0.67626 0.57164 0.0
H2290 H 0.46076 0.67354 0.63731 0.0
C2291 C 0.4496 0.54583 0.66365 0.0
C2292 C 0.44566 0.59182 0.61341 0.0
C2293 C 0.44837 0.51078 0.67339 0.0
C2294 C 0.44947 0.73635 0.57286 0.0
C2295 C 0.45069 0.70049 0.58167 0.0
C2296 C 0.45648 0.65103 0.6305 0.0
C2297 C 0.45042 0.54801 0.6421 0.0
C2298 C 0.45095 0.58542 0.63158 0.0
C2299 C 0.45055 0.69593 0.60316 0.0
C2300 C 0.45105 0.65753 0.61252 0.0
H2301 H 0.44879 0.45383 0.631 0.0
H2302 H 0.45107 0.51482 0.61404 0.0
H2303 H 0.4607 0.61123 0.65374 0.0
H2304 H 0.44713 0.78817 0.61688 0.0
H2305 H 0.4492 0.72561 0.63224 0.0
C2306 C 0.30124 0.97966 0.60691 0.0
C2307 C 0.30171 0.97763 0.58535 0.0
C2308 C 0.30084 0.01474 0.61684 0.0
C2309 C 0.29493 0.11568 0.60869 0.0
H2310 H 0.31107 0.13101 0.65688 0.0
C2311 C 0.3013 0.26352 0.64436 0.0
C2312 C 0.30168 0.26623 0.6659 0.0
C2313 C 0.30087 0.22812 0.63476 0.0
C2314 C 0.30641 0.12706 0.64362 0.0
H2315 H 0.30204 0.01071 0.55725 0.0
H2316 H 0.30139 0.07214 0.57462 0.0
H2317 H 0.31111 0.06971 0.63959 0.0
H2318 H 0.30177 0.23409 0.69432 0.0
H2319 H 0.30091 0.17218 0.67757 0.0
H2320 H 0.29024 0.17306 0.61271 0.0
C2321 C 0.30125 0.04655 0.58383 0.0
C2322 C 0.30645 0.09193 0.63369 0.0
C2323 C 0.30167 0.0114 0.57389 0.0
C2324 C 0.30152 0.23285 0.67768 0.0
C2325 C 0.30108 0.1974 0.66807 0.0
C2326 C 0.29488 0.15081 0.61865 0.0
C2327 C 0.30089 0.04859 0.60543 0.0
C2328 C 0.30074 0.08586 0.61608 0.0
C2329 C 0.30081 0.19462 0.64649 0.0
C2330 C 0.30064 0.15696 0.6362 0.0
H2331 H 0.30122 0.95411 0.61616 0.0
H2332 H 0.30044 0.01533 0.63347 0.0
H2333 H 0.29035 0.11172 0.59533 0.0
H2334 H 0.30143 0.28876 0.63487 0.0
H2335 H 0.3008 0.22701 0.61811 0.0
loop_
_geom_bond_atom_site_label_1
_geom_bond_atom_site_label_2
_geom_bond_distance
_geom_bond_site_symmetry_2
_ccdc_geom_bond_type
In0 O1 2.294 . S
In0 O2 2.326 . S
In0 O6 2.266 . S
In0 O7 2.326 . S
In0 O8 2.266 . S
In0 O9 2.326 . S
In0 O11 2.294 . S
In0 O12 2.326 . S
O1 In0 2.294 . S
O1 C10 1.240 . S
O2 In0 2.326 . S
O2 C10 1.252 . S
C3 O6 1.252 . S
C3 O7 1.260 . S
C4 O11 1.240 . S
C4 O12 1.252 . S
C5 O8 1.252 . S
C5 O9 1.260 . S
O6 In0 2.266 . S
O6 C3 1.252 . S
O7 In0 2.326 . S
O7 C3 1.260 . S
O8 In0 2.266 . S
O8 C5 1.252 . S
O9 In0 2.326 . S
O9 C5 1.260 . S
C10 O1 1.240 . S
C10 O2 1.252 . S
O11 In0 2.294 . S
O11 C4 1.240 . S
O12 In0 2.326 . S
O12 C4 1.252 . S
In13 O14 2.294 . S
In13 O15 2.326 . S
In13 O19 2.266 . S
In13 O20 2.326 . S
In13 O21 2.266 . S
In13 O22 2.326 . S
In13 O24 2.294 . S
In13 O25 2.326 . S
O14 In13 2.294 . S
O14 C23 1.240 . S
O15 In13 2.326 . S
O15 C23 1.252 . S
C16 O19 1.252 . S
C16 O20 1.260 . S
C17 O24 1.240 . S
C17 O25 1.252 . S
C18 O21 1.252 . S
C18 O22 1.260 . S
O19 In13 2.266 . S
O19 C16 1.252 . S
O20 In13 2.326 . S
O20 C16 1.260 . S
O21 In13 2.266 . S
O21 C18 1.252 . S
O22 In13 2.326 . S
O22 C18 1.260 . S
C23 O14 1.240 . S
C23 O15 1.252 . S
O24 In13 2.294 . S
O24 C17 1.240 . S
O25 In13 2.326 . S
O25 C17 1.252 . S
In26 O27 2.294 . S
In26 O28 2.326 . S
In26 O32 2.266 . S
In26 O33 2.326 . S
In26 O34 2.266 . S
In26 O35 2.326 . S
In26 O37 2.294 . S
In26 O38 2.326 . S
O27 In26 2.294 . S
O27 C36 1.240 . S
O28 In26 2.326 . S
O28 C36 1.252 . S
C29 O32 1.252 . S
C29 O33 1.260 . S
C30 O37 1.240 . S
C30 O38 1.252 . S
C31 O34 1.252 . S
C31 O35 1.260 . S
O32 In26 2.266 . S
O32 C29 1.252 . S
O33 In26 2.326 . S
O33 C29 1.260 . S
O34 In26 2.266 . S
O34 C31 1.252 . S
O35 In26 2.326 . S
O35 C31 1.260 . S
C36 O27 1.240 . S
C36 O28 1.252 . S
O37 In26 2.294 . S
O37 C30 1.240 . S
O38 In26 2.326 . S
O38 C30 1.252 . S
In39 O40 2.294 . S
In39 O41 2.326 . S
In39 O45 2.266 . S
In39 O46 2.326 . S
In39 O47 2.266 . S
In39 O48 2.326 . S
In39 O50 2.294 . S
In39 O51 2.326 . S
O40 In39 2.294 . S
O40 C49 1.240 . S
O41 In39 2.326 . S
O41 C49 1.252 . S
C42 O45 1.252 . S
C42 O46 1.260 . S
C43 O50 1.240 . S
C43 O51 1.252 . S
C44 O47 1.252 . S
C44 O48 1.260 . S
O45 In39 2.266 . S
O45 C42 1.252 . S
O46 In39 2.326 . S
O46 C42 1.260 . S
O47 In39 2.266 . S
O47 C44 1.252 . S
O48 In39 2.326 . S
O48 C44 1.260 . S
C49 O40 1.240 . S
C49 O41 1.252 . S
O50 In39 2.294 . S
O50 C43 1.240 . S
O51 In39 2.326 . S
O51 C43 1.252 . S
In52 O53 2.294 . S
In52 O54 2.326 . S
In52 O58 2.266 . S
In52 O59 2.326 . S
In52 O60 2.266 . S
In52 O61 2.326 . S
In52 O63 2.294 . S
In52 O64 2.326 . S
O53 In52 2.294 . S
O53 C62 1.240 . S
O54 In52 2.326 . S
O54 C62 1.252 . S
C55 O58 1.252 . S
C55 O59 1.260 . S
C56 O63 1.240 . S
C56 O64 1.252 . S
C57 O60 1.252 . S
C57 O61 1.260 . S
O58 In52 2.266 . S
O58 C55 1.252 . S
O59 In52 2.326 . S
O59 C55 1.260 . S
O60 In52 2.266 . S
O60 C57 1.252 . S
O61 In52 2.326 . S
O61 C57 1.260 . S
C62 O53 1.240 . S
C62 O54 1.252 . S
O63 In52 2.294 . S
O63 C56 1.240 . S
O64 In52 2.326 . S
O64 C56 1.252 . S
In65 O66 2.294 . S
In65 O67 2.326 . S
In65 O71 2.266 . S
In65 O72 2.326 . S
In65 O73 2.266 . S
In65 O74 2.326 . S
In65 O76 2.294 . S
In65 O77 2.326 . S
O66 In65 2.294 . S
O66 C75 1.240 . S
O67 In65 2.326 . S
O67 C75 1.252 . S
C68 O71 1.252 . S
C68 O72 1.260 . S
C69 O76 1.240 . S
C69 O77 1.252 . S
C70 O73 1.252 . S
C70 O74 1.260 . S
O71 In65 2.266 . S
O71 C68 1.252 . S
O72 In65 2.326 . S
O72 C68 1.260 . S
O73 In65 2.266 . S
O73 C70 1.252 . S
O74 In65 2.326 . S
O74 C70 1.260 . S
C75 O66 1.240 . S
C75 O67 1.252 . S
O76 In65 2.294 . S
O76 C69 1.240 . S
O77 In65 2.326 . S
O77 C69 1.252 . S
In78 O79 2.294 . S
In78 O80 2.326 . S
In78 O84 2.266 . S
In78 O85 2.326 . S
In78 O86 2.266 . S
In78 O87 2.326 . S
In78 O89 2.294 . S
In78 O90 2.326 . S
O79 In78 2.294 . S
O79 C88 1.240 . S
O80 In78 2.326 . S
O80 C88 1.252 . S
C81 O84 1.252 . S
C81 O85 1.260 . S
C82 O89 1.240 . S
C82 O90 1.252 . S
C83 O86 1.252 . S
C83 O87 1.260 . S
O84 In78 2.266 . S
O84 C81 1.252 . S
O85 In78 2.326 . S
O85 C81 1.260 . S
O86 In78 2.266 . S
O86 C83 1.252 . S
O87 In78 2.326 . S
O87 C83 1.260 . S
C88 O79 1.240 . S
C88 O80 1.252 . S
O89 In78 2.294 . S
O89 C82 1.240 . S
O90 In78 2.326 . S
O90 C82 1.252 . S
In91 O92 2.294 . S
In91 O93 2.326 . S
In91 O97 2.266 . S
In91 O98 2.326 . S
In91 O99 2.266 . S
In91 O100 2.326 . S
In91 O102 2.294 . S
In91 O103 2.326 . S
O92 In91 2.294 . S
O92 C101 1.240 . S
O93 In91 2.326 . S
O93 C101 1.252 . S
C94 O97 1.252 . S
C94 O98 1.260 . S
C95 O102 1.240 . S
C95 O103 1.252 . S
C96 O99 1.252 . S
C96 O100 1.260 . S
O97 In91 2.266 . S
O97 C94 1.252 . S
O98 In91 2.326 . S
O98 C94 1.260 . S
O99 In91 2.266 . S
O99 C96 1.252 . S
O100 In91 2.326 . S
O100 C96 1.260 . S
C101 O92 1.240 . S
C101 O93 1.252 . S
O102 In91 2.294 . S
O102 C95 1.240 . S
O103 In91 2.326 . S
O103 C95 1.252 . S
In104 O105 2.294 . S
In104 O106 2.326 . S
In104 O110 2.266 . S
In104 O111 2.326 . S
In104 O112 2.266 . S
In104 O113 2.326 . S
In104 O115 2.294 . S
In104 O116 2.326 . S
O105 In104 2.294 . S
O105 C114 1.240 . S
O106 In104 2.326 . S
O106 C114 1.252 . S
C107 O110 1.252 . S
C107 O111 1.260 . S
C108 O115 1.240 . S
C108 O116 1.252 . S
C109 O112 1.252 . S
C109 O113 1.260 . S
O110 In104 2.266 . S
O110 C107 1.252 . S
O111 In104 2.326 . S
O111 C107 1.260 . S
O112 In104 2.266 . S
O112 C109 1.252 . S
O113 In104 2.326 . S
O113 C109 1.260 . S
C114 O105 1.240 . S
C114 O106 1.252 . S
O115 In104 2.294 . S
O115 C108 1.240 . S
O116 In104 2.326 . S
O116 C108 1.252 . S
In117 O118 2.294 . S
In117 O119 2.326 . S
In117 O123 2.266 . S
In117 O124 2.326 . S
In117 O125 2.266 . S
In117 O126 2.326 . S
In117 O128 2.294 . S
In117 O129 2.326 . S
O118 In117 2.294 . S
O118 C127 1.240 . S
O119 In117 2.326 . S
O119 C127 1.252 . S
C120 O123 1.252 . S
C120 O124 1.260 . S
C121 O128 1.240 . S
C121 O129 1.252 . S
C122 O125 1.252 . S
C122 O126 1.260 . S
O123 In117 2.266 . S
O123 C120 1.252 . S
O124 In117 2.326 . S
O124 C120 1.260 . S
O125 In117 2.266 . S
O125 C122 1.252 . S
O126 In117 2.326 . S
O126 C122 1.260 . S
C127 O118 1.240 . S
C127 O119 1.252 . S
O128 In117 2.294 . S
O128 C121 1.240 . S
O129 In117 2.326 . S
O129 C121 1.252 . S
In130 O131 2.294 . S
In130 O132 2.326 . S
In130 O136 2.266 . S
In130 O137 2.326 . S
In130 O138 2.266 . S
In130 O139 2.326 . S
In130 O141 2.294 . S
In130 O142 2.326 . S
O131 In130 2.294 . S
O131 C140 1.240 . S
O132 In130 2.326 . S
O132 C140 1.252 . S
C133 O136 1.252 . S
C133 O137 1.260 . S
C134 O141 1.240 . S
C134 O142 1.252 . S
C135 O138 1.252 . S
C135 O139 1.260 . S
O136 In130 2.266 . S
O136 C133 1.252 . S
O137 In130 2.326 . S
O137 C133 1.260 . S
O138 In130 2.266 . S
O138 C135 1.252 . S
O139 In130 2.326 . S
O139 C135 1.260 . S
C140 O131 1.240 . S
C140 O132 1.252 . S
O141 In130 2.294 . S
O141 C134 1.240 . S
O142 In130 2.326 . S
O142 C134 1.252 . S
In143 O144 2.294 . S
In143 O145 2.326 . S
In143 O149 2.266 . S
In143 O150 2.326 . S
In143 O151 2.266 . S
In143 O152 2.326 . S
In143 O154 2.294 . S
In143 O155 2.326 . S
O144 In143 2.294 . S
O144 C153 1.240 . S
O145 In143 2.326 . S
O145 C153 1.252 . S
C146 O149 1.252 . S
C146 O150 1.260 . S
C147 O154 1.240 . S
C147 O155 1.252 . S
C148 O151 1.252 . S
C148 O152 1.260 . S
O149 In143 2.266 . S
O149 C146 1.252 . S
O150 In143 2.326 . S
O150 C146 1.260 . S
O151 In143 2.266 . S
O151 C148 1.252 . S
O152 In143 2.326 . S
O152 C148 1.260 . S
C153 O144 1.240 . S
C153 O145 1.252 . S
O154 In143 2.294 . S
O154 C147 1.240 . S
O155 In143 2.326 . S
O155 C147 1.252 . S
In156 O157 2.294 . S
In156 O158 2.326 . S
In156 O162 2.266 . S
In156 O163 2.326 . S
In156 O164 2.266 . S
In156 O165 2.326 . S
In156 O167 2.294 . S
In156 O168 2.326 . S
O157 In156 2.294 . S
O157 C166 1.240 . S
O158 In156 2.326 . S
O158 C166 1.252 . S
C159 O162 1.252 . S
C159 O163 1.260 . S
C160 O167 1.240 . S
C160 O168 1.252 . S
C161 O164 1.252 . S
C161 O165 1.260 . S
O162 In156 2.266 . S
O162 C159 1.252 . S
O163 In156 2.326 . S
O163 C159 1.260 . S
O164 In156 2.266 . S
O164 C161 1.252 . S
O165 In156 2.326 . S
O165 C161 1.260 . S
C166 O157 1.240 . S
C166 O158 1.252 . S
O167 In156 2.294 . S
O167 C160 1.240 . S
O168 In156 2.326 . S
O168 C160 1.252 . S
In169 O170 2.294 . S
In169 O171 2.326 . S
In169 O175 2.266 . S
In169 O176 2.326 . S
In169 O177 2.266 . S
In169 O178 2.326 . S
In169 O180 2.294 . S
In169 O181 2.326 . S
O170 In169 2.294 . S
O170 C179 1.240 . S
O171 In169 2.326 . S
O171 C179 1.252 . S
C172 O175 1.252 . S
C172 O176 1.260 . S
C173 O180 1.240 . S
C173 O181 1.252 . S
C174 O177 1.252 . S
C174 O178 1.260 . S
O175 In169 2.266 . S
O175 C172 1.252 . S
O176 In169 2.326 . S
O176 C172 1.260 . S
O177 In169 2.266 . S
O177 C174 1.252 . S
O178 In169 2.326 . S
O178 C174 1.260 . S
C179 O170 1.240 . S
C179 O171 1.252 . S
O180 In169 2.294 . S
O180 C173 1.240 . S
O181 In169 2.326 . S
O181 C173 1.252 . S
In182 O183 2.294 . S
In182 O184 2.326 . S
In182 O188 2.266 . S
In182 O189 2.326 . S
In182 O190 2.266 . S
In182 O191 2.326 . S
In182 O193 2.294 . S
In182 O194 2.326 . S
O183 In182 2.294 . S
O183 C192 1.240 . S
O184 In182 2.326 . S
O184 C192 1.252 . S
C185 O188 1.252 . S
C185 O189 1.260 . S
C186 O193 1.240 . S
C186 O194 1.252 . S
C187 O190 1.252 . S
C187 O191 1.260 . S
O188 In182 2.266 . S
O188 C185 1.252 . S
O189 In182 2.326 . S
O189 C185 1.260 . S
O190 In182 2.266 . S
O190 C187 1.252 . S
O191 In182 2.326 . S
O191 C187 1.260 . S
C192 O183 1.240 . S
C192 O184 1.252 . S
O193 In182 2.294 . S
O193 C186 1.240 . S
O194 In182 2.326 . S
O194 C186 1.252 . S
In195 O196 2.294 . S
In195 O197 2.326 . S
In195 O201 2.266 . S
In195 O202 2.326 . S
In195 O203 2.266 . S
In195 O204 2.326 . S
In195 O206 2.294 . S
In195 O207 2.326 . S
O196 In195 2.294 . S
O196 C205 1.240 . S
O197 In195 2.326 . S
O197 C205 1.252 . S
C198 O201 1.252 . S
C198 O202 1.260 . S
C199 O206 1.240 . S
C199 O207 1.252 . S
C200 O203 1.252 . S
C200 O204 1.260 . S
O201 In195 2.266 . S
O201 C198 1.252 . S
O202 In195 2.326 . S
O202 C198 1.260 . S
O203 In195 2.266 . S
O203 C200 1.252 . S
O204 In195 2.326 . S
O204 C200 1.260 . S
C205 O196 1.240 . S
C205 O197 1.252 . S
O206 In195 2.294 . S
O206 C199 1.240 . S
O207 In195 2.326 . S
O207 C199 1.252 . S
In208 O209 2.294 . S
In208 O210 2.326 . S
In208 O214 2.266 . S
In208 O215 2.326 . S
In208 O216 2.266 . S
In208 O217 2.326 . S
In208 O219 2.294 . S
In208 O220 2.326 . S
O209 In208 2.294 . S
O209 C218 1.240 . S
O210 In208 2.326 . S
O210 C218 1.252 . S
C211 O214 1.252 . S
C211 O215 1.260 . S
C212 O219 1.240 . S
C212 O220 1.252 . S
C213 O216 1.252 . S
C213 O217 1.260 . S
O214 In208 2.266 . S
O214 C211 1.252 . S
O215 In208 2.326 . S
O215 C211 1.260 . S
O216 In208 2.266 . S
O216 C213 1.252 . S
O217 In208 2.326 . S
O217 C213 1.260 . S
C218 O209 1.240 . S
C218 O210 1.252 . S
O219 In208 2.294 . S
O219 C212 1.240 . S
O220 In208 2.326 . S
O220 C212 1.252 . S
In221 O222 2.294 . S
In221 O223 2.326 . S
In221 O227 2.266 . S
In221 O228 2.326 . S
In221 O229 2.266 . S
In221 O230 2.326 . S
In221 O232 2.294 . S
In221 O233 2.326 . S
O222 In221 2.294 . S
O222 C231 1.240 . S
O223 In221 2.326 . S
O223 C231 1.252 . S
C224 O227 1.252 . S
C224 O228 1.260 . S
C225 O232 1.240 . S
C225 O233 1.252 . S
C226 O229 1.252 . S
C226 O230 1.260 . S
O227 In221 2.266 . S
O227 C224 1.252 . S
O228 In221 2.326 . S
O228 C224 1.260 . S
O229 In221 2.266 . S
O229 C226 1.252 . S
O230 In221 2.326 . S
O230 C226 1.260 . S
C231 O222 1.240 . S
C231 O223 1.252 . S
O232 In221 2.294 . S
O232 C225 1.240 . S
O233 In221 2.326 . S
O233 C225 1.252 . S
In234 O235 2.294 . S
In234 O236 2.326 . S
In234 O240 2.266 . S
In234 O241 2.326 . S
In234 O242 2.266 . S
In234 O243 2.326 . S
In234 O245 2.294 . S
In234 O246 2.326 . S
O235 In234 2.294 . S
O235 C244 1.240 . S
O236 In234 2.326 . S
O236 C244 1.252 . S
C237 O240 1.252 . S
C237 O241 1.260 . S
C238 O245 1.240 . S
C238 O246 1.252 . S
C239 O242 1.252 . S
C239 O243 1.260 . S
O240 In234 2.266 . S
O240 C237 1.252 . S
O241 In234 2.326 . S
O241 C237 1.260 . S
O242 In234 2.266 . S
O242 C239 1.252 . S
O243 In234 2.326 . S
O243 C239 1.260 . S
C244 O235 1.240 . S
C244 O236 1.252 . S
O245 In234 2.294 . S
O245 C238 1.240 . S
O246 In234 2.326 . S
O246 C238 1.252 . S
In247 O248 2.294 . S
In247 O249 2.326 . S
In247 O253 2.266 . S
In247 O254 2.326 . S
In247 O255 2.266 . S
In247 O256 2.326 . S
In247 O258 2.294 . S
In247 O259 2.326 . S
O248 In247 2.294 . S
O248 C257 1.240 . S
O249 In247 2.326 . S
O249 C257 1.252 . S
C250 O253 1.252 . S
C250 O254 1.260 . S
C251 O258 1.240 . S
C251 O259 1.252 . S
C252 O255 1.252 . S
C252 O256 1.260 . S
O253 In247 2.266 . S
O253 C250 1.252 . S
O254 In247 2.326 . S
O254 C250 1.260 . S
O255 In247 2.266 . S
O255 C252 1.252 . S
O256 In247 2.326 . S
O256 C252 1.260 . S
C257 O248 1.240 . S
C257 O249 1.252 . S
O258 In247 2.294 . S
O258 C251 1.240 . S
O259 In247 2.326 . S
O259 C251 1.252 . S
In260 O261 2.294 . S
In260 O262 2.326 . S
In260 O266 2.266 . S
In260 O267 2.326 . S
In260 O268 2.266 . S
In260 O269 2.326 . S
In260 O271 2.294 . S
In260 O272 2.326 . S
O261 In260 2.294 . S
O261 C270 1.240 . S
O262 In260 2.326 . S
O262 C270 1.252 . S
C263 O266 1.252 . S
C263 O267 1.260 . S
C264 O271 1.240 . S
C264 O272 1.252 . S
C265 O268 1.252 . S
C265 O269 1.260 . S
O266 In260 2.266 . S
O266 C263 1.252 . S
O267 In260 2.326 . S
O267 C263 1.260 . S
O268 In260 2.266 . S
O268 C265 1.252 . S
O269 In260 2.326 . S
O269 C265 1.260 . S
C270 O261 1.240 . S
C270 O262 1.252 . S
O271 In260 2.294 . S
O271 C264 1.240 . S
O272 In260 2.326 . S
O272 C264 1.252 . S
In273 O274 2.294 . S
In273 O275 2.326 . S
In273 O279 2.266 . S
In273 O280 2.326 . S
In273 O281 2.266 . S
In273 O282 2.326 . S
In273 O284 2.294 . S
In273 O285 2.326 . S
O274 In273 2.294 . S
O274 C283 1.240 . S
O275 In273 2.326 . S
O275 C283 1.252 . S
C276 O279 1.252 . S
C276 O280 1.260 . S
C277 O284 1.240 . S
C277 O285 1.252 . S
C278 O281 1.252 . S
C278 O282 1.260 . S
O279 In273 2.266 . S
O279 C276 1.252 . S
O280 In273 2.326 . S
O280 C276 1.260 . S
O281 In273 2.266 . S
O281 C278 1.252 . S
O282 In273 2.326 . S
O282 C278 1.260 . S
C283 O274 1.240 . S
C283 O275 1.252 . S
O284 In273 2.294 . S
O284 C277 1.240 . S
O285 In273 2.326 . S
O285 C277 1.252 . S
In286 O287 2.294 . S
In286 O288 2.326 . S
In286 O292 2.266 . S
In286 O293 2.326 . S
In286 O294 2.266 . S
In286 O295 2.326 . S
In286 O297 2.294 . S
In286 O298 2.326 . S
O287 In286 2.294 . S
O287 C296 1.240 . S
O288 In286 2.326 . S
O288 C296 1.252 . S
C289 O292 1.252 . S
C289 O293 1.260 . S
C290 O297 1.240 . S
C290 O298 1.252 . S
C291 O294 1.252 . S
C291 O295 1.260 . S
O292 In286 2.266 . S
O292 C289 1.252 . S
O293 In286 2.326 . S
O293 C289 1.260 . S
O294 In286 2.266 . S
O294 C291 1.252 . S
O295 In286 2.326 . S
O295 C291 1.260 . S
C296 O287 1.240 . S
C296 O288 1.252 . S
O297 In286 2.294 . S
O297 C290 1.240 . S
O298 In286 2.326 . S
O298 C290 1.252 . S
In299 O300 2.294 . S
In299 O301 2.326 . S
In299 O305 2.266 . S
In299 O306 2.326 . S
In299 O307 2.266 . S
In299 O308 2.326 . S
In299 O310 2.294 . S
In299 O311 2.326 . S
O300 In299 2.294 . S
O300 C309 1.240 . S
O301 In299 2.326 . S
O301 C309 1.252 . S
C302 O305 1.252 . S
C302 O306 1.260 . S
C303 O310 1.240 . S
C303 O311 1.252 . S
C304 O307 1.252 . S
C304 O308 1.260 . S
O305 In299 2.266 . S
O305 C302 1.252 . S
O306 In299 2.326 . S
O306 C302 1.260 . S
O307 In299 2.266 . S
O307 C304 1.252 . S
O308 In299 2.326 . S
O308 C304 1.260 . S
C309 O300 1.240 . S
C309 O301 1.252 . S
O310 In299 2.294 . S
O310 C303 1.240 . S
O311 In299 2.326 . S
O311 C303 1.252 . S
In312 O313 2.294 . S
In312 O314 2.326 . S
In312 O318 2.266 . S
In312 O319 2.326 . S
In312 O320 2.266 . S
In312 O321 2.326 . S
In312 O323 2.294 . S
In312 O324 2.326 . S
O313 In312 2.294 . S
O313 C322 1.240 . S
O314 In312 2.326 . S
O314 C322 1.252 . S
C315 O318 1.252 . S
C315 O319 1.260 . S
C316 O323 1.240 . S
C316 O324 1.252 . S
C317 O320 1.252 . S
C317 O321 1.260 . S
O318 In312 2.266 . S
O318 C315 1.252 . S
O319 In312 2.326 . S
O319 C315 1.260 . S
O320 In312 2.266 . S
O320 C317 1.252 . S
O321 In312 2.326 . S
O321 C317 1.260 . S
C322 O313 1.240 . S
C322 O314 1.252 . S
O323 In312 2.294 . S
O323 C316 1.240 . S
O324 In312 2.326 . S
O324 C316 1.252 . S
In325 O326 2.294 . S
In325 O327 2.326 . S
In325 O331 2.266 . S
In325 O332 2.326 . S
In325 O333 2.266 . S
In325 O334 2.326 . S
In325 O336 2.294 . S
In325 O337 2.326 . S
O326 In325 2.294 . S
O326 C335 1.240 . S
O327 In325 2.326 . S
O327 C335 1.252 . S
C328 O331 1.252 . S
C328 O332 1.260 . S
C329 O336 1.240 . S
C329 O337 1.252 . S
C330 O333 1.252 . S
C330 O334 1.260 . S
O331 In325 2.266 . S
O331 C328 1.252 . S
O332 In325 2.326 . S
O332 C328 1.260 . S
O333 In325 2.266 . S
O333 C330 1.252 . S
O334 In325 2.326 . S
O334 C330 1.260 . S
C335 O326 1.240 . S
C335 O327 1.252 . S
O336 In325 2.294 . S
O336 C329 1.240 . S
O337 In325 2.326 . S
O337 C329 1.252 . S
In338 O339 2.294 . S
In338 O340 2.326 . S
In338 O344 2.266 . S
In338 O345 2.326 . S
In338 O346 2.266 . S
In338 O347 2.326 . S
In338 O349 2.294 . S
In338 O350 2.326 . S
O339 In338 2.294 . S
O339 C348 1.240 . S
O340 In338 2.326 . S
O340 C348 1.252 . S
C341 O344 1.252 . S
C341 O345 1.260 . S
C342 O349 1.240 . S
C342 O350 1.252 . S
C343 O346 1.252 . S
C343 O347 1.260 . S
O344 In338 2.266 . S
O344 C341 1.252 . S
O345 In338 2.326 . S
O345 C341 1.260 . S
O346 In338 2.266 . S
O346 C343 1.252 . S
O347 In338 2.326 . S
O347 C343 1.260 . S
C348 O339 1.240 . S
C348 O340 1.252 . S
O349 In338 2.294 . S
O349 C342 1.240 . S
O350 In338 2.326 . S
O350 C342 1.252 . S
In351 O352 2.294 . S
In351 O353 2.326 . S
In351 O357 2.266 . S
In351 O358 2.326 . S
In351 O359 2.266 . S
In351 O360 2.326 . S
In351 O362 2.294 . S
In351 O363 2.326 . S
O352 In351 2.294 . S
O352 C361 1.240 . S
O353 In351 2.326 . S
O353 C361 1.252 . S
C354 O357 1.252 . S
C354 O358 1.260 . S
C355 O362 1.240 . S
C355 O363 1.252 . S
C356 O359 1.252 . S
C356 O360 1.260 . S
O357 In351 2.266 . S
O357 C354 1.252 . S
O358 In351 2.326 . S
O358 C354 1.260 . S
O359 In351 2.266 . S
O359 C356 1.252 . S
O360 In351 2.326 . S
O360 C356 1.260 . S
C361 O352 1.240 . S
C361 O353 1.252 . S
O362 In351 2.294 . S
O362 C355 1.240 . S
O363 In351 2.326 . S
O363 C355 1.252 . S
In364 O365 2.294 . S
In364 O366 2.326 . S
In364 O370 2.266 . S
In364 O371 2.326 . S
In364 O372 2.266 . S
In364 O373 2.326 . S
In364 O375 2.294 . S
In364 O376 2.326 . S
O365 In364 2.294 . S
O365 C374 1.240 . S
O366 In364 2.326 . S
O366 C374 1.252 . S
C367 O370 1.252 . S
C367 O371 1.260 . S
C368 O375 1.240 . S
C368 O376 1.252 . S
C369 O372 1.252 . S
C369 O373 1.260 . S
O370 In364 2.266 . S
O370 C367 1.252 . S
O371 In364 2.326 . S
O371 C367 1.260 . S
O372 In364 2.266 . S
O372 C369 1.252 . S
O373 In364 2.326 . S
O373 C369 1.260 . S
C374 O365 1.240 . S
C374 O366 1.252 . S
O375 In364 2.294 . S
O375 C368 1.240 . S
O376 In364 2.326 . S
O376 C368 1.252 . S
In377 O378 2.294 . S
In377 O379 2.326 . S
In377 O383 2.266 . S
In377 O384 2.326 . S
In377 O385 2.266 . S
In377 O386 2.326 . S
In377 O388 2.294 . S
In377 O389 2.326 . S
O378 In377 2.294 . S
O378 C387 1.240 . S
O379 In377 2.326 . S
O379 C387 1.252 . S
C380 O383 1.252 . S
C380 O384 1.260 . S
C381 O388 1.240 . S
C381 O389 1.252 . S
C382 O385 1.252 . S
C382 O386 1.260 . S
O383 In377 2.266 . S
O383 C380 1.252 . S
O384 In377 2.326 . S
O384 C380 1.260 . S
O385 In377 2.266 . S
O385 C382 1.252 . S
O386 In377 2.326 . S
O386 C382 1.260 . S
C387 O378 1.240 . S
C387 O379 1.252 . S
O388 In377 2.294 . S
O388 C381 1.240 . S
O389 In377 2.326 . S
O389 C381 1.252 . S
In390 O391 2.294 . S
In390 O392 2.326 . S
In390 O396 2.266 . S
In390 O397 2.326 . S
In390 O398 2.266 . S
In390 O399 2.326 . S
In390 O401 2.294 . S
In390 O402 2.326 . S
O391 In390 2.294 . S
O391 C400 1.240 . S
O392 In390 2.326 . S
O392 C400 1.252 . S
C393 O396 1.252 . S
C393 O397 1.260 . S
C394 O401 1.240 . S
C394 O402 1.252 . S
C395 O398 1.252 . S
C395 O399 1.260 . S
O396 In390 2.266 . S
O396 C393 1.252 . S
O397 In390 2.326 . S
O397 C393 1.260 . S
O398 In390 2.266 . S
O398 C395 1.252 . S
O399 In390 2.326 . S
O399 C395 1.260 . S
C400 O391 1.240 . S
C400 O392 1.252 . S
O401 In390 2.294 . S
O401 C394 1.240 . S
O402 In390 2.326 . S
O402 C394 1.252 . S
In403 O404 2.294 . S
In403 O405 2.326 . S
In403 O409 2.266 . S
In403 O410 2.326 . S
In403 O411 2.266 . S
In403 O412 2.326 . S
In403 O414 2.294 . S
In403 O415 2.326 . S
O404 In403 2.294 . S
O404 C413 1.240 . S
O405 In403 2.326 . S
O405 C413 1.252 . S
C406 O409 1.252 . S
C406 O410 1.260 . S
C407 O414 1.240 . S
C407 O415 1.252 . S
C408 O411 1.252 . S
C408 O412 1.260 . S
O409 In403 2.266 . S
O409 C406 1.252 . S
O410 In403 2.326 . S
O410 C406 1.260 . S
O411 In403 2.266 . S
O411 C408 1.252 . S
O412 In403 2.326 . S
O412 C408 1.260 . S
C413 O404 1.240 . S
C413 O405 1.252 . S
O414 In403 2.294 . S
O414 C407 1.240 . S
O415 In403 2.326 . S
O415 C407 1.252 . S
C416 C417 1.349 . S
C416 C418 1.327 . S
C416 H441 0.950 . S
C417 C416 1.349 . S
C417 C433 1.349 . S
C418 C416 1.327 . S
C418 C437 1.429 . S
C418 H442 0.950 . S
C419 C436 1.574 . S
C419 C438 1.368 . S
C419 H443 0.949 . S
H420 C424 0.949 . S
C421 C422 1.349 . S
C421 C423 1.327 . S
C421 H444 0.950 . S
C422 C421 1.349 . S
C422 C434 1.349 . S
C423 C421 1.327 . S
C423 C439 1.429 . S
C423 H445 0.950 . S
C424 H420 0.949 . S
C424 C432 1.574 . S
C424 C440 1.368 . S
H425 C433 0.950 . S
H426 C431 0.950 . S
H427 C432 0.949 . S
H428 C434 0.950 . S
H429 C435 0.950 . S
H430 C436 0.949 . S
C431 H426 0.950 . S
C431 C433 1.327 . S
C431 C437 1.429 . S
C432 C424 1.574 . S
C432 H427 0.949 . S
C432 C438 1.368 . S
C433 C417 1.349 . S
C433 H425 0.950 . S
C433 C431 1.327 . S
C434 C422 1.349 . S
C434 H428 0.950 . S
C434 C435 1.327 . S
C435 H429 0.950 . S
C435 C434 1.327 . S
C435 C439 1.429 . S
C436 C419 1.574 . S
C436 H430 0.949 . S
C436 C440 1.368 . S
C437 C418 1.429 . S
C437 C431 1.429 . S
C437 C438 1.523 . S
C438 C419 1.368 . S
C438 C432 1.368 . S
C438 C437 1.523 . S
C439 C423 1.429 . S
C439 C435 1.429 . S
C439 C440 1.523 . S
C440 C424 1.368 . S
C440 C436 1.368 . S
C440 C439 1.523 . S
H441 C416 0.950 . S
H442 C418 0.950 . S
H443 C419 0.949 . S
H444 C421 0.950 . S
H445 C423 0.950 . S
C446 C447 1.349 . S
C446 C448 1.327 . S
C446 H471 0.950 . S
C447 C446 1.349 . S
C447 C463 1.349 . S
C448 C446 1.327 . S
C448 C467 1.429 . S
C448 H472 0.950 . S
C449 C466 1.574 . S
C449 C468 1.368 . S
C449 H473 0.949 . S
H450 C454 0.949 . S
C451 C452 1.349 . S
C451 C453 1.327 . S
C451 H474 0.950 . S
C452 C451 1.349 . S
C452 C464 1.349 . S
C453 C451 1.327 . S
C453 C469 1.429 . S
C453 H475 0.950 . S
C454 H450 0.949 . S
C454 C462 1.574 . S
C454 C470 1.368 . S
H455 C463 0.950 . S
H456 C461 0.950 . S
H457 C462 0.949 . S
H458 C464 0.950 . S
H459 C465 0.950 . S
H460 C466 0.949 . S
C461 H456 0.950 . S
C461 C463 1.327 . S
C461 C467 1.429 . S
C462 C454 1.574 . S
C462 H457 0.949 . S
C462 C468 1.368 . S
C463 C447 1.349 . S
C463 H455 0.950 . S
C463 C461 1.327 . S
C464 C452 1.349 . S
C464 H458 0.950 . S
C464 C465 1.327 . S
C465 H459 0.950 . S
C465 C464 1.327 . S
C465 C469 1.429 . S
C466 C449 1.574 . S
C466 H460 0.949 . S
C466 C470 1.368 . S
C467 C448 1.429 . S
C467 C461 1.429 . S
C467 C468 1.523 . S
C468 C449 1.368 . S
C468 C462 1.368 . S
C468 C467 1.523 . S
C469 C453 1.429 . S
C469 C465 1.429 . S
C469 C470 1.523 . S
C470 C454 1.368 . S
C470 C466 1.368 . S
C470 C469 1.523 . S
H471 C446 0.950 . S
H472 C448 0.950 . S
H473 C449 0.949 . S
H474 C451 0.950 . S
H475 C453 0.950 . S
C476 C477 1.349 . S
C476 C478 1.327 . S
C476 H501 0.950 . S
C477 C476 1.349 . S
C477 C493 1.349 . S
C478 C476 1.327 . S
C478 C497 1.429 . S
C478 H502 0.950 . S
C479 C496 1.574 . S
C479 C498 1.368 . S
C479 H503 0.949 . S
H480 C484 0.949 . S
C481 C482 1.349 . S
C481 C483 1.327 . S
C481 H504 0.950 . S
C482 C481 1.349 . S
C482 C494 1.349 . S
C483 C481 1.327 . S
C483 C499 1.429 . S
C483 H505 0.950 . S
C484 H480 0.949 . S
C484 C492 1.574 . S
C484 C500 1.368 . S
H485 C493 0.950 . S
H486 C491 0.950 . S
H487 C492 0.949 . S
H488 C494 0.950 . S
H489 C495 0.950 . S
H490 C496 0.949 . S
C491 H486 0.950 . S
C491 C493 1.327 . S
C491 C497 1.429 . S
C492 C484 1.574 . S
C492 H487 0.949 . S
C492 C498 1.368 . S
C493 C477 1.349 . S
C493 H485 0.950 . S
C493 C491 1.327 . S
C494 C482 1.349 . S
C494 H488 0.950 . S
C494 C495 1.327 . S
C495 H489 0.950 . S
C495 C494 1.327 . S
C495 C499 1.429 . S
C496 C479 1.574 . S
C496 H490 0.949 . S
C496 C500 1.368 . S
C497 C478 1.429 . S
C497 C491 1.429 . S
C497 C498 1.523 . S
C498 C479 1.368 . S
C498 C492 1.368 . S
C498 C497 1.523 . S
C499 C483 1.429 . S
C499 C495 1.429 . S
C499 C500 1.523 . S
C500 C484 1.368 . S
C500 C496 1.368 . S
C500 C499 1.523 . S
H501 C476 0.950 . S
H502 C478 0.950 . S
H503 C479 0.949 . S
H504 C481 0.950 . S
H505 C483 0.950 . S
C506 C507 1.349 . S
C506 C508 1.327 . S
C506 H531 0.950 . S
C507 C506 1.349 . S
C507 C523 1.349 . S
C508 C506 1.327 . S
C508 C527 1.429 . S
C508 H532 0.950 . S
C509 C526 1.574 . S
C509 C528 1.368 . S
C509 H533 0.949 . S
H510 C514 0.949 . S
C511 C512 1.349 . S
C511 C513 1.327 . S
C511 H534 0.950 . S
C512 C511 1.349 . S
C512 C524 1.349 . S
C513 C511 1.327 . S
C513 C529 1.429 . S
C513 H535 0.950 . S
C514 H510 0.949 . S
C514 C522 1.574 . S
C514 C530 1.368 . S
H515 C523 0.950 . S
H516 C521 0.950 . S
H517 C522 0.949 . S
H518 C524 0.950 . S
H519 C525 0.950 . S
H520 C526 0.949 . S
C521 H516 0.950 . S
C521 C523 1.327 . S
C521 C527 1.429 . S
C522 C514 1.574 . S
C522 H517 0.949 . S
C522 C528 1.368 . S
C523 C507 1.349 . S
C523 H515 0.950 . S
C523 C521 1.327 . S
C524 C512 1.349 . S
C524 H518 0.950 . S
C524 C525 1.327 . S
C525 H519 0.950 . S
C525 C524 1.327 . S
C525 C529 1.429 . S
C526 C509 1.574 . S
C526 H520 0.949 . S
C526 C530 1.368 . S
C527 C508 1.429 . S
C527 C521 1.429 . S
C527 C528 1.523 . S
C528 C509 1.368 . S
C528 C522 1.368 . S
C528 C527 1.523 . S
C529 C513 1.429 . S
C529 C525 1.429 . S
C529 C530 1.523 . S
C530 C514 1.368 . S
C530 C526 1.368 . S
C530 C529 1.523 . S
H531 C506 0.950 . S
H532 C508 0.950 . S
H533 C509 0.949 . S
H534 C511 0.950 . S
H535 C513 0.950 . S
C536 C537 1.349 . S
C536 C538 1.327 . S
C536 H561 0.950 . S
C537 C536 1.349 . S
C537 C553 1.349 . S
C538 C536 1.327 . S
C538 C557 1.429 . S
C538 H562 0.950 . S
C539 C556 1.574 . S
C539 C558 1.368 . S
C539 H563 0.949 . S
H540 C544 0.949 . S
C541 C542 1.349 . S
C541 C543 1.327 . S
C541 H564 0.950 . S
C542 C541 1.349 . S
C542 C554 1.349 . S
C543 C541 1.327 . S
C543 C559 1.429 . S
C543 H565 0.950 . S
C544 H540 0.949 . S
C544 C552 1.574 . S
C544 C560 1.368 . S
H545 C553 0.950 . S
H546 C551 0.950 . S
H547 C552 0.949 . S
H548 C554 0.950 . S
H549 C555 0.950 . S
H550 C556 0.949 . S
C551 H546 0.950 . S
C551 C553 1.327 . S
C551 C557 1.429 . S
C552 C544 1.574 . S
C552 H547 0.949 . S
C552 C558 1.368 . S
C553 C537 1.349 . S
C553 H545 0.950 . S
C553 C551 1.327 . S
C554 C542 1.349 . S
C554 H548 0.950 . S
C554 C555 1.327 . S
C555 H549 0.950 . S
C555 C554 1.327 . S
C555 C559 1.429 . S
C556 C539 1.574 . S
C556 H550 0.949 . S
C556 C560 1.368 . S
C557 C538 1.429 . S
C557 C551 1.429 . S
C557 C558 1.523 . S
C558 C539 1.368 . S
C558 C552 1.368 . S
C558 C557 1.523 . S
C559 C543 1.429 . S
C559 C555 1.429 . S
C559 C560 1.523 . S
C560 C544 1.368 . S
C560 C556 1.368 . S
C560 C559 1.523 . S
H561 C536 0.950 . S
H562 C538 0.950 . S
H563 C539 0.949 . S
H564 C541 0.950 . S
H565 C543 0.950 . S
C566 C567 1.349 . S
C566 C568 1.327 . S
C566 H591 0.950 . S
C567 C566 1.349 . S
C567 C583 1.349 . S
C568 C566 1.327 . S
C568 C587 1.429 . S
C568 H592 0.950 . S
C569 C586 1.574 . S
C569 C588 1.368 . S
C569 H593 0.949 . S
H570 C574 0.949 . S
C571 C572 1.349 . S
C571 C573 1.327 . S
C571 H594 0.950 . S
C572 C571 1.349 . S
C572 C584 1.349 . S
C573 C571 1.327 . S
C573 C589 1.429 . S
C573 H595 0.950 . S
C574 H570 0.949 . S
C574 C582 1.574 . S
C574 C590 1.368 . S
H575 C583 0.950 . S
H576 C581 0.950 . S
H577 C582 0.949 . S
H578 C584 0.950 . S
H579 C585 0.950 . S
H580 C586 0.949 . S
C581 H576 0.950 . S
C581 C583 1.327 . S
C581 C587 1.429 . S
C582 C574 1.574 . S
C582 H577 0.949 . S
C582 C588 1.368 . S
C583 C567 1.349 . S
C583 H575 0.950 . S
C583 C581 1.327 . S
C584 C572 1.349 . S
C584 H578 0.950 . S
C584 C585 1.327 . S
C585 H579 0.950 . S
C585 C584 1.327 . S
C585 C589 1.429 . S
C586 C569 1.574 . S
C586 H580 0.949 . S
C586 C590 1.368 . S
C587 C568 1.429 . S
C587 C581 1.429 . S
C587 C588 1.523 . S
C588 C569 1.368 . S
C588 C582 1.368 . S
C588 C587 1.523 . S
C589 C573 1.429 . S
C589 C585 1.429 . S
C589 C590 1.523 . S
C590 C574 1.368 . S
C590 C586 1.368 . S
C590 C589 1.523 . S
H591 C566 0.950 . S
H592 C568 0.950 . S
H593 C569 0.949 . S
H594 C571 0.950 . S
H595 C573 0.950 . S
C596 C597 1.349 . S
C596 C598 1.327 . S
C596 H621 0.950 . S
C597 C596 1.349 . S
C597 C613 1.349 . S
C598 C596 1.327 . S
C598 C617 1.429 . S
C598 H622 0.950 . S
C599 C616 1.574 . S
C599 C618 1.368 . S
C599 H623 0.949 . S
H600 C604 0.949 . S
C601 C602 1.349 . S
C601 C603 1.327 . S
C601 H624 0.950 . S
C602 C601 1.349 . S
C602 C614 1.349 . S
C603 C601 1.327 . S
C603 C619 1.429 . S
C603 H625 0.950 . S
C604 H600 0.949 . S
C604 C612 1.574 . S
C604 C620 1.368 . S
H605 C613 0.950 . S
H606 C611 0.950 . S
H607 C612 0.949 . S
H608 C614 0.950 . S
H609 C615 0.950 . S
H610 C616 0.949 . S
C611 H606 0.950 . S
C611 C613 1.327 . S
C611 C617 1.429 . S
C612 C604 1.574 . S
C612 H607 0.949 . S
C612 C618 1.368 . S
C613 C597 1.349 . S
C613 H605 0.950 . S
C613 C611 1.327 . S
C614 C602 1.349 . S
C614 H608 0.950 . S
C614 C615 1.327 . S
C615 H609 0.950 . S
C615 C614 1.327 . S
C615 C619 1.429 . S
C616 C599 1.574 . S
C616 H610 0.949 . S
C616 C620 1.368 . S
C617 C598 1.429 . S
C617 C611 1.429 . S
C617 C618 1.523 . S
C618 C599 1.368 . S
C618 C612 1.368 . S
C618 C617 1.523 . S
C619 C603 1.429 . S
C619 C615 1.429 . S
C619 C620 1.523 . S
C620 C604 1.368 . S
C620 C616 1.368 . S
C620 C619 1.523 . S
H621 C596 0.950 . S
H622 C598 0.950 . S
H623 C599 0.949 . S
H624 C601 0.950 . S
H625 C603 0.950 . S
C626 C627 1.349 . S
C626 C628 1.327 . S
C626 H651 0.950 . S
C627 C626 1.349 . S
C627 C643 1.349 . S
C628 C626 1.327 . S
C628 C647 1.429 . S
C628 H652 0.950 . S
C629 C646 1.574 . S
C629 C648 1.368 . S
C629 H653 0.949 . S
H630 C634 0.949 . S
C631 C632 1.349 . S
C631 C633 1.327 . S
C631 H654 0.950 . S
C632 C631 1.349 . S
C632 C644 1.349 . S
C633 C631 1.327 . S
C633 C649 1.429 . S
C633 H655 0.950 . S
C634 H630 0.949 . S
C634 C642 1.574 . S
C634 C650 1.368 . S
H635 C643 0.950 . S
H636 C641 0.950 . S
H637 C642 0.949 . S
H638 C644 0.950 . S
H639 C645 0.950 . S
H640 C646 0.949 . S
C641 H636 0.950 . S
C641 C643 1.327 . S
C641 C647 1.429 . S
C642 C634 1.574 . S
C642 H637 0.949 . S
C642 C648 1.368 . S
C643 C627 1.349 . S
C643 H635 0.950 . S
C643 C641 1.327 . S
C644 C632 1.349 . S
C644 H638 0.950 . S
C644 C645 1.327 . S
C645 H639 0.950 . S
C645 C644 1.327 . S
C645 C649 1.429 . S
C646 C629 1.574 . S
C646 H640 0.949 . S
C646 C650 1.368 . S
C647 C628 1.429 . S
C647 C641 1.429 . S
C647 C648 1.523 . S
C648 C629 1.368 . S
C648 C642 1.368 . S
C648 C647 1.523 . S
C649 C633 1.429 . S
C649 C645 1.429 . S
C649 C650 1.523 . S
C650 C634 1.368 . S
C650 C646 1.368 . S
C650 C649 1.523 . S
H651 C626 0.950 . S
H652 C628 0.950 . S
H653 C629 0.949 . S
H654 C631 0.950 . S
H655 C633 0.950 . S
C656 C657 1.349 . S
C656 C658 1.327 . S
C656 H681 0.950 . S
C657 C656 1.349 . S
C657 C673 1.349 . S
C658 C656 1.327 . S
C658 C677 1.429 . S
C658 H682 0.950 . S
C659 C676 1.574 . S
C659 C678 1.368 . S
C659 H683 0.949 . S
H660 C664 0.949 . S
C661 C662 1.349 . S
C661 C663 1.327 . S
C661 H684 0.950 . S
C662 C661 1.349 . S
C662 C674 1.349 . S
C663 C661 1.327 . S
C663 C679 1.429 . S
C663 H685 0.950 . S
C664 H660 0.949 . S
C664 C672 1.574 . S
C664 C680 1.368 . S
H665 C673 0.950 . S
H666 C671 0.950 . S
H667 C672 0.949 . S
H668 C674 0.950 . S
H669 C675 0.950 . S
H670 C676 0.949 . S
C671 H666 0.950 . S
C671 C673 1.327 . S
C671 C677 1.429 . S
C672 C664 1.574 . S
C672 H667 0.949 . S
C672 C678 1.368 . S
C673 C657 1.349 . S
C673 H665 0.950 . S
C673 C671 1.327 . S
C674 C662 1.349 . S
C674 H668 0.950 . S
C674 C675 1.327 . S
C675 H669 0.950 . S
C675 C674 1.327 . S
C675 C679 1.429 . S
C676 C659 1.574 . S
C676 H670 0.949 . S
C676 C680 1.368 . S
C677 C658 1.429 . S
C677 C671 1.429 . S
C677 C678 1.523 . S
C678 C659 1.368 . S
C678 C672 1.368 . S
C678 C677 1.523 . S
C679 C663 1.429 . S
C679 C675 1.429 . S
C679 C680 1.523 . S
C680 C664 1.368 . S
C680 C676 1.368 . S
C680 C679 1.523 . S
H681 C656 0.950 . S
H682 C658 0.950 . S
H683 C659 0.949 . S
H684 C661 0.950 . S
H685 C663 0.950 . S
C686 C687 1.349 . S
C686 C688 1.327 . S
C686 H711 0.950 . S
C687 C686 1.349 . S
C687 C703 1.349 . S
C688 C686 1.327 . S
C688 C707 1.429 . S
C688 H712 0.950 . S
C689 C706 1.574 . S
C689 C708 1.368 . S
C689 H713 0.949 . S
H690 C694 0.949 . S
C691 C692 1.349 . S
C691 C693 1.327 . S
C691 H714 0.950 . S
C692 C691 1.349 . S
C692 C704 1.349 . S
C693 C691 1.327 . S
C693 C709 1.429 . S
C693 H715 0.950 . S
C694 H690 0.949 . S
C694 C702 1.574 . S
C694 C710 1.368 . S
H695 C703 0.950 . S
H696 C701 0.950 . S
H697 C702 0.949 . S
H698 C704 0.950 . S
H699 C705 0.950 . S
H700 C706 0.949 . S
C701 H696 0.950 . S
C701 C703 1.327 . S
C701 C707 1.429 . S
C702 C694 1.574 . S
C702 H697 0.949 . S
C702 C708 1.368 . S
C703 C687 1.349 . S
C703 H695 0.950 . S
C703 C701 1.327 . S
C704 C692 1.349 . S
C704 H698 0.950 . S
C704 C705 1.327 . S
C705 H699 0.950 . S
C705 C704 1.327 . S
C705 C709 1.429 . S
C706 C689 1.574 . S
C706 H700 0.949 . S
C706 C710 1.368 . S
C707 C688 1.429 . S
C707 C701 1.429 . S
C707 C708 1.523 . S
C708 C689 1.368 . S
C708 C702 1.368 . S
C708 C707 1.523 . S
C709 C693 1.429 . S
C709 C705 1.429 . S
C709 C710 1.523 . S
C710 C694 1.368 . S
C710 C706 1.368 . S
C710 C709 1.523 . S
H711 C686 0.950 . S
H712 C688 0.950 . S
H713 C689 0.949 . S
H714 C691 0.950 . S
H715 C693 0.950 . S
C716 C717 1.349 . S
C716 C718 1.327 . S
C716 H741 0.950 . S
C717 C716 1.349 . S
C717 C733 1.349 . S
C718 C716 1.327 . S
C718 C737 1.429 . S
C718 H742 0.950 . S
C719 C736 1.574 . S
C719 C738 1.368 . S
C719 H743 0.949 . S
H720 C724 0.949 . S
C721 C722 1.349 . S
C721 C723 1.327 . S
C721 H744 0.950 . S
C722 C721 1.349 . S
C722 C734 1.349 . S
C723 C721 1.327 . S
C723 C739 1.429 . S
C723 H745 0.950 . S
C724 H720 0.949 . S
C724 C732 1.574 . S
C724 C740 1.368 . S
H725 C733 0.950 . S
H726 C731 0.950 . S
H727 C732 0.949 . S
H728 C734 0.950 . S
H729 C735 0.950 . S
H730 C736 0.949 . S
C731 H726 0.950 . S
C731 C733 1.327 . S
C731 C737 1.429 . S
C732 C724 1.574 . S
C732 H727 0.949 . S
C732 C738 1.368 . S
C733 C717 1.349 . S
C733 H725 0.950 . S
C733 C731 1.327 . S
C734 C722 1.349 . S
C734 H728 0.950 . S
C734 C735 1.327 . S
C735 H729 0.950 . S
C735 C734 1.327 . S
C735 C739 1.429 . S
C736 C719 1.574 . S
C736 H730 0.949 . S
C736 C740 1.368 . S
C737 C718 1.429 . S
C737 C731 1.429 . S
C737 C738 1.523 . S
C738 C719 1.368 . S
C738 C732 1.368 . S
C738 C737 1.523 . S
C739 C723 1.429 . S
C739 C735 1.429 . S
C739 C740 1.523 . S
C740 C724 1.368 . S
C740 C736 1.368 . S
C740 C739 1.523 . S
H741 C716 0.950 . S
H742 C718 0.950 . S
H743 C719 0.949 . S
H744 C721 0.950 . S
H745 C723 0.950 . S
C746 C747 1.349 . S
C746 C748 1.327 . S
C746 H771 0.950 . S
C747 C746 1.349 . S
C747 C763 1.349 . S
C748 C746 1.327 . S
C748 C767 1.429 . S
C748 H772 0.950 . S
C749 C766 1.574 . S
C749 C768 1.368 . S
C749 H773 0.949 . S
H750 C754 0.949 . S
C751 C752 1.349 . S
C751 C753 1.327 . S
C751 H774 0.950 . S
C752 C751 1.349 . S
C752 C764 1.349 . S
C753 C751 1.327 . S
C753 C769 1.429 . S
C753 H775 0.950 . S
C754 H750 0.949 . S
C754 C762 1.574 . S
C754 C770 1.368 . S
H755 C763 0.950 . S
H756 C761 0.950 . S
H757 C762 0.949 . S
H758 C764 0.950 . S
H759 C765 0.950 . S
H760 C766 0.949 . S
C761 H756 0.950 . S
C761 C763 1.327 . S
C761 C767 1.429 . S
C762 C754 1.574 . S
C762 H757 0.949 . S
C762 C768 1.368 . S
C763 C747 1.349 . S
C763 H755 0.950 . S
C763 C761 1.327 . S
C764 C752 1.349 . S
C764 H758 0.950 . S
C764 C765 1.327 . S
C765 H759 0.950 . S
C765 C764 1.327 . S
C765 C769 1.429 . S
C766 C749 1.574 . S
C766 H760 0.949 . S
C766 C770 1.368 . S
C767 C748 1.429 . S
C767 C761 1.429 . S
C767 C768 1.523 . S
C768 C749 1.368 . S
C768 C762 1.368 . S
C768 C767 1.523 . S
C769 C753 1.429 . S
C769 C765 1.429 . S
C769 C770 1.523 . S
C770 C754 1.368 . S
C770 C766 1.368 . S
C770 C769 1.523 . S
H771 C746 0.950 . S
H772 C748 0.950 . S
H773 C749 0.949 . S
H774 C751 0.950 . S
H775 C753 0.950 . S
C776 C777 1.349 . S
C776 C778 1.327 . S
C776 H801 0.950 . S
C777 C776 1.349 . S
C777 C793 1.349 . S
C778 C776 1.327 . S
C778 C797 1.429 . S
C778 H802 0.950 . S
C779 C796 1.574 . S
C779 C798 1.368 . S
C779 H803 0.949 . S
H780 C784 0.949 . S
C781 C782 1.349 . S
C781 C783 1.327 . S
C781 H804 0.950 . S
C782 C781 1.349 . S
C782 C794 1.349 . S
C783 C781 1.327 . S
C783 C799 1.429 . S
C783 H805 0.950 . S
C784 H780 0.949 . S
C784 C792 1.574 . S
C784 C800 1.368 . S
H785 C793 0.950 . S
H786 C791 0.950 . S
H787 C792 0.949 . S
H788 C794 0.950 . S
H789 C795 0.950 . S
H790 C796 0.949 . S
C791 H786 0.950 . S
C791 C793 1.327 . S
C791 C797 1.429 . S
C792 C784 1.574 . S
C792 H787 0.949 . S
C792 C798 1.368 . S
C793 C777 1.349 . S
C793 H785 0.950 . S
C793 C791 1.327 . S
C794 C782 1.349 . S
C794 H788 0.950 . S
C794 C795 1.327 . S
C795 H789 0.950 . S
C795 C794 1.327 . S
C795 C799 1.429 . S
C796 C779 1.574 . S
C796 H790 0.949 . S
C796 C800 1.368 . S
C797 C778 1.429 . S
C797 C791 1.429 . S
C797 C798 1.523 . S
C798 C779 1.368 . S
C798 C792 1.368 . S
C798 C797 1.523 . S
C799 C783 1.429 . S
C799 C795 1.429 . S
C799 C800 1.523 . S
C800 C784 1.368 . S
C800 C796 1.368 . S
C800 C799 1.523 . S
H801 C776 0.950 . S
H802 C778 0.950 . S
H803 C779 0.949 . S
H804 C781 0.950 . S
H805 C783 0.950 . S
C806 C807 1.349 . S
C806 C808 1.327 . S
C806 H831 0.950 . S
C807 C806 1.349 . S
C807 C823 1.349 . S
C808 C806 1.327 . S
C808 C827 1.429 . S
C808 H832 0.950 . S
C809 C826 1.574 . S
C809 C828 1.368 . S
C809 H833 0.949 . S
H810 C814 0.949 . S
C811 C812 1.349 . S
C811 C813 1.327 . S
C811 H834 0.950 . S
C812 C811 1.349 . S
C812 C824 1.349 . S
C813 C811 1.327 . S
C813 C829 1.429 . S
C813 H835 0.950 . S
C814 H810 0.949 . S
C814 C822 1.574 . S
C814 C830 1.368 . S
H815 C823 0.950 . S
H816 C821 0.950 . S
H817 C822 0.949 . S
H818 C824 0.950 . S
H819 C825 0.950 . S
H820 C826 0.949 . S
C821 H816 0.950 . S
C821 C823 1.327 . S
C821 C827 1.429 . S
C822 C814 1.574 . S
C822 H817 0.949 . S
C822 C828 1.368 . S
C823 C807 1.349 . S
C823 H815 0.950 . S
C823 C821 1.327 . S
C824 C812 1.349 . S
C824 H818 0.950 . S
C824 C825 1.327 . S
C825 H819 0.950 . S
C825 C824 1.327 . S
C825 C829 1.429 . S
C826 C809 1.574 . S
C826 H820 0.949 . S
C826 C830 1.368 . S
C827 C808 1.429 . S
C827 C821 1.429 . S
C827 C828 1.523 . S
C828 C809 1.368 . S
C828 C822 1.368 . S
C828 C827 1.523 . S
C829 C813 1.429 . S
C829 C825 1.429 . S
C829 C830 1.523 . S
C830 C814 1.368 . S
C830 C826 1.368 . S
C830 C829 1.523 . S
H831 C806 0.950 . S
H832 C808 0.950 . S
H833 C809 0.949 . S
H834 C811 0.950 . S
H835 C813 0.950 . S
C836 C837 1.349 . S
C836 C838 1.327 . S
C836 H861 0.950 . S
C837 C836 1.349 . S
C837 C853 1.349 . S
C838 C836 1.327 . S
C838 C857 1.429 . S
C838 H862 0.950 . S
C839 C856 1.574 . S
C839 C858 1.368 . S
C839 H863 0.949 . S
H840 C844 0.949 . S
C841 C842 1.349 . S
C841 C843 1.327 . S
C841 H864 0.950 . S
C842 C841 1.349 . S
C842 C854 1.349 . S
C843 C841 1.327 . S
C843 C859 1.429 . S
C843 H865 0.950 . S
C844 H840 0.949 . S
C844 C852 1.574 . S
C844 C860 1.368 . S
H845 C853 0.950 . S
H846 C851 0.950 . S
H847 C852 0.949 . S
H848 C854 0.950 . S
H849 C855 0.950 . S
H850 C856 0.949 . S
C851 H846 0.950 . S
C851 C853 1.327 . S
C851 C857 1.429 . S
C852 C844 1.574 . S
C852 H847 0.949 . S
C852 C858 1.368 . S
C853 C837 1.349 . S
C853 H845 0.950 . S
C853 C851 1.327 . S
C854 C842 1.349 . S
C854 H848 0.950 . S
C854 C855 1.327 . S
C855 H849 0.950 . S
C855 C854 1.327 . S
C855 C859 1.429 . S
C856 C839 1.574 . S
C856 H850 0.949 . S
C856 C860 1.368 . S
C857 C838 1.429 . S
C857 C851 1.429 . S
C857 C858 1.523 . S
C858 C839 1.368 . S
C858 C852 1.368 . S
C858 C857 1.523 . S
C859 C843 1.429 . S
C859 C855 1.429 . S
C859 C860 1.523 . S
C860 C844 1.368 . S
C860 C856 1.368 . S
C860 C859 1.523 . S
H861 C836 0.950 . S
H862 C838 0.950 . S
H863 C839 0.949 . S
H864 C841 0.950 . S
H865 C843 0.950 . S
C866 C867 1.349 . S
C866 C868 1.327 . S
C866 H891 0.950 . S
C867 C866 1.349 . S
C867 C883 1.349 . S
C868 C866 1.327 . S
C868 C887 1.429 . S
C868 H892 0.950 . S
C869 C886 1.574 . S
C869 C888 1.368 . S
C869 H893 0.949 . S
H870 C874 0.949 . S
C871 C872 1.349 . S
C871 C873 1.327 . S
C871 H894 0.950 . S
C872 C871 1.349 . S
C872 C884 1.349 . S
C873 C871 1.327 . S
C873 C889 1.429 . S
C873 H895 0.950 . S
C874 H870 0.949 . S
C874 C882 1.574 . S
C874 C890 1.368 . S
H875 C883 0.950 . S
H876 C881 0.950 . S
H877 C882 0.949 . S
H878 C884 0.950 . S
H879 C885 0.950 . S
H880 C886 0.949 . S
C881 H876 0.950 . S
C881 C883 1.327 . S
C881 C887 1.429 . S
C882 C874 1.574 . S
C882 H877 0.949 . S
C882 C888 1.368 . S
C883 C867 1.349 . S
C883 H875 0.950 . S
C883 C881 1.327 . S
C884 C872 1.349 . S
C884 H878 0.950 . S
C884 C885 1.327 . S
C885 H879 0.950 . S
C885 C884 1.327 . S
C885 C889 1.429 . S
C886 C869 1.574 . S
C886 H880 0.949 . S
C886 C890 1.368 . S
C887 C868 1.429 . S
C887 C881 1.429 . S
C887 C888 1.523 . S
C888 C869 1.368 . S
C888 C882 1.368 . S
C888 C887 1.523 . S
C889 C873 1.429 . S
C889 C885 1.429 . S
C889 C890 1.523 . S
C890 C874 1.368 . S
C890 C886 1.368 . S
C890 C889 1.523 . S
H891 C866 0.950 . S
H892 C868 0.950 . S
H893 C869 0.949 . S
H894 C871 0.950 . S
H895 C873 0.950 . S
C896 C897 1.349 . S
C896 C898 1.327 . S
C896 H921 0.950 . S
C897 C896 1.349 . S
C897 C913 1.349 . S
C898 C896 1.327 . S
C898 C917 1.429 . S
C898 H922 0.950 . S
C899 C916 1.574 1_455 S
C899 C918 1.368 . S
C899 H923 0.949 . S
H900 C904 0.949 . S
C901 C902 1.349 . S
C901 C903 1.327 . S
C901 H924 0.950 . S
C902 C901 1.349 . S
C902 C914 1.349 . S
C903 C901 1.327 . S
C903 C919 1.429 . S
C903 H925 0.950 . S
C904 H900 0.949 . S
C904 C912 1.574 1_655 S
C904 C920 1.368 . S
H905 C913 0.950 . S
H906 C911 0.950 . S
H907 C912 0.949 . S
H908 C914 0.950 . S
H909 C915 0.950 . S
H910 C916 0.949 . S
C911 H906 0.950 . S
C911 C913 1.327 . S
C911 C917 1.429 . S
C912 C904 1.574 1_455 S
C912 H907 0.949 . S
C912 C918 1.368 . S
C913 C897 1.349 . S
C913 H905 0.950 . S
C913 C911 1.327 . S
C914 C902 1.349 . S
C914 H908 0.950 . S
C914 C915 1.327 . S
C915 H909 0.950 . S
C915 C914 1.327 . S
C915 C919 1.429 . S
C916 C899 1.574 1_655 S
C916 H910 0.949 . S
C916 C920 1.368 . S
C917 C898 1.429 . S
C917 C911 1.429 . S
C917 C918 1.523 . S
C918 C899 1.368 . S
C918 C912 1.368 . S
C918 C917 1.523 . S
C919 C903 1.429 . S
C919 C915 1.429 . S
C919 C920 1.523 . S
C920 C904 1.368 . S
C920 C916 1.368 . S
C920 C919 1.523 . S
H921 C896 0.950 . S
H922 C898 0.950 . S
H923 C899 0.949 . S
H924 C901 0.950 . S
H925 C903 0.950 . S
C926 C927 1.349 . S
C926 C928 1.327 . S
C926 H951 0.950 . S
C927 C926 1.349 . S
C927 C943 1.349 . S
C928 C926 1.327 . S
C928 C947 1.429 . S
C928 H952 0.950 . S
C929 C946 1.574 . S
C929 C948 1.368 1_565 S
C929 H953 0.949 . S
H930 C934 0.949 . S
C931 C932 1.349 . S
C931 C933 1.327 . S
C931 H954 0.950 . S
C932 C931 1.349 . S
C932 C944 1.349 . S
C933 C931 1.327 . S
C933 C949 1.429 . S
C933 H955 0.950 . S
C934 H930 0.949 . S
C934 C942 1.574 . S
C934 C950 1.368 1_545 S
H935 C943 0.950 . S
H936 C941 0.950 . S
H937 C942 0.949 . S
H938 C944 0.950 . S
H939 C945 0.950 . S
H940 C946 0.949 . S
C941 H936 0.950 . S
C941 C943 1.327 . S
C941 C947 1.429 . S
C942 C934 1.574 . S
C942 H937 0.949 . S
C942 C948 1.368 . S
C943 C927 1.349 . S
C943 H935 0.950 . S
C943 C941 1.327 . S
C944 C932 1.349 . S
C944 H938 0.950 . S
C944 C945 1.327 . S
C945 H939 0.950 . S
C945 C944 1.327 . S
C945 C949 1.429 . S
C946 C929 1.574 . S
C946 H940 0.949 . S
C946 C950 1.368 . S
C947 C928 1.429 . S
C947 C941 1.429 . S
C947 C948 1.523 . S
C948 C929 1.368 1_545 S
C948 C942 1.368 . S
C948 C947 1.523 . S
C949 C933 1.429 . S
C949 C945 1.429 . S
C949 C950 1.523 . S
C950 C934 1.368 1_565 S
C950 C946 1.368 . S
C950 C949 1.523 . S
H951 C926 0.950 . S
H952 C928 0.950 . S
H953 C929 0.949 . S
H954 C931 0.950 . S
H955 C933 0.950 . S
C956 C957 1.349 . S
C956 C958 1.327 . S
C956 H981 0.950 . S
C957 C956 1.349 . S
C957 C973 1.349 . S
C958 C956 1.327 . S
C958 C977 1.429 . S
C958 H982 0.950 1_545 S
C959 C976 1.574 1_455 S
C959 C978 1.368 1_554 S
C959 H983 0.949 . S
H960 C964 0.949 . S
C961 C962 1.349 . S
C961 C963 1.327 . S
C961 H984 0.950 . S
C962 C961 1.349 . S
C962 C974 1.349 . S
C963 C961 1.327 . S
C963 C979 1.429 . S
C963 H985 0.950 1_565 S
C964 H960 0.949 . S
C964 C972 1.574 1_655 S
C964 C980 1.368 1_556 S
H965 C973 0.950 . S
H966 C971 0.950 . S
H967 C972 0.949 . S
H968 C974 0.950 . S
H969 C975 0.950 . S
H970 C976 0.949 . S
C971 H966 0.950 . S
C971 C973 1.327 . S
C971 C977 1.429 . S
C972 C964 1.574 1_455 S
C972 H967 0.949 . S
C972 C978 1.368 1_565 S
C973 C957 1.349 . S
C973 H965 0.950 . S
C973 C971 1.327 . S
C974 C962 1.349 . S
C974 H968 0.950 . S
C974 C975 1.327 . S
C975 H969 0.950 . S
C975 C974 1.327 . S
C975 C979 1.429 . S
C976 C959 1.574 1_655 S
C976 H970 0.949 . S
C976 C980 1.368 1_545 S
C977 C958 1.429 . S
C977 C971 1.429 . S
C977 C978 1.523 . S
C978 C959 1.368 1_556 S
C978 C972 1.368 1_545 S
C978 C977 1.523 . S
C979 C963 1.429 . S
C979 C975 1.429 . S
C979 C980 1.523 . S
C980 C964 1.368 1_554 S
C980 C976 1.368 1_565 S
C980 C979 1.523 . S
H981 C956 0.950 . S
H982 C958 0.950 1_565 S
H983 C959 0.949 . S
H984 C961 0.950 . S
H985 C963 0.950 1_545 S
C986 C987 1.349 . S
C986 C988 1.327 . S
C986 H1011 0.950 . S
C987 C986 1.349 . S
C987 C1003 1.349 . S
C988 C986 1.327 . S
C988 C1007 1.429 . S
C988 H1012 0.950 1_556 S
C989 C1006 1.574 . S
C989 C1008 1.368 . S
C989 H1013 0.949 . S
H990 C994 0.949 . S
C991 C992 1.349 . S
C991 C993 1.327 . S
C991 H1014 0.950 . S
C992 C991 1.349 . S
C992 C1004 1.349 . S
C993 C991 1.327 . S
C993 C1009 1.429 . S
C993 H1015 0.950 1_554 S
C994 H990 0.949 . S
C994 C1002 1.574 . S
C994 C1010 1.368 . S
H995 C1003 0.950 . S
H996 C1001 0.950 . S
H997 C1002 0.949 . S
H998 C1004 0.950 . S
H999 C1005 0.950 . S
H1000 C1006 0.949 . S
C1001 H996 0.950 . S
C1001 C1003 1.327 . S
C1001 C1007 1.429 . S
C1002 C994 1.574 . S
C1002 H997 0.949 . S
C1002 C1008 1.368 1_554 S
C1003 C987 1.349 . S
C1003 H995 0.950 . S
C1003 C1001 1.327 . S
C1004 C992 1.349 . S
C1004 H998 0.950 . S
C1004 C1005 1.327 . S
C1005 H999 0.950 . S
C1005 C1004 1.327 . S
C1005 C1009 1.429 . S
C1006 C989 1.574 . S
C1006 H1000 0.949 . S
C1006 C1010 1.368 1_556 S
C1007 C988 1.429 . S
C1007 C1001 1.429 . S
C1007 C1008 1.523 . S
C1008 C989 1.368 . S
C1008 C1002 1.368 1_556 S
C1008 C1007 1.523 . S
C1009 C993 1.429 . S
C1009 C1005 1.429 . S
C1009 C1010 1.523 . S
C1010 C994 1.368 . S
C1010 C1006 1.368 1_554 S
C1010 C1009 1.523 . S
H1011 C986 0.950 . S
H1012 C988 0.950 1_554 S
H1013 C989 0.949 . S
H1014 C991 0.950 . S
H1015 C993 0.950 1_556 S
C1016 C1017 1.349 . S
C1016 C1018 1.327 . S
C1016 H1041 0.950 . S
C1017 C1016 1.349 . S
C1017 C1033 1.349 . S
C1018 C1016 1.327 . S
C1018 C1037 1.429 . S
C1018 H1042 0.950 . S
C1019 C1036 1.649 . S
C1019 C1038 1.290 1_455 S
C1019 H1043 0.959 . S
H1020 C1024 0.959 . S
C1021 C1022 1.349 . S
C1021 C1023 1.327 . S
C1021 H1044 0.950 . S
C1022 C1021 1.349 . S
C1022 C1034 1.349 . S
C1023 C1021 1.327 . S
C1023 C1039 1.429 . S
C1023 H1045 0.950 . S
C1024 H1020 0.959 . S
C1024 C1032 1.649 . S
C1024 C1040 1.290 1_655 S
H1025 C1033 0.950 . S
H1026 C1031 0.950 . S
H1027 C1032 0.949 . S
H1028 C1034 0.950 . S
H1029 C1035 0.950 . S
H1030 C1036 0.949 . S
C1031 H1026 0.950 . S
C1031 C1033 1.327 . S
C1031 C1037 1.429 . S
C1032 C1024 1.649 . S
C1032 H1027 0.949 . S
C1032 C1038 1.368 . S
C1033 C1017 1.349 . S
C1033 H1025 0.950 . S
C1033 C1031 1.327 . S
C1034 C1022 1.349 . S
C1034 H1028 0.950 . S
C1034 C1035 1.327 . S
C1035 H1029 0.950 . S
C1035 C1034 1.327 . S
C1035 C1039 1.429 . S
C1036 C1019 1.649 . S
C1036 H1030 0.949 . S
C1036 C1040 1.368 . S
C1037 C1018 1.429 . S
C1037 C1031 1.429 . S
C1037 C1038 1.523 . S
C1038 C1019 1.290 1_655 S
C1038 C1032 1.368 . S
C1038 C1037 1.523 . S
C1039 C1023 1.429 . S
C1039 C1035 1.429 . S
C1039 C1040 1.523 . S
C1040 C1024 1.290 1_455 S
C1040 C1036 1.368 . S
C1040 C1039 1.523 . S
H1041 C1016 0.950 . S
H1042 C1018 0.950 . S
H1043 C1019 0.959 . S
H1044 C1021 0.950 . S
H1045 C1023 0.950 . S
C1046 C1047 1.349 . S
C1046 C1048 1.327 . S
C1046 H1071 0.950 . S
C1047 C1046 1.349 . S
C1047 C1063 1.349 . S
C1048 C1046 1.327 . S
C1048 C1067 1.429 . S
C1048 H1072 0.950 . S
C1049 C1066 1.574 . S
C1049 C1068 1.368 1_565 S
C1049 H1073 0.949 . S
H1050 C1054 0.949 . S
C1051 C1052 1.349 . S
C1051 C1053 1.327 . S
C1051 H1074 0.950 . S
C1052 C1051 1.349 . S
C1052 C1064 1.349 . S
C1053 C1051 1.327 . S
C1053 C1069 1.429 . S
C1053 H1075 0.950 . S
C1054 H1050 0.949 . S
C1054 C1062 1.574 . S
C1054 C1070 1.368 1_545 S
H1055 C1063 0.950 . S
H1056 C1061 0.963 . S
H1057 C1062 0.949 . S
H1058 C1064 0.950 . S
H1059 C1065 0.963 . S
H1060 C1066 0.949 . S
C1061 H1056 0.963 . S
C1061 C1063 1.327 . S
C1061 C1067 1.429 . S
C1062 C1054 1.574 . S
C1062 H1057 0.949 . S
C1062 C1068 1.368 . S
C1063 C1047 1.349 . S
C1063 H1055 0.950 . S
C1063 C1061 1.327 . S
C1064 C1052 1.349 . S
C1064 H1058 0.950 . S
C1064 C1065 1.327 . S
C1065 H1059 0.963 . S
C1065 C1064 1.327 . S
C1065 C1069 1.429 . S
C1066 C1049 1.574 . S
C1066 H1060 0.949 . S
C1066 C1070 1.368 . S
C1067 C1048 1.429 . S
C1067 C1061 1.429 . S
C1067 C1068 1.523 . S
C1068 C1049 1.368 1_545 S
C1068 C1062 1.368 . S
C1068 C1067 1.523 . S
C1069 C1053 1.429 . S
C1069 C1065 1.429 . S
C1069 C1070 1.523 . S
C1070 C1054 1.368 1_565 S
C1070 C1066 1.368 . S
C1070 C1069 1.523 . S
H1071 C1046 0.950 . S
H1072 C1048 0.950 . S
H1073 C1049 0.949 . S
H1074 C1051 0.950 . S
H1075 C1053 0.950 . S
C1076 C1077 1.349 . S
C1076 C1078 1.327 . S
C1076 H1101 0.950 . S
C1077 C1076 1.349 . S
C1077 C1093 1.349 . S
C1078 C1076 1.327 . S
C1078 C1097 1.429 . S
C1078 H1102 0.950 . S
C1079 C1096 1.574 1_556 S
C1079 C1098 1.368 . S
C1079 H1103 0.949 . S
H1080 C1084 0.949 . S
C1081 C1082 1.349 . S
C1081 C1083 1.327 . S
C1081 H1104 0.950 . S
C1082 C1081 1.349 . S
C1082 C1094 1.349 . S
C1083 C1081 1.327 . S
C1083 C1099 1.429 . S
C1083 H1105 0.950 . S
C1084 H1080 0.949 . S
C1084 C1092 1.574 1_554 S
C1084 C1100 1.368 . S
H1085 C1093 0.950 . S
H1086 C1091 0.950 . S
H1087 C1092 0.949 . S
H1088 C1094 0.950 . S
H1089 C1095 0.950 . S
H1090 C1096 0.949 . S
C1091 H1086 0.950 . S
C1091 C1093 1.327 . S
C1091 C1097 1.429 . S
C1092 C1084 1.574 1_556 S
C1092 H1087 0.949 . S
C1092 C1098 1.368 . S
C1093 C1077 1.349 . S
C1093 H1085 0.950 . S
C1093 C1091 1.327 . S
C1094 C1082 1.349 . S
C1094 H1088 0.950 . S
C1094 C1095 1.327 . S
C1095 H1089 0.950 . S
C1095 C1094 1.327 . S
C1095 C1099 1.429 . S
C1096 C1079 1.574 1_554 S
C1096 H1090 0.949 . S
C1096 C1100 1.368 . S
C1097 C1078 1.429 . S
C1097 C1091 1.429 . S
C1097 C1098 1.523 . S
C1098 C1079 1.368 . S
C1098 C1092 1.368 . S
C1098 C1097 1.523 . S
C1099 C1083 1.429 . S
C1099 C1095 1.429 . S
C1099 C1100 1.523 . S
C1100 C1084 1.368 . S
C1100 C1096 1.368 . S
C1100 C1099 1.523 . S
H1101 C1076 0.950 . S
H1102 C1078 0.950 . S
H1103 C1079 0.949 . S
H1104 C1081 0.950 . S
H1105 C1083 0.950 . S
C1106 C1107 1.349 . S
C1106 C1108 1.327 . S
C1106 H1131 0.950 . S
C1107 C1106 1.349 . S
C1107 C1123 1.349 . S
C1108 C1106 1.327 . S
C1108 C1127 1.429 . S
C1108 H1132 0.950 . S
C1109 C1126 1.574 . S
C1109 C1128 1.368 . S
C1109 H1133 0.949 . S
H1110 C1114 0.949 . S
C1111 C1112 1.349 . S
C1111 C1113 1.327 . S
C1111 H1134 0.950 . S
C1112 C1111 1.349 . S
C1112 C1124 1.349 . S
C1113 C1111 1.327 . S
C1113 C1129 1.429 . S
C1113 H1135 0.950 . S
C1114 H1110 0.949 . S
C1114 C1122 1.574 . S
C1114 C1130 1.368 . S
H1115 C1123 0.950 . S
H1116 C1121 0.950 . S
H1117 C1122 0.949 . S
H1118 C1124 0.950 . S
H1119 C1125 0.950 . S
H1120 C1126 0.949 . S
C1121 H1116 0.950 . S
C1121 C1123 1.327 . S
C1121 C1127 1.429 . S
C1122 C1114 1.574 . S
C1122 H1117 0.949 . S
C1122 C1128 1.368 . S
C1123 C1107 1.349 . S
C1123 H1115 0.950 . S
C1123 C1121 1.327 . S
C1124 C1112 1.349 . S
C1124 H1118 0.950 . S
C1124 C1125 1.327 . S
C1125 H1119 0.950 . S
C1125 C1124 1.327 . S
C1125 C1129 1.429 . S
C1126 C1109 1.574 . S
C1126 H1120 0.949 . S
C1126 C1130 1.368 . S
C1127 C1108 1.429 . S
C1127 C1121 1.429 . S
C1127 C1128 1.523 . S
C1128 C1109 1.368 . S
C1128 C1122 1.368 . S
C1128 C1127 1.523 . S
C1129 C1113 1.429 . S
C1129 C1125 1.429 . S
C1129 C1130 1.523 . S
C1130 C1114 1.368 . S
C1130 C1126 1.368 . S
C1130 C1129 1.523 . S
H1131 C1106 0.950 . S
H1132 C1108 0.950 . S
H1133 C1109 0.949 . S
H1134 C1111 0.950 . S
H1135 C1113 0.950 . S
C1136 C1137 1.349 . S
C1136 C1138 1.327 . S
C1136 H1161 0.950 . S
C1137 C1136 1.349 . S
C1137 C1153 1.349 . S
C1138 C1136 1.327 . S
C1138 C1157 1.429 . S
C1138 H1162 0.950 . S
C1139 C1156 1.561 1_455 S
C1139 C1158 1.368 . S
C1139 H1163 0.949 . S
H1140 C1144 0.949 . S
C1141 C1142 1.349 . S
C1141 C1143 1.327 . S
C1141 H1164 0.950 . S
C1142 C1141 1.349 . S
C1142 C1154 1.349 . S
C1143 C1141 1.327 . S
C1143 C1159 1.429 . S
C1143 H1165 0.950 . S
C1144 H1140 0.949 . S
C1144 C1152 1.561 1_655 S
C1144 C1160 1.368 . S
H1145 C1153 0.950 . S
H1146 C1151 0.950 . S
H1147 C1152 0.948 . S
H1148 C1154 0.950 . S
H1149 C1155 0.950 . S
H1150 C1156 0.948 . S
C1151 H1146 0.950 . S
C1151 C1153 1.327 . S
C1151 C1157 1.429 . S
C1152 C1144 1.561 1_455 S
C1152 H1147 0.948 . S
C1152 C1158 1.380 . S
C1153 C1137 1.349 . S
C1153 H1145 0.950 . S
C1153 C1151 1.327 . S
C1154 C1142 1.349 . S
C1154 H1148 0.950 . S
C1154 C1155 1.327 . S
C1155 H1149 0.950 . S
C1155 C1154 1.327 . S
C1155 C1159 1.429 . S
C1156 C1139 1.561 1_655 S
C1156 H1150 0.948 . S
C1156 C1160 1.380 . S
C1157 C1138 1.429 . S
C1157 C1151 1.429 . S
C1157 C1158 1.523 . S
C1158 C1139 1.368 . S
C1158 C1152 1.380 . S
C1158 C1157 1.523 . S
C1159 C1143 1.429 . S
C1159 C1155 1.429 . S
C1159 C1160 1.523 . S
C1160 C1144 1.368 . S
C1160 C1156 1.380 . S
C1160 C1159 1.523 . S
H1161 C1136 0.950 . S
H1162 C1138 0.950 . S
H1163 C1139 0.949 . S
H1164 C1141 0.950 . S
H1165 C1143 0.950 . S
C1166 C1167 1.349 . S
C1166 C1168 1.327 . S
C1166 H1191 0.950 . S
C1167 C1166 1.349 . S
C1167 C1183 1.349 . S
C1168 C1166 1.327 . S
C1168 C1187 1.429 . S
C1168 H1192 0.950 . S
C1169 C1186 1.574 . S
C1169 C1188 1.368 . S
C1169 H1193 0.949 . S
H1170 C1174 0.949 . S
C1171 C1172 1.349 . S
C1171 C1173 1.327 . S
C1171 H1194 0.950 . S
C1172 C1171 1.349 . S
C1172 C1184 1.349 . S
C1173 C1171 1.327 . S
C1173 C1189 1.429 . S
C1173 H1195 0.950 . S
C1174 H1170 0.949 . S
C1174 C1182 1.574 . S
C1174 C1190 1.368 . S
H1175 C1183 0.950 . S
H1176 C1181 0.950 . S
H1177 C1182 0.949 . S
H1178 C1184 0.950 . S
H1179 C1185 0.950 . S
H1180 C1186 0.949 . S
C1181 H1176 0.950 . S
C1181 C1183 1.327 . S
C1181 C1187 1.429 . S
C1182 C1174 1.574 . S
C1182 H1177 0.949 . S
C1182 C1188 1.368 . S
C1183 C1167 1.349 . S
C1183 H1175 0.950 . S
C1183 C1181 1.327 . S
C1184 C1172 1.349 . S
C1184 H1178 0.950 . S
C1184 C1185 1.327 . S
C1185 H1179 0.950 . S
C1185 C1184 1.327 . S
C1185 C1189 1.429 . S
C1186 C1169 1.574 . S
C1186 H1180 0.949 . S
C1186 C1190 1.368 . S
C1187 C1168 1.429 . S
C1187 C1181 1.429 . S
C1187 C1188 1.523 . S
C1188 C1169 1.368 . S
C1188 C1182 1.368 . S
C1188 C1187 1.523 . S
C1189 C1173 1.429 . S
C1189 C1185 1.429 . S
C1189 C1190 1.523 . S
C1190 C1174 1.368 . S
C1190 C1186 1.368 . S
C1190 C1189 1.523 . S
H1191 C1166 0.950 . S
H1192 C1168 0.950 . S
H1193 C1169 0.949 . S
H1194 C1171 0.950 . S
H1195 C1173 0.950 . S
C1196 C1197 1.349 . S
C1196 C1198 1.327 . S
C1196 H1221 0.950 . S
C1197 C1196 1.349 . S
C1197 C1213 1.349 . S
C1198 C1196 1.327 . S
C1198 C1217 1.429 . S
C1198 H1222 0.950 . S
C1199 C1216 1.574 . S
C1199 C1218 1.368 . S
C1199 H1223 0.949 . S
H1200 C1204 0.949 . S
C1201 C1202 1.349 . S
C1201 C1203 1.327 . S
C1201 H1224 0.950 . S
C1202 C1201 1.349 . S
C1202 C1214 1.349 . S
C1203 C1201 1.327 . S
C1203 C1219 1.429 . S
C1203 H1225 0.950 . S
C1204 H1200 0.949 . S
C1204 C1212 1.574 . S
C1204 C1220 1.368 . S
H1205 C1213 0.950 . S
H1206 C1211 0.950 . S
H1207 C1212 0.949 . S
H1208 C1214 0.950 . S
H1209 C1215 0.950 . S
H1210 C1216 0.949 . S
C1211 H1206 0.950 . S
C1211 C1213 1.327 . S
C1211 C1217 1.429 . S
C1212 C1204 1.574 . S
C1212 H1207 0.949 . S
C1212 C1218 1.368 . S
C1213 C1197 1.349 . S
C1213 H1205 0.950 . S
C1213 C1211 1.327 . S
C1214 C1202 1.349 . S
C1214 H1208 0.950 . S
C1214 C1215 1.327 . S
C1215 H1209 0.950 . S
C1215 C1214 1.327 . S
C1215 C1219 1.429 . S
C1216 C1199 1.574 . S
C1216 H1210 0.949 . S
C1216 C1220 1.368 . S
C1217 C1198 1.429 . S
C1217 C1211 1.429 . S
C1217 C1218 1.523 . S
C1218 C1199 1.368 . S
C1218 C1212 1.368 . S
C1218 C1217 1.523 . S
C1219 C1203 1.429 . S
C1219 C1215 1.429 . S
C1219 C1220 1.523 . S
C1220 C1204 1.368 . S
C1220 C1216 1.368 . S
C1220 C1219 1.523 . S
H1221 C1196 0.950 . S
H1222 C1198 0.950 . S
H1223 C1199 0.949 . S
H1224 C1201 0.950 . S
H1225 C1203 0.950 . S
C1226 C1227 1.349 . S
C1226 C1228 1.327 . S
C1226 H1251 0.950 . S
C1227 C1226 1.349 . S
C1227 C1243 1.349 . S
C1228 C1226 1.327 . S
C1228 C1247 1.429 . S
C1228 H1252 0.950 . S
C1229 C1246 1.574 . S
C1229 C1248 1.368 . S
C1229 H1253 0.949 . S
H1230 C1234 0.949 . S
C1231 C1232 1.349 . S
C1231 C1233 1.327 . S
C1231 H1254 0.950 . S
C1232 C1231 1.349 . S
C1232 C1244 1.349 . S
C1233 C1231 1.327 . S
C1233 C1249 1.429 . S
C1233 H1255 0.950 . S
C1234 H1230 0.949 . S
C1234 C1242 1.574 . S
C1234 C1250 1.368 . S
H1235 C1243 0.950 . S
H1236 C1241 0.950 . S
H1237 C1242 0.949 . S
H1238 C1244 0.950 . S
H1239 C1245 0.950 . S
H1240 C1246 0.949 . S
C1241 H1236 0.950 . S
C1241 C1243 1.327 . S
C1241 C1247 1.429 . S
C1242 C1234 1.574 . S
C1242 H1237 0.949 . S
C1242 C1248 1.368 . S
C1243 C1227 1.349 . S
C1243 H1235 0.950 . S
C1243 C1241 1.327 . S
C1244 C1232 1.349 . S
C1244 H1238 0.950 . S
C1244 C1245 1.327 . S
C1245 H1239 0.950 . S
C1245 C1244 1.327 . S
C1245 C1249 1.429 . S
C1246 C1229 1.574 . S
C1246 H1240 0.949 . S
C1246 C1250 1.368 . S
C1247 C1228 1.429 . S
C1247 C1241 1.429 . S
C1247 C1248 1.523 . S
C1248 C1229 1.368 . S
C1248 C1242 1.368 . S
C1248 C1247 1.523 . S
C1249 C1233 1.429 . S
C1249 C1245 1.429 . S
C1249 C1250 1.523 . S
C1250 C1234 1.368 . S
C1250 C1246 1.368 . S
C1250 C1249 1.523 . S
H1251 C1226 0.950 . S
H1252 C1228 0.950 . S
H1253 C1229 0.949 . S
H1254 C1231 0.950 . S
H1255 C1233 0.950 . S
C1256 C1257 1.349 . S
C1256 C1258 1.327 . S
C1256 H1281 0.950 . S
C1257 C1256 1.349 . S
C1257 C1273 1.349 . S
C1258 C1256 1.327 . S
C1258 C1277 1.429 . S
C1258 H1282 0.950 . S
C1259 C1276 1.574 . S
C1259 C1278 1.368 . S
C1259 H1283 0.949 . S
H1260 C1264 0.949 . S
C1261 C1262 1.349 . S
C1261 C1263 1.327 . S
C1261 H1284 0.950 . S
C1262 C1261 1.349 . S
C1262 C1274 1.349 . S
C1263 C1261 1.327 . S
C1263 C1279 1.429 . S
C1263 H1285 0.950 . S
C1264 H1260 0.949 . S
C1264 C1272 1.574 . S
C1264 C1280 1.368 . S
H1265 C1273 0.950 . S
H1266 C1271 0.950 . S
H1267 C1272 0.949 . S
H1268 C1274 0.950 . S
H1269 C1275 0.950 . S
H1270 C1276 0.949 . S
C1271 H1266 0.950 . S
C1271 C1273 1.327 . S
C1271 C1277 1.429 . S
C1272 C1264 1.574 . S
C1272 H1267 0.949 . S
C1272 C1278 1.368 . S
C1273 C1257 1.349 . S
C1273 H1265 0.950 . S
C1273 C1271 1.327 . S
C1274 C1262 1.349 . S
C1274 H1268 0.950 . S
C1274 C1275 1.327 . S
C1275 H1269 0.950 . S
C1275 C1274 1.327 . S
C1275 C1279 1.429 . S
C1276 C1259 1.574 . S
C1276 H1270 0.949 . S
C1276 C1280 1.368 . S
C1277 C1258 1.429 . S
C1277 C1271 1.429 . S
C1277 C1278 1.523 . S
C1278 C1259 1.368 . S
C1278 C1272 1.368 . S
C1278 C1277 1.523 . S
C1279 C1263 1.429 . S
C1279 C1275 1.429 . S
C1279 C1280 1.523 . S
C1280 C1264 1.368 . S
C1280 C1276 1.368 . S
C1280 C1279 1.523 . S
H1281 C1256 0.950 . S
H1282 C1258 0.950 . S
H1283 C1259 0.949 . S
H1284 C1261 0.950 . S
H1285 C1263 0.950 . S
C1286 C1287 1.349 . S
C1286 C1288 1.327 . S
C1286 H1311 0.950 . S
C1287 C1286 1.349 . S
C1287 C1303 1.349 . S
C1288 C1286 1.327 . S
C1288 C1307 1.429 . S
C1288 H1312 0.950 . S
C1289 C1306 1.574 1_565 S
C1289 C1308 1.368 . S
C1289 H1313 0.949 . S
H1290 C1294 0.949 . S
C1291 C1292 1.349 . S
C1291 C1293 1.327 . S
C1291 H1314 0.950 . S
C1292 C1291 1.349 . S
C1292 C1304 1.349 . S
C1293 C1291 1.327 . S
C1293 C1309 1.429 . S
C1293 H1315 0.950 . S
C1294 H1290 0.949 . S
C1294 C1302 1.574 1_545 S
C1294 C1310 1.368 . S
H1295 C1303 0.950 . S
H1296 C1301 0.950 . S
H1297 C1302 0.949 . S
H1298 C1304 0.950 . S
H1299 C1305 0.950 . S
H1300 C1306 0.949 . S
C1301 H1296 0.950 . S
C1301 C1303 1.327 . S
C1301 C1307 1.429 . S
C1302 C1294 1.574 1_565 S
C1302 H1297 0.949 . S
C1302 C1308 1.368 . S
C1303 C1287 1.349 . S
C1303 H1295 0.950 . S
C1303 C1301 1.327 . S
C1304 C1292 1.349 . S
C1304 H1298 0.950 . S
C1304 C1305 1.327 . S
C1305 H1299 0.950 . S
C1305 C1304 1.327 . S
C1305 C1309 1.429 . S
C1306 C1289 1.574 1_545 S
C1306 H1300 0.949 . S
C1306 C1310 1.368 . S
C1307 C1288 1.429 . S
C1307 C1301 1.429 . S
C1307 C1308 1.523 . S
C1308 C1289 1.368 . S
C1308 C1302 1.368 . S
C1308 C1307 1.523 . S
C1309 C1293 1.429 . S
C1309 C1305 1.429 . S
C1309 C1310 1.523 . S
C1310 C1294 1.368 . S
C1310 C1306 1.368 . S
C1310 C1309 1.523 . S
H1311 C1286 0.950 . S
H1312 C1288 0.950 . S
H1313 C1289 0.949 . S
H1314 C1291 0.950 . S
H1315 C1293 0.950 . S
C1316 C1317 1.349 . S
C1316 C1318 1.327 . S
C1316 H1341 0.950 . S
C1317 C1316 1.349 . S
C1317 C1333 1.349 . S
C1318 C1316 1.327 . S
C1318 C1337 1.429 . S
C1318 H1342 0.950 . S
C1319 C1336 1.574 . S
C1319 C1338 1.368 . S
C1319 H1343 0.949 . S
H1320 C1324 0.949 . S
C1321 C1322 1.349 . S
C1321 C1323 1.327 . S
C1321 H1344 0.950 . S
C1322 C1321 1.349 . S
C1322 C1334 1.349 . S
C1323 C1321 1.327 . S
C1323 C1339 1.429 . S
C1323 H1345 0.950 . S
C1324 H1320 0.949 . S
C1324 C1332 1.574 . S
C1324 C1340 1.368 . S
H1325 C1333 0.950 . S
H1326 C1331 0.950 . S
H1327 C1332 0.949 . S
H1328 C1334 0.950 . S
H1329 C1335 0.950 . S
H1330 C1336 0.949 . S
C1331 H1326 0.950 . S
C1331 C1333 1.327 . S
C1331 C1337 1.429 . S
C1332 C1324 1.574 . S
C1332 H1327 0.949 . S
C1332 C1338 1.368 . S
C1333 C1317 1.349 . S
C1333 H1325 0.950 . S
C1333 C1331 1.327 . S
C1334 C1322 1.349 . S
C1334 H1328 0.950 . S
C1334 C1335 1.327 . S
C1335 H1329 0.950 . S
C1335 C1334 1.327 . S
C1335 C1339 1.429 . S
C1336 C1319 1.574 . S
C1336 H1330 0.949 . S
C1336 C1340 1.368 . S
C1337 C1318 1.429 . S
C1337 C1331 1.429 . S
C1337 C1338 1.523 . S
C1338 C1319 1.368 . S
C1338 C1332 1.368 . S
C1338 C1337 1.523 . S
C1339 C1323 1.429 . S
C1339 C1335 1.429 . S
C1339 C1340 1.523 . S
C1340 C1324 1.368 . S
C1340 C1336 1.368 . S
C1340 C1339 1.523 . S
H1341 C1316 0.950 . S
H1342 C1318 0.950 . S
H1343 C1319 0.949 . S
H1344 C1321 0.950 . S
H1345 C1323 0.950 . S
C1346 C1347 1.349 . S
C1346 C1348 1.327 . S
C1346 H1371 0.950 . S
C1347 C1346 1.349 . S
C1347 C1363 1.349 . S
C1348 C1346 1.327 . S
C1348 C1367 1.429 . S
C1348 H1372 0.950 . S
C1349 C1366 1.574 . S
C1349 C1368 1.368 1_556 S
C1349 H1373 0.949 . S
H1350 C1354 0.949 . S
C1351 C1352 1.349 . S
C1351 C1353 1.327 . S
C1351 H1374 0.950 . S
C1352 C1351 1.349 . S
C1352 C1364 1.349 . S
C1353 C1351 1.327 . S
C1353 C1369 1.429 . S
C1353 H1375 0.950 . S
C1354 H1350 0.949 . S
C1354 C1362 1.574 . S
C1354 C1370 1.368 1_554 S
H1355 C1363 0.950 . S
H1356 C1361 0.950 1_556 S
H1357 C1362 0.949 . S
H1358 C1364 0.950 . S
H1359 C1365 0.950 1_554 S
H1360 C1366 0.949 . S
C1361 H1356 0.950 1_554 S
C1361 C1363 1.327 . S
C1361 C1367 1.429 . S
C1362 C1354 1.574 . S
C1362 H1357 0.949 . S
C1362 C1368 1.368 . S
C1363 C1347 1.349 . S
C1363 H1355 0.950 . S
C1363 C1361 1.327 . S
C1364 C1352 1.349 . S
C1364 H1358 0.950 . S
C1364 C1365 1.327 . S
C1365 H1359 0.950 1_556 S
C1365 C1364 1.327 . S
C1365 C1369 1.429 . S
C1366 C1349 1.574 . S
C1366 H1360 0.949 . S
C1366 C1370 1.368 . S
C1367 C1348 1.429 . S
C1367 C1361 1.429 . S
C1367 C1368 1.523 . S
C1368 C1349 1.368 1_554 S
C1368 C1362 1.368 . S
C1368 C1367 1.523 . S
C1369 C1353 1.429 . S
C1369 C1365 1.429 . S
C1369 C1370 1.523 . S
C1370 C1354 1.368 1_556 S
C1370 C1366 1.368 . S
C1370 C1369 1.523 . S
H1371 C1346 0.950 . S
H1372 C1348 0.950 . S
H1373 C1349 0.949 . S
H1374 C1351 0.950 . S
H1375 C1353 0.950 . S
C1376 C1377 1.349 . S
C1376 C1378 1.327 . S
C1376 H1401 0.950 . S
C1377 C1376 1.349 . S
C1377 C1393 1.349 . S
C1378 C1376 1.327 . S
C1378 C1397 1.429 . S
C1378 H1402 0.950 . S
C1379 C1396 1.574 . S
C1379 C1398 1.368 . S
C1379 H1403 0.949 . S
H1380 C1384 0.949 . S
C1381 C1382 1.349 . S
C1381 C1383 1.327 . S
C1381 H1404 0.950 . S
C1382 C1381 1.349 . S
C1382 C1394 1.349 . S
C1383 C1381 1.327 . S
C1383 C1399 1.429 . S
C1383 H1405 0.950 . S
C1384 H1380 0.949 . S
C1384 C1392 1.574 . S
C1384 C1400 1.368 . S
H1385 C1393 0.950 . S
H1386 C1391 0.950 . S
H1387 C1392 0.949 . S
H1388 C1394 0.950 . S
H1389 C1395 0.950 . S
H1390 C1396 0.949 . S
C1391 H1386 0.950 . S
C1391 C1393 1.327 . S
C1391 C1397 1.429 . S
C1392 C1384 1.574 . S
C1392 H1387 0.949 . S
C1392 C1398 1.368 . S
C1393 C1377 1.349 . S
C1393 H1385 0.950 . S
C1393 C1391 1.327 . S
C1394 C1382 1.349 . S
C1394 H1388 0.950 . S
C1394 C1395 1.327 . S
C1395 H1389 0.950 . S
C1395 C1394 1.327 . S
C1395 C1399 1.429 . S
C1396 C1379 1.574 . S
C1396 H1390 0.949 . S
C1396 C1400 1.368 . S
C1397 C1378 1.429 . S
C1397 C1391 1.429 . S
C1397 C1398 1.523 . S
C1398 C1379 1.368 . S
C1398 C1392 1.368 . S
C1398 C1397 1.523 . S
C1399 C1383 1.429 . S
C1399 C1395 1.429 . S
C1399 C1400 1.523 . S
C1400 C1384 1.368 . S
C1400 C1396 1.368 . S
C1400 C1399 1.523 . S
H1401 C1376 0.950 . S
H1402 C1378 0.950 . S
H1403 C1379 0.949 . S
H1404 C1381 0.950 . S
H1405 C1383 0.950 . S
C1406 C1407 1.349 . S
C1406 C1408 1.327 . S
C1406 H1431 0.950 . S
C1407 C1406 1.349 . S
C1407 C1423 1.349 . S
C1408 C1406 1.327 . S
C1408 C1427 1.429 . S
C1408 H1432 0.950 . S
C1409 C1426 1.574 . S
C1409 C1428 1.368 . S
C1409 H1433 0.949 . S
H1410 C1414 0.949 . S
C1411 C1412 1.349 . S
C1411 C1413 1.327 1_545 S
C1411 H1434 0.950 . S
C1412 C1411 1.349 . S
C1412 C1424 1.349 1_545 S
C1413 C1411 1.327 1_565 S
C1413 C1429 1.429 . S
C1413 H1435 0.950 . S
C1414 H1410 0.949 . S
C1414 C1422 1.574 . S
C1414 C1430 1.368 . S
H1415 C1423 0.950 . S
H1416 C1421 0.950 . S
H1417 C1422 0.949 . S
H1418 C1424 0.950 1_545 S
H1419 C1425 0.950 . S
H1420 C1426 0.949 . S
C1421 H1416 0.950 . S
C1421 C1423 1.327 . S
C1421 C1427 1.429 . S
C1422 C1414 1.574 . S
C1422 H1417 0.949 . S
C1422 C1428 1.368 . S
C1423 C1407 1.349 . S
C1423 H1415 0.950 . S
C1423 C1421 1.327 . S
C1424 C1412 1.349 1_565 S
C1424 H1418 0.950 1_565 S
C1424 C1425 1.327 . S
C1425 H1419 0.950 . S
C1425 C1424 1.327 . S
C1425 C1429 1.429 . S
C1426 C1409 1.574 . S
C1426 H1420 0.949 . S
C1426 C1430 1.368 . S
C1427 C1408 1.429 . S
C1427 C1421 1.429 . S
C1427 C1428 1.523 . S
C1428 C1409 1.368 . S
C1428 C1422 1.368 . S
C1428 C1427 1.523 . S
C1429 C1413 1.429 . S
C1429 C1425 1.429 . S
C1429 C1430 1.523 . S
C1430 C1414 1.368 . S
C1430 C1426 1.368 . S
C1430 C1429 1.523 . S
H1431 C1406 0.950 . S
H1432 C1408 0.950 . S
H1433 C1409 0.949 . S
H1434 C1411 0.950 . S
H1435 C1413 0.950 . S
C1436 C1437 1.349 . S
C1436 C1438 1.327 1_545 S
C1436 H1461 0.950 . S
C1437 C1436 1.349 . S
C1437 C1453 1.349 1_545 S
C1438 C1436 1.327 1_565 S
C1438 C1457 1.429 . S
C1438 H1462 0.950 . S
C1439 C1456 1.574 . S
C1439 C1458 1.368 . S
C1439 H1463 0.949 . S
H1440 C1444 0.949 . S
C1441 C1442 1.349 . S
C1441 C1443 1.327 . S
C1441 H1464 0.950 . S
C1442 C1441 1.349 . S
C1442 C1454 1.349 . S
C1443 C1441 1.327 . S
C1443 C1459 1.429 . S
C1443 H1465 0.950 . S
C1444 H1440 0.949 . S
C1444 C1452 1.574 . S
C1444 C1460 1.368 . S
H1445 C1453 0.950 1_545 S
H1446 C1451 0.950 . S
H1447 C1452 0.949 . S
H1448 C1454 0.950 . S
H1449 C1455 0.950 . S
H1450 C1456 0.949 . S
C1451 H1446 0.950 . S
C1451 C1453 1.327 . S
C1451 C1457 1.429 . S
C1452 C1444 1.574 . S
C1452 H1447 0.949 . S
C1452 C1458 1.368 . S
C1453 C1437 1.349 1_565 S
C1453 H1445 0.950 1_565 S
C1453 C1451 1.327 . S
C1454 C1442 1.349 . S
C1454 H1448 0.950 . S
C1454 C1455 1.327 . S
C1455 H1449 0.950 . S
C1455 C1454 1.327 . S
C1455 C1459 1.429 . S
C1456 C1439 1.574 . S
C1456 H1450 0.949 . S
C1456 C1460 1.368 . S
C1457 C1438 1.429 . S
C1457 C1451 1.429 . S
C1457 C1458 1.523 . S
C1458 C1439 1.368 . S
C1458 C1452 1.368 . S
C1458 C1457 1.523 . S
C1459 C1443 1.429 . S
C1459 C1455 1.429 . S
C1459 C1460 1.523 . S
C1460 C1444 1.368 . S
C1460 C1456 1.368 . S
C1460 C1459 1.523 . S
H1461 C1436 0.950 . S
H1462 C1438 0.950 . S
H1463 C1439 0.949 . S
H1464 C1441 0.950 . S
H1465 C1443 0.950 . S
C1466 C1467 1.349 . S
C1466 C1468 1.327 . S
C1466 H1491 0.950 . S
C1467 C1466 1.349 . S
C1467 C1483 1.349 . S
C1468 C1466 1.327 . S
C1468 C1487 1.429 . S
C1468 H1492 0.950 . S
C1469 C1486 1.574 . S
C1469 C1488 1.368 . S
C1469 H1493 0.949 . S
H1470 C1474 0.949 . S
C1471 C1472 1.349 . S
C1471 C1473 1.327 . S
C1471 H1494 0.950 . S
C1472 C1471 1.349 . S
C1472 C1484 1.349 . S
C1473 C1471 1.327 . S
C1473 C1489 1.429 . S
C1473 H1495 0.950 . S
C1474 H1470 0.949 . S
C1474 C1482 1.574 . S
C1474 C1490 1.368 . S
H1475 C1483 0.950 . S
H1476 C1481 0.950 . S
H1477 C1482 0.949 . S
H1478 C1484 0.950 . S
H1479 C1485 0.950 . S
H1480 C1486 0.949 . S
C1481 H1476 0.950 . S
C1481 C1483 1.327 . S
C1481 C1487 1.429 . S
C1482 C1474 1.574 . S
C1482 H1477 0.949 . S
C1482 C1488 1.368 . S
C1483 C1467 1.349 . S
C1483 H1475 0.950 . S
C1483 C1481 1.327 . S
C1484 C1472 1.349 . S
C1484 H1478 0.950 . S
C1484 C1485 1.327 . S
C1485 H1479 0.950 . S
C1485 C1484 1.327 . S
C1485 C1489 1.429 . S
C1486 C1469 1.574 . S
C1486 H1480 0.949 . S
C1486 C1490 1.368 . S
C1487 C1468 1.429 . S
C1487 C1481 1.429 . S
C1487 C1488 1.523 . S
C1488 C1469 1.368 . S
C1488 C1482 1.368 . S
C1488 C1487 1.523 . S
C1489 C1473 1.429 . S
C1489 C1485 1.429 . S
C1489 C1490 1.523 . S
C1490 C1474 1.368 . S
C1490 C1486 1.368 . S
C1490 C1489 1.523 . S
H1491 C1466 0.950 . S
H1492 C1468 0.950 . S
H1493 C1469 0.949 . S
H1494 C1471 0.950 . S
H1495 C1473 0.950 . S
C1496 C1497 1.349 . S
C1496 C1498 1.327 . S
C1496 H1521 0.950 . S
C1497 C1496 1.349 . S
C1497 C1513 1.349 . S
C1498 C1496 1.327 . S
C1498 C1517 1.429 . S
C1498 H1522 0.950 . S
C1499 C1516 1.574 . S
C1499 C1518 1.368 . S
C1499 H1523 0.949 . S
H1500 C1504 0.949 . S
C1501 C1502 1.349 . S
C1501 C1503 1.327 . S
C1501 H1524 0.950 . S
C1502 C1501 1.349 . S
C1502 C1514 1.349 . S
C1503 C1501 1.327 . S
C1503 C1519 1.429 . S
C1503 H1525 0.950 . S
C1504 H1500 0.949 . S
C1504 C1512 1.574 . S
C1504 C1520 1.368 . S
H1505 C1513 0.950 . S
H1506 C1511 0.950 . S
H1507 C1512 0.949 . S
H1508 C1514 0.950 . S
H1509 C1515 0.950 . S
H1510 C1516 0.949 . S
C1511 H1506 0.950 . S
C1511 C1513 1.327 . S
C1511 C1517 1.429 . S
C1512 C1504 1.574 . S
C1512 H1507 0.949 . S
C1512 C1518 1.368 . S
C1513 C1497 1.349 . S
C1513 H1505 0.950 . S
C1513 C1511 1.327 . S
C1514 C1502 1.349 . S
C1514 H1508 0.950 . S
C1514 C1515 1.327 . S
C1515 H1509 0.950 . S
C1515 C1514 1.327 . S
C1515 C1519 1.429 . S
C1516 C1499 1.574 . S
C1516 H1510 0.949 . S
C1516 C1520 1.368 . S
C1517 C1498 1.429 . S
C1517 C1511 1.429 . S
C1517 C1518 1.523 . S
C1518 C1499 1.368 . S
C1518 C1512 1.368 . S
C1518 C1517 1.523 . S
C1519 C1503 1.429 . S
C1519 C1515 1.429 . S
C1519 C1520 1.523 . S
C1520 C1504 1.368 . S
C1520 C1516 1.368 . S
C1520 C1519 1.523 . S
H1521 C1496 0.950 . S
H1522 C1498 0.950 . S
H1523 C1499 0.949 . S
H1524 C1501 0.950 . S
H1525 C1503 0.950 . S
C1526 C1527 1.349 1_545 S
C1526 C1528 1.327 . S
C1526 H1551 0.950 1_545 S
C1527 C1526 1.349 1_565 S
C1527 C1543 1.349 . S
C1528 C1526 1.327 . S
C1528 C1547 1.429 . S
C1528 H1552 0.950 . S
C1529 C1546 1.574 . S
C1529 C1548 1.368 . S
C1529 H1553 0.949 . S
H1530 C1534 0.949 . S
C1531 C1532 1.349 . S
C1531 C1533 1.327 . S
C1531 H1554 0.950 . S
C1532 C1531 1.349 . S
C1532 C1544 1.349 . S
C1533 C1531 1.327 . S
C1533 C1549 1.429 . S
C1533 H1555 0.950 . S
C1534 H1530 0.949 . S
C1534 C1542 1.574 . S
C1534 C1550 1.368 . S
H1535 C1543 0.950 . S
H1536 C1541 0.950 . S
H1537 C1542 0.949 . S
H1538 C1544 0.950 . S
H1539 C1545 0.950 . S
H1540 C1546 0.949 . S
C1541 H1536 0.950 . S
C1541 C1543 1.327 1_545 S
C1541 C1547 1.429 . S
C1542 C1534 1.574 . S
C1542 H1537 0.949 . S
C1542 C1548 1.368 . S
C1543 C1527 1.349 . S
C1543 H1535 0.950 . S
C1543 C1541 1.327 1_565 S
C1544 C1532 1.349 . S
C1544 H1538 0.950 . S
C1544 C1545 1.327 . S
C1545 H1539 0.950 . S
C1545 C1544 1.327 . S
C1545 C1549 1.429 . S
C1546 C1529 1.574 . S
C1546 H1540 0.949 . S
C1546 C1550 1.368 . S
C1547 C1528 1.429 . S
C1547 C1541 1.429 . S
C1547 C1548 1.523 . S
C1548 C1529 1.368 . S
C1548 C1542 1.368 . S
C1548 C1547 1.523 . S
C1549 C1533 1.429 . S
C1549 C1545 1.429 . S
C1549 C1550 1.523 . S
C1550 C1534 1.368 . S
C1550 C1546 1.368 . S
C1550 C1549 1.523 . S
H1551 C1526 0.950 1_565 S
H1552 C1528 0.950 . S
H1553 C1529 0.949 . S
H1554 C1531 0.950 . S
H1555 C1533 0.950 . S
C1556 C1557 1.349 . S
C1556 C1558 1.327 . S
C1556 H1581 0.950 . S
C1557 C1556 1.349 . S
C1557 C1573 1.349 . S
C1558 C1556 1.327 . S
C1558 C1577 1.429 . S
C1558 H1582 0.950 . S
C1559 C1576 1.574 . S
C1559 C1578 1.368 . S
C1559 H1583 0.949 . S
H1560 C1564 0.949 . S
C1561 C1562 1.349 . S
C1561 C1563 1.327 1_565 S
C1561 H1584 0.950 . S
C1562 C1561 1.349 . S
C1562 C1574 1.349 1_565 S
C1563 C1561 1.327 1_545 S
C1563 C1579 1.429 . S
C1563 H1585 0.950 . S
C1564 H1560 0.949 . S
C1564 C1572 1.574 . S
C1564 C1580 1.368 . S
H1565 C1573 0.950 . S
H1566 C1571 0.950 . S
H1567 C1572 0.949 . S
H1568 C1574 0.950 1_565 S
H1569 C1575 0.950 . S
H1570 C1576 0.949 . S
C1571 H1566 0.950 . S
C1571 C1573 1.327 . S
C1571 C1577 1.429 . S
C1572 C1564 1.574 . S
C1572 H1567 0.949 . S
C1572 C1578 1.368 . S
C1573 C1557 1.349 . S
C1573 H1565 0.950 . S
C1573 C1571 1.327 . S
C1574 C1562 1.349 1_545 S
C1574 H1568 0.950 1_545 S
C1574 C1575 1.327 . S
C1575 H1569 0.950 . S
C1575 C1574 1.327 . S
C1575 C1579 1.429 . S
C1576 C1559 1.574 . S
C1576 H1570 0.949 . S
C1576 C1580 1.368 . S
C1577 C1558 1.429 . S
C1577 C1571 1.429 . S
C1577 C1578 1.523 . S
C1578 C1559 1.368 . S
C1578 C1572 1.368 . S
C1578 C1577 1.523 . S
C1579 C1563 1.429 . S
C1579 C1575 1.429 . S
C1579 C1580 1.523 . S
C1580 C1564 1.368 . S
C1580 C1576 1.368 . S
C1580 C1579 1.523 . S
H1581 C1556 0.950 . S
H1582 C1558 0.950 . S
H1583 C1559 0.949 . S
H1584 C1561 0.950 . S
H1585 C1563 0.950 . S
C1586 C1587 1.349 . S
C1586 C1588 1.327 . S
C1586 H1611 0.950 . S
C1587 C1586 1.349 . S
C1587 C1603 1.349 . S
C1588 C1586 1.327 . S
C1588 C1607 1.429 . S
C1588 H1612 0.950 . S
C1589 C1606 1.574 . S
C1589 C1608 1.368 . S
C1589 H1613 0.949 . S
H1590 C1594 0.949 . S
C1591 C1592 1.349 . S
C1591 C1593 1.327 . S
C1591 H1614 0.950 . S
C1592 C1591 1.349 . S
C1592 C1604 1.349 . S
C1593 C1591 1.327 . S
C1593 C1609 1.429 . S
C1593 H1615 0.950 . S
C1594 H1590 0.949 . S
C1594 C1602 1.574 . S
C1594 C1610 1.368 . S
H1595 C1603 0.950 . S
H1596 C1601 0.950 . S
H1597 C1602 0.949 . S
H1598 C1604 0.950 . S
H1599 C1605 0.950 . S
H1600 C1606 0.949 . S
C1601 H1596 0.950 . S
C1601 C1603 1.327 . S
C1601 C1607 1.429 . S
C1602 C1594 1.574 . S
C1602 H1597 0.949 . S
C1602 C1608 1.368 . S
C1603 C1587 1.349 . S
C1603 H1595 0.950 . S
C1603 C1601 1.327 . S
C1604 C1592 1.349 . S
C1604 H1598 0.950 . S
C1604 C1605 1.327 . S
C1605 H1599 0.950 . S
C1605 C1604 1.327 . S
C1605 C1609 1.429 . S
C1606 C1589 1.574 . S
C1606 H1600 0.949 . S
C1606 C1610 1.368 . S
C1607 C1588 1.429 . S
C1607 C1601 1.429 . S
C1607 C1608 1.523 . S
C1608 C1589 1.368 . S
C1608 C1602 1.368 . S
C1608 C1607 1.523 . S
C1609 C1593 1.429 . S
C1609 C1605 1.429 . S
C1609 C1610 1.523 . S
C1610 C1594 1.368 . S
C1610 C1606 1.368 . S
C1610 C1609 1.523 . S
H1611 C1586 0.950 . S
H1612 C1588 0.950 . S
H1613 C1589 0.949 . S
H1614 C1591 0.950 . S
H1615 C1593 0.950 . S
C1616 C1617 1.349 . S
C1616 C1618 1.327 . S
C1616 H1641 0.950 . S
C1617 C1616 1.349 . S
C1617 C1633 1.349 . S
C1618 C1616 1.327 . S
C1618 C1637 1.429 . S
C1618 H1642 0.950 . S
C1619 C1636 1.574 . S
C1619 C1638 1.368 . S
C1619 H1643 0.949 . S
H1620 C1624 0.949 . S
C1621 C1622 1.349 . S
C1621 C1623 1.327 . S
C1621 H1644 0.950 . S
C1622 C1621 1.349 . S
C1622 C1634 1.349 . S
C1623 C1621 1.327 . S
C1623 C1639 1.429 . S
C1623 H1645 0.950 . S
C1624 H1620 0.949 . S
C1624 C1632 1.574 . S
C1624 C1640 1.368 . S
H1625 C1633 0.950 . S
H1626 C1631 0.950 . S
H1627 C1632 0.949 . S
H1628 C1634 0.950 . S
H1629 C1635 0.950 . S
H1630 C1636 0.949 . S
C1631 H1626 0.950 . S
C1631 C1633 1.327 . S
C1631 C1637 1.429 . S
C1632 C1624 1.574 . S
C1632 H1627 0.949 . S
C1632 C1638 1.368 . S
C1633 C1617 1.349 . S
C1633 H1625 0.950 . S
C1633 C1631 1.327 . S
C1634 C1622 1.349 . S
C1634 H1628 0.950 . S
C1634 C1635 1.327 . S
C1635 H1629 0.950 . S
C1635 C1634 1.327 . S
C1635 C1639 1.429 . S
C1636 C1619 1.574 . S
C1636 H1630 0.949 . S
C1636 C1640 1.368 . S
C1637 C1618 1.429 . S
C1637 C1631 1.429 . S
C1637 C1638 1.523 . S
C1638 C1619 1.368 . S
C1638 C1632 1.368 . S
C1638 C1637 1.523 . S
C1639 C1623 1.429 . S
C1639 C1635 1.429 . S
C1639 C1640 1.523 . S
C1640 C1624 1.368 . S
C1640 C1636 1.368 . S
C1640 C1639 1.523 . S
H1641 C1616 0.950 . S
H1642 C1618 0.950 . S
H1643 C1619 0.949 . S
H1644 C1621 0.950 . S
H1645 C1623 0.950 . S
C1646 C1647 1.349 . S
C1646 C1648 1.327 . S
C1646 H1671 0.950 . S
C1647 C1646 1.349 . S
C1647 C1663 1.349 . S
C1648 C1646 1.327 . S
C1648 C1667 1.429 . S
C1648 H1672 0.950 . S
C1649 C1666 1.574 . S
C1649 C1668 1.368 . S
C1649 H1673 0.949 . S
H1650 C1654 0.949 . S
C1651 C1652 1.349 . S
C1651 C1653 1.327 1_545 S
C1651 H1674 0.950 . S
C1652 C1651 1.349 . S
C1652 C1664 1.339 1_545 S
C1653 C1651 1.327 1_565 S
C1653 C1669 1.429 . S
C1653 H1675 0.950 . S
C1654 H1650 0.949 . S
C1654 C1662 1.574 . S
C1654 C1670 1.368 . S
H1655 C1663 0.950 . S
H1656 C1661 0.950 . S
H1657 C1662 0.949 . S
H1658 C1664 0.944 1_545 S
H1659 C1665 0.950 . S
H1660 C1666 0.949 . S
C1661 H1656 0.950 . S
C1661 C1663 1.327 . S
C1661 C1667 1.429 . S
C1662 C1654 1.574 . S
C1662 H1657 0.949 . S
C1662 C1668 1.368 . S
C1663 C1647 1.349 . S
C1663 H1655 0.950 . S
C1663 C1661 1.327 . S
C1664 C1652 1.339 1_565 S
C1664 H1658 0.944 1_565 S
C1664 C1665 1.343 . S
C1665 H1659 0.950 . S
C1665 C1664 1.343 . S
C1665 C1669 1.429 . S
C1666 C1649 1.574 . S
C1666 H1660 0.949 . S
C1666 C1670 1.368 . S
C1667 C1648 1.429 . S
C1667 C1661 1.429 . S
C1667 C1668 1.523 . S
C1668 C1649 1.368 . S
C1668 C1662 1.368 . S
C1668 C1667 1.523 . S
C1669 C1653 1.429 . S
C1669 C1665 1.429 . S
C1669 C1670 1.523 . S
C1670 C1654 1.368 . S
C1670 C1666 1.368 . S
C1670 C1669 1.523 . S
H1671 C1646 0.950 . S
H1672 C1648 0.950 . S
H1673 C1649 0.949 . S
H1674 C1651 0.950 . S
H1675 C1653 0.950 . S
C1676 C1677 1.349 . S
C1676 C1678 1.327 . S
C1676 H1701 0.950 . S
C1677 C1676 1.349 . S
C1677 C1693 1.349 . S
C1678 C1676 1.327 . S
C1678 C1697 1.429 . S
C1678 H1702 0.950 . S
C1679 C1696 1.574 . S
C1679 C1698 1.368 . S
C1679 H1703 0.949 . S
H1680 C1684 0.949 . S
C1681 C1682 1.349 . S
C1681 C1683 1.327 1_545 S
C1681 H1704 0.950 . S
C1682 C1681 1.349 . S
C1682 C1694 1.349 1_545 S
C1683 C1681 1.327 1_565 S
C1683 C1699 1.429 . S
C1683 H1705 0.950 . S
C1684 H1680 0.949 . S
C1684 C1692 1.574 . S
C1684 C1700 1.368 . S
H1685 C1693 0.950 . S
H1686 C1691 0.950 . S
H1687 C1692 0.949 . S
H1688 C1694 0.952 . S
H1689 C1695 0.950 . S
H1690 C1696 0.949 . S
C1691 H1686 0.950 . S
C1691 C1693 1.327 . S
C1691 C1697 1.429 . S
C1692 C1684 1.574 . S
C1692 H1687 0.949 . S
C1692 C1698 1.368 . S
C1693 C1677 1.349 . S
C1693 H1685 0.950 . S
C1693 C1691 1.327 . S
C1694 C1682 1.349 1_565 S
C1694 H1688 0.952 . S
C1694 C1695 1.327 . S
C1695 H1689 0.950 . S
C1695 C1694 1.327 . S
C1695 C1699 1.429 . S
C1696 C1679 1.574 . S
C1696 H1690 0.949 . S
C1696 C1700 1.368 . S
C1697 C1678 1.429 . S
C1697 C1691 1.429 . S
C1697 C1698 1.523 . S
C1698 C1679 1.368 . S
C1698 C1692 1.368 . S
C1698 C1697 1.523 . S
C1699 C1683 1.429 . S
C1699 C1695 1.429 . S
C1699 C1700 1.523 . S
C1700 C1684 1.368 . S
C1700 C1696 1.368 . S
C1700 C1699 1.523 . S
H1701 C1676 0.950 . S
H1702 C1678 0.950 . S
H1703 C1679 0.949 . S
H1704 C1681 0.950 . S
H1705 C1683 0.950 . S
C1706 C1707 1.349 . S
C1706 C1708 1.327 . S
C1706 H1731 0.950 . S
C1707 C1706 1.349 . S
C1707 C1723 1.349 . S
C1708 C1706 1.327 . S
C1708 C1727 1.429 . S
C1708 H1732 0.950 . S
C1709 C1726 1.574 . S
C1709 C1728 1.368 . S
C1709 H1733 0.949 . S
H1710 C1714 0.949 . S
C1711 C1712 1.349 . S
C1711 C1713 1.327 . S
C1711 H1734 0.950 . S
C1712 C1711 1.349 . S
C1712 C1724 1.349 . S
C1713 C1711 1.327 . S
C1713 C1729 1.429 . S
C1713 H1735 0.950 . S
C1714 H1710 0.949 . S
C1714 C1722 1.574 . S
C1714 C1730 1.368 . S
H1715 C1723 0.950 . S
H1716 C1721 0.950 . S
H1717 C1722 0.949 . S
H1718 C1724 0.950 . S
H1719 C1725 0.950 . S
H1720 C1726 0.949 . S
C1721 H1716 0.950 . S
C1721 C1723 1.327 . S
C1721 C1727 1.429 . S
C1722 C1714 1.574 . S
C1722 H1717 0.949 . S
C1722 C1728 1.368 . S
C1723 C1707 1.349 . S
C1723 H1715 0.950 . S
C1723 C1721 1.327 . S
C1724 C1712 1.349 . S
C1724 H1718 0.950 . S
C1724 C1725 1.327 . S
C1725 H1719 0.950 . S
C1725 C1724 1.327 . S
C1725 C1729 1.429 . S
C1726 C1709 1.574 . S
C1726 H1720 0.949 . S
C1726 C1730 1.368 . S
C1727 C1708 1.429 . S
C1727 C1721 1.429 . S
C1727 C1728 1.523 . S
C1728 C1709 1.368 . S
C1728 C1722 1.368 . S
C1728 C1727 1.523 . S
C1729 C1713 1.429 . S
C1729 C1725 1.429 . S
C1729 C1730 1.523 . S
C1730 C1714 1.368 . S
C1730 C1726 1.368 . S
C1730 C1729 1.523 . S
H1731 C1706 0.950 . S
H1732 C1708 0.950 . S
H1733 C1709 0.949 . S
H1734 C1711 0.950 . S
H1735 C1713 0.950 . S
C1736 C1737 1.349 . S
C1736 C1738 1.327 . S
C1736 H1761 0.950 . S
C1737 C1736 1.349 . S
C1737 C1753 1.349 . S
C1738 C1736 1.327 . S
C1738 C1757 1.429 . S
C1738 H1762 0.950 . S
C1739 C1756 1.574 . S
C1739 C1758 1.368 . S
C1739 H1763 0.949 . S
H1740 C1744 0.949 . S
C1741 C1742 1.349 . S
C1741 C1743 1.327 . S
C1741 H1764 0.950 . S
C1742 C1741 1.349 . S
C1742 C1754 1.349 . S
C1743 C1741 1.327 . S
C1743 C1759 1.429 . S
C1743 H1765 0.950 . S
C1744 H1740 0.949 . S
C1744 C1752 1.574 . S
C1744 C1760 1.368 . S
H1745 C1753 0.950 . S
H1746 C1751 0.950 . S
H1747 C1752 0.949 . S
H1748 C1754 0.950 . S
H1749 C1755 0.950 . S
H1750 C1756 0.949 . S
C1751 H1746 0.950 . S
C1751 C1753 1.327 . S
C1751 C1757 1.429 . S
C1752 C1744 1.574 . S
C1752 H1747 0.949 . S
C1752 C1758 1.368 . S
C1753 C1737 1.349 . S
C1753 H1745 0.950 . S
C1753 C1751 1.327 . S
C1754 C1742 1.349 . S
C1754 H1748 0.950 . S
C1754 C1755 1.327 . S
C1755 H1749 0.950 . S
C1755 C1754 1.327 . S
C1755 C1759 1.429 . S
C1756 C1739 1.574 . S
C1756 H1750 0.949 . S
C1756 C1760 1.368 . S
C1757 C1738 1.429 . S
C1757 C1751 1.429 . S
C1757 C1758 1.523 . S
C1758 C1739 1.368 . S
C1758 C1752 1.368 . S
C1758 C1757 1.523 . S
C1759 C1743 1.429 . S
C1759 C1755 1.429 . S
C1759 C1760 1.523 . S
C1760 C1744 1.368 . S
C1760 C1756 1.368 . S
C1760 C1759 1.523 . S
H1761 C1736 0.950 . S
H1762 C1738 0.950 . S
H1763 C1739 0.949 . S
H1764 C1741 0.950 . S
H1765 C1743 0.950 . S
C1766 C1767 1.349 . S
C1766 C1768 1.327 1_565 S
C1766 H1791 0.950 . S
C1767 C1766 1.349 . S
C1767 C1783 1.349 1_565 S
C1768 C1766 1.327 1_545 S
C1768 C1787 1.429 . S
C1768 H1792 0.950 . S
C1769 C1786 1.574 . S
C1769 C1788 1.368 . S
C1769 H1793 0.949 . S
H1770 C1774 0.949 . S
C1771 C1772 1.349 . S
C1771 C1773 1.327 . S
C1771 H1794 0.950 . S
C1772 C1771 1.349 . S
C1772 C1784 1.349 . S
C1773 C1771 1.327 . S
C1773 C1789 1.429 . S
C1773 H1795 0.950 . S
C1774 H1770 0.949 . S
C1774 C1782 1.574 . S
C1774 C1790 1.368 . S
H1775 C1783 0.950 1_565 S
H1776 C1781 0.950 . S
H1777 C1782 0.949 . S
H1778 C1784 0.950 . S
H1779 C1785 0.950 . S
H1780 C1786 0.949 . S
C1781 H1776 0.950 . S
C1781 C1783 1.327 . S
C1781 C1787 1.429 . S
C1782 C1774 1.574 . S
C1782 H1777 0.949 . S
C1782 C1788 1.368 . S
C1783 C1767 1.349 1_545 S
C1783 H1775 0.950 1_545 S
C1783 C1781 1.327 . S
C1784 C1772 1.349 . S
C1784 H1778 0.950 . S
C1784 C1785 1.327 . S
C1785 H1779 0.950 . S
C1785 C1784 1.327 . S
C1785 C1789 1.429 . S
C1786 C1769 1.574 . S
C1786 H1780 0.949 . S
C1786 C1790 1.368 . S
C1787 C1768 1.429 . S
C1787 C1781 1.429 . S
C1787 C1788 1.523 . S
C1788 C1769 1.368 . S
C1788 C1782 1.368 . S
C1788 C1787 1.523 . S
C1789 C1773 1.429 . S
C1789 C1785 1.429 . S
C1789 C1790 1.523 . S
C1790 C1774 1.368 . S
C1790 C1786 1.368 . S
C1790 C1789 1.523 . S
H1791 C1766 0.950 . S
H1792 C1768 0.950 . S
H1793 C1769 0.949 . S
H1794 C1771 0.950 . S
H1795 C1773 0.950 . S
C1796 C1797 1.349 . S
C1796 C1798 1.327 . S
C1796 H1821 0.950 . S
C1797 C1796 1.349 . S
C1797 C1813 1.349 . S
C1798 C1796 1.327 . S
C1798 C1817 1.429 . S
C1798 H1822 0.950 . S
C1799 C1816 1.574 . S
C1799 C1818 1.368 . S
C1799 H1823 0.949 . S
H1800 C1804 0.949 . S
C1801 C1802 1.349 . S
C1801 C1803 1.327 1_565 S
C1801 H1824 0.950 . S
C1802 C1801 1.349 . S
C1802 C1814 1.349 1_565 S
C1803 C1801 1.327 1_545 S
C1803 C1819 1.429 . S
C1803 H1825 0.950 . S
C1804 H1800 0.949 . S
C1804 C1812 1.574 . S
C1804 C1820 1.368 . S
H1805 C1813 0.950 . S
H1806 C1811 0.950 . S
H1807 C1812 0.949 . S
H1808 C1814 0.950 . S
H1809 C1815 0.950 . S
H1810 C1816 0.949 . S
C1811 H1806 0.950 . S
C1811 C1813 1.327 . S
C1811 C1817 1.429 . S
C1812 C1804 1.574 . S
C1812 H1807 0.949 . S
C1812 C1818 1.368 . S
C1813 C1797 1.349 . S
C1813 H1805 0.950 . S
C1813 C1811 1.327 . S
C1814 C1802 1.349 1_545 S
C1814 H1808 0.950 . S
C1814 C1815 1.327 . S
C1815 H1809 0.950 . S
C1815 C1814 1.327 . S
C1815 C1819 1.429 . S
C1816 C1799 1.574 . S
C1816 H1810 0.949 . S
C1816 C1820 1.368 . S
C1817 C1798 1.429 . S
C1817 C1811 1.429 . S
C1817 C1818 1.523 . S
C1818 C1799 1.368 . S
C1818 C1812 1.368 . S
C1818 C1817 1.523 . S
C1819 C1803 1.429 . S
C1819 C1815 1.429 . S
C1819 C1820 1.523 . S
C1820 C1804 1.368 . S
C1820 C1816 1.368 . S
C1820 C1819 1.523 . S
H1821 C1796 0.950 . S
H1822 C1798 0.950 . S
H1823 C1799 0.949 . S
H1824 C1801 0.950 . S
H1825 C1803 0.950 . S
C1826 C1827 1.349 . S
C1826 C1828 1.327 . S
C1826 H1851 0.950 . S
C1827 C1826 1.349 . S
C1827 C1843 1.349 . S
C1828 C1826 1.327 . S
C1828 C1847 1.429 . S
C1828 H1852 0.950 . S
C1829 C1846 1.574 . S
C1829 C1848 1.368 . S
C1829 H1853 0.949 . S
H1830 C1834 0.949 . S
C1831 C1832 1.349 . S
C1831 C1833 1.327 . S
C1831 H1854 0.950 . S
C1832 C1831 1.349 . S
C1832 C1844 1.349 . S
C1833 C1831 1.327 . S
C1833 C1849 1.429 . S
C1833 H1855 0.950 . S
C1834 H1830 0.949 . S
C1834 C1842 1.574 . S
C1834 C1850 1.368 . S
H1835 C1843 0.950 . S
H1836 C1841 0.950 . S
H1837 C1842 0.949 . S
H1838 C1844 0.950 . S
H1839 C1845 0.950 . S
H1840 C1846 0.949 . S
C1841 H1836 0.950 . S
C1841 C1843 1.327 . S
C1841 C1847 1.429 . S
C1842 C1834 1.574 . S
C1842 H1837 0.949 . S
C1842 C1848 1.368 . S
C1843 C1827 1.349 . S
C1843 H1835 0.950 . S
C1843 C1841 1.327 . S
C1844 C1832 1.349 . S
C1844 H1838 0.950 . S
C1844 C1845 1.327 . S
C1845 H1839 0.950 . S
C1845 C1844 1.327 . S
C1845 C1849 1.429 . S
C1846 C1829 1.574 . S
C1846 H1840 0.949 . S
C1846 C1850 1.368 . S
C1847 C1828 1.429 . S
C1847 C1841 1.429 . S
C1847 C1848 1.523 . S
C1848 C1829 1.368 . S
C1848 C1842 1.368 . S
C1848 C1847 1.523 . S
C1849 C1833 1.429 . S
C1849 C1845 1.429 . S
C1849 C1850 1.523 . S
C1850 C1834 1.368 . S
C1850 C1846 1.368 . S
C1850 C1849 1.523 . S
H1851 C1826 0.950 . S
H1852 C1828 0.950 . S
H1853 C1829 0.949 . S
H1854 C1831 0.950 . S
H1855 C1833 0.950 . S
C1856 C1857 1.349 . S
C1856 C1858 1.327 . S
C1856 H1881 0.950 . S
C1857 C1856 1.349 . S
C1857 C1873 1.349 . S
C1858 C1856 1.327 . S
C1858 C1877 1.429 . S
C1858 H1882 0.950 . S
C1859 C1876 1.574 . S
C1859 C1878 1.368 . S
C1859 H1883 0.949 . S
H1860 C1864 0.949 . S
C1861 C1862 1.349 . S
C1861 C1863 1.327 1_545 S
C1861 H1884 0.950 . S
C1862 C1861 1.349 . S
C1862 C1874 1.349 1_545 S
C1863 C1861 1.327 1_565 S
C1863 C1879 1.429 . S
C1863 H1885 0.950 . S
C1864 H1860 0.949 . S
C1864 C1872 1.574 . S
C1864 C1880 1.368 . S
H1865 C1873 0.950 . S
H1866 C1871 0.950 . S
H1867 C1872 0.949 . S
H1868 C1874 0.950 1_545 S
H1869 C1875 0.950 . S
H1870 C1876 0.949 . S
C1871 H1866 0.950 . S
C1871 C1873 1.327 . S
C1871 C1877 1.429 . S
C1872 C1864 1.574 . S
C1872 H1867 0.949 . S
C1872 C1878 1.368 . S
C1873 C1857 1.349 . S
C1873 H1865 0.950 . S
C1873 C1871 1.327 . S
C1874 C1862 1.349 1_565 S
C1874 H1868 0.950 1_565 S
C1874 C1875 1.327 . S
C1875 H1869 0.950 . S
C1875 C1874 1.327 . S
C1875 C1879 1.429 . S
C1876 C1859 1.574 . S
C1876 H1870 0.949 . S
C1876 C1880 1.368 . S
C1877 C1858 1.429 . S
C1877 C1871 1.429 . S
C1877 C1878 1.523 . S
C1878 C1859 1.368 . S
C1878 C1872 1.368 . S
C1878 C1877 1.523 . S
C1879 C1863 1.429 . S
C1879 C1875 1.429 . S
C1879 C1880 1.523 . S
C1880 C1864 1.368 . S
C1880 C1876 1.368 . S
C1880 C1879 1.523 . S
H1881 C1856 0.950 . S
H1882 C1858 0.950 . S
H1883 C1859 0.949 . S
H1884 C1861 0.950 . S
H1885 C1863 0.950 . S
C1886 C1887 1.349 . S
C1886 C1888 1.327 . S
C1886 H1911 0.950 . S
C1887 C1886 1.349 . S
C1887 C1903 1.349 . S
C1888 C1886 1.327 . S
C1888 C1907 1.429 . S
C1888 H1912 0.950 . S
C1889 C1906 1.574 . S
C1889 C1908 1.368 . S
C1889 H1913 0.949 . S
H1890 C1894 0.949 . S
C1891 C1892 1.349 . S
C1891 C1893 1.327 . S
C1891 H1914 0.950 . S
C1892 C1891 1.349 . S
C1892 C1904 1.349 . S
C1893 C1891 1.327 . S
C1893 C1909 1.429 . S
C1893 H1915 0.950 . S
C1894 H1890 0.949 . S
C1894 C1902 1.574 . S
C1894 C1910 1.368 . S
H1895 C1903 0.950 . S
H1896 C1901 0.950 . S
H1897 C1902 0.949 . S
H1898 C1904 0.950 . S
H1899 C1905 0.950 . S
H1900 C1906 0.949 . S
C1901 H1896 0.950 . S
C1901 C1903 1.327 . S
C1901 C1907 1.429 . S
C1902 C1894 1.574 . S
C1902 H1897 0.949 . S
C1902 C1908 1.368 . S
C1903 C1887 1.349 . S
C1903 H1895 0.950 . S
C1903 C1901 1.327 . S
C1904 C1892 1.349 . S
C1904 H1898 0.950 . S
C1904 C1905 1.327 . S
C1905 H1899 0.950 . S
C1905 C1904 1.327 . S
C1905 C1909 1.429 . S
C1906 C1889 1.574 . S
C1906 H1900 0.949 . S
C1906 C1910 1.368 . S
C1907 C1888 1.429 . S
C1907 C1901 1.429 . S
C1907 C1908 1.523 . S
C1908 C1889 1.368 . S
C1908 C1902 1.368 . S
C1908 C1907 1.523 . S
C1909 C1893 1.429 . S
C1909 C1905 1.429 . S
C1909 C1910 1.523 . S
C1910 C1894 1.368 . S
C1910 C1906 1.368 . S
C1910 C1909 1.523 . S
H1911 C1886 0.950 . S
H1912 C1888 0.950 . S
H1913 C1889 0.949 . S
H1914 C1891 0.950 . S
H1915 C1893 0.950 . S
C1916 C1917 1.349 . S
C1916 C1918 1.327 . S
C1916 H1941 0.950 . S
C1917 C1916 1.349 . S
C1917 C1933 1.349 . S
C1918 C1916 1.327 . S
C1918 C1937 1.429 . S
C1918 H1942 0.950 . S
C1919 C1936 1.574 . S
C1919 C1938 1.368 . S
C1919 H1943 0.949 . S
H1920 C1924 0.949 . S
C1921 C1922 1.349 . S
C1921 C1923 1.327 . S
C1921 H1944 0.950 . S
C1922 C1921 1.349 . S
C1922 C1934 1.349 . S
C1923 C1921 1.327 . S
C1923 C1939 1.429 . S
C1923 H1945 0.950 . S
C1924 H1920 0.949 . S
C1924 C1932 1.574 . S
C1924 C1940 1.368 . S
H1925 C1933 0.950 . S
H1926 C1931 0.950 . S
H1927 C1932 0.949 . S
H1928 C1934 0.950 . S
H1929 C1935 0.950 . S
H1930 C1936 0.949 . S
C1931 H1926 0.950 . S
C1931 C1933 1.327 . S
C1931 C1937 1.429 . S
C1932 C1924 1.574 . S
C1932 H1927 0.949 . S
C1932 C1938 1.368 . S
C1933 C1917 1.349 . S
C1933 H1925 0.950 . S
C1933 C1931 1.327 . S
C1934 C1922 1.349 . S
C1934 H1928 0.950 . S
C1934 C1935 1.327 . S
C1935 H1929 0.950 . S
C1935 C1934 1.327 . S
C1935 C1939 1.429 . S
C1936 C1919 1.574 . S
C1936 H1930 0.949 . S
C1936 C1940 1.368 . S
C1937 C1918 1.429 . S
C1937 C1931 1.429 . S
C1937 C1938 1.523 . S
C1938 C1919 1.368 . S
C1938 C1932 1.368 . S
C1938 C1937 1.523 . S
C1939 C1923 1.429 . S
C1939 C1935 1.429 . S
C1939 C1940 1.523 . S
C1940 C1924 1.368 . S
C1940 C1936 1.368 . S
C1940 C1939 1.523 . S
H1941 C1916 0.950 . S
H1942 C1918 0.950 . S
H1943 C1919 0.949 . S
H1944 C1921 0.950 . S
H1945 C1923 0.950 . S
C1946 C1947 1.349 1_565 S
C1946 C1948 1.327 . S
C1946 H1971 0.953 . S
C1947 C1946 1.349 1_545 S
C1947 C1963 1.349 . S
C1948 C1946 1.327 . S
C1948 C1967 1.429 . S
C1948 H1972 0.950 . S
C1949 C1966 1.574 . S
C1949 C1968 1.368 . S
C1949 H1973 0.949 . S
H1950 C1954 0.949 . S
C1951 C1952 1.349 . S
C1951 C1953 1.327 . S
C1951 H1974 0.950 . S
C1952 C1951 1.349 . S
C1952 C1964 1.349 . S
C1953 C1951 1.327 . S
C1953 C1969 1.429 . S
C1953 H1975 0.950 . S
C1954 H1950 0.949 . S
C1954 C1962 1.574 . S
C1954 C1970 1.368 . S
H1955 C1963 0.950 . S
H1956 C1961 0.950 . S
H1957 C1962 0.949 . S
H1958 C1964 0.950 . S
H1959 C1965 0.950 . S
H1960 C1966 0.949 . S
C1961 H1956 0.950 . S
C1961 C1963 1.327 1_565 S
C1961 C1967 1.429 . S
C1962 C1954 1.574 . S
C1962 H1957 0.949 . S
C1962 C1968 1.368 . S
C1963 C1947 1.349 . S
C1963 H1955 0.950 . S
C1963 C1961 1.327 1_545 S
C1964 C1952 1.349 . S
C1964 H1958 0.950 . S
C1964 C1965 1.327 . S
C1965 H1959 0.950 . S
C1965 C1964 1.327 . S
C1965 C1969 1.429 . S
C1966 C1949 1.574 . S
C1966 H1960 0.949 . S
C1966 C1970 1.368 . S
C1967 C1948 1.429 . S
C1967 C1961 1.429 . S
C1967 C1968 1.523 . S
C1968 C1949 1.368 . S
C1968 C1962 1.368 . S
C1968 C1967 1.523 . S
C1969 C1953 1.429 . S
C1969 C1965 1.429 . S
C1969 C1970 1.523 . S
C1970 C1954 1.368 . S
C1970 C1966 1.368 . S
C1970 C1969 1.523 . S
H1971 C1946 0.953 . S
H1972 C1948 0.950 . S
H1973 C1949 0.949 . S
H1974 C1951 0.950 . S
H1975 C1953 0.950 . S
C1976 C1977 1.349 . S
C1976 C1978 1.327 . S
C1976 H2001 0.950 . S
C1977 C1976 1.349 . S
C1977 C1993 1.349 . S
C1978 C1976 1.327 . S
C1978 C1997 1.429 . S
C1978 H2002 0.950 . S
C1979 C1996 1.574 . S
C1979 C1998 1.368 . S
C1979 H2003 0.949 . S
H1980 C1984 0.949 . S
C1981 C1982 1.349 1_545 S
C1981 C1983 1.327 . S
C1981 H2004 0.950 . S
C1982 C1981 1.349 1_565 S
C1982 C1994 1.349 . S
C1983 C1981 1.327 . S
C1983 C1999 1.429 . S
C1983 H2005 0.950 . S
C1984 H1980 0.949 . S
C1984 C1992 1.574 . S
C1984 C2000 1.368 . S
H1985 C1993 0.950 . S
H1986 C1991 0.950 . S
H1987 C1992 0.949 . S
H1988 C1994 0.950 . S
H1989 C1995 0.950 . S
H1990 C1996 0.949 . S
C1991 H1986 0.950 . S
C1991 C1993 1.327 . S
C1991 C1997 1.429 . S
C1992 C1984 1.574 . S
C1992 H1987 0.949 . S
C1992 C1998 1.368 . S
C1993 C1977 1.349 . S
C1993 H1985 0.950 . S
C1993 C1991 1.327 . S
C1994 C1982 1.349 . S
C1994 H1988 0.950 . S
C1994 C1995 1.327 1_565 S
C1995 H1989 0.950 . S
C1995 C1994 1.327 1_545 S
C1995 C1999 1.429 . S
C1996 C1979 1.574 . S
C1996 H1990 0.949 . S
C1996 C2000 1.368 . S
C1997 C1978 1.429 . S
C1997 C1991 1.429 . S
C1997 C1998 1.523 . S
C1998 C1979 1.368 . S
C1998 C1992 1.368 . S
C1998 C1997 1.523 . S
C1999 C1983 1.429 . S
C1999 C1995 1.429 . S
C1999 C2000 1.523 . S
C2000 C1984 1.368 . S
C2000 C1996 1.368 . S
C2000 C1999 1.523 . S
H2001 C1976 0.950 . S
H2002 C1978 0.950 . S
H2003 C1979 0.949 . S
H2004 C1981 0.950 . S
H2005 C1983 0.950 . S
C2006 C2007 1.349 . S
C2006 C2008 1.327 . S
C2006 H2031 0.950 . S
C2007 C2006 1.349 . S
C2007 C2023 1.349 . S
C2008 C2006 1.327 . S
C2008 C2027 1.429 . S
C2008 H2032 0.950 . S
C2009 C2026 1.574 . S
C2009 C2028 1.368 . S
C2009 H2033 0.949 . S
H2010 C2014 0.949 . S
C2011 C2012 1.349 . S
C2011 C2013 1.327 . S
C2011 H2034 0.950 . S
C2012 C2011 1.349 . S
C2012 C2024 1.349 . S
C2013 C2011 1.327 . S
C2013 C2029 1.429 . S
C2013 H2035 0.950 . S
C2014 H2010 0.949 . S
C2014 C2022 1.574 . S
C2014 C2030 1.368 . S
H2015 C2023 0.950 . S
H2016 C2021 0.950 . S
H2017 C2022 0.949 . S
H2018 C2024 0.950 . S
H2019 C2025 0.950 . S
H2020 C2026 0.949 . S
C2021 H2016 0.950 . S
C2021 C2023 1.327 . S
C2021 C2027 1.429 . S
C2022 C2014 1.574 . S
C2022 H2017 0.949 . S
C2022 C2028 1.368 . S
C2023 C2007 1.349 . S
C2023 H2015 0.950 . S
C2023 C2021 1.327 . S
C2024 C2012 1.349 . S
C2024 H2018 0.950 . S
C2024 C2025 1.327 . S
C2025 H2019 0.950 . S
C2025 C2024 1.327 . S
C2025 C2029 1.429 . S
C2026 C2009 1.574 . S
C2026 H2020 0.949 . S
C2026 C2030 1.368 . S
C2027 C2008 1.429 . S
C2027 C2021 1.429 . S
C2027 C2028 1.523 . S
C2028 C2009 1.368 . S
C2028 C2022 1.368 . S
C2028 C2027 1.523 . S
C2029 C2013 1.429 . S
C2029 C2025 1.429 . S
C2029 C2030 1.523 . S
C2030 C2014 1.368 . S
C2030 C2026 1.368 . S
C2030 C2029 1.523 . S
H2031 C2006 0.950 . S
H2032 C2008 0.950 . S
H2033 C2009 0.949 . S
H2034 C2011 0.950 . S
H2035 C2013 0.950 . S
C2036 C2037 1.349 . S
C2036 C2038 1.327 . S
C2036 H2061 0.950 . S
C2037 C2036 1.349 . S
C2037 C2053 1.349 . S
C2038 C2036 1.327 . S
C2038 C2057 1.429 . S
C2038 H2062 0.950 . S
C2039 C2056 1.574 . S
C2039 C2058 1.368 . S
C2039 H2063 0.949 . S
H2040 C2044 0.949 . S
C2041 C2042 1.349 . S
C2041 C2043 1.327 . S
C2041 H2064 0.950 . S
C2042 C2041 1.349 . S
C2042 C2054 1.349 . S
C2043 C2041 1.327 . S
C2043 C2059 1.429 . S
C2043 H2065 0.950 . S
C2044 H2040 0.949 . S
C2044 C2052 1.574 . S
C2044 C2060 1.368 . S
H2045 C2053 0.950 . S
H2046 C2051 0.950 . S
H2047 C2052 0.949 . S
H2048 C2054 0.950 . S
H2049 C2055 0.950 . S
H2050 C2056 0.949 . S
C2051 H2046 0.950 . S
C2051 C2053 1.327 . S
C2051 C2057 1.429 . S
C2052 C2044 1.574 . S
C2052 H2047 0.949 . S
C2052 C2058 1.368 . S
C2053 C2037 1.349 . S
C2053 H2045 0.950 . S
C2053 C2051 1.327 . S
C2054 C2042 1.349 . S
C2054 H2048 0.950 . S
C2054 C2055 1.327 . S
C2055 H2049 0.950 . S
C2055 C2054 1.327 . S
C2055 C2059 1.429 . S
C2056 C2039 1.574 . S
C2056 H2050 0.949 . S
C2056 C2060 1.368 . S
C2057 C2038 1.429 . S
C2057 C2051 1.429 . S
C2057 C2058 1.523 . S
C2058 C2039 1.368 . S
C2058 C2052 1.368 . S
C2058 C2057 1.523 . S
C2059 C2043 1.429 . S
C2059 C2055 1.429 . S
C2059 C2060 1.523 . S
C2060 C2044 1.368 . S
C2060 C2056 1.368 . S
C2060 C2059 1.523 . S
H2061 C2036 0.950 . S
H2062 C2038 0.950 . S
H2063 C2039 0.949 . S
H2064 C2041 0.950 . S
H2065 C2043 0.950 . S
C2066 C2067 1.349 . S
C2066 C2068 1.327 . S
C2066 H2091 0.950 . S
C2067 C2066 1.349 . S
C2067 C2083 1.349 . S
C2068 C2066 1.327 . S
C2068 C2087 1.429 . S
C2068 H2092 0.950 . S
C2069 C2086 1.574 . S
C2069 C2088 1.368 . S
C2069 H2093 0.949 . S
H2070 C2074 0.949 . S
C2071 C2072 1.349 1_545 S
C2071 C2073 1.327 . S
C2071 H2094 0.950 . S
C2072 C2071 1.349 1_565 S
C2072 C2084 1.349 . S
C2073 C2071 1.327 . S
C2073 C2089 1.429 . S
C2073 H2095 0.950 . S
C2074 H2070 0.949 . S
C2074 C2082 1.574 . S
C2074 C2090 1.368 . S
H2075 C2083 0.950 . S
H2076 C2081 0.950 . S
H2077 C2082 0.949 . S
H2078 C2084 0.950 . S
H2079 C2085 0.950 . S
H2080 C2086 0.949 . S
C2081 H2076 0.950 . S
C2081 C2083 1.327 . S
C2081 C2087 1.429 . S
C2082 C2074 1.574 . S
C2082 H2077 0.949 . S
C2082 C2088 1.368 . S
C2083 C2067 1.349 . S
C2083 H2075 0.950 . S
C2083 C2081 1.327 . S
C2084 C2072 1.349 . S
C2084 H2078 0.950 . S
C2084 C2085 1.327 1_565 S
C2085 H2079 0.950 . S
C2085 C2084 1.327 1_545 S
C2085 C2089 1.429 . S
C2086 C2069 1.574 . S
C2086 H2080 0.949 . S
C2086 C2090 1.368 . S
C2087 C2068 1.429 . S
C2087 C2081 1.429 . S
C2087 C2088 1.523 . S
C2088 C2069 1.368 . S
C2088 C2082 1.368 . S
C2088 C2087 1.523 . S
C2089 C2073 1.429 . S
C2089 C2085 1.429 . S
C2089 C2090 1.523 . S
C2090 C2074 1.368 . S
C2090 C2086 1.368 . S
C2090 C2089 1.523 . S
H2091 C2066 0.950 . S
H2092 C2068 0.950 . S
H2093 C2069 0.949 . S
H2094 C2071 0.950 . S
H2095 C2073 0.950 . S
C2096 C2097 1.349 . S
C2096 C2098 1.327 . S
C2096 H2121 0.950 . S
C2097 C2096 1.349 . S
C2097 C2113 1.349 . S
C2098 C2096 1.327 . S
C2098 C2117 1.429 . S
C2098 H2122 0.950 . S
C2099 C2116 1.574 . S
C2099 C2118 1.368 . S
C2099 H2123 0.949 . S
H2100 C2104 0.949 . S
C2101 C2102 1.349 1_565 S
C2101 C2103 1.327 . S
C2101 H2124 0.950 . S
C2102 C2101 1.349 1_545 S
C2102 C2114 1.349 . S
C2103 C2101 1.327 . S
C2103 C2119 1.429 . S
C2103 H2125 0.950 . S
C2104 H2100 0.949 . S
C2104 C2112 1.574 . S
C2104 C2120 1.368 . S
H2105 C2113 0.950 . S
H2106 C2111 0.950 . S
H2107 C2112 0.949 . S
H2108 C2114 0.950 . S
H2109 C2115 0.950 . S
H2110 C2116 0.949 . S
C2111 H2106 0.950 . S
C2111 C2113 1.327 . S
C2111 C2117 1.429 . S
C2112 C2104 1.574 . S
C2112 H2107 0.949 . S
C2112 C2118 1.368 . S
C2113 C2097 1.349 . S
C2113 H2105 0.950 . S
C2113 C2111 1.327 . S
C2114 C2102 1.349 . S
C2114 H2108 0.950 . S
C2114 C2115 1.327 1_545 S
C2115 H2109 0.950 . S
C2115 C2114 1.327 1_565 S
C2115 C2119 1.429 . S
C2116 C2099 1.574 . S
C2116 H2110 0.949 . S
C2116 C2120 1.368 . S
C2117 C2098 1.429 . S
C2117 C2111 1.429 . S
C2117 C2118 1.523 . S
C2118 C2099 1.368 . S
C2118 C2112 1.368 . S
C2118 C2117 1.523 . S
C2119 C2103 1.429 . S
C2119 C2115 1.429 . S
C2119 C2120 1.523 . S
C2120 C2104 1.368 . S
C2120 C2116 1.368 . S
C2120 C2119 1.523 . S
H2121 C2096 0.950 . S
H2122 C2098 0.950 . S
H2123 C2099 0.949 . S
H2124 C2101 0.950 . S
H2125 C2103 0.950 . S
C2126 C2127 1.349 . S
C2126 C2128 1.327 . S
C2126 H2151 0.950 . S
C2127 C2126 1.349 . S
C2127 C2143 1.349 . S
C2128 C2126 1.327 . S
C2128 C2147 1.429 . S
C2128 H2152 0.950 . S
C2129 C2146 1.574 . S
C2129 C2148 1.368 . S
C2129 H2153 0.949 . S
H2130 C2134 0.949 . S
C2131 C2132 1.349 . S
C2131 C2133 1.327 . S
C2131 H2154 0.950 . S
C2132 C2131 1.349 . S
C2132 C2144 1.349 . S
C2133 C2131 1.327 . S
C2133 C2149 1.429 . S
C2133 H2155 0.950 . S
C2134 H2130 0.949 . S
C2134 C2142 1.574 . S
C2134 C2150 1.368 . S
H2135 C2143 0.950 . S
H2136 C2141 0.950 . S
H2137 C2142 0.949 . S
H2138 C2144 0.950 . S
H2139 C2145 0.950 . S
H2140 C2146 0.949 . S
C2141 H2136 0.950 . S
C2141 C2143 1.327 . S
C2141 C2147 1.429 . S
C2142 C2134 1.574 . S
C2142 H2137 0.949 . S
C2142 C2148 1.368 . S
C2143 C2127 1.349 . S
C2143 H2135 0.950 . S
C2143 C2141 1.327 . S
C2144 C2132 1.349 . S
C2144 H2138 0.950 . S
C2144 C2145 1.327 . S
C2145 H2139 0.950 . S
C2145 C2144 1.327 . S
C2145 C2149 1.429 . S
C2146 C2129 1.574 . S
C2146 H2140 0.949 . S
C2146 C2150 1.368 . S
C2147 C2128 1.429 . S
C2147 C2141 1.429 . S
C2147 C2148 1.523 . S
C2148 C2129 1.368 . S
C2148 C2142 1.368 . S
C2148 C2147 1.523 . S
C2149 C2133 1.429 . S
C2149 C2145 1.429 . S
C2149 C2150 1.523 . S
C2150 C2134 1.368 . S
C2150 C2146 1.368 . S
C2150 C2149 1.523 . S
H2151 C2126 0.950 . S
H2152 C2128 0.950 . S
H2153 C2129 0.949 . S
H2154 C2131 0.950 . S
H2155 C2133 0.950 . S
C2156 C2157 1.349 . S
C2156 C2158 1.327 . S
C2156 H2181 0.950 . S
C2157 C2156 1.349 . S
C2157 C2173 1.349 . S
C2158 C2156 1.327 . S
C2158 C2177 1.429 . S
C2158 H2182 0.950 . S
C2159 C2176 1.574 . S
C2159 C2178 1.368 . S
C2159 H2183 0.949 . S
H2160 C2164 0.949 . S
C2161 C2162 1.349 . S
C2161 C2163 1.327 . S
C2161 H2184 0.950 . S
C2162 C2161 1.349 . S
C2162 C2174 1.349 . S
C2163 C2161 1.327 . S
C2163 C2179 1.429 . S
C2163 H2185 0.950 . S
C2164 H2160 0.949 . S
C2164 C2172 1.574 . S
C2164 C2180 1.368 . S
H2165 C2173 0.950 . S
H2166 C2171 0.950 . S
H2167 C2172 0.949 . S
H2168 C2174 0.950 . S
H2169 C2175 0.950 . S
H2170 C2176 0.949 . S
C2171 H2166 0.950 . S
C2171 C2173 1.327 . S
C2171 C2177 1.429 . S
C2172 C2164 1.574 . S
C2172 H2167 0.949 . S
C2172 C2178 1.368 . S
C2173 C2157 1.349 . S
C2173 H2165 0.950 . S
C2173 C2171 1.327 . S
C2174 C2162 1.349 . S
C2174 H2168 0.950 . S
C2174 C2175 1.327 . S
C2175 H2169 0.950 . S
C2175 C2174 1.327 . S
C2175 C2179 1.429 . S
C2176 C2159 1.574 . S
C2176 H2170 0.949 . S
C2176 C2180 1.368 . S
C2177 C2158 1.429 . S
C2177 C2171 1.429 . S
C2177 C2178 1.523 . S
C2178 C2159 1.368 . S
C2178 C2172 1.368 . S
C2178 C2177 1.523 . S
C2179 C2163 1.429 . S
C2179 C2175 1.429 . S
C2179 C2180 1.523 . S
C2180 C2164 1.368 . S
C2180 C2176 1.368 . S
C2180 C2179 1.523 . S
H2181 C2156 0.950 . S
H2182 C2158 0.950 . S
H2183 C2159 0.949 . S
H2184 C2161 0.950 . S
H2185 C2163 0.950 . S
C2186 C2187 1.349 . S
C2186 C2188 1.327 1_545 S
C2186 H2211 0.950 . S
C2187 C2186 1.349 . S
C2187 C2203 1.349 1_545 S
C2188 C2186 1.327 1_565 S
C2188 C2207 1.429 . S
C2188 H2212 0.950 . S
C2189 C2206 1.574 . S
C2189 C2208 1.368 . S
C2189 H2213 0.949 . S
H2190 C2194 0.949 . S
C2191 C2192 1.349 . S
C2191 C2193 1.327 . S
C2191 H2214 0.950 . S
C2192 C2191 1.349 . S
C2192 C2204 1.349 . S
C2193 C2191 1.327 . S
C2193 C2209 1.429 . S
C2193 H2215 0.950 . S
C2194 H2190 0.949 . S
C2194 C2202 1.574 . S
C2194 C2210 1.368 . S
H2195 C2203 0.950 . S
H2196 C2201 0.950 . S
H2197 C2202 0.949 . S
H2198 C2204 0.950 . S
H2199 C2205 0.950 . S
H2200 C2206 0.949 . S
C2201 H2196 0.950 . S
C2201 C2203 1.327 . S
C2201 C2207 1.429 . S
C2202 C2194 1.574 . S
C2202 H2197 0.949 . S
C2202 C2208 1.368 . S
C2203 C2187 1.349 1_565 S
C2203 H2195 0.950 . S
C2203 C2201 1.327 . S
C2204 C2192 1.349 . S
C2204 H2198 0.950 . S
C2204 C2205 1.327 . S
C2205 H2199 0.950 . S
C2205 C2204 1.327 . S
C2205 C2209 1.429 . S
C2206 C2189 1.574 . S
C2206 H2200 0.949 . S
C2206 C2210 1.368 . S
C2207 C2188 1.429 . S
C2207 C2201 1.429 . S
C2207 C2208 1.523 . S
C2208 C2189 1.368 . S
C2208 C2202 1.368 . S
C2208 C2207 1.523 . S
C2209 C2193 1.429 . S
C2209 C2205 1.429 . S
C2209 C2210 1.523 . S
C2210 C2194 1.368 . S
C2210 C2206 1.368 . S
C2210 C2209 1.523 . S
H2211 C2186 0.950 . S
H2212 C2188 0.950 . S
H2213 C2189 0.949 . S
H2214 C2191 0.950 . S
H2215 C2193 0.950 . S
C2216 C2217 1.349 . S
C2216 C2218 1.327 . S
C2216 H2241 0.950 . S
C2217 C2216 1.349 . S
C2217 C2233 1.349 . S
C2218 C2216 1.327 . S
C2218 C2237 1.429 . S
C2218 H2242 0.950 . S
C2219 C2236 1.574 . S
C2219 C2238 1.368 . S
C2219 H2243 0.949 . S
H2220 C2224 0.949 . S
C2221 C2222 1.349 1_545 S
C2221 C2223 1.327 . S
C2221 H2244 0.946 1_545 S
C2222 C2221 1.349 1_565 S
C2222 C2234 1.349 . S
C2223 C2221 1.327 . S
C2223 C2239 1.429 . S
C2223 H2245 0.950 . S
C2224 H2220 0.949 . S
C2224 C2232 1.574 . S
C2224 C2240 1.368 . S
H2225 C2233 0.950 . S
H2226 C2231 0.950 . S
H2227 C2232 0.949 . S
H2228 C2234 0.950 . S
H2229 C2235 0.950 . S
H2230 C2236 0.949 . S
C2231 H2226 0.950 . S
C2231 C2233 1.327 . S
C2231 C2237 1.429 . S
C2232 C2224 1.574 . S
C2232 H2227 0.949 . S
C2232 C2238 1.368 . S
C2233 C2217 1.349 . S
C2233 H2225 0.950 . S
C2233 C2231 1.327 . S
C2234 C2222 1.349 . S
C2234 H2228 0.950 . S
C2234 C2235 1.327 1_565 S
C2235 H2229 0.950 . S
C2235 C2234 1.327 1_545 S
C2235 C2239 1.429 . S
C2236 C2219 1.574 . S
C2236 H2230 0.949 . S
C2236 C2240 1.368 . S
C2237 C2218 1.429 . S
C2237 C2231 1.429 . S
C2237 C2238 1.523 . S
C2238 C2219 1.368 . S
C2238 C2232 1.368 . S
C2238 C2237 1.523 . S
C2239 C2223 1.429 . S
C2239 C2235 1.429 . S
C2239 C2240 1.523 . S
C2240 C2224 1.368 . S
C2240 C2236 1.368 . S
C2240 C2239 1.523 . S
H2241 C2216 0.950 . S
H2242 C2218 0.950 . S
H2243 C2219 0.949 . S
H2244 C2221 0.946 1_565 S
H2245 C2223 0.950 . S
C2246 C2247 1.349 . S
C2246 C2248 1.327 . S
C2246 H2271 0.950 . S
C2247 C2246 1.349 . S
C2247 C2263 1.349 . S
C2248 C2246 1.327 . S
C2248 C2267 1.429 . S
C2248 H2272 0.950 . S
C2249 C2266 1.574 . S
C2249 C2268 1.368 . S
C2249 H2273 0.949 . S
H2250 C2254 0.949 . S
C2251 C2252 1.349 . S
C2251 C2253 1.327 . S
C2251 H2274 0.950 . S
C2252 C2251 1.349 . S
C2252 C2264 1.349 . S
C2253 C2251 1.327 . S
C2253 C2269 1.429 . S
C2253 H2275 0.950 . S
C2254 H2250 0.949 . S
C2254 C2262 1.574 . S
C2254 C2270 1.368 . S
H2255 C2263 0.950 . S
H2256 C2261 0.950 . S
H2257 C2262 0.949 . S
H2258 C2264 0.950 . S
H2259 C2265 0.950 . S
H2260 C2266 0.949 . S
C2261 H2256 0.950 . S
C2261 C2263 1.327 . S
C2261 C2267 1.429 . S
C2262 C2254 1.574 . S
C2262 H2257 0.949 . S
C2262 C2268 1.368 . S
C2263 C2247 1.349 . S
C2263 H2255 0.950 . S
C2263 C2261 1.327 . S
C2264 C2252 1.349 . S
C2264 H2258 0.950 . S
C2264 C2265 1.327 . S
C2265 H2259 0.950 . S
C2265 C2264 1.327 . S
C2265 C2269 1.429 . S
C2266 C2249 1.574 . S
C2266 H2260 0.949 . S
C2266 C2270 1.368 . S
C2267 C2248 1.429 . S
C2267 C2261 1.429 . S
C2267 C2268 1.523 . S
C2268 C2249 1.368 . S
C2268 C2262 1.368 . S
C2268 C2267 1.523 . S
C2269 C2253 1.429 . S
C2269 C2265 1.429 . S
C2269 C2270 1.523 . S
C2270 C2254 1.368 . S
C2270 C2266 1.368 . S
C2270 C2269 1.523 . S
H2271 C2246 0.950 . S
H2272 C2248 0.950 . S
H2273 C2249 0.949 . S
H2274 C2251 0.950 . S
H2275 C2253 0.950 . S
C2276 C2277 1.349 . S
C2276 C2278 1.327 . S
C2276 H2301 0.950 . S
C2277 C2276 1.349 . S
C2277 C2293 1.349 . S
C2278 C2276 1.327 . S
C2278 C2297 1.429 . S
C2278 H2302 0.950 . S
C2279 C2296 1.574 . S
C2279 C2298 1.368 . S
C2279 H2303 0.949 . S
H2280 C2284 0.949 . S
C2281 C2282 1.349 . S
C2281 C2283 1.327 . S
C2281 H2304 0.950 . S
C2282 C2281 1.349 . S
C2282 C2294 1.349 . S
C2283 C2281 1.327 . S
C2283 C2299 1.429 . S
C2283 H2305 0.950 . S
C2284 H2280 0.949 . S
C2284 C2292 1.574 . S
C2284 C2300 1.368 . S
H2285 C2293 0.950 . S
H2286 C2291 0.950 . S
H2287 C2292 0.949 . S
H2288 C2294 0.950 . S
H2289 C2295 0.950 . S
H2290 C2296 0.949 . S
C2291 H2286 0.950 . S
C2291 C2293 1.327 . S
C2291 C2297 1.429 . S
C2292 C2284 1.574 . S
C2292 H2287 0.949 . S
C2292 C2298 1.368 . S
C2293 C2277 1.349 . S
C2293 H2285 0.950 . S
C2293 C2291 1.327 . S
C2294 C2282 1.349 . S
C2294 H2288 0.950 . S
C2294 C2295 1.327 . S
C2295 H2289 0.950 . S
C2295 C2294 1.327 . S
C2295 C2299 1.429 . S
C2296 C2279 1.574 . S
C2296 H2290 0.949 . S
C2296 C2300 1.368 . S
C2297 C2278 1.429 . S
C2297 C2291 1.429 . S
C2297 C2298 1.523 . S
C2298 C2279 1.368 . S
C2298 C2292 1.368 . S
C2298 C2297 1.523 . S
C2299 C2283 1.429 . S
C2299 C2295 1.429 . S
C2299 C2300 1.523 . S
C2300 C2284 1.368 . S
C2300 C2296 1.368 . S
C2300 C2299 1.523 . S
H2301 C2276 0.950 . S
H2302 C2278 0.950 . S
H2303 C2279 0.949 . S
H2304 C2281 0.950 . S
H2305 C2283 0.950 . S
C2306 C2307 1.349 . S
C2306 C2308 1.327 1_565 S
C2306 H2331 0.950 . S
C2307 C2306 1.349 . S
C2307 C2323 1.349 1_565 S
C2308 C2306 1.327 1_545 S
C2308 C2327 1.429 . S
C2308 H2332 0.950 . S
C2309 C2326 1.574 . S
C2309 C2328 1.368 . S
C2309 H2333 0.949 . S
H2310 C2314 0.949 . S
C2311 C2312 1.349 . S
C2311 C2313 1.327 . S
C2311 H2334 0.950 . S
C2312 C2311 1.349 . S
C2312 C2324 1.349 . S
C2313 C2311 1.327 . S
C2313 C2329 1.429 . S
C2313 H2335 0.950 . S
C2314 H2310 0.949 . S
C2314 C2322 1.574 . S
C2314 C2330 1.368 . S
H2315 C2323 0.949 1_565 S
H2316 C2321 0.950 . S
H2317 C2322 0.949 . S
H2318 C2324 0.950 . S
H2319 C2325 0.950 . S
H2320 C2326 0.949 . S
C2321 H2316 0.950 . S
C2321 C2323 1.327 . S
C2321 C2327 1.429 . S
C2322 C2314 1.574 . S
C2322 H2317 0.949 . S
C2322 C2328 1.368 . S
C2323 C2307 1.349 1_545 S
C2323 H2315 0.949 1_545 S
C2323 C2321 1.327 . S
C2324 C2312 1.349 . S
C2324 H2318 0.950 . S
C2324 C2325 1.327 . S
C2325 H2319 0.950 . S
C2325 C2324 1.327 . S
C2325 C2329 1.429 . S
C2326 C2309 1.574 . S
C2326 H2320 0.949 . S
C2326 C2330 1.368 . S
C2327 C2308 1.429 . S
C2327 C2321 1.429 . S
C2327 C2328 1.523 . S
C2328 C2309 1.368 . S
C2328 C2322 1.368 . S
C2328 C2327 1.523 . S
C2329 C2313 1.429 . S
C2329 C2325 1.429 . S
C2329 C2330 1.523 . S
C2330 C2314 1.368 . S
C2330 C2326 1.368 . S
C2330 C2329 1.523 . S
H2331 C2306 0.950 . S
H2332 C2308 0.950 . S
H2333 C2309 0.949 . S
H2334 C2311 0.950 . S
H2335 C2313 0.950 . S
C417 C5 1.441 . S
C422 C16 1.441 . S
C447 C42 1.441 . S
C452 C31 1.441 . S
C477 C57 1.441 . S
C482 C68 1.441 . S
C507 C83 1.441 . S
C512 C94 1.441 . S
C537 C109 1.441 . S
C542 C122 1.441 . S
C567 C133 1.441 . S
C572 C146 1.441 . S
C597 C159 1.441 . S
C602 C172 1.441 . S
C627 C185 1.441 . S
C632 C198 1.441 . S
C657 C226 1.441 . S
C662 C211 1.441 . S
C687 C250 1.441 . S
C692 C239 1.441 . S
C717 C276 1.441 . S
C722 C263 1.441 . S
C747 C304 1.441 . S
C752 C289 1.441 . S
C777 C330 1.441 . S
C782 C315 1.441 . S
C807 C356 1.441 . S
C812 C341 1.441 . S
C837 C382 1.441 . S
C842 C367 1.441 . S
C867 C406 1.441 . S
C872 C393 1.441 . S
C897 C4 1.380 . S
C902 C166 1.380 . S
C927 C23 1.380 . S
C932 C283 1.380 . S
C957 C30 1.380 . S
C962 C82 1.380 . S
C987 C49 1.380 . S
C992 C413 1.380 . S
C1017 C56 1.380 . S
C1022 C108 1.380 . S
C1047 C225 1.380 . S
C1052 C75 1.380 . S
C1077 C355 1.380 . S
C1082 C101 1.380 . S
C1107 C121 1.380 . S
C1112 C381 1.380 . S
C1137 C140 1.380 . S
C1142 C192 1.380 . S
C1167 C153 1.380 . S
C1172 C303 1.380 . S
C1197 C179 1.380 . S
C1202 C329 1.380 . S
C1227 C205 1.380 . S
C1232 C257 1.380 . S
C1257 C374 1.380 . S
C1262 C218 1.380 . S
C1287 C296 1.380 . S
C1292 C238 1.380 . S
C1317 C270 1.380 . S
C1322 C322 1.380 . S
C1347 C400 1.380 . S
C1352 C348 1.380 . S
C1377 C134 0.625 . S
C1382 C10 0.625 . S
C1407 C147 0.625 . S
C1412 C17 0.625 . S
C1437 C36 0.625 . S
C1442 C114 0.625 . S
C1467 C127 0.625 . S
C1472 C43 0.625 . S
C1497 C62 0.625 . S
C1502 C186 0.625 . S
C1527 C69 0.625 . S
C1532 C199 0.625 . S
C1557 C160 0.625 . S
C1562 C88 0.625 . S
C1587 C173 0.625 . S
C1592 C95 0.625 . S
C1617 C212 0.625 . S
C1622 C342 0.625 . S
C1647 C361 0.625 . S
C1652 C231 0.625 . S
C1677 C316 0.625 . S
C1682 C244 0.625 . S
C1707 C251 0.625 . S
C1712 C335 0.625 . S
C1737 C394 0.625 . S
C1742 C264 0.625 . S
C1767 C277 0.625 . S
C1772 C407 0.625 . S
C1797 C368 0.625 . S
C1802 C290 0.625 . S
C1827 C387 0.625 . S
C1832 C309 0.625 . S
C1857 C135 1.806 . S
C1862 C3 1.806 . S
C1887 C148 1.806 . S
C1892 C18 1.806 . S
C1917 C107 1.806 . S
C1922 C29 1.806 . S
C1947 C44 1.806 . S
C1952 C120 1.806 . S
C1977 C187 1.806 . S
C1982 C55 1.806 . S
C2007 C200 1.806 . S
C2012 C70 1.806 . S
C2037 C161 1.806 . S
C2042 C81 1.806 . S
C2067 C174 1.806 . S
C2072 C96 1.806 . S
C2097 C343 1.806 . S
C2102 C213 1.806 . S
C2127 C354 1.806 . S
C2132 C224 1.806 . S
C2157 C317 1.806 . S
C2162 C237 1.806 . S
C2187 C252 1.806 . S
C2192 C328 1.806 . S
C2217 C395 1.806 . S
C2222 C265 1.806 . S
C2247 C278 1.806 . S
C2252 C408 1.806 . S
C2277 C369 1.806 . S
C2282 C291 1.806 . S
C2307 C302 1.806 . S
C2312 C380 1.806 . S
