# Generated by pormake.
# Topology usf, (4)-cn, num edge types: 1
# Building blocks:
#     Node 0, Type 0, BuildingBlock: MUDLON_clean_sbu_0, # of connection points: 4
#     Node 1, Type 0, BuildingBlock: MUDLON_clean_sbu_0, # of connection points: 4
#     Node 2, Type 0, BuildingBlock: MUDLON_clean_sbu_0, # of connection points: 4
#     Node 3, Type 0, BuildingBlock: MUDLON_clean_sbu_0, # of connection points: 4
#     Node 4, Type 0, BuildingBlock: MUDLON_clean_sbu_0, # of connection points: 4
#     Node 5, Type 0, BuildingBlock: MUDLON_clean_sbu_0, # of connection points: 4
#     Node 6, Type 0, BuildingBlock: MUDLON_clean_sbu_0, # of connection points: 4
#     Node 7, Type 0, BuildingBlock: MUDLON_clean_sbu_0, # of connection points: 4
#     Node 8, Type 0, BuildingBlock: MUDLON_clean_sbu_0, # of connection points: 4
#     Node 9, Type 0, BuildingBlock: MUDLON_clean_sbu_0, # of connection points: 4
#     Node 10, Type 0, BuildingBlock: MUDLON_clean_sbu_0, # of connection points: 4
#     Node 11, Type 0, BuildingBlock: MUDLON_clean_sbu_0, # of connection points: 4
#     Node 12, Type 0, BuildingBlock: MUDLON_clean_sbu_0, # of connection points: 4
#     Node 13, Type 0, BuildingBlock: MUDLON_clean_sbu_0, # of connection points: 4
#     Node 14, Type 0, BuildingBlock: MUDLON_clean_sbu_0, # of connection points: 4
#     Node 15, Type 0, BuildingBlock: MUDLON_clean_sbu_0, # of connection points: 4
#     Node 16, Type 0, BuildingBlock: MUDLON_clean_sbu_0, # of connection points: 4
#     Node 17, Type 0, BuildingBlock: MUDLON_clean_sbu_0, # of connection points: 4
#     Edge 18, Type (0, 0), BuildingBlock: MIFKUJ_clean_linker_0, # of connection points: 2
#     Edge 19, Type (0, 0), BuildingBlock: MIFKUJ_clean_linker_0, # of connection points: 2
#     Edge 20, Type (0, 0), BuildingBlock: MIFKUJ_clean_linker_0, # of connection points: 2
#     Edge 21, Type (0, 0), BuildingBlock: MIFKUJ_clean_linker_0, # of connection points: 2
#     Edge 22, Type (0, 0), BuildingBlock: MIFKUJ_clean_linker_0, # of connection points: 2
#     Edge 23, Type (0, 0), BuildingBlock: MIFKUJ_clean_linker_0, # of connection points: 2
#     Edge 24, Type (0, 0), BuildingBlock: MIFKUJ_clean_linker_0, # of connection points: 2
#     Edge 25, Type (0, 0), BuildingBlock: MIFKUJ_clean_linker_0, # of connection points: 2
#     Edge 26, Type (0, 0), BuildingBlock: MIFKUJ_clean_linker_0, # of connection points: 2
#     Edge 27, Type (0, 0), BuildingBlock: MIFKUJ_clean_linker_0, # of connection points: 2
#     Edge 28, Type (0, 0), BuildingBlock: MIFKUJ_clean_linker_0, # of connection points: 2
#     Edge 29, Type (0, 0), BuildingBlock: MIFKUJ_clean_linker_0, # of connection points: 2
#     Edge 30, Type (0, 0), BuildingBlock: MIFKUJ_clean_linker_0, # of connection points: 2
#     Edge 31, Type (0, 0), BuildingBlock: MIFKUJ_clean_linker_0, # of connection points: 2
#     Edge 32, Type (0, 0), BuildingBlock: MIFKUJ_clean_linker_0, # of connection points: 2
#     Edge 33, Type (0, 0), BuildingBlock: MIFKUJ_clean_linker_0, # of connection points: 2
#     Edge 34, Type (0, 0), BuildingBlock: MIFKUJ_clean_linker_0, # of connection points: 2
#     Edge 35, Type (0, 0), BuildingBlock: MIFKUJ_clean_linker_0, # of connection points: 2
#     Edge 36, Type (0, 0), BuildingBlock: MIFKUJ_clean_linker_0, # of connection points: 2
#     Edge 37, Type (0, 0), BuildingBlock: MIFKUJ_clean_linker_0, # of connection points: 2
#     Edge 38, Type (0, 0), BuildingBlock: MIFKUJ_clean_linker_0, # of connection points: 2
#     Edge 39, Type (0, 0), BuildingBlock: MIFKUJ_clean_linker_0, # of connection points: 2
#     Edge 40, Type (0, 0), BuildingBlock: MIFKUJ_clean_linker_0, # of connection points: 2
#     Edge 41, Type (0, 0), BuildingBlock: MIFKUJ_clean_linker_0, # of connection points: 2
#     Edge 42, Type (0, 0), BuildingBlock: MIFKUJ_clean_linker_0, # of connection points: 2
#     Edge 43, Type (0, 0), BuildingBlock: MIFKUJ_clean_linker_0, # of connection points: 2
#     Edge 44, Type (0, 0), BuildingBlock: MIFKUJ_clean_linker_0, # of connection points: 2
#     Edge 45, Type (0, 0), BuildingBlock: MIFKUJ_clean_linker_0, # of connection points: 2
#     Edge 46, Type (0, 0), BuildingBlock: MIFKUJ_clean_linker_0, # of connection points: 2
#     Edge 47, Type (0, 0), BuildingBlock: MIFKUJ_clean_linker_0, # of connection points: 2
#     Edge 48, Type (0, 0), BuildingBlock: MIFKUJ_clean_linker_0, # of connection points: 2
#     Edge 49, Type (0, 0), BuildingBlock: MIFKUJ_clean_linker_0, # of connection points: 2
#     Edge 50, Type (0, 0), BuildingBlock: MIFKUJ_clean_linker_0, # of connection points: 2
#     Edge 51, Type (0, 0), BuildingBlock: MIFKUJ_clean_linker_0, # of connection points: 2
#     Edge 52, Type (0, 0), BuildingBlock: MIFKUJ_clean_linker_0, # of connection points: 2
#     Edge 53, Type (0, 0), BuildingBlock: MIFKUJ_clean_linker_0, # of connection points: 2
# Relax obj value: 0.161
# Max RMSD: 0.154
# Mean RMSD: 0.149
data_MOF--net-usf--node1-MUDLON_clean_sbu_0--edge1-MIFKUJ_clean_linker_0
_symmetry_space_group_name_H-M    P1
_symmetry_Int_Tables_number       1
_symmetry_cell_setting            triclinic
loop_
_symmetry_equiv_pos_as_xyz
'x, y, z'
_cell_length_a     64.939467
_cell_length_b     64.827701
_cell_length_c     37.882652
_cell_angle_alpha  89.832253
_cell_angle_beta   90.126168
_cell_angle_gamma 119.99382
loop_
_atom_site_label
_atom_site_type_symbol
_atom_site_fract_x
_atom_site_fract_y
_atom_site_fract_z
_atom_type_partial_charge
Mg0 Mg 0.97848 0.49789 0.04028 0.0
C1 C 0.98743 0.46468 0.99351 0.0
O2 O 0.99027 0.48092 0.97017 0.0
C3 C 0.94603 0.51174 0.07504 0.0
O4 O 0.96669 0.52522 0.09023 0.0
C5 C 0.98302 0.53082 0.98108 0.0
O6 O 0.96113 0.52344 0.99142 0.0
O7 O 0.99554 0.52415 0.9983 0.0
O8 O 0.9804 0.46594 0.02448 0.0
O9 O 0.99663 0.5084 0.09086 0.0
C10 C 0.98704 0.49202 0.11397 0.0
O11 O 0.97045 0.47076 0.10372 0.0
O12 O 0.94433 0.49669 0.0518 0.0
Mg13 Mg 0.52798 0.54115 0.00747 0.0
C14 C 0.55016 0.5908 0.97769 0.0
O15 O 0.56378 0.58289 0.96522 0.0
C16 C 0.48587 0.49138 0.01132 0.0
O17 O 0.49835 0.48937 0.98572 0.0
C18 C 0.52849 0.53207 0.93052 0.0
O19 O 0.5148 0.54161 0.93228 0.0
O20 O 0.53765 0.52969 0.95891 0.0
O21 O 0.5326 0.57695 0.99725 0.0
O22 O 0.54953 0.54373 0.05337 0.0
C23 C 0.54867 0.52505 0.06584 0.0
O24 O 0.53739 0.50511 0.04789 0.0
O25 O 0.49277 0.51201 0.02413 0.0
Mg26 Mg 0.54624 0.9899 0.04002 0.0
C27 C 0.55584 0.99901 0.96413 0.0
O28 O 0.55418 0.97818 0.96937 0.0
C29 C 0.55806 0.02009 0.10592 0.0
O30 O 0.57942 0.02432 0.0974 0.0
C31 C 0.49716 0.96461 0.01505 0.0
O32 O 0.50467 0.98752 0.01262 0.0
O33 O 0.51139 0.95832 0.02795 0.0
O34 O 0.55397 1.01 0.99064 0.0
O35 O 0.57751 0.98639 0.05433 0.0
C36 C 0.59736 1.00147 0.04052 0.0
O37 O 0.59747 0.01619 0.01655 0.0
O38 O 0.54075 1.00739 0.08537 0.0
Mg39 Mg 0.49936 0.01706 0.5374 0.0
C40 C 0.49658 0.97513 0.49581 0.0
O41 O 0.49039 0.9848 0.47044 0.0
C42 C 0.46161 0.01926 0.5822 0.0
O43 O 0.47409 0.01617 0.60684 0.0
C44 C 0.50096 0.03616 0.46465 0.0
O45 O 0.47806 0.02554 0.4713 0.0
O46 O 0.51495 0.03725 0.48909 0.0
O47 O 0.49856 0.98309 0.52714 0.0
O48 O 0.52196 0.03264 0.5837 0.0
C49 C 0.53281 0.02281 0.59744 0.0
O50 O 0.53257 1.00492 0.58091 0.0
O51 O 0.46671 0.01831 0.54993 0.0
Mg52 Mg 1.01448 0.5527 0.54337 0.0
C53 C 0.04079 0.60164 0.52151 0.0
O54 O 0.01904 0.59636 0.52972 0.0
C55 C 1.00997 0.50906 0.58197 0.0
O56 O 1.01286 0.52264 0.60932 0.0
C57 C 0.97941 0.52716 0.48451 0.0
O58 O 0.97631 0.50831 0.50205 0.0
O59 O 0.99137 0.54753 0.49875 0.0
O60 O 0.04633 0.58543 0.52543 0.0
O61 O 1.00517 0.56176 0.5939 0.0
C62 C 0.0231 0.57351 0.61388 0.0
O63 O 0.04435 0.58018 0.60123 0.0
O64 O 1.01259 0.51794 0.55107 0.0
Mg65 Mg 0.54609 0.50179 0.51357 0.0
C66 C 0.49393 0.49531 0.52135 0.0
O67 O 0.49862 0.50171 0.5546 0.0
C68 C 0.58243 0.53954 0.56266 0.0
O69 O 0.56758 0.52458 0.58612 0.0
C70 C 0.56203 0.51416 0.44141 0.0
O71 O 0.56256 0.5329 0.45558 0.0
O72 O 0.5564 0.49614 0.46111 0.0
O73 O 0.51011 0.4957 0.50191 0.0
O74 O 0.54504 0.47899 0.55704 0.0
C75 C 0.52647 0.46678 0.57558 0.0
O76 O 0.50576 0.46174 0.56244 0.0
O77 O 0.57626 0.53641 0.53023 0.0
Mg78 Mg 0.67539 0.86067 0.37098 0.0
C79 C 0.64709 0.88298 0.39075 0.0
O80 O 0.66945 0.89984 0.39351 0.0
C81 C 0.69024 0.82389 0.36339 0.0
O82 O 0.70614 0.83926 0.38535 0.0
C83 C 0.68419 0.85447 0.44558 0.0
O84 O 0.6648 0.83443 0.43767 0.0
O85 O 0.6939 0.87025 0.42163 0.0
O86 O 0.64272 0.8624 0.38065 0.0
O87 O 0.6951 0.88545 0.32846 0.0
C88 C 0.68341 0.88942 0.30505 0.0
O89 O 0.66042 0.88036 0.30943 0.0
O90 O 0.67338 0.82722 0.35312 0.0
Mg91 Mg 0.2112 0.88882 0.35943 0.0
C92 C 0.21031 0.86772 0.28921 0.0
O93 O 0.18937 0.85198 0.30165 0.0
C94 C 0.23983 0.9135 0.42384 0.0
O95 O 0.23054 0.92699 0.41686 0.0
C96 C 0.20217 0.92575 0.32223 0.0
O97 O 0.19599 0.91061 0.29596 0.0
O98 O 0.20675 0.92001 0.35223 0.0
O99 O 0.2244 0.88494 0.3088 0.0
O100 O 0.18168 0.85382 0.37588 0.0
C101 C 0.18897 0.83911 0.38169 0.0
O102 O 0.2116 0.84643 0.37646 0.0
O103 O 0.23645 0.89714 0.40219 0.0
Mg104 Mg 0.20473 0.35597 0.36492 0.0
C105 C 0.20082 0.35757 0.28679 0.0
O106 O 0.19246 0.33488 0.29323 0.0
C107 C 0.18191 0.36564 0.42711 0.0
O108 O 0.16518 0.34389 0.41937 0.0
C109 C 0.16794 0.30091 0.35135 0.0
O110 O 0.18608 0.29866 0.34129 0.0
O111 O 0.17168 0.3209 0.36302 0.0
O112 O 0.20814 0.37205 0.3126 0.0
O113 O 0.23927 0.35987 0.3801 0.0
C114 C 0.25629 0.38117 0.37566 0.0
O115 O 0.25145 0.39648 0.36036 0.0
O116 O 0.19986 0.37607 0.40686 0.0
Mg117 Mg 0.1592 0.34729 0.86209 0.0
C118 C 0.11848 0.35658 0.86868 0.0
O119 O 0.13056 0.37011 0.8419 0.0
C120 C 0.16527 0.30785 0.82774 0.0
O121 O 0.15806 0.31492 0.80022 0.0
C122 C 0.19741 0.36683 0.91843 0.0
O123 O 0.19941 0.34852 0.90848 0.0
O124 O 0.18373 0.37188 0.90109 0.0
O125 O 0.12509 0.34271 0.88203 0.0
O126 O 0.16459 0.36213 0.80913 0.0
C127 C 0.18351 0.37942 0.79656 0.0
O128 O 0.20225 0.3909 0.81696 0.0
O129 O 0.16558 0.31679 0.85788 0.0
Mg130 Mg 0.69036 0.88531 0.86899 0.0
C131 C 0.70751 0.8643 0.81306 0.0
O132 O 0.6893 0.84457 0.82497 0.0
C133 C 0.72214 0.90868 0.93661 0.0
O134 O 0.73725 0.92633 0.91655 0.0
C135 C 0.69308 0.93439 0.86791 0.0
O136 O 0.69537 0.93309 0.90217 0.0
O137 O 0.68822 0.91626 0.84902 0.0
O138 O 0.7138 0.88363 0.8295 0.0
O139 O 0.6586 0.84928 0.87105 0.0
C140 C 0.64786 0.8404 0.90013 0.0
O141 O 0.65337 0.85433 0.92783 0.0
O142 O 0.70376 0.89134 0.9229 0.0
Mg143 Mg 0.2146 0.8359 0.85127 0.0
C144 C 0.23854 0.85236 0.78224 0.0
O145 O 0.24156 0.83422 0.78956 0.0
C146 C 0.1956 0.84131 0.91887 0.0
O147 O 0.18227 0.81844 0.91238 0.0
C148 C 0.17077 0.80347 0.80723 0.0
O149 O 0.18504 0.81796 0.78284 0.0
O150 O 0.17884 0.8053 0.83853 0.0
O151 O 0.22765 0.85816 0.80442 0.0
O152 O 0.24505 0.83261 0.8702 0.0
C153 C 0.26309 0.85348 0.87346 0.0
O154 O 0.26053 0.87172 0.86483 0.0
O155 O 0.2102 0.85453 0.89536 0.0
Mg156 Mg 0.34384 0.19079 0.71549 0.0
C157 C 0.31118 0.20371 0.75271 0.0
O158 O 0.33148 0.21595 0.76947 0.0
C159 C 0.33569 0.13795 0.69944 0.0
O160 O 0.31633 0.12787 0.7188 0.0
C161 C 0.35778 0.18484 0.78684 0.0
O162 O 0.33987 0.16379 0.77862 0.0
O163 O 0.36489 0.20143 0.76399 0.0
O164 O 0.30987 0.1897 0.72802 0.0
O165 O 0.35936 0.21548 0.67142 0.0
C166 C 0.34482 0.21115 0.64614 0.0
O167 O 0.32251 0.19456 0.65067 0.0
O168 O 0.34691 0.16048 0.69532 0.0
Mg169 Mg 0.86298 0.21265 0.69454 0.0
C170 C 0.86636 0.18703 0.6296 0.0
O171 O 0.8476 0.16891 0.64389 0.0
C172 C 0.8875 0.2293 0.76434 0.0
O173 O 0.87956 0.24421 0.75983 0.0
C174 C 0.87032 0.25682 0.65522 0.0
O175 O 0.86581 0.24229 0.6285 0.0
O176 O 0.8678 0.24853 0.68651 0.0
O177 O 0.87706 0.20659 0.64631 0.0
O178 O 0.82797 0.18078 0.705 0.0
C179 C 0.82075 0.17483 0.73668 0.0
O180 O 0.83254 0.18988 0.76216 0.0
O181 O 0.88433 0.2146 0.73988 0.0
Mg182 Mg 0.88071 0.70209 0.68221 0.0
C183 C 0.89457 0.709 0.60768 0.0
O184 O 0.89354 0.68889 0.61661 0.0
C185 C 0.85791 0.71814 0.73785 0.0
O186 O 0.83867 0.70446 0.71946 0.0
C187 C 0.83256 0.67522 0.64891 0.0
O188 O 0.84288 0.69569 0.63212 0.0
O189 O 0.84436 0.67157 0.67275 0.0
O190 O 0.89092 0.72065 0.63144 0.0
O191 O 0.91032 0.69663 0.69948 0.0
C192 C 0.931 0.71212 0.68866 0.0
O193 O 0.93289 0.72856 0.66644 0.0
O194 O 0.87793 0.72201 0.72635 0.0
Mg195 Mg 0.82494 0.68303 0.1808 0.0
C196 C 0.78902 0.68498 0.22981 0.0
O197 O 0.80304 0.68304 0.25298 0.0
C198 C 0.82505 0.64073 0.14474 0.0
O199 O 0.82219 0.65106 0.11678 0.0
C200 C 0.85924 0.69407 0.2415 0.0
O201 O 0.85576 0.67297 0.23275 0.0
O202 O 0.84998 0.70354 0.22257 0.0
O203 O 0.79239 0.68305 0.19712 0.0
O204 O 0.83573 0.701 0.12981 0.0
C205 C 0.81949 0.69916 0.10902 0.0
O206 O 0.79734 0.68777 0.12 0.0
O207 O 0.82489 0.64903 0.17518 0.0
Mg208 Mg 0.3586 0.21714 0.20578 0.0
C209 C 0.37559 0.19414 0.15197 0.0
O210 O 0.3563 0.17485 0.16246 0.0
C211 C 0.37655 0.24272 0.27651 0.0
O212 O 0.37542 0.25983 0.25957 0.0
C213 C 0.37883 0.26491 0.17594 0.0
O214 O 0.39659 0.26113 0.18216 0.0
O215 O 0.35794 0.24856 0.18444 0.0
O216 O 0.38208 0.21357 0.16825 0.0
O217 O 0.3262 0.18199 0.20707 0.0
C218 C 0.31205 0.17409 0.23329 0.0
O219 O 0.31452 0.18866 0.25906 0.0
O220 O 0.37174 0.22374 0.26005 0.0
Mg221 Mg 0.88405 0.15133 0.19321 0.0
C222 C 0.89794 0.16135 0.11833 0.0
O223 O 0.89413 0.1396 0.1228 0.0
C224 C 0.86328 0.15422 0.25958 0.0
O225 O 0.8538 0.13127 0.25374 0.0
C226 C 0.83776 0.1203 0.15691 0.0
O227 O 0.84593 0.14112 0.14153 0.0
O228 O 0.85038 0.11808 0.18089 0.0
O229 O 0.89551 0.17207 0.14467 0.0
O230 O 0.91497 0.15127 0.21736 0.0
C231 C 0.93494 0.15927 0.20183 0.0
O232 O 0.93638 0.16393 0.1679 0.0
O233 O 0.87606 0.16864 0.23552 0.0
H234 H 0.99703 0.56358 0.43627 0.0
H235 H 0.99884 0.56003 0.37245 0.0
H236 H 0.95534 0.48364 0.38093 0.0
H237 H 0.95403 0.48699 0.44499 0.0
H238 H 0.99463 0.49529 0.34574 0.0
H239 H 0.93566 0.5202 0.34093 0.0
H240 H 0.91983 0.54693 0.35377 0.0
H241 H 0.97971 0.60458 0.30171 0.0
H242 H 0.99602 0.57824 0.28886 0.0
H243 H 0.96878 0.4607 0.16861 0.0
H244 H 0.9692 0.46968 0.23096 0.0
H245 H 1.01341 0.54468 0.20882 0.0
H246 H 1.01256 0.53582 0.14576 0.0
H247 H 0.97754 0.53733 0.25062 0.0
H248 H 0.0358 0.51344 0.25242 0.0
H249 H 0.05332 0.48817 0.23981 0.0
H250 H 0.99746 0.43065 0.2983 0.0
H251 H 0.9794 0.45546 0.31086 0.0
C252 C 0.98729 0.54604 0.42453 0.0
C253 C 0.97553 0.52552 0.44581 0.0
C254 C 0.98835 0.54405 0.38791 0.0
C255 C 0.9773 0.52155 0.37181 0.0
C256 C 0.96416 0.50118 0.39279 0.0
C257 C 0.9633 0.50313 0.42941 0.0
C258 C 0.98125 0.51897 0.33382 0.0
C259 C 0.99053 0.5042 0.32492 0.0
C260 C 0.97707 0.53153 0.30673 0.0
C261 C 0.96716 0.5473 0.31422 0.0
C262 C 0.94553 0.53861 0.33243 0.0
C263 C 0.93645 0.55368 0.33965 0.0
C264 C 0.94878 0.57745 0.32863 0.0
C265 C 0.97018 0.58617 0.31025 0.0
C266 C 0.97933 0.57117 0.30294 0.0
C267 C 0.97893 0.47911 0.17694 0.0
C268 C 0.99066 0.49754 0.15216 0.0
C269 C 0.97921 0.48422 0.21273 0.0
C270 C 0.99148 0.50785 0.2247 0.0
C271 C 1.00382 0.52631 0.20018 0.0
C272 C 1.00349 0.5212 0.1642 0.0
C273 C 0.99024 0.51308 0.26256 0.0
C274 C 0.98167 0.52846 0.27147 0.0
C275 C 0.99531 0.50128 0.28978 0.0
C276 C 1.00614 0.48628 0.28236 0.0
C277 C 0.02715 0.49535 0.26238 0.0
C278 C 0.0372 0.48111 0.25528 0.0
C279 C 0.02649 0.45781 0.26819 0.0
C280 C 1.00573 0.4487 0.2883 0.0
C281 C 0.9956 0.46286 0.29546 0.0
H282 H 0.0343 0.44681 0.26266 0.0
H283 H 0.94173 0.58909 0.33427 0.0
H284 H 0.57671 0.55123 0.39575 0.0
H285 H 0.57719 0.55038 0.3316 0.0
H286 H 0.55517 0.47568 0.33409 0.0
H287 H 0.5545 0.47629 0.39908 0.0
H288 H 0.59122 0.50393 0.28063 0.0
H289 H 0.51413 0.48699 0.31868 0.0
H290 H 0.48567 0.49308 0.35376 0.0
H291 H 0.51238 0.56239 0.30755 0.0
H292 H 0.54129 0.55688 0.27262 0.0
H293 H 0.55184 0.48924 0.09922 0.0
H294 H 0.5574 0.48564 0.16235 0.0
H295 H 0.56815 0.55613 0.17926 0.0
H296 H 0.56211 0.55963 0.11634 0.0
H297 H 0.53563 0.52531 0.22328 0.0
H298 H 0.61388 0.54292 0.18692 0.0
H299 H 0.6428 0.53711 0.15259 0.0
H300 H 0.61398 0.46655 0.19519 0.0
H301 H 0.58467 0.47183 0.22944 0.0
C302 C 0.5722 0.53459 0.38287 0.0
C303 C 0.5653 0.51374 0.40266 0.0
C304 C 0.5725 0.53418 0.34609 0.0
C305 C 0.56592 0.51292 0.32805 0.0
C306 C 0.56027 0.49227 0.34755 0.0
C307 C 0.55987 0.49264 0.38464 0.0
C308 C 0.5635 0.51237 0.28898 0.0
C309 C 0.57881 0.50819 0.26797 0.0
C310 C 0.54753 0.51828 0.27254 0.0
C311 C 0.53001 0.52159 0.29325 0.0
C312 C 0.51407 0.50361 0.3162 0.0
C313 C 0.49783 0.50694 0.33603 0.0
C314 C 0.49725 0.52812 0.33294 0.0
C315 C 0.51286 0.546 0.30994 0.0
C316 C 0.52916 0.54277 0.29009 0.0
C317 C 0.55569 0.50411 0.11632 0.0
C318 C 0.55623 0.5246 0.10275 0.0
C319 C 0.55903 0.50208 0.15244 0.0
C320 C 0.56312 0.52058 0.17571 0.0
C321 C 0.56484 0.54153 0.16191 0.0
C322 C 0.56154 0.54358 0.12583 0.0
C323 C 0.56385 0.51756 0.21465 0.0
C324 C 0.54802 0.52093 0.23574 0.0
C325 C 0.57931 0.51087 0.23099 0.0
C326 C 0.59692 0.50768 0.21045 0.0
C327 C 0.61358 0.52609 0.18874 0.0
C328 C 0.63007 0.52291 0.16934 0.0
C329 C 0.63018 0.50145 0.17163 0.0
C330 C 0.61385 0.48315 0.1934 0.0
C331 C 0.59731 0.48624 0.21283 0.0
H332 H 0.64297 0.49902 0.1566 0.0
H333 H 0.48467 0.53067 0.34831 0.0
H334 H 0.59075 0.04365 0.15786 0.0
H335 H 0.58341 0.05181 0.218 0.0
H336 H 0.50877 0.02098 0.1944 0.0
H337 H 0.51595 0.01279 0.13394 0.0
H338 H 0.52574 0.06163 0.23471 0.0
H339 H 0.52859 0.98873 0.23653 0.0
H340 H 0.54604 0.96306 0.22674 0.0
H341 H 0.60526 1.00836 0.29306 0.0
H342 H 0.58832 0.0345 0.30286 0.0
H343 H 0.47457 0.03057 0.40548 0.0
H344 H 0.48715 0.03399 0.3442 0.0
H345 H 0.55917 0.05847 0.3782 0.0
H346 H 0.54653 0.05447 0.43986 0.0
H347 H 0.54629 0.02413 0.33258 0.0
H348 H 0.54255 0.09568 0.33447 0.0
H349 H 0.52498 0.12109 0.34553 0.0
H350 H 0.46816 0.07917 0.27342 0.0
H351 H 0.48521 0.05329 0.26227 0.0
C352 C 0.57278 0.03882 0.16525 0.0
C353 C 0.55389 0.02739 0.14108 0.0
C354 C 0.56862 0.04342 0.19974 0.0
C355 C 0.5455 0.03668 0.21087 0.0
C356 C 0.52675 0.02625 0.18641 0.0
C357 C 0.53088 0.02156 0.15187 0.0
C358 C 0.54073 0.03962 0.24835 0.0
C359 C 0.53003 0.05328 0.25614 0.0
C360 C 0.54695 0.02927 0.27637 0.0
C361 C 0.55732 0.01374 0.27007 0.0
C362 C 0.54546 0.99336 0.24872 0.0
C363 C 0.55523 0.97869 0.24325 0.0
C364 C 0.57678 0.9841 0.25922 0.0
C365 C 0.58859 1.0042 0.28069 0.0
C366 C 0.57891 0.01895 0.28621 0.0
C367 C 0.49319 0.03711 0.40002 0.0
C368 C 0.50952 0.04215 0.42768 0.0
C369 C 0.5004 0.03917 0.36482 0.0
C370 C 0.52417 0.04664 0.35641 0.0
C371 C 0.54072 0.05265 0.38397 0.0
C372 C 0.53349 0.05046 0.41925 0.0
C373 C 0.53121 0.04613 0.31915 0.0
C374 C 0.54225 0.0328 0.31131 0.0
C375 C 0.52539 0.05687 0.29117 0.0
C376 C 0.51508 0.07242 0.29776 0.0
C377 C 0.52621 0.09176 0.32117 0.0
C378 C 0.51636 0.10627 0.32742 0.0
C379 C 0.49544 0.10172 0.31025 0.0
C380 C 0.48436 0.08267 0.28672 0.0
C381 C 0.49413 0.06809 0.28039 0.0
H382 H 0.48784 0.11298 0.31512 0.0
H383 H 0.58429 0.9727 0.25501 0.0
H384 H 0.05755 0.58951 0.66427 0.0
H385 H 0.05248 0.58823 0.7281 0.0
H386 H 0.9775 0.56193 0.71472 0.0
H387 H 0.98224 0.5626 0.65029 0.0
H388 H 1.0072 0.60161 0.77248 0.0
H389 H 0.98307 0.52137 0.73183 0.0
H390 H 0.98822 0.49196 0.69767 0.0
H391 H 0.05492 0.51411 0.74956 0.0
H392 H 0.05015 0.54377 0.78394 0.0
H393 H 0.95936 0.54534 0.93717 0.0
H394 H 0.96958 0.55957 0.87667 0.0
H395 H 0.03541 0.5588 0.88626 0.0
H396 H 0.025 0.54392 0.9468 0.0
H397 H 1.01239 0.53545 0.82995 0.0
H398 H 0.03356 0.61123 0.87782 0.0
H399 H 0.02856 0.64041 0.9128 0.0
H400 H 0.96941 0.62874 0.84792 0.0
H401 H 0.97367 0.59904 0.81303 0.0
C402 C 0.03999 0.58379 0.67471 0.0
C403 C 0.02023 0.57595 0.65214 0.0
C404 C 0.03718 0.58312 0.71124 0.0
C405 C 1.01465 0.57495 0.72595 0.0
C406 C 0.99505 0.56838 0.70367 0.0
C407 C 0.99778 0.5687 0.66696 0.0
C408 C 1.01146 0.57113 0.76448 0.0
C409 C 1.00799 0.58701 0.78521 0.0
C410 C 1.01336 0.55257 0.78088 0.0
C411 C 1.01639 0.53495 0.76009 0.0
C412 C 0.99895 0.52013 0.73566 0.0
C413 C 1.00176 0.50338 0.71634 0.0
C414 C 0.02195 0.50124 0.7213 0.0
C415 C 0.03932 0.51582 0.74569 0.0
C416 C 0.03655 0.53257 0.76514 0.0
C417 C 0.97624 0.54859 0.92671 0.0
C418 C 0.99128 0.54328 0.94676 0.0
C419 C 0.98213 0.5569 0.89208 0.0
C420 C 1.00332 0.56037 0.87687 0.0
C421 C 0.01894 0.55622 0.89742 0.0
C422 C 1.01301 0.5478 0.93208 0.0
C423 C 1.00785 0.56582 0.83859 0.0
C424 C 1.01167 0.55021 0.81765 0.0
C425 C 1.00634 0.58473 0.8222 0.0
C426 C 1.00378 0.60268 0.84303 0.0
C427 C 0.01931 0.61467 0.87123 0.0
C428 C 1.0166 0.6313 0.89107 0.0
C429 C 0.9986 0.63633 0.8827 0.0
C430 C 0.9833 0.62477 0.85443 0.0
C431 C 0.98585 0.60802 0.83463 0.0
H432 H 0.99659 0.64929 0.89802 0.0
H433 H 0.02409 0.48823 0.70637 0.0
H434 H 0.56749 0.48171 0.61382 0.0
H435 H 0.57225 0.48794 0.67757 0.0
H436 H 0.49625 0.45561 0.68908 0.0
H437 H 0.49131 0.44912 0.62553 0.0
H438 H 0.56186 0.5167 0.71199 0.0
H439 H 0.47896 0.43428 0.77178 0.0
H440 H 0.4553 0.39093 0.76201 0.0
H441 H 0.51543 0.39184 0.71346 0.0
H442 H 0.53956 0.43513 0.72337 0.0
H443 H 0.51852 0.54244 0.86525 0.0
H444 H 0.52297 0.52768 0.8083 0.0
H445 H 0.55109 0.48769 0.86007 0.0
H446 H 0.54674 0.50255 0.91763 0.0
H447 H 0.51639 0.46108 0.80922 0.0
H448 H 0.58846 0.53552 0.81656 0.0
H449 H 0.6134 0.57868 0.82698 0.0
H450 H 0.57828 0.59297 0.74221 0.0
H451 H 0.55286 0.54987 0.73161 0.0
C452 C 0.55171 0.47529 0.62997 0.0
C453 C 0.52901 0.46512 0.61437 0.0
C454 C 0.55449 0.47899 0.66648 0.0
C455 C 0.53465 0.47236 0.68824 0.0
C456 C 0.51185 0.46067 0.67303 0.0
C457 C 0.50905 0.457 0.63653 0.0
C458 C 0.53782 0.48006 0.72586 0.0
C459 C 0.55208 0.50445 0.73325 0.0
C460 C 0.52534 0.46412 0.75384 0.0
C461 C 0.51103 0.43801 0.74812 0.0
C462 C 0.48719 0.42522 0.75919 0.0
C463 C 0.47368 0.40066 0.75359 0.0
C464 C 0.48384 0.38865 0.73705 0.0
C465 C 0.50756 0.40118 0.72616 0.0
C466 C 0.52115 0.42574 0.73171 0.0
C467 C 0.52576 0.53059 0.86465 0.0
C468 C 0.53232 0.52371 0.89603 0.0
C469 C 0.52836 0.52222 0.83199 0.0
C470 C 0.5375 0.5067 0.82987 0.0
C471 C 0.54403 0.49968 0.86111 0.0
C472 C 0.54165 0.50828 0.89392 0.0
C473 C 0.53978 0.49771 0.79485 0.0
C474 C 0.52646 0.47318 0.78797 0.0
C475 C 0.55329 0.51346 0.76733 0.0
C476 C 0.56864 0.53943 0.77344 0.0
C477 C 0.58593 0.54785 0.8003 0.0
C478 C 0.60018 0.57231 0.80621 0.0
C479 C 0.5974 0.58855 0.78531 0.0
C480 C 0.58041 0.58036 0.75839 0.0
C481 C 0.5661 0.55592 0.75238 0.0
H482 H 0.60844 0.60748 0.78993 0.0
H483 H 0.47335 0.36964 0.73272 0.0
H484 H 0.56749 0.98306 0.90543 0.0
H485 H 0.5693 0.99611 0.84462 0.0
H486 H 0.55229 0.04925 0.87878 0.0
H487 H 0.55034 0.03612 0.94024 0.0
H488 H 0.52467 0.02311 0.82326 0.0
H489 H 0.60735 0.0664 0.84907 0.0
H490 H 0.64601 0.07316 0.87095 0.0
H491 H 0.64452 0.02315 0.79549 0.0
H492 H 0.60564 0.01575 0.77354 0.0
H493 H 0.53199 0.05554 0.64249 0.0
H494 H 0.54182 0.0605 0.70546 0.0
H495 H 0.56322 1.00745 0.69863 0.0
H496 H 0.55402 1.00281 0.63575 0.0
H497 H 0.59187 0.04211 0.74235 0.0
H498 H 0.50654 0.99355 0.72508 0.0
H499 H 0.4678 0.98609 0.70226 0.0
H500 H 0.47444 0.04544 0.76166 0.0
H501 H 0.5134 0.05344 0.78445 0.0
C502 C 0.56436 0.9977 0.90019 0.0
C503 C 0.55875 1.00855 0.92773 0.0
C504 C 0.56555 1.00524 0.86534 0.0
C505 C 0.56119 0.02384 0.85712 0.0
C506 C 0.55584 0.03495 0.88456 0.0
C507 C 0.55482 0.02749 0.91964 0.0
C508 C 0.5608 0.03038 0.81956 0.0
C509 C 0.53958 0.02785 0.80573 0.0
C510 C 0.58009 0.03614 0.79651 0.0
C511 C 0.60345 0.04041 0.8098 0.0
C512 C 0.61514 0.05667 0.83734 0.0
C513 C 0.63713 0.06064 0.84973 0.0
C514 C 0.6477 0.04856 0.83466 0.0
C515 C 0.63631 0.03249 0.80715 0.0
C516 C 0.6143 0.02841 0.7947 0.0
C517 C 0.53921 0.04526 0.65425 0.0
C518 C 0.54198 0.02859 0.63411 0.0
C519 C 0.54471 0.04803 0.69032 0.0
C520 C 0.55283 0.03402 0.70697 0.0
C521 C 0.5569 0.01841 0.68646 0.0
C522 C 0.55155 0.01572 0.65044 0.0
C523 C 0.55557 0.03418 0.746 0.0
C524 C 0.57718 0.0379 0.76006 0.0
C525 C 0.5366 0.02936 0.76925 0.0
C526 C 0.51298 0.02426 0.75613 0.0
C527 C 0.49978 1.00508 0.73311 0.0
C528 C 0.47779 1.00075 0.7202 0.0
C529 C 0.4687 0.01533 0.73041 0.0
C530 C 0.48153 0.03419 0.75371 0.0
C531 C 0.50356 0.03863 0.76665 0.0
H532 H 0.45169 1.01198 0.72033 0.0
H533 H 0.66473 0.05169 0.84426 0.0
H534 H 0.74141 0.90301 0.77629 0.0
H535 H 0.7485 0.90543 0.71261 0.0
H536 H 0.69939 0.83002 0.70334 0.0
H537 H 0.69276 0.82732 0.76684 0.0
H538 H 0.73412 0.8434 0.65636 0.0
H539 H 0.68144 0.87234 0.69451 0.0
H540 H 0.67214 0.8989 0.72895 0.0
H541 H 0.72928 0.95993 0.67811 0.0
H542 H 0.7391 0.9337 0.6437 0.0
H543 H 0.67078 0.82166 0.49828 0.0
H544 H 0.68521 0.8277 0.55885 0.0
H545 H 0.73424 0.90171 0.53627 0.0
H546 H 0.71972 0.8958 0.47511 0.0
H547 H 0.70912 0.89573 0.5971 0.0
H548 H 0.75565 0.86467 0.54958 0.0
H549 H 0.76373 0.83714 0.51549 0.0
H550 H 0.7173 0.77937 0.58346 0.0
H551 H 0.70865 0.80646 0.61766 0.0
C552 C 0.73261 0.88682 0.76084 0.0
C553 C 0.71617 0.86503 0.77661 0.0
C554 C 0.73659 0.88826 0.72438 0.0
C555 C 0.72397 0.86803 0.70303 0.0
C556 C 0.7092 0.84593 0.71917 0.0
C557 C 0.70538 0.84442 0.75559 0.0
C558 C 0.72394 0.86999 0.66389 0.0
C559 C 0.72867 0.85484 0.64337 0.0
C560 C 0.71743 0.88539 0.64681 0.0
C561 C 0.71117 0.9011 0.66686 0.0
C562 C 0.69207 0.89143 0.6908 0.0
C563 C 0.68671 0.90642 0.71031 0.0
C564 C 0.70016 0.93109 0.70581 0.0
C565 C 0.71892 0.94082 0.68163 0.0
C566 C 0.72438 0.9259 0.66211 0.0
C567 C 0.68476 0.83923 0.50599 0.0
C568 C 0.69408 0.85827 0.48182 0.0
C569 C 0.69311 0.84261 0.54066 0.0
C570 C 0.71102 0.86509 0.55203 0.0
C571 C 0.72051 0.88418 0.52798 0.0
C572 C 0.71223 0.88076 0.49306 0.0
C573 C 0.7186 0.8686 0.58963 0.0
C574 C 0.71518 0.88473 0.6099 0.0
C575 C 0.72617 0.85399 0.60647 0.0
C576 C 0.73141 0.83761 0.5861 0.0
C577 C 0.74703 0.84606 0.55713 0.0
C578 C 0.75173 0.83054 0.5378 0.0
C579 C 0.74101 0.80652 0.54728 0.0
C580 C 0.7256 0.79798 0.57615 0.0
C581 C 0.72082 0.81343 0.59556 0.0
H582 H 0.74467 0.79453 0.53227 0.0
H583 H 0.69602 0.94268 0.721 0.0
H584 H 0.23912 0.89292 0.76005 0.0
H585 H 0.2469 0.9096 0.70032 0.0
H586 H 0.25996 0.85389 0.66522 0.0
H587 H 0.25308 0.8377 0.72494 0.0
H588 H 0.28925 0.89334 0.63289 0.0
H589 H 0.20528 0.85034 0.65435 0.0
H590 H 0.16818 0.84001 0.68597 0.0
H591 H 0.18014 0.91064 0.66839 0.0
H592 H 0.21752 0.9215 0.6371 0.0
H593 H 0.25272 0.88257 0.45192 0.0
H594 H 0.26024 0.87857 0.51408 0.0
H595 H 0.25539 0.94088 0.53903 0.0
H596 H 0.24768 0.94493 0.47701 0.0
H597 H 0.22475 0.90209 0.57752 0.0
H598 H 0.30714 0.94103 0.54589 0.0
H599 H 0.34222 0.94732 0.51202 0.0
H600 H 0.33054 0.87896 0.54543 0.0
H601 H 0.29518 0.8721 0.57902 0.0
C602 C 0.24393 0.88441 0.73968 0.0
C603 C 0.24524 0.86385 0.74713 0.0
C604 C 0.2483 0.89391 0.70553 0.0
C605 C 0.25358 0.88273 0.6781 0.0
C606 C 0.2559 0.86282 0.68589 0.0
C607 C 0.25185 0.85352 0.72007 0.0
C608 C 0.2552 0.89075 0.64092 0.0
C609 C 0.2751 0.89513 0.62068 0.0
C610 C 0.23684 0.8933 0.62507 0.0
C611 C 0.21433 0.88681 0.64377 0.0
C612 C 0.20009 0.86372 0.65747 0.0
C613 C 0.179 0.85776 0.6753 0.0
C614 C 0.17185 0.87468 0.67928 0.0
C615 C 0.18573 0.89757 0.66535 0.0
C616 C 0.20687 0.90364 0.64757 0.0
C617 C 0.25385 0.89579 0.47045 0.0
C618 C 0.24933 0.91392 0.45956 0.0
C619 C 0.2582 0.8935 0.506 0.0
C620 C 0.25829 0.90939 0.53118 0.0
C621 C 0.25529 0.92837 0.52002 0.0
C622 C 0.25094 0.93068 0.48453 0.0
C623 C 0.25879 0.90466 0.5694 0.0
C624 C 0.23913 0.9007 0.58981 0.0
C625 C 0.27708 0.9019 0.58501 0.0
C626 C 0.29839 0.90601 0.56482 0.0
C627 C 0.31194 0.92726 0.54578 0.0
C628 C 0.33189 0.93094 0.52666 0.0
C629 C 0.33859 0.91355 0.52654 0.0
C630 C 0.32534 0.89244 0.54555 0.0
C631 C 0.30535 0.88866 0.56467 0.0
H632 H 0.35405 0.91644 0.51175 0.0
H633 H 0.15551 0.87004 0.69307 0.0
H634 H 0.21647 0.40763 0.45631 0.0
H635 H 0.21897 0.42035 0.51777 0.0
H636 H 0.15047 0.35872 0.53886 0.0
H637 H 0.14755 0.3463 0.47764 0.0
H638 H 0.15516 0.39589 0.57479 0.0
H639 H 0.20466 0.35988 0.55271 0.0
H640 H 0.23762 0.35818 0.52323 0.0
H641 H 0.28709 0.42792 0.56221 0.0
H642 H 0.25432 0.43018 0.59144 0.0
H643 H 0.14956 0.35541 0.74666 0.0
H644 H 0.15188 0.36295 0.68354 0.0
H645 H 0.22191 0.42413 0.69635 0.0
H646 H 0.21998 0.41624 0.76 0.0
H647 H 0.22169 0.39832 0.64287 0.0
H648 H 0.17299 0.43049 0.67538 0.0
H649 H 0.14005 0.432 0.70517 0.0
H650 H 0.08937 0.37049 0.64732 0.0
H651 H 0.12199 0.36839 0.61753 0.0
C652 C 0.20171 0.39708 0.47386 0.0
C653 C 0.18193 0.37577 0.46215 0.0
C654 C 0.20324 0.40431 0.50905 0.0
C655 C 0.18514 0.39023 0.53314 0.0
C656 C 0.16472 0.36985 0.52085 0.0
C657 C 0.16311 0.36271 0.48576 0.0
C658 C 0.18792 0.39525 0.57166 0.0
C659 C 0.1697 0.39644 0.58972 0.0
C660 C 0.20734 0.39684 0.59107 0.0
C661 C 0.22702 0.39531 0.57387 0.0
C662 C 0.22255 0.3749 0.55479 0.0
C663 C 0.24119 0.37384 0.53813 0.0
C664 C 0.26442 0.39297 0.54073 0.0
C665 C 0.26907 0.41315 0.56014 0.0
C666 C 0.25048 0.41434 0.57673 0.0
C667 C 0.16541 0.37065 0.73625 0.0
C668 C 0.18459 0.38525 0.75848 0.0
C669 C 0.16664 0.37504 0.70005 0.0
C670 C 0.18689 0.39439 0.68514 0.0
C671 C 0.20604 0.40919 0.70726 0.0
C672 C 0.20489 0.40467 0.74363 0.0
C673 C 0.18837 0.39796 0.64621 0.0
C674 C 0.20742 0.39841 0.62804 0.0
C675 C 0.16972 0.39793 0.6267 0.0
C676 C 0.14998 0.39924 0.6443 0.0
C677 C 0.15483 0.41721 0.66914 0.0
C678 C 0.13621 0.41817 0.68601 0.0
C679 C 0.11264 0.40134 0.67816 0.0
C680 C 0.10764 0.38353 0.65336 0.0
C681 C 0.12619 0.38247 0.63641 0.0
H682 H 0.09825 0.40211 0.69128 0.0
H683 H 0.27882 0.39212 0.52779 0.0
H684 H 0.66374 0.90192 0.25129 0.0
H685 H 0.67829 0.91219 0.19081 0.0
H686 H 0.74224 0.91164 0.21989 0.0
H687 H 0.72768 0.90103 0.28054 0.0
H688 H 0.71808 0.94701 0.15492 0.0
H689 H 0.75114 0.87993 0.1552 0.0
H690 H 0.74552 0.84487 0.18906 0.0
H691 H 0.67445 0.82778 0.21562 0.0
H692 H 0.67955 0.8625 0.1815 0.0
H693 H 0.75654 0.94459 0.97742 0.0
H694 H 0.7579 0.94716 0.04214 0.0
H695 H 0.69438 0.8782 0.04825 0.0
H696 H 0.69324 0.87523 0.98433 0.0
H697 H 0.72446 0.88175 0.0974 0.0
H698 H 0.69611 0.93244 0.04924 0.0
H699 H 0.70016 0.96651 0.01468 0.0
H700 H 0.75656 0.01484 0.08281 0.0
H701 H 0.75349 0.981 0.11702 0.0
C702 C 0.68114 0.90447 0.24508 0.0
C703 C 0.69439 0.90028 0.27065 0.0
C704 C 0.6895 0.91053 0.21049 0.0
C705 C 0.71122 0.91245 0.20077 0.0
C706 C 0.72533 0.91006 0.22681 0.0
C707 C 0.71699 0.90403 0.26148 0.0
C708 C 0.7174 0.91378 0.1628 0.0
C709 C 0.71977 0.93293 0.1423 0.0
C710 C 0.71935 0.89526 0.14637 0.0
C711 C 0.71586 0.87398 0.16619 0.0
C712 C 0.7343 0.86863 0.16817 0.0
C713 C 0.7312 0.84882 0.1874 0.0
C714 C 0.70967 0.83416 0.20461 0.0
C715 C 0.69114 0.83919 0.20241 0.0
C716 C 0.69414 0.85893 0.18314 0.0
C717 C 0.74307 0.92986 0.99263 0.0
C718 C 0.72469 0.90978 0.97562 0.0
C719 C 0.74382 0.9314 0.0296 0.0
C720 C 0.72607 0.913 0.05009 0.0
C721 C 0.70828 0.89263 0.0331 0.0
C722 C 0.70761 0.89102 0.9964 0.0
C723 C 0.72498 0.91492 0.08909 0.0
C724 C 0.72341 0.89623 0.10993 0.0
C725 C 0.72344 0.93374 0.10559 0.0
C726 C 0.72489 0.95409 0.0853 0.0
C727 C 0.70967 0.95029 0.05653 0.0
C728 C 0.71183 0.96958 0.03692 0.0
C729 C 0.72872 0.99283 0.0464 0.0
C730 C 0.74354 0.99682 0.07542 0.0
C731 C 0.74166 0.97758 0.09484 0.0
H732 H 0.73018 1.00775 0.03143 0.0
H733 H 0.70733 0.81889 0.21958 0.0
H734 H 0.22725 0.88549 0.94546 0.0
H735 H 0.23509 0.89636 0.00804 0.0
H736 H 0.17629 0.82777 0.03714 0.0
H737 H 0.16818 0.81682 0.9751 0.0
H738 H 0.20605 0.89539 0.06993 0.0
H739 H 0.20143 0.8045 0.09495 0.0
H740 H 0.20838 0.77582 0.06192 0.0
H741 H 0.25641 0.83165 0.99252 0.0
H742 H 0.2503 0.86077 0.02572 0.0
H743 H 0.18756 0.83082 0.24344 0.0
H744 H 0.19156 0.83198 0.17934 0.0
H745 H 0.24833 0.90502 0.18485 0.0
H746 H 0.24441 0.90404 0.24927 0.0
H747 H 0.22829 0.84195 0.13267 0.0
H748 H 0.23829 0.93386 0.11389 0.0
H749 H 0.23182 0.96282 0.1472 0.0
H750 H 0.174 0.90561 0.20331 0.0
H751 H 0.17988 0.87634 0.16992 0.0
C752 C 0.21559 0.87298 0.96516 0.0
C753 C 0.19731 0.85013 0.95535 0.0
C754 C 0.2201 0.87925 0.00085 0.0
C755 C 0.2065 0.86269 0.02704 0.0
C756 C 0.18713 0.84067 0.01721 0.0
C757 C 0.18253 0.83445 0.98171 0.0
C758 C 0.21382 0.86693 0.06452 0.0
C759 C 0.2114 0.88409 0.08359 0.0
C760 C 0.22083 0.85214 0.08215 0.0
C761 C 0.22519 0.83481 0.06266 0.0
C762 C 0.21361 0.81071 0.07282 0.0
C763 C 0.21742 0.79436 0.05406 0.0
C764 C 0.23277 0.80189 0.02508 0.0
C765 C 0.24444 0.82581 0.01488 0.0
C766 C 0.24082 0.84225 0.03369 0.0
C767 C 0.20118 0.84702 0.23111 0.0
C768 C 0.21552 0.8674 0.25135 0.0
C769 C 0.2035 0.84763 0.19449 0.0
C770 C 0.22003 0.86867 0.17738 0.0
C771 C 0.23531 0.88868 0.1976 0.0
C772 C 0.23312 0.88804 0.23437 0.0
C773 C 0.21973 0.86985 0.13836 0.0
C774 C 0.22347 0.85364 0.11893 0.0
C775 C 0.21412 0.88563 0.12045 0.0
C776 C 0.20974 0.90296 0.13971 0.0
C777 C 0.22412 0.92748 0.1332 0.0
C778 C 0.22056 0.94394 0.1521 0.0
C779 C 0.20258 0.93606 0.17747 0.0
C780 C 0.18798 0.9117 0.18375 0.0
C781 C 0.19142 0.89517 0.16484 0.0
H782 H 0.19993 0.94883 0.19219 0.0
H783 H 0.23566 0.7892 0.01057 0.0
H784 H 0.22399 0.35748 0.96485 0.0
H785 H 0.22938 0.3669 0.02764 0.0
H786 H 0.19561 0.40932 0.01555 0.0
H787 H 0.18979 0.3997 0.95265 0.0
H788 H 0.24851 0.40432 0.07281 0.0
H789 H 0.15541 0.39358 0.08531 0.0
H790 H 0.11775 0.37693 0.052 0.0
H791 H 0.13281 0.32661 0.00205 0.0
H792 H 0.17014 0.34238 0.03591 0.0
H793 H 0.22556 0.4031 0.25941 0.0
H794 H 0.22846 0.41469 0.1969 0.0
H795 H 0.18103 0.34131 0.1688 0.0
H796 H 0.17792 0.32976 0.23047 0.0
H797 H 0.17021 0.3699 0.13251 0.0
H798 H 0.24128 0.36629 0.16204 0.0
H799 H 0.27835 0.37827 0.19509 0.0
H800 H 0.3065 0.45051 0.16013 0.0
H801 H 0.26945 0.43898 0.12721 0.0
C802 C 0.21823 0.36932 0.97528 0.0
C803 C 0.206 0.37741 0.95383 0.0
C804 C 0.22144 0.37478 0.01124 0.0
C805 C 0.21248 0.38842 0.02643 0.0
C806 C 0.20236 0.39848 0.00445 0.0
C807 C 0.19909 0.39297 0.96845 0.0
C808 C 0.21077 0.38908 0.06547 0.0
C809 C 0.23145 0.39719 0.08591 0.0
C810 C 0.18845 0.37948 0.08261 0.0
C811 C 0.16577 0.36946 0.06269 0.0
C812 C 0.15065 0.37892 0.06729 0.0
C813 C 0.12936 0.36964 0.04831 0.0
C814 C 0.12302 0.35093 0.02463 0.0
C815 C 0.13781 0.34121 0.02022 0.0
C816 C 0.15901 0.35027 0.03936 0.0
C817 C 0.2156 0.38954 0.23986 0.0
C818 C 0.2017 0.3655 0.24984 0.0
C819 C 0.21732 0.39616 0.2042 0.0
C820 C 0.20508 0.37883 0.17813 0.0
C821 C 0.19059 0.35501 0.18837 0.0
C822 C 0.18897 0.34841 0.22372 0.0
C823 C 0.20792 0.38481 0.1399 0.0
C824 C 0.18739 0.37784 0.11955 0.0
C825 C 0.23028 0.39494 0.12286 0.0
C826 C 0.25252 0.40185 0.14258 0.0
C827 C 0.25531 0.38477 0.16165 0.0
C828 C 0.27632 0.39146 0.1803 0.0
C829 C 0.29473 0.41516 0.17981 0.0
C830 C 0.2922 0.43218 0.16057 0.0
C831 C 0.27121 0.42558 0.1419 0.0
H832 H 0.31099 0.42031 0.19426 0.0
H833 H 0.10659 0.34387 0.00986 0.0
H834 H 0.41216 0.23227 0.11791 0.0
H835 H 0.42168 0.23492 0.05506 0.0
H836 H 0.37088 0.16017 0.04298 0.0
H837 H 0.36168 0.1572 0.10578 0.0
H838 H 0.40881 0.17501 0.99716 0.0
H839 H 0.35268 0.20098 0.03345 0.0
H840 H 0.34396 0.22625 0.0721 0.0
H841 H 0.40358 0.28895 0.02896 0.0
H842 H 0.41279 0.26398 0.9903 0.0
H843 H 0.34738 0.15189 0.83849 0.0
H844 H 0.36162 0.15836 0.89904 0.0
H845 H 0.40571 0.23355 0.87827 0.0
H846 H 0.39108 0.22721 0.81711 0.0
H847 H 0.38168 0.22604 0.93905 0.0
H848 H 0.43107 0.19893 0.89087 0.0
H849 H 0.44121 0.17331 0.8557 0.0
H850 H 0.39665 0.11352 0.92182 0.0
H851 H 0.3859 0.13866 0.95706 0.0
C852 C 0.40354 0.21621 0.10214 0.0
C853 C 0.38577 0.19461 0.11676 0.0
C854 C 0.40898 0.21779 0.06616 0.0
C855 C 0.39655 0.19787 0.04417 0.0
C856 C 0.38059 0.1758 0.05939 0.0
C857 C 0.37526 0.17417 0.09536 0.0
C858 C 0.39726 0.20049 0.00513 0.0
C859 C 0.40297 0.18619 0.98435 0.0
C860 C 0.39025 0.2156 0.98843 0.0
C861 C 0.3835 0.23065 0.0092 0.0
C862 C 0.36383 0.22017 0.03209 0.0
C863 C 0.35887 0.23442 0.05408 0.0
C864 C 0.37331 0.25918 0.05316 0.0
C865 C 0.39249 0.26976 0.02976 0.0
C866 C 0.39755 0.25558 0.00773 0.0
C867 C 0.36027 0.16983 0.84654 0.0
C868 C 0.36809 0.18904 0.82287 0.0
C869 C 0.36853 0.17347 0.88124 0.0
C870 C 0.38503 0.19639 0.89318 0.0
C871 C 0.39309 0.21568 0.86959 0.0
C872 C 0.38478 0.21202 0.83465 0.0
C873 C 0.39256 0.19996 0.93085 0.0
C874 C 0.38824 0.21535 0.95152 0.0
C875 C 0.40096 0.1859 0.94737 0.0
C876 C 0.4076 0.1707 0.92655 0.0
C877 C 0.42332 0.18029 0.89781 0.0
C878 C 0.42918 0.16585 0.87786 0.0
C879 C 0.41956 0.1418 0.88649 0.0
C880 C 0.4041 0.13216 0.91516 0.0
C881 C 0.39814 0.14651 0.93518 0.0
H882 H 0.42411 0.13065 0.87099 0.0
H883 H 0.36962 0.27016 0.07054 0.0
H884 H 0.90105 0.19729 0.78484 0.0
H885 H 0.90906 0.18934 0.84491 0.0
H886 H 0.90065 0.2472 0.88365 0.0
H887 H 0.89296 0.25552 0.82361 0.0
H888 H 0.93576 0.24453 0.91909 0.0
H889 H 0.85436 0.19164 0.88741 0.0
H890 H 0.8214 0.16209 0.85094 0.0
H891 H 0.84716 0.11306 0.86352 0.0
H892 H 0.88044 0.14245 0.90005 0.0
H893 H 0.90016 0.20292 0.09689 0.0
H894 H 0.90472 0.21808 0.0364 0.0
H895 H 0.912 0.15927 0.99887 0.0
H896 H 0.90715 0.14389 0.0589 0.0
H897 H 0.87913 0.1632 0.96249 0.0
H898 H 0.95924 0.21649 0.00019 0.0
H899 H 0.99069 0.24664 0.03821 0.0
H900 H 0.96601 0.29563 0.01589 0.0
H901 H 0.93416 0.26563 0.97816 0.0
C902 C 0.90133 0.20862 0.80601 0.0
C903 C 0.89606 0.22684 0.79949 0.0
C904 C 0.90584 0.20399 0.84036 0.0
C905 C 0.905 0.2174 0.8688 0.0
C906 C 0.90128 0.23658 0.86209 0.0
C907 C 0.89681 0.24125 0.82774 0.0
C908 C 0.90607 0.21023 0.90567 0.0
C909 C 0.92331 0.22681 0.92874 0.0
C910 C 0.88993 0.18705 0.91809 0.0
C911 C 0.87004 0.16935 0.89606 0.0
C912 C 0.85312 0.17464 0.88213 0.0
C913 C 0.83436 0.1579 0.86148 0.0
C914 C 0.83227 0.13577 0.85466 0.0
C915 C 0.84886 0.13026 0.8687 0.0
C916 C 0.86765 0.14693 0.88944 0.0
C917 C 0.90306 0.19342 0.0758 0.0
C918 C 0.90312 0.17211 0.08265 0.0
C919 C 0.90577 0.20216 0.04127 0.0
C920 C 0.90879 0.18984 0.01312 0.0
C921 C 0.90965 0.16903 0.02016 0.0
C922 C 0.90687 0.16027 0.05454 0.0
C923 C 0.90904 0.19738 0.97603 0.0
C924 C 0.89184 0.18086 0.95289 0.0
C925 C 0.92507 0.22067 0.9638 0.0
C926 C 0.94415 0.2387 0.98662 0.0
C927 C 0.96037 0.2336 0.00365 0.0
C928 C 0.9783 0.25069 0.0251 0.0
C929 C 0.98031 0.27301 0.02954 0.0
C930 C 0.96441 0.27831 0.01248 0.0
C931 C 0.94642 0.26128 0.99104 0.0
H932 H 0.99421 0.28622 0.04613 0.0
H933 H 0.81777 0.12287 0.83861 0.0
H934 H 0.8626 0.71944 0.07502 0.0
H935 H 0.87017 0.72871 0.01202 0.0
H936 H 0.79614 0.70623 0.99581 0.0
H937 H 0.78839 0.69679 0.05847 0.0
H938 H 0.81123 0.68512 0.95012 0.0
H939 H 0.83875 0.76484 0.99046 0.0
H940 H 0.86268 0.80055 0.02678 0.0
H941 H 0.92686 0.80673 0.98465 0.0
H942 H 0.90331 0.77084 0.94841 0.0
H943 H 0.81818 0.71299 0.7708 0.0
H944 H 0.81282 0.71612 0.83398 0.0
H945 H 0.88694 0.73971 0.85194 0.0
H946 H 0.89259 0.73716 0.78867 0.0
H947 H 0.87177 0.76163 0.89678 0.0
H948 H 0.8454 0.68132 0.86023 0.0
H949 H 0.82247 0.64509 0.82446 0.0
H950 H 0.7572 0.63932 0.8608 0.0
H951 H 0.77977 0.67574 0.89642 0.0
C952 C 0.848 0.71679 0.05813 0.0
C953 C 0.82486 0.70725 0.07179 0.0
C954 C 0.85237 0.72218 0.02213 0.0
C955 C 0.83372 0.71823 0.99918 0.0
C956 C 0.81079 0.70938 0.01299 0.0
C957 C 0.80641 0.70403 0.04888 0.0
C958 C 0.83764 0.72162 0.96045 0.0
C959 C 0.82418 0.70199 0.93846 0.0
C960 C 0.85506 0.7434 0.94527 0.0
C961 C 0.86926 0.76501 0.96697 0.0
C962 C 0.85797 0.77369 0.98915 0.0
C963 C 0.87146 0.79399 0.00969 0.0
C964 C 0.89627 0.80586 0.00809 0.0
C965 C 0.90764 0.7975 0.98589 0.0
C966 C 0.89423 0.77719 0.96532 0.0
C967 C 0.83347 0.71934 0.78805 0.0
C968 C 0.85574 0.72449 0.7747 0.0
C969 C 0.83035 0.72103 0.82422 0.0
C970 C 0.84935 0.72759 0.84781 0.0
C971 C 0.87199 0.73447 0.83428 0.0
C972 C 0.87518 0.73296 0.79805 0.0
C973 C 0.84515 0.72519 0.88656 0.0
C974 C 0.85866 0.74487 0.90851 0.0
C975 C 0.8279 0.70337 0.90189 0.0
C976 C 0.81428 0.68139 0.88067 0.0
C977 C 0.82616 0.67242 0.86038 0.0
C978 C 0.81323 0.65184 0.84017 0.0
C979 C 0.78839 0.63995 0.84027 0.0
C980 C 0.77644 0.64858 0.86069 0.0
C981 C 0.78929 0.66918 0.88091 0.0
H982 H 0.77841 0.62402 0.82461 0.0
H983 H 0.90669 0.82158 0.024 0.0
H984 H 0.39253 0.28215 0.31834 0.0
H985 H 0.39521 0.28403 0.38276 0.0
H986 H 0.37082 0.20874 0.38679 0.0
H987 H 0.3689 0.20694 0.32249 0.0
H988 H 0.36232 0.26518 0.42873 0.0
H989 H 0.38868 0.19312 0.45942 0.0
H990 H 0.41438 0.17886 0.43454 0.0
H991 H 0.45756 0.24658 0.38423 0.0
H992 H 0.43234 0.26137 0.40919 0.0
H993 H 0.31724 0.20713 0.58952 0.0
H994 H 0.32985 0.22006 0.52916 0.0
H995 H 0.4033 0.25231 0.56117 0.0
H996 H 0.39069 0.23894 0.62207 0.0
H997 H 0.39591 0.22633 0.50375 0.0
H998 H 0.37982 0.28721 0.53601 0.0
H999 H 0.35754 0.30508 0.5618 0.0
H1000 H 0.30078 0.26693 0.48783 0.0
H1001 H 0.32256 0.24856 0.46189 0.0
C1002 C 0.38812 0.26607 0.33294 0.0
C1003 C 0.38052 0.24439 0.31524 0.0
C1004 C 0.3896 0.26716 0.36981 0.0
C1005 C 0.3834 0.24659 0.38983 0.0
C1006 C 0.37624 0.22501 0.3721 0.0
C1007 C 0.37503 0.22397 0.33523 0.0
C1008 C 0.38269 0.24722 0.42914 0.0
C1009 C 0.36985 0.25685 0.44509 0.0
C1010 C 0.39304 0.23696 0.45081 0.0
C1011 C 0.40849 0.22829 0.43601 0.0
C1012 C 0.40374 0.20502 0.44321 0.0
C1013 C 0.4182 0.19683 0.42905 0.0
C1014 C 0.43755 0.21179 0.40775 0.0
C1015 C 0.44252 0.23499 0.40064 0.0
C1016 C 0.42812 0.24327 0.41475 0.0
C1017 C 0.33611 0.21726 0.58396 0.0
C1018 C 0.35295 0.22196 0.61068 0.0
C1019 C 0.34331 0.22477 0.54935 0.0
C1020 C 0.36755 0.23736 0.54056 0.0
C1021 C 0.3845 0.24266 0.56733 0.0
C1022 C 0.37727 0.23513 0.60215 0.0
C1023 C 0.37478 0.24345 0.50299 0.0
C1024 C 0.38876 0.23502 0.48738 0.0
C1025 C 0.36599 0.25535 0.48172 0.0
C1026 C 0.3528 0.2664 0.49712 0.0
C1027 C 0.36252 0.2825 0.52538 0.0
C1028 C 0.34998 0.29274 0.54001 0.0
C1029 C 0.32774 0.28711 0.5265 0.0
C1030 C 0.31801 0.27127 0.49827 0.0
C1031 C 0.33047 0.26097 0.48355 0.0
H1032 H 0.31806 0.29505 0.53787 0.0
H1033 H 0.44872 0.20541 0.39679 0.0
H1034 H 0.88896 0.19978 0.28591 0.0
H1035 H 0.89451 0.21126 0.34847 0.0
H1036 H 0.84401 0.13891 0.37766 0.0
H1037 H 0.83814 0.12736 0.31576 0.0
H1038 H 0.86174 0.20524 0.40711 0.0
H1039 H 0.873 0.12342 0.4381 0.0
H1040 H 0.88846 0.10004 0.40856 0.0
H1041 H 0.93407 0.16043 0.34414 0.0
H1042 H 0.91915 0.18424 0.3736 0.0
H1043 H 0.84842 0.14808 0.58654 0.0
H1044 H 0.85362 0.14769 0.52268 0.0
H1045 H 0.90257 0.2234 0.52388 0.0
H1046 H 0.89751 0.224 0.58774 0.0
H1047 H 0.8932 0.16224 0.47752 0.0
H1048 H 0.88809 0.24605 0.4507 0.0
H1049 H 0.87488 0.27134 0.48021 0.0
H1050 H 0.82077 0.2103 0.53529 0.0
H1051 H 0.83347 0.18464 0.50576 0.0
C1052 C 0.8786 0.18647 0.30562 0.0
C1053 C 0.86332 0.16259 0.2959 0.0
C1054 C 0.88184 0.19306 0.3413 0.0
C1055 C 0.86998 0.17581 0.36755 0.0
C1056 C 0.85356 0.15239 0.35773 0.0
C1057 C 0.8502 0.14585 0.32229 0.0
C1058 C 0.87576 0.18137 0.40536 0.0
C1059 C 0.8691 0.19628 0.42245 0.0
C1060 C 0.8854 0.16969 0.42524 0.0
C1061 C 0.89476 0.15553 0.40786 0.0
C1062 C 0.8864 0.13173 0.41775 0.0
C1063 C 0.89505 0.1184 0.40098 0.0
C1064 C 0.91214 0.12871 0.37438 0.0
C1065 C 0.92072 0.15242 0.3646 0.0
C1066 C 0.91215 0.16583 0.3813 0.0
C1067 C 0.86061 0.16458 0.57334 0.0
C1068 C 0.87237 0.18609 0.59218 0.0
C1069 C 0.86361 0.16432 0.53687 0.0
C1070 C 0.87823 0.18557 0.51857 0.0
C1071 C 0.89102 0.20686 0.53751 0.0
C1072 C 0.88815 0.20712 0.57403 0.0
C1073 C 0.87852 0.18554 0.47948 0.0
C1074 C 0.8863 0.1716 0.46213 0.0
C1075 C 0.87032 0.19848 0.45937 0.0
C1076 C 0.86191 0.21351 0.47631 0.0
C1077 C 0.87329 0.23803 0.46897 0.0
C1078 C 0.86591 0.25243 0.48572 0.0
C1079 C 0.84706 0.24245 0.50971 0.0
C1080 C 0.83543 0.21802 0.51681 0.0
C1081 C 0.84272 0.20355 0.50008 0.0
H1082 H 0.84143 0.25364 0.52275 0.0
H1083 H 0.9188 0.11835 0.36142 0.0
H1084 H 0.90725 0.69016 0.55368 0.0
H1085 H 0.90769 0.69821 0.4909 0.0
H1086 H 0.88881 0.75193 0.51282 0.0
H1087 H 0.88798 0.74364 0.5763 0.0
H1088 H 0.86099 0.72227 0.46234 0.0
H1089 H 0.94409 0.76792 0.48049 0.0
H1090 H 0.9835 0.77715 0.50268 0.0
H1091 H 0.98012 0.72007 0.44102 0.0
H1092 H 0.94053 0.71024 0.41884 0.0
H1093 H 0.86117 0.73263 0.27473 0.0
H1094 H 0.87373 0.74568 0.33555 0.0
H1095 H 0.89365 0.69176 0.34761 0.0
H1096 H 0.88154 0.6789 0.28696 0.0
H1097 H 0.9249 0.73219 0.3806 0.0
H1098 H 0.8388 0.68317 0.3711 0.0
H1099 H 0.79903 0.67372 0.35022 0.0
H1100 H 0.80812 0.73783 0.39755 0.0
H1101 H 0.8483 0.74811 0.41766 0.0
C1102 C 0.90349 0.70394 0.54532 0.0
C1103 C 0.89754 0.71623 0.57004 0.0
C1104 C 0.90391 0.70864 0.50931 0.0
C1105 C 0.89856 0.72588 0.49705 0.0
C1106 C 0.89312 0.73863 0.52168 0.0
C1107 C 0.89275 0.73395 0.55793 0.0
C1108 C 0.8969 0.72895 0.4584 0.0
C1109 C 0.8752 0.72509 0.44447 0.0
C1110 C 0.91534 0.73237 0.43502 0.0
C1111 C 0.93925 0.73828 0.44811 0.0
C1112 C 0.95167 0.75723 0.47182 0.0
C1113 C 0.97407 0.76258 0.48438 0.0
C1114 C 0.9843 0.74919 0.4733 0.0
C1115 C 0.97218 0.73044 0.44957 0.0
C1116 C 0.94977 0.72499 0.43695 0.0
C1117 C 0.86868 0.72387 0.29011 0.0
C1118 C 0.87015 0.70456 0.27607 0.0
C1119 C 0.87574 0.73129 0.32493 0.0
C1120 C 0.88428 0.71945 0.34634 0.0
C1121 C 0.88707 0.70113 0.33166 0.0
C1122 C 0.88004 0.69373 0.29695 0.0
C1123 C 0.88874 0.72465 0.38468 0.0
C1124 C 0.91095 0.73003 0.39851 0.0
C1125 C 0.87078 0.72269 0.40796 0.0
C1126 C 0.84672 0.7166 0.39541 0.0
C1127 C 0.83247 0.69543 0.37662 0.0
C1128 C 0.80986 0.68994 0.36489 0.0
C1129 C 0.80113 0.70527 0.37233 0.0
C1130 C 0.81501 0.72612 0.39149 0.0
C1131 C 0.83772 0.73181 0.40299 0.0
H1132 H 0.78357 0.70092 0.36347 0.0
H1133 H 1.00163 0.75336 0.48306 0.0
H1134 H 0.99715 0.45401 0.92824 0.0
H1135 H 1.01441 0.42933 0.91331 0.0
H1136 H 1.01382 0.41152 0.02318 0.0
H1137 H 0.99649 0.43648 0.03846 0.0
H1138 H 0.05652 0.42413 0.99293 0.0
H1139 H 0.97576 0.3694 0.96559 0.0
H1140 H 0.93613 0.35538 0.93952 0.0
H1141 H 0.96647 0.36977 0.83556 0.0
H1142 H 1.00635 0.38419 0.86102 0.0
H1143 H 0.10151 0.34764 0.93722 0.0
H1144 H 0.07466 0.35953 0.96456 0.0
H1145 H 0.06665 0.38619 0.86407 0.0
H1146 H 0.0932 0.37444 0.83692 0.0
H1147 H 0.02469 0.36343 0.89803 0.0
H1148 H 0.106 0.42177 0.92666 0.0
H1149 H 0.14549 0.43568 0.95311 0.0
H1150 H 0.11381 0.41472 0.05583 0.0
H1151 H 0.07401 0.39992 0.02983 0.0
C1152 C 1.00035 0.44463 0.94931 0.0
C1153 C 0.9953 0.44724 0.9846 0.0
C1154 C 1.01021 0.4304 0.94066 0.0
C1155 C 1.01534 0.41831 0.96701 0.0
C1156 C 1.01001 0.42058 0.0023 0.0
C1157 C 0.99993 0.43473 0.01099 0.0
C1158 C 0.02719 0.40432 0.95744 0.0
C1159 C 0.04928 0.41046 0.97274 0.0
C1160 C 0.01803 0.38666 0.93075 0.0
C1161 C 0.99408 0.37804 0.91526 0.0
C1162 C 0.97401 0.36975 0.93718 0.0
C1163 C 0.9515 0.3617 0.9225 0.0
C1164 C 0.94879 0.36173 0.88591 0.0
C1165 C 0.9686 0.36977 0.86391 0.0
C1166 C 0.99116 0.37786 0.87845 0.0
C1167 C 0.09362 0.35559 0.92088 0.0
C1168 C 0.09954 0.3601 0.88485 0.0
C1169 C 0.07841 0.36258 0.93659 0.0
C1170 C 0.06875 0.37405 0.9165 0.0
C1171 C 0.0738 0.37744 0.88024 0.0
C1172 C 0.08908 0.37071 0.86471 0.0
C1173 C 0.05427 0.38365 0.93286 0.0
C1174 C 0.03171 0.37674 0.91873 0.0
C1175 C 0.06301 0.40056 0.96064 0.0
C1176 C 0.08696 0.40935 0.9762 0.0
C1177 C 0.1074 0.4198 0.95482 0.0
C1178 C 0.12985 0.42785 0.96973 0.0
C1179 C 0.13215 0.42593 0.0061 0.0
C1180 C 0.11199 0.41605 0.02763 0.0
C1181 C 0.08947 0.40775 0.01281 0.0
H1182 H 0.14954 0.43218 0.01761 0.0
H1183 H 0.93135 0.35548 0.8746 0.0
H1184 H 0.6163 0.81657 0.95334 0.0
H1185 H 0.59513 0.77381 0.96544 0.0
H1186 H 0.62462 0.76189 0.87092 0.0
H1187 H 0.64501 0.8046 0.85792 0.0
H1188 H 0.58208 0.72674 0.87791 0.0
H1189 H 0.64794 0.76489 0.95787 0.0
H1190 H 0.67302 0.79355 0.00357 0.0
H1191 H 0.61416 0.76387 0.07569 0.0
H1192 H 0.58863 0.73522 0.03023 0.0
H1193 H 0.5789 0.61916 0.92502 0.0
H1194 H 0.59051 0.66036 0.91154 0.0
H1195 H 0.54676 0.66048 0.99683 0.0
H1196 H 0.53478 0.61879 0.01045 0.0
H1197 H 0.59317 0.70078 0.99629 0.0
H1198 H 0.52871 0.65964 0.91481 0.0
H1199 H 0.50605 0.63047 0.86825 0.0
H1200 H 0.56557 0.66547 0.79787 0.0
H1201 H 0.58872 0.69467 0.84419 0.0
C1202 C 0.61801 0.80482 0.93481 0.0
C1203 C 0.63249 0.81412 0.90472 0.0
C1204 C 0.60603 0.7803 0.94195 0.0
C1205 C 0.60869 0.76444 0.9197 0.0
C1206 C 0.62228 0.77359 0.88874 0.0
C1207 C 0.63396 0.79811 0.88126 0.0
C1208 C 0.59803 0.73858 0.92919 0.0
C1209 C 0.58473 0.72117 0.90373 0.0
C1210 C 0.60097 0.73096 0.9631 0.0
C1211 C 0.6163 0.7481 0.99052 0.0
C1212 C 0.6403 0.76459 0.9834 0.0
C1213 C 0.65461 0.78081 0.00926 0.0
C1214 C 0.64517 0.78058 0.04247 0.0
C1215 C 0.62143 0.76406 0.04992 0.0
C1216 C 0.60704 0.74782 0.02413 0.0
C1217 C 0.57156 0.62781 0.94089 0.0
C1218 C 0.55586 0.61557 0.96888 0.0
C1219 C 0.57819 0.65143 0.933 0.0
C1220 C 0.56944 0.66359 0.95297 0.0
C1221 C 0.55371 0.65148 0.98096 0.0
C1222 C 0.54679 0.62761 0.98864 0.0
C1223 C 0.57744 0.68912 0.94496 0.0
C1224 C 0.59032 0.70643 0.97065 0.0
C1225 C 0.57446 0.69665 0.91111 0.0
C1226 C 0.56051 0.67925 0.88308 0.0
C1227 C 0.53703 0.66102 0.88949 0.0
C1228 C 0.52408 0.64449 0.86312 0.0
C1229 C 0.53438 0.64609 0.83014 0.0
C1230 C 0.55762 0.66425 0.82343 0.0
C1231 C 0.57065 0.68082 0.84972 0.0
H1232 H 0.52433 0.63327 0.80977 0.0
H1233 H 0.65628 0.79315 0.06246 0.0
H1234 H 0.27441 0.82439 0.91329 0.0
H1235 H 0.31367 0.83516 0.93827 0.0
H1236 H 0.3438 0.90436 0.88913 0.0
H1237 H 0.30532 0.89379 0.8643 0.0
H1238 H 0.37281 0.88746 0.88066 0.0
H1239 H 0.32884 0.89549 0.97792 0.0
H1240 H 0.29643 0.88165 0.02153 0.0
H1241 H 0.31378 0.82997 0.06076 0.0
H1242 H 0.34626 0.84347 0.0172 0.0
H1243 H 0.46898 0.97465 0.9741 0.0
H1244 H 0.42951 0.94775 0.95117 0.0
H1245 H 0.43017 0.88838 0.00154 0.0
H1246 H 0.47041 0.91557 0.02477 0.0
H1247 H 0.38585 0.89051 0.01006 0.0
H1248 H 0.43635 0.89076 0.91812 0.0
H1249 H 0.47026 0.90925 0.87698 0.0
H1250 H 0.44086 0.94869 0.82816 0.0
H1251 H 0.40695 0.93071 0.86935 0.0
C1252 C 0.28952 0.84175 0.90754 0.0
C1253 C 0.28667 0.85821 0.88679 0.0
C1254 C 0.31192 0.84798 0.92203 0.0
C1255 C 0.33181 0.87069 0.91578 0.0
C1256 C 0.32891 0.88674 0.89435 0.0
C1257 C 0.30673 0.88065 0.88022 0.0
C1258 C 0.35576 0.87847 0.93154 0.0
C1259 C 0.37559 0.88799 0.90897 0.0
C1260 C 0.35957 0.87875 0.96846 0.0
C1261 C 0.33974 0.87026 0.99403 0.0
C1262 C 0.32558 0.88101 0.99561 0.0
C1263 C 0.30726 0.87329 0.0204 0.0
C1264 C 0.30301 0.8549 0.04386 0.0
C1265 C 0.31707 0.84419 0.04254 0.0
C1266 C 0.33545 0.85188 0.01785 0.0
C1267 C 0.4609 0.95589 0.98049 0.0
C1268 C 0.47301 0.94733 0.00136 0.0
C1269 C 0.43824 0.94048 0.96719 0.0
C1270 C 0.42686 0.916 0.97438 0.0
C1271 C 0.43863 0.90723 0.99559 0.0
C1272 C 0.46164 0.92274 0.00871 0.0
C1273 C 0.40276 0.90011 0.95914 0.0
C1274 C 0.38299 0.88922 0.98173 0.0
C1275 C 0.39894 0.89884 0.92221 0.0
C1276 C 0.41913 0.90943 0.89695 0.0
C1277 C 0.43717 0.90347 0.89874 0.0
C1278 C 0.45639 0.91386 0.87539 0.0
C1279 C 0.45773 0.93015 0.84999 0.0
C1280 C 0.4398 0.93605 0.84783 0.0
C1281 C 0.42055 0.92573 0.87114 0.0
H1282 H 0.47264 0.9382 0.83197 0.0
H1283 H 0.28888 0.849 0.06312 0.0
H1284 H 0.44606 0.02093 0.64849 0.0
H1285 H 0.42159 0.03778 0.66683 0.0
H1286 H 0.4142 0.05318 0.55822 0.0
H1287 H 0.43849 0.03591 0.53955 0.0
H1288 H 0.43035 0.08144 0.66238 0.0
H1289 H 0.36222 0.05526 0.54847 0.0
H1290 H 0.34103 0.02261 0.50579 0.0
H1291 H 0.34757 0.97416 0.57622 0.0
H1292 H 0.36838 1.00636 0.6195 0.0
H1293 H 0.37795 0.15422 0.6645 0.0
H1294 H 0.39613 0.13143 0.64367 0.0
H1295 H 0.33529 0.06646 0.67977 0.0
H1296 H 0.31684 0.08922 0.7009 0.0
H1297 H 0.3513 0.06095 0.61414 0.0
H1298 H 0.38399 0.09053 0.72866 0.0
H1299 H 0.40358 0.12109 0.77476 0.0
H1300 H 0.46539 0.15858 0.70922 0.0
H1301 H 0.44603 0.1284 0.66252 0.0
C1302 C 0.43899 0.02758 0.62834 0.0
C1303 C 0.44432 0.02702 0.59246 0.0
C1304 C 0.42503 0.03735 0.63895 0.0
C1305 C 0.41593 0.04684 0.61405 0.0
C1306 C 0.42069 0.04576 0.57805 0.0
C1307 C 0.43464 0.03587 0.56736 0.0
C1308 C 0.40256 0.05884 0.62614 0.0
C1309 C 0.41307 0.0769 0.6517 0.0
C1310 C 0.37983 0.0529 0.61275 0.0
C1311 C 0.3671 0.03331 0.58705 0.0
C1312 C 0.35904 0.03761 0.55489 0.0
C1313 C 0.34709 0.01917 0.53058 0.0
C1314 C 0.343 0.99633 0.5382 0.0
C1315 C 0.35078 0.99185 0.57023 0.0
C1316 C 0.36268 1.0102 0.59466 0.0
C1317 C 0.36826 0.13506 0.66789 0.0
C1318 C 0.3459 0.12363 0.68465 0.0
C1319 C 0.37877 0.12204 0.65598 0.0
C1320 C 0.36724 0.09722 0.66041 0.0
C1321 C 0.34457 0.0856 0.67606 0.0
C1322 C 0.33407 0.09866 0.68823 0.0
C1323 C 0.37932 0.08367 0.64984 0.0
C1324 C 0.3686 0.06544 0.62464 0.0
C1325 C 0.40173 0.08919 0.66388 0.0
C1326 C 0.41347 0.10732 0.69197 0.0
C1327 C 0.40169 0.10539 0.72397 0.0
C1328 C 0.41276 0.12262 0.75023 0.0
C1329 C 0.43569 0.14179 0.74489 0.0
C1330 C 0.44762 0.14373 0.71331 0.0
C1331 C 0.43661 0.12656 0.68695 0.0
H1332 H 0.44423 0.15512 0.76525 0.0
H1333 H 0.33378 0.98213 0.51929 0.0
H1334 H 0.89241 0.29352 0.70288 0.0
H1335 H 0.91632 0.33615 0.68998 0.0
H1336 H 0.89915 0.32203 0.57941 0.0
H1337 H 0.87571 0.27944 0.59201 0.0
H1338 H 0.94476 0.35137 0.58587 0.0
H1339 H 0.87525 0.34883 0.63377 0.0
H1340 H 0.84379 0.33939 0.67774 0.0
H1341 H 0.8965 0.38249 0.75458 0.0
H1342 H 0.92831 0.39195 0.71118 0.0
H1343 H 0.9883 0.47291 0.53316 0.0
H1344 H 0.96517 0.43003 0.5451 0.0
H1345 H 0.98387 0.44312 0.65535 0.0
H1346 H 1.00684 0.48585 0.64354 0.0
H1347 H 0.93739 0.41435 0.64869 0.0
H1348 H 1.00689 0.41693 0.6003 0.0
H1349 H 0.03816 0.4264 0.556 0.0
H1350 H 0.98514 0.38329 0.47954 0.0
H1351 H 0.95351 0.37381 0.52327 0.0
C1352 C 0.89338 0.29951 0.6759 0.0
C1353 C 0.88204 0.28296 0.64854 0.0
C1354 C 0.9071 0.32397 0.66851 0.0
C1355 C 0.90957 0.33251 0.63366 0.0
C1356 C 0.89771 0.31602 0.60649 0.0
C1357 C 0.88414 0.29161 0.6138 0.0
C1358 C 0.92517 0.35841 0.62523 0.0
C1359 C 0.94288 0.36509 0.59929 0.0
C1360 C 0.92325 0.37653 0.64319 0.0
C1361 C 0.90417 0.3709 0.66932 0.0
C1362 C 0.88014 0.35615 0.66012 0.0
C1363 C 0.86225 0.35082 0.68493 0.0
C1364 C 0.86815 0.36028 0.71896 0.0
C1365 C 0.89196 0.37515 0.72822 0.0
C1366 C 0.90993 0.38051 0.70352 0.0
C1367 C 0.9879 0.46663 0.55981 0.0
C1368 C 0.99936 0.4829 0.58745 0.0
C1369 C 0.97459 0.44205 0.56666 0.0
C1370 C 0.97264 0.43319 0.60122 0.0
C1371 C 0.98487 0.4494 0.62852 0.0
C1372 C 0.9981 0.47388 0.6217 0.0
C1373 C 0.95697 0.40728 0.60937 0.0
C1374 C 0.93925 0.40061 0.63526 0.0
C1375 C 0.95884 0.38918 0.5913 0.0
C1376 C 0.97782 0.39486 0.56496 0.0
C1377 C 1.00188 0.40963 0.57395 0.0
C1378 C 0.01968 0.41497 0.54896 0.0
C1379 C 1.01364 0.40551 0.51495 0.0
C1380 C 0.98979 0.39064 0.50588 0.0
C1381 C 0.97193 0.38526 0.53077 0.0
H1382 H 0.02744 0.40966 0.49564 0.0
H1383 H 0.85427 0.35614 0.73812 0.0
H1384 H 0.7977 0.64204 0.69287 0.0
H1385 H 0.75481 0.61874 0.68055 0.0
H1386 H 0.76744 0.64668 0.57435 0.0
H1387 H 0.8098 0.67037 0.58694 0.0
H1388 H 0.73286 0.65005 0.59927 0.0
H1389 H 0.75092 0.58656 0.59682 0.0
H1390 H 0.76624 0.56123 0.62006 0.0
H1391 H 0.71755 0.54022 0.70711 0.0
H1392 H 0.70214 0.56567 0.6846 0.0
H1393 H 0.62015 0.57013 0.52066 0.0
H1394 H 0.66219 0.59312 0.53743 0.0
H1395 H 0.64386 0.56923 0.64508 0.0
H1396 H 0.60195 0.54625 0.62863 0.0
H1397 H 0.68044 0.56383 0.62253 0.0
H1398 H 0.66143 0.62646 0.62243 0.0
H1399 H 0.64599 0.6513 0.59765 0.0
H1400 H 0.69673 0.67343 0.51322 0.0
H1401 H 0.71227 0.64846 0.53724 0.0
C1402 C 0.7913 0.64282 0.66675 0.0
C1403 C 0.80717 0.65806 0.64091 0.0
C1404 C 0.76674 0.6295 0.65967 0.0
C1405 C 0.75766 0.63083 0.62639 0.0
C1406 C 0.77375 0.6454 0.60031 0.0
C1407 C 0.79808 0.65888 0.60751 0.0
C1408 C 0.73148 0.61809 0.61875 0.0
C1409 C 0.72153 0.63111 0.60398 0.0
C1410 C 0.7163 0.59349 0.62565 0.0
C1411 C 0.72557 0.57822 0.63924 0.0
C1412 C 0.74362 0.57668 0.62107 0.0
C1413 C 0.75229 0.56228 0.63408 0.0
C1414 C 0.74293 0.54918 0.6651 0.0
C1415 C 0.72482 0.55041 0.68312 0.0
C1416 C 0.7161 0.56481 0.67024 0.0
C1417 C 0.62499 0.57009 0.54803 0.0
C1418 C 0.60754 0.55632 0.57323 0.0
C1419 C 0.6491 0.58324 0.5576 0.0
C1420 C 0.65631 0.58295 0.59259 0.0
C1421 C 0.63884 0.5697 0.61792 0.0
C1422 C 0.61479 0.55667 0.60844 0.0
C1423 C 0.68206 0.59575 0.60258 0.0
C1424 C 0.69184 0.58277 0.61788 0.0
C1425 C 0.69715 0.62035 0.59592 0.0
C1426 C 0.68786 0.63541 0.58146 0.0
C1427 C 0.66917 0.63647 0.59842 0.0
C1428 C 0.66042 0.6506 0.58454 0.0
C1429 C 0.67033 0.66388 0.55383 0.0
C1430 C 0.68905 0.66311 0.53698 0.0
C1431 C 0.69785 0.64899 0.55074 0.0
H1432 H 0.66354 0.67482 0.54313 0.0
H1433 H 0.74966 0.53803 0.67513 0.0
H1434 H 0.82332 0.617 0.08421 0.0
H1435 H 0.83881 0.59006 0.07443 0.0
H1436 H 0.85801 0.59521 0.1844 0.0
H1437 H 0.8426 0.62237 0.19439 0.0
H1438 H 0.8946 0.60278 0.1424 0.0
H1439 H 0.81216 0.5436 0.14997 0.0
H1440 H 0.76952 0.52451 0.13531 0.0
H1441 H 0.78476 0.51666 0.02754 0.0
H1442 H 0.82755 0.53601 0.04145 0.0
H1443 H 0.93527 0.52191 0.13909 0.0
H1444 H 0.90955 0.53829 0.15239 0.0
H1445 H 0.88825 0.53081 0.04308 0.0
H1446 H 0.91351 0.5134 0.02995 0.0
H1447 H 0.85173 0.5235 0.085 0.0
H1448 H 0.93368 0.58422 0.07584 0.0
H1449 H 0.97655 0.60368 0.08918 0.0
H1450 H 0.96242 0.60955 0.19827 0.0
H1451 H 0.91942 0.58985 0.18564 0.0
C1452 C 0.83049 0.61215 0.10651 0.0
C1453 C 0.83168 0.62193 0.14013 0.0
C1454 C 0.8393 0.59662 0.10087 0.0
C1455 C 0.84952 0.59041 0.12867 0.0
C1456 C 0.8502 0.59966 0.16249 0.0
C1457 C 0.84125 0.61512 0.16822 0.0
C1458 C 0.86093 0.57566 0.12191 0.0
C1459 C 0.88506 0.58526 0.13044 0.0
C1460 C 0.84881 0.55311 0.10514 0.0
C1461 C 0.8231 0.54147 0.09669 0.0
C1462 C 0.80645 0.53799 0.12307 0.0
C1463 C 0.78224 0.52708 0.11491 0.0
C1464 C 0.77444 0.51943 0.0805 0.0
C1465 C 0.79083 0.52262 0.05418 0.0
C1466 C 0.81506 0.53354 0.0622 0.0
C1467 C 0.92462 0.52316 0.11804 0.0
C1468 C 0.92643 0.51641 0.08347 0.0
C1469 C 0.91006 0.53275 0.12561 0.0
C1470 C 0.89745 0.53653 0.09859 0.0
C1471 C 0.89793 0.52828 0.06439 0.0
C1472 C 0.91226 0.51821 0.05689 0.0
C1473 C 0.88532 0.55058 0.10581 0.0
C1474 C 0.86118 0.54095 0.09717 0.0
C1475 C 0.89744 0.57326 0.12225 0.0
C1476 C 0.92332 0.58538 0.12984 0.0
C1477 C 0.93971 0.58955 0.10271 0.0
C1478 C 0.96403 0.60063 0.11013 0.0
C1479 C 0.9722 0.6078 0.14456 0.0
C1480 C 0.95607 0.60397 0.17162 0.0
C1481 C 0.93172 0.59287 0.16434 0.0
H1482 H 0.99103 0.61636 0.15027 0.0
H1483 H 0.75569 0.51098 0.07423 0.0
H1484 H 0.34825 0.28246 0.16287 0.0
H1485 H 0.35878 0.32168 0.13777 0.0
H1486 H 0.43154 0.33817 0.12678 0.0
H1487 H 0.4214 0.29979 0.15172 0.0
H1488 H 0.4302 0.37448 0.15638 0.0
H1489 H 0.39302 0.32315 0.05207 0.0
H1490 H 0.3595 0.29087 0.01925 0.0
H1491 H 0.31604 0.32169 0.0428 0.0
H1492 H 0.34941 0.35438 0.07513 0.0
H1493 H 0.46529 0.44613 0.98602 0.0
H1494 H 0.4397 0.40917 0.0173 0.0
H1495 H 0.43743 0.44906 0.10668 0.0
H1496 H 0.46374 0.48643 0.07556 0.0
H1497 H 0.39686 0.38626 0.04529 0.0
H1498 H 0.43599 0.41943 0.1815 0.0
H1499 H 0.47181 0.45158 0.21033 0.0
H1500 H 0.51405 0.45534 0.12087 0.0
H1501 H 0.47853 0.42333 0.09157 0.0
C1502 C 0.36645 0.29448 0.15499 0.0
C1503 C 0.38398 0.28797 0.15967 0.0
C1504 C 0.37245 0.31686 0.14055 0.0
C1505 C 0.39604 0.33303 0.13049 0.0
C1506 C 0.4133 0.32624 0.13465 0.0
C1507 C 0.40739 0.30412 0.14894 0.0
C1508 C 0.40349 0.35725 0.11611 0.0
C1509 C 0.42263 0.37705 0.13234 0.0
C1510 C 0.39366 0.36088 0.08495 0.0
C1511 C 0.37355 0.34098 0.06629 0.0
C1512 C 0.37625 0.32291 0.05042 0.0
C1513 C 0.35733 0.30461 0.03185 0.0
C1514 C 0.33562 0.30411 0.02925 0.0
C1515 C 0.33283 0.32204 0.04495 0.0
C1516 C 0.35176 0.34052 0.06324 0.0
C1517 C 0.45912 0.44715 0.01215 0.0
C1518 C 0.46683 0.46933 0.02837 0.0
C1519 C 0.44433 0.42589 0.03001 0.0
C1520 C 0.43683 0.42617 0.06465 0.0
C1521 C 0.44324 0.4483 0.08019 0.0
C1522 C 0.45817 0.46969 0.06226 0.0
C1523 C 0.42414 0.4033 0.08487 0.0
C1524 C 0.40398 0.3838 0.06986 0.0
C1525 C 0.43316 0.39986 0.11707 0.0
C1526 C 0.4546 0.41924 0.13424 0.0
C1527 C 0.45295 0.42719 0.16801 0.0
C1528 C 0.47318 0.44541 0.18439 0.0
C1529 C 0.49519 0.45564 0.16736 0.0
C1530 C 0.497 0.44761 0.13393 0.0
C1531 C 0.47682 0.42946 0.11739 0.0
H1532 H 0.51081 0.46969 0.18016 0.0
H1533 H 0.32099 0.2899 0.01493 0.0
H1534 H 0.81697 0.11266 0.09274 0.0
H1535 H 0.77543 0.08594 0.07752 0.0
H1536 H 0.76155 0.05793 0.1836 0.0
H1537 H 0.80377 0.08442 0.19876 0.0
H1538 H 0.73374 0.02305 0.13509 0.0
H1539 H 0.74965 0.10109 0.16275 0.0
H1540 H 0.77101 0.14497 0.16044 0.0
H1541 H 0.7557 0.14265 0.04972 0.0
H1542 H 0.73453 0.09873 0.05126 0.0
H1543 H 0.60789 0.98926 0.1055 0.0
H1544 H 0.64783 1.00291 0.13006 0.0
H1545 H 0.67907 0.03657 0.03075 0.0
H1546 H 0.63968 0.02331 0.00645 0.0
H1547 H 0.69635 0.06736 0.08561 0.0
H1548 H 0.67628 0.98633 0.06222 0.0
H1549 H 0.6549 0.94277 0.06912 0.0
H1550 H 0.67689 0.95014 0.17747 0.0
H1551 H 0.69769 0.99379 0.1717 0.0
C1552 C 0.80522 0.10049 0.11272 0.0
C1553 C 0.81362 0.10083 0.14706 0.0
C1554 C 0.7814 0.08524 0.104 0.0
C1555 C 0.76511 0.07031 0.12961 0.0
C1556 C 0.7737 0.06938 0.1634 0.0
C1557 C 0.79783 0.08449 0.17205 0.0
C1558 C 0.73906 0.05759 0.12142 0.0
C1559 C 0.72539 0.03268 0.1247 0.0
C1560 C 0.72807 0.07017 0.10812 0.0
C1561 C 0.74065 0.09661 0.10708 0.0
C1562 C 0.75097 0.10993 0.13786 0.0
C1563 C 0.76303 0.13482 0.13669 0.0
C1564 C 0.76475 0.14659 0.10494 0.0
C1565 C 0.75436 0.1335 0.0743 0.0
C1566 C 0.74231 0.10861 0.07531 0.0
C1567 C 0.62328 0.99906 0.0887 0.0
C1568 C 0.62058 1.00532 0.05405 0.0
C1569 C 0.64611 1.0069 0.1028 0.0
C1570 C 0.66656 0.02094 0.08236 0.0
C1571 C 0.66367 0.02594 0.0472 0.0
C1572 C 0.64106 0.01828 0.03327 0.0
C1573 C 0.69106 0.03257 0.09772 0.0
C1574 C 0.7045 0.05754 0.09609 0.0
C1575 C 0.70146 0.01991 0.1131 0.0
C1576 C 0.68827 0.99352 0.11666 0.0
C1577 C 0.67611 0.97877 0.0878 0.0
C1578 C 0.66413 0.95398 0.09148 0.0
C1579 C 0.66447 0.94367 0.12373 0.0
C1580 C 0.67662 0.95812 0.15247 0.0
C1581 C 0.68846 0.98291 0.14903 0.0
H1582 H 0.65541 0.92448 0.12642 0.0
H1583 H 0.77409 0.16586 0.10409 0.0
H1584 H 0.49192 0.95266 0.43291 0.0
H1585 H 0.51182 0.93107 0.41407 0.0
H1586 H 0.54283 0.93991 0.51765 0.0
H1587 H 0.52247 0.96108 0.53692 0.0
H1588 H 0.55645 0.94722 0.40672 0.0
H1589 H 0.55804 0.89746 0.53371 0.0
H1590 H 0.5323 0.87689 0.58477 0.0
H1591 H 0.47066 0.8629 0.5243 0.0
H1592 H 0.49598 0.8831 0.47274 0.0
H1593 H 0.6525 0.92642 0.40589 0.0
H1594 H 0.62227 0.93647 0.42142 0.0
H1595 H 0.56792 0.86275 0.41131 0.0
H1596 H 0.59844 0.85239 0.39573 0.0
H1597 H 0.56106 0.8827 0.47041 0.0
H1598 H 0.57366 0.90221 0.34831 0.0
H1599 H 0.5959 0.92031 0.2935 0.0
H1600 H 0.62341 0.99007 0.33795 0.0
H1601 H 0.6016 0.97239 0.39323 0.0
C1602 C 0.50257 0.9496 0.45198 0.0
C1603 C 0.50556 0.95868 0.48648 0.0
C1604 C 0.51408 0.93731 0.44106 0.0
C1605 C 0.52894 0.93376 0.46429 0.0
C1606 C 0.53124 0.94202 0.49923 0.0
C1607 C 0.51957 0.9542 0.51026 0.0
C1608 C 0.54341 0.92321 0.4511 0.0
C1609 C 0.55734 0.93306 0.42068 0.0
C1610 C 0.54436 0.90436 0.46869 0.0
C1611 C 0.52896 0.892 0.49947 0.0
C1612 C 0.53899 0.88991 0.53127 0.0
C1613 C 0.52447 0.87833 0.56031 0.0
C1614 C 0.49987 0.86866 0.55781 0.0
C1615 C 0.48972 0.87048 0.52624 0.0
C1616 C 0.50416 0.88203 0.49712 0.0
C1617 C 0.63414 0.91223 0.4068 0.0
C1618 C 0.62797 0.88854 0.3994 0.0
C1619 C 0.6168 0.91808 0.4156 0.0
C1620 C 0.5927 0.90047 0.41721 0.0
C1621 C 0.58638 0.8767 0.41016 0.0
C1622 C 0.60383 0.8708 0.40111 0.0
C1623 C 0.57447 0.9072 0.42668 0.0
C1624 C 0.55997 0.89674 0.4564 0.0
C1625 C 0.57262 0.92521 0.40808 0.0
C1626 C 0.58613 0.93593 0.37507 0.0
C1627 C 0.58463 0.9214 0.34655 0.0
C1628 C 0.59712 0.93159 0.31535 0.0
C1629 C 0.61108 0.95633 0.31226 0.0
C1630 C 0.61259 0.97092 0.34037 0.0
C1631 C 0.60015 0.96082 0.37164 0.0
H1632 H 0.62068 0.96419 0.28805 0.0
H1633 H 0.48866 0.85971 0.58033 0.0
H1634 H 0.03134 0.63739 0.50942 0.0
H1635 H 0.05706 0.67656 0.48439 0.0
H1636 H 0.11374 0.66053 0.47508 0.0
H1637 H 0.08779 0.62073 0.50061 0.0
H1638 H 0.12921 0.70603 0.50147 0.0
H1639 H 0.08382 0.65995 0.40276 0.0
H1640 H 0.04737 0.63224 0.37041 0.0
H1641 H 0.02118 0.68101 0.3809 0.0
H1642 H 0.05732 0.70888 0.41382 0.0
H1643 H 0.20066 0.80472 0.3926 0.0
H1644 H 0.17588 0.7645 0.41503 0.0
H1645 H 0.11642 0.77645 0.42269 0.0
H1646 H 0.14129 0.8171 0.39957 0.0
H1647 H 0.10295 0.73239 0.39597 0.0
H1648 H 0.14753 0.77781 0.49615 0.0
H1649 H 0.18366 0.80544 0.5292 0.0
H1650 H 0.2111 0.75785 0.51639 0.0
H1651 H 0.17527 0.73008 0.4828 0.0
C1652 C 0.04927 0.64201 0.50215 0.0
C1653 C 0.05742 0.62573 0.50695 0.0
C1654 C 0.06396 0.66451 0.48762 0.0
C1655 C 0.08724 0.67145 0.4773 0.0
C1656 C 0.09577 0.65552 0.48268 0.0
C1657 C 0.08093 0.63278 0.49721 0.0
C1658 C 0.10242 0.69544 0.46116 0.0
C1659 C 0.12369 0.71165 0.47802 0.0
C1660 C 0.09491 0.70305 0.43112 0.0
C1661 C 0.07322 0.68643 0.41102 0.0
C1662 C 0.07022 0.6647 0.3984 0.0
C1663 C 0.04962 0.64897 0.37992 0.0
C1664 C 0.03195 0.65484 0.37366 0.0
C1665 C 0.03488 0.67648 0.38579 0.0
C1666 C 0.05543 0.69227 0.40433 0.0
C1667 C 0.1823 0.79893 0.39896 0.0
C1668 C 0.17304 0.81433 0.39444 0.0
C1669 C 0.16815 0.77584 0.41198 0.0
C1670 C 0.14435 0.76747 0.42118 0.0
C1671 C 0.13478 0.78252 0.41595 0.0
C1672 C 0.14901 0.80578 0.4028 0.0
C1673 C 0.12972 0.74305 0.43635 0.0
C1674 C 0.10853 0.72676 0.41932 0.0
C1675 C 0.13729 0.73537 0.46627 0.0
C1676 C 0.1588 0.75196 0.48667 0.0
C1677 C 0.16134 0.77331 0.50015 0.0
C1678 C 0.18176 0.78899 0.51902 0.0
C1679 C 0.19969 0.78343 0.52481 0.0
C1680 C 0.19721 0.76215 0.51184 0.0
C1681 C 0.17684 0.74642 0.49291 0.0
H1682 H 0.21549 0.7956 0.53942 0.0
H1683 H 1.01602 0.64263 0.35936 0.0
H1684 H 0.2717 0.35898 0.42278 0.0
H1685 H 0.31107 0.37636 0.451 0.0
H1686 H 0.335 0.44045 0.38962 0.0
H1687 H 0.29609 0.42349 0.36183 0.0
H1688 H 0.35674 0.39371 0.42797 0.0
H1689 H 0.36912 0.48873 0.44005 0.0
H1690 H 0.34414 0.50722 0.44685 0.0
H1691 H 0.28907 0.44306 0.49427 0.0
H1692 H 0.31392 0.42436 0.48855 0.0
H1693 H 0.47786 0.47844 0.45468 0.0
H1694 H 0.43686 0.45727 0.43348 0.0
H1695 H 0.41233 0.46529 0.53543 0.0
H1696 H 0.45345 0.48677 0.55682 0.0
H1697 H 0.38832 0.47262 0.48525 0.0
H1698 H 0.40682 0.41192 0.51053 0.0
H1699 H 0.42983 0.39109 0.50877 0.0
H1700 H 0.42006 0.38287 0.39651 0.0
H1701 H 0.39727 0.40396 0.39751 0.0
C1702 C 0.28546 0.37665 0.41502 0.0
C1703 C 0.28061 0.38987 0.39019 0.0
C1704 C 0.30796 0.38659 0.43121 0.0
C1705 C 0.32594 0.40993 0.42296 0.0
C1706 C 0.32136 0.42264 0.39705 0.0
C1707 C 0.29903 0.41281 0.38102 0.0
C1708 C 0.34934 0.42153 0.44175 0.0
C1709 C 0.36362 0.41094 0.44052 0.0
C1710 C 0.35818 0.44375 0.45908 0.0
C1711 C 0.34334 0.45508 0.46357 0.0
C1712 C 0.35176 0.47862 0.45218 0.0
C1713 C 0.33762 0.48914 0.45585 0.0
C1714 C 0.31502 0.47631 0.47095 0.0
C1715 C 0.30657 0.45297 0.48259 0.0
C1716 C 0.32068 0.4424 0.47913 0.0
C1717 C 0.46381 0.47589 0.47263 0.0
C1718 C 0.46908 0.48432 0.5076 0.0
C1719 C 0.44028 0.46358 0.46048 0.0
C1720 C 0.42132 0.45921 0.48297 0.0
C1721 C 0.42656 0.46827 0.51754 0.0
C1722 C 0.45014 0.48061 0.52975 0.0
C1723 C 0.39614 0.44524 0.47031 0.0
C1724 C 0.38147 0.45537 0.47277 0.0
C1725 C 0.38676 0.42236 0.45485 0.0
C1726 C 0.40051 0.40971 0.45407 0.0
C1727 C 0.40974 0.40584 0.48542 0.0
C1728 C 0.42272 0.39395 0.48457 0.0
C1729 C 0.42645 0.3857 0.45254 0.0
C1730 C 0.41718 0.38929 0.4213 0.0
C1731 C 0.40421 0.40119 0.422 0.0
H1732 H 0.43649 0.37649 0.45194 0.0
H1733 H 0.30408 0.48446 0.47367 0.0
H1734 H 0.76318 0.69941 0.18909 0.0
H1735 H 0.74176 0.71943 0.20944 0.0
H1736 H 0.75676 0.71025 0.31741 0.0
H1737 H 0.77812 0.69037 0.29741 0.0
H1738 H 0.7034 0.70874 0.25547 0.0
H1739 H 0.77458 0.7631 0.36096 0.0
H1740 H 0.81706 0.77766 0.37243 0.0
H1741 H 0.82959 0.77714 0.26131 0.0
H1742 H 0.78738 0.76336 0.24905 0.0
H1743 H 0.7103 0.80136 0.39697 0.0
H1744 H 0.72186 0.77397 0.37223 0.0
H1745 H 0.69194 0.77684 0.27171 0.0
H1746 H 0.67938 0.80362 0.29713 0.0
H1747 H 0.75264 0.78193 0.32528 0.0
H1748 H 0.68053 0.72828 0.22105 0.0
H1749 H 0.63764 0.71245 0.21115 0.0
H1750 H 0.62616 0.70977 0.32307 0.0
H1751 H 0.66891 0.72531 0.33363 0.0
C1752 C 0.76153 0.70124 0.21719 0.0
C1753 C 0.77264 0.69348 0.24159 0.0
C1754 C 0.74924 0.71269 0.22879 0.0
C1755 C 0.74796 0.71673 0.26495 0.0
C1756 C 0.75779 0.70769 0.28936 0.0
C1757 C 0.77 0.69627 0.27784 0.0
C1758 C 0.73809 0.73192 0.27727 0.0
C1759 C 0.71421 0.7249 0.27039 0.0
C1760 C 0.75207 0.75286 0.29719 0.0
C1761 C 0.77771 0.76189 0.30414 0.0
C1762 C 0.78642 0.76624 0.33895 0.0
C1763 C 0.81046 0.77436 0.34559 0.0
C1764 C 0.82597 0.77812 0.31765 0.0
C1765 C 0.81753 0.77408 0.28295 0.0
C1766 C 0.79356 0.76616 0.27614 0.0
C1767 C 0.70571 0.79576 0.36978 0.0
C1768 C 0.6938 0.80456 0.34909 0.0
C1769 C 0.71249 0.78017 0.35553 0.0
C1770 C 0.70789 0.77318 0.31997 0.0
C1771 C 0.6954 0.78149 0.29937 0.0
C1772 C 0.68818 0.79683 0.31391 0.0
C1773 C 0.7176 0.75849 0.30449 0.0
C1774 C 0.74167 0.76575 0.31048 0.0
C1775 C 0.7037 0.73771 0.28407 0.0
C1776 C 0.67795 0.72822 0.27808 0.0
C1777 C 0.66883 0.72426 0.24353 0.0
C1778 C 0.64455 0.71534 0.23781 0.0
C1779 C 0.6292 0.71019 0.26646 0.0
C1780 C 0.63808 0.71386 0.3009 0.0
C1781 C 0.66234 0.72276 0.30676 0.0
H1782 H 0.61041 0.7033 0.26197 0.0
H1783 H 0.84454 0.78426 0.32288 0.0
H1784 H 0.31778 0.1381 0.20712 0.0
H1785 H 0.29477 0.09582 0.22128 0.0
H1786 H 0.24649 0.10848 0.28336 0.0
H1787 H 0.27069 0.15121 0.27123 0.0
H1788 H 0.25293 0.0803 0.31781 0.0
H1789 H 0.23254 0.07788 0.19726 0.0
H1790 H 0.23854 0.0859 0.13334 0.0
H1791 H 0.2776 0.04865 0.12808 0.0
H1792 H 0.27213 0.04068 0.19207 0.0
H1793 H 0.18501 0.94206 0.26955 0.0
H1794 H 0.19786 0.98347 0.25432 0.0
H1795 H 0.24777 1.00719 0.341 0.0
H1796 H 0.23369 0.96595 0.35767 0.0
H1797 H 0.23459 0.01648 0.23068 0.0
H1798 H 0.26492 0.06146 0.36886 0.0
H1799 H 0.25225 0.05256 0.43103 0.0
H1800 H 0.18092 1.00325 0.39796 0.0
H1801 H 0.19309 0.01208 0.33559 0.0
C1802 C 0.30204 0.13183 0.22333 0.0
C1803 C 0.29597 0.14802 0.23784 0.0
C1804 C 0.28873 0.1075 0.23133 0.0
C1805 C 0.26845 0.09853 0.253 0.0
C1806 C 0.26201 0.11471 0.26668 0.0
C1807 C 0.27576 0.13917 0.25952 0.0
C1808 C 0.25486 0.07263 0.26297 0.0
C1809 C 0.24879 0.06639 0.29859 0.0
C1810 C 0.24872 0.05412 0.23808 0.0
C1811 C 0.25208 0.05886 0.19955 0.0
C1812 C 0.24255 0.07154 0.18252 0.0
C1813 C 0.24584 0.07605 0.14626 0.0
C1814 C 0.25849 0.06783 0.12667 0.0
C1815 C 0.26783 0.05502 0.14329 0.0
C1816 C 0.26461 0.05048 0.17955 0.0
C1817 C 0.19829 0.95615 0.28586 0.0
C1818 C 0.20805 0.95068 0.31514 0.0
C1819 C 0.20582 0.97989 0.27697 0.0
C1820 C 0.22368 0.9988 0.29667 0.0
C1821 C 0.23343 0.99322 0.32592 0.0
C1822 C 0.22542 0.9695 0.3354 0.0
C1823 C 0.23301 0.02421 0.28559 0.0
C1824 C 0.23841 0.03036 0.2498 0.0
C1825 C 0.23751 0.04253 0.31006 0.0
C1826 C 0.22999 0.03731 0.34754 0.0
C1827 C 0.24651 0.04881 0.37485 0.0
C1828 C 0.23942 0.04375 0.41013 0.0
C1829 C 0.21581 0.0273 0.41844 0.0
C1830 C 0.19922 0.01593 0.39148 0.0
C1831 C 0.20621 0.02093 0.35616 0.0
H1832 H 0.21037 0.02339 0.44576 0.0
H1833 H 0.26101 0.07135 0.0986 0.0
H1834 H 0.15344 0.26279 0.30689 0.0
H1835 H 0.11299 0.23541 0.28633 0.0
H1836 H 0.08574 0.26897 0.35518 0.0
H1837 H 0.12621 0.29668 0.3756 0.0
H1838 H 0.05672 0.21751 0.35212 0.0
H1839 H 0.09388 0.28581 0.27522 0.0
H1840 H 0.12603 0.31475 0.23676 0.0
H1841 H 0.11603 0.25826 0.16727 0.0
H1842 H 0.08413 0.2289 0.20573 0.0
H1843 H 0.94405 0.17701 0.26905 0.0
H1844 H 0.98263 0.19818 0.29846 0.0
H1845 H 1.01493 0.18225 0.21103 0.0
H1846 H 0.9766 0.16259 0.18053 0.0
H1847 H 0.04188 0.22475 0.22544 0.0
H1848 H 1.00464 0.15592 0.30152 0.0
H1849 H 0.97327 0.12657 0.34065 0.0
H1850 H 0.9834 0.18254 0.41135 0.0
H1851 H 1.01467 0.21226 0.37247 0.0
C1852 C 0.13884 0.26412 0.31818 0.0
C1853 C 0.14315 0.28206 0.34283 0.0
C1854 C 0.1157 0.24847 0.30628 0.0
C1855 C 0.09632 0.25023 0.319 0.0
C1856 C 0.10039 0.26725 0.345 0.0
C1857 C 0.12357 0.28313 0.35657 0.0
C1858 C 0.07218 0.23555 0.30325 0.0
C1859 C 0.05335 0.21915 0.32448 0.0
C1860 C 0.06788 0.23743 0.26708 0.0
C1861 C 0.08678 0.25512 0.24358 0.0
C1862 C 0.09867 0.27953 0.2519 0.0
C1863 C 0.11683 0.29602 0.23009 0.0
C1864 C 0.12311 0.28834 0.19964 0.0
C1865 C 0.11118 0.26417 0.1909 0.0
C1866 C 0.09305 0.2476 0.2127 0.0
C1867 C 0.9593 0.1776 0.25644 0.0
C1868 C 0.95723 0.16798 0.22252 0.0
C1869 C 0.98146 0.1897 0.27338 0.0
C1870 C 1.00198 0.19173 0.2574 0.0
C1871 C 0.9996 0.18117 0.22409 0.0
C1872 C 0.97759 0.16971 0.20672 0.0
C1873 C 0.0261 0.20606 0.27404 0.0
C1874 C 0.04505 0.22269 0.253 0.0
C1875 C 0.0305 0.2042 0.31035 0.0
C1876 C 1.0119 0.18632 0.33397 0.0
C1877 C 1.00011 0.16198 0.32534 0.0
C1878 C 0.98237 0.14528 0.34749 0.0
C1879 C 0.97638 0.15269 0.37848 0.0
C1880 C 0.98811 0.17682 0.38738 0.0
C1881 C 1.00586 0.19359 0.36533 0.0
H1882 H 0.96267 0.13974 0.39561 0.0
H1883 H 0.13718 0.30113 0.18279 0.0
H1884 H 0.27241 0.19553 0.71185 0.0
H1885 H 0.24334 0.20837 0.72452 0.0
H1886 H 0.27672 0.23563 0.82537 0.0
H1887 H 0.3055 0.22291 0.81301 0.0
H1888 H 0.22891 0.214 0.83138 0.0
H1889 H 0.28937 0.27236 0.75444 0.0
H1890 H 0.31346 0.2859 0.70012 0.0
H1891 H 0.2501 0.26132 0.63796 0.0
H1892 H 0.2256 0.24734 0.69193 0.0
H1893 H 0.19297 0.29878 0.87338 0.0
H1894 H 0.21374 0.27679 0.86096 0.0
H1895 H 0.18196 0.25924 0.75732 0.0
H1896 H 0.16179 0.28172 0.76923 0.0
H1897 H 0.22626 0.27296 0.75063 0.0
H1898 H 0.16564 0.21705 0.82756 0.0
H1899 H 0.14131 0.20307 0.88161 0.0
H1900 H 0.20382 0.222 0.94328 0.0
H1901 H 0.22858 0.23639 0.88965 0.0
C1902 C 0.27326 0.20389 0.73694 0.0
C1903 C 0.29139 0.20827 0.76131 0.0
C1904 C 0.25674 0.21139 0.74409 0.0
C1905 C 0.25794 0.22328 0.77581 0.0
C1906 C 0.27534 0.22658 0.80073 0.0
C1907 C 0.29189 0.21932 0.79351 0.0
C1908 C 0.24204 0.23342 0.78271 0.0
C1909 C 0.22842 0.22699 0.81381 0.0
C1910 C 0.24094 0.25004 0.75956 0.0
C1911 C 0.25565 0.25856 0.72716 0.0
C1912 C 0.28057 0.26968 0.72916 0.0
C1913 C 0.2943 0.27746 0.69844 0.0
C1914 C 0.28332 0.2744 0.66559 0.0
C1915 C 0.25858 0.26363 0.66341 0.0
C1916 C 0.24476 0.25578 0.69405 0.0
C1917 C 0.19011 0.28993 0.84815 0.0
C1918 C 0.17563 0.29205 0.82237 0.0
C1919 C 0.20199 0.27726 0.84104 0.0
C1920 C 0.1994 0.26606 0.80818 0.0
C1921 C 0.18444 0.2677 0.78282 0.0
C1922 C 0.17278 0.28052 0.78977 0.0
C1923 C 0.21306 0.25365 0.79949 0.0
C1924 C 0.22641 0.25974 0.76808 0.0
C1925 C 0.21381 0.23664 0.82231 0.0
C1926 C 0.19898 0.228 0.85462 0.0
C1927 C 0.17422 0.2184 0.85269 0.0
C1928 C 0.16035 0.21037 0.88324 0.0
C1929 C 0.17101 0.2117 0.91587 0.0
C1930 C 0.19558 0.22101 0.91799 0.0
C1931 C 0.20954 0.22908 0.88752 0.0
H1932 H 0.16024 0.20547 0.93949 0.0
H1933 H 0.29397 0.28043 0.64184 0.0
H1934 H 0.80169 0.1346 0.69496 0.0
H1935 H 0.77586 0.0932 0.71388 0.0
H1936 H 0.7722 0.11743 0.81832 0.0
H1937 H 0.79778 0.15866 0.79954 0.0
H1938 H 0.78416 0.08368 0.82159 0.0
H1939 H 0.72355 0.0927 0.76233 0.0
H1940 H 0.70511 0.10195 0.71234 0.0
H1941 H 0.70664 0.04733 0.65049 0.0
H1942 H 0.72536 0.03794 0.7 0.0
H1943 H 0.70175 0.97559 0.90048 0.0
H1944 H 0.71921 0.01545 0.87496 0.0
H1945 H 0.71952 0.98706 0.77228 0.0
H1946 H 0.7015 0.9469 0.79759 0.0
H1947 H 0.70929 0.02227 0.76593 0.0
H1948 H 0.76945 0.01297 0.82472 0.0
H1949 H 0.78828 1.00368 0.87411 0.0
H1950 H 0.78889 0.05945 0.93581 0.0
H1951 H 0.76969 0.06882 0.88699 0.0
C1952 C 0.79496 0.13114 0.72174 0.0
C1953 C 0.80204 0.15002 0.74584 0.0
C1954 C 0.78018 0.1074 0.73257 0.0
C1955 C 0.77204 0.10204 0.76765 0.0
C1956 C 0.7783 0.12097 0.79121 0.0
C1957 C 0.79299 0.1446 0.78042 0.0
C1958 C 0.75848 0.07685 0.7807 0.0
C1959 C 0.76759 0.07041 0.8097 0.0
C1960 C 0.73725 0.05913 0.76456 0.0
C1961 C 0.7261 0.0648 0.73474 0.0
C1962 C 0.72015 0.08281 0.73796 0.0
C1963 C 0.7096 0.08804 0.70974 0.0
C1964 C 0.70478 0.07528 0.67822 0.0
C1965 C 0.71043 0.05722 0.6749 0.0
C1966 C 0.72099 0.05192 0.70304 0.0
C1967 C 0.70517 0.97769 0.87236 0.0
C1968 C 0.70034 0.95795 0.85122 0.0
C1969 C 0.71533 1.0006 0.85778 0.0
C1970 C 0.72128 1.00449 0.82176 0.0
C1971 C 0.71528 0.98465 0.80017 0.0
C1972 C 0.70493 0.96163 0.81472 0.0
C1973 C 0.7348 0.02931 0.80724 0.0
C1974 C 0.72581 0.03562 0.77787 0.0
C1975 C 0.75627 0.04698 0.82292 0.0
C1976 C 0.76786 0.0414 0.85233 0.0
C1977 C 0.7734 0.02312 0.84893 0.0
C1978 C 0.78417 0.01786 0.87681 0.0
C1979 C 0.78971 0.03091 0.90812 0.0
C1980 C 0.78454 0.04931 0.91158 0.0
C1981 C 0.77371 0.0546 0.88381 0.0
H1982 H 0.79805 0.02682 0.92968 0.0
H1983 H 0.6966 0.07936 0.6564 0.0
H1984 H 0.1327 0.77835 0.85252 0.0
H1985 H 0.09018 0.75785 0.83727 0.0
H1986 H 0.10824 0.77333 0.7272 0.0
H1987 H 0.15032 0.79375 0.74209 0.0
H1988 H 0.07753 0.78734 0.74746 0.0
H1989 H 0.08199 0.71426 0.76027 0.0
H1990 H 0.09066 0.68678 0.79389 0.0
H1991 H 0.0435 0.68282 0.87629 0.0
H1992 H 0.03422 0.70985 0.84285 0.0
H1993 H 0.97265 0.72779 0.65405 0.0
H1994 H 1.01128 0.73801 0.67878 0.0
H1995 H 0.97906 0.71256 0.78087 0.0
H1996 H 0.93986 0.70133 0.75557 0.0
H1997 H 1.01519 0.70403 0.77293 0.0
H1998 H 1.00683 0.77229 0.76033 0.0
H1999 H 0.99751 0.80053 0.73062 0.0
H2000 H 0.0527 0.81706 0.65477 0.0
H2001 H 0.06214 0.78864 0.68372 0.0
C2002 C 0.12759 0.77696 0.82503 0.0
C2003 C 0.14504 0.78786 0.7986 0.0
C2004 C 0.10323 0.7652 0.81631 0.0
C2005 C 0.09587 0.76403 0.781 0.0
C2006 C 0.11333 0.77405 0.75462 0.0
C2007 C 0.1375 0.78573 0.76325 0.0
C2008 C 0.07028 0.75418 0.77121 0.0
C2009 C 0.064 0.76902 0.75269 0.0
C2010 C 0.05223 0.73066 0.77946 0.0
C2011 C 0.05753 0.71414 0.7992 0.0
C2012 C 0.07347 0.70748 0.78556 0.0
C2013 C 0.07839 0.69189 0.80449 0.0
C2014 C 0.06753 0.68293 0.83713 0.0
C2015 C 0.05169 0.68952 0.85085 0.0
C2016 C 0.04652 0.70489 0.83186 0.0
C2017 C 0.97366 0.72389 0.68163 0.0
C2018 C 0.9532 0.71388 0.70288 0.0
C2019 C 0.99584 0.72992 0.69586 0.0
C2020 C 0.99837 0.7268 0.73203 0.0
C2021 C 0.97771 0.71537 0.75297 0.0
C2022 C 0.95528 0.70888 0.73847 0.0
C2023 C 0.02273 0.73695 0.74779 0.0
C2024 C 0.02872 0.72234 0.7677 0.0
C2025 C 0.04055 0.76093 0.74146 0.0
C2026 C 0.03507 0.77818 0.72405 0.0
C2027 C 1.01689 0.78183 0.73718 0.0
C2028 C 1.01159 0.79788 0.72049 0.0
C2029 C 0.02448 0.81055 0.69078 0.0
C2030 C 0.04272 0.80722 0.67776 0.0
C2031 C 0.04807 0.79116 0.69433 0.0
H2032 H 0.02035 0.82297 0.6779 0.0
H2033 H 0.0714 0.67092 0.85182 0.0
loop_
_geom_bond_atom_site_label_1
_geom_bond_atom_site_label_2
_geom_bond_distance
_geom_bond_site_symmetry_2
_ccdc_geom_bond_type
Mg0 O7 2.141 1_554 S
Mg0 O8 2.048 . S
Mg0 O9 2.048 . S
Mg0 O12 2.141 . S
C1 O2 1.313 . S
C1 O8 1.195 . S
O2 C1 1.313 . S
C3 O4 1.245 . S
C3 O12 1.289 1_655 S
O4 C3 1.245 . S
C5 O6 1.245 1_455 S
C5 O7 1.289 . S
O6 C5 1.245 1_655 S
O7 Mg0 2.141 1_556 S
O7 C5 1.289 . S
O8 Mg0 2.048 . S
O8 C1 1.195 . S
O9 Mg0 2.048 . S
O9 C10 1.195 . S
C10 O9 1.195 . S
C10 O11 1.313 . S
O11 C10 1.313 . S
O12 Mg0 2.141 . S
O12 C3 1.289 1_455 S
Mg13 O20 2.141 1_554 S
Mg13 O21 2.048 . S
Mg13 O22 2.048 . S
Mg13 O25 2.141 . S
C14 O15 1.313 . S
C14 O21 1.195 . S
O15 C14 1.313 . S
C16 O17 1.245 . S
C16 O25 1.289 . S
O17 C16 1.245 . S
C18 O19 1.245 . S
C18 O20 1.289 . S
O19 C18 1.245 . S
O20 Mg13 2.141 1_556 S
O20 C18 1.289 . S
O21 Mg13 2.048 . S
O21 C14 1.195 . S
O22 Mg13 2.048 . S
O22 C23 1.195 . S
C23 O22 1.195 . S
C23 O24 1.313 . S
O24 C23 1.313 . S
O25 Mg13 2.141 . S
O25 C16 1.289 . S
Mg26 O33 2.141 1_545 S
Mg26 O34 2.048 1_554 S
Mg26 O35 2.048 . S
Mg26 O38 2.141 . S
C27 O28 1.313 1_545 S
C27 O34 1.195 . S
O28 C27 1.313 1_565 S
C29 O30 1.245 . S
C29 O38 1.289 1_565 S
O30 C29 1.245 . S
C31 O32 1.245 . S
C31 O33 1.289 . S
O32 C31 1.245 . S
O33 Mg26 2.141 1_565 S
O33 C31 1.289 . S
O34 Mg26 2.048 1_556 S
O34 C27 1.195 . S
O35 Mg26 2.048 . S
O35 C36 1.195 . S
C36 O35 1.195 . S
C36 O37 1.313 . S
O37 C36 1.313 . S
O38 Mg26 2.141 . S
O38 C29 1.289 1_545 S
Mg39 O46 2.141 . S
Mg39 O47 2.048 . S
Mg39 O48 2.048 . S
Mg39 O51 2.141 . S
C40 O41 1.313 . S
C40 O47 1.195 1_565 S
O41 C40 1.313 . S
C42 O43 1.245 . S
C42 O51 1.289 . S
O43 C42 1.245 . S
C44 O45 1.213 1_545 S
C44 O46 1.289 . S
O45 C44 1.213 1_565 S
O46 Mg39 2.141 . S
O46 C44 1.289 . S
O47 Mg39 2.048 . S
O47 C40 1.195 1_545 S
O48 Mg39 2.048 . S
O48 C49 1.195 . S
C49 O48 1.195 . S
C49 O50 1.313 1_545 S
O50 C49 1.313 1_565 S
O51 Mg39 2.141 . S
O51 C42 1.289 . S
Mg52 O59 2.141 . S
Mg52 O60 2.048 . S
Mg52 O61 2.048 . S
Mg52 O64 2.141 1_455 S
C53 O54 1.313 . S
C53 O60 1.195 . S
O54 C53 1.313 . S
C55 O56 1.245 1_655 S
C55 O64 1.289 . S
O56 C55 1.245 1_455 S
C57 O58 1.245 . S
C57 O59 1.289 . S
O58 C57 1.245 . S
O59 Mg52 2.141 . S
O59 C57 1.289 . S
O60 Mg52 2.048 . S
O60 C53 1.195 . S
O61 Mg52 2.048 . S
O61 C62 1.195 . S
C62 O61 1.195 . S
C62 O63 1.313 . S
O63 C62 1.313 . S
O64 Mg52 2.141 1_655 S
O64 C55 1.289 . S
Mg65 O72 2.141 . S
Mg65 O73 2.048 . S
Mg65 O74 2.048 . S
Mg65 O77 2.141 . S
C66 O67 1.313 . S
C66 O73 1.195 . S
O67 C66 1.313 . S
C68 O69 1.245 . S
C68 O77 1.289 . S
O69 C68 1.245 . S
C70 O71 1.245 . S
C70 O72 1.289 . S
O71 C70 1.245 . S
O72 Mg65 2.141 . S
O72 C70 1.289 . S
O73 Mg65 2.048 . S
O73 C66 1.195 . S
O74 Mg65 2.048 . S
O74 C75 1.195 . S
C75 O74 1.195 . S
C75 O76 1.313 . S
O76 C75 1.313 . S
O77 Mg65 2.141 . S
O77 C68 1.289 . S
Mg78 O85 2.141 . S
Mg78 O86 2.048 . S
Mg78 O87 2.048 . S
Mg78 O90 2.141 . S
C79 O80 1.313 . S
C79 O86 1.195 . S
O80 C79 1.313 . S
C81 O82 1.245 . S
C81 O90 1.289 . S
O82 C81 1.245 . S
C83 O84 1.245 . S
C83 O85 1.289 . S
O84 C83 1.245 . S
O85 Mg78 2.141 . S
O85 C83 1.289 . S
O86 Mg78 2.048 . S
O86 C79 1.195 . S
O87 Mg78 2.048 . S
O87 C88 1.195 . S
C88 O87 1.195 . S
C88 O89 1.313 . S
O89 C88 1.313 . S
O90 Mg78 2.141 . S
O90 C81 1.289 . S
Mg91 O98 2.141 . S
Mg91 O99 2.048 . S
Mg91 O100 2.048 . S
Mg91 O103 2.141 . S
C92 O93 1.313 . S
C92 O99 1.195 . S
O93 C92 1.313 . S
C94 O95 1.245 . S
C94 O103 1.289 . S
O95 C94 1.245 . S
C96 O97 1.245 . S
C96 O98 1.289 . S
O97 C96 1.245 . S
O98 Mg91 2.141 . S
O98 C96 1.289 . S
O99 Mg91 2.048 . S
O99 C92 1.195 . S
O100 Mg91 2.048 . S
O100 C101 1.195 . S
C101 O100 1.195 . S
C101 O102 1.313 . S
O102 C101 1.313 . S
O103 Mg91 2.141 . S
O103 C94 1.289 . S
Mg104 O111 2.141 . S
Mg104 O112 2.048 . S
Mg104 O113 2.048 . S
Mg104 O116 2.141 . S
C105 O106 1.313 . S
C105 O112 1.195 . S
O106 C105 1.313 . S
C107 O108 1.245 . S
C107 O116 1.289 . S
O108 C107 1.245 . S
C109 O110 1.245 . S
C109 O111 1.289 . S
O110 C109 1.245 . S
O111 Mg104 2.141 . S
O111 C109 1.289 . S
O112 Mg104 2.048 . S
O112 C105 1.195 . S
O113 Mg104 2.048 . S
O113 C114 1.195 . S
C114 O113 1.195 . S
C114 O115 1.313 . S
O115 C114 1.313 . S
O116 Mg104 2.141 . S
O116 C107 1.289 . S
Mg117 O124 2.141 . S
Mg117 O125 2.048 . S
Mg117 O126 2.048 . S
Mg117 O129 2.141 . S
C118 O119 1.313 . S
C118 O125 1.195 . S
O119 C118 1.313 . S
C120 O121 1.245 . S
C120 O129 1.289 . S
O121 C120 1.245 . S
C122 O123 1.245 . S
C122 O124 1.289 . S
O123 C122 1.245 . S
O124 Mg117 2.141 . S
O124 C122 1.289 . S
O125 Mg117 2.048 . S
O125 C118 1.195 . S
O126 Mg117 2.048 . S
O126 C127 1.195 . S
C127 O126 1.195 . S
C127 O128 1.313 . S
O128 C127 1.313 . S
O129 Mg117 2.141 . S
O129 C120 1.289 . S
Mg130 O137 2.141 . S
Mg130 O138 2.048 . S
Mg130 O139 2.048 . S
Mg130 O142 2.141 . S
C131 O132 1.313 . S
C131 O138 1.195 . S
O132 C131 1.313 . S
C133 O134 1.245 . S
C133 O142 1.289 . S
O134 C133 1.245 . S
C135 O136 1.245 . S
C135 O137 1.289 . S
O136 C135 1.245 . S
O137 Mg130 2.141 . S
O137 C135 1.289 . S
O138 Mg130 2.048 . S
O138 C131 1.195 . S
O139 Mg130 2.048 . S
O139 C140 1.195 . S
C140 O139 1.195 . S
C140 O141 1.313 . S
O141 C140 1.313 . S
O142 Mg130 2.141 . S
O142 C133 1.289 . S
Mg143 O150 2.141 . S
Mg143 O151 2.048 . S
Mg143 O152 2.048 . S
Mg143 O155 2.141 . S
C144 O145 1.313 . S
C144 O151 1.195 . S
O145 C144 1.313 . S
C146 O147 1.245 . S
C146 O155 1.289 . S
O147 C146 1.245 . S
C148 O149 1.245 . S
C148 O150 1.289 . S
O149 C148 1.245 . S
O150 Mg143 2.141 . S
O150 C148 1.289 . S
O151 Mg143 2.048 . S
O151 C144 1.195 . S
O152 Mg143 2.048 . S
O152 C153 1.195 . S
C153 O152 1.195 . S
C153 O154 1.313 . S
O154 C153 1.313 . S
O155 Mg143 2.141 . S
O155 C146 1.289 . S
Mg156 O163 2.141 . S
Mg156 O164 2.048 . S
Mg156 O165 2.048 . S
Mg156 O168 2.141 . S
C157 O158 1.313 . S
C157 O164 1.195 . S
O158 C157 1.313 . S
C159 O160 1.245 . S
C159 O168 1.289 . S
O160 C159 1.245 . S
C161 O162 1.245 . S
C161 O163 1.289 . S
O162 C161 1.245 . S
O163 Mg156 2.141 . S
O163 C161 1.289 . S
O164 Mg156 2.048 . S
O164 C157 1.195 . S
O165 Mg156 2.048 . S
O165 C166 1.195 . S
C166 O165 1.195 . S
C166 O167 1.313 . S
O167 C166 1.313 . S
O168 Mg156 2.141 . S
O168 C159 1.289 . S
Mg169 O176 2.141 . S
Mg169 O177 2.048 . S
Mg169 O178 2.048 . S
Mg169 O181 2.141 . S
C170 O171 1.313 . S
C170 O177 1.195 . S
O171 C170 1.313 . S
C172 O173 1.245 . S
C172 O181 1.289 . S
O173 C172 1.245 . S
C174 O175 1.245 . S
C174 O176 1.289 . S
O175 C174 1.245 . S
O176 Mg169 2.141 . S
O176 C174 1.289 . S
O177 Mg169 2.048 . S
O177 C170 1.195 . S
O178 Mg169 2.048 . S
O178 C179 1.195 . S
C179 O178 1.195 . S
C179 O180 1.313 . S
O180 C179 1.313 . S
O181 Mg169 2.141 . S
O181 C172 1.289 . S
Mg182 O189 2.141 . S
Mg182 O190 2.048 . S
Mg182 O191 2.048 . S
Mg182 O194 2.141 . S
C183 O184 1.313 . S
C183 O190 1.195 . S
O184 C183 1.313 . S
C185 O186 1.245 . S
C185 O194 1.289 . S
O186 C185 1.245 . S
C187 O188 1.245 . S
C187 O189 1.289 . S
O188 C187 1.245 . S
O189 Mg182 2.141 . S
O189 C187 1.289 . S
O190 Mg182 2.048 . S
O190 C183 1.195 . S
O191 Mg182 2.048 . S
O191 C192 1.195 . S
C192 O191 1.195 . S
C192 O193 1.313 . S
O193 C192 1.313 . S
O194 Mg182 2.141 . S
O194 C185 1.289 . S
Mg195 O202 2.141 . S
Mg195 O203 2.048 . S
Mg195 O204 2.048 . S
Mg195 O207 2.141 . S
C196 O197 1.313 . S
C196 O203 1.195 . S
O197 C196 1.313 . S
C198 O199 1.245 . S
C198 O207 1.289 . S
O199 C198 1.245 . S
C200 O201 1.245 . S
C200 O202 1.289 . S
O201 C200 1.245 . S
O202 Mg195 2.141 . S
O202 C200 1.289 . S
O203 Mg195 2.048 . S
O203 C196 1.195 . S
O204 Mg195 2.048 . S
O204 C205 1.195 . S
C205 O204 1.195 . S
C205 O206 1.313 . S
O206 C205 1.313 . S
O207 Mg195 2.141 . S
O207 C198 1.289 . S
Mg208 O215 2.141 . S
Mg208 O216 2.048 . S
Mg208 O217 2.048 . S
Mg208 O220 2.141 . S
C209 O210 1.313 . S
C209 O216 1.195 . S
O210 C209 1.313 . S
C211 O212 1.245 . S
C211 O220 1.289 . S
O212 C211 1.245 . S
C213 O214 1.245 . S
C213 O215 1.289 . S
O214 C213 1.245 . S
O215 Mg208 2.141 . S
O215 C213 1.289 . S
O216 Mg208 2.048 . S
O216 C209 1.195 . S
O217 Mg208 2.048 . S
O217 C218 1.195 . S
C218 O217 1.195 . S
C218 O219 1.313 . S
O219 C218 1.313 . S
O220 Mg208 2.141 . S
O220 C211 1.289 . S
Mg221 O228 2.141 . S
Mg221 O229 2.048 . S
Mg221 O230 2.048 . S
Mg221 O233 2.141 . S
C222 O223 1.313 . S
C222 O229 1.195 . S
O223 C222 1.313 . S
C224 O225 1.245 . S
C224 O233 1.289 . S
O225 C224 1.245 . S
C226 O227 1.245 . S
C226 O228 1.289 . S
O227 C226 1.245 . S
O228 Mg221 2.141 . S
O228 C226 1.289 . S
O229 Mg221 2.048 . S
O229 C222 1.195 . S
O230 Mg221 2.048 . S
O230 C231 1.195 . S
C231 O230 1.195 . S
C231 O232 1.313 . S
O232 C231 1.313 . S
O233 Mg221 2.141 . S
O233 C224 1.289 . S
H234 C252 0.951 . S
H235 C254 0.951 . S
H236 C256 0.950 . S
H237 C257 0.950 . S
H238 C259 0.950 . S
H239 C262 0.950 . S
H240 C263 0.950 . S
H241 C265 0.950 . S
H242 C266 0.950 . S
H243 C267 0.951 1_655 S
H244 C269 0.951 1_655 S
H245 C271 0.950 . S
H246 C272 0.950 . S
H247 C274 0.950 . S
H248 C277 0.950 . S
H249 C278 0.950 . S
H250 C280 0.950 . S
H251 C281 0.950 . S
C252 H234 0.951 . S
C252 C253 1.366 . S
C252 C254 1.388 . S
C253 C252 1.366 . S
C253 C257 1.385 1_455 S
C254 H235 0.951 . S
C254 C252 1.388 . S
C254 C255 1.366 . S
C255 C254 1.366 . S
C255 C256 1.414 1_455 S
C255 C258 1.499 . S
C256 H236 0.950 . S
C256 C255 1.414 1_655 S
C256 C257 1.374 . S
C257 H237 0.950 . S
C257 C253 1.385 1_655 S
C257 C256 1.374 . S
C258 C255 1.499 . S
C258 C259 1.373 . S
C258 C260 1.389 . S
C259 H238 0.950 . S
C259 C258 1.373 . S
C259 C275 1.377 . S
C260 C258 1.389 . S
C260 C261 1.524 . S
C260 C274 1.377 . S
C261 C260 1.524 . S
C261 C262 1.397 . S
C261 C266 1.363 . S
C262 H239 0.950 . S
C262 C261 1.397 . S
C262 C263 1.334 . S
C263 H240 0.950 . S
C263 C262 1.334 . S
C263 C264 1.287 . S
C264 C263 1.287 . S
C264 C265 1.524 . S
C264 H283 0.913 . S
C265 H241 0.950 . S
C265 C264 1.524 . S
C265 C266 1.415 . S
C266 H242 0.950 . S
C266 C261 1.363 . S
C266 C265 1.415 . S
C267 H243 0.951 1_455 S
C267 C268 1.366 . S
C267 C269 1.388 . S
C268 C267 1.366 . S
C268 C272 1.385 . S
C269 H244 0.951 1_455 S
C269 C267 1.388 . S
C269 C270 1.366 . S
C270 C269 1.366 . S
C270 C271 1.414 . S
C270 C273 1.499 . S
C271 H245 0.950 . S
C271 C270 1.414 . S
C271 C272 1.374 . S
C272 H246 0.950 . S
C272 C268 1.385 . S
C272 C271 1.374 . S
C273 C270 1.499 . S
C273 C274 1.373 . S
C273 C275 1.389 . S
C274 H247 0.950 . S
C274 C260 1.377 . S
C274 C273 1.373 . S
C275 C259 1.377 . S
C275 C273 1.389 . S
C275 C276 1.524 . S
C276 C275 1.524 . S
C276 C277 1.397 . S
C276 C281 1.363 1_455 S
C277 H248 0.950 . S
C277 C276 1.397 . S
C277 C278 1.334 . S
C278 H249 0.950 . S
C278 C277 1.334 . S
C278 C279 1.287 1_455 S
C279 C278 1.287 1_655 S
C279 C280 1.524 . S
C279 H282 0.999 . S
C280 H250 0.950 . S
C280 C279 1.524 . S
C280 C281 1.415 . S
C281 H251 0.950 . S
C281 C276 1.363 1_655 S
C281 C280 1.415 . S
H282 C279 0.999 . S
H283 C264 0.913 . S
H284 C302 0.951 . S
H285 C304 0.951 . S
H286 C306 0.950 . S
H287 C307 0.950 . S
H288 C309 0.950 . S
H289 C312 0.950 . S
H290 C313 0.950 . S
H291 C315 0.950 . S
H292 C316 0.950 . S
H293 C317 0.951 . S
H294 C319 0.951 . S
H295 C321 0.950 . S
H296 C322 0.950 . S
H297 C324 0.950 . S
H298 C327 0.950 . S
H299 C328 0.950 . S
H300 C330 0.950 . S
H301 C331 0.950 . S
C302 H284 0.951 . S
C302 C303 1.366 . S
C302 C304 1.388 . S
C303 C302 1.366 . S
C303 C307 1.385 . S
C304 H285 0.951 . S
C304 C302 1.388 . S
C304 C305 1.366 . S
C305 C304 1.366 . S
C305 C306 1.414 . S
C305 C308 1.499 . S
C306 H286 0.950 . S
C306 C305 1.414 . S
C306 C307 1.374 . S
C307 H287 0.950 . S
C307 C303 1.385 . S
C307 C306 1.374 . S
C308 C305 1.499 . S
C308 C309 1.373 . S
C308 C310 1.389 . S
C309 H288 0.950 . S
C309 C308 1.373 . S
C309 C325 1.377 . S
C310 C308 1.389 . S
C310 C311 1.524 . S
C310 C324 1.377 . S
C311 C310 1.524 . S
C311 C312 1.397 . S
C311 C316 1.363 . S
C312 H289 0.950 . S
C312 C311 1.397 . S
C312 C313 1.334 . S
C313 H290 0.950 . S
C313 C312 1.334 . S
C313 C314 1.287 . S
C314 C313 1.287 . S
C314 C315 1.524 . S
C314 H333 0.913 . S
C315 H291 0.950 . S
C315 C314 1.524 . S
C315 C316 1.415 . S
C316 H292 0.950 . S
C316 C311 1.363 . S
C316 C315 1.415 . S
C317 H293 0.951 . S
C317 C318 1.366 . S
C317 C319 1.388 . S
C318 C317 1.366 . S
C318 C322 1.385 . S
C319 H294 0.951 . S
C319 C317 1.388 . S
C319 C320 1.366 . S
C320 C319 1.366 . S
C320 C321 1.414 . S
C320 C323 1.499 . S
C321 H295 0.950 . S
C321 C320 1.414 . S
C321 C322 1.374 . S
C322 H296 0.950 . S
C322 C318 1.385 . S
C322 C321 1.374 . S
C323 C320 1.499 . S
C323 C324 1.373 . S
C323 C325 1.389 . S
C324 H297 0.950 . S
C324 C310 1.377 . S
C324 C323 1.373 . S
C325 C309 1.377 . S
C325 C323 1.389 . S
C325 C326 1.524 . S
C326 C325 1.524 . S
C326 C327 1.397 . S
C326 C331 1.363 . S
C327 H298 0.950 . S
C327 C326 1.397 . S
C327 C328 1.334 . S
C328 H299 0.950 . S
C328 C327 1.334 . S
C328 C329 1.287 . S
C329 C328 1.287 . S
C329 C330 1.524 . S
C329 H332 0.999 . S
C330 H300 0.950 . S
C330 C329 1.524 . S
C330 C331 1.415 . S
C331 H301 0.950 . S
C331 C326 1.363 . S
C331 C330 1.415 . S
H332 C329 0.999 . S
H333 C314 0.913 . S
H334 C352 0.951 . S
H335 C354 0.951 . S
H336 C356 0.950 . S
H337 C357 0.950 . S
H338 C359 0.950 . S
H339 C362 0.950 . S
H340 C363 0.950 . S
H341 C365 0.950 . S
H342 C366 0.950 . S
H343 C367 0.951 . S
H344 C369 0.951 . S
H345 C371 0.950 . S
H346 C372 0.950 . S
H347 C374 0.950 . S
H348 C377 0.950 . S
H349 C378 0.950 . S
H350 C380 0.950 . S
H351 C381 0.950 . S
C352 H334 0.951 . S
C352 C353 1.366 . S
C352 C354 1.388 . S
C353 C352 1.366 . S
C353 C357 1.385 1_565 S
C354 H335 0.951 . S
C354 C352 1.388 . S
C354 C355 1.366 1_565 S
C355 C354 1.366 1_545 S
C355 C356 1.414 . S
C355 C358 1.499 . S
C356 H336 0.950 . S
C356 C355 1.414 . S
C356 C357 1.374 . S
C357 H337 0.950 . S
C357 C353 1.385 1_545 S
C357 C356 1.374 . S
C358 C355 1.499 . S
C358 C359 1.373 . S
C358 C360 1.389 1_545 S
C359 H338 0.950 . S
C359 C358 1.373 . S
C359 C375 1.377 . S
C360 C358 1.389 1_565 S
C360 C361 1.524 . S
C360 C374 1.377 . S
C361 C360 1.524 . S
C361 C362 1.397 . S
C361 C366 1.363 . S
C362 H339 0.950 . S
C362 C361 1.397 . S
C362 C363 1.334 . S
C363 H340 0.950 . S
C363 C362 1.334 . S
C363 C364 1.287 . S
C364 C363 1.287 . S
C364 C365 1.524 . S
C364 H383 0.913 . S
C365 H341 0.950 . S
C365 C364 1.524 . S
C365 C366 1.415 . S
C366 H342 0.950 . S
C366 C361 1.363 . S
C366 C365 1.415 . S
C367 H343 0.951 . S
C367 C368 1.366 . S
C367 C369 1.388 . S
C368 C367 1.366 . S
C368 C372 1.385 . S
C369 H344 0.951 . S
C369 C367 1.388 . S
C369 C370 1.366 . S
C370 C369 1.366 . S
C370 C371 1.414 . S
C370 C373 1.499 . S
C371 H345 0.950 . S
C371 C370 1.414 . S
C371 C372 1.374 . S
C372 H346 0.950 . S
C372 C368 1.385 . S
C372 C371 1.374 . S
C373 C370 1.499 . S
C373 C374 1.373 1_545 S
C373 C375 1.389 . S
C374 H347 0.950 . S
C374 C360 1.377 . S
C374 C373 1.373 1_565 S
C375 C359 1.377 . S
C375 C373 1.389 . S
C375 C376 1.524 . S
C376 C375 1.524 . S
C376 C377 1.397 . S
C376 C381 1.363 . S
C377 H348 0.950 . S
C377 C376 1.397 . S
C377 C378 1.334 . S
C378 H349 0.950 . S
C378 C377 1.334 . S
C378 C379 1.287 . S
C379 C378 1.287 . S
C379 C380 1.524 . S
C379 H382 0.999 . S
C380 H350 0.950 . S
C380 C379 1.524 . S
C380 C381 1.415 . S
C381 H351 0.950 . S
C381 C376 1.363 . S
C381 C380 1.415 . S
H382 C379 0.999 . S
H383 C364 0.913 . S
H384 C402 0.951 . S
H385 C404 0.951 . S
H386 C406 0.943 1_655 S
H387 C407 0.950 1_655 S
H388 C409 0.950 1_655 S
H389 C412 0.950 . S
H390 C413 0.950 . S
H391 C415 0.950 . S
H392 C416 0.950 . S
H393 C417 0.951 . S
H394 C419 0.951 . S
H395 C421 0.950 . S
H396 C422 0.950 . S
H397 C424 0.950 . S
H398 C427 0.950 . S
H399 C428 0.950 1_455 S
H400 C430 0.950 . S
H401 C431 0.950 . S
C402 H384 0.951 . S
C402 C403 1.366 . S
C402 C404 1.388 . S
C403 C402 1.366 . S
C403 C407 1.385 . S
C404 H385 0.951 . S
C404 C402 1.388 . S
C404 C405 1.366 . S
C405 C404 1.366 . S
C405 C406 1.421 . S
C405 C408 1.499 . S
C406 H386 0.943 1_455 S
C406 C405 1.421 . S
C406 C407 1.374 . S
C407 H387 0.950 1_455 S
C407 C403 1.385 . S
C407 C406 1.374 . S
C408 C405 1.499 . S
C408 C409 1.373 . S
C408 C410 1.389 . S
C409 H388 0.950 1_455 S
C409 C408 1.373 . S
C409 C425 1.377 . S
C410 C408 1.389 . S
C410 C411 1.524 . S
C410 C424 1.377 . S
C411 C410 1.524 . S
C411 C412 1.397 . S
C411 C416 1.363 . S
C412 H389 0.950 . S
C412 C411 1.397 . S
C412 C413 1.334 . S
C413 H390 0.950 . S
C413 C412 1.334 . S
C413 C414 1.287 . S
C414 C413 1.287 . S
C414 C415 1.524 . S
C414 H433 0.913 . S
C415 H391 0.950 . S
C415 C414 1.524 . S
C415 C416 1.415 . S
C416 H392 0.950 . S
C416 C411 1.363 . S
C416 C415 1.415 . S
C417 H393 0.951 . S
C417 C418 1.366 1_655 S
C417 C419 1.388 . S
C418 C417 1.366 1_455 S
C418 C422 1.385 . S
C419 H394 0.951 . S
C419 C417 1.388 . S
C419 C420 1.366 1_655 S
C420 C419 1.366 1_455 S
C420 C421 1.414 . S
C420 C423 1.499 . S
C421 H395 0.950 . S
C421 C420 1.414 . S
C421 C422 1.374 . S
C422 H396 0.950 . S
C422 C418 1.385 . S
C422 C421 1.374 . S
C423 C420 1.499 . S
C423 C424 1.373 . S
C423 C425 1.389 . S
C424 H397 0.950 . S
C424 C410 1.377 . S
C424 C423 1.373 . S
C425 C409 1.377 . S
C425 C423 1.389 . S
C425 C426 1.524 1_455 S
C426 C425 1.524 1_655 S
C426 C427 1.397 1_655 S
C426 C431 1.363 . S
C427 H398 0.950 . S
C427 C426 1.397 1_455 S
C427 C428 1.334 1_455 S
C428 H399 0.950 1_655 S
C428 C427 1.334 1_655 S
C428 C429 1.287 . S
C429 C428 1.287 . S
C429 C430 1.524 . S
C429 H432 0.999 . S
C430 H400 0.950 . S
C430 C429 1.524 . S
C430 C431 1.415 . S
C431 H401 0.950 . S
C431 C426 1.363 . S
C431 C430 1.415 . S
H432 C429 0.999 . S
H433 C414 0.913 . S
H434 C452 0.951 . S
H435 C454 0.951 . S
H436 C456 0.950 . S
H437 C457 0.950 . S
H438 C459 0.950 . S
H439 C462 0.950 . S
H440 C463 0.950 . S
H441 C465 0.950 . S
H442 C466 0.950 . S
H443 C467 0.951 . S
H444 C469 0.951 . S
H445 C471 0.950 . S
H446 C472 0.950 . S
H447 C474 0.950 . S
H448 C477 0.950 . S
H449 C478 0.950 . S
H450 C480 0.950 . S
H451 C481 0.950 . S
C452 H434 0.951 . S
C452 C453 1.366 . S
C452 C454 1.388 . S
C453 C452 1.366 . S
C453 C457 1.385 . S
C454 H435 0.951 . S
C454 C452 1.388 . S
C454 C455 1.366 . S
C455 C454 1.366 . S
C455 C456 1.414 . S
C455 C458 1.499 . S
C456 H436 0.950 . S
C456 C455 1.414 . S
C456 C457 1.374 . S
C457 H437 0.950 . S
C457 C453 1.385 . S
C457 C456 1.374 . S
C458 C455 1.499 . S
C458 C459 1.373 . S
C458 C460 1.389 . S
C459 H438 0.950 . S
C459 C458 1.373 . S
C459 C475 1.377 . S
C460 C458 1.389 . S
C460 C461 1.524 . S
C460 C474 1.377 . S
C461 C460 1.524 . S
C461 C462 1.397 . S
C461 C466 1.363 . S
C462 H439 0.950 . S
C462 C461 1.397 . S
C462 C463 1.334 . S
C463 H440 0.950 . S
C463 C462 1.334 . S
C463 C464 1.287 . S
C464 C463 1.287 . S
C464 C465 1.524 . S
C464 H483 0.913 . S
C465 H441 0.950 . S
C465 C464 1.524 . S
C465 C466 1.415 . S
C466 H442 0.950 . S
C466 C461 1.363 . S
C466 C465 1.415 . S
C467 H443 0.951 . S
C467 C468 1.366 . S
C467 C469 1.388 . S
C468 C467 1.366 . S
C468 C472 1.385 . S
C469 H444 0.951 . S
C469 C467 1.388 . S
C469 C470 1.366 . S
C470 C469 1.366 . S
C470 C471 1.414 . S
C470 C473 1.499 . S
C471 H445 0.950 . S
C471 C470 1.414 . S
C471 C472 1.374 . S
C472 H446 0.950 . S
C472 C468 1.385 . S
C472 C471 1.374 . S
C473 C470 1.499 . S
C473 C474 1.373 . S
C473 C475 1.389 . S
C474 H447 0.950 . S
C474 C460 1.377 . S
C474 C473 1.373 . S
C475 C459 1.377 . S
C475 C473 1.389 . S
C475 C476 1.524 . S
C476 C475 1.524 . S
C476 C477 1.397 . S
C476 C481 1.363 . S
C477 H448 0.950 . S
C477 C476 1.397 . S
C477 C478 1.334 . S
C478 H449 0.950 . S
C478 C477 1.334 . S
C478 C479 1.287 . S
C479 C478 1.287 . S
C479 C480 1.524 . S
C479 H482 0.999 . S
C480 H450 0.950 . S
C480 C479 1.524 . S
C480 C481 1.415 . S
C481 H451 0.950 . S
C481 C476 1.363 . S
C481 C480 1.415 . S
H482 C479 0.999 . S
H483 C464 0.913 . S
H484 C502 0.951 . S
H485 C504 0.951 . S
H486 C506 0.950 . S
H487 C507 0.950 . S
H488 C509 0.950 . S
H489 C512 0.950 1_545 S
H490 C513 0.950 . S
H491 C515 0.950 . S
H492 C516 0.950 . S
H493 C517 0.951 . S
H494 C519 0.951 . S
H495 C521 0.950 . S
H496 C522 0.950 . S
H497 C524 0.950 . S
H498 C527 0.950 . S
H499 C528 0.950 . S
H500 C530 0.950 . S
H501 C531 0.950 . S
C502 H484 0.951 . S
C502 C503 1.366 1_565 S
C502 C504 1.388 . S
C503 C502 1.366 1_545 S
C503 C507 1.385 . S
C504 H485 0.951 . S
C504 C502 1.388 . S
C504 C505 1.366 1_565 S
C505 C504 1.366 1_545 S
C505 C506 1.414 . S
C505 C508 1.499 . S
C506 H486 0.950 . S
C506 C505 1.414 . S
C506 C507 1.374 . S
C507 H487 0.950 . S
C507 C503 1.385 . S
C507 C506 1.374 . S
C508 C505 1.499 . S
C508 C509 1.373 . S
C508 C510 1.389 1_545 S
C509 H488 0.950 . S
C509 C508 1.373 . S
C509 C525 1.377 . S
C510 C508 1.389 1_565 S
C510 C511 1.524 . S
C510 C524 1.377 . S
C511 C510 1.524 . S
C511 C512 1.397 . S
C511 C516 1.363 . S
C512 H489 0.950 1_565 S
C512 C511 1.397 . S
C512 C513 1.334 . S
C513 H490 0.950 . S
C513 C512 1.334 . S
C513 C514 1.287 . S
C514 C513 1.287 . S
C514 C515 1.524 . S
C514 H533 0.913 . S
C515 H491 0.950 . S
C515 C514 1.524 . S
C515 C516 1.415 . S
C516 H492 0.950 . S
C516 C511 1.363 . S
C516 C515 1.415 . S
C517 H493 0.951 . S
C517 C518 1.366 . S
C517 C519 1.388 . S
C518 C517 1.366 . S
C518 C522 1.385 1_545 S
C519 H494 0.951 . S
C519 C517 1.388 . S
C519 C520 1.366 . S
C520 C519 1.366 . S
C520 C521 1.414 1_545 S
C520 C523 1.499 . S
C521 H495 0.950 . S
C521 C520 1.414 1_565 S
C521 C522 1.374 . S
C522 H496 0.950 . S
C522 C518 1.385 1_565 S
C522 C521 1.374 . S
C523 C520 1.499 . S
C523 C524 1.373 1_545 S
C523 C525 1.389 . S
C524 H497 0.950 . S
C524 C510 1.377 . S
C524 C523 1.373 1_565 S
C525 C509 1.377 . S
C525 C523 1.389 . S
C525 C526 1.524 . S
C526 C525 1.524 . S
C526 C527 1.397 . S
C526 C531 1.363 . S
C527 H498 0.950 . S
C527 C526 1.397 . S
C527 C528 1.334 . S
C528 H499 0.950 . S
C528 C527 1.334 . S
C528 C529 1.287 . S
C529 C528 1.287 . S
C529 C530 1.524 . S
C529 H532 0.999 . S
C530 H500 0.950 . S
C530 C529 1.524 . S
C530 C531 1.415 . S
C531 H501 0.950 . S
C531 C526 1.363 . S
C531 C530 1.415 . S
H532 C529 0.999 . S
H533 C514 0.913 . S
H534 C552 0.951 . S
H535 C554 0.951 . S
H536 C556 0.950 . S
H537 C557 0.950 . S
H538 C559 0.950 . S
H539 C562 0.950 . S
H540 C563 0.950 . S
H541 C565 0.950 . S
H542 C566 0.950 . S
H543 C567 0.951 . S
H544 C569 0.951 . S
H545 C571 0.950 . S
H546 C572 0.950 . S
H547 C574 0.950 . S
H548 C577 0.950 . S
H549 C578 0.950 . S
H550 C580 0.950 . S
H551 C581 0.950 . S
C552 H534 0.951 . S
C552 C553 1.366 . S
C552 C554 1.388 . S
C553 C552 1.366 . S
C553 C557 1.385 . S
C554 H535 0.951 . S
C554 C552 1.388 . S
C554 C555 1.366 . S
C555 C554 1.366 . S
C555 C556 1.414 . S
C555 C558 1.499 . S
C556 H536 0.950 . S
C556 C555 1.414 . S
C556 C557 1.374 . S
C557 H537 0.950 . S
C557 C553 1.385 . S
C557 C556 1.374 . S
C558 C555 1.499 . S
C558 C559 1.373 . S
C558 C560 1.389 . S
C559 H538 0.950 . S
C559 C558 1.373 . S
C559 C575 1.377 . S
C560 C558 1.389 . S
C560 C561 1.524 . S
C560 C574 1.377 . S
C561 C560 1.524 . S
C561 C562 1.397 . S
C561 C566 1.363 . S
C562 H539 0.950 . S
C562 C561 1.397 . S
C562 C563 1.334 . S
C563 H540 0.950 . S
C563 C562 1.334 . S
C563 C564 1.287 . S
C564 C563 1.287 . S
C564 C565 1.524 . S
C564 H583 0.913 . S
C565 H541 0.950 . S
C565 C564 1.524 . S
C565 C566 1.415 . S
C566 H542 0.950 . S
C566 C561 1.363 . S
C566 C565 1.415 . S
C567 H543 0.951 . S
C567 C568 1.366 . S
C567 C569 1.388 . S
C568 C567 1.366 . S
C568 C572 1.385 . S
C569 H544 0.951 . S
C569 C567 1.388 . S
C569 C570 1.366 . S
C570 C569 1.366 . S
C570 C571 1.414 . S
C570 C573 1.499 . S
C571 H545 0.950 . S
C571 C570 1.414 . S
C571 C572 1.374 . S
C572 H546 0.950 . S
C572 C568 1.385 . S
C572 C571 1.374 . S
C573 C570 1.499 . S
C573 C574 1.373 . S
C573 C575 1.389 . S
C574 H547 0.950 . S
C574 C560 1.377 . S
C574 C573 1.373 . S
C575 C559 1.377 . S
C575 C573 1.389 . S
C575 C576 1.524 . S
C576 C575 1.524 . S
C576 C577 1.397 . S
C576 C581 1.363 . S
C577 H548 0.950 . S
C577 C576 1.397 . S
C577 C578 1.334 . S
C578 H549 0.950 . S
C578 C577 1.334 . S
C578 C579 1.287 . S
C579 C578 1.287 . S
C579 C580 1.524 . S
C579 H582 0.999 . S
C580 H550 0.950 . S
C580 C579 1.524 . S
C580 C581 1.415 . S
C581 H551 0.950 . S
C581 C576 1.363 . S
C581 C580 1.415 . S
H582 C579 0.999 . S
H583 C564 0.913 . S
H584 C602 0.951 . S
H585 C604 0.951 . S
H586 C606 0.950 . S
H587 C607 0.950 . S
H588 C609 0.950 . S
H589 C612 0.950 . S
H590 C613 0.950 . S
H591 C615 0.950 . S
H592 C616 0.950 . S
H593 C617 0.951 . S
H594 C619 0.951 . S
H595 C621 0.950 . S
H596 C622 0.950 . S
H597 C624 0.950 . S
H598 C627 0.950 . S
H599 C628 0.950 . S
H600 C630 0.950 . S
H601 C631 0.950 . S
C602 H584 0.951 . S
C602 C603 1.366 . S
C602 C604 1.388 . S
C603 C602 1.366 . S
C603 C607 1.385 . S
C604 H585 0.951 . S
C604 C602 1.388 . S
C604 C605 1.366 . S
C605 C604 1.366 . S
C605 C606 1.414 . S
C605 C608 1.499 . S
C606 H586 0.950 . S
C606 C605 1.414 . S
C606 C607 1.374 . S
C607 H587 0.950 . S
C607 C603 1.385 . S
C607 C606 1.374 . S
C608 C605 1.499 . S
C608 C609 1.373 . S
C608 C610 1.389 . S
C609 H588 0.950 . S
C609 C608 1.373 . S
C609 C625 1.377 . S
C610 C608 1.389 . S
C610 C611 1.524 . S
C610 C624 1.377 . S
C611 C610 1.524 . S
C611 C612 1.397 . S
C611 C616 1.363 . S
C612 H589 0.950 . S
C612 C611 1.397 . S
C612 C613 1.334 . S
C613 H590 0.950 . S
C613 C612 1.334 . S
C613 C614 1.287 . S
C614 C613 1.287 . S
C614 C615 1.524 . S
C614 H633 0.913 . S
C615 H591 0.950 . S
C615 C614 1.524 . S
C615 C616 1.415 . S
C616 H592 0.950 . S
C616 C611 1.363 . S
C616 C615 1.415 . S
C617 H593 0.951 . S
C617 C618 1.366 . S
C617 C619 1.388 . S
C618 C617 1.366 . S
C618 C622 1.385 . S
C619 H594 0.951 . S
C619 C617 1.388 . S
C619 C620 1.366 . S
C620 C619 1.366 . S
C620 C621 1.414 . S
C620 C623 1.499 . S
C621 H595 0.950 . S
C621 C620 1.414 . S
C621 C622 1.374 . S
C622 H596 0.950 . S
C622 C618 1.385 . S
C622 C621 1.374 . S
C623 C620 1.499 . S
C623 C624 1.373 . S
C623 C625 1.389 . S
C624 H597 0.950 . S
C624 C610 1.377 . S
C624 C623 1.373 . S
C625 C609 1.377 . S
C625 C623 1.389 . S
C625 C626 1.524 . S
C626 C625 1.524 . S
C626 C627 1.397 . S
C626 C631 1.363 . S
C627 H598 0.950 . S
C627 C626 1.397 . S
C627 C628 1.334 . S
C628 H599 0.950 . S
C628 C627 1.334 . S
C628 C629 1.287 . S
C629 C628 1.287 . S
C629 C630 1.524 . S
C629 H632 0.999 . S
C630 H600 0.950 . S
C630 C629 1.524 . S
C630 C631 1.415 . S
C631 H601 0.950 . S
C631 C626 1.363 . S
C631 C630 1.415 . S
H632 C629 0.999 . S
H633 C614 0.913 . S
H634 C652 0.951 . S
H635 C654 0.951 . S
H636 C656 0.950 . S
H637 C657 0.950 . S
H638 C659 0.950 . S
H639 C662 0.950 . S
H640 C663 0.950 . S
H641 C665 0.950 . S
H642 C666 0.950 . S
H643 C667 0.951 . S
H644 C669 0.951 . S
H645 C671 0.950 . S
H646 C672 0.950 . S
H647 C674 0.950 . S
H648 C677 0.950 . S
H649 C678 0.950 . S
H650 C680 0.950 . S
H651 C681 0.950 . S
C652 H634 0.951 . S
C652 C653 1.366 . S
C652 C654 1.388 . S
C653 C652 1.366 . S
C653 C657 1.385 . S
C654 H635 0.951 . S
C654 C652 1.388 . S
C654 C655 1.366 . S
C655 C654 1.366 . S
C655 C656 1.414 . S
C655 C658 1.499 . S
C656 H636 0.950 . S
C656 C655 1.414 . S
C656 C657 1.374 . S
C657 H637 0.950 . S
C657 C653 1.385 . S
C657 C656 1.374 . S
C658 C655 1.499 . S
C658 C659 1.373 . S
C658 C660 1.389 . S
C659 H638 0.950 . S
C659 C658 1.373 . S
C659 C675 1.377 . S
C660 C658 1.389 . S
C660 C661 1.524 . S
C660 C674 1.377 . S
C661 C660 1.524 . S
C661 C662 1.397 . S
C661 C666 1.363 . S
C662 H639 0.950 . S
C662 C661 1.397 . S
C662 C663 1.334 . S
C663 H640 0.950 . S
C663 C662 1.334 . S
C663 C664 1.287 . S
C664 C663 1.287 . S
C664 C665 1.524 . S
C664 H683 0.913 . S
C665 H641 0.950 . S
C665 C664 1.524 . S
C665 C666 1.415 . S
C666 H642 0.950 . S
C666 C661 1.363 . S
C666 C665 1.415 . S
C667 H643 0.951 . S
C667 C668 1.366 . S
C667 C669 1.388 . S
C668 C667 1.366 . S
C668 C672 1.385 . S
C669 H644 0.951 . S
C669 C667 1.388 . S
C669 C670 1.366 . S
C670 C669 1.366 . S
C670 C671 1.414 . S
C670 C673 1.499 . S
C671 H645 0.950 . S
C671 C670 1.414 . S
C671 C672 1.374 . S
C672 H646 0.950 . S
C672 C668 1.385 . S
C672 C671 1.374 . S
C673 C670 1.499 . S
C673 C674 1.373 . S
C673 C675 1.389 . S
C674 H647 0.950 . S
C674 C660 1.377 . S
C674 C673 1.373 . S
C675 C659 1.377 . S
C675 C673 1.389 . S
C675 C676 1.524 . S
C676 C675 1.524 . S
C676 C677 1.397 . S
C676 C681 1.363 . S
C677 H648 0.950 . S
C677 C676 1.397 . S
C677 C678 1.334 . S
C678 H649 0.950 . S
C678 C677 1.334 . S
C678 C679 1.287 . S
C679 C678 1.287 . S
C679 C680 1.524 . S
C679 H682 0.999 . S
C680 H650 0.950 . S
C680 C679 1.524 . S
C680 C681 1.415 . S
C681 H651 0.950 . S
C681 C676 1.363 . S
C681 C680 1.415 . S
H682 C679 0.999 . S
H683 C664 0.913 . S
H684 C702 0.951 . S
H685 C704 0.951 . S
H686 C706 0.950 . S
H687 C707 0.950 . S
H688 C709 0.950 . S
H689 C712 0.950 . S
H690 C713 0.950 . S
H691 C715 0.950 . S
H692 C716 0.950 . S
H693 C717 0.951 . S
H694 C719 0.951 . S
H695 C721 0.950 . S
H696 C722 0.950 . S
H697 C724 0.950 . S
H698 C727 0.950 . S
H699 C728 0.950 . S
H700 C730 0.950 . S
H701 C731 0.950 . S
C702 H684 0.951 . S
C702 C703 1.366 . S
C702 C704 1.388 . S
C703 C702 1.366 . S
C703 C707 1.385 . S
C704 H685 0.951 . S
C704 C702 1.388 . S
C704 C705 1.366 . S
C705 C704 1.366 . S
C705 C706 1.414 . S
C705 C708 1.499 . S
C706 H686 0.950 . S
C706 C705 1.414 . S
C706 C707 1.374 . S
C707 H687 0.950 . S
C707 C703 1.385 . S
C707 C706 1.374 . S
C708 C705 1.499 . S
C708 C709 1.373 . S
C708 C710 1.389 . S
C709 H688 0.950 . S
C709 C708 1.373 . S
C709 C725 1.377 . S
C710 C708 1.389 . S
C710 C711 1.524 . S
C710 C724 1.377 . S
C711 C710 1.524 . S
C711 C712 1.397 . S
C711 C716 1.363 . S
C712 H689 0.950 . S
C712 C711 1.397 . S
C712 C713 1.334 . S
C713 H690 0.950 . S
C713 C712 1.334 . S
C713 C714 1.287 . S
C714 C713 1.287 . S
C714 C715 1.524 . S
C714 H733 0.913 . S
C715 H691 0.950 . S
C715 C714 1.524 . S
C715 C716 1.415 . S
C716 H692 0.950 . S
C716 C711 1.363 . S
C716 C715 1.415 . S
C717 H693 0.951 . S
C717 C718 1.366 . S
C717 C719 1.388 1_556 S
C718 C717 1.366 . S
C718 C722 1.385 . S
C719 H694 0.951 . S
C719 C717 1.388 1_554 S
C719 C720 1.366 . S
C720 C719 1.366 . S
C720 C721 1.414 . S
C720 C723 1.499 . S
C721 H695 0.950 . S
C721 C720 1.414 . S
C721 C722 1.374 1_554 S
C722 H696 0.950 . S
C722 C718 1.385 . S
C722 C721 1.374 1_556 S
C723 C720 1.499 . S
C723 C724 1.373 . S
C723 C725 1.389 . S
C724 H697 0.950 . S
C724 C710 1.377 . S
C724 C723 1.373 . S
C725 C709 1.377 . S
C725 C723 1.389 . S
C725 C726 1.524 . S
C726 C725 1.524 . S
C726 C727 1.397 . S
C726 C731 1.363 . S
C727 H698 0.950 . S
C727 C726 1.397 . S
C727 C728 1.334 . S
C728 H699 0.950 . S
C728 C727 1.334 . S
C728 C729 1.287 . S
C729 C728 1.287 . S
C729 C730 1.524 . S
C729 H732 0.999 . S
C730 H700 0.950 . S
C730 C729 1.524 . S
C730 C731 1.415 . S
C731 H701 0.950 . S
C731 C726 1.363 . S
C731 C730 1.415 . S
H732 C729 0.999 . S
H733 C714 0.913 . S
H734 C752 0.951 . S
H735 C754 0.951 . S
H736 C756 0.950 . S
H737 C757 0.950 . S
H738 C759 0.950 . S
H739 C762 0.950 . S
H740 C763 0.950 . S
H741 C765 0.950 . S
H742 C766 0.950 . S
H743 C767 0.951 . S
H744 C769 0.951 . S
H745 C771 0.950 . S
H746 C772 0.950 . S
H747 C774 0.950 . S
H748 C777 0.950 . S
H749 C778 0.950 . S
H750 C780 0.950 . S
H751 C781 0.950 . S
C752 H734 0.951 . S
C752 C753 1.366 . S
C752 C754 1.388 1_556 S
C753 C752 1.366 . S
C753 C757 1.385 . S
C754 H735 0.951 . S
C754 C752 1.388 1_554 S
C754 C755 1.366 . S
C755 C754 1.366 . S
C755 C756 1.414 . S
C755 C758 1.499 . S
C756 H736 0.950 . S
C756 C755 1.414 . S
C756 C757 1.374 1_554 S
C757 H737 0.950 . S
C757 C753 1.385 . S
C757 C756 1.374 1_556 S
C758 C755 1.499 . S
C758 C759 1.373 . S
C758 C760 1.389 . S
C759 H738 0.950 . S
C759 C758 1.373 . S
C759 C775 1.377 . S
C760 C758 1.389 . S
C760 C761 1.524 . S
C760 C774 1.377 . S
C761 C760 1.524 . S
C761 C762 1.397 . S
C761 C766 1.363 . S
C762 H739 0.950 . S
C762 C761 1.397 . S
C762 C763 1.334 . S
C763 H740 0.950 . S
C763 C762 1.334 . S
C763 C764 1.287 . S
C764 C763 1.287 . S
C764 C765 1.524 . S
C764 H783 0.913 . S
C765 H741 0.950 . S
C765 C764 1.524 . S
C765 C766 1.415 . S
C766 H742 0.950 . S
C766 C761 1.363 . S
C766 C765 1.415 . S
C767 H743 0.951 . S
C767 C768 1.366 . S
C767 C769 1.388 . S
C768 C767 1.366 . S
C768 C772 1.385 . S
C769 H744 0.951 . S
C769 C767 1.388 . S
C769 C770 1.366 . S
C770 C769 1.366 . S
C770 C771 1.414 . S
C770 C773 1.499 . S
C771 H745 0.950 . S
C771 C770 1.414 . S
C771 C772 1.374 . S
C772 H746 0.950 . S
C772 C768 1.385 . S
C772 C771 1.374 . S
C773 C770 1.499 . S
C773 C774 1.373 . S
C773 C775 1.389 . S
C774 H747 0.950 . S
C774 C760 1.377 . S
C774 C773 1.373 . S
C775 C759 1.377 . S
C775 C773 1.389 . S
C775 C776 1.524 . S
C776 C775 1.524 . S
C776 C777 1.397 . S
C776 C781 1.363 . S
C777 H748 0.950 . S
C777 C776 1.397 . S
C777 C778 1.334 . S
C778 H749 0.950 . S
C778 C777 1.334 . S
C778 C779 1.287 . S
C779 C778 1.287 . S
C779 C780 1.524 . S
C779 H782 0.999 . S
C780 H750 0.950 . S
C780 C779 1.524 . S
C780 C781 1.415 . S
C781 H751 0.950 . S
C781 C776 1.363 . S
C781 C780 1.415 . S
H782 C779 0.999 . S
H783 C764 0.913 . S
H784 C802 0.951 . S
H785 C804 0.951 . S
H786 C806 0.950 . S
H787 C807 0.950 . S
H788 C809 0.950 . S
H789 C812 0.950 . S
H790 C813 0.950 . S
H791 C815 0.950 . S
H792 C816 0.950 . S
H793 C817 0.951 . S
H794 C819 0.951 . S
H795 C821 0.950 . S
H796 C822 0.950 . S
H797 C824 0.950 . S
H798 C827 0.950 . S
H799 C828 0.950 . S
H800 C830 0.950 . S
H801 C831 0.950 . S
C802 H784 0.951 . S
C802 C803 1.366 . S
C802 C804 1.388 1_556 S
C803 C802 1.366 . S
C803 C807 1.385 . S
C804 H785 0.951 . S
C804 C802 1.388 1_554 S
C804 C805 1.366 . S
C805 C804 1.366 . S
C805 C806 1.414 . S
C805 C808 1.499 . S
C806 H786 0.950 . S
C806 C805 1.414 . S
C806 C807 1.374 1_554 S
C807 H787 0.950 . S
C807 C803 1.385 . S
C807 C806 1.374 1_556 S
C808 C805 1.499 . S
C808 C809 1.373 . S
C808 C810 1.389 . S
C809 H788 0.950 . S
C809 C808 1.373 . S
C809 C825 1.377 . S
C810 C808 1.389 . S
C810 C811 1.524 . S
C810 C824 1.377 . S
C811 C810 1.524 . S
C811 C812 1.397 . S
C811 C816 1.363 . S
C812 H789 0.950 . S
C812 C811 1.397 . S
C812 C813 1.334 . S
C813 H790 0.950 . S
C813 C812 1.334 . S
C813 C814 1.287 . S
C814 C813 1.287 . S
C814 C815 1.524 . S
C814 H833 0.913 . S
C815 H791 0.950 . S
C815 C814 1.524 . S
C815 C816 1.415 . S
C816 H792 0.950 . S
C816 C811 1.363 . S
C816 C815 1.415 . S
C817 H793 0.951 . S
C817 C818 1.366 . S
C817 C819 1.388 . S
C818 C817 1.366 . S
C818 C822 1.385 . S
C819 H794 0.951 . S
C819 C817 1.388 . S
C819 C820 1.366 . S
C820 C819 1.366 . S
C820 C821 1.414 . S
C820 C823 1.499 . S
C821 H795 0.950 . S
C821 C820 1.414 . S
C821 C822 1.374 . S
C822 H796 0.950 . S
C822 C818 1.385 . S
C822 C821 1.374 . S
C823 C820 1.499 . S
C823 C824 1.373 . S
C823 C825 1.389 . S
C824 H797 0.950 . S
C824 C810 1.377 . S
C824 C823 1.373 . S
C825 C809 1.377 . S
C825 C823 1.389 . S
C825 C826 1.524 . S
C826 C825 1.524 . S
C826 C827 1.397 . S
C826 C831 1.363 . S
C827 H798 0.950 . S
C827 C826 1.397 . S
C827 C828 1.334 . S
C828 H799 0.950 . S
C828 C827 1.334 . S
C828 C829 1.287 . S
C829 C828 1.287 . S
C829 C830 1.524 . S
C829 H832 0.999 . S
C830 H800 0.950 . S
C830 C829 1.524 . S
C830 C831 1.415 . S
C831 H801 0.950 . S
C831 C826 1.363 . S
C831 C830 1.415 . S
H832 C829 0.999 . S
H833 C814 0.913 . S
H834 C852 0.951 . S
H835 C854 0.951 . S
H836 C856 0.950 . S
H837 C857 0.950 . S
H838 C859 0.950 . S
H839 C862 0.950 . S
H840 C863 0.950 . S
H841 C865 0.950 . S
H842 C866 0.950 . S
H843 C867 0.951 . S
H844 C869 0.951 . S
H845 C871 0.950 . S
H846 C872 0.950 . S
H847 C874 0.950 . S
H848 C877 0.950 . S
H849 C878 0.950 . S
H850 C880 0.950 . S
H851 C881 0.950 . S
C852 H834 0.951 . S
C852 C853 1.366 . S
C852 C854 1.388 . S
C853 C852 1.366 . S
C853 C857 1.385 . S
C854 H835 0.951 . S
C854 C852 1.388 . S
C854 C855 1.366 . S
C855 C854 1.366 . S
C855 C856 1.414 . S
C855 C858 1.499 1_554 S
C856 H836 0.950 . S
C856 C855 1.414 . S
C856 C857 1.374 . S
C857 H837 0.950 . S
C857 C853 1.385 . S
C857 C856 1.374 . S
C858 C855 1.499 1_556 S
C858 C859 1.373 . S
C858 C860 1.389 . S
C859 H838 0.950 . S
C859 C858 1.373 . S
C859 C875 1.377 . S
C860 C858 1.389 . S
C860 C861 1.524 . S
C860 C874 1.377 . S
C861 C860 1.524 . S
C861 C862 1.397 1_556 S
C861 C866 1.363 . S
C862 H839 0.950 . S
C862 C861 1.397 1_554 S
C862 C863 1.334 . S
C863 H840 0.950 . S
C863 C862 1.334 . S
C863 C864 1.287 . S
C864 C863 1.287 . S
C864 C865 1.524 1_554 S
C864 H883 0.913 . S
C865 H841 0.950 . S
C865 C864 1.524 1_556 S
C865 C866 1.415 . S
C866 H842 0.950 . S
C866 C861 1.363 . S
C866 C865 1.415 . S
C867 H843 0.951 . S
C867 C868 1.366 . S
C867 C869 1.388 . S
C868 C867 1.366 . S
C868 C872 1.385 . S
C869 H844 0.951 . S
C869 C867 1.388 . S
C869 C870 1.366 . S
C870 C869 1.366 . S
C870 C871 1.414 . S
C870 C873 1.499 . S
C871 H845 0.950 . S
C871 C870 1.414 . S
C871 C872 1.374 . S
C872 H846 0.950 . S
C872 C868 1.385 . S
C872 C871 1.374 . S
C873 C870 1.499 . S
C873 C874 1.373 . S
C873 C875 1.389 . S
C874 H847 0.950 . S
C874 C860 1.377 . S
C874 C873 1.373 . S
C875 C859 1.377 . S
C875 C873 1.389 . S
C875 C876 1.524 . S
C876 C875 1.524 . S
C876 C877 1.397 . S
C876 C881 1.363 . S
C877 H848 0.950 . S
C877 C876 1.397 . S
C877 C878 1.334 . S
C878 H849 0.950 . S
C878 C877 1.334 . S
C878 C879 1.287 . S
C879 C878 1.287 . S
C879 C880 1.524 . S
C879 H882 0.999 . S
C880 H850 0.950 . S
C880 C879 1.524 . S
C880 C881 1.415 . S
C881 H851 0.950 . S
C881 C876 1.363 . S
C881 C880 1.415 . S
H882 C879 0.999 . S
H883 C864 0.913 . S
H884 C902 0.951 . S
H885 C904 0.951 . S
H886 C906 0.950 . S
H887 C907 0.950 . S
H888 C909 0.950 . S
H889 C912 0.950 . S
H890 C913 0.950 . S
H891 C915 0.950 . S
H892 C916 0.950 . S
H893 C917 0.951 . S
H894 C919 0.951 . S
H895 C921 0.950 . S
H896 C922 0.950 . S
H897 C924 0.950 . S
H898 C927 0.950 . S
H899 C928 0.950 . S
H900 C930 0.950 . S
H901 C931 0.950 . S
C902 H884 0.951 . S
C902 C903 1.366 . S
C902 C904 1.388 . S
C903 C902 1.366 . S
C903 C907 1.385 . S
C904 H885 0.951 . S
C904 C902 1.388 . S
C904 C905 1.366 . S
C905 C904 1.366 . S
C905 C906 1.414 . S
C905 C908 1.499 . S
C906 H886 0.950 . S
C906 C905 1.414 . S
C906 C907 1.374 . S
C907 H887 0.950 . S
C907 C903 1.385 . S
C907 C906 1.374 . S
C908 C905 1.499 . S
C908 C909 1.373 . S
C908 C910 1.389 . S
C909 H888 0.950 . S
C909 C908 1.373 . S
C909 C925 1.377 . S
C910 C908 1.389 . S
C910 C911 1.524 . S
C910 C924 1.377 . S
C911 C910 1.524 . S
C911 C912 1.397 . S
C911 C916 1.363 . S
C912 H889 0.950 . S
C912 C911 1.397 . S
C912 C913 1.334 . S
C913 H890 0.950 . S
C913 C912 1.334 . S
C913 C914 1.287 . S
C914 C913 1.287 . S
C914 C915 1.524 . S
C914 H933 0.913 . S
C915 H891 0.950 . S
C915 C914 1.524 . S
C915 C916 1.415 . S
C916 H892 0.950 . S
C916 C911 1.363 . S
C916 C915 1.415 . S
C917 H893 0.951 . S
C917 C918 1.366 . S
C917 C919 1.388 . S
C918 C917 1.366 . S
C918 C922 1.385 . S
C919 H894 0.951 . S
C919 C917 1.388 . S
C919 C920 1.366 . S
C920 C919 1.366 . S
C920 C921 1.414 . S
C920 C923 1.499 1_554 S
C921 H895 0.950 . S
C921 C920 1.414 . S
C921 C922 1.374 . S
C922 H896 0.950 . S
C922 C918 1.385 . S
C922 C921 1.374 . S
C923 C920 1.499 1_556 S
C923 C924 1.373 . S
C923 C925 1.389 . S
C924 H897 0.950 . S
C924 C910 1.377 . S
C924 C923 1.373 . S
C925 C909 1.377 . S
C925 C923 1.389 . S
C925 C926 1.524 . S
C926 C925 1.524 . S
C926 C927 1.397 1_556 S
C926 C931 1.363 . S
C927 H898 0.950 . S
C927 C926 1.397 1_554 S
C927 C928 1.334 . S
C928 H899 0.950 . S
C928 C927 1.334 . S
C928 C929 1.287 . S
C929 C928 1.287 . S
C929 C930 1.524 1_554 S
C929 H932 0.999 . S
C930 H900 0.950 . S
C930 C929 1.524 1_556 S
C930 C931 1.415 . S
C931 H901 0.950 . S
C931 C926 1.363 . S
C931 C930 1.415 . S
H932 C929 0.999 . S
H933 C914 0.913 . S
H934 C952 0.951 . S
H935 C954 0.951 . S
H936 C956 0.950 . S
H937 C957 0.950 . S
H938 C959 0.950 . S
H939 C962 0.950 . S
H940 C963 0.950 . S
H941 C965 0.950 . S
H942 C966 0.950 . S
H943 C967 0.951 . S
H944 C969 0.951 . S
H945 C971 0.950 . S
H946 C972 0.950 . S
H947 C974 0.950 . S
H948 C977 0.950 . S
H949 C978 0.950 . S
H950 C980 0.950 . S
H951 C981 0.950 . S
C952 H934 0.951 . S
C952 C953 1.366 . S
C952 C954 1.388 . S
C953 C952 1.366 . S
C953 C957 1.385 . S
C954 H935 0.951 . S
C954 C952 1.388 . S
C954 C955 1.366 . S
C955 C954 1.366 . S
C955 C956 1.414 . S
C955 C958 1.499 1_554 S
C956 H936 0.950 . S
C956 C955 1.414 . S
C956 C957 1.374 . S
C957 H937 0.950 . S
C957 C953 1.385 . S
C957 C956 1.374 . S
C958 C955 1.499 1_556 S
C958 C959 1.373 . S
C958 C960 1.389 . S
C959 H938 0.950 . S
C959 C958 1.373 . S
C959 C975 1.377 . S
C960 C958 1.389 . S
C960 C961 1.524 . S
C960 C974 1.377 . S
C961 C960 1.524 . S
C961 C962 1.397 1_556 S
C961 C966 1.363 . S
C962 H939 0.950 . S
C962 C961 1.397 1_554 S
C962 C963 1.334 . S
C963 H940 0.950 . S
C963 C962 1.334 . S
C963 C964 1.287 . S
C964 C963 1.287 . S
C964 C965 1.524 1_554 S
C964 H983 0.913 . S
C965 H941 0.950 . S
C965 C964 1.524 1_556 S
C965 C966 1.415 . S
C966 H942 0.950 . S
C966 C961 1.363 . S
C966 C965 1.415 . S
C967 H943 0.951 . S
C967 C968 1.366 . S
C967 C969 1.388 . S
C968 C967 1.366 . S
C968 C972 1.385 . S
C969 H944 0.951 . S
C969 C967 1.388 . S
C969 C970 1.366 . S
C970 C969 1.366 . S
C970 C971 1.414 . S
C970 C973 1.499 . S
C971 H945 0.950 . S
C971 C970 1.414 . S
C971 C972 1.374 . S
C972 H946 0.950 . S
C972 C968 1.385 . S
C972 C971 1.374 . S
C973 C970 1.499 . S
C973 C974 1.373 . S
C973 C975 1.389 . S
C974 H947 0.950 . S
C974 C960 1.377 . S
C974 C973 1.373 . S
C975 C959 1.377 . S
C975 C973 1.389 . S
C975 C976 1.524 . S
C976 C975 1.524 . S
C976 C977 1.397 . S
C976 C981 1.363 . S
C977 H948 0.950 . S
C977 C976 1.397 . S
C977 C978 1.334 . S
C978 H949 0.950 . S
C978 C977 1.334 . S
C978 C979 1.287 . S
C979 C978 1.287 . S
C979 C980 1.524 . S
C979 H982 0.999 . S
C980 H950 0.950 . S
C980 C979 1.524 . S
C980 C981 1.415 . S
C981 H951 0.950 . S
C981 C976 1.363 . S
C981 C980 1.415 . S
H982 C979 0.999 . S
H983 C964 0.913 . S
H984 C1002 0.951 . S
H985 C1004 0.951 . S
H986 C1006 0.950 . S
H987 C1007 0.950 . S
H988 C1009 0.950 . S
H989 C1012 0.950 . S
H990 C1013 0.950 . S
H991 C1015 0.950 . S
H992 C1016 0.950 . S
H993 C1017 0.951 . S
H994 C1019 0.951 . S
H995 C1021 0.950 . S
H996 C1022 0.950 . S
H997 C1024 0.950 . S
H998 C1027 0.950 . S
H999 C1028 0.950 . S
H1000 C1030 0.950 . S
H1001 C1031 0.950 . S
C1002 H984 0.951 . S
C1002 C1003 1.366 . S
C1002 C1004 1.388 . S
C1003 C1002 1.366 . S
C1003 C1007 1.385 . S
C1004 H985 0.951 . S
C1004 C1002 1.388 . S
C1004 C1005 1.366 . S
C1005 C1004 1.366 . S
C1005 C1006 1.414 . S
C1005 C1008 1.499 . S
C1006 H986 0.950 . S
C1006 C1005 1.414 . S
C1006 C1007 1.374 . S
C1007 H987 0.950 . S
C1007 C1003 1.385 . S
C1007 C1006 1.374 . S
C1008 C1005 1.499 . S
C1008 C1009 1.373 . S
C1008 C1010 1.389 . S
C1009 H988 0.950 . S
C1009 C1008 1.373 . S
C1009 C1025 1.377 . S
C1010 C1008 1.389 . S
C1010 C1011 1.524 . S
C1010 C1024 1.377 . S
C1011 C1010 1.524 . S
C1011 C1012 1.397 . S
C1011 C1016 1.363 . S
C1012 H989 0.950 . S
C1012 C1011 1.397 . S
C1012 C1013 1.334 . S
C1013 H990 0.950 . S
C1013 C1012 1.334 . S
C1013 C1014 1.287 . S
C1014 C1013 1.287 . S
C1014 C1015 1.524 . S
C1014 H1033 0.913 . S
C1015 H991 0.950 . S
C1015 C1014 1.524 . S
C1015 C1016 1.415 . S
C1016 H992 0.950 . S
C1016 C1011 1.363 . S
C1016 C1015 1.415 . S
C1017 H993 0.951 . S
C1017 C1018 1.366 . S
C1017 C1019 1.388 . S
C1018 C1017 1.366 . S
C1018 C1022 1.385 . S
C1019 H994 0.951 . S
C1019 C1017 1.388 . S
C1019 C1020 1.366 . S
C1020 C1019 1.366 . S
C1020 C1021 1.414 . S
C1020 C1023 1.499 . S
C1021 H995 0.950 . S
C1021 C1020 1.414 . S
C1021 C1022 1.374 . S
C1022 H996 0.950 . S
C1022 C1018 1.385 . S
C1022 C1021 1.374 . S
C1023 C1020 1.499 . S
C1023 C1024 1.373 . S
C1023 C1025 1.389 . S
C1024 H997 0.950 . S
C1024 C1010 1.377 . S
C1024 C1023 1.373 . S
C1025 C1009 1.377 . S
C1025 C1023 1.389 . S
C1025 C1026 1.524 . S
C1026 C1025 1.524 . S
C1026 C1027 1.397 . S
C1026 C1031 1.363 . S
C1027 H998 0.950 . S
C1027 C1026 1.397 . S
C1027 C1028 1.334 . S
C1028 H999 0.950 . S
C1028 C1027 1.334 . S
C1028 C1029 1.287 . S
C1029 C1028 1.287 . S
C1029 C1030 1.524 . S
C1029 H1032 0.999 . S
C1030 H1000 0.950 . S
C1030 C1029 1.524 . S
C1030 C1031 1.415 . S
C1031 H1001 0.950 . S
C1031 C1026 1.363 . S
C1031 C1030 1.415 . S
H1032 C1029 0.999 . S
H1033 C1014 0.913 . S
H1034 C1052 0.951 . S
H1035 C1054 0.951 . S
H1036 C1056 0.950 . S
H1037 C1057 0.950 . S
H1038 C1059 0.950 . S
H1039 C1062 0.950 . S
H1040 C1063 0.950 . S
H1041 C1065 0.950 . S
H1042 C1066 0.950 . S
H1043 C1067 0.951 . S
H1044 C1069 0.951 . S
H1045 C1071 0.950 . S
H1046 C1072 0.950 . S
H1047 C1074 0.950 . S
H1048 C1077 0.950 . S
H1049 C1078 0.950 . S
H1050 C1080 0.950 . S
H1051 C1081 0.950 . S
C1052 H1034 0.951 . S
C1052 C1053 1.366 . S
C1052 C1054 1.388 . S
C1053 C1052 1.366 . S
C1053 C1057 1.385 . S
C1054 H1035 0.951 . S
C1054 C1052 1.388 . S
C1054 C1055 1.366 . S
C1055 C1054 1.366 . S
C1055 C1056 1.414 . S
C1055 C1058 1.499 . S
C1056 H1036 0.950 . S
C1056 C1055 1.414 . S
C1056 C1057 1.374 . S
C1057 H1037 0.950 . S
C1057 C1053 1.385 . S
C1057 C1056 1.374 . S
C1058 C1055 1.499 . S
C1058 C1059 1.373 . S
C1058 C1060 1.389 . S
C1059 H1038 0.950 . S
C1059 C1058 1.373 . S
C1059 C1075 1.377 . S
C1060 C1058 1.389 . S
C1060 C1061 1.524 . S
C1060 C1074 1.377 . S
C1061 C1060 1.524 . S
C1061 C1062 1.397 . S
C1061 C1066 1.363 . S
C1062 H1039 0.950 . S
C1062 C1061 1.397 . S
C1062 C1063 1.334 . S
C1063 H1040 0.950 . S
C1063 C1062 1.334 . S
C1063 C1064 1.287 . S
C1064 C1063 1.287 . S
C1064 C1065 1.524 . S
C1064 H1083 0.913 . S
C1065 H1041 0.950 . S
C1065 C1064 1.524 . S
C1065 C1066 1.415 . S
C1066 H1042 0.950 . S
C1066 C1061 1.363 . S
C1066 C1065 1.415 . S
C1067 H1043 0.951 . S
C1067 C1068 1.366 . S
C1067 C1069 1.388 . S
C1068 C1067 1.366 . S
C1068 C1072 1.385 . S
C1069 H1044 0.951 . S
C1069 C1067 1.388 . S
C1069 C1070 1.366 . S
C1070 C1069 1.366 . S
C1070 C1071 1.414 . S
C1070 C1073 1.499 . S
C1071 H1045 0.950 . S
C1071 C1070 1.414 . S
C1071 C1072 1.374 . S
C1072 H1046 0.950 . S
C1072 C1068 1.385 . S
C1072 C1071 1.374 . S
C1073 C1070 1.499 . S
C1073 C1074 1.373 . S
C1073 C1075 1.389 . S
C1074 H1047 0.950 . S
C1074 C1060 1.377 . S
C1074 C1073 1.373 . S
C1075 C1059 1.377 . S
C1075 C1073 1.389 . S
C1075 C1076 1.524 . S
C1076 C1075 1.524 . S
C1076 C1077 1.397 . S
C1076 C1081 1.363 . S
C1077 H1048 0.950 . S
C1077 C1076 1.397 . S
C1077 C1078 1.334 . S
C1078 H1049 0.950 . S
C1078 C1077 1.334 . S
C1078 C1079 1.287 . S
C1079 C1078 1.287 . S
C1079 C1080 1.524 . S
C1079 H1082 0.999 . S
C1080 H1050 0.950 . S
C1080 C1079 1.524 . S
C1080 C1081 1.415 . S
C1081 H1051 0.950 . S
C1081 C1076 1.363 . S
C1081 C1080 1.415 . S
H1082 C1079 0.999 . S
H1083 C1064 0.913 . S
H1084 C1102 0.951 . S
H1085 C1104 0.951 . S
H1086 C1106 0.950 . S
H1087 C1107 0.950 . S
H1088 C1109 0.950 . S
H1089 C1112 0.950 . S
H1090 C1113 0.950 . S
H1091 C1115 0.950 . S
H1092 C1116 0.950 . S
H1093 C1117 0.951 . S
H1094 C1119 0.951 . S
H1095 C1121 0.950 . S
H1096 C1122 0.950 . S
H1097 C1124 0.950 . S
H1098 C1127 0.950 . S
H1099 C1128 0.950 . S
H1100 C1130 0.950 . S
H1101 C1131 0.950 . S
C1102 H1084 0.951 . S
C1102 C1103 1.366 . S
C1102 C1104 1.388 . S
C1103 C1102 1.366 . S
C1103 C1107 1.385 . S
C1104 H1085 0.951 . S
C1104 C1102 1.388 . S
C1104 C1105 1.366 . S
C1105 C1104 1.366 . S
C1105 C1106 1.414 . S
C1105 C1108 1.499 . S
C1106 H1086 0.950 . S
C1106 C1105 1.414 . S
C1106 C1107 1.374 . S
C1107 H1087 0.950 . S
C1107 C1103 1.385 . S
C1107 C1106 1.374 . S
C1108 C1105 1.499 . S
C1108 C1109 1.373 . S
C1108 C1110 1.389 . S
C1109 H1088 0.950 . S
C1109 C1108 1.373 . S
C1109 C1125 1.377 . S
C1110 C1108 1.389 . S
C1110 C1111 1.524 . S
C1110 C1124 1.377 . S
C1111 C1110 1.524 . S
C1111 C1112 1.397 . S
C1111 C1116 1.363 . S
C1112 H1089 0.950 . S
C1112 C1111 1.397 . S
C1112 C1113 1.334 . S
C1113 H1090 0.950 . S
C1113 C1112 1.334 . S
C1113 C1114 1.287 . S
C1114 C1113 1.287 . S
C1114 C1115 1.524 . S
C1114 H1133 0.913 . S
C1115 H1091 0.950 . S
C1115 C1114 1.524 . S
C1115 C1116 1.415 . S
C1116 H1092 0.950 . S
C1116 C1111 1.363 . S
C1116 C1115 1.415 . S
C1117 H1093 0.951 . S
C1117 C1118 1.366 . S
C1117 C1119 1.388 . S
C1118 C1117 1.366 . S
C1118 C1122 1.385 . S
C1119 H1094 0.951 . S
C1119 C1117 1.388 . S
C1119 C1120 1.366 . S
C1120 C1119 1.366 . S
C1120 C1121 1.414 . S
C1120 C1123 1.499 . S
C1121 H1095 0.950 . S
C1121 C1120 1.414 . S
C1121 C1122 1.374 . S
C1122 H1096 0.950 . S
C1122 C1118 1.385 . S
C1122 C1121 1.374 . S
C1123 C1120 1.499 . S
C1123 C1124 1.373 . S
C1123 C1125 1.389 . S
C1124 H1097 0.950 . S
C1124 C1110 1.377 . S
C1124 C1123 1.373 . S
C1125 C1109 1.377 . S
C1125 C1123 1.389 . S
C1125 C1126 1.524 . S
C1126 C1125 1.524 . S
C1126 C1127 1.397 . S
C1126 C1131 1.363 . S
C1127 H1098 0.950 . S
C1127 C1126 1.397 . S
C1127 C1128 1.334 . S
C1128 H1099 0.950 . S
C1128 C1127 1.334 . S
C1128 C1129 1.287 . S
C1129 C1128 1.287 . S
C1129 C1130 1.524 . S
C1129 H1132 0.999 . S
C1130 H1100 0.950 . S
C1130 C1129 1.524 . S
C1130 C1131 1.415 . S
C1131 H1101 0.950 . S
C1131 C1126 1.363 . S
C1131 C1130 1.415 . S
H1132 C1129 0.999 . S
H1133 C1114 0.913 . S
H1134 C1152 0.951 . S
H1135 C1154 0.951 . S
H1136 C1156 0.950 . S
H1137 C1157 0.950 1_554 S
H1138 C1159 0.950 . S
H1139 C1162 0.950 . S
H1140 C1163 0.950 . S
H1141 C1165 0.950 . S
H1142 C1166 0.950 1_556 S
H1143 C1167 0.951 . S
H1144 C1169 0.951 . S
H1145 C1171 0.950 . S
H1146 C1172 0.950 . S
H1147 C1174 0.950 . S
H1148 C1177 0.950 . S
H1149 C1178 0.950 . S
H1150 C1180 0.950 . S
H1151 C1181 0.950 . S
C1152 H1134 0.951 . S
C1152 C1153 1.366 1_556 S
C1152 C1154 1.388 . S
C1153 C1152 1.366 1_554 S
C1153 C1157 1.385 1_554 S
C1154 H1135 0.951 . S
C1154 C1152 1.388 . S
C1154 C1155 1.366 . S
C1155 C1154 1.366 . S
C1155 C1156 1.414 . S
C1155 C1158 1.499 . S
C1156 H1136 0.950 . S
C1156 C1155 1.414 . S
C1156 C1157 1.374 . S
C1157 H1137 0.950 1_556 S
C1157 C1153 1.385 1_556 S
C1157 C1156 1.374 . S
C1158 C1155 1.499 . S
C1158 C1159 1.373 . S
C1158 C1160 1.389 . S
C1159 H1138 0.950 . S
C1159 C1158 1.373 . S
C1159 C1175 1.377 . S
C1160 C1158 1.389 . S
C1160 C1161 1.524 1_556 S
C1160 C1174 1.377 . S
C1161 C1160 1.524 1_554 S
C1161 C1162 1.397 . S
C1161 C1166 1.363 . S
C1162 H1139 0.950 . S
C1162 C1161 1.397 . S
C1162 C1163 1.334 . S
C1163 H1140 0.950 . S
C1163 C1162 1.334 . S
C1163 C1164 1.287 . S
C1164 C1163 1.287 . S
C1164 C1165 1.524 . S
C1164 H1183 0.913 . S
C1165 H1141 0.950 . S
C1165 C1164 1.524 . S
C1165 C1166 1.415 . S
C1166 H1142 0.950 1_554 S
C1166 C1161 1.363 . S
C1166 C1165 1.415 . S
C1167 H1143 0.951 . S
C1167 C1168 1.366 . S
C1167 C1169 1.388 . S
C1168 C1167 1.366 . S
C1168 C1172 1.385 . S
C1169 H1144 0.951 . S
C1169 C1167 1.388 . S
C1169 C1170 1.366 . S
C1170 C1169 1.366 . S
C1170 C1171 1.414 . S
C1170 C1173 1.499 . S
C1171 H1145 0.950 . S
C1171 C1170 1.414 . S
C1171 C1172 1.374 . S
C1172 H1146 0.950 . S
C1172 C1168 1.385 . S
C1172 C1171 1.374 . S
C1173 C1170 1.499 . S
C1173 C1174 1.373 . S
C1173 C1175 1.389 . S
C1174 H1147 0.950 . S
C1174 C1160 1.377 . S
C1174 C1173 1.373 . S
C1175 C1159 1.377 . S
C1175 C1173 1.389 . S
C1175 C1176 1.524 . S
C1176 C1175 1.524 . S
C1176 C1177 1.397 . S
C1176 C1181 1.363 . S
C1177 H1148 0.950 . S
C1177 C1176 1.397 . S
C1177 C1178 1.334 . S
C1178 H1149 0.950 . S
C1178 C1177 1.334 . S
C1178 C1179 1.287 . S
C1179 C1178 1.287 . S
C1179 C1180 1.524 . S
C1179 H1182 0.999 . S
C1180 H1150 0.950 . S
C1180 C1179 1.524 . S
C1180 C1181 1.415 . S
C1181 H1151 0.950 . S
C1181 C1176 1.363 . S
C1181 C1180 1.415 . S
H1182 C1179 0.999 . S
H1183 C1164 0.913 . S
H1184 C1202 0.951 . S
H1185 C1204 0.951 . S
H1186 C1206 0.950 . S
H1187 C1207 0.950 . S
H1188 C1209 0.950 . S
H1189 C1212 0.948 . S
H1190 C1213 0.950 . S
H1191 C1215 0.950 . S
H1192 C1216 0.954 . S
H1193 C1217 0.951 . S
H1194 C1219 0.951 . S
H1195 C1221 0.950 . S
H1196 C1222 0.958 . S
H1197 C1224 0.973 . S
H1198 C1227 0.950 . S
H1199 C1228 0.950 . S
H1200 C1230 0.950 . S
H1201 C1231 0.950 . S
C1202 H1184 0.951 . S
C1202 C1203 1.366 . S
C1202 C1204 1.388 . S
C1203 C1202 1.366 . S
C1203 C1207 1.385 . S
C1204 H1185 0.951 . S
C1204 C1202 1.388 . S
C1204 C1205 1.366 . S
C1205 C1204 1.366 . S
C1205 C1206 1.414 . S
C1205 C1208 1.499 . S
C1206 H1186 0.950 . S
C1206 C1205 1.414 . S
C1206 C1207 1.374 . S
C1207 H1187 0.950 . S
C1207 C1203 1.385 . S
C1207 C1206 1.374 . S
C1208 C1205 1.499 . S
C1208 C1209 1.373 . S
C1208 C1210 1.389 . S
C1209 H1188 0.950 . S
C1209 C1208 1.373 . S
C1209 C1225 1.377 . S
C1210 C1208 1.389 . S
C1210 C1211 1.524 . S
C1210 C1224 1.377 . S
C1211 C1210 1.524 . S
C1211 C1212 1.396 . S
C1211 C1216 1.363 1_556 S
C1212 H1189 0.948 . S
C1212 C1211 1.396 . S
C1212 C1213 1.336 1_556 S
C1213 H1190 0.950 . S
C1213 C1212 1.336 1_554 S
C1213 C1214 1.287 . S
C1214 C1213 1.287 . S
C1214 C1215 1.524 . S
C1214 H1233 0.913 . S
C1215 H1191 0.950 . S
C1215 C1214 1.524 . S
C1215 C1216 1.415 . S
C1216 H1192 0.954 . S
C1216 C1211 1.363 1_554 S
C1216 C1215 1.415 . S
C1217 H1193 0.951 . S
C1217 C1218 1.366 1_556 S
C1217 C1219 1.388 . S
C1218 C1217 1.366 1_554 S
C1218 C1222 1.385 . S
C1219 H1194 0.951 . S
C1219 C1217 1.388 . S
C1219 C1220 1.366 . S
C1220 C1219 1.366 . S
C1220 C1221 1.414 . S
C1220 C1223 1.499 . S
C1221 H1195 0.950 . S
C1221 C1220 1.414 . S
C1221 C1222 1.366 1_556 S
C1222 H1196 0.958 . S
C1222 C1218 1.385 . S
C1222 C1221 1.366 1_554 S
C1223 C1220 1.499 . S
C1223 C1224 1.373 . S
C1223 C1225 1.389 . S
C1224 H1197 0.973 . S
C1224 C1210 1.377 . S
C1224 C1223 1.373 . S
C1225 C1209 1.377 . S
C1225 C1223 1.389 . S
C1225 C1226 1.524 . S
C1226 C1225 1.524 . S
C1226 C1227 1.397 . S
C1226 C1231 1.363 . S
C1227 H1198 0.950 . S
C1227 C1226 1.397 . S
C1227 C1228 1.334 . S
C1228 H1199 0.950 . S
C1228 C1227 1.334 . S
C1228 C1229 1.287 . S
C1229 C1228 1.287 . S
C1229 C1230 1.524 . S
C1229 H1232 0.999 . S
C1230 H1200 0.950 . S
C1230 C1229 1.524 . S
C1230 C1231 1.415 . S
C1231 H1201 0.950 . S
C1231 C1226 1.363 . S
C1231 C1230 1.415 . S
H1232 C1229 0.999 . S
H1233 C1214 0.913 . S
H1234 C1252 0.951 . S
H1235 C1254 0.951 . S
H1236 C1256 0.950 . S
H1237 C1257 0.950 . S
H1238 C1259 0.950 . S
H1239 C1262 0.950 . S
H1240 C1263 0.950 . S
H1241 C1265 0.950 . S
H1242 C1266 0.950 . S
H1243 C1267 0.951 . S
H1244 C1269 0.951 . S
H1245 C1271 0.950 . S
H1246 C1272 0.950 . S
H1247 C1274 0.950 1_554 S
H1248 C1277 0.950 . S
H1249 C1278 0.950 . S
H1250 C1280 0.950 . S
H1251 C1281 0.950 . S
C1252 H1234 0.951 . S
C1252 C1253 1.366 . S
C1252 C1254 1.388 . S
C1253 C1252 1.366 . S
C1253 C1257 1.385 . S
C1254 H1235 0.951 . S
C1254 C1252 1.388 . S
C1254 C1255 1.366 . S
C1255 C1254 1.366 . S
C1255 C1256 1.414 . S
C1255 C1258 1.499 . S
C1256 H1236 0.950 . S
C1256 C1255 1.414 . S
C1256 C1257 1.374 . S
C1257 H1237 0.950 . S
C1257 C1253 1.385 . S
C1257 C1256 1.374 . S
C1258 C1255 1.499 . S
C1258 C1259 1.373 . S
C1258 C1260 1.389 . S
C1259 H1238 0.950 . S
C1259 C1258 1.373 . S
C1259 C1275 1.377 . S
C1260 C1258 1.389 . S
C1260 C1261 1.524 . S
C1260 C1274 1.377 . S
C1261 C1260 1.524 . S
C1261 C1262 1.397 . S
C1261 C1266 1.363 1_556 S
C1262 H1239 0.950 . S
C1262 C1261 1.397 . S
C1262 C1263 1.334 . S
C1263 H1240 0.950 . S
C1263 C1262 1.334 . S
C1263 C1264 1.287 1_556 S
C1264 C1263 1.287 1_554 S
C1264 C1265 1.524 . S
C1264 H1283 0.913 . S
C1265 H1241 0.950 . S
C1265 C1264 1.524 . S
C1265 C1266 1.415 . S
C1266 H1242 0.950 . S
C1266 C1261 1.363 1_554 S
C1266 C1265 1.415 . S
C1267 H1243 0.951 . S
C1267 C1268 1.340 1_556 S
C1267 C1269 1.388 . S
C1268 C1267 1.340 1_554 S
C1268 C1272 1.400 . S
C1269 H1244 0.951 . S
C1269 C1267 1.388 . S
C1269 C1270 1.366 . S
C1270 C1269 1.366 . S
C1270 C1271 1.414 1_556 S
C1270 C1273 1.499 . S
C1271 H1245 0.950 . S
C1271 C1270 1.414 1_554 S
C1271 C1272 1.374 . S
C1272 H1246 0.950 . S
C1272 C1268 1.400 . S
C1272 C1271 1.374 . S
C1273 C1270 1.499 . S
C1273 C1274 1.373 . S
C1273 C1275 1.389 . S
C1274 H1247 0.950 1_556 S
C1274 C1260 1.377 . S
C1274 C1273 1.373 . S
C1275 C1259 1.377 . S
C1275 C1273 1.389 . S
C1275 C1276 1.524 . S
C1276 C1275 1.524 . S
C1276 C1277 1.397 . S
C1276 C1281 1.363 . S
C1277 H1248 0.950 . S
C1277 C1276 1.397 . S
C1277 C1278 1.334 . S
C1278 H1249 0.950 . S
C1278 C1277 1.334 . S
C1278 C1279 1.287 . S
C1279 C1278 1.287 . S
C1279 C1280 1.524 . S
C1279 H1282 0.999 . S
C1280 H1250 0.950 . S
C1280 C1279 1.524 . S
C1280 C1281 1.415 . S
C1281 H1251 0.950 . S
C1281 C1276 1.363 . S
C1281 C1280 1.415 . S
H1282 C1279 0.999 . S
H1283 C1264 0.913 . S
H1284 C1302 0.951 . S
H1285 C1304 0.951 . S
H1286 C1306 0.950 . S
H1287 C1307 0.950 . S
H1288 C1309 0.950 . S
H1289 C1312 0.950 . S
H1290 C1313 0.950 . S
H1291 C1315 0.950 . S
H1292 C1316 0.950 . S
H1293 C1317 0.951 . S
H1294 C1319 0.951 . S
H1295 C1321 0.950 . S
H1296 C1322 0.950 . S
H1297 C1324 0.950 . S
H1298 C1327 0.950 . S
H1299 C1328 0.950 . S
H1300 C1330 0.950 . S
H1301 C1331 0.950 . S
C1302 H1284 0.951 . S
C1302 C1303 1.366 . S
C1302 C1304 1.388 . S
C1303 C1302 1.366 . S
C1303 C1307 1.385 . S
C1304 H1285 0.951 . S
C1304 C1302 1.388 . S
C1304 C1305 1.366 . S
C1305 C1304 1.366 . S
C1305 C1306 1.414 . S
C1305 C1308 1.499 . S
C1306 H1286 0.950 . S
C1306 C1305 1.414 . S
C1306 C1307 1.374 . S
C1307 H1287 0.950 . S
C1307 C1303 1.385 . S
C1307 C1306 1.374 . S
C1308 C1305 1.499 . S
C1308 C1309 1.373 . S
C1308 C1310 1.389 . S
C1309 H1288 0.950 . S
C1309 C1308 1.373 . S
C1309 C1325 1.377 . S
C1310 C1308 1.389 . S
C1310 C1311 1.524 . S
C1310 C1324 1.377 . S
C1311 C1310 1.524 . S
C1311 C1312 1.397 . S
C1311 C1316 1.363 . S
C1312 H1289 0.950 . S
C1312 C1311 1.397 . S
C1312 C1313 1.334 . S
C1313 H1290 0.950 . S
C1313 C1312 1.334 . S
C1313 C1314 1.287 . S
C1314 C1313 1.287 . S
C1314 C1315 1.524 . S
C1314 H1333 0.913 . S
C1315 H1291 0.950 . S
C1315 C1314 1.524 . S
C1315 C1316 1.415 . S
C1316 H1292 0.950 . S
C1316 C1311 1.363 . S
C1316 C1315 1.415 . S
C1317 H1293 0.951 . S
C1317 C1318 1.366 . S
C1317 C1319 1.388 . S
C1318 C1317 1.366 . S
C1318 C1322 1.385 . S
C1319 H1294 0.951 . S
C1319 C1317 1.388 . S
C1319 C1320 1.366 . S
C1320 C1319 1.366 . S
C1320 C1321 1.414 . S
C1320 C1323 1.499 . S
C1321 H1295 0.950 . S
C1321 C1320 1.414 . S
C1321 C1322 1.374 . S
C1322 H1296 0.950 . S
C1322 C1318 1.385 . S
C1322 C1321 1.374 . S
C1323 C1320 1.499 . S
C1323 C1324 1.373 . S
C1323 C1325 1.389 . S
C1324 H1297 0.950 . S
C1324 C1310 1.377 . S
C1324 C1323 1.373 . S
C1325 C1309 1.377 . S
C1325 C1323 1.389 . S
C1325 C1326 1.524 . S
C1326 C1325 1.524 . S
C1326 C1327 1.397 . S
C1326 C1331 1.363 . S
C1327 H1298 0.950 . S
C1327 C1326 1.397 . S
C1327 C1328 1.334 . S
C1328 H1299 0.950 . S
C1328 C1327 1.334 . S
C1328 C1329 1.287 . S
C1329 C1328 1.287 . S
C1329 C1330 1.524 . S
C1329 H1332 0.999 . S
C1330 H1300 0.950 . S
C1330 C1329 1.524 . S
C1330 C1331 1.415 . S
C1331 H1301 0.950 . S
C1331 C1326 1.363 . S
C1331 C1330 1.415 . S
H1332 C1329 0.999 . S
H1333 C1314 0.913 . S
H1334 C1352 0.951 . S
H1335 C1354 0.951 . S
H1336 C1356 0.950 . S
H1337 C1357 0.950 . S
H1338 C1359 0.950 . S
H1339 C1362 0.950 . S
H1340 C1363 0.950 . S
H1341 C1365 0.950 . S
H1342 C1366 0.950 . S
H1343 C1367 0.951 . S
H1344 C1369 0.951 . S
H1345 C1371 0.950 . S
H1346 C1372 0.950 . S
H1347 C1374 0.950 . S
H1348 C1377 0.950 . S
H1349 C1378 0.905 1_455 S
H1350 C1380 0.950 . S
H1351 C1381 0.950 . S
C1352 H1334 0.951 . S
C1352 C1353 1.366 . S
C1352 C1354 1.388 . S
C1353 C1352 1.366 . S
C1353 C1357 1.385 . S
C1354 H1335 0.951 . S
C1354 C1352 1.388 . S
C1354 C1355 1.366 . S
C1355 C1354 1.366 . S
C1355 C1356 1.414 . S
C1355 C1358 1.499 . S
C1356 H1336 0.950 . S
C1356 C1355 1.414 . S
C1356 C1357 1.374 . S
C1357 H1337 0.950 . S
C1357 C1353 1.385 . S
C1357 C1356 1.374 . S
C1358 C1355 1.499 . S
C1358 C1359 1.373 . S
C1358 C1360 1.389 . S
C1359 H1338 0.950 . S
C1359 C1358 1.373 . S
C1359 C1375 1.377 . S
C1360 C1358 1.389 . S
C1360 C1361 1.524 . S
C1360 C1374 1.377 . S
C1361 C1360 1.524 . S
C1361 C1362 1.397 . S
C1361 C1366 1.363 . S
C1362 H1339 0.950 . S
C1362 C1361 1.397 . S
C1362 C1363 1.334 . S
C1363 H1340 0.950 . S
C1363 C1362 1.334 . S
C1363 C1364 1.287 . S
C1364 C1363 1.287 . S
C1364 C1365 1.524 . S
C1364 H1383 0.913 . S
C1365 H1341 0.950 . S
C1365 C1364 1.524 . S
C1365 C1366 1.415 . S
C1366 H1342 0.950 . S
C1366 C1361 1.363 . S
C1366 C1365 1.415 . S
C1367 H1343 0.951 . S
C1367 C1368 1.366 . S
C1367 C1369 1.388 . S
C1368 C1367 1.366 . S
C1368 C1372 1.385 . S
C1369 H1344 0.951 . S
C1369 C1367 1.388 . S
C1369 C1370 1.366 . S
C1370 C1369 1.366 . S
C1370 C1371 1.414 . S
C1370 C1373 1.499 . S
C1371 H1345 0.950 . S
C1371 C1370 1.414 . S
C1371 C1372 1.374 . S
C1372 H1346 0.950 . S
C1372 C1368 1.385 . S
C1372 C1371 1.374 . S
C1373 C1370 1.499 . S
C1373 C1374 1.373 . S
C1373 C1375 1.389 . S
C1374 H1347 0.950 . S
C1374 C1360 1.377 . S
C1374 C1373 1.373 . S
C1375 C1359 1.377 . S
C1375 C1373 1.389 . S
C1375 C1376 1.524 . S
C1376 C1375 1.524 . S
C1376 C1377 1.397 . S
C1376 C1381 1.363 . S
C1377 H1348 0.950 . S
C1377 C1376 1.397 . S
C1377 C1378 1.334 . S
C1378 H1349 0.905 1_655 S
C1378 C1377 1.334 . S
C1378 C1379 1.287 . S
C1379 C1378 1.287 . S
C1379 C1380 1.524 . S
C1379 H1382 0.999 . S
C1380 H1350 0.950 . S
C1380 C1379 1.524 . S
C1380 C1381 1.415 . S
C1381 H1351 0.950 . S
C1381 C1376 1.363 . S
C1381 C1380 1.415 . S
H1382 C1379 0.999 . S
H1383 C1364 0.913 . S
H1384 C1402 0.951 . S
H1385 C1404 0.951 . S
H1386 C1406 0.950 . S
H1387 C1407 0.950 . S
H1388 C1409 0.950 . S
H1389 C1412 0.950 . S
H1390 C1413 0.950 . S
H1391 C1415 0.950 . S
H1392 C1416 0.950 . S
H1393 C1417 0.951 . S
H1394 C1419 0.951 . S
H1395 C1421 0.950 . S
H1396 C1422 0.950 . S
H1397 C1424 0.950 . S
H1398 C1427 0.950 . S
H1399 C1428 0.950 . S
H1400 C1430 0.950 . S
H1401 C1431 0.950 . S
C1402 H1384 0.951 . S
C1402 C1403 1.366 . S
C1402 C1404 1.388 . S
C1403 C1402 1.366 . S
C1403 C1407 1.385 . S
C1404 H1385 0.951 . S
C1404 C1402 1.388 . S
C1404 C1405 1.366 . S
C1405 C1404 1.366 . S
C1405 C1406 1.414 . S
C1405 C1408 1.499 . S
C1406 H1386 0.950 . S
C1406 C1405 1.414 . S
C1406 C1407 1.374 . S
C1407 H1387 0.950 . S
C1407 C1403 1.385 . S
C1407 C1406 1.374 . S
C1408 C1405 1.499 . S
C1408 C1409 1.373 . S
C1408 C1410 1.389 . S
C1409 H1388 0.950 . S
C1409 C1408 1.373 . S
C1409 C1425 1.377 . S
C1410 C1408 1.389 . S
C1410 C1411 1.524 . S
C1410 C1424 1.377 . S
C1411 C1410 1.524 . S
C1411 C1412 1.397 . S
C1411 C1416 1.363 . S
C1412 H1389 0.950 . S
C1412 C1411 1.397 . S
C1412 C1413 1.334 . S
C1413 H1390 0.950 . S
C1413 C1412 1.334 . S
C1413 C1414 1.287 . S
C1414 C1413 1.287 . S
C1414 C1415 1.524 . S
C1414 H1433 0.913 . S
C1415 H1391 0.950 . S
C1415 C1414 1.524 . S
C1415 C1416 1.415 . S
C1416 H1392 0.950 . S
C1416 C1411 1.363 . S
C1416 C1415 1.415 . S
C1417 H1393 0.951 . S
C1417 C1418 1.366 . S
C1417 C1419 1.388 . S
C1418 C1417 1.366 . S
C1418 C1422 1.385 . S
C1419 H1394 0.951 . S
C1419 C1417 1.388 . S
C1419 C1420 1.366 . S
C1420 C1419 1.366 . S
C1420 C1421 1.414 . S
C1420 C1423 1.499 . S
C1421 H1395 0.950 . S
C1421 C1420 1.414 . S
C1421 C1422 1.374 . S
C1422 H1396 0.950 . S
C1422 C1418 1.385 . S
C1422 C1421 1.374 . S
C1423 C1420 1.499 . S
C1423 C1424 1.373 . S
C1423 C1425 1.389 . S
C1424 H1397 0.950 . S
C1424 C1410 1.377 . S
C1424 C1423 1.373 . S
C1425 C1409 1.377 . S
C1425 C1423 1.389 . S
C1425 C1426 1.524 . S
C1426 C1425 1.524 . S
C1426 C1427 1.397 . S
C1426 C1431 1.363 . S
C1427 H1398 0.950 . S
C1427 C1426 1.397 . S
C1427 C1428 1.334 . S
C1428 H1399 0.950 . S
C1428 C1427 1.334 . S
C1428 C1429 1.287 . S
C1429 C1428 1.287 . S
C1429 C1430 1.524 . S
C1429 H1432 0.999 . S
C1430 H1400 0.950 . S
C1430 C1429 1.524 . S
C1430 C1431 1.415 . S
C1431 H1401 0.950 . S
C1431 C1426 1.363 . S
C1431 C1430 1.415 . S
H1432 C1429 0.999 . S
H1433 C1414 0.913 . S
H1434 C1452 0.951 . S
H1435 C1454 0.951 . S
H1436 C1456 0.950 . S
H1437 C1457 0.950 . S
H1438 C1459 0.950 . S
H1439 C1462 0.950 . S
H1440 C1463 0.950 . S
H1441 C1465 0.950 . S
H1442 C1466 0.950 . S
H1443 C1467 0.951 . S
H1444 C1469 0.951 . S
H1445 C1471 0.950 . S
H1446 C1472 0.950 . S
H1447 C1474 0.950 . S
H1448 C1477 0.950 . S
H1449 C1478 0.950 . S
H1450 C1480 0.950 . S
H1451 C1481 0.950 . S
C1452 H1434 0.951 . S
C1452 C1453 1.366 . S
C1452 C1454 1.388 . S
C1453 C1452 1.366 . S
C1453 C1457 1.385 . S
C1454 H1435 0.951 . S
C1454 C1452 1.388 . S
C1454 C1455 1.366 . S
C1455 C1454 1.366 . S
C1455 C1456 1.414 . S
C1455 C1458 1.499 . S
C1456 H1436 0.950 . S
C1456 C1455 1.414 . S
C1456 C1457 1.374 . S
C1457 H1437 0.950 . S
C1457 C1453 1.385 . S
C1457 C1456 1.374 . S
C1458 C1455 1.499 . S
C1458 C1459 1.373 . S
C1458 C1460 1.389 . S
C1459 H1438 0.950 . S
C1459 C1458 1.373 . S
C1459 C1475 1.377 . S
C1460 C1458 1.389 . S
C1460 C1461 1.524 . S
C1460 C1474 1.377 . S
C1461 C1460 1.524 . S
C1461 C1462 1.397 . S
C1461 C1466 1.363 . S
C1462 H1439 0.950 . S
C1462 C1461 1.397 . S
C1462 C1463 1.334 . S
C1463 H1440 0.950 . S
C1463 C1462 1.334 . S
C1463 C1464 1.287 . S
C1464 C1463 1.287 . S
C1464 C1465 1.524 . S
C1464 H1483 0.913 . S
C1465 H1441 0.950 . S
C1465 C1464 1.524 . S
C1465 C1466 1.415 . S
C1466 H1442 0.950 . S
C1466 C1461 1.363 . S
C1466 C1465 1.415 . S
C1467 H1443 0.951 . S
C1467 C1468 1.366 . S
C1467 C1469 1.388 . S
C1468 C1467 1.366 . S
C1468 C1472 1.385 . S
C1469 H1444 0.951 . S
C1469 C1467 1.388 . S
C1469 C1470 1.366 . S
C1470 C1469 1.366 . S
C1470 C1471 1.414 . S
C1470 C1473 1.499 . S
C1471 H1445 0.950 . S
C1471 C1470 1.414 . S
C1471 C1472 1.374 . S
C1472 H1446 0.950 . S
C1472 C1468 1.385 . S
C1472 C1471 1.374 . S
C1473 C1470 1.499 . S
C1473 C1474 1.373 . S
C1473 C1475 1.389 . S
C1474 H1447 0.950 . S
C1474 C1460 1.377 . S
C1474 C1473 1.373 . S
C1475 C1459 1.377 . S
C1475 C1473 1.389 . S
C1475 C1476 1.524 . S
C1476 C1475 1.524 . S
C1476 C1477 1.397 . S
C1476 C1481 1.363 . S
C1477 H1448 0.950 . S
C1477 C1476 1.397 . S
C1477 C1478 1.334 1_655 S
C1478 H1449 0.950 . S
C1478 C1477 1.334 1_455 S
C1478 C1479 1.287 . S
C1479 C1478 1.287 . S
C1479 C1480 1.524 . S
C1479 H1482 0.999 . S
C1480 H1450 0.950 . S
C1480 C1479 1.524 . S
C1480 C1481 1.415 1_455 S
C1481 H1451 0.950 . S
C1481 C1476 1.363 . S
C1481 C1480 1.415 1_655 S
H1482 C1479 0.999 . S
H1483 C1464 0.913 . S
H1484 C1502 0.951 . S
H1485 C1504 0.951 . S
H1486 C1506 0.950 . S
H1487 C1507 0.950 . S
H1488 C1509 0.950 . S
H1489 C1512 0.950 . S
H1490 C1513 0.950 . S
H1491 C1515 0.950 . S
H1492 C1516 0.950 . S
H1493 C1517 0.951 . S
H1494 C1519 0.951 . S
H1495 C1521 0.950 . S
H1496 C1522 0.950 . S
H1497 C1524 0.950 . S
H1498 C1527 0.950 . S
H1499 C1528 0.950 . S
H1500 C1530 0.950 . S
H1501 C1531 0.950 . S
C1502 H1484 0.951 . S
C1502 C1503 1.366 . S
C1502 C1504 1.388 . S
C1503 C1502 1.366 . S
C1503 C1507 1.385 . S
C1504 H1485 0.951 . S
C1504 C1502 1.388 . S
C1504 C1505 1.366 . S
C1505 C1504 1.366 . S
C1505 C1506 1.414 . S
C1505 C1508 1.499 . S
C1506 H1486 0.950 . S
C1506 C1505 1.414 . S
C1506 C1507 1.374 . S
C1507 H1487 0.950 . S
C1507 C1503 1.385 . S
C1507 C1506 1.374 . S
C1508 C1505 1.499 . S
C1508 C1509 1.373 . S
C1508 C1510 1.389 . S
C1509 H1488 0.950 . S
C1509 C1508 1.373 . S
C1509 C1525 1.377 . S
C1510 C1508 1.389 . S
C1510 C1511 1.524 . S
C1510 C1524 1.377 . S
C1511 C1510 1.524 . S
C1511 C1512 1.397 . S
C1511 C1516 1.363 . S
C1512 H1489 0.950 . S
C1512 C1511 1.397 . S
C1512 C1513 1.334 . S
C1513 H1490 0.950 . S
C1513 C1512 1.334 . S
C1513 C1514 1.287 . S
C1514 C1513 1.287 . S
C1514 C1515 1.524 . S
C1514 H1533 0.913 . S
C1515 H1491 0.950 . S
C1515 C1514 1.524 . S
C1515 C1516 1.415 . S
C1516 H1492 0.950 . S
C1516 C1511 1.363 . S
C1516 C1515 1.415 . S
C1517 H1493 0.951 . S
C1517 C1518 1.366 . S
C1517 C1519 1.388 . S
C1518 C1517 1.366 . S
C1518 C1522 1.385 . S
C1519 H1494 0.951 . S
C1519 C1517 1.388 . S
C1519 C1520 1.366 . S
C1520 C1519 1.366 . S
C1520 C1521 1.414 . S
C1520 C1523 1.499 . S
C1521 H1495 0.950 . S
C1521 C1520 1.414 . S
C1521 C1522 1.374 . S
C1522 H1496 0.950 . S
C1522 C1518 1.385 . S
C1522 C1521 1.374 . S
C1523 C1520 1.499 . S
C1523 C1524 1.373 . S
C1523 C1525 1.389 . S
C1524 H1497 0.950 . S
C1524 C1510 1.377 . S
C1524 C1523 1.373 . S
C1525 C1509 1.377 . S
C1525 C1523 1.389 . S
C1525 C1526 1.524 . S
C1526 C1525 1.524 . S
C1526 C1527 1.397 . S
C1526 C1531 1.363 . S
C1527 H1498 0.950 . S
C1527 C1526 1.397 . S
C1527 C1528 1.334 . S
C1528 H1499 0.950 . S
C1528 C1527 1.334 . S
C1528 C1529 1.287 . S
C1529 C1528 1.287 . S
C1529 C1530 1.524 . S
C1529 H1532 0.999 . S
C1530 H1500 0.950 . S
C1530 C1529 1.524 . S
C1530 C1531 1.415 . S
C1531 H1501 0.950 . S
C1531 C1526 1.363 . S
C1531 C1530 1.415 . S
H1532 C1529 0.999 . S
H1533 C1514 0.913 . S
H1534 C1552 0.951 . S
H1535 C1554 0.951 . S
H1536 C1556 0.950 . S
H1537 C1557 0.950 . S
H1538 C1559 0.950 . S
H1539 C1562 0.950 . S
H1540 C1563 0.950 . S
H1541 C1565 0.950 1_556 S
H1542 C1566 0.950 . S
H1543 C1567 0.951 . S
H1544 C1569 0.951 . S
H1545 C1571 0.950 . S
H1546 C1572 0.950 . S
H1547 C1574 0.950 . S
H1548 C1577 0.950 . S
H1549 C1578 0.950 . S
H1550 C1580 0.950 . S
H1551 C1581 0.950 . S
C1552 H1534 0.951 . S
C1552 C1553 1.366 . S
C1552 C1554 1.388 . S
C1553 C1552 1.366 . S
C1553 C1557 1.385 . S
C1554 H1535 0.951 . S
C1554 C1552 1.388 . S
C1554 C1555 1.366 . S
C1555 C1554 1.366 . S
C1555 C1556 1.414 . S
C1555 C1558 1.499 . S
C1556 H1536 0.950 . S
C1556 C1555 1.414 . S
C1556 C1557 1.374 . S
C1557 H1537 0.950 . S
C1557 C1553 1.385 . S
C1557 C1556 1.374 . S
C1558 C1555 1.499 . S
C1558 C1559 1.373 . S
C1558 C1560 1.389 . S
C1559 H1538 0.950 . S
C1559 C1558 1.373 . S
C1559 C1575 1.377 . S
C1560 C1558 1.389 . S
C1560 C1561 1.524 . S
C1560 C1574 1.377 . S
C1561 C1560 1.524 . S
C1561 C1562 1.397 . S
C1561 C1566 1.363 . S
C1562 H1539 0.950 . S
C1562 C1561 1.397 . S
C1562 C1563 1.334 . S
C1563 H1540 0.950 . S
C1563 C1562 1.334 . S
C1563 C1564 1.287 . S
C1564 C1563 1.287 . S
C1564 C1565 1.524 . S
C1564 H1583 0.900 1_554 S
C1565 H1541 0.950 1_554 S
C1565 C1564 1.524 . S
C1565 C1566 1.415 . S
C1566 H1542 0.950 . S
C1566 C1561 1.363 . S
C1566 C1565 1.415 . S
C1567 H1543 0.951 . S
C1567 C1568 1.366 . S
C1567 C1569 1.388 . S
C1568 C1567 1.366 . S
C1568 C1572 1.385 . S
C1569 H1544 0.951 . S
C1569 C1567 1.388 . S
C1569 C1570 1.366 . S
C1570 C1569 1.366 . S
C1570 C1571 1.414 . S
C1570 C1573 1.499 . S
C1571 H1545 0.950 . S
C1571 C1570 1.414 . S
C1571 C1572 1.374 . S
C1572 H1546 0.950 . S
C1572 C1568 1.385 . S
C1572 C1571 1.374 . S
C1573 C1570 1.499 . S
C1573 C1574 1.373 . S
C1573 C1575 1.389 . S
C1574 H1547 0.950 . S
C1574 C1560 1.377 . S
C1574 C1573 1.373 . S
C1575 C1559 1.377 . S
C1575 C1573 1.389 . S
C1575 C1576 1.524 . S
C1576 C1575 1.524 . S
C1576 C1577 1.397 . S
C1576 C1581 1.363 . S
C1577 H1548 0.950 . S
C1577 C1576 1.397 . S
C1577 C1578 1.334 . S
C1578 H1549 0.950 . S
C1578 C1577 1.334 . S
C1578 C1579 1.287 . S
C1579 C1578 1.287 . S
C1579 C1580 1.524 . S
C1579 H1582 0.999 . S
C1580 H1550 0.950 . S
C1580 C1579 1.524 . S
C1580 C1581 1.415 . S
C1581 H1551 0.950 . S
C1581 C1576 1.363 . S
C1581 C1580 1.415 . S
H1582 C1579 0.999 . S
H1583 C1564 0.900 1_556 S
H1584 C1602 0.951 . S
H1585 C1604 0.951 . S
H1586 C1606 0.950 . S
H1587 C1607 0.977 . S
H1588 C1609 0.950 . S
H1589 C1612 0.950 . S
H1590 C1613 0.950 . S
H1591 C1615 0.950 . S
H1592 C1616 0.950 . S
H1593 C1617 0.951 . S
H1594 C1619 0.951 . S
H1595 C1621 0.950 . S
H1596 C1622 0.950 . S
H1597 C1624 0.950 . S
H1598 C1627 0.950 . S
H1599 C1628 0.950 . S
H1600 C1630 0.950 1_545 S
H1601 C1631 0.950 . S
C1602 H1584 0.951 . S
C1602 C1603 1.366 . S
C1602 C1604 1.388 . S
C1603 C1602 1.366 . S
C1603 C1607 1.385 . S
C1604 H1585 0.951 . S
C1604 C1602 1.388 . S
C1604 C1605 1.366 . S
C1605 C1604 1.366 . S
C1605 C1606 1.414 . S
C1605 C1608 1.499 . S
C1606 H1586 0.950 . S
C1606 C1605 1.414 . S
C1606 C1607 1.374 . S
C1607 H1587 0.977 . S
C1607 C1603 1.385 . S
C1607 C1606 1.374 . S
C1608 C1605 1.499 . S
C1608 C1609 1.373 . S
C1608 C1610 1.389 . S
C1609 H1588 0.950 . S
C1609 C1608 1.373 . S
C1609 C1625 1.377 . S
C1610 C1608 1.389 . S
C1610 C1611 1.524 . S
C1610 C1624 1.377 . S
C1611 C1610 1.524 . S
C1611 C1612 1.397 . S
C1611 C1616 1.363 . S
C1612 H1589 0.950 . S
C1612 C1611 1.397 . S
C1612 C1613 1.334 . S
C1613 H1590 0.950 . S
C1613 C1612 1.334 . S
C1613 C1614 1.287 . S
C1614 C1613 1.287 . S
C1614 C1615 1.524 . S
C1614 H1633 0.913 . S
C1615 H1591 0.950 . S
C1615 C1614 1.524 . S
C1615 C1616 1.415 . S
C1616 H1592 0.950 . S
C1616 C1611 1.363 . S
C1616 C1615 1.415 . S
C1617 H1593 0.951 . S
C1617 C1618 1.366 . S
C1617 C1619 1.388 . S
C1618 C1617 1.366 . S
C1618 C1622 1.385 . S
C1619 H1594 0.951 . S
C1619 C1617 1.388 . S
C1619 C1620 1.366 . S
C1620 C1619 1.366 . S
C1620 C1621 1.414 . S
C1620 C1623 1.499 . S
C1621 H1595 0.950 . S
C1621 C1620 1.414 . S
C1621 C1622 1.374 . S
C1622 H1596 0.950 . S
C1622 C1618 1.385 . S
C1622 C1621 1.374 . S
C1623 C1620 1.499 . S
C1623 C1624 1.373 . S
C1623 C1625 1.389 . S
C1624 H1597 0.950 . S
C1624 C1610 1.377 . S
C1624 C1623 1.373 . S
C1625 C1609 1.377 . S
C1625 C1623 1.389 . S
C1625 C1626 1.524 . S
C1626 C1625 1.524 . S
C1626 C1627 1.397 . S
C1626 C1631 1.363 . S
C1627 H1598 0.950 . S
C1627 C1626 1.397 . S
C1627 C1628 1.334 . S
C1628 H1599 0.950 . S
C1628 C1627 1.334 . S
C1628 C1629 1.287 . S
C1629 C1628 1.287 . S
C1629 C1630 1.524 . S
C1629 H1632 0.999 . S
C1630 H1600 0.950 1_565 S
C1630 C1629 1.524 . S
C1630 C1631 1.415 . S
C1631 H1601 0.950 . S
C1631 C1626 1.363 . S
C1631 C1630 1.415 . S
H1632 C1629 0.999 . S
H1633 C1614 0.913 . S
H1634 C1652 0.951 . S
H1635 C1654 0.951 . S
H1636 C1656 0.950 . S
H1637 C1657 0.950 . S
H1638 C1659 0.950 . S
H1639 C1662 0.950 . S
H1640 C1663 0.950 . S
H1641 C1665 0.950 . S
H1642 C1666 0.950 . S
H1643 C1667 0.951 . S
H1644 C1669 0.951 . S
H1645 C1671 0.950 . S
H1646 C1672 0.950 . S
H1647 C1674 0.950 . S
H1648 C1677 0.950 . S
H1649 C1678 0.950 . S
H1650 C1680 0.950 . S
H1651 C1681 0.950 . S
C1652 H1634 0.951 . S
C1652 C1653 1.366 . S
C1652 C1654 1.388 . S
C1653 C1652 1.366 . S
C1653 C1657 1.385 . S
C1654 H1635 0.951 . S
C1654 C1652 1.388 . S
C1654 C1655 1.366 . S
C1655 C1654 1.366 . S
C1655 C1656 1.414 . S
C1655 C1658 1.499 . S
C1656 H1636 0.950 . S
C1656 C1655 1.414 . S
C1656 C1657 1.374 . S
C1657 H1637 0.950 . S
C1657 C1653 1.385 . S
C1657 C1656 1.374 . S
C1658 C1655 1.499 . S
C1658 C1659 1.373 . S
C1658 C1660 1.389 . S
C1659 H1638 0.950 . S
C1659 C1658 1.373 . S
C1659 C1675 1.377 . S
C1660 C1658 1.389 . S
C1660 C1661 1.524 . S
C1660 C1674 1.377 . S
C1661 C1660 1.524 . S
C1661 C1662 1.397 . S
C1661 C1666 1.363 . S
C1662 H1639 0.950 . S
C1662 C1661 1.397 . S
C1662 C1663 1.334 . S
C1663 H1640 0.950 . S
C1663 C1662 1.334 . S
C1663 C1664 1.287 . S
C1664 C1663 1.287 . S
C1664 C1665 1.524 . S
C1664 H1683 0.913 . S
C1665 H1641 0.950 . S
C1665 C1664 1.524 . S
C1665 C1666 1.415 . S
C1666 H1642 0.950 . S
C1666 C1661 1.363 . S
C1666 C1665 1.415 . S
C1667 H1643 0.951 . S
C1667 C1668 1.366 . S
C1667 C1669 1.388 . S
C1668 C1667 1.366 . S
C1668 C1672 1.385 . S
C1669 H1644 0.951 . S
C1669 C1667 1.388 . S
C1669 C1670 1.366 . S
C1670 C1669 1.366 . S
C1670 C1671 1.414 . S
C1670 C1673 1.499 . S
C1671 H1645 0.950 . S
C1671 C1670 1.414 . S
C1671 C1672 1.374 . S
C1672 H1646 0.950 . S
C1672 C1668 1.385 . S
C1672 C1671 1.374 . S
C1673 C1670 1.499 . S
C1673 C1674 1.373 . S
C1673 C1675 1.389 . S
C1674 H1647 0.950 . S
C1674 C1660 1.377 . S
C1674 C1673 1.373 . S
C1675 C1659 1.377 . S
C1675 C1673 1.389 . S
C1675 C1676 1.524 . S
C1676 C1675 1.524 . S
C1676 C1677 1.397 . S
C1676 C1681 1.363 . S
C1677 H1648 0.950 . S
C1677 C1676 1.397 . S
C1677 C1678 1.334 . S
C1678 H1649 0.950 . S
C1678 C1677 1.334 . S
C1678 C1679 1.287 . S
C1679 C1678 1.287 . S
C1679 C1680 1.524 . S
C1679 H1682 0.999 . S
C1680 H1650 0.950 . S
C1680 C1679 1.524 . S
C1680 C1681 1.415 . S
C1681 H1651 0.950 . S
C1681 C1676 1.363 . S
C1681 C1680 1.415 . S
H1682 C1679 0.999 . S
H1683 C1664 0.913 . S
H1684 C1702 0.951 . S
H1685 C1704 0.951 . S
H1686 C1706 0.950 . S
H1687 C1707 0.950 . S
H1688 C1709 0.950 . S
H1689 C1712 0.950 . S
H1690 C1713 0.950 . S
H1691 C1715 0.950 . S
H1692 C1716 0.950 . S
H1693 C1717 0.951 . S
H1694 C1719 0.951 . S
H1695 C1721 0.950 . S
H1696 C1722 0.950 . S
H1697 C1724 0.950 . S
H1698 C1727 0.950 . S
H1699 C1728 0.950 . S
H1700 C1730 0.950 . S
H1701 C1731 0.950 . S
C1702 H1684 0.951 . S
C1702 C1703 1.366 . S
C1702 C1704 1.388 . S
C1703 C1702 1.366 . S
C1703 C1707 1.385 . S
C1704 H1685 0.951 . S
C1704 C1702 1.388 . S
C1704 C1705 1.366 . S
C1705 C1704 1.366 . S
C1705 C1706 1.414 . S
C1705 C1708 1.499 . S
C1706 H1686 0.950 . S
C1706 C1705 1.414 . S
C1706 C1707 1.374 . S
C1707 H1687 0.950 . S
C1707 C1703 1.385 . S
C1707 C1706 1.374 . S
C1708 C1705 1.499 . S
C1708 C1709 1.373 . S
C1708 C1710 1.389 . S
C1709 H1688 0.950 . S
C1709 C1708 1.373 . S
C1709 C1725 1.377 . S
C1710 C1708 1.389 . S
C1710 C1711 1.524 . S
C1710 C1724 1.377 . S
C1711 C1710 1.524 . S
C1711 C1712 1.397 . S
C1711 C1716 1.363 . S
C1712 H1689 0.950 . S
C1712 C1711 1.397 . S
C1712 C1713 1.334 . S
C1713 H1690 0.950 . S
C1713 C1712 1.334 . S
C1713 C1714 1.287 . S
C1714 C1713 1.287 . S
C1714 C1715 1.524 . S
C1714 H1733 0.913 . S
C1715 H1691 0.950 . S
C1715 C1714 1.524 . S
C1715 C1716 1.415 . S
C1716 H1692 0.950 . S
C1716 C1711 1.363 . S
C1716 C1715 1.415 . S
C1717 H1693 0.951 . S
C1717 C1718 1.366 . S
C1717 C1719 1.388 . S
C1718 C1717 1.366 . S
C1718 C1722 1.385 . S
C1719 H1694 0.951 . S
C1719 C1717 1.388 . S
C1719 C1720 1.366 . S
C1720 C1719 1.366 . S
C1720 C1721 1.414 . S
C1720 C1723 1.499 . S
C1721 H1695 0.950 . S
C1721 C1720 1.414 . S
C1721 C1722 1.374 . S
C1722 H1696 0.950 . S
C1722 C1718 1.385 . S
C1722 C1721 1.374 . S
C1723 C1720 1.499 . S
C1723 C1724 1.373 . S
C1723 C1725 1.389 . S
C1724 H1697 0.950 . S
C1724 C1710 1.377 . S
C1724 C1723 1.373 . S
C1725 C1709 1.377 . S
C1725 C1723 1.389 . S
C1725 C1726 1.524 . S
C1726 C1725 1.524 . S
C1726 C1727 1.397 . S
C1726 C1731 1.363 . S
C1727 H1698 0.950 . S
C1727 C1726 1.397 . S
C1727 C1728 1.334 . S
C1728 H1699 0.950 . S
C1728 C1727 1.334 . S
C1728 C1729 1.287 . S
C1729 C1728 1.287 . S
C1729 C1730 1.524 . S
C1729 H1732 0.999 . S
C1730 H1700 0.950 . S
C1730 C1729 1.524 . S
C1730 C1731 1.415 . S
C1731 H1701 0.950 . S
C1731 C1726 1.363 . S
C1731 C1730 1.415 . S
H1732 C1729 0.999 . S
H1733 C1714 0.913 . S
H1734 C1752 0.951 . S
H1735 C1754 0.951 . S
H1736 C1756 0.950 . S
H1737 C1757 0.950 . S
H1738 C1759 0.950 . S
H1739 C1762 0.950 . S
H1740 C1763 0.950 . S
H1741 C1765 0.950 . S
H1742 C1766 0.950 . S
H1743 C1767 0.951 . S
H1744 C1769 0.951 . S
H1745 C1771 0.950 . S
H1746 C1772 0.950 . S
H1747 C1774 0.950 . S
H1748 C1777 0.950 . S
H1749 C1778 0.950 . S
H1750 C1780 0.950 . S
H1751 C1781 0.950 . S
C1752 H1734 0.951 . S
C1752 C1753 1.366 . S
C1752 C1754 1.388 . S
C1753 C1752 1.366 . S
C1753 C1757 1.385 . S
C1754 H1735 0.951 . S
C1754 C1752 1.388 . S
C1754 C1755 1.366 . S
C1755 C1754 1.366 . S
C1755 C1756 1.414 . S
C1755 C1758 1.499 . S
C1756 H1736 0.950 . S
C1756 C1755 1.414 . S
C1756 C1757 1.374 . S
C1757 H1737 0.950 . S
C1757 C1753 1.385 . S
C1757 C1756 1.374 . S
C1758 C1755 1.499 . S
C1758 C1759 1.373 . S
C1758 C1760 1.389 . S
C1759 H1738 0.950 . S
C1759 C1758 1.373 . S
C1759 C1775 1.377 . S
C1760 C1758 1.389 . S
C1760 C1761 1.524 . S
C1760 C1774 1.377 . S
C1761 C1760 1.524 . S
C1761 C1762 1.397 . S
C1761 C1766 1.363 . S
C1762 H1739 0.950 . S
C1762 C1761 1.397 . S
C1762 C1763 1.334 . S
C1763 H1740 0.950 . S
C1763 C1762 1.334 . S
C1763 C1764 1.287 . S
C1764 C1763 1.287 . S
C1764 C1765 1.524 . S
C1764 H1783 0.913 . S
C1765 H1741 0.950 . S
C1765 C1764 1.524 . S
C1765 C1766 1.415 . S
C1766 H1742 0.950 . S
C1766 C1761 1.363 . S
C1766 C1765 1.415 . S
C1767 H1743 0.951 . S
C1767 C1768 1.366 . S
C1767 C1769 1.388 . S
C1768 C1767 1.366 . S
C1768 C1772 1.385 . S
C1769 H1744 0.951 . S
C1769 C1767 1.388 . S
C1769 C1770 1.366 . S
C1770 C1769 1.366 . S
C1770 C1771 1.414 . S
C1770 C1773 1.499 . S
C1771 H1745 0.950 . S
C1771 C1770 1.414 . S
C1771 C1772 1.374 . S
C1772 H1746 0.950 . S
C1772 C1768 1.385 . S
C1772 C1771 1.374 . S
C1773 C1770 1.499 . S
C1773 C1774 1.373 . S
C1773 C1775 1.389 . S
C1774 H1747 0.950 . S
C1774 C1760 1.377 . S
C1774 C1773 1.373 . S
C1775 C1759 1.377 . S
C1775 C1773 1.389 . S
C1775 C1776 1.524 . S
C1776 C1775 1.524 . S
C1776 C1777 1.397 . S
C1776 C1781 1.363 . S
C1777 H1748 0.950 . S
C1777 C1776 1.397 . S
C1777 C1778 1.334 . S
C1778 H1749 0.950 . S
C1778 C1777 1.334 . S
C1778 C1779 1.287 . S
C1779 C1778 1.287 . S
C1779 C1780 1.524 . S
C1779 H1782 0.999 . S
C1780 H1750 0.950 . S
C1780 C1779 1.524 . S
C1780 C1781 1.415 . S
C1781 H1751 0.950 . S
C1781 C1776 1.363 . S
C1781 C1780 1.415 . S
H1782 C1779 0.999 . S
H1783 C1764 0.913 . S
H1784 C1802 0.951 . S
H1785 C1804 0.951 . S
H1786 C1806 0.950 . S
H1787 C1807 0.950 . S
H1788 C1809 0.950 . S
H1789 C1812 0.950 . S
H1790 C1813 0.950 . S
H1791 C1815 0.950 . S
H1792 C1816 0.950 . S
H1793 C1817 0.951 . S
H1794 C1819 0.951 . S
H1795 C1821 0.950 . S
H1796 C1822 0.950 . S
H1797 C1824 0.950 . S
H1798 C1827 0.950 1_565 S
H1799 C1828 0.937 1_565 S
H1800 C1830 0.950 . S
H1801 C1831 0.950 . S
C1802 H1784 0.951 . S
C1802 C1803 1.366 . S
C1802 C1804 1.388 . S
C1803 C1802 1.366 . S
C1803 C1807 1.385 . S
C1804 H1785 0.951 . S
C1804 C1802 1.388 . S
C1804 C1805 1.366 . S
C1805 C1804 1.366 . S
C1805 C1806 1.414 . S
C1805 C1808 1.499 . S
C1806 H1786 0.950 . S
C1806 C1805 1.414 . S
C1806 C1807 1.374 . S
C1807 H1787 0.950 . S
C1807 C1803 1.385 . S
C1807 C1806 1.374 . S
C1808 C1805 1.499 . S
C1808 C1809 1.373 . S
C1808 C1810 1.389 . S
C1809 H1788 0.950 . S
C1809 C1808 1.373 . S
C1809 C1825 1.377 . S
C1810 C1808 1.389 . S
C1810 C1811 1.524 . S
C1810 C1824 1.377 1_545 S
C1811 C1810 1.524 . S
C1811 C1812 1.397 . S
C1811 C1816 1.363 . S
C1812 H1789 0.950 . S
C1812 C1811 1.397 . S
C1812 C1813 1.334 . S
C1813 H1790 0.950 . S
C1813 C1812 1.334 . S
C1813 C1814 1.287 . S
C1814 C1813 1.287 . S
C1814 C1815 1.524 . S
C1814 H1833 0.913 . S
C1815 H1791 0.950 . S
C1815 C1814 1.524 . S
C1815 C1816 1.415 . S
C1816 H1792 0.950 . S
C1816 C1811 1.363 . S
C1816 C1815 1.415 . S
C1817 H1793 0.951 . S
C1817 C1818 1.366 . S
C1817 C1819 1.388 . S
C1818 C1817 1.366 . S
C1818 C1822 1.385 . S
C1819 H1794 0.951 . S
C1819 C1817 1.388 . S
C1819 C1820 1.366 . S
C1820 C1819 1.366 . S
C1820 C1821 1.414 . S
C1820 C1823 1.499 . S
C1821 H1795 0.950 . S
C1821 C1820 1.414 . S
C1821 C1822 1.374 . S
C1822 H1796 0.950 . S
C1822 C1818 1.385 . S
C1822 C1821 1.374 . S
C1823 C1820 1.499 . S
C1823 C1824 1.373 . S
C1823 C1825 1.389 1_565 S
C1824 H1797 0.950 . S
C1824 C1810 1.377 1_565 S
C1824 C1823 1.373 . S
C1825 C1809 1.377 . S
C1825 C1823 1.389 1_545 S
C1825 C1826 1.524 . S
C1826 C1825 1.524 . S
C1826 C1827 1.397 . S
C1826 C1831 1.363 . S
C1827 H1798 0.950 1_545 S
C1827 C1826 1.397 . S
C1827 C1828 1.332 . S
C1828 H1799 0.937 1_545 S
C1828 C1827 1.332 . S
C1828 C1829 1.303 . S
C1829 C1828 1.303 . S
C1829 C1830 1.524 . S
C1829 H1832 0.999 . S
C1830 H1800 0.950 . S
C1830 C1829 1.524 . S
C1830 C1831 1.415 . S
C1831 H1801 0.950 . S
C1831 C1826 1.363 . S
C1831 C1830 1.415 . S
H1832 C1829 0.999 . S
H1833 C1814 0.913 . S
H1834 C1852 0.951 . S
H1835 C1854 0.951 . S
H1836 C1856 0.950 . S
H1837 C1857 0.950 . S
H1838 C1859 0.950 . S
H1839 C1862 0.950 . S
H1840 C1863 0.950 . S
H1841 C1865 0.950 . S
H1842 C1866 0.950 . S
H1843 C1867 0.951 . S
H1844 C1869 0.951 . S
H1845 C1871 0.950 . S
H1846 C1872 0.950 . S
H1847 C1874 0.948 . S
H1848 C1877 0.950 . S
H1849 C1878 0.950 . S
H1850 C1880 0.950 . S
H1851 C1881 0.950 . S
C1852 H1834 0.951 . S
C1852 C1853 1.366 . S
C1852 C1854 1.388 . S
C1853 C1852 1.366 . S
C1853 C1857 1.385 . S
C1854 H1835 0.951 . S
C1854 C1852 1.388 . S
C1854 C1855 1.366 . S
C1855 C1854 1.366 . S
C1855 C1856 1.414 . S
C1855 C1858 1.499 . S
C1856 H1836 0.950 . S
C1856 C1855 1.414 . S
C1856 C1857 1.374 . S
C1857 H1837 0.950 . S
C1857 C1853 1.385 . S
C1857 C1856 1.374 . S
C1858 C1855 1.499 . S
C1858 C1859 1.373 . S
C1858 C1860 1.389 . S
C1859 H1838 0.950 . S
C1859 C1858 1.373 . S
C1859 C1875 1.377 1_455 S
C1860 C1858 1.389 . S
C1860 C1861 1.524 . S
C1860 C1874 1.357 1_455 S
C1861 C1860 1.524 . S
C1861 C1862 1.397 . S
C1861 C1866 1.363 . S
C1862 H1839 0.950 . S
C1862 C1861 1.397 . S
C1862 C1863 1.334 . S
C1863 H1840 0.950 . S
C1863 C1862 1.334 . S
C1863 C1864 1.287 . S
C1864 C1863 1.287 . S
C1864 C1865 1.524 . S
C1864 H1883 0.913 . S
C1865 H1841 0.950 . S
C1865 C1864 1.524 . S
C1865 C1866 1.415 . S
C1866 H1842 0.950 . S
C1866 C1861 1.363 . S
C1866 C1865 1.415 . S
C1867 H1843 0.951 . S
C1867 C1868 1.366 . S
C1867 C1869 1.388 . S
C1868 C1867 1.366 . S
C1868 C1872 1.385 . S
C1869 H1844 0.951 . S
C1869 C1867 1.388 . S
C1869 C1870 1.366 . S
C1870 C1869 1.366 . S
C1870 C1871 1.414 . S
C1870 C1873 1.499 . S
C1871 H1845 0.950 . S
C1871 C1870 1.414 . S
C1871 C1872 1.374 . S
C1872 H1846 0.950 . S
C1872 C1868 1.385 . S
C1872 C1871 1.374 . S
C1873 C1870 1.499 . S
C1873 C1874 1.395 . S
C1873 C1875 1.389 . S
C1874 H1847 0.948 . S
C1874 C1860 1.357 1_655 S
C1874 C1873 1.395 . S
C1875 C1859 1.377 1_655 S
C1875 C1873 1.389 . S
C1875 C1876 1.524 . S
C1876 C1875 1.524 . S
C1876 C1877 1.397 . S
C1876 C1881 1.363 . S
C1877 H1848 0.950 . S
C1877 C1876 1.397 . S
C1877 C1878 1.334 . S
C1878 H1849 0.950 . S
C1878 C1877 1.334 . S
C1878 C1879 1.287 . S
C1879 C1878 1.287 . S
C1879 C1880 1.524 . S
C1879 H1882 0.999 . S
C1880 H1850 0.950 . S
C1880 C1879 1.524 . S
C1880 C1881 1.415 . S
C1881 H1851 0.950 . S
C1881 C1876 1.363 . S
C1881 C1880 1.415 . S
H1882 C1879 0.999 . S
H1883 C1864 0.913 . S
H1884 C1902 0.951 . S
H1885 C1904 0.951 . S
H1886 C1906 0.950 . S
H1887 C1907 0.950 . S
H1888 C1909 0.950 . S
H1889 C1912 0.950 . S
H1890 C1913 0.950 . S
H1891 C1915 0.950 . S
H1892 C1916 0.950 . S
H1893 C1917 0.951 . S
H1894 C1919 0.951 . S
H1895 C1921 0.950 . S
H1896 C1922 0.950 . S
H1897 C1924 0.950 . S
H1898 C1927 0.950 . S
H1899 C1928 0.950 . S
H1900 C1930 0.950 . S
H1901 C1931 0.950 . S
C1902 H1884 0.951 . S
C1902 C1903 1.366 . S
C1902 C1904 1.388 . S
C1903 C1902 1.366 . S
C1903 C1907 1.385 . S
C1904 H1885 0.951 . S
C1904 C1902 1.388 . S
C1904 C1905 1.366 . S
C1905 C1904 1.366 . S
C1905 C1906 1.414 . S
C1905 C1908 1.499 . S
C1906 H1886 0.950 . S
C1906 C1905 1.414 . S
C1906 C1907 1.374 . S
C1907 H1887 0.950 . S
C1907 C1903 1.385 . S
C1907 C1906 1.374 . S
C1908 C1905 1.499 . S
C1908 C1909 1.373 . S
C1908 C1910 1.389 . S
C1909 H1888 0.950 . S
C1909 C1908 1.373 . S
C1909 C1925 1.377 . S
C1910 C1908 1.389 . S
C1910 C1911 1.524 . S
C1910 C1924 1.377 . S
C1911 C1910 1.524 . S
C1911 C1912 1.397 . S
C1911 C1916 1.363 . S
C1912 H1889 0.950 . S
C1912 C1911 1.397 . S
C1912 C1913 1.334 . S
C1913 H1890 0.950 . S
C1913 C1912 1.334 . S
C1913 C1914 1.287 . S
C1914 C1913 1.287 . S
C1914 C1915 1.524 . S
C1914 H1933 0.913 . S
C1915 H1891 0.950 . S
C1915 C1914 1.524 . S
C1915 C1916 1.415 . S
C1916 H1892 0.950 . S
C1916 C1911 1.363 . S
C1916 C1915 1.415 . S
C1917 H1893 0.951 . S
C1917 C1918 1.366 . S
C1917 C1919 1.388 . S
C1918 C1917 1.366 . S
C1918 C1922 1.385 . S
C1919 H1894 0.951 . S
C1919 C1917 1.388 . S
C1919 C1920 1.366 . S
C1920 C1919 1.366 . S
C1920 C1921 1.414 . S
C1920 C1923 1.499 . S
C1921 H1895 0.950 . S
C1921 C1920 1.414 . S
C1921 C1922 1.374 . S
C1922 H1896 0.950 . S
C1922 C1918 1.385 . S
C1922 C1921 1.374 . S
C1923 C1920 1.499 . S
C1923 C1924 1.373 . S
C1923 C1925 1.389 . S
C1924 H1897 0.950 . S
C1924 C1910 1.377 . S
C1924 C1923 1.373 . S
C1925 C1909 1.377 . S
C1925 C1923 1.389 . S
C1925 C1926 1.524 . S
C1926 C1925 1.524 . S
C1926 C1927 1.397 . S
C1926 C1931 1.363 . S
C1927 H1898 0.950 . S
C1927 C1926 1.397 . S
C1927 C1928 1.334 . S
C1928 H1899 0.950 . S
C1928 C1927 1.334 . S
C1928 C1929 1.287 . S
C1929 C1928 1.287 . S
C1929 C1930 1.524 . S
C1929 H1932 0.999 . S
C1930 H1900 0.950 . S
C1930 C1929 1.524 . S
C1930 C1931 1.415 . S
C1931 H1901 0.950 . S
C1931 C1926 1.363 . S
C1931 C1930 1.415 . S
H1932 C1929 0.999 . S
H1933 C1914 0.913 . S
H1934 C1952 0.951 . S
H1935 C1954 0.951 . S
H1936 C1956 0.950 . S
H1937 C1957 0.950 . S
H1938 C1959 0.950 . S
H1939 C1962 0.950 . S
H1940 C1963 0.950 . S
H1941 C1965 0.950 . S
H1942 C1966 0.950 . S
H1943 C1967 0.951 . S
H1944 C1969 0.951 . S
H1945 C1971 0.950 . S
H1946 C1972 0.950 . S
H1947 C1974 0.950 . S
H1948 C1977 0.950 1_565 S
H1949 C1978 0.950 1_565 S
H1950 C1980 0.950 . S
H1951 C1981 0.950 . S
C1952 H1934 0.951 . S
C1952 C1953 1.366 . S
C1952 C1954 1.388 . S
C1953 C1952 1.366 . S
C1953 C1957 1.385 . S
C1954 H1935 0.951 . S
C1954 C1952 1.388 . S
C1954 C1955 1.366 . S
C1955 C1954 1.366 . S
C1955 C1956 1.414 . S
C1955 C1958 1.499 . S
C1956 H1936 0.950 . S
C1956 C1955 1.414 . S
C1956 C1957 1.374 . S
C1957 H1937 0.950 . S
C1957 C1953 1.385 . S
C1957 C1956 1.374 . S
C1958 C1955 1.499 . S
C1958 C1959 1.373 . S
C1958 C1960 1.389 . S
C1959 H1938 0.950 . S
C1959 C1958 1.373 . S
C1959 C1975 1.377 . S
C1960 C1958 1.389 . S
C1960 C1961 1.524 . S
C1960 C1974 1.377 1_545 S
C1961 C1960 1.524 . S
C1961 C1962 1.397 . S
C1961 C1966 1.363 . S
C1962 H1939 0.950 . S
C1962 C1961 1.397 . S
C1962 C1963 1.334 . S
C1963 H1940 0.950 . S
C1963 C1962 1.334 . S
C1963 C1964 1.287 . S
C1964 C1963 1.287 . S
C1964 C1965 1.524 . S
C1964 H1983 0.913 . S
C1965 H1941 0.950 . S
C1965 C1964 1.524 . S
C1965 C1966 1.415 . S
C1966 H1942 0.950 . S
C1966 C1961 1.363 . S
C1966 C1965 1.415 . S
C1967 H1943 0.951 . S
C1967 C1968 1.366 . S
C1967 C1969 1.388 . S
C1968 C1967 1.366 . S
C1968 C1972 1.385 . S
C1969 H1944 0.951 . S
C1969 C1967 1.388 . S
C1969 C1970 1.366 . S
C1970 C1969 1.366 . S
C1970 C1971 1.414 . S
C1970 C1973 1.499 . S
C1971 H1945 0.950 . S
C1971 C1970 1.414 . S
C1971 C1972 1.374 . S
C1972 H1946 0.950 . S
C1972 C1968 1.385 . S
C1972 C1971 1.374 . S
C1973 C1970 1.499 . S
C1973 C1974 1.373 . S
C1973 C1975 1.389 1_565 S
C1974 H1947 0.950 . S
C1974 C1960 1.377 1_565 S
C1974 C1973 1.373 . S
C1975 C1959 1.377 . S
C1975 C1973 1.389 1_545 S
C1975 C1976 1.524 . S
C1976 C1975 1.524 . S
C1976 C1977 1.397 . S
C1976 C1981 1.363 . S
C1977 H1948 0.950 1_545 S
C1977 C1976 1.397 . S
C1977 C1978 1.334 . S
C1978 H1949 0.950 1_545 S
C1978 C1977 1.334 . S
C1978 C1979 1.287 . S
C1979 C1978 1.287 . S
C1979 C1980 1.524 . S
C1979 H1982 0.999 . S
C1980 H1950 0.950 . S
C1980 C1979 1.524 . S
C1980 C1981 1.415 . S
C1981 H1951 0.950 . S
C1981 C1976 1.363 . S
C1981 C1980 1.415 . S
H1982 C1979 0.999 . S
H1983 C1964 0.913 . S
H1984 C2002 0.951 . S
H1985 C2004 0.951 . S
H1986 C2006 0.950 . S
H1987 C2007 0.950 . S
H1988 C2009 0.950 . S
H1989 C2012 0.950 . S
H1990 C2013 0.950 . S
H1991 C2015 0.950 . S
H1992 C2016 0.950 . S
H1993 C2017 0.951 . S
H1994 C2019 0.951 . S
H1995 C2021 0.950 . S
H1996 C2022 0.950 . S
H1997 C2024 0.950 . S
H1998 C2027 0.950 . S
H1999 C2028 0.950 . S
H2000 C2030 0.950 . S
H2001 C2031 0.950 . S
C2002 H1984 0.951 . S
C2002 C2003 1.366 . S
C2002 C2004 1.388 . S
C2003 C2002 1.366 . S
C2003 C2007 1.385 . S
C2004 H1985 0.951 . S
C2004 C2002 1.388 . S
C2004 C2005 1.366 . S
C2005 C2004 1.366 . S
C2005 C2006 1.414 . S
C2005 C2008 1.499 . S
C2006 H1986 0.950 . S
C2006 C2005 1.414 . S
C2006 C2007 1.374 . S
C2007 H1987 0.950 . S
C2007 C2003 1.385 . S
C2007 C2006 1.374 . S
C2008 C2005 1.499 . S
C2008 C2009 1.373 . S
C2008 C2010 1.389 . S
C2009 H1988 0.950 . S
C2009 C2008 1.373 . S
C2009 C2025 1.377 . S
C2010 C2008 1.389 . S
C2010 C2011 1.524 . S
C2010 C2024 1.377 1_455 S
C2011 C2010 1.524 . S
C2011 C2012 1.397 . S
C2011 C2016 1.363 1_455 S
C2012 H1989 0.950 . S
C2012 C2011 1.397 . S
C2012 C2013 1.334 . S
C2013 H1990 0.950 . S
C2013 C2012 1.334 . S
C2013 C2014 1.287 . S
C2014 C2013 1.287 . S
C2014 C2015 1.524 1_455 S
C2014 H2033 0.913 . S
C2015 H1991 0.950 . S
C2015 C2014 1.524 1_655 S
C2015 C2016 1.415 . S
C2016 H1992 0.950 . S
C2016 C2011 1.363 1_655 S
C2016 C2015 1.415 . S
C2017 H1993 0.951 . S
C2017 C2018 1.366 . S
C2017 C2019 1.388 . S
C2018 C2017 1.366 . S
C2018 C2022 1.385 . S
C2019 H1994 0.951 . S
C2019 C2017 1.388 . S
C2019 C2020 1.366 . S
C2020 C2019 1.366 . S
C2020 C2021 1.414 . S
C2020 C2023 1.499 . S
C2021 H1995 0.950 . S
C2021 C2020 1.414 . S
C2021 C2022 1.374 . S
C2022 H1996 0.950 . S
C2022 C2018 1.385 . S
C2022 C2021 1.374 . S
C2023 C2020 1.499 . S
C2023 C2024 1.373 . S
C2023 C2025 1.389 1_655 S
C2024 H1997 0.950 . S
C2024 C2010 1.377 1_655 S
C2024 C2023 1.373 . S
C2025 C2009 1.377 . S
C2025 C2023 1.389 1_455 S
C2025 C2026 1.523 . S
C2026 C2025 1.523 . S
C2026 C2027 1.374 1_455 S
C2026 C2031 1.388 . S
C2027 H1998 0.950 . S
C2027 C2026 1.374 1_655 S
C2027 C2028 1.334 . S
C2028 H1999 0.950 . S
C2028 C2027 1.334 . S
C2028 C2029 1.292 . S
C2029 C2028 1.292 . S
C2029 C2030 1.519 1_655 S
C2029 H2032 1.001 . S
C2030 H2000 0.950 . S
C2030 C2029 1.519 1_455 S
C2030 C2031 1.415 . S
C2031 H2001 0.950 . S
C2031 C2026 1.388 . S
C2031 C2030 1.415 . S
H2032 C2029 1.001 . S
H2033 C2014 0.913 . S
C253 C57 0.907 . S
C268 C10 0.909 . S
C303 C70 0.908 . S
C318 C23 0.910 . S
C353 C29 0.900 . S
C368 C44 0.892 . S
C403 C62 0.921 . S
C418 C5 0.917 . S
C453 C75 0.920 . S
C468 C18 0.918 . S
C503 C27 0.960 . S
C518 C49 0.958 . S
C553 C131 0.904 . S
C568 C83 0.899 . S
C603 C144 0.903 . S
C618 C94 0.900 . S
C653 C107 0.916 . S
C668 C127 0.917 . S
C703 C88 0.926 . S
C718 C133 0.922 . S
C753 C146 0.922 . S
C768 C92 0.923 . S
C803 C122 0.907 . S
C818 C105 0.906 . S
C853 C209 0.906 . S
C868 C161 0.901 . S
C903 C172 0.904 . S
C918 C222 0.907 . S
C953 C205 0.920 . S
C968 C185 0.921 . S
C1003 C211 0.924 . S
C1018 C166 0.929 . S
C1053 C224 0.925 . S
C1068 C170 0.927 . S
C1103 C183 0.911 . S
C1118 C200 0.911 . S
C1153 C1 1.551 . S
C1168 C118 1.553 . S
C1203 C140 1.552 . S
C1218 C14 1.551 . S
C1253 C153 1.547 . S
C1268 C31 1.553 . S
C1303 C42 1.540 . S
C1318 C159 1.549 . S
C1353 C174 1.544 . S
C1368 C55 1.545 . S
C1403 C187 1.545 . S
C1418 C68 1.546 . S
C1453 C198 1.546 . S
C1468 C3 1.542 . S
C1503 C213 1.546 . S
C1518 C16 1.544 . S
C1553 C226 1.551 . S
C1568 C36 1.559 . S
C1603 C40 1.559 . S
C1618 C79 1.565 . S
C1653 C53 1.555 . S
C1668 C101 1.553 . S
C1703 C114 1.553 . S
C1718 C66 1.555 . S
C1753 C196 1.554 . S
C1768 C81 1.552 . S
C1803 C218 1.548 . S
C1818 C96 1.541 . S
C1853 C109 1.546 . S
C1868 C231 1.553 . S
C1903 C157 1.555 . S
C1918 C120 1.545 . S
C1953 C179 1.551 . S
C1968 C135 1.546 . S
C2003 C148 1.543 . S
C2018 C192 1.547 . S
