# Generated by pormake.
# Topology zfs, (5)-cn, num edge types: 1
# Building blocks:
#     Node 0, Type 0, BuildingBlock: XOMCOT_clean_sbu_1, # of connection points: 5
#     Node 1, Type 0, BuildingBlock: XOMCOT_clean_sbu_1, # of connection points: 5
#     Node 2, Type 0, BuildingBlock: XOMCOT_clean_sbu_1, # of connection points: 5
#     Node 3, Type 0, BuildingBlock: XOMCOT_clean_sbu_1, # of connection points: 5
#     Node 4, Type 0, BuildingBlock: XOMCOT_clean_sbu_1, # of connection points: 5
#     Node 5, Type 0, BuildingBlock: XOMCOT_clean_sbu_1, # of connection points: 5
#     Node 6, Type 0, BuildingBlock: XOMCOT_clean_sbu_1, # of connection points: 5
#     Node 7, Type 0, BuildingBlock: XOMCOT_clean_sbu_1, # of connection points: 5
#     Edge 8, Type (0, 0), BuildingBlock: MIFKUJ_clean_linker_0, # of connection points: 2
#     Edge 9, Type (0, 0), BuildingBlock: MIFKUJ_clean_linker_0, # of connection points: 2
#     Edge 10, Type (0, 0), BuildingBlock: MIFKUJ_clean_linker_0, # of connection points: 2
#     Edge 11, Type (0, 0), BuildingBlock: MIFKUJ_clean_linker_0, # of connection points: 2
#     Edge 12, Type (0, 0), BuildingBlock: MIFKUJ_clean_linker_0, # of connection points: 2
#     Edge 13, Type (0, 0), BuildingBlock: MIFKUJ_clean_linker_0, # of connection points: 2
#     Edge 14, Type (0, 0), BuildingBlock: MIFKUJ_clean_linker_0, # of connection points: 2
#     Edge 15, Type (0, 0), BuildingBlock: MIFKUJ_clean_linker_0, # of connection points: 2
#     Edge 16, Type (0, 0), BuildingBlock: MIFKUJ_clean_linker_0, # of connection points: 2
#     Edge 17, Type (0, 0), BuildingBlock: MIFKUJ_clean_linker_0, # of connection points: 2
#     Edge 18, Type (0, 0), BuildingBlock: MIFKUJ_clean_linker_0, # of connection points: 2
#     Edge 19, Type (0, 0), BuildingBlock: MIFKUJ_clean_linker_0, # of connection points: 2
#     Edge 20, Type (0, 0), BuildingBlock: MIFKUJ_clean_linker_0, # of connection points: 2
#     Edge 21, Type (0, 0), BuildingBlock: MIFKUJ_clean_linker_0, # of connection points: 2
#     Edge 22, Type (0, 0), BuildingBlock: MIFKUJ_clean_linker_0, # of connection points: 2
#     Edge 23, Type (0, 0), BuildingBlock: MIFKUJ_clean_linker_0, # of connection points: 2
#     Edge 24, Type (0, 0), BuildingBlock: MIFKUJ_clean_linker_0, # of connection points: 2
#     Edge 25, Type (0, 0), BuildingBlock: MIFKUJ_clean_linker_0, # of connection points: 2
#     Edge 26, Type (0, 0), BuildingBlock: MIFKUJ_clean_linker_0, # of connection points: 2
#     Edge 27, Type (0, 0), BuildingBlock: MIFKUJ_clean_linker_0, # of connection points: 2
# Relax obj value: 0.132
# Max RMSD: 0.149
# Mean RMSD: 0.149
data_MOF--net-zfs--node1-XOMCOT_clean_sbu_1--edge1-MIFKUJ_clean_linker_0
_symmetry_space_group_name_H-M    P1
_symmetry_Int_Tables_number       1
_symmetry_cell_setting            triclinic
loop_
_symmetry_equiv_pos_as_xyz
'x, y, z'
_cell_length_a     44.022711
_cell_length_b     44.110441
_cell_length_c     50.884887
_cell_angle_alpha  89.944435
_cell_angle_beta   90.027408
_cell_angle_gamma 89.927467
loop_
_atom_site_label
_atom_site_type_symbol
_atom_site_fract_x
_atom_site_fract_y
_atom_site_fract_z
_atom_type_partial_charge
C0 C 0.09249 0.26247 0.23395 0.0
C1 C 0.11138 0.25607 0.25473 0.0
N2 N 0.10138 0.23053 0.26643 0.0
N3 N 0.07063 0.24117 0.2327 0.0
C4 C 0.07668 0.22193 0.25262 0.0
H5 H 0.09458 0.28132 0.22046 0.0
Co6 Co 0.0409 0.23885 0.20714 0.0
C7 C 0.98789 0.2255 0.24241 0.0
O8 O 0.97372 0.25027 0.23487 0.0
N9 N 0.01213 0.2361 0.18027 0.0
C10 C 0.97433 0.22849 0.15204 0.0
C11 C 0.98276 0.22765 0.1781 0.0
C12 C 0.02112 0.24083 0.15531 0.0
N13 N 0.99862 0.23692 0.13767 0.0
O14 O 0.05654 0.20011 0.19608 0.0
H15 H 0.96834 0.22014 0.19389 0.0
H16 H 0.04423 0.24668 0.15038 0.0
O17 O 0.01365 0.21869 0.23239 0.0
C18 C 0.08059 0.20302 0.18234 0.0
O19 O 0.0921 0.23032 0.17958 0.0
N20 N 0.02763 0.27851 0.21642 0.0
C21 C 0.02035 0.34049 0.22686 0.0
C22 C 0.02015 0.31919 0.24739 0.0
C23 C 0.02429 0.28832 0.24178 0.0
C24 C 0.02788 0.29912 0.1964 0.0
C25 C 0.02371 0.32992 0.2011 0.0
H26 H 0.02608 0.27246 0.25792 0.0
H27 H 0.03303 0.2922 0.17664 0.0
H28 H 0.06373 0.20155 0.25642 0.0
H29 H 0.13085 0.26928 0.2608 0.0
H30 H 0.95209 0.22293 0.14442 0.0
H31 H 0.01832 0.3264 0.26766 0.0
H32 H 0.02406 0.34545 0.1846 0.0
C33 C 0.73981 0.08972 0.47962 0.0
C34 C 0.74501 0.10866 0.50058 0.0
N35 N 0.76991 0.09867 0.51336 0.0
N36 N 0.76128 0.06793 0.47933 0.0
C37 C 0.77943 0.07407 0.49997 0.0
H38 H 0.72148 0.09151 0.46554 0.0
Co39 Co 0.76423 0.03724 0.45481 0.0
C40 C 0.7807 0.98696 0.49245 0.0
O41 O 0.7563 0.97114 0.48676 0.0
N42 N 0.76744 0.00764 0.42896 0.0
C43 C 0.77481 0.96907 0.40162 0.0
C44 C 0.775 0.97801 0.42757 0.0
C45 C 0.76358 0.01618 0.40379 0.0
N46 N 0.76752 0.99324 0.38665 0.0
O47 O 0.80249 0.0532 0.44293 0.0
H48 H 0.78122 0.96372 0.44387 0.0
H49 H 0.75834 0.03928 0.39834 0.0
O50 O 0.78581 0.01201 0.48062 0.0
C51 C 0.80113 0.0776 0.42953 0.0
O52 O 0.77464 0.09092 0.42648 0.0
N53 N 0.72526 0.02307 0.4652 0.0
C54 C 0.66403 0.0132 0.47757 0.0
C55 C 0.68596 0.0155 0.49749 0.0
C56 C 0.71637 0.02086 0.49091 0.0
C57 C 0.7041 0.02083 0.44569 0.0
C58 C 0.67362 0.01544 0.45139 0.0
H59 H 0.7326 0.0244 0.50656 0.0
H60 H 0.71034 0.02469 0.4255 0.0
H61 H 0.79952 0.06107 0.50482 0.0
H62 H 0.73132 0.128 0.50616 0.0
H63 H 0.77986 0.94653 0.39448 0.0
H64 H 0.6795 0.01464 0.51801 0.0
H65 H 0.65754 0.01387 0.43533 0.0
C66 C 0.92849 0.75012 0.71978 0.0
C67 C 0.91017 0.75732 0.74073 0.0
N68 N 0.92221 0.78153 0.75308 0.0
N69 N 0.95205 0.76955 0.71905 0.0
C70 C 0.94752 0.78858 0.73941 0.0
H71 H 0.92489 0.73196 0.70586 0.0
Co72 Co 0.98245 0.76949 0.69386 0.0
C73 C 0.03477 0.78191 0.73148 0.0
O74 O 0.04744 0.75534 0.72771 0.0
N75 N 0.01226 0.76953 0.66735 0.0
C76 C 0.05021 0.75685 0.64048 0.0
C77 C 0.04075 0.75798 0.66625 0.0
C78 C 0.00529 0.7756 0.64204 0.0
N79 N 0.02785 0.76812 0.62542 0.0
O80 O 0.9692 0.80929 0.68243 0.0
H81 H 0.05278 0.74769 0.68231 0.0
H82 H 0.98293 0.78249 0.63554 0.0
O83 O 0.01041 0.78898 0.71915 0.0
C84 C 0.94366 0.8096 0.67054 0.0
O85 O 0.92949 0.78373 0.66694 0.0
N86 N 0.99316 0.72937 0.70405 0.0
C87 C 0.99974 0.66769 0.71584 0.0
C88 C 0.99811 0.68932 0.73598 0.0
C89 C 0.99467 0.72005 0.72968 0.0
C90 C 0.99364 0.70837 0.68434 0.0
C91 C 0.99766 0.67759 0.68975 0.0
H92 H 0.99244 0.73631 0.74545 0.0
H93 H 0.99002 0.71533 0.66421 0.0
H94 H 0.96262 0.80709 0.74421 0.0
H95 H 0.88935 0.7459 0.74613 0.0
H96 H 0.07089 0.74654 0.6332 0.0
H97 H 0.99915 0.68251 0.75642 0.0
H98 H 0.99782 0.66151 0.67367 0.0
C99 C 0.26545 0.91817 0.97736 0.0
C100 C 0.25959 0.89896 -0.00193 0.0
N101 N 0.23397 0.90843 0.01002 0.0
N102 N 0.24384 0.93983 0.97657 0.0
C103 C 0.22483 0.93313 0.9965 0.0
H104 H 0.28424 0.91656 0.96374 0.0
Co105 Co 0.2406 0.97105 0.95232 0.0
C106 C 0.22877 0.02229 0.98949 0.0
O107 O 0.25242 0.03715 0.98041 0.0
N108 N 0.23648 1.00144 0.92681 0.0
C109 C 0.22046 0.03893 0.90089 0.0
C110 C 0.2233 0.02916 0.92648 0.0
C111 C 0.24059 0.99473 0.9012 0.0
N112 N 0.23129 0.01709 0.885 0.0
O113 O 0.20137 0.95622 0.94175 0.0
H114 H 0.21372 0.04078 0.94312 0.0
H115 H 0.24821 0.97269 0.89458 0.0
O116 O 0.22164 0.99669 0.97946 0.0
C117 C 0.20321 0.9328 0.92715 0.0
O118 O 0.23017 0.92101 0.92277 0.0
N119 N 0.28067 0.98384 0.96115 0.0
C120 C 0.34299 0.99094 0.97112 0.0
C121 C 0.322 0.9896 0.99187 0.0
C122 C 0.29101 0.98571 0.98648 0.0
C123 C 0.30087 0.98523 0.94086 0.0
C124 C 0.33185 0.9893 0.94535 0.0
H125 H 0.27548 0.98284 0.00275 0.0
H126 H 0.29346 0.9816 0.92095 0.0
H127 H 0.20479 0.94628 0.00113 0.0
H128 H 0.27289 0.87933 0.00365 0.0
H129 H 0.20973 0.05976 0.89452 0.0
H130 H 0.32953 0.99005 0.01212 0.0
H131 H 0.34705 0.99028 0.92864 0.0
C132 C 0.09088 0.74805 0.27286 0.0
C133 C 0.11114 0.756 0.25348 0.0
N134 N 0.0996 0.77985 0.24019 0.0
N135 N 0.06669 0.76674 0.27173 0.0
C136 C 0.07276 0.78602 0.25183 0.0
H137 H 0.09322 0.72938 0.28652 0.0
Co138 Co 0.03224 0.76436 0.29265 0.0
C139 C 0.9862 0.7787 0.2499 0.0
O140 O 0.97279 0.75229 0.25182 0.0
N141 N 0.99742 0.76193 0.31442 0.0
C142 C 0.9556 0.74526 0.33459 0.0
C143 C 0.97124 0.74619 0.31124 0.0
C144 C 0.99671 0.77056 0.33988 0.0
N145 N 0.97169 0.76078 0.35245 0.0
O146 O 0.04257 0.80316 0.3082 0.0
H147 H 0.96542 0.73276 0.29435 0.0
H148 H 0.01553 0.78102 0.34998 0.0
O149 O 0.00856 0.7852 0.26494 0.0
C150 C 0.06401 0.79982 0.32491 0.0
O151 O 0.07505 0.77239 0.32837 0.0
N152 N 0.02496 0.72504 0.27946 0.0
C153 C 0.01951 0.66376 0.26638 0.0
C154 C 0.02223 0.68592 0.24665 0.0
C155 C 0.02543 0.71651 0.25364 0.0
C156 C 0.02453 0.70353 0.29872 0.0
C157 C 0.02115 0.67296 0.29268 0.0
H158 H 0.02853 0.73329 0.23837 0.0
H159 H 0.02693 0.71017 0.31908 0.0
H160 H 0.05775 0.80423 0.24593 0.0
H161 H 0.13222 0.74447 0.24899 0.0
H162 H 0.93545 0.73204 0.33873 0.0
H163 H 0.02187 0.67971 0.22607 0.0
H164 H 0.02057 0.65656 0.30854 0.0
C165 C 0.26778 0.07991 0.52381 0.0
C166 C 0.26238 0.09973 0.50343 0.0
N167 N 0.23666 0.09108 0.49117 0.0
N168 N 0.24568 0.05881 0.52417 0.0
C169 C 0.22698 0.06631 0.50425 0.0
H170 H 0.28658 0.08074 0.53749 0.0
Co171 Co 0.24191 0.027 0.5477 0.0
C172 C 0.22365 0.97797 0.50955 0.0
O173 O 0.24768 0.96166 0.51522 0.0
N174 N 0.23781 0.99497 0.57241 0.0
C175 C 0.24288 0.95316 0.59683 0.0
C176 C 0.25005 0.96679 0.57331 0.0
C177 C 0.22366 0.99773 0.59585 0.0
N178 N 0.22617 0.97277 0.61096 0.0
O179 O 0.20413 0.04432 0.55989 0.0
H180 H 0.26545 0.95737 0.55904 0.0
H181 H 0.21355 0.01846 0.60282 0.0
O182 O 0.21941 0.0034 0.52103 0.0
C183 C 0.20855 0.06719 0.57477 0.0
O184 O 0.2367 0.076 0.57875 0.0
N185 N 0.28043 0.01274 0.5371 0.0
C186 C 0.34183 0.00339 0.52554 0.0
C187 C 0.32013 0.0051 0.50535 0.0
C188 C 0.28956 0.01018 0.51152 0.0
C189 C 0.30134 0.01172 0.55687 0.0
C190 C 0.33198 0.00649 0.55159 0.0
H191 H 0.27342 0.01328 0.49572 0.0
H192 H 0.29435 0.01607 0.57689 0.0
H193 H 0.20678 0.05363 0.49928 0.0
H194 H 0.27612 0.11919 0.49831 0.0
H195 H 0.25073 0.93121 0.60351 0.0
H196 H 0.3268 0.00327 0.48493 0.0
H197 H 0.34801 0.00642 0.56774 0.0
C198 C 0.92018 0.27093 0.76692 0.0
C199 C 0.89991 0.26445 0.74714 0.0
N200 N 0.90852 0.23823 0.73575 0.0
N201 N 0.94158 0.24908 0.7677 0.0
C202 C 0.93377 0.22937 0.74868 0.0
H203 H 0.91938 0.29021 0.78003 0.0
Co204 Co 0.97315 0.24647 0.79147 0.0
C205 C 0.02417 0.22986 0.7557 0.0
O206 O 0.03997 0.25314 0.76422 0.0
N207 N 1.00376 0.24329 0.81681 0.0
C208 C 0.04083 0.22841 0.84368 0.0
C209 C 0.03017 0.22769 0.81826 0.0
C210 C 0.99837 0.25202 0.84176 0.0
N211 N 0.02064 0.24368 0.85847 0.0
O212 O 0.95714 0.20851 0.80417 0.0
H213 H 0.04003 0.21425 0.80278 0.0
H214 H 0.9776 0.26321 0.84764 0.0
O215 O 0.99783 0.22465 0.76528 0.0
C216 C 0.93384 0.21131 0.81885 0.0
O217 O 0.92305 0.23868 0.82306 0.0
N218 N 0.98733 0.2852 0.77991 0.0
C219 C 0.99814 0.34533 0.76461 0.0
C220 C 0.99454 0.32246 0.74575 0.0
C221 C 0.98911 0.29257 0.75379 0.0
C222 C 0.99034 0.30746 0.79837 0.0
C223 C 0.99636 0.3374 0.7912 0.0
H224 H 0.98514 0.27553 0.73893 0.0
H225 H 0.98652 0.30272 0.81881 0.0
H226 H 0.94644 0.20895 0.74437 0.0
H227 H 0.88011 0.2777 0.7419 0.0
H228 H 0.06065 0.21658 0.85103 0.0
H229 H 0.99535 0.32773 0.72497 0.0
H230 H 0.99797 0.35453 0.80638 0.0
C231 C 0.74897 0.91661 0.01139 0.0
C232 C 0.7571 0.89882 0.99034 0.0
N233 N 0.78242 0.91061 0.97949 0.0
N234 N 0.76898 0.93955 0.01363 0.0
C235 C 0.78922 0.93513 0.99415 0.0
H236 H 0.7296 0.91328 0.02414 0.0
Co237 Co 0.76863 0.96999 0.03858 0.0
C238 C 0.77973 0.02298 0.00294 0.0
O239 O 0.75493 0.03656 0.01126 0.0
N240 N 0.76898 0.99965 0.0647 0.0
C241 C 0.7781 0.03785 0.09216 0.0
C242 C 0.77953 0.02837 0.06642 0.0
C243 C 0.76252 0.99196 0.0897 0.0
N244 N 0.76746 0.01476 0.10675 0.0
O245 O 0.80817 0.95739 0.05083 0.0
H246 H 0.78984 0.04115 0.05075 0.0
H247 H 0.75504 0.96951 0.09529 0.0
O248 O 0.78759 0.99753 0.01291 0.0
C249 C 0.80833 0.93302 0.06435 0.0
O250 O 0.78282 0.91789 0.06705 0.0
N251 N 0.72843 0.98068 0.02797 0.0
C252 C 0.66697 0.98916 0.01521 0.0
C253 C 0.68926 0.98835 0.99548 0.0
C254 C 0.7198 0.98373 0.00224 0.0
C255 C 0.70678 0.98026 0.04716 0.0
C256 C 0.67619 0.98496 0.04131 0.0
H257 H 0.73646 0.98202 0.98671 0.0
H258 H 0.71275 0.97497 0.06713 0.0
H259 H 0.80889 0.94937 0.9911 0.0
H260 H 0.74501 0.87906 0.98337 0.0
H261 H 0.78612 0.05932 0.09975 0.0
H262 H 0.68316 0.99101 0.97499 0.0
H263 H 0.65972 0.98406 0.0571 0.0
H264 H 0.98155 0.62286 0.2896 0.0
H265 H 0.9793 0.56816 0.28248 0.0
H266 H 0.04751 0.57567 0.222 0.0
H267 H 0.04982 0.6306 0.22902 0.0
H268 H 1.00348 0.53625 0.208 0.0
H269 H 0.06634 0.55262 0.28374 0.0
H270 H 0.07896 0.57286 0.32755 0.0
H271 H 0.00447 0.52357 0.36125 0.0
H272 H 0.99113 0.50337 0.31754 0.0
H273 H 0.05425 0.38488 0.20373 0.0
H274 H 0.05095 0.43948 0.21024 0.0
H275 H 0.98115 0.42636 0.26858 0.0
H276 H 0.98414 0.37128 0.26197 0.0
H277 H 0.02342 0.46837 0.28395 0.0
H278 H 0.96213 0.45023 0.20783 0.0
H279 H 0.95063 0.42971 0.16389 0.0
H280 H 0.0233 0.48208 0.13073 0.0
H281 H 0.03554 0.5026 0.17456 0.0
C282 C 0.99605 0.61288 0.27474 0.0
C283 C 0.01611 0.63103 0.26006 0.0
C284 C 0.99474 0.5816 0.2707 0.0
C285 C 0.01365 0.56771 0.25206 0.0
C286 C 0.03278 0.58589 0.23657 0.0
C287 C 0.03402 0.61729 0.24053 0.0
C288 C 0.01404 0.53416 0.24927 0.0
C289 C 0.00817 0.52142 0.22454 0.0
C290 C 0.01947 0.51475 0.27099 0.0
C291 C 0.02755 0.52673 0.29732 0.0
C292 C 0.05251 0.54628 0.30046 0.0
C293 C 0.05981 0.55772 0.32528 0.0
C294 C 0.04247 0.54957 0.34716 0.0
C295 C 0.01784 0.5299 0.34428 0.0
C296 C 0.01041 0.51843 0.31949 0.0
C297 C 0.03792 0.39353 0.21777 0.0
C298 C 0.01907 0.37369 0.23202 0.0
C299 C 0.03614 0.42481 0.22151 0.0
C300 C 0.0154 0.43707 0.23952 0.0
C301 C 0.99719 0.41737 0.25445 0.0
C302 C 0.99897 0.38593 0.2507 0.0
C303 C 0.01299 0.47047 0.24266 0.0
C304 C 0.01853 0.48319 0.26745 0.0
C305 C 0.00737 0.48986 0.22097 0.0
C306 C 0.9999 0.47776 0.19453 0.0
C307 C 0.9758 0.45721 0.19121 0.0
C308 C 0.96913 0.4456 0.16631 0.0
C309 C 0.98627 0.45453 0.14454 0.0
C310 C 0.01006 0.47516 0.14762 0.0
C311 C 0.01685 0.48682 0.17248 0.0
H312 H 0.98107 0.44551 0.12529 0.0
H313 H 0.04817 0.55845 0.36636 0.0
H314 H 0.6168 0.04288 0.45406 0.0
H315 H 0.56279 0.03873 0.46375 0.0
H316 H 0.58229 0.97466 0.5256 0.0
H317 H 0.6367 0.97802 0.51544 0.0
H318 H 0.53408 0.95659 0.49591 0.0
H319 H 0.56385 0.04656 0.54079 0.0
H320 H 0.58792 0.09662 0.5461 0.0
H321 H 0.52869 0.13395 0.4873 0.0
H322 H 0.50454 0.08399 0.48135 0.0
H323 H 0.38447 0.96873 0.55089 0.0
H324 H 0.43945 0.96829 0.54375 0.0
H325 H 0.42887 0.03183 0.47991 0.0
H326 H 0.37399 0.03289 0.48731 0.0
H327 H 0.47327 0.0491 0.51375 0.0
H328 H 0.44497 0.95785 0.46804 0.0
H329 H 0.42102 0.90763 0.46349 0.0
H330 H 0.47753 0.87267 0.52532 0.0
H331 H 0.50154 0.92283 0.53049 0.0
C332 C 0.60967 0.02761 0.46954 0.0
C333 C 0.63111 0.01063 0.48387 0.0
C334 C 0.57875 0.02552 0.47525 0.0
C335 C 0.56848 0.00664 0.49559 0.0
C336 C 0.58972 0.98945 0.50987 0.0
C337 C 0.6208 0.99155 0.50417 0.0
C338 C 0.53551 0.00494 0.50166 0.0
C339 C 0.52085 0.97674 0.50026 0.0
C340 C 0.51816 0.0313 0.50691 0.0
C341 C 0.53256 0.06144 0.51046 0.0
C342 C 0.55611 0.06538 0.52884 0.0
C343 C 0.56975 0.09375 0.53199 0.0
C344 C 0.55989 0.11843 0.517 0.0
C345 C 0.53632 0.11481 0.49887 0.0
C346 C 0.52263 0.08647 0.49562 0.0
C347 C 0.39385 0.98251 0.53526 0.0
C348 C 0.37483 1.00081 0.51964 0.0
C349 C 0.42525 0.98209 0.5311 0.0
C350 C 0.43827 0.99992 0.51121 0.0
C351 C 0.41931 0.01786 0.49534 0.0
C352 C 0.3879 0.01821 0.49943 0.0
C353 C 0.47174 1.00084 0.50756 0.0
C354 C 0.48651 0.02892 0.50952 0.0
C355 C 0.48916 0.97436 0.50297 0.0
C356 C 0.47482 0.94418 0.49984 0.0
C357 C 0.45211 0.93952 0.48082 0.0
C358 C 0.43856 0.91105 0.4781 0.0
C359 C 0.44769 0.88699 0.49416 0.0
C360 C 0.47045 0.89134 0.51292 0.0
C361 C 0.48405 0.91977 0.51574 0.0
H362 H 0.43717 0.86497 0.49202 0.0
H363 H 0.57047 0.14038 0.51947 0.0
H364 H 0.03889 0.62613 0.69495 0.0
H365 H 0.04034 0.57142 0.703 0.0
H366 H 0.9654 0.58017 0.75719 0.0
H367 H 0.96486 0.63503 0.74997 0.0
H368 H 1.00169 0.54154 0.77625 0.0
H369 H 0.95735 0.55368 0.6914 0.0
H370 H 0.95355 0.57163 0.6456 0.0
H371 H 0.0346 0.5225 0.62573 0.0
H372 H 0.03912 0.50458 0.67153 0.0
H373 H 0.96407 0.37713 0.72913 0.0
H374 H 0.96542 0.4317 0.7204 0.0
H375 H 0.04111 0.44101 0.77373 0.0
H376 H 0.03905 0.38664 0.78317 0.0
H377 H 1.00212 0.47047 0.70074 0.0
H378 H 0.03867 0.50748 0.8057 0.0
H379 H 0.03382 0.48953 0.85145 0.0
H380 H 0.9531 0.44035 0.83098 0.0
H381 H 0.95722 0.45834 0.78523 0.0
C382 C 0.02287 0.61632 0.70869 0.0
C383 C 1.00174 0.63479 0.72182 0.0
C384 C 0.02356 0.58502 0.71317 0.0
C385 C 1.00257 0.57139 0.73032 0.0
C386 C 0.98186 0.58999 0.74386 0.0
C387 C 0.98156 0.62137 0.73975 0.0
C388 C 1.00198 0.53781 0.73403 0.0
C389 C 1.00184 0.52606 0.75969 0.0
C390 C 1.00141 0.51738 0.71252 0.0
C391 C 0.99873 0.52803 0.68495 0.0
C392 C 0.97448 0.54687 0.67731 0.0
C393 C 0.97218 0.55702 0.65135 0.0
C394 C 0.99386 0.54827 0.63279 0.0
C395 C 0.01785 0.52929 0.64014 0.0
C396 C 0.02028 0.51911 0.66609 0.0
C397 C 0.98122 0.3908 0.73873 0.0
C398 C 1.00134 0.37768 0.75695 0.0
C399 C 0.98196 0.42202 0.73377 0.0
C400 C 1.00298 0.44072 0.74677 0.0
C401 C 0.02412 0.42731 0.76396 0.0
C402 C 0.02306 0.3962 0.76924 0.0
C403 C 1.00221 0.47426 0.74294 0.0
C404 C 1.0021 0.48598 0.71727 0.0
C405 C 1.00133 0.49468 0.76443 0.0
C406 C 0.99847 0.48401 0.79198 0.0
C407 C 0.01983 0.49293 0.811 0.0
C408 C 0.01722 0.48273 0.83692 0.0
C409 C 0.99323 0.46372 0.8441 0.0
C410 C 0.97174 0.45497 0.82538 0.0
C411 C 0.97422 0.46514 0.79945 0.0
H412 H 0.99127 0.45583 0.86417 0.0
H413 H 0.99204 0.55615 0.6127 0.0
H414 H 0.38796 0.96085 0.94463 0.0
H415 H 0.44253 0.96276 0.95209 0.0
H416 H 0.42879 0.02393 0.01709 0.0
H417 H 0.37388 0.02317 0.009 0.0
H418 H 0.4758 0.04208 0.98758 0.0
H419 H 0.4453 0.94873 0.02727 0.0
H420 H 0.42028 0.89882 0.02968 0.0
H421 H 0.47645 0.86615 0.9668 0.0
H422 H 0.50153 0.91601 0.96376 0.0
H423 H 0.62438 0.02282 0.04141 0.0
H424 H 0.56964 0.02473 0.03358 0.0
H425 H 0.58021 0.96547 0.96683 0.0
H426 H 0.63497 0.96279 0.975 0.0
H427 H 0.53465 0.94688 -0.00166 0.0
H428 H 0.56496 0.04106 0.95887 0.0
H429 H 0.59005 0.09097 0.95737 0.0
H430 H 0.53437 0.122 0.02119 0.0
H431 H 0.50921 0.0721 0.02332 0.0
C432 C 0.39644 0.97509 0.96032 0.0
C433 C 0.37639 0.99202 0.97611 0.0
C434 C 0.42773 0.97584 0.96477 0.0
C435 C 0.43984 0.99317 0.98537 0.0
C436 C 0.41999 0.01029 0.00112 0.0
C437 C 0.38858 0.00964 0.99661 0.0
C438 C 0.4732 0.99342 0.99025 0.0
C439 C 0.4886 0.02129 0.99033 0.0
C440 C 0.49008 0.96627 0.99331 0.0
C441 C 0.4751 0.93621 0.99513 0.0
C442 C 0.45216 0.93098 0.01382 0.0
C443 C 0.43799 0.90268 0.01532 0.0
C444 C 0.44672 0.87935 -0.00164 0.0
C445 C 0.46969 0.88425 0.97991 0.0
C446 C 0.48391 0.91252 0.9783 0.0
C447 C 0.61508 0.01023 0.02502 0.0
C448 C 0.63409 0.9926 0.00886 0.0
C449 C 0.58378 0.01155 0.02044 0.0
C450 C 0.57077 0.9954 -0.00049 0.0
C451 C 0.58973 0.97816 0.98308 0.0
C452 C 0.62108 0.97688 0.98762 0.0
C453 C 0.53728 0.9955 0.99544 0.0
C454 C 0.52185 0.96767 0.99558 0.0
C455 C 0.5204 0.02269 0.99273 0.0
C456 C 0.5354 0.05274 0.99141 0.0
C457 C 0.55823 0.05844 0.97272 0.0
C458 C 0.57243 0.08675 0.97173 0.0
C459 C 0.56386 0.10962 0.98922 0.0
C460 C 0.54101 0.10425 0.00768 0.0
C461 C 0.52674 0.07597 0.00877 0.0
H462 H 0.57489 0.13151 0.98842 0.0
H463 H 0.43573 0.85746 -0.00044 0.0
H464 H 0.26411 0.12483 0.45352 0.0
H465 H 0.24013 0.14805 0.41518 0.0
H466 H 0.15347 0.11166 0.43889 0.0
H467 H 0.17714 0.08871 0.47746 0.0
H468 H 0.16414 0.10339 0.38659 0.0
H469 H 0.16847 0.18501 0.44876 0.0
H470 H 0.19308 0.21941 0.48044 0.0
H471 H 0.25237 0.25223 0.41981 0.0
H472 H 0.22839 0.2177 0.38783 0.0
H473 H 0.07261 0.19501 0.30206 0.0
H474 H 0.09539 0.16969 0.34004 0.0
H475 H 0.18297 0.20633 0.31922 0.0
H476 H 0.16043 0.23147 0.28117 0.0
H477 H 0.17086 0.21415 0.37052 0.0
H478 H 0.16677 0.13264 0.30825 0.0
H479 H 0.14274 0.09789 0.27655 0.0
H480 H 0.08352 0.06454 0.33702 0.0
H481 H 0.10693 0.0994 0.36902 0.0
C482 C 0.23991 0.12204 0.45078 0.0
C483 C 0.22256 0.10498 0.46864 0.0
C484 C 0.22626 0.13522 0.4288 0.0
C485 C 0.19501 0.13174 0.42437 0.0
C486 C 0.17765 0.11452 0.44197 0.0
C487 C 0.19126 0.10136 0.46396 0.0
C488 C 0.18041 0.14613 0.40136 0.0
C489 C 0.16522 0.12765 0.3832 0.0
C490 C 0.18243 0.17769 0.3968 0.0
C491 C 0.19682 0.19856 0.41597 0.0
C492 C 0.18692 0.19939 0.44223 0.0
C493 C 0.20072 0.21894 0.46023 0.0
C494 C 0.22433 0.23793 0.45216 0.0
C495 C 0.23412 0.23747 0.42604 0.0
C496 C 0.22041 0.21794 0.40797 0.0
C497 C 0.09677 0.19737 0.30539 0.0
C498 C 0.11473 0.21527 0.28861 0.0
C499 C 0.10974 0.18292 0.32711 0.0
C500 C 0.1409 0.18598 0.33229 0.0
C501 C 0.15886 0.20377 0.31557 0.0
C502 C 0.14592 0.21823 0.29391 0.0
C503 C 0.15473 0.1714 0.35558 0.0
C504 C 0.16974 0.18987 0.37386 0.0
C505 C 0.15256 0.13983 0.3602 0.0
C506 C 0.13836 0.11892 0.34096 0.0
C507 C 0.14842 0.11812 0.31474 0.0
C508 C 0.13496 0.09834 0.29672 0.0
C509 C 0.11155 0.07909 0.30475 0.0
C510 C 0.1016 0.07952 0.33081 0.0
C511 C 0.11497 0.09927 0.3489 0.0
H512 H 0.10117 0.06378 0.29078 0.0
H513 H 0.23498 0.25306 0.46612 0.0
H514 H 0.80195 0.06904 0.55091 0.0
H515 H 0.82604 0.09134 0.58964 0.0
H516 H 0.79248 0.17956 0.56705 0.0
H517 H 0.76904 0.15755 0.52797 0.0
H518 H 0.85208 0.18098 0.58076 0.0
H519 H 0.75895 0.14009 0.61579 0.0
H520 H 0.72125 0.10011 0.62477 0.0
H521 H 0.78848 0.04872 0.66678 0.0
H522 H 0.82675 0.08818 0.65766 0.0
H523 H 0.87473 0.26377 0.69718 0.0
H524 H 0.85121 0.23795 0.65996 0.0
H525 H 0.8866 0.15243 0.68762 0.0
H526 H 0.90941 0.17798 0.72537 0.0
H527 H 0.82807 0.14748 0.67153 0.0
H528 H 0.92089 0.18753 0.63769 0.0
H529 H 0.95949 0.2267 0.62895 0.0
H530 H 0.89438 0.27824 0.58463 0.0
H531 H 0.85523 0.23956 0.59343 0.0
C532 C 0.79991 0.09322 0.5541 0.0
C533 C 0.78364 0.11159 0.53639 0.0
C534 C 0.81343 0.10586 0.57634 0.0
C535 C 0.81081 0.13704 0.58125 0.0
C536 C 0.79468 0.15543 0.56359 0.0
C537 C 0.7811 0.1428 0.54141 0.0
C538 C 0.8253 0.15073 0.60457 0.0
C539 C 0.84657 0.17393 0.60063 0.0
C540 C 0.81876 0.14076 0.63039 0.0
C541 C 0.79579 0.11697 0.63582 0.0
C542 C 0.76577 0.12014 0.62674 0.0
C543 C 0.74429 0.0976 0.6319 0.0
C544 C 0.75247 0.0719 0.64633 0.0
C545 C 0.78217 0.06868 0.65564 0.0
C546 C 0.80377 0.09111 0.65046 0.0
C547 C 0.87721 0.23944 0.69553 0.0
C548 C 0.89407 0.22295 0.71415 0.0
C549 C 0.864 0.22476 0.67413 0.0
C550 C 0.86755 0.19337 0.6709 0.0
C551 C 0.88377 0.17671 0.68973 0.0
C552 C 0.89701 0.19139 0.71114 0.0
C553 C 0.8545 0.17803 0.64771 0.0
C554 C 0.83362 0.15447 0.65165 0.0
C555 C 0.86154 0.1875 0.62186 0.0
C556 C 0.88504 0.21078 0.61644 0.0
C557 C 0.91473 0.20733 0.62626 0.0
C558 C 0.93672 0.22943 0.62126 0.0
C559 C 0.92937 0.25498 0.6063 0.0
C560 C 0.90003 0.25845 0.59625 0.0
C561 C 0.87793 0.23644 0.60121 0.0
H562 H 0.94643 0.27206 0.60245 0.0
H563 H 0.7358 0.05448 0.65032 0.0
H564 H 0.78346 0.85301 0.96105 0.0
H565 H 0.8109 0.8343 0.92276 0.0
H566 H 0.84698 0.92379 0.90889 0.0
H567 H 0.81847 0.94303 0.94652 0.0
H568 H 0.82815 0.89881 0.86418 0.0
H569 H 0.89165 0.86849 0.93522 0.0
H570 H 0.90429 0.84538 0.97799 0.0
H571 H 0.87537 0.75842 0.94964 0.0
H572 H 0.86213 0.78109 0.9068 0.0
H573 H 0.93099 0.84015 0.76757 0.0
H574 H 0.91099 0.86521 0.80678 0.0
H575 H 0.86628 0.7823 0.8296 0.0
H576 H 0.88698 0.75688 0.79105 0.0
H577 H 0.89472 0.80826 0.87057 0.0
H578 H 0.82814 0.84075 0.80012 0.0
H579 H 0.81579 0.86497 0.75774 0.0
H580 H 0.85187 0.94945 0.78559 0.0
H581 H 0.86488 0.92561 0.82802 0.0
C582 C 0.79698 0.86881 0.94977 0.0
C583 C 0.79883 0.89949 0.95698 0.0
C584 C 0.81296 0.858 0.92804 0.0
C585 C 0.83137 0.87757 0.91325 0.0
C586 C 0.83304 0.90828 0.92016 0.0
C587 C 0.81695 0.91916 0.94184 0.0
C588 C 0.84829 0.86591 0.89023 0.0
C589 C 0.84318 0.87936 0.86562 0.0
C590 C 0.86761 0.84035 0.89214 0.0
C591 C 0.87568 0.82656 0.91784 0.0
C592 C 0.88778 0.84448 0.93816 0.0
C593 C 0.89508 0.83145 0.96241 0.0
C594 C 0.89058 0.80046 0.96654 0.0
C595 C 0.87883 0.78243 0.94641 0.0
C596 C 0.87145 0.79535 0.92213 0.0
C597 C 0.91716 0.82717 0.78105 0.0
C598 C 0.91049 0.79651 0.77609 0.0
C599 C 0.90552 0.84161 0.80333 0.0
C600 C 0.88692 0.82568 0.82094 0.0
C601 C 0.88054 0.79503 0.81621 0.0
C602 C 0.89215 0.7806 0.79401 0.0
C603 C 0.87399 0.84068 0.84444 0.0
C604 C 0.87997 0.82791 0.86917 0.0
C605 C 0.85565 0.86699 0.84264 0.0
C606 C 0.8479 0.88127 0.8171 0.0
C607 C 0.83374 0.86441 0.79711 0.0
C608 C 0.82656 0.87809 0.7731 0.0
C609 C 0.83316 0.9087 0.76893 0.0
C610 C 0.84687 0.92572 0.78881 0.0
C611 C 0.85415 0.91213 0.81284 0.0
H612 H 0.82756 0.91925 0.75034 0.0
H613 H 0.89625 0.79042 0.98533 0.0
H614 H 0.17394 0.90896 0.02165 0.0
H615 H 0.14966 0.88767 0.0607 0.0
H616 H 0.23693 0.8571 0.08894 0.0
H617 H 0.26127 0.87815 0.04982 0.0
H618 H 0.19499 0.81406 0.09466 0.0
H619 H 0.20151 0.92131 0.11321 0.0
H620 H 0.19258 0.9755 0.10387 0.0
H621 H 0.09625 0.96054 0.10472 0.0
H622 H 0.10458 0.90616 0.11358 0.0
H623 H 0.15906 0.78329 0.22691 0.0
H624 H 0.18044 0.80583 0.18718 0.0
H625 H 0.09067 0.83216 0.16188 0.0
H626 H 0.06904 0.80937 0.20143 0.0
H627 H 0.13166 0.87724 0.1539 0.0
H628 H 0.12373 0.77151 0.13495 0.0
H629 H 0.13085 0.71676 0.14264 0.0
H630 H 0.22766 0.7284 0.1413 0.0
H631 H 0.22112 0.78333 0.13398 0.0
C632 C 0.18797 0.89789 0.03626 0.0
C633 C 0.21955 0.89535 0.03273 0.0
C634 C 0.17407 0.88573 0.05856 0.0
C635 C 0.19155 0.87118 0.07791 0.0
C636 C 0.22301 0.86825 0.07425 0.0
C637 C 0.23689 0.8802 0.05187 0.0
C638 C 0.17711 0.85876 0.10192 0.0
C639 C 0.18149 0.82799 0.1078 0.0
C640 C 0.15868 0.87673 0.11859 0.0
C641 C 0.15369 0.90958 0.11378 0.0
C642 C 0.17842 0.92953 0.11124 0.0
C643 C 0.17347 0.96028 0.10604 0.0
C644 C 0.14387 0.9714 0.1036 0.0
C645 C 0.11916 0.95186 0.10654 0.0
C646 C 0.12398 0.92108 0.11166 0.0
C647 C 0.14384 0.79371 0.21285 0.0
C648 C 0.11234 0.79436 0.21733 0.0
C649 C 0.15609 0.80666 0.19018 0.0
C650 C 0.13708 0.82032 0.17145 0.0
C651 C 0.10571 0.82171 0.17611 0.0
C652 C 0.09342 0.80876 0.1988 0.0
C653 C 0.14997 0.83269 0.1468 0.0
C654 C 0.14521 0.86338 0.14075 0.0
C655 C 0.16789 0.81463 0.12985 0.0
C656 C 0.17193 0.78158 0.13417 0.0
C657 C 0.14654 0.76244 0.13651 0.0
C658 C 0.15047 0.73137 0.14076 0.0
C659 C 0.17969 0.71912 0.14253 0.0
C660 C 0.20504 0.73792 0.13997 0.0
C661 C 0.20124 0.76902 0.13574 0.0
H662 H 0.18269 0.69506 0.14582 0.0
H663 H 0.14005 0.99513 0.09942 0.0
H664 H 0.04396 0.2645 0.11006 0.0
H665 H 0.04932 0.26738 0.06285 0.0
H666 H 0.96315 0.22229 0.0531 0.0
H667 H 0.95846 0.21727 0.10057 0.0
H668 H 1.00179 0.19915 0.02104 0.0
H669 H 0.97318 0.30054 0.04256 0.0
H670 H 0.97576 0.34946 0.06585 0.0
H671 H 0.06581 0.36412 0.03608 0.0
H672 H 0.06392 0.31506 0.01288 0.0
H673 H 0.97155 0.25019 0.8903 0.0
H674 H 0.9715 0.2526 0.9381 0.0
H675 H 0.06904 0.24584 0.93907 0.0
H676 H 0.06964 0.24419 0.89084 0.0
H677 H 0.02714 0.29493 0.97477 0.0
H678 H 0.05209 0.18996 0.95246 0.0
H679 H 0.04414 0.14203 0.92862 0.0
H680 H 0.95407 0.13536 0.96042 0.0
H681 H 0.96107 0.18391 0.98364 0.0
C682 C 0.02618 0.25477 0.09813 0.0
C683 C 1.00085 0.24028 0.10949 0.0
C684 C 0.02912 0.25693 0.07094 0.0
C685 C 0.00647 0.24543 0.0544 0.0
C686 C 0.98093 0.23137 0.06553 0.0
C687 C 0.97817 0.22874 0.09278 0.0
C688 C 0.01001 0.24705 0.02548 0.0
C689 C 0.00705 0.22019 0.01097 0.0
C690 C 0.01734 0.27441 0.01232 0.0
C691 C 0.01852 0.30398 0.02619 0.0
C692 C 0.99362 0.31408 0.04114 0.0
C693 C 0.99494 0.34186 0.0543 0.0
C694 C 0.02096 0.35985 0.05251 0.0
C695 C 0.04568 0.35014 0.03748 0.0
C696 C 0.04449 0.32236 0.0243 0.0
C697 C 0.99313 0.24975 0.90045 0.0
C698 C 0.02066 0.24676 0.88665 0.0
C699 C 0.99294 0.25084 0.9278 0.0
C700 C 0.02013 0.24872 0.94186 0.0
C701 C 0.0478 0.2471 0.92835 0.0
C702 C 0.04806 0.24594 0.9009 0.0
C703 C 0.01906 0.2471 0.97071 0.0
C704 C 0.0222 0.27396 0.98508 0.0
C705 C 0.01128 0.21988 0.98371 0.0
C706 C 0.0069 0.19095 0.96934 0.0
C707 C 0.03035 0.17866 0.95391 0.0
C708 C 0.02604 0.1513 0.94057 0.0
C709 C 0.99853 0.13576 0.94285 0.0
C710 C 0.97533 0.14748 0.95858 0.0
C711 C 0.97942 0.17497 0.97175 0.0
H712 H 0.99524 0.11457 0.93254 0.0
H713 H 0.02194 0.38134 0.06271 0.0
H714 H 0.75535 0.06129 0.13982 0.0
H715 H 0.75172 0.05884 0.18777 0.0
H716 H 0.76932 0.96265 0.18498 0.0
H717 H 0.77338 0.96503 0.1375 0.0
H718 H 0.73106 0.97025 0.21928 0.0
H719 H 0.82496 0.02149 0.20065 0.0
H720 H 0.85889 0.06079 0.18284 0.0
H721 H 0.81193 0.12878 0.22751 0.0
H722 H 0.77745 0.08985 0.24538 0.0
H723 H 0.78904 0.95284 0.35059 0.0
H724 H 0.78547 0.95686 0.30281 0.0
H725 H 0.73793 0.04183 0.31039 0.0
H726 H 0.74002 0.03761 0.3579 0.0
H727 H 0.78957 0.04162 0.27487 0.0
H728 H 0.69762 0.98613 0.29449 0.0
H729 H 0.6685 0.94397 0.3139 0.0
H730 H 0.71939 0.88009 0.2679 0.0
H731 H 0.74912 0.92187 0.24849 0.0
C732 C 0.75878 0.03973 0.14955 0.0
C733 C 0.76485 0.01343 0.13489 0.0
C734 C 0.75674 0.03832 0.17693 0.0
C735 C 0.76131 0.01068 0.19014 0.0
C736 C 0.76636 0.98433 0.17536 0.0
C737 C 0.76838 0.98568 0.14811 0.0
C738 C 0.76117 0.00888 0.21928 0.0
C739 C 0.74426 0.98567 0.23131 0.0
C740 C 0.77795 0.02922 0.23522 0.0
C741 C 0.79836 0.05275 0.22411 0.0
C742 C 0.82168 0.04482 0.20652 0.0
C743 C 0.84106 0.06704 0.19643 0.0
C744 C 0.83751 0.09729 0.20396 0.0
C745 C 0.81461 0.10536 0.22163 0.0
C746 C 0.79514 0.08321 0.23174 0.0
C747 C 0.77744 0.97219 0.34224 0.0
C748 C 0.76504 0.99497 0.35839 0.0
C749 C 0.77554 0.97448 0.3149 0.0
C750 C 0.76148 0.99966 0.30325 0.0
C751 C 0.74902 0.02232 0.31913 0.0
C752 C 0.7505 0.01989 0.34639 0.0
C753 C 0.76018 1.00274 0.27443 0.0
C754 C 0.77664 0.02623 0.26261 0.0
C755 C 0.74377 0.9822 0.25867 0.0
C756 C 0.72579 0.9571 0.27024 0.0
C757 C 0.70278 0.96307 0.28869 0.0
C758 C 0.68613 0.93925 0.29966 0.0
C759 C 0.69214 0.90936 0.29219 0.0
C760 C 0.71478 0.90325 0.27369 0.0
C761 C 0.73152 0.92699 0.26269 0.0
H762 H 0.67922 0.89095 0.3007 0.0
H763 H 0.85255 0.11447 0.19616 0.0
H764 H 0.01396 0.81286 0.59195 0.0
H765 H 1.00218 0.80746 0.54487 0.0
H766 H 0.02123 0.71172 0.54973 0.0
H767 H 0.03435 0.71752 0.59643 0.0
H768 H 0.04033 0.73325 0.50444 0.0
H769 H 0.95034 0.73823 0.55324 0.0
H770 H 0.91083 0.75587 0.58385 0.0
H771 H 0.89617 0.83498 0.53631 0.0
H772 H 0.93666 0.81866 0.50607 0.0
H773 H 0.96491 0.71049 0.38172 0.0
H774 H 0.97024 0.70725 0.42971 0.0
H775 H 0.97712 0.80469 0.43383 0.0
H776 H 0.97308 0.80773 0.38576 0.0
H777 H 0.94117 0.77494 0.47514 0.0
H778 H 0.03603 0.76582 0.42682 0.0
H779 H 0.07156 0.74158 0.39613 0.0
H780 H 0.07089 0.66051 0.44289 0.0
H781 H 0.0349 0.68419 0.47381 0.0
C782 C 0.01599 0.79087 0.58268 0.0
C783 C 0.02486 0.76561 0.59748 0.0
C784 C 0.00905 0.78772 0.55605 0.0
C785 C 0.00987 0.75907 0.54408 0.0
C786 C 0.02018 0.734 0.55862 0.0
C787 C 0.02774 0.7373 0.58517 0.0
C788 C 0.99904 0.75538 0.51667 0.0
C789 C 0.01843 0.74192 0.49814 0.0
C790 C 0.97029 0.7665 0.50849 0.0
C791 C 0.94693 0.77732 0.52746 0.0
C792 C 0.93918 0.7597 0.54954 0.0
C793 C 0.91653 0.76946 0.56684 0.0
C794 C 0.90099 0.79651 0.56203 0.0
C795 C 0.90819 0.81398 0.53999 0.0
C796 C 0.93117 0.8046 0.52287 0.0
C797 C 0.96675 0.73116 0.39306 0.0
C798 C 0.96853 0.75939 0.38039 0.0
C799 C 0.96993 0.7293 0.42032 0.0
C800 C 0.97446 0.75571 0.43511 0.0
C801 C 0.97388 0.78408 0.42262 0.0
C802 C 0.97149 0.78586 0.39534 0.0
C803 C 0.98287 0.75389 0.4631 0.0
C804 C 0.96293 0.76614 0.48168 0.0
C805 C 0.01069 0.7409 0.47139 0.0
C806 C 0.03241 0.72677 0.45262 0.0
C807 C 0.04317 0.74276 0.43054 0.0
C808 C 0.06348 0.72912 0.41308 0.0
C809 C 0.07343 0.69948 0.41751 0.0
C810 C 0.06313 0.68346 0.43946 0.0
C811 C 0.04278 0.69702 0.45698 0.0
H812 H 0.08917 0.68894 0.40397 0.0
H813 H 0.88338 0.80397 0.57539 0.0
H814 H 0.17911 1.00091 0.63492 0.0
H815 H 0.17178 0.00639 0.68229 0.0
H816 H 0.247 0.94577 0.69638 0.0
H817 H 0.25476 0.94054 0.64912 0.0
H818 H 0.20085 0.93923 0.73321 0.0
H819 H 0.26042 0.0178 0.69283 0.0
H820 H 0.26998 0.05819 0.66038 0.0
H821 H 0.19487 0.10924 0.69073 0.0
H822 H 0.18411 0.06867 0.72297 0.0
H823 H 0.26694 0.98434 0.85239 0.0
H824 H 0.25927 0.97621 0.80539 0.0
H825 H 0.18309 0.03775 0.80636 0.0
H826 H 0.19026 0.04563 0.85352 0.0
H827 H 0.22152 0.04465 0.76236 0.0
H828 H 0.17207 0.9662 0.81086 0.0
H829 H 0.1712 0.92609 0.84435 0.0
H830 H 0.23235 0.87225 0.79825 0.0
H831 H 0.23598 0.91327 0.76552 0.0
C832 C 0.1938 0.9884 0.64811 0.0
C833 C 0.21794 0.97081 0.63829 0.0
C834 C 0.18946 0.99142 0.67513 0.0
C835 C 0.20919 0.97689 0.69274 0.0
C836 C 0.23156 0.95719 0.68304 0.0
C837 C 0.23596 0.9542 0.656 0.0
C838 C 0.2092 0.98512 0.72088 0.0
C839 C 0.20542 0.96221 0.73968 0.0
C840 C 0.21476 0.01528 0.72911 0.0
C841 C 0.2212 0.03996 0.71005 0.0
C842 C 0.24569 0.03747 0.69241 0.0
C843 C 0.25128 0.06038 0.67406 0.0
C844 C 0.23286 0.08616 0.67342 0.0
C845 C 0.20888 0.08912 0.6912 0.0
C846 C 0.20299 0.06616 0.70948 0.0
C847 C 0.24857 0.99617 0.84263 0.0
C848 C 0.22895 0.01528 0.85681 0.0
C849 C 0.2443 0.99159 0.81578 0.0
C850 C 0.22029 0.00597 0.8026 0.0
C851 C 0.20166 0.02636 0.81628 0.0
C852 C 0.20588 0.0309 0.84322 0.0
C853 C 0.21394 0.99859 0.7748 0.0
C854 C 0.21641 0.02173 0.75602 0.0
C855 C 0.20779 0.96847 0.76663 0.0
C856 C 0.20456 0.94312 0.78577 0.0
C857 C 0.18568 0.94602 0.80794 0.0
C858 C 0.1847 0.92308 0.82685 0.0
C859 C 0.20132 0.89643 0.82331 0.0
C860 C 0.21938 0.89287 0.80096 0.0
C861 C 0.22118 0.91613 0.78234 0.0
H862 H 0.20031 0.87862 0.83793 0.0
H863 H 0.23727 0.10393 0.65926 0.0
H864 H 0.05741 0.14553 0.17375 0.0
H865 H 0.07719 0.10734 0.14278 0.0
H866 H 0.15259 0.16598 0.12459 0.0
H867 H 0.13353 0.20359 0.15528 0.0
H868 H 0.11799 0.14659 0.08031 0.0
H869 H 0.16463 0.10616 0.16029 0.0
H870 H 0.16302 0.08352 0.2046 0.0
H871 H 0.11094 0.00873 0.17494 0.0
H872 H 0.1117 0.03128 0.13055 0.0
H873 H 0.23476 0.07856 0.01084 0.0
H874 H 0.20372 0.10217 0.04468 0.0
H875 H 0.14897 0.02141 0.05011 0.0
H876 H 0.18025 0.99731 0.01601 0.0
H877 H 0.16253 0.04557 0.09925 0.0
H878 H 0.11987 0.08059 0.0192 0.0
H879 H 0.11887 0.10194 0.97441 0.0
H880 H 0.15801 0.18475 0.00289 0.0
H881 H 0.15966 0.16375 0.04781 0.0
C882 C 0.07849 0.14995 0.16349 0.0
C883 C 0.09373 0.17773 0.16683 0.0
C884 C 0.08971 0.12817 0.14579 0.0
C885 C 0.11622 0.134 0.13124 0.0
C886 C 0.13198 0.16113 0.13545 0.0
C887 C 0.121 0.18262 0.15309 0.0
C888 C 0.12704 0.11328 0.11024 0.0
C889 C 0.12768 0.12446 0.08442 0.0
C890 C 0.1385 0.08391 0.11545 0.0
C891 C 0.13791 0.07059 0.14218 0.0
C892 C 0.15253 0.08508 0.16328 0.0
C893 C 0.15182 0.07223 0.1884 0.0
C894 C 0.1368 0.04476 0.19261 0.0
C895 C 0.12251 0.03005 0.17168 0.0
C896 C 0.12307 0.04285 0.14654 0.0
C897 C 0.21616 0.06569 0.01915 0.0
C898 C 0.20988 0.03609 0.01049 0.0
C899 C 0.19834 0.0793 0.03849 0.0
C900 C 0.17371 0.06376 0.04967 0.0
C901 C 0.16775 0.03389 0.04164 0.0
C902 C 0.18557 0.02022 0.02209 0.0
C903 C 0.15433 0.07932 0.06945 0.0
C904 C 0.15207 0.06728 0.09495 0.0
C905 C 0.1408 0.10775 0.06391 0.0
C906 C 0.14005 0.1205 0.03688 0.0
C907 C 0.12849 0.10327 0.01589 0.0
C908 C 0.12776 0.11533 0.99048 0.0
C909 C 0.1384 0.14467 0.9858 0.0
C910 C 0.14977 0.16202 0.00654 0.0
C911 C 0.15057 0.15006 0.03199 0.0
H912 H 0.13779 0.15397 0.96612 0.0
H913 H 0.13631 0.03484 0.21206 0.0
H914 H 0.94003 0.23933 0.27405 0.0
H915 H 0.91702 0.20816 0.3082 0.0
H916 H 0.98032 0.1361 0.29145 0.0
H917 H 1.00402 0.16754 0.25715 0.0
H918 H 0.91651 0.11754 0.29729 0.0
H919 H 0.9937 0.17006 0.3436 0.0
H920 H 0.02462 0.2141 0.35659 0.0
H921 H 0.94546 0.25765 0.38833 0.0
H922 H 0.91392 0.21406 0.37512 0.0
H923 H 0.85165 0.04667 0.41242 0.0
H924 H 0.89174 0.06602 0.3832 0.0
H925 H 0.85005 0.15454 0.38455 0.0
H926 H 0.81012 0.13542 0.41335 0.0
H927 H 0.91297 0.1571 0.38853 0.0
H928 H 0.8355 0.10704 0.33576 0.0
H929 H 0.80479 0.06295 0.32244 0.0
H930 H 0.88594 0.01387 0.30284 0.0
H931 H 0.9172 0.05752 0.31654 0.0
C932 C 0.94912 0.21685 0.27749 0.0
C933 C 0.9739 0.20595 0.26284 0.0
C934 C 0.93595 0.19907 0.2971 0.0
C935 C 0.94704 0.16988 0.30244 0.0
C936 C 0.97144 0.15858 0.28761 0.0
C937 C 0.98499 0.1766 0.26812 0.0
C938 C 0.93294 0.1518 0.32383 0.0
C939 C 0.91633 0.12569 0.3174 0.0
C940 C 0.93254 0.1626 0.35 0.0
C941 C 0.9514 0.18884 0.3582 0.0
C942 C 0.98282 0.18912 0.35317 0.0
C943 C 1.00048 0.21399 0.3606 0.0
C944 C 0.987 0.23868 0.37325 0.0
C945 C 0.95586 0.23851 0.37853 0.0
C946 C 0.93808 0.2137 0.3711 0.0
C947 C 0.85145 0.07038 0.40685 0.0
C948 C 0.82775 0.08955 0.41511 0.0
C949 C 0.87422 0.08135 0.39005 0.0
C950 C 0.87375 0.11169 0.38155 0.0
C951 C 0.85089 0.13108 0.39085 0.0
C952 C 0.82803 0.12009 0.40727 0.0
C953 C 0.8958 0.12334 0.36187 0.0
C954 C 0.9138 0.1484 0.36861 0.0
C955 C 0.89755 0.11144 0.33605 0.0
C956 C 0.87871 0.08537 0.32755 0.0
C957 C 0.84682 0.08675 0.32885 0.0
C958 C 0.8293 0.06184 0.32121 0.0
C959 C 0.84342 0.03556 0.31193 0.0
C960 C 0.87506 0.0342 0.31014 0.0
C961 C 0.89268 0.059 0.31785 0.0
H962 H 0.82986 0.01629 0.30603 0.0
H963 H 1.00071 0.25792 0.37899 0.0
H964 H 0.77122 0.94061 0.52693 0.0
H965 H 0.80421 0.92354 0.56246 0.0
H966 H 0.86994 0.99198 0.54201 0.0
H967 H 0.83674 0.00953 0.50625 0.0
H968 H 0.89608 0.93521 0.55041 0.0
H969 H 0.83272 1.00239 0.59549 0.0
H970 H 0.78503 0.02754 0.6082 0.0
H971 H 0.75272 0.94457 0.64234 0.0
H972 H 0.7999 0.91858 0.6291 0.0
H973 H 0.97168 0.8642 0.65953 0.0
H974 H 0.94944 0.90759 0.63582 0.0
H975 H 0.86331 0.86122 0.63266 0.0
H976 H 0.88509 0.8184 0.65616 0.0
H977 H 0.85564 0.92234 0.64075 0.0
H978 H 0.91645 0.8553 0.5859 0.0
H979 H 0.9642 0.83133 0.57242 0.0
H980 H 1.00311 0.91883 0.55696 0.0
H981 H 0.9554 0.9434 0.57112 0.0
C982 C 0.79267 0.95211 0.52989 0.0
C983 C 0.80133 0.97642 0.51367 0.0
C984 C 0.81144 0.94243 0.55036 0.0
C985 C 0.83939 0.9567 0.5551 0.0
C986 C 0.8484 0.98075 0.53878 0.0
C987 C 0.8294 0.99072 0.51837 0.0
C988 C 0.8592 0.94547 0.57671 0.0
C989 C 0.88765 0.93317 0.57037 0.0
C990 C 0.8483 0.94297 0.60278 0.0
C991 C 0.81989 0.95845 0.61115 0.0
C992 C 0.81538 0.98939 0.60552 0.0
C993 C 0.78841 0.00382 0.61284 0.0
C994 C 0.76586 0.98768 0.62613 0.0
C995 C 0.77023 0.95705 0.63208 0.0
C996 C 0.7971 0.94244 0.62465 0.0
C997 C 0.94787 0.86362 0.65421 0.0
C998 C 0.93025 0.83771 0.65944 0.0
C999 C 0.93518 0.88839 0.64067 0.0
C1000 C 0.9047 0.88761 0.63228 0.0
C1001 C 0.88679 0.86248 0.63895 0.0
C1002 C 0.89942 0.83783 0.65222 0.0
C1003 C 0.89179 0.91078 0.61409 0.0
C1004 C 0.86455 0.92533 0.62105 0.0
C1005 C 0.90404 0.91577 0.58869 0.0
C1006 C 0.93254 0.90113 0.57991 0.0
C1007 C 0.93526 0.86942 0.57981 0.0
C1008 C 0.96237 0.85573 0.57205 0.0
C1009 C 0.98685 0.8735 0.56383 0.0
C1010 C 0.98417 0.90506 0.56339 0.0
C1011 C 0.9571 0.91889 0.57135 0.0
H1012 H 0.00787 0.86285 0.55779 0.0
H1013 H 0.745 0.99889 0.63181 0.0
H1014 H 0.01652 0.83973 0.74519 0.0
H1015 H 0.03655 0.87121 0.78111 0.0
H1016 H 0.10118 0.80109 0.80033 0.0
H1017 H 0.08174 0.76988 0.76475 0.0
H1018 H 0.07021 0.82083 0.84359 0.0
H1019 H 0.12567 0.86337 0.77086 0.0
H1020 H 0.13427 0.88918 0.7285 0.0
H1021 H 0.08374 0.96638 0.75559 0.0
H1022 H 0.07461 0.94087 0.79806 0.0
H1023 H 0.19719 0.87567 0.90874 0.0
H1024 H 0.15778 0.85577 0.88009 0.0
H1025 H 0.11001 0.94109 0.88393 0.0
H1026 H 0.14992 0.96136 0.91299 0.0
H1027 H 0.11878 0.92142 0.833 0.0
H1028 H 0.0769 0.87999 0.91046 0.0
H1029 H 0.07653 0.85402 0.95337 0.0
H1030 H 0.10931 0.77246 0.9171 0.0
H1031 H 0.11034 0.79804 0.87402 0.0
C1032 C 0.03516 0.83116 0.75696 0.0
C1033 C 0.04745 0.80221 0.75206 0.0
C1034 C 0.0466 0.8492 0.77744 0.0
C1035 C 0.07032 0.83846 0.79347 0.0
C1036 C 0.08278 0.8098 0.78834 0.0
C1037 C 0.07163 0.79198 0.76786 0.0
C1038 C 0.08186 0.85623 0.81622 0.0
C1039 C 0.08103 0.84275 0.84124 0.0
C1040 C 0.09499 0.88532 0.8134 0.0
C1041 C 0.0989 0.89996 0.78741 0.0
C1042 C 0.11593 0.88563 0.76761 0.0
C1043 C 0.12106 0.90027 0.74364 0.0
C1044 C 0.10942 0.92934 0.7393 0.0
C1045 C 0.09262 0.94381 0.75893 0.0
C1046 C 0.08745 0.92927 0.78294 0.0
C1047 C 0.17802 0.89008 0.90397 0.0
C1048 C 0.17662 0.92006 0.91318 0.0
C1049 C 0.15534 0.87858 0.88768 0.0
C1050 C 0.13067 0.89677 0.88007 0.0
C1051 C 0.12869 0.92656 0.88977 0.0
C1052 C 0.15138 0.93805 0.90644 0.0
C1053 C 0.10912 0.88504 0.85996 0.0
C1054 C 0.10768 0.89969 0.83548 0.0
C1055 C 0.09458 0.85668 0.86311 0.0
C1056 C 0.09376 0.84101 0.88897 0.0
C1057 C 0.08419 0.85657 0.91163 0.0
C1058 C 0.08385 0.8419 0.936 0.0
C1059 C 0.0929 0.81162 0.93796 0.0
C1060 C 0.10227 0.79592 0.91555 0.0
C1061 C 0.10268 0.81048 0.89113 0.0
H1062 H 0.09264 0.80031 0.95685 0.0
H1063 H 0.11353 0.94069 0.72078 0.0
H1064 H 0.11133 0.79741 0.35881 0.0
H1065 H 0.12822 0.83531 0.3899 0.0
H1066 H 0.05851 0.89666 0.36289 0.0
H1067 H 0.04123 0.85819 0.33102 0.0
H1068 H 0.11226 0.92661 0.37087 0.0
H1069 H 0.04969 0.86547 0.42549 0.0
H1070 H 0.0268 0.82186 0.44852 0.0
H1071 H 0.115 0.79289 0.47434 0.0
H1072 H 0.13843 0.83645 0.45173 0.0
H1073 H 0.17172 0.00536 0.48987 0.0
H1074 H 0.13614 0.98427 0.45724 0.0
H1075 H 0.19209 0.90434 0.4508 0.0
H1076 H 0.22725 0.92482 0.48289 0.0
H1077 H 0.1305 0.89325 0.46263 0.0
H1078 H 0.19187 0.95659 0.40318 0.0
H1079 H 0.21008 0.00636 0.38765 0.0
H1080 H 0.11808 0.03533 0.375 0.0
H1081 H 0.09933 0.98583 0.39067 0.0
C1082 C 0.0994 0.81889 0.3593 0.0
C1083 C 0.07473 0.8246 0.34243 0.0
C1084 C 0.10904 0.84058 0.37734 0.0
C1085 C 0.09424 0.86866 0.37929 0.0
C1086 C 0.0701 0.87502 0.36196 0.0
C1087 C 0.0603 0.85308 0.34372 0.0
C1088 C 0.10509 0.89093 0.39923 0.0
C1089 C 0.11565 0.91957 0.39109 0.0
C1090 C 0.10931 0.88216 0.42576 0.0
C1091 C 0.09578 0.85418 0.43686 0.0
C1092 C 0.06423 0.84955 0.43575 0.0
C1093 C 0.05115 0.82498 0.4489 0.0
C1094 C 0.06943 0.80476 0.46298 0.0
C1095 C 0.10087 0.80869 0.46355 0.0
C1096 C 0.11405 0.83335 0.45066 0.0
C1097 C 0.17645 0.98337 0.48135 0.0
C1098 C 0.20223 0.96667 0.48923 0.0
C1099 C 0.15621 0.97146 0.46262 0.0
C1100 C 0.1615 0.94273 0.4516 0.0
C1101 C 0.18753 0.92652 0.45906 0.0
C1102 C 0.20763 0.93831 0.47753 0.0
C1103 C 0.13935 0.92774 0.43385 0.0
C1104 C 0.12654 0.90051 0.44253 0.0
C1105 C 0.13273 0.93815 0.40816 0.0
C1106 C 0.14419 0.96764 0.39837 0.0
C1107 C 0.17552 0.97366 0.39726 0.0
C1108 C 0.18595 1.0018 0.38837 0.0
C1109 C 0.16525 0.02403 0.38038 0.0
C1110 C 0.13409 0.01811 0.38117 0.0
C1111 C 0.12356 0.99001 0.39003 0.0
H1112 H 0.17335 0.04581 0.37352 0.0
H1113 H 0.05927 0.78608 0.47351 0.0
H1114 H 0.14732 0.05299 0.57565 0.0
H1115 H 0.10841 0.07413 0.60527 0.0
H1116 H 0.17587 0.13238 0.64015 0.0
H1117 H 0.21425 0.11201 0.61086 0.0
H1118 H 0.1422 0.101 0.67712 0.0
H1119 H 0.1256 0.16006 0.59719 0.0
H1120 H 0.1124 0.16596 0.55036 0.0
H1121 H 0.0258 0.12422 0.56423 0.0
H1122 H 0.0387 0.11769 0.61112 0.0
H1123 H 0.0832 0.22791 0.73992 0.0
H1124 H 0.10669 0.19335 0.70863 0.0
H1125 H 0.0204 0.14968 0.69575 0.0
H1126 H 0.99649 0.18432 0.72748 0.0
H1127 H 0.05407 0.16285 0.64833 0.0
H1128 H 0.06841 0.10975 0.72929 0.0
H1129 H 0.08177 0.10341 0.77606 0.0
H1130 H 0.17255 0.13386 0.76022 0.0
H1131 H 0.15946 0.14111 0.71349 0.0
C1132 C 0.15369 0.07053 0.58946 0.0
C1133 C 0.18392 0.08079 0.59084 0.0
C1134 C 0.13148 0.08253 0.60638 0.0
C1135 C 0.13929 0.10477 0.62499 0.0
C1136 C 0.16933 0.11515 0.62608 0.0
C1137 C 0.19128 0.10349 0.60916 0.0
C1138 C 0.11683 0.11739 0.64385 0.0
C1139 C 0.12302 0.11461 0.6708 0.0
C1140 C 0.09097 0.13405 0.63569 0.0
C1141 C 0.08328 0.138 0.60756 0.0
C1142 C 0.10387 0.15187 0.5902 0.0
C1143 C 0.09642 0.15539 0.56366 0.0
C1144 C 0.06833 0.14537 0.5543 0.0
C1145 C 0.04759 0.13189 0.57149 0.0
C1146 C 0.05495 0.12828 0.59804 0.0
C1147 C 0.06909 0.21102 0.73049 0.0
C1148 C 0.03795 0.20885 0.73631 0.0
C1149 C 0.08261 0.19118 0.71264 0.0
C1150 C 0.06536 0.16876 0.70004 0.0
C1151 C 0.03413 0.16677 0.70534 0.0
C1152 C 0.02056 0.1865 0.72352 0.0
C1153 C 0.08055 0.14769 0.68145 0.0
C1154 C 0.07295 0.14879 0.65465 0.0
C1155 C 0.10523 0.12946 0.68967 0.0
C1156 C 0.11302 0.12579 0.71787 0.0
C1157 C 0.09116 0.11527 0.73582 0.0
C1158 C 0.09867 0.11154 0.76233 0.0
C1159 C 0.12801 0.11816 0.7711 0.0
C1160 C 0.14986 0.12865 0.7534 0.0
C1161 C 0.14243 0.13251 0.72689 0.0
H1162 H 0.13379 0.1152 0.79162 0.0
H1163 H 0.0626 0.14812 0.53375 0.0
H1164 H 0.87753 0.20913 0.84016 0.0
H1165 H 0.85589 0.16972 0.86786 0.0
H1166 H 0.93591 0.11475 0.85681 0.0
H1167 H 0.95787 0.15444 0.82847 0.0
H1168 H 0.87874 0.08036 0.85964 0.0
H1169 H 0.93502 0.15258 0.9081 0.0
H1170 H 0.95227 0.20314 0.92112 0.0
H1171 H 0.86224 0.22574 0.94711 0.0
H1172 H 0.8442 0.17515 0.93363 0.0
H1173 H 0.83193 1.00151 0.97946 0.0
H1174 H 0.86239 0.02654 0.94536 0.0
H1175 H 0.79967 0.10174 0.94499 0.0
H1176 H 0.7695 0.07724 0.97894 0.0
H1177 H 0.85762 0.12039 0.94892 0.0
H1178 H 0.80118 0.04772 0.89611 0.0
H1179 H 0.78568 0.99608 0.88336 0.0
H1180 H 0.87858 0.97286 0.86741 0.0
H1181 H 0.89473 0.02428 0.88047 0.0
C1182 C 0.89046 0.18851 0.84322 0.0
C1183 C 0.91963 0.18512 0.8324 0.0
C1184 C 0.87796 0.16591 0.85902 0.0
C1185 C 0.89441 0.13945 0.86469 0.0
C1186 C 0.9228 0.13499 0.85264 0.0
C1187 C 0.93535 0.15771 0.83655 0.0
C1188 C 0.883 0.1187 0.88555 0.0
C1189 C 0.87457 0.08885 0.87931 0.0
C1190 C 0.87762 0.12973 0.91124 0.0
C1191 C 0.88823 0.16013 0.91964 0.0
C1192 C 0.91879 0.16841 0.91633 0.0
C1193 C 0.92871 0.19716 0.9238 0.0
C1194 C 0.90838 0.21783 0.9349 0.0
C1195 C 0.87799 0.20972 0.93851 0.0
C1196 C 0.8679 0.18098 0.93095 0.0
C1197 C 0.82463 0.02335 0.97206 0.0
C1198 C 0.79833 0.03744 0.98208 0.0
C1199 C 0.84197 0.03754 0.95246 0.0
C1200 C 0.83326 0.06599 0.94252 0.0
C1201 C 0.8069 0.07983 0.95237 0.0
C1202 C 0.78963 0.06575 0.97184 0.0
C1203 C 0.85195 0.08247 0.9228 0.0
C1204 C 0.86202 0.11164 0.92936 0.0
C1205 C 0.85898 0.07055 0.89764 0.0
C1206 C 0.8492 0.03976 0.88956 0.0
C1207 C 0.81834 0.03154 0.8901 0.0
C1208 C 0.80943 1.00232 0.88278 0.0
C1209 C 0.83114 0.98119 0.87463 0.0
C1210 C 0.8618 0.98925 0.87375 0.0
C1211 C 0.87084 0.01843 0.8811 0.0
H1212 H 0.82419 0.9586 0.86894 0.0
H1213 H 0.91614 0.24008 0.94076 0.0
H1214 H 0.95074 0.76547 0.20772 0.0
H1215 H 0.93303 0.79938 0.17328 0.0
H1216 H 0.9813 0.87367 0.20906 0.0
H1217 H 0.99962 0.83942 0.24389 0.0
H1218 H 0.9207 0.88703 0.19715 0.0
H1219 H 0.00637 0.84962 0.15228 0.0
H1220 H 0.04303 0.81153 0.13646 0.0
H1221 H 0.97285 0.76848 0.09138 0.0
H1222 H 0.93558 0.80597 0.10727 0.0
H1223 H 0.85346 0.96716 0.08709 0.0
H1224 H 0.8942 0.94877 0.11631 0.0
H1225 H 0.86474 0.85675 0.10351 0.0
H1226 H 0.82395 0.87495 0.07499 0.0
H1227 H 0.92819 0.86289 0.10218 0.0
H1228 H 0.84263 0.88962 0.15797 0.0
H1229 H 0.80439 0.92122 0.18021 0.0
H1230 H 0.87431 0.982 0.20632 0.0
H1231 H 0.91308 0.95047 0.18429 0.0
C1232 C 0.95781 0.78897 0.20833 0.0
C1233 C 0.97646 0.79976 0.22873 0.0
C1234 C 0.94785 0.80831 0.18841 0.0
C1235 C 0.9561 0.839 0.18837 0.0
C1236 C 0.97484 0.84999 0.20861 0.0
C1237 C 0.98524 0.83043 0.22849 0.0
C1238 C 0.94297 0.8595 0.1681 0.0
C1239 C 0.92314 0.88249 0.1763 0.0
C1240 C 0.94576 0.85319 0.14093 0.0
C1241 C 0.96811 0.83062 0.13107 0.0
C1242 C 0.99867 0.83192 0.13913 0.0
C1243 C 0.01958 0.81044 0.13013 0.0
C1244 C 0.01027 0.7876 0.11294 0.0
C1245 C 0.98003 0.78621 0.10468 0.0
C1246 C 0.959 0.80762 0.11365 0.0
C1247 C 0.85614 0.943 0.09016 0.0
C1248 C 0.83563 0.92244 0.07872 0.0
C1249 C 0.87924 0.93254 0.10698 0.0
C1250 C 0.88248 0.90136 0.11215 0.0
C1251 C 0.86279 0.88087 0.09976 0.0
C1252 C 0.83945 0.8913 0.08349 0.0
C1253 C 0.90516 0.88968 0.13139 0.0
C1254 C 0.9267 0.86828 0.12294 0.0
C1255 C 0.90397 0.89739 0.15836 0.0
C1256 C 0.88062 0.91802 0.16915 0.0
C1257 C 0.84976 0.91006 0.168 0.0
C1258 C 0.82803 0.92785 0.18073 0.0
C1259 C 0.83691 0.95366 0.19466 0.0
C1260 C 0.86749 0.96201 0.19552 0.0
C1261 C 0.88935 0.94417 0.18294 0.0
H1262 H 0.82018 0.967 0.20506 0.0
H1263 H 0.0265 0.77098 0.10599 0.0
loop_
_geom_bond_atom_site_label_1
_geom_bond_atom_site_label_2
_geom_bond_distance
_geom_bond_site_symmetry_2
_ccdc_geom_bond_type
C0 C1 1.351 . S
C0 N3 1.368 . S
C0 H5 0.931 . S
C1 C0 1.351 . S
C1 N2 1.373 . S
C1 H29 0.930 . S
N2 C1 1.373 . S
N2 C4 1.340 . S
N3 C0 1.368 . S
N3 C4 1.321 . S
N3 Co6 2.135 . S
C4 N2 1.340 . S
C4 N3 1.321 . S
C4 H28 0.930 . S
H5 C0 0.931 . S
Co6 N3 2.135 . S
Co6 N9 2.121 . S
Co6 O14 2.055 . S
Co6 O17 2.039 . S
Co6 N20 2.140 . S
C7 O8 1.227 . S
C7 O17 1.265 . S
O8 C7 1.227 . S
N9 Co6 2.121 . S
N9 C11 1.375 . S
N9 C12 1.313 . S
C10 C11 1.338 . S
C10 N13 1.377 . S
C10 H30 0.930 1_455 S
C11 N9 1.375 . S
C11 C10 1.338 . S
C11 H15 0.931 . S
C12 N9 1.313 . S
C12 N13 1.344 . S
C12 H16 0.930 . S
N13 C10 1.377 . S
N13 C12 1.344 . S
O14 Co6 2.055 . S
O14 C18 1.253 . S
H15 C11 0.931 . S
H16 C12 0.930 . S
O17 Co6 2.039 . S
O17 C7 1.265 . S
C18 O14 1.253 . S
C18 O19 1.227 . S
O19 C18 1.227 . S
N20 Co6 2.140 . S
N20 C23 1.346 . S
N20 C24 1.345 . S
C21 C22 1.387 . S
C21 C25 1.391 . S
C22 C21 1.387 . S
C22 C23 1.369 . S
C22 H31 0.929 . S
C23 N20 1.346 . S
C23 C22 1.369 . S
C23 H26 0.928 . S
C24 N20 1.345 . S
C24 C25 1.371 . S
C24 H27 0.931 . S
C25 C21 1.391 . S
C25 C24 1.371 . S
C25 H32 0.930 . S
H26 C23 0.928 . S
H27 C24 0.931 . S
H28 C4 0.930 . S
H29 C1 0.930 . S
H30 C10 0.930 1_655 S
H31 C22 0.929 . S
H32 C25 0.930 . S
C33 C34 1.351 . S
C33 N36 1.368 . S
C33 H38 0.931 . S
C34 C33 1.351 . S
C34 N35 1.373 . S
C34 H62 0.930 . S
N35 C34 1.373 . S
N35 C37 1.340 . S
N36 C33 1.368 . S
N36 C37 1.321 . S
N36 Co39 2.135 . S
C37 N35 1.340 . S
C37 N36 1.321 . S
C37 H61 0.930 . S
H38 C33 0.931 . S
Co39 N36 2.135 . S
Co39 N42 2.121 . S
Co39 O47 2.055 . S
Co39 O50 2.039 . S
Co39 N53 2.140 . S
C40 O41 1.227 . S
C40 O50 1.265 . S
O41 C40 1.227 . S
N42 Co39 2.121 . S
N42 C44 1.375 . S
N42 C45 1.313 . S
C43 C44 1.338 . S
C43 N46 1.377 . S
C43 H63 0.930 1_545 S
C44 N42 1.375 . S
C44 C43 1.338 . S
C44 H48 0.931 . S
C45 N42 1.313 . S
C45 N46 1.344 . S
C45 H49 0.930 . S
N46 C43 1.377 . S
N46 C45 1.344 . S
O47 Co39 2.055 . S
O47 C51 1.253 . S
H48 C44 0.931 . S
H49 C45 0.930 . S
O50 Co39 2.039 . S
O50 C40 1.265 . S
C51 O47 1.253 . S
C51 O52 1.227 . S
O52 C51 1.227 . S
N53 Co39 2.140 . S
N53 C56 1.346 . S
N53 C57 1.345 . S
C54 C55 1.387 . S
C54 C58 1.391 . S
C55 C54 1.387 . S
C55 C56 1.369 . S
C55 H64 0.929 . S
C56 N53 1.346 . S
C56 C55 1.369 . S
C56 H59 0.928 . S
C57 N53 1.345 . S
C57 C58 1.371 . S
C57 H60 0.931 . S
C58 C54 1.391 . S
C58 C57 1.371 . S
C58 H65 0.930 . S
H59 C56 0.928 . S
H60 C57 0.931 . S
H61 C37 0.930 . S
H62 C34 0.930 . S
H63 C43 0.930 1_565 S
H64 C55 0.929 . S
H65 C58 0.930 . S
C66 C67 1.351 . S
C66 N69 1.368 . S
C66 H71 0.931 . S
C67 C66 1.351 . S
C67 N68 1.373 . S
C67 H95 0.930 . S
N68 C67 1.373 . S
N68 C70 1.340 . S
N69 C66 1.368 . S
N69 C70 1.321 . S
N69 Co72 2.135 . S
C70 N68 1.340 . S
C70 N69 1.321 . S
C70 H94 0.930 . S
H71 C66 0.931 . S
Co72 N69 2.135 . S
Co72 N75 2.121 . S
Co72 O80 2.055 . S
Co72 O83 2.039 . S
Co72 N86 2.140 . S
C73 O74 1.227 . S
C73 O83 1.265 . S
O74 C73 1.227 . S
N75 Co72 2.121 . S
N75 C77 1.375 . S
N75 C78 1.313 . S
C76 C77 1.338 . S
C76 N79 1.377 . S
C76 H96 0.930 1_655 S
C77 N75 1.375 . S
C77 C76 1.338 . S
C77 H81 0.931 . S
C78 N75 1.313 . S
C78 N79 1.344 . S
C78 H82 0.930 . S
N79 C76 1.377 . S
N79 C78 1.344 . S
O80 Co72 2.055 . S
O80 C84 1.253 . S
H81 C77 0.931 . S
H82 C78 0.930 . S
O83 Co72 2.039 . S
O83 C73 1.265 . S
C84 O80 1.253 . S
C84 O85 1.227 . S
O85 C84 1.227 . S
N86 Co72 2.140 . S
N86 C89 1.346 . S
N86 C90 1.345 . S
C87 C88 1.387 . S
C87 C91 1.391 . S
C88 C87 1.387 . S
C88 C89 1.369 . S
C88 H97 0.929 . S
C89 N86 1.346 . S
C89 C88 1.369 . S
C89 H92 0.928 . S
C90 N86 1.345 . S
C90 C91 1.371 . S
C90 H93 0.931 . S
C91 C87 1.391 . S
C91 C90 1.371 . S
C91 H98 0.930 . S
H92 C89 0.928 . S
H93 C90 0.931 . S
H94 C70 0.930 . S
H95 C67 0.930 . S
H96 C76 0.930 1_455 S
H97 C88 0.929 . S
H98 C91 0.930 . S
C99 C100 1.351 1_556 S
C99 N102 1.368 . S
C99 H104 0.931 . S
C100 C99 1.351 1_554 S
C100 N101 1.373 . S
C100 H128 0.930 . S
N101 C100 1.373 . S
N101 C103 1.340 . S
N102 C99 1.368 . S
N102 C103 1.321 1_556 S
N102 Co105 2.135 . S
C103 N101 1.340 . S
C103 N102 1.321 1_554 S
C103 H127 0.930 . S
H104 C99 0.931 . S
Co105 N102 2.135 . S
Co105 N108 2.121 . S
Co105 O113 2.055 . S
Co105 O116 2.039 . S
Co105 N119 2.140 . S
C106 O107 1.227 . S
C106 O116 1.265 . S
O107 C106 1.227 . S
N108 Co105 2.121 . S
N108 C110 1.375 . S
N108 C111 1.313 . S
C109 C110 1.338 . S
C109 N112 1.377 . S
C109 H129 0.930 1_565 S
C110 N108 1.375 . S
C110 C109 1.338 . S
C110 H114 0.931 . S
C111 N108 1.313 . S
C111 N112 1.344 . S
C111 H115 0.930 . S
N112 C109 1.377 . S
N112 C111 1.344 . S
O113 Co105 2.055 . S
O113 C117 1.253 . S
H114 C110 0.931 . S
H115 C111 0.930 . S
O116 Co105 2.039 . S
O116 C106 1.265 . S
C117 O113 1.253 . S
C117 O118 1.227 . S
O118 C117 1.227 . S
N119 Co105 2.140 . S
N119 C122 1.346 . S
N119 C123 1.345 . S
C120 C121 1.387 . S
C120 C124 1.391 . S
C121 C120 1.387 . S
C121 C122 1.369 . S
C121 H130 0.931 . S
C122 N119 1.346 . S
C122 C121 1.369 . S
C122 H125 0.928 . S
C123 N119 1.345 . S
C123 C124 1.371 . S
C123 H126 0.931 . S
C124 C120 1.391 . S
C124 C123 1.371 . S
C124 H131 0.930 . S
H125 C122 0.928 . S
H126 C123 0.931 . S
H127 C103 0.930 . S
H128 C100 0.930 . S
H129 C109 0.930 1_545 S
H130 C121 0.931 . S
H131 C124 0.930 . S
C132 C133 1.351 . S
C132 N135 1.368 . S
C132 H137 0.931 . S
C133 C132 1.351 . S
C133 N134 1.373 . S
C133 H161 0.930 . S
N134 C133 1.373 . S
N134 C136 1.340 . S
N135 C132 1.368 . S
N135 C136 1.321 . S
N135 Co138 2.135 . S
C136 N134 1.340 . S
C136 N135 1.321 . S
C136 H160 0.930 . S
H137 C132 0.931 . S
Co138 N135 2.135 . S
Co138 N141 2.121 . S
Co138 O146 2.055 . S
Co138 O149 2.039 . S
Co138 N152 2.140 . S
C139 O140 1.227 . S
C139 O149 1.265 . S
O140 C139 1.227 . S
N141 Co138 2.121 . S
N141 C143 1.375 . S
N141 C144 1.313 . S
C142 C143 1.338 . S
C142 N145 1.377 . S
C142 H162 0.930 1_455 S
C143 N141 1.375 . S
C143 C142 1.338 . S
C143 H147 0.931 . S
C144 N141 1.313 . S
C144 N145 1.344 . S
C144 H148 0.930 . S
N145 C142 1.377 . S
N145 C144 1.344 . S
O146 Co138 2.055 . S
O146 C150 1.253 . S
H147 C143 0.931 . S
H148 C144 0.930 . S
O149 Co138 2.039 . S
O149 C139 1.265 . S
C150 O146 1.253 . S
C150 O151 1.227 . S
O151 C150 1.227 . S
N152 Co138 2.140 . S
N152 C155 1.346 . S
N152 C156 1.345 . S
C153 C154 1.387 . S
C153 C157 1.391 . S
C154 C153 1.387 . S
C154 C155 1.369 . S
C154 H163 0.929 . S
C155 N152 1.346 . S
C155 C154 1.369 . S
C155 H158 0.928 . S
C156 N152 1.345 . S
C156 C157 1.371 . S
C156 H159 0.931 . S
C157 C153 1.391 . S
C157 C156 1.371 . S
C157 H164 0.930 . S
H158 C155 0.928 . S
H159 C156 0.931 . S
H160 C136 0.930 . S
H161 C133 0.930 . S
H162 C142 0.930 1_655 S
H163 C154 0.929 . S
H164 C157 0.930 . S
C165 C166 1.351 . S
C165 N168 1.368 . S
C165 H170 0.931 . S
C166 C165 1.351 . S
C166 N167 1.373 . S
C166 H194 0.930 . S
N167 C166 1.373 . S
N167 C169 1.340 . S
N168 C165 1.368 . S
N168 C169 1.321 . S
N168 Co171 2.135 . S
C169 N167 1.340 . S
C169 N168 1.321 . S
C169 H193 0.930 . S
H170 C165 0.931 . S
Co171 N168 2.135 . S
Co171 N174 2.121 . S
Co171 O179 2.055 . S
Co171 O182 2.039 . S
Co171 N185 2.140 . S
C172 O173 1.227 . S
C172 O182 1.265 . S
O173 C172 1.227 . S
N174 Co171 2.121 . S
N174 C176 1.375 . S
N174 C177 1.313 . S
C175 C176 1.338 . S
C175 N178 1.377 . S
C175 H195 0.930 1_545 S
C176 N174 1.375 . S
C176 C175 1.338 . S
C176 H180 0.931 . S
C177 N174 1.313 . S
C177 N178 1.344 . S
C177 H181 0.930 . S
N178 C175 1.377 . S
N178 C177 1.344 . S
O179 Co171 2.055 . S
O179 C183 1.253 . S
H180 C176 0.931 . S
H181 C177 0.930 . S
O182 Co171 2.039 . S
O182 C172 1.265 . S
C183 O179 1.253 . S
C183 O184 1.227 . S
O184 C183 1.227 . S
N185 Co171 2.140 . S
N185 C188 1.346 . S
N185 C189 1.345 . S
C186 C187 1.387 . S
C186 C190 1.391 . S
C187 C186 1.387 . S
C187 C188 1.369 . S
C187 H196 0.929 . S
C188 N185 1.346 . S
C188 C187 1.369 . S
C188 H191 0.928 . S
C189 N185 1.345 . S
C189 C190 1.371 . S
C189 H192 0.931 . S
C190 C186 1.391 . S
C190 C189 1.371 . S
C190 H197 0.930 . S
H191 C188 0.928 . S
H192 C189 0.931 . S
H193 C169 0.930 . S
H194 C166 0.930 . S
H195 C175 0.930 1_565 S
H196 C187 0.929 . S
H197 C190 0.930 . S
C198 C199 1.351 . S
C198 N201 1.368 . S
C198 H203 0.931 . S
C199 C198 1.351 . S
C199 N200 1.373 . S
C199 H227 0.930 . S
N200 C199 1.373 . S
N200 C202 1.340 . S
N201 C198 1.368 . S
N201 C202 1.321 . S
N201 Co204 2.135 . S
C202 N200 1.340 . S
C202 N201 1.321 . S
C202 H226 0.930 . S
H203 C198 0.931 . S
Co204 N201 2.135 . S
Co204 N207 2.121 . S
Co204 O212 2.055 . S
Co204 O215 2.039 . S
Co204 N218 2.140 . S
C205 O206 1.227 . S
C205 O215 1.265 . S
O206 C205 1.227 . S
N207 Co204 2.121 . S
N207 C209 1.375 . S
N207 C210 1.313 . S
C208 C209 1.338 . S
C208 N211 1.377 . S
C208 H228 0.930 1_655 S
C209 N207 1.375 . S
C209 C208 1.338 . S
C209 H213 0.931 . S
C210 N207 1.313 . S
C210 N211 1.344 . S
C210 H214 0.930 . S
N211 C208 1.377 . S
N211 C210 1.344 . S
O212 Co204 2.055 . S
O212 C216 1.253 . S
H213 C209 0.931 . S
H214 C210 0.930 . S
O215 Co204 2.039 . S
O215 C205 1.265 . S
C216 O212 1.253 . S
C216 O217 1.227 . S
O217 C216 1.227 . S
N218 Co204 2.140 . S
N218 C221 1.346 . S
N218 C222 1.345 . S
C219 C220 1.387 . S
C219 C223 1.391 . S
C220 C219 1.387 . S
C220 C221 1.369 . S
C220 H229 0.929 . S
C221 N218 1.346 . S
C221 C220 1.369 . S
C221 H224 0.928 . S
C222 N218 1.345 . S
C222 C223 1.371 . S
C222 H225 0.931 . S
C223 C219 1.391 . S
C223 C222 1.371 . S
C223 H230 0.930 . S
H224 C221 0.928 . S
H225 C222 0.931 . S
H226 C202 0.930 . S
H227 C199 0.930 . S
H228 C208 0.930 1_455 S
H229 C220 0.929 . S
H230 C223 0.930 . S
C231 C232 1.351 1_554 S
C231 N234 1.368 . S
C231 H236 0.931 . S
C232 C231 1.351 1_556 S
C232 N233 1.373 . S
C232 H260 0.930 . S
N233 C232 1.373 . S
N233 C235 1.340 . S
N234 C231 1.368 . S
N234 C235 1.321 1_554 S
N234 Co237 2.135 . S
C235 N233 1.340 . S
C235 N234 1.321 1_556 S
C235 H259 0.930 . S
H236 C231 0.931 . S
Co237 N234 2.135 . S
Co237 N240 2.121 . S
Co237 O245 2.055 . S
Co237 O248 2.039 . S
Co237 N251 2.140 . S
C238 O239 1.227 . S
C238 O248 1.265 . S
O239 C238 1.227 . S
N240 Co237 2.121 . S
N240 C242 1.375 . S
N240 C243 1.313 . S
C241 C242 1.338 . S
C241 N244 1.377 . S
C241 H261 0.930 1_565 S
C242 N240 1.375 . S
C242 C241 1.338 . S
C242 H246 0.931 . S
C243 N240 1.313 . S
C243 N244 1.344 . S
C243 H247 0.930 . S
N244 C241 1.377 . S
N244 C243 1.344 . S
O245 Co237 2.055 . S
O245 C249 1.253 . S
H246 C242 0.931 . S
H247 C243 0.930 . S
O248 Co237 2.039 . S
O248 C238 1.265 . S
C249 O245 1.253 . S
C249 O250 1.227 . S
O250 C249 1.227 . S
N251 Co237 2.140 . S
N251 C254 1.346 . S
N251 C255 1.345 . S
C252 C253 1.387 . S
C252 C256 1.391 . S
C253 C252 1.387 . S
C253 C254 1.369 . S
C253 H262 0.931 . S
C254 N251 1.346 . S
C254 C253 1.369 . S
C254 H257 0.928 . S
C255 N251 1.345 . S
C255 C256 1.371 . S
C255 H258 0.931 . S
C256 C252 1.391 . S
C256 C255 1.371 . S
C256 H263 0.930 . S
H257 C254 0.928 . S
H258 C255 0.931 . S
H259 C235 0.930 . S
H260 C232 0.930 . S
H261 C241 0.930 1_545 S
H262 C253 0.931 . S
H263 C256 0.930 . S
H264 C282 0.951 . S
H265 C284 0.951 . S
H266 C286 0.950 . S
H267 C287 0.950 . S
H268 C289 0.950 . S
H269 C292 0.950 . S
H270 C293 0.950 . S
H271 C295 0.950 . S
H272 C296 0.950 . S
H273 C297 0.951 . S
H274 C299 0.951 . S
H275 C301 0.950 . S
H276 C302 0.950 . S
H277 C304 0.950 . S
H278 C307 0.950 . S
H279 C308 0.950 . S
H280 C310 0.950 . S
H281 C311 0.950 . S
C282 H264 0.951 . S
C282 C283 1.366 . S
C282 C284 1.388 . S
C283 C282 1.366 . S
C283 C287 1.385 . S
C284 H265 0.951 . S
C284 C282 1.388 . S
C284 C285 1.366 . S
C285 C284 1.366 . S
C285 C286 1.414 . S
C285 C288 1.499 . S
C286 H266 0.950 . S
C286 C285 1.414 . S
C286 C287 1.374 . S
C287 H267 0.950 . S
C287 C283 1.385 . S
C287 C286 1.374 . S
C288 C285 1.499 . S
C288 C289 1.373 . S
C288 C290 1.389 . S
C289 H268 0.950 . S
C289 C288 1.373 . S
C289 C305 1.377 . S
C290 C288 1.389 . S
C290 C291 1.524 . S
C290 C304 1.377 . S
C291 C290 1.524 . S
C291 C292 1.397 . S
C291 C296 1.363 . S
C292 H269 0.950 . S
C292 C291 1.397 . S
C292 C293 1.334 . S
C293 H270 0.950 . S
C293 C292 1.334 . S
C293 C294 1.287 . S
C294 C293 1.287 . S
C294 C295 1.524 . S
C294 H313 0.913 . S
C295 H271 0.950 . S
C295 C294 1.524 . S
C295 C296 1.415 . S
C296 H272 0.950 . S
C296 C291 1.363 . S
C296 C295 1.415 . S
C297 H273 0.951 . S
C297 C298 1.366 . S
C297 C299 1.388 . S
C298 C297 1.366 . S
C298 C302 1.385 . S
C299 H274 0.951 . S
C299 C297 1.388 . S
C299 C300 1.366 . S
C300 C299 1.366 . S
C300 C301 1.414 . S
C300 C303 1.499 . S
C301 H275 0.950 . S
C301 C300 1.414 . S
C301 C302 1.374 . S
C302 H276 0.950 . S
C302 C298 1.385 . S
C302 C301 1.374 . S
C303 C300 1.499 . S
C303 C304 1.373 . S
C303 C305 1.389 . S
C304 H277 0.950 . S
C304 C290 1.377 . S
C304 C303 1.373 . S
C305 C289 1.377 . S
C305 C303 1.389 . S
C305 C306 1.524 . S
C306 C305 1.524 . S
C306 C307 1.397 . S
C306 C311 1.363 . S
C307 H278 0.950 . S
C307 C306 1.397 . S
C307 C308 1.334 . S
C308 H279 0.950 . S
C308 C307 1.334 . S
C308 C309 1.287 . S
C309 C308 1.287 . S
C309 C310 1.524 . S
C309 H312 0.999 . S
C310 H280 0.950 . S
C310 C309 1.524 . S
C310 C311 1.415 . S
C311 H281 0.950 . S
C311 C306 1.363 . S
C311 C310 1.415 . S
H312 C309 0.999 . S
H313 C294 0.913 . S
H314 C332 0.951 . S
H315 C334 0.951 . S
H316 C336 0.950 . S
H317 C337 0.950 . S
H318 C339 0.950 . S
H319 C342 0.950 . S
H320 C343 0.950 . S
H321 C345 0.950 . S
H322 C346 0.950 . S
H323 C347 0.951 . S
H324 C349 0.951 . S
H325 C351 0.950 . S
H326 C352 0.950 . S
H327 C354 0.950 . S
H328 C357 0.950 . S
H329 C358 0.950 1_565 S
H330 C360 0.950 . S
H331 C361 0.950 . S
C332 H314 0.951 . S
C332 C333 1.366 . S
C332 C334 1.388 . S
C333 C332 1.366 . S
C333 C337 1.385 . S
C334 H315 0.951 . S
C334 C332 1.388 . S
C334 C335 1.366 . S
C335 C334 1.366 . S
C335 C336 1.414 . S
C335 C338 1.499 . S
C336 H316 0.950 . S
C336 C335 1.414 . S
C336 C337 1.374 . S
C337 H317 0.950 . S
C337 C333 1.385 . S
C337 C336 1.374 . S
C338 C335 1.499 . S
C338 C339 1.373 . S
C338 C340 1.389 . S
C339 H318 0.950 . S
C339 C338 1.373 . S
C339 C355 1.377 . S
C340 C338 1.389 . S
C340 C341 1.524 . S
C340 C354 1.377 . S
C341 C340 1.524 . S
C341 C342 1.397 . S
C341 C346 1.363 . S
C342 H319 0.950 . S
C342 C341 1.397 . S
C342 C343 1.334 . S
C343 H320 0.950 . S
C343 C342 1.334 . S
C343 C344 1.287 . S
C344 C343 1.287 . S
C344 C345 1.524 . S
C344 H363 0.913 . S
C345 H321 0.950 . S
C345 C344 1.524 . S
C345 C346 1.415 . S
C346 H322 0.950 . S
C346 C341 1.363 . S
C346 C345 1.415 . S
C347 H323 0.951 . S
C347 C348 1.366 . S
C347 C349 1.388 . S
C348 C347 1.366 . S
C348 C352 1.385 . S
C349 H324 0.951 . S
C349 C347 1.388 . S
C349 C350 1.366 . S
C350 C349 1.366 . S
C350 C351 1.414 . S
C350 C353 1.499 . S
C351 H325 0.950 . S
C351 C350 1.414 . S
C351 C352 1.374 . S
C352 H326 0.950 . S
C352 C348 1.385 . S
C352 C351 1.374 . S
C353 C350 1.499 . S
C353 C354 1.373 . S
C353 C355 1.389 . S
C354 H327 0.950 . S
C354 C340 1.377 . S
C354 C353 1.373 . S
C355 C339 1.377 . S
C355 C353 1.389 . S
C355 C356 1.524 . S
C356 C355 1.524 . S
C356 C357 1.397 . S
C356 C361 1.363 . S
C357 H328 0.950 . S
C357 C356 1.397 . S
C357 C358 1.334 . S
C358 H329 0.950 1_545 S
C358 C357 1.334 . S
C358 C359 1.287 1_545 S
C359 C358 1.287 1_565 S
C359 C360 1.524 1_565 S
C359 H362 0.999 . S
C360 H330 0.950 . S
C360 C359 1.524 1_545 S
C360 C361 1.415 . S
C361 H331 0.950 . S
C361 C356 1.363 . S
C361 C360 1.415 . S
H362 C359 0.999 . S
H363 C344 0.913 . S
H364 C382 0.951 . S
H365 C384 0.951 . S
H366 C386 0.950 . S
H367 C387 0.950 . S
H368 C389 0.950 . S
H369 C392 0.950 . S
H370 C393 0.950 . S
H371 C395 0.950 1_455 S
H372 C396 0.950 . S
H373 C397 0.951 . S
H374 C399 0.951 . S
H375 C401 0.950 . S
H376 C402 0.950 . S
H377 C404 0.950 . S
H378 C407 0.950 . S
H379 C408 0.950 . S
H380 C410 0.950 . S
H381 C411 0.950 . S
C382 H364 0.951 . S
C382 C383 1.366 . S
C382 C384 1.388 . S
C383 C382 1.366 . S
C383 C387 1.385 . S
C384 H365 0.951 . S
C384 C382 1.388 . S
C384 C385 1.366 . S
C385 C384 1.366 . S
C385 C386 1.414 . S
C385 C388 1.499 . S
C386 H366 0.950 . S
C386 C385 1.414 . S
C386 C387 1.374 . S
C387 H367 0.950 . S
C387 C383 1.385 . S
C387 C386 1.374 . S
C388 C385 1.499 . S
C388 C389 1.373 . S
C388 C390 1.389 . S
C389 H368 0.950 . S
C389 C388 1.373 . S
C389 C405 1.377 . S
C390 C388 1.389 . S
C390 C391 1.524 . S
C390 C404 1.377 . S
C391 C390 1.524 . S
C391 C392 1.397 . S
C391 C396 1.363 . S
C392 H369 0.950 . S
C392 C391 1.397 . S
C392 C393 1.334 . S
C393 H370 0.950 . S
C393 C392 1.334 . S
C393 C394 1.287 . S
C394 C393 1.287 . S
C394 C395 1.524 . S
C394 H413 0.913 . S
C395 H371 0.950 1_655 S
C395 C394 1.524 . S
C395 C396 1.415 . S
C396 H372 0.950 . S
C396 C391 1.363 . S
C396 C395 1.415 . S
C397 H373 0.951 . S
C397 C398 1.366 . S
C397 C399 1.388 . S
C398 C397 1.366 . S
C398 C402 1.385 . S
C399 H374 0.951 . S
C399 C397 1.388 . S
C399 C400 1.366 . S
C400 C399 1.366 . S
C400 C401 1.414 . S
C400 C403 1.499 . S
C401 H375 0.950 . S
C401 C400 1.414 . S
C401 C402 1.374 . S
C402 H376 0.950 . S
C402 C398 1.385 . S
C402 C401 1.374 . S
C403 C400 1.499 . S
C403 C404 1.373 . S
C403 C405 1.389 . S
C404 H377 0.950 . S
C404 C390 1.377 . S
C404 C403 1.373 . S
C405 C389 1.377 . S
C405 C403 1.389 . S
C405 C406 1.524 . S
C406 C405 1.524 . S
C406 C407 1.397 . S
C406 C411 1.363 . S
C407 H378 0.950 . S
C407 C406 1.397 . S
C407 C408 1.334 . S
C408 H379 0.950 . S
C408 C407 1.334 . S
C408 C409 1.287 . S
C409 C408 1.287 . S
C409 C410 1.524 . S
C409 H412 0.999 . S
C410 H380 0.950 . S
C410 C409 1.524 . S
C410 C411 1.415 . S
C411 H381 0.950 . S
C411 C406 1.363 . S
C411 C410 1.415 . S
H412 C409 0.999 . S
H413 C394 0.913 . S
H414 C432 0.951 . S
H415 C434 0.951 . S
H416 C436 0.950 1_554 S
H417 C437 0.950 1_554 S
H418 C439 0.950 . S
H419 C442 0.950 1_554 S
H420 C443 0.950 . S
H421 C445 0.950 . S
H422 C446 0.950 . S
H423 C447 0.951 . S
H424 C449 0.951 . S
H425 C451 0.950 1_556 S
H426 C452 0.950 1_556 S
H427 C454 0.950 . S
H428 C457 0.950 1_556 S
H429 C458 0.950 1_545 S
H430 C460 0.930 1_545 S
H431 C461 0.950 . S
C432 H414 0.951 . S
C432 C433 1.366 . S
C432 C434 1.388 . S
C433 C432 1.366 . S
C433 C437 1.385 . S
C434 H415 0.951 . S
C434 C432 1.388 . S
C434 C435 1.366 . S
C435 C434 1.366 . S
C435 C436 1.414 . S
C435 C438 1.499 . S
C436 H416 0.950 1_556 S
C436 C435 1.414 . S
C436 C437 1.374 . S
C437 H417 0.950 1_556 S
C437 C433 1.385 . S
C437 C436 1.374 . S
C438 C435 1.499 . S
C438 C439 1.373 1_556 S
C438 C440 1.389 . S
C439 H418 0.950 . S
C439 C438 1.373 1_554 S
C439 C455 1.377 . S
C440 C438 1.389 . S
C440 C441 1.524 . S
C440 C454 1.377 . S
C441 C440 1.524 . S
C441 C442 1.397 . S
C441 C446 1.363 . S
C442 H419 0.950 1_556 S
C442 C441 1.397 . S
C442 C443 1.334 . S
C443 H420 0.950 . S
C443 C442 1.334 . S
C443 C444 1.287 . S
C444 C443 1.287 . S
C444 C445 1.524 . S
C444 H463 0.913 . S
C445 H421 0.950 . S
C445 C444 1.524 . S
C445 C446 1.415 . S
C446 H422 0.950 . S
C446 C441 1.363 . S
C446 C445 1.415 . S
C447 H423 0.951 . S
C447 C448 1.366 . S
C447 C449 1.388 . S
C448 C447 1.366 . S
C448 C452 1.385 . S
C449 H424 0.951 . S
C449 C447 1.388 . S
C449 C450 1.366 . S
C450 C449 1.366 . S
C450 C451 1.414 . S
C450 C453 1.499 . S
C451 H425 0.950 1_554 S
C451 C450 1.414 . S
C451 C452 1.374 . S
C452 H426 0.950 1_554 S
C452 C448 1.385 . S
C452 C451 1.374 . S
C453 C450 1.499 . S
C453 C454 1.373 1_554 S
C453 C455 1.389 . S
C454 H427 0.950 . S
C454 C440 1.377 . S
C454 C453 1.373 1_556 S
C455 C439 1.377 . S
C455 C453 1.389 . S
C455 C456 1.524 . S
C456 C455 1.524 . S
C456 C457 1.397 . S
C456 C461 1.363 . S
C457 H428 0.950 1_554 S
C457 C456 1.397 . S
C457 C458 1.334 . S
C458 H429 0.950 1_565 S
C458 C457 1.334 . S
C458 C459 1.287 1_565 S
C459 C458 1.287 1_545 S
C459 C460 1.513 1_545 S
C459 H462 0.999 . S
C460 H430 0.930 1_565 S
C460 C459 1.513 1_565 S
C460 C461 1.450 . S
C461 H431 0.950 . S
C461 C456 1.363 . S
C461 C460 1.450 . S
H462 C459 0.999 . S
H463 C444 0.913 . S
H464 C482 0.951 . S
H465 C484 0.951 . S
H466 C486 0.950 . S
H467 C487 0.950 . S
H468 C489 0.950 . S
H469 C492 0.950 . S
H470 C493 0.950 . S
H471 C495 0.950 . S
H472 C496 0.950 . S
H473 C497 0.951 . S
H474 C499 0.951 . S
H475 C501 0.950 . S
H476 C502 0.950 . S
H477 C504 0.950 . S
H478 C507 0.950 . S
H479 C508 0.950 . S
H480 C510 0.950 . S
H481 C511 0.950 . S
C482 H464 0.951 . S
C482 C483 1.366 . S
C482 C484 1.388 . S
C483 C482 1.366 . S
C483 C487 1.385 . S
C484 H465 0.951 . S
C484 C482 1.388 . S
C484 C485 1.366 . S
C485 C484 1.366 . S
C485 C486 1.414 . S
C485 C488 1.499 . S
C486 H466 0.950 . S
C486 C485 1.414 . S
C486 C487 1.374 . S
C487 H467 0.950 . S
C487 C483 1.385 . S
C487 C486 1.374 . S
C488 C485 1.499 . S
C488 C489 1.373 . S
C488 C490 1.389 . S
C489 H468 0.950 . S
C489 C488 1.373 . S
C489 C505 1.377 . S
C490 C488 1.389 . S
C490 C491 1.524 . S
C490 C504 1.377 . S
C491 C490 1.524 . S
C491 C492 1.397 . S
C491 C496 1.363 . S
C492 H469 0.950 . S
C492 C491 1.397 . S
C492 C493 1.334 . S
C493 H470 0.950 . S
C493 C492 1.334 . S
C493 C494 1.287 . S
C494 C493 1.287 . S
C494 C495 1.524 . S
C494 H513 0.913 . S
C495 H471 0.950 . S
C495 C494 1.524 . S
C495 C496 1.415 . S
C496 H472 0.950 . S
C496 C491 1.363 . S
C496 C495 1.415 . S
C497 H473 0.951 . S
C497 C498 1.366 . S
C497 C499 1.388 . S
C498 C497 1.366 . S
C498 C502 1.385 . S
C499 H474 0.951 . S
C499 C497 1.388 . S
C499 C500 1.366 . S
C500 C499 1.366 . S
C500 C501 1.414 . S
C500 C503 1.499 . S
C501 H475 0.950 . S
C501 C500 1.414 . S
C501 C502 1.374 . S
C502 H476 0.950 . S
C502 C498 1.385 . S
C502 C501 1.374 . S
C503 C500 1.499 . S
C503 C504 1.373 . S
C503 C505 1.389 . S
C504 H477 0.950 . S
C504 C490 1.377 . S
C504 C503 1.373 . S
C505 C489 1.377 . S
C505 C503 1.389 . S
C505 C506 1.524 . S
C506 C505 1.524 . S
C506 C507 1.397 . S
C506 C511 1.363 . S
C507 H478 0.950 . S
C507 C506 1.397 . S
C507 C508 1.334 . S
C508 H479 0.950 . S
C508 C507 1.334 . S
C508 C509 1.287 . S
C509 C508 1.287 . S
C509 C510 1.524 . S
C509 H512 0.999 . S
C510 H480 0.950 . S
C510 C509 1.524 . S
C510 C511 1.415 . S
C511 H481 0.950 . S
C511 C506 1.363 . S
C511 C510 1.415 . S
H512 C509 0.999 . S
H513 C494 0.913 . S
H514 C532 0.951 . S
H515 C534 0.951 . S
H516 C536 0.950 . S
H517 C537 0.950 . S
H518 C539 0.950 . S
H519 C542 0.950 . S
H520 C543 0.950 . S
H521 C545 0.950 . S
H522 C546 0.950 . S
H523 C547 0.951 . S
H524 C549 0.951 . S
H525 C551 0.950 . S
H526 C552 0.950 . S
H527 C554 0.950 . S
H528 C557 0.950 . S
H529 C558 0.950 . S
H530 C560 0.950 . S
H531 C561 0.950 . S
C532 H514 0.951 . S
C532 C533 1.366 . S
C532 C534 1.388 . S
C533 C532 1.366 . S
C533 C537 1.385 . S
C534 H515 0.951 . S
C534 C532 1.388 . S
C534 C535 1.366 . S
C535 C534 1.366 . S
C535 C536 1.414 . S
C535 C538 1.499 . S
C536 H516 0.950 . S
C536 C535 1.414 . S
C536 C537 1.374 . S
C537 H517 0.950 . S
C537 C533 1.385 . S
C537 C536 1.374 . S
C538 C535 1.499 . S
C538 C539 1.373 . S
C538 C540 1.389 . S
C539 H518 0.950 . S
C539 C538 1.373 . S
C539 C555 1.377 . S
C540 C538 1.389 . S
C540 C541 1.524 . S
C540 C554 1.377 . S
C541 C540 1.524 . S
C541 C542 1.397 . S
C541 C546 1.363 . S
C542 H519 0.950 . S
C542 C541 1.397 . S
C542 C543 1.334 . S
C543 H520 0.950 . S
C543 C542 1.334 . S
C543 C544 1.287 . S
C544 C543 1.287 . S
C544 C545 1.524 . S
C544 H563 0.913 . S
C545 H521 0.950 . S
C545 C544 1.524 . S
C545 C546 1.415 . S
C546 H522 0.950 . S
C546 C541 1.363 . S
C546 C545 1.415 . S
C547 H523 0.951 . S
C547 C548 1.366 . S
C547 C549 1.388 . S
C548 C547 1.366 . S
C548 C552 1.385 . S
C549 H524 0.951 . S
C549 C547 1.388 . S
C549 C550 1.366 . S
C550 C549 1.366 . S
C550 C551 1.414 . S
C550 C553 1.499 . S
C551 H525 0.950 . S
C551 C550 1.414 . S
C551 C552 1.374 . S
C552 H526 0.950 . S
C552 C548 1.385 . S
C552 C551 1.374 . S
C553 C550 1.499 . S
C553 C554 1.373 . S
C553 C555 1.389 . S
C554 H527 0.950 . S
C554 C540 1.377 . S
C554 C553 1.373 . S
C555 C539 1.377 . S
C555 C553 1.389 . S
C555 C556 1.524 . S
C556 C555 1.524 . S
C556 C557 1.397 . S
C556 C561 1.363 . S
C557 H528 0.950 . S
C557 C556 1.397 . S
C557 C558 1.334 . S
C558 H529 0.950 . S
C558 C557 1.334 . S
C558 C559 1.287 . S
C559 C558 1.287 . S
C559 C560 1.524 . S
C559 H562 0.999 . S
C560 H530 0.950 . S
C560 C559 1.524 . S
C560 C561 1.415 . S
C561 H531 0.950 . S
C561 C556 1.363 . S
C561 C560 1.415 . S
H562 C559 0.999 . S
H563 C544 0.913 . S
H564 C582 0.951 . S
H565 C584 0.951 . S
H566 C586 0.950 . S
H567 C587 0.950 . S
H568 C589 0.950 . S
H569 C592 0.950 . S
H570 C593 0.950 . S
H571 C595 0.950 . S
H572 C596 0.950 . S
H573 C597 0.951 . S
H574 C599 0.951 . S
H575 C601 0.950 . S
H576 C602 0.950 . S
H577 C604 0.950 . S
H578 C607 0.950 . S
H579 C608 0.950 . S
H580 C610 0.950 . S
H581 C611 0.950 . S
C582 H564 0.951 . S
C582 C583 1.366 . S
C582 C584 1.388 . S
C583 C582 1.366 . S
C583 C587 1.385 . S
C584 H565 0.951 . S
C584 C582 1.388 . S
C584 C585 1.366 . S
C585 C584 1.366 . S
C585 C586 1.414 . S
C585 C588 1.499 . S
C586 H566 0.950 . S
C586 C585 1.414 . S
C586 C587 1.374 . S
C587 H567 0.950 . S
C587 C583 1.385 . S
C587 C586 1.374 . S
C588 C585 1.499 . S
C588 C589 1.373 . S
C588 C590 1.389 . S
C589 H568 0.950 . S
C589 C588 1.373 . S
C589 C605 1.377 . S
C590 C588 1.389 . S
C590 C591 1.524 . S
C590 C604 1.377 . S
C591 C590 1.524 . S
C591 C592 1.397 . S
C591 C596 1.363 . S
C592 H569 0.950 . S
C592 C591 1.397 . S
C592 C593 1.334 . S
C593 H570 0.950 . S
C593 C592 1.334 . S
C593 C594 1.287 . S
C594 C593 1.287 . S
C594 C595 1.524 . S
C594 H613 0.913 . S
C595 H571 0.950 . S
C595 C594 1.524 . S
C595 C596 1.415 . S
C596 H572 0.950 . S
C596 C591 1.363 . S
C596 C595 1.415 . S
C597 H573 0.951 . S
C597 C598 1.366 . S
C597 C599 1.388 . S
C598 C597 1.366 . S
C598 C602 1.385 . S
C599 H574 0.951 . S
C599 C597 1.388 . S
C599 C600 1.366 . S
C600 C599 1.366 . S
C600 C601 1.414 . S
C600 C603 1.499 . S
C601 H575 0.950 . S
C601 C600 1.414 . S
C601 C602 1.374 . S
C602 H576 0.950 . S
C602 C598 1.385 . S
C602 C601 1.374 . S
C603 C600 1.499 . S
C603 C604 1.373 . S
C603 C605 1.389 . S
C604 H577 0.950 . S
C604 C590 1.377 . S
C604 C603 1.373 . S
C605 C589 1.377 . S
C605 C603 1.389 . S
C605 C606 1.524 . S
C606 C605 1.524 . S
C606 C607 1.397 . S
C606 C611 1.363 . S
C607 H578 0.950 . S
C607 C606 1.397 . S
C607 C608 1.334 . S
C608 H579 0.950 . S
C608 C607 1.334 . S
C608 C609 1.287 . S
C609 C608 1.287 . S
C609 C610 1.524 . S
C609 H612 0.999 . S
C610 H580 0.950 . S
C610 C609 1.524 . S
C610 C611 1.415 . S
C611 H581 0.950 . S
C611 C606 1.363 . S
C611 C610 1.415 . S
H612 C609 0.999 . S
H613 C594 0.913 . S
H614 C632 0.951 . S
H615 C634 0.951 . S
H616 C636 0.950 . S
H617 C637 0.950 . S
H618 C639 0.950 . S
H619 C642 0.950 . S
H620 C643 0.950 . S
H621 C645 0.950 . S
H622 C646 0.950 . S
H623 C647 0.951 . S
H624 C649 0.951 . S
H625 C651 0.950 . S
H626 C652 0.950 . S
H627 C654 0.950 . S
H628 C657 0.950 . S
H629 C658 0.950 . S
H630 C660 0.950 . S
H631 C661 0.950 . S
C632 H614 0.951 . S
C632 C633 1.366 . S
C632 C634 1.388 . S
C633 C632 1.366 . S
C633 C637 1.385 . S
C634 H615 0.951 . S
C634 C632 1.388 . S
C634 C635 1.366 . S
C635 C634 1.366 . S
C635 C636 1.414 . S
C635 C638 1.499 . S
C636 H616 0.950 . S
C636 C635 1.414 . S
C636 C637 1.374 . S
C637 H617 0.950 . S
C637 C633 1.385 . S
C637 C636 1.374 . S
C638 C635 1.499 . S
C638 C639 1.373 . S
C638 C640 1.389 . S
C639 H618 0.950 . S
C639 C638 1.373 . S
C639 C655 1.377 . S
C640 C638 1.389 . S
C640 C641 1.524 . S
C640 C654 1.377 . S
C641 C640 1.524 . S
C641 C642 1.397 . S
C641 C646 1.363 . S
C642 H619 0.950 . S
C642 C641 1.397 . S
C642 C643 1.334 . S
C643 H620 0.950 . S
C643 C642 1.334 . S
C643 C644 1.287 . S
C644 C643 1.287 . S
C644 C645 1.524 . S
C644 H663 0.913 . S
C645 H621 0.950 . S
C645 C644 1.524 . S
C645 C646 1.415 . S
C646 H622 0.950 . S
C646 C641 1.363 . S
C646 C645 1.415 . S
C647 H623 0.951 . S
C647 C648 1.366 . S
C647 C649 1.388 . S
C648 C647 1.366 . S
C648 C652 1.385 . S
C649 H624 0.951 . S
C649 C647 1.388 . S
C649 C650 1.366 . S
C650 C649 1.366 . S
C650 C651 1.414 . S
C650 C653 1.499 . S
C651 H625 0.950 . S
C651 C650 1.414 . S
C651 C652 1.374 . S
C652 H626 0.950 . S
C652 C648 1.385 . S
C652 C651 1.374 . S
C653 C650 1.499 . S
C653 C654 1.373 . S
C653 C655 1.389 . S
C654 H627 0.950 . S
C654 C640 1.377 . S
C654 C653 1.373 . S
C655 C639 1.377 . S
C655 C653 1.389 . S
C655 C656 1.524 . S
C656 C655 1.524 . S
C656 C657 1.397 . S
C656 C661 1.363 . S
C657 H628 0.950 . S
C657 C656 1.397 . S
C657 C658 1.334 . S
C658 H629 0.950 . S
C658 C657 1.334 . S
C658 C659 1.287 . S
C659 C658 1.287 . S
C659 C660 1.524 . S
C659 H662 0.999 . S
C660 H630 0.950 . S
C660 C659 1.524 . S
C660 C661 1.415 . S
C661 H631 0.950 . S
C661 C656 1.363 . S
C661 C660 1.415 . S
H662 C659 0.999 . S
H663 C644 0.913 . S
H664 C682 0.951 . S
H665 C684 0.951 . S
H666 C686 0.950 . S
H667 C687 0.950 . S
H668 C689 0.950 . S
H669 C692 0.950 1_655 S
H670 C693 0.950 . S
H671 C695 0.950 . S
H672 C696 0.950 1_556 S
H673 C697 0.951 . S
H674 C699 0.951 . S
H675 C701 0.950 . S
H676 C702 0.950 . S
H677 C704 0.950 . S
H678 C707 0.950 1_455 S
H679 C708 0.950 . S
H680 C710 0.950 . S
H681 C711 0.950 1_554 S
C682 H664 0.951 . S
C682 C683 1.366 . S
C682 C684 1.388 . S
C683 C682 1.366 . S
C683 C687 1.385 1_455 S
C684 H665 0.951 . S
C684 C682 1.388 . S
C684 C685 1.366 . S
C685 C684 1.366 . S
C685 C686 1.414 1_455 S
C685 C688 1.499 . S
C686 H666 0.950 . S
C686 C685 1.414 1_655 S
C686 C687 1.374 . S
C687 H667 0.950 . S
C687 C683 1.385 1_655 S
C687 C686 1.374 . S
C688 C685 1.499 . S
C688 C689 1.373 1_455 S
C688 C690 1.389 . S
C689 H668 0.950 . S
C689 C688 1.373 1_655 S
C689 C705 1.377 1_554 S
C690 C688 1.389 . S
C690 C691 1.524 . S
C690 C704 1.377 1_554 S
C691 C690 1.524 . S
C691 C692 1.397 . S
C691 C696 1.363 . S
C692 H669 0.950 1_455 S
C692 C691 1.397 . S
C692 C693 1.334 . S
C693 H670 0.950 . S
C693 C692 1.334 . S
C693 C694 1.287 . S
C694 C693 1.287 . S
C694 C695 1.524 . S
C694 H713 0.913 . S
C695 H671 0.950 . S
C695 C694 1.524 . S
C695 C696 1.415 . S
C696 H672 0.950 1_554 S
C696 C691 1.363 . S
C696 C695 1.415 . S
C697 H673 0.951 . S
C697 C698 1.366 . S
C697 C699 1.388 . S
C698 C697 1.366 . S
C698 C702 1.385 1_655 S
C699 H674 0.951 . S
C699 C697 1.388 . S
C699 C700 1.366 . S
C700 C699 1.366 . S
C700 C701 1.414 1_655 S
C700 C703 1.499 . S
C701 H675 0.950 . S
C701 C700 1.414 1_455 S
C701 C702 1.374 . S
C702 H676 0.950 . S
C702 C698 1.385 1_455 S
C702 C701 1.374 . S
C703 C700 1.499 . S
C703 C704 1.373 1_655 S
C703 C705 1.389 . S
C704 H677 0.950 . S
C704 C690 1.377 1_556 S
C704 C703 1.373 1_455 S
C705 C689 1.377 1_556 S
C705 C703 1.389 . S
C705 C706 1.524 . S
C706 C705 1.524 . S
C706 C707 1.397 . S
C706 C711 1.363 . S
C707 H678 0.950 1_655 S
C707 C706 1.397 . S
C707 C708 1.334 . S
C708 H679 0.950 . S
C708 C707 1.334 . S
C708 C709 1.287 . S
C709 C708 1.287 . S
C709 C710 1.524 . S
C709 H712 0.999 . S
C710 H680 0.950 . S
C710 C709 1.524 . S
C710 C711 1.415 . S
C711 H681 0.950 1_556 S
C711 C706 1.363 . S
C711 C710 1.415 . S
H712 C709 0.999 . S
H713 C694 0.913 . S
H714 C732 0.951 1_545 S
H715 C734 0.951 . S
H716 C736 0.950 . S
H717 C737 0.950 . S
H718 C739 0.950 . S
H719 C742 0.950 . S
H720 C743 0.950 . S
H721 C745 0.950 . S
H722 C746 0.950 . S
H723 C747 0.951 1_565 S
H724 C749 0.951 . S
H725 C751 0.950 . S
H726 C752 0.950 . S
H727 C754 0.950 . S
H728 C757 0.950 . S
H729 C758 0.950 . S
H730 C760 0.950 . S
H731 C761 0.950 . S
C732 H714 0.951 1_565 S
C732 C733 1.366 . S
C732 C734 1.388 1_565 S
C733 C732 1.366 . S
C733 C737 1.385 . S
C734 H715 0.951 . S
C734 C732 1.388 1_545 S
C734 C735 1.366 1_545 S
C735 C734 1.366 1_565 S
C735 C736 1.414 . S
C735 C738 1.499 . S
C736 H716 0.950 . S
C736 C735 1.414 . S
C736 C737 1.374 . S
C737 H717 0.950 . S
C737 C733 1.385 . S
C737 C736 1.374 . S
C738 C735 1.499 . S
C738 C739 1.373 . S
C738 C740 1.389 1_565 S
C739 H718 0.950 . S
C739 C738 1.373 . S
C739 C755 1.377 . S
C740 C738 1.389 1_545 S
C740 C741 1.524 . S
C740 C754 1.377 . S
C741 C740 1.524 . S
C741 C742 1.397 . S
C741 C746 1.363 . S
C742 H719 0.950 . S
C742 C741 1.397 . S
C742 C743 1.334 . S
C743 H720 0.950 . S
C743 C742 1.334 . S
C743 C744 1.287 . S
C744 C743 1.287 . S
C744 C745 1.524 . S
C744 H763 0.913 . S
C745 H721 0.950 . S
C745 C744 1.524 . S
C745 C746 1.415 . S
C746 H722 0.950 . S
C746 C741 1.363 . S
C746 C745 1.415 . S
C747 H723 0.951 1_545 S
C747 C748 1.366 . S
C747 C749 1.388 1_545 S
C748 C747 1.366 . S
C748 C752 1.385 . S
C749 H724 0.951 . S
C749 C747 1.388 1_565 S
C749 C750 1.366 1_565 S
C750 C749 1.366 1_545 S
C750 C751 1.414 . S
C750 C753 1.499 . S
C751 H725 0.950 . S
C751 C750 1.414 . S
C751 C752 1.374 . S
C752 H726 0.950 . S
C752 C748 1.385 . S
C752 C751 1.374 . S
C753 C750 1.499 . S
C753 C754 1.373 . S
C753 C755 1.389 1_545 S
C754 H727 0.950 . S
C754 C740 1.377 . S
C754 C753 1.373 . S
C755 C739 1.377 . S
C755 C753 1.389 1_565 S
C755 C756 1.524 . S
C756 C755 1.524 . S
C756 C757 1.397 . S
C756 C761 1.363 . S
C757 H728 0.950 . S
C757 C756 1.397 . S
C757 C758 1.334 . S
C758 H729 0.950 . S
C758 C757 1.334 . S
C758 C759 1.287 . S
C759 C758 1.287 . S
C759 C760 1.524 . S
C759 H762 0.999 . S
C760 H730 0.950 . S
C760 C759 1.524 . S
C760 C761 1.415 . S
C761 H731 0.950 . S
C761 C756 1.363 . S
C761 C760 1.415 . S
H762 C759 0.999 . S
H763 C744 0.913 . S
H764 C782 0.951 . S
H765 C784 0.951 . S
H766 C786 0.950 . S
H767 C787 0.950 . S
H768 C789 0.950 . S
H769 C792 0.950 . S
H770 C793 0.950 . S
H771 C795 0.950 . S
H772 C796 0.950 . S
H773 C797 0.951 . S
H774 C799 0.951 . S
H775 C801 0.950 . S
H776 C802 0.950 . S
H777 C804 0.950 . S
H778 C807 0.950 . S
H779 C808 0.950 . S
H780 C810 0.950 . S
H781 C811 0.950 . S
C782 H764 0.951 . S
C782 C783 1.366 . S
C782 C784 1.388 . S
C783 C782 1.366 . S
C783 C787 1.385 . S
C784 H765 0.951 . S
C784 C782 1.388 . S
C784 C785 1.366 . S
C785 C784 1.366 . S
C785 C786 1.414 . S
C785 C788 1.499 . S
C786 H766 0.950 . S
C786 C785 1.414 . S
C786 C787 1.374 . S
C787 H767 0.950 . S
C787 C783 1.385 . S
C787 C786 1.374 . S
C788 C785 1.499 . S
C788 C789 1.373 1_655 S
C788 C790 1.389 . S
C789 H768 0.950 . S
C789 C788 1.373 1_455 S
C789 C805 1.377 . S
C790 C788 1.389 . S
C790 C791 1.524 . S
C790 C804 1.377 . S
C791 C790 1.524 . S
C791 C792 1.397 . S
C791 C796 1.363 . S
C792 H769 0.950 . S
C792 C791 1.397 . S
C792 C793 1.334 . S
C793 H770 0.950 . S
C793 C792 1.334 . S
C793 C794 1.287 . S
C794 C793 1.287 . S
C794 C795 1.524 . S
C794 H813 0.913 . S
C795 H771 0.950 . S
C795 C794 1.524 . S
C795 C796 1.415 . S
C796 H772 0.950 . S
C796 C791 1.363 . S
C796 C795 1.415 . S
C797 H773 0.951 . S
C797 C798 1.366 . S
C797 C799 1.388 . S
C798 C797 1.366 . S
C798 C802 1.385 . S
C799 H774 0.951 . S
C799 C797 1.388 . S
C799 C800 1.366 . S
C800 C799 1.366 . S
C800 C801 1.414 . S
C800 C803 1.499 . S
C801 H775 0.950 . S
C801 C800 1.414 . S
C801 C802 1.374 . S
C802 H776 0.950 . S
C802 C798 1.385 . S
C802 C801 1.374 . S
C803 C800 1.499 . S
C803 C804 1.373 1_455 S
C803 C805 1.389 . S
C804 H777 0.950 . S
C804 C790 1.377 . S
C804 C803 1.373 1_655 S
C805 C789 1.377 . S
C805 C803 1.389 . S
C805 C806 1.524 . S
C806 C805 1.524 . S
C806 C807 1.397 . S
C806 C811 1.363 . S
C807 H778 0.950 . S
C807 C806 1.397 . S
C807 C808 1.334 . S
C808 H779 0.950 . S
C808 C807 1.334 . S
C808 C809 1.287 . S
C809 C808 1.287 . S
C809 C810 1.524 . S
C809 H812 0.999 . S
C810 H780 0.950 . S
C810 C809 1.524 . S
C810 C811 1.415 . S
C811 H781 0.950 . S
C811 C806 1.363 . S
C811 C810 1.415 . S
H812 C809 0.999 . S
H813 C794 0.913 . S
H814 C832 0.951 . S
H815 C834 0.951 . S
H816 C836 0.950 . S
H817 C837 0.949 1_565 S
H818 C839 0.950 . S
H819 C842 0.950 . S
H820 C843 0.950 . S
H821 C845 0.950 . S
H822 C846 0.950 . S
H823 C847 0.951 . S
H824 C849 0.951 . S
H825 C851 0.950 . S
H826 C852 0.949 1_545 S
H827 C854 0.950 . S
H828 C857 0.950 . S
H829 C858 0.950 . S
H830 C860 0.950 . S
H831 C861 0.950 . S
C832 H814 0.951 . S
C832 C833 1.366 . S
C832 C834 1.388 . S
C833 C832 1.366 . S
C833 C837 1.386 . S
C834 H815 0.951 . S
C834 C832 1.388 . S
C834 C835 1.366 . S
C835 C834 1.366 . S
C835 C836 1.414 1_545 S
C835 C838 1.499 . S
C836 H816 0.950 . S
C836 C835 1.414 1_565 S
C836 C837 1.373 1_565 S
C837 H817 0.949 1_545 S
C837 C833 1.386 . S
C837 C836 1.373 1_545 S
C838 C835 1.499 . S
C838 C839 1.373 1_545 S
C838 C840 1.389 . S
C839 H818 0.950 . S
C839 C838 1.373 1_565 S
C839 C855 1.377 . S
C840 C838 1.389 . S
C840 C841 1.524 . S
C840 C854 1.377 . S
C841 C840 1.524 . S
C841 C842 1.397 . S
C841 C846 1.363 . S
C842 H819 0.950 . S
C842 C841 1.397 . S
C842 C843 1.334 . S
C843 H820 0.950 . S
C843 C842 1.334 . S
C843 C844 1.287 . S
C844 C843 1.287 . S
C844 C845 1.524 . S
C844 H863 0.913 . S
C845 H821 0.950 . S
C845 C844 1.524 . S
C845 C846 1.415 . S
C846 H822 0.950 . S
C846 C841 1.363 . S
C846 C845 1.415 . S
C847 H823 0.951 . S
C847 C848 1.366 . S
C847 C849 1.388 . S
C848 C847 1.366 . S
C848 C852 1.386 . S
C849 H824 0.951 . S
C849 C847 1.388 . S
C849 C850 1.366 . S
C850 C849 1.366 . S
C850 C851 1.414 1_565 S
C850 C853 1.499 . S
C851 H825 0.950 . S
C851 C850 1.414 1_545 S
C851 C852 1.373 1_545 S
C852 H826 0.949 1_565 S
C852 C848 1.386 . S
C852 C851 1.373 1_565 S
C853 C850 1.499 . S
C853 C854 1.373 1_565 S
C853 C855 1.389 . S
C854 H827 0.950 . S
C854 C840 1.377 . S
C854 C853 1.373 1_545 S
C855 C839 1.377 . S
C855 C853 1.389 . S
C855 C856 1.524 . S
C856 C855 1.524 . S
C856 C857 1.397 . S
C856 C861 1.363 . S
C857 H828 0.950 . S
C857 C856 1.397 . S
C857 C858 1.334 . S
C858 H829 0.950 . S
C858 C857 1.334 . S
C858 C859 1.287 . S
C859 C858 1.287 . S
C859 C860 1.524 . S
C859 H862 0.999 . S
C860 H830 0.950 . S
C860 C859 1.524 . S
C860 C861 1.415 . S
C861 H831 0.950 . S
C861 C856 1.363 . S
C861 C860 1.415 . S
H862 C859 0.999 . S
H863 C844 0.913 . S
H864 C882 0.951 . S
H865 C884 0.951 . S
H866 C886 0.950 . S
H867 C887 0.950 . S
H868 C889 0.950 . S
H869 C892 0.950 . S
H870 C893 0.950 . S
H871 C895 0.950 . S
H872 C896 0.950 . S
H873 C897 0.951 . S
H874 C899 0.951 . S
H875 C901 0.950 . S
H876 C902 0.950 1_556 S
H877 C904 0.950 . S
H878 C907 0.950 . S
H879 C908 0.950 . S
H880 C910 0.950 . S
H881 C911 0.950 . S
C882 H864 0.951 . S
C882 C883 1.366 . S
C882 C884 1.388 . S
C883 C882 1.366 . S
C883 C887 1.385 . S
C884 H865 0.951 . S
C884 C882 1.388 . S
C884 C885 1.366 . S
C885 C884 1.366 . S
C885 C886 1.414 . S
C885 C888 1.499 . S
C886 H866 0.950 . S
C886 C885 1.414 . S
C886 C887 1.374 . S
C887 H867 0.950 . S
C887 C883 1.385 . S
C887 C886 1.374 . S
C888 C885 1.499 . S
C888 C889 1.373 . S
C888 C890 1.389 . S
C889 H868 0.950 . S
C889 C888 1.373 . S
C889 C905 1.377 . S
C890 C888 1.389 . S
C890 C891 1.524 . S
C890 C904 1.377 . S
C891 C890 1.524 . S
C891 C892 1.397 . S
C891 C896 1.363 . S
C892 H869 0.950 . S
C892 C891 1.397 . S
C892 C893 1.334 . S
C893 H870 0.950 . S
C893 C892 1.334 . S
C893 C894 1.287 . S
C894 C893 1.287 . S
C894 C895 1.524 . S
C894 H913 0.913 . S
C895 H871 0.950 . S
C895 C894 1.524 . S
C895 C896 1.415 . S
C896 H872 0.950 . S
C896 C891 1.363 . S
C896 C895 1.415 . S
C897 H873 0.951 . S
C897 C898 1.366 . S
C897 C899 1.388 . S
C898 C897 1.366 . S
C898 C902 1.385 . S
C899 H874 0.951 . S
C899 C897 1.388 . S
C899 C900 1.366 . S
C900 C899 1.366 . S
C900 C901 1.414 . S
C900 C903 1.499 . S
C901 H875 0.950 . S
C901 C900 1.414 . S
C901 C902 1.374 . S
C902 H876 0.950 1_554 S
C902 C898 1.385 . S
C902 C901 1.374 . S
C903 C900 1.499 . S
C903 C904 1.373 . S
C903 C905 1.389 . S
C904 H877 0.950 . S
C904 C890 1.377 . S
C904 C903 1.373 . S
C905 C889 1.377 . S
C905 C903 1.389 . S
C905 C906 1.524 . S
C906 C905 1.524 . S
C906 C907 1.397 . S
C906 C911 1.363 . S
C907 H878 0.950 . S
C907 C906 1.397 . S
C907 C908 1.334 1_554 S
C908 H879 0.950 . S
C908 C907 1.334 1_556 S
C908 C909 1.287 1_556 S
C909 C908 1.287 1_554 S
C909 C910 1.524 . S
C909 H912 0.999 1_554 S
C910 H880 0.950 . S
C910 C909 1.524 . S
C910 C911 1.415 . S
C911 H881 0.950 . S
C911 C906 1.363 . S
C911 C910 1.415 . S
H912 C909 0.999 1_556 S
H913 C894 0.913 . S
H914 C932 0.951 . S
H915 C934 0.951 . S
H916 C936 0.950 . S
H917 C937 0.950 . S
H918 C939 0.950 . S
H919 C942 0.950 . S
H920 C943 0.950 1_455 S
H921 C945 0.950 . S
H922 C946 0.950 . S
H923 C947 0.951 . S
H924 C949 0.951 . S
H925 C951 0.950 . S
H926 C952 0.950 . S
H927 C954 0.950 . S
H928 C957 0.950 . S
H929 C958 0.950 . S
H930 C960 0.950 . S
H931 C961 0.950 . S
C932 H914 0.951 . S
C932 C933 1.366 . S
C932 C934 1.388 . S
C933 C932 1.366 . S
C933 C937 1.385 . S
C934 H915 0.951 . S
C934 C932 1.388 . S
C934 C935 1.366 . S
C935 C934 1.366 . S
C935 C936 1.414 . S
C935 C938 1.499 . S
C936 H916 0.950 . S
C936 C935 1.414 . S
C936 C937 1.374 . S
C937 H917 0.950 . S
C937 C933 1.385 . S
C937 C936 1.374 . S
C938 C935 1.499 . S
C938 C939 1.373 . S
C938 C940 1.389 . S
C939 H918 0.950 . S
C939 C938 1.373 . S
C939 C955 1.377 . S
C940 C938 1.389 . S
C940 C941 1.524 . S
C940 C954 1.377 . S
C941 C940 1.524 . S
C941 C942 1.397 . S
C941 C946 1.363 . S
C942 H919 0.950 . S
C942 C941 1.397 . S
C942 C943 1.334 . S
C943 H920 0.950 1_655 S
C943 C942 1.334 . S
C943 C944 1.287 . S
C944 C943 1.287 . S
C944 C945 1.524 . S
C944 H963 0.913 1_655 S
C945 H921 0.950 . S
C945 C944 1.524 . S
C945 C946 1.415 . S
C946 H922 0.950 . S
C946 C941 1.363 . S
C946 C945 1.415 . S
C947 H923 0.951 . S
C947 C948 1.366 . S
C947 C949 1.388 . S
C948 C947 1.366 . S
C948 C952 1.385 . S
C949 H924 0.951 . S
C949 C947 1.388 . S
C949 C950 1.366 . S
C950 C949 1.366 . S
C950 C951 1.414 . S
C950 C953 1.499 . S
C951 H925 0.950 . S
C951 C950 1.414 . S
C951 C952 1.374 . S
C952 H926 0.950 . S
C952 C948 1.385 . S
C952 C951 1.374 . S
C953 C950 1.499 . S
C953 C954 1.373 . S
C953 C955 1.389 . S
C954 H927 0.950 . S
C954 C940 1.377 . S
C954 C953 1.373 . S
C955 C939 1.377 . S
C955 C953 1.389 . S
C955 C956 1.524 . S
C956 C955 1.524 . S
C956 C957 1.397 . S
C956 C961 1.363 . S
C957 H928 0.950 . S
C957 C956 1.397 . S
C957 C958 1.334 . S
C958 H929 0.950 . S
C958 C957 1.334 . S
C958 C959 1.287 . S
C959 C958 1.287 . S
C959 C960 1.524 . S
C959 H962 0.999 . S
C960 H930 0.950 . S
C960 C959 1.524 . S
C960 C961 1.415 . S
C961 H931 0.950 . S
C961 C956 1.363 . S
C961 C960 1.415 . S
H962 C959 0.999 . S
H963 C944 0.913 1_455 S
H964 C982 0.951 . S
H965 C984 0.951 . S
H966 C986 0.950 . S
H967 C987 0.950 1_545 S
H968 C989 0.950 . S
H969 C992 0.950 . S
H970 C993 0.950 1_545 S
H971 C995 0.950 . S
H972 C996 0.950 . S
H973 C997 0.951 . S
H974 C999 0.951 . S
H975 C1001 0.950 . S
H976 C1002 0.950 . S
H977 C1004 0.950 . S
H978 C1007 0.950 . S
H979 C1008 0.950 . S
H980 C1010 0.950 . S
H981 C1011 0.950 . S
C982 H964 0.951 . S
C982 C983 1.366 . S
C982 C984 1.388 . S
C983 C982 1.366 . S
C983 C987 1.385 . S
C984 H965 0.951 . S
C984 C982 1.388 . S
C984 C985 1.366 . S
C985 C984 1.366 . S
C985 C986 1.414 . S
C985 C988 1.499 . S
C986 H966 0.950 . S
C986 C985 1.414 . S
C986 C987 1.374 . S
C987 H967 0.950 1_565 S
C987 C983 1.385 . S
C987 C986 1.374 . S
C988 C985 1.499 . S
C988 C989 1.373 . S
C988 C990 1.389 . S
C989 H968 0.950 . S
C989 C988 1.373 . S
C989 C1005 1.377 . S
C990 C988 1.389 . S
C990 C991 1.524 . S
C990 C1004 1.377 . S
C991 C990 1.524 . S
C991 C992 1.397 . S
C991 C996 1.363 . S
C992 H969 0.950 . S
C992 C991 1.397 . S
C992 C993 1.334 . S
C993 H970 0.950 1_565 S
C993 C992 1.334 . S
C993 C994 1.287 . S
C994 C993 1.287 . S
C994 C995 1.524 . S
C994 H1013 0.913 . S
C995 H971 0.950 . S
C995 C994 1.524 . S
C995 C996 1.415 . S
C996 H972 0.950 . S
C996 C991 1.363 . S
C996 C995 1.415 . S
C997 H973 0.951 . S
C997 C998 1.366 . S
C997 C999 1.388 . S
C998 C997 1.366 . S
C998 C1002 1.385 . S
C999 H974 0.951 . S
C999 C997 1.388 . S
C999 C1000 1.366 . S
C1000 C999 1.366 . S
C1000 C1001 1.414 . S
C1000 C1003 1.499 . S
C1001 H975 0.950 . S
C1001 C1000 1.414 . S
C1001 C1002 1.374 . S
C1002 H976 0.950 . S
C1002 C998 1.385 . S
C1002 C1001 1.374 . S
C1003 C1000 1.499 . S
C1003 C1004 1.373 . S
C1003 C1005 1.389 . S
C1004 H977 0.950 . S
C1004 C990 1.377 . S
C1004 C1003 1.373 . S
C1005 C989 1.377 . S
C1005 C1003 1.389 . S
C1005 C1006 1.524 . S
C1006 C1005 1.524 . S
C1006 C1007 1.397 . S
C1006 C1011 1.363 . S
C1007 H978 0.950 . S
C1007 C1006 1.397 . S
C1007 C1008 1.334 . S
C1008 H979 0.950 . S
C1008 C1007 1.334 . S
C1008 C1009 1.287 . S
C1009 C1008 1.287 . S
C1009 C1010 1.524 . S
C1009 H1012 0.999 . S
C1010 H980 0.950 . S
C1010 C1009 1.524 . S
C1010 C1011 1.415 . S
C1011 H981 0.950 . S
C1011 C1006 1.363 . S
C1011 C1010 1.415 . S
H1012 C1009 0.999 . S
H1013 C994 0.913 . S
H1014 C1032 0.951 . S
H1015 C1034 0.951 . S
H1016 C1036 0.950 . S
H1017 C1037 0.950 . S
H1018 C1039 0.950 . S
H1019 C1042 0.950 . S
H1020 C1043 0.950 . S
H1021 C1045 0.950 . S
H1022 C1046 0.950 . S
H1023 C1047 0.951 . S
H1024 C1049 0.951 . S
H1025 C1051 0.950 . S
H1026 C1052 0.950 . S
H1027 C1054 0.950 . S
H1028 C1057 0.950 . S
H1029 C1058 0.950 . S
H1030 C1060 0.950 . S
H1031 C1061 0.950 . S
C1032 H1014 0.951 . S
C1032 C1033 1.366 . S
C1032 C1034 1.388 . S
C1033 C1032 1.366 . S
C1033 C1037 1.385 . S
C1034 H1015 0.951 . S
C1034 C1032 1.388 . S
C1034 C1035 1.366 . S
C1035 C1034 1.366 . S
C1035 C1036 1.414 . S
C1035 C1038 1.499 . S
C1036 H1016 0.950 . S
C1036 C1035 1.414 . S
C1036 C1037 1.374 . S
C1037 H1017 0.950 . S
C1037 C1033 1.385 . S
C1037 C1036 1.374 . S
C1038 C1035 1.499 . S
C1038 C1039 1.373 . S
C1038 C1040 1.389 . S
C1039 H1018 0.950 . S
C1039 C1038 1.373 . S
C1039 C1055 1.377 . S
C1040 C1038 1.389 . S
C1040 C1041 1.524 . S
C1040 C1054 1.377 . S
C1041 C1040 1.524 . S
C1041 C1042 1.397 . S
C1041 C1046 1.363 . S
C1042 H1019 0.950 . S
C1042 C1041 1.397 . S
C1042 C1043 1.334 . S
C1043 H1020 0.950 . S
C1043 C1042 1.334 . S
C1043 C1044 1.287 . S
C1044 C1043 1.287 . S
C1044 C1045 1.524 . S
C1044 H1063 0.913 . S
C1045 H1021 0.950 . S
C1045 C1044 1.524 . S
C1045 C1046 1.415 . S
C1046 H1022 0.950 . S
C1046 C1041 1.363 . S
C1046 C1045 1.415 . S
C1047 H1023 0.951 . S
C1047 C1048 1.366 . S
C1047 C1049 1.388 . S
C1048 C1047 1.366 . S
C1048 C1052 1.385 . S
C1049 H1024 0.951 . S
C1049 C1047 1.388 . S
C1049 C1050 1.366 . S
C1050 C1049 1.366 . S
C1050 C1051 1.414 . S
C1050 C1053 1.499 . S
C1051 H1025 0.950 . S
C1051 C1050 1.414 . S
C1051 C1052 1.374 . S
C1052 H1026 0.950 . S
C1052 C1048 1.385 . S
C1052 C1051 1.374 . S
C1053 C1050 1.499 . S
C1053 C1054 1.373 . S
C1053 C1055 1.389 . S
C1054 H1027 0.950 . S
C1054 C1040 1.377 . S
C1054 C1053 1.373 . S
C1055 C1039 1.377 . S
C1055 C1053 1.389 . S
C1055 C1056 1.524 . S
C1056 C1055 1.524 . S
C1056 C1057 1.397 . S
C1056 C1061 1.363 . S
C1057 H1028 0.950 . S
C1057 C1056 1.397 . S
C1057 C1058 1.334 . S
C1058 H1029 0.950 . S
C1058 C1057 1.334 . S
C1058 C1059 1.287 . S
C1059 C1058 1.287 . S
C1059 C1060 1.524 . S
C1059 H1062 0.999 . S
C1060 H1030 0.950 . S
C1060 C1059 1.524 . S
C1060 C1061 1.415 . S
C1061 H1031 0.950 . S
C1061 C1056 1.363 . S
C1061 C1060 1.415 . S
H1062 C1059 0.999 . S
H1063 C1044 0.913 . S
H1064 C1082 0.951 . S
H1065 C1084 0.951 . S
H1066 C1086 0.950 . S
H1067 C1087 0.950 . S
H1068 C1089 0.950 . S
H1069 C1092 0.950 . S
H1070 C1093 0.950 . S
H1071 C1095 0.950 . S
H1072 C1096 0.950 . S
H1073 C1097 0.951 1_545 S
H1074 C1099 0.951 . S
H1075 C1101 0.950 . S
H1076 C1102 0.950 . S
H1077 C1104 0.950 . S
H1078 C1107 0.950 . S
H1079 C1108 0.950 . S
H1080 C1110 0.950 . S
H1081 C1111 0.950 . S
C1082 H1064 0.951 . S
C1082 C1083 1.366 . S
C1082 C1084 1.388 . S
C1083 C1082 1.366 . S
C1083 C1087 1.385 . S
C1084 H1065 0.951 . S
C1084 C1082 1.388 . S
C1084 C1085 1.366 . S
C1085 C1084 1.366 . S
C1085 C1086 1.414 . S
C1085 C1088 1.499 . S
C1086 H1066 0.950 . S
C1086 C1085 1.414 . S
C1086 C1087 1.374 . S
C1087 H1067 0.950 . S
C1087 C1083 1.385 . S
C1087 C1086 1.374 . S
C1088 C1085 1.499 . S
C1088 C1089 1.373 . S
C1088 C1090 1.389 . S
C1089 H1068 0.950 . S
C1089 C1088 1.373 . S
C1089 C1105 1.377 . S
C1090 C1088 1.389 . S
C1090 C1091 1.524 . S
C1090 C1104 1.377 . S
C1091 C1090 1.524 . S
C1091 C1092 1.397 . S
C1091 C1096 1.363 . S
C1092 H1069 0.950 . S
C1092 C1091 1.397 . S
C1092 C1093 1.334 . S
C1093 H1070 0.950 . S
C1093 C1092 1.334 . S
C1093 C1094 1.287 . S
C1094 C1093 1.287 . S
C1094 C1095 1.524 . S
C1094 H1113 0.913 . S
C1095 H1071 0.950 . S
C1095 C1094 1.524 . S
C1095 C1096 1.415 . S
C1096 H1072 0.950 . S
C1096 C1091 1.363 . S
C1096 C1095 1.415 . S
C1097 H1073 0.951 1_565 S
C1097 C1098 1.366 . S
C1097 C1099 1.388 . S
C1098 C1097 1.366 . S
C1098 C1102 1.385 . S
C1099 H1074 0.951 . S
C1099 C1097 1.388 . S
C1099 C1100 1.366 . S
C1100 C1099 1.366 . S
C1100 C1101 1.414 . S
C1100 C1103 1.499 . S
C1101 H1075 0.950 . S
C1101 C1100 1.414 . S
C1101 C1102 1.374 . S
C1102 H1076 0.950 . S
C1102 C1098 1.385 . S
C1102 C1101 1.374 . S
C1103 C1100 1.499 . S
C1103 C1104 1.373 . S
C1103 C1105 1.389 . S
C1104 H1077 0.950 . S
C1104 C1090 1.377 . S
C1104 C1103 1.373 . S
C1105 C1089 1.377 . S
C1105 C1103 1.389 . S
C1105 C1106 1.524 . S
C1106 C1105 1.524 . S
C1106 C1107 1.397 . S
C1106 C1111 1.363 . S
C1107 H1078 0.950 . S
C1107 C1106 1.397 . S
C1107 C1108 1.334 1_565 S
C1108 H1079 0.950 . S
C1108 C1107 1.334 1_545 S
C1108 C1109 1.287 . S
C1109 C1108 1.287 . S
C1109 C1110 1.524 . S
C1109 H1112 0.999 . S
C1110 H1080 0.950 . S
C1110 C1109 1.524 . S
C1110 C1111 1.415 1_545 S
C1111 H1081 0.950 . S
C1111 C1106 1.363 . S
C1111 C1110 1.415 1_565 S
H1112 C1109 0.999 . S
H1113 C1094 0.913 . S
H1114 C1132 0.951 . S
H1115 C1134 0.951 . S
H1116 C1136 0.950 . S
H1117 C1137 0.950 . S
H1118 C1139 0.950 . S
H1119 C1142 0.950 . S
H1120 C1143 0.950 . S
H1121 C1145 0.950 . S
H1122 C1146 0.950 . S
H1123 C1147 0.951 . S
H1124 C1149 0.951 . S
H1125 C1151 0.950 . S
H1126 C1152 0.950 . S
H1127 C1154 0.950 . S
H1128 C1157 0.950 . S
H1129 C1158 0.950 . S
H1130 C1160 0.950 . S
H1131 C1161 0.950 . S
C1132 H1114 0.951 . S
C1132 C1133 1.366 . S
C1132 C1134 1.388 . S
C1133 C1132 1.366 . S
C1133 C1137 1.385 . S
C1134 H1115 0.951 . S
C1134 C1132 1.388 . S
C1134 C1135 1.366 . S
C1135 C1134 1.366 . S
C1135 C1136 1.414 . S
C1135 C1138 1.499 . S
C1136 H1116 0.950 . S
C1136 C1135 1.414 . S
C1136 C1137 1.374 . S
C1137 H1117 0.950 . S
C1137 C1133 1.385 . S
C1137 C1136 1.374 . S
C1138 C1135 1.499 . S
C1138 C1139 1.373 . S
C1138 C1140 1.389 . S
C1139 H1118 0.950 . S
C1139 C1138 1.373 . S
C1139 C1155 1.377 . S
C1140 C1138 1.389 . S
C1140 C1141 1.524 . S
C1140 C1154 1.377 . S
C1141 C1140 1.524 . S
C1141 C1142 1.397 . S
C1141 C1146 1.363 . S
C1142 H1119 0.950 . S
C1142 C1141 1.397 . S
C1142 C1143 1.334 . S
C1143 H1120 0.950 . S
C1143 C1142 1.334 . S
C1143 C1144 1.287 . S
C1144 C1143 1.287 . S
C1144 C1145 1.524 . S
C1144 H1163 0.913 . S
C1145 H1121 0.950 . S
C1145 C1144 1.524 . S
C1145 C1146 1.415 . S
C1146 H1122 0.950 . S
C1146 C1141 1.363 . S
C1146 C1145 1.415 . S
C1147 H1123 0.951 . S
C1147 C1148 1.366 . S
C1147 C1149 1.388 . S
C1148 C1147 1.366 . S
C1148 C1152 1.385 1_455 S
C1149 H1124 0.951 . S
C1149 C1147 1.388 . S
C1149 C1150 1.366 . S
C1150 C1149 1.366 . S
C1150 C1151 1.414 . S
C1150 C1153 1.499 . S
C1151 H1125 0.950 . S
C1151 C1150 1.414 . S
C1151 C1152 1.374 1_455 S
C1152 H1126 0.950 . S
C1152 C1148 1.385 1_655 S
C1152 C1151 1.374 1_655 S
C1153 C1150 1.499 . S
C1153 C1154 1.373 . S
C1153 C1155 1.389 . S
C1154 H1127 0.950 . S
C1154 C1140 1.377 . S
C1154 C1153 1.373 . S
C1155 C1139 1.377 . S
C1155 C1153 1.389 . S
C1155 C1156 1.524 . S
C1156 C1155 1.524 . S
C1156 C1157 1.397 . S
C1156 C1161 1.363 . S
C1157 H1128 0.950 . S
C1157 C1156 1.397 . S
C1157 C1158 1.334 . S
C1158 H1129 0.950 . S
C1158 C1157 1.334 . S
C1158 C1159 1.287 . S
C1159 C1158 1.287 . S
C1159 C1160 1.524 . S
C1159 H1162 0.999 . S
C1160 H1130 0.950 . S
C1160 C1159 1.524 . S
C1160 C1161 1.415 . S
C1161 H1131 0.950 . S
C1161 C1156 1.363 . S
C1161 C1160 1.415 . S
H1162 C1159 0.999 . S
H1163 C1144 0.913 . S
H1164 C1182 0.951 . S
H1165 C1184 0.951 . S
H1166 C1186 0.950 . S
H1167 C1187 0.950 . S
H1168 C1189 0.950 . S
H1169 C1192 0.950 . S
H1170 C1193 0.950 . S
H1171 C1195 0.950 1_554 S
H1172 C1196 0.950 . S
H1173 C1197 0.966 . S
H1174 C1199 0.951 . S
H1175 C1201 0.950 . S
H1176 C1202 0.950 . S
H1177 C1204 0.950 . S
H1178 C1207 0.950 . S
H1179 C1208 0.950 . S
H1180 C1210 0.950 1_565 S
H1181 C1211 0.950 . S
C1182 H1164 0.951 . S
C1182 C1183 1.366 . S
C1182 C1184 1.388 . S
C1183 C1182 1.366 . S
C1183 C1187 1.385 . S
C1184 H1165 0.951 . S
C1184 C1182 1.388 . S
C1184 C1185 1.366 . S
C1185 C1184 1.366 . S
C1185 C1186 1.414 . S
C1185 C1188 1.499 . S
C1186 H1166 0.950 . S
C1186 C1185 1.414 . S
C1186 C1187 1.374 . S
C1187 H1167 0.950 . S
C1187 C1183 1.385 . S
C1187 C1186 1.374 . S
C1188 C1185 1.499 . S
C1188 C1189 1.373 . S
C1188 C1190 1.389 . S
C1189 H1168 0.950 . S
C1189 C1188 1.373 . S
C1189 C1205 1.377 . S
C1190 C1188 1.389 . S
C1190 C1191 1.524 . S
C1190 C1204 1.377 . S
C1191 C1190 1.524 . S
C1191 C1192 1.397 . S
C1191 C1196 1.363 . S
C1192 H1169 0.950 . S
C1192 C1191 1.397 . S
C1192 C1193 1.334 . S
C1193 H1170 0.950 . S
C1193 C1192 1.334 . S
C1193 C1194 1.287 . S
C1194 C1193 1.287 . S
C1194 C1195 1.524 . S
C1194 H1213 0.913 . S
C1195 H1171 0.950 1_556 S
C1195 C1194 1.524 . S
C1195 C1196 1.415 . S
C1196 H1172 0.950 . S
C1196 C1191 1.363 . S
C1196 C1195 1.415 . S
C1197 H1173 0.966 . S
C1197 C1198 1.362 1_565 S
C1197 C1199 1.377 1_565 S
C1198 C1197 1.362 1_545 S
C1198 C1202 1.385 1_556 S
C1199 H1174 0.951 . S
C1199 C1197 1.377 1_545 S
C1199 C1200 1.366 . S
C1200 C1199 1.366 . S
C1200 C1201 1.414 . S
C1200 C1203 1.499 . S
C1201 H1175 0.950 . S
C1201 C1200 1.414 . S
C1201 C1202 1.374 1_556 S
C1202 H1176 0.950 . S
C1202 C1198 1.385 1_554 S
C1202 C1201 1.374 1_554 S
C1203 C1200 1.499 . S
C1203 C1204 1.373 . S
C1203 C1205 1.389 . S
C1204 H1177 0.950 . S
C1204 C1190 1.377 . S
C1204 C1203 1.373 . S
C1205 C1189 1.377 . S
C1205 C1203 1.389 . S
C1205 C1206 1.524 . S
C1206 C1205 1.524 . S
C1206 C1207 1.397 . S
C1206 C1211 1.363 . S
C1207 H1178 0.950 . S
C1207 C1206 1.397 . S
C1207 C1208 1.334 . S
C1208 H1179 0.950 . S
C1208 C1207 1.334 . S
C1208 C1209 1.287 . S
C1209 C1208 1.287 . S
C1209 C1210 1.524 . S
C1209 H1212 0.999 1_545 S
C1210 H1180 0.950 1_545 S
C1210 C1209 1.524 . S
C1210 C1211 1.415 . S
C1211 H1181 0.950 . S
C1211 C1206 1.363 . S
C1211 C1210 1.415 . S
H1212 C1209 0.999 1_565 S
H1213 C1194 0.913 . S
H1214 C1232 0.951 . S
H1215 C1234 0.951 . S
H1216 C1236 0.950 . S
H1217 C1237 0.950 1_455 S
H1218 C1239 0.950 . S
H1219 C1242 0.950 . S
H1220 C1243 0.950 . S
H1221 C1245 0.950 . S
H1222 C1246 0.950 . S
H1223 C1247 0.951 . S
H1224 C1249 0.951 . S
H1225 C1251 0.950 . S
H1226 C1252 0.950 . S
H1227 C1254 0.950 . S
H1228 C1257 0.950 . S
H1229 C1258 0.950 . S
H1230 C1260 0.950 . S
H1231 C1261 0.950 . S
C1232 H1214 0.951 . S
C1232 C1233 1.366 . S
C1232 C1234 1.388 . S
C1233 C1232 1.366 . S
C1233 C1237 1.385 . S
C1234 H1215 0.951 . S
C1234 C1232 1.388 . S
C1234 C1235 1.366 . S
C1235 C1234 1.366 . S
C1235 C1236 1.414 . S
C1235 C1238 1.499 . S
C1236 H1216 0.950 . S
C1236 C1235 1.414 . S
C1236 C1237 1.374 . S
C1237 H1217 0.950 1_655 S
C1237 C1233 1.385 . S
C1237 C1236 1.374 . S
C1238 C1235 1.499 . S
C1238 C1239 1.373 . S
C1238 C1240 1.389 . S
C1239 H1218 0.950 . S
C1239 C1238 1.373 . S
C1239 C1255 1.377 . S
C1240 C1238 1.389 . S
C1240 C1241 1.524 . S
C1240 C1254 1.377 . S
C1241 C1240 1.524 . S
C1241 C1242 1.397 . S
C1241 C1246 1.363 . S
C1242 H1219 0.950 . S
C1242 C1241 1.397 . S
C1242 C1243 1.334 . S
C1243 H1220 0.950 . S
C1243 C1242 1.334 . S
C1243 C1244 1.287 . S
C1244 C1243 1.287 . S
C1244 C1245 1.524 . S
C1244 H1263 0.913 . S
C1245 H1221 0.950 . S
C1245 C1244 1.524 . S
C1245 C1246 1.415 . S
C1246 H1222 0.950 . S
C1246 C1241 1.363 . S
C1246 C1245 1.415 . S
C1247 H1223 0.951 . S
C1247 C1248 1.366 . S
C1247 C1249 1.388 . S
C1248 C1247 1.366 . S
C1248 C1252 1.385 . S
C1249 H1224 0.951 . S
C1249 C1247 1.388 . S
C1249 C1250 1.366 . S
C1250 C1249 1.366 . S
C1250 C1251 1.414 . S
C1250 C1253 1.499 . S
C1251 H1225 0.950 . S
C1251 C1250 1.414 . S
C1251 C1252 1.374 . S
C1252 H1226 0.950 . S
C1252 C1248 1.385 . S
C1252 C1251 1.374 . S
C1253 C1250 1.499 . S
C1253 C1254 1.373 . S
C1253 C1255 1.389 . S
C1254 H1227 0.950 . S
C1254 C1240 1.377 . S
C1254 C1253 1.373 . S
C1255 C1239 1.377 . S
C1255 C1253 1.389 . S
C1255 C1256 1.524 . S
C1256 C1255 1.524 . S
C1256 C1257 1.397 . S
C1256 C1261 1.363 . S
C1257 H1228 0.950 . S
C1257 C1256 1.397 . S
C1257 C1258 1.334 . S
C1258 H1229 0.950 . S
C1258 C1257 1.334 . S
C1258 C1259 1.287 . S
C1259 C1258 1.287 . S
C1259 C1260 1.524 . S
C1259 H1262 0.999 . S
C1260 H1230 0.950 . S
C1260 C1259 1.524 . S
C1260 C1261 1.415 . S
C1261 H1231 0.950 . S
C1261 C1256 1.363 . S
C1261 C1260 1.415 . S
H1262 C1259 0.999 . S
H1263 C1244 0.913 . S
C283 C153 1.192 . S
C298 C21 1.193 . S
C333 C54 1.192 . S
C348 C186 1.193 . S
C383 C87 1.193 . S
C398 C219 1.192 . S
C433 C120 1.192 . S
C448 C252 1.193 . S
C483 N167 0.610 . S
C498 N2 0.610 . S
C533 N35 0.609 . S
C548 N200 0.609 . S
C583 N233 0.610 . S
C598 N68 0.610 . S
C633 N101 0.608 . S
C648 N134 0.608 . S
C683 N13 0.927 . S
C698 N211 0.927 . S
C733 N244 0.927 . S
C748 N46 0.927 . S
C783 N79 0.927 . S
C798 N145 0.927 . S
C833 N178 0.927 . S
C848 N112 0.927 . S
C883 C18 2.008 . S
C898 C106 2.005 1_544 S
C933 C7 2.006 1_655 S
C948 C51 2.008 . S
C983 C40 2.006 1_565 S
C998 C84 2.008 . S
C1033 C73 2.005 1_455 S
C1048 C117 2.008 . S
C1083 C150 2.008 . S
C1098 C172 2.006 1_565 S
C1133 C183 2.007 . S
C1148 C205 2.005 1_455 S
C1183 C216 2.008 . S
C1198 C238 2.006 1_546 S
C1233 C139 2.006 1_655 S
C1248 C249 2.008 . S
