# Generated by pormake.
# Topology unb, (4)-cn, num edge types: 1
# Building blocks:
#     Node 0, Type 0, BuildingBlock: CEKHIL_clean_sbu_0, # of connection points: 4
#     Node 1, Type 0, BuildingBlock: CEKHIL_clean_sbu_0, # of connection points: 4
#     Node 2, Type 0, BuildingBlock: CEKHIL_clean_sbu_0, # of connection points: 4
#     Node 3, Type 0, BuildingBlock: CEKHIL_clean_sbu_0, # of connection points: 4
#     Node 4, Type 0, BuildingBlock: CEKHIL_clean_sbu_0, # of connection points: 4
#     Node 5, Type 0, BuildingBlock: CEKHIL_clean_sbu_0, # of connection points: 4
#     Node 6, Type 0, BuildingBlock: CEKHIL_clean_sbu_0, # of connection points: 4
#     Node 7, Type 0, BuildingBlock: CEKHIL_clean_sbu_0, # of connection points: 4
#     Node 8, Type 0, BuildingBlock: CEKHIL_clean_sbu_0, # of connection points: 4
#     Node 9, Type 0, BuildingBlock: CEKHIL_clean_sbu_0, # of connection points: 4
#     Node 10, Type 0, BuildingBlock: CEKHIL_clean_sbu_0, # of connection points: 4
#     Node 11, Type 0, BuildingBlock: CEKHIL_clean_sbu_0, # of connection points: 4
#     Node 12, Type 0, BuildingBlock: CEKHIL_clean_sbu_0, # of connection points: 4
#     Node 13, Type 0, BuildingBlock: CEKHIL_clean_sbu_0, # of connection points: 4
#     Node 14, Type 0, BuildingBlock: CEKHIL_clean_sbu_0, # of connection points: 4
#     Node 15, Type 0, BuildingBlock: CEKHIL_clean_sbu_0, # of connection points: 4
#     Node 16, Type 0, BuildingBlock: CEKHIL_clean_sbu_0, # of connection points: 4
#     Node 17, Type 0, BuildingBlock: CEKHIL_clean_sbu_0, # of connection points: 4
#     Edge 18, Type (0, 0), BuildingBlock: ZUJKAS_clean_linker_0, # of connection points: 2
#     Edge 19, Type (0, 0), BuildingBlock: ZUJKAS_clean_linker_0, # of connection points: 2
#     Edge 20, Type (0, 0), BuildingBlock: ZUJKAS_clean_linker_0, # of connection points: 2
#     Edge 21, Type (0, 0), BuildingBlock: ZUJKAS_clean_linker_0, # of connection points: 2
#     Edge 22, Type (0, 0), BuildingBlock: ZUJKAS_clean_linker_0, # of connection points: 2
#     Edge 23, Type (0, 0), BuildingBlock: ZUJKAS_clean_linker_0, # of connection points: 2
#     Edge 24, Type (0, 0), BuildingBlock: ZUJKAS_clean_linker_0, # of connection points: 2
#     Edge 25, Type (0, 0), BuildingBlock: ZUJKAS_clean_linker_0, # of connection points: 2
#     Edge 26, Type (0, 0), BuildingBlock: ZUJKAS_clean_linker_0, # of connection points: 2
#     Edge 27, Type (0, 0), BuildingBlock: ZUJKAS_clean_linker_0, # of connection points: 2
#     Edge 28, Type (0, 0), BuildingBlock: ZUJKAS_clean_linker_0, # of connection points: 2
#     Edge 29, Type (0, 0), BuildingBlock: ZUJKAS_clean_linker_0, # of connection points: 2
#     Edge 30, Type (0, 0), BuildingBlock: ZUJKAS_clean_linker_0, # of connection points: 2
#     Edge 31, Type (0, 0), BuildingBlock: ZUJKAS_clean_linker_0, # of connection points: 2
#     Edge 32, Type (0, 0), BuildingBlock: ZUJKAS_clean_linker_0, # of connection points: 2
#     Edge 33, Type (0, 0), BuildingBlock: ZUJKAS_clean_linker_0, # of connection points: 2
#     Edge 34, Type (0, 0), BuildingBlock: ZUJKAS_clean_linker_0, # of connection points: 2
#     Edge 35, Type (0, 0), BuildingBlock: ZUJKAS_clean_linker_0, # of connection points: 2
#     Edge 36, Type (0, 0), BuildingBlock: ZUJKAS_clean_linker_0, # of connection points: 2
#     Edge 37, Type (0, 0), BuildingBlock: ZUJKAS_clean_linker_0, # of connection points: 2
#     Edge 38, Type (0, 0), BuildingBlock: ZUJKAS_clean_linker_0, # of connection points: 2
#     Edge 39, Type (0, 0), BuildingBlock: ZUJKAS_clean_linker_0, # of connection points: 2
#     Edge 40, Type (0, 0), BuildingBlock: ZUJKAS_clean_linker_0, # of connection points: 2
#     Edge 41, Type (0, 0), BuildingBlock: ZUJKAS_clean_linker_0, # of connection points: 2
#     Edge 42, Type (0, 0), BuildingBlock: ZUJKAS_clean_linker_0, # of connection points: 2
#     Edge 43, Type (0, 0), BuildingBlock: ZUJKAS_clean_linker_0, # of connection points: 2
#     Edge 44, Type (0, 0), BuildingBlock: ZUJKAS_clean_linker_0, # of connection points: 2
#     Edge 45, Type (0, 0), BuildingBlock: ZUJKAS_clean_linker_0, # of connection points: 2
#     Edge 46, Type (0, 0), BuildingBlock: ZUJKAS_clean_linker_0, # of connection points: 2
#     Edge 47, Type (0, 0), BuildingBlock: ZUJKAS_clean_linker_0, # of connection points: 2
#     Edge 48, Type (0, 0), BuildingBlock: ZUJKAS_clean_linker_0, # of connection points: 2
#     Edge 49, Type (0, 0), BuildingBlock: ZUJKAS_clean_linker_0, # of connection points: 2
#     Edge 50, Type (0, 0), BuildingBlock: ZUJKAS_clean_linker_0, # of connection points: 2
#     Edge 51, Type (0, 0), BuildingBlock: ZUJKAS_clean_linker_0, # of connection points: 2
#     Edge 52, Type (0, 0), BuildingBlock: ZUJKAS_clean_linker_0, # of connection points: 2
#     Edge 53, Type (0, 0), BuildingBlock: ZUJKAS_clean_linker_0, # of connection points: 2
# Relax obj value: 0.115
# Max RMSD: 0.095
# Mean RMSD: 0.095
data_MOF--net-unb--node1-CEKHIL_clean_sbu_0--edge1-ZUJKAS_clean_linker_0
_symmetry_space_group_name_H-M    P1
_symmetry_Int_Tables_number       1
_symmetry_cell_setting            triclinic
loop_
_symmetry_equiv_pos_as_xyz
'x, y, z'
_cell_length_a     80.718721
_cell_length_b     80.800973
_cell_length_c     33.042758
_cell_angle_alpha  90.010359
_cell_angle_beta   89.987558
_cell_angle_gamma 120.07473
loop_
_atom_site_label
_atom_site_type_symbol
_atom_site_fract_x
_atom_site_fract_y
_atom_site_fract_z
_atom_type_partial_charge
Co0 Co 0.14517 0.27413 0.09701 0.0
O1 O 0.12271 0.27712 0.0956 0.0
O2 O 0.1234 0.25131 0.07607 0.0
C3 C 0.15511 0.28668 0.15982 0.0
O4 O 0.16441 0.26465 0.09302 0.0
Co5 Co 0.18711 0.30739 0.10604 0.0
O6 O 0.19462 0.28753 0.10591 0.0
C7 C 0.16593 0.30179 0.02919 0.0
C8 C 0.11362 0.25996 0.08036 0.0
C9 C 0.18238 0.27034 0.09683 0.0
O10 O 0.15226 0.28543 0.04107 0.0
O11 O 0.18001 0.31305 0.05179 0.0
O12 O 0.14169 0.2689 0.15566 0.0
O13 O 0.16128 0.29625 0.12677 0.0
Co14 Co 0.75503 0.87696 0.09475 0.0
O15 O 0.75262 0.85178 0.09647 0.0
O16 O 0.77719 0.87773 0.07078 0.0
C17 C 0.74481 0.87655 0.15893 0.0
O18 O 0.76379 0.90533 0.08695 0.0
Co19 Co 0.72143 0.88486 0.10605 0.0
O20 O 0.74078 0.91237 0.10031 0.0
C21 C 0.7237 0.86454 0.03379 0.0
C22 C 0.76912 0.85954 0.07816 0.0
C23 C 0.75785 0.91741 0.08976 0.0
O24 O 0.74148 0.87043 0.04097 0.0
O25 O 0.71288 0.86702 0.05842 0.0
O26 O 0.76249 0.88098 0.1524 0.0
O27 O 0.73401 0.87169 0.12748 0.0
Co28 Co 0.15184 0.88357 0.09394 0.0
O29 O 0.17677 0.90665 0.09518 0.0
O30 O 0.14998 0.90519 0.07491 0.0
C31 C 0.15465 0.8728 0.15569 0.0
O32 O 0.12346 0.8634 0.08772 0.0
Co33 Co 0.14544 0.84242 0.09898 0.0
O34 O 0.1177 0.83342 0.09581 0.0
C35 C 0.16354 0.86675 0.0271 0.0
C36 C 0.16835 0.91545 0.08035 0.0
C37 C 0.1119 0.84518 0.08872 0.0
O38 O 0.15753 0.87818 0.03772 0.0
O39 O 0.16185 0.85308 0.04959 0.0
O40 O 0.14894 0.88527 0.15303 0.0
O41 O 0.15873 0.86786 0.12188 0.0
Co42 Co 0.28007 0.14046 0.91257 0.0
O43 O 0.28242 0.11765 0.91092 0.0
O44 O 0.25722 0.11875 0.93351 0.0
C45 C 0.29216 0.15116 0.84971 0.0
O46 O 0.27123 0.16002 0.91988 0.0
Co47 Co 0.3138 0.18218 0.90485 0.0
O48 O 0.29441 0.1903 0.90915 0.0
C49 C 0.31003 0.15835 0.97611 0.0
C50 C 0.26542 0.1087 0.92703 0.0
C51 C 0.27717 0.17807 0.91805 0.0
O52 O 0.29234 0.14664 0.96772 0.0
O53 O 0.32126 0.17193 0.95245 0.0
O54 O 0.27424 0.13804 0.85401 0.0
O55 O 0.30195 0.1566 0.88257 0.0
Co56 Co 0.88873 0.14586 0.91021 0.0
O57 O 0.91125 0.17127 0.91014 0.0
O58 O 0.91059 0.14498 0.93118 0.0
C59 C 0.87835 0.14766 0.84736 0.0
O60 O 0.86938 0.11723 0.91567 0.0
Co61 Co 0.84694 0.13762 0.90256 0.0
O62 O 0.83911 0.11013 0.9046 0.0
C63 C 0.86958 0.15548 0.97651 0.0
C64 C 0.9204 0.16336 0.92581 0.0
C65 C 0.85132 0.10507 0.91307 0.0
O66 O 0.88204 0.15081 0.96588 0.0
O67 O 0.85581 0.15319 0.95354 0.0
O68 O 0.89177 0.14332 0.85167 0.0
O69 O 0.87253 0.15161 0.88026 0.0
Co70 Co 0.88282 0.74801 0.91224 0.0
O71 O 0.85764 0.74564 0.91153 0.0
O72 O 0.88393 0.77045 0.93545 0.0
C73 C 0.88156 0.73709 0.84836 0.0
O74 O 0.91134 0.75675 0.91861 0.0
Co75 Co 0.89031 0.71411 0.90142 0.0
O76 O 0.91786 0.73337 0.90541 0.0
C77 C 0.87278 0.71811 0.97676 0.0
C78 C 0.86563 0.76232 0.92904 0.0
C79 C 0.92323 0.75055 0.91542 0.0
O80 O 0.87687 0.73515 0.9668 0.0
O81 O 0.87552 0.70708 0.95335 0.0
O82 O 0.88618 0.75483 0.85428 0.0
O83 O 0.87702 0.7266 0.88027 0.0
Co84 Co 0.81191 0.60756 0.42841 0.0
O85 O 0.78914 0.61001 0.42848 0.0
O86 O 0.79032 0.58476 0.40676 0.0
C87 C 0.82187 0.61938 0.49168 0.0
O88 O 0.8316 0.59869 0.42286 0.0
Co89 Co 0.85352 0.6415 0.43776 0.0
O90 O 0.86164 0.62214 0.43523 0.0
C91 C 0.83186 0.63638 0.36194 0.0
C92 C 0.78026 0.59303 0.41238 0.0
C93 C 0.84971 0.60487 0.42596 0.0
O94 O 0.81864 0.61963 0.37305 0.0
O95 O 0.84585 0.64764 0.38471 0.0
O96 O 0.80867 0.60156 0.48676 0.0
O97 O 0.82775 0.62941 0.45913 0.0
Co98 Co 0.42164 0.21004 0.42973 0.0
O99 O 0.41931 0.18492 0.43109 0.0
O100 O 0.44475 0.21136 0.40965 0.0
C101 C 0.40891 0.20826 0.49206 0.0
O102 O 0.43026 0.23847 0.42312 0.0
Co103 Co 0.38705 0.21681 0.43541 0.0
O104 O 0.40615 0.24443 0.43148 0.0
C105 C 0.3925 0.19808 0.36402 0.0
C106 C 0.43641 0.19302 0.41548 0.0
C107 C 0.42369 0.25009 0.4241 0.0
O108 O 0.41007 0.20429 0.37393 0.0
O109 O 0.38061 0.19976 0.38688 0.0
O110 O 0.42689 0.21317 0.48856 0.0
O111 O 0.39943 0.20386 0.45877 0.0
Co112 Co 0.81883 0.21689 0.42842 0.0
O113 O 0.844 0.23981 0.4293 0.0
O114 O 0.81781 0.23802 0.40406 0.0
C115 C 0.81958 0.2075 0.49278 0.0
O116 O 0.79042 0.19715 0.4214 0.0
Co117 Co 0.81099 0.17548 0.44071 0.0
O118 O 0.78342 0.16715 0.43512 0.0
C119 C 0.8309 0.19763 0.36765 0.0
C120 C 0.83604 0.24831 0.41097 0.0
C121 C 0.77834 0.17912 0.4245 0.0
O122 O 0.8251 0.20957 0.37471 0.0
O123 O 0.82854 0.18449 0.39258 0.0
O124 O 0.81507 0.22065 0.48604 0.0
O125 O 0.8243 0.20139 0.46141 0.0
Co126 Co 0.9465 0.47339 0.24449 0.0
O127 O 0.94837 0.45036 0.24159 0.0
O128 O 0.92351 0.45177 0.26535 0.0
C129 C 0.95867 0.48451 0.18187 0.0
O130 O 0.9383 0.49341 0.25278 0.0
Co131 Co 0.9813 0.51464 0.23857 0.0
O132 O 0.96252 0.52346 0.24467 0.0
C133 C 0.97657 0.48978 0.30814 0.0
C134 C 0.93149 0.44155 0.25826 0.0
C135 C 0.94501 0.51163 0.25243 0.0
O136 O 0.95874 0.47888 0.29965 0.0
O137 O 0.98827 0.50326 0.28487 0.0
O138 O 0.94066 0.47157 0.18593 0.0
O139 O 0.96847 0.48937 0.21474 0.0
Co140 Co 0.55433 0.47891 0.2477 0.0
O141 O 0.57725 0.504 0.24674 0.0
O142 O 0.5761 0.47743 0.26729 0.0
C143 C 0.54357 0.48126 0.18552 0.0
O144 O 0.53446 0.45042 0.25369 0.0
Co145 Co 0.51286 0.47178 0.24172 0.0
O146 O 0.50434 0.44418 0.24446 0.0
C147 C 0.53641 0.48946 0.31486 0.0
C148 C 0.58621 0.49579 0.26177 0.0
C149 C 0.51627 0.43865 0.25206 0.0
O150 O 0.54855 0.48441 0.3038 0.0
O151 O 0.52255 0.48734 0.29241 0.0
O152 O 0.55642 0.47607 0.18876 0.0
O153 O 0.53838 0.48533 0.21906 0.0
Co154 Co 0.54922 0.08119 0.2462 0.0
O155 O 0.52384 0.07838 0.24587 0.0
O156 O 0.55024 0.10402 0.26671 0.0
C157 C 0.54717 0.06868 0.18352 0.0
O158 O 0.57789 0.09054 0.25189 0.0
Co159 Co 0.55797 0.04803 0.23807 0.0
O160 O 0.5854 0.06787 0.23871 0.0
C161 C 0.54078 0.05295 0.31329 0.0
C162 C 0.53186 0.09551 0.26128 0.0
C163 C 0.59026 0.08498 0.24821 0.0
O164 O 0.54404 0.06957 0.30194 0.0
O165 O 0.54392 0.04188 0.29086 0.0
O166 O 0.55181 0.08654 0.18751 0.0
O167 O 0.54338 0.05912 0.21666 0.0
Co168 Co 0.47884 0.94041 0.76091 0.0
O169 O 0.45597 0.94268 0.76105 0.0
O170 O 0.45719 0.91726 0.74067 0.0
C171 C 0.48922 0.95326 0.82345 0.0
O172 O 0.49863 0.93166 0.75543 0.0
Co173 Co 0.52046 0.97446 0.76858 0.0
O174 O 0.52872 0.95518 0.76684 0.0
C175 C 0.49804 0.96865 0.69351 0.0
C176 C 0.44709 0.92553 0.74577 0.0
C177 C 0.51674 0.93786 0.75815 0.0
O178 O 0.48507 0.95185 0.70496 0.0
O179 O 0.51206 0.98014 0.71597 0.0
O180 O 0.47624 0.93527 0.81976 0.0
O181 O 0.49475 0.96268 0.79013 0.0
Co182 Co 0.08682 0.54331 0.76108 0.0
O183 O 0.08569 0.51873 0.76405 0.0
O184 O 0.10996 0.54532 0.73953 0.0
C185 C 0.0748 0.54218 0.82384 0.0
O186 O 0.09437 0.57137 0.75283 0.0
Co187 Co 0.05145 0.54874 0.76724 0.0
O188 O 0.06978 0.57653 0.7617 0.0
C189 C 0.05686 0.52973 0.69642 0.0
C190 C 0.10243 0.52717 0.74676 0.0
C191 C 0.08733 0.58259 0.75365 0.0
O192 O 0.07453 0.53633 0.70602 0.0
O193 O 0.04496 0.53138 0.71926 0.0
O194 O 0.09286 0.54758 0.81949 0.0
O195 O 0.06483 0.53689 0.79118 0.0
Co196 Co 0.48629 0.55159 0.76146 0.0
O197 O 0.51102 0.57483 0.76475 0.0
O198 O 0.48437 0.57321 0.74282 0.0
C199 C 0.48804 0.53997 0.82305 0.0
O200 O 0.45815 0.53123 0.75311 0.0
Co201 Co 0.48061 0.51067 0.76425 0.0
O202 O 0.45278 0.5013 0.75935 0.0
C203 C 0.50071 0.53689 0.6964 0.0
C204 C 0.50264 0.58359 0.74951 0.0
C205 C 0.44682 0.51297 0.7528 0.0
O206 O 0.49305 0.54705 0.70551 0.0
O207 O 0.49933 0.52334 0.71882 0.0
O208 O 0.48237 0.55246 0.82037 0.0
O209 O 0.49292 0.53566 0.78939 0.0
Co210 Co 0.61408 0.80785 0.57698 0.0
O211 O 0.61608 0.78485 0.57695 0.0
O212 O 0.59097 0.78651 0.59817 0.0
C213 C 0.62629 0.81799 0.51405 0.0
O214 O 0.60569 0.82785 0.58246 0.0
Co215 Co 0.64882 0.84902 0.56948 0.0
O216 O 0.62995 0.85782 0.57365 0.0
C217 C 0.64326 0.82605 0.64303 0.0
C218 C 0.59903 0.77623 0.59287 0.0
C219 C 0.6124 0.84606 0.58118 0.0
O220 O 0.62587 0.81424 0.6326 0.0
O221 O 0.65513 0.83952 0.61995 0.0
O222 O 0.60837 0.80494 0.51849 0.0
O223 O 0.63619 0.82349 0.54683 0.0
Co224 Co 0.22157 0.81239 0.57924 0.0
O225 O 0.24479 0.83719 0.57648 0.0
O226 O 0.24311 0.81075 0.59976 0.0
C227 C 0.21057 0.81373 0.51668 0.0
O228 O 0.20123 0.7842 0.5873 0.0
Co229 Co 0.18047 0.80638 0.57313 0.0
O230 O 0.17131 0.7787 0.57861 0.0
C231 C 0.20572 0.82673 0.64225 0.0
C232 C 0.25349 0.82897 0.59278 0.0
C233 C 0.18294 0.77282 0.58649 0.0
O234 O 0.21623 0.8193 0.63438 0.0
O235 O 0.19234 0.82504 0.61878 0.0
O236 O 0.22328 0.80837 0.52061 0.0
O237 O 0.20583 0.81867 0.54966 0.0
Co238 Co 0.21679 0.41586 0.57901 0.0
O239 O 0.19148 0.4133 0.57892 0.0
O240 O 0.21769 0.43781 0.60409 0.0
C241 C 0.2156 0.40568 0.5145 0.0
O242 O 0.24537 0.42495 0.58516 0.0
Co243 Co 0.22556 0.38301 0.56531 0.0
O244 O 0.25302 0.4028 0.56782 0.0
C245 C 0.20813 0.38569 0.64222 0.0
C246 C 0.19941 0.42967 0.59768 0.0
C247 C 0.25779 0.41956 0.57994 0.0
O248 O 0.21107 0.40241 0.63278 0.0
O249 O 0.2116 0.37532 0.61831 0.0
O250 O 0.22002 0.42331 0.52141 0.0
O251 O 0.21134 0.39489 0.54586 0.0
H252 H 0.19791 0.41011 0.44805 0.0
H253 H 0.18743 0.38964 0.38753 0.0
H254 H 0.21793 0.3617 0.42915 0.0
H255 H 0.22742 0.38132 0.49032 0.0
H256 H 0.20232 0.38207 0.32555 0.0
H257 H 0.16633 0.31615 0.41716 0.0
H258 H 0.17622 0.33958 0.43939 0.0
H259 H 0.19133 0.32955 0.42892 0.0
C260 C 0.20267 0.39986 0.44371 0.0
C261 C 0.21342 0.39724 0.47381 0.0
C262 C 0.19656 0.38804 0.40932 0.0
C263 C 0.20127 0.37356 0.40436 0.0
C264 C 0.21338 0.37213 0.43293 0.0
H265 H 0.191 0.31495 0.17769 0.0
H266 H 0.20169 0.33514 0.2379 0.0
C267 C 0.21908 0.38359 0.4676 0.0
C268 C 0.19329 0.3597 0.36996 0.0
H269 H 0.17082 0.31198 0.34707 0.0
C270 C 0.19532 0.36675 0.33035 0.0
C271 C 0.1836 0.33959 0.37599 0.0
C272 C 0.17904 0.33078 0.4177 0.0
C273 C 0.18857 0.35439 0.29675 0.0
C274 C 0.18021 0.33437 0.30261 0.0
C275 C 0.17758 0.32729 0.34229 0.0
C276 C 0.17417 0.32063 0.268 0.0
C277 C 0.19013 0.36302 0.25542 0.0
C278 C 0.15553 0.30466 0.26601 0.0
C279 C 0.14956 0.2926 0.23197 0.0
C280 C 0.16209 0.29645 0.19925 0.0
C281 C 0.18097 0.31176 0.20229 0.0
C282 C 0.18703 0.32349 0.23652 0.0
H283 H 0.19043 0.37689 0.25755 0.0
H284 H 0.20369 0.36583 0.24093 0.0
H285 H 0.178 0.3533 0.23562 0.0
H286 H 0.14536 0.30193 0.29007 0.0
H287 H 0.13488 0.28099 0.23027 0.0
H288 H 0.65413 0.85405 0.49638 0.0
H289 H 0.67386 0.86525 0.43548 0.0
H290 H 0.64127 0.80887 0.38333 0.0
H291 H 0.62075 0.79798 0.4436 0.0
H292 H 0.69737 0.85567 0.40855 0.0
H293 H 0.6441 0.83897 0.28714 0.0
H294 H 0.63794 0.83764 0.33993 0.0
H295 H 0.63897 0.81814 0.31589 0.0
C296 C 0.65084 0.8442 0.47141 0.0
C297 C 0.63577 0.82522 0.47447 0.0
C298 C 0.66223 0.85057 0.43666 0.0
C299 C 0.65911 0.83802 0.40435 0.0
C300 C 0.64375 0.81907 0.40711 0.0
H301 H 0.74981 0.86065 0.22769 0.0
H302 H 0.72982 0.85158 0.28873 0.0
C303 C 0.632 0.8128 0.44161 0.0
C304 C 0.67273 0.84461 0.36936 0.0
H305 H 0.67539 0.84673 0.26613 0.0
C306 C 0.69251 0.85384 0.3774 0.0
C307 C 0.66658 0.84243 0.32857 0.0
C308 C 0.64576 0.83394 0.31735 0.0
C309 C 0.70621 0.86098 0.34616 0.0
C310 C 0.70004 0.85818 0.30534 0.0
C311 C 0.68025 0.84886 0.29729 0.0
C312 C 0.71366 0.86514 0.27035 0.0
C313 C 0.72713 0.87198 0.3575 0.0
C314 C 0.71137 0.87574 0.23937 0.0
C315 C 0.72246 0.88049 0.20422 0.0
C316 C 0.73641 0.87512 0.19943 0.0
C317 C 0.73949 0.86539 0.23109 0.0
C318 C 0.72802 0.86019 0.26602 0.0
H319 H 0.72922 0.87817 0.38837 0.0
H320 H 0.73296 0.86213 0.35741 0.0
H321 H 0.73551 0.88377 0.33582 0.0
H322 H 0.70052 0.87985 0.24179 0.0
H323 H 0.71969 0.88786 0.18011 0.0
H324 H 0.18089 0.81995 0.50642 0.0
H325 H 0.17041 0.82825 0.44462 0.0
H326 H 0.2121 0.82149 0.37618 0.0
H327 H 0.22291 0.81313 0.43876 0.0
H328 H 0.19638 0.86069 0.39356 0.0
H329 H 0.15966 0.79095 0.31245 0.0
H330 H 0.16354 0.79254 0.36652 0.0
H331 H 0.18314 0.79865 0.33266 0.0
C332 C 0.18774 0.81993 0.47825 0.0
C333 C 0.20281 0.8159 0.47759 0.0
C334 C 0.18171 0.82475 0.44291 0.0
C335 C 0.19046 0.82553 0.40586 0.0
C336 C 0.20506 0.82083 0.40453 0.0
H337 H 0.17391 0.85368 0.16419 0.0
H338 H 0.18196 0.84292 0.22562 0.0
C339 C 0.21119 0.81601 0.44021 0.0
C340 C 0.1848 0.83228 0.36942 0.0
H341 H 0.16126 0.81749 0.27926 0.0
C342 C 0.18873 0.85129 0.36844 0.0
C343 C 0.17476 0.81996 0.33693 0.0
C344 C 0.16986 0.79933 0.33698 0.0
C345 C 0.18328 0.85846 0.33538 0.0
C346 C 0.17303 0.84609 0.30289 0.0
C347 C 0.16899 0.82699 0.30417 0.0
C348 C 0.16764 0.85288 0.26585 0.0
C349 C 0.18912 0.87937 0.33512 0.0
C350 C 0.15671 0.86207 0.26755 0.0
C351 C 0.15228 0.86865 0.23198 0.0
C352 C 0.15837 0.86573 0.19416 0.0
C353 C 0.16888 0.85614 0.19271 0.0
C354 C 0.17351 0.84991 0.22797 0.0
H355 H 0.20109 0.8878 0.35646 0.0
H356 H 0.19359 0.8856 0.30439 0.0
H357 H 0.17679 0.88091 0.34467 0.0
H358 H 0.15155 0.86412 0.29629 0.0
H359 H 0.14408 0.87589 0.23405 0.0
H360 H 0.41994 0.20479 0.56936 0.0
H361 H 0.40027 0.19656 0.63119 0.0
H362 H 0.3553 0.19793 0.56353 0.0
H363 H 0.3747 0.20623 0.50253 0.0
H364 H 0.36126 0.21542 0.6381 0.0
H365 H 0.35329 0.14319 0.65148 0.0
H366 H 0.37751 0.16284 0.65045 0.0
H367 H 0.36261 0.15766 0.60651 0.0
C368 C 0.406 0.20364 0.56797 0.0
C369 C 0.39886 0.20608 0.53101 0.0
C370 C 0.39468 0.19873 0.60315 0.0
C371 C 0.37613 0.19626 0.60181 0.0
C372 C 0.36947 0.19961 0.56533 0.0
H373 H 0.28128 0.13531 0.77345 0.0
H374 H 0.30068 0.14645 0.71117 0.0
C375 C 0.38064 0.20438 0.5304 0.0
C376 C 0.36326 0.18984 0.63775 0.0
H377 H 0.33855 0.1521 0.70211 0.0
C378 C 0.35635 0.2016 0.65216 0.0
C379 C 0.3565 0.17162 0.65553 0.0
C380 C 0.36269 0.15797 0.64011 0.0
C381 C 0.3431 0.19578 0.68414 0.0
C382 C 0.33671 0.17777 0.7026 0.0
C383 C 0.34342 0.16588 0.68789 0.0
C384 C 0.32408 0.1716 0.73888 0.0
C385 C 0.33588 0.20888 0.69758 0.0
C386 C 0.33068 0.18209 0.77484 0.0
C387 C 0.31971 0.17581 0.81005 0.0
C388 C 0.30183 0.15883 0.81034 0.0
C389 C 0.29487 0.14856 0.77404 0.0
C390 C 0.30601 0.15483 0.73861 0.0
H391 H 0.3377 0.21927 0.67353 0.0
H392 H 0.32052 0.20061 0.70614 0.0
H393 H 0.34415 0.21712 0.72444 0.0
H394 H 0.34466 0.19488 0.77605 0.0
H395 H 0.32557 0.18404 0.83749 0.0
H396 H 0.8075 0.17104 0.51506 0.0
H397 H 0.81567 0.16003 0.57671 0.0
H398 H 0.84573 0.21802 0.62147 0.0
H399 H 0.83651 0.22882 0.56052 0.0
H400 H 0.84881 0.16747 0.59976 0.0
H401 H 0.8197 0.19205 0.72256 0.0
H402 H 0.81368 0.19245 0.67019 0.0
H403 H 0.83581 0.21139 0.69063 0.0
C404 C 0.8153 0.18132 0.53872 0.0
C405 C 0.82111 0.20072 0.53337 0.0
C406 C 0.82013 0.17505 0.57384 0.0
C407 C 0.83128 0.1881 0.60418 0.0
C408 C 0.83669 0.2075 0.59928 0.0
H409 H 0.8982 0.16165 0.77641 0.0
H410 H 0.88735 0.17132 0.71617 0.0
C411 C 0.83141 0.21371 0.56442 0.0
C412 C 0.83829 0.18146 0.63907 0.0
H413 H 0.84171 0.18203 0.74218 0.0
C414 C 0.84709 0.17054 0.63093 0.0
C415 C 0.83602 0.1853 0.6799 0.0
C416 C 0.82561 0.19576 0.69139 0.0
C417 C 0.85351 0.16329 0.66215 0.0
C418 C 0.85184 0.16768 0.70291 0.0
C419 C 0.84315 0.17869 0.71104 0.0
C420 C 0.85836 0.16058 0.73781 0.0
C421 C 0.86143 0.15049 0.65094 0.0
C422 C 0.84587 0.15142 0.77038 0.0
C423 C 0.85221 0.14634 0.80504 0.0
C424 C 0.87111 0.14996 0.80783 0.0
C425 C 0.88344 0.15832 0.77469 0.0
C426 C 0.87721 0.16384 0.74021 0.0
H427 H 0.85612 0.1437 0.6209 0.0
H428 H 0.87727 0.15918 0.64914 0.0
H429 H 0.85755 0.13904 0.67375 0.0
H430 H 0.83127 0.14861 0.76945 0.0
H431 H 0.84241 0.13997 0.83019 0.0
H432 H 0.86563 0.74242 0.77996 0.0
H433 H 0.85546 0.72204 0.71934 0.0
H434 H 0.88266 0.6916 0.76558 0.0
H435 H 0.89177 0.71113 0.82685 0.0
H436 H 0.8706 0.71374 0.65955 0.0
H437 H 0.8306 0.64759 0.74914 0.0
H438 H 0.84098 0.67098 0.77178 0.0
H439 H 0.85538 0.66 0.76305 0.0
C440 C 0.8697 0.73159 0.7767 0.0
C441 C 0.87939 0.72827 0.80808 0.0
C442 C 0.86377 0.71984 0.74221 0.0
C443 C 0.86764 0.70472 0.7384 0.0
C444 C 0.87872 0.70253 0.76841 0.0
H445 H 0.85808 0.64641 0.51107 0.0
H446 H 0.86888 0.6662 0.57193 0.0
C447 C 0.88421 0.71392 0.80318 0.0
C448 C 0.8599 0.69108 0.70361 0.0
H449 H 0.83615 0.64344 0.6797 0.0
C450 C 0.86296 0.69838 0.66405 0.0
C451 C 0.84938 0.67095 0.70917 0.0
C452 C 0.8437 0.66194 0.7506 0.0
C453 C 0.85637 0.68623 0.63012 0.0
C454 C 0.84715 0.66611 0.63563 0.0
C455 C 0.84357 0.65881 0.67521 0.0
C456 C 0.84104 0.65247 0.60079 0.0
C457 C 0.85897 0.69519 0.58881 0.0
C458 C 0.82215 0.637 0.59796 0.0
C459 C 0.81612 0.62512 0.56367 0.0
C460 C 0.82884 0.62868 0.53148 0.0
C461 C 0.84793 0.64345 0.53533 0.0
C462 C 0.85405 0.65497 0.56989 0.0
H463 H 0.8599 0.70936 0.59076 0.0
H464 H 0.87256 0.69749 0.57538 0.0
H465 H 0.847 0.68594 0.56819 0.0
H466 H 0.81184 0.63456 0.62154 0.0
H467 H 0.80127 0.61394 0.56128 0.0
H468 H 0.9474 0.46976 0.10478 0.0
H469 H 0.96695 0.48106 0.04276 0.0
H470 H 1.01186 0.52792 0.10959 0.0
H471 H 0.99256 0.51697 0.17074 0.0
H472 H 1.00605 0.53904 0.03467 0.0
H473 H 1.01389 0.47465 0.02351 0.0
H474 H 0.98968 0.47006 0.02409 0.0
H475 H 1.0045 0.48001 0.06807 0.0
C476 C 0.96128 0.48266 0.10592 0.0
C477 C 0.96845 0.49241 0.1427 0.0
C478 C 0.97254 0.48898 0.07064 0.0
C479 C 0.99106 0.50515 0.07172 0.0
C480 C 0.99771 0.51536 0.10799 0.0
H481 H 0.08594 0.5382 0.90053 0.0
H482 H 0.06666 0.53047 0.9629 0.0
C483 C 0.9866 0.50905 0.143 0.0
C484 C 1.00395 0.51141 0.03581 0.0
H485 H 0.02864 0.49802 0.97231 0.0
C486 C 1.01093 0.53004 0.02096 0.0
C487 C 1.0107 0.49984 0.01852 0.0
C488 C 1.00448 0.48008 0.03447 0.0
C489 C 0.0242 0.53729 0.989 0.0
C490 C 0.03055 0.52555 0.97101 0.0
C491 C 0.0238 0.50702 0.98617 0.0
C492 C 0.04313 0.53178 0.93468 0.0
C493 C 0.03149 0.55756 0.97503 0.0
C494 C 0.03643 0.53527 0.89842 0.0
C495 C 0.04732 0.53962 0.86314 0.0
C496 C 0.06523 0.54061 0.86312 0.0
C497 C 0.07232 0.53776 0.89972 0.0
C498 C 0.06125 0.5332 0.93522 0.0
H499 H 0.02961 0.56626 0.99868 0.0
H500 H 0.04688 0.5646 0.96673 0.0
H501 H 0.02333 0.55739 0.94787 0.0
H502 H 0.02242 0.53398 0.89704 0.0
H503 H 0.04138 0.54166 0.83547 0.0
H504 H 0.51646 0.49135 0.17603 0.0
H505 H 0.50609 0.49963 0.11399 0.0
H506 H 0.54319 0.48649 0.04438 0.0
H507 H 0.55398 0.47824 0.10715 0.0
H508 H 0.53413 0.52961 0.05517 0.0
H509 H 0.48673 0.45715 0.99055 0.0
H510 H 0.49181 0.46086 0.04411 0.0
H511 H 0.50988 0.46278 0.00979 0.0
C512 C 0.52237 0.48999 0.1476 0.0
C513 C 0.53612 0.48413 0.14662 0.0
C514 C 0.5164 0.4948 0.11213 0.0
C515 C 0.52385 0.4937 0.07465 0.0
C516 C 0.53719 0.48734 0.07311 0.0
H517 H 0.50177 0.5157 0.83144 0.0
H518 H 0.50977 0.50496 0.89307 0.0
C519 C 0.54332 0.4826 0.1089 0.0
C520 C 0.51805 0.50001 0.03775 0.0
H521 H 0.48978 0.48345 0.95372 0.0
C522 C 0.52448 0.51956 0.03283 0.0
C523 C 0.50542 0.48685 0.00891 0.0
C524 C 0.4979 0.46569 0.01337 0.0
C525 C 0.5189 0.52638 0.99935 0.0
C526 C 0.50598 0.51319 0.97063 0.0
C527 C 0.49953 0.49359 0.97579 0.0
C528 C 0.50009 0.51945 0.93349 0.0
C529 C 0.52739 0.54769 0.99452 0.0
C530 C 0.49154 0.53097 0.93529 0.0
C531 C 0.48709 0.53743 0.8996 0.0
C532 C 0.49086 0.53222 0.86159 0.0
C533 C 0.49869 0.52009 0.86011 0.0
C534 C 0.50328 0.51386 0.89548 0.0
H535 H 0.54066 0.55584 0.01271 0.0
H536 H 0.53082 0.55203 0.96234 0.0
H537 H 0.5169 0.5518 0.00514 0.0
H538 H 0.48844 0.53508 0.96424 0.0
H539 H 0.481 0.54667 0.90176 0.0
H540 H 0.54639 0.03517 0.17111 0.0
H541 H 0.53821 0.01622 0.10942 0.0
H542 H 0.53363 0.06017 0.04509 0.0
H543 H 0.54189 0.07944 0.10749 0.0
H544 H 0.50128 0.02171 0.03614 0.0
H545 H 0.57029 0.02453 0.00633 0.0
H546 H 0.56175 0.01811 0.05734 0.0
H547 H 0.56841 0.04153 0.03872 0.0
C548 C 0.54398 0.04103 0.14376 0.0
C549 C 0.54488 0.05889 0.1442 0.0
C550 C 0.53932 0.03015 0.10842 0.0
C551 C 0.53543 0.03679 0.07254 0.0
C552 C 0.53667 0.0548 0.07246 0.0
H553 H 0.52065 0.98805 0.83456 0.0
H554 H 0.53122 1.00713 0.89601 0.0
C555 C 0.54152 0.06586 0.10798 0.0
C556 C 0.52917 0.02434 0.03602 0.0
H557 H 0.54318 1.00112 0.97004 0.0
C558 C 0.51046 0.01728 0.02149 0.0
C559 C 0.54115 0.01856 0.01699 0.0
C560 C 0.56158 0.02618 0.03034 0.0
C561 C 0.50336 1.00443 0.98872 0.0
C562 C 0.5152 0.99829 0.97029 0.0
C563 C 0.53399 1.00556 0.98457 0.0
C564 C 0.50901 0.98569 0.93394 0.0
C565 C 0.48338 0.99784 0.97354 0.0
C566 C 0.49325 0.96693 0.93487 0.0
C567 C 0.48713 0.9558 0.89942 0.0
C568 C 0.4967 0.96331 0.86257 0.0
C569 C 0.51288 0.9818 0.86232 0.0
C570 C 0.51898 0.99279 0.89752 0.0
H571 H 0.47762 1.00681 0.98549 0.0
H572 H 0.48311 0.99815 0.93995 0.0
H573 H 0.47373 0.98288 0.98345 0.0
H574 H 0.48553 0.96101 0.96284 0.0
H575 H 0.47461 0.94164 0.90056 0.0
H576 H 0.13482 0.2913 0.97982 0.0
H577 H 0.13475 0.30487 0.91329 0.0
H578 H 0.19622 0.34045 0.91904 0.0
H579 H 0.19636 0.32746 0.98528 0.0
H580 H 0.17858 0.36054 0.89764 0.0
H581 H 0.15181 0.29435 0.805 0.0
H582 H 0.13702 0.29359 0.84649 0.0
H583 H 0.15988 0.29571 0.85644 0.0
C584 C 0.1483 0.30187 0.96657 0.0
C585 C 0.16559 0.30837 0.98774 0.0
C586 C 0.14823 0.3096 0.92865 0.0
C587 C 0.16549 0.32365 0.91128 0.0
C588 C 0.18273 0.32975 0.93207 0.0
H589 H 0.21317 0.35982 0.68447 0.0
H590 H 0.19917 0.34527 0.74932 0.0
C591 C 0.18278 0.32226 0.9699 0.0
C592 C 0.16611 0.33239 0.87159 0.0
H593 H 0.16224 0.32316 0.77033 0.0
C594 C 0.17475 0.35239 0.86971 0.0
C595 C 0.16099 0.32163 0.8354 0.0
C596 C 0.15201 0.30015 0.83561 0.0
C597 C 0.17982 0.36209 0.83259 0.0
C598 C 0.17555 0.35138 0.79639 0.0
C599 C 0.16554 0.3313 0.79822 0.0
C600 C 0.18372 0.36056 0.75697 0.0
C601 C 0.19092 0.38368 0.83271 0.0
C602 C 0.17985 0.37418 0.73986 0.0
C603 C 0.18823 0.38288 0.70298 0.0
C604 C 0.20021 0.37772 0.68238 0.0
C605 C 0.20393 0.36402 0.69955 0.0
C606 C 0.19586 0.35562 0.73653 0.0
H607 H 0.19615 0.38959 0.86343 0.0
H608 H 0.20342 0.38917 0.81203 0.0
H609 H 0.18151 0.38913 0.82205 0.0
H610 H 0.17024 0.37794 0.75476 0.0
H611 H 0.18495 0.39324 0.69009 0.0
H612 H 0.62204 0.804 0.70736 0.0
H613 H 0.63364 0.80368 0.77585 0.0
H614 H 0.69127 0.8441 0.7387 0.0
H615 H 0.68002 0.8445 0.67061 0.0
H616 H 0.68706 0.81269 0.79027 0.0
H617 H 0.65177 0.852 0.84938 0.0
H618 H 0.63702 0.83017 0.82212 0.0
H619 H 0.65554 0.8505 0.79599 0.0
C620 C 0.6372 0.81268 0.7137 0.0
C621 C 0.65005 0.8245 0.68367 0.0
C622 C 0.64378 0.81247 0.75277 0.0
C623 C 0.66326 0.824 0.76219 0.0
C624 C 0.67618 0.83512 0.73191 0.0
H625 H 0.7416 0.8683 0.96104 0.0
H626 H 0.72617 0.85513 0.89577 0.0
C627 C 0.66966 0.83541 0.69307 0.0
C628 C 0.67022 0.82585 0.80414 0.0
H629 H 0.6709 0.84658 0.89433 0.0
C630 C 0.68337 0.81986 0.81333 0.0
C631 C 0.66541 0.83531 0.83383 0.0
C632 C 0.65176 0.84252 0.82503 0.0
C633 C 0.69206 0.8233 0.85157 0.0
C634 C 0.68774 0.83335 0.88084 0.0
C635 C 0.67418 0.83885 0.87186 0.0
C636 C 0.69751 0.83909 0.92053 0.0
C637 C 0.70574 0.81615 0.86021 0.0
C638 C 0.68655 0.83449 0.956 0.0
C639 C 0.69525 0.84231 0.99294 0.0
C640 C 0.71512 0.85481 0.99525 0.0
C641 C 0.72627 0.85866 0.96012 0.0
C642 C 0.71748 0.85102 0.92289 0.0
H643 H 0.7028 0.80381 0.84055 0.0
H644 H 0.72058 0.82776 0.85393 0.0
H645 H 0.70491 0.81178 0.89234 0.0
H646 H 0.67113 0.82533 0.95486 0.0
H647 H 0.68632 0.83889 0.01963 0.0
H648 H 0.16489 0.88919 0.96302 0.0
H649 H 0.17803 0.89036 0.89534 0.0
H650 H 0.19579 0.85061 0.93374 0.0
H651 H 0.18309 0.8495 1.00092 0.0
H652 H 0.22298 0.88092 0.88392 0.0
H653 H 0.14907 0.84326 0.82034 0.0
H654 H 0.15627 0.86532 0.84663 0.0
H655 H 0.15359 0.84494 0.87405 0.0
C656 C 0.17178 0.88088 0.9571 0.0
C657 C 0.17263 0.86899 0.98713 0.0
C658 C 0.17926 0.88156 0.91852 0.0
C659 C 0.18766 0.8704 0.90964 0.0
C660 C 0.18935 0.85931 0.94008 0.0
H661 H 0.21863 0.82175 0.71555 0.0
H662 H 0.21767 0.83629 0.78013 0.0
C663 C 0.1819 0.85858 0.97839 0.0
C664 C 0.19323 0.8687 0.86803 0.0
H665 H 0.17406 0.84835 0.777 0.0
C666 C 0.21239 0.87407 0.86023 0.0
C667 C 0.17928 0.85956 0.83754 0.0
C668 C 0.15836 0.85278 0.84489 0.0
C669 C 0.21792 0.87025 0.82269 0.0
C670 C 0.20384 0.86062 0.79269 0.0
C671 C 0.18482 0.85579 0.80014 0.0
C672 C 0.20806 0.85457 0.75371 0.0
C673 C 0.23867 0.87641 0.81558 0.0
C674 C 0.20323 0.86022 0.71764 0.0
C675 C 0.20344 0.85174 0.68117 0.0
C676 C 0.20856 0.83749 0.68002 0.0
C677 C 0.21467 0.83273 0.71569 0.0
C678 C 0.21424 0.84111 0.75247 0.0
H679 H 0.24823 0.88815 0.83639 0.0
H680 H 0.24085 0.8641 0.82117 0.0
H681 H 0.24293 0.88124 0.78388 0.0
H682 H 0.19844 0.87058 0.718 0.0
H683 H 0.19893 0.85589 0.65398 0.0
H684 H 0.35562 0.17357 0.34287 0.0
H685 H 0.34311 0.16155 0.27556 0.0
H686 H 0.4005 0.19001 0.22748 0.0
H687 H 0.4133 0.20218 0.29527 0.0
H688 H 0.37356 0.19982 0.19222 0.0
H689 H 0.34411 0.12126 0.1984 0.0
H690 H 0.33825 0.13129 0.2409 0.0
H691 H 0.36273 0.13777 0.23212 0.0
C692 C 0.36565 0.17705 0.31815 0.0
C693 C 0.38545 0.189 0.3242 0.0
C694 C 0.35846 0.16998 0.27981 0.0
C695 C 0.3709 0.17473 0.24681 0.0
C696 C 0.39073 0.18605 0.25285 0.0
H697 H 0.34724 0.1701 0.9916 0.0
H698 H 0.36191 0.17173 0.05696 0.0
C699 C 0.398 0.193 0.29146 0.0
C700 C 0.36287 0.1701 0.20561 0.0
H701 H 0.3338 0.13307 0.14333 0.0
C702 C 0.36511 0.18526 0.18122 0.0
C703 C 0.35158 0.15106 0.19194 0.0
C704 C 0.34909 0.13437 0.21702 0.0
C705 C 0.35594 0.18187 0.14372 0.0
C706 C 0.34462 0.16283 0.12995 0.0
C707 C 0.3425 0.14763 0.15414 0.0
C708 C 0.33522 0.15874 0.09006 0.0
C709 C 0.35798 0.19869 0.11964 0.0
C710 C 0.31522 0.14999 0.08695 0.0
C711 C 0.3067 0.1489 0.04939 0.0
C712 C 0.31817 0.15671 0.01482 0.0
C713 C 0.33806 0.16433 0.01788 0.0
C714 C 0.34648 0.16523 0.05512 0.0
H715 H 0.36325 0.21173 0.1386 0.0
H716 H 0.36841 0.20193 0.09479 0.0
H717 H 0.34409 0.19538 0.10593 0.0
H718 H 0.30634 0.14485 0.11377 0.0
H719 H 0.29133 0.14287 0.04779 0.0
H720 H 0.89168 0.15675 0.04107 0.0
H721 H 0.89158 0.16846 0.10957 0.0
H722 H 0.85032 0.1844 0.07206 0.0
H723 H 0.8503 0.1729 0.00396 0.0
H724 H 0.88226 0.21226 0.12378 0.0
H725 H 0.84264 0.13758 0.18273 0.0
H726 H 0.86438 0.14471 0.15497 0.0
H727 H 0.84393 0.14288 0.12938 0.0
C728 C 0.88273 0.16291 0.04733 0.0
C729 C 0.87079 0.16363 0.0172 0.0
C730 C 0.8827 0.16958 0.0864 0.0
C731 C 0.87084 0.17714 0.09568 0.0
C732 C 0.85956 0.17861 0.06534 0.0
H733 H 0.82703 0.21164 0.29487 0.0
H734 H 0.83988 0.20911 0.22942 0.0
C735 C 0.85948 0.17188 0.02651 0.0
C736 C 0.86889 0.18223 0.13756 0.0
H737 H 0.84795 0.16215 0.22761 0.0
C738 C 0.87499 0.20139 0.14678 0.0
C739 C 0.85932 0.16794 0.16717 0.0
C740 C 0.85204 0.14709 0.15828 0.0
C741 C 0.87157 0.20665 0.18503 0.0
C742 C 0.86141 0.19226 0.21423 0.0
C743 C 0.85576 0.17317 0.20518 0.0
C744 C 0.85576 0.19632 0.25398 0.0
C745 C 0.8789 0.22751 0.19376 0.0
C746 C 0.86036 0.18994 0.28939 0.0
C747 C 0.85271 0.19098 0.32644 0.0
C748 C 0.84041 0.19855 0.32892 0.0
C749 C 0.83653 0.20582 0.29382 0.0
C750 C 0.84399 0.20451 0.25649 0.0
H751 H 0.89127 0.23688 0.1741 0.0
H752 H 0.86735 0.23082 0.18759 0.0
H753 H 0.88331 0.23101 0.22589 0.0
H754 H 0.86939 0.18357 0.28813 0.0
H755 H 0.85615 0.18548 0.35309 0.0
H756 H 0.87289 0.68897 0.01727 0.0
H757 H 0.85792 0.67512 0.08171 0.0
H758 H 0.83797 0.71551 0.09153 0.0
H759 H 0.85354 0.72997 0.02686 0.0
H760 H 0.85231 0.7125 0.16095 0.0
H761 H 0.8029 0.63951 0.10787 0.0
H762 H 0.82653 0.64639 0.09073 0.0
H763 H 0.81506 0.65935 0.07329 0.0
C764 C 0.86524 0.69489 0.03291 0.0
C765 C 0.86427 0.71048 0.01682 0.0
C766 C 0.85648 0.6868 0.0696 0.0
C767 C 0.84622 0.69381 0.09073 0.0
C768 C 0.84554 0.70967 0.07531 0.0
H769 H 0.80021 0.62638 0.31471 0.0
H770 H 0.79933 0.64093 0.24996 0.0
C771 C 0.85453 0.71797 0.03857 0.0
C772 C 0.83763 0.68529 0.13037 0.0
H773 H 0.81436 0.64204 0.17792 0.0
C774 C 0.84357 0.69713 0.16461 0.0
C775 C 0.82566 0.6653 0.13528 0.0
C776 C 0.817 0.65198 0.09968 0.0
C777 C 0.83955 0.68933 0.20367 0.0
C778 C 0.82993 0.66921 0.2084 0.0
C779 C 0.82221 0.65746 0.1743 0.0
C780 C 0.82997 0.66026 0.24745 0.0
C781 C 0.84629 0.70276 0.23941 0.0
C782 C 0.84749 0.66579 0.26656 0.0
C783 C 0.84801 0.65766 0.30327 0.0
C784 C 0.83104 0.6435 0.32134 0.0
C785 C 0.81351 0.63727 0.30138 0.0
C786 C 0.81298 0.64564 0.26464 0.0
H787 H 0.84605 0.71608 0.23229 0.0
H788 H 0.8373 0.69603 0.26659 0.0
H789 H 0.86131 0.70691 0.24658 0.0
H790 H 0.86085 0.67643 0.25302 0.0
H791 H 0.86177 0.66252 0.31757 0.0
H792 H 0.95785 0.47665 0.38054 0.0
H793 H 0.9727 0.47807 0.44638 0.0
H794 H 0.02727 0.49843 0.38773 0.0
H795 H 1.01276 0.49751 0.32243 0.0
H796 H 0.99616 0.46317 0.47898 0.0
H797 H 0.03533 0.54238 0.46365 0.0
H798 H 1.01543 0.52695 0.43155 0.0
H799 H 0.03872 0.52992 0.42238 0.0
C800 C 0.97293 0.48109 0.38174 0.0
C801 C 0.98427 0.48737 0.34667 0.0
C802 C 0.98136 0.48187 0.41922 0.0
C803 C 1.00113 0.48874 0.42177 0.0
C804 C 1.01208 0.49348 0.38635 0.0
H805 H 0.07784 0.53102 0.62985 0.0
H806 H 0.06543 0.51806 0.56238 0.0
C807 C 1.00377 0.49296 0.34916 0.0
C808 C 1.01073 0.49283 0.46147 0.0
H809 H 0.04259 0.5297 0.52057 0.0
C810 C 1.00637 0.47768 0.48813 0.0
C811 C 0.02402 0.51181 0.47312 0.0
C812 C 0.02857 0.52874 0.44639 0.0
C813 C 1.015 0.48107 0.52642 0.0
C814 C 0.02811 0.50007 0.53815 0.0
C815 C 0.03272 0.51513 0.51115 0.0
C816 C 0.03564 0.50507 0.57973 0.0
C817 C 1.01 0.46436 0.55407 0.0
C818 C 0.02296 0.5019 0.61161 0.0
C819 C 0.02995 0.5094 0.64982 0.0
C820 C 0.04978 0.52028 0.65688 0.0
C821 C 0.0625 0.52273 0.62532 0.0
C822 C 0.05545 0.5153 0.58687 0.0
H823 H 1.00454 0.45082 0.53678 0.0
H824 H 0.0226 0.46674 0.57217 0.0
H825 H 0.99859 0.46266 0.5753 0.0
H826 H 1.00764 0.4944 0.60649 0.0
H827 H 0.01975 0.50709 0.67356 0.0
H828 H 0.53364 0.53653 0.68556 0.0
H829 H 0.54857 0.53647 0.62136 0.0
H830 H 0.50593 0.54356 0.55729 0.0
H831 H 0.49148 0.54452 0.62187 0.0
H832 H 0.53046 0.50886 0.56969 0.0
H833 H 0.55214 0.57684 0.49025 0.0
H834 H 0.54659 0.57381 0.54363 0.0
H835 H 0.52772 0.56582 0.50661 0.0
C836 C 0.52781 0.53863 0.65775 0.0
C837 C 0.51137 0.54039 0.65838 0.0
C838 C 0.53637 0.53863 0.62116 0.0
C839 C 0.52845 0.54009 0.5845 0.0
C840 C 0.51259 0.54289 0.5852 0.0
H841 H 0.51245 0.50018 0.34856 0.0
H842 H 0.51501 0.51469 0.4142 0.0
C843 C 0.50425 0.5433 0.62202 0.0
C844 C 0.53482 0.53564 0.54606 0.0
H845 H 0.54596 0.54976 0.44779 0.0
C846 C 0.53433 0.51804 0.54329 0.0
C847 C 0.53988 0.54761 0.51169 0.0
C848 C 0.54181 0.56716 0.51332 0.0
C849 C 0.53754 0.51153 0.50647 0.0
C850 C 0.54146 0.52301 0.47162 0.0
C851 C 0.54295 0.54103 0.47471 0.0
C852 C 0.54121 0.51534 0.43099 0.0
C853 C 0.53547 0.49191 0.50453 0.0
C854 C 0.55521 0.51093 0.41869 0.0
C855 C 0.55376 0.50244 0.38091 0.0
C856 C 0.53831 0.49832 0.35505 0.0
C857 C 0.52453 0.50307 0.36757 0.0
C858 C 0.52601 0.51149 0.40506 0.0
H859 H 0.53018 0.48395 0.53345 0.0
H860 H 0.52543 0.48335 0.47995 0.0
H861 H 0.54959 0.49334 0.49765 0.0
H862 H 0.56712 0.51394 0.43837 0.0
H863 H 0.56469 0.49912 0.37204 0.0
H864 H 0.52727 0.99647 0.65045 0.0
H865 H 0.52568 1.01035 0.5865 0.0
H866 H 0.4648 0.97118 0.58048 0.0
H867 H 0.46633 0.95678 0.64501 0.0
H868 H 0.4823 0.97444 0.50853 0.0
H869 H 0.50606 0.04674 0.56657 0.0
H870 H 0.52245 0.03926 0.58293 0.0
H871 H 0.49787 0.0263 0.59965 0.0
C872 C 0.51349 0.99078 0.63572 0.0
C873 C 0.49688 0.97566 0.65298 0.0
C874 C 0.51258 0.99888 0.59932 0.0
C875 C 0.49501 0.99229 0.57957 0.0
C876 C 0.47843 0.97671 0.59578 0.0
H877 H 0.51834 0.06236 0.35932 0.0
H878 H 0.50184 0.04702 0.4228 0.0
C879 C 0.47935 0.96842 0.63236 0.0
C880 C 0.49469 1.00121 0.54075 0.0
H881 H 0.51506 0.04512 0.49611 0.0
C882 C 0.48893 0.98985 0.50582 0.0
C883 C 0.50275 0.02125 0.53719 0.0
C884 C 0.5074 0.03402 0.57374 0.0
C885 C 0.49306 0.99823 0.46729 0.0
C886 C 0.50366 0.01841 0.46392 0.0
C887 C 0.50739 0.02966 0.49872 0.0
C888 C 0.51331 0.0279 0.42576 0.0
C889 C 0.48681 0.98536 0.43065 0.0
C890 C 0.5258 0.0228 0.40754 0.0
C891 C 0.53511 0.03142 0.37166 0.0
C892 C 0.53243 0.04562 0.35352 0.0
C893 C 0.52066 0.05146 0.37273 0.0
C894 C 0.51113 0.04262 0.4087 0.0
H895 H 0.47318 0.97189 0.43671 0.0
H896 H 0.48484 0.99248 0.40384 0.0
H897 H 0.49783 0.98142 0.42347 0.0
H898 H 0.52836 0.01207 0.4211 0.0
H899 H 0.54434 0.02683 0.35795 0.0
H900 H 0.21889 0.27637 0.1037 0.0
H901 H 0.23177 0.25755 0.07369 0.0
H902 H 0.17543 0.21594 0.03191 0.0
H903 H 0.16234 0.23476 0.06155 0.0
H904 H 0.22308 0.21916 0.08341 0.0
H905 H 0.20776 0.23345 0.92722 0.0
H906 H 0.20692 0.2466 0.97058 0.0
H907 H 0.18762 0.22279 0.96106 0.0
C908 C 0.20912 0.26309 0.08866 0.0
C909 C 0.18955 0.25723 0.08485 0.0
C910 C 0.21655 0.25233 0.07144 0.0
C911 C 0.20466 0.23553 0.0498 0.0
C912 C 0.18496 0.22906 0.04777 0.0
H913 H 0.24243 0.15795 0.95644 0.0
H914 H 0.22346 0.17065 0.98706 0.0
C915 C 0.17747 0.23978 0.06511 0.0
C916 C 0.21313 0.22533 0.02817 0.0
H917 H 0.22201 0.21424 0.93362 0.0
C918 C 0.22271 0.21794 0.0507 0.0
C919 C 0.21285 0.22395 0.98539 0.0
C920 C 0.20339 0.23223 0.95947 0.0
C921 C 0.23203 0.20926 0.03165 0.0
C922 C 0.23171 0.20786 0.98892 0.0
C923 C 0.22209 0.21519 0.96637 0.0
C924 C 0.24216 0.19972 0.96721 0.0
C925 C 0.24265 0.20215 0.05725 0.0
C926 C 0.25863 0.21172 0.94467 0.0
C927 C 0.26956 0.20453 0.92714 0.0
C928 C 0.26414 0.18512 0.93143 0.0
C929 C 0.24707 0.17295 0.95238 0.0
C930 C 0.23624 0.1802 0.97018 0.0
H931 H 0.24414 0.20705 0.08914 0.0
H932 H 0.23475 0.18627 0.05707 0.0
H933 H 0.25714 0.20709 0.04461 0.0
H934 H 0.26341 0.22681 0.94182 0.0
H935 H 0.28256 0.21433 0.91119 0.0
H936 H 0.8711 0.08996 0.95088 0.0
H937 H 0.85808 0.05786 0.9795 0.0
H938 H 0.80226 0.04228 0.93293 0.0
H939 H 0.81508 0.07428 0.90421 0.0
H940 H 0.82795 0.04158 0.03806 0.0
H941 H 0.80948 0.99687 0.89968 0.0
H942 H 0.82607 0.02233 0.89925 0.0
H943 H 0.80072 0.01339 0.90019 0.0
C944 C 0.85613 0.07962 0.94593 0.0
C945 C 0.84417 0.0848 0.9251 0.0
C946 C 0.84869 0.06127 0.96256 0.0
C947 C 0.82921 0.0476 0.95822 0.0
C948 C 0.81738 0.05248 0.93624 0.0
H949 H 0.7524 0.94818 0.09816 0.0
H950 H 0.77135 0.98001 0.06837 0.0
C951 C 0.82476 0.07085 0.9199 0.0
C952 C 0.82093 0.02871 0.97888 0.0
H953 H 0.79646 0.98047 0.96183 0.0
C954 C 0.8212 0.02822 0.02138 0.0
C955 C 0.81227 1.01126 0.95716 0.0
C956 C 0.81222 1.01089 0.91153 0.0
C957 C 0.81251 1.01079 0.0427 0.0
C958 C 0.8032 0.99336 0.02101 0.0
C959 C 0.80348 0.99383 0.97849 0.0
C960 C 0.7926 0.97449 0.04179 0.0
C961 C 0.81335 1.01115 0.08831 0.0
C962 C 0.79826 0.96076 0.03698 0.0
C963 C 0.7875 0.94253 0.05422 0.0
C964 C 0.77065 0.93751 0.07617 0.0
C965 C 0.76529 0.95149 0.08162 0.0
C966 C 0.77614 0.96975 0.06466 0.0
H967 H 0.82485 0.02514 0.0999 0.0
H968 H 0.79949 1.00869 0.10053 0.0
H969 H 0.8158 0.99966 0.09998 0.0
H970 H 0.81086 0.96407 0.01936 0.0
H971 H 0.79204 0.93216 0.04908 0.0
H972 H 0.94137 0.78852 0.93819 0.0
H973 H 0.97386 0.80782 0.96534 0.0
H974 H 0.98312 0.76004 0.9509 0.0
H975 H 0.95117 0.74097 0.92276 0.0
H976 H 0.98916 0.80259 0.03251 0.0
H977 H 0.03141 0.80143 0.90226 0.0
H978 H 1.00632 0.79386 0.89799 0.0
H979 H 1.01376 0.77763 0.9167 0.0
C980 C 0.95046 0.78223 0.94003 0.0
C981 C 0.94358 0.76316 0.92789 0.0
C982 C 0.96903 0.79328 0.95577 0.0
C983 C 0.98116 0.78555 0.95966 0.0
C984 C 0.97436 0.7666 0.94722 0.0
H985 H 0.08404 0.80759 0.07999 0.0
H986 H 0.05225 0.79491 0.05036 0.0
C987 C 0.95593 0.75563 0.93123 0.0
C988 C 1.00047 0.79674 0.97875 0.0
H989 H 0.04737 0.80899 0.96691 0.0
C990 C 1.00193 0.80425 0.01786 0.0
C991 C 1.01725 0.79908 0.9597 0.0
C992 C 1.01715 0.79275 0.91668 0.0
C993 C 0.01946 0.81318 0.03898 0.0
C994 C 0.03593 0.8146 0.02063 0.0
C995 C 0.03465 0.80768 0.98113 0.0
C996 C 0.05451 0.8225 0.04232 0.0
C997 C 0.02021 0.82048 0.08132 0.0
C998 C 0.06626 0.84227 0.04832 0.0
C999 C 0.08459 0.84966 0.06521 0.0
C1000 C 0.09152 0.8374 0.07647 0.0
C1001 C 0.0793 0.81753 0.07183 0.0
C1002 C 0.06109 0.81021 0.05474 0.0
H1003 H 1.00582 0.81685 0.09269 0.0
H1004 H 0.02654 0.8144 0.10226 0.0
H1005 H 0.02957 0.83627 0.08175 0.0
H1006 H 0.0615 0.85202 0.03872 0.0
H1007 H 0.09355 0.86502 0.06815 0.0
H1008 H 0.8786 0.7953 0.97235 0.0
H1009 H 0.86022 0.80959 0.99804 0.0
H1010 H 0.80901 0.76417 0.9437 0.0
H1011 H 0.82736 0.74967 0.91778 0.0
H1012 H 0.81539 0.80232 0.93015 0.0
H1013 H 0.82097 0.78822 0.09251 0.0
H1014 H 0.8434 0.79982 0.06589 0.0
H1015 H 0.82551 0.7759 0.05222 0.0
C1016 C 0.86343 0.78832 0.96574 0.0
C1017 C 0.85445 0.77129 0.94305 0.0
C1018 C 0.85292 0.79647 0.98071 0.0
C1019 C 0.83318 0.7878 0.97335 0.0
C1020 C 0.82421 0.77102 0.94999 0.0
H1021 H 0.75659 0.8214 0.09088 0.0
H1022 H 0.77097 0.80289 0.06525 0.0
C1023 C 0.83471 0.76277 0.93518 0.0
C1024 C 0.82209 0.79651 0.98962 0.0
H1025 H 0.80939 0.80949 0.07774 0.0
C1026 C 0.81394 0.80375 0.9624 0.0
C1027 C 0.82003 0.79821 0.03173 0.0
C1028 C 0.82778 0.78998 0.06238 0.0
C1029 C 0.80437 0.81322 0.97616 0.0
C1030 C 0.80301 0.81562 0.01825 0.0
C1031 C 0.81056 0.80778 0.04549 0.0
C1032 C 0.79438 0.82679 0.03443 0.0
C1033 C 0.79581 0.82063 0.94552 0.0
C1034 C 0.80296 0.84643 0.02631 0.0
C1035 C 0.79488 0.85704 0.04108 0.0
C1036 C 0.778 0.84824 0.06435 0.0
C1037 C 0.76957 0.82861 0.07302 0.0
C1038 C 0.77776 0.81801 0.05838 0.0
H1039 H 0.79381 0.81357 0.91563 0.0
H1040 H 0.78177 0.81839 0.9561 0.0
H1041 H 0.80557 0.83621 0.94133 0.0
H1042 H 0.81596 0.85359 0.00851 0.0
H1043 H 0.8018 0.87213 0.03387 0.0
H1044 H 0.20728 0.93865 0.07435 0.0
H1045 H 0.22496 0.97161 0.04892 0.0
H1046 H 0.17182 0.97115 0.03151 0.0
H1047 H 0.15404 0.93823 0.05655 0.0
H1048 H 0.21857 0.98462 0.96818 0.0
H1049 H 0.2073 0.02081 0.09962 0.0
H1050 H 0.20528 0.99756 0.10352 0.0
H1051 H 0.18638 0.9999 0.0807 0.0
C1052 C 0.19936 0.94563 0.06549 0.0
C1053 C 0.17924 0.93582 0.06765 0.0
C1054 C 0.20949 0.96443 0.0508 0.0
C1055 C 0.19971 0.97387 0.03857 0.0
C1056 C 0.17966 0.96421 0.04117 0.0
H1057 H 0.22828 0.08563 0.94987 0.0
H1058 H 0.21315 0.05281 0.97491 0.0
C1059 C 0.16952 0.94537 0.05545 0.0
C1060 C 0.21035 0.99364 0.02206 0.0
H1061 H 0.2211 0.03952 0.04102 0.0
C1062 C 0.21927 0.99669 0.98415 0.0
C1063 C 0.21113 1.0093 0.04287 0.0
C1064 C 0.20215 1.00688 0.08409 0.0
C1065 C 0.22849 0.0149 0.96592 0.0
C1066 C 0.22925 0.03062 0.98671 0.0
C1067 C 0.22053 0.02754 0.02496 0.0
C1068 C 0.2385 0.05029 0.96913 0.0
C1069 C 0.23666 0.01693 0.92395 0.0
C1070 C 0.25784 0.05991 0.9572 0.0
C1071 C 0.2665 0.07869 0.94228 0.0
C1072 C 0.25608 0.08833 0.93966 0.0
C1073 C 0.23673 0.07864 0.95146 0.0
C1074 C 0.22806 0.05986 0.96591 0.0
H1075 H 0.23016 1.00296 0.90794 0.0
H1076 H 0.23439 0.02708 0.90543 0.0
H1077 H 0.25229 0.02247 0.92622 0.0
H1078 H 0.26639 0.05309 0.96028 0.0
H1079 H 0.28148 0.08583 0.93389 0.0
H1080 H 0.94364 0.14985 0.95087 0.0
H1081 H 0.97653 0.16817 0.97588 0.0
H1082 H 0.97609 0.22068 0.95634 0.0
H1083 H 0.94309 0.20242 0.93096 0.0
H1084 H 1.01018 0.19939 0.93347 0.0
H1085 H 0.99221 0.22179 0.07858 0.0
H1086 H 0.97462 0.20164 0.04963 0.0
H1087 H 0.98244 0.22554 0.03281 0.0
C1088 C 0.95053 0.16531 0.9517 0.0
C1089 C 0.94071 0.17467 0.93894 0.0
C1090 C 0.96935 0.17575 0.96603 0.0
C1091 C 0.9787 0.19576 0.96841 0.0
C1092 C 0.96907 0.20522 0.9552 0.0
H1093 H 0.09138 0.2766 0.07062 0.0
H1094 H 0.05891 0.26189 0.04241 0.0
C1095 C 0.95025 0.19477 0.94049 0.0
C1096 C 0.99855 0.20661 0.98459 0.0
H1097 H 0.02476 0.2324 0.06631 0.0
C1098 C 1.0134 0.20666 0.96245 0.0
C1099 C 1.00273 0.2162 0.02225 0.0
C1100 C 0.98721 0.21629 0.04751 0.0
C1101 C 0.03234 0.21603 0.97693 0.0
C1102 C 0.03648 0.22513 0.01528 0.0
C1103 C 0.02164 0.22538 0.03706 0.0
C1104 C 0.05597 0.23399 0.03367 0.0
C1105 C 0.04775 0.21633 0.95056 0.0
C1106 C 0.06499 0.22313 0.03927 0.0
C1107 C 0.08355 0.23153 0.05504 0.0
C1108 C 0.09344 0.25092 0.06633 0.0
C1109 C 0.08415 0.26163 0.06222 0.0
C1110 C 0.0656 0.25324 0.04603 0.0
H1111 H 0.0436 0.21443 0.9181 0.0
H1112 H 0.06153 0.22994 0.95401 0.0
H1113 H 0.05 0.20434 0.95938 0.0
H1114 H 0.0577 0.20812 0.03124 0.0
H1115 H 0.09019 0.2228 0.05817 0.0
H1116 H 0.88725 0.61425 0.41939 0.0
H1117 H 0.90001 0.59523 0.39054 0.0
H1118 H 0.84274 0.54757 0.37601 0.0
H1119 H 0.8297 0.56682 0.40377 0.0
H1120 H 0.89865 0.56283 0.41147 0.0
H1121 H 0.86263 0.55221 0.26266 0.0
H1122 H 0.86286 0.56853 0.30019 0.0
H1123 H 0.8466 0.54324 0.30503 0.0
C1124 C 0.87727 0.59968 0.41041 0.0
C1125 C 0.85737 0.59219 0.4137 0.0
C1126 C 0.88465 0.58879 0.39379 0.0
C1127 C 0.87238 0.57007 0.38009 0.0
C1128 C 0.85252 0.56216 0.38517 0.0
H1129 H 0.90683 0.49162 0.27365 0.0
H1130 H 0.88777 0.50442 0.30383 0.0
C1131 C 0.84508 0.57314 0.40152 0.0
C1132 C 0.88063 0.55918 0.36023 0.0
H1133 H 0.88154 0.5377 0.27147 0.0
C1134 C 0.8948 0.55728 0.38093 0.0
C1135 C 0.87569 0.5519 0.32025 0.0
C1136 C 0.86125 0.55418 0.29552 0.0
C1137 C 0.90431 0.54863 0.3627 0.0
C1138 C 0.8996 0.54168 0.32264 0.0
C1139 C 0.88508 0.54303 0.30222 0.0
C1140 C 0.91042 0.53395 0.30102 0.0
C1141 C 0.91953 0.54715 0.38619 0.0
C1142 C 0.92928 0.54635 0.28837 0.0
C1143 C 0.94016 0.53915 0.27085 0.0
C1144 C 0.93248 0.51931 0.26574 0.0
C1145 C 0.91327 0.50696 0.27707 0.0
C1146 C 0.90234 0.51423 0.2944 0.0
H1147 H 0.91915 0.55004 0.41895 0.0
H1148 H 0.91781 0.5327 0.38258 0.0
H1149 H 0.93384 0.55773 0.37418 0.0
H1150 H 0.93573 0.56163 0.29292 0.0
H1151 H 0.95484 0.54916 0.26256 0.0
H1152 H 0.5364 0.42047 0.27176 0.0
H1153 H 0.52357 0.38795 0.29815 0.0
H1154 H 0.46624 0.37857 0.28791 0.0
H1155 H 0.47877 0.4106 0.26059 0.0
H1156 H 0.50379 0.3726 0.3664 0.0
H1157 H 0.4589 0.33042 0.2376 0.0
H1158 H 0.47641 0.3555 0.23308 0.0
H1159 H 0.45292 0.34803 0.25314 0.0
C1160 C 0.52103 0.41136 0.27433 0.0
C1161 C 0.50866 0.41824 0.26368 0.0
C1162 C 0.51372 0.39276 0.28965 0.0
C1163 C 0.49388 0.3806 0.29455 0.0
C1164 C 0.48154 0.38738 0.28346 0.0
H1165 H 0.41439 0.27831 0.41778 0.0
H1166 H 0.4334 0.31 0.3878 0.0
C1167 C 0.4888 0.40585 0.26794 0.0
C1168 C 0.48601 0.3613 0.31342 0.0
H1169 H 0.45123 0.31443 0.30223 0.0
C1170 C 0.49252 0.35983 0.35204 0.0
C1171 C 0.47137 0.34452 0.29473 0.0
C1172 C 0.46465 0.34465 0.25217 0.0
C1173 C 0.48416 0.34231 0.37309 0.0
C1174 C 0.46888 0.32586 0.35518 0.0
C1175 C 0.46282 0.32714 0.31611 0.0
C1176 C 0.45836 0.30732 0.37705 0.0
C1177 C 0.49117 0.34155 0.41495 0.0
C1178 C 0.46622 0.29538 0.38166 0.0
C1179 C 0.45533 0.2771 0.39876 0.0
C1180 C 0.43636 0.27042 0.4116 0.0
C1181 C 0.4289 0.28284 0.40834 0.0
C1182 C 0.43973 0.301 0.39107 0.0
H1183 H 0.5023 0.35587 0.42585 0.0
H1184 H 0.479 0.33551 0.43658 0.0
H1185 H 0.49729 0.33194 0.4148 0.0
H1186 H 0.48054 0.29995 0.37082 0.0
H1187 H 0.46157 0.26797 0.4006 0.0
H1188 H 0.62115 0.07978 0.23914 0.0
H1189 H 0.65302 0.0988 0.26871 0.0
H1190 H 0.63735 0.13886 0.31554 0.0
H1191 H 0.60533 0.11988 0.28621 0.0
H1192 H 0.68212 0.13825 0.26041 0.0
H1193 H 0.65342 0.11993 0.41715 0.0
H1194 H 0.63949 0.10712 0.37339 0.0
H1195 H 0.64299 0.13034 0.3853 0.0
C1196 C 0.62449 0.09276 0.25523 0.0
C1197 C 0.61052 0.09816 0.26047 0.0
C1198 C 0.64276 0.10363 0.27217 0.0
C1199 C 0.64747 0.12006 0.295 0.0
C1200 C 0.63393 0.12605 0.29864 0.0
H1201 H 0.76319 0.1988 0.38642 0.0
H1202 H 0.73134 0.18569 0.35635 0.0
C1203 C 0.61565 0.11524 0.28152 0.0
C1204 C 0.66626 0.13037 0.31621 0.0
H1205 H 0.68677 0.14017 0.41027 0.0
C1206 C 0.68315 0.13881 0.29316 0.0
C1207 C 0.66759 0.13088 0.35899 0.0
C1208 C 0.64995 0.12148 0.38533 0.0
C1209 C 0.70129 0.1477 0.31169 0.0
C1210 C 0.70262 0.14826 0.35446 0.0
C1211 C 0.68574 0.13987 0.37752 0.0
C1212 C 0.7214 0.15663 0.37564 0.0
C1213 C 0.71893 0.15593 0.28537 0.0
C1214 C 0.72618 0.1448 0.39783 0.0
C1215 C 0.74439 0.15223 0.41515 0.0
C1216 C 0.7582 0.17174 0.41097 0.0
C1217 C 0.753 0.18372 0.39031 0.0
C1218 C 0.73482 0.17623 0.3728 0.0
H1219 H 0.71544 0.15115 0.25342 0.0
H1220 H 0.72609 0.17177 0.28594 0.0
H1221 H 0.72925 0.15177 0.29698 0.0
H1222 H 0.71602 0.12965 0.40063 0.0
H1223 H 0.74779 0.14255 0.43089 0.0
H1224 H 0.49284 0.07907 0.26921 0.0
H1225 H 0.47495 0.09421 0.29437 0.0
H1226 H 0.52775 0.14767 0.30783 0.0
H1227 H 0.5457 0.1327 0.28316 0.0
H1228 H 0.48222 0.11506 0.37426 0.0
H1229 H 0.4908 0.15989 0.23962 0.0
H1230 H 0.49298 0.13872 0.23694 0.0
H1231 H 0.51216 0.1605 0.2574 0.0
C1232 C 0.50061 0.09409 0.27718 0.0
C1233 C 0.5207 0.10469 0.27404 0.0
C1234 C 0.49038 0.10269 0.29169 0.0
C1235 C 0.50001 0.1221 0.3027 0.0
C1236 C 0.52001 0.13273 0.29914 0.0
H1237 H 0.47316 0.20675 0.38969 0.0
H1238 H 0.48772 0.18861 0.364 0.0
C1239 C 0.53025 0.12412 0.28509 0.0
C1240 C 0.48937 0.13127 0.31901 0.0
H1241 H 0.47833 0.16609 0.29888 0.0
C1242 C 0.48118 0.1261 0.35771 0.0
C1243 C 0.48818 0.14574 0.29746 0.0
C1244 C 0.49635 0.15152 0.2554 0.0
C1245 C 0.47236 0.13546 0.376 0.0
C1246 C 0.47125 0.15007 0.35454 0.0
C1247 C 0.47918 0.15496 0.31547 0.0
C1248 C 0.46241 0.16085 0.37219 0.0
C1249 C 0.465 0.13011 0.41874 0.0
C1250 C 0.44329 0.15137 0.38558 0.0
C1251 C 0.43498 0.16174 0.4008 0.0
C1252 C 0.44552 0.18184 0.40237 0.0
C1253 C 0.46464 0.19129 0.38903 0.0
C1254 C 0.47298 0.18092 0.37418 0.0
H1255 H 0.47172 0.12285 0.43469 0.0
H1256 H 0.46774 0.1429 0.4365 0.0
H1257 H 0.44932 0.12008 0.41796 0.0
H1258 H 0.43464 0.13595 0.38347 0.0
H1259 H 0.42015 0.15403 0.41035 0.0
H1260 H 0.87439 0.27415 0.42135 0.0
H1261 H 0.89243 0.30702 0.39531 0.0
H1262 H 0.84084 0.3007 0.34198 0.0
H1263 H 0.82279 0.26801 0.36769 0.0
H1264 H 0.87328 0.31635 0.28882 0.0
H1265 H 0.88953 0.35419 0.43681 0.0
H1266 H 0.89569 0.33574 0.43209 0.0
H1267 H 0.871 0.3295 0.43107 0.0
C1268 C 0.86688 0.27982 0.4043 0.0
C1269 C 0.84712 0.26846 0.39678 0.0
C1270 C 0.8772 0.29862 0.38951 0.0
C1271 C 0.86795 0.30637 0.36691 0.0
C1272 C 0.84827 0.29504 0.35935 0.0
H1273 H 0.89823 0.42121 0.30067 0.0
H1274 H 0.88385 0.38841 0.32577 0.0
C1275 C 0.83796 0.27634 0.37423 0.0
C1276 C 0.87866 0.32619 0.35054 0.0
H1277 H 0.90201 0.37328 0.37839 0.0
C1278 C 0.87969 0.32881 0.30838 0.0
C1279 C 0.88685 0.34242 0.3761 0.0
C1280 C 0.88566 0.34046 0.42156 0.0
C1281 C 0.8886 0.34721 0.29113 0.0
C1282 C 0.89677 0.36343 0.31669 0.0
C1283 C 0.89583 0.36082 0.35884 0.0
C1284 C 0.90553 0.38322 0.30036 0.0
C1285 C 0.88872 0.34919 0.24572 0.0
C1286 C 0.92251 0.39124 0.27761 0.0
C1287 C 0.93084 0.41008 0.26323 0.0
C1288 C 0.92228 0.42122 0.27126 0.0
C1289 C 0.90517 0.41304 0.29372 0.0
C1290 C 0.89695 0.39429 0.30826 0.0
H1291 H 0.87893 0.33537 0.23065 0.0
H1292 H 0.88447 0.35982 0.23706 0.0
H1293 H 0.90343 0.35438 0.2342 0.0
H1294 H 0.92949 0.38303 0.2715 0.0
H1295 H 0.94407 0.41598 0.24624 0.0
H1296 H 0.60923 0.53473 0.26798 0.0
H1297 H 0.64238 0.55257 0.29263 0.0
H1298 H 0.64238 0.49966 0.30904 0.0
H1299 H 0.60931 0.48175 0.28482 0.0
H1300 H 0.65606 0.54623 0.37283 0.0
H1301 H 0.69157 0.53534 0.23958 0.0
H1302 H 0.66824 0.53324 0.23661 0.0
H1303 H 0.6708 0.51437 0.25878 0.0
C1304 C 0.61635 0.52691 0.27649 0.0
C1305 C 0.60663 0.50681 0.27427 0.0
C1306 C 0.63526 0.53712 0.29072 0.0
C1307 C 0.64489 0.52745 0.30241 0.0
C1308 C 0.6353 0.50742 0.2998 0.0
H1309 H 0.75729 0.55607 0.38822 0.0
H1310 H 0.72442 0.541 0.36326 0.0
C1311 C 0.61637 0.49721 0.286 0.0
C1312 C 0.6648 0.53815 0.31834 0.0
H1313 H 0.71064 0.549 0.29784 0.0
C1314 C 0.66806 0.54699 0.35638 0.0
C1315 C 0.68037 0.53901 0.29692 0.0
C1316 C 0.67771 0.53013 0.25555 0.0
C1317 C 0.6864 0.55618 0.37414 0.0
C1318 C 0.70203 0.55702 0.35274 0.0
C1319 C 0.69873 0.54839 0.31437 0.0
C1320 C 0.72182 0.56626 0.36983 0.0
C1321 C 0.68864 0.56424 0.41628 0.0
C1322 C 0.73146 0.58554 0.38203 0.0
C1323 C 0.75027 0.59416 0.39687 0.0
C1324 C 0.75994 0.58376 0.39918 0.0
C1325 C 0.75028 0.5645 0.38691 0.0
C1326 C 0.73146 0.55586 0.3725 0.0
H1327 H 0.67476 0.55768 0.43265 0.0
H1328 H 0.69892 0.56194 0.43431 0.0
H1329 H 0.69416 0.57985 0.41428 0.0
H1330 H 0.7246 0.59407 0.37934 0.0
H1331 H 0.75738 0.60908 0.40561 0.0
H1332 H 0.57387 0.82627 0.59927 0.0
H1333 H 0.55443 0.83918 0.62663 0.0
H1334 H 0.60326 0.89617 0.62068 0.0
H1335 H 0.62253 0.88357 0.59238 0.0
H1336 H 0.5586 0.85779 0.69626 0.0
H1337 H 0.56348 0.90534 0.57114 0.0
H1338 H 0.57069 0.88765 0.56524 0.0
H1339 H 0.58682 0.91062 0.5873 0.0
C1340 C 0.58038 0.8416 0.60298 0.0
C1341 C 0.5998 0.85385 0.59324 0.0
C1342 C 0.56924 0.84896 0.61885 0.0
C1343 C 0.57724 0.86872 0.62526 0.0
C1344 C 0.59653 0.88095 0.61506 0.0
H1345 H 0.55422 0.94664 0.75452 0.0
H1346 H 0.567 0.92791 0.72373 0.0
C1347 C 0.60761 0.87366 0.59897 0.0
C1348 C 0.5659 0.87655 0.64475 0.0
H1349 H 0.55454 0.9119 0.63619 0.0
C1350 C 0.55746 0.86941 0.68278 0.0
C1351 C 0.56424 0.89166 0.62722 0.0
C1352 C 0.57162 0.89911 0.58529 0.0
C1353 C 0.54824 0.87755 0.70437 0.0
C1354 C 0.54748 0.89324 0.68763 0.0
C1355 C 0.55533 0.89998 0.64916 0.0
C1356 C 0.53934 0.90347 0.71014 0.0
C1357 C 0.53992 0.86984 0.74555 0.0
C1358 C 0.51947 0.89578 0.71347 0.0
C1359 C 0.51202 0.9065 0.73103 0.0
C1360 C 0.52432 0.92515 0.74561 0.0
C1361 C 0.54424 0.93238 0.74373 0.0
C1362 C 0.55163 0.92171 0.726 0.0
H1363 H 0.5428 0.8584 0.75562 0.0
H1364 H 0.54595 0.88158 0.76819 0.0
H1365 H 0.52419 0.86392 0.74476 0.0
H1366 H 0.50974 0.88175 0.70123 0.0
H1367 H 0.49664 0.90045 0.73177 0.0
H1368 H 0.14519 0.74528 0.59468 0.0
H1369 H 0.132 0.7132 0.62249 0.0
H1370 H 0.1889 0.72157 0.63414 0.0
H1371 H 0.20236 0.75404 0.60722 0.0
H1372 H 0.13302 0.68191 0.59868 0.0
H1373 H 0.16905 0.70568 0.74793 0.0
H1374 H 0.16881 0.72217 0.71147 0.0
H1375 H 0.18503 0.71319 0.70541 0.0
C1376 C 0.15499 0.74035 0.60288 0.0
C1377 C 0.17492 0.75245 0.59892 0.0
C1378 C 0.14737 0.72192 0.61887 0.0
C1379 C 0.15943 0.71503 0.63136 0.0
C1380 C 0.17929 0.7267 0.62583 0.0
H1381 H 0.12569 0.60171 0.73394 0.0
H1382 H 0.14443 0.63387 0.7049 0.0
C1383 C 0.18697 0.74524 0.61001 0.0
C1384 C 0.151 0.69569 0.65031 0.0
H1385 H 0.15004 0.67233 0.73758 0.0
C1386 C 0.13682 0.67985 0.629 0.0
C1387 C 0.15592 0.69291 0.68996 0.0
C1388 C 0.1704 0.70938 0.71525 0.0
C1389 C 0.12733 0.66148 0.64628 0.0
C1390 C 0.132 0.6588 0.68605 0.0
C1391 C 0.1465 0.67445 0.70708 0.0
C1392 C 0.12125 0.63996 0.70673 0.0
C1393 C 0.11222 0.64501 0.62199 0.0
C1394 C 0.10218 0.63296 0.71847 0.0
C1395 C 0.09147 0.61469 0.73536 0.0
C1396 C 0.09956 0.60291 0.74074 0.0
C1397 C 0.11894 0.6103 0.73026 0.0
C1398 C 0.1297 0.62868 0.71359 0.0
H1399 H 0.11286 0.64861 0.58936 0.0
H1400 H 0.11384 0.63221 0.62515 0.0
H1401 H 0.09786 0.64124 0.63365 0.0
H1402 H 0.09544 0.64151 0.7138 0.0
H1403 H 0.07664 0.6096 0.74301 0.0
H1404 H 0.41794 0.47544 0.75143 0.0
H1405 H 0.38589 0.46237 0.72262 0.0
H1406 H 0.39733 0.51937 0.69618 0.0
H1407 H 0.42951 0.53266 0.72475 0.0
H1408 H 0.35495 0.46879 0.74121 0.0
H1409 H 0.38263 0.49189 0.58501 0.0
H1410 H 0.3974 0.49139 0.62548 0.0
H1411 H 0.39195 0.51035 0.62289 0.0
C1412 C 0.41364 0.48527 0.73992 0.0
C1413 C 0.42647 0.50515 0.74025 0.0
C1414 C 0.39527 0.47774 0.72341 0.0
C1415 C 0.38931 0.48985 0.70656 0.0
C1416 C 0.40173 0.50972 0.70834 0.0
H1417 H 0.27212 0.45246 0.62512 0.0
H1418 H 0.30412 0.47083 0.65489 0.0
C1419 C 0.4201 0.5173 0.72501 0.0
C1420 C 0.37033 0.48156 0.68618 0.0
H1421 H 0.34911 0.47622 0.5937 0.0
C1422 C 0.35366 0.47052 0.70903 0.0
C1423 C 0.36866 0.48366 0.64405 0.0
C1424 C 0.38607 0.49483 0.6177 0.0
C1425 C 0.33542 0.46155 0.69092 0.0
C1426 C 0.33377 0.46369 0.64885 0.0
C1427 C 0.3504 0.47473 0.62598 0.0
C1428 C 0.31491 0.45371 0.6279 0.0
C1429 C 0.31804 0.4494 0.71668 0.0
C1430 C 0.31054 0.43838 0.60174 0.0
C1431 C 0.29225 0.42779 0.5847 0.0
C1432 C 0.27795 0.43244 0.59313 0.0
C1433 C 0.28272 0.44844 0.61781 0.0
C1434 C 0.30099 0.45892 0.63512 0.0
H1435 H 0.32196 0.44675 0.74726 0.0
H1436 H 0.30964 0.45676 0.7203 0.0
H1437 H 0.30867 0.43542 0.70178 0.0
H1438 H 0.32111 0.43417 0.5956 0.0
H1439 H 0.28917 0.41562 0.5658 0.0
H1440 H 0.20761 0.45256 0.66337 0.0
H1441 H 0.18974 0.46705 0.69041 0.0
H1442 H 0.14889 0.44209 0.59297 0.0
H1443 H 0.16616 0.42641 0.5675 0.0
H1444 H 0.18388 0.49252 0.66414 0.0
H1445 H 0.11206 0.42881 0.68174 0.0
H1446 H 0.1328 0.42692 0.66949 0.0
H1447 H 0.1201 0.43159 0.63036 0.0
C1448 C 0.1947 0.45001 0.64791 0.0
C1449 C 0.18825 0.43832 0.61337 0.0
C1450 C 0.18446 0.45833 0.66339 0.0
C1451 C 0.16768 0.45554 0.64428 0.0
C1452 C 0.16136 0.44403 0.60927 0.0
H1453 H 0.12817 0.53677 0.68568 0.0
H1454 H 0.14324 0.51908 0.66073 0.0
C1455 C 0.17135 0.43522 0.59441 0.0
C1456 C 0.15758 0.46549 0.66019 0.0
H1457 H 0.11377 0.45913 0.68667 0.0
C1458 C 0.16855 0.48509 0.66935 0.0
C1459 C 0.13759 0.45592 0.66782 0.0
C1460 C 0.12501 0.43462 0.66226 0.0
C1461 C 0.16026 0.49533 0.68558 0.0
C1462 C 0.14013 0.48605 0.69091 0.0
C1463 C 0.12914 0.4664 0.68216 0.0
C1464 C 0.13028 0.49646 0.70538 0.0
C1465 C 0.17338 0.51586 0.69799 0.0
C1466 C 0.11705 0.48925 0.73753 0.0
C1467 C 0.10787 0.4991 0.75104 0.0
C1468 C 0.11198 0.51653 0.73311 0.0
C1469 C 0.12502 0.5236 0.70074 0.0
C1470 C 0.13378 0.51353 0.6866 0.0
H1471 H 0.18789 0.51846 0.70573 0.0
H1472 H 0.17501 0.52542 0.67234 0.0
H1473 H 0.16768 0.51985 0.72452 0.0
H1474 H 0.11392 0.47606 0.75243 0.0
H1475 H 0.09778 0.49323 0.77585 0.0
H1476 H 0.48828 0.60625 0.72517 0.0
H1477 H 0.50605 0.63916 0.69994 0.0
H1478 H 0.55924 0.64002 0.71974 0.0
H1479 H 0.54158 0.6071 0.74538 0.0
H1480 H 0.53813 0.67372 0.74207 0.0
H1481 H 0.55838 0.65441 0.59583 0.0
H1482 H 0.53836 0.63721 0.6257 0.0
H1483 H 0.56236 0.64476 0.64153 0.0
C1484 C 0.50377 0.61347 0.72449 0.0
C1485 C 0.5135 0.60403 0.73729 0.0
C1486 C 0.51389 0.63228 0.71001 0.0
C1487 C 0.53394 0.64195 0.70755 0.0
C1488 C 0.54376 0.63274 0.72102 0.0
H1489 H 0.61475 0.75312 0.60111 0.0
H1490 H 0.59957 0.72077 0.62976 0.0
C1491 C 0.53364 0.61397 0.73589 0.0
C1492 C 0.54449 0.66161 0.69054 0.0
H1493 H 0.56938 0.68706 0.60732 0.0
C1494 C 0.545 0.67668 0.71265 0.0
C1495 C 0.55355 0.66543 0.65231 0.0
C1496 C 0.55314 0.64965 0.62715 0.0
C1497 C 0.55441 0.69551 0.69764 0.0
C1498 C 0.56303 0.69929 0.65878 0.0
C1499 C 0.56273 0.68421 0.63696 0.0
C1500 C 0.57211 0.7187 0.64006 0.0
C1501 C 0.55531 0.71119 0.72401 0.0
C1502 C 0.56163 0.72816 0.63516 0.0
C1503 C 0.57031 0.74667 0.61913 0.0
C1504 C 0.58959 0.75605 0.60688 0.0
C1505 C 0.59988 0.7463 0.61024 0.0
C1506 C 0.59122 0.72781 0.62669 0.0
H1507 H 0.55368 0.7072 0.75655 0.0
H1508 H 0.56905 0.72478 0.71994 0.0
H1509 H 0.54341 0.71369 0.71577 0.0
H1510 H 0.54671 0.72127 0.64397 0.0
H1511 H 0.56191 0.75368 0.61661 0.0
H1512 H 0.27598 0.81479 0.61939 0.0
H1513 H 0.30897 0.8327 0.64422 0.0
H1514 H 0.31019 0.88574 0.62047 0.0
H1515 H 0.27716 0.86792 0.59525 0.0
H1516 H 0.34328 0.86333 0.60061 0.0
H1517 H 0.32561 0.88741 0.74384 0.0
H1518 H 0.30789 0.8671 0.71549 0.0
H1519 H 0.316 0.89089 0.69751 0.0
C1520 C 0.28328 0.83027 0.61919 0.0
C1521 C 0.27391 0.83992 0.60534 0.0
C1522 C 0.30214 0.84048 0.63343 0.0
C1523 C 0.31196 0.86053 0.63462 0.0
C1524 C 0.30279 0.87025 0.62023 0.0
H1525 H 0.42453 0.94176 0.73563 0.0
H1526 H 0.39199 0.92665 0.70777 0.0
C1527 C 0.28396 0.86005 0.6056 0.0
C1528 C 0.33178 0.87118 0.65098 0.0
H1529 H 0.3581 0.89757 0.73201 0.0
C1530 C 0.34656 0.87085 0.62929 0.0
C1531 C 0.33604 0.88111 0.68822 0.0
C1532 C 0.3206 0.88165 0.71294 0.0
C1533 C 0.36549 0.88023 0.64377 0.0
C1534 C 0.36971 0.8897 0.68173 0.0
C1535 C 0.35493 0.89027 0.70308 0.0
C1536 C 0.38924 0.89877 0.70002 0.0
C1537 C 0.38084 0.88019 0.61775 0.0
C1538 C 0.3984 0.88807 0.7061 0.0
C1539 C 0.41702 0.89671 0.72164 0.0
C1540 C 0.42682 0.91619 0.73226 0.0
C1541 C 0.41738 0.92673 0.72777 0.0
C1542 C 0.39878 0.9181 0.71177 0.0
H1543 H 0.37666 0.878 0.5853 0.0
H1544 H 0.39465 0.89379 0.62077 0.0
H1545 H 0.38302 0.86824 0.62724 0.0
H1546 H 0.39118 0.873 0.6986 0.0
H1547 H 0.42379 0.88812 0.72509 0.0
loop_
_geom_bond_atom_site_label_1
_geom_bond_atom_site_label_2
_geom_bond_distance
_geom_bond_site_symmetry_2
_ccdc_geom_bond_type
Co0 O1 2.216 . S
Co0 O2 2.091 . S
Co0 O4 2.004 . S
Co0 O10 2.027 . S
Co0 O12 2.137 . S
Co0 O13 2.244 . S
O1 Co0 2.216 . S
O1 C8 1.247 . S
O2 Co0 2.091 . S
O2 C8 1.261 . S
C3 O12 1.247 . S
C3 O13 1.272 . S
O4 Co0 2.004 . S
O4 C9 1.259 . S
Co5 O6 2.061 . S
Co5 O11 2.052 . S
Co5 O13 2.135 . S
O6 Co5 2.061 . S
O6 C9 1.235 . S
C7 O10 1.236 1_556 S
C7 O11 1.241 1_556 S
C8 O1 1.247 . S
C8 O2 1.261 . S
C9 O4 1.259 . S
C9 O6 1.235 . S
O10 Co0 2.027 . S
O10 C7 1.236 1_554 S
O11 Co5 2.052 . S
O11 C7 1.241 1_554 S
O12 Co0 2.137 . S
O12 C3 1.247 . S
O13 Co0 2.244 . S
O13 C3 1.272 . S
O13 Co5 2.135 . S
Co14 O15 2.216 . S
Co14 O16 2.091 . S
Co14 O18 2.004 . S
Co14 O24 2.027 . S
Co14 O26 2.137 . S
Co14 O27 2.244 . S
O15 Co14 2.216 . S
O15 C22 1.247 . S
O16 Co14 2.091 . S
O16 C22 1.261 . S
C17 O26 1.247 . S
C17 O27 1.272 . S
O18 Co14 2.004 . S
O18 C23 1.259 . S
Co19 O20 2.061 . S
Co19 O25 2.052 . S
Co19 O27 2.135 . S
O20 Co19 2.061 . S
O20 C23 1.235 . S
C21 O24 1.236 1_556 S
C21 O25 1.241 1_556 S
C22 O15 1.247 . S
C22 O16 1.261 . S
C23 O18 1.259 . S
C23 O20 1.235 . S
O24 Co14 2.027 . S
O24 C21 1.236 1_554 S
O25 Co19 2.052 . S
O25 C21 1.241 1_554 S
O26 Co14 2.137 . S
O26 C17 1.247 . S
O27 Co14 2.244 . S
O27 C17 1.272 . S
O27 Co19 2.135 . S
Co28 O29 2.216 . S
Co28 O30 2.091 . S
Co28 O32 2.004 . S
Co28 O38 2.027 . S
Co28 O40 2.137 . S
Co28 O41 2.244 . S
O29 Co28 2.216 . S
O29 C36 1.247 . S
O30 Co28 2.091 . S
O30 C36 1.261 . S
C31 O40 1.247 . S
C31 O41 1.272 . S
O32 Co28 2.004 . S
O32 C37 1.259 . S
Co33 O34 2.061 . S
Co33 O39 2.052 . S
Co33 O41 2.135 . S
O34 Co33 2.061 . S
O34 C37 1.235 . S
C35 O38 1.236 1_556 S
C35 O39 1.241 1_556 S
C36 O29 1.247 . S
C36 O30 1.261 . S
C37 O32 1.259 . S
C37 O34 1.235 . S
O38 Co28 2.027 . S
O38 C35 1.236 1_554 S
O39 Co33 2.052 . S
O39 C35 1.241 1_554 S
O40 Co28 2.137 . S
O40 C31 1.247 . S
O41 Co28 2.244 . S
O41 C31 1.272 . S
O41 Co33 2.135 . S
Co42 O43 2.216 . S
Co42 O44 2.091 . S
Co42 O46 2.004 . S
Co42 O52 2.027 . S
Co42 O54 2.137 . S
Co42 O55 2.244 . S
O43 Co42 2.216 . S
O43 C50 1.247 . S
O44 Co42 2.091 . S
O44 C50 1.261 . S
C45 O54 1.247 . S
C45 O55 1.272 . S
O46 Co42 2.004 . S
O46 C51 1.259 . S
Co47 O48 2.061 . S
Co47 O53 2.052 . S
Co47 O55 2.135 . S
O48 Co47 2.061 . S
O48 C51 1.235 . S
C49 O52 1.236 1_554 S
C49 O53 1.241 1_554 S
C50 O43 1.247 . S
C50 O44 1.261 . S
C51 O46 1.259 . S
C51 O48 1.235 . S
O52 Co42 2.027 . S
O52 C49 1.236 1_556 S
O53 Co47 2.052 . S
O53 C49 1.241 1_556 S
O54 Co42 2.137 . S
O54 C45 1.247 . S
O55 Co42 2.244 . S
O55 C45 1.272 . S
O55 Co47 2.135 . S
Co56 O57 2.216 . S
Co56 O58 2.091 . S
Co56 O60 2.004 . S
Co56 O66 2.027 . S
Co56 O68 2.137 . S
Co56 O69 2.244 . S
O57 Co56 2.216 . S
O57 C64 1.247 . S
O58 Co56 2.091 . S
O58 C64 1.261 . S
C59 O68 1.247 . S
C59 O69 1.272 . S
O60 Co56 2.004 . S
O60 C65 1.259 . S
Co61 O62 2.061 . S
Co61 O67 2.052 . S
Co61 O69 2.135 . S
O62 Co61 2.061 . S
O62 C65 1.235 . S
C63 O66 1.236 1_554 S
C63 O67 1.241 1_554 S
C64 O57 1.247 . S
C64 O58 1.261 . S
C65 O60 1.259 . S
C65 O62 1.235 . S
O66 Co56 2.027 . S
O66 C63 1.236 1_556 S
O67 Co61 2.052 . S
O67 C63 1.241 1_556 S
O68 Co56 2.137 . S
O68 C59 1.247 . S
O69 Co56 2.244 . S
O69 C59 1.272 . S
O69 Co61 2.135 . S
Co70 O71 2.216 . S
Co70 O72 2.091 . S
Co70 O74 2.004 . S
Co70 O80 2.027 . S
Co70 O82 2.137 . S
Co70 O83 2.244 . S
O71 Co70 2.216 . S
O71 C78 1.247 . S
O72 Co70 2.091 . S
O72 C78 1.261 . S
C73 O82 1.247 . S
C73 O83 1.272 . S
O74 Co70 2.004 . S
O74 C79 1.259 . S
Co75 O76 2.061 . S
Co75 O81 2.052 . S
Co75 O83 2.135 . S
O76 Co75 2.061 . S
O76 C79 1.235 . S
C77 O80 1.236 1_554 S
C77 O81 1.241 1_554 S
C78 O71 1.247 . S
C78 O72 1.261 . S
C79 O74 1.259 . S
C79 O76 1.235 . S
O80 Co70 2.027 . S
O80 C77 1.236 1_556 S
O81 Co75 2.052 . S
O81 C77 1.241 1_556 S
O82 Co70 2.137 . S
O82 C73 1.247 . S
O83 Co70 2.244 . S
O83 C73 1.272 . S
O83 Co75 2.135 . S
Co84 O85 2.216 . S
Co84 O86 2.091 . S
Co84 O88 2.004 . S
Co84 O94 2.021 . S
Co84 O96 2.137 . S
Co84 O97 2.244 . S
O85 Co84 2.216 . S
O85 C92 1.247 . S
O86 Co84 2.091 . S
O86 C92 1.261 . S
C87 O96 1.247 . S
C87 O97 1.272 . S
O88 Co84 2.004 . S
O88 C93 1.259 . S
Co89 O90 2.061 . S
Co89 O95 2.052 . S
Co89 O97 2.135 . S
O90 Co89 2.061 . S
O90 C93 1.235 . S
C91 O94 1.238 . S
C91 O95 1.241 . S
C92 O85 1.247 . S
C92 O86 1.261 . S
C93 O88 1.259 . S
C93 O90 1.235 . S
O94 Co84 2.021 . S
O94 C91 1.238 . S
O95 Co89 2.052 . S
O95 C91 1.241 . S
O96 Co84 2.137 . S
O96 C87 1.247 . S
O97 Co84 2.244 . S
O97 C87 1.272 . S
O97 Co89 2.135 . S
Co98 O99 2.216 . S
Co98 O100 2.091 . S
Co98 O102 2.004 . S
Co98 O108 2.021 . S
Co98 O110 2.137 . S
Co98 O111 2.244 . S
O99 Co98 2.216 . S
O99 C106 1.247 . S
O100 Co98 2.091 . S
O100 C106 1.261 . S
C101 O110 1.247 . S
C101 O111 1.272 . S
O102 Co98 2.004 . S
O102 C107 1.259 . S
Co103 O104 2.061 . S
Co103 O109 2.052 . S
Co103 O111 2.135 . S
O104 Co103 2.061 . S
O104 C107 1.235 . S
C105 O108 1.238 . S
C105 O109 1.241 . S
C106 O99 1.247 . S
C106 O100 1.261 . S
C107 O102 1.259 . S
C107 O104 1.235 . S
O108 Co98 2.021 . S
O108 C105 1.238 . S
O109 Co103 2.052 . S
O109 C105 1.241 . S
O110 Co98 2.137 . S
O110 C101 1.247 . S
O111 Co98 2.244 . S
O111 C101 1.272 . S
O111 Co103 2.135 . S
Co112 O113 2.216 . S
Co112 O114 2.091 . S
Co112 O116 2.004 . S
Co112 O122 2.021 . S
Co112 O124 2.137 . S
Co112 O125 2.244 . S
O113 Co112 2.216 . S
O113 C120 1.247 . S
O114 Co112 2.091 . S
O114 C120 1.261 . S
C115 O124 1.247 . S
C115 O125 1.272 . S
O116 Co112 2.004 . S
O116 C121 1.259 . S
Co117 O118 2.061 . S
Co117 O123 2.052 . S
Co117 O125 2.135 . S
O118 Co117 2.061 . S
O118 C121 1.235 . S
C119 O122 1.238 . S
C119 O123 1.241 . S
C120 O113 1.247 . S
C120 O114 1.261 . S
C121 O116 1.259 . S
C121 O118 1.235 . S
O122 Co112 2.021 . S
O122 C119 1.238 . S
O123 Co117 2.052 . S
O123 C119 1.241 . S
O124 Co112 2.137 . S
O124 C115 1.247 . S
O125 Co112 2.244 . S
O125 C115 1.272 . S
O125 Co117 2.135 . S
Co126 O127 2.216 . S
Co126 O128 2.091 . S
Co126 O130 2.004 . S
Co126 O136 2.021 . S
Co126 O138 2.137 . S
Co126 O139 2.244 . S
O127 Co126 2.216 . S
O127 C134 1.247 . S
O128 Co126 2.091 . S
O128 C134 1.261 . S
C129 O138 1.247 . S
C129 O139 1.272 . S
O130 Co126 2.004 . S
O130 C135 1.259 . S
Co131 O132 2.061 . S
Co131 O137 2.052 . S
Co131 O139 2.135 . S
O132 Co131 2.061 . S
O132 C135 1.235 . S
C133 O136 1.238 . S
C133 O137 1.241 . S
C134 O127 1.247 . S
C134 O128 1.261 . S
C135 O130 1.259 . S
C135 O132 1.235 . S
O136 Co126 2.021 . S
O136 C133 1.238 . S
O137 Co131 2.052 . S
O137 C133 1.241 . S
O138 Co126 2.137 . S
O138 C129 1.247 . S
O139 Co126 2.244 . S
O139 C129 1.272 . S
O139 Co131 2.135 . S
Co140 O141 2.216 . S
Co140 O142 2.091 . S
Co140 O144 2.004 . S
Co140 O150 2.021 . S
Co140 O152 2.137 . S
Co140 O153 2.244 . S
O141 Co140 2.216 . S
O141 C148 1.247 . S
O142 Co140 2.091 . S
O142 C148 1.261 . S
C143 O152 1.247 . S
C143 O153 1.272 . S
O144 Co140 2.004 . S
O144 C149 1.259 . S
Co145 O146 2.061 . S
Co145 O151 2.052 . S
Co145 O153 2.135 . S
O146 Co145 2.061 . S
O146 C149 1.235 . S
C147 O150 1.238 . S
C147 O151 1.241 . S
C148 O141 1.247 . S
C148 O142 1.261 . S
C149 O144 1.259 . S
C149 O146 1.235 . S
O150 Co140 2.021 . S
O150 C147 1.238 . S
O151 Co145 2.052 . S
O151 C147 1.241 . S
O152 Co140 2.137 . S
O152 C143 1.247 . S
O153 Co140 2.244 . S
O153 C143 1.272 . S
O153 Co145 2.135 . S
Co154 O155 2.216 . S
Co154 O156 2.091 . S
Co154 O158 2.004 . S
Co154 O164 2.021 . S
Co154 O166 2.137 . S
Co154 O167 2.244 . S
O155 Co154 2.216 . S
O155 C162 1.247 . S
O156 Co154 2.091 . S
O156 C162 1.261 . S
C157 O166 1.247 . S
C157 O167 1.272 . S
O158 Co154 2.004 . S
O158 C163 1.259 . S
Co159 O160 2.061 . S
Co159 O165 2.052 . S
Co159 O167 2.135 . S
O160 Co159 2.061 . S
O160 C163 1.235 . S
C161 O164 1.238 . S
C161 O165 1.241 . S
C162 O155 1.247 . S
C162 O156 1.261 . S
C163 O158 1.259 . S
C163 O160 1.235 . S
O164 Co154 2.021 . S
O164 C161 1.238 . S
O165 Co159 2.052 . S
O165 C161 1.241 . S
O166 Co154 2.137 . S
O166 C157 1.247 . S
O167 Co154 2.244 . S
O167 C157 1.272 . S
O167 Co159 2.135 . S
Co168 O169 2.216 . S
Co168 O170 2.091 . S
Co168 O172 2.004 . S
Co168 O178 2.021 . S
Co168 O180 2.137 . S
Co168 O181 2.244 . S
O169 Co168 2.216 . S
O169 C176 1.247 . S
O170 Co168 2.091 . S
O170 C176 1.261 . S
C171 O180 1.247 . S
C171 O181 1.272 . S
O172 Co168 2.004 . S
O172 C177 1.259 . S
Co173 O174 2.061 . S
Co173 O179 2.052 . S
Co173 O181 2.135 . S
O174 Co173 2.061 . S
O174 C177 1.235 . S
C175 O178 1.238 . S
C175 O179 1.241 . S
C176 O169 1.247 . S
C176 O170 1.261 . S
C177 O172 1.259 . S
C177 O174 1.235 . S
O178 Co168 2.021 . S
O178 C175 1.238 . S
O179 Co173 2.052 . S
O179 C175 1.241 . S
O180 Co168 2.137 . S
O180 C171 1.247 . S
O181 Co168 2.244 . S
O181 C171 1.272 . S
O181 Co173 2.135 . S
Co182 O183 2.216 . S
Co182 O184 2.091 . S
Co182 O186 2.004 . S
Co182 O192 2.021 . S
Co182 O194 2.137 . S
Co182 O195 2.244 . S
O183 Co182 2.216 . S
O183 C190 1.247 . S
O184 Co182 2.091 . S
O184 C190 1.261 . S
C185 O194 1.247 . S
C185 O195 1.272 . S
O186 Co182 2.004 . S
O186 C191 1.259 . S
Co187 O188 2.061 . S
Co187 O193 2.052 . S
Co187 O195 2.135 . S
O188 Co187 2.061 . S
O188 C191 1.235 . S
C189 O192 1.238 . S
C189 O193 1.241 . S
C190 O183 1.247 . S
C190 O184 1.261 . S
C191 O186 1.259 . S
C191 O188 1.235 . S
O192 Co182 2.021 . S
O192 C189 1.238 . S
O193 Co187 2.052 . S
O193 C189 1.241 . S
O194 Co182 2.137 . S
O194 C185 1.247 . S
O195 Co182 2.244 . S
O195 C185 1.272 . S
O195 Co187 2.135 . S
Co196 O197 2.216 . S
Co196 O198 2.091 . S
Co196 O200 2.004 . S
Co196 O206 2.021 . S
Co196 O208 2.137 . S
Co196 O209 2.244 . S
O197 Co196 2.216 . S
O197 C204 1.247 . S
O198 Co196 2.091 . S
O198 C204 1.261 . S
C199 O208 1.247 . S
C199 O209 1.272 . S
O200 Co196 2.004 . S
O200 C205 1.259 . S
Co201 O202 2.061 . S
Co201 O207 2.052 . S
Co201 O209 2.135 . S
O202 Co201 2.061 . S
O202 C205 1.235 . S
C203 O206 1.238 . S
C203 O207 1.241 . S
C204 O197 1.247 . S
C204 O198 1.261 . S
C205 O200 1.259 . S
C205 O202 1.235 . S
O206 Co196 2.021 . S
O206 C203 1.238 . S
O207 Co201 2.052 . S
O207 C203 1.241 . S
O208 Co196 2.137 . S
O208 C199 1.247 . S
O209 Co196 2.244 . S
O209 C199 1.272 . S
O209 Co201 2.135 . S
Co210 O211 2.216 . S
Co210 O212 2.091 . S
Co210 O214 2.004 . S
Co210 O220 2.021 . S
Co210 O222 2.137 . S
Co210 O223 2.244 . S
O211 Co210 2.216 . S
O211 C218 1.247 . S
O212 Co210 2.091 . S
O212 C218 1.261 . S
C213 O222 1.247 . S
C213 O223 1.272 . S
O214 Co210 2.004 . S
O214 C219 1.259 . S
Co215 O216 2.061 . S
Co215 O221 2.052 . S
Co215 O223 2.135 . S
O216 Co215 2.061 . S
O216 C219 1.235 . S
C217 O220 1.238 . S
C217 O221 1.241 . S
C218 O211 1.247 . S
C218 O212 1.261 . S
C219 O214 1.259 . S
C219 O216 1.235 . S
O220 Co210 2.021 . S
O220 C217 1.238 . S
O221 Co215 2.052 . S
O221 C217 1.241 . S
O222 Co210 2.137 . S
O222 C213 1.247 . S
O223 Co210 2.244 . S
O223 C213 1.272 . S
O223 Co215 2.135 . S
Co224 O225 2.216 . S
Co224 O226 2.091 . S
Co224 O228 2.004 . S
Co224 O234 2.021 . S
Co224 O236 2.137 . S
Co224 O237 2.244 . S
O225 Co224 2.216 . S
O225 C232 1.247 . S
O226 Co224 2.091 . S
O226 C232 1.261 . S
C227 O236 1.247 . S
C227 O237 1.272 . S
O228 Co224 2.004 . S
O228 C233 1.259 . S
Co229 O230 2.061 . S
Co229 O235 2.052 . S
Co229 O237 2.135 . S
O230 Co229 2.061 . S
O230 C233 1.235 . S
C231 O234 1.238 . S
C231 O235 1.241 . S
C232 O225 1.247 . S
C232 O226 1.261 . S
C233 O228 1.259 . S
C233 O230 1.235 . S
O234 Co224 2.021 . S
O234 C231 1.238 . S
O235 Co229 2.052 . S
O235 C231 1.241 . S
O236 Co224 2.137 . S
O236 C227 1.247 . S
O237 Co224 2.244 . S
O237 C227 1.272 . S
O237 Co229 2.135 . S
Co238 O239 2.216 . S
Co238 O240 2.091 . S
Co238 O242 2.004 . S
Co238 O248 2.021 . S
Co238 O250 2.137 . S
Co238 O251 2.244 . S
O239 Co238 2.216 . S
O239 C246 1.247 . S
O240 Co238 2.091 . S
O240 C246 1.261 . S
C241 O250 1.247 . S
C241 O251 1.272 . S
O242 Co238 2.004 . S
O242 C247 1.259 . S
Co243 O244 2.061 . S
Co243 O249 2.052 . S
Co243 O251 2.135 . S
O244 Co243 2.061 . S
O244 C247 1.235 . S
C245 O248 1.238 . S
C245 O249 1.241 . S
C246 O239 1.247 . S
C246 O240 1.261 . S
C247 O242 1.259 . S
C247 O244 1.235 . S
O248 Co238 2.021 . S
O248 C245 1.238 . S
O249 Co243 2.052 . S
O249 C245 1.241 . S
O250 Co238 2.137 . S
O250 C241 1.247 . S
O251 Co238 2.244 . S
O251 C241 1.272 . S
O251 Co243 2.135 . S
H252 C260 0.929 . S
H253 C262 0.930 . S
H254 C264 0.930 . S
H255 C267 0.929 . S
H256 C270 0.930 . S
H257 C272 0.960 . S
H258 C272 0.960 . S
H259 C272 0.960 . S
C260 H252 0.929 . S
C260 C261 1.377 . S
C260 C262 1.384 . S
C261 C260 1.377 . S
C261 C267 1.390 . S
C262 H253 0.930 . S
C262 C260 1.384 . S
C262 C263 1.372 . S
C263 C262 1.372 . S
C263 C264 1.400 . S
C263 C268 1.490 . S
C264 H254 0.930 . S
C264 C263 1.400 . S
C264 C267 1.386 . S
H265 C281 0.930 . S
H266 C282 0.931 . S
C267 H255 0.929 . S
C267 C261 1.390 . S
C267 C264 1.386 . S
C268 C263 1.490 . S
C268 C270 1.395 . S
C268 C271 1.403 . S
H269 C275 0.930 . S
C270 H256 0.930 . S
C270 C268 1.395 . S
C270 C273 1.403 . S
C271 C268 1.403 . S
C271 C272 1.524 . S
C271 C275 1.400 . S
C272 H257 0.960 . S
C272 H258 0.960 . S
C272 H259 0.960 . S
C272 C271 1.524 . S
C273 C270 1.403 . S
C273 C274 1.392 . S
C273 C277 1.495 . S
C274 C273 1.392 . S
C274 C275 1.385 . S
C274 C276 1.478 . S
C275 H269 0.930 . S
C275 C271 1.400 . S
C275 C274 1.385 . S
C276 C274 1.478 . S
C276 C278 1.381 . S
C276 C282 1.383 . S
C277 C273 1.495 . S
C277 H283 0.959 . S
C277 H284 0.961 . S
C277 H285 0.960 . S
C278 C276 1.381 . S
C278 C279 1.394 . S
C278 H286 0.930 . S
C279 C278 1.394 . S
C279 C280 1.383 . S
C279 H287 0.929 . S
C280 C279 1.383 . S
C280 C281 1.377 . S
C281 H265 0.930 . S
C281 C280 1.377 . S
C281 C282 1.379 . S
C282 H266 0.931 . S
C282 C276 1.383 . S
C282 C281 1.379 . S
H283 C277 0.959 . S
H284 C277 0.961 . S
H285 C277 0.960 . S
H286 C278 0.930 . S
H287 C279 0.929 . S
H288 C296 0.929 . S
H289 C298 0.930 . S
H290 C300 0.930 . S
H291 C303 0.929 . S
H292 C306 0.930 . S
H293 C308 0.960 . S
H294 C308 0.960 . S
H295 C308 0.960 . S
C296 H288 0.929 . S
C296 C297 1.377 . S
C296 C298 1.384 . S
C297 C296 1.377 . S
C297 C303 1.390 . S
C298 H289 0.930 . S
C298 C296 1.384 . S
C298 C299 1.372 . S
C299 C298 1.372 . S
C299 C300 1.400 . S
C299 C304 1.490 . S
C300 H290 0.930 . S
C300 C299 1.400 . S
C300 C303 1.386 . S
H301 C317 0.930 . S
H302 C318 0.931 . S
C303 H291 0.929 . S
C303 C297 1.390 . S
C303 C300 1.386 . S
C304 C299 1.490 . S
C304 C306 1.395 . S
C304 C307 1.403 . S
H305 C311 0.930 . S
C306 H292 0.930 . S
C306 C304 1.395 . S
C306 C309 1.403 . S
C307 C304 1.403 . S
C307 C308 1.524 . S
C307 C311 1.400 . S
C308 H293 0.960 . S
C308 H294 0.960 . S
C308 H295 0.960 . S
C308 C307 1.524 . S
C309 C306 1.403 . S
C309 C310 1.392 . S
C309 C313 1.495 . S
C310 C309 1.392 . S
C310 C311 1.385 . S
C310 C312 1.478 . S
C311 H305 0.930 . S
C311 C307 1.400 . S
C311 C310 1.385 . S
C312 C310 1.478 . S
C312 C314 1.381 . S
C312 C318 1.383 . S
C313 C309 1.495 . S
C313 H319 0.959 . S
C313 H320 0.961 . S
C313 H321 0.960 . S
C314 C312 1.381 . S
C314 C315 1.394 . S
C314 H322 0.930 . S
C315 C314 1.394 . S
C315 C316 1.383 . S
C315 H323 0.929 . S
C316 C315 1.383 . S
C316 C317 1.377 . S
C317 H301 0.930 . S
C317 C316 1.377 . S
C317 C318 1.379 . S
C318 H302 0.931 . S
C318 C312 1.383 . S
C318 C317 1.379 . S
H319 C313 0.959 . S
H320 C313 0.961 . S
H321 C313 0.960 . S
H322 C314 0.930 . S
H323 C315 0.929 . S
H324 C332 0.929 . S
H325 C334 0.930 . S
H326 C336 0.930 . S
H327 C339 0.929 . S
H328 C342 0.930 . S
H329 C344 0.960 . S
H330 C344 0.960 . S
H331 C344 0.960 . S
C332 H324 0.929 . S
C332 C333 1.377 . S
C332 C334 1.384 . S
C333 C332 1.377 . S
C333 C339 1.390 . S
C334 H325 0.930 . S
C334 C332 1.384 . S
C334 C335 1.372 . S
C335 C334 1.372 . S
C335 C336 1.400 . S
C335 C340 1.490 . S
C336 H326 0.930 . S
C336 C335 1.400 . S
C336 C339 1.386 . S
H337 C353 0.930 . S
H338 C354 0.931 . S
C339 H327 0.929 . S
C339 C333 1.390 . S
C339 C336 1.386 . S
C340 C335 1.490 . S
C340 C342 1.395 . S
C340 C343 1.403 . S
H341 C347 0.930 . S
C342 H328 0.930 . S
C342 C340 1.395 . S
C342 C345 1.403 . S
C343 C340 1.403 . S
C343 C344 1.524 . S
C343 C347 1.400 . S
C344 H329 0.960 . S
C344 H330 0.960 . S
C344 H331 0.960 . S
C344 C343 1.524 . S
C345 C342 1.403 . S
C345 C346 1.392 . S
C345 C349 1.495 . S
C346 C345 1.392 . S
C346 C347 1.385 . S
C346 C348 1.478 . S
C347 H341 0.930 . S
C347 C343 1.400 . S
C347 C346 1.385 . S
C348 C346 1.478 . S
C348 C350 1.381 . S
C348 C354 1.383 . S
C349 C345 1.495 . S
C349 H355 0.959 . S
C349 H356 0.961 . S
C349 H357 0.960 . S
C350 C348 1.381 . S
C350 C351 1.394 . S
C350 H358 0.930 . S
C351 C350 1.394 . S
C351 C352 1.383 . S
C351 H359 0.929 . S
C352 C351 1.383 . S
C352 C353 1.377 . S
C353 H337 0.930 . S
C353 C352 1.377 . S
C353 C354 1.379 . S
C354 H338 0.931 . S
C354 C348 1.383 . S
C354 C353 1.379 . S
H355 C349 0.959 . S
H356 C349 0.961 . S
H357 C349 0.960 . S
H358 C350 0.930 . S
H359 C351 0.929 . S
H360 C368 0.929 . S
H361 C370 0.930 . S
H362 C372 0.930 . S
H363 C375 0.929 . S
H364 C378 0.930 . S
H365 C380 0.960 . S
H366 C380 0.960 . S
H367 C380 0.960 . S
C368 H360 0.929 . S
C368 C369 1.377 . S
C368 C370 1.384 . S
C369 C368 1.377 . S
C369 C375 1.390 . S
C370 H361 0.930 . S
C370 C368 1.384 . S
C370 C371 1.372 . S
C371 C370 1.372 . S
C371 C372 1.400 . S
C371 C376 1.490 . S
C372 H362 0.930 . S
C372 C371 1.400 . S
C372 C375 1.386 . S
H373 C389 0.930 . S
H374 C390 0.931 . S
C375 H363 0.929 . S
C375 C369 1.390 . S
C375 C372 1.386 . S
C376 C371 1.490 . S
C376 C378 1.395 . S
C376 C379 1.403 . S
H377 C383 0.930 . S
C378 H364 0.930 . S
C378 C376 1.395 . S
C378 C381 1.403 . S
C379 C376 1.403 . S
C379 C380 1.524 . S
C379 C383 1.400 . S
C380 H365 0.960 . S
C380 H366 0.960 . S
C380 H367 0.960 . S
C380 C379 1.524 . S
C381 C378 1.403 . S
C381 C382 1.392 . S
C381 C385 1.495 . S
C382 C381 1.392 . S
C382 C383 1.385 . S
C382 C384 1.478 . S
C383 H377 0.930 . S
C383 C379 1.400 . S
C383 C382 1.385 . S
C384 C382 1.478 . S
C384 C386 1.381 . S
C384 C390 1.383 . S
C385 C381 1.495 . S
C385 H391 0.959 . S
C385 H392 0.961 . S
C385 H393 0.960 . S
C386 C384 1.381 . S
C386 C387 1.394 . S
C386 H394 0.930 . S
C387 C386 1.394 . S
C387 C388 1.383 . S
C387 H395 0.929 . S
C388 C387 1.383 . S
C388 C389 1.377 . S
C389 H373 0.930 . S
C389 C388 1.377 . S
C389 C390 1.379 . S
C390 H374 0.931 . S
C390 C384 1.383 . S
C390 C389 1.379 . S
H391 C385 0.959 . S
H392 C385 0.961 . S
H393 C385 0.960 . S
H394 C386 0.930 . S
H395 C387 0.929 . S
H396 C404 0.929 . S
H397 C406 0.930 . S
H398 C408 0.930 . S
H399 C411 0.929 . S
H400 C414 0.930 . S
H401 C416 0.960 . S
H402 C416 0.960 . S
H403 C416 0.960 . S
C404 H396 0.929 . S
C404 C405 1.377 . S
C404 C406 1.384 . S
C405 C404 1.377 . S
C405 C411 1.390 . S
C406 H397 0.930 . S
C406 C404 1.384 . S
C406 C407 1.372 . S
C407 C406 1.372 . S
C407 C408 1.400 . S
C407 C412 1.490 . S
C408 H398 0.930 . S
C408 C407 1.400 . S
C408 C411 1.386 . S
H409 C425 0.930 . S
H410 C426 0.931 . S
C411 H399 0.929 . S
C411 C405 1.390 . S
C411 C408 1.386 . S
C412 C407 1.490 . S
C412 C414 1.395 . S
C412 C415 1.403 . S
H413 C419 0.930 . S
C414 H400 0.930 . S
C414 C412 1.395 . S
C414 C417 1.403 . S
C415 C412 1.403 . S
C415 C416 1.524 . S
C415 C419 1.400 . S
C416 H401 0.960 . S
C416 H402 0.960 . S
C416 H403 0.960 . S
C416 C415 1.524 . S
C417 C414 1.403 . S
C417 C418 1.392 . S
C417 C421 1.495 . S
C418 C417 1.392 . S
C418 C419 1.385 . S
C418 C420 1.478 . S
C419 H413 0.930 . S
C419 C415 1.400 . S
C419 C418 1.385 . S
C420 C418 1.478 . S
C420 C422 1.381 . S
C420 C426 1.383 . S
C421 C417 1.495 . S
C421 H427 0.959 . S
C421 H428 0.961 . S
C421 H429 0.960 . S
C422 C420 1.381 . S
C422 C423 1.394 . S
C422 H430 0.930 . S
C423 C422 1.394 . S
C423 C424 1.383 . S
C423 H431 0.929 . S
C424 C423 1.383 . S
C424 C425 1.377 . S
C425 H409 0.930 . S
C425 C424 1.377 . S
C425 C426 1.379 . S
C426 H410 0.931 . S
C426 C420 1.383 . S
C426 C425 1.379 . S
H427 C421 0.959 . S
H428 C421 0.961 . S
H429 C421 0.960 . S
H430 C422 0.930 . S
H431 C423 0.929 . S
H432 C440 0.929 . S
H433 C442 0.930 . S
H434 C444 0.930 . S
H435 C447 0.929 . S
H436 C450 0.930 . S
H437 C452 0.960 . S
H438 C452 0.960 . S
H439 C452 0.960 . S
C440 H432 0.929 . S
C440 C441 1.377 . S
C440 C442 1.384 . S
C441 C440 1.377 . S
C441 C447 1.390 . S
C442 H433 0.930 . S
C442 C440 1.384 . S
C442 C443 1.372 . S
C443 C442 1.372 . S
C443 C444 1.400 . S
C443 C448 1.490 . S
C444 H434 0.930 . S
C444 C443 1.400 . S
C444 C447 1.386 . S
H445 C461 0.930 . S
H446 C462 0.931 . S
C447 H435 0.929 . S
C447 C441 1.390 . S
C447 C444 1.386 . S
C448 C443 1.490 . S
C448 C450 1.395 . S
C448 C451 1.403 . S
H449 C455 0.930 . S
C450 H436 0.930 . S
C450 C448 1.395 . S
C450 C453 1.403 . S
C451 C448 1.403 . S
C451 C452 1.524 . S
C451 C455 1.400 . S
C452 H437 0.960 . S
C452 H438 0.960 . S
C452 H439 0.960 . S
C452 C451 1.524 . S
C453 C450 1.403 . S
C453 C454 1.392 . S
C453 C457 1.495 . S
C454 C453 1.392 . S
C454 C455 1.385 . S
C454 C456 1.478 . S
C455 H449 0.930 . S
C455 C451 1.400 . S
C455 C454 1.385 . S
C456 C454 1.478 . S
C456 C458 1.381 . S
C456 C462 1.383 . S
C457 C453 1.495 . S
C457 H463 0.959 . S
C457 H464 0.961 . S
C457 H465 0.960 . S
C458 C456 1.381 . S
C458 C459 1.394 . S
C458 H466 0.930 . S
C459 C458 1.394 . S
C459 C460 1.383 . S
C459 H467 0.929 . S
C460 C459 1.383 . S
C460 C461 1.377 . S
C461 H445 0.930 . S
C461 C460 1.377 . S
C461 C462 1.379 . S
C462 H446 0.931 . S
C462 C456 1.383 . S
C462 C461 1.379 . S
H463 C457 0.959 . S
H464 C457 0.961 . S
H465 C457 0.960 . S
H466 C458 0.930 . S
H467 C459 0.929 . S
H468 C476 0.929 . S
H469 C478 0.930 . S
H470 C480 0.930 . S
H471 C483 0.929 . S
H472 C486 0.930 . S
H473 C488 0.960 1_556 S
H474 C488 0.960 . S
H475 C488 0.960 . S
C476 H468 0.929 . S
C476 C477 1.377 . S
C476 C478 1.384 . S
C477 C476 1.377 . S
C477 C483 1.390 . S
C478 H469 0.930 . S
C478 C476 1.384 . S
C478 C479 1.372 . S
C479 C478 1.372 . S
C479 C480 1.400 . S
C479 C484 1.490 . S
C480 H470 0.930 . S
C480 C479 1.400 . S
C480 C483 1.386 . S
H481 C497 0.930 . S
H482 C498 0.931 . S
C483 H471 0.929 . S
C483 C477 1.390 . S
C483 C480 1.386 . S
C484 C479 1.490 . S
C484 C486 1.395 1_655 S
C484 C487 1.403 . S
H485 C491 0.930 . S
C486 H472 0.930 . S
C486 C484 1.395 1_455 S
C486 C489 1.403 1_554 S
C487 C484 1.403 . S
C487 C488 1.524 . S
C487 C491 1.400 1_554 S
C488 H473 0.960 1_554 S
C488 H474 0.960 . S
C488 H475 0.960 . S
C488 C487 1.524 . S
C489 C486 1.403 1_556 S
C489 C490 1.392 . S
C489 C493 1.495 . S
C490 C489 1.392 . S
C490 C491 1.385 1_455 S
C490 C492 1.478 . S
C491 H485 0.930 . S
C491 C487 1.400 1_556 S
C491 C490 1.385 1_655 S
C492 C490 1.478 . S
C492 C494 1.381 . S
C492 C498 1.383 . S
C493 C489 1.495 . S
C493 H499 0.959 1_556 S
C493 H500 0.961 . S
C493 H501 0.960 . S
C494 C492 1.381 . S
C494 C495 1.394 . S
C494 H502 0.930 . S
C495 C494 1.394 . S
C495 C496 1.383 . S
C495 H503 0.929 . S
C496 C495 1.383 . S
C496 C497 1.377 . S
C497 H481 0.930 . S
C497 C496 1.377 . S
C497 C498 1.379 . S
C498 H482 0.931 . S
C498 C492 1.383 . S
C498 C497 1.379 . S
H499 C493 0.959 1_554 S
H500 C493 0.961 . S
H501 C493 0.960 . S
H502 C494 0.930 . S
H503 C495 0.929 . S
H504 C512 0.929 . S
H505 C514 0.930 . S
H506 C516 0.930 . S
H507 C519 0.929 . S
H508 C522 0.930 . S
H509 C524 0.960 1_556 S
H510 C524 0.960 . S
H511 C524 0.960 . S
C512 H504 0.929 . S
C512 C513 1.377 . S
C512 C514 1.384 . S
C513 C512 1.377 . S
C513 C519 1.390 . S
C514 H505 0.930 . S
C514 C512 1.384 . S
C514 C515 1.372 . S
C515 C514 1.372 . S
C515 C516 1.400 . S
C515 C520 1.490 . S
C516 H506 0.930 . S
C516 C515 1.400 . S
C516 C519 1.386 . S
H517 C533 0.930 . S
H518 C534 0.931 . S
C519 H507 0.929 . S
C519 C513 1.390 . S
C519 C516 1.386 . S
C520 C515 1.490 . S
C520 C522 1.395 . S
C520 C523 1.403 . S
H521 C527 0.930 . S
C522 H508 0.930 . S
C522 C520 1.395 . S
C522 C525 1.403 1_554 S
C523 C520 1.403 . S
C523 C524 1.524 . S
C523 C527 1.400 1_554 S
C524 H509 0.960 1_554 S
C524 H510 0.960 . S
C524 H511 0.960 . S
C524 C523 1.524 . S
C525 C522 1.403 1_556 S
C525 C526 1.392 . S
C525 C529 1.495 . S
C526 C525 1.392 . S
C526 C527 1.385 . S
C526 C528 1.478 . S
C527 H521 0.930 . S
C527 C523 1.400 1_556 S
C527 C526 1.385 . S
C528 C526 1.478 . S
C528 C530 1.381 . S
C528 C534 1.383 . S
C529 C525 1.495 . S
C529 H535 0.959 1_556 S
C529 H536 0.961 . S
C529 H537 0.960 . S
C530 C528 1.381 . S
C530 C531 1.394 . S
C530 H538 0.930 . S
C531 C530 1.394 . S
C531 C532 1.383 . S
C531 H539 0.929 . S
C532 C531 1.383 . S
C532 C533 1.377 . S
C533 H517 0.930 . S
C533 C532 1.377 . S
C533 C534 1.379 . S
C534 H518 0.931 . S
C534 C528 1.383 . S
C534 C533 1.379 . S
H535 C529 0.959 1_554 S
H536 C529 0.961 . S
H537 C529 0.960 . S
H538 C530 0.930 . S
H539 C531 0.929 . S
H540 C548 0.929 . S
H541 C550 0.930 1_565 S
H542 C552 0.930 . S
H543 C555 0.929 . S
H544 C558 0.930 . S
H545 C560 0.960 . S
H546 C560 0.960 . S
H547 C560 0.960 . S
C548 H540 0.929 . S
C548 C549 1.377 . S
C548 C550 1.384 . S
C549 C548 1.377 . S
C549 C555 1.390 . S
C550 H541 0.930 1_545 S
C550 C548 1.384 . S
C550 C551 1.372 . S
C551 C550 1.372 . S
C551 C552 1.400 . S
C551 C556 1.490 . S
C552 H542 0.930 . S
C552 C551 1.400 . S
C552 C555 1.386 . S
H553 C569 0.930 . S
H554 C570 0.931 1_545 S
C555 H543 0.929 . S
C555 C549 1.390 . S
C555 C552 1.386 . S
C556 C551 1.490 . S
C556 C558 1.395 1_545 S
C556 C559 1.403 . S
H557 C563 0.948 1_545 S
C558 H544 0.930 . S
C558 C556 1.395 1_565 S
C558 C561 1.403 1_554 S
C559 C556 1.403 . S
C559 C560 1.524 . S
C559 C563 1.392 1_544 S
C560 H545 0.960 . S
C560 H546 0.960 . S
C560 H547 0.960 . S
C560 C559 1.524 . S
C561 C558 1.403 1_556 S
C561 C562 1.392 . S
C561 C565 1.495 . S
C562 C561 1.392 . S
C562 C563 1.385 . S
C562 C564 1.478 . S
C563 H557 0.948 1_565 S
C563 C559 1.392 1_566 S
C563 C562 1.385 . S
C564 C562 1.478 . S
C564 C566 1.381 . S
C564 C570 1.383 . S
C565 C561 1.495 . S
C565 H571 0.973 . S
C565 H572 0.961 . S
C565 H573 0.960 . S
C566 C564 1.381 . S
C566 C567 1.394 . S
C566 H574 0.930 . S
C567 C566 1.394 . S
C567 C568 1.383 . S
C567 H575 0.929 . S
C568 C567 1.383 . S
C568 C569 1.377 . S
C569 H553 0.930 . S
C569 C568 1.377 . S
C569 C570 1.379 . S
C570 H554 0.931 1_565 S
C570 C564 1.383 . S
C570 C569 1.379 . S
H571 C565 0.973 . S
H572 C565 0.961 . S
H573 C565 0.960 . S
H574 C566 0.930 . S
H575 C567 0.929 . S
H576 C584 0.929 . S
H577 C586 0.930 . S
H578 C588 0.930 . S
H579 C591 0.929 . S
H580 C594 0.930 . S
H581 C596 0.960 . S
H582 C596 0.960 . S
H583 C596 0.960 . S
C584 H576 0.929 . S
C584 C585 1.377 . S
C584 C586 1.384 . S
C585 C584 1.377 . S
C585 C591 1.390 . S
C586 H577 0.930 . S
C586 C584 1.384 . S
C586 C587 1.372 . S
C587 C586 1.372 . S
C587 C588 1.400 . S
C587 C592 1.490 . S
C588 H578 0.930 . S
C588 C587 1.400 . S
C588 C591 1.386 . S
H589 C605 0.930 . S
H590 C606 0.931 . S
C591 H579 0.929 . S
C591 C585 1.390 . S
C591 C588 1.386 . S
C592 C587 1.490 . S
C592 C594 1.395 . S
C592 C595 1.403 . S
H593 C599 0.930 . S
C594 H580 0.930 . S
C594 C592 1.395 . S
C594 C597 1.403 . S
C595 C592 1.403 . S
C595 C596 1.524 . S
C595 C599 1.400 . S
C596 H581 0.960 . S
C596 H582 0.960 . S
C596 H583 0.960 . S
C596 C595 1.524 . S
C597 C594 1.403 . S
C597 C598 1.392 . S
C597 C601 1.495 . S
C598 C597 1.392 . S
C598 C599 1.385 . S
C598 C600 1.478 . S
C599 H593 0.930 . S
C599 C595 1.400 . S
C599 C598 1.385 . S
C600 C598 1.478 . S
C600 C602 1.381 . S
C600 C606 1.383 . S
C601 C597 1.495 . S
C601 H607 0.959 . S
C601 H608 0.961 . S
C601 H609 0.960 . S
C602 C600 1.381 . S
C602 C603 1.394 . S
C602 H610 0.930 . S
C603 C602 1.394 . S
C603 C604 1.383 . S
C603 H611 0.929 . S
C604 C603 1.383 . S
C604 C605 1.377 . S
C605 H589 0.930 . S
C605 C604 1.377 . S
C605 C606 1.379 . S
C606 H590 0.931 . S
C606 C600 1.383 . S
C606 C605 1.379 . S
H607 C601 0.959 . S
H608 C601 0.961 . S
H609 C601 0.960 . S
H610 C602 0.930 . S
H611 C603 0.929 . S
H612 C620 0.929 . S
H613 C622 0.930 . S
H614 C624 0.930 . S
H615 C627 0.929 . S
H616 C630 0.930 . S
H617 C632 0.960 . S
H618 C632 0.960 . S
H619 C632 0.960 . S
C620 H612 0.929 . S
C620 C621 1.377 . S
C620 C622 1.384 . S
C621 C620 1.377 . S
C621 C627 1.390 . S
C622 H613 0.930 . S
C622 C620 1.384 . S
C622 C623 1.372 . S
C623 C622 1.372 . S
C623 C624 1.400 . S
C623 C628 1.490 . S
C624 H614 0.930 . S
C624 C623 1.400 . S
C624 C627 1.386 . S
H625 C641 0.930 . S
H626 C642 0.931 . S
C627 H615 0.929 . S
C627 C621 1.390 . S
C627 C624 1.386 . S
C628 C623 1.490 . S
C628 C630 1.395 . S
C628 C631 1.403 . S
H629 C635 0.930 . S
C630 H616 0.930 . S
C630 C628 1.395 . S
C630 C633 1.403 . S
C631 C628 1.403 . S
C631 C632 1.524 . S
C631 C635 1.400 . S
C632 H617 0.960 . S
C632 H618 0.960 . S
C632 H619 0.960 . S
C632 C631 1.524 . S
C633 C630 1.403 . S
C633 C634 1.392 . S
C633 C637 1.495 . S
C634 C633 1.392 . S
C634 C635 1.385 . S
C634 C636 1.478 . S
C635 H629 0.930 . S
C635 C631 1.400 . S
C635 C634 1.385 . S
C636 C634 1.478 . S
C636 C638 1.381 . S
C636 C642 1.383 . S
C637 C633 1.495 . S
C637 H643 0.959 . S
C637 H644 0.961 . S
C637 H645 0.960 . S
C638 C636 1.381 . S
C638 C639 1.394 . S
C638 H646 0.930 . S
C639 C638 1.394 . S
C639 C640 1.383 . S
C639 H647 0.951 . S
C640 C639 1.383 . S
C640 C641 1.377 . S
C641 H625 0.930 . S
C641 C640 1.377 . S
C641 C642 1.379 . S
C642 H626 0.931 . S
C642 C636 1.383 . S
C642 C641 1.379 . S
H643 C637 0.959 . S
H644 C637 0.961 . S
H645 C637 0.960 . S
H646 C638 0.930 . S
H647 C639 0.951 . S
H648 C656 0.929 . S
H649 C658 0.930 . S
H650 C660 0.930 . S
H651 C663 0.929 . S
H652 C666 0.930 . S
H653 C668 0.960 . S
H654 C668 0.960 . S
H655 C668 0.960 . S
C656 H648 0.929 . S
C656 C657 1.377 . S
C656 C658 1.384 . S
C657 C656 1.377 . S
C657 C663 1.390 . S
C658 H649 0.930 . S
C658 C656 1.384 . S
C658 C659 1.372 . S
C659 C658 1.372 . S
C659 C660 1.400 . S
C659 C664 1.490 . S
C660 H650 0.930 . S
C660 C659 1.400 . S
C660 C663 1.386 . S
H661 C677 0.930 . S
H662 C678 0.931 . S
C663 H651 0.929 . S
C663 C657 1.390 . S
C663 C660 1.386 . S
C664 C659 1.490 . S
C664 C666 1.395 . S
C664 C667 1.403 . S
H665 C671 0.930 . S
C666 H652 0.930 . S
C666 C664 1.395 . S
C666 C669 1.403 . S
C667 C664 1.403 . S
C667 C668 1.524 . S
C667 C671 1.400 . S
C668 H653 0.960 . S
C668 H654 0.960 . S
C668 H655 0.960 . S
C668 C667 1.524 . S
C669 C666 1.403 . S
C669 C670 1.392 . S
C669 C673 1.495 . S
C670 C669 1.392 . S
C670 C671 1.385 . S
C670 C672 1.478 . S
C671 H665 0.930 . S
C671 C667 1.400 . S
C671 C670 1.385 . S
C672 C670 1.478 . S
C672 C674 1.381 . S
C672 C678 1.383 . S
C673 C669 1.495 . S
C673 H679 0.959 . S
C673 H680 0.961 . S
C673 H681 0.960 . S
C674 C672 1.381 . S
C674 C675 1.394 . S
C674 H682 0.930 . S
C675 C674 1.394 . S
C675 C676 1.383 . S
C675 H683 0.929 . S
C676 C675 1.383 . S
C676 C677 1.377 . S
C677 H661 0.930 . S
C677 C676 1.377 . S
C677 C678 1.379 . S
C678 H662 0.931 . S
C678 C672 1.383 . S
C678 C677 1.379 . S
H679 C673 0.959 . S
H680 C673 0.961 . S
H681 C673 0.960 . S
H682 C674 0.930 . S
H683 C675 0.929 . S
H684 C692 0.929 . S
H685 C694 0.930 . S
H686 C696 0.930 . S
H687 C699 0.929 . S
H688 C702 0.930 . S
H689 C704 0.960 . S
H690 C704 0.960 . S
H691 C704 0.960 . S
C692 H684 0.929 . S
C692 C693 1.377 . S
C692 C694 1.384 . S
C693 C692 1.377 . S
C693 C699 1.390 . S
C694 H685 0.930 . S
C694 C692 1.384 . S
C694 C695 1.372 . S
C695 C694 1.372 . S
C695 C696 1.400 . S
C695 C700 1.490 . S
C696 H686 0.930 . S
C696 C695 1.400 . S
C696 C699 1.386 . S
H697 C713 0.932 . S
H698 C714 0.931 . S
C699 H687 0.929 . S
C699 C693 1.390 . S
C699 C696 1.386 . S
C700 C695 1.490 . S
C700 C702 1.395 . S
C700 C703 1.403 . S
H701 C707 0.930 . S
C702 H688 0.930 . S
C702 C700 1.395 . S
C702 C705 1.403 . S
C703 C700 1.403 . S
C703 C704 1.524 . S
C703 C707 1.400 . S
C704 H689 0.960 . S
C704 H690 0.960 . S
C704 H691 0.960 . S
C704 C703 1.524 . S
C705 C702 1.403 . S
C705 C706 1.392 . S
C705 C709 1.495 . S
C706 C705 1.392 . S
C706 C707 1.385 . S
C706 C708 1.478 . S
C707 H701 0.930 . S
C707 C703 1.400 . S
C707 C706 1.385 . S
C708 C706 1.478 . S
C708 C710 1.381 . S
C708 C714 1.383 . S
C709 C705 1.495 . S
C709 H715 0.959 . S
C709 H716 0.961 . S
C709 H717 0.960 . S
C710 C708 1.381 . S
C710 C711 1.394 . S
C710 H718 0.930 . S
C711 C710 1.394 . S
C711 C712 1.383 . S
C711 H719 0.929 . S
C712 C711 1.383 . S
C712 C713 1.377 . S
C713 H697 0.932 . S
C713 C712 1.377 . S
C713 C714 1.379 . S
C714 H698 0.931 . S
C714 C708 1.383 . S
C714 C713 1.379 . S
H715 C709 0.959 . S
H716 C709 0.961 . S
H717 C709 0.960 . S
H718 C710 0.930 . S
H719 C711 0.929 . S
H720 C728 0.929 . S
H721 C730 0.930 . S
H722 C732 0.930 . S
H723 C735 0.929 . S
H724 C738 0.930 . S
H725 C740 0.960 . S
H726 C740 0.960 . S
H727 C740 0.960 . S
C728 H720 0.929 . S
C728 C729 1.377 . S
C728 C730 1.384 . S
C729 C728 1.377 . S
C729 C735 1.390 . S
C730 H721 0.930 . S
C730 C728 1.384 . S
C730 C731 1.372 . S
C731 C730 1.372 . S
C731 C732 1.400 . S
C731 C736 1.490 . S
C732 H722 0.930 . S
C732 C731 1.400 . S
C732 C735 1.386 . S
H733 C749 0.930 . S
H734 C750 0.931 . S
C735 H723 0.929 . S
C735 C729 1.390 . S
C735 C732 1.386 . S
C736 C731 1.490 . S
C736 C738 1.395 . S
C736 C739 1.403 . S
H737 C743 0.930 . S
C738 H724 0.930 . S
C738 C736 1.395 . S
C738 C741 1.403 . S
C739 C736 1.403 . S
C739 C740 1.524 . S
C739 C743 1.400 . S
C740 H725 0.960 . S
C740 H726 0.960 . S
C740 H727 0.960 . S
C740 C739 1.524 . S
C741 C738 1.403 . S
C741 C742 1.392 . S
C741 C745 1.495 . S
C742 C741 1.392 . S
C742 C743 1.385 . S
C742 C744 1.478 . S
C743 H737 0.930 . S
C743 C739 1.400 . S
C743 C742 1.385 . S
C744 C742 1.478 . S
C744 C746 1.381 . S
C744 C750 1.383 . S
C745 C741 1.495 . S
C745 H751 0.959 . S
C745 H752 0.961 . S
C745 H753 0.960 . S
C746 C744 1.381 . S
C746 C747 1.394 . S
C746 H754 0.930 . S
C747 C746 1.394 . S
C747 C748 1.383 . S
C747 H755 0.929 . S
C748 C747 1.383 . S
C748 C749 1.377 . S
C749 H733 0.930 . S
C749 C748 1.377 . S
C749 C750 1.379 . S
C750 H734 0.931 . S
C750 C744 1.383 . S
C750 C749 1.379 . S
H751 C745 0.959 . S
H752 C745 0.961 . S
H753 C745 0.960 . S
H754 C746 0.930 . S
H755 C747 0.929 . S
H756 C764 0.929 . S
H757 C766 0.930 . S
H758 C768 0.930 . S
H759 C771 0.929 . S
H760 C774 0.930 . S
H761 C776 0.960 . S
H762 C776 0.960 . S
H763 C776 0.960 . S
C764 H756 0.929 . S
C764 C765 1.377 . S
C764 C766 1.384 . S
C765 C764 1.377 . S
C765 C771 1.390 . S
C766 H757 0.930 . S
C766 C764 1.384 . S
C766 C767 1.372 . S
C767 C766 1.372 . S
C767 C768 1.400 . S
C767 C772 1.490 . S
C768 H758 0.930 . S
C768 C767 1.400 . S
C768 C771 1.386 . S
H769 C785 0.930 . S
H770 C786 0.931 . S
C771 H759 0.929 . S
C771 C765 1.390 . S
C771 C768 1.386 . S
C772 C767 1.490 . S
C772 C774 1.395 . S
C772 C775 1.403 . S
H773 C779 0.930 . S
C774 H760 0.930 . S
C774 C772 1.395 . S
C774 C777 1.403 . S
C775 C772 1.403 . S
C775 C776 1.524 . S
C775 C779 1.400 . S
C776 H761 0.960 . S
C776 H762 0.960 . S
C776 H763 0.960 . S
C776 C775 1.524 . S
C777 C774 1.403 . S
C777 C778 1.392 . S
C777 C781 1.495 . S
C778 C777 1.392 . S
C778 C779 1.385 . S
C778 C780 1.478 . S
C779 H773 0.930 . S
C779 C775 1.400 . S
C779 C778 1.385 . S
C780 C778 1.478 . S
C780 C782 1.381 . S
C780 C786 1.383 . S
C781 C777 1.495 . S
C781 H787 0.959 . S
C781 H788 0.961 . S
C781 H789 0.960 . S
C782 C780 1.381 . S
C782 C783 1.394 . S
C782 H790 0.930 . S
C783 C782 1.394 . S
C783 C784 1.383 . S
C783 H791 0.929 . S
C784 C783 1.383 . S
C784 C785 1.377 . S
C785 H769 0.930 . S
C785 C784 1.377 . S
C785 C786 1.379 . S
C786 H770 0.931 . S
C786 C780 1.383 . S
C786 C785 1.379 . S
H787 C781 0.959 . S
H788 C781 0.961 . S
H789 C781 0.960 . S
H790 C782 0.930 . S
H791 C783 0.929 . S
H792 C800 0.929 . S
H793 C802 0.930 . S
H794 C804 0.930 1_455 S
H795 C807 0.929 . S
H796 C810 0.930 . S
H797 C812 0.960 . S
H798 C812 1.030 . S
H799 C812 0.960 . S
C800 H792 0.929 . S
C800 C801 1.377 . S
C800 C802 1.384 . S
C801 C800 1.377 . S
C801 C807 1.390 . S
C802 H793 0.930 . S
C802 C800 1.384 . S
C802 C803 1.372 . S
C803 C802 1.372 . S
C803 C804 1.400 . S
C803 C808 1.490 . S
C804 H794 0.930 1_655 S
C804 C803 1.400 . S
C804 C807 1.386 . S
H805 C821 0.930 . S
H806 C822 0.931 . S
C807 H795 0.929 . S
C807 C801 1.390 . S
C807 C804 1.386 . S
C808 C803 1.490 . S
C808 C810 1.395 . S
C808 C811 1.403 1_655 S
H809 C815 0.930 . S
C810 H796 0.930 . S
C810 C808 1.395 . S
C810 C813 1.403 . S
C811 C808 1.403 1_455 S
C811 C812 1.524 . S
C811 C815 1.400 . S
C812 H797 0.960 . S
C812 H798 1.030 . S
C812 H799 0.960 . S
C812 C811 1.524 . S
C813 C810 1.403 . S
C813 C814 1.392 1_655 S
C813 C817 1.495 . S
C814 C813 1.392 1_455 S
C814 C815 1.385 . S
C814 C816 1.478 . S
C815 H809 0.930 . S
C815 C811 1.400 . S
C815 C814 1.385 . S
C816 C814 1.478 . S
C816 C818 1.381 . S
C816 C822 1.383 . S
C817 C813 1.495 . S
C817 H823 0.959 . S
C817 H824 0.961 . S
C817 H825 0.960 . S
C818 C816 1.381 . S
C818 C819 1.394 . S
C818 H826 0.930 1_455 S
C819 C818 1.394 . S
C819 C820 1.383 . S
C819 H827 0.929 . S
C820 C819 1.383 . S
C820 C821 1.377 . S
C821 H805 0.930 . S
C821 C820 1.377 . S
C821 C822 1.379 . S
C822 H806 0.931 . S
C822 C816 1.383 . S
C822 C821 1.379 . S
H823 C817 0.959 . S
H824 C817 0.961 . S
H825 C817 0.960 . S
H826 C818 0.930 1_655 S
H827 C819 0.929 . S
H828 C836 0.929 . S
H829 C838 0.930 . S
H830 C840 0.930 . S
H831 C843 0.929 . S
H832 C846 0.930 . S
H833 C848 0.960 . S
H834 C848 0.960 . S
H835 C848 0.960 . S
C836 H828 0.929 . S
C836 C837 1.377 . S
C836 C838 1.384 . S
C837 C836 1.377 . S
C837 C843 1.390 . S
C838 H829 0.930 . S
C838 C836 1.384 . S
C838 C839 1.372 . S
C839 C838 1.372 . S
C839 C840 1.400 . S
C839 C844 1.490 . S
C840 H830 0.930 . S
C840 C839 1.400 . S
C840 C843 1.386 . S
H841 C857 0.930 . S
H842 C858 0.931 . S
C843 H831 0.929 . S
C843 C837 1.390 . S
C843 C840 1.386 . S
C844 C839 1.490 . S
C844 C846 1.395 . S
C844 C847 1.403 . S
H845 C851 0.930 . S
C846 H832 0.930 . S
C846 C844 1.395 . S
C846 C849 1.403 . S
C847 C844 1.403 . S
C847 C848 1.524 . S
C847 C851 1.400 . S
C848 H833 0.960 . S
C848 H834 0.960 . S
C848 H835 0.960 . S
C848 C847 1.524 . S
C849 C846 1.403 . S
C849 C850 1.392 . S
C849 C853 1.495 . S
C850 C849 1.392 . S
C850 C851 1.385 . S
C850 C852 1.478 . S
C851 H845 0.930 . S
C851 C847 1.400 . S
C851 C850 1.385 . S
C852 C850 1.478 . S
C852 C854 1.381 . S
C852 C858 1.383 . S
C853 C849 1.495 . S
C853 H859 0.959 . S
C853 H860 0.961 . S
C853 H861 0.960 . S
C854 C852 1.381 . S
C854 C855 1.394 . S
C854 H862 0.930 . S
C855 C854 1.394 . S
C855 C856 1.383 . S
C855 H863 0.929 . S
C856 C855 1.383 . S
C856 C857 1.377 . S
C857 H841 0.930 . S
C857 C856 1.377 . S
C857 C858 1.379 . S
C858 H842 0.931 . S
C858 C852 1.383 . S
C858 C857 1.379 . S
H859 C853 0.959 . S
H860 C853 0.961 . S
H861 C853 0.960 . S
H862 C854 0.930 . S
H863 C855 0.929 . S
H864 C872 0.929 . S
H865 C874 0.930 . S
H866 C876 0.930 . S
H867 C879 0.929 . S
H868 C882 0.930 . S
H869 C884 0.960 . S
H870 C884 0.960 . S
H871 C884 0.960 . S
C872 H864 0.929 . S
C872 C873 1.377 . S
C872 C874 1.384 . S
C873 C872 1.377 . S
C873 C879 1.390 . S
C874 H865 0.930 . S
C874 C872 1.384 . S
C874 C875 1.372 . S
C875 C874 1.372 . S
C875 C876 1.400 . S
C875 C880 1.490 . S
C876 H866 0.930 . S
C876 C875 1.400 . S
C876 C879 1.386 . S
H877 C893 0.930 . S
H878 C894 0.931 . S
C879 H867 0.929 . S
C879 C873 1.390 . S
C879 C876 1.386 . S
C880 C875 1.490 . S
C880 C882 1.395 . S
C880 C883 1.403 1_565 S
H881 C887 0.930 . S
C882 H868 0.930 . S
C882 C880 1.395 . S
C882 C885 1.403 . S
C883 C880 1.403 1_545 S
C883 C884 1.524 . S
C883 C887 1.400 . S
C884 H869 0.960 . S
C884 H870 0.960 . S
C884 H871 0.960 . S
C884 C883 1.524 . S
C885 C882 1.403 . S
C885 C886 1.392 1_565 S
C885 C889 1.495 . S
C886 C885 1.392 1_545 S
C886 C887 1.385 . S
C886 C888 1.478 . S
C887 H881 0.930 . S
C887 C883 1.400 . S
C887 C886 1.385 . S
C888 C886 1.478 . S
C888 C890 1.381 . S
C888 C894 1.383 . S
C889 C885 1.495 . S
C889 H895 0.959 . S
C889 H896 0.961 . S
C889 H897 0.960 . S
C890 C888 1.381 . S
C890 C891 1.394 . S
C890 H898 0.930 . S
C891 C890 1.394 . S
C891 C892 1.383 . S
C891 H899 0.929 . S
C892 C891 1.383 . S
C892 C893 1.377 . S
C893 H877 0.930 . S
C893 C892 1.377 . S
C893 C894 1.379 . S
C894 H878 0.931 . S
C894 C888 1.383 . S
C894 C893 1.379 . S
H895 C889 0.959 . S
H896 C889 0.961 . S
H897 C889 0.960 . S
H898 C890 0.930 . S
H899 C891 0.929 . S
H900 C908 0.929 . S
H901 C910 0.930 . S
H902 C912 0.930 . S
H903 C915 0.929 . S
H904 C918 0.930 . S
H905 C920 0.960 . S
H906 C920 0.960 . S
H907 C920 0.960 . S
C908 H900 0.929 . S
C908 C909 1.377 . S
C908 C910 1.384 . S
C909 C908 1.377 . S
C909 C915 1.390 . S
C910 H901 0.930 . S
C910 C908 1.384 . S
C910 C911 1.372 . S
C911 C910 1.372 . S
C911 C912 1.400 . S
C911 C916 1.490 . S
C912 H902 0.930 . S
C912 C911 1.400 . S
C912 C915 1.386 . S
H913 C929 0.930 . S
H914 C930 0.931 . S
C915 H903 0.929 . S
C915 C909 1.390 . S
C915 C912 1.386 . S
C916 C911 1.490 . S
C916 C918 1.395 . S
C916 C919 1.403 1_554 S
H917 C923 0.930 . S
C918 H904 0.930 . S
C918 C916 1.395 . S
C918 C921 1.403 . S
C919 C916 1.403 1_556 S
C919 C920 1.524 . S
C919 C923 1.400 . S
C920 H905 0.960 . S
C920 H906 0.960 . S
C920 H907 0.960 . S
C920 C919 1.524 . S
C921 C918 1.403 . S
C921 C922 1.392 1_554 S
C921 C925 1.495 . S
C922 C921 1.392 1_556 S
C922 C923 1.385 . S
C922 C924 1.478 . S
C923 H917 0.930 . S
C923 C919 1.400 . S
C923 C922 1.385 . S
C924 C922 1.478 . S
C924 C926 1.381 . S
C924 C930 1.383 . S
C925 C921 1.495 . S
C925 H931 0.959 . S
C925 H932 0.961 . S
C925 H933 0.960 . S
C926 C924 1.381 . S
C926 C927 1.394 . S
C926 H934 0.930 . S
C927 C926 1.394 . S
C927 C928 1.383 . S
C927 H935 0.929 . S
C928 C927 1.383 . S
C928 C929 1.377 . S
C929 H913 0.930 . S
C929 C928 1.377 . S
C929 C930 1.379 . S
C930 H914 0.931 . S
C930 C924 1.383 . S
C930 C929 1.379 . S
H931 C925 0.959 . S
H932 C925 0.961 . S
H933 C925 0.960 . S
H934 C926 0.930 . S
H935 C927 0.929 . S
H936 C944 0.929 . S
H937 C946 0.930 . S
H938 C948 0.930 . S
H939 C951 0.929 . S
H940 C954 0.930 . S
H941 C956 0.960 1_565 S
H942 C956 0.960 . S
H943 C956 0.960 . S
C944 H936 0.929 . S
C944 C945 1.377 . S
C944 C946 1.384 . S
C945 C944 1.377 . S
C945 C951 1.390 . S
C946 H937 0.930 . S
C946 C944 1.384 . S
C946 C947 1.372 . S
C947 C946 1.372 . S
C947 C948 1.400 . S
C947 C952 1.490 . S
C948 H938 0.930 . S
C948 C947 1.400 . S
C948 C951 1.386 . S
H949 C965 0.930 . S
H950 C966 0.931 . S
C951 H939 0.929 . S
C951 C945 1.390 . S
C951 C948 1.386 . S
C952 C947 1.490 . S
C952 C954 1.395 1_556 S
C952 C955 1.403 . S
H953 C959 0.930 . S
C954 H940 0.930 . S
C954 C952 1.395 1_554 S
C954 C957 1.403 1_545 S
C955 C952 1.403 . S
C955 C956 1.524 . S
C955 C959 1.400 1_545 S
C956 H941 0.960 1_545 S
C956 H942 0.960 . S
C956 H943 0.960 . S
C956 C955 1.524 . S
C957 C954 1.403 1_565 S
C957 C958 1.392 . S
C957 C961 1.495 . S
C958 C957 1.392 . S
C958 C959 1.385 1_554 S
C958 C960 1.478 . S
C959 H953 0.930 . S
C959 C955 1.400 1_565 S
C959 C958 1.385 1_556 S
C960 C958 1.478 . S
C960 C962 1.381 . S
C960 C966 1.383 . S
C961 C957 1.495 . S
C961 H967 0.959 1_565 S
C961 H968 0.961 . S
C961 H969 0.960 . S
C962 C960 1.381 . S
C962 C963 1.394 . S
C962 H970 0.930 . S
C963 C962 1.394 . S
C963 C964 1.383 . S
C963 H971 0.929 . S
C964 C963 1.383 . S
C964 C965 1.377 . S
C965 H949 0.930 . S
C965 C964 1.377 . S
C965 C966 1.379 . S
C966 H950 0.931 . S
C966 C960 1.383 . S
C966 C965 1.379 . S
H967 C961 0.959 1_545 S
H968 C961 0.961 . S
H969 C961 0.960 . S
H970 C962 0.930 . S
H971 C963 0.929 . S
H972 C980 0.929 . S
H973 C982 0.930 . S
H974 C984 0.930 . S
H975 C987 0.929 1_554 S
H976 C990 0.930 . S
H977 C992 0.960 . S
H978 C992 0.960 . S
H979 C992 0.960 . S
C980 H972 0.929 . S
C980 C981 1.377 . S
C980 C982 1.384 . S
C981 C980 1.377 . S
C981 C987 1.390 . S
C982 H973 0.930 . S
C982 C980 1.384 . S
C982 C983 1.372 . S
C983 C982 1.372 . S
C983 C984 1.400 1_556 S
C983 C988 1.490 . S
C984 H974 0.930 . S
C984 C983 1.400 1_554 S
C984 C987 1.386 1_554 S
H985 C1001 0.930 . S
H986 C1002 0.931 . S
C987 H975 0.929 1_556 S
C987 C981 1.390 . S
C987 C984 1.386 1_556 S
C988 C983 1.490 . S
C988 C990 1.395 . S
C988 C991 1.403 . S
H989 C995 0.930 . S
C990 H976 0.930 . S
C990 C988 1.395 . S
C990 C993 1.403 1_656 S
C991 C988 1.403 . S
C991 C992 1.524 . S
C991 C995 1.400 1_656 S
C992 H977 0.960 . S
C992 H978 0.960 . S
C992 H979 0.960 . S
C992 C991 1.524 . S
C993 C990 1.403 1_454 S
C993 C994 1.392 . S
C993 C997 1.495 . S
C994 C993 1.392 . S
C994 C995 1.385 . S
C994 C996 1.478 . S
C995 H989 0.930 . S
C995 C991 1.400 1_454 S
C995 C994 1.385 . S
C996 C994 1.478 . S
C996 C998 1.381 1_554 S
C996 C1002 1.383 . S
C997 C993 1.495 . S
C997 H1003 0.959 . S
C997 H1004 0.961 . S
C997 H1005 0.960 1_554 S
C998 C996 1.381 1_556 S
C998 C999 1.394 1_556 S
C998 H1006 0.930 . S
C999 C998 1.394 1_554 S
C999 C1000 1.383 . S
C999 H1007 0.929 1_554 S
C1000 C999 1.383 . S
C1000 C1001 1.377 . S
C1001 H985 0.930 . S
C1001 C1000 1.377 . S
C1001 C1002 1.379 . S
C1002 H986 0.931 . S
C1002 C996 1.383 . S
C1002 C1001 1.379 . S
H1003 C997 0.959 . S
H1004 C997 0.961 . S
H1005 C997 0.960 1_556 S
H1006 C998 0.930 . S
H1007 C999 0.929 1_556 S
H1008 C1016 0.929 . S
H1009 C1018 0.930 . S
H1010 C1020 0.930 1_554 S
H1011 C1023 0.929 . S
H1012 C1026 0.930 . S
H1013 C1028 0.960 . S
H1014 C1028 0.960 . S
H1015 C1028 0.960 . S
C1016 H1008 0.929 . S
C1016 C1017 1.377 . S
C1016 C1018 1.384 . S
C1017 C1016 1.377 . S
C1017 C1023 1.390 . S
C1018 H1009 0.930 . S
C1018 C1016 1.384 . S
C1018 C1019 1.372 . S
C1019 C1018 1.372 . S
C1019 C1020 1.400 . S
C1019 C1024 1.490 . S
C1020 H1010 0.930 1_556 S
C1020 C1019 1.400 . S
C1020 C1023 1.386 . S
H1021 C1037 0.930 . S
H1022 C1038 0.931 . S
C1023 H1011 0.929 . S
C1023 C1017 1.390 . S
C1023 C1020 1.386 . S
C1024 C1019 1.490 . S
C1024 C1026 1.395 . S
C1024 C1027 1.403 1_556 S
H1025 C1031 0.930 . S
C1026 H1012 0.930 . S
C1026 C1024 1.395 . S
C1026 C1029 1.403 . S
C1027 C1024 1.403 1_554 S
C1027 C1028 1.524 . S
C1027 C1031 1.400 . S
C1028 H1013 0.960 . S
C1028 H1014 0.960 . S
C1028 H1015 0.960 . S
C1028 C1027 1.524 . S
C1029 C1026 1.403 . S
C1029 C1030 1.392 1_556 S
C1029 C1033 1.495 . S
C1030 C1029 1.392 1_554 S
C1030 C1031 1.385 . S
C1030 C1032 1.478 . S
C1031 H1025 0.930 . S
C1031 C1027 1.400 . S
C1031 C1030 1.385 . S
C1032 C1030 1.478 . S
C1032 C1034 1.382 1_554 S
C1032 C1038 1.383 . S
C1033 C1029 1.495 . S
C1033 H1039 0.959 . S
C1033 H1040 0.961 . S
C1033 H1041 0.960 . S
C1034 C1032 1.382 1_556 S
C1034 C1035 1.395 1_556 S
C1034 H1042 0.928 . S
C1035 C1034 1.395 1_554 S
C1035 C1036 1.383 . S
C1035 H1043 0.929 . S
C1036 C1035 1.383 . S
C1036 C1037 1.377 . S
C1037 H1021 0.930 . S
C1037 C1036 1.377 . S
C1037 C1038 1.379 . S
C1038 H1022 0.931 . S
C1038 C1032 1.383 . S
C1038 C1037 1.379 . S
H1039 C1033 0.959 . S
H1040 C1033 0.961 . S
H1041 C1033 0.960 . S
H1042 C1034 0.928 . S
H1043 C1035 0.929 . S
H1044 C1052 0.929 . S
H1045 C1054 0.930 . S
H1046 C1056 0.930 . S
H1047 C1059 0.929 . S
H1048 C1062 0.930 . S
H1049 C1064 0.914 1_545 S
H1050 C1064 0.960 . S
H1051 C1064 0.960 . S
C1052 H1044 0.929 . S
C1052 C1053 1.377 . S
C1052 C1054 1.384 . S
C1053 C1052 1.377 . S
C1053 C1059 1.390 . S
C1054 H1045 0.930 . S
C1054 C1052 1.384 . S
C1054 C1055 1.372 . S
C1055 C1054 1.372 . S
C1055 C1056 1.400 . S
C1055 C1060 1.490 . S
C1056 H1046 0.930 . S
C1056 C1055 1.400 . S
C1056 C1059 1.386 . S
H1057 C1073 0.930 . S
H1058 C1074 0.931 . S
C1059 H1047 0.929 . S
C1059 C1053 1.390 . S
C1059 C1056 1.386 . S
C1060 C1055 1.490 . S
C1060 C1062 1.395 1_554 S
C1060 C1063 1.403 . S
H1061 C1067 0.930 . S
C1062 H1048 0.930 . S
C1062 C1060 1.395 1_556 S
C1062 C1065 1.403 1_565 S
C1063 C1060 1.403 . S
C1063 C1064 1.524 . S
C1063 C1067 1.400 1_565 S
C1064 H1049 0.914 1_565 S
C1064 H1050 0.960 . S
C1064 H1051 0.960 . S
C1064 C1063 1.524 . S
C1065 C1062 1.403 1_545 S
C1065 C1066 1.392 . S
C1065 C1069 1.495 . S
C1066 C1065 1.392 . S
C1066 C1067 1.385 1_556 S
C1066 C1068 1.478 . S
C1067 H1061 0.930 . S
C1067 C1063 1.400 1_545 S
C1067 C1066 1.385 1_554 S
C1068 C1066 1.478 . S
C1068 C1070 1.381 . S
C1068 C1074 1.383 . S
C1069 C1065 1.495 . S
C1069 H1075 0.948 1_545 S
C1069 H1076 0.961 . S
C1069 H1077 0.960 . S
C1070 C1068 1.381 . S
C1070 C1071 1.394 . S
C1070 H1078 0.930 . S
C1071 C1070 1.394 . S
C1071 C1072 1.383 . S
C1071 H1079 0.929 . S
C1072 C1071 1.383 . S
C1072 C1073 1.377 . S
C1073 H1057 0.930 . S
C1073 C1072 1.377 . S
C1073 C1074 1.379 . S
C1074 H1058 0.931 . S
C1074 C1068 1.383 . S
C1074 C1073 1.379 . S
H1075 C1069 0.948 1_565 S
H1076 C1069 0.961 . S
H1077 C1069 0.960 . S
H1078 C1070 0.930 . S
H1079 C1071 0.929 . S
H1080 C1088 0.929 1_554 S
H1081 C1090 0.930 . S
H1082 C1092 0.930 . S
H1083 C1095 0.929 . S
H1084 C1098 0.930 . S
H1085 C1100 0.960 . S
H1086 C1100 0.960 . S
H1087 C1100 0.960 1_556 S
C1088 H1080 0.929 1_556 S
C1088 C1089 1.377 . S
C1088 C1090 1.384 1_556 S
C1089 C1088 1.377 . S
C1089 C1095 1.390 . S
C1090 H1081 0.930 . S
C1090 C1088 1.384 1_554 S
C1090 C1091 1.372 1_554 S
C1091 C1090 1.372 1_556 S
C1091 C1092 1.400 . S
C1091 C1096 1.490 . S
C1092 H1082 0.930 . S
C1092 C1091 1.400 . S
C1092 C1095 1.386 . S
H1093 C1109 0.930 1_556 S
H1094 C1110 0.931 . S
C1095 H1083 0.929 . S
C1095 C1089 1.390 . S
C1095 C1092 1.386 . S
C1096 C1091 1.490 . S
C1096 C1098 1.395 . S
C1096 C1099 1.403 1_556 S
H1097 C1103 0.930 . S
C1098 H1084 0.930 . S
C1098 C1096 1.395 . S
C1098 C1101 1.403 1_655 S
C1099 C1096 1.403 1_554 S
C1099 C1100 1.524 . S
C1099 C1103 1.400 1_655 S
C1100 H1085 0.960 . S
C1100 H1086 0.960 . S
C1100 H1087 0.960 1_554 S
C1100 C1099 1.524 . S
C1101 C1098 1.403 1_455 S
C1101 C1102 1.392 1_556 S
C1101 C1105 1.495 . S
C1102 C1101 1.392 1_554 S
C1102 C1103 1.385 . S
C1102 C1104 1.478 . S
C1103 H1097 0.930 . S
C1103 C1099 1.400 1_455 S
C1103 C1102 1.385 . S
C1104 C1102 1.478 . S
C1104 C1106 1.381 . S
C1104 C1110 1.383 1_554 S
C1105 C1101 1.495 . S
C1105 H1111 0.959 . S
C1105 H1112 0.961 . S
C1105 H1113 0.960 1_556 S
C1106 C1104 1.381 . S
C1106 C1107 1.394 . S
C1106 H1114 0.930 . S
C1107 C1106 1.394 . S
C1107 C1108 1.383 . S
C1107 H1115 0.929 . S
C1108 C1107 1.383 . S
C1108 C1109 1.377 . S
C1109 H1093 0.930 1_554 S
C1109 C1108 1.377 . S
C1109 C1110 1.379 1_554 S
C1110 H1094 0.931 . S
C1110 C1104 1.383 1_556 S
C1110 C1109 1.379 1_556 S
H1111 C1105 0.959 . S
H1112 C1105 0.961 . S
H1113 C1105 0.960 1_554 S
H1114 C1106 0.930 . S
H1115 C1107 0.929 . S
H1116 C1124 0.929 . S
H1117 C1126 0.930 . S
H1118 C1128 0.930 . S
H1119 C1131 0.929 . S
H1120 C1134 0.930 . S
H1121 C1136 0.960 . S
H1122 C1136 0.960 . S
H1123 C1136 0.960 . S
C1124 H1116 0.929 . S
C1124 C1125 1.377 . S
C1124 C1126 1.384 . S
C1125 C1124 1.377 . S
C1125 C1131 1.390 . S
C1126 H1117 0.930 . S
C1126 C1124 1.384 . S
C1126 C1127 1.372 . S
C1127 C1126 1.372 . S
C1127 C1128 1.400 . S
C1127 C1132 1.490 . S
C1128 H1118 0.930 . S
C1128 C1127 1.400 . S
C1128 C1131 1.386 . S
H1129 C1145 0.930 . S
H1130 C1146 0.931 . S
C1131 H1119 0.929 . S
C1131 C1125 1.390 . S
C1131 C1128 1.386 . S
C1132 C1127 1.490 . S
C1132 C1134 1.395 . S
C1132 C1135 1.403 . S
H1133 C1139 0.930 . S
C1134 H1120 0.930 . S
C1134 C1132 1.395 . S
C1134 C1137 1.403 . S
C1135 C1132 1.403 . S
C1135 C1136 1.524 . S
C1135 C1139 1.400 . S
C1136 H1121 0.960 . S
C1136 H1122 0.960 . S
C1136 H1123 0.960 . S
C1136 C1135 1.524 . S
C1137 C1134 1.403 . S
C1137 C1138 1.392 . S
C1137 C1141 1.495 . S
C1138 C1137 1.392 . S
C1138 C1139 1.385 . S
C1138 C1140 1.478 . S
C1139 H1133 0.930 . S
C1139 C1135 1.400 . S
C1139 C1138 1.385 . S
C1140 C1138 1.478 . S
C1140 C1142 1.381 . S
C1140 C1146 1.383 . S
C1141 C1137 1.495 . S
C1141 H1147 0.959 . S
C1141 H1148 0.961 . S
C1141 H1149 0.960 . S
C1142 C1140 1.381 . S
C1142 C1143 1.394 . S
C1142 H1150 0.930 . S
C1143 C1142 1.394 . S
C1143 C1144 1.383 . S
C1143 H1151 0.929 . S
C1144 C1143 1.383 . S
C1144 C1145 1.377 . S
C1145 H1129 0.930 . S
C1145 C1144 1.377 . S
C1145 C1146 1.379 . S
C1146 H1130 0.931 . S
C1146 C1140 1.383 . S
C1146 C1145 1.379 . S
H1147 C1141 0.959 . S
H1148 C1141 0.961 . S
H1149 C1141 0.960 . S
H1150 C1142 0.930 . S
H1151 C1143 0.929 . S
H1152 C1160 0.929 . S
H1153 C1162 0.930 . S
H1154 C1164 0.930 . S
H1155 C1167 0.929 . S
H1156 C1170 0.930 . S
H1157 C1172 0.960 . S
H1158 C1172 0.960 . S
H1159 C1172 0.960 . S
C1160 H1152 0.929 . S
C1160 C1161 1.377 . S
C1160 C1162 1.384 . S
C1161 C1160 1.377 . S
C1161 C1167 1.390 . S
C1162 H1153 0.930 . S
C1162 C1160 1.384 . S
C1162 C1163 1.372 . S
C1163 C1162 1.372 . S
C1163 C1164 1.400 . S
C1163 C1168 1.490 . S
C1164 H1154 0.930 . S
C1164 C1163 1.400 . S
C1164 C1167 1.386 . S
H1165 C1181 0.930 . S
H1166 C1182 0.931 . S
C1167 H1155 0.929 . S
C1167 C1161 1.390 . S
C1167 C1164 1.386 . S
C1168 C1163 1.490 . S
C1168 C1170 1.395 . S
C1168 C1171 1.403 . S
H1169 C1175 0.930 . S
C1170 H1156 0.930 . S
C1170 C1168 1.395 . S
C1170 C1173 1.403 . S
C1171 C1168 1.403 . S
C1171 C1172 1.524 . S
C1171 C1175 1.400 . S
C1172 H1157 0.960 . S
C1172 H1158 0.960 . S
C1172 H1159 0.960 . S
C1172 C1171 1.524 . S
C1173 C1170 1.403 . S
C1173 C1174 1.392 . S
C1173 C1177 1.495 . S
C1174 C1173 1.392 . S
C1174 C1175 1.385 . S
C1174 C1176 1.478 . S
C1175 H1169 0.930 . S
C1175 C1171 1.400 . S
C1175 C1174 1.385 . S
C1176 C1174 1.478 . S
C1176 C1178 1.381 . S
C1176 C1182 1.383 . S
C1177 C1173 1.495 . S
C1177 H1183 0.959 . S
C1177 H1184 0.961 . S
C1177 H1185 0.960 . S
C1178 C1176 1.381 . S
C1178 C1179 1.394 . S
C1178 H1186 0.930 . S
C1179 C1178 1.394 . S
C1179 C1180 1.383 . S
C1179 H1187 0.929 . S
C1180 C1179 1.383 . S
C1180 C1181 1.377 . S
C1181 H1165 0.930 . S
C1181 C1180 1.377 . S
C1181 C1182 1.379 . S
C1182 H1166 0.931 . S
C1182 C1176 1.383 . S
C1182 C1181 1.379 . S
H1183 C1177 0.959 . S
H1184 C1177 0.961 . S
H1185 C1177 0.960 . S
H1186 C1178 0.930 . S
H1187 C1179 0.929 . S
H1188 C1196 0.929 . S
H1189 C1198 0.930 . S
H1190 C1200 0.930 . S
H1191 C1203 0.929 . S
H1192 C1206 0.930 . S
H1193 C1208 0.960 . S
H1194 C1208 0.960 . S
H1195 C1208 0.960 . S
C1196 H1188 0.929 . S
C1196 C1197 1.377 . S
C1196 C1198 1.384 . S
C1197 C1196 1.377 . S
C1197 C1203 1.390 . S
C1198 H1189 0.930 . S
C1198 C1196 1.384 . S
C1198 C1199 1.372 . S
C1199 C1198 1.372 . S
C1199 C1200 1.400 . S
C1199 C1204 1.490 . S
C1200 H1190 0.930 . S
C1200 C1199 1.400 . S
C1200 C1203 1.386 . S
H1201 C1217 0.930 . S
H1202 C1218 0.931 . S
C1203 H1191 0.929 . S
C1203 C1197 1.390 . S
C1203 C1200 1.386 . S
C1204 C1199 1.490 . S
C1204 C1206 1.395 . S
C1204 C1207 1.403 . S
H1205 C1211 0.930 . S
C1206 H1192 0.930 . S
C1206 C1204 1.395 . S
C1206 C1209 1.403 . S
C1207 C1204 1.403 . S
C1207 C1208 1.524 . S
C1207 C1211 1.400 . S
C1208 H1193 0.960 . S
C1208 H1194 0.960 . S
C1208 H1195 0.960 . S
C1208 C1207 1.524 . S
C1209 C1206 1.403 . S
C1209 C1210 1.392 . S
C1209 C1213 1.495 . S
C1210 C1209 1.392 . S
C1210 C1211 1.385 . S
C1210 C1212 1.478 . S
C1211 H1205 0.930 . S
C1211 C1207 1.400 . S
C1211 C1210 1.385 . S
C1212 C1210 1.478 . S
C1212 C1214 1.381 . S
C1212 C1218 1.383 . S
C1213 C1209 1.495 . S
C1213 H1219 0.959 . S
C1213 H1220 0.961 . S
C1213 H1221 0.960 . S
C1214 C1212 1.381 . S
C1214 C1215 1.394 . S
C1214 H1222 0.930 . S
C1215 C1214 1.394 . S
C1215 C1216 1.383 . S
C1215 H1223 0.929 . S
C1216 C1215 1.383 . S
C1216 C1217 1.377 . S
C1217 H1201 0.930 . S
C1217 C1216 1.377 . S
C1217 C1218 1.379 . S
C1218 H1202 0.931 . S
C1218 C1212 1.383 . S
C1218 C1217 1.379 . S
H1219 C1213 0.959 . S
H1220 C1213 0.961 . S
H1221 C1213 0.960 . S
H1222 C1214 0.930 . S
H1223 C1215 0.929 . S
H1224 C1232 0.929 . S
H1225 C1234 0.930 . S
H1226 C1236 0.930 . S
H1227 C1239 0.929 . S
H1228 C1242 0.930 . S
H1229 C1244 0.960 . S
H1230 C1244 0.960 . S
H1231 C1244 0.960 . S
C1232 H1224 0.929 . S
C1232 C1233 1.377 . S
C1232 C1234 1.384 . S
C1233 C1232 1.377 . S
C1233 C1239 1.390 . S
C1234 H1225 0.930 . S
C1234 C1232 1.384 . S
C1234 C1235 1.372 . S
C1235 C1234 1.372 . S
C1235 C1236 1.400 . S
C1235 C1240 1.490 . S
C1236 H1226 0.930 . S
C1236 C1235 1.400 . S
C1236 C1239 1.386 . S
H1237 C1253 0.930 . S
H1238 C1254 0.931 . S
C1239 H1227 0.929 . S
C1239 C1233 1.390 . S
C1239 C1236 1.386 . S
C1240 C1235 1.490 . S
C1240 C1242 1.395 . S
C1240 C1243 1.403 . S
H1241 C1247 0.930 . S
C1242 H1228 0.930 . S
C1242 C1240 1.395 . S
C1242 C1245 1.403 . S
C1243 C1240 1.403 . S
C1243 C1244 1.524 . S
C1243 C1247 1.400 . S
C1244 H1229 0.960 . S
C1244 H1230 0.960 . S
C1244 H1231 0.960 . S
C1244 C1243 1.524 . S
C1245 C1242 1.403 . S
C1245 C1246 1.392 . S
C1245 C1249 1.495 . S
C1246 C1245 1.392 . S
C1246 C1247 1.385 . S
C1246 C1248 1.478 . S
C1247 H1241 0.930 . S
C1247 C1243 1.400 . S
C1247 C1246 1.385 . S
C1248 C1246 1.478 . S
C1248 C1250 1.381 . S
C1248 C1254 1.383 . S
C1249 C1245 1.495 . S
C1249 H1255 0.959 . S
C1249 H1256 0.961 . S
C1249 H1257 0.960 . S
C1250 C1248 1.381 . S
C1250 C1251 1.394 . S
C1250 H1258 0.930 . S
C1251 C1250 1.394 . S
C1251 C1252 1.383 . S
C1251 H1259 0.929 . S
C1252 C1251 1.383 . S
C1252 C1253 1.377 . S
C1253 H1237 0.930 . S
C1253 C1252 1.377 . S
C1253 C1254 1.379 . S
C1254 H1238 0.931 . S
C1254 C1248 1.383 . S
C1254 C1253 1.379 . S
H1255 C1249 0.959 . S
H1256 C1249 0.961 . S
H1257 C1249 0.960 . S
H1258 C1250 0.930 . S
H1259 C1251 0.929 . S
H1260 C1268 0.929 . S
H1261 C1270 0.930 . S
H1262 C1272 0.930 . S
H1263 C1275 0.929 . S
H1264 C1278 0.930 . S
H1265 C1280 0.960 . S
H1266 C1280 0.960 . S
H1267 C1280 0.960 . S
C1268 H1260 0.929 . S
C1268 C1269 1.377 . S
C1268 C1270 1.384 . S
C1269 C1268 1.377 . S
C1269 C1275 1.390 . S
C1270 H1261 0.930 . S
C1270 C1268 1.384 . S
C1270 C1271 1.372 . S
C1271 C1270 1.372 . S
C1271 C1272 1.400 . S
C1271 C1276 1.490 . S
C1272 H1262 0.930 . S
C1272 C1271 1.400 . S
C1272 C1275 1.386 . S
H1273 C1289 0.930 . S
H1274 C1290 0.931 . S
C1275 H1263 0.929 . S
C1275 C1269 1.390 . S
C1275 C1272 1.386 . S
C1276 C1271 1.490 . S
C1276 C1278 1.395 . S
C1276 C1279 1.403 . S
H1277 C1283 0.930 . S
C1278 H1264 0.930 . S
C1278 C1276 1.395 . S
C1278 C1281 1.403 . S
C1279 C1276 1.403 . S
C1279 C1280 1.524 . S
C1279 C1283 1.400 . S
C1280 H1265 0.960 . S
C1280 H1266 0.960 . S
C1280 H1267 0.960 . S
C1280 C1279 1.524 . S
C1281 C1278 1.403 . S
C1281 C1282 1.392 . S
C1281 C1285 1.495 . S
C1282 C1281 1.392 . S
C1282 C1283 1.385 . S
C1282 C1284 1.478 . S
C1283 H1277 0.930 . S
C1283 C1279 1.400 . S
C1283 C1282 1.385 . S
C1284 C1282 1.478 . S
C1284 C1286 1.381 . S
C1284 C1290 1.383 . S
C1285 C1281 1.495 . S
C1285 H1291 0.959 . S
C1285 H1292 0.961 . S
C1285 H1293 0.960 . S
C1286 C1284 1.381 . S
C1286 C1287 1.394 . S
C1286 H1294 0.930 . S
C1287 C1286 1.394 . S
C1287 C1288 1.383 . S
C1287 H1295 0.929 . S
C1288 C1287 1.383 . S
C1288 C1289 1.377 . S
C1289 H1273 0.930 . S
C1289 C1288 1.377 . S
C1289 C1290 1.379 . S
C1290 H1274 0.931 . S
C1290 C1284 1.383 . S
C1290 C1289 1.379 . S
H1291 C1285 0.959 . S
H1292 C1285 0.961 . S
H1293 C1285 0.960 . S
H1294 C1286 0.930 . S
H1295 C1287 0.929 . S
H1296 C1304 0.929 . S
H1297 C1306 0.930 . S
H1298 C1308 0.930 . S
H1299 C1311 0.929 . S
H1300 C1314 0.930 . S
H1301 C1316 0.960 . S
H1302 C1316 0.960 . S
H1303 C1316 0.960 . S
C1304 H1296 0.929 . S
C1304 C1305 1.377 . S
C1304 C1306 1.384 . S
C1305 C1304 1.377 . S
C1305 C1311 1.390 . S
C1306 H1297 0.930 . S
C1306 C1304 1.384 . S
C1306 C1307 1.372 . S
C1307 C1306 1.372 . S
C1307 C1308 1.400 . S
C1307 C1312 1.490 . S
C1308 H1298 0.930 . S
C1308 C1307 1.400 . S
C1308 C1311 1.386 . S
H1309 C1325 0.930 . S
H1310 C1326 0.931 . S
C1311 H1299 0.929 . S
C1311 C1305 1.390 . S
C1311 C1308 1.386 . S
C1312 C1307 1.490 . S
C1312 C1314 1.395 . S
C1312 C1315 1.403 . S
H1313 C1319 0.930 . S
C1314 H1300 0.930 . S
C1314 C1312 1.395 . S
C1314 C1317 1.403 . S
C1315 C1312 1.403 . S
C1315 C1316 1.524 . S
C1315 C1319 1.400 . S
C1316 H1301 0.960 . S
C1316 H1302 0.960 . S
C1316 H1303 0.960 . S
C1316 C1315 1.524 . S
C1317 C1314 1.403 . S
C1317 C1318 1.392 . S
C1317 C1321 1.495 . S
C1318 C1317 1.392 . S
C1318 C1319 1.385 . S
C1318 C1320 1.478 . S
C1319 H1313 0.930 . S
C1319 C1315 1.400 . S
C1319 C1318 1.385 . S
C1320 C1318 1.478 . S
C1320 C1322 1.381 . S
C1320 C1326 1.383 . S
C1321 C1317 1.495 . S
C1321 H1327 0.959 . S
C1321 H1328 0.961 . S
C1321 H1329 0.960 . S
C1322 C1320 1.381 . S
C1322 C1323 1.394 . S
C1322 H1330 0.930 . S
C1323 C1322 1.394 . S
C1323 C1324 1.383 . S
C1323 H1331 0.929 . S
C1324 C1323 1.383 . S
C1324 C1325 1.377 . S
C1325 H1309 0.930 . S
C1325 C1324 1.377 . S
C1325 C1326 1.379 . S
C1326 H1310 0.931 . S
C1326 C1320 1.383 . S
C1326 C1325 1.379 . S
H1327 C1321 0.959 . S
H1328 C1321 0.961 . S
H1329 C1321 0.960 . S
H1330 C1322 0.930 . S
H1331 C1323 0.929 . S
H1332 C1340 0.929 . S
H1333 C1342 0.930 . S
H1334 C1344 0.930 . S
H1335 C1347 0.929 . S
H1336 C1350 0.930 . S
H1337 C1352 0.960 . S
H1338 C1352 0.960 . S
H1339 C1352 0.960 . S
C1340 H1332 0.929 . S
C1340 C1341 1.377 . S
C1340 C1342 1.384 . S
C1341 C1340 1.377 . S
C1341 C1347 1.390 . S
C1342 H1333 0.930 . S
C1342 C1340 1.384 . S
C1342 C1343 1.372 . S
C1343 C1342 1.372 . S
C1343 C1344 1.400 . S
C1343 C1348 1.490 . S
C1344 H1334 0.930 . S
C1344 C1343 1.400 . S
C1344 C1347 1.386 . S
H1345 C1361 0.930 . S
H1346 C1362 0.931 . S
C1347 H1335 0.929 . S
C1347 C1341 1.390 . S
C1347 C1344 1.386 . S
C1348 C1343 1.490 . S
C1348 C1350 1.395 . S
C1348 C1351 1.403 . S
H1349 C1355 0.930 . S
C1350 H1336 0.930 . S
C1350 C1348 1.395 . S
C1350 C1353 1.403 . S
C1351 C1348 1.403 . S
C1351 C1352 1.524 . S
C1351 C1355 1.400 . S
C1352 H1337 0.960 . S
C1352 H1338 0.960 . S
C1352 H1339 0.960 . S
C1352 C1351 1.524 . S
C1353 C1350 1.403 . S
C1353 C1354 1.392 . S
C1353 C1357 1.495 . S
C1354 C1353 1.392 . S
C1354 C1355 1.385 . S
C1354 C1356 1.478 . S
C1355 H1349 0.930 . S
C1355 C1351 1.400 . S
C1355 C1354 1.385 . S
C1356 C1354 1.478 . S
C1356 C1358 1.381 . S
C1356 C1362 1.383 . S
C1357 C1353 1.495 . S
C1357 H1363 0.959 . S
C1357 H1364 0.961 . S
C1357 H1365 0.960 . S
C1358 C1356 1.381 . S
C1358 C1359 1.394 . S
C1358 H1366 0.930 . S
C1359 C1358 1.394 . S
C1359 C1360 1.383 . S
C1359 H1367 0.929 . S
C1360 C1359 1.383 . S
C1360 C1361 1.377 . S
C1361 H1345 0.930 . S
C1361 C1360 1.377 . S
C1361 C1362 1.379 . S
C1362 H1346 0.931 . S
C1362 C1356 1.383 . S
C1362 C1361 1.379 . S
H1363 C1357 0.959 . S
H1364 C1357 0.961 . S
H1365 C1357 0.960 . S
H1366 C1358 0.930 . S
H1367 C1359 0.929 . S
H1368 C1376 0.929 . S
H1369 C1378 0.930 . S
H1370 C1380 0.930 . S
H1371 C1383 0.929 . S
H1372 C1386 0.930 . S
H1373 C1388 0.960 . S
H1374 C1388 0.960 . S
H1375 C1388 0.960 . S
C1376 H1368 0.929 . S
C1376 C1377 1.377 . S
C1376 C1378 1.384 . S
C1377 C1376 1.377 . S
C1377 C1383 1.390 . S
C1378 H1369 0.930 . S
C1378 C1376 1.384 . S
C1378 C1379 1.372 . S
C1379 C1378 1.372 . S
C1379 C1380 1.400 . S
C1379 C1384 1.490 . S
C1380 H1370 0.930 . S
C1380 C1379 1.400 . S
C1380 C1383 1.386 . S
H1381 C1397 0.930 . S
H1382 C1398 0.931 . S
C1383 H1371 0.929 . S
C1383 C1377 1.390 . S
C1383 C1380 1.386 . S
C1384 C1379 1.490 . S
C1384 C1386 1.395 . S
C1384 C1387 1.403 . S
H1385 C1391 0.930 . S
C1386 H1372 0.930 . S
C1386 C1384 1.395 . S
C1386 C1389 1.403 . S
C1387 C1384 1.403 . S
C1387 C1388 1.524 . S
C1387 C1391 1.400 . S
C1388 H1373 0.960 . S
C1388 H1374 0.960 . S
C1388 H1375 0.960 . S
C1388 C1387 1.524 . S
C1389 C1386 1.403 . S
C1389 C1390 1.392 . S
C1389 C1393 1.495 . S
C1390 C1389 1.392 . S
C1390 C1391 1.385 . S
C1390 C1392 1.478 . S
C1391 H1385 0.930 . S
C1391 C1387 1.400 . S
C1391 C1390 1.385 . S
C1392 C1390 1.478 . S
C1392 C1394 1.381 . S
C1392 C1398 1.383 . S
C1393 C1389 1.495 . S
C1393 H1399 0.959 . S
C1393 H1400 0.961 . S
C1393 H1401 0.960 . S
C1394 C1392 1.381 . S
C1394 C1395 1.394 . S
C1394 H1402 0.930 . S
C1395 C1394 1.394 . S
C1395 C1396 1.383 . S
C1395 H1403 0.929 . S
C1396 C1395 1.383 . S
C1396 C1397 1.377 . S
C1397 H1381 0.930 . S
C1397 C1396 1.377 . S
C1397 C1398 1.379 . S
C1398 H1382 0.931 . S
C1398 C1392 1.383 . S
C1398 C1397 1.379 . S
H1399 C1393 0.959 . S
H1400 C1393 0.961 . S
H1401 C1393 0.960 . S
H1402 C1394 0.930 . S
H1403 C1395 0.929 . S
H1404 C1412 0.929 . S
H1405 C1414 0.930 . S
H1406 C1416 0.930 . S
H1407 C1419 0.929 . S
H1408 C1422 0.930 . S
H1409 C1424 0.960 . S
H1410 C1424 0.960 . S
H1411 C1424 0.960 . S
C1412 H1404 0.929 . S
C1412 C1413 1.377 . S
C1412 C1414 1.384 . S
C1413 C1412 1.377 . S
C1413 C1419 1.390 . S
C1414 H1405 0.930 . S
C1414 C1412 1.384 . S
C1414 C1415 1.372 . S
C1415 C1414 1.372 . S
C1415 C1416 1.400 . S
C1415 C1420 1.490 . S
C1416 H1406 0.930 . S
C1416 C1415 1.400 . S
C1416 C1419 1.386 . S
H1417 C1433 0.930 . S
H1418 C1434 0.931 . S
C1419 H1407 0.929 . S
C1419 C1413 1.390 . S
C1419 C1416 1.386 . S
C1420 C1415 1.490 . S
C1420 C1422 1.395 . S
C1420 C1423 1.403 . S
H1421 C1427 0.930 . S
C1422 H1408 0.930 . S
C1422 C1420 1.395 . S
C1422 C1425 1.403 . S
C1423 C1420 1.403 . S
C1423 C1424 1.524 . S
C1423 C1427 1.400 . S
C1424 H1409 0.960 . S
C1424 H1410 0.960 . S
C1424 H1411 0.960 . S
C1424 C1423 1.524 . S
C1425 C1422 1.403 . S
C1425 C1426 1.392 . S
C1425 C1429 1.495 . S
C1426 C1425 1.392 . S
C1426 C1427 1.385 . S
C1426 C1428 1.478 . S
C1427 H1421 0.930 . S
C1427 C1423 1.400 . S
C1427 C1426 1.385 . S
C1428 C1426 1.478 . S
C1428 C1430 1.381 . S
C1428 C1434 1.383 . S
C1429 C1425 1.495 . S
C1429 H1435 0.959 . S
C1429 H1436 0.961 . S
C1429 H1437 0.960 . S
C1430 C1428 1.381 . S
C1430 C1431 1.394 . S
C1430 H1438 0.930 . S
C1431 C1430 1.394 . S
C1431 C1432 1.383 . S
C1431 H1439 0.929 . S
C1432 C1431 1.383 . S
C1432 C1433 1.377 . S
C1433 H1417 0.930 . S
C1433 C1432 1.377 . S
C1433 C1434 1.379 . S
C1434 H1418 0.931 . S
C1434 C1428 1.383 . S
C1434 C1433 1.379 . S
H1435 C1429 0.959 . S
H1436 C1429 0.961 . S
H1437 C1429 0.960 . S
H1438 C1430 0.930 . S
H1439 C1431 0.929 . S
H1440 C1448 0.929 . S
H1441 C1450 0.930 . S
H1442 C1452 0.930 . S
H1443 C1455 0.929 . S
H1444 C1458 0.930 . S
H1445 C1460 0.960 . S
H1446 C1460 0.960 . S
H1447 C1460 0.960 . S
C1448 H1440 0.929 . S
C1448 C1449 1.377 . S
C1448 C1450 1.384 . S
C1449 C1448 1.377 . S
C1449 C1455 1.390 . S
C1450 H1441 0.930 . S
C1450 C1448 1.384 . S
C1450 C1451 1.372 . S
C1451 C1450 1.372 . S
C1451 C1452 1.400 . S
C1451 C1456 1.490 . S
C1452 H1442 0.930 . S
C1452 C1451 1.400 . S
C1452 C1455 1.386 . S
H1453 C1469 0.930 . S
H1454 C1470 0.931 . S
C1455 H1443 0.929 . S
C1455 C1449 1.390 . S
C1455 C1452 1.386 . S
C1456 C1451 1.490 . S
C1456 C1458 1.395 . S
C1456 C1459 1.403 . S
H1457 C1463 0.930 . S
C1458 H1444 0.930 . S
C1458 C1456 1.395 . S
C1458 C1461 1.403 . S
C1459 C1456 1.403 . S
C1459 C1460 1.524 . S
C1459 C1463 1.400 . S
C1460 H1445 0.960 . S
C1460 H1446 0.960 . S
C1460 H1447 0.960 . S
C1460 C1459 1.524 . S
C1461 C1458 1.403 . S
C1461 C1462 1.392 . S
C1461 C1465 1.495 . S
C1462 C1461 1.392 . S
C1462 C1463 1.385 . S
C1462 C1464 1.478 . S
C1463 H1457 0.930 . S
C1463 C1459 1.400 . S
C1463 C1462 1.385 . S
C1464 C1462 1.478 . S
C1464 C1466 1.381 . S
C1464 C1470 1.383 . S
C1465 C1461 1.495 . S
C1465 H1471 0.959 . S
C1465 H1472 0.961 . S
C1465 H1473 0.960 . S
C1466 C1464 1.381 . S
C1466 C1467 1.394 . S
C1466 H1474 0.930 . S
C1467 C1466 1.394 . S
C1467 C1468 1.383 . S
C1467 H1475 0.929 . S
C1468 C1467 1.383 . S
C1468 C1469 1.377 . S
C1469 H1453 0.930 . S
C1469 C1468 1.377 . S
C1469 C1470 1.379 . S
C1470 H1454 0.931 . S
C1470 C1464 1.383 . S
C1470 C1469 1.379 . S
H1471 C1465 0.959 . S
H1472 C1465 0.961 . S
H1473 C1465 0.960 . S
H1474 C1466 0.930 . S
H1475 C1467 0.929 . S
H1476 C1484 0.929 . S
H1477 C1486 0.930 . S
H1478 C1488 0.930 . S
H1479 C1491 0.929 . S
H1480 C1494 0.930 . S
H1481 C1496 0.960 . S
H1482 C1496 0.960 . S
H1483 C1496 0.960 . S
C1484 H1476 0.929 . S
C1484 C1485 1.377 . S
C1484 C1486 1.384 . S
C1485 C1484 1.377 . S
C1485 C1491 1.390 . S
C1486 H1477 0.930 . S
C1486 C1484 1.384 . S
C1486 C1487 1.372 . S
C1487 C1486 1.372 . S
C1487 C1488 1.400 . S
C1487 C1492 1.490 . S
C1488 H1478 0.930 . S
C1488 C1487 1.400 . S
C1488 C1491 1.386 . S
H1489 C1505 0.930 . S
H1490 C1506 0.931 . S
C1491 H1479 0.929 . S
C1491 C1485 1.390 . S
C1491 C1488 1.386 . S
C1492 C1487 1.490 . S
C1492 C1494 1.395 . S
C1492 C1495 1.403 . S
H1493 C1499 0.930 . S
C1494 H1480 0.930 . S
C1494 C1492 1.395 . S
C1494 C1497 1.403 . S
C1495 C1492 1.403 . S
C1495 C1496 1.524 . S
C1495 C1499 1.400 . S
C1496 H1481 0.960 . S
C1496 H1482 0.960 . S
C1496 H1483 0.960 . S
C1496 C1495 1.524 . S
C1497 C1494 1.403 . S
C1497 C1498 1.392 . S
C1497 C1501 1.495 . S
C1498 C1497 1.392 . S
C1498 C1499 1.385 . S
C1498 C1500 1.478 . S
C1499 H1493 0.930 . S
C1499 C1495 1.400 . S
C1499 C1498 1.385 . S
C1500 C1498 1.478 . S
C1500 C1502 1.381 . S
C1500 C1506 1.383 . S
C1501 C1497 1.495 . S
C1501 H1507 0.959 . S
C1501 H1508 0.961 . S
C1501 H1509 0.960 . S
C1502 C1500 1.381 . S
C1502 C1503 1.394 . S
C1502 H1510 0.930 . S
C1503 C1502 1.394 . S
C1503 C1504 1.383 . S
C1503 H1511 0.929 . S
C1504 C1503 1.383 . S
C1504 C1505 1.377 . S
C1505 H1489 0.930 . S
C1505 C1504 1.377 . S
C1505 C1506 1.379 . S
C1506 H1490 0.931 . S
C1506 C1500 1.383 . S
C1506 C1505 1.379 . S
H1507 C1501 0.959 . S
H1508 C1501 0.961 . S
H1509 C1501 0.960 . S
H1510 C1502 0.930 . S
H1511 C1503 0.929 . S
H1512 C1520 0.929 . S
H1513 C1522 0.930 . S
H1514 C1524 0.930 . S
H1515 C1527 0.929 . S
H1516 C1530 0.930 . S
H1517 C1532 0.960 . S
H1518 C1532 0.960 . S
H1519 C1532 0.960 . S
C1520 H1512 0.929 . S
C1520 C1521 1.377 . S
C1520 C1522 1.384 . S
C1521 C1520 1.377 . S
C1521 C1527 1.390 . S
C1522 H1513 0.930 . S
C1522 C1520 1.384 . S
C1522 C1523 1.372 . S
C1523 C1522 1.372 . S
C1523 C1524 1.400 . S
C1523 C1528 1.490 . S
C1524 H1514 0.930 . S
C1524 C1523 1.400 . S
C1524 C1527 1.386 . S
H1525 C1541 0.930 . S
H1526 C1542 0.931 . S
C1527 H1515 0.929 . S
C1527 C1521 1.390 . S
C1527 C1524 1.386 . S
C1528 C1523 1.490 . S
C1528 C1530 1.395 . S
C1528 C1531 1.403 . S
H1529 C1535 0.930 . S
C1530 H1516 0.930 . S
C1530 C1528 1.395 . S
C1530 C1533 1.403 . S
C1531 C1528 1.403 . S
C1531 C1532 1.524 . S
C1531 C1535 1.400 . S
C1532 H1517 0.960 . S
C1532 H1518 0.960 . S
C1532 H1519 0.960 . S
C1532 C1531 1.524 . S
C1533 C1530 1.403 . S
C1533 C1534 1.392 . S
C1533 C1537 1.495 . S
C1534 C1533 1.392 . S
C1534 C1535 1.385 . S
C1534 C1536 1.478 . S
C1535 H1529 0.930 . S
C1535 C1531 1.400 . S
C1535 C1534 1.385 . S
C1536 C1534 1.478 . S
C1536 C1538 1.381 . S
C1536 C1542 1.383 . S
C1537 C1533 1.495 . S
C1537 H1543 0.959 . S
C1537 H1544 0.961 . S
C1537 H1545 0.960 . S
C1538 C1536 1.381 . S
C1538 C1539 1.394 . S
C1538 H1546 0.930 . S
C1539 C1538 1.394 . S
C1539 C1540 1.383 . S
C1539 H1547 0.929 . S
C1540 C1539 1.383 . S
C1540 C1541 1.377 . S
C1541 H1525 0.930 . S
C1541 C1540 1.377 . S
C1541 C1542 1.379 . S
C1542 H1526 0.931 . S
C1542 C1536 1.383 . S
C1542 C1541 1.379 . S
H1543 C1537 0.959 . S
H1544 C1537 0.961 . S
H1545 C1537 0.960 . S
H1546 C1538 0.930 . S
H1547 C1539 0.929 . S
C261 C241 1.959 . S
C280 C3 1.955 . S
C297 C213 1.959 . S
C316 C17 1.954 . S
C333 C227 1.959 . S
C352 C31 1.953 . S
C369 C101 1.959 . S
C388 C45 1.955 . S
C405 C115 1.959 . S
C424 C59 1.954 . S
C441 C73 1.958 . S
C460 C87 1.956 . S
C477 C129 1.958 . S
C496 C185 1.955 . S
C513 C143 1.959 . S
C532 C199 1.952 . S
C549 C157 1.959 . S
C568 C171 1.952 . S
C585 C7 0.257 . S
C604 C245 0.332 . S
C621 C217 0.251 . S
C640 C21 0.341 . S
C657 C35 0.248 . S
C676 C231 0.342 . S
C693 C105 0.237 . S
C712 C49 0.141 . S
C729 C63 0.250 . S
C748 C119 0.341 . S
C765 C77 0.222 . S
C784 C91 0.197 . S
C801 C133 0.229 . S
C820 C189 0.308 . S
C837 C203 0.263 . S
C856 C147 0.288 . S
C873 C175 0.223 . S
C892 C161 0.192 . S
C909 C9 1.771 . S
C928 C51 1.761 . S
C945 C65 1.774 . S
C964 C23 1.774 . S
C981 C79 1.773 . S
C1000 C37 1.776 . S
C1017 C78 1.767 . S
C1036 C22 1.762 . S
C1053 C36 1.770 . S
C1072 C50 1.772 . S
C1089 C64 1.767 . S
C1108 C8 1.756 . S
C1125 C93 1.772 . S
C1144 C135 1.761 . S
C1161 C149 1.773 . S
C1180 C107 1.776 . S
C1197 C163 1.770 . S
C1216 C121 1.762 . S
C1233 C162 1.770 . S
C1252 C106 1.769 . S
C1269 C120 1.769 . S
C1288 C134 1.764 . S
C1305 C148 1.770 . S
C1324 C92 1.771 . S
C1341 C219 1.773 . S
C1360 C177 1.775 . S
C1377 C233 1.770 . S
C1396 C191 1.760 . S
C1413 C205 1.770 . S
C1432 C247 1.761 . S
C1449 C246 1.769 . S
C1468 C190 1.760 . S
C1485 C204 1.767 . S
C1504 C218 1.756 . S
C1521 C232 1.768 . S
C1540 C176 1.757 . S
