# Generated by pormake.
# Topology afw, (4)-cn, num edge types: 1
# Building blocks:
#     Node 0, Type 0, BuildingBlock: QUQFOY_clean_sbu_3, # of connection points: 4
#     Node 1, Type 0, BuildingBlock: QUQFOY_clean_sbu_3, # of connection points: 4
#     Node 2, Type 0, BuildingBlock: QUQFOY_clean_sbu_3, # of connection points: 4
#     Node 3, Type 0, BuildingBlock: QUQFOY_clean_sbu_3, # of connection points: 4
#     Node 4, Type 0, BuildingBlock: QUQFOY_clean_sbu_3, # of connection points: 4
#     Node 5, Type 0, BuildingBlock: QUQFOY_clean_sbu_3, # of connection points: 4
#     Node 6, Type 0, BuildingBlock: QUQFOY_clean_sbu_3, # of connection points: 4
#     Node 7, Type 0, BuildingBlock: QUQFOY_clean_sbu_3, # of connection points: 4
#     Node 8, Type 0, BuildingBlock: QUQFOY_clean_sbu_3, # of connection points: 4
#     Edge 9, Type (0, 0), BuildingBlock: EZIPEK_clean_linker_0, # of connection points: 2
#     Edge 10, Type (0, 0), BuildingBlock: EZIPEK_clean_linker_0, # of connection points: 2
#     Edge 11, Type (0, 0), BuildingBlock: EZIPEK_clean_linker_0, # of connection points: 2
#     Edge 12, Type (0, 0), BuildingBlock: EZIPEK_clean_linker_0, # of connection points: 2
#     Edge 13, Type (0, 0), BuildingBlock: EZIPEK_clean_linker_0, # of connection points: 2
#     Edge 14, Type (0, 0), BuildingBlock: EZIPEK_clean_linker_0, # of connection points: 2
#     Edge 15, Type (0, 0), BuildingBlock: EZIPEK_clean_linker_0, # of connection points: 2
#     Edge 16, Type (0, 0), BuildingBlock: EZIPEK_clean_linker_0, # of connection points: 2
#     Edge 17, Type (0, 0), BuildingBlock: EZIPEK_clean_linker_0, # of connection points: 2
#     Edge 18, Type (0, 0), BuildingBlock: EZIPEK_clean_linker_0, # of connection points: 2
#     Edge 19, Type (0, 0), BuildingBlock: EZIPEK_clean_linker_0, # of connection points: 2
#     Edge 20, Type (0, 0), BuildingBlock: EZIPEK_clean_linker_0, # of connection points: 2
#     Edge 21, Type (0, 0), BuildingBlock: EZIPEK_clean_linker_0, # of connection points: 2
#     Edge 22, Type (0, 0), BuildingBlock: EZIPEK_clean_linker_0, # of connection points: 2
#     Edge 23, Type (0, 0), BuildingBlock: EZIPEK_clean_linker_0, # of connection points: 2
#     Edge 24, Type (0, 0), BuildingBlock: EZIPEK_clean_linker_0, # of connection points: 2
#     Edge 25, Type (0, 0), BuildingBlock: EZIPEK_clean_linker_0, # of connection points: 2
#     Edge 26, Type (0, 0), BuildingBlock: EZIPEK_clean_linker_0, # of connection points: 2
# Relax obj value: 0.195
# Max RMSD: 0.208
# Mean RMSD: 0.200
data_MOF--net-afw--node1-QUQFOY_clean_sbu_3--edge1-EZIPEK_clean_linker_0
_symmetry_space_group_name_H-M    P1
_symmetry_Int_Tables_number       1
_symmetry_cell_setting            triclinic
loop_
_symmetry_equiv_pos_as_xyz
'x, y, z'
_cell_length_a     32.463315
_cell_length_b     32.679587
_cell_length_c     25.083257
_cell_angle_alpha  91.501369
_cell_angle_beta   91.089309
_cell_angle_gamma 119.76192
loop_
_atom_site_label
_atom_site_type_symbol
_atom_site_fract_x
_atom_site_fract_y
_atom_site_fract_z
_atom_type_partial_charge
C0 C 0.09747 0.17993 0.10738 0.0
O1 O 0.08762 0.1933 0.15088 0.0
Cd2 Cd 0.02186 0.20799 0.15273 0.0
O3 O 0.08106 0.18475 0.06292 0.0
Cd4 Cd 0.03342 0.21772 0.025 0.0
C5 C 0.9463 0.11467 0.06694 0.0
O6 O 0.03777 0.27088 0.09597 0.0
O7 O -0.02008 0.24883 0.03771 0.0
O8 O 0.09618 0.27081 0.96899 0.0
C9 C 0.00162 0.27293 0.07979 0.0
O10 O 0.95678 0.13302 0.11424 0.0
C11 C 0.07222 0.25513 0.92524 0.0
O12 O 0.96896 0.13748 0.02707 0.0
O13 O 0.02965 0.22192 0.92879 0.0
C14 C 0.91292 0.83257 -0.02422 0.0
O15 O 0.91915 0.85325 0.93205 0.0
Cd16 Cd 0.86052 0.86609 0.88858 0.0
O17 O 0.87293 0.81406 -0.00234 0.0
Cd18 Cd 0.79356 0.80477 -0.01806 0.0
C19 C 0.84318 0.92301 -0.00427 0.0
O20 O 0.78807 0.79247 0.88587 0.0
O21 O 0.73383 0.8033 0.92177 0.0
O22 O 0.75982 0.72426 0.00921 0.0
C23 C 0.7497 0.79347 0.88049 0.0
O24 O 0.85959 0.92483 0.94962 0.0
C25 C 0.73775 0.7292 0.04782 0.0
O26 O 0.81819 0.88385 0.01748 0.0
O27 O 0.74056 0.76913 0.0551 0.0
C28 C 0.09717 0.89619 0.04694 0.0
O29 O 0.1209 0.90345 0.09045 0.0
Cd30 Cd 0.19928 0.97057 0.10516 0.0
O31 O 0.1155 0.92225 0.00746 0.0
Cd32 Cd 0.18692 -0.01235 0.97157 0.0
C33 C 0.17269 0.05692 0.06474 0.0
O34 O 0.23581 0.97037 0.02504 0.0
O35 O 0.27465 0.03061 -0.02278 0.0
O36 O 0.16316 0.93452 0.89538 0.0
C37 C 0.27523 0.00532 0.01436 0.0
O38 O 0.18323 0.03649 0.10087 0.0
C39 C 0.17264 0.96526 0.86062 0.0
O40 O 0.17048 0.04549 0.01528 0.0
O41 O 0.18832 0.00747 0.87813 0.0
C42 C 0.54734 0.40794 0.25722 0.0
O43 O 0.56245 0.41446 0.21018 0.0
Cd44 Cd 0.62437 0.48786 0.18041 0.0
O45 O 0.56061 0.44244 0.2909 0.0
Cd46 Cd 0.61368 0.52948 0.29168 0.0
C47 C 0.70416 0.5074 0.28448 0.0
O48 O 0.60836 0.5502 0.19979 0.0
O49 O 0.66982 0.59947 0.24858 0.0
O50 O 0.55579 0.54816 0.32903 0.0
C51 C 0.64569 0.59029 0.20521 0.0
O52 O 0.69161 0.49734 0.2353 0.0
C53 C 0.58235 0.57158 0.36913 0.0
O54 O 0.68127 0.51922 0.31611 0.0
O55 O 0.62235 0.57366 0.37418 0.0
C56 C 0.5772 0.15642 0.26962 0.0
O57 O 0.57147 0.16189 0.22065 0.0
Cd58 Cd 0.49911 0.14649 0.17766 0.0
O59 O 0.5422 0.13751 0.30027 0.0
Cd60 Cd 0.45489 0.10356 0.29318 0.0
C61 C 0.47668 0.21404 0.26885 0.0
O62 O 0.44242 0.07005 0.20317 0.0
O63 O 0.38352 0.07328 0.23684 0.0
O64 O 0.44537 0.03948 0.34878 0.0
C65 C 0.39987 0.06099 0.198 0.0
O66 O 0.48834 0.20758 0.2225 0.0
C67 C 0.41549 0.04212 0.37858 0.0
O68 O 0.46369 0.18244 0.30339 0.0
O69 O 0.40544 0.0743 0.36966 0.0
C70 C 0.82833 0.43682 0.28517 0.0
O71 O 0.82298 0.42278 0.23657 0.0
Cd72 Cd 0.83899 0.36344 0.20219 0.0
O73 O 0.84761 0.42291 0.31952 0.0
Cd74 Cd 0.88086 0.36886 0.31778 0.0
C75 C 0.77107 0.27943 0.2905 0.0
O76 O 0.91693 0.38137 0.23061 0.0
O77 O 0.90215 0.31766 0.27005 0.0
O78 O 0.95104 0.41914 0.37371 0.0
C79 C 0.92139 0.34501 0.2322 0.0
O80 O 0.77711 0.2933 0.24284 0.0
C81 C 0.94109 0.38835 0.40855 0.0
O82 O 0.80296 0.30132 0.32686 0.0
O83 O 0.90232 0.34971 0.40217 0.0
C84 C 0.37161 0.84892 0.71525 0.0
O85 O 0.35684 0.85303 0.76053 0.0
Cd86 Cd 0.28537 0.85864 0.77049 0.0
O87 O 0.35206 0.85225 0.67253 0.0
Cd88 Cd 0.28745 0.86434 0.64143 0.0
C89 C 0.22296 0.75666 0.69602 0.0
O90 O 0.27995 0.9118 0.711 0.0
O91 O 0.22014 0.87525 0.65402 0.0
O92 O 0.34817 0.9274 0.59473 0.0
C93 C 0.23882 0.9029 0.69472 0.0
O94 O 0.22826 0.77826 0.74084 0.0
C95 C 0.32688 0.91492 0.54923 0.0
O96 O 0.24168 0.77879 0.65393 0.0
O97 O 0.28692 0.87682 0.54557 0.0
C98 C 0.25069 0.49593 0.64413 0.0
O99 O 0.24574 0.5043 0.59593 0.0
Cd100 Cd 0.17047 0.49334 0.56131 0.0
O101 O 0.21494 0.47778 0.67318 0.0
Cd102 Cd 0.12988 0.44608 0.67693 0.0
C103 C 0.15796 0.5598 0.66252 0.0
O104 O 0.10601 0.41936 0.58574 0.0
O105 O 0.05376 0.42369 0.63463 0.0
O106 O 0.12663 0.37606 0.70952 0.0
C107 C 0.06496 0.4148 0.58932 0.0
O108 O 0.16581 0.55445 0.61398 0.0
C109 C 0.10995 0.37811 0.75419 0.0
O110 O 0.14639 0.5271 0.6956 0.0
O111 O 0.10126 0.41157 0.76317 0.0
C112 C 0.44418 0.61897 0.70424 0.0
O113 O 0.46386 0.62972 0.75068 0.0
Cd114 Cd 0.53493 0.70407 0.76951 0.0
O115 O 0.46509 0.64328 0.66451 0.0
Cd116 Cd 0.54008 0.70909 0.63636 0.0
C117 C 0.49686 0.77123 0.70094 0.0
O118 O 0.58845 0.70648 0.70554 0.0
O119 O 0.62276 0.76954 0.66003 0.0
O120 O 0.54068 0.64948 0.58018 0.0
C121 C 0.62492 0.74585 0.69824 0.0
O122 O 0.50649 0.75809 0.74458 0.0
C123 C 0.54632 0.67063 0.53697 0.0
O124 O 0.50425 0.7578 0.65565 0.0
O125 O 0.54815 0.71053 0.53914 0.0
C126 C 0.18299 0.13842 0.06498 0.0
C127 C 0.15768 0.09118 0.08125 0.0
C128 C 0.10387 0.10906 0.13082 0.0
C129 C 0.12405 0.15379 0.1073 0.0
N130 N 0.18344 0.2121 0.05279 0.0
N131 N 0.08919 0.02906 0.12231 0.0
C132 C 0.16403 0.16885 0.07478 0.0
C133 C 0.11717 0.07594 0.11276 0.0
N134 N 0.22562 0.15439 0.04137 0.0
N135 N 0.07168 0.09761 0.17001 0.0
H136 H 0.09644 0.003 0.10852 0.0
H137 H 0.05606 0.01522 0.13922 0.0
H138 H 0.05942 0.11962 0.18423 0.0
H139 H 0.06031 0.06762 0.19227 0.0
H140 H 0.24817 0.18959 0.03322 0.0
H141 H 0.24039 0.13294 0.03375 0.0
H142 H 0.20847 0.2229 0.0233 0.0
H143 H 0.17308 0.23678 0.06288 0.0
C144 C 0.89114 0.98163 0.06897 0.0
C145 C 0.85783 0.9681 0.02549 0.0
C146 C 0.87213 0.04907 0.02306 0.0
C147 C 0.91187 0.06385 0.05861 0.0
N148 N 0.96303 0.04469 0.11083 0.0
N149 N 0.81383 -0.01268 0.96248 0.0
C150 C 0.92194 0.03025 0.08127 0.0
C151 C 0.84709 0.00134 0.00332 0.0
N152 N 0.89424 0.94832 0.09784 0.0
N153 N 0.85836 0.08067 0.00868 0.0
H154 H 0.79277 0.95199 0.94983 0.0
H155 H 0.8082 0.01058 0.94007 0.0
H156 H 0.87598 0.1157 0.0232 0.0
H157 H 0.82741 0.07144 -0.01365 0.0
H158 H 0.91496 0.95641 0.13293 0.0
H159 H 0.87232 0.91225 0.09047 0.0
H160 H 0.97503 0.02188 0.1223 0.0
H161 H -0.01233 0.07995 0.1198 0.0
C162 C 0.97015 0.85628 0.05486 0.0
C163 C 0.95417 0.83375 0.00336 0.0
C164 C 0.02881 0.83368 -0.00727 0.0
C165 C 0.04611 0.86025 0.04165 0.0
N166 N 0.0263 0.87583 0.12917 0.0
N167 N 0.96115 0.78729 0.93178 0.0
C168 C 0.01427 0.86407 0.07632 0.0
C169 C -0.01883 0.81762 -0.02482 0.0
N170 N 0.94564 0.87394 0.08148 0.0
N171 N 0.05892 0.82592 0.96232 0.0
H172 H 0.92593 0.77459 0.91899 0.0
H173 H -0.02228 0.77157 0.9115 0.0
H174 H 0.09292 0.83477 -0.02351 0.0
H175 H 0.05089 0.81208 0.92324 0.0
H176 H 0.95918 0.89589 0.11572 0.0
H177 H 0.91354 0.87014 0.06744 0.0
H178 H 0.00273 0.87575 0.15685 0.0
H179 H 0.05728 0.87928 0.14662 0.0
C180 C 0.7644 0.44323 0.33286 0.0
C181 C 0.80579 0.46455 0.30214 0.0
C182 C 0.78825 0.52635 0.27731 0.0
C183 C 0.74485 0.50252 0.30391 0.0
N184 N 0.70116 0.45053 0.37361 0.0
N185 N 0.86447 0.5327 0.25874 0.0
C186 C 0.7364 0.46534 0.33774 0.0
C187 C 0.82028 0.50854 0.27911 0.0
N188 N 0.74946 0.39995 0.3535 0.0
N189 N 0.79759 0.5649 0.2488 0.0
H190 H 0.88841 0.52014 0.26039 0.0
H191 H 0.87886 0.56651 0.2444 0.0
H192 H 0.77607 0.58028 0.25028 0.0
H193 H 0.82564 0.58098 0.2232 0.0
H194 H 0.71624 0.37987 0.36962 0.0
H195 H 0.76872 0.38231 0.3514 0.0
H196 H 0.69604 0.4262 0.40241 0.0
H197 H 0.68043 0.46637 0.37872 0.0
C198 C 0.51891 0.29219 0.31839 0.0
C199 C 0.48185 0.26088 0.28222 0.0
C200 C 0.47611 0.32741 0.24748 0.0
C201 C 0.51985 0.35876 0.27443 0.0
N202 N 0.58466 0.37125 0.33458 0.0
N203 N 0.42041 0.2467 0.21719 0.0
C204 C 0.54115 0.34143 0.31081 0.0
C205 C 0.45846 0.27796 0.24882 0.0
N206 N 0.53361 0.275 0.35914 0.0
N207 N 0.4519 0.34524 0.22059 0.0
H208 H 0.40496 0.21027 0.22058 0.0
H209 H 0.4049 0.25652 0.18715 0.0
H210 H 0.46425 0.38142 0.2198 0.0
H211 H 0.41813 0.32456 0.20305 0.0
H212 H 0.55764 0.29642 0.38948 0.0
H213 H 0.51796 0.23921 0.36622 0.0
H214 H 0.6047 0.3596 0.3554 0.0
H215 H 0.60271 0.40759 0.33035 0.0
C216 C 0.64433 0.21876 0.32658 0.0
C217 C 0.6263 0.17816 0.29169 0.0
C218 C 0.70694 0.19631 0.272 0.0
C219 C 0.72463 0.23888 0.30312 0.0
N220 N 0.71224 0.28075 0.37629 0.0
N221 N 0.63881 0.12049 0.24464 0.0
C222 C 0.69406 0.24652 0.33635 0.0
C223 C 0.65728 0.16419 0.26913 0.0
N224 N 0.61464 0.23335 0.34662 0.0
N225 N 0.73771 0.18777 0.24385 0.0
H226 H 0.60238 0.0965 0.24287 0.0
H227 H 0.65932 0.10653 0.23033 0.0
H228 H 0.77449 0.20939 0.24837 0.0
H229 H 0.72707 0.16029 0.21544 0.0
H230 H 0.62668 0.26623 0.3657 0.0
H231 H 0.57788 0.21425 0.34117 0.0
H232 H 0.69133 0.28488 0.40453 0.0
H233 H 0.74841 0.30155 0.38527 0.0
C234 C 0.38715 0.7834 0.69022 0.0
C235 C 0.40481 0.83028 0.71122 0.0
C236 C 0.48485 0.8404 0.72067 0.0
C237 C 0.46621 0.79266 0.70308 0.0
N238 N 0.39835 0.71575 0.68221 0.0
N239 N 0.46888 0.90235 0.751 0.0
C240 C 0.41707 0.7634 0.69068 0.0
C241 C 0.45327 0.85849 0.72801 0.0
N242 N 0.34171 0.7577 0.66944 0.0
N243 N 0.53281 0.86853 0.72898 0.0
H244 H 0.44715 0.91732 0.75464 0.0
H245 H 0.50243 0.92295 0.76909 0.0
H246 H 0.55652 0.85596 0.7243 0.0
H247 H 0.54953 0.90477 0.73696 0.0
H248 H 0.32932 0.7263 0.64693 0.0
H249 H 0.31675 0.76872 0.6717 0.0
H250 H 0.36203 0.69177 0.68038 0.0
H251 H 0.41877 0.69922 0.68184 0.0
C252 C 0.22662 0.68482 0.72091 0.0
C253 C 0.20169 0.70477 0.69496 0.0
C254 C 0.14031 0.62593 0.66257 0.0
C255 C 0.16898 0.60745 0.68129 0.0
N256 N 0.24162 0.61938 0.72394 0.0
N257 N 0.13525 0.69532 0.64074 0.0
C258 C 0.21233 0.63668 0.71013 0.0
C259 C 0.15848 0.67554 0.6658 0.0
N260 N 0.26443 0.7118 0.75528 0.0
N261 N 0.09537 0.59571 0.64281 0.0
H262 H 0.14623 0.73118 0.64486 0.0
H263 H 0.10655 0.67678 0.61387 0.0
H264 H 0.08094 0.55919 0.64205 0.0
H265 H 0.07095 0.6062 0.63217 0.0
H266 H 0.27973 0.69764 0.78026 0.0
H267 H 0.27908 0.74804 0.76169 0.0
H268 H 0.2766 0.64058 0.73799 0.0
H269 H 0.23237 0.58412 0.71782 0.0
C270 C 0.31164 0.53944 0.71839 0.0
C271 C 0.2993 0.51394 0.66842 0.0
C272 C 0.3841 0.54536 0.6536 0.0
C273 C 0.39502 0.57944 0.69581 0.0
N274 N 0.36681 0.61336 0.76303 0.0
N275 N 0.32395 0.48666 0.59188 0.0
C276 C 0.35831 0.57751 0.72723 0.0
C277 C 0.33574 0.51491 0.63713 0.0
N278 N 0.27982 0.52722 0.75803 0.0
N279 N 0.41984 0.5416 0.6302 0.0
H280 H 0.28914 0.46019 0.58249 0.0
H281 H 0.34828 0.48995 0.56347 0.0
H282 H 0.4554 0.56244 0.64268 0.0
H283 H 0.41414 0.51522 0.60197 0.0
H284 H 0.289 0.54397 0.79583 0.0
H285 H 0.24741 0.496 0.75689 0.0
H286 H 0.33961 0.61534 0.78225 0.0
H287 H 0.39984 0.64361 0.76928 0.0
C288 C 0.06001 0.26389 0.82746 0.0
C289 C 0.08997 0.27966 0.87413 0.0
C290 C 0.13823 0.35711 0.83675 0.0
C291 C 0.10345 0.3439 0.79485 0.0
N292 N 0.03134 0.28514 0.74884 0.0
N293 N 0.17045 0.33035 0.90685 0.0
C294 C 0.0647 0.29713 0.78926 0.0
C295 C 0.13312 0.32321 0.87419 0.0
N296 N 0.02977 0.21673 0.81798 0.0
N297 N 0.17557 0.40227 0.84137 0.0
H298 H 0.16975 0.30338 0.92885 0.0
H299 H 0.20408 0.36006 0.90625 0.0
H300 H 0.18161 0.42763 0.81351 0.0
H301 H 0.19884 0.41551 0.87458 0.0
H302 H 0.00932 0.20236 0.78287 0.0
H303 H 0.03021 0.19147 0.84222 0.0
H304 H -0.00054 0.25327 0.74623 0.0
H305 H 0.03392 0.30849 0.71978 0.0
C306 C 0.71276 0.81915 0.81068 0.0
C307 C 0.72531 0.7857 0.82796 0.0
C308 C 0.68577 0.73607 0.74806 0.0
C309 C 0.66531 0.76454 0.73702 0.0
N310 N 0.6554 0.83127 0.76127 0.0
N311 N 0.7198 0.70938 0.81576 0.0
C312 C 0.6782 0.80606 0.76866 0.0
C313 C 0.71148 0.74362 0.797 0.0
N314 N 0.73438 0.86359 0.83387 0.0
N315 N 0.6805 0.70179 0.71165 0.0
H316 H 0.7372 0.71249 0.85224 0.0
H317 H 0.70563 0.67595 0.79732 0.0
H318 H 0.66224 0.69591 0.67501 0.0
H319 H 0.6983 0.68278 0.71535 0.0
H320 H 0.72966 0.89067 0.8195 0.0
H321 H 0.76097 0.87477 0.86379 0.0
H322 H 0.65975 0.85849 0.78753 0.0
H323 H 0.62921 0.82278 0.73161 0.0
C324 C 0.17035 0.88674 0.75191 0.0
C325 C 0.21163 0.91968 0.7258 0.0
C326 C 0.20734 0.98525 0.76975 0.0
C327 C 0.17309 0.9524 0.80339 0.0
N328 N 0.10574 0.87504 0.80853 0.0
N329 N 0.26634 -0.00019 0.7036 0.0
C330 C 0.14898 0.904 0.78805 0.0
C331 C 0.22878 0.96893 0.73219 0.0
N332 N 0.15412 0.83937 0.74605 0.0
N333 N 0.21743 0.03109 0.77224 0.0
H334 H 0.28082 -0.01129 0.67355 0.0
H335 H 0.28418 0.03621 0.7106 0.0
H336 H 0.19781 0.04196 0.79505 0.0
H337 H 0.24048 0.05674 0.74713 0.0
H338 H 0.12767 0.81434 0.769 0.0
H339 H 0.16913 0.8249 0.72088 0.0
H340 H 0.08414 0.83982 0.79618 0.0
H341 H 0.08952 0.88823 0.8339 0.0
C342 C 0.36211 0.00684 0.11727 0.0
C343 C 0.3756 0.05018 0.14515 0.0
C344 C 0.32713 0.06667 0.08378 0.0
C345 C 0.3144 0.02394 0.05464 0.0
N346 N 0.32738 0.95861 0.03598 0.0
N347 N 0.38444 0.12794 0.14436 0.0
C348 C 0.33454 -0.00426 0.06888 0.0
C349 C 0.36255 0.08229 0.12482 0.0
N350 N 0.37353 0.97544 0.1383 0.0
N351 N 0.30313 0.09064 0.07548 0.0
H352 H 0.41155 0.14091 0.17372 0.0
H353 H 0.3794 0.15395 0.1273 0.0
H354 H 0.27523 0.07991 0.04756 0.0
H355 H 0.30776 0.11883 0.10026 0.0
H356 H 0.3601 0.94108 0.12292 0.0
H357 H 0.39414 0.9827 0.17339 0.0
H358 H 0.34456 0.93925 0.04164 0.0
H359 H 0.3074 0.94988 0.00017 0.0
C360 C 0.9328 0.26443 0.13156 0.0
C361 C -0.02016 0.29338 0.11472 0.0
C362 C -0.01155 0.35843 0.17345 0.0
C363 C 0.94048 0.33023 0.18748 0.0
N364 N 0.86336 0.26225 0.16784 0.0
N365 N 0.04899 0.37064 0.1106 0.0
C366 C 0.91147 0.28507 0.16259 0.0
C367 C 0.00666 0.34132 0.13288 0.0
N368 N 0.90945 0.21672 0.12113 0.0
N369 N 0.01723 0.40037 0.20054 0.0
H370 H 0.06317 0.3593 0.08047 0.0
H371 H 0.06781 0.40697 0.11845 0.0
H372 H 0.0052 0.41421 0.2304 0.0
H373 H 0.0538 0.41973 0.19621 0.0
H374 H 0.87707 0.19378 0.1375 0.0
H375 H 0.92439 0.19922 0.10108 0.0
H376 H 0.84014 0.23112 0.14643 0.0
H377 H 0.84629 0.27712 0.18894 0.0
C378 C 0.71153 0.63192 0.14334 0.0
C379 C 0.66584 0.6211 0.1598 0.0
C380 C 0.66383 0.67482 0.09496 0.0
C381 C 0.71227 0.69085 0.08484 0.0
N382 N 0.78495 0.69039 0.10697 0.0
N383 N 0.59946 0.63492 0.15532 0.0
C384 C 0.73687 0.67078 0.11077 0.0
C385 C 0.64196 0.64297 0.13644 0.0
N386 N 0.73025 0.60432 0.15782 0.0
N387 N 0.63841 0.68889 0.06396 0.0
H388 H 0.58211 0.61142 0.18526 0.0
H389 H 0.5831 0.65403 0.14406 0.0
H390 H 0.65306 0.71149 0.03255 0.0
H391 H 0.60184 0.67474 0.06606 0.0
H392 H 0.76152 0.60793 0.14272 0.0
H393 H 0.71187 0.5745 0.18027 0.0
H394 H 0.80508 0.68001 0.12978 0.0
H395 H 0.80564 0.72024 0.08538 0.0
C396 C 0.01784 0.36775 0.50776 0.0
C397 C 0.03537 0.40893 0.5413 0.0
C398 C -0.01092 0.43548 0.48941 0.0
C399 C 0.97424 0.39608 0.4536 0.0
N400 N -0.01688 0.33063 0.42132 0.0
N401 N 0.04784 0.48769 0.55586 0.0
C402 C -0.00895 0.3638 0.46062 0.0
C403 C 0.02394 0.44451 0.52979 0.0
N404 N 0.02532 0.33175 0.5218 0.0
N405 N 0.96857 0.46319 0.48635 0.0
H406 H 0.07497 0.49624 0.58431 0.0
H407 H 0.04435 0.51645 0.5452 0.0
H408 H 0.94216 0.45728 0.45788 0.0
H409 H 0.97453 0.48929 0.51516 0.0
H410 H 0.00883 0.29879 0.5019 0.0
H411 H 0.0449 0.3334 0.55605 0.0
H412 H -0.0013 0.30942 0.42201 0.0
H413 H 0.96485 0.32743 0.3854 0.0
C414 C 0.52744 0.57483 0.43634 0.0
C415 C 0.56906 0.59836 0.4066 0.0
C416 C 0.59343 0.67205 0.45799 0.0
C417 C 0.55125 0.64884 0.48693 0.0
N418 N 0.47251 0.58243 0.49434 0.0
N419 N 0.63387 0.6717 0.37806 0.0
C420 C 0.51638 0.60153 0.47295 0.0
C421 C 0.5996 0.64778 0.41392 0.0
N422 N 0.49993 0.5268 0.43191 0.0
N423 N 0.62899 0.716 0.4744 0.0
H424 H 0.63878 0.65523 0.34453 0.0
H425 H 0.65402 0.70838 0.37848 0.0
H426 H 0.62646 0.73519 0.50673 0.0
H427 H 0.66264 0.73193 0.45855 0.0
H428 H 0.47225 0.50735 0.45706 0.0
H429 H 0.50707 0.50583 0.40597 0.0
H430 H 0.44416 0.54956 0.48214 0.0
H431 H 0.46306 0.60153 0.52048 0.0
C432 C 0.36225 -0.00518 0.51163 0.0
C433 C 0.34695 0.9461 0.50385 0.0
C434 C 0.37119 0.95939 0.41123 0.0
C435 C 0.39278 0.0089 0.42175 0.0
N436 N 0.41782 0.07378 0.48641 0.0
N437 N 0.34447 0.88312 0.44873 0.0
C438 C 0.39084 0.02669 0.47322 0.0
C439 C 0.35341 0.92854 0.45429 0.0
N440 N 0.34799 0.01057 0.55463 0.0
N441 N 0.36557 0.94155 0.36004 0.0
H442 H 0.33234 0.8596 0.47958 0.0
H443 H 0.35341 0.87022 0.41509 0.0
H444 H 0.37613 0.96262 0.32696 0.0
H445 H 0.34587 0.90559 0.34998 0.0
H446 H 0.35467 0.04515 0.55925 0.0
H447 H 0.32485 -0.01193 0.58239 0.0
H448 H 0.42093 0.08763 0.52514 0.0
H449 H 0.44123 0.09826 0.46036 0.0
loop_
_geom_bond_atom_site_label_1
_geom_bond_atom_site_label_2
_geom_bond_distance
_geom_bond_site_symmetry_2
_ccdc_geom_bond_type
C0 O1 1.306 . S
C0 O3 1.160 1_554 S
O1 C0 1.306 . S
O1 Cd2 2.228 . S
Cd2 O1 2.228 . S
Cd2 O6 2.273 . S
Cd2 O10 2.277 1_455 S
O3 C0 1.160 1_556 S
O3 Cd4 2.203 1_556 S
Cd4 O3 2.203 1_554 S
Cd4 O6 2.411 . S
Cd4 O7 2.333 1_455 S
Cd4 O8 2.352 1_554 S
Cd4 O12 2.277 1_454 S
Cd4 O13 2.356 1_554 S
C5 O10 1.209 . S
C5 O12 1.226 1_554 S
O6 Cd2 2.273 . S
O6 Cd4 2.411 . S
O6 C9 1.320 1_455 S
O7 Cd4 2.333 1_655 S
O7 C9 1.214 . S
O8 Cd4 2.352 1_556 S
O8 C11 1.258 . S
C9 O6 1.320 1_655 S
C9 O7 1.214 . S
O10 Cd2 2.277 1_655 S
O10 C5 1.209 . S
C11 O8 1.258 . S
C11 O13 1.282 . S
O12 Cd4 2.277 1_656 S
O12 C5 1.226 1_556 S
O13 Cd4 2.356 1_556 S
O13 C11 1.282 . S
C14 O15 1.306 1_554 S
C14 O17 1.160 . S
O15 C14 1.306 1_556 S
O15 Cd16 2.228 . S
Cd16 O15 2.228 . S
Cd16 O20 2.273 . S
Cd16 O24 2.277 . S
O17 C14 1.160 . S
O17 Cd18 2.203 . S
Cd18 O17 2.203 . S
Cd18 O20 2.411 1_554 S
Cd18 O21 2.333 1_554 S
Cd18 O22 2.352 . S
Cd18 O26 2.277 . S
Cd18 O27 2.356 . S
C19 O24 1.209 1_554 S
C19 O26 1.226 . S
O20 Cd16 2.273 . S
O20 Cd18 2.411 1_556 S
O20 C23 1.320 . S
O21 Cd18 2.333 1_556 S
O21 C23 1.214 . S
O22 Cd18 2.352 . S
O22 C25 1.258 . S
C23 O20 1.320 . S
C23 O21 1.214 . S
O24 Cd16 2.277 . S
O24 C19 1.209 1_556 S
C25 O22 1.258 . S
C25 O27 1.282 . S
O26 Cd18 2.277 . S
O26 C19 1.226 . S
O27 Cd18 2.356 . S
O27 C25 1.282 . S
C28 O29 1.306 . S
C28 O31 1.160 1_554 S
O29 C28 1.306 . S
O29 Cd30 2.228 1_565 S
Cd30 O29 2.228 1_545 S
Cd30 O34 2.273 . S
Cd30 O38 2.277 . S
O31 C28 1.160 1_556 S
O31 Cd32 2.203 1_565 S
Cd32 O31 2.203 1_545 S
Cd32 O34 2.411 1_556 S
Cd32 O35 2.333 1_556 S
Cd32 O36 2.352 1_545 S
Cd32 O40 2.277 . S
Cd32 O41 2.356 . S
C33 O38 1.209 . S
C33 O40 1.226 1_554 S
O34 Cd30 2.273 . S
O34 Cd32 2.411 1_554 S
O34 C37 1.320 . S
O35 Cd32 2.333 1_554 S
O35 C37 1.214 . S
O36 Cd32 2.352 1_565 S
O36 C39 1.258 . S
C37 O34 1.320 . S
C37 O35 1.214 . S
O38 Cd30 2.277 . S
O38 C33 1.209 . S
C39 O36 1.258 . S
C39 O41 1.282 1_565 S
O40 Cd32 2.277 . S
O40 C33 1.226 1_556 S
O41 Cd32 2.356 . S
O41 C39 1.282 1_545 S
C42 O43 1.306 . S
C42 O45 1.160 . S
O43 C42 1.306 . S
O43 Cd44 2.228 . S
Cd44 O43 2.228 . S
Cd44 O48 2.273 . S
Cd44 O52 2.277 . S
O45 C42 1.160 . S
O45 Cd46 2.203 . S
Cd46 O45 2.203 . S
Cd46 O48 2.411 . S
Cd46 O49 2.333 . S
Cd46 O50 2.352 . S
Cd46 O54 2.277 . S
Cd46 O55 2.356 . S
C47 O52 1.209 . S
C47 O54 1.226 . S
O48 Cd44 2.273 . S
O48 Cd46 2.411 . S
O48 C51 1.320 . S
O49 Cd46 2.333 . S
O49 C51 1.214 . S
O50 Cd46 2.352 . S
O50 C53 1.258 . S
C51 O48 1.320 . S
C51 O49 1.214 . S
O52 Cd44 2.277 . S
O52 C47 1.209 . S
C53 O50 1.258 . S
C53 O55 1.282 . S
O54 Cd46 2.277 . S
O54 C47 1.226 . S
O55 Cd46 2.356 . S
O55 C53 1.282 . S
C56 O57 1.306 . S
C56 O59 1.160 . S
O57 C56 1.306 . S
O57 Cd58 2.228 . S
Cd58 O57 2.228 . S
Cd58 O62 2.273 . S
Cd58 O66 2.277 . S
O59 C56 1.160 . S
O59 Cd60 2.203 . S
Cd60 O59 2.203 . S
Cd60 O62 2.411 . S
Cd60 O63 2.333 . S
Cd60 O64 2.352 . S
Cd60 O68 2.277 . S
Cd60 O69 2.356 . S
C61 O66 1.209 . S
C61 O68 1.226 . S
O62 Cd58 2.273 . S
O62 Cd60 2.411 . S
O62 C65 1.320 . S
O63 Cd60 2.333 . S
O63 C65 1.214 . S
O64 Cd60 2.352 . S
O64 C67 1.258 . S
C65 O62 1.320 . S
C65 O63 1.214 . S
O66 Cd58 2.277 . S
O66 C61 1.209 . S
C67 O64 1.258 . S
C67 O69 1.282 . S
O68 Cd60 2.277 . S
O68 C61 1.226 . S
O69 Cd60 2.356 . S
O69 C67 1.282 . S
C70 O71 1.306 . S
C70 O73 1.160 . S
O71 C70 1.306 . S
O71 Cd72 2.228 . S
Cd72 O71 2.228 . S
Cd72 O76 2.273 . S
Cd72 O80 2.277 . S
O73 C70 1.160 . S
O73 Cd74 2.203 . S
Cd74 O73 2.203 . S
Cd74 O76 2.411 . S
Cd74 O77 2.333 . S
Cd74 O78 2.352 . S
Cd74 O82 2.277 . S
Cd74 O83 2.356 . S
C75 O80 1.209 . S
C75 O82 1.226 . S
O76 Cd72 2.273 . S
O76 Cd74 2.411 . S
O76 C79 1.320 . S
O77 Cd74 2.333 . S
O77 C79 1.214 . S
O78 Cd74 2.352 . S
O78 C81 1.258 . S
C79 O76 1.320 . S
C79 O77 1.214 . S
O80 Cd72 2.277 . S
O80 C75 1.209 . S
C81 O78 1.258 . S
C81 O83 1.282 . S
O82 Cd74 2.277 . S
O82 C75 1.226 . S
O83 Cd74 2.356 . S
O83 C81 1.282 . S
C84 O85 1.306 . S
C84 O87 1.160 . S
O85 C84 1.306 . S
O85 Cd86 2.228 . S
Cd86 O85 2.228 . S
Cd86 O90 2.273 . S
Cd86 O94 2.277 . S
O87 C84 1.160 . S
O87 Cd88 2.203 . S
Cd88 O87 2.203 . S
Cd88 O90 2.411 . S
Cd88 O91 2.333 . S
Cd88 O92 2.352 . S
Cd88 O96 2.277 . S
Cd88 O97 2.356 . S
C89 O94 1.209 . S
C89 O96 1.226 . S
O90 Cd86 2.273 . S
O90 Cd88 2.411 . S
O90 C93 1.320 . S
O91 Cd88 2.333 . S
O91 C93 1.214 . S
O92 Cd88 2.352 . S
O92 C95 1.258 . S
C93 O90 1.320 . S
C93 O91 1.214 . S
O94 Cd86 2.277 . S
O94 C89 1.209 . S
C95 O92 1.258 . S
C95 O97 1.282 . S
O96 Cd88 2.277 . S
O96 C89 1.226 . S
O97 Cd88 2.356 . S
O97 C95 1.282 . S
C98 O99 1.306 . S
C98 O101 1.160 . S
O99 C98 1.306 . S
O99 Cd100 2.228 . S
Cd100 O99 2.228 . S
Cd100 O104 2.273 . S
Cd100 O108 2.277 . S
O101 C98 1.160 . S
O101 Cd102 2.203 . S
Cd102 O101 2.203 . S
Cd102 O104 2.411 . S
Cd102 O105 2.333 . S
Cd102 O106 2.352 . S
Cd102 O110 2.277 . S
Cd102 O111 2.356 . S
C103 O108 1.209 . S
C103 O110 1.226 . S
O104 Cd100 2.273 . S
O104 Cd102 2.411 . S
O104 C107 1.320 . S
O105 Cd102 2.333 . S
O105 C107 1.214 . S
O106 Cd102 2.352 . S
O106 C109 1.258 . S
C107 O104 1.320 . S
C107 O105 1.214 . S
O108 Cd100 2.277 . S
O108 C103 1.209 . S
C109 O106 1.258 . S
C109 O111 1.282 . S
O110 Cd102 2.277 . S
O110 C103 1.226 . S
O111 Cd102 2.356 . S
O111 C109 1.282 . S
C112 O113 1.306 . S
C112 O115 1.160 . S
O113 C112 1.306 . S
O113 Cd114 2.228 . S
Cd114 O113 2.228 . S
Cd114 O118 2.273 . S
Cd114 O122 2.277 . S
O115 C112 1.160 . S
O115 Cd116 2.203 . S
Cd116 O115 2.203 . S
Cd116 O118 2.411 . S
Cd116 O119 2.333 . S
Cd116 O120 2.352 . S
Cd116 O124 2.277 . S
Cd116 O125 2.356 . S
C117 O122 1.209 . S
C117 O124 1.226 . S
O118 Cd114 2.273 . S
O118 Cd116 2.411 . S
O118 C121 1.320 . S
O119 Cd116 2.333 . S
O119 C121 1.214 . S
O120 Cd116 2.352 . S
O120 C123 1.258 . S
C121 O118 1.320 . S
C121 O119 1.214 . S
O122 Cd114 2.277 . S
O122 C117 1.209 . S
C123 O120 1.258 . S
C123 O125 1.282 . S
O124 Cd116 2.277 . S
O124 C117 1.226 . S
O125 Cd116 2.356 . S
O125 C123 1.282 . S
C126 C127 1.363 . S
C126 C132 1.379 . S
C126 N134 1.356 . S
C127 C126 1.363 . S
C127 C133 1.363 . S
C128 C129 1.363 . S
C128 C133 1.379 . S
C128 N135 1.356 . S
C129 C128 1.363 . S
C129 C132 1.363 . S
N130 C132 1.356 . S
N130 H142 0.984 . S
N130 H143 0.985 . S
N131 C133 1.356 1_556 S
N131 H136 0.984 . S
N131 H137 0.985 . S
C132 C126 1.379 . S
C132 C129 1.363 . S
C132 N130 1.356 . S
C133 C127 1.363 . S
C133 C128 1.379 . S
C133 N131 1.356 1_554 S
N134 C126 1.356 . S
N134 H140 0.984 . S
N134 H141 0.984 . S
N135 C128 1.356 . S
N135 H138 0.984 . S
N135 H139 0.985 1_554 S
H136 N131 0.984 . S
H137 N131 0.985 . S
H138 N135 0.984 . S
H139 N135 0.985 1_556 S
H140 N134 0.984 . S
H141 N134 0.984 . S
H142 N130 0.984 . S
H143 N130 0.985 . S
C144 C145 1.363 1_556 S
C144 C150 1.379 1_565 S
C144 N152 1.356 . S
C145 C144 1.363 1_554 S
C145 C151 1.363 . S
C146 C147 1.363 . S
C146 C151 1.379 1_545 S
C146 N153 1.356 . S
C147 C146 1.363 . S
C147 C150 1.363 1_554 S
N148 C150 1.356 . S
N148 H160 0.984 . S
N148 H161 0.985 . S
N149 C151 1.356 . S
N149 H154 0.984 . S
N149 H155 0.985 . S
C150 C144 1.379 1_545 S
C150 C147 1.363 1_556 S
C150 N148 1.356 . S
C151 C145 1.363 . S
C151 C146 1.379 1_565 S
C151 N149 1.356 . S
N152 C144 1.356 . S
N152 H158 0.984 . S
N152 H159 0.984 . S
N153 C146 1.356 . S
N153 H156 0.984 . S
N153 H157 0.985 . S
H154 N149 0.984 . S
H155 N149 0.985 . S
H156 N153 0.984 . S
H157 N153 0.985 . S
H158 N152 0.984 . S
H159 N152 0.984 . S
H160 N148 0.984 . S
H161 N148 0.985 . S
C162 C163 1.363 . S
C162 C168 1.379 1_655 S
C162 N170 1.356 . S
C163 C162 1.363 . S
C163 C169 1.363 1_554 S
C164 C165 1.363 1_556 S
C164 C169 1.379 1_455 S
C164 N171 1.356 . S
C165 C164 1.363 1_554 S
C165 C168 1.363 . S
N166 C168 1.356 . S
N166 H178 0.984 . S
N166 H179 0.985 . S
N167 C169 1.356 . S
N167 H172 0.984 . S
N167 H173 0.985 . S
C168 C162 1.379 1_455 S
C168 C165 1.363 . S
C168 N166 1.356 . S
C169 C163 1.363 1_556 S
C169 C164 1.379 1_655 S
C169 N167 1.356 . S
N170 C162 1.356 . S
N170 H176 0.984 . S
N170 H177 0.984 . S
N171 C164 1.356 . S
N171 H174 0.984 . S
N171 H175 0.985 . S
H172 N167 0.984 . S
H173 N167 0.985 . S
H174 N171 0.984 . S
H175 N171 0.985 . S
H176 N170 0.984 . S
H177 N170 0.984 . S
H178 N166 0.984 . S
H179 N166 0.985 . S
C180 C181 1.363 . S
C180 C186 1.379 . S
C180 N188 1.356 . S
C181 C180 1.363 . S
C181 C187 1.363 . S
C182 C183 1.363 . S
C182 C187 1.379 . S
C182 N189 1.356 . S
C183 C182 1.363 . S
C183 C186 1.363 . S
N184 C186 1.356 . S
N184 H196 0.984 . S
N184 H197 0.985 . S
N185 C187 1.356 . S
N185 H190 0.984 . S
N185 H191 0.985 . S
C186 C180 1.379 . S
C186 C183 1.363 . S
C186 N184 1.356 . S
C187 C181 1.363 . S
C187 C182 1.379 . S
C187 N185 1.356 . S
N188 C180 1.356 . S
N188 H194 0.984 . S
N188 H195 0.984 . S
N189 C182 1.356 . S
N189 H192 0.984 . S
N189 H193 0.985 . S
H190 N185 0.984 . S
H191 N185 0.985 . S
H192 N189 0.984 . S
H193 N189 0.985 . S
H194 N188 0.984 . S
H195 N188 0.984 . S
H196 N184 0.984 . S
H197 N184 0.985 . S
C198 C199 1.363 . S
C198 C204 1.379 . S
C198 N206 1.356 . S
C199 C198 1.363 . S
C199 C205 1.363 . S
C200 C201 1.363 . S
C200 C205 1.379 . S
C200 N207 1.356 . S
C201 C200 1.363 . S
C201 C204 1.363 . S
N202 C204 1.356 . S
N202 H214 0.984 . S
N202 H215 0.985 . S
N203 C205 1.356 . S
N203 H208 0.984 . S
N203 H209 0.985 . S
C204 C198 1.379 . S
C204 C201 1.363 . S
C204 N202 1.356 . S
C205 C199 1.363 . S
C205 C200 1.379 . S
C205 N203 1.356 . S
N206 C198 1.356 . S
N206 H212 0.984 . S
N206 H213 0.984 . S
N207 C200 1.356 . S
N207 H210 0.984 . S
N207 H211 0.985 . S
H208 N203 0.984 . S
H209 N203 0.985 . S
H210 N207 0.984 . S
H211 N207 0.985 . S
H212 N206 0.984 . S
H213 N206 0.984 . S
H214 N202 0.984 . S
H215 N202 0.985 . S
C216 C217 1.363 . S
C216 C222 1.379 . S
C216 N224 1.356 . S
C217 C216 1.363 . S
C217 C223 1.363 . S
C218 C219 1.363 . S
C218 C223 1.379 . S
C218 N225 1.356 . S
C219 C218 1.363 . S
C219 C222 1.363 . S
N220 C222 1.356 . S
N220 H232 0.984 . S
N220 H233 0.985 . S
N221 C223 1.356 . S
N221 H226 0.984 . S
N221 H227 0.985 . S
C222 C216 1.379 . S
C222 C219 1.363 . S
C222 N220 1.356 . S
C223 C217 1.363 . S
C223 C218 1.379 . S
C223 N221 1.356 . S
N224 C216 1.356 . S
N224 H230 0.984 . S
N224 H231 0.984 . S
N225 C218 1.356 . S
N225 H228 0.984 . S
N225 H229 0.985 . S
H226 N221 0.984 . S
H227 N221 0.985 . S
H228 N225 0.984 . S
H229 N225 0.985 . S
H230 N224 0.984 . S
H231 N224 0.984 . S
H232 N220 0.984 . S
H233 N220 0.985 . S
C234 C235 1.363 . S
C234 C240 1.379 . S
C234 N242 1.356 . S
C235 C234 1.363 . S
C235 C241 1.363 . S
C236 C237 1.363 . S
C236 C241 1.379 . S
C236 N243 1.356 . S
C237 C236 1.363 . S
C237 C240 1.363 . S
N238 C240 1.356 . S
N238 H250 0.984 . S
N238 H251 0.985 . S
N239 C241 1.356 . S
N239 H244 0.984 . S
N239 H245 0.985 . S
C240 C234 1.379 . S
C240 C237 1.363 . S
C240 N238 1.356 . S
C241 C235 1.363 . S
C241 C236 1.379 . S
C241 N239 1.356 . S
N242 C234 1.356 . S
N242 H248 0.984 . S
N242 H249 0.984 . S
N243 C236 1.356 . S
N243 H246 0.984 . S
N243 H247 0.985 . S
H244 N239 0.984 . S
H245 N239 0.985 . S
H246 N243 0.984 . S
H247 N243 0.985 . S
H248 N242 0.984 . S
H249 N242 0.984 . S
H250 N238 0.984 . S
H251 N238 0.985 . S
C252 C253 1.363 . S
C252 C258 1.379 . S
C252 N260 1.356 . S
C253 C252 1.363 . S
C253 C259 1.363 . S
C254 C255 1.363 . S
C254 C259 1.379 . S
C254 N261 1.356 . S
C255 C254 1.363 . S
C255 C258 1.363 . S
N256 C258 1.356 . S
N256 H268 0.984 . S
N256 H269 0.985 . S
N257 C259 1.356 . S
N257 H262 0.984 . S
N257 H263 0.985 . S
C258 C252 1.379 . S
C258 C255 1.363 . S
C258 N256 1.356 . S
C259 C253 1.363 . S
C259 C254 1.379 . S
C259 N257 1.356 . S
N260 C252 1.356 . S
N260 H266 0.984 . S
N260 H267 0.984 . S
N261 C254 1.356 . S
N261 H264 0.984 . S
N261 H265 0.985 . S
H262 N257 0.984 . S
H263 N257 0.985 . S
H264 N261 0.984 . S
H265 N261 0.985 . S
H266 N260 0.984 . S
H267 N260 0.984 . S
H268 N256 0.984 . S
H269 N256 0.985 . S
C270 C271 1.363 . S
C270 C276 1.379 . S
C270 N278 1.356 . S
C271 C270 1.363 . S
C271 C277 1.363 . S
C272 C273 1.363 . S
C272 C277 1.379 . S
C272 N279 1.356 . S
C273 C272 1.363 . S
C273 C276 1.363 . S
N274 C276 1.356 . S
N274 H286 0.984 . S
N274 H287 0.985 . S
N275 C277 1.356 . S
N275 H280 0.984 . S
N275 H281 0.985 . S
C276 C270 1.379 . S
C276 C273 1.363 . S
C276 N274 1.356 . S
C277 C271 1.363 . S
C277 C272 1.379 . S
C277 N275 1.356 . S
N278 C270 1.356 . S
N278 H284 0.984 . S
N278 H285 0.984 . S
N279 C272 1.356 . S
N279 H282 0.984 . S
N279 H283 0.985 . S
H280 N275 0.984 . S
H281 N275 0.985 . S
H282 N279 0.984 . S
H283 N279 0.985 . S
H284 N278 0.984 . S
H285 N278 0.984 . S
H286 N274 0.984 . S
H287 N274 0.985 . S
C288 C289 1.363 . S
C288 C294 1.379 . S
C288 N296 1.356 1_455 S
C289 C288 1.363 . S
C289 C295 1.363 . S
C290 C291 1.363 . S
C290 C295 1.379 . S
C290 N297 1.356 . S
C291 C290 1.363 . S
C291 C294 1.363 . S
N292 C294 1.356 . S
N292 H304 0.984 . S
N292 H305 0.985 . S
N293 C295 1.356 . S
N293 H298 0.984 . S
N293 H299 0.985 . S
C294 C288 1.379 . S
C294 C291 1.363 . S
C294 N292 1.356 . S
C295 C289 1.363 . S
C295 C290 1.379 . S
C295 N293 1.356 . S
N296 C288 1.356 1_655 S
N296 H302 0.984 . S
N296 H303 0.984 . S
N297 C290 1.356 . S
N297 H300 0.984 . S
N297 H301 0.985 . S
H298 N293 0.984 . S
H299 N293 0.985 . S
H300 N297 0.984 . S
H301 N297 0.985 . S
H302 N296 0.984 . S
H303 N296 0.984 . S
H304 N292 0.984 . S
H305 N292 0.985 . S
C306 C307 1.363 . S
C306 C312 1.379 . S
C306 N314 1.356 . S
C307 C306 1.363 . S
C307 C313 1.363 . S
C308 C309 1.363 . S
C308 C313 1.379 . S
C308 N315 1.356 . S
C309 C308 1.363 . S
C309 C312 1.363 . S
N310 C312 1.356 . S
N310 H322 0.984 . S
N310 H323 0.985 . S
N311 C313 1.356 . S
N311 H316 0.984 . S
N311 H317 0.985 . S
C312 C306 1.379 . S
C312 C309 1.363 . S
C312 N310 1.356 . S
C313 C307 1.363 . S
C313 C308 1.379 . S
C313 N311 1.356 . S
N314 C306 1.356 . S
N314 H320 0.984 . S
N314 H321 0.984 . S
N315 C308 1.356 . S
N315 H318 0.984 . S
N315 H319 0.985 . S
H316 N311 0.984 . S
H317 N311 0.985 . S
H318 N315 0.984 . S
H319 N315 0.985 . S
H320 N314 0.984 . S
H321 N314 0.984 . S
H322 N310 0.984 . S
H323 N310 0.985 . S
C324 C325 1.363 . S
C324 C330 1.379 . S
C324 N332 1.356 . S
C325 C324 1.363 . S
C325 C331 1.363 . S
C326 C327 1.363 . S
C326 C331 1.379 . S
C326 N333 1.356 1_565 S
C327 C326 1.363 . S
C327 C330 1.363 . S
N328 C330 1.356 . S
N328 H340 0.984 . S
N328 H341 0.985 . S
N329 C331 1.356 . S
N329 H334 0.984 . S
N329 H335 0.985 1_565 S
C330 C324 1.379 . S
C330 C327 1.363 . S
C330 N328 1.356 . S
C331 C325 1.363 . S
C331 C326 1.379 . S
C331 N329 1.356 . S
N332 C324 1.356 . S
N332 H338 0.984 . S
N332 H339 0.984 . S
N333 C326 1.356 1_545 S
N333 H336 0.984 . S
N333 H337 0.985 . S
H334 N329 0.984 . S
H335 N329 0.985 1_545 S
H336 N333 0.984 . S
H337 N333 0.985 . S
H338 N332 0.984 . S
H339 N332 0.984 . S
H340 N328 0.984 . S
H341 N328 0.985 . S
C342 C343 1.363 . S
C342 C348 1.379 . S
C342 N350 1.356 . S
C343 C342 1.363 . S
C343 C349 1.363 . S
C344 C345 1.363 . S
C344 C349 1.379 . S
C344 N351 1.356 . S
C345 C344 1.363 . S
C345 C348 1.363 . S
N346 C348 1.356 . S
N346 H358 0.986 1_545 S
N346 H359 0.985 . S
N347 C349 1.356 . S
N347 H352 0.984 . S
N347 H353 0.985 . S
C348 C342 1.379 . S
C348 C345 1.363 . S
C348 N346 1.356 . S
C349 C343 1.363 . S
C349 C344 1.379 . S
C349 N347 1.356 . S
N350 C342 1.356 . S
N350 H356 0.984 . S
N350 H357 0.984 . S
N351 C344 1.356 . S
N351 H354 0.984 . S
N351 H355 0.985 . S
H352 N347 0.984 . S
H353 N347 0.985 . S
H354 N351 0.984 . S
H355 N351 0.985 . S
H356 N350 0.984 . S
H357 N350 0.984 . S
H358 N346 0.986 1_565 S
H359 N346 0.985 . S
C360 C361 1.363 . S
C360 C366 1.379 . S
C360 N368 1.356 . S
C361 C360 1.363 . S
C361 C367 1.363 . S
C362 C363 1.363 . S
C362 C367 1.379 . S
C362 N369 1.356 . S
C363 C362 1.363 . S
C363 C366 1.363 . S
N364 C366 1.356 . S
N364 H376 0.984 . S
N364 H377 0.985 . S
N365 C367 1.356 1_455 S
N365 H370 0.984 . S
N365 H371 0.985 . S
C366 C360 1.379 . S
C366 C363 1.363 . S
C366 N364 1.356 . S
C367 C361 1.363 . S
C367 C362 1.379 . S
C367 N365 1.356 1_655 S
N368 C360 1.356 . S
N368 H374 0.984 . S
N368 H375 0.984 . S
N369 C362 1.356 . S
N369 H372 0.984 . S
N369 H373 0.985 1_655 S
H370 N365 0.984 . S
H371 N365 0.985 . S
H372 N369 0.984 . S
H373 N369 0.985 1_455 S
H374 N368 0.984 . S
H375 N368 0.984 . S
H376 N364 0.984 . S
H377 N364 0.985 . S
C378 C379 1.363 . S
C378 C384 1.379 . S
C378 N386 1.356 . S
C379 C378 1.363 . S
C379 C385 1.363 . S
C380 C381 1.363 . S
C380 C385 1.379 . S
C380 N387 1.356 . S
C381 C380 1.363 . S
C381 C384 1.363 . S
N382 C384 1.356 . S
N382 H394 0.984 . S
N382 H395 0.985 . S
N383 C385 1.356 . S
N383 H388 0.984 . S
N383 H389 0.985 . S
C384 C378 1.379 . S
C384 C381 1.363 . S
C384 N382 1.356 . S
C385 C379 1.363 . S
C385 C380 1.379 . S
C385 N383 1.356 . S
N386 C378 1.356 . S
N386 H392 0.984 . S
N386 H393 0.984 . S
N387 C380 1.356 . S
N387 H390 0.984 . S
N387 H391 0.985 . S
H388 N383 0.984 . S
H389 N383 0.985 . S
H390 N387 0.984 . S
H391 N387 0.985 . S
H392 N386 0.984 . S
H393 N386 0.984 . S
H394 N382 0.984 . S
H395 N382 0.985 . S
C396 C397 1.363 . S
C396 C402 1.379 . S
C396 N404 1.356 . S
C397 C396 1.363 . S
C397 C403 1.363 . S
C398 C399 1.363 1_455 S
C398 C403 1.379 . S
C398 N405 1.356 1_455 S
C399 C398 1.363 1_655 S
C399 C402 1.363 1_655 S
N400 C402 1.356 1_655 S
N400 H412 0.984 . S
N400 H413 0.985 . S
N401 C403 1.356 . S
N401 H406 0.984 . S
N401 H407 0.985 . S
C402 C396 1.379 . S
C402 C399 1.363 1_455 S
C402 N400 1.356 1_455 S
C403 C397 1.363 . S
C403 C398 1.379 . S
C403 N401 1.356 . S
N404 C396 1.356 . S
N404 H410 0.984 . S
N404 H411 0.984 . S
N405 C398 1.356 1_655 S
N405 H408 0.984 . S
N405 H409 0.985 . S
H406 N401 0.984 . S
H407 N401 0.985 . S
H408 N405 0.984 . S
H409 N405 0.985 . S
H410 N404 0.984 . S
H411 N404 0.984 . S
H412 N400 0.984 . S
H413 N400 0.985 . S
C414 C415 1.363 . S
C414 C420 1.379 . S
C414 N422 1.356 . S
C415 C414 1.363 . S
C415 C421 1.363 . S
C416 C417 1.363 . S
C416 C421 1.379 . S
C416 N423 1.356 . S
C417 C416 1.363 . S
C417 C420 1.363 . S
N418 C420 1.356 . S
N418 H430 0.984 . S
N418 H431 0.985 . S
N419 C421 1.356 . S
N419 H424 0.984 . S
N419 H425 0.985 . S
C420 C414 1.379 . S
C420 C417 1.363 . S
C420 N418 1.356 . S
C421 C415 1.363 . S
C421 C416 1.379 . S
C421 N419 1.356 . S
N422 C414 1.356 . S
N422 H428 0.984 . S
N422 H429 0.984 . S
N423 C416 1.356 . S
N423 H426 0.984 . S
N423 H427 0.985 . S
H424 N419 0.984 . S
H425 N419 0.985 . S
H426 N423 0.984 . S
H427 N423 0.985 . S
H428 N422 0.984 . S
H429 N422 0.984 . S
H430 N418 0.984 . S
H431 N418 0.985 . S
C432 C433 1.363 1_545 S
C432 C438 1.379 . S
C432 N440 1.356 . S
C433 C432 1.363 1_565 S
C433 C439 1.363 . S
C434 C435 1.363 . S
C434 C439 1.379 1_545 S
C434 N441 1.356 . S
C435 C434 1.363 . S
C435 C438 1.363 . S
N436 C438 1.356 . S
N436 H448 0.984 . S
N436 H449 0.985 . S
N437 C439 1.356 . S
N437 H442 0.984 . S
N437 H443 0.985 . S
C438 C432 1.379 . S
C438 C435 1.363 . S
C438 N436 1.356 . S
C439 C433 1.363 . S
C439 C434 1.379 1_565 S
C439 N437 1.356 . S
N440 C432 1.356 . S
N440 H446 0.984 . S
N440 H447 0.984 1_545 S
N441 C434 1.356 . S
N441 H444 0.984 . S
N441 H445 0.985 1_545 S
H442 N437 0.984 . S
H443 N437 0.985 . S
H444 N441 0.984 . S
H445 N441 0.985 1_565 S
H446 N440 0.984 . S
H447 N440 0.984 1_565 S
H448 N436 0.984 . S
H449 N436 0.985 . S
C127 C33 1.211 . S
C129 C0 1.207 . S
C145 C19 1.236 . S
C147 C5 1.231 . S
C163 C14 1.199 . S
C165 C28 1.201 . S
C181 C70 1.191 . S
C183 C47 1.199 . S
C199 C61 1.178 . S
C201 C42 1.174 . S
C217 C56 1.211 . S
C219 C75 1.216 . S
C235 C84 1.176 . S
C237 C117 1.182 . S
C253 C89 1.178 . S
C255 C103 1.180 . S
C271 C98 1.147 . S
C273 C112 1.153 . S
C289 C11 1.416 . S
C291 C109 1.415 . S
C307 C23 1.440 . S
C309 C121 1.440 . S
C325 C93 1.425 . S
C327 C39 1.426 . S
C343 C65 1.406 . S
C345 C37 1.406 . S
C361 C9 1.441 . S
C363 C79 1.442 . S
C379 C51 1.431 . S
C381 C25 1.438 . S
C397 C107 1.430 . S
C399 C81 1.427 . S
C415 C53 1.416 . S
C417 C123 1.416 . S
C433 C95 1.445 . S
C435 C67 1.444 . S
