# Generated by pormake.
# Topology umx, (4)-cn, num edge types: 1
# Building blocks:
#     Node 0, Type 0, BuildingBlock: ESEHIV_clean_sbu_0, # of connection points: 4
#     Node 1, Type 0, BuildingBlock: ESEHIV_clean_sbu_0, # of connection points: 4
#     Node 2, Type 0, BuildingBlock: ESEHIV_clean_sbu_0, # of connection points: 4
#     Node 3, Type 0, BuildingBlock: ESEHIV_clean_sbu_0, # of connection points: 4
#     Node 4, Type 0, BuildingBlock: ESEHIV_clean_sbu_0, # of connection points: 4
#     Node 5, Type 0, BuildingBlock: ESEHIV_clean_sbu_0, # of connection points: 4
#     Node 6, Type 0, BuildingBlock: ESEHIV_clean_sbu_0, # of connection points: 4
#     Node 7, Type 0, BuildingBlock: ESEHIV_clean_sbu_0, # of connection points: 4
#     Edge 8, Type (0, 0), BuildingBlock: FUNLAD_clean_linker_0, # of connection points: 2
#     Edge 9, Type (0, 0), BuildingBlock: FUNLAD_clean_linker_0, # of connection points: 2
#     Edge 10, Type (0, 0), BuildingBlock: FUNLAD_clean_linker_0, # of connection points: 2
#     Edge 11, Type (0, 0), BuildingBlock: FUNLAD_clean_linker_0, # of connection points: 2
#     Edge 12, Type (0, 0), BuildingBlock: FUNLAD_clean_linker_0, # of connection points: 2
#     Edge 13, Type (0, 0), BuildingBlock: FUNLAD_clean_linker_0, # of connection points: 2
#     Edge 14, Type (0, 0), BuildingBlock: FUNLAD_clean_linker_0, # of connection points: 2
#     Edge 15, Type (0, 0), BuildingBlock: FUNLAD_clean_linker_0, # of connection points: 2
#     Edge 16, Type (0, 0), BuildingBlock: FUNLAD_clean_linker_0, # of connection points: 2
#     Edge 17, Type (0, 0), BuildingBlock: FUNLAD_clean_linker_0, # of connection points: 2
#     Edge 18, Type (0, 0), BuildingBlock: FUNLAD_clean_linker_0, # of connection points: 2
#     Edge 19, Type (0, 0), BuildingBlock: FUNLAD_clean_linker_0, # of connection points: 2
#     Edge 20, Type (0, 0), BuildingBlock: FUNLAD_clean_linker_0, # of connection points: 2
#     Edge 21, Type (0, 0), BuildingBlock: FUNLAD_clean_linker_0, # of connection points: 2
#     Edge 22, Type (0, 0), BuildingBlock: FUNLAD_clean_linker_0, # of connection points: 2
#     Edge 23, Type (0, 0), BuildingBlock: FUNLAD_clean_linker_0, # of connection points: 2
# Relax obj value: 0.108
# Max RMSD: 0.183
# Mean RMSD: 0.173
data_MOF--net-umx--node1-ESEHIV_clean_sbu_0--edge1-FUNLAD_clean_linker_0
_symmetry_space_group_name_H-M    P1
_symmetry_Int_Tables_number       1
_symmetry_cell_setting            triclinic
loop_
_symmetry_equiv_pos_as_xyz
'x, y, z'
_cell_length_a     44.813707
_cell_length_b     51.144585
_cell_length_c     34.82365
_cell_angle_alpha  90.051556
_cell_angle_beta   90.156876
_cell_angle_gamma 90.338051
loop_
_atom_site_label
_atom_site_type_symbol
_atom_site_fract_x
_atom_site_fract_y
_atom_site_fract_z
_atom_type_partial_charge
Cu0 Cu 0.14832 0.39044 0.06238 0.0
N1 N 0.13335 0.37828 1.01545 0.0
N2 N 0.12576 0.38034 0.952 0.0
C3 C 0.13538 0.39304 0.98365 0.0
C4 C 0.11723 0.35642 0.96445 0.0
C5 C 0.12179 0.35524 1.0038 0.0
O6 O 0.19165 0.39139 0.05827 0.0
C7 C 0.10043 0.42097 0.07414 0.0
O8 O 0.08892 0.39734 0.07184 0.0
H9 H 0.14512 0.41246 0.98366 0.0
H10 H 0.11793 0.33856 1.02224 0.0
N11 N 0.13991 0.37078 0.10624 0.0
N12 N 0.13755 0.36684 0.17014 0.0
C13 C 0.15162 0.37806 0.14019 0.0
C14 C 0.11777 0.35384 0.11476 0.0
C15 C 0.11617 0.35149 0.15435 0.0
C16 C 0.20282 0.37006 0.04614 0.0
O17 O 0.18475 0.35063 1.03739 0.0
H18 H 0.16813 0.3935 0.14291 0.0
H19 H 0.10226 0.34567 0.09408 0.0
O20 O 0.12858 0.42372 0.07037 0.0
H21 H 0.10873 0.3408 0.94641 0.0
H22 H 0.09949 0.34062 0.17024 0.0
Cu23 Cu 0.60452 0.19075 0.57179 0.0
N24 N 0.60817 0.15422 0.56959 0.0
N25 N 0.59457 0.11192 0.56949 0.0
C26 C 0.58607 0.13683 0.57648 0.0
C27 C 0.62321 0.11386 0.55774 0.0
C28 C 0.63146 0.13989 0.55768 0.0
O29 O 0.58363 0.19914 0.61983 0.0
C30 C 0.60027 0.19655 0.4932 0.0
O31 O 0.62714 0.18676 0.49725 0.0
H32 H 0.56408 0.1425 0.58599 0.0
H33 H 0.65261 0.14782 0.54826 0.0
N34 N 0.64173 0.20787 0.5738 0.0
N35 N 0.67558 0.24032 0.57135 0.0
C36 C 0.64679 0.23324 0.56532 0.0
C37 C 0.66817 0.19855 0.58579 0.0
C38 C 0.68906 0.21843 0.58417 0.0
C39 C 0.59609 0.19061 0.6504 0.0
O40 O 0.62078 0.1771 0.64692 0.0
H41 H 0.62954 0.24623 0.5551 0.0
H42 H 0.67187 0.17888 0.59601 0.0
O43 O 0.58504 0.201 0.52349 0.0
H44 H 0.63697 0.09777 0.54839 0.0
H45 H 0.71216 0.21703 0.59305 0.0
Cu46 Cu 0.86601 0.62785 0.05969 0.0
N47 N 0.87809 0.63866 1.01081 0.0
N48 N 0.8891 0.63273 0.94892 0.0
C49 C 0.88041 0.6214 0.98189 0.0
C50 C 0.89197 0.65843 0.95703 0.0
C51 C 0.8853 0.66205 0.99555 0.0
O52 O 0.82318 0.63348 0.06345 0.0
C53 C 0.90841 0.59105 0.05841 0.0
O54 O 0.92277 0.61287 0.05065 0.0
H55 H 0.87554 0.60075 0.98498 0.0
H56 H 0.88571 0.68033 1.01118 0.0
N57 N 0.88402 0.64469 0.10132 0.0
N58 N 0.89842 0.64394 0.16283 0.0
C59 C 0.87729 0.63699 0.13715 0.0
C60 C 0.91023 0.65755 0.10429 0.0
C61 C 0.91926 0.65701 0.14235 0.0
C62 C 0.81612 0.65759 0.06346 0.0
O63 O 0.83763 0.67511 0.06152 0.0
H64 H 0.85907 0.62365 0.14334 0.0
H65 H 0.92331 0.66432 0.08016 0.0
O66 O 0.88031 0.59203 0.0642 0.0
H67 H 0.89884 0.67336 0.93683 0.0
H68 H 0.94045 0.66394 0.15351 0.0
Cu69 Cu 0.41183 0.84197 0.5847 0.0
N70 N 0.40924 0.87853 0.58868 0.0
N71 N 0.42347 0.92067 0.59073 0.0
C72 C 0.43156 0.89584 0.58238 0.0
C73 C 0.39487 0.91875 0.60267 0.0
C74 C 0.38627 0.89285 0.60158 0.0
O75 O 0.43095 0.83023 0.63261 0.0
C76 C 0.42055 0.84357 0.50603 0.0
O77 O 0.39652 0.8579 0.50998 0.0
H78 H 0.45361 0.89009 0.57316 0.0
H79 H 0.36501 0.88498 0.61069 0.0
N80 N 0.37392 0.8261 0.58128 0.0
N81 N 0.33834 0.79504 0.58014 0.0
C82 C 0.36741 0.80063 0.58734 0.0
C83 C 0.34816 0.83694 0.56958 0.0
C84 C 0.32623 0.81794 0.56905 0.0
C85 C 0.41598 0.83418 0.66328 0.0
O86 O 0.38919 0.84425 0.65998 0.0
H87 H 0.3838 0.78647 0.59648 0.0
H88 H 0.34565 0.85706 0.56075 0.0
O89 O 0.43254 0.83406 0.5363 0.0
H90 H 0.38105 0.93483 0.61191 0.0
H91 H 0.30339 0.82064 0.55975 0.0
Cu92 Cu 0.174 0.5392 0.55369 0.0
N93 N 0.18466 0.51901 0.59618 0.0
N94 N 0.1818 0.4946 0.64938 0.0
C95 C 0.16657 0.50906 0.62344 0.0
C96 C 0.21054 0.49564 0.63785 0.0
C97 C 0.21221 0.51069 0.60511 0.0
O98 O 0.193 0.57354 0.55725 0.0
C99 C 0.11629 0.55294 0.52546 0.0
O100 O 0.13081 0.56391 0.49692 0.0
H101 H 0.14268 0.51202 0.6238 0.0
H102 H 0.23209 0.51521 0.5888 0.0
N103 N 0.18816 0.52289 0.50941 0.0
N104 N 0.19216 0.49977 0.45511 0.0
C105 C 0.1739 0.50723 0.48399 0.0
C106 C 0.21625 0.52522 0.4964 0.0
C107 C 0.2188 0.51105 0.46302 0.0
C108 C 0.18955 0.58885 0.58572 0.0
O109 O 0.17178 0.58168 0.61381 0.0
H110 H 0.15057 0.50185 0.48624 0.0
H111 H 0.23365 0.53653 0.51033 0.0
O112 O 0.13087 0.54181 0.55219 0.0
H113 H 0.22916 0.48649 0.65229 0.0
H114 H 0.23887 0.50903 0.44609 0.0
Cu115 Cu 0.50879 0.20752 0.07201 0.0
N116 N 0.48633 0.17656 0.07199 0.0
N117 N 0.47739 0.13345 0.0718 0.0
C118 C 0.4982 0.15254 0.06872 0.0
C119 C 0.45132 0.14605 0.07715 0.0
C120 C 0.45693 0.17263 0.07746 0.0
O121 O 0.53074 0.20861 1.02322 0.0
C122 C 0.51719 0.20591 0.15022 0.0
O123 O 0.48798 0.20502 0.14698 0.0
H124 H 0.52179 0.14923 0.06442 0.0
H125 H 0.44081 0.18786 0.08253 0.0
N126 N 0.48546 0.23773 0.07507 0.0
N127 N 0.44907 0.26748 0.07168 0.0
C128 C 0.45732 0.24266 0.06336 0.0
C129 C 0.49534 0.26017 0.09088 0.0
C130 C 0.47308 0.27847 0.0889 0.0
C131 C 0.51466 0.20777 0.99285 0.0
O132 O 0.48554 0.20645 0.99679 0.0
H133 H 0.44318 0.22834 0.04936 0.0
H134 H 0.51736 0.26296 0.10304 0.0
O135 O 0.53267 0.20703 0.11945 0.0
H136 H 0.42989 0.13675 0.08186 0.0
H137 H 0.4747 0.29845 0.09898 0.0
Cu138 Cu 0.85736 0.49011 0.53984 0.0
N139 N 0.87208 0.49064 0.59018 0.0
N140 N 0.87948 0.50435 0.65052 0.0
C141 C 0.86212 0.50594 0.61884 0.0
C142 C 0.90033 0.48632 0.64197 0.0
C143 C 0.89559 0.47779 0.60486 0.0
O144 O 0.83449 0.45786 0.53279 0.0
C145 C 0.84065 0.54396 0.52348 0.0
O146 O 0.82049 0.56165 0.51535 0.0
H147 H 0.8434 0.51904 0.61563 0.0
H148 H 0.90893 0.4638 0.58933 0.0
N149 N 0.88794 0.49163 0.50325 0.0
N150 N 0.91051 0.50469 0.44907 0.0
C151 C 0.88424 0.50063 0.46725 0.0
C152 C 0.91759 0.48913 0.50786 0.0
C153 C 0.93154 0.49707 0.47456 0.0
C154 C 0.81276 0.45219 0.55485 0.0
O155 O 0.80516 0.46895 0.58167 0.0
H156 H 0.86271 0.50651 0.45626 0.0
H157 H 0.92856 0.48368 0.53427 0.0
O158 O 0.83207 0.52074 0.53182 0.0
H159 H 0.91867 0.48067 0.66041 0.0
H160 H 0.95541 0.49846 0.47051 0.0
Cu161 Cu 0.5089 0.8237 0.08471 0.0
N162 N 0.53114 0.85476 0.08363 0.0
N163 N 0.53995 0.89785 0.08093 0.0
C164 C 0.51928 0.8786 0.07816 0.0
C165 C 0.56591 0.88553 0.08839 0.0
C166 C 0.56038 0.85897 0.09024 0.0
O167 O 0.4863 0.82188 1.03622 0.0
C168 C 0.50135 0.82539 0.16328 0.0
O169 O 0.53055 0.82537 0.15987 0.0
H170 H 0.49581 0.88169 0.07252 0.0
H171 H 0.5764 0.84396 0.09708 0.0
N172 N 0.53264 0.79371 0.08787 0.0
N173 N 0.56953 0.76441 0.08501 0.0
C174 C 0.56086 0.78906 0.07635 0.0
C175 C 0.52314 0.77125 0.10383 0.0
C176 C 0.54571 0.75322 0.10219 0.0
C177 C 0.5019 0.82306 1.00555 0.0
O178 O 0.53102 0.82521 1.00898 0.0
H179 H 0.57482 0.80349 0.06238 0.0
H180 H 0.5012 0.76827 0.11597 0.0
O181 O 0.48561 0.82471 0.13257 0.0
H182 H 0.58719 0.89505 0.09348 0.0
H183 H 0.54447 0.73331 0.11256 0.0
C184 C 0.16935 0.3823 0.2234 0.0
C185 C 0.14108 0.37477 0.20967 0.0
C186 C 0.17253 0.39425 0.25927 0.0
C187 C 0.14738 0.39933 0.28218 0.0
C188 C 0.11936 0.39012 0.26966 0.0
C189 C 0.1162 0.37801 0.23369 0.0
C190 C 0.14973 0.41475 0.31851 0.0
C191 C 0.17055 0.4337 0.32333 0.0
C192 C 0.17418 0.45073 0.35793 0.0
C193 C 0.19553 0.47091 0.35618 0.0
C194 C 0.20095 0.4871 0.38771 0.0
C195 C 0.18519 0.48365 0.42215 0.0
H196 H 0.14144 0.43207 0.39522 0.0
C197 C 0.16334 0.46382 0.42396 0.0
C198 C 0.15794 0.44742 0.39226 0.0
H199 H 0.15098 0.46054 0.45019 0.0
H200 H 0.18898 0.37953 0.20582 0.0
H201 H 0.19472 0.39985 0.2686 0.0
H202 H 0.09967 0.39337 0.28696 0.0
H203 H 0.09411 0.37249 0.22387 0.0
H204 H 0.13284 0.41146 0.34023 0.0
H205 H 0.18571 0.43771 0.29974 0.0
H206 H 0.20833 0.47415 0.33024 0.0
H207 H 0.21754 0.50244 0.38499 0.0
C208 C 0.59849 0.18481 0.72185 0.0
C209 C 0.58387 0.19543 0.6896 0.0
C210 C 0.58771 0.18886 0.75905 0.0
C211 C 0.56198 0.20388 0.76535 0.0
C212 C 0.54721 0.21439 0.73309 0.0
C213 C 0.55804 0.2103 0.69569 0.0
C214 C 0.54905 0.2078 0.80466 0.0
C215 C 0.56427 0.20411 0.83796 0.0
C216 C 0.55099 0.20629 0.87738 0.0
C217 C 0.57008 0.20761 0.9096 0.0
C218 C 0.5586 0.20838 0.94713 0.0
C219 C 0.52764 0.2077 0.95341 0.0
H220 H 0.5043 0.20393 0.86035 0.0
C221 C 0.50858 0.20646 0.9212 0.0
C222 C 0.52 0.20567 0.88383 0.0
H223 H 0.48458 0.20575 0.92475 0.0
H224 H 0.61834 0.17306 0.71845 0.0
H225 H 0.59939 0.1796 0.78253 0.0
H226 H 0.52715 0.22582 0.73681 0.0
H227 H 0.54616 0.21873 0.67162 0.0
H228 H 0.52613 0.21442 0.80579 0.0
H229 H 0.58786 0.19957 0.83672 0.0
H230 H 0.59406 0.20789 0.90577 0.0
H231 H 0.57396 0.20927 0.97115 0.0
C232 C 0.89087 0.52336 0.38837 0.0
C233 C 0.91489 0.51916 0.41372 0.0
C234 C 0.89391 0.54001 0.35679 0.0
C235 C 0.92114 0.55285 0.3495 0.0
C236 C 0.94564 0.54757 0.37338 0.0
C237 C 0.94257 0.53107 0.40522 0.0
C238 C 0.92466 0.57129 0.31671 0.0
C239 C 0.90211 0.58656 0.30436 0.0
C240 C 0.90314 0.60397 0.26996 0.0
C241 C 0.87613 0.61458 0.25679 0.0
C242 C 0.87497 0.62892 0.22275 0.0
C243 C 0.90085 0.63329 0.20102 0.0
H244 H 0.9509 0.60236 0.25856 0.0
C245 C 0.92826 0.6241 0.21517 0.0
C246 C 0.92944 0.60954 0.24927 0.0
H247 H 0.94856 0.62703 0.1989 0.0
H248 H 0.86948 0.51401 0.39298 0.0
H249 H 0.87487 0.54266 0.33802 0.0
H250 H 0.96701 0.55688 0.36808 0.0
H251 H 0.96167 0.52857 0.42383 0.0
H252 H 0.9464 0.57233 0.30324 0.0
H253 H 0.88103 0.58569 0.31969 0.0
H254 H 0.85553 0.61096 0.27218 0.0
H255 H 0.8536 0.63595 0.21266 0.0
C256 C 0.5068 0.82512 0.93381 0.0
C257 C 0.48837 0.82241 0.9663 0.0
C258 C 0.49485 0.82492 0.8966 0.0
C259 C 0.46396 0.82176 0.89055 0.0
C260 C 0.44551 0.81906 0.9231 0.0
C261 C 0.45751 0.81934 0.96046 0.0
C262 C 0.44994 0.82242 0.85128 0.0
C263 C 0.46512 0.82054 0.81767 0.0
C264 C 0.45139 0.82283 0.77835 0.0
C265 C 0.46873 0.81678 0.74579 0.0
C266 C 0.45737 0.81991 0.70838 0.0
C267 C 0.4283 0.82926 0.70251 0.0
H268 H 0.40797 0.83749 0.79588 0.0
C269 C 0.41086 0.83502 0.73502 0.0
C270 C 0.42218 0.83198 0.77226 0.0
H271 H 0.38838 0.84239 0.73182 0.0
H272 H 0.53068 0.82771 0.93701 0.0
H273 H 0.51006 0.8278 0.87294 0.0
H274 H 0.4216 0.81681 0.91964 0.0
H275 H 0.44261 0.81725 0.98471 0.0
H276 H 0.42588 0.82427 0.85056 0.0
H277 H 0.48892 0.81695 0.8185 0.0
H278 H 0.49137 0.80982 0.74927 0.0
H279 H 0.4715 0.81535 0.68413 0.0
C280 C 0.8915 0.51311 0.71882 0.0
C281 C 0.87876 0.52115 0.68388 0.0
C282 C 0.89221 0.52991 0.75056 0.0
C283 C 0.88036 0.55532 0.748 0.0
C284 C 0.86706 0.56311 0.71337 0.0
C285 C 0.86638 0.54633 0.68165 0.0
C286 C 0.88045 0.57386 0.78107 0.0
C287 C 0.89995 0.57247 0.81052 0.0
C288 C 0.89861 0.58957 0.84505 0.0
C289 C 0.90933 0.57966 0.87996 0.0
C290 C 0.90695 0.5942 0.9137 0.0
C291 C 0.89426 0.61925 0.91327 0.0
H292 H 0.87927 0.62373 0.81763 0.0
C293 C 0.88492 0.62987 0.87811 0.0
C294 C 0.88692 0.61511 0.84423 0.0
H295 H 0.87512 0.64916 0.87709 0.0
H296 H 0.90075 0.49371 0.72176 0.0
H297 H 0.90162 0.52265 0.77708 0.0
H298 H 0.85752 0.58244 0.71061 0.0
H299 H 0.85675 0.55342 0.65515 0.0
H300 H 0.86367 0.5891 0.78097 0.0
H301 H 0.9168 0.55731 0.81063 0.0
H302 H 0.9188 0.56023 0.88139 0.0
H303 H 0.91474 0.58573 0.94037 0.0
C304 C 0.50702 0.82714 0.23491 0.0
C305 C 0.48807 0.82623 0.20255 0.0
C306 C 0.49548 0.82832 0.27218 0.0
C307 C 0.46447 0.82844 0.27844 0.0
C308 C 0.44548 0.82758 0.24608 0.0
C309 C 0.45709 0.82641 0.20861 0.0
C310 C 0.45123 0.83089 0.31785 0.0
C311 C 0.4662 0.82618 0.35106 0.0
C312 C 0.4536 0.83024 0.39053 0.0
C313 C 0.46795 0.81888 0.42248 0.0
C314 C 0.45748 0.82301 0.46004 0.0
C315 C 0.43244 0.83878 0.46663 0.0
H316 H 0.41734 0.85604 0.37411 0.0
C317 C 0.41824 0.85026 0.43471 0.0
C318 C 0.42866 0.84616 0.39733 0.0
H319 H 0.399 0.86271 0.4385 0.0
H320 H 0.53104 0.82722 0.23157 0.0
H321 H 0.51113 0.82976 0.29576 0.0
H322 H 0.42148 0.82791 0.24977 0.0
H323 H 0.44182 0.8258 0.18446 0.0
H324 H 0.42794 0.83646 0.31914 0.0
H325 H 0.48869 0.81853 0.34972 0.0
H326 H 0.4874 0.80672 0.41838 0.0
H327 H 0.46901 0.81389 0.48384 0.0
C328 C 0.12568 0.4171 0.90601 0.0
C329 C 0.12727 0.39008 0.91312 0.0
C330 C 0.13039 0.4271 0.86917 0.0
C331 C 0.13664 0.41028 0.83823 0.0
C332 C 0.13741 0.38319 0.84514 0.0
C333 C 0.13259 0.37317 0.8821 0.0
C334 C 0.14482 0.42038 0.7994 0.0
C335 C 0.13772 0.4445 0.78662 0.0
C336 C 0.14848 0.45581 0.74962 0.0
C337 C 0.13338 0.47732 0.73389 0.0
C338 C 0.14392 0.48971 0.70072 0.0
C339 C 0.17009 0.48109 0.68261 0.0
H340 H 0.18731 0.43092 0.74279 0.0
C341 C 0.18508 0.45942 0.69815 0.0
C342 C 0.17449 0.44695 0.73123 0.0
H343 H 0.20515 0.45208 0.68483 0.0
H344 H 0.12134 0.43066 0.92918 0.0
H345 H 0.13025 0.4481 0.86562 0.0
H346 H 0.14238 0.36973 0.82201 0.0
H347 H 0.13426 0.3523 0.88663 0.0
H348 H 0.15712 0.40728 0.78079 0.0
H349 H 0.12309 0.45667 0.80372 0.0
H350 H 0.11349 0.48479 0.74759 0.0
H351 H 0.13198 0.50651 0.68991 0.0
C352 C 0.60601 0.19439 0.42169 0.0
C353 C 0.58835 0.20088 0.45368 0.0
C354 C 0.59515 0.1971 0.3842 0.0
C355 C 0.56623 0.20667 0.37737 0.0
C356 C 0.54864 0.2134 0.4094 0.0
C357 C 0.55953 0.21058 0.44707 0.0
C358 C 0.55302 0.20869 0.33778 0.0
C359 C 0.56856 0.20623 0.30456 0.0
C360 C 0.55485 0.20661 0.26517 0.0
C361 C 0.5734 0.20974 0.23281 0.0
C362 C 0.56154 0.20944 0.19537 0.0
C363 C 0.53077 0.20592 0.18938 0.0
H364 H 0.5089 0.19939 0.28247 0.0
C365 C 0.5123 0.20257 0.2217 0.0
C366 C 0.5241 0.20277 0.25893 0.0
H367 H 0.48849 0.19954 0.21835 0.0
H368 H 0.6283 0.18672 0.42549 0.0
H369 H 0.60947 0.19104 0.36099 0.0
H370 H 0.5262 0.22067 0.40531 0.0
H371 H 0.54528 0.21572 0.47094 0.0
H372 H 0.5293 0.21263 0.33639 0.0
H373 H 0.59259 0.20418 0.3057 0.0
H374 H 0.59723 0.21246 0.23648 0.0
H375 H 0.57644 0.21205 0.17122 0.0
C376 C 0.9535 0.56592 1.04156 0.0
C377 C 0.92581 0.56669 0.06036 0.0
C378 C 0.97266 0.54492 0.04662 0.0
C379 C 0.96478 0.52417 0.071 0.0
C380 C 0.93633 0.5241 0.08807 0.0
C381 C 0.91695 0.54529 0.0829 0.0
C382 C 0.9857 0.50226 0.07799 0.0
C383 C 0.01567 0.50561 0.07772 0.0
C384 C 0.03775 0.48405 0.08059 0.0
C385 C 0.06753 0.489 0.06982 0.0
C386 C 0.08854 0.46883 0.06908 0.0
C387 C 0.08006 0.44331 0.07907 0.0
H388 H 1.00765 0.45404 0.10258 0.0
C389 C 0.05073 0.43863 0.09168 0.0
C390 C 0.02986 0.45872 0.09264 0.0
H391 H 0.04365 0.41922 0.10031 0.0
H392 H 0.96068 0.58186 1.02323 0.0
H393 H 0.99367 0.54508 1.03136 0.0
H394 H 0.9295 0.50803 0.10636 0.0
H395 H 0.89569 0.5454 0.09763 0.0
H396 H 0.97586 0.48319 0.08315 0.0
H397 H 0.02473 0.52516 0.07362 0.0
H398 H 0.07438 0.50839 0.06079 0.0
H399 H 0.111 0.47302 0.05936 0.0
C400 C 0.46749 0.94529 0.56606 0.0
C401 C 0.44178 0.94412 0.58918 0.0
C402 C 0.48508 0.96806 0.5646 0.0
C403 C 0.47744 0.99026 0.58638 0.0
C404 C 0.45168 0.98911 0.6092 0.0
C405 C 0.4342 0.96639 0.61076 0.0
C406 C 0.49491 0.01523 0.58523 0.0
C407 C 0.5239 0.01693 0.57497 0.0
C408 C 0.54137 0.04193 0.57456 0.0
C409 C 0.57266 0.04083 0.57649 0.0
C410 C 0.58999 0.06368 0.57533 0.0
C411 C 0.57653 0.08836 0.57184 0.0
H412 H 0.50388 0.06841 0.56819 0.0
C413 C 0.54517 0.08949 0.56978 0.0
C414 C 0.52782 0.06661 0.571 0.0
H415 H 0.53395 0.10799 0.56628 0.0
H416 H 0.47381 0.92878 0.54849 0.0
H417 H 0.50421 0.96829 0.54573 0.0
H418 H 0.4451 1.00586 0.62619 0.0
H419 H 0.4149 0.96631 0.62932 0.0
H420 H 0.48361 0.03269 0.59514 0.0
H421 H 0.53595 0.99915 0.56829 0.0
H422 H 0.5838 0.02217 0.57907 0.0
H423 H 0.61398 0.06194 0.5774 0.0
C424 C 0.06641 0.56478 0.49706 0.0
C425 C 0.08318 0.55282 0.52633 0.0
C426 C 0.03512 0.56414 0.49787 0.0
C427 C 0.01996 0.55152 0.5281 0.0
C428 C 0.03686 0.53959 0.55718 0.0
C429 C 0.06798 0.54028 0.55642 0.0
C430 C 0.98682 0.54958 0.53055 0.0
C431 C 0.96729 0.5639 0.50991 0.0
C432 C 0.93441 0.56104 0.51472 0.0
C433 C 0.91523 0.56616 0.48365 0.0
C434 C 0.88451 0.56118 0.48666 0.0
C435 C 0.87256 0.55111 0.52088 0.0
H436 H 0.9354 0.55119 0.57546 0.0
C437 C 0.8912 0.5488 0.55294 0.0
C438 C 0.92181 0.55339 0.54995 0.0
H439 H 0.88208 0.54414 0.58058 0.0
H440 H 0.07743 0.57449 0.47334 0.0
H441 H 0.02315 0.57317 0.47445 0.0
H442 H 0.02591 0.52965 0.58078 0.0
H443 H 0.08011 0.53081 0.57942 0.0
H444 H 0.97812 0.53545 0.55099 0.0
H445 H 0.97519 0.57749 0.48827 0.0
H446 H 0.92413 0.5731 0.45661 0.0
H447 H 0.87032 0.56417 0.46183 0.0
C448 C 0.50709 0.93638 0.08768 0.0
C449 C 0.53501 0.92569 0.0784 0.0
C450 C 0.50239 0.96338 0.0859 0.0
C451 C 0.52549 0.98043 0.07435 0.0
C452 C 0.5534 0.96971 0.06523 0.0
C453 C 0.55812 0.94272 0.06718 0.0
C454 C 0.5219 1.00944 0.07294 0.0
C455 C 0.49528 0.0217 0.07201 0.0
C456 C 0.49172 0.05072 0.0714 0.0
C457 C 0.46407 0.06117 0.06028 0.0
C458 C 0.45939 0.08821 0.06023 0.0
C459 C 0.48227 0.10554 0.0714 0.0
H460 H 0.53588 0.06107 0.09302 0.0
C461 C 0.50991 0.09513 0.08272 0.0
C462 C 0.51456 0.0681 0.08293 0.0
H463 H 0.52782 0.10784 0.09234 0.0
H464 H 0.48898 0.92394 0.09727 0.0
H465 H 0.48082 0.97066 0.09449 0.0
H466 H 0.5717 0.98228 0.05649 0.0
H467 H 0.57982 0.93517 0.05957 0.0
H468 H 0.54226 0.02096 0.07138 0.0
H469 H 0.47494 1.01015 0.07038 0.0
H470 H 0.44595 0.04836 0.0515 0.0
H471 H 0.43791 0.09553 0.05109 0.0
C472 C 0.24616 0.34638 1.01914 0.0
C473 C 0.23532 0.36559 0.04423 0.0
C474 C 0.27592 0.33865 1.02066 0.0
C475 C 0.29553 0.34958 0.048 0.0
C476 C 0.28515 0.37004 0.07143 0.0
C477 C 0.25527 0.37802 0.06957 0.0
C478 C 0.3265 0.33967 0.0534 0.0
C479 C 0.33478 0.31519 1.04354 0.0
C480 C 0.36493 0.30404 0.05054 0.0
C481 C 0.37376 0.28212 1.02911 0.0
C482 C 0.4013 0.27021 1.0358 0.0
C483 C 0.42066 0.2798 0.06441 0.0
H484 H 0.37797 0.32989 0.09734 0.0
C485 C 0.41171 0.30168 0.08603 0.0
C486 C 0.38422 0.31365 0.07924 0.0
H487 H 0.42563 0.3093 0.1089 0.0
H488 H 0.2314 0.33683 0.99873 0.0
H489 H 0.28319 0.32387 1.00061 0.0
H490 H 0.29987 0.37915 0.0923 0.0
H491 H 0.24749 0.39291 0.08922 0.0
H492 H 0.34242 0.35265 0.06734 0.0
H493 H 0.31871 0.30218 1.02996 0.0
H494 H 0.35927 0.27416 1.00698 0.0
H495 H 0.40745 0.25362 1.01831 0.0
C496 C 0.77346 0.42033 0.5768 0.0
C497 C 0.79709 0.42652 0.55182 0.0
C498 C 0.75946 0.39579 0.57534 0.0
C499 C 0.76861 0.37677 0.54862 0.0
C500 C 0.79216 0.38303 0.52359 0.0
C501 C 0.80615 0.4076 0.52501 0.0
C502 C 0.75535 0.34986 0.54737 0.0
C503 C 0.72813 0.34367 0.56147 0.0
C504 C 0.71518 0.31665 0.56182 0.0
C505 C 0.68425 0.31358 0.56688 0.0
C506 C 0.67122 0.28868 0.56935 0.0
C507 C 0.68884 0.26606 0.56716 0.0
H508 H 0.75682 0.29531 0.55639 0.0
C509 C 0.71981 0.26909 0.5619 0.0
C510 C 0.73284 0.29401 0.55934 0.0
H511 H 0.7341 0.25218 0.55983 0.0
H512 H 0.76601 0.43431 0.59802 0.0
H513 H 0.74207 0.39169 0.59597 0.0
H514 H 0.79992 0.36878 0.5029 0.0
H515 H 0.82434 0.41162 0.50543 0.0
H516 H 0.76838 0.33484 0.53329 0.0
H517 H 0.71408 0.35916 0.57249 0.0
H518 H 0.67003 0.33057 0.56928 0.0
H519 H 0.64741 0.28725 0.57394 0.0
C520 C 0.77864 0.69346 0.06491 0.0
C521 C 0.7847 0.6665 0.06537 0.0
C522 C 0.74942 0.70258 0.06684 0.0
C523 C 0.72527 0.68498 0.06896 0.0
C524 C 0.73125 0.658 0.06983 0.0
C525 C 0.76067 0.64881 0.06786 0.0
C526 C 0.69392 0.69431 0.07247 0.0
C527 C 0.6849 0.71798 0.05985 0.0
C528 C 0.65444 0.72878 0.0659 0.0
C529 C 0.64498 0.74987 1.04313 0.0
C530 C 0.61719 0.76152 0.04919 0.0
C531 C 0.59821 0.75244 0.07841 0.0
H532 H 0.64223 0.70422 0.1144 0.0
C533 C 0.60777 0.73141 0.10133 0.0
C534 C 0.63551 0.71976 0.09526 0.0
H535 H 0.59412 0.72424 0.12467 0.0
H536 H 0.79656 0.70772 0.06337 0.0
H537 H 0.74606 0.7235 0.06758 0.0
H538 H 0.71312 0.64398 0.07197 0.0
H539 H 0.76458 0.62794 0.06845 0.0
H540 H 0.67787 0.681 0.08531 0.0
H541 H 0.70038 0.73012 1.04374 0.0
H542 H 0.65918 0.75742 1.02052 0.0
H543 H 0.61053 0.7775 1.03079 0.0
C544 C 0.29246 0.76806 0.58691 0.0
C545 C 0.32353 0.76981 0.58156 0.0
C546 C 0.27781 0.74378 0.5866 0.0
C547 C 0.2939 0.72051 0.58103 0.0
C548 C 0.32494 0.72227 0.5758 0.0
C549 C 0.33961 0.74655 0.57629 0.0
C550 C 0.27901 0.6943 0.57864 0.0
C551 C 0.25217 0.68878 0.59438 0.0
C552 C 0.23704 0.66272 0.59167 0.0
C553 C 0.21546 0.65606 0.61924 0.0
C554 C 0.20018 0.63212 0.61738 0.0
C555 C 0.20579 0.6143 0.58753 0.0
H556 H 0.25839 0.64955 0.53916 0.0
C557 C 0.22716 0.62104 0.55963 0.0
C558 C 0.2426 0.64494 0.56163 0.0
H559 H 0.23197 0.60785 0.53612 0.0
H560 H 0.27935 0.7855 0.59127 0.0
H561 H 0.25381 0.74351 0.58977 0.0
H562 H 0.33794 0.70477 0.57109 0.0
H563 H 0.36346 0.7471 0.57154 0.0
H564 H 0.29129 0.6788 0.56453 0.0
H565 H 0.24114 0.7036 0.61147 0.0
H566 H 0.21045 0.6694 0.64251 0.0
H567 H 0.18383 0.62768 0.63931 0.0
loop_
_geom_bond_atom_site_label_1
_geom_bond_atom_site_label_2
_geom_bond_distance
_geom_bond_site_symmetry_2
_ccdc_geom_bond_type
Cu0 N1 1.999 1_554 S
Cu0 O6 1.974 . S
Cu0 N11 1.985 . S
Cu0 O20 1.959 . S
N1 Cu0 1.999 1_556 S
N1 C3 1.263 . S
N1 C5 1.389 . S
N2 C3 1.358 . S
N2 C4 1.400 . S
C3 N1 1.263 . S
C3 N2 1.358 . S
C3 H9 0.930 . S
C4 N2 1.400 . S
C4 C5 1.351 . S
C4 H21 0.930 . S
C5 N1 1.389 . S
C5 C4 1.351 . S
C5 H10 0.930 . S
O6 Cu0 1.974 . S
O6 C16 1.282 . S
C7 O8 1.261 . S
C7 O20 1.251 . S
O8 C7 1.261 . S
H9 C3 0.930 . S
H10 C5 0.930 . S
N11 Cu0 1.985 . S
N11 C13 1.335 . S
N11 C14 1.390 . S
N12 C13 1.345 . S
N12 C15 1.336 . S
C13 N11 1.335 . S
C13 N12 1.345 . S
C13 H18 0.930 . S
C14 N11 1.390 . S
C14 C15 1.346 . S
C14 H19 0.930 . S
C15 N12 1.336 . S
C15 C14 1.346 . S
C15 H22 0.929 . S
C16 O6 1.282 . S
C16 O17 1.216 . S
O17 C16 1.216 . S
H18 C13 0.930 . S
H19 C14 0.930 . S
O20 Cu0 1.959 . S
O20 C7 1.251 . S
H21 C4 0.930 . S
H22 C15 0.929 . S
Cu23 N24 1.999 . S
Cu23 O29 1.974 . S
Cu23 N34 1.985 . S
Cu23 O43 1.959 . S
N24 Cu23 1.999 . S
N24 C26 1.263 . S
N24 C28 1.389 . S
N25 C26 1.358 . S
N25 C27 1.400 . S
C26 N24 1.263 . S
C26 N25 1.358 . S
C26 H32 0.930 . S
C27 N25 1.400 . S
C27 C28 1.351 . S
C27 H44 0.930 . S
C28 N24 1.389 . S
C28 C27 1.351 . S
C28 H33 0.930 . S
O29 Cu23 1.974 . S
O29 C39 1.282 . S
C30 O31 1.261 . S
C30 O43 1.251 . S
O31 C30 1.261 . S
H32 C26 0.930 . S
H33 C28 0.930 . S
N34 Cu23 1.985 . S
N34 C36 1.335 . S
N34 C37 1.390 . S
N35 C36 1.345 . S
N35 C38 1.336 . S
C36 N34 1.335 . S
C36 N35 1.345 . S
C36 H41 0.930 . S
C37 N34 1.390 . S
C37 C38 1.346 . S
C37 H42 0.930 . S
C38 N35 1.336 . S
C38 C37 1.346 . S
C38 H45 0.929 . S
C39 O29 1.282 . S
C39 O40 1.216 . S
O40 C39 1.216 . S
H41 C36 0.930 . S
H42 C37 0.930 . S
O43 Cu23 1.959 . S
O43 C30 1.251 . S
H44 C27 0.930 . S
H45 C38 0.929 . S
Cu46 N47 1.999 1_554 S
Cu46 O52 1.974 . S
Cu46 N57 1.985 . S
Cu46 O66 1.959 . S
N47 Cu46 1.999 1_556 S
N47 C49 1.263 . S
N47 C51 1.389 . S
N48 C49 1.358 . S
N48 C50 1.400 . S
C49 N47 1.263 . S
C49 N48 1.358 . S
C49 H55 0.930 . S
C50 N48 1.400 . S
C50 C51 1.351 . S
C50 H67 0.930 . S
C51 N47 1.389 . S
C51 C50 1.351 . S
C51 H56 0.930 . S
O52 Cu46 1.974 . S
O52 C62 1.282 . S
C53 O54 1.261 . S
C53 O66 1.251 . S
O54 C53 1.261 . S
H55 C49 0.930 . S
H56 C51 0.930 . S
N57 Cu46 1.985 . S
N57 C59 1.335 . S
N57 C60 1.390 . S
N58 C59 1.345 . S
N58 C61 1.336 . S
C59 N57 1.335 . S
C59 N58 1.345 . S
C59 H64 0.930 . S
C60 N57 1.390 . S
C60 C61 1.346 . S
C60 H65 0.930 . S
C61 N58 1.336 . S
C61 C60 1.346 . S
C61 H68 0.929 . S
C62 O52 1.282 . S
C62 O63 1.216 . S
O63 C62 1.216 . S
H64 C59 0.930 . S
H65 C60 0.930 . S
O66 Cu46 1.959 . S
O66 C53 1.251 . S
H67 C50 0.930 . S
H68 C61 0.929 . S
Cu69 N70 1.999 . S
Cu69 O75 1.974 . S
Cu69 N80 1.985 . S
Cu69 O89 1.959 . S
N70 Cu69 1.999 . S
N70 C72 1.263 . S
N70 C74 1.389 . S
N71 C72 1.358 . S
N71 C73 1.400 . S
C72 N70 1.263 . S
C72 N71 1.358 . S
C72 H78 0.930 . S
C73 N71 1.400 . S
C73 C74 1.351 . S
C73 H90 0.930 . S
C74 N70 1.389 . S
C74 C73 1.351 . S
C74 H79 0.930 . S
O75 Cu69 1.974 . S
O75 C85 1.282 . S
C76 O77 1.261 . S
C76 O89 1.251 . S
O77 C76 1.261 . S
H78 C72 0.930 . S
H79 C74 0.930 . S
N80 Cu69 1.985 . S
N80 C82 1.335 . S
N80 C83 1.390 . S
N81 C82 1.345 . S
N81 C84 1.336 . S
C82 N80 1.335 . S
C82 N81 1.345 . S
C82 H87 0.930 . S
C83 N80 1.390 . S
C83 C84 1.346 . S
C83 H88 0.930 . S
C84 N81 1.336 . S
C84 C83 1.346 . S
C84 H91 0.929 . S
C85 O75 1.282 . S
C85 O86 1.216 . S
O86 C85 1.216 . S
H87 C82 0.930 . S
H88 C83 0.930 . S
O89 Cu69 1.959 . S
O89 C76 1.251 . S
H90 C73 0.930 . S
H91 C84 0.929 . S
Cu92 N93 1.999 . S
Cu92 O98 1.974 . S
Cu92 N103 1.985 . S
Cu92 O112 1.959 . S
N93 Cu92 1.999 . S
N93 C95 1.263 . S
N93 C97 1.389 . S
N94 C95 1.358 . S
N94 C96 1.400 . S
C95 N93 1.263 . S
C95 N94 1.358 . S
C95 H101 0.930 . S
C96 N94 1.400 . S
C96 C97 1.351 . S
C96 H113 0.930 . S
C97 N93 1.389 . S
C97 C96 1.351 . S
C97 H102 0.930 . S
O98 Cu92 1.974 . S
O98 C108 1.282 . S
C99 O100 1.261 . S
C99 O112 1.251 . S
O100 C99 1.261 . S
H101 C95 0.930 . S
H102 C97 0.930 . S
N103 Cu92 1.985 . S
N103 C105 1.335 . S
N103 C106 1.390 . S
N104 C105 1.345 . S
N104 C107 1.336 . S
C105 N103 1.335 . S
C105 N104 1.345 . S
C105 H110 0.930 . S
C106 N103 1.390 . S
C106 C107 1.346 . S
C106 H111 0.930 . S
C107 N104 1.336 . S
C107 C106 1.346 . S
C107 H114 0.929 . S
C108 O98 1.282 . S
C108 O109 1.216 . S
O109 C108 1.216 . S
H110 C105 0.930 . S
H111 C106 0.930 . S
O112 Cu92 1.959 . S
O112 C99 1.251 . S
H113 C96 0.930 . S
H114 C107 0.929 . S
Cu115 N116 1.999 . S
Cu115 O121 1.974 1_554 S
Cu115 N126 1.985 . S
Cu115 O135 1.959 . S
N116 Cu115 1.999 . S
N116 C118 1.263 1_554 S
N116 C120 1.389 . S
N117 C118 1.358 1_554 S
N117 C119 1.400 . S
C118 N116 1.263 1_556 S
C118 N117 1.358 1_556 S
C118 H124 0.930 . S
C119 N117 1.400 . S
C119 C120 1.351 . S
C119 H136 0.930 . S
C120 N116 1.389 . S
C120 C119 1.351 . S
C120 H125 0.930 . S
O121 Cu115 1.974 1_556 S
O121 C131 1.282 . S
C122 O123 1.261 . S
C122 O135 1.251 . S
O123 C122 1.261 . S
H124 C118 0.930 . S
H125 C120 0.930 . S
N126 Cu115 1.985 . S
N126 C128 1.335 . S
N126 C129 1.390 1_554 S
N127 C128 1.345 . S
N127 C130 1.336 1_554 S
C128 N126 1.335 . S
C128 N127 1.345 . S
C128 H133 0.930 . S
C129 N126 1.390 1_556 S
C129 C130 1.346 . S
C129 H134 0.930 . S
C130 N127 1.336 1_556 S
C130 C129 1.346 . S
C130 H137 0.929 . S
C131 O121 1.282 . S
C131 O132 1.216 . S
O132 C131 1.216 . S
H133 C128 0.930 . S
H134 C129 0.930 . S
O135 Cu115 1.959 . S
O135 C122 1.251 . S
H136 C119 0.930 . S
H137 C130 0.929 . S
Cu138 N139 1.999 . S
Cu138 O144 1.974 . S
Cu138 N149 1.985 . S
Cu138 O158 1.959 . S
N139 Cu138 1.999 . S
N139 C141 1.263 . S
N139 C143 1.389 . S
N140 C141 1.358 . S
N140 C142 1.400 . S
C141 N139 1.263 . S
C141 N140 1.358 . S
C141 H147 0.930 . S
C142 N140 1.400 . S
C142 C143 1.351 . S
C142 H159 0.930 . S
C143 N139 1.389 . S
C143 C142 1.351 . S
C143 H148 0.930 . S
O144 Cu138 1.974 . S
O144 C154 1.282 . S
C145 O146 1.261 . S
C145 O158 1.251 . S
O146 C145 1.261 . S
H147 C141 0.930 . S
H148 C143 0.930 . S
N149 Cu138 1.985 . S
N149 C151 1.335 . S
N149 C152 1.390 . S
N150 C151 1.345 . S
N150 C153 1.336 . S
C151 N149 1.335 . S
C151 N150 1.345 . S
C151 H156 0.930 . S
C152 N149 1.390 . S
C152 C153 1.346 . S
C152 H157 0.930 . S
C153 N150 1.336 . S
C153 C152 1.346 . S
C153 H160 0.929 . S
C154 O144 1.282 . S
C154 O155 1.216 . S
O155 C154 1.216 . S
H156 C151 0.930 . S
H157 C152 0.930 . S
O158 Cu138 1.959 . S
O158 C145 1.251 . S
H159 C142 0.930 . S
H160 C153 0.929 . S
Cu161 N162 1.999 . S
Cu161 O167 1.974 1_554 S
Cu161 N172 1.985 . S
Cu161 O181 1.959 . S
N162 Cu161 1.999 . S
N162 C164 1.263 1_554 S
N162 C166 1.389 . S
N163 C164 1.358 1_554 S
N163 C165 1.400 . S
C164 N162 1.263 1_556 S
C164 N163 1.358 1_556 S
C164 H170 0.930 . S
C165 N163 1.400 . S
C165 C166 1.351 . S
C165 H182 0.930 . S
C166 N162 1.389 . S
C166 C165 1.351 . S
C166 H171 0.930 . S
O167 Cu161 1.974 1_556 S
O167 C177 1.282 . S
C168 O169 1.261 . S
C168 O181 1.251 . S
O169 C168 1.261 . S
H170 C164 0.930 . S
H171 C166 0.930 . S
N172 Cu161 1.985 . S
N172 C174 1.335 . S
N172 C175 1.390 1_554 S
N173 C174 1.345 . S
N173 C176 1.336 1_554 S
C174 N172 1.335 . S
C174 N173 1.345 . S
C174 H179 0.930 . S
C175 N172 1.390 1_556 S
C175 C176 1.346 . S
C175 H180 0.930 . S
C176 N173 1.336 1_556 S
C176 C175 1.346 . S
C176 H183 0.929 . S
C177 O167 1.282 . S
C177 O178 1.216 . S
O178 C177 1.216 . S
H179 C174 0.930 . S
H180 C175 0.930 . S
O181 Cu161 1.959 . S
O181 C168 1.251 . S
H182 C165 0.930 . S
H183 C176 0.929 . S
C184 C185 1.386 . S
C184 C186 1.383 . S
C184 H200 0.951 . S
C185 C184 1.386 . S
C185 C189 1.383 . S
C186 C184 1.383 . S
C186 C187 1.402 . S
C186 H201 0.951 . S
C187 C186 1.402 . S
C187 C188 1.375 . S
C187 C190 1.481 . S
C188 C187 1.375 . S
C188 C189 1.367 . S
C188 H202 0.951 . S
C189 C185 1.383 . S
C189 C188 1.367 . S
C189 H203 0.950 . S
C190 C187 1.481 . S
C190 C191 1.297 . S
C190 H204 0.950 . S
C191 C190 1.297 . S
C191 C192 1.479 . S
C191 H205 0.950 . S
C192 C191 1.479 . S
C192 C193 1.375 . S
C192 C198 1.404 . S
C193 C192 1.375 . S
C193 C194 1.369 . S
C193 H206 0.950 . S
C194 C193 1.369 . S
C194 C195 1.392 . S
C194 H207 0.951 . S
C195 C194 1.392 . S
C195 C197 1.384 . S
H196 C198 0.949 . S
C197 C195 1.384 . S
C197 C198 1.385 . S
C197 H199 0.950 . S
C198 C192 1.404 . S
C198 H196 0.949 . S
C198 C197 1.385 . S
H199 C197 0.950 . S
H200 C184 0.951 . S
H201 C186 0.951 . S
H202 C188 0.951 . S
H203 C189 0.950 . S
H204 C190 0.950 . S
H205 C191 0.950 . S
H206 C193 0.950 . S
H207 C194 0.951 . S
C208 C209 1.386 . S
C208 C210 1.383 . S
C208 H224 0.951 . S
C209 C208 1.386 . S
C209 C213 1.383 . S
C210 C208 1.383 . S
C210 C211 1.402 . S
C210 H225 0.951 . S
C211 C210 1.402 . S
C211 C212 1.375 . S
C211 C214 1.481 . S
C212 C211 1.375 . S
C212 C213 1.367 . S
C212 H226 0.951 . S
C213 C209 1.383 . S
C213 C212 1.367 . S
C213 H227 0.950 . S
C214 C211 1.481 . S
C214 C215 1.297 . S
C214 H228 0.950 . S
C215 C214 1.297 . S
C215 C216 1.479 . S
C215 H229 0.950 . S
C216 C215 1.479 . S
C216 C217 1.375 . S
C216 C222 1.404 . S
C217 C216 1.375 . S
C217 C218 1.369 . S
C217 H230 0.950 . S
C218 C217 1.369 . S
C218 C219 1.392 . S
C218 H231 0.951 . S
C219 C218 1.392 . S
C219 C221 1.384 . S
H220 C222 0.949 . S
C221 C219 1.384 . S
C221 C222 1.385 . S
C221 H223 0.950 . S
C222 C216 1.404 . S
C222 H220 0.949 . S
C222 C221 1.385 . S
H223 C221 0.950 . S
H224 C208 0.951 . S
H225 C210 0.951 . S
H226 C212 0.951 . S
H227 C213 0.950 . S
H228 C214 0.950 . S
H229 C215 0.950 . S
H230 C217 0.950 . S
H231 C218 0.951 . S
C232 C233 1.386 . S
C232 C234 1.383 . S
C232 H248 0.951 . S
C233 C232 1.386 . S
C233 C237 1.383 . S
C234 C232 1.383 . S
C234 C235 1.402 . S
C234 H249 0.951 . S
C235 C234 1.402 . S
C235 C236 1.375 . S
C235 C238 1.481 . S
C236 C235 1.375 . S
C236 C237 1.367 . S
C236 H250 0.951 . S
C237 C233 1.383 . S
C237 C236 1.367 . S
C237 H251 0.950 . S
C238 C235 1.481 . S
C238 C239 1.297 . S
C238 H252 0.950 . S
C239 C238 1.297 . S
C239 C240 1.479 . S
C239 H253 0.950 . S
C240 C239 1.479 . S
C240 C241 1.375 . S
C240 C246 1.404 . S
C241 C240 1.375 . S
C241 C242 1.369 . S
C241 H254 0.950 . S
C242 C241 1.369 . S
C242 C243 1.392 . S
C242 H255 0.951 . S
C243 C242 1.392 . S
C243 C245 1.384 . S
H244 C246 0.949 . S
C245 C243 1.384 . S
C245 C246 1.385 . S
C245 H247 0.950 . S
C246 C240 1.404 . S
C246 H244 0.949 . S
C246 C245 1.385 . S
H247 C245 0.950 . S
H248 C232 0.951 . S
H249 C234 0.951 . S
H250 C236 0.951 . S
H251 C237 0.950 . S
H252 C238 0.950 . S
H253 C239 0.950 . S
H254 C241 0.950 . S
H255 C242 0.951 . S
C256 C257 1.386 . S
C256 C258 1.383 . S
C256 H272 0.951 . S
C257 C256 1.386 . S
C257 C261 1.383 . S
C258 C256 1.383 . S
C258 C259 1.402 . S
C258 H273 0.951 . S
C259 C258 1.402 . S
C259 C260 1.375 . S
C259 C262 1.481 . S
C260 C259 1.375 . S
C260 C261 1.367 . S
C260 H274 0.951 . S
C261 C257 1.383 . S
C261 C260 1.367 . S
C261 H275 0.950 . S
C262 C259 1.481 . S
C262 C263 1.297 . S
C262 H276 0.950 . S
C263 C262 1.297 . S
C263 C264 1.479 . S
C263 H277 0.950 . S
C264 C263 1.479 . S
C264 C265 1.375 . S
C264 C270 1.404 . S
C265 C264 1.375 . S
C265 C266 1.369 . S
C265 H278 0.950 . S
C266 C265 1.369 . S
C266 C267 1.392 . S
C266 H279 0.951 . S
C267 C266 1.392 . S
C267 C269 1.384 . S
H268 C270 0.949 . S
C269 C267 1.384 . S
C269 C270 1.385 . S
C269 H271 0.950 . S
C270 C264 1.404 . S
C270 H268 0.949 . S
C270 C269 1.385 . S
H271 C269 0.950 . S
H272 C256 0.951 . S
H273 C258 0.951 . S
H274 C260 0.951 . S
H275 C261 0.950 . S
H276 C262 0.950 . S
H277 C263 0.950 . S
H278 C265 0.950 . S
H279 C266 0.951 . S
C280 C281 1.386 . S
C280 C282 1.383 . S
C280 H296 0.951 . S
C281 C280 1.386 . S
C281 C285 1.383 . S
C282 C280 1.383 . S
C282 C283 1.402 . S
C282 H297 0.951 . S
C283 C282 1.402 . S
C283 C284 1.375 . S
C283 C286 1.481 . S
C284 C283 1.375 . S
C284 C285 1.367 . S
C284 H298 0.951 . S
C285 C281 1.383 . S
C285 C284 1.367 . S
C285 H299 0.950 . S
C286 C283 1.481 . S
C286 C287 1.297 . S
C286 H300 0.950 . S
C287 C286 1.297 . S
C287 C288 1.479 . S
C287 H301 0.950 . S
C288 C287 1.479 . S
C288 C289 1.375 . S
C288 C294 1.404 . S
C289 C288 1.375 . S
C289 C290 1.369 . S
C289 H302 0.950 . S
C290 C289 1.369 . S
C290 C291 1.392 . S
C290 H303 0.951 . S
C291 C290 1.392 . S
C291 C293 1.384 . S
H292 C294 0.949 . S
C293 C291 1.384 . S
C293 C294 1.385 . S
C293 H295 0.950 . S
C294 C288 1.404 . S
C294 H292 0.949 . S
C294 C293 1.385 . S
H295 C293 0.950 . S
H296 C280 0.951 . S
H297 C282 0.951 . S
H298 C284 0.951 . S
H299 C285 0.950 . S
H300 C286 0.950 . S
H301 C287 0.950 . S
H302 C289 0.950 . S
H303 C290 0.951 . S
C304 C305 1.386 . S
C304 C306 1.383 . S
C304 H320 0.951 . S
C305 C304 1.386 . S
C305 C309 1.383 . S
C306 C304 1.383 . S
C306 C307 1.402 . S
C306 H321 0.951 . S
C307 C306 1.402 . S
C307 C308 1.375 . S
C307 C310 1.481 . S
C308 C307 1.375 . S
C308 C309 1.367 . S
C308 H322 0.951 . S
C309 C305 1.383 . S
C309 C308 1.367 . S
C309 H323 0.950 . S
C310 C307 1.481 . S
C310 C311 1.297 . S
C310 H324 0.950 . S
C311 C310 1.297 . S
C311 C312 1.479 . S
C311 H325 0.950 . S
C312 C311 1.479 . S
C312 C313 1.375 . S
C312 C318 1.404 . S
C313 C312 1.375 . S
C313 C314 1.369 . S
C313 H326 0.950 . S
C314 C313 1.369 . S
C314 C315 1.392 . S
C314 H327 0.951 . S
C315 C314 1.392 . S
C315 C317 1.384 . S
H316 C318 0.949 . S
C317 C315 1.384 . S
C317 C318 1.385 . S
C317 H319 0.950 . S
C318 C312 1.404 . S
C318 H316 0.949 . S
C318 C317 1.385 . S
H319 C317 0.950 . S
H320 C304 0.951 . S
H321 C306 0.951 . S
H322 C308 0.951 . S
H323 C309 0.950 . S
H324 C310 0.950 . S
H325 C311 0.950 . S
H326 C313 0.950 . S
H327 C314 0.951 . S
C328 C329 1.386 . S
C328 C330 1.383 . S
C328 H344 0.951 . S
C329 C328 1.386 . S
C329 C333 1.383 . S
C330 C328 1.383 . S
C330 C331 1.402 . S
C330 H345 0.951 . S
C331 C330 1.402 . S
C331 C332 1.375 . S
C331 C334 1.481 . S
C332 C331 1.375 . S
C332 C333 1.367 . S
C332 H346 0.951 . S
C333 C329 1.383 . S
C333 C332 1.367 . S
C333 H347 0.950 . S
C334 C331 1.481 . S
C334 C335 1.297 . S
C334 H348 0.950 . S
C335 C334 1.297 . S
C335 C336 1.479 . S
C335 H349 0.950 . S
C336 C335 1.479 . S
C336 C337 1.375 . S
C336 C342 1.404 . S
C337 C336 1.375 . S
C337 C338 1.369 . S
C337 H350 0.950 . S
C338 C337 1.369 . S
C338 C339 1.392 . S
C338 H351 0.951 . S
C339 C338 1.392 . S
C339 C341 1.384 . S
H340 C342 0.949 . S
C341 C339 1.384 . S
C341 C342 1.385 . S
C341 H343 0.950 . S
C342 C336 1.404 . S
C342 H340 0.949 . S
C342 C341 1.385 . S
H343 C341 0.950 . S
H344 C328 0.951 . S
H345 C330 0.951 . S
H346 C332 0.951 . S
H347 C333 0.950 . S
H348 C334 0.950 . S
H349 C335 0.950 . S
H350 C337 0.950 . S
H351 C338 0.951 . S
C352 C353 1.386 . S
C352 C354 1.383 . S
C352 H368 0.951 . S
C353 C352 1.386 . S
C353 C357 1.383 . S
C354 C352 1.383 . S
C354 C355 1.402 . S
C354 H369 0.951 . S
C355 C354 1.402 . S
C355 C356 1.375 . S
C355 C358 1.481 . S
C356 C355 1.375 . S
C356 C357 1.367 . S
C356 H370 0.951 . S
C357 C353 1.383 . S
C357 C356 1.367 . S
C357 H371 0.950 . S
C358 C355 1.481 . S
C358 C359 1.297 . S
C358 H372 0.950 . S
C359 C358 1.297 . S
C359 C360 1.479 . S
C359 H373 0.950 . S
C360 C359 1.479 . S
C360 C361 1.375 . S
C360 C366 1.404 . S
C361 C360 1.375 . S
C361 C362 1.369 . S
C361 H374 0.950 . S
C362 C361 1.369 . S
C362 C363 1.392 . S
C362 H375 0.951 . S
C363 C362 1.392 . S
C363 C365 1.384 . S
H364 C366 0.949 . S
C365 C363 1.384 . S
C365 C366 1.385 . S
C365 H367 0.950 . S
C366 C360 1.404 . S
C366 H364 0.949 . S
C366 C365 1.385 . S
H367 C365 0.950 . S
H368 C352 0.951 . S
H369 C354 0.951 . S
H370 C356 0.951 . S
H371 C357 0.950 . S
H372 C358 0.950 . S
H373 C359 0.950 . S
H374 C361 0.950 . S
H375 C362 0.951 . S
C376 C377 1.386 . S
C376 C378 1.383 . S
C376 H392 0.951 . S
C377 C376 1.386 . S
C377 C381 1.383 . S
C378 C376 1.383 . S
C378 C379 1.402 . S
C378 H393 0.951 . S
C379 C378 1.402 . S
C379 C380 1.375 . S
C379 C382 1.481 . S
C380 C379 1.375 . S
C380 C381 1.367 . S
C380 H394 0.951 . S
C381 C377 1.383 . S
C381 C380 1.367 . S
C381 H395 0.950 . S
C382 C379 1.481 . S
C382 C383 1.297 1_655 S
C382 H396 0.950 . S
C383 C382 1.297 1_455 S
C383 C384 1.479 . S
C383 H397 0.950 . S
C384 C383 1.479 . S
C384 C385 1.375 . S
C384 C390 1.404 . S
C385 C384 1.375 . S
C385 C386 1.369 . S
C385 H398 0.950 1_554 S
C386 C385 1.369 . S
C386 C387 1.392 . S
C386 H399 0.951 1_554 S
C387 C386 1.392 . S
C387 C389 1.384 . S
H388 C390 0.949 . S
C389 C387 1.384 . S
C389 C390 1.385 . S
C389 H391 0.950 . S
C390 C384 1.404 . S
C390 H388 0.949 . S
C390 C389 1.385 . S
H391 C389 0.950 . S
H392 C376 0.951 . S
H393 C378 0.951 . S
H394 C380 0.951 . S
H395 C381 0.950 . S
H396 C382 0.950 . S
H397 C383 0.950 . S
H398 C385 0.950 1_556 S
H399 C386 0.951 1_556 S
C400 C401 1.386 . S
C400 C402 1.383 . S
C400 H416 0.951 . S
C401 C400 1.386 . S
C401 C405 1.383 . S
C402 C400 1.383 . S
C402 C403 1.402 . S
C402 H417 0.951 . S
C403 C402 1.402 . S
C403 C404 1.375 . S
C403 C406 1.481 . S
C404 C403 1.375 . S
C404 C405 1.367 . S
C404 H418 0.951 . S
C405 C401 1.383 . S
C405 C404 1.367 . S
C405 H419 0.950 . S
C406 C403 1.481 . S
C406 C407 1.297 1_565 S
C406 H420 0.950 . S
C407 C406 1.297 1_545 S
C407 C408 1.479 . S
C407 H421 0.950 . S
C408 C407 1.479 . S
C408 C409 1.375 . S
C408 C414 1.404 . S
C409 C408 1.375 . S
C409 C410 1.369 . S
C409 H422 0.950 . S
C410 C409 1.369 . S
C410 C411 1.392 . S
C410 H423 0.951 . S
C411 C410 1.392 . S
C411 C413 1.384 . S
H412 C414 0.949 . S
C413 C411 1.384 . S
C413 C414 1.385 . S
C413 H415 0.950 . S
C414 C408 1.404 . S
C414 H412 0.949 . S
C414 C413 1.385 . S
H415 C413 0.950 . S
H416 C400 0.951 . S
H417 C402 0.951 . S
H418 C404 0.951 . S
H419 C405 0.950 . S
H420 C406 0.950 . S
H421 C407 0.950 . S
H422 C409 0.950 . S
H423 C410 0.951 . S
C424 C425 1.386 . S
C424 C426 1.383 . S
C424 H440 0.951 . S
C425 C424 1.386 . S
C425 C429 1.383 . S
C426 C424 1.383 . S
C426 C427 1.402 . S
C426 H441 0.951 . S
C427 C426 1.402 . S
C427 C428 1.375 . S
C427 C430 1.481 . S
C428 C427 1.375 . S
C428 C429 1.367 . S
C428 H442 0.951 . S
C429 C425 1.383 . S
C429 C428 1.367 . S
C429 H443 0.950 . S
C430 C427 1.481 . S
C430 C431 1.297 1_455 S
C430 H444 0.950 . S
C431 C430 1.297 1_655 S
C431 C432 1.479 . S
C431 H445 0.950 . S
C432 C431 1.479 . S
C432 C433 1.375 . S
C432 C438 1.404 . S
C433 C432 1.375 . S
C433 C434 1.369 . S
C433 H446 0.950 . S
C434 C433 1.369 . S
C434 C435 1.392 . S
C434 H447 0.951 . S
C435 C434 1.392 . S
C435 C437 1.384 . S
H436 C438 0.949 . S
C437 C435 1.384 . S
C437 C438 1.385 . S
C437 H439 0.950 . S
C438 C432 1.404 . S
C438 H436 0.949 . S
C438 C437 1.385 . S
H439 C437 0.950 . S
H440 C424 0.951 . S
H441 C426 0.951 . S
H442 C428 0.951 . S
H443 C429 0.950 . S
H444 C430 0.950 . S
H445 C431 0.950 . S
H446 C433 0.950 . S
H447 C434 0.951 . S
C448 C449 1.386 . S
C448 C450 1.385 . S
C448 H464 0.951 . S
C449 C448 1.386 . S
C449 C453 1.381 1_556 S
C450 C448 1.385 . S
C450 C451 1.400 1_556 S
C450 H465 0.951 . S
C451 C450 1.400 1_554 S
C451 C452 1.375 . S
C451 C454 1.481 . S
C452 C451 1.375 . S
C452 C453 1.369 . S
C452 H466 0.951 . S
C453 C449 1.381 1_554 S
C453 C452 1.369 . S
C453 H467 0.951 . S
C454 C451 1.481 . S
C454 C455 1.297 1_565 S
C454 H468 0.950 . S
C455 C454 1.297 1_545 S
C455 C456 1.479 . S
C455 H469 0.950 . S
C456 C455 1.479 . S
C456 C457 1.375 . S
C456 C462 1.404 . S
C457 C456 1.375 . S
C457 C458 1.369 1_554 S
C457 H470 0.950 . S
C458 C457 1.369 1_556 S
C458 C459 1.394 . S
C458 H471 0.951 . S
C459 C458 1.394 . S
C459 C461 1.378 1_556 S
H460 C462 0.949 . S
C461 C459 1.378 1_554 S
C461 C462 1.385 . S
C461 H463 0.950 . S
C462 C456 1.404 . S
C462 H460 0.949 . S
C462 C461 1.385 . S
H463 C461 0.950 . S
H464 C448 0.951 . S
H465 C450 0.951 . S
H466 C452 0.951 . S
H467 C453 0.951 . S
H468 C454 0.950 . S
H469 C455 0.950 . S
H470 C457 0.950 . S
H471 C458 0.951 . S
C472 C473 1.386 1_556 S
C472 C474 1.382 1_556 S
C472 H488 0.951 . S
C473 C472 1.386 1_554 S
C473 C477 1.383 . S
C474 C472 1.382 1_554 S
C474 C475 1.407 . S
C474 H489 0.946 1_554 S
C475 C474 1.407 . S
C475 C476 1.375 . S
C475 C478 1.481 . S
C476 C475 1.375 . S
C476 C477 1.367 . S
C476 H490 0.951 . S
C477 C473 1.383 . S
C477 C476 1.367 . S
C477 H491 0.950 . S
C478 C475 1.481 . S
C478 C479 1.297 . S
C478 H492 0.950 . S
C479 C478 1.297 . S
C479 C480 1.479 . S
C479 H493 0.950 1_554 S
C480 C479 1.479 . S
C480 C481 1.375 1_554 S
C480 C486 1.404 . S
C481 C480 1.375 1_556 S
C481 C482 1.369 . S
C481 H494 0.950 . S
C482 C481 1.369 . S
C482 C483 1.392 1_556 S
C482 H495 0.951 . S
C483 C482 1.392 1_554 S
C483 C485 1.384 . S
H484 C486 0.949 . S
C485 C483 1.384 . S
C485 C486 1.385 . S
C485 H487 0.950 . S
C486 C480 1.404 . S
C486 H484 0.949 . S
C486 C485 1.385 . S
H487 C485 0.950 . S
H488 C472 0.951 . S
H489 C474 0.946 1_556 S
H490 C476 0.951 . S
H491 C477 0.950 . S
H492 C478 0.950 . S
H493 C479 0.950 1_556 S
H494 C481 0.950 . S
H495 C482 0.951 . S
C496 C497 1.386 . S
C496 C498 1.383 . S
C496 H512 0.951 . S
C497 C496 1.386 . S
C497 C501 1.383 . S
C498 C496 1.383 . S
C498 C499 1.402 . S
C498 H513 0.951 . S
C499 C498 1.402 . S
C499 C500 1.375 . S
C499 C502 1.481 . S
C500 C499 1.375 . S
C500 C501 1.367 . S
C500 H514 0.951 . S
C501 C497 1.383 . S
C501 C500 1.367 . S
C501 H515 0.950 . S
C502 C499 1.481 . S
C502 C503 1.297 . S
C502 H516 0.950 . S
C503 C502 1.297 . S
C503 C504 1.479 . S
C503 H517 0.950 . S
C504 C503 1.479 . S
C504 C505 1.375 . S
C504 C510 1.404 . S
C505 C504 1.375 . S
C505 C506 1.369 . S
C505 H518 0.950 . S
C506 C505 1.369 . S
C506 C507 1.392 . S
C506 H519 0.951 . S
C507 C506 1.392 . S
C507 C509 1.384 . S
H508 C510 0.949 . S
C509 C507 1.384 . S
C509 C510 1.385 . S
C509 H511 0.950 . S
C510 C504 1.404 . S
C510 H508 0.949 . S
C510 C509 1.385 . S
H511 C509 0.950 . S
H512 C496 0.951 . S
H513 C498 0.951 . S
H514 C500 0.951 . S
H515 C501 0.950 . S
H516 C502 0.950 . S
H517 C503 0.950 . S
H518 C505 0.950 . S
H519 C506 0.951 . S
C520 C521 1.386 . S
C520 C522 1.383 . S
C520 H536 0.951 1_554 S
C521 C520 1.386 . S
C521 C525 1.383 . S
C522 C520 1.383 . S
C522 C523 1.402 . S
C522 H537 0.951 1_554 S
C523 C522 1.402 . S
C523 C524 1.375 . S
C523 C526 1.481 . S
C524 C523 1.375 . S
C524 C525 1.367 . S
C524 H538 0.951 . S
C525 C521 1.383 . S
C525 C524 1.367 . S
C525 H539 0.950 . S
C526 C523 1.481 . S
C526 C527 1.297 . S
C526 H540 0.950 . S
C527 C526 1.297 . S
C527 C528 1.479 . S
C527 H541 0.950 1_554 S
C528 C527 1.479 . S
C528 C529 1.375 1_554 S
C528 C534 1.404 . S
C529 C528 1.375 1_556 S
C529 C530 1.364 1_556 S
C529 H542 0.950 . S
C530 C529 1.364 1_554 S
C530 C531 1.411 . S
C530 H543 0.937 1_554 S
C531 C530 1.411 . S
C531 C533 1.384 . S
H532 C534 0.949 . S
C533 C531 1.384 . S
C533 C534 1.385 . S
C533 H535 0.950 . S
C534 C528 1.404 . S
C534 H532 0.949 . S
C534 C533 1.385 . S
H535 C533 0.950 . S
H536 C520 0.951 1_556 S
H537 C522 0.951 1_556 S
H538 C524 0.951 . S
H539 C525 0.950 . S
H540 C526 0.950 . S
H541 C527 0.950 1_556 S
H542 C529 0.950 . S
H543 C530 0.937 1_556 S
C544 C545 1.386 . S
C544 C546 1.383 . S
C544 H560 0.951 . S
C545 C544 1.386 . S
C545 C549 1.383 . S
C546 C544 1.383 . S
C546 C547 1.402 . S
C546 H561 0.951 . S
C547 C546 1.402 . S
C547 C548 1.375 . S
C547 C550 1.481 . S
C548 C547 1.375 . S
C548 C549 1.367 . S
C548 H562 0.951 . S
C549 C545 1.383 . S
C549 C548 1.367 . S
C549 H563 0.950 . S
C550 C547 1.481 . S
C550 C551 1.297 . S
C550 H564 0.950 . S
C551 C550 1.297 . S
C551 C552 1.479 . S
C551 H565 0.950 . S
C552 C551 1.479 . S
C552 C553 1.375 . S
C552 C558 1.404 . S
C553 C552 1.375 . S
C553 C554 1.369 . S
C553 H566 0.950 . S
C554 C553 1.369 . S
C554 C555 1.392 . S
C554 H567 0.951 . S
C555 C554 1.392 . S
C555 C557 1.384 . S
H556 C558 0.949 . S
C557 C555 1.384 . S
C557 C558 1.385 . S
C557 H559 0.950 . S
C558 C552 1.404 . S
C558 H556 0.949 . S
C558 C557 1.385 . S
H559 C557 0.950 . S
H560 C544 0.951 . S
H561 C546 0.951 . S
H562 C548 0.951 . S
H563 C549 0.950 . S
H564 C550 0.950 . S
H565 C551 0.950 . S
H566 C553 0.950 . S
H567 C554 0.951 . S
C185 N12 0.477 . S
C195 N104 0.506 . S
C209 C39 1.704 . S
C219 C131 1.685 . S
C233 N150 0.499 . S
C243 N58 0.311 . S
C257 C177 1.732 . S
C267 C85 1.733 . S
C281 N140 1.332 . S
C291 N48 1.314 . S
C305 C168 2.728 . S
C315 C76 2.709 . S
C329 N2 1.403 . S
C339 N94 1.384 . S
C353 C30 2.727 . S
C363 C122 2.709 . S
C377 C53 1.883 . S
C387 C7 1.907 . S
C401 N71 1.774 . S
C411 N25 1.759 . S
C425 C99 1.913 . S
C435 C145 1.873 . S
C449 N163 1.774 1_556 S
C459 N117 1.758 1_556 S
C473 C16 1.851 . S
C483 N127 1.827 . S
C497 C154 1.820 . S
C507 N35 1.868 . S
C521 C62 1.863 . S
C531 N173 1.802 . S
C545 N81 1.812 . S
C555 C108 1.874 . S
