# Generated by pormake.
# Topology unl, (4)-cn, num edge types: 1
# Building blocks:
#     Node 0, Type 0, BuildingBlock: QUQFOY_clean_sbu_1, # of connection points: 4
#     Node 1, Type 0, BuildingBlock: QUQFOY_clean_sbu_1, # of connection points: 4
#     Node 2, Type 0, BuildingBlock: QUQFOY_clean_sbu_1, # of connection points: 4
#     Node 3, Type 0, BuildingBlock: QUQFOY_clean_sbu_1, # of connection points: 4
#     Node 4, Type 0, BuildingBlock: QUQFOY_clean_sbu_1, # of connection points: 4
#     Node 5, Type 0, BuildingBlock: QUQFOY_clean_sbu_1, # of connection points: 4
#     Node 6, Type 0, BuildingBlock: QUQFOY_clean_sbu_1, # of connection points: 4
#     Node 7, Type 0, BuildingBlock: QUQFOY_clean_sbu_1, # of connection points: 4
#     Node 8, Type 0, BuildingBlock: QUQFOY_clean_sbu_1, # of connection points: 4
#     Node 9, Type 0, BuildingBlock: QUQFOY_clean_sbu_1, # of connection points: 4
#     Node 10, Type 0, BuildingBlock: QUQFOY_clean_sbu_1, # of connection points: 4
#     Node 11, Type 0, BuildingBlock: QUQFOY_clean_sbu_1, # of connection points: 4
#     Node 12, Type 0, BuildingBlock: QUQFOY_clean_sbu_1, # of connection points: 4
#     Node 13, Type 0, BuildingBlock: QUQFOY_clean_sbu_1, # of connection points: 4
#     Node 14, Type 0, BuildingBlock: QUQFOY_clean_sbu_1, # of connection points: 4
#     Node 15, Type 0, BuildingBlock: QUQFOY_clean_sbu_1, # of connection points: 4
#     Node 16, Type 0, BuildingBlock: QUQFOY_clean_sbu_1, # of connection points: 4
#     Node 17, Type 0, BuildingBlock: QUQFOY_clean_sbu_1, # of connection points: 4
#     Node 18, Type 0, BuildingBlock: QUQFOY_clean_sbu_1, # of connection points: 4
#     Node 19, Type 0, BuildingBlock: QUQFOY_clean_sbu_1, # of connection points: 4
#     Node 20, Type 0, BuildingBlock: QUQFOY_clean_sbu_1, # of connection points: 4
#     Node 21, Type 0, BuildingBlock: QUQFOY_clean_sbu_1, # of connection points: 4
#     Node 22, Type 0, BuildingBlock: QUQFOY_clean_sbu_1, # of connection points: 4
#     Node 23, Type 0, BuildingBlock: QUQFOY_clean_sbu_1, # of connection points: 4
#     Node 24, Type 0, BuildingBlock: QUQFOY_clean_sbu_1, # of connection points: 4
#     Node 25, Type 0, BuildingBlock: QUQFOY_clean_sbu_1, # of connection points: 4
#     Node 26, Type 0, BuildingBlock: QUQFOY_clean_sbu_1, # of connection points: 4
#     Node 27, Type 0, BuildingBlock: QUQFOY_clean_sbu_1, # of connection points: 4
#     Node 28, Type 0, BuildingBlock: QUQFOY_clean_sbu_1, # of connection points: 4
#     Node 29, Type 0, BuildingBlock: QUQFOY_clean_sbu_1, # of connection points: 4
#     Node 30, Type 0, BuildingBlock: QUQFOY_clean_sbu_1, # of connection points: 4
#     Node 31, Type 0, BuildingBlock: QUQFOY_clean_sbu_1, # of connection points: 4
#     Node 32, Type 0, BuildingBlock: QUQFOY_clean_sbu_1, # of connection points: 4
#     Node 33, Type 0, BuildingBlock: QUQFOY_clean_sbu_1, # of connection points: 4
#     Node 34, Type 0, BuildingBlock: QUQFOY_clean_sbu_1, # of connection points: 4
#     Node 35, Type 0, BuildingBlock: QUQFOY_clean_sbu_1, # of connection points: 4
#     Edge 36, Type (0, 0), BuildingBlock: XIVTED_clean_linker_0, # of connection points: 2
#     Edge 37, Type (0, 0), BuildingBlock: XIVTED_clean_linker_0, # of connection points: 2
#     Edge 38, Type (0, 0), BuildingBlock: XIVTED_clean_linker_0, # of connection points: 2
#     Edge 39, Type (0, 0), BuildingBlock: XIVTED_clean_linker_0, # of connection points: 2
#     Edge 40, Type (0, 0), BuildingBlock: XIVTED_clean_linker_0, # of connection points: 2
#     Edge 41, Type (0, 0), BuildingBlock: XIVTED_clean_linker_0, # of connection points: 2
#     Edge 42, Type (0, 0), BuildingBlock: XIVTED_clean_linker_0, # of connection points: 2
#     Edge 43, Type (0, 0), BuildingBlock: XIVTED_clean_linker_0, # of connection points: 2
#     Edge 44, Type (0, 0), BuildingBlock: XIVTED_clean_linker_0, # of connection points: 2
#     Edge 45, Type (0, 0), BuildingBlock: XIVTED_clean_linker_0, # of connection points: 2
#     Edge 46, Type (0, 0), BuildingBlock: XIVTED_clean_linker_0, # of connection points: 2
#     Edge 47, Type (0, 0), BuildingBlock: XIVTED_clean_linker_0, # of connection points: 2
#     Edge 48, Type (0, 0), BuildingBlock: XIVTED_clean_linker_0, # of connection points: 2
#     Edge 49, Type (0, 0), BuildingBlock: XIVTED_clean_linker_0, # of connection points: 2
#     Edge 50, Type (0, 0), BuildingBlock: XIVTED_clean_linker_0, # of connection points: 2
#     Edge 51, Type (0, 0), BuildingBlock: XIVTED_clean_linker_0, # of connection points: 2
#     Edge 52, Type (0, 0), BuildingBlock: XIVTED_clean_linker_0, # of connection points: 2
#     Edge 53, Type (0, 0), BuildingBlock: XIVTED_clean_linker_0, # of connection points: 2
#     Edge 54, Type (0, 0), BuildingBlock: XIVTED_clean_linker_0, # of connection points: 2
#     Edge 55, Type (0, 0), BuildingBlock: XIVTED_clean_linker_0, # of connection points: 2
#     Edge 56, Type (0, 0), BuildingBlock: XIVTED_clean_linker_0, # of connection points: 2
#     Edge 57, Type (0, 0), BuildingBlock: XIVTED_clean_linker_0, # of connection points: 2
#     Edge 58, Type (0, 0), BuildingBlock: XIVTED_clean_linker_0, # of connection points: 2
#     Edge 59, Type (0, 0), BuildingBlock: XIVTED_clean_linker_0, # of connection points: 2
#     Edge 60, Type (0, 0), BuildingBlock: XIVTED_clean_linker_0, # of connection points: 2
#     Edge 61, Type (0, 0), BuildingBlock: XIVTED_clean_linker_0, # of connection points: 2
#     Edge 62, Type (0, 0), BuildingBlock: XIVTED_clean_linker_0, # of connection points: 2
#     Edge 63, Type (0, 0), BuildingBlock: XIVTED_clean_linker_0, # of connection points: 2
#     Edge 64, Type (0, 0), BuildingBlock: XIVTED_clean_linker_0, # of connection points: 2
#     Edge 65, Type (0, 0), BuildingBlock: XIVTED_clean_linker_0, # of connection points: 2
#     Edge 66, Type (0, 0), BuildingBlock: XIVTED_clean_linker_0, # of connection points: 2
#     Edge 67, Type (0, 0), BuildingBlock: XIVTED_clean_linker_0, # of connection points: 2
#     Edge 68, Type (0, 0), BuildingBlock: XIVTED_clean_linker_0, # of connection points: 2
#     Edge 69, Type (0, 0), BuildingBlock: XIVTED_clean_linker_0, # of connection points: 2
#     Edge 70, Type (0, 0), BuildingBlock: XIVTED_clean_linker_0, # of connection points: 2
#     Edge 71, Type (0, 0), BuildingBlock: XIVTED_clean_linker_0, # of connection points: 2
#     Edge 72, Type (0, 0), BuildingBlock: XIVTED_clean_linker_0, # of connection points: 2
#     Edge 73, Type (0, 0), BuildingBlock: XIVTED_clean_linker_0, # of connection points: 2
#     Edge 74, Type (0, 0), BuildingBlock: XIVTED_clean_linker_0, # of connection points: 2
#     Edge 75, Type (0, 0), BuildingBlock: XIVTED_clean_linker_0, # of connection points: 2
#     Edge 76, Type (0, 0), BuildingBlock: XIVTED_clean_linker_0, # of connection points: 2
#     Edge 77, Type (0, 0), BuildingBlock: XIVTED_clean_linker_0, # of connection points: 2
#     Edge 78, Type (0, 0), BuildingBlock: XIVTED_clean_linker_0, # of connection points: 2
#     Edge 79, Type (0, 0), BuildingBlock: XIVTED_clean_linker_0, # of connection points: 2
#     Edge 80, Type (0, 0), BuildingBlock: XIVTED_clean_linker_0, # of connection points: 2
#     Edge 81, Type (0, 0), BuildingBlock: XIVTED_clean_linker_0, # of connection points: 2
#     Edge 82, Type (0, 0), BuildingBlock: XIVTED_clean_linker_0, # of connection points: 2
#     Edge 83, Type (0, 0), BuildingBlock: XIVTED_clean_linker_0, # of connection points: 2
#     Edge 84, Type (0, 0), BuildingBlock: XIVTED_clean_linker_0, # of connection points: 2
#     Edge 85, Type (0, 0), BuildingBlock: XIVTED_clean_linker_0, # of connection points: 2
#     Edge 86, Type (0, 0), BuildingBlock: XIVTED_clean_linker_0, # of connection points: 2
#     Edge 87, Type (0, 0), BuildingBlock: XIVTED_clean_linker_0, # of connection points: 2
#     Edge 88, Type (0, 0), BuildingBlock: XIVTED_clean_linker_0, # of connection points: 2
#     Edge 89, Type (0, 0), BuildingBlock: XIVTED_clean_linker_0, # of connection points: 2
#     Edge 90, Type (0, 0), BuildingBlock: XIVTED_clean_linker_0, # of connection points: 2
#     Edge 91, Type (0, 0), BuildingBlock: XIVTED_clean_linker_0, # of connection points: 2
#     Edge 92, Type (0, 0), BuildingBlock: XIVTED_clean_linker_0, # of connection points: 2
#     Edge 93, Type (0, 0), BuildingBlock: XIVTED_clean_linker_0, # of connection points: 2
#     Edge 94, Type (0, 0), BuildingBlock: XIVTED_clean_linker_0, # of connection points: 2
#     Edge 95, Type (0, 0), BuildingBlock: XIVTED_clean_linker_0, # of connection points: 2
#     Edge 96, Type (0, 0), BuildingBlock: XIVTED_clean_linker_0, # of connection points: 2
#     Edge 97, Type (0, 0), BuildingBlock: XIVTED_clean_linker_0, # of connection points: 2
#     Edge 98, Type (0, 0), BuildingBlock: XIVTED_clean_linker_0, # of connection points: 2
#     Edge 99, Type (0, 0), BuildingBlock: XIVTED_clean_linker_0, # of connection points: 2
#     Edge 100, Type (0, 0), BuildingBlock: XIVTED_clean_linker_0, # of connection points: 2
#     Edge 101, Type (0, 0), BuildingBlock: XIVTED_clean_linker_0, # of connection points: 2
#     Edge 102, Type (0, 0), BuildingBlock: XIVTED_clean_linker_0, # of connection points: 2
#     Edge 103, Type (0, 0), BuildingBlock: XIVTED_clean_linker_0, # of connection points: 2
#     Edge 104, Type (0, 0), BuildingBlock: XIVTED_clean_linker_0, # of connection points: 2
#     Edge 105, Type (0, 0), BuildingBlock: XIVTED_clean_linker_0, # of connection points: 2
#     Edge 106, Type (0, 0), BuildingBlock: XIVTED_clean_linker_0, # of connection points: 2
#     Edge 107, Type (0, 0), BuildingBlock: XIVTED_clean_linker_0, # of connection points: 2
# Relax obj value: 0.015
# Max RMSD: 0.070
# Mean RMSD: 0.070
data_MOF--net-unl--node1-QUQFOY_clean_sbu_1--edge1-XIVTED_clean_linker_0
_symmetry_space_group_name_H-M    P1
_symmetry_Int_Tables_number       1
_symmetry_cell_setting            triclinic
loop_
_symmetry_equiv_pos_as_xyz
'x, y, z'
_cell_length_a     69.308751
_cell_length_b     69.300649
_cell_length_c     41.163088
_cell_angle_alpha  90.004556
_cell_angle_beta   89.989513
_cell_angle_gamma 119.99584
loop_
_atom_site_label
_atom_site_type_symbol
_atom_site_fract_x
_atom_site_fract_y
_atom_site_fract_z
_atom_type_partial_charge
O0 O 0.22808 0.16675 0.14083 0.0
Cd1 Cd 0.24394 0.1626 0.10161 0.0
Cd2 Cd 0.20643 0.12252 0.10014 0.0
O3 O 0.20004 0.1323 0.14464 0.0
O4 O 0.27626 0.184 0.1088 0.0
O5 O 0.26169 0.14737 0.10986 0.0
C6 C 0.27879 0.16702 0.11392 0.0
C7 C 0.19991 0.08636 0.09127 0.0
C8 C 0.21078 0.15213 0.15549 0.0
C9 C 0.21476 0.15495 0.04491 0.0
O10 O 0.2015 0.13687 0.05939 0.0
O11 O 0.23406 0.16784 0.05647 0.0
O12 O 0.1838 0.09033 0.09557 0.0
O13 O 0.22002 0.1029 0.09366 0.0
O14 O 0.85863 0.06575 0.14235 0.0
Cd15 Cd 0.86248 0.08581 0.10333 0.0
Cd16 Cd 0.90271 0.08882 0.10133 0.0
O17 O 0.89315 0.07234 0.14564 0.0
O18 O 0.84135 0.09703 0.11104 0.0
O19 O 0.87802 0.11881 0.11141 0.0
C20 C 0.85849 0.11648 0.11584 0.0
C21 C 0.9387 0.11874 0.09236 0.0
C22 C 0.87336 0.06308 0.15667 0.0
C23 C 0.87017 0.06469 0.04619 0.0
O24 O 0.8884 0.06976 0.06038 0.0
O25 O 0.85708 0.07073 0.05813 0.0
O26 O 0.93495 0.09871 0.09628 0.0
O27 O 0.92205 0.1221 0.09526 0.0
O28 O 0.95882 0.79793 0.14286 0.0
Cd29 Cd 0.93877 0.78179 0.10379 0.0
Cd30 Cd 0.9359 0.81909 0.10179 0.0
O31 O 0.95221 0.82586 0.14618 0.0
O32 O 0.92784 0.74948 0.11128 0.0
O33 O 0.90578 0.76405 0.112 0.0
C34 C 0.90831 0.74695 0.11622 0.0
C35 C 0.90614 0.82544 0.09296 0.0
C36 C 0.96144 0.81531 0.15722 0.0
C37 C 0.96007 0.81069 0.04674 0.0
O38 O 0.95511 0.82393 0.06098 0.0
O39 O 0.95383 0.79149 0.05859 0.0
O40 O 0.92621 0.84162 0.097 0.0
O41 O 0.90265 0.80536 0.09554 0.0
O42 O 0.1717 0.22175 0.35857 0.0
Cd43 Cd 0.16774 0.23793 0.39754 0.0
Cd44 Cd 0.12759 0.20058 0.39957 0.0
O45 O 0.13717 0.19384 0.35517 0.0
O46 O 0.18911 0.27023 0.38994 0.0
O47 O 0.15248 0.25563 0.38915 0.0
C48 C 0.1721 0.27273 0.3849 0.0
C49 C 0.09147 0.19419 0.40844 0.0
C50 C 0.15697 0.20438 0.34417 0.0
C51 C 0.16015 0.20913 0.45468 0.0
O52 O 0.142 0.19584 0.44041 0.0
O53 O 0.17308 0.22833 0.44281 0.0
O54 O 0.0954 0.17803 0.40441 0.0
O55 O 0.10803 0.21427 0.40581 0.0
O56 O 0.80171 0.95353 0.35892 0.0
Cd57 Cd 0.78579 0.93366 0.39823 0.0
Cd58 Cd 0.82316 0.93096 0.39985 0.0
O59 O 0.82975 0.9471 0.3553 0.0
O60 O 0.75347 0.92276 0.39098 0.0
O61 O 0.76798 0.90065 0.39024 0.0
C62 C 0.7509 0.90321 0.38607 0.0
C63 C 0.82901 0.90094 0.40914 0.0
C64 C 0.81903 0.95619 0.34434 0.0
C65 C 0.815 0.9553 0.45487 0.0
O66 O 0.8282 0.95037 0.44047 0.0
O67 O 0.7957 0.94892 0.44329 0.0
O68 O 0.84537 0.92088 0.40483 0.0
O69 O 0.80904 0.89771 0.40645 0.0
O70 O 0.07059 0.85344 0.36008 0.0
Cd71 Cd 0.09061 0.85765 0.39927 0.0
Cd72 Cd 0.09348 0.89779 0.40041 0.0
O73 O 0.07708 0.88791 0.35607 0.0
O74 O 0.10194 0.83657 0.39205 0.0
O75 O 0.12359 0.87326 0.39109 0.0
C76 C 0.12133 0.85373 0.38697 0.0
C77 C 0.12356 0.93374 0.409 0.0
C78 C 0.06792 0.86804 0.34535 0.0
C79 C 0.0694 0.86567 0.45598 0.0
O80 O 0.07437 0.88376 0.44142 0.0
O81 O 0.07554 0.85256 0.44442 0.0
O82 O 0.10359 0.93013 0.40492 0.0
O83 O 0.12676 0.91696 0.40647 0.0
O84 O 0.80153 0.85299 0.86021 0.0
Cd85 Cd 0.78557 0.8571 0.89933 0.0
Cd86 Cd 0.82302 0.89712 0.90094 0.0
O87 O 0.8296 0.88742 0.8565 0.0
O88 O 0.75325 0.83576 0.89198 0.0
O89 O 0.7679 0.8724 0.89103 0.0
C90 C 0.75078 0.85278 0.88688 0.0
C91 C 0.82911 0.93312 0.90992 0.0
C92 C 0.81888 0.8676 0.84563 0.0
C93 C 0.81459 0.86469 0.95617 0.0
O94 O 0.82787 0.88277 0.94174 0.0
O95 O 0.79532 0.85179 0.94452 0.0
O96 O 0.84538 0.92938 0.9058 0.0
O97 O 0.80909 0.91645 0.90722 0.0
O98 O 0.17084 0.95361 0.85823 0.0
Cd99 Cd 0.16702 0.93368 0.89741 0.0
Cd100 Cd 0.12688 0.93104 0.89961 0.0
O101 O 0.13637 0.9472 0.85508 0.0
O102 O 0.18846 0.92284 0.88988 0.0
O103 O 0.15186 0.90067 0.88941 0.0
C104 C 0.1715 0.90327 0.88509 0.0
C105 C 0.09072 0.9015 0.90888 0.0
C106 C 0.15611 0.95629 0.84391 0.0
C107 C 0.1597 0.95526 0.95438 0.0
O108 O 0.14149 0.95035 0.94025 0.0
O109 O 0.17256 0.9489 0.94251 0.0
O110 O 0.09475 0.9216 0.90468 0.0
O111 O 0.10718 0.89784 0.90617 0.0
O112 O 0.07024 0.22177 0.85885 0.0
Cd113 Cd 0.09042 0.23798 0.89775 0.0
Cd114 Cd 0.09359 0.20079 0.89948 0.0
O115 O 0.07708 0.19401 0.85522 0.0
O116 O 0.1013 0.27027 0.89023 0.0
O117 O 0.12335 0.25569 0.88922 0.0
C118 C 0.1208 0.27278 0.88505 0.0
C119 C 0.12332 0.19435 0.90804 0.0
C120 C 0.06769 0.20446 0.84437 0.0
C121 C 0.0696 0.20911 0.95494 0.0
O122 O 0.07461 0.19597 0.94057 0.0
O123 O 0.07558 0.22825 0.94307 0.0
O124 O 0.10322 0.17821 0.90407 0.0
O125 O 0.12685 0.21444 0.90548 0.0
O126 O 0.85792 0.79781 0.64283 0.0
Cd127 Cd 0.86165 0.78156 0.60376 0.0
Cd128 Cd 0.902 0.81878 0.60171 0.0
O129 O 0.89249 0.82568 0.64608 0.0
O130 O 0.84026 0.74927 0.61139 0.0
O131 O 0.87688 0.7638 0.61192 0.0
C132 C 0.85726 0.74673 0.61627 0.0
C133 C 0.93802 0.82495 0.59269 0.0
C134 C 0.87271 0.81518 0.65716 0.0
C135 C 0.86943 0.81041 0.54661 0.0
O136 O 0.88767 0.82354 0.56079 0.0
O137 O 0.85631 0.79129 0.55857 0.0
O138 O 0.93422 0.8412 0.59664 0.0
O139 O 0.92141 0.80492 0.59558 0.0
O140 O 0.22778 0.06567 0.64131 0.0
Cd141 Cd 0.24376 0.08589 0.60235 0.0
Cd142 Cd 0.20639 0.08873 0.60107 0.0
O143 O 0.19984 0.07222 0.64532 0.0
O144 O 0.2761 0.09695 0.60962 0.0
O145 O 0.26134 0.11883 0.61094 0.0
C146 C 0.2785 0.11639 0.61496 0.0
C147 C 0.19989 0.11842 0.59259 0.0
C148 C 0.21048 0.06297 0.65598 0.0
C149 C 0.21469 0.0649 0.5454 0.0
O150 O 0.20151 0.06978 0.55997 0.0
O151 O 0.23391 0.07102 0.55704 0.0
O152 O 0.18377 0.09833 0.5967 0.0
O153 O 0.21999 0.12198 0.59503 0.0
O154 O 0.95883 0.16666 0.6412 0.0
Cd155 Cd 0.93892 0.16249 0.60186 0.0
Cd156 Cd 0.93641 0.12248 0.60039 0.0
O157 O 0.95256 0.13226 0.6449 0.0
O158 O 0.92756 0.18354 0.60907 0.0
O159 O 0.9059 0.14685 0.60974 0.0
C160 C 0.90813 0.16637 0.61393 0.0
C161 C 0.90671 0.08635 0.59149 0.0
C162 C 0.96156 0.15206 0.65582 0.0
C163 C 0.96057 0.15494 0.54522 0.0
O164 O 0.9557 0.13684 0.55965 0.0
O165 O 0.95417 0.16785 0.5568 0.0
O166 O 0.92677 0.09026 0.59577 0.0
O167 O 0.90319 0.10293 0.59392 0.0
O168 O 0.89371 0.49971 0.47481 0.0
Cd169 Cd 0.90996 0.49589 0.43581 0.0
Cd170 Cd 0.87277 0.45563 0.43369 0.0
O171 O 0.86581 0.46515 0.47801 0.0
O172 O 0.94232 0.51691 0.44363 0.0
O173 O 0.92729 0.48022 0.44391 0.0
C174 C 0.94454 0.49971 0.44841 0.0
C175 C 0.86659 0.41959 0.42468 0.0
C176 C 0.87631 0.48493 0.48908 0.0
C177 C 0.88125 0.48823 0.37858 0.0
O178 O 0.86809 0.46998 0.39274 0.0
O179 O 0.90035 0.50134 0.39059 0.0
O180 O 0.85035 0.4234 0.42859 0.0
O181 O 0.88662 0.4362 0.42761 0.0
O182 O 0.5255 0.39917 0.47656 0.0
Cd183 Cd 0.52929 0.41916 0.43746 0.0
Cd184 Cd 0.56948 0.4221 0.43547 0.0
O185 O 0.56006 0.40586 0.47994 0.0
O186 O 0.50785 0.43001 0.44502 0.0
O187 O 0.54446 0.45215 0.44565 0.0
C188 C 0.52482 0.44956 0.44995 0.0
C189 C 0.60537 0.45213 0.42623 0.0
C190 C 0.54027 0.3966 0.49097 0.0
C191 C 0.53691 0.3978 0.38049 0.0
O192 O 0.55509 0.40278 0.39477 0.0
O193 O 0.52395 0.40406 0.39227 0.0
O194 O 0.60175 0.43215 0.43034 0.0
O195 O 0.58864 0.45537 0.42906 0.0
O196 O 0.6253 0.13006 0.47456 0.0
Cd197 Cd 0.60523 0.1142 0.4354 0.0
Cd198 Cd 0.60271 0.15172 0.43392 0.0
O199 O 0.619 0.15817 0.47831 0.0
O200 O 0.59421 0.08185 0.44258 0.0
O201 O 0.57225 0.09653 0.44367 0.0
C202 C 0.57472 0.07938 0.44769 0.0
C203 C 0.57309 0.15829 0.42521 0.0
C204 C 0.62807 0.14741 0.48915 0.0
C205 C 0.62665 0.14329 0.37858 0.0
O206 O 0.62186 0.15657 0.39305 0.0
O207 O 0.62027 0.12401 0.39021 0.0
O208 O 0.59318 0.17439 0.4294 0.0
O209 O 0.56949 0.13817 0.42764 0.0
O210 O 0.83798 0.55596 0.6918 0.0
Cd211 Cd 0.83388 0.57173 0.73119 0.0
Cd212 Cd 0.79389 0.5341 0.73277 0.0
O213 O 0.80362 0.52774 0.6882 0.0
O214 O 0.85519 0.6041 0.72407 0.0
O215 O 0.81856 0.58944 0.7233 0.0
C216 C 0.83817 0.60659 0.7192 0.0
C217 C 0.75777 0.52761 0.74197 0.0
C218 C 0.8234 0.53859 0.67722 0.0
C219 C 0.82646 0.54249 0.78779 0.0
O220 O 0.80836 0.52921 0.7734 0.0
O221 O 0.83929 0.56181 0.77621 0.0
O222 O 0.7617 0.51149 0.73757 0.0
O223 O 0.77431 0.54772 0.73946 0.0
O224 O 0.46874 0.28726 0.69357 0.0
Cd225 Cd 0.45277 0.2672 0.73267 0.0
Cd226 Cd 0.49009 0.26431 0.73405 0.0
O227 O 0.49671 0.28075 0.68973 0.0
O228 O 0.42043 0.2562 0.72538 0.0
O229 O 0.43511 0.23423 0.72429 0.0
C230 C 0.41797 0.23672 0.7202 0.0
C231 C 0.49619 0.23438 0.74278 0.0
C232 C 0.48606 0.28995 0.67895 0.0
C233 C 0.48189 0.28835 0.78952 0.0
O234 O 0.49503 0.28338 0.77504 0.0
O235 O 0.46267 0.28223 0.77787 0.0
O236 O 0.51246 0.2544 0.7387 0.0
O237 O 0.47617 0.23103 0.74014 0.0
O238 O 0.7375 0.18703 0.69134 0.0
Cd239 Cd 0.75768 0.19107 0.73028 0.0
Cd240 Cd 0.76039 0.23115 0.73231 0.0
O241 O 0.74402 0.22153 0.68795 0.0
O242 O 0.76897 0.17001 0.72252 0.0
O243 O 0.79065 0.2067 0.72196 0.0
C244 C 0.78837 0.18719 0.71757 0.0
C245 C 0.79011 0.26727 0.74119 0.0
C246 C 0.7348 0.20173 0.67697 0.0
C247 C 0.73643 0.19855 0.78744 0.0
O248 O 0.74126 0.2167 0.77318 0.0
O249 O 0.74273 0.18565 0.77556 0.0
O250 O 0.77002 0.26334 0.73718 0.0
O251 O 0.79363 0.25071 0.73852 0.0
O252 O 0.46936 0.18714 0.19218 0.0
Cd253 Cd 0.45342 0.19123 0.23134 0.0
Cd254 Cd 0.49107 0.2312 0.23314 0.0
O255 O 0.49756 0.22151 0.18862 0.0
O256 O 0.42112 0.16981 0.22393 0.0
O257 O 0.43564 0.20643 0.22306 0.0
C258 C 0.41857 0.18678 0.21886 0.0
C259 C 0.49757 0.26733 0.24235 0.0
C260 C 0.48675 0.20172 0.17766 0.0
C261 C 0.4824 0.19856 0.28818 0.0
O262 O 0.49577 0.21665 0.27383 0.0
O263 O 0.46311 0.18578 0.27649 0.0
O264 O 0.51369 0.26338 0.23807 0.0
O265 O 0.47747 0.25081 0.2397 0.0
O266 O 0.8376 0.28725 0.19163 0.0
Cd267 Cd 0.83359 0.26721 0.23074 0.0
Cd268 Cd 0.79334 0.26422 0.23243 0.0
O269 O 0.80307 0.28063 0.1881 0.0
O270 O 0.85467 0.25591 0.22329 0.0
O271 O 0.81799 0.2342 0.22268 0.0
C272 C 0.83751 0.23647 0.21843 0.0
C273 C 0.75718 0.2345 0.24109 0.0
C274 C 0.82289 0.28988 0.17717 0.0
C275 C 0.82572 0.28832 0.28775 0.0
O276 O 0.80754 0.28327 0.27342 0.0
O277 O 0.83884 0.28227 0.27593 0.0
O278 O 0.76113 0.25459 0.23703 0.0
O279 O 0.77374 0.23096 0.23856 0.0
O280 O 0.73702 0.55559 0.1928 0.0
Cd281 Cd 0.7571 0.57188 0.23177 0.0
Cd282 Cd 0.76046 0.53483 0.23362 0.0
O283 O 0.74393 0.52786 0.18935 0.0
O284 O 0.76795 0.60417 0.22423 0.0
O285 O 0.79006 0.58965 0.22345 0.0
C286 C 0.78749 0.60672 0.21923 0.0
C287 C 0.79051 0.52892 0.24237 0.0
C288 C 0.73451 0.53826 0.17841 0.0
C289 C 0.73628 0.54299 0.28895 0.0
O290 O 0.74143 0.52992 0.27466 0.0
O291 O 0.74217 0.5621 0.27704 0.0
O292 O 0.77051 0.51258 0.23846 0.0
O293 O 0.79377 0.5489 0.23959 0.0
O294 O 0.52572 0.13142 0.97537 0.0
Cd295 Cd 0.52949 0.11514 0.93637 0.0
Cd296 Cd 0.56986 0.15239 0.93434 0.0
O297 O 0.56029 0.15925 0.97868 0.0
O298 O 0.50797 0.08288 0.94395 0.0
O299 O 0.54456 0.09723 0.94465 0.0
C300 C 0.52488 0.08022 0.94892 0.0
C301 C 0.60601 0.15886 0.92545 0.0
C302 C 0.5405 0.14878 0.98971 0.0
C303 C 0.53732 0.14401 0.87921 0.0
O304 O 0.55554 0.15716 0.89341 0.0
O305 O 0.52421 0.12488 0.89115 0.0
O306 O 0.60204 0.17499 0.9295 0.0
O307 O 0.58948 0.13876 0.92813 0.0
O308 O 0.89455 0.39917 0.97449 0.0
Cd309 Cd 0.91046 0.41929 0.9354 0.0
Cd310 Cd 0.87295 0.4218 0.93378 0.0
O311 O 0.86646 0.40551 0.9782 0.0
O312 O 0.94284 0.43066 0.94289 0.0
O313 O 0.92776 0.45227 0.94366 0.0
C314 C 0.94503 0.45004 0.94794 0.0
C315 C 0.86637 0.4514 0.92488 0.0
C316 C 0.87719 0.39642 0.98906 0.0
C317 C 0.8815 0.39786 0.87851 0.0
O318 O 0.8682 0.40264 0.89294 0.0
O319 O 0.90077 0.40425 0.89018 0.0
O320 O 0.85028 0.4313 0.92907 0.0
O321 O 0.88649 0.45502 0.92742 0.0
O322 O 0.6252 0.49984 0.9757 0.0
Cd323 Cd 0.60534 0.49571 0.9363 0.0
Cd324 Cd 0.60287 0.45574 0.93485 0.0
O325 O 0.61903 0.46547 0.97936 0.0
O326 O 0.59394 0.51675 0.94351 0.0
O327 O 0.5723 0.48006 0.94409 0.0
C328 C 0.57451 0.49956 0.94829 0.0
C329 C 0.57291 0.41979 0.92581 0.0
C330 C 0.62798 0.48527 0.9903 0.0
C331 C 0.62708 0.4882 0.87971 0.0
O332 O 0.6222 0.47009 0.89413 0.0
O333 O 0.62066 0.50109 0.89127 0.0
O334 O 0.59289 0.42346 0.93002 0.0
O335 O 0.56962 0.4365 0.92843 0.0
O336 O 0.56049 0.83337 0.8083 0.0
Cd337 Cd 0.57649 0.82923 0.76927 0.0
Cd338 Cd 0.53922 0.78903 0.76793 0.0
O339 O 0.53255 0.79887 0.81222 0.0
O340 O 0.60881 0.85058 0.77657 0.0
O341 O 0.59413 0.81394 0.77774 0.0
C342 C 0.61127 0.83357 0.7818 0.0
C343 C 0.5333 0.75307 0.75926 0.0
C344 C 0.54318 0.81874 0.82295 0.0
C345 C 0.54742 0.82118 0.71234 0.0
O346 O 0.53427 0.80309 0.72687 0.0
O347 O 0.56663 0.8343 0.72401 0.0
O348 O 0.51696 0.75672 0.7633 0.0
O349 O 0.55328 0.7698 0.76192 0.0
O350 O 0.19184 0.73213 0.80911 0.0
Cd351 Cd 0.19568 0.75212 0.76999 0.0
Cd352 Cd 0.23587 0.75495 0.76789 0.0
O353 O 0.22637 0.73872 0.81235 0.0
O354 O 0.17423 0.76296 0.7775 0.0
O355 O 0.21084 0.78512 0.7781 0.0
C356 C 0.19119 0.78253 0.78237 0.0
C357 C 0.27198 0.78463 0.75885 0.0
C358 C 0.2066 0.72952 0.82346 0.0
C359 C 0.20321 0.73075 0.71295 0.0
O360 O 0.2214 0.73569 0.72715 0.0
O361 O 0.19028 0.73702 0.72481 0.0
O362 O 0.26804 0.76455 0.76297 0.0
O363 O 0.25544 0.78818 0.76149 0.0
O364 O 0.29157 0.46347 0.8082 0.0
Cd365 Cd 0.27169 0.44763 0.76887 0.0
Cd366 Cd 0.26907 0.48505 0.76737 0.0
O367 O 0.28519 0.49154 0.81192 0.0
O368 O 0.26075 0.41529 0.77601 0.0
O369 O 0.23869 0.42985 0.77688 0.0
C370 C 0.24122 0.41274 0.78097 0.0
C371 C 0.23904 0.49091 0.75824 0.0
C372 C 0.29425 0.48079 0.82283 0.0
C373 C 0.29337 0.47691 0.71228 0.0
O374 O 0.28847 0.49012 0.72671 0.0
O375 O 0.28695 0.45759 0.72381 0.0
O376 O 0.25899 0.50727 0.76252 0.0
O377 O 0.23582 0.47093 0.76084 0.0
O378 O 0.50382 0.88858 0.02538 0.0
Cd379 Cd 0.50001 0.90475 0.06449 0.0
Cd380 Cd 0.45962 0.86752 0.0663 0.0
O381 O 0.46924 0.86075 0.02193 0.0
O382 O 0.52154 0.93703 0.05709 0.0
O383 O 0.48494 0.92266 0.05631 0.0
C384 C 0.50462 0.93969 0.05213 0.0
C385 C 0.42349 0.86112 0.07512 0.0
C386 C 0.48905 0.87125 0.01095 0.0
C387 C 0.49207 0.87572 0.1215 0.0
O388 O 0.47385 0.86262 0.10722 0.0
O389 O 0.50521 0.89487 0.10966 0.0
O390 O 0.42741 0.84497 0.071 0.0
O391 O 0.44005 0.88121 0.07256 0.0
O392 O 0.13552 0.62041 0.02645 0.0
Cd393 Cd 0.11968 0.60024 0.06551 0.0
Cd394 Cd 0.15714 0.59762 0.06682 0.0
O395 O 0.16359 0.61405 0.02252 0.0
O396 O 0.08728 0.58883 0.05816 0.0
O397 O 0.10242 0.56728 0.05716 0.0
C398 C 0.08512 0.56947 0.053 0.0
C399 C 0.1637 0.56797 0.07534 0.0
C400 C 0.15286 0.62317 0.01179 0.0
C401 C 0.14872 0.62144 0.1224 0.0
O402 O 0.16194 0.6166 0.10788 0.0
O403 O 0.12948 0.61523 0.11074 0.0
O404 O 0.1798 0.58808 0.07124 0.0
O405 O 0.14358 0.56437 0.07289 0.0
O406 O 0.40351 0.52 0.02515 0.0
Cd407 Cd 0.42366 0.52394 0.06409 0.0
Cd408 Cd 0.42633 0.56402 0.06637 0.0
O409 O 0.40998 0.5545 0.02198 0.0
O410 O 0.43497 0.50291 0.05621 0.0
O411 O 0.45665 0.53959 0.05587 0.0
C412 C 0.45439 0.5201 0.05137 0.0
C413 C 0.45595 0.60018 0.07542 0.0
C414 C 0.40079 0.53473 0.01089 0.0
C415 C 0.40234 0.53127 0.12133 0.0
O416 O 0.4072 0.54946 0.10718 0.0
O417 O 0.40864 0.51839 0.10936 0.0
O418 O 0.43584 0.59618 0.07142 0.0
O419 O 0.45956 0.58369 0.07263 0.0
O420 O 0.13566 0.51971 0.52538 0.0
Cd421 Cd 0.1195 0.52365 0.56438 0.0
Cd422 Cd 0.15676 0.56392 0.56635 0.0
O423 O 0.16356 0.55426 0.52204 0.0
O424 O 0.08713 0.50267 0.55667 0.0
O425 O 0.10222 0.53937 0.55624 0.0
C426 C 0.08494 0.51989 0.55182 0.0
C427 C 0.16335 0.60013 0.57518 0.0
C428 C 0.15304 0.53446 0.51103 0.0
C429 C 0.14828 0.53138 0.62155 0.0
O430 O 0.16145 0.5496 0.60733 0.0
O431 O 0.12916 0.51828 0.60961 0.0
O432 O 0.17944 0.59609 0.57115 0.0
O433 O 0.14323 0.58364 0.57251 0.0
O434 O 0.50503 0.62075 0.52635 0.0
Cd435 Cd 0.50093 0.60074 0.56554 0.0
Cd436 Cd 0.46068 0.59794 0.56696 0.0
O437 O 0.47058 0.61435 0.52263 0.0
O438 O 0.5223 0.58976 0.55837 0.0
O439 O 0.48567 0.56775 0.55733 0.0
C440 C 0.5053 0.57025 0.55329 0.0
C441 C 0.42448 0.56829 0.57556 0.0
C442 C 0.49041 0.62348 0.51178 0.0
C443 C 0.49297 0.62193 0.62241 0.0
O444 O 0.47485 0.61697 0.60797 0.0
O445 O 0.50606 0.61582 0.61071 0.0
O446 O 0.42849 0.58839 0.57144 0.0
O447 O 0.441 0.56469 0.5731 0.0
O448 O 0.40366 0.88837 0.5253 0.0
Cd449 Cd 0.42377 0.90463 0.56425 0.0
Cd450 Cd 0.4267 0.86739 0.56628 0.0
O451 O 0.41035 0.8605 0.5219 0.0
O452 O 0.43463 0.9369 0.5566 0.0
O453 O 0.45673 0.92238 0.55589 0.0
C454 C 0.45416 0.93944 0.55159 0.0
C455 C 0.45667 0.86142 0.57534 0.0
C456 C 0.40106 0.87101 0.51092 0.0
C457 C 0.40258 0.87582 0.62137 0.0
O458 O 0.4075 0.86257 0.6071 0.0
O459 O 0.40881 0.89502 0.60952 0.0
O460 O 0.43667 0.8451 0.57136 0.0
O461 O 0.45998 0.88142 0.57247 0.0
O462 O 0.19136 0.46331 0.30842 0.0
Cd463 Cd 0.19561 0.44754 0.26917 0.0
Cd464 Cd 0.23562 0.48508 0.26782 0.0
O465 O 0.22575 0.49143 0.31228 0.0
O466 O 0.17431 0.41517 0.27622 0.0
O467 O 0.21094 0.42987 0.27733 0.0
C468 C 0.19133 0.41271 0.2813 0.0
C469 C 0.27174 0.49148 0.25898 0.0
C470 C 0.20592 0.48063 0.3231 0.0
C471 C 0.20328 0.47677 0.21251 0.0
O472 O 0.22133 0.49004 0.22703 0.0
O473 O 0.1904 0.45745 0.22404 0.0
O474 O 0.26784 0.50764 0.2633 0.0
O475 O 0.25515 0.47139 0.26136 0.0
O476 O 0.55986 0.73229 0.30887 0.0
Cd477 Cd 0.57604 0.75229 0.26978 0.0
Cd478 Cd 0.53876 0.75518 0.26777 0.0
O479 O 0.53198 0.73898 0.31228 0.0
O480 O 0.60832 0.76314 0.27736 0.0
O481 O 0.59384 0.78528 0.27797 0.0
C482 C 0.61089 0.78269 0.28229 0.0
C483 C 0.53273 0.7851 0.25845 0.0
C484 C 0.54252 0.72973 0.32331 0.0
C485 C 0.54713 0.73091 0.21282 0.0
O486 O 0.53389 0.73586 0.22709 0.0
O487 O 0.56635 0.7372 0.2246 0.0
O488 O 0.51643 0.7651 0.2626 0.0
O489 O 0.55273 0.78844 0.26129 0.0
O490 O 0.29145 0.83299 0.30871 0.0
Cd491 Cd 0.27137 0.82887 0.26961 0.0
Cd492 Cd 0.26895 0.78892 0.26781 0.0
O493 O 0.28527 0.7986 0.3122 0.0
O494 O 0.26008 0.84994 0.27721 0.0
O495 O 0.23839 0.81325 0.27782 0.0
C496 C 0.24067 0.83277 0.28218 0.0
C497 C 0.23912 0.75288 0.25885 0.0
C498 C 0.29428 0.81839 0.32317 0.0
C499 C 0.29287 0.82148 0.21265 0.0
O500 O 0.28809 0.80337 0.22697 0.0
O501 O 0.28646 0.83433 0.22441 0.0
O502 O 0.25917 0.75669 0.26284 0.0
O503 O 0.23569 0.7695 0.26164 0.0
H504 H 0.15985 0.04777 0.09163 0.0
H505 H 0.20196 0.98251 0.9783 0.0
H506 H 0.22891 0.07396 0.06611 0.0
H507 H 0.13305 0.96278 0.99486 0.0
H508 H 0.21289 0.01204 0.01911 0.0
H509 H 0.15076 0.01267 0.06556 0.0
C510 C 0.17319 0.04603 0.08092 0.0
C511 C 0.19514 0.06396 0.08067 0.0
C512 C 0.19537 1.001 0.01414 0.0
C513 C 0.18475 0.02375 0.05024 0.0
C514 C 0.18911 0.98407 0.99099 0.0
C515 C 0.16656 0.97034 0.98287 0.0
C516 C 0.17893 1.00406 0.02936 0.0
C517 C 0.15064 0.97316 1.00001 0.0
C518 C 0.16796 0.02596 0.06594 0.0
C519 C 0.21174 0.06062 0.06669 0.0
N520 N 0.15713 0.98978 0.02217 0.0
N521 N 0.20616 0.04101 0.0516 0.0
H522 H 0.9507 0.16055 0.06927 0.0
H523 H 0.06398 0.17606 0.99634 0.0
H524 H 0.9773 0.11733 0.09002 0.0
H525 H 0.04115 0.22271 0.97854 0.0
H526 H 0.03503 0.15776 0.03727 0.0
H527 H 0.98592 0.18666 0.04263 0.0
C528 C 0.96408 0.15675 0.0688 0.0
C529 C 0.96093 0.13657 0.08152 0.0
C530 C 0.03646 0.17217 0.0248 0.0
C531 C 1.00114 0.16624 0.05085 0.0
C532 C 0.05304 0.18266 0.0014 0.0
C533 C 0.05483 0.20079 0.98373 0.0
C534 C 0.0212 0.17957 0.03032 0.0
C535 C 0.04032 0.20874 0.99156 0.0
C536 C 0.98416 0.17163 0.05348 0.0
C537 C 0.97885 0.13253 0.0802 0.0
N538 N 0.02384 0.19784 0.0139 0.0
N539 N 0.99802 0.14707 0.06483 0.0
H540 H 0.79968 0.82256 0.98056 0.0
H541 H 0.90742 0.86541 0.09316 0.0
H542 H 0.84882 0.89158 0.99636 0.0
H543 H 0.86468 0.79622 0.06819 0.0
H544 H 0.88123 0.87428 0.06722 0.0
H545 H 0.81843 0.81187 0.02145 0.0
C546 C 0.8141 0.83548 0.99311 0.0
C547 C 0.82287 0.85799 0.98475 0.0
C548 C 0.87739 0.8571 0.0677 0.0
C549 C 0.8444 0.8459 0.03131 0.0
C550 C 0.89234 0.852 0.08261 0.0
C551 C 0.88841 0.83008 0.08246 0.0
C552 C 0.85836 0.84021 0.05218 0.0
C553 C 0.86845 0.81338 0.06868 0.0
C554 C 0.82487 0.82936 0.0163 0.0
C555 C 0.84165 0.87402 0.0017 0.0
N556 N 0.85431 0.81883 0.05365 0.0
N557 N 0.85186 0.86766 0.0239 0.0
H558 H 0.98782 0.19706 0.52082 0.0
H559 H 0.05284 0.15417 0.40845 0.0
H560 H 0.96801 0.12803 0.5052 0.0
H561 H 0.07918 0.22339 0.43313 0.0
H562 H 0.01778 0.14528 0.43446 0.0
H563 H 0.0173 0.20773 0.47999 0.0
C564 C 0.98935 0.18414 0.50832 0.0
C565 C 0.97561 0.16163 0.51671 0.0
C566 C 0.0311 0.16248 0.43391 0.0
C567 C 1.00928 0.1737 0.47022 0.0
C568 C 0.05115 0.16759 0.41896 0.0
C569 C 0.0691 0.18952 0.419 0.0
C570 C 0.02894 0.17938 0.44935 0.0
C571 C 0.06581 0.20623 0.43272 0.0
C572 C 1.00626 0.19024 0.48517 0.0
C573 C 0.9784 0.1456 0.49983 0.0
N574 N 0.04622 0.20077 0.44779 0.0
N575 N 0.99499 0.15194 0.47766 0.0
H576 H 0.79913 0.85937 0.43293 0.0
H577 H 0.89676 0.84321 0.50481 0.0
H578 H 0.86888 0.90201 0.41115 0.0
H579 H 0.8273 0.79705 0.52361 0.0
H580 H 0.88607 0.86154 0.464 0.0
H581 H 0.80812 0.83321 0.4597 0.0
C582 C 0.81626 0.86303 0.43321 0.0
C583 C 0.83332 0.88307 0.42015 0.0
C584 C 0.87309 0.84723 0.47666 0.0
C585 C 0.84373 0.85334 0.45094 0.0
C586 C 0.87921 0.83672 0.49999 0.0
C587 C 0.8629 0.81872 0.5179 0.0
C588 C 0.85044 0.83998 0.47145 0.0
C589 C 0.84042 0.81091 0.51039 0.0
C590 C 0.82139 0.84812 0.44859 0.0
C591 C 0.8552 0.88693 0.42122 0.0
N592 N 0.83483 0.82184 0.48811 0.0
N593 N 0.85978 0.87236 0.43666 0.0
H594 H 0.16533 0.94558 0.43203 0.0
H595 H 0.18164 0.05935 0.50408 0.0
H596 H 0.12246 0.97252 0.4109 0.0
H597 H 0.22814 0.03633 0.52181 0.0
H598 H 0.16316 0.03032 0.46332 0.0
H599 H 0.19166 0.98086 0.45832 0.0
C600 C 0.16165 0.95904 0.43234 0.0
C601 C 0.14151 0.95598 0.41962 0.0
C602 C 0.17758 0.03172 0.47572 0.0
C603 C 0.17143 0.99626 0.44989 0.0
C604 C 0.18817 0.04835 0.49902 0.0
C605 C 0.20631 0.05011 0.51664 0.0
C606 C 0.18488 0.01638 0.47026 0.0
C607 C 0.21417 0.03553 0.50883 0.0
C608 C 0.17666 0.97916 0.44746 0.0
C609 C 0.13763 0.974 0.42072 0.0
N610 N 0.20316 0.019 0.4866 0.0
N611 N 0.15229 0.99321 0.43591 0.0
H612 H 0.89741 0.05896 0.00452 0.0
H613 H 0.79939 0.94518 0.93323 0.0
H614 H 0.82801 0.03604 0.02319 0.0
H615 H 0.86912 0.97175 0.91184 0.0
H616 H 0.80857 0.9805 0.9596 0.0
H617 H 0.88659 0.02979 0.96392 0.0
C618 C 0.87985 0.04796 0.99971 0.0
C619 C 0.86359 0.04979 0.01754 0.0
C620 C 0.8218 0.97871 0.94867 0.0
C621 C 0.85098 0.0159 0.97134 0.0
C622 C 0.81656 0.95856 0.93351 0.0
C623 C 0.83355 0.95539 0.92068 0.0
C624 C 0.84418 0.99573 0.95102 0.0
C625 C 0.85549 0.97332 0.92175 0.0
C626 C 0.87365 0.03124 0.9765 0.0
C627 C 0.84109 0.03519 0.01004 0.0
N628 N 0.86017 0.99256 0.93696 0.0
N629 N 0.83543 0.01858 0.98788 0.0
H630 H 0.98716 0.79564 0.02229 0.0
H631 H 0.05225 0.9032 0.90929 0.0
H632 H 0.96757 0.84502 0.00659 0.0
H633 H 0.07827 0.86001 0.93376 0.0
H634 H 0.01725 0.87727 0.93566 0.0
H635 H 0.01654 0.81426 0.98129 0.0
C636 C 0.98872 0.81009 0.00975 0.0
C637 C 0.97506 0.81895 0.01816 0.0
C638 C 0.03048 0.87327 0.93498 0.0
C639 C 1.00864 0.84034 0.97147 0.0
C640 C 0.0505 0.88808 0.91983 0.0
C641 C 0.06835 0.88393 0.91969 0.0
C642 C 0.02825 0.85419 0.95045 0.0
C643 C 0.06498 0.86393 0.93347 0.0
C644 C 1.00557 0.82078 0.9865 0.0
C645 C 0.97789 0.83777 0.00122 0.0
N646 N 0.04543 0.84994 0.94873 0.0
N647 N 0.99443 0.8479 0.97895 0.0
H648 H 0.12188 0.15431 0.90799 0.0
H649 H 0.22974 0.19705 0.02035 0.0
H650 H 0.16484 0.22351 0.93265 0.0
H651 H 0.18035 0.12805 0.00497 0.0
H652 H 0.21099 0.20773 0.97946 0.0
H653 H 0.148 0.14536 0.93401 0.0
C654 C 0.13699 0.1677 0.91849 0.0
C655 C 0.14102 0.18966 0.91852 0.0
C656 C 0.20449 0.19025 0.98471 0.0
C657 C 0.17097 0.17944 0.9489 0.0
C658 C 0.21526 0.18413 0.0079 0.0
C659 C 0.20643 0.16163 0.01637 0.0
C660 C 0.1849 0.17372 0.9698 0.0
C661 C 0.18758 0.14561 0.99954 0.0
C662 C 0.15191 0.16256 0.93345 0.0
C663 C 0.16101 0.20634 0.93224 0.0
N664 N 0.17737 0.15197 0.97733 0.0
N665 N 0.17511 0.20084 0.94732 0.0
H666 H 0.9502 0.79523 0.56978 0.0
H667 H 0.0634 0.89313 0.49685 0.0
H668 H 0.97652 0.86505 0.5902 0.0
H669 H 0.04103 0.82366 0.47979 0.0
H670 H 0.03429 0.88248 0.53751 0.0
H671 H 0.98548 0.80442 0.54325 0.0
C672 C 0.96353 0.81243 0.56925 0.0
C673 C 0.96029 0.82943 0.58186 0.0
C674 C 0.03585 0.8695 0.52527 0.0
C675 C 1.00057 0.84007 0.55133 0.0
C676 C 0.05253 0.8756 0.50202 0.0
C677 C 0.05451 0.85926 0.48463 0.0
C678 C 0.02069 0.84684 0.53092 0.0
C679 C 0.04007 0.8368 0.49259 0.0
C680 C 0.98364 0.81767 0.55401 0.0
C681 C 0.97814 0.85141 0.58048 0.0
N682 N 0.0235 0.83122 0.51478 0.0
N683 N 0.99735 0.8561 0.56518 0.0
H684 H 0.20229 0.22425 0.47916 0.0
H685 H 0.15982 0.11694 0.59267 0.0
H686 H 0.13333 0.17491 0.49499 0.0
H687 H 0.22897 0.15988 0.5677 0.0
H688 H 0.15079 0.14292 0.56637 0.0
H689 H 0.21305 0.20573 0.52032 0.0
C690 C 0.18939 0.20983 0.49176 0.0
C691 C 0.16688 0.20094 0.48334 0.0
C692 C 0.168 0.14686 0.56693 0.0
C693 C 0.17907 0.17968 0.53023 0.0
C694 C 0.17319 0.13203 0.58205 0.0
C695 C 0.19515 0.13608 0.58201 0.0
C696 C 0.18484 0.16587 0.55131 0.0
C697 C 0.21179 0.15603 0.56813 0.0
C698 C 0.19556 0.1992 0.51511 0.0
C699 C 0.1509 0.18217 0.50037 0.0
N700 N 0.20625 0.17005 0.55289 0.0
N701 N 0.1573 0.1721 0.52273 0.0
H702 H 0.90812 0.04772 0.59145 0.0
H703 H 0.80019 0.98263 0.47918 0.0
H704 H 0.86524 0.07405 0.56672 0.0
H705 H 0.84938 0.9628 0.49484 0.0
H706 H 0.81905 0.01217 0.51991 0.0
H707 H 0.88197 0.01266 0.56543 0.0
C708 C 0.89302 0.04603 0.58093 0.0
C709 C 0.88903 0.06398 0.58089 0.0
C710 C 0.82548 1.00111 0.51475 0.0
C711 C 0.85903 0.02381 0.55052 0.0
C712 C 0.81465 0.98417 0.49166 0.0
C713 C 0.82339 0.9704 0.48332 0.0
C714 C 0.84505 1.00414 0.52969 0.0
C715 C 0.84222 0.9732 0.50017 0.0
C716 C 0.87809 0.02598 0.56597 0.0
C717 C 0.86905 0.06069 0.56714 0.0
N718 N 0.85249 0.98982 0.52229 0.0
N719 N 0.85493 0.0411 0.55208 0.0
H720 H 0.79836 0.29411 0.32908 0.0
H721 H 0.89631 0.40746 0.40162 0.0
H722 H 0.8678 0.31681 0.31119 0.0
H723 H 0.82652 0.38105 0.42231 0.0
H724 H 0.88712 0.37219 0.37505 0.0
H725 H 0.80908 0.32319 0.36983 0.0
C726 C 0.81591 0.30505 0.33409 0.0
C727 C 0.83221 0.30318 0.31644 0.0
C728 C 0.87388 0.37401 0.38587 0.0
C729 C 0.84471 0.33695 0.36282 0.0
C730 C 0.87912 0.39412 0.40115 0.0
C731 C 0.86212 0.39733 0.41384 0.0
C732 C 0.85149 0.35706 0.38327 0.0
C733 C 0.84015 0.37946 0.41252 0.0
C734 C 0.82205 0.32171 0.35738 0.0
C735 C 0.85469 0.31769 0.32419 0.0
N736 N 0.83547 0.36025 0.3972 0.0
N737 N 0.8603 0.33423 0.34643 0.0
H738 H 0.61713 0.49382 0.40292 0.0
H739 H 0.73081 0.51004 0.33045 0.0
H740 H 0.64411 0.45096 0.42395 0.0
H741 H 0.70758 0.55634 0.31233 0.0
H742 H 0.70181 0.4916 0.37128 0.0
H743 H 0.6523 0.52005 0.37626 0.0
C744 C 0.63058 0.49012 0.4025 0.0
C745 C 0.62755 0.47001 0.41531 0.0
C746 C 0.70316 0.50597 0.35876 0.0
C747 C 0.66772 0.49982 0.38465 0.0
C748 C 0.71977 0.51654 0.33542 0.0
C749 C 0.72147 0.5346 0.31769 0.0
C750 C 0.68778 0.51323 0.36416 0.0
C751 C 0.70683 0.54242 0.3254 0.0
C752 C 0.65063 0.50508 0.38718 0.0
C753 C 0.64555 0.46611 0.41406 0.0
N754 N 0.69033 0.53144 0.34769 0.0
N755 N 0.66471 0.48071 0.39869 0.0
H756 H 0.57462 0.19838 0.42556 0.0
H757 H 0.46722 0.15634 0.31241 0.0
H758 H 0.53164 0.12931 0.4002 0.0
H759 H 0.51666 0.22523 0.32848 0.0
H760 H 0.48575 0.14542 0.35332 0.0
H761 H 0.54864 0.20752 0.39949 0.0
C762 C 0.55953 0.18505 0.4149 0.0
C763 C 0.55546 0.16308 0.41468 0.0
C764 C 0.4923 0.16293 0.34822 0.0
C765 C 0.52568 0.17351 0.38426 0.0
C766 C 0.48166 0.16919 0.32502 0.0
C767 C 0.49058 0.19173 0.31673 0.0
C768 C 0.51186 0.17936 0.36333 0.0
C769 C 0.50938 0.20765 0.33376 0.0
C770 C 0.5447 0.1903 0.39992 0.0
C771 C 0.5355 0.14649 0.40076 0.0
N772 N 0.51946 0.20116 0.35598 0.0
N773 N 0.52149 0.15209 0.38566 0.0
H774 H 0.65427 0.53031 0.8552 0.0
H775 H 0.71921 0.48752 0.74238 0.0
H776 H 0.63463 0.4613 0.8398 0.0
H777 H 0.74547 0.55675 0.76695 0.0
H778 H 0.68425 0.47857 0.76879 0.0
H779 H 0.68371 0.54099 0.8143 0.0
C780 C 0.65583 0.51739 0.84275 0.0
C781 C 0.64214 0.49489 0.85121 0.0
C782 C 0.69753 0.49578 0.76812 0.0
C783 C 0.67577 0.50697 0.80463 0.0
C784 C 0.71752 0.50092 0.75295 0.0
C785 C 0.73543 0.52289 0.75282 0.0
C786 C 0.69537 0.51267 0.78362 0.0
C787 C 0.73214 0.53957 0.76665 0.0
C788 C 0.67271 0.5235 0.81956 0.0
C789 C 0.64497 0.47886 0.83438 0.0
N790 N 0.71261 0.53407 0.78192 0.0
N791 N 0.66154 0.48522 0.81216 0.0
H792 H 0.4665 0.1926 0.76607 0.0
H793 H 0.56456 0.17703 0.83762 0.0
H794 H 0.53621 0.23577 0.74465 0.0
H795 H 0.49517 0.13043 0.85609 0.0
H796 H 0.55374 0.19535 0.79696 0.0
H797 H 0.47571 0.16649 0.79248 0.0
C798 C 0.48367 0.19639 0.76635 0.0
C799 C 0.50065 0.21656 0.7535 0.0
C800 C 0.54081 0.18094 0.80951 0.0
C801 C 0.51131 0.18689 0.7839 0.0
C802 C 0.547 0.17044 0.83276 0.0
C803 C 0.53074 0.15232 0.85055 0.0
C804 C 0.51813 0.17356 0.80427 0.0
C805 C 0.50825 0.14439 0.84298 0.0
C806 C 0.48893 0.18151 0.78153 0.0
C807 C 0.5226 0.22058 0.75456 0.0
N808 N 0.50258 0.1553 0.82078 0.0
N809 N 0.5273 0.20605 0.76981 0.0
H810 H 0.89641 0.37065 0.85407 0.0
H811 H 0.78875 0.30592 0.74126 0.0
H812 H 0.84731 0.39058 0.83829 0.0
H813 H 0.83157 0.27951 0.76591 0.0
H814 H 0.8149 0.34094 0.76737 0.0
H815 H 0.8777 0.34128 0.81307 0.0
C816 C 0.88201 0.36917 0.8415 0.0
C817 C 0.87324 0.38291 0.8499 0.0
C818 C 0.81877 0.32762 0.76679 0.0
C819 C 0.85175 0.34936 0.80321 0.0
C820 C 0.80384 0.30759 0.75178 0.0
C821 C 0.80781 0.28963 0.75178 0.0
C822 C 0.8378 0.32974 0.78226 0.0
C823 C 0.82778 0.29288 0.76553 0.0
C824 C 0.87126 0.35233 0.81826 0.0
C825 C 0.85448 0.38019 0.83292 0.0
N826 N 0.8419 0.31245 0.78066 0.0
N827 N 0.84429 0.36365 0.81066 0.0
H828 H 0.49479 0.37057 0.35606 0.0
H829 H 0.53766 0.30588 0.24287 0.0
H830 H 0.56382 0.39041 0.34036 0.0
H831 H 0.46842 0.27961 0.2673 0.0
H832 H 0.5466 0.34081 0.26937 0.0
H833 H 0.48414 0.34121 0.31504 0.0
C834 C 0.50772 0.36907 0.34352 0.0
C835 C 0.53022 0.3828 0.35193 0.0
C836 C 0.52939 0.32754 0.26866 0.0
C837 C 0.51817 0.34925 0.30522 0.0
C838 C 0.52425 0.30756 0.25343 0.0
C839 C 0.50229 0.28966 0.25323 0.0
C840 C 0.51249 0.32968 0.28415 0.0
C841 C 0.4856 0.29293 0.26705 0.0
C842 C 0.50163 0.35223 0.32026 0.0
C843 C 0.54626 0.38004 0.33499 0.0
N844 N 0.49109 0.31245 0.28237 0.0
N845 N 0.53992 0.36352 0.31271 0.0
H846 H 0.71858 0.23594 0.24113 0.0
H847 H 0.65369 0.12825 0.3539 0.0
H848 H 0.74485 0.193 0.26577 0.0
H849 H 0.63406 0.17763 0.33854 0.0
H850 H 0.68302 0.14692 0.31283 0.0
H851 H 0.68355 0.20985 0.26729 0.0
C852 C 0.71688 0.22084 0.25165 0.0
C853 C 0.73481 0.21682 0.25165 0.0
C854 C 0.67204 0.15343 0.31813 0.0
C855 C 0.69468 0.1869 0.28217 0.0
C856 C 0.65522 0.14271 0.34141 0.0
C857 C 0.64158 0.15157 0.34995 0.0
C858 C 0.67508 0.173 0.30317 0.0
C859 C 0.64437 0.17039 0.33307 0.0
C860 C 0.69685 0.20594 0.26669 0.0
C861 C 0.7315 0.19683 0.26539 0.0
N862 N 0.66088 0.18055 0.31076 0.0
N863 N 0.71194 0.18275 0.28055 0.0
H864 H 0.84848 0.46098 0.33671 0.0
H865 H 0.83224 0.55877 0.26566 0.0
H866 H 0.89463 0.53041 0.35572 0.0
H867 H 0.78937 0.48902 0.24411 0.0
H868 H 0.85849 0.54972 0.29199 0.0
H869 H 0.83011 0.47174 0.29606 0.0
C870 C 0.85496 0.47854 0.33197 0.0
C871 C 0.87296 0.49482 0.34991 0.0
C872 C 0.84351 0.53646 0.28102 0.0
C873 C 0.85166 0.50736 0.30365 0.0
C874 C 0.82854 0.54162 0.26589 0.0
C875 C 0.80842 0.52458 0.25304 0.0
C876 C 0.83825 0.5141 0.28332 0.0
C877 C 0.80452 0.50268 0.25403 0.0
C878 C 0.84443 0.4847 0.30873 0.0
C879 C 0.88077 0.51731 0.34249 0.0
N880 N 0.81914 0.49807 0.26923 0.0
N881 N 0.86982 0.52294 0.3203 0.0
H882 H 0.6446 0.19891 0.92544 0.0
H883 H 0.70935 0.15639 0.81182 0.0
H884 H 0.61832 0.12975 0.90047 0.0
H885 H 0.72909 0.22537 0.82786 0.0
H886 H 0.68005 0.14561 0.85296 0.0
H887 H 0.67959 0.20791 0.89911 0.0
C888 C 0.64629 0.18553 0.9148 0.0
C889 C 0.62837 0.16358 0.91478 0.0
C890 C 0.69104 0.16311 0.8478 0.0
C891 C 0.66845 0.17385 0.88404 0.0
C892 C 0.70785 0.16928 0.82447 0.0
C893 C 0.72151 0.1918 0.81611 0.0
C894 C 0.68804 0.17961 0.86297 0.0
C895 C 0.71876 0.20779 0.83319 0.0
C896 C 0.66631 0.1907 0.89967 0.0
C897 C 0.63166 0.14692 0.90088 0.0
N898 N 0.70226 0.20138 0.85554 0.0
N899 N 0.65121 0.15245 0.88563 0.0
H900 H 0.82625 0.4498 0.92479 0.0
H901 H 0.86863 0.55751 0.81212 0.0
H902 H 0.89541 0.4929 0.90002 0.0
H903 H 0.79969 0.50807 0.82781 0.0
H904 H 0.87943 0.53882 0.85294 0.0
H905 H 0.81718 0.4758 0.89862 0.0
C906 C 0.83961 0.46492 0.91423 0.0
C907 C 0.86159 0.46901 0.91423 0.0
C908 C 0.86194 0.5323 0.84777 0.0
C909 C 0.85124 0.49883 0.88368 0.0
C910 C 0.85575 0.54303 0.82462 0.0
C911 C 0.83323 0.53418 0.81626 0.0
C912 C 0.84546 0.51271 0.86276 0.0
C913 C 0.81726 0.51532 0.83315 0.0
C914 C 0.8344 0.47976 0.89919 0.0
C915 C 0.87822 0.48901 0.90042 0.0
N916 N 0.82369 0.50515 0.85532 0.0
N917 N 0.87266 0.50304 0.88527 0.0
H918 H 0.53114 0.40784 0.90266 0.0
H919 H 0.51504 0.29407 0.83078 0.0
H920 H 0.5742 0.3811 0.92367 0.0
H921 H 0.46846 0.31698 0.81294 0.0
H922 H 0.53355 0.32322 0.87137 0.0
H923 H 0.5049 0.37256 0.87629 0.0
C924 C 0.53488 0.39443 0.90229 0.0
C925 C 0.55505 0.39755 0.91502 0.0
C926 C 0.51911 0.32177 0.85898 0.0
C927 C 0.52523 0.35725 0.88468 0.0
C928 C 0.5085 0.30507 0.83577 0.0
C929 C 0.49032 0.30323 0.81818 0.0
C930 C 0.51179 0.3371 0.86437 0.0
C931 C 0.48245 0.31783 0.8259 0.0
C932 C 0.51992 0.37431 0.88714 0.0
C933 C 0.55901 0.37958 0.91385 0.0
N934 N 0.49348 0.33442 0.84805 0.0
N935 N 0.5444 0.36036 0.89864 0.0
H936 H 0.46554 0.62758 0.66378 0.0
H937 H 0.56316 0.74119 0.73603 0.0
H938 H 0.53502 0.65051 0.64586 0.0
H939 H 0.49338 0.71433 0.75727 0.0
H940 H 0.55414 0.70595 0.70952 0.0
H941 H 0.47617 0.65662 0.70457 0.0
C942 C 0.48308 0.63856 0.66879 0.0
C943 C 0.49942 0.63677 0.65113 0.0
C944 C 0.54087 0.70766 0.72046 0.0
C945 C 0.51181 0.6705 0.69754 0.0
C946 C 0.54602 0.72775 0.7357 0.0
C947 C 0.52896 0.73083 0.74852 0.0
C948 C 0.51851 0.69059 0.718 0.0
C949 C 0.50705 0.71285 0.74738 0.0
C950 C 0.48916 0.6552 0.69211 0.0
C951 C 0.52188 0.65134 0.65888 0.0
N952 N 0.50246 0.69366 0.73207 0.0
N953 N 0.52744 0.66786 0.68114 0.0
H954 H 0.37537 0.89076 0.64573 0.0
H955 H 0.31059 0.78321 0.75877 0.0
H956 H 0.39527 0.84163 0.66167 0.0
H957 H 0.28426 0.82608 0.73399 0.0
H958 H 0.34561 0.80929 0.73259 0.0
H959 H 0.346 0.87209 0.68673 0.0
C960 C 0.37389 0.87636 0.65833 0.0
C961 C 0.38762 0.86757 0.64998 0.0
C962 C 0.3323 0.81319 0.73316 0.0
C963 C 0.35407 0.84613 0.69667 0.0
C964 C 0.31227 0.79829 0.74821 0.0
C965 C 0.29434 0.8023 0.74819 0.0
C966 C 0.33445 0.83222 0.71764 0.0
C967 C 0.29762 0.82226 0.73439 0.0
C968 C 0.35704 0.86564 0.68158 0.0
C969 C 0.38489 0.84882 0.667 0.0
N970 N 0.31718 0.83634 0.71923 0.0
N971 N 0.36835 0.83865 0.68926 0.0
H972 H 0.18106 0.55869 0.66338 0.0
H973 H 0.19741 0.46103 0.73466 0.0
H974 H 0.13493 0.48923 0.6445 0.0
H975 H 0.2401 0.53078 0.7564 0.0
H976 H 0.17117 0.47002 0.70818 0.0
H977 H 0.19944 0.54798 0.70408 0.0
C978 C 0.17458 0.54114 0.66816 0.0
C979 C 0.15658 0.52483 0.65025 0.0
C980 C 0.18611 0.48329 0.71921 0.0
C981 C 0.17791 0.51235 0.69656 0.0
C982 C 0.20107 0.47816 0.73443 0.0
C983 C 0.22114 0.49522 0.7474 0.0
C984 C 0.19132 0.50563 0.71693 0.0
C985 C 0.22499 0.51711 0.7464 0.0
C986 C 0.18512 0.535 0.69143 0.0
C987 C 0.14879 0.50234 0.65772 0.0
N988 N 0.21038 0.52169 0.73112 0.0
N989 N 0.15975 0.49674 0.67993 0.0
H990 H 0.38485 0.82112 0.07495 0.0
H991 H 0.32002 0.86366 0.18838 0.0
H992 H 0.41122 0.89026 0.10016 0.0
H993 H 0.30023 0.79468 0.17226 0.0
H994 H 0.34941 0.87445 0.14736 0.0
H995 H 0.34983 0.81215 0.10116 0.0
C996 C 0.38317 0.8345 0.08561 0.0
C997 C 0.40113 0.85644 0.08574 0.0
C998 C 0.33839 0.85695 0.15248 0.0
C999 C 0.36101 0.8462 0.11633 0.0
C1000 C 0.32153 0.85077 0.17574 0.0
C1001 C 0.30783 0.82825 0.18404 0.0
C1002 C 0.34139 0.84045 0.13732 0.0
C1003 C 0.31059 0.81226 0.16697 0.0
C1004 C 0.36314 0.82935 0.10067 0.0
C1005 C 0.39786 0.8731 0.09967 0.0
N1006 N 0.32713 0.81868 0.14469 0.0
N1007 N 0.37829 0.86759 0.11484 0.0
H1008 H 0.20382 0.56957 0.07544 0.0
H1009 H 0.16122 0.46168 0.18775 0.0
H1010 H 0.13462 0.52639 0.09989 0.0
H1011 H 0.23018 0.51128 0.1727 0.0
H1012 H 0.15052 0.48038 0.14679 0.0
H1013 H 0.21285 0.54353 0.10156 0.0
C1014 C 0.19044 0.55443 0.08591 0.0
C1015 C 0.16846 0.55032 0.08586 0.0
C1016 C 0.16801 0.48693 0.15213 0.0
C1017 C 0.17877 0.52046 0.11633 0.0
C1018 C 0.17413 0.4762 0.17536 0.0
C1019 C 0.19661 0.4851 0.18394 0.0
C1020 C 0.18451 0.50657 0.13729 0.0
C1021 C 0.21263 0.504 0.16718 0.0
C1022 C 0.19563 0.53956 0.10092 0.0
C1023 C 0.15181 0.53029 0.09954 0.0
N1024 N 0.20626 0.51417 0.14493 0.0
N1025 N 0.15735 0.51624 0.11467 0.0
H1026 H 0.56205 0.70368 0.18849 0.0
H1027 H 0.4544 0.63873 0.0757 0.0
H1028 H 0.51287 0.72351 0.17262 0.0
H1029 H 0.49745 0.61255 0.10015 0.0
H1030 H 0.48044 0.67375 0.10191 0.0
H1031 H 0.54335 0.67426 0.14756 0.0
C1032 C 0.54762 0.70216 0.17593 0.0
C1033 C 0.53884 0.71589 0.18428 0.0
C1034 C 0.48438 0.66047 0.10126 0.0
C1035 C 0.51736 0.68229 0.13766 0.0
C1036 C 0.46951 0.64045 0.0862 0.0
C1037 C 0.47358 0.62255 0.0861 0.0
C1038 C 0.50345 0.66266 0.1167 0.0
C1039 C 0.49358 0.62587 0.09983 0.0
C1040 C 0.53689 0.68529 0.15272 0.0
C1041 C 0.52006 0.71313 0.1673 0.0
N1042 N 0.50764 0.64543 0.11501 0.0
N1043 N 0.50988 0.69657 0.14507 0.0
H1044 H 0.20348 0.63863 0.57536 0.0
H1045 H 0.16105 0.70365 0.68859 0.0
H1046 H 0.1343 0.61257 0.6 0.0
H1047 H 0.23001 0.72328 0.67269 0.0
H1048 H 0.15026 0.67429 0.64753 0.0
H1049 H 0.21254 0.67365 0.60167 0.0
C1050 C 0.19011 0.64038 0.58591 0.0
C1051 C 0.16813 0.62251 0.58585 0.0
C1052 C 0.16776 0.68527 0.65271 0.0
C1053 C 0.17848 0.66263 0.61656 0.0
C1054 C 0.17394 0.70211 0.67599 0.0
C1055 C 0.19645 0.71576 0.68436 0.0
C1056 C 0.18425 0.68223 0.6376 0.0
C1057 C 0.21243 0.71296 0.66734 0.0
C1058 C 0.19532 0.66041 0.60104 0.0
C1059 C 0.15149 0.62587 0.59965 0.0
N1060 N 0.20602 0.69644 0.64505 0.0
N1061 N 0.15705 0.64543 0.61489 0.0
H1062 H 0.32049 0.46191 0.68775 0.0
H1063 H 0.38597 0.56991 0.57565 0.0
H1064 H 0.30108 0.51147 0.6725 0.0
H1065 H 0.41198 0.52672 0.60018 0.0
H1066 H 0.35088 0.54387 0.60172 0.0
H1067 H 0.35002 0.4807 0.64698 0.0
C1068 C 0.32212 0.47644 0.67535 0.0
C1069 C 0.30847 0.4853 0.68382 0.0
C1070 C 0.36413 0.5399 0.60111 0.0
C1071 C 0.3422 0.50687 0.63739 0.0
C1072 C 0.3842 0.55476 0.58613 0.0
C1073 C 0.40207 0.55065 0.58611 0.0
C1074 C 0.36187 0.52079 0.61652 0.0
C1075 C 0.39868 0.53062 0.59981 0.0
C1076 C 0.33905 0.48722 0.65224 0.0
C1077 C 0.31139 0.50421 0.66707 0.0
N1078 N 0.37908 0.51657 0.6149 0.0
N1079 N 0.328 0.51443 0.64493 0.0
H1080 H 0.5143 0.79369 0.6711 0.0
H1081 H 0.49845 0.89129 0.59842 0.0
H1082 H 0.56096 0.86319 0.68867 0.0
H1083 H 0.45539 0.82146 0.57758 0.0
H1084 H 0.52466 0.88227 0.62494 0.0
H1085 H 0.4959 0.80427 0.63026 0.0
C1086 C 0.52088 0.81122 0.666 0.0
C1087 C 0.53904 0.82758 0.68359 0.0
C1088 C 0.50964 0.86898 0.61409 0.0
C1089 C 0.5177 0.83992 0.63712 0.0
C1090 C 0.49471 0.87413 0.59885 0.0
C1091 C 0.47454 0.85707 0.58614 0.0
C1092 C 0.50432 0.84662 0.61666 0.0
C1093 C 0.47057 0.83514 0.58739 0.0
C1094 C 0.51033 0.81728 0.64266 0.0
C1095 C 0.54697 0.85004 0.67572 0.0
N1096 N 0.48516 0.83055 0.6027 0.0
N1097 N 0.536 0.85558 0.65344 0.0
H1098 H 0.31041 0.53147 0.25927 0.0
H1099 H 0.3751 0.48903 0.14535 0.0
H1100 H 0.28397 0.46237 0.23375 0.0
H1101 H 0.39509 0.55801 0.16201 0.0
H1102 H 0.34572 0.4782 0.18639 0.0
H1103 H 0.34543 0.54045 0.23304 0.0
C1104 C 0.31207 0.5181 0.24854 0.0
C1105 C 0.2941 0.49617 0.24833 0.0
C1106 C 0.35678 0.49571 0.18139 0.0
C1107 C 0.33421 0.50643 0.21771 0.0
C1108 C 0.37363 0.50191 0.15812 0.0
C1109 C 0.38739 0.52445 0.14996 0.0
C1110 C 0.35383 0.51219 0.1967 0.0
C1111 C 0.38468 0.54042 0.16719 0.0
C1112 C 0.3321 0.52326 0.23346 0.0
C1113 C 0.29735 0.47953 0.2343 0.0
N1114 N 0.36815 0.53398 0.18947 0.0
N1115 N 0.31691 0.48504 0.21911 0.0
H1116 H 0.56251 0.82683 0.23505 0.0
H1117 H 0.46471 0.84263 0.16291 0.0
H1118 H 0.49273 0.78374 0.25616 0.0
H1119 H 0.53416 0.88917 0.14475 0.0
H1120 H 0.47541 0.82421 0.20358 0.0
H1121 H 0.55341 0.85295 0.20842 0.0
C1122 C 0.54535 0.82306 0.23465 0.0
C1123 C 0.52832 0.80292 0.24749 0.0
C1124 C 0.48838 0.83862 0.19109 0.0
C1125 C 0.51778 0.8326 0.21686 0.0
C1126 C 0.48225 0.84918 0.16784 0.0
C1127 C 0.49857 0.86732 0.15014 0.0
C1128 C 0.51103 0.84596 0.19643 0.0
C1129 C 0.52104 0.8752 0.15779 0.0
C1130 C 0.54015 0.83795 0.21935 0.0
C1131 C 0.50639 0.79891 0.24627 0.0
N1132 N 0.52664 0.86424 0.17999 0.0
N1133 N 0.50175 0.81346 0.23091 0.0
H1134 H 0.19724 0.74068 0.23587 0.0
H1135 H 0.18192 0.62731 0.16364 0.0
H1136 H 0.24068 0.71435 0.25666 0.0
H1137 H 0.13501 0.64982 0.14595 0.0
H1138 H 0.20027 0.65641 0.20434 0.0
H1139 H 0.17114 0.70535 0.2095 0.0
C1140 C 0.2011 0.72735 0.23546 0.0
C1141 C 0.22133 0.73059 0.24811 0.0
C1142 C 0.18579 0.65488 0.19195 0.0
C1143 C 0.19167 0.69024 0.21777 0.0
C1144 C 0.17527 0.63821 0.16869 0.0
C1145 C 0.15705 0.63628 0.1511 0.0
C1146 C 0.17833 0.6701 0.19742 0.0
C1147 C 0.14904 0.65075 0.1589 0.0
C1148 C 0.18622 0.7072 0.2203 0.0
C1149 C 0.22543 0.71272 0.24689 0.0
N1150 N 0.15997 0.66732 0.18111 0.0
N1151 N 0.21089 0.69347 0.23167 0.0
H1152 H 0.13249 0.16476 0.31106 0.0
H1153 H 0.23256 0.19137 0.18851 0.0
H1154 H 0.19658 0.22511 0.31188 0.0
H1155 H 0.17087 0.12847 0.18823 0.0
H1156 H 0.21886 0.20366 0.23366 0.0
H1157 H 0.14521 0.15107 0.26548 0.0
C1158 C 0.14915 0.17518 0.30157 0.0
C1159 C 0.16349 0.19612 0.31539 0.0
C1160 C 0.20827 0.18712 0.22388 0.0
C1161 C 0.17814 0.18052 0.26353 0.0
C1162 C 0.21612 0.18006 0.19803 0.0
C1163 C 0.20284 0.15885 0.18443 0.0
C1164 C 0.18688 0.17297 0.2364 0.0
C1165 C 0.18169 0.14495 0.19799 0.0
C1166 C 0.15642 0.16731 0.27567 0.0
C1167 C 0.18492 0.20885 0.30218 0.0
N1168 N 0.17431 0.15229 0.22319 0.0
N1169 N 0.19155 0.20085 0.27711 0.0
H1170 H 0.79723 0.97347 0.31099 0.0
H1171 H 0.89776 0.04773 0.18955 0.0
H1172 H 0.85914 0.9727 0.31203 0.0
H1173 H 0.83375 0.04416 0.18894 0.0
H1174 H 0.88492 0.02107 0.23483 0.0
H1175 H 0.81107 0.99964 0.26609 0.0
C1176 C 0.81375 0.97873 0.30169 0.0
C1177 C 0.82705 0.97087 0.31543 0.0
C1178 C 0.87376 0.0262 0.22475 0.0
C1179 C 0.84318 1.00119 0.26375 0.0
C1180 C 0.8811 0.04149 0.19903 0.0
C1181 C 0.86681 0.04819 0.18534 0.0
C1182 C 0.85202 0.01765 0.23684 0.0
C1183 C 0.84537 0.03948 0.19853 0.0
C1184 C 0.82169 0.99376 0.27597 0.0
C1185 C 0.8483 0.97829 0.30213 0.0
N1186 N 0.83868 0.0247 0.22341 0.0
N1187 N 0.85577 0.99314 0.27708 0.0
H1188 H 0.97664 0.85501 0.19015 0.0
H1189 H 0.05036 0.82871 0.31257 0.0
H1190 H 0.98033 0.79462 0.18962 0.0
H1191 H 0.0516 0.89163 0.31257 0.0
H1192 H 0.02425 0.8163 0.26759 0.0
H1193 H 1.00313 0.86881 0.2356 0.0
C1194 C 0.98287 0.8446 0.19968 0.0
C1195 C 0.97625 0.82362 0.18598 0.0
C1196 C 0.03022 0.83286 0.27727 0.0
C1197 C 1.00659 0.83935 0.23769 0.0
C1198 C 0.04521 0.84 0.30303 0.0
C1199 C 0.05319 0.86126 0.31649 0.0
C1200 C 0.02296 0.84698 0.26472 0.0
C1201 C 0.04591 0.87512 0.3029 0.0
C1202 C 0.99807 0.85253 0.2255 0.0
C1203 C 0.98495 0.81091 0.19924 0.0
N1204 N 0.03111 0.86771 0.2778 0.0
N1205 N 0.99963 0.81897 0.22423 0.0
H1206 H 0.89718 0.85493 0.69001 0.0
H1207 H 0.79719 0.8283 0.81275 0.0
H1208 H 0.83325 0.79439 0.68979 0.0
H1209 H 0.85881 0.89127 0.81292 0.0
H1210 H 0.81095 0.81599 0.76773 0.0
H1211 H 0.8845 0.86867 0.73559 0.0
C1212 C 0.88057 0.84448 0.69963 0.0
C1213 C 0.86625 0.82348 0.68597 0.0
C1214 C 0.82152 0.83254 0.77745 0.0
C1215 C 0.85165 0.83913 0.73783 0.0
C1216 C 0.81363 0.83963 0.80324 0.0
C1217 C 0.82687 0.86087 0.81676 0.0
C1218 C 0.8429 0.84671 0.76492 0.0
C1219 C 0.84802 0.87478 0.8032 0.0
C1220 C 0.87332 0.85237 0.72553 0.0
C1221 C 0.84488 0.8107 0.69936 0.0
N1222 N 0.85544 0.86741 0.77806 0.0
N1223 N 0.83827 0.81873 0.72441 0.0
H1224 H 0.23187 0.04482 0.68831 0.0
H1225 H 0.13187 0.97191 0.81126 0.0
H1226 H 0.17065 0.04693 0.68889 0.0
H1227 H 0.19546 0.97457 0.81101 0.0
H1228 H 0.14468 0.99837 0.76574 0.0
H1229 H 0.21796 0.01857 0.73312 0.0
C1230 C 0.21549 0.03983 0.69794 0.0
C1231 C 0.20241 0.04811 0.6847 0.0
C1232 C 0.15575 0.99308 0.77568 0.0
C1233 C 0.18621 0.01772 0.73628 0.0
C1234 C 0.14843 0.97791 0.80154 0.0
C1235 C 0.16262 0.97102 0.81506 0.0
C1236 C 0.17737 1.00132 0.76328 0.0
C1237 C 0.18393 0.97942 0.80155 0.0
C1238 C 0.20752 0.02476 0.7236 0.0
C1239 C 0.18132 0.04102 0.69839 0.0
N1240 N 0.19061 0.99409 0.77654 0.0
N1241 N 0.17382 0.02614 0.72339 0.0
H1242 H 0.97881 0.19122 0.68903 0.0
H1243 H 0.05273 0.16492 0.81107 0.0
H1244 H 0.97796 0.12849 0.68841 0.0
H1245 H 0.04852 0.22502 0.81239 0.0
H1246 H 0.02628 0.15118 0.76556 0.0
H1247 H 1.00478 0.20353 0.73418 0.0
C1248 C 0.98402 0.17995 0.69847 0.0
C1249 C 0.97619 0.15878 0.68478 0.0
C1250 C 0.03122 0.16738 0.77585 0.0
C1251 C 1.00626 0.17293 0.73675 0.0
C1252 C 0.04638 0.17528 0.80171 0.0
C1253 C 0.05285 0.19616 0.81565 0.0
C1254 C 0.02257 0.18051 0.76386 0.0
C1255 C 0.04401 0.20881 0.80259 0.0
C1256 C 0.99892 0.18703 0.72433 0.0
C1257 C 0.98353 0.14493 0.69825 0.0
N1258 N 0.02937 0.20078 0.77755 0.0
N1259 N 0.99826 0.15229 0.72344 0.0
H1260 H 0.86251 0.56059 0.64391 0.0
H1261 H 0.83661 0.46037 0.52203 0.0
H1262 H 0.79996 0.49854 0.64474 0.0
H1263 H 0.89684 0.52456 0.52136 0.0
H1264 H 0.82272 0.47305 0.56741 0.0
H1265 H 0.87492 0.54693 0.59887 0.0
C1266 C 0.8513 0.54408 0.63453 0.0
C1267 C 0.83015 0.53069 0.64826 0.0
C1268 C 0.83898 0.48429 0.5573 0.0
C1269 C 0.84443 0.51476 0.59643 0.0
C1270 C 0.84696 0.47704 0.53151 0.0
C1271 C 0.86792 0.49142 0.51779 0.0
C1272 C 0.8521 0.50603 0.56942 0.0
C1273 C 0.88057 0.51287 0.53099 0.0
C1274 C 0.85844 0.53625 0.60874 0.0
C1275 C 0.81638 0.50945 0.63487 0.0
N1276 N 0.87246 0.51947 0.55594 0.0
N1277 N 0.8238 0.50208 0.60974 0.0
H1278 H 0.46445 0.30765 0.64612 0.0
H1279 H 0.56469 0.38129 0.5239 0.0
H1280 H 0.52604 0.30626 0.64635 0.0
H1281 H 0.50075 0.37789 0.52346 0.0
H1282 H 0.55191 0.35478 0.56937 0.0
H1283 H 0.4783 0.33384 0.60124 0.0
C1284 C 0.4809 0.31279 0.63665 0.0
C1285 C 0.49411 0.30473 0.65015 0.0
C1286 C 0.54075 0.35992 0.55929 0.0
C1287 C 0.51024 0.33506 0.59848 0.0
C1288 C 0.54806 0.37512 0.53346 0.0
C1289 C 0.53376 0.38181 0.51976 0.0
C1290 C 0.51905 0.35146 0.57148 0.0
C1291 C 0.51236 0.3732 0.53306 0.0
C1292 C 0.48884 0.32782 0.61095 0.0
C1293 C 0.51527 0.312 0.63665 0.0
N1294 N 0.5057 0.35851 0.55805 0.0
N1295 N 0.52275 0.32685 0.6116 0.0
H1296 H 0.64568 0.12572 0.52206 0.0
H1297 H 0.71945 0.22609 0.64399 0.0
H1298 H 0.64441 0.18739 0.52172 0.0
H1299 H 0.71598 0.16211 0.64471 0.0
H1300 H 0.6929 0.21324 0.59861 0.0
H1301 H 0.67185 0.13955 0.56697 0.0
C1302 C 0.65083 0.14219 0.53152 0.0
C1303 C 0.64283 0.15542 0.51798 0.0
C1304 C 0.69802 0.20209 0.60874 0.0
C1305 C 0.67313 0.17153 0.56966 0.0
C1306 C 0.71325 0.20943 0.63452 0.0
C1307 C 0.71995 0.19515 0.64826 0.0
C1308 C 0.68953 0.18036 0.59663 0.0
C1309 C 0.71129 0.17371 0.63507 0.0
C1310 C 0.66586 0.15011 0.55723 0.0
C1311 C 0.65012 0.1766 0.53145 0.0
N1312 N 0.69657 0.16702 0.61012 0.0
N1313 N 0.66495 0.18406 0.5565 0.0
H1314 H 0.56509 0.18845 0.0227 0.0
H1315 H 0.46479 0.16262 0.14435 0.0
H1316 H 0.50087 0.12826 0.02196 0.0
H1317 H 0.52687 0.22514 0.14533 0.0
H1318 H 0.47849 0.1502 0.09939 0.0
H1319 H 0.55241 0.20235 0.06807 0.0
C1320 C 0.54842 0.17811 0.03217 0.0
C1321 C 0.53402 0.15716 0.01842 0.0
C1322 C 0.48917 0.16667 0.10928 0.0
C1323 C 0.51942 0.17299 0.07003 0.0
C1324 C 0.48132 0.17382 0.13503 0.0
C1325 C 0.49471 0.19497 0.14877 0.0
C1326 C 0.51068 0.18067 0.09702 0.0
C1327 C 0.51597 0.20872 0.13544 0.0
C1328 C 0.54117 0.18609 0.05794 0.0
C1329 C 0.51257 0.14452 0.0316 0.0
N1330 N 0.52336 0.20129 0.11035 0.0
N1331 N 0.50596 0.15264 0.05654 0.0
H1332 H 0.89885 0.37879 0.02199 0.0
H1333 H 0.79851 0.30513 0.14403 0.0
H1334 H 0.83721 0.3801 0.02163 0.0
H1335 H 0.86253 0.30871 0.14493 0.0
H1336 H 0.81134 0.33162 0.09856 0.0
H1337 H 0.88501 0.35265 0.06695 0.0
C1338 C 0.88239 0.37365 0.03145 0.0
C1339 C 0.86917 0.38166 0.01789 0.0
C1340 C 0.8225 0.32653 0.10875 0.0
C1341 C 0.85305 0.3514 0.06963 0.0
C1342 C 0.81517 0.31134 0.13458 0.0
C1343 C 0.82947 0.30469 0.1484 0.0
C1344 C 0.84424 0.33503 0.09666 0.0
C1345 C 0.85091 0.31336 0.13523 0.0
C1346 C 0.87446 0.35864 0.05719 0.0
C1347 C 0.848 0.37439 0.03137 0.0
N1348 N 0.85759 0.32804 0.11022 0.0
N1349 N 0.84053 0.35958 0.05646 0.0
H1350 H 0.64504 0.52437 0.0236 0.0
H1351 H 0.71955 0.49864 0.14532 0.0
H1352 H 0.64463 0.46186 0.02277 0.0
H1353 H 0.71524 0.55869 0.14632 0.0
H1354 H 0.69298 0.48473 0.09994 0.0
H1355 H 0.6711 0.5368 0.06865 0.0
C1356 C 0.65036 0.51317 0.03298 0.0
C1357 C 0.64263 0.49203 0.01925 0.0
C1358 C 0.69793 0.50096 0.11013 0.0
C1359 C 0.67282 0.50633 0.07109 0.0
C1360 C 0.71316 0.50895 0.13591 0.0
C1361 C 0.71963 0.52987 0.14973 0.0
C1362 C 0.68921 0.51401 0.0981 0.0
C1363 C 0.71073 0.54245 0.13662 0.0
C1364 C 0.66532 0.52032 0.05877 0.0
C1365 C 0.65012 0.47827 0.03264 0.0
N1366 N 0.69602 0.53433 0.11167 0.0
N1367 N 0.6649 0.48571 0.05777 0.0
H1368 H 0.46461 0.83153 0.97802 0.0
H1369 H 0.56477 0.8581 0.85566 0.0
H1370 H 0.52858 0.89203 0.97848 0.0
H1371 H 0.50323 0.79506 0.85563 0.0
H1372 H 0.55094 0.87046 0.90055 0.0
H1373 H 0.47736 0.81778 0.93254 0.0
C1374 C 0.48124 0.84198 0.96847 0.0
C1375 C 0.49555 0.86297 0.98217 0.0
C1376 C 0.54041 0.85388 0.89089 0.0
C1377 C 0.51023 0.8473 0.93043 0.0
C1378 C 0.54833 0.84678 0.86518 0.0
C1379 C 0.53514 0.8255 0.85173 0.0
C1380 C 0.51903 0.83971 0.90341 0.0
C1381 C 0.51399 0.81158 0.86529 0.0
C1382 C 0.48853 0.83407 0.94263 0.0
C1383 C 0.51695 0.87573 0.96887 0.0
N1384 N 0.50653 0.81897 0.89034 0.0
N1385 N 0.5236 0.86769 0.94387 0.0
H1386 H 0.23107 0.71426 0.85633 0.0
H1387 H 0.13118 0.64093 0.97921 0.0
H1388 H 0.16713 0.71086 0.8561 0.0
H1389 H 0.19272 0.63942 0.97892 0.0
H1390 H 0.14491 0.66706 0.93424 0.0
H1391 H 0.2184 0.68786 0.9019 0.0
C1392 C 0.21446 0.70811 0.86595 0.0
C1393 C 0.20013 0.71478 0.85229 0.0
C1394 C 0.15546 0.66102 0.94386 0.0
C1395 C 0.18554 0.68454 0.90414 0.0
C1396 C 0.1476 0.64603 0.96961 0.0
C1397 C 0.16082 0.63796 0.98298 0.0
C1398 C 0.17681 0.6682 0.93122 0.0
C1399 C 0.18194 0.64517 0.96932 0.0
C1400 C 0.20721 0.69297 0.89185 0.0
C1401 C 0.17876 0.70619 0.86568 0.0
N1402 N 0.18934 0.65998 0.94423 0.0
N1403 N 0.17216 0.69156 0.89074 0.0
H1404 H 0.3855 0.55917 0.97801 0.0
H1405 H 0.31151 0.45891 0.85605 0.0
H1406 H 0.38186 0.49512 0.97857 0.0
H1407 H 0.31068 0.5208 0.85537 0.0
H1408 H 0.33758 0.47263 0.90108 0.0
H1409 H 0.35893 0.54641 0.93265 0.0
C1410 C 0.37926 0.54252 0.96851 0.0
C1411 C 0.38592 0.52819 0.98219 0.0
C1412 C 0.33171 0.48327 0.89124 0.0
C1413 C 0.35549 0.5135 0.93059 0.0
C1414 C 0.31674 0.4754 0.86546 0.0
C1415 C 0.30889 0.48873 0.85178 0.0
C1416 C 0.33909 0.50473 0.90359 0.0
C1417 C 0.31626 0.50994 0.8652 0.0
C1418 C 0.36402 0.53523 0.94274 0.0
C1419 C 0.37721 0.50676 0.96897 0.0
N1420 N 0.33105 0.51734 0.89032 0.0
N1421 N 0.36248 0.50011 0.94403 0.0
H1422 H 0.19275 0.55895 0.47811 0.0
H1423 H 0.16664 0.45878 0.35601 0.0
H1424 H 0.13241 0.49485 0.47873 0.0
H1425 H 0.22943 0.52058 0.35577 0.0
H1426 H 0.1542 0.47249 0.40097 0.0
H1427 H 0.20659 0.54622 0.43274 0.0
C1428 C 0.18236 0.54229 0.46861 0.0
C1429 C 0.16138 0.52794 0.48232 0.0
C1430 C 0.17074 0.4831 0.39125 0.0
C1431 C 0.17716 0.51328 0.4307 0.0
C1432 C 0.17789 0.47525 0.3655 0.0
C1433 C 0.19912 0.48856 0.35197 0.0
C1434 C 0.18481 0.50453 0.40371 0.0
C1435 C 0.21295 0.50974 0.36549 0.0
C1436 C 0.19031 0.53501 0.44284 0.0
C1437 C 0.14869 0.50651 0.46911 0.0
N1438 N 0.20551 0.51713 0.39057 0.0
N1439 N 0.15678 0.49987 0.44416 0.0
H1440 H 0.52974 0.6412 0.47892 0.0
H1441 H 0.50284 0.71445 0.35635 0.0
H1442 H 0.46668 0.63968 0.4791 0.0
H1443 H 0.56341 0.7111 0.35582 0.0
H1444 H 0.4892 0.68805 0.40195 0.0
H1445 H 0.542 0.66729 0.43391 0.0
C1446 C 0.51839 0.64629 0.46941 0.0
C1447 C 0.49713 0.63822 0.48293 0.0
C1448 C 0.50548 0.69317 0.39182 0.0
C1449 C 0.51123 0.66843 0.43112 0.0
C1450 C 0.51332 0.70831 0.36591 0.0
C1451 C 0.5343 0.71499 0.35215 0.0
C1452 C 0.51876 0.68476 0.40403 0.0
C1453 C 0.54711 0.70642 0.36547 0.0
C1454 C 0.52544 0.66127 0.44364 0.0
C1455 C 0.48319 0.64543 0.46939 0.0
N1456 N 0.53914 0.69179 0.39053 0.0
N1457 N 0.49052 0.66022 0.44427 0.0
H1458 H 0.38584 0.83132 0.47793 0.0
H1459 H 0.31163 0.85755 0.35637 0.0
H1460 H 0.38211 0.89169 0.47867 0.0
H1461 H 0.31086 0.79486 0.35546 0.0
H1462 H 0.33781 0.86991 0.40125 0.0
H1463 H 0.35926 0.81752 0.43256 0.0
C1464 C 0.37958 0.84172 0.46846 0.0
C1465 C 0.38621 0.86269 0.48221 0.0
C1466 C 0.33193 0.85341 0.3914 0.0
C1467 C 0.35577 0.84697 0.43061 0.0
C1468 C 0.3169 0.8463 0.36569 0.0
C1469 C 0.30903 0.82513 0.352 0.0
C1470 C 0.33935 0.83934 0.40366 0.0
C1471 C 0.31646 0.81131 0.36531 0.0
C1472 C 0.36434 0.83379 0.44269 0.0
C1473 C 0.37748 0.8754 0.46903 0.0
N1474 N 0.3313 0.81869 0.39036 0.0
N1475 N 0.36275 0.86733 0.4441 0.0
H1476 H 0.31732 0.20622 0.12579 0.0
H1477 H 0.38008 0.14757 0.20682 0.0
H1478 H 0.28878 0.13493 0.13248 0.0
H1479 H 0.40857 0.21887 0.2003 0.0
H1480 H 0.34641 0.14264 0.18024 0.0
H1481 H 0.35102 0.21116 0.1523 0.0
C1482 C 0.3182 0.19158 0.13254 0.0
C1483 C 0.30015 0.17011 0.12684 0.0
C1484 C 0.35997 0.15937 0.18474 0.0
C1485 C 0.33871 0.17568 0.15768 0.0
C1486 C 0.3792 0.16222 0.20009 0.0
C1487 C 0.39723 0.18369 0.20586 0.0
C1488 C 0.35869 0.17812 0.17495 0.0
C1489 C 0.39509 0.20201 0.19644 0.0
C1490 C 0.33744 0.19442 0.14786 0.0
C1491 C 0.30228 0.15179 0.13629 0.0
N1492 N 0.37623 0.1988 0.18137 0.0
N1493 N 0.32115 0.15499 0.15133 0.0
H1494 H 0.80492 0.19415 0.20191 0.0
H1495 H 0.89107 0.15882 0.13232 0.0
H1496 H 0.87635 0.23674 0.205 0.0
H1497 H 0.81964 0.11614 0.12947 0.0
H1498 H 0.88601 0.18775 0.15831 0.0
H1499 H 0.80996 0.16519 0.17597 0.0
C1500 C 0.82167 0.19735 0.19743 0.0
C1501 C 0.84023 0.21793 0.20569 0.0
C1502 C 0.87144 0.17209 0.15188 0.0
C1503 C 0.84614 0.18492 0.17559 0.0
C1504 C 0.87431 0.1556 0.13686 0.0
C1505 C 0.85576 0.135 0.12864 0.0
C1506 C 0.84984 0.16799 0.15882 0.0
C1507 C 0.83445 0.13176 0.13531 0.0
C1508 C 0.82454 0.18084 0.18245 0.0
C1509 C 0.86154 0.22114 0.19912 0.0
N1510 N 0.83209 0.14802 0.15007 0.0
N1511 N 0.8639 0.20487 0.18438 0.0
H1512 H 0.78681 0.64523 0.20705 0.0
H1513 H 0.90892 0.7084 0.12826 0.0
H1514 H 0.82968 0.61679 0.20125 0.0
H1515 H 0.86612 0.73692 0.13419 0.0
H1516 H 0.87994 0.67459 0.15426 0.0
H1517 H 0.81577 0.67904 0.18099 0.0
C1518 C 0.8024 0.64615 0.20058 0.0
C1519 C 0.80579 0.62809 0.20641 0.0
C1520 C 0.87682 0.68818 0.14976 0.0
C1521 C 0.83902 0.66679 0.17611 0.0
C1522 C 0.89334 0.70749 0.13475 0.0
C1523 C 0.88998 0.72557 0.12897 0.0
C1524 C 0.85672 0.68687 0.15921 0.0
C1525 C 0.86945 0.72341 0.13807 0.0
C1526 C 0.81891 0.66546 0.18553 0.0
C1527 C 0.82633 0.63028 0.19733 0.0
N1528 N 0.85366 0.70446 0.15281 0.0
N1529 N 0.84211 0.64922 0.18255 0.0
H1530 H 0.15221 0.37404 0.29299 0.0
H1531 H 0.21124 0.31128 0.37281 0.0
H1532 H 0.22353 0.4028 0.29957 0.0
H1533 H 0.13992 0.28265 0.36659 0.0
H1534 H 0.21605 0.34501 0.34654 0.0
H1535 H 0.14741 0.34028 0.3191 0.0
C1536 C 0.16689 0.3732 0.29964 0.0
C1537 C 0.18833 0.39134 0.29402 0.0
C1538 C 0.19934 0.3314 0.35103 0.0
C1539 C 0.18291 0.35269 0.3244 0.0
C1540 C 0.19656 0.31214 0.3662 0.0
C1541 C 0.17512 0.29406 0.37198 0.0
C1542 C 0.18055 0.33266 0.34143 0.0
C1543 C 0.15676 0.29617 0.36272 0.0
C1544 C 0.16412 0.35392 0.31472 0.0
C1545 C 0.20669 0.38925 0.30332 0.0
N1546 N 0.1599 0.31506 0.34782 0.0
N1547 N 0.20356 0.37033 0.31814 0.0
H1548 H 0.64935 0.78196 0.29459 0.0
H1549 H 0.71239 0.90389 0.37397 0.0
H1550 H 0.62095 0.82488 0.30034 0.0
H1551 H 0.74082 0.86101 0.3681 0.0
H1552 H 0.67863 0.87499 0.34776 0.0
H1553 H 0.68308 0.81083 0.32088 0.0
C1554 C 0.65026 0.79754 0.3011 0.0
C1555 C 0.63224 0.80097 0.29519 0.0
C1556 C 0.6922 0.87183 0.35232 0.0
C1557 C 0.67085 0.8341 0.32576 0.0
C1558 C 0.71148 0.88831 0.36746 0.0
C1559 C 0.72952 0.8849 0.3733 0.0
C1560 C 0.69088 0.85174 0.34282 0.0
C1561 C 0.72734 0.86437 0.36417 0.0
C1562 C 0.66953 0.814 0.31628 0.0
C1563 C 0.63442 0.82149 0.30431 0.0
N1564 N 0.70843 0.84862 0.3493 0.0
N1565 N 0.65332 0.83723 0.31923 0.0
H1566 H 0.19849 0.80016 0.29928 0.0
H1567 H 0.16352 0.88632 0.36989 0.0
H1568 H 0.24097 0.8716 0.29576 0.0
H1569 H 0.12106 0.81488 0.37358 0.0
H1570 H 0.19229 0.88127 0.34338 0.0
H1571 H 0.16973 0.8052 0.32587 0.0
C1572 C 0.2017 0.81691 0.30379 0.0
C1573 C 0.2222 0.83548 0.29522 0.0
C1574 C 0.17672 0.86669 0.35013 0.0
C1575 C 0.18941 0.84139 0.32609 0.0
C1576 C 0.16031 0.86957 0.36544 0.0
C1577 C 0.13982 0.851 0.37403 0.0
C1578 C 0.17262 0.84508 0.34324 0.0
C1579 C 0.1366 0.82969 0.36746 0.0
C1580 C 0.1853 0.81978 0.31915 0.0
C1581 C 0.22543 0.85679 0.30187 0.0
N1582 N 0.15276 0.82733 0.35239 0.0
N1583 N 0.20927 0.85915 0.31697 0.0
H1584 H 0.71219 0.81365 0.87489 0.0
H1585 H 0.64984 0.8727 0.79381 0.0
H1586 H 0.74094 0.88498 0.86834 0.0
H1587 H 0.62109 0.80138 0.80043 0.0
H1588 H 0.68346 0.87751 0.82041 0.0
H1589 H 0.67857 0.80886 0.84833 0.0
C1590 C 0.71137 0.82834 0.86816 0.0
C1591 C 0.72947 0.84977 0.87391 0.0
C1592 C 0.66986 0.8608 0.81593 0.0
C1593 C 0.69098 0.84436 0.84303 0.0
C1594 C 0.65066 0.85802 0.80057 0.0
C1595 C 0.63257 0.83658 0.79482 0.0
C1596 C 0.67104 0.842 0.82574 0.0
C1597 C 0.63461 0.81822 0.80427 0.0
C1598 C 0.69217 0.82557 0.85282 0.0
C1599 C 0.72742 0.86814 0.86449 0.0
N1600 N 0.65345 0.82135 0.81935 0.0
N1601 N 0.70858 0.86501 0.84943 0.0
H1602 H 0.15198 0.78178 0.79453 0.0
H1603 H 0.21071 0.90401 0.8729 0.0
H1604 H 0.22328 0.82479 0.80018 0.0
H1605 H 0.13942 0.86099 0.86733 0.0
H1606 H 0.21562 0.87507 0.84694 0.0
H1607 H 0.14707 0.81073 0.8205 0.0
C1608 C 0.16663 0.7974 0.80096 0.0
C1609 C 0.1881 0.80083 0.79511 0.0
C1610 C 0.19889 0.87189 0.85151 0.0
C1611 C 0.18256 0.83405 0.8253 0.0
C1612 C 0.19606 0.8884 0.8665 0.0
C1613 C 0.1746 0.88495 0.87236 0.0
C1614 C 0.18014 0.85174 0.84218 0.0
C1615 C 0.15627 0.86438 0.86338 0.0
C1616 C 0.1638 0.8139 0.81595 0.0
C1617 C 0.20642 0.8214 0.80411 0.0
N1618 N 0.15946 0.8486 0.84865 0.0
N1619 N 0.20323 0.83718 0.81884 0.0
H1620 H 0.24183 0.37417 0.79283 0.0
H1621 H 0.12013 0.3113 0.87296 0.0
H1622 H 0.19908 0.40273 0.79917 0.0
H1623 H 0.16289 0.28274 0.86659 0.0
H1624 H 0.14897 0.34501 0.84655 0.0
H1625 H 0.21295 0.34041 0.81907 0.0
C1626 C 0.22628 0.37328 0.79945 0.0
C1627 C 0.2229 0.39136 0.79374 0.0
C1628 C 0.15211 0.33143 0.85104 0.0
C1629 C 0.18977 0.35272 0.82425 0.0
C1630 C 0.13567 0.31217 0.86629 0.0
C1631 C 0.13907 0.29411 0.87206 0.0
C1632 C 0.17215 0.3327 0.84136 0.0
C1633 C 0.15953 0.29624 0.86273 0.0
C1634 C 0.20981 0.354 0.8146 0.0
C1635 C 0.20242 0.38922 0.803 0.0
N1636 N 0.17525 0.31513 0.84776 0.0
N1637 N 0.18668 0.37031 0.81789 0.0
H1638 H 0.81812 0.70823 0.62864 0.0
H1639 H 0.87727 0.64522 0.70728 0.0
H1640 H 0.88944 0.73671 0.63413 0.0
H1641 H 0.80595 0.61658 0.70138 0.0
H1642 H 0.88202 0.67902 0.68134 0.0
H1643 H 0.81334 0.67446 0.65476 0.0
C1644 C 0.8328 0.70732 0.63506 0.0
C1645 C 0.85423 0.72538 0.62912 0.0
C1646 C 0.86532 0.6654 0.68583 0.0
C1647 C 0.84885 0.68673 0.65948 0.0
C1648 C 0.86258 0.64609 0.70082 0.0
C1649 C 0.84116 0.62798 0.70657 0.0
C1650 C 0.84652 0.66667 0.6764 0.0
C1651 C 0.82277 0.63011 0.69752 0.0
C1652 C 0.83005 0.68804 0.65014 0.0
C1653 C 0.8726 0.72321 0.63813 0.0
N1654 N 0.82588 0.64905 0.6828 0.0
N1655 N 0.86949 0.7043 0.65294 0.0
H1656 H 0.31714 0.11592 0.62684 0.0
H1657 H 0.37936 0.23724 0.70826 0.0
H1658 H 0.28824 0.15835 0.63379 0.0
H1659 H 0.40817 0.19471 0.70154 0.0
H1660 H 0.34574 0.2084 0.68167 0.0
H1661 H 0.35074 0.14475 0.65347 0.0
C1662 C 0.31792 0.13139 0.63368 0.0
C1663 C 0.29979 0.13469 0.62801 0.0
C1664 C 0.35936 0.20531 0.68613 0.0
C1665 C 0.33825 0.16776 0.65897 0.0
C1666 C 0.37856 0.22175 0.70148 0.0
C1667 C 0.39667 0.21842 0.7072 0.0
C1668 C 0.35819 0.18535 0.67628 0.0
C1669 C 0.39463 0.19801 0.69772 0.0
C1670 C 0.33711 0.14782 0.64906 0.0
C1671 C 0.30179 0.15507 0.63757 0.0
N1672 N 0.3758 0.18231 0.68264 0.0
N1673 N 0.32062 0.17077 0.65266 0.0
H1674 H 0.86587 0.13374 0.63062 0.0
H1675 H 0.83059 0.21981 0.70064 0.0
H1676 H 0.90834 0.20519 0.62723 0.0
H1677 H 0.78809 0.14836 0.70394 0.0
H1678 H 0.85944 0.2148 0.6743 0.0
H1679 H 0.83696 0.13875 0.65677 0.0
C1680 C 0.86905 0.15049 0.63507 0.0
C1681 C 0.88959 0.16906 0.62667 0.0
C1682 C 0.84384 0.20021 0.68091 0.0
C1683 C 0.85663 0.17494 0.65704 0.0
C1684 C 0.82739 0.20307 0.69613 0.0
C1685 C 0.80686 0.18449 0.70457 0.0
C1686 C 0.83976 0.17862 0.674 0.0
C1687 C 0.80365 0.16319 0.69793 0.0
C1688 C 0.85257 0.15334 0.65017 0.0
C1689 C 0.89277 0.19037 0.63321 0.0
N1690 N 0.81987 0.16085 0.68297 0.0
N1691 N 0.87653 0.19271 0.64808 0.0
H1692 H 0.07543 0.55263 0.53529 0.0
H1693 H 0.9541 0.46698 0.46484 0.0
H1694 H 0.04635 0.48116 0.53803 0.0
H1695 H 0.9831 0.53845 0.46228 0.0
H1696 H 0.98795 0.47184 0.49099 0.0
H1697 H 0.04158 0.54778 0.50913 0.0
C1698 C 0.06186 0.53591 0.53069 0.0
C1699 C 0.06377 0.51728 0.53893 0.0
C1700 C 0.98695 0.48647 0.48459 0.0
C1701 C 0.02502 0.5116 0.50855 0.0
C1702 C 0.96765 0.4837 0.46948 0.0
C1703 C 0.96572 0.50233 0.4613 0.0
C1704 C 1.00448 0.50802 0.49166 0.0
C1705 C 0.98382 0.52359 0.46809 0.0
C1706 C 0.04256 0.53315 0.51558 0.0
C1707 C 0.04565 0.49602 0.53218 0.0
N1708 N 1.00237 0.52585 0.48294 0.0
N1709 N 0.0271 0.49377 0.51732 0.0
H1710 H 0.54447 0.57083 0.54143 0.0
H1711 H 0.48563 0.44887 0.46212 0.0
H1712 H 0.47316 0.52809 0.53512 0.0
H1713 H 0.55693 0.49176 0.468 0.0
H1714 H 0.48075 0.47778 0.48828 0.0
H1715 H 0.54933 0.54189 0.51533 0.0
C1716 C 0.5298 0.55528 0.53484 0.0
C1717 C 0.50835 0.55192 0.54054 0.0
C1718 C 0.49747 0.48094 0.48373 0.0
C1719 C 0.51384 0.51871 0.51019 0.0
C1720 C 0.50029 0.46445 0.46863 0.0
C1721 C 0.52174 0.46786 0.46279 0.0
C1722 C 0.51624 0.50104 0.49321 0.0
C1723 C 0.54008 0.48839 0.47192 0.0
C1724 C 0.53261 0.53878 0.51977 0.0
C1725 C 0.49001 0.53142 0.53131 0.0
N1726 N 0.5369 0.50415 0.48675 0.0
N1727 N 0.49318 0.51565 0.51651 0.0
H1728 H 0.57524 0.04076 0.45948 0.0
H1729 H 0.45349 0.97795 0.5394 0.0
H1730 H 0.53263 0.06946 0.46602 0.0
H1731 H 0.49628 0.94942 0.53333 0.0
H1732 H 0.48236 0.01167 0.51308 0.0
H1733 H 0.54632 1.00702 0.48569 0.0
C1734 C 0.55972 0.03991 0.46614 0.0
C1735 C 0.55639 0.05803 0.46048 0.0
C1736 C 0.4855 0.99809 0.51762 0.0
C1737 C 0.52321 0.0194 0.49097 0.0
C1738 C 0.46904 0.97883 0.53281 0.0
C1739 C 0.47244 0.96078 0.53865 0.0
C1740 C 0.50556 0.99938 0.50804 0.0
C1741 C 0.49292 0.96292 0.52942 0.0
C1742 C 0.54323 0.02064 0.48128 0.0
C1743 C 0.53593 0.05593 0.4698 0.0
N1744 N 0.50866 0.98181 0.51449 0.0
N1745 N 0.52017 0.03702 0.48467 0.0
H1746 H 0.4856 0.04183 0.96109 0.0
H1747 H 0.5439 0.97811 0.04008 0.0
H1748 H 0.55686 0.06994 0.96698 0.0
H1749 H 0.47265 0.94999 0.03412 0.0
H1750 H 0.54895 0.01199 0.01403 0.0
H1751 H 0.48055 1.00797 0.98719 0.0
C1752 C 0.50021 0.04083 0.96759 0.0
C1753 C 0.5217 0.05881 0.96177 0.0
C1754 C 0.53221 0.99847 0.01853 0.0
C1755 C 0.51601 0.02004 0.99212 0.0
C1756 C 0.52929 0.97911 0.03358 0.0
C1757 C 0.5078 0.96112 0.03936 0.0
C1758 C 0.5135 0.99991 0.00907 0.0
C1759 C 0.48952 0.96342 0.03024 0.0
C1760 C 0.4973 0.02148 0.98267 0.0
C1761 C 0.53998 0.05651 0.97089 0.0
N1762 N 0.49279 0.9824 0.01547 0.0
N1763 N 0.53671 0.03754 0.98569 0.0
H1764 H 0.9545 0.49217 0.96517 0.0
H1765 H 0.07569 0.52737 0.03568 0.0
H1766 H 0.98363 0.44984 0.9614 0.0
H1767 H 0.04649 0.56964 0.03964 0.0
H1768 H 0.04193 0.49858 0.00907 0.0
H1769 H 0.98826 0.52096 0.99177 0.0
C1770 C 0.96807 0.489 0.96962 0.0
C1771 C 0.96619 0.46853 0.96098 0.0
C1772 C 0.04286 0.51411 0.01589 0.0
C1773 C 1.00485 0.50135 0.99187 0.0
C1774 C 0.06211 0.53053 0.03126 0.0
C1775 C 0.06396 0.55097 0.03996 0.0
C1776 C 0.02531 0.51816 0.00906 0.0
C1777 C 0.04583 0.55414 0.03343 0.0
C1778 C 0.98732 0.50541 0.985 0.0
C1779 C 0.98431 0.46535 0.96756 0.0
N1780 N 0.02734 0.53797 0.01831 0.0
N1781 N 1.0028 0.48152 0.98268 0.0
H1782 H 0.5322 0.46689 0.96471 0.0
H1783 H 0.49665 0.55277 0.03472 0.0
H1784 H 0.57466 0.53835 0.9617 0.0
H1785 H 0.45416 0.48131 0.03758 0.0
H1786 H 0.52559 0.54784 0.00851 0.0
H1787 H 0.5032 0.47183 0.9907 0.0
C1788 C 0.53536 0.48363 0.9692 0.0
C1789 C 0.55592 0.50223 0.96096 0.0
C1790 C 0.50997 0.53323 0.015 0.0
C1791 C 0.52286 0.50802 0.99114 0.0
C1792 C 0.49347 0.53604 0.03013 0.0
C1793 C 0.47292 0.51744 0.03842 0.0
C1794 C 0.50592 0.51165 0.008 0.0
C1795 C 0.46973 0.49615 0.03169 0.0
C1796 C 0.51883 0.48644 0.98422 0.0
C1797 C 0.55908 0.52351 0.96757 0.0
N1798 N 0.486 0.49386 0.01682 0.0
N1799 N 0.54278 0.52581 0.98234 0.0
loop_
_geom_bond_atom_site_label_1
_geom_bond_atom_site_label_2
_geom_bond_distance
_geom_bond_site_symmetry_2
_ccdc_geom_bond_type
O0 Cd1 2.223 . S
O0 C8 1.315 . S
Cd1 O0 2.223 . S
Cd1 O4 2.297 . S
Cd1 O5 2.439 . S
Cd1 O11 2.240 . S
Cd2 O3 2.240 . S
Cd2 O10 2.223 . S
Cd2 O12 2.297 . S
Cd2 O13 2.439 . S
O3 Cd2 2.240 . S
O3 C8 1.279 . S
O4 Cd1 2.297 . S
O4 C6 1.247 . S
O5 Cd1 2.439 . S
O5 C6 1.208 . S
C6 O4 1.247 . S
C6 O5 1.208 . S
C7 O12 1.247 . S
C7 O13 1.208 . S
C8 O0 1.315 . S
C8 O3 1.279 . S
C9 O10 1.315 . S
C9 O11 1.279 . S
O10 Cd2 2.223 . S
O10 C9 1.315 . S
O11 Cd1 2.240 . S
O11 C9 1.279 . S
O12 Cd2 2.297 . S
O12 C7 1.247 . S
O13 Cd2 2.439 . S
O13 C7 1.208 . S
O14 Cd15 2.223 . S
O14 C22 1.315 . S
Cd15 O14 2.223 . S
Cd15 O18 2.297 . S
Cd15 O19 2.439 . S
Cd15 O25 2.240 . S
Cd16 O17 2.240 . S
Cd16 O24 2.223 . S
Cd16 O26 2.297 . S
Cd16 O27 2.439 . S
O17 Cd16 2.240 . S
O17 C22 1.279 . S
O18 Cd15 2.297 . S
O18 C20 1.247 . S
O19 Cd15 2.439 . S
O19 C20 1.208 . S
C20 O18 1.247 . S
C20 O19 1.208 . S
C21 O26 1.247 . S
C21 O27 1.208 . S
C22 O14 1.315 . S
C22 O17 1.279 . S
C23 O24 1.315 . S
C23 O25 1.279 . S
O24 Cd16 2.223 . S
O24 C23 1.315 . S
O25 Cd15 2.240 . S
O25 C23 1.279 . S
O26 Cd16 2.297 . S
O26 C21 1.247 . S
O27 Cd16 2.439 . S
O27 C21 1.208 . S
O28 Cd29 2.223 . S
O28 C36 1.315 . S
Cd29 O28 2.223 . S
Cd29 O32 2.297 . S
Cd29 O33 2.439 . S
Cd29 O39 2.240 . S
Cd30 O31 2.240 . S
Cd30 O38 2.223 . S
Cd30 O40 2.297 . S
Cd30 O41 2.439 . S
O31 Cd30 2.240 . S
O31 C36 1.279 . S
O32 Cd29 2.297 . S
O32 C34 1.247 . S
O33 Cd29 2.439 . S
O33 C34 1.208 . S
C34 O32 1.247 . S
C34 O33 1.208 . S
C35 O40 1.247 . S
C35 O41 1.208 . S
C36 O28 1.315 . S
C36 O31 1.279 . S
C37 O38 1.315 . S
C37 O39 1.279 . S
O38 Cd30 2.223 . S
O38 C37 1.315 . S
O39 Cd29 2.240 . S
O39 C37 1.279 . S
O40 Cd30 2.297 . S
O40 C35 1.247 . S
O41 Cd30 2.439 . S
O41 C35 1.208 . S
O42 Cd43 2.223 . S
O42 C50 1.315 . S
Cd43 O42 2.223 . S
Cd43 O46 2.297 . S
Cd43 O47 2.439 . S
Cd43 O53 2.240 . S
Cd44 O45 2.240 . S
Cd44 O52 2.223 . S
Cd44 O54 2.297 . S
Cd44 O55 2.439 . S
O45 Cd44 2.240 . S
O45 C50 1.279 . S
O46 Cd43 2.297 . S
O46 C48 1.247 . S
O47 Cd43 2.439 . S
O47 C48 1.208 . S
C48 O46 1.247 . S
C48 O47 1.208 . S
C49 O54 1.247 . S
C49 O55 1.208 . S
C50 O42 1.315 . S
C50 O45 1.279 . S
C51 O52 1.315 . S
C51 O53 1.279 . S
O52 Cd44 2.223 . S
O52 C51 1.315 . S
O53 Cd43 2.240 . S
O53 C51 1.279 . S
O54 Cd44 2.297 . S
O54 C49 1.247 . S
O55 Cd44 2.439 . S
O55 C49 1.208 . S
O56 Cd57 2.223 . S
O56 C64 1.315 . S
Cd57 O56 2.223 . S
Cd57 O60 2.297 . S
Cd57 O61 2.439 . S
Cd57 O67 2.240 . S
Cd58 O59 2.240 . S
Cd58 O66 2.223 . S
Cd58 O68 2.297 . S
Cd58 O69 2.439 . S
O59 Cd58 2.240 . S
O59 C64 1.279 . S
O60 Cd57 2.297 . S
O60 C62 1.247 . S
O61 Cd57 2.439 . S
O61 C62 1.208 . S
C62 O60 1.247 . S
C62 O61 1.208 . S
C63 O68 1.247 . S
C63 O69 1.208 . S
C64 O56 1.315 . S
C64 O59 1.279 . S
C65 O66 1.315 . S
C65 O67 1.279 . S
O66 Cd58 2.223 . S
O66 C65 1.315 . S
O67 Cd57 2.240 . S
O67 C65 1.279 . S
O68 Cd58 2.297 . S
O68 C63 1.247 . S
O69 Cd58 2.439 . S
O69 C63 1.208 . S
O70 Cd71 2.223 . S
O70 C78 1.315 . S
Cd71 O70 2.223 . S
Cd71 O74 2.297 . S
Cd71 O75 2.439 . S
Cd71 O81 2.240 . S
Cd72 O73 2.240 . S
Cd72 O80 2.223 . S
Cd72 O82 2.297 . S
Cd72 O83 2.439 . S
O73 Cd72 2.240 . S
O73 C78 1.279 . S
O74 Cd71 2.297 . S
O74 C76 1.247 . S
O75 Cd71 2.439 . S
O75 C76 1.208 . S
C76 O74 1.247 . S
C76 O75 1.208 . S
C77 O82 1.247 . S
C77 O83 1.208 . S
C78 O70 1.315 . S
C78 O73 1.279 . S
C79 O80 1.315 . S
C79 O81 1.279 . S
O80 Cd72 2.223 . S
O80 C79 1.315 . S
O81 Cd71 2.240 . S
O81 C79 1.279 . S
O82 Cd72 2.297 . S
O82 C77 1.247 . S
O83 Cd72 2.439 . S
O83 C77 1.208 . S
O84 Cd85 2.223 . S
O84 C92 1.315 . S
Cd85 O84 2.223 . S
Cd85 O88 2.297 . S
Cd85 O89 2.439 . S
Cd85 O95 2.240 . S
Cd86 O87 2.240 . S
Cd86 O94 2.223 . S
Cd86 O96 2.297 . S
Cd86 O97 2.439 . S
O87 Cd86 2.240 . S
O87 C92 1.279 . S
O88 Cd85 2.297 . S
O88 C90 1.247 . S
O89 Cd85 2.439 . S
O89 C90 1.208 . S
C90 O88 1.247 . S
C90 O89 1.208 . S
C91 O96 1.247 . S
C91 O97 1.208 . S
C92 O84 1.315 . S
C92 O87 1.279 . S
C93 O94 1.315 . S
C93 O95 1.279 . S
O94 Cd86 2.223 . S
O94 C93 1.315 . S
O95 Cd85 2.240 . S
O95 C93 1.279 . S
O96 Cd86 2.297 . S
O96 C91 1.247 . S
O97 Cd86 2.439 . S
O97 C91 1.208 . S
O98 Cd99 2.223 . S
O98 C106 1.315 . S
Cd99 O98 2.223 . S
Cd99 O102 2.297 . S
Cd99 O103 2.439 . S
Cd99 O109 2.240 . S
Cd100 O101 2.240 . S
Cd100 O108 2.223 . S
Cd100 O110 2.297 . S
Cd100 O111 2.439 . S
O101 Cd100 2.240 . S
O101 C106 1.279 . S
O102 Cd99 2.297 . S
O102 C104 1.247 . S
O103 Cd99 2.439 . S
O103 C104 1.208 . S
C104 O102 1.247 . S
C104 O103 1.208 . S
C105 O110 1.247 . S
C105 O111 1.208 . S
C106 O98 1.315 . S
C106 O101 1.279 . S
C107 O108 1.315 . S
C107 O109 1.279 . S
O108 Cd100 2.223 . S
O108 C107 1.315 . S
O109 Cd99 2.240 . S
O109 C107 1.279 . S
O110 Cd100 2.297 . S
O110 C105 1.247 . S
O111 Cd100 2.439 . S
O111 C105 1.208 . S
O112 Cd113 2.223 . S
O112 C120 1.315 . S
Cd113 O112 2.223 . S
Cd113 O116 2.297 . S
Cd113 O117 2.439 . S
Cd113 O123 2.240 . S
Cd114 O115 2.240 . S
Cd114 O122 2.223 . S
Cd114 O124 2.297 . S
Cd114 O125 2.439 . S
O115 Cd114 2.240 . S
O115 C120 1.279 . S
O116 Cd113 2.297 . S
O116 C118 1.247 . S
O117 Cd113 2.439 . S
O117 C118 1.208 . S
C118 O116 1.247 . S
C118 O117 1.208 . S
C119 O124 1.247 . S
C119 O125 1.208 . S
C120 O112 1.315 . S
C120 O115 1.279 . S
C121 O122 1.315 . S
C121 O123 1.279 . S
O122 Cd114 2.223 . S
O122 C121 1.315 . S
O123 Cd113 2.240 . S
O123 C121 1.279 . S
O124 Cd114 2.297 . S
O124 C119 1.247 . S
O125 Cd114 2.439 . S
O125 C119 1.208 . S
O126 Cd127 2.223 . S
O126 C134 1.315 . S
Cd127 O126 2.223 . S
Cd127 O130 2.297 . S
Cd127 O131 2.439 . S
Cd127 O137 2.240 . S
Cd128 O129 2.240 . S
Cd128 O136 2.223 . S
Cd128 O138 2.297 . S
Cd128 O139 2.439 . S
O129 Cd128 2.240 . S
O129 C134 1.279 . S
O130 Cd127 2.297 . S
O130 C132 1.247 . S
O131 Cd127 2.439 . S
O131 C132 1.208 . S
C132 O130 1.247 . S
C132 O131 1.208 . S
C133 O138 1.247 . S
C133 O139 1.208 . S
C134 O126 1.315 . S
C134 O129 1.279 . S
C135 O136 1.315 . S
C135 O137 1.279 . S
O136 Cd128 2.223 . S
O136 C135 1.315 . S
O137 Cd127 2.240 . S
O137 C135 1.279 . S
O138 Cd128 2.297 . S
O138 C133 1.247 . S
O139 Cd128 2.439 . S
O139 C133 1.208 . S
O140 Cd141 2.223 . S
O140 C148 1.315 . S
Cd141 O140 2.223 . S
Cd141 O144 2.297 . S
Cd141 O145 2.439 . S
Cd141 O151 2.240 . S
Cd142 O143 2.240 . S
Cd142 O150 2.223 . S
Cd142 O152 2.297 . S
Cd142 O153 2.439 . S
O143 Cd142 2.240 . S
O143 C148 1.279 . S
O144 Cd141 2.297 . S
O144 C146 1.247 . S
O145 Cd141 2.439 . S
O145 C146 1.208 . S
C146 O144 1.247 . S
C146 O145 1.208 . S
C147 O152 1.247 . S
C147 O153 1.208 . S
C148 O140 1.315 . S
C148 O143 1.279 . S
C149 O150 1.315 . S
C149 O151 1.279 . S
O150 Cd142 2.223 . S
O150 C149 1.315 . S
O151 Cd141 2.240 . S
O151 C149 1.279 . S
O152 Cd142 2.297 . S
O152 C147 1.247 . S
O153 Cd142 2.439 . S
O153 C147 1.208 . S
O154 Cd155 2.223 . S
O154 C162 1.315 . S
Cd155 O154 2.223 . S
Cd155 O158 2.297 . S
Cd155 O159 2.439 . S
Cd155 O165 2.240 . S
Cd156 O157 2.240 . S
Cd156 O164 2.223 . S
Cd156 O166 2.297 . S
Cd156 O167 2.439 . S
O157 Cd156 2.240 . S
O157 C162 1.279 . S
O158 Cd155 2.297 . S
O158 C160 1.247 . S
O159 Cd155 2.439 . S
O159 C160 1.208 . S
C160 O158 1.247 . S
C160 O159 1.208 . S
C161 O166 1.247 . S
C161 O167 1.208 . S
C162 O154 1.315 . S
C162 O157 1.279 . S
C163 O164 1.315 . S
C163 O165 1.279 . S
O164 Cd156 2.223 . S
O164 C163 1.315 . S
O165 Cd155 2.240 . S
O165 C163 1.279 . S
O166 Cd156 2.297 . S
O166 C161 1.247 . S
O167 Cd156 2.439 . S
O167 C161 1.208 . S
O168 Cd169 2.223 . S
O168 C176 1.315 . S
Cd169 O168 2.223 . S
Cd169 O172 2.297 . S
Cd169 O173 2.439 . S
Cd169 O179 2.240 . S
Cd170 O171 2.240 . S
Cd170 O178 2.223 . S
Cd170 O180 2.297 . S
Cd170 O181 2.439 . S
O171 Cd170 2.240 . S
O171 C176 1.279 . S
O172 Cd169 2.297 . S
O172 C174 1.247 . S
O173 Cd169 2.439 . S
O173 C174 1.208 . S
C174 O172 1.247 . S
C174 O173 1.208 . S
C175 O180 1.247 . S
C175 O181 1.208 . S
C176 O168 1.315 . S
C176 O171 1.279 . S
C177 O178 1.315 . S
C177 O179 1.279 . S
O178 Cd170 2.223 . S
O178 C177 1.315 . S
O179 Cd169 2.240 . S
O179 C177 1.279 . S
O180 Cd170 2.297 . S
O180 C175 1.247 . S
O181 Cd170 2.439 . S
O181 C175 1.208 . S
O182 Cd183 2.223 . S
O182 C190 1.315 . S
Cd183 O182 2.223 . S
Cd183 O186 2.297 . S
Cd183 O187 2.439 . S
Cd183 O193 2.240 . S
Cd184 O185 2.240 . S
Cd184 O192 2.223 . S
Cd184 O194 2.297 . S
Cd184 O195 2.439 . S
O185 Cd184 2.240 . S
O185 C190 1.279 . S
O186 Cd183 2.297 . S
O186 C188 1.247 . S
O187 Cd183 2.439 . S
O187 C188 1.208 . S
C188 O186 1.247 . S
C188 O187 1.208 . S
C189 O194 1.247 . S
C189 O195 1.208 . S
C190 O182 1.315 . S
C190 O185 1.279 . S
C191 O192 1.315 . S
C191 O193 1.279 . S
O192 Cd184 2.223 . S
O192 C191 1.315 . S
O193 Cd183 2.240 . S
O193 C191 1.279 . S
O194 Cd184 2.297 . S
O194 C189 1.247 . S
O195 Cd184 2.439 . S
O195 C189 1.208 . S
O196 Cd197 2.223 . S
O196 C204 1.315 . S
Cd197 O196 2.223 . S
Cd197 O200 2.297 . S
Cd197 O201 2.439 . S
Cd197 O207 2.240 . S
Cd198 O199 2.240 . S
Cd198 O206 2.223 . S
Cd198 O208 2.297 . S
Cd198 O209 2.439 . S
O199 Cd198 2.240 . S
O199 C204 1.279 . S
O200 Cd197 2.297 . S
O200 C202 1.247 . S
O201 Cd197 2.439 . S
O201 C202 1.208 . S
C202 O200 1.247 . S
C202 O201 1.208 . S
C203 O208 1.247 . S
C203 O209 1.208 . S
C204 O196 1.315 . S
C204 O199 1.279 . S
C205 O206 1.315 . S
C205 O207 1.279 . S
O206 Cd198 2.223 . S
O206 C205 1.315 . S
O207 Cd197 2.240 . S
O207 C205 1.279 . S
O208 Cd198 2.297 . S
O208 C203 1.247 . S
O209 Cd198 2.439 . S
O209 C203 1.208 . S
O210 Cd211 2.223 . S
O210 C218 1.315 . S
Cd211 O210 2.223 . S
Cd211 O214 2.297 . S
Cd211 O215 2.439 . S
Cd211 O221 2.240 . S
Cd212 O213 2.240 . S
Cd212 O220 2.223 . S
Cd212 O222 2.297 . S
Cd212 O223 2.439 . S
O213 Cd212 2.240 . S
O213 C218 1.279 . S
O214 Cd211 2.297 . S
O214 C216 1.247 . S
O215 Cd211 2.439 . S
O215 C216 1.208 . S
C216 O214 1.247 . S
C216 O215 1.208 . S
C217 O222 1.247 . S
C217 O223 1.208 . S
C218 O210 1.315 . S
C218 O213 1.279 . S
C219 O220 1.315 . S
C219 O221 1.279 . S
O220 Cd212 2.223 . S
O220 C219 1.315 . S
O221 Cd211 2.240 . S
O221 C219 1.279 . S
O222 Cd212 2.297 . S
O222 C217 1.247 . S
O223 Cd212 2.439 . S
O223 C217 1.208 . S
O224 Cd225 2.223 . S
O224 C232 1.315 . S
Cd225 O224 2.223 . S
Cd225 O228 2.297 . S
Cd225 O229 2.439 . S
Cd225 O235 2.240 . S
Cd226 O227 2.240 . S
Cd226 O234 2.223 . S
Cd226 O236 2.297 . S
Cd226 O237 2.439 . S
O227 Cd226 2.240 . S
O227 C232 1.279 . S
O228 Cd225 2.297 . S
O228 C230 1.247 . S
O229 Cd225 2.439 . S
O229 C230 1.208 . S
C230 O228 1.247 . S
C230 O229 1.208 . S
C231 O236 1.247 . S
C231 O237 1.208 . S
C232 O224 1.315 . S
C232 O227 1.279 . S
C233 O234 1.315 . S
C233 O235 1.279 . S
O234 Cd226 2.223 . S
O234 C233 1.315 . S
O235 Cd225 2.240 . S
O235 C233 1.279 . S
O236 Cd226 2.297 . S
O236 C231 1.247 . S
O237 Cd226 2.439 . S
O237 C231 1.208 . S
O238 Cd239 2.223 . S
O238 C246 1.315 . S
Cd239 O238 2.223 . S
Cd239 O242 2.297 . S
Cd239 O243 2.439 . S
Cd239 O249 2.240 . S
Cd240 O241 2.240 . S
Cd240 O248 2.223 . S
Cd240 O250 2.297 . S
Cd240 O251 2.439 . S
O241 Cd240 2.240 . S
O241 C246 1.279 . S
O242 Cd239 2.297 . S
O242 C244 1.247 . S
O243 Cd239 2.439 . S
O243 C244 1.208 . S
C244 O242 1.247 . S
C244 O243 1.208 . S
C245 O250 1.247 . S
C245 O251 1.208 . S
C246 O238 1.315 . S
C246 O241 1.279 . S
C247 O248 1.315 . S
C247 O249 1.279 . S
O248 Cd240 2.223 . S
O248 C247 1.315 . S
O249 Cd239 2.240 . S
O249 C247 1.279 . S
O250 Cd240 2.297 . S
O250 C245 1.247 . S
O251 Cd240 2.439 . S
O251 C245 1.208 . S
O252 Cd253 2.223 . S
O252 C260 1.315 . S
Cd253 O252 2.223 . S
Cd253 O256 2.297 . S
Cd253 O257 2.439 . S
Cd253 O263 2.240 . S
Cd254 O255 2.240 . S
Cd254 O262 2.223 . S
Cd254 O264 2.297 . S
Cd254 O265 2.439 . S
O255 Cd254 2.240 . S
O255 C260 1.279 . S
O256 Cd253 2.297 . S
O256 C258 1.247 . S
O257 Cd253 2.439 . S
O257 C258 1.208 . S
C258 O256 1.247 . S
C258 O257 1.208 . S
C259 O264 1.247 . S
C259 O265 1.208 . S
C260 O252 1.315 . S
C260 O255 1.279 . S
C261 O262 1.315 . S
C261 O263 1.279 . S
O262 Cd254 2.223 . S
O262 C261 1.315 . S
O263 Cd253 2.240 . S
O263 C261 1.279 . S
O264 Cd254 2.297 . S
O264 C259 1.247 . S
O265 Cd254 2.439 . S
O265 C259 1.208 . S
O266 Cd267 2.223 . S
O266 C274 1.315 . S
Cd267 O266 2.223 . S
Cd267 O270 2.297 . S
Cd267 O271 2.439 . S
Cd267 O277 2.240 . S
Cd268 O269 2.240 . S
Cd268 O276 2.223 . S
Cd268 O278 2.297 . S
Cd268 O279 2.439 . S
O269 Cd268 2.240 . S
O269 C274 1.279 . S
O270 Cd267 2.297 . S
O270 C272 1.247 . S
O271 Cd267 2.439 . S
O271 C272 1.208 . S
C272 O270 1.247 . S
C272 O271 1.208 . S
C273 O278 1.247 . S
C273 O279 1.208 . S
C274 O266 1.315 . S
C274 O269 1.279 . S
C275 O276 1.315 . S
C275 O277 1.279 . S
O276 Cd268 2.223 . S
O276 C275 1.315 . S
O277 Cd267 2.240 . S
O277 C275 1.279 . S
O278 Cd268 2.297 . S
O278 C273 1.247 . S
O279 Cd268 2.439 . S
O279 C273 1.208 . S
O280 Cd281 2.223 . S
O280 C288 1.315 . S
Cd281 O280 2.223 . S
Cd281 O284 2.297 . S
Cd281 O285 2.439 . S
Cd281 O291 2.240 . S
Cd282 O283 2.240 . S
Cd282 O290 2.223 . S
Cd282 O292 2.297 . S
Cd282 O293 2.439 . S
O283 Cd282 2.240 . S
O283 C288 1.279 . S
O284 Cd281 2.297 . S
O284 C286 1.247 . S
O285 Cd281 2.439 . S
O285 C286 1.208 . S
C286 O284 1.247 . S
C286 O285 1.208 . S
C287 O292 1.247 . S
C287 O293 1.208 . S
C288 O280 1.315 . S
C288 O283 1.279 . S
C289 O290 1.315 . S
C289 O291 1.279 . S
O290 Cd282 2.223 . S
O290 C289 1.315 . S
O291 Cd281 2.240 . S
O291 C289 1.279 . S
O292 Cd282 2.297 . S
O292 C287 1.247 . S
O293 Cd282 2.439 . S
O293 C287 1.208 . S
O294 Cd295 2.223 . S
O294 C302 1.315 . S
Cd295 O294 2.223 . S
Cd295 O298 2.297 . S
Cd295 O299 2.439 . S
Cd295 O305 2.240 . S
Cd296 O297 2.240 . S
Cd296 O304 2.223 . S
Cd296 O306 2.297 . S
Cd296 O307 2.439 . S
O297 Cd296 2.240 . S
O297 C302 1.279 . S
O298 Cd295 2.297 . S
O298 C300 1.247 . S
O299 Cd295 2.439 . S
O299 C300 1.208 . S
C300 O298 1.247 . S
C300 O299 1.208 . S
C301 O306 1.247 . S
C301 O307 1.208 . S
C302 O294 1.315 . S
C302 O297 1.279 . S
C303 O304 1.315 . S
C303 O305 1.279 . S
O304 Cd296 2.223 . S
O304 C303 1.315 . S
O305 Cd295 2.240 . S
O305 C303 1.279 . S
O306 Cd296 2.297 . S
O306 C301 1.247 . S
O307 Cd296 2.439 . S
O307 C301 1.208 . S
O308 Cd309 2.223 . S
O308 C316 1.315 . S
Cd309 O308 2.223 . S
Cd309 O312 2.297 . S
Cd309 O313 2.439 . S
Cd309 O319 2.240 . S
Cd310 O311 2.240 . S
Cd310 O318 2.223 . S
Cd310 O320 2.297 . S
Cd310 O321 2.439 . S
O311 Cd310 2.240 . S
O311 C316 1.279 . S
O312 Cd309 2.297 . S
O312 C314 1.247 . S
O313 Cd309 2.439 . S
O313 C314 1.208 . S
C314 O312 1.247 . S
C314 O313 1.208 . S
C315 O320 1.247 . S
C315 O321 1.208 . S
C316 O308 1.315 . S
C316 O311 1.279 . S
C317 O318 1.315 . S
C317 O319 1.279 . S
O318 Cd310 2.223 . S
O318 C317 1.315 . S
O319 Cd309 2.240 . S
O319 C317 1.279 . S
O320 Cd310 2.297 . S
O320 C315 1.247 . S
O321 Cd310 2.439 . S
O321 C315 1.208 . S
O322 Cd323 2.223 . S
O322 C330 1.315 . S
Cd323 O322 2.223 . S
Cd323 O326 2.297 . S
Cd323 O327 2.439 . S
Cd323 O333 2.240 . S
Cd324 O325 2.240 . S
Cd324 O332 2.223 . S
Cd324 O334 2.297 . S
Cd324 O335 2.439 . S
O325 Cd324 2.240 . S
O325 C330 1.279 . S
O326 Cd323 2.297 . S
O326 C328 1.247 . S
O327 Cd323 2.439 . S
O327 C328 1.208 . S
C328 O326 1.247 . S
C328 O327 1.208 . S
C329 O334 1.247 . S
C329 O335 1.208 . S
C330 O322 1.315 . S
C330 O325 1.279 . S
C331 O332 1.315 . S
C331 O333 1.279 . S
O332 Cd324 2.223 . S
O332 C331 1.315 . S
O333 Cd323 2.240 . S
O333 C331 1.279 . S
O334 Cd324 2.297 . S
O334 C329 1.247 . S
O335 Cd324 2.439 . S
O335 C329 1.208 . S
O336 Cd337 2.223 . S
O336 C344 1.315 . S
Cd337 O336 2.223 . S
Cd337 O340 2.297 . S
Cd337 O341 2.439 . S
Cd337 O347 2.240 . S
Cd338 O339 2.240 . S
Cd338 O346 2.223 . S
Cd338 O348 2.297 . S
Cd338 O349 2.439 . S
O339 Cd338 2.240 . S
O339 C344 1.279 . S
O340 Cd337 2.297 . S
O340 C342 1.247 . S
O341 Cd337 2.439 . S
O341 C342 1.208 . S
C342 O340 1.247 . S
C342 O341 1.208 . S
C343 O348 1.247 . S
C343 O349 1.208 . S
C344 O336 1.315 . S
C344 O339 1.279 . S
C345 O346 1.315 . S
C345 O347 1.279 . S
O346 Cd338 2.223 . S
O346 C345 1.315 . S
O347 Cd337 2.240 . S
O347 C345 1.279 . S
O348 Cd338 2.297 . S
O348 C343 1.247 . S
O349 Cd338 2.439 . S
O349 C343 1.208 . S
O350 Cd351 2.223 . S
O350 C358 1.315 . S
Cd351 O350 2.223 . S
Cd351 O354 2.297 . S
Cd351 O355 2.439 . S
Cd351 O361 2.240 . S
Cd352 O353 2.240 . S
Cd352 O360 2.223 . S
Cd352 O362 2.297 . S
Cd352 O363 2.439 . S
O353 Cd352 2.240 . S
O353 C358 1.279 . S
O354 Cd351 2.297 . S
O354 C356 1.247 . S
O355 Cd351 2.439 . S
O355 C356 1.208 . S
C356 O354 1.247 . S
C356 O355 1.208 . S
C357 O362 1.247 . S
C357 O363 1.208 . S
C358 O350 1.315 . S
C358 O353 1.279 . S
C359 O360 1.315 . S
C359 O361 1.279 . S
O360 Cd352 2.223 . S
O360 C359 1.315 . S
O361 Cd351 2.240 . S
O361 C359 1.279 . S
O362 Cd352 2.297 . S
O362 C357 1.247 . S
O363 Cd352 2.439 . S
O363 C357 1.208 . S
O364 Cd365 2.223 . S
O364 C372 1.315 . S
Cd365 O364 2.223 . S
Cd365 O368 2.297 . S
Cd365 O369 2.439 . S
Cd365 O375 2.240 . S
Cd366 O367 2.240 . S
Cd366 O374 2.223 . S
Cd366 O376 2.297 . S
Cd366 O377 2.439 . S
O367 Cd366 2.240 . S
O367 C372 1.279 . S
O368 Cd365 2.297 . S
O368 C370 1.247 . S
O369 Cd365 2.439 . S
O369 C370 1.208 . S
C370 O368 1.247 . S
C370 O369 1.208 . S
C371 O376 1.247 . S
C371 O377 1.208 . S
C372 O364 1.315 . S
C372 O367 1.279 . S
C373 O374 1.315 . S
C373 O375 1.279 . S
O374 Cd366 2.223 . S
O374 C373 1.315 . S
O375 Cd365 2.240 . S
O375 C373 1.279 . S
O376 Cd366 2.297 . S
O376 C371 1.247 . S
O377 Cd366 2.439 . S
O377 C371 1.208 . S
O378 Cd379 2.223 . S
O378 C386 1.315 . S
Cd379 O378 2.223 . S
Cd379 O382 2.297 . S
Cd379 O383 2.439 . S
Cd379 O389 2.240 . S
Cd380 O381 2.240 . S
Cd380 O388 2.223 . S
Cd380 O390 2.297 . S
Cd380 O391 2.439 . S
O381 Cd380 2.240 . S
O381 C386 1.279 . S
O382 Cd379 2.297 . S
O382 C384 1.247 . S
O383 Cd379 2.439 . S
O383 C384 1.208 . S
C384 O382 1.247 . S
C384 O383 1.208 . S
C385 O390 1.247 . S
C385 O391 1.208 . S
C386 O378 1.315 . S
C386 O381 1.279 . S
C387 O388 1.315 . S
C387 O389 1.279 . S
O388 Cd380 2.223 . S
O388 C387 1.315 . S
O389 Cd379 2.240 . S
O389 C387 1.279 . S
O390 Cd380 2.297 . S
O390 C385 1.247 . S
O391 Cd380 2.439 . S
O391 C385 1.208 . S
O392 Cd393 2.223 . S
O392 C400 1.315 . S
Cd393 O392 2.223 . S
Cd393 O396 2.297 . S
Cd393 O397 2.439 . S
Cd393 O403 2.240 . S
Cd394 O395 2.240 . S
Cd394 O402 2.223 . S
Cd394 O404 2.297 . S
Cd394 O405 2.439 . S
O395 Cd394 2.240 . S
O395 C400 1.279 . S
O396 Cd393 2.297 . S
O396 C398 1.247 . S
O397 Cd393 2.439 . S
O397 C398 1.208 . S
C398 O396 1.247 . S
C398 O397 1.208 . S
C399 O404 1.247 . S
C399 O405 1.208 . S
C400 O392 1.315 . S
C400 O395 1.279 . S
C401 O402 1.315 . S
C401 O403 1.279 . S
O402 Cd394 2.223 . S
O402 C401 1.315 . S
O403 Cd393 2.240 . S
O403 C401 1.279 . S
O404 Cd394 2.297 . S
O404 C399 1.247 . S
O405 Cd394 2.439 . S
O405 C399 1.208 . S
O406 Cd407 2.223 . S
O406 C414 1.315 . S
Cd407 O406 2.223 . S
Cd407 O410 2.297 . S
Cd407 O411 2.439 . S
Cd407 O417 2.240 . S
Cd408 O409 2.240 . S
Cd408 O416 2.223 . S
Cd408 O418 2.297 . S
Cd408 O419 2.439 . S
O409 Cd408 2.240 . S
O409 C414 1.279 . S
O410 Cd407 2.297 . S
O410 C412 1.247 . S
O411 Cd407 2.439 . S
O411 C412 1.208 . S
C412 O410 1.247 . S
C412 O411 1.208 . S
C413 O418 1.247 . S
C413 O419 1.208 . S
C414 O406 1.315 . S
C414 O409 1.279 . S
C415 O416 1.315 . S
C415 O417 1.279 . S
O416 Cd408 2.223 . S
O416 C415 1.315 . S
O417 Cd407 2.240 . S
O417 C415 1.279 . S
O418 Cd408 2.297 . S
O418 C413 1.247 . S
O419 Cd408 2.439 . S
O419 C413 1.208 . S
O420 Cd421 2.223 . S
O420 C428 1.315 . S
Cd421 O420 2.223 . S
Cd421 O424 2.297 . S
Cd421 O425 2.439 . S
Cd421 O431 2.240 . S
Cd422 O423 2.240 . S
Cd422 O430 2.223 . S
Cd422 O432 2.297 . S
Cd422 O433 2.439 . S
O423 Cd422 2.240 . S
O423 C428 1.279 . S
O424 Cd421 2.297 . S
O424 C426 1.247 . S
O425 Cd421 2.439 . S
O425 C426 1.208 . S
C426 O424 1.247 . S
C426 O425 1.208 . S
C427 O432 1.247 . S
C427 O433 1.208 . S
C428 O420 1.315 . S
C428 O423 1.279 . S
C429 O430 1.315 . S
C429 O431 1.279 . S
O430 Cd422 2.223 . S
O430 C429 1.315 . S
O431 Cd421 2.240 . S
O431 C429 1.279 . S
O432 Cd422 2.297 . S
O432 C427 1.247 . S
O433 Cd422 2.439 . S
O433 C427 1.208 . S
O434 Cd435 2.223 . S
O434 C442 1.315 . S
Cd435 O434 2.223 . S
Cd435 O438 2.297 . S
Cd435 O439 2.439 . S
Cd435 O445 2.240 . S
Cd436 O437 2.240 . S
Cd436 O444 2.223 . S
Cd436 O446 2.297 . S
Cd436 O447 2.439 . S
O437 Cd436 2.240 . S
O437 C442 1.279 . S
O438 Cd435 2.297 . S
O438 C440 1.247 . S
O439 Cd435 2.439 . S
O439 C440 1.208 . S
C440 O438 1.247 . S
C440 O439 1.208 . S
C441 O446 1.247 . S
C441 O447 1.208 . S
C442 O434 1.315 . S
C442 O437 1.279 . S
C443 O444 1.315 . S
C443 O445 1.279 . S
O444 Cd436 2.223 . S
O444 C443 1.315 . S
O445 Cd435 2.240 . S
O445 C443 1.279 . S
O446 Cd436 2.297 . S
O446 C441 1.247 . S
O447 Cd436 2.439 . S
O447 C441 1.208 . S
O448 Cd449 2.223 . S
O448 C456 1.315 . S
Cd449 O448 2.223 . S
Cd449 O452 2.297 . S
Cd449 O453 2.439 . S
Cd449 O459 2.240 . S
Cd450 O451 2.240 . S
Cd450 O458 2.223 . S
Cd450 O460 2.297 . S
Cd450 O461 2.439 . S
O451 Cd450 2.240 . S
O451 C456 1.279 . S
O452 Cd449 2.297 . S
O452 C454 1.247 . S
O453 Cd449 2.439 . S
O453 C454 1.208 . S
C454 O452 1.247 . S
C454 O453 1.208 . S
C455 O460 1.247 . S
C455 O461 1.208 . S
C456 O448 1.315 . S
C456 O451 1.279 . S
C457 O458 1.315 . S
C457 O459 1.279 . S
O458 Cd450 2.223 . S
O458 C457 1.315 . S
O459 Cd449 2.240 . S
O459 C457 1.279 . S
O460 Cd450 2.297 . S
O460 C455 1.247 . S
O461 Cd450 2.439 . S
O461 C455 1.208 . S
O462 Cd463 2.223 . S
O462 C470 1.315 . S
Cd463 O462 2.223 . S
Cd463 O466 2.297 . S
Cd463 O467 2.439 . S
Cd463 O473 2.240 . S
Cd464 O465 2.240 . S
Cd464 O472 2.223 . S
Cd464 O474 2.297 . S
Cd464 O475 2.439 . S
O465 Cd464 2.240 . S
O465 C470 1.279 . S
O466 Cd463 2.297 . S
O466 C468 1.247 . S
O467 Cd463 2.439 . S
O467 C468 1.208 . S
C468 O466 1.247 . S
C468 O467 1.208 . S
C469 O474 1.247 . S
C469 O475 1.208 . S
C470 O462 1.315 . S
C470 O465 1.279 . S
C471 O472 1.315 . S
C471 O473 1.279 . S
O472 Cd464 2.223 . S
O472 C471 1.315 . S
O473 Cd463 2.240 . S
O473 C471 1.279 . S
O474 Cd464 2.297 . S
O474 C469 1.247 . S
O475 Cd464 2.439 . S
O475 C469 1.208 . S
O476 Cd477 2.223 . S
O476 C484 1.315 . S
Cd477 O476 2.223 . S
Cd477 O480 2.297 . S
Cd477 O481 2.439 . S
Cd477 O487 2.240 . S
Cd478 O479 2.240 . S
Cd478 O486 2.223 . S
Cd478 O488 2.297 . S
Cd478 O489 2.439 . S
O479 Cd478 2.240 . S
O479 C484 1.279 . S
O480 Cd477 2.297 . S
O480 C482 1.247 . S
O481 Cd477 2.439 . S
O481 C482 1.208 . S
C482 O480 1.247 . S
C482 O481 1.208 . S
C483 O488 1.247 . S
C483 O489 1.208 . S
C484 O476 1.315 . S
C484 O479 1.279 . S
C485 O486 1.315 . S
C485 O487 1.279 . S
O486 Cd478 2.223 . S
O486 C485 1.315 . S
O487 Cd477 2.240 . S
O487 C485 1.279 . S
O488 Cd478 2.297 . S
O488 C483 1.247 . S
O489 Cd478 2.439 . S
O489 C483 1.208 . S
O490 Cd491 2.223 . S
O490 C498 1.315 . S
Cd491 O490 2.223 . S
Cd491 O494 2.297 . S
Cd491 O495 2.439 . S
Cd491 O501 2.240 . S
Cd492 O493 2.240 . S
Cd492 O500 2.223 . S
Cd492 O502 2.297 . S
Cd492 O503 2.439 . S
O493 Cd492 2.240 . S
O493 C498 1.279 . S
O494 Cd491 2.297 . S
O494 C496 1.247 . S
O495 Cd491 2.439 . S
O495 C496 1.208 . S
C496 O494 1.247 . S
C496 O495 1.208 . S
C497 O502 1.247 . S
C497 O503 1.208 . S
C498 O490 1.315 . S
C498 O493 1.279 . S
C499 O500 1.315 . S
C499 O501 1.279 . S
O500 Cd492 2.223 . S
O500 C499 1.315 . S
O501 Cd491 2.240 . S
O501 C499 1.279 . S
O502 Cd492 2.297 . S
O502 C497 1.247 . S
O503 Cd492 2.439 . S
O503 C497 1.208 . S
H504 C510 0.930 . S
H505 C514 0.930 . S
H506 C519 0.929 . S
H507 C517 0.929 . S
H508 C512 0.929 . S
H509 C518 0.929 . S
C510 H504 0.930 . S
C510 C511 1.367 . S
C510 C518 1.378 . S
C511 C510 1.367 . S
C511 C519 1.433 . S
C512 H508 0.929 . S
C512 C514 1.378 1_545 S
C512 C516 1.350 . S
C513 C516 1.463 1_554 S
C513 C518 1.350 . S
C513 N521 1.427 1_554 S
C514 H505 0.930 . S
C514 C512 1.378 1_565 S
C514 C515 1.367 . S
C515 C514 1.367 . S
C515 C517 1.433 . S
C516 C512 1.350 . S
C516 C513 1.463 1_556 S
C516 N520 1.427 1_545 S
C517 H507 0.929 . S
C517 C515 1.433 . S
C517 N520 1.384 . S
C518 H509 0.929 . S
C518 C510 1.378 . S
C518 C513 1.350 . S
C519 H506 0.929 . S
C519 C511 1.433 . S
C519 N521 1.384 1_554 S
N520 C516 1.427 1_565 S
N520 C517 1.384 . S
N521 C513 1.427 1_556 S
N521 C519 1.384 1_556 S
H522 C528 0.930 . S
H523 C532 0.930 . S
H524 C537 0.929 . S
H525 C535 0.929 . S
H526 C530 0.929 . S
H527 C536 0.929 . S
C528 H522 0.930 . S
C528 C529 1.367 . S
C528 C536 1.378 . S
C529 C528 1.367 . S
C529 C537 1.433 . S
C530 H526 0.929 . S
C530 C532 1.378 1_655 S
C530 C534 1.350 . S
C531 C534 1.463 1_554 S
C531 C536 1.350 . S
C531 N539 1.427 1_554 S
C532 H523 0.930 . S
C532 C530 1.378 1_455 S
C532 C533 1.367 . S
C533 C532 1.367 . S
C533 C535 1.433 . S
C534 C530 1.350 . S
C534 C531 1.463 1_556 S
C534 N538 1.427 1_655 S
C535 H525 0.929 . S
C535 C533 1.433 . S
C535 N538 1.384 . S
C536 H527 0.929 . S
C536 C528 1.378 . S
C536 C531 1.350 . S
C537 H524 0.929 . S
C537 C529 1.433 . S
C537 N539 1.384 1_554 S
N538 C534 1.427 1_455 S
N538 C535 1.384 . S
N539 C531 1.427 1_556 S
N539 C537 1.384 1_556 S
H540 C546 0.930 . S
H541 C550 0.930 . S
H542 C555 0.929 . S
H543 C553 0.929 . S
H544 C548 0.929 . S
H545 C554 0.929 . S
C546 H540 0.930 . S
C546 C547 1.367 . S
C546 C554 1.378 . S
C547 C546 1.367 . S
C547 C555 1.433 . S
C548 H544 0.929 . S
C548 C550 1.378 . S
C548 C552 1.350 . S
C549 C552 1.463 1_556 S
C549 C554 1.350 . S
C549 N557 1.427 . S
C550 H541 0.930 . S
C550 C548 1.378 . S
C550 C551 1.367 . S
C551 C550 1.367 . S
C551 C553 1.433 . S
C552 C548 1.350 . S
C552 C549 1.463 1_554 S
C552 N556 1.427 1_554 S
C553 H543 0.929 . S
C553 C551 1.433 . S
C553 N556 1.384 1_554 S
C554 H545 0.929 . S
C554 C546 1.378 . S
C554 C549 1.350 . S
C555 H542 0.929 . S
C555 C547 1.433 . S
C555 N557 1.384 . S
N556 C552 1.427 1_556 S
N556 C553 1.384 1_556 S
N557 C549 1.427 . S
N557 C555 1.384 . S
H558 C564 0.930 . S
H559 C568 0.930 . S
H560 C573 0.929 . S
H561 C571 0.929 . S
H562 C566 0.929 . S
H563 C572 0.929 . S
C564 H558 0.930 . S
C564 C565 1.367 . S
C564 C572 1.378 . S
C565 C564 1.367 . S
C565 C573 1.433 . S
C566 H562 0.929 . S
C566 C568 1.378 . S
C566 C570 1.350 . S
C567 C570 1.463 . S
C567 C572 1.350 1_455 S
C567 N575 1.427 . S
C568 H559 0.930 . S
C568 C566 1.378 . S
C568 C569 1.367 . S
C569 C568 1.367 . S
C569 C571 1.433 . S
C570 C566 1.350 . S
C570 C567 1.463 . S
C570 N574 1.427 . S
C571 H561 0.929 . S
C571 C569 1.433 . S
C571 N574 1.384 . S
C572 H563 0.929 . S
C572 C564 1.378 . S
C572 C567 1.350 1_655 S
C573 H560 0.929 . S
C573 C565 1.433 . S
C573 N575 1.384 1_655 S
N574 C570 1.427 . S
N574 C571 1.384 . S
N575 C567 1.427 . S
N575 C573 1.384 1_455 S
H576 C582 0.930 . S
H577 C586 0.930 . S
H578 C591 0.929 . S
H579 C589 0.929 . S
H580 C584 0.929 . S
H581 C590 0.929 . S
C582 H576 0.930 . S
C582 C583 1.367 . S
C582 C590 1.378 . S
C583 C582 1.367 . S
C583 C591 1.433 . S
C584 H580 0.929 . S
C584 C586 1.378 . S
C584 C588 1.350 . S
C585 C588 1.463 . S
C585 C590 1.350 . S
C585 N593 1.427 . S
C586 H577 0.930 . S
C586 C584 1.378 . S
C586 C587 1.367 . S
C587 C586 1.367 . S
C587 C589 1.433 . S
C588 C584 1.350 . S
C588 C585 1.463 . S
C588 N592 1.427 . S
C589 H579 0.929 . S
C589 C587 1.433 . S
C589 N592 1.384 . S
C590 H581 0.929 . S
C590 C582 1.378 . S
C590 C585 1.350 . S
C591 H578 0.929 . S
C591 C583 1.433 . S
C591 N593 1.384 . S
N592 C588 1.427 . S
N592 C589 1.384 . S
N593 C585 1.427 . S
N593 C591 1.384 . S
H594 C600 0.930 . S
H595 C604 0.930 . S
H596 C609 0.929 . S
H597 C607 0.929 . S
H598 C602 0.929 . S
H599 C608 0.929 . S
C600 H594 0.930 . S
C600 C601 1.367 . S
C600 C608 1.378 . S
C601 C600 1.367 . S
C601 C609 1.433 . S
C602 H598 0.929 . S
C602 C604 1.378 . S
C602 C606 1.350 1_545 S
C603 C606 1.463 . S
C603 C608 1.350 . S
C603 N611 1.427 . S
C604 H595 0.930 . S
C604 C602 1.378 . S
C604 C605 1.367 . S
C605 C604 1.367 . S
C605 C607 1.433 . S
C606 C602 1.350 1_565 S
C606 C603 1.463 . S
C606 N610 1.427 . S
C607 H597 0.929 . S
C607 C605 1.433 . S
C607 N610 1.384 1_545 S
C608 H599 0.929 . S
C608 C600 1.378 . S
C608 C603 1.350 . S
C609 H596 0.929 . S
C609 C601 1.433 . S
C609 N611 1.384 . S
N610 C606 1.427 . S
N610 C607 1.384 1_565 S
N611 C603 1.427 . S
N611 C609 1.384 . S
H612 C618 0.930 . S
H613 C622 0.930 . S
H614 C627 0.929 . S
H615 C625 0.929 . S
H616 C620 0.929 . S
H617 C626 0.929 1_556 S
C618 H612 0.930 . S
C618 C619 1.367 . S
C618 C626 1.378 . S
C619 C618 1.367 . S
C619 C627 1.433 . S
C620 H616 0.929 . S
C620 C622 1.378 1_554 S
C620 C624 1.350 1_554 S
C621 C624 1.463 1_554 S
C621 C626 1.350 1_565 S
C621 N629 1.427 . S
C622 H613 0.930 . S
C622 C620 1.378 1_556 S
C622 C623 1.367 . S
C623 C622 1.367 . S
C623 C625 1.433 . S
C624 C620 1.350 1_556 S
C624 C621 1.463 1_556 S
C624 N628 1.427 . S
C625 H615 0.929 . S
C625 C623 1.433 . S
C625 N628 1.384 . S
C626 H617 0.929 1_554 S
C626 C618 1.378 . S
C626 C621 1.350 1_545 S
C627 H614 0.929 . S
C627 C619 1.433 . S
C627 N629 1.384 1_545 S
N628 C624 1.427 . S
N628 C625 1.384 . S
N629 C621 1.427 . S
N629 C627 1.384 1_565 S
H630 C636 0.930 . S
H631 C640 0.930 . S
H632 C645 0.929 . S
H633 C643 0.929 . S
H634 C638 0.929 . S
H635 C644 0.929 1_556 S
C636 H630 0.930 . S
C636 C637 1.367 . S
C636 C644 1.378 . S
C637 C636 1.367 . S
C637 C645 1.433 . S
C638 H634 0.929 . S
C638 C640 1.378 1_554 S
C638 C642 1.350 1_554 S
C639 C642 1.463 1_554 S
C639 C644 1.350 1_455 S
C639 N647 1.427 . S
C640 H631 0.930 . S
C640 C638 1.378 1_556 S
C640 C641 1.367 . S
C641 C640 1.367 . S
C641 C643 1.433 . S
C642 C638 1.350 1_556 S
C642 C639 1.463 1_556 S
C642 N646 1.427 . S
C643 H633 0.929 . S
C643 C641 1.433 . S
C643 N646 1.384 . S
C644 H635 0.929 1_554 S
C644 C636 1.378 . S
C644 C639 1.350 1_655 S
C645 H632 0.929 . S
C645 C637 1.433 . S
C645 N647 1.384 1_655 S
N646 C642 1.427 . S
N646 C643 1.384 . S
N647 C639 1.427 . S
N647 C645 1.384 1_455 S
H648 C654 0.930 . S
H649 C658 0.930 . S
H650 C663 0.929 . S
H651 C661 0.929 . S
H652 C656 0.929 1_556 S
H653 C662 0.929 . S
C654 H648 0.930 . S
C654 C655 1.367 . S
C654 C662 1.378 1_556 S
C655 C654 1.367 . S
C655 C663 1.433 . S
C656 H652 0.929 1_554 S
C656 C658 1.378 . S
C656 C660 1.350 . S
C657 C660 1.463 1_556 S
C657 C662 1.350 1_556 S
C657 N665 1.427 . S
C658 H649 0.930 . S
C658 C656 1.378 . S
C658 C659 1.367 . S
C659 C658 1.367 . S
C659 C661 1.433 . S
C660 C656 1.350 . S
C660 C657 1.463 1_554 S
C660 N664 1.427 . S
C661 H651 0.929 . S
C661 C659 1.433 . S
C661 N664 1.384 . S
C662 H653 0.929 . S
C662 C654 1.378 1_554 S
C662 C657 1.350 1_554 S
C663 H650 0.929 . S
C663 C655 1.433 . S
C663 N665 1.384 . S
N664 C660 1.427 . S
N664 C661 1.384 . S
N665 C657 1.427 . S
N665 C663 1.384 . S
H666 C672 0.930 . S
H667 C676 0.930 . S
H668 C681 0.929 . S
H669 C679 0.929 . S
H670 C674 0.929 . S
H671 C680 0.929 . S
C672 H666 0.930 . S
C672 C673 1.367 . S
C672 C680 1.378 . S
C673 C672 1.367 . S
C673 C681 1.433 . S
C674 H670 0.929 . S
C674 C676 1.378 1_655 S
C674 C678 1.350 . S
C675 C678 1.463 . S
C675 C680 1.350 . S
C675 N683 1.427 . S
C676 H667 0.930 . S
C676 C674 1.378 1_455 S
C676 C677 1.367 . S
C677 C676 1.367 . S
C677 C679 1.433 . S
C678 C674 1.350 . S
C678 C675 1.463 . S
C678 N682 1.427 1_655 S
C679 H669 0.929 . S
C679 C677 1.433 . S
C679 N682 1.384 . S
C680 H671 0.929 . S
C680 C672 1.378 . S
C680 C675 1.350 . S
C681 H668 0.929 . S
C681 C673 1.433 . S
C681 N683 1.384 . S
N682 C678 1.427 1_455 S
N682 C679 1.384 . S
N683 C675 1.427 . S
N683 C681 1.384 . S
H684 C690 0.930 . S
H685 C694 0.930 . S
H686 C699 0.929 . S
H687 C697 0.929 . S
H688 C692 0.929 . S
H689 C698 0.929 . S
C690 H684 0.930 . S
C690 C691 1.367 . S
C690 C698 1.378 . S
C691 C690 1.367 . S
C691 C699 1.433 . S
C692 H688 0.929 . S
C692 C694 1.378 . S
C692 C696 1.350 . S
C693 C696 1.463 . S
C693 C698 1.350 . S
C693 N701 1.427 . S
C694 H685 0.930 . S
C694 C692 1.378 . S
C694 C695 1.367 . S
C695 C694 1.367 . S
C695 C697 1.433 . S
C696 C692 1.350 . S
C696 C693 1.463 . S
C696 N700 1.427 . S
C697 H687 0.929 . S
C697 C695 1.433 . S
C697 N700 1.384 . S
C698 H689 0.929 . S
C698 C690 1.378 . S
C698 C693 1.350 . S
C699 H686 0.929 . S
C699 C691 1.433 . S
C699 N701 1.384 . S
N700 C696 1.427 . S
N700 C697 1.384 . S
N701 C693 1.427 . S
N701 C699 1.384 . S
H702 C708 0.930 . S
H703 C712 0.930 . S
H704 C717 0.929 . S
H705 C715 0.929 . S
H706 C710 0.929 . S
H707 C716 0.929 . S
C708 H702 0.930 . S
C708 C709 1.367 . S
C708 C716 1.378 . S
C709 C708 1.367 . S
C709 C717 1.433 . S
C710 H706 0.929 . S
C710 C712 1.378 1_545 S
C710 C714 1.350 . S
C711 C714 1.463 . S
C711 C716 1.350 . S
C711 N719 1.427 . S
C712 H703 0.930 . S
C712 C710 1.378 1_565 S
C712 C713 1.367 . S
C713 C712 1.367 . S
C713 C715 1.433 . S
C714 C710 1.350 . S
C714 C711 1.463 . S
C714 N718 1.427 1_545 S
C715 H705 0.929 . S
C715 C713 1.433 . S
C715 N718 1.384 . S
C716 H707 0.929 . S
C716 C708 1.378 . S
C716 C711 1.350 . S
C717 H704 0.929 . S
C717 C709 1.433 . S
C717 N719 1.384 . S
N718 C714 1.427 1_565 S
N718 C715 1.384 . S
N719 C711 1.427 . S
N719 C717 1.384 . S
H720 C726 0.930 . S
H721 C730 0.930 . S
H722 C735 0.929 . S
H723 C733 0.929 . S
H724 C728 0.929 . S
H725 C734 0.929 . S
C726 H720 0.930 . S
C726 C727 1.367 . S
C726 C734 1.378 . S
C727 C726 1.367 . S
C727 C735 1.433 . S
C728 H724 0.929 . S
C728 C730 1.378 . S
C728 C732 1.350 . S
C729 C732 1.463 . S
C729 C734 1.350 . S
C729 N737 1.427 . S
C730 H721 0.930 . S
C730 C728 1.378 . S
C730 C731 1.367 . S
C731 C730 1.367 . S
C731 C733 1.433 . S
C732 C728 1.350 . S
C732 C729 1.463 . S
C732 N736 1.427 . S
C733 H723 0.929 . S
C733 C731 1.433 . S
C733 N736 1.384 . S
C734 H725 0.929 . S
C734 C726 1.378 . S
C734 C729 1.350 . S
C735 H722 0.929 . S
C735 C727 1.433 . S
C735 N737 1.384 . S
N736 C732 1.427 . S
N736 C733 1.384 . S
N737 C729 1.427 . S
N737 C735 1.384 . S
H738 C744 0.930 . S
H739 C748 0.930 . S
H740 C753 0.929 . S
H741 C751 0.929 . S
H742 C746 0.929 . S
H743 C752 0.929 . S
C744 H738 0.930 . S
C744 C745 1.367 . S
C744 C752 1.378 . S
C745 C744 1.367 . S
C745 C753 1.433 . S
C746 H742 0.929 . S
C746 C748 1.378 . S
C746 C750 1.350 . S
C747 C750 1.463 . S
C747 C752 1.350 . S
C747 N755 1.427 . S
C748 H739 0.930 . S
C748 C746 1.378 . S
C748 C749 1.367 . S
C749 C748 1.367 . S
C749 C751 1.433 . S
C750 C746 1.350 . S
C750 C747 1.463 . S
C750 N754 1.427 . S
C751 H741 0.929 . S
C751 C749 1.433 . S
C751 N754 1.384 . S
C752 H743 0.929 . S
C752 C744 1.378 . S
C752 C747 1.350 . S
C753 H740 0.929 . S
C753 C745 1.433 . S
C753 N755 1.384 . S
N754 C750 1.427 . S
N754 C751 1.384 . S
N755 C747 1.427 . S
N755 C753 1.384 . S
H756 C762 0.930 . S
H757 C766 0.930 . S
H758 C771 0.929 . S
H759 C769 0.929 . S
H760 C764 0.929 . S
H761 C770 0.929 . S
C762 H756 0.930 . S
C762 C763 1.367 . S
C762 C770 1.378 . S
C763 C762 1.367 . S
C763 C771 1.433 . S
C764 H760 0.929 . S
C764 C766 1.378 . S
C764 C768 1.350 . S
C765 C768 1.463 . S
C765 C770 1.350 . S
C765 N773 1.427 . S
C766 H757 0.930 . S
C766 C764 1.378 . S
C766 C767 1.367 . S
C767 C766 1.367 . S
C767 C769 1.433 . S
C768 C764 1.350 . S
C768 C765 1.463 . S
C768 N772 1.427 . S
C769 H759 0.929 . S
C769 C767 1.433 . S
C769 N772 1.384 . S
C770 H761 0.929 . S
C770 C762 1.378 . S
C770 C765 1.350 . S
C771 H758 0.929 . S
C771 C763 1.433 . S
C771 N773 1.384 . S
N772 C768 1.427 . S
N772 C769 1.384 . S
N773 C765 1.427 . S
N773 C771 1.384 . S
H774 C780 0.930 . S
H775 C784 0.930 . S
H776 C789 0.929 . S
H777 C787 0.929 . S
H778 C782 0.929 . S
H779 C788 0.929 . S
C780 H774 0.930 . S
C780 C781 1.367 . S
C780 C788 1.378 . S
C781 C780 1.367 . S
C781 C789 1.433 . S
C782 H778 0.929 . S
C782 C784 1.378 . S
C782 C786 1.350 . S
C783 C786 1.463 . S
C783 C788 1.350 . S
C783 N791 1.427 . S
C784 H775 0.930 . S
C784 C782 1.378 . S
C784 C785 1.367 . S
C785 C784 1.367 . S
C785 C787 1.433 . S
C786 C782 1.350 . S
C786 C783 1.463 . S
C786 N790 1.427 . S
C787 H777 0.929 . S
C787 C785 1.433 . S
C787 N790 1.384 . S
C788 H779 0.929 . S
C788 C780 1.378 . S
C788 C783 1.350 . S
C789 H776 0.929 . S
C789 C781 1.433 . S
C789 N791 1.384 . S
N790 C786 1.427 . S
N790 C787 1.384 . S
N791 C783 1.427 . S
N791 C789 1.384 . S
H792 C798 0.930 . S
H793 C802 0.930 . S
H794 C807 0.929 . S
H795 C805 0.929 . S
H796 C800 0.929 . S
H797 C806 0.929 . S
C798 H792 0.930 . S
C798 C799 1.367 . S
C798 C806 1.378 . S
C799 C798 1.367 . S
C799 C807 1.433 . S
C800 H796 0.929 . S
C800 C802 1.378 . S
C800 C804 1.350 . S
C801 C804 1.463 . S
C801 C806 1.350 . S
C801 N809 1.427 . S
C802 H793 0.930 . S
C802 C800 1.378 . S
C802 C803 1.367 . S
C803 C802 1.367 . S
C803 C805 1.433 . S
C804 C800 1.350 . S
C804 C801 1.463 . S
C804 N808 1.427 . S
C805 H795 0.929 . S
C805 C803 1.433 . S
C805 N808 1.384 . S
C806 H797 0.929 . S
C806 C798 1.378 . S
C806 C801 1.350 . S
C807 H794 0.929 . S
C807 C799 1.433 . S
C807 N809 1.384 . S
N808 C804 1.427 . S
N808 C805 1.384 . S
N809 C801 1.427 . S
N809 C807 1.384 . S
H810 C816 0.930 . S
H811 C820 0.930 . S
H812 C825 0.929 . S
H813 C823 0.929 . S
H814 C818 0.929 . S
H815 C824 0.929 . S
C816 H810 0.930 . S
C816 C817 1.367 . S
C816 C824 1.378 . S
C817 C816 1.367 . S
C817 C825 1.433 . S
C818 H814 0.929 . S
C818 C820 1.378 . S
C818 C822 1.350 . S
C819 C822 1.463 . S
C819 C824 1.350 . S
C819 N827 1.427 . S
C820 H811 0.930 . S
C820 C818 1.378 . S
C820 C821 1.367 . S
C821 C820 1.367 . S
C821 C823 1.433 . S
C822 C818 1.350 . S
C822 C819 1.463 . S
C822 N826 1.427 . S
C823 H813 0.929 . S
C823 C821 1.433 . S
C823 N826 1.384 . S
C824 H815 0.929 . S
C824 C816 1.378 . S
C824 C819 1.350 . S
C825 H812 0.929 . S
C825 C817 1.433 . S
C825 N827 1.384 . S
N826 C822 1.427 . S
N826 C823 1.384 . S
N827 C819 1.427 . S
N827 C825 1.384 . S
H828 C834 0.930 . S
H829 C838 0.930 . S
H830 C843 0.929 . S
H831 C841 0.929 . S
H832 C836 0.929 . S
H833 C842 0.929 . S
C834 H828 0.930 . S
C834 C835 1.367 . S
C834 C842 1.378 . S
C835 C834 1.367 . S
C835 C843 1.433 . S
C836 H832 0.929 . S
C836 C838 1.378 . S
C836 C840 1.350 . S
C837 C840 1.463 . S
C837 C842 1.350 . S
C837 N845 1.427 . S
C838 H829 0.930 . S
C838 C836 1.378 . S
C838 C839 1.367 . S
C839 C838 1.367 . S
C839 C841 1.433 . S
C840 C836 1.350 . S
C840 C837 1.463 . S
C840 N844 1.427 . S
C841 H831 0.929 . S
C841 C839 1.433 . S
C841 N844 1.384 . S
C842 H833 0.929 . S
C842 C834 1.378 . S
C842 C837 1.350 . S
C843 H830 0.929 . S
C843 C835 1.433 . S
C843 N845 1.384 . S
N844 C840 1.427 . S
N844 C841 1.384 . S
N845 C837 1.427 . S
N845 C843 1.384 . S
H846 C852 0.930 . S
H847 C856 0.930 . S
H848 C861 0.929 . S
H849 C859 0.929 . S
H850 C854 0.929 . S
H851 C860 0.929 . S
C852 H846 0.930 . S
C852 C853 1.367 . S
C852 C860 1.378 . S
C853 C852 1.367 . S
C853 C861 1.433 . S
C854 H850 0.929 . S
C854 C856 1.378 . S
C854 C858 1.350 . S
C855 C858 1.463 . S
C855 C860 1.350 . S
C855 N863 1.427 . S
C856 H847 0.930 . S
C856 C854 1.378 . S
C856 C857 1.367 . S
C857 C856 1.367 . S
C857 C859 1.433 . S
C858 C854 1.350 . S
C858 C855 1.463 . S
C858 N862 1.427 . S
C859 H849 0.929 . S
C859 C857 1.433 . S
C859 N862 1.384 . S
C860 H851 0.929 . S
C860 C852 1.378 . S
C860 C855 1.350 . S
C861 H848 0.929 . S
C861 C853 1.433 . S
C861 N863 1.384 . S
N862 C858 1.427 . S
N862 C859 1.384 . S
N863 C855 1.427 . S
N863 C861 1.384 . S
H864 C870 0.930 . S
H865 C874 0.930 . S
H866 C879 0.929 . S
H867 C877 0.929 . S
H868 C872 0.929 . S
H869 C878 0.929 . S
C870 H864 0.930 . S
C870 C871 1.367 . S
C870 C878 1.378 . S
C871 C870 1.367 . S
C871 C879 1.433 . S
C872 H868 0.929 . S
C872 C874 1.378 . S
C872 C876 1.350 . S
C873 C876 1.463 . S
C873 C878 1.350 . S
C873 N881 1.427 . S
C874 H865 0.930 . S
C874 C872 1.378 . S
C874 C875 1.367 . S
C875 C874 1.367 . S
C875 C877 1.433 . S
C876 C872 1.350 . S
C876 C873 1.463 . S
C876 N880 1.427 . S
C877 H867 0.929 . S
C877 C875 1.433 . S
C877 N880 1.384 . S
C878 H869 0.929 . S
C878 C870 1.378 . S
C878 C873 1.350 . S
C879 H866 0.929 . S
C879 C871 1.433 . S
C879 N881 1.384 . S
N880 C876 1.427 . S
N880 C877 1.384 . S
N881 C873 1.427 . S
N881 C879 1.384 . S
H882 C888 0.930 . S
H883 C892 0.930 . S
H884 C897 0.929 . S
H885 C895 0.929 . S
H886 C890 0.929 . S
H887 C896 0.929 . S
C888 H882 0.930 . S
C888 C889 1.367 . S
C888 C896 1.378 . S
C889 C888 1.367 . S
C889 C897 1.433 . S
C890 H886 0.929 . S
C890 C892 1.378 . S
C890 C894 1.350 . S
C891 C894 1.463 . S
C891 C896 1.350 . S
C891 N899 1.427 . S
C892 H883 0.930 . S
C892 C890 1.378 . S
C892 C893 1.367 . S
C893 C892 1.367 . S
C893 C895 1.433 . S
C894 C890 1.350 . S
C894 C891 1.463 . S
C894 N898 1.427 . S
C895 H885 0.929 . S
C895 C893 1.433 . S
C895 N898 1.384 . S
C896 H887 0.929 . S
C896 C888 1.378 . S
C896 C891 1.350 . S
C897 H884 0.929 . S
C897 C889 1.433 . S
C897 N899 1.384 . S
N898 C894 1.427 . S
N898 C895 1.384 . S
N899 C891 1.427 . S
N899 C897 1.384 . S
H900 C906 0.930 . S
H901 C910 0.930 . S
H902 C915 0.929 . S
H903 C913 0.929 . S
H904 C908 0.929 . S
H905 C914 0.929 . S
C906 H900 0.930 . S
C906 C907 1.367 . S
C906 C914 1.378 . S
C907 C906 1.367 . S
C907 C915 1.433 . S
C908 H904 0.929 . S
C908 C910 1.378 . S
C908 C912 1.350 . S
C909 C912 1.463 . S
C909 C914 1.350 . S
C909 N917 1.427 . S
C910 H901 0.930 . S
C910 C908 1.378 . S
C910 C911 1.367 . S
C911 C910 1.367 . S
C911 C913 1.433 . S
C912 C908 1.350 . S
C912 C909 1.463 . S
C912 N916 1.427 . S
C913 H903 0.929 . S
C913 C911 1.433 . S
C913 N916 1.384 . S
C914 H905 0.929 . S
C914 C906 1.378 . S
C914 C909 1.350 . S
C915 H902 0.929 . S
C915 C907 1.433 . S
C915 N917 1.384 . S
N916 C912 1.427 . S
N916 C913 1.384 . S
N917 C909 1.427 . S
N917 C915 1.384 . S
H918 C924 0.930 . S
H919 C928 0.930 . S
H920 C933 0.929 . S
H921 C931 0.929 . S
H922 C926 0.929 . S
H923 C932 0.929 . S
C924 H918 0.930 . S
C924 C925 1.367 . S
C924 C932 1.378 . S
C925 C924 1.367 . S
C925 C933 1.433 . S
C926 H922 0.929 . S
C926 C928 1.378 . S
C926 C930 1.350 . S
C927 C930 1.463 . S
C927 C932 1.350 . S
C927 N935 1.427 . S
C928 H919 0.930 . S
C928 C926 1.378 . S
C928 C929 1.367 . S
C929 C928 1.367 . S
C929 C931 1.433 . S
C930 C926 1.350 . S
C930 C927 1.463 . S
C930 N934 1.427 . S
C931 H921 0.929 . S
C931 C929 1.433 . S
C931 N934 1.384 . S
C932 H923 0.929 . S
C932 C924 1.378 . S
C932 C927 1.350 . S
C933 H920 0.929 . S
C933 C925 1.433 . S
C933 N935 1.384 . S
N934 C930 1.427 . S
N934 C931 1.384 . S
N935 C927 1.427 . S
N935 C933 1.384 . S
H936 C942 0.930 . S
H937 C946 0.930 . S
H938 C951 0.929 . S
H939 C949 0.929 . S
H940 C944 0.929 . S
H941 C950 0.929 . S
C942 H936 0.930 . S
C942 C943 1.367 . S
C942 C950 1.378 . S
C943 C942 1.367 . S
C943 C951 1.433 . S
C944 H940 0.929 . S
C944 C946 1.378 . S
C944 C948 1.350 . S
C945 C948 1.463 . S
C945 C950 1.350 . S
C945 N953 1.427 . S
C946 H937 0.930 . S
C946 C944 1.378 . S
C946 C947 1.367 . S
C947 C946 1.367 . S
C947 C949 1.433 . S
C948 C944 1.350 . S
C948 C945 1.463 . S
C948 N952 1.427 . S
C949 H939 0.929 . S
C949 C947 1.433 . S
C949 N952 1.384 . S
C950 H941 0.929 . S
C950 C942 1.378 . S
C950 C945 1.350 . S
C951 H938 0.929 . S
C951 C943 1.433 . S
C951 N953 1.384 . S
N952 C948 1.427 . S
N952 C949 1.384 . S
N953 C945 1.427 . S
N953 C951 1.384 . S
H954 C960 0.930 . S
H955 C964 0.930 . S
H956 C969 0.929 . S
H957 C967 0.929 . S
H958 C962 0.929 . S
H959 C968 0.929 . S
C960 H954 0.930 . S
C960 C961 1.367 . S
C960 C968 1.378 . S
C961 C960 1.367 . S
C961 C969 1.433 . S
C962 H958 0.929 . S
C962 C964 1.378 . S
C962 C966 1.350 . S
C963 C966 1.463 . S
C963 C968 1.350 . S
C963 N971 1.427 . S
C964 H955 0.930 . S
C964 C962 1.378 . S
C964 C965 1.367 . S
C965 C964 1.367 . S
C965 C967 1.433 . S
C966 C962 1.350 . S
C966 C963 1.463 . S
C966 N970 1.427 . S
C967 H957 0.929 . S
C967 C965 1.433 . S
C967 N970 1.384 . S
C968 H959 0.929 . S
C968 C960 1.378 . S
C968 C963 1.350 . S
C969 H956 0.929 . S
C969 C961 1.433 . S
C969 N971 1.384 . S
N970 C966 1.427 . S
N970 C967 1.384 . S
N971 C963 1.427 . S
N971 C969 1.384 . S
H972 C978 0.930 . S
H973 C982 0.930 . S
H974 C987 0.929 . S
H975 C985 0.929 . S
H976 C980 0.929 . S
H977 C986 0.929 . S
C978 H972 0.930 . S
C978 C979 1.367 . S
C978 C986 1.378 . S
C979 C978 1.367 . S
C979 C987 1.433 . S
C980 H976 0.929 . S
C980 C982 1.378 . S
C980 C984 1.350 . S
C981 C984 1.463 . S
C981 C986 1.350 . S
C981 N989 1.427 . S
C982 H973 0.930 . S
C982 C980 1.378 . S
C982 C983 1.367 . S
C983 C982 1.367 . S
C983 C985 1.433 . S
C984 C980 1.350 . S
C984 C981 1.463 . S
C984 N988 1.427 . S
C985 H975 0.929 . S
C985 C983 1.433 . S
C985 N988 1.384 . S
C986 H977 0.929 . S
C986 C978 1.378 . S
C986 C981 1.350 . S
C987 H974 0.929 . S
C987 C979 1.433 . S
C987 N989 1.384 . S
N988 C984 1.427 . S
N988 C985 1.384 . S
N989 C981 1.427 . S
N989 C987 1.384 . S
H990 C996 0.930 . S
H991 C1000 0.930 . S
H992 C1005 0.929 . S
H993 C1003 0.929 . S
H994 C998 0.929 . S
H995 C1004 0.929 . S
C996 H990 0.930 . S
C996 C997 1.367 . S
C996 C1004 1.378 . S
C997 C996 1.367 . S
C997 C1005 1.433 . S
C998 H994 0.929 . S
C998 C1000 1.378 . S
C998 C1002 1.350 . S
C999 C1002 1.463 . S
C999 C1004 1.350 . S
C999 N1007 1.427 . S
C1000 H991 0.930 . S
C1000 C998 1.378 . S
C1000 C1001 1.367 . S
C1001 C1000 1.367 . S
C1001 C1003 1.433 . S
C1002 C998 1.350 . S
C1002 C999 1.463 . S
C1002 N1006 1.427 . S
C1003 H993 0.929 . S
C1003 C1001 1.433 . S
C1003 N1006 1.384 . S
C1004 H995 0.929 . S
C1004 C996 1.378 . S
C1004 C999 1.350 . S
C1005 H992 0.929 . S
C1005 C997 1.433 . S
C1005 N1007 1.384 . S
N1006 C1002 1.427 . S
N1006 C1003 1.384 . S
N1007 C999 1.427 . S
N1007 C1005 1.384 . S
H1008 C1014 0.930 . S
H1009 C1018 0.930 . S
H1010 C1023 0.929 . S
H1011 C1021 0.929 . S
H1012 C1016 0.929 . S
H1013 C1022 0.929 . S
C1014 H1008 0.930 . S
C1014 C1015 1.367 . S
C1014 C1022 1.378 . S
C1015 C1014 1.367 . S
C1015 C1023 1.433 . S
C1016 H1012 0.929 . S
C1016 C1018 1.378 . S
C1016 C1020 1.350 . S
C1017 C1020 1.463 . S
C1017 C1022 1.350 . S
C1017 N1025 1.427 . S
C1018 H1009 0.930 . S
C1018 C1016 1.378 . S
C1018 C1019 1.367 . S
C1019 C1018 1.367 . S
C1019 C1021 1.433 . S
C1020 C1016 1.350 . S
C1020 C1017 1.463 . S
C1020 N1024 1.427 . S
C1021 H1011 0.929 . S
C1021 C1019 1.433 . S
C1021 N1024 1.384 . S
C1022 H1013 0.929 . S
C1022 C1014 1.378 . S
C1022 C1017 1.350 . S
C1023 H1010 0.929 . S
C1023 C1015 1.433 . S
C1023 N1025 1.384 . S
N1024 C1020 1.427 . S
N1024 C1021 1.384 . S
N1025 C1017 1.427 . S
N1025 C1023 1.384 . S
H1026 C1032 0.930 . S
H1027 C1036 0.930 . S
H1028 C1041 0.929 . S
H1029 C1039 0.929 . S
H1030 C1034 0.929 . S
H1031 C1040 0.929 . S
C1032 H1026 0.930 . S
C1032 C1033 1.367 . S
C1032 C1040 1.378 . S
C1033 C1032 1.367 . S
C1033 C1041 1.433 . S
C1034 H1030 0.929 . S
C1034 C1036 1.378 . S
C1034 C1038 1.350 . S
C1035 C1038 1.463 . S
C1035 C1040 1.350 . S
C1035 N1043 1.427 . S
C1036 H1027 0.930 . S
C1036 C1034 1.378 . S
C1036 C1037 1.367 . S
C1037 C1036 1.367 . S
C1037 C1039 1.433 . S
C1038 C1034 1.350 . S
C1038 C1035 1.463 . S
C1038 N1042 1.427 . S
C1039 H1029 0.929 . S
C1039 C1037 1.433 . S
C1039 N1042 1.384 . S
C1040 H1031 0.929 . S
C1040 C1032 1.378 . S
C1040 C1035 1.350 . S
C1041 H1028 0.929 . S
C1041 C1033 1.433 . S
C1041 N1043 1.384 . S
N1042 C1038 1.427 . S
N1042 C1039 1.384 . S
N1043 C1035 1.427 . S
N1043 C1041 1.384 . S
H1044 C1050 0.930 . S
H1045 C1054 0.930 . S
H1046 C1059 0.929 . S
H1047 C1057 0.929 . S
H1048 C1052 0.929 . S
H1049 C1058 0.929 . S
C1050 H1044 0.930 . S
C1050 C1051 1.367 . S
C1050 C1058 1.378 . S
C1051 C1050 1.367 . S
C1051 C1059 1.433 . S
C1052 H1048 0.929 . S
C1052 C1054 1.378 . S
C1052 C1056 1.350 . S
C1053 C1056 1.463 . S
C1053 C1058 1.350 . S
C1053 N1061 1.427 . S
C1054 H1045 0.930 . S
C1054 C1052 1.378 . S
C1054 C1055 1.367 . S
C1055 C1054 1.367 . S
C1055 C1057 1.433 . S
C1056 C1052 1.350 . S
C1056 C1053 1.463 . S
C1056 N1060 1.427 . S
C1057 H1047 0.929 . S
C1057 C1055 1.433 . S
C1057 N1060 1.384 . S
C1058 H1049 0.929 . S
C1058 C1050 1.378 . S
C1058 C1053 1.350 . S
C1059 H1046 0.929 . S
C1059 C1051 1.433 . S
C1059 N1061 1.384 . S
N1060 C1056 1.427 . S
N1060 C1057 1.384 . S
N1061 C1053 1.427 . S
N1061 C1059 1.384 . S
H1062 C1068 0.930 . S
H1063 C1072 0.930 . S
H1064 C1077 0.929 . S
H1065 C1075 0.929 . S
H1066 C1070 0.929 . S
H1067 C1076 0.929 . S
C1068 H1062 0.930 . S
C1068 C1069 1.367 . S
C1068 C1076 1.378 . S
C1069 C1068 1.367 . S
C1069 C1077 1.433 . S
C1070 H1066 0.929 . S
C1070 C1072 1.378 . S
C1070 C1074 1.350 . S
C1071 C1074 1.463 . S
C1071 C1076 1.350 . S
C1071 N1079 1.427 . S
C1072 H1063 0.930 . S
C1072 C1070 1.378 . S
C1072 C1073 1.367 . S
C1073 C1072 1.367 . S
C1073 C1075 1.433 . S
C1074 C1070 1.350 . S
C1074 C1071 1.463 . S
C1074 N1078 1.427 . S
C1075 H1065 0.929 . S
C1075 C1073 1.433 . S
C1075 N1078 1.384 . S
C1076 H1067 0.929 . S
C1076 C1068 1.378 . S
C1076 C1071 1.350 . S
C1077 H1064 0.929 . S
C1077 C1069 1.433 . S
C1077 N1079 1.384 . S
N1078 C1074 1.427 . S
N1078 C1075 1.384 . S
N1079 C1071 1.427 . S
N1079 C1077 1.384 . S
H1080 C1086 0.930 . S
H1081 C1090 0.930 . S
H1082 C1095 0.929 . S
H1083 C1093 0.929 . S
H1084 C1088 0.929 . S
H1085 C1094 0.929 . S
C1086 H1080 0.930 . S
C1086 C1087 1.367 . S
C1086 C1094 1.378 . S
C1087 C1086 1.367 . S
C1087 C1095 1.433 . S
C1088 H1084 0.929 . S
C1088 C1090 1.378 . S
C1088 C1092 1.350 . S
C1089 C1092 1.463 . S
C1089 C1094 1.350 . S
C1089 N1097 1.427 . S
C1090 H1081 0.930 . S
C1090 C1088 1.378 . S
C1090 C1091 1.367 . S
C1091 C1090 1.367 . S
C1091 C1093 1.433 . S
C1092 C1088 1.350 . S
C1092 C1089 1.463 . S
C1092 N1096 1.427 . S
C1093 H1083 0.929 . S
C1093 C1091 1.433 . S
C1093 N1096 1.384 . S
C1094 H1085 0.929 . S
C1094 C1086 1.378 . S
C1094 C1089 1.350 . S
C1095 H1082 0.929 . S
C1095 C1087 1.433 . S
C1095 N1097 1.384 . S
N1096 C1092 1.427 . S
N1096 C1093 1.384 . S
N1097 C1089 1.427 . S
N1097 C1095 1.384 . S
H1098 C1104 0.930 . S
H1099 C1108 0.930 . S
H1100 C1113 0.929 . S
H1101 C1111 0.929 . S
H1102 C1106 0.929 . S
H1103 C1112 0.929 . S
C1104 H1098 0.930 . S
C1104 C1105 1.367 . S
C1104 C1112 1.378 . S
C1105 C1104 1.367 . S
C1105 C1113 1.433 . S
C1106 H1102 0.929 . S
C1106 C1108 1.378 . S
C1106 C1110 1.350 . S
C1107 C1110 1.463 . S
C1107 C1112 1.350 . S
C1107 N1115 1.427 . S
C1108 H1099 0.930 . S
C1108 C1106 1.378 . S
C1108 C1109 1.367 . S
C1109 C1108 1.367 . S
C1109 C1111 1.433 . S
C1110 C1106 1.350 . S
C1110 C1107 1.463 . S
C1110 N1114 1.427 . S
C1111 H1101 0.929 . S
C1111 C1109 1.433 . S
C1111 N1114 1.384 . S
C1112 H1103 0.929 . S
C1112 C1104 1.378 . S
C1112 C1107 1.350 . S
C1113 H1100 0.929 . S
C1113 C1105 1.433 . S
C1113 N1115 1.384 . S
N1114 C1110 1.427 . S
N1114 C1111 1.384 . S
N1115 C1107 1.427 . S
N1115 C1113 1.384 . S
H1116 C1122 0.930 . S
H1117 C1126 0.930 . S
H1118 C1131 0.929 . S
H1119 C1129 0.929 . S
H1120 C1124 0.929 . S
H1121 C1130 0.929 . S
C1122 H1116 0.930 . S
C1122 C1123 1.367 . S
C1122 C1130 1.378 . S
C1123 C1122 1.367 . S
C1123 C1131 1.433 . S
C1124 H1120 0.929 . S
C1124 C1126 1.378 . S
C1124 C1128 1.350 . S
C1125 C1128 1.463 . S
C1125 C1130 1.350 . S
C1125 N1133 1.427 . S
C1126 H1117 0.930 . S
C1126 C1124 1.378 . S
C1126 C1127 1.367 . S
C1127 C1126 1.367 . S
C1127 C1129 1.433 . S
C1128 C1124 1.350 . S
C1128 C1125 1.463 . S
C1128 N1132 1.427 . S
C1129 H1119 0.929 . S
C1129 C1127 1.433 . S
C1129 N1132 1.384 . S
C1130 H1121 0.929 . S
C1130 C1122 1.378 . S
C1130 C1125 1.350 . S
C1131 H1118 0.929 . S
C1131 C1123 1.433 . S
C1131 N1133 1.384 . S
N1132 C1128 1.427 . S
N1132 C1129 1.384 . S
N1133 C1125 1.427 . S
N1133 C1131 1.384 . S
H1134 C1140 0.930 . S
H1135 C1144 0.930 . S
H1136 C1149 0.929 . S
H1137 C1147 0.929 . S
H1138 C1142 0.929 . S
H1139 C1148 0.929 . S
C1140 H1134 0.930 . S
C1140 C1141 1.367 . S
C1140 C1148 1.378 . S
C1141 C1140 1.367 . S
C1141 C1149 1.433 . S
C1142 H1138 0.929 . S
C1142 C1144 1.378 . S
C1142 C1146 1.350 . S
C1143 C1146 1.463 . S
C1143 C1148 1.350 . S
C1143 N1151 1.427 . S
C1144 H1135 0.930 . S
C1144 C1142 1.378 . S
C1144 C1145 1.367 . S
C1145 C1144 1.367 . S
C1145 C1147 1.433 . S
C1146 C1142 1.350 . S
C1146 C1143 1.463 . S
C1146 N1150 1.427 . S
C1147 H1137 0.929 . S
C1147 C1145 1.433 . S
C1147 N1150 1.384 . S
C1148 H1139 0.929 . S
C1148 C1140 1.378 . S
C1148 C1143 1.350 . S
C1149 H1136 0.929 . S
C1149 C1141 1.433 . S
C1149 N1151 1.384 . S
N1150 C1146 1.427 . S
N1150 C1147 1.384 . S
N1151 C1143 1.427 . S
N1151 C1149 1.384 . S
H1152 C1158 0.930 . S
H1153 C1162 0.930 . S
H1154 C1167 0.929 . S
H1155 C1165 0.929 . S
H1156 C1160 0.929 . S
H1157 C1166 0.929 . S
C1158 H1152 0.930 . S
C1158 C1159 1.367 . S
C1158 C1166 1.378 . S
C1159 C1158 1.367 . S
C1159 C1167 1.433 . S
C1160 H1156 0.929 . S
C1160 C1162 1.378 . S
C1160 C1164 1.350 . S
C1161 C1164 1.463 . S
C1161 C1166 1.350 . S
C1161 N1169 1.427 . S
C1162 H1153 0.930 . S
C1162 C1160 1.378 . S
C1162 C1163 1.367 . S
C1163 C1162 1.367 . S
C1163 C1165 1.433 . S
C1164 C1160 1.350 . S
C1164 C1161 1.463 . S
C1164 N1168 1.427 . S
C1165 H1155 0.929 . S
C1165 C1163 1.433 . S
C1165 N1168 1.384 . S
C1166 H1157 0.929 . S
C1166 C1158 1.378 . S
C1166 C1161 1.350 . S
C1167 H1154 0.929 . S
C1167 C1159 1.433 . S
C1167 N1169 1.384 . S
N1168 C1164 1.427 . S
N1168 C1165 1.384 . S
N1169 C1161 1.427 . S
N1169 C1167 1.384 . S
H1170 C1176 0.930 . S
H1171 C1180 0.930 . S
H1172 C1185 0.929 . S
H1173 C1183 0.929 . S
H1174 C1178 0.929 . S
H1175 C1184 0.929 . S
C1176 H1170 0.930 . S
C1176 C1177 1.367 . S
C1176 C1184 1.378 . S
C1177 C1176 1.367 . S
C1177 C1185 1.433 . S
C1178 H1174 0.929 . S
C1178 C1180 1.378 . S
C1178 C1182 1.350 . S
C1179 C1182 1.463 1_565 S
C1179 C1184 1.350 . S
C1179 N1187 1.427 . S
C1180 H1171 0.930 . S
C1180 C1178 1.378 . S
C1180 C1181 1.367 . S
C1181 C1180 1.367 . S
C1181 C1183 1.433 . S
C1182 C1178 1.350 . S
C1182 C1179 1.463 1_545 S
C1182 N1186 1.427 . S
C1183 H1173 0.929 . S
C1183 C1181 1.433 . S
C1183 N1186 1.384 . S
C1184 H1175 0.929 . S
C1184 C1176 1.378 . S
C1184 C1179 1.350 . S
C1185 H1172 0.929 . S
C1185 C1177 1.433 . S
C1185 N1187 1.384 . S
N1186 C1182 1.427 . S
N1186 C1183 1.384 . S
N1187 C1179 1.427 . S
N1187 C1185 1.384 . S
H1188 C1194 0.930 . S
H1189 C1198 0.930 . S
H1190 C1203 0.929 . S
H1191 C1201 0.929 . S
H1192 C1196 0.929 . S
H1193 C1202 0.929 . S
C1194 H1188 0.930 . S
C1194 C1195 1.367 . S
C1194 C1202 1.378 . S
C1195 C1194 1.367 . S
C1195 C1203 1.433 . S
C1196 H1192 0.929 . S
C1196 C1198 1.378 . S
C1196 C1200 1.350 . S
C1197 C1200 1.463 1_655 S
C1197 C1202 1.350 . S
C1197 N1205 1.427 . S
C1198 H1189 0.930 . S
C1198 C1196 1.378 . S
C1198 C1199 1.367 . S
C1199 C1198 1.367 . S
C1199 C1201 1.433 . S
C1200 C1196 1.350 . S
C1200 C1197 1.463 1_455 S
C1200 N1204 1.427 . S
C1201 H1191 0.929 . S
C1201 C1199 1.433 . S
C1201 N1204 1.384 . S
C1202 H1193 0.929 . S
C1202 C1194 1.378 . S
C1202 C1197 1.350 . S
C1203 H1190 0.929 . S
C1203 C1195 1.433 . S
C1203 N1205 1.384 . S
N1204 C1200 1.427 . S
N1204 C1201 1.384 . S
N1205 C1197 1.427 . S
N1205 C1203 1.384 . S
H1206 C1212 0.930 . S
H1207 C1216 0.930 . S
H1208 C1221 0.929 . S
H1209 C1219 0.929 . S
H1210 C1214 0.929 . S
H1211 C1220 0.929 . S
C1212 H1206 0.930 . S
C1212 C1213 1.367 . S
C1212 C1220 1.378 . S
C1213 C1212 1.367 . S
C1213 C1221 1.433 . S
C1214 H1210 0.929 . S
C1214 C1216 1.378 . S
C1214 C1218 1.350 . S
C1215 C1218 1.463 . S
C1215 C1220 1.350 . S
C1215 N1223 1.427 . S
C1216 H1207 0.930 . S
C1216 C1214 1.378 . S
C1216 C1217 1.367 . S
C1217 C1216 1.367 . S
C1217 C1219 1.433 . S
C1218 C1214 1.350 . S
C1218 C1215 1.463 . S
C1218 N1222 1.427 . S
C1219 H1209 0.929 . S
C1219 C1217 1.433 . S
C1219 N1222 1.384 . S
C1220 H1211 0.929 . S
C1220 C1212 1.378 . S
C1220 C1215 1.350 . S
C1221 H1208 0.929 . S
C1221 C1213 1.433 . S
C1221 N1223 1.384 . S
N1222 C1218 1.427 . S
N1222 C1219 1.384 . S
N1223 C1215 1.427 . S
N1223 C1221 1.384 . S
H1224 C1230 0.930 . S
H1225 C1234 0.930 . S
H1226 C1239 0.929 . S
H1227 C1237 0.929 . S
H1228 C1232 0.927 1_545 S
H1229 C1238 0.927 1_565 S
C1230 H1224 0.930 . S
C1230 C1231 1.367 . S
C1230 C1238 1.379 . S
C1231 C1230 1.367 . S
C1231 C1239 1.433 . S
C1232 H1228 0.927 1_565 S
C1232 C1234 1.378 . S
C1232 C1236 1.350 . S
C1233 C1236 1.463 1_545 S
C1233 C1238 1.350 . S
C1233 N1241 1.427 . S
C1234 H1225 0.930 . S
C1234 C1232 1.378 . S
C1234 C1235 1.367 . S
C1235 C1234 1.367 . S
C1235 C1237 1.433 . S
C1236 C1232 1.350 . S
C1236 C1233 1.463 1_565 S
C1236 N1240 1.427 . S
C1237 H1227 0.929 . S
C1237 C1235 1.433 . S
C1237 N1240 1.384 . S
C1238 H1229 0.927 1_545 S
C1238 C1230 1.379 . S
C1238 C1233 1.350 . S
C1239 H1226 0.929 . S
C1239 C1231 1.433 . S
C1239 N1241 1.384 . S
N1240 C1236 1.427 . S
N1240 C1237 1.384 . S
N1241 C1233 1.427 . S
N1241 C1239 1.384 . S
H1242 C1248 0.930 . S
H1243 C1252 0.930 . S
H1244 C1257 0.929 . S
H1245 C1255 0.929 . S
H1246 C1250 0.891 1_655 S
H1247 C1256 0.891 1_455 S
C1248 H1242 0.930 . S
C1248 C1249 1.367 . S
C1248 C1256 1.411 . S
C1249 C1248 1.367 . S
C1249 C1257 1.433 . S
C1250 H1246 0.891 1_455 S
C1250 C1252 1.411 . S
C1250 C1254 1.357 . S
C1251 C1254 1.463 1_655 S
C1251 C1256 1.357 . S
C1251 N1259 1.427 . S
C1252 H1243 0.930 . S
C1252 C1250 1.411 . S
C1252 C1253 1.367 . S
C1253 C1252 1.367 . S
C1253 C1255 1.433 . S
C1254 C1250 1.357 . S
C1254 C1251 1.463 1_455 S
C1254 N1258 1.427 . S
C1255 H1245 0.929 . S
C1255 C1253 1.433 . S
C1255 N1258 1.384 . S
C1256 H1247 0.891 1_655 S
C1256 C1248 1.411 . S
C1256 C1251 1.357 . S
C1257 H1244 0.929 . S
C1257 C1249 1.433 . S
C1257 N1259 1.384 . S
N1258 C1254 1.427 . S
N1258 C1255 1.384 . S
N1259 C1251 1.427 . S
N1259 C1257 1.384 . S
H1260 C1266 0.930 . S
H1261 C1270 0.930 . S
H1262 C1275 0.929 . S
H1263 C1273 0.929 . S
H1264 C1268 0.929 . S
H1265 C1274 0.929 . S
C1266 H1260 0.930 . S
C1266 C1267 1.367 . S
C1266 C1274 1.378 . S
C1267 C1266 1.367 . S
C1267 C1275 1.433 . S
C1268 H1264 0.929 . S
C1268 C1270 1.378 . S
C1268 C1272 1.350 . S
C1269 C1272 1.463 . S
C1269 C1274 1.350 . S
C1269 N1277 1.427 . S
C1270 H1261 0.930 . S
C1270 C1268 1.378 . S
C1270 C1271 1.367 . S
C1271 C1270 1.367 . S
C1271 C1273 1.433 . S
C1272 C1268 1.350 . S
C1272 C1269 1.463 . S
C1272 N1276 1.427 . S
C1273 H1263 0.929 . S
C1273 C1271 1.433 . S
C1273 N1276 1.384 . S
C1274 H1265 0.929 . S
C1274 C1266 1.378 . S
C1274 C1269 1.350 . S
C1275 H1262 0.929 . S
C1275 C1267 1.433 . S
C1275 N1277 1.384 . S
N1276 C1272 1.427 . S
N1276 C1273 1.384 . S
N1277 C1269 1.427 . S
N1277 C1275 1.384 . S
H1278 C1284 0.930 . S
H1279 C1288 0.930 . S
H1280 C1293 0.929 . S
H1281 C1291 0.929 . S
H1282 C1286 0.929 . S
H1283 C1292 0.929 . S
C1284 H1278 0.930 . S
C1284 C1285 1.367 . S
C1284 C1292 1.378 . S
C1285 C1284 1.367 . S
C1285 C1293 1.433 . S
C1286 H1282 0.929 . S
C1286 C1288 1.378 . S
C1286 C1290 1.350 . S
C1287 C1290 1.463 . S
C1287 C1292 1.350 . S
C1287 N1295 1.427 . S
C1288 H1279 0.930 . S
C1288 C1286 1.378 . S
C1288 C1289 1.367 . S
C1289 C1288 1.367 . S
C1289 C1291 1.433 . S
C1290 C1286 1.350 . S
C1290 C1287 1.463 . S
C1290 N1294 1.427 . S
C1291 H1281 0.929 . S
C1291 C1289 1.433 . S
C1291 N1294 1.384 . S
C1292 H1283 0.929 . S
C1292 C1284 1.378 . S
C1292 C1287 1.350 . S
C1293 H1280 0.929 . S
C1293 C1285 1.433 . S
C1293 N1295 1.384 . S
N1294 C1290 1.427 . S
N1294 C1291 1.384 . S
N1295 C1287 1.427 . S
N1295 C1293 1.384 . S
H1296 C1302 0.930 . S
H1297 C1306 0.930 . S
H1298 C1311 0.929 . S
H1299 C1309 0.929 . S
H1300 C1304 0.929 . S
H1301 C1310 0.929 . S
C1302 H1296 0.930 . S
C1302 C1303 1.367 . S
C1302 C1310 1.378 . S
C1303 C1302 1.367 . S
C1303 C1311 1.433 . S
C1304 H1300 0.929 . S
C1304 C1306 1.378 . S
C1304 C1308 1.350 . S
C1305 C1308 1.463 . S
C1305 C1310 1.350 . S
C1305 N1313 1.427 . S
C1306 H1297 0.930 . S
C1306 C1304 1.378 . S
C1306 C1307 1.367 . S
C1307 C1306 1.367 . S
C1307 C1309 1.433 . S
C1308 C1304 1.350 . S
C1308 C1305 1.463 . S
C1308 N1312 1.427 . S
C1309 H1299 0.929 . S
C1309 C1307 1.433 . S
C1309 N1312 1.384 . S
C1310 H1301 0.929 . S
C1310 C1302 1.378 . S
C1310 C1305 1.350 . S
C1311 H1298 0.929 . S
C1311 C1303 1.433 . S
C1311 N1313 1.384 . S
N1312 C1308 1.427 . S
N1312 C1309 1.384 . S
N1313 C1305 1.427 . S
N1313 C1311 1.384 . S
H1314 C1320 0.930 . S
H1315 C1324 0.930 . S
H1316 C1329 0.929 1_556 S
H1317 C1327 0.929 . S
H1318 C1322 0.929 . S
H1319 C1328 0.929 . S
C1320 H1314 0.930 . S
C1320 C1321 1.367 . S
C1320 C1328 1.378 . S
C1321 C1320 1.367 . S
C1321 C1329 1.433 . S
C1322 H1318 0.929 . S
C1322 C1324 1.378 . S
C1322 C1326 1.350 . S
C1323 C1326 1.463 . S
C1323 C1328 1.350 . S
C1323 N1331 1.427 . S
C1324 H1315 0.930 . S
C1324 C1322 1.378 . S
C1324 C1325 1.367 . S
C1325 C1324 1.367 . S
C1325 C1327 1.433 . S
C1326 C1322 1.350 . S
C1326 C1323 1.463 . S
C1326 N1330 1.427 . S
C1327 H1317 0.929 . S
C1327 C1325 1.433 . S
C1327 N1330 1.384 . S
C1328 H1319 0.929 . S
C1328 C1320 1.378 . S
C1328 C1323 1.350 . S
C1329 H1316 0.929 1_554 S
C1329 C1321 1.433 . S
C1329 N1331 1.384 . S
N1330 C1326 1.427 . S
N1330 C1327 1.384 . S
N1331 C1323 1.427 . S
N1331 C1329 1.384 . S
H1332 C1338 0.914 1_556 S
H1333 C1342 0.930 . S
H1334 C1347 0.929 . S
H1335 C1345 0.929 . S
H1336 C1340 0.929 . S
H1337 C1346 0.929 . S
C1338 H1332 0.914 1_554 S
C1338 C1339 1.367 . S
C1338 C1346 1.378 . S
C1339 C1338 1.367 . S
C1339 C1347 1.433 . S
C1340 H1336 0.929 . S
C1340 C1342 1.378 . S
C1340 C1344 1.350 . S
C1341 C1344 1.463 . S
C1341 C1346 1.350 . S
C1341 N1349 1.427 . S
C1342 H1333 0.930 . S
C1342 C1340 1.378 . S
C1342 C1343 1.367 . S
C1343 C1342 1.367 . S
C1343 C1345 1.433 . S
C1344 C1340 1.350 . S
C1344 C1341 1.463 . S
C1344 N1348 1.427 . S
C1345 H1335 0.929 . S
C1345 C1343 1.433 . S
C1345 N1348 1.384 . S
C1346 H1337 0.929 . S
C1346 C1338 1.378 . S
C1346 C1341 1.350 . S
C1347 H1334 0.929 . S
C1347 C1339 1.433 . S
C1347 N1349 1.384 . S
N1348 C1344 1.427 . S
N1348 C1345 1.384 . S
N1349 C1341 1.427 . S
N1349 C1347 1.384 . S
H1350 C1356 0.930 . S
H1351 C1360 0.930 . S
H1352 C1365 0.929 . S
H1353 C1363 0.929 . S
H1354 C1358 0.929 . S
H1355 C1364 0.929 . S
C1356 H1350 0.930 . S
C1356 C1357 1.367 . S
C1356 C1364 1.378 . S
C1357 C1356 1.367 . S
C1357 C1365 1.433 . S
C1358 H1354 0.929 . S
C1358 C1360 1.378 . S
C1358 C1362 1.350 . S
C1359 C1362 1.463 . S
C1359 C1364 1.350 . S
C1359 N1367 1.427 . S
C1360 H1351 0.930 . S
C1360 C1358 1.378 . S
C1360 C1361 1.367 . S
C1361 C1360 1.367 . S
C1361 C1363 1.433 . S
C1362 C1358 1.350 . S
C1362 C1359 1.463 . S
C1362 N1366 1.427 . S
C1363 H1353 0.929 . S
C1363 C1361 1.433 . S
C1363 N1366 1.384 . S
C1364 H1355 0.929 . S
C1364 C1356 1.378 . S
C1364 C1359 1.350 . S
C1365 H1352 0.929 . S
C1365 C1357 1.433 . S
C1365 N1367 1.384 . S
N1366 C1362 1.427 . S
N1366 C1363 1.384 . S
N1367 C1359 1.427 . S
N1367 C1365 1.384 . S
H1368 C1374 0.930 . S
H1369 C1378 0.930 . S
H1370 C1383 0.929 . S
H1371 C1381 0.929 . S
H1372 C1376 0.929 . S
H1373 C1382 0.929 . S
C1374 H1368 0.930 . S
C1374 C1375 1.367 . S
C1374 C1382 1.378 . S
C1375 C1374 1.367 . S
C1375 C1383 1.433 . S
C1376 H1372 0.929 . S
C1376 C1378 1.378 . S
C1376 C1380 1.350 . S
C1377 C1380 1.463 . S
C1377 C1382 1.350 . S
C1377 N1385 1.427 . S
C1378 H1369 0.930 . S
C1378 C1376 1.378 . S
C1378 C1379 1.367 . S
C1379 C1378 1.367 . S
C1379 C1381 1.433 . S
C1380 C1376 1.350 . S
C1380 C1377 1.463 . S
C1380 N1384 1.427 . S
C1381 H1371 0.929 . S
C1381 C1379 1.433 . S
C1381 N1384 1.384 . S
C1382 H1373 0.929 . S
C1382 C1374 1.378 . S
C1382 C1377 1.350 . S
C1383 H1370 0.929 . S
C1383 C1375 1.433 . S
C1383 N1385 1.384 . S
N1384 C1380 1.427 . S
N1384 C1381 1.384 . S
N1385 C1377 1.427 . S
N1385 C1383 1.384 . S
H1386 C1392 0.930 . S
H1387 C1396 0.930 1_554 S
H1388 C1401 0.929 . S
H1389 C1399 0.929 . S
H1390 C1394 0.929 . S
H1391 C1400 0.929 . S
C1392 H1386 0.930 . S
C1392 C1393 1.367 . S
C1392 C1400 1.378 . S
C1393 C1392 1.367 . S
C1393 C1401 1.433 . S
C1394 H1390 0.929 . S
C1394 C1396 1.378 . S
C1394 C1398 1.350 . S
C1395 C1398 1.463 . S
C1395 C1400 1.350 . S
C1395 N1403 1.427 . S
C1396 H1387 0.930 1_556 S
C1396 C1394 1.378 . S
C1396 C1397 1.367 . S
C1397 C1396 1.367 . S
C1397 C1399 1.433 . S
C1398 C1394 1.350 . S
C1398 C1395 1.463 . S
C1398 N1402 1.427 . S
C1399 H1389 0.929 . S
C1399 C1397 1.433 . S
C1399 N1402 1.384 . S
C1400 H1391 0.929 . S
C1400 C1392 1.378 . S
C1400 C1395 1.350 . S
C1401 H1388 0.929 . S
C1401 C1393 1.433 . S
C1401 N1403 1.384 . S
N1402 C1398 1.427 . S
N1402 C1399 1.384 . S
N1403 C1395 1.427 . S
N1403 C1401 1.384 . S
H1404 C1410 0.930 . S
H1405 C1414 0.930 . S
H1406 C1419 0.929 1_554 S
H1407 C1417 0.929 . S
H1408 C1412 0.929 . S
H1409 C1418 0.929 . S
C1410 H1404 0.930 . S
C1410 C1411 1.367 . S
C1410 C1418 1.378 . S
C1411 C1410 1.367 . S
C1411 C1419 1.433 . S
C1412 H1408 0.929 . S
C1412 C1414 1.378 . S
C1412 C1416 1.350 . S
C1413 C1416 1.463 . S
C1413 C1418 1.350 . S
C1413 N1421 1.427 . S
C1414 H1405 0.930 . S
C1414 C1412 1.378 . S
C1414 C1415 1.367 . S
C1415 C1414 1.367 . S
C1415 C1417 1.433 . S
C1416 C1412 1.350 . S
C1416 C1413 1.463 . S
C1416 N1420 1.427 . S
C1417 H1407 0.929 . S
C1417 C1415 1.433 . S
C1417 N1420 1.384 . S
C1418 H1409 0.929 . S
C1418 C1410 1.378 . S
C1418 C1413 1.350 . S
C1419 H1406 0.929 1_556 S
C1419 C1411 1.433 . S
C1419 N1421 1.384 . S
N1420 C1416 1.427 . S
N1420 C1417 1.384 . S
N1421 C1413 1.427 . S
N1421 C1419 1.384 . S
H1422 C1428 0.930 . S
H1423 C1432 0.930 . S
H1424 C1437 0.929 . S
H1425 C1435 0.929 . S
H1426 C1430 0.929 . S
H1427 C1436 0.929 . S
C1428 H1422 0.930 . S
C1428 C1429 1.367 . S
C1428 C1436 1.378 . S
C1429 C1428 1.367 . S
C1429 C1437 1.433 . S
C1430 H1426 0.929 . S
C1430 C1432 1.378 . S
C1430 C1434 1.350 . S
C1431 C1434 1.463 . S
C1431 C1436 1.350 . S
C1431 N1439 1.427 . S
C1432 H1423 0.930 . S
C1432 C1430 1.378 . S
C1432 C1433 1.367 . S
C1433 C1432 1.367 . S
C1433 C1435 1.433 . S
C1434 C1430 1.350 . S
C1434 C1431 1.463 . S
C1434 N1438 1.427 . S
C1435 H1425 0.929 . S
C1435 C1433 1.433 . S
C1435 N1438 1.384 . S
C1436 H1427 0.929 . S
C1436 C1428 1.378 . S
C1436 C1431 1.350 . S
C1437 H1424 0.929 . S
C1437 C1429 1.433 . S
C1437 N1439 1.384 . S
N1438 C1434 1.427 . S
N1438 C1435 1.384 . S
N1439 C1431 1.427 . S
N1439 C1437 1.384 . S
H1440 C1446 0.930 . S
H1441 C1450 0.930 . S
H1442 C1455 0.929 . S
H1443 C1453 0.929 . S
H1444 C1448 0.929 . S
H1445 C1454 0.929 . S
C1446 H1440 0.930 . S
C1446 C1447 1.367 . S
C1446 C1454 1.378 . S
C1447 C1446 1.367 . S
C1447 C1455 1.433 . S
C1448 H1444 0.929 . S
C1448 C1450 1.378 . S
C1448 C1452 1.350 . S
C1449 C1452 1.463 . S
C1449 C1454 1.350 . S
C1449 N1457 1.427 . S
C1450 H1441 0.930 . S
C1450 C1448 1.378 . S
C1450 C1451 1.367 . S
C1451 C1450 1.367 . S
C1451 C1453 1.433 . S
C1452 C1448 1.350 . S
C1452 C1449 1.463 . S
C1452 N1456 1.427 . S
C1453 H1443 0.929 . S
C1453 C1451 1.433 . S
C1453 N1456 1.384 . S
C1454 H1445 0.929 . S
C1454 C1446 1.378 . S
C1454 C1449 1.350 . S
C1455 H1442 0.929 . S
C1455 C1447 1.433 . S
C1455 N1457 1.384 . S
N1456 C1452 1.427 . S
N1456 C1453 1.384 . S
N1457 C1449 1.427 . S
N1457 C1455 1.384 . S
H1458 C1464 0.930 . S
H1459 C1468 0.930 . S
H1460 C1473 0.929 . S
H1461 C1471 0.929 . S
H1462 C1466 0.929 . S
H1463 C1472 0.929 . S
C1464 H1458 0.930 . S
C1464 C1465 1.367 . S
C1464 C1472 1.378 . S
C1465 C1464 1.367 . S
C1465 C1473 1.433 . S
C1466 H1462 0.929 . S
C1466 C1468 1.378 . S
C1466 C1470 1.350 . S
C1467 C1470 1.463 . S
C1467 C1472 1.350 . S
C1467 N1475 1.427 . S
C1468 H1459 0.930 . S
C1468 C1466 1.378 . S
C1468 C1469 1.367 . S
C1469 C1468 1.367 . S
C1469 C1471 1.433 . S
C1470 C1466 1.350 . S
C1470 C1467 1.463 . S
C1470 N1474 1.427 . S
C1471 H1461 0.929 . S
C1471 C1469 1.433 . S
C1471 N1474 1.384 . S
C1472 H1463 0.929 . S
C1472 C1464 1.378 . S
C1472 C1467 1.350 . S
C1473 H1460 0.929 . S
C1473 C1465 1.433 . S
C1473 N1475 1.384 . S
N1474 C1470 1.427 . S
N1474 C1471 1.384 . S
N1475 C1467 1.427 . S
N1475 C1473 1.384 . S
H1476 C1482 0.930 . S
H1477 C1486 0.930 . S
H1478 C1491 0.929 . S
H1479 C1489 0.929 . S
H1480 C1484 0.929 . S
H1481 C1490 0.929 . S
C1482 H1476 0.930 . S
C1482 C1483 1.367 . S
C1482 C1490 1.378 . S
C1483 C1482 1.367 . S
C1483 C1491 1.433 . S
C1484 H1480 0.929 . S
C1484 C1486 1.378 . S
C1484 C1488 1.350 . S
C1485 C1488 1.463 . S
C1485 C1490 1.350 . S
C1485 N1493 1.427 . S
C1486 H1477 0.930 . S
C1486 C1484 1.378 . S
C1486 C1487 1.367 . S
C1487 C1486 1.367 . S
C1487 C1489 1.433 . S
C1488 C1484 1.350 . S
C1488 C1485 1.463 . S
C1488 N1492 1.427 . S
C1489 H1479 0.929 . S
C1489 C1487 1.433 . S
C1489 N1492 1.384 . S
C1490 H1481 0.929 . S
C1490 C1482 1.378 . S
C1490 C1485 1.350 . S
C1491 H1478 0.929 . S
C1491 C1483 1.433 . S
C1491 N1493 1.384 . S
N1492 C1488 1.427 . S
N1492 C1489 1.384 . S
N1493 C1485 1.427 . S
N1493 C1491 1.384 . S
H1494 C1500 0.930 . S
H1495 C1504 0.930 . S
H1496 C1509 0.929 . S
H1497 C1507 0.929 . S
H1498 C1502 0.929 . S
H1499 C1508 0.929 . S
C1500 H1494 0.930 . S
C1500 C1501 1.367 . S
C1500 C1508 1.378 . S
C1501 C1500 1.367 . S
C1501 C1509 1.433 . S
C1502 H1498 0.929 . S
C1502 C1504 1.378 . S
C1502 C1506 1.350 . S
C1503 C1506 1.463 . S
C1503 C1508 1.350 . S
C1503 N1511 1.427 . S
C1504 H1495 0.930 . S
C1504 C1502 1.378 . S
C1504 C1505 1.367 . S
C1505 C1504 1.367 . S
C1505 C1507 1.433 . S
C1506 C1502 1.350 . S
C1506 C1503 1.463 . S
C1506 N1510 1.427 . S
C1507 H1497 0.929 . S
C1507 C1505 1.433 . S
C1507 N1510 1.384 . S
C1508 H1499 0.929 . S
C1508 C1500 1.378 . S
C1508 C1503 1.350 . S
C1509 H1496 0.929 . S
C1509 C1501 1.433 . S
C1509 N1511 1.384 . S
N1510 C1506 1.427 . S
N1510 C1507 1.384 . S
N1511 C1503 1.427 . S
N1511 C1509 1.384 . S
H1512 C1518 0.930 . S
H1513 C1522 0.930 . S
H1514 C1527 0.929 . S
H1515 C1525 0.929 . S
H1516 C1520 0.929 . S
H1517 C1526 0.929 . S
C1518 H1512 0.930 . S
C1518 C1519 1.367 . S
C1518 C1526 1.378 . S
C1519 C1518 1.367 . S
C1519 C1527 1.433 . S
C1520 H1516 0.929 . S
C1520 C1522 1.378 . S
C1520 C1524 1.350 . S
C1521 C1524 1.463 . S
C1521 C1526 1.350 . S
C1521 N1529 1.427 . S
C1522 H1513 0.930 . S
C1522 C1520 1.378 . S
C1522 C1523 1.367 . S
C1523 C1522 1.367 . S
C1523 C1525 1.433 . S
C1524 C1520 1.350 . S
C1524 C1521 1.463 . S
C1524 N1528 1.427 . S
C1525 H1515 0.929 . S
C1525 C1523 1.433 . S
C1525 N1528 1.384 . S
C1526 H1517 0.929 . S
C1526 C1518 1.378 . S
C1526 C1521 1.350 . S
C1527 H1514 0.929 . S
C1527 C1519 1.433 . S
C1527 N1529 1.384 . S
N1528 C1524 1.427 . S
N1528 C1525 1.384 . S
N1529 C1521 1.427 . S
N1529 C1527 1.384 . S
H1530 C1536 0.930 . S
H1531 C1540 0.930 . S
H1532 C1545 0.929 . S
H1533 C1543 0.929 . S
H1534 C1538 0.929 . S
H1535 C1544 0.929 . S
C1536 H1530 0.930 . S
C1536 C1537 1.367 . S
C1536 C1544 1.378 . S
C1537 C1536 1.367 . S
C1537 C1545 1.433 . S
C1538 H1534 0.929 . S
C1538 C1540 1.378 . S
C1538 C1542 1.350 . S
C1539 C1542 1.463 . S
C1539 C1544 1.350 . S
C1539 N1547 1.427 . S
C1540 H1531 0.930 . S
C1540 C1538 1.378 . S
C1540 C1541 1.367 . S
C1541 C1540 1.367 . S
C1541 C1543 1.433 . S
C1542 C1538 1.350 . S
C1542 C1539 1.463 . S
C1542 N1546 1.427 . S
C1543 H1533 0.929 . S
C1543 C1541 1.433 . S
C1543 N1546 1.384 . S
C1544 H1535 0.929 . S
C1544 C1536 1.378 . S
C1544 C1539 1.350 . S
C1545 H1532 0.929 . S
C1545 C1537 1.433 . S
C1545 N1547 1.384 . S
N1546 C1542 1.427 . S
N1546 C1543 1.384 . S
N1547 C1539 1.427 . S
N1547 C1545 1.384 . S
H1548 C1554 0.930 . S
H1549 C1558 0.930 . S
H1550 C1563 0.929 . S
H1551 C1561 0.929 . S
H1552 C1556 0.929 . S
H1553 C1562 0.929 . S
C1554 H1548 0.930 . S
C1554 C1555 1.367 . S
C1554 C1562 1.378 . S
C1555 C1554 1.367 . S
C1555 C1563 1.433 . S
C1556 H1552 0.929 . S
C1556 C1558 1.378 . S
C1556 C1560 1.350 . S
C1557 C1560 1.463 . S
C1557 C1562 1.350 . S
C1557 N1565 1.427 . S
C1558 H1549 0.930 . S
C1558 C1556 1.378 . S
C1558 C1559 1.367 . S
C1559 C1558 1.367 . S
C1559 C1561 1.433 . S
C1560 C1556 1.350 . S
C1560 C1557 1.463 . S
C1560 N1564 1.427 . S
C1561 H1551 0.929 . S
C1561 C1559 1.433 . S
C1561 N1564 1.384 . S
C1562 H1553 0.929 . S
C1562 C1554 1.378 . S
C1562 C1557 1.350 . S
C1563 H1550 0.929 . S
C1563 C1555 1.433 . S
C1563 N1565 1.384 . S
N1564 C1560 1.427 . S
N1564 C1561 1.384 . S
N1565 C1557 1.427 . S
N1565 C1563 1.384 . S
H1566 C1572 0.930 . S
H1567 C1576 0.930 . S
H1568 C1581 0.929 . S
H1569 C1579 0.929 . S
H1570 C1574 0.929 . S
H1571 C1580 0.929 . S
C1572 H1566 0.930 . S
C1572 C1573 1.367 . S
C1572 C1580 1.378 . S
C1573 C1572 1.367 . S
C1573 C1581 1.433 . S
C1574 H1570 0.929 . S
C1574 C1576 1.378 . S
C1574 C1578 1.350 . S
C1575 C1578 1.463 . S
C1575 C1580 1.350 . S
C1575 N1583 1.427 . S
C1576 H1567 0.930 . S
C1576 C1574 1.378 . S
C1576 C1577 1.367 . S
C1577 C1576 1.367 . S
C1577 C1579 1.433 . S
C1578 C1574 1.350 . S
C1578 C1575 1.463 . S
C1578 N1582 1.427 . S
C1579 H1569 0.929 . S
C1579 C1577 1.433 . S
C1579 N1582 1.384 . S
C1580 H1571 0.929 . S
C1580 C1572 1.378 . S
C1580 C1575 1.350 . S
C1581 H1568 0.929 . S
C1581 C1573 1.433 . S
C1581 N1583 1.384 . S
N1582 C1578 1.427 . S
N1582 C1579 1.384 . S
N1583 C1575 1.427 . S
N1583 C1581 1.384 . S
H1584 C1590 0.930 . S
H1585 C1594 0.930 . S
H1586 C1599 0.929 . S
H1587 C1597 0.929 . S
H1588 C1592 0.929 . S
H1589 C1598 0.929 . S
C1590 H1584 0.930 . S
C1590 C1591 1.367 . S
C1590 C1598 1.378 . S
C1591 C1590 1.367 . S
C1591 C1599 1.433 . S
C1592 H1588 0.929 . S
C1592 C1594 1.378 . S
C1592 C1596 1.350 . S
C1593 C1596 1.463 . S
C1593 C1598 1.350 . S
C1593 N1601 1.427 . S
C1594 H1585 0.930 . S
C1594 C1592 1.378 . S
C1594 C1595 1.367 . S
C1595 C1594 1.367 . S
C1595 C1597 1.433 . S
C1596 C1592 1.350 . S
C1596 C1593 1.463 . S
C1596 N1600 1.427 . S
C1597 H1587 0.929 . S
C1597 C1595 1.433 . S
C1597 N1600 1.384 . S
C1598 H1589 0.929 . S
C1598 C1590 1.378 . S
C1598 C1593 1.350 . S
C1599 H1586 0.929 . S
C1599 C1591 1.433 . S
C1599 N1601 1.384 . S
N1600 C1596 1.427 . S
N1600 C1597 1.384 . S
N1601 C1593 1.427 . S
N1601 C1599 1.384 . S
H1602 C1608 0.930 . S
H1603 C1612 0.930 . S
H1604 C1617 0.929 . S
H1605 C1615 0.929 . S
H1606 C1610 0.929 . S
H1607 C1616 0.929 . S
C1608 H1602 0.930 . S
C1608 C1609 1.367 . S
C1608 C1616 1.378 . S
C1609 C1608 1.367 . S
C1609 C1617 1.433 . S
C1610 H1606 0.929 . S
C1610 C1612 1.378 . S
C1610 C1614 1.350 . S
C1611 C1614 1.463 . S
C1611 C1616 1.350 . S
C1611 N1619 1.427 . S
C1612 H1603 0.930 . S
C1612 C1610 1.378 . S
C1612 C1613 1.367 . S
C1613 C1612 1.367 . S
C1613 C1615 1.433 . S
C1614 C1610 1.350 . S
C1614 C1611 1.463 . S
C1614 N1618 1.427 . S
C1615 H1605 0.929 . S
C1615 C1613 1.433 . S
C1615 N1618 1.384 . S
C1616 H1607 0.929 . S
C1616 C1608 1.378 . S
C1616 C1611 1.350 . S
C1617 H1604 0.929 . S
C1617 C1609 1.433 . S
C1617 N1619 1.384 . S
N1618 C1614 1.427 . S
N1618 C1615 1.384 . S
N1619 C1611 1.427 . S
N1619 C1617 1.384 . S
H1620 C1626 0.930 . S
H1621 C1630 0.930 . S
H1622 C1635 0.929 . S
H1623 C1633 0.929 . S
H1624 C1628 0.929 . S
H1625 C1634 0.929 . S
C1626 H1620 0.930 . S
C1626 C1627 1.367 . S
C1626 C1634 1.378 . S
C1627 C1626 1.367 . S
C1627 C1635 1.433 . S
C1628 H1624 0.929 . S
C1628 C1630 1.378 . S
C1628 C1632 1.350 . S
C1629 C1632 1.463 . S
C1629 C1634 1.350 . S
C1629 N1637 1.427 . S
C1630 H1621 0.930 . S
C1630 C1628 1.378 . S
C1630 C1631 1.367 . S
C1631 C1630 1.367 . S
C1631 C1633 1.433 . S
C1632 C1628 1.350 . S
C1632 C1629 1.463 . S
C1632 N1636 1.427 . S
C1633 H1623 0.929 . S
C1633 C1631 1.433 . S
C1633 N1636 1.384 . S
C1634 H1625 0.929 . S
C1634 C1626 1.378 . S
C1634 C1629 1.350 . S
C1635 H1622 0.929 . S
C1635 C1627 1.433 . S
C1635 N1637 1.384 . S
N1636 C1632 1.427 . S
N1636 C1633 1.384 . S
N1637 C1629 1.427 . S
N1637 C1635 1.384 . S
H1638 C1644 0.930 . S
H1639 C1648 0.930 . S
H1640 C1653 0.929 . S
H1641 C1651 0.929 . S
H1642 C1646 0.929 . S
H1643 C1652 0.929 . S
C1644 H1638 0.930 . S
C1644 C1645 1.367 . S
C1644 C1652 1.378 . S
C1645 C1644 1.367 . S
C1645 C1653 1.433 . S
C1646 H1642 0.929 . S
C1646 C1648 1.378 . S
C1646 C1650 1.350 . S
C1647 C1650 1.463 . S
C1647 C1652 1.350 . S
C1647 N1655 1.427 . S
C1648 H1639 0.930 . S
C1648 C1646 1.378 . S
C1648 C1649 1.367 . S
C1649 C1648 1.367 . S
C1649 C1651 1.433 . S
C1650 C1646 1.350 . S
C1650 C1647 1.463 . S
C1650 N1654 1.427 . S
C1651 H1641 0.929 . S
C1651 C1649 1.433 . S
C1651 N1654 1.384 . S
C1652 H1643 0.929 . S
C1652 C1644 1.378 . S
C1652 C1647 1.350 . S
C1653 H1640 0.929 . S
C1653 C1645 1.433 . S
C1653 N1655 1.384 . S
N1654 C1650 1.427 . S
N1654 C1651 1.384 . S
N1655 C1647 1.427 . S
N1655 C1653 1.384 . S
H1656 C1662 0.930 . S
H1657 C1666 0.930 . S
H1658 C1671 0.929 . S
H1659 C1669 0.929 . S
H1660 C1664 0.929 . S
H1661 C1670 0.929 . S
C1662 H1656 0.930 . S
C1662 C1663 1.367 . S
C1662 C1670 1.378 . S
C1663 C1662 1.367 . S
C1663 C1671 1.433 . S
C1664 H1660 0.929 . S
C1664 C1666 1.378 . S
C1664 C1668 1.350 . S
C1665 C1668 1.463 . S
C1665 C1670 1.350 . S
C1665 N1673 1.427 . S
C1666 H1657 0.930 . S
C1666 C1664 1.378 . S
C1666 C1667 1.367 . S
C1667 C1666 1.367 . S
C1667 C1669 1.433 . S
C1668 C1664 1.350 . S
C1668 C1665 1.463 . S
C1668 N1672 1.427 . S
C1669 H1659 0.929 . S
C1669 C1667 1.433 . S
C1669 N1672 1.384 . S
C1670 H1661 0.929 . S
C1670 C1662 1.378 . S
C1670 C1665 1.350 . S
C1671 H1658 0.929 . S
C1671 C1663 1.433 . S
C1671 N1673 1.384 . S
N1672 C1668 1.427 . S
N1672 C1669 1.384 . S
N1673 C1665 1.427 . S
N1673 C1671 1.384 . S
H1674 C1680 0.930 . S
H1675 C1684 0.930 . S
H1676 C1689 0.929 . S
H1677 C1687 0.929 . S
H1678 C1682 0.929 . S
H1679 C1688 0.929 . S
C1680 H1674 0.930 . S
C1680 C1681 1.367 . S
C1680 C1688 1.378 . S
C1681 C1680 1.367 . S
C1681 C1689 1.433 . S
C1682 H1678 0.929 . S
C1682 C1684 1.378 . S
C1682 C1686 1.350 . S
C1683 C1686 1.463 . S
C1683 C1688 1.350 . S
C1683 N1691 1.427 . S
C1684 H1675 0.930 . S
C1684 C1682 1.378 . S
C1684 C1685 1.367 . S
C1685 C1684 1.367 . S
C1685 C1687 1.433 . S
C1686 C1682 1.350 . S
C1686 C1683 1.463 . S
C1686 N1690 1.427 . S
C1687 H1677 0.929 . S
C1687 C1685 1.433 . S
C1687 N1690 1.384 . S
C1688 H1679 0.929 . S
C1688 C1680 1.378 . S
C1688 C1683 1.350 . S
C1689 H1676 0.929 . S
C1689 C1681 1.433 . S
C1689 N1691 1.384 . S
N1690 C1686 1.427 . S
N1690 C1687 1.384 . S
N1691 C1683 1.427 . S
N1691 C1689 1.384 . S
H1692 C1698 0.930 . S
H1693 C1702 0.930 . S
H1694 C1707 0.929 . S
H1695 C1705 0.929 . S
H1696 C1700 0.929 . S
H1697 C1706 0.929 . S
C1698 H1692 0.930 . S
C1698 C1699 1.367 . S
C1698 C1706 1.378 . S
C1699 C1698 1.367 . S
C1699 C1707 1.433 . S
C1700 H1696 0.929 . S
C1700 C1702 1.378 . S
C1700 C1704 1.350 . S
C1701 C1704 1.463 1_455 S
C1701 C1706 1.350 . S
C1701 N1709 1.427 . S
C1702 H1693 0.930 . S
C1702 C1700 1.378 . S
C1702 C1703 1.367 . S
C1703 C1702 1.367 . S
C1703 C1705 1.433 . S
C1704 C1700 1.350 . S
C1704 C1701 1.463 1_655 S
C1704 N1708 1.427 . S
C1705 H1695 0.929 . S
C1705 C1703 1.433 . S
C1705 N1708 1.384 . S
C1706 H1697 0.929 . S
C1706 C1698 1.378 . S
C1706 C1701 1.350 . S
C1707 H1694 0.929 . S
C1707 C1699 1.433 . S
C1707 N1709 1.384 . S
N1708 C1704 1.427 . S
N1708 C1705 1.384 . S
N1709 C1701 1.427 . S
N1709 C1707 1.384 . S
H1710 C1716 0.930 . S
H1711 C1720 0.930 . S
H1712 C1725 0.929 . S
H1713 C1723 0.929 . S
H1714 C1718 0.929 . S
H1715 C1724 0.929 . S
C1716 H1710 0.930 . S
C1716 C1717 1.367 . S
C1716 C1724 1.378 . S
C1717 C1716 1.367 . S
C1717 C1725 1.433 . S
C1718 H1714 0.929 . S
C1718 C1720 1.378 . S
C1718 C1722 1.350 . S
C1719 C1722 1.463 . S
C1719 C1724 1.350 . S
C1719 N1727 1.427 . S
C1720 H1711 0.930 . S
C1720 C1718 1.378 . S
C1720 C1721 1.367 . S
C1721 C1720 1.367 . S
C1721 C1723 1.433 . S
C1722 C1718 1.350 . S
C1722 C1719 1.463 . S
C1722 N1726 1.427 . S
C1723 H1713 0.929 . S
C1723 C1721 1.433 . S
C1723 N1726 1.384 . S
C1724 H1715 0.929 . S
C1724 C1716 1.378 . S
C1724 C1719 1.350 . S
C1725 H1712 0.929 . S
C1725 C1717 1.433 . S
C1725 N1727 1.384 . S
N1726 C1722 1.427 . S
N1726 C1723 1.384 . S
N1727 C1719 1.427 . S
N1727 C1725 1.384 . S
H1728 C1734 0.930 . S
H1729 C1738 0.930 . S
H1730 C1743 0.929 . S
H1731 C1741 0.929 . S
H1732 C1736 0.929 . S
H1733 C1742 0.929 . S
C1734 H1728 0.930 . S
C1734 C1735 1.367 . S
C1734 C1742 1.378 . S
C1735 C1734 1.367 . S
C1735 C1743 1.433 . S
C1736 H1732 0.929 . S
C1736 C1738 1.378 . S
C1736 C1740 1.350 . S
C1737 C1740 1.463 1_545 S
C1737 C1742 1.350 . S
C1737 N1745 1.427 . S
C1738 H1729 0.930 . S
C1738 C1736 1.378 . S
C1738 C1739 1.367 . S
C1739 C1738 1.367 . S
C1739 C1741 1.433 . S
C1740 C1736 1.350 . S
C1740 C1737 1.463 1_565 S
C1740 N1744 1.427 . S
C1741 H1731 0.929 . S
C1741 C1739 1.433 . S
C1741 N1744 1.384 . S
C1742 H1733 0.929 . S
C1742 C1734 1.378 . S
C1742 C1737 1.350 . S
C1743 H1730 0.929 . S
C1743 C1735 1.433 . S
C1743 N1745 1.384 . S
N1744 C1740 1.427 . S
N1744 C1741 1.384 . S
N1745 C1737 1.427 . S
N1745 C1743 1.384 . S
H1746 C1752 0.930 . S
H1747 C1756 0.930 . S
H1748 C1761 0.929 . S
H1749 C1759 0.929 . S
H1750 C1754 0.929 . S
H1751 C1760 0.929 . S
C1752 H1746 0.930 . S
C1752 C1753 1.367 1_554 S
C1752 C1760 1.378 . S
C1753 C1752 1.367 1_556 S
C1753 C1761 1.433 . S
C1754 H1750 0.929 . S
C1754 C1756 1.378 . S
C1754 C1758 1.350 1_556 S
C1755 C1758 1.463 1_546 S
C1755 C1760 1.350 1_556 S
C1755 N1763 1.427 . S
C1756 H1747 0.930 . S
C1756 C1754 1.378 . S
C1756 C1757 1.367 1_556 S
C1757 C1756 1.367 1_554 S
C1757 C1759 1.433 . S
C1758 C1754 1.350 1_554 S
C1758 C1755 1.463 1_564 S
C1758 N1762 1.427 . S
C1759 H1749 0.929 . S
C1759 C1757 1.433 . S
C1759 N1762 1.384 . S
C1760 H1751 0.929 . S
C1760 C1752 1.378 . S
C1760 C1755 1.350 1_554 S
C1761 H1748 0.929 . S
C1761 C1753 1.433 . S
C1761 N1763 1.384 . S
N1762 C1758 1.427 . S
N1762 C1759 1.384 . S
N1763 C1755 1.427 . S
N1763 C1761 1.384 . S
H1764 C1770 0.930 . S
H1765 C1774 0.930 . S
H1766 C1779 0.929 . S
H1767 C1777 0.929 . S
H1768 C1772 0.929 1_556 S
H1769 C1778 0.929 1_554 S
C1770 H1764 0.930 . S
C1770 C1771 1.367 . S
C1770 C1778 1.378 . S
C1771 C1770 1.367 . S
C1771 C1779 1.433 . S
C1772 H1768 0.929 1_554 S
C1772 C1774 1.378 . S
C1772 C1776 1.350 . S
C1773 C1776 1.463 1_656 S
C1773 C1778 1.350 . S
C1773 N1781 1.427 . S
C1774 H1765 0.930 . S
C1774 C1772 1.378 . S
C1774 C1775 1.367 . S
C1775 C1774 1.367 . S
C1775 C1777 1.433 . S
C1776 C1772 1.350 . S
C1776 C1773 1.463 1_454 S
C1776 N1780 1.427 . S
C1777 H1767 0.929 . S
C1777 C1775 1.433 . S
C1777 N1780 1.384 . S
C1778 H1769 0.929 1_556 S
C1778 C1770 1.378 . S
C1778 C1773 1.350 . S
C1779 H1766 0.929 . S
C1779 C1771 1.433 . S
C1779 N1781 1.384 . S
N1780 C1776 1.427 . S
N1780 C1777 1.384 . S
N1781 C1773 1.427 . S
N1781 C1779 1.384 . S
H1782 C1788 0.930 . S
H1783 C1792 0.930 . S
H1784 C1797 0.929 . S
H1785 C1795 0.929 . S
H1786 C1790 0.929 . S
H1787 C1796 0.929 . S
C1788 H1782 0.930 . S
C1788 C1789 1.367 1_554 S
C1788 C1796 1.378 . S
C1789 C1788 1.367 1_556 S
C1789 C1797 1.433 . S
C1790 H1786 0.929 . S
C1790 C1792 1.378 . S
C1790 C1794 1.350 1_556 S
C1791 C1794 1.463 1_556 S
C1791 C1796 1.350 1_556 S
C1791 N1799 1.427 . S
C1792 H1783 0.930 . S
C1792 C1790 1.378 . S
C1792 C1793 1.367 1_556 S
C1793 C1792 1.367 1_554 S
C1793 C1795 1.433 . S
C1794 C1790 1.350 1_554 S
C1794 C1791 1.463 1_554 S
C1794 N1798 1.427 . S
C1795 H1785 0.929 . S
C1795 C1793 1.433 . S
C1795 N1798 1.384 . S
C1796 H1787 0.929 . S
C1796 C1788 1.378 . S
C1796 C1791 1.350 1_554 S
C1797 H1784 0.929 . S
C1797 C1789 1.433 . S
C1797 N1799 1.384 . S
N1798 C1794 1.427 . S
N1798 C1795 1.384 . S
N1799 C1791 1.427 . S
N1799 C1797 1.384 . S
C511 C7 1.307 . S
C515 C107 1.304 . S
C529 C21 1.312 . S
C533 C121 1.296 . S
C547 C93 1.300 . S
C551 C35 1.310 . S
C565 C163 1.301 . S
C569 C49 1.311 . S
C583 C63 1.311 . S
C587 C135 1.301 . S
C601 C77 1.315 . S
C605 C149 1.295 . S
C619 C23 1.295 . S
C623 C91 1.315 . S
C637 C37 1.301 . S
C641 C105 1.311 . S
C655 C119 1.309 . S
C659 C9 1.304 . S
C673 C133 1.311 . S
C677 C79 1.298 . S
C691 C51 1.306 . S
C695 C147 1.307 . S
C709 C161 1.310 . S
C713 C65 1.298 . S
C727 C275 1.295 . S
C731 C175 1.313 . S
C745 C189 1.316 . S
C749 C289 1.293 . S
C763 C203 1.311 . S
C767 C261 1.299 . S
C781 C331 1.302 . S
C785 C217 1.310 . S
C799 C231 1.314 . S
C803 C303 1.298 . S
C817 C317 1.303 . S
C821 C245 1.307 . S
C835 C191 1.306 . S
C839 C259 1.306 . S
C853 C273 1.306 . S
C857 C205 1.306 . S
C871 C177 1.294 . S
C875 C287 1.316 . S
C889 C301 1.306 . S
C893 C247 1.306 . S
C907 C315 1.306 . S
C911 C219 1.306 . S
C925 C329 1.312 . S
C929 C233 1.300 . S
C943 C443 1.296 . S
C947 C343 1.313 . S
C961 C457 1.306 . S
C965 C357 1.306 . S
C979 C429 1.300 . S
C983 C371 1.312 . S
C997 C385 1.306 . S
C1001 C499 1.306 . S
C1015 C399 1.306 . S
C1019 C471 1.306 . S
C1033 C485 1.303 . S
C1037 C413 1.309 . S
C1051 C427 1.310 . S
C1055 C359 1.300 . S
C1069 C373 1.302 . S
C1073 C441 1.310 . S
C1087 C345 1.294 . S
C1091 C455 1.316 . S
C1105 C469 1.306 . S
C1109 C415 1.306 . S
C1123 C483 1.316 . S
C1127 C387 1.293 . S
C1141 C497 1.315 . S
C1145 C401 1.295 . S
C1159 C50 1.759 . S
C1163 C8 1.750 . S
C1177 C64 1.752 . S
C1181 C22 1.758 . S
C1195 C36 1.758 . S
C1199 C78 1.750 . S
C1213 C134 1.758 . S
C1217 C92 1.753 . S
C1231 C148 1.753 . S
C1235 C106 1.753 . S
C1249 C162 1.752 . S
C1253 C120 1.754 . S
C1267 C218 1.750 . S
C1271 C176 1.758 . S
C1285 C232 1.752 . S
C1289 C190 1.758 . S
C1303 C204 1.750 . S
C1307 C246 1.758 . S
C1321 C302 1.757 1_554 S
C1325 C260 1.754 . S
C1339 C316 1.751 1_554 S
C1343 C274 1.756 . S
C1357 C330 1.750 1_554 S
C1361 C288 1.757 . S
C1375 C386 1.757 1_556 S
C1379 C344 1.750 . S
C1393 C358 1.756 . S
C1397 C400 1.751 1_556 S
C1411 C414 1.757 1_556 S
C1415 C372 1.753 . S
C1429 C428 1.758 . S
C1433 C470 1.750 . S
C1447 C442 1.751 . S
C1451 C484 1.756 . S
C1465 C456 1.758 . S
C1469 C498 1.750 . S
C1483 C6 1.474 . S
C1487 C258 1.474 . S
C1501 C272 1.477 . S
C1505 C20 1.477 . S
C1519 C286 1.470 . S
C1523 C34 1.470 . S
C1537 C468 1.472 . S
C1541 C48 1.472 . S
C1555 C482 1.473 . S
C1559 C62 1.473 . S
C1573 C496 1.478 . S
C1577 C76 1.478 . S
C1591 C90 1.471 . S
C1595 C342 1.471 . S
C1609 C356 1.470 . S
C1613 C104 1.470 . S
C1627 C370 1.476 . S
C1631 C118 1.476 . S
C1645 C132 1.475 . S
C1649 C216 1.475 . S
C1663 C146 1.474 . S
C1667 C230 1.474 . S
C1681 C160 1.474 . S
C1685 C244 1.474 . S
C1699 C426 1.477 . S
C1703 C174 1.477 . S
C1717 C440 1.475 . S
C1721 C188 1.475 . S
C1735 C202 1.472 . S
C1739 C454 1.472 . S
C1753 C300 1.473 . S
C1757 C384 1.473 . S
C1771 C314 1.478 . S
C1775 C398 1.478 . S
C1789 C328 1.477 . S
C1793 C412 1.477 . S
