# Generated by pormake.
# Topology qtz-e, (6)-cn, num edge types: 1
# Building blocks:
#     Node 0, Type 0, BuildingBlock: GEDQOX_clean_sbu_0, # of connection points: 6
#     Node 1, Type 0, BuildingBlock: GEDQOX_clean_sbu_0, # of connection points: 6
#     Node 2, Type 0, BuildingBlock: GEDQOX_clean_sbu_0, # of connection points: 6
#     Node 3, Type 0, BuildingBlock: GEDQOX_clean_sbu_0, # of connection points: 6
#     Node 4, Type 0, BuildingBlock: GEDQOX_clean_sbu_0, # of connection points: 6
#     Node 5, Type 0, BuildingBlock: GEDQOX_clean_sbu_0, # of connection points: 6
#     Edge 6, Type (0, 0), BuildingBlock: ZUJKAS_clean_linker_0, # of connection points: 2
#     Edge 7, Type (0, 0), BuildingBlock: ZUJKAS_clean_linker_0, # of connection points: 2
#     Edge 8, Type (0, 0), BuildingBlock: ZUJKAS_clean_linker_0, # of connection points: 2
#     Edge 9, Type (0, 0), BuildingBlock: ZUJKAS_clean_linker_0, # of connection points: 2
#     Edge 10, Type (0, 0), BuildingBlock: ZUJKAS_clean_linker_0, # of connection points: 2
#     Edge 11, Type (0, 0), BuildingBlock: ZUJKAS_clean_linker_0, # of connection points: 2
#     Edge 12, Type (0, 0), BuildingBlock: ZUJKAS_clean_linker_0, # of connection points: 2
#     Edge 13, Type (0, 0), BuildingBlock: ZUJKAS_clean_linker_0, # of connection points: 2
#     Edge 14, Type (0, 0), BuildingBlock: ZUJKAS_clean_linker_0, # of connection points: 2
#     Edge 15, Type (0, 0), BuildingBlock: ZUJKAS_clean_linker_0, # of connection points: 2
#     Edge 16, Type (0, 0), BuildingBlock: ZUJKAS_clean_linker_0, # of connection points: 2
#     Edge 17, Type (0, 0), BuildingBlock: ZUJKAS_clean_linker_0, # of connection points: 2
#     Edge 18, Type (0, 0), BuildingBlock: ZUJKAS_clean_linker_0, # of connection points: 2
#     Edge 19, Type (0, 0), BuildingBlock: ZUJKAS_clean_linker_0, # of connection points: 2
#     Edge 20, Type (0, 0), BuildingBlock: ZUJKAS_clean_linker_0, # of connection points: 2
#     Edge 21, Type (0, 0), BuildingBlock: ZUJKAS_clean_linker_0, # of connection points: 2
#     Edge 22, Type (0, 0), BuildingBlock: ZUJKAS_clean_linker_0, # of connection points: 2
#     Edge 23, Type (0, 0), BuildingBlock: ZUJKAS_clean_linker_0, # of connection points: 2
# Relax obj value: 0.094
# Max RMSD: 0.169
# Mean RMSD: 0.169
data_MOF--net-qtz-e--node1-GEDQOX_clean_sbu_0--edge1-ZUJKAS_clean_linker_0
_symmetry_space_group_name_H-M    P1
_symmetry_Int_Tables_number       1
_symmetry_cell_setting            triclinic
loop_
_symmetry_equiv_pos_as_xyz
'x, y, z'
_cell_length_a     33.281381
_cell_length_b     33.247557
_cell_length_c     63.22388
_cell_angle_alpha  90.036352
_cell_angle_beta   89.91987
_cell_angle_gamma 119.98501
loop_
_atom_site_label
_atom_site_type_symbol
_atom_site_fract_x
_atom_site_fract_y
_atom_site_fract_z
_atom_type_partial_charge
Nd0 Nd 0.16556 0.36586 0.05751 0.0
Nd1 Nd 0.2484 0.45978 0.04803 0.0
C2 C 0.0873 0.29685 0.07286 0.0
C3 C 0.06347 0.28736 0.09358 0.0
C4 C 0.06162 0.32274 0.10495 0.0
C5 C 0.04183 0.31417 0.12517 0.0
C6 C 0.02318 0.26992 0.13446 0.0
C7 C 0.0244 0.23436 0.12286 0.0
C8 C 0.04444 0.24307 0.10267 0.0
C9 C 0.25084 0.3729 0.06197 0.0
C10 C 0.21061 0.44684 0.09485 0.0
C11 C 0.3262 0.53045 0.03337 0.0
C12 C 0.34473 0.55083 1.01226 0.0
C13 C 0.35205 0.52546 0.99641 0.0
C14 C 0.3687 0.54506 0.97646 0.0
C15 C 0.37814 0.5904 0.97179 0.0
C16 C 0.37094 0.61571 0.98775 0.0
C17 C 0.35466 0.59622 1.00774 0.0
C18 C 0.16505 0.45579 0.04277 0.0
C19 C 0.20531 0.37785 1.01064 0.0
O20 O 0.08921 0.33084 0.06161 0.0
O21 O 0.12635 0.29641 0.07264 0.0
O22 O 0.21612 0.3378 0.05279 0.0
O23 O 0.23921 0.40135 0.06836 0.0
O24 O 0.17262 0.41181 0.08662 0.0
O25 O 0.24955 0.46757 0.08389 0.0
O26 O 0.32124 0.48963 0.03752 0.0
O27 O 0.29164 0.53481 0.04044 0.0
O28 O 0.2009 0.49011 0.0516 0.0
O29 O 0.17378 0.42478 0.03675 0.0
O30 O 0.24109 0.41623 0.01815 0.0
O31 O 0.16727 0.35354 0.02199 0.0
H32 H 0.07587 0.3572 0.09829 0.0
H33 H 0.04094 0.34221 0.13348 0.0
H34 H 0.01084 0.20003 0.12959 0.0
H35 H 0.04573 0.21532 0.09426 0.0
H36 H 0.34502 0.49046 0.99938 0.0
H37 H 0.37453 0.52471 0.96477 0.0
H38 H 0.37708 0.65038 0.98473 0.0
H39 H 0.34932 0.61654 0.01965 0.0
Nd40 Nd 0.79934 0.17032 0.39119 0.0
Nd41 Nd 0.7852 0.25178 0.37987 0.0
C42 C 0.79003 0.09241 0.40711 0.0
C43 C 0.77414 0.06804 0.42765 0.0
C44 C 0.73863 0.06919 0.43917 0.0
C45 C 0.72543 0.04811 0.45908 0.0
C46 C 0.74704 0.02482 0.46788 0.0
C47 C 0.78221 0.02321 0.4561 0.0
C48 C 0.79569 0.04474 0.43625 0.0
C49 C 0.87344 0.25744 0.39774 0.0
C50 C 0.75546 0.2124 0.42657 0.0
C51 C 0.79502 0.32962 0.36382 0.0
C52 C 0.79504 0.34689 0.34213 0.0
C53 C 0.83703 0.37877 0.33232 0.0
C54 C 0.83747 0.39398 0.31161 0.0
C55 C 0.79589 0.37784 0.3002 0.0
C56 C 0.75387 0.34654 0.31018 0.0
C57 C 0.75343 0.3313 0.33085 0.0
C58 C 0.70949 0.16679 0.37271 0.0
C59 C 0.83002 0.20999 0.34437 0.0
O60 O 0.75853 0.09393 0.39528 0.0
O61 O 0.8292 0.13188 0.40741 0.0
O62 O 0.87784 0.22436 0.38907 0.0
O63 O 0.83193 0.24353 0.4023 0.0
O64 O 0.75723 0.17599 0.41922 0.0
O65 O 0.77116 0.25083 0.41531 0.0
O66 O 0.83016 0.32414 0.36879 0.0
O67 O 0.75555 0.29615 0.37112 0.0
O68 O 0.70728 0.20219 0.37987 0.0
O69 O 0.75071 0.17735 0.36866 0.0
O70 O 0.82426 0.2446 0.351 0.0
O71 O 0.81802 0.17295 0.35622 0.0
H72 H 0.72135 0.08688 0.43292 0.0
H73 H 0.69881 0.05091 0.46771 0.0
H74 H 0.79922 0.00506 0.46212 0.0
H75 H 0.82313 0.04334 0.42763 0.0
H76 H 0.86968 0.39162 0.34061 0.0
H77 H 0.87052 0.41778 0.30441 0.0
H78 H 0.7211 0.33404 0.30208 0.0
H79 H 0.72036 0.30707 0.33792 0.0
Nd80 Nd 0.61327 0.80128 0.72407 0.0
Nd81 Nd 0.52413 0.80361 0.71516 0.0
C82 C 0.67624 0.78313 0.73972 0.0
C83 C 0.68463 0.76905 0.76075 0.0
C84 C 0.64903 0.73167 0.77197 0.0
C85 C 0.657 0.72071 0.79237 0.0
C86 C 0.70065 0.74701 0.80205 0.0
C87 C 0.73629 0.78412 0.79069 0.0
C88 C 0.72836 0.79491 0.77027 0.0
C89 C 0.61889 0.88628 0.72711 0.0
C90 C 0.53503 0.77632 0.76198 0.0
C91 C 0.46219 0.82421 0.70057 0.0
C92 C 0.44424 0.82532 0.67924 0.0
C93 C 0.47302 0.85672 0.66363 0.0
C94 C 0.456 0.85566 0.64328 0.0
C95 C 0.40991 0.8229 0.63793 0.0
C96 C 0.38108 0.792 0.65371 0.0
C97 C 0.39797 0.79341 0.67411 0.0
C98 C 0.51441 0.71768 0.71163 0.0
C99 C 0.60192 0.82662 0.67655 0.0
O100 O 0.63982 0.75264 0.72914 0.0
O101 O 0.68226 0.82504 0.73855 0.0
O102 O 0.65044 0.88037 0.71788 0.0
O103 O 0.58712 0.8484 0.73424 0.0
O104 O 0.56677 0.76832 0.75353 0.0
O105 O 0.51758 0.79806 0.7512 0.0
O106 O 0.50517 0.85554 0.70478 0.0
O107 O 0.45111 0.78317 0.70791 0.0
O108 O 0.48261 0.72536 0.71914 0.0
O109 O 0.54926 0.75453 0.7051 0.0
O110 O 0.56625 0.82953 0.68403 0.0
O111 O 0.62419 0.81112 0.6883 0.0
H112 H 0.61481 0.71128 0.76514 0.0
H113 H 0.62863 0.69226 0.80075 0.0
H114 H 0.77045 0.80473 0.79755 0.0
H115 H 0.75634 0.82392 0.76197 0.0
H116 H 0.50885 0.88197 0.66704 0.0
H117 H 0.47909 0.88063 0.63176 0.0
H118 H 0.34565 0.7658 0.65022 0.0
H119 H 0.37501 0.76882 0.68581 0.0
Nd120 Nd 0.82085 0.62962 0.05644 0.0
Nd121 Nd 0.74185 0.53319 0.04249 0.0
C122 C 0.89561 0.70004 0.07344 0.0
C123 C 0.91819 0.70766 0.09436 0.0
C124 C 0.96658 0.73434 0.09618 0.0
C125 C 0.98793 0.74198 0.11604 0.0
C126 C 0.96125 0.72303 0.13451 0.0
C127 C 0.91271 0.69606 0.13252 0.0
C128 C 0.89149 0.68843 0.11271 0.0
C129 C 0.73195 0.61225 0.06239 0.0
C130 C 0.78646 0.54077 0.08941 0.0
C131 C 0.66652 0.45489 0.03245 0.0
C132 C 0.64496 0.4337 1.01197 0.0
C133 C 0.64637 0.46154 0.99493 0.0
C134 C 0.62794 0.44163 0.97527 0.0
C135 C 0.6082 0.39353 0.97211 0.0
C136 C 0.60669 0.36573 0.98922 0.0
C137 C 0.62479 0.38565 1.00898 0.0
C138 C 0.82551 0.56102 0.02318 0.0
C139 C 0.77402 0.62183 1.01114 0.0
O140 O 0.89754 0.66951 0.06102 0.0
O141 O 0.8548 0.69676 0.07338 0.0
O142 O 0.76487 0.65145 0.05501 0.0
O143 O 0.747 0.58514 0.06614 0.0
O144 O 0.81389 0.58563 0.08581 0.0
O145 O 0.75581 0.51292 0.0753 0.0
O146 O 0.66601 0.49284 0.03766 0.0
O147 O 0.70628 0.45724 0.0365 0.0
O148 O 0.78585 0.53829 1.01374 0.0
O149 O 0.81998 0.56668 0.04247 0.0
O150 O 0.73805 0.58396 0.01895 0.0
O151 O 0.81446 0.64279 0.02114 0.0
H152 H 0.98788 0.74932 0.08223 0.0
H153 H 0.0254 0.76236 0.11688 0.0
H154 H 0.89088 0.68139 0.14633 0.0
H155 H 0.85405 0.66765 0.11178 0.0
H156 H 0.66227 0.49882 0.99672 0.0
H157 H 0.63023 0.46411 0.96237 0.0
H158 H 0.5914 0.32854 0.98734 0.0
H159 H 0.62353 0.36359 0.02187 0.0
Nd160 Nd 0.19249 0.8271 0.38961 0.0
Nd161 Nd 0.19908 0.74184 0.37989 0.0
C162 C 0.20483 0.9064 0.40521 0.0
C163 C 0.21858 0.92935 0.4262 0.0
C164 C 0.2598 0.93764 0.43616 0.0
C165 C 0.27103 0.95721 0.45642 0.0
C166 C 0.24123 0.96873 0.46736 0.0
C167 C 0.20014 0.96064 0.45724 0.0
C168 C 0.18907 0.94133 0.43692 0.0
C169 C 0.1145 0.74306 0.39773 0.0
C170 C 0.23404 0.7853 0.42543 0.0
C171 C 0.18538 0.66081 0.36616 0.0
C172 C 0.18563 0.64098 0.34518 0.0
C173 C 0.15595 0.63877 0.32884 0.0
C174 C 0.15772 0.62133 0.30893 0.0
C175 C 0.18943 0.60598 0.30484 0.0
C176 C 0.21887 0.60792 0.32125 0.0
C177 C 0.21684 0.62506 0.34121 0.0
C178 C 0.27838 0.82255 0.37025 0.0
C179 C 0.15854 0.78537 0.34345 0.0
O180 O 0.23651 0.90318 0.39423 0.0
O181 O 0.16429 0.86858 0.40431 0.0
O182 O 0.11299 0.77699 0.38833 0.0
O183 O 0.1555 0.75475 0.40231 0.0
O184 O 0.23695 0.82285 0.41677 0.0
O185 O 0.21261 0.74502 0.4155 0.0
O186 O 0.15163 0.66925 0.37008 0.0
O187 O 0.22548 0.6936 0.37311 0.0
O188 O 0.27733 0.78653 0.37865 0.0
O189 O 0.23796 0.81522 0.36672 0.0
O190 O 0.1604 0.74907 0.35089 0.0
O191 O 0.17435 0.82404 0.35456 0.0
H192 H 0.2833 0.9287 0.42838 0.0
H193 H 0.30331 0.96349 0.46346 0.0
H194 H 0.17587 0.96825 0.46519 0.0
H195 H 0.15695 0.93503 0.42968 0.0
H196 H 0.13139 0.65063 0.33139 0.0
H197 H 0.13486 0.62072 0.2966 0.0
H198 H 0.2433 0.59586 0.31869 0.0
H199 H 0.23998 0.62622 0.35354 0.0
Nd200 Nd 0.36317 0.18077 0.72639 0.0
Nd201 Nd 0.45511 0.18422 0.71561 0.0
C202 C 0.29884 0.19655 0.74248 0.0
C203 C 0.29031 0.21167 0.76325 0.0
C204 C 0.32513 0.25112 0.77368 0.0
C205 C 0.31671 0.26393 0.7936 0.0
C206 C 0.27341 0.23744 0.80362 0.0
C207 C 0.23867 0.19805 0.79311 0.0
C208 C 0.24701 0.18543 0.77314 0.0
C209 C 0.3644 0.09919 0.73043 0.0
C210 C 0.44591 0.21221 0.76266 0.0
C211 C 0.52012 0.16869 0.70012 0.0
C212 C 0.53761 0.16926 0.67863 0.0
C213 C 0.51247 0.16935 0.66085 0.0
C214 C 0.52988 0.17167 0.64048 0.0
C215 C 0.57293 0.17408 0.63745 0.0
C216 C 0.59783 0.17356 0.65534 0.0
C217 C 0.58039 0.17142 0.67575 0.0
C218 C 0.45688 0.26645 0.71084 0.0
C219 C 0.37151 0.15171 0.67916 0.0
O220 O 0.33407 0.22727 0.73131 0.0
O221 O 0.29475 0.15533 0.74193 0.0
O222 O 0.32988 0.10131 0.72203 0.0
O223 O 0.39524 0.13875 0.73636 0.0
O224 O 0.41182 0.21746 0.75492 0.0
O225 O 0.46435 0.19187 0.75147 0.0
O226 O 0.47769 0.1357 0.70409 0.0
O227 O 0.52879 0.20893 0.70756 0.0
O228 O 0.49184 0.26318 0.71765 0.0
O229 O 0.4235 0.22747 0.70557 0.0
O230 O 0.40846 0.1508 0.68627 0.0
O231 O 0.34984 0.1681 0.69081 0.0
H232 H 0.35904 0.27187 0.76656 0.0
H233 H 0.34442 0.29411 0.80135 0.0
H234 H 0.2048 0.17717 0.80025 0.0
H235 H 0.21963 0.15489 0.76545 0.0
H236 H 0.47959 0.16816 0.6627 0.0
H237 H 0.50953 0.17145 0.62708 0.0
H238 H 0.63135 0.17597 0.65359 0.0
H239 H 0.60065 0.17221 0.68929 0.0
H240 H 0.11767 0.54716 0.27913 0.0
H241 H 0.12231 0.51925 0.24386 0.0
H242 H 0.27169 0.59831 0.24677 0.0
H243 H 0.26729 0.62585 0.28211 0.0
H244 H 0.15913 0.56699 0.20772 0.0
H245 H 0.2511 0.47265 0.22956 0.0
H246 H 0.22572 0.49299 0.24904 0.0
H247 H 0.28135 0.53238 0.23761 0.0
C248 C 0.15151 0.55857 0.27225 0.0
C249 C 0.19212 0.58851 0.28349 0.0
C250 C 0.15412 0.54248 0.25212 0.0
C251 C 0.19735 0.55596 0.24277 0.0
C252 C 0.23794 0.58631 0.25385 0.0
H253 H 0.28281 0.51248 0.1185 0.0
H254 H 0.27951 0.53911 0.15428 0.0
C255 C 0.23537 0.60215 0.27405 0.0
C256 C 0.19985 0.53949 0.22117 0.0
H257 H 0.24431 0.48306 0.19275 0.0
C258 C 0.17754 0.54841 0.20449 0.0
C259 C 0.2239 0.51522 0.21691 0.0
C260 C 0.2465 0.50231 0.23425 0.0
C261 C 0.17919 0.5344 0.18369 0.0
C262 C 0.20349 0.51049 0.17944 0.0
C263 C 0.22589 0.5016 0.19605 0.0
C264 C 0.20549 0.4939 0.15787 0.0
C265 C 0.15556 0.54593 0.16631 0.0
C266 C 0.16507 0.45922 0.14815 0.0
C267 C 0.16684 0.44386 0.12776 0.0
C268 C 0.20909 0.46281 0.11663 0.0
C269 C 0.24965 0.49724 0.12653 0.0
C270 C 0.24787 0.51246 0.147 0.0
H271 H 0.14729 0.57305 0.17127 0.0
H272 H 0.17767 0.5581 0.15193 0.0
H273 H 0.12259 0.51422 0.16207 0.0
H274 H 0.13211 0.44391 0.15638 0.0
H275 H 0.13496 0.4173 0.1207 0.0
H276 H 0.5727 0.22795 0.60477 0.0
H277 H 0.60347 0.23422 0.569 0.0
H278 H 0.64838 0.13698 0.58526 0.0
H279 H 0.61692 0.12982 0.62102 0.0
H280 H 0.69742 0.2619 0.55703 0.0
H281 H 0.57097 0.08299 0.53047 0.0
H282 H 0.56094 0.1094 0.55334 0.0
H283 H 0.60005 0.08704 0.55499 0.0
C284 C 0.58867 0.20748 0.60069 0.0
C285 C 0.59206 0.17813 0.61574 0.0
C286 C 0.6065 0.21136 0.58028 0.0
C287 C 0.62772 0.18568 0.5744 0.0
C288 C 0.63156 0.15663 0.58938 0.0
H289 H 0.74674 0.15297 0.45825 0.0
H290 H 0.71668 0.14821 0.49391 0.0
C291 C 0.61393 0.1529 0.60986 0.0
C292 C 0.6464 0.18989 0.55266 0.0
H293 H 0.63279 0.12891 0.50719 0.0
C294 C 0.68326 0.23292 0.54607 0.0
C295 C 0.62793 0.15196 0.53847 0.0
C296 C 0.58755 0.10527 0.54452 0.0
C297 C 0.70281 0.23884 0.52579 0.0
C298 C 0.68409 0.20099 0.51147 0.0
C299 C 0.6471 0.15797 0.5181 0.0
C300 C 0.70285 0.20478 0.48971 0.0
C301 C 0.74421 0.2852 0.52016 0.0
C302 C 0.70485 0.23794 0.47529 0.0
C303 C 0.72234 0.24087 0.45481 0.0
C304 C 0.73732 0.2101 0.44825 0.0
C305 C 0.73486 0.17673 0.46266 0.0
C306 C 0.71784 0.1741 0.48313 0.0
H307 H 0.76229 0.30547 0.53451 0.0
H308 H 0.76948 0.28084 0.51035 0.0
H309 H 0.73237 0.3058 0.51099 0.0
H310 H 0.69242 0.26125 0.47978 0.0
H311 H 0.72346 0.26674 0.44404 0.0
H312 H 0.35292 0.54686 0.93312 0.0
H313 H 0.38112 0.5805 0.89818 0.0
H314 H 0.46726 0.71483 0.92656 0.0
H315 H 0.44135 0.68104 0.96165 0.0
H316 H 0.37367 0.64608 0.87721 0.0
H317 H 0.56003 0.70557 0.88924 0.0
H318 H 0.51586 0.66744 0.90761 0.0
H319 H 0.53746 0.72903 0.90836 0.0
C320 C 0.37855 0.58339 0.93203 0.0
C321 C 0.39505 0.61103 0.95036 0.0
C322 C 0.39432 0.6027 0.91197 0.0
C323 C 0.42692 0.65011 0.90969 0.0
C324 C 0.44293 0.67798 0.92788 0.0
H325 H 0.48101 0.79653 0.78796 0.0
H326 H 0.45481 0.76804 0.82397 0.0
C327 C 0.42748 0.65864 0.94797 0.0
C328 C 0.44325 0.67038 0.88824 0.0
H329 H 0.54044 0.73132 0.85792 0.0
C330 C 0.41014 0.66464 0.87298 0.0
C331 C 0.49083 0.69415 0.8826 0.0
C332 C 0.52807 0.69905 0.89774 0.0
C333 C 0.42319 0.682 0.85231 0.0
C334 C 0.47085 0.70701 0.84686 0.0
C335 C 0.50394 0.71267 0.86213 0.0
C336 C 0.48715 0.72545 0.82514 0.0
C337 C 0.38562 0.67202 0.83636 0.0
C338 C 0.5153 0.71233 0.81401 0.0
C339 C 0.53088 0.72912 0.79363 0.0
C340 C 0.51863 0.75942 0.78379 0.0
C341 C 0.49074 0.77293 0.79499 0.0
C342 C 0.47548 0.7564 0.81554 0.0
H343 H 0.35173 0.64213 0.84126 0.0
H344 H 0.38122 0.70286 0.83495 0.0
H345 H 0.39477 0.66442 0.82054 0.0
H346 H 0.52493 0.68862 0.82103 0.0
H347 H 0.55218 0.71782 0.78552 0.0
H348 H 0.84972 0.46498 0.28321 0.0
H349 H 0.84871 0.49038 0.24697 0.0
H350 H 0.74174 0.35178 0.23066 0.0
H351 H 0.74286 0.32591 0.26672 0.0
H352 H 0.86428 0.45792 0.2082 0.0
H353 H 0.68619 0.43206 0.21209 0.0
H354 H 0.718 0.43321 0.23541 0.0
H355 H 0.69035 0.38198 0.21921 0.0
C356 C 0.82622 0.43975 0.2719 0.0
C357 C 0.79611 0.39342 0.27801 0.0
C358 C 0.82554 0.45441 0.25119 0.0
C359 C 0.79459 0.4232 0.23618 0.0
C360 C 0.76515 0.37677 0.24208 0.0
H361 H 0.73278 0.45189 0.10463 0.0
H362 H 0.73621 0.42239 0.13968 0.0
C363 C 0.76582 0.36206 0.26276 0.0
C364 C 0.79337 0.43911 0.21431 0.0
H365 H 0.72306 0.45123 0.17862 0.0
C366 C 0.83346 0.45659 0.20174 0.0
C367 C 0.75309 0.43721 0.20586 0.0
C368 C 0.70954 0.4205 0.21886 0.0
C369 C 0.83417 0.47163 0.18087 0.0
C370 C 0.79396 0.47002 0.17246 0.0
C371 C 0.75382 0.45232 0.18502 0.0
C372 C 0.79308 0.48756 0.15089 0.0
C373 C 0.87775 0.48827 0.16791 0.0
C374 C 0.82368 0.53409 0.14552 0.0
C375 C 0.82194 0.551 0.12549 0.0
C376 C 0.7892 0.52192 0.11038 0.0
C377 C 0.75854 0.47528 0.11579 0.0
C378 C 0.76038 0.45836 0.13587 0.0
H379 H 0.89986 0.47469 0.17416 0.0
H380 H 0.86945 0.47757 0.15111 0.0
H381 H 0.89825 0.52675 0.16851 0.0
H382 H 0.84852 0.55765 0.15696 0.0
H383 H 0.84607 0.58709 0.12198 0.0
H384 H 0.32257 0.80265 0.62542 0.0
H385 H 0.29279 0.79429 0.58948 0.0
H386 H 0.4277 0.83182 0.56451 0.0
H387 H 0.45705 0.83725 0.60033 0.0
H388 H 0.31443 0.85414 0.55824 0.0
H389 H 0.34883 0.71539 0.53184 0.0
H390 H 0.35366 0.7329 0.55915 0.0
H391 H 0.40031 0.76601 0.54089 0.0
C392 C 0.34582 0.80834 0.61233 0.0
C393 C 0.39221 0.82016 0.61594 0.0
C394 C 0.32878 0.80396 0.59173 0.0
C395 C 0.35766 0.81145 0.5742 0.0
C396 C 0.4043 0.82459 0.57771 0.0
H397 H 0.29519 0.86386 0.44669 0.0
H398 H 0.32507 0.87004 0.48248 0.0
C399 C 0.42128 0.82847 0.5983 0.0
C400 C 0.3391 0.80638 0.55232 0.0
H401 H 0.3282 0.75204 0.50501 0.0
C402 C 0.31722 0.83159 0.54664 0.0
C403 C 0.342 0.77642 0.53722 0.0
C404 C 0.36202 0.74577 0.54263 0.0
C405 C 0.29883 0.82825 0.52629 0.0
C406 C 0.30365 0.79993 0.51089 0.0
C407 C 0.3249 0.77416 0.51667 0.0
C408 C 0.28655 0.79613 0.48878 0.0
C409 C 0.27375 0.85458 0.52174 0.0
C410 C 0.25654 0.75238 0.47988 0.0
C411 C 0.24015 0.74867 0.45915 0.0
C412 C 0.25324 0.78867 0.44694 0.0
C413 C 0.28394 0.83235 0.45574 0.0
C414 C 0.3008 0.83599 0.47632 0.0
H415 H 0.25997 0.86159 0.53645 0.0
H416 H 0.29852 0.88857 0.51459 0.0
H417 H 0.2445 0.83534 0.51059 0.0
H418 H 0.24524 0.72105 0.48907 0.0
H419 H 0.21652 0.71452 0.45288 0.0
H420 H 0.62112 0.3287 0.95112 0.0
H421 H 0.59459 0.29733 0.91558 0.0
H422 H 0.52783 0.37946 0.9097 0.0
H423 H 0.5548 0.41141 0.94507 0.0
H424 H 0.50884 0.24733 0.89864 0.0
H425 H 0.60481 0.41547 0.85651 0.0
H426 H 0.61552 0.40883 0.88389 0.0
H427 H 0.5671 0.4159 0.87668 0.0
C428 C 0.60057 0.33988 0.9423 0.0
C429 C 0.59037 0.37283 0.95087 0.0
C430 C 0.58557 0.32205 0.92194 0.0
C431 C 0.56004 0.33674 0.90974 0.0
C432 C 0.54866 0.36861 0.91852 0.0
H433 H 0.42251 0.26364 0.7883 0.0
H434 H 0.45068 0.29227 0.82391 0.0
C435 C 0.56395 0.38673 0.93879 0.0
C436 C 0.54486 0.31834 0.88795 0.0
H437 H 0.54839 0.35136 0.83644 0.0
C438 C 0.51781 0.27007 0.88503 0.0
C439 C 0.55672 0.34798 0.87012 0.0
C440 C 0.58802 0.39987 0.87188 0.0
C441 C 0.50134 0.2508 0.86491 0.0
C442 C 0.51243 0.28052 0.84722 0.0
C443 C 0.53977 0.32868 0.85006 0.0
C444 C 0.49526 0.26239 0.82566 0.0
C445 C 0.47124 0.19886 0.86274 0.0
C446 C 0.51128 0.23634 0.81473 0.0
C447 C 0.49541 0.22003 0.79424 0.0
C448 C 0.4631 0.22939 0.78435 0.0
C449 C 0.44724 0.25558 0.7954 0.0
C450 C 0.46334 0.27208 0.81578 0.0
H451 H 0.4591 0.18147 0.87832 0.0
H452 H 0.44056 0.19008 0.85271 0.0
H453 H 0.49142 0.18471 0.85491 0.0
H454 H 0.53637 0.22896 0.82198 0.0
H455 H 0.50841 0.20006 0.7862 0.0
H456 H 0.32268 0.42684 0.08705 0.0
H457 H 0.4047 0.4674 0.0775 0.0
H458 H 0.37121 0.39759 0.01711 0.0
H459 H 0.28847 0.35571 0.02693 0.0
H460 H 0.45157 0.40526 0.03677 0.0
H461 H 0.4602 0.57608 0.03565 0.0
H462 H 0.42624 0.53945 0.05717 0.0
H463 H 0.40825 0.52171 0.03032 0.0
C464 C 0.33297 0.41932 0.07196 0.0
C465 C 0.29965 0.38816 0.05776 0.0
C466 C 0.3796 0.44297 0.06638 0.0
C467 C 0.39362 0.43659 0.04634 0.0
C468 C 0.36078 0.40337 0.03253 0.0
H469 H 0.69153 0.6387 0.03186 0.0
H470 H 0.60941 0.59553 0.02136 0.0
C471 C 0.31382 0.37914 0.03824 0.0
C472 C 0.44292 0.46492 0.04039 0.0
H473 H 0.53126 0.57711 0.04252 0.0
C474 C 0.469 0.44286 0.03748 0.0
C475 C 0.46545 0.514 0.04047 0.0
C476 C 0.43865 0.53943 0.04088 0.0
C477 C 0.51756 0.46872 0.03701 0.0
C478 C 0.54002 0.51732 0.04023 0.0
C479 C 0.51389 0.53968 0.0407 0.0
C480 C 0.58929 0.54427 0.04626 0.0
C481 C 0.54448 0.4438 0.03379 0.0
C482 C 0.60422 0.5311 0.06433 0.0
C483 C 0.65052 0.5556 0.07034 0.0
C484 C 0.6825 0.5941 0.05858 0.0
C485 C 0.66721 0.6093 0.04127 0.0
C486 C 0.62066 0.58435 0.0351 0.0
H487 H 0.52398 0.41115 0.02469 0.0
H488 H 0.57738 0.46624 0.02522 0.0
H489 H 0.55288 0.43455 0.04938 0.0
H490 H 0.58012 0.5014 0.07366 0.0
H491 H 0.66171 0.5434 0.08376 0.0
H492 H 0.10677 0.67321 0.42182 0.0
H493 H 0.06105 0.59029 0.41427 0.0
H494 H -0.00097 0.6185 0.36063 0.0
H495 H 0.04513 0.70236 0.36817 0.0
H496 H 0.93697 0.53839 0.38999 0.0
H497 H 0.09181 0.5343 0.36021 0.0
H498 H 0.10176 0.56989 0.38327 0.0
H499 H 0.08492 0.58476 0.35877 0.0
C500 C 0.08261 0.66169 0.4087 0.0
C501 C 0.07928 0.69389 0.39559 0.0
C502 C 0.05693 0.61448 0.4043 0.0
C503 C 0.02767 0.59869 0.38665 0.0
C504 C 0.02193 0.63039 0.3742 0.0
H505 H 0.92658 0.30202 0.36321 0.0
H506 H 0.96131 0.38551 0.3558 0.0
C507 C 0.04777 0.678 0.37864 0.0
C508 C 0.00413 0.54886 0.38148 0.0
H509 H 0.02896 0.46251 0.3725 0.0
C510 C 0.95668 0.52167 0.38568 0.0
C511 C 0.02976 0.52737 0.37534 0.0
C512 C 0.07991 0.55548 0.36895 0.0
C513 C 0.93503 0.47312 0.3857 0.0
C514 C 0.96206 0.45168 0.38198 0.0
C515 C 0.0085 0.47893 0.37583 0.0
C516 C 0.94423 0.40199 0.3865 0.0
C517 C 0.8838 0.44557 0.3904 0.0
C518 C 0.92587 0.38438 0.40656 0.0
C519 C 0.90617 0.33721 0.41072 0.0
C520 C 0.90574 0.30707 0.39512 0.0
C521 C 0.92745 0.32498 0.37559 0.0
C522 C 0.94655 0.37237 0.37127 0.0
H523 H 0.86574 0.46374 0.38438 0.0
H524 H 0.86763 0.41056 0.38322 0.0
H525 H 0.87849 0.44182 0.40777 0.0
H526 H 0.92547 0.40694 0.41883 0.0
H527 H 0.88925 0.32385 0.42582 0.0
H528 H 0.34906 0.05158 0.69324 0.0
H529 H 0.39464 0.0164 0.68082 0.0
H530 H 0.45529 0.03517 0.74289 0.0
H531 H 0.4114 0.07158 0.755 0.0
H532 H 0.51933 0.08127 0.70695 0.0
H533 H 0.39598 0.89222 0.69498 0.0
H534 H 0.38188 0.93504 0.68576 0.0
H535 H 0.3823 0.92493 0.71357 0.0
C536 C 0.37071 0.04634 0.70438 0.0
C537 C 0.37696 0.06409 0.72505 0.0
C538 C 0.39692 0.02665 0.69724 0.0
C539 C 0.4286 0.02385 0.71092 0.0
C540 C 0.43125 0.0375 0.73209 0.0
H541 H 0.5806 0.92231 0.75253 0.0
H542 H 0.54168 0.96443 0.74125 0.0
C543 C 0.40584 0.05773 0.73907 0.0
C544 C 0.46266 0.01118 0.70332 0.0
H545 H 0.47525 0.91654 0.69785 0.0
C546 C 0.50982 0.04548 0.70406 0.0
C547 C 0.45 0.96457 0.69949 0.0
C548 C 0.39984 0.9268 0.69835 0.0
C549 C 0.54458 0.0335 0.70336 0.0
C550 C 0.53162 0.98635 0.70181 0.0
C551 C 0.48488 0.95271 0.6988 0.0
C552 C 0.56345 0.9703 0.7086 0.0
C553 C 0.59458 0.07041 0.70636 0.0
C554 C 0.59043 0.96213 0.69408 0.0
C555 C 0.61377 0.93906 0.70066 0.0
C556 C 0.6092 0.92333 0.72165 0.0
C557 C 0.58491 0.93463 0.73636 0.0
C558 C 0.56244 0.95825 0.72989 0.0
H559 H 0.59963 0.10593 0.70517 0.0
H560 H 0.60648 0.06637 0.7222 0.0
H561 H 0.61664 0.06624 0.69436 0.0
H562 H 0.59126 0.97116 0.67756 0.0
H563 H 0.63175 0.92993 0.689 0.0
H564 H 0.57656 0.6919 0.69842 0.0
H565 H 0.56151 0.61225 0.69369 0.0
H566 H 0.41769 0.55898 0.71007 0.0
H567 H 0.43283 0.63781 0.71559 0.0
H568 H 0.45596 0.51932 0.73274 0.0
H569 H 0.49557 0.51637 0.64768 0.0
H570 H 0.54205 0.56296 0.66202 0.0
H571 H 0.48768 0.56174 0.65914 0.0
C572 C 0.54177 0.66307 0.70085 0.0
C573 C 0.50593 0.67073 0.7075 0.0
C574 C 0.53309 0.61776 0.69793 0.0
C575 C 0.48832 0.57989 0.70124 0.0
C576 C 0.45239 0.58779 0.70736 0.0
H577 H 0.38914 0.28118 0.69474 0.0
H578 H 0.39302 0.35658 0.69034 0.0
C579 C 0.46116 0.6328 0.71056 0.0
C580 C 0.4795 0.53188 0.70035 0.0
H581 H 0.48851 0.45329 0.66892 0.0
C582 C 0.46245 0.50469 0.71868 0.0
C583 C 0.4878 0.51295 0.68194 0.0
C584 C 0.50385 0.53985 0.66151 0.0
C585 C 0.45485 0.45943 0.71931 0.0
C586 C 0.46496 0.44131 0.70123 0.0
C587 C 0.48084 0.46776 0.6827 0.0
C588 C 0.46316 0.39646 0.70218 0.0
C589 C 0.43734 0.43152 0.73944 0.0
C590 C 0.50138 0.39473 0.71022 0.0
C591 C 0.49918 0.3522 0.71288 0.0
C592 C 0.45872 0.31088 0.70747 0.0
C593 C 0.42063 0.31269 0.69906 0.0
C594 C 0.42285 0.35546 0.69644 0.0
H595 H 0.42708 0.4491 0.75147 0.0
H596 H 0.40703 0.39683 0.73597 0.0
H597 H 0.46492 0.42596 0.74624 0.0
H598 H 0.53257 0.4263 0.71482 0.0
H599 H 0.52903 0.35167 0.71938 0.0
H600 H 0.10496 0.40741 1.01057 0.0
H601 H 0.05008 0.42653 0.99356 0.0
H602 H 0.08706 0.53704 0.03866 0.0
H603 H 0.14169 0.51863 0.05542 0.0
H604 H 0.97473 0.4294 1.01105 0.0
H605 H 0.10385 0.60318 0.98218 0.0
H606 H 0.11918 0.56012 0.98974 0.0
H607 H 0.11427 0.5967 1.00943 0.0
C608 C 0.10093 0.43551 0.01687 0.0
C609 C 0.12768 0.46195 0.03412 0.0
C610 C 0.07007 0.44662 1.00705 0.0
C611 C 0.06604 0.48428 1.0144 0.0
C612 C 0.09111 0.50903 0.03226 0.0
H613 H 0.90818 0.59186 0.0431 0.0
H614 H 0.96993 0.5767 0.03229 0.0
C615 C 0.12182 0.49811 0.04198 0.0
C616 C 0.03358 0.49674 1.00467 0.0
H617 H 0.02769 0.5932 0.99185 0.0
C618 C 0.98606 0.46467 1.00602 0.0
C619 C 0.04873 0.54265 0.99785 0.0
C620 C 0.09937 0.57742 0.99449 0.0
C621 C 0.95331 0.47891 1.00326 0.0
C622 C 0.96891 0.52621 0.99895 0.0
C623 C 0.01608 0.55708 0.99535 0.0
C624 C 0.93804 0.54529 1.00239 0.0
C625 C 0.90266 0.44444 1.00702 0.0
C626 C 0.90123 0.53469 0.98859 0.0
C627 C 0.866 0.54337 0.99472 0.0
C628 C 0.86724 0.56236 1.01476 0.0
C629 C 0.90629 0.57682 0.02767 0.0
C630 C 0.94155 0.56833 0.02149 0.0
H631 H 0.89662 0.4093 1.01101 0.0
H632 H 0.88915 0.45659 0.02014 0.0
H633 H 0.88242 0.44167 0.99261 0.0
H634 H 0.89831 0.51713 0.97375 0.0
H635 H 0.8364 0.53242 0.98437 0.0
H636 H 0.31866 0.91641 0.36792 0.0
H637 H 0.39408 0.96926 0.35189 0.0
H638 H 0.40142 0.85197 0.32714 0.0
H639 H 0.32719 0.79937 0.34393 0.0
H640 H 0.47093 0.90108 0.35178 0.0
H641 H 0.4584 0.02236 0.29686 0.0
H642 H 0.42767 0.0192 0.32064 0.0
H643 H 0.40818 0.96802 0.30446 0.0
C644 C 0.33598 0.90227 0.35854 0.0
C645 C 0.31816 0.85432 0.3574 0.0
C646 C 0.37868 0.93232 0.34914 0.0
C647 C 0.4032 0.9145 0.33813 0.0
C648 C 0.38305 0.8664 0.33549 0.0
H649 H 0.70707 0.1004 0.3462 0.0
H650 H 0.63752 0.03542 0.33015 0.0
C651 C 0.34097 0.83649 0.34521 0.0
C652 C 0.45308 0.94499 0.33374 0.0
H653 H 0.52994 0.05568 0.31874 0.0
C654 C 0.48413 0.93421 0.34382 0.0
C655 C 0.4703 0.98782 0.32311 0.0
C656 C 0.43924 -0.00033 0.31047 0.0
C657 C 0.53105 0.9675 0.34594 0.0
C658 C 0.547 0.0123 0.3376 0.0
C659 C 0.51724 0.02127 0.32532 0.0
C660 C 0.58974 0.05217 0.34569 0.0
C661 C 0.56201 0.95616 0.35904 0.0
C662 C 0.58544 0.08249 0.35968 0.0
C663 C 0.62457 0.11906 0.3688 0.0
C664 C 0.66871 0.12596 0.36407 0.0
C665 C 0.67321 0.09544 0.35016 0.0
C666 C 0.63376 0.05867 0.34092 0.0
H667 H 0.5435 0.91988 0.36502 0.0
H668 H 0.59192 0.96099 0.34935 0.0
H669 H 0.57591 0.98011 0.37277 0.0
H670 H 0.55158 0.07746 0.36376 0.0
H671 H 0.62022 0.14208 0.3795 0.0
H672 H 0.29733 0.32429 0.81823 0.0
H673 H 0.28321 0.34573 0.85344 0.0
H674 H 0.21506 0.20207 0.87246 0.0
H675 H 0.22939 0.18036 0.83738 0.0
H676 H 0.19302 0.30986 0.87525 0.0
H677 H 0.31812 0.27475 0.91815 0.0
H678 H 0.32079 0.28363 0.88989 0.0
H679 H 0.27764 0.22937 0.901 0.0
C680 C 0.27962 0.29728 0.82995 0.0
C681 C 0.26461 0.2506 0.82498 0.0
C682 C 0.27132 0.30956 0.85001 0.0
C683 C 0.24838 0.27555 0.86561 0.0
C684 C 0.23316 0.22893 0.86071 0.0
H685 H 0.13764 0.30655 0.98698 0.0
H686 H 0.14598 0.28046 0.95174 0.0
C687 C 0.2411 0.21655 0.8406 0.0
C688 C 0.24042 0.28889 0.887 0.0
H689 H 0.27232 0.29573 0.93883 0.0
C690 C 0.21021 0.30667 0.88918 0.0
C691 C 0.26318 0.28502 0.90511 0.0
C692 C 0.29705 0.26749 0.90355 0.0
C693 C 0.202 0.32047 0.90902 0.0
C694 C 0.22445 0.31618 0.92716 0.0
C695 C 0.25483 0.29861 0.92495 0.0
C696 C 0.21867 0.33184 0.94844 0.0
C697 C 0.17025 0.34055 0.91038 0.0
C698 C 0.25683 0.36893 0.9584 0.0
C699 C 0.25219 0.38389 0.97846 0.0
C700 C 0.20929 0.36187 0.98915 0.0
C701 C 0.1711 0.32442 0.9792 0.0
C702 C 0.17575 0.30959 0.95901 0.0
H703 H 0.16269 0.34967 0.89455 0.0
H704 H 0.13691 0.31463 0.91771 0.0
H705 H 0.18578 0.3721 0.92048 0.0
H706 H 0.2903 0.3865 0.9506 0.0
H707 H 0.2825 0.41257 0.98563 0.0
H708 H 0.85375 0.27895 0.31517 0.0
H709 H 0.88513 0.28456 0.27973 0.0
H710 H 0.88245 0.15481 0.28899 0.0
H711 H 0.851 0.1488 0.32472 0.0
H712 H 0.96696 0.22719 0.27123 0.0
H713 H 0.81268 0.2062 0.22799 0.0
H714 H 0.83388 0.25053 0.24797 0.0
H715 H 0.81061 0.19084 0.25552 0.0
C716 C 0.85965 0.25141 0.30975 0.0
C717 C 0.84953 0.21321 0.32285 0.0
C718 C 0.87744 0.25464 0.28938 0.0
C719 C 0.8855 0.21979 0.28157 0.0
C720 C 0.87621 0.18196 0.29466 0.0
H721 H 0.94426 0.19335 0.14903 0.0
H722 H 0.91165 0.17902 0.18481 0.0
C723 C 0.85817 0.17856 0.31507 0.0
C724 C 0.90426 0.22345 0.25985 0.0
H725 H 0.88158 0.2314 0.20778 0.0
C726 C 0.9482 0.22781 0.25734 0.0
C727 C 0.87955 0.22378 0.24171 0.0
C728 C 0.83138 0.21717 0.24333 0.0
C729 C 0.96861 0.23381 0.23723 0.0
C730 C 0.94463 0.23593 0.21917 0.0
C731 C 0.90014 0.23022 0.22163 0.0
C732 C 0.96519 0.24436 0.19758 0.0
C733 C 0.01556 0.23752 0.23547 0.0
C734 C 0.0059 0.28605 0.19278 0.0
C735 C 0.02468 0.29433 0.17235 0.0
C736 C 0.00308 0.2611 0.15623 0.0
C737 C 0.96215 0.21943 0.16109 0.0
C738 C 0.94331 0.21128 0.18152 0.0
H739 H 0.02372 0.22332 0.24969 0.0
H740 H 0.01743 0.21883 0.22128 0.0
H741 H 0.04259 0.27463 0.23394 0.0
H742 H 0.02298 0.31244 0.20481 0.0
H743 H 0.05642 0.32662 0.16925 0.0
H744 H 0.55507 0.84418 0.64588 0.0
H745 H 0.58165 0.87518 0.61049 0.0
H746 H 0.71141 0.87946 0.62212 0.0
H747 H 0.68438 0.847 0.6575 0.0
H748 H 0.65224 0.95667 0.59905 0.0
H749 H 0.67965 0.81835 0.56515 0.0
H750 H 0.6493 0.81109 0.58977 0.0
H751 H 0.71171 0.84288 0.58904 0.0
C752 C 0.58911 0.85117 0.64089 0.0
C753 C 0.6175 0.84282 0.65456 0.0
C754 C 0.60431 0.86903 0.62059 0.0
C755 C 0.64836 0.8792 0.61341 0.0
C756 C 0.67683 0.87083 0.627 0.0
H757 H 0.8026 0.01992 0.49889 0.0
H758 H 0.7796 0.98461 0.534 0.0
C759 C 0.66141 0.85245 0.64731 0.0
C760 C 0.66485 0.90047 0.59209 0.0
H761 H 0.7066 0.88708 0.54468 0.0
C762 C 0.66394 0.94126 0.58717 0.0
C763 C 0.68026 0.88055 0.5765 0.0
C764 C 0.67992 0.83558 0.58026 0.0
C765 C 0.67804 0.96263 0.56726 0.0
C766 C 0.69338 0.9427 0.55174 0.0
C767 C 0.69492 0.90233 0.55664 0.0
C768 C 0.70704 0.96291 0.53017 0.0
C769 C 0.67683 0.00666 0.56298 0.0
C770 C 0.67373 0.96177 0.51623 0.0
C771 C 0.68658 0.98135 0.49602 0.0
C772 C 0.73316 0.00274 0.48928 0.0
C773 C 0.76634 0.0033 0.5033 0.0
C774 C 0.75334 0.98337 0.52347 0.0
H775 H 0.67314 0.02261 0.57777 0.0
H776 H 0.70885 0.03241 0.55465 0.0
H777 H 0.64685 -0.00138 0.55262 0.0
H778 H 0.63767 0.94553 0.52097 0.0
H779 H 0.65981 0.97927 0.48561 0.0
H780 H 0.67297 0.66149 0.81944 0.0
H781 H 0.68666 0.64386 0.85546 0.0
H782 H 0.76112 0.78998 0.87019 0.0
H783 H 0.74716 0.80791 0.83429 0.0
H784 H 0.77599 0.67758 0.87617 0.0
H785 H 0.66153 0.72899 0.91806 0.0
H786 H 0.65647 0.71634 0.89009 0.0
H787 H 0.7024 0.77081 0.89971 0.0
C788 C 0.69191 0.68986 0.83039 0.0
C789 C 0.7089 0.73612 0.82396 0.0
C790 C 0.69993 0.67974 0.85093 0.0
C791 C 0.72456 0.71557 0.86556 0.0
C792 C 0.74161 0.76176 0.85923 0.0
H793 H 0.84122 0.68987 0.98601 0.0
H794 H 0.83102 0.71515 0.95094 0.0
C795 C 0.73393 0.77195 0.83864 0.0
C796 C 0.73303 0.70459 0.88733 0.0
H797 H 0.70679 0.7083 0.93934 0.0
C798 C 0.761 0.68439 0.89 0.0
C799 C 0.71306 0.71313 0.90532 0.0
C800 C 0.68137 0.73317 0.90328 0.0
C801 C 0.76972 0.67269 0.91019 0.0
C802 C 0.75031 0.68184 0.92823 0.0
C803 C 0.7221 0.7018 0.92553 0.0
C804 C 0.75678 0.66854 0.9499 0.0
C805 C 0.79865 0.64951 0.91202 0.0
C806 C 0.71834 0.63494 0.96122 0.0
C807 C 0.72401 0.62054 0.98122 0.0
C808 C 0.76831 0.63967 0.99047 0.0
C809 C 0.80667 0.67434 0.97936 0.0
C810 C 0.80094 0.68862 0.95925 0.0
H811 H 0.80283 0.63619 0.89654 0.0
H812 H 0.83366 0.67506 0.91795 0.0
H813 H 0.7828 0.6202 0.92342 0.0
H814 H 0.68393 0.61911 0.95439 0.0
H815 H 0.69357 0.59399 0.98932 0.0
H816 H 0.13614 0.84574 0.32407 0.0
H817 H 0.10405 0.83923 0.28847 0.0
H818 H 0.1057 0.71181 0.27849 0.0
H819 H 0.13782 0.71809 0.31377 0.0
H820 H 0.14379 0.77763 0.24436 0.0
H821 H 0.96916 0.74317 0.2696 0.0
H822 H 0.01808 0.79334 0.28097 0.0
H823 H 0.00799 0.7364 0.28725 0.0
C824 C 0.12963 0.81632 0.31431 0.0
C825 C 0.13929 0.78225 0.3219 0.0
C826 C 0.11109 0.81255 0.294 0.0
C827 C 0.10204 0.77476 0.2809 0.0
C828 C 0.11222 0.74114 0.28834 0.0
H829 H 0.93727 0.6623 0.1679 0.0
H830 H 0.97233 0.67716 0.20306 0.0
C831 C 0.13042 0.74472 0.30861 0.0
C832 C 0.08229 0.77007 0.25936 0.0
H833 H 0.98403 0.74864 0.23289 0.0
C834 C 0.10897 0.77157 0.24182 0.0
C835 C 0.03666 0.76163 0.25612 0.0
C836 C 0.00598 0.75814 0.27443 0.0
C837 C 0.09124 0.76489 0.22114 0.0
C838 C 0.04571 0.75671 0.21788 0.0
C839 C 0.01902 0.75518 0.23542 0.0
C840 C 0.02466 0.7482 0.19645 0.0
C841 C 0.12089 0.76543 0.20294 0.0
C842 C 0.04225 0.78332 0.18105 0.0
C843 C 0.022 0.77512 0.16094 0.0
C844 C 0.98365 0.73157 0.15579 0.0
C845 C 0.96626 0.69646 0.17132 0.0
C846 C 0.9864 0.7048 0.19143 0.0
H847 H 0.15132 0.76302 0.20843 0.0
H848 H 0.10025 0.73625 0.19192 0.0
H849 H 0.13384 0.79833 0.194 0.0
H850 H 0.07134 0.81731 0.18468 0.0
H851 H 0.03588 0.80325 0.14958 0.0
H852 H 0.30895 0.16183 0.65441 0.0
H853 H 0.28259 0.13104 0.61858 0.0
H854 H 0.36904 0.06856 0.61953 0.0
H855 H 0.39556 0.09899 0.65501 0.0
H856 H 0.3453 0.1466 0.58073 0.0
H857 H 0.23396 0.96143 0.60344 0.0
H858 H 0.24943 0.0086 0.62182 0.0
H859 H 0.29093 0.99123 0.61501 0.0
C860 C 0.3222 0.1414 0.647 0.0
C861 C 0.35445 0.13302 0.65761 0.0
C862 C 0.30718 0.12393 0.62653 0.0
C863 C 0.32358 0.09719 0.61648 0.0
C864 C 0.3556 0.08872 0.62706 0.0
H865 H 0.2833 0.94744 0.49936 0.0
H866 H 0.30283 0.98028 0.53491 0.0
C867 C 0.37091 0.10644 0.64734 0.0
C868 C 0.30825 0.07871 0.59477 0.0
H869 H 0.24908 0.97758 0.5669 0.0
C870 C 0.32386 0.10971 0.57766 0.0
C871 C 0.28072 0.03055 0.59084 0.0
C872 C 0.26239 -0.00413 0.60871 0.0
C873 C 0.31384 0.09374 0.55664 0.0
C874 C 0.2863 0.04542 0.55264 0.0
C875 C 0.27016 0.01455 0.56987 0.0
C876 C 0.27466 0.02602 0.53077 0.0
C877 C 0.3345 0.12871 0.53894 0.0
C878 C 0.25182 0.04024 0.51653 0.0
C879 C 0.24126 0.02201 0.49599 0.0
C880 C 0.25266 0.98851 0.48926 0.0
C881 C 0.27478 0.97376 0.50374 0.0
C882 C 0.28563 0.99225 0.5242 0.0
H883 H 0.36502 0.16159 0.54436 0.0
H884 H 0.3454 0.11477 0.52552 0.0
H885 H 0.30814 0.13713 0.5331 0.0
H886 H 0.2419 0.06535 0.5213 0.0
H887 H 0.22455 0.0346 0.48534 0.0
loop_
_geom_bond_atom_site_label_1
_geom_bond_atom_site_label_2
_geom_bond_distance
_geom_bond_site_symmetry_2
_ccdc_geom_bond_type
Nd0 C2 2.836 . S
Nd0 O20 2.500 . S
Nd0 O21 2.492 . S
Nd0 O22 2.487 . S
Nd0 O23 2.682 . S
Nd0 O24 2.410 . S
Nd0 O29 2.414 . S
Nd0 O31 2.424 . S
Nd1 C11 2.836 1_554 S
Nd1 O23 2.414 . S
Nd1 O25 2.424 . S
Nd1 O26 2.500 1_554 S
Nd1 O27 2.492 1_554 S
Nd1 O28 2.487 . S
Nd1 O29 2.682 . S
Nd1 O30 2.410 1_554 S
C2 Nd0 2.836 . S
C2 C3 1.498 . S
C2 O20 1.258 . S
C2 O21 1.239 . S
C3 C2 1.498 . S
C3 C4 1.366 . S
C3 C8 1.407 . S
C4 C3 1.366 . S
C4 C5 1.392 . S
C4 H32 0.930 . S
C5 C4 1.392 . S
C5 C6 1.398 . S
C5 H33 0.929 . S
C6 C5 1.398 . S
C6 C7 1.352 . S
C7 C6 1.352 . S
C7 C8 1.384 . S
C7 H34 0.930 . S
C8 C3 1.407 . S
C8 C7 1.384 . S
C8 H35 0.929 . S
C9 O22 1.241 . S
C9 O23 1.273 . S
C10 O24 1.251 . S
C10 O25 1.268 . S
C11 Nd1 2.836 1_556 S
C11 C12 1.498 . S
C11 O26 1.258 . S
C11 O27 1.239 . S
C12 C11 1.498 . S
C12 C13 1.366 . S
C12 C17 1.407 . S
C13 C12 1.366 . S
C13 C14 1.392 . S
C13 H36 0.930 . S
C14 C13 1.392 . S
C14 C15 1.398 . S
C14 H37 0.929 . S
C15 C14 1.398 . S
C15 C16 1.352 . S
C16 C15 1.352 . S
C16 C17 1.384 . S
C16 H38 0.930 . S
C17 C12 1.407 . S
C17 C16 1.384 . S
C17 H39 0.929 . S
C18 O28 1.241 . S
C18 O29 1.273 . S
C19 O30 1.251 . S
C19 O31 1.268 1_556 S
O20 Nd0 2.500 . S
O20 C2 1.258 . S
O21 Nd0 2.492 . S
O21 C2 1.239 . S
O22 Nd0 2.487 . S
O22 C9 1.241 . S
O23 Nd0 2.682 . S
O23 Nd1 2.414 . S
O23 C9 1.273 . S
O24 Nd0 2.410 . S
O24 C10 1.251 . S
O25 Nd1 2.424 . S
O25 C10 1.268 . S
O26 Nd1 2.500 1_556 S
O26 C11 1.258 . S
O27 Nd1 2.492 1_556 S
O27 C11 1.239 . S
O28 Nd1 2.487 . S
O28 C18 1.241 . S
O29 Nd0 2.414 . S
O29 Nd1 2.682 . S
O29 C18 1.273 . S
O30 Nd1 2.410 1_556 S
O30 C19 1.251 . S
O31 Nd0 2.424 . S
O31 C19 1.268 1_554 S
H32 C4 0.930 . S
H33 C5 0.929 . S
H34 C7 0.930 . S
H35 C8 0.929 . S
H36 C13 0.930 . S
H37 C14 0.929 . S
H38 C16 0.930 . S
H39 C17 0.929 . S
Nd40 C42 2.836 . S
Nd40 O60 2.500 . S
Nd40 O61 2.492 . S
Nd40 O62 2.487 . S
Nd40 O63 2.682 . S
Nd40 O64 2.410 . S
Nd40 O69 2.414 . S
Nd40 O71 2.424 . S
Nd41 C51 2.836 . S
Nd41 O63 2.414 . S
Nd41 O65 2.424 . S
Nd41 O66 2.500 . S
Nd41 O67 2.492 . S
Nd41 O68 2.487 . S
Nd41 O69 2.682 . S
Nd41 O70 2.410 . S
C42 Nd40 2.836 . S
C42 C43 1.498 . S
C42 O60 1.258 . S
C42 O61 1.239 . S
C43 C42 1.498 . S
C43 C44 1.366 . S
C43 C48 1.407 . S
C44 C43 1.366 . S
C44 C45 1.392 . S
C44 H72 0.930 . S
C45 C44 1.392 . S
C45 C46 1.398 . S
C45 H73 0.929 . S
C46 C45 1.398 . S
C46 C47 1.352 . S
C47 C46 1.352 . S
C47 C48 1.384 . S
C47 H74 0.930 . S
C48 C43 1.407 . S
C48 C47 1.384 . S
C48 H75 0.929 . S
C49 O62 1.241 . S
C49 O63 1.273 . S
C50 O64 1.251 . S
C50 O65 1.268 . S
C51 Nd41 2.836 . S
C51 C52 1.498 . S
C51 O66 1.258 . S
C51 O67 1.239 . S
C52 C51 1.498 . S
C52 C53 1.366 . S
C52 C57 1.407 . S
C53 C52 1.366 . S
C53 C54 1.392 . S
C53 H76 0.930 . S
C54 C53 1.392 . S
C54 C55 1.398 . S
C54 H77 0.929 . S
C55 C54 1.398 . S
C55 C56 1.352 . S
C56 C55 1.352 . S
C56 C57 1.384 . S
C56 H78 0.930 . S
C57 C52 1.407 . S
C57 C56 1.384 . S
C57 H79 0.929 . S
C58 O68 1.241 . S
C58 O69 1.273 . S
C59 O70 1.251 . S
C59 O71 1.268 . S
O60 Nd40 2.500 . S
O60 C42 1.258 . S
O61 Nd40 2.492 . S
O61 C42 1.239 . S
O62 Nd40 2.487 . S
O62 C49 1.241 . S
O63 Nd40 2.682 . S
O63 Nd41 2.414 . S
O63 C49 1.273 . S
O64 Nd40 2.410 . S
O64 C50 1.251 . S
O65 Nd41 2.424 . S
O65 C50 1.268 . S
O66 Nd41 2.500 . S
O66 C51 1.258 . S
O67 Nd41 2.492 . S
O67 C51 1.239 . S
O68 Nd41 2.487 . S
O68 C58 1.241 . S
O69 Nd40 2.414 . S
O69 Nd41 2.682 . S
O69 C58 1.273 . S
O70 Nd41 2.410 . S
O70 C59 1.251 . S
O71 Nd40 2.424 . S
O71 C59 1.268 . S
H72 C44 0.930 . S
H73 C45 0.929 . S
H74 C47 0.930 . S
H75 C48 0.929 . S
H76 C53 0.930 . S
H77 C54 0.929 . S
H78 C56 0.930 . S
H79 C57 0.929 . S
Nd80 C82 2.836 . S
Nd80 O100 2.500 . S
Nd80 O101 2.492 . S
Nd80 O102 2.487 . S
Nd80 O103 2.682 . S
Nd80 O104 2.410 . S
Nd80 O109 2.414 . S
Nd80 O111 2.424 . S
Nd81 C91 2.836 . S
Nd81 O103 2.414 . S
Nd81 O105 2.424 . S
Nd81 O106 2.500 . S
Nd81 O107 2.492 . S
Nd81 O108 2.487 . S
Nd81 O109 2.682 . S
Nd81 O110 2.410 . S
C82 Nd80 2.836 . S
C82 C83 1.498 . S
C82 O100 1.258 . S
C82 O101 1.239 . S
C83 C82 1.498 . S
C83 C84 1.366 . S
C83 C88 1.407 . S
C84 C83 1.366 . S
C84 C85 1.392 . S
C84 H112 0.930 . S
C85 C84 1.392 . S
C85 C86 1.398 . S
C85 H113 0.929 . S
C86 C85 1.398 . S
C86 C87 1.352 . S
C87 C86 1.352 . S
C87 C88 1.384 . S
C87 H114 0.930 . S
C88 C83 1.407 . S
C88 C87 1.384 . S
C88 H115 0.929 . S
C89 O102 1.241 . S
C89 O103 1.273 . S
C90 O104 1.251 . S
C90 O105 1.268 . S
C91 Nd81 2.836 . S
C91 C92 1.498 . S
C91 O106 1.258 . S
C91 O107 1.239 . S
C92 C91 1.498 . S
C92 C93 1.366 . S
C92 C97 1.407 . S
C93 C92 1.366 . S
C93 C94 1.392 . S
C93 H116 0.930 . S
C94 C93 1.392 . S
C94 C95 1.398 . S
C94 H117 0.929 . S
C95 C94 1.398 . S
C95 C96 1.352 . S
C96 C95 1.352 . S
C96 C97 1.384 . S
C96 H118 0.930 . S
C97 C92 1.407 . S
C97 C96 1.384 . S
C97 H119 0.929 . S
C98 O108 1.241 . S
C98 O109 1.273 . S
C99 O110 1.251 . S
C99 O111 1.268 . S
O100 Nd80 2.500 . S
O100 C82 1.258 . S
O101 Nd80 2.492 . S
O101 C82 1.239 . S
O102 Nd80 2.487 . S
O102 C89 1.241 . S
O103 Nd80 2.682 . S
O103 Nd81 2.414 . S
O103 C89 1.273 . S
O104 Nd80 2.410 . S
O104 C90 1.251 . S
O105 Nd81 2.424 . S
O105 C90 1.268 . S
O106 Nd81 2.500 . S
O106 C91 1.258 . S
O107 Nd81 2.492 . S
O107 C91 1.239 . S
O108 Nd81 2.487 . S
O108 C98 1.241 . S
O109 Nd80 2.414 . S
O109 Nd81 2.682 . S
O109 C98 1.273 . S
O110 Nd81 2.410 . S
O110 C99 1.251 . S
O111 Nd80 2.424 . S
O111 C99 1.268 . S
H112 C84 0.930 . S
H113 C85 0.929 . S
H114 C87 0.930 . S
H115 C88 0.929 . S
H116 C93 0.930 . S
H117 C94 0.929 . S
H118 C96 0.930 . S
H119 C97 0.929 . S
Nd120 C122 2.836 . S
Nd120 O140 2.500 . S
Nd120 O141 2.492 . S
Nd120 O142 2.487 . S
Nd120 O143 2.682 . S
Nd120 O144 2.410 . S
Nd120 O149 2.414 . S
Nd120 O151 2.424 . S
Nd121 C131 2.836 1_554 S
Nd121 O143 2.414 . S
Nd121 O145 2.424 . S
Nd121 O146 2.500 1_554 S
Nd121 O147 2.492 1_554 S
Nd121 O148 2.487 . S
Nd121 O149 2.682 . S
Nd121 O150 2.410 1_554 S
C122 Nd120 2.836 . S
C122 C123 1.498 . S
C122 O140 1.258 . S
C122 O141 1.239 . S
C123 C122 1.498 . S
C123 C124 1.366 . S
C123 C128 1.407 . S
C124 C123 1.366 . S
C124 C125 1.392 . S
C124 H152 0.930 . S
C125 C124 1.392 . S
C125 C126 1.398 . S
C125 H153 0.929 . S
C126 C125 1.398 . S
C126 C127 1.352 . S
C127 C126 1.352 . S
C127 C128 1.384 . S
C127 H154 0.930 . S
C128 C123 1.407 . S
C128 C127 1.384 . S
C128 H155 0.929 . S
C129 O142 1.241 . S
C129 O143 1.273 . S
C130 O144 1.251 . S
C130 O145 1.268 . S
C131 Nd121 2.836 1_556 S
C131 C132 1.498 . S
C131 O146 1.258 . S
C131 O147 1.239 . S
C132 C131 1.498 . S
C132 C133 1.366 . S
C132 C137 1.407 . S
C133 C132 1.366 . S
C133 C134 1.392 . S
C133 H156 0.930 . S
C134 C133 1.392 . S
C134 C135 1.398 . S
C134 H157 0.929 . S
C135 C134 1.398 . S
C135 C136 1.352 . S
C136 C135 1.352 . S
C136 C137 1.384 . S
C136 H158 0.930 . S
C137 C132 1.407 . S
C137 C136 1.384 . S
C137 H159 0.929 . S
C138 O148 1.241 . S
C138 O149 1.273 . S
C139 O150 1.251 . S
C139 O151 1.268 1_556 S
O140 Nd120 2.500 . S
O140 C122 1.258 . S
O141 Nd120 2.492 . S
O141 C122 1.239 . S
O142 Nd120 2.487 . S
O142 C129 1.241 . S
O143 Nd120 2.682 . S
O143 Nd121 2.414 . S
O143 C129 1.273 . S
O144 Nd120 2.410 . S
O144 C130 1.251 . S
O145 Nd121 2.424 . S
O145 C130 1.268 . S
O146 Nd121 2.500 1_556 S
O146 C131 1.258 . S
O147 Nd121 2.492 1_556 S
O147 C131 1.239 . S
O148 Nd121 2.487 . S
O148 C138 1.241 . S
O149 Nd120 2.414 . S
O149 Nd121 2.682 . S
O149 C138 1.273 . S
O150 Nd121 2.410 1_556 S
O150 C139 1.251 . S
O151 Nd120 2.424 . S
O151 C139 1.268 1_554 S
H152 C124 0.930 . S
H153 C125 0.929 . S
H154 C127 0.930 . S
H155 C128 0.929 . S
H156 C133 0.930 . S
H157 C134 0.929 . S
H158 C136 0.930 . S
H159 C137 0.929 . S
Nd160 C162 2.836 . S
Nd160 O180 2.500 . S
Nd160 O181 2.492 . S
Nd160 O182 2.487 . S
Nd160 O183 2.682 . S
Nd160 O184 2.410 . S
Nd160 O189 2.414 . S
Nd160 O191 2.424 . S
Nd161 C171 2.836 . S
Nd161 O183 2.414 . S
Nd161 O185 2.424 . S
Nd161 O186 2.500 . S
Nd161 O187 2.492 . S
Nd161 O188 2.487 . S
Nd161 O189 2.682 . S
Nd161 O190 2.410 . S
C162 Nd160 2.836 . S
C162 C163 1.498 . S
C162 O180 1.258 . S
C162 O181 1.239 . S
C163 C162 1.498 . S
C163 C164 1.366 . S
C163 C168 1.407 . S
C164 C163 1.366 . S
C164 C165 1.392 . S
C164 H192 0.930 . S
C165 C164 1.392 . S
C165 C166 1.398 . S
C165 H193 0.929 . S
C166 C165 1.398 . S
C166 C167 1.352 . S
C167 C166 1.352 . S
C167 C168 1.384 . S
C167 H194 0.930 . S
C168 C163 1.407 . S
C168 C167 1.384 . S
C168 H195 0.929 . S
C169 O182 1.241 . S
C169 O183 1.273 . S
C170 O184 1.251 . S
C170 O185 1.268 . S
C171 Nd161 2.836 . S
C171 C172 1.498 . S
C171 O186 1.258 . S
C171 O187 1.239 . S
C172 C171 1.498 . S
C172 C173 1.366 . S
C172 C177 1.407 . S
C173 C172 1.366 . S
C173 C174 1.392 . S
C173 H196 0.930 . S
C174 C173 1.392 . S
C174 C175 1.398 . S
C174 H197 0.929 . S
C175 C174 1.398 . S
C175 C176 1.352 . S
C176 C175 1.352 . S
C176 C177 1.384 . S
C176 H198 0.930 . S
C177 C172 1.407 . S
C177 C176 1.384 . S
C177 H199 0.929 . S
C178 O188 1.241 . S
C178 O189 1.273 . S
C179 O190 1.251 . S
C179 O191 1.268 . S
O180 Nd160 2.500 . S
O180 C162 1.258 . S
O181 Nd160 2.492 . S
O181 C162 1.239 . S
O182 Nd160 2.487 . S
O182 C169 1.241 . S
O183 Nd160 2.682 . S
O183 Nd161 2.414 . S
O183 C169 1.273 . S
O184 Nd160 2.410 . S
O184 C170 1.251 . S
O185 Nd161 2.424 . S
O185 C170 1.268 . S
O186 Nd161 2.500 . S
O186 C171 1.258 . S
O187 Nd161 2.492 . S
O187 C171 1.239 . S
O188 Nd161 2.487 . S
O188 C178 1.241 . S
O189 Nd160 2.414 . S
O189 Nd161 2.682 . S
O189 C178 1.273 . S
O190 Nd161 2.410 . S
O190 C179 1.251 . S
O191 Nd160 2.424 . S
O191 C179 1.268 . S
H192 C164 0.930 . S
H193 C165 0.929 . S
H194 C167 0.930 . S
H195 C168 0.929 . S
H196 C173 0.930 . S
H197 C174 0.929 . S
H198 C176 0.930 . S
H199 C177 0.929 . S
Nd200 C202 2.836 . S
Nd200 O220 2.500 . S
Nd200 O221 2.492 . S
Nd200 O222 2.487 . S
Nd200 O223 2.682 . S
Nd200 O224 2.410 . S
Nd200 O229 2.414 . S
Nd200 O231 2.424 . S
Nd201 C211 2.836 . S
Nd201 O223 2.414 . S
Nd201 O225 2.424 . S
Nd201 O226 2.500 . S
Nd201 O227 2.492 . S
Nd201 O228 2.487 . S
Nd201 O229 2.682 . S
Nd201 O230 2.410 . S
C202 Nd200 2.836 . S
C202 C203 1.498 . S
C202 O220 1.258 . S
C202 O221 1.239 . S
C203 C202 1.498 . S
C203 C204 1.366 . S
C203 C208 1.407 . S
C204 C203 1.366 . S
C204 C205 1.392 . S
C204 H232 0.930 . S
C205 C204 1.392 . S
C205 C206 1.398 . S
C205 H233 0.929 . S
C206 C205 1.398 . S
C206 C207 1.352 . S
C207 C206 1.352 . S
C207 C208 1.384 . S
C207 H234 0.930 . S
C208 C203 1.407 . S
C208 C207 1.384 . S
C208 H235 0.929 . S
C209 O222 1.241 . S
C209 O223 1.273 . S
C210 O224 1.251 . S
C210 O225 1.268 . S
C211 Nd201 2.836 . S
C211 C212 1.498 . S
C211 O226 1.258 . S
C211 O227 1.239 . S
C212 C211 1.498 . S
C212 C213 1.366 . S
C212 C217 1.407 . S
C213 C212 1.366 . S
C213 C214 1.392 . S
C213 H236 0.930 . S
C214 C213 1.392 . S
C214 C215 1.398 . S
C214 H237 0.929 . S
C215 C214 1.398 . S
C215 C216 1.352 . S
C216 C215 1.352 . S
C216 C217 1.384 . S
C216 H238 0.930 . S
C217 C212 1.407 . S
C217 C216 1.384 . S
C217 H239 0.929 . S
C218 O228 1.241 . S
C218 O229 1.273 . S
C219 O230 1.251 . S
C219 O231 1.268 . S
O220 Nd200 2.500 . S
O220 C202 1.258 . S
O221 Nd200 2.492 . S
O221 C202 1.239 . S
O222 Nd200 2.487 . S
O222 C209 1.241 . S
O223 Nd200 2.682 . S
O223 Nd201 2.414 . S
O223 C209 1.273 . S
O224 Nd200 2.410 . S
O224 C210 1.251 . S
O225 Nd201 2.424 . S
O225 C210 1.268 . S
O226 Nd201 2.500 . S
O226 C211 1.258 . S
O227 Nd201 2.492 . S
O227 C211 1.239 . S
O228 Nd201 2.487 . S
O228 C218 1.241 . S
O229 Nd200 2.414 . S
O229 Nd201 2.682 . S
O229 C218 1.273 . S
O230 Nd201 2.410 . S
O230 C219 1.251 . S
O231 Nd200 2.424 . S
O231 C219 1.268 . S
H232 C204 0.930 . S
H233 C205 0.929 . S
H234 C207 0.930 . S
H235 C208 0.929 . S
H236 C213 0.930 . S
H237 C214 0.929 . S
H238 C216 0.930 . S
H239 C217 0.929 . S
H240 C248 0.929 . S
H241 C250 0.930 . S
H242 C252 0.930 . S
H243 C255 0.929 . S
H244 C258 0.930 . S
H245 C260 0.960 . S
H246 C260 0.960 . S
H247 C260 0.960 . S
C248 H240 0.929 . S
C248 C249 1.377 . S
C248 C250 1.384 . S
C249 C248 1.377 . S
C249 C255 1.390 . S
C250 H241 0.930 . S
C250 C248 1.384 . S
C250 C251 1.372 . S
C251 C250 1.372 . S
C251 C252 1.400 . S
C251 C256 1.490 . S
C252 H242 0.930 . S
C252 C251 1.400 . S
C252 C255 1.386 . S
H253 C269 0.930 . S
H254 C270 0.931 . S
C255 H243 0.929 . S
C255 C249 1.390 . S
C255 C252 1.386 . S
C256 C251 1.490 . S
C256 C258 1.395 . S
C256 C259 1.403 . S
H257 C263 0.930 . S
C258 H244 0.930 . S
C258 C256 1.395 . S
C258 C261 1.403 . S
C259 C256 1.403 . S
C259 C260 1.524 . S
C259 C263 1.400 . S
C260 H245 0.960 . S
C260 H246 0.960 . S
C260 H247 0.960 . S
C260 C259 1.524 . S
C261 C258 1.403 . S
C261 C262 1.392 . S
C261 C265 1.495 . S
C262 C261 1.392 . S
C262 C263 1.385 . S
C262 C264 1.478 . S
C263 H257 0.930 . S
C263 C259 1.400 . S
C263 C262 1.385 . S
C264 C262 1.478 . S
C264 C266 1.381 . S
C264 C270 1.383 . S
C265 C261 1.495 . S
C265 H271 0.959 . S
C265 H272 0.961 . S
C265 H273 0.960 . S
C266 C264 1.381 . S
C266 C267 1.394 . S
C266 H274 0.930 . S
C267 C266 1.394 . S
C267 C268 1.383 . S
C267 H275 0.929 . S
C268 C267 1.383 . S
C268 C269 1.377 . S
C269 H253 0.930 . S
C269 C268 1.377 . S
C269 C270 1.379 . S
C270 H254 0.931 . S
C270 C264 1.383 . S
C270 C269 1.379 . S
H271 C265 0.959 . S
H272 C265 0.961 . S
H273 C265 0.960 . S
H274 C266 0.930 . S
H275 C267 0.929 . S
H276 C284 0.929 . S
H277 C286 0.930 . S
H278 C288 0.930 . S
H279 C291 0.929 . S
H280 C294 0.930 . S
H281 C296 0.960 . S
H282 C296 0.960 . S
H283 C296 0.960 . S
C284 H276 0.929 . S
C284 C285 1.377 . S
C284 C286 1.384 . S
C285 C284 1.377 . S
C285 C291 1.390 . S
C286 H277 0.930 . S
C286 C284 1.384 . S
C286 C287 1.372 . S
C287 C286 1.372 . S
C287 C288 1.400 . S
C287 C292 1.490 . S
C288 H278 0.930 . S
C288 C287 1.400 . S
C288 C291 1.386 . S
H289 C305 0.930 . S
H290 C306 0.931 . S
C291 H279 0.929 . S
C291 C285 1.390 . S
C291 C288 1.386 . S
C292 C287 1.490 . S
C292 C294 1.395 . S
C292 C295 1.403 . S
H293 C299 0.930 . S
C294 H280 0.930 . S
C294 C292 1.395 . S
C294 C297 1.403 . S
C295 C292 1.403 . S
C295 C296 1.524 . S
C295 C299 1.400 . S
C296 H281 0.960 . S
C296 H282 0.960 . S
C296 H283 0.960 . S
C296 C295 1.524 . S
C297 C294 1.403 . S
C297 C298 1.392 . S
C297 C301 1.495 . S
C298 C297 1.392 . S
C298 C299 1.385 . S
C298 C300 1.478 . S
C299 H293 0.930 . S
C299 C295 1.400 . S
C299 C298 1.385 . S
C300 C298 1.478 . S
C300 C302 1.381 . S
C300 C306 1.383 . S
C301 C297 1.495 . S
C301 H307 0.959 . S
C301 H308 0.961 . S
C301 H309 0.960 . S
C302 C300 1.381 . S
C302 C303 1.394 . S
C302 H310 0.930 . S
C303 C302 1.394 . S
C303 C304 1.383 . S
C303 H311 0.929 . S
C304 C303 1.383 . S
C304 C305 1.377 . S
C305 H289 0.930 . S
C305 C304 1.377 . S
C305 C306 1.379 . S
C306 H290 0.931 . S
C306 C300 1.383 . S
C306 C305 1.379 . S
H307 C301 0.959 . S
H308 C301 0.961 . S
H309 C301 0.960 . S
H310 C302 0.930 . S
H311 C303 0.929 . S
H312 C320 0.929 . S
H313 C322 0.930 . S
H314 C324 0.930 . S
H315 C327 0.929 . S
H316 C330 0.930 . S
H317 C332 0.960 . S
H318 C332 0.960 . S
H319 C332 0.960 . S
C320 H312 0.929 . S
C320 C321 1.377 . S
C320 C322 1.384 . S
C321 C320 1.377 . S
C321 C327 1.390 . S
C322 H313 0.930 . S
C322 C320 1.384 . S
C322 C323 1.372 . S
C323 C322 1.372 . S
C323 C324 1.400 . S
C323 C328 1.490 . S
C324 H314 0.930 . S
C324 C323 1.400 . S
C324 C327 1.386 . S
H325 C341 0.930 . S
H326 C342 0.931 . S
C327 H315 0.929 . S
C327 C321 1.390 . S
C327 C324 1.386 . S
C328 C323 1.490 . S
C328 C330 1.395 . S
C328 C331 1.403 . S
H329 C335 0.930 . S
C330 H316 0.930 . S
C330 C328 1.395 . S
C330 C333 1.403 . S
C331 C328 1.403 . S
C331 C332 1.524 . S
C331 C335 1.400 . S
C332 H317 0.960 . S
C332 H318 0.960 . S
C332 H319 0.960 . S
C332 C331 1.524 . S
C333 C330 1.403 . S
C333 C334 1.392 . S
C333 C337 1.495 . S
C334 C333 1.392 . S
C334 C335 1.385 . S
C334 C336 1.478 . S
C335 H329 0.930 . S
C335 C331 1.400 . S
C335 C334 1.385 . S
C336 C334 1.478 . S
C336 C338 1.381 . S
C336 C342 1.383 . S
C337 C333 1.495 . S
C337 H343 0.959 . S
C337 H344 0.961 . S
C337 H345 0.960 . S
C338 C336 1.381 . S
C338 C339 1.394 . S
C338 H346 0.930 . S
C339 C338 1.394 . S
C339 C340 1.383 . S
C339 H347 0.929 . S
C340 C339 1.383 . S
C340 C341 1.377 . S
C341 H325 0.930 . S
C341 C340 1.377 . S
C341 C342 1.379 . S
C342 H326 0.931 . S
C342 C336 1.383 . S
C342 C341 1.379 . S
H343 C337 0.959 . S
H344 C337 0.961 . S
H345 C337 0.960 . S
H346 C338 0.930 . S
H347 C339 0.929 . S
H348 C356 0.929 . S
H349 C358 0.930 . S
H350 C360 0.930 . S
H351 C363 0.929 . S
H352 C366 0.930 . S
H353 C368 0.960 . S
H354 C368 0.960 . S
H355 C368 0.960 . S
C356 H348 0.929 . S
C356 C357 1.377 . S
C356 C358 1.384 . S
C357 C356 1.377 . S
C357 C363 1.390 . S
C358 H349 0.930 . S
C358 C356 1.384 . S
C358 C359 1.372 . S
C359 C358 1.372 . S
C359 C360 1.400 . S
C359 C364 1.490 . S
C360 H350 0.930 . S
C360 C359 1.400 . S
C360 C363 1.386 . S
H361 C377 0.930 . S
H362 C378 0.931 . S
C363 H351 0.929 . S
C363 C357 1.390 . S
C363 C360 1.386 . S
C364 C359 1.490 . S
C364 C366 1.395 . S
C364 C367 1.403 . S
H365 C371 0.930 . S
C366 H352 0.930 . S
C366 C364 1.395 . S
C366 C369 1.403 . S
C367 C364 1.403 . S
C367 C368 1.524 . S
C367 C371 1.400 . S
C368 H353 0.960 . S
C368 H354 0.960 . S
C368 H355 0.960 . S
C368 C367 1.524 . S
C369 C366 1.403 . S
C369 C370 1.392 . S
C369 C373 1.495 . S
C370 C369 1.392 . S
C370 C371 1.385 . S
C370 C372 1.478 . S
C371 H365 0.930 . S
C371 C367 1.400 . S
C371 C370 1.385 . S
C372 C370 1.478 . S
C372 C374 1.381 . S
C372 C378 1.383 . S
C373 C369 1.495 . S
C373 H379 0.959 . S
C373 H380 0.961 . S
C373 H381 0.960 . S
C374 C372 1.381 . S
C374 C375 1.394 . S
C374 H382 0.930 . S
C375 C374 1.394 . S
C375 C376 1.383 . S
C375 H383 0.929 . S
C376 C375 1.383 . S
C376 C377 1.377 . S
C377 H361 0.930 . S
C377 C376 1.377 . S
C377 C378 1.379 . S
C378 H362 0.931 . S
C378 C372 1.383 . S
C378 C377 1.379 . S
H379 C373 0.959 . S
H380 C373 0.961 . S
H381 C373 0.960 . S
H382 C374 0.930 . S
H383 C375 0.929 . S
H384 C392 0.929 . S
H385 C394 0.930 . S
H386 C396 0.930 . S
H387 C399 0.929 . S
H388 C402 0.930 . S
H389 C404 0.960 . S
H390 C404 0.960 . S
H391 C404 0.960 . S
C392 H384 0.929 . S
C392 C393 1.377 . S
C392 C394 1.384 . S
C393 C392 1.377 . S
C393 C399 1.390 . S
C394 H385 0.930 . S
C394 C392 1.384 . S
C394 C395 1.372 . S
C395 C394 1.372 . S
C395 C396 1.400 . S
C395 C400 1.490 . S
C396 H386 0.930 . S
C396 C395 1.400 . S
C396 C399 1.386 . S
H397 C413 0.930 . S
H398 C414 0.931 . S
C399 H387 0.929 . S
C399 C393 1.390 . S
C399 C396 1.386 . S
C400 C395 1.490 . S
C400 C402 1.395 . S
C400 C403 1.403 . S
H401 C407 0.930 . S
C402 H388 0.930 . S
C402 C400 1.395 . S
C402 C405 1.403 . S
C403 C400 1.403 . S
C403 C404 1.524 . S
C403 C407 1.400 . S
C404 H389 0.960 . S
C404 H390 0.960 . S
C404 H391 0.960 . S
C404 C403 1.524 . S
C405 C402 1.403 . S
C405 C406 1.392 . S
C405 C409 1.495 . S
C406 C405 1.392 . S
C406 C407 1.385 . S
C406 C408 1.478 . S
C407 H401 0.930 . S
C407 C403 1.400 . S
C407 C406 1.385 . S
C408 C406 1.478 . S
C408 C410 1.381 . S
C408 C414 1.383 . S
C409 C405 1.495 . S
C409 H415 0.959 . S
C409 H416 0.961 . S
C409 H417 0.960 . S
C410 C408 1.381 . S
C410 C411 1.394 . S
C410 H418 0.930 . S
C411 C410 1.394 . S
C411 C412 1.383 . S
C411 H419 0.929 . S
C412 C411 1.383 . S
C412 C413 1.377 . S
C413 H397 0.930 . S
C413 C412 1.377 . S
C413 C414 1.379 . S
C414 H398 0.931 . S
C414 C408 1.383 . S
C414 C413 1.379 . S
H415 C409 0.959 . S
H416 C409 0.961 . S
H417 C409 0.960 . S
H418 C410 0.930 . S
H419 C411 0.929 . S
H420 C428 0.929 . S
H421 C430 0.930 . S
H422 C432 0.930 . S
H423 C435 0.929 . S
H424 C438 0.930 . S
H425 C440 0.960 . S
H426 C440 0.960 . S
H427 C440 0.960 . S
C428 H420 0.929 . S
C428 C429 1.377 . S
C428 C430 1.384 . S
C429 C428 1.377 . S
C429 C435 1.390 . S
C430 H421 0.930 . S
C430 C428 1.384 . S
C430 C431 1.372 . S
C431 C430 1.372 . S
C431 C432 1.400 . S
C431 C436 1.490 . S
C432 H422 0.930 . S
C432 C431 1.400 . S
C432 C435 1.386 . S
H433 C449 0.930 . S
H434 C450 0.931 . S
C435 H423 0.929 . S
C435 C429 1.390 . S
C435 C432 1.386 . S
C436 C431 1.490 . S
C436 C438 1.395 . S
C436 C439 1.403 . S
H437 C443 0.930 . S
C438 H424 0.930 . S
C438 C436 1.395 . S
C438 C441 1.403 . S
C439 C436 1.403 . S
C439 C440 1.524 . S
C439 C443 1.400 . S
C440 H425 0.960 . S
C440 H426 0.960 . S
C440 H427 0.960 . S
C440 C439 1.524 . S
C441 C438 1.403 . S
C441 C442 1.392 . S
C441 C445 1.495 . S
C442 C441 1.392 . S
C442 C443 1.385 . S
C442 C444 1.478 . S
C443 H437 0.930 . S
C443 C439 1.400 . S
C443 C442 1.385 . S
C444 C442 1.478 . S
C444 C446 1.381 . S
C444 C450 1.383 . S
C445 C441 1.495 . S
C445 H451 0.959 . S
C445 H452 0.961 . S
C445 H453 0.960 . S
C446 C444 1.381 . S
C446 C447 1.394 . S
C446 H454 0.930 . S
C447 C446 1.394 . S
C447 C448 1.383 . S
C447 H455 0.929 . S
C448 C447 1.383 . S
C448 C449 1.377 . S
C449 H433 0.930 . S
C449 C448 1.377 . S
C449 C450 1.379 . S
C450 H434 0.931 . S
C450 C444 1.383 . S
C450 C449 1.379 . S
H451 C445 0.959 . S
H452 C445 0.961 . S
H453 C445 0.960 . S
H454 C446 0.930 . S
H455 C447 0.929 . S
H456 C464 0.929 . S
H457 C466 0.930 . S
H458 C468 0.930 . S
H459 C471 0.929 . S
H460 C474 0.930 . S
H461 C476 0.960 1_556 S
H462 C476 0.960 . S
H463 C476 0.956 1_556 S
C464 H456 0.929 . S
C464 C465 1.377 . S
C464 C466 1.384 . S
C465 C464 1.377 . S
C465 C471 1.390 . S
C466 H457 0.930 . S
C466 C464 1.384 . S
C466 C467 1.372 . S
C467 C466 1.372 . S
C467 C468 1.400 . S
C467 C472 1.490 . S
C468 H458 0.930 . S
C468 C467 1.400 . S
C468 C471 1.386 . S
H469 C485 0.930 . S
H470 C486 0.931 . S
C471 H459 0.929 . S
C471 C465 1.390 . S
C471 C468 1.386 . S
C472 C467 1.490 . S
C472 C474 1.395 . S
C472 C475 1.403 . S
H473 C479 0.930 . S
C474 H460 0.930 . S
C474 C472 1.395 . S
C474 C477 1.403 . S
C475 C472 1.403 . S
C475 C476 1.524 . S
C475 C479 1.400 . S
C476 H461 0.960 1_554 S
C476 H462 0.960 . S
C476 H463 0.956 1_554 S
C476 C475 1.524 . S
C477 C474 1.403 . S
C477 C478 1.392 . S
C477 C481 1.495 . S
C478 C477 1.392 . S
C478 C479 1.385 . S
C478 C480 1.478 . S
C479 H473 0.930 . S
C479 C475 1.400 . S
C479 C478 1.385 . S
C480 C478 1.478 . S
C480 C482 1.381 . S
C480 C486 1.383 . S
C481 C477 1.495 . S
C481 H487 0.959 . S
C481 H488 0.961 . S
C481 H489 0.960 . S
C482 C480 1.381 . S
C482 C483 1.394 . S
C482 H490 0.930 . S
C483 C482 1.394 . S
C483 C484 1.383 . S
C483 H491 0.929 . S
C484 C483 1.383 . S
C484 C485 1.377 . S
C485 H469 0.930 . S
C485 C484 1.377 . S
C485 C486 1.379 . S
C486 H470 0.931 . S
C486 C480 1.383 . S
C486 C485 1.379 . S
H487 C481 0.959 . S
H488 C481 0.961 . S
H489 C481 0.960 . S
H490 C482 0.930 . S
H491 C483 0.929 . S
H492 C500 0.929 . S
H493 C502 0.930 . S
H494 C504 0.930 . S
H495 C507 0.929 . S
H496 C510 0.929 . S
H497 C512 0.960 . S
H498 C512 0.960 . S
H499 C512 0.960 . S
C500 H492 0.929 . S
C500 C501 1.377 . S
C500 C502 1.384 . S
C501 C500 1.377 . S
C501 C507 1.390 . S
C502 H493 0.930 . S
C502 C500 1.384 . S
C502 C503 1.372 . S
C503 C502 1.372 . S
C503 C504 1.400 . S
C503 C508 1.490 . S
C504 H494 0.930 . S
C504 C503 1.400 . S
C504 C507 1.386 . S
H505 C521 0.930 . S
H506 C522 0.931 . S
C507 H495 0.929 . S
C507 C501 1.390 . S
C507 C504 1.386 . S
C508 C503 1.490 . S
C508 C510 1.395 . S
C508 C511 1.403 . S
H509 C515 0.930 . S
C510 H496 0.929 . S
C510 C508 1.395 . S
C510 C513 1.403 1_455 S
C511 C508 1.403 . S
C511 C512 1.524 . S
C511 C515 1.400 1_455 S
C512 H497 0.960 . S
C512 H498 0.960 . S
C512 H499 0.960 . S
C512 C511 1.524 . S
C513 C510 1.403 1_655 S
C513 C514 1.392 . S
C513 C517 1.495 . S
C514 C513 1.392 . S
C514 C515 1.385 . S
C514 C516 1.478 . S
C515 H509 0.930 . S
C515 C511 1.400 1_655 S
C515 C514 1.385 . S
C516 C514 1.478 . S
C516 C518 1.381 . S
C516 C522 1.383 . S
C517 C513 1.495 . S
C517 H523 0.959 . S
C517 H524 0.961 . S
C517 H525 0.960 . S
C518 C516 1.381 . S
C518 C519 1.394 . S
C518 H526 0.930 . S
C519 C518 1.394 . S
C519 C520 1.383 . S
C519 H527 0.929 . S
C520 C519 1.383 . S
C520 C521 1.377 . S
C521 H505 0.930 . S
C521 C520 1.377 . S
C521 C522 1.379 . S
C522 H506 0.931 . S
C522 C516 1.383 . S
C522 C521 1.379 . S
H523 C517 0.959 . S
H524 C517 0.961 . S
H525 C517 0.960 . S
H526 C518 0.930 . S
H527 C519 0.929 . S
H528 C536 0.929 . S
H529 C538 0.930 . S
H530 C540 0.930 . S
H531 C543 0.929 . S
H532 C546 0.930 . S
H533 C548 0.960 . S
H534 C548 0.960 . S
H535 C548 0.960 . S
C536 H528 0.929 . S
C536 C537 1.377 . S
C536 C538 1.384 . S
C537 C536 1.377 . S
C537 C543 1.390 . S
C538 H529 0.930 . S
C538 C536 1.384 . S
C538 C539 1.372 . S
C539 C538 1.372 . S
C539 C540 1.400 . S
C539 C544 1.490 . S
C540 H530 0.930 . S
C540 C539 1.400 . S
C540 C543 1.386 . S
H541 C557 0.930 . S
H542 C558 0.931 . S
C543 H531 0.929 . S
C543 C537 1.390 . S
C543 C540 1.386 . S
C544 C539 1.490 . S
C544 C546 1.395 . S
C544 C547 1.403 1_545 S
H545 C551 0.930 . S
C546 H532 0.930 . S
C546 C544 1.395 . S
C546 C549 1.403 . S
C547 C544 1.403 1_565 S
C547 C548 1.524 . S
C547 C551 1.400 . S
C548 H533 0.960 . S
C548 H534 0.960 . S
C548 H535 0.960 . S
C548 C547 1.524 . S
C549 C546 1.403 . S
C549 C550 1.392 1_545 S
C549 C553 1.495 . S
C550 C549 1.392 1_565 S
C550 C551 1.385 . S
C550 C552 1.478 . S
C551 H545 0.930 . S
C551 C547 1.400 . S
C551 C550 1.385 . S
C552 C550 1.478 . S
C552 C554 1.381 . S
C552 C558 1.383 . S
C553 C549 1.495 . S
C553 H559 0.959 . S
C553 H560 0.961 . S
C553 H561 0.960 . S
C554 C552 1.381 . S
C554 C555 1.394 . S
C554 H562 0.930 . S
C555 C554 1.394 . S
C555 C556 1.383 . S
C555 H563 0.929 . S
C556 C555 1.383 . S
C556 C557 1.377 . S
C557 H541 0.930 . S
C557 C556 1.377 . S
C557 C558 1.379 . S
C558 H542 0.931 . S
C558 C552 1.383 . S
C558 C557 1.379 . S
H559 C553 0.959 . S
H560 C553 0.961 . S
H561 C553 0.960 . S
H562 C554 0.930 . S
H563 C555 0.929 . S
H564 C572 0.929 . S
H565 C574 0.930 . S
H566 C576 0.930 . S
H567 C579 0.929 . S
H568 C582 0.930 . S
H569 C584 0.960 . S
H570 C584 0.960 . S
H571 C584 0.960 . S
C572 H564 0.929 . S
C572 C573 1.377 . S
C572 C574 1.384 . S
C573 C572 1.377 . S
C573 C579 1.390 . S
C574 H565 0.930 . S
C574 C572 1.384 . S
C574 C575 1.372 . S
C575 C574 1.372 . S
C575 C576 1.400 . S
C575 C580 1.490 . S
C576 H566 0.930 . S
C576 C575 1.400 . S
C576 C579 1.386 . S
H577 C593 0.930 . S
H578 C594 0.931 . S
C579 H567 0.929 . S
C579 C573 1.390 . S
C579 C576 1.386 . S
C580 C575 1.490 . S
C580 C582 1.395 . S
C580 C583 1.403 . S
H581 C587 0.930 . S
C582 H568 0.930 . S
C582 C580 1.395 . S
C582 C585 1.403 . S
C583 C580 1.403 . S
C583 C584 1.524 . S
C583 C587 1.400 . S
C584 H569 0.960 . S
C584 H570 0.960 . S
C584 H571 0.960 . S
C584 C583 1.524 . S
C585 C582 1.403 . S
C585 C586 1.392 . S
C585 C589 1.495 . S
C586 C585 1.392 . S
C586 C587 1.385 . S
C586 C588 1.478 . S
C587 H581 0.930 . S
C587 C583 1.400 . S
C587 C586 1.385 . S
C588 C586 1.478 . S
C588 C590 1.381 . S
C588 C594 1.383 . S
C589 C585 1.495 . S
C589 H595 0.959 . S
C589 H596 0.961 . S
C589 H597 0.960 . S
C590 C588 1.381 . S
C590 C591 1.394 . S
C590 H598 0.930 . S
C591 C590 1.394 . S
C591 C592 1.383 . S
C591 H599 0.929 . S
C592 C591 1.383 . S
C592 C593 1.377 . S
C593 H577 0.930 . S
C593 C592 1.377 . S
C593 C594 1.379 . S
C594 H578 0.931 . S
C594 C588 1.383 . S
C594 C593 1.379 . S
H595 C589 0.959 . S
H596 C589 0.961 . S
H597 C589 0.960 . S
H598 C590 0.930 . S
H599 C591 0.929 . S
H600 C608 0.929 . S
H601 C610 0.950 . S
H602 C612 0.930 . S
H603 C615 0.929 . S
H604 C618 0.930 1_556 S
H605 C620 0.960 . S
H606 C620 0.960 . S
H607 C620 0.960 . S
C608 H600 0.929 . S
C608 C609 1.377 . S
C608 C610 1.384 . S
C609 C608 1.377 . S
C609 C615 1.390 . S
C610 H601 0.950 . S
C610 C608 1.384 . S
C610 C611 1.372 . S
C611 C610 1.372 . S
C611 C612 1.400 . S
C611 C616 1.490 . S
C612 H602 0.930 . S
C612 C611 1.400 . S
C612 C615 1.386 . S
H613 C629 0.930 . S
H614 C630 0.931 . S
C615 H603 0.929 . S
C615 C609 1.390 . S
C615 C612 1.386 . S
C616 C611 1.490 . S
C616 C618 1.395 . S
C616 C619 1.403 . S
H617 C623 0.930 . S
C618 H604 0.930 1_554 S
C618 C616 1.395 . S
C618 C621 1.403 1_455 S
C619 C616 1.403 . S
C619 C620 1.524 . S
C619 C623 1.400 1_455 S
C620 H605 0.960 . S
C620 H606 0.960 . S
C620 H607 0.960 . S
C620 C619 1.524 . S
C621 C618 1.403 1_655 S
C621 C622 1.392 . S
C621 C625 1.495 1_554 S
C622 C621 1.392 . S
C622 C623 1.385 . S
C622 C624 1.478 . S
C623 H617 0.930 . S
C623 C619 1.400 1_655 S
C623 C622 1.385 . S
C624 C622 1.478 . S
C624 C626 1.381 . S
C624 C630 1.383 . S
C625 C621 1.495 1_556 S
C625 H631 0.959 . S
C625 H632 0.961 . S
C625 H633 0.960 . S
C626 C624 1.381 . S
C626 C627 1.394 . S
C626 H634 0.915 1_554 S
C627 C626 1.394 . S
C627 C628 1.383 . S
C627 H635 0.929 . S
C628 C627 1.383 . S
C628 C629 1.377 . S
C629 H613 0.930 . S
C629 C628 1.377 . S
C629 C630 1.379 . S
C630 H614 0.931 . S
C630 C624 1.383 . S
C630 C629 1.379 . S
H631 C625 0.959 . S
H632 C625 0.961 . S
H633 C625 0.960 . S
H634 C626 0.915 1_556 S
H635 C627 0.929 . S
H636 C644 0.929 . S
H637 C646 0.930 . S
H638 C648 0.930 . S
H639 C651 0.929 . S
H640 C654 0.930 . S
H641 C656 0.960 . S
H642 C656 0.960 . S
H643 C656 0.960 1_565 S
C644 H636 0.929 . S
C644 C645 1.377 . S
C644 C646 1.384 . S
C645 C644 1.377 . S
C645 C651 1.390 . S
C646 H637 0.930 . S
C646 C644 1.384 . S
C646 C647 1.372 . S
C647 C646 1.372 . S
C647 C648 1.400 . S
C647 C652 1.490 . S
C648 H638 0.930 . S
C648 C647 1.400 . S
C648 C651 1.386 . S
H649 C665 0.930 . S
H650 C666 0.931 . S
C651 H639 0.929 . S
C651 C645 1.390 . S
C651 C648 1.386 . S
C652 C647 1.490 . S
C652 C654 1.395 . S
C652 C655 1.403 1_565 S
H653 C659 0.930 . S
C654 H640 0.930 . S
C654 C652 1.395 . S
C654 C657 1.403 . S
C655 C652 1.403 1_545 S
C655 C656 1.524 . S
C655 C659 1.400 . S
C656 H641 0.960 . S
C656 H642 0.960 . S
C656 H643 0.960 1_545 S
C656 C655 1.524 . S
C657 C654 1.403 . S
C657 C658 1.392 1_565 S
C657 C661 1.495 . S
C658 C657 1.392 1_545 S
C658 C659 1.385 . S
C658 C660 1.478 . S
C659 H653 0.930 . S
C659 C655 1.400 . S
C659 C658 1.385 . S
C660 C658 1.478 . S
C660 C662 1.381 . S
C660 C666 1.383 . S
C661 C657 1.495 . S
C661 H667 0.959 . S
C661 H668 0.961 . S
C661 H669 0.960 1_565 S
C662 C660 1.381 . S
C662 C663 1.394 . S
C662 H670 0.930 . S
C663 C662 1.394 . S
C663 C664 1.383 . S
C663 H671 0.929 . S
C664 C663 1.383 . S
C664 C665 1.377 . S
C665 H649 0.930 . S
C665 C664 1.377 . S
C665 C666 1.379 . S
C666 H650 0.931 . S
C666 C660 1.383 . S
C666 C665 1.379 . S
H667 C661 0.959 . S
H668 C661 0.961 . S
H669 C661 0.960 1_545 S
H670 C662 0.930 . S
H671 C663 0.929 . S
H672 C680 0.929 . S
H673 C682 0.930 . S
H674 C684 0.930 . S
H675 C687 0.929 . S
H676 C690 0.930 . S
H677 C692 0.960 . S
H678 C692 0.960 . S
H679 C692 0.960 . S
C680 H672 0.929 . S
C680 C681 1.377 . S
C680 C682 1.384 . S
C681 C680 1.377 . S
C681 C687 1.390 . S
C682 H673 0.930 . S
C682 C680 1.384 . S
C682 C683 1.372 . S
C683 C682 1.372 . S
C683 C684 1.400 . S
C683 C688 1.490 . S
C684 H674 0.930 . S
C684 C683 1.400 . S
C684 C687 1.386 . S
H685 C701 0.930 . S
H686 C702 0.931 . S
C687 H675 0.929 . S
C687 C681 1.390 . S
C687 C684 1.386 . S
C688 C683 1.490 . S
C688 C690 1.395 . S
C688 C691 1.403 . S
H689 C695 0.930 . S
C690 H676 0.930 . S
C690 C688 1.395 . S
C690 C693 1.403 . S
C691 C688 1.403 . S
C691 C692 1.524 . S
C691 C695 1.400 . S
C692 H677 0.960 . S
C692 H678 0.960 . S
C692 H679 0.960 . S
C692 C691 1.524 . S
C693 C690 1.403 . S
C693 C694 1.392 . S
C693 C697 1.495 . S
C694 C693 1.392 . S
C694 C695 1.385 . S
C694 C696 1.478 . S
C695 H689 0.930 . S
C695 C691 1.400 . S
C695 C694 1.385 . S
C696 C694 1.478 . S
C696 C698 1.381 . S
C696 C702 1.383 . S
C697 C693 1.495 . S
C697 H703 0.959 . S
C697 H704 0.961 . S
C697 H705 0.960 . S
C698 C696 1.381 . S
C698 C699 1.394 . S
C698 H706 0.930 . S
C699 C698 1.394 . S
C699 C700 1.383 . S
C699 H707 0.929 . S
C700 C699 1.383 . S
C700 C701 1.377 . S
C701 H685 0.930 . S
C701 C700 1.377 . S
C701 C702 1.379 . S
C702 H686 0.931 . S
C702 C696 1.383 . S
C702 C701 1.379 . S
H703 C697 0.959 . S
H704 C697 0.961 . S
H705 C697 0.960 . S
H706 C698 0.930 . S
H707 C699 0.929 . S
H708 C716 0.929 . S
H709 C718 0.930 . S
H710 C720 0.930 . S
H711 C723 0.929 . S
H712 C726 0.930 . S
H713 C728 0.960 . S
H714 C728 0.960 . S
H715 C728 0.960 . S
C716 H708 0.929 . S
C716 C717 1.377 . S
C716 C718 1.384 . S
C717 C716 1.377 . S
C717 C723 1.390 . S
C718 H709 0.930 . S
C718 C716 1.384 . S
C718 C719 1.372 . S
C719 C718 1.372 . S
C719 C720 1.400 . S
C719 C724 1.490 . S
C720 H710 0.930 . S
C720 C719 1.400 . S
C720 C723 1.386 . S
H721 C737 0.930 . S
H722 C738 0.931 1_655 S
C723 H711 0.929 . S
C723 C717 1.390 . S
C723 C720 1.386 . S
C724 C719 1.490 . S
C724 C726 1.395 . S
C724 C727 1.403 . S
H725 C731 0.930 . S
C726 H712 0.930 . S
C726 C724 1.395 . S
C726 C729 1.403 1_655 S
C727 C724 1.403 . S
C727 C728 1.524 . S
C727 C731 1.400 . S
C728 H713 0.960 . S
C728 H714 0.960 . S
C728 H715 0.960 . S
C728 C727 1.524 . S
C729 C726 1.403 1_455 S
C729 C730 1.392 1_455 S
C729 C733 1.495 . S
C730 C729 1.392 1_655 S
C730 C731 1.385 . S
C730 C732 1.478 1_655 S
C731 H725 0.930 . S
C731 C727 1.400 . S
C731 C730 1.385 . S
C732 C730 1.478 1_455 S
C732 C734 1.381 . S
C732 C738 1.383 . S
C733 C729 1.495 . S
C733 H739 0.959 . S
C733 H740 0.961 . S
C733 H741 0.960 . S
C734 C732 1.381 . S
C734 C735 1.394 . S
C734 H742 0.930 . S
C735 C734 1.394 . S
C735 C736 1.383 . S
C735 H743 0.929 . S
C736 C735 1.383 . S
C736 C737 1.377 . S
C737 H721 0.930 . S
C737 C736 1.377 . S
C737 C738 1.379 . S
C738 H722 0.931 1_455 S
C738 C732 1.383 . S
C738 C737 1.379 . S
H739 C733 0.959 . S
H740 C733 0.961 . S
H741 C733 0.960 . S
H742 C734 0.930 . S
H743 C735 0.929 . S
H744 C752 0.929 . S
H745 C754 0.930 . S
H746 C756 0.930 . S
H747 C759 0.929 . S
H748 C762 0.930 . S
H749 C764 0.960 . S
H750 C764 0.960 . S
H751 C764 0.960 . S
C752 H744 0.929 . S
C752 C753 1.377 . S
C752 C754 1.384 . S
C753 C752 1.377 . S
C753 C759 1.390 . S
C754 H745 0.930 . S
C754 C752 1.384 . S
C754 C755 1.372 . S
C755 C754 1.372 . S
C755 C756 1.400 . S
C755 C760 1.490 . S
C756 H746 0.930 . S
C756 C755 1.400 . S
C756 C759 1.386 . S
H757 C773 0.930 . S
H758 C774 0.931 . S
C759 H747 0.929 . S
C759 C753 1.390 . S
C759 C756 1.386 . S
C760 C755 1.490 . S
C760 C762 1.395 . S
C760 C763 1.403 . S
H761 C767 0.930 . S
C762 H748 0.930 . S
C762 C760 1.395 . S
C762 C765 1.403 . S
C763 C760 1.403 . S
C763 C764 1.524 . S
C763 C767 1.400 . S
C764 H749 0.960 . S
C764 H750 0.960 . S
C764 H751 0.960 . S
C764 C763 1.524 . S
C765 C762 1.403 . S
C765 C766 1.392 . S
C765 C769 1.495 1_565 S
C766 C765 1.392 . S
C766 C767 1.385 . S
C766 C768 1.478 1_565 S
C767 H761 0.930 . S
C767 C763 1.400 . S
C767 C766 1.385 . S
C768 C766 1.478 1_545 S
C768 C770 1.381 1_545 S
C768 C774 1.383 . S
C769 C765 1.495 1_545 S
C769 H775 0.959 . S
C769 H776 0.961 . S
C769 H777 0.961 . S
C770 C768 1.381 1_565 S
C770 C771 1.394 1_565 S
C770 H778 0.930 . S
C771 C770 1.394 1_545 S
C771 C772 1.383 . S
C771 H779 0.929 . S
C772 C771 1.383 . S
C772 C773 1.377 . S
C773 H757 0.930 . S
C773 C772 1.377 . S
C773 C774 1.379 . S
C774 H758 0.931 . S
C774 C768 1.383 . S
C774 C773 1.379 . S
H775 C769 0.959 . S
H776 C769 0.961 . S
H777 C769 0.961 . S
H778 C770 0.930 . S
H779 C771 0.929 . S
H780 C788 0.929 . S
H781 C790 0.930 . S
H782 C792 0.930 . S
H783 C795 0.929 . S
H784 C798 0.930 . S
H785 C800 0.960 . S
H786 C800 0.960 . S
H787 C800 0.960 . S
C788 H780 0.929 . S
C788 C789 1.377 . S
C788 C790 1.384 . S
C789 C788 1.377 . S
C789 C795 1.390 . S
C790 H781 0.930 . S
C790 C788 1.384 . S
C790 C791 1.372 . S
C791 C790 1.372 . S
C791 C792 1.400 . S
C791 C796 1.490 . S
C792 H782 0.930 . S
C792 C791 1.400 . S
C792 C795 1.386 . S
H793 C809 0.930 . S
H794 C810 0.931 . S
C795 H783 0.929 . S
C795 C789 1.390 . S
C795 C792 1.386 . S
C796 C791 1.490 . S
C796 C798 1.395 . S
C796 C799 1.403 . S
H797 C803 0.930 . S
C798 H784 0.930 . S
C798 C796 1.395 . S
C798 C801 1.403 . S
C799 C796 1.403 . S
C799 C800 1.524 . S
C799 C803 1.400 . S
C800 H785 0.960 . S
C800 H786 0.960 . S
C800 H787 0.960 . S
C800 C799 1.524 . S
C801 C798 1.403 . S
C801 C802 1.392 . S
C801 C805 1.495 . S
C802 C801 1.392 . S
C802 C803 1.385 . S
C802 C804 1.478 . S
C803 H797 0.930 . S
C803 C799 1.400 . S
C803 C802 1.385 . S
C804 C802 1.478 . S
C804 C806 1.381 . S
C804 C810 1.383 . S
C805 C801 1.495 . S
C805 H811 0.959 . S
C805 H812 0.961 . S
C805 H813 0.960 . S
C806 C804 1.381 . S
C806 C807 1.394 . S
C806 H814 0.930 . S
C807 C806 1.394 . S
C807 C808 1.383 . S
C807 H815 0.929 . S
C808 C807 1.383 . S
C808 C809 1.377 . S
C809 H793 0.930 . S
C809 C808 1.377 . S
C809 C810 1.379 . S
C810 H794 0.931 . S
C810 C804 1.383 . S
C810 C809 1.379 . S
H811 C805 0.959 . S
H812 C805 0.961 . S
H813 C805 0.960 . S
H814 C806 0.930 . S
H815 C807 0.929 . S
H816 C824 0.929 . S
H817 C826 0.930 . S
H818 C828 0.930 . S
H819 C831 0.929 . S
H820 C834 0.930 . S
H821 C836 0.960 . S
H822 C836 0.960 . S
H823 C836 0.960 . S
C824 H816 0.929 . S
C824 C825 1.377 . S
C824 C826 1.384 . S
C825 C824 1.377 . S
C825 C831 1.390 . S
C826 H817 0.930 . S
C826 C824 1.384 . S
C826 C827 1.372 . S
C827 C826 1.372 . S
C827 C828 1.400 . S
C827 C832 1.490 . S
C828 H818 0.930 . S
C828 C827 1.400 . S
C828 C831 1.386 . S
H829 C845 0.930 . S
H830 C846 0.931 . S
C831 H819 0.929 . S
C831 C825 1.390 . S
C831 C828 1.386 . S
C832 C827 1.490 . S
C832 C834 1.395 . S
C832 C835 1.403 . S
H833 C839 0.930 1_655 S
C834 H820 0.930 . S
C834 C832 1.395 . S
C834 C837 1.403 . S
C835 C832 1.403 . S
C835 C836 1.524 . S
C835 C839 1.400 . S
C836 H821 0.960 . S
C836 H822 0.960 . S
C836 H823 0.960 . S
C836 C835 1.524 . S
C837 C834 1.403 . S
C837 C838 1.392 . S
C837 C841 1.495 . S
C838 C837 1.392 . S
C838 C839 1.385 . S
C838 C840 1.478 1_455 S
C839 H833 0.930 1_455 S
C839 C835 1.400 . S
C839 C838 1.385 . S
C840 C838 1.478 1_655 S
C840 C842 1.381 1_655 S
C840 C846 1.383 . S
C841 C837 1.495 . S
C841 H847 0.959 . S
C841 H848 0.961 . S
C841 H849 0.960 . S
C842 C840 1.381 1_455 S
C842 C843 1.394 1_455 S
C842 H850 0.930 . S
C843 C842 1.394 1_655 S
C843 C844 1.383 . S
C843 H851 0.929 1_655 S
C844 C843 1.383 . S
C844 C845 1.377 . S
C845 H829 0.930 . S
C845 C844 1.377 . S
C845 C846 1.379 . S
C846 H830 0.931 . S
C846 C840 1.383 . S
C846 C845 1.379 . S
H847 C841 0.959 . S
H848 C841 0.961 . S
H849 C841 0.960 . S
H850 C842 0.930 . S
H851 C843 0.929 1_455 S
H852 C860 0.929 . S
H853 C862 0.930 . S
H854 C864 0.930 . S
H855 C867 0.929 . S
H856 C870 0.930 . S
H857 C872 0.960 . S
H858 C872 0.960 1_545 S
H859 C872 0.960 . S
C860 H852 0.929 . S
C860 C861 1.377 . S
C860 C862 1.384 . S
C861 C860 1.377 . S
C861 C867 1.390 . S
C862 H853 0.930 . S
C862 C860 1.384 . S
C862 C863 1.372 . S
C863 C862 1.372 . S
C863 C864 1.400 . S
C863 C868 1.490 . S
C864 H854 0.930 . S
C864 C863 1.400 . S
C864 C867 1.386 . S
H865 C881 0.930 . S
H866 C882 0.931 . S
C867 H855 0.929 . S
C867 C861 1.390 . S
C867 C864 1.386 . S
C868 C863 1.490 . S
C868 C870 1.395 . S
C868 C871 1.403 . S
H869 C875 0.920 1_565 S
C870 H856 0.930 . S
C870 C868 1.395 . S
C870 C873 1.403 . S
C871 C868 1.403 . S
C871 C872 1.524 1_545 S
C871 C875 1.404 . S
C872 H857 0.960 . S
C872 H858 0.960 1_565 S
C872 H859 0.960 . S
C872 C871 1.524 1_565 S
C873 C870 1.403 . S
C873 C874 1.392 . S
C873 C877 1.495 . S
C874 C873 1.392 . S
C874 C875 1.391 . S
C874 C876 1.475 1_545 S
C875 H869 0.920 1_545 S
C875 C871 1.404 . S
C875 C874 1.391 . S
C876 C874 1.475 1_565 S
C876 C878 1.378 1_565 S
C876 C882 1.388 . S
C877 C873 1.495 . S
C877 H883 0.959 . S
C877 H884 0.961 . S
C877 H885 0.960 . S
C878 C876 1.378 1_545 S
C878 C879 1.394 1_545 S
C878 H886 0.930 . S
C879 C878 1.394 1_565 S
C879 C880 1.383 . S
C879 H887 0.929 . S
C880 C879 1.383 . S
C880 C881 1.377 . S
C881 H865 0.930 . S
C881 C880 1.377 . S
C881 C882 1.379 . S
C882 H866 0.931 . S
C882 C876 1.388 . S
C882 C881 1.379 . S
H883 C877 0.959 . S
H884 C877 0.961 . S
H885 C877 0.960 . S
H886 C878 0.930 . S
H887 C879 0.929 . S
C249 C175 1.169 . S
C268 C10 1.175 . S
C285 C215 1.171 . S
C304 C50 1.156 . S
C321 C15 1.171 . S
C340 C90 1.158 . S
C357 C55 1.169 . S
C376 C130 1.176 . S
C393 C95 1.170 . S
C412 C170 1.164 . S
C429 C135 1.171 . S
C448 C210 1.149 . S
C465 C9 0.639 . S
C484 C129 0.625 . S
C501 C169 0.639 . S
C520 C49 0.624 . S
C537 C209 0.642 . S
C556 C89 0.653 . S
C573 C98 0.712 . S
C592 C218 0.755 . S
C609 C18 0.678 . S
C628 C138 0.646 . S
C645 C178 0.712 . S
C664 C58 0.760 . S
C681 C206 1.271 . S
C700 C19 1.285 . S
C717 C59 1.292 . S
C736 C6 1.281 . S
C753 C99 1.291 . S
C772 C46 1.258 . S
C789 C86 1.272 . S
C808 C139 1.285 . S
C825 C179 1.291 . S
C844 C126 1.254 . S
C861 C219 1.291 . S
C880 C166 1.264 . S
