# Generated by pormake.
# Topology gis, (4)-cn, num edge types: 1
# Building blocks:
#     Node 0, Type 0, BuildingBlock: UXUYUI_clean_sbu_0, # of connection points: 4
#     Node 1, Type 0, BuildingBlock: UXUYUI_clean_sbu_0, # of connection points: 4
#     Node 2, Type 0, BuildingBlock: UXUYUI_clean_sbu_0, # of connection points: 4
#     Node 3, Type 0, BuildingBlock: UXUYUI_clean_sbu_0, # of connection points: 4
#     Node 4, Type 0, BuildingBlock: UXUYUI_clean_sbu_0, # of connection points: 4
#     Node 5, Type 0, BuildingBlock: UXUYUI_clean_sbu_0, # of connection points: 4
#     Node 6, Type 0, BuildingBlock: UXUYUI_clean_sbu_0, # of connection points: 4
#     Node 7, Type 0, BuildingBlock: UXUYUI_clean_sbu_0, # of connection points: 4
#     Node 8, Type 0, BuildingBlock: UXUYUI_clean_sbu_0, # of connection points: 4
#     Node 9, Type 0, BuildingBlock: UXUYUI_clean_sbu_0, # of connection points: 4
#     Node 10, Type 0, BuildingBlock: UXUYUI_clean_sbu_0, # of connection points: 4
#     Node 11, Type 0, BuildingBlock: UXUYUI_clean_sbu_0, # of connection points: 4
#     Node 12, Type 0, BuildingBlock: UXUYUI_clean_sbu_0, # of connection points: 4
#     Node 13, Type 0, BuildingBlock: UXUYUI_clean_sbu_0, # of connection points: 4
#     Node 14, Type 0, BuildingBlock: UXUYUI_clean_sbu_0, # of connection points: 4
#     Node 15, Type 0, BuildingBlock: UXUYUI_clean_sbu_0, # of connection points: 4
#     Edge 16, Type (0, 0), BuildingBlock: XUDNAN_clean_linker_2, # of connection points: 2
#     Edge 17, Type (0, 0), BuildingBlock: XUDNAN_clean_linker_2, # of connection points: 2
#     Edge 18, Type (0, 0), BuildingBlock: XUDNAN_clean_linker_2, # of connection points: 2
#     Edge 19, Type (0, 0), BuildingBlock: XUDNAN_clean_linker_2, # of connection points: 2
#     Edge 20, Type (0, 0), BuildingBlock: XUDNAN_clean_linker_2, # of connection points: 2
#     Edge 21, Type (0, 0), BuildingBlock: XUDNAN_clean_linker_2, # of connection points: 2
#     Edge 22, Type (0, 0), BuildingBlock: XUDNAN_clean_linker_2, # of connection points: 2
#     Edge 23, Type (0, 0), BuildingBlock: XUDNAN_clean_linker_2, # of connection points: 2
#     Edge 24, Type (0, 0), BuildingBlock: XUDNAN_clean_linker_2, # of connection points: 2
#     Edge 25, Type (0, 0), BuildingBlock: XUDNAN_clean_linker_2, # of connection points: 2
#     Edge 26, Type (0, 0), BuildingBlock: XUDNAN_clean_linker_2, # of connection points: 2
#     Edge 27, Type (0, 0), BuildingBlock: XUDNAN_clean_linker_2, # of connection points: 2
#     Edge 28, Type (0, 0), BuildingBlock: XUDNAN_clean_linker_2, # of connection points: 2
#     Edge 29, Type (0, 0), BuildingBlock: XUDNAN_clean_linker_2, # of connection points: 2
#     Edge 30, Type (0, 0), BuildingBlock: XUDNAN_clean_linker_2, # of connection points: 2
#     Edge 31, Type (0, 0), BuildingBlock: XUDNAN_clean_linker_2, # of connection points: 2
#     Edge 32, Type (0, 0), BuildingBlock: XUDNAN_clean_linker_2, # of connection points: 2
#     Edge 33, Type (0, 0), BuildingBlock: XUDNAN_clean_linker_2, # of connection points: 2
#     Edge 34, Type (0, 0), BuildingBlock: XUDNAN_clean_linker_2, # of connection points: 2
#     Edge 35, Type (0, 0), BuildingBlock: XUDNAN_clean_linker_2, # of connection points: 2
#     Edge 36, Type (0, 0), BuildingBlock: XUDNAN_clean_linker_2, # of connection points: 2
#     Edge 37, Type (0, 0), BuildingBlock: XUDNAN_clean_linker_2, # of connection points: 2
#     Edge 38, Type (0, 0), BuildingBlock: XUDNAN_clean_linker_2, # of connection points: 2
#     Edge 39, Type (0, 0), BuildingBlock: XUDNAN_clean_linker_2, # of connection points: 2
#     Edge 40, Type (0, 0), BuildingBlock: XUDNAN_clean_linker_2, # of connection points: 2
#     Edge 41, Type (0, 0), BuildingBlock: XUDNAN_clean_linker_2, # of connection points: 2
#     Edge 42, Type (0, 0), BuildingBlock: XUDNAN_clean_linker_2, # of connection points: 2
#     Edge 43, Type (0, 0), BuildingBlock: XUDNAN_clean_linker_2, # of connection points: 2
#     Edge 44, Type (0, 0), BuildingBlock: XUDNAN_clean_linker_2, # of connection points: 2
#     Edge 45, Type (0, 0), BuildingBlock: XUDNAN_clean_linker_2, # of connection points: 2
#     Edge 46, Type (0, 0), BuildingBlock: XUDNAN_clean_linker_2, # of connection points: 2
#     Edge 47, Type (0, 0), BuildingBlock: XUDNAN_clean_linker_2, # of connection points: 2
# Relax obj value: 0.245
# Max RMSD: 0.177
# Mean RMSD: 0.176
data_MOF--net-gis--node1-UXUYUI_clean_sbu_0--edge1-XUDNAN_clean_linker_2
_symmetry_space_group_name_H-M    P1
_symmetry_Int_Tables_number       1
_symmetry_cell_setting            triclinic
loop_
_symmetry_equiv_pos_as_xyz
'x, y, z'
_cell_length_a     67.195325
_cell_length_b     67.211549
_cell_length_c     71.548552
_cell_angle_alpha  90.017705
_cell_angle_beta   89.991767
_cell_angle_gamma 90.004292
loop_
_atom_site_label
_atom_site_type_symbol
_atom_site_fract_x
_atom_site_fract_y
_atom_site_fract_z
_atom_type_partial_charge
Li0 Li 0.17219 0.60748 0.12023 0.0
Li1 Li 0.17523 0.57805 0.14031 0.0
Li2 Li 0.17123 0.57394 0.10598 0.0
Li3 Li 0.14353 0.58402 0.12589 0.0
C4 C 0.21112 0.59175 0.11199 0.0
N5 N 0.24709 0.60167 0.09574 0.0
C6 C 0.22834 0.59292 0.12289 0.0
C7 C 0.21224 0.59543 0.09279 0.0
C8 C 0.24637 0.59802 0.11442 0.0
C9 C 0.23055 0.60047 0.08485 0.0
C10 C 0.16 0.60647 0.16211 0.0
C11 C 0.15372 0.60015 0.19475 0.0
N12 N 0.16542 0.61593 0.19933 0.0
C13 C 0.17183 0.62272 0.16712 0.0
C14 C 0.15072 0.59518 0.17601 0.0
C15 C 0.17443 0.62723 0.18603 0.0
C16 C 0.16281 0.64749 0.11802 0.0
N17 N 0.17857 0.63486 0.11747 0.0
C18 C 0.2012 0.66216 0.11531 0.0
C19 C 0.19753 0.64175 0.1161 0.0
C20 C 0.18524 0.67565 0.11626 0.0
C21 C 0.1658 0.66803 0.11747 0.0
H22 H 0.1479 0.64156 0.11933 0.0
H23 H 0.20988 0.63154 0.11594 0.0
C24 C 0.18582 0.54991 0.16831 0.0
N25 N 0.18877 0.56862 0.16168 0.0
C26 C 0.19601 0.54343 0.18421 0.0
C27 C 0.21195 0.57563 0.18602 0.0
C28 C 0.20171 0.58134 0.17 0.0
C29 C 0.20925 0.5564 0.19334 0.0
H30 H 0.17563 0.54001 0.16122 0.0
H31 H 0.20393 0.59604 0.16425 0.0
C32 C 0.14879 0.60287 0.08451 0.0
N33 N 0.14084 0.61622 0.04875 0.0
C34 C 0.13094 0.59775 0.0757 0.0
C35 C 0.16241 0.61511 0.07525 0.0
C36 C 0.12725 0.60454 0.05758 0.0
C37 C 0.15817 0.62163 0.05715 0.0
C38 C 0.14403 0.54459 0.12836 0.0
C39 C 0.13875 0.53271 0.11311 0.0
C40 C 0.13418 0.54219 0.14541 0.0
C41 C 0.12346 0.51878 0.11512 0.0
C42 C 0.11895 0.52812 0.14685 0.0
N43 N 0.11394 0.51682 0.1318 0.0
C44 C 0.19671 0.54876 0.08586 0.0
C45 C 0.16635 0.55602 0.07044 0.0
C46 C 0.20268 0.53651 0.07114 0.0
N47 N 0.17889 0.5583 0.08517 0.0
C48 C 0.17168 0.5439 0.05546 0.0
C49 C 0.19006 0.53393 0.05569 0.0
H50 H 0.20623 0.55056 0.09793 0.0
H51 H 0.15198 0.56316 0.07054 0.0
C52 C 0.10742 0.5962 0.14146 0.0
N53 N 0.11543 0.58364 0.12862 0.0
C54 C 0.08685 0.59844 0.14272 0.0
C55 C 0.08304 0.57428 0.11793 0.0
C56 C 0.10374 0.57261 0.11705 0.0
C57 C 0.07441 0.58767 0.13063 0.0
H58 H 0.11704 0.605 0.1503 0.0
H59 H 0.11049 0.56308 0.10667 0.0
O60 O 0.19336 0.58681 0.12012 0.0
O61 O 0.15748 0.60166 0.14368 0.0
O62 O 0.15252 0.59649 0.10234 0.0
O63 O 0.15887 0.55838 0.12663 0.0
H64 H 0.2278 0.58997 0.13774 0.0
H65 H 0.19919 0.5942 0.08407 0.0
H66 H 0.2598 0.59906 0.12271 0.0
H67 H 0.23161 0.60336 0.07001 0.0
H68 H 0.14674 0.59147 0.20566 0.0
H69 H 0.1791 0.63163 0.15655 0.0
H70 H 0.14139 0.58267 0.17235 0.0
H71 H 0.18366 0.63968 0.19012 0.0
H72 H 0.21642 0.6673 0.11411 0.0
H73 H 0.15303 0.67779 0.11857 0.0
H74 H 0.19366 0.52839 0.18917 0.0
H75 H 0.22164 0.58634 0.19272 0.0
H76 H 0.12011 0.58849 0.08272 0.0
H77 H 0.17603 0.61973 0.082 0.0
H78 H 0.11357 0.60055 0.05055 0.0
H79 H 0.16862 0.63105 0.04981 0.0
H80 H 0.14631 0.53427 0.09985 0.0
H81 H 0.13819 0.55115 0.15738 0.0
H82 H 0.11915 0.50955 0.10341 0.0
H83 H 0.11112 0.52619 0.15993 0.0
H84 H 0.21699 0.52913 0.07186 0.0
H85 H 0.16126 0.54192 0.04406 0.0
H86 H 0.08073 0.60882 0.15279 0.0
H87 H 0.07395 0.5659 0.10822 0.0
Li88 Li 0.64304 0.91692 0.37153 0.0
Li89 Li 0.67274 0.92559 0.38957 0.0
Li90 Li 0.67406 0.92272 0.35509 0.0
Li91 Li 0.67174 0.89261 0.37421 0.0
C92 C 0.64577 0.95711 0.367 0.0
N93 N 0.61882 0.98729 0.36016 0.0
C94 C 0.64259 0.97195 0.38037 0.0
C95 C 0.63539 0.95773 0.3501 0.0
C96 C 0.62887 0.98706 0.37666 0.0
C97 C 0.62178 0.97308 0.34692 0.0
C98 C 0.64848 0.89929 0.41179 0.0
C99 C 0.6525 0.88075 0.44041 0.0
N100 N 0.63695 0.89087 0.44802 0.0
C101 C 0.63233 0.90926 0.41979 0.0
C102 C 0.65847 0.88471 0.42208 0.0
C103 C 0.62682 0.9049 0.43817 0.0
C104 C 0.60634 0.90074 0.36343 0.0
N105 N 0.61479 0.91727 0.37094 0.0
C106 C 0.58285 0.92979 0.37983 0.0
C107 C 0.60354 0.93178 0.37897 0.0
C108 C 0.57384 0.91254 0.37272 0.0
C109 C 0.5858 0.89804 0.36418 0.0
H110 H 0.61568 0.88931 0.3574 0.0
H111 H 0.61061 0.94449 0.38538 0.0
C112 C 0.70109 0.94402 0.41389 0.0
N113 N 0.68148 0.94018 0.41078 0.0
C114 C 0.70696 0.95485 0.42961 0.0
C115 C 0.67231 0.95841 0.43807 0.0
C116 C 0.66715 0.94736 0.42234 0.0
C117 C 0.69244 0.96219 0.44189 0.0
H118 H 0.7122 0.93893 0.4041 0.0
H119 H 0.65167 0.94479 0.41917 0.0
C120 C 0.65515 0.89526 0.33363 0.0
N121 N 0.65481 0.886 0.29601 0.0
C122 C 0.66832 0.88104 0.32654 0.0
C123 C 0.64156 0.90449 0.32167 0.0
C124 C 0.66799 0.87665 0.30745 0.0
C125 C 0.64168 0.89968 0.30268 0.0
C126 C 0.71068 0.90552 0.38164 0.0
C127 C 0.72854 0.90597 0.37163 0.0
C128 C 0.71037 0.89761 0.39969 0.0
C129 C 0.7458 0.89839 0.37985 0.0
C130 C 0.72794 0.89019 0.40743 0.0
N131 N 0.74515 0.89071 0.39743 0.0
C132 C 0.6828 0.95003 0.3253 0.0
C133 C 0.69977 0.91912 0.32538 0.0
C134 C 0.69248 0.95565 0.30883 0.0
N135 N 0.68647 0.93193 0.33304 0.0
C136 C 0.70962 0.92401 0.30892 0.0
C137 C 0.70605 0.9425 0.30039 0.0
H138 H 0.67248 0.96013 0.33192 0.0
H139 H 0.7026 0.90496 0.33205 0.0
C140 C 0.66257 0.85273 0.37998 0.0
N141 N 0.67779 0.86514 0.37549 0.0
C142 C 0.6653 0.83216 0.37952 0.0
C143 C 0.69948 0.83755 0.37027 0.0
C144 C 0.69601 0.85801 0.37068 0.0
C145 C 0.68392 0.82428 0.37444 0.0
H146 H 0.64814 0.85887 0.38341 0.0
H147 H 0.70772 0.86811 0.36664 0.0
O148 O 0.65903 0.94211 0.37046 0.0
O149 O 0.65393 0.90319 0.39372 0.0
O150 O 0.65536 0.89987 0.35225 0.0
O151 O 0.69358 0.91252 0.37362 0.0
H152 H 0.65064 0.97182 0.39345 0.0
H153 H 0.6378 0.94647 0.33957 0.0
H154 H 0.62622 0.9986 0.38691 0.0
H155 H 0.61359 0.97369 0.33392 0.0
H156 H 0.66016 0.86957 0.44855 0.0
H157 H 0.62425 0.92038 0.41196 0.0
H158 H 0.67059 0.87637 0.41595 0.0
H159 H 0.61448 0.91265 0.44458 0.0
H160 H 0.5741 0.94116 0.38675 0.0
H161 H 0.57936 0.88458 0.35845 0.0
H162 H 0.72261 0.95778 0.43194 0.0
H163 H 0.66067 0.96383 0.44723 0.0
H164 H 0.67883 0.87365 0.33563 0.0
H165 H 0.63093 0.91514 0.32701 0.0
H166 H 0.67823 0.86582 0.30174 0.0
H167 H 0.6313 0.90677 0.29324 0.0
H168 H 0.72905 0.91205 0.35763 0.0
H169 H 0.69674 0.89742 0.40767 0.0
H170 H 0.75972 0.89859 0.37226 0.0
H171 H 0.7279 0.88405 0.42141 0.0
H172 H 0.6895 0.97015 0.30287 0.0
H173 H 0.71967 0.91323 0.3028 0.0
H174 H 0.65273 0.82258 0.38249 0.0
H175 H 0.71414 0.83223 0.3665 0.0
Li176 Li 0.32626 0.424 0.60343 0.0
Li177 Li 0.35458 0.41953 0.62477 0.0
Li178 Li 0.32693 0.39394 0.62374 0.0
Li179 Li 0.32239 0.42668 0.63746 0.0
C180 C 0.35392 0.39244 0.58909 0.0
N181 N 0.37041 0.37276 0.5589 0.0
C182 C 0.37075 0.40015 0.58018 0.0
C183 C 0.34552 0.37467 0.58266 0.0
C184 C 0.37886 0.38999 0.56494 0.0
C185 C 0.35406 0.36497 0.56737 0.0
C186 C 0.35203 0.45865 0.61859 0.0
C187 C 0.3771 0.48029 0.63156 0.0
N188 N 0.38025 0.48819 0.61431 0.0
C189 C 0.35545 0.46702 0.601 0.0
C190 C 0.36286 0.46538 0.63402 0.0
C191 C 0.3698 0.48194 0.59912 0.0
C192 C 0.30273 0.44792 0.58047 0.0
N193 N 0.31767 0.43429 0.58006 0.0
C194 C 0.31914 0.43597 0.54678 0.0
C195 C 0.3259 0.42822 0.56368 0.0
C196 C 0.30381 0.45016 0.54674 0.0
C197 C 0.29555 0.45615 0.56387 0.0
H198 H 0.29642 0.45239 0.59373 0.0
H199 H 0.33771 0.41741 0.56364 0.0
C200 C 0.39055 0.40843 0.64058 0.0
N201 N 0.3828 0.42081 0.62746 0.0
C202 C 0.41107 0.40592 0.64205 0.0
C203 C 0.41544 0.42952 0.61691 0.0
C204 C 0.39477 0.43152 0.61587 0.0
C205 C 0.42377 0.41617 0.62982 0.0
H206 H 0.38074 0.39988 0.64946 0.0
H207 H 0.38832 0.44092 0.60525 0.0
C208 C 0.28935 0.40436 0.60935 0.0
N209 N 0.25876 0.38805 0.58857 0.0
C210 C 0.2699 0.40449 0.61627 0.0
C211 C 0.29322 0.39602 0.59182 0.0
C212 C 0.25465 0.39612 0.60558 0.0
C213 C 0.27756 0.38785 0.58153 0.0
C214 C 0.33857 0.40571 0.66431 0.0
C215 C 0.32528 0.39244 0.67272 0.0
C216 C 0.34888 0.41946 0.6753 0.0
C217 C 0.32235 0.39333 0.69203 0.0
C218 C 0.34551 0.4199 0.69456 0.0
N219 N 0.33241 0.40695 0.70246 0.0
C220 C 0.33843 0.3567 0.6348 0.0
C221 C 0.30636 0.35591 0.62097 0.0
C222 C 0.33776 0.33628 0.63804 0.0
N223 N 0.32287 0.36609 0.62647 0.0
C224 C 0.30525 0.33534 0.6236 0.0
C225 C 0.32105 0.32538 0.63234 0.0
H226 H 0.35136 0.36518 0.639 0.0
H227 H 0.29404 0.3636 0.61462 0.0
C228 C 0.31402 0.45687 0.66467 0.0
N229 N 0.30837 0.43917 0.65716 0.0
C230 C 0.30426 0.46428 0.68047 0.0
C231 C 0.2829 0.43532 0.68005 0.0
C232 C 0.29295 0.42857 0.66428 0.0
C233 C 0.28863 0.45331 0.68851 0.0
H234 H 0.32634 0.46498 0.65868 0.0
H235 H 0.28901 0.41442 0.65811 0.0
O236 O 0.34583 0.4021 0.60413 0.0
O237 O 0.33797 0.44413 0.62072 0.0
O238 O 0.30434 0.41282 0.61957 0.0
O239 O 0.34122 0.40544 0.64537 0.0
H240 H 0.3773 0.41397 0.58477 0.0
H241 H 0.33253 0.36843 0.58936 0.0
H242 H 0.39183 0.39584 0.55787 0.0
H243 H 0.34768 0.35123 0.56224 0.0
H244 H 0.38568 0.48557 0.64336 0.0
H245 H 0.34717 0.46202 0.58891 0.0
H246 H 0.36044 0.45901 0.64772 0.0
H247 H 0.37264 0.48852 0.58559 0.0
H248 H 0.32617 0.43122 0.53391 0.0
H249 H 0.28364 0.46699 0.56441 0.0
H250 H 0.41692 0.39564 0.65234 0.0
H251 H 0.42472 0.43752 0.60708 0.0
H252 H 0.26661 0.41102 0.62975 0.0
H253 H 0.30814 0.39575 0.58625 0.0
H254 H 0.23953 0.39608 0.61078 0.0
H255 H 0.28037 0.38132 0.56797 0.0
H256 H 0.31712 0.38177 0.66438 0.0
H257 H 0.35923 0.42979 0.66898 0.0
H258 H 0.31201 0.38326 0.69872 0.0
H259 H 0.35327 0.43056 0.70323 0.0
H260 H 0.35028 0.32902 0.64472 0.0
H261 H 0.29208 0.32734 0.61915 0.0
H262 H 0.30905 0.47829 0.68645 0.0
H263 H 0.27127 0.4261 0.68596 0.0
Li264 Li 0.82924 0.10715 0.87508 0.0
Li265 Li 0.82422 0.07871 0.85614 0.0
Li266 Li 0.82341 0.07586 0.88945 0.0
Li267 Li 0.85578 0.08064 0.87249 0.0
C268 C 0.79137 0.10619 0.87459 0.0
N269 N 0.76573 0.13834 0.87686 0.0
C270 C 0.7818 0.11333 0.85856 0.0
C271 C 0.7879 0.11555 0.89175 0.0
C272 C 0.76887 0.12953 0.86001 0.0
C273 C 0.77491 0.13175 0.89262 0.0
C274 C 0.84676 0.10139 0.8342 0.0
C275 C 0.86482 0.09753 0.80527 0.0
N276 N 0.84908 0.10525 0.79578 0.0
C277 C 0.8308 0.10937 0.82415 0.0
C278 C 0.86394 0.09545 0.82468 0.0
C279 C 0.83223 0.11114 0.80475 0.0
C280 C 0.83173 0.14338 0.89468 0.0
N281 N 0.82638 0.13532 0.87799 0.0
C282 C 0.81623 0.16719 0.86665 0.0
C283 C 0.81899 0.14681 0.86398 0.0
C284 C 0.82127 0.17585 0.88388 0.0
C285 C 0.82923 0.16367 0.89796 0.0
H286 H 0.83792 0.13404 0.90547 0.0
H287 H 0.81491 0.14015 0.85082 0.0
C288 C 0.79403 0.06784 0.83013 0.0
N289 N 0.8139 0.06763 0.83358 0.0
C290 C 0.78679 0.06183 0.81275 0.0
C291 C 0.8204 0.05351 0.80357 0.0
C292 C 0.82697 0.05986 0.82104 0.0
C293 C 0.80014 0.05511 0.79899 0.0
H294 H 0.78385 0.0731 0.84071 0.0
H295 H 0.84262 0.05911 0.82444 0.0
C296 C 0.84865 0.09039 0.91371 0.0
N297 N 0.8539 0.08006 0.9508 0.0
C298 C 0.8643 0.07787 0.91894 0.0
C299 C 0.8358 0.09782 0.92742 0.0
C300 C 0.86669 0.0728 0.93774 0.0
C301 C 0.83865 0.09237 0.94607 0.0
C302 C 0.83077 0.04045 0.86485 0.0
C303 C 0.81106 0.03464 0.86791 0.0
C304 C 0.84337 0.02833 0.85428 0.0
C305 C 0.80426 0.01677 0.86026 0.0
C306 C 0.836 0.01057 0.84686 0.0
N307 N 0.81677 0.00521 0.84998 0.0
C308 C 0.79561 0.06744 0.91875 0.0
C309 C 0.82381 0.04634 0.91667 0.0
C310 C 0.78968 0.05826 0.93533 0.0
N311 N 0.81274 0.06176 0.91015 0.0
C312 C 0.81828 0.03654 0.93302 0.0
C313 C 0.80128 0.04282 0.94276 0.0
H314 H 0.7868 0.07938 0.91305 0.0
H315 H 0.83733 0.04213 0.90948 0.0
C316 C 0.89577 0.09043 0.86691 0.0
N317 N 0.88333 0.07526 0.87143 0.0
C318 C 0.91617 0.08707 0.86527 0.0
C319 C 0.91062 0.05263 0.87357 0.0
C320 C 0.89027 0.05663 0.87482 0.0
C321 C 0.92389 0.06794 0.8686 0.0
H322 H 0.88974 0.10509 0.86426 0.0
H323 H 0.88 0.04491 0.8786 0.0
O324 O 0.8043 0.09044 0.87346 0.0
O325 O 0.84556 0.09926 0.85321 0.0
O326 O 0.84569 0.09499 0.89526 0.0
O327 O 0.83756 0.0581 0.87188 0.0
H328 H 0.78454 0.10673 0.84505 0.0
H329 H 0.79554 0.11072 0.90421 0.0
H330 H 0.76145 0.13521 0.8477 0.0
H331 H 0.77226 0.13918 0.9058 0.0
H332 H 0.878 0.09292 0.79773 0.0
H333 H 0.81723 0.11359 0.83117 0.0
H334 H 0.87639 0.08908 0.83214 0.0
H335 H 0.8199 0.11709 0.7968 0.0
H336 H 0.80992 0.176 0.85546 0.0
H337 H 0.8337 0.1698 0.91132 0.0
H338 H 0.77103 0.06327 0.80991 0.0
H339 H 0.83114 0.04789 0.7936 0.0
H340 H 0.87439 0.07195 0.9086 0.0
H341 H 0.82355 0.10745 0.92371 0.0
H342 H 0.87867 0.06303 0.94194 0.0
H343 H 0.82868 0.09785 0.95677 0.0
H344 H 0.80106 0.04396 0.87591 0.0
H345 H 0.85862 0.03272 0.85165 0.0
H346 H 0.78902 0.01212 0.86243 0.0
H347 H 0.84556 0.00108 0.83858 0.0
H348 H 0.77638 0.06333 0.94243 0.0
H349 H 0.82769 0.0248 0.93844 0.0
H350 H 0.92571 0.09927 0.86111 0.0
H351 H 0.91589 0.03776 0.87662 0.0
Li352 Li 0.14241 0.4177 0.86715 0.0
Li353 Li 0.1716 0.42234 0.88683 0.0
Li354 Li 0.1757 0.42101 0.85251 0.0
Li355 Li 0.16872 0.39094 0.87101 0.0
C356 C 0.15413 0.45727 0.85831 0.0
N357 N 0.14067 0.49028 0.8391 0.0
C358 C 0.15315 0.47575 0.86722 0.0
C359 C 0.14843 0.45561 0.83961 0.0
C360 C 0.14625 0.49226 0.85728 0.0
C361 C 0.14163 0.47245 0.83013 0.0
C362 C 0.14622 0.40356 0.90837 0.0
C363 C 0.15463 0.3957 0.94028 0.0
N364 N 0.13935 0.40737 0.94626 0.0
C365 C 0.13051 0.41534 0.9148 0.0
C366 C 0.15829 0.39352 0.92117 0.0
C367 C 0.12731 0.41711 0.93403 0.0
C368 C 0.103 0.40631 0.8603 0.0
N369 N 0.11465 0.42225 0.86444 0.0
C370 C 0.08634 0.44375 0.86466 0.0
C371 C 0.10673 0.44068 0.86692 0.0
C372 C 0.07397 0.4276 0.86021 0.0
C373 C 0.08247 0.40865 0.85817 0.0
H374 H 0.10971 0.39179 0.8586 0.0
H375 H 0.11615 0.453 0.87081 0.0
C376 C 0.19783 0.43099 0.91698 0.0
N377 N 0.18007 0.43534 0.90889 0.0
C378 C 0.20341 0.44033 0.93361 0.0
C379 C 0.17245 0.45868 0.93296 0.0
C380 C 0.16753 0.44904 0.91635 0.0
C381 C 0.19058 0.45431 0.94185 0.0
H382 H 0.20766 0.42029 0.91059 0.0
H383 H 0.15353 0.45223 0.90952 0.0
C384 C 0.14977 0.39372 0.83078 0.0
N385 N 0.13865 0.37978 0.79595 0.0
C386 C 0.15907 0.37698 0.82314 0.0
C387 C 0.13459 0.40318 0.82079 0.0
C388 C 0.15331 0.37022 0.80549 0.0
C389 C 0.12924 0.39595 0.80318 0.0
C390 C 0.20893 0.39699 0.8731 0.0
C391 C 0.22218 0.39628 0.85805 0.0
C392 C 0.21264 0.38551 0.88902 0.0
C393 C 0.23887 0.38393 0.85913 0.0
C394 C 0.22947 0.37334 0.88954 0.0
N395 N 0.24212 0.3728 0.8747 0.0
C396 C 0.19875 0.44973 0.83401 0.0
C397 C 0.1922 0.42088 0.81597 0.0
C398 C 0.21003 0.45789 0.81952 0.0
N399 N 0.19009 0.43158 0.83195 0.0
C400 C 0.20329 0.42846 0.80114 0.0
C401 C 0.21242 0.44718 0.80281 0.0
H402 H 0.19701 0.4578 0.84699 0.0
H403 H 0.18567 0.4063 0.81484 0.0
C404 C 0.15985 0.35236 0.88356 0.0
N405 N 0.17265 0.36291 0.87267 0.0
C406 C 0.16222 0.33184 0.88563 0.0
C407 C 0.19098 0.33344 0.86538 0.0
C408 C 0.18778 0.35383 0.86334 0.0
C409 C 0.1781 0.32228 0.87664 0.0
H410 H 0.14783 0.35992 0.89067 0.0
H411 H 0.19741 0.36239 0.85433 0.0
O412 O 0.16077 0.44098 0.86792 0.0
O413 O 0.1499 0.40204 0.88964 0.0
O414 O 0.15506 0.40038 0.84817 0.0
O415 O 0.1925 0.40897 0.87226 0.0
H416 H 0.15761 0.47731 0.88169 0.0
H417 H 0.14944 0.44152 0.83244 0.0
H418 H 0.14534 0.50664 0.86401 0.0
H419 H 0.13718 0.47136 0.81564 0.0
H420 H 0.16393 0.38814 0.95036 0.0
H421 H 0.12104 0.42321 0.90505 0.0
H422 H 0.17044 0.38426 0.91639 0.0
H423 H 0.1153 0.42629 0.93922 0.0
H424 H 0.08024 0.45852 0.86666 0.0
H425 H 0.07338 0.39586 0.85471 0.0
H426 H 0.21763 0.43674 0.93986 0.0
H427 H 0.16197 0.46912 0.93895 0.0
H428 H 0.17077 0.36942 0.83066 0.0
H429 H 0.12688 0.41588 0.82658 0.0
H430 H 0.16051 0.35738 0.79937 0.0
H431 H 0.11756 0.40317 0.7953 0.0
H432 H 0.21959 0.40512 0.84566 0.0
H433 H 0.20249 0.3858 0.90074 0.0
H434 H 0.24921 0.38318 0.84756 0.0
H435 H 0.23245 0.36427 0.90171 0.0
H436 H 0.21681 0.47238 0.82136 0.0
H437 H 0.20515 0.41949 0.78868 0.0
H438 H 0.152 0.32356 0.89439 0.0
H439 H 0.20323 0.32642 0.85806 0.0
Li440 Li 0.83033 0.92094 0.10334 0.0
Li441 Li 0.85732 0.91185 0.12366 0.0
Li442 Li 0.83205 0.8867 0.11418 0.0
Li443 Li 0.82361 0.91486 0.13628 0.0
C444 C 0.86485 0.90638 0.08481 0.0
N445 N 0.89169 0.91745 0.05747 0.0
C446 C 0.87437 0.92482 0.08578 0.0
C447 C 0.86902 0.89352 0.06997 0.0
C448 C 0.88789 0.93016 0.07183 0.0
C449 C 0.88262 0.8994 0.05627 0.0
C450 C 0.84744 0.95379 0.12989 0.0
C451 C 0.85677 0.97784 0.15335 0.0
N452 N 0.86221 0.99075 0.13964 0.0
C453 C 0.85288 0.96742 0.11603 0.0
C454 C 0.84918 0.95913 0.14871 0.0
C455 C 0.86041 0.98598 0.12125 0.0
C456 C 0.80992 0.95313 0.08841 0.0
N457 N 0.82187 0.93768 0.08355 0.0
C458 C 0.8211 0.94761 0.05155 0.0
C459 C 0.82724 0.93449 0.0655 0.0
C460 C 0.80881 0.96388 0.05611 0.0
C461 C 0.80298 0.96631 0.07486 0.0
H462 H 0.80575 0.95517 0.10289 0.0
H463 H 0.83641 0.92189 0.06189 0.0
C464 C 0.89405 0.89564 0.1305 0.0
N465 N 0.88491 0.91361 0.12939 0.0
C466 C 0.91424 0.89442 0.13478 0.0
C467 C 0.9154 0.93033 0.13651 0.0
C468 C 0.8951 0.93084 0.13222 0.0
C469 C 0.92519 0.91191 0.13795 0.0
H470 H 0.88557 0.88221 0.12804 0.0
H471 H 0.88757 0.94498 0.13115 0.0
C472 C 0.7934 0.90705 0.10215 0.0
N473 N 0.76349 0.91364 0.07644 0.0
C474 C 0.77781 0.92004 0.1064 0.0
C475 C 0.79374 0.89729 0.0849 0.0
C476 C 0.76283 0.9232 0.09319 0.0
C477 C 0.77849 0.90086 0.07207 0.0
C478 C 0.849 0.88907 0.15744 0.0
C479 C 0.84593 0.87049 0.16571 0.0
C480 C 0.85831 0.90419 0.16758 0.0
C481 C 0.85209 0.86741 0.18414 0.0
C482 C 0.86428 0.90053 0.18596 0.0
N483 N 0.86105 0.88237 0.1938 0.0
C484 C 0.84368 0.84956 0.10107 0.0
C485 C 0.81034 0.85059 0.11194 0.0
C486 C 0.8418 0.82946 0.09661 0.0
N487 N 0.82807 0.85963 0.10852 0.0
C488 C 0.80782 0.83042 0.10779 0.0
C489 C 0.82369 0.81963 0.09996 0.0
H490 H 0.85764 0.85716 0.0987 0.0
H491 H 0.79821 0.85906 0.11791 0.0
C492 C 0.80041 0.94165 0.15646 0.0
N493 N 0.8079 0.92287 0.15676 0.0
C494 C 0.78848 0.94842 0.1711 0.0
C495 C 0.7921 0.91629 0.18595 0.0
C496 C 0.80389 0.91013 0.17099 0.0
C497 C 0.78424 0.93567 0.18612 0.0
H498 H 0.8037 0.95135 0.1448 0.0
H499 H 0.80966 0.89513 0.17065 0.0
O500 O 0.85147 0.90085 0.09824 0.0
O501 O 0.83989 0.9356 0.12504 0.0
O502 O 0.80845 0.90414 0.11468 0.0
O503 O 0.8429 0.89232 0.13947 0.0
H504 H 0.87139 0.93486 0.0972 0.0
H505 H 0.86173 0.87919 0.06899 0.0
H506 H 0.89535 0.94441 0.07242 0.0
H507 H 0.88596 0.88962 0.04467 0.0
H508 H 0.85826 0.98212 0.16786 0.0
H509 H 0.85127 0.96375 0.10139 0.0
H510 H 0.84458 0.94902 0.15964 0.0
H511 H 0.86477 0.99662 0.11066 0.0
H512 H 0.82635 0.94518 0.03744 0.0
H513 H 0.79317 0.97825 0.0791 0.0
H514 H 0.92124 0.87992 0.13539 0.0
H515 H 0.92326 0.94415 0.13893 0.0
H516 H 0.7774 0.92772 0.1197 0.0
H517 H 0.80578 0.88726 0.08141 0.0
H518 H 0.75072 0.93329 0.09623 0.0
H519 H 0.7786 0.89352 0.05861 0.0
H520 H 0.83877 0.85862 0.158 0.0
H521 H 0.86101 0.91853 0.1613 0.0
H522 H 0.84975 0.85313 0.19076 0.0
H523 H 0.8715 0.9121 0.19398 0.0
H524 H 0.85451 0.82161 0.09093 0.0
H525 H 0.7936 0.82341 0.1105 0.0
H526 H 0.78276 0.96348 0.17074 0.0
H527 H 0.78884 0.90586 0.19707 0.0
Li528 Li 0.33098 0.60848 0.37799 0.0
Li529 Li 0.32466 0.58044 0.35871 0.0
Li530 Li 0.32622 0.57571 0.3913 0.0
Li531 Li 0.35684 0.58231 0.37262 0.0
C532 C 0.29353 0.60006 0.39027 0.0
N533 N 0.26725 0.61655 0.41567 0.0
C534 C 0.27338 0.60198 0.38576 0.0
C535 C 0.30031 0.60662 0.4077 0.0
C536 C 0.26033 0.61033 0.39879 0.0
C537 C 0.2868 0.61488 0.42034 0.0
C538 C 0.34361 0.60659 0.33648 0.0
C539 C 0.35696 0.6076 0.30522 0.0
N540 N 0.3401 0.61682 0.29925 0.0
C541 C 0.32648 0.61619 0.33008 0.0
C542 C 0.35904 0.60232 0.324 0.0
C543 C 0.32496 0.62119 0.31119 0.0
C544 C 0.34017 0.64594 0.39292 0.0
N545 N 0.32698 0.63607 0.38193 0.0
C546 C 0.30773 0.66562 0.37772 0.0
C547 C 0.31095 0.64541 0.37434 0.0
C548 C 0.32096 0.67611 0.38926 0.0
C549 C 0.33736 0.66606 0.3969 0.0
H550 H 0.35283 0.63814 0.39864 0.0
H551 H 0.30056 0.63711 0.36583 0.0
C552 C 0.29064 0.56853 0.33955 0.0
N553 N 0.31052 0.57119 0.33724 0.0
C554 C 0.27895 0.56165 0.32481 0.0
C555 C 0.30853 0.55972 0.30568 0.0
C556 C 0.31962 0.56678 0.32077 0.0
C557 C 0.28786 0.55722 0.30754 0.0
H558 H 0.28383 0.5718 0.35287 0.0
H559 H 0.33549 0.56862 0.31931 0.0
C560 C 0.3608 0.58824 0.41078 0.0
N561 N 0.38614 0.57473 0.43845 0.0
C562 C 0.36518 0.56796 0.41226 0.0
C563 C 0.36929 0.60163 0.42343 0.0
C564 C 0.37803 0.56143 0.42632 0.0
C565 C 0.38206 0.59451 0.43731 0.0
C566 C 0.33973 0.54384 0.35922 0.0
C567 C 0.32586 0.52836 0.3601 0.0
C568 C 0.35414 0.5438 0.34512 0.0
C569 C 0.32659 0.51315 0.3468 0.0
C570 C 0.3544 0.52831 0.33211 0.0
N571 N 0.34072 0.51344 0.3332 0.0
C572 C 0.30063 0.54753 0.40637 0.0
C573 C 0.32042 0.56325 0.42943 0.0
C574 C 0.29278 0.5345 0.41962 0.0
N575 N 0.31475 0.561 0.41132 0.0
C576 C 0.31316 0.55039 0.44311 0.0
C577 C 0.29954 0.53538 0.43819 0.0
H578 H 0.29575 0.5467 0.392 0.0
H579 H 0.33096 0.57466 0.43326 0.0
C580 C 0.3964 0.59274 0.36434 0.0
N581 N 0.38457 0.57757 0.37015 0.0
C582 C 0.41682 0.58974 0.36204 0.0
C583 C 0.41247 0.55566 0.37204 0.0
C584 C 0.39215 0.55928 0.37403 0.0
C585 C 0.42511 0.57097 0.36588 0.0
H586 H 0.38991 0.60712 0.36134 0.0
H587 H 0.38238 0.54746 0.3786 0.0
O588 O 0.30643 0.59205 0.37748 0.0
O589 O 0.34536 0.60148 0.35489 0.0
O590 O 0.34839 0.59506 0.397 0.0
O591 O 0.33919 0.55896 0.37204 0.0
H592 H 0.26786 0.59715 0.3723 0.0
H593 H 0.31581 0.60545 0.41149 0.0
H594 H 0.24471 0.61189 0.39547 0.0
H595 H 0.29186 0.62 0.43387 0.0
H596 H 0.36873 0.60432 0.29537 0.0
H597 H 0.31436 0.61943 0.33954 0.0
H598 H 0.37239 0.59487 0.32875 0.0
H599 H 0.31171 0.62848 0.306 0.0
H600 H 0.29484 0.67288 0.3717 0.0
H601 H 0.34801 0.67374 0.40569 0.0
H602 H 0.26305 0.56024 0.32685 0.0
H603 H 0.3161 0.5562 0.29273 0.0
H604 H 0.35856 0.5573 0.40283 0.0
H605 H 0.36604 0.61736 0.42259 0.0
H606 H 0.3815 0.54578 0.42763 0.0
H607 H 0.38873 0.60472 0.44718 0.0
H608 H 0.31465 0.52805 0.37091 0.0
H609 H 0.36472 0.55584 0.34392 0.0
H610 H 0.31592 0.50112 0.3473 0.0
H611 H 0.36539 0.52818 0.32105 0.0
H612 H 0.28186 0.52359 0.41528 0.0
H613 H 0.31888 0.5517 0.4572 0.0
H614 H 0.42593 0.60192 0.35704 0.0
H615 H 0.41822 0.54105 0.37545 0.0
Li616 Li 0.66838 0.10864 0.62599 0.0
Li617 Li 0.67516 0.07795 0.64157 0.0
Li618 Li 0.67085 0.07666 0.60891 0.0
Li619 Li 0.64171 0.0821 0.63049 0.0
C620 C 0.705 0.10014 0.61064 0.0
N621 N 0.73131 0.11836 0.58639 0.0
C622 C 0.72526 0.10106 0.61499 0.0
C623 C 0.69814 0.10846 0.59394 0.0
C624 C 0.73832 0.11035 0.60255 0.0
C625 C 0.71167 0.1176 0.58187 0.0
C626 C 0.65824 0.10461 0.66712 0.0
C627 C 0.64654 0.10726 0.69888 0.0
N628 N 0.66382 0.11649 0.70369 0.0
C629 C 0.67584 0.11418 0.67234 0.0
C630 C 0.64343 0.10115 0.68044 0.0
C631 C 0.67839 0.12005 0.69092 0.0
C632 C 0.65798 0.14922 0.62122 0.0
N633 N 0.67298 0.13648 0.62556 0.0
C634 C 0.69524 0.16358 0.63089 0.0
C635 C 0.69134 0.14324 0.63037 0.0
C636 C 0.68002 0.17719 0.62672 0.0
C637 C 0.66118 0.16977 0.6217 0.0
H638 H 0.64344 0.1434 0.61768 0.0
H639 H 0.70293 0.13285 0.63409 0.0
C640 C 0.70974 0.06069 0.65416 0.0
N641 N 0.69174 0.06691 0.66052 0.0
C642 C 0.7243 0.05432 0.66664 0.0
C643 C 0.70131 0.0602 0.69202 0.0
C644 C 0.68701 0.06603 0.67897 0.0
C645 C 0.72048 0.05476 0.68594 0.0
H646 H 0.71293 0.0611 0.63935 0.0
H647 H 0.6724 0.07042 0.68366 0.0
C648 C 0.63828 0.10038 0.59189 0.0
N649 N 0.61498 0.10672 0.56062 0.0
C650 C 0.62298 0.08711 0.58742 0.0
C651 C 0.64157 0.117 0.58057 0.0
C652 C 0.61141 0.09053 0.57153 0.0
C653 C 0.62969 0.1199 0.56478 0.0
C654 C 0.66436 0.04162 0.63662 0.0
C655 C 0.67919 0.0293 0.6293 0.0
C656 C 0.65571 0.03704 0.65386 0.0
C657 C 0.68524 0.01261 0.63945 0.0
C658 C 0.66218 0.02021 0.66358 0.0
N659 N 0.67669 0.00846 0.65624 0.0
C660 C 0.69875 0.05951 0.58404 0.0
C661 C 0.66516 0.05729 0.57426 0.0
C662 C 0.70506 0.04911 0.56824 0.0
N663 N 0.67912 0.06365 0.5866 0.0
C664 C 0.67076 0.04673 0.55834 0.0
C665 C 0.69097 0.04253 0.55513 0.0
H666 H 0.70954 0.06392 0.59443 0.0
H667 H 0.64961 0.05987 0.57701 0.0
C668 C 0.60146 0.09358 0.6318 0.0
N669 N 0.61407 0.07786 0.63327 0.0
C670 C 0.58091 0.09047 0.63139 0.0
C671 C 0.5868 0.05515 0.63468 0.0
C672 C 0.60721 0.05893 0.63487 0.0
C673 C 0.57333 0.071 0.63253 0.0
H674 H 0.60742 0.10844 0.63023 0.0
H675 H 0.61759 0.04669 0.63568 0.0
O676 O 0.69208 0.0912 0.62282 0.0
O677 O 0.65544 0.09863 0.64907 0.0
O678 O 0.64949 0.09756 0.60765 0.0
O679 O 0.65861 0.05829 0.62711 0.0
H680 H 0.7308 0.09473 0.62789 0.0
H681 H 0.6826 0.10776 0.59027 0.0
H682 H 0.75403 0.11119 0.60576 0.0
H683 H 0.70655 0.12408 0.56889 0.0
H684 H 0.63524 0.10464 0.70936 0.0
H685 H 0.68753 0.11674 0.66224 0.0
H686 H 0.62972 0.09375 0.67657 0.0
H687 H 0.69199 0.12736 0.69521 0.0
H688 H 0.71006 0.16856 0.63457 0.0
H689 H 0.64892 0.17969 0.61864 0.0
H690 H 0.73859 0.04964 0.6612 0.0
H691 H 0.69759 0.06086 0.70672 0.0
H692 H 0.62021 0.07416 0.596 0.0
H693 H 0.65314 0.12761 0.58395 0.0
H694 H 0.59961 0.08031 0.56785 0.0
H695 H 0.63211 0.13267 0.55587 0.0
H696 H 0.68608 0.0327 0.61601 0.0
H697 H 0.64439 0.04658 0.65982 0.0
H698 H 0.69677 0.00299 0.63401 0.0
H699 H 0.65573 0.01656 0.677 0.0
H700 H 0.72078 0.04618 0.56637 0.0
H701 H 0.6593 0.04141 0.54895 0.0
H702 H 0.57114 0.10311 0.62943 0.0
H703 H 0.58166 0.03994 0.63587 0.0
Li704 Li 0.82679 0.41873 0.85695 0.0
Li705 Li 0.83074 0.42176 0.89051 0.0
Li706 Li 0.85939 0.41534 0.87023 0.0
Li707 Li 0.83432 0.38975 0.8763 0.0
C708 C 0.83663 0.45604 0.86213 0.0
N709 N 0.82395 0.48973 0.84352 0.0
C710 C 0.82204 0.46823 0.87004 0.0
C711 C 0.84488 0.46105 0.84482 0.0
C712 C 0.81581 0.4852 0.8604 0.0
C713 C 0.83822 0.47812 0.83561 0.0
C714 C 0.79561 0.39289 0.87698 0.0
C715 C 0.77672 0.3675 0.89291 0.0
N716 N 0.76714 0.36321 0.87665 0.0
C717 C 0.78557 0.38823 0.86044 0.0
C718 C 0.79113 0.38248 0.89337 0.0
C719 C 0.77122 0.37319 0.86057 0.0
C720 C 0.81684 0.42239 0.81878 0.0
N721 N 0.81167 0.42788 0.83638 0.0
C722 C 0.7828 0.44474 0.82507 0.0
C723 C 0.79509 0.43889 0.83979 0.0
C724 C 0.78753 0.43891 0.80676 0.0
C725 C 0.80494 0.42781 0.80366 0.0
H726 H 0.82994 0.41339 0.81652 0.0
H727 H 0.79117 0.44268 0.85401 0.0
C728 C 0.83422 0.44956 0.91954 0.0
N729 N 0.82195 0.4357 0.91194 0.0
C730 C 0.82886 0.45926 0.93601 0.0
C731 C 0.79796 0.44079 0.93607 0.0
C732 C 0.80396 0.43142 0.91961 0.0
C733 C 0.81058 0.45476 0.94459 0.0
H734 H 0.84838 0.45274 0.913 0.0
H735 H 0.79435 0.42059 0.91306 0.0
C736 C 0.86135 0.39082 0.84112 0.0
N737 N 0.89328 0.37792 0.82001 0.0
C738 C 0.86862 0.37148 0.84329 0.0
C739 C 0.87023 0.40356 0.82812 0.0
C740 C 0.88479 0.36524 0.8325 0.0
C741 C 0.88639 0.39678 0.81762 0.0
C742 C 0.85781 0.40602 0.91227 0.0
C743 C 0.8749 0.41707 0.91626 0.0
C744 C 0.84558 0.39958 0.92689 0.0
C745 C 0.87943 0.42162 0.93484 0.0
C746 C 0.85059 0.40449 0.94527 0.0
N747 N 0.86726 0.41531 0.94883 0.0
C748 C 0.89378 0.43873 0.86391 0.0
C749 C 0.89975 0.40421 0.86759 0.0
C750 C 0.91408 0.44228 0.86141 0.0
N751 N 0.88706 0.41992 0.86677 0.0
C752 C 0.9201 0.40701 0.86479 0.0
C753 C 0.92759 0.42628 0.86167 0.0
H754 H 0.8834 0.45101 0.86377 0.0
H755 H 0.89402 0.38947 0.8703 0.0
C756 C 0.8217 0.3513 0.8654 0.0
N757 N 0.8301 0.36204 0.87943 0.0
C758 C 0.818 0.33101 0.86776 0.0
C759 C 0.83189 0.33325 0.89887 0.0
C760 C 0.83537 0.35344 0.89588 0.0
C761 C 0.82304 0.32178 0.88473 0.0
H762 H 0.81778 0.35855 0.85242 0.0
H763 H 0.84231 0.36226 0.90667 0.0
O764 O 0.84268 0.43919 0.87119 0.0
O765 O 0.80998 0.40731 0.87708 0.0
O766 O 0.84564 0.39726 0.85167 0.0
O767 O 0.85291 0.40176 0.89414 0.0
H768 H 0.81545 0.46453 0.88339 0.0
H769 H 0.85616 0.45175 0.8385 0.0
H770 H 0.80446 0.49472 0.86631 0.0
H771 H 0.84439 0.48211 0.82215 0.0
H772 H 0.77323 0.35922 0.90545 0.0
H773 H 0.78893 0.39598 0.84758 0.0
H774 H 0.79896 0.38567 0.90624 0.0
H775 H 0.76338 0.36938 0.84785 0.0
H776 H 0.76936 0.45304 0.82806 0.0
H777 H 0.80916 0.42315 0.78972 0.0
H778 H 0.83916 0.46975 0.94221 0.0
H779 H 0.78362 0.43713 0.94207 0.0
H780 H 0.86201 0.36143 0.85333 0.0
H781 H 0.86485 0.41861 0.82633 0.0
H782 H 0.89063 0.35034 0.83409 0.0
H783 H 0.89349 0.40653 0.80761 0.0
H784 H 0.88451 0.42224 0.90515 0.0
H785 H 0.83214 0.39125 0.92405 0.0
H786 H 0.89257 0.43023 0.93813 0.0
H787 H 0.84116 0.39977 0.9567 0.0
H788 H 0.91911 0.45745 0.85954 0.0
H789 H 0.92978 0.39414 0.86491 0.0
H790 H 0.81106 0.32271 0.85654 0.0
H791 H 0.83636 0.32663 0.91202 0.0
Li792 Li 0.33425 0.11168 0.6198 0.0
Li793 Li 0.35889 0.08506 0.62255 0.0
Li794 Li 0.32832 0.07983 0.60358 0.0
Li795 Li 0.32732 0.08025 0.63778 0.0
C796 C 0.35128 0.11041 0.58354 0.0
N797 N 0.35308 0.13265 0.55111 0.0
C798 C 0.36947 0.11806 0.57737 0.0
C799 C 0.33404 0.11391 0.57312 0.0
C800 C 0.37006 0.12933 0.56097 0.0
C801 C 0.33525 0.12522 0.55679 0.0
C802 C 0.36351 0.10676 0.65289 0.0
C803 C 0.38892 0.09912 0.67556 0.0
N804 N 0.39726 0.11728 0.67258 0.0
C805 C 0.37223 0.12541 0.65013 0.0
C806 C 0.3718 0.09355 0.66579 0.0
C807 C 0.38932 0.13043 0.6602 0.0
C808 C 0.31767 0.14523 0.63508 0.0
N809 N 0.32965 0.13947 0.62078 0.0
C810 C 0.33568 0.17333 0.61235 0.0
C811 C 0.33853 0.15299 0.60935 0.0
C812 C 0.32384 0.1797 0.6274 0.0
C813 C 0.31455 0.16537 0.63868 0.0
H814 H 0.31094 0.1341 0.64399 0.0
H815 H 0.34831 0.14811 0.59831 0.0
C816 C 0.39308 0.06104 0.6268 0.0
N817 N 0.38665 0.07993 0.62378 0.0
C818 C 0.41341 0.05689 0.62745 0.0
C819 C 0.42013 0.09173 0.62188 0.0
C820 C 0.39966 0.09518 0.62125 0.0
C821 C 0.42723 0.07233 0.62492 0.0
H822 H 0.38244 0.04916 0.62854 0.0
H823 H 0.39412 0.11002 0.61862 0.0
C824 C 0.29109 0.09869 0.61435 0.0
N825 N 0.25255 0.1068 0.60322 0.0
C826 C 0.27539 0.08672 0.6205 0.0
C827 C 0.28713 0.11502 0.60284 0.0
C828 C 0.25603 0.09099 0.61462 0.0
C829 C 0.26756 0.11881 0.59728 0.0
C830 C 0.33766 0.04305 0.62885 0.0
C831 C 0.32524 0.02963 0.61955 0.0
C832 C 0.346 0.03778 0.64605 0.0
C833 C 0.32118 0.0112 0.62773 0.0
C834 C 0.34155 0.01922 0.65379 0.0
N835 N 0.32933 0.00643 0.64455 0.0
C836 C 0.33192 0.06335 0.56813 0.0
C837 C 0.29927 0.06081 0.58044 0.0
C838 C 0.32642 0.05249 0.55236 0.0
N839 N 0.31841 0.06719 0.58179 0.0
C840 C 0.29312 0.04986 0.5649 0.0
C841 C 0.30685 0.04536 0.55071 0.0
H842 H 0.34715 0.06827 0.56977 0.0
H843 H 0.28894 0.0636 0.59167 0.0
C844 C 0.31658 0.08136 0.67531 0.0
N845 N 0.31381 0.0708 0.65933 0.0
C846 C 0.30622 0.07632 0.6915 0.0
C847 C 0.29066 0.04927 0.67465 0.0
C848 C 0.30109 0.05506 0.65866 0.0
C849 C 0.29302 0.06016 0.69123 0.0
H850 H 0.32654 0.09399 0.67537 0.0
H851 H 0.29872 0.04725 0.64566 0.0
O852 O 0.3505 0.09938 0.59958 0.0
O853 O 0.34698 0.10144 0.64294 0.0
O854 O 0.3101 0.09485 0.62016 0.0
O855 O 0.34177 0.06118 0.62107 0.0
H856 H 0.38298 0.11539 0.5852 0.0
H857 H 0.31992 0.10781 0.57748 0.0
H858 H 0.38402 0.13541 0.55607 0.0
H859 H 0.32201 0.12805 0.5486 0.0
H860 H 0.39557 0.08899 0.68551 0.0
H861 H 0.36601 0.13581 0.64019 0.0
H862 H 0.36515 0.07911 0.66816 0.0
H863 H 0.39631 0.14476 0.65813 0.0
H864 H 0.3433 0.18395 0.6035 0.0
H865 H 0.3052 0.1697 0.65032 0.0
H866 H 0.41825 0.04175 0.62996 0.0
H867 H 0.43028 0.10401 0.6196 0.0
H868 H 0.27814 0.07416 0.62956 0.0
H869 H 0.29898 0.1248 0.59835 0.0
H870 H 0.24376 0.08174 0.61915 0.0
H871 H 0.26431 0.13135 0.58832 0.0
H872 H 0.31877 0.0334 0.60618 0.0
H873 H 0.35565 0.04798 0.65343 0.0
H874 H 0.31153 0.00069 0.62072 0.0
H875 H 0.34779 0.015 0.66715 0.0
H876 H 0.33761 0.04904 0.54195 0.0
H877 H 0.27787 0.04469 0.56415 0.0
H878 H 0.3084 0.08503 0.70408 0.0
H879 H 0.28037 0.03689 0.6739 0.0
Li880 Li 0.66381 0.61019 0.37673 0.0
Li881 Li 0.63932 0.58395 0.37066 0.0
Li882 Li 0.66755 0.57872 0.39225 0.0
Li883 Li 0.67369 0.57948 0.3588 0.0
C884 C 0.63769 0.61338 0.40461 0.0
N885 N 0.62297 0.6456 0.42423 0.0
C886 C 0.61765 0.61867 0.40301 0.0
C887 C 0.6502 0.62437 0.41633 0.0
C888 C 0.6105 0.63504 0.41302 0.0
C889 C 0.64249 0.64064 0.42609 0.0
C890 C 0.64548 0.60554 0.33577 0.0
C891 C 0.63814 0.59853 0.30342 0.0
N892 N 0.62857 0.6163 0.30204 0.0
C893 C 0.63584 0.62386 0.33394 0.0
C894 C 0.64687 0.59287 0.32032 0.0
C895 C 0.62727 0.62897 0.31681 0.0
C896 C 0.68782 0.64392 0.37586 0.0
N897 N 0.66853 0.63806 0.37732 0.0
C898 C 0.65754 0.67187 0.37716 0.0
C899 C 0.65343 0.65152 0.37792 0.0
C900 C 0.67733 0.67831 0.37538 0.0
C901 C 0.69259 0.66408 0.37486 0.0
H902 H 0.69951 0.63291 0.37508 0.0
H903 H 0.63818 0.64647 0.37862 0.0
C904 C 0.60417 0.56129 0.3728 0.0
N905 N 0.61175 0.57888 0.36668 0.0
C906 C 0.58393 0.55716 0.37077 0.0
C907 C 0.57955 0.58956 0.3567 0.0
C908 C 0.59991 0.59298 0.35882 0.0
C909 C 0.57135 0.57145 0.36272 0.0
H910 H 0.61382 0.55054 0.37944 0.0
H911 H 0.60615 0.60707 0.35463 0.0
C912 C 0.70476 0.59004 0.3891 0.0
N913 N 0.7378 0.58144 0.4106 0.0
C914 C 0.71721 0.5742 0.38424 0.0
C915 C 0.70919 0.6016 0.4048 0.0
C916 C 0.73383 0.57008 0.39531 0.0
C917 C 0.72593 0.59698 0.41552 0.0
C918 C 0.6529 0.54358 0.36227 0.0
C919 C 0.66031 0.52491 0.36734 0.0
C920 C 0.64095 0.54535 0.34636 0.0
C921 C 0.65573 0.50835 0.35635 0.0
C922 C 0.63667 0.52844 0.33575 0.0
N923 N 0.6441 0.51044 0.34091 0.0
C924 C 0.67132 0.57447 0.4313 0.0
C925 C 0.68725 0.54944 0.41337 0.0
C926 C 0.67798 0.56578 0.44783 0.0
N927 N 0.67609 0.56625 0.41455 0.0
C928 C 0.6942 0.5402 0.42956 0.0
C929 C 0.68956 0.54841 0.44708 0.0
H930 H 0.66226 0.5877 0.43184 0.0
H931 H 0.69089 0.54332 0.39982 0.0
C932 C 0.70522 0.58583 0.33597 0.0
N933 N 0.69127 0.57168 0.33944 0.0
C934 C 0.72024 0.58238 0.32299 0.0
C935 C 0.7059 0.55005 0.31675 0.0
C936 C 0.69128 0.554 0.33015 0.0
C937 C 0.72073 0.56428 0.31328 0.0
H938 H 0.7048 0.59975 0.34356 0.0
H939 H 0.68016 0.5429 0.33316 0.0
O940 O 0.64495 0.59741 0.39489 0.0
O941 O 0.65422 0.60042 0.35237 0.0
O942 O 0.68818 0.59406 0.37868 0.0
O943 O 0.65723 0.5599 0.37297 0.0
H944 H 0.60769 0.61023 0.39419 0.0
H945 H 0.66575 0.62053 0.41769 0.0
H946 H 0.59503 0.63932 0.41188 0.0
H947 H 0.65204 0.64936 0.43509 0.0
H948 H 0.63903 0.58883 0.29138 0.0
H949 H 0.6348 0.63394 0.34567 0.0
H950 H 0.65472 0.57887 0.32129 0.0
H951 H 0.61961 0.64303 0.31526 0.0
H952 H 0.64535 0.68241 0.37734 0.0
H953 H 0.70803 0.66848 0.37356 0.0
H954 H 0.57811 0.54315 0.37588 0.0
H955 H 0.57031 0.60097 0.35045 0.0
H956 H 0.71392 0.56501 0.37222 0.0
H957 H 0.69974 0.61395 0.40871 0.0
H958 H 0.74353 0.5578 0.39178 0.0
H959 H 0.72949 0.60574 0.42776 0.0
H960 H 0.6695 0.52322 0.37965 0.0
H961 H 0.63497 0.5596 0.34227 0.0
H962 H 0.6614 0.49383 0.3601 0.0
H963 H 0.62745 0.52963 0.32341 0.0
H964 H 0.67373 0.57235 0.46106 0.0
H965 H 0.70318 0.52688 0.4284 0.0
H966 H 0.73127 0.59383 0.32045 0.0
H967 H 0.70588 0.53592 0.30947 0.0
Li968 Li 0.16725 0.9232 0.1071 0.0
Li969 Li 0.17415 0.91827 0.13935 0.0
Li970 Li 0.16652 0.88966 0.11991 0.0
Li971 Li 0.13974 0.91348 0.12957 0.0
C972 C 0.20433 0.90923 0.10519 0.0
N973 N 0.23406 0.91305 0.07872 0.0
C974 C 0.22135 0.92046 0.10911 0.0
C975 C 0.20251 0.89988 0.08783 0.0
C976 C 0.23619 0.92223 0.09554 0.0
C977 C 0.21767 0.902 0.07463 0.0
C978 C 0.15532 0.95483 0.1395 0.0
C979 C 0.13973 0.97457 0.16357 0.0
N980 N 0.15423 0.98853 0.16162 0.0
C981 C 0.17 0.96943 0.13766 0.0
C982 C 0.14 0.95744 0.1525 0.0
C983 C 0.16922 0.98634 0.14901 0.0
C984 C 0.16342 0.93897 0.07018 0.0
N985 N 0.17386 0.93952 0.08643 0.0
C986 C 0.19527 0.96481 0.07444 0.0
C987 C 0.1894 0.95219 0.08882 0.0
C988 C 0.1847 0.96485 0.05752 0.0
C989 C 0.16859 0.95162 0.05545 0.0
H990 H 0.15091 0.92896 0.06878 0.0
H991 H 0.19727 0.95249 0.10196 0.0
C992 C 0.20962 0.91646 0.15862 0.0
N993 N 0.19186 0.92612 0.15901 0.0
C994 C 0.22431 0.92082 0.1717 0.0
C995 C 0.20194 0.94449 0.18602 0.0
C996 C 0.18766 0.93969 0.17257 0.0
C997 C 0.22062 0.93513 0.18555 0.0
H998 H 0.21234 0.90517 0.14816 0.0
H999 H 0.17322 0.9466 0.1732 0.0
C1000 C 0.13772 0.88831 0.09312 0.0
N1001 N 0.12109 0.85848 0.07159 0.0
C1002 C 0.12111 0.87784 0.09958 0.0
C1003 C 0.14571 0.88376 0.07559 0.0
C1004 C 0.11296 0.86277 0.08852 0.0
C1005 C 0.13714 0.86859 0.06495 0.0
C1006 C 0.1628 0.89101 0.16272 0.0
C1007 C 0.17671 0.87576 0.16514 0.0
C1008 C 0.15664 0.90221 0.17814 0.0
C1009 C 0.18423 0.87197 0.18299 0.0
C1010 C 0.16454 0.89796 0.19576 0.0
N1011 N 0.17806 0.88306 0.1978 0.0
C1012 C 0.19092 0.85621 0.11253 0.0
C1013 C 0.15723 0.84866 0.11927 0.0
C1014 C 0.19563 0.83602 0.11169 0.0
N1015 N 0.17197 0.86213 0.11618 0.0
C1016 C 0.16125 0.82829 0.11847 0.0
C1017 C 0.18073 0.82177 0.11487 0.0
H1018 H 0.20258 0.8671 0.11094 0.0
H1019 H 0.14253 0.85371 0.12308 0.0
C1020 C 0.09935 0.92082 0.12123 0.0
N1021 N 0.11213 0.91531 0.135 0.0
C1022 C 0.07881 0.92038 0.12432 0.0
C1023 C 0.0851 0.90951 0.15597 0.0
C1024 C 0.10545 0.90981 0.15215 0.0
C1025 C 0.07139 0.91443 0.14185 0.0
H1026 H 0.1051 0.92489 0.10763 0.0
H1027 H 0.1159 0.90528 0.16277 0.0
O1028 O 0.18942 0.90761 0.11817 0.0
O1029 O 0.15562 0.93832 0.12833 0.0
O1030 O 0.14591 0.90311 0.10376 0.0
O1031 O 0.1557 0.89532 0.14526 0.0
H1032 H 0.22295 0.92805 0.12236 0.0
H1033 H 0.18952 0.89105 0.08462 0.0
H1034 H 0.24937 0.93097 0.09835 0.0
H1035 H 0.21641 0.89486 0.06113 0.0
H1036 H 0.12801 0.97674 0.17373 0.0
H1037 H 0.18194 0.9677 0.12769 0.0
H1038 H 0.12849 0.94636 0.15411 0.0
H1039 H 0.18054 0.99771 0.14779 0.0
H1040 H 0.20795 0.97447 0.07663 0.0
H1041 H 0.15976 0.95137 0.0428 0.0
H1042 H 0.23827 0.91279 0.17119 0.0
H1043 H 0.19844 0.95547 0.19661 0.0
H1044 H 0.11475 0.88108 0.11313 0.0
H1045 H 0.15833 0.89192 0.0702 0.0
H1046 H 0.10021 0.85445 0.09343 0.0
H1047 H 0.14322 0.86488 0.05139 0.0
H1048 H 0.18178 0.86706 0.15336 0.0
H1049 H 0.14627 0.91439 0.17648 0.0
H1050 H 0.19504 0.86025 0.18506 0.0
H1051 H 0.16004 0.90662 0.20778 0.0
H1052 H 0.21085 0.83161 0.10891 0.0
H1053 H 0.14943 0.8178 0.12144 0.0
H1054 H 0.06892 0.92399 0.11288 0.0
H1055 H 0.08021 0.9052 0.1698 0.0
Li1056 Li 0.83 0.60791 0.12016 0.0
Li1057 Li 0.85899 0.58494 0.12686 0.0
Li1058 Li 0.82785 0.57336 0.10942 0.0
Li1059 Li 0.82718 0.58049 0.14187 0.0
C1060 C 0.85396 0.60428 0.08718 0.0
N1061 N 0.86643 0.62594 0.05651 0.0
C1062 C 0.87285 0.613 0.08701 0.0
C1063 C 0.84157 0.60626 0.0716 0.0
C1064 C 0.87884 0.62399 0.07142 0.0
C1065 C 0.84811 0.61735 0.05627 0.0
C1066 C 0.84146 0.61032 0.16119 0.0
C1067 C 0.84871 0.61017 0.19419 0.0
N1068 N 0.83242 0.62172 0.1973 0.0
C1069 C 0.82483 0.62225 0.16469 0.0
C1070 C 0.85355 0.60427 0.17603 0.0
C1071 C 0.8205 0.62784 0.18305 0.0
C1072 C 0.80674 0.64361 0.11463 0.0
N1073 N 0.82513 0.63512 0.11449 0.0
C1074 C 0.84003 0.66579 0.10519 0.0
C1075 C 0.84166 0.64594 0.11048 0.0
C1076 C 0.82124 0.67479 0.10461 0.0
C1077 C 0.80444 0.66365 0.10976 0.0
H1078 H 0.79388 0.63486 0.11849 0.0
H1079 H 0.85616 0.63912 0.11144 0.0
C1080 C 0.89839 0.57197 0.11822 0.0
N1081 N 0.887 0.58466 0.12845 0.0
C1082 C 0.91914 0.57383 0.1184 0.0
C1083 C 0.91581 0.60134 0.13997 0.0
C1084 C 0.89525 0.59904 0.13928 0.0
C1085 C 0.92806 0.58892 0.12915 0.0
H1086 H 0.89135 0.56084 0.10953 0.0
H1087 H 0.8858 0.60912 0.14701 0.0
C1088 C 0.79022 0.58938 0.11298 0.0
N1089 N 0.75562 0.58925 0.0921 0.0
C1090 C 0.77354 0.57886 0.11922 0.0
C1091 C 0.78925 0.5999 0.09618 0.0
C1092 C 0.7562 0.57895 0.10845 0.0
C1093 C 0.77164 0.59965 0.0858 0.0
C1094 C 0.8398 0.54211 0.13759 0.0
C1095 C 0.82037 0.5347 0.13796 0.0
C1096 C 0.85515 0.53135 0.14603 0.0
C1097 C 0.81659 0.51661 0.14689 0.0
C1098 C 0.85076 0.5133 0.1548 0.0
N1099 N 0.83174 0.50637 0.15505 0.0
C1100 C 0.83237 0.55461 0.075 0.0
C1101 C 0.80202 0.5465 0.09005 0.0
C1102 C 0.82754 0.54245 0.0599 0.0
N1103 N 0.81957 0.55656 0.08958 0.0
C1104 C 0.79656 0.53417 0.07522 0.0
C1105 C 0.8094 0.53205 0.05986 0.0
H1106 H 0.84645 0.56238 0.0752 0.0
H1107 H 0.79229 0.54786 0.10197 0.0
C1108 C 0.79736 0.57836 0.16947 0.0
N1109 N 0.81627 0.5728 0.16529 0.0
C1110 C 0.78936 0.5741 0.187 0.0
C1111 C 0.82043 0.55838 0.19552 0.0
C1112 C 0.82783 0.56297 0.17785 0.0
C1113 C 0.801 0.56412 0.20035 0.0
H1114 H 0.78873 0.58665 0.15939 0.0
H1115 H 0.843 0.55918 0.17432 0.0
O1116 O 0.84789 0.59343 0.10235 0.0
O1117 O 0.8455 0.60414 0.14338 0.0
O1118 O 0.80739 0.58925 0.12326 0.0
O1119 O 0.84377 0.55992 0.12917 0.0
H1120 H 0.88271 0.6115 0.09887 0.0
H1121 H 0.82716 0.59915 0.07122 0.0
H1122 H 0.89334 0.63097 0.07118 0.0
H1123 H 0.83864 0.61906 0.04415 0.0
H1124 H 0.85785 0.60548 0.20583 0.0
H1125 H 0.81522 0.62689 0.15337 0.0
H1126 H 0.86634 0.59483 0.17358 0.0
H1127 H 0.80761 0.63696 0.18599 0.0
H1128 H 0.85336 0.67411 0.10178 0.0
H1129 H 0.78974 0.67026 0.10968 0.0
H1130 H 0.92802 0.56405 0.10972 0.0
H1131 H 0.92202 0.61294 0.1487 0.0
H1132 H 0.77407 0.57046 0.13211 0.0
H1133 H 0.80191 0.60828 0.09125 0.0
H1134 H 0.74323 0.57078 0.11306 0.0
H1135 H 0.77071 0.60773 0.07276 0.0
H1136 H 0.8083 0.54303 0.13175 0.0
H1137 H 0.87026 0.53694 0.14587 0.0
H1138 H 0.80161 0.51075 0.1474 0.0
H1139 H 0.86248 0.50481 0.16143 0.0
H1140 H 0.83811 0.54088 0.04857 0.0
H1141 H 0.78243 0.52643 0.07574 0.0
H1142 H 0.77447 0.5792 0.19028 0.0
H1143 H 0.82989 0.55062 0.20538 0.0
Li1144 Li 0.13838 0.08144 0.87001 0.0
Li1145 Li 0.16355 0.10753 0.87436 0.0
Li1146 Li 0.17182 0.0764 0.85614 0.0
Li1147 Li 0.16814 0.07618 0.88999 0.0
C1148 C 0.14217 0.10224 0.83462 0.0
N1149 N 0.12262 0.11192 0.80188 0.0
C1150 C 0.13316 0.12086 0.83264 0.0
C1151 C 0.14156 0.08869 0.8198 0.0
C1152 C 0.12324 0.12543 0.81603 0.0
C1153 C 0.13152 0.09382 0.80341 0.0
C1154 C 0.13904 0.11073 0.90398 0.0
C1155 C 0.14489 0.13781 0.92545 0.0
N1156 N 0.1252 0.14245 0.92486 0.0
C1157 C 0.11885 0.1157 0.90369 0.0
C1158 C 0.15217 0.12179 0.91504 0.0
C1159 C 0.11215 0.13181 0.91431 0.0
C1160 C 0.10331 0.05912 0.87457 0.0
N1161 N 0.1106 0.07649 0.86765 0.0
C1162 C 0.07798 0.0868 0.85855 0.0
C1163 C 0.0984 0.09035 0.85989 0.0
C1164 C 0.07013 0.06879 0.86522 0.0
C1165 C 0.08305 0.05483 0.87329 0.0
H1166 H 0.11326 0.04859 0.88114 0.0
H1167 H 0.10443 0.1043 0.85505 0.0
C1168 C 0.18694 0.14216 0.87415 0.0
N1169 N 0.1679 0.13549 0.87524 0.0
C1170 C 0.19102 0.16249 0.8753 0.0
C1171 C 0.15578 0.1687 0.87871 0.0
C1172 C 0.15238 0.1483 0.87706 0.0
C1173 C 0.17535 0.17612 0.87788 0.0
H1174 H 0.19899 0.13167 0.87236 0.0
H1175 H 0.13733 0.14266 0.87757 0.0
C1176 C 0.15102 0.04028 0.8625 0.0
N1177 N 0.14055 0.00554 0.8443 0.0
C1178 C 0.1588 0.02205 0.8684 0.0
C1179 C 0.13782 0.04081 0.84741 0.0
C1180 C 0.15337 0.00466 0.85899 0.0
C1181 C 0.13272 0.0231 0.83838 0.0
C1182 C 0.20508 0.08673 0.8844 0.0
C1183 C 0.2171 0.07092 0.87861 0.0
C1184 C 0.21043 0.09783 0.90014 0.0
C1185 C 0.23423 0.06635 0.8888 0.0
C1186 C 0.22766 0.09277 0.90997 0.0
N1187 N 0.2391 0.07726 0.90415 0.0
C1188 C 0.20012 0.08154 0.82897 0.0
C1189 C 0.1857 0.04944 0.82714 0.0
C1190 C 0.21231 0.07746 0.81369 0.0
N1191 N 0.1871 0.06765 0.83533 0.0
C1192 C 0.19743 0.04481 0.81163 0.0
C1193 C 0.21094 0.05894 0.80464 0.0
H1194 H 0.20103 0.09584 0.83588 0.0
H1195 H 0.17546 0.0385 0.83242 0.0
C1196 C 0.172 0.07217 0.9288 0.0
N1197 N 0.17741 0.06395 0.91223 0.0
C1198 C 0.17814 0.06364 0.94554 0.0
C1199 C 0.19519 0.03809 0.92793 0.0
C1200 C 0.18881 0.04725 0.91146 0.0
C1201 C 0.1898 0.04632 0.94525 0.0
H1202 H 0.16263 0.08517 0.92906 0.0
H1203 H 0.19286 0.04102 0.89806 0.0
O1204 O 0.15217 0.09764 0.85071 0.0
O1205 O 0.14586 0.09503 0.89361 0.0
O1206 O 0.15611 0.0574 0.8717 0.0
O1207 O 0.18805 0.09117 0.87483 0.0
H1208 H 0.13368 0.13162 0.84386 0.0
H1209 H 0.14889 0.07442 0.82085 0.0
H1210 H 0.11607 0.13973 0.81437 0.0
H1211 H 0.13088 0.08345 0.79186 0.0
H1212 H 0.15491 0.14658 0.93394 0.0
H1213 H 0.10844 0.10721 0.89537 0.0
H1214 H 0.16785 0.11822 0.91538 0.0
H1215 H 0.09657 0.13586 0.91417 0.0
H1216 H 0.06846 0.09796 0.85229 0.0
H1217 H 0.07748 0.04093 0.87889 0.0
H1218 H 0.2063 0.1674 0.87405 0.0
H1219 H 0.14318 0.17844 0.88093 0.0
H1220 H 0.16893 0.02132 0.88013 0.0
H1221 H 0.13152 0.05472 0.84273 0.0
H1222 H 0.15932 0.99046 0.86339 0.0
H1223 H 0.12254 0.02332 0.82668 0.0
H1224 H 0.21312 0.06212 0.86651 0.0
H1225 H 0.20131 0.11014 0.90476 0.0
H1226 H 0.24362 0.05408 0.88455 0.0
H1227 H 0.23192 0.10115 0.92224 0.0
H1228 H 0.22279 0.08869 0.80913 0.0
H1229 H 0.19567 0.03042 0.80502 0.0
H1230 H 0.17328 0.07019 0.9586 0.0
H1231 H 0.20418 0.02474 0.92715 0.0
Li1232 Li 0.67029 0.42454 0.60675 0.0
Li1233 Li 0.67109 0.42032 0.63965 0.0
Li1234 Li 0.66861 0.39119 0.62034 0.0
Li1235 Li 0.63929 0.4141 0.62498 0.0
C1236 C 0.70746 0.40873 0.61059 0.0
N1237 N 0.74077 0.40595 0.58807 0.0
C1238 C 0.72462 0.41956 0.61493 0.0
C1239 C 0.70728 0.39648 0.59482 0.0
C1240 C 0.7413 0.41797 0.60336 0.0
C1241 C 0.72426 0.39525 0.58362 0.0
C1242 C 0.65429 0.45665 0.63561 0.0
C1243 C 0.63749 0.48035 0.65538 0.0
N1244 N 0.65441 0.49143 0.65614 0.0
C1245 C 0.67146 0.46833 0.63645 0.0
C1246 C 0.63712 0.46271 0.64504 0.0
C1247 C 0.67125 0.48584 0.64698 0.0
C1248 C 0.66877 0.44034 0.57031 0.0
N1249 N 0.67925 0.44021 0.58653 0.0
C1250 C 0.70202 0.46434 0.57459 0.0
C1251 C 0.69555 0.4519 0.58893 0.0
C1252 C 0.69135 0.46506 0.55772 0.0
C1253 C 0.67458 0.45272 0.55564 0.0
H1254 H 0.6556 0.4312 0.56895 0.0
H1255 H 0.70334 0.45185 0.60212 0.0
C1256 C 0.70248 0.42328 0.66458 0.0
N1257 N 0.6834 0.42942 0.66216 0.0
C1258 C 0.71275 0.42796 0.68088 0.0
C1259 C 0.68352 0.44517 0.69214 0.0
C1260 C 0.67377 0.4401 0.67556 0.0
C1261 C 0.70322 0.43891 0.69498 0.0
H1262 H 0.70959 0.41427 0.65402 0.0
H1263 H 0.65838 0.44419 0.67366 0.0
C1264 C 0.64449 0.38984 0.58794 0.0
N1265 N 0.63181 0.36281 0.56137 0.0
C1266 C 0.62647 0.37975 0.59029 0.0
C1267 C 0.65585 0.38648 0.57188 0.0
C1268 C 0.62038 0.36605 0.57676 0.0
C1269 C 0.64925 0.37268 0.55866 0.0
C1270 C 0.65557 0.39355 0.66174 0.0
C1271 C 0.67146 0.38185 0.66791 0.0
C1272 C 0.6427 0.4022 0.67476 0.0
C1273 C 0.67429 0.3791 0.68708 0.0
C1274 C 0.64601 0.39906 0.69381 0.0
N1275 N 0.66162 0.3877 0.69952 0.0
C1276 C 0.69402 0.3574 0.62154 0.0
C1277 C 0.65982 0.35052 0.61671 0.0
C1278 C 0.69831 0.3371 0.62241 0.0
N1279 N 0.67503 0.36368 0.61863 0.0
C1280 C 0.66343 0.3301 0.6174 0.0
C1281 C 0.68286 0.32317 0.62051 0.0
H1282 H 0.70574 0.36812 0.62386 0.0
H1283 H 0.64474 0.35586 0.61546 0.0
C1284 C 0.60004 0.42674 0.61571 0.0
N1285 N 0.61124 0.41441 0.62647 0.0
C1286 C 0.57926 0.42527 0.61602 0.0
C1287 C 0.58217 0.39879 0.63873 0.0
C1288 C 0.60278 0.4007 0.63792 0.0
C1289 C 0.5701 0.41092 0.62746 0.0
H1290 H 0.60725 0.43735 0.60658 0.0
H1291 H 0.61208 0.39089 0.64609 0.0
O1292 O 0.69084 0.41042 0.62157 0.0
O1293 O 0.65412 0.43951 0.62534 0.0
O1294 O 0.6506 0.40343 0.60099 0.0
O1295 O 0.65293 0.3969 0.64306 0.0
H1296 H 0.72498 0.42934 0.62694 0.0
H1297 H 0.69422 0.38788 0.59137 0.0
H1298 H 0.75463 0.42634 0.6065 0.0
H1299 H 0.72431 0.38579 0.57138 0.0
H1300 H 0.62435 0.4852 0.66282 0.0
H1301 H 0.68487 0.4638 0.62926 0.0
H1302 H 0.62368 0.45384 0.64445 0.0
H1303 H 0.68447 0.49497 0.64788 0.0
H1304 H 0.7151 0.47345 0.57679 0.0
H1305 H 0.66561 0.45309 0.54307 0.0
H1306 H 0.72796 0.42293 0.68247 0.0
H1307 H 0.67554 0.45333 0.70283 0.0
H1308 H 0.61738 0.38229 0.60253 0.0
H1309 H 0.66953 0.39457 0.56952 0.0
H1310 H 0.60656 0.35801 0.57849 0.0
H1311 H 0.65794 0.36987 0.54621 0.0
H1312 H 0.68164 0.37518 0.65801 0.0
H1313 H 0.63048 0.41151 0.67022 0.0
H1314 H 0.6866 0.3702 0.69207 0.0
H1315 H 0.63626 0.40577 0.70406 0.0
H1316 H 0.71349 0.33237 0.6249 0.0
H1317 H 0.65101 0.31989 0.61637 0.0
H1318 H 0.57054 0.43479 0.60697 0.0
H1319 H 0.57577 0.38776 0.64798 0.0
Li1320 Li 0.32831 0.91694 0.35576 0.0
Li1321 Li 0.32727 0.92266 0.38804 0.0
Li1322 Li 0.3585 0.91258 0.37372 0.0
Li1323 Li 0.32913 0.88844 0.37722 0.0
C1324 C 0.33612 0.95604 0.36622 0.0
N1325 N 0.3207 0.99346 0.35948 0.0
C1326 C 0.31554 0.95905 0.36624 0.0
C1327 C 0.34886 0.97206 0.36281 0.0
C1328 C 0.30803 0.97807 0.3628 0.0
C1329 C 0.34077 0.99086 0.35942 0.0
C1330 C 0.28843 0.90531 0.37884 0.0
C1331 C 0.26397 0.8893 0.39842 0.0
N1332 N 0.24949 0.90062 0.39048 0.0
C1333 C 0.27327 0.91668 0.37078 0.0
C1334 C 0.28374 0.89141 0.39269 0.0
C1335 C 0.25369 0.91414 0.3769 0.0
C1336 C 0.30145 0.91539 0.3263 0.0
N1337 N 0.31827 0.92468 0.33217 0.0
C1338 C 0.31983 0.9437 0.30402 0.0
C1339 C 0.32758 0.93856 0.32148 0.0
C1340 C 0.30235 0.93443 0.29765 0.0
C1341 C 0.29319 0.92007 0.30902 0.0
H1342 H 0.29462 0.90415 0.33499 0.0
H1343 H 0.34108 0.94554 0.32646 0.0
C1344 C 0.33077 0.95274 0.41478 0.0
N1345 N 0.31752 0.93938 0.40778 0.0
C1346 C 0.32588 0.96429 0.43031 0.0
C1347 C 0.29336 0.94901 0.43057 0.0
C1348 C 0.29897 0.93759 0.41518 0.0
C1349 C 0.30702 0.9623 0.4386 0.0
H1350 H 0.34543 0.95391 0.40863 0.0
H1351 H 0.28854 0.9271 0.40952 0.0
C1352 C 0.34854 0.89094 0.33656 0.0
N1353 N 0.35083 0.88676 0.29822 0.0
C1354 C 0.33568 0.87793 0.32727 0.0
C1355 C 0.36264 0.90173 0.3264 0.0
C1356 C 0.33705 0.87606 0.30786 0.0
C1357 C 0.36355 0.89942 0.30702 0.0
C1358 C 0.34709 0.90505 0.41532 0.0
C1359 C 0.36292 0.91613 0.42256 0.0
C1360 C 0.33224 0.89805 0.42731 0.0
C1361 C 0.36345 0.9203 0.44169 0.0
C1362 C 0.33328 0.90257 0.44634 0.0
N1363 N 0.34872 0.91352 0.45308 0.0
C1364 C 0.39744 0.92894 0.37931 0.0
C1365 C 0.39531 0.89541 0.36918 0.0
C1366 C 0.41819 0.92757 0.38043 0.0
N1367 N 0.38655 0.91287 0.37396 0.0
C1368 C 0.41591 0.89341 0.37 0.0
C1369 C 0.42764 0.90949 0.37599 0.0
H1370 H 0.38998 0.94262 0.38312 0.0
H1371 H 0.38621 0.88291 0.36497 0.0
C1372 C 0.30904 0.85132 0.37214 0.0
N1373 N 0.32328 0.86138 0.38179 0.0
C1374 C 0.3056 0.83119 0.37587 0.0
C1375 C 0.33144 0.83237 0.39937 0.0
C1376 C 0.3344 0.85238 0.39517 0.0
C1377 C 0.3169 0.82148 0.38967 0.0
H1378 H 0.30041 0.85894 0.36157 0.0
H1379 H 0.34574 0.86073 0.40248 0.0
O1380 O 0.34388 0.93754 0.36947 0.0
O1381 O 0.30764 0.90742 0.37279 0.0
O1382 O 0.34698 0.89352 0.35544 0.0
O1383 O 0.34603 0.90131 0.39656 0.0
H1384 H 0.30549 0.94686 0.36891 0.0
H1385 H 0.36483 0.96995 0.36275 0.0
H1386 H 0.29213 0.9806 0.36277 0.0
H1387 H 0.35046 0.0034 0.35674 0.0
H1388 H 0.26016 0.87867 0.40919 0.0
H1389 H 0.27655 0.92736 0.3599 0.0
H1390 H 0.2952 0.88247 0.3991 0.0
H1391 H 0.24183 0.92288 0.37082 0.0
H1392 H 0.32732 0.95486 0.29567 0.0
H1393 H 0.27996 0.91224 0.30447 0.0
H1394 H 0.33703 0.97414 0.43612 0.0
H1395 H 0.27852 0.94724 0.43623 0.0
H1396 H 0.32461 0.86957 0.33495 0.0
H1397 H 0.3726 0.91197 0.33341 0.0
H1398 H 0.32711 0.86615 0.30046 0.0
H1399 H 0.37431 0.90777 0.29895 0.0
H1400 H 0.37453 0.92165 0.41347 0.0
H1401 H 0.31995 0.88939 0.42195 0.0
H1402 H 0.37552 0.92899 0.44746 0.0
H1403 H 0.3218 0.8974 0.45576 0.0
H1404 H 0.42666 0.94029 0.38523 0.0
H1405 H 0.42256 0.87934 0.36607 0.0
H1406 H 0.29417 0.82335 0.36814 0.0
H1407 H 0.34077 0.82541 0.40984 0.0
H1408 H 0.15981 0.7905 0.09981 0.0
H1409 H 0.21272 0.80456 0.13201 0.0
H1410 H 0.22043 0.76878 0.13463 0.0
H1411 H 0.14573 0.74775 0.12572 0.0
H1412 H 0.13717 0.73386 0.10572 0.0
H1413 H 0.13636 0.76063 0.10545 0.0
H1414 H 0.15732 0.76105 0.07504 0.0
H1415 H 0.15814 0.73426 0.07519 0.0
H1416 H 0.18095 0.74836 0.07448 0.0
H1417 H 0.22126 0.73161 0.13548 0.0
H1418 H 0.21568 0.69544 0.13384 0.0
H1419 H 0.1628 0.70542 0.10016 0.0
C1420 C 0.17305 0.78603 0.10735 0.0
C1421 C 0.18573 0.8003 0.11563 0.0
C1422 C 0.20298 0.7939 0.12531 0.0
C1423 C 0.20742 0.77361 0.12695 0.0
C1424 C 0.19455 0.75993 0.11874 0.0
C1425 C 0.17779 0.76584 0.10904 0.0
C1426 C 0.16622 0.74807 0.10185 0.0
C1427 C 0.14512 0.74756 0.11019 0.0
C1428 C 0.16563 0.74793 0.08036 0.0
C1429 C 0.17892 0.73126 0.10934 0.0
C1430 C 0.19521 0.73844 0.11899 0.0
C1431 C 0.20872 0.72579 0.12773 0.0
C1432 C 0.20547 0.70523 0.1266 0.0
C1433 C 0.18889 0.69748 0.11673 0.0
C1434 C 0.17555 0.71079 0.10792 0.0
H1435 H 0.45732 0.93614 0.3668 0.0
H1436 H 0.44739 0.87726 0.39001 0.0
H1437 H 0.48359 0.87206 0.39205 0.0
H1438 H 0.49939 0.92379 0.33908 0.0
H1439 H 0.51252 0.94671 0.34346 0.0
H1440 H 0.48574 0.94623 0.34424 0.0
H1441 H 0.48642 0.96053 0.37787 0.0
H1442 H 0.51322 0.96114 0.37717 0.0
H1443 H 0.50065 0.94797 0.39567 0.0
H1444 H 0.52048 0.87242 0.39032 0.0
H1445 H 0.55634 0.87897 0.38612 0.0
H1446 H 0.54284 0.938 0.36509 0.0
C1447 C 0.46276 0.92227 0.37255 0.0
C1448 C 0.44949 0.90702 0.37806 0.0
C1449 C 0.45724 0.889 0.38534 0.0
C1450 C 0.47778 0.88594 0.38669 0.0
C1451 C 0.49043 0.90112 0.38087 0.0
C1452 C 0.48329 0.91898 0.37409 0.0
C1453 C 0.50021 0.9327 0.36857 0.0
C1454 C 0.49941 0.93764 0.3476 0.0
C1455 C 0.50012 0.95171 0.38054 0.0
C1456 C 0.51793 0.91964 0.37316 0.0
C1457 C 0.51189 0.90147 0.38021 0.0
C1458 C 0.52542 0.88662 0.38492 0.0
C1459 C 0.54572 0.89043 0.38238 0.0
C1460 C 0.55229 0.90895 0.37526 0.0
C1461 C 0.53819 0.92378 0.37072 0.0
H1462 H 0.31416 0.29611 0.60661 0.0
H1463 H 0.3266 0.30603 0.66533 0.0
H1464 H 0.32681 0.26968 0.67074 0.0
H1465 H 0.28247 0.25223 0.6122 0.0
H1466 H 0.29242 0.24001 0.59181 0.0
H1467 H 0.29166 0.26678 0.59287 0.0
H1468 H 0.3296 0.26818 0.58648 0.0
H1469 H 0.33049 0.24143 0.58546 0.0
H1470 H 0.34635 0.25468 0.60152 0.0
H1471 H 0.32663 0.23255 0.66959 0.0
H1472 H 0.32777 0.1968 0.66175 0.0
H1473 H 0.31663 0.21086 0.60349 0.0
C1474 C 0.3166 0.29056 0.62063 0.0
C1475 C 0.3202 0.30372 0.63562 0.0
C1476 C 0.3238 0.29607 0.65372 0.0
C1477 C 0.32387 0.27551 0.65692 0.0
C1478 C 0.32047 0.26287 0.64181 0.0
C1479 C 0.317 0.27006 0.62401 0.0
C1480 C 0.31501 0.25324 0.61003 0.0
C1481 C 0.29415 0.25306 0.60121 0.0
C1482 C 0.33134 0.25446 0.59499 0.0
C1483 C 0.31807 0.2355 0.62274 0.0
C1484 C 0.32095 0.24139 0.64104 0.0
C1485 C 0.32429 0.22773 0.65532 0.0
C1486 C 0.32482 0.20748 0.65075 0.0
C1487 C 0.32221 0.2011 0.63204 0.0
C1488 C 0.31874 0.21534 0.61789 0.0
H1489 H 0.0397 0.09369 0.87505 0.0
H1490 H 0.05189 0.03475 0.85316 0.0
H1491 H 0.01572 0.02795 0.8516 0.0
H1492 H 0.9985 0.07946 0.90399 0.0
H1493 H 0.98471 0.10201 0.89974 0.0
H1494 H 0.01149 0.10226 0.89876 0.0
H1495 H 0.01005 0.11663 0.86517 0.0
H1496 H 0.98326 0.11642 0.86604 0.0
H1497 H 0.99608 0.10365 0.84744 0.0
H1498 H 0.97821 0.02799 0.85189 0.0
H1499 H 0.9422 0.03435 0.85488 0.0
H1500 H 0.95489 0.09273 0.8781 0.0
C1501 C 0.03473 0.07942 0.86978 0.0
C1502 C 0.04851 0.06476 0.86413 0.0
C1503 C 0.04151 0.04613 0.85763 0.0
C1504 C 0.02104 0.04218 0.85663 0.0
C1505 C 0.00783 0.05697 0.86234 0.0
C1506 C 0.0144 0.07517 0.86887 0.0
C1507 C 0.99718 0.08837 0.87452 0.0
C1508 C 0.99802 0.0933 0.8955 0.0
C1509 C 0.99662 0.10739 0.86257 0.0
C1510 C 0.97988 0.07479 0.87004 0.0
C1511 C 0.98631 0.05678 0.86296 0.0
C1512 C 0.97299 0.04198 0.85756 0.0
C1513 C 0.95255 0.04569 0.85945 0.0
C1514 C 0.9456 0.06402 0.86681 0.0
C1515 C 0.95959 0.07866 0.8722 0.0
H1516 H 0.15261 0.29242 0.86714 0.0
H1517 H 0.21079 0.30388 0.89093 0.0
H1518 H 0.21626 0.26761 0.89462 0.0
H1519 H 0.1397 0.24985 0.89542 0.0
H1520 H 0.12788 0.23669 0.87648 0.0
H1521 H 0.12825 0.26349 0.87658 0.0
H1522 H 0.14485 0.2635 0.84386 0.0
H1523 H 0.14448 0.23672 0.84365 0.0
H1524 H 0.16762 0.24982 0.84034 0.0
H1525 H 0.21483 0.23021 0.89634 0.0
H1526 H 0.20788 0.19434 0.89399 0.0
H1527 H 0.15188 0.20746 0.86615 0.0
C1528 C 0.1664 0.28721 0.87325 0.0
C1529 C 0.18124 0.30073 0.87895 0.0
C1530 C 0.19929 0.29358 0.88657 0.0
C1531 C 0.20247 0.27309 0.88875 0.0
C1532 C 0.18755 0.26006 0.88295 0.0
C1533 C 0.16997 0.26682 0.87518 0.0
C1534 C 0.15676 0.24971 0.86926 0.0
C1535 C 0.13698 0.24996 0.88009 0.0
C1536 C 0.15323 0.24995 0.84802 0.0
C1537 C 0.1696 0.23226 0.87502 0.0
C1538 C 0.18719 0.23853 0.88306 0.0
C1539 C 0.2012 0.22511 0.88984 0.0
C1540 C 0.19717 0.20471 0.88828 0.0
C1541 C 0.17939 0.19785 0.8797 0.0
C1542 C 0.1655 0.21199 0.873 0.0
H1543 H 0.95561 0.93551 0.12481 0.0
H1544 H 0.9434 0.88555 0.16152 0.0
H1545 H 0.97933 0.88184 0.16758 0.0
H1546 H 0.99901 0.91611 0.10429 0.0
H1547 H 0.01215 0.93946 0.10326 0.0
H1548 H 0.98537 0.93915 0.10267 0.0
H1549 H 0.98414 0.96275 0.13128 0.0
H1550 H 0.01095 0.96326 0.13189 0.0
H1551 H 0.99714 0.956 0.15239 0.0
H1552 H 0.01639 0.88183 0.16777 0.0
H1553 H 0.05234 0.88614 0.16299 0.0
H1554 H 0.04077 0.93745 0.12763 0.0
C1555 C 0.96046 0.92404 0.13441 0.0
C1556 C 0.94669 0.91075 0.14262 0.0
C1557 C 0.95369 0.89572 0.15485 0.0
C1558 C 0.97405 0.89357 0.15849 0.0
C1559 C 0.98724 0.90668 0.14991 0.0
C1560 C 0.98077 0.92172 0.13825 0.0
C1561 C 0.99816 0.93335 0.13033 0.0
C1562 C 0.99869 0.93192 0.10887 0.0
C1563 C 0.99756 0.95513 0.13687 0.0
C1564 C 0.01541 0.92223 0.13909 0.0
C1565 C 0.00875 0.90695 0.15037 0.0
C1566 C 0.02182 0.89398 0.15926 0.0
C1567 C 0.04228 0.89667 0.15654 0.0
C1568 C 0.04958 0.91232 0.14512 0.0
C1569 C 0.03582 0.9253 0.1364 0.0
H1570 H 0.31382 0.70607 0.36426 0.0
H1571 H 0.32147 0.69418 0.42339 0.0
H1572 H 0.31802 0.73009 0.43018 0.0
H1573 H 0.34266 0.74955 0.36336 0.0
H1574 H 0.3274 0.76245 0.34655 0.0
H1575 H 0.32823 0.73569 0.34657 0.0
H1576 H 0.28984 0.73442 0.34995 0.0
H1577 H 0.2889 0.76122 0.34997 0.0
H1578 H 0.27803 0.74742 0.369 0.0
H1579 H 0.31579 0.76717 0.43035 0.0
H1580 H 0.31657 0.8032 0.42386 0.0
H1581 H 0.3115 0.79112 0.36444 0.0
C1582 C 0.31435 0.71103 0.37865 0.0
C1583 C 0.31777 0.69744 0.39334 0.0
C1584 C 0.31889 0.70444 0.41197 0.0
C1585 C 0.31682 0.72475 0.41596 0.0
C1586 C 0.31369 0.73782 0.40114 0.0
C1587 C 0.31252 0.73128 0.38285 0.0
C1588 C 0.31065 0.74858 0.36939 0.0
C1589 C 0.32828 0.74909 0.35567 0.0
C1590 C 0.29066 0.74786 0.35896 0.0
C1591 C 0.31137 0.76587 0.38294 0.0
C1592 C 0.31285 0.75932 0.4012 0.0
C1593 C 0.31454 0.77249 0.41613 0.0
C1594 C 0.3151 0.79292 0.41229 0.0
C1595 C 0.31416 0.79998 0.39364 0.0
C1596 C 0.31192 0.78622 0.37885 0.0
H1597 H 0.54203 0.09305 0.64639 0.0
H1598 H 0.55552 0.04038 0.61354 0.0
H1599 H 0.51967 0.03428 0.60923 0.0
H1600 H 0.49771 0.07393 0.66903 0.0
H1601 H 0.48468 0.09734 0.66783 0.0
H1602 H 0.51144 0.09697 0.66931 0.0
H1603 H 0.51368 0.11811 0.63908 0.0
H1604 H 0.48694 0.11852 0.6375 0.0
H1605 H 0.50153 0.10947 0.61813 0.0
H1606 H 0.48251 0.03445 0.60749 0.0
H1607 H 0.44641 0.04119 0.60814 0.0
H1608 H 0.45701 0.0941 0.6415 0.0
C1609 C 0.53748 0.08024 0.63827 0.0
C1610 C 0.55166 0.0671 0.63046 0.0
C1611 C 0.545 0.05043 0.62003 0.0
C1612 C 0.52465 0.0469 0.61738 0.0
C1613 C 0.51111 0.06019 0.62519 0.0
C1614 C 0.51722 0.07653 0.63541 0.0
C1615 C 0.4996 0.08884 0.64182 0.0
C1616 C 0.49828 0.08929 0.66327 0.0
C1617 C 0.5005 0.10998 0.63364 0.0
C1618 C 0.48267 0.07697 0.63341 0.0
C1619 C 0.48964 0.06043 0.62399 0.0
C1620 C 0.47685 0.04729 0.61491 0.0
C1621 C 0.45637 0.05119 0.61544 0.0
C1622 C 0.44889 0.06813 0.62491 0.0
C1623 C 0.46229 0.08112 0.63403 0.0
H1624 H 0.82935 0.20645 0.85968 0.0
H1625 H 0.80705 0.19409 0.91543 0.0
H1626 H 0.80369 0.23015 0.92126 0.0
H1627 H 0.85807 0.24851 0.87153 0.0
H1628 H 0.85254 0.26204 0.85041 0.0
H1629 H 0.85223 0.23527 0.85031 0.0
H1630 H 0.81603 0.23562 0.83779 0.0
H1631 H 0.81624 0.26243 0.83784 0.0
H1632 H 0.79715 0.24915 0.85041 0.0
H1633 H 0.80406 0.26749 0.92145 0.0
H1634 H 0.80824 0.30355 0.916 0.0
H1635 H 0.8301 0.29137 0.86007 0.0
C1636 C 0.82344 0.2113 0.873 0.0
C1637 C 0.81847 0.19746 0.88711 0.0
C1638 C 0.81116 0.20444 0.9045 0.0
C1639 C 0.80907 0.22488 0.90789 0.0
C1640 C 0.81426 0.23811 0.89373 0.0
C1641 C 0.82124 0.23162 0.87662 0.0
C1642 C 0.82642 0.24892 0.86399 0.0
C1643 C 0.84863 0.24866 0.85877 0.0
C1644 C 0.81317 0.24903 0.84647 0.0
C1645 C 0.82154 0.26617 0.87678 0.0
C1646 C 0.81444 0.25963 0.89383 0.0
C1647 C 0.80952 0.2728 0.90813 0.0
C1648 C 0.81205 0.29322 0.90494 0.0
C1649 C 0.81948 0.30024 0.88762 0.0
C1650 C 0.82409 0.28648 0.87335 0.0
H1651 H 0.66296 0.70952 0.39607 0.0
H1652 H 0.702 0.69528 0.34964 0.0
H1653 H 0.70904 0.73104 0.34517 0.0
H1654 H 0.64174 0.7532 0.37651 0.0
H1655 H 0.64087 0.7667 0.39827 0.0
H1656 H 0.63953 0.73995 0.39832 0.0
H1657 H 0.66982 0.73837 0.42071 0.0
H1658 H 0.67123 0.76514 0.42075 0.0
H1659 H 0.69268 0.7506 0.41425 0.0
H1660 H 0.71016 0.76821 0.34451 0.0
H1661 H 0.70621 0.80439 0.34824 0.0
H1662 H 0.66774 0.79449 0.39618 0.0
C1663 C 0.67302 0.71397 0.385 0.0
C1664 C 0.68198 0.6997 0.37321 0.0
C1665 C 0.69517 0.70601 0.35895 0.0
C1666 C 0.69919 0.72625 0.35627 0.0
C1667 C 0.69005 0.73996 0.36807 0.0
C1668 C 0.67735 0.73411 0.38224 0.0
C1669 C 0.66933 0.75188 0.39285 0.0
C1670 C 0.64652 0.75299 0.39139 0.0
C1671 C 0.67618 0.75147 0.41336 0.0
C1672 C 0.6792 0.76864 0.38218 0.0
C1673 C 0.6911 0.76143 0.36797 0.0
C1674 C 0.70113 0.77405 0.35577 0.0
C1675 C 0.6989 0.79462 0.35811 0.0
C1676 C 0.68681 0.80242 0.37263 0.0
C1677 C 0.67699 0.78912 0.38487 0.0
H1678 H 0.80428 0.70551 0.124 0.0
H1679 H 0.83523 0.69129 0.07255 0.0
H1680 H 0.83593 0.72695 0.06415 0.0
H1681 H 0.77487 0.74839 0.10572 0.0
H1682 H 0.77784 0.76234 0.12706 0.0
H1683 H 0.77715 0.73553 0.12773 0.0
H1684 H 0.81112 0.73515 0.14487 0.0
H1685 H 0.81196 0.76189 0.14418 0.0
H1686 H 0.83215 0.74759 0.13445 0.0
H1687 H 0.83628 0.76392 0.0628 0.0
H1688 H 0.83677 0.80008 0.06877 0.0
H1689 H 0.80648 0.7906 0.1216 0.0
C1690 C 0.81066 0.70994 0.11073 0.0
C1691 C 0.81951 0.69578 0.09878 0.0
C1692 C 0.82831 0.70202 0.0818 0.0
C1693 C 0.8287 0.72218 0.0769 0.0
C1694 C 0.82026 0.73588 0.08917 0.0
C1695 C 0.81137 0.73007 0.10573 0.0
C1696 C 0.80512 0.74795 0.11723 0.0
C1697 C 0.78239 0.74859 0.11957 0.0
C1698 C 0.81573 0.74815 0.1363 0.0
C1699 C 0.81237 0.76468 0.10478 0.0
C1700 C 0.8208 0.75737 0.08855 0.0
C1701 C 0.82953 0.76985 0.07536 0.0
C1702 C 0.82987 0.79034 0.07893 0.0
C1703 C 0.82166 0.79814 0.09563 0.0
C1704 C 0.81254 0.78511 0.10856 0.0
H1705 H 0.66776 0.29204 0.60006 0.0
H1706 H 0.70603 0.30564 0.64724 0.0
H1707 H 0.71046 0.26976 0.65318 0.0
H1708 H 0.64264 0.2515 0.62087 0.0
H1709 H 0.64127 0.23684 0.59981 0.0
H1710 H 0.64218 0.26356 0.59837 0.0
H1711 H 0.67314 0.26141 0.57686 0.0
H1712 H 0.67225 0.23465 0.57812 0.0
H1713 H 0.69468 0.24767 0.58455 0.0
H1714 H 0.70876 0.23272 0.65542 0.0
H1715 H 0.70235 0.19674 0.65302 0.0
H1716 H 0.6658 0.207 0.60387 0.0
C1717 C 0.67717 0.28745 0.61156 0.0
C1718 C 0.68664 0.30162 0.62314 0.0
C1719 C 0.6989 0.29505 0.63801 0.0
C1720 C 0.70141 0.2747 0.64156 0.0
C1721 C 0.69164 0.26114 0.63005 0.0
C1722 C 0.6799 0.2672 0.61526 0.0
C1723 C 0.67071 0.24957 0.6053 0.0
C1724 C 0.64784 0.25043 0.60615 0.0
C1725 C 0.67814 0.24825 0.58501 0.0
C1726 C 0.6788 0.23267 0.61704 0.0
C1727 C 0.69088 0.23969 0.63121 0.0
C1728 C 0.69957 0.227 0.64422 0.0
C1729 C 0.69591 0.20656 0.64266 0.0
C1730 C 0.68373 0.19894 0.62813 0.0
C1731 C 0.67509 0.21229 0.61519 0.0
H1732 H 0.04386 0.40603 0.87606 0.0
H1733 H 0.05533 0.45592 0.83918 0.0
H1734 H 0.01908 0.46093 0.83522 0.0
H1735 H 0.00091 0.38681 0.85193 0.0
H1736 H 0.98794 0.38017 0.87308 0.0
H1737 H 0.01474 0.3803 0.87264 0.0
H1738 H 0.01526 0.40464 0.90075 0.0
H1739 H 0.98847 0.40456 0.9013 0.0
H1740 H 0.00174 0.42776 0.89927 0.0
H1741 H 0.98163 0.45983 0.83472 0.0
H1742 H 0.94571 0.45394 0.8389 0.0
H1743 H 0.95893 0.40617 0.87792 0.0
C1744 C 0.0387 0.4179 0.86705 0.0
C1745 C 0.0523 0.43054 0.85782 0.0
C1746 C 0.04508 0.44614 0.8464 0.0
C1747 C 0.02457 0.44904 0.84402 0.0
C1748 C 0.01153 0.43632 0.85332 0.0
C1749 C 0.0183 0.42116 0.86472 0.0
C1750 C 0.00119 0.40994 0.87357 0.0
C1751 C 0.0012 0.38801 0.86743 0.0
C1752 C 0.0017 0.41185 0.89499 0.0
C1753 C 0.98373 0.42111 0.86531 0.0
C1754 C 0.98999 0.43616 0.85356 0.0
C1755 C 0.97654 0.44821 0.84404 0.0
C1756 C 0.95613 0.44484 0.84664 0.0
C1757 C 0.94931 0.42966 0.85886 0.0
C1758 C 0.96346 0.41772 0.86829 0.0
H1759 H 0.54095 0.59674 0.37183 0.0
H1760 H 0.55294 0.5376 0.35028 0.0
H1761 H 0.51676 0.53114 0.34827 0.0
H1762 H 0.49945 0.58309 0.40025 0.0
H1763 H 0.48581 0.60568 0.39578 0.0
H1764 H 0.51259 0.60579 0.39496 0.0
H1765 H 0.51147 0.61993 0.36127 0.0
H1766 H 0.48468 0.61986 0.36198 0.0
H1767 H 0.49756 0.6069 0.34354 0.0
H1768 H 0.47931 0.53123 0.34863 0.0
H1769 H 0.44331 0.5375 0.35199 0.0
H1770 H 0.45602 0.59626 0.37427 0.0
C1771 C 0.53595 0.58252 0.36647 0.0
C1772 C 0.54969 0.56769 0.36111 0.0
C1773 C 0.54261 0.54911 0.35454 0.0
C1774 C 0.52213 0.54535 0.35328 0.0
C1775 C 0.50897 0.56029 0.35873 0.0
C1776 C 0.51559 0.57848 0.36525 0.0
C1777 C 0.49839 0.5918 0.37071 0.0
C1778 C 0.49911 0.59688 0.39167 0.0
C1779 C 0.49801 0.61074 0.35865 0.0
C1780 C 0.48104 0.57829 0.3662 0.0
C1781 C 0.48744 0.56021 0.35926 0.0
C1782 C 0.47412 0.5453 0.35413 0.0
C1783 C 0.4537 0.54897 0.35622 0.0
C1784 C 0.44678 0.56735 0.36347 0.0
C1785 C 0.46074 0.58215 0.36847 0.0
H1786 H 0.5406 0.43948 0.62609 0.0
H1787 H 0.55002 0.37558 0.62806 0.0
H1788 H 0.5138 0.37026 0.62897 0.0
H1789 H 0.4988 0.44107 0.65678 0.0
H1790 H 0.4857 0.45999 0.64384 0.0
H1791 H 0.51247 0.45899 0.64312 0.0
H1792 H 0.51146 0.45687 0.60698 0.0
H1793 H 0.48467 0.45795 0.60757 0.0
H1794 H 0.49698 0.4376 0.59592 0.0
H1795 H 0.47696 0.37163 0.63046 0.0
H1796 H 0.44118 0.37962 0.63124 0.0
H1797 H 0.45509 0.44258 0.62755 0.0
C1798 C 0.53504 0.42437 0.62651 0.0
C1799 C 0.5482 0.40796 0.62723 0.0
C1800 C 0.54029 0.38841 0.62792 0.0
C1801 C 0.51972 0.38521 0.62831 0.0
C1802 C 0.50721 0.40169 0.62784 0.0
C1803 C 0.51449 0.42088 0.62683 0.0
C1804 C 0.49767 0.43592 0.62653 0.0
C1805 C 0.49873 0.44981 0.64359 0.0
C1806 C 0.4977 0.44778 0.60815 0.0
C1807 C 0.47985 0.42214 0.62767 0.0
C1808 C 0.48575 0.40247 0.62845 0.0
C1809 C 0.47211 0.38697 0.62985 0.0
C1810 C 0.45184 0.39167 0.63043 0.0
C1811 C 0.44537 0.41171 0.62958 0.0
C1812 C 0.45961 0.42712 0.62812 0.0
H1813 H 0.04387 0.56038 0.12964 0.0
H1814 H 0.0561 0.62378 0.13074 0.0
H1815 H 0.0201 0.63078 0.12984 0.0
H1816 H 0.00176 0.56258 0.09824 0.0
H1817 H 0.98795 0.54345 0.11022 0.0
H1818 H 0.01476 0.54325 0.11074 0.0
H1819 H 0.01409 0.54305 0.14695 0.0
H1820 H 0.9873 0.54318 0.14654 0.0
H1821 H 0.00057 0.5622 0.15921 0.0
H1822 H 0.98324 0.63108 0.12841 0.0
H1823 H 0.94718 0.62476 0.12798 0.0
H1824 H 0.9583 0.56109 0.12879 0.0
C1825 C 0.03892 0.57571 0.12961 0.0
C1826 C 0.05273 0.59156 0.13035 0.0
C1827 C 0.04574 0.61144 0.13045 0.0
C1828 C 0.02535 0.61556 0.1298 0.0
C1829 C 0.01213 0.59964 0.12912 0.0
C1830 C 0.01856 0.58011 0.12912 0.0
C1831 C 0.0011 0.56582 0.12874 0.0
C1832 C 0.00142 0.55302 0.11092 0.0
C1833 C 0.00075 0.5528 0.14641 0.0
C1834 C 0.9839 0.58041 0.12853 0.0
C1835 C 0.99067 0.59982 0.12865 0.0
C1836 C 0.97772 0.61596 0.12846 0.0
C1837 C 0.95726 0.61219 0.12835 0.0
C1838 C 0.94987 0.59243 0.1286 0.0
C1839 C 0.96345 0.57635 0.12851 0.0
H1840 H 0.18434 0.53967 0.01819 0.0
H1841 H 0.20761 0.49719 0.0583 0.0
H1842 H 0.21379 0.47329 0.03274 0.0
H1843 H 0.15761 0.50559 0.99188 0.0
H1844 H 0.16236 0.51716 0.9696 0.0
H1845 H 0.16246 0.53194 0.99056 0.0
H1846 H 0.19815 0.54419 0.98301 0.0
H1847 H 0.19814 0.52949 0.96193 0.0
H1848 H 0.21763 0.52626 0.97896 0.0
H1849 H 0.2138 0.45272 0.00343 0.0
H1850 H 0.20778 0.43717 0.97267 0.0
H1851 H 0.18459 0.49322 0.95182 0.0
C1852 C 0.19095 0.52542 0.02158 0.0
C1853 C 0.19554 0.52031 0.04022 0.0
C1854 C 0.20426 0.50156 0.04408 0.0
C1855 C 0.20777 0.48786 0.02966 0.0
C1856 C 0.20262 0.49322 0.01149 0.0
C1857 C 0.19452 0.51161 0.0074 0.0
C1858 C 0.18894 0.51322 0.98698 0.0
C1859 C 0.16652 0.5172 0.98463 0.0
C1860 C 0.20147 0.52924 0.97714 0.0
C1861 C 0.1945 0.4926 0.98035 0.0
C1862 C 0.20261 0.48136 0.99461 0.0
C1863 C 0.20779 0.46147 0.99206 0.0
C1864 C 0.20438 0.4528 0.97453 0.0
C1865 C 0.19575 0.46399 0.95983 0.0
C1866 C 0.1911 0.48423 0.96279 0.0
H1867 H 0.74451 0.93416 0.29033 0.0
H1868 H 0.69033 0.96184 0.26995 0.0
H1869 H 0.70615 0.96686 0.23916 0.0
H1870 H 0.78028 0.96392 0.26267 0.0
H1871 H 0.79612 0.9427 0.25866 0.0
H1872 H 0.78172 0.94436 0.27986 0.0
H1873 H 0.76589 0.91001 0.27272 0.0
H1874 H 0.78012 0.90828 0.2515 0.0
H1875 H 0.75339 0.90619 0.25072 0.0
H1876 H 0.72642 0.96516 0.20964 0.0
H1877 H 0.74934 0.95664 0.18382 0.0
H1878 H 0.7897 0.92918 0.2235 0.0
C1879 C 0.736 0.94148 0.27948 0.0
C1880 C 0.71616 0.94761 0.28258 0.0
C1881 C 0.70565 0.95729 0.26802 0.0
C1882 C 0.71449 0.96015 0.25046 0.0
C1883 C 0.73386 0.95332 0.24773 0.0
C1884 C 0.74451 0.94428 0.2619 0.0
C1885 C 0.76436 0.93662 0.255 0.0
C1886 C 0.78164 0.94756 0.26462 0.0
C1887 C 0.76602 0.91394 0.25764 0.0
C1888 C 0.76293 0.94214 0.23458 0.0
C1889 C 0.7454 0.95206 0.23069 0.0
C1890 C 0.74034 0.95768 0.21256 0.0
C1891 C 0.75346 0.95282 0.198 0.0
C1892 C 0.77129 0.94227 0.20168 0.0
C1893 C 0.77614 0.93718 0.22026 0.0
H1894 H 0.29683 0.48954 0.53973 0.0
H1895 H 0.29679 0.43138 0.51342 0.0
H1896 H 0.29042 0.44709 0.48282 0.0
H1897 H 0.25816 0.51277 0.50815 0.0
H1898 H 0.27103 0.5363 0.50833 0.0
H1899 H 0.27199 0.52031 0.52854 0.0
H1900 H 0.31053 0.52103 0.52734 0.0
H1901 H 0.30971 0.53683 0.50711 0.0
H1902 H 0.32307 0.5136 0.50617 0.0
H1903 H 0.28947 0.46904 0.45492 0.0
H1904 H 0.29407 0.49556 0.43167 0.0
H1905 H 0.29309 0.53971 0.47602 0.0
C1906 C 0.29475 0.48007 0.52764 0.0
C1907 C 0.29724 0.45926 0.52892 0.0
C1908 C 0.29505 0.44738 0.5127 0.0
C1909 C 0.29125 0.45615 0.4953 0.0
C1910 C 0.28947 0.47678 0.49442 0.0
C1911 C 0.29095 0.48859 0.51018 0.0
C1912 C 0.29057 0.51047 0.50516 0.0
C1913 C 0.27182 0.52056 0.51301 0.0
C1914 C 0.3096 0.52109 0.51183 0.0
C1915 C 0.28974 0.5091 0.48407 0.0
C1916 C 0.28872 0.48954 0.47817 0.0
C1917 C 0.28972 0.48444 0.45934 0.0
C1918 C 0.29225 0.49967 0.4462 0.0
C1919 C 0.29382 0.51981 0.45194 0.0
C1920 C 0.29198 0.5245 0.47113 0.0
H1921 H 0.71824 0.03752 0.72096 0.0
H1922 H 0.7597 0.06526 0.68228 0.0
H1923 H 0.78606 0.06316 0.70588 0.0
H1924 H 0.73294 0.06482 0.75923 0.0
H1925 H 0.73013 0.04517 0.77618 0.0
H1926 H 0.71544 0.04494 0.75518 0.0
H1927 H 0.7286 0.00971 0.74718 0.0
H1928 H 0.74333 0.0098 0.76825 0.0
H1929 H 0.75506 0.00542 0.74596 0.0
H1930 H 0.80645 0.06292 0.73454 0.0
H1931 H 0.81933 0.065 0.76663 0.0
H1932 H 0.76494 0.03797 0.78742 0.0
C1933 C 0.73292 0.04288 0.71731 0.0
C1934 C 0.73683 0.05132 0.69958 0.0
C1935 C 0.75632 0.05818 0.69549 0.0
C1936 C 0.77146 0.05716 0.70887 0.0
C1937 C 0.76694 0.04925 0.72632 0.0
C1938 C 0.74818 0.04217 0.73059 0.0
C1939 C 0.74668 0.03649 0.75104 0.0
C1940 C 0.73034 0.04858 0.76098 0.0
C1941 C 0.74322 0.01401 0.75323 0.0
C1942 C 0.76724 0.04237 0.75772 0.0
C1943 C 0.7788 0.04931 0.74315 0.0
C1944 C 0.79775 0.05708 0.74603 0.0
C1945 C 0.80498 0.0581 0.76433 0.0
C1946 C 0.79325 0.05147 0.77958 0.0
C1947 C 0.77429 0.04313 0.77609 0.0
H1948 H 0.81606 0.49355 0.95523 0.0
H1949 H 0.79336 0.43686 0.97496 0.0
H1950 H 0.78702 0.45167 0.00596 0.0
H1951 H 0.84266 0.50527 0.99529 0.0
H1952 H 0.8376 0.53159 0.99461 0.0
H1953 H 0.83768 0.51739 0.97331 0.0
H1954 H 0.80185 0.52938 0.96595 0.0
H1955 H 0.80169 0.54372 0.98725 0.0
H1956 H 0.7824 0.52564 0.98295 0.0
H1957 H 0.7867 0.47156 0.03565 0.0
H1958 H 0.79245 0.49497 0.0617 0.0
H1959 H 0.81536 0.53861 0.02249 0.0
C1960 C 0.80956 0.4843 0.96601 0.0
C1961 C 0.80514 0.46408 0.96266 0.0
C1962 C 0.79656 0.45249 0.97711 0.0
C1963 C 0.79296 0.46075 0.99478 0.0
C1964 C 0.7979 0.48063 0.99772 0.0
C1965 C 0.8059 0.49229 0.98369 0.0
C1966 C 0.81124 0.51281 0.99078 0.0
C1967 C 0.83362 0.517 0.98836 0.0
C1968 C 0.79853 0.52883 0.98116 0.0
C1969 C 0.80569 0.51063 0.01115 0.0
C1970 C 0.79775 0.49208 0.01484 0.0
C1971 C 0.79258 0.48625 0.03289 0.0
C1972 C 0.79584 0.49968 0.04758 0.0
C1973 C 0.80432 0.51863 0.04412 0.0
C1974 C 0.80896 0.5242 0.0256 0.0
H1975 H 0.22176 0.08472 0.77668 0.0
H1976 H 0.22835 0.02334 0.79466 0.0
H1977 H 0.249 0.01645 0.76685 0.0
H1978 H 0.21997 0.07567 0.72731 0.0
H1979 H 0.23432 0.09748 0.72157 0.0
H1980 H 0.21914 0.0972 0.74232 0.0
H1981 H 0.24997 0.10611 0.76245 0.0
H1982 H 0.26523 0.10646 0.74178 0.0
H1983 H 0.27187 0.09068 0.76117 0.0
H1984 H 0.26925 0.01646 0.73692 0.0
H1985 H 0.28873 0.02395 0.70831 0.0
H1986 H 0.27031 0.08566 0.7116 0.0
C1987 C 0.22765 0.06984 0.77495 0.0
C1988 C 0.22334 0.05458 0.78791 0.0
C1989 C 0.23112 0.03524 0.7848 0.0
C1990 C 0.24297 0.03119 0.76909 0.0
C1991 C 0.247 0.04666 0.7567 0.0
C1992 C 0.23965 0.06562 0.75954 0.0
C1993 C 0.24665 0.07984 0.74456 0.0
C1994 C 0.22897 0.08802 0.73327 0.0
C1995 C 0.25918 0.09677 0.753 0.0
C1996 C 0.25925 0.06597 0.7329 0.0
C1997 C 0.25911 0.04683 0.73996 0.0
C1998 C 0.26952 0.03141 0.73131 0.0
C1999 C 0.28047 0.03575 0.71509 0.0
C2000 C 0.28108 0.05538 0.70796 0.0
C2001 C 0.27027 0.07059 0.71696 0.0
H2002 H 0.6882 0.50865 0.45499 0.0
H2003 H 0.70441 0.56578 0.47878 0.0
H2004 H 0.71078 0.54959 0.50917 0.0
H2005 H 0.66168 0.49151 0.49224 0.0
H2006 H 0.66948 0.4659 0.4907 0.0
H2007 H 0.66937 0.48122 0.47011 0.0
H2008 H 0.70668 0.47349 0.46451 0.0
H2009 H 0.70688 0.45793 0.48503 0.0
H2010 H 0.72444 0.47808 0.48289 0.0
H2011 H 0.71075 0.52828 0.53764 0.0
H2012 H 0.70468 0.50334 0.56217 0.0
H2013 H 0.68981 0.45965 0.51966 0.0
C2014 C 0.69374 0.51764 0.46642 0.0
C2015 C 0.69585 0.53845 0.46455 0.0
C2016 C 0.70257 0.54982 0.47998 0.0
C2017 C 0.70638 0.54074 0.49723 0.0
C2018 C 0.7036 0.52027 0.49874 0.0
C2019 C 0.69763 0.50881 0.48371 0.0
C2020 C 0.69396 0.48745 0.48944 0.0
C2021 C 0.67234 0.48117 0.48539 0.0
C2022 C 0.70889 0.47341 0.4799 0.0
C2023 C 0.69788 0.48891 0.51021 0.0
C2024 C 0.70374 0.50787 0.51524 0.0
C2025 C 0.70664 0.51324 0.53384 0.0
C2026 C 0.70322 0.49891 0.54768 0.0
C2027 C 0.69689 0.47945 0.54287 0.0
C2028 C 0.69459 0.47438 0.52382 0.0
H2029 H 0.26311 0.9395 0.28873 0.0
H2030 H 0.32236 0.93948 0.26459 0.0
H2031 H 0.30776 0.94383 0.23315 0.0
H2032 H 0.24111 0.91027 0.25491 0.0
H2033 H 0.21754 0.92307 0.25485 0.0
H2034 H 0.23269 0.92316 0.27555 0.0
H2035 H 0.23231 0.96174 0.27584 0.0
H2036 H 0.21708 0.96176 0.2551 0.0
H2037 H 0.24029 0.9752 0.25538 0.0
H2038 H 0.28664 0.94396 0.20424 0.0
H2039 H 0.26065 0.94022 0.18008 0.0
H2040 H 0.21531 0.93929 0.22326 0.0
C2041 C 0.27304 0.94069 0.27685 0.0
C2042 C 0.29386 0.93919 0.27908 0.0
C2043 C 0.30637 0.94089 0.26322 0.0
C2044 C 0.29821 0.94331 0.24532 0.0
C2045 C 0.27757 0.94419 0.24358 0.0
C2046 C 0.26516 0.94309 0.25895 0.0
C2047 C 0.24348 0.94279 0.25325 0.0
C2048 C 0.23311 0.92369 0.26004 0.0
C2049 C 0.23266 0.96149 0.26031 0.0
C2050 C 0.24563 0.94308 0.23222 0.0
C2051 C 0.26538 0.94419 0.22691 0.0
C2052 C 0.27111 0.94336 0.20822 0.0
C2053 C 0.25627 0.94109 0.19462 0.0
C2054 C 0.23598 0.93952 0.19981 0.0
C2055 C 0.23065 0.94087 0.21885 0.0
H2056 H 0.67574 0.04434 0.51965 0.0
H2057 H 0.71958 0.01337 0.55341 0.0
H2058 H 0.7276 0.99171 0.52659 0.0
H2059 H 0.65631 0.00211 0.49864 0.0
H2060 H 0.65191 0.01349 0.47621 0.0
H2061 H 0.65186 0.0285 0.49702 0.0
H2062 H 0.67905 0.05129 0.48275 0.0
H2063 H 0.67914 0.03635 0.46182 0.0
H2064 H 0.70196 0.04048 0.47447 0.0
H2065 H 0.72842 0.9713 0.49708 0.0
H2066 H 0.72124 0.95333 0.46762 0.0
H2067 H 0.67605 0.99702 0.45392 0.0
C2068 C 0.68716 0.03313 0.5214 0.0
C2069 C 0.69708 0.03063 0.53863 0.0
C2070 C 0.71203 0.01584 0.54025 0.0
C2071 C 0.71664 0.00341 0.52511 0.0
C2072 C 0.70622 0.00601 0.50846 0.0
C2073 C 0.69183 0.02055 0.50652 0.0
C2074 C 0.68159 0.01925 0.48775 0.0
C2075 C 0.65909 0.01561 0.49006 0.0
C2076 C 0.68569 0.03796 0.476 0.0
C2077 C 0.69197 0.00126 0.47968 0.0
C2078 C 0.7064 0.99403 0.49165 0.0
C2079 C 0.71733 0.97697 0.48749 0.0
C2080 C 0.7132 0.9669 0.47075 0.0
C2081 C 0.69809 0.97382 0.45859 0.0
C2082 C 0.68762 0.99138 0.46303 0.0
H2083 H 0.24925 0.45035 0.69813 0.0
H2084 H 0.30656 0.46984 0.71929 0.0
H2085 H 0.29154 0.47559 0.75029 0.0
H2086 H 0.21726 0.48298 0.7281 0.0
H2087 H 0.19912 0.46348 0.7311 0.0
H2088 H 0.2133 0.465 0.70976 0.0
H2089 H 0.22507 0.42861 0.71442 0.0
H2090 H 0.21108 0.42701 0.73577 0.0
H2091 H 0.23739 0.42179 0.73587 0.0
H2092 H 0.27171 0.47409 0.77997 0.0
H2093 H 0.24888 0.4652 0.80571 0.0
H2094 H 0.20482 0.44589 0.76527 0.0
C2095 C 0.25859 0.4562 0.70917 0.0
C2096 C 0.27908 0.45971 0.70624 0.0
C2097 C 0.29074 0.4674 0.72107 0.0
C2098 C 0.28235 0.47065 0.73877 0.0
C2099 C 0.26226 0.46626 0.74136 0.0
C2100 C 0.2505 0.45934 0.7269 0.0
C2101 C 0.23 0.45353 0.73372 0.0
C2102 C 0.21397 0.46706 0.72516 0.0
C2103 C 0.22565 0.43143 0.72971 0.0
C2104 C 0.23234 0.45739 0.75441 0.0
C2105 C 0.2509 0.46512 0.75852 0.0
C2106 C 0.25699 0.46843 0.77688 0.0
C2107 C 0.24391 0.46338 0.79141 0.0
C2108 C 0.22508 0.4549 0.78747 0.0
C2109 C 0.21914 0.45233 0.76871 0.0
H2110 H 0.79888 0.00348 0.9521 0.0
H2111 H 0.79431 0.06298 0.97508 0.0
H2112 H 0.79163 0.04888 0.00689 0.0
H2113 H 0.76456 0.97917 0.98684 0.0
H2114 H 0.7794 0.95683 0.98726 0.0
H2115 H 0.77795 0.97152 0.96622 0.0
H2116 H 0.81643 0.97411 0.96559 0.0
H2117 H 0.81801 0.95966 0.98667 0.0
H2118 H 0.82932 0.98395 0.98567 0.0
H2119 H 0.79541 0.02881 0.036 0.0
H2120 H 0.8028 0.0042 0.06039 0.0
H2121 H 0.80194 0.95725 0.01855 0.0
C2122 C 0.7968 0.01346 0.96382 0.0
C2123 C 0.79668 0.03426 0.96125 0.0
C2124 C 0.79413 0.04697 0.97683 0.0
C2125 C 0.79264 0.03911 0.99491 0.0
C2126 C 0.79337 0.01851 0.99706 0.0
C2127 C 0.795 0.00583 0.98191 0.0
C2128 C 0.79676 0.98438 0.9881 0.0
C2129 C 0.77858 0.97226 0.98173 0.0
C2130 C 0.81629 0.97499 0.98109 0.0
C2131 C 0.79689 0.98707 0.00909 0.0
C2132 C 0.79477 0.00684 0.01397 0.0
C2133 C 0.79646 0.0132 0.03242 0.0
C2134 C 0.80058 0.99901 0.04623 0.0
C2135 C 0.80282 0.97859 0.04158 0.0
C2136 C 0.80049 0.97265 0.02273 0.0
H2137 H 0.24719 0.56641 0.20402 0.0
H2138 H 0.1953 0.53302 0.22207 0.0
H2139 H 0.21195 0.52574 0.25202 0.0
H2140 H 0.28544 0.53681 0.22849 0.0
H2141 H 0.29963 0.55865 0.23452 0.0
H2142 H 0.28514 0.55822 0.21332 0.0
H2143 H 0.26669 0.59022 0.22382 0.0
H2144 H 0.2811 0.59075 0.24498 0.0
H2145 H 0.2543 0.59062 0.24617 0.0
H2146 H 0.2327 0.52524 0.28125 0.0
H2147 H 0.25532 0.53237 0.3076 0.0
H2148 H 0.29215 0.56835 0.27094 0.0
C2149 C 0.23932 0.55742 0.21416 0.0
C2150 C 0.21991 0.55028 0.21061 0.0
C2151 C 0.21031 0.53838 0.22427 0.0
C2152 C 0.21962 0.53422 0.24137 0.0
C2153 C 0.23852 0.54204 0.24459 0.0
C2154 C 0.24826 0.55338 0.23134 0.0
C2155 C 0.26754 0.56178 0.23886 0.0
C2156 C 0.2855 0.55336 0.22816 0.0
C2157 C 0.26738 0.5847 0.23844 0.0
C2158 C 0.26683 0.55394 0.25864 0.0
C2159 C 0.25019 0.54226 0.26159 0.0
C2160 C 0.24585 0.53423 0.27907 0.0
C2161 C 0.25869 0.53852 0.29398 0.0
C2162 C 0.27551 0.55097 0.29137 0.0
C2163 C 0.2797 0.55845 0.27336 0.0
H2164 H 0.3174 0.04904 0.51379 0.0
H2165 H 0.28443 0.01141 0.55216 0.0
H2166 H 0.27813 0.98751 0.52667 0.0
H2167 H 0.28696 0.03845 0.47178 0.0
H2168 H 0.30839 0.03853 0.45661 0.0
H2169 H 0.30811 0.05389 0.47727 0.0
H2170 H 0.34094 0.03745 0.48839 0.0
H2171 H 0.34125 0.02198 0.46787 0.0
H2172 H 0.34212 0.01077 0.49074 0.0
H2173 H 0.27885 0.96596 0.49825 0.0
H2174 H 0.28561 0.94864 0.4686 0.0
H2175 H 0.31758 0.00053 0.44837 0.0
C2176 C 0.30863 0.0359 0.51677 0.0
C2177 C 0.30131 0.03214 0.53494 0.0
C2178 C 0.28988 0.01479 0.53828 0.0
C2179 C 0.2863 0.00107 0.52391 0.0
C2180 C 0.29413 0.00501 0.50627 0.0
C2181 C 0.30491 0.02208 0.50259 0.0
C2182 C 0.31273 0.02217 0.48275 0.0
C2183 C 0.30349 0.03927 0.47143 0.0
C2184 C 0.33561 0.02314 0.48243 0.0
C2185 C 0.30523 0.00217 0.47604 0.0
C2186 C 0.29438 0.9926 0.48976 0.0
C2187 C 0.28696 0.97346 0.48725 0.0
C2188 C 0.29081 0.96378 0.47029 0.0
C2189 C 0.30198 0.97325 0.45602 0.0
C2190 C 0.30905 0.99281 0.45897 0.0
H2191 H 0.76347 0.55233 0.2107 0.0
H2192 H 0.821 0.56921 0.23329 0.0
H2193 H 0.80747 0.56676 0.26523 0.0
H2194 H 0.73519 0.5809 0.24093 0.0
H2195 H 0.71507 0.56333 0.24335 0.0
H2196 H 0.72995 0.56341 0.22246 0.0
H2197 H 0.73818 0.5261 0.22735 0.0
H2198 H 0.72328 0.5259 0.2483 0.0
H2199 H 0.74891 0.51804 0.24917 0.0
H2200 H 0.78692 0.56686 0.29414 0.0
H2201 H 0.76064 0.56904 0.31821 0.0
H2202 H 0.71639 0.55215 0.27706 0.0
C2203 C 0.77329 0.55523 0.22238 0.0
C2204 C 0.79332 0.56082 0.21951 0.0
C2205 C 0.80571 0.56452 0.23516 0.0
C2206 C 0.79815 0.56322 0.25335 0.0
C2207 C 0.77823 0.55806 0.25567 0.0
C2208 C 0.76599 0.55398 0.24064 0.0
C2209 C 0.74476 0.55032 0.24686 0.0
C2210 C 0.73041 0.56539 0.23787 0.0
C2211 C 0.73841 0.52881 0.24267 0.0
C2212 C 0.74683 0.55379 0.26767 0.0
C2213 C 0.76632 0.55798 0.27248 0.0
C2214 C 0.77168 0.56325 0.29062 0.0
C2215 C 0.75668 0.56455 0.30415 0.0
C2216 C 0.73661 0.56061 0.29943 0.0
C2217 C 0.73171 0.55479 0.28106 0.0
H2218 H 0.18358 0.959 0.01939 0.0
H2219 H 0.1972 0.00344 0.06162 0.0
H2220 H 0.20478 0.02769 0.03692 0.0
H2221 H 0.2202 0.97556 0.98408 0.0
H2222 H 0.20337 0.971 0.96493 0.0
H2223 H 0.20186 0.95607 0.98581 0.0
H2224 H 0.1646 0.96532 0.98943 0.0
H2225 H 0.16598 0.98013 0.96855 0.0
H2226 H 0.15749 0.99118 0.99008 0.0
H2227 H 0.20761 0.04811 0.00815 0.0
H2228 H 0.20379 0.06376 0.97715 0.0
H2229 H 0.18696 0.0067 0.95358 0.0
C2230 C 0.18829 0.97378 0.02347 0.0
C2231 C 0.19001 0.97917 0.04251 0.0
C2232 C 0.19625 0.99871 0.04718 0.0
C2233 C 0.20055 0.01266 0.03324 0.0
C2234 C 0.19853 0.0069 0.01466 0.0
C2235 C 0.19251 0.98795 0.00973 0.0
C2236 C 0.18973 0.98615 0.98879 0.0
C2237 C 0.20469 0.97131 0.98041 0.0
C2238 C 0.16817 0.98036 0.98394 0.0
C2239 C 0.19442 0.00724 0.98283 0.0
C2240 C 0.19983 0.01886 0.99794 0.0
C2241 C 0.20361 0.03914 0.99617 0.0
C2242 C 0.20131 0.0479 0.97856 0.0
C2243 C 0.19512 0.03641 0.96301 0.0
C2244 C 0.19211 0.01574 0.96514 0.0
H2245 H 0.72605 0.41315 0.71512 0.0
H2246 H 0.70395 0.47381 0.71504 0.0
H2247 H 0.72266 0.48057 0.7442 0.0
H2248 H 0.72482 0.40587 0.76505 0.0
H2249 H 0.74729 0.39123 0.7652 0.0
H2250 H 0.73148 0.39122 0.74488 0.0
H2251 H 0.76137 0.40209 0.72435 0.0
H2252 H 0.77725 0.40223 0.74461 0.0
H2253 H 0.77502 0.42427 0.73041 0.0
H2254 H 0.74485 0.48068 0.77301 0.0
H2255 H 0.76822 0.47402 0.79906 0.0
H2256 H 0.77555 0.4134 0.77938 0.0
C2257 C 0.7252 0.4279 0.72117 0.0
C2258 C 0.71368 0.44301 0.71279 0.0
C2259 C 0.71262 0.46199 0.72133 0.0
C2260 C 0.72324 0.46598 0.73782 0.0
C2261 C 0.73472 0.45078 0.74556 0.0
C2262 C 0.73566 0.43211 0.73752 0.0
C2263 C 0.74919 0.41836 0.74833 0.0
C2264 C 0.73749 0.40062 0.75634 0.0
C2265 C 0.76675 0.41133 0.7362 0.0
C2266 C 0.756 0.43227 0.76361 0.0
C2267 C 0.74744 0.45088 0.7619 0.0
C2268 C 0.75159 0.46615 0.77451 0.0
C2269 C 0.76482 0.46223 0.78925 0.0
C2270 C 0.77378 0.44325 0.79113 0.0
C2271 C 0.76921 0.42815 0.77812 0.0
loop_
_geom_bond_atom_site_label_1
_geom_bond_atom_site_label_2
_geom_bond_distance
_geom_bond_site_symmetry_2
_ccdc_geom_bond_type
Li0 N17 1.990 . S
Li0 O60 1.956 . S
Li0 O61 1.970 . S
Li0 O62 1.961 . S
Li1 N25 1.990 . S
Li1 O60 1.970 . S
Li1 O61 1.956 . S
Li1 O63 1.961 . S
Li2 N47 1.990 . S
Li2 O60 1.961 . S
Li2 O62 1.956 . S
Li2 O63 1.970 . S
Li3 N53 1.990 . S
Li3 O61 1.961 . S
Li3 O62 1.970 . S
Li3 O63 1.956 . S
C4 C6 1.348 . S
C4 C7 1.356 . S
C4 O60 1.325 . S
N5 C8 1.314 . S
N5 C9 1.279 . S
C6 C4 1.348 . S
C6 C8 1.353 . S
C6 H64 0.929 . S
C7 C4 1.356 . S
C7 C9 1.358 . S
C7 H65 0.930 . S
C8 N5 1.314 . S
C8 C6 1.353 . S
C8 H66 0.930 . S
C9 N5 1.279 . S
C9 C7 1.358 . S
C9 H67 0.930 . S
C10 C13 1.348 . S
C10 C14 1.356 . S
C10 O61 1.325 . S
C11 N12 1.279 . S
C11 C14 1.358 . S
C11 H68 0.930 . S
N12 C11 1.279 . S
N12 C15 1.314 . S
C13 C10 1.348 . S
C13 C15 1.353 . S
C13 H69 0.929 . S
C14 C10 1.356 . S
C14 C11 1.358 . S
C14 H70 0.930 . S
C15 N12 1.314 . S
C15 C13 1.353 . S
C15 H71 0.930 . S
C16 N17 1.314 . S
C16 C21 1.353 . S
C16 H22 0.930 . S
N17 Li0 1.990 . S
N17 C16 1.314 . S
N17 C19 1.279 . S
C18 C19 1.358 . S
C18 C20 1.356 . S
C18 H72 0.930 . S
C19 N17 1.279 . S
C19 C18 1.358 . S
C19 H23 0.930 . S
C20 C18 1.356 . S
C20 C21 1.348 . S
C21 C16 1.353 . S
C21 C20 1.348 . S
C21 H73 0.929 . S
H22 C16 0.930 . S
H23 C19 0.930 . S
C24 N25 1.314 . S
C24 C26 1.353 . S
C24 H30 0.930 . S
N25 Li1 1.990 . S
N25 C24 1.314 . S
N25 C28 1.279 . S
C26 C24 1.353 . S
C26 C29 1.348 . S
C26 H74 0.929 . S
C27 C28 1.358 . S
C27 C29 1.356 . S
C27 H75 0.930 . S
C28 N25 1.279 . S
C28 C27 1.358 . S
C28 H31 0.930 . S
C29 C26 1.348 . S
C29 C27 1.356 . S
H30 C24 0.930 . S
H31 C28 0.930 . S
C32 C34 1.348 . S
C32 C35 1.356 . S
C32 O62 1.325 . S
N33 C36 1.314 . S
N33 C37 1.279 . S
C34 C32 1.348 . S
C34 C36 1.353 . S
C34 H76 0.929 . S
C35 C32 1.356 . S
C35 C37 1.358 . S
C35 H77 0.930 . S
C36 N33 1.314 . S
C36 C34 1.353 . S
C36 H78 0.930 . S
C37 N33 1.279 . S
C37 C35 1.358 . S
C37 H79 0.930 . S
C38 C39 1.348 . S
C38 C40 1.356 . S
C38 O63 1.325 . S
C39 C38 1.348 . S
C39 C41 1.353 . S
C39 H80 0.929 . S
C40 C38 1.356 . S
C40 C42 1.358 . S
C40 H81 0.930 . S
C41 C39 1.353 . S
C41 N43 1.314 . S
C41 H82 0.930 . S
C42 C40 1.358 . S
C42 N43 1.279 . S
C42 H83 0.930 . S
N43 C41 1.314 . S
N43 C42 1.279 . S
C44 C46 1.353 . S
C44 N47 1.314 . S
C44 H50 0.930 . S
C45 N47 1.279 . S
C45 C48 1.358 . S
C45 H51 0.930 . S
C46 C44 1.353 . S
C46 C49 1.348 . S
C46 H84 0.929 . S
N47 Li2 1.990 . S
N47 C44 1.314 . S
N47 C45 1.279 . S
C48 C45 1.358 . S
C48 C49 1.356 . S
C48 H85 0.930 . S
C49 C46 1.348 . S
C49 C48 1.356 . S
H50 C44 0.930 . S
H51 C45 0.930 . S
C52 N53 1.314 . S
C52 C54 1.353 . S
C52 H58 0.930 . S
N53 Li3 1.990 . S
N53 C52 1.314 . S
N53 C56 1.279 . S
C54 C52 1.353 . S
C54 C57 1.348 . S
C54 H86 0.929 . S
C55 C56 1.358 . S
C55 C57 1.356 . S
C55 H87 0.930 . S
C56 N53 1.279 . S
C56 C55 1.358 . S
C56 H59 0.930 . S
C57 C54 1.348 . S
C57 C55 1.356 . S
H58 C52 0.930 . S
H59 C56 0.930 . S
O60 Li0 1.956 . S
O60 Li1 1.970 . S
O60 Li2 1.961 . S
O60 C4 1.325 . S
O61 Li0 1.970 . S
O61 Li1 1.956 . S
O61 Li3 1.961 . S
O61 C10 1.325 . S
O62 Li0 1.961 . S
O62 Li2 1.956 . S
O62 Li3 1.970 . S
O62 C32 1.325 . S
O63 Li1 1.961 . S
O63 Li2 1.970 . S
O63 Li3 1.956 . S
O63 C38 1.325 . S
H64 C6 0.929 . S
H65 C7 0.930 . S
H66 C8 0.930 . S
H67 C9 0.930 . S
H68 C11 0.930 . S
H69 C13 0.929 . S
H70 C14 0.930 . S
H71 C15 0.930 . S
H72 C18 0.930 . S
H73 C21 0.929 . S
H74 C26 0.929 . S
H75 C27 0.930 . S
H76 C34 0.929 . S
H77 C35 0.930 . S
H78 C36 0.930 . S
H79 C37 0.930 . S
H80 C39 0.929 . S
H81 C40 0.930 . S
H82 C41 0.930 . S
H83 C42 0.930 . S
H84 C46 0.929 . S
H85 C48 0.930 . S
H86 C54 0.929 . S
H87 C55 0.930 . S
Li88 N105 1.990 . S
Li88 O148 1.956 . S
Li88 O149 1.970 . S
Li88 O150 1.961 . S
Li89 N113 1.990 . S
Li89 O148 1.970 . S
Li89 O149 1.956 . S
Li89 O151 1.961 . S
Li90 N135 1.990 . S
Li90 O148 1.961 . S
Li90 O150 1.956 . S
Li90 O151 1.970 . S
Li91 N141 1.990 . S
Li91 O149 1.961 . S
Li91 O150 1.970 . S
Li91 O151 1.956 . S
C92 C94 1.348 . S
C92 C95 1.356 . S
C92 O148 1.325 . S
N93 C96 1.314 1_545 S
N93 C97 1.279 1_545 S
C94 C92 1.348 . S
C94 C96 1.353 . S
C94 H152 0.929 . S
C95 C92 1.356 . S
C95 C97 1.358 . S
C95 H153 0.930 . S
C96 N93 1.314 1_565 S
C96 C94 1.353 . S
C96 H154 0.930 1_565 S
C97 N93 1.279 1_565 S
C97 C95 1.358 . S
C97 H155 0.930 . S
C98 C101 1.348 . S
C98 C102 1.356 . S
C98 O149 1.325 . S
C99 N100 1.279 . S
C99 C102 1.358 . S
C99 H156 0.930 . S
N100 C99 1.279 . S
N100 C103 1.314 . S
C101 C98 1.348 . S
C101 C103 1.353 . S
C101 H157 0.929 . S
C102 C98 1.356 . S
C102 C99 1.358 . S
C102 H158 0.930 . S
C103 N100 1.314 . S
C103 C101 1.353 . S
C103 H159 0.930 . S
C104 N105 1.314 . S
C104 C109 1.353 . S
C104 H110 0.930 . S
N105 Li88 1.990 . S
N105 C104 1.314 . S
N105 C107 1.279 . S
C106 C107 1.358 . S
C106 C108 1.356 . S
C106 H160 0.930 . S
C107 N105 1.279 . S
C107 C106 1.358 . S
C107 H111 0.930 . S
C108 C106 1.356 . S
C108 C109 1.348 . S
C109 C104 1.353 . S
C109 C108 1.348 . S
C109 H161 0.929 . S
H110 C104 0.930 . S
H111 C107 0.930 . S
C112 N113 1.314 . S
C112 C114 1.353 . S
C112 H118 0.930 . S
N113 Li89 1.990 . S
N113 C112 1.314 . S
N113 C116 1.279 . S
C114 C112 1.353 . S
C114 C117 1.348 . S
C114 H162 0.929 . S
C115 C116 1.358 . S
C115 C117 1.356 . S
C115 H163 0.930 . S
C116 N113 1.279 . S
C116 C115 1.358 . S
C116 H119 0.930 . S
C117 C114 1.348 . S
C117 C115 1.356 . S
H118 C112 0.930 . S
H119 C116 0.930 . S
C120 C122 1.348 . S
C120 C123 1.356 . S
C120 O150 1.325 . S
N121 C124 1.314 . S
N121 C125 1.279 . S
C122 C120 1.348 . S
C122 C124 1.353 . S
C122 H164 0.929 . S
C123 C120 1.356 . S
C123 C125 1.358 . S
C123 H165 0.930 . S
C124 N121 1.314 . S
C124 C122 1.353 . S
C124 H166 0.930 . S
C125 N121 1.279 . S
C125 C123 1.358 . S
C125 H167 0.930 . S
C126 C127 1.348 . S
C126 C128 1.356 . S
C126 O151 1.325 . S
C127 C126 1.348 . S
C127 C129 1.353 . S
C127 H168 0.929 . S
C128 C126 1.356 . S
C128 C130 1.358 . S
C128 H169 0.930 . S
C129 C127 1.353 . S
C129 N131 1.314 . S
C129 H170 0.930 . S
C130 C128 1.358 . S
C130 N131 1.279 . S
C130 H171 0.930 . S
N131 C129 1.314 . S
N131 C130 1.279 . S
C132 C134 1.353 . S
C132 N135 1.314 . S
C132 H138 0.930 . S
C133 N135 1.279 . S
C133 C136 1.358 . S
C133 H139 0.930 . S
C134 C132 1.353 . S
C134 C137 1.348 . S
C134 H172 0.929 . S
N135 Li90 1.990 . S
N135 C132 1.314 . S
N135 C133 1.279 . S
C136 C133 1.358 . S
C136 C137 1.356 . S
C136 H173 0.930 . S
C137 C134 1.348 . S
C137 C136 1.356 . S
H138 C132 0.930 . S
H139 C133 0.930 . S
C140 N141 1.314 . S
C140 C142 1.353 . S
C140 H146 0.930 . S
N141 Li91 1.990 . S
N141 C140 1.314 . S
N141 C144 1.279 . S
C142 C140 1.353 . S
C142 C145 1.348 . S
C142 H174 0.929 . S
C143 C144 1.358 . S
C143 C145 1.356 . S
C143 H175 0.930 . S
C144 N141 1.279 . S
C144 C143 1.358 . S
C144 H147 0.930 . S
C145 C142 1.348 . S
C145 C143 1.356 . S
H146 C140 0.930 . S
H147 C144 0.930 . S
O148 Li88 1.956 . S
O148 Li89 1.970 . S
O148 Li90 1.961 . S
O148 C92 1.325 . S
O149 Li88 1.970 . S
O149 Li89 1.956 . S
O149 Li91 1.961 . S
O149 C98 1.325 . S
O150 Li88 1.961 . S
O150 Li90 1.956 . S
O150 Li91 1.970 . S
O150 C120 1.325 . S
O151 Li89 1.961 . S
O151 Li90 1.970 . S
O151 Li91 1.956 . S
O151 C126 1.325 . S
H152 C94 0.929 . S
H153 C95 0.930 . S
H154 C96 0.930 1_545 S
H155 C97 0.930 . S
H156 C99 0.930 . S
H157 C101 0.929 . S
H158 C102 0.930 . S
H159 C103 0.930 . S
H160 C106 0.930 . S
H161 C109 0.929 . S
H162 C114 0.929 . S
H163 C115 0.930 . S
H164 C122 0.929 . S
H165 C123 0.930 . S
H166 C124 0.930 . S
H167 C125 0.930 . S
H168 C127 0.929 . S
H169 C128 0.930 . S
H170 C129 0.930 . S
H171 C130 0.930 . S
H172 C134 0.929 . S
H173 C136 0.930 . S
H174 C142 0.929 . S
H175 C143 0.930 . S
Li176 N193 1.990 . S
Li176 O236 1.956 . S
Li176 O237 1.970 . S
Li176 O238 1.961 . S
Li177 N201 1.990 . S
Li177 O236 1.970 . S
Li177 O237 1.956 . S
Li177 O239 1.961 . S
Li178 N223 1.990 . S
Li178 O236 1.961 . S
Li178 O238 1.956 . S
Li178 O239 1.970 . S
Li179 N229 1.990 . S
Li179 O237 1.961 . S
Li179 O238 1.970 . S
Li179 O239 1.956 . S
C180 C182 1.348 . S
C180 C183 1.356 . S
C180 O236 1.325 . S
N181 C184 1.314 . S
N181 C185 1.279 . S
C182 C180 1.348 . S
C182 C184 1.353 . S
C182 H240 0.929 . S
C183 C180 1.356 . S
C183 C185 1.358 . S
C183 H241 0.930 . S
C184 N181 1.314 . S
C184 C182 1.353 . S
C184 H242 0.930 . S
C185 N181 1.279 . S
C185 C183 1.358 . S
C185 H243 0.930 . S
C186 C189 1.348 . S
C186 C190 1.356 . S
C186 O237 1.325 . S
C187 N188 1.279 . S
C187 C190 1.358 . S
C187 H244 0.930 . S
N188 C187 1.279 . S
N188 C191 1.314 . S
C189 C186 1.348 . S
C189 C191 1.353 . S
C189 H245 0.929 . S
C190 C186 1.356 . S
C190 C187 1.358 . S
C190 H246 0.930 . S
C191 N188 1.314 . S
C191 C189 1.353 . S
C191 H247 0.930 . S
C192 N193 1.314 . S
C192 C197 1.353 . S
C192 H198 0.930 . S
N193 Li176 1.990 . S
N193 C192 1.314 . S
N193 C195 1.279 . S
C194 C195 1.358 . S
C194 C196 1.356 . S
C194 H248 0.930 . S
C195 N193 1.279 . S
C195 C194 1.358 . S
C195 H199 0.930 . S
C196 C194 1.356 . S
C196 C197 1.348 . S
C197 C192 1.353 . S
C197 C196 1.348 . S
C197 H249 0.929 . S
H198 C192 0.930 . S
H199 C195 0.930 . S
C200 N201 1.314 . S
C200 C202 1.353 . S
C200 H206 0.930 . S
N201 Li177 1.990 . S
N201 C200 1.314 . S
N201 C204 1.279 . S
C202 C200 1.353 . S
C202 C205 1.348 . S
C202 H250 0.929 . S
C203 C204 1.358 . S
C203 C205 1.356 . S
C203 H251 0.930 . S
C204 N201 1.279 . S
C204 C203 1.358 . S
C204 H207 0.930 . S
C205 C202 1.348 . S
C205 C203 1.356 . S
H206 C200 0.930 . S
H207 C204 0.930 . S
C208 C210 1.348 . S
C208 C211 1.356 . S
C208 O238 1.325 . S
N209 C212 1.314 . S
N209 C213 1.279 . S
C210 C208 1.348 . S
C210 C212 1.353 . S
C210 H252 0.929 . S
C211 C208 1.356 . S
C211 C213 1.358 . S
C211 H253 0.930 . S
C212 N209 1.314 . S
C212 C210 1.353 . S
C212 H254 0.930 . S
C213 N209 1.279 . S
C213 C211 1.358 . S
C213 H255 0.930 . S
C214 C215 1.348 . S
C214 C216 1.356 . S
C214 O239 1.325 . S
C215 C214 1.348 . S
C215 C217 1.353 . S
C215 H256 0.929 . S
C216 C214 1.356 . S
C216 C218 1.358 . S
C216 H257 0.930 . S
C217 C215 1.353 . S
C217 N219 1.314 . S
C217 H258 0.930 . S
C218 C216 1.358 . S
C218 N219 1.279 . S
C218 H259 0.930 . S
N219 C217 1.314 . S
N219 C218 1.279 . S
C220 C222 1.353 . S
C220 N223 1.314 . S
C220 H226 0.930 . S
C221 N223 1.279 . S
C221 C224 1.358 . S
C221 H227 0.930 . S
C222 C220 1.353 . S
C222 C225 1.348 . S
C222 H260 0.929 . S
N223 Li178 1.990 . S
N223 C220 1.314 . S
N223 C221 1.279 . S
C224 C221 1.358 . S
C224 C225 1.356 . S
C224 H261 0.930 . S
C225 C222 1.348 . S
C225 C224 1.356 . S
H226 C220 0.930 . S
H227 C221 0.930 . S
C228 N229 1.314 . S
C228 C230 1.353 . S
C228 H234 0.930 . S
N229 Li179 1.990 . S
N229 C228 1.314 . S
N229 C232 1.279 . S
C230 C228 1.353 . S
C230 C233 1.348 . S
C230 H262 0.929 . S
C231 C232 1.358 . S
C231 C233 1.356 . S
C231 H263 0.930 . S
C232 N229 1.279 . S
C232 C231 1.358 . S
C232 H235 0.930 . S
C233 C230 1.348 . S
C233 C231 1.356 . S
H234 C228 0.930 . S
H235 C232 0.930 . S
O236 Li176 1.956 . S
O236 Li177 1.970 . S
O236 Li178 1.961 . S
O236 C180 1.325 . S
O237 Li176 1.970 . S
O237 Li177 1.956 . S
O237 Li179 1.961 . S
O237 C186 1.325 . S
O238 Li176 1.961 . S
O238 Li178 1.956 . S
O238 Li179 1.970 . S
O238 C208 1.325 . S
O239 Li177 1.961 . S
O239 Li178 1.970 . S
O239 Li179 1.956 . S
O239 C214 1.325 . S
H240 C182 0.929 . S
H241 C183 0.930 . S
H242 C184 0.930 . S
H243 C185 0.930 . S
H244 C187 0.930 . S
H245 C189 0.929 . S
H246 C190 0.930 . S
H247 C191 0.930 . S
H248 C194 0.930 . S
H249 C197 0.929 . S
H250 C202 0.929 . S
H251 C203 0.930 . S
H252 C210 0.929 . S
H253 C211 0.930 . S
H254 C212 0.930 . S
H255 C213 0.930 . S
H256 C215 0.929 . S
H257 C216 0.930 . S
H258 C217 0.930 . S
H259 C218 0.930 . S
H260 C222 0.929 . S
H261 C224 0.930 . S
H262 C230 0.929 . S
H263 C231 0.930 . S
Li264 N281 1.990 . S
Li264 O324 1.956 . S
Li264 O325 1.970 . S
Li264 O326 1.961 . S
Li265 N289 1.990 . S
Li265 O324 1.970 . S
Li265 O325 1.956 . S
Li265 O327 1.961 . S
Li266 N311 1.990 . S
Li266 O324 1.961 . S
Li266 O326 1.956 . S
Li266 O327 1.970 . S
Li267 N317 1.990 . S
Li267 O325 1.961 . S
Li267 O326 1.970 . S
Li267 O327 1.956 . S
C268 C270 1.348 . S
C268 C271 1.356 . S
C268 O324 1.325 . S
N269 C272 1.314 . S
N269 C273 1.279 . S
C270 C268 1.348 . S
C270 C272 1.353 . S
C270 H328 0.929 . S
C271 C268 1.356 . S
C271 C273 1.358 . S
C271 H329 0.930 . S
C272 N269 1.314 . S
C272 C270 1.353 . S
C272 H330 0.930 . S
C273 N269 1.279 . S
C273 C271 1.358 . S
C273 H331 0.930 . S
C274 C277 1.348 . S
C274 C278 1.356 . S
C274 O325 1.325 . S
C275 N276 1.279 . S
C275 C278 1.358 . S
C275 H332 0.930 . S
N276 C275 1.279 . S
N276 C279 1.314 . S
C277 C274 1.348 . S
C277 C279 1.353 . S
C277 H333 0.929 . S
C278 C274 1.356 . S
C278 C275 1.358 . S
C278 H334 0.930 . S
C279 N276 1.314 . S
C279 C277 1.353 . S
C279 H335 0.930 . S
C280 N281 1.314 . S
C280 C285 1.353 . S
C280 H286 0.930 . S
N281 Li264 1.990 . S
N281 C280 1.314 . S
N281 C283 1.279 . S
C282 C283 1.358 . S
C282 C284 1.356 . S
C282 H336 0.930 . S
C283 N281 1.279 . S
C283 C282 1.358 . S
C283 H287 0.930 . S
C284 C282 1.356 . S
C284 C285 1.348 . S
C285 C280 1.353 . S
C285 C284 1.348 . S
C285 H337 0.929 . S
H286 C280 0.930 . S
H287 C283 0.930 . S
C288 N289 1.314 . S
C288 C290 1.353 . S
C288 H294 0.930 . S
N289 Li265 1.990 . S
N289 C288 1.314 . S
N289 C292 1.279 . S
C290 C288 1.353 . S
C290 C293 1.348 . S
C290 H338 0.929 . S
C291 C292 1.358 . S
C291 C293 1.356 . S
C291 H339 0.930 . S
C292 N289 1.279 . S
C292 C291 1.358 . S
C292 H295 0.930 . S
C293 C290 1.348 . S
C293 C291 1.356 . S
H294 C288 0.930 . S
H295 C292 0.930 . S
C296 C298 1.348 . S
C296 C299 1.356 . S
C296 O326 1.325 . S
N297 C300 1.314 . S
N297 C301 1.279 . S
C298 C296 1.348 . S
C298 C300 1.353 . S
C298 H340 0.929 . S
C299 C296 1.356 . S
C299 C301 1.358 . S
C299 H341 0.930 . S
C300 N297 1.314 . S
C300 C298 1.353 . S
C300 H342 0.930 . S
C301 N297 1.279 . S
C301 C299 1.358 . S
C301 H343 0.930 . S
C302 C303 1.348 . S
C302 C304 1.356 . S
C302 O327 1.325 . S
C303 C302 1.348 . S
C303 C305 1.353 . S
C303 H344 0.929 . S
C304 C302 1.356 . S
C304 C306 1.358 . S
C304 H345 0.930 . S
C305 C303 1.353 . S
C305 N307 1.314 1_545 S
C305 H346 0.930 1_545 S
C306 C304 1.358 . S
C306 N307 1.279 1_545 S
C306 H347 0.930 . S
N307 C305 1.314 1_565 S
N307 C306 1.279 1_565 S
C308 C310 1.353 . S
C308 N311 1.314 . S
C308 H314 0.930 . S
C309 N311 1.279 . S
C309 C312 1.358 . S
C309 H315 0.930 . S
C310 C308 1.353 . S
C310 C313 1.348 . S
C310 H348 0.929 . S
N311 Li266 1.990 . S
N311 C308 1.314 . S
N311 C309 1.279 . S
C312 C309 1.358 . S
C312 C313 1.356 . S
C312 H349 0.930 . S
C313 C310 1.348 . S
C313 C312 1.356 . S
H314 C308 0.930 . S
H315 C309 0.930 . S
C316 N317 1.314 . S
C316 C318 1.353 . S
C316 H322 0.930 . S
N317 Li267 1.990 . S
N317 C316 1.314 . S
N317 C320 1.279 . S
C318 C316 1.353 . S
C318 C321 1.348 . S
C318 H350 0.929 . S
C319 C320 1.358 . S
C319 C321 1.356 . S
C319 H351 0.930 . S
C320 N317 1.279 . S
C320 C319 1.358 . S
C320 H323 0.930 . S
C321 C318 1.348 . S
C321 C319 1.356 . S
H322 C316 0.930 . S
H323 C320 0.930 . S
O324 Li264 1.956 . S
O324 Li265 1.970 . S
O324 Li266 1.961 . S
O324 C268 1.325 . S
O325 Li264 1.970 . S
O325 Li265 1.956 . S
O325 Li267 1.961 . S
O325 C274 1.325 . S
O326 Li264 1.961 . S
O326 Li266 1.956 . S
O326 Li267 1.970 . S
O326 C296 1.325 . S
O327 Li265 1.961 . S
O327 Li266 1.970 . S
O327 Li267 1.956 . S
O327 C302 1.325 . S
H328 C270 0.929 . S
H329 C271 0.930 . S
H330 C272 0.930 . S
H331 C273 0.930 . S
H332 C275 0.930 . S
H333 C277 0.929 . S
H334 C278 0.930 . S
H335 C279 0.930 . S
H336 C282 0.930 . S
H337 C285 0.929 . S
H338 C290 0.929 . S
H339 C291 0.930 . S
H340 C298 0.929 . S
H341 C299 0.930 . S
H342 C300 0.930 . S
H343 C301 0.930 . S
H344 C303 0.929 . S
H345 C304 0.930 . S
H346 C305 0.930 1_565 S
H347 C306 0.930 . S
H348 C310 0.929 . S
H349 C312 0.930 . S
H350 C318 0.929 . S
H351 C319 0.930 . S
Li352 N369 1.990 . S
Li352 O412 1.956 . S
Li352 O413 1.970 . S
Li352 O414 1.961 . S
Li353 N377 1.990 . S
Li353 O412 1.970 . S
Li353 O413 1.956 . S
Li353 O415 1.961 . S
Li354 N399 1.990 . S
Li354 O412 1.961 . S
Li354 O414 1.956 . S
Li354 O415 1.970 . S
Li355 N405 1.990 . S
Li355 O413 1.961 . S
Li355 O414 1.970 . S
Li355 O415 1.956 . S
C356 C358 1.348 . S
C356 C359 1.356 . S
C356 O412 1.325 . S
N357 C360 1.314 . S
N357 C361 1.279 . S
C358 C356 1.348 . S
C358 C360 1.353 . S
C358 H416 0.929 . S
C359 C356 1.356 . S
C359 C361 1.358 . S
C359 H417 0.930 . S
C360 N357 1.314 . S
C360 C358 1.353 . S
C360 H418 0.930 . S
C361 N357 1.279 . S
C361 C359 1.358 . S
C361 H419 0.930 . S
C362 C365 1.348 . S
C362 C366 1.356 . S
C362 O413 1.325 . S
C363 N364 1.279 . S
C363 C366 1.358 . S
C363 H420 0.930 . S
N364 C363 1.279 . S
N364 C367 1.314 . S
C365 C362 1.348 . S
C365 C367 1.353 . S
C365 H421 0.929 . S
C366 C362 1.356 . S
C366 C363 1.358 . S
C366 H422 0.930 . S
C367 N364 1.314 . S
C367 C365 1.353 . S
C367 H423 0.930 . S
C368 N369 1.314 . S
C368 C373 1.353 . S
C368 H374 0.930 . S
N369 Li352 1.990 . S
N369 C368 1.314 . S
N369 C371 1.279 . S
C370 C371 1.358 . S
C370 C372 1.356 . S
C370 H424 0.930 . S
C371 N369 1.279 . S
C371 C370 1.358 . S
C371 H375 0.930 . S
C372 C370 1.356 . S
C372 C373 1.348 . S
C373 C368 1.353 . S
C373 C372 1.348 . S
C373 H425 0.929 . S
H374 C368 0.930 . S
H375 C371 0.930 . S
C376 N377 1.314 . S
C376 C378 1.353 . S
C376 H382 0.930 . S
N377 Li353 1.990 . S
N377 C376 1.314 . S
N377 C380 1.279 . S
C378 C376 1.353 . S
C378 C381 1.348 . S
C378 H426 0.929 . S
C379 C380 1.358 . S
C379 C381 1.356 . S
C379 H427 0.930 . S
C380 N377 1.279 . S
C380 C379 1.358 . S
C380 H383 0.930 . S
C381 C378 1.348 . S
C381 C379 1.356 . S
H382 C376 0.930 . S
H383 C380 0.930 . S
C384 C386 1.348 . S
C384 C387 1.356 . S
C384 O414 1.325 . S
N385 C388 1.314 . S
N385 C389 1.279 . S
C386 C384 1.348 . S
C386 C388 1.353 . S
C386 H428 0.929 . S
C387 C384 1.356 . S
C387 C389 1.358 . S
C387 H429 0.930 . S
C388 N385 1.314 . S
C388 C386 1.353 . S
C388 H430 0.930 . S
C389 N385 1.279 . S
C389 C387 1.358 . S
C389 H431 0.930 . S
C390 C391 1.348 . S
C390 C392 1.356 . S
C390 O415 1.325 . S
C391 C390 1.348 . S
C391 C393 1.353 . S
C391 H432 0.929 . S
C392 C390 1.356 . S
C392 C394 1.358 . S
C392 H433 0.930 . S
C393 C391 1.353 . S
C393 N395 1.314 . S
C393 H434 0.930 . S
C394 C392 1.358 . S
C394 N395 1.279 . S
C394 H435 0.930 . S
N395 C393 1.314 . S
N395 C394 1.279 . S
C396 C398 1.353 . S
C396 N399 1.314 . S
C396 H402 0.930 . S
C397 N399 1.279 . S
C397 C400 1.358 . S
C397 H403 0.930 . S
C398 C396 1.353 . S
C398 C401 1.348 . S
C398 H436 0.929 . S
N399 Li354 1.990 . S
N399 C396 1.314 . S
N399 C397 1.279 . S
C400 C397 1.358 . S
C400 C401 1.356 . S
C400 H437 0.930 . S
C401 C398 1.348 . S
C401 C400 1.356 . S
H402 C396 0.930 . S
H403 C397 0.930 . S
C404 N405 1.314 . S
C404 C406 1.353 . S
C404 H410 0.930 . S
N405 Li355 1.990 . S
N405 C404 1.314 . S
N405 C408 1.279 . S
C406 C404 1.353 . S
C406 C409 1.348 . S
C406 H438 0.929 . S
C407 C408 1.358 . S
C407 C409 1.356 . S
C407 H439 0.930 . S
C408 N405 1.279 . S
C408 C407 1.358 . S
C408 H411 0.930 . S
C409 C406 1.348 . S
C409 C407 1.356 . S
H410 C404 0.930 . S
H411 C408 0.930 . S
O412 Li352 1.956 . S
O412 Li353 1.970 . S
O412 Li354 1.961 . S
O412 C356 1.325 . S
O413 Li352 1.970 . S
O413 Li353 1.956 . S
O413 Li355 1.961 . S
O413 C362 1.325 . S
O414 Li352 1.961 . S
O414 Li354 1.956 . S
O414 Li355 1.970 . S
O414 C384 1.325 . S
O415 Li353 1.961 . S
O415 Li354 1.970 . S
O415 Li355 1.956 . S
O415 C390 1.325 . S
H416 C358 0.929 . S
H417 C359 0.930 . S
H418 C360 0.930 . S
H419 C361 0.930 . S
H420 C363 0.930 . S
H421 C365 0.929 . S
H422 C366 0.930 . S
H423 C367 0.930 . S
H424 C370 0.930 . S
H425 C373 0.929 . S
H426 C378 0.929 . S
H427 C379 0.930 . S
H428 C386 0.929 . S
H429 C387 0.930 . S
H430 C388 0.930 . S
H431 C389 0.930 . S
H432 C391 0.929 . S
H433 C392 0.930 . S
H434 C393 0.930 . S
H435 C394 0.930 . S
H436 C398 0.929 . S
H437 C400 0.930 . S
H438 C406 0.929 . S
H439 C407 0.930 . S
Li440 N457 1.990 . S
Li440 O500 1.956 . S
Li440 O501 1.970 . S
Li440 O502 1.961 . S
Li441 N465 1.990 . S
Li441 O500 1.970 . S
Li441 O501 1.956 . S
Li441 O503 1.961 . S
Li442 N487 1.990 . S
Li442 O500 1.961 . S
Li442 O502 1.956 . S
Li442 O503 1.970 . S
Li443 N493 1.990 . S
Li443 O501 1.961 . S
Li443 O502 1.970 . S
Li443 O503 1.956 . S
C444 C446 1.348 . S
C444 C447 1.356 . S
C444 O500 1.325 . S
N445 C448 1.314 . S
N445 C449 1.279 . S
C446 C444 1.348 . S
C446 C448 1.353 . S
C446 H504 0.929 . S
C447 C444 1.356 . S
C447 C449 1.358 . S
C447 H505 0.930 . S
C448 N445 1.314 . S
C448 C446 1.353 . S
C448 H506 0.930 . S
C449 N445 1.279 . S
C449 C447 1.358 . S
C449 H507 0.930 . S
C450 C453 1.348 . S
C450 C454 1.356 . S
C450 O501 1.325 . S
C451 N452 1.279 1_565 S
C451 C454 1.358 . S
C451 H508 0.930 . S
N452 C451 1.279 1_545 S
N452 C455 1.314 1_545 S
C453 C450 1.348 . S
C453 C455 1.353 . S
C453 H509 0.929 . S
C454 C450 1.356 . S
C454 C451 1.358 . S
C454 H510 0.930 . S
C455 N452 1.314 1_565 S
C455 C453 1.353 . S
C455 H511 0.930 1_565 S
C456 N457 1.314 . S
C456 C461 1.353 . S
C456 H462 0.930 . S
N457 Li440 1.990 . S
N457 C456 1.314 . S
N457 C459 1.279 . S
C458 C459 1.358 . S
C458 C460 1.356 . S
C458 H512 0.930 . S
C459 N457 1.279 . S
C459 C458 1.358 . S
C459 H463 0.930 . S
C460 C458 1.356 . S
C460 C461 1.348 . S
C461 C456 1.353 . S
C461 C460 1.348 . S
C461 H513 0.929 . S
H462 C456 0.930 . S
H463 C459 0.930 . S
C464 N465 1.314 . S
C464 C466 1.353 . S
C464 H470 0.930 . S
N465 Li441 1.990 . S
N465 C464 1.314 . S
N465 C468 1.279 . S
C466 C464 1.353 . S
C466 C469 1.348 . S
C466 H514 0.929 . S
C467 C468 1.358 . S
C467 C469 1.356 . S
C467 H515 0.930 . S
C468 N465 1.279 . S
C468 C467 1.358 . S
C468 H471 0.930 . S
C469 C466 1.348 . S
C469 C467 1.356 . S
H470 C464 0.930 . S
H471 C468 0.930 . S
C472 C474 1.348 . S
C472 C475 1.356 . S
C472 O502 1.325 . S
N473 C476 1.314 . S
N473 C477 1.279 . S
C474 C472 1.348 . S
C474 C476 1.353 . S
C474 H516 0.929 . S
C475 C472 1.356 . S
C475 C477 1.358 . S
C475 H517 0.930 . S
C476 N473 1.314 . S
C476 C474 1.353 . S
C476 H518 0.930 . S
C477 N473 1.279 . S
C477 C475 1.358 . S
C477 H519 0.930 . S
C478 C479 1.348 . S
C478 C480 1.356 . S
C478 O503 1.325 . S
C479 C478 1.348 . S
C479 C481 1.353 . S
C479 H520 0.929 . S
C480 C478 1.356 . S
C480 C482 1.358 . S
C480 H521 0.930 . S
C481 C479 1.353 . S
C481 N483 1.314 . S
C481 H522 0.930 . S
C482 C480 1.358 . S
C482 N483 1.279 . S
C482 H523 0.930 . S
N483 C481 1.314 . S
N483 C482 1.279 . S
C484 C486 1.353 . S
C484 N487 1.314 . S
C484 H490 0.930 . S
C485 N487 1.279 . S
C485 C488 1.358 . S
C485 H491 0.930 . S
C486 C484 1.353 . S
C486 C489 1.348 . S
C486 H524 0.929 . S
N487 Li442 1.990 . S
N487 C484 1.314 . S
N487 C485 1.279 . S
C488 C485 1.358 . S
C488 C489 1.356 . S
C488 H525 0.930 . S
C489 C486 1.348 . S
C489 C488 1.356 . S
H490 C484 0.930 . S
H491 C485 0.930 . S
C492 N493 1.314 . S
C492 C494 1.353 . S
C492 H498 0.930 . S
N493 Li443 1.990 . S
N493 C492 1.314 . S
N493 C496 1.279 . S
C494 C492 1.353 . S
C494 C497 1.348 . S
C494 H526 0.929 . S
C495 C496 1.358 . S
C495 C497 1.356 . S
C495 H527 0.930 . S
C496 N493 1.279 . S
C496 C495 1.358 . S
C496 H499 0.930 . S
C497 C494 1.348 . S
C497 C495 1.356 . S
H498 C492 0.930 . S
H499 C496 0.930 . S
O500 Li440 1.956 . S
O500 Li441 1.970 . S
O500 Li442 1.961 . S
O500 C444 1.325 . S
O501 Li440 1.970 . S
O501 Li441 1.956 . S
O501 Li443 1.961 . S
O501 C450 1.325 . S
O502 Li440 1.961 . S
O502 Li442 1.956 . S
O502 Li443 1.970 . S
O502 C472 1.325 . S
O503 Li441 1.961 . S
O503 Li442 1.970 . S
O503 Li443 1.956 . S
O503 C478 1.325 . S
H504 C446 0.929 . S
H505 C447 0.930 . S
H506 C448 0.930 . S
H507 C449 0.930 . S
H508 C451 0.930 . S
H509 C453 0.929 . S
H510 C454 0.930 . S
H511 C455 0.930 1_545 S
H512 C458 0.930 . S
H513 C461 0.929 . S
H514 C466 0.929 . S
H515 C467 0.930 . S
H516 C474 0.929 . S
H517 C475 0.930 . S
H518 C476 0.930 . S
H519 C477 0.930 . S
H520 C479 0.929 . S
H521 C480 0.930 . S
H522 C481 0.930 . S
H523 C482 0.930 . S
H524 C486 0.929 . S
H525 C488 0.930 . S
H526 C494 0.929 . S
H527 C495 0.930 . S
Li528 N545 1.990 . S
Li528 O588 1.956 . S
Li528 O589 1.970 . S
Li528 O590 1.961 . S
Li529 N553 1.990 . S
Li529 O588 1.970 . S
Li529 O589 1.956 . S
Li529 O591 1.961 . S
Li530 N575 1.990 . S
Li530 O588 1.961 . S
Li530 O590 1.956 . S
Li530 O591 1.970 . S
Li531 N581 1.990 . S
Li531 O589 1.961 . S
Li531 O590 1.970 . S
Li531 O591 1.956 . S
C532 C534 1.348 . S
C532 C535 1.356 . S
C532 O588 1.325 . S
N533 C536 1.314 . S
N533 C537 1.279 . S
C534 C532 1.348 . S
C534 C536 1.353 . S
C534 H592 0.929 . S
C535 C532 1.356 . S
C535 C537 1.358 . S
C535 H593 0.930 . S
C536 N533 1.314 . S
C536 C534 1.353 . S
C536 H594 0.930 . S
C537 N533 1.279 . S
C537 C535 1.358 . S
C537 H595 0.930 . S
C538 C541 1.348 . S
C538 C542 1.356 . S
C538 O589 1.325 . S
C539 N540 1.279 . S
C539 C542 1.358 . S
C539 H596 0.930 . S
N540 C539 1.279 . S
N540 C543 1.314 . S
C541 C538 1.348 . S
C541 C543 1.353 . S
C541 H597 0.929 . S
C542 C538 1.356 . S
C542 C539 1.358 . S
C542 H598 0.930 . S
C543 N540 1.314 . S
C543 C541 1.353 . S
C543 H599 0.930 . S
C544 N545 1.314 . S
C544 C549 1.353 . S
C544 H550 0.930 . S
N545 Li528 1.990 . S
N545 C544 1.314 . S
N545 C547 1.279 . S
C546 C547 1.358 . S
C546 C548 1.356 . S
C546 H600 0.930 . S
C547 N545 1.279 . S
C547 C546 1.358 . S
C547 H551 0.930 . S
C548 C546 1.356 . S
C548 C549 1.348 . S
C549 C544 1.353 . S
C549 C548 1.348 . S
C549 H601 0.929 . S
H550 C544 0.930 . S
H551 C547 0.930 . S
C552 N553 1.314 . S
C552 C554 1.353 . S
C552 H558 0.930 . S
N553 Li529 1.990 . S
N553 C552 1.314 . S
N553 C556 1.279 . S
C554 C552 1.353 . S
C554 C557 1.348 . S
C554 H602 0.929 . S
C555 C556 1.358 . S
C555 C557 1.356 . S
C555 H603 0.930 . S
C556 N553 1.279 . S
C556 C555 1.358 . S
C556 H559 0.930 . S
C557 C554 1.348 . S
C557 C555 1.356 . S
H558 C552 0.930 . S
H559 C556 0.930 . S
C560 C562 1.348 . S
C560 C563 1.356 . S
C560 O590 1.325 . S
N561 C564 1.314 . S
N561 C565 1.279 . S
C562 C560 1.348 . S
C562 C564 1.353 . S
C562 H604 0.929 . S
C563 C560 1.356 . S
C563 C565 1.358 . S
C563 H605 0.930 . S
C564 N561 1.314 . S
C564 C562 1.353 . S
C564 H606 0.930 . S
C565 N561 1.279 . S
C565 C563 1.358 . S
C565 H607 0.930 . S
C566 C567 1.348 . S
C566 C568 1.356 . S
C566 O591 1.325 . S
C567 C566 1.348 . S
C567 C569 1.353 . S
C567 H608 0.929 . S
C568 C566 1.356 . S
C568 C570 1.358 . S
C568 H609 0.930 . S
C569 C567 1.353 . S
C569 N571 1.314 . S
C569 H610 0.930 . S
C570 C568 1.358 . S
C570 N571 1.279 . S
C570 H611 0.930 . S
N571 C569 1.314 . S
N571 C570 1.279 . S
C572 C574 1.353 . S
C572 N575 1.314 . S
C572 H578 0.930 . S
C573 N575 1.279 . S
C573 C576 1.358 . S
C573 H579 0.930 . S
C574 C572 1.353 . S
C574 C577 1.348 . S
C574 H612 0.929 . S
N575 Li530 1.990 . S
N575 C572 1.314 . S
N575 C573 1.279 . S
C576 C573 1.358 . S
C576 C577 1.356 . S
C576 H613 0.930 . S
C577 C574 1.348 . S
C577 C576 1.356 . S
H578 C572 0.930 . S
H579 C573 0.930 . S
C580 N581 1.314 . S
C580 C582 1.353 . S
C580 H586 0.930 . S
N581 Li531 1.990 . S
N581 C580 1.314 . S
N581 C584 1.279 . S
C582 C580 1.353 . S
C582 C585 1.348 . S
C582 H614 0.929 . S
C583 C584 1.358 . S
C583 C585 1.356 . S
C583 H615 0.930 . S
C584 N581 1.279 . S
C584 C583 1.358 . S
C584 H587 0.930 . S
C585 C582 1.348 . S
C585 C583 1.356 . S
H586 C580 0.930 . S
H587 C584 0.930 . S
O588 Li528 1.956 . S
O588 Li529 1.970 . S
O588 Li530 1.961 . S
O588 C532 1.325 . S
O589 Li528 1.970 . S
O589 Li529 1.956 . S
O589 Li531 1.961 . S
O589 C538 1.325 . S
O590 Li528 1.961 . S
O590 Li530 1.956 . S
O590 Li531 1.970 . S
O590 C560 1.325 . S
O591 Li529 1.961 . S
O591 Li530 1.970 . S
O591 Li531 1.956 . S
O591 C566 1.325 . S
H592 C534 0.929 . S
H593 C535 0.930 . S
H594 C536 0.930 . S
H595 C537 0.930 . S
H596 C539 0.930 . S
H597 C541 0.929 . S
H598 C542 0.930 . S
H599 C543 0.930 . S
H600 C546 0.930 . S
H601 C549 0.929 . S
H602 C554 0.929 . S
H603 C555 0.930 . S
H604 C562 0.929 . S
H605 C563 0.930 . S
H606 C564 0.930 . S
H607 C565 0.930 . S
H608 C567 0.929 . S
H609 C568 0.930 . S
H610 C569 0.930 . S
H611 C570 0.930 . S
H612 C574 0.929 . S
H613 C576 0.930 . S
H614 C582 0.929 . S
H615 C583 0.930 . S
Li616 N633 1.990 . S
Li616 O676 1.956 . S
Li616 O677 1.970 . S
Li616 O678 1.961 . S
Li617 N641 1.990 . S
Li617 O676 1.970 . S
Li617 O677 1.956 . S
Li617 O679 1.961 . S
Li618 N663 1.990 . S
Li618 O676 1.961 . S
Li618 O678 1.956 . S
Li618 O679 1.970 . S
Li619 N669 1.990 . S
Li619 O677 1.961 . S
Li619 O678 1.970 . S
Li619 O679 1.956 . S
C620 C622 1.348 . S
C620 C623 1.356 . S
C620 O676 1.325 . S
N621 C624 1.314 . S
N621 C625 1.279 . S
C622 C620 1.348 . S
C622 C624 1.353 . S
C622 H680 0.929 . S
C623 C620 1.356 . S
C623 C625 1.358 . S
C623 H681 0.930 . S
C624 N621 1.314 . S
C624 C622 1.353 . S
C624 H682 0.930 . S
C625 N621 1.279 . S
C625 C623 1.358 . S
C625 H683 0.930 . S
C626 C629 1.348 . S
C626 C630 1.356 . S
C626 O677 1.325 . S
C627 N628 1.279 . S
C627 C630 1.358 . S
C627 H684 0.930 . S
N628 C627 1.279 . S
N628 C631 1.314 . S
C629 C626 1.348 . S
C629 C631 1.353 . S
C629 H685 0.929 . S
C630 C626 1.356 . S
C630 C627 1.358 . S
C630 H686 0.930 . S
C631 N628 1.314 . S
C631 C629 1.353 . S
C631 H687 0.930 . S
C632 N633 1.314 . S
C632 C637 1.353 . S
C632 H638 0.930 . S
N633 Li616 1.990 . S
N633 C632 1.314 . S
N633 C635 1.279 . S
C634 C635 1.358 . S
C634 C636 1.356 . S
C634 H688 0.930 . S
C635 N633 1.279 . S
C635 C634 1.358 . S
C635 H639 0.930 . S
C636 C634 1.356 . S
C636 C637 1.348 . S
C637 C632 1.353 . S
C637 C636 1.348 . S
C637 H689 0.929 . S
H638 C632 0.930 . S
H639 C635 0.930 . S
C640 N641 1.314 . S
C640 C642 1.353 . S
C640 H646 0.930 . S
N641 Li617 1.990 . S
N641 C640 1.314 . S
N641 C644 1.279 . S
C642 C640 1.353 . S
C642 C645 1.348 . S
C642 H690 0.929 . S
C643 C644 1.358 . S
C643 C645 1.356 . S
C643 H691 0.930 . S
C644 N641 1.279 . S
C644 C643 1.358 . S
C644 H647 0.930 . S
C645 C642 1.348 . S
C645 C643 1.356 . S
H646 C640 0.930 . S
H647 C644 0.930 . S
C648 C650 1.348 . S
C648 C651 1.356 . S
C648 O678 1.325 . S
N649 C652 1.314 . S
N649 C653 1.279 . S
C650 C648 1.348 . S
C650 C652 1.353 . S
C650 H692 0.929 . S
C651 C648 1.356 . S
C651 C653 1.358 . S
C651 H693 0.930 . S
C652 N649 1.314 . S
C652 C650 1.353 . S
C652 H694 0.930 . S
C653 N649 1.279 . S
C653 C651 1.358 . S
C653 H695 0.930 . S
C654 C655 1.348 . S
C654 C656 1.356 . S
C654 O679 1.325 . S
C655 C654 1.348 . S
C655 C657 1.353 . S
C655 H696 0.929 . S
C656 C654 1.356 . S
C656 C658 1.358 . S
C656 H697 0.930 . S
C657 C655 1.353 . S
C657 N659 1.314 1_545 S
C657 H698 0.930 1_545 S
C658 C656 1.358 . S
C658 N659 1.279 1_545 S
C658 H699 0.930 . S
N659 C657 1.314 1_565 S
N659 C658 1.279 1_565 S
C660 C662 1.353 . S
C660 N663 1.314 . S
C660 H666 0.930 . S
C661 N663 1.279 . S
C661 C664 1.358 . S
C661 H667 0.930 . S
C662 C660 1.353 . S
C662 C665 1.348 . S
C662 H700 0.929 . S
N663 Li618 1.990 . S
N663 C660 1.314 . S
N663 C661 1.279 . S
C664 C661 1.358 . S
C664 C665 1.356 . S
C664 H701 0.930 . S
C665 C662 1.348 . S
C665 C664 1.356 . S
H666 C660 0.930 . S
H667 C661 0.930 . S
C668 N669 1.314 . S
C668 C670 1.353 . S
C668 H674 0.930 . S
N669 Li619 1.990 . S
N669 C668 1.314 . S
N669 C672 1.279 . S
C670 C668 1.353 . S
C670 C673 1.348 . S
C670 H702 0.929 . S
C671 C672 1.358 . S
C671 C673 1.356 . S
C671 H703 0.930 . S
C672 N669 1.279 . S
C672 C671 1.358 . S
C672 H675 0.930 . S
C673 C670 1.348 . S
C673 C671 1.356 . S
H674 C668 0.930 . S
H675 C672 0.930 . S
O676 Li616 1.956 . S
O676 Li617 1.970 . S
O676 Li618 1.961 . S
O676 C620 1.325 . S
O677 Li616 1.970 . S
O677 Li617 1.956 . S
O677 Li619 1.961 . S
O677 C626 1.325 . S
O678 Li616 1.961 . S
O678 Li618 1.956 . S
O678 Li619 1.970 . S
O678 C648 1.325 . S
O679 Li617 1.961 . S
O679 Li618 1.970 . S
O679 Li619 1.956 . S
O679 C654 1.325 . S
H680 C622 0.929 . S
H681 C623 0.930 . S
H682 C624 0.930 . S
H683 C625 0.930 . S
H684 C627 0.930 . S
H685 C629 0.929 . S
H686 C630 0.930 . S
H687 C631 0.930 . S
H688 C634 0.930 . S
H689 C637 0.929 . S
H690 C642 0.929 . S
H691 C643 0.930 . S
H692 C650 0.929 . S
H693 C651 0.930 . S
H694 C652 0.930 . S
H695 C653 0.930 . S
H696 C655 0.929 . S
H697 C656 0.930 . S
H698 C657 0.930 1_565 S
H699 C658 0.930 . S
H700 C662 0.929 . S
H701 C664 0.930 . S
H702 C670 0.929 . S
H703 C671 0.930 . S
Li704 N721 1.990 . S
Li704 O764 1.956 . S
Li704 O765 1.970 . S
Li704 O766 1.961 . S
Li705 N729 1.990 . S
Li705 O764 1.970 . S
Li705 O765 1.956 . S
Li705 O767 1.961 . S
Li706 N751 1.990 . S
Li706 O764 1.961 . S
Li706 O766 1.956 . S
Li706 O767 1.970 . S
Li707 N757 1.990 . S
Li707 O765 1.961 . S
Li707 O766 1.970 . S
Li707 O767 1.956 . S
C708 C710 1.348 . S
C708 C711 1.356 . S
C708 O764 1.325 . S
N709 C712 1.314 . S
N709 C713 1.279 . S
C710 C708 1.348 . S
C710 C712 1.353 . S
C710 H768 0.929 . S
C711 C708 1.356 . S
C711 C713 1.358 . S
C711 H769 0.930 . S
C712 N709 1.314 . S
C712 C710 1.353 . S
C712 H770 0.930 . S
C713 N709 1.279 . S
C713 C711 1.358 . S
C713 H771 0.930 . S
C714 C717 1.348 . S
C714 C718 1.356 . S
C714 O765 1.325 . S
C715 N716 1.279 . S
C715 C718 1.358 . S
C715 H772 0.930 . S
N716 C715 1.279 . S
N716 C719 1.314 . S
C717 C714 1.348 . S
C717 C719 1.353 . S
C717 H773 0.929 . S
C718 C714 1.356 . S
C718 C715 1.358 . S
C718 H774 0.930 . S
C719 N716 1.314 . S
C719 C717 1.353 . S
C719 H775 0.930 . S
C720 N721 1.314 . S
C720 C725 1.353 . S
C720 H726 0.930 . S
N721 Li704 1.990 . S
N721 C720 1.314 . S
N721 C723 1.279 . S
C722 C723 1.358 . S
C722 C724 1.356 . S
C722 H776 0.930 . S
C723 N721 1.279 . S
C723 C722 1.358 . S
C723 H727 0.930 . S
C724 C722 1.356 . S
C724 C725 1.348 . S
C725 C720 1.353 . S
C725 C724 1.348 . S
C725 H777 0.929 . S
H726 C720 0.930 . S
H727 C723 0.930 . S
C728 N729 1.314 . S
C728 C730 1.353 . S
C728 H734 0.930 . S
N729 Li705 1.990 . S
N729 C728 1.314 . S
N729 C732 1.279 . S
C730 C728 1.353 . S
C730 C733 1.348 . S
C730 H778 0.929 . S
C731 C732 1.358 . S
C731 C733 1.356 . S
C731 H779 0.930 . S
C732 N729 1.279 . S
C732 C731 1.358 . S
C732 H735 0.930 . S
C733 C730 1.348 . S
C733 C731 1.356 . S
H734 C728 0.930 . S
H735 C732 0.930 . S
C736 C738 1.348 . S
C736 C739 1.356 . S
C736 O766 1.325 . S
N737 C740 1.314 . S
N737 C741 1.279 . S
C738 C736 1.348 . S
C738 C740 1.353 . S
C738 H780 0.929 . S
C739 C736 1.356 . S
C739 C741 1.358 . S
C739 H781 0.930 . S
C740 N737 1.314 . S
C740 C738 1.353 . S
C740 H782 0.930 . S
C741 N737 1.279 . S
C741 C739 1.358 . S
C741 H783 0.930 . S
C742 C743 1.348 . S
C742 C744 1.356 . S
C742 O767 1.325 . S
C743 C742 1.348 . S
C743 C745 1.353 . S
C743 H784 0.929 . S
C744 C742 1.356 . S
C744 C746 1.358 . S
C744 H785 0.930 . S
C745 C743 1.353 . S
C745 N747 1.314 . S
C745 H786 0.930 . S
C746 C744 1.358 . S
C746 N747 1.279 . S
C746 H787 0.930 . S
N747 C745 1.314 . S
N747 C746 1.279 . S
C748 C750 1.353 . S
C748 N751 1.314 . S
C748 H754 0.930 . S
C749 N751 1.279 . S
C749 C752 1.358 . S
C749 H755 0.930 . S
C750 C748 1.353 . S
C750 C753 1.348 . S
C750 H788 0.929 . S
N751 Li706 1.990 . S
N751 C748 1.314 . S
N751 C749 1.279 . S
C752 C749 1.358 . S
C752 C753 1.356 . S
C752 H789 0.930 . S
C753 C750 1.348 . S
C753 C752 1.356 . S
H754 C748 0.930 . S
H755 C749 0.930 . S
C756 N757 1.314 . S
C756 C758 1.353 . S
C756 H762 0.930 . S
N757 Li707 1.990 . S
N757 C756 1.314 . S
N757 C760 1.279 . S
C758 C756 1.353 . S
C758 C761 1.348 . S
C758 H790 0.929 . S
C759 C760 1.358 . S
C759 C761 1.356 . S
C759 H791 0.930 . S
C760 N757 1.279 . S
C760 C759 1.358 . S
C760 H763 0.930 . S
C761 C758 1.348 . S
C761 C759 1.356 . S
H762 C756 0.930 . S
H763 C760 0.930 . S
O764 Li704 1.956 . S
O764 Li705 1.970 . S
O764 Li706 1.961 . S
O764 C708 1.325 . S
O765 Li704 1.970 . S
O765 Li705 1.956 . S
O765 Li707 1.961 . S
O765 C714 1.325 . S
O766 Li704 1.961 . S
O766 Li706 1.956 . S
O766 Li707 1.970 . S
O766 C736 1.325 . S
O767 Li705 1.961 . S
O767 Li706 1.970 . S
O767 Li707 1.956 . S
O767 C742 1.325 . S
H768 C710 0.929 . S
H769 C711 0.930 . S
H770 C712 0.930 . S
H771 C713 0.930 . S
H772 C715 0.930 . S
H773 C717 0.929 . S
H774 C718 0.930 . S
H775 C719 0.930 . S
H776 C722 0.930 . S
H777 C725 0.929 . S
H778 C730 0.929 . S
H779 C731 0.930 . S
H780 C738 0.929 . S
H781 C739 0.930 . S
H782 C740 0.930 . S
H783 C741 0.930 . S
H784 C743 0.929 . S
H785 C744 0.930 . S
H786 C745 0.930 . S
H787 C746 0.930 . S
H788 C750 0.929 . S
H789 C752 0.930 . S
H790 C758 0.929 . S
H791 C759 0.930 . S
Li792 N809 1.990 . S
Li792 O852 1.956 . S
Li792 O853 1.970 . S
Li792 O854 1.961 . S
Li793 N817 1.990 . S
Li793 O852 1.970 . S
Li793 O853 1.956 . S
Li793 O855 1.961 . S
Li794 N839 1.990 . S
Li794 O852 1.961 . S
Li794 O854 1.956 . S
Li794 O855 1.970 . S
Li795 N845 1.990 . S
Li795 O853 1.961 . S
Li795 O854 1.970 . S
Li795 O855 1.956 . S
C796 C798 1.348 . S
C796 C799 1.356 . S
C796 O852 1.325 . S
N797 C800 1.314 . S
N797 C801 1.279 . S
C798 C796 1.348 . S
C798 C800 1.353 . S
C798 H856 0.929 . S
C799 C796 1.356 . S
C799 C801 1.358 . S
C799 H857 0.930 . S
C800 N797 1.314 . S
C800 C798 1.353 . S
C800 H858 0.930 . S
C801 N797 1.279 . S
C801 C799 1.358 . S
C801 H859 0.930 . S
C802 C805 1.348 . S
C802 C806 1.356 . S
C802 O853 1.325 . S
C803 N804 1.279 . S
C803 C806 1.358 . S
C803 H860 0.930 . S
N804 C803 1.279 . S
N804 C807 1.314 . S
C805 C802 1.348 . S
C805 C807 1.353 . S
C805 H861 0.929 . S
C806 C802 1.356 . S
C806 C803 1.358 . S
C806 H862 0.930 . S
C807 N804 1.314 . S
C807 C805 1.353 . S
C807 H863 0.930 . S
C808 N809 1.314 . S
C808 C813 1.353 . S
C808 H814 0.930 . S
N809 Li792 1.990 . S
N809 C808 1.314 . S
N809 C811 1.279 . S
C810 C811 1.358 . S
C810 C812 1.356 . S
C810 H864 0.930 . S
C811 N809 1.279 . S
C811 C810 1.358 . S
C811 H815 0.930 . S
C812 C810 1.356 . S
C812 C813 1.348 . S
C813 C808 1.353 . S
C813 C812 1.348 . S
C813 H865 0.929 . S
H814 C808 0.930 . S
H815 C811 0.930 . S
C816 N817 1.314 . S
C816 C818 1.353 . S
C816 H822 0.930 . S
N817 Li793 1.990 . S
N817 C816 1.314 . S
N817 C820 1.279 . S
C818 C816 1.353 . S
C818 C821 1.348 . S
C818 H866 0.929 . S
C819 C820 1.358 . S
C819 C821 1.356 . S
C819 H867 0.930 . S
C820 N817 1.279 . S
C820 C819 1.358 . S
C820 H823 0.930 . S
C821 C818 1.348 . S
C821 C819 1.356 . S
H822 C816 0.930 . S
H823 C820 0.930 . S
C824 C826 1.348 . S
C824 C827 1.356 . S
C824 O854 1.325 . S
N825 C828 1.314 . S
N825 C829 1.279 . S
C826 C824 1.348 . S
C826 C828 1.353 . S
C826 H868 0.929 . S
C827 C824 1.356 . S
C827 C829 1.358 . S
C827 H869 0.930 . S
C828 N825 1.314 . S
C828 C826 1.353 . S
C828 H870 0.930 . S
C829 N825 1.279 . S
C829 C827 1.358 . S
C829 H871 0.930 . S
C830 C831 1.348 . S
C830 C832 1.356 . S
C830 O855 1.325 . S
C831 C830 1.348 . S
C831 C833 1.353 . S
C831 H872 0.929 . S
C832 C830 1.356 . S
C832 C834 1.358 . S
C832 H873 0.930 . S
C833 C831 1.353 . S
C833 N835 1.314 1_545 S
C833 H874 0.930 1_545 S
C834 C832 1.358 . S
C834 N835 1.279 1_545 S
C834 H875 0.930 . S
N835 C833 1.314 1_565 S
N835 C834 1.279 1_565 S
C836 C838 1.353 . S
C836 N839 1.314 . S
C836 H842 0.930 . S
C837 N839 1.279 . S
C837 C840 1.358 . S
C837 H843 0.930 . S
C838 C836 1.353 . S
C838 C841 1.348 . S
C838 H876 0.929 . S
N839 Li794 1.990 . S
N839 C836 1.314 . S
N839 C837 1.279 . S
C840 C837 1.358 . S
C840 C841 1.356 . S
C840 H877 0.930 . S
C841 C838 1.348 . S
C841 C840 1.356 . S
H842 C836 0.930 . S
H843 C837 0.930 . S
C844 N845 1.314 . S
C844 C846 1.353 . S
C844 H850 0.930 . S
N845 Li795 1.990 . S
N845 C844 1.314 . S
N845 C848 1.279 . S
C846 C844 1.353 . S
C846 C849 1.348 . S
C846 H878 0.929 . S
C847 C848 1.358 . S
C847 C849 1.356 . S
C847 H879 0.930 . S
C848 N845 1.279 . S
C848 C847 1.358 . S
C848 H851 0.930 . S
C849 C846 1.348 . S
C849 C847 1.356 . S
H850 C844 0.930 . S
H851 C848 0.930 . S
O852 Li792 1.956 . S
O852 Li793 1.970 . S
O852 Li794 1.961 . S
O852 C796 1.325 . S
O853 Li792 1.970 . S
O853 Li793 1.956 . S
O853 Li795 1.961 . S
O853 C802 1.325 . S
O854 Li792 1.961 . S
O854 Li794 1.956 . S
O854 Li795 1.970 . S
O854 C824 1.325 . S
O855 Li793 1.961 . S
O855 Li794 1.970 . S
O855 Li795 1.956 . S
O855 C830 1.325 . S
H856 C798 0.929 . S
H857 C799 0.930 . S
H858 C800 0.930 . S
H859 C801 0.930 . S
H860 C803 0.930 . S
H861 C805 0.929 . S
H862 C806 0.930 . S
H863 C807 0.930 . S
H864 C810 0.930 . S
H865 C813 0.929 . S
H866 C818 0.929 . S
H867 C819 0.930 . S
H868 C826 0.929 . S
H869 C827 0.930 . S
H870 C828 0.930 . S
H871 C829 0.930 . S
H872 C831 0.929 . S
H873 C832 0.930 . S
H874 C833 0.930 1_565 S
H875 C834 0.930 . S
H876 C838 0.929 . S
H877 C840 0.930 . S
H878 C846 0.929 . S
H879 C847 0.930 . S
Li880 N897 1.990 . S
Li880 O940 1.956 . S
Li880 O941 1.970 . S
Li880 O942 1.961 . S
Li881 N905 1.990 . S
Li881 O940 1.970 . S
Li881 O941 1.956 . S
Li881 O943 1.961 . S
Li882 N927 1.990 . S
Li882 O940 1.961 . S
Li882 O942 1.956 . S
Li882 O943 1.970 . S
Li883 N933 1.990 . S
Li883 O941 1.961 . S
Li883 O942 1.970 . S
Li883 O943 1.956 . S
C884 C886 1.348 . S
C884 C887 1.356 . S
C884 O940 1.325 . S
N885 C888 1.314 . S
N885 C889 1.279 . S
C886 C884 1.348 . S
C886 C888 1.353 . S
C886 H944 0.929 . S
C887 C884 1.356 . S
C887 C889 1.358 . S
C887 H945 0.930 . S
C888 N885 1.314 . S
C888 C886 1.353 . S
C888 H946 0.930 . S
C889 N885 1.279 . S
C889 C887 1.358 . S
C889 H947 0.930 . S
C890 C893 1.348 . S
C890 C894 1.356 . S
C890 O941 1.325 . S
C891 N892 1.279 . S
C891 C894 1.358 . S
C891 H948 0.930 . S
N892 C891 1.279 . S
N892 C895 1.314 . S
C893 C890 1.348 . S
C893 C895 1.353 . S
C893 H949 0.929 . S
C894 C890 1.356 . S
C894 C891 1.358 . S
C894 H950 0.930 . S
C895 N892 1.314 . S
C895 C893 1.353 . S
C895 H951 0.930 . S
C896 N897 1.314 . S
C896 C901 1.353 . S
C896 H902 0.930 . S
N897 Li880 1.990 . S
N897 C896 1.314 . S
N897 C899 1.279 . S
C898 C899 1.358 . S
C898 C900 1.356 . S
C898 H952 0.930 . S
C899 N897 1.279 . S
C899 C898 1.358 . S
C899 H903 0.930 . S
C900 C898 1.356 . S
C900 C901 1.348 . S
C901 C896 1.353 . S
C901 C900 1.348 . S
C901 H953 0.929 . S
H902 C896 0.930 . S
H903 C899 0.930 . S
C904 N905 1.314 . S
C904 C906 1.353 . S
C904 H910 0.930 . S
N905 Li881 1.990 . S
N905 C904 1.314 . S
N905 C908 1.279 . S
C906 C904 1.353 . S
C906 C909 1.348 . S
C906 H954 0.929 . S
C907 C908 1.358 . S
C907 C909 1.356 . S
C907 H955 0.930 . S
C908 N905 1.279 . S
C908 C907 1.358 . S
C908 H911 0.930 . S
C909 C906 1.348 . S
C909 C907 1.356 . S
H910 C904 0.930 . S
H911 C908 0.930 . S
C912 C914 1.348 . S
C912 C915 1.356 . S
C912 O942 1.325 . S
N913 C916 1.314 . S
N913 C917 1.279 . S
C914 C912 1.348 . S
C914 C916 1.353 . S
C914 H956 0.929 . S
C915 C912 1.356 . S
C915 C917 1.358 . S
C915 H957 0.930 . S
C916 N913 1.314 . S
C916 C914 1.353 . S
C916 H958 0.930 . S
C917 N913 1.279 . S
C917 C915 1.358 . S
C917 H959 0.930 . S
C918 C919 1.348 . S
C918 C920 1.356 . S
C918 O943 1.325 . S
C919 C918 1.348 . S
C919 C921 1.353 . S
C919 H960 0.929 . S
C920 C918 1.356 . S
C920 C922 1.358 . S
C920 H961 0.930 . S
C921 C919 1.353 . S
C921 N923 1.314 . S
C921 H962 0.930 . S
C922 C920 1.358 . S
C922 N923 1.279 . S
C922 H963 0.930 . S
N923 C921 1.314 . S
N923 C922 1.279 . S
C924 C926 1.353 . S
C924 N927 1.314 . S
C924 H930 0.930 . S
C925 N927 1.279 . S
C925 C928 1.358 . S
C925 H931 0.930 . S
C926 C924 1.353 . S
C926 C929 1.348 . S
C926 H964 0.929 . S
N927 Li882 1.990 . S
N927 C924 1.314 . S
N927 C925 1.279 . S
C928 C925 1.358 . S
C928 C929 1.356 . S
C928 H965 0.930 . S
C929 C926 1.348 . S
C929 C928 1.356 . S
H930 C924 0.930 . S
H931 C925 0.930 . S
C932 N933 1.314 . S
C932 C934 1.353 . S
C932 H938 0.930 . S
N933 Li883 1.990 . S
N933 C932 1.314 . S
N933 C936 1.279 . S
C934 C932 1.353 . S
C934 C937 1.348 . S
C934 H966 0.929 . S
C935 C936 1.358 . S
C935 C937 1.356 . S
C935 H967 0.930 . S
C936 N933 1.279 . S
C936 C935 1.358 . S
C936 H939 0.930 . S
C937 C934 1.348 . S
C937 C935 1.356 . S
H938 C932 0.930 . S
H939 C936 0.930 . S
O940 Li880 1.956 . S
O940 Li881 1.970 . S
O940 Li882 1.961 . S
O940 C884 1.325 . S
O941 Li880 1.970 . S
O941 Li881 1.956 . S
O941 Li883 1.961 . S
O941 C890 1.325 . S
O942 Li880 1.961 . S
O942 Li882 1.956 . S
O942 Li883 1.970 . S
O942 C912 1.325 . S
O943 Li881 1.961 . S
O943 Li882 1.970 . S
O943 Li883 1.956 . S
O943 C918 1.325 . S
H944 C886 0.929 . S
H945 C887 0.930 . S
H946 C888 0.930 . S
H947 C889 0.930 . S
H948 C891 0.930 . S
H949 C893 0.929 . S
H950 C894 0.930 . S
H951 C895 0.930 . S
H952 C898 0.930 . S
H953 C901 0.929 . S
H954 C906 0.929 . S
H955 C907 0.930 . S
H956 C914 0.929 . S
H957 C915 0.930 . S
H958 C916 0.930 . S
H959 C917 0.930 . S
H960 C919 0.929 . S
H961 C920 0.930 . S
H962 C921 0.930 . S
H963 C922 0.930 . S
H964 C926 0.929 . S
H965 C928 0.930 . S
H966 C934 0.929 . S
H967 C935 0.930 . S
Li968 N985 1.990 . S
Li968 O1028 1.956 . S
Li968 O1029 1.970 . S
Li968 O1030 1.961 . S
Li969 N993 1.990 . S
Li969 O1028 1.970 . S
Li969 O1029 1.956 . S
Li969 O1031 1.961 . S
Li970 N1015 1.990 . S
Li970 O1028 1.961 . S
Li970 O1030 1.956 . S
Li970 O1031 1.970 . S
Li971 N1021 1.990 . S
Li971 O1029 1.961 . S
Li971 O1030 1.970 . S
Li971 O1031 1.956 . S
C972 C974 1.348 . S
C972 C975 1.356 . S
C972 O1028 1.325 . S
N973 C976 1.314 . S
N973 C977 1.279 . S
C974 C972 1.348 . S
C974 C976 1.353 . S
C974 H1032 0.929 . S
C975 C972 1.356 . S
C975 C977 1.358 . S
C975 H1033 0.930 . S
C976 N973 1.314 . S
C976 C974 1.353 . S
C976 H1034 0.930 . S
C977 N973 1.279 . S
C977 C975 1.358 . S
C977 H1035 0.930 . S
C978 C981 1.348 . S
C978 C982 1.356 . S
C978 O1029 1.325 . S
C979 N980 1.279 1_565 S
C979 C982 1.358 . S
C979 H1036 0.930 . S
N980 C979 1.279 1_545 S
N980 C983 1.314 1_545 S
C981 C978 1.348 . S
C981 C983 1.353 . S
C981 H1037 0.929 . S
C982 C978 1.356 . S
C982 C979 1.358 . S
C982 H1038 0.930 . S
C983 N980 1.314 1_565 S
C983 C981 1.353 . S
C983 H1039 0.930 1_565 S
C984 N985 1.314 . S
C984 C989 1.353 . S
C984 H990 0.930 . S
N985 Li968 1.990 . S
N985 C984 1.314 . S
N985 C987 1.279 . S
C986 C987 1.358 . S
C986 C988 1.356 . S
C986 H1040 0.930 . S
C987 N985 1.279 . S
C987 C986 1.358 . S
C987 H991 0.930 . S
C988 C986 1.356 . S
C988 C989 1.348 . S
C989 C984 1.353 . S
C989 C988 1.348 . S
C989 H1041 0.929 . S
H990 C984 0.930 . S
H991 C987 0.930 . S
C992 N993 1.314 . S
C992 C994 1.353 . S
C992 H998 0.930 . S
N993 Li969 1.990 . S
N993 C992 1.314 . S
N993 C996 1.279 . S
C994 C992 1.353 . S
C994 C997 1.348 . S
C994 H1042 0.929 . S
C995 C996 1.358 . S
C995 C997 1.356 . S
C995 H1043 0.930 . S
C996 N993 1.279 . S
C996 C995 1.358 . S
C996 H999 0.930 . S
C997 C994 1.348 . S
C997 C995 1.356 . S
H998 C992 0.930 . S
H999 C996 0.930 . S
C1000 C1002 1.348 . S
C1000 C1003 1.356 . S
C1000 O1030 1.325 . S
N1001 C1004 1.314 . S
N1001 C1005 1.279 . S
C1002 C1000 1.348 . S
C1002 C1004 1.353 . S
C1002 H1044 0.929 . S
C1003 C1000 1.356 . S
C1003 C1005 1.358 . S
C1003 H1045 0.930 . S
C1004 N1001 1.314 . S
C1004 C1002 1.353 . S
C1004 H1046 0.930 . S
C1005 N1001 1.279 . S
C1005 C1003 1.358 . S
C1005 H1047 0.930 . S
C1006 C1007 1.348 . S
C1006 C1008 1.356 . S
C1006 O1031 1.325 . S
C1007 C1006 1.348 . S
C1007 C1009 1.353 . S
C1007 H1048 0.929 . S
C1008 C1006 1.356 . S
C1008 C1010 1.358 . S
C1008 H1049 0.930 . S
C1009 C1007 1.353 . S
C1009 N1011 1.314 . S
C1009 H1050 0.930 . S
C1010 C1008 1.358 . S
C1010 N1011 1.279 . S
C1010 H1051 0.930 . S
N1011 C1009 1.314 . S
N1011 C1010 1.279 . S
C1012 C1014 1.353 . S
C1012 N1015 1.314 . S
C1012 H1018 0.930 . S
C1013 N1015 1.279 . S
C1013 C1016 1.358 . S
C1013 H1019 0.930 . S
C1014 C1012 1.353 . S
C1014 C1017 1.348 . S
C1014 H1052 0.929 . S
N1015 Li970 1.990 . S
N1015 C1012 1.314 . S
N1015 C1013 1.279 . S
C1016 C1013 1.358 . S
C1016 C1017 1.356 . S
C1016 H1053 0.930 . S
C1017 C1014 1.348 . S
C1017 C1016 1.356 . S
H1018 C1012 0.930 . S
H1019 C1013 0.930 . S
C1020 N1021 1.314 . S
C1020 C1022 1.353 . S
C1020 H1026 0.930 . S
N1021 Li971 1.990 . S
N1021 C1020 1.314 . S
N1021 C1024 1.279 . S
C1022 C1020 1.353 . S
C1022 C1025 1.348 . S
C1022 H1054 0.929 . S
C1023 C1024 1.358 . S
C1023 C1025 1.356 . S
C1023 H1055 0.930 . S
C1024 N1021 1.279 . S
C1024 C1023 1.358 . S
C1024 H1027 0.930 . S
C1025 C1022 1.348 . S
C1025 C1023 1.356 . S
H1026 C1020 0.930 . S
H1027 C1024 0.930 . S
O1028 Li968 1.956 . S
O1028 Li969 1.970 . S
O1028 Li970 1.961 . S
O1028 C972 1.325 . S
O1029 Li968 1.970 . S
O1029 Li969 1.956 . S
O1029 Li971 1.961 . S
O1029 C978 1.325 . S
O1030 Li968 1.961 . S
O1030 Li970 1.956 . S
O1030 Li971 1.970 . S
O1030 C1000 1.325 . S
O1031 Li969 1.961 . S
O1031 Li970 1.970 . S
O1031 Li971 1.956 . S
O1031 C1006 1.325 . S
H1032 C974 0.929 . S
H1033 C975 0.930 . S
H1034 C976 0.930 . S
H1035 C977 0.930 . S
H1036 C979 0.930 . S
H1037 C981 0.929 . S
H1038 C982 0.930 . S
H1039 C983 0.930 1_545 S
H1040 C986 0.930 . S
H1041 C989 0.929 . S
H1042 C994 0.929 . S
H1043 C995 0.930 . S
H1044 C1002 0.929 . S
H1045 C1003 0.930 . S
H1046 C1004 0.930 . S
H1047 C1005 0.930 . S
H1048 C1007 0.929 . S
H1049 C1008 0.930 . S
H1050 C1009 0.930 . S
H1051 C1010 0.930 . S
H1052 C1014 0.929 . S
H1053 C1016 0.930 . S
H1054 C1022 0.929 . S
H1055 C1023 0.930 . S
Li1056 N1073 1.990 . S
Li1056 O1116 1.956 . S
Li1056 O1117 1.970 . S
Li1056 O1118 1.961 . S
Li1057 N1081 1.990 . S
Li1057 O1116 1.970 . S
Li1057 O1117 1.956 . S
Li1057 O1119 1.961 . S
Li1058 N1103 1.990 . S
Li1058 O1116 1.961 . S
Li1058 O1118 1.956 . S
Li1058 O1119 1.970 . S
Li1059 N1109 1.990 . S
Li1059 O1117 1.961 . S
Li1059 O1118 1.970 . S
Li1059 O1119 1.956 . S
C1060 C1062 1.348 . S
C1060 C1063 1.356 . S
C1060 O1116 1.325 . S
N1061 C1064 1.314 . S
N1061 C1065 1.279 . S
C1062 C1060 1.348 . S
C1062 C1064 1.353 . S
C1062 H1120 0.929 . S
C1063 C1060 1.356 . S
C1063 C1065 1.358 . S
C1063 H1121 0.930 . S
C1064 N1061 1.314 . S
C1064 C1062 1.353 . S
C1064 H1122 0.930 . S
C1065 N1061 1.279 . S
C1065 C1063 1.358 . S
C1065 H1123 0.930 . S
C1066 C1069 1.348 . S
C1066 C1070 1.356 . S
C1066 O1117 1.325 . S
C1067 N1068 1.279 . S
C1067 C1070 1.358 . S
C1067 H1124 0.930 . S
N1068 C1067 1.279 . S
N1068 C1071 1.314 . S
C1069 C1066 1.348 . S
C1069 C1071 1.353 . S
C1069 H1125 0.929 . S
C1070 C1066 1.356 . S
C1070 C1067 1.358 . S
C1070 H1126 0.930 . S
C1071 N1068 1.314 . S
C1071 C1069 1.353 . S
C1071 H1127 0.930 . S
C1072 N1073 1.314 . S
C1072 C1077 1.353 . S
C1072 H1078 0.930 . S
N1073 Li1056 1.990 . S
N1073 C1072 1.314 . S
N1073 C1075 1.279 . S
C1074 C1075 1.358 . S
C1074 C1076 1.356 . S
C1074 H1128 0.930 . S
C1075 N1073 1.279 . S
C1075 C1074 1.358 . S
C1075 H1079 0.930 . S
C1076 C1074 1.356 . S
C1076 C1077 1.348 . S
C1077 C1072 1.353 . S
C1077 C1076 1.348 . S
C1077 H1129 0.929 . S
H1078 C1072 0.930 . S
H1079 C1075 0.930 . S
C1080 N1081 1.314 . S
C1080 C1082 1.353 . S
C1080 H1086 0.930 . S
N1081 Li1057 1.990 . S
N1081 C1080 1.314 . S
N1081 C1084 1.279 . S
C1082 C1080 1.353 . S
C1082 C1085 1.348 . S
C1082 H1130 0.929 . S
C1083 C1084 1.358 . S
C1083 C1085 1.356 . S
C1083 H1131 0.930 . S
C1084 N1081 1.279 . S
C1084 C1083 1.358 . S
C1084 H1087 0.930 . S
C1085 C1082 1.348 . S
C1085 C1083 1.356 . S
H1086 C1080 0.930 . S
H1087 C1084 0.930 . S
C1088 C1090 1.348 . S
C1088 C1091 1.356 . S
C1088 O1118 1.325 . S
N1089 C1092 1.314 . S
N1089 C1093 1.279 . S
C1090 C1088 1.348 . S
C1090 C1092 1.353 . S
C1090 H1132 0.929 . S
C1091 C1088 1.356 . S
C1091 C1093 1.358 . S
C1091 H1133 0.930 . S
C1092 N1089 1.314 . S
C1092 C1090 1.353 . S
C1092 H1134 0.930 . S
C1093 N1089 1.279 . S
C1093 C1091 1.358 . S
C1093 H1135 0.930 . S
C1094 C1095 1.348 . S
C1094 C1096 1.356 . S
C1094 O1119 1.325 . S
C1095 C1094 1.348 . S
C1095 C1097 1.353 . S
C1095 H1136 0.929 . S
C1096 C1094 1.356 . S
C1096 C1098 1.358 . S
C1096 H1137 0.930 . S
C1097 C1095 1.353 . S
C1097 N1099 1.314 . S
C1097 H1138 0.930 . S
C1098 C1096 1.358 . S
C1098 N1099 1.279 . S
C1098 H1139 0.930 . S
N1099 C1097 1.314 . S
N1099 C1098 1.279 . S
C1100 C1102 1.353 . S
C1100 N1103 1.314 . S
C1100 H1106 0.930 . S
C1101 N1103 1.279 . S
C1101 C1104 1.358 . S
C1101 H1107 0.930 . S
C1102 C1100 1.353 . S
C1102 C1105 1.348 . S
C1102 H1140 0.929 . S
N1103 Li1058 1.990 . S
N1103 C1100 1.314 . S
N1103 C1101 1.279 . S
C1104 C1101 1.358 . S
C1104 C1105 1.356 . S
C1104 H1141 0.930 . S
C1105 C1102 1.348 . S
C1105 C1104 1.356 . S
H1106 C1100 0.930 . S
H1107 C1101 0.930 . S
C1108 N1109 1.314 . S
C1108 C1110 1.353 . S
C1108 H1114 0.930 . S
N1109 Li1059 1.990 . S
N1109 C1108 1.314 . S
N1109 C1112 1.279 . S
C1110 C1108 1.353 . S
C1110 C1113 1.348 . S
C1110 H1142 0.929 . S
C1111 C1112 1.358 . S
C1111 C1113 1.356 . S
C1111 H1143 0.930 . S
C1112 N1109 1.279 . S
C1112 C1111 1.358 . S
C1112 H1115 0.930 . S
C1113 C1110 1.348 . S
C1113 C1111 1.356 . S
H1114 C1108 0.930 . S
H1115 C1112 0.930 . S
O1116 Li1056 1.956 . S
O1116 Li1057 1.970 . S
O1116 Li1058 1.961 . S
O1116 C1060 1.325 . S
O1117 Li1056 1.970 . S
O1117 Li1057 1.956 . S
O1117 Li1059 1.961 . S
O1117 C1066 1.325 . S
O1118 Li1056 1.961 . S
O1118 Li1058 1.956 . S
O1118 Li1059 1.970 . S
O1118 C1088 1.325 . S
O1119 Li1057 1.961 . S
O1119 Li1058 1.970 . S
O1119 Li1059 1.956 . S
O1119 C1094 1.325 . S
H1120 C1062 0.929 . S
H1121 C1063 0.930 . S
H1122 C1064 0.930 . S
H1123 C1065 0.930 . S
H1124 C1067 0.930 . S
H1125 C1069 0.929 . S
H1126 C1070 0.930 . S
H1127 C1071 0.930 . S
H1128 C1074 0.930 . S
H1129 C1077 0.929 . S
H1130 C1082 0.929 . S
H1131 C1083 0.930 . S
H1132 C1090 0.929 . S
H1133 C1091 0.930 . S
H1134 C1092 0.930 . S
H1135 C1093 0.930 . S
H1136 C1095 0.929 . S
H1137 C1096 0.930 . S
H1138 C1097 0.930 . S
H1139 C1098 0.930 . S
H1140 C1102 0.929 . S
H1141 C1104 0.930 . S
H1142 C1110 0.929 . S
H1143 C1111 0.930 . S
Li1144 N1161 1.990 . S
Li1144 O1204 1.956 . S
Li1144 O1205 1.970 . S
Li1144 O1206 1.961 . S
Li1145 N1169 1.990 . S
Li1145 O1204 1.970 . S
Li1145 O1205 1.956 . S
Li1145 O1207 1.961 . S
Li1146 N1191 1.990 . S
Li1146 O1204 1.961 . S
Li1146 O1206 1.956 . S
Li1146 O1207 1.970 . S
Li1147 N1197 1.990 . S
Li1147 O1205 1.961 . S
Li1147 O1206 1.970 . S
Li1147 O1207 1.956 . S
C1148 C1150 1.348 . S
C1148 C1151 1.356 . S
C1148 O1204 1.325 . S
N1149 C1152 1.314 . S
N1149 C1153 1.279 . S
C1150 C1148 1.348 . S
C1150 C1152 1.353 . S
C1150 H1208 0.929 . S
C1151 C1148 1.356 . S
C1151 C1153 1.358 . S
C1151 H1209 0.930 . S
C1152 N1149 1.314 . S
C1152 C1150 1.353 . S
C1152 H1210 0.930 . S
C1153 N1149 1.279 . S
C1153 C1151 1.358 . S
C1153 H1211 0.930 . S
C1154 C1157 1.348 . S
C1154 C1158 1.356 . S
C1154 O1205 1.325 . S
C1155 N1156 1.279 . S
C1155 C1158 1.358 . S
C1155 H1212 0.930 . S
N1156 C1155 1.279 . S
N1156 C1159 1.314 . S
C1157 C1154 1.348 . S
C1157 C1159 1.353 . S
C1157 H1213 0.929 . S
C1158 C1154 1.356 . S
C1158 C1155 1.358 . S
C1158 H1214 0.930 . S
C1159 N1156 1.314 . S
C1159 C1157 1.353 . S
C1159 H1215 0.930 . S
C1160 N1161 1.314 . S
C1160 C1165 1.353 . S
C1160 H1166 0.930 . S
N1161 Li1144 1.990 . S
N1161 C1160 1.314 . S
N1161 C1163 1.279 . S
C1162 C1163 1.358 . S
C1162 C1164 1.356 . S
C1162 H1216 0.930 . S
C1163 N1161 1.279 . S
C1163 C1162 1.358 . S
C1163 H1167 0.930 . S
C1164 C1162 1.356 . S
C1164 C1165 1.348 . S
C1165 C1160 1.353 . S
C1165 C1164 1.348 . S
C1165 H1217 0.929 . S
H1166 C1160 0.930 . S
H1167 C1163 0.930 . S
C1168 N1169 1.314 . S
C1168 C1170 1.353 . S
C1168 H1174 0.930 . S
N1169 Li1145 1.990 . S
N1169 C1168 1.314 . S
N1169 C1172 1.279 . S
C1170 C1168 1.353 . S
C1170 C1173 1.348 . S
C1170 H1218 0.929 . S
C1171 C1172 1.358 . S
C1171 C1173 1.356 . S
C1171 H1219 0.930 . S
C1172 N1169 1.279 . S
C1172 C1171 1.358 . S
C1172 H1175 0.930 . S
C1173 C1170 1.348 . S
C1173 C1171 1.356 . S
H1174 C1168 0.930 . S
H1175 C1172 0.930 . S
C1176 C1178 1.348 . S
C1176 C1179 1.356 . S
C1176 O1206 1.325 . S
N1177 C1180 1.314 1_565 S
N1177 C1181 1.279 1_565 S
C1178 C1176 1.348 . S
C1178 C1180 1.353 . S
C1178 H1220 0.929 . S
C1179 C1176 1.356 . S
C1179 C1181 1.358 . S
C1179 H1221 0.930 . S
C1180 N1177 1.314 1_545 S
C1180 C1178 1.353 . S
C1180 H1222 0.930 1_545 S
C1181 N1177 1.279 1_545 S
C1181 C1179 1.358 . S
C1181 H1223 0.930 . S
C1182 C1183 1.348 . S
C1182 C1184 1.356 . S
C1182 O1207 1.325 . S
C1183 C1182 1.348 . S
C1183 C1185 1.353 . S
C1183 H1224 0.929 . S
C1184 C1182 1.356 . S
C1184 C1186 1.358 . S
C1184 H1225 0.930 . S
C1185 C1183 1.353 . S
C1185 N1187 1.314 . S
C1185 H1226 0.930 . S
C1186 C1184 1.358 . S
C1186 N1187 1.279 . S
C1186 H1227 0.930 . S
N1187 C1185 1.314 . S
N1187 C1186 1.279 . S
C1188 C1190 1.353 . S
C1188 N1191 1.314 . S
C1188 H1194 0.930 . S
C1189 N1191 1.279 . S
C1189 C1192 1.358 . S
C1189 H1195 0.930 . S
C1190 C1188 1.353 . S
C1190 C1193 1.348 . S
C1190 H1228 0.929 . S
N1191 Li1146 1.990 . S
N1191 C1188 1.314 . S
N1191 C1189 1.279 . S
C1192 C1189 1.358 . S
C1192 C1193 1.356 . S
C1192 H1229 0.930 . S
C1193 C1190 1.348 . S
C1193 C1192 1.356 . S
H1194 C1188 0.930 . S
H1195 C1189 0.930 . S
C1196 N1197 1.314 . S
C1196 C1198 1.353 . S
C1196 H1202 0.930 . S
N1197 Li1147 1.990 . S
N1197 C1196 1.314 . S
N1197 C1200 1.279 . S
C1198 C1196 1.353 . S
C1198 C1201 1.348 . S
C1198 H1230 0.929 . S
C1199 C1200 1.358 . S
C1199 C1201 1.356 . S
C1199 H1231 0.930 . S
C1200 N1197 1.279 . S
C1200 C1199 1.358 . S
C1200 H1203 0.930 . S
C1201 C1198 1.348 . S
C1201 C1199 1.356 . S
H1202 C1196 0.930 . S
H1203 C1200 0.930 . S
O1204 Li1144 1.956 . S
O1204 Li1145 1.970 . S
O1204 Li1146 1.961 . S
O1204 C1148 1.325 . S
O1205 Li1144 1.970 . S
O1205 Li1145 1.956 . S
O1205 Li1147 1.961 . S
O1205 C1154 1.325 . S
O1206 Li1144 1.961 . S
O1206 Li1146 1.956 . S
O1206 Li1147 1.970 . S
O1206 C1176 1.325 . S
O1207 Li1145 1.961 . S
O1207 Li1146 1.970 . S
O1207 Li1147 1.956 . S
O1207 C1182 1.325 . S
H1208 C1150 0.929 . S
H1209 C1151 0.930 . S
H1210 C1152 0.930 . S
H1211 C1153 0.930 . S
H1212 C1155 0.930 . S
H1213 C1157 0.929 . S
H1214 C1158 0.930 . S
H1215 C1159 0.930 . S
H1216 C1162 0.930 . S
H1217 C1165 0.929 . S
H1218 C1170 0.929 . S
H1219 C1171 0.930 . S
H1220 C1178 0.929 . S
H1221 C1179 0.930 . S
H1222 C1180 0.930 1_565 S
H1223 C1181 0.930 . S
H1224 C1183 0.929 . S
H1225 C1184 0.930 . S
H1226 C1185 0.930 . S
H1227 C1186 0.930 . S
H1228 C1190 0.929 . S
H1229 C1192 0.930 . S
H1230 C1198 0.929 . S
H1231 C1199 0.930 . S
Li1232 N1249 1.990 . S
Li1232 O1292 1.956 . S
Li1232 O1293 1.970 . S
Li1232 O1294 1.961 . S
Li1233 N1257 1.990 . S
Li1233 O1292 1.970 . S
Li1233 O1293 1.956 . S
Li1233 O1295 1.961 . S
Li1234 N1279 1.990 . S
Li1234 O1292 1.961 . S
Li1234 O1294 1.956 . S
Li1234 O1295 1.970 . S
Li1235 N1285 1.990 . S
Li1235 O1293 1.961 . S
Li1235 O1294 1.970 . S
Li1235 O1295 1.956 . S
C1236 C1238 1.348 . S
C1236 C1239 1.356 . S
C1236 O1292 1.325 . S
N1237 C1240 1.314 . S
N1237 C1241 1.279 . S
C1238 C1236 1.348 . S
C1238 C1240 1.353 . S
C1238 H1296 0.929 . S
C1239 C1236 1.356 . S
C1239 C1241 1.358 . S
C1239 H1297 0.930 . S
C1240 N1237 1.314 . S
C1240 C1238 1.353 . S
C1240 H1298 0.930 . S
C1241 N1237 1.279 . S
C1241 C1239 1.358 . S
C1241 H1299 0.930 . S
C1242 C1245 1.348 . S
C1242 C1246 1.356 . S
C1242 O1293 1.325 . S
C1243 N1244 1.279 . S
C1243 C1246 1.358 . S
C1243 H1300 0.930 . S
N1244 C1243 1.279 . S
N1244 C1247 1.314 . S
C1245 C1242 1.348 . S
C1245 C1247 1.353 . S
C1245 H1301 0.929 . S
C1246 C1242 1.356 . S
C1246 C1243 1.358 . S
C1246 H1302 0.930 . S
C1247 N1244 1.314 . S
C1247 C1245 1.353 . S
C1247 H1303 0.930 . S
C1248 N1249 1.314 . S
C1248 C1253 1.353 . S
C1248 H1254 0.930 . S
N1249 Li1232 1.990 . S
N1249 C1248 1.314 . S
N1249 C1251 1.279 . S
C1250 C1251 1.358 . S
C1250 C1252 1.356 . S
C1250 H1304 0.930 . S
C1251 N1249 1.279 . S
C1251 C1250 1.358 . S
C1251 H1255 0.930 . S
C1252 C1250 1.356 . S
C1252 C1253 1.348 . S
C1253 C1248 1.353 . S
C1253 C1252 1.348 . S
C1253 H1305 0.929 . S
H1254 C1248 0.930 . S
H1255 C1251 0.930 . S
C1256 N1257 1.314 . S
C1256 C1258 1.353 . S
C1256 H1262 0.930 . S
N1257 Li1233 1.990 . S
N1257 C1256 1.314 . S
N1257 C1260 1.279 . S
C1258 C1256 1.353 . S
C1258 C1261 1.348 . S
C1258 H1306 0.929 . S
C1259 C1260 1.358 . S
C1259 C1261 1.356 . S
C1259 H1307 0.930 . S
C1260 N1257 1.279 . S
C1260 C1259 1.358 . S
C1260 H1263 0.930 . S
C1261 C1258 1.348 . S
C1261 C1259 1.356 . S
H1262 C1256 0.930 . S
H1263 C1260 0.930 . S
C1264 C1266 1.348 . S
C1264 C1267 1.356 . S
C1264 O1294 1.325 . S
N1265 C1268 1.314 . S
N1265 C1269 1.279 . S
C1266 C1264 1.348 . S
C1266 C1268 1.353 . S
C1266 H1308 0.929 . S
C1267 C1264 1.356 . S
C1267 C1269 1.358 . S
C1267 H1309 0.930 . S
C1268 N1265 1.314 . S
C1268 C1266 1.353 . S
C1268 H1310 0.930 . S
C1269 N1265 1.279 . S
C1269 C1267 1.358 . S
C1269 H1311 0.930 . S
C1270 C1271 1.348 . S
C1270 C1272 1.356 . S
C1270 O1295 1.325 . S
C1271 C1270 1.348 . S
C1271 C1273 1.353 . S
C1271 H1312 0.929 . S
C1272 C1270 1.356 . S
C1272 C1274 1.358 . S
C1272 H1313 0.930 . S
C1273 C1271 1.353 . S
C1273 N1275 1.314 . S
C1273 H1314 0.930 . S
C1274 C1272 1.358 . S
C1274 N1275 1.279 . S
C1274 H1315 0.930 . S
N1275 C1273 1.314 . S
N1275 C1274 1.279 . S
C1276 C1278 1.353 . S
C1276 N1279 1.314 . S
C1276 H1282 0.930 . S
C1277 N1279 1.279 . S
C1277 C1280 1.358 . S
C1277 H1283 0.930 . S
C1278 C1276 1.353 . S
C1278 C1281 1.348 . S
C1278 H1316 0.929 . S
N1279 Li1234 1.990 . S
N1279 C1276 1.314 . S
N1279 C1277 1.279 . S
C1280 C1277 1.358 . S
C1280 C1281 1.356 . S
C1280 H1317 0.930 . S
C1281 C1278 1.348 . S
C1281 C1280 1.356 . S
H1282 C1276 0.930 . S
H1283 C1277 0.930 . S
C1284 N1285 1.314 . S
C1284 C1286 1.353 . S
C1284 H1290 0.930 . S
N1285 Li1235 1.990 . S
N1285 C1284 1.314 . S
N1285 C1288 1.279 . S
C1286 C1284 1.353 . S
C1286 C1289 1.348 . S
C1286 H1318 0.929 . S
C1287 C1288 1.358 . S
C1287 C1289 1.356 . S
C1287 H1319 0.930 . S
C1288 N1285 1.279 . S
C1288 C1287 1.358 . S
C1288 H1291 0.930 . S
C1289 C1286 1.348 . S
C1289 C1287 1.356 . S
H1290 C1284 0.930 . S
H1291 C1288 0.930 . S
O1292 Li1232 1.956 . S
O1292 Li1233 1.970 . S
O1292 Li1234 1.961 . S
O1292 C1236 1.325 . S
O1293 Li1232 1.970 . S
O1293 Li1233 1.956 . S
O1293 Li1235 1.961 . S
O1293 C1242 1.325 . S
O1294 Li1232 1.961 . S
O1294 Li1234 1.956 . S
O1294 Li1235 1.970 . S
O1294 C1264 1.325 . S
O1295 Li1233 1.961 . S
O1295 Li1234 1.970 . S
O1295 Li1235 1.956 . S
O1295 C1270 1.325 . S
H1296 C1238 0.929 . S
H1297 C1239 0.930 . S
H1298 C1240 0.930 . S
H1299 C1241 0.930 . S
H1300 C1243 0.930 . S
H1301 C1245 0.929 . S
H1302 C1246 0.930 . S
H1303 C1247 0.930 . S
H1304 C1250 0.930 . S
H1305 C1253 0.929 . S
H1306 C1258 0.929 . S
H1307 C1259 0.930 . S
H1308 C1266 0.929 . S
H1309 C1267 0.930 . S
H1310 C1268 0.930 . S
H1311 C1269 0.930 . S
H1312 C1271 0.929 . S
H1313 C1272 0.930 . S
H1314 C1273 0.930 . S
H1315 C1274 0.930 . S
H1316 C1278 0.929 . S
H1317 C1280 0.930 . S
H1318 C1286 0.929 . S
H1319 C1287 0.930 . S
Li1320 N1337 1.990 . S
Li1320 O1380 1.956 . S
Li1320 O1381 1.970 . S
Li1320 O1382 1.961 . S
Li1321 N1345 1.990 . S
Li1321 O1380 1.970 . S
Li1321 O1381 1.956 . S
Li1321 O1383 1.961 . S
Li1322 N1367 1.990 . S
Li1322 O1380 1.961 . S
Li1322 O1382 1.956 . S
Li1322 O1383 1.970 . S
Li1323 N1373 1.990 . S
Li1323 O1381 1.961 . S
Li1323 O1382 1.970 . S
Li1323 O1383 1.956 . S
C1324 C1326 1.348 . S
C1324 C1327 1.356 . S
C1324 O1380 1.325 . S
N1325 C1328 1.314 1_545 S
N1325 C1329 1.279 1_545 S
C1326 C1324 1.348 . S
C1326 C1328 1.353 . S
C1326 H1384 0.929 . S
C1327 C1324 1.356 . S
C1327 C1329 1.358 . S
C1327 H1385 0.930 . S
C1328 N1325 1.314 1_565 S
C1328 C1326 1.353 . S
C1328 H1386 0.930 1_565 S
C1329 N1325 1.279 1_565 S
C1329 C1327 1.358 . S
C1329 H1387 0.930 . S
C1330 C1333 1.348 . S
C1330 C1334 1.356 . S
C1330 O1381 1.325 . S
C1331 N1332 1.279 . S
C1331 C1334 1.358 . S
C1331 H1388 0.930 . S
N1332 C1331 1.279 . S
N1332 C1335 1.314 . S
C1333 C1330 1.348 . S
C1333 C1335 1.353 . S
C1333 H1389 0.929 . S
C1334 C1330 1.356 . S
C1334 C1331 1.358 . S
C1334 H1390 0.930 . S
C1335 N1332 1.314 . S
C1335 C1333 1.353 . S
C1335 H1391 0.930 . S
C1336 N1337 1.314 . S
C1336 C1341 1.353 . S
C1336 H1342 0.930 . S
N1337 Li1320 1.990 . S
N1337 C1336 1.314 . S
N1337 C1339 1.279 . S
C1338 C1339 1.358 . S
C1338 C1340 1.356 . S
C1338 H1392 0.930 . S
C1339 N1337 1.279 . S
C1339 C1338 1.358 . S
C1339 H1343 0.930 . S
C1340 C1338 1.356 . S
C1340 C1341 1.348 . S
C1341 C1336 1.353 . S
C1341 C1340 1.348 . S
C1341 H1393 0.929 . S
H1342 C1336 0.930 . S
H1343 C1339 0.930 . S
C1344 N1345 1.314 . S
C1344 C1346 1.353 . S
C1344 H1350 0.930 . S
N1345 Li1321 1.990 . S
N1345 C1344 1.314 . S
N1345 C1348 1.279 . S
C1346 C1344 1.353 . S
C1346 C1349 1.348 . S
C1346 H1394 0.929 . S
C1347 C1348 1.358 . S
C1347 C1349 1.356 . S
C1347 H1395 0.930 . S
C1348 N1345 1.279 . S
C1348 C1347 1.358 . S
C1348 H1351 0.930 . S
C1349 C1346 1.348 . S
C1349 C1347 1.356 . S
H1350 C1344 0.930 . S
H1351 C1348 0.930 . S
C1352 C1354 1.348 . S
C1352 C1355 1.356 . S
C1352 O1382 1.325 . S
N1353 C1356 1.314 . S
N1353 C1357 1.279 . S
C1354 C1352 1.348 . S
C1354 C1356 1.353 . S
C1354 H1396 0.929 . S
C1355 C1352 1.356 . S
C1355 C1357 1.358 . S
C1355 H1397 0.930 . S
C1356 N1353 1.314 . S
C1356 C1354 1.353 . S
C1356 H1398 0.930 . S
C1357 N1353 1.279 . S
C1357 C1355 1.358 . S
C1357 H1399 0.930 . S
C1358 C1359 1.348 . S
C1358 C1360 1.356 . S
C1358 O1383 1.325 . S
C1359 C1358 1.348 . S
C1359 C1361 1.353 . S
C1359 H1400 0.929 . S
C1360 C1358 1.356 . S
C1360 C1362 1.358 . S
C1360 H1401 0.930 . S
C1361 C1359 1.353 . S
C1361 N1363 1.314 . S
C1361 H1402 0.930 . S
C1362 C1360 1.358 . S
C1362 N1363 1.279 . S
C1362 H1403 0.930 . S
N1363 C1361 1.314 . S
N1363 C1362 1.279 . S
C1364 C1366 1.353 . S
C1364 N1367 1.314 . S
C1364 H1370 0.930 . S
C1365 N1367 1.279 . S
C1365 C1368 1.358 . S
C1365 H1371 0.930 . S
C1366 C1364 1.353 . S
C1366 C1369 1.348 . S
C1366 H1404 0.929 . S
N1367 Li1322 1.990 . S
N1367 C1364 1.314 . S
N1367 C1365 1.279 . S
C1368 C1365 1.358 . S
C1368 C1369 1.356 . S
C1368 H1405 0.930 . S
C1369 C1366 1.348 . S
C1369 C1368 1.356 . S
H1370 C1364 0.930 . S
H1371 C1365 0.930 . S
C1372 N1373 1.314 . S
C1372 C1374 1.353 . S
C1372 H1378 0.930 . S
N1373 Li1323 1.990 . S
N1373 C1372 1.314 . S
N1373 C1376 1.279 . S
C1374 C1372 1.353 . S
C1374 C1377 1.348 . S
C1374 H1406 0.929 . S
C1375 C1376 1.358 . S
C1375 C1377 1.356 . S
C1375 H1407 0.930 . S
C1376 N1373 1.279 . S
C1376 C1375 1.358 . S
C1376 H1379 0.930 . S
C1377 C1374 1.348 . S
C1377 C1375 1.356 . S
H1378 C1372 0.930 . S
H1379 C1376 0.930 . S
O1380 Li1320 1.956 . S
O1380 Li1321 1.970 . S
O1380 Li1322 1.961 . S
O1380 C1324 1.325 . S
O1381 Li1320 1.970 . S
O1381 Li1321 1.956 . S
O1381 Li1323 1.961 . S
O1381 C1330 1.325 . S
O1382 Li1320 1.961 . S
O1382 Li1322 1.956 . S
O1382 Li1323 1.970 . S
O1382 C1352 1.325 . S
O1383 Li1321 1.961 . S
O1383 Li1322 1.970 . S
O1383 Li1323 1.956 . S
O1383 C1358 1.325 . S
H1384 C1326 0.929 . S
H1385 C1327 0.930 . S
H1386 C1328 0.930 1_545 S
H1387 C1329 0.930 . S
H1388 C1331 0.930 . S
H1389 C1333 0.929 . S
H1390 C1334 0.930 . S
H1391 C1335 0.930 . S
H1392 C1338 0.930 . S
H1393 C1341 0.929 . S
H1394 C1346 0.929 . S
H1395 C1347 0.930 . S
H1396 C1354 0.929 . S
H1397 C1355 0.930 . S
H1398 C1356 0.930 . S
H1399 C1357 0.930 . S
H1400 C1359 0.929 . S
H1401 C1360 0.930 . S
H1402 C1361 0.930 . S
H1403 C1362 0.930 . S
H1404 C1366 0.929 . S
H1405 C1368 0.930 . S
H1406 C1374 0.929 . S
H1407 C1375 0.930 . S
H1408 C1420 0.930 . S
H1409 C1422 0.930 . S
H1410 C1423 0.930 . S
H1411 C1427 0.959 . S
H1412 C1427 0.959 . S
H1413 C1427 0.961 . S
H1414 C1428 0.960 . S
H1415 C1428 0.961 . S
H1416 C1428 0.959 . S
H1417 C1431 0.929 . S
H1418 C1432 0.931 . S
H1419 C1434 0.930 . S
C1420 H1408 0.930 . S
C1420 C1421 1.399 . S
C1420 C1425 1.399 . S
C1421 C1420 1.399 . S
C1421 C1422 1.376 . S
C1422 H1409 0.930 . S
C1422 C1421 1.376 . S
C1422 C1423 1.388 . S
C1423 H1410 0.930 . S
C1423 C1422 1.388 . S
C1423 C1424 1.390 . S
C1424 C1423 1.390 . S
C1424 C1425 1.394 . S
C1424 C1430 1.465 . S
C1425 C1420 1.399 . S
C1425 C1424 1.394 . S
C1425 C1426 1.516 . S
C1426 C1425 1.516 . S
C1426 C1427 1.502 . S
C1426 C1428 1.561 . S
C1426 C1429 1.526 . S
C1427 H1411 0.959 . S
C1427 H1412 0.959 . S
C1427 H1413 0.961 . S
C1427 C1426 1.502 . S
C1428 H1414 0.960 . S
C1428 H1415 0.961 . S
C1428 H1416 0.959 . S
C1428 C1426 1.561 . S
C1429 C1426 1.526 . S
C1429 C1430 1.396 . S
C1429 C1434 1.390 . S
C1430 C1424 1.465 . S
C1430 C1429 1.396 . S
C1430 C1431 1.399 . S
C1431 H1417 0.929 . S
C1431 C1430 1.399 . S
C1431 C1432 1.385 . S
C1432 H1418 0.931 . S
C1432 C1431 1.385 . S
C1432 C1433 1.389 . S
C1433 C1432 1.389 . S
C1433 C1434 1.387 . S
C1434 H1419 0.930 . S
C1434 C1429 1.390 . S
C1434 C1433 1.387 . S
H1435 C1447 0.930 . S
H1436 C1449 0.930 . S
H1437 C1450 0.930 . S
H1438 C1454 0.959 . S
H1439 C1454 0.959 . S
H1440 C1454 0.961 . S
H1441 C1455 0.960 . S
H1442 C1455 0.961 . S
H1443 C1455 0.959 . S
H1444 C1458 0.929 . S
H1445 C1459 0.931 . S
H1446 C1461 0.930 . S
C1447 H1435 0.930 . S
C1447 C1448 1.399 . S
C1447 C1452 1.399 . S
C1448 C1447 1.399 . S
C1448 C1449 1.376 . S
C1449 H1436 0.930 . S
C1449 C1448 1.376 . S
C1449 C1450 1.388 . S
C1450 H1437 0.930 . S
C1450 C1449 1.388 . S
C1450 C1451 1.390 . S
C1451 C1450 1.390 . S
C1451 C1452 1.394 . S
C1451 C1457 1.465 . S
C1452 C1447 1.399 . S
C1452 C1451 1.394 . S
C1452 C1453 1.516 . S
C1453 C1452 1.516 . S
C1453 C1454 1.502 . S
C1453 C1455 1.561 . S
C1453 C1456 1.526 . S
C1454 H1438 0.959 . S
C1454 H1439 0.959 . S
C1454 H1440 0.961 . S
C1454 C1453 1.502 . S
C1455 H1441 0.960 . S
C1455 H1442 0.961 . S
C1455 H1443 0.959 . S
C1455 C1453 1.561 . S
C1456 C1453 1.526 . S
C1456 C1457 1.396 . S
C1456 C1461 1.390 . S
C1457 C1451 1.465 . S
C1457 C1456 1.396 . S
C1457 C1458 1.399 . S
C1458 H1444 0.929 . S
C1458 C1457 1.399 . S
C1458 C1459 1.385 . S
C1459 H1445 0.931 . S
C1459 C1458 1.385 . S
C1459 C1460 1.389 . S
C1460 C1459 1.389 . S
C1460 C1461 1.387 . S
C1461 H1446 0.930 . S
C1461 C1456 1.390 . S
C1461 C1460 1.387 . S
H1462 C1474 0.930 . S
H1463 C1476 0.930 . S
H1464 C1477 0.930 . S
H1465 C1481 0.959 . S
H1466 C1481 0.959 . S
H1467 C1481 0.961 . S
H1468 C1482 0.960 . S
H1469 C1482 0.961 . S
H1470 C1482 0.959 . S
H1471 C1485 0.929 . S
H1472 C1486 0.931 . S
H1473 C1488 0.930 . S
C1474 H1462 0.930 . S
C1474 C1475 1.399 . S
C1474 C1479 1.399 . S
C1475 C1474 1.399 . S
C1475 C1476 1.376 . S
C1476 H1463 0.930 . S
C1476 C1475 1.376 . S
C1476 C1477 1.388 . S
C1477 H1464 0.930 . S
C1477 C1476 1.388 . S
C1477 C1478 1.390 . S
C1478 C1477 1.390 . S
C1478 C1479 1.394 . S
C1478 C1484 1.465 . S
C1479 C1474 1.399 . S
C1479 C1478 1.394 . S
C1479 C1480 1.516 . S
C1480 C1479 1.516 . S
C1480 C1481 1.502 . S
C1480 C1482 1.561 . S
C1480 C1483 1.526 . S
C1481 H1465 0.959 . S
C1481 H1466 0.959 . S
C1481 H1467 0.961 . S
C1481 C1480 1.502 . S
C1482 H1468 0.960 . S
C1482 H1469 0.961 . S
C1482 H1470 0.959 . S
C1482 C1480 1.561 . S
C1483 C1480 1.526 . S
C1483 C1484 1.396 . S
C1483 C1488 1.390 . S
C1484 C1478 1.465 . S
C1484 C1483 1.396 . S
C1484 C1485 1.399 . S
C1485 H1471 0.929 . S
C1485 C1484 1.399 . S
C1485 C1486 1.385 . S
C1486 H1472 0.931 . S
C1486 C1485 1.385 . S
C1486 C1487 1.389 . S
C1487 C1486 1.389 . S
C1487 C1488 1.387 . S
C1488 H1473 0.930 . S
C1488 C1483 1.390 . S
C1488 C1487 1.387 . S
H1489 C1501 0.930 . S
H1490 C1503 0.930 . S
H1491 C1504 0.930 . S
H1492 C1508 0.963 . S
H1493 C1508 0.983 . S
H1494 C1508 0.935 1_455 S
H1495 C1509 0.954 1_455 S
H1496 C1509 0.967 . S
H1497 C1509 0.960 . S
H1498 C1512 0.929 . S
H1499 C1513 0.931 . S
H1500 C1515 0.930 . S
C1501 H1489 0.930 . S
C1501 C1502 1.399 . S
C1501 C1506 1.399 . S
C1502 C1501 1.399 . S
C1502 C1503 1.376 . S
C1503 H1490 0.930 . S
C1503 C1502 1.376 . S
C1503 C1504 1.388 . S
C1504 H1491 0.930 . S
C1504 C1503 1.388 . S
C1504 C1505 1.390 . S
C1505 C1504 1.390 . S
C1505 C1506 1.394 . S
C1505 C1511 1.465 1_455 S
C1506 C1501 1.399 . S
C1506 C1505 1.394 . S
C1506 C1507 1.513 1_455 S
C1507 C1506 1.513 1_655 S
C1507 C1508 1.501 . S
C1507 C1509 1.561 . S
C1507 C1510 1.529 . S
C1508 H1492 0.963 . S
C1508 H1493 0.983 . S
C1508 H1494 0.935 1_655 S
C1508 C1507 1.501 . S
C1509 H1495 0.954 1_655 S
C1509 H1496 0.967 . S
C1509 H1497 0.960 . S
C1509 C1507 1.561 . S
C1510 C1507 1.529 . S
C1510 C1511 1.396 . S
C1510 C1515 1.390 . S
C1511 C1505 1.465 1_655 S
C1511 C1510 1.396 . S
C1511 C1512 1.399 . S
C1512 H1498 0.929 . S
C1512 C1511 1.399 . S
C1512 C1513 1.385 . S
C1513 H1499 0.931 . S
C1513 C1512 1.385 . S
C1513 C1514 1.389 . S
C1514 C1513 1.389 . S
C1514 C1515 1.387 . S
C1515 H1500 0.930 . S
C1515 C1510 1.390 . S
C1515 C1514 1.387 . S
H1516 C1528 0.930 . S
H1517 C1530 0.930 . S
H1518 C1531 0.930 . S
H1519 C1535 0.959 . S
H1520 C1535 0.959 . S
H1521 C1535 0.961 . S
H1522 C1536 0.960 . S
H1523 C1536 0.961 . S
H1524 C1536 0.959 . S
H1525 C1539 0.929 . S
H1526 C1540 0.931 . S
H1527 C1542 0.930 . S
C1528 H1516 0.930 . S
C1528 C1529 1.399 . S
C1528 C1533 1.399 . S
C1529 C1528 1.399 . S
C1529 C1530 1.376 . S
C1530 H1517 0.930 . S
C1530 C1529 1.376 . S
C1530 C1531 1.388 . S
C1531 H1518 0.930 . S
C1531 C1530 1.388 . S
C1531 C1532 1.390 . S
C1532 C1531 1.390 . S
C1532 C1533 1.394 . S
C1532 C1538 1.465 . S
C1533 C1528 1.399 . S
C1533 C1532 1.394 . S
C1533 C1534 1.516 . S
C1534 C1533 1.516 . S
C1534 C1535 1.502 . S
C1534 C1536 1.561 . S
C1534 C1537 1.526 . S
C1535 H1519 0.959 . S
C1535 H1520 0.959 . S
C1535 H1521 0.961 . S
C1535 C1534 1.502 . S
C1536 H1522 0.960 . S
C1536 H1523 0.961 . S
C1536 H1524 0.959 . S
C1536 C1534 1.561 . S
C1537 C1534 1.526 . S
C1537 C1538 1.396 . S
C1537 C1542 1.390 . S
C1538 C1532 1.465 . S
C1538 C1537 1.396 . S
C1538 C1539 1.399 . S
C1539 H1525 0.929 . S
C1539 C1538 1.399 . S
C1539 C1540 1.385 . S
C1540 H1526 0.931 . S
C1540 C1539 1.385 . S
C1540 C1541 1.389 . S
C1541 C1540 1.389 . S
C1541 C1542 1.387 . S
C1542 H1527 0.930 . S
C1542 C1537 1.390 . S
C1542 C1541 1.387 . S
H1543 C1555 0.930 . S
H1544 C1557 0.930 . S
H1545 C1558 0.930 . S
H1546 C1562 0.961 . S
H1547 C1562 0.973 . S
H1548 C1562 0.946 1_655 S
H1549 C1563 0.963 1_655 S
H1550 C1563 0.958 . S
H1551 C1563 0.959 . S
H1552 C1566 0.929 . S
H1553 C1567 0.931 . S
H1554 C1569 0.930 . S
C1555 H1543 0.930 . S
C1555 C1556 1.399 . S
C1555 C1560 1.399 . S
C1556 C1555 1.399 . S
C1556 C1557 1.376 . S
C1557 H1544 0.930 . S
C1557 C1556 1.376 . S
C1557 C1558 1.388 . S
C1558 H1545 0.930 . S
C1558 C1557 1.388 . S
C1558 C1559 1.390 . S
C1559 C1558 1.390 . S
C1559 C1560 1.394 . S
C1559 C1565 1.465 1_655 S
C1560 C1555 1.399 . S
C1560 C1559 1.394 . S
C1560 C1561 1.512 . S
C1561 C1560 1.512 . S
C1561 C1562 1.502 1_655 S
C1561 C1563 1.561 1_655 S
C1561 C1564 1.530 1_655 S
C1562 H1546 0.961 . S
C1562 H1547 0.973 . S
C1562 H1548 0.946 1_455 S
C1562 C1561 1.502 1_455 S
C1563 H1549 0.963 1_455 S
C1563 H1550 0.958 . S
C1563 H1551 0.959 . S
C1563 C1561 1.561 1_455 S
C1564 C1561 1.530 1_455 S
C1564 C1565 1.396 . S
C1564 C1569 1.390 . S
C1565 C1559 1.465 1_455 S
C1565 C1564 1.396 . S
C1565 C1566 1.399 . S
C1566 H1552 0.929 . S
C1566 C1565 1.399 . S
C1566 C1567 1.385 . S
C1567 H1553 0.931 . S
C1567 C1566 1.385 . S
C1567 C1568 1.389 . S
C1568 C1567 1.389 . S
C1568 C1569 1.387 . S
C1569 H1554 0.930 . S
C1569 C1564 1.390 . S
C1569 C1568 1.387 . S
H1570 C1582 0.930 . S
H1571 C1584 0.930 . S
H1572 C1585 0.930 . S
H1573 C1589 0.959 . S
H1574 C1589 0.959 . S
H1575 C1589 0.961 . S
H1576 C1590 0.960 . S
H1577 C1590 0.961 . S
H1578 C1590 0.959 . S
H1579 C1593 0.929 . S
H1580 C1594 0.931 . S
H1581 C1596 0.930 . S
C1582 H1570 0.930 . S
C1582 C1583 1.399 . S
C1582 C1587 1.399 . S
C1583 C1582 1.399 . S
C1583 C1584 1.376 . S
C1584 H1571 0.930 . S
C1584 C1583 1.376 . S
C1584 C1585 1.388 . S
C1585 H1572 0.930 . S
C1585 C1584 1.388 . S
C1585 C1586 1.390 . S
C1586 C1585 1.390 . S
C1586 C1587 1.394 . S
C1586 C1592 1.465 . S
C1587 C1582 1.399 . S
C1587 C1586 1.394 . S
C1587 C1588 1.516 . S
C1588 C1587 1.516 . S
C1588 C1589 1.502 . S
C1588 C1590 1.561 . S
C1588 C1591 1.526 . S
C1589 H1573 0.959 . S
C1589 H1574 0.959 . S
C1589 H1575 0.961 . S
C1589 C1588 1.502 . S
C1590 H1576 0.960 . S
C1590 H1577 0.961 . S
C1590 H1578 0.959 . S
C1590 C1588 1.561 . S
C1591 C1588 1.526 . S
C1591 C1592 1.396 . S
C1591 C1596 1.390 . S
C1592 C1586 1.465 . S
C1592 C1591 1.396 . S
C1592 C1593 1.399 . S
C1593 H1579 0.929 . S
C1593 C1592 1.399 . S
C1593 C1594 1.385 . S
C1594 H1580 0.931 . S
C1594 C1593 1.385 . S
C1594 C1595 1.389 . S
C1595 C1594 1.389 . S
C1595 C1596 1.387 . S
C1596 H1581 0.930 . S
C1596 C1591 1.390 . S
C1596 C1595 1.387 . S
H1597 C1609 0.930 . S
H1598 C1611 0.930 . S
H1599 C1612 0.930 . S
H1600 C1616 0.959 . S
H1601 C1616 0.959 . S
H1602 C1616 0.961 . S
H1603 C1617 0.960 . S
H1604 C1617 0.961 . S
H1605 C1617 0.959 . S
H1606 C1620 0.929 . S
H1607 C1621 0.931 . S
H1608 C1623 0.930 . S
C1609 H1597 0.930 . S
C1609 C1610 1.399 . S
C1609 C1614 1.399 . S
C1610 C1609 1.399 . S
C1610 C1611 1.376 . S
C1611 H1598 0.930 . S
C1611 C1610 1.376 . S
C1611 C1612 1.388 . S
C1612 H1599 0.930 . S
C1612 C1611 1.388 . S
C1612 C1613 1.390 . S
C1613 C1612 1.390 . S
C1613 C1614 1.394 . S
C1613 C1619 1.465 . S
C1614 C1609 1.399 . S
C1614 C1613 1.394 . S
C1614 C1615 1.516 . S
C1615 C1614 1.516 . S
C1615 C1616 1.502 . S
C1615 C1617 1.561 . S
C1615 C1618 1.526 . S
C1616 H1600 0.959 . S
C1616 H1601 0.959 . S
C1616 H1602 0.961 . S
C1616 C1615 1.502 . S
C1617 H1603 0.960 . S
C1617 H1604 0.961 . S
C1617 H1605 0.959 . S
C1617 C1615 1.561 . S
C1618 C1615 1.526 . S
C1618 C1619 1.396 . S
C1618 C1623 1.390 . S
C1619 C1613 1.465 . S
C1619 C1618 1.396 . S
C1619 C1620 1.399 . S
C1620 H1606 0.929 . S
C1620 C1619 1.399 . S
C1620 C1621 1.385 . S
C1621 H1607 0.931 . S
C1621 C1620 1.385 . S
C1621 C1622 1.389 . S
C1622 C1621 1.389 . S
C1622 C1623 1.387 . S
C1623 H1608 0.930 . S
C1623 C1618 1.390 . S
C1623 C1622 1.387 . S
H1624 C1636 0.930 . S
H1625 C1638 0.930 . S
H1626 C1639 0.930 . S
H1627 C1643 0.959 . S
H1628 C1643 0.959 . S
H1629 C1643 0.961 . S
H1630 C1644 0.960 . S
H1631 C1644 0.961 . S
H1632 C1644 0.959 . S
H1633 C1647 0.929 . S
H1634 C1648 0.931 . S
H1635 C1650 0.930 . S
C1636 H1624 0.930 . S
C1636 C1637 1.399 . S
C1636 C1641 1.399 . S
C1637 C1636 1.399 . S
C1637 C1638 1.376 . S
C1638 H1625 0.930 . S
C1638 C1637 1.376 . S
C1638 C1639 1.388 . S
C1639 H1626 0.930 . S
C1639 C1638 1.388 . S
C1639 C1640 1.390 . S
C1640 C1639 1.390 . S
C1640 C1641 1.394 . S
C1640 C1646 1.465 . S
C1641 C1636 1.399 . S
C1641 C1640 1.394 . S
C1641 C1642 1.516 . S
C1642 C1641 1.516 . S
C1642 C1643 1.502 . S
C1642 C1644 1.561 . S
C1642 C1645 1.526 . S
C1643 H1627 0.959 . S
C1643 H1628 0.959 . S
C1643 H1629 0.961 . S
C1643 C1642 1.502 . S
C1644 H1630 0.960 . S
C1644 H1631 0.961 . S
C1644 H1632 0.959 . S
C1644 C1642 1.561 . S
C1645 C1642 1.526 . S
C1645 C1646 1.396 . S
C1645 C1650 1.390 . S
C1646 C1640 1.465 . S
C1646 C1645 1.396 . S
C1646 C1647 1.399 . S
C1647 H1633 0.929 . S
C1647 C1646 1.399 . S
C1647 C1648 1.385 . S
C1648 H1634 0.931 . S
C1648 C1647 1.385 . S
C1648 C1649 1.389 . S
C1649 C1648 1.389 . S
C1649 C1650 1.387 . S
C1650 H1635 0.930 . S
C1650 C1645 1.390 . S
C1650 C1649 1.387 . S
H1651 C1663 0.930 . S
H1652 C1665 0.930 . S
H1653 C1666 0.930 . S
H1654 C1670 0.959 . S
H1655 C1670 0.959 . S
H1656 C1670 0.961 . S
H1657 C1671 0.960 . S
H1658 C1671 0.961 . S
H1659 C1671 0.959 . S
H1660 C1674 0.929 . S
H1661 C1675 0.931 . S
H1662 C1677 0.930 . S
C1663 H1651 0.930 . S
C1663 C1664 1.399 . S
C1663 C1668 1.399 . S
C1664 C1663 1.399 . S
C1664 C1665 1.376 . S
C1665 H1652 0.930 . S
C1665 C1664 1.376 . S
C1665 C1666 1.388 . S
C1666 H1653 0.930 . S
C1666 C1665 1.388 . S
C1666 C1667 1.390 . S
C1667 C1666 1.390 . S
C1667 C1668 1.394 . S
C1667 C1673 1.465 . S
C1668 C1663 1.399 . S
C1668 C1667 1.394 . S
C1668 C1669 1.516 . S
C1669 C1668 1.516 . S
C1669 C1670 1.502 . S
C1669 C1671 1.561 . S
C1669 C1672 1.526 . S
C1670 H1654 0.959 . S
C1670 H1655 0.959 . S
C1670 H1656 0.961 . S
C1670 C1669 1.502 . S
C1671 H1657 0.960 . S
C1671 H1658 0.961 . S
C1671 H1659 0.959 . S
C1671 C1669 1.561 . S
C1672 C1669 1.526 . S
C1672 C1673 1.396 . S
C1672 C1677 1.390 . S
C1673 C1667 1.465 . S
C1673 C1672 1.396 . S
C1673 C1674 1.399 . S
C1674 H1660 0.929 . S
C1674 C1673 1.399 . S
C1674 C1675 1.385 . S
C1675 H1661 0.931 . S
C1675 C1674 1.385 . S
C1675 C1676 1.389 . S
C1676 C1675 1.389 . S
C1676 C1677 1.387 . S
C1677 H1662 0.930 . S
C1677 C1672 1.390 . S
C1677 C1676 1.387 . S
H1678 C1690 0.930 . S
H1679 C1692 0.930 . S
H1680 C1693 0.930 . S
H1681 C1697 0.959 . S
H1682 C1697 0.959 . S
H1683 C1697 0.961 . S
H1684 C1698 0.960 . S
H1685 C1698 0.961 . S
H1686 C1698 0.959 . S
H1687 C1701 0.929 . S
H1688 C1702 0.931 . S
H1689 C1704 0.930 . S
C1690 H1678 0.930 . S
C1690 C1691 1.399 . S
C1690 C1695 1.399 . S
C1691 C1690 1.399 . S
C1691 C1692 1.376 . S
C1692 H1679 0.930 . S
C1692 C1691 1.376 . S
C1692 C1693 1.388 . S
C1693 H1680 0.930 . S
C1693 C1692 1.388 . S
C1693 C1694 1.390 . S
C1694 C1693 1.390 . S
C1694 C1695 1.394 . S
C1694 C1700 1.465 . S
C1695 C1690 1.399 . S
C1695 C1694 1.394 . S
C1695 C1696 1.516 . S
C1696 C1695 1.516 . S
C1696 C1697 1.502 . S
C1696 C1698 1.561 . S
C1696 C1699 1.526 . S
C1697 H1681 0.959 . S
C1697 H1682 0.959 . S
C1697 H1683 0.961 . S
C1697 C1696 1.502 . S
C1698 H1684 0.960 . S
C1698 H1685 0.961 . S
C1698 H1686 0.959 . S
C1698 C1696 1.561 . S
C1699 C1696 1.526 . S
C1699 C1700 1.396 . S
C1699 C1704 1.390 . S
C1700 C1694 1.465 . S
C1700 C1699 1.396 . S
C1700 C1701 1.399 . S
C1701 H1687 0.929 . S
C1701 C1700 1.399 . S
C1701 C1702 1.385 . S
C1702 H1688 0.931 . S
C1702 C1701 1.385 . S
C1702 C1703 1.389 . S
C1703 C1702 1.389 . S
C1703 C1704 1.387 . S
C1704 H1689 0.930 . S
C1704 C1699 1.390 . S
C1704 C1703 1.387 . S
H1705 C1717 0.930 . S
H1706 C1719 0.930 . S
H1707 C1720 0.930 . S
H1708 C1724 0.959 . S
H1709 C1724 0.959 . S
H1710 C1724 0.961 . S
H1711 C1725 0.960 . S
H1712 C1725 0.961 . S
H1713 C1725 0.959 . S
H1714 C1728 0.929 . S
H1715 C1729 0.931 . S
H1716 C1731 0.930 . S
C1717 H1705 0.930 . S
C1717 C1718 1.399 . S
C1717 C1722 1.399 . S
C1718 C1717 1.399 . S
C1718 C1719 1.376 . S
C1719 H1706 0.930 . S
C1719 C1718 1.376 . S
C1719 C1720 1.388 . S
C1720 H1707 0.930 . S
C1720 C1719 1.388 . S
C1720 C1721 1.390 . S
C1721 C1720 1.390 . S
C1721 C1722 1.394 . S
C1721 C1727 1.465 . S
C1722 C1717 1.399 . S
C1722 C1721 1.394 . S
C1722 C1723 1.516 . S
C1723 C1722 1.516 . S
C1723 C1724 1.502 . S
C1723 C1725 1.561 . S
C1723 C1726 1.526 . S
C1724 H1708 0.959 . S
C1724 H1709 0.959 . S
C1724 H1710 0.961 . S
C1724 C1723 1.502 . S
C1725 H1711 0.960 . S
C1725 H1712 0.961 . S
C1725 H1713 0.959 . S
C1725 C1723 1.561 . S
C1726 C1723 1.526 . S
C1726 C1727 1.396 . S
C1726 C1731 1.390 . S
C1727 C1721 1.465 . S
C1727 C1726 1.396 . S
C1727 C1728 1.399 . S
C1728 H1714 0.929 . S
C1728 C1727 1.399 . S
C1728 C1729 1.385 . S
C1729 H1715 0.931 . S
C1729 C1728 1.385 . S
C1729 C1730 1.389 . S
C1730 C1729 1.389 . S
C1730 C1731 1.387 . S
C1731 H1716 0.930 . S
C1731 C1726 1.390 . S
C1731 C1730 1.387 . S
H1732 C1744 0.930 . S
H1733 C1746 0.930 . S
H1734 C1747 0.930 . S
H1735 C1751 0.961 . S
H1736 C1751 0.974 . S
H1737 C1751 0.945 1_455 S
H1738 C1752 0.964 1_455 S
H1739 C1752 0.958 . S
H1740 C1752 0.959 . S
H1741 C1755 0.929 . S
H1742 C1756 0.931 . S
H1743 C1758 0.930 . S
C1744 H1732 0.930 . S
C1744 C1745 1.399 . S
C1744 C1749 1.399 . S
C1745 C1744 1.399 . S
C1745 C1746 1.376 . S
C1746 H1733 0.930 . S
C1746 C1745 1.376 . S
C1746 C1747 1.388 . S
C1747 H1734 0.930 . S
C1747 C1746 1.388 . S
C1747 C1748 1.390 . S
C1748 C1747 1.390 . S
C1748 C1749 1.394 . S
C1748 C1754 1.465 1_455 S
C1749 C1744 1.399 . S
C1749 C1748 1.394 . S
C1749 C1750 1.512 . S
C1750 C1749 1.512 . S
C1750 C1751 1.502 1_455 S
C1750 C1752 1.561 1_455 S
C1750 C1753 1.530 1_455 S
C1751 H1735 0.961 . S
C1751 H1736 0.974 . S
C1751 H1737 0.945 1_655 S
C1751 C1750 1.502 1_655 S
C1752 H1738 0.964 1_655 S
C1752 H1739 0.958 . S
C1752 H1740 0.959 . S
C1752 C1750 1.561 1_655 S
C1753 C1750 1.530 1_655 S
C1753 C1754 1.396 . S
C1753 C1758 1.390 . S
C1754 C1748 1.465 1_655 S
C1754 C1753 1.396 . S
C1754 C1755 1.399 . S
C1755 H1741 0.929 . S
C1755 C1754 1.399 . S
C1755 C1756 1.385 . S
C1756 H1742 0.931 . S
C1756 C1755 1.385 . S
C1756 C1757 1.389 . S
C1757 C1756 1.389 . S
C1757 C1758 1.387 . S
C1758 H1743 0.930 . S
C1758 C1753 1.390 . S
C1758 C1757 1.387 . S
H1759 C1771 0.930 . S
H1760 C1773 0.930 . S
H1761 C1774 0.930 . S
H1762 C1778 0.959 . S
H1763 C1778 0.959 . S
H1764 C1778 0.961 . S
H1765 C1779 0.960 . S
H1766 C1779 0.961 . S
H1767 C1779 0.959 . S
H1768 C1782 0.929 . S
H1769 C1783 0.931 . S
H1770 C1785 0.930 . S
C1771 H1759 0.930 . S
C1771 C1772 1.399 . S
C1771 C1776 1.399 . S
C1772 C1771 1.399 . S
C1772 C1773 1.376 . S
C1773 H1760 0.930 . S
C1773 C1772 1.376 . S
C1773 C1774 1.388 . S
C1774 H1761 0.930 . S
C1774 C1773 1.388 . S
C1774 C1775 1.390 . S
C1775 C1774 1.390 . S
C1775 C1776 1.394 . S
C1775 C1781 1.465 . S
C1776 C1771 1.399 . S
C1776 C1775 1.394 . S
C1776 C1777 1.516 . S
C1777 C1776 1.516 . S
C1777 C1778 1.502 . S
C1777 C1779 1.561 . S
C1777 C1780 1.526 . S
C1778 H1762 0.959 . S
C1778 H1763 0.959 . S
C1778 H1764 0.961 . S
C1778 C1777 1.502 . S
C1779 H1765 0.960 . S
C1779 H1766 0.961 . S
C1779 H1767 0.959 . S
C1779 C1777 1.561 . S
C1780 C1777 1.526 . S
C1780 C1781 1.396 . S
C1780 C1785 1.390 . S
C1781 C1775 1.465 . S
C1781 C1780 1.396 . S
C1781 C1782 1.399 . S
C1782 H1768 0.929 . S
C1782 C1781 1.399 . S
C1782 C1783 1.385 . S
C1783 H1769 0.931 . S
C1783 C1782 1.385 . S
C1783 C1784 1.389 . S
C1784 C1783 1.389 . S
C1784 C1785 1.387 . S
C1785 H1770 0.930 . S
C1785 C1780 1.390 . S
C1785 C1784 1.387 . S
H1786 C1798 0.930 . S
H1787 C1800 0.930 . S
H1788 C1801 0.930 . S
H1789 C1805 0.959 . S
H1790 C1805 0.959 . S
H1791 C1805 0.961 . S
H1792 C1806 0.960 . S
H1793 C1806 0.961 . S
H1794 C1806 0.959 . S
H1795 C1809 0.929 . S
H1796 C1810 0.931 . S
H1797 C1812 0.930 . S
C1798 H1786 0.930 . S
C1798 C1799 1.399 . S
C1798 C1803 1.399 . S
C1799 C1798 1.399 . S
C1799 C1800 1.376 . S
C1800 H1787 0.930 . S
C1800 C1799 1.376 . S
C1800 C1801 1.388 . S
C1801 H1788 0.930 . S
C1801 C1800 1.388 . S
C1801 C1802 1.390 . S
C1802 C1801 1.390 . S
C1802 C1803 1.394 . S
C1802 C1808 1.465 . S
C1803 C1798 1.399 . S
C1803 C1802 1.394 . S
C1803 C1804 1.516 . S
C1804 C1803 1.516 . S
C1804 C1805 1.502 . S
C1804 C1806 1.561 . S
C1804 C1807 1.526 . S
C1805 H1789 0.959 . S
C1805 H1790 0.959 . S
C1805 H1791 0.961 . S
C1805 C1804 1.502 . S
C1806 H1792 0.960 . S
C1806 H1793 0.961 . S
C1806 H1794 0.959 . S
C1806 C1804 1.561 . S
C1807 C1804 1.526 . S
C1807 C1808 1.396 . S
C1807 C1812 1.390 . S
C1808 C1802 1.465 . S
C1808 C1807 1.396 . S
C1808 C1809 1.399 . S
C1809 H1795 0.929 . S
C1809 C1808 1.399 . S
C1809 C1810 1.385 . S
C1810 H1796 0.931 . S
C1810 C1809 1.385 . S
C1810 C1811 1.389 . S
C1811 C1810 1.389 . S
C1811 C1812 1.387 . S
C1812 H1797 0.930 . S
C1812 C1807 1.390 . S
C1812 C1811 1.387 . S
H1813 C1825 0.930 . S
H1814 C1827 0.930 . S
H1815 C1828 0.930 . S
H1816 C1832 0.961 . S
H1817 C1832 0.973 . S
H1818 C1832 0.946 1_455 S
H1819 C1833 0.963 1_455 S
H1820 C1833 0.958 . S
H1821 C1833 0.959 . S
H1822 C1836 0.929 . S
H1823 C1837 0.931 . S
H1824 C1839 0.930 . S
C1825 H1813 0.930 . S
C1825 C1826 1.399 . S
C1825 C1830 1.399 . S
C1826 C1825 1.399 . S
C1826 C1827 1.376 . S
C1827 H1814 0.930 . S
C1827 C1826 1.376 . S
C1827 C1828 1.388 . S
C1828 H1815 0.930 . S
C1828 C1827 1.388 . S
C1828 C1829 1.390 . S
C1829 C1828 1.390 . S
C1829 C1830 1.394 . S
C1829 C1835 1.465 1_455 S
C1830 C1825 1.399 . S
C1830 C1829 1.394 . S
C1830 C1831 1.512 . S
C1831 C1830 1.512 . S
C1831 C1832 1.502 1_455 S
C1831 C1833 1.561 1_455 S
C1831 C1834 1.530 1_455 S
C1832 H1816 0.961 . S
C1832 H1817 0.973 . S
C1832 H1818 0.946 1_655 S
C1832 C1831 1.502 1_655 S
C1833 H1819 0.963 1_655 S
C1833 H1820 0.958 . S
C1833 H1821 0.959 . S
C1833 C1831 1.561 1_655 S
C1834 C1831 1.530 1_655 S
C1834 C1835 1.396 . S
C1834 C1839 1.390 . S
C1835 C1829 1.465 1_655 S
C1835 C1834 1.396 . S
C1835 C1836 1.399 . S
C1836 H1822 0.929 . S
C1836 C1835 1.399 . S
C1836 C1837 1.385 . S
C1837 H1823 0.931 . S
C1837 C1836 1.385 . S
C1837 C1838 1.389 . S
C1838 C1837 1.389 . S
C1838 C1839 1.387 . S
C1839 H1824 0.930 . S
C1839 C1834 1.390 . S
C1839 C1838 1.387 . S
H1840 C1852 0.930 . S
H1841 C1854 0.930 . S
H1842 C1855 0.930 . S
H1843 C1859 0.959 . S
H1844 C1859 0.959 . S
H1845 C1859 0.961 . S
H1846 C1860 0.960 . S
H1847 C1860 0.961 . S
H1848 C1860 0.959 . S
H1849 C1863 0.926 1_554 S
H1850 C1864 0.931 . S
H1851 C1866 0.930 . S
C1852 H1840 0.930 . S
C1852 C1853 1.399 . S
C1852 C1857 1.399 . S
C1853 C1852 1.399 . S
C1853 C1854 1.376 . S
C1854 H1841 0.930 . S
C1854 C1853 1.376 . S
C1854 C1855 1.388 . S
C1855 H1842 0.930 . S
C1855 C1854 1.388 . S
C1855 C1856 1.390 . S
C1856 C1855 1.390 . S
C1856 C1857 1.394 . S
C1856 C1862 1.465 1_554 S
C1857 C1852 1.399 . S
C1857 C1856 1.394 . S
C1857 C1858 1.516 1_554 S
C1858 C1857 1.516 1_556 S
C1858 C1859 1.502 . S
C1858 C1860 1.561 . S
C1858 C1861 1.526 . S
C1859 H1843 0.959 . S
C1859 H1844 0.959 . S
C1859 H1845 0.961 . S
C1859 C1858 1.502 . S
C1860 H1846 0.960 . S
C1860 H1847 0.961 . S
C1860 H1848 0.959 . S
C1860 C1858 1.561 . S
C1861 C1858 1.526 . S
C1861 C1862 1.396 . S
C1861 C1866 1.390 . S
C1862 C1856 1.465 1_556 S
C1862 C1861 1.396 . S
C1862 C1863 1.399 . S
C1863 H1849 0.926 1_556 S
C1863 C1862 1.399 . S
C1863 C1864 1.385 . S
C1864 H1850 0.931 . S
C1864 C1863 1.385 . S
C1864 C1865 1.389 . S
C1865 C1864 1.389 . S
C1865 C1866 1.387 . S
C1866 H1851 0.930 . S
C1866 C1861 1.390 . S
C1866 C1865 1.387 . S
H1867 C1879 0.930 . S
H1868 C1881 0.930 . S
H1869 C1882 0.930 . S
H1870 C1886 0.959 . S
H1871 C1886 0.959 . S
H1872 C1886 0.961 . S
H1873 C1887 0.960 . S
H1874 C1887 0.961 . S
H1875 C1887 0.959 . S
H1876 C1890 0.929 . S
H1877 C1891 0.931 . S
H1878 C1893 0.930 . S
C1879 H1867 0.930 . S
C1879 C1880 1.399 . S
C1879 C1884 1.399 . S
C1880 C1879 1.399 . S
C1880 C1881 1.376 . S
C1881 H1868 0.930 . S
C1881 C1880 1.376 . S
C1881 C1882 1.388 . S
C1882 H1869 0.930 . S
C1882 C1881 1.388 . S
C1882 C1883 1.390 . S
C1883 C1882 1.390 . S
C1883 C1884 1.394 . S
C1883 C1889 1.465 . S
C1884 C1879 1.399 . S
C1884 C1883 1.394 . S
C1884 C1885 1.516 . S
C1885 C1884 1.516 . S
C1885 C1886 1.502 . S
C1885 C1887 1.561 . S
C1885 C1888 1.526 . S
C1886 H1870 0.959 . S
C1886 H1871 0.959 . S
C1886 H1872 0.961 . S
C1886 C1885 1.502 . S
C1887 H1873 0.960 . S
C1887 H1874 0.961 . S
C1887 H1875 0.959 . S
C1887 C1885 1.561 . S
C1888 C1885 1.526 . S
C1888 C1889 1.396 . S
C1888 C1893 1.390 . S
C1889 C1883 1.465 . S
C1889 C1888 1.396 . S
C1889 C1890 1.399 . S
C1890 H1876 0.929 . S
C1890 C1889 1.399 . S
C1890 C1891 1.385 . S
C1891 H1877 0.931 . S
C1891 C1890 1.385 . S
C1891 C1892 1.389 . S
C1892 C1891 1.389 . S
C1892 C1893 1.387 . S
C1893 H1878 0.930 . S
C1893 C1888 1.390 . S
C1893 C1892 1.387 . S
H1894 C1906 0.930 . S
H1895 C1908 0.930 . S
H1896 C1909 0.930 . S
H1897 C1913 0.959 . S
H1898 C1913 0.959 . S
H1899 C1913 0.961 . S
H1900 C1914 0.960 . S
H1901 C1914 0.961 . S
H1902 C1914 0.959 . S
H1903 C1917 0.929 . S
H1904 C1918 0.931 . S
H1905 C1920 0.930 . S
C1906 H1894 0.930 . S
C1906 C1907 1.399 . S
C1906 C1911 1.399 . S
C1907 C1906 1.399 . S
C1907 C1908 1.376 . S
C1908 H1895 0.930 . S
C1908 C1907 1.376 . S
C1908 C1909 1.388 . S
C1909 H1896 0.930 . S
C1909 C1908 1.388 . S
C1909 C1910 1.390 . S
C1910 C1909 1.390 . S
C1910 C1911 1.394 . S
C1910 C1916 1.465 . S
C1911 C1906 1.399 . S
C1911 C1910 1.394 . S
C1911 C1912 1.516 . S
C1912 C1911 1.516 . S
C1912 C1913 1.502 . S
C1912 C1914 1.561 . S
C1912 C1915 1.526 . S
C1913 H1897 0.959 . S
C1913 H1898 0.959 . S
C1913 H1899 0.961 . S
C1913 C1912 1.502 . S
C1914 H1900 0.960 . S
C1914 H1901 0.961 . S
C1914 H1902 0.959 . S
C1914 C1912 1.561 . S
C1915 C1912 1.526 . S
C1915 C1916 1.396 . S
C1915 C1920 1.390 . S
C1916 C1910 1.465 . S
C1916 C1915 1.396 . S
C1916 C1917 1.399 . S
C1917 H1903 0.929 . S
C1917 C1916 1.399 . S
C1917 C1918 1.385 . S
C1918 H1904 0.931 . S
C1918 C1917 1.385 . S
C1918 C1919 1.389 . S
C1919 C1918 1.389 . S
C1919 C1920 1.387 . S
C1920 H1905 0.930 . S
C1920 C1915 1.390 . S
C1920 C1919 1.387 . S
H1921 C1933 0.930 . S
H1922 C1935 0.930 . S
H1923 C1936 0.930 . S
H1924 C1940 0.959 . S
H1925 C1940 0.959 . S
H1926 C1940 0.961 . S
H1927 C1941 0.960 . S
H1928 C1941 0.961 . S
H1929 C1941 0.959 . S
H1930 C1944 0.929 . S
H1931 C1945 0.931 . S
H1932 C1947 0.930 . S
C1933 H1921 0.930 . S
C1933 C1934 1.399 . S
C1933 C1938 1.399 . S
C1934 C1933 1.399 . S
C1934 C1935 1.376 . S
C1935 H1922 0.930 . S
C1935 C1934 1.376 . S
C1935 C1936 1.388 . S
C1936 H1923 0.930 . S
C1936 C1935 1.388 . S
C1936 C1937 1.390 . S
C1937 C1936 1.390 . S
C1937 C1938 1.394 . S
C1937 C1943 1.465 . S
C1938 C1933 1.399 . S
C1938 C1937 1.394 . S
C1938 C1939 1.516 . S
C1939 C1938 1.516 . S
C1939 C1940 1.502 . S
C1939 C1941 1.561 . S
C1939 C1942 1.526 . S
C1940 H1924 0.959 . S
C1940 H1925 0.959 . S
C1940 H1926 0.961 . S
C1940 C1939 1.502 . S
C1941 H1927 0.960 . S
C1941 H1928 0.961 . S
C1941 H1929 0.959 . S
C1941 C1939 1.561 . S
C1942 C1939 1.526 . S
C1942 C1943 1.396 . S
C1942 C1947 1.390 . S
C1943 C1937 1.465 . S
C1943 C1942 1.396 . S
C1943 C1944 1.399 . S
C1944 H1930 0.929 . S
C1944 C1943 1.399 . S
C1944 C1945 1.385 . S
C1945 H1931 0.931 . S
C1945 C1944 1.385 . S
C1945 C1946 1.389 . S
C1946 C1945 1.389 . S
C1946 C1947 1.387 . S
C1947 H1932 0.930 . S
C1947 C1942 1.390 . S
C1947 C1946 1.387 . S
H1948 C1960 0.930 . S
H1949 C1962 0.930 . S
H1950 C1963 0.902 1_554 S
H1951 C1967 0.959 . S
H1952 C1967 0.959 . S
H1953 C1967 0.961 . S
H1954 C1968 0.960 . S
H1955 C1968 0.961 . S
H1956 C1968 0.959 . S
H1957 C1971 0.929 . S
H1958 C1972 0.931 . S
H1959 C1974 0.930 . S
C1960 H1948 0.930 . S
C1960 C1961 1.399 . S
C1960 C1965 1.399 . S
C1961 C1960 1.399 . S
C1961 C1962 1.376 . S
C1962 H1949 0.930 . S
C1962 C1961 1.376 . S
C1962 C1963 1.388 . S
C1963 H1950 0.902 1_556 S
C1963 C1962 1.388 . S
C1963 C1964 1.390 . S
C1964 C1963 1.390 . S
C1964 C1965 1.394 . S
C1964 C1970 1.465 1_556 S
C1965 C1960 1.399 . S
C1965 C1964 1.394 . S
C1965 C1966 1.516 . S
C1966 C1965 1.516 . S
C1966 C1967 1.502 . S
C1966 C1968 1.561 . S
C1966 C1969 1.526 1_556 S
C1967 H1951 0.959 . S
C1967 H1952 0.959 . S
C1967 H1953 0.961 . S
C1967 C1966 1.502 . S
C1968 H1954 0.960 . S
C1968 H1955 0.961 . S
C1968 H1956 0.959 . S
C1968 C1966 1.561 . S
C1969 C1966 1.526 1_554 S
C1969 C1970 1.396 . S
C1969 C1974 1.390 . S
C1970 C1964 1.465 1_554 S
C1970 C1969 1.396 . S
C1970 C1971 1.399 . S
C1971 H1957 0.929 . S
C1971 C1970 1.399 . S
C1971 C1972 1.385 . S
C1972 H1958 0.931 . S
C1972 C1971 1.385 . S
C1972 C1973 1.389 . S
C1973 C1972 1.389 . S
C1973 C1974 1.387 . S
C1974 H1959 0.930 . S
C1974 C1969 1.390 . S
C1974 C1973 1.387 . S
H1975 C1987 0.930 . S
H1976 C1989 0.930 . S
H1977 C1990 0.930 . S
H1978 C1994 0.959 . S
H1979 C1994 0.959 . S
H1980 C1994 0.961 . S
H1981 C1995 0.960 . S
H1982 C1995 0.961 . S
H1983 C1995 0.959 . S
H1984 C1998 0.929 . S
H1985 C1999 0.931 . S
H1986 C2001 0.930 . S
C1987 H1975 0.930 . S
C1987 C1988 1.399 . S
C1987 C1992 1.399 . S
C1988 C1987 1.399 . S
C1988 C1989 1.376 . S
C1989 H1976 0.930 . S
C1989 C1988 1.376 . S
C1989 C1990 1.388 . S
C1990 H1977 0.930 . S
C1990 C1989 1.388 . S
C1990 C1991 1.390 . S
C1991 C1990 1.390 . S
C1991 C1992 1.394 . S
C1991 C1997 1.465 . S
C1992 C1987 1.399 . S
C1992 C1991 1.394 . S
C1992 C1993 1.516 . S
C1993 C1992 1.516 . S
C1993 C1994 1.502 . S
C1993 C1995 1.561 . S
C1993 C1996 1.526 . S
C1994 H1978 0.959 . S
C1994 H1979 0.959 . S
C1994 H1980 0.961 . S
C1994 C1993 1.502 . S
C1995 H1981 0.960 . S
C1995 H1982 0.961 . S
C1995 H1983 0.959 . S
C1995 C1993 1.561 . S
C1996 C1993 1.526 . S
C1996 C1997 1.396 . S
C1996 C2001 1.390 . S
C1997 C1991 1.465 . S
C1997 C1996 1.396 . S
C1997 C1998 1.399 . S
C1998 H1984 0.929 . S
C1998 C1997 1.399 . S
C1998 C1999 1.385 . S
C1999 H1985 0.931 . S
C1999 C1998 1.385 . S
C1999 C2000 1.389 . S
C2000 C1999 1.389 . S
C2000 C2001 1.387 . S
C2001 H1986 0.930 . S
C2001 C1996 1.390 . S
C2001 C2000 1.387 . S
H2002 C2014 0.930 . S
H2003 C2016 0.930 . S
H2004 C2017 0.930 . S
H2005 C2021 0.959 . S
H2006 C2021 0.959 . S
H2007 C2021 0.961 . S
H2008 C2022 0.960 . S
H2009 C2022 0.961 . S
H2010 C2022 0.959 . S
H2011 C2025 0.929 . S
H2012 C2026 0.931 . S
H2013 C2028 0.930 . S
C2014 H2002 0.930 . S
C2014 C2015 1.399 . S
C2014 C2019 1.399 . S
C2015 C2014 1.399 . S
C2015 C2016 1.376 . S
C2016 H2003 0.930 . S
C2016 C2015 1.376 . S
C2016 C2017 1.388 . S
C2017 H2004 0.930 . S
C2017 C2016 1.388 . S
C2017 C2018 1.390 . S
C2018 C2017 1.390 . S
C2018 C2019 1.394 . S
C2018 C2024 1.465 . S
C2019 C2014 1.399 . S
C2019 C2018 1.394 . S
C2019 C2020 1.516 . S
C2020 C2019 1.516 . S
C2020 C2021 1.502 . S
C2020 C2022 1.561 . S
C2020 C2023 1.526 . S
C2021 H2005 0.959 . S
C2021 H2006 0.959 . S
C2021 H2007 0.961 . S
C2021 C2020 1.502 . S
C2022 H2008 0.960 . S
C2022 H2009 0.961 . S
C2022 H2010 0.959 . S
C2022 C2020 1.561 . S
C2023 C2020 1.526 . S
C2023 C2024 1.396 . S
C2023 C2028 1.390 . S
C2024 C2018 1.465 . S
C2024 C2023 1.396 . S
C2024 C2025 1.399 . S
C2025 H2011 0.929 . S
C2025 C2024 1.399 . S
C2025 C2026 1.385 . S
C2026 H2012 0.931 . S
C2026 C2025 1.385 . S
C2026 C2027 1.389 . S
C2027 C2026 1.389 . S
C2027 C2028 1.387 . S
C2028 H2013 0.930 . S
C2028 C2023 1.390 . S
C2028 C2027 1.387 . S
H2029 C2041 0.930 . S
H2030 C2043 0.930 . S
H2031 C2044 0.930 . S
H2032 C2048 0.959 . S
H2033 C2048 0.959 . S
H2034 C2048 0.961 . S
H2035 C2049 0.960 . S
H2036 C2049 0.961 . S
H2037 C2049 0.959 . S
H2038 C2052 0.929 . S
H2039 C2053 0.931 . S
H2040 C2055 0.930 . S
C2041 H2029 0.930 . S
C2041 C2042 1.399 . S
C2041 C2046 1.399 . S
C2042 C2041 1.399 . S
C2042 C2043 1.376 . S
C2043 H2030 0.930 . S
C2043 C2042 1.376 . S
C2043 C2044 1.388 . S
C2044 H2031 0.930 . S
C2044 C2043 1.388 . S
C2044 C2045 1.390 . S
C2045 C2044 1.390 . S
C2045 C2046 1.394 . S
C2045 C2051 1.465 . S
C2046 C2041 1.399 . S
C2046 C2045 1.394 . S
C2046 C2047 1.516 . S
C2047 C2046 1.516 . S
C2047 C2048 1.502 . S
C2047 C2049 1.561 . S
C2047 C2050 1.526 . S
C2048 H2032 0.959 . S
C2048 H2033 0.959 . S
C2048 H2034 0.961 . S
C2048 C2047 1.502 . S
C2049 H2035 0.960 . S
C2049 H2036 0.961 . S
C2049 H2037 0.959 . S
C2049 C2047 1.561 . S
C2050 C2047 1.526 . S
C2050 C2051 1.396 . S
C2050 C2055 1.390 . S
C2051 C2045 1.465 . S
C2051 C2050 1.396 . S
C2051 C2052 1.399 . S
C2052 H2038 0.929 . S
C2052 C2051 1.399 . S
C2052 C2053 1.385 . S
C2053 H2039 0.931 . S
C2053 C2052 1.385 . S
C2053 C2054 1.389 . S
C2054 C2053 1.389 . S
C2054 C2055 1.387 . S
C2055 H2040 0.930 . S
C2055 C2050 1.390 . S
C2055 C2054 1.387 . S
H2056 C2068 0.930 . S
H2057 C2070 0.930 . S
H2058 C2071 0.930 . S
H2059 C2075 0.959 . S
H2060 C2075 0.959 . S
H2061 C2075 0.961 . S
H2062 C2076 0.960 . S
H2063 C2076 0.961 . S
H2064 C2076 0.959 . S
H2065 C2079 0.929 . S
H2066 C2080 0.931 . S
H2067 C2082 0.930 1_545 S
C2068 H2056 0.930 . S
C2068 C2069 1.399 . S
C2068 C2073 1.399 . S
C2069 C2068 1.399 . S
C2069 C2070 1.376 . S
C2070 H2057 0.930 . S
C2070 C2069 1.376 . S
C2070 C2071 1.388 1_545 S
C2071 H2058 0.930 . S
C2071 C2070 1.388 1_565 S
C2071 C2072 1.390 . S
C2072 C2071 1.390 . S
C2072 C2073 1.394 1_565 S
C2072 C2078 1.465 . S
C2073 C2068 1.399 . S
C2073 C2072 1.394 1_545 S
C2073 C2074 1.516 . S
C2074 C2073 1.516 . S
C2074 C2075 1.502 . S
C2074 C2076 1.561 . S
C2074 C2077 1.512 1_545 S
C2075 H2059 0.959 . S
C2075 H2060 0.959 . S
C2075 H2061 0.961 . S
C2075 C2074 1.502 . S
C2076 H2062 0.960 . S
C2076 H2063 0.961 . S
C2076 H2064 0.959 . S
C2076 C2074 1.561 . S
C2077 C2074 1.512 1_565 S
C2077 C2078 1.405 . S
C2077 C2082 1.395 . S
C2078 C2072 1.465 . S
C2078 C2077 1.405 . S
C2078 C2079 1.399 . S
C2079 H2065 0.929 . S
C2079 C2078 1.399 . S
C2079 C2080 1.385 . S
C2080 H2066 0.931 . S
C2080 C2079 1.385 . S
C2080 C2081 1.389 . S
C2081 C2080 1.389 . S
C2081 C2082 1.387 . S
C2082 H2067 0.930 1_565 S
C2082 C2077 1.395 . S
C2082 C2081 1.387 . S
H2083 C2095 0.930 . S
H2084 C2097 0.930 . S
H2085 C2098 0.930 . S
H2086 C2102 0.959 . S
H2087 C2102 0.959 . S
H2088 C2102 0.961 . S
H2089 C2103 0.960 . S
H2090 C2103 0.961 . S
H2091 C2103 0.959 . S
H2092 C2106 0.929 . S
H2093 C2107 0.931 . S
H2094 C2109 0.930 . S
C2095 H2083 0.930 . S
C2095 C2096 1.399 . S
C2095 C2100 1.399 . S
C2096 C2095 1.399 . S
C2096 C2097 1.376 . S
C2097 H2084 0.930 . S
C2097 C2096 1.376 . S
C2097 C2098 1.388 . S
C2098 H2085 0.930 . S
C2098 C2097 1.388 . S
C2098 C2099 1.390 . S
C2099 C2098 1.390 . S
C2099 C2100 1.394 . S
C2099 C2105 1.465 . S
C2100 C2095 1.399 . S
C2100 C2099 1.394 . S
C2100 C2101 1.516 . S
C2101 C2100 1.516 . S
C2101 C2102 1.502 . S
C2101 C2103 1.561 . S
C2101 C2104 1.526 . S
C2102 H2086 0.959 . S
C2102 H2087 0.959 . S
C2102 H2088 0.961 . S
C2102 C2101 1.502 . S
C2103 H2089 0.960 . S
C2103 H2090 0.961 . S
C2103 H2091 0.959 . S
C2103 C2101 1.561 . S
C2104 C2101 1.526 . S
C2104 C2105 1.396 . S
C2104 C2109 1.390 . S
C2105 C2099 1.465 . S
C2105 C2104 1.396 . S
C2105 C2106 1.399 . S
C2106 H2092 0.929 . S
C2106 C2105 1.399 . S
C2106 C2107 1.385 . S
C2107 H2093 0.931 . S
C2107 C2106 1.385 . S
C2107 C2108 1.389 . S
C2108 C2107 1.389 . S
C2108 C2109 1.387 . S
C2109 H2094 0.930 . S
C2109 C2104 1.390 . S
C2109 C2108 1.387 . S
H2110 C2122 0.931 1_565 S
H2111 C2124 0.930 . S
H2112 C2125 0.930 . S
H2113 C2129 0.959 . S
H2114 C2129 0.959 . S
H2115 C2129 0.961 . S
H2116 C2130 0.960 . S
H2117 C2130 0.961 . S
H2118 C2130 0.959 . S
H2119 C2133 0.929 . S
H2120 C2134 0.931 . S
H2121 C2136 0.930 . S
C2122 H2110 0.931 1_545 S
C2122 C2123 1.399 . S
C2122 C2127 1.405 . S
C2123 C2122 1.399 . S
C2123 C2124 1.376 . S
C2124 H2111 0.930 . S
C2124 C2123 1.376 . S
C2124 C2125 1.388 . S
C2125 H2112 0.930 . S
C2125 C2124 1.388 . S
C2125 C2126 1.390 . S
C2126 C2125 1.390 . S
C2126 C2127 1.404 . S
C2126 C2132 1.465 1_556 S
C2127 C2122 1.405 . S
C2127 C2126 1.404 . S
C2127 C2128 1.501 1_545 S
C2128 C2127 1.501 1_565 S
C2128 C2129 1.502 . S
C2128 C2130 1.561 . S
C2128 C2131 1.526 1_556 S
C2129 H2113 0.959 . S
C2129 H2114 0.959 . S
C2129 H2115 0.961 . S
C2129 C2128 1.502 . S
C2130 H2116 0.960 . S
C2130 H2117 0.961 . S
C2130 H2118 0.959 . S
C2130 C2128 1.561 . S
C2131 C2128 1.526 1_554 S
C2131 C2132 1.396 1_565 S
C2131 C2136 1.390 . S
C2132 C2126 1.465 1_554 S
C2132 C2131 1.396 1_545 S
C2132 C2133 1.399 . S
C2133 H2119 0.929 . S
C2133 C2132 1.399 . S
C2133 C2134 1.385 1_545 S
C2134 H2120 0.931 . S
C2134 C2133 1.385 1_565 S
C2134 C2135 1.389 . S
C2135 C2134 1.389 . S
C2135 C2136 1.387 . S
C2136 H2121 0.930 . S
C2136 C2131 1.390 . S
C2136 C2135 1.387 . S
H2137 C2149 0.930 . S
H2138 C2151 0.930 . S
H2139 C2152 0.930 . S
H2140 C2156 0.959 . S
H2141 C2156 0.959 . S
H2142 C2156 0.961 . S
H2143 C2157 0.960 . S
H2144 C2157 0.961 . S
H2145 C2157 0.959 . S
H2146 C2160 0.929 . S
H2147 C2161 0.931 . S
H2148 C2163 0.930 . S
C2149 H2137 0.930 . S
C2149 C2150 1.399 . S
C2149 C2154 1.399 . S
C2150 C2149 1.399 . S
C2150 C2151 1.376 . S
C2151 H2138 0.930 . S
C2151 C2150 1.376 . S
C2151 C2152 1.388 . S
C2152 H2139 0.930 . S
C2152 C2151 1.388 . S
C2152 C2153 1.390 . S
C2153 C2152 1.390 . S
C2153 C2154 1.394 . S
C2153 C2159 1.465 . S
C2154 C2149 1.399 . S
C2154 C2153 1.394 . S
C2154 C2155 1.516 . S
C2155 C2154 1.516 . S
C2155 C2156 1.502 . S
C2155 C2157 1.561 . S
C2155 C2158 1.526 . S
C2156 H2140 0.959 . S
C2156 H2141 0.959 . S
C2156 H2142 0.961 . S
C2156 C2155 1.502 . S
C2157 H2143 0.960 . S
C2157 H2144 0.961 . S
C2157 H2145 0.959 . S
C2157 C2155 1.561 . S
C2158 C2155 1.526 . S
C2158 C2159 1.396 . S
C2158 C2163 1.390 . S
C2159 C2153 1.465 . S
C2159 C2158 1.396 . S
C2159 C2160 1.399 . S
C2160 H2146 0.929 . S
C2160 C2159 1.399 . S
C2160 C2161 1.385 . S
C2161 H2147 0.931 . S
C2161 C2160 1.385 . S
C2161 C2162 1.389 . S
C2162 C2161 1.389 . S
C2162 C2163 1.387 . S
C2163 H2148 0.930 . S
C2163 C2158 1.390 . S
C2163 C2162 1.387 . S
H2164 C2176 0.930 . S
H2165 C2178 0.921 1_565 S
H2166 C2179 0.930 . S
H2167 C2183 0.959 . S
H2168 C2183 0.959 . S
H2169 C2183 0.961 . S
H2170 C2184 0.960 . S
H2171 C2184 0.961 . S
H2172 C2184 0.959 . S
H2173 C2187 0.929 . S
H2174 C2188 0.931 . S
H2175 C2190 0.930 1_545 S
C2176 H2164 0.930 . S
C2176 C2177 1.399 . S
C2176 C2181 1.399 . S
C2177 C2176 1.399 . S
C2177 C2178 1.376 . S
C2178 H2165 0.921 1_545 S
C2178 C2177 1.376 . S
C2178 C2179 1.388 1_545 S
C2179 H2166 0.930 . S
C2179 C2178 1.388 1_565 S
C2179 C2180 1.390 . S
C2180 C2179 1.390 . S
C2180 C2181 1.394 1_565 S
C2180 C2186 1.465 . S
C2181 C2176 1.399 . S
C2181 C2180 1.394 1_545 S
C2181 C2182 1.516 . S
C2182 C2181 1.516 . S
C2182 C2183 1.502 . S
C2182 C2184 1.561 . S
C2182 C2185 1.526 1_545 S
C2183 H2167 0.959 . S
C2183 H2168 0.959 . S
C2183 H2169 0.961 . S
C2183 C2182 1.502 . S
C2184 H2170 0.960 . S
C2184 H2171 0.961 . S
C2184 H2172 0.959 . S
C2184 C2182 1.561 . S
C2185 C2182 1.526 1_565 S
C2185 C2186 1.396 . S
C2185 C2190 1.390 . S
C2186 C2180 1.465 . S
C2186 C2185 1.396 . S
C2186 C2187 1.399 . S
C2187 H2173 0.929 . S
C2187 C2186 1.399 . S
C2187 C2188 1.385 . S
C2188 H2174 0.931 . S
C2188 C2187 1.385 . S
C2188 C2189 1.389 . S
C2189 C2188 1.389 . S
C2189 C2190 1.387 . S
C2190 H2175 0.930 1_565 S
C2190 C2185 1.390 . S
C2190 C2189 1.387 . S
H2191 C2203 0.930 . S
H2192 C2205 0.930 . S
H2193 C2206 0.930 . S
H2194 C2210 0.959 . S
H2195 C2210 0.959 . S
H2196 C2210 0.961 . S
H2197 C2211 0.960 . S
H2198 C2211 0.961 . S
H2199 C2211 0.959 . S
H2200 C2214 0.929 . S
H2201 C2215 0.931 . S
H2202 C2217 0.930 . S
C2203 H2191 0.930 . S
C2203 C2204 1.399 . S
C2203 C2208 1.399 . S
C2204 C2203 1.399 . S
C2204 C2205 1.376 . S
C2205 H2192 0.930 . S
C2205 C2204 1.376 . S
C2205 C2206 1.388 . S
C2206 H2193 0.930 . S
C2206 C2205 1.388 . S
C2206 C2207 1.390 . S
C2207 C2206 1.390 . S
C2207 C2208 1.394 . S
C2207 C2213 1.465 . S
C2208 C2203 1.399 . S
C2208 C2207 1.394 . S
C2208 C2209 1.516 . S
C2209 C2208 1.516 . S
C2209 C2210 1.502 . S
C2209 C2211 1.561 . S
C2209 C2212 1.526 . S
C2210 H2194 0.959 . S
C2210 H2195 0.959 . S
C2210 H2196 0.961 . S
C2210 C2209 1.502 . S
C2211 H2197 0.960 . S
C2211 H2198 0.961 . S
C2211 H2199 0.959 . S
C2211 C2209 1.561 . S
C2212 C2209 1.526 . S
C2212 C2213 1.396 . S
C2212 C2217 1.390 . S
C2213 C2207 1.465 . S
C2213 C2212 1.396 . S
C2213 C2214 1.399 . S
C2214 H2200 0.929 . S
C2214 C2213 1.399 . S
C2214 C2215 1.385 . S
C2215 H2201 0.931 . S
C2215 C2214 1.385 . S
C2215 C2216 1.389 . S
C2216 C2215 1.389 . S
C2216 C2217 1.387 . S
C2217 H2202 0.930 . S
C2217 C2212 1.390 . S
C2217 C2216 1.387 . S
H2218 C2230 0.930 . S
H2219 C2232 0.913 1_545 S
H2220 C2233 0.930 . S
H2221 C2237 0.959 . S
H2222 C2237 0.959 . S
H2223 C2237 0.961 . S
H2224 C2238 0.960 . S
H2225 C2238 0.961 . S
H2226 C2238 0.959 . S
H2227 C2241 0.929 1_554 S
H2228 C2242 0.931 . S
H2229 C2244 0.930 1_565 S
C2230 H2218 0.930 . S
C2230 C2231 1.399 . S
C2230 C2235 1.399 . S
C2231 C2230 1.399 . S
C2231 C2232 1.376 . S
C2232 H2219 0.913 1_565 S
C2232 C2231 1.376 . S
C2232 C2233 1.388 1_565 S
C2233 H2220 0.930 . S
C2233 C2232 1.388 1_545 S
C2233 C2234 1.390 . S
C2234 C2233 1.390 . S
C2234 C2235 1.394 1_545 S
C2234 C2240 1.465 1_554 S
C2235 C2230 1.399 . S
C2235 C2234 1.394 1_565 S
C2235 C2236 1.516 1_554 S
C2236 C2235 1.516 1_556 S
C2236 C2237 1.502 . S
C2236 C2238 1.561 . S
C2236 C2239 1.522 1_565 S
C2237 H2221 0.959 . S
C2237 H2222 0.959 . S
C2237 H2223 0.961 . S
C2237 C2236 1.502 . S
C2238 H2224 0.960 . S
C2238 H2225 0.961 . S
C2238 H2226 0.959 . S
C2238 C2236 1.561 . S
C2239 C2236 1.522 1_545 S
C2239 C2240 1.399 . S
C2239 C2244 1.391 . S
C2240 C2234 1.465 1_556 S
C2240 C2239 1.399 . S
C2240 C2241 1.399 . S
C2241 H2227 0.929 1_556 S
C2241 C2240 1.399 . S
C2241 C2242 1.385 . S
C2242 H2228 0.931 . S
C2242 C2241 1.385 . S
C2242 C2243 1.389 . S
C2243 C2242 1.389 . S
C2243 C2244 1.387 . S
C2244 H2229 0.930 1_545 S
C2244 C2239 1.391 . S
C2244 C2243 1.387 . S
H2245 C2257 0.930 . S
H2246 C2259 0.930 . S
H2247 C2260 0.930 . S
H2248 C2264 0.959 . S
H2249 C2264 0.959 . S
H2250 C2264 0.961 . S
H2251 C2265 0.960 . S
H2252 C2265 0.961 . S
H2253 C2265 0.959 . S
H2254 C2268 0.929 . S
H2255 C2269 0.931 . S
H2256 C2271 0.930 . S
C2257 H2245 0.930 . S
C2257 C2258 1.399 . S
C2257 C2262 1.399 . S
C2258 C2257 1.399 . S
C2258 C2259 1.376 . S
C2259 H2246 0.930 . S
C2259 C2258 1.376 . S
C2259 C2260 1.388 . S
C2260 H2247 0.930 . S
C2260 C2259 1.388 . S
C2260 C2261 1.390 . S
C2261 C2260 1.390 . S
C2261 C2262 1.394 . S
C2261 C2267 1.465 . S
C2262 C2257 1.399 . S
C2262 C2261 1.394 . S
C2262 C2263 1.516 . S
C2263 C2262 1.516 . S
C2263 C2264 1.502 . S
C2263 C2265 1.561 . S
C2263 C2266 1.526 . S
C2264 H2248 0.959 . S
C2264 H2249 0.959 . S
C2264 H2250 0.961 . S
C2264 C2263 1.502 . S
C2265 H2251 0.960 . S
C2265 H2252 0.961 . S
C2265 H2253 0.959 . S
C2265 C2263 1.561 . S
C2266 C2263 1.526 . S
C2266 C2267 1.396 . S
C2266 C2271 1.390 . S
C2267 C2261 1.465 . S
C2267 C2266 1.396 . S
C2267 C2268 1.399 . S
C2268 H2254 0.929 . S
C2268 C2267 1.399 . S
C2268 C2269 1.385 . S
C2269 H2255 0.931 . S
C2269 C2268 1.385 . S
C2269 C2270 1.389 . S
C2270 C2269 1.389 . S
C2270 C2271 1.387 . S
C2271 H2256 0.930 . S
C2271 C2266 1.390 . S
C2271 C2270 1.387 . S
C1421 C1017 1.480 . S
C1433 C20 1.475 . S
C1448 C1369 1.457 . S
C1460 C108 1.459 . S
C1475 C225 1.459 . S
C1487 C812 1.457 . S
C1502 C1164 1.487 . S
C1514 C321 1.487 . S
C1529 C409 1.481 . S
C1541 C1173 1.485 . S
C1556 C469 1.477 . S
C1568 C1025 1.470 . S
C1583 C548 1.487 . S
C1595 C1377 1.484 . S
C1610 C673 1.466 . S
C1622 C821 1.472 . S
C1637 C284 1.487 . S
C1649 C761 1.484 . S
C1664 C900 1.474 . S
C1676 C145 1.469 . S
C1691 C1076 1.472 . S
C1703 C489 1.479 . S
C1718 C1281 1.471 . S
C1730 C636 1.466 . S
C1745 C372 1.475 . S
C1757 C753 1.480 . S
C1772 C909 1.487 . S
C1784 C585 1.486 . S
C1799 C1289 1.457 . S
C1811 C205 1.459 . S
C1826 C57 1.468 . S
C1838 C1085 1.462 . S
C1853 C49 0.983 . S
C1865 C381 0.952 . S
C1880 C137 0.956 . S
C1892 C497 0.984 . S
C1907 C196 0.915 . S
C1919 C577 0.932 . S
C1934 C645 0.937 . S
C1946 C293 0.915 . S
C1961 C733 0.960 . S
C1973 C1105 0.975 . S
C1988 C1193 0.984 . S
C2000 C849 0.974 . S
C2015 C929 0.958 . S
C2027 C1252 0.972 . S
C2042 C1340 0.922 . S
C2054 C997 0.932 . S
C2069 C665 0.985 . S
C2081 C117 0.956 . S
C2096 C233 0.916 . S
C2108 C401 0.945 . S
C2123 C313 0.915 . S
C2135 C460 0.942 . S
C2150 C29 0.957 . S
C2162 C557 0.985 . S
C2177 C841 0.964 . S
C2189 C1349 0.948 . S
C2204 C1113 0.922 . S
C2216 C937 0.932 . S
C2231 C988 0.948 . S
C2243 C1201 0.934 . S
C2258 C1261 0.984 . S
C2270 C724 0.975 . S
