# Generated by pormake.
# Topology wjh, (4)-cn, num edge types: 1
# Building blocks:
#     Node 0, Type 0, BuildingBlock: QUQFOY_clean_sbu_3, # of connection points: 4
#     Node 1, Type 0, BuildingBlock: QUQFOY_clean_sbu_3, # of connection points: 4
#     Node 2, Type 0, BuildingBlock: QUQFOY_clean_sbu_3, # of connection points: 4
#     Node 3, Type 0, BuildingBlock: QUQFOY_clean_sbu_3, # of connection points: 4
#     Node 4, Type 0, BuildingBlock: QUQFOY_clean_sbu_3, # of connection points: 4
#     Node 5, Type 0, BuildingBlock: QUQFOY_clean_sbu_3, # of connection points: 4
#     Node 6, Type 0, BuildingBlock: QUQFOY_clean_sbu_3, # of connection points: 4
#     Node 7, Type 0, BuildingBlock: QUQFOY_clean_sbu_3, # of connection points: 4
#     Node 8, Type 0, BuildingBlock: QUQFOY_clean_sbu_3, # of connection points: 4
#     Node 9, Type 0, BuildingBlock: QUQFOY_clean_sbu_3, # of connection points: 4
#     Node 10, Type 0, BuildingBlock: QUQFOY_clean_sbu_3, # of connection points: 4
#     Node 11, Type 0, BuildingBlock: QUQFOY_clean_sbu_3, # of connection points: 4
#     Edge 12, Type (0, 0), BuildingBlock: OJICUG_clean_linker_0, # of connection points: 2
#     Edge 13, Type (0, 0), BuildingBlock: OJICUG_clean_linker_0, # of connection points: 2
#     Edge 14, Type (0, 0), BuildingBlock: OJICUG_clean_linker_0, # of connection points: 2
#     Edge 15, Type (0, 0), BuildingBlock: OJICUG_clean_linker_0, # of connection points: 2
#     Edge 16, Type (0, 0), BuildingBlock: OJICUG_clean_linker_0, # of connection points: 2
#     Edge 17, Type (0, 0), BuildingBlock: OJICUG_clean_linker_0, # of connection points: 2
#     Edge 18, Type (0, 0), BuildingBlock: OJICUG_clean_linker_0, # of connection points: 2
#     Edge 19, Type (0, 0), BuildingBlock: OJICUG_clean_linker_0, # of connection points: 2
#     Edge 20, Type (0, 0), BuildingBlock: OJICUG_clean_linker_0, # of connection points: 2
#     Edge 21, Type (0, 0), BuildingBlock: OJICUG_clean_linker_0, # of connection points: 2
#     Edge 22, Type (0, 0), BuildingBlock: OJICUG_clean_linker_0, # of connection points: 2
#     Edge 23, Type (0, 0), BuildingBlock: OJICUG_clean_linker_0, # of connection points: 2
#     Edge 24, Type (0, 0), BuildingBlock: OJICUG_clean_linker_0, # of connection points: 2
#     Edge 25, Type (0, 0), BuildingBlock: OJICUG_clean_linker_0, # of connection points: 2
#     Edge 26, Type (0, 0), BuildingBlock: OJICUG_clean_linker_0, # of connection points: 2
#     Edge 27, Type (0, 0), BuildingBlock: OJICUG_clean_linker_0, # of connection points: 2
#     Edge 28, Type (0, 0), BuildingBlock: OJICUG_clean_linker_0, # of connection points: 2
#     Edge 29, Type (0, 0), BuildingBlock: OJICUG_clean_linker_0, # of connection points: 2
#     Edge 30, Type (0, 0), BuildingBlock: OJICUG_clean_linker_0, # of connection points: 2
#     Edge 31, Type (0, 0), BuildingBlock: OJICUG_clean_linker_0, # of connection points: 2
#     Edge 32, Type (0, 0), BuildingBlock: OJICUG_clean_linker_0, # of connection points: 2
#     Edge 33, Type (0, 0), BuildingBlock: OJICUG_clean_linker_0, # of connection points: 2
#     Edge 34, Type (0, 0), BuildingBlock: OJICUG_clean_linker_0, # of connection points: 2
#     Edge 35, Type (0, 0), BuildingBlock: OJICUG_clean_linker_0, # of connection points: 2
# Relax obj value: 0.073
# Max RMSD: 0.098
# Mean RMSD: 0.098
data_MOF--net-wjh--node1-QUQFOY_clean_sbu_3--edge1-OJICUG_clean_linker_0
_symmetry_space_group_name_H-M    P1
_symmetry_Int_Tables_number       1
_symmetry_cell_setting            triclinic
loop_
_symmetry_equiv_pos_as_xyz
'x, y, z'
_cell_length_a     48.980124
_cell_length_b     48.105764
_cell_length_c     20.672167
_cell_angle_alpha  89.907949
_cell_angle_beta   90.002823
_cell_angle_gamma 120.64817
loop_
_atom_site_label
_atom_site_type_symbol
_atom_site_fract_x
_atom_site_fract_y
_atom_site_fract_z
_atom_type_partial_charge
C0 C 0.53659 0.14699 0.91119 0.0
O1 O 0.55292 0.1402 0.94855 0.0
Cd2 Cd 0.53955 0.12148 0.05609 0.0
O3 O 0.51173 0.1465 0.93206 0.0
Cd4 Cd 0.484 0.1372 0.04028 0.0
C5 C 0.46051 0.05901 0.03539 0.0
O6 O 0.52938 0.15763 0.11196 0.0
O7 O 0.48451 0.12113 0.15162 0.0
O8 O 0.48974 0.18954 0.04934 0.0
C9 C 0.51332 0.14241 0.16113 0.0
O10 O 0.4898 0.07025 0.04787 0.0
C11 C 0.46129 0.18024 0.0646 0.0
O12 O 0.44995 0.07805 0.0253 0.0
O13 O 0.44132 0.15012 0.0605 0.0
C14 C 0.37741 0.55263 0.08268 0.0
O15 O 0.40235 0.56538 0.11707 0.0
Cd16 Cd 0.40681 0.54645 0.21982 0.0
O17 O 0.35099 0.52994 0.10513 0.0
Cd18 Cd 0.32828 0.50138 0.21141 0.0
C19 C 0.36851 0.46323 0.18637 0.0
O20 O 0.36538 0.54485 0.27865 0.0
O21 O 0.33906 0.49876 0.32664 0.0
O22 O 0.29066 0.51944 0.2105 0.0
C23 C 0.35897 0.52876 0.33044 0.0
O24 O 0.3926 0.49103 0.19726 0.0
C25 C 0.26658 0.49299 0.22799 0.0
O26 O 0.34039 0.45851 0.18657 0.0
O27 O 0.27006 0.46856 0.23165 0.0
C28 C 0.81498 0.38931 0.24107 0.0
O29 O 0.82101 0.41247 0.279 0.0
Cd30 Cd 0.83184 0.41511 0.39137 0.0
O31 O 0.813 0.36333 0.26244 0.0
Cd32 Cd 0.81627 0.34156 0.37207 0.0
C33 C 0.89309 0.39812 0.38905 0.0
O34 O 0.79118 0.36603 0.43318 0.0
O35 O 0.81654 0.34868 0.48876 0.0
O36 O 0.76964 0.28877 0.34713 0.0
C37 C 0.79861 0.36045 0.48821 0.0
O38 O 0.88191 0.41639 0.40097 0.0
C39 C 0.77831 0.27277 0.38165 0.0
O40 O 0.87501 0.36904 0.37034 0.0
O41 O 0.8062 0.28815 0.40462 0.0
C42 C 0.38972 0.83267 0.41069 0.0
O43 O 0.37213 0.83776 0.44789 0.0
Cd44 Cd 0.38567 0.85609 0.55558 0.0
O45 O 0.41479 0.83391 0.43229 0.0
Cd46 Cd 0.44183 0.8405 0.53952 0.0
C47 C 0.46495 0.91832 0.53158 0.0
O48 O 0.39611 0.81972 0.61009 0.0
O49 O 0.44121 0.85397 0.65245 0.0
O50 O 0.43382 0.7875 0.52674 0.0
C51 C 0.41196 0.83374 0.66022 0.0
O52 O 0.43565 0.90695 0.54416 0.0
C53 C 0.46002 0.79302 0.55026 0.0
O54 O 0.47589 0.89949 0.52321 0.0
O55 O 0.48048 0.82241 0.56234 0.0
C56 C 0.53705 0.42498 0.58203 0.0
O57 O 0.51321 0.41286 0.61958 0.0
Cd58 Cd 0.51332 0.42426 0.73142 0.0
O59 O 0.56489 0.4447 0.60339 0.0
Cd60 Cd 0.58901 0.46733 0.71242 0.0
C61 C 0.55069 0.50805 0.72749 0.0
O62 O 0.55469 0.4194 0.77556 0.0
O63 O 0.58069 0.46358 0.82954 0.0
O64 O 0.62841 0.45191 0.70048 0.0
C65 C 0.56289 0.43312 0.83 0.0
O66 O 0.52707 0.48024 0.74059 0.0
C67 C 0.65166 0.47788 0.72218 0.0
O68 O 0.57699 0.5115 0.7082 0.0
O69 O 0.64704 0.50129 0.73138 0.0
C70 C 0.10792 0.58059 0.74168 0.0
O71 O 0.09643 0.55465 0.77436 0.0
Cd72 Cd 0.07057 0.54516 0.8753 0.0
O73 O 0.10909 0.60583 0.76496 0.0
Cd74 Cd 0.09812 0.62416 0.87124 0.0
C75 C 0.02038 0.57561 0.84165 0.0
O76 O 0.10705 0.58871 0.93758 0.0
O77 O 0.0832 0.61027 -0.01473 0.0
O78 O 0.15256 0.66565 0.88217 0.0
C79 C 0.09581 0.59296 -0.01093 0.0
O80 O 0.02659 0.55325 0.85146 0.0
C81 C 0.14805 0.68858 0.89681 0.0
O82 O 0.04196 0.60541 0.84436 0.0
O83 O 0.11976 0.683 0.89253 0.0
C84 C 0.81656 0.41617 -0.03199 0.0
O85 O 0.82818 0.40394 0.93057 0.0
Cd86 Cd 0.83917 0.4152 0.81846 0.0
O87 O 0.80894 0.43626 0.94647 0.0
Cd88 Cd 0.80873 0.45997 0.83739 0.0
C89 C 0.88794 0.49869 0.82087 0.0
O90 O 0.79299 0.41124 0.77543 0.0
O91 O 0.81143 0.45502 0.71981 0.0
O92 O 0.75478 0.44767 0.8506 0.0
C93 C 0.798 0.4245 0.72048 0.0
O94 O 0.88282 0.47053 0.80811 0.0
C95 C 0.759 0.47422 0.82859 0.0
O96 O 0.86558 0.50291 0.84019 0.0
O97 O 0.78754 0.49644 0.81855 0.0
C98 C 0.36853 0.83193 0.13644 0.0
O99 O 0.39007 0.8345 0.09854 0.0
Cd100 Cd 0.39509 0.85332 -0.00895 0.0
O101 O 0.34601 0.83558 0.11535 0.0
Cd102 Cd 0.3255 0.84346 0.00945 0.0
C103 C 0.38405 0.91944 0.01847 0.0
O104 O 0.34702 0.81982 0.9374 0.0
O105 O 0.3392 0.8563 0.89597 0.0
O106 O 0.27862 0.79239 0.02971 0.0
C107 C 0.34631 0.83467 0.88755 0.0
O108 O 0.39992 0.90585 0.00511 0.0
C109 C 0.25881 0.7985 0.00371 0.0
O110 O 0.35401 0.90266 0.02669 0.0
O111 O 0.26933 0.82762 -0.01382 0.0
C112 C 0.50966 0.39917 0.30987 0.0
O113 O 0.52408 0.42313 0.27187 0.0
Cd114 Cd 0.51305 0.42362 0.16004 0.0
O115 O 0.48778 0.37173 0.28894 0.0
Cd116 Cd 0.4633 0.34694 0.18137 0.0
C117 C 0.43139 0.39366 0.16549 0.0
O118 O 0.51154 0.37764 0.11865 0.0
O119 O 0.46821 0.35361 0.06388 0.0
O120 O 0.47177 0.30311 0.20769 0.0
C121 C 0.49824 0.36986 0.06395 0.0
O122 O 0.4599 0.41533 0.15252 0.0
C123 C 0.44742 0.28104 0.17907 0.0
O124 O 0.42455 0.36561 0.18484 0.0
O125 O 0.42757 0.28858 0.15852 0.0
C126 C 0.11196 0.56045 0.47066 0.0
O127 O 0.10125 0.5746 0.43607 0.0
Cd128 Cd 0.07673 0.55623 0.33414 0.0
O129 O 0.11365 0.53652 0.44857 0.0
Cd130 Cd 0.10565 0.50662 0.34356 0.0
C131 C 0.0277 0.47354 0.37119 0.0
O132 O 0.1137 0.55011 0.2745 0.0
O133 O 0.0918 0.50338 0.22874 0.0
O134 O 0.16078 0.52268 0.34309 0.0
C135 C 0.10284 0.53351 0.22365 0.0
O136 O 0.03358 0.50212 0.35975 0.0
C137 C 0.15729 0.49562 0.32701 0.0
O138 O 0.04959 0.46653 0.36978 0.0
O139 O 0.12895 0.47176 0.32493 0.0
C140 C 0.56061 0.14798 0.6381 0.0
O141 O 0.53881 0.14468 0.60016 0.0
Cd142 Cd 0.53274 0.12636 0.49242 0.0
O143 O 0.58316 0.14418 0.61749 0.0
Cd144 Cd 0.60086 0.13322 0.50997 0.0
C145 C 0.54023 0.05804 0.51664 0.0
O146 O 0.58101 0.15935 0.43858 0.0
O147 O 0.58376 0.1195 0.39902 0.0
O148 O 0.65481 0.17906 0.52503 0.0
C149 C 0.57928 0.14286 0.3895 0.0
O150 O 0.52501 0.07223 0.50228 0.0
C151 C 0.66825 0.16724 0.49186 0.0
O152 O 0.57002 0.07434 0.52783 0.0
O153 O 0.65096 0.1383 0.47289 0.0
C154 C 0.40399 0.57476 0.81232 0.0
O155 O 0.39155 0.54878 0.77978 0.0
Cd156 Cd 0.40924 0.54231 0.67767 0.0
O157 O 0.42643 0.60122 0.78868 0.0
Cd158 Cd 0.45452 0.62152 0.68147 0.0
C159 C 0.49096 0.57958 0.70708 0.0
O160 O 0.41043 0.5838 0.61657 0.0
O161 O 0.45533 0.60858 0.56668 0.0
O162 O 0.43803 0.66056 0.67679 0.0
C163 C 0.42557 0.58953 0.5641 0.0
O164 O 0.46338 0.55529 0.69746 0.0
C165 C 0.46426 0.68448 0.65865 0.0
O166 O 0.49607 0.60838 0.70645 0.0
O167 O 0.48809 0.6806 0.65795 0.0
C168 C 0.51981 0.11424 0.25489 0.0
C169 C 0.52929 0.14309 0.22134 0.0
H170 H 0.52912 0.09165 0.33415 0.0
C171 C 0.55513 0.17216 0.24379 0.0
H172 H 0.50008 0.09152 0.238 0.0
C173 C 0.57126 0.17234 0.29963 0.0
C174 C 0.56235 0.14328 0.3318 0.0
H175 H 0.56272 0.19464 0.21828 0.0
H176 H 0.59106 0.19493 0.31681 0.0
C177 C 0.53654 0.11426 0.30928 0.0
C178 C 0.36376 0.5294 0.45022 0.0
C179 C 0.37655 0.54357 0.3901 0.0
H180 H 0.36934 0.53326 0.55299 0.0
C181 C 0.40614 0.57233 0.38732 0.0
H182 H 0.34097 0.50723 0.45342 0.0
C183 C 0.42263 0.58687 0.44402 0.0
C184 C 0.40939 0.5732 0.50421 0.0
H185 H 0.41657 0.58358 0.34133 0.0
H186 H 0.44528 0.60919 0.44085 0.0
C187 C 0.37992 0.54431 0.50697 0.0
C188 C 0.79441 0.37709 0.6643 0.0
C189 C 0.79445 0.40626 0.66113 0.0
H190 H 0.79592 0.33975 0.61114 0.0
C191 C 0.79286 0.41867 0.6007 0.0
H192 H 0.79562 0.36702 0.71039 0.0
C193 C 0.7923 0.40267 0.54403 0.0
C194 C 0.79411 0.3745 0.54722 0.0
H195 H 0.79265 0.44104 0.59723 0.0
H196 H 0.79204 0.41319 0.49782 0.0
C197 C 0.79462 0.36152 0.60769 0.0
C198 C 0.37119 0.80451 0.74482 0.0
C199 C 0.39567 0.83366 0.71931 0.0
H200 H 0.33653 0.78205 0.82033 0.0
C201 C 0.40345 0.86305 0.74862 0.0
H202 H 0.36486 0.78167 0.72232 0.0
C203 C 0.38657 0.86333 0.80252 0.0
C204 C 0.36243 0.83418 0.82868 0.0
H205 H 0.42203 0.88576 0.72898 0.0
H206 H 0.3928 0.88624 0.82451 0.0
C207 C 0.35504 0.80473 0.80024 0.0
C208 C 0.50281 0.37098 0.94411 0.0
C209 C 0.51608 0.38452 0.00431 0.0
H210 H 0.50767 0.37562 0.84127 0.0
C211 C 0.54574 0.41315 0.00693 0.0
H212 H 0.48001 0.34881 0.94102 0.0
C213 C 0.56129 0.42877 0.95001 0.0
C214 C 0.54768 0.4156 0.8898 0.0
H215 H 0.55642 0.4241 0.05288 0.0
H216 H 0.58375 0.45131 0.95308 0.0
C217 C 0.51866 0.38624 0.88721 0.0
C218 C 0.09843 0.57644 0.16606 0.0
C219 C 0.09977 0.54798 0.16379 0.0
H220 H 0.09533 0.61269 0.11177 0.0
C221 C 0.09855 0.53374 0.10398 0.0
H222 H 0.09911 0.5877 0.21185 0.0
C223 C 0.09701 0.54834 0.04694 0.0
C224 C 0.09586 0.57689 0.04919 0.0
H225 H 0.09957 0.51179 0.10124 0.0
H226 H 0.09674 0.53731 0.00109 0.0
C227 C 0.09607 0.59059 0.10908 0.0
C228 C 0.47201 0.24694 0.17514 0.0
C229 C 0.44629 0.25084 0.15923 0.0
H230 H 0.49689 0.2221 0.15634 0.0
C231 C 0.42324 0.22887 0.1156 0.0
H232 H 0.49016 0.26319 0.20864 0.0
C233 C 0.42699 0.20469 0.08589 0.0
C234 C 0.45421 0.20286 0.09836 0.0
H235 H 0.40321 0.23133 0.10211 0.0
H236 H 0.40958 0.18864 0.05103 0.0
C237 C 0.47609 0.22358 0.14456 0.0
C238 C 0.23904 0.5218 0.26299 0.0
C239 C 0.23754 0.49235 0.25075 0.0
H240 H 0.21555 0.54575 0.29809 0.0
C241 C 0.20933 0.46334 0.26549 0.0
H242 H 0.26044 0.54465 0.25303 0.0
C243 C 0.18306 0.46398 0.29126 0.0
C244 C 0.18493 0.49364 0.30404 0.0
H245 H 0.20757 0.44027 0.25712 0.0
H246 H 0.16141 0.44138 0.30124 0.0
C247 C 0.21329 0.52244 0.28972 0.0
C248 C 0.72514 0.21053 0.50311 0.0
C249 C 0.69996 0.18864 0.46397 0.0
H250 H 0.77086 0.25367 0.50655 0.0
C251 C 0.7032 0.19169 0.39632 0.0
H252 H 0.72294 0.20892 0.55532 0.0
C253 C 0.72998 0.21801 0.36839 0.0
C254 C 0.7545 0.24085 0.40767 0.0
H255 H 0.68377 0.1754 0.3652 0.0
H256 H 0.73076 0.22147 0.31648 0.0
C257 C 0.75253 0.23603 0.47508 0.0
C258 C 0.49184 0.77008 0.59962 0.0
C259 C 0.46355 0.76564 0.57217 0.0
H260 H 0.51463 0.74762 0.64846 0.0
C261 C 0.4365 0.73454 0.57255 0.0
H262 H 0.51302 0.79381 0.60045 0.0
C263 C 0.43714 0.70885 0.60172 0.0
C264 C 0.46502 0.71311 0.63016 0.0
H265 H 0.41423 0.73008 0.55222 0.0
H266 H 0.41557 0.68537 0.60149 0.0
C267 C 0.49269 0.7438 0.62759 0.0
C268 C 0.67806 0.44869 0.76161 0.0
C269 C 0.68031 0.47826 0.74644 0.0
H270 H 0.70042 0.42447 0.80151 0.0
C271 C 0.70859 0.50716 0.76107 0.0
H272 H 0.65648 0.42596 0.75212 0.0
C273 C 0.73432 0.50628 0.7891 0.0
C274 C 0.73168 0.47652 0.80486 0.0
H275 H 0.71084 0.53031 0.75065 0.0
H276 H 0.75617 0.52876 0.79848 0.0
C277 C 0.70317 0.44785 0.79107 0.0
C278 C 0.17987 0.74904 0.91612 0.0
C279 C 0.1738 0.71766 0.92851 0.0
H280 H 0.21208 0.79999 0.93039 0.0
C281 C 0.19321 0.7134 -0.02762 0.0
H282 H 0.16496 0.75285 0.88296 0.0
C283 C 0.21915 0.73983 0.00084 0.0
C284 C 0.22699 0.77147 -0.01492 0.0
H285 H 0.18862 0.68941 -0.0159 0.0
H286 H 0.23403 0.73534 0.03277 0.0
C287 C 0.20661 0.7759 0.94368 0.0
C288 C 0.53164 0.15554 0.73007 0.0
C289 C 0.55752 0.15302 0.70786 0.0
H290 H 0.50475 0.15581 0.81155 0.0
C291 C 0.57838 0.15233 0.75341 0.0
H292 H 0.51518 0.15642 0.69632 0.0
C293 C 0.5724 0.1521 0.81957 0.0
C294 C 0.54536 0.15249 0.84172 0.0
H295 H 0.59861 0.15059 0.73809 0.0
H296 H 0.58837 0.15031 0.85327 0.0
C297 C 0.52562 0.15524 0.79625 0.0
C298 C 0.36549 0.54598 0.90204 0.0
C299 C 0.394 0.57292 0.88041 0.0
H300 H 0.33748 0.5187 -0.01672 0.0
C301 C 0.41438 0.59574 0.92577 0.0
H302 H 0.34907 0.52816 0.86808 0.0
C303 C 0.4078 0.59018 -0.00815 0.0
C304 C 0.38055 0.5619 0.01368 0.0
H305 H 0.43642 0.6168 0.91061 0.0
H306 H 0.42491 0.60726 0.02593 0.0
C307 C 0.35873 0.54061 -0.03194 0.0
C308 C 0.80835 0.42601 0.08367 0.0
C309 C 0.81302 0.40745 0.03759 0.0
H310 H 0.80524 0.43475 0.18399 0.0
C311 C 0.81587 0.38119 0.05886 0.0
H312 H 0.80598 0.4463 0.06897 0.0
C313 C 0.81517 0.37434 0.12484 0.0
C314 C 0.81198 0.39383 0.17102 0.0
H315 H 0.81922 0.36619 0.02455 0.0
H316 H 0.81827 0.35451 0.13964 0.0
C317 C 0.808 0.41938 0.14964 0.0
C318 C 0.40278 0.82601 0.29656 0.0
C319 C 0.38207 0.8279 0.34082 0.0
H320 H 0.4146 0.82547 0.19729 0.0
C321 C 0.35501 0.82773 0.31721 0.0
H322 H 0.42372 0.8259 0.31308 0.0
C323 C 0.34977 0.82755 0.25077 0.0
C324 C 0.37144 0.82749 0.20646 0.0
H325 H 0.33836 0.82889 0.34996 0.0
H326 H 0.32935 0.82865 0.23427 0.0
C327 C 0.39752 0.82578 0.2301 0.0
C328 C 0.55365 0.43703 0.46579 0.0
C329 C 0.53169 0.41673 0.51246 0.0
H330 H 0.56378 0.44747 0.36506 0.0
C331 C 0.50338 0.38925 0.49192 0.0
H332 H 0.57564 0.45835 0.48005 0.0
C333 C 0.4967 0.38278 0.42609 0.0
C334 C 0.51797 0.40393 0.37941 0.0
H335 H 0.48606 0.37297 0.52679 0.0
H336 H 0.47439 0.36186 0.41187 0.0
C337 C 0.54675 0.43084 0.39993 0.0
C338 C 0.11999 0.54846 0.58456 0.0
C339 C 0.11851 0.56955 0.53967 0.0
H340 H 0.11815 0.53567 0.68414 0.0
C341 C 0.119 0.59739 0.56244 0.0
H342 H 0.11988 0.52696 0.56867 0.0
C343 C 0.11809 0.60247 0.62873 0.0
C344 C 0.11645 0.57969 0.67341 0.0
H345 H 0.11832 0.61439 0.52902 0.0
H346 H 0.11651 0.62306 0.64459 0.0
C347 C 0.11886 0.55343 0.65079 0.0
C348 C 0.45332 0.00403 0.03867 0.0
C349 C 0.43954 0.02333 0.03233 0.0
H350 H 0.44682 0.95691 0.04011 0.0
C351 C 0.40643 0.00802 0.02368 0.0
H352 H 0.47863 0.01468 0.04575 0.0
C353 C 0.38774 0.97406 0.02069 0.0
C354 C 0.40201 0.95509 0.0257 0.0
H355 H 0.39505 0.0222 0.01899 0.0
H356 H 0.3624 0.96276 0.01314 0.0
C357 C 0.43494 0.97061 0.03533 0.0
C358 C 0.41064 0.42527 0.11263 0.0
C359 C 0.40713 0.4031 0.16089 0.0
H360 H 0.40001 0.46125 0.08256 0.0
C361 C 0.38464 0.39557 0.21024 0.0
H362 H 0.42766 0.43134 0.07384 0.0
C363 C 0.36862 0.41279 0.21505 0.0
C364 C 0.37483 0.43732 0.17019 0.0
H365 H 0.38173 0.37874 0.24826 0.0
H366 H 0.35379 0.40907 0.25686 0.0
C367 C 0.39469 0.44225 0.11733 0.0
C368 C -0.02196 0.45839 0.42885 0.0
C369 C -0.00538 0.44923 0.38718 0.0
H370 H 0.93308 0.44893 0.4631 0.0
C371 C -0.02211 0.41993 0.35324 0.0
H372 H -0.00954 0.48079 0.45582 0.0
C373 C 0.94456 0.40156 0.35684 0.0
C374 C 0.92788 0.41246 0.39439 0.0
H375 H -0.00975 0.41257 0.32036 0.0
H376 H 0.93186 0.38021 0.32701 0.0
C377 C 0.94513 0.4402 0.43265 0.0
C378 C 0.47089 0.9725 0.51988 0.0
C379 C 0.48545 0.95392 0.52602 0.0
H380 H 0.47643 0.01913 0.51247 0.0
C381 C 0.51879 0.96987 0.52874 0.0
H382 H 0.44531 0.96119 0.51721 0.0
C383 C 0.53704 0.00384 0.52632 0.0
C384 C 0.52214 0.02222 0.52047 0.0
H385 H 0.53069 0.9562 0.53368 0.0
H386 H 0.56265 0.01564 0.52876 0.0
C387 C 0.48888 0.00598 0.51704 0.0
C388 C 0.52739 0.53655 0.78298 0.0
C389 C 0.54553 0.53562 0.7314 0.0
H390 H 0.49647 0.55274 0.81605 0.0
C391 C 0.55193 0.55627 0.67819 0.0
H392 H 0.52214 0.52082 0.82449 0.0
C393 C 0.53709 0.57462 0.67336 0.0
C394 C 0.51618 0.57266 0.7221 0.0
H395 H 0.56555 0.55562 0.63752 0.0
H396 H 0.53938 0.58761 0.62892 0.0
C397 C 0.51285 0.55494 0.77838 0.0
C398 C -0.03224 0.56943 0.86853 0.0
C399 C -0.01261 0.56527 0.82488 0.0
H400 H 0.91985 0.55136 0.90111 0.0
C401 C -0.0264 0.54371 0.77321 0.0
H402 H -0.02201 0.58555 0.90943 0.0
C403 C 0.94077 0.5242 0.76874 0.0
C404 C 0.92103 0.52578 0.816 0.0
H405 H -0.01169 0.53997 0.7393 0.0
H406 H 0.93092 0.50612 0.73091 0.0
C407 C 0.93458 0.5498 0.86393 0.0
loop_
_geom_bond_atom_site_label_1
_geom_bond_atom_site_label_2
_geom_bond_distance
_geom_bond_site_symmetry_2
_ccdc_geom_bond_type
C0 O1 1.306 . S
C0 O3 1.160 . S
O1 C0 1.306 . S
O1 Cd2 2.228 1_556 S
Cd2 O1 2.228 1_554 S
Cd2 O6 2.273 . S
Cd2 O10 2.277 . S
O3 C0 1.160 . S
O3 Cd4 2.203 1_556 S
Cd4 O3 2.203 1_554 S
Cd4 O6 2.411 . S
Cd4 O7 2.333 . S
Cd4 O8 2.352 . S
Cd4 O12 2.277 . S
Cd4 O13 2.356 . S
C5 O10 1.209 . S
C5 O12 1.226 . S
O6 Cd2 2.273 . S
O6 Cd4 2.411 . S
O6 C9 1.320 . S
O7 Cd4 2.333 . S
O7 C9 1.214 . S
O8 Cd4 2.352 . S
O8 C11 1.258 . S
C9 O6 1.320 . S
C9 O7 1.214 . S
O10 Cd2 2.277 . S
O10 C5 1.209 . S
C11 O8 1.258 . S
C11 O13 1.282 . S
O12 Cd4 2.277 . S
O12 C5 1.226 . S
O13 Cd4 2.356 . S
O13 C11 1.282 . S
C14 O15 1.306 . S
C14 O17 1.160 . S
O15 C14 1.306 . S
O15 Cd16 2.228 . S
Cd16 O15 2.228 . S
Cd16 O20 2.273 . S
Cd16 O24 2.277 . S
O17 C14 1.160 . S
O17 Cd18 2.203 . S
Cd18 O17 2.203 . S
Cd18 O20 2.411 . S
Cd18 O21 2.333 . S
Cd18 O22 2.352 . S
Cd18 O26 2.277 . S
Cd18 O27 2.356 . S
C19 O24 1.209 . S
C19 O26 1.226 . S
O20 Cd16 2.273 . S
O20 Cd18 2.411 . S
O20 C23 1.320 . S
O21 Cd18 2.333 . S
O21 C23 1.214 . S
O22 Cd18 2.352 . S
O22 C25 1.258 . S
C23 O20 1.320 . S
C23 O21 1.214 . S
O24 Cd16 2.277 . S
O24 C19 1.209 . S
C25 O22 1.258 . S
C25 O27 1.282 . S
O26 Cd18 2.277 . S
O26 C19 1.226 . S
O27 Cd18 2.356 . S
O27 C25 1.282 . S
C28 O29 1.306 . S
C28 O31 1.160 . S
O29 C28 1.306 . S
O29 Cd30 2.228 . S
Cd30 O29 2.228 . S
Cd30 O34 2.273 . S
Cd30 O38 2.277 . S
O31 C28 1.160 . S
O31 Cd32 2.203 . S
Cd32 O31 2.203 . S
Cd32 O34 2.411 . S
Cd32 O35 2.333 . S
Cd32 O36 2.352 . S
Cd32 O40 2.277 . S
Cd32 O41 2.356 . S
C33 O38 1.209 . S
C33 O40 1.226 . S
O34 Cd30 2.273 . S
O34 Cd32 2.411 . S
O34 C37 1.320 . S
O35 Cd32 2.333 . S
O35 C37 1.214 . S
O36 Cd32 2.352 . S
O36 C39 1.258 . S
C37 O34 1.320 . S
C37 O35 1.214 . S
O38 Cd30 2.277 . S
O38 C33 1.209 . S
C39 O36 1.258 . S
C39 O41 1.282 . S
O40 Cd32 2.277 . S
O40 C33 1.226 . S
O41 Cd32 2.356 . S
O41 C39 1.282 . S
C42 O43 1.306 . S
C42 O45 1.160 . S
O43 C42 1.306 . S
O43 Cd44 2.228 . S
Cd44 O43 2.228 . S
Cd44 O48 2.273 . S
Cd44 O52 2.277 . S
O45 C42 1.160 . S
O45 Cd46 2.203 . S
Cd46 O45 2.203 . S
Cd46 O48 2.411 . S
Cd46 O49 2.333 . S
Cd46 O50 2.352 . S
Cd46 O54 2.277 . S
Cd46 O55 2.356 . S
C47 O52 1.209 . S
C47 O54 1.226 . S
O48 Cd44 2.273 . S
O48 Cd46 2.411 . S
O48 C51 1.320 . S
O49 Cd46 2.333 . S
O49 C51 1.214 . S
O50 Cd46 2.352 . S
O50 C53 1.258 . S
C51 O48 1.320 . S
C51 O49 1.214 . S
O52 Cd44 2.277 . S
O52 C47 1.209 . S
C53 O50 1.258 . S
C53 O55 1.282 . S
O54 Cd46 2.277 . S
O54 C47 1.226 . S
O55 Cd46 2.356 . S
O55 C53 1.282 . S
C56 O57 1.306 . S
C56 O59 1.160 . S
O57 C56 1.306 . S
O57 Cd58 2.228 . S
Cd58 O57 2.228 . S
Cd58 O62 2.273 . S
Cd58 O66 2.277 . S
O59 C56 1.160 . S
O59 Cd60 2.203 . S
Cd60 O59 2.203 . S
Cd60 O62 2.411 . S
Cd60 O63 2.333 . S
Cd60 O64 2.352 . S
Cd60 O68 2.277 . S
Cd60 O69 2.356 . S
C61 O66 1.209 . S
C61 O68 1.226 . S
O62 Cd58 2.273 . S
O62 Cd60 2.411 . S
O62 C65 1.320 . S
O63 Cd60 2.333 . S
O63 C65 1.214 . S
O64 Cd60 2.352 . S
O64 C67 1.258 . S
C65 O62 1.320 . S
C65 O63 1.214 . S
O66 Cd58 2.277 . S
O66 C61 1.209 . S
C67 O64 1.258 . S
C67 O69 1.282 . S
O68 Cd60 2.277 . S
O68 C61 1.226 . S
O69 Cd60 2.356 . S
O69 C67 1.282 . S
C70 O71 1.306 . S
C70 O73 1.160 . S
O71 C70 1.306 . S
O71 Cd72 2.228 . S
Cd72 O71 2.228 . S
Cd72 O76 2.273 . S
Cd72 O80 2.277 . S
O73 C70 1.160 . S
O73 Cd74 2.203 . S
Cd74 O73 2.203 . S
Cd74 O76 2.411 . S
Cd74 O77 2.333 1_556 S
Cd74 O78 2.352 . S
Cd74 O82 2.277 . S
Cd74 O83 2.356 . S
C75 O80 1.209 . S
C75 O82 1.226 . S
O76 Cd72 2.273 . S
O76 Cd74 2.411 . S
O76 C79 1.320 1_556 S
O77 Cd74 2.333 1_554 S
O77 C79 1.214 . S
O78 Cd74 2.352 . S
O78 C81 1.258 . S
C79 O76 1.320 1_554 S
C79 O77 1.214 . S
O80 Cd72 2.277 . S
O80 C75 1.209 . S
C81 O78 1.258 . S
C81 O83 1.282 . S
O82 Cd74 2.277 . S
O82 C75 1.226 . S
O83 Cd74 2.356 . S
O83 C81 1.282 . S
C84 O85 1.306 1_554 S
C84 O87 1.160 1_554 S
O85 C84 1.306 1_556 S
O85 Cd86 2.228 . S
Cd86 O85 2.228 . S
Cd86 O90 2.273 . S
Cd86 O94 2.277 . S
O87 C84 1.160 1_556 S
O87 Cd88 2.203 . S
Cd88 O87 2.203 . S
Cd88 O90 2.411 . S
Cd88 O91 2.333 . S
Cd88 O92 2.352 . S
Cd88 O96 2.277 . S
Cd88 O97 2.356 . S
C89 O94 1.209 . S
C89 O96 1.226 . S
O90 Cd86 2.273 . S
O90 Cd88 2.411 . S
O90 C93 1.320 . S
O91 Cd88 2.333 . S
O91 C93 1.214 . S
O92 Cd88 2.352 . S
O92 C95 1.258 . S
C93 O90 1.320 . S
C93 O91 1.214 . S
O94 Cd86 2.277 . S
O94 C89 1.209 . S
C95 O92 1.258 . S
C95 O97 1.282 . S
O96 Cd88 2.277 . S
O96 C89 1.226 . S
O97 Cd88 2.356 . S
O97 C95 1.282 . S
C98 O99 1.306 . S
C98 O101 1.160 . S
O99 C98 1.306 . S
O99 Cd100 2.228 . S
Cd100 O99 2.228 . S
Cd100 O104 2.273 1_554 S
Cd100 O108 2.277 . S
O101 C98 1.160 . S
O101 Cd102 2.203 . S
Cd102 O101 2.203 . S
Cd102 O104 2.411 1_554 S
Cd102 O105 2.333 1_554 S
Cd102 O106 2.352 . S
Cd102 O110 2.277 . S
Cd102 O111 2.356 . S
C103 O108 1.209 . S
C103 O110 1.226 . S
O104 Cd100 2.273 1_556 S
O104 Cd102 2.411 1_556 S
O104 C107 1.320 . S
O105 Cd102 2.333 1_556 S
O105 C107 1.214 . S
O106 Cd102 2.352 . S
O106 C109 1.258 . S
C107 O104 1.320 . S
C107 O105 1.214 . S
O108 Cd100 2.277 . S
O108 C103 1.209 . S
C109 O106 1.258 . S
C109 O111 1.282 . S
O110 Cd102 2.277 . S
O110 C103 1.226 . S
O111 Cd102 2.356 . S
O111 C109 1.282 . S
C112 O113 1.306 . S
C112 O115 1.160 . S
O113 C112 1.306 . S
O113 Cd114 2.228 . S
Cd114 O113 2.228 . S
Cd114 O118 2.273 . S
Cd114 O122 2.277 . S
O115 C112 1.160 . S
O115 Cd116 2.203 . S
Cd116 O115 2.203 . S
Cd116 O118 2.411 . S
Cd116 O119 2.333 . S
Cd116 O120 2.352 . S
Cd116 O124 2.277 . S
Cd116 O125 2.356 . S
C117 O122 1.209 . S
C117 O124 1.226 . S
O118 Cd114 2.273 . S
O118 Cd116 2.411 . S
O118 C121 1.320 . S
O119 Cd116 2.333 . S
O119 C121 1.214 . S
O120 Cd116 2.352 . S
O120 C123 1.258 . S
C121 O118 1.320 . S
C121 O119 1.214 . S
O122 Cd114 2.277 . S
O122 C117 1.209 . S
C123 O120 1.258 . S
C123 O125 1.282 . S
O124 Cd116 2.277 . S
O124 C117 1.226 . S
O125 Cd116 2.356 . S
O125 C123 1.282 . S
C126 O127 1.306 . S
C126 O129 1.160 . S
O127 C126 1.306 . S
O127 Cd128 2.228 . S
Cd128 O127 2.228 . S
Cd128 O132 2.273 . S
Cd128 O136 2.277 . S
O129 C126 1.160 . S
O129 Cd130 2.203 . S
Cd130 O129 2.203 . S
Cd130 O132 2.411 . S
Cd130 O133 2.333 . S
Cd130 O134 2.352 . S
Cd130 O138 2.277 . S
Cd130 O139 2.356 . S
C131 O136 1.209 . S
C131 O138 1.226 . S
O132 Cd128 2.273 . S
O132 Cd130 2.411 . S
O132 C135 1.320 . S
O133 Cd130 2.333 . S
O133 C135 1.214 . S
O134 Cd130 2.352 . S
O134 C137 1.258 . S
C135 O132 1.320 . S
C135 O133 1.214 . S
O136 Cd128 2.277 . S
O136 C131 1.209 . S
C137 O134 1.258 . S
C137 O139 1.282 . S
O138 Cd130 2.277 . S
O138 C131 1.226 . S
O139 Cd130 2.356 . S
O139 C137 1.282 . S
C140 O141 1.306 . S
C140 O143 1.160 . S
O141 C140 1.306 . S
O141 Cd142 2.228 . S
Cd142 O141 2.228 . S
Cd142 O146 2.273 . S
Cd142 O150 2.277 . S
O143 C140 1.160 . S
O143 Cd144 2.203 . S
Cd144 O143 2.203 . S
Cd144 O146 2.411 . S
Cd144 O147 2.333 . S
Cd144 O148 2.352 . S
Cd144 O152 2.277 . S
Cd144 O153 2.356 . S
C145 O150 1.209 . S
C145 O152 1.226 . S
O146 Cd142 2.273 . S
O146 Cd144 2.411 . S
O146 C149 1.320 . S
O147 Cd144 2.333 . S
O147 C149 1.214 . S
O148 Cd144 2.352 . S
O148 C151 1.258 . S
C149 O146 1.320 . S
C149 O147 1.214 . S
O150 Cd142 2.277 . S
O150 C145 1.209 . S
C151 O148 1.258 . S
C151 O153 1.282 . S
O152 Cd144 2.277 . S
O152 C145 1.226 . S
O153 Cd144 2.356 . S
O153 C151 1.282 . S
C154 O155 1.306 . S
C154 O157 1.160 . S
O155 C154 1.306 . S
O155 Cd156 2.228 . S
Cd156 O155 2.228 . S
Cd156 O160 2.273 . S
Cd156 O164 2.277 . S
O157 C154 1.160 . S
O157 Cd158 2.203 . S
Cd158 O157 2.203 . S
Cd158 O160 2.411 . S
Cd158 O161 2.333 . S
Cd158 O162 2.352 . S
Cd158 O166 2.277 . S
Cd158 O167 2.356 . S
C159 O164 1.209 . S
C159 O166 1.226 . S
O160 Cd156 2.273 . S
O160 Cd158 2.411 . S
O160 C163 1.320 . S
O161 Cd158 2.333 . S
O161 C163 1.214 . S
O162 Cd158 2.352 . S
O162 C165 1.258 . S
C163 O160 1.320 . S
C163 O161 1.214 . S
O164 Cd156 2.277 . S
O164 C159 1.209 . S
C165 O162 1.258 . S
C165 O167 1.282 . S
O166 Cd158 2.277 . S
O166 C159 1.226 . S
O167 Cd158 2.356 . S
O167 C165 1.282 . S
C168 C169 1.387 . S
C168 H172 0.950 . S
C168 C177 1.390 . S
C169 C168 1.387 . S
C169 C171 1.387 . S
H170 C177 0.950 . S
C171 C169 1.387 . S
C171 C173 1.390 . S
C171 H175 0.950 . S
H172 C168 0.950 . S
C173 C171 1.390 . S
C173 C174 1.387 . S
C173 H176 0.950 . S
C174 C173 1.387 . S
C174 C177 1.387 . S
H175 C171 0.950 . S
H176 C173 0.950 . S
C177 C168 1.390 . S
C177 H170 0.950 . S
C177 C174 1.387 . S
C178 C179 1.387 . S
C178 H182 0.950 . S
C178 C187 1.390 . S
C179 C178 1.387 . S
C179 C181 1.387 . S
H180 C187 0.950 . S
C181 C179 1.387 . S
C181 C183 1.390 . S
C181 H185 0.950 . S
H182 C178 0.950 . S
C183 C181 1.390 . S
C183 C184 1.387 . S
C183 H186 0.950 . S
C184 C183 1.387 . S
C184 C187 1.387 . S
H185 C181 0.950 . S
H186 C183 0.950 . S
C187 C178 1.390 . S
C187 H180 0.950 . S
C187 C184 1.387 . S
C188 C189 1.387 . S
C188 H192 0.950 . S
C188 C197 1.390 . S
C189 C188 1.387 . S
C189 C191 1.387 . S
H190 C197 0.950 . S
C191 C189 1.387 . S
C191 C193 1.390 . S
C191 H195 0.950 . S
H192 C188 0.950 . S
C193 C191 1.390 . S
C193 C194 1.387 . S
C193 H196 0.950 . S
C194 C193 1.387 . S
C194 C197 1.387 . S
H195 C191 0.950 . S
H196 C193 0.950 . S
C197 C188 1.390 . S
C197 H190 0.950 . S
C197 C194 1.387 . S
C198 C199 1.387 . S
C198 H202 0.950 . S
C198 C207 1.390 . S
C199 C198 1.387 . S
C199 C201 1.387 . S
H200 C207 0.950 . S
C201 C199 1.387 . S
C201 C203 1.390 . S
C201 H205 0.950 . S
H202 C198 0.950 . S
C203 C201 1.390 . S
C203 C204 1.387 . S
C203 H206 0.950 . S
C204 C203 1.387 . S
C204 C207 1.387 . S
H205 C201 0.950 . S
H206 C203 0.950 . S
C207 C198 1.390 . S
C207 H200 0.950 . S
C207 C204 1.387 . S
C208 C209 1.387 1_556 S
C208 H212 0.950 . S
C208 C217 1.390 . S
C209 C208 1.387 1_554 S
C209 C211 1.387 . S
H210 C217 0.950 . S
C211 C209 1.387 . S
C211 C213 1.390 1_554 S
C211 H215 0.950 . S
H212 C208 0.950 . S
C213 C211 1.390 1_556 S
C213 C214 1.387 . S
C213 H216 0.950 . S
C214 C213 1.387 . S
C214 C217 1.387 . S
H215 C211 0.950 . S
H216 C213 0.950 . S
C217 C208 1.390 . S
C217 H210 0.950 . S
C217 C214 1.387 . S
C218 C219 1.387 . S
C218 H222 0.950 . S
C218 C227 1.390 . S
C219 C218 1.387 . S
C219 C221 1.387 . S
H220 C227 0.950 . S
C221 C219 1.387 . S
C221 C223 1.390 . S
C221 H225 0.950 . S
H222 C218 0.950 . S
C223 C221 1.390 . S
C223 C224 1.387 . S
C223 H226 0.950 . S
C224 C223 1.387 . S
C224 C227 1.387 . S
H225 C221 0.950 . S
H226 C223 0.950 . S
C227 C218 1.390 . S
C227 H220 0.950 . S
C227 C224 1.387 . S
C228 C229 1.387 . S
C228 H232 0.950 . S
C228 C237 1.390 . S
C229 C228 1.387 . S
C229 C231 1.387 . S
H230 C237 0.950 . S
C231 C229 1.387 . S
C231 C233 1.390 . S
C231 H235 0.950 . S
H232 C228 0.950 . S
C233 C231 1.390 . S
C233 C234 1.387 . S
C233 H236 0.950 . S
C234 C233 1.387 . S
C234 C237 1.387 . S
H235 C231 0.950 . S
H236 C233 0.950 . S
C237 C228 1.390 . S
C237 H230 0.950 . S
C237 C234 1.387 . S
C238 C239 1.387 . S
C238 H242 0.950 . S
C238 C247 1.390 . S
C239 C238 1.387 . S
C239 C241 1.387 . S
H240 C247 0.950 . S
C241 C239 1.387 . S
C241 C243 1.390 . S
C241 H245 0.950 . S
H242 C238 0.950 . S
C243 C241 1.390 . S
C243 C244 1.387 . S
C243 H246 0.950 . S
C244 C243 1.387 . S
C244 C247 1.387 . S
H245 C241 0.950 . S
H246 C243 0.950 . S
C247 C238 1.390 . S
C247 H240 0.950 . S
C247 C244 1.387 . S
C248 C249 1.387 . S
C248 H252 0.950 . S
C248 C257 1.390 . S
C249 C248 1.387 . S
C249 C251 1.387 . S
H250 C257 0.950 . S
C251 C249 1.387 . S
C251 C253 1.390 . S
C251 H255 0.950 . S
H252 C248 0.950 . S
C253 C251 1.390 . S
C253 C254 1.387 . S
C253 H256 0.950 . S
C254 C253 1.387 . S
C254 C257 1.387 . S
H255 C251 0.950 . S
H256 C253 0.950 . S
C257 C248 1.390 . S
C257 H250 0.950 . S
C257 C254 1.387 . S
C258 C259 1.387 . S
C258 H262 0.950 . S
C258 C267 1.390 . S
C259 C258 1.387 . S
C259 C261 1.387 . S
H260 C267 0.950 . S
C261 C259 1.387 . S
C261 C263 1.390 . S
C261 H265 0.950 . S
H262 C258 0.950 . S
C263 C261 1.390 . S
C263 C264 1.387 . S
C263 H266 0.950 . S
C264 C263 1.387 . S
C264 C267 1.387 . S
H265 C261 0.950 . S
H266 C263 0.950 . S
C267 C258 1.390 . S
C267 H260 0.950 . S
C267 C264 1.387 . S
C268 C269 1.387 . S
C268 H272 0.950 . S
C268 C277 1.390 . S
C269 C268 1.387 . S
C269 C271 1.387 . S
H270 C277 0.950 . S
C271 C269 1.387 . S
C271 C273 1.390 . S
C271 H275 0.950 . S
H272 C268 0.950 . S
C273 C271 1.390 . S
C273 C274 1.387 . S
C273 H276 0.950 . S
C274 C273 1.387 . S
C274 C277 1.387 . S
H275 C271 0.950 . S
H276 C273 0.950 . S
C277 C268 1.390 . S
C277 H270 0.950 . S
C277 C274 1.387 . S
C278 C279 1.387 . S
C278 H282 0.950 . S
C278 C287 1.390 . S
C279 C278 1.387 . S
C279 C281 1.387 1_556 S
H280 C287 0.950 . S
C281 C279 1.387 1_554 S
C281 C283 1.390 . S
C281 H285 0.950 . S
H282 C278 0.950 . S
C283 C281 1.390 . S
C283 C284 1.387 . S
C283 H286 0.950 . S
C284 C283 1.387 . S
C284 C287 1.387 1_554 S
H285 C281 0.950 . S
H286 C283 0.950 . S
C287 C278 1.390 . S
C287 H280 0.950 . S
C287 C284 1.387 1_556 S
C288 C289 1.387 . S
C288 H292 0.950 . S
C288 C297 1.390 . S
C289 C288 1.387 . S
C289 C291 1.387 . S
H290 C297 0.950 . S
C291 C289 1.387 . S
C291 C293 1.390 . S
C291 H295 0.950 . S
H292 C288 0.950 . S
C293 C291 1.390 . S
C293 C294 1.387 . S
C293 H296 0.950 . S
C294 C293 1.387 . S
C294 C297 1.387 . S
H295 C291 0.950 . S
H296 C293 0.950 . S
C297 C288 1.390 . S
C297 H290 0.950 . S
C297 C294 1.387 . S
C298 C299 1.387 . S
C298 H302 0.950 . S
C298 C307 1.390 . S
C299 C298 1.387 . S
C299 C301 1.387 . S
H300 C307 0.950 . S
C301 C299 1.387 . S
C301 C303 1.390 1_556 S
C301 H305 0.950 . S
H302 C298 0.950 . S
C303 C301 1.390 1_554 S
C303 C304 1.387 . S
C303 H306 0.950 . S
C304 C303 1.387 . S
C304 C307 1.387 1_554 S
H305 C301 0.950 . S
H306 C303 0.950 . S
C307 C298 1.390 . S
C307 H300 0.950 . S
C307 C304 1.387 1_556 S
C308 C309 1.387 . S
C308 H312 0.950 . S
C308 C317 1.390 . S
C309 C308 1.387 . S
C309 C311 1.387 . S
H310 C317 0.950 . S
C311 C309 1.387 . S
C311 C313 1.390 . S
C311 H315 0.950 . S
H312 C308 0.950 . S
C313 C311 1.390 . S
C313 C314 1.387 . S
C313 H316 0.950 . S
C314 C313 1.387 . S
C314 C317 1.387 . S
H315 C311 0.950 . S
H316 C313 0.950 . S
C317 C308 1.390 . S
C317 H310 0.950 . S
C317 C314 1.387 . S
C318 C319 1.387 . S
C318 H322 0.950 . S
C318 C327 1.390 . S
C319 C318 1.387 . S
C319 C321 1.387 . S
H320 C327 0.950 . S
C321 C319 1.387 . S
C321 C323 1.390 . S
C321 H325 0.950 . S
H322 C318 0.950 . S
C323 C321 1.390 . S
C323 C324 1.387 . S
C323 H326 0.950 . S
C324 C323 1.387 . S
C324 C327 1.387 . S
H325 C321 0.950 . S
H326 C323 0.950 . S
C327 C318 1.390 . S
C327 H320 0.950 . S
C327 C324 1.387 . S
C328 C329 1.387 . S
C328 H332 0.950 . S
C328 C337 1.390 . S
C329 C328 1.387 . S
C329 C331 1.387 . S
H330 C337 0.950 . S
C331 C329 1.387 . S
C331 C333 1.390 . S
C331 H335 0.950 . S
H332 C328 0.950 . S
C333 C331 1.390 . S
C333 C334 1.387 . S
C333 H336 0.950 . S
C334 C333 1.387 . S
C334 C337 1.387 . S
H335 C331 0.950 . S
H336 C333 0.950 . S
C337 C328 1.390 . S
C337 H330 0.950 . S
C337 C334 1.387 . S
C338 C339 1.387 . S
C338 H342 0.950 . S
C338 C347 1.390 . S
C339 C338 1.387 . S
C339 C341 1.387 . S
H340 C347 0.950 . S
C341 C339 1.387 . S
C341 C343 1.390 . S
C341 H345 0.950 . S
H342 C338 0.950 . S
C343 C341 1.390 . S
C343 C344 1.387 . S
C343 H346 0.950 . S
C344 C343 1.387 . S
C344 C347 1.387 . S
H345 C341 0.950 . S
H346 C343 0.950 . S
C347 C338 1.390 . S
C347 H340 0.950 . S
C347 C344 1.387 . S
C348 C349 1.387 . S
C348 H352 0.950 . S
C348 C357 1.390 1_545 S
C349 C348 1.387 . S
C349 C351 1.387 . S
H350 C357 0.950 . S
C351 C349 1.387 . S
C351 C353 1.390 1_545 S
C351 H355 0.950 . S
H352 C348 0.950 . S
C353 C351 1.390 1_565 S
C353 C354 1.387 . S
C353 H356 0.950 . S
C354 C353 1.387 . S
C354 C357 1.387 . S
H355 C351 0.950 . S
H356 C353 0.950 . S
C357 C348 1.390 1_565 S
C357 H350 0.950 . S
C357 C354 1.387 . S
C358 C359 1.387 . S
C358 H362 0.950 . S
C358 C367 1.390 . S
C359 C358 1.387 . S
C359 C361 1.387 . S
H360 C367 0.950 . S
C361 C359 1.387 . S
C361 C363 1.390 . S
C361 H365 0.950 . S
H362 C358 0.950 . S
C363 C361 1.390 . S
C363 C364 1.387 . S
C363 H366 0.950 . S
C364 C363 1.387 . S
C364 C367 1.387 . S
H365 C361 0.950 . S
H366 C363 0.950 . S
C367 C358 1.390 . S
C367 H360 0.950 . S
C367 C364 1.387 . S
C368 C369 1.387 . S
C368 H372 0.950 . S
C368 C377 1.390 1_455 S
C369 C368 1.387 . S
C369 C371 1.387 . S
H370 C377 0.950 . S
C371 C369 1.387 . S
C371 C373 1.390 1_455 S
C371 H375 0.950 . S
H372 C368 0.950 . S
C373 C371 1.390 1_655 S
C373 C374 1.387 . S
C373 H376 0.950 . S
C374 C373 1.387 . S
C374 C377 1.387 . S
H375 C371 0.950 . S
H376 C373 0.950 . S
C377 C368 1.390 1_655 S
C377 H370 0.950 . S
C377 C374 1.387 . S
C378 C379 1.387 . S
C378 H382 0.950 . S
C378 C387 1.390 1_565 S
C379 C378 1.387 . S
C379 C381 1.387 . S
H380 C387 0.950 . S
C381 C379 1.387 . S
C381 C383 1.390 1_565 S
C381 H385 0.950 . S
H382 C378 0.950 . S
C383 C381 1.390 1_545 S
C383 C384 1.387 . S
C383 H386 0.950 . S
C384 C383 1.387 . S
C384 C387 1.387 . S
H385 C381 0.950 . S
H386 C383 0.950 . S
C387 C378 1.390 1_545 S
C387 H380 0.950 . S
C387 C384 1.387 . S
C388 C389 1.387 . S
C388 H392 0.950 . S
C388 C397 1.390 . S
C389 C388 1.387 . S
C389 C391 1.387 . S
H390 C397 0.950 . S
C391 C389 1.387 . S
C391 C393 1.390 . S
C391 H395 0.950 . S
H392 C388 0.950 . S
C393 C391 1.390 . S
C393 C394 1.387 . S
C393 H396 0.950 . S
C394 C393 1.387 . S
C394 C397 1.387 . S
H395 C391 0.950 . S
H396 C393 0.950 . S
C397 C388 1.390 . S
C397 H390 0.950 . S
C397 C394 1.387 . S
C398 C399 1.387 . S
C398 H402 0.950 . S
C398 C407 1.390 1_455 S
C399 C398 1.387 . S
C399 C401 1.387 . S
H400 C407 0.950 . S
C401 C399 1.387 . S
C401 C403 1.390 1_455 S
C401 H405 0.950 . S
H402 C398 0.950 . S
C403 C401 1.390 1_655 S
C403 C404 1.387 . S
C403 H406 0.950 . S
C404 C403 1.387 . S
C404 C407 1.387 . S
H405 C401 0.950 . S
H406 C403 0.950 . S
C407 C398 1.390 1_655 S
C407 H400 0.950 . S
C407 C404 1.387 . S
C169 C9 1.237 . S
C174 C149 1.237 . S
C179 C23 1.237 . S
C184 C163 1.237 . S
C189 C93 1.238 . S
C194 C37 1.238 . S
C199 C51 1.239 . S
C204 C107 1.239 . S
C209 C121 1.238 . S
C214 C65 1.238 . S
C219 C135 1.238 . S
C224 C79 1.238 . S
C229 C123 1.426 . S
C234 C11 1.427 . S
C239 C25 1.425 . S
C244 C137 1.425 . S
C249 C151 1.427 . S
C254 C39 1.427 . S
C259 C53 1.428 . S
C264 C165 1.428 . S
C269 C67 1.425 . S
C274 C95 1.425 . S
C279 C81 1.427 . S
C284 C109 1.427 . S
C289 C140 1.577 . S
C294 C0 1.577 . S
C299 C154 1.576 . S
C304 C14 1.575 . S
C309 C84 1.576 . S
C314 C28 1.577 . S
C319 C42 1.577 . S
C324 C98 1.577 . S
C329 C56 1.575 . S
C334 C112 1.576 . S
C339 C126 1.575 . S
C344 C70 1.576 . S
C349 C5 1.379 . S
C354 C103 1.379 . S
C359 C117 1.378 . S
C364 C19 1.380 . S
C369 C131 1.380 . S
C374 C33 1.378 . S
C379 C47 1.379 . S
C384 C145 1.379 . S
C389 C61 1.378 . S
C394 C159 1.380 . S
C399 C75 1.378 . S
C404 C89 1.380 . S
