# Generated by pormake.
# Topology whw, (6)-cn, num edge types: 1
# Building blocks:
#     Node 0, Type 0, BuildingBlock: FUNLAD_clean_sbu_0, # of connection points: 6
#     Node 1, Type 0, BuildingBlock: FUNLAD_clean_sbu_0, # of connection points: 6
#     Node 2, Type 0, BuildingBlock: FUNLAD_clean_sbu_0, # of connection points: 6
#     Node 3, Type 0, BuildingBlock: FUNLAD_clean_sbu_0, # of connection points: 6
#     Node 4, Type 0, BuildingBlock: FUNLAD_clean_sbu_0, # of connection points: 6
#     Node 5, Type 0, BuildingBlock: FUNLAD_clean_sbu_0, # of connection points: 6
#     Node 6, Type 0, BuildingBlock: FUNLAD_clean_sbu_0, # of connection points: 6
#     Node 7, Type 0, BuildingBlock: FUNLAD_clean_sbu_0, # of connection points: 6
#     Node 8, Type 0, BuildingBlock: FUNLAD_clean_sbu_0, # of connection points: 6
#     Node 9, Type 0, BuildingBlock: FUNLAD_clean_sbu_0, # of connection points: 6
#     Node 10, Type 0, BuildingBlock: FUNLAD_clean_sbu_0, # of connection points: 6
#     Node 11, Type 0, BuildingBlock: FUNLAD_clean_sbu_0, # of connection points: 6
#     Node 12, Type 0, BuildingBlock: FUNLAD_clean_sbu_0, # of connection points: 6
#     Node 13, Type 0, BuildingBlock: FUNLAD_clean_sbu_0, # of connection points: 6
#     Node 14, Type 0, BuildingBlock: FUNLAD_clean_sbu_0, # of connection points: 6
#     Node 15, Type 0, BuildingBlock: FUNLAD_clean_sbu_0, # of connection points: 6
#     Edge 16, Type (0, 0), BuildingBlock: CIFDUS_clean_linker_0, # of connection points: 2
#     Edge 17, Type (0, 0), BuildingBlock: CIFDUS_clean_linker_0, # of connection points: 2
#     Edge 18, Type (0, 0), BuildingBlock: CIFDUS_clean_linker_0, # of connection points: 2
#     Edge 19, Type (0, 0), BuildingBlock: CIFDUS_clean_linker_0, # of connection points: 2
#     Edge 20, Type (0, 0), BuildingBlock: CIFDUS_clean_linker_0, # of connection points: 2
#     Edge 21, Type (0, 0), BuildingBlock: CIFDUS_clean_linker_0, # of connection points: 2
#     Edge 22, Type (0, 0), BuildingBlock: CIFDUS_clean_linker_0, # of connection points: 2
#     Edge 23, Type (0, 0), BuildingBlock: CIFDUS_clean_linker_0, # of connection points: 2
#     Edge 24, Type (0, 0), BuildingBlock: CIFDUS_clean_linker_0, # of connection points: 2
#     Edge 25, Type (0, 0), BuildingBlock: CIFDUS_clean_linker_0, # of connection points: 2
#     Edge 26, Type (0, 0), BuildingBlock: CIFDUS_clean_linker_0, # of connection points: 2
#     Edge 27, Type (0, 0), BuildingBlock: CIFDUS_clean_linker_0, # of connection points: 2
#     Edge 28, Type (0, 0), BuildingBlock: CIFDUS_clean_linker_0, # of connection points: 2
#     Edge 29, Type (0, 0), BuildingBlock: CIFDUS_clean_linker_0, # of connection points: 2
#     Edge 30, Type (0, 0), BuildingBlock: CIFDUS_clean_linker_0, # of connection points: 2
#     Edge 31, Type (0, 0), BuildingBlock: CIFDUS_clean_linker_0, # of connection points: 2
#     Edge 32, Type (0, 0), BuildingBlock: CIFDUS_clean_linker_0, # of connection points: 2
#     Edge 33, Type (0, 0), BuildingBlock: CIFDUS_clean_linker_0, # of connection points: 2
#     Edge 34, Type (0, 0), BuildingBlock: CIFDUS_clean_linker_0, # of connection points: 2
#     Edge 35, Type (0, 0), BuildingBlock: CIFDUS_clean_linker_0, # of connection points: 2
#     Edge 36, Type (0, 0), BuildingBlock: CIFDUS_clean_linker_0, # of connection points: 2
#     Edge 37, Type (0, 0), BuildingBlock: CIFDUS_clean_linker_0, # of connection points: 2
#     Edge 38, Type (0, 0), BuildingBlock: CIFDUS_clean_linker_0, # of connection points: 2
#     Edge 39, Type (0, 0), BuildingBlock: CIFDUS_clean_linker_0, # of connection points: 2
#     Edge 40, Type (0, 0), BuildingBlock: CIFDUS_clean_linker_0, # of connection points: 2
#     Edge 41, Type (0, 0), BuildingBlock: CIFDUS_clean_linker_0, # of connection points: 2
#     Edge 42, Type (0, 0), BuildingBlock: CIFDUS_clean_linker_0, # of connection points: 2
#     Edge 43, Type (0, 0), BuildingBlock: CIFDUS_clean_linker_0, # of connection points: 2
#     Edge 44, Type (0, 0), BuildingBlock: CIFDUS_clean_linker_0, # of connection points: 2
#     Edge 45, Type (0, 0), BuildingBlock: CIFDUS_clean_linker_0, # of connection points: 2
#     Edge 46, Type (0, 0), BuildingBlock: CIFDUS_clean_linker_0, # of connection points: 2
#     Edge 47, Type (0, 0), BuildingBlock: CIFDUS_clean_linker_0, # of connection points: 2
#     Edge 48, Type (0, 0), BuildingBlock: CIFDUS_clean_linker_0, # of connection points: 2
#     Edge 49, Type (0, 0), BuildingBlock: CIFDUS_clean_linker_0, # of connection points: 2
#     Edge 50, Type (0, 0), BuildingBlock: CIFDUS_clean_linker_0, # of connection points: 2
#     Edge 51, Type (0, 0), BuildingBlock: CIFDUS_clean_linker_0, # of connection points: 2
#     Edge 52, Type (0, 0), BuildingBlock: CIFDUS_clean_linker_0, # of connection points: 2
#     Edge 53, Type (0, 0), BuildingBlock: CIFDUS_clean_linker_0, # of connection points: 2
#     Edge 54, Type (0, 0), BuildingBlock: CIFDUS_clean_linker_0, # of connection points: 2
#     Edge 55, Type (0, 0), BuildingBlock: CIFDUS_clean_linker_0, # of connection points: 2
#     Edge 56, Type (0, 0), BuildingBlock: CIFDUS_clean_linker_0, # of connection points: 2
#     Edge 57, Type (0, 0), BuildingBlock: CIFDUS_clean_linker_0, # of connection points: 2
#     Edge 58, Type (0, 0), BuildingBlock: CIFDUS_clean_linker_0, # of connection points: 2
#     Edge 59, Type (0, 0), BuildingBlock: CIFDUS_clean_linker_0, # of connection points: 2
#     Edge 60, Type (0, 0), BuildingBlock: CIFDUS_clean_linker_0, # of connection points: 2
#     Edge 61, Type (0, 0), BuildingBlock: CIFDUS_clean_linker_0, # of connection points: 2
#     Edge 62, Type (0, 0), BuildingBlock: CIFDUS_clean_linker_0, # of connection points: 2
#     Edge 63, Type (0, 0), BuildingBlock: CIFDUS_clean_linker_0, # of connection points: 2
# Relax obj value: 1.355
# Max RMSD: 0.249
# Mean RMSD: 0.249
data_MOF--net-whw--node1-FUNLAD_clean_sbu_0--edge1-CIFDUS_clean_linker_0
_symmetry_space_group_name_H-M    P1
_symmetry_Int_Tables_number       1
_symmetry_cell_setting            triclinic
loop_
_symmetry_equiv_pos_as_xyz
'x, y, z'
_cell_length_a     62.589582
_cell_length_b     62.666257
_cell_length_c     18.016828
_cell_angle_alpha  89.922995
_cell_angle_beta   89.977906
_cell_angle_gamma 90.088605
loop_
_atom_site_label
_atom_site_type_symbol
_atom_site_fract_x
_atom_site_fract_y
_atom_site_fract_z
_atom_type_partial_charge
C0 C 0.091 0.18831 0.08678 0.0
N1 N 0.11468 0.12234 0.12187 0.0
C2 C 0.09514 0.11303 0.11253 0.0
C3 C 0.09342 0.09192 0.08551 0.0
C4 C 0.11196 0.08024 0.06723 0.0
C5 C 0.13179 0.0903 0.07858 0.0
C6 C 0.13278 0.11119 0.10573 0.0
Zn7 Zn 0.12016 0.15381 0.1601 0.0
C8 C 0.15385 0.17604 0.06237 0.0
N9 N 0.13766 0.21556 0.23484 0.0
C10 C 0.14866 0.23553 0.18423 0.0
C11 C 0.13969 0.21095 0.32673 0.0
C12 C 0.15641 0.22764 0.38574 0.0
C13 C 0.17205 0.25115 0.3354 0.0
C14 C 0.16627 0.25558 0.22894 0.0
Zn15 Zn 0.12719 0.18789 0.18776 0.0
O16 O 0.09463 0.1681 0.08819 0.0
C17 C 0.0929 0.16877 0.28623 0.0
O18 O 0.10328 0.20085 0.12277 0.0
H19 H 0.13295 0.19675 0.35135 0.0
H20 H 0.08084 0.12196 0.1255 0.0
H21 H 0.14682 0.23564 0.12455 0.0
O22 O 0.09574 0.15157 0.24916 0.0
O23 O 0.10438 0.18488 0.27201 0.0
H24 H 0.14823 0.11855 0.11369 0.0
O25 O 0.15071 0.17547 0.25026 0.0
O26 O 0.14619 0.14146 0.23609 0.0
O27 O 0.14917 0.19154 0.10419 0.0
O28 O 0.14409 0.15828 0.07104 0.0
C29 C 0.15655 0.15691 0.26478 0.0
H30 H 0.07773 0.08499 0.07755 0.0
H31 H 0.14659 0.08203 0.06703 0.0
H32 H 0.16078 0.222 0.44019 0.0
H33 H 0.17526 0.26697 0.19621 0.0
C34 C 0.20929 0.75041 0.23009 0.0
N35 N 0.25199 0.76995 0.39118 0.0
C36 C 0.26295 0.75179 0.3741 0.0
C37 C 0.28517 0.75237 0.36159 0.0
C38 C 0.29647 0.7718 0.36698 0.0
C39 C 0.28499 0.78974 0.3921 0.0
C40 C 0.26281 0.78851 0.40331 0.0
Zn41 Zn 0.21942 0.77297 0.36258 0.0
C42 C 0.2157 0.81194 0.26596 0.0
N43 N 0.15876 0.78946 0.27447 0.0
C44 C 0.16375 0.79413 0.20209 0.0
C45 C 0.13824 0.79115 0.29839 0.0
C46 C 0.1219 0.79535 0.24688 0.0
C47 C 0.12676 0.797 0.17043 0.0
C48 C 0.14809 0.79809 0.14955 0.0
Zn49 Zn 0.18601 0.78151 0.33508 0.0
O50 O 0.22439 0.74973 0.27665 0.0
C51 C 0.18684 0.74207 0.431 0.0
O52 O 0.19369 0.76264 0.24195 0.0
H53 H 0.13445 0.78842 0.35624 0.0
H54 H 0.25431 0.73716 0.36351 0.0
H55 H 0.18002 0.79372 0.18265 0.0
O56 O 0.20678 0.74711 0.43563 0.0
O57 O 0.17458 0.75322 0.38904 0.0
H58 H 0.25402 0.80295 0.41518 0.0
O59 O 0.17817 0.79952 0.42508 0.0
O60 O 0.21247 0.79666 0.4528 0.0
O61 O 0.19715 0.80922 0.29015 0.0
O62 O 0.22975 0.79812 0.2826 0.0
C63 C 0.19384 0.80439 0.46648 0.0
H64 H 0.29303 0.73803 0.34246 0.0
H65 H 0.29284 0.80499 0.39937 0.0
H66 H 0.10553 0.79545 0.26563 0.0
H67 H 0.15256 0.79944 0.09158 0.0
C68 C 0.6288 0.85752 0.5675 0.0
N69 N 0.60234 0.91681 0.64694 0.0
C70 C 0.62019 0.9257 0.61629 0.0
C71 C 0.61972 0.94652 0.58688 0.0
C72 C 0.60069 0.95851 0.58853 0.0
C73 C 0.58276 0.94911 0.6229 0.0
C74 C 0.58391 0.92828 0.65138 0.0
Zn75 Zn 0.6015 0.88433 0.67665 0.0
C76 C 0.56726 0.8612 0.59179 0.0
N77 N 0.59932 0.818 0.7271 0.0
C78 C 0.59034 0.80597 0.67303 0.0
C79 C 0.59255 0.81612 0.79892 0.0
C80 C 0.57207 0.80813 0.8134 0.0
C81 C 0.55991 0.80051 0.75387 0.0
C82 C 0.57018 0.79732 0.68494 0.0
Zn83 Zn 0.60272 0.84917 0.69501 0.0
O84 O 0.62095 0.87606 0.57946 0.0
C85 C 0.63818 0.86974 0.77563 0.0
O86 O 0.62456 0.84228 0.61174 0.0
H87 H 0.6007 0.82484 0.84232 0.0
H88 H 0.63468 0.9164 0.61232 0.0
H89 H 0.59649 0.80679 0.61698 0.0
O90 O 0.63129 0.88664 0.74358 0.0
O91 O 0.62788 0.85245 0.76846 0.0
H92 H 0.56978 0.92103 0.67516 0.0
O93 O 0.58062 0.85589 0.77487 0.0
O94 O 0.58103 0.89058 0.77682 0.0
O95 O 0.57751 0.84572 0.61923 0.0
O96 O 0.57293 0.88022 0.60746 0.0
C97 C 0.57388 0.87293 0.80239 0.0
H98 H 0.63396 0.95281 0.56058 0.0
H99 H 0.5678 0.95766 0.62715 0.0
H100 H 0.5653 0.80945 0.86851 0.0
H101 H 0.56207 0.78979 0.63877 0.0
C102 C 0.53406 0.28532 0.80702 0.0
N103 N 0.46992 0.26169 0.85936 0.0
C104 C 0.46048 0.28063 0.84153 0.0
C105 C 0.43956 0.28121 0.81239 0.0
C106 C 0.42808 0.26212 0.80078 0.0
C107 C 0.43825 0.24289 0.82056 0.0
C108 C 0.45906 0.24304 0.84959 0.0
Zn109 Zn 0.50131 0.25968 0.90267 0.0
C110 C 0.52648 0.22379 0.84101 0.0
N111 N 0.56328 0.25501 0.99916 0.0
C112 C 0.58202 0.23915 0.96022 0.0
C113 C 0.56102 0.26268 0.08853 0.0
C114 C 0.57957 0.25283 0.15971 0.0
C115 C 0.60169 0.23245 0.12508 0.0
C116 C 0.60326 0.22689 0.01748 0.0
Zn117 Zn 0.5351 0.26021 0.94256 0.0
O118 O 0.5142 0.28101 0.81677 0.0
C119 C 0.51276 0.29631 1.00747 0.0
O120 O 0.54793 0.2778 0.85202 0.0
H121 H 0.54745 0.27196 0.10649 0.0
H122 H 0.46921 0.29537 0.84948 0.0
H123 H 0.58084 0.23493 0.90221 0.0
O124 O 0.4962 0.28733 0.97941 0.0
O125 O 0.53095 0.28829 0.99649 0.0
H126 H 0.46655 0.22809 0.86433 0.0
O127 O 0.52242 0.24348 0.03038 0.0
O128 O 0.49051 0.23697 0.98773 0.0
O129 O 0.53954 0.23187 0.88667 0.0
O130 O 0.50845 0.23278 0.83068 0.0
C131 C 0.50473 0.23412 0.03709 0.0
H132 H 0.43263 0.29646 0.7977 0.0
H133 H 0.43014 0.22773 0.81431 0.0
H134 H 0.57668 0.25566 0.2181 0.0
H135 H 0.61386 0.21506 0.99438 0.0
C136 C 0.06878 0.85998 0.80487 0.0
N137 N 0.10358 0.80985 0.89476 0.0
C138 C 0.08334 0.80356 0.87765 0.0
C139 C 0.07821 0.7999 0.80311 0.0
C140 C 0.09472 0.80029 0.75007 0.0
C141 C 0.11597 0.79926 0.77679 0.0
C142 C 0.12 0.80335 0.85143 0.0
Zn143 Zn 0.10437 0.84265 0.90613 0.0
C144 C 0.1314 0.86248 0.78424 0.0
N145 N 0.10145 0.91205 0.91444 0.0
C146 C 0.08219 0.92158 0.92627 0.0
C147 C 0.11982 0.92372 0.91912 0.0
C148 C 0.11927 0.9455 0.93817 0.0
C149 C 0.09963 0.95561 0.95318 0.0
C150 C 0.08092 0.94327 0.94554 0.0
Zn151 Zn 0.10242 0.8786 0.90117 0.0
O152 O 0.07788 0.84427 0.8348 0.0
C153 C 0.07585 0.85662 0.02234 0.0
O154 O 0.07546 0.87872 0.82055 0.0
H155 H 0.13505 0.91598 0.91045 0.0
H156 H 0.07046 0.80672 0.91615 0.0
H157 H 0.06771 0.91219 0.92289 0.0
O158 O 0.08433 0.84013 0.995 0.0
O159 O 0.08028 0.875 0.99564 0.0
H160 H 0.13629 0.80616 0.86905 0.0
O161 O 0.1299 0.87651 0.97811 0.0
O162 O 0.13095 0.84136 0.97491 0.0
O163 O 0.12447 0.88048 0.80704 0.0
O164 O 0.12508 0.84554 0.81555 0.0
C165 C 0.13886 0.85893 0.9968 0.0
H166 H 0.06158 0.79894 0.78736 0.0
H167 H 0.12949 0.7968 0.74032 0.0
H168 H 0.13419 0.9541 0.94386 0.0
H169 H 0.06534 0.95022 0.95515 0.0
C170 C 0.51093 0.72844 0.05519 0.0
N171 N 0.56399 0.74995 0.16496 0.0
C172 C 0.56788 0.72866 0.1747 0.0
C173 C 0.57342 0.71611 0.11366 0.0
C174 C 0.57681 0.72618 0.04538 0.0
C175 C 0.57853 0.74864 0.04406 0.0
C176 C 0.57291 0.76029 0.10656 0.0
Zn177 Zn 0.53171 0.75683 0.17034 0.0
C178 C 0.51802 0.7928 0.06619 0.0
N179 N 0.46248 0.76475 0.17821 0.0
C180 C 0.45065 0.74661 0.17035 0.0
C181 C 0.45318 0.78286 0.20504 0.0
C182 C 0.43162 0.78284 0.22796 0.0
C183 C 0.41935 0.76397 0.22392 0.0
C184 C 0.42915 0.74592 0.19236 0.0
Zn185 Zn 0.49599 0.76148 0.16783 0.0
O186 O 0.52801 0.73448 0.08585 0.0
C187 C 0.51041 0.72642 0.27132 0.0
O188 O 0.49333 0.73713 0.07554 0.0
H189 H 0.46271 0.79711 0.21232 0.0
H190 H 0.56365 0.72077 0.22595 0.0
H191 H 0.45817 0.73219 0.15055 0.0
O192 O 0.52826 0.73261 0.24707 0.0
O193 O 0.49357 0.73602 0.2506 0.0
H194 H 0.57234 0.7775 0.10323 0.0
O195 O 0.50181 0.78598 0.25641 0.0
O196 O 0.53623 0.77881 0.25278 0.0
O197 O 0.49916 0.78707 0.08526 0.0
O198 O 0.53398 0.78263 0.0919 0.0
C199 C 0.52095 0.78993 0.27798 0.0
H200 H 0.5737 0.69888 0.11868 0.0
H201 H 0.58319 0.75722 0.99438 0.0
H202 H 0.425 0.79718 0.25213 0.0
H203 H 0.42046 0.73107 0.1864 0.0
C204 C 0.63944 0.1759 0.26811 0.0
N205 N 0.62263 0.22165 0.42772 0.0
C206 C 0.63174 0.22403 0.4961 0.0
C207 C 0.65292 0.23103 0.50142 0.0
C208 C 0.66362 0.2372 0.43653 0.0
C209 C 0.65148 0.2399 0.37108 0.0
C210 C 0.63057 0.23239 0.36849 0.0
Zn211 Zn 0.61621 0.19022 0.4044 0.0
C212 C 0.57687 0.18229 0.31773 0.0
N213 N 0.6084 0.12173 0.38028 0.0
C214 C 0.62654 0.11019 0.36894 0.0
C215 C 0.59028 0.11187 0.40484 0.0
C216 C 0.59046 0.09011 0.42445 0.0
C217 C 0.60947 0.0782 0.41885 0.0
C218 C 0.62738 0.08844 0.38739 0.0
Zn219 Zn 0.61174 0.15505 0.38804 0.0
O220 O 0.63456 0.19191 0.30718 0.0
C221 C 0.6503 0.16593 0.48088 0.0
O222 O 0.63242 0.15743 0.28699 0.0
H223 H 0.57602 0.12117 0.41467 0.0
H224 H 0.62476 0.21619 0.54381 0.0
H225 H 0.64094 0.1182 0.35066 0.0
O226 O 0.64356 0.18386 0.46098 0.0
O227 O 0.63986 0.14939 0.4615 0.0
H228 H 0.62247 0.23154 0.31558 0.0
O229 O 0.59102 0.15452 0.4835 0.0
O230 O 0.59761 0.18855 0.50023 0.0
O231 O 0.58291 0.16271 0.32044 0.0
O232 O 0.58856 0.1967 0.34658 0.0
C233 C 0.58798 0.17166 0.5195 0.0
H234 H 0.66124 0.22992 0.55398 0.0
H235 H 0.65841 0.24648 0.32091 0.0
H236 H 0.5762 0.08316 0.44848 0.0
H237 H 0.6423 0.07999 0.38001 0.0
C238 C 0.20494 0.29253 0.50599 0.0
N239 N 0.15881 0.25844 0.62852 0.0
C240 C 0.15171 0.24434 0.57697 0.0
C241 C 0.14423 0.22427 0.59973 0.0
C242 C 0.14201 0.22021 0.67601 0.0
C243 C 0.14375 0.23773 0.72507 0.0
C244 C 0.15188 0.257 0.69963 0.0
Zn245 Zn 0.19113 0.26372 0.62436 0.0
C246 C 0.21094 0.22812 0.53481 0.0
N247 N 0.26064 0.26851 0.63248 0.0
C248 C 0.26998 0.28813 0.63698 0.0
C249 C 0.27259 0.25058 0.64301 0.0
C250 C 0.29439 0.25194 0.66133 0.0
C251 C 0.30434 0.27198 0.66944 0.0
C252 C 0.29177 0.29021 0.65514 0.0
Zn253 Zn 0.22705 0.26519 0.62697 0.0
O254 O 0.18839 0.28467 0.53638 0.0
C255 C 0.20377 0.29905 0.72089 0.0
O256 O 0.22354 0.28683 0.52867 0.0
H257 H 0.26499 0.23508 0.64073 0.0
H258 H 0.15547 0.2473 0.51972 0.0
H259 H 0.26036 0.30229 0.62933 0.0
O260 O 0.18784 0.28929 0.69444 0.0
O261 O 0.22264 0.2929 0.70354 0.0
H262 H 0.15631 0.26897 0.73989 0.0
O263 O 0.22891 0.24468 0.72284 0.0
O264 O 0.19413 0.24229 0.71499 0.0
O265 O 0.22906 0.23589 0.55397 0.0
O266 O 0.19422 0.23788 0.55399 0.0
C267 C 0.21142 0.23687 0.74604 0.0
H268 H 0.14148 0.21188 0.559 0.0
H269 H 0.14016 0.23637 0.78363 0.0
H270 H 0.30305 0.23735 0.67251 0.0
H271 H 0.29857 0.30606 0.65924 0.0
C272 C 0.03184 0.23272 0.59461 0.0
N273 N 0.06755 0.27104 0.74693 0.0
C274 C 0.08099 0.25732 0.71268 0.0
C275 C 0.0893 0.24035 0.7529 0.0
C276 C 0.08471 0.23843 0.82938 0.0
C277 C 0.07556 0.25585 0.8657 0.0
C278 C 0.06756 0.27267 0.8227 0.0
Zn279 Zn 0.03732 0.26996 0.70246 0.0
C280 C 0.03062 0.29681 0.57205 0.0
N281 N 0.97045 0.26335 0.64394 0.0
C282 C 0.961 0.24377 0.6476 0.0
C283 C 0.95823 0.28132 0.6486 0.0
C284 C 0.93622 0.28002 0.66422 0.0
C285 C 0.92628 0.26001 0.6745 0.0
C286 C 0.93899 0.24175 0.66209 0.0
Zn287 Zn 1.00363 0.26546 0.66575 0.0
O288 O 0.04427 0.2421 0.63989 0.0
C289 C 1.01443 0.23972 0.8018 0.0
O290 O 1.01259 0.23941 0.5884 0.0
H291 H 0.9658 0.29683 0.64646 0.0
H292 H 0.08189 0.25701 0.65272 0.0
H293 H 0.97078 0.22958 0.64498 0.0
O294 O 0.03043 0.2514 0.79183 0.0
O295 O 0.99909 0.24082 0.75543 0.0
H296 H 0.05757 0.28435 0.84984 0.0
O297 O 0.99612 0.29204 0.74121 0.0
O298 O 0.03034 0.29696 0.75943 0.0
O299 O 1.01115 0.29024 0.57792 0.0
O300 O 0.04481 0.28894 0.61435 0.0
C301 C 1.01134 0.30309 0.76792 0.0
H302 H 0.09765 0.228 0.72299 0.0
H303 H 0.07288 0.25557 0.92506 0.0
H304 H 0.9275 0.29469 0.67312 0.0
H305 H 0.93227 0.22589 0.66671 0.0
C306 C 0.70833 0.81299 0.03189 0.0
N307 N 0.65125 0.78172 0.04122 0.0
C308 C 0.65079 0.79307 0.97608 0.0
C309 C 0.64264 0.78384 0.91133 0.0
C310 C 0.6341 0.76328 0.91487 0.0
C311 C 0.6309 0.75408 0.98555 0.0
C312 C 0.63912 0.76389 0.04837 0.0
Zn313 Zn 0.68087 0.77904 0.09261 0.0
C314 C 0.70531 0.75039 0.98659 0.0
N315 N 0.74697 0.7713 0.1656 0.0
C316 C 0.75657 0.78988 0.18652 0.0
C317 C 0.75782 0.7525 0.17093 0.0
C318 C 0.77894 0.75197 0.19833 0.0
C319 C 0.78922 0.77097 0.22073 0.0
C320 C 0.77757 0.79009 0.21375 0.0
Zn321 Zn 0.71519 0.77347 0.12614 0.0
O322 O 0.68976 0.80579 0.03937 0.0
C323 C 0.68763 0.80127 0.23099 0.0
O324 O 0.72394 0.80277 0.06044 0.0
H325 H 0.75008 0.73781 0.15438 0.0
H326 H 0.65857 0.80836 0.97118 0.0
H327 H 0.74789 0.80474 0.18218 0.0
O328 O 0.67292 0.79771 0.18384 0.0
O329 O 0.70631 0.79346 0.22079 0.0
H330 H 0.63778 0.75581 0.10105 0.0
O331 O 0.70498 0.74515 0.19106 0.0
O332 O 0.67244 0.7514 0.15113 0.0
O333 O 0.7215 0.75248 0.02935 0.0
O334 O 0.68834 0.76032 1.00156 0.0
C335 C 0.68519 0.73998 0.18881 0.0
H336 H 0.64389 0.79224 0.85889 0.0
H337 H 0.62278 0.739 0.99259 0.0
H338 H 0.78695 0.73674 0.2031 0.0
H339 H 0.78464 0.80527 0.22851 0.0
C340 C 0.70623 0.24075 0.74515 0.0
N341 N 0.75984 0.26894 0.85928 0.0
C342 C 0.76972 0.25025 0.84109 0.0
C343 C 0.79147 0.24997 0.82031 0.0
C344 C 0.8033 0.26911 0.81737 0.0
C345 C 0.79297 0.28786 0.84112 0.0
C346 C 0.77132 0.28743 0.86158 0.0
Zn347 Zn 0.72612 0.27198 0.85807 0.0
C348 C 0.71387 0.30408 0.74152 0.0
N349 N 0.65914 0.28117 0.83148 0.0
C350 C 0.64489 0.26512 0.84069 0.0
C351 C 0.65313 0.30201 0.83839 0.0
C352 C 0.63403 0.307 0.87398 0.0
C353 C 0.62152 0.29021 0.90125 0.0
C354 C 0.62529 0.26951 0.87338 0.0
Zn355 Zn 0.69073 0.27486 0.8412 0.0
O356 O 0.72405 0.24681 0.77273 0.0
C357 C 0.70058 0.24248 0.96011 0.0
O358 O 0.68917 0.25034 0.76328 0.0
H359 H 0.66454 0.31466 0.82842 0.0
H360 H 0.76048 0.23568 0.83803 0.0
H361 H 0.64985 0.24873 0.83344 0.0
O362 O 0.71999 0.24764 0.94509 0.0
O363 O 0.68547 0.25177 0.92564 0.0
H364 H 0.76336 0.30226 0.87458 0.0
O365 O 0.69183 0.29922 0.9209 0.0
O366 O 0.72602 0.2973 0.9449 0.0
O367 O 0.69568 0.29709 0.75945 0.0
O368 O 0.73044 0.29628 0.77196 0.0
C369 C 0.70782 0.30598 0.95664 0.0
H370 H 0.79853 0.23508 0.80238 0.0
H371 H 0.80134 0.30299 0.84137 0.0
H372 H 0.63138 0.32321 0.89259 0.0
H373 H 0.61576 0.25606 0.89073 0.0
C374 C 1.01505 0.78662 0.30718 0.0
N375 N 0.95687 0.75824 0.386 0.0
C376 C 0.94667 0.77728 0.37631 0.0
C377 C 0.92495 0.77794 0.35527 0.0
C378 C 0.91354 0.75884 0.34305 0.0
C379 C 0.92436 0.73953 0.35616 0.0
C380 C 0.9459 0.73959 0.37747 0.0
Zn381 Zn 0.99028 0.75536 0.40066 0.0
C382 C 1.00953 0.7246 0.29328 0.0
N383 N 0.05809 0.74582 0.42372 0.0
C384 C 0.06986 0.76063 0.38733 0.0
C385 C 0.06174 0.72458 0.41133 0.0
C386 C 0.07002 0.7182 0.34261 0.0
C387 C 0.07647 0.73411 0.29314 0.0
C388 C 0.07896 0.75508 0.31987 0.0
Zn389 Zn 0.02595 0.75293 0.41719 0.0
O390 O 0.99602 0.78041 0.32055 0.0
C391 C 1.01045 0.78489 0.52209 0.0
O392 O 0.03063 0.77768 0.3398 0.0
H393 H 0.05375 0.71267 0.44476 0.0
H394 H 0.95555 0.79201 0.38224 0.0
H395 H 0.06816 0.77735 0.40104 0.0
O396 O 0.99233 0.77965 0.49329 0.0
O397 O 0.02731 0.77545 0.50098 0.0
H398 H 0.9541 0.72455 0.38459 0.0
O399 O 0.02071 0.72916 0.49261 0.0
O400 O 0.98579 0.72964 0.48241 0.0
O401 O 0.02509 0.73103 0.33119 0.0
O402 O 0.99099 0.73188 0.30779 0.0
C403 C 1.00271 0.72165 0.51032 0.0
H404 H 0.91745 0.79325 0.34555 0.0
H405 H 0.91632 0.72436 0.34881 0.0
H406 H 0.06887 0.70169 0.32532 0.0
H407 H 0.0849 0.76757 0.28427 0.0
C408 C 0.56948 0.65863 0.53574 0.0
N409 N 0.61314 0.6191 0.64075 0.0
C410 C 0.59588 0.6061 0.65088 0.0
C411 C 0.59716 0.58414 0.63631 0.0
C412 C 0.61639 0.57517 0.61073 0.0
C413 C 0.6343 0.58876 0.6051 0.0
C414 C 0.63232 0.61069 0.62015 0.0
Zn415 Zn 0.60706 0.65192 0.63128 0.0
C416 C 0.63122 0.67194 0.50238 0.0
N417 N 0.59062 0.71668 0.59091 0.0
C418 C 0.58018 0.71884 0.52468 0.0
C419 C 0.5845 0.72793 0.65099 0.0
C420 C 0.56459 0.73766 0.65142 0.0
C421 C 0.55114 0.736 0.58878 0.0
C422 C 0.55981 0.72802 0.52282 0.0
Zn423 Zn 0.60055 0.6866 0.61639 0.0
O424 O 0.58142 0.64315 0.55383 0.0
C425 C 0.57536 0.66957 0.74611 0.0
O426 O 0.57447 0.67706 0.55669 0.0
H427 H 0.59335 0.72619 0.70183 0.0
H428 H 0.58063 0.61295 0.66573 0.0
H429 H 0.58561 0.71003 0.47665 0.0
O430 O 0.58386 0.65181 0.72671 0.0
O431 O 0.58055 0.68635 0.71118 0.0
H432 H 0.64581 0.62115 0.61084 0.0
O433 O 0.62744 0.69601 0.68085 0.0
O434 O 0.63284 0.66196 0.70721 0.0
O435 O 0.61968 0.68745 0.5222 0.0
O436 O 0.62999 0.65434 0.53795 0.0
C437 C 0.63822 0.68164 0.71443 0.0
H438 H 0.58298 0.57441 0.64303 0.0
H439 H 0.64948 0.58279 0.58519 0.0
H440 H 0.5592 0.7451 0.70209 0.0
H441 H 0.55043 0.72742 0.47234 0.0
C442 C 0.13099 0.35853 1.00196 0.0
N443 N 0.10834 0.4144 0.11811 0.0
C444 C 0.12816 0.42264 0.10514 0.0
C445 C 0.13084 0.44428 0.08644 0.0
C446 C 0.113 0.4579 0.08023 0.0
C447 C 0.09283 0.44912 0.09713 0.0
C448 C 0.09086 0.42737 0.1158 0.0
Zn449 Zn 0.10434 0.38091 0.12532 0.0
C450 C 0.06762 0.36567 0.03346 0.0
N451 N 0.09653 0.31328 0.12386 0.0
C452 C 0.11351 0.30008 0.11671 0.0
C453 C 0.07792 0.30641 0.15545 0.0
C454 C 0.07777 0.2877 0.19753 0.0
C455 C 0.09668 0.27593 0.20324 0.0
C456 C 0.11365 0.28083 0.15468 0.0
Zn457 Zn 0.10216 0.34518 0.11888 0.0
O458 O 0.12651 0.37676 0.02986 0.0
C459 C 0.13811 0.35783 0.21774 0.0
O460 O 0.12198 0.34194 0.02731 0.0
H461 H 0.0642 0.31686 0.15779 0.0
H462 H 0.14192 0.41223 0.10649 0.0
H463 H 0.12807 0.30572 0.091 0.0
O464 O 0.13129 0.37669 0.2035 0.0
O465 O 0.12897 0.34192 0.18794 0.0
H466 H 0.07516 0.42068 0.1253 0.0
O467 O 0.08267 0.34823 0.21142 0.0
O468 O 0.08216 0.38309 0.22048 0.0
O469 O 0.07576 0.34809 0.05295 0.0
O470 O 0.07674 0.38312 0.05124 0.0
C471 C 0.07585 0.3648 0.24312 0.0
H472 H 0.14682 0.45015 0.0756 0.0
H473 H 0.07849 0.45867 0.09269 0.0
H474 H 0.06428 0.28429 0.23334 0.0
H475 H 0.12856 0.27227 0.15668 0.0
C476 C 0.58173 0.36071 0.2673 0.0
N477 N 0.62768 0.31513 0.32627 0.0
C478 C 0.63441 0.31299 0.25464 0.0
C479 C 0.65573 0.30762 0.24041 0.0
C480 C 0.66905 0.30192 0.29971 0.0
C481 C 0.65953 0.29926 0.37045 0.0
C482 C 0.63855 0.30563 0.38221 0.0
Zn483 Zn 0.61909 0.3457 0.35307 0.0
C484 C 0.64437 0.37271 0.24304 0.0
N485 N 0.60984 0.41334 0.39322 0.0
C486 C 0.59078 0.42053 0.41984 0.0
C487 C 0.62702 0.4267 0.38967 0.0
C488 C 0.62561 0.44786 0.41443 0.0
C489 C 0.60631 0.45569 0.44356 0.0
C490 C 0.58865 0.44167 0.44504 0.0
Zn491 Zn 0.6151 0.38103 0.36833 0.0
O492 O 0.59275 0.34424 0.28201 0.0
C493 C 0.59173 0.35065 0.48119 0.0
O494 O 0.58719 0.37881 0.29427 0.0
H495 H 0.64215 0.42079 0.36932 0.0
H496 H 0.62506 0.31987 0.21015 0.0
H497 H 0.57734 0.40971 0.42348 0.0
O498 O 0.59949 0.33612 0.44026 0.0
O499 O 0.59544 0.37032 0.4655 0.0
H500 H 0.63262 0.30669 0.43851 0.0
O501 O 0.64221 0.38212 0.44088 0.0
O502 O 0.64559 0.34766 0.42553 0.0
O503 O 0.636 0.38944 0.27108 0.0
O504 O 0.63903 0.35489 0.26862 0.0
C505 C 0.65211 0.36489 0.45439 0.0
H506 H 0.662 0.30914 0.18466 0.0
H507 H 0.66837 0.29344 0.41778 0.0
H508 H 0.63961 0.45799 0.41078 0.0
H509 H 0.57345 0.44676 0.46754 0.0
C510 C 0.13962 0.66639 0.7365 0.0
N511 N 0.11406 0.72137 0.78951 0.0
C512 C 0.0967 0.72778 0.75063 0.0
C513 C 0.09909 0.73571 0.67889 0.0
C514 C 0.11969 0.73833 0.64705 0.0
C515 C 0.13733 0.73426 0.69333 0.0
C516 C 0.13414 0.7263 0.76512 0.0
Zn517 Zn 0.1113 0.69194 0.83941 0.0
C518 C 0.07683 0.66672 0.76395 0.0
N519 N 0.11151 0.62518 0.90567 0.0
C520 C 0.12972 0.61344 0.91347 0.0
C521 C 0.09222 0.61645 0.92346 0.0
C522 C 0.09071 0.59546 0.9505 0.0
C523 C 0.10921 0.58294 0.95997 0.0
C524 C 0.12893 0.59231 0.94034 0.0
Zn525 Zn 0.11234 0.65714 0.86744 0.0
O526 O 0.13008 0.68316 0.7537 0.0
C527 C 0.14592 0.68341 0.9463 0.0
O528 O 0.13683 0.64985 0.7773 0.0
H529 H 0.07784 0.62582 0.91685 0.0
H530 H 0.08083 0.72434 0.77126 0.0
H531 H 0.14497 0.62051 0.89942 0.0
O532 O 0.1381 0.69795 0.90541 0.0
O533 O 0.13792 0.66469 0.94418 0.0
H534 H 0.14793 0.72095 0.79598 0.0
O535 O 0.0879 0.66757 0.95303 0.0
O536 O 0.09132 0.70162 0.92363 0.0
O537 O 0.08629 0.65048 0.79078 0.0
O538 O 0.08419 0.68516 0.77647 0.0
C539 C 0.08238 0.68718 0.96251 0.0
H540 H 0.08456 0.73913 0.64901 0.0
H541 H 0.15353 0.73623 0.67362 0.0
H542 H 0.07506 0.58907 0.96329 0.0
H543 H 0.14371 0.58359 0.94711 0.0
H544 H 0.18397 0.20686 0.05821 0.0
H545 H 0.15954 0.15368 0.93218 0.0
H546 H 0.18005 0.16558 0.82366 0.0
H547 H 0.19743 0.19602 0.75816 0.0
H548 H 0.22118 0.24917 0.88527 0.0
H549 H 0.20803 0.23267 0.99969 0.0
C550 C 0.18335 0.19764 1.00729 0.0
C551 C 0.16971 0.17977 1.00248 0.0
C552 C 0.19463 0.20494 0.94492 0.0
C553 C 0.16968 0.16762 0.93706 0.0
C554 C 0.18136 0.1745 0.87496 0.0
C555 C 0.20051 0.20346 0.81145 0.0
C556 C 0.21018 0.22375 0.81379 0.0
C557 C 0.19278 0.19387 0.87701 0.0
C558 C 0.21393 0.23347 0.88257 0.0
C559 C 0.20621 0.22413 0.94779 0.0
H560 H 0.20358 0.8532 0.25985 0.0
H561 H 0.22761 0.80179 0.12576 0.0
H562 H 0.20569 0.81371 0.02169 0.0
H563 H 0.17301 0.83278 0.98214 0.0
H564 H 0.14822 0.88376 0.11725 0.0
H565 H 0.1768 0.8779 0.20811 0.0
C566 C 0.20506 0.84546 0.20624 0.0
C567 C 0.21689 0.82635 0.20115 0.0
C568 C 0.19132 0.85168 0.14822 0.0
C569 C 0.21873 0.81653 0.1314 0.0
C570 C 0.20562 0.82298 0.07242 0.0
C571 C 0.17419 0.84292 0.03072 0.0
C572 C 0.15829 0.85839 0.04395 0.0
C573 C 0.19074 0.83952 0.08233 0.0
C574 C 0.16016 0.87167 0.10624 0.0
C575 C 0.1765 0.86829 0.15816 0.0
H576 H 0.50315 0.80682 0.4076 0.0
H577 H 0.55295 0.81643 0.24514 0.0
H578 H 0.56961 0.84328 0.32293 0.0
H579 H 0.57384 0.85929 0.44551 0.0
H580 H 0.52555 0.84973 0.61194 0.0
H581 H 0.50387 0.82916 0.52356 0.0
C582 C 0.51727 0.81526 0.3886 0.0
C583 C 0.52703 0.80923 0.32125 0.0
C584 C 0.52712 0.83083 0.43456 0.0
C585 C 0.54535 0.82039 0.29743 0.0
C586 C 0.55494 0.83583 0.34184 0.0
C587 C 0.55818 0.85334 0.4614 0.0
C588 C 0.55115 0.85617 0.53458 0.0
C589 C 0.54653 0.84051 0.41178 0.0
C590 C 0.53113 0.84794 0.55537 0.0
C591 C 0.51896 0.83582 0.50519 0.0
H592 H 0.51501 0.21325 0.69936 0.0
H593 H 0.55605 0.19448 0.8802 0.0
H594 H 0.57734 0.17267 0.79654 0.0
H595 H 0.58867 0.16526 0.6682 0.0
H596 H 0.54836 0.18459 0.48683 0.0
H597 H 0.52233 0.19948 0.57371 0.0
C598 C 0.5281 0.20374 0.72077 0.0
C599 C 0.53421 0.20581 0.79536 0.0
C600 C 0.54067 0.19155 0.67182 0.0
C601 C 0.55124 0.1934 0.82253 0.0
C602 C 0.56353 0.18099 0.77469 0.0
C603 C 0.57374 0.17193 0.64833 0.0
C604 C 0.57021 0.17378 0.57191 0.0
C605 C 0.55909 0.18087 0.6986 0.0
C606 C 0.55112 0.18283 0.54593 0.0
C607 C 0.53635 0.19152 0.5955 0.0
H608 H 0.04424 0.81826 0.3177 0.0
H609 H 0.99641 0.79194 0.17198 0.0
H610 H 1.00882 0.81516 0.07116 0.0
H611 H 0.03705 0.8385 0.02032 0.0
H612 H 0.08441 0.86525 0.1664 0.0
H613 H 0.06806 0.84686 0.27231 0.0
C614 C 0.03623 0.81803 0.26428 0.0
C615 C 0.0196 0.80334 0.25167 0.0
C616 C 0.04332 0.83157 0.20709 0.0
C617 C 1.0092 0.80319 0.18274 0.0
C618 C 0.01636 0.81639 0.12513 0.0
C619 C 0.04308 0.8411 0.07606 0.0
C620 C 0.06163 0.85343 0.0862 0.0
C621 C 0.03384 0.83012 0.13607 0.0
C622 C 0.0698 0.85628 0.15796 0.0
C623 C 0.06067 0.84545 0.21815 0.0
H624 H 0.02194 0.24836 0.94382 0.0
H625 H 1.01551 0.19603 0.79152 0.0
H626 H 0.03766 0.17358 0.87259 0.0
H627 H 0.06513 0.17166 0.97415 0.0
H628 H 0.07348 0.22672 0.11541 0.0
H629 H 0.04498 0.24511 0.05143 0.0
C630 C 0.02444 0.23166 0.93036 0.0
C631 C 0.01669 0.22382 0.86233 0.0
C632 C 0.03857 0.21955 0.974 0.0
C633 C 0.02066 0.20234 0.84453 0.0
C634 C 0.03385 0.18966 0.89016 0.0
C635 C 0.06045 0.18752 0.99155 0.0
C636 C 0.07195 0.19783 0.04889 0.0
C637 C 0.04396 0.19851 0.95294 0.0
C638 C 0.06547 0.21843 0.07061 0.0
C639 C 0.04893 0.22901 0.03436 0.0
H640 H 0.68266 0.20511 0.76447 0.0
H641 H 0.72558 0.23567 0.61048 0.0
H642 H 0.71598 0.20952 0.51475 0.0
H643 H 0.68955 0.18329 0.4692 0.0
H644 H 0.64668 0.15286 0.62352 0.0
H645 H 0.66268 0.17289 0.72576 0.0
C646 C 0.69036 0.2056 0.71053 0.0
C647 C 0.70463 0.22236 0.69397 0.0
C648 C 0.68477 0.19048 0.65607 0.0
C649 C 0.71461 0.22287 0.62432 0.0
C650 C 0.70902 0.20798 0.56959 0.0
C651 C 0.68468 0.18002 0.52592 0.0
C652 C 0.66697 0.16651 0.53874 0.0
C653 C 0.69342 0.19231 0.58393 0.0
C654 C 0.66049 0.1628 0.61223 0.0
C655 C 0.6693 0.17473 0.67052 0.0
H656 H 0.66276 0.83104 0.55307 0.0
H657 H 0.6217 0.87307 0.42863 0.0
H658 H 0.63739 0.86032 0.31229 0.0
H659 H 0.66018 0.83444 0.246 0.0
H660 H 0.70276 0.79395 0.37046 0.0
H661 H 0.68934 0.80901 0.48685 0.0
C662 C 0.65756 0.83767 0.50043 0.0
C663 C 0.64102 0.85285 0.49917 0.0
C664 C 0.66683 0.83042 0.43393 0.0
C665 C 0.6345 0.86148 0.43089 0.0
C666 C 0.64336 0.85406 0.3644 0.0
C667 C 0.66674 0.8292 0.29866 0.0
C668 C 0.68226 0.81296 0.29985 0.0
C669 C 0.65913 0.83814 0.3652 0.0
C670 C 0.69085 0.80645 0.36821 0.0
C671 C 0.68307 0.81497 0.43473 0.0
H672 H 0.70046 0.71954 0.3152 0.0
H673 H 0.64849 0.71913 0.15763 0.0
H674 H 0.62844 0.69473 0.23579 0.0
H675 H 0.62299 0.67806 0.35747 0.0
H676 H 0.67409 0.67768 0.51688 0.0
H677 H 0.69715 0.69721 0.42982 0.0
C678 C 0.68501 0.71366 0.2972 0.0
C679 C 0.6759 0.72164 0.23108 0.0
C680 C 0.67326 0.69945 0.34316 0.0
C681 C 0.65581 0.71373 0.20879 0.0
C682 C 0.64424 0.69967 0.2535 0.0
C683 C 0.6395 0.68143 0.37171 0.0
C684 C 0.64697 0.67606 0.44277 0.0
C685 C 0.65243 0.69305 0.32198 0.0
C686 C 0.66818 0.68111 0.46161 0.0
C687 C 0.68125 0.69261 0.41219 0.0
H688 H 0.69433 0.34178 0.75087 0.0
H689 H 0.73354 0.30377 0.6061 0.0
H690 H 0.72074 0.3242 0.49861 0.0
H691 H 0.69007 0.34434 0.44613 0.0
H692 H 0.65073 0.38203 0.59191 0.0
H693 H 0.67141 0.36985 0.69893 0.0
C694 C 0.70069 0.33858 0.69594 0.0
C695 C 0.71452 0.32117 0.68569 0.0
C696 C 0.69238 0.34953 0.63457 0.0
C697 C 0.72285 0.31711 0.61495 0.0
C698 C 0.71513 0.32844 0.55347 0.0
C699 C 0.68667 0.35053 0.50108 0.0
C700 C 0.66878 0.36374 0.51179 0.0
C701 C 0.69861 0.34339 0.56232 0.0
C702 C 0.66446 0.37185 0.58271 0.0
C703 C 0.67616 0.36474 0.64391 0.0
H704 H 0.0563 0.37754 0.8931 0.0
H705 H 0.03234 0.34941 0.0947 0.0
H706 H 1.00518 0.33004 0.02564 0.0
H707 H 0.99744 0.31254 0.9064 0.0
H708 H 0.02129 0.3404 0.70439 0.0
H709 H 0.03853 0.36891 0.77414 0.0
C710 C 0.04426 0.36824 0.92206 0.0
C711 C 0.04646 0.36455 0.9984 0.0
C712 C 0.02892 0.35664 0.88145 0.0
C713 C 0.03091 0.35236 0.03566 0.0
C714 C 1.01553 0.34102 0.99604 0.0
C715 C 1.00513 0.32569 0.87757 0.0
C716 C 1.00848 0.32426 0.80092 0.0
C717 C 1.01559 0.3417 0.91846 0.0
C718 C 0.01859 0.34126 0.76377 0.0
C719 C 0.02882 0.35737 0.80378 0.0
H720 H 1.01157 0.73533 0.14833 0.0
H721 H 0.02286 0.68358 0.30001 0.0
H722 H 0.04562 0.66586 0.20838 0.0
H723 H 0.06677 0.66781 0.09105 0.0
H724 H 0.0573 0.72187 0.94616 0.0
H725 H 0.02971 0.73564 0.02762 0.0
C726 C 0.01806 0.71961 0.15962 0.0
C727 C 1.01482 0.71044 0.22997 0.0
C728 C 0.03216 0.71011 0.10804 0.0
C729 C 0.02441 0.69061 0.24528 0.0
C730 C 0.03783 0.68067 0.19329 0.0
C731 C 0.05844 0.68242 0.07693 0.0
C732 C 0.06445 0.69382 0.01258 0.0
C733 C 0.04258 0.69069 0.12545 0.0
C734 C 0.05341 0.71281 0.99562 0.0
C735 C 0.03739 0.7207 0.04203 0.0
H736 H 0.55793 0.32365 0.49195 0.0
H737 H 0.60081 0.36158 0.62422 0.0
H738 H 0.58708 0.34464 0.73769 0.0
H739 H 0.56445 0.31691 0.79861 0.0
H740 H 0.51929 0.28162 0.66614 0.0
H741 H 0.53216 0.29955 0.55393 0.0
C742 C 0.56386 0.32857 0.54585 0.0
C743 C 0.58023 0.344 0.54974 0.0
C744 C 0.55563 0.31897 0.61084 0.0
C745 C 0.58794 0.35007 0.61985 0.0
C746 C 0.58024 0.34018 0.68467 0.0
C747 C 0.55733 0.31332 0.74517 0.0
C748 C 0.54104 0.29776 0.74067 0.0
C749 C 0.56437 0.32429 0.68082 0.0
C750 C 0.5318 0.29349 0.67119 0.0
C751 C 0.5392 0.30373 0.60691 0.0
H752 H 0.53046 0.67513 0.55327 0.0
H753 H 0.57011 0.64158 0.39697 0.0
H754 H 0.55041 0.65767 0.29391 0.0
H755 H 0.52953 0.68867 0.25187 0.0
H756 H 0.49242 0.7247 0.40916 0.0
H757 H 0.50336 0.70037 0.50874 0.0
C758 C 0.53391 0.67041 0.49656 0.0
C759 C 0.55176 0.65734 0.48239 0.0
C760 C 0.52345 0.68086 0.43805 0.0
C761 C 0.55632 0.65141 0.40911 0.0
C762 C 0.54535 0.66103 0.35022 0.0
C763 C 0.52313 0.69057 0.30748 0.0
C764 C 0.5103 0.70839 0.32374 0.0
C765 C 0.53002 0.67691 0.36436 0.0
C766 C 0.50213 0.71095 0.39558 0.0
C767 C 0.50857 0.69715 0.45249 0.0
H768 H 0.19838 0.70883 0.22904 0.0
H769 H 0.21443 0.76185 0.08734 0.0
H770 H 0.19829 0.74372 0.98119 0.0
H771 H 0.17387 0.71617 0.93549 0.0
H772 H 0.15575 0.66387 0.07809 0.0
H773 H 0.17858 0.67806 0.17689 0.0
C774 C 0.19925 0.71582 0.174 0.0
C775 C 0.20796 0.73637 0.1652 0.0
C776 C 0.18901 0.70569 0.11403 0.0
C777 C 0.2083 0.74579 0.09458 0.0
C778 C 0.19875 0.73558 0.03428 0.0
C779 C 0.17526 0.70763 0.98769 0.0
C780 C 0.16289 0.68919 0.99996 0.0
C781 C 0.18814 0.71604 0.04431 0.0
C782 C 0.16506 0.67813 0.0674 0.0
C783 C 0.17804 0.68631 0.12402 0.0
H784 H 0.17647 0.33207 0.7075 0.0
H785 H 0.21899 0.30155 0.86245 0.0
H786 H 0.20131 0.31993 0.96568 0.0
H787 H 0.16956 0.33948 0.01225 0.0
H788 H 0.12723 0.37009 0.85691 0.0
H789 H 0.14903 0.35712 0.75316 0.0
C790 C 0.18244 0.33018 0.76367 0.0
C791 C 0.19915 0.3156 0.77734 0.0
C792 C 0.1719 0.34051 0.82263 0.0
C793 C 0.2065 0.31299 0.85035 0.0
C794 C 0.19613 0.32325 0.90946 0.0
C795 C 0.1656 0.3439 0.95567 0.0
C796 C 0.14692 0.35583 0.94195 0.0
C797 C 0.17822 0.33629 0.89645 0.0
C798 C 0.14168 0.36121 0.86865 0.0
C799 C 0.15406 0.35363 0.80942 0.0
H800 H 0.10905 0.23653 0.22907 0.0
H801 H 0.09423 0.29327 0.34036 0.0
H802 H 0.12743 0.29304 0.41066 0.0
H803 H 0.16727 0.28241 0.40815 0.0
H804 H 0.20602 0.22693 0.30664 0.0
H805 H 0.17385 0.20786 0.23793 0.0
C806 C 0.11542 0.24741 0.27019 0.0
C807 C 0.10251 0.26569 0.2744 0.0
C808 C 0.13754 0.24669 0.29988 0.0
C809 C 0.10497 0.27985 0.33372 0.0
C810 C 0.12403 0.28027 0.372 0.0
C811 C 0.16514 0.26819 0.37278 0.0
C812 C 0.1881 0.25515 0.3587 0.0
C813 C 0.13983 0.26607 0.35129 0.0
C814 C 0.19022 0.23379 0.31273 0.0
C815 C 0.1709 0.22192 0.27237 0.0
H816 H 0.05149 0.75228 0.19111 0.0
H817 H 0.10378 0.70856 0.21133 0.0
H818 H 0.12222 0.72625 0.10911 0.0
H819 H 0.1316 0.76295 0.08357 0.0
H820 H 0.08639 0.8123 0.13451 0.0
H821 H 0.05737 0.78634 0.13157 0.0
C822 C 0.06645 0.74607 0.16955 0.0
C823 C 0.07735 0.73069 0.21205 0.0
C824 C 0.07879 0.75925 0.12392 0.0
C825 C 0.09574 0.72137 0.18217 0.0
C826 C 0.10647 0.7319 0.12468 0.0
C827 C 0.11516 0.76811 0.09023 0.0
C828 C 0.11114 0.789 0.1154 0.0
C829 C 0.09971 0.75257 0.10507 0.0
C830 C 0.08991 0.79602 0.11887 0.0
C831 C 0.0734 0.78098 0.11868 0.0
H832 H 0.5215 0.72729 0.69479 0.0
H833 H 0.52905 0.76263 0.49313 0.0
H834 H 0.51553 0.79438 0.55296 0.0
H835 H 0.52717 0.81269 0.66522 0.0
H836 H 0.53982 0.77606 0.861 0.0
H837 H 0.5193 0.74666 0.81187 0.0
C838 C 0.51887 0.74188 0.66364 0.0
C839 C 0.52876 0.74375 0.59375 0.0
C840 C 0.5157 0.76088 0.70298 0.0
C841 C 0.52337 0.76139 0.5498 0.0
C842 C 0.516 0.77983 0.58493 0.0
C843 C 0.52412 0.79855 0.69836 0.0
C844 C 0.53693 0.79514 0.76142 0.0
C845 C 0.51606 0.78038 0.66295 0.0
C846 C 0.53156 0.77822 0.80867 0.0
C847 C 0.51997 0.76112 0.77961 0.0
H848 H 0.58347 0.28108 0.95377 0.0
H849 H 0.64299 0.30495 0.02111 0.0
H850 H 0.6458 0.27993 0.12338 0.0
H851 H 0.6353 0.24323 0.17634 0.0
H852 H 0.57762 0.19843 0.14771 0.0
H853 H 0.55588 0.2219 0.05078 0.0
C854 C 0.59558 0.27893 0.99601 0.0
C855 C 0.61364 0.2913 0.97861 0.0
C856 C 0.59602 0.26115 0.05053 0.0
C857 C 0.6296 0.29441 0.03194 0.0
C858 C 0.63164 0.28001 0.08916 0.0
C859 C 0.62004 0.24228 0.14557 0.0
C860 C 0.60689 0.21989 0.1654 0.0
C861 C 0.61698 0.26363 0.09446 0.0
C862 C 0.58424 0.21374 0.13205 0.0
C863 C 0.57089 0.22782 0.07415 0.0
H864 H 0.11991 0.8161 0.63826 0.0
H865 H 0.0585 0.78665 0.67119 0.0
H866 H 0.06333 0.76579 0.56067 0.0
H867 H 0.09165 0.74121 0.52587 0.0
H868 H 0.15561 0.75852 0.57465 0.0
H869 H 0.14655 0.79614 0.56692 0.0
C870 C 0.10742 0.80531 0.61983 0.0
C871 C 0.09044 0.80047 0.66844 0.0
C872 C 0.1124 0.78992 0.56659 0.0
C873 C 0.07289 0.78923 0.63921 0.0
C874 C 0.0757 0.77716 0.57485 0.0
C875 C 0.10353 0.75361 0.5337 0.0
C876 C 0.12246 0.748 0.57067 0.0
C877 C 0.0966 0.77446 0.54828 0.0
C878 C 0.13929 0.76277 0.5616 0.0
C879 C 0.13405 0.78448 0.55755 0.0
H880 H 0.64309 0.7232 0.86889 0.0
H881 H 0.60671 0.77723 0.80527 0.0
H882 H 0.57376 0.75707 0.81614 0.0
H883 H 0.5592 0.73376 0.91097 0.0
H884 H 0.60129 0.6901 0.02129 0.0
H885 H 0.62589 0.69164 0.9177 0.0
C886 C 0.62809 0.72967 0.84956 0.0
C887 C 0.62628 0.75199 0.8477 0.0
C888 C 0.60947 0.71813 0.86542 0.0
C889 C 0.60767 0.76042 0.8166 0.0
C890 C 0.58876 0.74879 0.82359 0.0
C891 C 0.57346 0.7239 0.9098 0.0
C892 C 0.57996 0.714 0.976 0.0
C893 C 0.58955 0.72884 0.85903 0.0
C894 C 0.59684 0.69934 0.97288 0.0
C895 C 0.61113 0.70054 0.91354 0.0
H896 H 0.6931 0.2267 0.33194 0.0
H897 H 0.68787 0.25861 0.54166 0.0
H898 H 0.71013 0.28732 0.49656 0.0
H899 H 0.70404 0.31008 0.38819 0.0
H900 H 0.68871 0.28103 0.18085 0.0
H901 H 0.70337 0.24756 0.22309 0.0
C902 C 0.69786 0.23966 0.36838 0.0
C903 C 0.68685 0.24215 0.43593 0.0
C904 C 0.70661 0.25812 0.33681 0.0
C905 C 0.69465 0.25726 0.48656 0.0
C906 C 0.70728 0.274 0.45996 0.0
C907 C 0.70512 0.29643 0.35148 0.0
C908 C 0.69203 0.2964 0.28797 0.0
C909 C 0.70928 0.27634 0.38269 0.0
C910 C 0.6962 0.28054 0.23501 0.0
C911 C 0.70435 0.26106 0.2599 0.0
H912 H 0.15547 0.20182 0.80274 0.0
H913 H 0.11557 0.1886 0.61695 0.0
H914 H 0.08689 0.17722 0.69962 0.0
H915 H 0.07044 0.19878 0.79617 0.0
H916 H 0.11025 0.23118 0.95253 0.0
H917 H 0.1397 0.20754 0.92355 0.0
C918 C 0.14087 0.19502 0.78127 0.0
C919 C 0.13627 0.19874 0.70605 0.0
C920 C 0.12341 0.19338 0.82939 0.0
C921 C 0.11856 0.18812 0.67598 0.0
C922 C 0.10203 0.18191 0.7238 0.0
C923 C 0.08531 0.19945 0.82713 0.0
C924 C 0.08951 0.2181 0.86815 0.0
C925 C 0.10309 0.18883 0.79798 0.0
C926 C 0.10743 0.21805 0.9147 0.0
C927 C 0.12446 0.20459 0.89692 0.0
H928 H 0.08528 0.04662 0.10494 0.0
H929 H 0.13673 0.06346 0.95642 0.0
H930 H 0.13757 0.02711 0.90878 0.0
H931 H 0.12423 0.99006 0.9096 0.0
H932 H 0.07285 0.97295 0.05801 0.0
H933 H 0.07129 1.00956 0.10347 0.0
C934 C 0.09654 0.04243 0.06161 0.0
C935 C 0.11108 0.05799 0.03532 0.0
C936 C 0.09698 0.02125 0.03392 0.0
C937 C 0.1256 0.05195 0.97925 0.0
C938 C 0.12604 0.03108 0.95147 0.0
C939 C 0.11274 0.99424 0.95217 0.0
C940 C 0.09865 0.97845 0.97974 0.0
C941 C 0.11197 0.01548 0.97878 0.0
C942 C 0.08372 0.98457 0.03438 0.0
C943 C 0.08289 1.0056 0.06101 0.0
H944 H 0.32948 0.74234 0.37416 0.0
H945 H 0.31527 0.80594 0.2962 0.0
H946 H 0.3514 0.80944 0.24793 0.0
H947 H 0.38712 0.79422 0.22305 0.0
H948 H 0.40116 0.73046 0.29942 0.0
H949 H 0.36527 0.72727 0.35049 0.0
C950 C 0.33416 0.75698 0.34643 0.0
C951 C 0.31931 0.77388 0.34011 0.0
C952 C 0.35512 0.75886 0.31721 0.0
C953 C 0.32615 0.79273 0.30418 0.0
C954 C 0.34691 0.79472 0.27554 0.0
C955 C 0.38244 0.77966 0.25127 0.0
C956 C 0.39708 0.76254 0.25605 0.0
C957 C 0.36157 0.77788 0.28132 0.0
C958 C 0.39035 0.7438 0.29281 0.0
C959 C 0.36975 0.74198 0.32283 0.0
H960 H 0.57927 0.04585 0.42192 0.0
H961 H 0.64365 0.06043 0.49156 0.0
H962 H 0.64679 0.02527 0.54794 0.0
H963 H 0.63115 0.99043 0.58149 0.0
H964 H 0.56678 0.97573 0.51223 0.0
H965 H 0.56375 1.01075 0.45429 0.0
C966 C 0.59399 0.04143 0.44959 0.0
C967 C 0.61123 0.05603 0.45126 0.0
C968 C 0.5957 0.02105 0.48317 0.0
C969 C 0.63019 0.04963 0.48728 0.0
C970 C 0.63198 0.02947 0.52047 0.0
C971 C 0.61649 0.99473 0.55324 0.0
C972 C 0.59918 0.98021 0.55237 0.0
C973 C 0.61484 1.01502 0.51903 0.0
C974 C 0.58029 0.98649 0.51575 0.0
C975 C 0.57856 1.00658 0.4818 0.0
H976 H 0.3946 0.29029 0.82302 0.0
H977 H 0.41139 0.23346 0.70134 0.0
H978 H 0.37542 0.23162 0.65006 0.0
H979 H 0.33879 0.24571 0.63983 0.0
H980 H 0.32168 0.30233 0.76222 0.0
H981 H 0.35796 0.30486 0.81065 0.0
C982 C 0.39051 0.2776 0.78474 0.0
C983 C 0.40595 0.26191 0.76718 0.0
C984 C 0.36956 0.2766 0.75481 0.0
C985 C 0.39998 0.24555 0.71763 0.0
C986 C 0.37933 0.24454 0.68763 0.0
C987 C 0.34286 0.25858 0.67739 0.0
C988 C 0.32715 0.27382 0.69665 0.0
C989 C 0.36389 0.25985 0.70618 0.0
C990 C 0.33322 0.29051 0.74478 0.0
C991 C 0.35406 0.29189 0.77328 0.0
H992 H 0.83676 0.24051 0.83315 0.0
H993 H 0.8201 0.29973 0.72554 0.0
H994 H 0.85569 0.30195 0.6712 0.0
H995 H 0.8918 0.28725 0.65296 0.0
H996 H 0.90906 0.22872 0.76468 0.0
H997 H 0.8732 0.22592 0.81564 0.0
C998 C 0.84084 0.25387 0.79758 0.0
C999 C 0.82552 0.27003 0.7846 0.0
C1000 C 0.86159 0.25513 0.76604 0.0
C1001 C 0.83144 0.28723 0.73833 0.0
C1002 C 0.85186 0.28846 0.70649 0.0
C1003 C 0.88793 0.2739 0.68882 0.0
C1004 C 0.90358 0.25815 0.70356 0.0
C1005 C 0.86716 0.27256 0.72005 0.0
C1006 C 0.89762 0.24092 0.74986 0.0
C1007 C 0.87699 0.23938 0.78015 0.0
H1008 H 0.87942 0.78468 0.38086 0.0
H1009 H 0.89676 0.73271 0.2362 0.0
H1010 H 0.86049 0.73155 0.18703 0.0
H1011 H 0.82363 0.74542 0.18309 0.0
H1012 H 0.80588 0.79671 0.33039 0.0
H1013 H 0.84219 0.79811 0.37865 0.0
C1014 C 0.87532 0.77316 0.33832 0.0
C1015 C 0.89103 0.75872 0.313 0.0
C1016 C 0.85417 0.77247 0.31004 0.0
C1017 C 0.88513 0.74383 0.25805 0.0
C1018 C 0.8643 0.74321 0.22939 0.0
C1019 C 0.82753 0.75679 0.22629 0.0
C1020 C 0.81168 0.77106 0.25195 0.0
C1021 C 0.84861 0.75739 0.25499 0.0
C1022 C 0.81753 0.78577 0.30768 0.0
C1023 C 0.83841 0.78651 0.33602 0.0
H1024 H 0.58596 0.55152 0.53722 0.0
H1025 H 0.64942 0.54669 0.62934 0.0
H1026 H 0.6519 0.50985 0.5862 0.0
H1027 H 0.6362 0.47878 0.52201 0.0
H1028 H 0.57273 0.48366 0.43001 0.0
H1029 H 0.57002 0.52029 0.47499 0.0
C1030 C 0.60026 0.54239 0.54893 0.0
C1031 C 0.61749 0.55216 0.5868 0.0
C1032 C 0.6016 0.52104 0.52402 0.0
C1033 C 0.63598 0.53992 0.59972 0.0
C1034 C 0.63739 0.51872 0.57529 0.0
C1035 C 0.6218 0.48786 0.51114 0.0
C1036 C 0.6047 0.47821 0.47223 0.0
C1037 C 0.62036 0.50911 0.53697 0.0
C1038 C 0.58609 0.49034 0.46033 0.0
C1039 C 0.58456 0.51144 0.48575 0.0
H1040 H 0.13295 0.54723 0.92304 0.0
H1041 H 0.08233 0.56784 0.06891 0.0
H1042 H 0.079 0.53175 0.11823 0.0
H1043 H 0.09031 0.49399 0.12102 0.0
H1044 H 0.14084 0.47335 0.97473 0.0
H1045 H 0.14456 0.50954 0.92692 0.0
C1046 C 0.1213 0.54396 0.96612 0.0
C1047 C 0.10781 0.56056 0.99127 0.0
C1048 C 0.11948 0.52297 0.99501 0.0
C1049 C 0.0927 0.55558 0.04681 0.0
C1050 C 0.09086 0.53485 0.0757 0.0
C1051 C 0.10209 0.49729 0.07839 0.0
C1052 C 0.11534 0.4806 0.05241 0.0
C1053 C 0.10407 0.51833 0.05009 0.0
C1054 C 0.13063 0.48564 0.99751 0.0
C1055 C 0.13268 0.50644 0.96938 0.0
H1056 H 0.15781 0.15285 0.41433 0.0
H1057 H 0.19752 0.16236 0.22254 0.0
H1058 H 0.22177 0.18474 0.29467 0.0
H1059 H 0.22621 0.20894 0.40457 0.0
H1060 H 0.18627 0.19819 0.59591 0.0
H1061 H 0.16815 0.16908 0.53316 0.0
C1062 C 0.17257 0.15852 0.38959 0.0
C1063 C 0.17574 0.15568 0.31286 0.0
C1064 C 0.18613 0.1721 0.43115 0.0
C1065 C 0.19479 0.16379 0.28174 0.0
C1066 C 0.20844 0.17718 0.32272 0.0
C1067 C 0.21419 0.19963 0.43343 0.0
C1068 C 0.20734 0.20619 0.50442 0.0
C1069 C 0.20352 0.1826 0.39639 0.0
C1070 C 0.19172 0.19376 0.54091 0.0
C1071 C 0.18119 0.17708 0.50486 0.0
H1072 H 0.1678 0.83876 0.47248 0.0
H1073 H 0.20913 0.79984 0.60758 0.0
H1074 H 0.19511 0.81693 0.71984 0.0
H1075 H 0.16741 0.83916 0.7792 0.0
H1076 H 0.12655 0.87859 0.64441 0.0
H1077 H 0.14429 0.86542 0.53194 0.0
C1078 C 0.17414 0.83445 0.52649 0.0
C1079 C 0.18943 0.818 0.53193 0.0
C1080 C 0.16598 0.84438 0.59056 0.0
C1081 C 0.19753 0.81255 0.602 0.0
C1082 C 0.18936 0.8222 0.66614 0.0
C1083 C 0.16295 0.84543 0.72521 0.0
C1084 C 0.14585 0.85998 0.71989 0.0
C1085 C 0.17311 0.83763 0.66111 0.0
C1086 C 0.13994 0.86776 0.64987 0.0
C1087 C 0.1499 0.85999 0.58562 0.0
H1088 H 0.54754 0.82437 0.08258 0.0
H1089 H 0.4976 0.80279 0.93616 0.0
H1090 H 0.50751 0.83039 0.84564 0.0
H1091 H 0.53396 0.85688 0.80103 0.0
H1092 H 0.58362 0.87862 0.9478 0.0
H1093 H 0.56974 0.85555 0.04646 0.0
C1094 C 0.53857 0.82598 0.03136 0.0
C1095 C 0.52196 0.81135 0.01579 0.0
C1096 C 0.54415 0.84219 0.98014 0.0
C1097 C 0.51038 0.8138 0.94961 0.0
C1098 C 0.51608 0.8296 0.89782 0.0
C1099 C 0.54093 0.85759 0.85612 0.0
C1100 C 0.55957 0.86999 0.86727 0.0
C1101 C 0.53328 0.84356 0.91169 0.0
C1102 C 0.5689 0.86993 0.93817 0.0
C1103 C 0.56127 0.85623 0.99406 0.0
H1104 H 0.55293 0.16511 0.20142 0.0
H1105 H 0.55359 0.21567 0.36387 0.0
H1106 H 0.5248 0.23373 0.29983 0.0
H1107 H 0.50568 0.23955 0.18406 0.0
H1108 H 0.50628 0.19134 0.01479 0.0
H1109 H 0.52731 0.16783 0.09511 0.0
C1110 C 0.54629 0.17971 0.22383 0.0
C1111 C 0.55601 0.18934 0.28604 0.0
C1112 C 0.52985 0.1906 0.185 0.0
C1113 C 0.54701 0.20821 0.31467 0.0
C1114 C 0.53041 0.2186 0.27821 0.0
C1115 C 0.50925 0.22335 0.1667 0.0
C1116 C 0.50422 0.21716 0.09393 0.0
C1117 C 0.52251 0.21057 0.21133 0.0
C1118 C 0.50949 0.19634 0.07126 0.0
C1119 C 0.52207 0.18309 0.11662 0.0
H1120 H 0.03289 0.82179 0.51015 0.0
H1121 H 0.99555 0.78488 0.66475 0.0
H1122 H 1.00804 0.80753 0.76706 0.0
H1123 H 0.03384 0.8344 0.81418 0.0
H1124 H 0.07066 0.87173 0.65931 0.0
H1125 H 0.05385 0.85285 0.55547 0.0
C1126 C 0.02685 0.81924 0.56591 0.0
C1127 C 1.01298 0.80183 0.57957 0.0
C1128 C 0.03415 0.83241 0.62448 0.0
C1129 C 1.00576 0.7984 0.65237 0.0
C1130 C 1.01312 0.81126 0.71101 0.0
C1131 C 0.03742 0.83911 0.75755 0.0
C1132 C 0.05321 0.85487 0.74473 0.0
C1133 C 0.02781 0.82792 0.69805 0.0
C1134 C 0.05815 0.86023 0.67097 0.0
C1135 C 0.04878 0.84911 0.61152 0.0
H1136 H 0.02123 0.21887 0.45224 0.0
H1137 H 0.06349 0.20607 0.63609 0.0
H1138 H 0.08369 0.18109 0.56017 0.0
H1139 H 0.09391 0.16824 0.43665 0.0
H1140 H 0.05259 0.18056 0.25102 0.0
H1141 H 0.02795 0.20024 0.33153 0.0
C1142 C 0.03459 0.21029 0.47612 0.0
C1143 C 0.0409 0.21471 0.54987 0.0
C1144 C 0.04677 0.1961 0.43133 0.0
C1145 C 0.05837 0.20337 0.57942 0.0
C1146 C 0.07012 0.18913 0.53598 0.0
C1147 C 0.07896 0.17429 0.41466 0.0
C1148 C 0.07483 0.17233 0.33827 0.0
C1149 C 0.06509 0.18604 0.46114 0.0
C1150 C 0.0558 0.18114 0.31009 0.0
C1151 C 0.04188 0.19279 0.35603 0.0
H1152 H 0.66614 0.21567 0.96326 0.0
H1153 H 0.72223 0.23284 0.08865 0.0
H1154 H 0.70979 0.21066 0.19255 0.0
H1155 H 0.67983 0.19161 0.25519 0.0
H1156 H 0.62552 0.1717 0.12585 0.0
H1157 H 0.64055 0.1894 0.01612 0.0
C1158 C 0.67579 0.21442 0.01306 0.0
C1159 C 0.69493 0.22639 0.01857 0.0
C1160 C 0.66864 0.20145 0.07245 0.0
C1161 C 0.70741 0.22405 0.08287 0.0
C1162 C 0.70019 0.21147 0.14258 0.0
C1163 C 0.67166 0.19053 0.20224 0.0
C1164 C 0.65163 0.18014 0.19863 0.0
C1165 C 0.6804 0.20085 0.13922 0.0
C1166 C 0.64109 0.17918 0.12993 0.0
C1167 C 0.64949 0.18974 0.06754 0.0
H1168 H 0.65406 0.88205 0.91201 0.0
H1169 H 0.67077 0.85064 0.70769 0.0
H1170 H 0.70088 0.83319 0.76811 0.0
H1171 H 0.7158 0.81981 0.88574 0.0
H1172 H 0.70017 0.85165 0.08976 0.0
H1173 H 0.67726 0.87658 0.02298 0.0
C1174 C 0.665 0.87233 0.87995 0.0
C1175 C 0.66017 0.86766 0.8054 0.0
C1176 C 0.68244 0.86214 0.91545 0.0
C1177 C 0.67427 0.85463 0.76497 0.0
C1178 C 0.69141 0.84444 0.79974 0.0
C1179 C 0.70865 0.83316 0.91484 0.0
C1180 C 0.70963 0.83368 0.99283 0.0
C1181 C 0.69488 0.84709 0.87598 0.0
C1182 C 0.69992 0.85095 0.02965 0.0
C1183 C 0.68627 0.86492 0.99157 0.0
H1184 H 0.66499 0.71585 0.69918 0.0
H1185 H 0.65182 0.6623 0.84243 0.0
H1186 H 0.67622 0.67681 0.93599 0.0
H1187 H 0.69599 0.70809 0.98565 0.0
H1188 H 0.70853 0.76168 0.84251 0.0
H1189 H 0.69038 0.74366 0.74009 0.0
C1190 C 0.66786 0.70708 0.75013 0.0
C1191 C 0.65617 0.68821 0.76433 0.0
C1192 C 0.68206 0.71552 0.80371 0.0
C1193 C 0.6604 0.67691 0.83016 0.0
C1194 C 0.67435 0.68527 0.88392 0.0
C1195 C 0.69587 0.71524 0.93078 0.0
C1196 C 0.70424 0.73601 0.92133 0.0
C1197 C 0.68467 0.70498 0.87253 0.0
C1198 C 0.70295 0.74547 0.85071 0.0
C1199 C 0.69216 0.73529 0.7924 0.0
H1200 H 0.68412 0.35656 0.24634 0.0
H1201 H 0.63748 0.38368 0.09833 0.0
H1202 H 0.6552 0.36661 0.9926 0.0
H1203 H 0.67981 0.33879 0.94659 0.0
H1204 H 0.72583 0.31068 0.0952 0.0
H1205 H 0.71272 0.33341 0.19631 0.0
C1206 C 0.67856 0.35972 0.19035 0.0
C1207 C 0.65974 0.37192 0.18022 0.0
C1208 C 0.68841 0.34911 0.13027 0.0
C1209 C 0.65225 0.37509 0.10765 0.0
C1210 C 0.66216 0.36488 0.04734 0.0
C1211 C 0.6874 0.33805 1.00065 0.0
C1212 C 0.70386 0.32298 0.01316 0.0
C1213 C 0.67962 0.35108 0.05856 0.0
C1214 C 0.71341 0.32223 0.08359 0.0
C1215 C 0.70575 0.33514 0.1416 0.0
H1216 H 0.084 0.36417 0.39008 0.0
H1217 H 0.0342 0.35407 0.22986 0.0
H1218 H 1.01391 0.3328 0.31965 0.0
H1219 H 1.01333 0.31204 0.43848 0.0
H1220 H 0.0643 0.32261 0.59583 0.0
H1221 H 0.08071 0.34843 0.51391 0.0
C1222 C 0.06818 0.35829 0.37628 0.0
C1223 C 0.06039 0.36123 0.30405 0.0
C1224 C 0.057 0.34536 0.42744 0.0
C1225 C 0.04027 0.35261 0.2859 0.0
C1226 C 0.02883 0.34004 0.33693 0.0
C1227 C 0.02778 0.32028 0.45524 0.0
C1228 C 0.03774 0.31475 0.52277 0.0
C1229 C 0.03747 0.33548 0.40707 0.0
C1230 C 0.05644 0.32589 0.54348 0.0
C1231 C 0.06591 0.3409 0.49675 0.0
H1232 H 0.03924 0.68542 0.7914 0.0
H1233 H 0.07202 0.64637 0.63142 0.0
H1234 H 0.04559 0.65596 0.53674 0.0
H1235 H 0.01961 0.68278 0.49419 0.0
H1236 H 0.98884 0.72384 0.6527 0.0
H1237 H 1.00722 0.70557 0.75426 0.0
C1238 C 0.03994 0.67825 0.73663 0.0
C1239 C 0.05746 0.66527 0.7179 0.0
C1240 C 0.02509 0.6844 0.6823 0.0
C1241 C 0.05852 0.65619 0.64698 0.0
C1242 C 0.04354 0.6619 0.59275 0.0
C1243 C 0.01597 0.68679 0.55141 0.0
C1244 C 1.00289 0.70456 0.56625 0.0
C1245 C 0.02756 0.67698 0.60881 0.0
C1246 C 0.99854 0.71 0.64016 0.0
C1247 C 1.00946 0.69984 0.69806 0.0
H1248 H 0.54635 0.3367 0.28927 0.0
H1249 H 0.57699 0.37769 0.12937 0.0
H1250 H 0.55289 0.36461 0.03219 0.0
H1251 H 0.52886 0.33584 0.98932 0.0
H1252 H 0.4986 0.29461 0.1491 0.0
H1253 H 0.51597 0.31396 0.25028 0.0
C1254 C 0.54712 0.34337 0.23373 0.0
C1255 C 0.56336 0.35816 0.2163 0.0
C1256 C 0.53325 0.33565 0.17819 0.0
C1257 C 0.56445 0.36652 0.14415 0.0
C1258 C 0.55078 0.35888 0.0885 0.0
C1259 C 0.52503 0.33199 0.04655 0.0
C1260 C 0.51224 0.31394 0.06167 0.0
C1261 C 0.53579 0.34273 0.10423 0.0
C1262 C 0.5079 0.30872 0.13597 0.0
C1263 C 0.51829 0.31949 0.19383 0.0
H1264 H 0.53494 0.6923 0.05458 0.0
H1265 H 0.49311 0.72935 0.91538 0.0
H1266 H 0.50703 0.71083 0.80545 0.0
H1267 H 0.53786 0.69165 0.74831 0.0
H1268 H 0.57862 0.65335 0.88738 0.0
H1269 H 0.55875 0.66513 0.99742 0.0
C1270 C 0.52844 0.69596 1.00027 0.0
C1271 C 0.51323 0.7126 0.99339 0.0
C1272 C 0.53703 0.68569 0.93695 0.0
C1273 C 0.5048 0.7168 0.92272 0.0
C1274 C 0.51314 0.70649 0.85959 0.0
C1275 C 0.542 0.68536 0.80253 0.0
C1276 C 0.56 0.67182 0.80952 0.0
C1277 C 0.53034 0.69213 0.86571 0.0
C1278 C 0.56492 0.66368 0.88011 0.0
C1279 C 0.55357 0.67054 0.9432 0.0
H1280 H 0.20443 0.71731 0.5454 0.0
H1281 H 0.14719 0.72498 0.41425 0.0
H1282 H 0.12935 0.69761 0.4868 0.0
H1283 H 0.12797 0.6747 0.59666 0.0
H1284 H 0.18342 0.66801 0.73525 0.0
H1285 H 0.20402 0.69065 0.64981 0.0
C1286 C 0.18817 0.71277 0.53194 0.0
C1287 C 0.17729 0.72363 0.474 0.0
C1288 C 0.17765 0.69676 0.57495 0.0
C1289 C 0.15614 0.7173 0.45822 0.0
C1290 C 0.14583 0.70145 0.49974 0.0
C1291 C 0.14493 0.67716 0.606 0.0
C1292 C 0.1542 0.66886 0.67149 0.0
C1293 C 0.15622 0.69135 0.55907 0.0
C1294 C 0.17597 0.67326 0.68414 0.0
C1295 C 0.18761 0.68681 0.63608 0.0
H1296 H 0.17309 0.33207 0.20763 0.0
H1297 H 0.13861 0.3724 0.35952 0.0
H1298 H 0.15876 0.35744 0.4638 0.0
H1299 H 0.182 0.32885 0.51275 0.0
H1300 H 0.21876 0.29042 0.36168 0.0
H1301 H 0.2023 0.30887 0.25583 0.0
C1302 C 0.17056 0.33811 0.26333 0.0
C1303 C 0.1544 0.35342 0.27583 0.0
C1304 C 0.18248 0.32959 0.32306 0.0
C1305 C 0.15114 0.36094 0.34828 0.0
C1306 C 0.16252 0.35219 0.40802 0.0
C1307 C 0.18704 0.32512 0.45663 0.0
C1308 C 0.20147 0.30816 0.445 0.0
C1309 C 0.17769 0.336 0.39631 0.0
C1310 C 0.20783 0.30346 0.37212 0.0
C1311 C 0.19819 0.31386 0.31159 0.0
loop_
_geom_bond_atom_site_label_1
_geom_bond_atom_site_label_2
_geom_bond_distance
_geom_bond_site_symmetry_2
_ccdc_geom_bond_type
C0 O16 1.251 . S
C0 O18 1.254 . S
N1 C2 1.333 . S
N1 C6 1.307 . S
N1 Zn7 2.020 . S
C2 N1 1.333 . S
C2 C3 1.379 . S
C2 H20 0.952 . S
C3 C2 1.379 . S
C3 C4 1.390 . S
C3 H30 0.949 . S
C4 C3 1.390 . S
C4 C5 1.357 . S
C5 C4 1.357 . S
C5 C6 1.370 . S
C5 H31 0.950 . S
C6 N1 1.307 . S
C6 C5 1.370 . S
C6 H24 0.948 . S
Zn7 N1 2.020 . S
Zn7 O16 2.039 . S
Zn7 O22 2.034 . S
Zn7 O26 2.025 . S
Zn7 O28 2.024 . S
C8 O27 1.246 . S
C8 O28 1.249 . S
N9 C10 1.307 . S
N9 C11 1.333 . S
N9 Zn15 2.020 . S
C10 N9 1.307 . S
C10 C14 1.370 . S
C10 H21 0.948 . S
C11 N9 1.333 . S
C11 C12 1.379 . S
C11 H19 0.952 . S
C12 C11 1.379 . S
C12 C13 1.390 . S
C12 H32 0.949 . S
C13 C12 1.390 . S
C13 C14 1.357 . S
C14 C10 1.370 . S
C14 C13 1.357 . S
C14 H33 0.950 . S
Zn15 N9 2.020 . S
Zn15 O18 2.025 . S
Zn15 O23 2.024 . S
Zn15 O25 2.039 . S
Zn15 O27 2.034 . S
O16 C0 1.251 . S
O16 Zn7 2.039 . S
C17 O22 1.246 . S
C17 O23 1.249 . S
O18 C0 1.254 . S
O18 Zn15 2.025 . S
H19 C11 0.952 . S
H20 C2 0.952 . S
H21 C10 0.948 . S
O22 Zn7 2.034 . S
O22 C17 1.246 . S
O23 Zn15 2.024 . S
O23 C17 1.249 . S
H24 C6 0.948 . S
O25 Zn15 2.039 . S
O25 C29 1.251 . S
O26 Zn7 2.025 . S
O26 C29 1.254 . S
O27 C8 1.246 . S
O27 Zn15 2.034 . S
O28 Zn7 2.024 . S
O28 C8 1.249 . S
C29 O25 1.251 . S
C29 O26 1.254 . S
H30 C3 0.949 . S
H31 C5 0.950 . S
H32 C12 0.949 . S
H33 C14 0.950 . S
C34 O50 1.251 . S
C34 O52 1.254 . S
N35 C36 1.333 . S
N35 C40 1.307 . S
N35 Zn41 2.020 . S
C36 N35 1.333 . S
C36 C37 1.379 . S
C36 H54 0.952 . S
C37 C36 1.379 . S
C37 C38 1.390 . S
C37 H64 0.949 . S
C38 C37 1.390 . S
C38 C39 1.357 . S
C39 C38 1.357 . S
C39 C40 1.370 . S
C39 H65 0.950 . S
C40 N35 1.307 . S
C40 C39 1.370 . S
C40 H58 0.948 . S
Zn41 N35 2.020 . S
Zn41 O50 2.039 . S
Zn41 O56 2.034 . S
Zn41 O60 2.025 . S
Zn41 O62 2.024 . S
C42 O61 1.246 . S
C42 O62 1.249 . S
N43 C44 1.307 . S
N43 C45 1.333 . S
N43 Zn49 2.020 . S
C44 N43 1.307 . S
C44 C48 1.370 . S
C44 H55 0.948 . S
C45 N43 1.333 . S
C45 C46 1.379 . S
C45 H53 0.952 . S
C46 C45 1.379 . S
C46 C47 1.390 . S
C46 H66 0.949 . S
C47 C46 1.390 . S
C47 C48 1.357 . S
C48 C44 1.370 . S
C48 C47 1.357 . S
C48 H67 0.950 . S
Zn49 N43 2.020 . S
Zn49 O52 2.025 . S
Zn49 O57 2.024 . S
Zn49 O59 2.039 . S
Zn49 O61 2.034 . S
O50 C34 1.251 . S
O50 Zn41 2.039 . S
C51 O56 1.246 . S
C51 O57 1.249 . S
O52 C34 1.254 . S
O52 Zn49 2.025 . S
H53 C45 0.952 . S
H54 C36 0.952 . S
H55 C44 0.948 . S
O56 Zn41 2.034 . S
O56 C51 1.246 . S
O57 Zn49 2.024 . S
O57 C51 1.249 . S
H58 C40 0.948 . S
O59 Zn49 2.039 . S
O59 C63 1.251 . S
O60 Zn41 2.025 . S
O60 C63 1.254 . S
O61 C42 1.246 . S
O61 Zn49 2.034 . S
O62 Zn41 2.024 . S
O62 C42 1.249 . S
C63 O59 1.251 . S
C63 O60 1.254 . S
H64 C37 0.949 . S
H65 C39 0.950 . S
H66 C46 0.949 . S
H67 C48 0.950 . S
C68 O84 1.251 . S
C68 O86 1.254 . S
N69 C70 1.333 . S
N69 C74 1.307 . S
N69 Zn75 2.020 . S
C70 N69 1.333 . S
C70 C71 1.379 . S
C70 H88 0.952 . S
C71 C70 1.379 . S
C71 C72 1.390 . S
C71 H98 0.949 . S
C72 C71 1.390 . S
C72 C73 1.357 . S
C73 C72 1.357 . S
C73 C74 1.370 . S
C73 H99 0.950 . S
C74 N69 1.307 . S
C74 C73 1.370 . S
C74 H92 0.948 . S
Zn75 N69 2.020 . S
Zn75 O84 2.039 . S
Zn75 O90 2.034 . S
Zn75 O94 2.025 . S
Zn75 O96 2.024 . S
C76 O95 1.246 . S
C76 O96 1.249 . S
N77 C78 1.307 . S
N77 C79 1.333 . S
N77 Zn83 2.020 . S
C78 N77 1.307 . S
C78 C82 1.370 . S
C78 H89 0.948 . S
C79 N77 1.333 . S
C79 C80 1.379 . S
C79 H87 0.952 . S
C80 C79 1.379 . S
C80 C81 1.390 . S
C80 H100 0.949 . S
C81 C80 1.390 . S
C81 C82 1.357 . S
C82 C78 1.370 . S
C82 C81 1.357 . S
C82 H101 0.950 . S
Zn83 N77 2.020 . S
Zn83 O86 2.025 . S
Zn83 O91 2.024 . S
Zn83 O93 2.039 . S
Zn83 O95 2.034 . S
O84 C68 1.251 . S
O84 Zn75 2.039 . S
C85 O90 1.246 . S
C85 O91 1.249 . S
O86 C68 1.254 . S
O86 Zn83 2.025 . S
H87 C79 0.952 . S
H88 C70 0.952 . S
H89 C78 0.948 . S
O90 Zn75 2.034 . S
O90 C85 1.246 . S
O91 Zn83 2.024 . S
O91 C85 1.249 . S
H92 C74 0.948 . S
O93 Zn83 2.039 . S
O93 C97 1.251 . S
O94 Zn75 2.025 . S
O94 C97 1.254 . S
O95 C76 1.246 . S
O95 Zn83 2.034 . S
O96 Zn75 2.024 . S
O96 C76 1.249 . S
C97 O93 1.251 . S
C97 O94 1.254 . S
H98 C71 0.949 . S
H99 C73 0.950 . S
H100 C80 0.949 . S
H101 C82 0.950 . S
C102 O118 1.251 . S
C102 O120 1.254 . S
N103 C104 1.333 . S
N103 C108 1.307 . S
N103 Zn109 2.020 . S
C104 N103 1.333 . S
C104 C105 1.379 . S
C104 H122 0.952 . S
C105 C104 1.379 . S
C105 C106 1.390 . S
C105 H132 0.949 . S
C106 C105 1.390 . S
C106 C107 1.357 . S
C107 C106 1.357 . S
C107 C108 1.370 . S
C107 H133 0.950 . S
C108 N103 1.307 . S
C108 C107 1.370 . S
C108 H126 0.948 . S
Zn109 N103 2.020 . S
Zn109 O118 2.039 . S
Zn109 O124 2.034 . S
Zn109 O128 2.025 . S
Zn109 O130 2.024 . S
C110 O129 1.246 . S
C110 O130 1.249 . S
N111 C112 1.307 . S
N111 C113 1.333 . S
N111 Zn117 2.020 . S
C112 N111 1.307 . S
C112 C116 1.370 . S
C112 H123 0.948 . S
C113 N111 1.333 . S
C113 C114 1.379 . S
C113 H121 0.952 . S
C114 C113 1.379 . S
C114 C115 1.390 . S
C114 H134 0.949 . S
C115 C114 1.390 . S
C115 C116 1.357 . S
C116 C112 1.370 . S
C116 C115 1.357 . S
C116 H135 0.950 . S
Zn117 N111 2.020 . S
Zn117 O120 2.025 . S
Zn117 O125 2.024 . S
Zn117 O127 2.039 . S
Zn117 O129 2.034 . S
O118 C102 1.251 . S
O118 Zn109 2.039 . S
C119 O124 1.246 . S
C119 O125 1.249 . S
O120 C102 1.254 . S
O120 Zn117 2.025 . S
H121 C113 0.952 . S
H122 C104 0.952 . S
H123 C112 0.948 . S
O124 Zn109 2.034 . S
O124 C119 1.246 . S
O125 Zn117 2.024 . S
O125 C119 1.249 . S
H126 C108 0.948 . S
O127 Zn117 2.039 . S
O127 C131 1.251 . S
O128 Zn109 2.025 . S
O128 C131 1.254 . S
O129 C110 1.246 . S
O129 Zn117 2.034 . S
O130 Zn109 2.024 . S
O130 C110 1.249 . S
C131 O127 1.251 . S
C131 O128 1.254 . S
H132 C105 0.949 . S
H133 C107 0.950 . S
H134 C114 0.949 . S
H135 C116 0.950 . S
C136 O152 1.251 . S
C136 O154 1.254 . S
N137 C138 1.333 . S
N137 C142 1.307 . S
N137 Zn143 2.020 . S
C138 N137 1.333 . S
C138 C139 1.379 . S
C138 H156 0.952 . S
C139 C138 1.379 . S
C139 C140 1.390 . S
C139 H166 0.949 . S
C140 C139 1.390 . S
C140 C141 1.357 . S
C141 C140 1.357 . S
C141 C142 1.370 . S
C141 H167 0.950 . S
C142 N137 1.307 . S
C142 C141 1.370 . S
C142 H160 0.948 . S
Zn143 N137 2.020 . S
Zn143 O152 2.039 . S
Zn143 O158 2.034 . S
Zn143 O162 2.025 . S
Zn143 O164 2.024 . S
C144 O163 1.246 . S
C144 O164 1.249 . S
N145 C146 1.307 . S
N145 C147 1.333 . S
N145 Zn151 2.020 . S
C146 N145 1.307 . S
C146 C150 1.370 . S
C146 H157 0.948 . S
C147 N145 1.333 . S
C147 C148 1.379 . S
C147 H155 0.952 . S
C148 C147 1.379 . S
C148 C149 1.390 . S
C148 H168 0.949 . S
C149 C148 1.390 . S
C149 C150 1.357 . S
C150 C146 1.370 . S
C150 C149 1.357 . S
C150 H169 0.950 . S
Zn151 N145 2.020 . S
Zn151 O154 2.025 . S
Zn151 O159 2.024 . S
Zn151 O161 2.039 . S
Zn151 O163 2.034 . S
O152 C136 1.251 . S
O152 Zn143 2.039 . S
C153 O158 1.246 . S
C153 O159 1.249 . S
O154 C136 1.254 . S
O154 Zn151 2.025 . S
H155 C147 0.952 . S
H156 C138 0.952 . S
H157 C146 0.948 . S
O158 Zn143 2.034 . S
O158 C153 1.246 . S
O159 Zn151 2.024 . S
O159 C153 1.249 . S
H160 C142 0.948 . S
O161 Zn151 2.039 . S
O161 C165 1.251 . S
O162 Zn143 2.025 . S
O162 C165 1.254 . S
O163 C144 1.246 . S
O163 Zn151 2.034 . S
O164 Zn143 2.024 . S
O164 C144 1.249 . S
C165 O161 1.251 . S
C165 O162 1.254 . S
H166 C139 0.949 . S
H167 C141 0.950 . S
H168 C148 0.949 . S
H169 C150 0.950 . S
C170 O186 1.251 . S
C170 O188 1.254 . S
N171 C172 1.333 . S
N171 C176 1.307 . S
N171 Zn177 2.020 . S
C172 N171 1.333 . S
C172 C173 1.379 . S
C172 H190 0.952 . S
C173 C172 1.379 . S
C173 C174 1.390 . S
C173 H200 0.949 . S
C174 C173 1.390 . S
C174 C175 1.357 . S
C175 C174 1.357 . S
C175 C176 1.370 . S
C175 H201 0.950 . S
C176 N171 1.307 . S
C176 C175 1.370 . S
C176 H194 0.948 . S
Zn177 N171 2.020 . S
Zn177 O186 2.039 . S
Zn177 O192 2.034 . S
Zn177 O196 2.025 . S
Zn177 O198 2.024 . S
C178 O197 1.246 . S
C178 O198 1.249 . S
N179 C180 1.307 . S
N179 C181 1.333 . S
N179 Zn185 2.020 . S
C180 N179 1.307 . S
C180 C184 1.370 . S
C180 H191 0.948 . S
C181 N179 1.333 . S
C181 C182 1.379 . S
C181 H189 0.952 . S
C182 C181 1.379 . S
C182 C183 1.390 . S
C182 H202 0.949 . S
C183 C182 1.390 . S
C183 C184 1.357 . S
C184 C180 1.370 . S
C184 C183 1.357 . S
C184 H203 0.950 . S
Zn185 N179 2.020 . S
Zn185 O188 2.025 . S
Zn185 O193 2.024 . S
Zn185 O195 2.039 . S
Zn185 O197 2.034 . S
O186 C170 1.251 . S
O186 Zn177 2.039 . S
C187 O192 1.246 . S
C187 O193 1.249 . S
O188 C170 1.254 . S
O188 Zn185 2.025 . S
H189 C181 0.952 . S
H190 C172 0.952 . S
H191 C180 0.948 . S
O192 Zn177 2.034 . S
O192 C187 1.246 . S
O193 Zn185 2.024 . S
O193 C187 1.249 . S
H194 C176 0.948 . S
O195 Zn185 2.039 . S
O195 C199 1.251 . S
O196 Zn177 2.025 . S
O196 C199 1.254 . S
O197 C178 1.246 . S
O197 Zn185 2.034 . S
O198 Zn177 2.024 . S
O198 C178 1.249 . S
C199 O195 1.251 . S
C199 O196 1.254 . S
H200 C173 0.949 . S
H201 C175 0.950 . S
H202 C182 0.949 . S
H203 C184 0.950 . S
C204 O220 1.251 . S
C204 O222 1.254 . S
N205 C206 1.333 . S
N205 C210 1.307 . S
N205 Zn211 2.020 . S
C206 N205 1.333 . S
C206 C207 1.379 . S
C206 H224 0.952 . S
C207 C206 1.379 . S
C207 C208 1.390 . S
C207 H234 0.949 . S
C208 C207 1.390 . S
C208 C209 1.357 . S
C209 C208 1.357 . S
C209 C210 1.370 . S
C209 H235 0.950 . S
C210 N205 1.307 . S
C210 C209 1.370 . S
C210 H228 0.948 . S
Zn211 N205 2.020 . S
Zn211 O220 2.039 . S
Zn211 O226 2.034 . S
Zn211 O230 2.025 . S
Zn211 O232 2.024 . S
C212 O231 1.246 . S
C212 O232 1.249 . S
N213 C214 1.307 . S
N213 C215 1.333 . S
N213 Zn219 2.020 . S
C214 N213 1.307 . S
C214 C218 1.370 . S
C214 H225 0.948 . S
C215 N213 1.333 . S
C215 C216 1.379 . S
C215 H223 0.952 . S
C216 C215 1.379 . S
C216 C217 1.390 . S
C216 H236 0.949 . S
C217 C216 1.390 . S
C217 C218 1.357 . S
C218 C214 1.370 . S
C218 C217 1.357 . S
C218 H237 0.950 . S
Zn219 N213 2.020 . S
Zn219 O222 2.025 . S
Zn219 O227 2.024 . S
Zn219 O229 2.039 . S
Zn219 O231 2.034 . S
O220 C204 1.251 . S
O220 Zn211 2.039 . S
C221 O226 1.246 . S
C221 O227 1.249 . S
O222 C204 1.254 . S
O222 Zn219 2.025 . S
H223 C215 0.952 . S
H224 C206 0.952 . S
H225 C214 0.948 . S
O226 Zn211 2.034 . S
O226 C221 1.246 . S
O227 Zn219 2.024 . S
O227 C221 1.249 . S
H228 C210 0.948 . S
O229 Zn219 2.039 . S
O229 C233 1.251 . S
O230 Zn211 2.025 . S
O230 C233 1.254 . S
O231 C212 1.246 . S
O231 Zn219 2.034 . S
O232 Zn211 2.024 . S
O232 C212 1.249 . S
C233 O229 1.251 . S
C233 O230 1.254 . S
H234 C207 0.949 . S
H235 C209 0.950 . S
H236 C216 0.949 . S
H237 C218 0.950 . S
C238 O254 1.251 . S
C238 O256 1.254 . S
N239 C240 1.333 . S
N239 C244 1.307 . S
N239 Zn245 2.020 . S
C240 N239 1.333 . S
C240 C241 1.379 . S
C240 H258 0.952 . S
C241 C240 1.379 . S
C241 C242 1.390 . S
C241 H268 0.949 . S
C242 C241 1.390 . S
C242 C243 1.357 . S
C243 C242 1.357 . S
C243 C244 1.370 . S
C243 H269 0.950 . S
C244 N239 1.307 . S
C244 C243 1.370 . S
C244 H262 0.948 . S
Zn245 N239 2.020 . S
Zn245 O254 2.039 . S
Zn245 O260 2.034 . S
Zn245 O264 2.025 . S
Zn245 O266 2.024 . S
C246 O265 1.246 . S
C246 O266 1.249 . S
N247 C248 1.307 . S
N247 C249 1.333 . S
N247 Zn253 2.020 . S
C248 N247 1.307 . S
C248 C252 1.370 . S
C248 H259 0.948 . S
C249 N247 1.333 . S
C249 C250 1.379 . S
C249 H257 0.952 . S
C250 C249 1.379 . S
C250 C251 1.390 . S
C250 H270 0.949 . S
C251 C250 1.390 . S
C251 C252 1.357 . S
C252 C248 1.370 . S
C252 C251 1.357 . S
C252 H271 0.950 . S
Zn253 N247 2.020 . S
Zn253 O256 2.025 . S
Zn253 O261 2.024 . S
Zn253 O263 2.039 . S
Zn253 O265 2.034 . S
O254 C238 1.251 . S
O254 Zn245 2.039 . S
C255 O260 1.246 . S
C255 O261 1.249 . S
O256 C238 1.254 . S
O256 Zn253 2.025 . S
H257 C249 0.952 . S
H258 C240 0.952 . S
H259 C248 0.948 . S
O260 Zn245 2.034 . S
O260 C255 1.246 . S
O261 Zn253 2.024 . S
O261 C255 1.249 . S
H262 C244 0.948 . S
O263 Zn253 2.039 . S
O263 C267 1.251 . S
O264 Zn245 2.025 . S
O264 C267 1.254 . S
O265 C246 1.246 . S
O265 Zn253 2.034 . S
O266 Zn245 2.024 . S
O266 C246 1.249 . S
C267 O263 1.251 . S
C267 O264 1.254 . S
H268 C241 0.949 . S
H269 C243 0.950 . S
H270 C250 0.949 . S
H271 C252 0.950 . S
C272 O288 1.251 1_655 S
C272 O290 1.254 . S
N273 C274 1.333 . S
N273 C278 1.307 . S
N273 Zn279 2.020 . S
C274 N273 1.333 . S
C274 C275 1.379 . S
C274 H292 0.952 . S
C275 C274 1.379 . S
C275 C276 1.390 . S
C275 H302 0.949 . S
C276 C275 1.390 . S
C276 C277 1.357 . S
C277 C276 1.357 . S
C277 C278 1.370 . S
C277 H303 0.950 . S
C278 N273 1.307 . S
C278 C277 1.370 . S
C278 H296 0.948 . S
Zn279 N273 2.020 . S
Zn279 O288 2.039 . S
Zn279 O294 2.034 . S
Zn279 O298 2.025 . S
Zn279 O300 2.024 . S
C280 O299 1.246 . S
C280 O300 1.249 1_655 S
N281 C282 1.307 . S
N281 C283 1.333 . S
N281 Zn287 2.020 . S
C282 N281 1.307 . S
C282 C286 1.370 . S
C282 H293 0.948 . S
C283 N281 1.333 . S
C283 C284 1.379 . S
C283 H291 0.952 . S
C284 C283 1.379 . S
C284 C285 1.390 . S
C284 H304 0.949 . S
C285 C284 1.390 . S
C285 C286 1.357 . S
C286 C282 1.370 . S
C286 C285 1.357 . S
C286 H305 0.950 . S
Zn287 N281 2.020 . S
Zn287 O290 2.025 . S
Zn287 O295 2.024 . S
Zn287 O297 2.039 . S
Zn287 O299 2.034 . S
O288 C272 1.251 1_455 S
O288 Zn279 2.039 . S
C289 O294 1.246 1_655 S
C289 O295 1.249 . S
O290 C272 1.254 . S
O290 Zn287 2.025 . S
H291 C283 0.952 . S
H292 C274 0.952 . S
H293 C282 0.948 . S
O294 Zn279 2.034 . S
O294 C289 1.246 1_455 S
O295 Zn287 2.024 . S
O295 C289 1.249 . S
H296 C278 0.948 . S
O297 Zn287 2.039 . S
O297 C301 1.251 . S
O298 Zn279 2.025 . S
O298 C301 1.254 1_455 S
O299 C280 1.246 . S
O299 Zn287 2.034 . S
O300 Zn279 2.024 . S
O300 C280 1.249 1_455 S
C301 O297 1.251 . S
C301 O298 1.254 1_655 S
H302 C275 0.949 . S
H303 C277 0.950 . S
H304 C284 0.949 . S
H305 C286 0.950 . S
C306 O322 1.251 . S
C306 O324 1.254 . S
N307 C308 1.333 . S
N307 C312 1.307 . S
N307 Zn313 2.020 . S
C308 N307 1.333 . S
C308 C309 1.379 . S
C308 H326 0.952 . S
C309 C308 1.379 . S
C309 C310 1.390 . S
C309 H336 0.949 . S
C310 C309 1.390 . S
C310 C311 1.357 . S
C311 C310 1.357 . S
C311 C312 1.370 . S
C311 H337 0.950 . S
C312 N307 1.307 . S
C312 C311 1.370 . S
C312 H330 0.948 . S
Zn313 N307 2.020 . S
Zn313 O322 2.039 . S
Zn313 O328 2.034 . S
Zn313 O332 2.025 . S
Zn313 O334 2.024 . S
C314 O333 1.246 . S
C314 O334 1.249 . S
N315 C316 1.307 . S
N315 C317 1.333 . S
N315 Zn321 2.020 . S
C316 N315 1.307 . S
C316 C320 1.370 . S
C316 H327 0.948 . S
C317 N315 1.333 . S
C317 C318 1.379 . S
C317 H325 0.952 . S
C318 C317 1.379 . S
C318 C319 1.390 . S
C318 H338 0.949 . S
C319 C318 1.390 . S
C319 C320 1.357 . S
C320 C316 1.370 . S
C320 C319 1.357 . S
C320 H339 0.950 . S
Zn321 N315 2.020 . S
Zn321 O324 2.025 . S
Zn321 O329 2.024 . S
Zn321 O331 2.039 . S
Zn321 O333 2.034 . S
O322 C306 1.251 . S
O322 Zn313 2.039 . S
C323 O328 1.246 . S
C323 O329 1.249 . S
O324 C306 1.254 . S
O324 Zn321 2.025 . S
H325 C317 0.952 . S
H326 C308 0.952 . S
H327 C316 0.948 . S
O328 Zn313 2.034 . S
O328 C323 1.246 . S
O329 Zn321 2.024 . S
O329 C323 1.249 . S
H330 C312 0.948 . S
O331 Zn321 2.039 . S
O331 C335 1.251 . S
O332 Zn313 2.025 . S
O332 C335 1.254 . S
O333 C314 1.246 . S
O333 Zn321 2.034 . S
O334 Zn313 2.024 . S
O334 C314 1.249 . S
C335 O331 1.251 . S
C335 O332 1.254 . S
H336 C309 0.949 . S
H337 C311 0.950 . S
H338 C318 0.949 . S
H339 C320 0.950 . S
C340 O356 1.251 . S
C340 O358 1.254 . S
N341 C342 1.333 . S
N341 C346 1.307 . S
N341 Zn347 2.020 . S
C342 N341 1.333 . S
C342 C343 1.379 . S
C342 H360 0.952 . S
C343 C342 1.379 . S
C343 C344 1.390 . S
C343 H370 0.949 . S
C344 C343 1.390 . S
C344 C345 1.357 . S
C345 C344 1.357 . S
C345 C346 1.370 . S
C345 H371 0.950 . S
C346 N341 1.307 . S
C346 C345 1.370 . S
C346 H364 0.948 . S
Zn347 N341 2.020 . S
Zn347 O356 2.039 . S
Zn347 O362 2.034 . S
Zn347 O366 2.025 . S
Zn347 O368 2.024 . S
C348 O367 1.246 . S
C348 O368 1.249 . S
N349 C350 1.307 . S
N349 C351 1.333 . S
N349 Zn355 2.020 . S
C350 N349 1.307 . S
C350 C354 1.370 . S
C350 H361 0.948 . S
C351 N349 1.333 . S
C351 C352 1.379 . S
C351 H359 0.952 . S
C352 C351 1.379 . S
C352 C353 1.390 . S
C352 H372 0.949 . S
C353 C352 1.390 . S
C353 C354 1.357 . S
C354 C350 1.370 . S
C354 C353 1.357 . S
C354 H373 0.950 . S
Zn355 N349 2.020 . S
Zn355 O358 2.025 . S
Zn355 O363 2.024 . S
Zn355 O365 2.039 . S
Zn355 O367 2.034 . S
O356 C340 1.251 . S
O356 Zn347 2.039 . S
C357 O362 1.246 . S
C357 O363 1.249 . S
O358 C340 1.254 . S
O358 Zn355 2.025 . S
H359 C351 0.952 . S
H360 C342 0.952 . S
H361 C350 0.948 . S
O362 Zn347 2.034 . S
O362 C357 1.246 . S
O363 Zn355 2.024 . S
O363 C357 1.249 . S
H364 C346 0.948 . S
O365 Zn355 2.039 . S
O365 C369 1.251 . S
O366 Zn347 2.025 . S
O366 C369 1.254 . S
O367 C348 1.246 . S
O367 Zn355 2.034 . S
O368 Zn347 2.024 . S
O368 C348 1.249 . S
C369 O365 1.251 . S
C369 O366 1.254 . S
H370 C343 0.949 . S
H371 C345 0.950 . S
H372 C352 0.949 . S
H373 C354 0.950 . S
C374 O390 1.251 . S
C374 O392 1.254 1_655 S
N375 C376 1.333 . S
N375 C380 1.307 . S
N375 Zn381 2.020 . S
C376 N375 1.333 . S
C376 C377 1.379 . S
C376 H394 0.952 . S
C377 C376 1.379 . S
C377 C378 1.390 . S
C377 H404 0.949 . S
C378 C377 1.390 . S
C378 C379 1.357 . S
C379 C378 1.357 . S
C379 C380 1.370 . S
C379 H405 0.950 . S
C380 N375 1.307 . S
C380 C379 1.370 . S
C380 H398 0.948 . S
Zn381 N375 2.020 . S
Zn381 O390 2.039 . S
Zn381 O396 2.034 . S
Zn381 O400 2.025 . S
Zn381 O402 2.024 . S
C382 O401 1.246 1_655 S
C382 O402 1.249 . S
N383 C384 1.307 . S
N383 C385 1.333 . S
N383 Zn389 2.020 . S
C384 N383 1.307 . S
C384 C388 1.370 . S
C384 H395 0.948 . S
C385 N383 1.333 . S
C385 C386 1.379 . S
C385 H393 0.952 . S
C386 C385 1.379 . S
C386 C387 1.390 . S
C386 H406 0.949 . S
C387 C386 1.390 . S
C387 C388 1.357 . S
C388 C384 1.370 . S
C388 C387 1.357 . S
C388 H407 0.950 . S
Zn389 N383 2.020 . S
Zn389 O392 2.025 . S
Zn389 O397 2.024 . S
Zn389 O399 2.039 . S
Zn389 O401 2.034 . S
O390 C374 1.251 . S
O390 Zn381 2.039 . S
C391 O396 1.246 . S
C391 O397 1.249 1_655 S
O392 C374 1.254 1_455 S
O392 Zn389 2.025 . S
H393 C385 0.952 . S
H394 C376 0.952 . S
H395 C384 0.948 . S
O396 Zn381 2.034 . S
O396 C391 1.246 . S
O397 Zn389 2.024 . S
O397 C391 1.249 1_455 S
H398 C380 0.948 . S
O399 Zn389 2.039 . S
O399 C403 1.251 1_455 S
O400 Zn381 2.025 . S
O400 C403 1.254 . S
O401 C382 1.246 1_455 S
O401 Zn389 2.034 . S
O402 Zn381 2.024 . S
O402 C382 1.249 . S
C403 O399 1.251 1_655 S
C403 O400 1.254 . S
H404 C377 0.949 . S
H405 C379 0.950 . S
H406 C386 0.949 . S
H407 C388 0.950 . S
C408 O424 1.251 . S
C408 O426 1.254 . S
N409 C410 1.333 . S
N409 C414 1.307 . S
N409 Zn415 2.020 . S
C410 N409 1.333 . S
C410 C411 1.379 . S
C410 H428 0.952 . S
C411 C410 1.379 . S
C411 C412 1.390 . S
C411 H438 0.949 . S
C412 C411 1.390 . S
C412 C413 1.357 . S
C413 C412 1.357 . S
C413 C414 1.370 . S
C413 H439 0.950 . S
C414 N409 1.307 . S
C414 C413 1.370 . S
C414 H432 0.948 . S
Zn415 N409 2.020 . S
Zn415 O424 2.039 . S
Zn415 O430 2.034 . S
Zn415 O434 2.025 . S
Zn415 O436 2.024 . S
C416 O435 1.246 . S
C416 O436 1.249 . S
N417 C418 1.307 . S
N417 C419 1.333 . S
N417 Zn423 2.020 . S
C418 N417 1.307 . S
C418 C422 1.370 . S
C418 H429 0.948 . S
C419 N417 1.333 . S
C419 C420 1.379 . S
C419 H427 0.952 . S
C420 C419 1.379 . S
C420 C421 1.390 . S
C420 H440 0.949 . S
C421 C420 1.390 . S
C421 C422 1.357 . S
C422 C418 1.370 . S
C422 C421 1.357 . S
C422 H441 0.950 . S
Zn423 N417 2.020 . S
Zn423 O426 2.025 . S
Zn423 O431 2.024 . S
Zn423 O433 2.039 . S
Zn423 O435 2.034 . S
O424 C408 1.251 . S
O424 Zn415 2.039 . S
C425 O430 1.246 . S
C425 O431 1.249 . S
O426 C408 1.254 . S
O426 Zn423 2.025 . S
H427 C419 0.952 . S
H428 C410 0.952 . S
H429 C418 0.948 . S
O430 Zn415 2.034 . S
O430 C425 1.246 . S
O431 Zn423 2.024 . S
O431 C425 1.249 . S
H432 C414 0.948 . S
O433 Zn423 2.039 . S
O433 C437 1.251 . S
O434 Zn415 2.025 . S
O434 C437 1.254 . S
O435 C416 1.246 . S
O435 Zn423 2.034 . S
O436 Zn415 2.024 . S
O436 C416 1.249 . S
C437 O433 1.251 . S
C437 O434 1.254 . S
H438 C411 0.949 . S
H439 C413 0.950 . S
H440 C420 0.949 . S
H441 C422 0.950 . S
C442 O458 1.251 . S
C442 O460 1.254 . S
N443 C444 1.333 . S
N443 C448 1.307 . S
N443 Zn449 2.020 . S
C444 N443 1.333 . S
C444 C445 1.379 . S
C444 H462 0.952 . S
C445 C444 1.379 . S
C445 C446 1.390 . S
C445 H472 0.949 . S
C446 C445 1.390 . S
C446 C447 1.357 . S
C447 C446 1.357 . S
C447 C448 1.370 . S
C447 H473 0.950 . S
C448 N443 1.307 . S
C448 C447 1.370 . S
C448 H466 0.948 . S
Zn449 N443 2.020 . S
Zn449 O458 2.039 . S
Zn449 O464 2.034 . S
Zn449 O468 2.025 . S
Zn449 O470 2.024 . S
C450 O469 1.246 . S
C450 O470 1.249 . S
N451 C452 1.307 . S
N451 C453 1.333 . S
N451 Zn457 2.020 . S
C452 N451 1.307 . S
C452 C456 1.370 . S
C452 H463 0.948 . S
C453 N451 1.333 . S
C453 C454 1.379 . S
C453 H461 0.952 . S
C454 C453 1.379 . S
C454 C455 1.390 . S
C454 H474 0.949 . S
C455 C454 1.390 . S
C455 C456 1.357 . S
C456 C452 1.370 . S
C456 C455 1.357 . S
C456 H475 0.950 . S
Zn457 N451 2.020 . S
Zn457 O460 2.025 . S
Zn457 O465 2.024 . S
Zn457 O467 2.039 . S
Zn457 O469 2.034 . S
O458 C442 1.251 . S
O458 Zn449 2.039 . S
C459 O464 1.246 . S
C459 O465 1.249 . S
O460 C442 1.254 . S
O460 Zn457 2.025 . S
H461 C453 0.952 . S
H462 C444 0.952 . S
H463 C452 0.948 . S
O464 Zn449 2.034 . S
O464 C459 1.246 . S
O465 Zn457 2.024 . S
O465 C459 1.249 . S
H466 C448 0.948 . S
O467 Zn457 2.039 . S
O467 C471 1.251 . S
O468 Zn449 2.025 . S
O468 C471 1.254 . S
O469 C450 1.246 . S
O469 Zn457 2.034 . S
O470 Zn449 2.024 . S
O470 C450 1.249 . S
C471 O467 1.251 . S
C471 O468 1.254 . S
H472 C445 0.949 . S
H473 C447 0.950 . S
H474 C454 0.949 . S
H475 C456 0.950 . S
C476 O492 1.251 . S
C476 O494 1.254 . S
N477 C478 1.333 . S
N477 C482 1.307 . S
N477 Zn483 2.020 . S
C478 N477 1.333 . S
C478 C479 1.379 . S
C478 H496 0.952 . S
C479 C478 1.379 . S
C479 C480 1.390 . S
C479 H506 0.949 . S
C480 C479 1.390 . S
C480 C481 1.357 . S
C481 C480 1.357 . S
C481 C482 1.370 . S
C481 H507 0.950 . S
C482 N477 1.307 . S
C482 C481 1.370 . S
C482 H500 0.948 . S
Zn483 N477 2.020 . S
Zn483 O492 2.039 . S
Zn483 O498 2.034 . S
Zn483 O502 2.025 . S
Zn483 O504 2.024 . S
C484 O503 1.246 . S
C484 O504 1.249 . S
N485 C486 1.307 . S
N485 C487 1.333 . S
N485 Zn491 2.020 . S
C486 N485 1.307 . S
C486 C490 1.370 . S
C486 H497 0.948 . S
C487 N485 1.333 . S
C487 C488 1.379 . S
C487 H495 0.952 . S
C488 C487 1.379 . S
C488 C489 1.390 . S
C488 H508 0.949 . S
C489 C488 1.390 . S
C489 C490 1.357 . S
C490 C486 1.370 . S
C490 C489 1.357 . S
C490 H509 0.950 . S
Zn491 N485 2.020 . S
Zn491 O494 2.025 . S
Zn491 O499 2.024 . S
Zn491 O501 2.039 . S
Zn491 O503 2.034 . S
O492 C476 1.251 . S
O492 Zn483 2.039 . S
C493 O498 1.246 . S
C493 O499 1.249 . S
O494 C476 1.254 . S
O494 Zn491 2.025 . S
H495 C487 0.952 . S
H496 C478 0.952 . S
H497 C486 0.948 . S
O498 Zn483 2.034 . S
O498 C493 1.246 . S
O499 Zn491 2.024 . S
O499 C493 1.249 . S
H500 C482 0.948 . S
O501 Zn491 2.039 . S
O501 C505 1.251 . S
O502 Zn483 2.025 . S
O502 C505 1.254 . S
O503 C484 1.246 . S
O503 Zn491 2.034 . S
O504 Zn483 2.024 . S
O504 C484 1.249 . S
C505 O501 1.251 . S
C505 O502 1.254 . S
H506 C479 0.949 . S
H507 C481 0.950 . S
H508 C488 0.949 . S
H509 C490 0.950 . S
C510 O526 1.251 . S
C510 O528 1.254 . S
N511 C512 1.333 . S
N511 C516 1.307 . S
N511 Zn517 2.020 . S
C512 N511 1.333 . S
C512 C513 1.379 . S
C512 H530 0.952 . S
C513 C512 1.379 . S
C513 C514 1.390 . S
C513 H540 0.949 . S
C514 C513 1.390 . S
C514 C515 1.357 . S
C515 C514 1.357 . S
C515 C516 1.370 . S
C515 H541 0.950 . S
C516 N511 1.307 . S
C516 C515 1.370 . S
C516 H534 0.948 . S
Zn517 N511 2.020 . S
Zn517 O526 2.039 . S
Zn517 O532 2.034 . S
Zn517 O536 2.025 . S
Zn517 O538 2.024 . S
C518 O537 1.246 . S
C518 O538 1.249 . S
N519 C520 1.307 . S
N519 C521 1.333 . S
N519 Zn525 2.020 . S
C520 N519 1.307 . S
C520 C524 1.370 . S
C520 H531 0.948 . S
C521 N519 1.333 . S
C521 C522 1.379 . S
C521 H529 0.952 . S
C522 C521 1.379 . S
C522 C523 1.390 . S
C522 H542 0.949 . S
C523 C522 1.390 . S
C523 C524 1.357 . S
C524 C520 1.370 . S
C524 C523 1.357 . S
C524 H543 0.950 . S
Zn525 N519 2.020 . S
Zn525 O528 2.025 . S
Zn525 O533 2.024 . S
Zn525 O535 2.039 . S
Zn525 O537 2.034 . S
O526 C510 1.251 . S
O526 Zn517 2.039 . S
C527 O532 1.246 . S
C527 O533 1.249 . S
O528 C510 1.254 . S
O528 Zn525 2.025 . S
H529 C521 0.952 . S
H530 C512 0.952 . S
H531 C520 0.948 . S
O532 Zn517 2.034 . S
O532 C527 1.246 . S
O533 Zn525 2.024 . S
O533 C527 1.249 . S
H534 C516 0.948 . S
O535 Zn525 2.039 . S
O535 C539 1.251 . S
O536 Zn517 2.025 . S
O536 C539 1.254 . S
O537 C518 1.246 . S
O537 Zn525 2.034 . S
O538 Zn517 2.024 . S
O538 C518 1.249 . S
C539 O535 1.251 . S
C539 O536 1.254 . S
H540 C513 0.949 . S
H541 C515 0.950 . S
H542 C522 0.949 . S
H543 C524 0.950 . S
H544 C550 0.930 1_554 S
H545 C553 0.930 . S
H546 C554 0.930 . S
H547 C555 0.930 . S
H548 C558 0.930 . S
H549 C559 0.930 . S
C550 H544 0.930 1_556 S
C550 C551 1.355 . S
C550 C552 1.415 . S
C551 C550 1.355 . S
C551 C553 1.419 . S
C552 C550 1.415 . S
C552 C557 1.425 . S
C552 C559 1.409 . S
C553 H545 0.930 . S
C553 C551 1.419 . S
C553 C554 1.362 . S
C554 H546 0.930 . S
C554 C553 1.362 . S
C554 C557 1.409 . S
C555 H547 0.930 . S
C555 C556 1.355 . S
C555 C557 1.415 . S
C556 C555 1.355 . S
C556 C558 1.419 . S
C557 C552 1.425 . S
C557 C554 1.409 . S
C557 C555 1.415 . S
C558 H548 0.930 . S
C558 C556 1.419 . S
C558 C559 1.362 . S
C559 H549 0.930 . S
C559 C552 1.409 . S
C559 C558 1.362 . S
H560 C566 0.930 . S
H561 C569 0.930 . S
H562 C570 0.930 . S
H563 C571 0.930 . S
H564 C574 0.930 . S
H565 C575 0.930 . S
C566 H560 0.930 . S
C566 C567 1.355 . S
C566 C568 1.415 . S
C567 C566 1.355 . S
C567 C569 1.419 . S
C568 C566 1.415 . S
C568 C573 1.425 . S
C568 C575 1.409 . S
C569 H561 0.930 . S
C569 C567 1.419 . S
C569 C570 1.362 . S
C570 H562 0.930 . S
C570 C569 1.362 . S
C570 C573 1.409 . S
C571 H563 0.930 . S
C571 C572 1.355 . S
C571 C573 1.415 . S
C572 C571 1.355 . S
C572 C574 1.419 . S
C573 C568 1.425 . S
C573 C570 1.409 . S
C573 C571 1.415 . S
C574 H564 0.930 . S
C574 C572 1.419 . S
C574 C575 1.362 . S
C575 H565 0.930 . S
C575 C568 1.409 . S
C575 C574 1.362 . S
H576 C582 0.930 . S
H577 C585 0.930 . S
H578 C586 0.930 . S
H579 C587 0.930 . S
H580 C590 0.930 . S
H581 C591 0.930 . S
C582 H576 0.930 . S
C582 C583 1.355 . S
C582 C584 1.415 . S
C583 C582 1.355 . S
C583 C585 1.419 . S
C584 C582 1.415 . S
C584 C589 1.425 . S
C584 C591 1.409 . S
C585 H577 0.930 . S
C585 C583 1.419 . S
C585 C586 1.362 . S
C586 H578 0.930 . S
C586 C585 1.362 . S
C586 C589 1.409 . S
C587 H579 0.930 . S
C587 C588 1.355 . S
C587 C589 1.415 . S
C588 C587 1.355 . S
C588 C590 1.419 . S
C589 C584 1.425 . S
C589 C586 1.409 . S
C589 C587 1.415 . S
C590 H580 0.930 . S
C590 C588 1.419 . S
C590 C591 1.362 . S
C591 H581 0.930 . S
C591 C584 1.409 . S
C591 C590 1.362 . S
H592 C598 0.930 . S
H593 C601 0.930 . S
H594 C602 0.930 . S
H595 C603 0.930 . S
H596 C606 0.930 . S
H597 C607 0.930 . S
C598 H592 0.930 . S
C598 C599 1.355 . S
C598 C600 1.415 . S
C599 C598 1.355 . S
C599 C601 1.419 . S
C600 C598 1.415 . S
C600 C605 1.425 . S
C600 C607 1.409 . S
C601 H593 0.930 . S
C601 C599 1.419 . S
C601 C602 1.362 . S
C602 H594 0.930 . S
C602 C601 1.362 . S
C602 C605 1.409 . S
C603 H595 0.930 . S
C603 C604 1.355 . S
C603 C605 1.415 . S
C604 C603 1.355 . S
C604 C606 1.419 . S
C605 C600 1.425 . S
C605 C602 1.409 . S
C605 C603 1.415 . S
C606 H596 0.930 . S
C606 C604 1.419 . S
C606 C607 1.362 . S
C607 H597 0.930 . S
C607 C600 1.409 . S
C607 C606 1.362 . S
H608 C614 0.930 . S
H609 C617 0.930 . S
H610 C618 0.930 . S
H611 C619 0.930 . S
H612 C622 0.930 . S
H613 C623 0.930 . S
C614 H608 0.930 . S
C614 C615 1.355 . S
C614 C616 1.415 . S
C615 C614 1.355 . S
C615 C617 1.419 1_455 S
C616 C614 1.415 . S
C616 C621 1.425 . S
C616 C623 1.409 . S
C617 H609 0.930 . S
C617 C615 1.419 1_655 S
C617 C618 1.362 . S
C618 H610 0.930 . S
C618 C617 1.362 . S
C618 C621 1.409 1_655 S
C619 H611 0.930 . S
C619 C620 1.355 . S
C619 C621 1.415 . S
C620 C619 1.355 . S
C620 C622 1.419 . S
C621 C616 1.425 . S
C621 C618 1.409 1_455 S
C621 C619 1.415 . S
C622 H612 0.930 . S
C622 C620 1.419 . S
C622 C623 1.362 . S
C623 H613 0.930 . S
C623 C616 1.409 . S
C623 C622 1.362 . S
H624 C630 0.930 . S
H625 C633 0.930 . S
H626 C634 0.930 . S
H627 C635 0.930 . S
H628 C638 0.930 1_554 S
H629 C639 0.930 . S
C630 H624 0.930 . S
C630 C631 1.355 . S
C630 C632 1.415 . S
C631 C630 1.355 . S
C631 C633 1.419 . S
C632 C630 1.415 . S
C632 C637 1.425 . S
C632 C639 1.409 . S
C633 H625 0.930 . S
C633 C631 1.419 . S
C633 C634 1.362 . S
C634 H626 0.930 . S
C634 C633 1.362 . S
C634 C637 1.409 . S
C635 H627 0.930 . S
C635 C636 1.355 . S
C635 C637 1.415 . S
C636 C635 1.355 . S
C636 C638 1.419 . S
C637 C632 1.425 . S
C637 C634 1.409 . S
C637 C635 1.415 . S
C638 H628 0.930 1_556 S
C638 C636 1.419 . S
C638 C639 1.362 . S
C639 H629 0.930 . S
C639 C632 1.409 . S
C639 C638 1.362 . S
H640 C646 0.930 . S
H641 C649 0.930 . S
H642 C650 0.930 . S
H643 C651 0.930 . S
H644 C654 0.930 . S
H645 C655 0.930 . S
C646 H640 0.930 . S
C646 C647 1.355 . S
C646 C648 1.415 . S
C647 C646 1.355 . S
C647 C649 1.419 . S
C648 C646 1.415 . S
C648 C653 1.425 . S
C648 C655 1.409 . S
C649 H641 0.930 . S
C649 C647 1.419 . S
C649 C650 1.362 . S
C650 H642 0.930 . S
C650 C649 1.362 . S
C650 C653 1.409 . S
C651 H643 0.930 . S
C651 C652 1.355 . S
C651 C653 1.415 . S
C652 C651 1.355 . S
C652 C654 1.419 . S
C653 C648 1.425 . S
C653 C650 1.409 . S
C653 C651 1.415 . S
C654 H644 0.930 . S
C654 C652 1.419 . S
C654 C655 1.362 . S
C655 H645 0.930 . S
C655 C648 1.409 . S
C655 C654 1.362 . S
H656 C662 0.930 . S
H657 C665 0.930 . S
H658 C666 0.930 . S
H659 C667 0.930 . S
H660 C670 0.930 . S
H661 C671 0.930 . S
C662 H656 0.930 . S
C662 C663 1.355 . S
C662 C664 1.415 . S
C663 C662 1.355 . S
C663 C665 1.419 . S
C664 C662 1.415 . S
C664 C669 1.425 . S
C664 C671 1.409 . S
C665 H657 0.930 . S
C665 C663 1.419 . S
C665 C666 1.362 . S
C666 H658 0.930 . S
C666 C665 1.362 . S
C666 C669 1.409 . S
C667 H659 0.930 . S
C667 C668 1.355 . S
C667 C669 1.415 . S
C668 C667 1.355 . S
C668 C670 1.419 . S
C669 C664 1.425 . S
C669 C666 1.409 . S
C669 C667 1.415 . S
C670 H660 0.930 . S
C670 C668 1.419 . S
C670 C671 1.362 . S
C671 H661 0.930 . S
C671 C664 1.409 . S
C671 C670 1.362 . S
H672 C678 0.930 . S
H673 C681 0.930 . S
H674 C682 0.930 . S
H675 C683 0.930 . S
H676 C686 0.930 . S
H677 C687 0.930 . S
C678 H672 0.930 . S
C678 C679 1.355 . S
C678 C680 1.415 . S
C679 C678 1.355 . S
C679 C681 1.419 . S
C680 C678 1.415 . S
C680 C685 1.425 . S
C680 C687 1.409 . S
C681 H673 0.930 . S
C681 C679 1.419 . S
C681 C682 1.362 . S
C682 H674 0.930 . S
C682 C681 1.362 . S
C682 C685 1.409 . S
C683 H675 0.930 . S
C683 C684 1.355 . S
C683 C685 1.415 . S
C684 C683 1.355 . S
C684 C686 1.419 . S
C685 C680 1.425 . S
C685 C682 1.409 . S
C685 C683 1.415 . S
C686 H676 0.930 . S
C686 C684 1.419 . S
C686 C687 1.362 . S
C687 H677 0.930 . S
C687 C680 1.409 . S
C687 C686 1.362 . S
H688 C694 0.930 . S
H689 C697 0.930 . S
H690 C698 0.930 . S
H691 C699 0.930 . S
H692 C702 0.930 . S
H693 C703 0.930 . S
C694 H688 0.930 . S
C694 C695 1.355 . S
C694 C696 1.415 . S
C695 C694 1.355 . S
C695 C697 1.419 . S
C696 C694 1.415 . S
C696 C701 1.425 . S
C696 C703 1.409 . S
C697 H689 0.930 . S
C697 C695 1.419 . S
C697 C698 1.362 . S
C698 H690 0.930 . S
C698 C697 1.362 . S
C698 C701 1.409 . S
C699 H691 0.930 . S
C699 C700 1.355 . S
C699 C701 1.415 . S
C700 C699 1.355 . S
C700 C702 1.419 . S
C701 C696 1.425 . S
C701 C698 1.409 . S
C701 C699 1.415 . S
C702 H692 0.930 . S
C702 C700 1.419 . S
C702 C703 1.362 . S
C703 H693 0.930 . S
C703 C696 1.409 . S
C703 C702 1.362 . S
H704 C710 0.930 . S
H705 C713 0.918 1_554 S
H706 C714 0.930 1_655 S
H707 C715 0.959 . S
H708 C718 0.930 . S
H709 C719 0.930 . S
C710 H704 0.930 . S
C710 C711 1.355 . S
C710 C712 1.415 . S
C711 C710 1.355 . S
C711 C713 1.424 . S
C712 C710 1.415 . S
C712 C717 1.425 . S
C712 C719 1.409 . S
C713 H705 0.918 1_556 S
C713 C711 1.424 . S
C713 C714 1.368 . S
C714 H706 0.930 1_455 S
C714 C713 1.368 . S
C714 C717 1.409 . S
C715 H707 0.959 . S
C715 C716 1.347 1_655 S
C715 C717 1.394 1_655 S
C716 C715 1.347 1_455 S
C716 C718 1.419 . S
C717 C712 1.425 . S
C717 C714 1.409 . S
C717 C715 1.394 1_455 S
C718 H708 0.930 . S
C718 C716 1.419 . S
C718 C719 1.362 . S
C719 H709 0.930 . S
C719 C712 1.409 . S
C719 C718 1.362 . S
H720 C726 0.930 . S
H721 C729 0.930 . S
H722 C730 0.930 . S
H723 C731 0.930 . S
H724 C734 0.930 . S
H725 C735 0.930 . S
C726 H720 0.930 . S
C726 C727 1.355 . S
C726 C728 1.415 . S
C727 C726 1.355 . S
C727 C729 1.419 1_455 S
C728 C726 1.415 . S
C728 C733 1.425 . S
C728 C735 1.409 . S
C729 H721 0.930 . S
C729 C727 1.419 1_655 S
C729 C730 1.362 1_655 S
C730 H722 0.930 . S
C730 C729 1.362 1_455 S
C730 C733 1.409 . S
C731 H723 0.930 . S
C731 C732 1.355 . S
C731 C733 1.415 . S
C732 C731 1.355 . S
C732 C734 1.419 . S
C733 C728 1.425 . S
C733 C730 1.409 . S
C733 C731 1.415 . S
C734 H724 0.930 . S
C734 C732 1.419 . S
C734 C735 1.362 . S
C735 H725 0.930 . S
C735 C728 1.409 . S
C735 C734 1.362 . S
H736 C742 0.930 . S
H737 C745 0.930 . S
H738 C746 0.930 . S
H739 C747 0.930 . S
H740 C750 0.930 . S
H741 C751 0.930 . S
C742 H736 0.930 . S
C742 C743 1.355 . S
C742 C744 1.415 . S
C743 C742 1.355 . S
C743 C745 1.419 . S
C744 C742 1.415 . S
C744 C749 1.425 . S
C744 C751 1.409 . S
C745 H737 0.930 . S
C745 C743 1.419 . S
C745 C746 1.362 . S
C746 H738 0.930 . S
C746 C745 1.362 . S
C746 C749 1.409 . S
C747 H739 0.930 . S
C747 C748 1.355 . S
C747 C749 1.415 . S
C748 C747 1.355 . S
C748 C750 1.419 . S
C749 C744 1.425 . S
C749 C746 1.409 . S
C749 C747 1.415 . S
C750 H740 0.930 . S
C750 C748 1.419 . S
C750 C751 1.362 . S
C751 H741 0.930 . S
C751 C744 1.409 . S
C751 C750 1.362 . S
H752 C758 0.930 . S
H753 C761 0.930 . S
H754 C762 0.930 . S
H755 C763 0.930 . S
H756 C766 0.930 . S
H757 C767 0.930 . S
C758 H752 0.930 . S
C758 C759 1.355 . S
C758 C760 1.415 . S
C759 C758 1.355 . S
C759 C761 1.419 . S
C760 C758 1.415 . S
C760 C765 1.425 . S
C760 C767 1.409 . S
C761 H753 0.930 . S
C761 C759 1.419 . S
C761 C762 1.362 . S
C762 H754 0.930 . S
C762 C761 1.362 . S
C762 C765 1.409 . S
C763 H755 0.930 . S
C763 C764 1.355 . S
C763 C765 1.415 . S
C764 C763 1.355 . S
C764 C766 1.419 . S
C765 C760 1.425 . S
C765 C762 1.409 . S
C765 C763 1.415 . S
C766 H756 0.930 . S
C766 C764 1.419 . S
C766 C767 1.362 . S
C767 H757 0.930 . S
C767 C760 1.409 . S
C767 C766 1.362 . S
H768 C774 0.930 . S
H769 C777 0.930 . S
H770 C778 0.930 . S
H771 C779 0.930 . S
H772 C782 0.930 . S
H773 C783 0.930 . S
C774 H768 0.930 . S
C774 C775 1.355 . S
C774 C776 1.415 . S
C775 C774 1.355 . S
C775 C777 1.419 . S
C776 C774 1.415 . S
C776 C781 1.425 . S
C776 C783 1.409 . S
C777 H769 0.930 . S
C777 C775 1.419 . S
C777 C778 1.362 . S
C778 H770 0.930 . S
C778 C777 1.362 . S
C778 C781 1.409 . S
C779 H771 0.930 . S
C779 C780 1.355 . S
C779 C781 1.415 . S
C780 C779 1.355 . S
C780 C782 1.419 . S
C781 C776 1.425 . S
C781 C778 1.409 . S
C781 C779 1.415 . S
C782 H772 0.930 . S
C782 C780 1.419 . S
C782 C783 1.362 . S
C783 H773 0.930 . S
C783 C776 1.409 . S
C783 C782 1.362 . S
H784 C790 0.930 . S
H785 C793 0.930 . S
H786 C794 0.930 . S
H787 C795 0.930 . S
H788 C798 0.930 . S
H789 C799 0.930 . S
C790 H784 0.930 . S
C790 C791 1.355 . S
C790 C792 1.415 . S
C791 C790 1.355 . S
C791 C793 1.419 . S
C792 C790 1.415 . S
C792 C797 1.425 . S
C792 C799 1.409 . S
C793 H785 0.930 . S
C793 C791 1.419 . S
C793 C794 1.362 . S
C794 H786 0.930 . S
C794 C793 1.362 . S
C794 C797 1.409 . S
C795 H787 0.930 . S
C795 C796 1.355 . S
C795 C797 1.415 . S
C796 C795 1.355 . S
C796 C798 1.419 . S
C797 C792 1.425 . S
C797 C794 1.409 . S
C797 C795 1.415 . S
C798 H788 0.930 . S
C798 C796 1.419 . S
C798 C799 1.362 . S
C799 H789 0.930 . S
C799 C792 1.409 . S
C799 C798 1.362 . S
H800 C806 0.930 . S
H801 C809 0.930 . S
H802 C810 0.930 . S
H803 C811 0.930 . S
H804 C814 0.930 . S
H805 C815 0.930 . S
C806 H800 0.930 . S
C806 C807 1.355 . S
C806 C808 1.415 . S
C807 C806 1.355 . S
C807 C809 1.419 . S
C808 C806 1.415 . S
C808 C813 1.425 . S
C808 C815 1.409 . S
C809 H801 0.930 . S
C809 C807 1.419 . S
C809 C810 1.362 . S
C810 H802 0.930 . S
C810 C809 1.362 . S
C810 C813 1.409 . S
C811 H803 0.930 . S
C811 C812 1.355 . S
C811 C813 1.415 . S
C812 C811 1.355 . S
C812 C814 1.419 . S
C813 C808 1.425 . S
C813 C810 1.409 . S
C813 C811 1.415 . S
C814 H804 0.930 . S
C814 C812 1.419 . S
C814 C815 1.362 . S
C815 H805 0.930 . S
C815 C808 1.409 . S
C815 C814 1.362 . S
H816 C822 0.930 . S
H817 C825 0.930 . S
H818 C826 0.930 . S
H819 C827 0.930 . S
H820 C830 0.930 . S
H821 C831 0.930 . S
C822 H816 0.930 . S
C822 C823 1.355 . S
C822 C824 1.415 . S
C823 C822 1.355 . S
C823 C825 1.419 . S
C824 C822 1.415 . S
C824 C829 1.425 . S
C824 C831 1.409 . S
C825 H817 0.930 . S
C825 C823 1.419 . S
C825 C826 1.362 . S
C826 H818 0.930 . S
C826 C825 1.362 . S
C826 C829 1.409 . S
C827 H819 0.930 . S
C827 C828 1.355 . S
C827 C829 1.415 . S
C828 C827 1.355 . S
C828 C830 1.419 . S
C829 C824 1.425 . S
C829 C826 1.409 . S
C829 C827 1.415 . S
C830 H820 0.930 . S
C830 C828 1.419 . S
C830 C831 1.362 . S
C831 H821 0.930 . S
C831 C824 1.409 . S
C831 C830 1.362 . S
H832 C838 0.930 . S
H833 C841 0.930 . S
H834 C842 0.930 . S
H835 C843 0.930 . S
H836 C846 0.930 . S
H837 C847 0.930 . S
C838 H832 0.930 . S
C838 C839 1.355 . S
C838 C840 1.415 . S
C839 C838 1.355 . S
C839 C841 1.419 . S
C840 C838 1.415 . S
C840 C845 1.425 . S
C840 C847 1.409 . S
C841 H833 0.930 . S
C841 C839 1.419 . S
C841 C842 1.362 . S
C842 H834 0.930 . S
C842 C841 1.362 . S
C842 C845 1.409 . S
C843 H835 0.930 . S
C843 C844 1.355 . S
C843 C845 1.415 . S
C844 C843 1.355 . S
C844 C846 1.419 . S
C845 C840 1.425 . S
C845 C842 1.409 . S
C845 C843 1.415 . S
C846 H836 0.930 . S
C846 C844 1.419 . S
C846 C847 1.362 . S
C847 H837 0.930 . S
C847 C840 1.409 . S
C847 C846 1.362 . S
H848 C854 0.930 . S
H849 C857 0.930 . S
H850 C858 0.930 . S
H851 C859 0.930 . S
H852 C862 0.930 . S
H853 C863 0.930 . S
C854 H848 0.930 . S
C854 C855 1.355 . S
C854 C856 1.415 . S
C855 C854 1.355 . S
C855 C857 1.419 . S
C856 C854 1.415 . S
C856 C861 1.425 . S
C856 C863 1.409 . S
C857 H849 0.930 . S
C857 C855 1.419 . S
C857 C858 1.362 . S
C858 H850 0.930 . S
C858 C857 1.362 . S
C858 C861 1.409 . S
C859 H851 0.930 . S
C859 C860 1.355 . S
C859 C861 1.415 . S
C860 C859 1.355 . S
C860 C862 1.419 . S
C861 C856 1.425 . S
C861 C858 1.409 . S
C861 C859 1.415 . S
C862 H852 0.930 . S
C862 C860 1.419 . S
C862 C863 1.362 . S
C863 H853 0.930 . S
C863 C856 1.409 . S
C863 C862 1.362 . S
H864 C870 0.930 . S
H865 C873 0.930 . S
H866 C874 0.930 . S
H867 C875 0.930 . S
H868 C878 0.930 . S
H869 C879 0.930 . S
C870 H864 0.930 . S
C870 C871 1.355 . S
C870 C872 1.415 . S
C871 C870 1.355 . S
C871 C873 1.419 . S
C872 C870 1.415 . S
C872 C877 1.425 . S
C872 C879 1.409 . S
C873 H865 0.930 . S
C873 C871 1.419 . S
C873 C874 1.362 . S
C874 H866 0.930 . S
C874 C873 1.362 . S
C874 C877 1.409 . S
C875 H867 0.930 . S
C875 C876 1.355 . S
C875 C877 1.415 . S
C876 C875 1.355 . S
C876 C878 1.419 . S
C877 C872 1.425 . S
C877 C874 1.409 . S
C877 C875 1.415 . S
C878 H868 0.930 . S
C878 C876 1.419 . S
C878 C879 1.362 . S
C879 H869 0.930 . S
C879 C872 1.409 . S
C879 C878 1.362 . S
H880 C886 0.930 . S
H881 C889 0.930 . S
H882 C890 0.930 . S
H883 C891 0.930 1_556 S
H884 C894 0.930 . S
H885 C895 0.930 . S
C886 H880 0.930 . S
C886 C887 1.355 . S
C886 C888 1.415 . S
C887 C886 1.355 . S
C887 C889 1.419 1_554 S
C888 C886 1.415 . S
C888 C893 1.425 . S
C888 C895 1.409 . S
C889 H881 0.930 . S
C889 C887 1.419 1_556 S
C889 C890 1.362 . S
C890 H882 0.930 . S
C890 C889 1.362 . S
C890 C893 1.409 1_556 S
C891 H883 0.930 1_554 S
C891 C892 1.355 . S
C891 C893 1.415 . S
C892 C891 1.355 . S
C892 C894 1.419 . S
C893 C888 1.425 . S
C893 C890 1.409 1_554 S
C893 C891 1.415 . S
C894 H884 0.930 . S
C894 C892 1.419 . S
C894 C895 1.362 . S
C895 H885 0.930 . S
C895 C888 1.409 . S
C895 C894 1.362 . S
H896 C902 0.930 . S
H897 C905 0.930 . S
H898 C906 0.930 . S
H899 C907 0.930 . S
H900 C910 0.930 . S
H901 C911 0.930 . S
C902 H896 0.930 . S
C902 C903 1.355 . S
C902 C904 1.415 . S
C903 C902 1.355 . S
C903 C905 1.419 . S
C904 C902 1.415 . S
C904 C909 1.425 . S
C904 C911 1.409 . S
C905 H897 0.930 . S
C905 C903 1.419 . S
C905 C906 1.362 . S
C906 H898 0.930 . S
C906 C905 1.362 . S
C906 C909 1.409 . S
C907 H899 0.930 . S
C907 C908 1.355 . S
C907 C909 1.415 . S
C908 C907 1.355 . S
C908 C910 1.419 . S
C909 C904 1.425 . S
C909 C906 1.409 . S
C909 C907 1.415 . S
C910 H900 0.930 . S
C910 C908 1.419 . S
C910 C911 1.362 . S
C911 H901 0.930 . S
C911 C904 1.409 . S
C911 C910 1.362 . S
H912 C918 0.930 . S
H913 C921 0.930 . S
H914 C922 0.930 . S
H915 C923 0.930 . S
H916 C926 0.930 . S
H917 C927 0.930 . S
C918 H912 0.930 . S
C918 C919 1.355 . S
C918 C920 1.415 . S
C919 C918 1.355 . S
C919 C921 1.419 . S
C920 C918 1.415 . S
C920 C925 1.425 . S
C920 C927 1.409 . S
C921 H913 0.930 . S
C921 C919 1.419 . S
C921 C922 1.362 . S
C922 H914 0.930 . S
C922 C921 1.362 . S
C922 C925 1.409 . S
C923 H915 0.930 . S
C923 C924 1.355 . S
C923 C925 1.415 . S
C924 C923 1.355 . S
C924 C926 1.419 . S
C925 C920 1.425 . S
C925 C922 1.409 . S
C925 C923 1.415 . S
C926 H916 0.930 . S
C926 C924 1.419 . S
C926 C927 1.362 . S
C927 H917 0.930 . S
C927 C920 1.409 . S
C927 C926 1.362 . S
H928 C934 0.930 . S
H929 C937 0.930 1_556 S
H930 C938 0.930 . S
H931 C939 0.930 . S
H932 C942 0.930 1_554 S
H933 C943 0.930 . S
C934 H928 0.930 . S
C934 C935 1.355 . S
C934 C936 1.415 1_545 S
C935 C934 1.355 . S
C935 C937 1.419 . S
C936 C934 1.415 1_565 S
C936 C941 1.425 1_564 S
C936 C943 1.409 . S
C937 H929 0.930 1_554 S
C937 C935 1.419 . S
C937 C938 1.362 1_554 S
C938 H930 0.930 . S
C938 C937 1.362 1_556 S
C938 C941 1.409 . S
C939 H931 0.930 . S
C939 C940 1.355 . S
C939 C941 1.415 1_565 S
C940 C939 1.355 . S
C940 C942 1.419 . S
C941 C936 1.425 1_546 S
C941 C938 1.409 . S
C941 C939 1.415 1_545 S
C942 H932 0.930 1_556 S
C942 C940 1.419 . S
C942 C943 1.362 1_556 S
C943 H933 0.930 . S
C943 C936 1.409 . S
C943 C942 1.362 1_554 S
H944 C950 0.930 . S
H945 C953 0.930 . S
H946 C954 0.930 . S
H947 C955 0.930 . S
H948 C958 0.930 . S
H949 C959 0.930 . S
C950 H944 0.930 . S
C950 C951 1.355 . S
C950 C952 1.415 . S
C951 C950 1.355 . S
C951 C953 1.419 . S
C952 C950 1.415 . S
C952 C957 1.425 . S
C952 C959 1.409 . S
C953 H945 0.930 . S
C953 C951 1.419 . S
C953 C954 1.362 . S
C954 H946 0.930 . S
C954 C953 1.362 . S
C954 C957 1.409 . S
C955 H947 0.930 . S
C955 C956 1.355 . S
C955 C957 1.415 . S
C956 C955 1.355 . S
C956 C958 1.419 . S
C957 C952 1.425 . S
C957 C954 1.409 . S
C957 C955 1.415 . S
C958 H948 0.930 . S
C958 C956 1.419 . S
C958 C959 1.362 . S
C959 H949 0.930 . S
C959 C952 1.409 . S
C959 C958 1.362 . S
H960 C966 0.930 . S
H961 C969 0.930 . S
H962 C970 0.910 1_565 S
H963 C971 0.930 . S
H964 C974 0.930 . S
H965 C975 0.910 1_545 S
C966 H960 0.930 . S
C966 C967 1.355 . S
C966 C968 1.415 . S
C967 C966 1.355 . S
C967 C969 1.419 . S
C968 C966 1.415 . S
C968 C973 1.425 1_545 S
C968 C975 1.409 1_545 S
C969 H961 0.930 . S
C969 C967 1.419 . S
C969 C970 1.362 . S
C970 H962 0.910 1_545 S
C970 C969 1.362 . S
C970 C973 1.409 1_545 S
C971 H963 0.930 . S
C971 C972 1.355 . S
C971 C973 1.415 . S
C972 C971 1.355 . S
C972 C974 1.419 . S
C973 C968 1.425 1_565 S
C973 C970 1.409 1_565 S
C973 C971 1.415 . S
C974 H964 0.930 . S
C974 C972 1.419 . S
C974 C975 1.362 . S
C975 H965 0.910 1_565 S
C975 C968 1.409 1_565 S
C975 C974 1.362 . S
H976 C982 0.930 . S
H977 C985 0.930 . S
H978 C986 0.930 . S
H979 C987 0.930 . S
H980 C990 0.930 . S
H981 C991 0.930 . S
C982 H976 0.930 . S
C982 C983 1.355 . S
C982 C984 1.415 . S
C983 C982 1.355 . S
C983 C985 1.419 . S
C984 C982 1.415 . S
C984 C989 1.425 . S
C984 C991 1.409 . S
C985 H977 0.930 . S
C985 C983 1.419 . S
C985 C986 1.362 . S
C986 H978 0.930 . S
C986 C985 1.362 . S
C986 C989 1.409 . S
C987 H979 0.930 . S
C987 C988 1.355 . S
C987 C989 1.415 . S
C988 C987 1.355 . S
C988 C990 1.419 . S
C989 C984 1.425 . S
C989 C986 1.409 . S
C989 C987 1.415 . S
C990 H980 0.930 . S
C990 C988 1.419 . S
C990 C991 1.362 . S
C991 H981 0.930 . S
C991 C984 1.409 . S
C991 C990 1.362 . S
H992 C998 0.930 . S
H993 C1001 0.930 . S
H994 C1002 0.930 . S
H995 C1003 0.930 . S
H996 C1006 0.930 . S
H997 C1007 0.930 . S
C998 H992 0.930 . S
C998 C999 1.355 . S
C998 C1000 1.415 . S
C999 C998 1.355 . S
C999 C1001 1.419 . S
C1000 C998 1.415 . S
C1000 C1005 1.425 . S
C1000 C1007 1.409 . S
C1001 H993 0.930 . S
C1001 C999 1.419 . S
C1001 C1002 1.362 . S
C1002 H994 0.930 . S
C1002 C1001 1.362 . S
C1002 C1005 1.409 . S
C1003 H995 0.930 . S
C1003 C1004 1.355 . S
C1003 C1005 1.415 . S
C1004 C1003 1.355 . S
C1004 C1006 1.419 . S
C1005 C1000 1.425 . S
C1005 C1002 1.409 . S
C1005 C1003 1.415 . S
C1006 H996 0.930 . S
C1006 C1004 1.419 . S
C1006 C1007 1.362 . S
C1007 H997 0.930 . S
C1007 C1000 1.409 . S
C1007 C1006 1.362 . S
H1008 C1014 0.930 . S
H1009 C1017 0.930 . S
H1010 C1018 0.930 . S
H1011 C1019 0.930 . S
H1012 C1022 0.930 . S
H1013 C1023 0.930 . S
C1014 H1008 0.930 . S
C1014 C1015 1.355 . S
C1014 C1016 1.415 . S
C1015 C1014 1.355 . S
C1015 C1017 1.419 . S
C1016 C1014 1.415 . S
C1016 C1021 1.425 . S
C1016 C1023 1.409 . S
C1017 H1009 0.930 . S
C1017 C1015 1.419 . S
C1017 C1018 1.362 . S
C1018 H1010 0.930 . S
C1018 C1017 1.362 . S
C1018 C1021 1.409 . S
C1019 H1011 0.930 . S
C1019 C1020 1.355 . S
C1019 C1021 1.415 . S
C1020 C1019 1.355 . S
C1020 C1022 1.419 . S
C1021 C1016 1.425 . S
C1021 C1018 1.409 . S
C1021 C1019 1.415 . S
C1022 H1012 0.930 . S
C1022 C1020 1.419 . S
C1022 C1023 1.362 . S
C1023 H1013 0.930 . S
C1023 C1016 1.409 . S
C1023 C1022 1.362 . S
H1024 C1030 0.930 . S
H1025 C1033 0.930 . S
H1026 C1034 0.930 . S
H1027 C1035 0.930 . S
H1028 C1038 0.930 . S
H1029 C1039 0.930 . S
C1030 H1024 0.930 . S
C1030 C1031 1.355 . S
C1030 C1032 1.415 . S
C1031 C1030 1.355 . S
C1031 C1033 1.419 . S
C1032 C1030 1.415 . S
C1032 C1037 1.425 . S
C1032 C1039 1.409 . S
C1033 H1025 0.930 . S
C1033 C1031 1.419 . S
C1033 C1034 1.362 . S
C1034 H1026 0.930 . S
C1034 C1033 1.362 . S
C1034 C1037 1.409 . S
C1035 H1027 0.930 . S
C1035 C1036 1.355 . S
C1035 C1037 1.415 . S
C1036 C1035 1.355 . S
C1036 C1038 1.419 . S
C1037 C1032 1.425 . S
C1037 C1034 1.409 . S
C1037 C1035 1.415 . S
C1038 H1028 0.930 . S
C1038 C1036 1.419 . S
C1038 C1039 1.362 . S
C1039 H1029 0.930 . S
C1039 C1032 1.409 . S
C1039 C1038 1.362 . S
H1040 C1046 0.930 . S
H1041 C1049 0.930 . S
H1042 C1050 0.930 . S
H1043 C1051 0.930 . S
H1044 C1054 0.930 . S
H1045 C1055 0.930 . S
C1046 H1040 0.930 . S
C1046 C1047 1.355 . S
C1046 C1048 1.415 . S
C1047 C1046 1.355 . S
C1047 C1049 1.419 . S
C1048 C1046 1.415 . S
C1048 C1053 1.425 1_556 S
C1048 C1055 1.409 . S
C1049 H1041 0.930 . S
C1049 C1047 1.419 . S
C1049 C1050 1.362 1_556 S
C1050 H1042 0.930 . S
C1050 C1049 1.362 1_554 S
C1050 C1053 1.409 . S
C1051 H1043 0.930 . S
C1051 C1052 1.355 . S
C1051 C1053 1.415 . S
C1052 C1051 1.355 . S
C1052 C1054 1.419 . S
C1053 C1048 1.425 1_554 S
C1053 C1050 1.409 . S
C1053 C1051 1.415 . S
C1054 H1044 0.930 . S
C1054 C1052 1.419 . S
C1054 C1055 1.362 1_554 S
C1055 H1045 0.930 . S
C1055 C1048 1.409 . S
C1055 C1054 1.362 1_556 S
H1056 C1062 0.930 . S
H1057 C1065 0.930 . S
H1058 C1066 0.930 . S
H1059 C1067 0.930 . S
H1060 C1070 0.930 . S
H1061 C1071 0.930 . S
C1062 H1056 0.930 . S
C1062 C1063 1.355 . S
C1062 C1064 1.415 . S
C1063 C1062 1.355 . S
C1063 C1065 1.419 . S
C1064 C1062 1.415 . S
C1064 C1069 1.425 . S
C1064 C1071 1.409 . S
C1065 H1057 0.930 . S
C1065 C1063 1.419 . S
C1065 C1066 1.362 . S
C1066 H1058 0.930 . S
C1066 C1065 1.362 . S
C1066 C1069 1.409 . S
C1067 H1059 0.930 . S
C1067 C1068 1.355 . S
C1067 C1069 1.415 . S
C1068 C1067 1.355 . S
C1068 C1070 1.419 . S
C1069 C1064 1.425 . S
C1069 C1066 1.409 . S
C1069 C1067 1.415 . S
C1070 H1060 0.930 . S
C1070 C1068 1.419 . S
C1070 C1071 1.362 . S
C1071 H1061 0.930 . S
C1071 C1064 1.409 . S
C1071 C1070 1.362 . S
H1072 C1078 0.930 . S
H1073 C1081 0.930 . S
H1074 C1082 0.930 . S
H1075 C1083 0.930 . S
H1076 C1086 0.930 . S
H1077 C1087 0.930 . S
C1078 H1072 0.930 . S
C1078 C1079 1.355 . S
C1078 C1080 1.415 . S
C1079 C1078 1.355 . S
C1079 C1081 1.419 . S
C1080 C1078 1.415 . S
C1080 C1085 1.425 . S
C1080 C1087 1.409 . S
C1081 H1073 0.930 . S
C1081 C1079 1.419 . S
C1081 C1082 1.362 . S
C1082 H1074 0.930 . S
C1082 C1081 1.362 . S
C1082 C1085 1.409 . S
C1083 H1075 0.930 . S
C1083 C1084 1.355 . S
C1083 C1085 1.415 . S
C1084 C1083 1.355 . S
C1084 C1086 1.419 . S
C1085 C1080 1.425 . S
C1085 C1082 1.409 . S
C1085 C1083 1.415 . S
C1086 H1076 0.930 . S
C1086 C1084 1.419 . S
C1086 C1087 1.362 . S
C1087 H1077 0.930 . S
C1087 C1080 1.409 . S
C1087 C1086 1.362 . S
H1088 C1094 0.930 1_554 S
H1089 C1097 0.930 . S
H1090 C1098 0.930 . S
H1091 C1099 0.930 . S
H1092 C1102 0.930 . S
H1093 C1103 0.930 . S
C1094 H1088 0.930 1_556 S
C1094 C1095 1.355 . S
C1094 C1096 1.415 . S
C1095 C1094 1.355 . S
C1095 C1097 1.419 . S
C1096 C1094 1.415 . S
C1096 C1101 1.425 . S
C1096 C1103 1.409 . S
C1097 H1089 0.930 . S
C1097 C1095 1.419 . S
C1097 C1098 1.362 . S
C1098 H1090 0.930 . S
C1098 C1097 1.362 . S
C1098 C1101 1.409 . S
C1099 H1091 0.930 . S
C1099 C1100 1.355 . S
C1099 C1101 1.415 . S
C1100 C1099 1.355 . S
C1100 C1102 1.419 . S
C1101 C1096 1.425 . S
C1101 C1098 1.409 . S
C1101 C1099 1.415 . S
C1102 H1092 0.930 . S
C1102 C1100 1.419 . S
C1102 C1103 1.362 . S
C1103 H1093 0.930 . S
C1103 C1096 1.409 . S
C1103 C1102 1.362 . S
H1104 C1110 0.930 . S
H1105 C1113 0.930 . S
H1106 C1114 0.930 . S
H1107 C1115 0.930 . S
H1108 C1118 0.930 . S
H1109 C1119 0.930 . S
C1110 H1104 0.930 . S
C1110 C1111 1.355 . S
C1110 C1112 1.415 . S
C1111 C1110 1.355 . S
C1111 C1113 1.419 . S
C1112 C1110 1.415 . S
C1112 C1117 1.425 . S
C1112 C1119 1.409 . S
C1113 H1105 0.930 . S
C1113 C1111 1.419 . S
C1113 C1114 1.362 . S
C1114 H1106 0.930 . S
C1114 C1113 1.362 . S
C1114 C1117 1.409 . S
C1115 H1107 0.930 . S
C1115 C1116 1.355 . S
C1115 C1117 1.415 . S
C1116 C1115 1.355 . S
C1116 C1118 1.419 . S
C1117 C1112 1.425 . S
C1117 C1114 1.409 . S
C1117 C1115 1.415 . S
C1118 H1108 0.930 . S
C1118 C1116 1.419 . S
C1118 C1119 1.362 . S
C1119 H1109 0.930 . S
C1119 C1112 1.409 . S
C1119 C1118 1.362 . S
H1120 C1126 0.930 . S
H1121 C1129 0.930 . S
H1122 C1130 0.930 . S
H1123 C1131 0.930 . S
H1124 C1134 0.930 . S
H1125 C1135 0.930 . S
C1126 H1120 0.930 . S
C1126 C1127 1.355 1_455 S
C1126 C1128 1.415 . S
C1127 C1126 1.355 1_655 S
C1127 C1129 1.419 . S
C1128 C1126 1.415 . S
C1128 C1133 1.425 . S
C1128 C1135 1.409 . S
C1129 H1121 0.930 . S
C1129 C1127 1.419 . S
C1129 C1130 1.362 . S
C1130 H1122 0.930 . S
C1130 C1129 1.362 . S
C1130 C1133 1.409 1_655 S
C1131 H1123 0.930 . S
C1131 C1132 1.355 . S
C1131 C1133 1.415 . S
C1132 C1131 1.355 . S
C1132 C1134 1.419 . S
C1133 C1128 1.425 . S
C1133 C1130 1.409 1_455 S
C1133 C1131 1.415 . S
C1134 H1124 0.930 . S
C1134 C1132 1.419 . S
C1134 C1135 1.362 . S
C1135 H1125 0.930 . S
C1135 C1128 1.409 . S
C1135 C1134 1.362 . S
H1136 C1142 0.930 . S
H1137 C1145 0.920 1_655 S
H1138 C1146 0.930 . S
H1139 C1147 0.930 . S
H1140 C1150 0.930 . S
H1141 C1151 0.930 . S
C1142 H1136 0.930 . S
C1142 C1143 1.355 . S
C1142 C1144 1.415 . S
C1143 C1142 1.355 . S
C1143 C1145 1.421 . S
C1144 C1142 1.415 . S
C1144 C1149 1.425 . S
C1144 C1151 1.409 . S
C1145 H1137 0.920 1_455 S
C1145 C1143 1.421 . S
C1145 C1146 1.371 . S
C1146 H1138 0.930 . S
C1146 C1145 1.371 . S
C1146 C1149 1.409 . S
C1147 H1139 0.930 . S
C1147 C1148 1.355 . S
C1147 C1149 1.415 . S
C1148 C1147 1.355 . S
C1148 C1150 1.419 . S
C1149 C1144 1.425 . S
C1149 C1146 1.409 . S
C1149 C1147 1.415 . S
C1150 H1140 0.930 . S
C1150 C1148 1.419 . S
C1150 C1151 1.362 . S
C1151 H1141 0.930 . S
C1151 C1144 1.409 . S
C1151 C1150 1.362 . S
H1152 C1158 0.930 . S
H1153 C1161 0.930 . S
H1154 C1162 0.930 . S
H1155 C1163 0.930 . S
H1156 C1166 0.930 . S
H1157 C1167 0.930 . S
C1158 H1152 0.930 . S
C1158 C1159 1.355 . S
C1158 C1160 1.415 . S
C1159 C1158 1.355 . S
C1159 C1161 1.419 . S
C1160 C1158 1.415 . S
C1160 C1165 1.425 . S
C1160 C1167 1.409 . S
C1161 H1153 0.930 . S
C1161 C1159 1.419 . S
C1161 C1162 1.362 . S
C1162 H1154 0.930 . S
C1162 C1161 1.362 . S
C1162 C1165 1.409 . S
C1163 H1155 0.930 . S
C1163 C1164 1.355 . S
C1163 C1165 1.415 . S
C1164 C1163 1.355 . S
C1164 C1166 1.419 . S
C1165 C1160 1.425 . S
C1165 C1162 1.409 . S
C1165 C1163 1.415 . S
C1166 H1156 0.930 . S
C1166 C1164 1.419 . S
C1166 C1167 1.362 . S
C1167 H1157 0.930 . S
C1167 C1160 1.409 . S
C1167 C1166 1.362 . S
H1168 C1174 0.930 . S
H1169 C1177 0.930 . S
H1170 C1178 0.930 . S
H1171 C1179 0.930 . S
H1172 C1182 0.930 1_554 S
H1173 C1183 0.930 . S
C1174 H1168 0.930 . S
C1174 C1175 1.355 . S
C1174 C1176 1.415 . S
C1175 C1174 1.355 . S
C1175 C1177 1.419 . S
C1176 C1174 1.415 . S
C1176 C1181 1.425 . S
C1176 C1183 1.409 . S
C1177 H1169 0.930 . S
C1177 C1175 1.419 . S
C1177 C1178 1.362 . S
C1178 H1170 0.930 . S
C1178 C1177 1.362 . S
C1178 C1181 1.409 . S
C1179 H1171 0.930 . S
C1179 C1180 1.355 . S
C1179 C1181 1.415 . S
C1180 C1179 1.355 . S
C1180 C1182 1.419 . S
C1181 C1176 1.425 . S
C1181 C1178 1.409 . S
C1181 C1179 1.415 . S
C1182 H1172 0.930 1_556 S
C1182 C1180 1.419 . S
C1182 C1183 1.362 . S
C1183 H1173 0.930 . S
C1183 C1176 1.409 . S
C1183 C1182 1.362 . S
H1184 C1190 0.930 . S
H1185 C1193 0.930 . S
H1186 C1194 0.930 . S
H1187 C1195 0.930 1_554 S
H1188 C1198 0.930 . S
H1189 C1199 0.930 . S
C1190 H1184 0.930 . S
C1190 C1191 1.355 . S
C1190 C1192 1.415 . S
C1191 C1190 1.355 . S
C1191 C1193 1.419 . S
C1192 C1190 1.415 . S
C1192 C1197 1.425 . S
C1192 C1199 1.409 . S
C1193 H1185 0.930 . S
C1193 C1191 1.419 . S
C1193 C1194 1.362 . S
C1194 H1186 0.930 . S
C1194 C1193 1.362 . S
C1194 C1197 1.409 . S
C1195 H1187 0.930 1_556 S
C1195 C1196 1.355 . S
C1195 C1197 1.415 . S
C1196 C1195 1.355 . S
C1196 C1198 1.419 . S
C1197 C1192 1.425 . S
C1197 C1194 1.409 . S
C1197 C1195 1.415 . S
C1198 H1188 0.930 . S
C1198 C1196 1.419 . S
C1198 C1199 1.362 . S
C1199 H1189 0.930 . S
C1199 C1192 1.409 . S
C1199 C1198 1.362 . S
H1200 C1206 0.930 . S
H1201 C1209 0.930 . S
H1202 C1210 0.930 . S
H1203 C1211 0.930 . S
H1204 C1214 0.930 . S
H1205 C1215 0.930 . S
C1206 H1200 0.930 . S
C1206 C1207 1.355 . S
C1206 C1208 1.415 . S
C1207 C1206 1.355 . S
C1207 C1209 1.419 . S
C1208 C1206 1.415 . S
C1208 C1213 1.425 . S
C1208 C1215 1.409 . S
C1209 H1201 0.930 . S
C1209 C1207 1.419 . S
C1209 C1210 1.362 . S
C1210 H1202 0.930 . S
C1210 C1209 1.362 . S
C1210 C1213 1.409 . S
C1211 H1203 0.930 . S
C1211 C1212 1.355 . S
C1211 C1213 1.415 . S
C1212 C1211 1.355 . S
C1212 C1214 1.419 . S
C1213 C1208 1.425 . S
C1213 C1210 1.409 . S
C1213 C1211 1.415 . S
C1214 H1204 0.930 . S
C1214 C1212 1.419 . S
C1214 C1215 1.362 . S
C1215 H1205 0.930 . S
C1215 C1208 1.409 . S
C1215 C1214 1.362 . S
H1216 C1222 0.930 . S
H1217 C1225 0.930 . S
H1218 C1226 0.930 1_655 S
H1219 C1227 0.930 . S
H1220 C1230 0.930 . S
H1221 C1231 0.930 . S
C1222 H1216 0.930 . S
C1222 C1223 1.355 . S
C1222 C1224 1.415 . S
C1223 C1222 1.355 . S
C1223 C1225 1.419 . S
C1224 C1222 1.415 . S
C1224 C1229 1.425 . S
C1224 C1231 1.409 . S
C1225 H1217 0.930 . S
C1225 C1223 1.419 . S
C1225 C1226 1.362 . S
C1226 H1218 0.930 1_455 S
C1226 C1225 1.362 . S
C1226 C1229 1.409 . S
C1227 H1219 0.930 . S
C1227 C1228 1.370 . S
C1227 C1229 1.415 1_655 S
C1228 C1227 1.370 . S
C1228 C1230 1.367 1_655 S
C1229 C1224 1.425 . S
C1229 C1226 1.409 . S
C1229 C1227 1.415 1_455 S
C1230 H1220 0.930 . S
C1230 C1228 1.367 1_455 S
C1230 C1231 1.362 . S
C1231 H1221 0.930 . S
C1231 C1224 1.409 . S
C1231 C1230 1.362 . S
H1232 C1238 0.930 . S
H1233 C1241 0.930 . S
H1234 C1242 0.930 . S
H1235 C1243 0.930 . S
H1236 C1246 0.930 . S
H1237 C1247 0.930 1_655 S
C1238 H1232 0.930 . S
C1238 C1239 1.355 . S
C1238 C1240 1.415 . S
C1239 C1238 1.355 . S
C1239 C1241 1.419 . S
C1240 C1238 1.415 . S
C1240 C1245 1.425 . S
C1240 C1247 1.409 . S
C1241 H1233 0.930 . S
C1241 C1239 1.419 . S
C1241 C1242 1.362 . S
C1242 H1234 0.930 . S
C1242 C1241 1.362 . S
C1242 C1245 1.409 . S
C1243 H1235 0.930 . S
C1243 C1244 1.355 . S
C1243 C1245 1.415 . S
C1244 C1243 1.355 . S
C1244 C1246 1.419 1_455 S
C1245 C1240 1.425 . S
C1245 C1242 1.409 . S
C1245 C1243 1.415 . S
C1246 H1236 0.930 . S
C1246 C1244 1.419 1_655 S
C1246 C1247 1.362 1_655 S
C1247 H1237 0.930 1_455 S
C1247 C1240 1.409 . S
C1247 C1246 1.362 1_455 S
H1248 C1254 0.930 . S
H1249 C1257 0.930 . S
H1250 C1258 0.930 . S
H1251 C1259 0.930 . S
H1252 C1262 0.930 . S
H1253 C1263 0.930 . S
C1254 H1248 0.930 . S
C1254 C1255 1.355 . S
C1254 C1256 1.415 . S
C1255 C1254 1.355 . S
C1255 C1257 1.419 . S
C1256 C1254 1.415 . S
C1256 C1261 1.425 . S
C1256 C1263 1.409 . S
C1257 H1249 0.930 . S
C1257 C1255 1.419 . S
C1257 C1258 1.362 . S
C1258 H1250 0.930 . S
C1258 C1257 1.362 . S
C1258 C1261 1.409 . S
C1259 H1251 0.930 . S
C1259 C1260 1.355 . S
C1259 C1261 1.415 . S
C1260 C1259 1.355 . S
C1260 C1262 1.419 . S
C1261 C1256 1.425 . S
C1261 C1258 1.409 . S
C1261 C1259 1.415 . S
C1262 H1252 0.930 . S
C1262 C1260 1.419 . S
C1262 C1263 1.362 . S
C1263 H1253 0.930 . S
C1263 C1256 1.409 . S
C1263 C1262 1.362 . S
H1264 C1270 0.930 . S
H1265 C1273 0.930 . S
H1266 C1274 0.930 . S
H1267 C1275 0.930 . S
H1268 C1278 0.930 . S
H1269 C1279 0.930 . S
C1270 H1264 0.930 . S
C1270 C1271 1.355 . S
C1270 C1272 1.415 . S
C1271 C1270 1.355 . S
C1271 C1273 1.419 . S
C1272 C1270 1.415 . S
C1272 C1277 1.425 . S
C1272 C1279 1.409 . S
C1273 H1265 0.930 . S
C1273 C1271 1.419 . S
C1273 C1274 1.362 . S
C1274 H1266 0.930 . S
C1274 C1273 1.362 . S
C1274 C1277 1.409 . S
C1275 H1267 0.930 . S
C1275 C1276 1.355 . S
C1275 C1277 1.415 . S
C1276 C1275 1.355 . S
C1276 C1278 1.419 . S
C1277 C1272 1.425 . S
C1277 C1274 1.409 . S
C1277 C1275 1.415 . S
C1278 H1268 0.930 . S
C1278 C1276 1.419 . S
C1278 C1279 1.362 . S
C1279 H1269 0.930 . S
C1279 C1272 1.409 . S
C1279 C1278 1.362 . S
H1280 C1286 0.930 . S
H1281 C1289 0.930 . S
H1282 C1290 0.930 . S
H1283 C1291 0.930 . S
H1284 C1294 0.930 . S
H1285 C1295 0.930 . S
C1286 H1280 0.930 . S
C1286 C1287 1.355 . S
C1286 C1288 1.415 . S
C1287 C1286 1.355 . S
C1287 C1289 1.419 . S
C1288 C1286 1.415 . S
C1288 C1293 1.425 . S
C1288 C1295 1.409 . S
C1289 H1281 0.930 . S
C1289 C1287 1.419 . S
C1289 C1290 1.362 . S
C1290 H1282 0.930 . S
C1290 C1289 1.362 . S
C1290 C1293 1.409 . S
C1291 H1283 0.930 . S
C1291 C1292 1.355 . S
C1291 C1293 1.415 . S
C1292 C1291 1.355 . S
C1292 C1294 1.419 . S
C1293 C1288 1.425 . S
C1293 C1290 1.409 . S
C1293 C1291 1.415 . S
C1294 H1284 0.930 . S
C1294 C1292 1.419 . S
C1294 C1295 1.362 . S
C1295 H1285 0.930 . S
C1295 C1288 1.409 . S
C1295 C1294 1.362 . S
H1296 C1302 0.930 . S
H1297 C1305 0.930 . S
H1298 C1306 0.930 . S
H1299 C1307 0.930 . S
H1300 C1310 0.930 . S
H1301 C1311 0.930 . S
C1302 H1296 0.930 . S
C1302 C1303 1.355 . S
C1302 C1304 1.415 . S
C1303 C1302 1.355 . S
C1303 C1305 1.419 . S
C1304 C1302 1.415 . S
C1304 C1309 1.425 . S
C1304 C1311 1.409 . S
C1305 H1297 0.930 . S
C1305 C1303 1.419 . S
C1305 C1306 1.362 . S
C1306 H1298 0.930 . S
C1306 C1305 1.362 . S
C1306 C1309 1.409 . S
C1307 H1299 0.930 . S
C1307 C1308 1.355 . S
C1307 C1309 1.415 . S
C1308 C1307 1.355 . S
C1308 C1310 1.419 . S
C1309 C1304 1.425 . S
C1309 C1306 1.409 . S
C1309 C1307 1.415 . S
C1310 H1300 0.930 . S
C1310 C1308 1.419 . S
C1310 C1311 1.362 . S
C1311 H1301 0.930 . S
C1311 C1304 1.409 . S
C1311 C1310 1.362 . S
C551 C8 2.041 1_556 S
C556 C267 2.034 . S
C567 C42 2.050 . S
C572 C165 2.018 1_554 S
C583 C199 2.030 . S
C588 C76 2.004 . S
C599 C110 2.011 . S
C604 C233 2.002 . S
C615 C374 2.034 1_455 S
C620 C153 2.006 1_554 S
C631 C289 2.021 1_455 S
C636 C0 1.995 1_556 S
C647 C340 2.036 . S
C652 C221 2.037 . S
C663 C68 2.041 . S
C668 C323 2.015 . S
C679 C335 1.990 . S
C684 C416 2.035 . S
C695 C348 2.004 . S
C700 C505 2.018 . S
C711 C450 2.031 1_556 S
C716 C301 1.991 1_455 S
C727 C382 2.050 1_455 S
C732 C539 2.001 1_554 S
C743 C493 2.039 . S
C748 C102 2.034 . S
C759 C408 2.039 . S
C764 C187 2.011 . S
C775 C34 2.037 . S
C780 C527 2.009 1_554 S
C791 C255 2.012 . S
C796 C442 2.040 1_556 S
C807 C455 2.459 . S
C812 C13 2.454 . S
C823 C387 2.457 . S
C828 C47 2.466 . S
C839 C421 2.505 . S
C844 C81 2.512 . S
C855 C353 2.461 . S
C860 C115 2.454 . S
C871 C140 2.456 . S
C876 C514 2.455 . S
C887 C310 2.482 . S
C892 C174 2.468 . S
C903 C208 2.477 . S
C908 C480 2.491 . S
C919 C242 2.511 . S
C924 C276 2.503 . S
C935 C4 1.474 . S
C940 C149 1.474 . S
C951 C38 1.480 . S
C956 C183 1.480 . S
C967 C217 1.485 . S
C972 C72 1.485 . S
C983 C106 1.475 . S
C988 C251 1.475 . S
C999 C344 1.468 . S
C1004 C285 1.468 . S
C1015 C378 1.469 . S
C1020 C319 1.469 . S
C1031 C412 1.514 . S
C1036 C489 1.514 . S
C1047 C523 1.463 . S
C1052 C446 1.463 . S
C1063 C29 1.838 . S
C1068 C246 1.766 . S
C1079 C63 1.863 . S
C1084 C144 1.809 . S
C1095 C178 1.844 1_556 S
C1100 C97 1.824 . S
C1111 C212 1.788 . S
C1116 C131 1.861 1_554 S
C1127 C391 1.837 . S
C1132 C136 1.805 . S
C1143 C272 1.849 1_455 S
C1148 C17 1.772 . S
C1159 C357 1.781 1_554 S
C1164 C204 1.857 . S
C1175 C85 1.817 . S
C1180 C306 1.792 1_556 S
C1191 C437 1.856 . S
C1196 C314 1.828 1_556 S
C1207 C484 1.825 . S
C1212 C369 1.857 1_554 S
C1223 C471 1.825 . S
C1228 C280 1.786 . S
C1239 C518 1.812 . S
C1244 C403 1.862 1_455 S
C1255 C476 1.793 . S
C1260 C119 1.821 1_554 S
C1271 C170 1.862 1_556 S
C1276 C425 1.813 . S
C1287 C51 1.775 . S
C1292 C510 1.853 . S
C1303 C459 1.786 . S
C1308 C238 1.860 . S
