# Generated by pormake.
# Topology qtz-e, (6)-cn, num edge types: 1
# Building blocks:
#     Node 0, Type 0, BuildingBlock: KUMJIN_clean_sbu_1, # of connection points: 6
#     Node 1, Type 0, BuildingBlock: KUMJIN_clean_sbu_1, # of connection points: 6
#     Node 2, Type 0, BuildingBlock: KUMJIN_clean_sbu_1, # of connection points: 6
#     Node 3, Type 0, BuildingBlock: KUMJIN_clean_sbu_1, # of connection points: 6
#     Node 4, Type 0, BuildingBlock: KUMJIN_clean_sbu_1, # of connection points: 6
#     Node 5, Type 0, BuildingBlock: KUMJIN_clean_sbu_1, # of connection points: 6
#     Edge 6, Type (0, 0), BuildingBlock: ZUJKAS_clean_linker_0, # of connection points: 2
#     Edge 7, Type (0, 0), BuildingBlock: ZUJKAS_clean_linker_0, # of connection points: 2
#     Edge 8, Type (0, 0), BuildingBlock: ZUJKAS_clean_linker_0, # of connection points: 2
#     Edge 9, Type (0, 0), BuildingBlock: ZUJKAS_clean_linker_0, # of connection points: 2
#     Edge 10, Type (0, 0), BuildingBlock: ZUJKAS_clean_linker_0, # of connection points: 2
#     Edge 11, Type (0, 0), BuildingBlock: ZUJKAS_clean_linker_0, # of connection points: 2
#     Edge 12, Type (0, 0), BuildingBlock: ZUJKAS_clean_linker_0, # of connection points: 2
#     Edge 13, Type (0, 0), BuildingBlock: ZUJKAS_clean_linker_0, # of connection points: 2
#     Edge 14, Type (0, 0), BuildingBlock: ZUJKAS_clean_linker_0, # of connection points: 2
#     Edge 15, Type (0, 0), BuildingBlock: ZUJKAS_clean_linker_0, # of connection points: 2
#     Edge 16, Type (0, 0), BuildingBlock: ZUJKAS_clean_linker_0, # of connection points: 2
#     Edge 17, Type (0, 0), BuildingBlock: ZUJKAS_clean_linker_0, # of connection points: 2
#     Edge 18, Type (0, 0), BuildingBlock: ZUJKAS_clean_linker_0, # of connection points: 2
#     Edge 19, Type (0, 0), BuildingBlock: ZUJKAS_clean_linker_0, # of connection points: 2
#     Edge 20, Type (0, 0), BuildingBlock: ZUJKAS_clean_linker_0, # of connection points: 2
#     Edge 21, Type (0, 0), BuildingBlock: ZUJKAS_clean_linker_0, # of connection points: 2
#     Edge 22, Type (0, 0), BuildingBlock: ZUJKAS_clean_linker_0, # of connection points: 2
#     Edge 23, Type (0, 0), BuildingBlock: ZUJKAS_clean_linker_0, # of connection points: 2
# Relax obj value: 0.152
# Max RMSD: 0.209
# Mean RMSD: 0.209
data_MOF--net-qtz-e--node1-KUMJIN_clean_sbu_1--edge1-ZUJKAS_clean_linker_0
_symmetry_space_group_name_H-M    P1
_symmetry_Int_Tables_number       1
_symmetry_cell_setting            triclinic
loop_
_symmetry_equiv_pos_as_xyz
'x, y, z'
_cell_length_a     35.791483
_cell_length_b     35.838706
_cell_length_c     59.517355
_cell_angle_alpha  89.922004
_cell_angle_beta   90.020348
_cell_angle_gamma 120.03177
loop_
_atom_site_label
_atom_site_type_symbol
_atom_site_fract_x
_atom_site_fract_y
_atom_site_fract_z
_atom_type_partial_charge
Eu0 Eu 0.17725 0.34971 0.98226 0.0
C1 C 0.31151 0.5443 0.00307 0.0
N2 N 0.3105 0.5098 0.01327 0.0
C3 C 0.38685 0.54136 0.00831 0.0
C4 C 0.35043 0.57817 -0.00564 0.0
C5 C 0.34751 0.50846 0.01662 0.0
C6 C 0.38828 0.57617 -0.00306 0.0
C7 C 0.27388 0.58157 0.99134 0.0
C8 C 0.27338 0.54556 0.00133 0.0
C9 C 0.3123 0.61466 0.98198 0.0
C10 C 0.35046 0.61295 0.98348 0.0
Eu11 Eu 0.24229 0.4545 0.02555 0.0
N12 N 0.23656 0.51306 0.01057 0.0
C13 C 0.23615 0.58412 0.9918 0.0
C14 C 0.20148 0.51817 0.01333 0.0
C15 C 0.20012 0.55279 0.00334 0.0
H16 H 0.34648 0.48192 0.02567 0.0
H17 H 0.17162 0.5558 0.00501 0.0
H18 H 0.07797 0.33532 0.97825 0.0
H19 H 0.23216 0.24371 0.01795 0.0
H20 H 0.17481 0.49647 0.02376 0.0
H21 H 0.23521 0.61123 0.98432 0.0
H22 H 0.24073 0.30733 -0.00175 0.0
H23 H 0.41605 0.53992 0.0106 0.0
H24 H 0.31308 0.64227 0.97404 0.0
H25 H 0.37999 0.63908 0.97652 0.0
H26 H 0.00313 0.27993 0.98808 0.0
H27 H 0.41881 0.60154 0.99047 0.0
H28 H 0.15993 0.18679 0.03024 0.0
N29 N 0.10539 0.2993 0.99139 0.0
C30 C 0.09854 0.26229 0.00144 0.0
C31 C 0.02966 0.27463 -0.00805 0.0
C32 C 0.05646 0.22994 0.00736 0.0
C33 C 0.07194 0.30593 0.98649 0.0
C34 C 0.02186 0.23647 0.00242 0.0
N35 N 0.17451 0.28998 0.00123 0.0
C36 C 0.20923 0.28444 0.00445 0.0
C37 C 0.12762 0.21986 0.0175 0.0
C38 C 0.13401 0.25772 0.0067 0.0
C39 C 0.16352 0.21539 0.022 0.0
C40 C 0.20439 0.24758 0.01522 0.0
H41 H 0.98907 0.21235 0.00672 0.0
H42 H 0.01815 0.16728 0.02291 0.0
H43 H 0.08031 0.15827 0.03161 0.0
O44 O 0.19712 0.32403 0.95387 0.0
O45 O 0.14861 0.34347 0.01716 0.0
O46 O 0.21152 0.38432 0.03545 0.0
O47 O 0.13806 0.32768 0.9519 0.0
O48 O 0.24896 0.37493 0.9878 0.0
O49 O 0.25687 0.39971 0.02404 0.0
O50 O 0.22394 0.47498 0.05669 0.0
O51 O 0.2703 0.46088 0.99051 0.0
O52 O 0.20832 0.41937 0.97074 0.0
O53 O 0.28505 0.47511 0.05447 0.0
O54 O 0.17094 0.42912 0.01866 0.0
O55 O 0.15897 0.40192 0.98229 0.0
C56 C 0.16982 0.3583 0.036 0.0
C57 C 0.15466 0.29825 0.91919 0.0
C58 C 0.17478 0.27115 0.88639 0.0
C59 C 0.13594 0.26239 0.87595 0.0
C60 C 0.11609 0.2891 0.90837 0.0
C61 C 0.10691 0.27134 0.88689 0.0
C62 C 0.18409 0.28938 0.90806 0.0
C63 C 0.27205 0.39003 0.00624 0.0
C64 C 0.16358 0.31687 0.94201 0.0
C65 C 0.05025 0.1925 0.01825 0.0
C66 C 0.08569 0.18746 0.02327 0.0
C67 C 0.24978 0.4473 0.97131 0.0
C68 C 0.27025 0.49718 0.09018 0.0
C69 C 0.25902 0.52823 0.12425 0.0
C70 C 0.28961 0.52114 0.13537 0.0
C71 C 0.30084 0.49068 0.10165 0.0
C72 C 0.24948 0.51624 0.10153 0.0
C73 C 0.31038 0.50259 0.1241 0.0
C74 C 0.1482 0.41688 -0.0001 0.0
C75 C 0.25929 0.48226 0.06677 0.0
H76 H 0.12825 0.24916 0.85912 0.0
H77 H 0.0929 0.29564 0.9165 0.0
H78 H 0.07721 0.26459 0.87865 0.0
H79 H 0.21387 0.29619 0.91629 0.0
H80 H 0.29801 0.53059 0.15275 0.0
H81 H 0.31706 0.47585 0.09335 0.0
H82 H 0.22575 0.5213 0.09284 0.0
H83 H 0.33394 0.49739 0.13282 0.0
Eu84 Eu 0.82594 0.16786 0.3195 0.0
C85 C 0.78832 0.32639 0.35585 0.0
N86 N 0.80999 0.30846 0.36556 0.0
C87 C 0.86554 0.37794 0.37778 0.0
C88 C 0.80557 0.37141 0.35592 0.0
C89 C 0.84724 0.33314 0.37714 0.0
C90 C 0.84504 0.39726 0.36677 0.0
C91 C 0.72422 0.31691 0.33672 0.0
C92 C 0.74792 0.29948 0.34661 0.0
C93 C 0.74189 0.36183 0.33612 0.0
C94 C 0.78243 0.38901 0.34572 0.0
Eu95 Eu 0.7761 0.23285 0.3642 0.0
N96 N 0.73186 0.25617 0.34724 0.0
C97 C 0.68339 0.28861 0.32781 0.0
C98 C 0.69182 0.22834 0.339 0.0
C99 C 0.66706 0.24413 0.32907 0.0
H100 H 0.86279 0.31818 0.38592 0.0
H101 H 0.63542 0.22202 0.32237 0.0
H102 H 0.75043 0.06333 0.31716 0.0
H103 H 0.99501 0.24455 0.34671 0.0
H104 H 0.67899 0.19398 0.33997 0.0
H105 H 0.66415 0.30072 0.32006 0.0
H106 H 0.92971 0.24322 0.33328 0.0
H107 H 0.89534 0.39749 0.3868 0.0
H108 H 0.72425 0.37586 0.32849 0.0
H109 H 0.7953 0.42355 0.34546 0.0
H110 H 0.74506 0.99257 0.32313 0.0
H111 H 0.85938 0.43199 0.36725 0.0
H112 H 0.99492 0.17644 0.35331 0.0
N113 N 0.81671 0.09905 0.32615 0.0
C114 C 0.85264 0.09791 0.3325 0.0
C115 C 0.77542 0.02194 0.32591 0.0
C116 C 0.851 0.0582 0.33606 0.0
C117 C 0.77846 0.06202 0.32271 0.0
C118 C 0.81183 0.01999 0.3326 0.0
N119 N 0.89111 0.17466 0.33346 0.0
C120 C 0.92821 0.21304 0.33669 0.0
C121 C 0.928 0.13619 0.34372 0.0
C122 C 0.89076 0.13668 0.33636 0.0
C123 C 0.96568 0.17548 0.34765 0.0
C124 C 0.96579 0.21401 0.34405 0.0
H125 H 0.80931 0.98887 0.33512 0.0
H126 H 0.88757 0.02761 0.34593 0.0
H127 H 0.9549 0.09576 0.35259 0.0
O128 O 0.86762 0.19099 0.28938 0.0
O129 O 0.82323 0.14475 0.35542 0.0
O130 O 0.8004 0.18923 0.35743 0.0
O131 O 0.8054 0.13109 0.28849 0.0
O132 O 0.86341 0.24081 0.32511 0.0
O133 O 0.84659 0.25018 0.36161 0.0
O134 O 0.72354 0.20411 0.38865 0.0
O135 O 0.7838 0.25348 0.32781 0.0
O136 O 0.77994 0.19341 0.3121 0.0
O137 O 0.78885 0.24577 0.40014 0.0
O138 O 0.72663 0.16568 0.352 0.0
O139 O 0.75243 0.13293 0.32604 0.0
C140 C 0.80756 0.16214 0.36839 0.0
C141 C 0.84649 0.15056 0.25387 0.0
C142 C 0.89013 0.1711 0.21968 0.0
C143 C 0.85772 0.13381 0.2091 0.0
C144 C 0.81465 0.11352 0.24288 0.0
C145 C 0.82027 0.10535 0.22064 0.0
C146 C 0.88416 0.17958 0.24211 0.0
C147 C 0.86917 0.2653 0.34288 0.0
C148 C 0.84012 0.15785 0.27763 0.0
C149 C 0.8882 0.05781 0.34317 0.0
C150 C 0.92655 0.09665 0.34699 0.0
C151 C 0.78779 0.23334 0.31025 0.0
C152 C 0.73247 0.24935 0.41918 0.0
C153 C 0.68344 0.25037 0.4474 0.0
C154 C 0.69791 0.29368 0.44204 0.0
C155 C 0.74666 0.2928 0.41435 0.0
C156 C 0.70106 0.22825 0.436 0.0
C157 C 0.72951 0.31476 0.42571 0.0
C158 C 0.72172 0.13398 0.33841 0.0
C159 C 0.74801 0.22538 0.40559 0.0
H160 H 0.86116 0.12685 0.19176 0.0
H161 H 0.78534 0.09065 0.25149 0.0
H162 H 0.79552 0.07678 0.21231 0.0
H163 H 0.90904 0.20813 0.25044 0.0
H164 H 0.68505 0.31139 0.45071 0.0
H165 H 0.77076 0.30986 0.40168 0.0
H166 H 0.68967 0.19466 0.43981 0.0
H167 H 0.74061 0.3482 0.42176 0.0
Eu168 Eu 0.64906 0.82471 0.65049 0.0
C169 C 0.45693 0.78284 0.67687 0.0
N170 N 0.49338 0.8071 0.68906 0.0
C171 C 0.46892 0.85621 0.69869 0.0
C172 C 0.42534 0.79517 0.67472 0.0
C173 C 0.49953 0.84297 0.70017 0.0
C174 C 0.4317 0.83227 0.68587 0.0
C175 C 0.41348 0.71974 0.6538 0.0
C176 C 0.45101 0.74536 0.66658 0.0
C177 C 0.38248 0.73251 0.65124 0.0
C178 C 0.38835 0.77005 0.6617 0.0
Eu179 Eu 0.54266 0.78173 0.691 0.0
N180 N 0.48195 0.73405 0.66901 0.0
C181 C 0.4079 0.68169 0.64418 0.0
C182 C 0.47524 0.69566 0.66078 0.0
C183 C 0.43864 0.66933 0.64795 0.0
H184 H 0.52744 0.86039 0.71079 0.0
H185 H 0.43389 0.6392 0.64125 0.0
H186 H 0.66682 0.74189 0.64793 0.0
H187 H 0.74647 0.98434 0.68899 0.0
H188 H 0.49714 0.68431 0.66445 0.0
H189 H 0.37949 0.66112 0.63428 0.0
H190 H 0.6878 0.92978 0.66601 0.0
H191 H 0.47393 0.88474 0.70753 0.0
H192 H 0.35359 0.7133 0.64141 0.0
H193 H 0.3639 0.77921 0.65975 0.0
H194 H 0.72016 0.72265 0.66198 0.0
H195 H 0.40806 0.84266 0.68473 0.0
H196 H 0.80017 0.96879 0.70605 0.0
N197 N 0.69842 0.80398 0.66287 0.0
C198 C 0.73262 0.83361 0.67502 0.0
C199 C 0.72395 0.75388 0.6658 0.0
C200 C 0.76364 0.82393 0.68343 0.0
C201 C 0.69381 0.76474 0.65794 0.0
C202 C 0.75895 0.78354 0.67866 0.0
N203 N 0.70455 0.88123 0.67183 0.0
C204 C 0.70924 0.92125 0.67425 0.0
C205 C 0.77051 0.90407 0.6926 0.0
C206 C 0.73552 0.87305 0.6798 0.0
C207 C 0.77372 0.94409 0.69636 0.0
C208 C 0.74331 0.95289 0.68687 0.0
H209 H 0.78213 0.77492 0.68482 0.0
H210 H 0.8221 0.84767 0.70311 0.0
H211 H 0.8284 0.91793 0.71093 0.0
O212 O 0.67923 0.87331 0.62369 0.0
O213 O 0.64806 0.79813 0.68531 0.0
O214 O 0.60997 0.82231 0.70515 0.0
O215 O 0.67844 0.81201 0.62155 0.0
O216 O 0.62044 0.86784 0.65533 0.0
O217 O 0.59375 0.85257 0.69146 0.0
O218 O 0.52329 0.729 0.71521 0.0
O219 O 0.53613 0.80063 0.65543 0.0
O220 O 0.58293 0.78865 0.63408 0.0
O221 O 0.51042 0.78063 0.72219 0.0
O222 O 0.56643 0.73547 0.68214 0.0
O223 O 0.59919 0.75443 0.64706 0.0
C224 C 0.63795 0.80892 0.70442 0.0
C225 C 0.71288 0.86187 0.59058 0.0
C226 C 0.73848 0.9089 0.5576 0.0
C227 C 0.75633 0.88454 0.54922 0.0
C228 C 0.73095 0.83807 0.5818 0.0
C229 C 0.75253 0.84941 0.56125 0.0
C230 C 0.71659 0.89727 0.57835 0.0
C231 C 0.60486 0.87673 0.67325 0.0
C232 C 0.68967 0.84895 0.61222 0.0
C233 C 0.798 0.85456 0.69647 0.0
C234 C 0.80147 0.89451 0.70099 0.0
C235 C 0.55064 0.7961 0.63595 0.0
C236 C 0.52088 0.74645 0.75337 0.0
C237 C 0.50523 0.71121 0.79013 0.0
C238 C 0.54017 0.74888 0.79916 0.0
C239 C 0.55506 0.78374 0.76281 0.0
C240 C 0.49638 0.71021 0.76697 0.0
C241 C 0.56495 0.78469 0.78554 0.0
C242 C 0.58084 0.7268 0.66361 0.0
C243 C 0.50859 0.74572 0.72974 0.0
H244 H 0.77272 0.89226 0.53314 0.0
H245 H 0.72845 0.81063 0.59082 0.0
H246 H 0.76622 0.83078 0.55458 0.0
H247 H 0.70265 0.91578 0.58495 0.0
H248 H 0.54763 0.75138 0.81691 0.0
H249 H 0.57349 0.81232 0.75267 0.0
H250 H 0.47003 0.68152 0.7595 0.0
H251 H 0.5913 0.81364 0.79275 0.0
Eu252 Eu 0.82017 0.63616 0.98763 0.0
C253 C 0.68259 0.44288 0.00294 0.0
N254 N 0.68676 0.47521 0.01657 0.0
C255 C 0.61016 0.44589 0.01655 0.0
C256 C 0.6417 0.41149 -0.00509 0.0
C257 C 0.65138 0.47647 0.02393 0.0
C258 C 0.60531 0.4135 0.00178 0.0
C259 C 0.71606 0.40879 0.98247 0.0
C260 C 0.71962 0.44205 -0.00342 0.0
C261 C 0.67545 0.37785 0.97416 0.0
C262 C 0.6384 0.37922 0.98035 0.0
Eu263 Eu 0.75742 0.52622 0.02789 0.0
N264 N 0.75876 0.47286 0.00465 0.0
C265 C 0.75329 0.40692 0.97756 0.0
C266 C 0.79419 0.46851 0.00158 0.0
C267 C 0.79234 0.43639 0.98754 0.0
H268 H 0.6551 0.50064 0.03584 0.0
H269 H 0.82086 0.43379 0.98484 0.0
H270 H 0.91487 0.64707 0.97203 0.0
H271 H 0.78423 0.74786 0.03256 0.0
H272 H 0.8236 0.48834 0.01056 0.0
H273 H 0.7519 0.38184 0.96684 0.0
H274 H 0.76671 0.68069 0.01319 0.0
H275 H 0.58218 0.44713 0.0224 0.0
H276 H 0.67226 0.35231 0.96319 0.0
H277 H 0.60728 0.35492 0.97393 0.0
H278 H 0.99252 0.70099 0.97515 0.0
H279 H 0.57332 0.38993 -0.00398 0.0
H280 H 0.86027 0.80539 0.03687 0.0
N281 N 0.8946 0.68525 0.9897 0.0
C282 C 0.90632 0.72326 0.00011 0.0
C283 C 0.96863 0.70759 0.98229 0.0
C284 C 0.95018 0.75519 0.00199 0.0
C285 C 0.92474 0.67699 0.98073 0.0
C286 C 0.98142 0.74688 -0.00703 0.0
N287 N 0.83228 0.69834 0.0075 0.0
C288 C 0.80009 0.70465 0.01542 0.0
C289 C 0.8857 0.76953 0.0198 0.0
C290 C 0.87433 0.73019 0.00904 0.0
C291 C 0.85285 0.77562 0.02851 0.0
C292 C 0.80989 0.74313 0.0262 0.0
H293 H 0.01545 0.77059 -0.00591 0.0
H294 H 0.99503 0.81919 0.01434 0.0
H295 H 0.93863 0.8318 0.02984 0.0
O296 O 0.78524 0.65132 0.9625 0.0
O297 O 0.84654 0.6437 0.02303 0.0
O298 O 0.78883 0.59267 0.04388 0.0
O299 O 0.84872 0.66163 0.95474 0.0
O300 O 0.75046 0.61203 -0.00261 0.0
O301 O 0.73964 0.57844 0.03198 0.0
O302 O 0.77572 0.49348 0.053 0.0
O303 O 0.7286 0.52699 -0.00598 0.0
O304 O 0.79249 0.56736 0.97683 0.0
O305 O 0.71751 0.49631 0.05754 0.0
O306 O 0.82973 0.55552 0.02195 0.0
O307 O 0.84172 0.58652 0.98659 0.0
C308 C 0.82887 0.62471 0.04219 0.0
C309 C 0.82785 0.70802 0.9376 0.0
C310 C 0.81404 0.74807 0.90869 0.0
C311 C 0.84673 0.78677 0.91804 0.0
C312 C 0.86034 0.74697 0.94664 0.0
C313 C 0.86971 0.78611 0.93686 0.0
C314 C 0.80487 0.70867 0.9186 0.0
C315 C 0.72718 0.59455 0.0156 0.0
C316 C 0.81679 0.66652 0.94802 0.0
C317 C 0.96149 0.79427 0.01276 0.0
C318 C 0.92936 0.80145 0.02159 0.0
C319 C 0.75081 0.54255 0.97556 0.0
C320 C 0.75379 0.49423 0.09035 0.0
C321 C 0.7754 0.47682 0.12596 0.0
C322 C 0.77732 0.51347 0.13564 0.0
C323 C 0.75456 0.52996 0.10052 0.0
C324 C 0.76357 0.46732 0.10325 0.0
C325 C 0.76662 0.53965 0.12301 0.0
C326 C 0.85431 0.57289 0.00406 0.0
C327 C 0.74353 0.48488 0.0663 0.0
H328 H 0.85497 0.81756 0.91061 0.0
H329 H 0.87846 0.74718 0.96121 0.0
H330 H 0.89492 0.81606 0.94387 0.0
H331 H 0.77946 0.67855 0.91177 0.0
H332 H 0.78627 0.52133 0.15311 0.0
H333 H 0.7469 0.551 0.09095 0.0
H334 H 0.76247 0.43936 0.09559 0.0
H335 H 0.7678 0.5676 0.13065 0.0
Eu336 Eu 0.17366 0.82342 0.31923 0.0
C337 C 0.2075 0.66506 0.34093 0.0
N338 N 0.1847 0.6789 0.35322 0.0
C339 C 0.13228 0.60601 0.3624 0.0
C340 C 0.19253 0.62066 0.33837 0.0
C341 C 0.14787 0.65031 0.36418 0.0
C342 C 0.1543 0.5911 0.3492 0.0
C343 C 0.27045 0.6818 0.3182 0.0
C344 C 0.24623 0.69535 0.33101 0.0
C345 C 0.25513 0.63761 0.31532 0.0
C346 C 0.21632 0.60714 0.32538 0.0
Eu347 Eu 0.21466 0.75415 0.35552 0.0
N348 N 0.25981 0.73804 0.33353 0.0
C349 C 0.30948 0.7131 0.30871 0.0
C350 C 0.29882 0.76859 0.32522 0.0
C351 C 0.32393 0.75666 0.31246 0.0
H352 H 0.13086 0.66183 0.37447 0.0
H353 H 0.3546 0.7811 0.30568 0.0
H354 H 0.25592 0.92448 0.32203 0.0
H355 H 0.01163 0.75088 0.3563 0.0
H356 H 0.31115 0.80213 0.32857 0.0
H357 H 0.32901 0.70398 0.29879 0.0
H358 H 0.06774 0.75336 0.33168 0.0
H359 H 0.10341 0.58328 0.37123 0.0
H360 H 0.27322 0.62664 0.30545 0.0
H361 H 0.20515 0.57315 0.32315 0.0
H362 H 0.27351 0.99309 0.34075 0.0
H363 H 0.14188 0.55673 0.34776 0.0
H364 H 0.0259 0.81497 0.37844 0.0
N365 N 0.19327 0.88982 0.33636 0.0
C366 C 0.16283 0.89091 0.34957 0.0
C367 C 0.24236 0.96458 0.3434 0.0
C368 C 0.17158 0.9292 0.36064 0.0
C369 C 0.2324 0.92585 0.33287 0.0
C370 C 0.21189 0.96625 0.3574 0.0
N371 N 0.11586 0.81642 0.34181 0.0
C372 C 0.07568 0.78071 0.34223 0.0
C373 C 0.09142 0.85357 0.36629 0.0
C374 C 0.12335 0.85316 0.35257 0.0
C375 C 0.05128 0.81591 0.36811 0.0
C376 C 0.04319 0.77957 0.35575 0.0
H377 H 0.21979 0.99628 0.36561 0.0
H378 H 0.14624 0.95841 0.38331 0.0
H379 H 0.076 0.89241 0.3881 0.0
O380 O 0.12499 0.81241 0.2937 0.0
O381 O 0.20244 0.84356 0.35411 0.0
O382 O 0.17371 0.77855 0.37141 0.0
O383 O 0.18791 0.87161 0.29298 0.0
O384 O 0.13156 0.75048 0.32034 0.0
O385 O 0.1443 0.73546 0.35609 0.0
O386 O 0.26597 0.7886 0.38029 0.0
O387 O 0.20334 0.73769 0.31833 0.0
O388 O 0.20576 0.79468 0.29829 0.0
O389 O 0.21973 0.72097 0.38499 0.0
O390 O 0.26308 0.82392 0.3475 0.0
O391 O 0.24423 0.84545 0.31444 0.0
C392 C 0.18857 0.82009 0.37233 0.0
C393 C 0.13712 0.86353 0.26366 0.0
C394 C 0.09325 0.84723 0.22975 0.0
C395 C 0.11454 0.89152 0.22464 0.0
C396 C 0.15809 0.90751 0.25818 0.0
C397 C 0.14665 0.92137 0.23881 0.0
C398 C 0.10459 0.83352 0.24946 0.0
C399 C 0.12122 0.72428 0.33761 0.0
C400 C 0.15022 0.84891 0.28372 0.0
C401 C 0.14008 0.9293 0.37463 0.0
C402 C 0.10013 0.89165 0.37742 0.0
C403 C 0.20547 0.75785 0.29942 0.0
C404 C 0.24825 0.76266 0.41759 0.0
C405 C 0.28001 0.77886 0.45516 0.0
C406 C 0.24019 0.7713 0.46383 0.0
C407 C 0.20887 0.75505 0.42661 0.0
C408 C 0.28379 0.77498 0.43182 0.0
C409 C 0.20507 0.75982 0.4496 0.0
C410 C 0.27252 0.84891 0.32965 0.0
C411 C 0.25197 0.75533 0.39363 0.0
H412 H 0.10705 0.90305 0.20942 0.0
H413 H 0.18334 0.93117 0.26886 0.0
H414 H 0.16303 0.95532 0.23464 0.0
H415 H 0.08841 0.79952 0.25363 0.0
H416 H 0.23569 0.77313 0.4817 0.0
H417 H 0.18094 0.74471 0.41591 0.0
H418 H 0.31413 0.78088 0.42467 0.0
H419 H 0.17453 0.75373 0.45648 0.0
Eu420 Eu 0.35276 0.17585 0.65163 0.0
C421 C 0.557 0.24332 0.69279 0.0
N422 N 0.5186 0.21432 0.70203 0.0
C423 C 0.54965 0.1739 0.71683 0.0
C424 C 0.59297 0.2373 0.69423 0.0
C425 C 0.5145 0.18034 0.71423 0.0
C426 C 0.58882 0.20192 0.70636 0.0
C427 C 0.6002 0.31033 0.67261 0.0
C428 C 0.56066 0.27976 0.68247 0.0
C429 C 0.63563 0.3036 0.67324 0.0
C430 C 0.6321 0.26731 0.68414 0.0
Eu431 Eu 0.46227 0.22954 0.69931 0.0
N432 N 0.52594 0.28571 0.68244 0.0
C433 C 0.60317 0.34707 0.66265 0.0
C434 C 0.52929 0.32226 0.67333 0.0
C435 C 0.56764 0.35314 0.66314 0.0
H436 H 0.48442 0.15894 0.72251 0.0
H437 H 0.56986 0.38181 0.65578 0.0
H438 H 0.34046 0.26124 0.63917 0.0
H439 H 0.23547 0.01578 0.6824 0.0
H440 H 0.50301 0.32849 0.67396 0.0
H441 H 0.63291 0.37123 0.65486 0.0
H442 H 0.30731 0.07388 0.67033 0.0
H443 H 0.54657 0.14756 0.72706 0.0
H444 H 0.66615 0.32669 0.66569 0.0
H445 H 0.65999 0.26306 0.68492 0.0
H446 H 0.28301 0.2799 0.6401 0.0
H447 H 0.61589 0.19655 0.70821 0.0
H448 H 0.17367 0.02858 0.68327 0.0
N449 N 0.30085 0.19817 0.6524 0.0
C450 C 0.26032 0.16755 0.65875 0.0
C451 C 0.27631 0.24832 0.64557 0.0
C452 C 0.22624 0.17659 0.659 0.0
C453 C 0.30904 0.23783 0.6454 0.0
C454 C 0.23478 0.21767 0.65247 0.0
N455 N 0.28652 0.11931 0.66507 0.0
C456 C 0.28071 0.07997 0.67093 0.0
C457 C 0.21122 0.09453 0.6716 0.0
C458 C 0.25275 0.12679 0.66488 0.0
C459 C 0.20513 0.05424 0.67802 0.0
C460 C 0.23999 0.04694 0.67763 0.0
H461 H 0.20946 0.22586 0.65245 0.0
H462 H 0.1582 0.1508 0.66587 0.0
H463 H 0.1451 0.07909 0.67695 0.0
O464 O 0.34282 0.12911 0.62536 0.0
O465 O 0.32721 0.17257 0.6871 0.0
O466 O 0.39522 0.20335 0.69006 0.0
O467 O 0.33897 0.18581 0.61715 0.0
O468 O 0.38149 0.13454 0.66289 0.0
O469 O 0.41602 0.15655 0.69805 0.0
O470 O 0.48345 0.27491 0.72789 0.0
O471 O 0.47745 0.209 0.66629 0.0
O472 O 0.42617 0.21836 0.64974 0.0
O473 O 0.45027 0.20494 0.7334 0.0
O474 O 0.43586 0.27312 0.68787 0.0
O475 O 0.39683 0.24952 0.65363 0.0
C476 C 0.35926 0.19097 0.70062 0.0
C477 C 0.29104 0.12107 0.59845 0.0
C478 C 0.24897 0.06329 0.57182 0.0
C479 C 0.21244 0.06675 0.57694 0.0
C480 C 0.25432 0.12442 0.60302 0.0
C481 C 0.21522 0.09717 0.59244 0.0
C482 C 0.28823 0.09052 0.5828 0.0
C483 C 0.40217 0.13038 0.6804 0.0
C484 C 0.33202 0.14838 0.61029 0.0
C485 C 0.18475 0.1444 0.66559 0.0
C486 C 0.17727 0.10351 0.67186 0.0
C487 C 0.45468 0.20553 0.64829 0.0
C488 C 0.46984 0.24862 0.76688 0.0
C489 C 0.49708 0.29402 0.80019 0.0
C490 C 0.46976 0.25823 0.81359 0.0
C491 C 0.44284 0.21334 0.7806 0.0
C492 C 0.4969 0.28896 0.77674 0.0
C493 C 0.4429 0.21822 0.80382 0.0
C494 C 0.41617 0.2782 0.67005 0.0
C495 C 0.46824 0.24317 0.74233 0.0
H496 H 0.18195 0.04669 0.56854 0.0
H497 H 0.25576 0.14819 0.61463 0.0
H498 H 0.18709 0.09994 0.59609 0.0
H499 H 0.31652 0.08784 0.57928 0.0
H500 H 0.46977 0.26091 0.83171 0.0
H501 H 0.42131 0.18201 0.77339 0.0
H502 H 0.51756 0.31636 0.76622 0.0
H503 H 0.4222 0.19086 0.8143 0.0
H504 H 0.21989 0.79187 0.25684 0.0
H505 H 0.21756 0.75581 0.22151 0.0
H506 H 0.19017 0.641 0.25816 0.0
H507 H 0.19175 0.67616 0.29331 0.0
H508 H 0.26917 0.72022 0.20934 0.0
H509 H 0.09615 0.59564 0.20928 0.0
H510 H 0.11772 0.64344 0.22653 0.0
H511 H 0.12241 0.59793 0.23537 0.0
C512 C 0.2133 0.75891 0.25741 0.0
C513 C 0.20618 0.73704 0.27803 0.0
C514 C 0.21185 0.73835 0.23718 0.0
C515 C 0.20277 0.69547 0.2372 0.0
C516 C 0.19621 0.67379 0.25772 0.0
H517 H 0.22199 0.50733 0.16567 0.0
H518 H 0.20152 0.55 0.1892 0.0
C519 C 0.19779 0.69427 0.27789 0.0
C520 C 0.20269 0.67382 0.21601 0.0
H521 H 0.14284 0.58131 0.1861 0.0
C522 C 0.24134 0.69035 0.20389 0.0
C523 C 0.16618 0.63504 0.20893 0.0
C524 C 0.12313 0.61717 0.22057 0.0
C525 C 0.24547 0.66742 0.18588 0.0
C526 C 0.20967 0.62727 0.17963 0.0
C527 C 0.17024 0.61204 0.19093 0.0
C528 C 0.21454 0.59817 0.16374 0.0
C529 C 0.28895 0.68495 0.17471 0.0
C530 C 0.2267 0.61001 0.14125 0.0
C531 C 0.23859 0.58563 0.12775 0.0
C532 C 0.2385 0.5492 0.13662 0.0
C533 C 0.22307 0.53569 0.15855 0.0
C534 C 0.21113 0.5599 0.17196 0.0
H535 H 0.3148 0.713 0.18386 0.0
H536 H 0.29807 0.6596 0.17356 0.0
H537 H 0.28729 0.69549 0.15738 0.0
H538 H 0.22882 0.63908 0.13448 0.0
H539 H 0.25025 0.59669 0.11088 0.0
H540 H 0.42718 0.21267 0.60642 0.0
H541 H 0.45534 0.20544 0.57023 0.0
H542 H 0.54063 0.17173 0.60444 0.0
H543 H 0.51188 0.17776 0.64058 0.0
H544 H 0.53958 0.25665 0.55844 0.0
H545 H 0.49733 0.08559 0.55318 0.0
H546 H 0.47155 0.10412 0.57273 0.0
H547 H 0.5239 0.11117 0.57892 0.0
C548 C 0.45106 0.20258 0.60621 0.0
C549 C 0.46734 0.19588 0.62635 0.0
C550 C 0.46723 0.19857 0.58551 0.0
C551 C 0.4998 0.18761 0.58457 0.0
C552 C 0.51489 0.17929 0.60466 0.0
H553 H 0.68887 0.21243 0.48616 0.0
H554 H 0.64019 0.19201 0.51872 0.0
C555 C 0.49868 0.18319 0.62535 0.0
C556 C 0.52166 0.19015 0.56294 0.0
H557 H 0.55164 0.13454 0.52763 0.0
C558 C 0.54169 0.22976 0.55155 0.0
C559 C 0.52491 0.15521 0.55414 0.0
C560 C 0.50294 0.1115 0.56526 0.0
C561 C 0.56576 0.23581 0.53193 0.0
C562 C 0.56913 0.20094 0.52309 0.0
C563 C 0.54889 0.16116 0.53438 0.0
C564 C 0.59448 0.20599 0.50242 0.0
C565 C 0.58861 0.28006 0.52131 0.0
C566 C 0.58383 0.21857 0.48218 0.0
C567 C 0.61171 0.23061 0.46378 0.0
C568 C 0.65029 0.22942 0.46513 0.0
C569 C 0.65921 0.21343 0.48473 0.0
C570 C 0.63151 0.20189 0.5033 0.0
H571 H 0.59207 0.30543 0.53323 0.0
H572 H 0.62121 0.28832 0.51525 0.0
H573 H 0.56957 0.28056 0.50671 0.0
H574 H 0.55491 0.22097 0.48095 0.0
H575 H 0.604 0.24249 0.44875 0.0
H576 H 0.33649 0.50062 0.96561 0.0
H577 H 0.37472 0.53553 0.93101 0.0
H578 H 0.25503 0.47115 0.89419 0.0
H579 H 0.2162 0.43676 0.9289 0.0
H580 H 0.37729 0.49683 0.88803 0.0
H581 H 0.30428 0.60208 0.88195 0.0
H582 H 0.30325 0.57479 0.90766 0.0
H583 H 0.26802 0.54509 0.88489 0.0
C584 C 0.31816 0.49416 0.95023 0.0
C585 C 0.27315 0.46674 0.95014 0.0
C586 C 0.34015 0.5138 0.93043 0.0
C587 C 0.31758 0.50631 0.91014 0.0
C588 C 0.27288 0.47781 0.90977 0.0
H589 H 0.41734 0.65753 0.78731 0.0
H590 H 0.37032 0.60096 0.8134 0.0
C591 C 0.2508 0.45818 0.92962 0.0
C592 C 0.34092 0.52974 0.88962 0.0
H593 H 0.35559 0.61154 0.85475 0.0
C594 C 0.3724 0.5217 0.88058 0.0
C595 C 0.33403 0.56175 0.87986 0.0
C596 C 0.30078 0.57183 0.88908 0.0
C597 C 0.3978 0.54544 0.86217 0.0
C598 C 0.39246 0.57903 0.85309 0.0
C599 C 0.35986 0.58594 0.86171 0.0
C600 C 0.42177 0.60925 0.83564 0.0
C601 C 0.42981 0.53397 0.85264 0.0
C602 C 0.46657 0.63244 0.83918 0.0
C603 C 0.4938 0.66416 0.82394 0.0
C604 C 0.47679 0.67426 0.80507 0.0
C605 C 0.43191 0.65036 0.80137 0.0
C606 C 0.40479 0.61816 0.81643 0.0
H607 H 0.41901 0.49936 0.85544 0.0
H608 H 0.43476 0.54079 0.83435 0.0
H609 H 0.46125 0.55314 0.86132 0.0
H610 H 0.48049 0.62709 0.85413 0.0
H611 H 0.52816 0.6813 0.82723 0.0
H612 H 0.83056 0.23319 0.27215 0.0
H613 H 0.83756 0.27232 0.23698 0.0
H614 H 0.75008 0.31163 0.26304 0.0
H615 H 0.7444 0.27417 0.29809 0.0
H616 H 0.78296 0.27031 0.20448 0.0
H617 H 0.85415 0.42614 0.24874 0.0
H618 H 0.84709 0.37783 0.26211 0.0
H619 H 0.80306 0.38865 0.26087 0.0
C620 C 0.81248 0.24972 0.27016 0.0
C621 C 0.78731 0.25102 0.28791 0.0
C622 C 0.81661 0.27222 0.25014 0.0
C623 C 0.79534 0.296 0.24764 0.0
C624 C 0.768 0.2948 0.26486 0.0
H625 H 0.7224 0.39133 0.1342 0.0
H626 H 0.73341 0.34655 0.16144 0.0
C627 C 0.76452 0.2731 0.28486 0.0
C628 C 0.80207 0.32314 0.22748 0.0
H629 H 0.82305 0.42363 0.21249 0.0
C630 C 0.79236 0.30403 0.20612 0.0
C631 C 0.81578 0.36752 0.22948 0.0
C632 C 0.83111 0.39131 0.25151 0.0
C633 C 0.79336 0.32748 0.18691 0.0
C634 C 0.80284 0.37073 0.1893 0.0
C635 C 0.81503 0.39035 0.21052 0.0
C636 C 0.79827 0.39586 0.17057 0.0
C637 C 0.78439 0.30556 0.16434 0.0
C638 C 0.83063 0.43883 0.16669 0.0
C639 C 0.82372 0.46479 0.15167 0.0
C640 C 0.78462 0.44812 0.13989 0.0
C641 C 0.75302 0.40471 0.14291 0.0
C642 C 0.75952 0.37899 0.15833 0.0
H643 H 0.79478 0.28108 0.16406 0.0
H644 H 0.74913 0.28848 0.1611 0.0
H645 H 0.80111 0.32901 0.15056 0.0
H646 H 0.86079 0.45276 0.17587 0.0
H647 H 0.84858 0.49819 0.14955 0.0
H648 H 0.55706 0.77111 0.59331 0.0
H649 H 0.51942 0.77416 0.55956 0.0
H650 H 0.45664 0.82852 0.59842 0.0
H651 H 0.49401 0.82581 0.63214 0.0
H652 H 0.42511 0.73256 0.55574 0.0
H653 H 0.50878 0.90969 0.54228 0.0
H654 H 0.53216 0.8837 0.55842 0.0
H655 H 0.49082 0.89177 0.57052 0.0
C656 C 0.5354 0.78389 0.59465 0.0
C657 C 0.52831 0.79792 0.61544 0.0
C658 C 0.51402 0.78567 0.57537 0.0
C659 C 0.48577 0.80207 0.5765 0.0
C660 C 0.47884 0.81635 0.59716 0.0
H661 H 0.30436 0.82788 0.49359 0.0
H662 H 0.3578 0.83483 0.52131 0.0
C663 C 0.49991 0.81432 0.61646 0.0
C664 C 0.46131 0.80181 0.55643 0.0
H665 H 0.44475 0.86728 0.52113 0.0
C666 C 0.42965 0.76193 0.54794 0.0
C667 C 0.46734 0.84027 0.54651 0.0
C668 C 0.50183 0.88388 0.55473 0.0
C669 C 0.40251 0.75938 0.53029 0.0
C670 C 0.4081 0.79788 0.52044 0.0
C671 C 0.44055 0.83783 0.52864 0.0
C672 C 0.37897 0.79716 0.50247 0.0
C673 C 0.36685 0.71546 0.5231 0.0
C674 C 0.37412 0.77493 0.48231 0.0
C675 C 0.34289 0.77003 0.46665 0.0
C676 C 0.31639 0.78802 0.47062 0.0
C677 C 0.32335 0.81266 0.49021 0.0
C678 C 0.35424 0.81706 0.50598 0.0
H679 H 0.36005 0.69051 0.53607 0.0
H680 H 0.33658 0.71586 0.51963 0.0
H681 H 0.37671 0.70576 0.5075 0.0
H682 H 0.39364 0.76024 0.47898 0.0
H683 H 0.33847 0.75068 0.45187 0.0
H684 H 0.66439 0.49456 0.96711 0.0
H685 H 0.62951 0.47021 0.93051 0.0
H686 H 0.75313 0.54082 0.89764 0.0
H687 H 0.78849 0.56513 0.93418 0.0
H688 H 0.63688 0.5218 0.88735 0.0
H689 H 0.69942 0.40725 0.88252 0.0
H690 H 0.69545 0.42977 0.90892 0.0
H691 H 0.73653 0.46287 0.88909 0.0
C692 C 0.68415 0.50516 0.95211 0.0
C693 C 0.72924 0.5311 0.95351 0.0
C694 C 0.66415 0.49152 0.93123 0.0
C695 C 0.6889 0.50363 0.91151 0.0
C696 C 0.73365 0.53111 0.91275 0.0
H697 H 0.5824 0.34868 0.79071 0.0
H698 H 0.63383 0.41105 0.81275 0.0
C699 C 0.75372 0.5448 0.93363 0.0
C700 C 0.66812 0.48393 0.88997 0.0
H701 H 0.64988 0.40116 0.85517 0.0
C702 C 0.64012 0.49586 0.88003 0.0
C703 C 0.67298 0.45056 0.88043 0.0
C704 C 0.70254 0.4365 0.89072 0.0
C705 C 0.6153 0.47384 0.86118 0.0
C706 C 0.61791 0.43843 0.85256 0.0
C707 C 0.6479 0.42832 0.86176 0.0
C708 C 0.58614 0.40764 0.83629 0.0
C709 C 0.58599 0.48821 0.85097 0.0
C710 C 0.54212 0.38577 0.84185 0.0
C711 C 0.51274 0.35038 0.82925 0.0
C712 C 0.52686 0.33582 0.811 0.0
C713 C 0.57051 0.35928 0.80461 0.0
C714 C 0.59995 0.39484 0.81721 0.0
H715 H 0.59949 0.52343 0.85323 0.0
H716 H 0.5808 0.48058 0.83277 0.0
H717 H 0.55427 0.47151 0.85962 0.0
H718 H 0.53078 0.39434 0.85677 0.0
H719 H 0.47919 0.33327 0.83438 0.0
H720 H 0.32748 0.41457 0.9709 0.0
H721 H 0.40595 0.44709 0.97296 0.0
H722 H 0.39702 0.42255 0.0443 0.0
H723 H 0.31852 0.39036 0.04237 0.0
H724 H 0.45016 0.50917 0.03235 0.0
H725 H 0.49071 0.40253 0.98346 0.0
H726 H 0.45476 0.41599 0.9692 0.0
H727 H 0.43736 0.38451 -0.00545 0.0
C728 C 0.34216 0.41478 0.98686 0.0
C729 C 0.31723 0.4003 0.00651 0.0
C730 C 0.38693 0.43336 0.98802 0.0
C731 C 0.40712 0.43704 0.00878 0.0
C732 C 0.38192 0.4199 0.02815 0.0
H733 H 0.67417 0.58016 0.05156 0.0
H734 H 0.59548 0.54567 0.05035 0.0
C735 C 0.3372 0.40148 0.02702 0.0
C736 C 0.45448 0.46338 0.01068 0.0
H737 H 0.54854 0.47271 0.99175 0.0
C738 C 0.47177 0.5013 0.02348 0.0
C739 C 0.48237 0.45274 -0.00078 0.0
C740 C 0.46546 0.41153 0.98599 0.0
C741 C 0.51635 0.52987 0.02444 0.0
C742 C 0.54435 0.51929 0.01295 0.0
C743 C 0.527 0.48093 0.00045 0.0
C744 C 0.59184 0.54667 0.01403 0.0
C745 C 0.53277 0.57162 0.03713 0.0
C746 C 0.61592 0.55952 -0.00592 0.0
C747 C 0.66068 0.57854 -0.00525 0.0
C748 C 0.68205 0.58481 0.0154 0.0
C749 C 0.65835 0.57546 0.03545 0.0
C750 C 0.61342 0.55593 0.03476 0.0
H751 H 0.50769 0.58114 0.03839 0.0
H752 H 0.5415 0.56741 0.05446 0.0
H753 H 0.56181 0.59822 0.02896 0.0
H754 H 0.59989 0.55284 0.97792 0.0
H755 H 0.67807 0.58547 0.97899 0.0
H756 H 0.04421 0.67943 0.35924 0.0
H757 H 0.99428 0.6014 0.3573 0.0
H758 H 0.07959 0.59005 0.30985 0.0
H759 H 0.12529 0.66793 0.30953 0.0
H760 H 0.00885 0.53532 0.29937 0.0
H761 H 0.00813 0.51913 0.39198 0.0
H762 H 0.97836 0.54472 0.38361 0.0
H763 H 0.03567 0.57123 0.37893 0.0
C764 C 0.05129 0.65996 0.34803 0.0
C765 C 0.08851 0.67902 0.33469 0.0
C766 C 0.02331 0.61538 0.34721 0.0
C767 C 0.03395 0.58916 0.33425 0.0
C768 C 0.07036 0.60904 0.32013 0.0
H769 H 0.94152 0.31981 0.36622 0.0
H770 H 0.98387 0.39868 0.36264 0.0
C771 C 0.09678 0.65363 0.31999 0.0
C772 C 0.00843 0.54123 0.33545 0.0
H773 H 0.9641 0.45536 0.37137 0.0
C774 C -0.00037 0.51805 0.31522 0.0
C775 C 0.99604 0.51811 0.35607 0.0
C776 C 0.00546 0.53968 0.3788 0.0
C777 C 0.98048 0.4731 0.31496 0.0
C778 C 0.96683 0.45007 0.33546 0.0
C779 C 0.97458 0.47295 0.35565 0.0
C780 C 0.94368 0.40229 0.3364 0.0
C781 C 0.97688 0.45129 0.29271 0.0
C782 C 0.90746 0.37807 0.32276 0.0
C783 C 0.88481 0.33332 0.3241 0.0
C784 C 0.89627 0.31199 0.34005 0.0
C785 C 0.93223 0.33584 0.35384 0.0
C786 C 0.95612 0.38073 0.35185 0.0
H787 H 0.00263 0.47326 0.28091 0.0
H788 H 0.97919 0.42172 0.29476 0.0
H789 H 0.94544 0.4425 0.28481 0.0
H790 H 0.89598 0.39371 0.31138 0.0
H791 H 0.85731 0.31573 0.31326 0.0
H792 H 0.42241 0.0916 0.71424 0.0
H793 H 0.45834 0.04902 0.70997 0.0
H794 H 0.44747 0.05262 0.63793 0.0
H795 H 0.41232 0.0955 0.64197 0.0
H796 H 0.43071 0.97188 0.65492 0.0
H797 H 0.58419 0.10869 0.68555 0.0
H798 H 0.54148 0.09056 0.70579 0.0
H799 H 0.53739 0.11356 0.67954 0.0
C800 C 0.42752 0.0831 0.69753 0.0
C801 C 0.41552 0.09772 0.67847 0.0
C802 C 0.44789 0.05877 0.69511 0.0
C803 C 0.45627 0.0486 0.67361 0.0
C804 C 0.4415 0.06045 0.65464 0.0
H805 H 0.58313 0.90292 0.63505 0.0
H806 H 0.55127 0.94914 0.63226 0.0
C807 C 0.42123 0.0848 0.65703 0.0
C808 C 0.48249 0.02767 0.67087 0.0
H809 H 0.58179 0.04114 0.68231 0.0
C810 C 0.46379 0.98691 0.66082 0.0
C811 C 0.52596 0.04807 0.67796 0.0
C812 C 0.54861 0.09292 0.68757 0.0
C813 C 0.48676 0.96482 0.65888 0.0
C814 C 0.52965 0.98445 0.66713 0.0
C815 C 0.54878 0.02597 0.67627 0.0
C816 C 0.55433 0.96155 0.668 0.0
C817 C 0.46434 0.92054 0.64839 0.0
C818 C 0.56979 0.95618 0.68875 0.0
C819 C 0.58923 0.93092 0.69028 0.0
C820 C 0.59257 0.91 0.67118 0.0
C821 C 0.5803 0.91821 0.65014 0.0
C822 C 0.5616 0.94413 0.64853 0.0
H823 H 0.42872 0.9047 0.65023 0.0
H824 H 0.4718 0.92372 0.63015 0.0
H825 H 0.47522 0.89924 0.65577 0.0
H826 H 0.56515 0.97001 0.70393 0.0
H827 H 0.59949 0.92586 0.70657 0.0
H828 H 0.57561 0.68516 0.62424 0.0
H829 H 0.55018 0.60806 0.61966 0.0
H830 H 0.53951 0.59147 0.69161 0.0
H831 H 0.565 0.66808 0.69639 0.0
H832 H 0.57772 0.54735 0.66704 0.0
H833 H 0.41948 0.51814 0.63388 0.0
H834 H 0.46798 0.55936 0.62069 0.0
H835 H 0.45577 0.56662 0.64901 0.0
C836 C 0.56854 0.66515 0.63907 0.0
C837 C 0.57163 0.6823 0.66065 0.0
C838 C 0.55384 0.62125 0.6364 0.0
C839 C 0.54246 0.59437 0.6553 0.0
C840 C 0.54795 0.6119 0.67686 0.0
H841 H 0.43018 0.33841 0.7016 0.0
H842 H 0.45878 0.41538 0.69526 0.0
C843 C 0.56234 0.65555 0.67954 0.0
C844 C 0.52239 0.54743 0.65293 0.0
H845 H 0.4263 0.45728 0.64115 0.0
C846 C 0.54487 0.52759 0.66107 0.0
C847 C 0.4795 0.52211 0.64518 0.0
C848 C 0.45395 0.54238 0.63677 0.0
C849 C 0.52503 0.4827 0.66229 0.0
C850 C 0.48151 0.45739 0.65552 0.0
C851 C 0.4596 0.4771 0.64642 0.0
C852 C 0.45791 0.41052 0.65901 0.0
C853 C 0.55042 0.46266 0.67126 0.0
C854 C 0.44586 0.38246 0.64064 0.0
C855 C 0.42928 0.33845 0.6442 0.0
C856 C 0.42475 0.32229 0.66618 0.0
C857 C 0.4339 0.35018 0.6845 0.0
C858 C 0.45027 0.39402 0.68092 0.0
H859 H 0.58576 0.48527 0.67022 0.0
H860 H 0.54194 0.45391 0.68918 0.0
H861 H 0.54251 0.43284 0.66189 0.0
H862 H 0.45139 0.39488 0.62363 0.0
H863 H 0.4226 0.31765 0.62978 0.0
H864 H 0.09941 0.42181 0.0334 0.0
H865 H 0.04932 0.44931 0.03059 0.0
H866 H 0.06721 0.46097 0.95875 0.0
H867 H 0.11773 0.43375 0.96141 0.0
H868 H 0.07942 0.53552 0.0099 0.0
H869 H 0.93245 0.40122 0.9703 0.0
H870 H 0.97059 0.3922 0.98586 0.0
H871 H 0.98412 0.41545 0.9583 0.0
C872 C 0.09215 0.42964 0.01697 0.0
C873 C 0.11285 0.42635 -0.00235 0.0
C874 C 0.06361 0.44527 0.01541 0.0
C875 C 0.05489 0.45721 -0.00551 0.0
C876 C 0.07348 0.45159 0.975 0.0
H877 H 0.89058 0.56618 0.965 0.0
H878 H 0.94468 0.54395 0.96102 0.0
C879 C 0.10221 0.43603 0.97655 0.0
C880 C 0.02936 0.47903 -0.00653 0.0
H881 H 0.93168 0.46533 0.97788 0.0
C882 C 0.04717 0.52036 0.00282 0.0
C883 C 0.98765 0.45911 0.98401 0.0
C884 C 0.96722 0.41444 0.97411 0.0
C885 C 0.02391 0.54222 0.00327 0.0
C886 C 0.9816 0.52177 -0.00553 0.0
C887 C 0.96425 0.48088 0.98455 0.0
C888 C 0.95355 0.54075 -0.00322 0.0
C889 C 0.04475 0.58691 0.01319 0.0
C890 C 0.94138 0.54701 0.01821 0.0
C891 C 0.91072 0.55986 0.02055 0.0
C892 C 0.89154 0.56633 0.00147 0.0
C893 C 0.90512 0.56182 0.98 0.0
C894 C 0.93577 0.54888 0.97768 0.0
H895 H 0.08053 0.60269 0.01295 0.0
H896 H 0.03496 0.60759 0.00395 0.0
H897 H 0.0344 0.5847 0.03095 0.0
H898 H 0.95422 0.54017 0.03315 0.0
H899 H 0.90081 0.56312 0.03729 0.0
H900 H 0.31397 0.88873 0.29061 0.0
H901 H 0.39217 0.93572 0.28549 0.0
H902 H 0.41146 0.9296 0.35663 0.0
H903 H 0.33407 0.88311 0.36194 0.0
H904 H 0.45318 0.01777 0.30899 0.0
H905 H 0.48489 0.88333 0.32428 0.0
H906 H 0.43238 0.87472 0.31636 0.0
H907 H 0.45061 0.88757 0.34493 0.0
C908 C 0.33491 0.89802 0.30517 0.0
C909 C 0.31814 0.88183 0.32661 0.0
C910 C 0.3794 0.92456 0.3022 0.0
C911 C 0.40725 0.93498 0.32063 0.0
C912 C 0.39031 0.92091 0.34217 0.0
H913 H 0.6523 0.11303 0.36521 0.0
H914 H 0.57676 0.06226 0.35694 0.0
C915 C 0.34614 0.8945 0.34515 0.0
C916 C 0.45432 0.96006 0.31776 0.0
H917 H 0.54537 0.95511 0.32842 0.0
C918 C 0.47346 0.00401 0.3127 0.0
C919 C 0.48039 0.94166 0.32246 0.0
C920 C 0.46107 0.89411 0.32711 0.0
C921 C 0.51831 0.03081 0.31381 0.0
C922 C 0.54409 0.01294 0.32017 0.0
C923 C 0.52521 0.96851 0.3237 0.0
C924 C 0.58996 0.04073 0.32556 0.0
C925 C 0.53785 0.07836 0.30916 0.0
C926 C 0.62208 0.04394 0.31095 0.0
C927 C 0.66543 0.07304 0.31557 0.0
C928 C 0.67694 0.09906 0.33491 0.0
C929 C 0.64452 0.09393 0.35003 0.0
C930 C 0.60138 0.06501 0.34536 0.0
H931 H 0.51506 0.08557 0.30008 0.0
H932 H 0.54651 0.09615 0.32532 0.0
H933 H 0.56785 0.0905 0.29908 0.0
H934 H 0.61352 0.02504 0.29567 0.0
H935 H 0.6896 0.07634 0.30355 0.0
H936 H 0.40587 0.26431 0.7253 0.0
H937 H 0.39198 0.27832 0.76339 0.0
H938 H 0.28145 0.15006 0.76689 0.0
H939 H 0.29759 0.13502 0.7291 0.0
H940 H 0.32552 0.28252 0.77484 0.0
H941 H 0.32861 0.15911 0.8285 0.0
H942 H 0.34623 0.16651 0.79962 0.0
H943 H 0.28995 0.13299 0.80652 0.0
C944 C 0.38015 0.23828 0.73453 0.0
C945 C 0.35415 0.1979 0.72457 0.0
C946 C 0.3717 0.24658 0.75629 0.0
C947 C 0.33617 0.21502 0.76833 0.0
C948 C 0.31001 0.1745 0.75836 0.0
H949 H 0.15609 0.19876 0.86277 0.0
H950 H 0.20381 0.18801 0.83765 0.0
C951 C 0.31899 0.16602 0.7367 0.0
C952 C 0.32297 0.22644 0.78974 0.0
H953 H 0.28428 0.1891 0.84241 0.0
C954 C 0.31753 0.26265 0.7898 0.0
C955 C 0.31256 0.20065 0.80933 0.0
C956 C 0.32013 0.16296 0.81102 0.0
C957 C 0.29937 0.27212 0.80825 0.0
C958 C 0.28662 0.24486 0.8273 0.0
C959 C 0.29402 0.20991 0.82776 0.0
C960 C 0.26056 0.24904 0.84542 0.0
C961 C 0.29149 0.30969 0.80661 0.0
C962 C 0.27704 0.28629 0.85875 0.0
C963 C 0.24965 0.2927 0.87304 0.0
C964 C 0.20542 0.26191 0.87416 0.0
C965 C 0.18983 0.22342 0.86192 0.0
C966 C 0.21714 0.21706 0.84772 0.0
H967 H 0.29717 0.32343 0.78938 0.0
H968 H 0.25787 0.2997 0.8116 0.0
H969 H 0.31362 0.33554 0.81823 0.0
H970 H 0.31064 0.31113 0.85742 0.0
H971 H 0.2626 0.32266 0.88228 0.0
H972 H 0.93948 0.14953 0.19422 0.0
H973 H 0.99772 0.19575 0.1687 0.0
H974 H 0.98894 0.3058 0.19067 0.0
H975 H 0.92945 0.25907 0.21602 0.0
H976 H 0.98541 0.29857 0.14564 0.0
H977 H 0.12343 0.28436 0.17559 0.0
H978 H 0.07689 0.23189 0.17243 0.0
H979 H 0.07623 0.26888 0.19272 0.0
C980 C 0.95034 0.18369 0.19385 0.0
C981 C 0.92972 0.20066 0.20695 0.0
C982 C 0.98403 0.21021 0.17946 0.0
C983 C 0.99816 0.25438 0.17797 0.0
C984 C 0.97879 0.27185 0.1917 0.0
H985 H 0.20281 0.38995 0.07761 0.0
H986 H 0.16394 0.37299 0.11332 0.0
C987 C 0.94498 0.24522 0.20622 0.0
C988 C 0.02933 0.28055 0.16014 0.0
H989 H 0.12331 0.29922 0.13562 0.0
C990 C 0.01603 0.29955 0.14369 0.0
C991 C 0.06969 0.28269 0.15777 0.0
C992 C 0.08757 0.26626 0.17574 0.0
C993 C 0.04047 0.31775 0.12417 0.0
C994 C 0.0786 0.31582 0.12075 0.0
C995 C 0.09356 0.29982 0.13797 0.0
C996 C 0.10193 0.32771 0.09897 0.0
C997 C 0.02475 0.3382 0.10726 0.0
C998 C 0.08016 0.30752 0.07905 0.0
C999 C 0.10216 0.31754 0.05858 0.0
C1000 C 0.14659 0.34736 0.05769 0.0
C1001 C 0.16853 0.36701 0.0777 0.0
C1002 C 0.14638 0.35733 0.09815 0.0
H1003 H 0.00548 0.35081 0.11552 0.0
H1004 H 0.05201 0.36502 0.0981 0.0
H1005 H 0.00351 0.31353 0.09487 0.0
H1006 H 0.04617 0.28354 0.07935 0.0
H1007 H 0.08436 0.30165 0.04352 0.0
H1008 H 0.81036 0.97207 0.537 0.0
H1009 H 0.8151 0.02651 0.5107 0.0
H1010 H 0.68038 0.98371 0.52141 0.0
H1011 H 0.67524 0.92827 0.54759 0.0
H1012 H 0.70142 0.98579 0.47688 0.0
H1013 H 0.8173 0.14042 0.51645 0.0
H1014 H 0.8374 0.10355 0.51619 0.0
H1015 H 0.78961 0.09058 0.53212 0.0
C1016 C 0.78187 0.97462 0.53401 0.0
C1017 C 0.74237 0.94572 0.54423 0.0
C1018 C 0.78474 0.00613 0.51917 0.0
C1019 C 0.74827 0.00966 0.51432 0.0
C1020 C 0.70904 0.98185 0.52511 0.0
H1021 H 0.7332 0.13921 0.39146 0.0
H1022 H 0.71496 0.10943 0.42951 0.0
C1023 C 0.70618 0.95032 0.54009 0.0
C1024 C 0.75038 0.03869 0.49594 0.0
H1025 H 0.81199 0.14114 0.47583 0.0
C1026 C 0.72481 0.02001 0.47682 0.0
C1027 C 0.78091 0.08329 0.49591 0.0
C1028 C 0.80754 0.1057 0.51638 0.0
C1029 C 0.73122 0.04395 0.45707 0.0
C1030 C 0.76356 0.08804 0.45661 0.0
C1031 C 0.78736 0.10733 0.47618 0.0
C1032 C 0.7764 0.11305 0.43536 0.0
C1033 C 0.70532 0.0211 0.43643 0.0
C1034 C 0.81765 0.12701 0.42647 0.0
C1035 C 0.82843 0.14525 0.40503 0.0
C1036 C 0.7984 0.15042 0.39225 0.0
C1037 C 0.75768 0.13782 0.4014 0.0
C1038 C 0.74691 0.1198 0.42295 0.0
H1039 H 0.68754 0.98551 0.43849 0.0
H1040 H 0.68134 0.03144 0.43311 0.0
H1041 H 0.72661 0.02943 0.42148 0.0
H1042 H 0.84082 0.12189 0.43569 0.0
H1043 H 0.85976 0.15394 0.3981 0.0
H1044 H 0.64933 0.84957 0.74472 0.0
H1045 H 0.67548 0.83492 0.77989 0.0
H1046 H 0.69201 0.73746 0.74644 0.0
H1047 H 0.66564 0.75167 0.7114 0.0
H1048 H 0.64246 0.7567 0.80428 0.0
H1049 H 0.81016 0.81554 0.77492 0.0
H1050 H 0.77313 0.82715 0.7601 0.0
H1051 H 0.76922 0.77541 0.75718 0.0
C1052 C 0.65817 0.82476 0.74498 0.0
C1053 C 0.65497 0.80141 0.72546 0.0
C1054 C 0.67326 0.81657 0.765 0.0
C1055 C 0.68595 0.78533 0.76571 0.0
C1056 C 0.68297 0.76213 0.74618 0.0
H1057 H 0.79308 0.69753 0.87108 0.0
H1058 H 0.7577 0.70268 0.83686 0.0
C1059 C 0.66788 0.77028 0.72619 0.0
C1060 C 0.70238 0.77703 0.78687 0.0
H1061 H 0.79119 0.78067 0.81036 0.0
C1062 C 0.675 0.76202 0.80566 0.0
C1063 C 0.74481 0.78392 0.78856 0.0
C1064 C 0.77623 0.80175 0.7692 0.0
C1065 C 0.68889 0.75338 0.8261 0.0
C1066 C 0.73135 0.76042 0.82778 0.0
C1067 C 0.75856 0.77508 0.80895 0.0
C1068 C 0.74904 0.75462 0.84917 0.0
C1069 C 0.65795 0.73633 0.84565 0.0
C1070 C 0.75575 0.78206 0.86739 0.0
C1071 C 0.77606 0.77932 0.88688 0.0
C1072 C 0.79003 0.74905 0.88851 0.0
C1073 C 0.78235 0.72091 0.87041 0.0
C1074 C 0.7623 0.7239 0.85084 0.0
H1075 H 0.62397 0.72339 0.84021 0.0
H1076 H 0.66061 0.71051 0.85457 0.0
H1077 H 0.66612 0.76286 0.85775 0.0
H1078 H 0.74632 0.8064 0.86631 0.0
H1079 H 0.78115 0.80116 0.90061 0.0
H1080 H 0.08325 0.76969 0.21613 0.0
H1081 H 0.03353 0.72098 0.18757 0.0
H1082 H 0.98068 0.80495 0.17888 0.0
H1083 H 0.0293 0.85311 0.20783 0.0
H1084 H 0.91786 0.71451 0.17865 0.0
H1085 H 0.05601 0.75781 0.12076 0.0
H1086 H 0.05838 0.73668 0.1478 0.0
H1087 H 0.06144 0.78814 0.14592 0.0
C1088 C 0.06046 0.77735 0.20846 0.0
C1089 C 0.06054 0.81555 0.21405 0.0
C1090 C 0.03232 0.74965 0.19204 0.0
C1091 C 0.00397 0.75979 0.18091 0.0
C1092 C 0.00251 0.79672 0.18722 0.0
H1093 H 0.88789 0.70874 0.05169 0.0
H1094 H 0.92916 0.7371 0.08639 0.0
C1095 C 0.03056 0.82438 0.2036 0.0
C1096 C 0.97789 0.73393 0.1616 0.0
H1097 H 0.98645 0.71183 0.10669 0.0
C1098 C 0.93273 0.71342 0.16297 0.0
C1099 C 0.99757 0.73292 0.14117 0.0
C1100 C 0.046 0.75525 0.13862 0.0
C1101 C 0.90669 0.69271 0.14423 0.0
C1102 C 0.9265 0.69261 0.12371 0.0
C1103 C 0.97154 0.7121 0.1225 0.0
C1104 C 0.9013 0.67498 0.10287 0.0
C1105 C 0.85835 0.67252 0.14622 0.0
C1106 C 0.87264 0.63065 0.10056 0.0
C1107 C 0.84927 0.61453 0.08069 0.0
C1108 C 0.85379 0.6424 0.063 0.0
C1109 C 0.88328 0.68661 0.06515 0.0
C1110 C 0.90682 0.7028 0.08496 0.0
H1111 H 0.84869 0.68155 0.16213 0.0
H1112 H 0.8453 0.68229 0.13187 0.0
H1113 H 0.84329 0.6369 0.14579 0.0
H1114 H 0.86885 0.60853 0.11396 0.0
H1115 H 0.82864 0.58014 0.07881 0.0
H1116 H 0.30691 0.07754 0.53833 0.0
H1117 H 0.29785 0.03009 0.50672 0.0
H1118 H 0.1758 0.93284 0.53385 0.0
H1119 H 0.18472 0.97988 0.56564 0.0
H1120 H 0.28028 0.94097 0.50369 0.0
H1121 H 0.14816 0.96504 0.47094 0.0
H1122 H 0.18558 0.99931 0.49218 0.0
H1123 H 0.14215 0.94674 0.49955 0.0
C1124 C 0.27859 0.0457 0.53783 0.0
C1125 C 0.24623 0.03264 0.5543 0.0
C1126 C 0.27344 0.01871 0.51974 0.0
C1127 C 0.23587 0.97837 0.51785 0.0
C1128 C 0.20469 0.96422 0.5349 0.0
H1129 H 0.14356 0.78623 0.41113 0.0
H1130 H 0.15579 0.82246 0.44764 0.0
C1131 C 0.20977 0.99115 0.55296 0.0
C1132 C 0.22775 0.95259 0.49721 0.0
H1133 H 0.16303 0.91725 0.45083 0.0
C1134 C 0.25459 0.9356 0.49216 0.0
C1135 C 0.19443 0.94611 0.48216 0.0
C1136 C 0.16607 0.96549 0.48628 0.0
C1137 C 0.24864 0.91192 0.47239 0.0
C1138 C 0.21523 0.90539 0.45748 0.0
C1139 C 0.18833 0.92215 0.46255 0.0
C1140 C 0.20893 0.88297 0.43591 0.0
C1141 C 0.27803 0.89415 0.46737 0.0
C1142 C 0.23452 0.9054 0.41739 0.0
C1143 C 0.22767 0.8849 0.39666 0.0
C1144 C 0.19525 0.84158 0.39421 0.0
C1145 C 0.16932 0.81935 0.41274 0.0
C1146 C 0.17612 0.83996 0.4335 0.0
H1147 H 0.29951 0.89806 0.48174 0.0
H1148 H 0.25861 0.85945 0.46307 0.0
H1149 H 0.29832 0.91105 0.45253 0.0
H1150 H 0.2596 0.93883 0.41898 0.0
H1151 H 0.24802 0.90286 0.38262 0.0
loop_
_geom_bond_atom_site_label_1
_geom_bond_atom_site_label_2
_geom_bond_distance
_geom_bond_site_symmetry_2
_ccdc_geom_bond_type
Eu0 N29 2.600 . S
Eu0 N35 2.562 1_556 S
Eu0 O44 2.462 . S
Eu0 O45 2.373 1_556 S
Eu0 O47 2.432 . S
Eu0 O48 2.291 1_556 S
Eu0 O52 2.335 . S
Eu0 O55 2.372 . S
Eu0 C64 2.787 . S
C1 N2 1.365 . S
C1 C4 1.405 . S
C1 C8 1.448 . S
N2 C1 1.365 . S
N2 C5 1.319 . S
N2 Eu11 2.600 . S
C3 C5 1.397 . S
C3 C6 1.367 . S
C3 H23 0.931 . S
C4 C1 1.405 . S
C4 C6 1.403 . S
C4 C10 1.439 . S
C5 N2 1.319 . S
C5 C3 1.397 . S
C5 H16 0.930 . S
C6 C3 1.367 . S
C6 C4 1.403 . S
C6 H27 0.929 . S
C7 C8 1.430 . S
C7 C9 1.391 . S
C7 C13 1.404 1_554 S
C8 C1 1.448 . S
C8 C7 1.430 . S
C8 N12 1.351 . S
C9 C7 1.391 . S
C9 C10 1.384 . S
C9 H24 0.918 1_554 S
C10 C4 1.439 . S
C10 C9 1.384 . S
C10 H25 0.931 . S
Eu11 N2 2.600 . S
Eu11 N12 2.562 . S
Eu11 O46 2.335 . S
Eu11 O49 2.372 . S
Eu11 O50 2.462 . S
Eu11 O51 2.373 1_554 S
Eu11 O53 2.432 . S
Eu11 O54 2.291 . S
Eu11 C75 2.787 . S
N12 C8 1.351 . S
N12 Eu11 2.562 . S
N12 C14 1.325 . S
C13 C7 1.404 1_556 S
C13 C15 1.364 1_556 S
C13 H21 0.930 . S
C14 N12 1.325 . S
C14 C15 1.421 . S
C14 H20 0.929 . S
C15 C13 1.364 1_554 S
C15 C14 1.421 . S
C15 H17 0.927 1_554 S
H16 C5 0.930 . S
H17 C15 0.927 1_556 S
H18 C33 0.930 . S
H19 C40 0.930 . S
H20 C14 0.929 . S
H21 C13 0.930 . S
H22 C36 0.929 . S
H23 C3 0.931 . S
H24 C9 0.918 1_556 S
H25 C10 0.931 . S
H26 C31 0.931 . S
H27 C6 0.929 . S
H28 C39 0.930 . S
N29 Eu0 2.600 . S
N29 C30 1.365 1_556 S
N29 C33 1.319 . S
C30 N29 1.365 1_554 S
C30 C32 1.405 . S
C30 C38 1.448 . S
C31 H26 0.931 . S
C31 C33 1.397 . S
C31 C34 1.367 1_556 S
C32 C30 1.405 . S
C32 C34 1.403 . S
C32 C65 1.439 . S
C33 H18 0.930 . S
C33 N29 1.319 . S
C33 C31 1.397 . S
C34 C31 1.367 1_554 S
C34 C32 1.403 . S
C34 H41 0.929 1_455 S
N35 Eu0 2.562 1_554 S
N35 C36 1.325 . S
N35 C38 1.351 . S
C36 H22 0.929 . S
C36 N35 1.325 . S
C36 C40 1.416 . S
C37 C38 1.430 . S
C37 C39 1.404 . S
C37 C66 1.387 . S
C38 C30 1.448 . S
C38 N35 1.351 . S
C38 C37 1.430 . S
C39 H28 0.930 . S
C39 C37 1.404 . S
C39 C40 1.366 . S
C40 H19 0.930 . S
C40 C36 1.416 . S
C40 C39 1.366 . S
H41 C34 0.929 1_655 S
H42 C65 0.931 . S
H43 C66 0.931 . S
O44 Eu0 2.462 . S
O44 C64 1.252 . S
O45 Eu0 2.373 1_554 S
O45 C56 1.249 . S
O46 Eu11 2.335 . S
O46 C56 1.264 . S
O47 Eu0 2.432 . S
O47 C64 1.268 . S
O48 Eu0 2.291 1_554 S
O48 C63 1.255 . S
O49 Eu11 2.372 . S
O49 C63 1.257 . S
O50 Eu11 2.462 . S
O50 C75 1.252 . S
O51 Eu11 2.373 1_556 S
O51 C67 1.249 . S
O52 Eu0 2.335 . S
O52 C67 1.264 . S
O53 Eu11 2.432 . S
O53 C75 1.268 . S
O54 Eu11 2.291 . S
O54 C74 1.255 . S
O55 Eu0 2.372 . S
O55 C74 1.257 1_556 S
C56 O45 1.249 . S
C56 O46 1.264 . S
C57 C60 1.382 . S
C57 C62 1.390 . S
C57 C64 1.506 . S
C58 C59 1.398 . S
C58 C62 1.392 . S
C59 C58 1.398 . S
C59 C61 1.372 . S
C59 H76 0.931 . S
C60 C57 1.382 . S
C60 C61 1.390 . S
C60 H77 0.931 . S
C61 C59 1.372 . S
C61 C60 1.390 . S
C61 H78 0.929 . S
C62 C57 1.390 . S
C62 C58 1.392 . S
C62 H79 0.930 . S
C63 O48 1.255 . S
C63 O49 1.257 . S
C64 Eu0 2.787 . S
C64 O44 1.252 . S
C64 O47 1.268 . S
C64 C57 1.506 . S
C65 C32 1.439 . S
C65 H42 0.931 . S
C65 C66 1.374 . S
C66 C37 1.387 . S
C66 H43 0.931 . S
C66 C65 1.374 . S
C67 O51 1.249 . S
C67 O52 1.264 . S
C68 C71 1.382 . S
C68 C72 1.390 . S
C68 C75 1.506 . S
C69 C70 1.398 . S
C69 C72 1.392 . S
C70 C69 1.398 . S
C70 C73 1.372 . S
C70 H80 0.931 . S
C71 C68 1.382 . S
C71 C73 1.390 . S
C71 H81 0.931 . S
C72 C68 1.390 . S
C72 C69 1.392 . S
C72 H82 0.930 . S
C73 C70 1.372 . S
C73 C71 1.390 . S
C73 H83 0.929 . S
C74 O54 1.255 . S
C74 O55 1.257 1_554 S
C75 Eu11 2.787 . S
C75 O50 1.252 . S
C75 O53 1.268 . S
C75 C68 1.506 . S
H76 C59 0.931 . S
H77 C60 0.931 . S
H78 C61 0.929 . S
H79 C62 0.930 . S
H80 C70 0.931 . S
H81 C71 0.931 . S
H82 C72 0.930 . S
H83 C73 0.929 . S
Eu84 N113 2.600 . S
Eu84 N119 2.562 . S
Eu84 O128 2.462 . S
Eu84 O129 2.373 . S
Eu84 O131 2.432 . S
Eu84 O132 2.291 . S
Eu84 O136 2.335 . S
Eu84 O139 2.372 . S
Eu84 C148 2.787 . S
C85 N86 1.365 . S
C85 C88 1.405 . S
C85 C92 1.448 . S
N86 C85 1.365 . S
N86 C89 1.319 . S
N86 Eu95 2.600 . S
C87 C89 1.397 . S
C87 C90 1.367 . S
C87 H107 0.931 . S
C88 C85 1.405 . S
C88 C90 1.403 . S
C88 C94 1.439 . S
C89 N86 1.319 . S
C89 C87 1.397 . S
C89 H100 0.930 . S
C90 C87 1.367 . S
C90 C88 1.403 . S
C90 H111 0.929 . S
C91 C92 1.430 . S
C91 C93 1.387 . S
C91 C97 1.404 . S
C92 C85 1.448 . S
C92 C91 1.430 . S
C92 N96 1.351 . S
C93 C91 1.387 . S
C93 C94 1.374 . S
C93 H108 0.931 . S
C94 C88 1.439 . S
C94 C93 1.374 . S
C94 H109 0.931 . S
Eu95 N86 2.600 . S
Eu95 N96 2.562 . S
Eu95 O130 2.335 . S
Eu95 O133 2.372 . S
Eu95 O134 2.462 . S
Eu95 O135 2.373 . S
Eu95 O137 2.432 . S
Eu95 O138 2.291 . S
Eu95 C159 2.787 . S
N96 C92 1.351 . S
N96 Eu95 2.562 . S
N96 C98 1.325 . S
C97 C91 1.404 . S
C97 C99 1.366 . S
C97 H105 0.930 . S
C98 N96 1.325 . S
C98 C99 1.416 . S
C98 H104 0.929 . S
C99 C97 1.366 . S
C99 C98 1.416 . S
C99 H101 0.930 . S
H100 C89 0.930 . S
H101 C99 0.930 . S
H102 C117 0.930 . S
H103 C124 0.930 . S
H104 C98 0.929 . S
H105 C97 0.930 . S
H106 C120 0.929 . S
H107 C87 0.931 . S
H108 C93 0.931 . S
H109 C94 0.931 . S
H110 C115 0.931 . S
H111 C90 0.929 . S
H112 C123 0.930 . S
N113 Eu84 2.600 . S
N113 C114 1.365 . S
N113 C117 1.319 . S
C114 N113 1.365 . S
C114 C116 1.405 . S
C114 C122 1.448 . S
C115 H110 0.931 . S
C115 C117 1.397 . S
C115 C118 1.367 . S
C116 C114 1.405 . S
C116 C118 1.403 . S
C116 C149 1.439 . S
C117 H102 0.930 . S
C117 N113 1.319 . S
C117 C115 1.397 . S
C118 C115 1.367 . S
C118 C116 1.403 . S
C118 H125 0.929 1_545 S
N119 Eu84 2.562 . S
N119 C120 1.325 . S
N119 C122 1.351 . S
C120 H106 0.929 . S
C120 N119 1.325 . S
C120 C124 1.416 . S
C121 C122 1.430 . S
C121 C123 1.404 . S
C121 C150 1.387 . S
C122 C114 1.448 . S
C122 N119 1.351 . S
C122 C121 1.430 . S
C123 H112 0.930 . S
C123 C121 1.404 . S
C123 C124 1.366 . S
C124 H103 0.930 . S
C124 C120 1.416 . S
C124 C123 1.366 . S
H125 C118 0.929 1_565 S
H126 C149 0.931 . S
H127 C150 0.931 . S
O128 Eu84 2.462 . S
O128 C148 1.252 . S
O129 Eu84 2.373 . S
O129 C140 1.249 . S
O130 Eu95 2.335 . S
O130 C140 1.264 . S
O131 Eu84 2.432 . S
O131 C148 1.268 . S
O132 Eu84 2.291 . S
O132 C147 1.255 . S
O133 Eu95 2.372 . S
O133 C147 1.257 . S
O134 Eu95 2.462 . S
O134 C159 1.252 . S
O135 Eu95 2.373 . S
O135 C151 1.249 . S
O136 Eu84 2.335 . S
O136 C151 1.264 . S
O137 Eu95 2.432 . S
O137 C159 1.268 . S
O138 Eu95 2.291 . S
O138 C158 1.255 . S
O139 Eu84 2.372 . S
O139 C158 1.257 . S
C140 O129 1.249 . S
C140 O130 1.264 . S
C141 C144 1.382 . S
C141 C146 1.390 . S
C141 C148 1.506 . S
C142 C143 1.398 . S
C142 C146 1.392 . S
C143 C142 1.398 . S
C143 C145 1.372 . S
C143 H160 0.931 . S
C144 C141 1.382 . S
C144 C145 1.390 . S
C144 H161 0.931 . S
C145 C143 1.372 . S
C145 C144 1.390 . S
C145 H162 0.929 . S
C146 C141 1.390 . S
C146 C142 1.392 . S
C146 H163 0.930 . S
C147 O132 1.255 . S
C147 O133 1.257 . S
C148 Eu84 2.787 . S
C148 O128 1.252 . S
C148 O131 1.268 . S
C148 C141 1.506 . S
C149 C116 1.439 . S
C149 H126 0.931 . S
C149 C150 1.374 . S
C150 C121 1.387 . S
C150 H127 0.931 . S
C150 C149 1.374 . S
C151 O135 1.249 . S
C151 O136 1.264 . S
C152 C155 1.382 . S
C152 C156 1.390 . S
C152 C159 1.506 . S
C153 C154 1.398 . S
C153 C156 1.392 . S
C154 C153 1.398 . S
C154 C157 1.372 . S
C154 H164 0.931 . S
C155 C152 1.382 . S
C155 C157 1.390 . S
C155 H165 0.931 . S
C156 C152 1.390 . S
C156 C153 1.392 . S
C156 H166 0.930 . S
C157 C154 1.372 . S
C157 C155 1.390 . S
C157 H167 0.929 . S
C158 O138 1.255 . S
C158 O139 1.257 . S
C159 Eu95 2.787 . S
C159 O134 1.252 . S
C159 O137 1.268 . S
C159 C152 1.506 . S
H160 C143 0.931 . S
H161 C144 0.931 . S
H162 C145 0.929 . S
H163 C146 0.930 . S
H164 C154 0.931 . S
H165 C155 0.931 . S
H166 C156 0.930 . S
H167 C157 0.929 . S
Eu168 N197 2.600 . S
Eu168 N203 2.562 . S
Eu168 O212 2.462 . S
Eu168 O213 2.373 . S
Eu168 O215 2.432 . S
Eu168 O216 2.291 . S
Eu168 O220 2.335 . S
Eu168 O223 2.372 . S
Eu168 C232 2.787 . S
C169 N170 1.365 . S
C169 C172 1.405 . S
C169 C176 1.448 . S
N170 C169 1.365 . S
N170 C173 1.319 . S
N170 Eu179 2.600 . S
C171 C173 1.397 . S
C171 C174 1.367 . S
C171 H191 0.931 . S
C172 C169 1.405 . S
C172 C174 1.403 . S
C172 C178 1.439 . S
C173 N170 1.319 . S
C173 C171 1.397 . S
C173 H184 0.930 . S
C174 C171 1.367 . S
C174 C172 1.403 . S
C174 H195 0.929 . S
C175 C176 1.430 . S
C175 C177 1.387 . S
C175 C181 1.404 . S
C176 C169 1.448 . S
C176 C175 1.430 . S
C176 N180 1.351 . S
C177 C175 1.387 . S
C177 C178 1.374 . S
C177 H192 0.931 . S
C178 C172 1.439 . S
C178 C177 1.374 . S
C178 H193 0.931 . S
Eu179 N170 2.600 . S
Eu179 N180 2.562 . S
Eu179 O214 2.335 . S
Eu179 O217 2.372 . S
Eu179 O218 2.462 . S
Eu179 O219 2.373 . S
Eu179 O221 2.432 . S
Eu179 O222 2.291 . S
Eu179 C243 2.787 . S
N180 C176 1.351 . S
N180 Eu179 2.562 . S
N180 C182 1.325 . S
C181 C175 1.404 . S
C181 C183 1.366 . S
C181 H189 0.930 . S
C182 N180 1.325 . S
C182 C183 1.416 . S
C182 H188 0.929 . S
C183 C181 1.366 . S
C183 C182 1.416 . S
C183 H185 0.930 . S
H184 C173 0.930 . S
H185 C183 0.930 . S
H186 C201 0.930 . S
H187 C208 0.930 . S
H188 C182 0.929 . S
H189 C181 0.930 . S
H190 C204 0.929 . S
H191 C171 0.931 . S
H192 C177 0.931 . S
H193 C178 0.931 . S
H194 C199 0.931 . S
H195 C174 0.929 . S
H196 C207 0.930 . S
N197 Eu168 2.600 . S
N197 C198 1.365 . S
N197 C201 1.319 . S
C198 N197 1.365 . S
C198 C200 1.405 . S
C198 C206 1.448 . S
C199 H194 0.931 . S
C199 C201 1.397 . S
C199 C202 1.367 . S
C200 C198 1.405 . S
C200 C202 1.403 . S
C200 C233 1.439 . S
C201 H186 0.930 . S
C201 N197 1.319 . S
C201 C199 1.397 . S
C202 C199 1.367 . S
C202 C200 1.403 . S
C202 H209 0.929 . S
N203 Eu168 2.562 . S
N203 C204 1.325 . S
N203 C206 1.351 . S
C204 H190 0.929 . S
C204 N203 1.325 . S
C204 C208 1.416 . S
C205 C206 1.430 . S
C205 C207 1.404 . S
C205 C234 1.387 . S
C206 C198 1.448 . S
C206 N203 1.351 . S
C206 C205 1.430 . S
C207 H196 0.930 . S
C207 C205 1.404 . S
C207 C208 1.366 . S
C208 H187 0.930 . S
C208 C204 1.416 . S
C208 C207 1.366 . S
H209 C202 0.929 . S
H210 C233 0.931 . S
H211 C234 0.931 . S
O212 Eu168 2.462 . S
O212 C232 1.252 . S
O213 Eu168 2.373 . S
O213 C224 1.249 . S
O214 Eu179 2.335 . S
O214 C224 1.264 . S
O215 Eu168 2.432 . S
O215 C232 1.268 . S
O216 Eu168 2.291 . S
O216 C231 1.255 . S
O217 Eu179 2.372 . S
O217 C231 1.257 . S
O218 Eu179 2.462 . S
O218 C243 1.252 . S
O219 Eu179 2.373 . S
O219 C235 1.249 . S
O220 Eu168 2.335 . S
O220 C235 1.264 . S
O221 Eu179 2.432 . S
O221 C243 1.268 . S
O222 Eu179 2.291 . S
O222 C242 1.255 . S
O223 Eu168 2.372 . S
O223 C242 1.257 . S
C224 O213 1.249 . S
C224 O214 1.264 . S
C225 C228 1.382 . S
C225 C230 1.390 . S
C225 C232 1.506 . S
C226 C227 1.398 . S
C226 C230 1.392 . S
C227 C226 1.398 . S
C227 C229 1.372 . S
C227 H244 0.931 . S
C228 C225 1.382 . S
C228 C229 1.390 . S
C228 H245 0.931 . S
C229 C227 1.372 . S
C229 C228 1.390 . S
C229 H246 0.929 . S
C230 C225 1.390 . S
C230 C226 1.392 . S
C230 H247 0.930 . S
C231 O216 1.255 . S
C231 O217 1.257 . S
C232 Eu168 2.787 . S
C232 O212 1.252 . S
C232 O215 1.268 . S
C232 C225 1.506 . S
C233 C200 1.439 . S
C233 H210 0.931 . S
C233 C234 1.374 . S
C234 C205 1.387 . S
C234 H211 0.931 . S
C234 C233 1.374 . S
C235 O219 1.249 . S
C235 O220 1.264 . S
C236 C239 1.382 . S
C236 C240 1.390 . S
C236 C243 1.506 . S
C237 C238 1.398 . S
C237 C240 1.392 . S
C238 C237 1.398 . S
C238 C241 1.372 . S
C238 H248 0.931 . S
C239 C236 1.382 . S
C239 C241 1.390 . S
C239 H249 0.931 . S
C240 C236 1.390 . S
C240 C237 1.392 . S
C240 H250 0.930 . S
C241 C238 1.372 . S
C241 C239 1.390 . S
C241 H251 0.929 . S
C242 O222 1.255 . S
C242 O223 1.257 . S
C243 Eu179 2.787 . S
C243 O218 1.252 . S
C243 O221 1.268 . S
C243 C236 1.506 . S
H244 C227 0.931 . S
H245 C228 0.931 . S
H246 C229 0.929 . S
H247 C230 0.930 . S
H248 C238 0.931 . S
H249 C239 0.931 . S
H250 C240 0.930 . S
H251 C241 0.929 . S
Eu252 N281 2.600 . S
Eu252 N287 2.562 1_556 S
Eu252 O296 2.462 . S
Eu252 O297 2.373 1_556 S
Eu252 O299 2.432 . S
Eu252 O300 2.291 1_556 S
Eu252 O304 2.335 . S
Eu252 O307 2.372 . S
Eu252 C316 2.787 . S
C253 N254 1.365 . S
C253 C256 1.405 . S
C253 C260 1.448 . S
N254 C253 1.365 . S
N254 C257 1.319 . S
N254 Eu263 2.600 . S
C255 C257 1.397 . S
C255 C258 1.367 . S
C255 H275 0.931 . S
C256 C253 1.405 . S
C256 C258 1.403 . S
C256 C262 1.439 . S
C257 N254 1.319 . S
C257 C255 1.397 . S
C257 H268 0.930 . S
C258 C255 1.367 . S
C258 C256 1.403 . S
C258 H279 0.929 . S
C259 C260 1.430 . S
C259 C261 1.391 . S
C259 C265 1.404 1_554 S
C260 C253 1.448 . S
C260 C259 1.430 . S
C260 N264 1.351 . S
C261 C259 1.391 . S
C261 C262 1.384 . S
C261 H276 0.918 1_554 S
C262 C256 1.439 . S
C262 C261 1.384 . S
C262 H277 0.931 . S
Eu263 N254 2.600 . S
Eu263 N264 2.562 . S
Eu263 O298 2.335 . S
Eu263 O301 2.372 . S
Eu263 O302 2.462 . S
Eu263 O303 2.373 1_554 S
Eu263 O305 2.432 . S
Eu263 O306 2.291 . S
Eu263 C327 2.787 . S
N264 C260 1.351 . S
N264 Eu263 2.562 . S
N264 C266 1.325 . S
C265 C259 1.404 1_556 S
C265 C267 1.364 1_556 S
C265 H273 0.930 . S
C266 N264 1.325 . S
C266 C267 1.421 . S
C266 H272 0.929 . S
C267 C265 1.364 1_554 S
C267 C266 1.421 . S
C267 H269 0.927 1_554 S
H268 C257 0.930 . S
H269 C267 0.927 1_556 S
H270 C285 0.930 . S
H271 C292 0.930 . S
H272 C266 0.929 . S
H273 C265 0.930 . S
H274 C288 0.929 . S
H275 C255 0.931 . S
H276 C261 0.918 1_556 S
H277 C262 0.931 . S
H278 C283 0.931 . S
H279 C258 0.929 . S
H280 C291 0.930 . S
N281 Eu252 2.600 . S
N281 C282 1.365 1_556 S
N281 C285 1.319 . S
C282 N281 1.365 1_554 S
C282 C284 1.405 . S
C282 C290 1.448 . S
C283 H278 0.931 . S
C283 C285 1.397 . S
C283 C286 1.367 1_556 S
C284 C282 1.405 . S
C284 C286 1.403 . S
C284 C317 1.439 . S
C285 H270 0.930 . S
C285 N281 1.319 . S
C285 C283 1.397 . S
C286 C283 1.367 1_554 S
C286 C284 1.403 . S
C286 H293 0.929 1_655 S
N287 Eu252 2.562 1_554 S
N287 C288 1.325 . S
N287 C290 1.351 . S
C288 H274 0.929 . S
C288 N287 1.325 . S
C288 C292 1.416 . S
C289 C290 1.430 . S
C289 C291 1.404 . S
C289 C318 1.387 . S
C290 C282 1.448 . S
C290 N287 1.351 . S
C290 C289 1.430 . S
C291 H280 0.930 . S
C291 C289 1.404 . S
C291 C292 1.366 . S
C292 H271 0.930 . S
C292 C288 1.416 . S
C292 C291 1.366 . S
H293 C286 0.929 1_455 S
H294 C317 0.931 . S
H295 C318 0.931 . S
O296 Eu252 2.462 . S
O296 C316 1.252 . S
O297 Eu252 2.373 1_554 S
O297 C308 1.249 . S
O298 Eu263 2.335 . S
O298 C308 1.264 . S
O299 Eu252 2.432 . S
O299 C316 1.268 . S
O300 Eu252 2.291 1_554 S
O300 C315 1.255 . S
O301 Eu263 2.372 . S
O301 C315 1.257 . S
O302 Eu263 2.462 . S
O302 C327 1.252 . S
O303 Eu263 2.373 1_556 S
O303 C319 1.249 . S
O304 Eu252 2.335 . S
O304 C319 1.264 . S
O305 Eu263 2.432 . S
O305 C327 1.268 . S
O306 Eu263 2.291 . S
O306 C326 1.255 . S
O307 Eu252 2.372 . S
O307 C326 1.257 1_556 S
C308 O297 1.249 . S
C308 O298 1.264 . S
C309 C312 1.382 . S
C309 C314 1.390 . S
C309 C316 1.506 . S
C310 C311 1.398 . S
C310 C314 1.392 . S
C311 C310 1.398 . S
C311 C313 1.372 . S
C311 H328 0.931 . S
C312 C309 1.382 . S
C312 C313 1.390 . S
C312 H329 0.931 . S
C313 C311 1.372 . S
C313 C312 1.390 . S
C313 H330 0.929 . S
C314 C309 1.390 . S
C314 C310 1.392 . S
C314 H331 0.930 . S
C315 O300 1.255 . S
C315 O301 1.257 . S
C316 Eu252 2.787 . S
C316 O296 1.252 . S
C316 O299 1.268 . S
C316 C309 1.506 . S
C317 C284 1.439 . S
C317 H294 0.931 . S
C317 C318 1.374 . S
C318 C289 1.387 . S
C318 H295 0.931 . S
C318 C317 1.374 . S
C319 O303 1.249 . S
C319 O304 1.264 . S
C320 C323 1.382 . S
C320 C324 1.390 . S
C320 C327 1.506 . S
C321 C322 1.398 . S
C321 C324 1.392 . S
C322 C321 1.398 . S
C322 C325 1.372 . S
C322 H332 0.931 . S
C323 C320 1.382 . S
C323 C325 1.390 . S
C323 H333 0.931 . S
C324 C320 1.390 . S
C324 C321 1.392 . S
C324 H334 0.930 . S
C325 C322 1.372 . S
C325 C323 1.390 . S
C325 H335 0.929 . S
C326 O306 1.255 . S
C326 O307 1.257 1_554 S
C327 Eu263 2.787 . S
C327 O302 1.252 . S
C327 O305 1.268 . S
C327 C320 1.506 . S
H328 C311 0.931 . S
H329 C312 0.931 . S
H330 C313 0.929 . S
H331 C314 0.930 . S
H332 C322 0.931 . S
H333 C323 0.931 . S
H334 C324 0.930 . S
H335 C325 0.929 . S
Eu336 N365 2.600 . S
Eu336 N371 2.562 . S
Eu336 O380 2.462 . S
Eu336 O381 2.373 . S
Eu336 O383 2.432 . S
Eu336 O384 2.291 . S
Eu336 O388 2.335 . S
Eu336 O391 2.372 . S
Eu336 C400 2.787 . S
C337 N338 1.365 . S
C337 C340 1.405 . S
C337 C344 1.448 . S
N338 C337 1.365 . S
N338 C341 1.319 . S
N338 Eu347 2.600 . S
C339 C341 1.397 . S
C339 C342 1.367 . S
C339 H359 0.931 . S
C340 C337 1.405 . S
C340 C342 1.403 . S
C340 C346 1.439 . S
C341 N338 1.319 . S
C341 C339 1.397 . S
C341 H352 0.930 . S
C342 C339 1.367 . S
C342 C340 1.403 . S
C342 H363 0.929 . S
C343 C344 1.430 . S
C343 C345 1.387 . S
C343 C349 1.404 . S
C344 C337 1.448 . S
C344 C343 1.430 . S
C344 N348 1.351 . S
C345 C343 1.387 . S
C345 C346 1.374 . S
C345 H360 0.931 . S
C346 C340 1.439 . S
C346 C345 1.374 . S
C346 H361 0.931 . S
Eu347 N338 2.600 . S
Eu347 N348 2.562 . S
Eu347 O382 2.335 . S
Eu347 O385 2.372 . S
Eu347 O386 2.462 . S
Eu347 O387 2.373 . S
Eu347 O389 2.432 . S
Eu347 O390 2.291 . S
Eu347 C411 2.787 . S
N348 C344 1.351 . S
N348 Eu347 2.562 . S
N348 C350 1.325 . S
C349 C343 1.404 . S
C349 C351 1.366 . S
C349 H357 0.930 . S
C350 N348 1.325 . S
C350 C351 1.416 . S
C350 H356 0.929 . S
C351 C349 1.366 . S
C351 C350 1.416 . S
C351 H353 0.930 . S
H352 C341 0.930 . S
H353 C351 0.930 . S
H354 C369 0.930 . S
H355 C376 0.930 . S
H356 C350 0.929 . S
H357 C349 0.930 . S
H358 C372 0.929 . S
H359 C339 0.931 . S
H360 C345 0.931 . S
H361 C346 0.931 . S
H362 C367 0.931 . S
H363 C342 0.929 . S
H364 C375 0.930 . S
N365 Eu336 2.600 . S
N365 C366 1.365 . S
N365 C369 1.319 . S
C366 N365 1.365 . S
C366 C368 1.405 . S
C366 C374 1.448 . S
C367 H362 0.931 . S
C367 C369 1.397 . S
C367 C370 1.367 . S
C368 C366 1.405 . S
C368 C370 1.403 . S
C368 C401 1.439 . S
C369 H354 0.930 . S
C369 N365 1.319 . S
C369 C367 1.397 . S
C370 C367 1.367 . S
C370 C368 1.403 . S
C370 H377 0.929 1_565 S
N371 Eu336 2.562 . S
N371 C372 1.325 . S
N371 C374 1.351 . S
C372 H358 0.929 . S
C372 N371 1.325 . S
C372 C376 1.416 . S
C373 C374 1.430 . S
C373 C375 1.404 . S
C373 C402 1.387 . S
C374 C366 1.448 . S
C374 N371 1.351 . S
C374 C373 1.430 . S
C375 H364 0.930 . S
C375 C373 1.404 . S
C375 C376 1.366 . S
C376 H355 0.930 . S
C376 C372 1.416 . S
C376 C375 1.366 . S
H377 C370 0.929 1_545 S
H378 C401 0.931 . S
H379 C402 0.931 . S
O380 Eu336 2.462 . S
O380 C400 1.252 . S
O381 Eu336 2.373 . S
O381 C392 1.249 . S
O382 Eu347 2.335 . S
O382 C392 1.264 . S
O383 Eu336 2.432 . S
O383 C400 1.268 . S
O384 Eu336 2.291 . S
O384 C399 1.255 . S
O385 Eu347 2.372 . S
O385 C399 1.257 . S
O386 Eu347 2.462 . S
O386 C411 1.252 . S
O387 Eu347 2.373 . S
O387 C403 1.249 . S
O388 Eu336 2.335 . S
O388 C403 1.264 . S
O389 Eu347 2.432 . S
O389 C411 1.268 . S
O390 Eu347 2.291 . S
O390 C410 1.255 . S
O391 Eu336 2.372 . S
O391 C410 1.257 . S
C392 O381 1.249 . S
C392 O382 1.264 . S
C393 C396 1.382 . S
C393 C398 1.390 . S
C393 C400 1.506 . S
C394 C395 1.398 . S
C394 C398 1.392 . S
C395 C394 1.398 . S
C395 C397 1.372 . S
C395 H412 0.931 . S
C396 C393 1.382 . S
C396 C397 1.390 . S
C396 H413 0.931 . S
C397 C395 1.372 . S
C397 C396 1.390 . S
C397 H414 0.929 . S
C398 C393 1.390 . S
C398 C394 1.392 . S
C398 H415 0.930 . S
C399 O384 1.255 . S
C399 O385 1.257 . S
C400 Eu336 2.787 . S
C400 O380 1.252 . S
C400 O383 1.268 . S
C400 C393 1.506 . S
C401 C368 1.439 . S
C401 H378 0.931 . S
C401 C402 1.374 . S
C402 C373 1.387 . S
C402 H379 0.931 . S
C402 C401 1.374 . S
C403 O387 1.249 . S
C403 O388 1.264 . S
C404 C407 1.382 . S
C404 C408 1.390 . S
C404 C411 1.506 . S
C405 C406 1.398 . S
C405 C408 1.392 . S
C406 C405 1.398 . S
C406 C409 1.372 . S
C406 H416 0.931 . S
C407 C404 1.382 . S
C407 C409 1.390 . S
C407 H417 0.931 . S
C408 C404 1.390 . S
C408 C405 1.392 . S
C408 H418 0.930 . S
C409 C406 1.372 . S
C409 C407 1.390 . S
C409 H419 0.929 . S
C410 O390 1.255 . S
C410 O391 1.257 . S
C411 Eu347 2.787 . S
C411 O386 1.252 . S
C411 O389 1.268 . S
C411 C404 1.506 . S
H412 C395 0.931 . S
H413 C396 0.931 . S
H414 C397 0.929 . S
H415 C398 0.930 . S
H416 C406 0.931 . S
H417 C407 0.931 . S
H418 C408 0.930 . S
H419 C409 0.929 . S
Eu420 N449 2.600 . S
Eu420 N455 2.562 . S
Eu420 O464 2.462 . S
Eu420 O465 2.373 . S
Eu420 O467 2.432 . S
Eu420 O468 2.291 . S
Eu420 O472 2.335 . S
Eu420 O475 2.372 . S
Eu420 C484 2.787 . S
C421 N422 1.365 . S
C421 C424 1.405 . S
C421 C428 1.448 . S
N422 C421 1.365 . S
N422 C425 1.319 . S
N422 Eu431 2.600 . S
C423 C425 1.397 . S
C423 C426 1.367 . S
C423 H443 0.931 . S
C424 C421 1.405 . S
C424 C426 1.403 . S
C424 C430 1.439 . S
C425 N422 1.319 . S
C425 C423 1.397 . S
C425 H436 0.930 . S
C426 C423 1.367 . S
C426 C424 1.403 . S
C426 H447 0.929 . S
C427 C428 1.430 . S
C427 C429 1.387 . S
C427 C433 1.404 . S
C428 C421 1.448 . S
C428 C427 1.430 . S
C428 N432 1.351 . S
C429 C427 1.387 . S
C429 C430 1.374 . S
C429 H444 0.931 . S
C430 C424 1.439 . S
C430 C429 1.374 . S
C430 H445 0.931 . S
Eu431 N422 2.600 . S
Eu431 N432 2.562 . S
Eu431 O466 2.335 . S
Eu431 O469 2.372 . S
Eu431 O470 2.462 . S
Eu431 O471 2.373 . S
Eu431 O473 2.432 . S
Eu431 O474 2.291 . S
Eu431 C495 2.787 . S
N432 C428 1.351 . S
N432 Eu431 2.562 . S
N432 C434 1.325 . S
C433 C427 1.404 . S
C433 C435 1.366 . S
C433 H441 0.930 . S
C434 N432 1.325 . S
C434 C435 1.416 . S
C434 H440 0.929 . S
C435 C433 1.366 . S
C435 C434 1.416 . S
C435 H437 0.930 . S
H436 C425 0.930 . S
H437 C435 0.930 . S
H438 C453 0.930 . S
H439 C460 0.930 . S
H440 C434 0.929 . S
H441 C433 0.930 . S
H442 C456 0.929 . S
H443 C423 0.931 . S
H444 C429 0.931 . S
H445 C430 0.931 . S
H446 C451 0.931 . S
H447 C426 0.929 . S
H448 C459 0.930 . S
N449 Eu420 2.600 . S
N449 C450 1.365 . S
N449 C453 1.319 . S
C450 N449 1.365 . S
C450 C452 1.405 . S
C450 C458 1.448 . S
C451 H446 0.931 . S
C451 C453 1.397 . S
C451 C454 1.367 . S
C452 C450 1.405 . S
C452 C454 1.403 . S
C452 C485 1.439 . S
C453 H438 0.930 . S
C453 N449 1.319 . S
C453 C451 1.397 . S
C454 C451 1.367 . S
C454 C452 1.403 . S
C454 H461 0.929 . S
N455 Eu420 2.562 . S
N455 C456 1.325 . S
N455 C458 1.351 . S
C456 H442 0.929 . S
C456 N455 1.325 . S
C456 C460 1.416 . S
C457 C458 1.430 . S
C457 C459 1.404 . S
C457 C486 1.387 . S
C458 C450 1.448 . S
C458 N455 1.351 . S
C458 C457 1.430 . S
C459 H448 0.930 . S
C459 C457 1.404 . S
C459 C460 1.366 . S
C460 H439 0.930 . S
C460 C456 1.416 . S
C460 C459 1.366 . S
H461 C454 0.929 . S
H462 C485 0.931 . S
H463 C486 0.931 . S
O464 Eu420 2.462 . S
O464 C484 1.252 . S
O465 Eu420 2.373 . S
O465 C476 1.249 . S
O466 Eu431 2.335 . S
O466 C476 1.264 . S
O467 Eu420 2.432 . S
O467 C484 1.268 . S
O468 Eu420 2.291 . S
O468 C483 1.255 . S
O469 Eu431 2.372 . S
O469 C483 1.257 . S
O470 Eu431 2.462 . S
O470 C495 1.252 . S
O471 Eu431 2.373 . S
O471 C487 1.249 . S
O472 Eu420 2.335 . S
O472 C487 1.264 . S
O473 Eu431 2.432 . S
O473 C495 1.268 . S
O474 Eu431 2.291 . S
O474 C494 1.255 . S
O475 Eu420 2.372 . S
O475 C494 1.257 . S
C476 O465 1.249 . S
C476 O466 1.264 . S
C477 C480 1.382 . S
C477 C482 1.390 . S
C477 C484 1.506 . S
C478 C479 1.398 . S
C478 C482 1.392 . S
C479 C478 1.398 . S
C479 C481 1.372 . S
C479 H496 0.931 . S
C480 C477 1.382 . S
C480 C481 1.390 . S
C480 H497 0.931 . S
C481 C479 1.372 . S
C481 C480 1.390 . S
C481 H498 0.929 . S
C482 C477 1.390 . S
C482 C478 1.392 . S
C482 H499 0.930 . S
C483 O468 1.255 . S
C483 O469 1.257 . S
C484 Eu420 2.787 . S
C484 O464 1.252 . S
C484 O467 1.268 . S
C484 C477 1.506 . S
C485 C452 1.439 . S
C485 H462 0.931 . S
C485 C486 1.374 . S
C486 C457 1.387 . S
C486 H463 0.931 . S
C486 C485 1.374 . S
C487 O471 1.249 . S
C487 O472 1.264 . S
C488 C491 1.382 . S
C488 C492 1.390 . S
C488 C495 1.506 . S
C489 C490 1.398 . S
C489 C492 1.392 . S
C490 C489 1.398 . S
C490 C493 1.372 . S
C490 H500 0.931 . S
C491 C488 1.382 . S
C491 C493 1.390 . S
C491 H501 0.931 . S
C492 C488 1.390 . S
C492 C489 1.392 . S
C492 H502 0.930 . S
C493 C490 1.372 . S
C493 C491 1.390 . S
C493 H503 0.929 . S
C494 O474 1.255 . S
C494 O475 1.257 . S
C495 Eu431 2.787 . S
C495 O470 1.252 . S
C495 O473 1.268 . S
C495 C488 1.506 . S
H496 C479 0.931 . S
H497 C480 0.931 . S
H498 C481 0.929 . S
H499 C482 0.930 . S
H500 C490 0.931 . S
H501 C491 0.931 . S
H502 C492 0.930 . S
H503 C493 0.929 . S
H504 C512 0.929 . S
H505 C514 0.930 . S
H506 C516 0.930 . S
H507 C519 0.929 . S
H508 C522 0.930 . S
H509 C524 0.960 . S
H510 C524 0.960 . S
H511 C524 0.960 . S
C512 H504 0.929 . S
C512 C513 1.377 . S
C512 C514 1.384 . S
C513 C512 1.377 . S
C513 C519 1.390 . S
C514 H505 0.930 . S
C514 C512 1.384 . S
C514 C515 1.372 . S
C515 C514 1.372 . S
C515 C516 1.400 . S
C515 C520 1.490 . S
C516 H506 0.930 . S
C516 C515 1.400 . S
C516 C519 1.386 . S
H517 C533 0.930 . S
H518 C534 0.931 . S
C519 H507 0.929 . S
C519 C513 1.390 . S
C519 C516 1.386 . S
C520 C515 1.490 . S
C520 C522 1.395 . S
C520 C523 1.403 . S
H521 C527 0.930 . S
C522 H508 0.930 . S
C522 C520 1.395 . S
C522 C525 1.403 . S
C523 C520 1.403 . S
C523 C524 1.524 . S
C523 C527 1.400 . S
C524 H509 0.960 . S
C524 H510 0.960 . S
C524 H511 0.960 . S
C524 C523 1.524 . S
C525 C522 1.403 . S
C525 C526 1.392 . S
C525 C529 1.495 . S
C526 C525 1.392 . S
C526 C527 1.385 . S
C526 C528 1.478 . S
C527 H521 0.930 . S
C527 C523 1.400 . S
C527 C526 1.385 . S
C528 C526 1.478 . S
C528 C530 1.381 . S
C528 C534 1.383 . S
C529 C525 1.495 . S
C529 H535 0.959 . S
C529 H536 0.961 . S
C529 H537 0.960 . S
C530 C528 1.381 . S
C530 C531 1.394 . S
C530 H538 0.930 . S
C531 C530 1.394 . S
C531 C532 1.383 . S
C531 H539 0.929 . S
C532 C531 1.383 . S
C532 C533 1.377 . S
C533 H517 0.930 . S
C533 C532 1.377 . S
C533 C534 1.379 . S
C534 H518 0.931 . S
C534 C528 1.383 . S
C534 C533 1.379 . S
H535 C529 0.959 . S
H536 C529 0.961 . S
H537 C529 0.960 . S
H538 C530 0.930 . S
H539 C531 0.929 . S
H540 C548 0.929 . S
H541 C550 0.930 . S
H542 C552 0.930 . S
H543 C555 0.929 . S
H544 C558 0.930 . S
H545 C560 0.960 . S
H546 C560 0.960 . S
H547 C560 0.960 . S
C548 H540 0.929 . S
C548 C549 1.377 . S
C548 C550 1.384 . S
C549 C548 1.377 . S
C549 C555 1.390 . S
C550 H541 0.930 . S
C550 C548 1.384 . S
C550 C551 1.372 . S
C551 C550 1.372 . S
C551 C552 1.400 . S
C551 C556 1.490 . S
C552 H542 0.930 . S
C552 C551 1.400 . S
C552 C555 1.386 . S
H553 C569 0.930 . S
H554 C570 0.931 . S
C555 H543 0.929 . S
C555 C549 1.390 . S
C555 C552 1.386 . S
C556 C551 1.490 . S
C556 C558 1.395 . S
C556 C559 1.403 . S
H557 C563 0.930 . S
C558 H544 0.930 . S
C558 C556 1.395 . S
C558 C561 1.403 . S
C559 C556 1.403 . S
C559 C560 1.524 . S
C559 C563 1.400 . S
C560 H545 0.960 . S
C560 H546 0.960 . S
C560 H547 0.960 . S
C560 C559 1.524 . S
C561 C558 1.403 . S
C561 C562 1.392 . S
C561 C565 1.495 . S
C562 C561 1.392 . S
C562 C563 1.385 . S
C562 C564 1.478 . S
C563 H557 0.930 . S
C563 C559 1.400 . S
C563 C562 1.385 . S
C564 C562 1.478 . S
C564 C566 1.381 . S
C564 C570 1.383 . S
C565 C561 1.495 . S
C565 H571 0.959 . S
C565 H572 0.961 . S
C565 H573 0.960 . S
C566 C564 1.381 . S
C566 C567 1.394 . S
C566 H574 0.930 . S
C567 C566 1.394 . S
C567 C568 1.383 . S
C567 H575 0.929 . S
C568 C567 1.383 . S
C568 C569 1.377 . S
C569 H553 0.930 . S
C569 C568 1.377 . S
C569 C570 1.379 . S
C570 H554 0.931 . S
C570 C564 1.383 . S
C570 C569 1.379 . S
H571 C565 0.959 . S
H572 C565 0.961 . S
H573 C565 0.960 . S
H574 C566 0.930 . S
H575 C567 0.929 . S
H576 C584 0.929 . S
H577 C586 0.930 . S
H578 C588 0.930 . S
H579 C591 0.929 . S
H580 C594 0.930 . S
H581 C596 0.960 . S
H582 C596 0.960 . S
H583 C596 0.960 . S
C584 H576 0.929 . S
C584 C585 1.377 . S
C584 C586 1.384 . S
C585 C584 1.377 . S
C585 C591 1.390 . S
C586 H577 0.930 . S
C586 C584 1.384 . S
C586 C587 1.372 . S
C587 C586 1.372 . S
C587 C588 1.400 . S
C587 C592 1.490 . S
C588 H578 0.930 . S
C588 C587 1.400 . S
C588 C591 1.386 . S
H589 C605 0.930 . S
H590 C606 0.931 . S
C591 H579 0.929 . S
C591 C585 1.390 . S
C591 C588 1.386 . S
C592 C587 1.490 . S
C592 C594 1.395 . S
C592 C595 1.403 . S
H593 C599 0.930 . S
C594 H580 0.930 . S
C594 C592 1.395 . S
C594 C597 1.403 . S
C595 C592 1.403 . S
C595 C596 1.524 . S
C595 C599 1.400 . S
C596 H581 0.960 . S
C596 H582 0.960 . S
C596 H583 0.960 . S
C596 C595 1.524 . S
C597 C594 1.403 . S
C597 C598 1.392 . S
C597 C601 1.495 . S
C598 C597 1.392 . S
C598 C599 1.385 . S
C598 C600 1.478 . S
C599 H593 0.930 . S
C599 C595 1.400 . S
C599 C598 1.385 . S
C600 C598 1.478 . S
C600 C602 1.381 . S
C600 C606 1.383 . S
C601 C597 1.495 . S
C601 H607 0.959 . S
C601 H608 0.961 . S
C601 H609 0.960 . S
C602 C600 1.381 . S
C602 C603 1.394 . S
C602 H610 0.930 . S
C603 C602 1.394 . S
C603 C604 1.383 . S
C603 H611 0.929 . S
C604 C603 1.383 . S
C604 C605 1.377 . S
C605 H589 0.930 . S
C605 C604 1.377 . S
C605 C606 1.379 . S
C606 H590 0.931 . S
C606 C600 1.383 . S
C606 C605 1.379 . S
H607 C601 0.959 . S
H608 C601 0.961 . S
H609 C601 0.960 . S
H610 C602 0.930 . S
H611 C603 0.929 . S
H612 C620 0.929 . S
H613 C622 0.930 . S
H614 C624 0.930 . S
H615 C627 0.929 . S
H616 C630 0.930 . S
H617 C632 0.960 . S
H618 C632 0.960 . S
H619 C632 0.960 . S
C620 H612 0.929 . S
C620 C621 1.377 . S
C620 C622 1.384 . S
C621 C620 1.377 . S
C621 C627 1.390 . S
C622 H613 0.930 . S
C622 C620 1.384 . S
C622 C623 1.372 . S
C623 C622 1.372 . S
C623 C624 1.400 . S
C623 C628 1.490 . S
C624 H614 0.930 . S
C624 C623 1.400 . S
C624 C627 1.386 . S
H625 C641 0.930 . S
H626 C642 0.931 . S
C627 H615 0.929 . S
C627 C621 1.390 . S
C627 C624 1.386 . S
C628 C623 1.490 . S
C628 C630 1.395 . S
C628 C631 1.403 . S
H629 C635 0.930 . S
C630 H616 0.930 . S
C630 C628 1.395 . S
C630 C633 1.403 . S
C631 C628 1.403 . S
C631 C632 1.524 . S
C631 C635 1.400 . S
C632 H617 0.960 . S
C632 H618 0.960 . S
C632 H619 0.960 . S
C632 C631 1.524 . S
C633 C630 1.403 . S
C633 C634 1.392 . S
C633 C637 1.495 . S
C634 C633 1.392 . S
C634 C635 1.385 . S
C634 C636 1.478 . S
C635 H629 0.930 . S
C635 C631 1.400 . S
C635 C634 1.385 . S
C636 C634 1.478 . S
C636 C638 1.381 . S
C636 C642 1.383 . S
C637 C633 1.495 . S
C637 H643 0.959 . S
C637 H644 0.961 . S
C637 H645 0.960 . S
C638 C636 1.381 . S
C638 C639 1.394 . S
C638 H646 0.930 . S
C639 C638 1.394 . S
C639 C640 1.383 . S
C639 H647 0.929 . S
C640 C639 1.383 . S
C640 C641 1.377 . S
C641 H625 0.930 . S
C641 C640 1.377 . S
C641 C642 1.379 . S
C642 H626 0.931 . S
C642 C636 1.383 . S
C642 C641 1.379 . S
H643 C637 0.959 . S
H644 C637 0.961 . S
H645 C637 0.960 . S
H646 C638 0.930 . S
H647 C639 0.929 . S
H648 C656 0.929 . S
H649 C658 0.930 . S
H650 C660 0.930 . S
H651 C663 0.929 . S
H652 C666 0.930 . S
H653 C668 0.960 . S
H654 C668 0.960 . S
H655 C668 0.960 . S
C656 H648 0.929 . S
C656 C657 1.377 . S
C656 C658 1.384 . S
C657 C656 1.377 . S
C657 C663 1.390 . S
C658 H649 0.930 . S
C658 C656 1.384 . S
C658 C659 1.372 . S
C659 C658 1.372 . S
C659 C660 1.400 . S
C659 C664 1.490 . S
C660 H650 0.930 . S
C660 C659 1.400 . S
C660 C663 1.386 . S
H661 C677 0.930 . S
H662 C678 0.931 . S
C663 H651 0.929 . S
C663 C657 1.390 . S
C663 C660 1.386 . S
C664 C659 1.490 . S
C664 C666 1.395 . S
C664 C667 1.403 . S
H665 C671 0.930 . S
C666 H652 0.930 . S
C666 C664 1.395 . S
C666 C669 1.403 . S
C667 C664 1.403 . S
C667 C668 1.524 . S
C667 C671 1.400 . S
C668 H653 0.960 . S
C668 H654 0.960 . S
C668 H655 0.960 . S
C668 C667 1.524 . S
C669 C666 1.403 . S
C669 C670 1.392 . S
C669 C673 1.495 . S
C670 C669 1.392 . S
C670 C671 1.385 . S
C670 C672 1.478 . S
C671 H665 0.930 . S
C671 C667 1.400 . S
C671 C670 1.385 . S
C672 C670 1.478 . S
C672 C674 1.381 . S
C672 C678 1.383 . S
C673 C669 1.495 . S
C673 H679 0.959 . S
C673 H680 0.961 . S
C673 H681 0.960 . S
C674 C672 1.381 . S
C674 C675 1.394 . S
C674 H682 0.930 . S
C675 C674 1.394 . S
C675 C676 1.383 . S
C675 H683 0.929 . S
C676 C675 1.383 . S
C676 C677 1.377 . S
C677 H661 0.930 . S
C677 C676 1.377 . S
C677 C678 1.379 . S
C678 H662 0.931 . S
C678 C672 1.383 . S
C678 C677 1.379 . S
H679 C673 0.959 . S
H680 C673 0.961 . S
H681 C673 0.960 . S
H682 C674 0.930 . S
H683 C675 0.929 . S
H684 C692 0.929 . S
H685 C694 0.930 . S
H686 C696 0.930 . S
H687 C699 0.929 . S
H688 C702 0.930 . S
H689 C704 0.960 . S
H690 C704 0.960 . S
H691 C704 0.960 . S
C692 H684 0.929 . S
C692 C693 1.377 . S
C692 C694 1.384 . S
C693 C692 1.377 . S
C693 C699 1.390 . S
C694 H685 0.930 . S
C694 C692 1.384 . S
C694 C695 1.372 . S
C695 C694 1.372 . S
C695 C696 1.400 . S
C695 C700 1.490 . S
C696 H686 0.930 . S
C696 C695 1.400 . S
C696 C699 1.386 . S
H697 C713 0.930 . S
H698 C714 0.931 . S
C699 H687 0.929 . S
C699 C693 1.390 . S
C699 C696 1.386 . S
C700 C695 1.490 . S
C700 C702 1.395 . S
C700 C703 1.403 . S
H701 C707 0.930 . S
C702 H688 0.930 . S
C702 C700 1.395 . S
C702 C705 1.403 . S
C703 C700 1.403 . S
C703 C704 1.524 . S
C703 C707 1.400 . S
C704 H689 0.960 . S
C704 H690 0.960 . S
C704 H691 0.960 . S
C704 C703 1.524 . S
C705 C702 1.403 . S
C705 C706 1.392 . S
C705 C709 1.495 . S
C706 C705 1.392 . S
C706 C707 1.385 . S
C706 C708 1.478 . S
C707 H701 0.930 . S
C707 C703 1.400 . S
C707 C706 1.385 . S
C708 C706 1.478 . S
C708 C710 1.381 . S
C708 C714 1.383 . S
C709 C705 1.495 . S
C709 H715 0.959 . S
C709 H716 0.961 . S
C709 H717 0.960 . S
C710 C708 1.381 . S
C710 C711 1.394 . S
C710 H718 0.930 . S
C711 C710 1.394 . S
C711 C712 1.383 . S
C711 H719 0.929 . S
C712 C711 1.383 . S
C712 C713 1.377 . S
C713 H697 0.930 . S
C713 C712 1.377 . S
C713 C714 1.379 . S
C714 H698 0.931 . S
C714 C708 1.383 . S
C714 C713 1.379 . S
H715 C709 0.959 . S
H716 C709 0.961 . S
H717 C709 0.960 . S
H718 C710 0.930 . S
H719 C711 0.929 . S
H720 C728 0.951 . S
H721 C730 0.954 . S
H722 C732 0.930 . S
H723 C735 0.929 . S
H724 C738 0.930 . S
H725 C740 0.960 . S
H726 C740 0.960 . S
H727 C740 0.960 1_554 S
C728 H720 0.951 . S
C728 C729 1.377 . S
C728 C730 1.384 . S
C729 C728 1.377 . S
C729 C735 1.390 . S
C730 H721 0.954 . S
C730 C728 1.384 . S
C730 C731 1.372 . S
C731 C730 1.372 . S
C731 C732 1.400 . S
C731 C736 1.490 . S
C732 H722 0.930 . S
C732 C731 1.400 . S
C732 C735 1.386 . S
H733 C749 0.930 . S
H734 C750 0.931 . S
C735 H723 0.929 . S
C735 C729 1.390 . S
C735 C732 1.386 . S
C736 C731 1.490 . S
C736 C738 1.395 . S
C736 C739 1.403 . S
H737 C743 0.930 . S
C738 H724 0.930 . S
C738 C736 1.395 . S
C738 C741 1.403 . S
C739 C736 1.403 . S
C739 C740 1.524 1_554 S
C739 C743 1.400 . S
C740 H725 0.960 . S
C740 H726 0.960 . S
C740 H727 0.960 1_556 S
C740 C739 1.524 1_556 S
C741 C738 1.403 . S
C741 C742 1.392 . S
C741 C745 1.495 . S
C742 C741 1.392 . S
C742 C743 1.385 . S
C742 C744 1.478 . S
C743 H737 0.930 . S
C743 C739 1.400 . S
C743 C742 1.385 . S
C744 C742 1.478 . S
C744 C746 1.381 . S
C744 C750 1.383 . S
C745 C741 1.495 . S
C745 H751 0.959 . S
C745 H752 0.961 . S
C745 H753 0.960 . S
C746 C744 1.381 . S
C746 C747 1.394 . S
C746 H754 0.952 . S
C747 C746 1.394 . S
C747 C748 1.383 . S
C747 H755 0.910 1_554 S
C748 C747 1.383 . S
C748 C749 1.377 . S
C749 H733 0.930 . S
C749 C748 1.377 . S
C749 C750 1.379 . S
C750 H734 0.931 . S
C750 C744 1.383 . S
C750 C749 1.379 . S
H751 C745 0.959 . S
H752 C745 0.961 . S
H753 C745 0.960 . S
H754 C746 0.952 . S
H755 C747 0.910 1_556 S
H756 C764 0.929 . S
H757 C766 0.930 1_655 S
H758 C768 0.930 . S
H759 C771 0.929 . S
H760 C774 0.929 . S
H761 C776 0.960 . S
H762 C776 0.960 . S
H763 C776 0.960 . S
C764 H756 0.929 . S
C764 C765 1.377 . S
C764 C766 1.384 . S
C765 C764 1.377 . S
C765 C771 1.390 . S
C766 H757 0.930 1_455 S
C766 C764 1.384 . S
C766 C767 1.372 . S
C767 C766 1.372 . S
C767 C768 1.400 . S
C767 C772 1.490 . S
C768 H758 0.930 . S
C768 C767 1.400 . S
C768 C771 1.386 . S
H769 C785 0.930 . S
H770 C786 0.931 1_455 S
C771 H759 0.929 . S
C771 C765 1.390 . S
C771 C768 1.386 . S
C772 C767 1.490 . S
C772 C774 1.395 . S
C772 C775 1.403 . S
H773 C779 0.930 . S
C774 H760 0.929 . S
C774 C772 1.395 . S
C774 C777 1.403 1_455 S
C775 C772 1.403 . S
C775 C776 1.524 . S
C775 C779 1.400 1_455 S
C776 H761 0.960 . S
C776 H762 0.960 . S
C776 H763 0.960 . S
C776 C775 1.524 . S
C777 C774 1.403 1_655 S
C777 C778 1.392 . S
C777 C781 1.495 . S
C778 C777 1.392 . S
C778 C779 1.385 . S
C778 C780 1.478 . S
C779 H773 0.930 . S
C779 C775 1.400 1_655 S
C779 C778 1.385 . S
C780 C778 1.478 . S
C780 C782 1.381 . S
C780 C786 1.383 . S
C781 C777 1.495 . S
C781 H787 0.959 . S
C781 H788 0.961 . S
C781 H789 0.960 . S
C782 C780 1.381 . S
C782 C783 1.394 . S
C782 H790 0.930 . S
C783 C782 1.394 . S
C783 C784 1.383 . S
C783 H791 0.929 . S
C784 C783 1.383 . S
C784 C785 1.377 . S
C785 H769 0.930 . S
C785 C784 1.377 . S
C785 C786 1.379 . S
C786 H770 0.931 1_655 S
C786 C780 1.383 . S
C786 C785 1.379 . S
H787 C781 0.959 . S
H788 C781 0.961 . S
H789 C781 0.960 . S
H790 C782 0.930 . S
H791 C783 0.929 . S
H792 C800 0.929 . S
H793 C802 0.930 1_565 S
H794 C804 0.930 . S
H795 C807 0.929 . S
H796 C810 0.930 . S
H797 C812 0.960 . S
H798 C812 0.960 . S
H799 C812 0.960 . S
C800 H792 0.929 . S
C800 C801 1.377 . S
C800 C802 1.384 . S
C801 C800 1.377 . S
C801 C807 1.390 . S
C802 H793 0.930 1_545 S
C802 C800 1.384 . S
C802 C803 1.372 . S
C803 C802 1.372 . S
C803 C804 1.400 . S
C803 C808 1.490 . S
C804 H794 0.930 . S
C804 C803 1.400 . S
C804 C807 1.386 . S
H805 C821 0.930 . S
H806 C822 0.931 . S
C807 H795 0.929 . S
C807 C801 1.390 . S
C807 C804 1.386 . S
C808 C803 1.490 . S
C808 C810 1.395 1_545 S
C808 C811 1.403 . S
H809 C815 0.930 . S
C810 H796 0.930 . S
C810 C808 1.395 1_565 S
C810 C813 1.403 . S
C811 C808 1.403 . S
C811 C812 1.524 . S
C811 C815 1.400 . S
C812 H797 0.960 . S
C812 H798 0.960 . S
C812 H799 0.960 . S
C812 C811 1.524 . S
C813 C810 1.403 . S
C813 C814 1.392 . S
C813 C817 1.495 . S
C814 C813 1.392 . S
C814 C815 1.385 1_565 S
C814 C816 1.478 . S
C815 H809 0.930 . S
C815 C811 1.400 . S
C815 C814 1.385 1_545 S
C816 C814 1.478 . S
C816 C818 1.381 . S
C816 C822 1.383 . S
C817 C813 1.495 . S
C817 H823 0.959 . S
C817 H824 0.961 . S
C817 H825 0.960 . S
C818 C816 1.381 . S
C818 C819 1.394 . S
C818 H826 0.930 . S
C819 C818 1.394 . S
C819 C820 1.383 . S
C819 H827 0.929 . S
C820 C819 1.383 . S
C820 C821 1.377 . S
C821 H805 0.930 . S
C821 C820 1.377 . S
C821 C822 1.379 . S
C822 H806 0.931 . S
C822 C816 1.383 . S
C822 C821 1.379 . S
H823 C817 0.959 . S
H824 C817 0.961 . S
H825 C817 0.960 . S
H826 C818 0.930 . S
H827 C819 0.929 . S
H828 C836 0.929 . S
H829 C838 0.930 . S
H830 C840 0.930 . S
H831 C843 0.929 . S
H832 C846 0.930 . S
H833 C848 0.960 . S
H834 C848 0.960 . S
H835 C848 0.960 . S
C836 H828 0.929 . S
C836 C837 1.377 . S
C836 C838 1.384 . S
C837 C836 1.377 . S
C837 C843 1.390 . S
C838 H829 0.930 . S
C838 C836 1.384 . S
C838 C839 1.372 . S
C839 C838 1.372 . S
C839 C840 1.400 . S
C839 C844 1.490 . S
C840 H830 0.930 . S
C840 C839 1.400 . S
C840 C843 1.386 . S
H841 C857 0.930 . S
H842 C858 0.931 . S
C843 H831 0.929 . S
C843 C837 1.390 . S
C843 C840 1.386 . S
C844 C839 1.490 . S
C844 C846 1.395 . S
C844 C847 1.403 . S
H845 C851 0.930 . S
C846 H832 0.930 . S
C846 C844 1.395 . S
C846 C849 1.403 . S
C847 C844 1.403 . S
C847 C848 1.524 . S
C847 C851 1.400 . S
C848 H833 0.960 . S
C848 H834 0.960 . S
C848 H835 0.960 . S
C848 C847 1.524 . S
C849 C846 1.403 . S
C849 C850 1.392 . S
C849 C853 1.495 . S
C850 C849 1.392 . S
C850 C851 1.385 . S
C850 C852 1.478 . S
C851 H845 0.930 . S
C851 C847 1.400 . S
C851 C850 1.385 . S
C852 C850 1.478 . S
C852 C854 1.381 . S
C852 C858 1.383 . S
C853 C849 1.495 . S
C853 H859 0.959 . S
C853 H860 0.961 . S
C853 H861 0.960 . S
C854 C852 1.381 . S
C854 C855 1.394 . S
C854 H862 0.930 . S
C855 C854 1.394 . S
C855 C856 1.383 . S
C855 H863 0.929 . S
C856 C855 1.383 . S
C856 C857 1.377 . S
C857 H841 0.930 . S
C857 C856 1.377 . S
C857 C858 1.379 . S
C858 H842 0.931 . S
C858 C852 1.383 . S
C858 C857 1.379 . S
H859 C853 0.959 . S
H860 C853 0.961 . S
H861 C853 0.960 . S
H862 C854 0.930 . S
H863 C855 0.929 . S
H864 C872 0.929 . S
H865 C874 0.930 . S
H866 C876 0.930 . S
H867 C879 0.929 . S
H868 C882 0.930 . S
H869 C884 0.960 . S
H870 C884 0.960 1_554 S
H871 C884 0.960 . S
C872 H864 0.929 . S
C872 C873 1.377 . S
C872 C874 1.384 . S
C873 C872 1.377 . S
C873 C879 1.390 1_554 S
C874 H865 0.930 . S
C874 C872 1.384 . S
C874 C875 1.372 . S
C875 C874 1.372 . S
C875 C876 1.400 1_554 S
C875 C880 1.490 . S
C876 H866 0.930 . S
C876 C875 1.400 1_556 S
C876 C879 1.386 . S
H877 C893 0.930 . S
H878 C894 0.931 . S
C879 H867 0.929 . S
C879 C873 1.390 1_556 S
C879 C876 1.386 . S
C880 C875 1.490 . S
C880 C882 1.395 . S
C880 C883 1.403 1_455 S
H881 C887 0.919 1_556 S
C882 H868 0.930 . S
C882 C880 1.395 . S
C882 C885 1.403 . S
C883 C880 1.403 1_655 S
C883 C884 1.524 1_554 S
C883 C887 1.400 . S
C884 H869 0.960 . S
C884 H870 0.960 1_556 S
C884 H871 0.960 . S
C884 C883 1.524 1_556 S
C885 C882 1.403 . S
C885 C886 1.392 1_455 S
C885 C889 1.495 . S
C886 C885 1.392 1_655 S
C886 C887 1.385 . S
C886 C888 1.478 . S
C887 H881 0.919 1_554 S
C887 C883 1.400 . S
C887 C886 1.385 . S
C888 C886 1.478 . S
C888 C890 1.381 . S
C888 C894 1.383 1_554 S
C889 C885 1.495 . S
C889 H895 0.959 . S
C889 H896 0.961 . S
C889 H897 0.960 . S
C890 C888 1.381 . S
C890 C891 1.394 . S
C890 H898 0.930 . S
C891 C890 1.394 . S
C891 C892 1.383 . S
C891 H899 0.929 . S
C892 C891 1.383 . S
C892 C893 1.377 1_554 S
C893 H877 0.930 . S
C893 C892 1.377 1_556 S
C893 C894 1.379 . S
C894 H878 0.931 . S
C894 C888 1.383 1_556 S
C894 C893 1.379 . S
H895 C889 0.959 . S
H896 C889 0.961 . S
H897 C889 0.960 . S
H898 C890 0.930 . S
H899 C891 0.929 . S
H900 C908 0.929 . S
H901 C910 0.930 . S
H902 C912 0.930 . S
H903 C915 0.929 . S
H904 C918 0.930 . S
H905 C920 0.960 . S
H906 C920 0.960 . S
H907 C920 0.960 . S
C908 H900 0.929 . S
C908 C909 1.377 . S
C908 C910 1.384 . S
C909 C908 1.377 . S
C909 C915 1.390 . S
C910 H901 0.930 . S
C910 C908 1.384 . S
C910 C911 1.372 . S
C911 C910 1.372 . S
C911 C912 1.400 . S
C911 C916 1.490 . S
C912 H902 0.930 . S
C912 C911 1.400 . S
C912 C915 1.386 . S
H913 C929 0.930 . S
H914 C930 0.931 . S
C915 H903 0.929 . S
C915 C909 1.390 . S
C915 C912 1.386 . S
C916 C911 1.490 . S
C916 C918 1.395 1_565 S
C916 C919 1.403 . S
H917 C923 0.930 . S
C918 H904 0.930 . S
C918 C916 1.395 1_545 S
C918 C921 1.403 . S
C919 C916 1.403 . S
C919 C920 1.524 . S
C919 C923 1.400 . S
C920 H905 0.960 . S
C920 H906 0.960 . S
C920 H907 0.960 . S
C920 C919 1.524 . S
C921 C918 1.403 . S
C921 C922 1.392 . S
C921 C925 1.495 . S
C922 C921 1.392 . S
C922 C923 1.385 1_545 S
C922 C924 1.478 . S
C923 H917 0.930 . S
C923 C919 1.400 . S
C923 C922 1.385 1_565 S
C924 C922 1.478 . S
C924 C926 1.381 . S
C924 C930 1.383 . S
C925 C921 1.495 . S
C925 H931 0.959 . S
C925 H932 0.961 . S
C925 H933 0.960 . S
C926 C924 1.381 . S
C926 C927 1.394 . S
C926 H934 0.930 . S
C927 C926 1.394 . S
C927 C928 1.383 . S
C927 H935 0.929 . S
C928 C927 1.383 . S
C928 C929 1.377 . S
C929 H913 0.930 . S
C929 C928 1.377 . S
C929 C930 1.379 . S
C930 H914 0.931 . S
C930 C924 1.383 . S
C930 C929 1.379 . S
H931 C925 0.959 . S
H932 C925 0.961 . S
H933 C925 0.960 . S
H934 C926 0.930 . S
H935 C927 0.929 . S
H936 C944 0.929 . S
H937 C946 0.930 . S
H938 C948 0.930 . S
H939 C951 0.929 . S
H940 C954 0.930 . S
H941 C956 0.960 . S
H942 C956 0.960 . S
H943 C956 0.960 . S
C944 H936 0.929 . S
C944 C945 1.377 . S
C944 C946 1.384 . S
C945 C944 1.377 . S
C945 C951 1.390 . S
C946 H937 0.930 . S
C946 C944 1.384 . S
C946 C947 1.372 . S
C947 C946 1.372 . S
C947 C948 1.400 . S
C947 C952 1.490 . S
C948 H938 0.930 . S
C948 C947 1.400 . S
C948 C951 1.386 . S
H949 C965 0.930 . S
H950 C966 0.931 . S
C951 H939 0.929 . S
C951 C945 1.390 . S
C951 C948 1.386 . S
C952 C947 1.490 . S
C952 C954 1.395 . S
C952 C955 1.403 . S
H953 C959 0.930 . S
C954 H940 0.930 . S
C954 C952 1.395 . S
C954 C957 1.403 . S
C955 C952 1.403 . S
C955 C956 1.524 . S
C955 C959 1.400 . S
C956 H941 0.960 . S
C956 H942 0.960 . S
C956 H943 0.960 . S
C956 C955 1.524 . S
C957 C954 1.403 . S
C957 C958 1.392 . S
C957 C961 1.495 . S
C958 C957 1.392 . S
C958 C959 1.385 . S
C958 C960 1.478 . S
C959 H953 0.930 . S
C959 C955 1.400 . S
C959 C958 1.385 . S
C960 C958 1.478 . S
C960 C962 1.381 . S
C960 C966 1.383 . S
C961 C957 1.495 . S
C961 H967 0.959 . S
C961 H968 0.961 . S
C961 H969 0.960 . S
C962 C960 1.381 . S
C962 C963 1.394 . S
C962 H970 0.930 . S
C963 C962 1.394 . S
C963 C964 1.383 . S
C963 H971 0.929 . S
C964 C963 1.383 . S
C964 C965 1.377 . S
C965 H949 0.930 . S
C965 C964 1.377 . S
C965 C966 1.379 . S
C966 H950 0.931 . S
C966 C960 1.383 . S
C966 C965 1.379 . S
H967 C961 0.959 . S
H968 C961 0.961 . S
H969 C961 0.960 . S
H970 C962 0.930 . S
H971 C963 0.929 . S
H972 C980 0.929 . S
H973 C982 0.924 . S
H974 C984 0.930 . S
H975 C987 0.929 . S
H976 C990 0.930 1_655 S
H977 C992 0.960 . S
H978 C992 0.960 . S
H979 C992 0.960 . S
C980 H972 0.929 . S
C980 C981 1.377 . S
C980 C982 1.392 . S
C981 C980 1.377 . S
C981 C987 1.390 1_655 S
C982 H973 0.924 . S
C982 C980 1.392 . S
C982 C983 1.369 1_655 S
C983 C982 1.369 1_455 S
C983 C984 1.400 . S
C983 C988 1.490 . S
C984 H974 0.930 . S
C984 C983 1.400 . S
C984 C987 1.386 . S
H985 C1001 0.930 . S
H986 C1002 0.931 . S
C987 H975 0.929 . S
C987 C981 1.390 1_455 S
C987 C984 1.386 . S
C988 C983 1.490 . S
C988 C990 1.395 . S
C988 C991 1.403 . S
H989 C995 0.930 . S
C990 H976 0.930 1_455 S
C990 C988 1.395 . S
C990 C993 1.403 . S
C991 C988 1.403 . S
C991 C992 1.524 . S
C991 C995 1.400 . S
C992 H977 0.960 . S
C992 H978 0.960 . S
C992 H979 0.960 . S
C992 C991 1.524 . S
C993 C990 1.403 . S
C993 C994 1.392 . S
C993 C997 1.495 . S
C994 C993 1.392 . S
C994 C995 1.385 . S
C994 C996 1.478 . S
C995 H989 0.930 . S
C995 C991 1.400 . S
C995 C994 1.385 . S
C996 C994 1.478 . S
C996 C998 1.381 . S
C996 C1002 1.383 . S
C997 C993 1.495 . S
C997 H1003 0.959 1_455 S
C997 H1004 0.961 . S
C997 H1005 0.960 . S
C998 C996 1.381 . S
C998 C999 1.394 . S
C998 H1006 0.930 . S
C999 C998 1.394 . S
C999 C1000 1.383 . S
C999 H1007 0.929 . S
C1000 C999 1.383 . S
C1000 C1001 1.377 . S
C1001 H985 0.930 . S
C1001 C1000 1.377 . S
C1001 C1002 1.379 . S
C1002 H986 0.931 . S
C1002 C996 1.383 . S
C1002 C1001 1.379 . S
H1003 C997 0.959 1_655 S
H1004 C997 0.961 . S
H1005 C997 0.960 . S
H1006 C998 0.930 . S
H1007 C999 0.929 . S
H1008 C1016 0.929 . S
H1009 C1018 0.930 . S
H1010 C1020 0.930 . S
H1011 C1023 0.929 . S
H1012 C1026 0.930 1_565 S
H1013 C1028 0.960 . S
H1014 C1028 0.960 . S
H1015 C1028 0.960 . S
C1016 H1008 0.929 . S
C1016 C1017 1.377 . S
C1016 C1018 1.384 . S
C1017 C1016 1.377 . S
C1017 C1023 1.390 1_565 S
C1018 H1009 0.930 . S
C1018 C1016 1.384 . S
C1018 C1019 1.372 1_565 S
C1019 C1018 1.372 1_545 S
C1019 C1020 1.400 . S
C1019 C1024 1.490 . S
C1020 H1010 0.930 . S
C1020 C1019 1.400 . S
C1020 C1023 1.386 . S
H1021 C1037 0.930 . S
H1022 C1038 0.931 . S
C1023 H1011 0.929 . S
C1023 C1017 1.390 1_545 S
C1023 C1020 1.386 . S
C1024 C1019 1.490 . S
C1024 C1026 1.395 . S
C1024 C1027 1.403 . S
H1025 C1031 0.930 . S
C1026 H1012 0.930 1_545 S
C1026 C1024 1.395 . S
C1026 C1029 1.403 . S
C1027 C1024 1.403 . S
C1027 C1028 1.524 . S
C1027 C1031 1.400 . S
C1028 H1013 0.960 . S
C1028 H1014 0.960 . S
C1028 H1015 0.960 . S
C1028 C1027 1.524 . S
C1029 C1026 1.403 . S
C1029 C1030 1.392 . S
C1029 C1033 1.495 . S
C1030 C1029 1.392 . S
C1030 C1031 1.385 . S
C1030 C1032 1.478 . S
C1031 H1025 0.930 . S
C1031 C1027 1.400 . S
C1031 C1030 1.385 . S
C1032 C1030 1.478 . S
C1032 C1034 1.381 . S
C1032 C1038 1.383 . S
C1033 C1029 1.495 . S
C1033 H1039 0.959 1_545 S
C1033 H1040 0.961 . S
C1033 H1041 0.960 . S
C1034 C1032 1.381 . S
C1034 C1035 1.394 . S
C1034 H1042 0.930 . S
C1035 C1034 1.394 . S
C1035 C1036 1.383 . S
C1035 H1043 0.929 . S
C1036 C1035 1.383 . S
C1036 C1037 1.377 . S
C1037 H1021 0.930 . S
C1037 C1036 1.377 . S
C1037 C1038 1.379 . S
C1038 H1022 0.931 . S
C1038 C1032 1.383 . S
C1038 C1037 1.379 . S
H1039 C1033 0.959 1_565 S
H1040 C1033 0.961 . S
H1041 C1033 0.960 . S
H1042 C1034 0.930 . S
H1043 C1035 0.929 . S
H1044 C1052 0.929 . S
H1045 C1054 0.930 . S
H1046 C1056 0.930 . S
H1047 C1059 0.929 . S
H1048 C1062 0.930 . S
H1049 C1064 0.960 . S
H1050 C1064 0.960 . S
H1051 C1064 0.960 . S
C1052 H1044 0.929 . S
C1052 C1053 1.377 . S
C1052 C1054 1.384 . S
C1053 C1052 1.377 . S
C1053 C1059 1.390 . S
C1054 H1045 0.930 . S
C1054 C1052 1.384 . S
C1054 C1055 1.372 . S
C1055 C1054 1.372 . S
C1055 C1056 1.400 . S
C1055 C1060 1.490 . S
C1056 H1046 0.930 . S
C1056 C1055 1.400 . S
C1056 C1059 1.386 . S
H1057 C1073 0.930 . S
H1058 C1074 0.931 . S
C1059 H1047 0.929 . S
C1059 C1053 1.390 . S
C1059 C1056 1.386 . S
C1060 C1055 1.490 . S
C1060 C1062 1.395 . S
C1060 C1063 1.403 . S
H1061 C1067 0.930 . S
C1062 H1048 0.930 . S
C1062 C1060 1.395 . S
C1062 C1065 1.403 . S
C1063 C1060 1.403 . S
C1063 C1064 1.524 . S
C1063 C1067 1.400 . S
C1064 H1049 0.960 . S
C1064 H1050 0.960 . S
C1064 H1051 0.960 . S
C1064 C1063 1.524 . S
C1065 C1062 1.403 . S
C1065 C1066 1.392 . S
C1065 C1069 1.495 . S
C1066 C1065 1.392 . S
C1066 C1067 1.385 . S
C1066 C1068 1.478 . S
C1067 H1061 0.930 . S
C1067 C1063 1.400 . S
C1067 C1066 1.385 . S
C1068 C1066 1.478 . S
C1068 C1070 1.381 . S
C1068 C1074 1.383 . S
C1069 C1065 1.495 . S
C1069 H1075 0.959 . S
C1069 H1076 0.961 . S
C1069 H1077 0.960 . S
C1070 C1068 1.381 . S
C1070 C1071 1.394 . S
C1070 H1078 0.930 . S
C1071 C1070 1.394 . S
C1071 C1072 1.383 . S
C1071 H1079 0.929 . S
C1072 C1071 1.383 . S
C1072 C1073 1.377 . S
C1073 H1057 0.930 . S
C1073 C1072 1.377 . S
C1073 C1074 1.379 . S
C1074 H1058 0.931 . S
C1074 C1068 1.383 . S
C1074 C1073 1.379 . S
H1075 C1069 0.959 . S
H1076 C1069 0.961 . S
H1077 C1069 0.960 . S
H1078 C1070 0.930 . S
H1079 C1071 0.929 . S
H1080 C1088 0.929 . S
H1081 C1090 0.930 . S
H1082 C1092 0.930 . S
H1083 C1095 0.929 . S
H1084 C1098 0.930 . S
H1085 C1100 0.960 . S
H1086 C1100 0.960 . S
H1087 C1100 0.960 . S
C1088 H1080 0.929 . S
C1088 C1089 1.377 . S
C1088 C1090 1.384 1_455 S
C1089 C1088 1.377 . S
C1089 C1095 1.390 . S
C1090 H1081 0.930 . S
C1090 C1088 1.384 1_655 S
C1090 C1091 1.372 . S
C1091 C1090 1.372 . S
C1091 C1092 1.400 . S
C1091 C1096 1.490 . S
C1092 H1082 0.930 . S
C1092 C1091 1.400 . S
C1092 C1095 1.386 1_655 S
H1093 C1109 0.930 . S
H1094 C1110 0.931 . S
C1095 H1083 0.929 . S
C1095 C1089 1.390 . S
C1095 C1092 1.386 1_455 S
C1096 C1091 1.490 . S
C1096 C1098 1.395 . S
C1096 C1099 1.403 . S
H1097 C1103 0.930 . S
C1098 H1084 0.930 . S
C1098 C1096 1.395 . S
C1098 C1101 1.403 . S
C1099 C1096 1.403 . S
C1099 C1100 1.524 1_655 S
C1099 C1103 1.400 . S
C1100 H1085 0.960 . S
C1100 H1086 0.960 . S
C1100 H1087 0.960 . S
C1100 C1099 1.524 1_455 S
C1101 C1098 1.403 . S
C1101 C1102 1.392 . S
C1101 C1105 1.495 . S
C1102 C1101 1.392 . S
C1102 C1103 1.385 . S
C1102 C1104 1.478 . S
C1103 H1097 0.930 . S
C1103 C1099 1.400 . S
C1103 C1102 1.385 . S
C1104 C1102 1.478 . S
C1104 C1106 1.381 . S
C1104 C1110 1.383 . S
C1105 C1101 1.495 . S
C1105 H1111 0.959 . S
C1105 H1112 0.961 . S
C1105 H1113 0.960 . S
C1106 C1104 1.381 . S
C1106 C1107 1.394 . S
C1106 H1114 0.930 . S
C1107 C1106 1.394 . S
C1107 C1108 1.383 . S
C1107 H1115 0.929 . S
C1108 C1107 1.383 . S
C1108 C1109 1.377 . S
C1109 H1093 0.930 . S
C1109 C1108 1.377 . S
C1109 C1110 1.379 . S
C1110 H1094 0.931 . S
C1110 C1104 1.383 . S
C1110 C1109 1.379 . S
H1111 C1105 0.959 . S
H1112 C1105 0.961 . S
H1113 C1105 0.960 . S
H1114 C1106 0.930 . S
H1115 C1107 0.929 . S
H1116 C1124 0.929 . S
H1117 C1126 0.930 . S
H1118 C1128 0.930 . S
H1119 C1131 0.929 . S
H1120 C1134 0.930 . S
H1121 C1136 0.960 . S
H1122 C1136 0.960 . S
H1123 C1136 0.960 . S
C1124 H1116 0.929 . S
C1124 C1125 1.377 . S
C1124 C1126 1.384 . S
C1125 C1124 1.377 . S
C1125 C1131 1.390 1_545 S
C1126 H1117 0.930 . S
C1126 C1124 1.384 . S
C1126 C1127 1.372 1_545 S
C1127 C1126 1.372 1_565 S
C1127 C1128 1.400 . S
C1127 C1132 1.490 . S
C1128 H1118 0.930 . S
C1128 C1127 1.400 . S
C1128 C1131 1.386 . S
H1129 C1145 0.930 . S
H1130 C1146 0.931 . S
C1131 H1119 0.929 . S
C1131 C1125 1.390 1_565 S
C1131 C1128 1.386 . S
C1132 C1127 1.490 . S
C1132 C1134 1.395 . S
C1132 C1135 1.403 . S
H1133 C1139 0.930 . S
C1134 H1120 0.930 . S
C1134 C1132 1.395 . S
C1134 C1137 1.403 . S
C1135 C1132 1.403 . S
C1135 C1136 1.524 . S
C1135 C1139 1.400 . S
C1136 H1121 0.960 . S
C1136 H1122 0.960 . S
C1136 H1123 0.960 . S
C1136 C1135 1.524 . S
C1137 C1134 1.403 . S
C1137 C1138 1.392 . S
C1137 C1141 1.495 . S
C1138 C1137 1.392 . S
C1138 C1139 1.385 . S
C1138 C1140 1.478 . S
C1139 H1133 0.930 . S
C1139 C1135 1.400 . S
C1139 C1138 1.385 . S
C1140 C1138 1.478 . S
C1140 C1142 1.381 . S
C1140 C1146 1.383 . S
C1141 C1137 1.495 . S
C1141 H1147 0.959 . S
C1141 H1148 0.961 . S
C1141 H1149 0.960 . S
C1142 C1140 1.381 . S
C1142 C1143 1.394 . S
C1142 H1150 0.930 . S
C1143 C1142 1.394 . S
C1143 C1144 1.383 . S
C1143 H1151 0.929 . S
C1144 C1143 1.383 . S
C1144 C1145 1.377 . S
C1145 H1129 0.930 . S
C1145 C1144 1.377 . S
C1145 C1146 1.379 . S
C1146 H1130 0.931 . S
C1146 C1140 1.383 . S
C1146 C1145 1.379 . S
H1147 C1141 0.959 . S
H1148 C1141 0.961 . S
H1149 C1141 0.960 . S
H1150 C1142 0.930 . S
H1151 C1143 0.929 . S
C513 C403 1.063 . S
C532 C69 0.863 . S
C549 C487 1.059 . S
C568 C153 0.922 . S
C585 C67 1.066 . S
C604 C237 1.000 . S
C621 C151 1.060 . S
C640 C321 0.982 . S
C657 C235 1.064 . S
C676 C405 0.858 . S
C693 C319 1.062 . S
C712 C489 1.005 . S
C729 C63 1.165 . S
C748 C315 1.187 . S
C765 C399 1.168 . S
C784 C147 1.168 . S
C801 C483 1.162 . S
C820 C231 1.141 . S
C837 C242 1.489 . S
C856 C494 1.487 . S
C873 C74 1.494 . S
C892 C326 1.500 . S
C909 C410 1.488 . S
C928 C158 1.475 . S
C945 C476 0.990 . S
C964 C58 0.939 . S
C981 C142 0.939 . S
C1000 C56 0.968 . S
C1017 C226 0.935 . S
C1036 C140 0.959 . S
C1053 C224 0.994 . S
C1072 C310 1.000 . S
C1089 C394 0.937 . S
C1108 C308 0.994 . S
C1125 C478 0.927 . S
C1144 C392 0.956 . S
