# Generated by pormake.
# Topology sxc, (6)-cn, num edge types: 1
# Building blocks:
#     Node 0, Type 0, BuildingBlock: KUMBUR_clean_sbu_1, # of connection points: 6
#     Node 1, Type 0, BuildingBlock: KUMBUR_clean_sbu_1, # of connection points: 6
#     Node 2, Type 0, BuildingBlock: KUMBUR_clean_sbu_1, # of connection points: 6
#     Edge 3, Type (0, 0), BuildingBlock: FUNLAD_clean_linker_1, # of connection points: 2
#     Edge 4, Type (0, 0), BuildingBlock: FUNLAD_clean_linker_1, # of connection points: 2
#     Edge 5, Type (0, 0), BuildingBlock: FUNLAD_clean_linker_1, # of connection points: 2
#     Edge 6, Type (0, 0), BuildingBlock: FUNLAD_clean_linker_1, # of connection points: 2
#     Edge 7, Type (0, 0), BuildingBlock: FUNLAD_clean_linker_1, # of connection points: 2
#     Edge 8, Type (0, 0), BuildingBlock: FUNLAD_clean_linker_1, # of connection points: 2
#     Edge 9, Type (0, 0), BuildingBlock: FUNLAD_clean_linker_1, # of connection points: 2
#     Edge 10, Type (0, 0), BuildingBlock: FUNLAD_clean_linker_1, # of connection points: 2
#     Edge 11, Type (0, 0), BuildingBlock: FUNLAD_clean_linker_1, # of connection points: 2
# Relax obj value: 0.244
# Max RMSD: 0.157
# Mean RMSD: 0.115
data_MOF--net-sxc--node1-KUMBUR_clean_sbu_1--edge1-FUNLAD_clean_linker_1
_symmetry_space_group_name_H-M    P1
_symmetry_Int_Tables_number       1
_symmetry_cell_setting            triclinic
loop_
_symmetry_equiv_pos_as_xyz
'x, y, z'
_cell_length_a     16.042353
_cell_length_b     17.729871
_cell_length_c     45.79966
_cell_angle_alpha  109.57294
_cell_angle_beta   98.587433
_cell_angle_gamma 97.300454
loop_
_atom_site_label
_atom_site_type_symbol
_atom_site_fract_x
_atom_site_fract_y
_atom_site_fract_z
_atom_type_partial_charge
Tb0 Tb 0.96031 0.17747 1.00479 0.0
C1 C 0.30906 0.10182 0.05845 0.0
N2 N 0.26611 0.16395 0.0692 0.0
C3 C 0.31858 0.17574 0.1228 0.0
C4 C 0.35502 1.0719 0.07958 0.0
C5 C 0.27439 0.20368 0.10102 0.0
C6 C 0.35822 0.10894 0.11203 0.0
C7 C 0.3525 1.00482 0.01438 0.0
C8 C 0.30881 1.0692 0.02611 0.0
C9 C 0.39621 0.97368 0.03533 0.0
C10 C 0.39794 1.00739 0.06782 0.0
Tb11 Tb 0.20748 0.21028 0.03135 0.0
N12 N 0.2651 0.1004 0.00623 0.0
C13 C 0.35189 0.9742 0.98195 0.0
C14 C 0.26844 1.07334 0.97486 0.0
C15 C 0.31044 1.00915 0.9622 0.0
H16 H 0.24898 0.25864 0.10989 0.0
H17 H 0.31241 0.98783 0.93727 0.0
H18 H 0.94214 0.1431 0.92704 0.0
H19 H 0.86365 0.40644 0.09869 0.0
H20 H 0.24276 0.10305 0.95969 0.0
H21 H 0.38477 0.92483 0.97205 0.0
H22 H 0.94229 0.29713 0.07701 0.0
H23 H 0.32353 0.20687 0.14793 0.0
H24 H 0.42945 0.92385 0.02666 0.0
H25 H 0.43336 0.98356 0.08371 0.0
H26 H 0.87171 0.1967 0.889 0.0
H27 H 0.39324 1.088 0.12901 0.0
H28 H 0.7791 0.45925 0.06277 0.0
N29 N 0.91153 0.22887 0.9672 0.0
C30 C 0.86354 0.2873 0.97729 0.0
C31 C 0.87031 0.22384 0.91386 0.0
C32 C 0.81827 0.31695 0.95595 0.0
C33 C 0.91323 0.19548 0.93577 0.0
C34 C 0.82274 0.28487 0.92397 0.0
N35 N 0.90665 0.28978 0.02962 0.0
C36 C 0.90799 0.32071 0.06127 0.0
C37 C 0.81317 0.37993 0.02067 0.0
C38 C 0.86021 0.3181 0.00937 0.0
C39 C 0.81449 0.41175 0.05316 0.0
C40 C 0.86252 0.38236 0.07354 0.0
H41 H 0.78847 0.30573 0.90681 0.0
H42 H 0.73349 0.39979 0.95093 0.0
H43 H 0.72987 0.45537 0.00754 0.0
O44 O 0.84002 0.14813 0.0152 0.0
O45 O 1.02496 0.31159 0.01413 0.0
O46 O 0.17247 0.32425 0.02256 0.0
O47 O 0.86178 0.09564 0.96771 0.0
O48 O 0.99868 0.1722 0.05179 0.0
O49 O 0.1295 0.25662 0.06657 0.0
O50 O 0.33052 0.23793 0.02297 0.0
O51 O 0.14431 1.07701 0.02394 0.0
O52 O 0.99626 1.06036 0.0108 0.0
O53 O 0.29809 0.30491 0.06745 0.0
O54 O 0.16267 0.21077 0.98381 0.0
O55 O 1.03717 0.12028 0.97077 0.0
C56 C 0.10248 0.35768 0.01864 0.0
C57 C 0.73399 1.0366 0.97869 0.0
C58 C 0.64391 0.94221 0.99407 0.0
C59 C 0.58179 0.92499 0.96653 0.0
C60 C 0.67201 1.01777 0.95092 0.0
C61 C 0.59627 0.96204 0.94487 0.0
C62 C 0.72058 0.99773 1.00016 0.0
C63 C 1.06775 0.21306 0.07322 0.0
C64 C 0.80596 0.10373 0.98581 0.0
C65 C 0.76938 0.37695 0.96707 0.0
C66 C 0.76699 0.40842 0.99931 0.0
C67 C 1.06656 1.02884 0.01695 0.0
C68 C 0.42997 0.35725 0.0568 0.0
C69 C 0.51613 0.44767 0.03858 0.0
C70 C 0.58085 0.4672 0.06561 0.0
C71 C 0.49427 0.37854 0.08409 0.0
C72 C 0.44015 0.39285 0.03415 0.0
C73 C 0.56946 0.43339 0.08846 0.0
C74 C 0.09801 0.16005 0.96242 0.0
C75 C 0.35855 0.2913 0.05147 0.0
H76 H 0.52308 0.88102 0.9614 0.0
H77 H 0.68134 1.04783 0.93426 0.0
H78 H 0.5485 0.94798 0.92351 0.0
H79 H 0.76819 1.01158 0.02162 0.0
H80 H 0.6391 0.51067 0.06947 0.0
H81 H 0.48714 0.35107 0.10168 0.0
H82 H 0.3904 0.37715 0.01313 0.0
H83 H 0.6191 0.44939 0.10946 0.0
Tb84 Tb 1.06734 0.11362 0.33262 0.0
C85 C 0.31559 0.41601 0.42591 0.0
N86 N 0.23815 0.38308 0.42958 0.0
C87 C 0.29476 0.41459 0.48458 0.0
C88 C 0.38715 0.44543 0.4513 0.0
C89 C 0.22611 0.38403 0.45851 0.0
C90 C 0.376 0.44397 0.48086 0.0
C91 C 0.40299 0.45139 0.39176 0.0
C92 C 0.32312 0.41868 0.39629 0.0
C93 C 0.47482 0.4792 0.41686 0.0
C94 C 0.46692 0.47633 0.44653 0.0
Tb95 Tb 0.12924 0.3443 0.38671 0.0
N96 N 0.25201 0.39058 0.37226 0.0
C97 C 0.4081 0.45706 0.36238 0.0
C98 C 0.25653 0.40049 0.34409 0.0
C99 C 0.33455 0.43181 0.33851 0.0
H100 H 0.16306 0.36347 0.46172 0.0
H101 H 0.33709 0.43962 0.31619 0.0
H102 H 1.02816 0.10227 0.25882 0.0
H103 H 0.86245 1.01618 0.40371 0.0
H104 H 0.20036 0.39179 0.32662 0.0
H105 H 0.46791 0.48319 0.35819 0.0
H106 H 0.99802 1.06518 0.39291 0.0
H107 H 0.28463 0.4166 0.50762 0.0
H108 H 0.53663 0.5041 0.41367 0.0
H109 H 0.52276 0.49893 0.46574 0.0
H110 H 0.90363 1.05814 0.21394 0.0
H111 H 0.42914 0.467 0.5011 0.0
H112 H 0.73068 0.97259 0.36214 0.0
N113 N 0.95616 1.07697 0.29049 0.0
C114 C 0.87932 1.04326 0.29427 0.0
C115 C 0.89574 1.05433 0.23649 0.0
C116 C 0.80657 1.01629 0.26937 0.0
C117 C 0.96594 1.0804 0.26194 0.0
C118 C 0.8155 1.02258 0.24027 0.0
N119 N 0.94515 1.06667 0.34745 0.0
C120 C 0.94153 1.05644 0.37563 0.0
C121 C 0.79393 1.00578 0.32849 0.0
C122 C 0.8733 1.03897 0.32372 0.0
C123 C 0.79003 0.99913 0.35779 0.0
C124 C 0.8641 1.02446 0.38142 0.0
H125 H 0.76115 1.00246 0.22054 0.0
H126 H 0.67086 0.96328 0.25545 0.0
H127 H 0.65988 0.9536 0.3071 0.0
O128 O 1.04964 0.98949 0.32478 0.0
O129 O 0.96842 0.19035 0.33059 0.0
O130 O 0.98921 0.29285 0.37885 0.0
O131 O 0.12245 1.03631 0.29748 0.0
O132 O 0.11824 0.13923 0.38362 0.0
O133 O 1.07555 0.26037 0.40738 0.0
O134 O 0.14601 0.46804 0.39396 0.0
O135 O 0.22869 0.26813 0.38892 0.0
O136 O 0.20745 0.16495 0.34075 0.0
O137 O 1.07389 0.42191 0.42165 0.0
O138 O 0.07814 0.31756 0.33582 0.0
O139 O 0.12083 0.19671 0.31116 0.0
C140 C 0.93693 0.2369 0.35373 0.0
C141 C 0.17034 0.93587 0.31508 0.0
C142 C 0.24788 0.91468 0.36025 0.0
C143 C 0.26487 0.84148 0.34007 0.0
C144 C 0.1861 0.86255 0.29478 0.0
C145 C 0.23601 0.81679 0.30725 0.0
C146 C 0.20793 0.96465 0.34732 0.0
C147 C 0.10413 0.19568 0.40893 0.0
C148 C 0.10098 0.97389 0.30523 0.0
C149 C 0.72752 0.98429 0.2743 0.0
C150 C 0.72126 0.97896 0.30374 0.0
C151 C 0.25985 0.22083 0.36585 0.0
C152 C 1.02606 0.52246 0.40422 0.0
C153 C 0.9486 0.54422 0.35924 0.0
C154 C 0.93261 0.61785 0.37949 0.0
C155 C 1.01142 0.59622 0.42461 0.0
C156 C 0.9877 0.49369 0.37207 0.0
C157 C 0.96195 0.64248 0.41228 0.0
C158 C 0.09376 0.26288 0.31038 0.0
C159 C 0.09535 0.48412 0.41377 0.0
H160 H 0.29601 0.80179 0.34973 0.0
H161 H 0.15688 0.83911 0.26979 0.0
H162 H 0.24716 0.75942 0.29173 0.0
H163 H 0.19398 1.02027 0.36314 0.0
H164 H 0.90207 0.65796 0.3699 0.0
H165 H 1.04129 0.61961 0.44954 0.0
H166 H 1.00088 0.43768 0.3562 0.0
H167 H 0.9517 0.70021 0.42786 0.0
Tb168 Tb 0.1862 0.23269 0.70597 0.0
C169 C 0.23545 0.90023 0.61391 0.0
N170 N 0.17563 0.94523 0.60936 0.0
C171 C 0.19277 0.91605 0.55574 0.0
C172 C 0.27767 0.86253 0.58959 0.0
C173 C 0.15278 0.95236 0.58061 0.0
C174 C 0.25585 0.87126 0.56028 0.0
C175 C 0.31787 0.84794 0.64907 0.0
C176 C 0.25548 0.89353 0.64339 0.0
C177 C 0.36038 0.8105 0.62495 0.0
C178 C 0.3402 0.81763 0.59528 0.0
Tb179 Tb 0.11391 1.00119 0.65144 0.0
N180 N 0.21392 0.93182 0.66642 0.0
C181 C 0.3349 0.84036 0.67868 0.0
C182 C 0.22643 0.91953 0.69456 0.0
C183 C 0.28812 0.87536 0.70133 0.0
H184 H 0.10182 0.98405 0.57661 0.0
H185 H 0.29838 0.86703 0.72387 0.0
H186 H 0.1905 0.25106 0.78054 0.0
H187 H 0.99768 0.35139 0.62842 0.0
H188 H 0.18765 0.94059 0.7117 0.0
H189 H 0.38226 0.8058 0.68398 0.0
H190 H 0.11249 0.28559 0.64338 0.0
H191 H 0.17435 0.92208 0.53302 0.0
H192 H 0.4086 0.77544 0.62895 0.0
H193 H 0.37337 0.78823 0.57689 0.0
H194 H 0.11149 0.31096 0.82226 0.0
H195 H 0.28678 0.84318 0.54099 0.0
H196 H 0.9075 0.40955 0.66632 0.0
N197 N 0.11605 0.28366 0.74596 0.0
C198 C 1.05449 0.32564 0.73989 0.0
C199 C 0.09413 0.3148 0.7991 0.0
C200 C 1.00912 0.36277 0.76322 0.0
C201 C 0.13761 0.27934 0.77526 0.0
C202 C 1.02932 0.35645 0.79303 0.0
N203 N 0.08097 0.29262 0.68781 0.0
C204 C 1.0702 0.30367 0.65941 0.0
C205 C 0.97165 0.37202 0.70271 0.0
C206 C 1.03582 0.32962 0.70983 0.0
C207 C 0.95611 0.37742 0.6727 0.0
C208 C 1.00641 0.34407 0.65115 0.0
H209 H 0.99589 0.38414 0.81158 0.0
H210 H 0.90983 0.43399 0.77372 0.0
H211 H 0.87692 0.44201 0.7208 0.0
O212 O 0.25216 0.33766 0.70163 0.0
O213 O 1.05398 0.17057 0.70371 0.0
O214 O 1.01315 1.07713 0.6533 0.0
O215 O 0.26891 0.31992 0.74689 0.0
O216 O 0.20314 0.19705 0.6564 0.0
O217 O 0.08985 1.09121 0.62996 0.0
O218 O 1.03261 0.90909 0.65831 0.0
O219 O 0.24991 1.0566 0.65501 0.0
O220 O 0.29459 0.16493 0.7028 0.0
O221 O 1.02728 0.91502 0.61179 0.0
O222 O 0.10523 1.03659 0.70189 0.0
O223 O 0.21621 0.14538 0.72843 0.0
C224 C 0.99292 0.12404 0.67934 0.0
C225 C 0.34588 0.44641 0.7466 0.0
C226 C 0.44653 0.55402 0.74173 0.0
C227 C 0.45908 0.59691 0.77443 0.0
C228 C 0.36062 0.48863 0.77941 0.0
C229 C 0.41628 0.56419 0.79317 0.0
C230 C 0.38757 0.48002 0.72784 0.0
C231 C 0.15169 0.14695 0.6299 0.0
C232 C 0.28697 0.3676 0.73167 0.0
C233 C 0.9452 0.4048 0.75608 0.0
C234 C 0.92629 0.40914 0.72589 0.0
C235 C 0.3116 0.1083 0.67819 0.0
C236 C 0.98423 0.78491 0.61465 0.0
C237 C 0.90346 0.6601 0.61532 0.0
C238 C 0.92035 0.6168 0.5857 0.0
C239 C 0.9996 0.74176 0.58469 0.0
C240 C 0.94027 0.74297 0.63032 0.0
C241 C 0.9692 0.65749 0.57063 0.0
C242 C 0.15823 1.08577 0.72826 0.0
C243 C 0.99893 0.87423 0.62821 0.0
H244 H 0.50407 0.65436 0.78561 0.0
H245 H 0.32858 0.46367 0.7943 0.0
H246 H 0.42727 0.59688 0.81845 0.0
H247 H 0.375 0.44766 0.70247 0.0
H248 H 0.89309 0.55252 0.57373 0.0
H249 H 1.03282 0.77308 0.57188 0.0
H250 H 0.93057 0.77675 0.65371 0.0
H251 H 0.9804 0.6243 0.54744 0.0
H252 H 0.18129 0.47042 0.0154 0.0
C253 C 0.11643 0.45038 0.0175 0.0
H254 H 1.00005 0.49429 0.02327 0.0
H255 H 0.09224 0.88829 0.07511 0.0
H256 H 0.09273 0.86308 0.12406 0.0
H257 H 0.08362 0.72485 0.12514 0.0
H258 H 0.07798 0.60877 0.07766 0.0
C259 C 1.06379 0.51171 0.01954 0.0
C260 C 0.0823 0.60571 0.0192 0.0
C261 C 0.08196 0.67772 0.04628 0.0
C262 C 0.08547 0.76167 0.04552 0.0
C263 C 0.08902 0.82612 0.07414 0.0
C264 C 0.08882 0.81239 0.10234 0.0
C265 C 0.08392 0.7342 0.10297 0.0
C266 C 0.08033 0.66791 0.0755 0.0
H267 H 0.98574 0.91347 0.01744 0.0
C268 C 1.05207 0.93552 0.01753 0.0
H269 H 0.17166 0.89529 0.016 0.0
H270 H 0.08029 0.49927 0.96179 0.0
H271 H 0.08401 0.52459 0.91308 0.0
H272 H 0.09083 0.66274 0.91178 0.0
H273 H 0.0925 0.77847 0.95898 0.0
C274 C 0.10588 0.87578 0.01732 0.0
C275 C 0.08691 0.78147 0.01736 0.0
C276 C 0.08772 0.70948 0.9903 0.0
C277 C 0.08459 0.62556 0.9911 0.0
C278 C 0.08297 0.56132 0.96265 0.0
C279 C 0.08524 0.57517 0.93458 0.0
C280 C 0.08916 0.65327 0.93386 0.0
C281 C 0.09045 0.71935 0.96115 0.0
H282 H 0.39217 0.25667 0.39554 0.0
C283 C 0.35721 0.22641 0.37121 0.0
H284 H 0.37152 0.17827 0.32385 0.0
H285 H 0.75869 0.35198 0.34171 0.0
H286 H 0.68001 0.42406 0.31396 0.0
H287 H 0.52182 0.39986 0.3034 0.0
H288 H 0.44089 0.3048 0.32123 0.0
C289 C 0.40505 0.20339 0.34845 0.0
C290 C 0.50431 0.21741 0.35503 0.0
C291 C 0.55267 0.26973 0.34311 0.0
C292 C 0.64531 0.28164 0.34823 0.0
C293 C 0.68938 0.33849 0.33764 0.0
C294 C 0.64495 0.38063 0.32178 0.0
C295 C 0.55584 0.3671 0.31589 0.0
C296 C 0.51008 0.31242 0.32631 0.0
H297 H 0.80474 0.20115 0.32395 0.0
C298 C 0.83954 0.23102 0.34831 0.0
H299 H 0.82484 0.27801 0.39565 0.0
H300 H 0.43777 0.10464 0.3777 0.0
H301 H 0.5164 1.03212 0.40527 0.0
H302 H 0.67457 1.05595 0.41568 0.0
H303 H 0.75555 0.15112 0.39792 0.0
C304 C 0.79147 0.25334 0.37104 0.0
C305 C 0.6922 0.23913 0.36437 0.0
C306 C 0.64382 0.18664 0.37622 0.0
C307 C 0.55119 0.17483 0.37114 0.0
C308 C 0.50708 0.11797 0.38172 0.0
C309 C 0.55148 1.07559 0.39747 0.0
C310 C 0.64058 1.08892 0.40329 0.0
C311 C 0.68637 0.14368 0.39291 0.0
H312 H 0.83128 0.55517 0.62301 0.0
C313 C 0.84147 0.62093 0.62925 0.0
H314 H 0.79658 0.72917 0.65217 0.0
H315 H 0.44346 0.49876 0.64224 0.0
H316 H 0.41481 0.4946 0.58796 0.0
H317 H 0.52883 0.54939 0.56587 0.0
H318 H 0.67184 0.60983 0.59788 0.0
C319 C 0.79239 0.66437 0.64717 0.0
C320 C 0.72654 0.62615 0.65969 0.0
C321 C 0.64396 0.5898 0.64042 0.0
C322 C 0.57849 0.55819 0.65317 0.0
C323 C 0.49577 0.5235 0.63367 0.0
C324 C 0.47848 0.52058 0.6025 0.0
C325 C 0.54264 0.55161 0.59005 0.0
C326 C 0.62451 0.58599 0.60868 0.0
H327 H 0.52775 0.64928 0.73186 0.0
C328 C 0.50024 0.58451 0.72304 0.0
H329 H 0.50411 0.46809 0.69004 0.0
H330 H 0.8772 0.69778 0.70317 0.0
H331 H 0.90661 0.70291 0.75748 0.0
H332 H 0.79653 0.63827 0.77849 0.0
H333 H 0.65614 0.57073 0.74582 0.0
C334 C 0.52737 0.53347 0.69883 0.0
C335 C 0.59631 0.56355 0.68512 0.0
C336 C 0.67995 0.59793 0.70411 0.0
C337 C 0.74452 0.63154 0.69158 0.0
C338 C 0.82618 0.66994 0.71143 0.0
C339 C 0.844 0.67315 0.74259 0.0
C340 C 0.78196 0.63705 0.75446 0.0
C341 C 0.70111 0.59921 0.73549 0.0
H342 H 0.89369 0.09822 0.70548 0.0
C343 C 0.90189 0.11208 0.6846 0.0
H344 H 0.84153 0.13972 0.64654 0.0
H345 H 0.45036 0.99625 0.63134 0.0
H346 H 0.48108 0.92326 0.58052 0.0
H347 H 0.6289 0.93658 0.57157 0.0
H348 H 0.74738 1.0225 0.61348 0.0
C349 C 0.832 0.12454 0.66705 0.0
C350 C 0.74015 0.11707 0.6735 0.0
C351 C 0.66929 1.06769 0.6487 0.0
C352 C 0.58218 1.06183 0.65362 0.0
C353 C 0.51599 1.0073 0.62867 0.0
C354 C 0.53295 0.9637 0.59939 0.0
C355 C 0.61624 0.97112 0.59435 0.0
C356 C 0.68377 1.02142 0.61866 0.0
H357 H 0.41078 0.12816 0.65111 0.0
C358 C 0.40209 0.11495 0.67208 0.0
H359 H 0.4611 1.08706 0.71025 0.0
H360 H 0.853 0.22763 0.72564 0.0
H361 H 0.82246 0.29917 0.7766 0.0
H362 H 0.67464 0.2862 0.78546 0.0
H363 H 0.55608 0.20163 0.74338 0.0
C364 C 0.47119 0.10123 0.68959 0.0
C365 C 0.56318 0.10762 0.68323 0.0
C366 C 0.63408 0.15665 0.70809 0.0
C367 C 0.72117 0.16247 0.70317 0.0
C368 C 0.78738 0.2165 0.72824 0.0
C369 C 0.77053 0.25937 0.75762 0.0
C370 C 0.68724 0.25211 0.76261 0.0
C371 C 0.61966 0.20254 0.73818 0.0
H372 H 0.56426 0.88983 0.0197 0.0
C373 C 0.62836 0.89663 0.01471 0.0
H374 H 0.73626 0.84153 0.0084 0.0
H375 H 0.49246 0.63286 0.07347 0.0
H376 H 0.55536 0.74315 0.12329 0.0
H377 H 0.654 0.86406 0.12502 0.0
H378 H 0.69 0.87509 0.07663 0.0
C379 C 0.67588 0.84103 0.01651 0.0
C380 C 0.63061 0.76338 0.01673 0.0
C381 C 0.61039 0.75821 0.04507 0.0
C382 C 0.55443 0.68832 0.04405 0.0
C383 C 0.53514 0.68434 0.07278 0.0
C384 C 0.57069 0.74736 0.10159 0.0
C385 C 0.62608 0.81549 0.10255 0.0
C386 C 0.64587 0.82125 0.07466 0.0
H387 H 0.5913 0.49927 0.01154 0.0
C388 C 0.52776 0.4912 0.01697 0.0
H389 H 0.41781 0.54302 0.02337 0.0
H390 H 0.6576 0.75423 0.95784 0.0
H391 H 0.59396 0.64418 0.90802 0.0
H392 H 0.49534 0.52328 0.90636 0.0
H393 H 0.46017 0.51212 0.95484 0.0
C394 C 0.47778 0.54494 0.01502 0.0
C395 C 0.52051 0.62337 0.01469 0.0
C396 C 0.54016 0.62883 0.98633 0.0
C397 C 0.59609 0.69869 0.98734 0.0
C398 C 0.61497 0.70276 0.95857 0.0
C399 C 0.57897 0.63988 0.92975 0.0
C400 C 0.52361 0.57176 0.92883 0.0
C401 C 0.5043 0.56589 0.95675 0.0
H402 H 0.90996 0.47027 0.30825 0.0
C403 C 0.94755 0.52751 0.32541 0.0
H404 H 1.01148 0.54878 0.29138 0.0
H405 H 1.05326 0.92672 0.37709 0.0
H406 H 0.92264 0.9066 0.33758 0.0
H407 H 0.85748 0.77375 0.29803 0.0
H408 H 0.91837 0.65531 0.29667 0.0
C409 C 1.00821 0.56914 0.31626 0.0
C410 C 1.0585 0.65091 0.33759 0.0
C411 C 1.02476 0.72044 0.33733 0.0
C412 C 1.06443 0.79867 0.36007 0.0
C413 C 1.0263 0.86607 0.36006 0.0
C414 C 0.95186 0.85595 0.3379 0.0
C415 C 0.9146 0.7803 0.31527 0.0
C416 C 0.9503 0.71299 0.31484 0.0
H417 H 0.28711 0.98908 0.4112 0.0
C418 C 0.24974 0.93159 0.39415 0.0
H419 H 0.18775 0.90961 0.42851 0.0
H420 H 0.14547 0.53166 0.34265 0.0
H421 H 0.27584 0.55146 0.38219 0.0
H422 H 0.34086 0.68436 0.42193 0.0
H423 H 0.28005 0.80294 0.42329 0.0
C424 C 0.19038 0.88929 0.40356 0.0
C425 C 0.14007 0.80745 0.38231 0.0
C426 C 0.17375 0.73788 0.38261 0.0
C427 C 0.1341 0.65966 0.35984 0.0
C428 C 0.17225 0.59223 0.3598 0.0
C429 C 0.24661 0.60224 0.38198 0.0
C430 C 0.28378 0.67787 0.40467 0.0
C431 C 0.24814 0.74526 0.40511 0.0
H432 H 1.02844 0.3098 0.27574 0.0
C433 C 0.07759 0.27529 0.27956 0.0
H434 H 0.1703 0.21065 0.26096 0.0
H435 H 0.98912 1.08791 0.11698 0.0
H436 H 0.99764 0.96218 0.12606 0.0
H437 H 1.06067 0.96399 0.17893 0.0
H438 H 0.11089 1.09116 0.22308 0.0
C439 C 0.12035 0.2436 0.25634 0.0
C440 C 0.09724 0.24468 0.22332 0.0
C441 C 0.07694 0.1698 0.19685 0.0
C442 C 1.04783 0.16871 0.16567 0.0
C443 C 1.01747 0.09251 0.14061 0.0
C444 C 1.02132 1.01968 0.14555 0.0
C445 C 1.05606 1.02075 0.17533 0.0
C446 C 0.08376 0.09459 0.20068 0.0
H447 H 0.12476 0.17772 0.11245 0.0
C448 C 0.07661 0.20936 0.10553 0.0
H449 H 0.98071 0.2752 0.12092 0.0
H450 H 0.14581 0.4004 0.26712 0.0
H451 H 0.13977 0.52571 0.25747 0.0
H452 H 0.09288 0.52372 0.20341 0.0
H453 H 1.05195 0.39632 0.15865 0.0
C454 C 1.02922 0.24255 0.12679 0.0
C455 C 1.04798 0.24278 0.16009 0.0
C456 C 1.0702 0.31786 0.18636 0.0
C457 C 0.09527 0.31892 0.21785 0.0
C458 C 0.1217 0.39529 0.24308 0.0
C459 C 0.11986 0.46804 0.23781 0.0
C460 C 0.0937 0.46692 0.20736 0.0
C461 C 1.06998 0.39309 0.18185 0.0
H462 H 0.09302 0.2321 0.45877 0.0
C463 C 0.11351 0.18611 0.44021 0.0
H464 H 0.16217 1.07668 0.42923 0.0
H465 H 0.22994 0.27263 0.58726 0.0
H466 H 0.35041 0.35452 0.57947 0.0
H467 H 0.38041 0.32983 0.5261 0.0
H468 H 0.28582 0.22497 0.47988 0.0
C469 C 0.1438 0.1256 0.44727 0.0
C470 C 0.1446 0.12195 0.47963 0.0
C471 C 0.20182 0.18088 0.50654 0.0
C472 C 0.18943 0.18996 0.53771 0.0
C473 C 0.24133 0.25662 0.5635 0.0
C474 C 0.30985 0.30572 0.55925 0.0
C475 C 0.32632 0.29211 0.52918 0.0
C476 C 0.27177 0.23188 0.50293 0.0
H477 H 0.2373 0.15204 0.59689 0.0
C478 C 0.17071 0.14795 0.59928 0.0
H479 H 1.04293 0.13812 0.578 0.0
H480 H 1.03228 0.99544 0.43339 0.0
H481 H 0.9244 0.89846 0.44075 0.0
H482 H 0.90774 0.90691 0.49437 0.0
H483 H 0.99773 1.01235 0.54079 0.0
C484 C 0.10884 0.14217 0.57473 0.0
C485 C 0.12458 0.13437 0.5422 0.0
C486 C 1.07181 1.07092 0.51501 0.0
C487 C 0.08171 1.06516 0.48388 0.0
C488 C 1.02721 1.00246 0.4574 0.0
C489 C 0.96522 0.94621 0.46129 0.0
C490 C 0.95589 0.951 0.49148 0.0
C491 C 1.0082 1.01229 0.51803 0.0
H492 H 1.06863 1.08165 0.76001 0.0
C493 C 0.13611 1.08676 0.7588 0.0
H494 H 0.26235 0.10349 0.78296 0.0
H495 H 0.25072 0.28935 0.92386 0.0
H496 H 0.36448 0.37438 0.91395 0.0
H497 H 0.39181 0.34551 0.86012 0.0
H498 H 0.30702 0.23047 0.81606 0.0
C499 C 0.19549 0.09923 0.78502 0.0
C500 C 0.17496 0.11749 0.81767 0.0
C501 C 0.22371 0.18717 0.84341 0.0
C502 C 0.20539 0.20619 0.87443 0.0
C503 C 0.25874 0.27358 0.89965 0.0
C504 C 0.32504 0.32291 0.89439 0.0
C505 C 0.34059 0.30649 0.86411 0.0
C506 C 0.29113 0.23961 0.83894 0.0
H507 H 0.10668 1.06693 0.91705 0.0
C508 C 0.10691 0.13134 0.92872 0.0
H509 H 0.11422 0.24636 0.92507 0.0
H510 H 0.08231 0.96817 0.77734 0.0
H511 H 0.95752 0.89171 0.78559 0.0
H512 H 0.90718 0.94085 0.83576 0.0
H513 H 0.98402 1.06409 0.87848 0.0
C514 C 0.11573 0.18257 0.91275 0.0
C515 C 0.13527 0.15845 0.87986 0.0
C516 C 0.08442 1.09063 0.85386 0.0
C517 C 0.10765 1.06728 0.8235 0.0
C518 C 1.06282 0.99296 0.79968 0.0
C519 C 0.99173 0.94777 0.80428 0.0
C520 C 0.96382 0.97505 0.83261 0.0
C521 C 1.00933 1.04551 0.85716 0.0
loop_
_geom_bond_atom_site_label_1
_geom_bond_atom_site_label_2
_geom_bond_distance
_geom_bond_site_symmetry_2
_ccdc_geom_bond_type
Tb0 N29 2.617 . S
Tb0 N35 2.572 1_556 S
Tb0 O44 2.465 1_546 S
Tb0 O45 2.387 1_556 S
Tb0 O47 2.428 1_545 S
Tb0 O48 2.308 1_556 S
Tb0 O52 2.354 1_545 S
Tb0 O55 2.393 . S
Tb0 C64 2.802 1_545 S
C1 N2 1.379 . S
C1 C4 1.416 . S
C1 C8 1.424 . S
N2 C1 1.379 . S
N2 C5 1.334 . S
N2 Tb11 2.617 . S
C3 C5 1.390 . S
C3 C6 1.339 . S
C3 H23 0.930 . S
C4 C1 1.416 . S
C4 C6 1.416 . S
C4 C10 1.448 . S
C5 N2 1.334 . S
C5 C3 1.390 . S
C5 H16 0.930 . S
C6 C3 1.339 . S
C6 C4 1.416 . S
C6 H27 0.930 . S
C7 C8 1.413 . S
C7 C9 1.427 . S
C7 C13 1.416 1_554 S
C8 C1 1.424 . S
C8 C7 1.413 . S
C8 N12 1.361 . S
C9 C7 1.427 . S
C9 C10 1.328 . S
C9 H24 0.929 1_545 S
C10 C4 1.448 . S
C10 C9 1.328 . S
C10 H25 0.930 . S
Tb11 N2 2.617 . S
Tb11 N12 2.572 . S
Tb11 O46 2.349 . S
Tb11 O49 2.393 . S
Tb11 O50 2.465 . S
Tb11 O51 2.387 . S
Tb11 O53 2.428 . S
Tb11 O54 2.308 1_554 S
Tb11 C75 2.802 . S
N12 C8 1.361 . S
N12 Tb11 2.572 . S
N12 C14 1.340 1_554 S
C13 C7 1.416 1_556 S
C13 C15 1.332 . S
C13 H21 0.931 1_545 S
C14 N12 1.340 1_556 S
C14 C15 1.407 . S
C14 H20 0.930 . S
C15 C13 1.332 . S
C15 C14 1.407 . S
C15 H17 0.929 . S
H16 C5 0.930 . S
H17 C15 0.929 . S
H18 C33 0.930 . S
H19 C40 0.929 . S
H20 C14 0.930 . S
H21 C13 0.931 1_565 S
H22 C36 0.930 . S
H23 C3 0.930 . S
H24 C9 0.929 1_565 S
H25 C10 0.930 . S
H26 C31 0.930 . S
H27 C6 0.930 . S
H28 C39 0.931 . S
N29 Tb0 2.617 . S
N29 C30 1.379 . S
N29 C33 1.334 . S
C30 N29 1.379 . S
C30 C32 1.416 . S
C30 C38 1.424 . S
C31 H26 0.930 . S
C31 C33 1.390 . S
C31 C34 1.339 . S
C32 C30 1.416 . S
C32 C34 1.416 . S
C32 C65 1.448 . S
C33 H18 0.930 . S
C33 N29 1.334 . S
C33 C31 1.390 . S
C34 C31 1.339 . S
C34 C32 1.416 . S
C34 H41 0.930 . S
N35 Tb0 2.572 1_554 S
N35 C36 1.340 . S
N35 C38 1.361 1_554 S
C36 H22 0.930 . S
C36 N35 1.340 . S
C36 C40 1.407 . S
C37 C38 1.413 1_554 S
C37 C39 1.416 . S
C37 C66 1.427 1_554 S
C38 C30 1.424 . S
C38 N35 1.361 1_556 S
C38 C37 1.413 1_556 S
C39 H28 0.931 . S
C39 C37 1.416 . S
C39 C40 1.332 . S
C40 H19 0.929 . S
C40 C36 1.407 . S
C40 C39 1.332 . S
H41 C34 0.930 . S
H42 C65 0.930 . S
H43 C66 0.929 . S
O44 Tb0 2.465 1_564 S
O44 C64 1.264 1_554 S
O45 Tb0 2.387 1_554 S
O45 C56 1.264 . S
O46 Tb11 2.349 . S
O46 C56 1.243 1_455 S
O47 Tb0 2.428 1_565 S
O47 C64 1.256 . S
O48 Tb0 2.308 1_554 S
O48 C63 1.271 . S
O49 Tb11 2.393 . S
O49 C63 1.241 1_455 S
O50 Tb11 2.465 . S
O50 C75 1.264 . S
O51 Tb11 2.387 . S
O51 C67 1.264 1_545 S
O52 Tb0 2.354 1_565 S
O52 C67 1.239 1_656 S
O53 Tb11 2.428 . S
O53 C75 1.256 . S
O54 Tb11 2.308 1_556 S
O54 C74 1.266 . S
O55 Tb0 2.393 . S
O55 C74 1.248 1_655 S
C56 O45 1.264 . S
C56 O46 1.243 1_655 S
C57 C60 1.399 . S
C57 C62 1.383 1_556 S
C57 C64 1.496 . S
C58 C59 1.399 1_554 S
C58 C62 1.389 . S
C59 C58 1.399 1_556 S
C59 C61 1.380 . S
C59 H76 0.929 . S
C60 C57 1.399 . S
C60 C61 1.392 . S
C60 H77 0.929 . S
C61 C59 1.380 . S
C61 C60 1.392 . S
C61 H78 0.929 . S
C62 C57 1.383 1_554 S
C62 C58 1.389 . S
C62 H79 0.931 . S
C63 O48 1.271 . S
C63 O49 1.241 1_655 S
C64 Tb0 2.802 1_565 S
C64 O44 1.264 1_556 S
C64 O47 1.256 . S
C64 C57 1.496 . S
C65 C32 1.448 . S
C65 H42 0.930 . S
C65 C66 1.328 . S
C66 C37 1.427 1_556 S
C66 H43 0.929 . S
C66 C65 1.328 . S
C67 O51 1.264 1_565 S
C67 O52 1.239 1_454 S
C68 C71 1.399 . S
C68 C72 1.383 . S
C68 C75 1.496 . S
C69 C70 1.399 . S
C69 C72 1.389 . S
C70 C69 1.399 . S
C70 C73 1.380 . S
C70 H80 0.929 . S
C71 C68 1.399 . S
C71 C73 1.392 . S
C71 H81 0.929 . S
C72 C68 1.383 . S
C72 C69 1.389 . S
C72 H82 0.931 1_554 S
C73 C70 1.380 . S
C73 C71 1.392 . S
C73 H83 0.929 . S
C74 O54 1.266 . S
C74 O55 1.248 1_455 S
C75 Tb11 2.802 . S
C75 O50 1.264 . S
C75 O53 1.256 . S
C75 C68 1.496 . S
H76 C59 0.929 . S
H77 C60 0.929 . S
H78 C61 0.929 . S
H79 C62 0.931 . S
H80 C70 0.929 . S
H81 C71 0.929 . S
H82 C72 0.931 1_556 S
H83 C73 0.929 . S
Tb84 N113 2.617 1_545 S
Tb84 N119 2.572 1_545 S
Tb84 O128 2.465 1_645 S
Tb84 O129 2.387 . S
Tb84 O131 2.428 1_645 S
Tb84 O132 2.307 . S
Tb84 O136 2.349 1_655 S
Tb84 O139 2.393 1_655 S
Tb84 C148 2.802 1_645 S
C85 N86 1.379 . S
C85 C88 1.416 . S
C85 C92 1.424 . S
N86 C85 1.379 . S
N86 C89 1.334 . S
N86 Tb95 2.617 . S
C87 C89 1.390 . S
C87 C90 1.339 . S
C87 H107 0.930 . S
C88 C85 1.416 . S
C88 C90 1.416 . S
C88 C94 1.448 . S
C89 N86 1.334 . S
C89 C87 1.390 . S
C89 H100 0.930 . S
C90 C87 1.339 . S
C90 C88 1.416 . S
C90 H111 0.930 . S
C91 C92 1.413 . S
C91 C93 1.427 . S
C91 C97 1.416 . S
C92 C85 1.424 . S
C92 C91 1.413 . S
C92 N96 1.361 . S
C93 C91 1.427 . S
C93 C94 1.328 . S
C93 H108 0.929 . S
C94 C88 1.448 . S
C94 C93 1.328 . S
C94 H109 0.930 . S
Tb95 N86 2.617 . S
Tb95 N96 2.572 . S
Tb95 O130 2.349 1_455 S
Tb95 O133 2.393 . S
Tb95 O134 2.465 . S
Tb95 O135 2.387 . S
Tb95 O137 2.428 . S
Tb95 O138 2.308 . S
Tb95 C159 2.802 . S
N96 C92 1.361 . S
N96 Tb95 2.572 . S
N96 C98 1.340 . S
C97 C91 1.416 . S
C97 C99 1.332 . S
C97 H105 0.931 . S
C98 N96 1.340 . S
C98 C99 1.407 . S
C98 H104 0.930 . S
C99 C97 1.332 . S
C99 C98 1.407 . S
C99 H101 0.929 . S
H100 C89 0.930 . S
H101 C99 0.929 . S
H102 C117 0.930 . S
H103 C124 0.929 . S
H104 C98 0.930 . S
H105 C97 0.931 . S
H106 C120 0.930 . S
H107 C87 0.930 . S
H108 C93 0.929 . S
H109 C94 0.930 . S
H110 C115 0.930 . S
H111 C90 0.930 . S
H112 C123 0.931 . S
N113 Tb84 2.617 1_565 S
N113 C114 1.379 . S
N113 C117 1.334 . S
C114 N113 1.379 . S
C114 C116 1.416 . S
C114 C122 1.424 . S
C115 H110 0.930 . S
C115 C117 1.390 . S
C115 C118 1.339 . S
C116 C114 1.416 . S
C116 C118 1.416 . S
C116 C149 1.448 . S
C117 H102 0.930 . S
C117 N113 1.334 . S
C117 C115 1.390 . S
C118 C115 1.339 . S
C118 C116 1.416 . S
C118 H125 0.930 . S
N119 Tb84 2.572 1_565 S
N119 C120 1.340 . S
N119 C122 1.361 . S
C120 H106 0.930 . S
C120 N119 1.340 . S
C120 C124 1.407 . S
C121 C122 1.413 . S
C121 C123 1.416 . S
C121 C150 1.427 . S
C122 C114 1.424 . S
C122 N119 1.361 . S
C122 C121 1.413 . S
C123 H112 0.931 . S
C123 C121 1.416 . S
C123 C124 1.332 . S
C124 H103 0.929 . S
C124 C120 1.407 . S
C124 C123 1.332 . S
H125 C118 0.930 . S
H126 C149 0.930 . S
H127 C150 0.929 . S
O128 Tb84 2.465 1_465 S
O128 C148 1.264 . S
O129 Tb84 2.387 . S
O129 C140 1.264 . S
O130 Tb95 2.349 1_655 S
O130 C140 1.243 . S
O131 Tb84 2.428 1_465 S
O131 C148 1.256 . S
O132 Tb84 2.307 . S
O132 C147 1.265 1_655 S
O133 Tb95 2.393 . S
O133 C147 1.248 . S
O134 Tb95 2.465 . S
O134 C159 1.264 . S
O135 Tb95 2.387 . S
O135 C151 1.264 . S
O136 Tb84 2.349 1_455 S
O136 C151 1.243 . S
O137 Tb95 2.428 . S
O137 C159 1.256 . S
O138 Tb95 2.308 . S
O138 C158 1.266 . S
O139 Tb84 2.393 1_455 S
O139 C158 1.248 . S
C140 O129 1.264 . S
C140 O130 1.243 . S
C141 C144 1.399 . S
C141 C146 1.383 . S
C141 C148 1.496 . S
C142 C143 1.399 . S
C142 C146 1.389 . S
C143 C142 1.399 . S
C143 C145 1.380 . S
C143 H160 0.929 . S
C144 C141 1.399 . S
C144 C145 1.392 . S
C144 H161 0.929 . S
C145 C143 1.380 . S
C145 C144 1.392 . S
C145 H162 0.929 . S
C146 C141 1.383 . S
C146 C142 1.389 . S
C146 H163 0.931 . S
C147 O132 1.265 1_455 S
C147 O133 1.248 . S
C148 Tb84 2.802 1_465 S
C148 O128 1.264 . S
C148 O131 1.256 . S
C148 C141 1.496 . S
C149 C116 1.448 . S
C149 H126 0.930 . S
C149 C150 1.328 . S
C150 C121 1.427 . S
C150 H127 0.929 . S
C150 C149 1.328 . S
C151 O135 1.264 . S
C151 O136 1.243 . S
C152 C155 1.399 . S
C152 C156 1.383 1_455 S
C152 C159 1.496 . S
C153 C154 1.399 . S
C153 C156 1.389 . S
C154 C153 1.399 . S
C154 C157 1.380 1_655 S
C154 H164 0.929 . S
C155 C152 1.399 . S
C155 C157 1.392 . S
C155 H165 0.929 . S
C156 C152 1.383 1_655 S
C156 C153 1.389 . S
C156 H166 0.931 . S
C157 C154 1.380 1_455 S
C157 C155 1.392 . S
C157 H167 0.929 . S
C158 O138 1.266 . S
C158 O139 1.248 . S
C159 Tb95 2.802 . S
C159 O134 1.264 . S
C159 O137 1.256 . S
C159 C152 1.496 . S
H160 C143 0.929 . S
H161 C144 0.929 . S
H162 C145 0.929 . S
H163 C146 0.931 . S
H164 C154 0.929 . S
H165 C155 0.929 . S
H166 C156 0.931 . S
H167 C157 0.929 . S
Tb168 N197 2.617 . S
Tb168 N203 2.572 . S
Tb168 O212 2.465 . S
Tb168 O213 2.387 1_455 S
Tb168 O215 2.428 . S
Tb168 O216 2.308 . S
Tb168 O220 2.349 . S
Tb168 O223 2.393 . S
Tb168 C232 2.802 . S
C169 N170 1.379 . S
C169 C172 1.416 . S
C169 C176 1.424 . S
N170 C169 1.379 . S
N170 C173 1.334 . S
N170 Tb179 2.617 . S
C171 C173 1.390 . S
C171 C174 1.339 . S
C171 H191 0.930 . S
C172 C169 1.416 . S
C172 C174 1.416 . S
C172 C178 1.448 . S
C173 N170 1.334 . S
C173 C171 1.390 . S
C173 H184 0.930 . S
C174 C171 1.339 . S
C174 C172 1.416 . S
C174 H195 0.930 . S
C175 C176 1.413 . S
C175 C177 1.427 . S
C175 C181 1.416 . S
C176 C169 1.424 . S
C176 C175 1.413 . S
C176 N180 1.361 . S
C177 C175 1.427 . S
C177 C178 1.328 . S
C177 H192 0.929 . S
C178 C172 1.448 . S
C178 C177 1.328 . S
C178 H193 0.930 . S
Tb179 N170 2.617 . S
Tb179 N180 2.572 . S
Tb179 O214 2.349 1_455 S
Tb179 O217 2.393 . S
Tb179 O218 2.465 1_455 S
Tb179 O219 2.387 . S
Tb179 O221 2.428 1_455 S
Tb179 O222 2.308 . S
Tb179 C243 2.802 1_455 S
N180 C176 1.361 . S
N180 Tb179 2.572 . S
N180 C182 1.340 . S
C181 C175 1.416 . S
C181 C183 1.332 . S
C181 H189 0.931 . S
C182 N180 1.340 . S
C182 C183 1.407 . S
C182 H188 0.930 . S
C183 C181 1.332 . S
C183 C182 1.407 . S
C183 H185 0.929 . S
H184 C173 0.930 . S
H185 C183 0.929 . S
H186 C201 0.930 . S
H187 C208 0.929 . S
H188 C182 0.930 . S
H189 C181 0.931 . S
H190 C204 0.930 . S
H191 C171 0.930 . S
H192 C177 0.929 . S
H193 C178 0.930 . S
H194 C199 0.930 . S
H195 C174 0.930 . S
H196 C207 0.931 . S
N197 Tb168 2.617 . S
N197 C198 1.379 . S
N197 C201 1.334 . S
C198 N197 1.379 . S
C198 C200 1.416 . S
C198 C206 1.424 . S
C199 H194 0.930 . S
C199 C201 1.390 . S
C199 C202 1.339 . S
C200 C198 1.416 . S
C200 C202 1.416 . S
C200 C233 1.448 1_455 S
C201 H186 0.930 . S
C201 N197 1.334 . S
C201 C199 1.390 . S
C202 C199 1.339 . S
C202 C200 1.416 . S
C202 H209 0.930 . S
N203 Tb168 2.572 . S
N203 C204 1.340 . S
N203 C206 1.361 . S
C204 H190 0.930 . S
C204 N203 1.340 . S
C204 C208 1.407 1_455 S
C205 C206 1.413 1_655 S
C205 C207 1.416 . S
C205 C234 1.427 . S
C206 C198 1.424 . S
C206 N203 1.361 . S
C206 C205 1.413 1_455 S
C207 H196 0.931 . S
C207 C205 1.416 . S
C207 C208 1.332 . S
C208 H187 0.929 . S
C208 C204 1.407 1_655 S
C208 C207 1.332 . S
H209 C202 0.930 . S
H210 C233 0.930 . S
H211 C234 0.929 . S
O212 Tb168 2.465 . S
O212 C232 1.264 . S
O213 Tb168 2.387 1_655 S
O213 C224 1.264 . S
O214 Tb179 2.349 1_655 S
O214 C224 1.243 1_565 S
O215 Tb168 2.428 . S
O215 C232 1.256 . S
O216 Tb168 2.308 . S
O216 C231 1.266 . S
O217 Tb179 2.393 . S
O217 C231 1.248 1_565 S
O218 Tb179 2.465 1_655 S
O218 C243 1.264 . S
O219 Tb179 2.387 . S
O219 C235 1.264 1_565 S
O220 Tb168 2.349 . S
O220 C235 1.243 . S
O221 Tb179 2.428 1_655 S
O221 C243 1.256 . S
O222 Tb179 2.308 . S
O222 C242 1.266 1_565 S
O223 Tb168 2.393 . S
O223 C242 1.248 . S
C224 O213 1.264 . S
C224 O214 1.243 1_545 S
C225 C228 1.399 . S
C225 C230 1.383 . S
C225 C232 1.496 . S
C226 C227 1.399 . S
C226 C230 1.389 . S
C227 C226 1.399 . S
C227 C229 1.380 . S
C227 H244 0.929 . S
C228 C225 1.399 . S
C228 C229 1.392 . S
C228 H245 0.929 . S
C229 C227 1.380 . S
C229 C228 1.392 . S
C229 H246 0.929 . S
C230 C225 1.383 . S
C230 C226 1.389 . S
C230 H247 0.931 . S
C231 O216 1.266 . S
C231 O217 1.248 1_545 S
C232 Tb168 2.802 . S
C232 O212 1.264 . S
C232 O215 1.256 . S
C232 C225 1.496 . S
C233 C200 1.448 1_655 S
C233 H210 0.930 . S
C233 C234 1.328 . S
C234 C205 1.427 . S
C234 H211 0.929 . S
C234 C233 1.328 . S
C235 O219 1.264 1_545 S
C235 O220 1.243 . S
C236 C239 1.399 . S
C236 C240 1.383 . S
C236 C243 1.496 . S
C237 C238 1.399 . S
C237 C240 1.389 . S
C238 C237 1.399 . S
C238 C241 1.380 . S
C238 H248 0.929 . S
C239 C236 1.399 . S
C239 C241 1.392 . S
C239 H249 0.929 . S
C240 C236 1.383 . S
C240 C237 1.389 . S
C240 H250 0.931 . S
C241 C238 1.380 . S
C241 C239 1.392 . S
C241 H251 0.929 . S
C242 O222 1.266 1_545 S
C242 O223 1.248 . S
C243 Tb179 2.802 1_655 S
C243 O218 1.264 . S
C243 O221 1.256 . S
C243 C236 1.496 . S
H244 C227 0.929 . S
H245 C228 0.929 . S
H246 C229 0.929 . S
H247 C230 0.931 . S
H248 C238 0.929 . S
H249 C239 0.929 . S
H250 C240 0.931 . S
H251 C241 0.929 . S
H252 C253 0.940 1_455 S
C253 H252 0.940 1_655 S
C253 C259 1.274 . S
H254 C259 0.950 . S
H255 C263 0.949 . S
H256 C264 0.950 . S
H257 C265 0.951 . S
H258 C266 0.951 1_655 S
C259 C253 1.274 . S
C259 H254 0.950 . S
C259 C260 1.478 . S
C260 C259 1.478 . S
C260 C261 1.397 1_655 S
C260 C277 1.394 1_554 S
C261 C260 1.397 1_455 S
C261 C262 1.438 . S
C261 C266 1.429 . S
C262 C261 1.438 . S
C262 C263 1.428 . S
C262 C275 1.394 . S
C263 H255 0.949 . S
C263 C262 1.428 . S
C263 C264 1.345 . S
C264 H256 0.950 . S
C264 C263 1.345 . S
C264 C265 1.424 . S
C265 H257 0.951 . S
C265 C264 1.424 . S
C265 C266 1.347 . S
C266 H258 0.951 1_455 S
C266 C261 1.429 . S
C266 C265 1.347 . S
H267 C268 0.951 1_655 S
C268 H267 0.951 1_455 S
C268 C274 1.265 . S
H269 C274 0.950 1_556 S
H270 C278 0.949 . S
H271 C279 0.950 . S
H272 C280 0.951 . S
H273 C281 0.951 . S
C274 C268 1.265 . S
C274 H269 0.950 1_554 S
C274 C275 1.478 . S
C275 C262 1.394 . S
C275 C274 1.478 . S
C275 C276 1.397 1_554 S
C276 C275 1.397 1_556 S
C276 C277 1.438 1_455 S
C276 C281 1.429 . S
C277 C260 1.394 1_556 S
C277 C276 1.438 1_655 S
C277 C278 1.428 . S
C278 H270 0.949 . S
C278 C277 1.428 . S
C278 C279 1.345 . S
C279 H271 0.950 . S
C279 C278 1.345 . S
C279 C280 1.424 . S
C280 H272 0.951 . S
C280 C279 1.424 . S
C280 C281 1.347 1_655 S
C281 H273 0.951 . S
C281 C276 1.429 . S
C281 C280 1.347 1_455 S
H282 C283 0.951 . S
C283 H282 0.951 . S
C283 C289 1.265 . S
H284 C289 0.950 . S
H285 C293 0.949 . S
H286 C294 0.950 . S
H287 C295 0.951 . S
H288 C296 0.951 . S
C289 C283 1.265 . S
C289 H284 0.950 . S
C289 C290 1.478 . S
C290 C289 1.478 . S
C290 C291 1.397 . S
C290 C307 1.394 . S
C291 C290 1.397 . S
C291 C292 1.438 . S
C291 C296 1.429 . S
C292 C291 1.438 . S
C292 C293 1.428 . S
C292 C305 1.394 . S
C293 H285 0.949 . S
C293 C292 1.428 . S
C293 C294 1.345 . S
C294 H286 0.950 . S
C294 C293 1.345 . S
C294 C295 1.424 . S
C295 H287 0.951 . S
C295 C294 1.424 . S
C295 C296 1.347 . S
C296 H288 0.951 . S
C296 C291 1.429 . S
C296 C295 1.347 . S
H297 C298 0.951 . S
C298 H297 0.951 . S
C298 C304 1.265 . S
H299 C304 0.950 . S
H300 C308 0.949 . S
H301 C309 0.950 . S
H302 C310 0.951 . S
H303 C311 0.951 . S
C304 C298 1.265 . S
C304 H299 0.950 . S
C304 C305 1.478 . S
C305 C292 1.394 . S
C305 C304 1.478 . S
C305 C306 1.397 . S
C306 C305 1.397 . S
C306 C307 1.438 . S
C306 C311 1.429 . S
C307 C290 1.394 . S
C307 C306 1.438 . S
C307 C308 1.428 . S
C308 H300 0.949 . S
C308 C307 1.428 . S
C308 C309 1.345 1_545 S
C309 H301 0.950 . S
C309 C308 1.345 1_565 S
C309 C310 1.424 . S
C310 H302 0.951 . S
C310 C309 1.424 . S
C310 C311 1.347 1_565 S
C311 H303 0.951 . S
C311 C306 1.429 . S
C311 C310 1.347 1_545 S
H312 C313 0.951 . S
C313 H312 0.951 . S
C313 C319 1.265 . S
H314 C319 0.950 . S
H315 C323 0.949 . S
H316 C324 0.950 . S
H317 C325 0.951 . S
H318 C326 0.951 . S
C319 C313 1.265 . S
C319 H314 0.950 . S
C319 C320 1.478 . S
C320 C319 1.478 . S
C320 C321 1.397 . S
C320 C337 1.394 . S
C321 C320 1.397 . S
C321 C322 1.438 . S
C321 C326 1.429 . S
C322 C321 1.438 . S
C322 C323 1.428 . S
C322 C335 1.394 . S
C323 H315 0.949 . S
C323 C322 1.428 . S
C323 C324 1.345 . S
C324 H316 0.950 . S
C324 C323 1.345 . S
C324 C325 1.424 . S
C325 H317 0.951 . S
C325 C324 1.424 . S
C325 C326 1.347 . S
C326 H318 0.951 . S
C326 C321 1.429 . S
C326 C325 1.347 . S
H327 C328 0.951 . S
C328 H327 0.951 . S
C328 C334 1.265 . S
H329 C334 0.950 . S
H330 C338 0.949 . S
H331 C339 0.950 . S
H332 C340 0.951 . S
H333 C341 0.951 . S
C334 C328 1.265 . S
C334 H329 0.950 . S
C334 C335 1.478 . S
C335 C322 1.394 . S
C335 C334 1.478 . S
C335 C336 1.397 . S
C336 C335 1.397 . S
C336 C337 1.438 . S
C336 C341 1.429 . S
C337 C320 1.394 . S
C337 C336 1.438 . S
C337 C338 1.428 . S
C338 H330 0.949 . S
C338 C337 1.428 . S
C338 C339 1.345 . S
C339 H331 0.950 . S
C339 C338 1.345 . S
C339 C340 1.424 . S
C340 H332 0.951 . S
C340 C339 1.424 . S
C340 C341 1.347 . S
C341 H333 0.951 . S
C341 C336 1.429 . S
C341 C340 1.347 . S
H342 C343 0.951 1_565 S
C343 H342 0.951 1_545 S
C343 C349 1.265 . S
H344 C349 0.950 . S
H345 C353 0.949 . S
H346 C354 0.950 . S
H347 C355 0.951 . S
H348 C356 0.951 . S
C349 C343 1.265 . S
C349 H344 0.950 . S
C349 C350 1.478 . S
C350 C349 1.478 . S
C350 C351 1.397 1_545 S
C350 C367 1.394 . S
C351 C350 1.397 1_565 S
C351 C352 1.438 . S
C351 C356 1.429 . S
C352 C351 1.438 . S
C352 C353 1.428 . S
C352 C365 1.394 1_565 S
C353 H345 0.949 . S
C353 C352 1.428 . S
C353 C354 1.345 . S
C354 H346 0.950 . S
C354 C353 1.345 . S
C354 C355 1.424 . S
C355 H347 0.951 . S
C355 C354 1.424 . S
C355 C356 1.347 . S
C356 H348 0.951 . S
C356 C351 1.429 . S
C356 C355 1.347 . S
H357 C358 0.951 . S
C358 H357 0.951 . S
C358 C364 1.265 1_545 S
H359 C364 0.950 . S
H360 C368 0.949 . S
H361 C369 0.950 . S
H362 C370 0.951 . S
H363 C371 0.951 . S
C364 C358 1.265 1_565 S
C364 H359 0.950 . S
C364 C365 1.478 1_565 S
C365 C352 1.394 1_545 S
C365 C364 1.478 1_545 S
C365 C366 1.397 . S
C366 C365 1.397 . S
C366 C367 1.438 . S
C366 C371 1.429 . S
C367 C350 1.394 . S
C367 C366 1.438 . S
C367 C368 1.428 . S
C368 H360 0.949 . S
C368 C367 1.428 . S
C368 C369 1.345 . S
C369 H361 0.950 . S
C369 C368 1.345 . S
C369 C370 1.424 . S
C370 H362 0.951 . S
C370 C369 1.424 . S
C370 C371 1.347 . S
C371 H363 0.951 . S
C371 C366 1.429 . S
C371 C370 1.347 . S
H372 C373 0.951 . S
C373 H372 0.951 . S
C373 C379 1.265 . S
H374 C379 0.950 . S
H375 C383 0.949 . S
H376 C384 0.950 . S
H377 C385 0.951 . S
H378 C386 0.951 . S
C379 C373 1.265 . S
C379 H374 0.950 . S
C379 C380 1.478 . S
C380 C379 1.478 . S
C380 C381 1.397 . S
C380 C397 1.394 1_554 S
C381 C380 1.397 . S
C381 C382 1.438 . S
C381 C386 1.429 . S
C382 C381 1.438 . S
C382 C383 1.428 . S
C382 C395 1.394 . S
C383 H375 0.949 . S
C383 C382 1.428 . S
C383 C384 1.345 . S
C384 H376 0.950 . S
C384 C383 1.345 . S
C384 C385 1.424 . S
C385 H377 0.951 . S
C385 C384 1.424 . S
C385 C386 1.347 . S
C386 H378 0.951 . S
C386 C381 1.429 . S
C386 C385 1.347 . S
H387 C388 0.951 . S
C388 H387 0.951 . S
C388 C394 1.265 1_554 S
H389 C394 0.950 . S
H390 C398 0.949 . S
H391 C399 0.950 . S
H392 C400 0.951 . S
H393 C401 0.951 . S
C394 C388 1.265 1_556 S
C394 H389 0.950 . S
C394 C395 1.478 1_556 S
C395 C382 1.394 . S
C395 C394 1.478 1_554 S
C395 C396 1.397 1_554 S
C396 C395 1.397 1_556 S
C396 C397 1.438 . S
C396 C401 1.429 . S
C397 C380 1.394 1_556 S
C397 C396 1.438 . S
C397 C398 1.428 . S
C398 H390 0.949 . S
C398 C397 1.428 . S
C398 C399 1.345 . S
C399 H391 0.950 . S
C399 C398 1.345 . S
C399 C400 1.424 . S
C400 H392 0.951 . S
C400 C399 1.424 . S
C400 C401 1.347 . S
C401 H393 0.951 . S
C401 C396 1.429 . S
C401 C400 1.347 . S
H402 C403 0.951 . S
C403 H402 0.951 . S
C403 C409 1.265 . S
H404 C409 0.950 . S
H405 C413 0.949 . S
H406 C414 0.950 . S
H407 C415 0.951 . S
H408 C416 0.951 . S
C409 C403 1.265 . S
C409 H404 0.950 . S
C409 C410 1.478 . S
C410 C409 1.478 . S
C410 C411 1.397 . S
C410 C427 1.394 1_655 S
C411 C410 1.397 . S
C411 C412 1.438 . S
C411 C416 1.429 . S
C412 C411 1.438 . S
C412 C413 1.428 . S
C412 C425 1.394 1_655 S
C413 H405 0.949 . S
C413 C412 1.428 . S
C413 C414 1.345 . S
C414 H406 0.950 . S
C414 C413 1.345 . S
C414 C415 1.424 . S
C415 H407 0.951 . S
C415 C414 1.424 . S
C415 C416 1.347 . S
C416 H408 0.951 . S
C416 C411 1.429 . S
C416 C415 1.347 . S
H417 C418 0.951 . S
C418 H417 0.951 . S
C418 C424 1.265 . S
H419 C424 0.950 . S
H420 C428 0.949 . S
H421 C429 0.950 . S
H422 C430 0.951 . S
H423 C431 0.951 . S
C424 C418 1.265 . S
C424 H419 0.950 . S
C424 C425 1.478 . S
C425 C412 1.394 1_455 S
C425 C424 1.478 . S
C425 C426 1.397 . S
C426 C425 1.397 . S
C426 C427 1.438 . S
C426 C431 1.429 . S
C427 C410 1.394 1_455 S
C427 C426 1.438 . S
C427 C428 1.428 . S
C428 H420 0.949 . S
C428 C427 1.428 . S
C428 C429 1.345 . S
C429 H421 0.950 . S
C429 C428 1.345 . S
C429 C430 1.424 . S
C430 H422 0.951 . S
C430 C429 1.424 . S
C430 C431 1.347 . S
C431 H423 0.951 . S
C431 C426 1.429 . S
C431 C430 1.347 . S
H432 C433 0.951 1_655 S
C433 H432 0.951 1_455 S
C433 C439 1.265 . S
H434 C439 0.950 . S
H435 C443 0.949 . S
H436 C444 0.950 . S
H437 C445 0.949 1_455 S
H438 C446 0.951 . S
C439 C433 1.265 . S
C439 H434 0.950 . S
C439 C440 1.478 . S
C440 C439 1.478 . S
C440 C441 1.397 . S
C440 C457 1.394 . S
C441 C440 1.397 . S
C441 C442 1.438 1_455 S
C441 C446 1.429 . S
C442 C441 1.438 1_655 S
C442 C443 1.428 . S
C442 C455 1.394 . S
C443 H435 0.949 . S
C443 C442 1.428 . S
C443 C444 1.345 1_545 S
C444 H436 0.950 . S
C444 C443 1.345 1_565 S
C444 C445 1.424 . S
C445 H437 0.949 1_655 S
C445 C444 1.424 . S
C445 C446 1.347 1_665 S
C446 H438 0.951 . S
C446 C441 1.429 . S
C446 C445 1.347 1_445 S
H447 C448 0.951 1_455 S
C448 H447 0.951 1_655 S
C448 C454 1.265 . S
H449 C454 0.950 . S
H450 C458 0.949 . S
H451 C459 0.950 . S
H452 C460 0.956 . S
H453 C461 0.951 . S
C454 C448 1.265 . S
C454 H449 0.950 . S
C454 C455 1.478 . S
C455 C442 1.394 . S
C455 C454 1.478 . S
C455 C456 1.397 . S
C456 C455 1.397 . S
C456 C457 1.438 1_655 S
C456 C461 1.429 . S
C457 C440 1.394 . S
C457 C456 1.438 1_455 S
C457 C458 1.428 . S
C458 H450 0.949 . S
C458 C457 1.428 . S
C458 C459 1.345 . S
C459 H451 0.950 . S
C459 C458 1.345 . S
C459 C460 1.424 . S
C460 H452 0.956 . S
C460 C459 1.424 . S
C460 C461 1.347 1_455 S
C461 H453 0.951 . S
C461 C456 1.429 . S
C461 C460 1.347 1_655 S
H462 C463 0.951 1_655 S
C463 H462 0.951 1_455 S
C463 C469 1.265 . S
H464 C469 0.950 . S
H465 C473 0.949 . S
H466 C474 0.950 . S
H467 C475 0.951 . S
H468 C476 0.951 . S
C469 C463 1.265 . S
C469 H464 0.950 . S
C469 C470 1.478 . S
C470 C469 1.478 . S
C470 C471 1.397 . S
C470 C487 1.394 . S
C471 C470 1.397 . S
C471 C472 1.438 . S
C471 C476 1.429 . S
C472 C471 1.438 . S
C472 C473 1.428 . S
C472 C485 1.394 . S
C473 H465 0.949 . S
C473 C472 1.428 . S
C473 C474 1.345 . S
C474 H466 0.950 . S
C474 C473 1.345 . S
C474 C475 1.424 . S
C475 H467 0.951 . S
C475 C474 1.424 . S
C475 C476 1.347 . S
C476 H468 0.951 . S
C476 C471 1.429 . S
C476 C475 1.347 . S
H477 C478 0.951 . S
C478 H477 0.951 . S
C478 C484 1.265 . S
H479 C484 0.950 1_655 S
H480 C488 0.949 . S
H481 C489 0.950 . S
H482 C490 0.951 . S
H483 C491 0.951 . S
C484 C478 1.265 . S
C484 H479 0.950 1_455 S
C484 C485 1.478 . S
C485 C472 1.394 . S
C485 C484 1.478 . S
C485 C486 1.397 1_455 S
C486 C485 1.397 1_655 S
C486 C487 1.438 1_655 S
C486 C491 1.429 1_545 S
C487 C470 1.394 . S
C487 C486 1.438 1_455 S
C487 C488 1.428 1_445 S
C488 H480 0.949 . S
C488 C487 1.428 1_665 S
C488 C489 1.345 . S
C489 H481 0.950 . S
C489 C488 1.345 . S
C489 C490 1.424 . S
C490 H482 0.951 . S
C490 C489 1.424 . S
C490 C491 1.347 . S
C491 H483 0.951 . S
C491 C486 1.429 1_565 S
C491 C490 1.347 . S
H492 C493 0.951 . S
C493 H492 0.951 . S
C493 C499 1.265 . S
H494 C499 0.950 . S
H495 C503 0.949 . S
H496 C504 0.950 . S
H497 C505 0.951 . S
H498 C506 0.951 . S
C499 C493 1.265 . S
C499 H494 0.950 . S
C499 C500 1.478 . S
C500 C499 1.478 . S
C500 C501 1.397 . S
C500 C517 1.394 1_545 S
C501 C500 1.397 . S
C501 C502 1.438 . S
C501 C506 1.429 . S
C502 C501 1.438 . S
C502 C503 1.428 . S
C502 C515 1.394 . S
C503 H495 0.949 . S
C503 C502 1.428 . S
C503 C504 1.345 . S
C504 H496 0.950 . S
C504 C503 1.345 . S
C504 C505 1.424 . S
C505 H497 0.951 . S
C505 C504 1.424 . S
C505 C506 1.347 . S
C506 H498 0.951 . S
C506 C501 1.429 . S
C506 C505 1.347 . S
H507 C508 0.951 . S
C508 H507 0.951 . S
C508 C514 1.265 1_455 S
H509 C514 0.950 . S
H510 C518 0.949 . S
H511 C519 0.950 . S
H512 C520 0.951 . S
H513 C521 0.951 . S
C514 C508 1.265 1_655 S
C514 H509 0.950 . S
C514 C515 1.478 1_655 S
C515 C502 1.394 . S
C515 C514 1.478 1_455 S
C515 C516 1.397 1_445 S
C516 C515 1.397 1_665 S
C516 C517 1.438 1_655 S
C516 C521 1.429 . S
C517 C500 1.394 1_565 S
C517 C516 1.438 1_455 S
C517 C518 1.428 1_455 S
C518 H510 0.949 . S
C518 C517 1.428 1_655 S
C518 C519 1.345 . S
C519 H511 0.950 . S
C519 C518 1.345 . S
C519 C520 1.424 . S
C520 H512 0.951 . S
C520 C519 1.424 . S
C520 C521 1.347 . S
C521 H513 0.951 . S
C521 C516 1.429 . S
C521 C520 1.347 . S
C253 C56 4.254 . S
C268 C67 4.256 . S
C283 C151 2.586 . S
C298 C140 2.586 . S
C313 C237 0.713 . S
C328 C226 0.713 . S
C343 C224 2.546 . S
C358 C235 2.546 . S
C373 C58 0.763 . S
C388 C69 0.763 . S
C403 C153 1.210 . S
C418 C142 1.210 . S
C433 C158 1.533 . S
C448 C63 1.500 . S
C463 C147 1.575 . S
C478 C231 1.595 . S
C493 C242 1.553 . S
C508 C74 1.566 . S
