# Generated by pormake.
# Topology wiv, (6)-cn, num edge types: 1
# Building blocks:
#     Node 0, Type 0, BuildingBlock: BETDEL_clean_sbu_0, # of connection points: 6
#     Node 1, Type 0, BuildingBlock: BETDEL_clean_sbu_0, # of connection points: 6
#     Node 2, Type 0, BuildingBlock: BETDEL_clean_sbu_0, # of connection points: 6
#     Node 3, Type 0, BuildingBlock: BETDEL_clean_sbu_0, # of connection points: 6
#     Node 4, Type 0, BuildingBlock: BETDEL_clean_sbu_0, # of connection points: 6
#     Node 5, Type 0, BuildingBlock: BETDEL_clean_sbu_0, # of connection points: 6
#     Node 6, Type 0, BuildingBlock: BETDEL_clean_sbu_0, # of connection points: 6
#     Node 7, Type 0, BuildingBlock: BETDEL_clean_sbu_0, # of connection points: 6
#     Node 8, Type 0, BuildingBlock: BETDEL_clean_sbu_0, # of connection points: 6
#     Node 9, Type 0, BuildingBlock: BETDEL_clean_sbu_0, # of connection points: 6
#     Node 10, Type 0, BuildingBlock: BETDEL_clean_sbu_0, # of connection points: 6
#     Node 11, Type 0, BuildingBlock: BETDEL_clean_sbu_0, # of connection points: 6
#     Node 12, Type 0, BuildingBlock: BETDEL_clean_sbu_0, # of connection points: 6
#     Node 13, Type 0, BuildingBlock: BETDEL_clean_sbu_0, # of connection points: 6
#     Node 14, Type 0, BuildingBlock: BETDEL_clean_sbu_0, # of connection points: 6
#     Node 15, Type 0, BuildingBlock: BETDEL_clean_sbu_0, # of connection points: 6
#     Edge 16, Type (0, 0), BuildingBlock: KIFKEQ_clean_linker_1, # of connection points: 2
#     Edge 17, Type (0, 0), BuildingBlock: KIFKEQ_clean_linker_1, # of connection points: 2
#     Edge 18, Type (0, 0), BuildingBlock: KIFKEQ_clean_linker_1, # of connection points: 2
#     Edge 19, Type (0, 0), BuildingBlock: KIFKEQ_clean_linker_1, # of connection points: 2
#     Edge 20, Type (0, 0), BuildingBlock: KIFKEQ_clean_linker_1, # of connection points: 2
#     Edge 21, Type (0, 0), BuildingBlock: KIFKEQ_clean_linker_1, # of connection points: 2
#     Edge 22, Type (0, 0), BuildingBlock: KIFKEQ_clean_linker_1, # of connection points: 2
#     Edge 23, Type (0, 0), BuildingBlock: KIFKEQ_clean_linker_1, # of connection points: 2
#     Edge 24, Type (0, 0), BuildingBlock: KIFKEQ_clean_linker_1, # of connection points: 2
#     Edge 25, Type (0, 0), BuildingBlock: KIFKEQ_clean_linker_1, # of connection points: 2
#     Edge 26, Type (0, 0), BuildingBlock: KIFKEQ_clean_linker_1, # of connection points: 2
#     Edge 27, Type (0, 0), BuildingBlock: KIFKEQ_clean_linker_1, # of connection points: 2
#     Edge 28, Type (0, 0), BuildingBlock: KIFKEQ_clean_linker_1, # of connection points: 2
#     Edge 29, Type (0, 0), BuildingBlock: KIFKEQ_clean_linker_1, # of connection points: 2
#     Edge 30, Type (0, 0), BuildingBlock: KIFKEQ_clean_linker_1, # of connection points: 2
#     Edge 31, Type (0, 0), BuildingBlock: KIFKEQ_clean_linker_1, # of connection points: 2
#     Edge 32, Type (0, 0), BuildingBlock: KIFKEQ_clean_linker_1, # of connection points: 2
#     Edge 33, Type (0, 0), BuildingBlock: KIFKEQ_clean_linker_1, # of connection points: 2
#     Edge 34, Type (0, 0), BuildingBlock: KIFKEQ_clean_linker_1, # of connection points: 2
#     Edge 35, Type (0, 0), BuildingBlock: KIFKEQ_clean_linker_1, # of connection points: 2
#     Edge 36, Type (0, 0), BuildingBlock: KIFKEQ_clean_linker_1, # of connection points: 2
#     Edge 37, Type (0, 0), BuildingBlock: KIFKEQ_clean_linker_1, # of connection points: 2
#     Edge 38, Type (0, 0), BuildingBlock: KIFKEQ_clean_linker_1, # of connection points: 2
#     Edge 39, Type (0, 0), BuildingBlock: KIFKEQ_clean_linker_1, # of connection points: 2
#     Edge 40, Type (0, 0), BuildingBlock: KIFKEQ_clean_linker_1, # of connection points: 2
#     Edge 41, Type (0, 0), BuildingBlock: KIFKEQ_clean_linker_1, # of connection points: 2
#     Edge 42, Type (0, 0), BuildingBlock: KIFKEQ_clean_linker_1, # of connection points: 2
#     Edge 43, Type (0, 0), BuildingBlock: KIFKEQ_clean_linker_1, # of connection points: 2
#     Edge 44, Type (0, 0), BuildingBlock: KIFKEQ_clean_linker_1, # of connection points: 2
#     Edge 45, Type (0, 0), BuildingBlock: KIFKEQ_clean_linker_1, # of connection points: 2
#     Edge 46, Type (0, 0), BuildingBlock: KIFKEQ_clean_linker_1, # of connection points: 2
#     Edge 47, Type (0, 0), BuildingBlock: KIFKEQ_clean_linker_1, # of connection points: 2
#     Edge 48, Type (0, 0), BuildingBlock: KIFKEQ_clean_linker_1, # of connection points: 2
#     Edge 49, Type (0, 0), BuildingBlock: KIFKEQ_clean_linker_1, # of connection points: 2
#     Edge 50, Type (0, 0), BuildingBlock: KIFKEQ_clean_linker_1, # of connection points: 2
#     Edge 51, Type (0, 0), BuildingBlock: KIFKEQ_clean_linker_1, # of connection points: 2
#     Edge 52, Type (0, 0), BuildingBlock: KIFKEQ_clean_linker_1, # of connection points: 2
#     Edge 53, Type (0, 0), BuildingBlock: KIFKEQ_clean_linker_1, # of connection points: 2
#     Edge 54, Type (0, 0), BuildingBlock: KIFKEQ_clean_linker_1, # of connection points: 2
#     Edge 55, Type (0, 0), BuildingBlock: KIFKEQ_clean_linker_1, # of connection points: 2
#     Edge 56, Type (0, 0), BuildingBlock: KIFKEQ_clean_linker_1, # of connection points: 2
#     Edge 57, Type (0, 0), BuildingBlock: KIFKEQ_clean_linker_1, # of connection points: 2
#     Edge 58, Type (0, 0), BuildingBlock: KIFKEQ_clean_linker_1, # of connection points: 2
#     Edge 59, Type (0, 0), BuildingBlock: KIFKEQ_clean_linker_1, # of connection points: 2
#     Edge 60, Type (0, 0), BuildingBlock: KIFKEQ_clean_linker_1, # of connection points: 2
#     Edge 61, Type (0, 0), BuildingBlock: KIFKEQ_clean_linker_1, # of connection points: 2
#     Edge 62, Type (0, 0), BuildingBlock: KIFKEQ_clean_linker_1, # of connection points: 2
#     Edge 63, Type (0, 0), BuildingBlock: KIFKEQ_clean_linker_1, # of connection points: 2
# Relax obj value: 0.069
# Max RMSD: 0.129
# Mean RMSD: 0.129
data_MOF--net-wiv--node1-BETDEL_clean_sbu_0--edge1-KIFKEQ_clean_linker_1
_symmetry_space_group_name_H-M    P1
_symmetry_Int_Tables_number       1
_symmetry_cell_setting            triclinic
loop_
_symmetry_equiv_pos_as_xyz
'x, y, z'
_cell_length_a     56.242181
_cell_length_b     56.251788
_cell_length_c     17.936814
_cell_angle_alpha  90.032288
_cell_angle_beta   90.005148
_cell_angle_gamma 89.992799
loop_
_atom_site_label
_atom_site_type_symbol
_atom_site_fract_x
_atom_site_fract_y
_atom_site_fract_z
_atom_type_partial_charge
Dy0 Dy 0.36404 0.12076 0.19239 0.0
C1 C 0.39207 0.13159 0.88093 0.0
C2 C 0.35461 0.10815 0.33616 0.0
Dy3 Dy 0.38682 0.12354 0.03045 0.0
O4 O 0.34219 0.12311 0.29681 0.0
O5 O 0.37112 0.09876 0.29468 0.0
O6 O 0.36436 0.15976 0.22019 0.0
O7 O 0.37723 0.1482 0.1182 0.0
C8 C 0.37408 0.16633 0.15818 0.0
C9 C 0.38399 0.08038 0.09446 0.0
O10 O 0.41785 0.13511 0.09873 0.0
O11 O 0.40377 0.11614 0.20568 0.0
O12 O 0.40299 0.11509 0.91836 0.0
O13 O 0.37969 0.1446 0.92644 0.0
O14 O 0.40061 0.08626 0.0477 0.0
O15 O 0.36902 0.09688 0.09914 0.0
O16 O 0.33072 0.11571 0.12271 0.0
O17 O 0.34784 0.1246 1.00733 0.0
C18 C 0.42113 0.1263 0.16662 0.0
C19 C 0.3291 0.12004 0.04966 0.0
Dy20 Dy 0.12203 0.62331 1.00625 0.0
C21 C 0.11445 0.65343 0.70764 0.0
C22 C 0.12377 0.6157 0.15734 0.0
Dy23 Dy 0.12219 0.64669 0.85721 0.0
O24 O 0.105 0.61427 0.1158 0.0
O25 O 0.14216 0.61994 0.11542 0.0
O26 O 0.0867 0.6072 0.97671 0.0
O27 O 0.09497 0.64159 0.93961 0.0
C28 C 0.07974 0.62523 0.9373 0.0
C29 C 0.16529 0.64552 0.91954 0.0
O30 O 0.1119 0.67883 0.92564 0.0
O31 O 0.12677 0.66178 0.03282 0.0
O32 O 0.13252 0.66159 0.74477 0.0
O33 O 0.09999 0.64294 0.75334 0.0
O34 O 0.15711 0.66303 0.88006 0.0
O35 O 0.15028 0.62869 0.92209 0.0
O36 O 0.13205 0.59039 0.94561 0.0
O37 O 0.1217 0.60719 0.83231 0.0
C38 C 0.1187 0.68051 0.9965 0.0
C39 C 0.12753 0.58844 0.87345 0.0
Dy40 Dy 0.64537 0.88719 0.17582 0.0
C41 C 0.61451 0.88674 0.87564 0.0
C42 C 0.65207 0.89464 0.32547 0.0
Dy43 Dy 0.62201 0.88813 0.02672 0.0
O44 O 0.66016 0.87656 0.2882 0.0
O45 O 0.64165 0.9092 0.27996 0.0
O46 O 0.66148 0.85213 0.1506 0.0
O47 O 0.6272 0.85959 0.10963 0.0
C48 C 0.64378 0.84431 0.11114 0.0
C49 C 0.62356 0.93003 0.09817 0.0
O50 O 0.58896 0.87814 0.08687 0.0
O51 O 0.60593 0.88762 0.20076 0.0
O52 O 0.61383 0.90555 0.91719 0.0
O53 O 0.61795 0.86818 0.9175 0.0
O54 O 0.60566 0.9232 0.05788 0.0
O55 O 0.64005 0.91493 0.09497 0.0
O56 O 0.67732 0.89827 0.10862 0.0
O57 O 0.66062 0.88349 1.00069 0.0
C58 C 0.58711 0.88219 0.15935 0.0
C59 C 0.67919 0.89167 0.03773 0.0
Dy60 Dy 0.89105 0.38567 1.00173 0.0
C61 C 0.90643 0.35674 0.70261 0.0
C62 C 0.89422 0.38421 0.15249 0.0
Dy63 Dy 0.89082 0.3644 0.84373 0.0
O64 O 0.9057 0.37084 0.10626 0.0
O65 O 0.88092 0.39945 0.11648 0.0
O66 O 0.9272 0.40056 0.97584 0.0
O67 O 0.91709 0.36778 0.9304 0.0
C68 C 0.93319 0.3833 0.93181 0.0
C69 C 0.84571 0.3745 0.87754 0.0
O70 O 0.89358 0.33123 0.91396 0.0
O71 O 0.87549 0.34949 1.014 0.0
O72 O 0.89149 0.34303 0.73777 0.0
O73 O 0.91374 0.37358 0.74644 0.0
O74 O 0.85227 0.36474 0.81541 0.0
O75 O 0.86355 0.37783 0.91934 0.0
O76 O 0.88193 0.41931 0.94353 0.0
O77 O 0.89434 0.40412 0.82922 0.0
C78 C 0.88375 0.33017 0.98128 0.0
C79 C 0.88755 0.42216 0.87225 0.0
Dy80 Dy 0.36505 0.38647 0.09111 0.0
C81 C 0.3955 0.38371 0.39154 0.0
C82 C 0.35864 0.39509 0.9419 0.0
Dy83 Dy 0.38797 0.38581 0.24042 0.0
O84 O 0.34898 0.37774 0.97884 0.0
O85 O 0.37049 0.40846 0.98766 0.0
O86 O 0.34929 0.35095 0.10944 0.0
O87 O 0.38314 0.35806 0.1543 0.0
C88 C 0.3668 0.34259 0.14852 0.0
C89 C 0.38629 0.42852 0.17361 0.0
O90 O 0.42101 0.37577 0.18021 0.0
O91 O 0.40464 0.38694 0.06708 0.0
O92 O 0.39789 0.40236 0.35 0.0
O93 O 0.39032 0.36556 0.34961 0.0
O94 O 0.40422 0.42125 0.21287 0.0
O95 O 0.36988 0.41334 0.17503 0.0
O96 O 0.33304 0.39704 0.15978 0.0
O97 O 0.34945 0.38078 0.26582 0.0
C98 C 0.42324 0.38067 0.10837 0.0
C99 C 0.331 0.3896 0.22985 0.0
Dy100 Dy 0.38571 0.62467 0.79251 0.0
C101 C 0.39217 0.65522 0.09167 0.0
C102 C 0.37834 0.61871 0.64229 0.0
Dy103 Dy 0.3875 0.64735 0.94114 0.0
O104 O 0.3956 0.60925 0.68017 0.0
O105 O 0.36437 0.63004 0.68758 0.0
O106 O 0.42198 0.60886 0.81276 0.0
O107 O 0.41388 0.64247 0.85589 0.0
C108 C 0.42924 0.62627 0.85432 0.0
C109 C 0.34351 0.64674 0.88443 0.0
O110 O 0.39773 0.67997 0.8749 0.0
O111 O 0.38339 0.66339 0.76621 0.0
O112 O 0.37388 0.66068 0.05131 0.0
O113 O 0.40874 0.64673 0.04871 0.0
O114 O 0.35335 0.66474 0.9173 0.0
O115 O 0.35823 0.62963 0.87967 0.0
O116 O 0.37492 0.59221 0.85426 0.0
O117 O 0.38943 0.60781 0.96441 0.0
C118 C 0.39118 0.68197 0.8039 0.0
C119 C 0.38157 0.58953 0.9245 0.0
Dy120 Dy 0.6461 0.6246 0.10336 0.0
C121 C 0.6151 0.62521 0.40344 0.0
C122 C 0.65284 0.61714 0.9537 0.0
Dy123 Dy 0.62268 0.62366 0.25237 0.0
O124 O 0.66093 0.6352 0.99102 0.0
O125 O 0.64241 0.60258 0.9992 0.0
O126 O 0.66204 0.65973 0.1285 0.0
O127 O 0.62778 0.65215 0.16932 0.0
C128 C 0.6443 0.6675 0.16782 0.0
C129 C 0.62445 0.58171 0.18124 0.0
O130 O 0.58963 0.63351 0.19174 0.0
O131 O 0.60667 0.62406 0.07795 0.0
O132 O 0.61421 0.60639 0.36196 0.0
O133 O 0.61878 0.6437 0.36149 0.0
O134 O 0.60651 0.58848 0.22145 0.0
O135 O 0.64087 0.59689 0.1844 0.0
O136 O 0.67809 0.61364 0.17081 0.0
O137 O 0.66129 0.62831 0.27875 0.0
C138 C 0.5878 0.62945 0.11923 0.0
C139 C 0.67991 0.62021 0.24176 0.0
Dy140 Dy 0.62649 0.38714 0.78954 0.0
C141 C 0.62072 0.35615 0.08933 0.0
C142 C 0.63394 0.39332 0.63959 0.0
Dy143 Dy 0.62565 0.36412 0.93906 0.0
O144 O 0.61641 0.40238 0.67722 0.0
O145 O 0.6481 0.38228 0.685 0.0
O146 O 0.58999 0.40213 0.80991 0.0
O147 O 0.59894 0.36883 0.85419 0.0
C148 C 0.58327 0.38478 0.85261 0.0
C149 C 0.6694 0.3664 0.87985 0.0
O150 O 0.61551 0.33161 0.87207 0.0
O151 O 0.6293 0.34843 0.76298 0.0
O152 O 0.63886 0.35015 0.04896 0.0
O153 O 0.60446 0.36524 0.04648 0.0
O154 O 0.66099 0.34833 0.91612 0.0
O155 O 0.65387 0.38271 0.87642 0.0
O156 O 0.63659 0.41974 0.85224 0.0
O157 O 0.62305 0.40359 0.96295 0.0
C158 C 0.62179 0.32976 0.80079 0.0
C159 C 0.63022 0.42212 0.92292 0.0
Dy160 Dy 0.86294 0.62286 0.69227 0.0
C161 C 0.89279 0.63091 0.39314 0.0
C162 C 0.85529 0.61977 0.84307 0.0
Dy163 Dy 0.88665 0.62349 0.54295 0.0
O164 O 0.85213 0.6385 0.80232 0.0
O165 O 0.86134 0.60206 0.80048 0.0
O166 O 0.844 0.65583 0.66244 0.0
O167 O 0.87933 0.65156 0.6257 0.0
C168 C 0.86148 0.6654 0.62604 0.0
C169 C 0.88745 0.58131 0.61236 0.0
O170 O 0.91838 0.63579 0.60595 0.0
O171 O 0.90234 0.62243 0.71706 0.0
O172 O 0.90171 0.61326 0.43058 0.0
O173 O 0.88189 0.64517 0.43863 0.0
O174 O 0.90446 0.58862 0.56907 0.0
O175 O 0.87036 0.59571 0.61081 0.0
O176 O 0.83078 0.61087 0.62717 0.0
O177 O 0.848 0.62114 0.51445 0.0
C178 C 0.92066 0.6302 0.67725 0.0
C179 C 0.82938 0.61424 0.55388 0.0
Dy180 Dy 0.62336 0.12381 0.4938 0.0
C181 C 0.61933 0.15491 0.19364 0.0
C182 C 0.63152 0.11785 0.64335 0.0
Dy183 Dy 0.62325 0.1471 0.34437 0.0
O184 O 0.61413 0.10822 0.60633 0.0
O185 O 0.64516 0.12934 0.59752 0.0
O186 O 0.58701 0.10857 0.47349 0.0
O187 O 0.59595 0.14167 0.4273 0.0
C188 C 0.58041 0.12555 0.42908 0.0
C189 C 0.66662 0.14505 0.40663 0.0
O190 O 0.61259 0.17971 0.41032 0.0
O191 O 0.6238 0.16248 0.52188 0.0
O192 O 0.63745 0.16044 0.23474 0.0
O193 O 0.60265 0.14637 0.23586 0.0
O194 O 0.65824 0.1632 0.37068 0.0
O195 O 0.65117 0.12864 0.4085 0.0
O196 O 0.63375 0.09133 0.43092 0.0
O197 O 0.62095 0.10769 0.31966 0.0
C198 C 0.61687 0.1812 0.48317 0.0
C199 C 0.62788 0.0891 0.3598 0.0
Dy200 Dy 0.15062 0.38913 0.69201 0.0
C201 C 0.11999 0.38344 0.39254 0.0
C202 C 0.15636 0.39767 0.84178 0.0
Dy203 Dy 0.12748 0.38681 0.54362 0.0
O204 O 0.16664 0.38072 0.80464 0.0
O205 O 0.14427 0.41078 0.79594 0.0
O206 O 0.16959 0.35569 0.67113 0.0
O207 O 0.13474 0.35914 0.6292 0.0
C208 C 0.15258 0.3453 0.63474 0.0
C209 C 0.12662 0.42963 0.61049 0.0
O210 O 0.09533 0.37447 0.60393 0.0
O211 O 0.11115 0.38677 0.71659 0.0
O212 O 0.11498 0.40163 0.43399 0.0
O213 O 0.12777 0.36631 0.43464 0.0
O214 O 0.10903 0.42133 0.57164 0.0
O215 O 0.14382 0.41544 0.60835 0.0
O216 O 0.18212 0.40157 0.624 0.0
O217 O 0.16612 0.3861 0.51584 0.0
C218 C 0.09293 0.37925 0.67573 0.0
C219 C 0.18413 0.39555 0.55251 0.0
Dy220 Dy 0.38926 0.89078 0.50664 0.0
C221 C 0.40248 0.85903 0.20374 0.0
C222 C 0.388 0.89821 0.65736 0.0
Dy223 Dy 0.38878 0.86549 0.3482 0.0
O224 O 0.40651 0.90056 0.61494 0.0
O225 O 0.36952 0.89321 0.61645 0.0
O226 O 0.42451 0.90644 0.47414 0.0
O227 O 0.41475 0.87273 0.43415 0.0
C228 C 0.43035 0.88877 0.43123 0.0
C229 C 0.34401 0.87436 0.39121 0.0
O230 O 0.39523 0.83308 0.42004 0.0
O231 O 0.38806 0.85205 0.53375 0.0
O232 O 0.38732 0.84556 0.23901 0.0
O233 O 0.41119 0.87472 0.24933 0.0
O234 O 0.34941 0.8637 0.32935 0.0
O235 O 0.36285 0.87886 0.42673 0.0
O236 O 0.37697 0.9218 0.44017 0.0
O237 O 0.38965 0.90514 0.32782 0.0
C238 C 0.39239 0.83266 0.49396 0.0
C239 C 0.382 0.92352 0.36804 0.0
Dy240 Dy 0.86311 0.88789 0.59169 0.0
C241 C 0.89182 0.87861 0.89085 0.0
C242 C 0.85552 0.89188 0.44108 0.0
Dy243 Dy 0.88606 0.88632 0.74104 0.0
O244 O 0.85078 0.87343 0.48159 0.0
O245 O 0.86319 0.9089 0.48382 0.0
O246 O 0.84385 0.85497 0.61873 0.0
O247 O 0.87912 0.85849 0.65663 0.0
C248 C 0.86118 0.84476 0.65403 0.0
C249 C 0.88668 0.92912 0.67483 0.0
O250 O 0.91792 0.87395 0.67921 0.0
O251 O 0.90262 0.88801 0.56803 0.0
O252 O 0.9017 0.89571 0.85335 0.0
O253 O 0.88012 0.86498 0.84543 0.0
O254 O 0.90371 0.92159 0.71761 0.0
O255 O 0.8698 0.91453 0.67502 0.0
O256 O 0.83095 0.90015 0.65635 0.0
O257 O 0.84735 0.88822 0.7685 0.0
C258 C 0.92066 0.87987 0.60839 0.0
C259 C 0.82907 0.89597 0.7291 0.0
Dy260 Dy 0.88825 0.12315 0.28386 0.0
C261 C 0.90102 0.15481 0.58612 0.0
C262 C 0.88968 0.11667 0.13294 0.0
Dy263 Dy 0.88732 0.14721 0.44228 0.0
O264 O 0.90784 0.11981 0.17614 0.0
O265 O 0.8703 0.11588 0.17283 0.0
O266 O 0.92349 0.10777 0.31604 0.0
O267 O 0.91376 0.1415 0.35642 0.0
C268 C 0.92948 0.12549 0.35843 0.0
C269 C 0.8426 0.13713 0.40176 0.0
O270 O 0.89118 0.18025 0.37146 0.0
O271 O 0.88156 0.1614 0.25981 0.0
O272 O 0.88507 0.1673 0.55084 0.0
O273 O 0.91045 0.13944 0.54086 0.0
O274 O 0.84812 0.14744 0.46402 0.0
O275 O 0.86128 0.13333 0.3645 0.0
O276 O 0.87766 0.09108 0.34779 0.0
O277 O 0.88969 0.1075 0.46118 0.0
C278 C 0.88592 0.18086 0.29896 0.0
C279 C 0.88288 0.08907 0.41969 0.0
Dy280 Dy 0.14648 0.12573 0.59994 0.0
C281 C 0.11784 0.13841 0.90236 0.0
C282 C 0.15009 0.12873 0.44965 0.0
Dy283 Dy 0.12245 0.12524 0.75792 0.0
O284 O 0.14246 0.14529 0.49363 0.0
O285 O 0.1571 0.1103 0.48812 0.0
O286 O 0.16636 0.15754 0.63585 0.0
O287 O 0.13136 0.15295 0.6748 0.0
C288 C 0.14941 0.16651 0.67623 0.0
C289 C 0.12583 0.08093 0.69955 0.0
O290 O 0.09041 0.13488 0.6923 0.0
O291 O 0.1069 0.12163 0.58066 0.0
O292 O 0.10297 0.1245 0.86747 0.0
O293 O 0.13404 0.14607 0.85682 0.0
O294 O 0.11611 0.08493 0.76419 0.0
O295 O 0.13252 0.10049 0.67474 0.0
O296 O 0.1778 0.11162 0.66497 0.0
O297 O 0.16131 0.12138 0.78032 0.0
C298 C 0.08841 0.12894 0.62104 0.0
C299 C 0.17933 0.11398 0.73884 0.0
Dy300 Dy 0.12534 0.88746 0.30047 0.0
C301 C 0.11607 0.85765 0.5993 0.0
C302 C 0.12901 0.89522 0.14969 0.0
Dy303 Dy 0.12431 0.86405 0.44969 0.0
O304 O 0.11069 0.90007 0.19077 0.0
O305 O 0.14612 0.88753 0.1921 0.0
O306 O 0.08951 0.90326 0.3254 0.0
O307 O 0.09775 0.86917 0.36494 0.0
C308 C 0.08238 0.88542 0.36527 0.0
C309 C 0.16827 0.86628 0.39207 0.0
O310 O 0.11375 0.83203 0.38103 0.0
O311 O 0.12867 0.84883 0.27341 0.0
O312 O 0.13347 0.84819 0.56202 0.0
O313 O 0.10244 0.86922 0.55366 0.0
O314 O 0.15997 0.84853 0.43018 0.0
O315 O 0.15269 0.88253 0.38757 0.0
O316 O 0.13549 0.92008 0.36312 0.0
O317 O 0.12254 0.90354 0.47409 0.0
C318 C 0.12013 0.8303 0.30978 0.0
C319 C 0.12941 0.92218 0.43413 0.0
H320 H 0.36939 0.96707 0.4271 0.0
H321 H 0.39137 0.93308 0.22202 0.0
H322 H 0.36949 1.00562 0.36347 0.0
H323 H 0.39124 0.9712 0.15935 0.0
H324 H 0.34984 0.06572 0.19269 0.0
H325 H 0.34854 0.02824 0.26216 0.0
H326 H 0.41539 0.00747 0.16297 0.0
H327 H 0.41658 0.04475 0.09369 0.0
C328 C 0.37408 0.96774 0.36859 0.0
C329 C 0.38053 0.94693 0.33003 0.0
C330 C 0.37407 0.98981 0.33212 0.0
C331 C 0.38064 0.99149 0.25658 0.0
C332 C 0.38655 0.97061 0.2179 0.0
C333 C 0.38647 0.94867 0.254 0.0
C334 C 0.36427 0.05314 0.18613 0.0
C335 C 0.38327 0.05804 0.1376 0.0
C336 C 0.36359 0.03176 0.22612 0.0
C337 C 0.38178 0.01482 0.21771 0.0
C338 C 0.40091 0.01998 0.16981 0.0
C339 C 0.40165 0.04136 0.13029 0.0
H340 H 0.96337 0.64528 0.6185 0.0
H341 H 0.93151 0.61741 0.81971 0.0
H342 H 1.00242 0.64456 0.67918 0.0
H343 H 0.97017 0.61686 0.87954 0.0
H344 H 0.0631 0.66167 0.85102 0.0
H345 H 0.02497 0.66378 0.78524 0.0
H346 H 0.00721 0.59361 0.86548 0.0
H347 H 0.04517 0.59156 0.93104 0.0
C348 C 0.96462 0.63916 0.6756 0.0
C349 C 0.94428 0.6313 0.71397 0.0
C350 C 0.98696 0.63882 0.71038 0.0
C351 C 0.98938 0.63042 0.78388 0.0
C352 C 0.96897 0.62303 0.82246 0.0
C353 C 0.94674 0.62351 0.7881 0.0
C354 C 0.05104 0.6467 0.85428 0.0
C355 C 0.05699 0.6265 0.89642 0.0
C356 C 0.0293 0.64786 0.81636 0.0
C357 C 0.01304 0.62893 0.82056 0.0
C358 C 0.01922 0.60863 0.86205 0.0
C359 C 0.04097 0.60741 0.8994 0.0
H360 H 0.65995 0.94703 0.18449 0.0
H361 H 0.58954 0.9642 0.10525 0.0
H362 H 0.66165 0.98514 0.2506 0.0
H363 H 0.59116 1.00209 0.17115 0.0
H364 H 0.64321 0.0464 0.4177 0.0
H365 H 0.6426 0.00741 0.35673 0.0
H366 H 0.61347 0.03951 0.15811 0.0
H367 H 0.61386 0.07814 0.21842 0.0
C368 C 0.64483 0.95892 0.18147 0.0
C369 C 0.62466 0.95275 0.13943 0.0
C370 C 0.64575 0.98066 0.21958 0.0
C371 C 0.62661 0.9967 0.21573 0.0
C372 C 0.60635 0.99029 0.17433 0.0
C373 C 0.60538 0.96856 0.13678 0.0
C374 C 0.63673 0.04512 0.36098 0.0
C375 C 0.62849 0.06543 0.3232 0.0
C376 C 0.63649 0.02281 0.32598 0.0
C377 C 0.62781 0.02035 0.25279 0.0
C378 C 0.6199 0.04072 0.21492 0.0
C379 C 0.62027 0.06293 0.24954 0.0
H380 H 0.9486 0.34808 0.83793 0.0
H381 H 0.96906 0.4155 0.93345 0.0
H382 H 0.987 0.34573 0.77351 0.0
H383 H 0.0072 0.41324 0.86933 0.0
H384 H 0.05018 0.36588 0.61334 0.0
H385 H 0.01099 0.36604 0.67306 0.0
H386 H 0.04323 0.38856 0.87983 0.0
H387 H 0.08205 0.38861 0.82088 0.0
C388 C 0.96127 0.36241 0.84486 0.0
C389 C 0.95595 0.38191 0.89097 0.0
C390 C 0.98318 0.36112 0.80779 0.0
C391 C 1.00021 0.3792 0.81685 0.0
C392 C 0.99463 0.39883 0.86218 0.0
C393 C 0.97275 0.40018 0.89868 0.0
C394 C 0.0489 0.37068 0.67167 0.0
C395 C 0.06928 0.37738 0.71204 0.0
C396 C 0.02647 0.37071 0.70589 0.0
C397 C 0.02399 0.37759 0.78092 0.0
C398 C 0.04446 0.38361 0.82158 0.0
C399 C 0.06679 0.38349 0.7877 0.0
H400 H 0.34997 0.44607 0.08837 0.0
H401 H 0.42005 0.46302 0.17085 0.0
H402 H 0.34806 0.48479 0.02617 0.0
H403 H 0.41828 0.5015 0.1085 0.0
H404 H 0.36595 0.54726 0.86457 0.0
H405 H 0.36668 0.50793 0.92292 0.0
H406 H 0.39625 0.53876 0.123 0.0
H407 H 0.3958 0.57776 0.06508 0.0
C408 C 0.36497 0.45806 0.09297 0.0
C409 C 0.3851 0.45164 0.13478 0.0
C410 C 0.36394 0.48015 0.05706 0.0
C411 C 0.38295 0.49629 0.06277 0.0
C412 C 0.40317 0.48964 0.10397 0.0
C413 C 0.40424 0.46757 0.13944 0.0
C414 C 0.37253 0.54563 0.92107 0.0
C415 C 0.3809 0.56569 0.95991 0.0
C416 C 0.37286 0.52312 0.95459 0.0
C417 C 0.38169 0.52019 0.02741 0.0
C418 C 0.38971 0.54032 0.06641 0.0
C419 C 0.3893 0.56275 0.0332 0.0
H420 H 0.57776 0.61806 0.97491 0.0
H421 H 0.54443 0.64223 0.17854 0.0
H422 H 0.53937 0.61764 0.9132 0.0
H423 H 0.50569 0.64162 0.11604 0.0
H424 H 0.46446 0.59305 0.8529 0.0
H425 H 0.50235 0.59421 0.91943 0.0
H426 H 0.48358 0.66239 1.01339 0.0
H427 H 0.44563 0.66118 0.94674 0.0
C428 C 0.56226 0.62334 1.0067 0.0
C429 C 0.56424 0.63015 0.08197 0.0
C430 C 0.54018 0.62293 0.97123 0.0
C431 C 0.51945 0.62941 1.00981 0.0
C432 C 0.52138 0.63664 0.08472 0.0
C433 C 0.54355 0.6369 0.12058 0.0
C434 C 0.46846 0.60828 0.88768 0.0
C435 C 0.45217 0.62705 0.89445 0.0
C436 C 0.49016 0.60899 0.92563 0.0
C437 C 0.496 0.62844 0.97154 0.0
C438 C 0.47953 0.64708 0.97901 0.0
C439 C 0.45787 0.64645 0.94054 0.0
H440 H 0.5906 0.54737 0.17424 0.0
H441 H 0.66104 0.56474 0.09578 0.0
H442 H 0.59253 0.50935 0.10912 0.0
H443 H 0.66308 0.52649 0.03058 0.0
H444 H 0.64558 0.46476 0.86475 0.0
H445 H 0.64456 0.50387 0.92485 0.0
H446 H 0.61481 0.47207 0.12303 0.0
H447 H 0.61558 0.43332 0.06351 0.0
C448 C 0.60652 0.54303 0.14306 0.0
C449 C 0.62572 0.55892 0.1404 0.0
C450 C 0.60767 0.52121 0.10596 0.0
C451 C 0.62803 0.51481 0.06507 0.0
C452 C 0.6471 0.53096 0.06121 0.0
C453 C 0.64598 0.55278 0.09881 0.0
C454 C 0.63888 0.46613 0.92119 0.0
C455 C 0.63058 0.44587 0.95906 0.0
C456 C 0.63839 0.48852 0.9557 0.0
C457 C 0.62943 0.4911 0.02851 0.0
C458 C 0.62145 0.47078 0.06648 0.0
C459 C 0.62205 0.44849 0.03234 0.0
H460 H 0.43401 0.39181 0.96435 0.0
H461 H 0.46622 0.36765 0.16967 0.0
H462 H 0.47273 0.39207 0.90464 0.0
H463 H 0.50529 0.36817 0.10934 0.0
H464 H 0.56699 0.34968 0.94487 0.0
H465 H 0.52855 0.34789 1.00883 0.0
H466 H 0.50933 0.41564 0.91289 0.0
H467 H 0.54758 0.41732 0.84897 0.0
C468 C 0.44934 0.3865 0.99692 0.0
C469 C 0.44695 0.37977 0.0721 0.0
C470 C 0.47161 0.38681 0.96262 0.0
C471 C 0.49213 0.38034 1.00235 0.0
C472 C 0.48978 0.37313 0.07711 0.0
C473 C 0.46742 0.37293 0.11174 0.0
C474 C 0.55452 0.36417 0.93764 0.0
C475 C 0.56018 0.38359 0.89168 0.0
C476 C 0.53258 0.36321 0.97455 0.0
C477 C 0.51583 0.38156 0.96565 0.0
C478 C 0.52168 0.40104 0.92005 0.0
C479 C 0.54362 0.40206 0.88363 0.0
H480 H 0.90257 0.43434 0.73311 0.0
H481 H 0.87205 0.46447 0.9333 0.0
H482 H 0.90255 0.47319 0.67509 0.0
H483 H 0.87231 0.50383 0.87447 0.0
H484 H 0.85237 0.56328 0.70118 0.0
H485 H 0.85256 0.52553 0.76906 0.0
H486 H 0.92343 0.51121 0.68776 0.0
H487 H 0.92314 0.5488 0.61982 0.0
C488 C 0.89588 0.44926 0.76508 0.0
C489 C 0.88733 0.44621 0.83819 0.0
C490 C 0.89605 0.47163 0.73173 0.0
C491 C 0.88762 0.49164 0.7703 0.0
C492 C 0.87884 0.48869 0.84322 0.0
C493 C 0.87879 0.46619 0.87701 0.0
C494 C 0.86801 0.55208 0.69824 0.0
C495 C 0.88768 0.55884 0.65487 0.0
C496 C 0.86817 0.53055 0.73743 0.0
C497 C 0.88795 0.51532 0.73349 0.0
C498 C 0.90778 0.52239 0.69109 0.0
C499 C 0.90765 0.54392 0.65229 0.0
H500 H 0.54183 0.09757 0.45375 0.0
H501 H 0.56624 0.1563 0.31982 0.0
H502 H 0.50363 0.09873 0.39121 0.0
H503 H 0.52897 0.15604 0.25098 0.0
H504 H 0.45163 0.16382 0.1792 0.0
H505 H 0.4897 0.16462 0.24452 0.0
H506 H 0.48305 0.08917 0.28835 0.0
H507 H 0.44423 0.08928 0.22913 0.0
C508 C 0.53911 0.11051 0.40985 0.0
C509 C 0.55712 0.12663 0.39097 0.0
C510 C 0.51721 0.11102 0.37296 0.0
C511 C 0.51296 0.1272 0.31435 0.0
C512 C 0.53114 0.14346 0.29603 0.0
C513 C 0.55278 0.14341 0.33476 0.0
C514 C 0.45851 0.1475 0.20294 0.0
C515 C 0.4451 0.12653 0.19967 0.0
C516 C 0.48044 0.14783 0.24014 0.0
C517 C 0.48975 0.12699 0.27297 0.0
C518 C 0.47643 0.10583 0.26659 0.0
C519 C 0.45423 0.10574 0.23169 0.0
H520 H 0.14254 0.54569 0.93148 0.0
H521 H 0.11367 0.57762 0.73179 0.0
H522 H 0.14213 0.50679 0.87006 0.0
H523 H 0.11341 0.53902 0.67108 0.0
H524 H 0.09136 0.46283 0.61578 0.0
H525 H 0.09168 0.50081 0.68218 0.0
H526 H 0.16233 0.48575 0.76388 0.0
H527 H 0.16199 0.44779 0.69739 0.0
C528 C 0.13619 0.54446 0.87461 0.0
C529 C 0.12815 0.56481 0.83671 0.0
C530 C 0.13603 0.52221 0.83938 0.0
C531 C 0.1276 0.51983 0.76587 0.0
C532 C 0.11969 0.5402 0.72806 0.0
C533 C 0.12002 0.56239 0.76288 0.0
C534 C 0.10693 0.46766 0.64795 0.0
C535 C 0.12667 0.45244 0.65125 0.0
C536 C 0.10716 0.48941 0.68578 0.0
C537 C 0.12707 0.4963 0.72812 0.0
C538 C 0.14666 0.48086 0.7323 0.0
C539 C 0.14651 0.4592 0.69391 0.0
H540 H 0.57698 0.89481 0.30234 0.0
H541 H 0.54383 0.86868 0.10075 0.0
H542 H 0.53855 0.89601 0.36338 0.0
H543 H 0.50497 0.86998 0.1629 0.0
H544 H 0.4457 0.85231 0.34233 0.0
H545 H 0.48301 0.85017 0.27188 0.0
H546 H 0.50171 0.92041 0.34949 0.0
H547 H 0.46453 0.92258 0.41925 0.0
C548 C 0.56151 0.88922 0.27091 0.0
C549 C 0.56354 0.8817 0.19635 0.0
C550 C 0.53942 0.89008 0.30597 0.0
C551 C 0.51873 0.88332 0.26774 0.0
C552 C 0.52067 0.87525 0.19373 0.0
C553 C 0.54288 0.87458 0.15816 0.0
C554 C 0.45775 0.86734 0.34371 0.0
C555 C 0.45231 0.88759 0.38639 0.0
C556 C 0.47901 0.86614 0.30321 0.0
C557 C 0.49532 0.88505 0.30561 0.0
C558 C 0.48962 0.90543 0.34737 0.0
C559 C 0.46832 0.9067 0.38716 0.0
H560 H 0.92092 0.96343 0.67425 0.0
H561 H 0.85153 0.94657 0.58594 0.0
H562 H 0.91993 1.00171 0.6098 0.0
H563 H 0.85045 0.98485 0.52171 0.0
H564 H 0.8965 0.07795 0.56148 0.0
H565 H 0.89747 0.03914 0.62035 0.0
H566 H 0.87011 0.00713 0.41899 0.0
H567 H 0.86888 0.04626 0.35952 0.0
C568 C 0.90547 0.96793 0.64106 0.0
C569 C 0.88629 0.95211 0.63526 0.0
C570 C 0.90485 0.98985 0.60436 0.0
C571 C 0.88506 0.99634 0.56081 0.0
C572 C 0.86603 0.98029 0.5542 0.0
C573 C 0.8666 0.95844 0.59129 0.0
C574 C 0.8906 0.06273 0.52944 0.0
C575 C 0.88262 0.06529 0.45549 0.0
C576 C 0.89135 0.0404 0.56323 0.0
C577 C 0.88405 0.02003 0.52422 0.0
C578 C 0.87574 0.02254 0.45063 0.0
C579 C 0.87511 0.04494 0.4165 0.0
H580 H 0.07724 0.11533 0.47918 0.0
H581 H 0.04576 0.1441 0.67981 0.0
H582 H 0.03854 0.11533 0.41928 0.0
H583 H 0.00673 0.14389 0.61923 0.0
H584 H 0.96342 0.09146 0.36677 0.0
H585 H 1.00118 0.09295 0.43297 0.0
H586 H 0.98422 0.1633 0.51355 0.0
H587 H 0.94612 0.16175 0.44687 0.0
C588 C 0.06209 0.12166 0.51073 0.0
C589 C 0.06468 0.12958 0.58468 0.0
C590 C 0.03983 0.12154 0.47632 0.0
C591 C 0.01951 0.12942 0.51468 0.0
C592 C 0.02207 0.13781 0.58812 0.0
C593 C 0.04442 0.1378 0.6229 0.0
C594 C 0.9677 0.10725 0.39867 0.0
C595 C 0.95189 0.12654 0.40136 0.0
C596 C 0.98939 0.10814 0.43638 0.0
C597 C 0.99581 0.12833 0.47797 0.0
C598 C 0.97973 0.14746 0.48223 0.0
C599 C 0.958 0.14662 0.4439 0.0
H600 H 0.10414 0.93545 0.55604 0.0
H601 H 0.15471 0.96217 0.39564 0.0
H602 H 0.10355 0.97368 0.61808 0.0
H603 H 0.15524 1.00043 0.46041 0.0
H604 H 0.13312 0.07327 0.55146 0.0
H605 H 0.13429 0.03529 0.48589 0.0
H606 H 0.12452 0.99865 0.69576 0.0
H607 H 0.12201 0.03677 0.7598 0.0
C608 C 0.11541 0.94948 0.53454 0.0
C609 C 0.12954 0.94575 0.471 0.0
C610 C 0.11523 0.97146 0.57062 0.0
C611 C 0.12954 0.9903 0.54518 0.0
C612 C 0.14371 0.98654 0.48133 0.0
C613 C 0.14355 0.96456 0.44427 0.0
C614 C 0.13128 0.05703 0.58328 0.0
C615 C 0.1274 0.05789 0.66053 0.0
C616 C 0.13209 0.0352 0.54584 0.0
C617 C 0.12942 0.01368 0.58509 0.0
C618 C 0.12607 0.01472 0.66298 0.0
C619 C 0.1248 0.03657 0.70004 0.0
H620 H 0.04715 0.91844 0.36451 0.0
H621 H 0.06526 0.84923 0.45152 0.0
H622 H 0.00838 0.91611 0.42502 0.0
H623 H 0.02628 0.84677 0.51193 0.0
H624 H 0.96286 0.865 0.67059 0.0
H625 H 1.00236 0.86578 0.61337 0.0
H626 H 0.97173 0.89278 0.40955 0.0
H627 H 0.93254 0.89224 0.46623 0.0
C628 C 0.0428 0.90271 0.39652 0.0
C629 C 0.05912 0.88397 0.403 0.0
C630 C 0.02056 0.90131 0.43092 0.0
C631 C 0.01419 0.88117 0.47283 0.0
C632 C 0.03072 0.86257 0.48039 0.0
C633 C 0.05296 0.86392 0.44553 0.0
C634 C 0.96455 0.87096 0.61344 0.0
C635 C 0.94451 0.87867 0.57325 0.0
C636 C 0.98717 0.87134 0.58062 0.0
C637 C 0.99019 0.87956 0.50717 0.0
C638 C 0.97006 0.88675 0.46665 0.0
C639 C 0.94754 0.88628 0.49917 0.0
H640 H 0.36765 0.19264 0.03092 0.0
H641 H 0.395 0.19583 0.25529 0.0
H642 H 0.36958 0.23629 0.02332 0.0
H643 H 0.39722 0.23902 0.2478 0.0
H644 H 0.40701 0.31857 0.19361 0.0
H645 H 0.41436 0.27557 0.18463 0.0
H646 H 0.34379 0.26549 0.09538 0.0
H647 H 0.33636 0.30791 0.1052 0.0
C648 C 0.37491 0.20262 0.07731 0.0
C649 C 0.38114 0.19106 0.14364 0.0
C650 C 0.37581 0.22753 0.07343 0.0
C651 C 0.38332 0.24106 0.13539 0.0
C652 C 0.39148 0.22916 0.19912 0.0
C653 C 0.39017 0.20444 0.2034 0.0
C654 C 0.39307 0.30708 0.17266 0.0
C655 C 0.37111 0.31662 0.15026 0.0
C656 C 0.39732 0.28255 0.16695 0.0
C657 C 0.37981 0.26724 0.13777 0.0
C658 C 0.35785 0.27686 0.11617 0.0
C659 C 0.35351 0.30118 0.12279 0.0
H660 H 0.31357 0.61417 0.81606 0.0
H661 H 0.3148 0.6714 0.97682 0.0
H662 H 0.27007 0.61103 0.83237 0.0
H663 H 0.27264 0.66752 0.99547 0.0
H664 H 0.19695 0.68088 0.92862 0.0
H665 H 0.23977 0.67851 0.92067 0.0
H666 H 0.2359 0.60177 0.9199 0.0
H667 H 0.19215 0.60431 0.92558 0.0
C668 C 0.30464 0.62589 0.85496 0.0
C669 C 0.31754 0.64341 0.89352 0.0
C670 C 0.27986 0.62396 0.86493 0.0
C671 C 0.26781 0.63934 0.91433 0.0
C672 C 0.28112 0.65587 0.95536 0.0
C673 C 0.30545 0.65808 0.94448 0.0
C674 C 0.20518 0.66346 0.92791 0.0
C675 C 0.19125 0.64281 0.92819 0.0
C676 C 0.22981 0.66206 0.92347 0.0
C677 C 0.24138 0.63993 0.91997 0.0
C678 C 0.2275 0.61908 0.92201 0.0
C679 C 0.20256 0.62051 0.92641 0.0
H680 H 0.60346 0.81881 0.14311 0.0
H681 H 0.67624 0.81163 0.07103 0.0
H682 H 0.60127 0.77578 0.16364 0.0
H683 H 0.6739 0.76879 0.0876 0.0
H684 H 0.67665 0.70036 0.20729 0.0
H685 H 0.67405 0.74319 0.19068 0.0
H686 H 0.60134 0.73582 0.11579 0.0
H687 H 0.60379 0.6928 0.13635 0.0
C688 C 0.61869 0.80789 0.1292 0.0
C689 C 0.64005 0.81843 0.10557 0.0
C690 C 0.61751 0.78325 0.14132 0.0
C691 C 0.63762 0.76878 0.12935 0.0
C692 C 0.65832 0.77937 0.10018 0.0
C693 C 0.65959 0.80389 0.08935 0.0
C694 C 0.65993 0.70801 0.1892 0.0
C695 C 0.64044 0.69337 0.17331 0.0
C696 C 0.65851 0.73253 0.17835 0.0
C697 C 0.63771 0.743 0.1495 0.0
C698 C 0.61766 0.72843 0.13785 0.0
C699 C 0.61899 0.7038 0.14999 0.0
H700 H 0.81884 0.36678 1.00286 0.0
H701 H 0.8165 0.39602 0.78082 0.0
H702 H 0.77515 0.36842 1.00879 0.0
H703 H 0.77324 0.39799 0.78673 0.0
H704 H 0.69337 0.40716 0.83994 0.0
H705 H 0.73633 0.41456 0.85093 0.0
H706 H 0.74644 0.34308 0.93246 0.0
H707 H 0.70407 0.3356 0.92054 0.0
C708 C 0.80903 0.37439 0.95671 0.0
C709 C 0.82085 0.38127 0.89147 0.0
C710 C 0.78409 0.37513 0.95963 0.0
C711 C 0.7708 0.38313 0.89781 0.0
C712 C 0.78293 0.39188 0.83529 0.0
C713 C 0.80768 0.39071 0.83191 0.0
C714 C 0.70486 0.39304 0.85959 0.0
C715 C 0.69535 0.37081 0.87921 0.0
C716 C 0.72936 0.39731 0.86646 0.0
C717 C 0.74465 0.37954 0.8941 0.0
C718 C 0.73507 0.35732 0.9129 0.0
C719 C 0.71079 0.35296 0.90507 0.0
H720 H 0.8254 0.69609 0.64554 0.0
H721 H 0.90066 0.69395 0.59852 0.0
H722 H 0.82703 0.73865 0.65771 0.0
H723 H 0.90213 0.73763 0.6059 0.0
H724 H 0.89793 0.81537 0.70045 0.0
H725 H 0.89955 0.77173 0.68952 0.0
H726 H 0.82997 0.77232 0.58699 0.0
H727 H 0.8277 0.81463 0.60286 0.0
C728 C 0.8423 0.70483 0.63611 0.0
C729 C 0.86289 0.69161 0.62089 0.0
C730 C 0.84323 0.72943 0.64267 0.0
C731 C 0.86468 0.74183 0.63212 0.0
C732 C 0.88534 0.72869 0.61512 0.0
C733 C 0.88446 0.70373 0.60972 0.0
C734 C 0.88291 0.80594 0.67693 0.0
C735 C 0.8626 0.81845 0.6535 0.0
C736 C 0.88394 0.78103 0.66965 0.0
C737 C 0.86478 0.76833 0.638 0.0
C738 C 0.8448 0.78116 0.61371 0.0
C739 C 0.84356 0.80566 0.62249 0.0
H740 H 0.81444 0.11069 0.48897 0.0
H741 H 0.81539 0.14897 0.28095 0.0
H742 H 0.77112 0.10911 0.48532 0.0
H743 H 0.77172 0.14759 0.27704 0.0
H744 H 0.70137 0.17696 0.37646 0.0
H745 H 0.7437 0.16973 0.36153 0.0
H746 H 0.73344 0.09609 0.4212 0.0
H747 H 0.69058 0.10333 0.43561 0.0
C748 C 0.8053 0.11792 0.44085 0.0
C749 C 0.81811 0.12976 0.38488 0.0
C750 C 0.78049 0.11707 0.43886 0.0
C751 C 0.76798 0.1285 0.3815 0.0
C752 C 0.78092 0.13884 0.32242 0.0
C753 C 0.80587 0.13936 0.32393 0.0
C754 C 0.70807 0.1592 0.38668 0.0
C755 C 0.6926 0.1407 0.4072 0.0
C756 C 0.73233 0.155 0.37708 0.0
C757 C 0.74187 0.13223 0.38852 0.0
C758 C 0.72655 0.11379 0.41137 0.0
C759 C 0.70209 0.11796 0.42021 0.0
H760 H 0.18437 0.31571 0.69839 0.0
H761 H 0.11655 0.31547 0.58525 0.0
H762 H 0.18121 0.27382 0.72064 0.0
H763 H 0.11421 0.27209 0.60242 0.0
H764 H 0.11008 0.19545 0.69624 0.0
H765 H 0.10932 0.23909 0.68744 0.0
H766 H 0.18566 0.2391 0.65756 0.0
H767 H 0.1864 0.19656 0.67133 0.0
C768 C 0.16888 0.3066 0.67668 0.0
C769 C 0.15077 0.31904 0.63937 0.0
C770 C 0.16714 0.2823 0.68917 0.0
C771 C 0.14766 0.26923 0.66235 0.0
C772 C 0.12942 0.28156 0.62447 0.0
C773 C 0.13088 0.30633 0.61358 0.0
C774 C 0.12667 0.20502 0.6901 0.0
C775 C 0.14832 0.19262 0.68494 0.0
C776 C 0.12623 0.22996 0.68369 0.0
C777 C 0.14742 0.24282 0.6717 0.0
C778 C 0.16898 0.23016 0.66848 0.0
C779 C 0.16943 0.20557 0.67604 0.0
H780 H 0.31732 0.86335 0.51385 0.0
H781 H 0.31555 0.90022 0.30336 0.0
H782 H 0.27368 0.86491 0.51956 0.0
H783 H 0.27227 0.90196 0.30874 0.0
H784 H 0.19198 0.90792 0.36008 0.0
H785 H 0.23484 0.91538 0.37317 0.0
H786 H 0.24546 0.84219 0.43761 0.0
H787 H 0.20313 0.83475 0.42409 0.0
C788 C 0.30763 0.87268 0.47062 0.0
C789 C 0.31961 0.8818 0.40847 0.0
C790 C 0.28271 0.87333 0.47321 0.0
C791 C 0.26954 0.88328 0.41397 0.0
C792 C 0.28182 0.89429 0.35531 0.0
C793 C 0.3066 0.89333 0.3523 0.0
C794 C 0.20357 0.89343 0.37629 0.0
C795 C 0.1942 0.87076 0.39104 0.0
C796 C 0.22803 0.89773 0.38438 0.0
C797 C 0.24344 0.87949 0.40812 0.0
C798 C 0.23401 0.85678 0.42137 0.0
C799 C 0.20976 0.85245 0.41259 0.0
H800 H 0.22582 0.11393 0.68688 0.0
H801 H 0.18383 0.10472 0.88641 0.0
H802 H 0.26208 0.1131 0.76292 0.0
H803 H 0.21938 0.105 0.96167 0.0
H804 H 0.28964 0.0926 0.08165 0.0
H805 H 0.25451 0.08693 1.00272 0.0
H806 H 0.28192 0.1387 0.84679 0.0
H807 H 0.31694 0.14366 0.92386 0.0
C808 C 0.22431 0.1114 0.74654 0.0
C809 C 0.20187 0.10967 0.78029 0.0
C810 C 0.24506 0.11124 0.79049 0.0
C811 C 0.24377 0.10936 0.86906 0.0
C812 C 0.22132 0.10631 0.90176 0.0
C813 C 0.20078 0.10637 0.85817 0.0
C814 C 0.28792 0.10293 0.03101 0.0
C815 C 0.30607 0.11858 1.00927 0.0
C816 C 0.26784 0.09964 0.98534 0.0
C817 C 0.26538 0.11211 0.91733 0.0
C818 C 0.28334 0.12822 0.89721 0.0
C819 C 0.30336 0.13132 0.94222 0.0
H820 H 0.09823 0.72362 0.95689 0.0
H821 H 0.1355 0.68837 0.13637 0.0
H822 H 0.09515 0.7595 0.03441 0.0
H823 H 0.13273 0.72374 0.21191 0.0
H824 H 0.10923 0.78479 0.35848 0.0
H825 H 0.1059 0.74877 0.28179 0.0
H826 H 0.12074 0.79009 0.0843 0.0
H827 H 0.12356 0.82562 0.15937 0.0
C828 C 0.10583 0.7235 1.01236 0.0
C829 C 0.11711 0.70304 0.0399 0.0
C830 C 0.10406 0.74403 0.05695 0.0
C831 C 0.11351 0.74447 0.12996 0.0
C832 C 0.12475 0.72397 0.15696 0.0
C833 C 0.12654 0.70366 0.11279 0.0
C834 C 0.11159 0.78613 0.29871 0.0
C835 C 0.11696 0.8081 0.26564 0.0
C836 C 0.10977 0.76552 0.25465 0.0
C837 C 0.11312 0.76649 0.1766 0.0
C838 C 0.11775 0.78861 0.14377 0.0
C839 C 0.11966 0.80903 0.18747 0.0
H840 H 0.68996 0.87051 0.90605 0.0
H841 H 0.71922 0.91809 0.07147 0.0
H842 H 0.72509 0.87531 0.82983 0.0
H843 H 0.75463 0.92338 0.99345 0.0
H844 H 0.82452 0.90062 0.87882 0.0
H845 H 0.78863 0.90177 0.95247 0.0
H846 H 0.74652 0.90224 0.75094 0.0
H847 H 0.78301 0.90029 0.67605 0.0
C848 C 0.7039 0.88214 0.92621 0.0
C849 C 0.70175 0.89389 0.99526 0.0
C850 C 0.72401 0.8851 0.88173 0.0
C851 C 0.74265 0.89998 0.90463 0.0
C852 C 0.74066 0.91165 0.9741 0.0
C853 C 0.72043 0.9086 1.01907 0.0
C854 C 0.80765 0.90111 0.84963 0.0
C855 C 0.80667 0.89998 0.77116 0.0
C856 C 0.78698 0.90204 0.89233 0.0
C857 C 0.76458 0.90193 0.85805 0.0
C858 C 0.76351 0.90195 0.77931 0.0
C859 C 0.78437 0.90103 0.73623 0.0
H860 H 0.89933 0.28529 0.94165 0.0
H861 H 0.86828 0.3247 0.12434 0.0
H862 H 0.90101 0.24989 0.02103 0.0
H863 H 0.86984 0.28961 0.20244 0.0
H864 H 0.89726 0.22673 0.34483 0.0
H865 H 0.8976 0.26284 0.26764 0.0
H866 H 0.87351 0.22194 0.07842 0.0
H867 H 0.87326 0.18646 0.15358 0.0
C868 C 0.89268 0.28639 0.9982 0.0
C869 C 0.88348 0.30785 0.02592 0.0
C870 C 0.89366 0.26613 0.04387 0.0
C871 C 0.88564 0.26693 0.11842 0.0
C872 C 0.87649 0.2884 0.14589 0.0
C873 C 0.87535 0.3085 0.10036 0.0
C874 C 0.89197 0.22553 0.28691 0.0
C875 C 0.88532 0.20356 0.25595 0.0
C876 C 0.89215 0.24619 0.24258 0.0
C877 C 0.88583 0.24523 0.1664 0.0
C878 C 0.87899 0.22332 0.13616 0.0
C879 C 0.87868 0.20289 0.18005 0.0
H880 H 0.29119 0.41705 0.20009 0.0
H881 H 0.32039 0.36773 0.36041 0.0
H882 H 0.25652 0.42282 0.28131 0.0
H883 H 0.28612 0.37319 0.43988 0.0
H884 H 0.2308 0.39943 0.60093 0.0
H885 H 0.2665 0.40092 0.52206 0.0
H886 H 0.2222 0.40165 0.32525 0.0
H887 H 0.18709 0.4008 0.40295 0.0
C888 C 0.29012 0.40727 0.25198 0.0
C889 C 0.30861 0.39195 0.27343 0.0
C890 C 0.27033 0.41064 0.29882 0.0
C891 C 0.26864 0.39873 0.36797 0.0
C892 C 0.28702 0.38318 0.38835 0.0
C893 C 0.30663 0.37985 0.34194 0.0
C894 C 0.2288 0.40036 0.54095 0.0
C895 C 0.20612 0.39964 0.50844 0.0
C896 C 0.2492 0.40102 0.49558 0.0
C897 C 0.24727 0.40115 0.41696 0.0
C898 C 0.2245 0.40174 0.38519 0.0
C899 C 0.20429 0.40099 0.43015 0.0
H900 H 0.41468 0.72383 0.84029 0.0
H901 H 0.37085 0.69153 0.67013 0.0
H902 H 0.41791 0.75976 0.76313 0.0
H903 H 0.37371 0.72697 0.59504 0.0
H904 H 0.39763 0.78636 0.44312 0.0
H905 H 0.3999 0.75013 0.51875 0.0
H906 H 0.3941 0.79228 0.71931 0.0
H907 H 0.39246 0.82801 0.64521 0.0
C908 C 0.40563 0.72442 0.78703 0.0
C909 C 0.39259 0.70472 0.76173 0.0
C910 C 0.40748 0.74496 0.74261 0.0
C911 C 0.39628 0.74621 0.67214 0.0
C912 C 0.3831 0.72655 0.64775 0.0
C913 C 0.38129 0.7062 0.69166 0.0
C914 C 0.397 0.78785 0.50328 0.0
C915 C 0.39461 0.81018 0.53748 0.0
C916 C 0.39821 0.76709 0.54681 0.0
C917 C 0.39711 0.76822 0.62547 0.0
C918 C 0.39533 0.79062 0.65927 0.0
C919 C 0.3941 0.8112 0.61614 0.0
H920 H 0.71976 0.59331 0.20942 0.0
H921 H 0.69086 0.64189 0.37251 0.0
H922 H 0.75499 0.58786 0.28814 0.0
H923 H 0.72585 0.63697 0.44944 0.0
H924 H 0.78303 0.61154 0.60569 0.0
H925 H 0.7467 0.61029 0.52992 0.0
H926 H 0.78933 0.60852 0.32956 0.0
H927 H 0.82504 0.60892 0.40416 0.0
C928 C 0.72103 0.60301 0.26143 0.0
C929 C 0.70247 0.61801 0.28441 0.0
C930 C 0.74117 0.59987 0.30682 0.0
C931 C 0.74322 0.61177 0.37593 0.0
C932 C 0.72473 0.62699 0.3979 0.0
C933 C 0.7047 0.63003 0.35301 0.0
C934 C 0.78454 0.61044 0.5456 0.0
C935 C 0.80697 0.61061 0.51131 0.0
C936 C 0.76376 0.60995 0.50196 0.0
C937 C 0.76501 0.60954 0.42324 0.0
C938 C 0.78751 0.6086 0.38966 0.0
C939 C 0.8081 0.60908 0.43291 0.0
H940 H 0.61218 0.18502 0.63314 0.0
H941 H 0.61392 0.22783 0.43323 0.0
H942 H 0.61142 0.2204 0.70919 0.0
H943 H 0.61241 0.26384 0.51064 0.0
H944 H 0.64373 0.31921 0.67041 0.0
H945 H 0.6391 0.28451 0.59224 0.0
H946 H 0.59016 0.25442 0.75208 0.0
H947 H 0.59521 0.28948 0.83213 0.0
C948 C 0.61214 0.20206 0.60503 0.0
C949 C 0.6135 0.20351 0.52661 0.0
C950 C 0.61142 0.22246 0.64917 0.0
C951 C 0.612 0.24509 0.61656 0.0
C952 C 0.61232 0.24667 0.53785 0.0
C953 C 0.613 0.22607 0.49328 0.0
C954 C 0.63194 0.30523 0.68941 0.0
C955 C 0.61984 0.30719 0.75797 0.0
C956 C 0.62909 0.28536 0.64375 0.0
C957 C 0.61399 0.2667 0.66486 0.0
C958 C 0.60205 0.26841 0.73402 0.0
C959 C 0.60498 0.28843 0.7802 0.0
H960 H 0.37708 0.07694 0.42936 0.0
H961 H 0.33637 0.14191 0.4276 0.0
H962 H 0.38564 0.08265 0.56157 0.0
H963 H 0.34628 0.1488 0.55708 0.0
H964 H 0.35378 0.14872 0.80697 0.0
H965 H 0.34216 0.14073 0.6794 0.0
H966 H 0.40877 0.1039 0.64296 0.0
H967 H 0.41932 0.11039 0.77342 0.0
C968 C 0.36972 0.09229 0.45767 0.0
C969 C 0.35591 0.10885 0.41842 0.0
C970 C 0.375 0.09588 0.53323 0.0
C971 C 0.36709 0.11647 0.5708 0.0
C972 C 0.3525 0.13253 0.53147 0.0
C973 C 0.34675 0.1286 0.45668 0.0
C974 C 0.3661 0.13923 0.77129 0.0
C975 C 0.38757 0.13037 0.79988 0.0
C976 C 0.35944 0.1346 0.69764 0.0
C977 C 0.37438 0.12152 0.64971 0.0
C978 C 0.39638 0.11348 0.67802 0.0
C979 C 0.40273 0.11756 0.75253 0.0
H980 H 0.08399 0.62604 0.62741 0.0
H981 H 0.14447 0.67258 0.60374 0.0
H982 H 0.08694 0.61515 0.49664 0.0
H983 H 0.14684 0.66267 0.47126 0.0
H984 H 0.16073 0.62255 0.25514 0.0
H985 H 0.15793 0.63219 0.38795 0.0
H986 H 0.08131 0.62713 0.37463 0.0
H987 H 0.08436 0.61636 0.24406 0.0
C988 C 0.09756 0.63443 0.59361 0.0
C989 C 0.11392 0.65026 0.62573 0.0
C990 C 0.09929 0.62819 0.51831 0.0
C991 C 0.11725 0.63787 0.47272 0.0
C992 C 0.1331 0.65441 0.50461 0.0
C993 C 0.13154 0.66041 0.58034 0.0
C994 C 0.14338 0.62304 0.28131 0.0
C995 C 0.1228 0.6185 0.23938 0.0
C996 C 0.14169 0.62892 0.35719 0.0
C997 C 0.11934 0.63068 0.39255 0.0
C998 C 0.09886 0.62563 0.35033 0.0
C999 C 0.10059 0.61947 0.27506 0.0
H1000 H 0.67056 0.86416 0.42929 0.0
H1001 H 0.62561 0.92586 0.40572 0.0
H1002 H 0.66072 0.86216 0.56191 0.0
H1003 H 0.61481 0.92331 0.53658 0.0
H1004 H 0.61654 0.92609 0.789 0.0
H1005 H 0.62735 0.92872 0.65841 0.0
H1006 H 0.62976 0.85199 0.64514 0.0
H1007 H 0.62004 0.84955 0.77795 0.0
C1008 C 0.65876 0.87743 0.45273 0.0
C1009 C 0.64901 0.89527 0.40736 0.0
C1010 C 0.6528 0.87609 0.52852 0.0
C1011 C 0.63673 0.89242 0.56041 0.0
C1012 C 0.62748 0.91059 0.51484 0.0
C1013 C 0.63367 0.91208 0.43951 0.0
C1014 C 0.61907 0.90975 0.75801 0.0
C1015 C 0.61733 0.88759 0.79367 0.0
C1016 C 0.62525 0.91125 0.68275 0.0
C1017 C 0.62957 0.89059 0.64057 0.0
C1018 C 0.62706 0.86833 0.67591 0.0
C1019 C 0.62113 0.86686 0.75177 0.0
H1020 H 0.88227 0.41484 0.2665 0.0
H1021 H 0.90876 0.34427 0.22018 0.0
H1022 H 0.88673 0.40718 0.40104 0.0
H1023 H 0.91293 0.33666 0.35281 0.0
H1024 H 0.88888 0.32569 0.59952 0.0
H1025 H 0.88518 0.33264 0.46526 0.0
H1026 H 0.92312 0.39895 0.48858 0.0
H1027 H 0.92714 0.39189 0.62227 0.0
C1028 C 0.88886 0.39776 0.2851 0.0
C1029 C 0.89532 0.38023 0.23337 0.0
C1030 C 0.89154 0.3934 0.36161 0.0
C1031 C 0.90024 0.37133 0.38686 0.0
C1032 C 0.9061 0.35374 0.33484 0.0
C1033 C 0.90381 0.35819 0.25897 0.0
C1034 C 0.8969 0.34144 0.57557 0.0
C1035 C 0.90835 0.35819 0.62101 0.0
C1036 C 0.89463 0.34551 0.49906 0.0
C1037 C 0.90351 0.36655 0.46717 0.0
C1038 C 0.91575 0.38284 0.5122 0.0
C1039 C 0.91833 0.3786 0.58839 0.0
H1040 H 0.38632 0.34725 0.48918 0.0
H1041 H 0.39726 0.42308 0.4784 0.0
H1042 H 0.3768 0.35064 0.62194 0.0
H1043 H 0.38668 0.42677 0.60896 0.0
H1044 H 0.38792 0.42374 0.86185 0.0
H1045 H 0.39846 0.42022 0.73097 0.0
H1046 H 0.34695 0.36373 0.70512 0.0
H1047 H 0.33731 0.36662 0.83771 0.0
C1048 C 0.3869 0.36459 0.5154 0.0
C1049 C 0.39273 0.38485 0.47357 0.0
C1050 C 0.3811 0.36663 0.59125 0.0
C1051 C 0.38073 0.38904 0.62668 0.0
C1052 C 0.38708 0.40917 0.58457 0.0
C1053 C 0.39314 0.40706 0.50932 0.0
C1054 C 0.37858 0.41082 0.82794 0.0
C1055 C 0.3617 0.39554 0.85996 0.0
C1056 C 0.38462 0.40877 0.75258 0.0
C1057 C 0.37372 0.39156 0.70684 0.0
C1058 C 0.35615 0.37684 0.73861 0.0
C1059 C 0.35031 0.37873 0.8144 0.0
H1060 H 0.35385 0.66173 0.18083 0.0
H1061 H 0.4279 0.64185 0.18729 0.0
H1062 H 0.34968 0.6515 0.31134 0.0
H1063 H 0.42425 0.63285 0.32025 0.0
H1064 H 0.40543 0.59568 0.53785 0.0
H1065 H 0.40915 0.60532 0.40548 0.0
H1066 H 0.35729 0.66147 0.43273 0.0
H1067 H 0.3527 0.65078 0.56295 0.0
C1068 C 0.36946 0.65575 0.21087 0.0
C1069 C 0.39124 0.6527 0.17382 0.0
C1070 C 0.36709 0.64989 0.2862 0.0
C1071 C 0.38658 0.6412 0.3273 0.0
C1072 C 0.40867 0.63897 0.29055 0.0
C1073 C 0.41091 0.64449 0.21452 0.0
C1074 C 0.39449 0.60972 0.5148 0.0
C1075 C 0.37855 0.62225 0.56049 0.0
C1076 C 0.39688 0.61556 0.43911 0.0
C1077 C 0.38367 0.63436 0.40762 0.0
C1078 C 0.36749 0.64661 0.45378 0.0
C1079 C 0.36482 0.64048 0.52886 0.0
H1080 H 0.67141 0.64756 0.84981 0.0
H1081 H 0.62616 0.5861 0.87349 0.0
H1082 H 0.66154 0.64962 0.71722 0.0
H1083 H 0.61531 0.58872 0.74269 0.0
H1084 H 0.61682 0.58589 0.49031 0.0
H1085 H 0.62766 0.58322 0.62087 0.0
H1086 H 0.63073 0.65994 0.63379 0.0
H1087 H 0.621 0.6624 0.50098 0.0
C1088 C 0.65954 0.63435 0.8264 0.0
C1089 C 0.64973 0.61655 0.8718 0.0
C1090 C 0.65355 0.63573 0.75062 0.0
C1091 C 0.63739 0.61949 0.71875 0.0
C1092 C 0.62806 0.60137 0.76437 0.0
C1093 C 0.63428 0.59984 0.83968 0.0
C1094 C 0.6195 0.60222 0.52122 0.0
C1095 C 0.61794 0.62437 0.48544 0.0
C1096 C 0.6257 0.60071 0.59648 0.0
C1097 C 0.63021 0.62134 0.63857 0.0
C1098 C 0.62788 0.64361 0.60311 0.0
C1099 C 0.62194 0.64509 0.52724 0.0
H1100 H 0.65995 0.36139 0.56083 0.0
H1101 H 0.60687 0.4161 0.53468 0.0
H1102 H 0.65557 0.3505 0.4307 0.0
H1103 H 0.6034 0.40631 0.40235 0.0
H1104 H 0.58497 0.36956 0.18457 0.0
H1105 H 0.58852 0.37871 0.31741 0.0
H1106 H 0.66312 0.36007 0.3092 0.0
H1107 H 0.65901 0.34964 0.17876 0.0
C1108 C 0.6478 0.37157 0.52651 0.0
C1109 C 0.6339 0.38974 0.55782 0.0
C1110 C 0.64526 0.36533 0.45146 0.0
C1111 C 0.62904 0.3774 0.40503 0.0
C1112 C 0.61569 0.39618 0.43619 0.0
C1113 C 0.61793 0.40211 0.51186 0.0
C1114 C 0.60194 0.36695 0.21194 0.0
C1115 C 0.62164 0.35868 0.17146 0.0
C1116 C 0.60414 0.37256 0.2879 0.0
C1117 C 0.6262 0.37041 0.3248 0.0
C1118 C 0.64571 0.36164 0.28395 0.0
C1119 C 0.64339 0.35566 0.20866 0.0
H1120 H 0.86512 0.58311 0.93936 0.0
H1121 H 0.85276 0.65876 0.93123 0.0
H1122 H 0.87455 0.5862 0.07226 0.0
H1123 H 0.86336 0.66221 0.06171 0.0
H1124 H 0.86304 0.65916 0.31361 0.0
H1125 H 0.85213 0.65545 0.18322 0.0
H1126 H 0.90386 0.59917 0.15645 0.0
H1127 H 0.91375 0.60216 0.28886 0.0
C1128 C 0.86421 0.60034 0.96621 0.0
C1129 C 0.858 0.62064 0.9251 0.0
C1130 C 0.86997 0.60223 0.04214 0.0
C1131 C 0.86995 0.62451 0.07832 0.0
C1132 C 0.86324 0.64467 0.03687 0.0
C1133 C 0.85717 0.64272 0.96161 0.0
C1134 C 0.87233 0.64623 0.27961 0.0
C1135 C 0.88937 0.63106 0.31134 0.0
C1136 C 0.86608 0.64407 0.20448 0.0
C1137 C 0.87699 0.62692 0.15852 0.0
C1138 C 0.89466 0.61225 0.19005 0.0
C1139 C 0.90064 0.61419 0.26573 0.0
H1140 H 0.60459 0.09517 0.7488 0.0
H1141 H 0.65814 0.14938 0.72177 0.0
H1142 H 0.60153 0.10493 0.88126 0.0
H1143 H 0.65425 0.16015 0.85224 0.0
H1144 H 0.65797 0.16048 0.10477 0.0
H1145 H 0.66192 0.15004 0.97408 0.0
H1146 H 0.58692 0.1332 0.96525 0.0
H1147 H 0.58346 0.14244 0.098 0.0
C1148 C 0.61585 0.10903 0.77144 0.0
C1149 C 0.63178 0.12132 0.72516 0.0
C1150 C 0.61385 0.11493 0.84718 0.0
C1151 C 0.62747 0.13355 0.87812 0.0
C1152 C 0.64372 0.14547 0.83149 0.0
C1153 C 0.64597 0.1393 0.7563 0.0
C1154 C 0.64224 0.15486 0.07464 0.0
C1155 C 0.62038 0.15237 0.11156 0.0
C1156 C 0.64448 0.14887 0.99931 0.0
C1157 C 0.62479 0.14058 0.95831 0.0
C1158 C 0.60265 0.13896 0.99495 0.0
C1159 C 0.60052 0.14462 0.07084 0.0
H1160 H 0.11443 0.42236 0.30509 0.0
H1161 H 0.13276 0.34797 0.29527 0.0
H1162 H 0.12473 0.42687 0.17454 0.0
H1163 H 0.14194 0.35202 0.16257 0.0
H1164 H 0.17953 0.3708 0.94621 0.0
H1165 H 0.17005 0.36722 0.07868 0.0
H1166 H 0.11435 0.41958 0.05238 0.0
H1167 H 0.12478 0.42392 0.92166 0.0
C1168 C 0.12012 0.40678 0.27436 0.0
C1169 C 0.12268 0.38477 0.31044 0.0
C1170 C 0.12602 0.40935 0.19906 0.0
C1171 C 0.13434 0.38987 0.15716 0.0
C1172 C 0.13611 0.3676 0.19296 0.0
C1173 C 0.13051 0.36513 0.26884 0.0
C1174 C 0.16562 0.38188 0.9694 0.0
C1175 C 0.15307 0.3978 0.92373 0.0
C1176 C 0.15988 0.37958 0.04518 0.0
C1177 C 0.1412 0.39291 0.0769 0.0
C1178 C 0.12906 0.40922 0.03098 0.0
C1179 C 0.13503 0.41174 0.95566 0.0
H1180 H 0.37796 0.8342 0.09698 0.0
H1181 H 0.42869 0.891 0.12621 0.0
H1182 H 0.37445 0.84429 0.96473 0.0
H1183 H 0.42459 0.90171 0.99574 0.0
H1184 H 0.42744 0.90262 0.74289 0.0
H1185 H 0.43256 0.89098 0.87219 0.0
H1186 H 0.35762 0.87449 0.88664 0.0
H1187 H 0.35279 0.88533 0.75529 0.0
C1188 C 0.38866 0.84856 0.07483 0.0
C1189 C 0.40368 0.86172 0.12182 0.0
C1190 C 0.38636 0.85463 0.99933 0.0
C1191 C 0.39897 0.87406 0.9694 0.0
C1192 C 0.41474 0.88652 1.01618 0.0
C1193 C 0.41713 0.88035 0.09124 0.0
C1194 C 0.41196 0.89683 0.77393 0.0
C1195 C 0.38968 0.89501 0.73905 0.0
C1196 C 0.4149 0.89013 0.84833 0.0
C1197 C 0.39556 0.88161 0.89023 0.0
C1198 C 0.37303 0.88052 0.85584 0.0
C1199 C 0.37014 0.88709 0.78093 0.0
H1200 H 0.84989 0.85333 0.35241 0.0
H1201 H 0.86801 0.92782 0.34527 0.0
H1202 H 0.86014 0.84927 0.22184 0.0
H1203 H 0.87707 0.92423 0.21227 0.0
H1204 H 0.91482 0.9057 0.99524 0.0
H1205 H 0.90521 0.90927 0.12772 0.0
H1206 H 0.8495 0.85696 0.10054 0.0
H1207 H 0.8601 0.85257 0.97015 0.0
C1208 C 0.8555 0.86904 0.32223 0.0
C1209 C 0.85805 0.89092 0.35903 0.0
C1210 C 0.86136 0.86674 0.24691 0.0
C1211 C 0.86957 0.88638 0.2057 0.0
C1212 C 0.87131 0.90855 0.24218 0.0
C1213 C 0.86576 0.91075 0.31817 0.0
C1214 C 0.90088 0.89464 1.01832 0.0
C1215 C 0.88841 0.87866 0.97262 0.0
C1216 C 0.89507 0.89693 0.09403 0.0
C1217 C 0.87639 0.88355 0.12546 0.0
C1218 C 0.86425 0.8673 0.07938 0.0
C1219 C 0.87032 0.86475 1.00424 0.0
H1220 H 0.85332 0.12295 0.03246 0.0
H1221 H 0.9297 0.11787 0.04982 0.0
H1222 H 0.85723 0.1336 0.90042 0.0
H1223 H 0.9337 0.12906 0.91971 0.0
H1224 H 0.93046 0.12606 0.66487 0.0
H1225 H 0.92722 0.11535 0.79584 0.0
H1226 H 0.87083 0.1668 0.82371 0.0
H1227 H 0.87374 0.17706 0.69145 0.0
C1228 C 0.87088 0.12376 1.00776 0.0
C1229 C 0.89118 0.11944 0.05118 0.0
C1230 C 0.87317 0.13021 0.93254 0.0
C1231 C 0.89582 0.13242 0.8995 0.0
C1232 C 0.91599 0.12734 0.94283 0.0
C1233 C 0.91369 0.12091 1.01758 0.0
C1234 C 0.91771 0.13544 0.6993 0.0
C1235 C 0.90241 0.15245 0.66801 0.0
C1236 C 0.91579 0.12925 0.77447 0.0
C1237 C 0.89855 0.13998 0.82031 0.0
C1238 C 0.88396 0.15782 0.78966 0.0
C1239 C 0.88589 0.16401 0.71423 0.0
H1240 H 0.08608 0.12496 1.00995 0.0
H1241 H 0.15716 0.15225 0.97712 0.0
H1242 H 0.09416 0.1212 0.14428 0.0
H1243 H 0.1653 0.14765 0.10995 0.0
H1244 H 0.17082 0.10175 0.3392 0.0
H1245 H 0.16214 0.10405 0.20446 0.0
H1246 H 0.11033 0.159 0.24633 0.0
H1247 H 0.11939 0.15745 0.3789 0.0
C1248 C 0.10324 0.13035 0.03153 0.0
C1249 C 0.12089 0.13911 0.98361 0.0
C1250 C 0.10792 0.12797 0.10775 0.0
C1251 C 0.13046 0.13373 0.13617 0.0
C1252 C 0.14794 0.14278 0.08856 0.0
C1253 C 0.14312 0.1457 1.01299 0.0
C1254 C 0.15772 0.11434 0.31918 0.0
C1255 C 0.14598 0.12959 0.36889 0.0
C1256 C 0.15272 0.1156 0.24274 0.0
C1257 C 0.13547 0.13159 0.21618 0.0
C1258 C 0.12355 0.14648 0.26606 0.0
C1259 C 0.12893 0.14567 0.34161 0.0
H1260 H 0.14374 0.83545 0.7039 0.0
H1261 H 0.08875 0.8883 0.679 0.0
H1262 H 0.14698 0.84514 0.83636 0.0
H1263 H 0.09276 0.89902 0.8095 0.0
H1264 H 0.09004 0.89963 0.06176 0.0
H1265 H 0.08587 0.88886 0.93151 0.0
H1266 H 0.16117 0.87358 0.92047 0.0
H1267 H 0.16489 0.88314 0.05301 0.0
C1268 C 0.13219 0.84899 0.72702 0.0
C1269 C 0.11584 0.86094 0.68126 0.0
C1270 C 0.13429 0.85486 0.80278 0.0
C1271 C 0.12032 0.87311 0.83436 0.0
C1272 C 0.10361 0.88464 0.78831 0.0
C1273 C 0.10128 0.8785 0.71306 0.0
C1274 C 0.10579 0.89427 0.03129 0.0
C1275 C 0.12783 0.89236 0.06761 0.0
C1276 C 0.10342 0.8881 0.95614 0.0
C1277 C 0.12314 0.88019 0.91455 0.0
C1278 C 0.14542 0.87907 0.95058 0.0
C1279 C 0.14769 0.88491 0.02637 0.0
loop_
_geom_bond_atom_site_label_1
_geom_bond_atom_site_label_2
_geom_bond_distance
_geom_bond_site_symmetry_2
_ccdc_geom_bond_type
Dy0 O4 2.398 . S
Dy0 O5 2.491 . S
Dy0 O6 2.403 . S
Dy0 O7 2.664 . S
Dy0 O11 2.326 . S
Dy0 O15 2.310 . S
Dy0 O16 2.351 . S
C1 O12 1.185 . S
C1 O13 1.355 . S
C2 O4 1.185 . S
C2 O5 1.355 . S
Dy3 O7 2.310 . S
Dy3 O10 2.351 . S
Dy3 O12 2.398 1_554 S
Dy3 O13 2.491 1_554 S
Dy3 O14 2.403 . S
Dy3 O15 2.664 . S
Dy3 O17 2.326 . S
O4 Dy0 2.398 . S
O4 C2 1.185 . S
O5 Dy0 2.491 . S
O5 C2 1.355 . S
O6 Dy0 2.403 . S
O6 C8 1.254 . S
O7 Dy0 2.664 . S
O7 Dy3 2.310 . S
O7 C8 1.268 . S
C8 O6 1.254 . S
C8 O7 1.268 . S
C9 O14 1.254 . S
C9 O15 1.268 . S
O10 Dy3 2.351 . S
O10 C18 1.249 . S
O11 Dy0 2.326 . S
O11 C18 1.267 . S
O12 C1 1.185 . S
O12 Dy3 2.398 1_556 S
O13 C1 1.355 . S
O13 Dy3 2.491 1_556 S
O14 Dy3 2.403 . S
O14 C9 1.254 . S
O15 Dy0 2.310 . S
O15 Dy3 2.664 . S
O15 C9 1.268 . S
O16 Dy0 2.351 . S
O16 C19 1.249 . S
O17 Dy3 2.326 . S
O17 C19 1.267 . S
C18 O10 1.249 . S
C18 O11 1.267 . S
C19 O16 1.249 . S
C19 O17 1.267 . S
Dy20 O24 2.398 1_556 S
Dy20 O25 2.491 1_556 S
Dy20 O26 2.403 . S
Dy20 O27 2.664 . S
Dy20 O31 2.326 . S
Dy20 O35 2.310 . S
Dy20 O36 2.351 . S
C21 O32 1.185 . S
C21 O33 1.355 . S
C22 O24 1.185 . S
C22 O25 1.355 . S
Dy23 O27 2.310 . S
Dy23 O30 2.351 . S
Dy23 O32 2.398 . S
Dy23 O33 2.491 . S
Dy23 O34 2.403 . S
Dy23 O35 2.664 . S
Dy23 O37 2.326 . S
O24 Dy20 2.398 1_554 S
O24 C22 1.185 . S
O25 Dy20 2.491 1_554 S
O25 C22 1.355 . S
O26 Dy20 2.403 . S
O26 C28 1.254 . S
O27 Dy20 2.664 . S
O27 Dy23 2.310 . S
O27 C28 1.268 . S
C28 O26 1.254 . S
C28 O27 1.268 . S
C29 O34 1.254 . S
C29 O35 1.268 . S
O30 Dy23 2.351 . S
O30 C38 1.249 . S
O31 Dy20 2.326 . S
O31 C38 1.267 . S
O32 C21 1.185 . S
O32 Dy23 2.398 . S
O33 C21 1.355 . S
O33 Dy23 2.491 . S
O34 Dy23 2.403 . S
O34 C29 1.254 . S
O35 Dy20 2.310 . S
O35 Dy23 2.664 . S
O35 C29 1.268 . S
O36 Dy20 2.351 . S
O36 C39 1.249 . S
O37 Dy23 2.326 . S
O37 C39 1.267 . S
C38 O30 1.249 . S
C38 O31 1.267 . S
C39 O36 1.249 . S
C39 O37 1.267 . S
Dy40 O44 2.398 . S
Dy40 O45 2.491 . S
Dy40 O46 2.403 . S
Dy40 O47 2.664 . S
Dy40 O51 2.326 . S
Dy40 O55 2.310 . S
Dy40 O56 2.351 . S
C41 O52 1.185 . S
C41 O53 1.355 . S
C42 O44 1.185 . S
C42 O45 1.355 . S
Dy43 O47 2.310 . S
Dy43 O50 2.351 . S
Dy43 O52 2.398 1_554 S
Dy43 O53 2.491 1_554 S
Dy43 O54 2.403 . S
Dy43 O55 2.664 . S
Dy43 O57 2.326 . S
O44 Dy40 2.398 . S
O44 C42 1.185 . S
O45 Dy40 2.491 . S
O45 C42 1.355 . S
O46 Dy40 2.403 . S
O46 C48 1.254 . S
O47 Dy40 2.664 . S
O47 Dy43 2.310 . S
O47 C48 1.268 . S
C48 O46 1.254 . S
C48 O47 1.268 . S
C49 O54 1.254 . S
C49 O55 1.268 . S
O50 Dy43 2.351 . S
O50 C58 1.249 . S
O51 Dy40 2.326 . S
O51 C58 1.267 . S
O52 C41 1.185 . S
O52 Dy43 2.398 1_556 S
O53 C41 1.355 . S
O53 Dy43 2.491 1_556 S
O54 Dy43 2.403 . S
O54 C49 1.254 . S
O55 Dy40 2.310 . S
O55 Dy43 2.664 . S
O55 C49 1.268 . S
O56 Dy40 2.351 . S
O56 C59 1.249 . S
O57 Dy43 2.326 . S
O57 C59 1.267 . S
C58 O50 1.249 . S
C58 O51 1.267 . S
C59 O56 1.249 . S
C59 O57 1.267 . S
Dy60 O64 2.398 1_556 S
Dy60 O65 2.491 1_556 S
Dy60 O66 2.403 . S
Dy60 O67 2.664 . S
Dy60 O71 2.326 . S
Dy60 O75 2.310 . S
Dy60 O76 2.351 . S
C61 O72 1.185 . S
C61 O73 1.355 . S
C62 O64 1.185 . S
C62 O65 1.355 . S
Dy63 O67 2.310 . S
Dy63 O70 2.351 . S
Dy63 O72 2.398 . S
Dy63 O73 2.491 . S
Dy63 O74 2.403 . S
Dy63 O75 2.664 . S
Dy63 O77 2.326 . S
O64 Dy60 2.398 1_554 S
O64 C62 1.185 . S
O65 Dy60 2.491 1_554 S
O65 C62 1.355 . S
O66 Dy60 2.403 . S
O66 C68 1.254 . S
O67 Dy60 2.664 . S
O67 Dy63 2.310 . S
O67 C68 1.268 . S
C68 O66 1.254 . S
C68 O67 1.268 . S
C69 O74 1.254 . S
C69 O75 1.268 . S
O70 Dy63 2.351 . S
O70 C78 1.249 . S
O71 Dy60 2.326 . S
O71 C78 1.267 . S
O72 C61 1.185 . S
O72 Dy63 2.398 . S
O73 C61 1.355 . S
O73 Dy63 2.491 . S
O74 Dy63 2.403 . S
O74 C69 1.254 . S
O75 Dy60 2.310 . S
O75 Dy63 2.664 . S
O75 C69 1.268 . S
O76 Dy60 2.351 . S
O76 C79 1.249 . S
O77 Dy63 2.326 . S
O77 C79 1.267 . S
C78 O70 1.249 . S
C78 O71 1.267 . S
C79 O76 1.249 . S
C79 O77 1.267 . S
Dy80 O84 2.398 1_554 S
Dy80 O85 2.491 1_554 S
Dy80 O86 2.403 . S
Dy80 O87 2.664 . S
Dy80 O91 2.326 . S
Dy80 O95 2.310 . S
Dy80 O96 2.351 . S
C81 O92 1.185 . S
C81 O93 1.355 . S
C82 O84 1.185 . S
C82 O85 1.355 . S
Dy83 O87 2.310 . S
Dy83 O90 2.351 . S
Dy83 O92 2.398 . S
Dy83 O93 2.491 . S
Dy83 O94 2.403 . S
Dy83 O95 2.664 . S
Dy83 O97 2.326 . S
O84 Dy80 2.398 1_556 S
O84 C82 1.185 . S
O85 Dy80 2.491 1_556 S
O85 C82 1.355 . S
O86 Dy80 2.403 . S
O86 C88 1.254 . S
O87 Dy80 2.664 . S
O87 Dy83 2.310 . S
O87 C88 1.268 . S
C88 O86 1.254 . S
C88 O87 1.268 . S
C89 O94 1.254 . S
C89 O95 1.268 . S
O90 Dy83 2.351 . S
O90 C98 1.249 . S
O91 Dy80 2.326 . S
O91 C98 1.267 . S
O92 C81 1.185 . S
O92 Dy83 2.398 . S
O93 C81 1.355 . S
O93 Dy83 2.491 . S
O94 Dy83 2.403 . S
O94 C89 1.254 . S
O95 Dy80 2.310 . S
O95 Dy83 2.664 . S
O95 C89 1.268 . S
O96 Dy80 2.351 . S
O96 C99 1.249 . S
O97 Dy83 2.326 . S
O97 C99 1.267 . S
C98 O90 1.249 . S
C98 O91 1.267 . S
C99 O96 1.249 . S
C99 O97 1.267 . S
Dy100 O104 2.398 . S
Dy100 O105 2.491 . S
Dy100 O106 2.403 . S
Dy100 O107 2.664 . S
Dy100 O111 2.326 . S
Dy100 O115 2.310 . S
Dy100 O116 2.351 . S
C101 O112 1.185 . S
C101 O113 1.355 . S
C102 O104 1.185 . S
C102 O105 1.355 . S
Dy103 O107 2.310 . S
Dy103 O110 2.351 . S
Dy103 O112 2.398 1_556 S
Dy103 O113 2.491 1_556 S
Dy103 O114 2.403 . S
Dy103 O115 2.664 . S
Dy103 O117 2.326 . S
O104 Dy100 2.398 . S
O104 C102 1.185 . S
O105 Dy100 2.491 . S
O105 C102 1.355 . S
O106 Dy100 2.403 . S
O106 C108 1.254 . S
O107 Dy100 2.664 . S
O107 Dy103 2.310 . S
O107 C108 1.268 . S
C108 O106 1.254 . S
C108 O107 1.268 . S
C109 O114 1.254 . S
C109 O115 1.268 . S
O110 Dy103 2.351 . S
O110 C118 1.249 . S
O111 Dy100 2.326 . S
O111 C118 1.267 . S
O112 C101 1.185 . S
O112 Dy103 2.398 1_554 S
O113 C101 1.355 . S
O113 Dy103 2.491 1_554 S
O114 Dy103 2.403 . S
O114 C109 1.254 . S
O115 Dy100 2.310 . S
O115 Dy103 2.664 . S
O115 C109 1.268 . S
O116 Dy100 2.351 . S
O116 C119 1.249 . S
O117 Dy103 2.326 . S
O117 C119 1.267 . S
C118 O110 1.249 . S
C118 O111 1.267 . S
C119 O116 1.249 . S
C119 O117 1.267 . S
Dy120 O124 2.398 1_554 S
Dy120 O125 2.491 1_554 S
Dy120 O126 2.403 . S
Dy120 O127 2.664 . S
Dy120 O131 2.326 . S
Dy120 O135 2.310 . S
Dy120 O136 2.351 . S
C121 O132 1.185 . S
C121 O133 1.355 . S
C122 O124 1.185 . S
C122 O125 1.355 . S
Dy123 O127 2.310 . S
Dy123 O130 2.351 . S
Dy123 O132 2.398 . S
Dy123 O133 2.491 . S
Dy123 O134 2.403 . S
Dy123 O135 2.664 . S
Dy123 O137 2.326 . S
O124 Dy120 2.398 1_556 S
O124 C122 1.185 . S
O125 Dy120 2.491 1_556 S
O125 C122 1.355 . S
O126 Dy120 2.403 . S
O126 C128 1.254 . S
O127 Dy120 2.664 . S
O127 Dy123 2.310 . S
O127 C128 1.268 . S
C128 O126 1.254 . S
C128 O127 1.268 . S
C129 O134 1.254 . S
C129 O135 1.268 . S
O130 Dy123 2.351 . S
O130 C138 1.249 . S
O131 Dy120 2.326 . S
O131 C138 1.267 . S
O132 C121 1.185 . S
O132 Dy123 2.398 . S
O133 C121 1.355 . S
O133 Dy123 2.491 . S
O134 Dy123 2.403 . S
O134 C129 1.254 . S
O135 Dy120 2.310 . S
O135 Dy123 2.664 . S
O135 C129 1.268 . S
O136 Dy120 2.351 . S
O136 C139 1.249 . S
O137 Dy123 2.326 . S
O137 C139 1.267 . S
C138 O130 1.249 . S
C138 O131 1.267 . S
C139 O136 1.249 . S
C139 O137 1.267 . S
Dy140 O144 2.398 . S
Dy140 O145 2.491 . S
Dy140 O146 2.403 . S
Dy140 O147 2.664 . S
Dy140 O151 2.326 . S
Dy140 O155 2.310 . S
Dy140 O156 2.351 . S
C141 O152 1.185 . S
C141 O153 1.355 . S
C142 O144 1.185 . S
C142 O145 1.355 . S
Dy143 O147 2.310 . S
Dy143 O150 2.351 . S
Dy143 O152 2.398 1_556 S
Dy143 O153 2.491 1_556 S
Dy143 O154 2.403 . S
Dy143 O155 2.664 . S
Dy143 O157 2.326 . S
O144 Dy140 2.398 . S
O144 C142 1.185 . S
O145 Dy140 2.491 . S
O145 C142 1.355 . S
O146 Dy140 2.403 . S
O146 C148 1.254 . S
O147 Dy140 2.664 . S
O147 Dy143 2.310 . S
O147 C148 1.268 . S
C148 O146 1.254 . S
C148 O147 1.268 . S
C149 O154 1.254 . S
C149 O155 1.268 . S
O150 Dy143 2.351 . S
O150 C158 1.249 . S
O151 Dy140 2.326 . S
O151 C158 1.267 . S
O152 C141 1.185 . S
O152 Dy143 2.398 1_554 S
O153 C141 1.355 . S
O153 Dy143 2.491 1_554 S
O154 Dy143 2.403 . S
O154 C149 1.254 . S
O155 Dy140 2.310 . S
O155 Dy143 2.664 . S
O155 C149 1.268 . S
O156 Dy140 2.351 . S
O156 C159 1.249 . S
O157 Dy143 2.326 . S
O157 C159 1.267 . S
C158 O150 1.249 . S
C158 O151 1.267 . S
C159 O156 1.249 . S
C159 O157 1.267 . S
Dy160 O164 2.398 . S
Dy160 O165 2.491 . S
Dy160 O166 2.403 . S
Dy160 O167 2.664 . S
Dy160 O171 2.326 . S
Dy160 O175 2.310 . S
Dy160 O176 2.351 . S
C161 O172 1.185 . S
C161 O173 1.355 . S
C162 O164 1.185 . S
C162 O165 1.355 . S
Dy163 O167 2.310 . S
Dy163 O170 2.351 . S
Dy163 O172 2.398 . S
Dy163 O173 2.491 . S
Dy163 O174 2.403 . S
Dy163 O175 2.664 . S
Dy163 O177 2.326 . S
O164 Dy160 2.398 . S
O164 C162 1.185 . S
O165 Dy160 2.491 . S
O165 C162 1.355 . S
O166 Dy160 2.403 . S
O166 C168 1.254 . S
O167 Dy160 2.664 . S
O167 Dy163 2.310 . S
O167 C168 1.268 . S
C168 O166 1.254 . S
C168 O167 1.268 . S
C169 O174 1.254 . S
C169 O175 1.268 . S
O170 Dy163 2.351 . S
O170 C178 1.249 . S
O171 Dy160 2.326 . S
O171 C178 1.267 . S
O172 C161 1.185 . S
O172 Dy163 2.398 . S
O173 C161 1.355 . S
O173 Dy163 2.491 . S
O174 Dy163 2.403 . S
O174 C169 1.254 . S
O175 Dy160 2.310 . S
O175 Dy163 2.664 . S
O175 C169 1.268 . S
O176 Dy160 2.351 . S
O176 C179 1.249 . S
O177 Dy163 2.326 . S
O177 C179 1.267 . S
C178 O170 1.249 . S
C178 O171 1.267 . S
C179 O176 1.249 . S
C179 O177 1.267 . S
Dy180 O184 2.398 . S
Dy180 O185 2.491 . S
Dy180 O186 2.403 . S
Dy180 O187 2.664 . S
Dy180 O191 2.326 . S
Dy180 O195 2.310 . S
Dy180 O196 2.351 . S
C181 O192 1.185 . S
C181 O193 1.355 . S
C182 O184 1.185 . S
C182 O185 1.355 . S
Dy183 O187 2.310 . S
Dy183 O190 2.351 . S
Dy183 O192 2.398 . S
Dy183 O193 2.491 . S
Dy183 O194 2.403 . S
Dy183 O195 2.664 . S
Dy183 O197 2.326 . S
O184 Dy180 2.398 . S
O184 C182 1.185 . S
O185 Dy180 2.491 . S
O185 C182 1.355 . S
O186 Dy180 2.403 . S
O186 C188 1.254 . S
O187 Dy180 2.664 . S
O187 Dy183 2.310 . S
O187 C188 1.268 . S
C188 O186 1.254 . S
C188 O187 1.268 . S
C189 O194 1.254 . S
C189 O195 1.268 . S
O190 Dy183 2.351 . S
O190 C198 1.249 . S
O191 Dy180 2.326 . S
O191 C198 1.267 . S
O192 C181 1.185 . S
O192 Dy183 2.398 . S
O193 C181 1.355 . S
O193 Dy183 2.491 . S
O194 Dy183 2.403 . S
O194 C189 1.254 . S
O195 Dy180 2.310 . S
O195 Dy183 2.664 . S
O195 C189 1.268 . S
O196 Dy180 2.351 . S
O196 C199 1.249 . S
O197 Dy183 2.326 . S
O197 C199 1.267 . S
C198 O190 1.249 . S
C198 O191 1.267 . S
C199 O196 1.249 . S
C199 O197 1.267 . S
Dy200 O204 2.398 . S
Dy200 O205 2.491 . S
Dy200 O206 2.403 . S
Dy200 O207 2.664 . S
Dy200 O211 2.326 . S
Dy200 O215 2.310 . S
Dy200 O216 2.351 . S
C201 O212 1.185 . S
C201 O213 1.355 . S
C202 O204 1.185 . S
C202 O205 1.355 . S
Dy203 O207 2.310 . S
Dy203 O210 2.351 . S
Dy203 O212 2.398 . S
Dy203 O213 2.491 . S
Dy203 O214 2.403 . S
Dy203 O215 2.664 . S
Dy203 O217 2.326 . S
O204 Dy200 2.398 . S
O204 C202 1.185 . S
O205 Dy200 2.491 . S
O205 C202 1.355 . S
O206 Dy200 2.403 . S
O206 C208 1.254 . S
O207 Dy200 2.664 . S
O207 Dy203 2.310 . S
O207 C208 1.268 . S
C208 O206 1.254 . S
C208 O207 1.268 . S
C209 O214 1.254 . S
C209 O215 1.268 . S
O210 Dy203 2.351 . S
O210 C218 1.249 . S
O211 Dy200 2.326 . S
O211 C218 1.267 . S
O212 C201 1.185 . S
O212 Dy203 2.398 . S
O213 C201 1.355 . S
O213 Dy203 2.491 . S
O214 Dy203 2.403 . S
O214 C209 1.254 . S
O215 Dy200 2.310 . S
O215 Dy203 2.664 . S
O215 C209 1.268 . S
O216 Dy200 2.351 . S
O216 C219 1.249 . S
O217 Dy203 2.326 . S
O217 C219 1.267 . S
C218 O210 1.249 . S
C218 O211 1.267 . S
C219 O216 1.249 . S
C219 O217 1.267 . S
Dy220 O224 2.398 . S
Dy220 O225 2.491 . S
Dy220 O226 2.403 . S
Dy220 O227 2.664 . S
Dy220 O231 2.326 . S
Dy220 O235 2.310 . S
Dy220 O236 2.351 . S
C221 O232 1.185 . S
C221 O233 1.355 . S
C222 O224 1.185 . S
C222 O225 1.355 . S
Dy223 O227 2.310 . S
Dy223 O230 2.351 . S
Dy223 O232 2.398 . S
Dy223 O233 2.491 . S
Dy223 O234 2.403 . S
Dy223 O235 2.664 . S
Dy223 O237 2.326 . S
O224 Dy220 2.398 . S
O224 C222 1.185 . S
O225 Dy220 2.491 . S
O225 C222 1.355 . S
O226 Dy220 2.403 . S
O226 C228 1.254 . S
O227 Dy220 2.664 . S
O227 Dy223 2.310 . S
O227 C228 1.268 . S
C228 O226 1.254 . S
C228 O227 1.268 . S
C229 O234 1.254 . S
C229 O235 1.268 . S
O230 Dy223 2.351 . S
O230 C238 1.249 . S
O231 Dy220 2.326 . S
O231 C238 1.267 . S
O232 C221 1.185 . S
O232 Dy223 2.398 . S
O233 C221 1.355 . S
O233 Dy223 2.491 . S
O234 Dy223 2.403 . S
O234 C229 1.254 . S
O235 Dy220 2.310 . S
O235 Dy223 2.664 . S
O235 C229 1.268 . S
O236 Dy220 2.351 . S
O236 C239 1.249 . S
O237 Dy223 2.326 . S
O237 C239 1.267 . S
C238 O230 1.249 . S
C238 O231 1.267 . S
C239 O236 1.249 . S
C239 O237 1.267 . S
Dy240 O244 2.398 . S
Dy240 O245 2.491 . S
Dy240 O246 2.403 . S
Dy240 O247 2.664 . S
Dy240 O251 2.326 . S
Dy240 O255 2.310 . S
Dy240 O256 2.351 . S
C241 O252 1.185 . S
C241 O253 1.355 . S
C242 O244 1.185 . S
C242 O245 1.355 . S
Dy243 O247 2.310 . S
Dy243 O250 2.351 . S
Dy243 O252 2.398 . S
Dy243 O253 2.491 . S
Dy243 O254 2.403 . S
Dy243 O255 2.664 . S
Dy243 O257 2.326 . S
O244 Dy240 2.398 . S
O244 C242 1.185 . S
O245 Dy240 2.491 . S
O245 C242 1.355 . S
O246 Dy240 2.403 . S
O246 C248 1.254 . S
O247 Dy240 2.664 . S
O247 Dy243 2.310 . S
O247 C248 1.268 . S
C248 O246 1.254 . S
C248 O247 1.268 . S
C249 O254 1.254 . S
C249 O255 1.268 . S
O250 Dy243 2.351 . S
O250 C258 1.249 . S
O251 Dy240 2.326 . S
O251 C258 1.267 . S
O252 C241 1.185 . S
O252 Dy243 2.398 . S
O253 C241 1.355 . S
O253 Dy243 2.491 . S
O254 Dy243 2.403 . S
O254 C249 1.254 . S
O255 Dy240 2.310 . S
O255 Dy243 2.664 . S
O255 C249 1.268 . S
O256 Dy240 2.351 . S
O256 C259 1.249 . S
O257 Dy243 2.326 . S
O257 C259 1.267 . S
C258 O250 1.249 . S
C258 O251 1.267 . S
C259 O256 1.249 . S
C259 O257 1.267 . S
Dy260 O264 2.398 . S
Dy260 O265 2.491 . S
Dy260 O266 2.403 . S
Dy260 O267 2.664 . S
Dy260 O271 2.326 . S
Dy260 O275 2.310 . S
Dy260 O276 2.351 . S
C261 O272 1.185 . S
C261 O273 1.355 . S
C262 O264 1.185 . S
C262 O265 1.355 . S
Dy263 O267 2.310 . S
Dy263 O270 2.351 . S
Dy263 O272 2.398 . S
Dy263 O273 2.491 . S
Dy263 O274 2.403 . S
Dy263 O275 2.664 . S
Dy263 O277 2.326 . S
O264 Dy260 2.398 . S
O264 C262 1.185 . S
O265 Dy260 2.491 . S
O265 C262 1.355 . S
O266 Dy260 2.403 . S
O266 C268 1.254 . S
O267 Dy260 2.664 . S
O267 Dy263 2.310 . S
O267 C268 1.268 . S
C268 O266 1.254 . S
C268 O267 1.268 . S
C269 O274 1.254 . S
C269 O275 1.268 . S
O270 Dy263 2.351 . S
O270 C278 1.249 . S
O271 Dy260 2.326 . S
O271 C278 1.267 . S
O272 C261 1.185 . S
O272 Dy263 2.398 . S
O273 C261 1.355 . S
O273 Dy263 2.491 . S
O274 Dy263 2.403 . S
O274 C269 1.254 . S
O275 Dy260 2.310 . S
O275 Dy263 2.664 . S
O275 C269 1.268 . S
O276 Dy260 2.351 . S
O276 C279 1.249 . S
O277 Dy263 2.326 . S
O277 C279 1.267 . S
C278 O270 1.249 . S
C278 O271 1.267 . S
C279 O276 1.249 . S
C279 O277 1.267 . S
Dy280 O284 2.398 . S
Dy280 O285 2.491 . S
Dy280 O286 2.403 . S
Dy280 O287 2.664 . S
Dy280 O291 2.326 . S
Dy280 O295 2.310 . S
Dy280 O296 2.351 . S
C281 O292 1.185 . S
C281 O293 1.355 . S
C282 O284 1.185 . S
C282 O285 1.355 . S
Dy283 O287 2.310 . S
Dy283 O290 2.351 . S
Dy283 O292 2.398 . S
Dy283 O293 2.491 . S
Dy283 O294 2.403 . S
Dy283 O295 2.664 . S
Dy283 O297 2.326 . S
O284 Dy280 2.398 . S
O284 C282 1.185 . S
O285 Dy280 2.491 . S
O285 C282 1.355 . S
O286 Dy280 2.403 . S
O286 C288 1.254 . S
O287 Dy280 2.664 . S
O287 Dy283 2.310 . S
O287 C288 1.268 . S
C288 O286 1.254 . S
C288 O287 1.268 . S
C289 O294 1.254 . S
C289 O295 1.268 . S
O290 Dy283 2.351 . S
O290 C298 1.249 . S
O291 Dy280 2.326 . S
O291 C298 1.267 . S
O292 C281 1.185 . S
O292 Dy283 2.398 . S
O293 C281 1.355 . S
O293 Dy283 2.491 . S
O294 Dy283 2.403 . S
O294 C289 1.254 . S
O295 Dy280 2.310 . S
O295 Dy283 2.664 . S
O295 C289 1.268 . S
O296 Dy280 2.351 . S
O296 C299 1.249 . S
O297 Dy283 2.326 . S
O297 C299 1.267 . S
C298 O290 1.249 . S
C298 O291 1.267 . S
C299 O296 1.249 . S
C299 O297 1.267 . S
Dy300 O304 2.398 . S
Dy300 O305 2.491 . S
Dy300 O306 2.403 . S
Dy300 O307 2.664 . S
Dy300 O311 2.326 . S
Dy300 O315 2.310 . S
Dy300 O316 2.351 . S
C301 O312 1.185 . S
C301 O313 1.355 . S
C302 O304 1.185 . S
C302 O305 1.355 . S
Dy303 O307 2.310 . S
Dy303 O310 2.351 . S
Dy303 O312 2.398 . S
Dy303 O313 2.491 . S
Dy303 O314 2.403 . S
Dy303 O315 2.664 . S
Dy303 O317 2.326 . S
O304 Dy300 2.398 . S
O304 C302 1.185 . S
O305 Dy300 2.491 . S
O305 C302 1.355 . S
O306 Dy300 2.403 . S
O306 C308 1.254 . S
O307 Dy300 2.664 . S
O307 Dy303 2.310 . S
O307 C308 1.268 . S
C308 O306 1.254 . S
C308 O307 1.268 . S
C309 O314 1.254 . S
C309 O315 1.268 . S
O310 Dy303 2.351 . S
O310 C318 1.249 . S
O311 Dy300 2.326 . S
O311 C318 1.267 . S
O312 C301 1.185 . S
O312 Dy303 2.398 . S
O313 C301 1.355 . S
O313 Dy303 2.491 . S
O314 Dy303 2.403 . S
O314 C309 1.254 . S
O315 Dy300 2.310 . S
O315 Dy303 2.664 . S
O315 C309 1.268 . S
O316 Dy300 2.351 . S
O316 C319 1.249 . S
O317 Dy303 2.326 . S
O317 C319 1.267 . S
C318 O310 1.249 . S
C318 O311 1.267 . S
C319 O316 1.249 . S
C319 O317 1.267 . S
H320 C328 0.950 . S
H321 C333 0.950 . S
H322 C330 0.950 . S
H323 C332 0.950 . S
H324 C334 0.950 . S
H325 C336 0.945 1_565 S
H326 C338 0.950 . S
H327 C339 0.950 . S
C328 H320 0.950 . S
C328 C329 1.386 . S
C328 C330 1.391 . S
C329 C328 1.386 . S
C329 C333 1.393 . S
C330 H322 0.950 . S
C330 C328 1.391 . S
C330 C331 1.400 . S
C331 C330 1.400 . S
C331 C332 1.398 . S
C331 C337 1.491 1_565 S
C332 H323 0.950 . S
C332 C331 1.398 . S
C332 C333 1.391 . S
C333 H321 0.950 . S
C333 C329 1.393 . S
C333 C332 1.391 . S
C334 H324 0.950 . S
C334 C335 1.386 . S
C334 C336 1.391 . S
C335 C334 1.386 . S
C335 C339 1.393 . S
C336 H325 0.945 1_545 S
C336 C334 1.391 . S
C336 C337 1.400 . S
C337 C331 1.491 1_545 S
C337 C336 1.400 . S
C337 C338 1.398 . S
C338 H326 0.950 . S
C338 C337 1.398 . S
C338 C339 1.391 . S
C339 H327 0.950 . S
C339 C335 1.393 . S
C339 C338 1.391 . S
H340 C348 0.950 . S
H341 C353 0.950 . S
H342 C350 0.950 . S
H343 C352 0.950 . S
H344 C354 0.950 . S
H345 C356 0.952 1_655 S
H346 C358 0.950 . S
H347 C359 0.950 . S
C348 H340 0.950 . S
C348 C349 1.386 . S
C348 C350 1.391 . S
C349 C348 1.386 . S
C349 C353 1.393 . S
C350 H342 0.950 . S
C350 C348 1.391 . S
C350 C351 1.400 . S
C351 C350 1.400 . S
C351 C352 1.398 . S
C351 C357 1.491 1_655 S
C352 H343 0.950 . S
C352 C351 1.398 . S
C352 C353 1.391 . S
C353 H341 0.950 . S
C353 C349 1.393 . S
C353 C352 1.391 . S
C354 H344 0.950 . S
C354 C355 1.386 . S
C354 C356 1.391 . S
C355 C354 1.386 . S
C355 C359 1.393 . S
C356 H345 0.952 1_455 S
C356 C354 1.391 . S
C356 C357 1.400 . S
C357 C351 1.491 1_455 S
C357 C356 1.400 . S
C357 C358 1.398 . S
C358 H346 0.950 . S
C358 C357 1.398 . S
C358 C359 1.391 . S
C359 H347 0.950 . S
C359 C355 1.393 . S
C359 C358 1.391 . S
H360 C368 0.950 . S
H361 C373 0.950 . S
H362 C370 0.950 1_545 S
H363 C372 0.950 . S
H364 C374 0.950 . S
H365 C376 0.950 . S
H366 C378 0.950 . S
H367 C379 0.950 . S
C368 H360 0.950 . S
C368 C369 1.386 . S
C368 C370 1.391 . S
C369 C368 1.386 . S
C369 C373 1.393 . S
C370 H362 0.950 1_565 S
C370 C368 1.391 . S
C370 C371 1.400 . S
C371 C370 1.400 . S
C371 C372 1.398 . S
C371 C377 1.491 1_565 S
C372 H363 0.950 . S
C372 C371 1.398 . S
C372 C373 1.391 . S
C373 H361 0.950 . S
C373 C369 1.393 . S
C373 C372 1.391 . S
C374 H364 0.950 . S
C374 C375 1.386 . S
C374 C376 1.391 . S
C375 C374 1.386 . S
C375 C379 1.393 . S
C376 H365 0.950 . S
C376 C374 1.391 . S
C376 C377 1.400 . S
C377 C371 1.491 1_545 S
C377 C376 1.400 . S
C377 C378 1.398 . S
C378 H366 0.950 . S
C378 C377 1.398 . S
C378 C379 1.391 . S
C379 H367 0.950 . S
C379 C375 1.393 . S
C379 C378 1.391 . S
H380 C388 0.950 . S
H381 C393 0.950 . S
H382 C390 0.950 1_455 S
H383 C392 0.950 . S
H384 C394 0.950 . S
H385 C396 0.950 . S
H386 C398 0.950 . S
H387 C399 0.950 . S
C388 H380 0.950 . S
C388 C389 1.386 . S
C388 C390 1.391 . S
C389 C388 1.386 . S
C389 C393 1.393 . S
C390 H382 0.950 1_655 S
C390 C388 1.391 . S
C390 C391 1.400 . S
C391 C390 1.400 . S
C391 C392 1.398 . S
C391 C397 1.491 1_655 S
C392 H383 0.950 . S
C392 C391 1.398 . S
C392 C393 1.391 . S
C393 H381 0.950 . S
C393 C389 1.393 . S
C393 C392 1.391 . S
C394 H384 0.950 . S
C394 C395 1.386 . S
C394 C396 1.391 . S
C395 C394 1.386 . S
C395 C399 1.393 . S
C396 H385 0.950 . S
C396 C394 1.391 . S
C396 C397 1.400 . S
C397 C391 1.491 1_455 S
C397 C396 1.400 . S
C397 C398 1.398 . S
C398 H386 0.950 . S
C398 C397 1.398 . S
C398 C399 1.391 . S
C399 H387 0.950 . S
C399 C395 1.393 . S
C399 C398 1.391 . S
H400 C408 0.950 . S
H401 C413 0.950 1_556 S
H402 C410 0.950 . S
H403 C412 0.950 1_556 S
H404 C414 0.950 . S
H405 C416 0.950 . S
H406 C418 0.950 . S
H407 C419 0.950 . S
C408 H400 0.950 . S
C408 C409 1.386 . S
C408 C410 1.391 . S
C409 C408 1.386 . S
C409 C413 1.393 . S
C410 H402 0.950 . S
C410 C408 1.391 . S
C410 C411 1.400 . S
C411 C410 1.400 . S
C411 C412 1.398 . S
C411 C417 1.491 . S
C412 H403 0.950 1_554 S
C412 C411 1.398 . S
C412 C413 1.391 . S
C413 H401 0.950 1_554 S
C413 C409 1.393 . S
C413 C412 1.391 . S
C414 H404 0.950 . S
C414 C415 1.386 . S
C414 C416 1.391 . S
C415 C414 1.386 . S
C415 C419 1.393 1_556 S
C416 H405 0.950 . S
C416 C414 1.391 . S
C416 C417 1.400 1_556 S
C417 C411 1.491 . S
C417 C416 1.400 1_554 S
C417 C418 1.398 . S
C418 H406 0.950 . S
C418 C417 1.398 . S
C418 C419 1.391 . S
C419 H407 0.950 . S
C419 C415 1.393 1_554 S
C419 C418 1.391 . S
H420 C428 0.950 . S
H421 C433 0.950 . S
H422 C430 0.950 . S
H423 C432 0.950 . S
H424 C434 0.950 . S
H425 C436 0.950 . S
H426 C438 0.950 . S
H427 C439 0.950 . S
C428 H420 0.950 . S
C428 C429 1.386 1_556 S
C428 C430 1.391 . S
C429 C428 1.386 1_554 S
C429 C433 1.393 . S
C430 H422 0.950 . S
C430 C428 1.391 . S
C430 C431 1.400 . S
C431 C430 1.400 . S
C431 C432 1.398 . S
C431 C437 1.491 . S
C432 H423 0.950 . S
C432 C431 1.398 . S
C432 C433 1.391 1_556 S
C433 H421 0.950 . S
C433 C429 1.393 . S
C433 C432 1.391 1_554 S
C434 H424 0.950 . S
C434 C435 1.386 . S
C434 C436 1.391 . S
C435 C434 1.386 . S
C435 C439 1.393 . S
C436 H425 0.950 . S
C436 C434 1.391 . S
C436 C437 1.400 . S
C437 C431 1.491 . S
C437 C436 1.400 . S
C437 C438 1.398 . S
C438 H426 0.950 . S
C438 C437 1.398 . S
C438 C439 1.391 . S
C439 H427 0.950 . S
C439 C435 1.393 . S
C439 C438 1.391 . S
H440 C448 0.950 . S
H441 C453 0.950 . S
H442 C450 0.950 . S
H443 C452 0.950 . S
H444 C454 0.950 . S
H445 C456 0.950 . S
H446 C458 0.950 . S
H447 C459 0.949 1_556 S
C448 H440 0.950 . S
C448 C449 1.386 . S
C448 C450 1.391 . S
C449 C448 1.386 . S
C449 C453 1.393 . S
C450 H442 0.950 . S
C450 C448 1.391 . S
C450 C451 1.400 . S
C451 C450 1.400 . S
C451 C452 1.398 . S
C451 C457 1.491 . S
C452 H443 0.950 . S
C452 C451 1.398 . S
C452 C453 1.391 . S
C453 H441 0.950 . S
C453 C449 1.393 . S
C453 C452 1.391 . S
C454 H444 0.950 . S
C454 C455 1.386 . S
C454 C456 1.391 1_556 S
C455 C454 1.386 . S
C455 C459 1.389 1_556 S
C456 H445 0.950 . S
C456 C454 1.391 1_554 S
C456 C457 1.400 . S
C457 C451 1.491 . S
C457 C456 1.400 . S
C457 C458 1.398 . S
C458 H446 0.950 . S
C458 C457 1.398 . S
C458 C459 1.395 . S
C459 H447 0.949 1_554 S
C459 C455 1.389 1_554 S
C459 C458 1.395 . S
H460 C468 0.950 . S
H461 C473 0.950 . S
H462 C470 0.950 . S
H463 C472 0.950 . S
H464 C474 0.952 . S
H465 C476 0.950 1_554 S
H466 C478 0.950 . S
H467 C479 0.950 . S
C468 H460 0.950 . S
C468 C469 1.386 1_556 S
C468 C470 1.391 . S
C469 C468 1.386 1_554 S
C469 C473 1.393 . S
C470 H462 0.950 . S
C470 C468 1.391 . S
C470 C471 1.400 . S
C471 C470 1.400 . S
C471 C472 1.398 1_556 S
C471 C477 1.491 . S
C472 H463 0.950 . S
C472 C471 1.398 1_554 S
C472 C473 1.391 . S
C473 H461 0.950 . S
C473 C469 1.393 . S
C473 C472 1.391 . S
C474 H464 0.952 . S
C474 C475 1.386 . S
C474 C476 1.391 . S
C475 C474 1.386 . S
C475 C479 1.393 . S
C476 H465 0.950 1_556 S
C476 C474 1.391 . S
C476 C477 1.400 . S
C477 C471 1.491 . S
C477 C476 1.400 . S
C477 C478 1.398 . S
C478 H466 0.950 . S
C478 C477 1.398 . S
C478 C479 1.391 . S
C479 H467 0.950 . S
C479 C475 1.393 . S
C479 C478 1.391 . S
H480 C488 0.950 . S
H481 C493 0.950 . S
H482 C490 0.950 . S
H483 C492 0.950 . S
H484 C494 0.950 . S
H485 C496 0.950 . S
H486 C498 0.950 . S
H487 C499 0.950 . S
C488 H480 0.950 . S
C488 C489 1.386 . S
C488 C490 1.391 . S
C489 C488 1.386 . S
C489 C493 1.393 . S
C490 H482 0.950 . S
C490 C488 1.391 . S
C490 C491 1.400 . S
C491 C490 1.400 . S
C491 C492 1.398 . S
C491 C497 1.491 . S
C492 H483 0.950 . S
C492 C491 1.398 . S
C492 C493 1.391 . S
C493 H481 0.950 . S
C493 C489 1.393 . S
C493 C492 1.391 . S
C494 H484 0.950 . S
C494 C495 1.386 . S
C494 C496 1.391 . S
C495 C494 1.386 . S
C495 C499 1.393 . S
C496 H485 0.950 . S
C496 C494 1.391 . S
C496 C497 1.400 . S
C497 C491 1.491 . S
C497 C496 1.400 . S
C497 C498 1.398 . S
C498 H486 0.950 . S
C498 C497 1.398 . S
C498 C499 1.391 . S
C499 H487 0.950 . S
C499 C495 1.393 . S
C499 C498 1.391 . S
H500 C508 0.950 . S
H501 C513 0.950 . S
H502 C510 0.950 . S
H503 C512 0.950 . S
H504 C514 0.950 . S
H505 C516 0.950 . S
H506 C518 0.950 . S
H507 C519 0.950 . S
C508 H500 0.950 . S
C508 C509 1.386 . S
C508 C510 1.391 . S
C509 C508 1.386 . S
C509 C513 1.393 . S
C510 H502 0.950 . S
C510 C508 1.391 . S
C510 C511 1.400 . S
C511 C510 1.400 . S
C511 C512 1.398 . S
C511 C517 1.491 . S
C512 H503 0.950 . S
C512 C511 1.398 . S
C512 C513 1.391 . S
C513 H501 0.950 . S
C513 C509 1.393 . S
C513 C512 1.391 . S
C514 H504 0.950 . S
C514 C515 1.386 . S
C514 C516 1.391 . S
C515 C514 1.386 . S
C515 C519 1.393 . S
C516 H505 0.950 . S
C516 C514 1.391 . S
C516 C517 1.400 . S
C517 C511 1.491 . S
C517 C516 1.400 . S
C517 C518 1.398 . S
C518 H506 0.950 . S
C518 C517 1.398 . S
C518 C519 1.391 . S
C519 H507 0.950 . S
C519 C515 1.393 . S
C519 C518 1.391 . S
H520 C528 0.950 . S
H521 C533 0.950 . S
H522 C530 0.950 . S
H523 C532 0.950 . S
H524 C534 0.950 . S
H525 C536 0.950 . S
H526 C538 0.950 . S
H527 C539 0.950 . S
C528 H520 0.950 . S
C528 C529 1.386 . S
C528 C530 1.391 . S
C529 C528 1.386 . S
C529 C533 1.393 . S
C530 H522 0.950 . S
C530 C528 1.391 . S
C530 C531 1.400 . S
C531 C530 1.400 . S
C531 C532 1.398 . S
C531 C537 1.491 . S
C532 H523 0.950 . S
C532 C531 1.398 . S
C532 C533 1.391 . S
C533 H521 0.950 . S
C533 C529 1.393 . S
C533 C532 1.391 . S
C534 H524 0.950 . S
C534 C535 1.386 . S
C534 C536 1.391 . S
C535 C534 1.386 . S
C535 C539 1.393 . S
C536 H525 0.950 . S
C536 C534 1.391 . S
C536 C537 1.400 . S
C537 C531 1.491 . S
C537 C536 1.400 . S
C537 C538 1.398 . S
C538 H526 0.950 . S
C538 C537 1.398 . S
C538 C539 1.391 . S
C539 H527 0.950 . S
C539 C535 1.393 . S
C539 C538 1.391 . S
H540 C548 0.950 . S
H541 C553 0.950 . S
H542 C550 0.950 . S
H543 C552 0.950 . S
H544 C554 0.950 . S
H545 C556 0.950 . S
H546 C558 0.950 . S
H547 C559 0.950 . S
C548 H540 0.950 . S
C548 C549 1.386 . S
C548 C550 1.391 . S
C549 C548 1.386 . S
C549 C553 1.393 . S
C550 H542 0.950 . S
C550 C548 1.391 . S
C550 C551 1.400 . S
C551 C550 1.400 . S
C551 C552 1.398 . S
C551 C557 1.491 . S
C552 H543 0.950 . S
C552 C551 1.398 . S
C552 C553 1.391 . S
C553 H541 0.950 . S
C553 C549 1.393 . S
C553 C552 1.391 . S
C554 H544 0.950 . S
C554 C555 1.386 . S
C554 C556 1.391 . S
C555 C554 1.386 . S
C555 C559 1.393 . S
C556 H545 0.950 . S
C556 C554 1.391 . S
C556 C557 1.400 . S
C557 C551 1.491 . S
C557 C556 1.400 . S
C557 C558 1.398 . S
C558 H546 0.950 . S
C558 C557 1.398 . S
C558 C559 1.391 . S
C559 H547 0.950 . S
C559 C555 1.393 . S
C559 C558 1.391 . S
H560 C568 0.950 . S
H561 C573 0.950 . S
H562 C570 0.950 . S
H563 C572 0.950 1_545 S
H564 C574 0.950 . S
H565 C576 0.950 . S
H566 C578 0.950 . S
H567 C579 0.950 . S
C568 H560 0.950 . S
C568 C569 1.386 . S
C568 C570 1.391 . S
C569 C568 1.386 . S
C569 C573 1.393 . S
C570 H562 0.950 . S
C570 C568 1.391 . S
C570 C571 1.400 . S
C571 C570 1.400 . S
C571 C572 1.398 . S
C571 C577 1.491 1_565 S
C572 H563 0.950 1_565 S
C572 C571 1.398 . S
C572 C573 1.391 . S
C573 H561 0.950 . S
C573 C569 1.393 . S
C573 C572 1.391 . S
C574 H564 0.950 . S
C574 C575 1.386 . S
C574 C576 1.391 . S
C575 C574 1.386 . S
C575 C579 1.393 . S
C576 H565 0.950 . S
C576 C574 1.391 . S
C576 C577 1.400 . S
C577 C571 1.491 1_545 S
C577 C576 1.400 . S
C577 C578 1.398 . S
C578 H566 0.950 . S
C578 C577 1.398 . S
C578 C579 1.391 . S
C579 H567 0.950 . S
C579 C575 1.393 . S
C579 C578 1.391 . S
H580 C588 0.950 . S
H581 C593 0.950 . S
H582 C590 0.950 . S
H583 C592 0.950 . S
H584 C594 0.950 . S
H585 C596 0.950 . S
H586 C598 0.950 . S
H587 C599 0.950 . S
C588 H580 0.950 . S
C588 C589 1.386 . S
C588 C590 1.391 . S
C589 C588 1.386 . S
C589 C593 1.393 . S
C590 H582 0.950 . S
C590 C588 1.391 . S
C590 C591 1.400 . S
C591 C590 1.400 . S
C591 C592 1.398 . S
C591 C597 1.491 1_455 S
C592 H583 0.950 . S
C592 C591 1.398 . S
C592 C593 1.391 . S
C593 H581 0.950 . S
C593 C589 1.393 . S
C593 C592 1.391 . S
C594 H584 0.950 . S
C594 C595 1.386 . S
C594 C596 1.391 . S
C595 C594 1.386 . S
C595 C599 1.393 . S
C596 H585 0.950 . S
C596 C594 1.391 . S
C596 C597 1.400 . S
C597 C591 1.491 1_655 S
C597 C596 1.400 . S
C597 C598 1.398 . S
C598 H586 0.950 . S
C598 C597 1.398 . S
C598 C599 1.391 . S
C599 H587 0.950 . S
C599 C595 1.393 . S
C599 C598 1.391 . S
H600 C608 0.950 . S
H601 C613 0.950 . S
H602 C610 0.950 . S
H603 C612 0.950 . S
H604 C614 0.950 . S
H605 C616 0.950 . S
H606 C618 0.950 1_565 S
H607 C619 0.950 . S
C608 H600 0.950 . S
C608 C609 1.386 . S
C608 C610 1.391 . S
C609 C608 1.386 . S
C609 C613 1.393 . S
C610 H602 0.950 . S
C610 C608 1.391 . S
C610 C611 1.400 . S
C611 C610 1.400 . S
C611 C612 1.398 . S
C611 C617 1.491 1_565 S
C612 H603 0.950 . S
C612 C611 1.398 . S
C612 C613 1.391 . S
C613 H601 0.950 . S
C613 C609 1.393 . S
C613 C612 1.391 . S
C614 H604 0.950 . S
C614 C615 1.386 . S
C614 C616 1.391 . S
C615 C614 1.386 . S
C615 C619 1.393 . S
C616 H605 0.950 . S
C616 C614 1.391 . S
C616 C617 1.400 . S
C617 C611 1.491 1_545 S
C617 C616 1.400 . S
C617 C618 1.398 . S
C618 H606 0.950 1_545 S
C618 C617 1.398 . S
C618 C619 1.391 . S
C619 H607 0.950 . S
C619 C615 1.393 . S
C619 C618 1.391 . S
H620 C628 0.950 . S
H621 C633 0.950 . S
H622 C630 0.950 . S
H623 C632 0.950 . S
H624 C634 0.950 . S
H625 C636 0.950 . S
H626 C638 0.950 . S
H627 C639 0.950 . S
C628 H620 0.950 . S
C628 C629 1.386 . S
C628 C630 1.391 . S
C629 C628 1.386 . S
C629 C633 1.393 . S
C630 H622 0.950 . S
C630 C628 1.391 . S
C630 C631 1.400 . S
C631 C630 1.400 . S
C631 C632 1.398 . S
C631 C637 1.491 1_455 S
C632 H623 0.950 . S
C632 C631 1.398 . S
C632 C633 1.391 . S
C633 H621 0.950 . S
C633 C629 1.393 . S
C633 C632 1.391 . S
C634 H624 0.950 . S
C634 C635 1.386 . S
C634 C636 1.391 . S
C635 C634 1.386 . S
C635 C639 1.393 . S
C636 H625 0.950 . S
C636 C634 1.391 . S
C636 C637 1.400 . S
C637 C631 1.491 1_655 S
C637 C636 1.400 . S
C637 C638 1.398 . S
C638 H626 0.950 . S
C638 C637 1.398 . S
C638 C639 1.391 . S
C639 H627 0.950 . S
C639 C635 1.393 . S
C639 C638 1.391 . S
H640 C648 0.950 . S
H641 C653 0.950 . S
H642 C650 0.950 . S
H643 C652 0.950 . S
H644 C654 0.950 . S
H645 C656 0.950 . S
H646 C658 0.950 . S
H647 C659 0.950 . S
C648 H640 0.950 . S
C648 C649 1.386 . S
C648 C650 1.391 . S
C649 C648 1.386 . S
C649 C653 1.393 . S
C650 H642 0.950 . S
C650 C648 1.391 . S
C650 C651 1.400 . S
C651 C650 1.400 . S
C651 C652 1.398 . S
C651 C657 1.491 . S
C652 H643 0.950 . S
C652 C651 1.398 . S
C652 C653 1.391 . S
C653 H641 0.950 . S
C653 C649 1.393 . S
C653 C652 1.391 . S
C654 H644 0.950 . S
C654 C655 1.386 . S
C654 C656 1.391 . S
C655 C654 1.386 . S
C655 C659 1.393 . S
C656 H645 0.950 . S
C656 C654 1.391 . S
C656 C657 1.400 . S
C657 C651 1.491 . S
C657 C656 1.400 . S
C657 C658 1.398 . S
C658 H646 0.950 . S
C658 C657 1.398 . S
C658 C659 1.391 . S
C659 H647 0.950 . S
C659 C655 1.393 . S
C659 C658 1.391 . S
H660 C668 0.950 . S
H661 C673 0.950 . S
H662 C670 0.950 . S
H663 C672 0.950 . S
H664 C674 0.950 . S
H665 C676 0.950 . S
H666 C678 0.950 . S
H667 C679 0.950 . S
C668 H660 0.950 . S
C668 C669 1.386 . S
C668 C670 1.391 . S
C669 C668 1.386 . S
C669 C673 1.393 . S
C670 H662 0.950 . S
C670 C668 1.391 . S
C670 C671 1.400 . S
C671 C670 1.400 . S
C671 C672 1.398 . S
C671 C677 1.491 . S
C672 H663 0.950 . S
C672 C671 1.398 . S
C672 C673 1.391 . S
C673 H661 0.950 . S
C673 C669 1.393 . S
C673 C672 1.391 . S
C674 H664 0.950 . S
C674 C675 1.386 . S
C674 C676 1.391 . S
C675 C674 1.386 . S
C675 C679 1.393 . S
C676 H665 0.950 . S
C676 C674 1.391 . S
C676 C677 1.400 . S
C677 C671 1.491 . S
C677 C676 1.400 . S
C677 C678 1.398 . S
C678 H666 0.950 . S
C678 C677 1.398 . S
C678 C679 1.391 . S
C679 H667 0.950 . S
C679 C675 1.393 . S
C679 C678 1.391 . S
H680 C688 0.950 . S
H681 C693 0.950 . S
H682 C690 0.950 . S
H683 C692 0.950 . S
H684 C694 0.950 . S
H685 C696 0.950 . S
H686 C698 0.950 . S
H687 C699 0.950 . S
C688 H680 0.950 . S
C688 C689 1.386 . S
C688 C690 1.391 . S
C689 C688 1.386 . S
C689 C693 1.393 . S
C690 H682 0.950 . S
C690 C688 1.391 . S
C690 C691 1.400 . S
C691 C690 1.400 . S
C691 C692 1.398 . S
C691 C697 1.491 . S
C692 H683 0.950 . S
C692 C691 1.398 . S
C692 C693 1.391 . S
C693 H681 0.950 . S
C693 C689 1.393 . S
C693 C692 1.391 . S
C694 H684 0.950 . S
C694 C695 1.386 . S
C694 C696 1.391 . S
C695 C694 1.386 . S
C695 C699 1.393 . S
C696 H685 0.950 . S
C696 C694 1.391 . S
C696 C697 1.400 . S
C697 C691 1.491 . S
C697 C696 1.400 . S
C697 C698 1.398 . S
C698 H686 0.950 . S
C698 C697 1.398 . S
C698 C699 1.391 . S
C699 H687 0.950 . S
C699 C695 1.393 . S
C699 C698 1.391 . S
H700 C708 0.950 . S
H701 C713 0.950 . S
H702 C710 0.950 . S
H703 C712 0.950 . S
H704 C714 0.950 . S
H705 C716 0.950 . S
H706 C718 0.950 . S
H707 C719 0.950 . S
C708 H700 0.950 . S
C708 C709 1.386 . S
C708 C710 1.391 . S
C709 C708 1.386 . S
C709 C713 1.393 . S
C710 H702 0.950 . S
C710 C708 1.391 . S
C710 C711 1.400 . S
C711 C710 1.400 . S
C711 C712 1.398 . S
C711 C717 1.491 . S
C712 H703 0.950 . S
C712 C711 1.398 . S
C712 C713 1.391 . S
C713 H701 0.950 . S
C713 C709 1.393 . S
C713 C712 1.391 . S
C714 H704 0.950 . S
C714 C715 1.386 . S
C714 C716 1.391 . S
C715 C714 1.386 . S
C715 C719 1.393 . S
C716 H705 0.950 . S
C716 C714 1.391 . S
C716 C717 1.400 . S
C717 C711 1.491 . S
C717 C716 1.400 . S
C717 C718 1.398 . S
C718 H706 0.950 . S
C718 C717 1.398 . S
C718 C719 1.391 . S
C719 H707 0.950 . S
C719 C715 1.393 . S
C719 C718 1.391 . S
H720 C728 0.950 . S
H721 C733 0.950 . S
H722 C730 0.950 . S
H723 C732 0.950 . S
H724 C734 0.950 . S
H725 C736 0.950 . S
H726 C738 0.950 . S
H727 C739 0.950 . S
C728 H720 0.950 . S
C728 C729 1.386 . S
C728 C730 1.391 . S
C729 C728 1.386 . S
C729 C733 1.393 . S
C730 H722 0.950 . S
C730 C728 1.391 . S
C730 C731 1.400 . S
C731 C730 1.400 . S
C731 C732 1.398 . S
C731 C737 1.491 . S
C732 H723 0.950 . S
C732 C731 1.398 . S
C732 C733 1.391 . S
C733 H721 0.950 . S
C733 C729 1.393 . S
C733 C732 1.391 . S
C734 H724 0.950 . S
C734 C735 1.386 . S
C734 C736 1.391 . S
C735 C734 1.386 . S
C735 C739 1.393 . S
C736 H725 0.950 . S
C736 C734 1.391 . S
C736 C737 1.400 . S
C737 C731 1.491 . S
C737 C736 1.400 . S
C737 C738 1.398 . S
C738 H726 0.950 . S
C738 C737 1.398 . S
C738 C739 1.391 . S
C739 H727 0.950 . S
C739 C735 1.393 . S
C739 C738 1.391 . S
H740 C748 0.950 . S
H741 C753 0.950 . S
H742 C750 0.950 . S
H743 C752 0.950 . S
H744 C754 0.950 . S
H745 C756 0.950 . S
H746 C758 0.950 . S
H747 C759 0.950 . S
C748 H740 0.950 . S
C748 C749 1.386 . S
C748 C750 1.391 . S
C749 C748 1.386 . S
C749 C753 1.393 . S
C750 H742 0.950 . S
C750 C748 1.391 . S
C750 C751 1.400 . S
C751 C750 1.400 . S
C751 C752 1.398 . S
C751 C757 1.491 . S
C752 H743 0.950 . S
C752 C751 1.398 . S
C752 C753 1.391 . S
C753 H741 0.950 . S
C753 C749 1.393 . S
C753 C752 1.391 . S
C754 H744 0.950 . S
C754 C755 1.386 . S
C754 C756 1.391 . S
C755 C754 1.386 . S
C755 C759 1.393 . S
C756 H745 0.950 . S
C756 C754 1.391 . S
C756 C757 1.400 . S
C757 C751 1.491 . S
C757 C756 1.400 . S
C757 C758 1.398 . S
C758 H746 0.950 . S
C758 C757 1.398 . S
C758 C759 1.391 . S
C759 H747 0.950 . S
C759 C755 1.393 . S
C759 C758 1.391 . S
H760 C768 0.950 . S
H761 C773 0.950 . S
H762 C770 0.950 . S
H763 C772 0.950 . S
H764 C774 0.950 . S
H765 C776 0.950 . S
H766 C778 0.950 . S
H767 C779 0.950 . S
C768 H760 0.950 . S
C768 C769 1.386 . S
C768 C770 1.391 . S
C769 C768 1.386 . S
C769 C773 1.393 . S
C770 H762 0.950 . S
C770 C768 1.391 . S
C770 C771 1.400 . S
C771 C770 1.400 . S
C771 C772 1.398 . S
C771 C777 1.491 . S
C772 H763 0.950 . S
C772 C771 1.398 . S
C772 C773 1.391 . S
C773 H761 0.950 . S
C773 C769 1.393 . S
C773 C772 1.391 . S
C774 H764 0.950 . S
C774 C775 1.386 . S
C774 C776 1.391 . S
C775 C774 1.386 . S
C775 C779 1.393 . S
C776 H765 0.950 . S
C776 C774 1.391 . S
C776 C777 1.400 . S
C777 C771 1.491 . S
C777 C776 1.400 . S
C777 C778 1.398 . S
C778 H766 0.950 . S
C778 C777 1.398 . S
C778 C779 1.391 . S
C779 H767 0.950 . S
C779 C775 1.393 . S
C779 C778 1.391 . S
H780 C788 0.950 . S
H781 C793 0.950 . S
H782 C790 0.950 . S
H783 C792 0.950 . S
H784 C794 0.950 . S
H785 C796 0.950 . S
H786 C798 0.950 . S
H787 C799 0.950 . S
C788 H780 0.950 . S
C788 C789 1.386 . S
C788 C790 1.391 . S
C789 C788 1.386 . S
C789 C793 1.393 . S
C790 H782 0.950 . S
C790 C788 1.391 . S
C790 C791 1.400 . S
C791 C790 1.400 . S
C791 C792 1.398 . S
C791 C797 1.491 . S
C792 H783 0.950 . S
C792 C791 1.398 . S
C792 C793 1.391 . S
C793 H781 0.950 . S
C793 C789 1.393 . S
C793 C792 1.391 . S
C794 H784 0.950 . S
C794 C795 1.386 . S
C794 C796 1.391 . S
C795 C794 1.386 . S
C795 C799 1.393 . S
C796 H785 0.950 . S
C796 C794 1.391 . S
C796 C797 1.400 . S
C797 C791 1.491 . S
C797 C796 1.400 . S
C797 C798 1.398 . S
C798 H786 0.950 . S
C798 C797 1.398 . S
C798 C799 1.391 . S
C799 H787 0.950 . S
C799 C795 1.393 . S
C799 C798 1.391 . S
H800 C808 0.950 . S
H801 C813 0.950 . S
H802 C810 0.950 . S
H803 C812 0.950 . S
H804 C814 0.950 1_554 S
H805 C816 0.950 . S
H806 C818 0.950 . S
H807 C819 0.950 . S
C808 H800 0.950 . S
C808 C809 1.386 . S
C808 C810 1.391 . S
C809 C808 1.386 . S
C809 C813 1.393 . S
C810 H802 0.950 . S
C810 C808 1.391 . S
C810 C811 1.400 . S
C811 C810 1.400 . S
C811 C812 1.398 . S
C811 C817 1.491 . S
C812 H803 0.950 . S
C812 C811 1.398 . S
C812 C813 1.391 . S
C813 H801 0.950 . S
C813 C809 1.393 . S
C813 C812 1.391 . S
C814 H804 0.950 1_556 S
C814 C815 1.383 1_556 S
C814 C816 1.391 . S
C815 C814 1.383 1_554 S
C815 C819 1.387 1_554 S
C816 H805 0.950 . S
C816 C814 1.391 . S
C816 C817 1.400 . S
C817 C811 1.491 . S
C817 C816 1.400 . S
C817 C818 1.398 . S
C818 H806 0.950 . S
C818 C817 1.398 . S
C818 C819 1.391 . S
C819 H807 0.950 . S
C819 C815 1.387 1_556 S
C819 C818 1.391 . S
H820 C828 0.950 . S
H821 C833 0.950 . S
H822 C830 0.950 . S
H823 C832 0.950 . S
H824 C834 0.950 . S
H825 C836 0.950 . S
H826 C838 0.950 . S
H827 C839 0.950 . S
C828 H820 0.950 . S
C828 C829 1.387 . S
C828 C830 1.391 1_556 S
C829 C828 1.387 . S
C829 C833 1.380 1_556 S
C830 H822 0.950 . S
C830 C828 1.391 1_554 S
C830 C831 1.400 . S
C831 C830 1.400 . S
C831 C832 1.398 . S
C831 C837 1.491 . S
C832 H823 0.950 . S
C832 C831 1.398 . S
C832 C833 1.391 . S
C833 H821 0.950 . S
C833 C829 1.380 1_554 S
C833 C832 1.391 . S
C834 H824 0.950 . S
C834 C835 1.386 . S
C834 C836 1.391 . S
C835 C834 1.386 . S
C835 C839 1.393 . S
C836 H825 0.950 . S
C836 C834 1.391 . S
C836 C837 1.400 . S
C837 C831 1.491 . S
C837 C836 1.400 . S
C837 C838 1.398 . S
C838 H826 0.950 . S
C838 C837 1.398 . S
C838 C839 1.391 . S
C839 H827 0.950 . S
C839 C835 1.393 . S
C839 C838 1.391 . S
H840 C848 0.950 . S
H841 C853 0.950 . S
H842 C850 0.950 . S
H843 C852 0.950 . S
H844 C854 0.950 . S
H845 C856 0.950 . S
H846 C858 0.950 . S
H847 C859 0.950 . S
C848 H840 0.950 . S
C848 C849 1.386 1_556 S
C848 C850 1.391 . S
C849 C848 1.386 1_554 S
C849 C853 1.393 . S
C850 H842 0.950 . S
C850 C848 1.391 . S
C850 C851 1.400 . S
C851 C850 1.400 . S
C851 C852 1.398 . S
C851 C857 1.491 . S
C852 H843 0.950 . S
C852 C851 1.398 . S
C852 C853 1.391 1_556 S
C853 H841 0.950 . S
C853 C849 1.393 . S
C853 C852 1.391 1_554 S
C854 H844 0.950 . S
C854 C855 1.386 . S
C854 C856 1.391 . S
C855 C854 1.386 . S
C855 C859 1.393 . S
C856 H845 0.950 . S
C856 C854 1.391 . S
C856 C857 1.400 . S
C857 C851 1.491 . S
C857 C856 1.400 . S
C857 C858 1.398 . S
C858 H846 0.950 . S
C858 C857 1.398 . S
C858 C859 1.391 . S
C859 H847 0.950 . S
C859 C855 1.393 . S
C859 C858 1.391 . S
H860 C868 0.950 . S
H861 C873 0.950 . S
H862 C870 0.950 . S
H863 C872 0.950 . S
H864 C874 0.950 . S
H865 C876 0.950 . S
H866 C878 0.950 . S
H867 C879 0.950 . S
C868 H860 0.950 . S
C868 C869 1.386 . S
C868 C870 1.391 1_556 S
C869 C868 1.386 . S
C869 C873 1.393 1_556 S
C870 H862 0.950 . S
C870 C868 1.391 1_554 S
C870 C871 1.400 . S
C871 C870 1.400 . S
C871 C872 1.398 . S
C871 C877 1.491 . S
C872 H863 0.950 . S
C872 C871 1.398 . S
C872 C873 1.391 . S
C873 H861 0.950 . S
C873 C869 1.393 1_554 S
C873 C872 1.391 . S
C874 H864 0.950 . S
C874 C875 1.386 . S
C874 C876 1.391 . S
C875 C874 1.386 . S
C875 C879 1.393 . S
C876 H865 0.950 . S
C876 C874 1.391 . S
C876 C877 1.400 . S
C877 C871 1.491 . S
C877 C876 1.400 . S
C877 C878 1.398 . S
C878 H866 0.950 . S
C878 C877 1.398 . S
C878 C879 1.391 . S
C879 H867 0.950 . S
C879 C875 1.393 . S
C879 C878 1.391 . S
H880 C888 0.950 . S
H881 C893 0.950 . S
H882 C890 0.950 . S
H883 C892 0.950 . S
H884 C894 0.950 . S
H885 C896 0.950 . S
H886 C898 0.950 . S
H887 C899 0.950 . S
C888 H880 0.950 . S
C888 C889 1.386 . S
C888 C890 1.391 . S
C889 C888 1.386 . S
C889 C893 1.393 . S
C890 H882 0.950 . S
C890 C888 1.391 . S
C890 C891 1.400 . S
C891 C890 1.400 . S
C891 C892 1.398 . S
C891 C897 1.491 . S
C892 H883 0.950 . S
C892 C891 1.398 . S
C892 C893 1.391 . S
C893 H881 0.950 . S
C893 C889 1.393 . S
C893 C892 1.391 . S
C894 H884 0.950 . S
C894 C895 1.386 . S
C894 C896 1.391 . S
C895 C894 1.386 . S
C895 C899 1.393 . S
C896 H885 0.950 . S
C896 C894 1.391 . S
C896 C897 1.400 . S
C897 C891 1.491 . S
C897 C896 1.400 . S
C897 C898 1.398 . S
C898 H886 0.950 . S
C898 C897 1.398 . S
C898 C899 1.391 . S
C899 H887 0.950 . S
C899 C895 1.393 . S
C899 C898 1.391 . S
H900 C908 0.950 . S
H901 C913 0.950 . S
H902 C910 0.950 . S
H903 C912 0.950 . S
H904 C914 0.950 . S
H905 C916 0.950 . S
H906 C918 0.950 . S
H907 C919 0.950 . S
C908 H900 0.950 . S
C908 C909 1.386 . S
C908 C910 1.391 . S
C909 C908 1.386 . S
C909 C913 1.393 . S
C910 H902 0.950 . S
C910 C908 1.391 . S
C910 C911 1.400 . S
C911 C910 1.400 . S
C911 C912 1.398 . S
C911 C917 1.491 . S
C912 H903 0.950 . S
C912 C911 1.398 . S
C912 C913 1.391 . S
C913 H901 0.950 . S
C913 C909 1.393 . S
C913 C912 1.391 . S
C914 H904 0.950 . S
C914 C915 1.386 . S
C914 C916 1.391 . S
C915 C914 1.386 . S
C915 C919 1.393 . S
C916 H905 0.950 . S
C916 C914 1.391 . S
C916 C917 1.400 . S
C917 C911 1.491 . S
C917 C916 1.400 . S
C917 C918 1.398 . S
C918 H906 0.950 . S
C918 C917 1.398 . S
C918 C919 1.391 . S
C919 H907 0.950 . S
C919 C915 1.393 . S
C919 C918 1.391 . S
H920 C928 0.950 . S
H921 C933 0.950 . S
H922 C930 0.950 . S
H923 C932 0.950 . S
H924 C934 0.950 . S
H925 C936 0.950 . S
H926 C938 0.950 . S
H927 C939 0.950 . S
C928 H920 0.950 . S
C928 C929 1.386 . S
C928 C930 1.391 . S
C929 C928 1.386 . S
C929 C933 1.393 . S
C930 H922 0.950 . S
C930 C928 1.391 . S
C930 C931 1.400 . S
C931 C930 1.400 . S
C931 C932 1.398 . S
C931 C937 1.491 . S
C932 H923 0.950 . S
C932 C931 1.398 . S
C932 C933 1.391 . S
C933 H921 0.950 . S
C933 C929 1.393 . S
C933 C932 1.391 . S
C934 H924 0.950 . S
C934 C935 1.386 . S
C934 C936 1.391 . S
C935 C934 1.386 . S
C935 C939 1.393 . S
C936 H925 0.950 . S
C936 C934 1.391 . S
C936 C937 1.400 . S
C937 C931 1.491 . S
C937 C936 1.400 . S
C937 C938 1.398 . S
C938 H926 0.950 . S
C938 C937 1.398 . S
C938 C939 1.391 . S
C939 H927 0.950 . S
C939 C935 1.393 . S
C939 C938 1.391 . S
H940 C948 0.950 . S
H941 C953 0.950 . S
H942 C950 0.950 . S
H943 C952 0.950 . S
H944 C954 0.950 . S
H945 C956 0.950 . S
H946 C958 0.950 . S
H947 C959 0.950 . S
C948 H940 0.950 . S
C948 C949 1.386 . S
C948 C950 1.391 . S
C949 C948 1.386 . S
C949 C953 1.393 . S
C950 H942 0.950 . S
C950 C948 1.391 . S
C950 C951 1.400 . S
C951 C950 1.400 . S
C951 C952 1.398 . S
C951 C957 1.491 . S
C952 H943 0.950 . S
C952 C951 1.398 . S
C952 C953 1.391 . S
C953 H941 0.950 . S
C953 C949 1.393 . S
C953 C952 1.391 . S
C954 H944 0.950 . S
C954 C955 1.386 . S
C954 C956 1.391 . S
C955 C954 1.386 . S
C955 C959 1.393 . S
C956 H945 0.950 . S
C956 C954 1.391 . S
C956 C957 1.400 . S
C957 C951 1.491 . S
C957 C956 1.400 . S
C957 C958 1.398 . S
C958 H946 0.950 . S
C958 C957 1.398 . S
C958 C959 1.391 . S
C959 H947 0.950 . S
C959 C955 1.393 . S
C959 C958 1.391 . S
H960 C968 0.950 . S
H961 C973 0.950 . S
H962 C970 0.950 . S
H963 C972 0.950 . S
H964 C974 0.950 . S
H965 C976 0.950 . S
H966 C978 0.950 . S
H967 C979 0.950 . S
C968 H960 0.950 . S
C968 C969 1.386 . S
C968 C970 1.391 . S
C969 C968 1.386 . S
C969 C973 1.393 . S
C970 H962 0.950 . S
C970 C968 1.391 . S
C970 C971 1.400 . S
C971 C970 1.400 . S
C971 C972 1.398 . S
C971 C977 1.491 . S
C972 H963 0.950 . S
C972 C971 1.398 . S
C972 C973 1.391 . S
C973 H961 0.950 . S
C973 C969 1.393 . S
C973 C972 1.391 . S
C974 H964 0.950 . S
C974 C975 1.386 . S
C974 C976 1.391 . S
C975 C974 1.386 . S
C975 C979 1.393 . S
C976 H965 0.950 . S
C976 C974 1.391 . S
C976 C977 1.400 . S
C977 C971 1.491 . S
C977 C976 1.400 . S
C977 C978 1.398 . S
C978 H966 0.950 . S
C978 C977 1.398 . S
C978 C979 1.391 . S
C979 H967 0.950 . S
C979 C975 1.393 . S
C979 C978 1.391 . S
H980 C988 0.950 . S
H981 C993 0.950 . S
H982 C990 0.950 . S
H983 C992 0.950 . S
H984 C994 0.950 . S
H985 C996 0.950 . S
H986 C998 0.950 . S
H987 C999 0.950 . S
C988 H980 0.950 . S
C988 C989 1.386 . S
C988 C990 1.391 . S
C989 C988 1.386 . S
C989 C993 1.393 . S
C990 H982 0.950 . S
C990 C988 1.391 . S
C990 C991 1.400 . S
C991 C990 1.400 . S
C991 C992 1.398 . S
C991 C997 1.491 . S
C992 H983 0.950 . S
C992 C991 1.398 . S
C992 C993 1.391 . S
C993 H981 0.950 . S
C993 C989 1.393 . S
C993 C992 1.391 . S
C994 H984 0.950 . S
C994 C995 1.386 . S
C994 C996 1.391 . S
C995 C994 1.386 . S
C995 C999 1.393 . S
C996 H985 0.950 . S
C996 C994 1.391 . S
C996 C997 1.400 . S
C997 C991 1.491 . S
C997 C996 1.400 . S
C997 C998 1.398 . S
C998 H986 0.950 . S
C998 C997 1.398 . S
C998 C999 1.391 . S
C999 H987 0.950 . S
C999 C995 1.393 . S
C999 C998 1.391 . S
H1000 C1008 0.950 . S
H1001 C1013 0.950 . S
H1002 C1010 0.950 . S
H1003 C1012 0.950 . S
H1004 C1014 0.950 . S
H1005 C1016 0.950 . S
H1006 C1018 0.950 . S
H1007 C1019 0.950 . S
C1008 H1000 0.950 . S
C1008 C1009 1.386 . S
C1008 C1010 1.391 . S
C1009 C1008 1.386 . S
C1009 C1013 1.393 . S
C1010 H1002 0.950 . S
C1010 C1008 1.391 . S
C1010 C1011 1.400 . S
C1011 C1010 1.400 . S
C1011 C1012 1.398 . S
C1011 C1017 1.491 . S
C1012 H1003 0.950 . S
C1012 C1011 1.398 . S
C1012 C1013 1.391 . S
C1013 H1001 0.950 . S
C1013 C1009 1.393 . S
C1013 C1012 1.391 . S
C1014 H1004 0.950 . S
C1014 C1015 1.386 . S
C1014 C1016 1.391 . S
C1015 C1014 1.386 . S
C1015 C1019 1.393 . S
C1016 H1005 0.950 . S
C1016 C1014 1.391 . S
C1016 C1017 1.400 . S
C1017 C1011 1.491 . S
C1017 C1016 1.400 . S
C1017 C1018 1.398 . S
C1018 H1006 0.950 . S
C1018 C1017 1.398 . S
C1018 C1019 1.391 . S
C1019 H1007 0.950 . S
C1019 C1015 1.393 . S
C1019 C1018 1.391 . S
H1020 C1028 0.950 . S
H1021 C1033 0.950 . S
H1022 C1030 0.950 . S
H1023 C1032 0.950 . S
H1024 C1034 0.950 . S
H1025 C1036 0.950 . S
H1026 C1038 0.950 . S
H1027 C1039 0.950 . S
C1028 H1020 0.950 . S
C1028 C1029 1.386 . S
C1028 C1030 1.391 . S
C1029 C1028 1.386 . S
C1029 C1033 1.393 . S
C1030 H1022 0.950 . S
C1030 C1028 1.391 . S
C1030 C1031 1.400 . S
C1031 C1030 1.400 . S
C1031 C1032 1.398 . S
C1031 C1037 1.491 . S
C1032 H1023 0.950 . S
C1032 C1031 1.398 . S
C1032 C1033 1.391 . S
C1033 H1021 0.950 . S
C1033 C1029 1.393 . S
C1033 C1032 1.391 . S
C1034 H1024 0.950 . S
C1034 C1035 1.386 . S
C1034 C1036 1.391 . S
C1035 C1034 1.386 . S
C1035 C1039 1.393 . S
C1036 H1025 0.950 . S
C1036 C1034 1.391 . S
C1036 C1037 1.400 . S
C1037 C1031 1.491 . S
C1037 C1036 1.400 . S
C1037 C1038 1.398 . S
C1038 H1026 0.950 . S
C1038 C1037 1.398 . S
C1038 C1039 1.391 . S
C1039 H1027 0.950 . S
C1039 C1035 1.393 . S
C1039 C1038 1.391 . S
H1040 C1048 0.950 . S
H1041 C1053 0.950 . S
H1042 C1050 0.950 . S
H1043 C1052 0.950 . S
H1044 C1054 0.950 . S
H1045 C1056 0.950 . S
H1046 C1058 0.950 . S
H1047 C1059 0.950 . S
C1048 H1040 0.950 . S
C1048 C1049 1.386 . S
C1048 C1050 1.391 . S
C1049 C1048 1.386 . S
C1049 C1053 1.393 . S
C1050 H1042 0.950 . S
C1050 C1048 1.391 . S
C1050 C1051 1.400 . S
C1051 C1050 1.400 . S
C1051 C1052 1.398 . S
C1051 C1057 1.491 . S
C1052 H1043 0.950 . S
C1052 C1051 1.398 . S
C1052 C1053 1.391 . S
C1053 H1041 0.950 . S
C1053 C1049 1.393 . S
C1053 C1052 1.391 . S
C1054 H1044 0.950 . S
C1054 C1055 1.386 . S
C1054 C1056 1.391 . S
C1055 C1054 1.386 . S
C1055 C1059 1.393 . S
C1056 H1045 0.950 . S
C1056 C1054 1.391 . S
C1056 C1057 1.400 . S
C1057 C1051 1.491 . S
C1057 C1056 1.400 . S
C1057 C1058 1.398 . S
C1058 H1046 0.950 . S
C1058 C1057 1.398 . S
C1058 C1059 1.391 . S
C1059 H1047 0.950 . S
C1059 C1055 1.393 . S
C1059 C1058 1.391 . S
H1060 C1068 0.950 . S
H1061 C1073 0.950 . S
H1062 C1070 0.950 . S
H1063 C1072 0.950 . S
H1064 C1074 0.950 . S
H1065 C1076 0.950 . S
H1066 C1078 0.950 . S
H1067 C1079 0.950 . S
C1068 H1060 0.950 . S
C1068 C1069 1.386 . S
C1068 C1070 1.391 . S
C1069 C1068 1.386 . S
C1069 C1073 1.393 . S
C1070 H1062 0.950 . S
C1070 C1068 1.391 . S
C1070 C1071 1.400 . S
C1071 C1070 1.400 . S
C1071 C1072 1.398 . S
C1071 C1077 1.491 . S
C1072 H1063 0.950 . S
C1072 C1071 1.398 . S
C1072 C1073 1.391 . S
C1073 H1061 0.950 . S
C1073 C1069 1.393 . S
C1073 C1072 1.391 . S
C1074 H1064 0.950 . S
C1074 C1075 1.386 . S
C1074 C1076 1.391 . S
C1075 C1074 1.386 . S
C1075 C1079 1.393 . S
C1076 H1065 0.950 . S
C1076 C1074 1.391 . S
C1076 C1077 1.400 . S
C1077 C1071 1.491 . S
C1077 C1076 1.400 . S
C1077 C1078 1.398 . S
C1078 H1066 0.950 . S
C1078 C1077 1.398 . S
C1078 C1079 1.391 . S
C1079 H1067 0.950 . S
C1079 C1075 1.393 . S
C1079 C1078 1.391 . S
H1080 C1088 0.950 . S
H1081 C1093 0.950 . S
H1082 C1090 0.950 . S
H1083 C1092 0.950 . S
H1084 C1094 0.950 . S
H1085 C1096 0.950 . S
H1086 C1098 0.950 . S
H1087 C1099 0.950 . S
C1088 H1080 0.950 . S
C1088 C1089 1.386 . S
C1088 C1090 1.391 . S
C1089 C1088 1.386 . S
C1089 C1093 1.393 . S
C1090 H1082 0.950 . S
C1090 C1088 1.391 . S
C1090 C1091 1.400 . S
C1091 C1090 1.400 . S
C1091 C1092 1.398 . S
C1091 C1097 1.491 . S
C1092 H1083 0.950 . S
C1092 C1091 1.398 . S
C1092 C1093 1.391 . S
C1093 H1081 0.950 . S
C1093 C1089 1.393 . S
C1093 C1092 1.391 . S
C1094 H1084 0.950 . S
C1094 C1095 1.386 . S
C1094 C1096 1.391 . S
C1095 C1094 1.386 . S
C1095 C1099 1.393 . S
C1096 H1085 0.950 . S
C1096 C1094 1.391 . S
C1096 C1097 1.400 . S
C1097 C1091 1.491 . S
C1097 C1096 1.400 . S
C1097 C1098 1.398 . S
C1098 H1086 0.950 . S
C1098 C1097 1.398 . S
C1098 C1099 1.391 . S
C1099 H1087 0.950 . S
C1099 C1095 1.393 . S
C1099 C1098 1.391 . S
H1100 C1108 0.950 . S
H1101 C1113 0.950 . S
H1102 C1110 0.950 . S
H1103 C1112 0.950 . S
H1104 C1114 0.950 . S
H1105 C1116 0.950 . S
H1106 C1118 0.950 . S
H1107 C1119 0.950 . S
C1108 H1100 0.950 . S
C1108 C1109 1.386 . S
C1108 C1110 1.391 . S
C1109 C1108 1.386 . S
C1109 C1113 1.393 . S
C1110 H1102 0.950 . S
C1110 C1108 1.391 . S
C1110 C1111 1.400 . S
C1111 C1110 1.400 . S
C1111 C1112 1.398 . S
C1111 C1117 1.491 . S
C1112 H1103 0.950 . S
C1112 C1111 1.398 . S
C1112 C1113 1.391 . S
C1113 H1101 0.950 . S
C1113 C1109 1.393 . S
C1113 C1112 1.391 . S
C1114 H1104 0.950 . S
C1114 C1115 1.386 . S
C1114 C1116 1.391 . S
C1115 C1114 1.386 . S
C1115 C1119 1.393 . S
C1116 H1105 0.950 . S
C1116 C1114 1.391 . S
C1116 C1117 1.400 . S
C1117 C1111 1.491 . S
C1117 C1116 1.400 . S
C1117 C1118 1.398 . S
C1118 H1106 0.950 . S
C1118 C1117 1.398 . S
C1118 C1119 1.391 . S
C1119 H1107 0.950 . S
C1119 C1115 1.393 . S
C1119 C1118 1.391 . S
H1120 C1128 0.950 . S
H1121 C1133 0.950 . S
H1122 C1130 0.950 . S
H1123 C1132 0.950 . S
H1124 C1134 0.950 . S
H1125 C1136 0.950 . S
H1126 C1138 0.950 . S
H1127 C1139 0.950 . S
C1128 H1120 0.950 . S
C1128 C1129 1.386 . S
C1128 C1130 1.391 1_556 S
C1129 C1128 1.386 . S
C1129 C1133 1.393 . S
C1130 H1122 0.950 . S
C1130 C1128 1.391 1_554 S
C1130 C1131 1.400 . S
C1131 C1130 1.400 . S
C1131 C1132 1.398 . S
C1131 C1137 1.491 . S
C1132 H1123 0.950 . S
C1132 C1131 1.398 . S
C1132 C1133 1.391 1_554 S
C1133 H1121 0.950 . S
C1133 C1129 1.393 . S
C1133 C1132 1.391 1_556 S
C1134 H1124 0.950 . S
C1134 C1135 1.386 . S
C1134 C1136 1.391 . S
C1135 C1134 1.386 . S
C1135 C1139 1.393 . S
C1136 H1125 0.950 . S
C1136 C1134 1.391 . S
C1136 C1137 1.400 . S
C1137 C1131 1.491 . S
C1137 C1136 1.400 . S
C1137 C1138 1.398 . S
C1138 H1126 0.950 . S
C1138 C1137 1.398 . S
C1138 C1139 1.391 . S
C1139 H1127 0.950 . S
C1139 C1135 1.393 . S
C1139 C1138 1.391 . S
H1140 C1148 0.950 . S
H1141 C1153 0.950 . S
H1142 C1150 0.950 . S
H1143 C1152 0.950 . S
H1144 C1154 0.950 . S
H1145 C1156 0.950 . S
H1146 C1158 0.950 . S
H1147 C1159 0.950 . S
C1148 H1140 0.950 . S
C1148 C1149 1.386 . S
C1148 C1150 1.391 . S
C1149 C1148 1.386 . S
C1149 C1153 1.393 . S
C1150 H1142 0.950 . S
C1150 C1148 1.391 . S
C1150 C1151 1.400 . S
C1151 C1150 1.400 . S
C1151 C1152 1.398 . S
C1151 C1157 1.491 . S
C1152 H1143 0.950 . S
C1152 C1151 1.398 . S
C1152 C1153 1.391 . S
C1153 H1141 0.950 . S
C1153 C1149 1.393 . S
C1153 C1152 1.391 . S
C1154 H1144 0.950 . S
C1154 C1155 1.386 . S
C1154 C1156 1.391 1_554 S
C1155 C1154 1.386 . S
C1155 C1159 1.393 . S
C1156 H1145 0.950 . S
C1156 C1154 1.391 1_556 S
C1156 C1157 1.400 . S
C1157 C1151 1.491 . S
C1157 C1156 1.400 . S
C1157 C1158 1.398 . S
C1158 H1146 0.950 . S
C1158 C1157 1.398 . S
C1158 C1159 1.391 1_556 S
C1159 H1147 0.950 . S
C1159 C1155 1.393 . S
C1159 C1158 1.391 1_554 S
H1160 C1168 0.950 . S
H1161 C1173 0.950 . S
H1162 C1170 0.950 . S
H1163 C1172 0.950 . S
H1164 C1174 0.950 . S
H1165 C1176 0.950 . S
H1166 C1178 0.950 . S
H1167 C1179 0.950 . S
C1168 H1160 0.950 . S
C1168 C1169 1.386 . S
C1168 C1170 1.391 . S
C1169 C1168 1.386 . S
C1169 C1173 1.393 . S
C1170 H1162 0.950 . S
C1170 C1168 1.391 . S
C1170 C1171 1.400 . S
C1171 C1170 1.400 . S
C1171 C1172 1.398 . S
C1171 C1177 1.491 . S
C1172 H1163 0.950 . S
C1172 C1171 1.398 . S
C1172 C1173 1.391 . S
C1173 H1161 0.950 . S
C1173 C1169 1.393 . S
C1173 C1172 1.391 . S
C1174 H1164 0.950 . S
C1174 C1175 1.386 . S
C1174 C1176 1.391 1_556 S
C1175 C1174 1.386 . S
C1175 C1179 1.393 . S
C1176 H1165 0.950 . S
C1176 C1174 1.391 1_554 S
C1176 C1177 1.400 . S
C1177 C1171 1.491 . S
C1177 C1176 1.400 . S
C1177 C1178 1.398 . S
C1178 H1166 0.950 . S
C1178 C1177 1.398 . S
C1178 C1179 1.391 1_554 S
C1179 H1167 0.950 . S
C1179 C1175 1.393 . S
C1179 C1178 1.391 1_556 S
H1180 C1188 0.950 . S
H1181 C1193 0.950 . S
H1182 C1190 0.950 . S
H1183 C1192 0.950 . S
H1184 C1194 0.950 . S
H1185 C1196 0.950 . S
H1186 C1198 0.950 . S
H1187 C1199 0.950 . S
C1188 H1180 0.950 . S
C1188 C1189 1.386 . S
C1188 C1190 1.391 1_554 S
C1189 C1188 1.386 . S
C1189 C1193 1.393 . S
C1190 H1182 0.950 . S
C1190 C1188 1.391 1_556 S
C1190 C1191 1.400 . S
C1191 C1190 1.400 . S
C1191 C1192 1.398 . S
C1191 C1197 1.491 . S
C1192 H1183 0.950 . S
C1192 C1191 1.398 . S
C1192 C1193 1.391 1_556 S
C1193 H1181 0.950 . S
C1193 C1189 1.393 . S
C1193 C1192 1.391 1_554 S
C1194 H1184 0.950 . S
C1194 C1195 1.386 . S
C1194 C1196 1.391 . S
C1195 C1194 1.386 . S
C1195 C1199 1.393 . S
C1196 H1185 0.950 . S
C1196 C1194 1.391 . S
C1196 C1197 1.400 . S
C1197 C1191 1.491 . S
C1197 C1196 1.400 . S
C1197 C1198 1.398 . S
C1198 H1186 0.950 . S
C1198 C1197 1.398 . S
C1198 C1199 1.391 . S
C1199 H1187 0.950 . S
C1199 C1195 1.393 . S
C1199 C1198 1.391 . S
H1200 C1208 0.950 . S
H1201 C1213 0.950 . S
H1202 C1210 0.950 . S
H1203 C1212 0.950 . S
H1204 C1214 0.950 . S
H1205 C1216 0.950 . S
H1206 C1218 0.950 . S
H1207 C1219 0.950 . S
C1208 H1200 0.950 . S
C1208 C1209 1.386 . S
C1208 C1210 1.391 . S
C1209 C1208 1.386 . S
C1209 C1213 1.393 . S
C1210 H1202 0.950 . S
C1210 C1208 1.391 . S
C1210 C1211 1.400 . S
C1211 C1210 1.400 . S
C1211 C1212 1.398 . S
C1211 C1217 1.491 . S
C1212 H1203 0.950 . S
C1212 C1211 1.398 . S
C1212 C1213 1.391 . S
C1213 H1201 0.950 . S
C1213 C1209 1.393 . S
C1213 C1212 1.391 . S
C1214 H1204 0.950 . S
C1214 C1215 1.386 . S
C1214 C1216 1.391 1_556 S
C1215 C1214 1.386 . S
C1215 C1219 1.393 . S
C1216 H1205 0.950 . S
C1216 C1214 1.391 1_554 S
C1216 C1217 1.400 . S
C1217 C1211 1.491 . S
C1217 C1216 1.400 . S
C1217 C1218 1.398 . S
C1218 H1206 0.950 . S
C1218 C1217 1.398 . S
C1218 C1219 1.391 1_554 S
C1219 H1207 0.950 . S
C1219 C1215 1.393 . S
C1219 C1218 1.391 1_556 S
H1220 C1228 0.950 . S
H1221 C1233 0.950 . S
H1222 C1230 0.950 . S
H1223 C1232 0.950 . S
H1224 C1234 0.950 . S
H1225 C1236 0.950 . S
H1226 C1238 0.950 . S
H1227 C1239 0.950 . S
C1228 H1220 0.950 . S
C1228 C1229 1.386 . S
C1228 C1230 1.391 1_554 S
C1229 C1228 1.386 . S
C1229 C1233 1.393 . S
C1230 H1222 0.950 . S
C1230 C1228 1.391 1_556 S
C1230 C1231 1.400 . S
C1231 C1230 1.400 . S
C1231 C1232 1.398 . S
C1231 C1237 1.491 . S
C1232 H1223 0.950 . S
C1232 C1231 1.398 . S
C1232 C1233 1.391 1_556 S
C1233 H1221 0.950 . S
C1233 C1229 1.393 . S
C1233 C1232 1.391 1_554 S
C1234 H1224 0.950 . S
C1234 C1235 1.386 . S
C1234 C1236 1.391 . S
C1235 C1234 1.386 . S
C1235 C1239 1.393 . S
C1236 H1225 0.950 . S
C1236 C1234 1.391 . S
C1236 C1237 1.400 . S
C1237 C1231 1.491 . S
C1237 C1236 1.400 . S
C1237 C1238 1.398 . S
C1238 H1226 0.950 . S
C1238 C1237 1.398 . S
C1238 C1239 1.391 . S
C1239 H1227 0.950 . S
C1239 C1235 1.393 . S
C1239 C1238 1.391 . S
H1240 C1248 0.950 . S
H1241 C1253 0.950 . S
H1242 C1250 0.950 . S
H1243 C1252 0.950 . S
H1244 C1254 0.950 . S
H1245 C1256 0.950 . S
H1246 C1258 0.950 . S
H1247 C1259 0.950 . S
C1248 H1240 0.950 . S
C1248 C1249 1.386 . S
C1248 C1250 1.391 1_556 S
C1249 C1248 1.386 . S
C1249 C1253 1.393 . S
C1250 H1242 0.950 . S
C1250 C1248 1.391 1_554 S
C1250 C1251 1.400 . S
C1251 C1250 1.400 . S
C1251 C1252 1.398 . S
C1251 C1257 1.491 . S
C1252 H1243 0.950 . S
C1252 C1251 1.398 . S
C1252 C1253 1.391 1_554 S
C1253 H1241 0.950 . S
C1253 C1249 1.393 . S
C1253 C1252 1.391 1_556 S
C1254 H1244 0.950 . S
C1254 C1255 1.386 . S
C1254 C1256 1.391 . S
C1255 C1254 1.386 . S
C1255 C1259 1.393 . S
C1256 H1245 0.950 . S
C1256 C1254 1.391 . S
C1256 C1257 1.400 . S
C1257 C1251 1.491 . S
C1257 C1256 1.400 . S
C1257 C1258 1.398 . S
C1258 H1246 0.950 . S
C1258 C1257 1.398 . S
C1258 C1259 1.391 . S
C1259 H1247 0.950 . S
C1259 C1255 1.393 . S
C1259 C1258 1.391 . S
H1260 C1268 0.950 . S
H1261 C1273 0.950 . S
H1262 C1270 0.950 . S
H1263 C1272 0.950 . S
H1264 C1274 0.950 . S
H1265 C1276 0.950 . S
H1266 C1278 0.950 . S
H1267 C1279 0.950 . S
C1268 H1260 0.950 . S
C1268 C1269 1.386 . S
C1268 C1270 1.391 . S
C1269 C1268 1.386 . S
C1269 C1273 1.393 . S
C1270 H1262 0.950 . S
C1270 C1268 1.391 . S
C1270 C1271 1.400 . S
C1271 C1270 1.400 . S
C1271 C1272 1.398 . S
C1271 C1277 1.491 . S
C1272 H1263 0.950 . S
C1272 C1271 1.398 . S
C1272 C1273 1.391 . S
C1273 H1261 0.950 . S
C1273 C1269 1.393 . S
C1273 C1272 1.391 . S
C1274 H1264 0.950 . S
C1274 C1275 1.386 . S
C1274 C1276 1.391 1_554 S
C1275 C1274 1.386 . S
C1275 C1279 1.393 . S
C1276 H1265 0.950 . S
C1276 C1274 1.391 1_556 S
C1276 C1277 1.400 . S
C1277 C1271 1.491 . S
C1277 C1276 1.400 . S
C1277 C1278 1.398 . S
C1278 H1266 0.950 . S
C1278 C1277 1.398 . S
C1278 C1279 1.391 1_556 S
C1279 H1267 0.950 . S
C1279 C1275 1.393 . S
C1279 C1278 1.391 1_554 S
C329 C239 1.604 . S
C335 C9 1.604 . S
C349 C178 1.587 . S
C355 C28 1.588 . S
C369 C49 1.588 . S
C375 C199 1.587 . S
C389 C68 1.605 . S
C395 C218 1.604 . S
C409 C89 1.589 . S
C415 C119 1.588 . S
C429 C138 1.604 . S
C435 C108 1.604 . S
C449 C129 1.602 . S
C455 C159 1.602 . S
C469 C98 1.596 . S
C475 C148 1.598 . S
C489 C79 1.594 . S
C495 C169 1.594 . S
C509 C188 1.592 . S
C515 C18 1.589 . S
C529 C39 1.591 . S
C535 C209 1.594 . S
C549 C58 1.589 . S
C555 C228 1.591 . S
C569 C249 1.605 . S
C575 C279 1.604 . S
C589 C298 1.604 . S
C595 C268 1.604 . S
C609 C319 1.590 . S
C615 C289 1.590 . S
C629 C308 1.598 . S
C635 C258 1.596 . S
C649 C8 1.289 . S
C655 C88 1.283 . S
C669 C109 1.302 . S
C675 C29 1.290 . S
C689 C48 1.314 . S
C695 C128 1.317 . S
C709 C69 1.311 . S
C715 C149 1.317 . S
C729 C168 1.292 . S
C735 C248 1.304 . S
C749 C269 1.286 . S
C755 C189 1.284 . S
C769 C208 1.305 . S
C775 C288 1.293 . S
C789 C229 1.313 . S
C795 C309 1.317 . S
C809 C299 1.827 . S
C815 C19 1.834 . S
C829 C38 1.836 . S
C835 C318 1.829 . S
C849 C59 1.825 . S
C855 C259 1.831 . S
C869 C78 1.830 . S
C875 C278 1.834 . S
C889 C99 1.833 . S
C895 C219 1.827 . S
C909 C118 1.825 . S
C915 C238 1.831 . S
C929 C139 1.834 . S
C935 C179 1.827 . S
C949 C198 1.831 . S
C955 C158 1.825 . S
C969 C2 1.308 . S
C975 C1 1.308 . S
C989 C21 1.306 . S
C995 C22 1.306 . S
C1009 C42 1.301 . S
C1015 C41 1.301 . S
C1029 C62 1.317 . S
C1035 C61 1.317 . S
C1049 C81 1.308 . S
C1055 C82 1.308 . S
C1069 C101 1.314 . S
C1075 C102 1.314 . S
C1089 C122 1.307 . S
C1095 C121 1.307 . S
C1109 C142 1.320 . S
C1115 C141 1.320 . S
C1129 C162 1.312 . S
C1135 C161 1.312 . S
C1149 C182 1.305 . S
C1155 C181 1.305 . S
C1169 C201 1.319 . S
C1175 C202 1.319 . S
C1189 C221 1.319 . S
C1195 C222 1.319 . S
C1209 C242 1.308 . S
C1215 C241 1.308 . S
C1229 C262 1.320 . S
C1235 C261 1.320 . S
C1249 C281 1.310 . S
C1255 C282 1.310 . S
C1269 C301 1.315 . S
C1275 C302 1.315 . S
