# Generated by pormake.
# Topology wlr, (5)-cn, num edge types: 1
# Building blocks:
#     Node 0, Type 0, BuildingBlock: XOMCOT_clean_sbu_0, # of connection points: 5
#     Node 1, Type 0, BuildingBlock: XOMCOT_clean_sbu_0, # of connection points: 5
#     Node 2, Type 0, BuildingBlock: XOMCOT_clean_sbu_0, # of connection points: 5
#     Node 3, Type 0, BuildingBlock: XOMCOT_clean_sbu_0, # of connection points: 5
#     Node 4, Type 0, BuildingBlock: XOMCOT_clean_sbu_0, # of connection points: 5
#     Node 5, Type 0, BuildingBlock: XOMCOT_clean_sbu_0, # of connection points: 5
#     Node 6, Type 0, BuildingBlock: XOMCOT_clean_sbu_0, # of connection points: 5
#     Node 7, Type 0, BuildingBlock: XOMCOT_clean_sbu_0, # of connection points: 5
#     Node 8, Type 0, BuildingBlock: XOMCOT_clean_sbu_0, # of connection points: 5
#     Node 9, Type 0, BuildingBlock: XOMCOT_clean_sbu_0, # of connection points: 5
#     Node 10, Type 0, BuildingBlock: XOMCOT_clean_sbu_0, # of connection points: 5
#     Node 11, Type 0, BuildingBlock: XOMCOT_clean_sbu_0, # of connection points: 5
#     Node 12, Type 0, BuildingBlock: XOMCOT_clean_sbu_0, # of connection points: 5
#     Node 13, Type 0, BuildingBlock: XOMCOT_clean_sbu_0, # of connection points: 5
#     Node 14, Type 0, BuildingBlock: XOMCOT_clean_sbu_0, # of connection points: 5
#     Node 15, Type 0, BuildingBlock: XOMCOT_clean_sbu_0, # of connection points: 5
#     Node 16, Type 0, BuildingBlock: XOMCOT_clean_sbu_0, # of connection points: 5
#     Node 17, Type 0, BuildingBlock: XOMCOT_clean_sbu_0, # of connection points: 5
#     Node 18, Type 0, BuildingBlock: XOMCOT_clean_sbu_0, # of connection points: 5
#     Node 19, Type 0, BuildingBlock: XOMCOT_clean_sbu_0, # of connection points: 5
#     Node 20, Type 0, BuildingBlock: XOMCOT_clean_sbu_0, # of connection points: 5
#     Node 21, Type 0, BuildingBlock: XOMCOT_clean_sbu_0, # of connection points: 5
#     Node 22, Type 0, BuildingBlock: XOMCOT_clean_sbu_0, # of connection points: 5
#     Node 23, Type 0, BuildingBlock: XOMCOT_clean_sbu_0, # of connection points: 5
#     Node 24, Type 0, BuildingBlock: XOMCOT_clean_sbu_0, # of connection points: 5
#     Node 25, Type 0, BuildingBlock: XOMCOT_clean_sbu_0, # of connection points: 5
#     Node 26, Type 0, BuildingBlock: XOMCOT_clean_sbu_0, # of connection points: 5
#     Node 27, Type 0, BuildingBlock: XOMCOT_clean_sbu_0, # of connection points: 5
#     Node 28, Type 0, BuildingBlock: XOMCOT_clean_sbu_0, # of connection points: 5
#     Node 29, Type 0, BuildingBlock: XOMCOT_clean_sbu_0, # of connection points: 5
#     Node 30, Type 0, BuildingBlock: XOMCOT_clean_sbu_0, # of connection points: 5
#     Node 31, Type 0, BuildingBlock: XOMCOT_clean_sbu_0, # of connection points: 5
#     Node 32, Type 0, BuildingBlock: XOMCOT_clean_sbu_0, # of connection points: 5
#     Node 33, Type 0, BuildingBlock: XOMCOT_clean_sbu_0, # of connection points: 5
#     Node 34, Type 0, BuildingBlock: XOMCOT_clean_sbu_0, # of connection points: 5
#     Node 35, Type 0, BuildingBlock: XOMCOT_clean_sbu_0, # of connection points: 5
#     Edge 36, Type (0, 0), BuildingBlock: UVAHIK_clean_linker_0, # of connection points: 2
#     Edge 37, Type (0, 0), BuildingBlock: UVAHIK_clean_linker_0, # of connection points: 2
#     Edge 38, Type (0, 0), BuildingBlock: UVAHIK_clean_linker_0, # of connection points: 2
#     Edge 39, Type (0, 0), BuildingBlock: UVAHIK_clean_linker_0, # of connection points: 2
#     Edge 40, Type (0, 0), BuildingBlock: UVAHIK_clean_linker_0, # of connection points: 2
#     Edge 41, Type (0, 0), BuildingBlock: UVAHIK_clean_linker_0, # of connection points: 2
#     Edge 42, Type (0, 0), BuildingBlock: UVAHIK_clean_linker_0, # of connection points: 2
#     Edge 43, Type (0, 0), BuildingBlock: UVAHIK_clean_linker_0, # of connection points: 2
#     Edge 44, Type (0, 0), BuildingBlock: UVAHIK_clean_linker_0, # of connection points: 2
#     Edge 45, Type (0, 0), BuildingBlock: UVAHIK_clean_linker_0, # of connection points: 2
#     Edge 46, Type (0, 0), BuildingBlock: UVAHIK_clean_linker_0, # of connection points: 2
#     Edge 47, Type (0, 0), BuildingBlock: UVAHIK_clean_linker_0, # of connection points: 2
#     Edge 48, Type (0, 0), BuildingBlock: UVAHIK_clean_linker_0, # of connection points: 2
#     Edge 49, Type (0, 0), BuildingBlock: UVAHIK_clean_linker_0, # of connection points: 2
#     Edge 50, Type (0, 0), BuildingBlock: UVAHIK_clean_linker_0, # of connection points: 2
#     Edge 51, Type (0, 0), BuildingBlock: UVAHIK_clean_linker_0, # of connection points: 2
#     Edge 52, Type (0, 0), BuildingBlock: UVAHIK_clean_linker_0, # of connection points: 2
#     Edge 53, Type (0, 0), BuildingBlock: UVAHIK_clean_linker_0, # of connection points: 2
#     Edge 54, Type (0, 0), BuildingBlock: UVAHIK_clean_linker_0, # of connection points: 2
#     Edge 55, Type (0, 0), BuildingBlock: UVAHIK_clean_linker_0, # of connection points: 2
#     Edge 56, Type (0, 0), BuildingBlock: UVAHIK_clean_linker_0, # of connection points: 2
#     Edge 57, Type (0, 0), BuildingBlock: UVAHIK_clean_linker_0, # of connection points: 2
#     Edge 58, Type (0, 0), BuildingBlock: UVAHIK_clean_linker_0, # of connection points: 2
#     Edge 59, Type (0, 0), BuildingBlock: UVAHIK_clean_linker_0, # of connection points: 2
#     Edge 60, Type (0, 0), BuildingBlock: UVAHIK_clean_linker_0, # of connection points: 2
#     Edge 61, Type (0, 0), BuildingBlock: UVAHIK_clean_linker_0, # of connection points: 2
#     Edge 62, Type (0, 0), BuildingBlock: UVAHIK_clean_linker_0, # of connection points: 2
#     Edge 63, Type (0, 0), BuildingBlock: UVAHIK_clean_linker_0, # of connection points: 2
#     Edge 64, Type (0, 0), BuildingBlock: UVAHIK_clean_linker_0, # of connection points: 2
#     Edge 65, Type (0, 0), BuildingBlock: UVAHIK_clean_linker_0, # of connection points: 2
#     Edge 66, Type (0, 0), BuildingBlock: UVAHIK_clean_linker_0, # of connection points: 2
#     Edge 67, Type (0, 0), BuildingBlock: UVAHIK_clean_linker_0, # of connection points: 2
#     Edge 68, Type (0, 0), BuildingBlock: UVAHIK_clean_linker_0, # of connection points: 2
#     Edge 69, Type (0, 0), BuildingBlock: UVAHIK_clean_linker_0, # of connection points: 2
#     Edge 70, Type (0, 0), BuildingBlock: UVAHIK_clean_linker_0, # of connection points: 2
#     Edge 71, Type (0, 0), BuildingBlock: UVAHIK_clean_linker_0, # of connection points: 2
#     Edge 72, Type (0, 0), BuildingBlock: UVAHIK_clean_linker_0, # of connection points: 2
#     Edge 73, Type (0, 0), BuildingBlock: UVAHIK_clean_linker_0, # of connection points: 2
#     Edge 74, Type (0, 0), BuildingBlock: UVAHIK_clean_linker_0, # of connection points: 2
#     Edge 75, Type (0, 0), BuildingBlock: UVAHIK_clean_linker_0, # of connection points: 2
#     Edge 76, Type (0, 0), BuildingBlock: UVAHIK_clean_linker_0, # of connection points: 2
#     Edge 77, Type (0, 0), BuildingBlock: UVAHIK_clean_linker_0, # of connection points: 2
#     Edge 78, Type (0, 0), BuildingBlock: UVAHIK_clean_linker_0, # of connection points: 2
#     Edge 79, Type (0, 0), BuildingBlock: UVAHIK_clean_linker_0, # of connection points: 2
#     Edge 80, Type (0, 0), BuildingBlock: UVAHIK_clean_linker_0, # of connection points: 2
#     Edge 81, Type (0, 0), BuildingBlock: UVAHIK_clean_linker_0, # of connection points: 2
#     Edge 82, Type (0, 0), BuildingBlock: UVAHIK_clean_linker_0, # of connection points: 2
#     Edge 83, Type (0, 0), BuildingBlock: UVAHIK_clean_linker_0, # of connection points: 2
#     Edge 84, Type (0, 0), BuildingBlock: UVAHIK_clean_linker_0, # of connection points: 2
#     Edge 85, Type (0, 0), BuildingBlock: UVAHIK_clean_linker_0, # of connection points: 2
#     Edge 86, Type (0, 0), BuildingBlock: UVAHIK_clean_linker_0, # of connection points: 2
#     Edge 87, Type (0, 0), BuildingBlock: UVAHIK_clean_linker_0, # of connection points: 2
#     Edge 88, Type (0, 0), BuildingBlock: UVAHIK_clean_linker_0, # of connection points: 2
#     Edge 89, Type (0, 0), BuildingBlock: UVAHIK_clean_linker_0, # of connection points: 2
#     Edge 90, Type (0, 0), BuildingBlock: UVAHIK_clean_linker_0, # of connection points: 2
#     Edge 91, Type (0, 0), BuildingBlock: UVAHIK_clean_linker_0, # of connection points: 2
#     Edge 92, Type (0, 0), BuildingBlock: UVAHIK_clean_linker_0, # of connection points: 2
#     Edge 93, Type (0, 0), BuildingBlock: UVAHIK_clean_linker_0, # of connection points: 2
#     Edge 94, Type (0, 0), BuildingBlock: UVAHIK_clean_linker_0, # of connection points: 2
#     Edge 95, Type (0, 0), BuildingBlock: UVAHIK_clean_linker_0, # of connection points: 2
#     Edge 96, Type (0, 0), BuildingBlock: UVAHIK_clean_linker_0, # of connection points: 2
#     Edge 97, Type (0, 0), BuildingBlock: UVAHIK_clean_linker_0, # of connection points: 2
#     Edge 98, Type (0, 0), BuildingBlock: UVAHIK_clean_linker_0, # of connection points: 2
#     Edge 99, Type (0, 0), BuildingBlock: UVAHIK_clean_linker_0, # of connection points: 2
#     Edge 100, Type (0, 0), BuildingBlock: UVAHIK_clean_linker_0, # of connection points: 2
#     Edge 101, Type (0, 0), BuildingBlock: UVAHIK_clean_linker_0, # of connection points: 2
#     Edge 102, Type (0, 0), BuildingBlock: UVAHIK_clean_linker_0, # of connection points: 2
#     Edge 103, Type (0, 0), BuildingBlock: UVAHIK_clean_linker_0, # of connection points: 2
#     Edge 104, Type (0, 0), BuildingBlock: UVAHIK_clean_linker_0, # of connection points: 2
#     Edge 105, Type (0, 0), BuildingBlock: UVAHIK_clean_linker_0, # of connection points: 2
#     Edge 106, Type (0, 0), BuildingBlock: UVAHIK_clean_linker_0, # of connection points: 2
#     Edge 107, Type (0, 0), BuildingBlock: UVAHIK_clean_linker_0, # of connection points: 2
#     Edge 108, Type (0, 0), BuildingBlock: UVAHIK_clean_linker_0, # of connection points: 2
#     Edge 109, Type (0, 0), BuildingBlock: UVAHIK_clean_linker_0, # of connection points: 2
#     Edge 110, Type (0, 0), BuildingBlock: UVAHIK_clean_linker_0, # of connection points: 2
#     Edge 111, Type (0, 0), BuildingBlock: UVAHIK_clean_linker_0, # of connection points: 2
#     Edge 112, Type (0, 0), BuildingBlock: UVAHIK_clean_linker_0, # of connection points: 2
#     Edge 113, Type (0, 0), BuildingBlock: UVAHIK_clean_linker_0, # of connection points: 2
#     Edge 114, Type (0, 0), BuildingBlock: UVAHIK_clean_linker_0, # of connection points: 2
#     Edge 115, Type (0, 0), BuildingBlock: UVAHIK_clean_linker_0, # of connection points: 2
#     Edge 116, Type (0, 0), BuildingBlock: UVAHIK_clean_linker_0, # of connection points: 2
#     Edge 117, Type (0, 0), BuildingBlock: UVAHIK_clean_linker_0, # of connection points: 2
#     Edge 118, Type (0, 0), BuildingBlock: UVAHIK_clean_linker_0, # of connection points: 2
#     Edge 119, Type (0, 0), BuildingBlock: UVAHIK_clean_linker_0, # of connection points: 2
#     Edge 120, Type (0, 0), BuildingBlock: UVAHIK_clean_linker_0, # of connection points: 2
#     Edge 121, Type (0, 0), BuildingBlock: UVAHIK_clean_linker_0, # of connection points: 2
#     Edge 122, Type (0, 0), BuildingBlock: UVAHIK_clean_linker_0, # of connection points: 2
#     Edge 123, Type (0, 0), BuildingBlock: UVAHIK_clean_linker_0, # of connection points: 2
#     Edge 124, Type (0, 0), BuildingBlock: UVAHIK_clean_linker_0, # of connection points: 2
#     Edge 125, Type (0, 0), BuildingBlock: UVAHIK_clean_linker_0, # of connection points: 2
# Relax obj value: 0.188
# Max RMSD: 0.170
# Mean RMSD: 0.170
data_MOF--net-wlr--node1-XOMCOT_clean_sbu_0--edge1-UVAHIK_clean_linker_0
_symmetry_space_group_name_H-M    P1
_symmetry_Int_Tables_number       1
_symmetry_cell_setting            triclinic
loop_
_symmetry_equiv_pos_as_xyz
'x, y, z'
_cell_length_a     100.12829
_cell_length_b     100.10514
_cell_length_c     42.024556
_cell_angle_alpha  89.988307
_cell_angle_beta   89.988647
_cell_angle_gamma 119.99074
loop_
_atom_site_label
_atom_site_type_symbol
_atom_site_fract_x
_atom_site_fract_y
_atom_site_fract_z
_atom_type_partial_charge
Co0 Co 0.23997 0.18165 0.0648 0.0
C1 C 0.21563 0.18696 0.03855 0.0
C2 C 0.23812 0.20492 0.02497 0.0
C3 C 0.22748 0.20883 0.01461 0.0
N4 N 0.23065 0.19096 0.0392 0.0
N5 N 0.21339 0.19756 0.02347 0.0
H6 H 0.20656 0.17709 0.05061 0.0
H7 H 0.25051 0.21222 0.02387 0.0
C8 C 0.25854 0.19065 0.00485 0.0
O9 O 0.24543 0.1843 0.98916 0.0
N10 N 0.24895 0.17248 0.09117 0.0
C11 C 0.24085 0.1599 0.1095 0.0
C12 C 0.25093 0.15646 0.12442 0.0
C13 C 0.26386 0.17653 0.09499 0.0
N14 N 0.26537 0.16689 0.1153 0.0
C15 C 0.21402 0.15257 0.04588 0.0
C16 C 0.23117 0.14149 0.01623 0.0
C17 C 0.21541 0.13155 0.02091 0.0
C18 C 0.20675 0.13722 0.03572 0.0
C19 C 0.23805 0.15657 0.02753 0.0
N20 N 0.2295 0.16217 0.04154 0.0
H21 H 0.20737 0.15623 0.05962 0.0
H22 H 0.25046 0.16326 0.02709 0.0
H23 H 0.22841 0.15351 0.11144 0.0
H24 H 0.27336 0.18627 0.08326 0.0
O25 O 0.22482 0.17727 0.0976 0.0
O26 O 0.24733 0.1989 0.09388 0.0
O27 O 0.25848 0.19038 0.03532 0.0
C28 C 0.23442 0.19077 0.10923 0.0
H29 H 0.22997 0.21959 0.00345 0.0
H30 H 0.24784 0.14675 0.14006 0.0
H31 H 0.23835 0.13728 0.00615 0.0
H32 H 0.19461 0.12966 0.04071 0.0
Co33 Co 0.81517 0.05749 0.06432 0.0
C34 C 0.81078 0.02937 0.03083 0.0
C35 C 0.79168 0.03313 0.02448 0.0
C36 C 0.78803 0.01924 0.01084 0.0
N37 N 0.80609 0.03967 0.03646 0.0
N38 N 0.80002 0.01684 0.01499 0.0
H39 H 0.8214 0.0305 0.03953 0.0
H40 H 0.78402 0.03776 0.02701 0.0
C41 C 0.80642 0.06815 0.00577 0.0
O42 O 0.81282 0.06159 0.98951 0.0
N43 N 0.82399 0.07487 0.0928 0.0
C44 C 0.83635 0.07895 0.11153 0.0
C45 C 0.83958 0.09214 0.1277 0.0
C46 C 0.81984 0.08561 0.09766 0.0
N47 N 0.82923 0.09633 0.11896 0.0
C48 C 0.84467 0.06151 0.04624 0.0
C49 C 0.85564 0.09017 0.01857 0.0
C50 C 0.86575 0.08454 0.0232 0.0
C51 C 0.86014 0.07 0.03701 0.0
C52 C 0.84043 0.08155 0.02894 0.0
N53 N 0.83489 0.06718 0.0419 0.0
H54 H 0.84101 0.05099 0.05931 0.0
H55 H 0.8336 0.08711 0.02875 0.0
H56 H 0.84276 0.07291 0.11287 0.0
H57 H 0.81023 0.0856 0.08589 0.0
O58 O 0.81922 0.04576 0.09541 0.0
O59 O 0.79764 0.04676 0.09251 0.0
O60 O 0.80665 0.06798 0.03625 0.0
C61 C 0.80561 0.04152 0.10688 0.0
H62 H 0.77699 0.01108 1.00058 0.0
H63 H 0.84913 0.09843 0.14389 0.0
H64 H 0.85977 0.10168 0.00931 0.0
H65 H 0.86782 0.06555 0.04194 0.0
Co66 Co 0.9409 0.7588 0.06312 0.0
C67 C 0.96833 0.78218 0.02929 0.0
C68 C 0.96128 0.75947 0.01177 0.0
C69 C 0.97443 0.7699 0.99587 0.0
N70 N 0.9575 0.76722 0.03264 0.0
N71 N 0.97895 0.7842 0.00706 0.0
H72 H 0.96866 0.79127 0.04375 0.0
H73 H 0.95512 0.74708 0.0087 0.0
C74 C 0.91547 0.73355 0.02404 0.0
O75 O 0.90621 0.73882 0.03162 0.0
N76 N 0.92439 0.75028 0.0947 0.0
C77 C 0.9228 0.75771 0.12001 0.0
C78 C 0.91034 0.74751 0.13778 0.0
C79 C 0.91328 0.73541 0.0987 0.0
N80 N 0.90429 0.73351 0.1242 0.0
C81 C 0.92961 0.78001 0.05908 0.0
C82 C 0.92057 0.77458 0.99613 0.0
C83 C 0.91618 0.78337 0.01481 0.0
C84 C 0.92145 0.78663 0.04628 0.0
C85 C 0.92891 0.76828 0.00998 0.0
N86 N 0.93205 0.76989 0.04187 0.0
H87 H 0.93374 0.7829 0.08308 0.0
H88 H 0.93217 0.76148 0.9954 0.0
H89 H 0.93045 0.76963 0.12623 0.0
H90 H 0.91206 0.72598 0.08413 0.0
O91 O 0.95395 0.77448 0.09312 0.0
O92 O 0.95202 0.75149 0.08874 0.0
O93 O 0.92923 0.73999 0.03501 0.0
C94 C 0.95808 0.76478 0.10316 0.0
H95 H 0.98027 0.76703 0.97778 0.0
H96 H 0.90604 0.75024 0.15898 0.0
H97 H 0.91729 0.77229 0.97131 0.0
H98 H 0.91872 0.79366 0.06149 0.0
Co99 Co 0.18142 0.23929 0.44452 0.0
C100 C 0.18634 0.21512 0.47316 0.0
C101 C 0.20332 0.23756 0.48928 0.0
C102 C 0.20692 0.22694 0.50137 0.0
N103 N 0.1901 0.23008 0.4724 0.0
N104 N 0.19625 0.2129 0.49092 0.0
H105 H 0.17724 0.2061 0.45931 0.0
H106 H 0.21043 0.24994 0.49116 0.0
C107 C 0.18888 0.25836 0.50363 0.0
O108 O 0.18187 0.24538 0.51978 0.0
N109 N 0.17284 0.24811 0.416 0.0
C110 C 0.1605 0.23985 0.3972 0.0
C111 C 0.15691 0.24975 0.38194 0.0
C112 C 0.17668 0.26297 0.41194 0.0
N113 N 0.16702 0.26426 0.39131 0.0
C114 C 0.15215 0.21345 0.46281 0.0
C115 C 0.14015 0.23082 0.48752 0.0
C116 C 0.13045 0.21495 0.48375 0.0
C117 C 0.13659 0.20617 0.47151 0.0
C118 C 0.15547 0.23767 0.47777 0.0
N119 N 0.16149 0.22902 0.46614 0.0
H120 H 0.15621 0.20665 0.45095 0.0
H121 H 0.16208 0.2501 0.47743 0.0
H122 H 0.15431 0.22741 0.39526 0.0
H123 H 0.18597 0.27253 0.42451 0.0
O124 O 0.17764 0.22388 0.41276 0.0
O125 O 0.19923 0.24638 0.4171 0.0
O126 O 0.18957 0.25803 0.47324 0.0
C127 C 0.19138 0.23334 0.40204 0.0
H128 H 0.21713 0.22944 0.5148 0.0
H129 H 0.14755 0.2465 0.36528 0.0
H130 H 0.13562 0.23807 0.49562 0.0
H131 H 0.12928 0.19392 0.46733 0.0
Co132 Co 0.75728 0.94043 0.44371 0.0
C133 C 0.7804 0.96924 0.47604 0.0
C134 C 0.75748 0.96568 0.47911 0.0
C135 C 0.76748 0.97976 0.49241 0.0
N136 N 0.76554 0.95894 0.46937 0.0
N137 N 0.78189 0.982 0.49031 0.0
H138 H 0.79002 0.96785 0.46948 0.0
H139 H 0.74524 0.96096 0.47554 0.0
C140 C 0.738 0.93107 0.50248 0.0
O141 O 0.75093 0.93856 0.5186 0.0
N142 N 0.74921 0.92231 0.41744 0.0
C143 C 0.75782 0.91777 0.40105 0.0
C144 C 0.74817 0.90411 0.38605 0.0
C145 C 0.73443 0.91144 0.41213 0.0
N146 N 0.73349 0.90012 0.39308 0.0
C147 C 0.7834 0.93778 0.4629 0.0
C148 C 0.76664 0.91 0.49441 0.0
C149 C 0.78228 0.91563 0.48853 0.0
C150 C 0.79077 0.92977 0.47292 0.0
C151 C 0.75964 0.91809 0.48318 0.0
N152 N 0.76799 0.932 0.46809 0.0
H153 H 0.78988 0.94788 0.44836 0.0
H154 H 0.74724 0.91232 0.48421 0.0
H155 H 0.77028 0.92394 0.40026 0.0
H156 H 0.72464 0.91167 0.42243 0.0
O157 O 0.77276 0.95167 0.41173 0.0
O158 O 0.74979 0.94982 0.41365 0.0
O159 O 0.73839 0.9302 0.47212 0.0
C160 C 0.76297 0.95509 0.39918 0.0
H161 H 0.76446 0.98807 0.50123 0.0
H162 H 0.7517 0.89769 0.37088 0.0
H163 H 0.75958 0.89874 0.50509 0.0
H164 H 0.80279 0.93417 0.46699 0.0
Co165 Co 0.05768 0.81636 0.44031 0.0
C166 C 0.02841 0.81199 0.46673 0.0
C167 C 0.03259 0.79397 0.48175 0.0
C168 C 0.01826 0.79063 0.49263 0.0
N169 N 0.03917 0.80764 0.46629 0.0
N170 N 0.01568 0.80195 0.48288 0.0
H171 H 0.02927 0.82168 0.45375 0.0
H172 H 0.03743 0.78647 0.48344 0.0
C173 C 0.06732 0.80761 0.50062 0.0
O174 O 0.0609 0.8143 0.51634 0.0
N175 N 0.07576 0.82506 0.41363 0.0
C176 C 0.08002 0.83718 0.39404 0.0
C177 C 0.09404 0.84111 0.3809 0.0
C178 C 0.08725 0.82175 0.41225 0.0
N179 N 0.09864 0.83149 0.39249 0.0
C180 C 0.06144 0.84586 0.45775 0.0
C181 C 0.08961 0.85669 0.4875 0.0
C182 C 0.08406 0.86681 0.4822 0.0
C183 C 0.06978 0.8613 0.46731 0.0
C184 C 0.08117 0.84154 0.47676 0.0
N185 N 0.06704 0.83607 0.46272 0.0
H186 H 0.05115 0.84226 0.44398 0.0
H187 H 0.08669 0.83467 0.47764 0.0
H188 H 0.07356 0.84304 0.39017 0.0
H189 H 0.08753 0.81281 0.4262 0.0
O190 O 0.04693 0.82062 0.40724 0.0
O191 O 0.04747 0.79884 0.412 0.0
O192 O 0.06729 0.80763 0.47016 0.0
C193 C 0.04284 0.80697 0.39618 0.0
H194 H 0.00995 0.78019 0.50471 0.0
H195 H 0.10038 0.85041 0.36421 0.0
H196 H 0.10096 0.86079 0.49763 0.0
H197 H 0.06545 0.86902 0.46179 0.0
Co198 Co 0.75595 0.81331 0.93751 0.0
C199 C 0.78125 0.81063 0.96707 0.0
C200 C 0.75927 0.79296 0.98374 0.0
C201 C 0.77038 0.78984 0.99477 0.0
N202 N 0.76611 0.80626 0.96697 0.0
N203 N 0.78417 0.8009 0.98391 0.0
H204 H 0.78984 0.81991 0.95285 0.0
H205 H 0.74696 0.7853 0.98561 0.0
C206 C 0.73638 0.8054 0.99566 0.0
O207 O 0.74924 0.81355 0.01169 0.0
N208 N 0.74623 0.82019 0.90715 0.0
C209 C 0.75395 0.83204 0.88684 0.0
C210 C 0.74353 0.83419 0.86977 0.0
C211 C 0.73116 0.81531 0.90236 0.0
N212 N 0.72922 0.82371 0.87952 0.0
C213 C 0.77976 0.84367 0.95768 0.0
C214 C 0.75945 0.85371 0.97363 0.0
C215 C 0.77521 0.86444 0.9723 0.0
C216 C 0.78551 0.85924 0.9652 0.0
C217 C 0.75423 0.83836 0.96613 0.0
N218 N 0.76428 0.83339 0.95814 0.0
H219 H 0.78774 0.8403 0.94901 0.0
H220 H 0.74194 0.83077 0.96432 0.0
H221 H 0.76637 0.83895 0.88522 0.0
H222 H 0.72187 0.806 0.91549 0.0
O223 O 0.77208 0.81815 0.90679 0.0
O224 O 0.75064 0.79549 0.91125 0.0
O225 O 0.73687 0.80409 0.96543 0.0
C226 C 0.7636 0.80411 0.89642 0.0
H227 H 0.76832 0.77954 0.00733 0.0
H228 H 0.7463 0.84322 0.85245 0.0
H229 H 0.75111 0.85732 0.97873 0.0
H230 H 0.79776 0.86731 0.96319 0.0
Co231 Co 0.18363 0.94104 0.9394 0.0
C232 C 0.18586 0.96889 0.96892 0.0
C233 C 0.20281 0.96409 0.98805 0.0
C234 C 0.20534 0.97792 1.00039 0.0
N235 N 0.19024 0.95813 0.96905 0.0
N236 N 0.19472 0.98091 0.98805 0.0
H237 H 0.17719 0.96867 0.95335 0.0
H238 H 0.21031 0.95932 0.99111 0.0
C239 C 0.18974 0.92873 0.99886 0.0
O240 O 0.18142 0.93367 0.01355 0.0
N241 N 0.17716 0.92453 0.90894 0.0
C242 C 0.16569 0.92061 0.88776 0.0
C243 C 0.16375 0.90809 0.87075 0.0
C244 C 0.18203 0.91429 0.90474 0.0
N245 N 0.17399 0.90411 0.88139 0.0
C246 C 0.15305 0.93498 0.95586 0.0
C247 C 0.14211 0.90465 0.97335 0.0
C248 C 0.13162 0.90993 0.97015 0.0
C249 C 0.1373 0.92544 0.96215 0.0
C250 C 0.15762 0.91445 0.96658 0.0
N251 N 0.16307 0.9295 0.95812 0.0
H252 H 0.15682 0.94633 0.94666 0.0
H253 H 0.16501 0.90949 0.96596 0.0
H254 H 0.1589 0.92622 0.88544 0.0
H255 H 0.19109 0.91419 0.91857 0.0
O256 O 0.1797 0.95264 0.90785 0.0
O257 O 0.20207 0.95349 0.91449 0.0
O258 O 0.1919 0.9307 0.96877 0.0
C259 C 0.19388 0.95805 0.89865 0.0
H260 H 0.21494 0.98573 0.0152 0.0
H261 H 0.15504 0.902 0.85278 0.0
H262 H 0.13826 0.89275 0.97945 0.0
H263 H 0.12954 0.9299 0.95859 0.0
Co264 Co 0.0565 0.2404 0.94071 0.0
C265 C 0.02821 0.21686 0.97073 0.0
C266 C 0.03562 0.23888 0.99243 0.0
C267 C 0.02179 0.22814 0.00603 0.0
N268 N 0.03955 0.2317 0.97032 0.0
N269 N 0.01717 0.21439 0.99202 0.0
H270 H 0.02782 0.20808 0.95509 0.0
H271 H 0.04197 0.2511 0.99746 0.0
C272 C 0.08259 0.26646 0.97695 0.0
O273 O 0.09222 0.26238 0.96538 0.0
N274 N 0.07325 0.24881 0.90987 0.0
C275 C 0.07644 0.24064 0.88871 0.0
C276 C 0.08865 0.25057 0.87018 0.0
C277 C 0.08311 0.26373 0.90246 0.0
N278 N 0.09301 0.2651 0.87911 0.0
C279 C 0.06389 0.2163 0.94532 0.0
C280 C 0.0796 0.22537 0.00234 0.0
C281 C 0.0812 0.2148 0.98313 0.0
C282 C 0.07234 0.2095 0.95539 0.0
C283 C 0.07086 0.23181 0.99128 0.0
N284 N 0.06467 0.22852 0.96136 0.0
H285 H 0.05721 0.21207 0.92385 0.0
H286 H 0.06967 0.23989 0.00631 0.0
H287 H 0.07011 0.22831 0.88578 0.0
H288 H 0.08327 0.27338 0.91436 0.0
O289 O 0.04361 0.22552 0.90925 0.0
O290 O 0.04606 0.24862 0.91527 0.0
O291 O 0.06823 0.25877 0.97004 0.0
C292 C 0.03996 0.23562 0.89974 0.0
H293 H 0.01525 0.23042 0.02354 0.0
H294 H 0.0938 0.24731 0.8513 0.0
H295 H 0.08571 0.22929 0.02471 0.0
H296 H 0.07246 0.20062 0.94086 0.0
Co297 Co 0.81563 0.75723 0.55712 0.0
C298 C 0.81004 0.78113 0.5297 0.0
C299 C 0.79154 0.75849 0.51881 0.0
C300 C 0.78761 0.7691 0.50808 0.0
N301 N 0.80583 0.76607 0.53156 0.0
N302 N 0.79925 0.78327 0.51528 0.0
H303 H 0.82018 0.79035 0.54068 0.0
H304 H 0.78409 0.7461 0.51897 0.0
C305 C 0.80561 0.7378 0.49832 0.0
O306 O 0.81076 0.75057 0.48172 0.0
N307 N 0.82536 0.74885 0.58349 0.0
C308 C 0.83839 0.75735 0.60026 0.0
C309 C 0.84178 0.7476 0.61678 0.0
C310 C 0.82095 0.73402 0.58987 0.0
N311 N 0.83082 0.73297 0.61028 0.0
C312 C 0.84446 0.78321 0.53752 0.0
C313 C 0.85533 0.76625 0.50631 0.0
C314 C 0.86533 0.78195 0.51159 0.0
C315 C 0.85975 0.79054 0.52705 0.0
C316 C 0.84029 0.75931 0.51792 0.0
N317 N 0.83482 0.76776 0.53288 0.0
H318 H 0.84094 0.78979 0.55192 0.0
H319 H 0.83364 0.74691 0.51716 0.0
H320 H 0.84501 0.76981 0.60039 0.0
H321 H 0.8107 0.72427 0.58017 0.0
O322 O 0.82006 0.77265 0.58932 0.0
O323 O 0.79867 0.74989 0.58694 0.0
O324 O 0.80694 0.73837 0.52865 0.0
C325 C 0.80674 0.763 0.6016 0.0
H326 H 0.77665 0.76658 0.49802 0.0
H327 H 0.8517 0.75102 0.63195 0.0
H328 H 0.85948 0.75914 0.4957 0.0
H329 H 0.86737 0.80262 0.53248 0.0
Co330 Co 0.24238 0.05768 0.55994 0.0
C331 C 0.21867 0.02828 0.53178 0.0
C332 C 0.24139 0.03245 0.52164 0.0
C333 C 0.23087 0.01801 0.51034 0.0
N334 N 0.23371 0.03908 0.53428 0.0
N335 N 0.21664 0.01546 0.51706 0.0
H336 H 0.20935 0.02919 0.54233 0.0
H337 H 0.25377 0.03741 0.52209 0.0
C338 C 0.26163 0.06724 0.5008 0.0
O339 O 0.24882 0.05946 0.48444 0.0
N340 N 0.25058 0.07578 0.58635 0.0
C341 C 0.24194 0.07988 0.60385 0.0
C342 C 0.25146 0.09373 0.61825 0.0
C343 C 0.26528 0.08716 0.5903 0.0
N344 N 0.26611 0.09835 0.60964 0.0
C345 C 0.21618 0.06034 0.54138 0.0
C346 C 0.23284 0.08831 0.51052 0.0
C347 C 0.21722 0.08267 0.51677 0.0
C348 C 0.20877 0.06837 0.53188 0.0
C349 C 0.23987 0.08013 0.52107 0.0
N350 N 0.23159 0.06617 0.53604 0.0
H351 H 0.20974 0.0502 0.55575 0.0
H352 H 0.25226 0.08588 0.51972 0.0
H353 H 0.22951 0.07332 0.60568 0.0
H354 H 0.27507 0.08743 0.57873 0.0
O355 O 0.22707 0.04646 0.59223 0.0
O356 O 0.24997 0.04817 0.5896 0.0
O357 O 0.26116 0.06805 0.53115 0.0
C358 C 0.23685 0.04294 0.60438 0.0
H359 H 0.23346 0.00964 0.50009 0.0
H360 H 0.24784 0.09989 0.63398 0.0
H361 H 0.23988 0.09964 0.50012 0.0
H362 H 0.19676 0.06388 0.53796 0.0
Co363 Co 0.94145 0.18546 0.56299 0.0
C364 C 0.96901 0.1876 0.53215 0.0
C365 C 0.96408 0.20456 0.51348 0.0
C366 C 0.97764 0.20686 0.50009 0.0
N367 N 0.95834 0.19211 0.53281 0.0
N368 N 0.9807 0.19623 0.51213 0.0
H369 H 0.96894 0.17897 0.54762 0.0
H370 H 0.95933 0.2121 0.51072 0.0
C371 C 0.92881 0.19172 0.50415 0.0
O372 O 0.93337 0.18325 0.48883 0.0
N373 N 0.92508 0.17887 0.59397 0.0
C374 C 0.92164 0.16762 0.61551 0.0
C375 C 0.90832 0.16444 0.63093 0.0
C376 C 0.9138 0.18245 0.59661 0.0
N377 N 0.90332 0.17365 0.61891 0.0
C378 C 0.93529 0.15483 0.54626 0.0
C379 C 0.90478 0.14396 0.53051 0.0
C380 C 0.91006 0.13348 0.53328 0.0
C381 C 0.92563 0.13906 0.54028 0.0
C382 C 0.91474 0.1595 0.53648 0.0
N383 N 0.92985 0.1649 0.54434 0.0
H384 H 0.94671 0.15857 0.55497 0.0
H385 H 0.90984 0.16694 0.53724 0.0
H386 H 0.92801 0.16163 0.61885 0.0
H387 H 0.9128 0.19066 0.58149 0.0
O388 O 0.95333 0.18166 0.5941 0.0
O389 O 0.95393 0.20393 0.58757 0.0
O390 O 0.931 0.19374 0.53421 0.0
C391 C 0.95862 0.19584 0.6033 0.0
H392 H 0.98523 0.21628 0.48463 0.0
H393 H 0.90258 0.15577 0.64916 0.0
H394 H 0.89276 0.14004 0.52547 0.0
H395 H 0.93 0.13119 0.5434 0.0
Co396 Co 0.9081 0.51773 0.39672 0.0
C397 C 0.88338 0.52212 0.36927 0.0
C398 C 0.90569 0.53998 0.35458 0.0
C399 C 0.89489 0.5437 0.34427 0.0
N400 N 0.89844 0.5262 0.36957 0.0
N401 N 0.88089 0.53249 0.35384 0.0
H402 H 0.87451 0.51245 0.38218 0.0
H403 H 0.91805 0.54743 0.35326 0.0
C404 C 0.92708 0.52639 0.33759 0.0
O405 O 0.91402 0.51919 0.3218 0.0
N406 N 0.91737 0.50938 0.42477 0.0
C407 C 0.9093 0.49708 0.44384 0.0
C408 C 0.9193 0.49335 0.4581 0.0
C409 C 0.93223 0.51303 0.42768 0.0
N410 N 0.93369 0.50328 0.44781 0.0
C411 C 0.88317 0.48809 0.37637 0.0
C412 C 0.90229 0.47731 0.35582 0.0
C413 C 0.88656 0.46691 0.35925 0.0
C414 C 0.87681 0.47246 0.36855 0.0
C415 C 0.90813 0.49273 0.36368 0.0
N416 N 0.8987 0.49805 0.37415 0.0
H417 H 0.87573 0.49168 0.38707 0.0
H418 H 0.9205 0.49996 0.36426 0.0
H419 H 0.8969 0.49092 0.44644 0.0
H420 H 0.94164 0.52215 0.41444 0.0
O421 O 0.89242 0.51299 0.4285 0.0
O422 O 0.91449 0.53511 0.42499 0.0
O423 O 0.92691 0.52683 0.36803 0.0
C424 C 0.90153 0.52668 0.43994 0.0
H425 H 0.89728 0.55437 0.3329 0.0
H426 H 0.91617 0.48393 0.47458 0.0
H427 H 0.9102 0.47334 0.34927 0.0
H428 H 0.86462 0.4646 0.37231 0.0
Co429 Co 0.4819 0.39206 0.39772 0.0
C430 C 0.47717 0.36274 0.37069 0.0
C431 C 0.46027 0.36808 0.35346 0.0
C432 C 0.45653 0.35364 0.34264 0.0
N433 N 0.47351 0.37402 0.37033 0.0
N434 N 0.46712 0.3503 0.35379 0.0
H435 H 0.48631 0.36304 0.38478 0.0
H436 H 0.4532 0.37337 0.35094 0.0
C437 C 0.47481 0.40335 0.33791 0.0
O438 O 0.48233 0.39763 0.32281 0.0
N439 N 0.4901 0.40954 0.42589 0.0
C440 C 0.50227 0.41378 0.44531 0.0
C441 C 0.50497 0.42674 0.46165 0.0
C442 C 0.48554 0.41998 0.43046 0.0
N443 N 0.49447 0.43063 0.45231 0.0
C444 C 0.5113 0.39583 0.37876 0.0
C445 C 0.52294 0.42525 0.35449 0.0
C446 C 0.53267 0.41907 0.35707 0.0
C447 C 0.52676 0.40417 0.36931 0.0
C448 C 0.50775 0.41673 0.36504 0.0
N449 N 0.50187 0.40199 0.3762 0.0
H450 H 0.50737 0.38491 0.39034 0.0
H451 H 0.50105 0.42245 0.36597 0.0
H452 H 0.5089 0.40798 0.44704 0.0
H453 H 0.47597 0.41982 0.41814 0.0
O454 O 0.48606 0.38088 0.42989 0.0
O455 O 0.46415 0.38116 0.42534 0.0
O456 O 0.47346 0.4022 0.36825 0.0
C457 C 0.47231 0.37643 0.44077 0.0
H458 H 0.44623 0.34577 0.32959 0.0
H459 H 0.51424 0.43311 0.47838 0.0
H460 H 0.52732 0.437 0.34639 0.0
H461 H 0.53416 0.39927 0.37263 0.0
Co462 Co 0.60701 0.09007 0.39727 0.0
C463 C 0.63457 0.11433 0.36378 0.0
C464 C 0.63396 0.09261 0.36449 0.0
C465 C 0.64772 0.10347 0.35124 0.0
N466 N 0.62561 0.09937 0.37188 0.0
N467 N 0.64811 0.11714 0.35099 0.0
H468 H 0.63163 0.12313 0.36829 0.0
H469 H 0.63054 0.08074 0.36968 0.0
C470 C 0.59961 0.07025 0.3392 0.0
O471 O 0.60767 0.08286 0.32238 0.0
N472 N 0.58876 0.08116 0.42342 0.0
C473 C 0.58439 0.08926 0.44199 0.0
C474 C 0.5703 0.07933 0.45509 0.0
C475 C 0.57729 0.06638 0.42538 0.0
N476 N 0.56579 0.06496 0.44453 0.0
C477 C 0.60168 0.11473 0.37962 0.0
C478 C 0.57526 0.09674 0.34486 0.0
C479 C 0.57863 0.11159 0.35369 0.0
C480 C 0.59236 0.12083 0.3704 0.0
C481 C 0.58452 0.09093 0.35548 0.0
N482 N 0.59764 0.09983 0.37266 0.0
H483 H 0.61139 0.12165 0.39484 0.0
H484 H 0.58007 0.0788 0.35211 0.0
H485 H 0.59085 0.10162 0.4453 0.0
H486 H 0.57713 0.05697 0.41241 0.0
O487 O 0.61766 0.10579 0.42924 0.0
O488 O 0.61707 0.08339 0.42743 0.0
O489 O 0.59772 0.07108 0.36912 0.0
C490 C 0.62176 0.09651 0.44179 0.0
H491 H 0.65707 0.10163 0.34415 0.0
H492 H 0.56388 0.08248 0.47114 0.0
H493 H 0.56495 0.08916 0.33155 0.0
H494 H 0.59538 0.13228 0.37837 0.0
Co495 Co 0.85069 0.57643 0.77637 0.0
C496 C 0.8542 0.55171 0.80641 0.0
C497 C 0.87166 0.57391 0.82255 0.0
C498 C 0.8748 0.56298 0.83464 0.0
N499 N 0.85841 0.5668 0.80563 0.0
N500 N 0.86384 0.54908 0.82416 0.0
H501 H 0.84511 0.54291 0.79216 0.0
H502 H 0.87918 0.58626 0.82414 0.0
C503 C 0.85856 0.59609 0.83434 0.0
O504 O 0.85129 0.58325 0.85086 0.0
N505 N 0.84311 0.58558 0.74628 0.0
C506 C 0.83082 0.57751 0.72725 0.0
C507 C 0.82842 0.58764 0.70966 0.0
C508 C 0.84806 0.60056 0.74017 0.0
N509 N 0.83924 0.60211 0.71775 0.0
C510 C 0.82077 0.55196 0.79668 0.0
C511 C 0.80994 0.57146 0.81411 0.0
C512 C 0.79956 0.55563 0.81229 0.0
C513 C 0.80517 0.54574 0.80445 0.0
C514 C 0.82534 0.57717 0.80624 0.0
N515 N 0.8307 0.56752 0.79754 0.0
H516 H 0.82441 0.54431 0.78735 0.0
H517 H 0.8326 0.58952 0.80458 0.0
H518 H 0.82385 0.56506 0.72675 0.0
H519 H 0.85779 0.61005 0.7519 0.0
O520 O 0.84623 0.56037 0.74574 0.0
O521 O 0.86849 0.58228 0.74965 0.0
O522 O 0.85941 0.59558 0.80401 0.0
C523 C 0.86015 0.56919 0.73507 0.0
H524 H 0.885 0.56517 0.84777 0.0
H525 H 0.81909 0.58458 0.69298 0.0
H526 H 0.80602 0.5795 0.8198 0.0
H527 H 0.79739 0.53345 0.80199 0.0
Co528 Co 0.42277 0.27461 0.77553 0.0
C529 C 0.44713 0.30217 0.80856 0.0
C530 C 0.42462 0.29725 0.82279 0.0
C531 C 0.43531 0.31095 0.83654 0.0
N532 N 0.43205 0.29147 0.80593 0.0
N533 N 0.44951 0.31409 0.8274 0.0
H534 H 0.45608 0.30207 0.79451 0.0
H535 H 0.41226 0.29238 0.82358 0.0
C536 C 0.40287 0.26188 0.833 0.0
O537 O 0.41569 0.26677 0.8493 0.0
N538 N 0.41391 0.25829 0.74439 0.0
C539 C 0.42224 0.25487 0.72426 0.0
C540 C 0.41248 0.24166 0.70808 0.0
C541 C 0.39912 0.24713 0.74019 0.0
N542 N 0.39798 0.23674 0.71823 0.0
C543 C 0.44723 0.26887 0.79477 0.0
C544 C 0.42769 0.23837 0.81088 0.0
C545 C 0.44352 0.2438 0.8091 0.0
C546 C 0.45343 0.25938 0.80188 0.0
C547 C 0.42202 0.24816 0.80369 0.0
N548 N 0.43168 0.26328 0.79575 0.0
H549 H 0.45491 0.28026 0.78589 0.0
H550 H 0.40968 0.24309 0.80207 0.0
H551 H 0.43468 0.26123 0.72233 0.0
H552 H 0.38954 0.2462 0.75388 0.0
O553 O 0.43899 0.28683 0.74554 0.0
O554 O 0.41693 0.28686 0.74971 0.0
O555 O 0.40348 0.26383 0.80279 0.0
C556 C 0.4301 0.29192 0.73524 0.0
H557 H 0.43268 0.31829 0.85095 0.0
H558 H 0.41583 0.23596 0.69055 0.0
H559 H 0.41962 0.22636 0.81611 0.0
H560 H 0.46572 0.26389 0.79944 0.0
Co561 Co 0.72398 0.14991 0.77698 0.0
C562 C 0.69492 0.14474 0.80625 0.0
C563 C 0.69996 0.12713 0.8199 0.0
C564 C 0.68577 0.12346 0.83221 0.0
N565 N 0.70595 0.14077 0.80444 0.0
N566 N 0.68265 0.13452 0.82333 0.0
H567 H 0.69523 0.15427 0.79366 0.0
H568 H 0.7051 0.11987 0.82069 0.0
C569 C 0.73501 0.14152 0.83561 0.0
O570 O 0.72878 0.14821 0.85196 0.0
N571 N 0.74153 0.15901 0.74881 0.0
C572 C 0.74527 0.17134 0.73017 0.0
C573 C 0.75894 0.17547 0.71515 0.0
C574 C 0.75298 0.15576 0.74494 0.0
N575 N 0.76385 0.16576 0.72454 0.0
C576 C 0.7274 0.17902 0.79669 0.0
C577 C 0.75638 0.19039 0.823 0.0
C578 C 0.75033 0.20021 0.81965 0.0
C579 C 0.73564 0.19442 0.80649 0.0
C580 C 0.74799 0.17527 0.81206 0.0
N581 N 0.73348 0.16952 0.79977 0.0
H582 H 0.71673 0.17523 0.7842 0.0
H583 H 0.75377 0.16863 0.81142 0.0
H584 H 0.73868 0.17717 0.72818 0.0
H585 H 0.75361 0.14665 0.7575 0.0
O586 O 0.71244 0.15407 0.74565 0.0
O587 O 0.71345 0.13249 0.74849 0.0
O588 O 0.73442 0.14137 0.80515 0.0
C589 C 0.7083 0.14052 0.73401 0.0
H590 H 0.6779 0.11298 0.84474 0.0
H591 H 0.76483 0.18496 0.69863 0.0
H592 H 0.76801 0.19471 0.83173 0.0
H593 H 0.73089 0.20191 0.80248 0.0
Co594 Co 0.42467 0.15002 0.27092 0.0
C595 C 0.44913 0.14672 0.30072 0.0
C596 C 0.42725 0.13086 0.32154 0.0
C597 C 0.43844 0.12838 0.3349 0.0
N598 N 0.43406 0.14235 0.30011 0.0
N599 N 0.45213 0.1383 0.32148 0.0
H600 H 0.4577 0.15562 0.28555 0.0
H601 H 0.415 0.12433 0.32623 0.0
C602 C 0.39851 0.14905 0.30864 0.0
O603 O 0.40258 0.16301 0.29863 0.0
N604 N 0.41547 0.15777 0.24068 0.0
C605 C 0.423 0.16907 0.21902 0.0
C606 C 0.41245 0.17028 0.20029 0.0
C607 C 0.40038 0.15181 0.23373 0.0
N608 N 0.39823 0.15947 0.20963 0.0
C609 C 0.44774 0.18188 0.27513 0.0
C610 C 0.43895 0.18788 0.33317 0.0
C611 C 0.44891 0.20027 0.31366 0.0
C612 C 0.45414 0.19706 0.28538 0.0
C613 C 0.43295 0.17276 0.32195 0.0
N614 N 0.436 0.17013 0.29159 0.0
H615 H 0.45192 0.17971 0.25325 0.0
H616 H 0.42533 0.1633 0.33714 0.0
H617 H 0.43529 0.17572 0.21581 0.0
H618 H 0.39115 0.1419 0.24562 0.0
O619 O 0.43967 0.15271 0.23906 0.0
O620 O 0.41707 0.13147 0.24532 0.0
O621 O 0.40623 0.14258 0.30035 0.0
C622 C 0.42995 0.13884 0.22952 0.0
H623 H 0.43653 0.11944 0.35182 0.0
H624 H 0.41508 0.17858 0.18141 0.0
H625 H 0.43515 0.18981 0.35596 0.0
H626 H 0.46263 0.20625 0.27059 0.0
Co627 Co 0.84902 0.27477 0.27154 0.0
C628 C 0.85231 0.30243 0.30506 0.0
C629 C 0.87081 0.29824 0.31557 0.0
C630 C 0.87403 0.31198 0.32936 0.0
N631 N 0.85698 0.29201 0.30096 0.0
N632 N 0.86241 0.31464 0.3226 0.0
H633 H 0.84233 0.30173 0.2938 0.0
H634 H 0.87851 0.29361 0.31461 0.0
C635 C 0.85664 0.26305 0.32984 0.0
O636 O 0.84916 0.26857 0.34581 0.0
N637 N 0.84138 0.25803 0.24145 0.0
C638 C 0.82932 0.25394 0.22179 0.0
C639 C 0.82684 0.2412 0.2048 0.0
C640 C 0.84609 0.24774 0.23629 0.0
N641 N 0.83735 0.2373 0.21392 0.0
C642 C 0.81895 0.26947 0.28977 0.0
C643 C 0.80795 0.23942 0.30946 0.0
C644 C 0.7976 0.24488 0.30638 0.0
C645 C 0.80331 0.26025 0.29729 0.0
C646 C 0.82341 0.24897 0.3018 0.0
N647 N 0.82889 0.26389 0.29225 0.0
H648 H 0.82262 0.28054 0.27917 0.0
H649 H 0.83061 0.24381 0.30102 0.0
H650 H 0.82256 0.25962 0.22049 0.0
H651 H 0.8556 0.24784 0.24871 0.0
O652 O 0.84492 0.28663 0.24093 0.0
O653 O 0.86696 0.28656 0.24503 0.0
O654 O 0.85752 0.26424 0.29947 0.0
C655 C 0.85881 0.2915 0.23033 0.0
H656 H 0.88462 0.31989 0.34145 0.0
H657 H 0.81763 0.23496 0.18785 0.0
H658 H 0.80396 0.22755 0.31601 0.0
H659 H 0.79556 0.26473 0.29363 0.0
Co660 Co 0.72394 0.57436 0.26988 0.0
C661 C 0.6959 0.54971 0.29931 0.0
C662 C 0.7027 0.57138 0.32205 0.0
C663 C 0.68907 0.56023 0.33557 0.0
N664 N 0.70691 0.5647 0.29935 0.0
N665 N 0.68481 0.54669 0.32094 0.0
H666 H 0.69577 0.54121 0.28321 0.0
H667 H 0.70875 0.58354 0.32769 0.0
C668 C 0.7484 0.5994 0.31079 0.0
O669 O 0.75801 0.59459 0.30295 0.0
N670 N 0.74082 0.584 0.23923 0.0
C671 C 0.743 0.5772 0.21351 0.0
C672 C 0.75541 0.58796 0.19648 0.0
C673 C 0.75155 0.59909 0.23622 0.0
N674 N 0.76085 0.60171 0.21089 0.0
C675 C 0.7363 0.554 0.27285 0.0
C676 C 0.74422 0.55832 0.33649 0.0
C677 C 0.74918 0.5501 0.31748 0.0
C678 C 0.74451 0.54743 0.28558 0.0
C679 C 0.73585 0.5646 0.32268 0.0
N680 N 0.73321 0.56353 0.29061 0.0
H681 H 0.73258 0.55149 0.24855 0.0
H682 H 0.73211 0.57091 0.33756 0.0
H683 H 0.73578 0.56533 0.20648 0.0
H684 H 0.75228 0.60814 0.25137 0.0
O685 O 0.71175 0.55905 0.2385 0.0
O686 O 0.71251 0.58142 0.24447 0.0
O687 O 0.73471 0.59277 0.29943 0.0
C688 C 0.70711 0.56843 0.22911 0.0
H689 H 0.6824 0.56207 0.35352 0.0
H690 H 0.7601 0.58578 0.17518 0.0
H691 H 0.74704 0.56014 0.36157 0.0
H692 H 0.74771 0.54085 0.27007 0.0
Co693 Co 0.48145 0.0892 0.89395 0.0
C694 C 0.47674 0.11291 0.86187 0.0
C695 C 0.45685 0.09037 0.85837 0.0
C696 C 0.4532 0.1009 0.84609 0.0
N697 N 0.47171 0.09788 0.86781 0.0
N698 N 0.46571 0.11509 0.84856 0.0
H699 H 0.48793 0.12219 0.86851 0.0
H700 H 0.44898 0.07818 0.86172 0.0
C701 C 0.47154 0.07001 0.83484 0.0
O702 O 0.47607 0.08278 0.81861 0.0
N703 N 0.49106 0.08088 0.92089 0.0
C704 C 0.50368 0.08938 0.93883 0.0
C705 C 0.50714 0.07964 0.95517 0.0
C706 C 0.48697 0.06606 0.92642 0.0
N707 N 0.49664 0.06501 0.94741 0.0
C708 C 0.5107 0.11536 0.87763 0.0
C709 C 0.52183 0.09904 0.84484 0.0
C710 C 0.53196 0.11446 0.85257 0.0
C711 C 0.52621 0.12274 0.86866 0.0
C712 C 0.50653 0.092 0.85489 0.0
N713 N 0.50096 0.10012 0.87083 0.0
H714 H 0.507 0.12163 0.89259 0.0
H715 H 0.49976 0.07968 0.85228 0.0
H716 H 0.50997 0.10184 0.93988 0.0
H717 H 0.47709 0.0563 0.91568 0.0
O718 O 0.48515 0.10439 0.92622 0.0
O719 O 0.46407 0.08144 0.92288 0.0
O720 O 0.47329 0.0705 0.86508 0.0
C721 C 0.47174 0.09453 0.93782 0.0
H722 H 0.44193 0.0984 0.83792 0.0
H723 H 0.51681 0.08309 0.97111 0.0
H724 H 0.52603 0.0921 0.8336 0.0
H725 H 0.53383 0.13458 0.87583 0.0
Co726 Co 0.9079 0.39187 0.89316 0.0
C727 C 0.88351 0.36289 0.86491 0.0
C728 C 0.90586 0.36766 0.84971 0.0
C729 C 0.89508 0.35338 0.8382 0.0
N730 N 0.89855 0.37386 0.86568 0.0
N731 N 0.88109 0.35043 0.84808 0.0
H732 H 0.87456 0.36334 0.87829 0.0
H733 H 0.91823 0.37267 0.8482 0.0
C734 C 0.92708 0.40278 0.83415 0.0
O735 O 0.91411 0.39669 0.818 0.0
N736 N 0.91681 0.40936 0.92138 0.0
C737 C 0.90858 0.41356 0.94002 0.0
C738 C 0.91858 0.42651 0.95669 0.0
C739 C 0.93172 0.41983 0.92677 0.0
N740 N 0.93309 0.43045 0.94838 0.0
C741 C 0.88242 0.39575 0.87406 0.0
C742 C 0.90024 0.42476 0.84794 0.0
C743 C 0.88439 0.41884 0.85133 0.0
C744 C 0.87539 0.40414 0.8644 0.0
C745 C 0.90684 0.41621 0.85871 0.0
N746 N 0.89796 0.40169 0.8709 0.0
H747 H 0.87546 0.38507 0.88646 0.0
H748 H 0.91925 0.42186 0.85926 0.0
H749 H 0.89613 0.40771 0.94103 0.0
H750 H 0.94131 0.41968 0.91523 0.0
O751 O 0.89234 0.38055 0.92488 0.0
O752 O 0.91467 0.38107 0.92118 0.0
O753 O 0.92675 0.40211 0.86459 0.0
C754 C 0.90164 0.37617 0.93609 0.0
H755 H 0.89742 0.34531 0.8257 0.0
H756 H 0.91539 0.43282 0.97299 0.0
H757 H 0.90763 0.43639 0.83925 0.0
H758 H 0.86316 0.39947 0.86841 0.0
Co759 Co 0.60559 0.5142 0.89435 0.0
C760 C 0.63456 0.51945 0.86385 0.0
C761 C 0.63117 0.53882 0.8585 0.0
C762 C 0.64547 0.54274 0.84652 0.0
N763 N 0.62422 0.52412 0.86891 0.0
N764 N 0.6476 0.53055 0.85011 0.0
H765 H 0.63301 0.5085 0.87133 0.0
H766 H 0.62648 0.54644 0.86092 0.0
C767 C 0.59642 0.52352 0.83437 0.0
O768 O 0.60401 0.51803 0.81877 0.0
N769 N 0.58734 0.50442 0.92042 0.0
C770 C 0.58319 0.49191 0.93872 0.0
C771 C 0.56912 0.48755 0.95218 0.0
C772 C 0.57579 0.50758 0.92294 0.0
N773 N 0.56443 0.49735 0.94217 0.0
C774 C 0.60307 0.48523 0.87748 0.0
C775 C 0.5753 0.47364 0.84579 0.0
C776 C 0.58097 0.46373 0.85273 0.0
C777 C 0.5952 0.46975 0.86821 0.0
C778 C 0.58341 0.48895 0.85583 0.0
N779 N 0.59728 0.49475 0.87115 0.0
H780 H 0.61309 0.48904 0.89233 0.0
H781 H 0.57766 0.49557 0.85377 0.0
H782 H 0.58984 0.48617 0.94167 0.0
H783 H 0.5755 0.51687 0.91038 0.0
O784 O 0.61674 0.51043 0.92732 0.0
O785 O 0.61483 0.53148 0.92349 0.0
O786 O 0.59546 0.52248 0.86474 0.0
C787 C 0.62006 0.52377 0.93894 0.0
H788 H 0.65397 0.55398 0.83768 0.0
H789 H 0.56286 0.47792 0.96821 0.0
H790 H 0.56403 0.4693 0.83514 0.0
H791 H 0.59979 0.46236 0.87472 0.0
Co792 Co 0.57403 0.85035 0.7316 0.0
C793 C 0.54946 0.85466 0.70322 0.0
C794 C 0.57166 0.87145 0.68565 0.0
C795 C 0.56093 0.8751 0.67452 0.0
N796 N 0.56441 0.85832 0.70293 0.0
N797 N 0.54703 0.86458 0.68591 0.0
H798 H 0.54067 0.84571 0.71776 0.0
H799 H 0.58401 0.87861 0.68324 0.0
C800 C 0.59345 0.85786 0.67332 0.0
O801 O 0.58053 0.85007 0.65728 0.0
N802 N 0.58325 0.84258 0.7612 0.0
C803 C 0.57522 0.83051 0.78082 0.0
C804 C 0.58537 0.82782 0.79763 0.0
C805 C 0.59822 0.84708 0.76615 0.0
N806 N 0.5998 0.8382 0.7884 0.0
C807 C 0.54931 0.82077 0.71028 0.0
C808 C 0.5685 0.8093 0.6947 0.0
C809 C 0.55261 0.79922 0.69596 0.0
C810 C 0.54287 0.80511 0.70279 0.0
C811 C 0.57442 0.82479 0.70206 0.0
N812 N 0.56493 0.83043 0.71012 0.0
H813 H 0.54174 0.82467 0.71886 0.0
H814 H 0.58678 0.8319 0.70397 0.0
H815 H 0.56277 0.82383 0.78219 0.0
H816 H 0.60769 0.85648 0.75359 0.0
O817 O 0.5581 0.84578 0.76254 0.0
O818 O 0.58005 0.86803 0.75877 0.0
O819 O 0.59304 0.85915 0.70357 0.0
C820 C 0.56701 0.85961 0.77352 0.0
H821 H 0.56334 0.88533 0.66126 0.0
H822 H 0.58232 0.81854 0.81445 0.0
H823 H 0.57636 0.80504 0.6901 0.0
H824 H 0.53053 0.79749 0.7048 0.0
Co825 Co 0.14893 0.7241 0.72671 0.0
C826 C 0.14561 0.69643 0.69366 0.0
C827 C 0.12775 0.70116 0.68056 0.0
C828 C 0.12468 0.68747 0.66674 0.0
N829 N 0.14115 0.70706 0.69673 0.0
N830 N 0.13588 0.6844 0.67517 0.0
H831 H 0.15492 0.69673 0.70704 0.0
H832 H 0.12021 0.70598 0.68025 0.0
C833 C 0.14121 0.7364 0.66929 0.0
O834 O 0.14892 0.73135 0.65268 0.0
N835 N 0.15654 0.74062 0.75741 0.0
C836 C 0.16839 0.74425 0.7774 0.0
C837 C 0.17108 0.75693 0.79484 0.0
C838 C 0.15219 0.75118 0.76276 0.0
N839 N 0.16093 0.76129 0.78563 0.0
C840 C 0.1791 0.72982 0.7081 0.0
C841 C 0.18988 0.76007 0.69018 0.0
C842 C 0.20045 0.7549 0.69377 0.0
C843 C 0.19483 0.73941 0.70177 0.0
C844 C 0.1744 0.75025 0.69713 0.0
N845 N 0.16904 0.73527 0.706 0.0
H846 H 0.17541 0.71853 0.7176 0.0
H847 H 0.16708 0.75528 0.69807 0.0
H848 H 0.17492 0.73833 0.77861 0.0
H849 H 0.14298 0.75155 0.75006 0.0
O850 O 0.15319 0.71213 0.75675 0.0
O851 O 0.13105 0.71204 0.75316 0.0
O852 O 0.14023 0.73471 0.69956 0.0
C853 C 0.13932 0.70715 0.76757 0.0
H854 H 0.11456 0.68011 0.65278 0.0
H855 H 0.18021 0.76285 0.81209 0.0
H856 H 0.19368 0.77195 0.68403 0.0
H857 H 0.20265 0.73503 0.70556 0.0
Co858 Co 0.27256 0.42288 0.73064 0.0
C859 C 0.30093 0.44602 0.69706 0.0
C860 C 0.29694 0.42301 0.69198 0.0
C861 C 0.31088 0.43302 0.67816 0.0
N862 N 0.29055 0.43113 0.70333 0.0
N863 N 0.31341 0.44749 0.68153 0.0
H864 H 0.29984 0.45566 0.70489 0.0
H865 H 0.29213 0.41071 0.6949 0.0
C866 C 0.26185 0.40364 0.67174 0.0
O867 O 0.26901 0.41653 0.65535 0.0
N868 N 0.25495 0.41484 0.75851 0.0
C869 C 0.25138 0.42342 0.77758 0.0
C870 C 0.23748 0.41393 0.79196 0.0
C871 C 0.24321 0.40024 0.76148 0.0
N872 N 0.23231 0.39938 0.78173 0.0
C873 C 0.26985 0.44924 0.71378 0.0
C874 C 0.24155 0.43286 0.68407 0.0
C875 C 0.24749 0.44854 0.69022 0.0
C876 C 0.26189 0.45682 0.70493 0.0
C877 C 0.24966 0.42565 0.69404 0.0
N878 N 0.26382 0.43382 0.70817 0.0
H879 H 0.28021 0.45558 0.72762 0.0
H880 H 0.24376 0.41326 0.69273 0.0
H881 H 0.25827 0.43579 0.78033 0.0
H882 H 0.24242 0.39057 0.74839 0.0
O883 O 0.28457 0.43822 0.76231 0.0
O884 O 0.28241 0.41514 0.75894 0.0
O885 O 0.26167 0.4041 0.70217 0.0
C886 C 0.28811 0.42831 0.77367 0.0
H887 H 0.31894 0.42994 0.66817 0.0
H888 H 0.23164 0.41751 0.80863 0.0
H889 H 0.23012 0.42594 0.67406 0.0
H890 H 0.26659 0.46887 0.71099 0.0
Co891 Co 0.51406 0.90622 0.11064 0.0
C892 C 0.5164 0.88069 0.1402 0.0
C893 C 0.5346 0.9026 0.15595 0.0
C894 C 0.53725 0.89129 0.16773 0.0
N895 N 0.52123 0.89593 0.13944 0.0
N896 N 0.52584 0.87757 0.15749 0.0
H897 H 0.50696 0.8721 0.1263 0.0
H898 H 0.5425 0.91488 0.15746 0.0
C899 C 0.5223 0.92527 0.1697 0.0
O900 O 0.51484 0.91234 0.18585 0.0
N901 N 0.50698 0.91603 0.08102 0.0
C902 C 0.49487 0.90834 0.06135 0.0
C903 C 0.49289 0.91881 0.04402 0.0
C904 C 0.51223 0.93112 0.07558 0.0
N905 N 0.50378 0.93311 0.05292 0.0
C906 C 0.4835 0.88191 0.12704 0.0
C907 C 0.47335 0.90145 0.14811 0.0
C908 C 0.46249 0.88595 0.1426 0.0
C909 C 0.46778 0.87599 0.13301 0.0
C910 C 0.48883 0.90691 0.14146 0.0
N911 N 0.49387 0.89725 0.13095 0.0
H912 H 0.48697 0.87437 0.11631 0.0
H913 H 0.49642 0.91922 0.142 0.0
H914 H 0.48778 0.89592 0.0601 0.0
H915 H 0.52194 0.94039 0.08786 0.0
O916 O 0.50971 0.89056 0.07906 0.0
O917 O 0.53208 0.91223 0.08458 0.0
O918 O 0.52291 0.92499 0.13931 0.0
C919 C 0.52377 0.8994 0.06914 0.0
H920 H 0.54742 0.89308 0.18045 0.0
H921 H 0.48382 0.91609 0.02688 0.0
H922 H 0.4698 0.90957 0.15552 0.0
H923 H 0.45974 0.864 0.12772 0.0
Co924 Co 0.09043 0.60847 0.10589 0.0
C925 C 0.11572 0.63642 0.13562 0.0
C926 C 0.09375 0.63181 0.153 0.0
C927 C 0.10484 0.64591 0.16458 0.0
N928 N 0.1006 0.62559 0.13552 0.0
N929 N 0.11861 0.64881 0.1533 0.0
H930 H 0.12433 0.63595 0.12098 0.0
H931 H 0.08144 0.62711 0.15513 0.0
C932 C 0.07092 0.5966 0.16405 0.0
O933 O 0.0838 0.60114 0.17991 0.0
N934 N 0.0807 0.59197 0.07535 0.0
C935 C 0.08841 0.58773 0.05529 0.0
C936 C 0.07796 0.57537 0.03774 0.0
C937 C 0.06561 0.5821 0.0699 0.0
N938 N 0.06366 0.57183 0.04691 0.0
C939 C 0.11423 0.60187 0.12614 0.0
C940 C 0.09385 0.57139 0.14107 0.0
C941 C 0.10961 0.57643 0.13999 0.0
C942 C 0.11994 0.59199 0.13342 0.0
C943 C 0.08866 0.58156 0.13381 0.0
N944 N 0.09873 0.59664 0.12626 0.0
H945 H 0.12223 0.61331 0.11795 0.0
H946 H 0.07637 0.57687 0.1318 0.0
H947 H 0.10083 0.59303 0.05412 0.0
H948 H 0.05633 0.58233 0.08262 0.0
O949 O 0.10654 0.61982 0.07517 0.0
O950 O 0.08511 0.62104 0.0799 0.0
O951 O 0.07136 0.59853 0.13386 0.0
C952 C 0.09805 0.62539 0.06497 0.0
H953 H 0.10279 0.65396 0.17794 0.0
H954 H 0.0807 0.56909 0.02042 0.0
H955 H 0.08549 0.55941 0.14578 0.0
H956 H 0.1322 0.59619 0.13168 0.0
Co957 Co 0.39037 0.48223 0.10726 0.0
C958 C 0.36214 0.47759 0.13723 0.0
C959 C 0.36903 0.46236 0.15789 0.0
C960 C 0.35519 0.45931 0.17136 0.0
N961 N 0.37329 0.47383 0.13652 0.0
N962 N 0.35089 0.46883 0.158 0.0
H963 H 0.36202 0.48629 0.12213 0.0
H964 H 0.37516 0.45622 0.16246 0.0
C965 C 0.41612 0.48144 0.14327 0.0
O966 O 0.42594 0.4952 0.13217 0.0
N967 N 0.40727 0.49081 0.07679 0.0
C968 C 0.41069 0.50251 0.05641 0.0
C969 C 0.4229 0.50489 0.03779 0.0
C970 C 0.417 0.48566 0.0688 0.0
N971 N 0.42703 0.49444 0.04585 0.0
C972 C 0.39798 0.51373 0.11354 0.0
C973 C 0.41384 0.51974 0.17028 0.0
C974 C 0.41557 0.53212 0.15162 0.0
C975 C 0.40663 0.52889 0.12407 0.0
C976 C 0.4049 0.50466 0.15876 0.0
N977 N 0.39866 0.50208 0.12891 0.0
H978 H 0.39127 0.51154 0.09217 0.0
H979 H 0.40362 0.49523 0.17336 0.0
H980 H 0.40451 0.50869 0.05404 0.0
H981 H 0.41697 0.47591 0.07999 0.0
O982 O 0.37777 0.48478 0.07592 0.0
O983 O 0.37985 0.4639 0.08087 0.0
O984 O 0.40179 0.47503 0.13623 0.0
C985 C 0.37401 0.47112 0.06565 0.0
H986 H 0.34841 0.45026 0.18829 0.0
H987 H 0.4282 0.51356 0.01939 0.0
H988 H 0.42 0.52168 0.19253 0.0
H989 H 0.40688 0.53807 0.10997 0.0
Co990 Co 0.09114 0.4827 0.60528 0.0
C991 C 0.11529 0.47841 0.63614 0.0
C992 C 0.09279 0.46137 0.65186 0.0
C993 C 0.10342 0.45814 0.66526 0.0
N994 N 0.10028 0.47442 0.63441 0.0
N995 N 0.11751 0.46884 0.65507 0.0
H996 H 0.12437 0.48744 0.62229 0.0
H997 H 0.0804 0.45417 0.65341 0.0
C998 C 0.07189 0.47585 0.66396 0.0
O999 O 0.08483 0.48314 0.68013 0.0
N1000 N 0.08243 0.49091 0.57551 0.0
C1001 C 0.0908 0.50276 0.55561 0.0
C1002 C 0.08108 0.50647 0.53999 0.0
C1003 C 0.06768 0.4875 0.57175 0.0
N1004 N 0.06658 0.49696 0.55024 0.0
C1005 C 0.11683 0.51226 0.623 0.0
C1006 C 0.0992 0.5243 0.64606 0.0
C1007 C 0.11514 0.534 0.64322 0.0
C1008 C 0.12403 0.52781 0.63173 0.0
C1009 C 0.09247 0.50896 0.63651 0.0
N1010 N 0.10124 0.5029 0.62585 0.0
H1011 H 0.12374 0.50818 0.61167 0.0
H1012 H 0.08005 0.50231 0.63574 0.0
H1013 H 0.10321 0.50861 0.55328 0.0
H1014 H 0.05809 0.47875 0.58526 0.0
O1015 O 0.10672 0.48611 0.57413 0.0
O1016 O 0.08422 0.46456 0.57894 0.0
O1017 O 0.07228 0.47482 0.63363 0.0
C1018 C 0.0973 0.47224 0.56395 0.0
H1019 H 0.10094 0.44815 0.67953 0.0
H1020 H 0.08448 0.51558 0.52259 0.0
H1021 H 0.09185 0.5288 0.65351 0.0
H1022 H 0.13634 0.53507 0.62831 0.0
Co1023 Co 0.51698 0.60898 0.60727 0.0
C1024 C 0.51828 0.63501 0.64345 0.0
C1025 C 0.53616 0.63045 0.65744 0.0
C1026 C 0.53861 0.64371 0.67234 0.0
N1027 N 0.52315 0.62471 0.63991 0.0
N1028 N 0.52741 0.64663 0.66332 0.0
H1029 H 0.50906 0.63479 0.62988 0.0
H1030 H 0.54403 0.62601 0.65753 0.0
C1031 C 0.52323 0.59497 0.66374 0.0
O1032 O 0.51453 0.59896 0.67991 0.0
N1033 N 0.51107 0.59382 0.57396 0.0
C1034 C 0.5 0.59068 0.5522 0.0
C1035 C 0.49806 0.57847 0.53397 0.0
C1036 C 0.51572 0.58349 0.5688 0.0
N1037 N 0.50788 0.57392 0.54447 0.0
C1038 C 0.48596 0.6015 0.62446 0.0
C1039 C 0.47575 0.57075 0.63666 0.0
C1040 C 0.46502 0.57578 0.6359 0.0
C1041 C 0.47027 0.59144 0.63052 0.0
C1042 C 0.49121 0.58112 0.63069 0.0
N1043 N 0.4963 0.59638 0.62489 0.0
H1044 H 0.48943 0.61305 0.61699 0.0
H1045 H 0.49887 0.57651 0.62852 0.0
H1046 H 0.49335 0.59646 0.55052 0.0
H1047 H 0.52434 0.58274 0.58296 0.0
O1048 O 0.51312 0.62171 0.57848 0.0
O1049 O 0.53555 0.62256 0.58404 0.0
O1050 O 0.52537 0.5979 0.63391 0.0
C1051 C 0.52743 0.62762 0.56964 0.0
H1052 H 0.54858 0.65129 0.68656 0.0
H1053 H 0.4895 0.57288 0.5155 0.0
H1054 H 0.47212 0.5587 0.64038 0.0
H1055 H 0.46221 0.59565 0.62886 0.0
Co1056 Co 0.39002 0.90748 0.60513 0.0
C1057 C 0.36251 0.88459 0.63869 0.0
C1058 C 0.3694 0.90738 0.65549 0.0
C1059 C 0.35624 0.89696 0.67152 0.0
N1060 N 0.37323 0.89954 0.63498 0.0
N1061 N 0.35189 0.8826 0.66083 0.0
H1062 H 0.36232 0.87545 0.62465 0.0
H1063 H 0.37556 0.91978 0.65833 0.0
C1064 C 0.41619 0.93318 0.64245 0.0
O1065 O 0.42557 0.92825 0.63363 0.0
N1066 N 0.40674 0.91524 0.57429 0.0
C1067 C 0.40918 0.90681 0.5524 0.0
C1068 C 0.42169 0.9164 0.53418 0.0
C1069 C 0.41741 0.93002 0.56775 0.0
N1070 N 0.42696 0.93098 0.54402 0.0
C1071 C 0.39735 0.88338 0.61041 0.0
C1072 C 0.41247 0.89228 0.66808 0.0
C1073 C 0.41454 0.88202 0.64874 0.0
C1074 C 0.40587 0.87671 0.62077 0.0
C1075 C 0.40358 0.89852 0.65679 0.0
N1076 N 0.39783 0.89544 0.6265 0.0
H1077 H 0.39088 0.87921 0.58869 0.0
H1078 H 0.40212 0.90648 0.6717 0.0
H1079 H 0.40209 0.89457 0.54869 0.0
H1080 H 0.41825 0.93988 0.58013 0.0
O1081 O 0.37677 0.89238 0.57432 0.0
O1082 O 0.37991 0.91581 0.57909 0.0
O1083 O 0.40209 0.92615 0.63345 0.0
C1084 C 0.37357 0.9027 0.564 0.0
H1085 H 0.35035 0.89982 0.68948 0.0
H1086 H 0.42636 0.91292 0.51471 0.0
H1087 H 0.41839 0.89617 0.69066 0.0
H1088 H 0.40626 0.86799 0.60616 0.0
Co1089 Co 0.14903 0.42244 0.22851 0.0
C1090 C 0.14391 0.44613 0.19703 0.0
C1091 C 0.12536 0.42317 0.18883 0.0
C1092 C 0.12143 0.43336 0.17596 0.0
N1093 N 0.13961 0.43115 0.20149 0.0
N1094 N 0.13309 0.44781 0.18127 0.0
H1095 H 0.15431 0.45564 0.20647 0.0
H1096 H 0.11798 0.41079 0.19033 0.0
C1097 C 0.1411 0.40384 0.16904 0.0
O1098 O 0.14763 0.41701 0.15356 0.0
N1099 N 0.15825 0.41395 0.25613 0.0
C1100 C 0.17076 0.42236 0.2744 0.0
C1101 C 0.17465 0.4126 0.28931 0.0
C1102 C 0.15461 0.39915 0.26017 0.0
N1103 N 0.16455 0.39803 0.28029 0.0
C1104 C 0.1782 0.44854 0.21071 0.0
C1105 C 0.18989 0.43158 0.1826 0.0
C1106 C 0.19966 0.44735 0.18751 0.0
C1107 C 0.1937 0.45592 0.20155 0.0
C1108 C 0.17466 0.42459 0.19294 0.0
N1109 N 0.16874 0.43306 0.20606 0.0
H1110 H 0.17431 0.45511 0.22409 0.0
H1111 H 0.1681 0.41218 0.1926 0.0
H1112 H 0.17681 0.4348 0.27631 0.0
H1113 H 0.1452 0.3895 0.24805 0.0
O1114 O 0.15286 0.4378 0.26041 0.0
O1115 O 0.13152 0.41505 0.25702 0.0
O1116 O 0.1408 0.40375 0.19951 0.0
C1117 C 0.13938 0.42811 0.27197 0.0
H1118 H 0.11043 0.43036 0.16533 0.0
H1119 H 0.18417 0.41599 0.30562 0.0
H1120 H 0.19432 0.42447 0.17321 0.0
H1121 H 0.20113 0.46805 0.20679 0.0
Co1122 Co 0.57414 0.72504 0.22934 0.0
C1123 C 0.55015 0.69438 0.20619 0.0
C1124 C 0.57278 0.6992 0.19299 0.0
C1125 C 0.56237 0.68436 0.18379 0.0
N1126 N 0.56508 0.70568 0.20619 0.0
N1127 N 0.54819 0.68137 0.19238 0.0
H1128 H 0.54096 0.69519 0.21765 0.0
H1129 H 0.5852 0.70456 0.19167 0.0
C1130 C 0.59241 0.73336 0.16895 0.0
O1131 O 0.57925 0.72593 0.15355 0.0
N1132 N 0.58292 0.74394 0.25323 0.0
C1133 C 0.57475 0.74921 0.26894 0.0
C1134 C 0.58482 0.76316 0.28244 0.0
C1135 C 0.59785 0.75465 0.25745 0.0
N1136 N 0.59933 0.76659 0.27515 0.0
C1137 C 0.54759 0.72676 0.20923 0.0
C1138 C 0.5639 0.75445 0.17717 0.0
C1139 C 0.5482 0.74853 0.18294 0.0
C1140 C 0.53994 0.73441 0.19873 0.0
C1141 C 0.57118 0.74668 0.18879 0.0
N1142 N 0.56306 0.73286 0.20433 0.0
H1143 H 0.54127 0.71673 0.22395 0.0
H1144 H 0.58359 0.7526 0.18767 0.0
H1145 H 0.56231 0.74333 0.27031 0.0
H1146 H 0.60736 0.75383 0.24738 0.0
O1147 O 0.55932 0.71503 0.26305 0.0
O1148 O 0.58208 0.71641 0.2602 0.0
O1149 O 0.59245 0.73435 0.19933 0.0
C1150 C 0.56923 0.71181 0.27567 0.0
H1151 H 0.56508 0.67609 0.17342 0.0
H1152 H 0.58169 0.77013 0.29684 0.0
H1153 H 0.57078 0.76567 0.16623 0.0
H1154 H 0.52786 0.72975 0.20448 0.0
Co1155 Co 0.27397 0.85042 0.22975 0.0
C1156 C 0.30069 0.85444 0.19389 0.0
C1157 C 0.29386 0.87055 0.17816 0.0
C1158 C 0.30681 0.87319 0.16143 0.0
N1159 N 0.29012 0.8588 0.19843 0.0
N1160 N 0.31113 0.86307 0.17147 0.0
H1161 H 0.30103 0.84551 0.20775 0.0
H1162 H 0.28786 0.87698 0.17616 0.0
C1163 C 0.24713 0.84964 0.19449 0.0
O1164 O 0.23784 0.83562 0.20508 0.0
N1165 N 0.25791 0.84194 0.26215 0.0
C1166 C 0.25601 0.83144 0.28451 0.0
C1167 C 0.24382 0.82866 0.30365 0.0
C1168 C 0.24729 0.84604 0.26936 0.0
N1169 N 0.23822 0.83771 0.29392 0.0
C1170 C 0.26641 0.81889 0.22558 0.0
C1171 C 0.25055 0.81206 0.16872 0.0
C1172 C 0.24898 0.79994 0.1881 0.0
C1173 C 0.25794 0.80361 0.21573 0.0
C1174 C 0.25937 0.82729 0.17952 0.0
N1175 N 0.26562 0.83028 0.20938 0.0
H1176 H 0.2732 0.82141 0.24689 0.0
H1177 H 0.26052 0.83654 0.16444 0.0
H1178 H 0.26325 0.82642 0.28784 0.0
H1179 H 0.24609 0.85479 0.25679 0.0
O1180 O 0.28784 0.8489 0.25938 0.0
O1181 O 0.28471 0.8692 0.25464 0.0
O1182 O 0.26142 0.8567 0.20208 0.0
C1183 C 0.2914 0.8626 0.26911 0.0
H1184 H 0.31267 0.88204 0.1436 0.0
H1185 H 0.23957 0.82075 0.32358 0.0
H1186 H 0.24438 0.8098 0.14641 0.0
H1187 H 0.25791 0.79467 0.23034 0.0
C1188 C 0.38299 0.16197 0.1664 0.0
C1189 C 0.38391 0.15755 0.19769 0.0
C1190 C 0.36979 0.162 0.15591 0.0
C1191 C 0.32875 0.14745 0.1735 0.0
H1192 H 0.33583 0.18455 0.12965 0.0
C1193 C 0.28016 0.16115 0.15424 0.0
C1194 C 0.27923 0.16694 0.1244 0.0
C1195 C 0.29302 0.15996 0.16234 0.0
C1196 C 0.33365 0.17404 0.14149 0.0
H1197 H 0.37149 0.14909 0.24213 0.0
H1198 H 0.34834 0.14906 0.22375 0.0
H1199 H 0.3577 0.18155 0.14461 0.0
H1200 H 0.29116 0.17633 0.07984 0.0
H1201 H 0.31371 0.17421 0.09392 0.0
H1202 H 0.3047 0.13994 0.17046 0.0
C1203 C 0.35783 0.15244 0.2073 0.0
C1204 C 0.34617 0.17231 0.15004 0.0
C1205 C 0.37106 0.15242 0.21781 0.0
C1206 C 0.29164 0.17196 0.10311 0.0
C1207 C 0.30452 0.17072 0.11118 0.0
C1208 C 0.31622 0.14915 0.16487 0.0
C1209 C 0.35722 0.15757 0.17647 0.0
C1210 C 0.34385 0.15903 0.1663 0.0
C1211 C 0.30523 0.16449 0.14073 0.0
C1212 C 0.31854 0.16252 0.149 0.0
H1213 H 0.39258 0.16566 0.15013 0.0
H1214 H 0.36952 0.1657 0.13181 0.0
H1215 H 0.32661 0.13701 0.18565 0.0
H1216 H 0.27089 0.15748 0.17135 0.0
H1217 H 0.29338 0.15548 0.18559 0.0
C1218 C 0.82367 0.11739 0.10878 0.0
C1219 C 0.82902 0.10995 0.12913 0.0
C1220 C 0.82456 0.13123 0.11795 0.0
C1221 C 0.84575 0.16407 0.1726 0.0
H1222 H 0.81265 0.17239 0.15428 0.0
C1223 C 0.84341 0.21654 0.22379 0.0
C1224 C 0.8381 0.22401 0.20337 0.0
C1225 C 0.84283 0.20287 0.21433 0.0
C1226 C 0.82207 0.1703 0.15923 0.0
H1227 H 0.8388 0.11077 0.1756 0.0
H1228 H 0.84026 0.13482 0.19169 0.0
H1229 H 0.81001 0.1477 0.13887 0.0
H1230 H 0.82886 0.22349 0.15645 0.0
H1231 H 0.82789 0.19972 0.13995 0.0
H1232 H 0.85778 0.18666 0.19307 0.0
C1233 C 0.83573 0.13018 0.16835 0.0
C1234 C 0.82055 0.15616 0.15042 0.0
C1235 C 0.83487 0.11639 0.15916 0.0
C1236 C 0.83272 0.21783 0.17296 0.0
C1237 C 0.83215 0.20421 0.16351 0.0
C1238 C 0.84726 0.17821 0.18145 0.0
C1239 C 0.83078 0.13787 0.1477 0.0
C1240 C 0.83236 0.15288 0.15702 0.0
C1241 C 0.83696 0.19644 0.18427 0.0
C1242 C 0.83545 0.18148 0.17482 0.0
H1243 H 0.81927 0.1128 0.08537 0.0
H1244 H 0.82078 0.13696 0.10138 0.0
H1245 H 0.85517 0.16199 0.17756 0.0
H1246 H 0.84747 0.22093 0.24748 0.0
H1247 H 0.84651 0.19708 0.23094 0.0
C1248 C 0.78324 0.62692 0.22524 0.0
C1249 C 0.77437 0.61593 0.20201 0.0
C1250 C 0.79721 0.63996 0.21707 0.0
C1251 C 0.82775 0.65336 0.15652 0.0
H1252 H 0.84064 0.69389 0.19124 0.0
C1253 C 0.88142 0.70844 0.11126 0.0
C1254 C 0.89055 0.71966 0.13386 0.0
C1255 C 0.86744 0.69561 0.12014 0.0
C1256 C 0.83729 0.6826 0.18167 0.0
H1257 H 0.77275 0.61047 0.15175 0.0
H1258 H 0.79707 0.63321 0.13747 0.0
H1259 H 0.81543 0.67223 0.20536 0.0
H1260 H 0.89248 0.72588 0.18376 0.0
H1261 H 0.86812 0.70346 0.1993 0.0
H1262 H 0.84959 0.66369 0.13287 0.0
C1263 C 0.79341 0.63157 0.16212 0.0
C1264 C 0.82284 0.67021 0.18971 0.0
C1265 C 0.77947 0.61856 0.17028 0.0
C1266 C 0.88559 0.71757 0.16569 0.0
C1267 C 0.87162 0.70474 0.17458 0.0
C1268 C 0.84219 0.66573 0.14851 0.0
C1269 C 0.80257 0.64226 0.18551 0.0
C1270 C 0.81789 0.65547 0.1771 0.0
C1271 C 0.8623 0.69372 0.15183 0.0
C1272 C 0.84711 0.6805 0.16092 0.0
H1273 H 0.7797 0.62514 0.24994 0.0
H1274 H 0.80408 0.64794 0.23567 0.0
H1275 H 0.82439 0.64207 0.1469 0.0
H1276 H 0.88479 0.70982 0.08647 0.0
H1277 H 0.86044 0.68742 0.10196 0.0
C1278 C 0.17872 0.3852 0.29868 0.0
C1279 C 0.16476 0.38433 0.28982 0.0
C1280 C 0.17896 0.37214 0.3093 0.0
C1281 C 0.15421 0.33412 0.3452 0.0
H1282 H 0.18694 0.32639 0.31936 0.0
C1283 C 0.15306 0.27727 0.37281 0.0
C1284 C 0.16694 0.27804 0.38188 0.0
C1285 C 0.15293 0.29042 0.36237 0.0
C1286 C 0.17784 0.32851 0.32711 0.0
H1287 H 0.14015 0.36898 0.28465 0.0
H1288 H 0.14059 0.34601 0.30281 0.0
H1289 H 0.18617 0.34865 0.29799 0.0
H1290 H 0.19153 0.29326 0.3876 0.0
H1291 H 0.1913 0.31639 0.36965 0.0
H1292 H 0.14586 0.31396 0.37428 0.0
C1293 C 0.15132 0.3569 0.30189 0.0
C1294 C 0.17738 0.34122 0.31481 0.0
C1295 C 0.15108 0.37 0.29118 0.0
C1296 C 0.18067 0.29234 0.38089 0.0
C1297 C 0.18054 0.30552 0.37032 0.0
C1298 C 0.15467 0.3214 0.35749 0.0
C1299 C 0.16526 0.35787 0.31127 0.0
C1300 C 0.16555 0.34416 0.32372 0.0
C1301 C 0.16667 0.30466 0.36077 0.0
C1302 C 0.16648 0.31845 0.34854 0.0
H1303 H 0.1895 0.39601 0.29742 0.0
H1304 H 0.18987 0.3733 0.31658 0.0
H1305 H 0.14511 0.33623 0.35295 0.0
H1306 H 0.14225 0.26649 0.3738 0.0
H1307 H 0.14207 0.28934 0.35494 0.0
C1308 C 0.62709 0.77991 0.28848 0.0
C1309 C 0.61331 0.78022 0.2846 0.0
C1310 C 0.64041 0.79298 0.29932 0.0
C1311 C 0.65813 0.8352 0.30873 0.0
H1312 H 0.68242 0.82989 0.37411 0.0
C1313 C 0.7059 0.88654 0.37832 0.0
C1314 C 0.71981 0.88651 0.38237 0.0
C1315 C 0.69286 0.87349 0.36651 0.0
C1316 C 0.67583 0.83154 0.35566 0.0
H1317 H 0.60288 0.79466 0.28779 0.0
H1318 H 0.62594 0.81727 0.30725 0.0
H1319 H 0.6601 0.8073 0.35167 0.0
H1320 H 0.73079 0.8726 0.37833 0.0
H1321 H 0.70816 0.84997 0.35734 0.0
H1322 H 0.67382 0.85945 0.31286 0.0
C1323 C 0.62652 0.80699 0.30179 0.0
C1324 C 0.66308 0.81861 0.34274 0.0
C1325 C 0.61324 0.79396 0.29102 0.0
C1326 C 0.72031 0.87307 0.37502 0.0
C1327 C 0.7073 0.86004 0.36334 0.0
C1328 C 0.67086 0.84813 0.32169 0.0
C1329 C 0.64021 0.80661 0.30635 0.0
C1330 C 0.65408 0.82031 0.31919 0.0
C1331 C 0.69347 0.86015 0.35872 0.0
C1332 C 0.67982 0.84644 0.34532 0.0
H1333 H 0.62749 0.76949 0.28389 0.0
H1334 H 0.65086 0.7924 0.30226 0.0
H1335 H 0.65154 0.83686 0.29031 0.0
H1336 H 0.70519 0.89675 0.3836 0.0
H1337 H 0.68229 0.87384 0.36351 0.0
C1338 C 0.12596 0.84604 0.37625 0.0
C1339 C 0.11305 0.83211 0.38588 0.0
C1340 C 0.13977 0.84662 0.36842 0.0
C1341 C 0.15509 0.82192 0.342 0.0
H1342 H 0.19452 0.85743 0.36406 0.0
C1343 C 0.2126 0.82386 0.31915 0.0
C1344 C 0.22462 0.83746 0.30584 0.0
C1345 C 0.19921 0.82332 0.33006 0.0
C1346 C 0.18359 0.84752 0.35751 0.0
H1347 H 0.10466 0.80792 0.39552 0.0
H1348 H 0.12895 0.80899 0.38243 0.0
H1349 H 0.17071 0.85597 0.38253 0.0
H1350 H 0.23205 0.86122 0.29385 0.0
H1351 H 0.20847 0.86026 0.31283 0.0
H1352 H 0.16797 0.81346 0.31703 0.0
C1353 C 0.12826 0.81942 0.38047 0.0
C1354 C 0.16996 0.84666 0.36808 0.0
C1355 C 0.1144 0.81883 0.38828 0.0
C1356 C 0.22296 0.85057 0.30382 0.0
C1357 C 0.20954 0.85005 0.31493 0.0
C1358 C 0.16871 0.82275 0.33155 0.0
C1359 C 0.14105 0.83331 0.37018 0.0
C1360 C 0.15555 0.83389 0.3603 0.0
C1361 C 0.1975 0.83637 0.32798 0.0
C1362 C 0.18309 0.83557 0.3391 0.0
H1363 H 0.12545 0.85656 0.3747 0.0
H1364 H 0.14934 0.85747 0.3603 0.0
H1365 H 0.14418 0.81206 0.33511 0.0
H1366 H 0.2134 0.81349 0.32062 0.0
H1367 H 0.19019 0.81266 0.34027 0.0
C1368 C 0.71405 0.82771 0.83847 0.0
C1369 C 0.71518 0.82302 0.86938 0.0
C1370 C 0.7013 0.82892 0.82953 0.0
C1371 C 0.66125 0.81725 0.8508 0.0
H1372 H 0.67003 0.85443 0.80495 0.0
C1373 C 0.61453 0.83346 0.82929 0.0
C1374 C 0.61366 0.83853 0.79859 0.0
C1375 C 0.62718 0.83208 0.83831 0.0
C1376 C 0.66737 0.84393 0.81745 0.0
H1377 H 0.70356 0.81533 0.91481 0.0
H1378 H 0.68114 0.81742 0.89916 0.0
H1379 H 0.6911 0.85006 0.8195 0.0
H1380 H 0.62558 0.84658 0.75356 0.0
H1381 H 0.64777 0.84416 0.76926 0.0
H1382 H 0.63751 0.8111 0.84871 0.0
C1383 C 0.69014 0.82009 0.88181 0.0
C1384 C 0.67943 0.84141 0.82576 0.0
C1385 C 0.70293 0.81886 0.89076 0.0
C1386 C 0.62601 0.84279 0.77746 0.0
C1387 C 0.63869 0.84137 0.78645 0.0
C1388 C 0.64918 0.81976 0.84246 0.0
C1389 C 0.68937 0.82547 0.85131 0.0
C1390 C 0.67649 0.82803 0.84248 0.0
C1391 C 0.63925 0.83571 0.81679 0.0
C1392 C 0.65212 0.83314 0.82572 0.0
H1393 H 0.72318 0.83068 0.82131 0.0
H1394 H 0.70086 0.83274 0.80563 0.0
H1395 H 0.65861 0.80676 0.86334 0.0
H1396 H 0.60531 0.83038 0.84627 0.0
H1397 H 0.62745 0.82805 0.86209 0.0
C1398 C 0.16555 0.78035 0.82744 0.0
C1399 C 0.16066 0.77477 0.79647 0.0
C1400 C 0.16683 0.79425 0.8372 0.0
C1401 C 0.15477 0.82261 0.81772 0.0
H1402 H 0.19139 0.85068 0.86543 0.0
C1403 C 0.17062 0.88525 0.84011 0.0
C1404 C 0.17485 0.89084 0.87129 0.0
C1405 C 0.16955 0.87137 0.83106 0.0
C1406 C 0.18105 0.84291 0.85239 0.0
H1407 H 0.15286 0.77918 0.75166 0.0
H1408 H 0.15511 0.80355 0.76865 0.0
H1409 H 0.18741 0.82547 0.84975 0.0
H1410 H 0.18192 0.88657 0.91712 0.0
H1411 H 0.18013 0.86221 0.90124 0.0
H1412 H 0.14846 0.84008 0.82021 0.0
C1413 C 0.15783 0.79708 0.78551 0.0
C1414 C 0.17874 0.82846 0.84345 0.0
C1415 C 0.15652 0.78312 0.77577 0.0
C1416 C 0.17873 0.8826 0.89287 0.0
C1417 C 0.17767 0.86865 0.88379 0.0
C1418 C 0.1571 0.83706 0.82659 0.0
C1419 C 0.16325 0.80291 0.81617 0.0
C1420 C 0.16558 0.81817 0.82598 0.0
C1421 C 0.17271 0.86274 0.85299 0.0
C1422 C 0.17029 0.84738 0.84391 0.0
H1423 H 0.16854 0.77401 0.8441 0.0
H1424 H 0.17069 0.79825 0.86121 0.0
H1425 H 0.14441 0.81486 0.80471 0.0
H1426 H 0.16789 0.89153 0.82277 0.0
H1427 H 0.16607 0.8673 0.80693 0.0
C1428 C 0.11914 0.27816 0.85608 0.0
C1429 C 0.10644 0.27892 0.86814 0.0
C1430 C 0.13244 0.29146 0.84646 0.0
C1431 C 0.14732 0.3314 0.82057 0.0
H1432 H 0.18672 0.33593 0.84518 0.0
C1433 C 0.2053 0.38742 0.80003 0.0
C1434 C 0.21791 0.38593 0.79007 0.0
C1435 C 0.19147 0.37449 0.80902 0.0
C1436 C 0.17582 0.33475 0.83778 0.0
H1437 H 0.09773 0.29433 0.87915 0.0
H1438 H 0.12117 0.31776 0.86252 0.0
H1439 H 0.16293 0.31336 0.86253 0.0
H1440 H 0.22576 0.36963 0.7814 0.0
H1441 H 0.20148 0.34697 0.79656 0.0
H1442 H 0.16025 0.35279 0.79569 0.0
C1443 C 0.12069 0.30674 0.86039 0.0
C1444 C 0.1622 0.32185 0.84778 0.0
C1445 C 0.10734 0.29336 0.87015 0.0
C1446 C 0.21626 0.37116 0.78879 0.0
C1447 C 0.20241 0.35821 0.79781 0.0
C1448 C 0.16097 0.34432 0.8105 0.0
C1449 C 0.13342 0.30591 0.84871 0.0
C1450 C 0.14781 0.31998 0.8391 0.0
C1451 C 0.1899 0.35975 0.80824 0.0
C1452 C 0.17537 0.34608 0.81886 0.0
H1453 H 0.11899 0.26729 0.85466 0.0
H1454 H 0.14197 0.29042 0.8372 0.0
H1455 H 0.13639 0.33018 0.81325 0.0
H1456 H 0.20608 0.39859 0.80079 0.0
H1457 H 0.18209 0.37607 0.81716 0.0
C1458 C 0.83467 0.61642 0.67556 0.0
C1459 C 0.84015 0.61606 0.70615 0.0
C1460 C 0.83398 0.62928 0.66523 0.0
C1461 C 0.84889 0.67051 0.68004 0.0
H1462 H 0.81104 0.66267 0.63846 0.0
C1463 C 0.8365 0.71942 0.65233 0.0
C1464 C 0.83032 0.71928 0.62224 0.0
C1465 C 0.83726 0.70665 0.66309 0.0
C1466 C 0.82173 0.66504 0.64971 0.0
H1467 H 0.8497 0.62911 0.74951 0.0
H1468 H 0.84859 0.65175 0.73135 0.0
H1469 H 0.814 0.64106 0.65585 0.0
H1470 H 0.81975 0.70555 0.58012 0.0
H1471 H 0.82115 0.68316 0.59881 0.0
H1472 H 0.85668 0.69449 0.67374 0.0
C1473 C 0.84487 0.64204 0.71537 0.0
C1474 C 0.82344 0.65268 0.65968 0.0
C1475 C 0.84554 0.62911 0.72574 0.0
C1476 C 0.82445 0.70591 0.60351 0.0
C1477 C 0.82527 0.69312 0.61423 0.0
C1478 C 0.84721 0.68288 0.67 0.0
C1479 C 0.8388 0.64211 0.68523 0.0
C1480 C 0.83704 0.65529 0.67488 0.0
C1481 C 0.8319 0.69345 0.64395 0.0
C1482 C 0.83361 0.68028 0.65473 0.0
H1483 H 0.83075 0.60666 0.65968 0.0
H1484 H 0.82959 0.62915 0.64161 0.0
H1485 H 0.85957 0.67286 0.69136 0.0
H1486 H 0.84082 0.72946 0.66753 0.0
H1487 H 0.84209 0.70714 0.68641 0.0
C1488 C 0.2941 0.11346 0.62063 0.0
C1489 C 0.27962 0.11247 0.61901 0.0
C1490 C 0.307 0.127 0.63123 0.0
C1491 C 0.31766 0.16165 0.67923 0.0
H1492 H 0.3571 0.1781 0.6365 0.0
C1493 C 0.3699 0.22157 0.70855 0.0
C1494 C 0.38443 0.22266 0.70895 0.0
C1495 C 0.35693 0.20806 0.69801 0.0
C1496 C 0.3462 0.17356 0.64891 0.0
H1497 H 0.26749 0.12515 0.62582 0.0
H1498 H 0.28991 0.14864 0.64437 0.0
H1499 H 0.33496 0.15455 0.61671 0.0
H1500 H 0.39666 0.21022 0.70032 0.0
H1501 H 0.37413 0.18672 0.6822 0.0
H1502 H 0.32891 0.18062 0.71153 0.0
C1503 C 0.29124 0.13887 0.63812 0.0
C1504 C 0.33354 0.16007 0.63756 0.0
C1505 C 0.27839 0.12539 0.62751 0.0
C1506 C 0.38568 0.20987 0.6995 0.0
C1507 C 0.37277 0.1964 0.68911 0.0
C1508 C 0.33033 0.17512 0.69064 0.0
C1509 C 0.30564 0.13978 0.6404 0.0
C1510 C 0.31914 0.15399 0.65258 0.0
C1511 C 0.35829 0.19539 0.68785 0.0
C1512 C 0.34474 0.1812 0.67562 0.0
H1513 H 0.29539 0.10367 0.6145 0.0
H1514 H 0.31796 0.12734 0.63297 0.0
H1515 H 0.30674 0.1571 0.69156 0.0
H1516 H 0.36864 0.23129 0.71555 0.0
H1517 H 0.34593 0.20766 0.69709 0.0
C1518 C 0.79076 0.1807 0.70594 0.0
C1519 C 0.77807 0.16654 0.71528 0.0
C1520 C 0.80433 0.1815 0.69539 0.0
C1521 C 0.81912 0.15767 0.66098 0.0
H1522 H 0.85892 0.19211 0.68497 0.0
C1523 C 0.87629 0.15904 0.63659 0.0
C1524 C 0.88905 0.17303 0.62676 0.0
C1525 C 0.86264 0.15842 0.64588 0.0
C1526 C 0.84789 0.18254 0.67771 0.0
H1527 H 0.7698 0.14215 0.72148 0.0
H1528 H 0.79371 0.14356 0.70351 0.0
H1529 H 0.83542 0.19037 0.7061 0.0
H1530 H 0.8974 0.19726 0.61816 0.0
H1531 H 0.87335 0.19619 0.63435 0.0
H1532 H 0.83161 0.14978 0.63278 0.0
C1533 C 0.79301 0.15402 0.70394 0.0
C1534 C 0.83443 0.18151 0.68988 0.0
C1535 C 0.77939 0.15323 0.71455 0.0
C1536 C 0.88773 0.18634 0.62561 0.0
C1537 C 0.87404 0.18574 0.63512 0.0
C1538 C 0.83258 0.15868 0.64886 0.0
C1539 C 0.80559 0.16816 0.69401 0.0
C1540 C 0.81989 0.16905 0.68168 0.0
C1541 C 0.8614 0.17177 0.64559 0.0
C1542 C 0.8471 0.17111 0.65717 0.0
H1543 H 0.79024 0.19123 0.70674 0.0
H1544 H 0.81373 0.19254 0.68768 0.0
H1545 H 0.80809 0.14808 0.65375 0.0
H1546 H 0.87685 0.14852 0.63717 0.0
H1547 H 0.85316 0.14751 0.65404 0.0
C1548 C 0.94645 0.48879 0.46436 0.0
C1549 C 0.94744 0.50282 0.45572 0.0
C1550 C 0.95956 0.48829 0.4736 0.0
C1551 C 0.99838 0.51267 0.50621 0.0
H1552 H 0.00425 0.4787 0.4807 0.0
C1553 C 0.05434 0.51159 0.53132 0.0
C1554 C 0.05304 0.49756 0.54111 0.0
C1555 C 0.04141 0.51222 0.52126 0.0
C1556 C 0.00266 0.48815 0.48832 0.0
H1557 H 0.96304 0.5273 0.44927 0.0
H1558 H 0.98612 0.52644 0.46503 0.0
H1559 H 0.98218 0.48016 0.4605 0.0
H1560 H 0.03711 0.47322 0.54846 0.0
H1561 H 0.01435 0.47432 0.53108 0.0
H1562 H 0.01889 0.52066 0.534 0.0
C1563 C 0.9751 0.51584 0.46505 0.0
C1564 C 0.99006 0.48902 0.4767 0.0
C1565 C 0.96193 0.51633 0.45573 0.0
C1566 C 0.03844 0.48419 0.54116 0.0
C1567 C 0.02547 0.4848 0.53093 0.0
C1568 C 0.011 0.51181 0.51779 0.0
C1569 C 0.97401 0.50182 0.47433 0.0
C1570 C 0.98775 0.50126 0.48559 0.0
C1571 C 0.02685 0.49883 0.52073 0.0
C1572 C 0.01326 0.49953 0.509 0.0
H1573 H 0.93551 0.47812 0.46403 0.0
H1574 H 0.95829 0.47734 0.48085 0.0
H1575 H 0.99678 0.52209 0.51394 0.0
H1576 H 0.06538 0.52215 0.53151 0.0
H1577 H 0.04288 0.52317 0.51332 0.0
C1578 C 0.48959 0.45202 0.44107 0.0
C1579 C 0.49392 0.44405 0.46237 0.0
C1580 C 0.49077 0.46603 0.44997 0.0
C1581 C 0.51191 0.49808 0.50616 0.0
H1582 H 0.48156 0.50953 0.48249 0.0
C1583 C 0.51201 0.55201 0.55548 0.0
C1584 C 0.50829 0.56044 0.5341 0.0
C1585 C 0.51077 0.53804 0.54617 0.0
C1586 C 0.49021 0.50655 0.48895 0.0
H1587 H 0.50188 0.44388 0.51022 0.0
H1588 H 0.50376 0.46818 0.52593 0.0
H1589 H 0.47743 0.48416 0.46785 0.0
H1590 H 0.50123 0.56132 0.48574 0.0
H1591 H 0.49907 0.53695 0.46951 0.0
H1592 H 0.52465 0.52044 0.52739 0.0
C1593 C 0.49988 0.46388 0.50208 0.0
C1594 C 0.48784 0.49203 0.48059 0.0
C1595 C 0.49877 0.44996 0.49314 0.0
C1596 C 0.50389 0.55492 0.50291 0.0
C1597 C 0.50263 0.54097 0.49363 0.0
C1598 C 0.51426 0.51258 0.51458 0.0
C1599 C 0.49623 0.47224 0.48038 0.0
C1600 C 0.49864 0.48763 0.48919 0.0
C1601 C 0.50579 0.53225 0.51533 0.0
C1602 C 0.50344 0.51696 0.50606 0.0
H1603 H 0.48594 0.44778 0.41713 0.0
H1604 H 0.48796 0.47225 0.43265 0.0
H1605 H 0.52059 0.49513 0.51261 0.0
H1606 H 0.51527 0.55586 0.57976 0.0
H1607 H 0.51318 0.53149 0.56348 0.0
C1608 C 0.45293 0.94323 0.52037 0.0
C1609 C 0.44055 0.9445 0.53268 0.0
C1610 C 0.46627 0.95624 0.50979 0.0
C1611 C 0.4812 0.99574 0.4811 0.0
H1612 H 0.52083 0.00078 0.50549 0.0
C1613 C 0.53845 0.05219 0.46071 0.0
C1614 C 0.55145 0.05119 0.45171 0.0
C1615 C 0.52473 0.039 0.46906 0.0
C1616 C 0.50986 -0.00057 0.49807 0.0
H1617 H 0.43243 0.96042 0.5433 0.0
H1618 H 0.45592 0.98332 0.52492 0.0
H1619 H 0.49719 0.97828 0.52378 0.0
H1620 H 0.56008 0.03546 0.44377 0.0
H1621 H 0.53595 0.01231 0.45774 0.0
H1622 H 0.49387 0.01688 0.45529 0.0
C1623 C 0.45518 0.97216 0.52335 0.0
C1624 C 0.49633 0.98658 0.50864 0.0
C1625 C 0.44181 0.9591 0.53412 0.0
C1626 C 0.55028 0.03662 0.45048 0.0
C1627 C 0.5365 0.02339 0.45881 0.0
C1628 C 0.49474 0.00858 0.47041 0.0
C1629 C 0.46756 0.97084 0.51123 0.0
C1630 C 0.48187 0.98461 0.50028 0.0
C1631 C 0.52363 0.02447 0.46848 0.0
C1632 C 0.50922 0.01058 0.47885 0.0
H1633 H 0.45242 0.93219 0.51937 0.0
H1634 H 0.47556 0.95486 0.5003 0.0
H1635 H 0.4702 0.9944 0.47394 0.0
H1636 H 0.53885 0.06319 0.46135 0.0
H1637 H 0.51507 0.04026 0.47665 0.0
C1638 C 0.50026 0.94804 0.01055 0.0
C1639 C 0.50514 0.94728 0.0415 0.0
C1640 C 0.49988 0.96108 1.00033 0.0
C1641 C 0.51452 0.00217 0.01677 0.0
H1642 H 0.47741 0.99472 0.97247 0.0
C1643 C 0.50216 0.05119 0.98919 0.0
C1644 C 0.49635 0.05132 0.95884 0.0
C1645 C 0.50298 0.0384 0.99963 0.0
C1646 C 0.48791 0.997 0.98448 0.0
H1647 H 0.51402 0.95983 0.08564 0.0
H1648 H 0.51342 0.98279 0.06769 0.0
H1649 H 0.48013 0.97296 0.98973 0.0
H1650 H 0.48658 0.03807 0.91581 0.0
H1651 H 0.48808 0.01566 0.93394 0.0
H1652 H 0.52234 0.02621 0.01139 0.0
C1653 C 0.50993 0.97325 0.05133 0.0
C1654 C 0.48947 0.98454 0.99438 0.0
C1655 C 0.51031 0.96015 0.06159 0.0
C1656 C 0.49097 0.03822 0.93942 0.0
C1657 C 0.49185 0.02541 0.94982 0.0
C1658 C 0.51297 0.01464 0.0068 0.0
C1659 C 0.50439 0.97369 0.02081 0.0
C1660 C 0.5028 0.987 0.01055 0.0
C1661 C 0.49805 0.02545 0.9799 0.0
C1662 C 0.49965 0.01219 0.99053 0.0
H1663 H 0.49654 0.93844 0.9943 0.0
H1664 H 0.49591 0.96124 0.97642 0.0
H1665 H 0.52499 0.00441 0.02888 0.0
H1666 H 0.50609 0.061 0.00493 0.0
H1667 H 0.50748 0.03866 0.0232 0.0
C1668 C 0.9474 0.44973 0.98985 0.0
C1669 C 0.94691 0.44382 0.95929 0.0
C1670 C 0.96013 0.46354 0.99958 0.0
C1671 C 0.00094 0.49098 0.98151 0.0
H1672 H 0.99267 0.51998 0.02631 0.0
C1673 C 0.04863 0.55316 0.00499 0.0
C1674 C 0.04954 0.55882 0.03598 0.0
C1675 C 0.03574 0.53948 0.99532 0.0
C1676 C 0.99516 0.51195 0.01407 0.0
H1677 H 0.95952 0.44748 0.91525 0.0
H1678 H 0.98185 0.47174 0.93218 0.0
H1679 H 0.97127 0.49496 0.01036 0.0
H1680 H 0.0374 0.55491 0.08075 0.0
H1681 H 0.01473 0.53092 0.0638 0.0
H1682 H 0.02482 0.50799 0.98513 0.0
C1683 C 0.97241 0.46559 0.94873 0.0
C1684 C 0.98292 0.49761 0.00499 0.0
C1685 C 0.95966 0.45171 0.93902 0.0
C1686 C 0.03695 0.55088 0.05666 0.0
C1687 C 0.02401 0.53714 0.04697 0.0
C1688 C 0.01317 0.50532 0.99053 0.0
C1689 C 0.97265 0.47178 0.97892 0.0
C1690 C 0.98568 0.48697 0.98863 0.0
C1691 C 0.02345 0.53114 0.01642 0.0
C1692 C 0.0104 0.51596 0.00686 0.0
H1693 H 0.93785 0.44373 0.00619 0.0
H1694 H 0.96012 0.46781 0.02326 0.0
H1695 H 0.00345 0.48294 0.96935 0.0
H1696 H 0.05802 0.55921 0.98834 0.0
H1697 H 0.03547 0.53533 0.9714 0.0
C1698 C 0.45321 0.50752 0.02315 0.0
C1699 C 0.44033 0.49396 0.03435 0.0
C1700 C 0.46632 0.50737 0.01265 0.0
C1701 C 0.48016 0.48214 0.98238 0.0
H1702 H 0.52009 0.51581 0.00824 0.0
C1703 C 0.53719 0.48261 0.95893 0.0
C1704 C 0.55014 0.4967 0.95017 0.0
C1705 C 0.52352 0.482 0.96817 0.0
C1706 C 0.50904 0.50644 1.00046 0.0
H1707 H 0.4311 0.46957 0.04308 0.0
H1708 H 0.45422 0.46932 0.02488 0.0
H1709 H 0.49669 0.51491 0.02729 0.0
H1710 H 0.55877 0.52115 0.94363 0.0
H1711 H 0.53477 0.52005 0.95924 0.0
H1712 H 0.49256 0.47371 0.95545 0.0
C1713 C 0.45403 0.48004 0.02409 0.0
C1714 C 0.49564 0.5059 0.01145 0.0
C1715 C 0.44086 0.4802 0.03474 0.0
C1716 C 0.54899 0.51012 0.95012 0.0
C1717 C 0.5353 0.50951 0.95939 0.0
C1718 C 0.49359 0.4827 0.97132 0.0
C1719 C 0.46692 0.49367 0.01314 0.0
C1720 C 0.48107 0.4938 0.00239 0.0
C1721 C 0.52247 0.49546 0.96882 0.0
C1722 C 0.50817 0.4949 0.98016 0.0
H1723 H 0.45333 0.51838 0.023 0.0
H1724 H 0.47599 0.51802 0.00402 0.0
H1725 H 0.46908 0.47278 0.97472 0.0
H1726 H 0.53759 0.47201 0.9587 0.0
H1727 H 0.51389 0.47102 0.9755 0.0
C1728 C 0.20315 0.10441 0.03993 0.0
C1729 C 0.2088 0.11492 0.01459 0.0
C1730 C 0.1994 0.0891 0.03539 0.0
C1731 C 0.20784 0.06538 0.97964 0.0
H1732 H 0.17834 0.03183 0.03264 0.0
C1733 C 0.19208 0.00177 0.96318 0.0
C1734 C 0.19452 0.99513 0.99041 0.0
C1735 C 0.19245 0.01588 0.96517 0.0
C1736 C 0.18661 0.04113 0.01773 0.0
H1737 H 0.2142 0.11769 0.96437 0.0
H1738 H 0.20675 0.09073 0.95573 0.0
H1739 H 0.18032 0.0571 0.03623 0.0
H1740 H 0.19896 0.99775 0.04103 0.0
H1741 H 0.19919 0.02237 0.04477 0.0
H1742 H 0.21375 0.04914 0.96062 0.0
C1743 C 0.20578 0.09433 0.97949 0.0
C1744 C 0.18784 0.05564 0.01985 0.0
C1745 C 0.20986 0.10973 0.98424 0.0
C1746 C 0.19708 0.0027 0.01978 0.0
C1747 C 0.19712 0.01667 0.02191 0.0
C1748 C 0.20637 0.0508 0.97706 0.0
C1749 C 0.20097 0.0839 0.00522 0.0
C1750 C 0.19864 0.06806 0.00116 0.0
C1751 C 0.19496 0.02343 0.99454 0.0
C1752 C 0.1959 0.03862 0.99637 0.0
H1753 H 0.20247 0.10826 0.06368 0.0
H1754 H 0.196 0.0816 0.05596 0.0
H1755 H 0.21656 0.07463 0.96536 0.0
H1756 H 0.19028 0.99624 0.9402 0.0
H1757 H 0.19077 0.0209 0.94377 0.0
C1758 C 0.88779 0.10192 0.98811 0.0
C1759 C 0.8824 0.0949 0.01781 0.0
C1760 C 0.90312 0.11358 0.98441 0.0
C1761 C 0.94144 0.1339 0.0258 0.0
H1762 H 0.94761 0.16735 0.96989 0.0
C1763 C 0.99564 0.19556 0.02541 0.0
C1764 C 0.00254 0.20049 0.99539 0.0
C1765 C 0.98139 0.18198 0.02835 0.0
C1766 C 0.94604 0.15805 0.98549 0.0
H1767 H 0.88866 0.09422 0.06681 0.0
H1768 H 0.91524 0.11496 0.0609 0.0
H1769 H 0.92217 0.14456 0.97398 0.0
H1770 H -0.0001 0.1954 0.94492 0.0
H1771 H 0.97485 0.1719 0.94997 0.0
H1772 H 0.96534 0.14798 0.03817 0.0
C1773 C 0.90792 0.11122 0.04005 0.0
C1774 C 0.9315 0.14489 0.98764 0.0
C1775 C 0.89267 0.09934 0.04353 0.0
C1776 C 0.9949 0.19173 0.96837 0.0
C1777 C 0.98056 0.17837 0.97121 0.0
C1778 C 0.95594 0.14724 0.02407 0.0
C1779 C 0.91327 0.11877 0.0106 0.0
C1780 C 0.92898 0.13257 0.00772 0.0
C1781 C 0.9737 0.17336 0.0012 0.0
C1782 C 0.95835 0.15938 0.00379 0.0
H1783 H 0.88003 0.09863 0.96796 0.0
H1784 H 0.90689 0.11876 0.96114 0.0
H1785 H 0.94006 0.12461 0.04116 0.0
H1786 H 0.00136 0.20214 0.04653 0.0
H1787 H 0.97623 0.17835 0.0517 0.0
C1788 C 0.90657 0.80221 0.01184 0.0
C1789 C 0.9051 0.78799 0.00295 0.0
C1790 C 0.89465 0.8053 0.00598 0.0
C1791 C 0.85839 0.79251 0.96129 0.0
H1792 H 0.84667 0.80737 0.03548 0.0
C1793 C 0.80883 0.80634 0.9593 0.0
C1794 C 0.7985 0.80079 0.9851 0.0
C1795 C 0.82249 0.80579 0.96001 0.0
C1796 C 0.84978 0.80318 0.0146 0.0
H1797 H 0.89029 0.76624 0.97923 0.0
H1798 H 0.86958 0.77172 0.96866 0.0
H1799 H 0.86977 0.80504 0.03725 0.0
H1800 H 0.79444 0.79044 0.03188 0.0
H1801 H 0.81836 0.78944 0.03319 0.0
H1802 H 0.83817 0.79032 0.93892 0.0
C1803 C 0.87997 0.78049 0.98013 0.0
C1804 C 0.86311 0.80203 0.01545 0.0
C1805 C 0.89188 0.77737 0.9861 0.0
C1806 C 0.80217 0.79475 0.01169 0.0
C1807 C 0.8159 0.7943 0.0125 0.0
C1808 C 0.8451 0.79376 0.96036 0.0
C1809 C 0.88102 0.79427 0.99095 0.0
C1810 C 0.8675 0.79655 0.98892 0.0
C1811 C 0.82617 0.79975 0.98659 0.0
C1812 C 0.84058 0.79896 0.98713 0.0
H1813 H 0.91674 0.81075 0.02432 0.0
H1814 H 0.89592 0.81615 0.014 0.0
H1815 H 0.86151 0.7883 0.94044 0.0
H1816 H 0.80623 0.81082 0.93821 0.0
H1817 H 0.83021 0.81016 0.93978 0.0
C1818 C 0.00204 0.19388 0.53502 0.0
C1819 C 0.99468 0.19572 0.50838 0.0
C1820 C 0.01588 0.19381 0.53163 0.0
C1821 C 0.0482 0.20487 0.47437 0.0
H1822 H 0.05922 0.18229 0.5338 0.0
C1823 C 0.10369 0.20132 0.46226 0.0
C1824 C 0.11367 0.20823 0.48817 0.0
C1825 C 0.08824 0.19743 0.46438 0.0
C1826 C 0.05621 0.18858 0.51701 0.0
H1827 H 0.99562 0.19853 0.45734 0.0
H1828 H 0.01941 0.19764 0.45086 0.0
H1829 H 0.03373 0.17981 0.53689 0.0
H1830 H 0.11533 0.21582 0.53696 0.0
H1831 H 0.08804 0.20845 0.54109 0.0
H1832 H 0.07064 0.21325 0.4541 0.0
C1833 C 0.01489 0.19681 0.47463 0.0
C1834 C 0.04168 0.18731 0.51889 0.0
C1835 C 0.00122 0.19723 0.47819 0.0
C1836 C 0.10779 0.21041 0.51679 0.0
C1837 C 0.09224 0.2062 0.51914 0.0
C1838 C 0.06257 0.20583 0.47207 0.0
C1839 C 0.02252 0.19526 0.50137 0.0
C1840 C 0.03756 0.19566 0.49794 0.0
C1841 C 0.08248 0.20009 0.49265 0.0
C1842 C 0.06676 0.19788 0.49365 0.0
H1843 H 0.99729 0.19292 0.55862 0.0
H1844 H 0.02151 0.19299 0.55291 0.0
H1845 H 0.04569 0.21174 0.4582 0.0
H1846 H 0.10804 0.19972 0.43982 0.0
H1847 H 0.08088 0.19273 0.44369 0.0
C1848 C 0.79325 0.89996 0.46754 0.0
C1849 C 0.78873 0.90541 0.49378 0.0
C1850 C 0.79651 0.88802 0.4712 0.0
C1851 C 0.78837 0.856 0.52714 0.0
H1852 H 0.815 0.84974 0.46947 0.0
C1853 C 0.80373 0.80754 0.53947 0.0
C1854 C 0.79914 0.79752 0.51324 0.0
C1855 C 0.8035 0.82135 0.53778 0.0
C1856 C 0.80753 0.8514 0.48566 0.0
H1857 H 0.78486 0.90342 0.54459 0.0
H1858 H 0.79154 0.88325 0.55161 0.0
H1859 H 0.81425 0.87373 0.46695 0.0
H1860 H 0.7909 0.79399 0.46472 0.0
H1861 H 0.79098 0.81858 0.46131 0.0
H1862 H 0.78215 0.8338 0.54643 0.0
C1863 C 0.79198 0.88767 0.52789 0.0
C1864 C 0.807 0.86508 0.48418 0.0
C1865 C 0.78836 0.89937 0.52406 0.0
C1866 C 0.79445 0.80158 0.48516 0.0
C1867 C 0.79457 0.81559 0.4832 0.0
C1868 C 0.78919 0.84251 0.52907 0.0
C1869 C 0.79558 0.88144 0.50134 0.0
C1870 C 0.79724 0.86749 0.50461 0.0
C1871 C 0.79901 0.82551 0.50959 0.0
C1872 C 0.79861 0.84002 0.50807 0.0
H1873 H 0.79334 0.9043 0.44386 0.0
H1874 H 0.79897 0.88347 0.45005 0.0
H1875 H 0.78043 0.85716 0.5428 0.0
H1876 H 0.80723 0.80454 0.56146 0.0
H1877 H 0.80693 0.82885 0.55839 0.0
C1878 C 0.09994 0.88892 0.5184 0.0
C1879 C 0.09437 0.88342 0.48779 0.0
C1880 C 0.11168 0.90417 0.52282 0.0
C1881 C 0.13521 0.94194 0.4802 0.0
H1882 H 0.1653 0.9478 0.54488 0.0
C1883 C 0.19872 0.99269 0.48564 0.0
C1884 C 0.20237 0.00118 0.51401 0.0
C1885 C 0.18469 0.97887 0.48269 0.0
C1886 C 0.15693 0.9463 0.52684 0.0
H1887 H 0.09634 0.88934 0.43786 0.0
H1888 H 0.11726 0.9157 0.44511 0.0
H1889 H 0.14195 0.92283 0.53974 0.0
H1890 H 0.19461 0.00188 0.56175 0.0
H1891 H 0.17028 0.97741 0.55698 0.0
H1892 H 0.15089 0.96534 0.46639 0.0
C1893 C 0.11231 0.90861 0.46603 0.0
C1894 C 0.14343 0.93205 0.52404 0.0
C1895 C 0.10033 0.89347 0.46176 0.0
C1896 C 0.19193 0.99557 0.53954 0.0
C1897 C 0.1781 0.98162 0.53688 0.0
C1898 C 0.1489 0.9561 0.48257 0.0
C1899 C 0.1184 0.91409 0.49656 0.0
C1900 C 0.13237 0.92962 0.50063 0.0
C1901 C 0.17435 0.97321 0.50839 0.0
C1902 C 0.15984 0.95835 0.50589 0.0
H1903 H 0.09548 0.88128 0.53876 0.0
H1904 H 0.11572 0.90803 0.54679 0.0
H1905 H 0.12689 0.94069 0.46229 0.0
H1906 H 0.20663 0.99686 0.46571 0.0
H1907 H 0.18203 0.97248 0.46058 0.0
C1908 C 0.77303 0.88713 0.95588 0.0
C1909 C 0.78039 0.88108 0.97451 0.0
C1910 C 0.77688 0.90249 0.95897 0.0
C1911 C 0.806 0.94063 0.99038 0.0
H1912 H 0.7711 0.94742 0.98998 0.0
C1913 C 0.80896 0.99827 0.02633 0.0
C1914 C 0.80025 0.00287 0.0078 0.0
C1915 C 0.80802 0.98402 0.02101 0.0
C1916 C 0.78099 0.94576 0.98977 0.0
H1917 H 0.79805 0.88645 0.00993 0.0
H1918 H 0.80468 0.91349 0.01598 0.0
H1919 H 0.76679 0.92146 0.98377 0.0
H1920 H 0.78447 0.99652 0.96798 0.0
H1921 H 0.78275 0.97167 0.95888 0.0
H1922 H 0.82014 0.96509 0.99698 0.0
C1923 C 0.79598 0.90632 0.99876 0.0
C1924 C 0.77853 0.93087 0.98618 0.0
C1925 C 0.79218 0.89087 0.99542 0.0
C1926 C 0.79107 0.99318 0.98309 0.0
C1927 C 0.7901 0.97896 0.97786 0.0
C1928 C 0.80846 0.95561 0.99417 0.0
C1929 C 0.78812 0.91219 0.981 0.0
C1930 C 0.791 0.92811 0.98604 0.0
C1931 C 0.79831 0.97409 0.99717 0.0
C1932 C 0.79597 0.95832 0.99354 0.0
H1933 H 0.76415 0.8799 0.93901 0.0
H1934 H 0.77092 0.90673 0.94423 0.0
H1935 H 0.81585 0.93891 0.99021 0.0
H1936 H 0.81603 0.00534 0.04577 0.0
H1937 H 0.8144 0.98052 0.03642 0.0
C1938 C 0.10459 0.90261 0.98688 0.0
C1939 C 0.11479 0.89883 0.97173 0.0
C1940 C 0.08877 0.89186 0.98823 0.0
C1941 C 0.05875 0.85556 0.95051 0.0
H1942 H 0.03729 0.84867 0.03093 0.0
C1943 C 0.00511 0.79815 0.9833 0.0
C1944 C 0.99286 0.79842 0.99918 0.0
C1945 C 0.01889 0.81179 0.97736 0.0
C1946 C 0.04306 0.85062 0.00817 0.0
H1947 H 0.11628 0.88106 0.94501 0.0
H1948 H 0.08903 0.86234 0.94819 0.0
H1949 H 0.06356 0.87031 0.02551 0.0
H1950 H 0.98555 0.81362 0.02002 0.0
H1951 H 0.00979 0.83732 0.01031 0.0
H1952 H 0.03848 0.83551 0.93361 0.0
C1953 C 0.0931 0.87358 0.95881 0.0
C1954 C 0.05809 0.86303 0.00503 0.0
C1955 C 0.10881 0.88425 0.95746 0.0
C1956 C 0.99474 0.81281 0.00833 0.0
C1957 C 0.00862 0.82645 0.00268 0.0
C1958 C 0.0438 0.84312 0.95372 0.0
C1959 C 0.08287 0.87721 0.97423 0.0
C1960 C 0.06625 0.8654 0.9764 0.0
C1961 C 0.02086 0.82606 0.98732 0.0
C1962 C 0.03594 0.84031 0.9828 0.0
H1963 H 0.10886 0.91376 0.99805 0.0
H1964 H 0.08117 0.89504 1.00012 0.0
H1965 H 0.06458 0.85727 0.92789 0.0
H1966 H 0.00431 0.78741 0.97616 0.0
H1967 H 0.02822 0.81112 0.96583 0.0
C1968 C 0.18853 0.19235 0.04633 0.0
C1969 C 0.19916 0.19774 0.02107 0.0
C1970 C 0.1748 0.19272 0.04417 0.0
C1971 C 0.14742 0.19251 0.98702 0.0
H1972 H 0.13667 0.21281 0.05249 0.0
C1973 C 0.1026 0.21084 0.96482 0.0
C1974 C 0.09311 0.21051 0.98978 0.0
C1975 C 0.11444 0.20768 0.97045 0.0
C1976 C 0.13931 0.20682 0.03431 0.0
H1977 H 0.20381 0.20762 0.97382 0.0
H1978 H 0.17959 0.208 0.96967 0.0
H1979 H 0.15958 0.21031 0.05889 0.0
H1980 H 0.0885 0.20648 0.04027 0.0
H1981 H 0.10912 0.20056 0.05017 0.0
H1982 H 0.12718 0.18879 0.9625 0.0
C1983 C 0.18194 0.20356 0.99116 0.0
C1984 C 0.15247 0.20547 0.03792 0.0
C1985 C 0.1958 0.20344 0.99357 0.0
C1986 C 0.09567 0.20684 0.02061 0.0
C1987 C 0.1075 0.20351 0.02624 0.0
C1988 C 0.13417 0.19364 0.9836 0.0
C1989 C 0.17135 0.19825 0.01649 0.0
C1990 C 0.15681 0.19861 0.01397 0.0
C1991 C 0.11706 0.20395 0.00118 0.0
C1992 C 0.13014 0.20116 0.0068 0.0
H1993 H 0.19097 0.18809 0.06797 0.0
H1994 H 0.1668 0.18855 0.06398 0.0
H1995 H 0.1504 0.18693 0.96848 0.0
H1996 H 0.10119 0.21402 0.94094 0.0
H1997 H 0.1218 0.20858 0.95072 0.0
C1998 C 0.88737 0.78775 0.47532 0.0
C1999 C 0.88197 0.78851 0.50566 0.0
C2000 C 0.90278 0.79181 0.47092 0.0
C2001 C 0.94106 0.809 0.51274 0.0
H2002 H 0.94796 0.78373 0.45245 0.0
C2003 C 0.99303 0.79816 0.51334 0.0
C2004 C 0.00143 0.80206 0.48482 0.0
C2005 C 0.9791 0.7982 0.51508 0.0
C2006 C 0.94618 0.79092 0.46921 0.0
H2007 H 0.88826 0.7942 0.55509 0.0
H2008 H 0.91489 0.80058 0.54797 0.0
H2009 H 0.92251 0.78111 0.45643 0.0
H2010 H 0.00188 0.80876 0.43565 0.0
H2011 H 0.97721 0.80833 0.43841 0.0
H2012 H 0.96468 0.81804 0.52663 0.0
C2013 C 0.90757 0.79749 0.52716 0.0
C2014 C 0.93164 0.78956 0.47134 0.0
C2015 C 0.89227 0.79379 0.53136 0.0
C2016 C 0.99566 0.80589 0.45799 0.0
C2017 C 0.98158 0.80557 0.4595 0.0
C2018 C 0.95551 0.81008 0.51107 0.0
C2019 C 0.91299 0.79626 0.49698 0.0
C2020 C 0.92882 0.79853 0.49326 0.0
C2021 C 0.97323 0.80177 0.48807 0.0
C2022 C 0.95814 0.801 0.48937 0.0
H2023 H 0.87957 0.78369 0.45519 0.0
H2024 H 0.90656 0.79109 0.44717 0.0
H2025 H 0.93951 0.81635 0.52943 0.0
H2026 H 0.99733 0.79521 0.53426 0.0
H2027 H 0.97275 0.79513 0.53729 0.0
C2028 C 0.20471 0.0968 0.53883 0.0
C2029 C 0.21069 0.09291 0.51242 0.0
C2030 C 0.20109 0.10854 0.53656 0.0
C2031 C 0.1909 0.13075 0.48457 0.0
H2032 H 0.21617 0.16562 0.53923 0.0
C2033 C 0.19405 0.18938 0.46736 0.0
C2034 C 0.19664 0.19882 0.49398 0.0
C2035 C 0.19469 0.17581 0.47008 0.0
C2036 C 0.20874 0.15591 0.52425 0.0
H2037 H 0.21688 0.09763 0.46266 0.0
H2038 H 0.20995 0.11789 0.45836 0.0
H2039 H 0.21797 0.14231 0.5431 0.0
H2040 H 0.20159 0.20149 0.54432 0.0
H2041 H 0.20195 0.17738 0.54978 0.0
H2042 H 0.18124 0.14398 0.46631 0.0
C2043 C 0.20824 0.11191 0.4808 0.0
C2044 C 0.20988 0.1426 0.52638 0.0
C2045 C 0.21219 0.10038 0.48325 0.0
C2046 C 0.19969 0.1944 0.52348 0.0
C2047 C 0.19998 0.18063 0.52643 0.0
C2048 C 0.18948 0.14393 0.4829 0.0
C2049 C 0.20308 0.11636 0.50769 0.0
C2050 C 0.20109 0.12999 0.50636 0.0
C2051 C 0.19761 0.17119 0.4997 0.0
C2052 C 0.19853 0.1568 0.50247 0.0
H2053 H 0.20367 0.09136 0.5617 0.0
H2054 H 0.19712 0.11182 0.55756 0.0
H2055 H 0.18396 0.12109 0.46901 0.0
H2056 H 0.1919 0.19272 0.44425 0.0
H2057 H 0.19319 0.16914 0.44876 0.0
C2058 C 0.8856 0.11098 0.55181 0.0
C2059 C 0.89879 0.11678 0.53256 0.0
C2060 C 0.87404 0.09561 0.5495 0.0
C2061 C 0.86427 0.05715 0.51905 0.0
H2062 H 0.82297 0.05138 0.51747 0.0
C2063 C 0.80964 0.00024 0.48108 0.0
C2064 C 0.79599 0.9959 0.4982 0.0
C2065 C 0.82297 0.01434 0.48716 0.0
C2066 C 0.8344 0.05274 0.51831 0.0
H2067 H 0.91072 0.111 0.49703 0.0
H2068 H 0.8902 0.08392 0.49242 0.0
H2069 H 0.84494 0.07709 0.5243 0.0
H2070 H 0.78589 0.00254 0.53625 0.0
H2071 H 0.80912 0.02712 0.54687 0.0
H2072 H 0.85354 0.03266 0.51256 0.0
C2073 C 0.8889 0.09129 0.50948 0.0
C2074 C 0.84701 0.06749 0.52222 0.0
C2075 C 0.90059 0.10675 0.51201 0.0
C2076 C 0.79613 0.0057 0.52226 0.0
C2077 C 0.80943 0.01976 0.52834 0.0
C2078 C 0.85158 0.04231 0.51505 0.0
C2079 C 0.87532 0.08569 0.52767 0.0
C2080 C 0.86209 0.06988 0.52291 0.0
C2081 C 0.82291 0.02437 0.51044 0.0
C2082 C 0.8365 0.03997 0.51487 0.0
H2083 H 0.88411 0.11843 0.56836 0.0
H2084 H 0.86394 0.09156 0.56448 0.0
H2085 H 0.87574 0.05861 0.51965 0.0
H2086 H 0.8099 0.99306 0.46213 0.0
H2087 H 0.83313 0.01763 0.47277 0.0
C2088 C 0.85416 0.33353 0.30876 0.0
C2089 C 0.86207 0.32862 0.32905 0.0
C2090 C 0.85493 0.34771 0.3137 0.0
C2091 C 0.88067 0.38553 0.34813 0.0
H2092 H 0.84594 0.3924 0.34102 0.0
C2093 C 0.88782 0.44418 0.37847 0.0
C2094 C 0.88107 0.45023 0.35808 0.0
C2095 C 0.88392 0.42878 0.37624 0.0
C2096 C 0.85577 0.39068 0.34274 0.0
H2097 H 0.87622 0.33442 0.37144 0.0
H2098 H 0.87769 0.3592 0.37983 0.0
H2099 H 0.84189 0.36628 0.33499 0.0
H2100 H 0.8645 0.44494 0.32031 0.0
H2101 H 0.85785 0.41782 0.31565 0.0
H2102 H 0.89465 0.40979 0.35516 0.0
C2103 C 0.87109 0.35216 0.35985 0.0
C2104 C 0.85344 0.37574 0.33938 0.0
C2105 C 0.87028 0.33798 0.355 0.0
C2106 C 0.86985 0.44046 0.33619 0.0
C2107 C 0.86604 0.42498 0.33366 0.0
C2108 C 0.88301 0.4004 0.35126 0.0
C2109 C 0.86367 0.35731 0.33891 0.0
C2110 C 0.86587 0.37302 0.34235 0.0
C2111 C 0.87332 0.41908 0.35323 0.0
C2112 C 0.87059 0.40317 0.34896 0.0
H2113 H 0.84787 0.32674 0.28832 0.0
H2114 H 0.8492 0.35144 0.29702 0.0
H2115 H 0.89054 0.38386 0.34976 0.0
H2116 H 0.89631 0.45147 0.39594 0.0
H2117 H 0.88941 0.42453 0.39231 0.0
C2118 C 0.55991 0.43318 0.37574 0.0
C2119 C 0.54929 0.42902 0.35073 0.0
C2120 C 0.57528 0.44463 0.37133 0.0
C2121 C 0.59912 0.47771 0.31762 0.0
H2122 H 0.63289 0.4797 0.36661 0.0
C2123 C 0.6628 0.52377 0.29721 0.0
C2124 C 0.67041 0.53252 0.32427 0.0
C2125 C 0.64848 0.51037 0.30003 0.0
C2126 C 0.62352 0.47926 0.35288 0.0
H2127 H 0.54636 0.43279 0.3012 0.0
H2128 H 0.57338 0.45211 0.29271 0.0
H2129 H 0.60725 0.45689 0.37057 0.0
H2130 H 0.66928 0.53399 0.37547 0.0
H2131 H 0.64423 0.51016 0.38057 0.0
H2132 H 0.61561 0.49992 0.29932 0.0
C2133 C 0.56984 0.44707 0.31616 0.0
C2134 C 0.60881 0.46624 0.3552 0.0
C2135 C 0.5544 0.43587 0.3208 0.0
C2136 C 0.66358 0.52744 0.35431 0.0
C2137 C 0.64937 0.51382 0.35722 0.0
C2138 C 0.61387 0.49054 0.31485 0.0
C2139 C 0.5804 0.45199 0.34163 0.0
C2140 C 0.59635 0.46535 0.33781 0.0
C2141 C 0.64163 0.5053 0.33003 0.0
C2142 C 0.62615 0.49148 0.33264 0.0
H2143 H 0.55612 0.42817 0.39917 0.0
H2144 H 0.58291 0.44818 0.39169 0.0
H2145 H 0.58984 0.47773 0.30446 0.0
H2146 H 0.66774 0.52754 0.27375 0.0
H2147 H 0.64272 0.50396 0.27876 0.0
C2148 C 0.55115 0.10559 0.35045 0.0
C2149 C 0.567 0.11655 0.34865 0.0
C2150 C 0.54007 0.10995 0.34619 0.0
C2151 C 0.53119 0.13979 0.35772 0.0
H2152 H 0.50057 0.11943 0.29146 0.0
C2153 C 0.47082 0.13499 0.35412 0.0
C2154 C 0.46647 0.13838 0.32477 0.0
C2155 C 0.48448 0.13447 0.35674 0.0
C2156 C 0.5091 0.12529 0.3099 0.0
H2157 H 0.58346 0.14087 0.34163 0.0
H2158 H 0.56384 0.14855 0.33552 0.0
H2159 H 0.52217 0.11465 0.29588 0.0
H2160 H 0.47295 0.14381 0.2752 0.0
H2161 H 0.49663 0.14266 0.2797 0.0
H2162 H 0.51769 0.14992 0.37257 0.0
C2163 C 0.56023 0.13653 0.33969 0.0
C2164 C 0.5214 0.12254 0.31243 0.0
C2165 C 0.57141 0.13211 0.34329 0.0
C2166 C 0.4761 0.14137 0.29821 0.0
C2167 C 0.48959 0.14061 0.30071 0.0
C2168 C 0.51867 0.14233 0.35557 0.0
C2169 C 0.54449 0.12542 0.34083 0.0
C2170 C 0.53247 0.12967 0.33647 0.0
C2171 C 0.49385 0.13704 0.32991 0.0
C2172 C 0.50749 0.13501 0.33173 0.0
H2173 H 0.54719 0.0936 0.35575 0.0
H2174 H 0.52798 0.10124 0.34766 0.0
H2175 H 0.53955 0.14528 0.37661 0.0
H2176 H 0.46362 0.13272 0.37493 0.0
H2177 H 0.48748 0.13156 0.37946 0.0
C2178 C 0.77314 0.5371 0.83364 0.0
C2179 C 0.7828 0.54987 0.81461 0.0
C2180 C 0.7574 0.53223 0.83614 0.0
C2181 C 0.72794 0.53309 0.85307 0.0
H2182 H 0.70481 0.5325 0.7785 0.0
C2183 C 0.66508 0.52034 0.86178 0.0
C2184 C 0.66156 0.53011 0.84404 0.0
C2185 C 0.67891 0.52041 0.85683 0.0
C2186 C 0.71113 0.53269 0.79957 0.0
H2187 H 0.78355 0.56708 0.78216 0.0
H2188 H 0.75626 0.55866 0.7866 0.0
H2189 H 0.73077 0.53646 0.77227 0.0
H2190 H 0.66968 0.5473 0.80663 0.0
H2191 H 0.69396 0.54771 0.79848 0.0
H2192 H 0.70854 0.52984 0.88049 0.0
C2193 C 0.76074 0.55241 0.79965 0.0
C2194 C 0.72596 0.5349 0.79598 0.0
C2195 C 0.7764 0.55735 0.79742 0.0
C2196 C 0.67209 0.53976 0.82089 0.0
C2197 C 0.68593 0.53984 0.81596 0.0
C2198 C 0.71311 0.53093 0.85668 0.0
C2199 C 0.75108 0.53989 0.8192 0.0
C2200 C 0.73465 0.53547 0.82274 0.0
C2201 C 0.68956 0.53026 0.83405 0.0
C2202 C 0.70467 0.53104 0.83 0.0
H2203 H 0.77781 0.53113 0.84703 0.0
H2204 H 0.75017 0.52249 0.85129 0.0
H2205 H 0.73443 0.53363 0.87414 0.0
H2206 H 0.65737 0.51289 0.88011 0.0
H2207 H 0.68129 0.51279 0.87097 0.0
C2208 C 0.44172 0.21894 0.79356 0.0
C2209 C 0.44921 0.23272 0.81107 0.0
C2210 C 0.4464 0.20801 0.79592 0.0
C2211 C 0.46309 0.18992 0.79314 0.0
H2212 H 0.46784 0.17758 0.87789 0.0
C2213 C 0.45684 0.13063 0.81923 0.0
C2214 C 0.46648 0.12963 0.84221 0.0
C2215 C 0.45706 0.14453 0.81408 0.0
C2216 C 0.46682 0.18104 0.85401 0.0
H2217 H 0.46777 0.2461 0.8441 0.0
H2218 H 0.47598 0.22677 0.8485 0.0
H2219 H 0.46462 0.20002 0.87111 0.0
H2220 H 0.48398 0.14257 0.87779 0.0
H2221 H 0.48455 0.16683 0.86837 0.0
H2222 H 0.46495 0.17079 0.77604 0.0
C2223 C 0.46641 0.22447 0.83305 0.0
C2224 C 0.465 0.19392 0.85015 0.0
C2225 C 0.46179 0.23554 0.83043 0.0
C2226 C 0.47653 0.14293 0.8596 0.0
C2227 C 0.47674 0.15683 0.85448 0.0
C2228 C 0.46494 0.17708 0.79698 0.0
C2229 C 0.45868 0.21055 0.81591 0.0
C2230 C 0.46274 0.19827 0.81972 0.0
C2231 C 0.46692 0.15777 0.83183 0.0
C2232 C 0.46648 0.17228 0.82751 0.0
H2233 H 0.43213 0.21656 0.77806 0.0
H2234 H 0.44009 0.19735 0.78269 0.0
H2235 H 0.46163 0.19316 0.76934 0.0
H2236 H 0.44907 0.12065 0.80527 0.0
H2237 H 0.4492 0.1448 0.79671 0.0
C2238 C 0.85746 0.32987 0.87294 0.0
C2239 C 0.86689 0.33603 0.84598 0.0
C2240 C 0.84377 0.31574 0.87119 0.0
C2241 C 0.81306 0.29018 0.81929 0.0
H2242 H 0.80889 0.25688 0.87321 0.0
C2243 C 0.76535 0.22709 0.7996 0.0
C2244 C 0.76042 0.21684 0.82538 0.0
C2245 C 0.77711 0.24235 0.80355 0.0
C2246 C 0.80961 0.26609 0.8585 0.0
H2247 H 0.86947 0.33251 0.79611 0.0
H2248 H 0.84509 0.30781 0.7927 0.0
H2249 H 0.8319 0.28219 0.8771 0.0
H2250 H 0.76311 0.21445 0.87573 0.0
H2251 H 0.78297 0.24137 0.88335 0.0
H2252 H 0.79064 0.27439 0.80128 0.0
C2253 C 0.84844 0.31392 0.81518 0.0
C2254 C 0.8229 0.28055 0.86056 0.0
C2255 C 0.86234 0.32791 0.81713 0.0
C2256 C 0.76678 0.22223 0.85556 0.0
C2257 C 0.77829 0.2376 0.85972 0.0
C2258 C 0.79958 0.2758 0.81769 0.0
C2259 C 0.83913 0.3077 0.84228 0.0
C2260 C 0.8248 0.29262 0.8407 0.0
C2261 C 0.784 0.24775 0.83355 0.0
C2262 C 0.79775 0.26347 0.83698 0.0
H2263 H 0.86086 0.33587 0.89552 0.0
H2264 H 0.83675 0.31112 0.89236 0.0
H2265 H 0.81427 0.29943 0.80399 0.0
H2266 H 0.76075 0.22305 0.77599 0.0
H2267 H 0.78128 0.24964 0.78267 0.0
C2268 C 0.46154 0.32696 0.32364 0.0
C2269 C 0.46668 0.33575 0.35161 0.0
C2270 C 0.46114 0.31284 0.32146 0.0
C2271 C 0.45799 0.28089 0.36894 0.0
H2272 H 0.47458 0.27193 0.29379 0.0
C2273 C 0.45657 0.22256 0.35149 0.0
C2274 C 0.45274 0.21632 0.32067 0.0
C2275 C 0.45978 0.23768 0.35728 0.0
C2276 C 0.46977 0.27418 0.31483 0.0
H2277 H 0.47503 0.3365 0.39955 0.0
H2278 H 0.47419 0.31171 0.39582 0.0
H2279 H 0.4769 0.29721 0.29969 0.0
H2280 H 0.44866 0.22079 0.27215 0.0
H2281 H 0.454 0.24679 0.28221 0.0
H2282 H 0.45036 0.25768 0.38359 0.0
C2283 C 0.47063 0.31584 0.37552 0.0
C2284 C 0.47114 0.28868 0.31819 0.0
C2285 C 0.47124 0.33007 0.37753 0.0
C2286 C 0.452 0.22539 0.29598 0.0
C2287 C 0.45509 0.24035 0.30176 0.0
C2288 C 0.45646 0.26629 0.36542 0.0
C2289 C 0.46565 0.30714 0.3474 0.0
C2290 C 0.46506 0.29209 0.34502 0.0
C2291 C 0.4591 0.24675 0.3324 0.0
C2292 C 0.46208 0.26268 0.33801 0.0
H2293 H 0.45801 0.33112 0.30336 0.0
H2294 H 0.45711 0.30628 0.2996 0.0
H2295 H 0.45315 0.28324 0.38982 0.0
H2296 H 0.45722 0.21582 0.37096 0.0
H2297 H 0.4629 0.24229 0.38114 0.0
C2298 C 0.7711 0.23757 0.32635 0.0
C2299 C 0.78081 0.23398 0.30871 0.0
C2300 C 0.75531 0.22687 0.3288 0.0
C2301 C 0.72399 0.19195 0.29044 0.0
H2302 H 0.70613 0.18133 0.37491 0.0
C2303 C 0.67193 0.13287 0.32018 0.0
C2304 C 0.66111 0.1319 0.34267 0.0
C2305 C 0.68516 0.14697 0.31379 0.0
C2306 C 0.71081 0.18434 0.35107 0.0
H2307 H 0.78158 0.21678 0.27861 0.0
H2308 H 0.75423 0.19818 0.28302 0.0
H2309 H 0.73193 0.20349 0.36783 0.0
H2310 H 0.65558 0.14512 0.37567 0.0
H2311 H 0.67857 0.16977 0.36414 0.0
H2312 H 0.70308 0.17258 0.27374 0.0
C2313 C 0.7587 0.20918 0.295 0.0
C2314 C 0.7256 0.19704 0.34704 0.0
C2315 C 0.77441 0.21976 0.29283 0.0
C2316 C 0.6636 0.14546 0.35798 0.0
C2317 C 0.67686 0.15957 0.35164 0.0
C2318 C 0.70921 0.17929 0.29444 0.0
C2319 C 0.74899 0.21255 0.31318 0.0
C2320 C 0.7325 0.20069 0.3168 0.0
C2321 C 0.68789 0.16044 0.32977 0.0
C2322 C 0.70263 0.17508 0.32492 0.0
H2323 H 0.77577 0.24849 0.33872 0.0
H2324 H 0.74806 0.22977 0.34287 0.0
H2325 H 0.72892 0.19467 0.26676 0.0
H2326 H 0.67027 0.12268 0.30775 0.0
H2327 H 0.6935 0.14719 0.29707 0.0
C2328 C 0.86355 0.53955 0.32618 0.0
C2329 C 0.86665 0.53275 0.35224 0.0
C2330 C 0.84983 0.54001 0.32484 0.0
C2331 C 0.81943 0.53904 0.37536 0.0
H2332 H 0.79642 0.52947 0.29639 0.0
C2333 C 0.77295 0.55569 0.34789 0.0
C2334 C 0.76013 0.54537 0.32965 0.0
C2335 C 0.78479 0.55254 0.3544 0.0
C2336 C 0.80261 0.532 0.31874 0.0
H2337 H 0.85796 0.5214 0.3977 0.0
H2338 H 0.834 0.52213 0.39526 0.0
H2339 H 0.81956 0.52726 0.29927 0.0
H2340 H 0.74907 0.52306 0.30633 0.0
H2341 H 0.76978 0.51761 0.31757 0.0
H2342 H 0.80251 0.54392 0.39471 0.0
C2343 C 0.84215 0.52707 0.37583 0.0
C2344 C 0.81596 0.53091 0.32025 0.0
C2345 C 0.85579 0.52649 0.37703 0.0
C2346 C 0.75894 0.53138 0.31988 0.0
C2347 C 0.7708 0.52827 0.32629 0.0
C2348 C 0.80611 0.54024 0.37378 0.0
C2349 C 0.83902 0.53382 0.34971 0.0
C2350 C 0.82457 0.53452 0.34849 0.0
C2351 C 0.78406 0.53903 0.34274 0.0
C2352 C 0.79761 0.53681 0.34539 0.0
H2353 H 0.87169 0.54441 0.30674 0.0
H2354 H 0.8478 0.54543 0.30455 0.0
H2355 H 0.82589 0.54199 0.3974 0.0
H2356 H 0.7743 0.56663 0.3555 0.0
H2357 H 0.79491 0.5611 0.36699 0.0
C2358 C 0.55483 0.11995 0.81903 0.0
C2359 C 0.54873 0.12085 0.84851 0.0
C2360 C 0.57029 0.12384 0.81656 0.0
C2361 C 0.59898 0.12099 0.86092 0.0
H2362 H 0.62939 0.15091 0.80314 0.0
C2363 C 0.66074 0.13065 0.85651 0.0
C2364 C 0.6683 0.13431 0.82706 0.0
C2365 C 0.64677 0.13048 0.8601 0.0
C2366 C 0.62099 0.14232 0.81907 0.0
H2367 H 0.55391 0.12672 0.89835 0.0
H2368 H 0.58087 0.13314 0.89413 0.0
H2369 H 0.60383 0.14828 0.80649 0.0
H2370 H 0.6672 0.14029 0.77806 0.0
H2371 H 0.64249 0.13922 0.78359 0.0
H2372 H 0.61553 0.11427 0.87237 0.0
C2373 C 0.57376 0.1297 0.87293 0.0
C2374 C 0.60642 0.14095 0.82111 0.0
C2375 C 0.55842 0.12614 0.87526 0.0
C2376 C 0.66164 0.13766 0.80114 0.0
C2377 C 0.64752 0.13714 0.80446 0.0
C2378 C 0.61339 0.12209 0.85838 0.0
C2379 C 0.57973 0.12833 0.84369 0.0
C2380 C 0.59533 0.13029 0.84208 0.0
C2381 C 0.63987 0.13359 0.83403 0.0
C2382 C 0.62463 0.13275 0.83738 0.0
H2383 H 0.54752 0.11581 0.79816 0.0
H2384 H 0.57467 0.12262 0.79382 0.0
H2385 H 0.59049 0.11254 0.87698 0.0
H2386 H 0.66579 0.12816 0.87683 0.0
H2387 H 0.64148 0.12802 0.88342 0.0
C2388 C 0.86134 0.52577 0.79881 0.0
C2389 C 0.86403 0.53486 0.82613 0.0
C2390 C 0.86187 0.51213 0.80041 0.0
C2391 C 0.85626 0.48093 0.85155 0.0
H2392 H 0.88648 0.47784 0.79919 0.0
C2393 C 0.87216 0.43357 0.87117 0.0
C2394 C 0.87793 0.42901 0.84557 0.0
C2395 C 0.86856 0.44527 0.86729 0.0
C2396 C 0.87769 0.47826 0.81344 0.0
H2397 H 0.86917 0.53686 0.87644 0.0
H2398 H 0.86965 0.51255 0.87953 0.0
H2399 H 0.88384 0.50067 0.79557 0.0
H2400 H 0.88372 0.4323 0.79555 0.0
H2401 H 0.87651 0.45206 0.788 0.0
H2402 H 0.84968 0.45839 0.86882 0.0
C2403 C 0.86727 0.51613 0.85692 0.0
C2404 C 0.87633 0.49144 0.81154 0.0
C2405 C 0.86708 0.52999 0.85516 0.0
C2406 C 0.87928 0.43569 0.81559 0.0
C2407 C 0.87533 0.44715 0.81148 0.0
C2408 C 0.85736 0.46756 0.85297 0.0
C2409 C 0.86479 0.50718 0.82947 0.0
C2410 C 0.86575 0.49296 0.83085 0.0
C2411 C 0.87041 0.45247 0.83752 0.0
C2412 C 0.86825 0.46612 0.83425 0.0
H2413 H 0.85915 0.52942 0.77609 0.0
H2414 H 0.85996 0.50539 0.77897 0.0
H2415 H 0.8479 0.48184 0.86642 0.0
H2416 H 0.87128 0.4287 0.89464 0.0
H2417 H 0.86506 0.44913 0.88808 0.0
C2418 C 0.47811 0.32863 0.82692 0.0
C2419 C 0.464 0.32812 0.83277 0.0
C2420 C 0.4921 0.34242 0.83004 0.0
C2421 C 0.51029 0.38033 0.86836 0.0
H2422 H 0.53907 0.39376 0.79764 0.0
C2423 C 0.56837 0.43679 0.87379 0.0
C2424 C 0.57089 0.44688 0.84831 0.0
C2425 C 0.55688 0.4213 0.87191 0.0
C2426 C 0.53117 0.3901 0.8176 0.0
H2427 H 0.45384 0.34192 0.84733 0.0
H2428 H 0.47822 0.36575 0.8535 0.0
H2429 H 0.5155 0.3685 0.79564 0.0
H2430 H 0.56403 0.44852 0.80024 0.0
H2431 H 0.544 0.42135 0.7968 0.0
H2432 H 0.52576 0.40198 0.89011 0.0
C2433 C 0.47836 0.35543 0.84637 0.0
C2434 C 0.51776 0.37564 0.81655 0.0
C2435 C 0.46435 0.3417 0.84287 0.0
C2436 C 0.5623 0.44098 0.82023 0.0
C2437 C 0.5509 0.42544 0.81822 0.0
C2438 C 0.52377 0.39468 0.86958 0.0
C2439 C 0.49235 0.35596 0.8396 0.0
C2440 C 0.50709 0.37074 0.84172 0.0
C2441 C 0.54778 0.41558 0.84441 0.0
C2442 C 0.53424 0.39979 0.84404 0.0
H2443 H 0.47841 0.3184 0.81983 0.0
H2444 H 0.50275 0.34248 0.82508 0.0
H2445 H 0.5023 0.37678 0.88815 0.0
H2446 H 0.57468 0.44103 0.89588 0.0
H2447 H 0.55479 0.4139 0.89233 0.0
C2448 C 0.52056 0.66623 0.64692 0.0
C2449 C 0.52693 0.66056 0.66937 0.0
C2450 C 0.52129 0.6804 0.65168 0.0
C2451 C 0.54509 0.7171 0.69221 0.0
H2452 H 0.51184 0.72511 0.67305 0.0
C2453 C 0.55177 0.77597 0.71842 0.0
C2454 C 0.54674 0.78248 0.69516 0.0
C2455 C 0.54761 0.76048 0.71678 0.0
C2456 C 0.52126 0.72307 0.67821 0.0
H2457 H 0.53834 0.66496 0.71512 0.0
H2458 H 0.53972 0.68974 0.72335 0.0
H2459 H 0.50761 0.69891 0.6678 0.0
H2460 H 0.53297 0.77802 0.65266 0.0
H2461 H 0.52591 0.75076 0.6491 0.0
H2462 H 0.55889 0.74115 0.70189 0.0
C2463 C 0.53435 0.68331 0.70186 0.0
C2464 C 0.51883 0.70808 0.67529 0.0
C2465 C 0.53358 0.66914 0.69715 0.0
C2466 C 0.53695 0.77315 0.67081 0.0
C2467 C 0.5329 0.75759 0.66891 0.0
C2468 C 0.54754 0.73202 0.69495 0.0
C2469 C 0.52847 0.68922 0.6789 0.0
C2470 C 0.53072 0.70495 0.68244 0.0
C2471 C 0.5385 0.75119 0.69154 0.0
C2472 C 0.53565 0.7352 0.6882 0.0
H2473 H 0.51555 0.66007 0.62503 0.0
H2474 H 0.51682 0.68473 0.63341 0.0
H2475 H 0.55459 0.71513 0.69715 0.0
H2476 H 0.55916 0.78297 0.73767 0.0
H2477 H 0.55177 0.75584 0.73508 0.0
C2478 C 0.32569 0.86834 0.68432 0.0
C2479 C 0.33821 0.86829 0.66918 0.0
C2480 C 0.31208 0.85453 0.69038 0.0
C2481 C 0.28901 0.8155 0.65998 0.0
H2482 H 0.26661 0.80834 0.73924 0.0
C2483 C 0.22779 0.76269 0.67859 0.0
C2484 C 0.21725 0.76617 0.6931 0.0
C2485 C 0.24357 0.77364 0.67812 0.0
C2486 C 0.27268 0.81019 0.71689 0.0
H2487 H 0.34627 0.85337 0.65011 0.0
H2488 H 0.32234 0.8294 0.65991 0.0
H2489 H 0.29247 0.8306 0.73426 0.0
H2490 H 0.21509 0.78357 0.7198 0.0
H2491 H 0.24224 0.80264 0.71804 0.0
H2492 H 0.26898 0.7955 0.64209 0.0
C2493 C 0.32313 0.8402 0.66683 0.0
C2494 C 0.2875 0.82292 0.71412 0.0
C2495 C 0.33683 0.85399 0.6611 0.0
C2496 C 0.22283 0.78063 0.70774 0.0
C2497 C 0.23849 0.79149 0.70725 0.0
C2498 C 0.27411 0.80283 0.66265 0.0
C2499 C 0.31058 0.84035 0.68125 0.0
C2500 C 0.29566 0.82589 0.68541 0.0
C2501 C 0.24907 0.78819 0.69239 0.0
C2502 C 0.26562 0.80027 0.69088 0.0
H2503 H 0.32616 0.87902 0.69068 0.0
H2504 H 0.3025 0.85499 0.70123 0.0
H2505 H 0.29503 0.81759 0.6375 0.0
H2506 H 0.22383 0.75163 0.66721 0.0
H2507 H 0.25145 0.7707 0.66667 0.0
C2508 C 0.23351 0.46124 0.71216 0.0
C2509 C 0.2375 0.45535 0.68577 0.0
C2510 C 0.22195 0.46511 0.70959 0.0
C2511 C 0.20037 0.47577 0.65634 0.0
H2512 H 0.16497 0.45057 0.70985 0.0
C2513 C 0.14163 0.47149 0.63389 0.0
C2514 C 0.13171 0.46883 0.65967 0.0
C2515 C 0.15533 0.47123 0.63811 0.0
C2516 C 0.17483 0.45799 0.6952 0.0
H2517 H 0.23322 0.44959 0.63577 0.0
H2518 H 0.2133 0.45695 0.63095 0.0
H2519 H 0.18828 0.4489 0.71542 0.0
H2520 H 0.12833 0.46418 0.71009 0.0
H2521 H 0.15264 0.46447 0.71813 0.0
H2522 H 0.18724 0.48524 0.6366 0.0
C2523 C 0.21904 0.4584 0.65361 0.0
C2524 C 0.18815 0.45694 0.69832 0.0
C2525 C 0.23037 0.4542 0.65635 0.0
C2526 C 0.13579 0.46612 0.68987 0.0
C2527 C 0.14968 0.46621 0.69431 0.0
C2528 C 0.18717 0.4771 0.65367 0.0
C2529 C 0.21444 0.46346 0.68044 0.0
C2530 C 0.20093 0.46565 0.67864 0.0
C2531 C 0.1596 0.46863 0.66841 0.0
C2532 C 0.17409 0.46803 0.6727 0.0
H2533 H 0.23871 0.46202 0.73519 0.0
H2534 H 0.21856 0.46899 0.73055 0.0
H2535 H 0.21016 0.48265 0.64103 0.0
H2536 H 0.13858 0.47339 0.61027 0.0
H2537 H 0.16237 0.47276 0.61739 0.0
C2538 C 0.32601 0.84938 0.16957 0.0
C2539 C 0.32481 0.86252 0.16278 0.0
C2540 C 0.33975 0.84936 0.1639 0.0
C2541 C 0.37627 0.86903 0.11935 0.0
H2542 H 0.3932 0.85761 0.19047 0.0
C2543 C 0.44069 0.89043 0.12972 0.0
C2544 C 0.44578 0.88084 0.14289 0.0
C2545 C 0.4251 0.88592 0.12955 0.0
C2546 C 0.38853 0.86054 0.17014 0.0
H2547 H 0.33715 0.88576 0.14357 0.0
H2548 H 0.36092 0.88557 0.13317 0.0
H2549 H 0.36715 0.85369 0.19399 0.0
H2550 H 0.43838 0.85878 0.16559 0.0
H2551 H 0.41089 0.85075 0.16497 0.0
H2552 H 0.39765 0.87606 0.0956 0.0
C2553 C 0.35118 0.87529 0.14291 0.0
C2554 C 0.37361 0.85833 0.17218 0.0
C2555 C 0.33751 0.87538 0.14887 0.0
C2556 C 0.43481 0.86643 0.15536 0.0
C2557 C 0.4191 0.86189 0.15517 0.0
C2558 C 0.39111 0.87114 0.1172 0.0
C2559 C 0.35253 0.86238 0.15088 0.0
C2560 C 0.36751 0.86293 0.14713 0.0
C2561 C 0.4141 0.87162 0.14227 0.0
C2562 C 0.39759 0.86734 0.14292 0.0
H2563 H 0.31641 0.83912 0.17958 0.0
H2564 H 0.34042 0.83918 0.16986 0.0
H2565 H 0.37174 0.87243 0.09947 0.0
H2566 H 0.44877 0.90145 0.11923 0.0
H2567 H 0.42172 0.89382 0.11987 0.0
C2568 C 0.1416 0.47512 0.19386 0.0
C2569 C 0.13306 0.46195 0.17482 0.0
C2570 C 0.14068 0.48845 0.18885 0.0
C2571 C 0.11422 0.50029 0.15657 0.0
H2572 H 0.14944 0.54177 0.15896 0.0
C2573 C 0.10755 0.55174 0.12268 0.0
C2574 C 0.11475 0.56494 0.14194 0.0
C2575 C 0.1112 0.54009 0.12576 0.0
C2576 C 0.13949 0.53026 0.15857 0.0
H2577 H 0.1175 0.45281 0.1346 0.0
H2578 H 0.11581 0.47599 0.12603 0.0
H2579 H 0.15327 0.5196 0.16579 0.0
H2580 H 0.13193 0.57673 0.17848 0.0
H2581 H 0.1382 0.55605 0.18447 0.0
H2582 H 0.10038 0.51075 0.14986 0.0
C2583 C 0.12302 0.4759 0.14515 0.0
C2584 C 0.14169 0.51758 0.16241 0.0
C2585 C 0.12397 0.46262 0.15009 0.0
C2586 C 0.12621 0.56661 0.16346 0.0
C2587 C 0.1298 0.55481 0.16678 0.0
C2588 C 0.11203 0.51289 0.1529 0.0
C2589 C 0.13116 0.48888 0.1648 0.0
C2590 C 0.12907 0.50246 0.16111 0.0
C2591 C 0.12205 0.54126 0.14841 0.0
C2592 C 0.12463 0.52803 0.15347 0.0
H2593 H 0.14857 0.475 0.21338 0.0
H2594 H 0.14697 0.49822 0.20456 0.0
H2595 H 0.10422 0.4888 0.15623 0.0
H2596 H 0.09892 0.55035 0.10538 0.0
H2597 H 0.10535 0.53004 0.11058 0.0
C2598 C 0.43732 0.55733 0.13366 0.0
C2599 C 0.42772 0.5482 0.15851 0.0
C2600 C 0.4493 0.57224 0.13943 0.0
C2601 C 0.47419 0.59784 0.20356 0.0
H2602 H 0.48561 0.62885 0.13765 0.0
C2603 C 0.52334 0.66174 0.21529 0.0
C2604 C 0.5341 0.66684 0.19027 0.0
C2605 C 0.50966 0.64757 0.21324 0.0
C2606 C 0.48254 0.62028 0.15621 0.0
H2607 H 0.42311 0.54753 0.20901 0.0
H2608 H 0.44396 0.57394 0.21917 0.0
H2609 H 0.46233 0.60384 0.13151 0.0
H2610 H 0.53904 0.6613 0.14358 0.0
H2611 H 0.5149 0.6366 0.13961 0.0
H2612 H 0.49442 0.61459 0.22837 0.0
C2613 C 0.44232 0.56942 0.1952 0.0
C2614 C 0.46925 0.60593 0.1527 0.0
C2615 C 0.43035 0.55434 0.18942 0.0
C2616 C 0.53093 0.65756 0.16316 0.0
C2617 C 0.51713 0.64354 0.16085 0.0
C2618 C 0.48738 0.61233 0.20728 0.0
C2619 C 0.45196 0.57854 0.17022 0.0
C2620 C 0.4651 0.59437 0.17593 0.0
C2621 C 0.50639 0.63842 0.18589 0.0
C2622 C 0.49183 0.62353 0.1833 0.0
H2623 H 0.43584 0.55279 0.10971 0.0
H2624 H 0.45672 0.57868 0.11975 0.0
H2625 H 0.47146 0.58921 0.22178 0.0
H2626 H 0.52562 0.66862 0.23661 0.0
H2627 H 0.50154 0.64386 0.23283 0.0
C2628 C 0.14964 0.66949 0.6765 0.0
C2629 C 0.13635 0.67038 0.66928 0.0
C2630 C 0.14975 0.65567 0.67271 0.0
C2631 C 0.13097 0.61876 0.63044 0.0
H2632 H 0.14281 0.6029 0.70282 0.0
C2633 C 0.1309 0.56127 0.62458 0.0
C2634 C 0.12194 0.55078 0.64848 0.0
C2635 C 0.13525 0.57684 0.62712 0.0
C2636 C 0.13958 0.60725 0.68238 0.0
H2637 H 0.11287 0.65714 0.65133 0.0
H2638 H 0.11332 0.63336 0.64407 0.0
H2639 H 0.14523 0.62846 0.70581 0.0
H2640 H 0.11122 0.5484 0.69448 0.0
H2641 H 0.11906 0.57572 0.69921 0.0
H2642 H 0.12507 0.59748 0.60718 0.0
C2643 C 0.1236 0.64341 0.65286 0.0
C2644 C 0.14104 0.62188 0.68401 0.0
C2645 C 0.12339 0.65714 0.65707 0.0
C2646 C 0.11812 0.55628 0.67574 0.0
C2647 C 0.12266 0.57189 0.67849 0.0
C2648 C 0.12973 0.60425 0.62864 0.0
C2649 C 0.1367 0.64249 0.66102 0.0
C2650 C 0.13648 0.62764 0.65826 0.0
C2651 C 0.1309 0.58223 0.65381 0.0
C2652 C 0.13378 0.59825 0.65478 0.0
H2653 H 0.16001 0.67942 0.68522 0.0
H2654 H 0.16007 0.6553 0.67882 0.0
H2655 H 0.12746 0.62297 0.6102 0.0
H2656 H 0.13386 0.5573 0.60317 0.0
H2657 H 0.14168 0.58461 0.60785 0.0
C2658 C 0.43849 0.56597 0.65874 0.0
C2659 C 0.44837 0.56429 0.63746 0.0
C2660 C 0.42309 0.5542 0.66179 0.0
C2661 C 0.399 0.51233 0.64816 0.0
H2662 H 0.3645 0.51912 0.66083 0.0
C2663 C 0.33691 0.46182 0.64894 0.0
C2664 C 0.32737 0.46157 0.67372 0.0
C2665 C 0.35102 0.47508 0.64286 0.0
C2666 C 0.37406 0.51708 0.6575 0.0
H2667 H 0.44973 0.54971 0.60101 0.0
H2668 H 0.42295 0.52943 0.60581 0.0
H2669 H 0.39046 0.54124 0.65335 0.0
H2670 H 0.3251 0.47527 0.71111 0.0
H2671 H 0.34973 0.49841 0.7004 0.0
H2672 H 0.38276 0.48827 0.65237 0.0
C2673 C 0.42711 0.53949 0.62097 0.0
C2674 C 0.3889 0.52972 0.65328 0.0
C2675 C 0.44243 0.55111 0.61814 0.0
C2676 C 0.33205 0.47509 0.69159 0.0
C2677 C 0.34618 0.48837 0.68549 0.0
C2678 C 0.38423 0.49975 0.65225 0.0
C2679 C 0.41735 0.54068 0.64339 0.0
C2680 C 0.40153 0.52746 0.64836 0.0
C2681 C 0.35595 0.48841 0.66144 0.0
C2682 C 0.37157 0.50195 0.65681 0.0
H2683 H 0.44283 0.57606 0.67382 0.0
H2684 H 0.41586 0.55545 0.67933 0.0
H2685 H 0.40851 0.51017 0.64524 0.0
H2686 H 0.33351 0.45171 0.63436 0.0
H2687 H 0.35817 0.47484 0.62375 0.0
C2688 C 0.42959 0.8747 0.6862 0.0
C2689 C 0.42677 0.87815 0.65537 0.0
C2690 C 0.44162 0.87163 0.69166 0.0
C2691 C 0.46794 0.86154 0.64861 0.0
H2692 H 0.49428 0.87906 0.7224 0.0
C2693 C 0.52911 0.86999 0.65589 0.0
C2694 C 0.53296 0.8651 0.68397 0.0
C2695 C 0.5154 0.87041 0.65392 0.0
C2696 C 0.48692 0.87397 0.70185 0.0
H2697 H 0.43472 0.88168 0.6064 0.0
H2698 H 0.45559 0.87659 0.61587 0.0
H2699 H 0.47133 0.88155 0.7167 0.0
H2700 H 0.52575 0.85729 0.73236 0.0
H2701 H 0.50182 0.85816 0.729 0.0
H2702 H 0.48384 0.85445 0.63325 0.0
C2703 C 0.44828 0.87568 0.63573 0.0
C2704 C 0.47374 0.87533 0.69865 0.0
C2705 C 0.43628 0.87862 0.63029 0.0
C2706 C 0.52294 0.86087 0.71024 0.0
C2707 C 0.50934 0.8615 0.70844 0.0
C2708 C 0.48118 0.86034 0.65165 0.0
C2709 C 0.4511 0.87209 0.66641 0.0
C2710 C 0.46423 0.86936 0.67168 0.0
C2711 C 0.5054 0.86619 0.6802 0.0
C2712 C 0.49092 0.86674 0.67804 0.0
H2713 H 0.42245 0.87426 0.70598 0.0
H2714 H 0.44343 0.86883 0.71556 0.0
H2715 H 0.46069 0.85646 0.62792 0.0
H2716 H 0.53664 0.87328 0.63535 0.0
H2717 H 0.51269 0.87422 0.63196 0.0
C2718 C 0.22646 0.45952 0.20842 0.0
C2719 C 0.21637 0.45402 0.18237 0.0
C2720 C 0.24176 0.46304 0.2051 0.0
C2721 C 0.26567 0.45372 0.15207 0.0
H2722 H 0.29916 0.48354 0.20472 0.0
C2723 C 0.32904 0.46999 0.1343 0.0
C2724 C 0.33635 0.4683 0.16127 0.0
C2725 C 0.31478 0.46919 0.137 0.0
C2726 C 0.28985 0.47514 0.19002 0.0
H2727 H 0.21437 0.44872 0.13213 0.0
H2728 H 0.24134 0.45577 0.12563 0.0
H2729 H 0.27392 0.48176 0.20741 0.0
H2730 H 0.33468 0.46465 0.21219 0.0
H2731 H 0.30967 0.4636 0.21714 0.0
H2732 H 0.28183 0.4475 0.13408 0.0
C2733 C 0.23739 0.45679 0.149 0.0
C2734 C 0.27538 0.47406 0.19157 0.0
C2735 C 0.222 0.45295 0.15252 0.0
C2736 C 0.32921 0.46595 0.19112 0.0
C2737 C 0.31503 0.46545 0.19393 0.0
C2738 C 0.28018 0.45503 0.15011 0.0
C2739 C 0.24735 0.46136 0.17549 0.0
C2740 C 0.26305 0.46326 0.17273 0.0
C2741 C 0.30766 0.46693 0.16681 0.0
C2742 C 0.29236 0.46567 0.16918 0.0
H2743 H 0.22226 0.46019 0.23179 0.0
H2744 H 0.24894 0.46631 0.22616 0.0
H2745 H 0.25644 0.44497 0.13782 0.0
H2746 H 0.33423 0.47163 0.11097 0.0
H2747 H 0.30931 0.47038 0.11579 0.0
C2748 C 0.52894 0.85821 0.18779 0.0
C2749 C 0.5255 0.86308 0.15917 0.0
C2750 C 0.529 0.84428 0.18913 0.0
C2751 C 0.53737 0.81954 0.14224 0.0
H2752 H 0.51233 0.7869 0.20179 0.0
C2753 C 0.54202 0.76465 0.14706 0.0
C2754 C 0.54133 0.75838 0.17724 0.0
C2755 C 0.53764 0.7758 0.14293 0.0
C2756 C 0.51957 0.79596 0.18528 0.0
H2757 H 0.51971 0.85747 0.10945 0.0
H2758 H 0.52029 0.8333 0.11157 0.0
H2759 H 0.51002 0.81004 0.19958 0.0
H2760 H 0.53542 0.75857 0.22669 0.0
H2761 H 0.52846 0.77843 0.22005 0.0
H2762 H 0.54768 0.80617 0.12907 0.0
C2763 C 0.5226 0.84011 0.13303 0.0
C2764 C 0.51815 0.80915 0.18395 0.0
C2765 C 0.52219 0.85384 0.13188 0.0
C2766 C 0.53579 0.76307 0.20306 0.0
C2767 C 0.53176 0.77446 0.19913 0.0
C2768 C 0.53907 0.80654 0.14404 0.0
C2769 C 0.526 0.83523 0.16165 0.0
C2770 C 0.52708 0.82105 0.1625 0.0
C2771 C 0.53291 0.78123 0.16912 0.0
C2772 C 0.53026 0.79457 0.16571 0.0
H2773 H 0.53152 0.86519 0.20904 0.0
H2774 H 0.53177 0.84076 0.21139 0.0
H2775 H 0.54447 0.82867 0.12569 0.0
H2776 H 0.54628 0.76117 0.12683 0.0
H2777 H 0.53832 0.78038 0.11928 0.0
C2778 C 0.14279 0.66889 0.12874 0.0
C2779 C 0.1329 0.6632 0.15521 0.0
C2780 C 0.15641 0.68314 0.13027 0.0
C2781 C 0.18474 0.71072 0.18624 0.0
H2782 H 0.19323 0.74143 0.12111 0.0
C2783 C 0.22794 0.77446 0.20693 0.0
C2784 C 0.23713 0.78368 0.18169 0.0
C2785 C 0.21635 0.75931 0.20169 0.0
C2786 C 0.19121 0.73291 0.13917 0.0
H2787 H 0.12952 0.66776 0.20396 0.0
H2788 H 0.15348 0.69263 0.20688 0.0
H2789 H 0.17079 0.71561 0.11587 0.0
H2790 H 0.24131 0.78423 0.131 0.0
H2791 H 0.22103 0.75746 0.12174 0.0
H2792 H 0.20509 0.72784 0.20956 0.0
C2793 C 0.15067 0.68607 0.18497 0.0
C2794 C 0.17833 0.71815 0.13622 0.0
C2795 C 0.13695 0.67193 0.18329 0.0
C2796 C 0.2344 0.77738 0.1509 0.0
C2797 C 0.22278 0.76209 0.14563 0.0
C2798 C 0.19769 0.72538 0.18902 0.0
C2799 C 0.16049 0.69184 0.15842 0.0
C2800 C 0.1748 0.70704 0.16009 0.0
C2801 C 0.21362 0.75288 0.17104 0.0
C2802 C 0.20088 0.73679 0.16594 0.0
H2803 H 0.13983 0.66251 0.10662 0.0
H2804 H 0.16379 0.68731 0.1095 0.0
H2805 H 0.18243 0.70227 0.20468 0.0
H2806 H 0.22945 0.77908 0.23081 0.0
H2807 H 0.20926 0.75276 0.22167 0.0
C2808 C 0.21718 0.18674 0.15549 0.0
C2809 C 0.23097 0.19624 0.1391 0.0
C2810 C 0.2141 0.19143 0.1845 0.0
C2811 C 0.22423 0.22545 0.23422 0.0
H2812 H 0.20645 0.195 0.30158 0.0
C2813 C 0.21179 0.24023 0.36042 0.0
C2814 C 0.19747 0.22952 0.37356 0.0
C2815 C 0.21712 0.23666 0.33268 0.0
C2816 C 0.21131 0.20361 0.28296 0.0
H2817 H 0.25224 0.21825 0.13994 0.0
H2818 H 0.24684 0.22648 0.19083 0.0
H2819 H 0.21327 0.18802 0.2511 0.0
H2820 H 0.17757 0.20663 0.3682 0.0
H2821 H 0.18677 0.20049 0.31992 0.0
H2822 H 0.22204 0.24097 0.26603 0.0
C2823 C 0.2384 0.21541 0.18111 0.0
C2824 C 0.21521 0.19961 0.25402 0.0
C2825 C 0.24151 0.21068 0.15204 0.0
C2826 C 0.18868 0.21513 0.35871 0.0
C2827 C 0.194 0.21156 0.33112 0.0
C2828 C 0.22029 0.22945 0.26322 0.0
C2829 C 0.22473 0.20575 0.19781 0.0
C2830 C 0.22149 0.2104 0.22915 0.0
C2831 C 0.20825 0.2223 0.31767 0.0
C2832 C 0.21356 0.2185 0.28774 0.0
H2833 H 0.20878 0.17557 0.14608 0.0
H2834 H 0.20334 0.18384 0.19648 0.0
H2835 H 0.22896 0.23399 0.21543 0.0
H2836 H 0.21883 0.25141 0.37136 0.0
H2837 H 0.22822 0.24512 0.32308 0.0
C2838 C 0.78539 0.02759 0.14866 0.0
C2839 C 0.79982 0.03161 0.13545 0.0
C2840 C 0.78029 0.01867 0.1764 0.0
C2841 C 0.78716 0.99212 0.22622 0.0
H2842 H 0.76817 0.00362 0.29316 0.0
C2843 C 0.78056 0.96871 0.35354 0.0
C2844 C 0.76653 0.96403 0.36931 0.0
C2845 C 0.78378 0.9766 0.32463 0.0
C2846 C 0.77329 0.00015 0.27454 0.0
H2847 H 0.82015 0.02935 0.14078 0.0
H2848 H 0.81136 0.01399 0.18912 0.0
H2849 H 0.77507 0.01773 0.24283 0.0
H2850 H 0.74496 0.96416 0.36738 0.0
H2851 H 0.7506 0.97799 0.31672 0.0
H2852 H 0.78558 0.97469 0.258 0.0
C2853 C 0.80386 0.01751 0.17793 0.0
C2854 C 0.77722 0.00822 0.24568 0.0
C2855 C 0.80895 0.02641 0.15029 0.0
C2856 C 0.75588 0.96763 0.35579 0.0
C2857 C 0.75913 0.97559 0.32686 0.0
C2858 C 0.78327 0.9841 0.25504 0.0
C2859 C 0.7895 0.01357 0.19141 0.0
C2860 C 0.78438 0.00441 0.22133 0.0
C2861 C 0.77306 0.98004 0.31082 0.0
C2862 C 0.77647 0.98814 0.27968 0.0
H2863 H 0.77809 0.03142 0.13772 0.0
H2864 H 0.7691 0.0157 0.18599 0.0
H2865 H 0.79237 0.98868 0.20774 0.0
H2866 H 0.78904 0.96616 0.36338 0.0
H2867 H 0.79473 0.98009 0.31316 0.0
C2868 C 0.03026 0.81104 0.34885 0.0
C2869 C 0.03405 0.8014 0.36621 0.0
C2870 C 0.02277 0.80629 0.31957 0.0
C2871 C 0.99864 0.77222 0.27043 0.0
H2872 H 0.01295 0.80221 0.20195 0.0
C2873 C 0.97152 0.75747 0.14421 0.0
C2874 C 0.96847 0.76853 0.1308 0.0
C2875 C 0.98055 0.7609 0.17172 0.0
C2876 C 0.00875 0.79372 0.22086 0.0
H2877 H 0.03266 0.77908 0.36684 0.0
H2878 H 0.01946 0.77074 0.31552 0.0
H2879 H 0.02632 0.80911 0.25291 0.0
H2880 H 0.9727 0.79193 0.13532 0.0
H2881 H 0.98827 0.79783 0.18313 0.0
H2882 H 0.98086 0.75692 0.23849 0.0
C2883 C 0.0223 0.78197 0.32467 0.0
C2884 C 0.01641 0.79768 0.25006 0.0
C2885 C 0.02988 0.78676 0.35399 0.0
C2886 C 0.97487 0.78315 0.145 0.0
C2887 C 0.98389 0.78658 0.17235 0.0
C2888 C 0.99093 0.76826 0.24117 0.0
C2889 C 0.01884 0.79178 0.30698 0.0
C2890 C 0.01128 0.78708 0.27535 0.0
C2891 C 0.98675 0.77547 0.18621 0.0
C2892 C 0.99574 0.77907 0.21624 0.0
H2893 H 0.03325 0.82237 0.35766 0.0
H2894 H 0.02001 0.814 0.30679 0.0
H2895 H 0.99437 0.76383 0.28953 0.0
H2896 H 0.96672 0.74609 0.13379 0.0
H2897 H 0.98266 0.75214 0.18166 0.0
C2898 C 0.75816 0.78402 0.85497 0.0
C2899 C 0.76808 0.79866 0.86789 0.0
C2900 C 0.7619 0.77947 0.82642 0.0
C2901 C 0.78532 0.79608 0.75422 0.0
H2902 H 0.77891 0.75495 0.74094 0.0
C2903 C 0.81042 0.78105 0.64605 0.0
C2904 C 0.80134 0.7667 0.63125 0.0
C2905 C 0.80568 0.78451 0.67458 0.0
C2906 C 0.78058 0.76641 0.74415 0.0
H2907 H 0.78994 0.81979 0.8617 0.0
H2908 H 0.79653 0.81181 0.8122 0.0
H2909 H 0.77219 0.76162 0.79212 0.0
H2910 H 0.7801 0.74474 0.63458 0.0
H2911 H 0.77172 0.75086 0.68445 0.0
H2912 H 0.7937 0.80092 0.7064 0.0
C2913 C 0.78574 0.80394 0.82376 0.0
C2914 C 0.77675 0.77024 0.77347 0.0
C2915 C 0.78201 0.80847 0.85225 0.0
C2916 C 0.78734 0.7559 0.64546 0.0
C2917 C 0.7826 0.75936 0.67411 0.0
C2918 C 0.78911 0.79226 0.72496 0.0
C2919 C 0.77562 0.78949 0.81024 0.0
C2920 C 0.77924 0.78517 0.77893 0.0
C2921 C 0.79174 0.77371 0.68901 0.0
C2922 C 0.78694 0.77744 0.71966 0.0
H2923 H 0.74733 0.77621 0.86648 0.0
H2924 H 0.75384 0.7683 0.81653 0.0
H2925 H 0.78706 0.80758 0.75742 0.0
H2926 H 0.82129 0.78961 0.63575 0.0
H2927 H 0.81311 0.79558 0.68564 0.0
C2928 C 0.21885 0.02829 0.64873 0.0
C2929 C 0.23324 0.03375 0.63394 0.0
C2930 C 0.21541 0.01995 0.67708 0.0
C2931 C 0.23338 0.01257 0.74647 0.0
H2932 H 0.19211 0.97796 0.75894 0.0
C2933 C 0.21455 0.97241 0.85782 0.0
C2934 C 0.19986 0.968 0.87014 0.0
C2935 C 0.21947 0.98066 0.82919 0.0
C2936 C 0.20365 0.98769 0.75596 0.0
H2937 H 0.25529 0.03467 0.63719 0.0
H2938 H 0.2492 0.01992 0.68678 0.0
H2939 H 0.19904 0.99139 0.70809 0.0
H2940 H 0.17907 0.96926 0.8628 0.0
H2941 H 0.18769 0.98369 0.81328 0.0
H2942 H 0.23792 0.0088 0.79455 0.0
C2943 C 0.24065 0.02225 0.67654 0.0
C2944 C 0.20763 0.99539 0.72679 0.0
C2945 C 0.2441 0.03061 0.64805 0.0
C2946 C 0.19041 0.97239 0.85385 0.0
C2947 C 0.19531 0.98057 0.82532 0.0
C2948 C 0.2294 0.00482 0.77572 0.0
C2949 C 0.22625 0.01683 0.69138 0.0
C2950 C 0.22246 0.00806 0.72181 0.0
C2951 C 0.20977 0.98458 0.81234 0.0
C2952 C 0.21441 0.99243 0.78093 0.0
H2953 H 0.21024 0.03056 0.63855 0.0
H2954 H 0.2043 0.01617 0.6881 0.0
H2955 H 0.24486 0.02237 0.74351 0.0
H2956 H 0.22208 0.96917 0.86984 0.0
H2957 H 0.23067 0.98354 0.81975 0.0
C2958 C 0.02822 0.24428 0.85738 0.0
C2959 C 0.03008 0.23258 0.8715 0.0
C2960 C 0.0198 0.24143 0.8291 0.0
C2961 C 0.99122 0.20948 0.77862 0.0
H2962 H 0.00859 0.23907 0.70964 0.0
C2963 C 0.97176 0.19213 0.65003 0.0
C2964 C 0.96825 0.20183 0.63215 0.0
C2965 C 0.97929 0.197 0.67923 0.0
C2966 C 0.00353 0.23078 0.72881 0.0
H2967 H 0.02429 0.20867 0.86754 0.0
H2968 H 0.00981 0.20376 0.81851 0.0
H2969 H 0.021 0.2455 0.76195 0.0
H2970 H 0.97047 0.2245 0.63019 0.0
H2971 H 0.9838 0.23308 0.68136 0.0
H2972 H 0.97399 0.19463 0.74543 0.0
C2973 C 0.01466 0.21508 0.82924 0.0
C2974 C 0.01058 0.23447 0.75878 0.0
C2975 C 0.02307 0.21793 0.8573 0.0
C2976 C 0.97301 0.21677 0.64346 0.0
C2977 C 0.98065 0.22169 0.6727 0.0
C2978 C 0.98425 0.20577 0.74874 0.0
C2979 C 0.01302 0.22681 0.81462 0.0
C2980 C 0.00467 0.22372 0.78384 0.0
C2981 C 0.98354 0.2117 0.69119 0.0
C2982 C 0.99049 0.21625 0.72335 0.0
H2983 H 0.03354 0.25569 0.86779 0.0
H2984 H 0.01863 0.25066 0.81854 0.0
H2985 H 0.98618 0.20107 0.79759 0.0
H2986 H 0.96832 0.18058 0.64192 0.0
H2987 H 0.98163 0.18916 0.69268 0.0
C2988 C 0.88367 0.52237 0.48524 0.0
C2989 C 0.89763 0.53198 0.46948 0.0
C2990 C 0.88035 0.52683 0.51429 0.0
C2991 C 0.89073 0.56049 0.56576 0.0
H2992 H 0.87238 0.52943 0.63187 0.0
C2993 C 0.88022 0.57511 0.69328 0.0
C2994 C 0.86581 0.56483 0.70669 0.0
C2995 C 0.88503 0.5713 0.66515 0.0
C2996 C 0.87739 0.53821 0.61359 0.0
H2997 H 0.91893 0.55395 0.47144 0.0
H2998 H 0.91314 0.56173 0.52236 0.0
H2999 H 0.87872 0.52265 0.58062 0.0
H3000 H 0.84529 0.54237 0.70159 0.0
H3001 H 0.8536 0.53578 0.65257 0.0
H3002 H 0.88926 0.57602 0.59871 0.0
C3003 C 0.90472 0.55079 0.51212 0.0
C3004 C 0.88101 0.53432 0.5842 0.0
C3005 C 0.90806 0.54631 0.48301 0.0
C3006 C 0.85647 0.55054 0.69186 0.0
C3007 C 0.86127 0.54672 0.66383 0.0
C3008 C 0.88709 0.56439 0.59519 0.0
C3009 C 0.89091 0.541 0.52827 0.0
C3010 C 0.88757 0.54536 0.55983 0.0
C3011 C 0.87555 0.55711 0.64997 0.0
C3012 C 0.88024 0.55325 0.61934 0.0
H3013 H 0.87536 0.51129 0.47534 0.0
H3014 H 0.86949 0.51915 0.52583 0.0
H3015 H 0.89564 0.56922 0.54737 0.0
H3016 H 0.88769 0.5862 0.7042 0.0
H3017 H 0.89617 0.57947 0.65527 0.0
C3018 C 0.47613 0.36254 0.48597 0.0
C3019 C 0.46676 0.36722 0.47029 0.0
C3020 C 0.4716 0.35481 0.51505 0.0
C3021 C 0.43806 0.33208 0.56707 0.0
H3022 H 0.46943 0.34432 0.63235 0.0
C3023 C 0.42404 0.30636 0.69434 0.0
C3024 C 0.43437 0.30214 0.70715 0.0
C3025 C 0.4277 0.3151 0.66638 0.0
C3026 C 0.46055 0.34068 0.61431 0.0
H3027 H 0.44509 0.36712 0.47242 0.0
H3028 H 0.43713 0.35358 0.52347 0.0
H3029 H 0.47605 0.35756 0.58123 0.0
H3030 H 0.45675 0.304 0.70106 0.0
H3031 H 0.4631 0.31913 0.65236 0.0
H3032 H 0.42261 0.31506 0.60012 0.0
C3033 C 0.44797 0.35586 0.51311 0.0
C3034 C 0.46435 0.34826 0.585 0.0
C3035 C 0.45254 0.36364 0.48393 0.0
C3036 C 0.44856 0.30711 0.69185 0.0
C3037 C 0.45223 0.31585 0.66399 0.0
C3038 C 0.43426 0.32447 0.59644 0.0
C3039 C 0.45757 0.35156 0.52921 0.0
C3040 C 0.45321 0.34393 0.56087 0.0
C3041 C 0.4418 0.31984 0.65073 0.0
C3042 C 0.44552 0.32856 0.62027 0.0
H3043 H 0.48712 0.36502 0.476 0.0
H3044 H 0.47911 0.35138 0.52649 0.0
H3045 H 0.42925 0.32839 0.54889 0.0
H3046 H 0.41301 0.3027 0.7056 0.0
H3047 H 0.41949 0.31813 0.657 0.0
C3048 C 0.69372 0.14417 0.68998 0.0
C3049 C 0.69876 0.13493 0.70496 0.0
C3050 C 0.68543 0.13944 0.66156 0.0
C3051 C 0.66181 0.1055 0.6112 0.0
H3052 H 0.67268 0.1363 0.54512 0.0
C3053 C 0.63524 0.09037 0.48471 0.0
C3054 C 0.63104 0.10059 0.47124 0.0
C3055 C 0.64378 0.09419 0.51293 0.0
C3056 C 0.6694 0.12759 0.56342 0.0
H3057 H 0.69878 0.11332 0.70226 0.0
H3058 H 0.68429 0.10504 0.65237 0.0
H3059 H 0.68676 0.14344 0.59522 0.0
H3060 H 0.63249 0.12282 0.47671 0.0
H3061 H 0.64724 0.12942 0.52596 0.0
H3062 H 0.64435 0.08967 0.57938 0.0
C3063 C 0.6867 0.11592 0.66277 0.0
C3064 C 0.67747 0.13168 0.59215 0.0
C3065 C 0.69504 0.12068 0.69126 0.0
C3066 C 0.6356 0.11472 0.48643 0.0
C3067 C 0.64413 0.11854 0.51458 0.0
C3068 C 0.6537 0.1014 0.58242 0.0
C3069 C 0.68197 0.12535 0.64741 0.0
C3070 C 0.67368 0.12073 0.6165 0.0
C3071 C 0.64832 0.10833 0.5282 0.0
C3072 C 0.65731 0.11244 0.55831 0.0
H3073 H 0.69631 0.15518 0.70002 0.0
H3074 H 0.68172 0.14685 0.65065 0.0
H3075 H 0.65853 0.09683 0.6296 0.0
H3076 H 0.63191 0.0794 0.47351 0.0
H3077 H 0.64697 0.08614 0.5226 0.0
C3078 C 0.44713 0.14122 0.18441 0.0
C3079 C 0.43316 0.13241 0.20078 0.0
C3080 C 0.44989 0.136 0.15578 0.0
C3081 C 0.43873 0.10182 0.10641 0.0
H3082 H 0.45657 0.13215 0.03883 0.0
C3083 C 0.45147 0.08719 0.97999 0.0
C3084 C 0.46575 0.09804 0.96687 0.0
C3085 C 0.4461 0.09059 0.00789 0.0
C3086 C 0.4517 0.12356 0.0575 0.0
H3087 H 0.41132 0.11095 0.2005 0.0
H3088 H 0.41623 0.10173 0.15017 0.0
H3089 H 0.44989 0.13926 0.08926 0.0
H3090 H 0.48561 0.12092 0.97266 0.0
H3091 H 0.47636 0.12676 0.02122 0.0
H3092 H 0.44084 0.0862 0.07469 0.0
C3093 C 0.42501 0.11271 0.15966 0.0
C3094 C 0.44786 0.12764 0.08639 0.0
C3095 C 0.42219 0.11799 0.1884 0.0
C3096 C 0.47452 0.11233 0.98207 0.0
C3097 C 0.46916 0.11572 0.00984 0.0
C3098 C 0.44263 0.09774 0.07743 0.0
C3099 C 0.43878 0.12183 0.14279 0.0
C3100 C 0.44162 0.11692 0.11138 0.0
C3101 C 0.45489 0.10491 0.0231 0.0
C3102 C 0.44944 0.10867 0.05288 0.0
H3103 H 0.45587 0.15234 0.19339 0.0
H3104 H 0.46074 0.14315 0.14367 0.0
H3105 H 0.43397 0.09333 0.12529 0.0
H3106 H 0.44446 0.07607 0.96877 0.0
H3107 H 0.435 0.08206 0.01737 0.0
C3108 C 0.87903 0.30541 0.18862 0.0
C3109 C 0.86453 0.30126 0.20158 0.0
C3110 C 0.88378 0.31354 0.15988 0.0
C3111 C 0.8677 0.3208 0.08742 0.0
H3112 H 0.90919 0.35481 0.07387 0.0
C3113 C 0.88339 0.36143 0.98 0.0
C3114 C 0.8977 0.36659 0.9651 0.0
C3115 C 0.87979 0.35297 0.00821 0.0
C3116 C 0.89762 0.34519 0.07714 0.0
H3117 H 0.84386 0.30284 0.1952 0.0
H3118 H 0.85219 0.3171 0.14537 0.0
H3119 H 0.9023 0.34144 0.1251 0.0
H3120 H 0.91942 0.36677 0.96783 0.0
H3121 H 0.91306 0.35182 0.01716 0.0
H3122 H 0.86296 0.32451 0.03964 0.0
C3123 C 0.85979 0.31386 0.15707 0.0
C3124 C 0.89367 0.33756 0.1065 0.0
C3125 C 0.85507 0.30578 0.18575 0.0
C3126 C 0.90829 0.36295 0.9788 0.0
C3127 C 0.90469 0.35448 0.00714 0.0
C3128 C 0.87164 0.32839 0.05812 0.0
C3129 C 0.87409 0.31762 0.14353 0.0
C3130 C 0.8786 0.32541 0.11208 0.0
C3131 C 0.89041 0.34945 0.02223 0.0
C3132 C 0.88659 0.3408 0.05275 0.0
H3133 H 0.88657 0.30206 0.20027 0.0
H3134 H 0.89484 0.31621 0.14998 0.0
H3135 H 0.85608 0.31126 0.09071 0.0
H3136 H 0.875 0.36408 0.9701 0.0
H3137 H 0.86879 0.34948 0.01942 0.0
C3138 C 0.63254 0.54404 0.9812 0.0
C3139 C 0.6288 0.52952 0.96893 0.0
C3140 C 0.64029 0.54909 0.01031 0.0
C3141 C 0.64763 0.53414 0.08446 0.0
H3142 H 0.68248 0.57545 0.09469 0.0
C3143 C 0.69058 0.55 0.18713 0.0
C3144 C 0.69665 0.56454 0.20154 0.0
C3145 C 0.6813 0.54634 0.16016 0.0
C3146 C 0.67261 0.56396 0.09239 0.0
H3147 H 0.63044 0.509 0.97726 0.0
H3148 H 0.64395 0.51779 0.02778 0.0
H3149 H 0.66838 0.56804 0.04433 0.0
H3150 H 0.69758 0.58662 0.19926 0.0
H3151 H 0.68119 0.58018 0.15195 0.0
H3152 H 0.65189 0.52995 0.13225 0.0
C3153 C 0.64075 0.52522 0.01518 0.0
C3154 C 0.66456 0.55971 0.06353 0.0
C3155 C 0.63311 0.52023 0.98611 0.0
C3156 C 0.69305 0.57531 0.18865 0.0
C3157 C 0.68376 0.57166 0.16148 0.0
C3158 C 0.65563 0.53838 0.11326 0.0
C3159 C 0.64432 0.53964 0.02776 0.0
C3160 C 0.65217 0.54465 0.05906 0.0
C3161 C 0.67782 0.55713 0.14687 0.0
C3162 C 0.66841 0.55323 0.11737 0.0
H3163 H 0.62937 0.55146 0.96849 0.0
H3164 H 0.64283 0.56023 0.01946 0.0
H3165 H 0.63792 0.52255 0.082 0.0
H3166 H 0.69316 0.54144 0.19643 0.0
H3167 H 0.67714 0.53515 0.14925 0.0
C3168 C 0.54423 0.90576 0.02809 0.0
C3169 C 0.52965 0.89537 0.04067 0.0
C3170 C 0.54928 0.90231 0.99986 0.0
C3171 C 0.54196 0.86994 0.94657 0.0
H3172 H 0.56077 0.90175 0.882 0.0
C3173 C 0.54874 0.85542 0.8178 0.0
C3174 C 0.5629 0.86497 0.80267 0.0
C3175 C 0.54529 0.85972 0.84685 0.0
C3176 C 0.5557 0.8928 0.89993 0.0
H3177 H 0.50906 0.87311 0.03398 0.0
H3178 H 0.5178 0.86714 0.98477 0.0
H3179 H 0.55408 0.90796 0.93368 0.0
H3180 H 0.58436 0.88674 0.80559 0.0
H3181 H 0.57832 0.89427 0.85657 0.0
H3182 H 0.54343 0.85475 0.91283 0.0
C3183 C 0.52541 0.87788 0.99678 0.0
C3184 C 0.55189 0.89635 0.92954 0.0
C3185 C 0.52037 0.88134 0.0249 0.0
C3186 C 0.57335 0.87915 0.81669 0.0
C3187 C 0.56988 0.88348 0.84583 0.0
C3188 C 0.54575 0.86639 0.91702 0.0
C3189 C 0.53986 0.88838 0.98376 0.0
C3190 C 0.54482 0.88491 0.95306 0.0
C3191 C 0.55591 0.87367 0.86147 0.0
C3192 C 0.55248 0.87772 0.89323 0.0
H3193 H 0.55165 0.91666 0.03975 0.0
H3194 H 0.56055 0.91055 0.99062 0.0
H3195 H 0.53679 0.86094 0.96438 0.0
H3196 H 0.5404 0.84445 0.80749 0.0
H3197 H 0.5343 0.85206 0.85798 0.0
C3198 C 0.09233 0.63974 0.02335 0.0
C3199 C 0.10245 0.63534 0.03648 0.0
C3200 C 0.09602 0.64808 0.99486 0.0
C3201 C 0.12864 0.6722 0.94116 0.0
H3202 H 0.09688 0.65914 0.87653 0.0
C3203 C 0.14335 0.69295 0.81188 0.0
C3204 C 0.13385 0.69757 0.79657 0.0
C3205 C 0.139 0.68525 0.84103 0.0
C3206 C 0.10583 0.66303 0.89445 0.0
H3207 H 0.12455 0.63655 0.03059 0.0
H3208 H 0.13095 0.651 0.98095 0.0
H3209 H 0.0905 0.64669 0.92865 0.0
H3210 H 0.11212 0.69734 0.7993 0.0
H3211 H 0.10451 0.68391 0.85039 0.0
H3212 H 0.14399 0.68846 0.90697 0.0
C3213 C 0.12022 0.64814 0.9927 0.0
C3214 C 0.10217 0.65593 0.92433 0.0
C3215 C 0.11651 0.63979 0.02108 0.0
C3216 C 0.11966 0.69388 0.8105 0.0
C3217 C 0.11529 0.68617 0.83973 0.0
C3218 C 0.13229 0.67928 0.91132 0.0
C3219 C 0.10993 0.65222 0.97904 0.0
C3220 C 0.11358 0.66034 0.94792 0.0
C3221 C 0.12505 0.68201 0.85557 0.0
C3222 C 0.12097 0.67468 0.88751 0.0
H3223 H 0.08141 0.63649 0.03471 0.0
H3224 H 0.08795 0.65122 0.98516 0.0
H3225 H 0.13762 0.67605 0.95899 0.0
H3226 H 0.15433 0.69555 0.80168 0.0
H3227 H 0.14663 0.68193 0.85231 0.0
C3228 C 0.30338 0.44604 0.81786 0.0
C3229 C 0.29779 0.43179 0.80244 0.0
C3230 C 0.31217 0.44931 0.84554 0.0
C3231 C 0.32073 0.43092 0.91247 0.0
H3232 H 0.35474 0.47246 0.92557 0.0
C3233 C 0.36128 0.4506 0.0237 0.0
C3234 C 0.36446 0.46483 0.03674 0.0
C3235 C 0.35328 0.4455 0.99483 0.0
C3236 C 0.34522 0.46082 0.92233 0.0
H3237 H 0.29711 0.4098 0.80381 0.0
H3238 H 0.31265 0.41561 0.85219 0.0
H3239 H 0.34105 0.46567 0.87503 0.0
H3240 H 0.3613 0.48459 0.03031 0.0
H3241 H 0.34742 0.47571 0.98034 0.0
H3242 H 0.32498 0.42618 0.96008 0.0
C3243 C 0.31008 0.42418 0.84299 0.0
C3244 C 0.33736 0.45693 0.89338 0.0
C3245 C 0.30126 0.42089 0.81519 0.0
C3246 C 0.35914 0.47362 0.02085 0.0
C3247 C 0.35126 0.46858 0.99207 0.0
C3248 C 0.32867 0.43481 0.9415 0.0
C3249 C 0.31563 0.43844 0.85849 0.0
C3250 C 0.32481 0.44204 0.88831 0.0
C3251 C 0.34845 0.45461 0.97845 0.0
C3252 C 0.34079 0.4499 0.94693 0.0
H3253 H 0.30085 0.45465 0.80874 0.0
H3254 H 0.31601 0.4603 0.85714 0.0
H3255 H 0.31105 0.41937 0.90942 0.0
H3256 H 0.36525 0.44359 0.03543 0.0
H3257 H 0.35127 0.43467 0.98485 0.0
C3258 C 0.11548 0.47457 0.52082 0.0
C3259 C 0.10114 0.46588 0.53592 0.0
C3260 C 0.11897 0.46904 0.49342 0.0
C3261 C 0.1008 0.44224 0.42636 0.0
H3262 H 0.14228 0.4496 0.41329 0.0
C3263 C 0.11946 0.42094 0.3149 0.0
C3264 C 0.13378 0.4316 0.30165 0.0
C3265 C 0.11474 0.42405 0.34401 0.0
C3266 C 0.13067 0.44755 0.41649 0.0
H3267 H 0.07928 0.44447 0.53444 0.0
H3268 H 0.08544 0.43472 0.48655 0.0
H3269 H 0.13551 0.45658 0.46382 0.0
H3270 H 0.15423 0.45402 0.30811 0.0
H3271 H 0.14599 0.45945 0.35853 0.0
H3272 H 0.09604 0.4333 0.37878 0.0
C3273 C 0.09392 0.44589 0.49577 0.0
C3274 C 0.12678 0.45155 0.44545 0.0
C3275 C 0.09043 0.45143 0.5233 0.0
C3276 C 0.14315 0.44552 0.31773 0.0
C3277 C 0.13848 0.44859 0.34677 0.0
C3278 C 0.10468 0.4382 0.39734 0.0
C3279 C 0.10822 0.45468 0.48043 0.0
C3280 C 0.11189 0.4492 0.45056 0.0
C3281 C 0.12431 0.43784 0.36045 0.0
C3282 C 0.11975 0.44107 0.3919 0.0
H3283 H 0.12397 0.48577 0.5299 0.0
H3284 H 0.13 0.47622 0.48198 0.0
H3285 H 0.08925 0.4404 0.42941 0.0
H3286 H 0.112 0.4101 0.30306 0.0
H3287 H 0.10378 0.41551 0.35401 0.0
C3288 C 0.55224 0.69933 0.32268 0.0
C3289 C 0.56613 0.70374 0.30658 0.0
C3290 C 0.54939 0.69218 0.35239 0.0
C3291 C 0.56077 0.67005 0.40471 0.0
H3292 H 0.5411 0.68176 0.46982 0.0
C3293 C 0.54853 0.64339 0.53084 0.0
C3294 C 0.53372 0.63863 0.54286 0.0
C3295 C 0.55385 0.65264 0.5036 0.0
C3296 C 0.54651 0.67829 0.45184 0.0
H3297 H 0.58789 0.70399 0.30882 0.0
H3298 H 0.58291 0.69148 0.36091 0.0
H3299 H 0.5477 0.6951 0.41876 0.0
H3300 H 0.51306 0.6402 0.53639 0.0
H3301 H 0.52229 0.65624 0.48893 0.0
H3302 H 0.55936 0.65308 0.43765 0.0
C3303 C 0.57419 0.69349 0.35042 0.0
C3304 C 0.55028 0.68593 0.42256 0.0
C3305 C 0.57706 0.70069 0.32065 0.0
C3306 C 0.52454 0.64369 0.52773 0.0
C3307 C 0.52987 0.65296 0.5006 0.0
C3308 C 0.55698 0.6624 0.43401 0.0
C3309 C 0.56036 0.68926 0.36672 0.0
C3310 C 0.55725 0.68175 0.39849 0.0
C3311 C 0.5445 0.65737 0.48793 0.0
C3312 C 0.54962 0.66629 0.45776 0.0
H3313 H 0.54355 0.70146 0.31243 0.0
H3314 H 0.53851 0.68881 0.36403 0.0
H3315 H 0.56599 0.66646 0.38656 0.0
H3316 H 0.55588 0.63968 0.54201 0.0
H3317 H 0.56526 0.656 0.49467 0.0
C3318 C 0.30864 0.86196 0.31101 0.0
C3319 C 0.30173 0.86966 0.29671 0.0
C3320 C 0.31743 0.86775 0.33857 0.0
C3321 C 0.32301 0.89254 0.40779 0.0
H3322 H 0.35855 0.88747 0.42114 0.0
C3323 C 0.36119 0.91124 0.52281 0.0
C3324 C 0.36442 0.90002 0.53467 0.0
C3325 C 0.35381 0.90911 0.49337 0.0
C3326 C 0.34863 0.88893 0.41777 0.0
H3327 H 0.29885 0.8897 0.29972 0.0
H3328 H 0.31445 0.9 0.34798 0.0
H3329 H 0.34609 0.8817 0.36925 0.0
H3330 H 0.36206 0.87761 0.52545 0.0
H3331 H 0.34933 0.87398 0.47433 0.0
H3332 H 0.32564 0.89972 0.45664 0.0
C3333 C 0.3129 0.88935 0.33794 0.0
C3334 C 0.34147 0.88561 0.38807 0.0
C3335 C 0.30407 0.88352 0.31021 0.0
C3336 C 0.35978 0.8865 0.51699 0.0
C3337 C 0.35258 0.88446 0.48757 0.0
C3338 C 0.33029 0.89599 0.43755 0.0
C3339 C 0.31959 0.88145 0.35256 0.0
C3340 C 0.32832 0.88695 0.38292 0.0
C3341 C 0.34974 0.89583 0.47519 0.0
C3342 C 0.34291 0.89381 0.44302 0.0
H3343 H 0.30702 0.85122 0.30131 0.0
H3344 H 0.32216 0.8612 0.34944 0.0
H3345 H 0.31285 0.89361 0.4047 0.0
H3346 H 0.36464 0.92179 0.53592 0.0
H3347 H 0.35173 0.91805 0.48435 0.0
C3348 C 0.27341 0.19858 0.95367 0.0
C3349 C 0.27333 0.19778 0.98709 0.0
C3350 C 0.2873 0.20537 0.93677 0.0
C3351 C 0.32915 0.23239 0.94612 0.0
H3352 H 0.33226 0.21405 0.86718 0.0
C3353 C 0.38739 0.25286 0.88321 0.0
C3354 C 0.38784 0.25423 0.84987 0.0
C3355 C 0.37334 0.24592 0.89948 0.0
C3356 C 0.33154 0.21942 0.88899 0.0
H3357 H 0.28785 0.2034 0.02891 0.0
H3358 H 0.31208 0.2151 0.9994 0.0
H3359 H 0.30803 0.20198 0.89669 0.0
H3360 H 0.37379 0.24921 0.80746 0.0
H3361 H 0.3492 0.23712 0.83595 0.0
H3362 H 0.35266 0.2498 0.93848 0.0
C3363 C 0.30139 0.21067 0.98627 0.0
C3364 C 0.31764 0.21249 0.90593 0.0
C3365 C 0.28749 0.20389 0.0032 0.0
C3366 C 0.37386 0.24835 0.83315 0.0
C3367 C 0.35976 0.24135 0.84947 0.0
C3368 C 0.34304 0.2393 0.9292 0.0
C3369 C 0.30148 0.21152 0.95283 0.0
C3370 C 0.31627 0.21887 0.93476 0.0
C3371 C 0.35935 0.24012 0.88287 0.0
C3372 C 0.34443 0.23288 0.90047 0.0
H3373 H 0.26272 0.19405 0.94046 0.0
H3374 H 0.28692 0.206 0.91108 0.0
H3375 H 0.32845 0.23778 0.9679 0.0
H3376 H 0.39792 0.25721 0.89689 0.0
H3377 H 0.37345 0.24495 0.92514 0.0
C3378 C 0.79911 0.07606 0.95513 0.0
C3379 C 0.79942 0.07608 0.98858 0.0
C3380 C 0.79242 0.08336 0.93864 0.0
C3381 C 0.78064 0.11282 0.94739 0.0
H3382 H 0.75578 0.09289 0.87279 0.0
C3383 C 0.74342 0.13459 0.8861 0.0
C3384 C 0.74286 0.13439 0.85266 0.0
C3385 C 0.75062 0.12774 0.90243 0.0
C3386 C 0.76285 0.09871 0.89332 0.0
H3387 H 0.79297 0.0839 0.03095 0.0
H3388 H 0.78114 0.09654 0.00213 0.0
H3389 H 0.76757 0.08041 0.90205 0.0
H3390 H 0.74956 0.12691 0.81014 0.0
H3391 H 0.76222 0.11503 0.83869 0.0
H3392 H 0.77587 0.1311 0.93869 0.0
C3393 C 0.78624 0.09099 0.98864 0.0
C3394 C 0.7696 0.09155 0.91014 0.0
C3395 C 0.79294 0.08367 0.00518 0.0
C3396 C 0.74974 0.12723 0.83591 0.0
C3397 C 0.75693 0.12035 0.85228 0.0
C3398 C 0.77387 0.11998 0.93057 0.0
C3399 C 0.78585 0.09088 0.95515 0.0
C3400 C 0.77859 0.0985 0.9374 0.0
C3401 C 0.75743 0.1205 0.88577 0.0
C3402 C 0.76487 0.11301 0.90334 0.0
H3403 H 0.80404 0.07039 0.94153 0.0
H3404 H 0.79255 0.08325 0.91288 0.0
H3405 H 0.78768 0.11862 0.96796 0.0
H3406 H 0.73822 0.13996 0.8998 0.0
H3407 H 0.7506 0.12789 0.9282 0.0
C3408 C 0.86686 0.62426 0.83595 0.0
C3409 C 0.86541 0.61106 0.85109 0.0
C3410 C 0.87264 0.63818 0.85267 0.0
C3411 C 0.89877 0.66217 0.91122 0.0
H3412 H 0.87 0.67483 0.94013 0.0
C3413 C 0.91679 0.71071 0.00389 0.0
C3414 C 0.90994 0.71998 0.00291 0.0
C3415 C 0.91154 0.69784 0.98403 0.0
C3416 C 0.87831 0.67172 0.93179 0.0
H3417 H 0.86923 0.60217 0.8951 0.0
H3418 H 0.87983 0.62667 0.92384 0.0
H3419 H 0.86093 0.65208 0.90636 0.0
H3420 H 0.89245 0.72328 0.97989 0.0
H3421 H 0.88376 0.70133 0.94416 0.0
H3422 H 0.9163 0.68189 0.93555 0.0
C3423 C 0.87625 0.62611 0.89931 0.0
C3424 C 0.87304 0.65862 0.91259 0.0
C3425 C 0.87016 0.61213 0.8829 0.0
C3426 C 0.89784 0.71623 0.98141 0.0
C3427 C 0.8928 0.70355 0.96103 0.0
C3428 C 0.90413 0.67546 0.92985 0.0
C3429 C 0.87738 0.63917 0.88443 0.0
C3430 C 0.8832 0.65367 0.90251 0.0
C3431 C 0.89952 0.6941 0.96212 0.0
C3432 C 0.89394 0.68033 0.94085 0.0
H3433 H 0.86319 0.62372 0.81151 0.0
H3434 H 0.87342 0.64816 0.84084 0.0
H3435 H 0.90679 0.65852 0.90358 0.0
H3436 H 0.92606 0.71324 0.02043 0.0
H3437 H 0.91681 0.69072 0.98631 0.0
C3438 C 0.19522 0.27365 0.55415 0.0
C3439 C 0.19585 0.27331 0.52076 0.0
C3440 C 0.20196 0.28768 0.5705 0.0
C3441 C 0.21579 0.32933 0.56003 0.0
H3442 H 0.23839 0.33342 0.63777 0.0
C3443 C 0.25387 0.38815 0.62137 0.0
C3444 C 0.25368 0.38865 0.6548 0.0
C3445 C 0.24642 0.37406 0.60524 0.0
C3446 C 0.23196 0.33242 0.61633 0.0
H3447 H 0.20399 0.28752 0.47834 0.0
H3448 H 0.21587 0.31203 0.50691 0.0
H3449 H 0.22628 0.309 0.60906 0.0
H3450 H 0.24534 0.37465 0.69748 0.0
H3451 H 0.23224 0.35006 0.66931 0.0
H3452 H 0.22154 0.35279 0.56725 0.0
C3453 C 0.21002 0.30142 0.52045 0.0
C3454 C 0.22501 0.31841 0.59984 0.0
C3455 C 0.20328 0.28736 0.50407 0.0
C3456 C 0.24577 0.3747 0.67173 0.0
C3457 C 0.23833 0.36059 0.65557 0.0
C3458 C 0.22274 0.34335 0.57652 0.0
C3459 C 0.20949 0.30175 0.55389 0.0
C3460 C 0.21685 0.31669 0.57145 0.0
C3461 C 0.2386 0.36009 0.62212 0.0
C3462 C 0.23094 0.34508 0.60486 0.0
H3463 H 0.18954 0.26306 0.56779 0.0
H3464 H 0.20112 0.2875 0.59621 0.0
H3465 H 0.20939 0.32834 0.53853 0.0
H3466 H 0.25988 0.39866 0.60754 0.0
H3467 H 0.24705 0.37411 0.57951 0.0
C3468 C 0.62243 0.87321 0.6727 0.0
C3469 C 0.6084 0.8651 0.65616 0.0
C3470 C 0.63647 0.88012 0.65623 0.0
C3471 C 0.65406 0.87907 0.57926 0.0
H3472 H 0.68632 0.91991 0.60398 0.0
C3473 C 0.70907 0.91479 0.50332 0.0
C3474 C 0.72309 0.92321 0.51976 0.0
C3475 C 0.69505 0.90753 0.5199 0.0
C3476 C 0.67751 0.90843 0.59698 0.0
H3477 H 0.59816 0.85789 0.60931 0.0
H3478 H 0.62256 0.87002 0.58072 0.0
H3479 H 0.66209 0.9075 0.63334 0.0
H3480 H 0.73335 0.93047 0.56659 0.0
H3481 H 0.70903 0.91772 0.59535 0.0
H3482 H 0.66949 0.88001 0.54287 0.0
C3483 C 0.62275 0.87089 0.60642 0.0
C3484 C 0.6636 0.9013 0.61385 0.0
C3485 C 0.60874 0.86401 0.62284 0.0
C3486 C 0.72278 0.92414 0.55311 0.0
C3487 C 0.7088 0.9169 0.56964 0.0
C3488 C 0.66797 0.88619 0.56239 0.0
C3489 C 0.6368 0.87906 0.62287 0.0
C3490 C 0.6517 0.88654 0.6052 0.0
C3491 C 0.69475 0.90854 0.55327 0.0
C3492 C 0.67988 0.90096 0.57104 0.0
H3493 H 0.62259 0.87422 0.69837 0.0
H3494 H 0.64709 0.88616 0.66969 0.0
H3495 H 0.64523 0.8676 0.57223 0.0
H3496 H 0.70889 0.91386 0.47763 0.0
H3497 H 0.68444 0.90132 0.5065 0.0
C3498 C 0.08255 0.79389 0.50188 0.0
C3499 C 0.07497 0.80044 0.51824 0.0
C3500 C 0.0897 0.78709 0.51859 0.0
C3501 C 0.10526 0.78596 0.59797 0.0
H3502 H 0.1017 0.74793 0.5664 0.0
C3503 C 0.12609 0.75029 0.66992 0.0
C3504 C 0.13373 0.74404 0.65275 0.0
C3505 C 0.1189 0.75729 0.65398 0.0
C3506 C 0.10294 0.75863 0.57538 0.0
H3507 H 0.06897 0.80495 0.56507 0.0
H3508 H 0.08128 0.79295 0.59413 0.0
H3509 H 0.08929 0.75991 0.53762 0.0
H3510 H 0.13991 0.74037 0.60536 0.0
H3511 H 0.12751 0.75261 0.57774 0.0
H3512 H 0.11891 0.78464 0.63579 0.0
C3513 C 0.08189 0.79325 0.56839 0.0
C3514 C 0.09584 0.76551 0.55884 0.0
C3515 C 0.07474 0.80006 0.55169 0.0
C3516 C 0.13409 0.74501 0.61936 0.0
C3517 C 0.12688 0.75195 0.60347 0.0
C3518 C 0.11236 0.77906 0.61455 0.0
C3519 C 0.08944 0.78666 0.55206 0.0
C3520 C 0.09694 0.7793 0.56985 0.0
C3521 C 0.11915 0.75813 0.62054 0.0
C3522 C 0.11134 0.76534 0.60337 0.0
H3523 H 0.08301 0.79403 0.47612 0.0
H3524 H 0.0956 0.78231 0.50525 0.0
H3525 H 0.10653 0.79668 0.60691 0.0
H3526 H 0.1256 0.74974 0.69566 0.0
H3527 H 0.11293 0.76181 0.66784 0.0
C3528 C 0.70738 0.78984 0.99615 0.0
C3529 C 0.7214 0.79803 0.01273 0.0
C3530 C 0.69331 0.78297 0.01255 0.0
C3531 C 0.67576 0.78444 0.08932 0.0
H3532 H 0.64323 0.74361 0.06531 0.0
C3533 C 0.62133 0.74935 0.16679 0.0
C3534 C 0.60713 0.74091 0.15095 0.0
C3535 C 0.63518 0.75641 0.14967 0.0
C3536 C 0.65213 0.75509 0.07211 0.0
H3537 H 0.73157 0.80534 0.05961 0.0
H3538 H 0.70715 0.79326 0.08807 0.0
H3539 H 0.66741 0.75578 0.03565 0.0
H3540 H 0.59641 0.73336 0.10459 0.0
H3541 H 0.6205 0.74577 0.07482 0.0
H3542 H 0.66051 0.78375 0.12582 0.0
C3543 C 0.70697 0.79232 0.06238 0.0
C3544 C 0.666 0.76208 0.05507 0.0
C3545 C 0.72101 0.79917 0.04603 0.0
C3546 C 0.60713 0.73972 0.1176 0.0
C3547 C 0.62096 0.74677 0.10051 0.0
C3548 C 0.6619 0.77746 0.10636 0.0
C3549 C 0.69294 0.78414 0.04589 0.0
C3550 C 0.67802 0.77682 0.06353 0.0
C3551 C 0.63517 0.7552 0.1163 0.0
C3552 C 0.64991 0.76268 0.09803 0.0
H3553 H 0.70725 0.78879 0.97049 0.0
H3554 H 0.68271 0.7769 0.99906 0.0
H3555 H 0.68467 0.79591 0.09617 0.0
H3556 H 0.62177 0.75048 0.19246 0.0
H3557 H 0.64591 0.76266 0.16266 0.0
C3558 C 0.2257 0.84942 0.16287 0.0
C3559 C 0.24117 0.85722 0.17287 0.0
C3560 C 0.22013 0.85659 0.1425 0.0
C3561 C 0.23281 0.88915 0.08548 0.0
H3562 H 0.1923 0.88373 0.10187 0.0
C3563 C 0.19378 0.91872 0.05039 0.0
C3564 C 0.19598 0.92041 0.01727 0.0
C3565 C 0.19926 0.91063 0.06804 0.0
C3566 C 0.20367 0.88544 0.09703 0.0
H3567 H 0.2629 0.87872 0.16919 0.0
H3568 H 0.25314 0.89125 0.13409 0.0
H3569 H 0.20198 0.87055 0.13526 0.0
H3570 H 0.20578 0.91493 0.97674 0.0
H3571 H 0.21532 0.90069 0.00764 0.0
H3572 H 0.23464 0.90438 0.04773 0.0
C3573 C 0.24536 0.8795 0.14156 0.0
C3574 C 0.20915 0.87772 0.11597 0.0
C3575 C 0.25094 0.87234 0.16191 0.0
C3576 C 0.20393 0.91389 0.00223 0.0
C3577 C 0.20945 0.90577 0.01996 0.0
C3578 C 0.22731 0.89687 0.06648 0.0
C3579 C 0.22987 0.87175 0.13164 0.0
C3580 C 0.22384 0.87956 0.11062 0.0
C3581 C 0.20709 0.90397 0.05309 0.0
C3582 C 0.21273 0.89523 0.07222 0.0
H3583 H 0.21787 0.83774 0.1707 0.0
H3584 H 0.20819 0.85019 0.13504 0.0
H3585 H 0.2441 0.89069 0.08041 0.0
H3586 H 0.18779 0.92365 0.06285 0.0
H3587 H 0.19749 0.90974 0.09355 0.0
C3588 C 0.10365 0.29227 0.99502 0.0
C3589 C 0.08842 0.28005 0.99809 0.0
C3590 C 0.10908 0.30537 0.01425 0.0
C3591 C 0.105 0.31937 0.09068 0.0
H3592 H 0.12053 0.35906 0.04952 0.0
C3593 C 0.12328 0.37528 0.16329 0.0
C3594 C 0.13509 0.38927 0.15097 0.0
C3595 C 0.11728 0.3617 0.14527 0.0
C3596 C 0.11655 0.34817 0.06158 0.0
H3597 H 0.06704 0.27177 0.02418 0.0
H3598 H 0.07674 0.29454 0.0586 0.0
H3599 H 0.11113 0.33588 0.01732 0.0
H3600 H 0.15034 0.39991 0.11078 0.0
H3601 H 0.14061 0.3763 0.08023 0.0
H3602 H 0.11098 0.33155 0.13492 0.0
C3603 C 0.08435 0.29401 0.04096 0.0
C3604 C 0.11104 0.33486 0.043 0.0
C3605 C 0.0788 0.28106 0.02119 0.0
C3606 C 0.14107 0.38934 0.12072 0.0
C3607 C 0.13535 0.37576 0.10305 0.0
C3608 C 0.11085 0.33273 0.10934 0.0
C3609 C 0.09949 0.30634 0.03742 0.0
C3610 C 0.10521 0.32036 0.05735 0.0
C3611 C 0.1232 0.36174 0.11477 0.0
C3612 C 0.11675 0.34736 0.09507 0.0
H3613 H 0.11129 0.29184 0.97731 0.0
H3614 H 0.1208 0.31473 0.01115 0.0
H3615 H 0.10063 0.30829 0.10226 0.0
H3616 H 0.11841 0.37491 0.18652 0.0
H3617 H 0.1078 0.35127 0.15509 0.0
C3618 C 0.74688 0.62221 0.33042 0.0
C3619 C 0.75366 0.61289 0.33202 0.0
C3620 C 0.75215 0.63523 0.34987 0.0
C3621 C 0.78544 0.66148 0.40213 0.0
H3622 H 0.75747 0.67573 0.42786 0.0
C3623 C 0.79994 0.71044 0.49451 0.0
C3624 C 0.79891 0.72284 0.48156 0.0
C3625 C 0.79414 0.69653 0.47775 0.0
C3626 C 0.76537 0.67183 0.42084 0.0
H3627 H 0.77096 0.60959 0.35587 0.0
H3628 H 0.77963 0.63173 0.39099 0.0
H3629 H 0.74773 0.65213 0.39673 0.0
H3630 H 0.79065 0.73031 0.44147 0.0
H3631 H 0.78002 0.7058 0.41279 0.0
H3632 H 0.80292 0.68105 0.42749 0.0
C3633 C 0.77067 0.62948 0.37388 0.0
C3634 C 0.75986 0.65838 0.4027 0.0
C3635 C 0.76562 0.61667 0.35388 0.0
C3636 C 0.79166 0.72096 0.45194 0.0
C3637 C 0.78553 0.70695 0.43561 0.0
C3638 C 0.79084 0.67474 0.4209 0.0
C3639 C 0.76412 0.63907 0.37201 0.0
C3640 C 0.76985 0.65308 0.39266 0.0
C3641 C 0.78685 0.69468 0.4482 0.0
C3642 C 0.7809 0.68012 0.43007 0.0
H3643 H 0.73772 0.61966 0.31358 0.0
H3644 H 0.74699 0.64242 0.34701 0.0
H3645 H 0.79363 0.65808 0.39448 0.0
H3646 H 0.80554 0.7116 0.51723 0.0
H3647 H 0.79527 0.6872 0.4879 0.0
C3648 C 0.38051 0.14917 0.34991 0.0
C3649 C 0.38511 0.14088 0.33019 0.0
C3650 C 0.36785 0.14144 0.37034 0.0
C3651 C 0.3411 0.10219 0.40471 0.0
H3652 H 0.31612 0.12077 0.42424 0.0
C3653 C 0.27839 0.07012 0.45424 0.0
C3654 C 0.2765 0.07563 0.48367 0.0
C3655 C 0.29226 0.07814 0.43745 0.0
C3656 C 0.32308 0.11553 0.41911 0.0
H3657 H 0.37994 0.118 0.31594 0.0
H3658 H 0.35741 0.10449 0.35 0.0
H3659 H 0.33874 0.13451 0.39026 0.0
H3660 H 0.28756 0.09392 0.51852 0.0
H3661 H 0.3117 0.10832 0.48835 0.0
H3662 H 0.3247 0.08281 0.43226 0.0
C3663 C 0.36385 0.11696 0.35094 0.0
C3664 C 0.33615 0.12342 0.39979 0.0
C3665 C 0.37674 0.1247 0.33111 0.0
C3666 C 0.28875 0.08937 0.49598 0.0
C3667 C 0.30249 0.09762 0.47874 0.0
C3668 C 0.32782 0.09417 0.42337 0.0
C3669 C 0.35922 0.12519 0.37102 0.0
C3670 C 0.34538 0.11688 0.3922 0.0
C3671 C 0.30435 0.09203 0.44938 0.0
C3672 C 0.31873 0.10078 0.43072 0.0
H3673 H 0.38685 0.16166 0.34995 0.0
H3674 H 0.36499 0.14829 0.38581 0.0
H3675 H 0.348 0.09684 0.40026 0.0
H3676 H 0.26916 0.05954 0.44426 0.0
H3677 H 0.29344 0.07367 0.4148 0.0
C3678 C 0.87066 0.24807 0.33084 0.0
C3679 C 0.86388 0.25542 0.34723 0.0
C3680 C 0.87756 0.241 0.34759 0.0
C3681 C 0.89466 0.2413 0.42571 0.0
H3682 H 0.88786 0.2012 0.3999 0.0
C3683 C 0.91496 0.20684 0.50249 0.0
C3684 C 0.92116 0.19885 0.48645 0.0
C3685 C 0.90782 0.21359 0.48552 0.0
C3686 C 0.89004 0.21249 0.40723 0.0
H3687 H 0.85901 0.26106 0.39411 0.0
H3688 H 0.87097 0.24875 0.42315 0.0
H3689 H 0.87594 0.21334 0.36983 0.0
H3690 H 0.92474 0.19175 0.43994 0.0
H3691 H 0.91256 0.2037 0.41044 0.0
H3692 H 0.90884 0.24054 0.46293 0.0
C3693 C 0.87109 0.24855 0.39738 0.0
C3694 C 0.88319 0.21944 0.38997 0.0
C3695 C 0.86414 0.25552 0.38069 0.0
C3696 C 0.92003 0.19775 0.4531 0.0
C3697 C 0.91295 0.20454 0.43615 0.0
C3698 C 0.90155 0.23439 0.44289 0.0
C3699 C 0.87792 0.24123 0.38107 0.0
C3700 C 0.88539 0.23391 0.39905 0.0
C3701 C 0.90675 0.21255 0.45211 0.0
C3702 C 0.89932 0.21987 0.43391 0.0
H3703 H 0.87065 0.24776 0.30507 0.0
H3704 H 0.88283 0.23557 0.33431 0.0
H3705 H 0.89678 0.25257 0.43305 0.0
H3706 H 0.91556 0.20783 0.52818 0.0
H3707 H 0.90298 0.21949 0.49864 0.0
C3708 C 0.04193 0.58319 0.16495 0.0
C3709 C 0.05602 0.58929 0.18137 0.0
C3710 C 0.02794 0.57636 0.18162 0.0
C3711 C 0.01152 0.57513 0.26124 0.0
H3712 H 0.97671 0.53711 0.23068 0.0
C3713 C 0.95607 0.54031 0.33617 0.0
C3714 C 0.9419 0.53364 0.31996 0.0
C3715 C 0.96999 0.54707 0.31927 0.0
C3716 C 0.98625 0.54783 0.23937 0.0
H3717 H 0.06639 0.59293 0.22822 0.0
H3718 H 0.04208 0.581 0.25711 0.0
H3719 H 0.00083 0.54904 0.20083 0.0
H3720 H 0.9313 0.52897 0.27321 0.0
H3721 H 0.95548 0.54091 0.2439 0.0
H3722 H 0.99696 0.57398 0.29969 0.0
C3723 C 0.04182 0.58163 0.2314 0.0
C3724 C 9e-05 0.55466 0.22223 0.0
C3725 C 0.05578 0.58839 0.21477 0.0
C3726 C 0.94198 0.53393 0.2865 0.0
C3727 C 0.95588 0.5407 0.26964 0.0
C3728 C 0.99768 0.56832 0.27834 0.0
C3729 C 0.02773 0.57555 0.21507 0.0
C3730 C 0.01291 0.56838 0.23299 0.0
C3731 C 0.97007 0.54735 0.28577 0.0
C3732 C 0.98486 0.55456 0.26765 0.0
H3733 H 0.0417 0.58368 0.13922 0.0
H3734 H 0.01729 0.5719 0.16833 0.0
H3735 H 0.02109 0.58582 0.26996 0.0
H3736 H 0.95643 0.54023 0.36192 0.0
H3737 H 0.98069 0.55189 0.33248 0.0
C3738 C 0.41186 0.46255 0.18686 0.0
C3739 C 0.42171 0.47343 0.16437 0.0
C3740 C 0.41726 0.45504 0.20679 0.0
C3741 C 0.44475 0.44168 0.21033 0.0
H3742 H 0.44251 0.44343 0.30221 0.0
C3743 C 0.47505 0.41821 0.29001 0.0
C3744 C 0.46858 0.41166 0.31959 0.0
C3745 C 0.46915 0.42583 0.27205 0.0
C3746 C 0.443 0.44254 0.27662 0.0
H3747 H 0.44485 0.48484 0.14486 0.0
H3748 H 0.4541 0.47132 0.17897 0.0
H3749 H 0.43213 0.45613 0.26897 0.0
H3750 H 0.45083 0.40797 0.35366 0.0
H3751 H 0.43997 0.42061 0.32168 0.0
H3752 H 0.45497 0.42764 0.21738 0.0
C3753 C 0.44229 0.4688 0.18145 0.0
C3754 C 0.43712 0.44993 0.25762 0.0
C3755 C 0.43702 0.47657 0.16206 0.0
C3756 C 0.45609 0.41297 0.33097 0.0
C3757 C 0.44994 0.42032 0.31264 0.0
C3758 C 0.45032 0.43403 0.22922 0.0
C3759 C 0.43248 0.45801 0.20406 0.0
C3760 C 0.43812 0.44972 0.22432 0.0
C3761 C 0.45634 0.42682 0.28278 0.0
C3762 C 0.44975 0.43451 0.26271 0.0
H3763 H 0.40004 0.45996 0.18929 0.0
H3764 H 0.40946 0.44672 0.22397 0.0
H3765 H 0.44547 0.44118 0.18467 0.0
H3766 H 0.48484 0.4176 0.2808 0.0
H3767 H 0.47478 0.43105 0.24979 0.0
C3768 C 0.53515 0.94085 0.21815 0.0
C3769 C 0.52995 0.94014 0.18687 0.0
C3770 C 0.54253 0.95487 0.23451 0.0
C3771 C 0.56139 0.99753 0.22184 0.0
H3772 H 0.55779 0.99748 0.31365 0.0
C3773 C 0.59783 0.05297 0.2946 0.0
C3774 C 0.59166 0.0552 0.32276 0.0
C3775 C 0.59024 0.0389 0.27846 0.0
C3776 C 0.55878 0.99782 0.28798 0.0
H3777 H 0.52807 0.95344 0.14828 0.0
H3778 H 0.5402 0.97779 0.17725 0.0
H3779 H 0.54405 0.97344 0.28471 0.0
H3780 H 0.57261 0.04455 0.35596 0.0
H3781 H 0.55891 0.02026 0.32711 0.0
H3782 H 0.57531 0.02202 0.2249 0.0
C3783 C 0.53918 0.96769 0.18894 0.0
C3784 C 0.55108 0.98389 0.2713 0.0
C3785 C 0.53211 0.9537 0.17231 0.0
C3786 C 0.57772 0.04308 0.33447 0.0
C3787 C 0.56991 0.0291 0.31793 0.0
C3788 C 0.56881 0.0115 0.23845 0.0
C3789 C 0.54458 0.96852 0.22028 0.0
C3790 C 0.55239 0.98349 0.23799 0.0
C3791 C 0.57606 0.02678 0.28964 0.0
C3792 C 0.56776 0.01186 0.27183 0.0
H3793 H 0.53378 0.93059 0.22983 0.0
H3794 H 0.54682 0.95498 0.2582 0.0
H3795 H 0.56293 0.9978 0.19632 0.0
H3796 H 0.60865 0.06208 0.2852 0.0
H3797 H 0.59562 0.03753 0.25733 0.0
C3798 C 0.41459 0.95572 0.66351 0.0
C3799 C 0.42181 0.94678 0.66356 0.0
C3800 C 0.41987 0.96861 0.68332 0.0
C3801 C 0.4535 0.9953 0.73438 0.0
H3802 H 0.42461 0.0076 0.76441 0.0
C3803 C 0.46711 0.0431 0.82957 0.0
C3804 C 0.46527 0.0552 0.8176 0.0
C3805 C 0.46172 0.02938 0.81225 0.0
C3806 C 0.43277 0.00425 0.7562 0.0
H3807 H 0.44003 0.94412 0.68488 0.0
H3808 H 0.44877 0.96607 0.72066 0.0
H3809 H 0.41531 0.98439 0.73222 0.0
H3810 H 0.45601 0.0623 0.77869 0.0
H3811 H 0.44608 0.03812 0.74912 0.0
H3812 H 0.47082 0.01504 0.75967 0.0
C3813 C 0.4394 0.96359 0.7045 0.0
C3814 C 0.42751 0.99102 0.73743 0.0
C3815 C 0.43433 0.9509 0.6841 0.0
C3816 C 0.45764 0.0532 0.78842 0.0
C3817 C 0.45192 0.03937 0.77156 0.0
C3818 C 0.45868 0.00834 0.7538 0.0
C3819 C 0.4323 0.9727 0.70436 0.0
C3820 C 0.43783 0.98645 0.72577 0.0
C3821 C 0.45403 0.02741 0.78315 0.0
C3822 C 0.44839 0.01303 0.7645 0.0
H3823 H 0.40499 0.95291 0.6477 0.0
H3824 H 0.41428 0.97546 0.68171 0.0
H3825 H 0.46192 0.99244 0.72556 0.0
H3826 H 0.47302 0.04436 0.85193 0.0
H3827 H 0.46345 0.02028 0.82164 0.0
C3828 C 0.05656 0.46936 0.71445 0.0
C3829 C 0.05692 0.46881 0.68104 0.0
C3830 C 0.04252 0.46251 0.73081 0.0
C3831 C 0.0013 0.43306 0.72193 0.0
H3832 H 0.99619 0.45313 0.79608 0.0
C3833 C 0.94231 0.41061 0.78346 0.0
C3834 C 0.94201 0.4106 0.81691 0.0
C3835 C 0.9563 0.41785 0.76698 0.0
C3836 C 0.99748 0.44729 0.77564 0.0
H3837 H 0.04274 0.46074 0.63861 0.0
H3838 H 0.01822 0.44892 0.66714 0.0
H3839 H 0.02048 0.46563 0.76684 0.0
H3840 H 0.95628 0.41833 0.85928 0.0
H3841 H 0.98074 0.4309 0.83046 0.0
H3842 H 0.9783 0.41473 0.73072 0.0
C3843 C 0.02882 0.45447 0.68074 0.0
C3844 C 0.01142 0.45446 0.75884 0.0
C3845 C 0.04288 0.46133 0.66435 0.0
C3846 C 0.95608 0.4181 0.83351 0.0
C3847 C 0.97011 0.42539 0.81698 0.0
C3848 C 0.98737 0.4259 0.7387 0.0
C3849 C 0.02846 0.45494 0.7142 0.0
C3850 C 0.01352 0.44743 0.73179 0.0
C3851 C 0.97039 0.42531 0.7835 0.0
C3852 C 0.98528 0.43292 0.76578 0.0
H3853 H 0.06714 0.47497 0.72811 0.0
H3854 H 0.0427 0.46291 0.75656 0.0
H3855 H 0.0026 0.42718 0.70156 0.0
H3856 H 0.9317 0.40499 0.76987 0.0
H3857 H 0.95608 0.41774 0.74121 0.0
C3858 C 0.53939 0.58215 0.66368 0.0
C3859 C 0.53054 0.58719 0.68037 0.0
C3860 C 0.54643 0.57504 0.67982 0.0
C3861 C 0.55952 0.57143 0.76012 0.0
H3862 H 0.55936 0.53561 0.72464 0.0
C3863 C 0.57977 0.53573 0.83259 0.0
C3864 C 0.58861 0.53048 0.81659 0.0
C3865 C 0.57258 0.54246 0.81572 0.0
C3866 C 0.55967 0.54571 0.73474 0.0
H3867 H 0.52205 0.58855 0.72709 0.0
H3868 H 0.53418 0.57612 0.755 0.0
H3869 H 0.54721 0.54777 0.69536 0.0
H3870 H 0.5968 0.5282 0.7702 0.0
H3871 H 0.58444 0.54007 0.74092 0.0
H3872 H 0.57199 0.56944 0.79943 0.0
C3873 C 0.53587 0.57782 0.72955 0.0
C3874 C 0.5527 0.55269 0.71792 0.0
C3875 C 0.52882 0.58487 0.71345 0.0
C3876 C 0.59003 0.53206 0.78331 0.0
C3877 C 0.58286 0.5388 0.76646 0.0
C3878 C 0.5665 0.56448 0.7769 0.0
C3879 C 0.54482 0.57288 0.713 0.0
C3880 C 0.55249 0.5656 0.73047 0.0
C3881 C 0.57408 0.54412 0.78243 0.0
C3882 C 0.56663 0.55151 0.76448 0.0
H3883 H 0.54094 0.58374 0.63818 0.0
H3884 H 0.55335 0.57148 0.66638 0.0
H3885 H 0.55981 0.58152 0.77024 0.0
H3886 H 0.57837 0.53464 0.85819 0.0
H3887 H 0.56573 0.54623 0.82876 0.0
loop_
_geom_bond_atom_site_label_1
_geom_bond_atom_site_label_2
_geom_bond_distance
_geom_bond_site_symmetry_2
_ccdc_geom_bond_type
Co0 N4 2.148 . S
Co0 N10 2.128 . S
Co0 N20 2.194 . S
Co0 O25 2.351 . S
Co0 O26 2.155 . S
Co0 O27 2.096 . S
C1 N4 1.301 . S
C1 N5 1.328 . S
C1 H6 0.930 . S
C2 C3 1.333 1_554 S
C2 N4 1.317 . S
C2 H7 0.940 . S
C3 C2 1.333 1_556 S
C3 N5 1.350 1_556 S
C3 H29 0.931 . S
N4 Co0 2.148 . S
N4 C1 1.301 . S
N4 C2 1.317 . S
N5 C1 1.328 . S
N5 C3 1.350 1_554 S
H6 C1 0.930 . S
H7 C2 0.940 . S
C8 O9 1.224 . S
C8 O27 1.247 . S
O9 C8 1.224 . S
N10 Co0 2.128 . S
N10 C11 1.355 . S
N10 C13 1.311 . S
C11 N10 1.355 . S
C11 C12 1.363 . S
C11 H23 0.929 . S
C12 C11 1.363 . S
C12 N14 1.375 . S
C12 H30 0.931 . S
C13 N10 1.311 . S
C13 N14 1.347 . S
C13 H24 0.929 . S
N14 C12 1.375 . S
N14 C13 1.347 . S
C15 C18 1.365 . S
C15 N20 1.328 . S
C15 H21 0.929 . S
C16 C17 1.362 . S
C16 C19 1.378 . S
C16 H31 0.929 . S
C17 C16 1.362 . S
C17 C18 1.366 . S
C18 C15 1.365 . S
C18 C17 1.366 . S
C18 H32 0.930 . S
C19 C16 1.378 . S
C19 N20 1.315 . S
C19 H22 0.930 . S
N20 Co0 2.194 . S
N20 C15 1.328 . S
N20 C19 1.315 . S
H21 C15 0.929 . S
H22 C19 0.930 . S
H23 C11 0.929 . S
H24 C13 0.929 . S
O25 Co0 2.351 . S
O25 C28 1.244 . S
O26 Co0 2.155 . S
O26 C28 1.240 . S
O27 Co0 2.096 . S
O27 C8 1.247 . S
C28 O25 1.244 . S
C28 O26 1.240 . S
H29 C3 0.931 . S
H30 C12 0.931 . S
H31 C16 0.929 . S
H32 C18 0.930 . S
Co33 N37 2.148 . S
Co33 N43 2.128 . S
Co33 N53 2.194 . S
Co33 O58 2.351 . S
Co33 O59 2.155 . S
Co33 O60 2.096 . S
C34 N37 1.301 . S
C34 N38 1.328 . S
C34 H39 0.930 . S
C35 C36 1.333 1_554 S
C35 N37 1.317 . S
C35 H40 0.939 . S
C36 C35 1.333 1_556 S
C36 N38 1.350 1_556 S
C36 H62 0.931 . S
N37 Co33 2.148 . S
N37 C34 1.301 . S
N37 C35 1.317 . S
N38 C34 1.328 . S
N38 C36 1.350 1_554 S
H39 C34 0.930 . S
H40 C35 0.939 . S
C41 O42 1.224 . S
C41 O60 1.247 . S
O42 C41 1.224 . S
N43 Co33 2.128 . S
N43 C44 1.355 . S
N43 C46 1.311 . S
C44 N43 1.355 . S
C44 C45 1.363 . S
C44 H56 0.929 . S
C45 C44 1.363 . S
C45 N47 1.375 . S
C45 H63 0.931 . S
C46 N43 1.311 . S
C46 N47 1.347 . S
C46 H57 0.929 . S
N47 C45 1.375 . S
N47 C46 1.347 . S
C48 C51 1.365 . S
C48 N53 1.328 . S
C48 H54 0.929 . S
C49 C50 1.362 . S
C49 C52 1.378 . S
C49 H64 0.929 . S
C50 C49 1.362 . S
C50 C51 1.366 . S
C51 C48 1.365 . S
C51 C50 1.366 . S
C51 H65 0.930 . S
C52 C49 1.378 . S
C52 N53 1.315 . S
C52 H55 0.930 . S
N53 Co33 2.194 . S
N53 C48 1.328 . S
N53 C52 1.315 . S
H54 C48 0.929 . S
H55 C52 0.930 . S
H56 C44 0.929 . S
H57 C46 0.929 . S
O58 Co33 2.351 . S
O58 C61 1.244 . S
O59 Co33 2.155 . S
O59 C61 1.240 . S
O60 Co33 2.096 . S
O60 C41 1.247 . S
C61 O58 1.244 . S
C61 O59 1.240 . S
H62 C36 0.931 . S
H63 C45 0.931 . S
H64 C49 0.929 . S
H65 C51 0.930 . S
Co66 N70 2.148 . S
Co66 N76 2.128 . S
Co66 N86 2.194 . S
Co66 O91 2.351 . S
Co66 O92 2.155 . S
Co66 O93 2.096 . S
C67 N70 1.301 . S
C67 N71 1.328 . S
C67 H72 0.930 . S
C68 C69 1.333 1_554 S
C68 N70 1.317 . S
C68 H73 0.940 . S
C69 C68 1.333 1_556 S
C69 N71 1.350 1_556 S
C69 H95 0.931 . S
N70 Co66 2.148 . S
N70 C67 1.301 . S
N70 C68 1.317 . S
N71 C67 1.328 . S
N71 C69 1.350 1_554 S
H72 C67 0.930 . S
H73 C68 0.940 . S
C74 O75 1.224 . S
C74 O93 1.247 . S
O75 C74 1.224 . S
N76 Co66 2.128 . S
N76 C77 1.355 . S
N76 C79 1.311 . S
C77 N76 1.355 . S
C77 C78 1.363 . S
C77 H89 0.929 . S
C78 C77 1.363 . S
C78 N80 1.375 . S
C78 H96 0.931 . S
C79 N76 1.311 . S
C79 N80 1.347 . S
C79 H90 0.929 . S
N80 C78 1.375 . S
N80 C79 1.347 . S
C81 C84 1.365 . S
C81 N86 1.328 . S
C81 H87 0.929 . S
C82 C83 1.362 . S
C82 C85 1.378 . S
C82 H97 0.929 . S
C83 C82 1.362 . S
C83 C84 1.366 . S
C84 C81 1.365 . S
C84 C83 1.366 . S
C84 H98 0.930 . S
C85 C82 1.378 . S
C85 N86 1.315 . S
C85 H88 0.930 . S
N86 Co66 2.194 . S
N86 C81 1.328 . S
N86 C85 1.315 . S
H87 C81 0.929 . S
H88 C85 0.930 . S
H89 C77 0.929 . S
H90 C79 0.929 . S
O91 Co66 2.351 . S
O91 C94 1.244 . S
O92 Co66 2.155 . S
O92 C94 1.240 . S
O93 Co66 2.096 . S
O93 C74 1.247 . S
C94 O91 1.244 . S
C94 O92 1.240 . S
H95 C69 0.931 . S
H96 C78 0.931 . S
H97 C82 0.929 . S
H98 C84 0.930 . S
Co99 N103 2.148 . S
Co99 N109 2.128 . S
Co99 N119 2.194 . S
Co99 O124 2.351 . S
Co99 O125 2.155 . S
Co99 O126 2.096 . S
C100 N103 1.301 . S
C100 N104 1.328 . S
C100 H105 0.930 . S
C101 C102 1.333 . S
C101 N103 1.317 . S
C101 H106 0.930 . S
C102 C101 1.333 . S
C102 N104 1.350 . S
C102 H128 0.931 . S
N103 Co99 2.148 . S
N103 C100 1.301 . S
N103 C101 1.317 . S
N104 C100 1.328 . S
N104 C102 1.350 . S
H105 C100 0.930 . S
H106 C101 0.930 . S
C107 O108 1.224 . S
C107 O126 1.247 . S
O108 C107 1.224 . S
N109 Co99 2.128 . S
N109 C110 1.355 . S
N109 C112 1.311 . S
C110 N109 1.355 . S
C110 C111 1.363 . S
C110 H122 0.929 . S
C111 C110 1.363 . S
C111 N113 1.375 . S
C111 H129 0.931 . S
C112 N109 1.311 . S
C112 N113 1.347 . S
C112 H123 0.929 . S
N113 C111 1.375 . S
N113 C112 1.347 . S
C114 C117 1.365 . S
C114 N119 1.328 . S
C114 H120 0.929 . S
C115 C116 1.362 . S
C115 C118 1.378 . S
C115 H130 0.929 . S
C116 C115 1.362 . S
C116 C117 1.366 . S
C117 C114 1.365 . S
C117 C116 1.366 . S
C117 H131 0.930 . S
C118 C115 1.378 . S
C118 N119 1.315 . S
C118 H121 0.930 . S
N119 Co99 2.194 . S
N119 C114 1.328 . S
N119 C118 1.315 . S
H120 C114 0.929 . S
H121 C118 0.930 . S
H122 C110 0.929 . S
H123 C112 0.929 . S
O124 Co99 2.351 . S
O124 C127 1.244 . S
O125 Co99 2.155 . S
O125 C127 1.240 . S
O126 Co99 2.096 . S
O126 C107 1.247 . S
C127 O124 1.244 . S
C127 O125 1.240 . S
H128 C102 0.931 . S
H129 C111 0.931 . S
H130 C115 0.929 . S
H131 C117 0.930 . S
Co132 N136 2.148 . S
Co132 N142 2.128 . S
Co132 N152 2.194 . S
Co132 O157 2.351 . S
Co132 O158 2.155 . S
Co132 O159 2.096 . S
C133 N136 1.301 . S
C133 N137 1.328 . S
C133 H138 0.930 . S
C134 C135 1.333 . S
C134 N136 1.317 . S
C134 H139 0.930 . S
C135 C134 1.333 . S
C135 N137 1.350 . S
C135 H161 0.931 . S
N136 Co132 2.148 . S
N136 C133 1.301 . S
N136 C134 1.317 . S
N137 C133 1.328 . S
N137 C135 1.350 . S
H138 C133 0.930 . S
H139 C134 0.930 . S
C140 O141 1.224 . S
C140 O159 1.247 . S
O141 C140 1.224 . S
N142 Co132 2.128 . S
N142 C143 1.355 . S
N142 C145 1.311 . S
C143 N142 1.355 . S
C143 C144 1.363 . S
C143 H155 0.929 . S
C144 C143 1.363 . S
C144 N146 1.375 . S
C144 H162 0.931 . S
C145 N142 1.311 . S
C145 N146 1.347 . S
C145 H156 0.929 . S
N146 C144 1.375 . S
N146 C145 1.347 . S
C147 C150 1.365 . S
C147 N152 1.328 . S
C147 H153 0.929 . S
C148 C149 1.362 . S
C148 C151 1.378 . S
C148 H163 0.929 . S
C149 C148 1.362 . S
C149 C150 1.366 . S
C150 C147 1.365 . S
C150 C149 1.366 . S
C150 H164 0.930 . S
C151 C148 1.378 . S
C151 N152 1.315 . S
C151 H154 0.930 . S
N152 Co132 2.194 . S
N152 C147 1.328 . S
N152 C151 1.315 . S
H153 C147 0.929 . S
H154 C151 0.930 . S
H155 C143 0.929 . S
H156 C145 0.929 . S
O157 Co132 2.351 . S
O157 C160 1.244 . S
O158 Co132 2.155 . S
O158 C160 1.240 . S
O159 Co132 2.096 . S
O159 C140 1.247 . S
C160 O157 1.244 . S
C160 O158 1.240 . S
H161 C135 0.931 . S
H162 C144 0.931 . S
H163 C148 0.929 . S
H164 C150 0.930 . S
Co165 N169 2.148 . S
Co165 N175 2.128 . S
Co165 N185 2.194 . S
Co165 O190 2.351 . S
Co165 O191 2.155 . S
Co165 O192 2.096 . S
C166 N169 1.301 . S
C166 N170 1.328 . S
C166 H171 0.930 . S
C167 C168 1.333 . S
C167 N169 1.317 . S
C167 H172 0.930 . S
C168 C167 1.333 . S
C168 N170 1.350 . S
C168 H194 0.931 . S
N169 Co165 2.148 . S
N169 C166 1.301 . S
N169 C167 1.317 . S
N170 C166 1.328 . S
N170 C168 1.350 . S
H171 C166 0.930 . S
H172 C167 0.930 . S
C173 O174 1.224 . S
C173 O192 1.247 . S
O174 C173 1.224 . S
N175 Co165 2.128 . S
N175 C176 1.355 . S
N175 C178 1.311 . S
C176 N175 1.355 . S
C176 C177 1.363 . S
C176 H188 0.929 . S
C177 C176 1.363 . S
C177 N179 1.375 . S
C177 H195 0.931 . S
C178 N175 1.311 . S
C178 N179 1.347 . S
C178 H189 0.929 . S
N179 C177 1.375 . S
N179 C178 1.347 . S
C180 C183 1.365 . S
C180 N185 1.328 . S
C180 H186 0.929 . S
C181 C182 1.362 . S
C181 C184 1.378 . S
C181 H196 0.929 . S
C182 C181 1.362 . S
C182 C183 1.366 . S
C183 C180 1.365 . S
C183 C182 1.366 . S
C183 H197 0.930 . S
C184 C181 1.378 . S
C184 N185 1.315 . S
C184 H187 0.930 . S
N185 Co165 2.194 . S
N185 C180 1.328 . S
N185 C184 1.315 . S
H186 C180 0.929 . S
H187 C184 0.930 . S
H188 C176 0.929 . S
H189 C178 0.929 . S
O190 Co165 2.351 . S
O190 C193 1.244 . S
O191 Co165 2.155 . S
O191 C193 1.240 . S
O192 Co165 2.096 . S
O192 C173 1.247 . S
C193 O190 1.244 . S
C193 O191 1.240 . S
H194 C168 0.931 . S
H195 C177 0.931 . S
H196 C181 0.929 . S
H197 C183 0.930 . S
Co198 N202 2.148 . S
Co198 N208 2.128 . S
Co198 N218 2.194 . S
Co198 O223 2.351 . S
Co198 O224 2.155 . S
Co198 O225 2.096 . S
C199 N202 1.301 . S
C199 N203 1.328 . S
C199 H204 0.930 . S
C200 C201 1.333 1_556 S
C200 N202 1.317 . S
C200 H205 0.940 . S
C201 C200 1.333 1_554 S
C201 N203 1.350 1_554 S
C201 H227 0.931 . S
N202 Co198 2.148 . S
N202 C199 1.301 . S
N202 C200 1.317 . S
N203 C199 1.328 . S
N203 C201 1.350 1_556 S
H204 C199 0.930 . S
H205 C200 0.940 . S
C206 O207 1.224 . S
C206 O225 1.247 . S
O207 C206 1.224 . S
N208 Co198 2.128 . S
N208 C209 1.355 . S
N208 C211 1.311 . S
C209 N208 1.355 . S
C209 C210 1.363 . S
C209 H221 0.929 . S
C210 C209 1.363 . S
C210 N212 1.375 . S
C210 H228 0.931 . S
C211 N208 1.311 . S
C211 N212 1.347 . S
C211 H222 0.929 . S
N212 C210 1.375 . S
N212 C211 1.347 . S
C213 C216 1.365 . S
C213 N218 1.328 . S
C213 H219 0.929 . S
C214 C215 1.362 . S
C214 C217 1.378 . S
C214 H229 0.929 . S
C215 C214 1.362 . S
C215 C216 1.366 . S
C216 C213 1.365 . S
C216 C215 1.366 . S
C216 H230 0.930 . S
C217 C214 1.378 . S
C217 N218 1.315 . S
C217 H220 0.930 . S
N218 Co198 2.194 . S
N218 C213 1.328 . S
N218 C217 1.315 . S
H219 C213 0.929 . S
H220 C217 0.930 . S
H221 C209 0.929 . S
H222 C211 0.929 . S
O223 Co198 2.351 . S
O223 C226 1.244 . S
O224 Co198 2.155 . S
O224 C226 1.240 . S
O225 Co198 2.096 . S
O225 C206 1.247 . S
C226 O223 1.244 . S
C226 O224 1.240 . S
H227 C201 0.931 . S
H228 C210 0.931 . S
H229 C214 0.929 . S
H230 C216 0.930 . S
Co231 N235 2.148 . S
Co231 N241 2.128 . S
Co231 N251 2.194 . S
Co231 O256 2.351 . S
Co231 O257 2.155 . S
Co231 O258 2.096 . S
C232 N235 1.301 . S
C232 N236 1.328 . S
C232 H237 0.930 . S
C233 C234 1.333 1_556 S
C233 N235 1.317 . S
C233 H238 0.939 . S
C234 C233 1.333 1_554 S
C234 N236 1.350 1_554 S
C234 H260 0.931 . S
N235 Co231 2.148 . S
N235 C232 1.301 . S
N235 C233 1.317 . S
N236 C232 1.328 . S
N236 C234 1.350 1_556 S
H237 C232 0.930 . S
H238 C233 0.939 . S
C239 O240 1.224 . S
C239 O258 1.247 . S
O240 C239 1.224 . S
N241 Co231 2.128 . S
N241 C242 1.355 . S
N241 C244 1.311 . S
C242 N241 1.355 . S
C242 C243 1.363 . S
C242 H254 0.929 . S
C243 C242 1.363 . S
C243 N245 1.375 . S
C243 H261 0.931 . S
C244 N241 1.311 . S
C244 N245 1.347 . S
C244 H255 0.929 . S
N245 C243 1.375 . S
N245 C244 1.347 . S
C246 C249 1.365 . S
C246 N251 1.328 . S
C246 H252 0.929 . S
C247 C248 1.362 . S
C247 C250 1.378 . S
C247 H262 0.929 . S
C248 C247 1.362 . S
C248 C249 1.366 . S
C249 C246 1.365 . S
C249 C248 1.366 . S
C249 H263 0.930 . S
C250 C247 1.378 . S
C250 N251 1.315 . S
C250 H253 0.930 . S
N251 Co231 2.194 . S
N251 C246 1.328 . S
N251 C250 1.315 . S
H252 C246 0.929 . S
H253 C250 0.930 . S
H254 C242 0.929 . S
H255 C244 0.929 . S
O256 Co231 2.351 . S
O256 C259 1.244 . S
O257 Co231 2.155 . S
O257 C259 1.240 . S
O258 Co231 2.096 . S
O258 C239 1.247 . S
C259 O256 1.244 . S
C259 O257 1.240 . S
H260 C234 0.931 . S
H261 C243 0.931 . S
H262 C247 0.929 . S
H263 C249 0.930 . S
Co264 N268 2.148 . S
Co264 N274 2.128 . S
Co264 N284 2.194 . S
Co264 O289 2.351 . S
Co264 O290 2.155 . S
Co264 O291 2.096 . S
C265 N268 1.301 . S
C265 N269 1.328 . S
C265 H270 0.930 . S
C266 C267 1.333 1_556 S
C266 N268 1.317 . S
C266 H271 0.940 . S
C267 C266 1.333 1_554 S
C267 N269 1.350 1_554 S
C267 H293 0.931 . S
N268 Co264 2.148 . S
N268 C265 1.301 . S
N268 C266 1.317 . S
N269 C265 1.328 . S
N269 C267 1.350 1_556 S
H270 C265 0.930 . S
H271 C266 0.940 . S
C272 O273 1.224 . S
C272 O291 1.247 . S
O273 C272 1.224 . S
N274 Co264 2.128 . S
N274 C275 1.355 . S
N274 C277 1.311 . S
C275 N274 1.355 . S
C275 C276 1.363 . S
C275 H287 0.929 . S
C276 C275 1.363 . S
C276 N278 1.375 . S
C276 H294 0.931 . S
C277 N274 1.311 . S
C277 N278 1.347 . S
C277 H288 0.929 . S
N278 C276 1.375 . S
N278 C277 1.347 . S
C279 C282 1.365 . S
C279 N284 1.328 . S
C279 H285 0.929 . S
C280 C281 1.362 . S
C280 C283 1.378 . S
C280 H295 0.929 . S
C281 C280 1.362 . S
C281 C282 1.366 . S
C282 C279 1.365 . S
C282 C281 1.366 . S
C282 H296 0.930 . S
C283 C280 1.378 . S
C283 N284 1.315 . S
C283 H286 0.930 . S
N284 Co264 2.194 . S
N284 C279 1.328 . S
N284 C283 1.315 . S
H285 C279 0.929 . S
H286 C283 0.930 . S
H287 C275 0.929 . S
H288 C277 0.929 . S
O289 Co264 2.351 . S
O289 C292 1.244 . S
O290 Co264 2.155 . S
O290 C292 1.240 . S
O291 Co264 2.096 . S
O291 C272 1.247 . S
C292 O289 1.244 . S
C292 O290 1.240 . S
H293 C267 0.931 . S
H294 C276 0.931 . S
H295 C280 0.929 . S
H296 C282 0.930 . S
Co297 N301 2.148 . S
Co297 N307 2.128 . S
Co297 N317 2.194 . S
Co297 O322 2.351 . S
Co297 O323 2.155 . S
Co297 O324 2.096 . S
C298 N301 1.301 . S
C298 N302 1.328 . S
C298 H303 0.930 . S
C299 C300 1.333 . S
C299 N301 1.317 . S
C299 H304 0.930 . S
C300 C299 1.333 . S
C300 N302 1.350 . S
C300 H326 0.931 . S
N301 Co297 2.148 . S
N301 C298 1.301 . S
N301 C299 1.317 . S
N302 C298 1.328 . S
N302 C300 1.350 . S
H303 C298 0.930 . S
H304 C299 0.930 . S
C305 O306 1.224 . S
C305 O324 1.247 . S
O306 C305 1.224 . S
N307 Co297 2.128 . S
N307 C308 1.355 . S
N307 C310 1.311 . S
C308 N307 1.355 . S
C308 C309 1.363 . S
C308 H320 0.929 . S
C309 C308 1.363 . S
C309 N311 1.375 . S
C309 H327 0.931 . S
C310 N307 1.311 . S
C310 N311 1.347 . S
C310 H321 0.929 . S
N311 C309 1.375 . S
N311 C310 1.347 . S
C312 C315 1.365 . S
C312 N317 1.328 . S
C312 H318 0.929 . S
C313 C314 1.362 . S
C313 C316 1.378 . S
C313 H328 0.929 . S
C314 C313 1.362 . S
C314 C315 1.366 . S
C315 C312 1.365 . S
C315 C314 1.366 . S
C315 H329 0.930 . S
C316 C313 1.378 . S
C316 N317 1.315 . S
C316 H319 0.930 . S
N317 Co297 2.194 . S
N317 C312 1.328 . S
N317 C316 1.315 . S
H318 C312 0.929 . S
H319 C316 0.930 . S
H320 C308 0.929 . S
H321 C310 0.929 . S
O322 Co297 2.351 . S
O322 C325 1.244 . S
O323 Co297 2.155 . S
O323 C325 1.240 . S
O324 Co297 2.096 . S
O324 C305 1.247 . S
C325 O322 1.244 . S
C325 O323 1.240 . S
H326 C300 0.931 . S
H327 C309 0.931 . S
H328 C313 0.929 . S
H329 C315 0.930 . S
Co330 N334 2.148 . S
Co330 N340 2.128 . S
Co330 N350 2.194 . S
Co330 O355 2.351 . S
Co330 O356 2.155 . S
Co330 O357 2.096 . S
C331 N334 1.301 . S
C331 N335 1.328 . S
C331 H336 0.930 . S
C332 C333 1.333 . S
C332 N334 1.317 . S
C332 H337 0.930 . S
C333 C332 1.333 . S
C333 N335 1.350 . S
C333 H359 0.931 . S
N334 Co330 2.148 . S
N334 C331 1.301 . S
N334 C332 1.317 . S
N335 C331 1.328 . S
N335 C333 1.350 . S
H336 C331 0.930 . S
H337 C332 0.930 . S
C338 O339 1.224 . S
C338 O357 1.247 . S
O339 C338 1.224 . S
N340 Co330 2.128 . S
N340 C341 1.355 . S
N340 C343 1.311 . S
C341 N340 1.355 . S
C341 C342 1.363 . S
C341 H353 0.929 . S
C342 C341 1.363 . S
C342 N344 1.375 . S
C342 H360 0.931 . S
C343 N340 1.311 . S
C343 N344 1.347 . S
C343 H354 0.929 . S
N344 C342 1.375 . S
N344 C343 1.347 . S
C345 C348 1.365 . S
C345 N350 1.328 . S
C345 H351 0.929 . S
C346 C347 1.362 . S
C346 C349 1.378 . S
C346 H361 0.929 . S
C347 C346 1.362 . S
C347 C348 1.366 . S
C348 C345 1.365 . S
C348 C347 1.366 . S
C348 H362 0.930 . S
C349 C346 1.378 . S
C349 N350 1.315 . S
C349 H352 0.930 . S
N350 Co330 2.194 . S
N350 C345 1.328 . S
N350 C349 1.315 . S
H351 C345 0.929 . S
H352 C349 0.930 . S
H353 C341 0.929 . S
H354 C343 0.929 . S
O355 Co330 2.351 . S
O355 C358 1.244 . S
O356 Co330 2.155 . S
O356 C358 1.240 . S
O357 Co330 2.096 . S
O357 C338 1.247 . S
C358 O355 1.244 . S
C358 O356 1.240 . S
H359 C333 0.931 . S
H360 C342 0.931 . S
H361 C346 0.929 . S
H362 C348 0.930 . S
Co363 N367 2.148 . S
Co363 N373 2.128 . S
Co363 N383 2.194 . S
Co363 O388 2.351 . S
Co363 O389 2.155 . S
Co363 O390 2.096 . S
C364 N367 1.301 . S
C364 N368 1.328 . S
C364 H369 0.930 . S
C365 C366 1.333 . S
C365 N367 1.317 . S
C365 H370 0.930 . S
C366 C365 1.333 . S
C366 N368 1.350 . S
C366 H392 0.931 . S
N367 Co363 2.148 . S
N367 C364 1.301 . S
N367 C365 1.317 . S
N368 C364 1.328 . S
N368 C366 1.350 . S
H369 C364 0.930 . S
H370 C365 0.930 . S
C371 O372 1.224 . S
C371 O390 1.247 . S
O372 C371 1.224 . S
N373 Co363 2.128 . S
N373 C374 1.355 . S
N373 C376 1.311 . S
C374 N373 1.355 . S
C374 C375 1.363 . S
C374 H386 0.929 . S
C375 C374 1.363 . S
C375 N377 1.375 . S
C375 H393 0.931 . S
C376 N373 1.311 . S
C376 N377 1.347 . S
C376 H387 0.929 . S
N377 C375 1.375 . S
N377 C376 1.347 . S
C378 C381 1.365 . S
C378 N383 1.328 . S
C378 H384 0.929 . S
C379 C380 1.362 . S
C379 C382 1.378 . S
C379 H394 0.929 . S
C380 C379 1.362 . S
C380 C381 1.366 . S
C381 C378 1.365 . S
C381 C380 1.366 . S
C381 H395 0.930 . S
C382 C379 1.378 . S
C382 N383 1.315 . S
C382 H385 0.930 . S
N383 Co363 2.194 . S
N383 C378 1.328 . S
N383 C382 1.315 . S
H384 C378 0.929 . S
H385 C382 0.930 . S
H386 C374 0.929 . S
H387 C376 0.929 . S
O388 Co363 2.351 . S
O388 C391 1.244 . S
O389 Co363 2.155 . S
O389 C391 1.240 . S
O390 Co363 2.096 . S
O390 C371 1.247 . S
C391 O388 1.244 . S
C391 O389 1.240 . S
H392 C366 0.931 . S
H393 C375 0.931 . S
H394 C379 0.929 . S
H395 C381 0.930 . S
Co396 N400 2.148 . S
Co396 N406 2.128 . S
Co396 N416 2.194 . S
Co396 O421 2.351 . S
Co396 O422 2.155 . S
Co396 O423 2.096 . S
C397 N400 1.301 . S
C397 N401 1.328 . S
C397 H402 0.930 . S
C398 C399 1.333 . S
C398 N400 1.317 . S
C398 H403 0.930 . S
C399 C398 1.333 . S
C399 N401 1.350 . S
C399 H425 0.931 . S
N400 Co396 2.148 . S
N400 C397 1.301 . S
N400 C398 1.317 . S
N401 C397 1.328 . S
N401 C399 1.350 . S
H402 C397 0.930 . S
H403 C398 0.930 . S
C404 O405 1.224 . S
C404 O423 1.247 . S
O405 C404 1.224 . S
N406 Co396 2.128 . S
N406 C407 1.355 . S
N406 C409 1.311 . S
C407 N406 1.355 . S
C407 C408 1.363 . S
C407 H419 0.929 . S
C408 C407 1.363 . S
C408 N410 1.375 . S
C408 H426 0.931 . S
C409 N406 1.311 . S
C409 N410 1.347 . S
C409 H420 0.929 . S
N410 C408 1.375 . S
N410 C409 1.347 . S
C411 C414 1.365 . S
C411 N416 1.328 . S
C411 H417 0.929 . S
C412 C413 1.362 . S
C412 C415 1.378 . S
C412 H427 0.929 . S
C413 C412 1.362 . S
C413 C414 1.366 . S
C414 C411 1.365 . S
C414 C413 1.366 . S
C414 H428 0.930 . S
C415 C412 1.378 . S
C415 N416 1.315 . S
C415 H418 0.930 . S
N416 Co396 2.194 . S
N416 C411 1.328 . S
N416 C415 1.315 . S
H417 C411 0.929 . S
H418 C415 0.930 . S
H419 C407 0.929 . S
H420 C409 0.929 . S
O421 Co396 2.351 . S
O421 C424 1.244 . S
O422 Co396 2.155 . S
O422 C424 1.240 . S
O423 Co396 2.096 . S
O423 C404 1.247 . S
C424 O421 1.244 . S
C424 O422 1.240 . S
H425 C399 0.931 . S
H426 C408 0.931 . S
H427 C412 0.929 . S
H428 C414 0.930 . S
Co429 N433 2.148 . S
Co429 N439 2.128 . S
Co429 N449 2.194 . S
Co429 O454 2.351 . S
Co429 O455 2.155 . S
Co429 O456 2.096 . S
C430 N433 1.301 . S
C430 N434 1.328 . S
C430 H435 0.930 . S
C431 C432 1.333 . S
C431 N433 1.317 . S
C431 H436 0.930 . S
C432 C431 1.333 . S
C432 N434 1.350 . S
C432 H458 0.931 . S
N433 Co429 2.148 . S
N433 C430 1.301 . S
N433 C431 1.317 . S
N434 C430 1.328 . S
N434 C432 1.350 . S
H435 C430 0.930 . S
H436 C431 0.930 . S
C437 O438 1.224 . S
C437 O456 1.247 . S
O438 C437 1.224 . S
N439 Co429 2.128 . S
N439 C440 1.355 . S
N439 C442 1.311 . S
C440 N439 1.355 . S
C440 C441 1.363 . S
C440 H452 0.929 . S
C441 C440 1.363 . S
C441 N443 1.375 . S
C441 H459 0.931 . S
C442 N439 1.311 . S
C442 N443 1.347 . S
C442 H453 0.929 . S
N443 C441 1.375 . S
N443 C442 1.347 . S
C444 C447 1.365 . S
C444 N449 1.328 . S
C444 H450 0.929 . S
C445 C446 1.362 . S
C445 C448 1.378 . S
C445 H460 0.929 . S
C446 C445 1.362 . S
C446 C447 1.366 . S
C447 C444 1.365 . S
C447 C446 1.366 . S
C447 H461 0.930 . S
C448 C445 1.378 . S
C448 N449 1.315 . S
C448 H451 0.930 . S
N449 Co429 2.194 . S
N449 C444 1.328 . S
N449 C448 1.315 . S
H450 C444 0.929 . S
H451 C448 0.930 . S
H452 C440 0.929 . S
H453 C442 0.929 . S
O454 Co429 2.351 . S
O454 C457 1.244 . S
O455 Co429 2.155 . S
O455 C457 1.240 . S
O456 Co429 2.096 . S
O456 C437 1.247 . S
C457 O454 1.244 . S
C457 O455 1.240 . S
H458 C432 0.931 . S
H459 C441 0.931 . S
H460 C445 0.929 . S
H461 C447 0.930 . S
Co462 N466 2.148 . S
Co462 N472 2.128 . S
Co462 N482 2.194 . S
Co462 O487 2.351 . S
Co462 O488 2.155 . S
Co462 O489 2.096 . S
C463 N466 1.301 . S
C463 N467 1.328 . S
C463 H468 0.930 . S
C464 C465 1.333 . S
C464 N466 1.317 . S
C464 H469 0.930 . S
C465 C464 1.333 . S
C465 N467 1.350 . S
C465 H491 0.931 . S
N466 Co462 2.148 . S
N466 C463 1.301 . S
N466 C464 1.317 . S
N467 C463 1.328 . S
N467 C465 1.350 . S
H468 C463 0.930 . S
H469 C464 0.930 . S
C470 O471 1.224 . S
C470 O489 1.247 . S
O471 C470 1.224 . S
N472 Co462 2.128 . S
N472 C473 1.355 . S
N472 C475 1.311 . S
C473 N472 1.355 . S
C473 C474 1.363 . S
C473 H485 0.929 . S
C474 C473 1.363 . S
C474 N476 1.375 . S
C474 H492 0.931 . S
C475 N472 1.311 . S
C475 N476 1.347 . S
C475 H486 0.929 . S
N476 C474 1.375 . S
N476 C475 1.347 . S
C477 C480 1.365 . S
C477 N482 1.328 . S
C477 H483 0.929 . S
C478 C479 1.362 . S
C478 C481 1.378 . S
C478 H493 0.929 . S
C479 C478 1.362 . S
C479 C480 1.366 . S
C480 C477 1.365 . S
C480 C479 1.366 . S
C480 H494 0.930 . S
C481 C478 1.378 . S
C481 N482 1.315 . S
C481 H484 0.930 . S
N482 Co462 2.194 . S
N482 C477 1.328 . S
N482 C481 1.315 . S
H483 C477 0.929 . S
H484 C481 0.930 . S
H485 C473 0.929 . S
H486 C475 0.929 . S
O487 Co462 2.351 . S
O487 C490 1.244 . S
O488 Co462 2.155 . S
O488 C490 1.240 . S
O489 Co462 2.096 . S
O489 C470 1.247 . S
C490 O487 1.244 . S
C490 O488 1.240 . S
H491 C465 0.931 . S
H492 C474 0.931 . S
H493 C478 0.929 . S
H494 C480 0.930 . S
Co495 N499 2.148 . S
Co495 N505 2.128 . S
Co495 N515 2.194 . S
Co495 O520 2.351 . S
Co495 O521 2.155 . S
Co495 O522 2.096 . S
C496 N499 1.301 . S
C496 N500 1.328 . S
C496 H501 0.930 . S
C497 C498 1.333 . S
C497 N499 1.317 . S
C497 H502 0.930 . S
C498 C497 1.333 . S
C498 N500 1.350 . S
C498 H524 0.931 . S
N499 Co495 2.148 . S
N499 C496 1.301 . S
N499 C497 1.317 . S
N500 C496 1.328 . S
N500 C498 1.350 . S
H501 C496 0.930 . S
H502 C497 0.930 . S
C503 O504 1.224 . S
C503 O522 1.247 . S
O504 C503 1.224 . S
N505 Co495 2.128 . S
N505 C506 1.355 . S
N505 C508 1.311 . S
C506 N505 1.355 . S
C506 C507 1.363 . S
C506 H518 0.929 . S
C507 C506 1.363 . S
C507 N509 1.375 . S
C507 H525 0.931 . S
C508 N505 1.311 . S
C508 N509 1.347 . S
C508 H519 0.929 . S
N509 C507 1.375 . S
N509 C508 1.347 . S
C510 C513 1.365 . S
C510 N515 1.328 . S
C510 H516 0.929 . S
C511 C512 1.362 . S
C511 C514 1.378 . S
C511 H526 0.929 . S
C512 C511 1.362 . S
C512 C513 1.366 . S
C513 C510 1.365 . S
C513 C512 1.366 . S
C513 H527 0.930 . S
C514 C511 1.378 . S
C514 N515 1.315 . S
C514 H517 0.930 . S
N515 Co495 2.194 . S
N515 C510 1.328 . S
N515 C514 1.315 . S
H516 C510 0.929 . S
H517 C514 0.930 . S
H518 C506 0.929 . S
H519 C508 0.929 . S
O520 Co495 2.351 . S
O520 C523 1.244 . S
O521 Co495 2.155 . S
O521 C523 1.240 . S
O522 Co495 2.096 . S
O522 C503 1.247 . S
C523 O520 1.244 . S
C523 O521 1.240 . S
H524 C498 0.931 . S
H525 C507 0.931 . S
H526 C511 0.929 . S
H527 C513 0.930 . S
Co528 N532 2.148 . S
Co528 N538 2.128 . S
Co528 N548 2.194 . S
Co528 O553 2.351 . S
Co528 O554 2.155 . S
Co528 O555 2.096 . S
C529 N532 1.301 . S
C529 N533 1.328 . S
C529 H534 0.930 . S
C530 C531 1.333 . S
C530 N532 1.317 . S
C530 H535 0.930 . S
C531 C530 1.333 . S
C531 N533 1.350 . S
C531 H557 0.931 . S
N532 Co528 2.148 . S
N532 C529 1.301 . S
N532 C530 1.317 . S
N533 C529 1.328 . S
N533 C531 1.350 . S
H534 C529 0.930 . S
H535 C530 0.930 . S
C536 O537 1.224 . S
C536 O555 1.247 . S
O537 C536 1.224 . S
N538 Co528 2.128 . S
N538 C539 1.355 . S
N538 C541 1.311 . S
C539 N538 1.355 . S
C539 C540 1.363 . S
C539 H551 0.929 . S
C540 C539 1.363 . S
C540 N542 1.375 . S
C540 H558 0.931 . S
C541 N538 1.311 . S
C541 N542 1.347 . S
C541 H552 0.929 . S
N542 C540 1.375 . S
N542 C541 1.347 . S
C543 C546 1.365 . S
C543 N548 1.328 . S
C543 H549 0.929 . S
C544 C545 1.362 . S
C544 C547 1.378 . S
C544 H559 0.929 . S
C545 C544 1.362 . S
C545 C546 1.366 . S
C546 C543 1.365 . S
C546 C545 1.366 . S
C546 H560 0.930 . S
C547 C544 1.378 . S
C547 N548 1.315 . S
C547 H550 0.930 . S
N548 Co528 2.194 . S
N548 C543 1.328 . S
N548 C547 1.315 . S
H549 C543 0.929 . S
H550 C547 0.930 . S
H551 C539 0.929 . S
H552 C541 0.929 . S
O553 Co528 2.351 . S
O553 C556 1.244 . S
O554 Co528 2.155 . S
O554 C556 1.240 . S
O555 Co528 2.096 . S
O555 C536 1.247 . S
C556 O553 1.244 . S
C556 O554 1.240 . S
H557 C531 0.931 . S
H558 C540 0.931 . S
H559 C544 0.929 . S
H560 C546 0.930 . S
Co561 N565 2.148 . S
Co561 N571 2.128 . S
Co561 N581 2.194 . S
Co561 O586 2.351 . S
Co561 O587 2.155 . S
Co561 O588 2.096 . S
C562 N565 1.301 . S
C562 N566 1.328 . S
C562 H567 0.930 . S
C563 C564 1.333 . S
C563 N565 1.317 . S
C563 H568 0.930 . S
C564 C563 1.333 . S
C564 N566 1.350 . S
C564 H590 0.931 . S
N565 Co561 2.148 . S
N565 C562 1.301 . S
N565 C563 1.317 . S
N566 C562 1.328 . S
N566 C564 1.350 . S
H567 C562 0.930 . S
H568 C563 0.930 . S
C569 O570 1.224 . S
C569 O588 1.247 . S
O570 C569 1.224 . S
N571 Co561 2.128 . S
N571 C572 1.355 . S
N571 C574 1.311 . S
C572 N571 1.355 . S
C572 C573 1.363 . S
C572 H584 0.929 . S
C573 C572 1.363 . S
C573 N575 1.375 . S
C573 H591 0.931 . S
C574 N571 1.311 . S
C574 N575 1.347 . S
C574 H585 0.929 . S
N575 C573 1.375 . S
N575 C574 1.347 . S
C576 C579 1.365 . S
C576 N581 1.328 . S
C576 H582 0.929 . S
C577 C578 1.362 . S
C577 C580 1.378 . S
C577 H592 0.929 . S
C578 C577 1.362 . S
C578 C579 1.366 . S
C579 C576 1.365 . S
C579 C578 1.366 . S
C579 H593 0.930 . S
C580 C577 1.378 . S
C580 N581 1.315 . S
C580 H583 0.930 . S
N581 Co561 2.194 . S
N581 C576 1.328 . S
N581 C580 1.315 . S
H582 C576 0.929 . S
H583 C580 0.930 . S
H584 C572 0.929 . S
H585 C574 0.929 . S
O586 Co561 2.351 . S
O586 C589 1.244 . S
O587 Co561 2.155 . S
O587 C589 1.240 . S
O588 Co561 2.096 . S
O588 C569 1.247 . S
C589 O586 1.244 . S
C589 O587 1.240 . S
H590 C564 0.931 . S
H591 C573 0.931 . S
H592 C577 0.929 . S
H593 C579 0.930 . S
Co594 N598 2.148 . S
Co594 N604 2.128 . S
Co594 N614 2.194 . S
Co594 O619 2.351 . S
Co594 O620 2.155 . S
Co594 O621 2.096 . S
C595 N598 1.301 . S
C595 N599 1.328 . S
C595 H600 0.930 . S
C596 C597 1.333 . S
C596 N598 1.317 . S
C596 H601 0.930 . S
C597 C596 1.333 . S
C597 N599 1.350 . S
C597 H623 0.931 . S
N598 Co594 2.148 . S
N598 C595 1.301 . S
N598 C596 1.317 . S
N599 C595 1.328 . S
N599 C597 1.350 . S
H600 C595 0.930 . S
H601 C596 0.930 . S
C602 O603 1.224 . S
C602 O621 1.247 . S
O603 C602 1.224 . S
N604 Co594 2.128 . S
N604 C605 1.355 . S
N604 C607 1.311 . S
C605 N604 1.355 . S
C605 C606 1.363 . S
C605 H617 0.929 . S
C606 C605 1.363 . S
C606 N608 1.375 . S
C606 H624 0.931 . S
C607 N604 1.311 . S
C607 N608 1.347 . S
C607 H618 0.929 . S
N608 C606 1.375 . S
N608 C607 1.347 . S
C609 C612 1.365 . S
C609 N614 1.328 . S
C609 H615 0.929 . S
C610 C611 1.362 . S
C610 C613 1.378 . S
C610 H625 0.929 . S
C611 C610 1.362 . S
C611 C612 1.366 . S
C612 C609 1.365 . S
C612 C611 1.366 . S
C612 H626 0.930 . S
C613 C610 1.378 . S
C613 N614 1.315 . S
C613 H616 0.930 . S
N614 Co594 2.194 . S
N614 C609 1.328 . S
N614 C613 1.315 . S
H615 C609 0.929 . S
H616 C613 0.930 . S
H617 C605 0.929 . S
H618 C607 0.929 . S
O619 Co594 2.351 . S
O619 C622 1.244 . S
O620 Co594 2.155 . S
O620 C622 1.240 . S
O621 Co594 2.096 . S
O621 C602 1.247 . S
C622 O619 1.244 . S
C622 O620 1.240 . S
H623 C597 0.931 . S
H624 C606 0.931 . S
H625 C610 0.929 . S
H626 C612 0.930 . S
Co627 N631 2.148 . S
Co627 N637 2.128 . S
Co627 N647 2.194 . S
Co627 O652 2.351 . S
Co627 O653 2.155 . S
Co627 O654 2.096 . S
C628 N631 1.301 . S
C628 N632 1.328 . S
C628 H633 0.930 . S
C629 C630 1.333 . S
C629 N631 1.317 . S
C629 H634 0.930 . S
C630 C629 1.333 . S
C630 N632 1.350 . S
C630 H656 0.931 . S
N631 Co627 2.148 . S
N631 C628 1.301 . S
N631 C629 1.317 . S
N632 C628 1.328 . S
N632 C630 1.350 . S
H633 C628 0.930 . S
H634 C629 0.930 . S
C635 O636 1.224 . S
C635 O654 1.247 . S
O636 C635 1.224 . S
N637 Co627 2.128 . S
N637 C638 1.355 . S
N637 C640 1.311 . S
C638 N637 1.355 . S
C638 C639 1.363 . S
C638 H650 0.929 . S
C639 C638 1.363 . S
C639 N641 1.375 . S
C639 H657 0.931 . S
C640 N637 1.311 . S
C640 N641 1.347 . S
C640 H651 0.929 . S
N641 C639 1.375 . S
N641 C640 1.347 . S
C642 C645 1.365 . S
C642 N647 1.328 . S
C642 H648 0.929 . S
C643 C644 1.362 . S
C643 C646 1.378 . S
C643 H658 0.929 . S
C644 C643 1.362 . S
C644 C645 1.366 . S
C645 C642 1.365 . S
C645 C644 1.366 . S
C645 H659 0.930 . S
C646 C643 1.378 . S
C646 N647 1.315 . S
C646 H649 0.930 . S
N647 Co627 2.194 . S
N647 C642 1.328 . S
N647 C646 1.315 . S
H648 C642 0.929 . S
H649 C646 0.930 . S
H650 C638 0.929 . S
H651 C640 0.929 . S
O652 Co627 2.351 . S
O652 C655 1.244 . S
O653 Co627 2.155 . S
O653 C655 1.240 . S
O654 Co627 2.096 . S
O654 C635 1.247 . S
C655 O652 1.244 . S
C655 O653 1.240 . S
H656 C630 0.931 . S
H657 C639 0.931 . S
H658 C643 0.929 . S
H659 C645 0.930 . S
Co660 N664 2.148 . S
Co660 N670 2.128 . S
Co660 N680 2.194 . S
Co660 O685 2.351 . S
Co660 O686 2.155 . S
Co660 O687 2.096 . S
C661 N664 1.301 . S
C661 N665 1.328 . S
C661 H666 0.930 . S
C662 C663 1.333 . S
C662 N664 1.317 . S
C662 H667 0.930 . S
C663 C662 1.333 . S
C663 N665 1.350 . S
C663 H689 0.931 . S
N664 Co660 2.148 . S
N664 C661 1.301 . S
N664 C662 1.317 . S
N665 C661 1.328 . S
N665 C663 1.350 . S
H666 C661 0.930 . S
H667 C662 0.930 . S
C668 O669 1.224 . S
C668 O687 1.247 . S
O669 C668 1.224 . S
N670 Co660 2.128 . S
N670 C671 1.355 . S
N670 C673 1.311 . S
C671 N670 1.355 . S
C671 C672 1.363 . S
C671 H683 0.929 . S
C672 C671 1.363 . S
C672 N674 1.375 . S
C672 H690 0.931 . S
C673 N670 1.311 . S
C673 N674 1.347 . S
C673 H684 0.929 . S
N674 C672 1.375 . S
N674 C673 1.347 . S
C675 C678 1.365 . S
C675 N680 1.328 . S
C675 H681 0.929 . S
C676 C677 1.362 . S
C676 C679 1.378 . S
C676 H691 0.929 . S
C677 C676 1.362 . S
C677 C678 1.366 . S
C678 C675 1.365 . S
C678 C677 1.366 . S
C678 H692 0.930 . S
C679 C676 1.378 . S
C679 N680 1.315 . S
C679 H682 0.930 . S
N680 Co660 2.194 . S
N680 C675 1.328 . S
N680 C679 1.315 . S
H681 C675 0.929 . S
H682 C679 0.930 . S
H683 C671 0.929 . S
H684 C673 0.929 . S
O685 Co660 2.351 . S
O685 C688 1.244 . S
O686 Co660 2.155 . S
O686 C688 1.240 . S
O687 Co660 2.096 . S
O687 C668 1.247 . S
C688 O685 1.244 . S
C688 O686 1.240 . S
H689 C663 0.931 . S
H690 C672 0.931 . S
H691 C676 0.929 . S
H692 C678 0.930 . S
Co693 N697 2.148 . S
Co693 N703 2.128 . S
Co693 N713 2.194 . S
Co693 O718 2.351 . S
Co693 O719 2.155 . S
Co693 O720 2.096 . S
C694 N697 1.301 . S
C694 N698 1.328 . S
C694 H699 0.930 . S
C695 C696 1.333 . S
C695 N697 1.317 . S
C695 H700 0.930 . S
C696 C695 1.333 . S
C696 N698 1.350 . S
C696 H722 0.931 . S
N697 Co693 2.148 . S
N697 C694 1.301 . S
N697 C695 1.317 . S
N698 C694 1.328 . S
N698 C696 1.350 . S
H699 C694 0.930 . S
H700 C695 0.930 . S
C701 O702 1.224 . S
C701 O720 1.247 . S
O702 C701 1.224 . S
N703 Co693 2.128 . S
N703 C704 1.355 . S
N703 C706 1.311 . S
C704 N703 1.355 . S
C704 C705 1.363 . S
C704 H716 0.929 . S
C705 C704 1.363 . S
C705 N707 1.375 . S
C705 H723 0.931 . S
C706 N703 1.311 . S
C706 N707 1.347 . S
C706 H717 0.929 . S
N707 C705 1.375 . S
N707 C706 1.347 . S
C708 C711 1.365 . S
C708 N713 1.328 . S
C708 H714 0.929 . S
C709 C710 1.362 . S
C709 C712 1.378 . S
C709 H724 0.929 . S
C710 C709 1.362 . S
C710 C711 1.366 . S
C711 C708 1.365 . S
C711 C710 1.366 . S
C711 H725 0.930 . S
C712 C709 1.378 . S
C712 N713 1.315 . S
C712 H715 0.930 . S
N713 Co693 2.194 . S
N713 C708 1.328 . S
N713 C712 1.315 . S
H714 C708 0.929 . S
H715 C712 0.930 . S
H716 C704 0.929 . S
H717 C706 0.929 . S
O718 Co693 2.351 . S
O718 C721 1.244 . S
O719 Co693 2.155 . S
O719 C721 1.240 . S
O720 Co693 2.096 . S
O720 C701 1.247 . S
C721 O718 1.244 . S
C721 O719 1.240 . S
H722 C696 0.931 . S
H723 C705 0.931 . S
H724 C709 0.929 . S
H725 C711 0.930 . S
Co726 N730 2.148 . S
Co726 N736 2.128 . S
Co726 N746 2.194 . S
Co726 O751 2.351 . S
Co726 O752 2.155 . S
Co726 O753 2.096 . S
C727 N730 1.301 . S
C727 N731 1.328 . S
C727 H732 0.930 . S
C728 C729 1.333 . S
C728 N730 1.317 . S
C728 H733 0.930 . S
C729 C728 1.333 . S
C729 N731 1.350 . S
C729 H755 0.931 . S
N730 Co726 2.148 . S
N730 C727 1.301 . S
N730 C728 1.317 . S
N731 C727 1.328 . S
N731 C729 1.350 . S
H732 C727 0.930 . S
H733 C728 0.930 . S
C734 O735 1.224 . S
C734 O753 1.247 . S
O735 C734 1.224 . S
N736 Co726 2.128 . S
N736 C737 1.355 . S
N736 C739 1.311 . S
C737 N736 1.355 . S
C737 C738 1.363 . S
C737 H749 0.929 . S
C738 C737 1.363 . S
C738 N740 1.375 . S
C738 H756 0.931 . S
C739 N736 1.311 . S
C739 N740 1.347 . S
C739 H750 0.929 . S
N740 C738 1.375 . S
N740 C739 1.347 . S
C741 C744 1.365 . S
C741 N746 1.328 . S
C741 H747 0.929 . S
C742 C743 1.362 . S
C742 C745 1.378 . S
C742 H757 0.929 . S
C743 C742 1.362 . S
C743 C744 1.366 . S
C744 C741 1.365 . S
C744 C743 1.366 . S
C744 H758 0.930 . S
C745 C742 1.378 . S
C745 N746 1.315 . S
C745 H748 0.930 . S
N746 Co726 2.194 . S
N746 C741 1.328 . S
N746 C745 1.315 . S
H747 C741 0.929 . S
H748 C745 0.930 . S
H749 C737 0.929 . S
H750 C739 0.929 . S
O751 Co726 2.351 . S
O751 C754 1.244 . S
O752 Co726 2.155 . S
O752 C754 1.240 . S
O753 Co726 2.096 . S
O753 C734 1.247 . S
C754 O751 1.244 . S
C754 O752 1.240 . S
H755 C729 0.931 . S
H756 C738 0.931 . S
H757 C742 0.929 . S
H758 C744 0.930 . S
Co759 N763 2.148 . S
Co759 N769 2.128 . S
Co759 N779 2.194 . S
Co759 O784 2.351 . S
Co759 O785 2.155 . S
Co759 O786 2.096 . S
C760 N763 1.301 . S
C760 N764 1.328 . S
C760 H765 0.930 . S
C761 C762 1.333 . S
C761 N763 1.317 . S
C761 H766 0.930 . S
C762 C761 1.333 . S
C762 N764 1.350 . S
C762 H788 0.931 . S
N763 Co759 2.148 . S
N763 C760 1.301 . S
N763 C761 1.317 . S
N764 C760 1.328 . S
N764 C762 1.350 . S
H765 C760 0.930 . S
H766 C761 0.930 . S
C767 O768 1.224 . S
C767 O786 1.247 . S
O768 C767 1.224 . S
N769 Co759 2.128 . S
N769 C770 1.355 . S
N769 C772 1.311 . S
C770 N769 1.355 . S
C770 C771 1.363 . S
C770 H782 0.929 . S
C771 C770 1.363 . S
C771 N773 1.375 . S
C771 H789 0.931 . S
C772 N769 1.311 . S
C772 N773 1.347 . S
C772 H783 0.929 . S
N773 C771 1.375 . S
N773 C772 1.347 . S
C774 C777 1.365 . S
C774 N779 1.328 . S
C774 H780 0.929 . S
C775 C776 1.362 . S
C775 C778 1.378 . S
C775 H790 0.929 . S
C776 C775 1.362 . S
C776 C777 1.366 . S
C777 C774 1.365 . S
C777 C776 1.366 . S
C777 H791 0.930 . S
C778 C775 1.378 . S
C778 N779 1.315 . S
C778 H781 0.930 . S
N779 Co759 2.194 . S
N779 C774 1.328 . S
N779 C778 1.315 . S
H780 C774 0.929 . S
H781 C778 0.930 . S
H782 C770 0.929 . S
H783 C772 0.929 . S
O784 Co759 2.351 . S
O784 C787 1.244 . S
O785 Co759 2.155 . S
O785 C787 1.240 . S
O786 Co759 2.096 . S
O786 C767 1.247 . S
C787 O784 1.244 . S
C787 O785 1.240 . S
H788 C762 0.931 . S
H789 C771 0.931 . S
H790 C775 0.929 . S
H791 C777 0.930 . S
Co792 N796 2.148 . S
Co792 N802 2.128 . S
Co792 N812 2.194 . S
Co792 O817 2.351 . S
Co792 O818 2.155 . S
Co792 O819 2.096 . S
C793 N796 1.301 . S
C793 N797 1.328 . S
C793 H798 0.930 . S
C794 C795 1.333 . S
C794 N796 1.317 . S
C794 H799 0.930 . S
C795 C794 1.333 . S
C795 N797 1.350 . S
C795 H821 0.931 . S
N796 Co792 2.148 . S
N796 C793 1.301 . S
N796 C794 1.317 . S
N797 C793 1.328 . S
N797 C795 1.350 . S
H798 C793 0.930 . S
H799 C794 0.930 . S
C800 O801 1.224 . S
C800 O819 1.247 . S
O801 C800 1.224 . S
N802 Co792 2.128 . S
N802 C803 1.355 . S
N802 C805 1.311 . S
C803 N802 1.355 . S
C803 C804 1.363 . S
C803 H815 0.929 . S
C804 C803 1.363 . S
C804 N806 1.375 . S
C804 H822 0.931 . S
C805 N802 1.311 . S
C805 N806 1.347 . S
C805 H816 0.929 . S
N806 C804 1.375 . S
N806 C805 1.347 . S
C807 C810 1.365 . S
C807 N812 1.328 . S
C807 H813 0.929 . S
C808 C809 1.362 . S
C808 C811 1.378 . S
C808 H823 0.929 . S
C809 C808 1.362 . S
C809 C810 1.366 . S
C810 C807 1.365 . S
C810 C809 1.366 . S
C810 H824 0.930 . S
C811 C808 1.378 . S
C811 N812 1.315 . S
C811 H814 0.930 . S
N812 Co792 2.194 . S
N812 C807 1.328 . S
N812 C811 1.315 . S
H813 C807 0.929 . S
H814 C811 0.930 . S
H815 C803 0.929 . S
H816 C805 0.929 . S
O817 Co792 2.351 . S
O817 C820 1.244 . S
O818 Co792 2.155 . S
O818 C820 1.240 . S
O819 Co792 2.096 . S
O819 C800 1.247 . S
C820 O817 1.244 . S
C820 O818 1.240 . S
H821 C795 0.931 . S
H822 C804 0.931 . S
H823 C808 0.929 . S
H824 C810 0.930 . S
Co825 N829 2.148 . S
Co825 N835 2.128 . S
Co825 N845 2.194 . S
Co825 O850 2.351 . S
Co825 O851 2.155 . S
Co825 O852 2.096 . S
C826 N829 1.301 . S
C826 N830 1.328 . S
C826 H831 0.930 . S
C827 C828 1.333 . S
C827 N829 1.317 . S
C827 H832 0.930 . S
C828 C827 1.333 . S
C828 N830 1.350 . S
C828 H854 0.931 . S
N829 Co825 2.148 . S
N829 C826 1.301 . S
N829 C827 1.317 . S
N830 C826 1.328 . S
N830 C828 1.350 . S
H831 C826 0.930 . S
H832 C827 0.930 . S
C833 O834 1.224 . S
C833 O852 1.247 . S
O834 C833 1.224 . S
N835 Co825 2.128 . S
N835 C836 1.355 . S
N835 C838 1.311 . S
C836 N835 1.355 . S
C836 C837 1.363 . S
C836 H848 0.929 . S
C837 C836 1.363 . S
C837 N839 1.375 . S
C837 H855 0.931 . S
C838 N835 1.311 . S
C838 N839 1.347 . S
C838 H849 0.929 . S
N839 C837 1.375 . S
N839 C838 1.347 . S
C840 C843 1.365 . S
C840 N845 1.328 . S
C840 H846 0.929 . S
C841 C842 1.362 . S
C841 C844 1.378 . S
C841 H856 0.929 . S
C842 C841 1.362 . S
C842 C843 1.366 . S
C843 C840 1.365 . S
C843 C842 1.366 . S
C843 H857 0.930 . S
C844 C841 1.378 . S
C844 N845 1.315 . S
C844 H847 0.930 . S
N845 Co825 2.194 . S
N845 C840 1.328 . S
N845 C844 1.315 . S
H846 C840 0.929 . S
H847 C844 0.930 . S
H848 C836 0.929 . S
H849 C838 0.929 . S
O850 Co825 2.351 . S
O850 C853 1.244 . S
O851 Co825 2.155 . S
O851 C853 1.240 . S
O852 Co825 2.096 . S
O852 C833 1.247 . S
C853 O850 1.244 . S
C853 O851 1.240 . S
H854 C828 0.931 . S
H855 C837 0.931 . S
H856 C841 0.929 . S
H857 C843 0.930 . S
Co858 N862 2.148 . S
Co858 N868 2.128 . S
Co858 N878 2.194 . S
Co858 O883 2.351 . S
Co858 O884 2.155 . S
Co858 O885 2.096 . S
C859 N862 1.301 . S
C859 N863 1.328 . S
C859 H864 0.930 . S
C860 C861 1.333 . S
C860 N862 1.317 . S
C860 H865 0.930 . S
C861 C860 1.333 . S
C861 N863 1.350 . S
C861 H887 0.931 . S
N862 Co858 2.148 . S
N862 C859 1.301 . S
N862 C860 1.317 . S
N863 C859 1.328 . S
N863 C861 1.350 . S
H864 C859 0.930 . S
H865 C860 0.930 . S
C866 O867 1.224 . S
C866 O885 1.247 . S
O867 C866 1.224 . S
N868 Co858 2.128 . S
N868 C869 1.355 . S
N868 C871 1.311 . S
C869 N868 1.355 . S
C869 C870 1.363 . S
C869 H881 0.929 . S
C870 C869 1.363 . S
C870 N872 1.375 . S
C870 H888 0.931 . S
C871 N868 1.311 . S
C871 N872 1.347 . S
C871 H882 0.929 . S
N872 C870 1.375 . S
N872 C871 1.347 . S
C873 C876 1.365 . S
C873 N878 1.328 . S
C873 H879 0.929 . S
C874 C875 1.362 . S
C874 C877 1.378 . S
C874 H889 0.929 . S
C875 C874 1.362 . S
C875 C876 1.366 . S
C876 C873 1.365 . S
C876 C875 1.366 . S
C876 H890 0.930 . S
C877 C874 1.378 . S
C877 N878 1.315 . S
C877 H880 0.930 . S
N878 Co858 2.194 . S
N878 C873 1.328 . S
N878 C877 1.315 . S
H879 C873 0.929 . S
H880 C877 0.930 . S
H881 C869 0.929 . S
H882 C871 0.929 . S
O883 Co858 2.351 . S
O883 C886 1.244 . S
O884 Co858 2.155 . S
O884 C886 1.240 . S
O885 Co858 2.096 . S
O885 C866 1.247 . S
C886 O883 1.244 . S
C886 O884 1.240 . S
H887 C861 0.931 . S
H888 C870 0.931 . S
H889 C874 0.929 . S
H890 C876 0.930 . S
Co891 N895 2.148 . S
Co891 N901 2.128 . S
Co891 N911 2.194 . S
Co891 O916 2.351 . S
Co891 O917 2.155 . S
Co891 O918 2.096 . S
C892 N895 1.301 . S
C892 N896 1.328 . S
C892 H897 0.930 . S
C893 C894 1.333 . S
C893 N895 1.317 . S
C893 H898 0.930 . S
C894 C893 1.333 . S
C894 N896 1.350 . S
C894 H920 0.931 . S
N895 Co891 2.148 . S
N895 C892 1.301 . S
N895 C893 1.317 . S
N896 C892 1.328 . S
N896 C894 1.350 . S
H897 C892 0.930 . S
H898 C893 0.930 . S
C899 O900 1.224 . S
C899 O918 1.247 . S
O900 C899 1.224 . S
N901 Co891 2.128 . S
N901 C902 1.355 . S
N901 C904 1.311 . S
C902 N901 1.355 . S
C902 C903 1.363 . S
C902 H914 0.929 . S
C903 C902 1.363 . S
C903 N905 1.375 . S
C903 H921 0.931 . S
C904 N901 1.311 . S
C904 N905 1.347 . S
C904 H915 0.929 . S
N905 C903 1.375 . S
N905 C904 1.347 . S
C906 C909 1.365 . S
C906 N911 1.328 . S
C906 H912 0.929 . S
C907 C908 1.362 . S
C907 C910 1.378 . S
C907 H922 0.929 . S
C908 C907 1.362 . S
C908 C909 1.366 . S
C909 C906 1.365 . S
C909 C908 1.366 . S
C909 H923 0.930 . S
C910 C907 1.378 . S
C910 N911 1.315 . S
C910 H913 0.930 . S
N911 Co891 2.194 . S
N911 C906 1.328 . S
N911 C910 1.315 . S
H912 C906 0.929 . S
H913 C910 0.930 . S
H914 C902 0.929 . S
H915 C904 0.929 . S
O916 Co891 2.351 . S
O916 C919 1.244 . S
O917 Co891 2.155 . S
O917 C919 1.240 . S
O918 Co891 2.096 . S
O918 C899 1.247 . S
C919 O916 1.244 . S
C919 O917 1.240 . S
H920 C894 0.931 . S
H921 C903 0.931 . S
H922 C907 0.929 . S
H923 C909 0.930 . S
Co924 N928 2.148 . S
Co924 N934 2.128 . S
Co924 N944 2.194 . S
Co924 O949 2.351 . S
Co924 O950 2.155 . S
Co924 O951 2.096 . S
C925 N928 1.301 . S
C925 N929 1.328 . S
C925 H930 0.930 . S
C926 C927 1.333 . S
C926 N928 1.317 . S
C926 H931 0.930 . S
C927 C926 1.333 . S
C927 N929 1.350 . S
C927 H953 0.931 . S
N928 Co924 2.148 . S
N928 C925 1.301 . S
N928 C926 1.317 . S
N929 C925 1.328 . S
N929 C927 1.350 . S
H930 C925 0.930 . S
H931 C926 0.930 . S
C932 O933 1.224 . S
C932 O951 1.247 . S
O933 C932 1.224 . S
N934 Co924 2.128 . S
N934 C935 1.355 . S
N934 C937 1.311 . S
C935 N934 1.355 . S
C935 C936 1.363 . S
C935 H947 0.929 . S
C936 C935 1.363 . S
C936 N938 1.375 . S
C936 H954 0.931 . S
C937 N934 1.311 . S
C937 N938 1.347 . S
C937 H948 0.929 . S
N938 C936 1.375 . S
N938 C937 1.347 . S
C939 C942 1.365 . S
C939 N944 1.328 . S
C939 H945 0.929 . S
C940 C941 1.362 . S
C940 C943 1.378 . S
C940 H955 0.929 . S
C941 C940 1.362 . S
C941 C942 1.366 . S
C942 C939 1.365 . S
C942 C941 1.366 . S
C942 H956 0.930 . S
C943 C940 1.378 . S
C943 N944 1.315 . S
C943 H946 0.930 . S
N944 Co924 2.194 . S
N944 C939 1.328 . S
N944 C943 1.315 . S
H945 C939 0.929 . S
H946 C943 0.930 . S
H947 C935 0.929 . S
H948 C937 0.929 . S
O949 Co924 2.351 . S
O949 C952 1.244 . S
O950 Co924 2.155 . S
O950 C952 1.240 . S
O951 Co924 2.096 . S
O951 C932 1.247 . S
C952 O949 1.244 . S
C952 O950 1.240 . S
H953 C927 0.931 . S
H954 C936 0.931 . S
H955 C940 0.929 . S
H956 C942 0.930 . S
Co957 N961 2.148 . S
Co957 N967 2.128 . S
Co957 N977 2.194 . S
Co957 O982 2.351 . S
Co957 O983 2.155 . S
Co957 O984 2.096 . S
C958 N961 1.301 . S
C958 N962 1.328 . S
C958 H963 0.930 . S
C959 C960 1.333 . S
C959 N961 1.317 . S
C959 H964 0.930 . S
C960 C959 1.333 . S
C960 N962 1.350 . S
C960 H986 0.931 . S
N961 Co957 2.148 . S
N961 C958 1.301 . S
N961 C959 1.317 . S
N962 C958 1.328 . S
N962 C960 1.350 . S
H963 C958 0.930 . S
H964 C959 0.930 . S
C965 O966 1.224 . S
C965 O984 1.247 . S
O966 C965 1.224 . S
N967 Co957 2.128 . S
N967 C968 1.355 . S
N967 C970 1.311 . S
C968 N967 1.355 . S
C968 C969 1.363 . S
C968 H980 0.929 . S
C969 C968 1.363 . S
C969 N971 1.375 . S
C969 H987 0.931 . S
C970 N967 1.311 . S
C970 N971 1.347 . S
C970 H981 0.929 . S
N971 C969 1.375 . S
N971 C970 1.347 . S
C972 C975 1.365 . S
C972 N977 1.328 . S
C972 H978 0.929 . S
C973 C974 1.362 . S
C973 C976 1.378 . S
C973 H988 0.929 . S
C974 C973 1.362 . S
C974 C975 1.366 . S
C975 C972 1.365 . S
C975 C974 1.366 . S
C975 H989 0.930 . S
C976 C973 1.378 . S
C976 N977 1.315 . S
C976 H979 0.930 . S
N977 Co957 2.194 . S
N977 C972 1.328 . S
N977 C976 1.315 . S
H978 C972 0.929 . S
H979 C976 0.930 . S
H980 C968 0.929 . S
H981 C970 0.929 . S
O982 Co957 2.351 . S
O982 C985 1.244 . S
O983 Co957 2.155 . S
O983 C985 1.240 . S
O984 Co957 2.096 . S
O984 C965 1.247 . S
C985 O982 1.244 . S
C985 O983 1.240 . S
H986 C960 0.931 . S
H987 C969 0.931 . S
H988 C973 0.929 . S
H989 C975 0.930 . S
Co990 N994 2.148 . S
Co990 N1000 2.128 . S
Co990 N1010 2.194 . S
Co990 O1015 2.351 . S
Co990 O1016 2.155 . S
Co990 O1017 2.096 . S
C991 N994 1.301 . S
C991 N995 1.328 . S
C991 H996 0.930 . S
C992 C993 1.333 . S
C992 N994 1.317 . S
C992 H997 0.930 . S
C993 C992 1.333 . S
C993 N995 1.350 . S
C993 H1019 0.931 . S
N994 Co990 2.148 . S
N994 C991 1.301 . S
N994 C992 1.317 . S
N995 C991 1.328 . S
N995 C993 1.350 . S
H996 C991 0.930 . S
H997 C992 0.930 . S
C998 O999 1.224 . S
C998 O1017 1.247 . S
O999 C998 1.224 . S
N1000 Co990 2.128 . S
N1000 C1001 1.355 . S
N1000 C1003 1.311 . S
C1001 N1000 1.355 . S
C1001 C1002 1.363 . S
C1001 H1013 0.929 . S
C1002 C1001 1.363 . S
C1002 N1004 1.375 . S
C1002 H1020 0.931 . S
C1003 N1000 1.311 . S
C1003 N1004 1.347 . S
C1003 H1014 0.929 . S
N1004 C1002 1.375 . S
N1004 C1003 1.347 . S
C1005 C1008 1.365 . S
C1005 N1010 1.328 . S
C1005 H1011 0.929 . S
C1006 C1007 1.362 . S
C1006 C1009 1.378 . S
C1006 H1021 0.929 . S
C1007 C1006 1.362 . S
C1007 C1008 1.366 . S
C1008 C1005 1.365 . S
C1008 C1007 1.366 . S
C1008 H1022 0.930 . S
C1009 C1006 1.378 . S
C1009 N1010 1.315 . S
C1009 H1012 0.930 . S
N1010 Co990 2.194 . S
N1010 C1005 1.328 . S
N1010 C1009 1.315 . S
H1011 C1005 0.929 . S
H1012 C1009 0.930 . S
H1013 C1001 0.929 . S
H1014 C1003 0.929 . S
O1015 Co990 2.351 . S
O1015 C1018 1.244 . S
O1016 Co990 2.155 . S
O1016 C1018 1.240 . S
O1017 Co990 2.096 . S
O1017 C998 1.247 . S
C1018 O1015 1.244 . S
C1018 O1016 1.240 . S
H1019 C993 0.931 . S
H1020 C1002 0.931 . S
H1021 C1006 0.929 . S
H1022 C1008 0.930 . S
Co1023 N1027 2.148 . S
Co1023 N1033 2.128 . S
Co1023 N1043 2.194 . S
Co1023 O1048 2.351 . S
Co1023 O1049 2.155 . S
Co1023 O1050 2.096 . S
C1024 N1027 1.301 . S
C1024 N1028 1.328 . S
C1024 H1029 0.930 . S
C1025 C1026 1.333 . S
C1025 N1027 1.317 . S
C1025 H1030 0.930 . S
C1026 C1025 1.333 . S
C1026 N1028 1.350 . S
C1026 H1052 0.931 . S
N1027 Co1023 2.148 . S
N1027 C1024 1.301 . S
N1027 C1025 1.317 . S
N1028 C1024 1.328 . S
N1028 C1026 1.350 . S
H1029 C1024 0.930 . S
H1030 C1025 0.930 . S
C1031 O1032 1.224 . S
C1031 O1050 1.247 . S
O1032 C1031 1.224 . S
N1033 Co1023 2.128 . S
N1033 C1034 1.355 . S
N1033 C1036 1.311 . S
C1034 N1033 1.355 . S
C1034 C1035 1.363 . S
C1034 H1046 0.929 . S
C1035 C1034 1.363 . S
C1035 N1037 1.375 . S
C1035 H1053 0.931 . S
C1036 N1033 1.311 . S
C1036 N1037 1.347 . S
C1036 H1047 0.929 . S
N1037 C1035 1.375 . S
N1037 C1036 1.347 . S
C1038 C1041 1.365 . S
C1038 N1043 1.328 . S
C1038 H1044 0.929 . S
C1039 C1040 1.362 . S
C1039 C1042 1.378 . S
C1039 H1054 0.929 . S
C1040 C1039 1.362 . S
C1040 C1041 1.366 . S
C1041 C1038 1.365 . S
C1041 C1040 1.366 . S
C1041 H1055 0.930 . S
C1042 C1039 1.378 . S
C1042 N1043 1.315 . S
C1042 H1045 0.930 . S
N1043 Co1023 2.194 . S
N1043 C1038 1.328 . S
N1043 C1042 1.315 . S
H1044 C1038 0.929 . S
H1045 C1042 0.930 . S
H1046 C1034 0.929 . S
H1047 C1036 0.929 . S
O1048 Co1023 2.351 . S
O1048 C1051 1.244 . S
O1049 Co1023 2.155 . S
O1049 C1051 1.240 . S
O1050 Co1023 2.096 . S
O1050 C1031 1.247 . S
C1051 O1048 1.244 . S
C1051 O1049 1.240 . S
H1052 C1026 0.931 . S
H1053 C1035 0.931 . S
H1054 C1039 0.929 . S
H1055 C1041 0.930 . S
Co1056 N1060 2.148 . S
Co1056 N1066 2.128 . S
Co1056 N1076 2.194 . S
Co1056 O1081 2.351 . S
Co1056 O1082 2.155 . S
Co1056 O1083 2.096 . S
C1057 N1060 1.301 . S
C1057 N1061 1.328 . S
C1057 H1062 0.930 . S
C1058 C1059 1.333 . S
C1058 N1060 1.317 . S
C1058 H1063 0.930 . S
C1059 C1058 1.333 . S
C1059 N1061 1.350 . S
C1059 H1085 0.931 . S
N1060 Co1056 2.148 . S
N1060 C1057 1.301 . S
N1060 C1058 1.317 . S
N1061 C1057 1.328 . S
N1061 C1059 1.350 . S
H1062 C1057 0.930 . S
H1063 C1058 0.930 . S
C1064 O1065 1.224 . S
C1064 O1083 1.247 . S
O1065 C1064 1.224 . S
N1066 Co1056 2.128 . S
N1066 C1067 1.355 . S
N1066 C1069 1.311 . S
C1067 N1066 1.355 . S
C1067 C1068 1.363 . S
C1067 H1079 0.929 . S
C1068 C1067 1.363 . S
C1068 N1070 1.375 . S
C1068 H1086 0.931 . S
C1069 N1066 1.311 . S
C1069 N1070 1.347 . S
C1069 H1080 0.929 . S
N1070 C1068 1.375 . S
N1070 C1069 1.347 . S
C1071 C1074 1.365 . S
C1071 N1076 1.328 . S
C1071 H1077 0.929 . S
C1072 C1073 1.362 . S
C1072 C1075 1.378 . S
C1072 H1087 0.929 . S
C1073 C1072 1.362 . S
C1073 C1074 1.366 . S
C1074 C1071 1.365 . S
C1074 C1073 1.366 . S
C1074 H1088 0.930 . S
C1075 C1072 1.378 . S
C1075 N1076 1.315 . S
C1075 H1078 0.930 . S
N1076 Co1056 2.194 . S
N1076 C1071 1.328 . S
N1076 C1075 1.315 . S
H1077 C1071 0.929 . S
H1078 C1075 0.930 . S
H1079 C1067 0.929 . S
H1080 C1069 0.929 . S
O1081 Co1056 2.351 . S
O1081 C1084 1.244 . S
O1082 Co1056 2.155 . S
O1082 C1084 1.240 . S
O1083 Co1056 2.096 . S
O1083 C1064 1.247 . S
C1084 O1081 1.244 . S
C1084 O1082 1.240 . S
H1085 C1059 0.931 . S
H1086 C1068 0.931 . S
H1087 C1072 0.929 . S
H1088 C1074 0.930 . S
Co1089 N1093 2.148 . S
Co1089 N1099 2.128 . S
Co1089 N1109 2.194 . S
Co1089 O1114 2.351 . S
Co1089 O1115 2.155 . S
Co1089 O1116 2.096 . S
C1090 N1093 1.301 . S
C1090 N1094 1.328 . S
C1090 H1095 0.930 . S
C1091 C1092 1.333 . S
C1091 N1093 1.317 . S
C1091 H1096 0.930 . S
C1092 C1091 1.333 . S
C1092 N1094 1.350 . S
C1092 H1118 0.931 . S
N1093 Co1089 2.148 . S
N1093 C1090 1.301 . S
N1093 C1091 1.317 . S
N1094 C1090 1.328 . S
N1094 C1092 1.350 . S
H1095 C1090 0.930 . S
H1096 C1091 0.930 . S
C1097 O1098 1.224 . S
C1097 O1116 1.247 . S
O1098 C1097 1.224 . S
N1099 Co1089 2.128 . S
N1099 C1100 1.355 . S
N1099 C1102 1.311 . S
C1100 N1099 1.355 . S
C1100 C1101 1.363 . S
C1100 H1112 0.929 . S
C1101 C1100 1.363 . S
C1101 N1103 1.375 . S
C1101 H1119 0.931 . S
C1102 N1099 1.311 . S
C1102 N1103 1.347 . S
C1102 H1113 0.929 . S
N1103 C1101 1.375 . S
N1103 C1102 1.347 . S
C1104 C1107 1.365 . S
C1104 N1109 1.328 . S
C1104 H1110 0.929 . S
C1105 C1106 1.362 . S
C1105 C1108 1.378 . S
C1105 H1120 0.929 . S
C1106 C1105 1.362 . S
C1106 C1107 1.366 . S
C1107 C1104 1.365 . S
C1107 C1106 1.366 . S
C1107 H1121 0.930 . S
C1108 C1105 1.378 . S
C1108 N1109 1.315 . S
C1108 H1111 0.930 . S
N1109 Co1089 2.194 . S
N1109 C1104 1.328 . S
N1109 C1108 1.315 . S
H1110 C1104 0.929 . S
H1111 C1108 0.930 . S
H1112 C1100 0.929 . S
H1113 C1102 0.929 . S
O1114 Co1089 2.351 . S
O1114 C1117 1.244 . S
O1115 Co1089 2.155 . S
O1115 C1117 1.240 . S
O1116 Co1089 2.096 . S
O1116 C1097 1.247 . S
C1117 O1114 1.244 . S
C1117 O1115 1.240 . S
H1118 C1092 0.931 . S
H1119 C1101 0.931 . S
H1120 C1105 0.929 . S
H1121 C1107 0.930 . S
Co1122 N1126 2.148 . S
Co1122 N1132 2.128 . S
Co1122 N1142 2.194 . S
Co1122 O1147 2.351 . S
Co1122 O1148 2.155 . S
Co1122 O1149 2.096 . S
C1123 N1126 1.301 . S
C1123 N1127 1.328 . S
C1123 H1128 0.930 . S
C1124 C1125 1.333 . S
C1124 N1126 1.317 . S
C1124 H1129 0.930 . S
C1125 C1124 1.333 . S
C1125 N1127 1.350 . S
C1125 H1151 0.931 . S
N1126 Co1122 2.148 . S
N1126 C1123 1.301 . S
N1126 C1124 1.317 . S
N1127 C1123 1.328 . S
N1127 C1125 1.350 . S
H1128 C1123 0.930 . S
H1129 C1124 0.930 . S
C1130 O1131 1.224 . S
C1130 O1149 1.247 . S
O1131 C1130 1.224 . S
N1132 Co1122 2.128 . S
N1132 C1133 1.355 . S
N1132 C1135 1.311 . S
C1133 N1132 1.355 . S
C1133 C1134 1.363 . S
C1133 H1145 0.929 . S
C1134 C1133 1.363 . S
C1134 N1136 1.375 . S
C1134 H1152 0.931 . S
C1135 N1132 1.311 . S
C1135 N1136 1.347 . S
C1135 H1146 0.929 . S
N1136 C1134 1.375 . S
N1136 C1135 1.347 . S
C1137 C1140 1.365 . S
C1137 N1142 1.328 . S
C1137 H1143 0.929 . S
C1138 C1139 1.362 . S
C1138 C1141 1.378 . S
C1138 H1153 0.929 . S
C1139 C1138 1.362 . S
C1139 C1140 1.366 . S
C1140 C1137 1.365 . S
C1140 C1139 1.366 . S
C1140 H1154 0.930 . S
C1141 C1138 1.378 . S
C1141 N1142 1.315 . S
C1141 H1144 0.930 . S
N1142 Co1122 2.194 . S
N1142 C1137 1.328 . S
N1142 C1141 1.315 . S
H1143 C1137 0.929 . S
H1144 C1141 0.930 . S
H1145 C1133 0.929 . S
H1146 C1135 0.929 . S
O1147 Co1122 2.351 . S
O1147 C1150 1.244 . S
O1148 Co1122 2.155 . S
O1148 C1150 1.240 . S
O1149 Co1122 2.096 . S
O1149 C1130 1.247 . S
C1150 O1147 1.244 . S
C1150 O1148 1.240 . S
H1151 C1125 0.931 . S
H1152 C1134 0.931 . S
H1153 C1138 0.929 . S
H1154 C1140 0.930 . S
Co1155 N1159 2.148 . S
Co1155 N1165 2.128 . S
Co1155 N1175 2.194 . S
Co1155 O1180 2.351 . S
Co1155 O1181 2.155 . S
Co1155 O1182 2.096 . S
C1156 N1159 1.301 . S
C1156 N1160 1.328 . S
C1156 H1161 0.930 . S
C1157 C1158 1.333 . S
C1157 N1159 1.317 . S
C1157 H1162 0.930 . S
C1158 C1157 1.333 . S
C1158 N1160 1.350 . S
C1158 H1184 0.931 . S
N1159 Co1155 2.148 . S
N1159 C1156 1.301 . S
N1159 C1157 1.317 . S
N1160 C1156 1.328 . S
N1160 C1158 1.350 . S
H1161 C1156 0.930 . S
H1162 C1157 0.930 . S
C1163 O1164 1.224 . S
C1163 O1182 1.247 . S
O1164 C1163 1.224 . S
N1165 Co1155 2.128 . S
N1165 C1166 1.355 . S
N1165 C1168 1.311 . S
C1166 N1165 1.355 . S
C1166 C1167 1.363 . S
C1166 H1178 0.929 . S
C1167 C1166 1.363 . S
C1167 N1169 1.375 . S
C1167 H1185 0.931 . S
C1168 N1165 1.311 . S
C1168 N1169 1.347 . S
C1168 H1179 0.929 . S
N1169 C1167 1.375 . S
N1169 C1168 1.347 . S
C1170 C1173 1.365 . S
C1170 N1175 1.328 . S
C1170 H1176 0.929 . S
C1171 C1172 1.362 . S
C1171 C1174 1.378 . S
C1171 H1186 0.929 . S
C1172 C1171 1.362 . S
C1172 C1173 1.366 . S
C1173 C1170 1.365 . S
C1173 C1172 1.366 . S
C1173 H1187 0.930 . S
C1174 C1171 1.378 . S
C1174 N1175 1.315 . S
C1174 H1177 0.930 . S
N1175 Co1155 2.194 . S
N1175 C1170 1.328 . S
N1175 C1174 1.315 . S
H1176 C1170 0.929 . S
H1177 C1174 0.930 . S
H1178 C1166 0.929 . S
H1179 C1168 0.929 . S
O1180 Co1155 2.351 . S
O1180 C1183 1.244 . S
O1181 Co1155 2.155 . S
O1181 C1183 1.240 . S
O1182 Co1155 2.096 . S
O1182 C1163 1.247 . S
C1183 O1180 1.244 . S
C1183 O1181 1.240 . S
H1184 C1158 0.931 . S
H1185 C1167 0.931 . S
H1186 C1171 0.929 . S
H1187 C1173 0.930 . S
C1188 C1189 1.349 . S
C1188 C1190 1.327 . S
C1188 H1213 0.950 . S
C1189 C1188 1.349 . S
C1189 C1205 1.349 . S
C1190 C1188 1.327 . S
C1190 C1209 1.429 . S
C1190 H1214 0.950 . S
C1191 C1208 1.574 . S
C1191 C1210 1.368 . S
C1191 H1215 0.949 . S
H1192 C1196 0.949 . S
C1193 C1194 1.349 . S
C1193 C1195 1.327 . S
C1193 H1216 0.950 . S
C1194 C1193 1.349 . S
C1194 C1206 1.349 . S
C1195 C1193 1.327 . S
C1195 C1211 1.429 . S
C1195 H1217 0.950 . S
C1196 H1192 0.949 . S
C1196 C1204 1.574 . S
C1196 C1212 1.368 . S
H1197 C1205 0.950 . S
H1198 C1203 0.950 . S
H1199 C1204 0.949 . S
H1200 C1206 0.950 . S
H1201 C1207 0.950 . S
H1202 C1208 0.949 . S
C1203 H1198 0.950 . S
C1203 C1205 1.327 . S
C1203 C1209 1.429 . S
C1204 C1196 1.574 . S
C1204 H1199 0.949 . S
C1204 C1210 1.368 . S
C1205 C1189 1.349 . S
C1205 H1197 0.950 . S
C1205 C1203 1.327 . S
C1206 C1194 1.349 . S
C1206 H1200 0.950 . S
C1206 C1207 1.327 . S
C1207 H1201 0.950 . S
C1207 C1206 1.327 . S
C1207 C1211 1.429 . S
C1208 C1191 1.574 . S
C1208 H1202 0.949 . S
C1208 C1212 1.368 . S
C1209 C1190 1.429 . S
C1209 C1203 1.429 . S
C1209 C1210 1.523 . S
C1210 C1191 1.368 . S
C1210 C1204 1.368 . S
C1210 C1209 1.523 . S
C1211 C1195 1.429 . S
C1211 C1207 1.429 . S
C1211 C1212 1.523 . S
C1212 C1196 1.368 . S
C1212 C1208 1.368 . S
C1212 C1211 1.523 . S
H1213 C1188 0.950 . S
H1214 C1190 0.950 . S
H1215 C1191 0.949 . S
H1216 C1193 0.950 . S
H1217 C1195 0.950 . S
C1218 C1219 1.349 . S
C1218 C1220 1.327 . S
C1218 H1243 0.950 . S
C1219 C1218 1.349 . S
C1219 C1235 1.349 . S
C1220 C1218 1.327 . S
C1220 C1239 1.429 . S
C1220 H1244 0.950 . S
C1221 C1238 1.574 . S
C1221 C1240 1.368 . S
C1221 H1245 0.949 . S
H1222 C1226 0.949 . S
C1223 C1224 1.349 . S
C1223 C1225 1.327 . S
C1223 H1246 0.950 . S
C1224 C1223 1.349 . S
C1224 C1236 1.349 . S
C1225 C1223 1.327 . S
C1225 C1241 1.429 . S
C1225 H1247 0.950 . S
C1226 H1222 0.949 . S
C1226 C1234 1.574 . S
C1226 C1242 1.368 . S
H1227 C1235 0.950 . S
H1228 C1233 0.950 . S
H1229 C1234 0.949 . S
H1230 C1236 0.950 . S
H1231 C1237 0.950 . S
H1232 C1238 0.949 . S
C1233 H1228 0.950 . S
C1233 C1235 1.327 . S
C1233 C1239 1.429 . S
C1234 C1226 1.574 . S
C1234 H1229 0.949 . S
C1234 C1240 1.368 . S
C1235 C1219 1.349 . S
C1235 H1227 0.950 . S
C1235 C1233 1.327 . S
C1236 C1224 1.349 . S
C1236 H1230 0.950 . S
C1236 C1237 1.327 . S
C1237 H1231 0.950 . S
C1237 C1236 1.327 . S
C1237 C1241 1.429 . S
C1238 C1221 1.574 . S
C1238 H1232 0.949 . S
C1238 C1242 1.368 . S
C1239 C1220 1.429 . S
C1239 C1233 1.429 . S
C1239 C1240 1.523 . S
C1240 C1221 1.368 . S
C1240 C1234 1.368 . S
C1240 C1239 1.523 . S
C1241 C1225 1.429 . S
C1241 C1237 1.429 . S
C1241 C1242 1.523 . S
C1242 C1226 1.368 . S
C1242 C1238 1.368 . S
C1242 C1241 1.523 . S
H1243 C1218 0.950 . S
H1244 C1220 0.950 . S
H1245 C1221 0.949 . S
H1246 C1223 0.950 . S
H1247 C1225 0.950 . S
C1248 C1249 1.349 . S
C1248 C1250 1.327 . S
C1248 H1273 0.950 . S
C1249 C1248 1.349 . S
C1249 C1265 1.349 . S
C1250 C1248 1.327 . S
C1250 C1269 1.429 . S
C1250 H1274 0.950 . S
C1251 C1268 1.574 . S
C1251 C1270 1.368 . S
C1251 H1275 0.949 . S
H1252 C1256 0.949 . S
C1253 C1254 1.349 . S
C1253 C1255 1.327 . S
C1253 H1276 0.950 . S
C1254 C1253 1.349 . S
C1254 C1266 1.349 . S
C1255 C1253 1.327 . S
C1255 C1271 1.429 . S
C1255 H1277 0.950 . S
C1256 H1252 0.949 . S
C1256 C1264 1.574 . S
C1256 C1272 1.368 . S
H1257 C1265 0.950 . S
H1258 C1263 0.950 . S
H1259 C1264 0.949 . S
H1260 C1266 0.950 . S
H1261 C1267 0.950 . S
H1262 C1268 0.949 . S
C1263 H1258 0.950 . S
C1263 C1265 1.327 . S
C1263 C1269 1.429 . S
C1264 C1256 1.574 . S
C1264 H1259 0.949 . S
C1264 C1270 1.368 . S
C1265 C1249 1.349 . S
C1265 H1257 0.950 . S
C1265 C1263 1.327 . S
C1266 C1254 1.349 . S
C1266 H1260 0.950 . S
C1266 C1267 1.327 . S
C1267 H1261 0.950 . S
C1267 C1266 1.327 . S
C1267 C1271 1.429 . S
C1268 C1251 1.574 . S
C1268 H1262 0.949 . S
C1268 C1272 1.368 . S
C1269 C1250 1.429 . S
C1269 C1263 1.429 . S
C1269 C1270 1.523 . S
C1270 C1251 1.368 . S
C1270 C1264 1.368 . S
C1270 C1269 1.523 . S
C1271 C1255 1.429 . S
C1271 C1267 1.429 . S
C1271 C1272 1.523 . S
C1272 C1256 1.368 . S
C1272 C1268 1.368 . S
C1272 C1271 1.523 . S
H1273 C1248 0.950 . S
H1274 C1250 0.950 . S
H1275 C1251 0.949 . S
H1276 C1253 0.950 . S
H1277 C1255 0.950 . S
C1278 C1279 1.349 . S
C1278 C1280 1.327 . S
C1278 H1303 0.950 . S
C1279 C1278 1.349 . S
C1279 C1295 1.349 . S
C1280 C1278 1.327 . S
C1280 C1299 1.429 . S
C1280 H1304 0.950 . S
C1281 C1298 1.574 . S
C1281 C1300 1.368 . S
C1281 H1305 0.949 . S
H1282 C1286 0.949 . S
C1283 C1284 1.349 . S
C1283 C1285 1.327 . S
C1283 H1306 0.950 . S
C1284 C1283 1.349 . S
C1284 C1296 1.349 . S
C1285 C1283 1.327 . S
C1285 C1301 1.429 . S
C1285 H1307 0.950 . S
C1286 H1282 0.949 . S
C1286 C1294 1.574 . S
C1286 C1302 1.368 . S
H1287 C1295 0.950 . S
H1288 C1293 0.950 . S
H1289 C1294 0.949 . S
H1290 C1296 0.950 . S
H1291 C1297 0.950 . S
H1292 C1298 0.949 . S
C1293 H1288 0.950 . S
C1293 C1295 1.327 . S
C1293 C1299 1.429 . S
C1294 C1286 1.574 . S
C1294 H1289 0.949 . S
C1294 C1300 1.368 . S
C1295 C1279 1.349 . S
C1295 H1287 0.950 . S
C1295 C1293 1.327 . S
C1296 C1284 1.349 . S
C1296 H1290 0.950 . S
C1296 C1297 1.327 . S
C1297 H1291 0.950 . S
C1297 C1296 1.327 . S
C1297 C1301 1.429 . S
C1298 C1281 1.574 . S
C1298 H1292 0.949 . S
C1298 C1302 1.368 . S
C1299 C1280 1.429 . S
C1299 C1293 1.429 . S
C1299 C1300 1.523 . S
C1300 C1281 1.368 . S
C1300 C1294 1.368 . S
C1300 C1299 1.523 . S
C1301 C1285 1.429 . S
C1301 C1297 1.429 . S
C1301 C1302 1.523 . S
C1302 C1286 1.368 . S
C1302 C1298 1.368 . S
C1302 C1301 1.523 . S
H1303 C1278 0.950 . S
H1304 C1280 0.950 . S
H1305 C1281 0.949 . S
H1306 C1283 0.950 . S
H1307 C1285 0.950 . S
C1308 C1309 1.349 . S
C1308 C1310 1.327 . S
C1308 H1333 0.950 . S
C1309 C1308 1.349 . S
C1309 C1325 1.349 . S
C1310 C1308 1.327 . S
C1310 C1329 1.429 . S
C1310 H1334 0.950 . S
C1311 C1328 1.574 . S
C1311 C1330 1.368 . S
C1311 H1335 0.949 . S
H1312 C1316 0.949 . S
C1313 C1314 1.349 . S
C1313 C1315 1.327 . S
C1313 H1336 0.950 . S
C1314 C1313 1.349 . S
C1314 C1326 1.349 . S
C1315 C1313 1.327 . S
C1315 C1331 1.429 . S
C1315 H1337 0.950 . S
C1316 H1312 0.949 . S
C1316 C1324 1.574 . S
C1316 C1332 1.368 . S
H1317 C1325 0.950 . S
H1318 C1323 0.950 . S
H1319 C1324 0.949 . S
H1320 C1326 0.950 . S
H1321 C1327 0.950 . S
H1322 C1328 0.949 . S
C1323 H1318 0.950 . S
C1323 C1325 1.327 . S
C1323 C1329 1.429 . S
C1324 C1316 1.574 . S
C1324 H1319 0.949 . S
C1324 C1330 1.368 . S
C1325 C1309 1.349 . S
C1325 H1317 0.950 . S
C1325 C1323 1.327 . S
C1326 C1314 1.349 . S
C1326 H1320 0.950 . S
C1326 C1327 1.327 . S
C1327 H1321 0.950 . S
C1327 C1326 1.327 . S
C1327 C1331 1.429 . S
C1328 C1311 1.574 . S
C1328 H1322 0.949 . S
C1328 C1332 1.368 . S
C1329 C1310 1.429 . S
C1329 C1323 1.429 . S
C1329 C1330 1.523 . S
C1330 C1311 1.368 . S
C1330 C1324 1.368 . S
C1330 C1329 1.523 . S
C1331 C1315 1.429 . S
C1331 C1327 1.429 . S
C1331 C1332 1.523 . S
C1332 C1316 1.368 . S
C1332 C1328 1.368 . S
C1332 C1331 1.523 . S
H1333 C1308 0.950 . S
H1334 C1310 0.950 . S
H1335 C1311 0.949 . S
H1336 C1313 0.950 . S
H1337 C1315 0.950 . S
C1338 C1339 1.349 . S
C1338 C1340 1.327 . S
C1338 H1363 0.950 . S
C1339 C1338 1.349 . S
C1339 C1355 1.349 . S
C1340 C1338 1.327 . S
C1340 C1359 1.429 . S
C1340 H1364 0.950 . S
C1341 C1358 1.574 . S
C1341 C1360 1.368 . S
C1341 H1365 0.949 . S
H1342 C1346 0.949 . S
C1343 C1344 1.349 . S
C1343 C1345 1.327 . S
C1343 H1366 0.950 . S
C1344 C1343 1.349 . S
C1344 C1356 1.349 . S
C1345 C1343 1.327 . S
C1345 C1361 1.429 . S
C1345 H1367 0.950 . S
C1346 H1342 0.949 . S
C1346 C1354 1.574 . S
C1346 C1362 1.368 . S
H1347 C1355 0.950 . S
H1348 C1353 0.950 . S
H1349 C1354 0.949 . S
H1350 C1356 0.950 . S
H1351 C1357 0.950 . S
H1352 C1358 0.949 . S
C1353 H1348 0.950 . S
C1353 C1355 1.327 . S
C1353 C1359 1.429 . S
C1354 C1346 1.574 . S
C1354 H1349 0.949 . S
C1354 C1360 1.368 . S
C1355 C1339 1.349 . S
C1355 H1347 0.950 . S
C1355 C1353 1.327 . S
C1356 C1344 1.349 . S
C1356 H1350 0.950 . S
C1356 C1357 1.327 . S
C1357 H1351 0.950 . S
C1357 C1356 1.327 . S
C1357 C1361 1.429 . S
C1358 C1341 1.574 . S
C1358 H1352 0.949 . S
C1358 C1362 1.368 . S
C1359 C1340 1.429 . S
C1359 C1353 1.429 . S
C1359 C1360 1.523 . S
C1360 C1341 1.368 . S
C1360 C1354 1.368 . S
C1360 C1359 1.523 . S
C1361 C1345 1.429 . S
C1361 C1357 1.429 . S
C1361 C1362 1.523 . S
C1362 C1346 1.368 . S
C1362 C1358 1.368 . S
C1362 C1361 1.523 . S
H1363 C1338 0.950 . S
H1364 C1340 0.950 . S
H1365 C1341 0.949 . S
H1366 C1343 0.950 . S
H1367 C1345 0.950 . S
C1368 C1369 1.349 . S
C1368 C1370 1.327 . S
C1368 H1393 0.950 . S
C1369 C1368 1.349 . S
C1369 C1385 1.349 . S
C1370 C1368 1.327 . S
C1370 C1389 1.429 . S
C1370 H1394 0.950 . S
C1371 C1388 1.574 . S
C1371 C1390 1.368 . S
C1371 H1395 0.949 . S
H1372 C1376 0.949 . S
C1373 C1374 1.349 . S
C1373 C1375 1.327 . S
C1373 H1396 0.950 . S
C1374 C1373 1.349 . S
C1374 C1386 1.349 . S
C1375 C1373 1.327 . S
C1375 C1391 1.429 . S
C1375 H1397 0.950 . S
C1376 H1372 0.949 . S
C1376 C1384 1.574 . S
C1376 C1392 1.368 . S
H1377 C1385 0.950 . S
H1378 C1383 0.950 . S
H1379 C1384 0.949 . S
H1380 C1386 0.950 . S
H1381 C1387 0.950 . S
H1382 C1388 0.949 . S
C1383 H1378 0.950 . S
C1383 C1385 1.327 . S
C1383 C1389 1.429 . S
C1384 C1376 1.574 . S
C1384 H1379 0.949 . S
C1384 C1390 1.368 . S
C1385 C1369 1.349 . S
C1385 H1377 0.950 . S
C1385 C1383 1.327 . S
C1386 C1374 1.349 . S
C1386 H1380 0.950 . S
C1386 C1387 1.327 . S
C1387 H1381 0.950 . S
C1387 C1386 1.327 . S
C1387 C1391 1.429 . S
C1388 C1371 1.574 . S
C1388 H1382 0.949 . S
C1388 C1392 1.368 . S
C1389 C1370 1.429 . S
C1389 C1383 1.429 . S
C1389 C1390 1.523 . S
C1390 C1371 1.368 . S
C1390 C1384 1.368 . S
C1390 C1389 1.523 . S
C1391 C1375 1.429 . S
C1391 C1387 1.429 . S
C1391 C1392 1.523 . S
C1392 C1376 1.368 . S
C1392 C1388 1.368 . S
C1392 C1391 1.523 . S
H1393 C1368 0.950 . S
H1394 C1370 0.950 . S
H1395 C1371 0.949 . S
H1396 C1373 0.950 . S
H1397 C1375 0.950 . S
C1398 C1399 1.349 . S
C1398 C1400 1.327 . S
C1398 H1423 0.950 . S
C1399 C1398 1.349 . S
C1399 C1415 1.349 . S
C1400 C1398 1.327 . S
C1400 C1419 1.429 . S
C1400 H1424 0.950 . S
C1401 C1418 1.574 . S
C1401 C1420 1.368 . S
C1401 H1425 0.949 . S
H1402 C1406 0.949 . S
C1403 C1404 1.349 . S
C1403 C1405 1.327 . S
C1403 H1426 0.950 . S
C1404 C1403 1.349 . S
C1404 C1416 1.349 . S
C1405 C1403 1.327 . S
C1405 C1421 1.429 . S
C1405 H1427 0.950 . S
C1406 H1402 0.949 . S
C1406 C1414 1.574 . S
C1406 C1422 1.368 . S
H1407 C1415 0.950 . S
H1408 C1413 0.950 . S
H1409 C1414 0.949 . S
H1410 C1416 0.950 . S
H1411 C1417 0.950 . S
H1412 C1418 0.949 . S
C1413 H1408 0.950 . S
C1413 C1415 1.327 . S
C1413 C1419 1.429 . S
C1414 C1406 1.574 . S
C1414 H1409 0.949 . S
C1414 C1420 1.368 . S
C1415 C1399 1.349 . S
C1415 H1407 0.950 . S
C1415 C1413 1.327 . S
C1416 C1404 1.349 . S
C1416 H1410 0.950 . S
C1416 C1417 1.327 . S
C1417 H1411 0.950 . S
C1417 C1416 1.327 . S
C1417 C1421 1.429 . S
C1418 C1401 1.574 . S
C1418 H1412 0.949 . S
C1418 C1422 1.368 . S
C1419 C1400 1.429 . S
C1419 C1413 1.429 . S
C1419 C1420 1.523 . S
C1420 C1401 1.368 . S
C1420 C1414 1.368 . S
C1420 C1419 1.523 . S
C1421 C1405 1.429 . S
C1421 C1417 1.429 . S
C1421 C1422 1.523 . S
C1422 C1406 1.368 . S
C1422 C1418 1.368 . S
C1422 C1421 1.523 . S
H1423 C1398 0.950 . S
H1424 C1400 0.950 . S
H1425 C1401 0.949 . S
H1426 C1403 0.950 . S
H1427 C1405 0.950 . S
C1428 C1429 1.349 . S
C1428 C1430 1.327 . S
C1428 H1453 0.950 . S
C1429 C1428 1.349 . S
C1429 C1445 1.349 . S
C1430 C1428 1.327 . S
C1430 C1449 1.429 . S
C1430 H1454 0.950 . S
C1431 C1448 1.574 . S
C1431 C1450 1.368 . S
C1431 H1455 0.949 . S
H1432 C1436 0.949 . S
C1433 C1434 1.349 . S
C1433 C1435 1.327 . S
C1433 H1456 0.950 . S
C1434 C1433 1.349 . S
C1434 C1446 1.349 . S
C1435 C1433 1.327 . S
C1435 C1451 1.429 . S
C1435 H1457 0.950 . S
C1436 H1432 0.949 . S
C1436 C1444 1.574 . S
C1436 C1452 1.368 . S
H1437 C1445 0.950 . S
H1438 C1443 0.950 . S
H1439 C1444 0.949 . S
H1440 C1446 0.950 . S
H1441 C1447 0.950 . S
H1442 C1448 0.949 . S
C1443 H1438 0.950 . S
C1443 C1445 1.327 . S
C1443 C1449 1.429 . S
C1444 C1436 1.574 . S
C1444 H1439 0.949 . S
C1444 C1450 1.368 . S
C1445 C1429 1.349 . S
C1445 H1437 0.950 . S
C1445 C1443 1.327 . S
C1446 C1434 1.349 . S
C1446 H1440 0.950 . S
C1446 C1447 1.327 . S
C1447 H1441 0.950 . S
C1447 C1446 1.327 . S
C1447 C1451 1.429 . S
C1448 C1431 1.574 . S
C1448 H1442 0.949 . S
C1448 C1452 1.368 . S
C1449 C1430 1.429 . S
C1449 C1443 1.429 . S
C1449 C1450 1.523 . S
C1450 C1431 1.368 . S
C1450 C1444 1.368 . S
C1450 C1449 1.523 . S
C1451 C1435 1.429 . S
C1451 C1447 1.429 . S
C1451 C1452 1.523 . S
C1452 C1436 1.368 . S
C1452 C1448 1.368 . S
C1452 C1451 1.523 . S
H1453 C1428 0.950 . S
H1454 C1430 0.950 . S
H1455 C1431 0.949 . S
H1456 C1433 0.950 . S
H1457 C1435 0.950 . S
C1458 C1459 1.349 . S
C1458 C1460 1.327 . S
C1458 H1483 0.950 . S
C1459 C1458 1.349 . S
C1459 C1475 1.349 . S
C1460 C1458 1.327 . S
C1460 C1479 1.429 . S
C1460 H1484 0.950 . S
C1461 C1478 1.574 . S
C1461 C1480 1.368 . S
C1461 H1485 0.949 . S
H1462 C1466 0.949 . S
C1463 C1464 1.349 . S
C1463 C1465 1.327 . S
C1463 H1486 0.950 . S
C1464 C1463 1.349 . S
C1464 C1476 1.349 . S
C1465 C1463 1.327 . S
C1465 C1481 1.429 . S
C1465 H1487 0.950 . S
C1466 H1462 0.949 . S
C1466 C1474 1.574 . S
C1466 C1482 1.368 . S
H1467 C1475 0.950 . S
H1468 C1473 0.950 . S
H1469 C1474 0.949 . S
H1470 C1476 0.950 . S
H1471 C1477 0.950 . S
H1472 C1478 0.949 . S
C1473 H1468 0.950 . S
C1473 C1475 1.327 . S
C1473 C1479 1.429 . S
C1474 C1466 1.574 . S
C1474 H1469 0.949 . S
C1474 C1480 1.368 . S
C1475 C1459 1.349 . S
C1475 H1467 0.950 . S
C1475 C1473 1.327 . S
C1476 C1464 1.349 . S
C1476 H1470 0.950 . S
C1476 C1477 1.327 . S
C1477 H1471 0.950 . S
C1477 C1476 1.327 . S
C1477 C1481 1.429 . S
C1478 C1461 1.574 . S
C1478 H1472 0.949 . S
C1478 C1482 1.368 . S
C1479 C1460 1.429 . S
C1479 C1473 1.429 . S
C1479 C1480 1.523 . S
C1480 C1461 1.368 . S
C1480 C1474 1.368 . S
C1480 C1479 1.523 . S
C1481 C1465 1.429 . S
C1481 C1477 1.429 . S
C1481 C1482 1.523 . S
C1482 C1466 1.368 . S
C1482 C1478 1.368 . S
C1482 C1481 1.523 . S
H1483 C1458 0.950 . S
H1484 C1460 0.950 . S
H1485 C1461 0.949 . S
H1486 C1463 0.950 . S
H1487 C1465 0.950 . S
C1488 C1489 1.349 . S
C1488 C1490 1.327 . S
C1488 H1513 0.950 . S
C1489 C1488 1.349 . S
C1489 C1505 1.349 . S
C1490 C1488 1.327 . S
C1490 C1509 1.429 . S
C1490 H1514 0.950 . S
C1491 C1508 1.574 . S
C1491 C1510 1.368 . S
C1491 H1515 0.949 . S
H1492 C1496 0.949 . S
C1493 C1494 1.349 . S
C1493 C1495 1.327 . S
C1493 H1516 0.950 . S
C1494 C1493 1.349 . S
C1494 C1506 1.349 . S
C1495 C1493 1.327 . S
C1495 C1511 1.429 . S
C1495 H1517 0.950 . S
C1496 H1492 0.949 . S
C1496 C1504 1.574 . S
C1496 C1512 1.368 . S
H1497 C1505 0.950 . S
H1498 C1503 0.950 . S
H1499 C1504 0.949 . S
H1500 C1506 0.950 . S
H1501 C1507 0.950 . S
H1502 C1508 0.949 . S
C1503 H1498 0.950 . S
C1503 C1505 1.327 . S
C1503 C1509 1.429 . S
C1504 C1496 1.574 . S
C1504 H1499 0.949 . S
C1504 C1510 1.368 . S
C1505 C1489 1.349 . S
C1505 H1497 0.950 . S
C1505 C1503 1.327 . S
C1506 C1494 1.349 . S
C1506 H1500 0.950 . S
C1506 C1507 1.327 . S
C1507 H1501 0.950 . S
C1507 C1506 1.327 . S
C1507 C1511 1.429 . S
C1508 C1491 1.574 . S
C1508 H1502 0.949 . S
C1508 C1512 1.368 . S
C1509 C1490 1.429 . S
C1509 C1503 1.429 . S
C1509 C1510 1.523 . S
C1510 C1491 1.368 . S
C1510 C1504 1.368 . S
C1510 C1509 1.523 . S
C1511 C1495 1.429 . S
C1511 C1507 1.429 . S
C1511 C1512 1.523 . S
C1512 C1496 1.368 . S
C1512 C1508 1.368 . S
C1512 C1511 1.523 . S
H1513 C1488 0.950 . S
H1514 C1490 0.950 . S
H1515 C1491 0.949 . S
H1516 C1493 0.950 . S
H1517 C1495 0.950 . S
C1518 C1519 1.349 . S
C1518 C1520 1.327 . S
C1518 H1543 0.950 . S
C1519 C1518 1.349 . S
C1519 C1535 1.349 . S
C1520 C1518 1.327 . S
C1520 C1539 1.429 . S
C1520 H1544 0.950 . S
C1521 C1538 1.574 . S
C1521 C1540 1.368 . S
C1521 H1545 0.949 . S
H1522 C1526 0.949 . S
C1523 C1524 1.349 . S
C1523 C1525 1.327 . S
C1523 H1546 0.950 . S
C1524 C1523 1.349 . S
C1524 C1536 1.349 . S
C1525 C1523 1.327 . S
C1525 C1541 1.429 . S
C1525 H1547 0.950 . S
C1526 H1522 0.949 . S
C1526 C1534 1.574 . S
C1526 C1542 1.368 . S
H1527 C1535 0.950 . S
H1528 C1533 0.950 . S
H1529 C1534 0.949 . S
H1530 C1536 0.950 . S
H1531 C1537 0.950 . S
H1532 C1538 0.949 . S
C1533 H1528 0.950 . S
C1533 C1535 1.327 . S
C1533 C1539 1.429 . S
C1534 C1526 1.574 . S
C1534 H1529 0.949 . S
C1534 C1540 1.368 . S
C1535 C1519 1.349 . S
C1535 H1527 0.950 . S
C1535 C1533 1.327 . S
C1536 C1524 1.349 . S
C1536 H1530 0.950 . S
C1536 C1537 1.327 . S
C1537 H1531 0.950 . S
C1537 C1536 1.327 . S
C1537 C1541 1.429 . S
C1538 C1521 1.574 . S
C1538 H1532 0.949 . S
C1538 C1542 1.368 . S
C1539 C1520 1.429 . S
C1539 C1533 1.429 . S
C1539 C1540 1.523 . S
C1540 C1521 1.368 . S
C1540 C1534 1.368 . S
C1540 C1539 1.523 . S
C1541 C1525 1.429 . S
C1541 C1537 1.429 . S
C1541 C1542 1.523 . S
C1542 C1526 1.368 . S
C1542 C1538 1.368 . S
C1542 C1541 1.523 . S
H1543 C1518 0.950 . S
H1544 C1520 0.950 . S
H1545 C1521 0.949 . S
H1546 C1523 0.950 . S
H1547 C1525 0.950 . S
C1548 C1549 1.349 . S
C1548 C1550 1.327 . S
C1548 H1573 0.950 . S
C1549 C1548 1.349 . S
C1549 C1565 1.349 . S
C1550 C1548 1.327 . S
C1550 C1569 1.429 . S
C1550 H1574 0.950 . S
C1551 C1568 1.574 1_655 S
C1551 C1570 1.368 . S
C1551 H1575 0.949 . S
H1552 C1556 0.949 . S
C1553 C1554 1.349 . S
C1553 C1555 1.327 . S
C1553 H1576 0.950 . S
C1554 C1553 1.349 . S
C1554 C1566 1.349 . S
C1555 C1553 1.327 . S
C1555 C1571 1.429 . S
C1555 H1577 0.950 . S
C1556 H1552 0.949 . S
C1556 C1564 1.574 1_455 S
C1556 C1572 1.368 . S
H1557 C1565 0.950 . S
H1558 C1563 0.950 . S
H1559 C1564 0.949 . S
H1560 C1566 0.950 . S
H1561 C1567 0.950 . S
H1562 C1568 0.949 . S
C1563 H1558 0.950 . S
C1563 C1565 1.327 . S
C1563 C1569 1.429 . S
C1564 C1556 1.574 1_655 S
C1564 H1559 0.949 . S
C1564 C1570 1.368 . S
C1565 C1549 1.349 . S
C1565 H1557 0.950 . S
C1565 C1563 1.327 . S
C1566 C1554 1.349 . S
C1566 H1560 0.950 . S
C1566 C1567 1.327 . S
C1567 H1561 0.950 . S
C1567 C1566 1.327 . S
C1567 C1571 1.429 . S
C1568 C1551 1.574 1_455 S
C1568 H1562 0.949 . S
C1568 C1572 1.368 . S
C1569 C1550 1.429 . S
C1569 C1563 1.429 . S
C1569 C1570 1.523 . S
C1570 C1551 1.368 . S
C1570 C1564 1.368 . S
C1570 C1569 1.523 . S
C1571 C1555 1.429 . S
C1571 C1567 1.429 . S
C1571 C1572 1.523 . S
C1572 C1556 1.368 . S
C1572 C1568 1.368 . S
C1572 C1571 1.523 . S
H1573 C1548 0.950 . S
H1574 C1550 0.950 . S
H1575 C1551 0.949 . S
H1576 C1553 0.950 . S
H1577 C1555 0.950 . S
C1578 C1579 1.349 . S
C1578 C1580 1.327 . S
C1578 H1603 0.950 . S
C1579 C1578 1.349 . S
C1579 C1595 1.349 . S
C1580 C1578 1.327 . S
C1580 C1599 1.429 . S
C1580 H1604 0.950 . S
C1581 C1598 1.574 . S
C1581 C1600 1.368 . S
C1581 H1605 0.949 . S
H1582 C1586 0.949 . S
C1583 C1584 1.349 . S
C1583 C1585 1.327 . S
C1583 H1606 0.950 . S
C1584 C1583 1.349 . S
C1584 C1596 1.349 . S
C1585 C1583 1.327 . S
C1585 C1601 1.429 . S
C1585 H1607 0.950 . S
C1586 H1582 0.949 . S
C1586 C1594 1.574 . S
C1586 C1602 1.368 . S
H1587 C1595 0.950 . S
H1588 C1593 0.950 . S
H1589 C1594 0.949 . S
H1590 C1596 0.950 . S
H1591 C1597 0.950 . S
H1592 C1598 0.949 . S
C1593 H1588 0.950 . S
C1593 C1595 1.327 . S
C1593 C1599 1.429 . S
C1594 C1586 1.574 . S
C1594 H1589 0.949 . S
C1594 C1600 1.368 . S
C1595 C1579 1.349 . S
C1595 H1587 0.950 . S
C1595 C1593 1.327 . S
C1596 C1584 1.349 . S
C1596 H1590 0.950 . S
C1596 C1597 1.327 . S
C1597 H1591 0.950 . S
C1597 C1596 1.327 . S
C1597 C1601 1.429 . S
C1598 C1581 1.574 . S
C1598 H1592 0.949 . S
C1598 C1602 1.368 . S
C1599 C1580 1.429 . S
C1599 C1593 1.429 . S
C1599 C1600 1.523 . S
C1600 C1581 1.368 . S
C1600 C1594 1.368 . S
C1600 C1599 1.523 . S
C1601 C1585 1.429 . S
C1601 C1597 1.429 . S
C1601 C1602 1.523 . S
C1602 C1586 1.368 . S
C1602 C1598 1.368 . S
C1602 C1601 1.523 . S
H1603 C1578 0.950 . S
H1604 C1580 0.950 . S
H1605 C1581 0.949 . S
H1606 C1583 0.950 . S
H1607 C1585 0.950 . S
C1608 C1609 1.349 . S
C1608 C1610 1.327 . S
C1608 H1633 0.950 . S
C1609 C1608 1.349 . S
C1609 C1625 1.349 . S
C1610 C1608 1.327 . S
C1610 C1629 1.429 . S
C1610 H1634 0.950 . S
C1611 C1628 1.574 1_565 S
C1611 C1630 1.368 . S
C1611 H1635 0.949 . S
H1612 C1616 0.949 . S
C1613 C1614 1.349 . S
C1613 C1615 1.327 . S
C1613 H1636 0.950 . S
C1614 C1613 1.349 . S
C1614 C1626 1.349 . S
C1615 C1613 1.327 . S
C1615 C1631 1.429 . S
C1615 H1637 0.950 . S
C1616 H1612 0.949 . S
C1616 C1624 1.574 1_545 S
C1616 C1632 1.368 . S
H1617 C1625 0.950 . S
H1618 C1623 0.950 . S
H1619 C1624 0.949 . S
H1620 C1626 0.950 . S
H1621 C1627 0.950 . S
H1622 C1628 0.949 . S
C1623 H1618 0.950 . S
C1623 C1625 1.327 . S
C1623 C1629 1.429 . S
C1624 C1616 1.574 1_565 S
C1624 H1619 0.949 . S
C1624 C1630 1.368 . S
C1625 C1609 1.349 . S
C1625 H1617 0.950 . S
C1625 C1623 1.327 . S
C1626 C1614 1.349 . S
C1626 H1620 0.950 . S
C1626 C1627 1.327 . S
C1627 H1621 0.950 . S
C1627 C1626 1.327 . S
C1627 C1631 1.429 . S
C1628 C1611 1.574 1_545 S
C1628 H1622 0.949 . S
C1628 C1632 1.368 . S
C1629 C1610 1.429 . S
C1629 C1623 1.429 . S
C1629 C1630 1.523 . S
C1630 C1611 1.368 . S
C1630 C1624 1.368 . S
C1630 C1629 1.523 . S
C1631 C1615 1.429 . S
C1631 C1627 1.429 . S
C1631 C1632 1.523 . S
C1632 C1616 1.368 . S
C1632 C1628 1.368 . S
C1632 C1631 1.523 . S
H1633 C1608 0.950 . S
H1634 C1610 0.950 . S
H1635 C1611 0.949 . S
H1636 C1613 0.950 . S
H1637 C1615 0.950 . S
C1638 C1639 1.349 . S
C1638 C1640 1.327 . S
C1638 H1663 0.950 . S
C1639 C1638 1.349 . S
C1639 C1655 1.349 . S
C1640 C1638 1.327 . S
C1640 C1659 1.429 . S
C1640 H1664 0.950 1_554 S
C1641 C1658 1.649 . S
C1641 C1660 1.315 1_545 S
C1641 H1665 0.934 . S
H1642 C1646 0.934 . S
C1643 C1644 1.349 . S
C1643 C1645 1.327 . S
C1643 H1666 0.950 . S
C1644 C1643 1.349 . S
C1644 C1656 1.349 . S
C1645 C1643 1.327 . S
C1645 C1661 1.429 . S
C1645 H1667 0.950 1_556 S
C1646 H1642 0.934 . S
C1646 C1654 1.649 . S
C1646 C1662 1.315 1_565 S
H1647 C1655 0.950 . S
H1648 C1653 0.950 . S
H1649 C1654 0.949 . S
H1650 C1656 0.950 . S
H1651 C1657 0.950 . S
H1652 C1658 0.949 . S
C1653 H1648 0.950 . S
C1653 C1655 1.327 . S
C1653 C1659 1.429 . S
C1654 C1646 1.649 . S
C1654 H1649 0.949 . S
C1654 C1660 1.368 1_556 S
C1655 C1639 1.349 . S
C1655 H1647 0.950 . S
C1655 C1653 1.327 . S
C1656 C1644 1.349 . S
C1656 H1650 0.950 . S
C1656 C1657 1.327 . S
C1657 H1651 0.950 . S
C1657 C1656 1.327 . S
C1657 C1661 1.429 . S
C1658 C1641 1.649 . S
C1658 H1652 0.949 . S
C1658 C1662 1.368 1_554 S
C1659 C1640 1.429 . S
C1659 C1653 1.429 . S
C1659 C1660 1.523 . S
C1660 C1641 1.315 1_565 S
C1660 C1654 1.368 1_554 S
C1660 C1659 1.523 . S
C1661 C1645 1.429 . S
C1661 C1657 1.429 . S
C1661 C1662 1.523 . S
C1662 C1646 1.315 1_545 S
C1662 C1658 1.368 1_556 S
C1662 C1661 1.523 . S
H1663 C1638 0.950 . S
H1664 C1640 0.950 1_556 S
H1665 C1641 0.934 . S
H1666 C1643 0.950 . S
H1667 C1645 0.950 1_554 S
C1668 C1669 1.349 . S
C1668 C1670 1.327 . S
C1668 H1693 0.950 . S
C1669 C1668 1.349 . S
C1669 C1685 1.349 . S
C1670 C1668 1.327 . S
C1670 C1689 1.429 . S
C1670 H1694 0.950 . S
C1671 C1688 1.574 . S
C1671 C1690 1.368 1_455 S
C1671 H1695 0.949 . S
H1672 C1676 0.949 . S
C1673 C1674 1.349 . S
C1673 C1675 1.327 . S
C1673 H1696 0.950 . S
C1674 C1673 1.349 . S
C1674 C1686 1.349 . S
C1675 C1673 1.327 . S
C1675 C1691 1.429 . S
C1675 H1697 0.950 . S
C1676 H1672 0.949 . S
C1676 C1684 1.574 . S
C1676 C1692 1.368 1_655 S
H1677 C1685 0.950 . S
H1678 C1683 0.950 . S
H1679 C1684 0.949 . S
H1680 C1686 0.950 . S
H1681 C1687 0.950 . S
H1682 C1688 0.949 . S
C1683 H1678 0.950 . S
C1683 C1685 1.327 . S
C1683 C1689 1.429 . S
C1684 C1676 1.574 . S
C1684 H1679 0.949 . S
C1684 C1690 1.368 1_554 S
C1685 C1669 1.349 . S
C1685 H1677 0.950 . S
C1685 C1683 1.327 . S
C1686 C1674 1.349 . S
C1686 H1680 0.950 . S
C1686 C1687 1.327 . S
C1687 H1681 0.950 . S
C1687 C1686 1.327 . S
C1687 C1691 1.429 . S
C1688 C1671 1.574 . S
C1688 H1682 0.949 . S
C1688 C1692 1.368 1_556 S
C1689 C1670 1.429 . S
C1689 C1683 1.429 . S
C1689 C1690 1.523 . S
C1690 C1671 1.368 1_655 S
C1690 C1684 1.368 1_556 S
C1690 C1689 1.523 . S
C1691 C1675 1.429 . S
C1691 C1687 1.429 . S
C1691 C1692 1.523 . S
C1692 C1676 1.368 1_455 S
C1692 C1688 1.368 1_554 S
C1692 C1691 1.523 . S
H1693 C1668 0.950 . S
H1694 C1670 0.950 . S
H1695 C1671 0.949 . S
H1696 C1673 0.950 . S
H1697 C1675 0.950 . S
C1698 C1699 1.349 . S
C1698 C1700 1.327 . S
C1698 H1723 0.950 . S
C1699 C1698 1.349 . S
C1699 C1715 1.349 . S
C1700 C1698 1.327 . S
C1700 C1719 1.429 . S
C1700 H1724 0.950 . S
C1701 C1718 1.574 . S
C1701 C1720 1.368 1_556 S
C1701 H1725 0.949 . S
H1702 C1706 0.949 . S
C1703 C1704 1.349 . S
C1703 C1705 1.327 . S
C1703 H1726 0.950 . S
C1704 C1703 1.349 . S
C1704 C1716 1.349 . S
C1705 C1703 1.327 . S
C1705 C1721 1.429 . S
C1705 H1727 0.950 . S
C1706 H1702 0.949 . S
C1706 C1714 1.574 . S
C1706 C1722 1.368 1_554 S
H1707 C1715 0.950 . S
H1708 C1713 0.950 . S
H1709 C1714 0.949 . S
H1710 C1716 0.950 . S
H1711 C1717 0.950 . S
H1712 C1718 0.949 . S
C1713 H1708 0.950 . S
C1713 C1715 1.327 . S
C1713 C1719 1.429 . S
C1714 C1706 1.574 . S
C1714 H1709 0.949 . S
C1714 C1720 1.368 . S
C1715 C1699 1.349 . S
C1715 H1707 0.950 . S
C1715 C1713 1.327 . S
C1716 C1704 1.349 . S
C1716 H1710 0.950 . S
C1716 C1717 1.327 . S
C1717 H1711 0.950 . S
C1717 C1716 1.327 . S
C1717 C1721 1.429 . S
C1718 C1701 1.574 . S
C1718 H1712 0.949 . S
C1718 C1722 1.368 . S
C1719 C1700 1.429 . S
C1719 C1713 1.429 . S
C1719 C1720 1.523 . S
C1720 C1701 1.368 1_554 S
C1720 C1714 1.368 . S
C1720 C1719 1.523 . S
C1721 C1705 1.429 . S
C1721 C1717 1.429 . S
C1721 C1722 1.523 . S
C1722 C1706 1.368 1_556 S
C1722 C1718 1.368 . S
C1722 C1721 1.523 . S
H1723 C1698 0.950 . S
H1724 C1700 0.950 . S
H1725 C1701 0.949 . S
H1726 C1703 0.950 . S
H1727 C1705 0.950 . S
C1728 C1729 1.349 . S
C1728 C1730 1.327 . S
C1728 H1753 0.950 . S
C1729 C1728 1.349 . S
C1729 C1745 1.349 . S
C1730 C1728 1.327 . S
C1730 C1749 1.429 . S
C1730 H1754 0.950 . S
C1731 C1748 1.574 . S
C1731 C1750 1.368 1_556 S
C1731 H1755 0.949 . S
H1732 C1736 0.949 . S
C1733 C1734 1.349 . S
C1733 C1735 1.327 1_565 S
C1733 H1756 0.950 . S
C1734 C1733 1.349 . S
C1734 C1746 1.349 1_556 S
C1735 C1733 1.327 1_545 S
C1735 C1751 1.429 . S
C1735 H1757 0.950 . S
C1736 H1732 0.949 . S
C1736 C1744 1.574 . S
C1736 C1752 1.368 . S
H1737 C1745 0.950 1_556 S
H1738 C1743 0.922 1_556 S
H1739 C1744 0.949 . S
H1740 C1746 0.950 . S
H1741 C1747 0.918 1_545 S
H1742 C1748 0.949 . S
C1743 H1738 0.922 1_554 S
C1743 C1745 1.334 . S
C1743 C1749 1.449 . S
C1744 C1736 1.574 . S
C1744 H1739 0.949 . S
C1744 C1750 1.368 . S
C1745 C1729 1.349 . S
C1745 H1737 0.950 1_554 S
C1745 C1743 1.334 . S
C1746 C1734 1.349 1_554 S
C1746 H1740 0.950 . S
C1746 C1747 1.405 . S
C1747 H1741 0.918 1_565 S
C1747 C1746 1.405 . S
C1747 C1751 1.387 1_564 S
C1748 C1731 1.574 . S
C1748 H1742 0.949 . S
C1748 C1752 1.368 1_556 S
C1749 C1730 1.429 . S
C1749 C1743 1.449 . S
C1749 C1750 1.523 . S
C1750 C1731 1.368 1_554 S
C1750 C1744 1.368 . S
C1750 C1749 1.523 . S
C1751 C1735 1.429 . S
C1751 C1747 1.387 1_546 S
C1751 C1752 1.523 1_556 S
C1752 C1736 1.368 . S
C1752 C1748 1.368 1_554 S
C1752 C1751 1.523 1_554 S
H1753 C1728 0.950 . S
H1754 C1730 0.950 . S
H1755 C1731 0.949 . S
H1756 C1733 0.950 . S
H1757 C1735 0.950 . S
C1758 C1759 1.349 . S
C1758 C1760 1.327 . S
C1758 H1783 0.967 . S
C1759 C1758 1.349 . S
C1759 C1775 1.349 . S
C1760 C1758 1.327 . S
C1760 C1779 1.429 . S
C1760 H1784 0.950 1_554 S
C1761 C1778 1.574 . S
C1761 C1780 1.368 . S
C1761 H1785 0.949 . S
H1762 C1766 0.949 . S
C1763 C1764 1.349 1_554 S
C1763 C1765 1.327 . S
C1763 H1786 0.950 . S
C1764 C1763 1.349 1_556 S
C1764 C1776 1.349 . S
C1765 C1763 1.327 . S
C1765 C1781 1.429 1_454 S
C1765 H1787 0.956 1_455 S
C1766 H1762 0.949 . S
C1766 C1774 1.574 . S
C1766 C1782 1.368 1_556 S
H1767 C1775 0.950 . S
H1768 C1773 0.950 . S
H1769 C1774 0.949 . S
H1770 C1776 0.950 . S
H1771 C1777 0.950 . S
H1772 C1778 0.949 . S
C1773 H1768 0.950 . S
C1773 C1775 1.327 . S
C1773 C1779 1.429 . S
C1774 C1766 1.574 . S
C1774 H1769 0.949 . S
C1774 C1780 1.368 1_556 S
C1775 C1759 1.349 . S
C1775 H1767 0.950 . S
C1775 C1773 1.327 . S
C1776 C1764 1.349 . S
C1776 H1770 0.950 . S
C1776 C1777 1.327 1_455 S
C1777 H1771 0.950 . S
C1777 C1776 1.327 1_655 S
C1777 C1781 1.429 . S
C1778 C1761 1.574 . S
C1778 H1772 0.949 . S
C1778 C1782 1.368 . S
C1779 C1760 1.429 . S
C1779 C1773 1.429 . S
C1779 C1780 1.523 . S
C1780 C1761 1.368 . S
C1780 C1774 1.368 1_554 S
C1780 C1779 1.523 . S
C1781 C1765 1.429 1_656 S
C1781 C1777 1.429 . S
C1781 C1782 1.523 1_556 S
C1782 C1766 1.368 1_554 S
C1782 C1778 1.368 . S
C1782 C1781 1.523 1_554 S
H1783 C1758 0.967 . S
H1784 C1760 0.950 1_556 S
H1785 C1761 0.949 . S
H1786 C1763 0.950 . S
H1787 C1765 0.956 1_655 S
C1788 C1789 1.349 . S
C1788 C1790 1.327 . S
C1788 H1813 0.950 . S
C1789 C1788 1.349 . S
C1789 C1805 1.349 . S
C1790 C1788 1.327 . S
C1790 C1809 1.429 . S
C1790 H1814 0.950 . S
C1791 C1808 1.572 1_554 S
C1791 C1810 1.372 . S
C1791 H1815 0.947 1_554 S
H1792 C1796 0.949 . S
C1793 C1794 1.349 . S
C1793 C1795 1.327 . S
C1793 H1816 0.950 . S
C1794 C1793 1.349 . S
C1794 C1806 1.349 1_556 S
C1795 C1793 1.327 . S
C1795 C1811 1.429 . S
C1795 H1817 0.950 . S
C1796 H1792 0.949 . S
C1796 C1804 1.574 . S
C1796 C1812 1.368 . S
H1797 C1805 0.950 . S
H1798 C1803 0.950 . S
H1799 C1804 0.949 . S
H1800 C1806 0.950 . S
H1801 C1807 0.950 . S
H1802 C1808 0.949 . S
C1803 H1798 0.950 . S
C1803 C1805 1.327 . S
C1803 C1809 1.429 . S
C1804 C1796 1.574 . S
C1804 H1799 0.949 . S
C1804 C1810 1.368 . S
C1805 C1789 1.349 . S
C1805 H1797 0.950 . S
C1805 C1803 1.327 . S
C1806 C1794 1.349 1_554 S
C1806 H1800 0.950 . S
C1806 C1807 1.327 . S
C1807 H1801 0.950 . S
C1807 C1806 1.327 . S
C1807 C1811 1.429 1_554 S
C1808 C1791 1.572 1_556 S
C1808 H1802 0.949 . S
C1808 C1812 1.368 1_556 S
C1809 C1790 1.429 . S
C1809 C1803 1.429 . S
C1809 C1810 1.523 . S
C1810 C1791 1.372 . S
C1810 C1804 1.368 . S
C1810 C1809 1.523 . S
C1811 C1795 1.429 . S
C1811 C1807 1.429 1_556 S
C1811 C1812 1.523 1_556 S
C1812 C1796 1.368 . S
C1812 C1808 1.368 1_554 S
C1812 C1811 1.523 1_554 S
H1813 C1788 0.950 . S
H1814 C1790 0.950 . S
H1815 C1791 0.947 1_556 S
H1816 C1793 0.950 . S
H1817 C1795 0.950 . S
C1818 C1819 1.349 . S
C1818 C1820 1.327 1_655 S
C1818 H1843 0.950 . S
C1819 C1818 1.349 . S
C1819 C1835 1.349 . S
C1820 C1818 1.327 1_455 S
C1820 C1839 1.429 . S
C1820 H1844 0.950 . S
C1821 C1838 1.574 . S
C1821 C1840 1.368 . S
C1821 H1845 0.949 . S
H1822 C1826 0.949 . S
C1823 C1824 1.349 . S
C1823 C1825 1.327 . S
C1823 H1846 0.950 . S
C1824 C1823 1.349 . S
C1824 C1836 1.349 . S
C1825 C1823 1.327 . S
C1825 C1841 1.429 . S
C1825 H1847 0.950 . S
C1826 H1822 0.949 . S
C1826 C1834 1.574 . S
C1826 C1842 1.368 . S
H1827 C1835 0.950 . S
H1828 C1833 0.950 . S
H1829 C1834 0.949 . S
H1830 C1836 0.950 . S
H1831 C1837 0.950 . S
H1832 C1838 0.949 . S
C1833 H1828 0.950 . S
C1833 C1835 1.327 1_455 S
C1833 C1839 1.429 . S
C1834 C1826 1.574 . S
C1834 H1829 0.949 . S
C1834 C1840 1.368 . S
C1835 C1819 1.349 . S
C1835 H1827 0.950 . S
C1835 C1833 1.327 1_655 S
C1836 C1824 1.349 . S
C1836 H1830 0.950 . S
C1836 C1837 1.327 . S
C1837 H1831 0.950 . S
C1837 C1836 1.327 . S
C1837 C1841 1.429 . S
C1838 C1821 1.574 . S
C1838 H1832 0.949 . S
C1838 C1842 1.368 . S
C1839 C1820 1.429 . S
C1839 C1833 1.429 . S
C1839 C1840 1.523 . S
C1840 C1821 1.368 . S
C1840 C1834 1.368 . S
C1840 C1839 1.523 . S
C1841 C1825 1.429 . S
C1841 C1837 1.429 . S
C1841 C1842 1.523 . S
C1842 C1826 1.368 . S
C1842 C1838 1.368 . S
C1842 C1841 1.523 . S
H1843 C1818 0.950 . S
H1844 C1820 0.950 . S
H1845 C1821 0.949 . S
H1846 C1823 0.950 . S
H1847 C1825 0.950 . S
C1848 C1849 1.349 . S
C1848 C1850 1.327 . S
C1848 H1873 0.950 . S
C1849 C1848 1.349 . S
C1849 C1865 1.349 . S
C1850 C1848 1.327 . S
C1850 C1869 1.429 . S
C1850 H1874 0.950 . S
C1851 C1868 1.574 . S
C1851 C1870 1.368 . S
C1851 H1875 0.949 . S
H1852 C1856 0.949 . S
C1853 C1854 1.349 . S
C1853 C1855 1.327 . S
C1853 H1876 0.950 . S
C1854 C1853 1.349 . S
C1854 C1866 1.349 . S
C1855 C1853 1.327 . S
C1855 C1871 1.429 . S
C1855 H1877 0.950 . S
C1856 H1852 0.949 . S
C1856 C1864 1.574 . S
C1856 C1872 1.368 . S
H1857 C1865 0.950 . S
H1858 C1863 0.950 . S
H1859 C1864 0.949 . S
H1860 C1866 0.950 . S
H1861 C1867 0.950 . S
H1862 C1868 0.949 . S
C1863 H1858 0.950 . S
C1863 C1865 1.327 . S
C1863 C1869 1.429 . S
C1864 C1856 1.574 . S
C1864 H1859 0.949 . S
C1864 C1870 1.368 . S
C1865 C1849 1.349 . S
C1865 H1857 0.950 . S
C1865 C1863 1.327 . S
C1866 C1854 1.349 . S
C1866 H1860 0.950 . S
C1866 C1867 1.327 . S
C1867 H1861 0.950 . S
C1867 C1866 1.327 . S
C1867 C1871 1.429 . S
C1868 C1851 1.574 . S
C1868 H1862 0.949 . S
C1868 C1872 1.368 . S
C1869 C1850 1.429 . S
C1869 C1863 1.429 . S
C1869 C1870 1.523 . S
C1870 C1851 1.368 . S
C1870 C1864 1.368 . S
C1870 C1869 1.523 . S
C1871 C1855 1.429 . S
C1871 C1867 1.429 . S
C1871 C1872 1.523 . S
C1872 C1856 1.368 . S
C1872 C1868 1.368 . S
C1872 C1871 1.523 . S
H1873 C1848 0.950 . S
H1874 C1850 0.950 . S
H1875 C1851 0.949 . S
H1876 C1853 0.950 . S
H1877 C1855 0.950 . S
C1878 C1879 1.349 . S
C1878 C1880 1.327 . S
C1878 H1903 0.950 . S
C1879 C1878 1.349 . S
C1879 C1895 1.349 . S
C1880 C1878 1.327 . S
C1880 C1899 1.429 . S
C1880 H1904 0.950 . S
C1881 C1898 1.574 . S
C1881 C1900 1.368 . S
C1881 H1905 0.949 . S
H1882 C1886 0.949 . S
C1883 C1884 1.349 . S
C1883 C1885 1.327 . S
C1883 H1906 0.950 . S
C1884 C1883 1.349 . S
C1884 C1896 1.349 . S
C1885 C1883 1.327 . S
C1885 C1901 1.429 1_545 S
C1885 H1907 0.959 1_545 S
C1886 H1882 0.949 . S
C1886 C1894 1.574 . S
C1886 C1902 1.368 . S
H1887 C1895 0.950 . S
H1888 C1893 0.950 . S
H1889 C1894 0.949 . S
H1890 C1896 0.950 . S
H1891 C1897 0.950 . S
H1892 C1898 0.949 . S
C1893 H1888 0.950 . S
C1893 C1895 1.327 . S
C1893 C1899 1.429 . S
C1894 C1886 1.574 . S
C1894 H1889 0.949 . S
C1894 C1900 1.368 . S
C1895 C1879 1.349 . S
C1895 H1887 0.950 . S
C1895 C1893 1.327 . S
C1896 C1884 1.349 . S
C1896 H1890 0.950 . S
C1896 C1897 1.327 1_545 S
C1897 H1891 0.950 . S
C1897 C1896 1.327 1_565 S
C1897 C1901 1.429 . S
C1898 C1881 1.574 . S
C1898 H1892 0.949 . S
C1898 C1902 1.368 . S
C1899 C1880 1.429 . S
C1899 C1893 1.429 . S
C1899 C1900 1.523 . S
C1900 C1881 1.368 . S
C1900 C1894 1.368 . S
C1900 C1899 1.523 . S
C1901 C1885 1.429 1_565 S
C1901 C1897 1.429 . S
C1901 C1902 1.523 . S
C1902 C1886 1.368 . S
C1902 C1898 1.368 . S
C1902 C1901 1.523 . S
H1903 C1878 0.950 . S
H1904 C1880 0.950 . S
H1905 C1881 0.949 . S
H1906 C1883 0.950 . S
H1907 C1885 0.959 1_565 S
C1908 C1909 1.349 . S
C1908 C1910 1.327 . S
C1908 H1933 0.950 . S
C1909 C1908 1.349 . S
C1909 C1925 1.349 . S
C1910 C1908 1.327 . S
C1910 C1929 1.429 . S
C1910 H1934 0.950 . S
C1911 C1928 1.574 . S
C1911 C1930 1.368 1_554 S
C1911 H1935 0.949 . S
H1912 C1916 0.949 . S
C1913 C1914 1.349 . S
C1913 C1915 1.327 1_545 S
C1913 H1936 0.950 . S
C1914 C1913 1.349 . S
C1914 C1926 1.349 1_554 S
C1915 C1913 1.327 1_565 S
C1915 C1931 1.429 . S
C1915 H1937 0.950 . S
C1916 H1912 0.949 . S
C1916 C1924 1.574 . S
C1916 C1932 1.368 . S
H1917 C1925 0.950 1_554 S
H1918 C1923 0.950 1_554 S
H1919 C1924 0.949 . S
H1920 C1926 0.950 . S
H1921 C1927 0.950 . S
H1922 C1928 0.949 . S
C1923 H1918 0.950 1_556 S
C1923 C1925 1.327 . S
C1923 C1929 1.429 . S
C1924 C1916 1.574 . S
C1924 H1919 0.949 . S
C1924 C1930 1.368 . S
C1925 C1909 1.349 . S
C1925 H1917 0.950 1_556 S
C1925 C1923 1.327 . S
C1926 C1914 1.349 1_556 S
C1926 H1920 0.950 . S
C1926 C1927 1.327 1_545 S
C1927 H1921 0.950 . S
C1927 C1926 1.327 1_565 S
C1927 C1931 1.429 1_556 S
C1928 C1911 1.574 . S
C1928 H1922 0.949 . S
C1928 C1932 1.368 1_554 S
C1929 C1910 1.429 . S
C1929 C1923 1.429 . S
C1929 C1930 1.523 . S
C1930 C1911 1.368 1_556 S
C1930 C1924 1.368 . S
C1930 C1929 1.523 . S
C1931 C1915 1.429 . S
C1931 C1927 1.429 1_554 S
C1931 C1932 1.523 1_554 S
C1932 C1916 1.368 . S
C1932 C1928 1.368 1_556 S
C1932 C1931 1.523 1_556 S
H1933 C1908 0.950 . S
H1934 C1910 0.950 . S
H1935 C1911 0.949 . S
H1936 C1913 0.950 . S
H1937 C1915 0.950 . S
C1938 C1939 1.349 . S
C1938 C1940 1.327 . S
C1938 H1963 0.950 . S
C1939 C1938 1.349 . S
C1939 C1955 1.349 . S
C1940 C1938 1.327 . S
C1940 C1959 1.429 . S
C1940 H1964 0.950 . S
C1941 C1958 1.574 . S
C1941 C1960 1.368 . S
C1941 H1965 0.949 . S
H1942 C1946 0.949 . S
C1943 C1944 1.349 1_556 S
C1943 C1945 1.327 1_655 S
C1943 H1966 0.950 . S
C1944 C1943 1.349 1_554 S
C1944 C1956 1.349 . S
C1945 C1943 1.327 1_455 S
C1945 C1961 1.429 1_556 S
C1945 H1967 0.950 . S
C1946 H1942 0.949 . S
C1946 C1954 1.572 1_554 S
C1946 C1962 1.368 1_554 S
H1947 C1955 0.950 . S
H1948 C1953 0.950 . S
H1949 C1954 0.947 1_554 S
H1950 C1956 0.950 . S
H1951 C1957 0.941 . S
H1952 C1958 0.949 . S
C1953 H1948 0.950 . S
C1953 C1955 1.327 . S
C1953 C1959 1.429 . S
C1954 C1946 1.572 1_556 S
C1954 H1949 0.947 1_556 S
C1954 C1960 1.372 . S
C1955 C1939 1.349 . S
C1955 H1947 0.950 . S
C1955 C1953 1.327 . S
C1956 C1944 1.349 . S
C1956 H1950 0.950 . S
C1956 C1957 1.297 1_655 S
C1957 H1951 0.941 . S
C1957 C1956 1.297 1_455 S
C1957 C1961 1.468 . S
C1958 C1941 1.574 . S
C1958 H1952 0.949 . S
C1958 C1962 1.368 . S
C1959 C1940 1.429 . S
C1959 C1953 1.429 . S
C1959 C1960 1.523 . S
C1960 C1941 1.368 . S
C1960 C1954 1.372 . S
C1960 C1959 1.523 . S
C1961 C1945 1.429 1_554 S
C1961 C1957 1.468 . S
C1961 C1962 1.523 1_554 S
C1962 C1946 1.368 1_556 S
C1962 C1958 1.368 . S
C1962 C1961 1.523 1_556 S
H1963 C1938 0.950 . S
H1964 C1940 0.950 . S
H1965 C1941 0.949 . S
H1966 C1943 0.950 . S
H1967 C1945 0.950 . S
C1968 C1969 1.349 . S
C1968 C1970 1.327 . S
C1968 H1993 0.950 . S
C1969 C1968 1.349 . S
C1969 C1985 1.349 1_554 S
C1970 C1968 1.327 . S
C1970 C1989 1.429 . S
C1970 H1994 0.950 . S
C1971 C1988 1.574 . S
C1971 C1990 1.368 . S
C1971 H1995 0.949 . S
H1972 C1976 0.949 . S
C1973 C1974 1.349 . S
C1973 C1975 1.327 . S
C1973 H1996 0.950 . S
C1974 C1973 1.349 . S
C1974 C1986 1.349 . S
C1975 C1973 1.327 . S
C1975 C1991 1.429 . S
C1975 H1997 0.950 . S
C1976 H1972 0.949 . S
C1976 C1984 1.574 . S
C1976 C1992 1.368 1_554 S
H1977 C1985 0.950 . S
H1978 C1983 0.950 . S
H1979 C1984 0.949 . S
H1980 C1986 0.950 1_554 S
H1981 C1987 0.950 1_554 S
H1982 C1988 0.949 . S
C1983 H1978 0.950 . S
C1983 C1985 1.327 . S
C1983 C1989 1.429 1_556 S
C1984 C1976 1.574 . S
C1984 H1979 0.949 . S
C1984 C1990 1.368 1_554 S
C1985 C1969 1.349 1_556 S
C1985 H1977 0.950 . S
C1985 C1983 1.327 . S
C1986 C1974 1.349 . S
C1986 H1980 0.950 1_556 S
C1986 C1987 1.327 . S
C1987 H1981 0.950 1_556 S
C1987 C1986 1.327 . S
C1987 C1991 1.429 . S
C1988 C1971 1.574 . S
C1988 H1982 0.949 . S
C1988 C1992 1.368 . S
C1989 C1970 1.429 . S
C1989 C1983 1.429 1_554 S
C1989 C1990 1.523 1_554 S
C1990 C1971 1.368 . S
C1990 C1984 1.368 1_556 S
C1990 C1989 1.523 1_556 S
C1991 C1975 1.429 . S
C1991 C1987 1.429 . S
C1991 C1992 1.523 . S
C1992 C1976 1.368 1_556 S
C1992 C1988 1.368 . S
C1992 C1991 1.523 . S
H1993 C1968 0.950 . S
H1994 C1970 0.950 . S
H1995 C1971 0.949 . S
H1996 C1973 0.950 . S
H1997 C1975 0.950 . S
C1998 C1999 1.349 . S
C1998 C2000 1.327 . S
C1998 H2023 0.950 . S
C1999 C1998 1.349 . S
C1999 C2015 1.349 . S
C2000 C1998 1.327 . S
C2000 C2019 1.429 . S
C2000 H2024 0.950 . S
C2001 C2018 1.574 . S
C2001 C2020 1.368 . S
C2001 H2025 0.949 . S
H2002 C2006 0.949 . S
C2003 C2004 1.349 . S
C2003 C2005 1.319 . S
C2003 H2026 0.950 . S
C2004 C2003 1.349 . S
C2004 C2016 1.349 . S
C2005 C2003 1.319 . S
C2005 C2021 1.434 1_455 S
C2005 H2027 0.953 1_455 S
C2006 H2002 0.949 . S
C2006 C2014 1.574 . S
C2006 C2022 1.368 . S
H2007 C2015 0.950 . S
H2008 C2013 0.950 . S
H2009 C2014 0.949 . S
H2010 C2016 0.950 . S
H2011 C2017 0.950 . S
H2012 C2018 0.949 . S
C2013 H2008 0.950 . S
C2013 C2015 1.327 . S
C2013 C2019 1.429 . S
C2014 C2006 1.574 . S
C2014 H2009 0.949 . S
C2014 C2020 1.368 . S
C2015 C1999 1.349 . S
C2015 H2007 0.950 . S
C2015 C2013 1.327 . S
C2016 C2004 1.349 . S
C2016 H2010 0.950 . S
C2016 C2017 1.327 1_455 S
C2017 H2011 0.950 . S
C2017 C2016 1.327 1_655 S
C2017 C2021 1.429 . S
C2018 C2001 1.574 . S
C2018 H2012 0.949 . S
C2018 C2022 1.368 . S
C2019 C2000 1.429 . S
C2019 C2013 1.429 . S
C2019 C2020 1.523 . S
C2020 C2001 1.368 . S
C2020 C2014 1.368 . S
C2020 C2019 1.523 . S
C2021 C2005 1.434 1_655 S
C2021 C2017 1.429 . S
C2021 C2022 1.523 . S
C2022 C2006 1.368 . S
C2022 C2018 1.368 . S
C2022 C2021 1.523 . S
H2023 C1998 0.950 . S
H2024 C2000 0.950 . S
H2025 C2001 0.949 . S
H2026 C2003 0.950 . S
H2027 C2005 0.953 1_655 S
C2028 C2029 1.349 . S
C2028 C2030 1.327 . S
C2028 H2053 0.950 . S
C2029 C2028 1.349 . S
C2029 C2045 1.349 . S
C2030 C2028 1.327 . S
C2030 C2049 1.429 . S
C2030 H2054 0.950 . S
C2031 C2048 1.574 . S
C2031 C2050 1.368 . S
C2031 H2055 0.949 . S
H2032 C2036 0.949 . S
C2033 C2034 1.349 . S
C2033 C2035 1.327 . S
C2033 H2056 0.950 . S
C2034 C2033 1.349 . S
C2034 C2046 1.349 . S
C2035 C2033 1.327 . S
C2035 C2051 1.429 . S
C2035 H2057 0.950 . S
C2036 H2032 0.949 . S
C2036 C2044 1.574 . S
C2036 C2052 1.368 . S
H2037 C2045 0.950 . S
H2038 C2043 0.950 . S
H2039 C2044 0.949 . S
H2040 C2046 0.950 . S
H2041 C2047 0.950 . S
H2042 C2048 0.949 . S
C2043 H2038 0.950 . S
C2043 C2045 1.327 . S
C2043 C2049 1.429 . S
C2044 C2036 1.574 . S
C2044 H2039 0.949 . S
C2044 C2050 1.368 . S
C2045 C2029 1.349 . S
C2045 H2037 0.950 . S
C2045 C2043 1.327 . S
C2046 C2034 1.349 . S
C2046 H2040 0.950 . S
C2046 C2047 1.327 . S
C2047 H2041 0.950 . S
C2047 C2046 1.327 . S
C2047 C2051 1.429 . S
C2048 C2031 1.574 . S
C2048 H2042 0.949 . S
C2048 C2052 1.368 . S
C2049 C2030 1.429 . S
C2049 C2043 1.429 . S
C2049 C2050 1.523 . S
C2050 C2031 1.368 . S
C2050 C2044 1.368 . S
C2050 C2049 1.523 . S
C2051 C2035 1.429 . S
C2051 C2047 1.429 . S
C2051 C2052 1.523 . S
C2052 C2036 1.368 . S
C2052 C2048 1.368 . S
C2052 C2051 1.523 . S
H2053 C2028 0.950 . S
H2054 C2030 0.950 . S
H2055 C2031 0.949 . S
H2056 C2033 0.950 . S
H2057 C2035 0.950 . S
C2058 C2059 1.349 . S
C2058 C2060 1.327 . S
C2058 H2083 0.950 . S
C2059 C2058 1.349 . S
C2059 C2075 1.349 . S
C2060 C2058 1.327 . S
C2060 C2079 1.429 . S
C2060 H2084 0.950 . S
C2061 C2078 1.574 . S
C2061 C2080 1.368 . S
C2061 H2085 0.949 . S
H2062 C2066 0.949 . S
C2063 C2064 1.349 . S
C2063 C2065 1.327 1_565 S
C2063 H2086 0.950 . S
C2064 C2063 1.349 . S
C2064 C2076 1.349 . S
C2065 C2063 1.327 1_545 S
C2065 C2081 1.429 . S
C2065 H2087 0.950 . S
C2066 H2062 0.949 . S
C2066 C2074 1.574 . S
C2066 C2082 1.368 . S
H2067 C2075 0.950 . S
H2068 C2073 0.950 . S
H2069 C2074 0.949 . S
H2070 C2076 0.950 . S
H2071 C2077 0.950 . S
H2072 C2078 0.949 . S
C2073 H2068 0.950 . S
C2073 C2075 1.327 . S
C2073 C2079 1.429 . S
C2074 C2066 1.574 . S
C2074 H2069 0.949 . S
C2074 C2080 1.368 . S
C2075 C2059 1.349 . S
C2075 H2067 0.950 . S
C2075 C2073 1.327 . S
C2076 C2064 1.349 . S
C2076 H2070 0.950 . S
C2076 C2077 1.327 1_565 S
C2077 H2071 0.950 . S
C2077 C2076 1.327 1_545 S
C2077 C2081 1.429 . S
C2078 C2061 1.574 . S
C2078 H2072 0.949 . S
C2078 C2082 1.368 . S
C2079 C2060 1.429 . S
C2079 C2073 1.429 . S
C2079 C2080 1.523 . S
C2080 C2061 1.368 . S
C2080 C2074 1.368 . S
C2080 C2079 1.523 . S
C2081 C2065 1.429 . S
C2081 C2077 1.429 . S
C2081 C2082 1.523 . S
C2082 C2066 1.368 . S
C2082 C2078 1.368 . S
C2082 C2081 1.523 . S
H2083 C2058 0.950 . S
H2084 C2060 0.950 . S
H2085 C2061 0.949 . S
H2086 C2063 0.950 . S
H2087 C2065 0.950 . S
C2088 C2089 1.349 . S
C2088 C2090 1.327 . S
C2088 H2113 0.950 . S
C2089 C2088 1.349 . S
C2089 C2105 1.349 . S
C2090 C2088 1.327 . S
C2090 C2109 1.429 . S
C2090 H2114 0.950 . S
C2091 C2108 1.574 . S
C2091 C2110 1.368 . S
C2091 H2115 0.949 . S
H2092 C2096 0.949 . S
C2093 C2094 1.349 . S
C2093 C2095 1.327 . S
C2093 H2116 0.950 . S
C2094 C2093 1.349 . S
C2094 C2106 1.349 . S
C2095 C2093 1.327 . S
C2095 C2111 1.429 . S
C2095 H2117 0.950 . S
C2096 H2092 0.949 . S
C2096 C2104 1.574 . S
C2096 C2112 1.368 . S
H2097 C2105 0.950 . S
H2098 C2103 0.950 . S
H2099 C2104 0.949 . S
H2100 C2106 0.950 . S
H2101 C2107 0.950 . S
H2102 C2108 0.949 . S
C2103 H2098 0.950 . S
C2103 C2105 1.327 . S
C2103 C2109 1.429 . S
C2104 C2096 1.574 . S
C2104 H2099 0.949 . S
C2104 C2110 1.368 . S
C2105 C2089 1.349 . S
C2105 H2097 0.950 . S
C2105 C2103 1.327 . S
C2106 C2094 1.349 . S
C2106 H2100 0.950 . S
C2106 C2107 1.327 . S
C2107 H2101 0.950 . S
C2107 C2106 1.327 . S
C2107 C2111 1.429 . S
C2108 C2091 1.574 . S
C2108 H2102 0.949 . S
C2108 C2112 1.368 . S
C2109 C2090 1.429 . S
C2109 C2103 1.429 . S
C2109 C2110 1.523 . S
C2110 C2091 1.368 . S
C2110 C2104 1.368 . S
C2110 C2109 1.523 . S
C2111 C2095 1.429 . S
C2111 C2107 1.429 . S
C2111 C2112 1.523 . S
C2112 C2096 1.368 . S
C2112 C2108 1.368 . S
C2112 C2111 1.523 . S
H2113 C2088 0.950 . S
H2114 C2090 0.950 . S
H2115 C2091 0.949 . S
H2116 C2093 0.950 . S
H2117 C2095 0.950 . S
C2118 C2119 1.349 . S
C2118 C2120 1.327 . S
C2118 H2143 0.950 . S
C2119 C2118 1.349 . S
C2119 C2135 1.349 . S
C2120 C2118 1.327 . S
C2120 C2139 1.429 . S
C2120 H2144 0.950 . S
C2121 C2138 1.574 . S
C2121 C2140 1.368 . S
C2121 H2145 0.949 . S
H2122 C2126 0.949 . S
C2123 C2124 1.349 . S
C2123 C2125 1.327 . S
C2123 H2146 0.950 . S
C2124 C2123 1.349 . S
C2124 C2136 1.349 . S
C2125 C2123 1.327 . S
C2125 C2141 1.429 . S
C2125 H2147 0.950 . S
C2126 H2122 0.949 . S
C2126 C2134 1.574 . S
C2126 C2142 1.368 . S
H2127 C2135 0.950 . S
H2128 C2133 0.950 . S
H2129 C2134 0.949 . S
H2130 C2136 0.950 . S
H2131 C2137 0.950 . S
H2132 C2138 0.949 . S
C2133 H2128 0.950 . S
C2133 C2135 1.327 . S
C2133 C2139 1.429 . S
C2134 C2126 1.574 . S
C2134 H2129 0.949 . S
C2134 C2140 1.368 . S
C2135 C2119 1.349 . S
C2135 H2127 0.950 . S
C2135 C2133 1.327 . S
C2136 C2124 1.349 . S
C2136 H2130 0.950 . S
C2136 C2137 1.327 . S
C2137 H2131 0.950 . S
C2137 C2136 1.327 . S
C2137 C2141 1.429 . S
C2138 C2121 1.574 . S
C2138 H2132 0.949 . S
C2138 C2142 1.368 . S
C2139 C2120 1.429 . S
C2139 C2133 1.429 . S
C2139 C2140 1.523 . S
C2140 C2121 1.368 . S
C2140 C2134 1.368 . S
C2140 C2139 1.523 . S
C2141 C2125 1.429 . S
C2141 C2137 1.429 . S
C2141 C2142 1.523 . S
C2142 C2126 1.368 . S
C2142 C2138 1.368 . S
C2142 C2141 1.523 . S
H2143 C2118 0.950 . S
H2144 C2120 0.950 . S
H2145 C2121 0.949 . S
H2146 C2123 0.950 . S
H2147 C2125 0.950 . S
C2148 C2149 1.349 . S
C2148 C2150 1.327 . S
C2148 H2173 0.950 . S
C2149 C2148 1.349 . S
C2149 C2165 1.349 . S
C2150 C2148 1.327 . S
C2150 C2169 1.429 . S
C2150 H2174 0.950 . S
C2151 C2168 1.574 . S
C2151 C2170 1.368 . S
C2151 H2175 0.949 . S
H2152 C2156 0.949 . S
C2153 C2154 1.349 . S
C2153 C2155 1.327 . S
C2153 H2176 0.950 . S
C2154 C2153 1.349 . S
C2154 C2166 1.349 . S
C2155 C2153 1.327 . S
C2155 C2171 1.429 . S
C2155 H2177 0.950 . S
C2156 H2152 0.949 . S
C2156 C2164 1.574 . S
C2156 C2172 1.368 . S
H2157 C2165 0.950 . S
H2158 C2163 0.950 . S
H2159 C2164 0.949 . S
H2160 C2166 0.950 . S
H2161 C2167 0.950 . S
H2162 C2168 0.949 . S
C2163 H2158 0.950 . S
C2163 C2165 1.327 . S
C2163 C2169 1.429 . S
C2164 C2156 1.574 . S
C2164 H2159 0.949 . S
C2164 C2170 1.368 . S
C2165 C2149 1.349 . S
C2165 H2157 0.950 . S
C2165 C2163 1.327 . S
C2166 C2154 1.349 . S
C2166 H2160 0.950 . S
C2166 C2167 1.327 . S
C2167 H2161 0.950 . S
C2167 C2166 1.327 . S
C2167 C2171 1.429 . S
C2168 C2151 1.574 . S
C2168 H2162 0.949 . S
C2168 C2172 1.368 . S
C2169 C2150 1.429 . S
C2169 C2163 1.429 . S
C2169 C2170 1.523 . S
C2170 C2151 1.368 . S
C2170 C2164 1.368 . S
C2170 C2169 1.523 . S
C2171 C2155 1.429 . S
C2171 C2167 1.429 . S
C2171 C2172 1.523 . S
C2172 C2156 1.368 . S
C2172 C2168 1.368 . S
C2172 C2171 1.523 . S
H2173 C2148 0.950 . S
H2174 C2150 0.950 . S
H2175 C2151 0.949 . S
H2176 C2153 0.950 . S
H2177 C2155 0.950 . S
C2178 C2179 1.349 . S
C2178 C2180 1.327 . S
C2178 H2203 0.950 . S
C2179 C2178 1.349 . S
C2179 C2195 1.349 . S
C2180 C2178 1.327 . S
C2180 C2199 1.429 . S
C2180 H2204 0.950 . S
C2181 C2198 1.574 . S
C2181 C2200 1.368 . S
C2181 H2205 0.949 . S
H2182 C2186 0.949 . S
C2183 C2184 1.349 . S
C2183 C2185 1.327 . S
C2183 H2206 0.950 . S
C2184 C2183 1.349 . S
C2184 C2196 1.349 . S
C2185 C2183 1.327 . S
C2185 C2201 1.429 . S
C2185 H2207 0.950 . S
C2186 H2182 0.949 . S
C2186 C2194 1.574 . S
C2186 C2202 1.368 . S
H2187 C2195 0.950 . S
H2188 C2193 0.950 . S
H2189 C2194 0.949 . S
H2190 C2196 0.950 . S
H2191 C2197 0.950 . S
H2192 C2198 0.949 . S
C2193 H2188 0.950 . S
C2193 C2195 1.327 . S
C2193 C2199 1.429 . S
C2194 C2186 1.574 . S
C2194 H2189 0.949 . S
C2194 C2200 1.368 . S
C2195 C2179 1.349 . S
C2195 H2187 0.950 . S
C2195 C2193 1.327 . S
C2196 C2184 1.349 . S
C2196 H2190 0.950 . S
C2196 C2197 1.327 . S
C2197 H2191 0.950 . S
C2197 C2196 1.327 . S
C2197 C2201 1.429 . S
C2198 C2181 1.574 . S
C2198 H2192 0.949 . S
C2198 C2202 1.368 . S
C2199 C2180 1.429 . S
C2199 C2193 1.429 . S
C2199 C2200 1.523 . S
C2200 C2181 1.368 . S
C2200 C2194 1.368 . S
C2200 C2199 1.523 . S
C2201 C2185 1.429 . S
C2201 C2197 1.429 . S
C2201 C2202 1.523 . S
C2202 C2186 1.368 . S
C2202 C2198 1.368 . S
C2202 C2201 1.523 . S
H2203 C2178 0.950 . S
H2204 C2180 0.950 . S
H2205 C2181 0.949 . S
H2206 C2183 0.950 . S
H2207 C2185 0.950 . S
C2208 C2209 1.349 . S
C2208 C2210 1.327 . S
C2208 H2233 0.950 . S
C2209 C2208 1.349 . S
C2209 C2225 1.349 . S
C2210 C2208 1.327 . S
C2210 C2229 1.429 . S
C2210 H2234 0.950 . S
C2211 C2228 1.574 . S
C2211 C2230 1.368 . S
C2211 H2235 0.949 . S
H2212 C2216 0.949 . S
C2213 C2214 1.349 . S
C2213 C2215 1.327 . S
C2213 H2236 0.950 . S
C2214 C2213 1.349 . S
C2214 C2226 1.349 . S
C2215 C2213 1.327 . S
C2215 C2231 1.429 . S
C2215 H2237 0.950 . S
C2216 H2212 0.949 . S
C2216 C2224 1.574 . S
C2216 C2232 1.368 . S
H2217 C2225 0.950 . S
H2218 C2223 0.950 . S
H2219 C2224 0.949 . S
H2220 C2226 0.950 . S
H2221 C2227 0.950 . S
H2222 C2228 0.949 . S
C2223 H2218 0.950 . S
C2223 C2225 1.327 . S
C2223 C2229 1.429 . S
C2224 C2216 1.574 . S
C2224 H2219 0.949 . S
C2224 C2230 1.368 . S
C2225 C2209 1.349 . S
C2225 H2217 0.950 . S
C2225 C2223 1.327 . S
C2226 C2214 1.349 . S
C2226 H2220 0.950 . S
C2226 C2227 1.327 . S
C2227 H2221 0.950 . S
C2227 C2226 1.327 . S
C2227 C2231 1.429 . S
C2228 C2211 1.574 . S
C2228 H2222 0.949 . S
C2228 C2232 1.368 . S
C2229 C2210 1.429 . S
C2229 C2223 1.429 . S
C2229 C2230 1.523 . S
C2230 C2211 1.368 . S
C2230 C2224 1.368 . S
C2230 C2229 1.523 . S
C2231 C2215 1.429 . S
C2231 C2227 1.429 . S
C2231 C2232 1.523 . S
C2232 C2216 1.368 . S
C2232 C2228 1.368 . S
C2232 C2231 1.523 . S
H2233 C2208 0.950 . S
H2234 C2210 0.950 . S
H2235 C2211 0.949 . S
H2236 C2213 0.950 . S
H2237 C2215 0.950 . S
C2238 C2239 1.349 . S
C2238 C2240 1.327 . S
C2238 H2263 0.950 . S
C2239 C2238 1.349 . S
C2239 C2255 1.349 . S
C2240 C2238 1.327 . S
C2240 C2259 1.429 . S
C2240 H2264 0.950 . S
C2241 C2258 1.574 . S
C2241 C2260 1.368 . S
C2241 H2265 0.949 . S
H2242 C2246 0.949 . S
C2243 C2244 1.349 . S
C2243 C2245 1.327 . S
C2243 H2266 0.950 . S
C2244 C2243 1.349 . S
C2244 C2256 1.349 . S
C2245 C2243 1.327 . S
C2245 C2261 1.429 . S
C2245 H2267 0.950 . S
C2246 H2242 0.949 . S
C2246 C2254 1.574 . S
C2246 C2262 1.368 . S
H2247 C2255 0.950 . S
H2248 C2253 0.950 . S
H2249 C2254 0.949 . S
H2250 C2256 0.950 . S
H2251 C2257 0.950 . S
H2252 C2258 0.949 . S
C2253 H2248 0.950 . S
C2253 C2255 1.327 . S
C2253 C2259 1.429 . S
C2254 C2246 1.574 . S
C2254 H2249 0.949 . S
C2254 C2260 1.368 . S
C2255 C2239 1.349 . S
C2255 H2247 0.950 . S
C2255 C2253 1.327 . S
C2256 C2244 1.349 . S
C2256 H2250 0.950 . S
C2256 C2257 1.327 . S
C2257 H2251 0.950 . S
C2257 C2256 1.327 . S
C2257 C2261 1.429 . S
C2258 C2241 1.574 . S
C2258 H2252 0.949 . S
C2258 C2262 1.368 . S
C2259 C2240 1.429 . S
C2259 C2253 1.429 . S
C2259 C2260 1.523 . S
C2260 C2241 1.368 . S
C2260 C2254 1.368 . S
C2260 C2259 1.523 . S
C2261 C2245 1.429 . S
C2261 C2257 1.429 . S
C2261 C2262 1.523 . S
C2262 C2246 1.368 . S
C2262 C2258 1.368 . S
C2262 C2261 1.523 . S
H2263 C2238 0.950 . S
H2264 C2240 0.950 . S
H2265 C2241 0.949 . S
H2266 C2243 0.950 . S
H2267 C2245 0.950 . S
C2268 C2269 1.349 . S
C2268 C2270 1.327 . S
C2268 H2293 0.950 . S
C2269 C2268 1.349 . S
C2269 C2285 1.349 . S
C2270 C2268 1.327 . S
C2270 C2289 1.429 . S
C2270 H2294 0.950 . S
C2271 C2288 1.574 . S
C2271 C2290 1.368 . S
C2271 H2295 0.949 . S
H2272 C2276 0.949 . S
C2273 C2274 1.349 . S
C2273 C2275 1.327 . S
C2273 H2296 0.950 . S
C2274 C2273 1.349 . S
C2274 C2286 1.349 . S
C2275 C2273 1.327 . S
C2275 C2291 1.429 . S
C2275 H2297 0.950 . S
C2276 H2272 0.949 . S
C2276 C2284 1.574 . S
C2276 C2292 1.368 . S
H2277 C2285 0.950 . S
H2278 C2283 0.950 . S
H2279 C2284 0.949 . S
H2280 C2286 0.950 . S
H2281 C2287 0.950 . S
H2282 C2288 0.949 . S
C2283 H2278 0.950 . S
C2283 C2285 1.327 . S
C2283 C2289 1.429 . S
C2284 C2276 1.574 . S
C2284 H2279 0.949 . S
C2284 C2290 1.368 . S
C2285 C2269 1.349 . S
C2285 H2277 0.950 . S
C2285 C2283 1.327 . S
C2286 C2274 1.349 . S
C2286 H2280 0.950 . S
C2286 C2287 1.327 . S
C2287 H2281 0.950 . S
C2287 C2286 1.327 . S
C2287 C2291 1.429 . S
C2288 C2271 1.574 . S
C2288 H2282 0.949 . S
C2288 C2292 1.368 . S
C2289 C2270 1.429 . S
C2289 C2283 1.429 . S
C2289 C2290 1.523 . S
C2290 C2271 1.368 . S
C2290 C2284 1.368 . S
C2290 C2289 1.523 . S
C2291 C2275 1.429 . S
C2291 C2287 1.429 . S
C2291 C2292 1.523 . S
C2292 C2276 1.368 . S
C2292 C2288 1.368 . S
C2292 C2291 1.523 . S
H2293 C2268 0.950 . S
H2294 C2270 0.950 . S
H2295 C2271 0.949 . S
H2296 C2273 0.950 . S
H2297 C2275 0.950 . S
C2298 C2299 1.349 . S
C2298 C2300 1.327 . S
C2298 H2323 0.950 . S
C2299 C2298 1.349 . S
C2299 C2315 1.349 . S
C2300 C2298 1.327 . S
C2300 C2319 1.429 . S
C2300 H2324 0.950 . S
C2301 C2318 1.574 . S
C2301 C2320 1.368 . S
C2301 H2325 0.949 . S
H2302 C2306 0.949 . S
C2303 C2304 1.349 . S
C2303 C2305 1.327 . S
C2303 H2326 0.950 . S
C2304 C2303 1.349 . S
C2304 C2316 1.349 . S
C2305 C2303 1.327 . S
C2305 C2321 1.429 . S
C2305 H2327 0.950 . S
C2306 H2302 0.949 . S
C2306 C2314 1.574 . S
C2306 C2322 1.368 . S
H2307 C2315 0.950 . S
H2308 C2313 0.950 . S
H2309 C2314 0.949 . S
H2310 C2316 0.950 . S
H2311 C2317 0.950 . S
H2312 C2318 0.949 . S
C2313 H2308 0.950 . S
C2313 C2315 1.327 . S
C2313 C2319 1.429 . S
C2314 C2306 1.574 . S
C2314 H2309 0.949 . S
C2314 C2320 1.368 . S
C2315 C2299 1.349 . S
C2315 H2307 0.950 . S
C2315 C2313 1.327 . S
C2316 C2304 1.349 . S
C2316 H2310 0.950 . S
C2316 C2317 1.327 . S
C2317 H2311 0.950 . S
C2317 C2316 1.327 . S
C2317 C2321 1.429 . S
C2318 C2301 1.574 . S
C2318 H2312 0.949 . S
C2318 C2322 1.368 . S
C2319 C2300 1.429 . S
C2319 C2313 1.429 . S
C2319 C2320 1.523 . S
C2320 C2301 1.368 . S
C2320 C2314 1.368 . S
C2320 C2319 1.523 . S
C2321 C2305 1.429 . S
C2321 C2317 1.429 . S
C2321 C2322 1.523 . S
C2322 C2306 1.368 . S
C2322 C2318 1.368 . S
C2322 C2321 1.523 . S
H2323 C2298 0.950 . S
H2324 C2300 0.950 . S
H2325 C2301 0.949 . S
H2326 C2303 0.950 . S
H2327 C2305 0.950 . S
C2328 C2329 1.349 . S
C2328 C2330 1.327 . S
C2328 H2353 0.950 . S
C2329 C2328 1.349 . S
C2329 C2345 1.349 . S
C2330 C2328 1.327 . S
C2330 C2349 1.429 . S
C2330 H2354 0.950 . S
C2331 C2348 1.574 . S
C2331 C2350 1.368 . S
C2331 H2355 0.949 . S
H2332 C2336 0.949 . S
C2333 C2334 1.349 . S
C2333 C2335 1.327 . S
C2333 H2356 0.950 . S
C2334 C2333 1.349 . S
C2334 C2346 1.349 . S
C2335 C2333 1.327 . S
C2335 C2351 1.429 . S
C2335 H2357 0.950 . S
C2336 H2332 0.949 . S
C2336 C2344 1.574 . S
C2336 C2352 1.368 . S
H2337 C2345 0.950 . S
H2338 C2343 0.950 . S
H2339 C2344 0.949 . S
H2340 C2346 0.950 . S
H2341 C2347 0.950 . S
H2342 C2348 0.949 . S
C2343 H2338 0.950 . S
C2343 C2345 1.327 . S
C2343 C2349 1.429 . S
C2344 C2336 1.574 . S
C2344 H2339 0.949 . S
C2344 C2350 1.368 . S
C2345 C2329 1.349 . S
C2345 H2337 0.950 . S
C2345 C2343 1.327 . S
C2346 C2334 1.349 . S
C2346 H2340 0.950 . S
C2346 C2347 1.327 . S
C2347 H2341 0.950 . S
C2347 C2346 1.327 . S
C2347 C2351 1.429 . S
C2348 C2331 1.574 . S
C2348 H2342 0.949 . S
C2348 C2352 1.368 . S
C2349 C2330 1.429 . S
C2349 C2343 1.429 . S
C2349 C2350 1.523 . S
C2350 C2331 1.368 . S
C2350 C2344 1.368 . S
C2350 C2349 1.523 . S
C2351 C2335 1.429 . S
C2351 C2347 1.429 . S
C2351 C2352 1.523 . S
C2352 C2336 1.368 . S
C2352 C2348 1.368 . S
C2352 C2351 1.523 . S
H2353 C2328 0.950 . S
H2354 C2330 0.950 . S
H2355 C2331 0.949 . S
H2356 C2333 0.950 . S
H2357 C2335 0.950 . S
C2358 C2359 1.349 . S
C2358 C2360 1.327 . S
C2358 H2383 0.950 . S
C2359 C2358 1.349 . S
C2359 C2375 1.349 . S
C2360 C2358 1.327 . S
C2360 C2379 1.429 . S
C2360 H2384 0.950 . S
C2361 C2378 1.574 . S
C2361 C2380 1.368 . S
C2361 H2385 0.949 . S
H2362 C2366 0.949 . S
C2363 C2364 1.349 . S
C2363 C2365 1.327 . S
C2363 H2386 0.950 . S
C2364 C2363 1.349 . S
C2364 C2376 1.349 . S
C2365 C2363 1.327 . S
C2365 C2381 1.429 . S
C2365 H2387 0.950 . S
C2366 H2362 0.949 . S
C2366 C2374 1.574 . S
C2366 C2382 1.368 . S
H2367 C2375 0.950 . S
H2368 C2373 0.950 . S
H2369 C2374 0.949 . S
H2370 C2376 0.950 . S
H2371 C2377 0.950 . S
H2372 C2378 0.949 . S
C2373 H2368 0.950 . S
C2373 C2375 1.327 . S
C2373 C2379 1.429 . S
C2374 C2366 1.574 . S
C2374 H2369 0.949 . S
C2374 C2380 1.368 . S
C2375 C2359 1.349 . S
C2375 H2367 0.950 . S
C2375 C2373 1.327 . S
C2376 C2364 1.349 . S
C2376 H2370 0.950 . S
C2376 C2377 1.327 . S
C2377 H2371 0.950 . S
C2377 C2376 1.327 . S
C2377 C2381 1.429 . S
C2378 C2361 1.574 . S
C2378 H2372 0.949 . S
C2378 C2382 1.368 . S
C2379 C2360 1.429 . S
C2379 C2373 1.429 . S
C2379 C2380 1.523 . S
C2380 C2361 1.368 . S
C2380 C2374 1.368 . S
C2380 C2379 1.523 . S
C2381 C2365 1.429 . S
C2381 C2377 1.429 . S
C2381 C2382 1.523 . S
C2382 C2366 1.368 . S
C2382 C2378 1.368 . S
C2382 C2381 1.523 . S
H2383 C2358 0.950 . S
H2384 C2360 0.950 . S
H2385 C2361 0.949 . S
H2386 C2363 0.950 . S
H2387 C2365 0.950 . S
C2388 C2389 1.349 . S
C2388 C2390 1.327 . S
C2388 H2413 0.950 . S
C2389 C2388 1.349 . S
C2389 C2405 1.349 . S
C2390 C2388 1.327 . S
C2390 C2409 1.429 . S
C2390 H2414 0.950 . S
C2391 C2408 1.574 . S
C2391 C2410 1.368 . S
C2391 H2415 0.949 . S
H2392 C2396 0.949 . S
C2393 C2394 1.349 . S
C2393 C2395 1.327 . S
C2393 H2416 0.950 . S
C2394 C2393 1.349 . S
C2394 C2406 1.349 . S
C2395 C2393 1.327 . S
C2395 C2411 1.429 . S
C2395 H2417 0.950 . S
C2396 H2392 0.949 . S
C2396 C2404 1.574 . S
C2396 C2412 1.368 . S
H2397 C2405 0.950 . S
H2398 C2403 0.950 . S
H2399 C2404 0.949 . S
H2400 C2406 0.950 . S
H2401 C2407 0.950 . S
H2402 C2408 0.949 . S
C2403 H2398 0.950 . S
C2403 C2405 1.327 . S
C2403 C2409 1.429 . S
C2404 C2396 1.574 . S
C2404 H2399 0.949 . S
C2404 C2410 1.368 . S
C2405 C2389 1.349 . S
C2405 H2397 0.950 . S
C2405 C2403 1.327 . S
C2406 C2394 1.349 . S
C2406 H2400 0.950 . S
C2406 C2407 1.327 . S
C2407 H2401 0.950 . S
C2407 C2406 1.327 . S
C2407 C2411 1.429 . S
C2408 C2391 1.574 . S
C2408 H2402 0.949 . S
C2408 C2412 1.368 . S
C2409 C2390 1.429 . S
C2409 C2403 1.429 . S
C2409 C2410 1.523 . S
C2410 C2391 1.368 . S
C2410 C2404 1.368 . S
C2410 C2409 1.523 . S
C2411 C2395 1.429 . S
C2411 C2407 1.429 . S
C2411 C2412 1.523 . S
C2412 C2396 1.368 . S
C2412 C2408 1.368 . S
C2412 C2411 1.523 . S
H2413 C2388 0.950 . S
H2414 C2390 0.950 . S
H2415 C2391 0.949 . S
H2416 C2393 0.950 . S
H2417 C2395 0.950 . S
C2418 C2419 1.349 . S
C2418 C2420 1.327 . S
C2418 H2443 0.950 . S
C2419 C2418 1.349 . S
C2419 C2435 1.349 . S
C2420 C2418 1.327 . S
C2420 C2439 1.429 . S
C2420 H2444 0.950 . S
C2421 C2438 1.574 . S
C2421 C2440 1.368 . S
C2421 H2445 0.949 . S
H2422 C2426 0.949 . S
C2423 C2424 1.349 . S
C2423 C2425 1.327 . S
C2423 H2446 0.950 . S
C2424 C2423 1.349 . S
C2424 C2436 1.349 . S
C2425 C2423 1.327 . S
C2425 C2441 1.429 . S
C2425 H2447 0.950 . S
C2426 H2422 0.949 . S
C2426 C2434 1.574 . S
C2426 C2442 1.368 . S
H2427 C2435 0.950 . S
H2428 C2433 0.950 . S
H2429 C2434 0.949 . S
H2430 C2436 0.950 . S
H2431 C2437 0.950 . S
H2432 C2438 0.949 . S
C2433 H2428 0.950 . S
C2433 C2435 1.327 . S
C2433 C2439 1.429 . S
C2434 C2426 1.574 . S
C2434 H2429 0.949 . S
C2434 C2440 1.368 . S
C2435 C2419 1.349 . S
C2435 H2427 0.950 . S
C2435 C2433 1.327 . S
C2436 C2424 1.349 . S
C2436 H2430 0.950 . S
C2436 C2437 1.327 . S
C2437 H2431 0.950 . S
C2437 C2436 1.327 . S
C2437 C2441 1.429 . S
C2438 C2421 1.574 . S
C2438 H2432 0.949 . S
C2438 C2442 1.368 . S
C2439 C2420 1.429 . S
C2439 C2433 1.429 . S
C2439 C2440 1.523 . S
C2440 C2421 1.368 . S
C2440 C2434 1.368 . S
C2440 C2439 1.523 . S
C2441 C2425 1.429 . S
C2441 C2437 1.429 . S
C2441 C2442 1.523 . S
C2442 C2426 1.368 . S
C2442 C2438 1.368 . S
C2442 C2441 1.523 . S
H2443 C2418 0.950 . S
H2444 C2420 0.950 . S
H2445 C2421 0.949 . S
H2446 C2423 0.950 . S
H2447 C2425 0.950 . S
C2448 C2449 1.349 . S
C2448 C2450 1.327 . S
C2448 H2473 0.950 . S
C2449 C2448 1.349 . S
C2449 C2465 1.349 . S
C2450 C2448 1.327 . S
C2450 C2469 1.429 . S
C2450 H2474 0.950 . S
C2451 C2468 1.574 . S
C2451 C2470 1.368 . S
C2451 H2475 0.949 . S
H2452 C2456 0.949 . S
C2453 C2454 1.349 . S
C2453 C2455 1.327 . S
C2453 H2476 0.950 . S
C2454 C2453 1.349 . S
C2454 C2466 1.349 . S
C2455 C2453 1.327 . S
C2455 C2471 1.429 . S
C2455 H2477 0.950 . S
C2456 H2452 0.949 . S
C2456 C2464 1.574 . S
C2456 C2472 1.368 . S
H2457 C2465 0.950 . S
H2458 C2463 0.950 . S
H2459 C2464 0.949 . S
H2460 C2466 0.950 . S
H2461 C2467 0.950 . S
H2462 C2468 0.949 . S
C2463 H2458 0.950 . S
C2463 C2465 1.327 . S
C2463 C2469 1.429 . S
C2464 C2456 1.574 . S
C2464 H2459 0.949 . S
C2464 C2470 1.368 . S
C2465 C2449 1.349 . S
C2465 H2457 0.950 . S
C2465 C2463 1.327 . S
C2466 C2454 1.349 . S
C2466 H2460 0.950 . S
C2466 C2467 1.327 . S
C2467 H2461 0.950 . S
C2467 C2466 1.327 . S
C2467 C2471 1.429 . S
C2468 C2451 1.574 . S
C2468 H2462 0.949 . S
C2468 C2472 1.368 . S
C2469 C2450 1.429 . S
C2469 C2463 1.429 . S
C2469 C2470 1.523 . S
C2470 C2451 1.368 . S
C2470 C2464 1.368 . S
C2470 C2469 1.523 . S
C2471 C2455 1.429 . S
C2471 C2467 1.429 . S
C2471 C2472 1.523 . S
C2472 C2456 1.368 . S
C2472 C2468 1.368 . S
C2472 C2471 1.523 . S
H2473 C2448 0.950 . S
H2474 C2450 0.950 . S
H2475 C2451 0.949 . S
H2476 C2453 0.950 . S
H2477 C2455 0.950 . S
C2478 C2479 1.349 . S
C2478 C2480 1.327 . S
C2478 H2503 0.950 . S
C2479 C2478 1.349 . S
C2479 C2495 1.349 . S
C2480 C2478 1.327 . S
C2480 C2499 1.429 . S
C2480 H2504 0.950 . S
C2481 C2498 1.574 . S
C2481 C2500 1.368 . S
C2481 H2505 0.949 . S
H2482 C2486 0.949 . S
C2483 C2484 1.349 . S
C2483 C2485 1.327 . S
C2483 H2506 0.950 . S
C2484 C2483 1.349 . S
C2484 C2496 1.349 . S
C2485 C2483 1.327 . S
C2485 C2501 1.429 . S
C2485 H2507 0.950 . S
C2486 H2482 0.949 . S
C2486 C2494 1.574 . S
C2486 C2502 1.368 . S
H2487 C2495 0.950 . S
H2488 C2493 0.950 . S
H2489 C2494 0.949 . S
H2490 C2496 0.950 . S
H2491 C2497 0.950 . S
H2492 C2498 0.949 . S
C2493 H2488 0.950 . S
C2493 C2495 1.327 . S
C2493 C2499 1.429 . S
C2494 C2486 1.574 . S
C2494 H2489 0.949 . S
C2494 C2500 1.368 . S
C2495 C2479 1.349 . S
C2495 H2487 0.950 . S
C2495 C2493 1.327 . S
C2496 C2484 1.349 . S
C2496 H2490 0.950 . S
C2496 C2497 1.327 . S
C2497 H2491 0.950 . S
C2497 C2496 1.327 . S
C2497 C2501 1.429 . S
C2498 C2481 1.574 . S
C2498 H2492 0.949 . S
C2498 C2502 1.368 . S
C2499 C2480 1.429 . S
C2499 C2493 1.429 . S
C2499 C2500 1.523 . S
C2500 C2481 1.368 . S
C2500 C2494 1.368 . S
C2500 C2499 1.523 . S
C2501 C2485 1.429 . S
C2501 C2497 1.429 . S
C2501 C2502 1.523 . S
C2502 C2486 1.368 . S
C2502 C2498 1.368 . S
C2502 C2501 1.523 . S
H2503 C2478 0.950 . S
H2504 C2480 0.950 . S
H2505 C2481 0.949 . S
H2506 C2483 0.950 . S
H2507 C2485 0.950 . S
C2508 C2509 1.349 . S
C2508 C2510 1.327 . S
C2508 H2533 0.950 . S
C2509 C2508 1.349 . S
C2509 C2525 1.349 . S
C2510 C2508 1.327 . S
C2510 C2529 1.429 . S
C2510 H2534 0.950 . S
C2511 C2528 1.574 . S
C2511 C2530 1.368 . S
C2511 H2535 0.949 . S
H2512 C2516 0.949 . S
C2513 C2514 1.349 . S
C2513 C2515 1.327 . S
C2513 H2536 0.950 . S
C2514 C2513 1.349 . S
C2514 C2526 1.349 . S
C2515 C2513 1.327 . S
C2515 C2531 1.429 . S
C2515 H2537 0.950 . S
C2516 H2512 0.949 . S
C2516 C2524 1.574 . S
C2516 C2532 1.368 . S
H2517 C2525 0.950 . S
H2518 C2523 0.950 . S
H2519 C2524 0.949 . S
H2520 C2526 0.950 . S
H2521 C2527 0.950 . S
H2522 C2528 0.949 . S
C2523 H2518 0.950 . S
C2523 C2525 1.327 . S
C2523 C2529 1.429 . S
C2524 C2516 1.574 . S
C2524 H2519 0.949 . S
C2524 C2530 1.368 . S
C2525 C2509 1.349 . S
C2525 H2517 0.950 . S
C2525 C2523 1.327 . S
C2526 C2514 1.349 . S
C2526 H2520 0.950 . S
C2526 C2527 1.327 . S
C2527 H2521 0.950 . S
C2527 C2526 1.327 . S
C2527 C2531 1.429 . S
C2528 C2511 1.574 . S
C2528 H2522 0.949 . S
C2528 C2532 1.368 . S
C2529 C2510 1.429 . S
C2529 C2523 1.429 . S
C2529 C2530 1.523 . S
C2530 C2511 1.368 . S
C2530 C2524 1.368 . S
C2530 C2529 1.523 . S
C2531 C2515 1.429 . S
C2531 C2527 1.429 . S
C2531 C2532 1.523 . S
C2532 C2516 1.368 . S
C2532 C2528 1.368 . S
C2532 C2531 1.523 . S
H2533 C2508 0.950 . S
H2534 C2510 0.950 . S
H2535 C2511 0.949 . S
H2536 C2513 0.950 . S
H2537 C2515 0.950 . S
C2538 C2539 1.349 . S
C2538 C2540 1.327 . S
C2538 H2563 0.950 . S
C2539 C2538 1.349 . S
C2539 C2555 1.349 . S
C2540 C2538 1.327 . S
C2540 C2559 1.429 . S
C2540 H2564 0.950 . S
C2541 C2558 1.574 . S
C2541 C2560 1.368 . S
C2541 H2565 0.949 . S
H2542 C2546 0.949 . S
C2543 C2544 1.349 . S
C2543 C2545 1.327 . S
C2543 H2566 0.950 . S
C2544 C2543 1.349 . S
C2544 C2556 1.349 . S
C2545 C2543 1.327 . S
C2545 C2561 1.429 . S
C2545 H2567 0.950 . S
C2546 H2542 0.949 . S
C2546 C2554 1.574 . S
C2546 C2562 1.368 . S
H2547 C2555 0.950 . S
H2548 C2553 0.950 . S
H2549 C2554 0.949 . S
H2550 C2556 0.950 . S
H2551 C2557 0.950 . S
H2552 C2558 0.949 . S
C2553 H2548 0.950 . S
C2553 C2555 1.327 . S
C2553 C2559 1.429 . S
C2554 C2546 1.574 . S
C2554 H2549 0.949 . S
C2554 C2560 1.368 . S
C2555 C2539 1.349 . S
C2555 H2547 0.950 . S
C2555 C2553 1.327 . S
C2556 C2544 1.349 . S
C2556 H2550 0.950 . S
C2556 C2557 1.327 . S
C2557 H2551 0.950 . S
C2557 C2556 1.327 . S
C2557 C2561 1.429 . S
C2558 C2541 1.574 . S
C2558 H2552 0.949 . S
C2558 C2562 1.368 . S
C2559 C2540 1.429 . S
C2559 C2553 1.429 . S
C2559 C2560 1.523 . S
C2560 C2541 1.368 . S
C2560 C2554 1.368 . S
C2560 C2559 1.523 . S
C2561 C2545 1.429 . S
C2561 C2557 1.429 . S
C2561 C2562 1.523 . S
C2562 C2546 1.368 . S
C2562 C2558 1.368 . S
C2562 C2561 1.523 . S
H2563 C2538 0.950 . S
H2564 C2540 0.950 . S
H2565 C2541 0.949 . S
H2566 C2543 0.950 . S
H2567 C2545 0.950 . S
C2568 C2569 1.349 . S
C2568 C2570 1.327 . S
C2568 H2593 0.950 . S
C2569 C2568 1.349 . S
C2569 C2585 1.349 . S
C2570 C2568 1.327 . S
C2570 C2589 1.429 . S
C2570 H2594 0.950 . S
C2571 C2588 1.574 . S
C2571 C2590 1.368 . S
C2571 H2595 0.949 . S
H2572 C2576 0.949 . S
C2573 C2574 1.349 . S
C2573 C2575 1.327 . S
C2573 H2596 0.950 . S
C2574 C2573 1.349 . S
C2574 C2586 1.349 . S
C2575 C2573 1.327 . S
C2575 C2591 1.429 . S
C2575 H2597 0.950 . S
C2576 H2572 0.949 . S
C2576 C2584 1.574 . S
C2576 C2592 1.368 . S
H2577 C2585 0.950 . S
H2578 C2583 0.950 . S
H2579 C2584 0.949 . S
H2580 C2586 0.950 . S
H2581 C2587 0.950 . S
H2582 C2588 0.949 . S
C2583 H2578 0.950 . S
C2583 C2585 1.327 . S
C2583 C2589 1.429 . S
C2584 C2576 1.574 . S
C2584 H2579 0.949 . S
C2584 C2590 1.368 . S
C2585 C2569 1.349 . S
C2585 H2577 0.950 . S
C2585 C2583 1.327 . S
C2586 C2574 1.349 . S
C2586 H2580 0.950 . S
C2586 C2587 1.327 . S
C2587 H2581 0.950 . S
C2587 C2586 1.327 . S
C2587 C2591 1.429 . S
C2588 C2571 1.574 . S
C2588 H2582 0.949 . S
C2588 C2592 1.368 . S
C2589 C2570 1.429 . S
C2589 C2583 1.429 . S
C2589 C2590 1.523 . S
C2590 C2571 1.368 . S
C2590 C2584 1.368 . S
C2590 C2589 1.523 . S
C2591 C2575 1.429 . S
C2591 C2587 1.429 . S
C2591 C2592 1.523 . S
C2592 C2576 1.368 . S
C2592 C2588 1.368 . S
C2592 C2591 1.523 . S
H2593 C2568 0.950 . S
H2594 C2570 0.950 . S
H2595 C2571 0.949 . S
H2596 C2573 0.950 . S
H2597 C2575 0.950 . S
C2598 C2599 1.349 . S
C2598 C2600 1.327 . S
C2598 H2623 0.950 . S
C2599 C2598 1.349 . S
C2599 C2615 1.349 . S
C2600 C2598 1.327 . S
C2600 C2619 1.429 . S
C2600 H2624 0.950 . S
C2601 C2618 1.574 . S
C2601 C2620 1.368 . S
C2601 H2625 0.949 . S
H2602 C2606 0.949 . S
C2603 C2604 1.349 . S
C2603 C2605 1.327 . S
C2603 H2626 0.950 . S
C2604 C2603 1.349 . S
C2604 C2616 1.349 . S
C2605 C2603 1.327 . S
C2605 C2621 1.429 . S
C2605 H2627 0.950 . S
C2606 H2602 0.949 . S
C2606 C2614 1.574 . S
C2606 C2622 1.368 . S
H2607 C2615 0.950 . S
H2608 C2613 0.950 . S
H2609 C2614 0.949 . S
H2610 C2616 0.950 . S
H2611 C2617 0.950 . S
H2612 C2618 0.949 . S
C2613 H2608 0.950 . S
C2613 C2615 1.327 . S
C2613 C2619 1.429 . S
C2614 C2606 1.574 . S
C2614 H2609 0.949 . S
C2614 C2620 1.368 . S
C2615 C2599 1.349 . S
C2615 H2607 0.950 . S
C2615 C2613 1.327 . S
C2616 C2604 1.349 . S
C2616 H2610 0.950 . S
C2616 C2617 1.327 . S
C2617 H2611 0.950 . S
C2617 C2616 1.327 . S
C2617 C2621 1.429 . S
C2618 C2601 1.574 . S
C2618 H2612 0.949 . S
C2618 C2622 1.368 . S
C2619 C2600 1.429 . S
C2619 C2613 1.429 . S
C2619 C2620 1.523 . S
C2620 C2601 1.368 . S
C2620 C2614 1.368 . S
C2620 C2619 1.523 . S
C2621 C2605 1.429 . S
C2621 C2617 1.429 . S
C2621 C2622 1.523 . S
C2622 C2606 1.368 . S
C2622 C2618 1.368 . S
C2622 C2621 1.523 . S
H2623 C2598 0.950 . S
H2624 C2600 0.950 . S
H2625 C2601 0.949 . S
H2626 C2603 0.950 . S
H2627 C2605 0.950 . S
C2628 C2629 1.349 . S
C2628 C2630 1.327 . S
C2628 H2653 0.950 . S
C2629 C2628 1.349 . S
C2629 C2645 1.349 . S
C2630 C2628 1.327 . S
C2630 C2649 1.429 . S
C2630 H2654 0.950 . S
C2631 C2648 1.574 . S
C2631 C2650 1.368 . S
C2631 H2655 0.949 . S
H2632 C2636 0.949 . S
C2633 C2634 1.349 . S
C2633 C2635 1.327 . S
C2633 H2656 0.950 . S
C2634 C2633 1.349 . S
C2634 C2646 1.349 . S
C2635 C2633 1.327 . S
C2635 C2651 1.429 . S
C2635 H2657 0.950 . S
C2636 H2632 0.949 . S
C2636 C2644 1.574 . S
C2636 C2652 1.368 . S
H2637 C2645 0.950 . S
H2638 C2643 0.950 . S
H2639 C2644 0.949 . S
H2640 C2646 0.950 . S
H2641 C2647 0.950 . S
H2642 C2648 0.949 . S
C2643 H2638 0.950 . S
C2643 C2645 1.327 . S
C2643 C2649 1.429 . S
C2644 C2636 1.574 . S
C2644 H2639 0.949 . S
C2644 C2650 1.368 . S
C2645 C2629 1.349 . S
C2645 H2637 0.950 . S
C2645 C2643 1.327 . S
C2646 C2634 1.349 . S
C2646 H2640 0.950 . S
C2646 C2647 1.327 . S
C2647 H2641 0.950 . S
C2647 C2646 1.327 . S
C2647 C2651 1.429 . S
C2648 C2631 1.574 . S
C2648 H2642 0.949 . S
C2648 C2652 1.368 . S
C2649 C2630 1.429 . S
C2649 C2643 1.429 . S
C2649 C2650 1.523 . S
C2650 C2631 1.368 . S
C2650 C2644 1.368 . S
C2650 C2649 1.523 . S
C2651 C2635 1.429 . S
C2651 C2647 1.429 . S
C2651 C2652 1.523 . S
C2652 C2636 1.368 . S
C2652 C2648 1.368 . S
C2652 C2651 1.523 . S
H2653 C2628 0.950 . S
H2654 C2630 0.950 . S
H2655 C2631 0.949 . S
H2656 C2633 0.950 . S
H2657 C2635 0.950 . S
C2658 C2659 1.349 . S
C2658 C2660 1.327 . S
C2658 H2683 0.950 . S
C2659 C2658 1.349 . S
C2659 C2675 1.349 . S
C2660 C2658 1.327 . S
C2660 C2679 1.429 . S
C2660 H2684 0.950 . S
C2661 C2678 1.574 . S
C2661 C2680 1.368 . S
C2661 H2685 0.949 . S
H2662 C2666 0.949 . S
C2663 C2664 1.349 . S
C2663 C2665 1.327 . S
C2663 H2686 0.950 . S
C2664 C2663 1.349 . S
C2664 C2676 1.349 . S
C2665 C2663 1.327 . S
C2665 C2681 1.429 . S
C2665 H2687 0.950 . S
C2666 H2662 0.949 . S
C2666 C2674 1.574 . S
C2666 C2682 1.368 . S
H2667 C2675 0.950 . S
H2668 C2673 0.950 . S
H2669 C2674 0.949 . S
H2670 C2676 0.950 . S
H2671 C2677 0.950 . S
H2672 C2678 0.949 . S
C2673 H2668 0.950 . S
C2673 C2675 1.327 . S
C2673 C2679 1.429 . S
C2674 C2666 1.574 . S
C2674 H2669 0.949 . S
C2674 C2680 1.368 . S
C2675 C2659 1.349 . S
C2675 H2667 0.950 . S
C2675 C2673 1.327 . S
C2676 C2664 1.349 . S
C2676 H2670 0.950 . S
C2676 C2677 1.327 . S
C2677 H2671 0.950 . S
C2677 C2676 1.327 . S
C2677 C2681 1.429 . S
C2678 C2661 1.574 . S
C2678 H2672 0.949 . S
C2678 C2682 1.368 . S
C2679 C2660 1.429 . S
C2679 C2673 1.429 . S
C2679 C2680 1.523 . S
C2680 C2661 1.368 . S
C2680 C2674 1.368 . S
C2680 C2679 1.523 . S
C2681 C2665 1.429 . S
C2681 C2677 1.429 . S
C2681 C2682 1.523 . S
C2682 C2666 1.368 . S
C2682 C2678 1.368 . S
C2682 C2681 1.523 . S
H2683 C2658 0.950 . S
H2684 C2660 0.950 . S
H2685 C2661 0.949 . S
H2686 C2663 0.950 . S
H2687 C2665 0.950 . S
C2688 C2689 1.349 . S
C2688 C2690 1.327 . S
C2688 H2713 0.950 . S
C2689 C2688 1.349 . S
C2689 C2705 1.349 . S
C2690 C2688 1.327 . S
C2690 C2709 1.429 . S
C2690 H2714 0.950 . S
C2691 C2708 1.574 . S
C2691 C2710 1.368 . S
C2691 H2715 0.949 . S
H2692 C2696 0.949 . S
C2693 C2694 1.349 . S
C2693 C2695 1.327 . S
C2693 H2716 0.950 . S
C2694 C2693 1.349 . S
C2694 C2706 1.349 . S
C2695 C2693 1.327 . S
C2695 C2711 1.429 . S
C2695 H2717 0.950 . S
C2696 H2692 0.949 . S
C2696 C2704 1.574 . S
C2696 C2712 1.368 . S
H2697 C2705 0.950 . S
H2698 C2703 0.950 . S
H2699 C2704 0.949 . S
H2700 C2706 0.950 . S
H2701 C2707 0.950 . S
H2702 C2708 0.949 . S
C2703 H2698 0.950 . S
C2703 C2705 1.327 . S
C2703 C2709 1.429 . S
C2704 C2696 1.574 . S
C2704 H2699 0.949 . S
C2704 C2710 1.368 . S
C2705 C2689 1.349 . S
C2705 H2697 0.950 . S
C2705 C2703 1.327 . S
C2706 C2694 1.349 . S
C2706 H2700 0.950 . S
C2706 C2707 1.327 . S
C2707 H2701 0.950 . S
C2707 C2706 1.327 . S
C2707 C2711 1.429 . S
C2708 C2691 1.574 . S
C2708 H2702 0.949 . S
C2708 C2712 1.368 . S
C2709 C2690 1.429 . S
C2709 C2703 1.429 . S
C2709 C2710 1.523 . S
C2710 C2691 1.368 . S
C2710 C2704 1.368 . S
C2710 C2709 1.523 . S
C2711 C2695 1.429 . S
C2711 C2707 1.429 . S
C2711 C2712 1.523 . S
C2712 C2696 1.368 . S
C2712 C2708 1.368 . S
C2712 C2711 1.523 . S
H2713 C2688 0.950 . S
H2714 C2690 0.950 . S
H2715 C2691 0.949 . S
H2716 C2693 0.950 . S
H2717 C2695 0.950 . S
C2718 C2719 1.349 . S
C2718 C2720 1.327 . S
C2718 H2743 0.950 . S
C2719 C2718 1.349 . S
C2719 C2735 1.349 . S
C2720 C2718 1.327 . S
C2720 C2739 1.429 . S
C2720 H2744 0.950 . S
C2721 C2738 1.574 . S
C2721 C2740 1.368 . S
C2721 H2745 0.949 . S
H2722 C2726 0.949 . S
C2723 C2724 1.349 . S
C2723 C2725 1.327 . S
C2723 H2746 0.950 . S
C2724 C2723 1.349 . S
C2724 C2736 1.349 . S
C2725 C2723 1.327 . S
C2725 C2741 1.429 . S
C2725 H2747 0.950 . S
C2726 H2722 0.949 . S
C2726 C2734 1.574 . S
C2726 C2742 1.368 . S
H2727 C2735 0.950 . S
H2728 C2733 0.950 . S
H2729 C2734 0.949 . S
H2730 C2736 0.950 . S
H2731 C2737 0.950 . S
H2732 C2738 0.949 . S
C2733 H2728 0.950 . S
C2733 C2735 1.327 . S
C2733 C2739 1.429 . S
C2734 C2726 1.574 . S
C2734 H2729 0.949 . S
C2734 C2740 1.368 . S
C2735 C2719 1.349 . S
C2735 H2727 0.950 . S
C2735 C2733 1.327 . S
C2736 C2724 1.349 . S
C2736 H2730 0.950 . S
C2736 C2737 1.327 . S
C2737 H2731 0.950 . S
C2737 C2736 1.327 . S
C2737 C2741 1.429 . S
C2738 C2721 1.574 . S
C2738 H2732 0.949 . S
C2738 C2742 1.368 . S
C2739 C2720 1.429 . S
C2739 C2733 1.429 . S
C2739 C2740 1.523 . S
C2740 C2721 1.368 . S
C2740 C2734 1.368 . S
C2740 C2739 1.523 . S
C2741 C2725 1.429 . S
C2741 C2737 1.429 . S
C2741 C2742 1.523 . S
C2742 C2726 1.368 . S
C2742 C2738 1.368 . S
C2742 C2741 1.523 . S
H2743 C2718 0.950 . S
H2744 C2720 0.950 . S
H2745 C2721 0.949 . S
H2746 C2723 0.950 . S
H2747 C2725 0.950 . S
C2748 C2749 1.349 . S
C2748 C2750 1.327 . S
C2748 H2773 0.950 . S
C2749 C2748 1.349 . S
C2749 C2765 1.349 . S
C2750 C2748 1.327 . S
C2750 C2769 1.429 . S
C2750 H2774 0.950 . S
C2751 C2768 1.574 . S
C2751 C2770 1.368 . S
C2751 H2775 0.949 . S
H2752 C2756 0.949 . S
C2753 C2754 1.349 . S
C2753 C2755 1.327 . S
C2753 H2776 0.950 . S
C2754 C2753 1.349 . S
C2754 C2766 1.349 . S
C2755 C2753 1.327 . S
C2755 C2771 1.429 . S
C2755 H2777 0.950 . S
C2756 H2752 0.949 . S
C2756 C2764 1.574 . S
C2756 C2772 1.368 . S
H2757 C2765 0.950 . S
H2758 C2763 0.950 . S
H2759 C2764 0.949 . S
H2760 C2766 0.950 . S
H2761 C2767 0.950 . S
H2762 C2768 0.949 . S
C2763 H2758 0.950 . S
C2763 C2765 1.327 . S
C2763 C2769 1.429 . S
C2764 C2756 1.574 . S
C2764 H2759 0.949 . S
C2764 C2770 1.368 . S
C2765 C2749 1.349 . S
C2765 H2757 0.950 . S
C2765 C2763 1.327 . S
C2766 C2754 1.349 . S
C2766 H2760 0.950 . S
C2766 C2767 1.327 . S
C2767 H2761 0.950 . S
C2767 C2766 1.327 . S
C2767 C2771 1.429 . S
C2768 C2751 1.574 . S
C2768 H2762 0.949 . S
C2768 C2772 1.368 . S
C2769 C2750 1.429 . S
C2769 C2763 1.429 . S
C2769 C2770 1.523 . S
C2770 C2751 1.368 . S
C2770 C2764 1.368 . S
C2770 C2769 1.523 . S
C2771 C2755 1.429 . S
C2771 C2767 1.429 . S
C2771 C2772 1.523 . S
C2772 C2756 1.368 . S
C2772 C2768 1.368 . S
C2772 C2771 1.523 . S
H2773 C2748 0.950 . S
H2774 C2750 0.950 . S
H2775 C2751 0.949 . S
H2776 C2753 0.950 . S
H2777 C2755 0.950 . S
C2778 C2779 1.349 . S
C2778 C2780 1.327 . S
C2778 H2803 0.950 . S
C2779 C2778 1.349 . S
C2779 C2795 1.349 . S
C2780 C2778 1.327 . S
C2780 C2799 1.429 . S
C2780 H2804 0.950 . S
C2781 C2798 1.574 . S
C2781 C2800 1.368 . S
C2781 H2805 0.949 . S
H2782 C2786 0.949 . S
C2783 C2784 1.349 . S
C2783 C2785 1.327 . S
C2783 H2806 0.950 . S
C2784 C2783 1.349 . S
C2784 C2796 1.349 . S
C2785 C2783 1.327 . S
C2785 C2801 1.429 . S
C2785 H2807 0.950 . S
C2786 H2782 0.949 . S
C2786 C2794 1.574 . S
C2786 C2802 1.368 . S
H2787 C2795 0.950 . S
H2788 C2793 0.950 . S
H2789 C2794 0.949 . S
H2790 C2796 0.950 . S
H2791 C2797 0.950 . S
H2792 C2798 0.949 . S
C2793 H2788 0.950 . S
C2793 C2795 1.327 . S
C2793 C2799 1.429 . S
C2794 C2786 1.574 . S
C2794 H2789 0.949 . S
C2794 C2800 1.368 . S
C2795 C2779 1.349 . S
C2795 H2787 0.950 . S
C2795 C2793 1.327 . S
C2796 C2784 1.349 . S
C2796 H2790 0.950 . S
C2796 C2797 1.327 . S
C2797 H2791 0.950 . S
C2797 C2796 1.327 . S
C2797 C2801 1.429 . S
C2798 C2781 1.574 . S
C2798 H2792 0.949 . S
C2798 C2802 1.368 . S
C2799 C2780 1.429 . S
C2799 C2793 1.429 . S
C2799 C2800 1.523 . S
C2800 C2781 1.368 . S
C2800 C2794 1.368 . S
C2800 C2799 1.523 . S
C2801 C2785 1.429 . S
C2801 C2797 1.429 . S
C2801 C2802 1.523 . S
C2802 C2786 1.368 . S
C2802 C2798 1.368 . S
C2802 C2801 1.523 . S
H2803 C2778 0.950 . S
H2804 C2780 0.950 . S
H2805 C2781 0.949 . S
H2806 C2783 0.950 . S
H2807 C2785 0.950 . S
C2808 C2809 1.349 . S
C2808 C2810 1.327 . S
C2808 H2833 0.950 . S
C2809 C2808 1.349 . S
C2809 C2825 1.349 . S
C2810 C2808 1.327 . S
C2810 C2829 1.429 . S
C2810 H2834 0.950 . S
C2811 C2828 1.574 . S
C2811 C2830 1.368 . S
C2811 H2835 0.949 . S
H2812 C2816 0.949 . S
C2813 C2814 1.349 . S
C2813 C2815 1.327 . S
C2813 H2836 0.950 . S
C2814 C2813 1.349 . S
C2814 C2826 1.349 . S
C2815 C2813 1.327 . S
C2815 C2831 1.429 . S
C2815 H2837 0.950 . S
C2816 H2812 0.949 . S
C2816 C2824 1.574 . S
C2816 C2832 1.368 . S
H2817 C2825 0.950 . S
H2818 C2823 0.950 . S
H2819 C2824 0.949 . S
H2820 C2826 0.950 . S
H2821 C2827 0.950 . S
H2822 C2828 0.949 . S
C2823 H2818 0.950 . S
C2823 C2825 1.327 . S
C2823 C2829 1.429 . S
C2824 C2816 1.574 . S
C2824 H2819 0.949 . S
C2824 C2830 1.368 . S
C2825 C2809 1.349 . S
C2825 H2817 0.950 . S
C2825 C2823 1.327 . S
C2826 C2814 1.349 . S
C2826 H2820 0.950 . S
C2826 C2827 1.327 . S
C2827 H2821 0.950 . S
C2827 C2826 1.327 . S
C2827 C2831 1.429 . S
C2828 C2811 1.574 . S
C2828 H2822 0.949 . S
C2828 C2832 1.368 . S
C2829 C2810 1.429 . S
C2829 C2823 1.429 . S
C2829 C2830 1.523 . S
C2830 C2811 1.368 . S
C2830 C2824 1.368 . S
C2830 C2829 1.523 . S
C2831 C2815 1.429 . S
C2831 C2827 1.429 . S
C2831 C2832 1.523 . S
C2832 C2816 1.368 . S
C2832 C2828 1.368 . S
C2832 C2831 1.523 . S
H2833 C2808 0.950 . S
H2834 C2810 0.950 . S
H2835 C2811 0.949 . S
H2836 C2813 0.950 . S
H2837 C2815 0.950 . S
C2838 C2839 1.349 . S
C2838 C2840 1.327 . S
C2838 H2863 0.950 . S
C2839 C2838 1.349 . S
C2839 C2855 1.349 . S
C2840 C2838 1.327 . S
C2840 C2859 1.429 . S
C2840 H2864 0.950 . S
C2841 C2858 1.574 1_545 S
C2841 C2860 1.368 . S
C2841 H2865 0.949 . S
H2842 C2846 0.949 . S
C2843 C2844 1.349 . S
C2843 C2845 1.327 . S
C2843 H2866 0.950 . S
C2844 C2843 1.349 . S
C2844 C2856 1.349 . S
C2845 C2843 1.327 . S
C2845 C2861 1.429 . S
C2845 H2867 0.950 . S
C2846 H2842 0.949 . S
C2846 C2854 1.574 1_565 S
C2846 C2862 1.368 . S
H2847 C2855 0.950 . S
H2848 C2853 0.950 . S
H2849 C2854 0.949 . S
H2850 C2856 0.950 . S
H2851 C2857 0.950 . S
H2852 C2858 0.949 . S
C2853 H2848 0.950 . S
C2853 C2855 1.327 . S
C2853 C2859 1.429 . S
C2854 C2846 1.574 1_545 S
C2854 H2849 0.949 . S
C2854 C2860 1.368 . S
C2855 C2839 1.349 . S
C2855 H2847 0.950 . S
C2855 C2853 1.327 . S
C2856 C2844 1.349 . S
C2856 H2850 0.950 . S
C2856 C2857 1.327 . S
C2857 H2851 0.950 . S
C2857 C2856 1.327 . S
C2857 C2861 1.429 . S
C2858 C2841 1.574 1_565 S
C2858 H2852 0.949 . S
C2858 C2862 1.368 . S
C2859 C2840 1.429 . S
C2859 C2853 1.429 . S
C2859 C2860 1.523 . S
C2860 C2841 1.368 . S
C2860 C2854 1.368 . S
C2860 C2859 1.523 . S
C2861 C2845 1.429 . S
C2861 C2857 1.429 . S
C2861 C2862 1.523 . S
C2862 C2846 1.368 . S
C2862 C2858 1.368 . S
C2862 C2861 1.523 . S
H2863 C2838 0.950 . S
H2864 C2840 0.950 . S
H2865 C2841 0.949 . S
H2866 C2843 0.950 . S
H2867 C2845 0.950 . S
C2868 C2869 1.349 . S
C2868 C2870 1.327 . S
C2868 H2893 0.950 . S
C2869 C2868 1.349 . S
C2869 C2885 1.349 . S
C2870 C2868 1.327 . S
C2870 C2889 1.429 . S
C2870 H2894 0.950 . S
C2871 C2888 1.574 . S
C2871 C2890 1.368 1_655 S
C2871 H2895 0.949 . S
H2872 C2876 0.949 . S
C2873 C2874 1.349 . S
C2873 C2875 1.327 . S
C2873 H2896 0.950 . S
C2874 C2873 1.349 . S
C2874 C2886 1.349 . S
C2875 C2873 1.327 . S
C2875 C2891 1.429 . S
C2875 H2897 0.950 . S
C2876 H2872 0.949 . S
C2876 C2884 1.574 . S
C2876 C2892 1.368 1_455 S
H2877 C2885 0.950 . S
H2878 C2883 0.950 . S
H2879 C2884 0.949 . S
H2880 C2886 0.950 . S
H2881 C2887 0.950 . S
H2882 C2888 0.949 . S
C2883 H2878 0.950 . S
C2883 C2885 1.327 . S
C2883 C2889 1.429 . S
C2884 C2876 1.574 . S
C2884 H2879 0.949 . S
C2884 C2890 1.368 . S
C2885 C2869 1.349 . S
C2885 H2877 0.950 . S
C2885 C2883 1.327 . S
C2886 C2874 1.349 . S
C2886 H2880 0.950 . S
C2886 C2887 1.327 . S
C2887 H2881 0.950 . S
C2887 C2886 1.327 . S
C2887 C2891 1.429 . S
C2888 C2871 1.574 . S
C2888 H2882 0.949 . S
C2888 C2892 1.368 . S
C2889 C2870 1.429 . S
C2889 C2883 1.429 . S
C2889 C2890 1.523 . S
C2890 C2871 1.368 1_455 S
C2890 C2884 1.368 . S
C2890 C2889 1.523 . S
C2891 C2875 1.429 . S
C2891 C2887 1.429 . S
C2891 C2892 1.523 . S
C2892 C2876 1.368 1_655 S
C2892 C2888 1.368 . S
C2892 C2891 1.523 . S
H2893 C2868 0.950 . S
H2894 C2870 0.950 . S
H2895 C2871 0.949 . S
H2896 C2873 0.950 . S
H2897 C2875 0.950 . S
C2898 C2899 1.349 . S
C2898 C2900 1.327 . S
C2898 H2923 0.950 . S
C2899 C2898 1.349 . S
C2899 C2915 1.349 . S
C2900 C2898 1.327 . S
C2900 C2919 1.429 . S
C2900 H2924 0.950 . S
C2901 C2918 1.574 . S
C2901 C2920 1.368 . S
C2901 H2925 0.949 . S
H2902 C2906 0.949 . S
C2903 C2904 1.349 . S
C2903 C2905 1.327 . S
C2903 H2926 0.950 . S
C2904 C2903 1.349 . S
C2904 C2916 1.349 . S
C2905 C2903 1.327 . S
C2905 C2921 1.429 . S
C2905 H2927 0.950 . S
C2906 H2902 0.949 . S
C2906 C2914 1.574 . S
C2906 C2922 1.368 . S
H2907 C2915 0.950 . S
H2908 C2913 0.950 . S
H2909 C2914 0.949 . S
H2910 C2916 0.950 . S
H2911 C2917 0.950 . S
H2912 C2918 0.949 . S
C2913 H2908 0.950 . S
C2913 C2915 1.327 . S
C2913 C2919 1.429 . S
C2914 C2906 1.574 . S
C2914 H2909 0.949 . S
C2914 C2920 1.368 . S
C2915 C2899 1.349 . S
C2915 H2907 0.950 . S
C2915 C2913 1.327 . S
C2916 C2904 1.349 . S
C2916 H2910 0.950 . S
C2916 C2917 1.327 . S
C2917 H2911 0.950 . S
C2917 C2916 1.327 . S
C2917 C2921 1.429 . S
C2918 C2901 1.574 . S
C2918 H2912 0.949 . S
C2918 C2922 1.368 . S
C2919 C2900 1.429 . S
C2919 C2913 1.429 . S
C2919 C2920 1.523 . S
C2920 C2901 1.368 . S
C2920 C2914 1.368 . S
C2920 C2919 1.523 . S
C2921 C2905 1.429 . S
C2921 C2917 1.429 . S
C2921 C2922 1.523 . S
C2922 C2906 1.368 . S
C2922 C2918 1.368 . S
C2922 C2921 1.523 . S
H2923 C2898 0.950 . S
H2924 C2900 0.950 . S
H2925 C2901 0.949 . S
H2926 C2903 0.950 . S
H2927 C2905 0.950 . S
C2928 C2929 1.349 . S
C2928 C2930 1.327 . S
C2928 H2953 0.950 . S
C2929 C2928 1.349 . S
C2929 C2945 1.349 . S
C2930 C2928 1.327 . S
C2930 C2949 1.429 . S
C2930 H2954 0.950 . S
C2931 C2948 1.574 . S
C2931 C2950 1.368 . S
C2931 H2955 0.949 . S
H2932 C2936 0.949 . S
C2933 C2934 1.349 . S
C2933 C2935 1.327 . S
C2933 H2956 0.950 . S
C2934 C2933 1.349 . S
C2934 C2946 1.349 . S
C2935 C2933 1.327 . S
C2935 C2951 1.429 . S
C2935 H2957 0.950 . S
C2936 H2932 0.949 . S
C2936 C2944 1.574 . S
C2936 C2952 1.368 . S
H2937 C2945 0.950 . S
H2938 C2943 0.950 . S
H2939 C2944 0.949 . S
H2940 C2946 0.950 . S
H2941 C2947 0.950 . S
H2942 C2948 0.949 . S
C2943 H2938 0.950 . S
C2943 C2945 1.327 . S
C2943 C2949 1.429 . S
C2944 C2936 1.574 . S
C2944 H2939 0.949 . S
C2944 C2950 1.368 1_565 S
C2945 C2929 1.349 . S
C2945 H2937 0.950 . S
C2945 C2943 1.327 . S
C2946 C2934 1.349 . S
C2946 H2940 0.950 . S
C2946 C2947 1.327 . S
C2947 H2941 0.950 . S
C2947 C2946 1.327 . S
C2947 C2951 1.429 . S
C2948 C2931 1.574 . S
C2948 H2942 0.949 . S
C2948 C2952 1.368 1_545 S
C2949 C2930 1.429 . S
C2949 C2943 1.429 . S
C2949 C2950 1.523 . S
C2950 C2931 1.368 . S
C2950 C2944 1.368 1_545 S
C2950 C2949 1.523 . S
C2951 C2935 1.429 . S
C2951 C2947 1.429 . S
C2951 C2952 1.523 . S
C2952 C2936 1.368 . S
C2952 C2948 1.368 1_565 S
C2952 C2951 1.523 . S
H2953 C2928 0.950 . S
H2954 C2930 0.950 . S
H2955 C2931 0.949 . S
H2956 C2933 0.950 . S
H2957 C2935 0.950 . S
C2958 C2959 1.349 . S
C2958 C2960 1.327 . S
C2958 H2983 0.950 . S
C2959 C2958 1.349 . S
C2959 C2975 1.349 . S
C2960 C2958 1.327 . S
C2960 C2979 1.429 . S
C2960 H2984 0.950 . S
C2961 C2978 1.574 . S
C2961 C2980 1.368 1_655 S
C2961 H2985 0.949 . S
H2962 C2966 0.949 . S
C2963 C2964 1.349 . S
C2963 C2965 1.327 . S
C2963 H2986 0.950 . S
C2964 C2963 1.349 . S
C2964 C2976 1.349 . S
C2965 C2963 1.327 . S
C2965 C2981 1.429 . S
C2965 H2987 0.950 . S
C2966 H2962 0.949 . S
C2966 C2974 1.574 . S
C2966 C2982 1.368 1_455 S
H2967 C2975 0.950 . S
H2968 C2973 0.950 . S
H2969 C2974 0.949 . S
H2970 C2976 0.950 . S
H2971 C2977 0.950 . S
H2972 C2978 0.949 . S
C2973 H2968 0.950 . S
C2973 C2975 1.327 . S
C2973 C2979 1.429 . S
C2974 C2966 1.574 . S
C2974 H2969 0.949 . S
C2974 C2980 1.368 . S
C2975 C2959 1.349 . S
C2975 H2967 0.950 . S
C2975 C2973 1.327 . S
C2976 C2964 1.349 . S
C2976 H2970 0.950 . S
C2976 C2977 1.327 . S
C2977 H2971 0.950 . S
C2977 C2976 1.327 . S
C2977 C2981 1.429 . S
C2978 C2961 1.574 . S
C2978 H2972 0.949 . S
C2978 C2982 1.368 . S
C2979 C2960 1.429 . S
C2979 C2973 1.429 . S
C2979 C2980 1.523 . S
C2980 C2961 1.368 1_455 S
C2980 C2974 1.368 . S
C2980 C2979 1.523 . S
C2981 C2965 1.429 . S
C2981 C2977 1.429 . S
C2981 C2982 1.523 . S
C2982 C2966 1.368 1_655 S
C2982 C2978 1.368 . S
C2982 C2981 1.523 . S
H2983 C2958 0.950 . S
H2984 C2960 0.950 . S
H2985 C2961 0.949 . S
H2986 C2963 0.950 . S
H2987 C2965 0.950 . S
C2988 C2989 1.349 . S
C2988 C2990 1.327 . S
C2988 H3013 0.950 . S
C2989 C2988 1.349 . S
C2989 C3005 1.349 . S
C2990 C2988 1.327 . S
C2990 C3009 1.429 . S
C2990 H3014 0.950 . S
C2991 C3008 1.574 . S
C2991 C3010 1.368 . S
C2991 H3015 0.949 . S
H2992 C2996 0.949 . S
C2993 C2994 1.349 . S
C2993 C2995 1.327 . S
C2993 H3016 0.950 . S
C2994 C2993 1.349 . S
C2994 C3006 1.349 . S
C2995 C2993 1.327 . S
C2995 C3011 1.429 . S
C2995 H3017 0.950 . S
C2996 H2992 0.949 . S
C2996 C3004 1.574 . S
C2996 C3012 1.368 . S
H2997 C3005 0.950 . S
H2998 C3003 0.950 . S
H2999 C3004 0.949 . S
H3000 C3006 0.950 . S
H3001 C3007 0.950 . S
H3002 C3008 0.949 . S
C3003 H2998 0.950 . S
C3003 C3005 1.327 . S
C3003 C3009 1.429 . S
C3004 C2996 1.574 . S
C3004 H2999 0.949 . S
C3004 C3010 1.368 . S
C3005 C2989 1.349 . S
C3005 H2997 0.950 . S
C3005 C3003 1.327 . S
C3006 C2994 1.349 . S
C3006 H3000 0.950 . S
C3006 C3007 1.327 . S
C3007 H3001 0.950 . S
C3007 C3006 1.327 . S
C3007 C3011 1.429 . S
C3008 C2991 1.574 . S
C3008 H3002 0.949 . S
C3008 C3012 1.368 . S
C3009 C2990 1.429 . S
C3009 C3003 1.429 . S
C3009 C3010 1.523 . S
C3010 C2991 1.368 . S
C3010 C3004 1.368 . S
C3010 C3009 1.523 . S
C3011 C2995 1.429 . S
C3011 C3007 1.429 . S
C3011 C3012 1.523 . S
C3012 C2996 1.368 . S
C3012 C3008 1.368 . S
C3012 C3011 1.523 . S
H3013 C2988 0.950 . S
H3014 C2990 0.950 . S
H3015 C2991 0.949 . S
H3016 C2993 0.950 . S
H3017 C2995 0.950 . S
C3018 C3019 1.349 . S
C3018 C3020 1.327 . S
C3018 H3043 0.950 . S
C3019 C3018 1.349 . S
C3019 C3035 1.349 . S
C3020 C3018 1.327 . S
C3020 C3039 1.429 . S
C3020 H3044 0.950 . S
C3021 C3038 1.574 . S
C3021 C3040 1.368 . S
C3021 H3045 0.949 . S
H3022 C3026 0.949 . S
C3023 C3024 1.349 . S
C3023 C3025 1.327 . S
C3023 H3046 0.950 . S
C3024 C3023 1.349 . S
C3024 C3036 1.349 . S
C3025 C3023 1.327 . S
C3025 C3041 1.429 . S
C3025 H3047 0.950 . S
C3026 H3022 0.949 . S
C3026 C3034 1.574 . S
C3026 C3042 1.368 . S
H3027 C3035 0.950 . S
H3028 C3033 0.950 . S
H3029 C3034 0.949 . S
H3030 C3036 0.950 . S
H3031 C3037 0.950 . S
H3032 C3038 0.949 . S
C3033 H3028 0.950 . S
C3033 C3035 1.327 . S
C3033 C3039 1.429 . S
C3034 C3026 1.574 . S
C3034 H3029 0.949 . S
C3034 C3040 1.368 . S
C3035 C3019 1.349 . S
C3035 H3027 0.950 . S
C3035 C3033 1.327 . S
C3036 C3024 1.349 . S
C3036 H3030 0.950 . S
C3036 C3037 1.327 . S
C3037 H3031 0.950 . S
C3037 C3036 1.327 . S
C3037 C3041 1.429 . S
C3038 C3021 1.574 . S
C3038 H3032 0.949 . S
C3038 C3042 1.368 . S
C3039 C3020 1.429 . S
C3039 C3033 1.429 . S
C3039 C3040 1.523 . S
C3040 C3021 1.368 . S
C3040 C3034 1.368 . S
C3040 C3039 1.523 . S
C3041 C3025 1.429 . S
C3041 C3037 1.429 . S
C3041 C3042 1.523 . S
C3042 C3026 1.368 . S
C3042 C3038 1.368 . S
C3042 C3041 1.523 . S
H3043 C3018 0.950 . S
H3044 C3020 0.950 . S
H3045 C3021 0.949 . S
H3046 C3023 0.950 . S
H3047 C3025 0.950 . S
C3048 C3049 1.349 . S
C3048 C3050 1.327 . S
C3048 H3073 0.950 . S
C3049 C3048 1.349 . S
C3049 C3065 1.349 . S
C3050 C3048 1.327 . S
C3050 C3069 1.429 . S
C3050 H3074 0.950 . S
C3051 C3068 1.574 . S
C3051 C3070 1.368 . S
C3051 H3075 0.949 . S
H3052 C3056 0.949 . S
C3053 C3054 1.349 . S
C3053 C3055 1.327 . S
C3053 H3076 0.950 . S
C3054 C3053 1.349 . S
C3054 C3066 1.349 . S
C3055 C3053 1.327 . S
C3055 C3071 1.429 . S
C3055 H3077 0.950 . S
C3056 H3052 0.949 . S
C3056 C3064 1.574 . S
C3056 C3072 1.368 . S
H3057 C3065 0.950 . S
H3058 C3063 0.950 . S
H3059 C3064 0.949 . S
H3060 C3066 0.950 . S
H3061 C3067 0.950 . S
H3062 C3068 0.949 . S
C3063 H3058 0.950 . S
C3063 C3065 1.327 . S
C3063 C3069 1.429 . S
C3064 C3056 1.574 . S
C3064 H3059 0.949 . S
C3064 C3070 1.368 . S
C3065 C3049 1.349 . S
C3065 H3057 0.950 . S
C3065 C3063 1.327 . S
C3066 C3054 1.349 . S
C3066 H3060 0.950 . S
C3066 C3067 1.327 . S
C3067 H3061 0.950 . S
C3067 C3066 1.327 . S
C3067 C3071 1.429 . S
C3068 C3051 1.574 . S
C3068 H3062 0.949 . S
C3068 C3072 1.368 . S
C3069 C3050 1.429 . S
C3069 C3063 1.429 . S
C3069 C3070 1.523 . S
C3070 C3051 1.368 . S
C3070 C3064 1.368 . S
C3070 C3069 1.523 . S
C3071 C3055 1.429 . S
C3071 C3067 1.429 . S
C3071 C3072 1.523 . S
C3072 C3056 1.368 . S
C3072 C3068 1.368 . S
C3072 C3071 1.523 . S
H3073 C3048 0.950 . S
H3074 C3050 0.950 . S
H3075 C3051 0.949 . S
H3076 C3053 0.950 . S
H3077 C3055 0.950 . S
C3078 C3079 1.349 . S
C3078 C3080 1.327 . S
C3078 H3103 0.950 . S
C3079 C3078 1.349 . S
C3079 C3095 1.349 . S
C3080 C3078 1.327 . S
C3080 C3099 1.429 . S
C3080 H3104 0.950 . S
C3081 C3098 1.574 . S
C3081 C3100 1.368 . S
C3081 H3105 0.949 . S
H3082 C3086 0.949 . S
C3083 C3084 1.349 . S
C3083 C3085 1.327 1_556 S
C3083 H3106 0.950 . S
C3084 C3083 1.349 . S
C3084 C3096 1.349 . S
C3085 C3083 1.327 1_554 S
C3085 C3101 1.429 . S
C3085 H3107 0.950 . S
C3086 H3082 0.949 . S
C3086 C3094 1.574 . S
C3086 C3102 1.368 . S
H3087 C3095 0.950 . S
H3088 C3093 0.950 . S
H3089 C3094 0.949 . S
H3090 C3096 0.950 . S
H3091 C3097 0.950 . S
H3092 C3098 0.949 . S
C3093 H3088 0.950 . S
C3093 C3095 1.327 . S
C3093 C3099 1.429 . S
C3094 C3086 1.574 . S
C3094 H3089 0.949 . S
C3094 C3100 1.368 . S
C3095 C3079 1.349 . S
C3095 H3087 0.950 . S
C3095 C3093 1.327 . S
C3096 C3084 1.349 . S
C3096 H3090 0.950 . S
C3096 C3097 1.327 1_556 S
C3097 H3091 0.950 . S
C3097 C3096 1.327 1_554 S
C3097 C3101 1.429 . S
C3098 C3081 1.574 . S
C3098 H3092 0.949 . S
C3098 C3102 1.368 . S
C3099 C3080 1.429 . S
C3099 C3093 1.429 . S
C3099 C3100 1.523 . S
C3100 C3081 1.368 . S
C3100 C3094 1.368 . S
C3100 C3099 1.523 . S
C3101 C3085 1.429 . S
C3101 C3097 1.429 . S
C3101 C3102 1.523 . S
C3102 C3086 1.368 . S
C3102 C3098 1.368 . S
C3102 C3101 1.523 . S
H3103 C3078 0.950 . S
H3104 C3080 0.950 . S
H3105 C3081 0.949 . S
H3106 C3083 0.950 . S
H3107 C3085 0.950 . S
C3108 C3109 1.349 . S
C3108 C3110 1.327 . S
C3108 H3133 0.950 . S
C3109 C3108 1.349 . S
C3109 C3125 1.349 . S
C3110 C3108 1.327 . S
C3110 C3129 1.429 . S
C3110 H3134 0.950 . S
C3111 C3128 1.574 . S
C3111 C3130 1.368 . S
C3111 H3135 0.949 . S
H3112 C3116 0.949 . S
C3113 C3114 1.349 . S
C3113 C3115 1.327 . S
C3113 H3136 0.950 . S
C3114 C3113 1.349 . S
C3114 C3126 1.349 1_556 S
C3115 C3113 1.327 . S
C3115 C3131 1.429 1_556 S
C3115 H3137 0.950 . S
C3116 H3112 0.949 . S
C3116 C3124 1.574 . S
C3116 C3132 1.368 . S
H3117 C3125 0.950 . S
H3118 C3123 0.950 . S
H3119 C3124 0.949 . S
H3120 C3126 0.950 . S
H3121 C3127 0.950 . S
H3122 C3128 0.949 . S
C3123 H3118 0.950 . S
C3123 C3125 1.327 . S
C3123 C3129 1.429 . S
C3124 C3116 1.574 . S
C3124 H3119 0.949 . S
C3124 C3130 1.368 . S
C3125 C3109 1.349 . S
C3125 H3117 0.950 . S
C3125 C3123 1.327 . S
C3126 C3114 1.349 1_554 S
C3126 H3120 0.950 . S
C3126 C3127 1.327 . S
C3127 H3121 0.950 . S
C3127 C3126 1.327 . S
C3127 C3131 1.429 . S
C3128 C3111 1.574 . S
C3128 H3122 0.949 . S
C3128 C3132 1.368 . S
C3129 C3110 1.429 . S
C3129 C3123 1.429 . S
C3129 C3130 1.523 . S
C3130 C3111 1.368 . S
C3130 C3124 1.368 . S
C3130 C3129 1.523 . S
C3131 C3115 1.429 1_554 S
C3131 C3127 1.429 . S
C3131 C3132 1.523 . S
C3132 C3116 1.368 . S
C3132 C3128 1.368 . S
C3132 C3131 1.523 . S
H3133 C3108 0.950 . S
H3134 C3110 0.950 . S
H3135 C3111 0.949 . S
H3136 C3113 0.950 . S
H3137 C3115 0.950 . S
C3138 C3139 1.349 . S
C3138 C3140 1.327 1_556 S
C3138 H3163 0.950 . S
C3139 C3138 1.349 . S
C3139 C3155 1.349 . S
C3140 C3138 1.327 1_554 S
C3140 C3159 1.429 . S
C3140 H3164 0.950 . S
C3141 C3158 1.574 . S
C3141 C3160 1.368 . S
C3141 H3165 0.949 . S
H3142 C3146 0.949 . S
C3143 C3144 1.349 . S
C3143 C3145 1.327 . S
C3143 H3166 0.950 . S
C3144 C3143 1.349 . S
C3144 C3156 1.349 . S
C3145 C3143 1.327 . S
C3145 C3161 1.429 . S
C3145 H3167 0.950 . S
C3146 H3142 0.949 . S
C3146 C3154 1.574 . S
C3146 C3162 1.368 . S
H3147 C3155 0.950 . S
H3148 C3153 0.950 . S
H3149 C3154 0.949 . S
H3150 C3156 0.950 . S
H3151 C3157 0.950 . S
H3152 C3158 0.949 . S
C3153 H3148 0.950 . S
C3153 C3155 1.327 1_554 S
C3153 C3159 1.429 . S
C3154 C3146 1.574 . S
C3154 H3149 0.949 . S
C3154 C3160 1.368 . S
C3155 C3139 1.349 . S
C3155 H3147 0.950 . S
C3155 C3153 1.327 1_556 S
C3156 C3144 1.349 . S
C3156 H3150 0.950 . S
C3156 C3157 1.327 . S
C3157 H3151 0.950 . S
C3157 C3156 1.327 . S
C3157 C3161 1.429 . S
C3158 C3141 1.574 . S
C3158 H3152 0.949 . S
C3158 C3162 1.368 . S
C3159 C3140 1.429 . S
C3159 C3153 1.429 . S
C3159 C3160 1.523 . S
C3160 C3141 1.368 . S
C3160 C3154 1.368 . S
C3160 C3159 1.523 . S
C3161 C3145 1.429 . S
C3161 C3157 1.429 . S
C3161 C3162 1.523 . S
C3162 C3146 1.368 . S
C3162 C3158 1.368 . S
C3162 C3161 1.523 . S
H3163 C3138 0.950 . S
H3164 C3140 0.950 . S
H3165 C3141 0.949 . S
H3166 C3143 0.950 . S
H3167 C3145 0.950 . S
C3168 C3169 1.349 . S
C3168 C3170 1.327 1_554 S
C3168 H3193 0.950 . S
C3169 C3168 1.349 . S
C3169 C3185 1.349 . S
C3170 C3168 1.327 1_556 S
C3170 C3189 1.429 . S
C3170 H3194 0.950 . S
C3171 C3188 1.574 . S
C3171 C3190 1.368 . S
C3171 H3195 0.949 . S
H3172 C3176 0.949 . S
C3173 C3174 1.349 . S
C3173 C3175 1.327 . S
C3173 H3196 0.950 . S
C3174 C3173 1.349 . S
C3174 C3186 1.349 . S
C3175 C3173 1.327 . S
C3175 C3191 1.429 . S
C3175 H3197 0.950 . S
C3176 H3172 0.949 . S
C3176 C3184 1.574 . S
C3176 C3192 1.368 . S
H3177 C3185 0.950 . S
H3178 C3183 0.950 . S
H3179 C3184 0.949 . S
H3180 C3186 0.950 . S
H3181 C3187 0.950 . S
H3182 C3188 0.949 . S
C3183 H3178 0.950 . S
C3183 C3185 1.327 1_556 S
C3183 C3189 1.429 . S
C3184 C3176 1.574 . S
C3184 H3179 0.949 . S
C3184 C3190 1.368 . S
C3185 C3169 1.349 . S
C3185 H3177 0.950 . S
C3185 C3183 1.327 1_554 S
C3186 C3174 1.349 . S
C3186 H3180 0.950 . S
C3186 C3187 1.327 . S
C3187 H3181 0.950 . S
C3187 C3186 1.327 . S
C3187 C3191 1.429 . S
C3188 C3171 1.574 . S
C3188 H3182 0.949 . S
C3188 C3192 1.368 . S
C3189 C3170 1.429 . S
C3189 C3183 1.429 . S
C3189 C3190 1.523 . S
C3190 C3171 1.368 . S
C3190 C3184 1.368 . S
C3190 C3189 1.523 . S
C3191 C3175 1.429 . S
C3191 C3187 1.429 . S
C3191 C3192 1.523 . S
C3192 C3176 1.368 . S
C3192 C3188 1.368 . S
C3192 C3191 1.523 . S
H3193 C3168 0.950 . S
H3194 C3170 0.950 . S
H3195 C3171 0.949 . S
H3196 C3173 0.950 . S
H3197 C3175 0.950 . S
C3198 C3199 1.349 1_556 S
C3198 C3200 1.327 . S
C3198 H3223 0.950 . S
C3199 C3198 1.349 1_554 S
C3199 C3215 1.349 . S
C3200 C3198 1.327 . S
C3200 C3219 1.429 . S
C3200 H3224 0.950 . S
C3201 C3218 1.574 . S
C3201 C3220 1.368 . S
C3201 H3225 0.949 . S
H3202 C3206 0.949 . S
C3203 C3204 1.349 . S
C3203 C3205 1.327 . S
C3203 H3226 0.950 . S
C3204 C3203 1.349 . S
C3204 C3216 1.349 . S
C3205 C3203 1.327 . S
C3205 C3221 1.429 . S
C3205 H3227 0.950 . S
C3206 H3202 0.949 . S
C3206 C3214 1.574 . S
C3206 C3222 1.368 . S
H3207 C3215 0.950 . S
H3208 C3213 0.952 . S
H3209 C3214 0.949 . S
H3210 C3216 0.950 . S
H3211 C3217 0.950 . S
H3212 C3218 0.949 . S
C3213 H3208 0.952 . S
C3213 C3215 1.340 . S
C3213 C3219 1.414 1_554 S
C3214 C3206 1.574 . S
C3214 H3209 0.949 . S
C3214 C3220 1.368 . S
C3215 C3199 1.349 . S
C3215 H3207 0.950 . S
C3215 C3213 1.340 . S
C3216 C3204 1.349 . S
C3216 H3210 0.950 . S
C3216 C3217 1.327 . S
C3217 H3211 0.950 . S
C3217 C3216 1.327 . S
C3217 C3221 1.429 . S
C3218 C3201 1.574 . S
C3218 H3212 0.949 . S
C3218 C3222 1.368 . S
C3219 C3200 1.429 . S
C3219 C3213 1.414 1_556 S
C3219 C3220 1.523 . S
C3220 C3201 1.368 . S
C3220 C3214 1.368 . S
C3220 C3219 1.523 . S
C3221 C3205 1.429 . S
C3221 C3217 1.429 . S
C3221 C3222 1.523 . S
C3222 C3206 1.368 . S
C3222 C3218 1.368 . S
C3222 C3221 1.523 . S
H3223 C3198 0.950 . S
H3224 C3200 0.950 . S
H3225 C3201 0.949 . S
H3226 C3203 0.950 . S
H3227 C3205 0.950 . S
C3228 C3229 1.349 . S
C3228 C3230 1.327 . S
C3228 H3253 0.950 . S
C3229 C3228 1.349 . S
C3229 C3245 1.349 . S
C3230 C3228 1.327 . S
C3230 C3249 1.429 . S
C3230 H3254 0.950 . S
C3231 C3248 1.574 . S
C3231 C3250 1.368 . S
C3231 H3255 0.949 . S
H3232 C3236 0.949 . S
C3233 C3234 1.349 . S
C3233 C3235 1.327 1_554 S
C3233 H3256 0.950 . S
C3234 C3233 1.349 . S
C3234 C3246 1.349 . S
C3235 C3233 1.327 1_556 S
C3235 C3251 1.429 . S
C3235 H3257 0.950 . S
C3236 H3232 0.949 . S
C3236 C3244 1.574 . S
C3236 C3252 1.368 . S
H3237 C3245 0.950 . S
H3238 C3243 0.950 . S
H3239 C3244 0.949 . S
H3240 C3246 0.950 . S
H3241 C3247 0.950 . S
H3242 C3248 0.949 . S
C3243 H3238 0.950 . S
C3243 C3245 1.327 . S
C3243 C3249 1.429 . S
C3244 C3236 1.574 . S
C3244 H3239 0.949 . S
C3244 C3250 1.368 . S
C3245 C3229 1.349 . S
C3245 H3237 0.950 . S
C3245 C3243 1.327 . S
C3246 C3234 1.349 . S
C3246 H3240 0.950 . S
C3246 C3247 1.327 1_554 S
C3247 H3241 0.950 . S
C3247 C3246 1.327 1_556 S
C3247 C3251 1.429 . S
C3248 C3231 1.574 . S
C3248 H3242 0.949 . S
C3248 C3252 1.368 . S
C3249 C3230 1.429 . S
C3249 C3243 1.429 . S
C3249 C3250 1.523 . S
C3250 C3231 1.368 . S
C3250 C3244 1.368 . S
C3250 C3249 1.523 . S
C3251 C3235 1.429 . S
C3251 C3247 1.429 . S
C3251 C3252 1.523 . S
C3252 C3236 1.368 . S
C3252 C3248 1.368 . S
C3252 C3251 1.523 . S
H3253 C3228 0.950 . S
H3254 C3230 0.950 . S
H3255 C3231 0.949 . S
H3256 C3233 0.950 . S
H3257 C3235 0.950 . S
C3258 C3259 1.349 . S
C3258 C3260 1.327 . S
C3258 H3283 0.950 . S
C3259 C3258 1.349 . S
C3259 C3275 1.349 . S
C3260 C3258 1.327 . S
C3260 C3279 1.429 . S
C3260 H3284 0.950 . S
C3261 C3278 1.574 . S
C3261 C3280 1.368 . S
C3261 H3285 0.949 . S
H3262 C3266 0.949 . S
C3263 C3264 1.349 . S
C3263 C3265 1.327 . S
C3263 H3286 0.950 . S
C3264 C3263 1.349 . S
C3264 C3276 1.349 . S
C3265 C3263 1.327 . S
C3265 C3281 1.429 . S
C3265 H3287 0.950 . S
C3266 H3262 0.949 . S
C3266 C3274 1.574 . S
C3266 C3282 1.368 . S
H3267 C3275 0.950 . S
H3268 C3273 0.950 . S
H3269 C3274 0.949 . S
H3270 C3276 0.950 . S
H3271 C3277 0.950 . S
H3272 C3278 0.949 . S
C3273 H3268 0.950 . S
C3273 C3275 1.327 . S
C3273 C3279 1.429 . S
C3274 C3266 1.574 . S
C3274 H3269 0.949 . S
C3274 C3280 1.368 . S
C3275 C3259 1.349 . S
C3275 H3267 0.950 . S
C3275 C3273 1.327 . S
C3276 C3264 1.349 . S
C3276 H3270 0.950 . S
C3276 C3277 1.327 . S
C3277 H3271 0.950 . S
C3277 C3276 1.327 . S
C3277 C3281 1.429 . S
C3278 C3261 1.574 . S
C3278 H3272 0.949 . S
C3278 C3282 1.368 . S
C3279 C3260 1.429 . S
C3279 C3273 1.429 . S
C3279 C3280 1.523 . S
C3280 C3261 1.368 . S
C3280 C3274 1.368 . S
C3280 C3279 1.523 . S
C3281 C3265 1.429 . S
C3281 C3277 1.429 . S
C3281 C3282 1.523 . S
C3282 C3266 1.368 . S
C3282 C3278 1.368 . S
C3282 C3281 1.523 . S
H3283 C3258 0.950 . S
H3284 C3260 0.950 . S
H3285 C3261 0.949 . S
H3286 C3263 0.950 . S
H3287 C3265 0.950 . S
C3288 C3289 1.349 . S
C3288 C3290 1.327 . S
C3288 H3313 0.950 . S
C3289 C3288 1.349 . S
C3289 C3305 1.349 . S
C3290 C3288 1.327 . S
C3290 C3309 1.429 . S
C3290 H3314 0.950 . S
C3291 C3308 1.574 . S
C3291 C3310 1.368 . S
C3291 H3315 0.949 . S
H3292 C3296 0.949 . S
C3293 C3294 1.349 . S
C3293 C3295 1.327 . S
C3293 H3316 0.950 . S
C3294 C3293 1.349 . S
C3294 C3306 1.349 . S
C3295 C3293 1.327 . S
C3295 C3311 1.429 . S
C3295 H3317 0.950 . S
C3296 H3292 0.949 . S
C3296 C3304 1.574 . S
C3296 C3312 1.368 . S
H3297 C3305 0.950 . S
H3298 C3303 0.950 . S
H3299 C3304 0.949 . S
H3300 C3306 0.950 . S
H3301 C3307 0.950 . S
H3302 C3308 0.949 . S
C3303 H3298 0.950 . S
C3303 C3305 1.327 . S
C3303 C3309 1.429 . S
C3304 C3296 1.574 . S
C3304 H3299 0.949 . S
C3304 C3310 1.368 . S
C3305 C3289 1.349 . S
C3305 H3297 0.950 . S
C3305 C3303 1.327 . S
C3306 C3294 1.349 . S
C3306 H3300 0.950 . S
C3306 C3307 1.327 . S
C3307 H3301 0.950 . S
C3307 C3306 1.327 . S
C3307 C3311 1.429 . S
C3308 C3291 1.574 . S
C3308 H3302 0.949 . S
C3308 C3312 1.368 . S
C3309 C3290 1.429 . S
C3309 C3303 1.429 . S
C3309 C3310 1.523 . S
C3310 C3291 1.368 . S
C3310 C3304 1.368 . S
C3310 C3309 1.523 . S
C3311 C3295 1.429 . S
C3311 C3307 1.429 . S
C3311 C3312 1.523 . S
C3312 C3296 1.368 . S
C3312 C3308 1.368 . S
C3312 C3311 1.523 . S
H3313 C3288 0.950 . S
H3314 C3290 0.950 . S
H3315 C3291 0.949 . S
H3316 C3293 0.950 . S
H3317 C3295 0.950 . S
C3318 C3319 1.349 . S
C3318 C3320 1.327 . S
C3318 H3343 0.950 . S
C3319 C3318 1.349 . S
C3319 C3335 1.349 . S
C3320 C3318 1.327 . S
C3320 C3339 1.429 . S
C3320 H3344 0.950 . S
C3321 C3338 1.574 . S
C3321 C3340 1.368 . S
C3321 H3345 0.949 . S
H3322 C3326 0.949 . S
C3323 C3324 1.349 . S
C3323 C3325 1.327 . S
C3323 H3346 0.950 . S
C3324 C3323 1.349 . S
C3324 C3336 1.349 . S
C3325 C3323 1.327 . S
C3325 C3341 1.429 . S
C3325 H3347 0.950 . S
C3326 H3322 0.949 . S
C3326 C3334 1.574 . S
C3326 C3342 1.368 . S
H3327 C3335 0.950 . S
H3328 C3333 0.950 . S
H3329 C3334 0.949 . S
H3330 C3336 0.950 . S
H3331 C3337 0.950 . S
H3332 C3338 0.949 . S
C3333 H3328 0.950 . S
C3333 C3335 1.327 . S
C3333 C3339 1.429 . S
C3334 C3326 1.574 . S
C3334 H3329 0.949 . S
C3334 C3340 1.368 . S
C3335 C3319 1.349 . S
C3335 H3327 0.950 . S
C3335 C3333 1.327 . S
C3336 C3324 1.349 . S
C3336 H3330 0.950 . S
C3336 C3337 1.327 . S
C3337 H3331 0.950 . S
C3337 C3336 1.327 . S
C3337 C3341 1.429 . S
C3338 C3321 1.574 . S
C3338 H3332 0.949 . S
C3338 C3342 1.368 . S
C3339 C3320 1.429 . S
C3339 C3333 1.429 . S
C3339 C3340 1.523 . S
C3340 C3321 1.368 . S
C3340 C3334 1.368 . S
C3340 C3339 1.523 . S
C3341 C3325 1.429 . S
C3341 C3337 1.429 . S
C3341 C3342 1.523 . S
C3342 C3326 1.368 . S
C3342 C3338 1.368 . S
C3342 C3341 1.523 . S
H3343 C3318 0.950 . S
H3344 C3320 0.950 . S
H3345 C3321 0.949 . S
H3346 C3323 0.950 . S
H3347 C3325 0.950 . S
C3348 C3349 1.349 . S
C3348 C3350 1.327 . S
C3348 H3373 0.950 . S
C3349 C3348 1.349 . S
C3349 C3365 1.354 . S
C3350 C3348 1.327 . S
C3350 C3369 1.429 . S
C3350 H3374 0.950 . S
C3351 C3368 1.574 . S
C3351 C3370 1.368 . S
C3351 H3375 0.949 . S
H3352 C3356 0.949 . S
C3353 C3354 1.349 . S
C3353 C3355 1.327 . S
C3353 H3376 0.950 . S
C3354 C3353 1.349 . S
C3354 C3366 1.349 . S
C3355 C3353 1.327 . S
C3355 C3371 1.429 . S
C3355 H3377 0.950 . S
C3356 H3352 0.949 . S
C3356 C3364 1.574 . S
C3356 C3372 1.368 . S
H3357 C3365 0.924 1_554 S
H3358 C3363 0.950 . S
H3359 C3364 0.949 . S
H3360 C3366 0.950 . S
H3361 C3367 0.950 . S
H3362 C3368 0.949 . S
C3363 H3358 0.950 . S
C3363 C3365 1.348 . S
C3363 C3369 1.429 . S
C3364 C3356 1.574 . S
C3364 H3359 0.949 . S
C3364 C3370 1.368 . S
C3365 C3349 1.354 . S
C3365 H3357 0.924 1_556 S
C3365 C3363 1.348 . S
C3366 C3354 1.349 . S
C3366 H3360 0.950 . S
C3366 C3367 1.327 . S
C3367 H3361 0.950 . S
C3367 C3366 1.327 . S
C3367 C3371 1.429 . S
C3368 C3351 1.574 . S
C3368 H3362 0.949 . S
C3368 C3372 1.368 . S
C3369 C3350 1.429 . S
C3369 C3363 1.429 . S
C3369 C3370 1.523 . S
C3370 C3351 1.368 . S
C3370 C3364 1.368 . S
C3370 C3369 1.523 . S
C3371 C3355 1.429 . S
C3371 C3367 1.429 . S
C3371 C3372 1.523 . S
C3372 C3356 1.368 . S
C3372 C3368 1.368 . S
C3372 C3371 1.523 . S
H3373 C3348 0.950 . S
H3374 C3350 0.950 . S
H3375 C3351 0.949 . S
H3376 C3353 0.950 . S
H3377 C3355 0.950 . S
C3378 C3379 1.349 . S
C3378 C3380 1.327 . S
C3378 H3403 0.950 . S
C3379 C3378 1.349 . S
C3379 C3395 1.349 . S
C3380 C3378 1.327 . S
C3380 C3399 1.429 . S
C3380 H3404 0.950 . S
C3381 C3398 1.574 . S
C3381 C3400 1.368 . S
C3381 H3405 0.949 . S
H3382 C3386 0.949 . S
C3383 C3384 1.349 . S
C3383 C3385 1.327 . S
C3383 H3406 0.950 . S
C3384 C3383 1.349 . S
C3384 C3396 1.349 . S
C3385 C3383 1.327 . S
C3385 C3401 1.429 . S
C3385 H3407 0.950 . S
C3386 H3382 0.949 . S
C3386 C3394 1.574 . S
C3386 C3402 1.368 . S
H3387 C3395 0.950 . S
H3388 C3393 0.950 . S
H3389 C3394 0.949 . S
H3390 C3396 0.950 . S
H3391 C3397 0.950 . S
H3392 C3398 0.949 . S
C3393 H3388 0.950 . S
C3393 C3395 1.327 . S
C3393 C3399 1.429 . S
C3394 C3386 1.574 . S
C3394 H3389 0.949 . S
C3394 C3400 1.368 . S
C3395 C3379 1.349 . S
C3395 H3387 0.950 . S
C3395 C3393 1.327 . S
C3396 C3384 1.349 . S
C3396 H3390 0.950 . S
C3396 C3397 1.327 . S
C3397 H3391 0.950 . S
C3397 C3396 1.327 . S
C3397 C3401 1.429 . S
C3398 C3381 1.574 . S
C3398 H3392 0.949 . S
C3398 C3402 1.368 . S
C3399 C3380 1.429 . S
C3399 C3393 1.429 . S
C3399 C3400 1.523 . S
C3400 C3381 1.368 . S
C3400 C3394 1.368 . S
C3400 C3399 1.523 . S
C3401 C3385 1.429 . S
C3401 C3397 1.429 . S
C3401 C3402 1.523 . S
C3402 C3386 1.368 . S
C3402 C3398 1.368 . S
C3402 C3401 1.523 . S
H3403 C3378 0.950 . S
H3404 C3380 0.950 . S
H3405 C3381 0.949 . S
H3406 C3383 0.950 . S
H3407 C3385 0.950 . S
C3408 C3409 1.349 . S
C3408 C3410 1.327 . S
C3408 H3433 0.950 . S
C3409 C3408 1.349 . S
C3409 C3425 1.349 . S
C3410 C3408 1.327 . S
C3410 C3429 1.429 . S
C3410 H3434 0.950 . S
C3411 C3428 1.574 . S
C3411 C3430 1.368 . S
C3411 H3435 0.949 . S
H3412 C3416 0.949 . S
C3413 C3414 1.349 1_554 S
C3413 C3415 1.327 1_554 S
C3413 H3436 0.950 . S
C3414 C3413 1.349 1_556 S
C3414 C3426 1.349 . S
C3415 C3413 1.327 1_556 S
C3415 C3431 1.429 . S
C3415 H3437 0.950 . S
C3416 H3412 0.949 . S
C3416 C3424 1.574 . S
C3416 C3432 1.368 . S
H3417 C3425 0.950 . S
H3418 C3423 0.950 . S
H3419 C3424 0.949 . S
H3420 C3426 0.950 . S
H3421 C3427 0.950 . S
H3422 C3428 0.949 . S
C3423 H3418 0.950 . S
C3423 C3425 1.327 . S
C3423 C3429 1.429 . S
C3424 C3416 1.574 . S
C3424 H3419 0.949 . S
C3424 C3430 1.368 . S
C3425 C3409 1.349 . S
C3425 H3417 0.950 . S
C3425 C3423 1.327 . S
C3426 C3414 1.349 . S
C3426 H3420 0.950 . S
C3426 C3427 1.327 . S
C3427 H3421 0.950 . S
C3427 C3426 1.327 . S
C3427 C3431 1.429 . S
C3428 C3411 1.574 . S
C3428 H3422 0.949 . S
C3428 C3432 1.368 . S
C3429 C3410 1.429 . S
C3429 C3423 1.429 . S
C3429 C3430 1.523 . S
C3430 C3411 1.368 . S
C3430 C3424 1.368 . S
C3430 C3429 1.523 . S
C3431 C3415 1.429 . S
C3431 C3427 1.429 . S
C3431 C3432 1.523 . S
C3432 C3416 1.368 . S
C3432 C3428 1.368 . S
C3432 C3431 1.523 . S
H3433 C3408 0.950 . S
H3434 C3410 0.950 . S
H3435 C3411 0.949 . S
H3436 C3413 0.950 . S
H3437 C3415 0.950 . S
C3438 C3439 1.349 . S
C3438 C3440 1.327 . S
C3438 H3463 0.950 . S
C3439 C3438 1.349 . S
C3439 C3455 1.349 . S
C3440 C3438 1.327 . S
C3440 C3459 1.429 . S
C3440 H3464 0.950 . S
C3441 C3458 1.574 . S
C3441 C3460 1.368 . S
C3441 H3465 0.949 . S
H3442 C3446 0.949 . S
C3443 C3444 1.349 . S
C3443 C3445 1.327 . S
C3443 H3466 0.950 . S
C3444 C3443 1.349 . S
C3444 C3456 1.349 . S
C3445 C3443 1.327 . S
C3445 C3461 1.429 . S
C3445 H3467 0.950 . S
C3446 H3442 0.949 . S
C3446 C3454 1.574 . S
C3446 C3462 1.368 . S
H3447 C3455 0.950 . S
H3448 C3453 0.950 . S
H3449 C3454 0.949 . S
H3450 C3456 0.950 . S
H3451 C3457 0.950 . S
H3452 C3458 0.949 . S
C3453 H3448 0.950 . S
C3453 C3455 1.327 . S
C3453 C3459 1.429 . S
C3454 C3446 1.574 . S
C3454 H3449 0.949 . S
C3454 C3460 1.368 . S
C3455 C3439 1.349 . S
C3455 H3447 0.950 . S
C3455 C3453 1.327 . S
C3456 C3444 1.349 . S
C3456 H3450 0.950 . S
C3456 C3457 1.327 . S
C3457 H3451 0.950 . S
C3457 C3456 1.327 . S
C3457 C3461 1.429 . S
C3458 C3441 1.574 . S
C3458 H3452 0.949 . S
C3458 C3462 1.368 . S
C3459 C3440 1.429 . S
C3459 C3453 1.429 . S
C3459 C3460 1.523 . S
C3460 C3441 1.368 . S
C3460 C3454 1.368 . S
C3460 C3459 1.523 . S
C3461 C3445 1.429 . S
C3461 C3457 1.429 . S
C3461 C3462 1.523 . S
C3462 C3446 1.368 . S
C3462 C3458 1.368 . S
C3462 C3461 1.523 . S
H3463 C3438 0.950 . S
H3464 C3440 0.950 . S
H3465 C3441 0.949 . S
H3466 C3443 0.950 . S
H3467 C3445 0.950 . S
C3468 C3469 1.349 . S
C3468 C3470 1.327 . S
C3468 H3493 0.950 . S
C3469 C3468 1.349 . S
C3469 C3485 1.349 . S
C3470 C3468 1.327 . S
C3470 C3489 1.429 . S
C3470 H3494 0.950 . S
C3471 C3488 1.574 . S
C3471 C3490 1.368 . S
C3471 H3495 0.949 . S
H3472 C3476 0.949 . S
C3473 C3474 1.349 . S
C3473 C3475 1.327 . S
C3473 H3496 0.950 . S
C3474 C3473 1.349 . S
C3474 C3486 1.349 . S
C3475 C3473 1.327 . S
C3475 C3491 1.429 . S
C3475 H3497 0.950 . S
C3476 H3472 0.949 . S
C3476 C3484 1.574 . S
C3476 C3492 1.368 . S
H3477 C3485 0.950 . S
H3478 C3483 0.950 . S
H3479 C3484 0.949 . S
H3480 C3486 0.950 . S
H3481 C3487 0.950 . S
H3482 C3488 0.949 . S
C3483 H3478 0.950 . S
C3483 C3485 1.327 . S
C3483 C3489 1.429 . S
C3484 C3476 1.574 . S
C3484 H3479 0.949 . S
C3484 C3490 1.368 . S
C3485 C3469 1.349 . S
C3485 H3477 0.950 . S
C3485 C3483 1.327 . S
C3486 C3474 1.349 . S
C3486 H3480 0.950 . S
C3486 C3487 1.327 . S
C3487 H3481 0.950 . S
C3487 C3486 1.327 . S
C3487 C3491 1.429 . S
C3488 C3471 1.574 . S
C3488 H3482 0.949 . S
C3488 C3492 1.368 . S
C3489 C3470 1.429 . S
C3489 C3483 1.429 . S
C3489 C3490 1.523 . S
C3490 C3471 1.368 . S
C3490 C3484 1.368 . S
C3490 C3489 1.523 . S
C3491 C3475 1.429 . S
C3491 C3487 1.429 . S
C3491 C3492 1.523 . S
C3492 C3476 1.368 . S
C3492 C3488 1.368 . S
C3492 C3491 1.523 . S
H3493 C3468 0.950 . S
H3494 C3470 0.950 . S
H3495 C3471 0.949 . S
H3496 C3473 0.950 . S
H3497 C3475 0.950 . S
C3498 C3499 1.349 . S
C3498 C3500 1.327 . S
C3498 H3523 0.950 . S
C3499 C3498 1.349 . S
C3499 C3515 1.349 . S
C3500 C3498 1.327 . S
C3500 C3519 1.429 . S
C3500 H3524 0.950 . S
C3501 C3518 1.574 . S
C3501 C3520 1.368 . S
C3501 H3525 0.949 . S
H3502 C3506 0.949 . S
C3503 C3504 1.349 . S
C3503 C3505 1.327 . S
C3503 H3526 0.950 . S
C3504 C3503 1.349 . S
C3504 C3516 1.349 . S
C3505 C3503 1.327 . S
C3505 C3521 1.429 . S
C3505 H3527 0.950 . S
C3506 H3502 0.949 . S
C3506 C3514 1.574 . S
C3506 C3522 1.368 . S
H3507 C3515 0.950 . S
H3508 C3513 0.950 . S
H3509 C3514 0.949 . S
H3510 C3516 0.950 . S
H3511 C3517 0.950 . S
H3512 C3518 0.949 . S
C3513 H3508 0.950 . S
C3513 C3515 1.327 . S
C3513 C3519 1.429 . S
C3514 C3506 1.574 . S
C3514 H3509 0.949 . S
C3514 C3520 1.368 . S
C3515 C3499 1.349 . S
C3515 H3507 0.950 . S
C3515 C3513 1.327 . S
C3516 C3504 1.349 . S
C3516 H3510 0.950 . S
C3516 C3517 1.327 . S
C3517 H3511 0.950 . S
C3517 C3516 1.327 . S
C3517 C3521 1.429 . S
C3518 C3501 1.574 . S
C3518 H3512 0.949 . S
C3518 C3522 1.368 . S
C3519 C3500 1.429 . S
C3519 C3513 1.429 . S
C3519 C3520 1.523 . S
C3520 C3501 1.368 . S
C3520 C3514 1.368 . S
C3520 C3519 1.523 . S
C3521 C3505 1.429 . S
C3521 C3517 1.429 . S
C3521 C3522 1.523 . S
C3522 C3506 1.368 . S
C3522 C3518 1.368 . S
C3522 C3521 1.523 . S
H3523 C3498 0.950 . S
H3524 C3500 0.950 . S
H3525 C3501 0.949 . S
H3526 C3503 0.950 . S
H3527 C3505 0.950 . S
C3528 C3529 1.349 . S
C3528 C3530 1.327 . S
C3528 H3553 0.950 . S
C3529 C3528 1.349 . S
C3529 C3545 1.349 . S
C3530 C3528 1.327 . S
C3530 C3549 1.429 . S
C3530 H3554 0.950 . S
C3531 C3548 1.574 . S
C3531 C3550 1.368 . S
C3531 H3555 0.949 . S
H3532 C3536 0.949 . S
C3533 C3534 1.349 . S
C3533 C3535 1.327 . S
C3533 H3556 0.950 . S
C3534 C3533 1.349 . S
C3534 C3546 1.349 . S
C3535 C3533 1.327 . S
C3535 C3551 1.429 . S
C3535 H3557 0.950 . S
C3536 H3532 0.949 . S
C3536 C3544 1.574 . S
C3536 C3552 1.368 . S
H3537 C3545 0.950 . S
H3538 C3543 0.950 . S
H3539 C3544 0.949 . S
H3540 C3546 0.950 . S
H3541 C3547 0.950 . S
H3542 C3548 0.949 . S
C3543 H3538 0.950 . S
C3543 C3545 1.327 . S
C3543 C3549 1.429 . S
C3544 C3536 1.574 . S
C3544 H3539 0.949 . S
C3544 C3550 1.368 . S
C3545 C3529 1.349 . S
C3545 H3537 0.950 . S
C3545 C3543 1.327 . S
C3546 C3534 1.349 . S
C3546 H3540 0.950 . S
C3546 C3547 1.327 . S
C3547 H3541 0.950 . S
C3547 C3546 1.327 . S
C3547 C3551 1.429 . S
C3548 C3531 1.574 . S
C3548 H3542 0.949 . S
C3548 C3552 1.368 . S
C3549 C3530 1.429 . S
C3549 C3543 1.429 . S
C3549 C3550 1.523 . S
C3550 C3531 1.368 . S
C3550 C3544 1.368 . S
C3550 C3549 1.523 . S
C3551 C3535 1.429 . S
C3551 C3547 1.429 . S
C3551 C3552 1.523 . S
C3552 C3536 1.368 . S
C3552 C3548 1.368 . S
C3552 C3551 1.523 . S
H3553 C3528 0.950 . S
H3554 C3530 0.950 . S
H3555 C3531 0.949 . S
H3556 C3533 0.950 . S
H3557 C3535 0.950 . S
C3558 C3559 1.349 . S
C3558 C3560 1.327 . S
C3558 H3583 0.950 . S
C3559 C3558 1.349 . S
C3559 C3575 1.349 . S
C3560 C3558 1.327 . S
C3560 C3579 1.429 . S
C3560 H3584 0.950 . S
C3561 C3578 1.574 . S
C3561 C3580 1.368 . S
C3561 H3585 0.949 . S
H3562 C3566 0.949 . S
C3563 C3564 1.349 . S
C3563 C3565 1.327 . S
C3563 H3586 0.950 . S
C3564 C3563 1.349 . S
C3564 C3576 1.349 1_554 S
C3565 C3563 1.327 . S
C3565 C3581 1.429 . S
C3565 H3587 0.950 . S
C3566 H3562 0.949 . S
C3566 C3574 1.574 . S
C3566 C3582 1.368 . S
H3567 C3575 0.950 . S
H3568 C3573 0.950 . S
H3569 C3574 0.949 . S
H3570 C3576 0.950 . S
H3571 C3577 0.950 . S
H3572 C3578 0.949 . S
C3573 H3568 0.950 . S
C3573 C3575 1.327 . S
C3573 C3579 1.429 . S
C3574 C3566 1.574 . S
C3574 H3569 0.949 . S
C3574 C3580 1.368 . S
C3575 C3559 1.349 . S
C3575 H3567 0.950 . S
C3575 C3573 1.327 . S
C3576 C3564 1.349 1_556 S
C3576 H3570 0.950 . S
C3576 C3577 1.327 1_556 S
C3577 H3571 0.950 . S
C3577 C3576 1.327 1_554 S
C3577 C3581 1.429 . S
C3578 C3561 1.574 . S
C3578 H3572 0.949 . S
C3578 C3582 1.368 . S
C3579 C3560 1.429 . S
C3579 C3573 1.429 . S
C3579 C3580 1.523 . S
C3580 C3561 1.368 . S
C3580 C3574 1.368 . S
C3580 C3579 1.523 . S
C3581 C3565 1.429 . S
C3581 C3577 1.429 . S
C3581 C3582 1.523 . S
C3582 C3566 1.368 . S
C3582 C3578 1.368 . S
C3582 C3581 1.523 . S
H3583 C3558 0.950 . S
H3584 C3560 0.950 . S
H3585 C3561 0.949 . S
H3586 C3563 0.950 . S
H3587 C3565 0.950 . S
C3588 C3589 1.349 1_556 S
C3588 C3590 1.327 1_556 S
C3588 H3613 0.950 . S
C3589 C3588 1.349 1_554 S
C3589 C3605 1.349 . S
C3590 C3588 1.327 1_554 S
C3590 C3609 1.429 . S
C3590 H3614 0.950 . S
C3591 C3608 1.574 . S
C3591 C3610 1.368 . S
C3591 H3615 0.949 . S
H3592 C3596 0.949 . S
C3593 C3594 1.349 . S
C3593 C3595 1.327 . S
C3593 H3616 0.950 . S
C3594 C3593 1.349 . S
C3594 C3606 1.349 . S
C3595 C3593 1.327 . S
C3595 C3611 1.429 . S
C3595 H3617 0.950 . S
C3596 H3592 0.949 . S
C3596 C3604 1.574 . S
C3596 C3612 1.368 . S
H3597 C3605 0.950 . S
H3598 C3603 0.950 . S
H3599 C3604 0.949 . S
H3600 C3606 0.950 . S
H3601 C3607 0.950 . S
H3602 C3608 0.949 . S
C3603 H3598 0.950 . S
C3603 C3605 1.327 . S
C3603 C3609 1.429 . S
C3604 C3596 1.574 . S
C3604 H3599 0.949 . S
C3604 C3610 1.368 . S
C3605 C3589 1.349 . S
C3605 H3597 0.950 . S
C3605 C3603 1.327 . S
C3606 C3594 1.349 . S
C3606 H3600 0.950 . S
C3606 C3607 1.327 . S
C3607 H3601 0.950 . S
C3607 C3606 1.327 . S
C3607 C3611 1.429 . S
C3608 C3591 1.574 . S
C3608 H3602 0.949 . S
C3608 C3612 1.368 . S
C3609 C3590 1.429 . S
C3609 C3603 1.429 . S
C3609 C3610 1.523 . S
C3610 C3591 1.368 . S
C3610 C3604 1.368 . S
C3610 C3609 1.523 . S
C3611 C3595 1.429 . S
C3611 C3607 1.429 . S
C3611 C3612 1.523 . S
C3612 C3596 1.368 . S
C3612 C3608 1.368 . S
C3612 C3611 1.523 . S
H3613 C3588 0.950 . S
H3614 C3590 0.950 . S
H3615 C3591 0.949 . S
H3616 C3593 0.950 . S
H3617 C3595 0.950 . S
C3618 C3619 1.349 . S
C3618 C3620 1.327 . S
C3618 H3643 0.950 . S
C3619 C3618 1.349 . S
C3619 C3635 1.349 . S
C3620 C3618 1.327 . S
C3620 C3639 1.429 . S
C3620 H3644 0.950 . S
C3621 C3638 1.574 . S
C3621 C3640 1.368 . S
C3621 H3645 0.949 . S
H3622 C3626 0.949 . S
C3623 C3624 1.349 . S
C3623 C3625 1.327 . S
C3623 H3646 0.950 . S
C3624 C3623 1.349 . S
C3624 C3636 1.349 . S
C3625 C3623 1.327 . S
C3625 C3641 1.429 . S
C3625 H3647 0.950 . S
C3626 H3622 0.949 . S
C3626 C3634 1.574 . S
C3626 C3642 1.368 . S
H3627 C3635 0.950 . S
H3628 C3633 0.950 . S
H3629 C3634 0.949 . S
H3630 C3636 0.950 . S
H3631 C3637 0.950 . S
H3632 C3638 0.949 . S
C3633 H3628 0.950 . S
C3633 C3635 1.327 . S
C3633 C3639 1.429 . S
C3634 C3626 1.574 . S
C3634 H3629 0.949 . S
C3634 C3640 1.368 . S
C3635 C3619 1.349 . S
C3635 H3627 0.950 . S
C3635 C3633 1.327 . S
C3636 C3624 1.349 . S
C3636 H3630 0.950 . S
C3636 C3637 1.327 . S
C3637 H3631 0.950 . S
C3637 C3636 1.327 . S
C3637 C3641 1.429 . S
C3638 C3621 1.574 . S
C3638 H3632 0.949 . S
C3638 C3642 1.368 . S
C3639 C3620 1.429 . S
C3639 C3633 1.429 . S
C3639 C3640 1.523 . S
C3640 C3621 1.368 . S
C3640 C3634 1.368 . S
C3640 C3639 1.523 . S
C3641 C3625 1.429 . S
C3641 C3637 1.429 . S
C3641 C3642 1.523 . S
C3642 C3626 1.368 . S
C3642 C3638 1.368 . S
C3642 C3641 1.523 . S
H3643 C3618 0.950 . S
H3644 C3620 0.950 . S
H3645 C3621 0.949 . S
H3646 C3623 0.950 . S
H3647 C3625 0.950 . S
C3648 C3649 1.349 . S
C3648 C3650 1.327 . S
C3648 H3673 0.950 . S
C3649 C3648 1.349 . S
C3649 C3665 1.349 . S
C3650 C3648 1.327 . S
C3650 C3669 1.429 . S
C3650 H3674 0.950 . S
C3651 C3668 1.574 . S
C3651 C3670 1.368 . S
C3651 H3675 0.949 . S
H3652 C3656 0.949 . S
C3653 C3654 1.349 . S
C3653 C3655 1.327 . S
C3653 H3676 0.950 . S
C3654 C3653 1.349 . S
C3654 C3666 1.349 . S
C3655 C3653 1.327 . S
C3655 C3671 1.429 . S
C3655 H3677 0.950 . S
C3656 H3652 0.949 . S
C3656 C3664 1.574 . S
C3656 C3672 1.368 . S
H3657 C3665 0.950 . S
H3658 C3663 0.950 . S
H3659 C3664 0.949 . S
H3660 C3666 0.950 . S
H3661 C3667 0.950 . S
H3662 C3668 0.949 . S
C3663 H3658 0.950 . S
C3663 C3665 1.327 . S
C3663 C3669 1.429 . S
C3664 C3656 1.574 . S
C3664 H3659 0.949 . S
C3664 C3670 1.368 . S
C3665 C3649 1.349 . S
C3665 H3657 0.950 . S
C3665 C3663 1.327 . S
C3666 C3654 1.349 . S
C3666 H3660 0.950 . S
C3666 C3667 1.327 . S
C3667 H3661 0.950 . S
C3667 C3666 1.327 . S
C3667 C3671 1.429 . S
C3668 C3651 1.574 . S
C3668 H3662 0.949 . S
C3668 C3672 1.368 . S
C3669 C3650 1.429 . S
C3669 C3663 1.429 . S
C3669 C3670 1.523 . S
C3670 C3651 1.368 . S
C3670 C3664 1.368 . S
C3670 C3669 1.523 . S
C3671 C3655 1.429 . S
C3671 C3667 1.429 . S
C3671 C3672 1.523 . S
C3672 C3656 1.368 . S
C3672 C3668 1.368 . S
C3672 C3671 1.523 . S
H3673 C3648 0.950 . S
H3674 C3650 0.950 . S
H3675 C3651 0.949 . S
H3676 C3653 0.950 . S
H3677 C3655 0.950 . S
C3678 C3679 1.349 . S
C3678 C3680 1.327 . S
C3678 H3703 0.950 . S
C3679 C3678 1.349 . S
C3679 C3695 1.349 . S
C3680 C3678 1.327 . S
C3680 C3699 1.429 . S
C3680 H3704 0.950 . S
C3681 C3698 1.574 . S
C3681 C3700 1.368 . S
C3681 H3705 0.949 . S
H3682 C3686 0.949 . S
C3683 C3684 1.349 . S
C3683 C3685 1.327 . S
C3683 H3706 0.950 . S
C3684 C3683 1.349 . S
C3684 C3696 1.349 . S
C3685 C3683 1.327 . S
C3685 C3701 1.429 . S
C3685 H3707 0.950 . S
C3686 H3682 0.949 . S
C3686 C3694 1.574 . S
C3686 C3702 1.368 . S
H3687 C3695 0.950 . S
H3688 C3693 0.950 . S
H3689 C3694 0.949 . S
H3690 C3696 0.950 . S
H3691 C3697 0.950 . S
H3692 C3698 0.949 . S
C3693 H3688 0.950 . S
C3693 C3695 1.327 . S
C3693 C3699 1.429 . S
C3694 C3686 1.574 . S
C3694 H3689 0.949 . S
C3694 C3700 1.368 . S
C3695 C3679 1.349 . S
C3695 H3687 0.950 . S
C3695 C3693 1.327 . S
C3696 C3684 1.349 . S
C3696 H3690 0.950 . S
C3696 C3697 1.327 . S
C3697 H3691 0.950 . S
C3697 C3696 1.327 . S
C3697 C3701 1.429 . S
C3698 C3681 1.574 . S
C3698 H3692 0.949 . S
C3698 C3702 1.368 . S
C3699 C3680 1.429 . S
C3699 C3693 1.429 . S
C3699 C3700 1.523 . S
C3700 C3681 1.368 . S
C3700 C3694 1.368 . S
C3700 C3699 1.523 . S
C3701 C3685 1.429 . S
C3701 C3697 1.429 . S
C3701 C3702 1.523 . S
C3702 C3686 1.368 . S
C3702 C3698 1.368 . S
C3702 C3701 1.523 . S
H3703 C3678 0.950 . S
H3704 C3680 0.950 . S
H3705 C3681 0.949 . S
H3706 C3683 0.950 . S
H3707 C3685 0.950 . S
C3708 C3709 1.349 . S
C3708 C3710 1.327 . S
C3708 H3733 0.950 . S
C3709 C3708 1.349 . S
C3709 C3725 1.349 . S
C3710 C3708 1.327 . S
C3710 C3729 1.429 . S
C3710 H3734 0.950 . S
C3711 C3728 1.616 . S
C3711 C3730 1.368 . S
C3711 H3735 0.949 . S
H3712 C3716 0.949 . S
C3713 C3714 1.349 . S
C3713 C3715 1.327 . S
C3713 H3736 0.950 . S
C3714 C3713 1.349 . S
C3714 C3726 1.349 . S
C3715 C3713 1.327 . S
C3715 C3731 1.429 . S
C3715 H3737 0.950 . S
C3716 H3712 0.949 . S
C3716 C3724 1.616 . S
C3716 C3732 1.368 . S
H3717 C3725 0.950 . S
H3718 C3723 0.950 . S
H3719 C3724 0.951 . S
H3720 C3726 0.950 . S
H3721 C3727 0.950 . S
H3722 C3728 0.951 . S
C3723 H3718 0.950 . S
C3723 C3725 1.327 . S
C3723 C3729 1.429 . S
C3724 C3716 1.616 . S
C3724 H3719 0.951 . S
C3724 C3730 1.336 1_655 S
C3725 C3709 1.349 . S
C3725 H3717 0.950 . S
C3725 C3723 1.327 . S
C3726 C3714 1.349 . S
C3726 H3720 0.950 . S
C3726 C3727 1.327 . S
C3727 H3721 0.950 . S
C3727 C3726 1.327 . S
C3727 C3731 1.429 . S
C3728 C3711 1.616 . S
C3728 H3722 0.951 . S
C3728 C3732 1.336 1_455 S
C3729 C3710 1.429 . S
C3729 C3723 1.429 . S
C3729 C3730 1.523 . S
C3730 C3711 1.368 . S
C3730 C3724 1.336 1_455 S
C3730 C3729 1.523 . S
C3731 C3715 1.429 . S
C3731 C3727 1.429 . S
C3731 C3732 1.523 . S
C3732 C3716 1.368 . S
C3732 C3728 1.336 1_655 S
C3732 C3731 1.523 . S
H3733 C3708 0.950 . S
H3734 C3710 0.950 . S
H3735 C3711 0.949 . S
H3736 C3713 0.950 . S
H3737 C3715 0.950 . S
C3738 C3739 1.349 . S
C3738 C3740 1.327 . S
C3738 H3763 0.950 . S
C3739 C3738 1.349 . S
C3739 C3755 1.349 . S
C3740 C3738 1.327 . S
C3740 C3759 1.429 . S
C3740 H3764 0.950 . S
C3741 C3758 1.574 . S
C3741 C3760 1.368 . S
C3741 H3765 0.949 . S
H3742 C3746 0.949 . S
C3743 C3744 1.349 . S
C3743 C3745 1.327 . S
C3743 H3766 0.950 . S
C3744 C3743 1.349 . S
C3744 C3756 1.349 . S
C3745 C3743 1.327 . S
C3745 C3761 1.429 . S
C3745 H3767 0.950 . S
C3746 H3742 0.949 . S
C3746 C3754 1.574 . S
C3746 C3762 1.368 . S
H3747 C3755 0.950 . S
H3748 C3753 0.950 . S
H3749 C3754 0.949 . S
H3750 C3756 0.950 . S
H3751 C3757 0.950 . S
H3752 C3758 0.949 . S
C3753 H3748 0.950 . S
C3753 C3755 1.327 . S
C3753 C3759 1.429 . S
C3754 C3746 1.574 . S
C3754 H3749 0.949 . S
C3754 C3760 1.368 . S
C3755 C3739 1.349 . S
C3755 H3747 0.950 . S
C3755 C3753 1.327 . S
C3756 C3744 1.349 . S
C3756 H3750 0.950 . S
C3756 C3757 1.327 . S
C3757 H3751 0.950 . S
C3757 C3756 1.327 . S
C3757 C3761 1.429 . S
C3758 C3741 1.574 . S
C3758 H3752 0.949 . S
C3758 C3762 1.368 . S
C3759 C3740 1.429 . S
C3759 C3753 1.429 . S
C3759 C3760 1.523 . S
C3760 C3741 1.368 . S
C3760 C3754 1.368 . S
C3760 C3759 1.523 . S
C3761 C3745 1.429 . S
C3761 C3757 1.429 . S
C3761 C3762 1.523 . S
C3762 C3746 1.368 . S
C3762 C3758 1.368 . S
C3762 C3761 1.523 . S
H3763 C3738 0.950 . S
H3764 C3740 0.950 . S
H3765 C3741 0.949 . S
H3766 C3743 0.950 . S
H3767 C3745 0.950 . S
C3768 C3769 1.349 . S
C3768 C3770 1.327 . S
C3768 H3793 0.950 . S
C3769 C3768 1.349 . S
C3769 C3785 1.349 . S
C3770 C3768 1.327 . S
C3770 C3789 1.429 . S
C3770 H3794 0.950 . S
C3771 C3788 1.574 . S
C3771 C3790 1.368 1_545 S
C3771 H3795 0.949 . S
H3772 C3776 0.949 . S
C3773 C3774 1.349 . S
C3773 C3775 1.327 . S
C3773 H3796 0.950 . S
C3774 C3773 1.349 . S
C3774 C3786 1.349 . S
C3775 C3773 1.327 . S
C3775 C3791 1.429 . S
C3775 H3797 0.950 . S
C3776 H3772 0.949 . S
C3776 C3784 1.574 . S
C3776 C3792 1.368 1_565 S
H3777 C3785 0.950 . S
H3778 C3783 0.950 . S
H3779 C3784 0.949 . S
H3780 C3786 0.950 . S
H3781 C3787 0.950 . S
H3782 C3788 0.949 . S
C3783 H3778 0.950 . S
C3783 C3785 1.327 . S
C3783 C3789 1.429 . S
C3784 C3776 1.574 . S
C3784 H3779 0.949 . S
C3784 C3790 1.368 . S
C3785 C3769 1.349 . S
C3785 H3777 0.950 . S
C3785 C3783 1.327 . S
C3786 C3774 1.349 . S
C3786 H3780 0.950 . S
C3786 C3787 1.327 . S
C3787 H3781 0.950 . S
C3787 C3786 1.327 . S
C3787 C3791 1.429 . S
C3788 C3771 1.574 . S
C3788 H3782 0.949 . S
C3788 C3792 1.368 . S
C3789 C3770 1.429 . S
C3789 C3783 1.429 . S
C3789 C3790 1.523 . S
C3790 C3771 1.368 1_565 S
C3790 C3784 1.368 . S
C3790 C3789 1.523 . S
C3791 C3775 1.429 . S
C3791 C3787 1.429 . S
C3791 C3792 1.523 . S
C3792 C3776 1.368 1_545 S
C3792 C3788 1.368 . S
C3792 C3791 1.523 . S
H3793 C3768 0.950 . S
H3794 C3770 0.950 . S
H3795 C3771 0.949 . S
H3796 C3773 0.950 . S
H3797 C3775 0.950 . S
C3798 C3799 1.349 . S
C3798 C3800 1.327 . S
C3798 H3823 0.950 . S
C3799 C3798 1.349 . S
C3799 C3815 1.349 . S
C3800 C3798 1.327 . S
C3800 C3819 1.429 . S
C3800 H3824 0.950 . S
C3801 C3818 1.563 1_565 S
C3801 C3820 1.368 . S
C3801 H3825 0.949 . S
H3802 C3806 0.949 . S
C3803 C3804 1.349 . S
C3803 C3805 1.327 . S
C3803 H3826 0.950 . S
C3804 C3803 1.349 . S
C3804 C3816 1.349 . S
C3805 C3803 1.327 . S
C3805 C3821 1.429 . S
C3805 H3827 0.950 . S
C3806 H3802 0.949 . S
C3806 C3814 1.563 1_545 S
C3806 C3822 1.368 . S
H3807 C3815 0.950 . S
H3808 C3813 0.950 . S
H3809 C3814 0.959 . S
H3810 C3816 0.950 . S
H3811 C3817 0.950 . S
H3812 C3818 0.959 . S
C3813 H3808 0.950 . S
C3813 C3815 1.327 . S
C3813 C3819 1.429 . S
C3814 C3806 1.563 1_565 S
C3814 H3809 0.959 . S
C3814 C3820 1.382 . S
C3815 C3799 1.349 . S
C3815 H3807 0.950 . S
C3815 C3813 1.327 . S
C3816 C3804 1.349 . S
C3816 H3810 0.950 . S
C3816 C3817 1.327 . S
C3817 H3811 0.950 . S
C3817 C3816 1.327 . S
C3817 C3821 1.429 . S
C3818 C3801 1.563 1_545 S
C3818 H3812 0.959 . S
C3818 C3822 1.382 . S
C3819 C3800 1.429 . S
C3819 C3813 1.429 . S
C3819 C3820 1.523 . S
C3820 C3801 1.368 . S
C3820 C3814 1.382 . S
C3820 C3819 1.523 . S
C3821 C3805 1.429 . S
C3821 C3817 1.429 . S
C3821 C3822 1.523 . S
C3822 C3806 1.368 . S
C3822 C3818 1.382 . S
C3822 C3821 1.523 . S
H3823 C3798 0.950 . S
H3824 C3800 0.950 . S
H3825 C3801 0.949 . S
H3826 C3803 0.950 . S
H3827 C3805 0.950 . S
C3828 C3829 1.349 . S
C3828 C3830 1.327 . S
C3828 H3853 0.950 . S
C3829 C3828 1.349 . S
C3829 C3845 1.349 . S
C3830 C3828 1.327 . S
C3830 C3849 1.429 . S
C3830 H3854 0.950 . S
C3831 C3848 1.574 1_455 S
C3831 C3850 1.368 . S
C3831 H3855 0.949 . S
H3832 C3836 0.949 . S
C3833 C3834 1.349 . S
C3833 C3835 1.327 . S
C3833 H3856 0.950 . S
C3834 C3833 1.349 . S
C3834 C3846 1.349 . S
C3835 C3833 1.327 . S
C3835 C3851 1.429 . S
C3835 H3857 0.950 . S
C3836 H3832 0.949 . S
C3836 C3844 1.574 1_655 S
C3836 C3852 1.368 . S
H3837 C3845 0.950 . S
H3838 C3843 0.950 . S
H3839 C3844 0.949 . S
H3840 C3846 0.950 . S
H3841 C3847 0.950 . S
H3842 C3848 0.949 . S
C3843 H3838 0.950 . S
C3843 C3845 1.327 . S
C3843 C3849 1.429 . S
C3844 C3836 1.574 1_455 S
C3844 H3839 0.949 . S
C3844 C3850 1.368 . S
C3845 C3829 1.349 . S
C3845 H3837 0.950 . S
C3845 C3843 1.327 . S
C3846 C3834 1.349 . S
C3846 H3840 0.950 . S
C3846 C3847 1.327 . S
C3847 H3841 0.950 . S
C3847 C3846 1.327 . S
C3847 C3851 1.429 . S
C3848 C3831 1.574 1_655 S
C3848 H3842 0.949 . S
C3848 C3852 1.368 . S
C3849 C3830 1.429 . S
C3849 C3843 1.429 . S
C3849 C3850 1.523 . S
C3850 C3831 1.368 . S
C3850 C3844 1.368 . S
C3850 C3849 1.523 . S
C3851 C3835 1.429 . S
C3851 C3847 1.429 . S
C3851 C3852 1.523 . S
C3852 C3836 1.368 . S
C3852 C3848 1.368 . S
C3852 C3851 1.523 . S
H3853 C3828 0.950 . S
H3854 C3830 0.950 . S
H3855 C3831 0.949 . S
H3856 C3833 0.950 . S
H3857 C3835 0.950 . S
C3858 C3859 1.349 . S
C3858 C3860 1.327 . S
C3858 H3883 0.950 . S
C3859 C3858 1.349 . S
C3859 C3875 1.349 . S
C3860 C3858 1.327 . S
C3860 C3879 1.429 . S
C3860 H3884 0.950 . S
C3861 C3878 1.574 . S
C3861 C3880 1.368 . S
C3861 H3885 0.949 . S
H3862 C3866 0.949 . S
C3863 C3864 1.349 . S
C3863 C3865 1.327 . S
C3863 H3886 0.950 . S
C3864 C3863 1.349 . S
C3864 C3876 1.349 . S
C3865 C3863 1.327 . S
C3865 C3881 1.429 . S
C3865 H3887 0.950 . S
C3866 H3862 0.949 . S
C3866 C3874 1.574 . S
C3866 C3882 1.368 . S
H3867 C3875 0.950 . S
H3868 C3873 0.950 . S
H3869 C3874 0.949 . S
H3870 C3876 0.950 . S
H3871 C3877 0.950 . S
H3872 C3878 0.949 . S
C3873 H3868 0.950 . S
C3873 C3875 1.327 . S
C3873 C3879 1.429 . S
C3874 C3866 1.574 . S
C3874 H3869 0.949 . S
C3874 C3880 1.368 . S
C3875 C3859 1.349 . S
C3875 H3867 0.950 . S
C3875 C3873 1.327 . S
C3876 C3864 1.349 . S
C3876 H3870 0.950 . S
C3876 C3877 1.327 . S
C3877 H3871 0.950 . S
C3877 C3876 1.327 . S
C3877 C3881 1.429 . S
C3878 C3861 1.574 . S
C3878 H3872 0.949 . S
C3878 C3882 1.368 . S
C3879 C3860 1.429 . S
C3879 C3873 1.429 . S
C3879 C3880 1.523 . S
C3880 C3861 1.368 . S
C3880 C3874 1.368 . S
C3880 C3879 1.523 . S
C3881 C3865 1.429 . S
C3881 C3877 1.429 . S
C3881 C3882 1.523 . S
C3882 C3866 1.368 . S
C3882 C3878 1.368 . S
C3882 C3881 1.523 . S
H3883 C3858 0.950 . S
H3884 C3860 0.950 . S
H3885 C3861 0.949 . S
H3886 C3863 0.950 . S
H3887 C3865 0.950 . S
C1189 N608 0.787 . S
C1194 N14 0.787 . S
C1219 N47 0.787 . S
C1224 N641 0.787 . S
C1249 N674 0.788 . S
C1254 N80 0.788 . S
C1279 N1103 0.787 . S
C1284 N113 0.787 . S
C1309 N1136 0.788 . S
C1314 N146 0.788 . S
C1339 N179 0.788 . S
C1344 N1169 0.788 . S
C1369 N212 0.787 . S
C1374 N806 0.787 . S
C1399 N839 0.787 . S
C1404 N245 0.787 . S
C1429 N278 0.788 . S
C1434 N872 0.788 . S
C1459 N509 0.787 . S
C1464 N311 0.787 . S
C1489 N344 0.788 . S
C1494 N542 0.788 . S
C1519 N575 0.788 . S
C1524 N377 0.788 . S
C1549 N410 0.788 . S
C1554 N1004 0.788 . S
C1579 N443 0.788 . S
C1584 N1037 0.788 . S
C1609 N1070 0.788 . S
C1614 N476 0.788 . S
C1639 N905 0.787 . S
C1644 N707 0.787 . S
C1669 N740 0.788 . S
C1674 N938 0.788 . S
C1699 N971 0.788 . S
C1704 N773 0.788 . S
C1729 C17 0.983 . S
C1734 N236 0.974 . S
C1759 C50 0.983 . S
C1764 N269 0.974 . S
C1789 C83 0.982 . S
C1794 N203 0.974 . S
C1819 N368 0.973 . S
C1824 C116 0.982 . S
C1849 C149 0.983 . S
C1854 N302 0.974 . S
C1879 C182 0.983 . S
C1884 N335 0.974 . S
C1909 C215 0.983 . S
C1914 N38 0.974 . S
C1939 C248 0.983 . S
C1944 N71 0.974 . S
C1969 N5 0.974 . S
C1974 C281 0.982 . S
C1999 C314 0.982 . S
C2004 N170 0.973 . S
C2029 C347 0.983 . S
C2034 N104 0.974 . S
C2059 C380 0.983 . S
C2064 N137 0.974 . S
C2089 N632 0.974 . S
C2094 C413 0.983 . S
C2119 C446 0.983 . S
C2124 N665 0.974 . S
C2149 C479 0.982 . S
C2154 N599 0.973 . S
C2179 C512 0.982 . S
C2184 N764 0.973 . S
C2209 C545 0.982 . S
C2214 N698 0.973 . S
C2239 N731 0.974 . S
C2244 C578 0.983 . S
C2269 N434 0.973 . S
C2274 C611 0.982 . S
C2299 C644 0.983 . S
C2304 N467 0.974 . S
C2329 N401 0.973 . S
C2334 C677 0.982 . S
C2359 C710 0.983 . S
C2364 N566 0.974 . S
C2389 N500 0.973 . S
C2394 C743 0.982 . S
C2419 N533 0.974 . S
C2424 C776 0.983 . S
C2449 N1028 0.973 . S
C2454 C809 0.982 . S
C2479 N1061 0.974 . S
C2484 C842 0.983 . S
C2509 C875 0.982 . S
C2514 N995 0.973 . S
C2539 N1160 0.974 . S
C2544 C908 0.983 . S
C2569 N1094 0.973 . S
C2574 C941 0.982 . S
C2599 C974 0.983 . S
C2604 N1127 0.974 . S
C2629 N830 0.974 . S
C2634 C1007 0.983 . S
C2659 C1040 0.983 . S
C2664 N863 0.974 . S
C2689 C1073 0.982 . S
C2694 N797 0.973 . S
C2719 C1106 0.982 . S
C2724 N962 0.973 . S
C2749 N896 0.973 . S
C2754 C1139 0.982 . S
C2779 N929 0.974 . S
C2784 C1172 0.983 . S
C2809 C28 1.547 . S
C2814 C127 1.547 . S
C2839 C61 1.547 . S
C2844 C160 1.547 . S
C2869 C193 1.547 . S
C2874 C94 1.547 . S
C2899 C226 1.547 . S
C2904 C325 1.547 . S
C2929 C358 1.547 . S
C2934 C259 1.547 . S
C2959 C292 1.547 . S
C2964 C391 1.547 . S
C2989 C424 1.546 . S
C2994 C523 1.546 . S
C3019 C457 1.547 . S
C3024 C556 1.547 . S
C3049 C589 1.547 . S
C3054 C490 1.547 . S
C3079 C622 1.546 . S
C3084 C721 1.546 . S
C3109 C655 1.547 . S
C3114 C754 1.547 . S
C3139 C787 1.547 . S
C3144 C688 1.547 . S
C3169 C919 1.546 . S
C3174 C820 1.546 . S
C3199 C952 1.547 . S
C3204 C853 1.547 . S
C3229 C886 1.547 . S
C3234 C985 1.547 . S
C3259 C1018 1.546 . S
C3264 C1117 1.546 . S
C3289 C1150 1.547 . S
C3294 C1051 1.547 . S
C3319 C1183 1.547 . S
C3324 C1084 1.547 . S
C3349 C8 1.957 1_556 S
C3354 C536 1.957 . S
C3379 C41 1.957 1_556 S
C3384 C569 1.957 . S
C3409 C503 1.957 . S
C3414 C74 1.957 1_556 S
C3439 C107 1.957 . S
C3444 C866 1.957 . S
C3469 C800 1.957 . S
C3474 C140 1.957 . S
C3499 C173 1.957 . S
C3504 C833 1.957 . S
C3529 C206 1.957 1_554 S
C3534 C1130 1.957 . S
C3559 C1163 1.957 . S
C3564 C239 1.957 1_554 S
C3589 C272 1.957 1_554 S
C3594 C1097 1.957 . S
C3619 C668 1.957 . S
C3624 C305 1.957 . S
C3649 C602 1.957 . S
C3654 C338 1.957 . S
C3679 C635 1.957 . S
C3684 C371 1.957 . S
C3709 C932 1.957 . S
C3714 C404 1.957 . S
C3739 C965 1.957 . S
C3744 C437 1.957 . S
C3769 C899 1.957 . S
C3774 C470 1.957 . S
C3799 C1064 1.957 . S
C3804 C701 1.957 . S
C3829 C998 1.957 . S
C3834 C734 1.957 . S
C3859 C1031 1.957 . S
C3864 C767 1.957 . S
