# Generated by pormake.
# Topology ecn, (8)-cn, num edge types: 1
# Building blocks:
#     Node 0, Type 0, BuildingBlock: TAGTUT_clean_sbu_3, # of connection points: 8
#     Node 1, Type 0, BuildingBlock: TAGTUT_clean_sbu_3, # of connection points: 8
#     Node 2, Type 0, BuildingBlock: TAGTUT_clean_sbu_3, # of connection points: 8
#     Node 3, Type 0, BuildingBlock: TAGTUT_clean_sbu_3, # of connection points: 8
#     Node 4, Type 0, BuildingBlock: TAGTUT_clean_sbu_3, # of connection points: 8
#     Node 5, Type 0, BuildingBlock: TAGTUT_clean_sbu_3, # of connection points: 8
#     Node 6, Type 0, BuildingBlock: TAGTUT_clean_sbu_3, # of connection points: 8
#     Node 7, Type 0, BuildingBlock: TAGTUT_clean_sbu_3, # of connection points: 8
#     Node 8, Type 0, BuildingBlock: TAGTUT_clean_sbu_3, # of connection points: 8
#     Edge 9, Type (0, 0), BuildingBlock: UVAHIK_clean_linker_0, # of connection points: 2
#     Edge 10, Type (0, 0), BuildingBlock: UVAHIK_clean_linker_0, # of connection points: 2
#     Edge 11, Type (0, 0), BuildingBlock: UVAHIK_clean_linker_0, # of connection points: 2
#     Edge 12, Type (0, 0), BuildingBlock: UVAHIK_clean_linker_0, # of connection points: 2
#     Edge 13, Type (0, 0), BuildingBlock: UVAHIK_clean_linker_0, # of connection points: 2
#     Edge 14, Type (0, 0), BuildingBlock: UVAHIK_clean_linker_0, # of connection points: 2
#     Edge 15, Type (0, 0), BuildingBlock: UVAHIK_clean_linker_0, # of connection points: 2
#     Edge 16, Type (0, 0), BuildingBlock: UVAHIK_clean_linker_0, # of connection points: 2
#     Edge 17, Type (0, 0), BuildingBlock: UVAHIK_clean_linker_0, # of connection points: 2
#     Edge 18, Type (0, 0), BuildingBlock: UVAHIK_clean_linker_0, # of connection points: 2
#     Edge 19, Type (0, 0), BuildingBlock: UVAHIK_clean_linker_0, # of connection points: 2
#     Edge 20, Type (0, 0), BuildingBlock: UVAHIK_clean_linker_0, # of connection points: 2
#     Edge 21, Type (0, 0), BuildingBlock: UVAHIK_clean_linker_0, # of connection points: 2
#     Edge 22, Type (0, 0), BuildingBlock: UVAHIK_clean_linker_0, # of connection points: 2
#     Edge 23, Type (0, 0), BuildingBlock: UVAHIK_clean_linker_0, # of connection points: 2
#     Edge 24, Type (0, 0), BuildingBlock: UVAHIK_clean_linker_0, # of connection points: 2
#     Edge 25, Type (0, 0), BuildingBlock: UVAHIK_clean_linker_0, # of connection points: 2
#     Edge 26, Type (0, 0), BuildingBlock: UVAHIK_clean_linker_0, # of connection points: 2
#     Edge 27, Type (0, 0), BuildingBlock: UVAHIK_clean_linker_0, # of connection points: 2
#     Edge 28, Type (0, 0), BuildingBlock: UVAHIK_clean_linker_0, # of connection points: 2
#     Edge 29, Type (0, 0), BuildingBlock: UVAHIK_clean_linker_0, # of connection points: 2
#     Edge 30, Type (0, 0), BuildingBlock: UVAHIK_clean_linker_0, # of connection points: 2
#     Edge 31, Type (0, 0), BuildingBlock: UVAHIK_clean_linker_0, # of connection points: 2
#     Edge 32, Type (0, 0), BuildingBlock: UVAHIK_clean_linker_0, # of connection points: 2
#     Edge 33, Type (0, 0), BuildingBlock: UVAHIK_clean_linker_0, # of connection points: 2
#     Edge 34, Type (0, 0), BuildingBlock: UVAHIK_clean_linker_0, # of connection points: 2
#     Edge 35, Type (0, 0), BuildingBlock: UVAHIK_clean_linker_0, # of connection points: 2
#     Edge 36, Type (0, 0), BuildingBlock: UVAHIK_clean_linker_0, # of connection points: 2
#     Edge 37, Type (0, 0), BuildingBlock: UVAHIK_clean_linker_0, # of connection points: 2
#     Edge 38, Type (0, 0), BuildingBlock: UVAHIK_clean_linker_0, # of connection points: 2
#     Edge 39, Type (0, 0), BuildingBlock: UVAHIK_clean_linker_0, # of connection points: 2
#     Edge 40, Type (0, 0), BuildingBlock: UVAHIK_clean_linker_0, # of connection points: 2
#     Edge 41, Type (0, 0), BuildingBlock: UVAHIK_clean_linker_0, # of connection points: 2
#     Edge 42, Type (0, 0), BuildingBlock: UVAHIK_clean_linker_0, # of connection points: 2
#     Edge 43, Type (0, 0), BuildingBlock: UVAHIK_clean_linker_0, # of connection points: 2
#     Edge 44, Type (0, 0), BuildingBlock: UVAHIK_clean_linker_0, # of connection points: 2
# Relax obj value: 0.160
# Max RMSD: 0.273
# Mean RMSD: 0.273
data_MOF--net-ecn--node1-TAGTUT_clean_sbu_3--edge1-UVAHIK_clean_linker_0
_symmetry_space_group_name_H-M    P1
_symmetry_Int_Tables_number       1
_symmetry_cell_setting            triclinic
loop_
_symmetry_equiv_pos_as_xyz
'x, y, z'
_cell_length_a     63.328404
_cell_length_b     63.357499
_cell_length_c     18.747141
_cell_angle_alpha  90.082182
_cell_angle_beta   90.006752
_cell_angle_gamma 119.95045
loop_
_atom_site_label
_atom_site_type_symbol
_atom_site_fract_x
_atom_site_fract_y
_atom_site_fract_z
_atom_type_partial_charge
C0 C 0.11841 0.26582 0.09484 0.0
C1 C 0.02294 0.21095 0.12614 0.0
C2 C 0.03834 0.15457 0.05073 0.0
Mg3 Mg 0.15908 0.25426 0.02066 0.0
Mg4 Mg 0.14599 0.2177 0.87967 0.0
O5 O 0.13729 0.22292 0.97106 0.0
Mg6 Mg 0.10493 0.21928 -0.00275 0.0
O7 O 0.0739 0.21754 0.03272 0.0
Mg8 Mg 0.07566 0.20879 0.13357 0.0
Mg9 Mg 0.04372 0.20185 0.98802 0.0
C10 C 0.09519 0.1695 0.90882 0.0
O11 O 0.0967 0.23062 0.8893 0.0
O12 O 0.1912 0.24686 -0.00125 0.0
O13 O 0.05631 0.21765 0.88408 0.0
O14 O 0.16705 0.27494 0.91466 0.0
O15 O 0.18024 0.22013 0.90824 0.0
O16 O 0.1551 0.25035 0.81936 0.0
O17 O 0.11023 0.20785 0.10465 0.0
O18 O 0.14985 0.23246 0.12338 0.0
C19 C 0.12895 0.2158 0.14483 0.0
C20 C 0.19543 0.23333 0.95668 0.0
O21 O 0.08884 0.18016 0.95556 0.0
O22 O 0.0407 0.21104 0.15949 0.0
O23 O 0.11422 0.18095 0.86912 0.0
O24 O 0.05097 0.16609 0.10619 0.0
O25 O 0.02087 0.20878 0.05821 0.0
O26 O 0.03457 0.16543 -0.00057 0.0
O27 O 0.12395 0.2573 0.04018 0.0
O28 O 0.10121 0.25161 0.13815 0.0
C29 C 0.16458 0.27162 0.84716 0.0
C30 C 0.07777 0.22837 0.85683 0.0
C31 C 0.74597 0.85589 0.06733 0.0
C32 C 0.80156 0.81584 0.09875 0.0
C33 C 0.85829 0.88866 0.03408 0.0
Mg34 Mg 0.75776 0.90872 -0.00286 0.0
Mg35 Mg 0.79535 0.93359 0.85879 0.0
O36 O 0.78934 0.91853 0.9486 0.0
Mg37 Mg 0.79306 0.88977 0.97388 0.0
O38 O 0.79502 0.86051 0.00823 0.0
Mg39 Mg 0.80272 0.8701 0.11025 0.0
Mg40 Mg 0.81226 0.84764 0.96368 0.0
C41 C 0.84337 0.93024 0.88942 0.0
O42 O 0.78236 0.8708 0.86527 0.0
O43 O 0.76525 0.9483 0.97826 0.0
O44 O 0.79678 0.84456 0.8593 0.0
O45 O 0.73759 0.89696 0.88991 0.0
O46 O 0.79287 0.96522 0.89056 0.0
O47 O 0.76275 0.91084 0.79608 0.0
O48 O 0.80386 0.9058 0.08228 0.0
O49 O 0.77906 0.92061 0.10088 0.0
C50 C 0.79577 0.91644 0.12245 0.0
C51 C 0.77917 0.96657 0.93856 0.0
O52 O 0.83228 0.91285 0.93454 0.0
O53 O 0.80041 0.83265 0.13396 0.0
O54 O 0.83231 0.93847 0.85032 0.0
O55 O 0.84563 0.8884 0.08837 0.0
O56 O 0.80506 0.81728 0.03124 0.0
O57 O 0.84847 0.87528 0.97953 0.0
O58 O 0.75471 0.87049 0.0141 0.0
O59 O 0.75998 0.85263 0.1108 0.0
C60 C 0.74128 0.89867 0.82252 0.0
C61 C 0.78536 0.85466 0.8324 0.0
C62 C 0.15763 0.89274 0.08108 0.0
C63 C 0.19957 0.98723 0.11409 0.0
C64 C 0.12831 0.97435 0.04217 0.0
Mg65 Mg 0.10521 0.85229 0.00839 0.0
Mg66 Mg 0.0802 0.86513 0.87021 0.0
O67 O 0.09544 0.87405 0.9599 0.0
Mg68 Mg 0.12426 0.90638 0.98574 0.0
O69 O 0.15365 0.93729 0.0208 0.0
Mg70 Mg 0.14377 0.93569 0.12216 0.0
Mg71 Mg 0.16926 0.96751 0.9767 0.0
C72 C 0.08294 0.91598 0.90384 0.0
O73 O 0.14332 0.91444 0.87746 0.0
O74 O 0.06577 0.82023 0.98859 0.0
O75 O 0.17143 0.95459 0.87199 0.0
O76 O 0.11695 0.84399 0.90098 0.0
O77 O 0.04881 0.8309 0.90087 0.0
O78 O 0.103 0.85534 0.80732 0.0
O79 O 0.10797 0.9013 0.09356 0.0
O80 O 0.09309 0.8617 0.11173 0.0
C81 C 0.09707 0.88252 0.13325 0.0
C82 C 0.04754 0.81582 0.9485 0.0
O83 O 0.10106 0.92256 0.94668 0.0
O84 O 0.18121 0.97035 0.14749 0.0
O85 O 0.07447 0.89672 0.86449 0.0
O86 O 0.12651 0.96098 0.0963 0.0
O87 O 0.19995 0.98884 0.046 0.0
O88 O 0.14304 0.97821 -0.00903 0.0
O89 O 0.14345 0.8873 0.02675 0.0
O90 O 0.1607 0.90984 0.12505 0.0
C91 C 0.11515 0.84597 0.83362 0.0
C92 C 0.16011 0.93313 0.84471 0.0
C93 C 0.78464 0.60205 0.40883 0.0
C94 C 0.68914 0.5471 0.42238 0.0
C95 C 0.70579 0.48924 0.38166 0.0
Mg96 Mg 0.82717 0.58985 0.35411 0.0
Mg97 Mg 0.81664 0.55097 0.22101 0.0
O98 O 0.80664 0.55738 0.30847 0.0
Mg99 Mg 0.7736 0.55362 0.32406 0.0
O100 O 0.74166 0.55203 0.34736 0.0
Mg101 Mg 0.74161 0.5458 0.45197 0.0
Mg102 Mg 0.71258 0.53413 0.29752 0.0
C103 C 0.76619 0.50234 0.25179 0.0
O104 O 0.76804 0.56133 0.21028 0.0
O105 O 0.86031 0.58294 0.34354 0.0
O106 O 0.72741 0.54254 0.19003 0.0
O107 O 0.83679 0.60876 0.24483 0.0
O108 O 0.85082 0.55521 0.25641 0.0
O109 O 0.82587 0.5824 0.15396 0.0
O110 O 0.77657 0.5444 0.43452 0.0
O111 O 0.81591 0.56886 0.45906 0.0
C112 C 0.79465 0.55182 0.47667 0.0
C113 C 0.86531 0.56915 0.305 0.0
O114 O 0.75857 0.51363 0.29196 0.0
O115 O 0.70619 0.5482 0.46212 0.0
O116 O 0.78605 0.51331 0.2154 0.0
O117 O 0.71772 0.50255 0.43549 0.0
O118 O 0.6883 0.54306 0.35504 0.0
O119 O 0.70275 0.49833 0.32479 0.0
O120 O 0.79147 0.59255 0.35988 0.0
O121 O 0.76658 0.58857 0.45045 0.0
C122 C 0.83504 0.60417 0.1779 0.0
C123 C 0.74961 0.55312 0.16824 0.0
C124 C 0.41137 0.18581 0.41717 0.0
C125 C 0.46938 0.14887 0.45163 0.0
C126 C 0.52483 0.22224 0.38798 0.0
Mg127 Mg 0.42155 0.2378 0.34454 0.0
Mg128 Mg 0.45982 0.26347 0.20788 0.0
O129 O 0.45365 0.24869 0.29808 0.0
Mg130 Mg 0.45843 0.22074 0.32463 0.0
O131 O 0.46148 0.19221 0.35963 0.0
Mg132 Mg 0.4686 0.20215 0.46164 0.0
Mg133 Mg 0.4798 0.18034 0.31577 0.0
C134 C 0.50872 0.26238 0.24223 0.0
O135 O 0.44888 0.20193 0.21643 0.0
O136 O 0.42785 0.2769 0.32438 0.0
O137 O 0.46489 0.17704 0.20994 0.0
O138 O 0.40218 0.22567 0.23599 0.0
O139 O 0.4558 0.29432 0.23766 0.0
O140 O 0.42794 0.24002 0.1436 0.0
O141 O 0.4684 0.23707 0.43267 0.0
O142 O 0.4422 0.2503 0.44937 0.0
C143 C 0.4595 0.24717 0.47184 0.0
C144 C 0.44155 0.29523 0.28457 0.0
O145 O 0.49777 0.24493 0.28723 0.0
O146 O 0.46753 0.16545 0.48589 0.0
O147 O 0.49738 0.26992 0.20172 0.0
O148 O 0.51167 0.22153 0.44147 0.0
O149 O 0.47319 0.15023 0.38423 0.0
O150 O 0.51562 0.20884 0.33311 0.0
O151 O 0.41971 0.20013 0.36313 0.0
O152 O 0.4258 0.18351 0.46139 0.0
C153 C 0.40633 0.22752 0.16881 0.0
C154 C 0.45285 0.18651 0.18317 0.0
C155 C 0.82475 0.22334 0.43063 0.0
C156 C 0.86622 0.31887 0.46778 0.0
C157 C 0.79409 0.30442 0.40203 0.0
Mg158 Mg 0.77196 0.18335 0.35735 0.0
Mg159 Mg 0.74725 0.19787 0.22254 0.0
O160 O 0.76198 0.20557 0.31315 0.0
Mg161 Mg 0.79094 0.23765 0.34009 0.0
O162 O 0.8206 0.2684 0.3752 0.0
Mg163 Mg 0.81127 0.26618 0.47728 0.0
Mg164 Mg 0.83479 0.2987 0.33149 0.0
C165 C 0.74947 0.24795 0.26182 0.0
O166 O 0.80965 0.2462 0.23168 0.0
O167 O 0.73224 0.15142 0.33634 0.0
O168 O 0.83738 0.28646 0.22597 0.0
O169 O 0.78355 0.1762 0.24773 0.0
O170 O 0.71589 0.16323 0.24969 0.0
O171 O 0.77027 0.18928 0.15663 0.0
O172 O 0.77529 0.23175 0.44897 0.0
O173 O 0.76046 0.19192 0.46323 0.0
C174 C 0.76491 0.21261 0.48754 0.0
C175 C 0.71424 0.14758 0.29586 0.0
O176 O 0.7675 0.25411 0.30473 0.0
O177 O 0.84897 0.30101 0.50195 0.0
O178 O 0.74126 0.22926 0.22027 0.0
O179 O 0.79352 0.29149 0.45601 0.0
O180 O 0.86525 0.32111 0.40017 0.0
O181 O 0.80785 0.30807 0.34841 0.0
O182 O 0.81027 0.21825 0.37715 0.0
O183 O 0.82821 0.24029 0.47576 0.0
C184 C 0.78209 0.17928 0.18081 0.0
C185 C 0.82634 0.26494 0.19904 0.0
C186 C 0.45201 0.93462 0.74523 0.0
C187 C 0.35644 0.88076 0.78122 0.0
C188 C 0.37017 0.82272 0.71657 0.0
Mg189 Mg 0.49169 0.92146 0.67236 0.0
Mg190 Mg 0.47735 0.88257 0.53618 0.0
O191 O 0.46932 0.8896 0.62632 0.0
Mg192 Mg 0.43729 0.88671 0.65305 0.0
O193 O 0.40655 0.88561 0.6883 0.0
Mg194 Mg 0.40895 0.87839 0.79033 0.0
Mg195 Mg 0.37613 0.86899 0.6448 0.0
C196 C 0.42634 0.83521 0.57244 0.0
O197 O 0.42878 0.89706 0.54505 0.0
O198 O 0.52336 0.91338 0.65186 0.0
O199 O 0.38829 0.88361 0.53901 0.0
O200 O 0.49932 0.94056 0.56369 0.0
O201 O 0.5117 0.88519 0.56524 0.0
O202 O 0.48679 0.91461 0.47142 0.0
O203 O 0.44301 0.8764 0.76132 0.0
O204 O 0.48281 0.90098 0.77738 0.0
C205 C 0.46201 0.8846 0.80038 0.0
C206 C 0.52723 0.89913 0.6119 0.0
O207 O 0.42044 0.84717 0.61573 0.0
O208 O 0.37443 0.88151 0.81512 0.0
O209 O 0.44535 0.8455 0.5321 0.0
O210 O 0.38343 0.83548 0.76963 0.0
O211 O 0.35389 0.87725 0.71371 0.0
O212 O 0.36647 0.83252 0.66229 0.0
O213 O 0.457 0.92527 0.69149 0.0
O214 O 0.43499 0.92112 0.78996 0.0
C215 C 0.49666 0.93631 0.49658 0.0
C216 C 0.40982 0.89446 0.51215 0.0
C217 C 0.07883 0.51922 0.76394 0.0
C218 C 0.13311 0.47826 0.80034 0.0
C219 C 0.1906 0.55024 0.73228 0.0
Mg220 Mg 0.09154 0.57228 0.69255 0.0
Mg221 Mg 0.13024 0.59696 0.55645 0.0
O222 O 0.12346 0.58202 0.64653 0.0
Mg223 Mg 0.1267 0.55309 0.67264 0.0
O224 O 0.12797 0.52351 0.70741 0.0
Mg225 Mg 0.13542 0.53318 0.80922 0.0
Mg226 Mg 0.14397 0.50914 0.66357 0.0
C227 C 0.17814 0.59427 0.59253 0.0
O228 O 0.11635 0.53426 0.56431 0.0
O229 O 0.09934 0.612 0.6726 0.0
O230 O 0.12896 0.50655 0.55831 0.0
O231 O 0.07237 0.56092 0.58391 0.0
O232 O 0.12731 0.62844 0.58555 0.0
O233 O 0.09823 0.57431 0.49162 0.0
O234 O 0.1369 0.56899 0.78112 0.0
O235 O 0.11204 0.58387 0.79759 0.0
C236 C 0.12854 0.57959 0.82047 0.0
C237 C 0.11342 0.63005 0.63236 0.0
O238 O 0.16647 0.57639 0.6359 0.0
O239 O 0.13271 0.49571 0.83407 0.0
O240 O 0.16747 0.60253 0.55197 0.0
O241 O 0.17835 0.55107 0.78626 0.0
O242 O 0.13606 0.47884 0.73266 0.0
O243 O 0.18035 0.53604 0.67953 0.0
O244 O 0.08804 0.53381 0.71074 0.0
O245 O 0.09255 0.516 0.80878 0.0
C246 C 0.07655 0.56254 0.51679 0.0
C247 C 0.11846 0.51758 0.53148 0.0
C248 C 0.49159 0.56279 0.73327 0.0
C249 C 0.53499 0.65841 0.74652 0.0
C250 C 0.46228 0.6451 0.70079 0.0
Mg251 Mg 0.43614 0.52142 0.67835 0.0
Mg252 Mg 0.40942 0.53219 0.54067 0.0
O253 O 0.42637 0.54279 0.6272 0.0
Mg254 Mg 0.45624 0.57541 0.64395 0.0
O255 O 0.48695 0.60691 0.6685 0.0
Mg256 Mg 0.48004 0.60726 0.77245 0.0
Mg257 Mg 0.4997 0.6363 0.61909 0.0
C258 C 0.41395 0.58434 0.56703 0.0
O259 O 0.47075 0.5805 0.53204 0.0
O260 O 0.39582 0.48962 0.66707 0.0
O261 O 0.4923 0.62112 0.5116 0.0
O262 O 0.44542 0.50967 0.57242 0.0
O263 O 0.37821 0.49959 0.57941 0.0
O264 O 0.42977 0.51901 0.47868 0.0
O265 O 0.44324 0.57341 0.75322 0.0
O266 O 0.42565 0.53409 0.77981 0.0
C267 C 0.43098 0.55583 0.79556 0.0
C268 C 0.37715 0.48518 0.62889 0.0
O269 O 0.4328 0.59144 0.60714 0.0
O270 O 0.51792 0.64181 0.78442 0.0
O271 O 0.40448 0.5643 0.53094 0.0
O272 O 0.46224 0.63217 0.75371 0.0
O273 O 0.53315 0.65922 0.67846 0.0
O274 O 0.47507 0.64822 0.64531 0.0
O275 O 0.47541 0.55616 0.68403 0.0
O276 O 0.49663 0.58123 0.77388 0.0
C277 C 0.44216 0.50995 0.50514 0.0
C278 C 0.4806 0.5989 0.48988 0.0
C279 C 0.23383 0.24395 0.02407 0.0
C280 C 0.21803 0.23196 0.9666 0.0
C281 C 0.25415 0.24126 0.0363 0.0
C282 C 0.29546 0.22269 0.95305 0.0
H283 H 0.30744 0.2128 0.14955 0.0
C284 C 0.36191 0.20098 0.14555 0.0
C285 C 0.38492 0.21902 0.12125 0.0
C286 C 0.34066 0.19847 0.115 0.0
C287 C 0.30421 0.21516 0.09418 0.0
H288 H 0.21183 0.20832 0.87553 0.0
H289 H 0.24727 0.20365 0.89714 0.0
H290 H 0.27288 0.21793 0.12103 0.0
H291 H 0.40364 0.24669 0.04065 0.0
H292 H 0.36652 0.24247 0.98757 0.0
H293 H 0.32701 0.21996 0.92654 0.0
C294 C 0.24394 0.21519 0.93257 0.0
C295 C 0.28457 0.21851 0.07799 0.0
C296 C 0.22353 0.21779 0.92046 0.0
C297 C 0.38619 0.23259 0.06049 0.0
C298 C 0.36486 0.23022 0.03021 0.0
C299 C 0.31529 0.21945 0.96935 0.0
C300 C 0.25928 0.22658 -0.00869 0.0
C301 C 0.28004 0.22253 0.00739 0.0
C302 C 0.34192 0.21408 0.05982 0.0
C303 C 0.31995 0.21572 0.04025 0.0
H304 H 0.2303 0.25509 0.06056 0.0
H305 H 0.26583 0.25062 0.08138 0.0
H306 H 0.29252 0.22584 0.89811 0.0
H307 H 0.36033 0.19003 0.19177 0.0
H308 H 0.32326 0.18532 0.13763 0.0
C309 C 0.8086 0.16148 0.15546 0.0
C310 C 0.7907 0.1668 0.13187 0.0
C311 C 0.81145 0.14333 0.12217 0.0
C312 C 0.79527 0.09075 0.09323 0.0
H313 H 0.78673 0.07191 0.89389 0.0
C314 C 0.7676 0.99318 0.00839 0.0
C315 C 0.78035 0.99035 0.95121 0.0
C316 C 0.77006 0.01592 0.02363 0.0
C317 C 0.78928 0.07702 0.94971 0.0
H318 H 0.76364 0.15915 0.05003 0.0
H319 H 0.76844 0.12722 -0.00787 0.0
H320 H 0.7919 0.11157 0.92848 0.0
H321 H 0.80512 0.00927 0.86373 0.0
H322 H 0.80936 0.04895 0.89054 0.0
H323 H 0.79258 0.05638 0.11488 0.0
C324 C 0.78031 0.13709 0.03635 0.0
C325 C 0.79211 0.09967 0.96953 0.0
C326 C 0.7776 0.15548 0.06943 0.0
C327 C 0.79505 0.01074 0.90832 0.0
C328 C 0.79742 0.0335 0.92343 0.0
C329 C 0.79232 0.06818 0.07355 0.0
C330 C 0.79633 0.12991 0.06486 0.0
C331 C 0.79507 0.10677 0.04167 0.0
C332 C 0.78527 0.03644 0.98202 0.0
C333 C 0.78905 0.06089 0.00171 0.0
H334 H 0.81923 0.17015 0.20289 0.0
H335 H 0.82451 0.1388 0.14412 0.0
H336 H 0.79705 0.09534 0.14941 0.0
H337 H 0.75602 0.97793 0.04243 0.0
H338 H 0.76011 0.01745 0.06844 0.0
C339 C 0.02099 0.77759 0.0174 0.0
C340 C 0.02393 0.79306 0.95993 0.0
C341 C 0.99836 0.75706 0.03121 0.0
C342 C 0.94573 0.72646 0.07692 0.0
H343 H 0.90453 0.68179 0.92957 0.0
C344 C 0.85238 0.64827 0.15139 0.0
C345 C 0.84804 0.62522 0.12946 0.0
C346 C 0.87057 0.66937 0.11902 0.0
C347 C 0.91582 0.69416 0.9712 0.0
H348 H 1.00537 0.79846 0.87042 0.0
H349 H 0.96586 0.76256 0.89474 0.0
H350 H 0.9441 0.71682 0.8976 0.0
H351 H 0.85767 0.60611 0.05171 0.0
H352 H 0.88968 0.64304 -0.00462 0.0
H353 H 0.91803 0.70376 0.15082 0.0
C354 C 0.98115 0.76638 0.92897 0.0
C355 C 0.9384 0.71426 0.95288 0.0
C356 C 1.00379 0.78703 0.91532 0.0
C357 C 0.86053 0.62361 0.06961 0.0
C358 C 0.87895 0.64481 0.03745 0.0
C359 C 0.92321 0.70656 0.09509 0.0
C360 C 0.97809 0.75139 0.98779 0.0
C361 C 0.95373 0.73045 0.00579 0.0
C362 C 0.885 0.66791 0.06438 0.0
C363 C 0.90801 0.69005 0.04265 0.0
H364 H 0.03606 0.78155 0.05274 0.0
H365 H 0.99669 0.74566 0.07631 0.0
H366 H 0.95694 0.73875 0.11882 0.0
H367 H 0.84283 0.65007 0.19686 0.0
H368 H 0.87431 0.68688 0.13968 0.0
C369 C 0.79021 0.78846 0.20644 0.0
C370 C 0.80022 0.79476 0.13755 0.0
C371 C 0.78963 0.76886 0.24298 0.0
C372 C 0.79642 0.7141 0.21149 0.0
H373 H 0.80305 0.71502 0.41734 0.0
C374 C 0.81104 0.64267 0.3521 0.0
C375 C 0.79276 0.62843 0.4018 0.0
C376 C 0.81413 0.66499 0.32893 0.0
C377 C 0.80116 0.71457 0.35985 0.0
H378 H 0.81809 0.78576 0.054 0.0
H379 H 0.81803 0.75256 0.11805 0.0
H380 H 0.80343 0.74946 0.35687 0.0
H381 H 0.76521 0.62795 0.47178 0.0
H382 H 0.77113 0.66736 0.43227 0.0
H383 H 0.79484 0.67958 0.21443 0.0
C384 C 0.80969 0.76196 0.14334 0.0
C385 C 0.80119 0.7342 0.32505 0.0
C386 C 0.80986 0.78119 0.10648 0.0
C387 C 0.77943 0.63834 0.43334 0.0
C388 C 0.78274 0.6609 0.41058 0.0
C389 C 0.79685 0.69481 0.24604 0.0
C390 C 0.79941 0.75531 0.21197 0.0
C391 C 0.79891 0.73429 0.25018 0.0
C392 C 0.79932 0.67383 0.35569 0.0
C393 C 0.79932 0.69484 0.32047 0.0
H394 H 0.7826 0.79853 0.2319 0.0
H395 H 0.78124 0.76419 0.29518 0.0
H396 H 0.79386 0.71295 0.15424 0.0
H397 H 0.82191 0.63586 0.32731 0.0
H398 H 0.82736 0.6748 0.28746 0.0
C399 C 0.24341 0.0202 0.12411 0.0
C400 C 0.22038 0.00616 0.15578 0.0
C401 C 0.26271 0.03879 0.1626 0.0
C402 C 0.30247 0.06605 0.27649 0.0
H403 H 0.29308 0.11646 0.36298 0.0
C404 C 0.37809 0.14316 0.44204 0.0
C405 C 0.38536 0.16641 0.41416 0.0
C406 C 0.35583 0.12304 0.42184 0.0
C407 C 0.29587 0.1024 0.33954 0.0
H408 H 0.19957 1.00075 0.25272 0.0
H409 H 0.23318 0.03366 0.31918 0.0
H410 H 0.25884 0.08176 0.30299 0.0
H411 H 0.37388 0.18707 0.34861 0.0
H412 H 0.33471 0.15202 0.31521 0.0
H413 H 0.33943 0.0866 0.31272 0.0
C414 C 0.23628 0.03004 0.26483 0.0
C415 C 0.27631 0.08256 0.30548 0.0
C416 C 0.21712 0.01111 0.22688 0.0
C417 C 0.36884 0.16942 0.37106 0.0
C418 C 0.34641 0.14935 0.35182 0.0
C419 C 0.32185 0.08559 0.31174 0.0
C420 C 0.25925 0.04407 0.23305 0.0
C421 C 0.27954 0.06437 0.27275 0.0
C422 C 0.34017 0.12582 0.37454 0.0
C423 C 0.31884 0.10412 0.34293 0.0
H424 H 0.24654 0.01686 0.06951 0.0
H425 H 0.28021 0.04942 0.13673 0.0
H426 H 0.30542 0.05224 0.25195 0.0
H427 H 0.39035 0.1401 0.47502 0.0
H428 H 0.35133 0.10512 0.44071 0.0
C429 C 0.00729 0.21998 0.23897 0.0
C430 C 1.00339 0.21173 0.16783 0.0
C431 C 0.98833 0.21939 0.27912 0.0
C432 C 0.92185 0.18723 0.29359 0.0
H433 H 0.92978 0.24539 0.38673 0.0
C434 C 0.84021 0.198 0.37331 0.0
C435 C 0.84266 0.21468 0.42684 0.0
C436 C 0.85976 0.19472 0.35507 0.0
C437 C 0.9273 0.22875 0.36274 0.0
H438 H 0.97641 0.19636 0.08336 0.0
H439 H 0.94333 0.19495 0.15382 0.0
H440 H 0.96451 0.24626 0.32765 0.0
H441 H 0.86696 0.23899 0.50839 0.0
H442 H 0.90078 0.23246 0.47868 0.0
H443 H 0.88482 0.16952 0.32879 0.0
C444 C 0.9611 0.20197 0.17831 0.0
C445 C 0.94724 0.22936 0.32838 0.0
C446 C 0.98012 0.20298 0.1378 0.0
C447 C 0.86442 0.22613 0.46652 0.0
C448 C 0.88399 0.22265 0.44869 0.0
C449 C 0.90203 0.18647 0.32893 0.0
C450 C 0.96496 0.21006 0.24943 0.0
C451 C 0.94454 0.20879 0.29193 0.0
C452 C 0.88228 0.20772 0.39058 0.0
C453 C 0.90424 0.20741 0.36239 0.0
H454 H 0.02499 0.22683 0.26371 0.0
H455 H 0.99179 0.22574 0.33385 0.0
H456 H 0.91938 0.17097 0.26689 0.0
H457 H 0.82369 0.18866 0.34184 0.0
H458 H 0.85756 0.18316 0.30982 0.0
C459 C 0.89468 0.55509 0.27169 0.0
C460 C 0.88817 0.56852 0.31767 0.0
C461 C 0.91538 0.55319 0.28491 0.0
C462 C 0.95594 0.5571 0.4311 0.0
H463 H 0.99821 0.55888 0.27856 0.0
C464 C 0.05685 0.56902 0.40998 0.0
C465 C 0.05523 0.55479 0.46941 0.0
C466 C 0.03576 0.56758 0.38099 0.0
C467 C 0.98658 0.55832 0.3217 0.0
H468 H 0.89887 0.59097 0.41294 0.0
H469 H 0.93514 0.58773 0.43589 0.0
H470 H 0.96394 0.56513 0.25137 0.0
H471 H 0.03024 0.52562 0.53873 0.0
H472 H 0.99354 0.52252 0.48676 0.0
H473 H 0.97873 0.55087 0.50172 0.0
C474 C 0.92397 0.57844 0.3899 0.0
C475 C 0.96686 0.56177 0.30612 0.0
C476 C 0.90326 0.58044 0.37651 0.0
C477 C 0.03206 0.53704 0.49348 0.0
C478 C 0.01105 0.53548 0.46426 0.0
C479 C 0.97553 0.55356 0.44659 0.0
C480 C 0.93014 0.5646 0.34459 0.0
C481 C 0.95136 0.5613 0.36075 0.0
C482 C 0.01274 0.55173 0.41061 0.0
C483 C 0.99112 0.55412 0.39218 0.0
H484 H 0.88358 0.54569 0.22568 0.0
H485 H 0.91942 0.54219 0.24934 0.0
H486 H 0.94423 0.55631 0.47434 0.0
H487 H 0.07445 0.58294 0.39045 0.0
H488 H 0.03773 0.58029 0.33943 0.0
C489 C 0.43569 0.48307 0.3994 0.0
C490 C 0.44952 0.49556 0.45973 0.0
C491 C 0.43798 0.46405 0.36919 0.0
C492 C 0.45016 0.42646 0.30589 0.0
H493 H 0.45163 0.38476 0.45484 0.0
C494 C 0.45607 0.33891 0.25194 0.0
C495 C 0.4418 0.3186 0.29562 0.0
C496 C 0.45759 0.36137 0.26546 0.0
C497 C 0.45107 0.3961 0.41256 0.0
H498 H 0.47855 0.49989 0.53031 0.0
H499 H 0.48296 0.46729 0.47666 0.0
H500 H 0.45535 0.42368 0.48628 0.0
H501 H 0.41734 0.306 0.38655 0.0
H502 H 0.41998 0.34506 0.40984 0.0
H503 H 0.44534 0.39837 0.23238 0.0
C504 C 0.46977 0.47154 0.4541 0.0
C505 C 0.45358 0.41863 0.43046 0.0
C506 C 0.46739 0.49038 0.48448 0.0
C507 C 0.4286 0.3212 0.35195 0.0
C508 C 0.43023 0.34367 0.36562 0.0
C509 C 0.44779 0.40387 0.28787 0.0
C510 C 0.45423 0.45733 0.39855 0.0
C511 C 0.45307 0.43408 0.37751 0.0
C512 C 0.44501 0.36411 0.3232 0.0
C513 C 0.44798 0.38834 0.34118 0.0
H514 H 0.42171 0.48658 0.37925 0.0
H515 H 0.42576 0.4535 0.32634 0.0
H516 H 0.44973 0.43794 0.26385 0.0
H517 H 0.46644 0.33761 0.20795 0.0
H518 H 0.46924 0.37679 0.23204 0.0
C519 C 0.51467 0.98064 0.47299 0.0
C520 C 0.50982 0.95761 0.44905 0.0
C521 C 0.53371 1.00183 0.44341 0.0
C522 C 0.5871 0.03781 0.42642 0.0
H523 H 0.61065 0.05023 0.23159 0.0
C524 C 0.68653 0.10876 0.36128 0.0
C525 C 0.69039 0.12482 0.30465 0.0
C526 C 0.66358 0.08825 0.37228 0.0
C527 C 0.60424 0.04706 0.2862 0.0
H528 H 0.51929 0.93876 0.36999 0.0
H529 H 0.55268 0.97581 0.31839 0.0
H530 H 0.57013 0.01567 0.25761 0.0
H531 H 0.67314 0.13129 0.2137 0.0
H532 H 0.63318 0.09555 0.2331 0.0
H533 H 0.62103 0.06897 0.45535 0.0
C534 C 0.54179 0.97752 0.36006 0.0
C535 C 0.58109 0.02721 0.30111 0.0
C536 C 0.52254 0.95624 0.38942 0.0
C537 C 0.67087 0.11941 0.25806 0.0
C538 C 0.64795 0.09882 0.26886 0.0
C539 C 0.61019 0.05746 0.41163 0.0
C540 C 0.54845 1.00047 0.38956 0.0
C541 C 0.57225 0.02234 0.37151 0.0
C542 C 0.64392 0.0832 0.32677 0.0
C543 C 0.61915 0.06227 0.34149 0.0
H544 H 0.50498 0.98226 0.51839 0.0
H545 H 0.53787 0.01925 0.4659 0.0
H546 H 0.58115 0.03439 0.48146 0.0
H547 H 0.70111 0.11225 0.3981 0.0
H548 H 0.66118 0.07638 0.41679 0.0
C549 C 0.47797 0.11438 0.46202 0.0
C550 C 0.46839 0.1282 0.49188 0.0
C551 C 0.47845 0.09585 0.50123 0.0
C552 C 0.44851 0.05259 0.64589 0.0
H553 H 0.50789 0.04908 0.65028 0.0
C554 C 0.44948 0.97158 0.78174 0.0
C555 C 0.46097 0.96124 0.74238 0.0
C556 C 0.45339 0.99482 0.7647 0.0
C557 C 0.49107 0.04961 0.64928 0.0
H558 H 0.45132 0.13298 0.58613 0.0
H559 H 0.4516 0.1001 0.65391 0.0
H560 H 0.50757 0.08305 0.5903 0.0
H561 H 0.48743 0.96834 0.65886 0.0
H562 H 0.49373 0.0081 0.62828 0.0
H563 H 0.43155 0.01862 0.70143 0.0
C564 C 0.45896 0.10387 0.60033 0.0
C565 C 0.49095 0.06915 0.615 0.0
C566 C 0.45885 0.12271 0.56152 0.0
C567 C 0.47807 0.97556 0.69004 0.0
C568 C 0.4818 0.9986 0.67264 0.0
C569 C 0.44851 0.03283 0.67929 0.0
C570 C 0.46902 0.09043 0.57085 0.0
C571 C 0.46957 0.07065 0.61194 0.0
C572 C 0.46881 0.0082 0.70778 0.0
C573 C 0.46969 0.03081 0.6804 0.0
H574 H 0.48557 0.11816 0.40872 0.0
H575 H 0.48605 0.08561 0.47682 0.0
H576 H 0.43172 0.0532 0.64402 0.0
H577 H 0.43629 0.96118 0.82268 0.0
H578 H 0.44355 1.00185 0.79435 0.0
C579 C 0.04247 0.47903 0.79897 0.0
C580 C 0.05239 0.50081 0.7596 0.0
C581 C 0.01958 0.45921 0.78115 0.0
C582 C 0.96476 0.44058 0.66344 0.0
H583 H 0.962 0.37803 0.66333 0.0
C584 C 0.90134 0.36161 0.4773 0.0
C585 C 0.88703 0.33847 0.50817 0.0
C586 C 0.91978 0.38074 0.51645 0.0
C587 C 0.96239 0.39532 0.66373 0.0
H588 H 0.04485 0.51937 0.67465 0.0
H589 H 1.00574 0.48509 0.64278 0.0
H590 H 0.99628 0.41306 0.72012 0.0
H591 H 0.88142 0.31727 0.60424 0.0
H592 H 0.91429 0.35068 0.672 0.0
H593 H 0.93146 0.42294 0.60357 0.0
C594 C 0.01528 0.48309 0.68785 0.0
C595 C 0.98198 0.41545 0.69675 0.0
C596 C 0.03796 0.50289 0.70604 0.0
C597 C 0.89207 0.33484 0.57881 0.0
C598 C 0.91089 0.35394 0.61761 0.0
C599 C 0.94543 0.42057 0.62949 0.0
C600 C 1.00609 0.46064 0.72338 0.0
C601 C 0.98371 0.43853 0.69602 0.0
C602 C 0.92471 0.37718 0.58711 0.0
C603 C 0.94423 0.39783 0.62824 0.0
H604 H 0.05295 0.47674 0.84078 0.0
H605 H 0.01288 0.44248 0.81113 0.0
H606 H 0.965 0.45778 0.66308 0.0
H607 H 0.89793 0.36515 0.42324 0.0
H608 H 0.93031 0.39838 0.49125 0.0
C609 C 0.50504 0.53556 0.67755 0.0
C610 C 0.50961 0.55436 0.7261 0.0
C611 C 0.52403 0.53231 0.65273 0.0
C612 C 0.58742 0.54677 0.67836 0.0
H613 H 0.59047 0.55084 0.47188 0.0
C614 C 0.67245 0.56015 0.52408 0.0
C615 C 0.66905 0.54901 0.45689 0.0
C616 C 0.65305 0.56035 0.55926 0.0
C617 C 0.58981 0.54921 0.5294 0.0
H618 H 0.53743 0.58264 0.79265 0.0
H619 H 0.57049 0.57646 0.75046 0.0
H620 H 0.55608 0.5493 0.53406 0.0
H621 H 0.64251 0.52925 0.37411 0.0
H622 H 0.60854 0.52873 0.43614 0.0
H623 H 0.62082 0.54606 0.67396 0.0
C624 C 0.55219 0.56456 0.7308 0.0
C625 C 0.57005 0.54841 0.56509 0.0
C626 C 0.53319 0.56802 0.75519 0.0
C627 C 0.64584 0.53827 0.42539 0.0
C628 C 0.62632 0.53806 0.46111 0.0
C629 C 0.60704 0.54712 0.64256 0.0
C630 C 0.54798 0.54749 0.67673 0.0
C631 C 0.56865 0.54725 0.63991 0.0
C632 C 0.62958 0.54901 0.52881 0.0
C633 C 0.60859 0.54846 0.56743 0.0
H634 H 0.48708 0.52442 0.65471 0.0
H635 H 0.52017 0.51867 0.61211 0.0
H636 H 0.58677 0.54582 0.73607 0.0
H637 H 0.69016 0.56872 0.54968 0.0
H638 H 0.65656 0.56948 0.61035 0.0
C639 C 0.55536 0.88343 0.5774 0.0
C640 C 0.54995 0.89799 0.62211 0.0
C641 C 0.57603 0.88129 0.5896 0.0
C642 C 0.61784 0.88683 0.73409 0.0
H643 H 0.66011 0.88812 0.58234 0.0
C644 C 0.72028 0.90316 0.71524 0.0
C645 C 0.71953 0.88993 0.77625 0.0
C646 C 0.69865 0.90019 0.68545 0.0
C647 C 0.64843 0.88766 0.62522 0.0
H648 H 0.56257 0.92222 0.71371 0.0
H649 H 0.59851 0.91849 0.73476 0.0
H650 H 0.62485 0.89274 0.55369 0.0
H651 H 0.69561 0.86103 0.84809 0.0
H652 H 0.65802 0.85534 0.79495 0.0
H653 H 0.64148 0.88239 0.80588 0.0
C654 C 0.5866 0.90851 0.6907 0.0
C655 C 0.62818 0.89018 0.60881 0.0
C656 C 0.56604 0.91076 0.67832 0.0
C657 C 0.69677 0.87173 0.80164 0.0
C658 C 0.67523 0.86864 0.77162 0.0
C659 C 0.63789 0.88418 0.75038 0.0
C660 C 0.5917 0.89351 0.64707 0.0
C661 C 0.61282 0.89009 0.66325 0.0
C662 C 0.67593 0.88381 0.71587 0.0
C663 C 0.65357 0.88471 0.69634 0.0
H664 H 0.54344 0.87337 0.53345 0.0
H665 H 0.57936 0.8695 0.55526 0.0
H666 H 0.60622 0.88634 0.77721 0.0
H667 H 0.73754 0.91738 0.69463 0.0
H668 H 0.69987 0.91212 0.64237 0.0
C669 C 0.12855 0.67352 0.59609 0.0
C670 C 0.11442 0.65384 0.64198 0.0
C671 C 0.13057 0.69631 0.60736 0.0
C672 C 0.12156 0.73945 0.62477 0.0
H673 H 0.13064 0.76214 0.8205 0.0
C674 C 0.10992 0.81986 0.72727 0.0
C675 C 0.12363 0.83275 0.78729 0.0
C676 C 0.11249 0.80084 0.69835 0.0
C677 C 0.12847 0.7563 0.76535 0.0
H678 H 0.09082 0.64274 0.73478 0.0
H679 H 0.09434 0.68241 0.75426 0.0
H680 H 0.12639 0.72267 0.79402 0.0
H681 H 0.15296 0.83806 0.85803 0.0
H682 H 0.15798 0.80555 0.80636 0.0
H683 H 0.12358 0.77325 0.59644 0.0
C684 C 0.10408 0.68025 0.70995 0.0
C685 C 0.12565 0.73345 0.75033 0.0
C686 C 0.10195 0.65743 0.6985 0.0
C687 C 0.14191 0.82823 0.81232 0.0
C688 C 0.14461 0.80941 0.78318 0.0
C689 C 0.12425 0.76237 0.63991 0.0
C690 C 0.11864 0.70004 0.66504 0.0
C691 C 0.12198 0.72463 0.68 0.0
C692 C 0.12896 0.79456 0.72868 0.0
C693 C 0.1277 0.77104 0.71049 0.0
H694 H 0.13838 0.67146 0.55185 0.0
H695 H 0.14206 0.71119 0.57206 0.0
H696 H 0.11866 0.73314 0.57002 0.0
H697 H 0.0956 0.82285 0.70699 0.0
H698 H 0.10021 0.78984 0.65619 0.0
C699 C 0.18914 0.29306 0.73939 0.0
C700 C 0.17712 0.29354 0.80182 0.0
C701 C 0.20757 0.31481 0.70989 0.0
C702 C 0.2449 0.36498 0.65116 0.0
H703 H 0.28649 0.40679 0.80291 0.0
C704 C 0.33299 0.45727 0.59973 0.0
C705 C 0.35335 0.46295 0.64294 0.0
C706 C 0.31034 0.43682 0.61393 0.0
C707 C 0.27518 0.39526 0.75987 0.0
H708 H 0.17251 0.31705 0.87661 0.0
H709 H 0.20395 0.35489 0.82389 0.0
H710 H 0.24744 0.37151 0.83213 0.0
H711 H 0.36578 0.45116 0.7344 0.0
H712 H 0.32626 0.41541 0.75891 0.0
H713 H 0.2732 0.38854 0.57914 0.0
C714 C 0.19993 0.3378 0.79926 0.0
C715 C 0.25255 0.37522 0.77649 0.0
C716 C 0.18175 0.31613 0.82904 0.0
C717 C 0.35052 0.44743 0.70016 0.0
C718 C 0.32782 0.42701 0.71447 0.0
C719 C 0.26759 0.38516 0.63447 0.0
C720 C 0.21405 0.33735 0.74203 0.0
C721 C 0.23716 0.35973 0.72247 0.0
C722 C 0.30742 0.42156 0.67183 0.0
C723 C 0.28308 0.40038 0.68878 0.0
H724 H 0.18601 0.27592 0.71734 0.0
H725 H 0.21801 0.31379 0.66564 0.0
H726 H 0.23348 0.35345 0.60831 0.0
H727 H 0.33444 0.46875 0.5551 0.0
H728 H 0.29496 0.43329 0.58048 0.0
C729 C 0.11436 0.30183 0.13256 0.0
C730 C 0.12687 0.29235 0.09422 0.0
C731 C 0.11782 0.32497 0.11642 0.0
C732 C 0.15563 0.38083 0.0045 0.0
H733 H 0.09538 0.38262 -0.00559 0.0
C734 C 0.14116 0.44348 0.81231 0.0
C735 C 0.13184 0.45762 0.84151 0.0
C736 C 0.14174 0.42521 0.85258 0.0
C737 C 0.11239 0.38249 -0.00236 0.0
H738 H 0.15467 0.30093 0.01392 0.0
H739 H 0.16018 0.34046 0.98469 0.0
H740 H 0.09575 0.34839 0.05246 0.0
H741 H 0.11525 0.46319 0.93557 0.0
H742 H 0.11555 0.43059 0.00515 0.0
H743 H 0.1718 0.41432 0.94578 0.0
C744 C 0.14779 0.33039 0.02759 0.0
C745 C 0.11271 0.36295 0.03144 0.0
C746 C 0.14452 0.30747 0.04419 0.0
C747 C 0.12256 0.45264 0.91149 0.0
C748 C 0.12271 0.43399 0.95132 0.0
C749 C 0.15518 0.40012 0.96966 0.0
C750 C 0.13379 0.33912 0.06138 0.0
C751 C 0.13425 0.36156 0.03418 0.0
C752 C 0.13262 0.42033 0.92256 0.0
C753 C 0.13347 0.40093 0.9648 0.0
H754 H 0.10071 0.2908 0.17173 0.0
H755 H 0.1072 0.33131 0.14512 0.0
H756 H 0.17272 0.38085 0.00688 0.0
H757 H 0.14859 0.44689 0.7588 0.0
H758 H 0.14925 0.41478 0.82881 0.0
C759 C 0.70382 0.84164 0.02253 0.0
C760 C 0.7199 0.83697 0.06212 0.0
C761 C 0.6817 0.82245 -0.00237 0.0
C762 C 0.64831 0.78043 0.90265 0.0
H763 H 0.61212 0.71759 -0.00518 0.0
C764 C 0.57745 0.69502 0.7475 0.0
C765 C 0.55646 0.67808 0.78439 0.0
C766 C 0.59691 0.7142 0.78415 0.0
C767 C 0.62177 0.73507 0.96834 0.0
H768 H 0.72444 0.80853 0.11128 0.0
H769 H 0.68629 0.77517 0.06708 0.0
H770 H 0.6441 0.7517 0.06004 0.0
H771 H 0.53954 0.66822 0.88899 0.0
H772 H 0.57274 0.70172 0.9517 0.0
H773 H 0.62535 0.76404 0.81192 0.0
C774 C 0.69043 0.7936 0.05576 0.0
C775 C 0.64042 0.75464 0.00567 0.0
C776 C 0.7124 0.81282 0.08154 0.0
C777 C 0.55549 0.68071 0.85868 0.0
C778 C 0.57471 0.69997 0.89499 0.0
C779 C 0.62944 0.76093 0.86566 0.0
C780 C 0.67526 0.79809 0.01086 0.0
C781 C 0.65411 0.77759 0.97325 0.0
C782 C 0.59571 0.71707 0.85842 0.0
C783 C 0.61597 0.7379 0.89775 0.0
H784 H 0.70903 0.86007 0.00695 0.0
H785 H 0.67018 0.82675 0.9653 0.0
H786 H 0.65865 0.79761 0.87502 0.0
H787 H 0.57884 0.69352 0.69035 0.0
H788 H 0.61293 0.72671 0.75415 0.0
C789 C 0.34125 0.89133 0.89226 0.0
C790 C 0.33704 0.88207 0.8222 0.0
C791 C 0.32235 0.89094 0.93225 0.0
C792 C 0.25602 0.85769 0.95029 0.0
H793 H 0.26293 0.91642 0.0366 0.0
C794 C 0.17346 0.86713 0.02791 0.0
C795 C 0.17581 0.88439 0.07928 0.0
C796 C 0.19323 0.86412 0.01046 0.0
C797 C 0.26075 0.89965 0.01457 0.0
H798 H 0.30962 0.86519 0.7394 0.0
H799 H 0.27668 0.86415 0.80961 0.0
H800 H 0.29775 0.9175 0.97748 0.0
H801 H 0.20019 0.91008 0.15818 0.0
H802 H 0.23443 0.90405 0.12993 0.0
H803 H 0.21921 0.83964 0.98749 0.0
C804 C 0.29462 0.8718 0.83337 0.0
C805 C 0.28074 0.90037 0.98016 0.0
C806 C 0.31357 0.8726 0.79297 0.0
C807 C 0.19772 0.89674 0.11798 0.0
C808 C 0.21752 0.89354 0.10094 0.0
C809 C 0.23616 0.85683 0.98568 0.0
C810 C 0.29876 0.88081 0.90353 0.0
C811 C 0.27838 0.87955 0.94611 0.0
C812 C 0.21588 0.87801 0.04465 0.0
C813 C 0.238 0.87796 0.01668 0.0
H814 H 0.35911 0.89874 0.91638 0.0
H815 H 0.32603 0.89802 0.98622 0.0
H816 H 0.25382 0.84125 0.92549 0.0
H817 H 0.15682 0.85711 -0.0027 0.0
H818 H 0.19106 0.85206 0.96663 0.0
C819 C 0.10699 0.99625 0.09012 0.0
C820 C 0.11263 0.98536 0.03358 0.0
C821 C 0.09647 0.01084 0.07587 0.0
C822 C 0.0975 0.0491 0.92828 0.0
H823 H 0.05196 0.05943 0.03983 0.0
C824 C 0.08307 0.12833 0.85757 0.0
C825 C 0.08475 0.14292 0.91603 0.0
C826 C 0.07854 0.10455 0.86833 0.0
C827 C 0.0647 0.05672 0.00809 0.0
H828 H 0.10938 0.97898 0.91927 0.0
H829 H 0.09019 1.003 0.89545 0.0
H830 H 0.05907 0.0258 0.07027 0.0
H831 H 0.08247 0.1439 0.03139 0.0
H832 H 0.07492 0.10289 0.05005 0.0
H833 H 0.10416 0.0803 0.86813 0.0
C834 C 0.09472 1.00137 0.95014 0.0
C835 C 0.06878 0.03751 0.02571 0.0
C836 C 0.10568 0.98753 0.96395 0.0
C837 C 0.08073 0.13292 0.98499 0.0
C838 C 0.07635 0.10929 -0.00422 0.0
C839 C 0.09354 0.06821 0.91099 0.0
C840 C 0.09123 0.01432 0.00511 0.0
C841 C 0.0854 0.03364 0.98618 0.0
C842 C 0.07618 0.09513 0.93788 0.0
C843 C 0.07734 0.07253 0.95104 0.0
H844 H 0.11222 0.99492 0.1442 0.0
H845 H 0.09394 0.0206 0.11943 0.0
H846 H 0.11085 0.04704 0.8976 0.0
H847 H 0.08635 0.13568 0.804 0.0
H848 H 0.07811 0.09397 0.82236 0.0
C849 C 0.01645 0.11097 0.09558 0.0
C850 C 0.02793 0.12801 0.04065 0.0
C851 C 1.00186 0.08603 0.07894 0.0
C852 C 0.96425 0.05126 0.92783 0.0
H853 H 0.95309 0.99318 0.02814 0.0
C854 C 0.88496 0.95979 0.84168 0.0
C855 C 0.87004 0.94573 0.89806 0.0
C856 C 0.90881 0.97855 0.85515 0.0
C857 C 0.95602 0.00927 -0.00044 0.0
H858 H 0.03502 0.13211 0.92675 0.0
H859 H 0.01127 0.08927 0.89914 0.0
H860 H 0.9867 0.03317 0.06526 0.0
H861 H 0.8686 0.94002 0.01248 0.0
H862 H 0.90969 0.97244 0.03578 0.0
H863 H 0.93332 0.02816 0.86436 0.0
C864 C 0.01255 0.09489 0.95434 0.0
C865 C 0.97522 0.03211 0.02101 0.0
C866 C 0.02631 0.1195 0.97041 0.0
C867 C 0.87984 0.95001 0.9674 0.0
C868 C 0.90352 0.96876 0.98093 0.0
C869 C 0.94515 0.02867 0.90682 0.0
C870 C 0.99896 0.07801 0.00746 0.0
C871 C 0.97942 0.05335 0.98541 0.0
C872 C 0.91798 0.98397 0.92549 0.0
C873 C 0.94055 0.00734 0.94265 0.0
H874 H 0.01722 0.11703 0.15004 0.0
H875 H 0.99156 0.07336 0.12106 0.0
H876 H 0.96661 0.0673 0.90016 0.0
H877 H 0.87781 0.95705 0.78787 0.0
H878 H 0.91963 0.98964 0.81088 0.0
C879 C 0.89978 0.91187 0.09309 0.0
C880 C 0.8852 0.90433 0.03153 0.0
C881 C 0.92528 0.92308 0.08718 0.0
C882 C 0.97652 0.94861 0.95335 0.0
H883 H 1.00156 0.91569 0.07043 0.0
C884 C 0.05099 0.92625 0.86452 0.0
C885 C 0.06709 0.92663 0.91671 0.0
C886 C 0.03272 0.93169 0.88295 0.0
C887 C 0.99512 0.92547 0.03799 0.0
H888 H 0.88605 0.90475 0.91561 0.0
H889 H 0.92964 0.92382 0.90562 0.0
H890 H 0.9625 0.91196 0.09939 0.0
H891 H 0.07648 0.93296 0.02918 0.0
H892 H 0.04552 0.94316 0.06018 0.0
H893 H 0.00867 0.96082 0.88939 0.0
C894 C 0.92187 0.92124 0.95851 0.0
C895 C 0.9727 0.92344 0.05495 0.0
C896 C 0.89666 0.90988 0.96438 0.0
C897 C 0.06495 0.93324 0.98694 0.0
C898 C 0.04691 0.93874 0.00516 0.0
C899 C 0.99889 0.95045 0.93596 0.0
C900 C 0.93653 0.92718 0.01963 0.0
C901 C 0.96267 0.93425 0.01144 0.0
C902 C 0.03004 0.93722 0.95409 0.0
C903 C 0.0081 0.93832 0.97698 0.0
H904 H 0.8915 0.90794 0.1455 0.0
H905 H 0.93612 0.92771 0.13541 0.0
H906 H 0.96956 0.95759 0.91943 0.0
H907 H 0.05183 0.92073 0.81039 0.0
H908 H 0.01979 0.93008 0.84248 0.0
C909 C 0.77483 0.32775 0.45436 0.0
C910 C 0.7785 0.31564 0.39697 0.0
C911 C 0.76532 0.34333 0.44178 0.0
C912 C 0.76835 0.38235 0.29616 0.0
H913 H 0.72231 0.39432 0.3991 0.0
C914 C 0.75509 0.46069 0.20799 0.0
C915 C 0.75564 0.47593 0.26306 0.0
C916 C 0.75066 0.43721 0.22334 0.0
C917 C 0.73527 0.3912 0.36993 0.0
H918 H 0.77293 0.30847 0.28325 0.0
H919 H 0.75541 0.33414 0.26267 0.0
H920 H 0.72808 0.36013 0.43417 0.0
H921 H 0.7512 0.47836 0.37699 0.0
H922 H 0.74406 0.43784 0.40387 0.0
H923 H 0.77651 0.41354 0.23385 0.0
C924 C 0.76052 0.33245 0.31664 0.0
C925 C 0.73856 0.37168 0.39019 0.0
C926 C 0.77049 0.31764 0.32866 0.0
C927 C 0.75044 0.46683 0.33314 0.0
C928 C 0.74631 0.44352 0.34862 0.0
C929 C 0.76523 0.40177 0.27638 0.0
C930 C 0.75917 0.3466 0.37195 0.0
C931 C 0.7551 0.36706 0.35313 0.0
C932 C 0.74741 0.42879 0.29435 0.0
C933 C 0.74867 0.40654 0.31276 0.0
H934 H 0.78106 0.32671 0.50737 0.0
H935 H 0.76444 0.35407 0.48545 0.0
H936 H 0.78165 0.3796 0.26751 0.0
H937 H 0.75918 0.46733 0.15366 0.0
H938 H 0.75105 0.42613 0.1799 0.0
C939 C 0.68161 0.44741 0.43741 0.0
C940 C 0.69519 0.46247 0.38044 0.0
C941 C 0.66631 0.4222 0.42615 0.0
C942 C 0.63007 0.38497 0.2791 0.0
H943 H 0.61639 0.32784 0.38915 0.0
C944 C 0.55033 0.29278 0.19644 0.0
C945 C 0.53522 0.27866 0.25241 0.0
C946 C 0.5739 0.31198 0.21074 0.0
C947 C 0.61991 0.34365 0.358 0.0
H948 H 0.70518 0.46274 0.26959 0.0
H949 H 0.6798 0.41935 0.25151 0.0
H950 H 0.65033 0.36789 0.42411 0.0
H951 H 0.53313 0.27332 0.36706 0.0
H952 H 0.5736 0.30665 0.3919 0.0
H953 H 0.59937 0.36165 0.21515 0.0
C954 C 0.6803 0.42677 0.30402 0.0
C955 C 0.63934 0.36652 0.37817 0.0
C956 C 0.69497 0.45166 0.31467 0.0
C957 C 0.54453 0.28342 0.32236 0.0
C958 C 0.56787 0.30269 0.33675 0.0
C959 C 0.61062 0.36236 0.25958 0.0
C960 C 0.66474 0.41198 0.35812 0.0
C961 C 0.64455 0.38738 0.33875 0.0
C962 C 0.58257 0.31786 0.28152 0.0
C963 C 0.60511 0.34134 0.29876 0.0
H964 H 0.68123 0.45529 0.48836 0.0
H965 H 0.65442 0.41112 0.46879 0.0
H966 H 0.6334 0.40081 0.24834 0.0
H967 H 0.54356 0.28965 0.14214 0.0
H968 H 0.5849 0.32291 0.16652 0.0
C969 C 0.56583 0.24433 0.44971 0.0
C970 C 0.5517 0.23819 0.38733 0.0
C971 C 0.59131 0.25505 0.44508 0.0
C972 C 0.64359 0.28136 0.31463 0.0
H973 H 0.66607 0.2452 0.42726 0.0
C974 C 0.73039 0.26328 0.34771 0.0
C975 C 0.73337 0.25819 0.27649 0.0
C976 C 0.71222 0.26855 0.3665 0.0
C977 C 0.66035 0.25586 0.39613 0.0
H978 H 0.55334 0.24067 0.27173 0.0
H979 H 0.59698 0.25903 0.26383 0.0
H980 H 0.62723 0.24216 0.45519 0.0
H981 H 0.71945 0.25464 0.16909 0.0
H982 H 0.68725 0.26367 0.20205 0.0
H983 H 0.67628 0.29387 0.25299 0.0
C984 C 0.58886 0.2557 0.31639 0.0
C985 C 0.63805 0.25422 0.4125 0.0
C986 C 0.56364 0.24482 0.32097 0.0
C987 C 0.71795 0.259 0.22407 0.0
C988 C 0.69959 0.26425 0.24302 0.0
C989 C 0.66585 0.28283 0.29785 0.0
C990 C 0.60301 0.26004 0.37806 0.0
C991 C 0.62897 0.26629 0.37057 0.0
C992 C 0.69609 0.26836 0.31488 0.0
C993 C 0.67416 0.26957 0.33728 0.0
H994 H 0.55716 0.23948 0.50155 0.0
H995 H 0.60174 0.25848 0.49377 0.0
H996 H 0.63739 0.29129 0.28198 0.0
H997 H 0.74146 0.26214 0.38993 0.0
H998 H 0.71021 0.27187 0.42211 0.0
C999 C 0.40864 0.80027 0.65604 0.0
C1000 C 0.41521 0.80872 0.58566 0.0
C1001 C 0.40312 0.77684 0.67507 0.0
C1002 C 0.41801 0.7398 0.70972 0.0
H1003 H 0.38826 0.68172 0.5922 0.0
C1004 C 0.43828 0.66219 0.76179 0.0
C1005 C 0.44661 0.65634 0.69955 0.0
C1006 C 0.42563 0.67513 0.75714 0.0
C1007 C 0.39652 0.69776 0.62592 0.0
H1008 H 0.42089 0.79887 0.47972 0.0
H1009 H 0.41171 0.75772 0.51332 0.0
H1010 H 0.3823 0.71598 0.56218 0.0
H1011 H 0.44625 0.65749 0.58364 0.0
H1012 H 0.42481 0.67981 0.57589 0.0
H1013 H 0.43354 0.72247 0.7707 0.0
C1014 C 0.41003 0.76916 0.55327 0.0
C1015 C 0.39313 0.71736 0.60855 0.0
C1016 C 0.41538 0.79273 0.53397 0.0
C1017 C 0.44064 0.6622 0.63294 0.0
C1018 C 0.42787 0.67468 0.62831 0.0
C1019 C 0.42154 0.72034 0.72672 0.0
C1020 C 0.40472 0.76134 0.62472 0.0
C1021 C 0.40455 0.73891 0.64888 0.0
C1022 C 0.4208 0.682 0.69016 0.0
C1023 C 0.4117 0.69949 0.68332 0.0
H1024 H 0.40931 0.81234 0.69804 0.0
H1025 H 0.39891 0.77134 0.73032 0.0
H1026 H 0.42726 0.75621 0.74166 0.0
H1027 H 0.44239 0.6577 0.81376 0.0
H1028 H 0.42025 0.68037 0.80585 0.0
C1029 C 0.22023 0.62618 0.55289 0.0
C1030 C 0.20464 0.6102 0.60538 0.0
C1031 C 0.24369 0.64494 0.57119 0.0
C1032 C 0.29554 0.68107 0.62317 0.0
H1033 H 0.29162 0.71668 0.78643 0.0
C1034 C 0.35171 0.784 0.64774 0.0
C1035 C 0.35859 0.79575 0.71449 0.0
C1036 C 0.33864 0.75874 0.64265 0.0
C1037 C 0.2934 0.70675 0.74198 0.0
H1038 H 0.20165 0.60148 0.71819 0.0
H1039 H 0.24251 0.63314 0.74897 0.0
H1040 H 0.25775 0.67647 0.75921 0.0
H1041 H 0.35811 0.78991 0.82836 0.0
H1042 H 0.33441 0.74516 0.81967 0.0
H1043 H 0.33092 0.71194 0.60455 0.0
C1044 C 0.23675 0.63134 0.69381 0.0
C1045 C 0.27387 0.68363 0.72606 0.0
C1046 C 0.2134 0.61282 0.67571 0.0
C1047 C 0.35297 0.78142 0.77628 0.0
C1048 C 0.3394 0.75584 0.77119 0.0
C1049 C 0.31516 0.70418 0.63934 0.0
C1050 C 0.25185 0.64823 0.64249 0.0
C1051 C 0.27433 0.67086 0.66506 0.0
C1052 C 0.33166 0.74427 0.70419 0.0
C1053 C 0.3139 0.71772 0.6973 0.0
H1054 H 0.21385 0.62496 0.49861 0.0
H1055 H 0.25476 0.65782 0.53041 0.0
H1056 H 0.29665 0.67151 0.57664 0.0
H1057 H 0.35608 0.79438 0.59871 0.0
H1058 H 0.33285 0.75065 0.59025 0.0
C1059 C 0.39904 0.60488 0.64896 0.0
C1060 C 0.39874 0.59573 0.58025 0.0
C1061 C 0.38128 0.61044 0.67003 0.0
C1062 C 0.32935 0.61751 0.61164 0.0
H1063 H 0.29861 0.58093 0.78354 0.0
C1064 C 0.22771 0.5712 0.65742 0.0
C1065 C 0.21739 0.5663 0.72617 0.0
C1066 C 0.25278 0.58378 0.64781 0.0
C1067 C 0.30723 0.5919 0.73676 0.0
H1068 H 0.37969 0.58585 0.47911 0.0
H1069 H 0.34824 0.59545 0.51623 0.0
H1070 H 0.33798 0.58678 0.74712 0.0
H1071 H 0.22558 0.57218 0.83896 0.0
H1072 H 0.27014 0.59408 0.82225 0.0
H1073 H 0.2982 0.62205 0.60035 0.0
C1074 C 0.36276 0.59885 0.55317 0.0
C1075 C 0.32981 0.59514 0.71552 0.0
C1076 C 0.38071 0.59329 0.53188 0.0
C1077 C 0.23297 0.57554 0.78544 0.0
C1078 C 0.25843 0.588 0.77573 0.0
C1079 C 0.30687 0.61454 0.63339 0.0
C1080 C 0.36238 0.60659 0.62345 0.0
C1081 C 0.34066 0.60714 0.65129 0.0
C1082 C 0.26858 0.59173 0.70662 0.0
C1083 C 0.29498 0.60068 0.69443 0.0
H1084 H 0.41196 0.60606 0.68878 0.0
H1085 H 0.38157 0.61649 0.72431 0.0
H1086 H 0.3375 0.62722 0.56263 0.0
H1087 H 0.21631 0.56484 0.61022 0.0
H1088 H 0.25969 0.58593 0.59389 0.0
C1089 C 0.10355 0.25085 0.75316 0.0
C1090 C 0.08035 0.23523 0.78137 0.0
C1091 C 0.10743 0.25137 0.68003 0.0
C1092 C 0.08359 0.20636 0.54213 0.0
H1093 H 0.12971 0.25839 0.42046 0.0
C1094 C 0.10184 0.19508 0.2482 0.0
C1095 C 0.12527 0.21101 0.22177 0.0
C1096 C 0.09642 0.19642 0.31939 0.0
C1097 C 0.11708 0.24367 0.45449 0.0
H1098 H 0.04224 0.21099 0.75536 0.0
H1099 H 0.04903 0.21212 0.62728 0.0
H1100 H 0.11772 0.26838 0.53361 0.0
H1101 H 0.16243 0.23766 0.2513 0.0
H1102 H 0.15303 0.23944 0.37605 0.0
H1103 H 0.08328 0.18162 0.46394 0.0
C1104 C 0.06429 0.22339 0.66187 0.0
C1105 C 0.11001 0.24943 0.51851 0.0
C1106 C 0.06043 0.22287 0.73503 0.0
C1107 C 0.14402 0.22562 0.26969 0.0
C1108 C 0.13863 0.22682 0.34095 0.0
C1109 C 0.09072 0.2006 0.47829 0.0
C1110 C 0.08805 0.23636 0.63458 0.0
C1111 C 0.0933 0.23081 0.5629 0.0
C1112 C 0.1145 0.21339 0.36508 0.0
C1113 C 0.10767 0.2192 0.43426 0.0
H1114 H 0.11899 0.26119 0.78793 0.0
H1115 H 0.12591 0.26171 0.66014 0.0
H1116 H 0.07111 0.19164 0.57644 0.0
H1117 H 0.08721 0.18303 0.21289 0.0
H1118 H 0.07769 0.1856 0.33692 0.0
C1119 C 0.81675 0.91031 0.22554 0.0
C1120 C 0.80061 0.91759 0.19931 0.0
C1121 C 0.81549 0.9035 0.29653 0.0
C1122 C 0.7681 0.87627 0.43051 0.0
H1123 H 0.82023 0.88235 0.55257 0.0
C1124 C 0.76235 0.85743 0.72916 0.0
C1125 C 0.77804 0.84989 0.75734 0.0
C1126 C 0.76116 0.85991 0.65588 0.0
C1127 C 0.80549 0.88008 0.51815 0.0
H1128 H 0.7737 0.92777 0.22897 0.0
H1129 H 0.77207 0.91652 0.35355 0.0
H1130 H 0.8302 0.90479 0.4408 0.0
H1131 H 0.80155 0.8351 0.73155 0.0
H1132 H 0.79937 0.83943 0.6032 0.0
H1133 H 0.74342 0.85204 0.50913 0.0
C1134 C 0.78478 0.91492 0.31839 0.0
C1135 C 0.81122 0.89313 0.45478 0.0
C1136 C 0.78589 0.92154 0.24727 0.0
C1137 C 0.7897 0.84146 0.7112 0.0
C1138 C 0.78852 0.84396 0.63788 0.0
C1139 C 0.76237 0.86332 0.49415 0.0
C1140 C 0.79839 0.90435 0.3422 0.0
C1141 C 0.79258 0.89151 0.41083 0.0
C1142 C 0.77559 0.85476 0.61035 0.0
C1143 C 0.78104 0.86526 0.53853 0.0
H1144 H 0.82889 0.9079 0.19016 0.0
H1145 H 0.82644 0.8957 0.31385 0.0
H1146 H 0.75337 0.8742 0.39645 0.0
H1147 H 0.75253 0.86322 0.7638 0.0
H1148 H 0.75089 0.86812 0.63572 0.0
C1149 C 0.15588 0.90694 0.74122 0.0
C1150 C 0.16378 0.93027 0.76901 0.0
C1151 C 0.1517 0.90271 0.66846 0.0
C1152 C 0.12946 0.92615 0.53213 0.0
H1153 H 0.13449 0.87951 0.40987 0.0
C1154 C 0.1025 0.90935 0.23676 0.0
C1155 C 0.09491 0.88595 0.20979 0.0
C1156 C 0.108 0.91424 0.30882 0.0
C1157 C 0.13261 0.89225 0.44415 0.0
H1158 H 0.17732 0.96824 0.74243 0.0
H1159 H 0.17029 0.96086 0.61481 0.0
H1160 H 0.15687 0.89152 0.52225 0.0
H1161 H 0.08274 0.84836 0.23845 0.0
H1162 H 0.09192 0.8569 0.36462 0.0
H1163 H 0.10503 0.92673 0.45441 0.0
C1164 C 0.16666 0.94576 0.64952 0.0
C1165 C 0.14567 0.89933 0.50772 0.0
C1166 C 0.17083 0.94997 0.72236 0.0
C1167 C 0.0893 0.86676 0.25742 0.0
C1168 C 0.09465 0.87163 0.32951 0.0
C1169 C 0.11638 0.91904 0.46862 0.0
C1170 C 0.15556 0.92187 0.62297 0.0
C1171 C 0.14416 0.91631 0.55215 0.0
C1172 C 0.10558 0.89567 0.35461 0.0
C1173 C 0.11777 0.90195 0.42436 0.0
H1174 H 0.1511 0.89165 0.77624 0.0
H1175 H 0.14332 0.88413 0.64911 0.0
H1176 H 0.12752 0.93883 0.56656 0.0
H1177 H 0.10618 0.92433 0.20155 0.0
H1178 H 0.11613 0.93292 0.32714 0.0
C1179 C 0.80713 0.55212 0.60191 0.0
C1180 C 0.79076 0.54016 0.54621 0.0
C1181 C 0.8021 0.54201 0.66963 0.0
C1182 C 0.74864 0.50568 0.77562 0.0
H1183 H 0.80001 0.5296 0.91668 0.0
C1184 C 0.77136 0.54037 0.08719 0.0
C1185 C 0.754 0.54774 0.0956 0.0
C1186 C 0.77265 0.52944 0.02498 0.0
C1187 C 0.78495 0.52194 0.87951 0.0
H1188 H 0.75784 0.50711 0.51454 0.0
H1189 H 0.74911 0.4893 0.63349 0.0
H1190 H 0.80859 0.52295 0.79721 0.0
H1191 H 0.72478 0.55029 0.0443 0.0
H1192 H 0.72966 0.53482 0.92958 0.0
H1193 H 0.7247 0.50385 0.85832 0.0
C1194 C 0.76545 0.50673 0.62527 0.0
C1195 C 0.79012 0.5184 0.8102 0.0
C1196 C 0.77035 0.51702 0.55756 0.0
C1197 C 0.73861 0.5451 0.03859 0.0
C1198 C 0.741 0.53555 0.97372 0.0
C1199 C 0.74313 0.5082 0.84589 0.0
C1200 C 0.78077 0.5196 0.68248 0.0
C1201 C 0.77269 0.51254 0.75658 0.0
C1202 C 0.7579 0.52726 0.96656 0.0
C1203 C 0.76172 0.51827 0.8974 0.0
H1204 H 0.82311 0.56987 0.59414 0.0
H1205 H 0.81413 0.55271 0.71265 0.0
H1206 H 0.7346 0.50069 0.73558 0.0
H1207 H 0.78316 0.54169 0.13046 0.0
H1208 H 0.78518 0.52253 0.02375 0.0
C1209 C 0.46069 0.17839 0.05958 0.0
C1210 C 0.44607 0.18232 0.1078 0.0
C1211 C 0.45954 0.18248 0.98716 0.0
C1212 C 0.44948 0.2249 0.88695 0.0
H1213 H 0.46182 0.19563 0.72225 0.0
C1214 C 0.44926 0.25228 0.5962 0.0
C1215 C 0.46473 0.24938 0.54854 0.0
C1216 C 0.44937 0.24704 0.66811 0.0
C1217 C 0.45881 0.20417 0.76824 0.0
H1218 H 0.41596 0.18924 0.11841 0.0
H1219 H 0.41385 0.19626 -0.00849 0.0
H1220 H 0.45131 0.17406 0.83592 0.0
H1221 H 0.49523 0.24292 0.53993 0.0
H1222 H 0.49535 0.23371 0.66594 0.0
H1223 H 0.45703 0.25502 0.81936 0.0
C1224 C 0.42671 0.19087 0.00975 0.0
C1225 C 0.4525 0.1917 0.83274 0.0
C1226 C 0.42793 0.18688 0.08208 0.0
C1227 C 0.48256 0.2445 0.57525 0.0
C1228 C 0.48264 0.23922 0.64715 0.0
C1229 C 0.45577 0.23736 0.82249 0.0
C1230 C 0.44365 0.19033 0.96269 0.0
C1231 C 0.44778 0.20198 0.89252 0.0
C1232 C 0.46506 0.23903 0.69299 0.0
C1233 C 0.46054 0.22711 0.76278 0.0
H1234 H 0.47468 0.17465 0.07822 0.0
H1235 H 0.47273 0.18184 0.95175 0.0
H1236 H 0.44656 0.23352 0.93292 0.0
H1237 H 0.4356 0.25648 0.57732 0.0
H1238 H 0.43574 0.24718 0.7027 0.0
C1239 C 0.7612 0.19645 0.61031 0.0
C1240 C 0.76442 0.2155 0.56509 0.0
C1241 C 0.76809 0.20117 0.68154 0.0
C1242 C 0.81388 0.25166 0.78388 0.0
H1243 H 0.78284 0.21022 0.9473 0.0
C1244 C 0.83605 0.27994 0.0748 0.0
C1245 C 0.83109 0.26164 0.12485 0.0
C1246 C 0.83332 0.27433 0.00242 0.0
C1247 C 0.79198 0.22164 0.90168 0.0
H1248 H 0.77345 0.25335 0.56106 0.0
H1249 H 0.78541 0.26154 0.68598 0.0
H1250 H 0.76182 0.2 0.83297 0.0
H1251 H 0.82372 0.22467 0.13991 0.0
H1252 H 0.81888 0.21477 0.01302 0.0
H1253 H 0.84388 0.27356 0.85304 0.0
C1254 C 0.77845 0.24324 0.6655 0.0
C1255 C 0.77981 0.21594 0.83668 0.0
C1256 C 0.77152 0.23852 0.59426 0.0
C1257 C 0.82675 0.23874 0.10183 0.0
C1258 C 0.82411 0.23315 0.02954 0.0
C1259 C 0.82607 0.25738 0.84894 0.0
C1260 C 0.77807 0.22492 0.70834 0.0
C1261 C 0.79051 0.2311 0.77765 0.0
C1262 C 0.82576 0.25044 0.97985 0.0
C1263 C 0.81507 0.24257 0.90852 0.0
H1264 H 0.75536 0.17838 0.58964 0.0
H1265 H 0.76743 0.1867 0.71386 0.0
H1266 H 0.82276 0.26326 0.73837 0.0
H1267 H 0.83967 0.29781 0.09157 0.0
H1268 H 0.83473 0.288 0.96506 0.0
C1269 C 0.39419 0.88809 0.38829 0.0
C1270 C 0.41284 0.90177 0.43728 0.0
C1271 C 0.39949 0.88974 0.31581 0.0
C1272 C 0.45142 0.89849 0.2153 0.0
H1273 H 0.41016 0.88808 0.05102 0.0
C1274 C 0.47768 0.89536 0.92435 0.0
C1275 C 0.45886 0.88015 0.87744 0.0
C1276 C 0.47262 0.89638 -0.00401 0.0
C1277 C 0.42162 0.89059 0.09686 0.0
H1278 H 0.45024 0.93083 0.44967 0.0
H1279 H 0.45952 0.9338 0.32267 0.0
H1280 H 0.39996 0.89929 0.16519 0.0
H1281 H 0.42114 0.85118 0.87029 0.0
H1282 H 0.41234 0.85301 -0.00412 0.0
H1283 H 0.47294 0.88959 0.14723 0.0
C1284 C 0.44111 0.92129 0.34023 0.0
C1285 C 0.41596 0.8973 0.16164 0.0
C1286 C 0.43583 0.91956 0.41262 0.0
C1287 C 0.43578 0.86364 0.90494 0.0
C1288 C 0.43072 0.8647 0.97658 0.0
C1289 C 0.45707 0.8918 0.15058 0.0
C1290 C 0.4234 0.9052 0.29207 0.0
C1291 C 0.43076 0.9012 0.22138 0.0
C1292 C 0.44876 0.88208 0.02143 0.0
C1293 C 0.44211 0.88763 0.09108 0.0
H1294 H 0.37624 0.8744 0.4062 0.0
H1295 H 0.38549 0.87719 0.27958 0.0
H1296 H 0.46279 0.90078 0.26116 0.0
H1297 H 0.49579 0.908 0.90491 0.0
H1298 H 0.48688 0.90981 0.02983 0.0
C1299 C 0.09319 0.5186 0.43242 0.0
C1300 C 0.11092 0.51322 0.45677 0.0
C1301 C 0.09127 0.522 0.36005 0.0
C1302 C 0.11476 0.52033 0.18112 0.0
H1303 H 0.12338 0.58536 0.16724 0.0
C1304 C 0.14921 0.57388 0.92522 0.0
C1305 C 0.13294 0.58077 0.89758 0.0
C1306 C 0.14797 0.56763 -0.00323 0.0
C1307 C 0.12092 0.56719 0.17044 0.0
H1308 H 0.13793 0.50351 0.42528 0.0
H1309 H 0.13481 0.50974 0.29869 0.0
H1310 H 0.11198 0.56403 0.28096 0.0
H1311 H 0.10541 0.59035 0.92486 0.0
H1312 H 0.1033 0.57944 0.04961 0.0
H1313 H 0.12397 0.52367 0.07057 0.0
C1314 C 0.12246 0.51142 0.33512 0.0
C1315 C 0.11409 0.55485 0.23504 0.0
C1316 C 0.1243 0.50792 0.40758 0.0
C1317 C 0.11785 0.5846 0.94437 0.0
C1318 C 0.11666 0.57842 0.01592 0.0
C1319 C 0.12159 0.53269 0.11646 0.0
C1320 C 0.10711 0.52007 0.31162 0.0
C1321 C 0.11108 0.53138 0.24095 0.0
C1322 C 0.13067 0.56852 0.04142 0.0
C1323 C 0.12491 0.55628 0.11089 0.0
H1324 H 0.08213 0.52196 0.46968 0.0
H1325 H 0.07883 0.52804 0.34268 0.0
H1326 H 0.11253 0.50226 0.18455 0.0
H1327 H 0.1616 0.57153 0.89072 0.0
H1328 H 0.15946 0.56069 0.01615 0.0
C1329 C 0.44861 0.57321 0.40419 0.0
C1330 C 0.47132 0.59413 0.41643 0.0
C1331 C 0.43661 0.56969 0.34016 0.0
C1332 C 0.43163 0.59957 0.18108 0.0
H1333 H 0.41135 0.53664 0.09476 0.0
C1334 C 0.43465 0.5847 0.89069 0.0
C1335 C 0.42304 0.56089 0.86352 0.0
C1336 C 0.42957 0.5891 0.95924 0.0
C1337 C 0.41591 0.55398 0.11862 0.0
H1338 H 0.49905 0.62827 0.37101 0.0
H1339 H 0.47819 0.6215 0.2553 0.0
H1340 H 0.4278 0.54474 0.21346 0.0
H1341 H 0.39402 0.52376 0.88081 0.0
H1342 H 0.38467 0.53155 0.00085 0.0
H1343 H 0.42051 0.60905 0.08427 0.0
C1344 C 0.46978 0.60804 0.29707 0.0
C1345 C 0.42573 0.55873 0.18656 0.0
C1346 C 0.48187 0.61168 0.36235 0.0
C1347 C 0.40398 0.5421 0.90207 0.0
C1348 C 0.39846 0.54663 0.97025 0.0
C1349 C 0.42154 0.59473 0.11278 0.0
C1350 C 0.44703 0.58697 0.28604 0.0
C1351 C 0.43452 0.58181 0.21712 0.0
C1352 C 0.41257 0.56976 0.0014 0.0
C1353 C 0.41477 0.57229 0.07959 0.0
H1354 H 0.43919 0.5601 0.4457 0.0
H1355 H 0.41887 0.55356 0.33343 0.0
H1356 H 0.43779 0.6173 0.20482 0.0
H1357 H 0.44889 0.5997 0.86129 0.0
H1358 H 0.44081 0.60719 0.98115 0.0
loop_
_geom_bond_atom_site_label_1
_geom_bond_atom_site_label_2
_geom_bond_distance
_geom_bond_site_symmetry_2
_ccdc_geom_bond_type
C0 O27 1.312 . S
C0 O28 1.208 . S
C1 O22 1.331 1_556 S
C1 O25 1.244 . S
C2 O24 1.264 . S
C2 O26 1.273 . S
Mg3 O5 1.936 . S
Mg3 O12 2.081 . S
Mg3 O14 2.023 1_554 S
Mg3 O18 2.031 . S
Mg3 O27 2.291 . S
Mg4 O5 1.963 1_556 S
Mg4 O15 1.942 1_556 S
Mg4 O16 1.955 . S
Mg4 O23 1.986 . S
O5 Mg3 1.936 . S
O5 Mg4 1.963 1_554 S
O5 Mg6 1.916 . S
Mg6 O5 1.916 . S
Mg6 O7 1.914 1_554 S
Mg6 O11 2.007 1_554 S
Mg6 O17 2.120 . S
Mg6 O21 2.012 1_554 S
Mg6 O27 2.115 . S
O7 Mg6 1.914 1_556 S
O7 Mg8 1.936 1_556 S
O7 Mg9 1.963 . S
Mg8 O7 1.936 1_554 S
Mg8 O17 2.291 . S
Mg8 O22 2.081 . S
Mg8 O24 2.023 . S
Mg8 O28 2.031 . S
Mg9 O7 1.963 . S
Mg9 O13 1.986 . S
Mg9 O25 1.942 . S
Mg9 O26 1.955 1_556 S
C10 O21 1.191 . S
C10 O23 1.307 . S
O11 Mg6 2.007 1_556 S
O11 C30 1.191 . S
O12 Mg3 2.081 . S
O12 C20 1.331 . S
O13 Mg9 1.986 . S
O13 C30 1.307 . S
O14 Mg3 2.023 1_556 S
O14 C29 1.264 . S
O15 Mg4 1.942 1_554 S
O15 C20 1.244 . S
O16 Mg4 1.955 . S
O16 C29 1.273 . S
O17 Mg6 2.120 . S
O17 Mg8 2.291 . S
O17 C19 1.312 . S
O18 Mg3 2.031 . S
O18 C19 1.208 . S
C19 O17 1.312 . S
C19 O18 1.208 . S
C20 O12 1.331 . S
C20 O15 1.244 . S
O21 Mg6 2.012 1_556 S
O21 C10 1.191 . S
O22 C1 1.331 1_554 S
O22 Mg8 2.081 . S
O23 Mg4 1.986 . S
O23 C10 1.307 . S
O24 C2 1.264 . S
O24 Mg8 2.023 . S
O25 C1 1.244 . S
O25 Mg9 1.942 . S
O26 C2 1.273 . S
O26 Mg9 1.955 1_554 S
O27 C0 1.312 . S
O27 Mg3 2.291 . S
O27 Mg6 2.115 . S
O28 C0 1.208 . S
O28 Mg8 2.031 . S
C29 O14 1.264 . S
C29 O16 1.273 . S
C30 O11 1.191 . S
C30 O13 1.307 . S
C31 O58 1.312 . S
C31 O59 1.208 . S
C32 O53 1.331 1_556 S
C32 O56 1.244 . S
C33 O55 1.264 . S
C33 O57 1.273 . S
Mg34 O36 1.936 . S
Mg34 O43 2.081 . S
Mg34 O45 2.023 1_554 S
Mg34 O49 2.031 . S
Mg34 O58 2.291 . S
Mg35 O36 1.963 1_556 S
Mg35 O46 1.942 1_556 S
Mg35 O47 1.955 . S
Mg35 O54 1.986 . S
O36 Mg34 1.936 . S
O36 Mg35 1.963 1_554 S
O36 Mg37 1.916 . S
Mg37 O36 1.916 . S
Mg37 O38 1.914 1_554 S
Mg37 O42 2.006 1_554 S
Mg37 O48 2.120 . S
Mg37 O52 2.012 1_554 S
Mg37 O58 2.115 . S
O38 Mg37 1.914 1_556 S
O38 Mg39 1.936 1_556 S
O38 Mg40 1.963 . S
Mg39 O38 1.936 1_554 S
Mg39 O48 2.291 . S
Mg39 O53 2.081 . S
Mg39 O55 2.023 . S
Mg39 O59 2.031 . S
Mg40 O38 1.963 . S
Mg40 O44 1.986 . S
Mg40 O56 1.942 . S
Mg40 O57 1.955 1_556 S
C41 O52 1.191 . S
C41 O54 1.307 . S
O42 Mg37 2.006 1_556 S
O42 C61 1.191 . S
O43 Mg34 2.081 . S
O43 C51 1.331 . S
O44 Mg40 1.986 . S
O44 C61 1.307 . S
O45 Mg34 2.023 1_556 S
O45 C60 1.264 . S
O46 Mg35 1.942 1_554 S
O46 C51 1.244 . S
O47 Mg35 1.955 . S
O47 C60 1.273 . S
O48 Mg37 2.120 . S
O48 Mg39 2.291 . S
O48 C50 1.312 . S
O49 Mg34 2.031 . S
O49 C50 1.208 . S
C50 O48 1.312 . S
C50 O49 1.208 . S
C51 O43 1.331 . S
C51 O46 1.244 . S
O52 Mg37 2.012 1_556 S
O52 C41 1.191 . S
O53 C32 1.331 1_554 S
O53 Mg39 2.081 . S
O54 Mg35 1.986 . S
O54 C41 1.307 . S
O55 C33 1.264 . S
O55 Mg39 2.023 . S
O56 C32 1.244 . S
O56 Mg40 1.942 . S
O57 C33 1.273 . S
O57 Mg40 1.955 1_554 S
O58 C31 1.312 . S
O58 Mg34 2.291 . S
O58 Mg37 2.115 . S
O59 C31 1.208 . S
O59 Mg39 2.031 . S
C60 O45 1.264 . S
C60 O47 1.273 . S
C61 O42 1.191 . S
C61 O44 1.307 . S
C62 O89 1.312 . S
C62 O90 1.208 . S
C63 O84 1.331 1_556 S
C63 O87 1.244 . S
C64 O86 1.264 . S
C64 O88 1.273 . S
Mg65 O67 1.936 . S
Mg65 O74 2.081 . S
Mg65 O76 2.023 1_554 S
Mg65 O80 2.031 . S
Mg65 O89 2.291 . S
Mg66 O67 1.963 1_556 S
Mg66 O77 1.942 1_556 S
Mg66 O78 1.955 . S
Mg66 O85 1.986 . S
O67 Mg65 1.936 . S
O67 Mg66 1.963 1_554 S
O67 Mg68 1.916 . S
Mg68 O67 1.916 . S
Mg68 O69 1.915 1_554 S
Mg68 O73 2.008 1_554 S
Mg68 O79 2.119 . S
Mg68 O83 2.013 1_554 S
Mg68 O89 2.115 . S
O69 Mg68 1.915 1_556 S
O69 Mg70 1.936 1_556 S
O69 Mg71 1.963 . S
Mg70 O69 1.936 1_554 S
Mg70 O79 2.291 . S
Mg70 O84 2.081 . S
Mg70 O86 2.023 . S
Mg70 O90 2.031 . S
Mg71 O69 1.963 . S
Mg71 O75 1.986 . S
Mg71 O87 1.942 . S
Mg71 O88 1.955 1_556 S
C72 O83 1.191 . S
C72 O85 1.307 . S
O73 Mg68 2.008 1_556 S
O73 C92 1.191 . S
O74 Mg65 2.081 . S
O74 C82 1.331 . S
O75 Mg71 1.986 . S
O75 C92 1.307 . S
O76 Mg65 2.023 1_556 S
O76 C91 1.264 . S
O77 Mg66 1.942 1_554 S
O77 C82 1.244 . S
O78 Mg66 1.955 . S
O78 C91 1.273 . S
O79 Mg68 2.119 . S
O79 Mg70 2.291 . S
O79 C81 1.312 . S
O80 Mg65 2.031 . S
O80 C81 1.208 . S
C81 O79 1.312 . S
C81 O80 1.208 . S
C82 O74 1.331 . S
C82 O77 1.244 . S
O83 Mg68 2.013 1_556 S
O83 C72 1.191 . S
O84 C63 1.331 1_554 S
O84 Mg70 2.081 . S
O85 Mg66 1.986 . S
O85 C72 1.307 . S
O86 C64 1.264 . S
O86 Mg70 2.023 . S
O87 C63 1.244 . S
O87 Mg71 1.942 . S
O88 C64 1.273 . S
O88 Mg71 1.955 1_554 S
O89 C62 1.312 . S
O89 Mg65 2.291 . S
O89 Mg68 2.115 . S
O90 C62 1.208 . S
O90 Mg70 2.031 . S
C91 O76 1.264 . S
C91 O78 1.273 . S
C92 O73 1.191 . S
C92 O75 1.307 . S
C93 O120 1.312 . S
C93 O121 1.208 . S
C94 O115 1.331 . S
C94 O118 1.244 . S
C95 O117 1.264 . S
C95 O119 1.273 . S
Mg96 O98 1.936 . S
Mg96 O105 2.081 . S
Mg96 O107 2.023 . S
Mg96 O111 2.031 . S
Mg96 O120 2.291 . S
Mg97 O98 1.963 . S
Mg97 O108 1.942 . S
Mg97 O109 1.955 . S
Mg97 O116 1.986 . S
O98 Mg96 1.936 . S
O98 Mg97 1.963 . S
O98 Mg99 1.915 . S
Mg99 O98 1.915 . S
Mg99 O100 1.915 . S
Mg99 O104 2.013 . S
Mg99 O110 2.114 . S
Mg99 O114 2.013 . S
Mg99 O120 2.114 . S
O100 Mg99 1.915 . S
O100 Mg101 1.936 . S
O100 Mg102 1.963 . S
Mg101 O100 1.936 . S
Mg101 O110 2.291 . S
Mg101 O115 2.081 . S
Mg101 O117 2.023 . S
Mg101 O121 2.031 . S
Mg102 O100 1.963 . S
Mg102 O106 1.986 . S
Mg102 O118 1.942 . S
Mg102 O119 1.955 . S
C103 O114 1.191 . S
C103 O116 1.307 . S
O104 Mg99 2.013 . S
O104 C123 1.191 . S
O105 Mg96 2.081 . S
O105 C113 1.331 . S
O106 Mg102 1.986 . S
O106 C123 1.307 . S
O107 Mg96 2.023 . S
O107 C122 1.264 . S
O108 Mg97 1.942 . S
O108 C113 1.244 . S
O109 Mg97 1.955 . S
O109 C122 1.273 . S
O110 Mg99 2.114 . S
O110 Mg101 2.291 . S
O110 C112 1.312 . S
O111 Mg96 2.031 . S
O111 C112 1.208 . S
C112 O110 1.312 . S
C112 O111 1.208 . S
C113 O105 1.331 . S
C113 O108 1.244 . S
O114 Mg99 2.013 . S
O114 C103 1.191 . S
O115 C94 1.331 . S
O115 Mg101 2.081 . S
O116 Mg97 1.986 . S
O116 C103 1.307 . S
O117 C95 1.264 . S
O117 Mg101 2.023 . S
O118 C94 1.244 . S
O118 Mg102 1.942 . S
O119 C95 1.273 . S
O119 Mg102 1.955 . S
O120 C93 1.312 . S
O120 Mg96 2.291 . S
O120 Mg99 2.114 . S
O121 C93 1.208 . S
O121 Mg101 2.031 . S
C122 O107 1.264 . S
C122 O109 1.273 . S
C123 O104 1.191 . S
C123 O106 1.307 . S
C124 O151 1.312 . S
C124 O152 1.208 . S
C125 O146 1.331 . S
C125 O149 1.244 . S
C126 O148 1.264 . S
C126 O150 1.273 . S
Mg127 O129 1.936 . S
Mg127 O136 2.081 . S
Mg127 O138 2.023 . S
Mg127 O142 2.031 . S
Mg127 O151 2.291 . S
Mg128 O129 1.963 . S
Mg128 O139 1.942 . S
Mg128 O140 1.955 . S
Mg128 O147 1.986 . S
O129 Mg127 1.936 . S
O129 Mg128 1.963 . S
O129 Mg130 1.915 . S
Mg130 O129 1.915 . S
Mg130 O131 1.915 . S
Mg130 O135 2.013 . S
Mg130 O141 2.114 . S
Mg130 O145 2.013 . S
Mg130 O151 2.114 . S
O131 Mg130 1.915 . S
O131 Mg132 1.936 . S
O131 Mg133 1.963 . S
Mg132 O131 1.936 . S
Mg132 O141 2.291 . S
Mg132 O146 2.081 . S
Mg132 O148 2.023 . S
Mg132 O152 2.031 . S
Mg133 O131 1.963 . S
Mg133 O137 1.986 . S
Mg133 O149 1.942 . S
Mg133 O150 1.955 . S
C134 O145 1.191 . S
C134 O147 1.307 . S
O135 Mg130 2.013 . S
O135 C154 1.191 . S
O136 Mg127 2.081 . S
O136 C144 1.331 . S
O137 Mg133 1.986 . S
O137 C154 1.307 . S
O138 Mg127 2.023 . S
O138 C153 1.264 . S
O139 Mg128 1.942 . S
O139 C144 1.244 . S
O140 Mg128 1.955 . S
O140 C153 1.273 . S
O141 Mg130 2.114 . S
O141 Mg132 2.291 . S
O141 C143 1.312 . S
O142 Mg127 2.031 . S
O142 C143 1.208 . S
C143 O141 1.312 . S
C143 O142 1.208 . S
C144 O136 1.331 . S
C144 O139 1.244 . S
O145 Mg130 2.013 . S
O145 C134 1.191 . S
O146 C125 1.331 . S
O146 Mg132 2.081 . S
O147 Mg128 1.986 . S
O147 C134 1.307 . S
O148 C126 1.264 . S
O148 Mg132 2.023 . S
O149 C125 1.244 . S
O149 Mg133 1.942 . S
O150 C126 1.273 . S
O150 Mg133 1.955 . S
O151 C124 1.312 . S
O151 Mg127 2.291 . S
O151 Mg130 2.114 . S
O152 C124 1.208 . S
O152 Mg132 2.031 . S
C153 O138 1.264 . S
C153 O140 1.273 . S
C154 O135 1.191 . S
C154 O137 1.307 . S
C155 O182 1.312 . S
C155 O183 1.208 . S
C156 O177 1.331 . S
C156 O180 1.244 . S
C157 O179 1.264 . S
C157 O181 1.273 . S
Mg158 O160 1.936 . S
Mg158 O167 2.081 . S
Mg158 O169 2.023 . S
Mg158 O173 2.031 . S
Mg158 O182 2.291 . S
Mg159 O160 1.963 . S
Mg159 O170 1.942 . S
Mg159 O171 1.955 . S
Mg159 O178 1.986 . S
O160 Mg158 1.936 . S
O160 Mg159 1.963 . S
O160 Mg161 1.915 . S
Mg161 O160 1.915 . S
Mg161 O162 1.915 . S
Mg161 O166 2.013 . S
Mg161 O172 2.114 . S
Mg161 O176 2.013 . S
Mg161 O182 2.114 . S
O162 Mg161 1.915 . S
O162 Mg163 1.936 . S
O162 Mg164 1.963 . S
Mg163 O162 1.936 . S
Mg163 O172 2.291 . S
Mg163 O177 2.081 . S
Mg163 O179 2.023 . S
Mg163 O183 2.031 . S
Mg164 O162 1.963 . S
Mg164 O168 1.986 . S
Mg164 O180 1.942 . S
Mg164 O181 1.955 . S
C165 O176 1.191 . S
C165 O178 1.307 . S
O166 Mg161 2.013 . S
O166 C185 1.191 . S
O167 Mg158 2.081 . S
O167 C175 1.331 . S
O168 Mg164 1.986 . S
O168 C185 1.307 . S
O169 Mg158 2.023 . S
O169 C184 1.264 . S
O170 Mg159 1.942 . S
O170 C175 1.244 . S
O171 Mg159 1.955 . S
O171 C184 1.273 . S
O172 Mg161 2.114 . S
O172 Mg163 2.291 . S
O172 C174 1.312 . S
O173 Mg158 2.031 . S
O173 C174 1.208 . S
C174 O172 1.312 . S
C174 O173 1.208 . S
C175 O167 1.331 . S
C175 O170 1.244 . S
O176 Mg161 2.013 . S
O176 C165 1.191 . S
O177 C156 1.331 . S
O177 Mg163 2.081 . S
O178 Mg159 1.986 . S
O178 C165 1.307 . S
O179 C157 1.264 . S
O179 Mg163 2.023 . S
O180 C156 1.244 . S
O180 Mg164 1.942 . S
O181 C157 1.273 . S
O181 Mg164 1.955 . S
O182 C155 1.312 . S
O182 Mg158 2.291 . S
O182 Mg161 2.114 . S
O183 C155 1.208 . S
O183 Mg163 2.031 . S
C184 O169 1.264 . S
C184 O171 1.273 . S
C185 O166 1.191 . S
C185 O168 1.307 . S
C186 O213 1.312 . S
C186 O214 1.208 . S
C187 O208 1.331 . S
C187 O211 1.244 . S
C188 O210 1.264 . S
C188 O212 1.273 . S
Mg189 O191 1.936 . S
Mg189 O198 2.081 . S
Mg189 O200 2.023 . S
Mg189 O204 2.031 . S
Mg189 O213 2.291 . S
Mg190 O191 1.963 . S
Mg190 O201 1.942 . S
Mg190 O202 1.955 . S
Mg190 O209 1.986 . S
O191 Mg189 1.936 . S
O191 Mg190 1.963 . S
O191 Mg192 1.915 . S
Mg192 O191 1.915 . S
Mg192 O193 1.915 . S
Mg192 O197 2.013 . S
Mg192 O203 2.114 . S
Mg192 O207 2.013 . S
Mg192 O213 2.114 . S
O193 Mg192 1.915 . S
O193 Mg194 1.936 . S
O193 Mg195 1.963 . S
Mg194 O193 1.936 . S
Mg194 O203 2.291 . S
Mg194 O208 2.081 . S
Mg194 O210 2.023 . S
Mg194 O214 2.031 . S
Mg195 O193 1.963 . S
Mg195 O199 1.986 . S
Mg195 O211 1.942 . S
Mg195 O212 1.955 . S
C196 O207 1.191 . S
C196 O209 1.307 . S
O197 Mg192 2.013 . S
O197 C216 1.191 . S
O198 Mg189 2.081 . S
O198 C206 1.331 . S
O199 Mg195 1.986 . S
O199 C216 1.307 . S
O200 Mg189 2.023 . S
O200 C215 1.264 . S
O201 Mg190 1.942 . S
O201 C206 1.244 . S
O202 Mg190 1.955 . S
O202 C215 1.273 . S
O203 Mg192 2.114 . S
O203 Mg194 2.291 . S
O203 C205 1.312 . S
O204 Mg189 2.031 . S
O204 C205 1.208 . S
C205 O203 1.312 . S
C205 O204 1.208 . S
C206 O198 1.331 . S
C206 O201 1.244 . S
O207 Mg192 2.013 . S
O207 C196 1.191 . S
O208 C187 1.331 . S
O208 Mg194 2.081 . S
O209 Mg190 1.986 . S
O209 C196 1.307 . S
O210 C188 1.264 . S
O210 Mg194 2.023 . S
O211 C187 1.244 . S
O211 Mg195 1.942 . S
O212 C188 1.273 . S
O212 Mg195 1.955 . S
O213 C186 1.312 . S
O213 Mg189 2.291 . S
O213 Mg192 2.114 . S
O214 C186 1.208 . S
O214 Mg194 2.031 . S
C215 O200 1.264 . S
C215 O202 1.273 . S
C216 O197 1.191 . S
C216 O199 1.307 . S
C217 O244 1.312 . S
C217 O245 1.208 . S
C218 O239 1.331 . S
C218 O242 1.244 . S
C219 O241 1.264 . S
C219 O243 1.273 . S
Mg220 O222 1.936 . S
Mg220 O229 2.081 . S
Mg220 O231 2.023 . S
Mg220 O235 2.031 . S
Mg220 O244 2.291 . S
Mg221 O222 1.963 . S
Mg221 O232 1.942 . S
Mg221 O233 1.955 . S
Mg221 O240 1.986 . S
O222 Mg220 1.936 . S
O222 Mg221 1.963 . S
O222 Mg223 1.915 . S
Mg223 O222 1.915 . S
Mg223 O224 1.915 . S
Mg223 O228 2.013 . S
Mg223 O234 2.114 . S
Mg223 O238 2.013 . S
Mg223 O244 2.114 . S
O224 Mg223 1.915 . S
O224 Mg225 1.936 . S
O224 Mg226 1.963 . S
Mg225 O224 1.936 . S
Mg225 O234 2.291 . S
Mg225 O239 2.081 . S
Mg225 O241 2.023 . S
Mg225 O245 2.031 . S
Mg226 O224 1.963 . S
Mg226 O230 1.986 . S
Mg226 O242 1.942 . S
Mg226 O243 1.955 . S
C227 O238 1.191 . S
C227 O240 1.307 . S
O228 Mg223 2.013 . S
O228 C247 1.191 . S
O229 Mg220 2.081 . S
O229 C237 1.331 . S
O230 Mg226 1.986 . S
O230 C247 1.307 . S
O231 Mg220 2.023 . S
O231 C246 1.264 . S
O232 Mg221 1.942 . S
O232 C237 1.244 . S
O233 Mg221 1.955 . S
O233 C246 1.273 . S
O234 Mg223 2.114 . S
O234 Mg225 2.291 . S
O234 C236 1.312 . S
O235 Mg220 2.031 . S
O235 C236 1.208 . S
C236 O234 1.312 . S
C236 O235 1.208 . S
C237 O229 1.331 . S
C237 O232 1.244 . S
O238 Mg223 2.013 . S
O238 C227 1.191 . S
O239 C218 1.331 . S
O239 Mg225 2.081 . S
O240 Mg221 1.986 . S
O240 C227 1.307 . S
O241 C219 1.264 . S
O241 Mg225 2.023 . S
O242 C218 1.244 . S
O242 Mg226 1.942 . S
O243 C219 1.273 . S
O243 Mg226 1.955 . S
O244 C217 1.312 . S
O244 Mg220 2.291 . S
O244 Mg223 2.114 . S
O245 C217 1.208 . S
O245 Mg225 2.031 . S
C246 O231 1.264 . S
C246 O233 1.273 . S
C247 O228 1.191 . S
C247 O230 1.307 . S
C248 O275 1.312 . S
C248 O276 1.208 . S
C249 O270 1.331 . S
C249 O273 1.244 . S
C250 O272 1.264 . S
C250 O274 1.273 . S
Mg251 O253 1.936 . S
Mg251 O260 2.081 . S
Mg251 O262 2.023 . S
Mg251 O266 2.031 . S
Mg251 O275 2.291 . S
Mg252 O253 1.963 . S
Mg252 O263 1.942 . S
Mg252 O264 1.955 . S
Mg252 O271 1.986 . S
O253 Mg251 1.936 . S
O253 Mg252 1.963 . S
O253 Mg254 1.915 . S
Mg254 O253 1.915 . S
Mg254 O255 1.915 . S
Mg254 O259 2.013 . S
Mg254 O265 2.114 . S
Mg254 O269 2.013 . S
Mg254 O275 2.114 . S
O255 Mg254 1.915 . S
O255 Mg256 1.936 . S
O255 Mg257 1.963 . S
Mg256 O255 1.936 . S
Mg256 O265 2.291 . S
Mg256 O270 2.081 . S
Mg256 O272 2.023 . S
Mg256 O276 2.031 . S
Mg257 O255 1.963 . S
Mg257 O261 1.986 . S
Mg257 O273 1.942 . S
Mg257 O274 1.955 . S
C258 O269 1.191 . S
C258 O271 1.307 . S
O259 Mg254 2.013 . S
O259 C278 1.191 . S
O260 Mg251 2.081 . S
O260 C268 1.331 . S
O261 Mg257 1.986 . S
O261 C278 1.307 . S
O262 Mg251 2.023 . S
O262 C277 1.264 . S
O263 Mg252 1.942 . S
O263 C268 1.244 . S
O264 Mg252 1.955 . S
O264 C277 1.273 . S
O265 Mg254 2.114 . S
O265 Mg256 2.291 . S
O265 C267 1.312 . S
O266 Mg251 2.031 . S
O266 C267 1.208 . S
C267 O265 1.312 . S
C267 O266 1.208 . S
C268 O260 1.331 . S
C268 O263 1.244 . S
O269 Mg254 2.013 . S
O269 C258 1.191 . S
O270 C249 1.331 . S
O270 Mg256 2.081 . S
O271 Mg252 1.986 . S
O271 C258 1.307 . S
O272 C250 1.264 . S
O272 Mg256 2.023 . S
O273 C249 1.244 . S
O273 Mg257 1.942 . S
O274 C250 1.273 . S
O274 Mg257 1.955 . S
O275 C248 1.312 . S
O275 Mg251 2.291 . S
O275 Mg254 2.114 . S
O276 C248 1.208 . S
O276 Mg256 2.031 . S
C277 O262 1.264 . S
C277 O264 1.273 . S
C278 O259 1.191 . S
C278 O261 1.307 . S
C279 C280 1.349 . S
C279 C281 1.327 . S
C279 H304 0.950 . S
C280 C279 1.349 . S
C280 C296 1.349 . S
C281 C279 1.327 . S
C281 C300 1.429 . S
C281 H305 0.950 . S
C282 C299 1.574 . S
C282 C301 1.368 . S
C282 H306 0.949 . S
H283 C287 0.949 . S
C284 C285 1.349 . S
C284 C286 1.327 . S
C284 H307 0.950 . S
C285 C284 1.349 . S
C285 C297 1.349 . S
C286 C284 1.327 . S
C286 C302 1.429 . S
C286 H308 0.950 . S
C287 H283 0.949 . S
C287 C295 1.574 . S
C287 C303 1.368 . S
H288 C296 0.950 . S
H289 C294 0.950 . S
H290 C295 0.949 . S
H291 C297 0.950 . S
H292 C298 0.950 . S
H293 C299 0.949 . S
C294 H289 0.950 . S
C294 C296 1.327 . S
C294 C300 1.429 . S
C295 C287 1.574 . S
C295 H290 0.949 . S
C295 C301 1.368 . S
C296 C280 1.349 . S
C296 H288 0.950 . S
C296 C294 1.327 . S
C297 C285 1.349 . S
C297 H291 0.950 . S
C297 C298 1.327 . S
C298 H292 0.950 . S
C298 C297 1.327 . S
C298 C302 1.429 . S
C299 C282 1.574 . S
C299 H293 0.949 . S
C299 C303 1.368 . S
C300 C281 1.429 . S
C300 C294 1.429 . S
C300 C301 1.523 . S
C301 C282 1.368 . S
C301 C295 1.368 . S
C301 C300 1.523 . S
C302 C286 1.429 . S
C302 C298 1.429 . S
C302 C303 1.523 . S
C303 C287 1.368 . S
C303 C299 1.368 . S
C303 C302 1.523 . S
H304 C279 0.950 . S
H305 C281 0.950 . S
H306 C282 0.949 . S
H307 C284 0.950 . S
H308 C286 0.950 . S
C309 C310 1.349 . S
C309 C311 1.327 . S
C309 H334 0.950 . S
C310 C309 1.349 . S
C310 C326 1.349 . S
C311 C309 1.327 . S
C311 C330 1.429 . S
C311 H335 0.950 . S
C312 C329 1.574 . S
C312 C331 1.368 . S
C312 H336 0.949 . S
H313 C317 0.949 . S
C314 C315 1.349 . S
C314 C316 1.327 . S
C314 H337 0.950 . S
C315 C314 1.349 . S
C315 C327 1.349 . S
C316 C314 1.327 . S
C316 C332 1.429 1_565 S
C316 H338 0.950 . S
C317 H313 0.949 . S
C317 C325 1.574 . S
C317 C333 1.368 . S
H318 C326 0.950 . S
H319 C324 0.950 . S
H320 C325 0.949 . S
H321 C327 0.950 . S
H322 C328 0.950 . S
H323 C329 0.949 . S
C324 H319 0.950 . S
C324 C326 1.327 . S
C324 C330 1.429 . S
C325 C317 1.574 . S
C325 H320 0.949 . S
C325 C331 1.368 . S
C326 C310 1.349 . S
C326 H318 0.950 . S
C326 C324 1.327 . S
C327 C315 1.349 . S
C327 H321 0.950 . S
C327 C328 1.327 1_565 S
C328 H322 0.950 . S
C328 C327 1.327 1_545 S
C328 C332 1.429 . S
C329 C312 1.574 . S
C329 H323 0.949 . S
C329 C333 1.368 . S
C330 C311 1.429 . S
C330 C324 1.429 . S
C330 C331 1.523 . S
C331 C312 1.368 . S
C331 C325 1.368 . S
C331 C330 1.523 . S
C332 C316 1.429 1_545 S
C332 C328 1.429 . S
C332 C333 1.523 . S
C333 C317 1.368 . S
C333 C329 1.368 . S
C333 C332 1.523 . S
H334 C309 0.950 . S
H335 C311 0.950 . S
H336 C312 0.949 . S
H337 C314 0.950 . S
H338 C316 0.950 . S
C339 C340 1.349 . S
C339 C341 1.327 . S
C339 H364 0.950 . S
C340 C339 1.349 . S
C340 C356 1.349 . S
C341 C339 1.327 . S
C341 C360 1.429 1_455 S
C341 H365 0.950 . S
C342 C359 1.574 . S
C342 C361 1.368 . S
C342 H366 0.949 . S
H343 C347 0.949 . S
C344 C345 1.349 . S
C344 C346 1.327 . S
C344 H367 0.950 . S
C345 C344 1.349 . S
C345 C357 1.349 . S
C346 C344 1.327 . S
C346 C362 1.429 . S
C346 H368 0.950 . S
C347 H343 0.949 . S
C347 C355 1.574 . S
C347 C363 1.368 . S
H348 C356 0.950 . S
H349 C354 0.950 . S
H350 C355 0.949 . S
H351 C357 0.950 . S
H352 C358 0.950 . S
H353 C359 0.949 . S
C354 H349 0.950 . S
C354 C356 1.327 1_655 S
C354 C360 1.429 . S
C355 C347 1.574 . S
C355 H350 0.949 . S
C355 C361 1.368 . S
C356 C340 1.349 . S
C356 H348 0.950 . S
C356 C354 1.327 1_455 S
C357 C345 1.349 . S
C357 H351 0.950 . S
C357 C358 1.327 . S
C358 H352 0.950 . S
C358 C357 1.327 . S
C358 C362 1.429 . S
C359 C342 1.574 . S
C359 H353 0.949 . S
C359 C363 1.368 . S
C360 C341 1.429 1_655 S
C360 C354 1.429 . S
C360 C361 1.523 . S
C361 C342 1.368 . S
C361 C355 1.368 . S
C361 C360 1.523 . S
C362 C346 1.429 . S
C362 C358 1.429 . S
C362 C363 1.523 . S
C363 C347 1.368 . S
C363 C359 1.368 . S
C363 C362 1.523 . S
H364 C339 0.950 . S
H365 C341 0.950 . S
H366 C342 0.949 . S
H367 C344 0.950 . S
H368 C346 0.950 . S
C369 C370 1.349 1_554 S
C369 C371 1.327 . S
C369 H394 0.950 . S
C370 C369 1.349 1_556 S
C370 C386 1.349 . S
C371 C369 1.327 . S
C371 C390 1.429 . S
C371 H395 0.950 . S
C372 C389 1.574 . S
C372 C391 1.368 . S
C372 H396 0.949 . S
H373 C377 0.949 . S
C374 C375 1.349 . S
C374 C376 1.327 . S
C374 H397 0.950 . S
C375 C374 1.349 . S
C375 C387 1.349 . S
C376 C374 1.327 . S
C376 C392 1.429 . S
C376 H398 0.950 . S
C377 H373 0.949 . S
C377 C385 1.574 . S
C377 C393 1.368 . S
H378 C386 0.950 . S
H379 C384 0.950 . S
H380 C385 0.949 . S
H381 C387 0.950 . S
H382 C388 0.950 . S
H383 C389 0.949 . S
C384 H379 0.950 . S
C384 C386 1.327 . S
C384 C390 1.429 1_556 S
C385 C377 1.574 . S
C385 H380 0.949 . S
C385 C391 1.368 . S
C386 C370 1.349 . S
C386 H378 0.950 . S
C386 C384 1.327 . S
C387 C375 1.349 . S
C387 H381 0.950 . S
C387 C388 1.327 . S
C388 H382 0.950 . S
C388 C387 1.327 . S
C388 C392 1.429 . S
C389 C372 1.574 . S
C389 H383 0.949 . S
C389 C393 1.368 . S
C390 C371 1.429 . S
C390 C384 1.429 1_554 S
C390 C391 1.523 . S
C391 C372 1.368 . S
C391 C385 1.368 . S
C391 C390 1.523 . S
C392 C376 1.429 . S
C392 C388 1.429 . S
C392 C393 1.523 . S
C393 C377 1.368 . S
C393 C389 1.368 . S
C393 C392 1.523 . S
H394 C369 0.950 . S
H395 C371 0.950 . S
H396 C372 0.949 . S
H397 C374 0.950 . S
H398 C376 0.950 . S
C399 C400 1.349 . S
C399 C401 1.327 . S
C399 H424 0.950 . S
C400 C399 1.349 . S
C400 C416 1.349 1_556 S
C401 C399 1.327 . S
C401 C420 1.429 1_556 S
C401 H425 0.950 . S
C402 C419 1.574 . S
C402 C421 1.368 . S
C402 H426 0.949 . S
H403 C407 0.949 . S
C404 C405 1.349 . S
C404 C406 1.327 . S
C404 H427 0.950 . S
C405 C404 1.349 . S
C405 C417 1.349 . S
C406 C404 1.327 . S
C406 C422 1.429 . S
C406 H428 0.950 . S
C407 H403 0.949 . S
C407 C415 1.574 . S
C407 C423 1.368 . S
H408 C416 0.950 1_565 S
H409 C414 0.950 . S
H410 C415 0.949 . S
H411 C417 0.950 . S
H412 C418 0.950 . S
H413 C419 0.949 . S
C414 H409 0.950 . S
C414 C416 1.327 . S
C414 C420 1.429 . S
C415 C407 1.574 . S
C415 H410 0.949 . S
C415 C421 1.368 . S
C416 C400 1.349 1_554 S
C416 H408 0.950 1_545 S
C416 C414 1.327 . S
C417 C405 1.349 . S
C417 H411 0.950 . S
C417 C418 1.327 . S
C418 H412 0.950 . S
C418 C417 1.327 . S
C418 C422 1.429 . S
C419 C402 1.574 . S
C419 H413 0.949 . S
C419 C423 1.368 . S
C420 C401 1.429 1_554 S
C420 C414 1.429 . S
C420 C421 1.523 . S
C421 C402 1.368 . S
C421 C415 1.368 . S
C421 C420 1.523 . S
C422 C406 1.429 . S
C422 C418 1.429 . S
C422 C423 1.523 . S
C423 C407 1.368 . S
C423 C419 1.368 . S
C423 C422 1.523 . S
H424 C399 0.950 . S
H425 C401 0.950 . S
H426 C402 0.949 . S
H427 C404 0.950 . S
H428 C406 0.950 . S
C429 C430 1.349 . S
C429 C431 1.322 1_556 S
C429 H454 0.957 . S
C430 C429 1.349 . S
C430 C446 1.349 1_556 S
C431 C429 1.322 1_554 S
C431 C450 1.436 . S
C431 H455 0.947 1_554 S
C432 C449 1.574 . S
C432 C451 1.368 . S
C432 H456 0.949 . S
H433 C437 0.949 . S
C434 C435 1.349 . S
C434 C436 1.327 . S
C434 H457 0.950 . S
C435 C434 1.349 . S
C435 C447 1.349 . S
C436 C434 1.327 . S
C436 C452 1.429 . S
C436 H458 0.950 . S
C437 H433 0.949 . S
C437 C445 1.574 . S
C437 C453 1.368 . S
H438 C446 0.950 . S
H439 C444 0.950 . S
H440 C445 0.949 . S
H441 C447 0.950 . S
H442 C448 0.950 . S
H443 C449 0.949 . S
C444 H439 0.950 . S
C444 C446 1.327 . S
C444 C450 1.429 . S
C445 C437 1.574 . S
C445 H440 0.949 . S
C445 C451 1.368 . S
C446 C430 1.349 1_554 S
C446 H438 0.950 . S
C446 C444 1.327 . S
C447 C435 1.349 . S
C447 H441 0.950 . S
C447 C448 1.327 . S
C448 H442 0.950 . S
C448 C447 1.327 . S
C448 C452 1.429 . S
C449 C432 1.574 . S
C449 H443 0.949 . S
C449 C453 1.368 . S
C450 C431 1.436 . S
C450 C444 1.429 . S
C450 C451 1.523 . S
C451 C432 1.368 . S
C451 C445 1.368 . S
C451 C450 1.523 . S
C452 C436 1.429 . S
C452 C448 1.429 . S
C452 C453 1.523 . S
C453 C437 1.368 . S
C453 C449 1.368 . S
C453 C452 1.523 . S
H454 C429 0.957 . S
H455 C431 0.947 1_556 S
H456 C432 0.949 . S
H457 C434 0.950 . S
H458 C436 0.950 . S
C459 C460 1.349 . S
C459 C461 1.327 . S
C459 H484 0.950 . S
C460 C459 1.349 . S
C460 C476 1.349 . S
C461 C459 1.327 . S
C461 C480 1.429 . S
C461 H485 0.950 . S
C462 C479 1.574 . S
C462 C481 1.368 . S
C462 H486 0.949 . S
H463 C467 0.949 . S
C464 C465 1.349 . S
C464 C466 1.327 . S
C464 H487 0.950 . S
C465 C464 1.349 . S
C465 C477 1.349 . S
C466 C464 1.327 . S
C466 C482 1.429 1_455 S
C466 H488 0.950 . S
C467 H463 0.949 . S
C467 C475 1.574 . S
C467 C483 1.368 . S
H468 C476 0.950 . S
H469 C474 0.950 . S
H470 C475 0.949 . S
H471 C477 0.950 . S
H472 C478 0.950 1_655 S
H473 C479 0.949 . S
C474 H469 0.950 . S
C474 C476 1.327 . S
C474 C480 1.429 . S
C475 C467 1.574 . S
C475 H470 0.949 . S
C475 C481 1.368 . S
C476 C460 1.349 . S
C476 H468 0.950 . S
C476 C474 1.327 . S
C477 C465 1.349 . S
C477 H471 0.950 . S
C477 C478 1.327 . S
C478 H472 0.950 1_455 S
C478 C477 1.327 . S
C478 C482 1.429 1_455 S
C479 C462 1.574 . S
C479 H473 0.949 . S
C479 C483 1.368 . S
C480 C461 1.429 . S
C480 C474 1.429 . S
C480 C481 1.523 . S
C481 C462 1.368 . S
C481 C475 1.368 . S
C481 C480 1.523 . S
C482 C466 1.429 1_655 S
C482 C478 1.429 1_655 S
C482 C483 1.523 . S
C483 C467 1.368 . S
C483 C479 1.368 . S
C483 C482 1.523 . S
H484 C459 0.950 . S
H485 C461 0.950 . S
H486 C462 0.949 . S
H487 C464 0.950 . S
H488 C466 0.950 . S
C489 C490 1.349 . S
C489 C491 1.327 . S
C489 H514 0.950 . S
C490 C489 1.349 . S
C490 C506 1.349 . S
C491 C489 1.327 . S
C491 C510 1.429 . S
C491 H515 0.950 . S
C492 C509 1.574 . S
C492 C511 1.368 . S
C492 H516 0.949 . S
H493 C497 0.949 . S
C494 C495 1.349 . S
C494 C496 1.327 . S
C494 H517 0.950 . S
C495 C494 1.349 . S
C495 C507 1.349 . S
C496 C494 1.327 . S
C496 C512 1.429 . S
C496 H518 0.950 . S
C497 H493 0.949 . S
C497 C505 1.574 . S
C497 C513 1.368 . S
H498 C506 0.950 . S
H499 C504 0.950 . S
H500 C505 0.949 . S
H501 C507 0.950 . S
H502 C508 0.950 . S
H503 C509 0.949 . S
C504 H499 0.950 . S
C504 C506 1.327 . S
C504 C510 1.429 . S
C505 C497 1.574 . S
C505 H500 0.949 . S
C505 C511 1.368 . S
C506 C490 1.349 . S
C506 H498 0.950 . S
C506 C504 1.327 . S
C507 C495 1.349 . S
C507 H501 0.950 . S
C507 C508 1.327 . S
C508 H502 0.950 . S
C508 C507 1.327 . S
C508 C512 1.429 . S
C509 C492 1.574 . S
C509 H503 0.949 . S
C509 C513 1.368 . S
C510 C491 1.429 . S
C510 C504 1.429 . S
C510 C511 1.523 . S
C511 C492 1.368 . S
C511 C505 1.368 . S
C511 C510 1.523 . S
C512 C496 1.429 . S
C512 C508 1.429 . S
C512 C513 1.523 . S
C513 C497 1.368 . S
C513 C509 1.368 . S
C513 C512 1.523 . S
H514 C489 0.950 . S
H515 C491 0.950 . S
H516 C492 0.949 . S
H517 C494 0.950 . S
H518 C496 0.950 . S
C519 C520 1.349 . S
C519 C521 1.327 . S
C519 H544 0.950 . S
C520 C519 1.349 . S
C520 C536 1.349 . S
C521 C519 1.327 . S
C521 C540 1.429 1_565 S
C521 H545 0.950 1_565 S
C522 C539 1.574 . S
C522 C541 1.368 . S
C522 H546 0.949 . S
H523 C527 0.949 . S
C524 C525 1.349 . S
C524 C526 1.327 . S
C524 H547 0.950 . S
C525 C524 1.349 . S
C525 C537 1.349 . S
C526 C524 1.327 . S
C526 C542 1.429 . S
C526 H548 0.950 . S
C527 H523 0.949 . S
C527 C535 1.574 . S
C527 C543 1.368 . S
H528 C536 0.950 . S
H529 C534 0.950 . S
H530 C535 0.949 . S
H531 C537 0.950 . S
H532 C538 0.950 . S
H533 C539 0.949 . S
C534 H529 0.950 . S
C534 C536 1.327 . S
C534 C540 1.429 1_565 S
C535 C527 1.574 . S
C535 H530 0.949 . S
C535 C541 1.368 . S
C536 C520 1.349 . S
C536 H528 0.950 . S
C536 C534 1.327 . S
C537 C525 1.349 . S
C537 H531 0.950 . S
C537 C538 1.327 . S
C538 H532 0.950 . S
C538 C537 1.327 . S
C538 C542 1.429 . S
C539 C522 1.574 . S
C539 H533 0.949 . S
C539 C543 1.368 . S
C540 C521 1.429 1_545 S
C540 C534 1.429 1_545 S
C540 C541 1.523 . S
C541 C522 1.368 . S
C541 C535 1.368 . S
C541 C540 1.523 . S
C542 C526 1.429 . S
C542 C538 1.429 . S
C542 C543 1.523 . S
C543 C527 1.368 . S
C543 C539 1.368 . S
C543 C542 1.523 . S
H544 C519 0.950 . S
H545 C521 0.950 1_545 S
H546 C522 0.949 . S
H547 C524 0.950 . S
H548 C526 0.950 . S
C549 C550 1.349 . S
C549 C551 1.327 . S
C549 H574 0.950 . S
C550 C549 1.349 . S
C550 C566 1.349 . S
C551 C549 1.327 . S
C551 C570 1.429 . S
C551 H575 0.950 . S
C552 C569 1.574 . S
C552 C571 1.368 . S
C552 H576 0.949 . S
H553 C557 0.949 . S
C554 C555 1.349 . S
C554 C556 1.327 . S
C554 H577 0.950 . S
C555 C554 1.349 . S
C555 C567 1.349 . S
C556 C554 1.327 . S
C556 C572 1.429 1_565 S
C556 H578 0.950 . S
C557 H553 0.949 . S
C557 C565 1.574 . S
C557 C573 1.368 . S
H558 C566 0.950 . S
H559 C564 0.950 . S
H560 C565 0.949 . S
H561 C567 0.950 . S
H562 C568 0.950 . S
H563 C569 0.949 . S
C564 H559 0.950 . S
C564 C566 1.327 . S
C564 C570 1.429 . S
C565 C557 1.574 . S
C565 H560 0.949 . S
C565 C571 1.368 . S
C566 C550 1.349 . S
C566 H558 0.950 . S
C566 C564 1.327 . S
C567 C555 1.349 . S
C567 H561 0.950 . S
C567 C568 1.327 1_565 S
C568 H562 0.950 . S
C568 C567 1.327 1_545 S
C568 C572 1.429 . S
C569 C552 1.574 . S
C569 H563 0.949 . S
C569 C573 1.368 . S
C570 C551 1.429 . S
C570 C564 1.429 . S
C570 C571 1.523 . S
C571 C552 1.368 . S
C571 C565 1.368 . S
C571 C570 1.523 . S
C572 C556 1.429 1_545 S
C572 C568 1.429 . S
C572 C573 1.523 . S
C573 C557 1.368 . S
C573 C569 1.368 . S
C573 C572 1.523 . S
H574 C549 0.950 . S
H575 C551 0.950 . S
H576 C552 0.949 . S
H577 C554 0.950 . S
H578 C556 0.950 . S
C579 C580 1.349 . S
C579 C581 1.327 . S
C579 H604 0.950 . S
C580 C579 1.349 . S
C580 C596 1.349 . S
C581 C579 1.327 . S
C581 C600 1.429 1_455 S
C581 H605 0.950 . S
C582 C599 1.574 . S
C582 C601 1.368 . S
C582 H606 0.949 . S
H583 C587 0.949 . S
C584 C585 1.349 . S
C584 C586 1.327 . S
C584 H607 0.950 . S
C585 C584 1.349 . S
C585 C597 1.349 . S
C586 C584 1.327 . S
C586 C602 1.429 . S
C586 H608 0.950 . S
C587 H583 0.949 . S
C587 C595 1.574 . S
C587 C603 1.368 . S
H588 C596 0.950 . S
H589 C594 0.950 . S
H590 C595 0.971 . S
H591 C597 0.950 . S
H592 C598 0.950 . S
H593 C599 0.949 . S
C594 H589 0.950 . S
C594 C596 1.327 1_655 S
C594 C600 1.429 . S
C595 C587 1.574 . S
C595 H590 0.971 . S
C595 C601 1.368 . S
C596 C580 1.349 . S
C596 H588 0.950 . S
C596 C594 1.327 1_455 S
C597 C585 1.349 . S
C597 H591 0.950 . S
C597 C598 1.327 . S
C598 H592 0.950 . S
C598 C597 1.327 . S
C598 C602 1.429 . S
C599 C582 1.574 . S
C599 H593 0.949 . S
C599 C603 1.368 . S
C600 C581 1.429 1_655 S
C600 C594 1.429 . S
C600 C601 1.523 . S
C601 C582 1.368 . S
C601 C595 1.368 . S
C601 C600 1.523 . S
C602 C586 1.429 . S
C602 C598 1.429 . S
C602 C603 1.523 . S
C603 C587 1.368 . S
C603 C599 1.368 . S
C603 C602 1.523 . S
H604 C579 0.950 . S
H605 C581 0.950 . S
H606 C582 0.949 . S
H607 C584 0.950 . S
H608 C586 0.950 . S
C609 C610 1.349 . S
C609 C611 1.327 . S
C609 H634 0.950 . S
C610 C609 1.349 . S
C610 C626 1.349 . S
C611 C609 1.327 . S
C611 C630 1.429 . S
C611 H635 0.950 . S
C612 C629 1.574 . S
C612 C631 1.368 . S
C612 H636 0.949 . S
H613 C617 0.949 . S
C614 C615 1.349 . S
C614 C616 1.327 . S
C614 H637 0.950 . S
C615 C614 1.349 . S
C615 C627 1.349 . S
C616 C614 1.327 . S
C616 C632 1.429 . S
C616 H638 0.950 . S
C617 H613 0.949 . S
C617 C625 1.574 . S
C617 C633 1.368 . S
H618 C626 0.950 . S
H619 C624 0.950 . S
H620 C625 0.949 . S
H621 C627 0.950 . S
H622 C628 0.950 . S
H623 C629 0.949 . S
C624 H619 0.950 . S
C624 C626 1.327 . S
C624 C630 1.429 . S
C625 C617 1.574 . S
C625 H620 0.949 . S
C625 C631 1.368 . S
C626 C610 1.349 . S
C626 H618 0.950 . S
C626 C624 1.327 . S
C627 C615 1.349 . S
C627 H621 0.950 . S
C627 C628 1.327 . S
C628 H622 0.950 . S
C628 C627 1.327 . S
C628 C632 1.429 . S
C629 C612 1.574 . S
C629 H623 0.949 . S
C629 C633 1.368 . S
C630 C611 1.429 . S
C630 C624 1.429 . S
C630 C631 1.523 . S
C631 C612 1.368 . S
C631 C625 1.368 . S
C631 C630 1.523 . S
C632 C616 1.429 . S
C632 C628 1.429 . S
C632 C633 1.523 . S
C633 C617 1.368 . S
C633 C629 1.368 . S
C633 C632 1.523 . S
H634 C609 0.950 . S
H635 C611 0.950 . S
H636 C612 0.949 . S
H637 C614 0.950 . S
H638 C616 0.950 . S
C639 C640 1.349 . S
C639 C641 1.327 . S
C639 H664 0.950 . S
C640 C639 1.349 . S
C640 C656 1.349 . S
C641 C639 1.327 . S
C641 C660 1.429 . S
C641 H665 0.950 . S
C642 C659 1.574 . S
C642 C661 1.368 . S
C642 H666 0.949 . S
H643 C647 0.949 . S
C644 C645 1.349 . S
C644 C646 1.327 . S
C644 H667 0.950 . S
C645 C644 1.349 . S
C645 C657 1.349 . S
C646 C644 1.327 . S
C646 C662 1.429 . S
C646 H668 0.950 . S
C647 H643 0.949 . S
C647 C655 1.574 . S
C647 C663 1.368 . S
H648 C656 0.950 . S
H649 C654 0.950 . S
H650 C655 0.949 . S
H651 C657 0.950 . S
H652 C658 0.950 . S
H653 C659 0.949 . S
C654 H649 0.950 . S
C654 C656 1.327 . S
C654 C660 1.429 . S
C655 C647 1.574 . S
C655 H650 0.949 . S
C655 C661 1.368 . S
C656 C640 1.349 . S
C656 H648 0.950 . S
C656 C654 1.327 . S
C657 C645 1.349 . S
C657 H651 0.950 . S
C657 C658 1.327 . S
C658 H652 0.950 . S
C658 C657 1.327 . S
C658 C662 1.429 . S
C659 C642 1.574 . S
C659 H653 0.949 . S
C659 C663 1.368 . S
C660 C641 1.429 . S
C660 C654 1.429 . S
C660 C661 1.523 . S
C661 C642 1.368 . S
C661 C655 1.368 . S
C661 C660 1.523 . S
C662 C646 1.429 . S
C662 C658 1.429 . S
C662 C663 1.523 . S
C663 C647 1.368 . S
C663 C659 1.368 . S
C663 C662 1.523 . S
H664 C639 0.950 . S
H665 C641 0.950 . S
H666 C642 0.949 . S
H667 C644 0.950 . S
H668 C646 0.950 . S
C669 C670 1.349 . S
C669 C671 1.327 . S
C669 H694 0.950 . S
C670 C669 1.349 . S
C670 C686 1.349 . S
C671 C669 1.327 . S
C671 C690 1.429 . S
C671 H695 0.950 . S
C672 C689 1.574 . S
C672 C691 1.368 . S
C672 H696 0.949 . S
H673 C677 0.949 . S
C674 C675 1.349 . S
C674 C676 1.327 . S
C674 H697 0.950 . S
C675 C674 1.349 . S
C675 C687 1.349 . S
C676 C674 1.327 . S
C676 C692 1.429 . S
C676 H698 0.950 . S
C677 H673 0.949 . S
C677 C685 1.574 . S
C677 C693 1.368 . S
H678 C686 0.950 . S
H679 C684 0.950 . S
H680 C685 0.949 . S
H681 C687 0.950 . S
H682 C688 0.950 . S
H683 C689 0.949 . S
C684 H679 0.950 . S
C684 C686 1.327 . S
C684 C690 1.429 . S
C685 C677 1.574 . S
C685 H680 0.949 . S
C685 C691 1.368 . S
C686 C670 1.349 . S
C686 H678 0.950 . S
C686 C684 1.327 . S
C687 C675 1.349 . S
C687 H681 0.950 . S
C687 C688 1.327 . S
C688 H682 0.950 . S
C688 C687 1.327 . S
C688 C692 1.429 . S
C689 C672 1.574 . S
C689 H683 0.949 . S
C689 C693 1.368 . S
C690 C671 1.429 . S
C690 C684 1.429 . S
C690 C691 1.523 . S
C691 C672 1.368 . S
C691 C685 1.368 . S
C691 C690 1.523 . S
C692 C676 1.429 . S
C692 C688 1.429 . S
C692 C693 1.523 . S
C693 C677 1.368 . S
C693 C689 1.368 . S
C693 C692 1.523 . S
H694 C669 0.950 . S
H695 C671 0.950 . S
H696 C672 0.949 . S
H697 C674 0.950 . S
H698 C676 0.950 . S
C699 C700 1.349 . S
C699 C701 1.327 . S
C699 H724 0.950 . S
C700 C699 1.349 . S
C700 C716 1.349 . S
C701 C699 1.327 . S
C701 C720 1.429 . S
C701 H725 0.950 . S
C702 C719 1.574 . S
C702 C721 1.368 . S
C702 H726 0.949 . S
H703 C707 0.949 . S
C704 C705 1.349 . S
C704 C706 1.327 . S
C704 H727 0.950 . S
C705 C704 1.349 . S
C705 C717 1.349 . S
C706 C704 1.327 . S
C706 C722 1.429 . S
C706 H728 0.950 . S
C707 H703 0.949 . S
C707 C715 1.574 . S
C707 C723 1.368 . S
H708 C716 0.950 . S
H709 C714 0.950 . S
H710 C715 0.949 . S
H711 C717 0.950 . S
H712 C718 0.950 . S
H713 C719 0.949 . S
C714 H709 0.950 . S
C714 C716 1.327 . S
C714 C720 1.429 . S
C715 C707 1.574 . S
C715 H710 0.949 . S
C715 C721 1.368 . S
C716 C700 1.349 . S
C716 H708 0.950 . S
C716 C714 1.327 . S
C717 C705 1.349 . S
C717 H711 0.950 . S
C717 C718 1.327 . S
C718 H712 0.950 . S
C718 C717 1.327 . S
C718 C722 1.429 . S
C719 C702 1.574 . S
C719 H713 0.949 . S
C719 C723 1.368 . S
C720 C701 1.429 . S
C720 C714 1.429 . S
C720 C721 1.523 . S
C721 C702 1.368 . S
C721 C715 1.368 . S
C721 C720 1.523 . S
C722 C706 1.429 . S
C722 C718 1.429 . S
C722 C723 1.523 . S
C723 C707 1.368 . S
C723 C719 1.368 . S
C723 C722 1.523 . S
H724 C699 0.950 . S
H725 C701 0.950 . S
H726 C702 0.949 . S
H727 C704 0.950 . S
H728 C706 0.950 . S
C729 C730 1.349 . S
C729 C731 1.327 . S
C729 H754 0.950 . S
C730 C729 1.349 . S
C730 C746 1.349 . S
C731 C729 1.327 . S
C731 C750 1.429 . S
C731 H755 0.950 . S
C732 C749 1.574 . S
C732 C751 1.368 . S
C732 H756 0.949 . S
H733 C737 0.949 . S
C734 C735 1.349 . S
C734 C736 1.327 . S
C734 H757 0.950 . S
C735 C734 1.349 . S
C735 C747 1.349 . S
C736 C734 1.327 . S
C736 C752 1.429 . S
C736 H758 0.950 . S
C737 H733 0.949 . S
C737 C745 1.574 . S
C737 C753 1.368 . S
H738 C746 0.950 . S
H739 C744 0.950 . S
H740 C745 0.949 . S
H741 C747 0.950 . S
H742 C748 0.950 . S
H743 C749 0.949 . S
C744 H739 0.950 . S
C744 C746 1.327 . S
C744 C750 1.429 . S
C745 C737 1.574 . S
C745 H740 0.949 . S
C745 C751 1.368 . S
C746 C730 1.349 . S
C746 H738 0.950 . S
C746 C744 1.327 . S
C747 C735 1.349 . S
C747 H741 0.950 . S
C747 C748 1.327 . S
C748 H742 0.950 . S
C748 C747 1.327 . S
C748 C752 1.429 . S
C749 C732 1.574 . S
C749 H743 0.949 . S
C749 C753 1.368 . S
C750 C731 1.429 . S
C750 C744 1.429 . S
C750 C751 1.523 . S
C751 C732 1.368 . S
C751 C745 1.368 . S
C751 C750 1.523 . S
C752 C736 1.429 . S
C752 C748 1.429 . S
C752 C753 1.523 . S
C753 C737 1.368 . S
C753 C749 1.368 . S
C753 C752 1.523 . S
H754 C729 0.950 . S
H755 C731 0.950 . S
H756 C732 0.949 . S
H757 C734 0.950 . S
H758 C736 0.950 . S
C759 C760 1.349 1_554 S
C759 C761 1.327 1_554 S
C759 H784 0.950 . S
C760 C759 1.349 1_556 S
C760 C776 1.349 . S
C761 C759 1.327 1_556 S
C761 C780 1.429 . S
C761 H785 0.950 . S
C762 C779 1.574 . S
C762 C781 1.368 . S
C762 H786 0.949 . S
H763 C767 0.949 . S
C764 C765 1.349 . S
C764 C766 1.327 . S
C764 H787 0.950 . S
C765 C764 1.349 . S
C765 C777 1.349 . S
C766 C764 1.327 . S
C766 C782 1.429 . S
C766 H788 0.950 . S
C767 H763 0.949 . S
C767 C775 1.574 . S
C767 C783 1.368 . S
H768 C776 0.950 . S
H769 C774 0.950 . S
H770 C775 0.949 . S
H771 C777 0.950 . S
H772 C778 0.950 . S
H773 C779 0.949 . S
C774 H769 0.950 . S
C774 C776 1.327 . S
C774 C780 1.429 . S
C775 C767 1.574 . S
C775 H770 0.949 . S
C775 C781 1.368 . S
C776 C760 1.349 . S
C776 H768 0.950 . S
C776 C774 1.327 . S
C777 C765 1.349 . S
C777 H771 0.950 . S
C777 C778 1.327 . S
C778 H772 0.950 . S
C778 C777 1.327 . S
C778 C782 1.429 . S
C779 C762 1.574 . S
C779 H773 0.949 . S
C779 C783 1.368 . S
C780 C761 1.429 . S
C780 C774 1.429 . S
C780 C781 1.523 . S
C781 C762 1.368 . S
C781 C775 1.368 . S
C781 C780 1.523 . S
C782 C766 1.429 . S
C782 C778 1.429 . S
C782 C783 1.523 . S
C783 C767 1.368 . S
C783 C779 1.368 . S
C783 C782 1.523 . S
H784 C759 0.950 . S
H785 C761 0.950 . S
H786 C762 0.949 . S
H787 C764 0.950 . S
H788 C766 0.950 . S
C789 C790 1.349 . S
C789 C791 1.327 . S
C789 H814 0.950 . S
C790 C789 1.349 . S
C790 C806 1.349 . S
C791 C789 1.327 . S
C791 C810 1.429 . S
C791 H815 0.950 . S
C792 C809 1.574 . S
C792 C811 1.368 . S
C792 H816 0.949 . S
H793 C797 0.949 . S
C794 C795 1.349 . S
C794 C796 1.327 . S
C794 H817 0.950 1_556 S
C795 C794 1.349 . S
C795 C807 1.349 . S
C796 C794 1.327 . S
C796 C812 1.429 . S
C796 H818 0.950 . S
C797 H793 0.949 . S
C797 C805 1.574 . S
C797 C813 1.368 . S
H798 C806 0.950 . S
H799 C804 0.950 . S
H800 C805 0.949 . S
H801 C807 0.950 . S
H802 C808 0.950 . S
H803 C809 0.949 . S
C804 H799 0.950 . S
C804 C806 1.327 . S
C804 C810 1.429 . S
C805 C797 1.574 . S
C805 H800 0.949 . S
C805 C811 1.368 . S
C806 C790 1.349 . S
C806 H798 0.950 . S
C806 C804 1.327 . S
C807 C795 1.349 . S
C807 H801 0.950 . S
C807 C808 1.327 . S
C808 H802 0.950 . S
C808 C807 1.327 . S
C808 C812 1.429 . S
C809 C792 1.574 . S
C809 H803 0.949 . S
C809 C813 1.368 . S
C810 C791 1.429 . S
C810 C804 1.429 . S
C810 C811 1.523 . S
C811 C792 1.368 . S
C811 C805 1.368 . S
C811 C810 1.523 . S
C812 C796 1.429 . S
C812 C808 1.429 . S
C812 C813 1.523 . S
C813 C797 1.368 . S
C813 C809 1.368 . S
C813 C812 1.523 . S
H814 C789 0.950 . S
H815 C791 0.950 . S
H816 C792 0.949 . S
H817 C794 0.950 1_554 S
H818 C796 0.950 . S
C819 C820 1.349 1_545 S
C819 C821 1.327 . S
C819 H844 0.950 . S
C820 C819 1.349 1_565 S
C820 C836 1.349 . S
C821 C819 1.327 . S
C821 C840 1.429 . S
C821 H845 0.950 . S
C822 C839 1.574 . S
C822 C841 1.368 1_556 S
C822 H846 0.949 . S
H823 C827 0.949 . S
C824 C825 1.349 . S
C824 C826 1.327 . S
C824 H847 0.950 . S
C825 C824 1.349 . S
C825 C837 1.349 1_556 S
C826 C824 1.327 . S
C826 C842 1.429 1_556 S
C826 H848 0.950 . S
C827 H823 0.949 . S
C827 C835 1.574 . S
C827 C843 1.368 . S
H828 C836 0.950 . S
H829 C834 0.950 1_556 S
H830 C835 0.949 . S
H831 C837 0.950 . S
H832 C838 0.950 . S
H833 C839 0.949 . S
C834 H829 0.950 1_554 S
C834 C836 1.327 1_545 S
C834 C840 1.429 . S
C835 C827 1.574 . S
C835 H830 0.949 . S
C835 C841 1.368 . S
C836 C820 1.349 . S
C836 H828 0.950 . S
C836 C834 1.327 1_565 S
C837 C825 1.349 1_554 S
C837 H831 0.950 . S
C837 C838 1.327 . S
C838 H832 0.950 . S
C838 C837 1.327 . S
C838 C842 1.429 . S
C839 C822 1.574 . S
C839 H833 0.949 . S
C839 C843 1.368 1_556 S
C840 C821 1.429 . S
C840 C834 1.429 . S
C840 C841 1.523 . S
C841 C822 1.368 1_554 S
C841 C835 1.368 . S
C841 C840 1.523 . S
C842 C826 1.429 1_554 S
C842 C838 1.429 . S
C842 C843 1.523 . S
C843 C827 1.368 . S
C843 C839 1.368 1_554 S
C843 C842 1.523 . S
H844 C819 0.950 . S
H845 C821 0.950 . S
H846 C822 0.949 . S
H847 C824 0.950 . S
H848 C826 0.950 . S
C849 C850 1.349 1_655 S
C849 C851 1.327 . S
C849 H874 0.946 . S
C850 C849 1.349 1_455 S
C850 C866 1.349 . S
C851 C849 1.327 . S
C851 C870 1.429 . S
C851 H875 0.950 . S
C852 C869 1.574 . S
C852 C871 1.368 1_556 S
C852 H876 0.949 . S
H853 C857 0.949 . S
C854 C855 1.349 . S
C854 C856 1.327 . S
C854 H877 0.950 . S
C855 C854 1.349 . S
C855 C867 1.349 1_556 S
C856 C854 1.327 . S
C856 C872 1.429 1_566 S
C856 H878 0.950 . S
C857 H853 0.949 . S
C857 C865 1.574 . S
C857 C873 1.368 . S
H858 C866 0.950 1_556 S
H859 C864 0.950 1_556 S
H860 C865 0.949 . S
H861 C867 0.950 . S
H862 C868 0.950 1_545 S
H863 C869 0.949 . S
C864 H859 0.950 1_554 S
C864 C866 1.327 1_655 S
C864 C870 1.429 . S
C865 C857 1.574 . S
C865 H860 0.949 . S
C865 C871 1.368 . S
C866 C850 1.349 . S
C866 H858 0.950 1_554 S
C866 C864 1.327 1_455 S
C867 C855 1.349 1_554 S
C867 H861 0.950 . S
C867 C868 1.327 . S
C868 H862 0.950 1_565 S
C868 C867 1.327 . S
C868 C872 1.429 1_565 S
C869 C852 1.574 . S
C869 H863 0.949 . S
C869 C873 1.368 1_556 S
C870 C851 1.429 . S
C870 C864 1.429 . S
C870 C871 1.523 . S
C871 C852 1.368 1_554 S
C871 C865 1.368 . S
C871 C870 1.523 . S
C872 C856 1.429 1_544 S
C872 C868 1.429 1_545 S
C872 C873 1.523 . S
C873 C857 1.368 . S
C873 C869 1.368 1_554 S
C873 C872 1.523 . S
H874 C849 0.946 . S
H875 C851 0.950 . S
H876 C852 0.949 . S
H877 C854 0.950 . S
H878 C856 0.950 . S
C879 C880 1.349 . S
C879 C881 1.327 . S
C879 H904 0.950 . S
C880 C879 1.349 . S
C880 C896 1.349 . S
C881 C879 1.327 . S
C881 C900 1.429 . S
C881 H905 0.950 . S
C882 C899 1.574 . S
C882 C901 1.368 1_556 S
C882 H906 0.949 . S
H883 C887 0.949 . S
C884 C885 1.349 . S
C884 C886 1.327 . S
C884 H907 0.950 . S
C885 C884 1.349 . S
C885 C897 1.349 1_556 S
C886 C884 1.327 . S
C886 C902 1.429 1_456 S
C886 H908 0.950 1_455 S
C887 H883 0.949 . S
C887 C895 1.574 . S
C887 C903 1.368 . S
H888 C896 0.950 1_556 S
H889 C894 0.950 1_556 S
H890 C895 0.949 . S
H891 C897 0.950 . S
H892 C898 0.950 . S
H893 C899 0.949 . S
C894 H889 0.950 1_554 S
C894 C896 1.327 . S
C894 C900 1.429 . S
C895 C887 1.574 . S
C895 H890 0.949 . S
C895 C901 1.368 . S
C896 C880 1.349 . S
C896 H888 0.950 1_554 S
C896 C894 1.327 . S
C897 C885 1.349 1_554 S
C897 H891 0.950 . S
C897 C898 1.327 . S
C898 H892 0.950 . S
C898 C897 1.327 . S
C898 C902 1.429 1_455 S
C899 C882 1.574 . S
C899 H893 0.949 . S
C899 C903 1.368 1_556 S
C900 C881 1.429 . S
C900 C894 1.429 . S
C900 C901 1.523 . S
C901 C882 1.368 1_554 S
C901 C895 1.368 . S
C901 C900 1.523 . S
C902 C886 1.429 1_654 S
C902 C898 1.429 1_655 S
C902 C903 1.523 . S
C903 C887 1.368 . S
C903 C899 1.368 1_554 S
C903 C902 1.523 . S
H904 C879 0.950 . S
H905 C881 0.950 . S
H906 C882 0.949 . S
H907 C884 0.950 . S
H908 C886 0.950 1_655 S
C909 C910 1.349 . S
C909 C911 1.327 . S
C909 H934 0.950 . S
C910 C909 1.349 . S
C910 C926 1.349 . S
C911 C909 1.327 . S
C911 C930 1.429 . S
C911 H935 0.950 . S
C912 C929 1.574 . S
C912 C931 1.368 . S
C912 H936 0.949 . S
H913 C917 0.949 . S
C914 C915 1.349 . S
C914 C916 1.327 . S
C914 H937 0.950 . S
C915 C914 1.349 . S
C915 C927 1.349 . S
C916 C914 1.327 . S
C916 C932 1.429 . S
C916 H938 0.950 . S
C917 H913 0.949 . S
C917 C925 1.574 . S
C917 C933 1.368 . S
H918 C926 0.950 . S
H919 C924 0.950 . S
H920 C925 0.949 . S
H921 C927 0.950 . S
H922 C928 0.950 . S
H923 C929 0.949 . S
C924 H919 0.950 . S
C924 C926 1.327 . S
C924 C930 1.429 . S
C925 C917 1.574 . S
C925 H920 0.949 . S
C925 C931 1.368 . S
C926 C910 1.349 . S
C926 H918 0.950 . S
C926 C924 1.327 . S
C927 C915 1.349 . S
C927 H921 0.950 . S
C927 C928 1.327 . S
C928 H922 0.950 . S
C928 C927 1.327 . S
C928 C932 1.429 . S
C929 C912 1.574 . S
C929 H923 0.949 . S
C929 C933 1.368 . S
C930 C911 1.429 . S
C930 C924 1.429 . S
C930 C931 1.523 . S
C931 C912 1.368 . S
C931 C925 1.368 . S
C931 C930 1.523 . S
C932 C916 1.429 . S
C932 C928 1.429 . S
C932 C933 1.523 . S
C933 C917 1.368 . S
C933 C929 1.368 . S
C933 C932 1.523 . S
H934 C909 0.950 . S
H935 C911 0.950 . S
H936 C912 0.949 . S
H937 C914 0.950 . S
H938 C916 0.950 . S
C939 C940 1.349 . S
C939 C941 1.327 . S
C939 H964 0.950 . S
C940 C939 1.349 . S
C940 C956 1.349 . S
C941 C939 1.327 . S
C941 C960 1.429 . S
C941 H965 0.950 . S
C942 C959 1.574 . S
C942 C961 1.368 . S
C942 H966 0.949 . S
H943 C947 0.949 . S
C944 C945 1.349 . S
C944 C946 1.327 . S
C944 H967 0.950 . S
C945 C944 1.349 . S
C945 C957 1.349 . S
C946 C944 1.327 . S
C946 C962 1.429 . S
C946 H968 0.950 . S
C947 H943 0.949 . S
C947 C955 1.574 . S
C947 C963 1.368 . S
H948 C956 0.950 . S
H949 C954 0.950 . S
H950 C955 0.949 . S
H951 C957 0.950 . S
H952 C958 0.950 . S
H953 C959 0.949 . S
C954 H949 0.950 . S
C954 C956 1.327 . S
C954 C960 1.429 . S
C955 C947 1.574 . S
C955 H950 0.949 . S
C955 C961 1.368 . S
C956 C940 1.349 . S
C956 H948 0.950 . S
C956 C954 1.327 . S
C957 C945 1.349 . S
C957 H951 0.950 . S
C957 C958 1.327 . S
C958 H952 0.950 . S
C958 C957 1.327 . S
C958 C962 1.429 . S
C959 C942 1.574 . S
C959 H953 0.949 . S
C959 C963 1.368 . S
C960 C941 1.429 . S
C960 C954 1.429 . S
C960 C961 1.523 . S
C961 C942 1.368 . S
C961 C955 1.368 . S
C961 C960 1.523 . S
C962 C946 1.429 . S
C962 C958 1.429 . S
C962 C963 1.523 . S
C963 C947 1.368 . S
C963 C959 1.368 . S
C963 C962 1.523 . S
H964 C939 0.950 . S
H965 C941 0.950 . S
H966 C942 0.949 . S
H967 C944 0.950 . S
H968 C946 0.950 . S
C969 C970 1.349 . S
C969 C971 1.327 . S
C969 H994 0.950 . S
C970 C969 1.349 . S
C970 C986 1.349 . S
C971 C969 1.327 . S
C971 C990 1.429 . S
C971 H995 0.950 . S
C972 C989 1.574 . S
C972 C991 1.368 . S
C972 H996 0.949 . S
H973 C977 0.949 . S
C974 C975 1.349 . S
C974 C976 1.327 . S
C974 H997 0.950 . S
C975 C974 1.349 . S
C975 C987 1.349 . S
C976 C974 1.327 . S
C976 C992 1.429 . S
C976 H998 0.950 . S
C977 H973 0.949 . S
C977 C985 1.574 . S
C977 C993 1.368 . S
H978 C986 0.950 . S
H979 C984 0.950 . S
H980 C985 0.949 . S
H981 C987 0.950 . S
H982 C988 0.950 . S
H983 C989 0.949 . S
C984 H979 0.950 . S
C984 C986 1.327 . S
C984 C990 1.429 . S
C985 C977 1.574 . S
C985 H980 0.949 . S
C985 C991 1.368 . S
C986 C970 1.349 . S
C986 H978 0.950 . S
C986 C984 1.327 . S
C987 C975 1.349 . S
C987 H981 0.950 . S
C987 C988 1.327 . S
C988 H982 0.950 . S
C988 C987 1.327 . S
C988 C992 1.429 . S
C989 C972 1.574 . S
C989 H983 0.949 . S
C989 C993 1.368 . S
C990 C971 1.429 . S
C990 C984 1.429 . S
C990 C991 1.523 . S
C991 C972 1.368 . S
C991 C985 1.368 . S
C991 C990 1.523 . S
C992 C976 1.429 . S
C992 C988 1.429 . S
C992 C993 1.523 . S
C993 C977 1.368 . S
C993 C989 1.368 . S
C993 C992 1.523 . S
H994 C969 0.950 . S
H995 C971 0.950 . S
H996 C972 0.949 . S
H997 C974 0.950 . S
H998 C976 0.950 . S
C999 C1000 1.349 . S
C999 C1001 1.327 . S
C999 H1024 0.950 . S
C1000 C999 1.349 . S
C1000 C1016 1.349 . S
C1001 C999 1.327 . S
C1001 C1020 1.429 . S
C1001 H1025 0.950 . S
C1002 C1019 1.574 . S
C1002 C1021 1.368 . S
C1002 H1026 0.949 . S
H1003 C1007 0.949 . S
C1004 C1005 1.349 . S
C1004 C1006 1.327 . S
C1004 H1027 0.950 . S
C1005 C1004 1.349 . S
C1005 C1017 1.349 . S
C1006 C1004 1.327 . S
C1006 C1022 1.429 . S
C1006 H1028 0.950 . S
C1007 H1003 0.949 . S
C1007 C1015 1.574 . S
C1007 C1023 1.368 . S
H1008 C1016 0.950 . S
H1009 C1014 0.950 . S
H1010 C1015 0.949 . S
H1011 C1017 0.950 . S
H1012 C1018 0.950 . S
H1013 C1019 0.949 . S
C1014 H1009 0.950 . S
C1014 C1016 1.327 . S
C1014 C1020 1.429 . S
C1015 C1007 1.574 . S
C1015 H1010 0.949 . S
C1015 C1021 1.368 . S
C1016 C1000 1.349 . S
C1016 H1008 0.950 . S
C1016 C1014 1.327 . S
C1017 C1005 1.349 . S
C1017 H1011 0.950 . S
C1017 C1018 1.327 . S
C1018 H1012 0.950 . S
C1018 C1017 1.327 . S
C1018 C1022 1.429 . S
C1019 C1002 1.574 . S
C1019 H1013 0.949 . S
C1019 C1023 1.368 . S
C1020 C1001 1.429 . S
C1020 C1014 1.429 . S
C1020 C1021 1.523 . S
C1021 C1002 1.368 . S
C1021 C1015 1.368 . S
C1021 C1020 1.523 . S
C1022 C1006 1.429 . S
C1022 C1018 1.429 . S
C1022 C1023 1.523 . S
C1023 C1007 1.368 . S
C1023 C1019 1.368 . S
C1023 C1022 1.523 . S
H1024 C999 0.950 . S
H1025 C1001 0.950 . S
H1026 C1002 0.949 . S
H1027 C1004 0.950 . S
H1028 C1006 0.950 . S
C1029 C1030 1.349 . S
C1029 C1031 1.327 . S
C1029 H1054 0.950 . S
C1030 C1029 1.349 . S
C1030 C1046 1.349 . S
C1031 C1029 1.327 . S
C1031 C1050 1.429 . S
C1031 H1055 0.950 . S
C1032 C1049 1.574 . S
C1032 C1051 1.368 . S
C1032 H1056 0.949 . S
H1033 C1037 0.949 . S
C1034 C1035 1.349 . S
C1034 C1036 1.327 . S
C1034 H1057 0.950 . S
C1035 C1034 1.349 . S
C1035 C1047 1.349 . S
C1036 C1034 1.327 . S
C1036 C1052 1.429 . S
C1036 H1058 0.950 . S
C1037 H1033 0.949 . S
C1037 C1045 1.574 . S
C1037 C1053 1.368 . S
H1038 C1046 0.950 . S
H1039 C1044 0.950 . S
H1040 C1045 0.949 . S
H1041 C1047 0.950 . S
H1042 C1048 0.950 . S
H1043 C1049 0.949 . S
C1044 H1039 0.950 . S
C1044 C1046 1.327 . S
C1044 C1050 1.429 . S
C1045 C1037 1.574 . S
C1045 H1040 0.949 . S
C1045 C1051 1.368 . S
C1046 C1030 1.349 . S
C1046 H1038 0.950 . S
C1046 C1044 1.327 . S
C1047 C1035 1.349 . S
C1047 H1041 0.950 . S
C1047 C1048 1.327 . S
C1048 H1042 0.950 . S
C1048 C1047 1.327 . S
C1048 C1052 1.429 . S
C1049 C1032 1.574 . S
C1049 H1043 0.949 . S
C1049 C1053 1.368 . S
C1050 C1031 1.429 . S
C1050 C1044 1.429 . S
C1050 C1051 1.523 . S
C1051 C1032 1.368 . S
C1051 C1045 1.368 . S
C1051 C1050 1.523 . S
C1052 C1036 1.429 . S
C1052 C1048 1.429 . S
C1052 C1053 1.523 . S
C1053 C1037 1.368 . S
C1053 C1049 1.368 . S
C1053 C1052 1.523 . S
H1054 C1029 0.950 . S
H1055 C1031 0.950 . S
H1056 C1032 0.949 . S
H1057 C1034 0.950 . S
H1058 C1036 0.950 . S
C1059 C1060 1.349 . S
C1059 C1061 1.327 . S
C1059 H1084 0.950 . S
C1060 C1059 1.349 . S
C1060 C1076 1.349 . S
C1061 C1059 1.327 . S
C1061 C1080 1.429 . S
C1061 H1085 0.950 . S
C1062 C1079 1.574 . S
C1062 C1081 1.368 . S
C1062 H1086 0.949 . S
H1063 C1067 0.949 . S
C1064 C1065 1.349 . S
C1064 C1066 1.327 . S
C1064 H1087 0.950 . S
C1065 C1064 1.349 . S
C1065 C1077 1.349 . S
C1066 C1064 1.327 . S
C1066 C1082 1.429 . S
C1066 H1088 0.950 . S
C1067 H1063 0.949 . S
C1067 C1075 1.574 . S
C1067 C1083 1.368 . S
H1068 C1076 0.950 . S
H1069 C1074 0.950 . S
H1070 C1075 0.949 . S
H1071 C1077 0.950 . S
H1072 C1078 0.950 . S
H1073 C1079 0.949 . S
C1074 H1069 0.950 . S
C1074 C1076 1.327 . S
C1074 C1080 1.429 . S
C1075 C1067 1.574 . S
C1075 H1070 0.949 . S
C1075 C1081 1.368 . S
C1076 C1060 1.349 . S
C1076 H1068 0.950 . S
C1076 C1074 1.327 . S
C1077 C1065 1.349 . S
C1077 H1071 0.950 . S
C1077 C1078 1.327 . S
C1078 H1072 0.950 . S
C1078 C1077 1.327 . S
C1078 C1082 1.429 . S
C1079 C1062 1.574 . S
C1079 H1073 0.949 . S
C1079 C1083 1.368 . S
C1080 C1061 1.429 . S
C1080 C1074 1.429 . S
C1080 C1081 1.523 . S
C1081 C1062 1.368 . S
C1081 C1075 1.368 . S
C1081 C1080 1.523 . S
C1082 C1066 1.429 . S
C1082 C1078 1.429 . S
C1082 C1083 1.523 . S
C1083 C1067 1.368 . S
C1083 C1079 1.368 . S
C1083 C1082 1.523 . S
H1084 C1059 0.950 . S
H1085 C1061 0.950 . S
H1086 C1062 0.949 . S
H1087 C1064 0.950 . S
H1088 C1066 0.950 . S
C1089 C1090 1.349 . S
C1089 C1091 1.327 . S
C1089 H1114 0.950 . S
C1090 C1089 1.349 . S
C1090 C1106 1.349 . S
C1091 C1089 1.327 . S
C1091 C1110 1.429 . S
C1091 H1115 0.950 . S
C1092 C1109 1.574 . S
C1092 C1111 1.368 . S
C1092 H1116 0.949 . S
H1093 C1097 0.949 . S
C1094 C1095 1.349 . S
C1094 C1096 1.327 . S
C1094 H1117 0.950 . S
C1095 C1094 1.349 . S
C1095 C1107 1.349 . S
C1096 C1094 1.327 . S
C1096 C1112 1.429 . S
C1096 H1118 0.950 . S
C1097 H1093 0.949 . S
C1097 C1105 1.574 . S
C1097 C1113 1.368 . S
H1098 C1106 0.950 . S
H1099 C1104 0.950 . S
H1100 C1105 0.949 . S
H1101 C1107 0.950 . S
H1102 C1108 0.950 . S
H1103 C1109 0.949 . S
C1104 H1099 0.950 . S
C1104 C1106 1.327 . S
C1104 C1110 1.429 . S
C1105 C1097 1.574 . S
C1105 H1100 0.949 . S
C1105 C1111 1.368 . S
C1106 C1090 1.349 . S
C1106 H1098 0.950 . S
C1106 C1104 1.327 . S
C1107 C1095 1.349 . S
C1107 H1101 0.950 . S
C1107 C1108 1.327 . S
C1108 H1102 0.950 . S
C1108 C1107 1.327 . S
C1108 C1112 1.429 . S
C1109 C1092 1.574 . S
C1109 H1103 0.949 . S
C1109 C1113 1.368 . S
C1110 C1091 1.429 . S
C1110 C1104 1.429 . S
C1110 C1111 1.523 . S
C1111 C1092 1.368 . S
C1111 C1105 1.368 . S
C1111 C1110 1.523 . S
C1112 C1096 1.429 . S
C1112 C1108 1.429 . S
C1112 C1113 1.523 . S
C1113 C1097 1.368 . S
C1113 C1109 1.368 . S
C1113 C1112 1.523 . S
H1114 C1089 0.950 . S
H1115 C1091 0.950 . S
H1116 C1092 0.949 . S
H1117 C1094 0.950 . S
H1118 C1096 0.950 . S
C1119 C1120 1.349 . S
C1119 C1121 1.327 . S
C1119 H1144 0.950 . S
C1120 C1119 1.349 . S
C1120 C1136 1.349 . S
C1121 C1119 1.327 . S
C1121 C1140 1.429 . S
C1121 H1145 0.950 . S
C1122 C1139 1.574 . S
C1122 C1141 1.368 . S
C1122 H1146 0.949 . S
H1123 C1127 0.949 . S
C1124 C1125 1.349 . S
C1124 C1126 1.327 . S
C1124 H1147 0.950 . S
C1125 C1124 1.349 . S
C1125 C1137 1.349 . S
C1126 C1124 1.327 . S
C1126 C1142 1.429 . S
C1126 H1148 0.950 . S
C1127 H1123 0.949 . S
C1127 C1135 1.574 . S
C1127 C1143 1.368 . S
H1128 C1136 0.950 . S
H1129 C1134 0.950 . S
H1130 C1135 0.949 . S
H1131 C1137 0.950 . S
H1132 C1138 0.950 . S
H1133 C1139 0.949 . S
C1134 H1129 0.950 . S
C1134 C1136 1.327 . S
C1134 C1140 1.429 . S
C1135 C1127 1.574 . S
C1135 H1130 0.949 . S
C1135 C1141 1.368 . S
C1136 C1120 1.349 . S
C1136 H1128 0.950 . S
C1136 C1134 1.327 . S
C1137 C1125 1.349 . S
C1137 H1131 0.950 . S
C1137 C1138 1.327 . S
C1138 H1132 0.950 . S
C1138 C1137 1.327 . S
C1138 C1142 1.429 . S
C1139 C1122 1.574 . S
C1139 H1133 0.949 . S
C1139 C1143 1.368 . S
C1140 C1121 1.429 . S
C1140 C1134 1.429 . S
C1140 C1141 1.523 . S
C1141 C1122 1.368 . S
C1141 C1135 1.368 . S
C1141 C1140 1.523 . S
C1142 C1126 1.429 . S
C1142 C1138 1.429 . S
C1142 C1143 1.523 . S
C1143 C1127 1.368 . S
C1143 C1139 1.368 . S
C1143 C1142 1.523 . S
H1144 C1119 0.950 . S
H1145 C1121 0.950 . S
H1146 C1122 0.949 . S
H1147 C1124 0.950 . S
H1148 C1126 0.950 . S
C1149 C1150 1.349 . S
C1149 C1151 1.327 . S
C1149 H1174 0.950 . S
C1150 C1149 1.349 . S
C1150 C1166 1.349 . S
C1151 C1149 1.327 . S
C1151 C1170 1.429 . S
C1151 H1175 0.950 . S
C1152 C1169 1.574 . S
C1152 C1171 1.368 . S
C1152 H1176 0.949 . S
H1153 C1157 0.949 . S
C1154 C1155 1.349 . S
C1154 C1156 1.327 . S
C1154 H1177 0.950 . S
C1155 C1154 1.349 . S
C1155 C1167 1.349 . S
C1156 C1154 1.327 . S
C1156 C1172 1.429 . S
C1156 H1178 0.950 . S
C1157 H1153 0.949 . S
C1157 C1165 1.574 . S
C1157 C1173 1.368 . S
H1158 C1166 0.950 . S
H1159 C1164 0.950 . S
H1160 C1165 0.949 . S
H1161 C1167 0.950 . S
H1162 C1168 0.950 . S
H1163 C1169 0.949 . S
C1164 H1159 0.950 . S
C1164 C1166 1.327 . S
C1164 C1170 1.429 . S
C1165 C1157 1.574 . S
C1165 H1160 0.949 . S
C1165 C1171 1.368 . S
C1166 C1150 1.349 . S
C1166 H1158 0.950 . S
C1166 C1164 1.327 . S
C1167 C1155 1.349 . S
C1167 H1161 0.950 . S
C1167 C1168 1.327 . S
C1168 H1162 0.950 . S
C1168 C1167 1.327 . S
C1168 C1172 1.429 . S
C1169 C1152 1.574 . S
C1169 H1163 0.949 . S
C1169 C1173 1.368 . S
C1170 C1151 1.429 . S
C1170 C1164 1.429 . S
C1170 C1171 1.523 . S
C1171 C1152 1.368 . S
C1171 C1165 1.368 . S
C1171 C1170 1.523 . S
C1172 C1156 1.429 . S
C1172 C1168 1.429 . S
C1172 C1173 1.523 . S
C1173 C1157 1.368 . S
C1173 C1169 1.368 . S
C1173 C1172 1.523 . S
H1174 C1149 0.950 . S
H1175 C1151 0.950 . S
H1176 C1152 0.949 . S
H1177 C1154 0.950 . S
H1178 C1156 0.950 . S
C1179 C1180 1.349 . S
C1179 C1181 1.327 . S
C1179 H1204 0.950 . S
C1180 C1179 1.349 . S
C1180 C1196 1.349 . S
C1181 C1179 1.327 . S
C1181 C1200 1.429 . S
C1181 H1205 0.950 . S
C1182 C1199 1.574 . S
C1182 C1201 1.368 . S
C1182 H1206 0.949 . S
H1183 C1187 0.949 . S
C1184 C1185 1.349 . S
C1184 C1186 1.327 . S
C1184 H1207 0.950 . S
C1185 C1184 1.349 . S
C1185 C1197 1.349 . S
C1186 C1184 1.327 . S
C1186 C1202 1.429 1_554 S
C1186 H1208 0.950 . S
C1187 H1183 0.949 . S
C1187 C1195 1.574 . S
C1187 C1203 1.368 . S
H1188 C1196 0.950 . S
H1189 C1194 0.950 . S
H1190 C1195 0.949 . S
H1191 C1197 0.950 . S
H1192 C1198 0.950 . S
H1193 C1199 0.949 . S
C1194 H1189 0.950 . S
C1194 C1196 1.327 . S
C1194 C1200 1.429 . S
C1195 C1187 1.574 . S
C1195 H1190 0.949 . S
C1195 C1201 1.368 . S
C1196 C1180 1.349 . S
C1196 H1188 0.950 . S
C1196 C1194 1.327 . S
C1197 C1185 1.349 . S
C1197 H1191 0.950 . S
C1197 C1198 1.327 . S
C1198 H1192 0.950 . S
C1198 C1197 1.327 . S
C1198 C1202 1.429 1_554 S
C1199 C1182 1.574 . S
C1199 H1193 0.949 . S
C1199 C1203 1.368 . S
C1200 C1181 1.429 . S
C1200 C1194 1.429 . S
C1200 C1201 1.523 . S
C1201 C1182 1.368 . S
C1201 C1195 1.368 . S
C1201 C1200 1.523 . S
C1202 C1186 1.429 1_556 S
C1202 C1198 1.429 1_556 S
C1202 C1203 1.523 . S
C1203 C1187 1.368 . S
C1203 C1199 1.368 . S
C1203 C1202 1.523 . S
H1204 C1179 0.950 . S
H1205 C1181 0.950 . S
H1206 C1182 0.949 . S
H1207 C1184 0.950 . S
H1208 C1186 0.950 . S
C1209 C1210 1.349 . S
C1209 C1211 1.327 . S
C1209 H1234 0.950 . S
C1210 C1209 1.349 . S
C1210 C1226 1.349 . S
C1211 C1209 1.327 . S
C1211 C1230 1.429 1_554 S
C1211 H1235 0.950 . S
C1212 C1229 1.574 . S
C1212 C1231 1.368 . S
C1212 H1236 0.949 . S
H1213 C1217 0.949 . S
C1214 C1215 1.349 . S
C1214 C1216 1.327 . S
C1214 H1237 0.950 . S
C1215 C1214 1.349 . S
C1215 C1227 1.349 . S
C1216 C1214 1.327 . S
C1216 C1232 1.429 . S
C1216 H1238 0.950 . S
C1217 H1213 0.949 . S
C1217 C1225 1.574 . S
C1217 C1233 1.368 . S
H1218 C1226 0.950 . S
H1219 C1224 0.950 . S
H1220 C1225 0.949 . S
H1221 C1227 0.950 . S
H1222 C1228 0.950 . S
H1223 C1229 0.949 . S
C1224 H1219 0.950 . S
C1224 C1226 1.327 . S
C1224 C1230 1.429 1_554 S
C1225 C1217 1.574 . S
C1225 H1220 0.949 . S
C1225 C1231 1.368 . S
C1226 C1210 1.349 . S
C1226 H1218 0.950 . S
C1226 C1224 1.327 . S
C1227 C1215 1.349 . S
C1227 H1221 0.950 . S
C1227 C1228 1.327 . S
C1228 H1222 0.950 . S
C1228 C1227 1.327 . S
C1228 C1232 1.429 . S
C1229 C1212 1.574 . S
C1229 H1223 0.949 . S
C1229 C1233 1.368 . S
C1230 C1211 1.429 1_556 S
C1230 C1224 1.429 1_556 S
C1230 C1231 1.523 . S
C1231 C1212 1.368 . S
C1231 C1225 1.368 . S
C1231 C1230 1.523 . S
C1232 C1216 1.429 . S
C1232 C1228 1.429 . S
C1232 C1233 1.523 . S
C1233 C1217 1.368 . S
C1233 C1229 1.368 . S
C1233 C1232 1.523 . S
H1234 C1209 0.950 . S
H1235 C1211 0.950 . S
H1236 C1212 0.949 . S
H1237 C1214 0.950 . S
H1238 C1216 0.950 . S
C1239 C1240 1.349 . S
C1239 C1241 1.327 . S
C1239 H1264 0.950 . S
C1240 C1239 1.349 . S
C1240 C1256 1.349 . S
C1241 C1239 1.327 . S
C1241 C1260 1.429 . S
C1241 H1265 0.950 . S
C1242 C1259 1.574 . S
C1242 C1261 1.368 . S
C1242 H1266 0.949 . S
H1243 C1247 0.949 . S
C1244 C1245 1.349 . S
C1244 C1246 1.327 . S
C1244 H1267 0.950 . S
C1245 C1244 1.349 . S
C1245 C1257 1.349 . S
C1246 C1244 1.327 . S
C1246 C1262 1.429 1_554 S
C1246 H1268 0.950 . S
C1247 H1243 0.949 . S
C1247 C1255 1.574 . S
C1247 C1263 1.368 . S
H1248 C1256 0.950 . S
H1249 C1254 0.950 . S
H1250 C1255 0.949 . S
H1251 C1257 0.950 . S
H1252 C1258 0.950 . S
H1253 C1259 0.949 . S
C1254 H1249 0.950 . S
C1254 C1256 1.327 . S
C1254 C1260 1.429 . S
C1255 C1247 1.574 . S
C1255 H1250 0.949 . S
C1255 C1261 1.368 . S
C1256 C1240 1.349 . S
C1256 H1248 0.950 . S
C1256 C1254 1.327 . S
C1257 C1245 1.349 . S
C1257 H1251 0.950 . S
C1257 C1258 1.327 . S
C1258 H1252 0.950 . S
C1258 C1257 1.327 . S
C1258 C1262 1.429 1_554 S
C1259 C1242 1.574 . S
C1259 H1253 0.949 . S
C1259 C1263 1.368 . S
C1260 C1241 1.429 . S
C1260 C1254 1.429 . S
C1260 C1261 1.523 . S
C1261 C1242 1.368 . S
C1261 C1255 1.368 . S
C1261 C1260 1.523 . S
C1262 C1246 1.429 1_556 S
C1262 C1258 1.429 1_556 S
C1262 C1263 1.523 . S
C1263 C1247 1.368 . S
C1263 C1259 1.368 . S
C1263 C1262 1.523 . S
H1264 C1239 0.950 . S
H1265 C1241 0.950 . S
H1266 C1242 0.949 . S
H1267 C1244 0.950 . S
H1268 C1246 0.950 . S
C1269 C1270 1.349 . S
C1269 C1271 1.327 . S
C1269 H1294 0.950 . S
C1270 C1269 1.349 . S
C1270 C1286 1.349 . S
C1271 C1269 1.327 . S
C1271 C1290 1.429 . S
C1271 H1295 0.950 . S
C1272 C1289 1.574 . S
C1272 C1291 1.368 . S
C1272 H1296 0.949 . S
H1273 C1277 0.949 . S
C1274 C1275 1.349 . S
C1274 C1276 1.327 . S
C1274 H1297 0.950 . S
C1275 C1274 1.349 . S
C1275 C1287 1.349 . S
C1276 C1274 1.327 . S
C1276 C1292 1.429 1_556 S
C1276 H1298 0.950 . S
C1277 H1273 0.949 . S
C1277 C1285 1.574 . S
C1277 C1293 1.368 . S
H1278 C1286 0.950 . S
H1279 C1284 0.950 . S
H1280 C1285 0.949 . S
H1281 C1287 0.950 . S
H1282 C1288 0.950 . S
H1283 C1289 0.949 . S
C1284 H1279 0.950 . S
C1284 C1286 1.327 . S
C1284 C1290 1.429 . S
C1285 C1277 1.574 . S
C1285 H1280 0.949 . S
C1285 C1291 1.368 . S
C1286 C1270 1.349 . S
C1286 H1278 0.950 . S
C1286 C1284 1.327 . S
C1287 C1275 1.349 . S
C1287 H1281 0.950 . S
C1287 C1288 1.327 . S
C1288 H1282 0.950 . S
C1288 C1287 1.327 . S
C1288 C1292 1.429 1_556 S
C1289 C1272 1.574 . S
C1289 H1283 0.949 . S
C1289 C1293 1.368 . S
C1290 C1271 1.429 . S
C1290 C1284 1.429 . S
C1290 C1291 1.523 . S
C1291 C1272 1.368 . S
C1291 C1285 1.368 . S
C1291 C1290 1.523 . S
C1292 C1276 1.429 1_554 S
C1292 C1288 1.429 1_554 S
C1292 C1293 1.523 . S
C1293 C1277 1.368 . S
C1293 C1289 1.368 . S
C1293 C1292 1.523 . S
H1294 C1269 0.950 . S
H1295 C1271 0.950 . S
H1296 C1272 0.949 . S
H1297 C1274 0.950 . S
H1298 C1276 0.950 . S
C1299 C1300 1.349 . S
C1299 C1301 1.327 . S
C1299 H1324 0.950 . S
C1300 C1299 1.349 . S
C1300 C1316 1.349 . S
C1301 C1299 1.327 . S
C1301 C1320 1.429 . S
C1301 H1325 0.950 . S
C1302 C1319 1.574 . S
C1302 C1321 1.368 . S
C1302 H1326 0.949 . S
H1303 C1307 0.949 . S
C1304 C1305 1.349 . S
C1304 C1306 1.327 . S
C1304 H1327 0.950 . S
C1305 C1304 1.349 . S
C1305 C1317 1.349 . S
C1306 C1304 1.327 . S
C1306 C1322 1.429 1_556 S
C1306 H1328 0.950 1_556 S
C1307 H1303 0.949 . S
C1307 C1315 1.574 . S
C1307 C1323 1.368 . S
H1308 C1316 0.950 . S
H1309 C1314 0.950 . S
H1310 C1315 0.949 . S
H1311 C1317 0.950 . S
H1312 C1318 0.950 . S
H1313 C1319 0.949 . S
C1314 H1309 0.950 . S
C1314 C1316 1.327 . S
C1314 C1320 1.429 . S
C1315 C1307 1.574 . S
C1315 H1310 0.949 . S
C1315 C1321 1.368 . S
C1316 C1300 1.349 . S
C1316 H1308 0.950 . S
C1316 C1314 1.327 . S
C1317 C1305 1.349 . S
C1317 H1311 0.950 . S
C1317 C1318 1.327 . S
C1318 H1312 0.950 . S
C1318 C1317 1.327 . S
C1318 C1322 1.429 1_556 S
C1319 C1302 1.574 . S
C1319 H1313 0.949 . S
C1319 C1323 1.368 . S
C1320 C1301 1.429 . S
C1320 C1314 1.429 . S
C1320 C1321 1.523 . S
C1321 C1302 1.368 . S
C1321 C1315 1.368 . S
C1321 C1320 1.523 . S
C1322 C1306 1.429 1_554 S
C1322 C1318 1.429 1_554 S
C1322 C1323 1.523 . S
C1323 C1307 1.368 . S
C1323 C1319 1.368 . S
C1323 C1322 1.523 . S
H1324 C1299 0.950 . S
H1325 C1301 0.950 . S
H1326 C1302 0.949 . S
H1327 C1304 0.950 . S
H1328 C1306 0.950 1_554 S
C1329 C1330 1.349 . S
C1329 C1331 1.327 . S
C1329 H1354 0.950 . S
C1330 C1329 1.349 . S
C1330 C1346 1.349 . S
C1331 C1329 1.327 . S
C1331 C1350 1.429 . S
C1331 H1355 0.950 . S
C1332 C1349 1.574 . S
C1332 C1351 1.368 . S
C1332 H1356 0.949 . S
H1333 C1337 0.949 . S
C1334 C1335 1.349 . S
C1334 C1336 1.327 . S
C1334 H1357 0.950 . S
C1335 C1334 1.349 . S
C1335 C1347 1.349 . S
C1336 C1334 1.327 . S
C1336 C1352 1.429 1_556 S
C1336 H1358 0.950 . S
C1337 H1333 0.949 . S
C1337 C1345 1.574 . S
C1337 C1353 1.368 . S
H1338 C1346 0.950 . S
H1339 C1344 0.950 . S
H1340 C1345 0.949 . S
H1341 C1347 0.950 . S
H1342 C1348 0.950 1_554 S
H1343 C1349 0.949 . S
C1344 H1339 0.950 . S
C1344 C1346 1.327 . S
C1344 C1350 1.429 . S
C1345 C1337 1.574 . S
C1345 H1340 0.949 . S
C1345 C1351 1.368 . S
C1346 C1330 1.349 . S
C1346 H1338 0.950 . S
C1346 C1344 1.327 . S
C1347 C1335 1.349 . S
C1347 H1341 0.950 . S
C1347 C1348 1.327 . S
C1348 H1342 0.950 1_556 S
C1348 C1347 1.327 . S
C1348 C1352 1.429 1_556 S
C1349 C1332 1.574 . S
C1349 H1343 0.949 . S
C1349 C1353 1.368 . S
C1350 C1331 1.429 . S
C1350 C1344 1.429 . S
C1350 C1351 1.523 . S
C1351 C1332 1.368 . S
C1351 C1345 1.368 . S
C1351 C1350 1.523 . S
C1352 C1336 1.429 1_554 S
C1352 C1348 1.429 1_554 S
C1352 C1353 1.523 . S
C1353 C1337 1.368 . S
C1353 C1349 1.368 . S
C1353 C1352 1.523 . S
H1354 C1329 0.950 . S
H1355 C1331 0.950 . S
H1356 C1332 0.949 . S
H1357 C1334 0.950 . S
H1358 C1336 0.950 . S
C280 C20 1.257 . S
C285 C153 1.247 . S
C310 C184 1.247 . S
C315 C51 1.258 . S
C340 C82 1.258 . S
C345 C122 1.247 . S
C370 C32 2.095 . S
C375 C93 2.336 . S
C400 C63 2.096 1_545 S
C405 C124 2.336 . S
C430 C1 2.095 1_655 S
C435 C155 2.336 . S
C460 C113 1.257 . S
C465 C246 1.247 . S
C490 C277 1.247 . S
C495 C144 1.258 . S
C520 C215 1.247 . S
C525 C175 1.258 . S
C550 C125 2.095 . S
C555 C186 2.336 . S
C580 C217 2.336 . S
C585 C156 2.095 . S
C610 C248 2.336 . S
C615 C94 2.095 . S
C640 C206 1.258 . S
C645 C60 1.247 . S
C670 C237 1.258 . S
C675 C91 1.247 . S
C700 C29 1.247 . S
C705 C268 1.258 . S
C730 C0 2.336 1_556 S
C735 C218 2.095 . S
C760 C31 2.336 1_556 S
C765 C249 2.095 . S
C790 C187 2.095 . S
C795 C62 2.336 1_556 S
C820 C64 1.440 . S
C825 C10 1.535 . S
C850 C2 1.440 . S
C855 C41 1.536 . S
C880 C33 1.440 . S
C885 C72 1.536 . S
C910 C157 1.440 . S
C915 C103 1.536 . S
C940 C95 1.440 . S
C945 C134 1.536 . S
C970 C126 1.440 . S
C975 C165 1.535 . S
C1000 C196 1.536 . S
C1005 C250 1.440 . S
C1030 C227 1.536 . S
C1035 C188 1.440 . S
C1060 C258 1.536 . S
C1065 C219 1.440 . S
C1090 C30 0.736 . S
C1095 C19 0.737 . S
C1120 C50 0.737 . S
C1125 C61 0.736 . S
C1150 C92 0.736 . S
C1155 C81 0.737 . S
C1180 C112 0.737 . S
C1185 C123 0.736 . S
C1210 C154 0.736 . S
C1215 C143 0.737 . S
C1240 C174 0.737 . S
C1245 C185 0.736 . S
C1270 C216 0.736 . S
C1275 C205 0.737 . S
C1300 C247 0.736 . S
C1305 C236 0.737 . S
C1330 C278 0.736 . S
C1335 C267 0.737 . S
