# Generated by pormake.
# Topology pcu-i, (5)-cn, num edge types: 1
# Building blocks:
#     Node 0, Type 0, BuildingBlock: XOMCOT_clean_sbu_0, # of connection points: 5
#     Node 1, Type 0, BuildingBlock: XOMCOT_clean_sbu_0, # of connection points: 5
#     Node 2, Type 0, BuildingBlock: XOMCOT_clean_sbu_0, # of connection points: 5
#     Node 3, Type 0, BuildingBlock: XOMCOT_clean_sbu_0, # of connection points: 5
#     Node 4, Type 0, BuildingBlock: XOMCOT_clean_sbu_0, # of connection points: 5
#     Node 5, Type 0, BuildingBlock: XOMCOT_clean_sbu_0, # of connection points: 5
#     Node 6, Type 0, BuildingBlock: XOMCOT_clean_sbu_0, # of connection points: 5
#     Node 7, Type 0, BuildingBlock: XOMCOT_clean_sbu_0, # of connection points: 5
#     Node 8, Type 0, BuildingBlock: XOMCOT_clean_sbu_0, # of connection points: 5
#     Node 9, Type 0, BuildingBlock: XOMCOT_clean_sbu_0, # of connection points: 5
#     Node 10, Type 0, BuildingBlock: XOMCOT_clean_sbu_0, # of connection points: 5
#     Node 11, Type 0, BuildingBlock: XOMCOT_clean_sbu_0, # of connection points: 5
#     Node 12, Type 0, BuildingBlock: XOMCOT_clean_sbu_0, # of connection points: 5
#     Node 13, Type 0, BuildingBlock: XOMCOT_clean_sbu_0, # of connection points: 5
#     Node 14, Type 0, BuildingBlock: XOMCOT_clean_sbu_0, # of connection points: 5
#     Node 15, Type 0, BuildingBlock: XOMCOT_clean_sbu_0, # of connection points: 5
#     Node 16, Type 0, BuildingBlock: XOMCOT_clean_sbu_0, # of connection points: 5
#     Node 17, Type 0, BuildingBlock: XOMCOT_clean_sbu_0, # of connection points: 5
#     Node 18, Type 0, BuildingBlock: XOMCOT_clean_sbu_0, # of connection points: 5
#     Node 19, Type 0, BuildingBlock: XOMCOT_clean_sbu_0, # of connection points: 5
#     Node 20, Type 0, BuildingBlock: XOMCOT_clean_sbu_0, # of connection points: 5
#     Node 21, Type 0, BuildingBlock: XOMCOT_clean_sbu_0, # of connection points: 5
#     Node 22, Type 0, BuildingBlock: XOMCOT_clean_sbu_0, # of connection points: 5
#     Node 23, Type 0, BuildingBlock: XOMCOT_clean_sbu_0, # of connection points: 5
#     Edge 24, Type (0, 0), BuildingBlock: AJUNOK_clean_linker_0, # of connection points: 2
#     Edge 25, Type (0, 0), BuildingBlock: AJUNOK_clean_linker_0, # of connection points: 2
#     Edge 26, Type (0, 0), BuildingBlock: AJUNOK_clean_linker_0, # of connection points: 2
#     Edge 27, Type (0, 0), BuildingBlock: AJUNOK_clean_linker_0, # of connection points: 2
#     Edge 28, Type (0, 0), BuildingBlock: AJUNOK_clean_linker_0, # of connection points: 2
#     Edge 29, Type (0, 0), BuildingBlock: AJUNOK_clean_linker_0, # of connection points: 2
#     Edge 30, Type (0, 0), BuildingBlock: AJUNOK_clean_linker_0, # of connection points: 2
#     Edge 31, Type (0, 0), BuildingBlock: AJUNOK_clean_linker_0, # of connection points: 2
#     Edge 32, Type (0, 0), BuildingBlock: AJUNOK_clean_linker_0, # of connection points: 2
#     Edge 33, Type (0, 0), BuildingBlock: AJUNOK_clean_linker_0, # of connection points: 2
#     Edge 34, Type (0, 0), BuildingBlock: AJUNOK_clean_linker_0, # of connection points: 2
#     Edge 35, Type (0, 0), BuildingBlock: AJUNOK_clean_linker_0, # of connection points: 2
#     Edge 36, Type (0, 0), BuildingBlock: AJUNOK_clean_linker_0, # of connection points: 2
#     Edge 37, Type (0, 0), BuildingBlock: AJUNOK_clean_linker_0, # of connection points: 2
#     Edge 38, Type (0, 0), BuildingBlock: AJUNOK_clean_linker_0, # of connection points: 2
#     Edge 39, Type (0, 0), BuildingBlock: AJUNOK_clean_linker_0, # of connection points: 2
#     Edge 40, Type (0, 0), BuildingBlock: AJUNOK_clean_linker_0, # of connection points: 2
#     Edge 41, Type (0, 0), BuildingBlock: AJUNOK_clean_linker_0, # of connection points: 2
#     Edge 42, Type (0, 0), BuildingBlock: AJUNOK_clean_linker_0, # of connection points: 2
#     Edge 43, Type (0, 0), BuildingBlock: AJUNOK_clean_linker_0, # of connection points: 2
#     Edge 44, Type (0, 0), BuildingBlock: AJUNOK_clean_linker_0, # of connection points: 2
#     Edge 45, Type (0, 0), BuildingBlock: AJUNOK_clean_linker_0, # of connection points: 2
#     Edge 46, Type (0, 0), BuildingBlock: AJUNOK_clean_linker_0, # of connection points: 2
#     Edge 47, Type (0, 0), BuildingBlock: AJUNOK_clean_linker_0, # of connection points: 2
#     Edge 48, Type (0, 0), BuildingBlock: AJUNOK_clean_linker_0, # of connection points: 2
#     Edge 49, Type (0, 0), BuildingBlock: AJUNOK_clean_linker_0, # of connection points: 2
#     Edge 50, Type (0, 0), BuildingBlock: AJUNOK_clean_linker_0, # of connection points: 2
#     Edge 51, Type (0, 0), BuildingBlock: AJUNOK_clean_linker_0, # of connection points: 2
#     Edge 52, Type (0, 0), BuildingBlock: AJUNOK_clean_linker_0, # of connection points: 2
#     Edge 53, Type (0, 0), BuildingBlock: AJUNOK_clean_linker_0, # of connection points: 2
#     Edge 54, Type (0, 0), BuildingBlock: AJUNOK_clean_linker_0, # of connection points: 2
#     Edge 55, Type (0, 0), BuildingBlock: AJUNOK_clean_linker_0, # of connection points: 2
#     Edge 56, Type (0, 0), BuildingBlock: AJUNOK_clean_linker_0, # of connection points: 2
#     Edge 57, Type (0, 0), BuildingBlock: AJUNOK_clean_linker_0, # of connection points: 2
#     Edge 58, Type (0, 0), BuildingBlock: AJUNOK_clean_linker_0, # of connection points: 2
#     Edge 59, Type (0, 0), BuildingBlock: AJUNOK_clean_linker_0, # of connection points: 2
#     Edge 60, Type (0, 0), BuildingBlock: AJUNOK_clean_linker_0, # of connection points: 2
#     Edge 61, Type (0, 0), BuildingBlock: AJUNOK_clean_linker_0, # of connection points: 2
#     Edge 62, Type (0, 0), BuildingBlock: AJUNOK_clean_linker_0, # of connection points: 2
#     Edge 63, Type (0, 0), BuildingBlock: AJUNOK_clean_linker_0, # of connection points: 2
#     Edge 64, Type (0, 0), BuildingBlock: AJUNOK_clean_linker_0, # of connection points: 2
#     Edge 65, Type (0, 0), BuildingBlock: AJUNOK_clean_linker_0, # of connection points: 2
#     Edge 66, Type (0, 0), BuildingBlock: AJUNOK_clean_linker_0, # of connection points: 2
#     Edge 67, Type (0, 0), BuildingBlock: AJUNOK_clean_linker_0, # of connection points: 2
#     Edge 68, Type (0, 0), BuildingBlock: AJUNOK_clean_linker_0, # of connection points: 2
#     Edge 69, Type (0, 0), BuildingBlock: AJUNOK_clean_linker_0, # of connection points: 2
#     Edge 70, Type (0, 0), BuildingBlock: AJUNOK_clean_linker_0, # of connection points: 2
#     Edge 71, Type (0, 0), BuildingBlock: AJUNOK_clean_linker_0, # of connection points: 2
#     Edge 72, Type (0, 0), BuildingBlock: AJUNOK_clean_linker_0, # of connection points: 2
#     Edge 73, Type (0, 0), BuildingBlock: AJUNOK_clean_linker_0, # of connection points: 2
#     Edge 74, Type (0, 0), BuildingBlock: AJUNOK_clean_linker_0, # of connection points: 2
#     Edge 75, Type (0, 0), BuildingBlock: AJUNOK_clean_linker_0, # of connection points: 2
#     Edge 76, Type (0, 0), BuildingBlock: AJUNOK_clean_linker_0, # of connection points: 2
#     Edge 77, Type (0, 0), BuildingBlock: AJUNOK_clean_linker_0, # of connection points: 2
#     Edge 78, Type (0, 0), BuildingBlock: AJUNOK_clean_linker_0, # of connection points: 2
#     Edge 79, Type (0, 0), BuildingBlock: AJUNOK_clean_linker_0, # of connection points: 2
#     Edge 80, Type (0, 0), BuildingBlock: AJUNOK_clean_linker_0, # of connection points: 2
#     Edge 81, Type (0, 0), BuildingBlock: AJUNOK_clean_linker_0, # of connection points: 2
#     Edge 82, Type (0, 0), BuildingBlock: AJUNOK_clean_linker_0, # of connection points: 2
#     Edge 83, Type (0, 0), BuildingBlock: AJUNOK_clean_linker_0, # of connection points: 2
# Relax obj value: 0.310
# Max RMSD: 0.282
# Mean RMSD: 0.282
data_MOF--net-pcu-i--node1-XOMCOT_clean_sbu_0--edge1-AJUNOK_clean_linker_0
_symmetry_space_group_name_H-M    P1
_symmetry_Int_Tables_number       1
_symmetry_cell_setting            triclinic
loop_
_symmetry_equiv_pos_as_xyz
'x, y, z'
_cell_length_a     43.132332
_cell_length_b     43.265947
_cell_length_c     43.112892
_cell_angle_alpha  90.168496
_cell_angle_beta   89.96911
_cell_angle_gamma 89.925395
loop_
_atom_site_label
_atom_site_type_symbol
_atom_site_fract_x
_atom_site_fract_y
_atom_site_fract_z
_atom_type_partial_charge
Co0 Co 0.13237 0.14644 0.33823 0.0
C1 C 0.0652 0.14051 0.32284 0.0
C2 C 0.07313 0.17781 0.35463 0.0
C3 C 0.04255 0.17848 0.34578 0.0
N4 N 0.08764 0.15403 0.34026 0.0
N5 N 0.03771 0.15521 0.32564 0.0
H6 H 0.06881 0.12092 0.30765 0.0
H7 H 0.08376 0.19392 0.37048 0.0
C8 C 0.13285 0.21427 0.32074 0.0
O9 O 0.12767 0.22244 0.34958 0.0
N10 N 0.17646 0.13924 0.33395 0.0
C11 C 0.1955 0.12344 0.35296 0.0
C12 C 0.22429 0.12135 0.33909 0.0
C13 C 0.19363 0.14605 0.30872 0.0
N14 N 0.22303 0.13567 0.31132 0.0
C15 C 0.12205 0.15439 0.40262 0.0
C16 C 0.17571 0.18682 0.41564 0.0
C17 C 0.15864 0.17403 0.44009 0.0
C18 C 0.13103 0.15862 0.43338 0.0
C19 C 0.16555 0.18254 0.38495 0.0
N20 N 0.13932 0.16581 0.37868 0.0
H21 H 0.1023 0.13976 0.39796 0.0
H22 H 0.17997 0.19072 0.36618 0.0
H23 H 0.1887 0.11348 0.37492 0.0
H24 H 0.1846 0.15785 0.28854 0.0
O25 O 0.12705 0.1055 0.35425 0.0
O26 O 0.1267 0.11723 0.30418 0.0
O27 O 0.13659 0.18582 0.31347 0.0
C28 C 0.12553 0.09611 0.32576 0.0
H29 H 0.02504 0.19459 0.35381 0.0
H30 H 0.24421 0.10917 0.34821 0.0
H31 H 0.19749 0.19843 0.42006 0.0
H32 H 0.11763 0.14793 0.45171 0.0
Co33 Co 0.86209 0.13832 0.3247 0.0
C34 C 0.87069 0.06924 0.32639 0.0
C35 C 0.83485 0.08363 0.29551 0.0
C36 C 0.83897 0.05257 0.2918 0.0
N37 N 0.85374 0.09434 0.31814 0.0
N38 N 0.86168 0.04334 0.31099 0.0
H39 H 0.89076 0.07035 0.34133 0.0
H40 H 0.82077 0.09749 0.28028 0.0
C41 C 0.79378 0.13914 0.31348 0.0
O42 O 0.79095 0.12084 0.33758 0.0
N43 N 0.87037 0.18207 0.32736 0.0
C44 C 0.88808 0.19836 0.34727 0.0
C45 C 0.8918 0.2279 0.33546 0.0
C46 C 0.86394 0.20148 0.30393 0.0
N47 N 0.87662 0.22959 0.30809 0.0
C48 C 0.85593 0.11844 0.38765 0.0
C49 C 0.82322 0.16952 0.40832 0.0
C50 C 0.83609 0.14935 0.43024 0.0
C51 C 0.85181 0.12307 0.41945 0.0
C52 C 0.82753 0.1638 0.37655 0.0
N53 N 0.84456 0.13895 0.36653 0.0
H54 H 0.87054 0.09964 0.38033 0.0
H55 H 0.81899 0.18055 0.36007 0.0
H56 H 0.89889 0.18901 0.36785 0.0
H57 H 0.85165 0.19452 0.28322 0.0
O58 O 0.9037 0.12942 0.33707 0.0
O59 O 0.88915 0.13734 0.28836 0.0
O60 O 0.8207 0.14854 0.30524 0.0
C61 C 0.91141 0.13184 0.30818 0.0
H62 H 0.82682 0.03811 0.2753 0.0
H63 H 0.90616 0.24595 0.34523 0.0
H64 H 0.811 0.19016 0.41568 0.0
H65 H 0.86285 0.10728 0.43549 0.0
Co66 Co 0.87672 0.86318 0.33626 0.0
C67 C 0.94788 0.86262 0.34061 0.0
C68 C 0.92789 0.84365 0.29942 0.0
C69 C 0.95913 0.8446 0.2954 0.0
N70 N 0.9203 0.85406 0.328 0.0
N71 N 0.97203 0.85602 0.32136 0.0
H72 H 0.95046 0.875 0.36218 0.0
H73 H 0.91145 0.83808 0.28134 0.0
C74 C 0.87798 0.79694 0.31897 0.0
O75 O 0.89807 0.79383 0.34166 0.0
N76 N 0.83288 0.87244 0.33954 0.0
C77 C 0.81772 0.89362 0.35693 0.0
C78 C 0.78814 0.89755 0.34477 0.0
C79 C 0.81259 0.86407 0.31733 0.0
N80 N 0.78525 0.87874 0.31994 0.0
C81 C 0.894 0.85423 0.39943 0.0
C82 C 0.84185 0.82089 0.41561 0.0
C83 C 0.85966 0.83469 0.43901 0.0
C84 C 0.88671 0.85028 0.4307 0.0
C85 C 0.8503 0.82496 0.38441 0.0
N86 N 0.87541 0.84266 0.37656 0.0
H87 H 0.91251 0.8698 0.39394 0.0
H88 H 0.83482 0.81656 0.36657 0.0
H89 H 0.82794 0.90662 0.37579 0.0
H90 H 0.81844 0.84947 0.29783 0.0
O91 O 0.88694 0.903 0.35217 0.0
O92 O 0.87865 0.89328 0.30254 0.0
O93 O 0.866 0.82348 0.31359 0.0
C94 C 0.88498 0.91352 0.32426 0.0
H95 H 0.97109 0.83953 0.27392 0.0
H96 H 0.77061 0.91355 0.35291 0.0
H97 H 0.82048 0.80906 0.42124 0.0
H98 H 0.90064 0.86177 0.44817 0.0
Co99 Co 0.15265 0.87522 0.34803 0.0
C100 C 0.14262 0.94258 0.33629 0.0
C101 C 0.18584 0.93427 0.35929 0.0
C102 C 0.18413 0.96513 0.352 0.0
N103 N 0.15988 0.91985 0.34939 0.0
N104 N 0.1571 0.9702 0.33738 0.0
H105 H 0.12031 0.93919 0.32542 0.0
H106 H 0.2048 0.92345 0.37134 0.0
C107 C 0.22067 0.87146 0.3295 0.0
O108 O 0.22942 0.87499 0.35839 0.0
N109 N 0.14554 0.83115 0.34422 0.0
C110 C 0.12926 0.81258 0.36323 0.0
C111 C 0.12581 0.78418 0.34898 0.0
C112 C 0.15132 0.81407 0.31861 0.0
N113 N 0.13973 0.7852 0.32092 0.0
C114 C 0.16359 0.8886 0.41162 0.0
C115 C 0.19316 0.83385 0.42635 0.0
C116 C 0.18314 0.85338 0.45031 0.0
C117 C 0.16916 0.88148 0.44263 0.0
C118 C 0.18799 0.84232 0.39538 0.0
N119 N 0.1727 0.86917 0.38826 0.0
H120 H 0.14974 0.90878 0.40657 0.0
H121 H 0.19468 0.82639 0.37721 0.0
H122 H 0.11949 0.81961 0.38527 0.0
H123 H 0.16275 0.82299 0.29816 0.0
O124 O 0.11158 0.88048 0.36459 0.0
O125 O 0.12334 0.88033 0.31439 0.0
O126 O 0.19185 0.8706 0.32252 0.0
C127 C 0.10215 0.88124 0.33607 0.0
H128 H 0.20119 0.98265 0.35748 0.0
H129 H 0.11264 0.76488 0.3579 0.0
H130 H 0.20371 0.81173 0.43154 0.0
H131 H 0.16041 0.89676 0.46058 0.0
Co132 Co 0.13188 0.86138 0.68122 0.0
C133 C 0.06346 0.87207 0.68847 0.0
C134 C 0.07332 0.82839 0.66705 0.0
C135 C 0.04193 0.83033 0.67207 0.0
N136 N 0.08714 0.85447 0.67741 0.0
N137 N 0.03584 0.85764 0.68567 0.0
H138 H 0.06614 0.89457 0.69907 0.0
H139 H 0.08492 0.80919 0.65617 0.0
C140 C 0.13539 0.79319 0.69828 0.0
O141 O 0.13353 0.78531 0.66898 0.0
N142 N 0.17596 0.86803 0.68733 0.0
C143 C 0.19557 0.88603 0.67103 0.0
C144 C 0.22409 0.88596 0.68567 0.0
C145 C 0.1926 0.85762 0.71163 0.0
N146 N 0.22212 0.86781 0.71099 0.0
C147 C 0.1216 0.85074 0.61689 0.0
C148 C 0.17762 0.82221 0.60427 0.0
C149 C 0.15904 0.83208 0.57959 0.0
C150 C 0.13031 0.84552 0.58616 0.0
C151 C 0.16764 0.8271 0.63487 0.0
N152 N 0.1401 0.84179 0.64101 0.0
H153 H 0.10095 0.86424 0.62113 0.0
H154 H 0.18286 0.82043 0.6536 0.0
H155 H 0.18944 0.89869 0.65032 0.0
H156 H 0.183 0.84384 0.73018 0.0
O157 O 0.12773 0.90223 0.66468 0.0
O158 O 0.12508 0.89093 0.71482 0.0
O159 O 0.13483 0.82172 0.70632 0.0
C160 C 0.12525 0.9119 0.69301 0.0
H161 H 0.02476 0.81318 0.6658 0.0
H162 H 0.24462 0.89835 0.67839 0.0
H163 H 0.20017 0.81203 0.59995 0.0
H164 H 0.11572 0.85413 0.56763 0.0
Co165 Co 0.15128 0.13334 0.67284 0.0
C166 C 0.14017 0.06553 0.68175 0.0
C167 C 0.18525 0.07551 0.66329 0.0
C168 C 0.18382 0.04448 0.66987 0.0
N169 N 0.15793 0.08886 0.67069 0.0
N170 N 0.1556 0.03835 0.68167 0.0
H171 H 0.11702 0.06828 0.69094 0.0
H172 H 0.20533 0.08778 0.65473 0.0
C173 C 0.21178 0.1561 0.70316 0.0
O174 O 0.20745 0.18468 0.69414 0.0
N175 N 0.1447 0.17754 0.67723 0.0
C176 C 0.13516 0.19845 0.65616 0.0
C177 C 0.13132 0.22662 0.67093 0.0
C178 C 0.14488 0.1928 0.70457 0.0
N179 N 0.13739 0.2229 0.70141 0.0
C180 C 0.15957 0.11943 0.60918 0.0
C181 C 0.19471 0.17011 0.59278 0.0
C182 C 0.18217 0.15144 0.56934 0.0
C183 C 0.16532 0.12527 0.57793 0.0
C184 C 0.18916 0.16288 0.62405 0.0
N185 N 0.17082 0.13835 0.63202 0.0
H186 H 0.14408 0.10069 0.61489 0.0
H187 H 0.19736 0.17875 0.64127 0.0
H188 H 0.131 0.19357 0.63189 0.0
H189 H 0.15146 0.18208 0.72624 0.0
O190 O 0.10995 0.12939 0.65716 0.0
O191 O 0.12214 0.12798 0.70716 0.0
O192 O 0.19208 0.135 0.69647 0.0
C193 C 0.10076 0.1275 0.68567 0.0
H194 H 0.20216 0.0277 0.66644 0.0
H195 H 0.12422 0.24806 0.66017 0.0
H196 H 0.20757 0.19078 0.58697 0.0
H197 H 0.15472 0.11059 0.56051 0.0
Co198 Co 0.8779 0.1501 0.66555 0.0
C199 C 0.94579 0.13854 0.67531 0.0
C200 C 0.93601 0.18311 0.65587 0.0
C201 C 0.96712 0.18161 0.66255 0.0
N202 N 0.9225 0.15619 0.66388 0.0
N203 N 0.97319 0.15365 0.67476 0.0
H204 H 0.94283 0.11569 0.68494 0.0
H205 H 0.9238 0.20299 0.64682 0.0
C206 C 0.85439 0.21142 0.69364 0.0
O207 O 0.826 0.20711 0.68369 0.0
N208 N 0.83351 0.14434 0.66915 0.0
C209 C 0.81249 0.13524 0.64787 0.0
C210 C 0.78398 0.1325 0.66235 0.0
C211 C 0.81795 0.14548 0.69624 0.0
N212 N 0.78753 0.13947 0.69269 0.0
C213 C 0.89157 0.15255 0.60179 0.0
C214 C 0.8429 0.18947 0.58285 0.0
C215 C 0.85918 0.17213 0.56068 0.0
C216 C 0.88458 0.15462 0.57033 0.0
C217 C 0.85075 0.18678 0.61441 0.0
N218 N 0.87391 0.16723 0.62369 0.0
H219 H 0.90974 0.13683 0.60873 0.0
H220 H 0.83628 0.19821 0.63106 0.0
H221 H 0.81751 0.13056 0.62373 0.0
H222 H 0.82894 0.15052 0.71823 0.0
O223 O 0.88173 0.10795 0.65222 0.0
O224 O 0.88234 0.12295 0.70144 0.0
O225 O 0.87586 0.19185 0.68746 0.0
C226 C 0.88276 0.10038 0.68121 0.0
H227 H 0.98403 0.19971 0.65887 0.0
H228 H 0.76236 0.126 0.65142 0.0
H229 H 0.82303 0.20323 0.57613 0.0
H230 H 0.89775 0.14097 0.55381 0.0
Co231 Co 0.85782 0.87808 0.67371 0.0
C232 C 0.86766 0.94643 0.68049 0.0
C233 C 0.82117 0.93467 0.66732 0.0
C234 C 0.82247 0.96599 0.67265 0.0
N235 N 0.84944 0.92227 0.6723 0.0
N236 N 0.8516 0.97326 0.68118 0.0
H237 H 0.89189 0.94461 0.68663 0.0
H238 H 0.80076 0.92167 0.66081 0.0
C239 C 0.79698 0.85219 0.70091 0.0
O240 O 0.80201 0.82464 0.68929 0.0
N241 N 0.86616 0.8342 0.67746 0.0
C242 C 0.88046 0.81502 0.65733 0.0
C243 C 0.88591 0.78719 0.67203 0.0
C244 C 0.86442 0.81834 0.70429 0.0
N245 N 0.87587 0.78943 0.70164 0.0
C246 C 0.85006 0.8933 0.6101 0.0
C247 C 0.82174 0.8394 0.59085 0.0
C248 C 0.83317 0.85974 0.56839 0.0
C249 C 0.84657 0.88744 0.57841 0.0
C250 C 0.82515 0.84644 0.62248 0.0
N251 N 0.84002 0.87277 0.632 0.0
H252 H 0.86332 0.91338 0.61683 0.0
H253 H 0.81849 0.82904 0.63871 0.0
H254 H 0.88724 0.82111 0.63398 0.0
H255 H 0.85462 0.82799 0.72528 0.0
O256 O 0.89961 0.88397 0.65961 0.0
O257 O 0.88554 0.88398 0.7091 0.0
O258 O 0.81631 0.87417 0.69628 0.0
C259 C 0.90776 0.88533 0.68849 0.0
H260 H 0.80354 0.98225 0.67016 0.0
H261 H 0.8972 0.76718 0.66197 0.0
H262 H 0.81157 0.81752 0.58406 0.0
H263 H 0.85645 0.90349 0.5619 0.0
Co264 Co 0.33768 0.13438 0.14933 0.0
C265 C 0.33002 0.06636 0.13988 0.0
C266 C 0.34965 0.07693 0.18432 0.0
C267 C 0.34417 0.04571 0.18293 0.0
N268 N 0.34073 0.09012 0.15738 0.0
N269 N 0.33183 0.03921 0.15507 0.0
H270 H 0.32026 0.06865 0.11693 0.0
H271 H 0.35964 0.08892 0.20379 0.0
C272 C 0.31961 0.14004 0.21758 0.0
O273 O 0.34884 0.13951 0.22583 0.0
N274 N 0.33228 0.1781 0.14162 0.0
C275 C 0.34833 0.19698 0.12262 0.0
C276 C 0.33389 0.22556 0.12236 0.0
C277 C 0.3084 0.19513 0.15225 0.0
N278 N 0.30908 0.22421 0.14134 0.0
C279 C 0.40151 0.12292 0.16065 0.0
C280 C 0.41539 0.17993 0.18617 0.0
C281 C 0.4396 0.16047 0.17676 0.0
C282 C 0.4324 0.13127 0.16494 0.0
C283 C 0.38459 0.17027 0.18237 0.0
N284 N 0.37783 0.14229 0.16896 0.0
H285 H 0.39686 0.10183 0.14807 0.0
H286 H 0.36622 0.18612 0.18862 0.0
H287 H 0.36865 0.19031 0.10949 0.0
H288 H 0.29004 0.18616 0.16673 0.0
O289 O 0.35448 0.12898 0.10852 0.0
O290 O 0.30424 0.12741 0.1197 0.0
O291 O 0.31214 0.13842 0.18887 0.0
C292 C 0.32618 0.12673 0.09876 0.0
H293 H 0.34916 0.02894 0.20085 0.0
H294 H 0.34093 0.24566 0.10924 0.0
H295 H 0.42021 0.20282 0.19516 0.0
H296 H 0.45055 0.11596 0.15672 0.0
Co297 Co 0.87786 0.34053 0.14543 0.0
C298 C 0.94589 0.32989 0.13845 0.0
C299 C 0.93575 0.35751 0.17855 0.0
C300 C 0.96697 0.35124 0.17827 0.0
N301 N 0.92226 0.34405 0.15365 0.0
N302 N 0.97313 0.33378 0.1532 0.0
H303 H 0.94344 0.3164 0.11747 0.0
H304 H 0.92407 0.37139 0.19573 0.0
C305 C 0.87477 0.32558 0.21448 0.0
O306 O 0.87773 0.35481 0.22192 0.0
N307 N 0.83403 0.33507 0.13747 0.0
C308 C 0.81602 0.34991 0.11668 0.0
C309 C 0.78764 0.33516 0.11523 0.0
C310 C 0.81652 0.31172 0.14833 0.0
N311 N 0.78815 0.31142 0.13536 0.0
C312 C 0.88748 0.40489 0.15227 0.0
C313 C 0.83242 0.41833 0.18235 0.0
C314 C 0.85035 0.44248 0.17043 0.0
C315 C 0.87853 0.43559 0.15607 0.0
C316 C 0.8425 0.38771 0.17848 0.0
N317 N 0.86961 0.38124 0.16318 0.0
H318 H 0.90785 0.40005 0.13847 0.0
H319 H 0.82769 0.36917 0.18631 0.0
H320 H 0.82334 0.36934 0.10277 0.0
H321 H 0.82476 0.29428 0.16427 0.0
O322 O 0.88371 0.35498 0.10388 0.0
O323 O 0.88507 0.30558 0.11772 0.0
O324 O 0.87356 0.31725 0.18597 0.0
C325 C 0.88621 0.32626 0.09572 0.0
H326 H 0.98399 0.35931 0.19487 0.0
H327 H 0.76835 0.34107 0.10032 0.0
H328 H 0.81026 0.42299 0.19324 0.0
H329 H 0.89261 0.45376 0.14609 0.0
Co330 Co 0.66675 0.8815 0.15953 0.0
C331 C 0.67423 0.94888 0.14498 0.0
C332 C 0.65917 0.94052 0.19166 0.0
C333 C 0.66509 0.97155 0.18852 0.0
N334 N 0.66489 0.92617 0.16444 0.0
N335 N 0.67456 0.97675 0.15923 0.0
H336 H 0.68188 0.94517 0.12138 0.0
H337 H 0.65223 0.92897 0.21277 0.0
C338 C 0.69817 0.8598 0.21991 0.0
O339 O 0.68874 0.83132 0.21565 0.0
N340 N 0.67078 0.8371 0.15466 0.0
C341 C 0.64936 0.81541 0.14793 0.0
C342 C 0.66421 0.78717 0.14496 0.0
C343 C 0.69824 0.82216 0.15407 0.0
N344 N 0.69493 0.79169 0.14863 0.0
C345 C 0.60323 0.89513 0.16772 0.0
C346 C 0.588 0.84605 0.20555 0.0
C347 C 0.56433 0.86256 0.19089 0.0
C348 C 0.57212 0.8882 0.17296 0.0
C349 C 0.61901 0.85424 0.20025 0.0
N350 N 0.62643 0.87752 0.18016 0.0
H351 H 0.60862 0.91319 0.15132 0.0
H352 H 0.63646 0.83965 0.20989 0.0
H353 H 0.62483 0.81974 0.14509 0.0
H354 H 0.72022 0.83339 0.15846 0.0
O355 O 0.65011 0.88364 0.11808 0.0
O356 O 0.7002 0.88548 0.12912 0.0
O357 O 0.69139 0.88097 0.2002 0.0
C358 C 0.67835 0.88479 0.10808 0.0
H359 H 0.66282 0.989 0.20644 0.0
H360 H 0.65338 0.76514 0.14 0.0
H361 H 0.58269 0.82587 0.21938 0.0
H362 H 0.55433 0.9013 0.16104 0.0
Co363 Co 0.12921 0.674 0.15627 0.0
C364 C 0.06119 0.68436 0.14731 0.0
C365 C 0.07075 0.66186 0.19047 0.0
C366 C 0.03954 0.66807 0.18908 0.0
N367 N 0.08461 0.67217 0.16436 0.0
N368 N 0.03368 0.68236 0.16208 0.0
H369 H 0.06398 0.695 0.12483 0.0
H370 H 0.08211 0.64999 0.20918 0.0
C371 C 0.13455 0.69114 0.2247 0.0
O372 O 0.13092 0.66212 0.23248 0.0
N373 N 0.17314 0.67801 0.1483 0.0
C374 C 0.19179 0.65964 0.13119 0.0
C375 C 0.22016 0.67406 0.12801 0.0
C376 C 0.19008 0.7033 0.1549 0.0
N377 N 0.21881 0.70163 0.14268 0.0
C378 C 0.11702 0.61031 0.1662 0.0
C379 C 0.17307 0.59593 0.19375 0.0
C380 C 0.15404 0.57201 0.18304 0.0
C381 C 0.12526 0.57941 0.17022 0.0
C382 C 0.16359 0.62671 0.19 0.0
N383 N 0.13616 0.6337 0.17556 0.0
H384 H 0.0963 0.61533 0.15308 0.0
H385 H 0.17929 0.64494 0.19691 0.0
H386 H 0.18492 0.63784 0.12095 0.0
H387 H 0.18122 0.72289 0.16779 0.0
O388 O 0.12337 0.65781 0.11518 0.0
O389 O 0.12327 0.70775 0.12696 0.0
O390 O 0.13445 0.69901 0.19606 0.0
C391 C 0.12225 0.68616 0.10568 0.0
H392 H 0.0223 0.6619 0.20624 0.0
H393 H 0.23981 0.66555 0.11488 0.0
H394 H 0.19568 0.59094 0.20346 0.0
H395 H 0.1103 0.56145 0.16109 0.0
Co396 Co 0.34284 0.87312 0.866 0.0
C397 C 0.33503 0.94145 0.87494 0.0
C398 C 0.35141 0.92923 0.82951 0.0
C399 C 0.34593 0.96054 0.83023 0.0
N400 N 0.34458 0.91716 0.85748 0.0
N401 N 0.33564 0.96814 0.85875 0.0
H402 H 0.32674 0.93976 0.89852 0.0
H403 H 0.35903 0.91598 0.80959 0.0
C404 C 0.31274 0.84576 0.80749 0.0
O405 O 0.32261 0.81777 0.81369 0.0
N406 N 0.33946 0.82922 0.87447 0.0
C407 C 0.36161 0.80787 0.87996 0.0
C408 C 0.34751 0.77936 0.88323 0.0
C409 C 0.31234 0.81384 0.87648 0.0
N410 N 0.3166 0.78342 0.88108 0.0
C411 C 0.40691 0.88496 0.86276 0.0
C412 C 0.42412 0.83759 0.82325 0.0
C413 C 0.44699 0.85272 0.84069 0.0
C414 C 0.43818 0.8775 0.85955 0.0
C415 C 0.39276 0.84588 0.82714 0.0
N416 N 0.38439 0.86818 0.84814 0.0
H417 H 0.40061 0.90298 0.87899 0.0
H418 H 0.37554 0.83259 0.81518 0.0
H419 H 0.38623 0.81239 0.88087 0.0
H420 H 0.28995 0.82437 0.87228 0.0
O421 O 0.35647 0.87927 0.9079 0.0
O422 O 0.30717 0.87924 0.89322 0.0
O423 O 0.32029 0.86869 0.82476 0.0
C424 C 0.3275 0.8809 0.9156 0.0
H425 H 0.34925 0.97656 0.81127 0.0
H426 H 0.35902 0.75731 0.8861 0.0
H427 H 0.43019 0.81837 0.80828 0.0
H428 H 0.45525 0.88994 0.87313 0.0
Co429 Co 0.13935 0.33588 0.86509 0.0
C430 C 0.07079 0.32828 0.87396 0.0
C431 C 0.08212 0.34801 0.82983 0.0
C432 C 0.05082 0.34234 0.83052 0.0
N433 N 0.0949 0.33916 0.857 0.0
N434 N 0.04385 0.32979 0.85812 0.0
H435 H 0.07274 0.31853 0.89693 0.0
H436 H 0.09456 0.35787 0.81058 0.0
C437 C 0.1446 0.31767 0.7967 0.0
O438 O 0.14645 0.34661 0.78794 0.0
N439 N 0.18335 0.33003 0.87254 0.0
C440 C 0.20217 0.34521 0.89239 0.0
C441 C 0.23046 0.33009 0.89328 0.0
C442 C 0.20026 0.30599 0.8619 0.0
N443 N 0.22912 0.30565 0.87385 0.0
C444 C 0.12759 0.39957 0.85521 0.0
C445 C 0.18441 0.4147 0.82989 0.0
C446 C 0.16476 0.43839 0.84027 0.0
C447 C 0.13571 0.43056 0.85203 0.0
C448 C 0.1751 0.3837 0.83293 0.0
N449 N 0.14715 0.37631 0.84614 0.0
H450 H 0.10653 0.39446 0.86771 0.0
H451 H 0.19123 0.36569 0.82636 0.0
H452 H 0.19554 0.36524 0.90593 0.0
H453 H 0.19124 0.2881 0.84684 0.0
O454 O 0.13417 0.3522 0.90608 0.0
O455 O 0.13221 0.30224 0.89425 0.0
O456 O 0.14277 0.31076 0.82546 0.0
C457 C 0.13152 0.32393 0.91543 0.0
H458 H 0.03432 0.34729 0.81227 0.0
H459 H 0.25031 0.33634 0.9073 0.0
H460 H 0.20726 0.42001 0.82098 0.0
H461 H 0.12023 0.44827 0.86087 0.0
Co462 Co 0.68605 0.13489 0.86101 0.0
C463 C 0.68452 0.06614 0.87178 0.0
C464 C 0.71549 0.07944 0.8356 0.0
C465 C 0.71965 0.04869 0.84105 0.0
N466 N 0.69259 0.09064 0.85391 0.0
N467 N 0.7005 0.04016 0.86406 0.0
H468 H 0.66928 0.06789 0.89159 0.0
H469 H 0.73076 0.09285 0.82118 0.0
C470 C 0.69859 0.13391 0.79291 0.0
O471 O 0.67464 0.11534 0.79028 0.0
N472 N 0.68353 0.17889 0.86812 0.0
C473 C 0.66326 0.19595 0.8847 0.0
C474 C 0.6751 0.22561 0.88754 0.0
C475 C 0.70722 0.19796 0.86155 0.0
N476 N 0.70285 0.2266 0.87297 0.0
C477 C 0.62316 0.11514 0.85447 0.0
C478 C 0.60325 0.16599 0.82117 0.0
C479 C 0.58121 0.1468 0.83513 0.0
C480 C 0.59141 0.12052 0.85091 0.0
C481 C 0.63494 0.15964 0.82506 0.0
N482 N 0.64459 0.13511 0.84264 0.0
H483 H 0.63026 0.09643 0.86922 0.0
H484 H 0.65167 0.17592 0.8161 0.0
H485 H 0.6423 0.18713 0.89523 0.0
H486 H 0.72813 0.19046 0.8499 0.0
O487 O 0.67247 0.12724 0.90246 0.0
O488 O 0.72161 0.13454 0.8892 0.0
O489 O 0.70654 0.14398 0.81972 0.0
C490 C 0.70109 0.12965 0.911 0.0
H491 H 0.73655 0.03405 0.82965 0.0
H492 H 0.66496 0.24432 0.90082 0.0
H493 H 0.59613 0.18667 0.80899 0.0
H494 H 0.57495 0.10538 0.86225 0.0
Co495 Co 0.88092 0.67202 0.86179 0.0
C496 C 0.94877 0.68218 0.87229 0.0
C497 C 0.93975 0.66226 0.82764 0.0
C498 C 0.97085 0.66874 0.82961 0.0
N499 N 0.92563 0.67077 0.85432 0.0
N500 N 0.97637 0.68143 0.85755 0.0
H501 H 0.94573 0.69149 0.89538 0.0
H502 H 0.92854 0.65164 0.80803 0.0
C503 C 0.87683 0.69218 0.79409 0.0
O504 O 0.8792 0.66359 0.78422 0.0
N505 N 0.83675 0.67542 0.86905 0.0
C506 C 0.8185 0.65694 0.88625 0.0
C507 C 0.78971 0.67065 0.88897 0.0
C508 C 0.81903 0.70003 0.86175 0.0
N509 N 0.79006 0.69774 0.87342 0.0
C510 C 0.89429 0.60889 0.84898 0.0
C511 C 0.83908 0.59495 0.81958 0.0
C512 C 0.85856 0.57081 0.82898 0.0
C513 C 0.88693 0.57811 0.84278 0.0
C514 C 0.84772 0.62565 0.82547 0.0
N515 N 0.87479 0.63238 0.84069 0.0
H516 H 0.91468 0.6136 0.86273 0.0
H517 H 0.83174 0.64391 0.81936 0.0
H518 H 0.82599 0.63572 0.89716 0.0
H519 H 0.82757 0.71979 0.84904 0.0
O520 O 0.8863 0.65474 0.90242 0.0
O521 O 0.88617 0.70498 0.89216 0.0
O522 O 0.87643 0.69825 0.82316 0.0
C523 C 0.88734 0.6829 0.91275 0.0
H524 H 0.98824 0.66392 0.81212 0.0
H525 H 0.77072 0.6621 0.9029 0.0
H526 H 0.8168 0.59008 0.80907 0.0
H527 H 0.90224 0.56002 0.85099 0.0
Co528 Co 0.15054 0.33936 0.13894 0.0
C529 C 0.14164 0.3328 0.07037 0.0
C530 C 0.18785 0.34651 0.08262 0.0
C531 C 0.18691 0.34102 0.05119 0.0
N532 N 0.1595 0.34134 0.09476 0.0
N533 N 0.1579 0.33241 0.04361 0.0
H534 H 0.11767 0.32581 0.07205 0.0
H535 H 0.20812 0.35294 0.09591 0.0
C536 C 0.21024 0.31091 0.16546 0.0
O537 O 0.20483 0.32133 0.1935 0.0
N538 N 0.14155 0.33496 0.18275 0.0
C539 C 0.12797 0.35493 0.20261 0.0
C540 C 0.12225 0.33967 0.23018 0.0
C541 C 0.1425 0.30777 0.19787 0.0
N542 N 0.13133 0.30994 0.22699 0.0
C543 C 0.15975 0.40279 0.12474 0.0
C544 C 0.18868 0.42015 0.17915 0.0
C545 C 0.17826 0.4431 0.15889 0.0
C546 C 0.16461 0.4341 0.13091 0.0
C547 C 0.1841 0.38893 0.1717 0.0
N548 N 0.16892 0.38041 0.14514 0.0
H549 H 0.14634 0.39679 0.10445 0.0
H550 H 0.19016 0.37228 0.18892 0.0
H551 H 0.12202 0.37861 0.19724 0.0
H552 H 0.15173 0.28686 0.18761 0.0
O553 O 0.10911 0.35393 0.13264 0.0
O554 O 0.12288 0.3044 0.13202 0.0
O555 O 0.19155 0.31661 0.14315 0.0
C556 C 0.10091 0.32519 0.13058 0.0
H557 H 0.20609 0.34307 0.03512 0.0
H558 H 0.11156 0.34948 0.25069 0.0
H559 H 0.19889 0.42631 0.20127 0.0
H560 H 0.15559 0.4512 0.11496 0.0
Co561 Co 0.1535 0.67223 0.88297 0.0
C562 C 0.1413 0.67938 0.95121 0.0
C563 C 0.18824 0.66639 0.94096 0.0
C564 C 0.18589 0.67205 0.97229 0.0
N565 N 0.16036 0.67107 0.9276 0.0
N566 N 0.15648 0.68044 0.9786 0.0
H567 H 0.11714 0.68551 0.94858 0.0
H568 H 0.20914 0.66002 0.9286 0.0
C569 C 0.21424 0.70085 0.8586 0.0
O570 O 0.20949 0.69143 0.83009 0.0
N571 N 0.14657 0.67538 0.83865 0.0
C572 C 0.13534 0.65396 0.81889 0.0
C573 C 0.13052 0.66774 0.79043 0.0
C574 C 0.14694 0.70202 0.82244 0.0
N575 N 0.13815 0.69794 0.79271 0.0
C576 C 0.16125 0.60875 0.89773 0.0
C577 C 0.19608 0.59154 0.84676 0.0
C578 C 0.1831 0.56842 0.86536 0.0
C579 C 0.16654 0.57741 0.89181 0.0
C580 C 0.19071 0.62277 0.85386 0.0
N581 N 0.17252 0.63118 0.87851 0.0
H582 H 0.14604 0.61485 0.91671 0.0
H583 H 0.19898 0.6396 0.83777 0.0
H584 H 0.13021 0.63027 0.82494 0.0
H585 H 0.15387 0.72399 0.83229 0.0
O586 O 0.11185 0.65759 0.88763 0.0
O587 O 0.12522 0.70714 0.88782 0.0
O588 O 0.19459 0.69515 0.88012 0.0
C589 C 0.10331 0.6863 0.88863 0.0
H590 H 0.20435 0.67009 0.98918 0.0
H591 H 0.12115 0.65657 0.77001 0.0
H592 H 0.20908 0.58553 0.8261 0.0
H593 H 0.15585 0.5603 0.90666 0.0
Co594 Co 0.34441 0.14593 0.8756 0.0
C595 C 0.33691 0.13717 0.94418 0.0
C596 C 0.35286 0.18253 0.93213 0.0
C597 C 0.34663 0.18206 0.9634 0.0
N598 N 0.34682 0.15441 0.91993 0.0
N599 N 0.33638 0.15365 0.97082 0.0
H600 H 0.32892 0.11358 0.94246 0.0
H601 H 0.3603 0.2024 0.91891 0.0
C602 C 0.31841 0.20798 0.85174 0.0
O603 O 0.33238 0.20537 0.82489 0.0
N604 N 0.33904 0.13779 0.83167 0.0
C605 C 0.3567 0.12094 0.812 0.0
C606 C 0.34093 0.11778 0.78416 0.0
C607 C 0.31257 0.14342 0.8161 0.0
N608 N 0.31334 0.13217 0.78703 0.0
C609 C 0.40815 0.15494 0.89036 0.0
C610 C 0.42734 0.17891 0.83437 0.0
C611 C 0.44985 0.16908 0.8556 0.0
C612 C 0.43981 0.15801 0.88432 0.0
C613 C 0.39571 0.17581 0.84149 0.0
N614 N 0.38613 0.16346 0.86913 0.0
H615 H 0.40168 0.14301 0.91132 0.0
H616 H 0.37961 0.18058 0.82325 0.0
H617 H 0.37914 0.1113 0.81763 0.0
H618 H 0.29267 0.15505 0.82606 0.0
O619 O 0.35892 0.10449 0.88114 0.0
O620 O 0.30932 0.11825 0.88239 0.0
O621 O 0.3215 0.18711 0.87251 0.0
C622 C 0.33017 0.09629 0.88344 0.0
H623 H 0.34927 0.20116 0.97946 0.0
H624 H 0.34909 0.1061 0.76347 0.0
H625 H 0.43408 0.18751 0.81178 0.0
H626 H 0.45631 0.14953 0.90122 0.0
Co627 Co 0.86502 0.33875 0.87256 0.0
C628 C 0.87409 0.32981 0.94073 0.0
C629 C 0.83103 0.35246 0.93088 0.0
C630 C 0.83243 0.34683 0.96219 0.0
N631 N 0.85711 0.34176 0.91715 0.0
N632 N 0.85946 0.3326 0.96826 0.0
H633 H 0.89632 0.31857 0.93808 0.0
H634 H 0.81222 0.36399 0.91928 0.0
C635 C 0.7962 0.32294 0.86842 0.0
O636 O 0.78851 0.35221 0.86998 0.0
N637 N 0.87273 0.33346 0.82854 0.0
C638 C 0.8924 0.34936 0.81022 0.0
C639 C 0.89428 0.33457 0.78181 0.0
C640 C 0.86307 0.30934 0.81118 0.0
N641 N 0.87579 0.30948 0.78262 0.0
C642 C 0.85559 0.40274 0.8844 0.0
C643 C 0.82752 0.41725 0.82867 0.0
C644 C 0.83713 0.44117 0.84837 0.0
C645 C 0.8505 0.43362 0.87685 0.0
C646 C 0.83225 0.38641 0.83752 0.0
N647 N 0.84653 0.37937 0.86502 0.0
H648 H 0.86888 0.39777 0.90501 0.0
H649 H 0.82566 0.36824 0.82159 0.0
H650 H 0.90517 0.36968 0.8173 0.0
H651 H 0.84818 0.29112 0.8197 0.0
O652 O 0.90637 0.35398 0.87815 0.0
O653 O 0.89342 0.30433 0.87931 0.0
O654 O 0.82478 0.31481 0.86836 0.0
C655 C 0.91509 0.32542 0.8804 0.0
H656 H 0.81517 0.35316 0.97933 0.0
H657 H 0.90835 0.34152 0.76224 0.0
H658 H 0.81748 0.42236 0.80624 0.0
H659 H 0.85896 0.45157 0.89225 0.0
Co660 Co 0.67954 0.8607 0.88188 0.0
C661 C 0.67327 0.86453 0.95253 0.0
C662 C 0.7109 0.83696 0.93578 0.0
C663 C 0.71357 0.83914 0.96712 0.0
N664 N 0.68503 0.85173 0.92608 0.0
N665 N 0.68981 0.85605 0.97795 0.0
H666 H 0.65437 0.88094 0.95325 0.0
H667 H 0.72881 0.82761 0.92102 0.0
C668 C 0.69688 0.79389 0.87974 0.0
O669 O 0.67191 0.78842 0.89627 0.0
N670 N 0.67881 0.86969 0.83782 0.0
C671 C 0.66077 0.88878 0.8209 0.0
C672 C 0.67306 0.89064 0.79114 0.0
C673 C 0.70166 0.86069 0.81844 0.0
N674 N 0.69856 0.87257 0.78986 0.0
C675 C 0.61668 0.84839 0.89851 0.0
C676 C 0.60077 0.81825 0.84422 0.0
C677 C 0.57704 0.82924 0.86366 0.0
C678 C 0.58549 0.84322 0.89173 0.0
C679 C 0.63194 0.82348 0.85216 0.0
N680 N 0.63957 0.83956 0.8785 0.0
H681 H 0.62196 0.86224 0.91847 0.0
H682 H 0.64981 0.81665 0.83593 0.0
H683 H 0.64084 0.90119 0.82975 0.0
H684 H 0.72136 0.84689 0.82543 0.0
O685 O 0.66236 0.90024 0.89116 0.0
O686 O 0.71258 0.89127 0.88582 0.0
O687 O 0.70353 0.82161 0.8719 0.0
C688 C 0.69021 0.91117 0.89085 0.0
H689 H 0.73278 0.83055 0.98078 0.0
H690 H 0.66421 0.90435 0.77214 0.0
H691 H 0.59531 0.80693 0.82246 0.0
H692 H 0.56803 0.85242 0.90732 0.0
Co693 Co 0.85591 0.67561 0.13638 0.0
C694 C 0.8694 0.68103 0.06819 0.0
C695 C 0.82116 0.67393 0.07813 0.0
C696 C 0.82443 0.67836 0.04675 0.0
N697 N 0.84927 0.67574 0.09172 0.0
N698 N 0.85469 0.6828 0.04057 0.0
H699 H 0.89408 0.68423 0.07101 0.0
H700 H 0.79958 0.67002 0.09028 0.0
C701 C 0.79486 0.70397 0.16079 0.0
O702 O 0.79709 0.69109 0.18814 0.0
N703 N 0.86242 0.67767 0.18075 0.0
C704 C 0.87451 0.65643 0.20013 0.0
C705 C 0.8781 0.66989 0.22904 0.0
C706 C 0.86022 0.70384 0.1976 0.0
N707 N 0.86866 0.69961 0.22735 0.0
C708 C 0.84572 0.61317 0.1184 0.0
C709 C 0.81451 0.59414 0.17087 0.0
C710 C 0.82607 0.57181 0.15039 0.0
C711 C 0.84062 0.58169 0.12321 0.0
C712 C 0.81966 0.62551 0.16494 0.0
N713 N 0.83606 0.63489 0.13946 0.0
H714 H 0.85998 0.61972 0.09892 0.0
H715 H 0.81334 0.64137 0.18284 0.0
H716 H 0.88085 0.63311 0.19359 0.0
H717 H 0.85348 0.72586 0.18784 0.0
O718 O 0.89731 0.66008 0.13152 0.0
O719 O 0.88487 0.70992 0.13274 0.0
O720 O 0.81555 0.69976 0.13988 0.0
C721 C 0.90638 0.68864 0.13145 0.0
H722 H 0.80603 0.67808 0.02967 0.0
H723 H 0.88722 0.65881 0.24958 0.0
H724 H 0.80329 0.58735 0.19228 0.0
H725 H 0.85033 0.5651 0.107 0.0
Co726 Co 0.33555 0.86136 0.139 0.0
C727 C 0.32656 0.86933 0.0707 0.0
C728 C 0.34637 0.8252 0.08142 0.0
C729 C 0.34102 0.82641 0.05004 0.0
N730 N 0.33725 0.85208 0.09463 0.0
N731 N 0.32859 0.85412 0.04342 0.0
H732 H 0.31699 0.89232 0.0729 0.0
H733 H 0.35684 0.80607 0.09341 0.0
C734 C 0.31584 0.79403 0.14529 0.0
O735 O 0.34462 0.78437 0.1435 0.0
N736 N 0.33194 0.87055 0.18281 0.0
C737 C 0.35116 0.88754 0.20062 0.0
C738 C 0.33834 0.89021 0.22983 0.0
C739 C 0.3076 0.86357 0.20111 0.0
N740 N 0.31102 0.875 0.23006 0.0
C741 C 0.39912 0.84934 0.12704 0.0
C742 C 0.41265 0.82339 0.184 0.0
C743 C 0.43697 0.83341 0.16502 0.0
C744 C 0.42997 0.84521 0.1357 0.0
C745 C 0.38194 0.82715 0.17406 0.0
N746 N 0.37539 0.84106 0.1463 0.0
H747 H 0.39444 0.86189 0.10593 0.0
H748 H 0.36342 0.82096 0.18977 0.0
H749 H 0.37265 0.89773 0.19275 0.0
H750 H 0.28754 0.85075 0.19328 0.0
O751 O 0.35261 0.90163 0.13206 0.0
O752 O 0.30222 0.89087 0.13225 0.0
O753 O 0.30956 0.82292 0.14485 0.0
C754 C 0.32425 0.91146 0.13029 0.0
H755 H 0.34658 0.80864 0.03319 0.0
H756 H 0.34786 0.90331 0.249 0.0
H757 H 0.41728 0.81427 0.2069 0.0
H758 H 0.44819 0.85369 0.12065 0.0
Co759 Co 0.67071 0.15359 0.13202 0.0
C760 C 0.68341 0.14297 0.06458 0.0
C761 C 0.6638 0.18762 0.07394 0.0
C762 C 0.67202 0.18632 0.04315 0.0
N763 N 0.67076 0.16042 0.08747 0.0
N764 N 0.68439 0.15829 0.03731 0.0
H765 H 0.69308 0.12016 0.06789 0.0
H766 H 0.65454 0.20757 0.08599 0.0
C767 C 0.70125 0.21258 0.1578 0.0
O768 O 0.69093 0.20744 0.1859 0.0
N769 N 0.67278 0.14681 0.1764 0.0
C770 C 0.65043 0.14141 0.19758 0.0
C771 C 0.66422 0.13894 0.22647 0.0
C772 C 0.69964 0.1456 0.19226 0.0
N773 N 0.69515 0.14228 0.22297 0.0
C774 C 0.60732 0.16102 0.11734 0.0
C775 C 0.59104 0.19957 0.16587 0.0
C776 C 0.56772 0.18448 0.14919 0.0
C777 C 0.57604 0.1662 0.12377 0.0
C778 C 0.62219 0.19426 0.15821 0.0
N779 N 0.6301 0.17371 0.13535 0.0
H780 H 0.61322 0.14467 0.09927 0.0
H781 H 0.63936 0.20445 0.17279 0.0
H782 H 0.62592 0.13974 0.19258 0.0
H783 H 0.7221 0.14816 0.18139 0.0
O784 O 0.65483 0.11248 0.12702 0.0
O785 O 0.70488 0.12407 0.128 0.0
O786 O 0.69481 0.19398 0.13551 0.0
C787 C 0.68328 0.10295 0.12654 0.0
H788 H 0.66937 0.20467 0.02634 0.0
H789 H 0.65238 0.13578 0.24837 0.0
H790 H 0.58531 0.21377 0.1858 0.0
H791 H 0.55855 0.15404 0.11047 0.0
C792 C 0.16731 0.18762 0.52657 0.0
C793 C 0.18289 0.16065 0.53616 0.0
C794 C 0.16126 0.19318 0.49499 0.0
C795 C 0.17113 0.17223 0.47204 0.0
H796 H 0.15788 0.20342 0.54371 0.0
H797 H 0.14742 0.21308 0.48862 0.0
S798 S 0.2152 0.09984 0.48476 0.0
N799 N 0.20975 0.11397 0.51999 0.0
N800 N 0.19891 0.12472 0.46075 0.0
C801 C 0.18834 0.14625 0.4812 0.0
C802 C 0.19413 0.14039 0.51324 0.0
C803 C 0.84758 0.18587 0.47435 0.0
C804 C 0.83637 0.15698 0.46402 0.0
C805 C 0.85335 0.19155 0.50603 0.0
C806 C 0.84797 0.16857 0.52834 0.0
H807 H 0.85358 0.20358 0.4577 0.0
H808 H 0.86347 0.21342 0.5129 0.0
S809 S 0.81495 0.09079 0.51409 0.0
N810 N 0.81721 0.10646 0.47927 0.0
N811 N 0.82827 0.11709 0.5385 0.0
C812 C 0.8351 0.14038 0.51856 0.0
C813 C 0.82923 0.1346 0.48648 0.0
C814 C 0.85676 0.81728 0.49452 0.0
C815 C 0.84786 0.83805 0.47116 0.0
C816 C 0.85009 0.82348 0.52592 0.0
C817 C 0.83476 0.85089 0.53497 0.0
H818 H 0.87003 0.79682 0.4886 0.0
H819 H 0.85852 0.80757 0.54335 0.0
S820 S 0.80487 0.91146 0.48213 0.0
N821 N 0.82144 0.88598 0.4588 0.0
N822 N 0.80918 0.89781 0.51762 0.0
C823 C 0.8247 0.87111 0.51157 0.0
C824 C 0.83121 0.86465 0.47972 0.0
C825 C 0.15565 0.81521 0.5241 0.0
C826 C 0.17066 0.83259 0.54725 0.0
C827 C 0.16194 0.82025 0.49253 0.0
C828 C 0.18291 0.84329 0.48312 0.0
H829 H 0.13792 0.79867 0.53043 0.0
H830 H 0.14877 0.80752 0.47534 0.0
S831 S 0.22906 0.89403 0.53471 0.0
N832 N 0.20853 0.87247 0.55871 0.0
N833 N 0.21964 0.88255 0.49936 0.0
C834 C 0.19895 0.85988 0.50606 0.0
C835 C 0.193 0.85436 0.53816 0.0
C836 C 0.48035 0.19343 0.15251 0.0
C837 C 0.47207 0.17142 0.17502 0.0
C838 C 0.51163 0.19905 0.14527 0.0
C839 C 0.53548 0.18329 0.16079 0.0
H840 H 0.46253 0.20487 0.13904 0.0
H841 H 0.51715 0.21477 0.12656 0.0
S842 S 0.526 0.12504 0.22288 0.0
N843 N 0.49016 0.13486 0.21357 0.0
N844 N 0.5489 0.14605 0.20061 0.0
C845 C 0.5275 0.16253 0.18446 0.0
C846 C 0.49577 0.15643 0.19143 0.0
C847 C 0.81626 0.51601 0.13814 0.0
C848 C 0.82712 0.53862 0.15896 0.0
C849 C 0.82189 0.48449 0.14334 0.0
C850 C 0.83877 0.47459 0.16937 0.0
H851 H 0.80441 0.52285 0.11709 0.0
H852 H 0.81443 0.46785 0.12606 0.0
S853 S 0.87187 0.52424 0.23099 0.0
N854 N 0.85487 0.54871 0.20704 0.0
N855 N 0.86568 0.48942 0.21643 0.0
C856 C 0.84881 0.49674 0.19088 0.0
C857 C 0.84287 0.5288 0.18579 0.0
C858 C 0.52455 0.82829 0.16734 0.0
C859 C 0.53223 0.85071 0.18972 0.0
C860 C 0.49349 0.82118 0.16076 0.0
C861 C 0.46917 0.83592 0.17672 0.0
H862 H 0.54263 0.81753 0.15356 0.0
H863 H 0.48842 0.80511 0.14213 0.0
S864 S 0.47729 0.89519 0.23846 0.0
N865 N 0.51335 0.8868 0.2285 0.0
N866 N 0.4549 0.87297 0.21674 0.0
C867 C 0.47666 0.85718 0.20029 0.0
C868 C 0.50826 0.86475 0.20662 0.0
C869 C 0.15872 0.48522 0.19358 0.0
C870 C 0.17738 0.47608 0.16834 0.0
C871 C 0.15253 0.51659 0.19946 0.0
C872 C 0.16539 0.5398 0.18072 0.0
H873 H 0.14736 0.46794 0.20771 0.0
H874 H 0.13663 0.5227 0.21795 0.0
S875 S 0.2174 0.52813 0.11327 0.0
N876 N 0.2097 0.49278 0.12545 0.0
N877 N 0.19873 0.55174 0.13701 0.0
C878 C 0.18534 0.53104 0.15649 0.0
C879 C 0.19118 0.49915 0.15016 0.0
C880 C 0.48922 0.82658 0.87 0.0
C881 C 0.47936 0.84118 0.84263 0.0
C882 C 0.52073 0.82073 0.87562 0.0
C883 C 0.54373 0.82939 0.85413 0.0
H884 H 0.4725 0.82093 0.88788 0.0
H885 H 0.52729 0.8106 0.89761 0.0
S886 S 0.52963 0.86718 0.7782 0.0
N887 N 0.49463 0.86292 0.79319 0.0
N888 N 0.55401 0.85229 0.80367 0.0
C889 C 0.53395 0.84263 0.82591 0.0
C890 C 0.50174 0.84852 0.82021 0.0
C891 C 0.18907 0.48088 0.87084 0.0
C892 C 0.17524 0.4709 0.84302 0.0
C893 C 0.19311 0.51249 0.87725 0.0
C894 C 0.1837 0.53525 0.85596 0.0
H895 H 0.19529 0.46418 0.88845 0.0
H896 H 0.20261 0.51923 0.89952 0.0
S897 S 0.14698 0.52086 0.77946 0.0
N898 N 0.15274 0.48596 0.79383 0.0
N899 N 0.16067 0.54536 0.80552 0.0
C900 C 0.17107 0.52542 0.82747 0.0
C901 C 0.16668 0.49324 0.82113 0.0
C902 C 0.50601 0.17806 0.86828 0.0
C903 C 0.48344 0.1672 0.84731 0.0
C904 C 0.53773 0.1726 0.86327 0.0
C905 C 0.54812 0.15597 0.83719 0.0
H906 H 0.499 0.19016 0.88918 0.0
H907 H 0.55423 0.18051 0.88048 0.0
S908 S 0.49903 0.12274 0.77515 0.0
N909 N 0.47409 0.13931 0.79911 0.0
N910 N 0.53378 0.12917 0.78992 0.0
C911 C 0.52608 0.14571 0.81561 0.0
C912 C 0.49373 0.15137 0.82058 0.0
C913 C 0.86534 0.51563 0.81257 0.0
C914 C 0.84813 0.53817 0.82869 0.0
C915 C 0.85975 0.48397 0.8171 0.0
C916 C 0.83719 0.47387 0.83834 0.0
H917 H 0.88417 0.52253 0.79746 0.0
H918 H 0.87451 0.4673 0.80545 0.0
S919 S 0.78526 0.52355 0.8854 0.0
N920 N 0.80667 0.54819 0.86553 0.0
N921 N 0.7968 0.4887 0.87463 0.0
C922 C 0.81905 0.49614 0.85363 0.0
C923 C 0.82435 0.52831 0.84862 0.0
C924 C 0.11728 0.01095 0.33923 0.0
C925 C 0.14552 0.99974 0.32747 0.0
C926 C 0.10904 0.04216 0.33574 0.0
C927 C 0.12828 0.06279 0.3195 0.0
H928 H 0.10282 0.99614 0.35333 0.0
H929 H 0.08856 0.05069 0.34758 0.0
S930 S 0.20279 0.04374 0.28123 0.0
N931 N 0.19143 0.01083 0.29691 0.0
N932 N 0.17539 0.06922 0.28941 0.0
C933 C 0.15518 0.05116 0.30535 0.0
C934 C 0.16398 0.01965 0.30962 0.0
C935 C 0.96461 0.11096 0.31241 0.0
C936 C 0.94461 0.13386 0.30072 0.0
C937 C 0.99612 0.11716 0.31773 0.0
C938 C 0.00831 0.14674 0.31241 0.0
H939 H 0.95529 0.08895 0.3199 0.0
H940 H 0.01031 0.09967 0.32873 0.0
S941 S 0.9665 0.21353 0.27865 0.0
N942 N 0.94 0.18608 0.28087 0.0
N943 N 0.99899 0.19808 0.29181 0.0
C944 C 0.98915 0.16903 0.29848 0.0
C945 C 0.95731 0.16247 0.29233 0.0
C946 C 0.87641 0.95992 0.2907 0.0
C947 C 0.88553 0.94741 0.31924 0.0
C948 C 0.87066 0.99168 0.28768 0.0
C949 C 0.87338 0.01211 0.31319 0.0
H950 H 0.87223 0.94497 0.27094 0.0
H951 H 0.86293 1.00007 0.26537 0.0
S952 S 0.9007 0.99142 0.39198 0.0
N953 N 0.90098 0.95851 0.37257 0.0
N954 N 0.88859 0.01769 0.36713 0.0
C955 C 0.88461 1.00017 0.34124 0.0
C956 C 0.891 0.96795 0.3442 0.0
C957 C 0.01488 0.88807 0.34248 0.0
C958 C 1.00468 0.86237 0.32519 0.0
C959 C 0.04662 0.89504 0.34491 0.0
C960 C 0.06903 0.87714 0.32936 0.0
H961 H 0.99829 0.90292 0.35407 0.0
H962 H 0.05372 0.91443 0.35918 0.0
S963 S 0.0552 0.80556 0.28429 0.0
N964 N 0.02035 0.8171 0.29516 0.0
N965 N 0.07939 0.83176 0.29795 0.0
C966 C 0.05928 0.85148 0.31215 0.0
C967 C 0.02725 0.84369 0.31053 0.0
C968 C 0.11659 0.99693 0.67859 0.0
C969 C 0.14434 0.0085 0.69105 0.0
C970 C 0.10861 0.96566 0.68207 0.0
C971 C 0.12759 0.94531 0.69901 0.0
H972 H 0.1023 0.01152 0.66406 0.0
H973 H 0.08855 0.95689 0.66977 0.0
S974 S 0.20064 0.96532 0.73935 0.0
N975 N 0.18937 0.99803 0.72315 0.0
N976 N 0.17386 0.93951 0.73045 0.0
C977 C 0.15395 0.95727 0.71377 0.0
C978 C 0.16249 0.98885 0.70958 0.0
C979 C 0.05448 0.15502 0.70559 0.0
C980 C 0.06727 0.12835 0.69204 0.0
C981 C 0.02297 0.16225 0.70156 0.0
C982 C 1.00324 0.14276 0.68434 0.0
H983 H 0.0694 0.17178 0.71686 0.0
H984 H 0.0143 0.18403 0.71047 0.0
S985 S 0.025 0.06857 0.64724 0.0
N986 N 0.05757 0.08132 0.66281 0.0
N987 N 0.99819 0.09443 0.65616 0.0
C988 C 0.01525 0.11479 0.67301 0.0
C989 C 0.04738 0.10774 0.67659 0.0
C990 C 0.89004 0.01435 0.67227 0.0
C991 C 0.86321 1.00385 0.6874 0.0
C992 C 0.89816 0.04575 0.6729 0.0
C993 C 0.88025 0.06747 0.68943 0.0
H994 H 0.90343 0.99863 0.65797 0.0
H995 H 0.91746 0.05342 0.65879 0.0
S996 S 0.8102 0.05092 0.73617 0.0
N997 N 0.82044 0.01699 0.72171 0.0
N998 N 0.83621 0.07588 0.72348 0.0
C999 C 0.85495 0.05681 0.7068 0.0
C1000 C 0.84626 0.02499 0.70559 0.0
C1001 C 0.99379 0.89544 0.67838 0.0
C1002 C 1.00546 0.8691 0.69333 0.0
C1003 C 0.96199 0.90251 0.67943 0.0
C1004 C 0.94107 0.88398 0.69621 0.0
H1005 H 0.00889 0.90911 0.66378 0.0
H1006 H 0.9534 0.92143 0.66542 0.0
S1007 S 0.96097 0.81447 0.74203 0.0
N1008 N 0.99437 0.82584 0.72717 0.0
N1009 N 0.93483 0.83972 0.73008 0.0
C1010 C 0.95298 0.85915 0.71335 0.0
C1011 C 0.98517 0.85152 0.71163 0.0
C1012 C 0.34106 0.11631 0.01358 0.0
C1013 C 0.32767 0.14322 1.00126 0.0
C1014 C 0.3379 0.1092 0.04518 0.0
C1015 C 0.32041 0.12819 0.06517 0.0
H1016 H 0.35596 0.10205 0.99924 0.0
H1017 H 0.35078 0.08979 0.05446 0.0
S1018 S 0.27761 0.19908 0.04332 0.0
N1019 N 0.29409 0.18738 0.01071 0.0
N1020 N 0.28749 0.17348 0.06991 0.0
C1021 C 0.30479 0.15366 0.05255 0.0
C1022 C 0.30862 0.16134 0.02059 0.0
C1023 C 0.85817 0.30517 0.05051 0.0
C1024 C 0.88526 0.31858 0.06255 0.0
C1025 C 0.85073 0.30812 0.01898 0.0
C1026 C 0.87045 0.32398 0.99848 0.0
H1027 H 0.84125 0.29497 0.066 0.0
H1028 H 0.82861 0.2995 0.01083 0.0
S1029 S 0.94573 0.36005 0.01813 0.0
N1030 N 0.9329 0.34619 0.05143 0.0
N1031 N 0.91944 0.35068 0.99188 0.0
C1032 C 0.89883 0.33509 0.00978 0.0
C1033 C 0.90609 0.33268 0.04196 0.0
C1034 C 0.67791 0.89367 0.02024 0.0
C1035 C 0.68547 0.86355 0.0103 0.0
C1036 C 0.67698 0.90115 0.05216 0.0
C1037 C 0.68438 0.87895 0.07487 0.0
H1038 H 0.67311 0.91149 1.00333 0.0
H1039 H 0.67026 0.92429 0.05913 0.0
S1040 S 0.70133 0.79612 0.06085 0.0
N1041 N 0.69693 0.81089 0.02591 0.0
N1042 N 0.69664 0.82532 0.08508 0.0
C1043 C 0.69127 0.84884 0.06506 0.0
C1044 C 0.69146 0.84105 0.03299 0.0
C1045 C 0.10873 0.67395 0.05095 0.0
C1046 C 0.12542 0.69226 0.07219 0.0
C1047 C 0.11759 0.67202 0.01964 0.0
C1048 C 0.14403 0.68755 0.00881 0.0
H1049 H 0.08979 0.65963 0.05899 0.0
H1050 H 0.10511 0.65653 1.00434 0.0
S1051 S 0.19422 0.74024 0.05447 0.0
N1052 N 0.16808 0.72806 0.07964 0.0
N1053 N 0.18528 0.72374 0.02103 0.0
C1054 C 0.15984 0.70726 0.02939 0.0
C1055 C 0.15036 0.70983 0.06105 0.0
C1056 C 0.30505 0.84681 0.99191 0.0
C1057 C 0.32171 0.86542 0.01288 0.0
C1058 C 0.30354 0.85426 0.96027 0.0
C1059 C 0.31926 0.88017 0.94865 0.0
H1060 H 0.29458 0.82551 0.99981 0.0
H1061 H 0.29248 0.83814 0.9445 0.0
S1062 S 0.36375 0.9376 0.99434 0.0
N1063 N 0.35178 0.91222 0.02028 0.0
N1064 N 0.34992 0.92566 0.96065 0.0
C1065 C 0.33426 0.89997 0.96968 0.0
C1066 C 0.33523 0.89275 1.00191 0.0
C1067 C 0.15811 0.30288 0.96163 0.0
C1068 C 0.13219 0.31788 0.94894 0.0
C1069 C 0.16557 0.30642 0.99314 0.0
C1070 C 0.14705 0.32461 0.01299 0.0
H1071 H 0.17419 0.29066 0.94664 0.0
H1072 H 0.18672 0.29606 1.00178 0.0
S1073 S 0.07494 0.36587 0.99144 0.0
N1074 N 0.08683 0.34968 0.95878 0.0
N1075 N 0.10031 0.35553 0.01819 0.0
C1076 C 0.11977 0.33765 1.00102 0.0
C1077 C 0.1125 0.3345 0.96889 0.0
C1078 C 0.71166 0.16796 0.98782 0.0
C1079 C 0.69583 0.14754 0.00772 0.0
C1080 C 0.71759 0.16014 0.95671 0.0
C1081 C 0.70754 0.13178 0.94445 0.0
H1082 H 0.71797 0.1908 0.99594 0.0
H1083 H 0.72728 0.17756 0.94153 0.0
S1084 S 0.66832 0.06891 0.98747 0.0
N1085 N 0.67308 0.09656 0.01353 0.0
N1086 N 0.68374 0.08213 0.95504 0.0
C1087 C 0.69397 0.11026 0.96468 0.0
C1088 C 0.68824 0.11805 0.99637 0.0
C1089 C 0.8623 0.70864 0.9579 0.0
C1090 C 0.88525 0.68858 0.94643 0.0
C1091 C 0.85349 0.7078 0.98926 0.0
C1092 C 0.86782 0.68739 0.01023 0.0
H1093 H 0.84937 0.72327 0.94216 0.0
H1094 H 0.83443 0.72222 0.99694 0.0
S1095 S 0.93156 0.63278 0.99226 0.0
N1096 N 0.92374 0.64948 0.95873 0.0
N1097 N 0.90777 0.64862 0.01782 0.0
C1098 C 0.89238 0.66897 0.99948 0.0
C1099 C 0.90092 0.66936 0.96748 0.0
C1100 C 0.01609 0.33577 0.11592 0.0
C1101 C 1.00333 0.32394 0.14337 0.0
C1102 C 0.04797 0.33311 0.10995 0.0
C1103 C 0.06772 0.31772 0.13081 0.0
H1104 H 1.00184 0.3494 0.10043 0.0
H1105 H 0.05758 0.34504 0.09009 0.0
S1106 S 0.04452 0.2795 0.20393 0.0
N1107 N 0.01196 0.29419 0.19015 0.0
N1108 N 0.0717 0.2881 0.17835 0.0
C1109 C 0.05462 0.30336 0.15681 0.0
C1110 C 0.02239 0.30679 0.16328 0.0
C1111 C 0.01741 0.67514 0.89659 0.0
C1112 C 1.00635 0.68948 0.8696 0.0
C1113 C 0.04891 0.67678 0.90458 0.0
C1114 C 0.07005 0.6936 0.88637 0.0
H1115 H 1.00216 0.66053 0.91007 0.0
H1116 H 0.05717 0.66317 0.92397 0.0
S1117 S 0.05155 0.73845 0.81573 0.0
N1118 N 0.0181 0.72313 0.82625 0.0
N1119 N 0.07711 0.72715 0.8419 0.0
C1120 C 0.05866 0.71029 0.86096 0.0
C1121 C 0.02679 0.70795 0.85238 0.0
C1122 C 0.30833 0.05052 0.85676 0.0
C1123 C 0.32278 0.06311 0.88309 0.0
C1124 C 0.31107 0.01889 0.84982 0.0
C1125 C 0.32789 0.99883 0.86925 0.0
H1126 H 0.29729 0.06558 0.84 0.0
H1127 H 0.30135 0.0103 0.82831 0.0
S1128 S 0.36711 0.02012 0.94265 0.0
N1129 N 0.35251 0.05299 0.92976 0.0
N1130 N 0.35679 0.99342 0.91722 0.0
C1131 C 0.34022 0.01077 0.8969 0.0
C1132 C 0.33793 0.04301 0.90366 0.0
C1133 C 0.96821 0.33591 0.89976 0.0
C1134 C 0.94847 0.31835 0.88061 0.0
C1135 C 1.00023 0.33728 0.89406 0.0
C1136 C 0.01325 0.32184 0.86851 0.0
H1137 H 0.95854 0.35023 0.91804 0.0
H1138 H 0.01445 0.35248 0.90807 0.0
S1139 S 0.97215 0.27063 0.81323 0.0
N1140 N 0.94467 0.28303 0.83693 0.0
N1141 N 1.00476 0.2864 0.82566 0.0
C1142 C 0.99412 0.30264 0.85049 0.0
C1143 C 0.96169 0.30066 0.85672 0.0
C1144 C 0.72518 0.98967 0.87529 0.0
C1145 C 0.69918 0.00952 0.87733 0.0
C1146 C 0.72293 0.95806 0.88198 0.0
C1147 C 0.6947 0.94514 0.89145 0.0
H1148 H 0.74726 0.99829 0.86718 0.0
H1149 H 0.74297 0.94346 0.87802 0.0
S1150 S 0.6213 0.98793 0.90653 0.0
N1151 N 0.64537 0.01439 0.89326 0.0
N1152 N 0.64141 0.95548 0.90742 0.0
C1153 C 0.66939 0.96527 0.89674 0.0
C1154 C 0.67156 0.99735 0.88937 0.0
C1155 C 0.9924 0.67747 0.12304 0.0
C1156 C 1.00349 0.69064 0.15069 0.0
C1157 C 0.96085 0.67935 0.11524 0.0
C1158 C 0.9397 0.69531 0.13434 0.0
H1159 H 0.00771 0.66361 0.10873 0.0
H1160 H 0.95261 0.66669 0.09515 0.0
S1161 S 0.95805 0.73652 0.20745 0.0
N1162 N 0.9916 0.72193 0.19597 0.0
N1163 N 0.93252 0.72647 0.18071 0.0
C1164 C 0.95105 0.71068 0.16066 0.0
C1165 C 0.98295 0.70806 0.16903 0.0
C1166 C 0.30534 0.98951 0.16257 0.0
C1167 C 0.3237 0.00897 0.14406 0.0
C1168 C 0.3024 0.95795 0.15566 0.0
C1169 C 0.3184 0.94488 0.13046 0.0
H1170 H 0.29457 0.99852 0.18343 0.0
H1171 H 0.28991 0.94328 0.17171 0.0
S1172 S 0.36716 0.98647 0.07349 0.0
N1173 N 0.35568 0.01358 0.09803 0.0
N1174 N 0.35125 0.95396 0.08566 0.0
C1175 C 0.33523 0.96444 0.11073 0.0
C1176 C 0.3376 0.99664 0.11735 0.0
C1177 C 0.70442 0.05811 0.15534 0.0
C1178 C 0.68935 0.06953 0.12888 0.0
C1179 C 0.70102 0.02707 0.16419 0.0
C1180 C 0.68293 0.00638 0.14658 0.0
H1181 H 0.71657 0.07378 0.17075 0.0
H1182 H 0.71128 0.01953 0.18581 0.0
S1183 S 0.64201 0.02429 0.07328 0.0
N1184 N 0.65792 0.05743 0.08378 0.0
N1185 N 0.65234 0.99891 0.09993 0.0
C1186 C 0.67 0.01697 0.1187 0.0
C1187 C 0.67298 0.04865 0.11 0.0
C1188 C 0.13665 0.26964 0.30412 0.0
C1189 C 0.13266 0.23829 0.29619 0.0
C1190 C 0.13573 0.2929 0.28151 0.0
C1191 C 0.13067 0.28579 0.25006 0.0
H1192 H 0.14082 0.27632 0.32799 0.0
H1193 H 0.1396 0.3166 0.28863 0.0
S1194 S 0.11579 0.20761 0.21747 0.0
N1195 N 0.12167 0.20159 0.25478 0.0
N1196 N 0.11945 0.24523 0.21252 0.0
C1197 C 0.12597 0.25459 0.2419 0.0
C1198 C 0.12709 0.23089 0.26487 0.0
C1199 C 0.71664 0.12492 0.27315 0.0
C1200 C 0.71857 0.14386 0.24681 0.0
C1201 C 0.74046 0.1245 0.29534 0.0
C1202 C 0.76709 0.14311 0.29207 0.0
H1203 H 0.69712 0.10949 0.27603 0.0
H1204 H 0.73839 0.10863 0.3146 0.0
S1205 S 0.78127 0.20012 0.22949 0.0
N1206 N 0.74773 0.18417 0.22048 0.0
N1207 N 0.79238 0.18322 0.26188 0.0
C1208 C 0.76848 0.16334 0.26665 0.0
C1209 C 0.74429 0.16374 0.2441 0.0
C1210 C 0.8956 0.74699 0.29538 0.0
C1211 C 0.87346 0.77097 0.29684 0.0
C1212 C 0.89353 0.7234 0.27311 0.0
C1213 C 0.86923 0.72278 0.25145 0.0
H1214 H 0.9153 0.74687 0.31095 0.0
H1215 H 0.91163 0.70606 0.27221 0.0
S1216 S 0.80316 0.77778 0.24769 0.0
N1217 N 0.82508 0.7911 0.27612 0.0
N1218 N 0.82097 0.74655 0.23461 0.0
C1219 C 0.84626 0.74587 0.25339 0.0
C1220 C 0.84842 0.76999 0.27598 0.0
C1221 C 0.25695 0.8743 0.24903 0.0
C1222 C 0.28896 0.87303 0.25515 0.0
C1223 C 0.2351 0.8732 0.27312 0.0
C1224 C 0.24435 0.87075 0.30436 0.0
H1225 H 0.24871 0.87685 0.22547 0.0
H1226 H 0.21077 0.87485 0.26713 0.0
S1227 S 0.32554 0.86359 0.33236 0.0
N1228 N 0.32883 0.86699 0.29438 0.0
N1229 N 0.28801 0.86517 0.33976 0.0
C1230 C 0.27636 0.86865 0.31069 0.0
C1231 C 0.29858 0.86978 0.2861 0.0
C1232 C 0.1297 0.77529 0.75343 0.0
C1233 C 0.13688 0.76854 0.72227 0.0
C1234 C 0.12997 0.75214 0.7762 0.0
C1235 C 0.13741 0.72127 0.76879 0.0
H1236 H 0.12341 0.79858 0.76029 0.0
H1237 H 0.12394 0.75842 0.79976 0.0
S1238 S 0.16105 0.69191 0.69138 0.0
N1239 N 0.15356 0.72888 0.68568 0.0
N1240 N 0.15433 0.6857 0.72852 0.0
C1241 C 0.14527 0.71432 0.73791 0.0
C1242 C 0.14497 0.73784 0.71469 0.0
C1243 C 0.25548 0.17323 0.73724 0.0
C1244 C 0.23904 0.14886 0.72307 0.0
C1245 C 0.28024 0.16746 0.75741 0.0
C1246 C 0.28996 0.13721 0.76388 0.0
H1247 H 0.24877 0.19705 0.7334 0.0
H1248 H 0.29184 0.18678 0.76834 0.0
S1249 S 0.25591 0.06513 0.73262 0.0
N1250 N 0.23501 0.09297 0.71684 0.0
N1251 N 0.28204 0.08256 0.75454 0.0
C1252 C 0.27452 0.1126 0.74945 0.0
C1253 C 0.2489 0.11834 0.72916 0.0
C1254 C 0.84106 0.27607 0.75211 0.0
C1255 C 0.87113 0.28651 0.75882 0.0
C1256 C 0.83592 0.25257 0.73026 0.0
C1257 C 0.86076 0.23792 0.7148 0.0
H1258 H 0.82134 0.2862 0.76395 0.0
H1259 H 0.81226 0.24536 0.72608 0.0
S1260 S 0.94416 0.25702 0.72431 0.0
N1261 N 0.9261 0.28104 0.74809 0.0
N1262 N 0.91673 0.23621 0.70763 0.0
C1263 C 0.89103 0.24838 0.72121 0.0
C1264 C 0.89615 0.27283 0.74303 0.0
C1265 C 0.73409 0.89223 0.74923 0.0
C1266 C 0.71989 0.86737 0.76461 0.0
C1267 C 0.75873 0.88722 0.72827 0.0
C1268 C 0.7697 0.85714 0.72167 0.0
H1269 H 0.72703 0.91569 0.7545 0.0
H1270 H 0.76954 0.90708 0.71754 0.0
S1271 S 0.73868 0.7843 0.75509 0.0
N1272 N 0.71745 0.81183 0.77106 0.0
N1273 N 0.76322 0.80213 0.73186 0.0
C1274 C 0.75472 0.8321 0.73622 0.0
C1275 C 0.72999 0.8373 0.75762 0.0
C1276 C 0.2403 0.13465 0.25653 0.0
C1277 C 0.24726 0.13778 0.28828 0.0
C1278 C 0.26367 0.13591 0.23384 0.0
C1279 C 0.29501 0.14044 0.24196 0.0
H1280 H 0.21666 0.13052 0.24921 0.0
H1281 H 0.2571 0.13281 0.20979 0.0
S1282 S 0.32485 0.15296 0.32194 0.0
N1283 N 0.28724 0.14771 0.32656 0.0
N1284 N 0.33122 0.14999 0.2843 0.0
C1285 C 0.30208 0.14443 0.27368 0.0
C1286 C 0.27825 0.14307 0.29672 0.0
C1287 C 0.87678 0.27016 0.23102 0.0
C1288 C 0.87482 0.30161 0.23923 0.0
C1289 C 0.87783 0.247 0.25362 0.0
C1290 C 0.87685 0.25415 0.28549 0.0
H1291 H 0.8778 0.26322 0.20688 0.0
H1292 H 0.87973 0.22322 0.24598 0.0
S1293 S 0.87063 0.33257 0.3197 0.0
N1294 N 0.87144 0.33858 0.2819 0.0
N1295 N 0.87307 0.29476 0.32421 0.0
C1296 C 0.87486 0.28538 0.29417 0.0
C1297 C 0.87383 0.30913 0.27112 0.0
C1298 C 0.73014 0.84131 0.26454 0.0
C1299 C 0.71837 0.86635 0.24725 0.0
C1300 C 0.7507 0.84585 0.28921 0.0
C1301 C 0.76014 0.87558 0.29815 0.0
H1302 H 0.72425 0.81773 0.25847 0.0
H1303 H 0.76006 0.82581 0.30098 0.0
S1304 S 0.7357 0.94921 0.26189 0.0
N1305 N 0.71727 0.92236 0.24177 0.0
N1306 N 0.75593 0.93064 0.28855 0.0
C1307 C 0.74794 0.90099 0.28201 0.0
C1308 C 0.72712 0.89642 0.25646 0.0
C1309 C 0.13491 0.74672 0.24238 0.0
C1310 C 0.13733 0.71505 0.24958 0.0
C1311 C 0.13606 0.7695 0.26569 0.0
C1312 C 0.13961 0.76157 0.29716 0.0
H1313 H 0.13159 0.75403 0.21861 0.0
H1314 H 0.13342 0.79348 0.25909 0.0
S1315 S 0.14999 0.68248 0.32834 0.0
N1316 N 0.14543 0.6773 0.29067 0.0
N1317 N 0.14769 0.72014 0.33406 0.0
C1318 C 0.14283 0.73017 0.30463 0.0
C1319 C 0.14171 0.70695 0.28098 0.0
C1320 C 0.28691 0.88015 0.76826 0.0
C1321 C 0.29074 0.85057 0.78137 0.0
C1322 C 0.26509 0.88548 0.74464 0.0
C1323 C 0.24589 0.86159 0.73366 0.0
H1324 H 0.30075 0.8994 0.77642 0.0
H1325 H 0.26255 0.90864 0.73553 0.0
S1326 S 0.24684 0.7799 0.75954 0.0
N1327 N 0.27361 0.79693 0.78093 0.0
N1328 N 0.23272 0.80715 0.73682 0.0
C1329 C 0.24971 0.83189 0.74622 0.0
C1330 C 0.27211 0.82633 0.76995 0.0
C1331 C 0.15109 0.29906 0.74179 0.0
C1332 C 0.14264 0.29285 0.77274 0.0
C1333 C 0.14885 0.27632 0.71858 0.0
C1334 C 0.13803 0.24642 0.7253 0.0
H1335 H 0.15979 0.32164 0.73541 0.0
H1336 H 0.15621 0.28201 0.69528 0.0
S1337 S 0.11019 0.21888 0.80184 0.0
N1338 N 0.12139 0.25478 0.80836 0.0
N1339 N 0.11678 0.21241 0.76467 0.0
C1340 C 0.1289 0.24003 0.75595 0.0
C1341 C 0.13131 0.26311 0.77965 0.0
C1342 C 0.71842 0.11696 0.74087 0.0
C1343 C 0.71986 0.13776 0.76608 0.0
C1344 C 0.74015 0.11806 0.71664 0.0
C1345 C 0.76414 0.13999 0.71665 0.0
H1346 H 0.70099 0.09898 0.74024 0.0
H1347 H 0.73875 0.10098 0.6983 0.0
S1348 S 0.77584 0.20223 0.77501 0.0
N1349 N 0.74577 0.18262 0.78806 0.0
N1350 N 0.78622 0.18495 0.74243 0.0
C1351 C 0.76505 0.16177 0.74099 0.0
C1352 C 0.74301 0.1606 0.76569 0.0
C1353 C 0.8727 0.71101 0.73924 0.0
C1354 C 0.87615 0.71776 0.77105 0.0
C1355 C 0.87289 0.73446 0.71682 0.0
C1356 C 0.87649 0.76569 0.72518 0.0
H1357 H 0.86973 0.68738 0.73145 0.0
H1358 H 0.8697 0.72808 0.69274 0.0
S1359 S 0.88822 0.79579 0.80514 0.0
N1360 N 0.8843 0.75814 0.80962 0.0
N1361 N 0.88495 0.80199 0.76755 0.0
C1362 C 0.88023 0.77281 0.75688 0.0
C1363 C 0.87999 0.74893 0.77976 0.0
C1364 C 0.27336 0.26524 0.12384 0.0
C1365 C 0.28662 0.24791 0.14794 0.0
C1366 C 0.24889 0.28592 0.12972 0.0
C1367 C 0.23722 0.29029 0.15998 0.0
H1368 H 0.2812 0.26191 0.1002 0.0
H1369 H 0.23886 0.29831 0.11036 0.0
S1370 S 0.2656 0.25129 0.23124 0.0
N1371 N 0.2875 0.23723 0.20314 0.0
N1372 N 0.24175 0.27595 0.21442 0.0
C1373 C 0.25111 0.2737 0.18438 0.0
C1374 C 0.27572 0.25252 0.17829 0.0
C1375 C 0.24197 0.7402 0.89127 0.0
C1376 C 0.24201 0.71995 0.86558 0.0
C1377 C 0.26692 0.76031 0.89681 0.0
C1378 C 0.2931 0.76022 0.87746 0.0
H1379 H 0.22208 0.74134 0.90658 0.0
H1380 H 0.26561 0.77644 0.91603 0.0
S1381 S 0.3055 0.71149 0.80788 0.0
N1382 N 0.27111 0.70096 0.82095 0.0
N1383 N 0.318 0.73839 0.83205 0.0
C1384 C 0.29394 0.73962 0.85235 0.0
C1385 C 0.26839 0.71957 0.84626 0.0
C1386 C 0.29006 0.24463 0.8873 0.0
C1387 C 0.29651 0.23409 0.857 0.0
C1388 C 0.26877 0.26876 0.89268 0.0
C1389 C 0.25266 0.28267 0.86802 0.0
H1390 H 0.30155 0.23419 0.90701 0.0
H1391 H 0.26419 0.27598 0.91631 0.0
S1392 S 0.26098 0.26397 0.7845 0.0
N1393 N 0.28516 0.24012 0.80202 0.0
N1394 N 0.24488 0.28473 0.81237 0.0
C1395 C 0.25898 0.27252 0.83772 0.0
C1396 C 0.28098 0.24845 0.83215 0.0
C1397 C 0.75727 0.24432 0.87393 0.0
C1398 C 0.72539 0.25127 0.8724 0.0
C1399 C 0.77981 0.26752 0.87224 0.0
C1400 C 0.77154 0.29883 0.86902 0.0
H1401 H 0.76495 0.22067 0.8768 0.0
H1402 H 0.80395 0.26076 0.87377 0.0
S1403 S 0.69108 0.3292 0.86273 0.0
N1404 N 0.68665 0.29151 0.86658 0.0
N1405 N 0.72883 0.33541 0.86372 0.0
C1406 C 0.73966 0.30614 0.86737 0.0
C1407 C 0.71666 0.28235 0.86907 0.0
C1408 C 0.75163 0.77606 0.87233 0.0
C1409 C 0.71996 0.76884 0.87504 0.0
C1410 C 0.77426 0.75277 0.87136 0.0
C1411 C 0.76616 0.72124 0.87267 0.0
H1412 H 0.75919 0.79993 0.87215 0.0
H1413 H 0.79834 0.75967 0.87059 0.0
S1414 S 0.68605 0.69007 0.87521 0.0
N1415 N 0.68141 0.72795 0.87631 0.0
N1416 N 0.72383 0.68417 0.87344 0.0
C1417 C 0.73444 0.71371 0.87383 0.0
C1418 C 0.7114 0.73748 0.87522 0.0
C1419 C 0.71521 0.74109 0.16534 0.0
C1420 C 0.71924 0.76884 0.14899 0.0
C1421 C 0.73971 0.71998 0.16868 0.0
C1422 C 0.76885 0.7255 0.15505 0.0
H1423 H 0.69332 0.73628 0.17662 0.0
H1424 H 0.73588 0.69928 0.18222 0.0
S1425 S 0.79083 0.79404 0.10859 0.0
N1426 N 0.7544 0.80042 0.1185 0.0
N1427 N 0.80003 0.76026 0.12376 0.0
C1428 C 0.77284 0.75264 0.13772 0.0
C1429 C 0.74816 0.77447 0.13498 0.0
C1430 C 0.27378 0.71674 0.14714 0.0
C1431 C 0.2425 0.72509 0.14364 0.0
C1432 C 0.29719 0.73919 0.14821 0.0
C1433 C 0.29029 0.77095 0.14565 0.0
H1434 H 0.28014 0.69263 0.14935 0.0
H1435 H 0.32093 0.73148 0.15095 0.0
S1436 S 0.21185 0.80469 0.13411 0.0
N1437 N 0.20584 0.7671 0.13618 0.0
N1438 N 0.24956 0.80936 0.13849 0.0
C1439 C 0.25897 0.77957 0.14197 0.0
C1440 C 0.23517 0.75666 0.14088 0.0
C1441 C 0.73114 0.24725 0.1218 0.0
C1442 C 0.72179 0.23965 0.15221 0.0
C1443 C 0.75193 0.2716 0.11621 0.0
C1444 C 0.76444 0.28882 0.14084 0.0
H1445 H 0.72268 0.23407 0.10215 0.0
H1446 H 0.75914 0.27632 0.09263 0.0
S1447 S 0.74616 0.28057 0.22424 0.0
N1448 N 0.72538 0.25346 0.20706 0.0
N1449 N 0.76514 0.29822 0.19618 0.0
C1450 C 0.75485 0.28215 0.1711 0.0
C1451 C 0.73332 0.25786 0.17688 0.0
loop_
_geom_bond_atom_site_label_1
_geom_bond_atom_site_label_2
_geom_bond_distance
_geom_bond_site_symmetry_2
_ccdc_geom_bond_type
Co0 N4 2.148 . S
Co0 N10 2.128 . S
Co0 N20 2.194 . S
Co0 O25 2.351 . S
Co0 O26 2.155 . S
Co0 O27 2.096 . S
C1 N4 1.301 . S
C1 N5 1.328 . S
C1 H6 0.930 . S
C2 C3 1.333 . S
C2 N4 1.317 . S
C2 H7 0.930 . S
C3 C2 1.333 . S
C3 N5 1.350 . S
C3 H29 0.931 . S
N4 Co0 2.148 . S
N4 C1 1.301 . S
N4 C2 1.317 . S
N5 C1 1.328 . S
N5 C3 1.350 . S
H6 C1 0.930 . S
H7 C2 0.930 . S
C8 O9 1.224 . S
C8 O27 1.247 . S
O9 C8 1.224 . S
N10 Co0 2.128 . S
N10 C11 1.355 . S
N10 C13 1.311 . S
C11 N10 1.355 . S
C11 C12 1.363 . S
C11 H23 0.929 . S
C12 C11 1.363 . S
C12 N14 1.375 . S
C12 H30 0.931 . S
C13 N10 1.311 . S
C13 N14 1.347 . S
C13 H24 0.929 . S
N14 C12 1.375 . S
N14 C13 1.347 . S
C15 C18 1.365 . S
C15 N20 1.328 . S
C15 H21 0.929 . S
C16 C17 1.362 . S
C16 C19 1.378 . S
C16 H31 0.929 . S
C17 C16 1.362 . S
C17 C18 1.366 . S
C18 C15 1.365 . S
C18 C17 1.366 . S
C18 H32 0.930 . S
C19 C16 1.378 . S
C19 N20 1.315 . S
C19 H22 0.930 . S
N20 Co0 2.194 . S
N20 C15 1.328 . S
N20 C19 1.315 . S
H21 C15 0.929 . S
H22 C19 0.930 . S
H23 C11 0.929 . S
H24 C13 0.929 . S
O25 Co0 2.351 . S
O25 C28 1.244 . S
O26 Co0 2.155 . S
O26 C28 1.240 . S
O27 Co0 2.096 . S
O27 C8 1.247 . S
C28 O25 1.244 . S
C28 O26 1.240 . S
H29 C3 0.931 . S
H30 C12 0.931 . S
H31 C16 0.929 . S
H32 C18 0.930 . S
Co33 N37 2.148 . S
Co33 N43 2.128 . S
Co33 N53 2.194 . S
Co33 O58 2.351 . S
Co33 O59 2.155 . S
Co33 O60 2.096 . S
C34 N37 1.301 . S
C34 N38 1.328 . S
C34 H39 0.930 . S
C35 C36 1.333 . S
C35 N37 1.317 . S
C35 H40 0.930 . S
C36 C35 1.333 . S
C36 N38 1.350 . S
C36 H62 0.931 . S
N37 Co33 2.148 . S
N37 C34 1.301 . S
N37 C35 1.317 . S
N38 C34 1.328 . S
N38 C36 1.350 . S
H39 C34 0.930 . S
H40 C35 0.930 . S
C41 O42 1.224 . S
C41 O60 1.247 . S
O42 C41 1.224 . S
N43 Co33 2.128 . S
N43 C44 1.355 . S
N43 C46 1.311 . S
C44 N43 1.355 . S
C44 C45 1.363 . S
C44 H56 0.929 . S
C45 C44 1.363 . S
C45 N47 1.375 . S
C45 H63 0.931 . S
C46 N43 1.311 . S
C46 N47 1.347 . S
C46 H57 0.929 . S
N47 C45 1.375 . S
N47 C46 1.347 . S
C48 C51 1.365 . S
C48 N53 1.328 . S
C48 H54 0.929 . S
C49 C50 1.362 . S
C49 C52 1.378 . S
C49 H64 0.929 . S
C50 C49 1.362 . S
C50 C51 1.366 . S
C51 C48 1.365 . S
C51 C50 1.366 . S
C51 H65 0.930 . S
C52 C49 1.378 . S
C52 N53 1.315 . S
C52 H55 0.930 . S
N53 Co33 2.194 . S
N53 C48 1.328 . S
N53 C52 1.315 . S
H54 C48 0.929 . S
H55 C52 0.930 . S
H56 C44 0.929 . S
H57 C46 0.929 . S
O58 Co33 2.351 . S
O58 C61 1.244 . S
O59 Co33 2.155 . S
O59 C61 1.240 . S
O60 Co33 2.096 . S
O60 C41 1.247 . S
C61 O58 1.244 . S
C61 O59 1.240 . S
H62 C36 0.931 . S
H63 C45 0.931 . S
H64 C49 0.929 . S
H65 C51 0.930 . S
Co66 N70 2.148 . S
Co66 N76 2.128 . S
Co66 N86 2.194 . S
Co66 O91 2.351 . S
Co66 O92 2.155 . S
Co66 O93 2.096 . S
C67 N70 1.301 . S
C67 N71 1.328 . S
C67 H72 0.930 . S
C68 C69 1.333 . S
C68 N70 1.317 . S
C68 H73 0.930 . S
C69 C68 1.333 . S
C69 N71 1.350 . S
C69 H95 0.931 . S
N70 Co66 2.148 . S
N70 C67 1.301 . S
N70 C68 1.317 . S
N71 C67 1.328 . S
N71 C69 1.350 . S
H72 C67 0.930 . S
H73 C68 0.930 . S
C74 O75 1.224 . S
C74 O93 1.247 . S
O75 C74 1.224 . S
N76 Co66 2.128 . S
N76 C77 1.355 . S
N76 C79 1.311 . S
C77 N76 1.355 . S
C77 C78 1.363 . S
C77 H89 0.929 . S
C78 C77 1.363 . S
C78 N80 1.375 . S
C78 H96 0.931 . S
C79 N76 1.311 . S
C79 N80 1.347 . S
C79 H90 0.929 . S
N80 C78 1.375 . S
N80 C79 1.347 . S
C81 C84 1.365 . S
C81 N86 1.328 . S
C81 H87 0.929 . S
C82 C83 1.362 . S
C82 C85 1.378 . S
C82 H97 0.929 . S
C83 C82 1.362 . S
C83 C84 1.366 . S
C84 C81 1.365 . S
C84 C83 1.366 . S
C84 H98 0.930 . S
C85 C82 1.378 . S
C85 N86 1.315 . S
C85 H88 0.930 . S
N86 Co66 2.194 . S
N86 C81 1.328 . S
N86 C85 1.315 . S
H87 C81 0.929 . S
H88 C85 0.930 . S
H89 C77 0.929 . S
H90 C79 0.929 . S
O91 Co66 2.351 . S
O91 C94 1.244 . S
O92 Co66 2.155 . S
O92 C94 1.240 . S
O93 Co66 2.096 . S
O93 C74 1.247 . S
C94 O91 1.244 . S
C94 O92 1.240 . S
H95 C69 0.931 . S
H96 C78 0.931 . S
H97 C82 0.929 . S
H98 C84 0.930 . S
Co99 N103 2.148 . S
Co99 N109 2.128 . S
Co99 N119 2.194 . S
Co99 O124 2.351 . S
Co99 O125 2.155 . S
Co99 O126 2.096 . S
C100 N103 1.301 . S
C100 N104 1.328 . S
C100 H105 0.930 . S
C101 C102 1.333 . S
C101 N103 1.317 . S
C101 H106 0.930 . S
C102 C101 1.333 . S
C102 N104 1.350 . S
C102 H128 0.931 . S
N103 Co99 2.148 . S
N103 C100 1.301 . S
N103 C101 1.317 . S
N104 C100 1.328 . S
N104 C102 1.350 . S
H105 C100 0.930 . S
H106 C101 0.930 . S
C107 O108 1.224 . S
C107 O126 1.247 . S
O108 C107 1.224 . S
N109 Co99 2.128 . S
N109 C110 1.355 . S
N109 C112 1.311 . S
C110 N109 1.355 . S
C110 C111 1.363 . S
C110 H122 0.929 . S
C111 C110 1.363 . S
C111 N113 1.375 . S
C111 H129 0.931 . S
C112 N109 1.311 . S
C112 N113 1.347 . S
C112 H123 0.929 . S
N113 C111 1.375 . S
N113 C112 1.347 . S
C114 C117 1.365 . S
C114 N119 1.328 . S
C114 H120 0.929 . S
C115 C116 1.362 . S
C115 C118 1.378 . S
C115 H130 0.929 . S
C116 C115 1.362 . S
C116 C117 1.366 . S
C117 C114 1.365 . S
C117 C116 1.366 . S
C117 H131 0.930 . S
C118 C115 1.378 . S
C118 N119 1.315 . S
C118 H121 0.930 . S
N119 Co99 2.194 . S
N119 C114 1.328 . S
N119 C118 1.315 . S
H120 C114 0.929 . S
H121 C118 0.930 . S
H122 C110 0.929 . S
H123 C112 0.929 . S
O124 Co99 2.351 . S
O124 C127 1.244 . S
O125 Co99 2.155 . S
O125 C127 1.240 . S
O126 Co99 2.096 . S
O126 C107 1.247 . S
C127 O124 1.244 . S
C127 O125 1.240 . S
H128 C102 0.931 . S
H129 C111 0.931 . S
H130 C115 0.929 . S
H131 C117 0.930 . S
Co132 N136 2.148 . S
Co132 N142 2.128 . S
Co132 N152 2.194 . S
Co132 O157 2.351 . S
Co132 O158 2.155 . S
Co132 O159 2.096 . S
C133 N136 1.301 . S
C133 N137 1.328 . S
C133 H138 0.930 . S
C134 C135 1.333 . S
C134 N136 1.317 . S
C134 H139 0.930 . S
C135 C134 1.333 . S
C135 N137 1.350 . S
C135 H161 0.931 . S
N136 Co132 2.148 . S
N136 C133 1.301 . S
N136 C134 1.317 . S
N137 C133 1.328 . S
N137 C135 1.350 . S
H138 C133 0.930 . S
H139 C134 0.930 . S
C140 O141 1.224 . S
C140 O159 1.247 . S
O141 C140 1.224 . S
N142 Co132 2.128 . S
N142 C143 1.355 . S
N142 C145 1.311 . S
C143 N142 1.355 . S
C143 C144 1.363 . S
C143 H155 0.929 . S
C144 C143 1.363 . S
C144 N146 1.375 . S
C144 H162 0.931 . S
C145 N142 1.311 . S
C145 N146 1.347 . S
C145 H156 0.929 . S
N146 C144 1.375 . S
N146 C145 1.347 . S
C147 C150 1.365 . S
C147 N152 1.328 . S
C147 H153 0.929 . S
C148 C149 1.362 . S
C148 C151 1.378 . S
C148 H163 0.929 . S
C149 C148 1.362 . S
C149 C150 1.366 . S
C150 C147 1.365 . S
C150 C149 1.366 . S
C150 H164 0.930 . S
C151 C148 1.378 . S
C151 N152 1.315 . S
C151 H154 0.930 . S
N152 Co132 2.194 . S
N152 C147 1.328 . S
N152 C151 1.315 . S
H153 C147 0.929 . S
H154 C151 0.930 . S
H155 C143 0.929 . S
H156 C145 0.929 . S
O157 Co132 2.351 . S
O157 C160 1.244 . S
O158 Co132 2.155 . S
O158 C160 1.240 . S
O159 Co132 2.096 . S
O159 C140 1.247 . S
C160 O157 1.244 . S
C160 O158 1.240 . S
H161 C135 0.931 . S
H162 C144 0.931 . S
H163 C148 0.929 . S
H164 C150 0.930 . S
Co165 N169 2.148 . S
Co165 N175 2.128 . S
Co165 N185 2.194 . S
Co165 O190 2.351 . S
Co165 O191 2.155 . S
Co165 O192 2.096 . S
C166 N169 1.301 . S
C166 N170 1.328 . S
C166 H171 0.930 . S
C167 C168 1.333 . S
C167 N169 1.317 . S
C167 H172 0.930 . S
C168 C167 1.333 . S
C168 N170 1.350 . S
C168 H194 0.931 . S
N169 Co165 2.148 . S
N169 C166 1.301 . S
N169 C167 1.317 . S
N170 C166 1.328 . S
N170 C168 1.350 . S
H171 C166 0.930 . S
H172 C167 0.930 . S
C173 O174 1.224 . S
C173 O192 1.247 . S
O174 C173 1.224 . S
N175 Co165 2.128 . S
N175 C176 1.355 . S
N175 C178 1.311 . S
C176 N175 1.355 . S
C176 C177 1.363 . S
C176 H188 0.929 . S
C177 C176 1.363 . S
C177 N179 1.375 . S
C177 H195 0.931 . S
C178 N175 1.311 . S
C178 N179 1.347 . S
C178 H189 0.929 . S
N179 C177 1.375 . S
N179 C178 1.347 . S
C180 C183 1.365 . S
C180 N185 1.328 . S
C180 H186 0.929 . S
C181 C182 1.362 . S
C181 C184 1.378 . S
C181 H196 0.929 . S
C182 C181 1.362 . S
C182 C183 1.366 . S
C183 C180 1.365 . S
C183 C182 1.366 . S
C183 H197 0.930 . S
C184 C181 1.378 . S
C184 N185 1.315 . S
C184 H187 0.930 . S
N185 Co165 2.194 . S
N185 C180 1.328 . S
N185 C184 1.315 . S
H186 C180 0.929 . S
H187 C184 0.930 . S
H188 C176 0.929 . S
H189 C178 0.929 . S
O190 Co165 2.351 . S
O190 C193 1.244 . S
O191 Co165 2.155 . S
O191 C193 1.240 . S
O192 Co165 2.096 . S
O192 C173 1.247 . S
C193 O190 1.244 . S
C193 O191 1.240 . S
H194 C168 0.931 . S
H195 C177 0.931 . S
H196 C181 0.929 . S
H197 C183 0.930 . S
Co198 N202 2.148 . S
Co198 N208 2.128 . S
Co198 N218 2.194 . S
Co198 O223 2.351 . S
Co198 O224 2.155 . S
Co198 O225 2.096 . S
C199 N202 1.301 . S
C199 N203 1.328 . S
C199 H204 0.930 . S
C200 C201 1.333 . S
C200 N202 1.317 . S
C200 H205 0.930 . S
C201 C200 1.333 . S
C201 N203 1.350 . S
C201 H227 0.931 . S
N202 Co198 2.148 . S
N202 C199 1.301 . S
N202 C200 1.317 . S
N203 C199 1.328 . S
N203 C201 1.350 . S
H204 C199 0.930 . S
H205 C200 0.930 . S
C206 O207 1.224 . S
C206 O225 1.247 . S
O207 C206 1.224 . S
N208 Co198 2.128 . S
N208 C209 1.355 . S
N208 C211 1.311 . S
C209 N208 1.355 . S
C209 C210 1.363 . S
C209 H221 0.929 . S
C210 C209 1.363 . S
C210 N212 1.375 . S
C210 H228 0.931 . S
C211 N208 1.311 . S
C211 N212 1.347 . S
C211 H222 0.929 . S
N212 C210 1.375 . S
N212 C211 1.347 . S
C213 C216 1.365 . S
C213 N218 1.328 . S
C213 H219 0.929 . S
C214 C215 1.362 . S
C214 C217 1.378 . S
C214 H229 0.929 . S
C215 C214 1.362 . S
C215 C216 1.366 . S
C216 C213 1.365 . S
C216 C215 1.366 . S
C216 H230 0.930 . S
C217 C214 1.378 . S
C217 N218 1.315 . S
C217 H220 0.930 . S
N218 Co198 2.194 . S
N218 C213 1.328 . S
N218 C217 1.315 . S
H219 C213 0.929 . S
H220 C217 0.930 . S
H221 C209 0.929 . S
H222 C211 0.929 . S
O223 Co198 2.351 . S
O223 C226 1.244 . S
O224 Co198 2.155 . S
O224 C226 1.240 . S
O225 Co198 2.096 . S
O225 C206 1.247 . S
C226 O223 1.244 . S
C226 O224 1.240 . S
H227 C201 0.931 . S
H228 C210 0.931 . S
H229 C214 0.929 . S
H230 C216 0.930 . S
Co231 N235 2.148 . S
Co231 N241 2.128 . S
Co231 N251 2.194 . S
Co231 O256 2.351 . S
Co231 O257 2.155 . S
Co231 O258 2.096 . S
C232 N235 1.301 . S
C232 N236 1.328 . S
C232 H237 0.930 . S
C233 C234 1.333 . S
C233 N235 1.317 . S
C233 H238 0.930 . S
C234 C233 1.333 . S
C234 N236 1.350 . S
C234 H260 0.931 . S
N235 Co231 2.148 . S
N235 C232 1.301 . S
N235 C233 1.317 . S
N236 C232 1.328 . S
N236 C234 1.350 . S
H237 C232 0.930 . S
H238 C233 0.930 . S
C239 O240 1.224 . S
C239 O258 1.247 . S
O240 C239 1.224 . S
N241 Co231 2.128 . S
N241 C242 1.355 . S
N241 C244 1.311 . S
C242 N241 1.355 . S
C242 C243 1.363 . S
C242 H254 0.929 . S
C243 C242 1.363 . S
C243 N245 1.375 . S
C243 H261 0.931 . S
C244 N241 1.311 . S
C244 N245 1.347 . S
C244 H255 0.929 . S
N245 C243 1.375 . S
N245 C244 1.347 . S
C246 C249 1.365 . S
C246 N251 1.328 . S
C246 H252 0.929 . S
C247 C248 1.362 . S
C247 C250 1.378 . S
C247 H262 0.929 . S
C248 C247 1.362 . S
C248 C249 1.366 . S
C249 C246 1.365 . S
C249 C248 1.366 . S
C249 H263 0.930 . S
C250 C247 1.378 . S
C250 N251 1.315 . S
C250 H253 0.930 . S
N251 Co231 2.194 . S
N251 C246 1.328 . S
N251 C250 1.315 . S
H252 C246 0.929 . S
H253 C250 0.930 . S
H254 C242 0.929 . S
H255 C244 0.929 . S
O256 Co231 2.351 . S
O256 C259 1.244 . S
O257 Co231 2.155 . S
O257 C259 1.240 . S
O258 Co231 2.096 . S
O258 C239 1.247 . S
C259 O256 1.244 . S
C259 O257 1.240 . S
H260 C234 0.931 . S
H261 C243 0.931 . S
H262 C247 0.929 . S
H263 C249 0.930 . S
Co264 N268 2.148 . S
Co264 N274 2.128 . S
Co264 N284 2.194 . S
Co264 O289 2.351 . S
Co264 O290 2.155 . S
Co264 O291 2.096 . S
C265 N268 1.301 . S
C265 N269 1.328 . S
C265 H270 0.930 . S
C266 C267 1.333 . S
C266 N268 1.317 . S
C266 H271 0.930 . S
C267 C266 1.333 . S
C267 N269 1.350 . S
C267 H293 0.931 . S
N268 Co264 2.148 . S
N268 C265 1.301 . S
N268 C266 1.317 . S
N269 C265 1.328 . S
N269 C267 1.350 . S
H270 C265 0.930 . S
H271 C266 0.930 . S
C272 O273 1.224 . S
C272 O291 1.247 . S
O273 C272 1.224 . S
N274 Co264 2.128 . S
N274 C275 1.355 . S
N274 C277 1.311 . S
C275 N274 1.355 . S
C275 C276 1.363 . S
C275 H287 0.929 . S
C276 C275 1.363 . S
C276 N278 1.375 . S
C276 H294 0.931 . S
C277 N274 1.311 . S
C277 N278 1.347 . S
C277 H288 0.929 . S
N278 C276 1.375 . S
N278 C277 1.347 . S
C279 C282 1.365 . S
C279 N284 1.328 . S
C279 H285 0.929 . S
C280 C281 1.362 . S
C280 C283 1.378 . S
C280 H295 0.929 . S
C281 C280 1.362 . S
C281 C282 1.366 . S
C282 C279 1.365 . S
C282 C281 1.366 . S
C282 H296 0.930 . S
C283 C280 1.378 . S
C283 N284 1.315 . S
C283 H286 0.930 . S
N284 Co264 2.194 . S
N284 C279 1.328 . S
N284 C283 1.315 . S
H285 C279 0.929 . S
H286 C283 0.930 . S
H287 C275 0.929 . S
H288 C277 0.929 . S
O289 Co264 2.351 . S
O289 C292 1.244 . S
O290 Co264 2.155 . S
O290 C292 1.240 . S
O291 Co264 2.096 . S
O291 C272 1.247 . S
C292 O289 1.244 . S
C292 O290 1.240 . S
H293 C267 0.931 . S
H294 C276 0.931 . S
H295 C280 0.929 . S
H296 C282 0.930 . S
Co297 N301 2.148 . S
Co297 N307 2.128 . S
Co297 N317 2.194 . S
Co297 O322 2.351 . S
Co297 O323 2.155 . S
Co297 O324 2.096 . S
C298 N301 1.301 . S
C298 N302 1.328 . S
C298 H303 0.930 . S
C299 C300 1.333 . S
C299 N301 1.317 . S
C299 H304 0.930 . S
C300 C299 1.333 . S
C300 N302 1.350 . S
C300 H326 0.931 . S
N301 Co297 2.148 . S
N301 C298 1.301 . S
N301 C299 1.317 . S
N302 C298 1.328 . S
N302 C300 1.350 . S
H303 C298 0.930 . S
H304 C299 0.930 . S
C305 O306 1.224 . S
C305 O324 1.247 . S
O306 C305 1.224 . S
N307 Co297 2.128 . S
N307 C308 1.355 . S
N307 C310 1.311 . S
C308 N307 1.355 . S
C308 C309 1.363 . S
C308 H320 0.929 . S
C309 C308 1.363 . S
C309 N311 1.375 . S
C309 H327 0.931 . S
C310 N307 1.311 . S
C310 N311 1.347 . S
C310 H321 0.929 . S
N311 C309 1.375 . S
N311 C310 1.347 . S
C312 C315 1.365 . S
C312 N317 1.328 . S
C312 H318 0.929 . S
C313 C314 1.362 . S
C313 C316 1.378 . S
C313 H328 0.929 . S
C314 C313 1.362 . S
C314 C315 1.366 . S
C315 C312 1.365 . S
C315 C314 1.366 . S
C315 H329 0.930 . S
C316 C313 1.378 . S
C316 N317 1.315 . S
C316 H319 0.930 . S
N317 Co297 2.194 . S
N317 C312 1.328 . S
N317 C316 1.315 . S
H318 C312 0.929 . S
H319 C316 0.930 . S
H320 C308 0.929 . S
H321 C310 0.929 . S
O322 Co297 2.351 . S
O322 C325 1.244 . S
O323 Co297 2.155 . S
O323 C325 1.240 . S
O324 Co297 2.096 . S
O324 C305 1.247 . S
C325 O322 1.244 . S
C325 O323 1.240 . S
H326 C300 0.931 . S
H327 C309 0.931 . S
H328 C313 0.929 . S
H329 C315 0.930 . S
Co330 N334 2.148 . S
Co330 N340 2.128 . S
Co330 N350 2.194 . S
Co330 O355 2.351 . S
Co330 O356 2.155 . S
Co330 O357 2.096 . S
C331 N334 1.301 . S
C331 N335 1.328 . S
C331 H336 0.930 . S
C332 C333 1.333 . S
C332 N334 1.317 . S
C332 H337 0.930 . S
C333 C332 1.333 . S
C333 N335 1.350 . S
C333 H359 0.931 . S
N334 Co330 2.148 . S
N334 C331 1.301 . S
N334 C332 1.317 . S
N335 C331 1.328 . S
N335 C333 1.350 . S
H336 C331 0.930 . S
H337 C332 0.930 . S
C338 O339 1.224 . S
C338 O357 1.247 . S
O339 C338 1.224 . S
N340 Co330 2.128 . S
N340 C341 1.355 . S
N340 C343 1.311 . S
C341 N340 1.355 . S
C341 C342 1.363 . S
C341 H353 0.929 . S
C342 C341 1.363 . S
C342 N344 1.375 . S
C342 H360 0.931 . S
C343 N340 1.311 . S
C343 N344 1.347 . S
C343 H354 0.929 . S
N344 C342 1.375 . S
N344 C343 1.347 . S
C345 C348 1.365 . S
C345 N350 1.328 . S
C345 H351 0.929 . S
C346 C347 1.362 . S
C346 C349 1.378 . S
C346 H361 0.929 . S
C347 C346 1.362 . S
C347 C348 1.366 . S
C348 C345 1.365 . S
C348 C347 1.366 . S
C348 H362 0.930 . S
C349 C346 1.378 . S
C349 N350 1.315 . S
C349 H352 0.930 . S
N350 Co330 2.194 . S
N350 C345 1.328 . S
N350 C349 1.315 . S
H351 C345 0.929 . S
H352 C349 0.930 . S
H353 C341 0.929 . S
H354 C343 0.929 . S
O355 Co330 2.351 . S
O355 C358 1.244 . S
O356 Co330 2.155 . S
O356 C358 1.240 . S
O357 Co330 2.096 . S
O357 C338 1.247 . S
C358 O355 1.244 . S
C358 O356 1.240 . S
H359 C333 0.931 . S
H360 C342 0.931 . S
H361 C346 0.929 . S
H362 C348 0.930 . S
Co363 N367 2.148 . S
Co363 N373 2.128 . S
Co363 N383 2.194 . S
Co363 O388 2.351 . S
Co363 O389 2.155 . S
Co363 O390 2.096 . S
C364 N367 1.301 . S
C364 N368 1.328 . S
C364 H369 0.930 . S
C365 C366 1.333 . S
C365 N367 1.317 . S
C365 H370 0.930 . S
C366 C365 1.333 . S
C366 N368 1.350 . S
C366 H392 0.931 . S
N367 Co363 2.148 . S
N367 C364 1.301 . S
N367 C365 1.317 . S
N368 C364 1.328 . S
N368 C366 1.350 . S
H369 C364 0.930 . S
H370 C365 0.930 . S
C371 O372 1.224 . S
C371 O390 1.247 . S
O372 C371 1.224 . S
N373 Co363 2.128 . S
N373 C374 1.355 . S
N373 C376 1.311 . S
C374 N373 1.355 . S
C374 C375 1.363 . S
C374 H386 0.929 . S
C375 C374 1.363 . S
C375 N377 1.375 . S
C375 H393 0.931 . S
C376 N373 1.311 . S
C376 N377 1.347 . S
C376 H387 0.929 . S
N377 C375 1.375 . S
N377 C376 1.347 . S
C378 C381 1.365 . S
C378 N383 1.328 . S
C378 H384 0.929 . S
C379 C380 1.362 . S
C379 C382 1.378 . S
C379 H394 0.929 . S
C380 C379 1.362 . S
C380 C381 1.366 . S
C381 C378 1.365 . S
C381 C380 1.366 . S
C381 H395 0.930 . S
C382 C379 1.378 . S
C382 N383 1.315 . S
C382 H385 0.930 . S
N383 Co363 2.194 . S
N383 C378 1.328 . S
N383 C382 1.315 . S
H384 C378 0.929 . S
H385 C382 0.930 . S
H386 C374 0.929 . S
H387 C376 0.929 . S
O388 Co363 2.351 . S
O388 C391 1.244 . S
O389 Co363 2.155 . S
O389 C391 1.240 . S
O390 Co363 2.096 . S
O390 C371 1.247 . S
C391 O388 1.244 . S
C391 O389 1.240 . S
H392 C366 0.931 . S
H393 C375 0.931 . S
H394 C379 0.929 . S
H395 C381 0.930 . S
Co396 N400 2.148 . S
Co396 N406 2.128 . S
Co396 N416 2.194 . S
Co396 O421 2.351 . S
Co396 O422 2.155 . S
Co396 O423 2.096 . S
C397 N400 1.301 . S
C397 N401 1.328 . S
C397 H402 0.930 . S
C398 C399 1.333 . S
C398 N400 1.317 . S
C398 H403 0.930 . S
C399 C398 1.333 . S
C399 N401 1.350 . S
C399 H425 0.931 . S
N400 Co396 2.148 . S
N400 C397 1.301 . S
N400 C398 1.317 . S
N401 C397 1.328 . S
N401 C399 1.350 . S
H402 C397 0.930 . S
H403 C398 0.930 . S
C404 O405 1.224 . S
C404 O423 1.247 . S
O405 C404 1.224 . S
N406 Co396 2.128 . S
N406 C407 1.355 . S
N406 C409 1.311 . S
C407 N406 1.355 . S
C407 C408 1.363 . S
C407 H419 0.929 . S
C408 C407 1.363 . S
C408 N410 1.375 . S
C408 H426 0.931 . S
C409 N406 1.311 . S
C409 N410 1.347 . S
C409 H420 0.929 . S
N410 C408 1.375 . S
N410 C409 1.347 . S
C411 C414 1.365 . S
C411 N416 1.328 . S
C411 H417 0.929 . S
C412 C413 1.362 . S
C412 C415 1.378 . S
C412 H427 0.929 . S
C413 C412 1.362 . S
C413 C414 1.366 . S
C414 C411 1.365 . S
C414 C413 1.366 . S
C414 H428 0.930 . S
C415 C412 1.378 . S
C415 N416 1.315 . S
C415 H418 0.930 . S
N416 Co396 2.194 . S
N416 C411 1.328 . S
N416 C415 1.315 . S
H417 C411 0.929 . S
H418 C415 0.930 . S
H419 C407 0.929 . S
H420 C409 0.929 . S
O421 Co396 2.351 . S
O421 C424 1.244 . S
O422 Co396 2.155 . S
O422 C424 1.240 . S
O423 Co396 2.096 . S
O423 C404 1.247 . S
C424 O421 1.244 . S
C424 O422 1.240 . S
H425 C399 0.931 . S
H426 C408 0.931 . S
H427 C412 0.929 . S
H428 C414 0.930 . S
Co429 N433 2.148 . S
Co429 N439 2.128 . S
Co429 N449 2.194 . S
Co429 O454 2.351 . S
Co429 O455 2.155 . S
Co429 O456 2.096 . S
C430 N433 1.301 . S
C430 N434 1.328 . S
C430 H435 0.930 . S
C431 C432 1.333 . S
C431 N433 1.317 . S
C431 H436 0.930 . S
C432 C431 1.333 . S
C432 N434 1.350 . S
C432 H458 0.931 . S
N433 Co429 2.148 . S
N433 C430 1.301 . S
N433 C431 1.317 . S
N434 C430 1.328 . S
N434 C432 1.350 . S
H435 C430 0.930 . S
H436 C431 0.930 . S
C437 O438 1.224 . S
C437 O456 1.247 . S
O438 C437 1.224 . S
N439 Co429 2.128 . S
N439 C440 1.355 . S
N439 C442 1.311 . S
C440 N439 1.355 . S
C440 C441 1.363 . S
C440 H452 0.929 . S
C441 C440 1.363 . S
C441 N443 1.375 . S
C441 H459 0.931 . S
C442 N439 1.311 . S
C442 N443 1.347 . S
C442 H453 0.929 . S
N443 C441 1.375 . S
N443 C442 1.347 . S
C444 C447 1.365 . S
C444 N449 1.328 . S
C444 H450 0.929 . S
C445 C446 1.362 . S
C445 C448 1.378 . S
C445 H460 0.929 . S
C446 C445 1.362 . S
C446 C447 1.366 . S
C447 C444 1.365 . S
C447 C446 1.366 . S
C447 H461 0.930 . S
C448 C445 1.378 . S
C448 N449 1.315 . S
C448 H451 0.930 . S
N449 Co429 2.194 . S
N449 C444 1.328 . S
N449 C448 1.315 . S
H450 C444 0.929 . S
H451 C448 0.930 . S
H452 C440 0.929 . S
H453 C442 0.929 . S
O454 Co429 2.351 . S
O454 C457 1.244 . S
O455 Co429 2.155 . S
O455 C457 1.240 . S
O456 Co429 2.096 . S
O456 C437 1.247 . S
C457 O454 1.244 . S
C457 O455 1.240 . S
H458 C432 0.931 . S
H459 C441 0.931 . S
H460 C445 0.929 . S
H461 C447 0.930 . S
Co462 N466 2.148 . S
Co462 N472 2.128 . S
Co462 N482 2.194 . S
Co462 O487 2.351 . S
Co462 O488 2.155 . S
Co462 O489 2.096 . S
C463 N466 1.301 . S
C463 N467 1.328 . S
C463 H468 0.930 . S
C464 C465 1.333 . S
C464 N466 1.317 . S
C464 H469 0.930 . S
C465 C464 1.333 . S
C465 N467 1.350 . S
C465 H491 0.931 . S
N466 Co462 2.148 . S
N466 C463 1.301 . S
N466 C464 1.317 . S
N467 C463 1.328 . S
N467 C465 1.350 . S
H468 C463 0.930 . S
H469 C464 0.930 . S
C470 O471 1.224 . S
C470 O489 1.247 . S
O471 C470 1.224 . S
N472 Co462 2.128 . S
N472 C473 1.355 . S
N472 C475 1.311 . S
C473 N472 1.355 . S
C473 C474 1.363 . S
C473 H485 0.929 . S
C474 C473 1.363 . S
C474 N476 1.375 . S
C474 H492 0.931 . S
C475 N472 1.311 . S
C475 N476 1.347 . S
C475 H486 0.929 . S
N476 C474 1.375 . S
N476 C475 1.347 . S
C477 C480 1.365 . S
C477 N482 1.328 . S
C477 H483 0.929 . S
C478 C479 1.362 . S
C478 C481 1.378 . S
C478 H493 0.929 . S
C479 C478 1.362 . S
C479 C480 1.366 . S
C480 C477 1.365 . S
C480 C479 1.366 . S
C480 H494 0.930 . S
C481 C478 1.378 . S
C481 N482 1.315 . S
C481 H484 0.930 . S
N482 Co462 2.194 . S
N482 C477 1.328 . S
N482 C481 1.315 . S
H483 C477 0.929 . S
H484 C481 0.930 . S
H485 C473 0.929 . S
H486 C475 0.929 . S
O487 Co462 2.351 . S
O487 C490 1.244 . S
O488 Co462 2.155 . S
O488 C490 1.240 . S
O489 Co462 2.096 . S
O489 C470 1.247 . S
C490 O487 1.244 . S
C490 O488 1.240 . S
H491 C465 0.931 . S
H492 C474 0.931 . S
H493 C478 0.929 . S
H494 C480 0.930 . S
Co495 N499 2.148 . S
Co495 N505 2.128 . S
Co495 N515 2.194 . S
Co495 O520 2.351 . S
Co495 O521 2.155 . S
Co495 O522 2.096 . S
C496 N499 1.301 . S
C496 N500 1.328 . S
C496 H501 0.930 . S
C497 C498 1.333 . S
C497 N499 1.317 . S
C497 H502 0.930 . S
C498 C497 1.333 . S
C498 N500 1.350 . S
C498 H524 0.931 . S
N499 Co495 2.148 . S
N499 C496 1.301 . S
N499 C497 1.317 . S
N500 C496 1.328 . S
N500 C498 1.350 . S
H501 C496 0.930 . S
H502 C497 0.930 . S
C503 O504 1.224 . S
C503 O522 1.247 . S
O504 C503 1.224 . S
N505 Co495 2.128 . S
N505 C506 1.355 . S
N505 C508 1.311 . S
C506 N505 1.355 . S
C506 C507 1.363 . S
C506 H518 0.929 . S
C507 C506 1.363 . S
C507 N509 1.375 . S
C507 H525 0.931 . S
C508 N505 1.311 . S
C508 N509 1.347 . S
C508 H519 0.929 . S
N509 C507 1.375 . S
N509 C508 1.347 . S
C510 C513 1.365 . S
C510 N515 1.328 . S
C510 H516 0.929 . S
C511 C512 1.362 . S
C511 C514 1.378 . S
C511 H526 0.929 . S
C512 C511 1.362 . S
C512 C513 1.366 . S
C513 C510 1.365 . S
C513 C512 1.366 . S
C513 H527 0.930 . S
C514 C511 1.378 . S
C514 N515 1.315 . S
C514 H517 0.930 . S
N515 Co495 2.194 . S
N515 C510 1.328 . S
N515 C514 1.315 . S
H516 C510 0.929 . S
H517 C514 0.930 . S
H518 C506 0.929 . S
H519 C508 0.929 . S
O520 Co495 2.351 . S
O520 C523 1.244 . S
O521 Co495 2.155 . S
O521 C523 1.240 . S
O522 Co495 2.096 . S
O522 C503 1.247 . S
C523 O520 1.244 . S
C523 O521 1.240 . S
H524 C498 0.931 . S
H525 C507 0.931 . S
H526 C511 0.929 . S
H527 C513 0.930 . S
Co528 N532 2.148 . S
Co528 N538 2.128 . S
Co528 N548 2.194 . S
Co528 O553 2.351 . S
Co528 O554 2.155 . S
Co528 O555 2.096 . S
C529 N532 1.301 . S
C529 N533 1.328 . S
C529 H534 0.930 . S
C530 C531 1.333 . S
C530 N532 1.317 . S
C530 H535 0.930 . S
C531 C530 1.333 . S
C531 N533 1.350 . S
C531 H557 0.931 . S
N532 Co528 2.148 . S
N532 C529 1.301 . S
N532 C530 1.317 . S
N533 C529 1.328 . S
N533 C531 1.350 . S
H534 C529 0.930 . S
H535 C530 0.930 . S
C536 O537 1.224 . S
C536 O555 1.247 . S
O537 C536 1.224 . S
N538 Co528 2.128 . S
N538 C539 1.355 . S
N538 C541 1.311 . S
C539 N538 1.355 . S
C539 C540 1.363 . S
C539 H551 0.929 . S
C540 C539 1.363 . S
C540 N542 1.375 . S
C540 H558 0.931 . S
C541 N538 1.311 . S
C541 N542 1.347 . S
C541 H552 0.929 . S
N542 C540 1.375 . S
N542 C541 1.347 . S
C543 C546 1.365 . S
C543 N548 1.328 . S
C543 H549 0.929 . S
C544 C545 1.362 . S
C544 C547 1.378 . S
C544 H559 0.929 . S
C545 C544 1.362 . S
C545 C546 1.366 . S
C546 C543 1.365 . S
C546 C545 1.366 . S
C546 H560 0.930 . S
C547 C544 1.378 . S
C547 N548 1.315 . S
C547 H550 0.930 . S
N548 Co528 2.194 . S
N548 C543 1.328 . S
N548 C547 1.315 . S
H549 C543 0.929 . S
H550 C547 0.930 . S
H551 C539 0.929 . S
H552 C541 0.929 . S
O553 Co528 2.351 . S
O553 C556 1.244 . S
O554 Co528 2.155 . S
O554 C556 1.240 . S
O555 Co528 2.096 . S
O555 C536 1.247 . S
C556 O553 1.244 . S
C556 O554 1.240 . S
H557 C531 0.931 . S
H558 C540 0.931 . S
H559 C544 0.929 . S
H560 C546 0.930 . S
Co561 N565 2.148 . S
Co561 N571 2.128 . S
Co561 N581 2.194 . S
Co561 O586 2.351 . S
Co561 O587 2.155 . S
Co561 O588 2.096 . S
C562 N565 1.301 . S
C562 N566 1.328 . S
C562 H567 0.930 . S
C563 C564 1.333 . S
C563 N565 1.317 . S
C563 H568 0.930 . S
C564 C563 1.333 . S
C564 N566 1.350 . S
C564 H590 0.931 . S
N565 Co561 2.148 . S
N565 C562 1.301 . S
N565 C563 1.317 . S
N566 C562 1.328 . S
N566 C564 1.350 . S
H567 C562 0.930 . S
H568 C563 0.930 . S
C569 O570 1.224 . S
C569 O588 1.247 . S
O570 C569 1.224 . S
N571 Co561 2.128 . S
N571 C572 1.355 . S
N571 C574 1.311 . S
C572 N571 1.355 . S
C572 C573 1.363 . S
C572 H584 0.929 . S
C573 C572 1.363 . S
C573 N575 1.375 . S
C573 H591 0.931 . S
C574 N571 1.311 . S
C574 N575 1.347 . S
C574 H585 0.929 . S
N575 C573 1.375 . S
N575 C574 1.347 . S
C576 C579 1.365 . S
C576 N581 1.328 . S
C576 H582 0.929 . S
C577 C578 1.362 . S
C577 C580 1.378 . S
C577 H592 0.929 . S
C578 C577 1.362 . S
C578 C579 1.366 . S
C579 C576 1.365 . S
C579 C578 1.366 . S
C579 H593 0.930 . S
C580 C577 1.378 . S
C580 N581 1.315 . S
C580 H583 0.930 . S
N581 Co561 2.194 . S
N581 C576 1.328 . S
N581 C580 1.315 . S
H582 C576 0.929 . S
H583 C580 0.930 . S
H584 C572 0.929 . S
H585 C574 0.929 . S
O586 Co561 2.351 . S
O586 C589 1.244 . S
O587 Co561 2.155 . S
O587 C589 1.240 . S
O588 Co561 2.096 . S
O588 C569 1.247 . S
C589 O586 1.244 . S
C589 O587 1.240 . S
H590 C564 0.931 . S
H591 C573 0.931 . S
H592 C577 0.929 . S
H593 C579 0.930 . S
Co594 N598 2.148 . S
Co594 N604 2.128 . S
Co594 N614 2.194 . S
Co594 O619 2.351 . S
Co594 O620 2.155 . S
Co594 O621 2.096 . S
C595 N598 1.301 . S
C595 N599 1.328 . S
C595 H600 0.930 . S
C596 C597 1.333 . S
C596 N598 1.317 . S
C596 H601 0.930 . S
C597 C596 1.333 . S
C597 N599 1.350 . S
C597 H623 0.931 . S
N598 Co594 2.148 . S
N598 C595 1.301 . S
N598 C596 1.317 . S
N599 C595 1.328 . S
N599 C597 1.350 . S
H600 C595 0.930 . S
H601 C596 0.930 . S
C602 O603 1.224 . S
C602 O621 1.247 . S
O603 C602 1.224 . S
N604 Co594 2.128 . S
N604 C605 1.355 . S
N604 C607 1.311 . S
C605 N604 1.355 . S
C605 C606 1.363 . S
C605 H617 0.929 . S
C606 C605 1.363 . S
C606 N608 1.375 . S
C606 H624 0.931 . S
C607 N604 1.311 . S
C607 N608 1.347 . S
C607 H618 0.929 . S
N608 C606 1.375 . S
N608 C607 1.347 . S
C609 C612 1.365 . S
C609 N614 1.328 . S
C609 H615 0.929 . S
C610 C611 1.362 . S
C610 C613 1.378 . S
C610 H625 0.929 . S
C611 C610 1.362 . S
C611 C612 1.366 . S
C612 C609 1.365 . S
C612 C611 1.366 . S
C612 H626 0.930 . S
C613 C610 1.378 . S
C613 N614 1.315 . S
C613 H616 0.930 . S
N614 Co594 2.194 . S
N614 C609 1.328 . S
N614 C613 1.315 . S
H615 C609 0.929 . S
H616 C613 0.930 . S
H617 C605 0.929 . S
H618 C607 0.929 . S
O619 Co594 2.351 . S
O619 C622 1.244 . S
O620 Co594 2.155 . S
O620 C622 1.240 . S
O621 Co594 2.096 . S
O621 C602 1.247 . S
C622 O619 1.244 . S
C622 O620 1.240 . S
H623 C597 0.931 . S
H624 C606 0.931 . S
H625 C610 0.929 . S
H626 C612 0.930 . S
Co627 N631 2.148 . S
Co627 N637 2.128 . S
Co627 N647 2.194 . S
Co627 O652 2.351 . S
Co627 O653 2.155 . S
Co627 O654 2.096 . S
C628 N631 1.301 . S
C628 N632 1.328 . S
C628 H633 0.930 . S
C629 C630 1.333 . S
C629 N631 1.317 . S
C629 H634 0.930 . S
C630 C629 1.333 . S
C630 N632 1.350 . S
C630 H656 0.931 . S
N631 Co627 2.148 . S
N631 C628 1.301 . S
N631 C629 1.317 . S
N632 C628 1.328 . S
N632 C630 1.350 . S
H633 C628 0.930 . S
H634 C629 0.930 . S
C635 O636 1.224 . S
C635 O654 1.247 . S
O636 C635 1.224 . S
N637 Co627 2.128 . S
N637 C638 1.355 . S
N637 C640 1.311 . S
C638 N637 1.355 . S
C638 C639 1.363 . S
C638 H650 0.929 . S
C639 C638 1.363 . S
C639 N641 1.375 . S
C639 H657 0.931 . S
C640 N637 1.311 . S
C640 N641 1.347 . S
C640 H651 0.929 . S
N641 C639 1.375 . S
N641 C640 1.347 . S
C642 C645 1.365 . S
C642 N647 1.328 . S
C642 H648 0.929 . S
C643 C644 1.362 . S
C643 C646 1.378 . S
C643 H658 0.929 . S
C644 C643 1.362 . S
C644 C645 1.366 . S
C645 C642 1.365 . S
C645 C644 1.366 . S
C645 H659 0.930 . S
C646 C643 1.378 . S
C646 N647 1.315 . S
C646 H649 0.930 . S
N647 Co627 2.194 . S
N647 C642 1.328 . S
N647 C646 1.315 . S
H648 C642 0.929 . S
H649 C646 0.930 . S
H650 C638 0.929 . S
H651 C640 0.929 . S
O652 Co627 2.351 . S
O652 C655 1.244 . S
O653 Co627 2.155 . S
O653 C655 1.240 . S
O654 Co627 2.096 . S
O654 C635 1.247 . S
C655 O652 1.244 . S
C655 O653 1.240 . S
H656 C630 0.931 . S
H657 C639 0.931 . S
H658 C643 0.929 . S
H659 C645 0.930 . S
Co660 N664 2.148 . S
Co660 N670 2.128 . S
Co660 N680 2.194 . S
Co660 O685 2.351 . S
Co660 O686 2.155 . S
Co660 O687 2.096 . S
C661 N664 1.301 . S
C661 N665 1.328 . S
C661 H666 0.930 . S
C662 C663 1.333 . S
C662 N664 1.317 . S
C662 H667 0.930 . S
C663 C662 1.333 . S
C663 N665 1.350 . S
C663 H689 0.931 . S
N664 Co660 2.148 . S
N664 C661 1.301 . S
N664 C662 1.317 . S
N665 C661 1.328 . S
N665 C663 1.350 . S
H666 C661 0.930 . S
H667 C662 0.930 . S
C668 O669 1.224 . S
C668 O687 1.247 . S
O669 C668 1.224 . S
N670 Co660 2.128 . S
N670 C671 1.355 . S
N670 C673 1.311 . S
C671 N670 1.355 . S
C671 C672 1.363 . S
C671 H683 0.929 . S
C672 C671 1.363 . S
C672 N674 1.375 . S
C672 H690 0.931 . S
C673 N670 1.311 . S
C673 N674 1.347 . S
C673 H684 0.929 . S
N674 C672 1.375 . S
N674 C673 1.347 . S
C675 C678 1.365 . S
C675 N680 1.328 . S
C675 H681 0.929 . S
C676 C677 1.362 . S
C676 C679 1.378 . S
C676 H691 0.929 . S
C677 C676 1.362 . S
C677 C678 1.366 . S
C678 C675 1.365 . S
C678 C677 1.366 . S
C678 H692 0.930 . S
C679 C676 1.378 . S
C679 N680 1.315 . S
C679 H682 0.930 . S
N680 Co660 2.194 . S
N680 C675 1.328 . S
N680 C679 1.315 . S
H681 C675 0.929 . S
H682 C679 0.930 . S
H683 C671 0.929 . S
H684 C673 0.929 . S
O685 Co660 2.351 . S
O685 C688 1.244 . S
O686 Co660 2.155 . S
O686 C688 1.240 . S
O687 Co660 2.096 . S
O687 C668 1.247 . S
C688 O685 1.244 . S
C688 O686 1.240 . S
H689 C663 0.931 . S
H690 C672 0.931 . S
H691 C676 0.929 . S
H692 C678 0.930 . S
Co693 N697 2.148 . S
Co693 N703 2.128 . S
Co693 N713 2.194 . S
Co693 O718 2.351 . S
Co693 O719 2.155 . S
Co693 O720 2.096 . S
C694 N697 1.301 . S
C694 N698 1.328 . S
C694 H699 0.930 . S
C695 C696 1.333 . S
C695 N697 1.317 . S
C695 H700 0.930 . S
C696 C695 1.333 . S
C696 N698 1.350 . S
C696 H722 0.931 . S
N697 Co693 2.148 . S
N697 C694 1.301 . S
N697 C695 1.317 . S
N698 C694 1.328 . S
N698 C696 1.350 . S
H699 C694 0.930 . S
H700 C695 0.930 . S
C701 O702 1.224 . S
C701 O720 1.247 . S
O702 C701 1.224 . S
N703 Co693 2.128 . S
N703 C704 1.355 . S
N703 C706 1.311 . S
C704 N703 1.355 . S
C704 C705 1.363 . S
C704 H716 0.929 . S
C705 C704 1.363 . S
C705 N707 1.375 . S
C705 H723 0.931 . S
C706 N703 1.311 . S
C706 N707 1.347 . S
C706 H717 0.929 . S
N707 C705 1.375 . S
N707 C706 1.347 . S
C708 C711 1.365 . S
C708 N713 1.328 . S
C708 H714 0.929 . S
C709 C710 1.362 . S
C709 C712 1.378 . S
C709 H724 0.929 . S
C710 C709 1.362 . S
C710 C711 1.366 . S
C711 C708 1.365 . S
C711 C710 1.366 . S
C711 H725 0.930 . S
C712 C709 1.378 . S
C712 N713 1.315 . S
C712 H715 0.930 . S
N713 Co693 2.194 . S
N713 C708 1.328 . S
N713 C712 1.315 . S
H714 C708 0.929 . S
H715 C712 0.930 . S
H716 C704 0.929 . S
H717 C706 0.929 . S
O718 Co693 2.351 . S
O718 C721 1.244 . S
O719 Co693 2.155 . S
O719 C721 1.240 . S
O720 Co693 2.096 . S
O720 C701 1.247 . S
C721 O718 1.244 . S
C721 O719 1.240 . S
H722 C696 0.931 . S
H723 C705 0.931 . S
H724 C709 0.929 . S
H725 C711 0.930 . S
Co726 N730 2.148 . S
Co726 N736 2.128 . S
Co726 N746 2.194 . S
Co726 O751 2.351 . S
Co726 O752 2.155 . S
Co726 O753 2.096 . S
C727 N730 1.301 . S
C727 N731 1.328 . S
C727 H732 0.930 . S
C728 C729 1.333 . S
C728 N730 1.317 . S
C728 H733 0.930 . S
C729 C728 1.333 . S
C729 N731 1.350 . S
C729 H755 0.931 . S
N730 Co726 2.148 . S
N730 C727 1.301 . S
N730 C728 1.317 . S
N731 C727 1.328 . S
N731 C729 1.350 . S
H732 C727 0.930 . S
H733 C728 0.930 . S
C734 O735 1.224 . S
C734 O753 1.247 . S
O735 C734 1.224 . S
N736 Co726 2.128 . S
N736 C737 1.355 . S
N736 C739 1.311 . S
C737 N736 1.355 . S
C737 C738 1.363 . S
C737 H749 0.929 . S
C738 C737 1.363 . S
C738 N740 1.375 . S
C738 H756 0.931 . S
C739 N736 1.311 . S
C739 N740 1.347 . S
C739 H750 0.929 . S
N740 C738 1.375 . S
N740 C739 1.347 . S
C741 C744 1.365 . S
C741 N746 1.328 . S
C741 H747 0.929 . S
C742 C743 1.362 . S
C742 C745 1.378 . S
C742 H757 0.929 . S
C743 C742 1.362 . S
C743 C744 1.366 . S
C744 C741 1.365 . S
C744 C743 1.366 . S
C744 H758 0.930 . S
C745 C742 1.378 . S
C745 N746 1.315 . S
C745 H748 0.930 . S
N746 Co726 2.194 . S
N746 C741 1.328 . S
N746 C745 1.315 . S
H747 C741 0.929 . S
H748 C745 0.930 . S
H749 C737 0.929 . S
H750 C739 0.929 . S
O751 Co726 2.351 . S
O751 C754 1.244 . S
O752 Co726 2.155 . S
O752 C754 1.240 . S
O753 Co726 2.096 . S
O753 C734 1.247 . S
C754 O751 1.244 . S
C754 O752 1.240 . S
H755 C729 0.931 . S
H756 C738 0.931 . S
H757 C742 0.929 . S
H758 C744 0.930 . S
Co759 N763 2.148 . S
Co759 N769 2.128 . S
Co759 N779 2.194 . S
Co759 O784 2.351 . S
Co759 O785 2.155 . S
Co759 O786 2.096 . S
C760 N763 1.301 . S
C760 N764 1.328 . S
C760 H765 0.930 . S
C761 C762 1.333 . S
C761 N763 1.317 . S
C761 H766 0.930 . S
C762 C761 1.333 . S
C762 N764 1.350 . S
C762 H788 0.931 . S
N763 Co759 2.148 . S
N763 C760 1.301 . S
N763 C761 1.317 . S
N764 C760 1.328 . S
N764 C762 1.350 . S
H765 C760 0.930 . S
H766 C761 0.930 . S
C767 O768 1.224 . S
C767 O786 1.247 . S
O768 C767 1.224 . S
N769 Co759 2.128 . S
N769 C770 1.355 . S
N769 C772 1.311 . S
C770 N769 1.355 . S
C770 C771 1.363 . S
C770 H782 0.929 . S
C771 C770 1.363 . S
C771 N773 1.375 . S
C771 H789 0.931 . S
C772 N769 1.311 . S
C772 N773 1.347 . S
C772 H783 0.929 . S
N773 C771 1.375 . S
N773 C772 1.347 . S
C774 C777 1.365 . S
C774 N779 1.328 . S
C774 H780 0.929 . S
C775 C776 1.362 . S
C775 C778 1.378 . S
C775 H790 0.929 . S
C776 C775 1.362 . S
C776 C777 1.366 . S
C777 C774 1.365 . S
C777 C776 1.366 . S
C777 H791 0.930 . S
C778 C775 1.378 . S
C778 N779 1.315 . S
C778 H781 0.930 . S
N779 Co759 2.194 . S
N779 C774 1.328 . S
N779 C778 1.315 . S
H780 C774 0.929 . S
H781 C778 0.930 . S
H782 C770 0.929 . S
H783 C772 0.929 . S
O784 Co759 2.351 . S
O784 C787 1.244 . S
O785 Co759 2.155 . S
O785 C787 1.240 . S
O786 Co759 2.096 . S
O786 C767 1.247 . S
C787 O784 1.244 . S
C787 O785 1.240 . S
H788 C762 0.931 . S
H789 C771 0.931 . S
H790 C775 0.929 . S
H791 C777 0.930 . S
C792 C793 1.369 . S
C792 C794 1.419 . S
C792 H796 0.930 . S
C793 C792 1.369 . S
C793 C802 1.429 . S
C794 C792 1.419 . S
C794 C795 1.363 . S
C794 H797 0.929 . S
C795 C794 1.363 . S
C795 C801 1.428 . S
H796 C792 0.930 . S
H797 C794 0.929 . S
S798 N799 1.613 . S
S798 N800 1.610 . S
N799 S798 1.613 . S
N799 C802 1.350 . S
N800 S798 1.610 . S
N800 C801 1.351 . S
C801 C795 1.428 . S
C801 N800 1.351 . S
C801 C802 1.434 . S
C802 C793 1.429 . S
C802 N799 1.350 . S
C802 C801 1.434 . S
C803 C804 1.369 . S
C803 C805 1.419 . S
C803 H807 0.930 . S
C804 C803 1.369 . S
C804 C813 1.429 . S
C805 C803 1.419 . S
C805 C806 1.363 . S
C805 H808 0.929 . S
C806 C805 1.363 . S
C806 C812 1.428 . S
H807 C803 0.930 . S
H808 C805 0.929 . S
S809 N810 1.613 . S
S809 N811 1.610 . S
N810 S809 1.613 . S
N810 C813 1.350 . S
N811 S809 1.610 . S
N811 C812 1.351 . S
C812 C806 1.428 . S
C812 N811 1.351 . S
C812 C813 1.434 . S
C813 C804 1.429 . S
C813 N810 1.350 . S
C813 C812 1.434 . S
C814 C815 1.369 . S
C814 C816 1.419 . S
C814 H818 0.930 . S
C815 C814 1.369 . S
C815 C824 1.429 . S
C816 C814 1.419 . S
C816 C817 1.363 . S
C816 H819 0.929 . S
C817 C816 1.363 . S
C817 C823 1.428 . S
H818 C814 0.930 . S
H819 C816 0.929 . S
S820 N821 1.613 . S
S820 N822 1.610 . S
N821 S820 1.613 . S
N821 C824 1.350 . S
N822 S820 1.610 . S
N822 C823 1.351 . S
C823 C817 1.428 . S
C823 N822 1.351 . S
C823 C824 1.434 . S
C824 C815 1.429 . S
C824 N821 1.350 . S
C824 C823 1.434 . S
C825 C826 1.369 . S
C825 C827 1.419 . S
C825 H829 0.930 . S
C826 C825 1.369 . S
C826 C835 1.429 . S
C827 C825 1.419 . S
C827 C828 1.363 . S
C827 H830 0.929 . S
C828 C827 1.363 . S
C828 C834 1.428 . S
H829 C825 0.930 . S
H830 C827 0.929 . S
S831 N832 1.613 . S
S831 N833 1.610 . S
N832 S831 1.613 . S
N832 C835 1.350 . S
N833 S831 1.610 . S
N833 C834 1.351 . S
C834 C828 1.428 . S
C834 N833 1.351 . S
C834 C835 1.434 . S
C835 C826 1.429 . S
C835 N832 1.350 . S
C835 C834 1.434 . S
C836 C837 1.369 . S
C836 C838 1.419 . S
C836 H840 0.930 . S
C837 C836 1.369 . S
C837 C846 1.429 . S
C838 C836 1.419 . S
C838 C839 1.363 . S
C838 H841 0.929 . S
C839 C838 1.363 . S
C839 C845 1.428 . S
H840 C836 0.930 . S
H841 C838 0.929 . S
S842 N843 1.613 . S
S842 N844 1.610 . S
N843 S842 1.613 . S
N843 C846 1.350 . S
N844 S842 1.610 . S
N844 C845 1.351 . S
C845 C839 1.428 . S
C845 N844 1.351 . S
C845 C846 1.434 . S
C846 C837 1.429 . S
C846 N843 1.350 . S
C846 C845 1.434 . S
C847 C848 1.369 . S
C847 C849 1.419 . S
C847 H851 0.930 . S
C848 C847 1.369 . S
C848 C857 1.429 . S
C849 C847 1.419 . S
C849 C850 1.363 . S
C849 H852 0.929 . S
C850 C849 1.363 . S
C850 C856 1.428 . S
H851 C847 0.930 . S
H852 C849 0.929 . S
S853 N854 1.613 . S
S853 N855 1.610 . S
N854 S853 1.613 . S
N854 C857 1.350 . S
N855 S853 1.610 . S
N855 C856 1.351 . S
C856 C850 1.428 . S
C856 N855 1.351 . S
C856 C857 1.434 . S
C857 C848 1.429 . S
C857 N854 1.350 . S
C857 C856 1.434 . S
C858 C859 1.369 . S
C858 C860 1.419 . S
C858 H862 0.930 . S
C859 C858 1.369 . S
C859 C868 1.429 . S
C860 C858 1.419 . S
C860 C861 1.363 . S
C860 H863 0.929 . S
C861 C860 1.363 . S
C861 C867 1.428 . S
H862 C858 0.930 . S
H863 C860 0.929 . S
S864 N865 1.613 . S
S864 N866 1.610 . S
N865 S864 1.613 . S
N865 C868 1.350 . S
N866 S864 1.610 . S
N866 C867 1.351 . S
C867 C861 1.428 . S
C867 N866 1.351 . S
C867 C868 1.434 . S
C868 C859 1.429 . S
C868 N865 1.350 . S
C868 C867 1.434 . S
C869 C870 1.369 . S
C869 C871 1.419 . S
C869 H873 0.930 . S
C870 C869 1.369 . S
C870 C879 1.429 . S
C871 C869 1.419 . S
C871 C872 1.363 . S
C871 H874 0.929 . S
C872 C871 1.363 . S
C872 C878 1.428 . S
H873 C869 0.930 . S
H874 C871 0.929 . S
S875 N876 1.613 . S
S875 N877 1.610 . S
N876 S875 1.613 . S
N876 C879 1.350 . S
N877 S875 1.610 . S
N877 C878 1.351 . S
C878 C872 1.428 . S
C878 N877 1.351 . S
C878 C879 1.434 . S
C879 C870 1.429 . S
C879 N876 1.350 . S
C879 C878 1.434 . S
C880 C881 1.369 . S
C880 C882 1.419 . S
C880 H884 0.930 . S
C881 C880 1.369 . S
C881 C890 1.429 . S
C882 C880 1.419 . S
C882 C883 1.363 . S
C882 H885 0.929 . S
C883 C882 1.363 . S
C883 C889 1.428 . S
H884 C880 0.930 . S
H885 C882 0.929 . S
S886 N887 1.613 . S
S886 N888 1.610 . S
N887 S886 1.613 . S
N887 C890 1.350 . S
N888 S886 1.610 . S
N888 C889 1.351 . S
C889 C883 1.428 . S
C889 N888 1.351 . S
C889 C890 1.434 . S
C890 C881 1.429 . S
C890 N887 1.350 . S
C890 C889 1.434 . S
C891 C892 1.369 . S
C891 C893 1.419 . S
C891 H895 0.930 . S
C892 C891 1.369 . S
C892 C901 1.429 . S
C893 C891 1.419 . S
C893 C894 1.363 . S
C893 H896 0.929 . S
C894 C893 1.363 . S
C894 C900 1.428 . S
H895 C891 0.930 . S
H896 C893 0.929 . S
S897 N898 1.613 . S
S897 N899 1.610 . S
N898 S897 1.613 . S
N898 C901 1.350 . S
N899 S897 1.610 . S
N899 C900 1.351 . S
C900 C894 1.428 . S
C900 N899 1.351 . S
C900 C901 1.434 . S
C901 C892 1.429 . S
C901 N898 1.350 . S
C901 C900 1.434 . S
C902 C903 1.369 . S
C902 C904 1.419 . S
C902 H906 0.930 . S
C903 C902 1.369 . S
C903 C912 1.429 . S
C904 C902 1.419 . S
C904 C905 1.363 . S
C904 H907 0.929 . S
C905 C904 1.363 . S
C905 C911 1.428 . S
H906 C902 0.930 . S
H907 C904 0.929 . S
S908 N909 1.613 . S
S908 N910 1.610 . S
N909 S908 1.613 . S
N909 C912 1.350 . S
N910 S908 1.610 . S
N910 C911 1.351 . S
C911 C905 1.428 . S
C911 N910 1.351 . S
C911 C912 1.434 . S
C912 C903 1.429 . S
C912 N909 1.350 . S
C912 C911 1.434 . S
C913 C914 1.369 . S
C913 C915 1.419 . S
C913 H917 0.930 . S
C914 C913 1.369 . S
C914 C923 1.429 . S
C915 C913 1.419 . S
C915 C916 1.363 . S
C915 H918 0.929 . S
C916 C915 1.363 . S
C916 C922 1.428 . S
H917 C913 0.930 . S
H918 C915 0.929 . S
S919 N920 1.613 . S
S919 N921 1.610 . S
N920 S919 1.613 . S
N920 C923 1.350 . S
N921 S919 1.610 . S
N921 C922 1.351 . S
C922 C916 1.428 . S
C922 N921 1.351 . S
C922 C923 1.434 . S
C923 C914 1.429 . S
C923 N920 1.350 . S
C923 C922 1.434 . S
C924 C925 1.369 1_545 S
C924 C926 1.419 . S
C924 H928 0.930 . S
C925 C924 1.369 1_565 S
C925 C934 1.429 . S
C926 C924 1.419 . S
C926 C927 1.363 . S
C926 H929 0.929 . S
C927 C926 1.363 . S
C927 C933 1.428 . S
H928 C924 0.930 . S
H929 C926 0.929 . S
S930 N931 1.613 . S
S930 N932 1.610 1_565 S
N931 S930 1.613 . S
N931 C934 1.350 . S
N932 S930 1.610 1_545 S
N932 C933 1.351 . S
C933 C927 1.428 . S
C933 N932 1.351 . S
C933 C934 1.434 1_545 S
C934 C925 1.429 . S
C934 N931 1.350 . S
C934 C933 1.434 1_565 S
C935 C936 1.369 . S
C935 C937 1.419 . S
C935 H939 0.930 . S
C936 C935 1.369 . S
C936 C945 1.429 . S
C937 C935 1.419 . S
C937 C938 1.363 1_655 S
C937 H940 0.929 . S
C938 C937 1.363 1_455 S
C938 C944 1.428 1_455 S
H939 C935 0.930 . S
H940 C937 0.929 . S
S941 N942 1.613 . S
S941 N943 1.610 1_655 S
N942 S941 1.613 . S
N942 C945 1.350 . S
N943 S941 1.610 1_455 S
N943 C944 1.351 1_455 S
C944 C938 1.428 1_655 S
C944 N943 1.351 1_655 S
C944 C945 1.434 . S
C945 C936 1.429 . S
C945 N942 1.350 . S
C945 C944 1.434 . S
C946 C947 1.369 . S
C946 C948 1.438 . S
C946 H950 0.930 . S
C947 C946 1.369 . S
C947 C956 1.429 . S
C948 C946 1.438 . S
C948 C949 1.356 1_565 S
C948 H951 0.917 1_565 S
C949 C948 1.356 1_545 S
C949 C955 1.428 1_545 S
H950 C946 0.930 . S
H951 C948 0.917 1_545 S
S952 N953 1.613 . S
S952 N954 1.610 . S
N953 S952 1.613 . S
N953 C956 1.350 . S
N954 S952 1.610 . S
N954 C955 1.351 . S
C955 C949 1.428 1_565 S
C955 N954 1.351 . S
C955 C956 1.434 . S
C956 C947 1.429 . S
C956 N953 1.350 . S
C956 C955 1.434 . S
C957 C958 1.369 1_455 S
C957 C959 1.419 . S
C957 H961 0.930 1_455 S
C958 C957 1.369 1_655 S
C958 C967 1.429 1_655 S
C959 C957 1.419 . S
C959 C960 1.363 . S
C959 H962 0.929 . S
C960 C959 1.363 . S
C960 C966 1.428 . S
H961 C957 0.930 1_655 S
H962 C959 0.929 . S
S963 N964 1.613 1_455 S
S963 N965 1.610 . S
N964 S963 1.613 1_655 S
N964 C967 1.350 1_655 S
N965 S963 1.610 . S
N965 C966 1.351 . S
C966 C960 1.428 . S
C966 N965 1.351 . S
C966 C967 1.434 . S
C967 C958 1.429 1_455 S
C967 N964 1.350 1_455 S
C967 C966 1.434 . S
C968 C969 1.369 1_565 S
C968 C970 1.419 . S
C968 H972 0.930 . S
C969 C968 1.369 1_545 S
C969 C978 1.429 . S
C970 C968 1.419 . S
C970 C971 1.363 . S
C970 H973 0.929 . S
C971 C970 1.363 . S
C971 C977 1.428 . S
H972 C968 0.930 . S
H973 C970 0.929 . S
S974 N975 1.613 . S
S974 N976 1.610 1_545 S
N975 S974 1.613 . S
N975 C978 1.350 . S
N976 S974 1.610 1_565 S
N976 C977 1.351 . S
C977 C971 1.428 . S
C977 N976 1.351 . S
C977 C978 1.434 1_565 S
C978 C969 1.429 . S
C978 N975 1.350 . S
C978 C977 1.434 1_545 S
C979 C980 1.369 . S
C979 C981 1.418 1_455 S
C979 H983 0.930 . S
C980 C979 1.369 . S
C980 C989 1.429 . S
C981 C979 1.418 1_655 S
C981 C982 1.363 . S
C981 H984 0.930 . S
C982 C981 1.363 . S
C982 C988 1.428 1_655 S
H983 C979 0.930 . S
H984 C981 0.930 . S
S985 N986 1.613 . S
S985 N987 1.610 . S
N986 S985 1.613 . S
N986 C989 1.350 . S
N987 S985 1.610 . S
N987 C988 1.351 . S
C988 C982 1.428 1_455 S
C988 N987 1.351 . S
C988 C989 1.434 . S
C989 C980 1.429 . S
C989 N986 1.350 . S
C989 C988 1.434 . S
C990 C991 1.369 1_545 S
C990 C992 1.419 . S
C990 H994 0.930 . S
C991 C990 1.369 1_565 S
C991 C1000 1.429 . S
C992 C990 1.419 . S
C992 C993 1.363 . S
C992 H995 0.929 . S
C993 C992 1.363 . S
C993 C999 1.428 . S
H994 C990 0.930 . S
H995 C992 0.929 . S
S996 N997 1.613 . S
S996 N998 1.610 1_565 S
N997 S996 1.613 . S
N997 C1000 1.350 . S
N998 S996 1.610 1_545 S
N998 C999 1.351 . S
C999 C993 1.428 . S
C999 N998 1.351 . S
C999 C1000 1.434 1_545 S
C1000 C991 1.429 . S
C1000 N997 1.350 . S
C1000 C999 1.434 1_565 S
C1001 C1002 1.369 1_655 S
C1001 C1003 1.419 . S
C1001 H1005 0.930 . S
C1002 C1001 1.369 1_455 S
C1002 C1011 1.433 . S
C1003 C1001 1.419 . S
C1003 C1004 1.363 . S
C1003 H1006 0.929 . S
C1004 C1003 1.363 . S
C1004 C1010 1.428 . S
H1005 C1001 0.930 . S
H1006 C1003 0.929 . S
S1007 N1008 1.613 1_655 S
S1007 N1009 1.610 . S
N1008 S1007 1.613 1_455 S
N1008 C1011 1.358 . S
N1009 S1007 1.610 . S
N1009 C1010 1.351 . S
C1010 C1004 1.428 . S
C1010 N1009 1.351 . S
C1010 C1011 1.420 1_655 S
C1011 C1002 1.433 . S
C1011 N1008 1.358 . S
C1011 C1010 1.420 1_455 S
C1012 C1013 1.369 1_554 S
C1012 C1014 1.419 . S
C1012 H1016 0.930 . S
C1013 C1012 1.369 1_556 S
C1013 C1022 1.429 . S
C1014 C1012 1.419 . S
C1014 C1015 1.363 . S
C1014 H1017 0.929 . S
C1015 C1014 1.363 . S
C1015 C1021 1.428 . S
H1016 C1012 0.930 . S
H1017 C1014 0.929 . S
S1018 N1019 1.602 1_554 S
S1018 N1020 1.627 . S
N1019 S1018 1.602 1_556 S
N1019 C1022 1.350 . S
N1020 S1018 1.627 . S
N1020 C1021 1.351 . S
C1021 C1015 1.428 . S
C1021 N1020 1.351 . S
C1021 C1022 1.434 1_554 S
C1022 C1013 1.429 . S
C1022 N1019 1.350 . S
C1022 C1021 1.434 1_556 S
C1023 C1024 1.369 . S
C1023 C1025 1.419 1_554 S
C1023 H1027 0.930 . S
C1024 C1023 1.369 . S
C1024 C1033 1.429 . S
C1025 C1023 1.419 1_556 S
C1025 C1026 1.363 . S
C1025 H1028 0.929 . S
C1026 C1025 1.363 . S
C1026 C1032 1.428 1_556 S
H1027 C1023 0.930 . S
H1028 C1025 0.929 . S
S1029 N1030 1.613 . S
S1029 N1031 1.610 . S
N1030 S1029 1.613 . S
N1030 C1033 1.350 . S
N1031 S1029 1.610 . S
N1031 C1032 1.351 . S
C1032 C1026 1.428 1_554 S
C1032 N1031 1.351 . S
C1032 C1033 1.434 . S
C1033 C1024 1.429 . S
C1033 N1030 1.350 . S
C1033 C1032 1.434 . S
C1034 C1035 1.369 1_554 S
C1034 C1036 1.419 . S
C1034 H1038 0.930 . S
C1035 C1034 1.369 1_556 S
C1035 C1044 1.429 1_556 S
C1036 C1034 1.419 . S
C1036 C1037 1.363 . S
C1036 H1039 0.929 . S
C1037 C1036 1.363 . S
C1037 C1043 1.428 . S
H1038 C1034 0.930 . S
H1039 C1036 0.929 . S
S1040 N1041 1.613 1_554 S
S1040 N1042 1.610 . S
N1041 S1040 1.613 1_556 S
N1041 C1044 1.350 1_556 S
N1042 S1040 1.610 . S
N1042 C1043 1.351 . S
C1043 C1037 1.428 . S
C1043 N1042 1.351 . S
C1043 C1044 1.434 . S
C1044 C1035 1.429 1_554 S
C1044 N1041 1.350 1_554 S
C1044 C1043 1.434 . S
C1045 C1046 1.369 . S
C1045 C1047 1.419 . S
C1045 H1049 0.930 . S
C1046 C1045 1.369 . S
C1046 C1055 1.429 . S
C1047 C1045 1.419 . S
C1047 C1048 1.363 1_554 S
C1047 H1050 0.929 . S
C1048 C1047 1.363 1_556 S
C1048 C1054 1.428 . S
H1049 C1045 0.930 . S
H1050 C1047 0.929 . S
S1051 N1052 1.613 1_556 S
S1051 N1053 1.610 . S
N1052 S1051 1.613 1_554 S
N1052 C1055 1.350 . S
N1053 S1051 1.610 . S
N1053 C1054 1.351 . S
C1054 C1048 1.428 . S
C1054 N1053 1.351 . S
C1054 C1055 1.434 1_556 S
C1055 C1046 1.429 . S
C1055 N1052 1.350 . S
C1055 C1054 1.434 1_554 S
C1056 C1057 1.369 1_556 S
C1056 C1058 1.419 . S
C1056 H1060 0.930 1_556 S
C1057 C1056 1.369 1_554 S
C1057 C1066 1.429 1_554 S
C1058 C1056 1.419 . S
C1058 C1059 1.363 . S
C1058 H1061 0.929 . S
C1059 C1058 1.363 . S
C1059 C1065 1.428 . S
H1060 C1056 0.930 1_554 S
H1061 C1058 0.929 . S
S1062 N1063 1.613 . S
S1062 N1064 1.610 . S
N1063 S1062 1.613 . S
N1063 C1066 1.350 . S
N1064 S1062 1.610 . S
N1064 C1065 1.351 . S
C1065 C1059 1.428 . S
C1065 N1064 1.351 . S
C1065 C1066 1.434 . S
C1066 C1057 1.429 1_556 S
C1066 N1063 1.350 . S
C1066 C1065 1.434 . S
C1067 C1068 1.369 . S
C1067 C1069 1.419 . S
C1067 H1071 0.930 . S
C1068 C1067 1.369 . S
C1068 C1077 1.429 . S
C1069 C1067 1.419 . S
C1069 C1070 1.363 1_556 S
C1069 H1072 0.929 1_556 S
C1070 C1069 1.363 1_554 S
C1070 C1076 1.428 1_554 S
H1071 C1067 0.930 . S
H1072 C1069 0.929 1_554 S
S1073 N1074 1.613 . S
S1073 N1075 1.627 . S
N1074 S1073 1.613 . S
N1074 C1077 1.350 . S
N1075 S1073 1.627 . S
N1075 C1076 1.356 . S
C1076 C1070 1.428 1_556 S
C1076 N1075 1.356 . S
C1076 C1077 1.434 . S
C1077 C1068 1.429 . S
C1077 N1074 1.350 . S
C1077 C1076 1.434 . S
C1078 C1079 1.369 1_556 S
C1078 C1080 1.419 . S
C1078 H1082 0.930 1_556 S
C1079 C1078 1.369 1_554 S
C1079 C1088 1.429 1_554 S
C1080 C1078 1.419 . S
C1080 C1081 1.363 . S
C1080 H1083 0.929 . S
C1081 C1080 1.363 . S
C1081 C1087 1.428 . S
H1082 C1078 0.930 1_554 S
H1083 C1080 0.929 . S
S1084 N1085 1.613 . S
S1084 N1086 1.610 . S
N1085 S1084 1.613 . S
N1085 C1088 1.350 . S
N1086 S1084 1.610 . S
N1086 C1087 1.351 . S
C1087 C1081 1.428 . S
C1087 N1086 1.351 . S
C1087 C1088 1.434 . S
C1088 C1079 1.429 1_556 S
C1088 N1085 1.350 . S
C1088 C1087 1.434 . S
C1089 C1090 1.369 . S
C1089 C1091 1.419 1_556 S
C1089 H1093 0.930 . S
C1090 C1089 1.369 . S
C1090 C1099 1.429 . S
C1091 C1089 1.419 1_554 S
C1091 C1092 1.363 . S
C1091 H1094 0.929 . S
C1092 C1091 1.363 . S
C1092 C1098 1.428 1_554 S
H1093 C1089 0.930 . S
H1094 C1091 0.929 . S
S1095 N1096 1.613 . S
S1095 N1097 1.610 . S
N1096 S1095 1.613 . S
N1096 C1099 1.350 . S
N1097 S1095 1.610 . S
N1097 C1098 1.351 . S
C1098 C1092 1.428 1_556 S
C1098 N1097 1.351 . S
C1098 C1099 1.434 . S
C1099 C1090 1.429 . S
C1099 N1096 1.350 . S
C1099 C1098 1.434 . S
C1100 C1101 1.369 1_455 S
C1100 C1102 1.419 . S
C1100 H1104 0.930 . S
C1101 C1100 1.369 1_655 S
C1101 C1110 1.429 . S
C1102 C1100 1.419 . S
C1102 C1103 1.363 . S
C1102 H1105 0.929 . S
C1103 C1102 1.363 . S
C1103 C1109 1.428 . S
H1104 C1100 0.930 . S
H1105 C1102 0.929 . S
S1106 N1107 1.592 1_455 S
S1106 N1108 1.643 . S
N1107 S1106 1.592 1_655 S
N1107 C1110 1.350 . S
N1108 S1106 1.643 . S
N1108 C1109 1.351 . S
C1109 C1103 1.428 . S
C1109 N1108 1.351 . S
C1109 C1110 1.434 1_455 S
C1110 C1101 1.429 . S
C1110 N1107 1.350 . S
C1110 C1109 1.434 1_655 S
C1111 C1112 1.369 1_455 S
C1111 C1113 1.419 . S
C1111 H1115 0.930 . S
C1112 C1111 1.369 1_655 S
C1112 C1121 1.429 . S
C1113 C1111 1.419 . S
C1113 C1114 1.363 . S
C1113 H1116 0.929 . S
C1114 C1113 1.363 . S
C1114 C1120 1.428 . S
H1115 C1111 0.930 . S
H1116 C1113 0.929 . S
S1117 N1118 1.613 . S
S1117 N1119 1.610 1_655 S
N1118 S1117 1.613 . S
N1118 C1121 1.350 . S
N1119 S1117 1.610 1_455 S
N1119 C1120 1.351 . S
C1120 C1114 1.428 . S
C1120 N1119 1.351 . S
C1120 C1121 1.434 1_455 S
C1121 C1112 1.429 . S
C1121 N1118 1.350 . S
C1121 C1120 1.434 1_655 S
C1122 C1123 1.369 . S
C1122 C1124 1.385 1_545 S
C1122 H1126 0.930 . S
C1123 C1122 1.369 . S
C1123 C1132 1.429 . S
C1124 C1122 1.385 1_565 S
C1124 C1125 1.375 . S
C1124 H1127 0.953 . S
C1125 C1124 1.375 . S
C1125 C1131 1.428 1_565 S
H1126 C1122 0.930 . S
H1127 C1124 0.953 . S
S1128 N1129 1.613 . S
S1128 N1130 1.610 . S
N1129 S1128 1.613 . S
N1129 C1132 1.350 . S
N1130 S1128 1.610 . S
N1130 C1131 1.351 . S
C1131 C1125 1.428 1_545 S
C1131 N1130 1.351 . S
C1131 C1132 1.434 . S
C1132 C1123 1.429 . S
C1132 N1129 1.350 . S
C1132 C1131 1.434 . S
C1133 C1134 1.369 . S
C1133 C1135 1.419 . S
C1133 H1137 0.930 . S
C1134 C1133 1.369 . S
C1134 C1143 1.429 . S
C1135 C1133 1.419 . S
C1135 C1136 1.363 1_655 S
C1135 H1138 0.929 . S
C1136 C1135 1.363 1_455 S
C1136 C1142 1.428 . S
H1137 C1133 0.930 . S
H1138 C1135 0.929 . S
S1139 N1140 1.613 1_455 S
S1139 N1141 1.610 . S
N1140 S1139 1.613 1_655 S
N1140 C1143 1.350 . S
N1141 S1139 1.610 . S
N1141 C1142 1.351 . S
C1142 C1136 1.428 . S
C1142 N1141 1.351 . S
C1142 C1143 1.434 1_455 S
C1143 C1134 1.429 . S
C1143 N1140 1.350 . S
C1143 C1142 1.434 1_655 S
C1144 C1145 1.369 1_565 S
C1144 C1146 1.419 . S
C1144 H1148 0.930 1_565 S
C1145 C1144 1.369 1_545 S
C1145 C1154 1.429 1_545 S
C1146 C1144 1.419 . S
C1146 C1147 1.363 . S
C1146 H1149 0.929 . S
C1147 C1146 1.363 . S
C1147 C1153 1.428 . S
H1148 C1144 0.930 1_545 S
H1149 C1146 0.929 . S
S1150 N1151 1.613 . S
S1150 N1152 1.610 . S
N1151 S1150 1.613 . S
N1151 C1154 1.350 . S
N1152 S1150 1.610 . S
N1152 C1153 1.351 . S
C1153 C1147 1.428 . S
C1153 N1152 1.351 . S
C1153 C1154 1.434 . S
C1154 C1145 1.429 1_565 S
C1154 N1151 1.350 . S
C1154 C1153 1.434 . S
C1155 C1156 1.369 1_655 S
C1155 C1157 1.419 . S
C1155 H1159 0.930 . S
C1156 C1155 1.369 1_455 S
C1156 C1165 1.429 . S
C1157 C1155 1.419 . S
C1157 C1158 1.363 . S
C1157 H1160 0.929 . S
C1158 C1157 1.363 . S
C1158 C1164 1.428 . S
H1159 C1155 0.930 . S
H1160 C1157 0.929 . S
S1161 N1162 1.613 . S
S1161 N1163 1.610 1_455 S
N1162 S1161 1.613 . S
N1162 C1165 1.350 . S
N1163 S1161 1.610 1_655 S
N1163 C1164 1.351 . S
C1164 C1158 1.428 . S
C1164 N1163 1.351 . S
C1164 C1165 1.434 1_655 S
C1165 C1156 1.429 . S
C1165 N1162 1.350 . S
C1165 C1164 1.434 1_455 S
C1166 C1167 1.369 1_565 S
C1166 C1168 1.419 . S
C1166 H1170 0.930 1_565 S
C1167 C1166 1.369 1_545 S
C1167 C1176 1.429 1_545 S
C1168 C1166 1.419 . S
C1168 C1169 1.363 . S
C1168 H1171 0.929 . S
C1169 C1168 1.363 . S
C1169 C1175 1.428 . S
H1170 C1166 0.930 1_545 S
H1171 C1168 0.929 . S
S1172 N1173 1.594 1_565 S
S1172 N1174 1.610 . S
N1173 S1172 1.594 1_545 S
N1173 C1176 1.344 1_545 S
N1174 S1172 1.610 . S
N1174 C1175 1.351 . S
C1175 C1169 1.428 . S
C1175 N1174 1.351 . S
C1175 C1176 1.434 . S
C1176 C1167 1.429 1_565 S
C1176 N1173 1.344 1_565 S
C1176 C1175 1.434 . S
C1177 C1178 1.369 . S
C1177 C1179 1.383 1_545 S
C1177 H1181 0.930 . S
C1178 C1177 1.369 . S
C1178 C1187 1.429 . S
C1179 C1177 1.383 1_565 S
C1179 C1180 1.375 . S
C1179 H1182 0.955 . S
C1180 C1179 1.375 . S
C1180 C1186 1.428 1_565 S
H1181 C1177 0.930 . S
H1182 C1179 0.955 . S
S1183 N1184 1.613 . S
S1183 N1185 1.610 . S
N1184 S1183 1.613 . S
N1184 C1187 1.350 . S
N1185 S1183 1.610 . S
N1185 C1186 1.351 . S
C1186 C1180 1.428 1_545 S
C1186 N1185 1.351 . S
C1186 C1187 1.434 . S
C1187 C1178 1.429 . S
C1187 N1184 1.350 . S
C1187 C1186 1.434 . S
C1188 C1189 1.369 . S
C1188 C1190 1.419 . S
C1188 H1192 0.930 . S
C1189 C1188 1.369 . S
C1189 C1198 1.429 . S
C1190 C1188 1.419 . S
C1190 C1191 1.363 . S
C1190 H1193 0.929 . S
C1191 C1190 1.363 . S
C1191 C1197 1.428 . S
H1192 C1188 0.930 . S
H1193 C1190 0.929 . S
S1194 N1195 1.613 . S
S1194 N1196 1.610 . S
N1195 S1194 1.613 . S
N1195 C1198 1.350 . S
N1196 S1194 1.610 . S
N1196 C1197 1.351 . S
C1197 C1191 1.428 . S
C1197 N1196 1.351 . S
C1197 C1198 1.434 . S
C1198 C1189 1.429 . S
C1198 N1195 1.350 . S
C1198 C1197 1.434 . S
C1199 C1200 1.369 . S
C1199 C1201 1.419 . S
C1199 H1203 0.930 . S
C1200 C1199 1.369 . S
C1200 C1209 1.429 . S
C1201 C1199 1.419 . S
C1201 C1202 1.363 . S
C1201 H1204 0.929 . S
C1202 C1201 1.363 . S
C1202 C1208 1.428 . S
H1203 C1199 0.930 . S
H1204 C1201 0.929 . S
S1205 N1206 1.613 . S
S1205 N1207 1.610 . S
N1206 S1205 1.613 . S
N1206 C1209 1.350 . S
N1207 S1205 1.610 . S
N1207 C1208 1.351 . S
C1208 C1202 1.428 . S
C1208 N1207 1.351 . S
C1208 C1209 1.434 . S
C1209 C1200 1.429 . S
C1209 N1206 1.350 . S
C1209 C1208 1.434 . S
C1210 C1211 1.369 . S
C1210 C1212 1.419 . S
C1210 H1214 0.930 . S
C1211 C1210 1.369 . S
C1211 C1220 1.429 . S
C1212 C1210 1.419 . S
C1212 C1213 1.363 . S
C1212 H1215 0.929 . S
C1213 C1212 1.363 . S
C1213 C1219 1.428 . S
H1214 C1210 0.930 . S
H1215 C1212 0.929 . S
S1216 N1217 1.613 . S
S1216 N1218 1.610 . S
N1217 S1216 1.613 . S
N1217 C1220 1.350 . S
N1218 S1216 1.610 . S
N1218 C1219 1.351 . S
C1219 C1213 1.428 . S
C1219 N1218 1.351 . S
C1219 C1220 1.434 . S
C1220 C1211 1.429 . S
C1220 N1217 1.350 . S
C1220 C1219 1.434 . S
C1221 C1222 1.369 . S
C1221 C1223 1.419 . S
C1221 H1225 0.930 . S
C1222 C1221 1.369 . S
C1222 C1231 1.429 . S
C1223 C1221 1.419 . S
C1223 C1224 1.363 . S
C1223 H1226 0.929 . S
C1224 C1223 1.363 . S
C1224 C1230 1.428 . S
H1225 C1221 0.930 . S
H1226 C1223 0.929 . S
S1227 N1228 1.613 . S
S1227 N1229 1.610 . S
N1228 S1227 1.613 . S
N1228 C1231 1.350 . S
N1229 S1227 1.610 . S
N1229 C1230 1.351 . S
C1230 C1224 1.428 . S
C1230 N1229 1.351 . S
C1230 C1231 1.434 . S
C1231 C1222 1.429 . S
C1231 N1228 1.350 . S
C1231 C1230 1.434 . S
C1232 C1233 1.369 . S
C1232 C1234 1.419 . S
C1232 H1236 0.930 . S
C1233 C1232 1.369 . S
C1233 C1242 1.429 . S
C1234 C1232 1.419 . S
C1234 C1235 1.363 . S
C1234 H1237 0.929 . S
C1235 C1234 1.363 . S
C1235 C1241 1.428 . S
H1236 C1232 0.930 . S
H1237 C1234 0.929 . S
S1238 N1239 1.613 . S
S1238 N1240 1.610 . S
N1239 S1238 1.613 . S
N1239 C1242 1.350 . S
N1240 S1238 1.610 . S
N1240 C1241 1.351 . S
C1241 C1235 1.428 . S
C1241 N1240 1.351 . S
C1241 C1242 1.434 . S
C1242 C1233 1.429 . S
C1242 N1239 1.350 . S
C1242 C1241 1.434 . S
C1243 C1244 1.369 . S
C1243 C1245 1.419 . S
C1243 H1247 0.930 . S
C1244 C1243 1.369 . S
C1244 C1253 1.429 . S
C1245 C1243 1.419 . S
C1245 C1246 1.363 . S
C1245 H1248 0.929 . S
C1246 C1245 1.363 . S
C1246 C1252 1.428 . S
H1247 C1243 0.930 . S
H1248 C1245 0.929 . S
S1249 N1250 1.613 . S
S1249 N1251 1.610 . S
N1250 S1249 1.613 . S
N1250 C1253 1.350 . S
N1251 S1249 1.610 . S
N1251 C1252 1.351 . S
C1252 C1246 1.428 . S
C1252 N1251 1.351 . S
C1252 C1253 1.434 . S
C1253 C1244 1.429 . S
C1253 N1250 1.350 . S
C1253 C1252 1.434 . S
C1254 C1255 1.369 . S
C1254 C1256 1.419 . S
C1254 H1258 0.930 . S
C1255 C1254 1.369 . S
C1255 C1264 1.429 . S
C1256 C1254 1.419 . S
C1256 C1257 1.363 . S
C1256 H1259 0.929 . S
C1257 C1256 1.363 . S
C1257 C1263 1.428 . S
H1258 C1254 0.930 . S
H1259 C1256 0.929 . S
S1260 N1261 1.613 . S
S1260 N1262 1.610 . S
N1261 S1260 1.613 . S
N1261 C1264 1.350 . S
N1262 S1260 1.610 . S
N1262 C1263 1.351 . S
C1263 C1257 1.428 . S
C1263 N1262 1.351 . S
C1263 C1264 1.434 . S
C1264 C1255 1.429 . S
C1264 N1261 1.350 . S
C1264 C1263 1.434 . S
C1265 C1266 1.369 . S
C1265 C1267 1.419 . S
C1265 H1269 0.930 . S
C1266 C1265 1.369 . S
C1266 C1275 1.429 . S
C1267 C1265 1.419 . S
C1267 C1268 1.363 . S
C1267 H1270 0.929 . S
C1268 C1267 1.363 . S
C1268 C1274 1.428 . S
H1269 C1265 0.930 . S
H1270 C1267 0.929 . S
S1271 N1272 1.613 . S
S1271 N1273 1.610 . S
N1272 S1271 1.613 . S
N1272 C1275 1.350 . S
N1273 S1271 1.610 . S
N1273 C1274 1.351 . S
C1274 C1268 1.428 . S
C1274 N1273 1.351 . S
C1274 C1275 1.434 . S
C1275 C1266 1.429 . S
C1275 N1272 1.350 . S
C1275 C1274 1.434 . S
C1276 C1277 1.369 . S
C1276 C1278 1.419 . S
C1276 H1280 0.930 . S
C1277 C1276 1.369 . S
C1277 C1286 1.429 . S
C1278 C1276 1.419 . S
C1278 C1279 1.363 . S
C1278 H1281 0.929 . S
C1279 C1278 1.363 . S
C1279 C1285 1.428 . S
H1280 C1276 0.930 . S
H1281 C1278 0.929 . S
S1282 N1283 1.613 . S
S1282 N1284 1.610 . S
N1283 S1282 1.613 . S
N1283 C1286 1.350 . S
N1284 S1282 1.610 . S
N1284 C1285 1.351 . S
C1285 C1279 1.428 . S
C1285 N1284 1.351 . S
C1285 C1286 1.434 . S
C1286 C1277 1.429 . S
C1286 N1283 1.350 . S
C1286 C1285 1.434 . S
C1287 C1288 1.369 . S
C1287 C1289 1.419 . S
C1287 H1291 0.930 . S
C1288 C1287 1.369 . S
C1288 C1297 1.429 . S
C1289 C1287 1.419 . S
C1289 C1290 1.363 . S
C1289 H1292 0.929 . S
C1290 C1289 1.363 . S
C1290 C1296 1.428 . S
H1291 C1287 0.930 . S
H1292 C1289 0.929 . S
S1293 N1294 1.613 . S
S1293 N1295 1.610 . S
N1294 S1293 1.613 . S
N1294 C1297 1.350 . S
N1295 S1293 1.610 . S
N1295 C1296 1.351 . S
C1296 C1290 1.428 . S
C1296 N1295 1.351 . S
C1296 C1297 1.434 . S
C1297 C1288 1.429 . S
C1297 N1294 1.350 . S
C1297 C1296 1.434 . S
C1298 C1299 1.369 . S
C1298 C1300 1.419 . S
C1298 H1302 0.930 . S
C1299 C1298 1.369 . S
C1299 C1308 1.429 . S
C1300 C1298 1.419 . S
C1300 C1301 1.363 . S
C1300 H1303 0.929 . S
C1301 C1300 1.363 . S
C1301 C1307 1.428 . S
H1302 C1298 0.930 . S
H1303 C1300 0.929 . S
S1304 N1305 1.613 . S
S1304 N1306 1.610 . S
N1305 S1304 1.613 . S
N1305 C1308 1.350 . S
N1306 S1304 1.610 . S
N1306 C1307 1.351 . S
C1307 C1301 1.428 . S
C1307 N1306 1.351 . S
C1307 C1308 1.434 . S
C1308 C1299 1.429 . S
C1308 N1305 1.350 . S
C1308 C1307 1.434 . S
C1309 C1310 1.369 . S
C1309 C1311 1.419 . S
C1309 H1313 0.930 . S
C1310 C1309 1.369 . S
C1310 C1319 1.429 . S
C1311 C1309 1.419 . S
C1311 C1312 1.363 . S
C1311 H1314 0.929 . S
C1312 C1311 1.363 . S
C1312 C1318 1.428 . S
H1313 C1309 0.930 . S
H1314 C1311 0.929 . S
S1315 N1316 1.613 . S
S1315 N1317 1.610 . S
N1316 S1315 1.613 . S
N1316 C1319 1.350 . S
N1317 S1315 1.610 . S
N1317 C1318 1.351 . S
C1318 C1312 1.428 . S
C1318 N1317 1.351 . S
C1318 C1319 1.434 . S
C1319 C1310 1.429 . S
C1319 N1316 1.350 . S
C1319 C1318 1.434 . S
C1320 C1321 1.369 . S
C1320 C1322 1.419 . S
C1320 H1324 0.930 . S
C1321 C1320 1.369 . S
C1321 C1330 1.429 . S
C1322 C1320 1.419 . S
C1322 C1323 1.363 . S
C1322 H1325 0.929 . S
C1323 C1322 1.363 . S
C1323 C1329 1.428 . S
H1324 C1320 0.930 . S
H1325 C1322 0.929 . S
S1326 N1327 1.613 . S
S1326 N1328 1.610 . S
N1327 S1326 1.613 . S
N1327 C1330 1.350 . S
N1328 S1326 1.610 . S
N1328 C1329 1.351 . S
C1329 C1323 1.428 . S
C1329 N1328 1.351 . S
C1329 C1330 1.434 . S
C1330 C1321 1.429 . S
C1330 N1327 1.350 . S
C1330 C1329 1.434 . S
C1331 C1332 1.369 . S
C1331 C1333 1.419 . S
C1331 H1335 0.930 . S
C1332 C1331 1.369 . S
C1332 C1341 1.429 . S
C1333 C1331 1.419 . S
C1333 C1334 1.363 . S
C1333 H1336 0.929 . S
C1334 C1333 1.363 . S
C1334 C1340 1.428 . S
H1335 C1331 0.930 . S
H1336 C1333 0.929 . S
S1337 N1338 1.613 . S
S1337 N1339 1.610 . S
N1338 S1337 1.613 . S
N1338 C1341 1.350 . S
N1339 S1337 1.610 . S
N1339 C1340 1.351 . S
C1340 C1334 1.428 . S
C1340 N1339 1.351 . S
C1340 C1341 1.434 . S
C1341 C1332 1.429 . S
C1341 N1338 1.350 . S
C1341 C1340 1.434 . S
C1342 C1343 1.369 . S
C1342 C1344 1.419 . S
C1342 H1346 0.930 . S
C1343 C1342 1.369 . S
C1343 C1352 1.429 . S
C1344 C1342 1.419 . S
C1344 C1345 1.363 . S
C1344 H1347 0.929 . S
C1345 C1344 1.363 . S
C1345 C1351 1.428 . S
H1346 C1342 0.930 . S
H1347 C1344 0.929 . S
S1348 N1349 1.613 . S
S1348 N1350 1.610 . S
N1349 S1348 1.613 . S
N1349 C1352 1.350 . S
N1350 S1348 1.610 . S
N1350 C1351 1.351 . S
C1351 C1345 1.428 . S
C1351 N1350 1.351 . S
C1351 C1352 1.434 . S
C1352 C1343 1.429 . S
C1352 N1349 1.350 . S
C1352 C1351 1.434 . S
C1353 C1354 1.369 . S
C1353 C1355 1.419 . S
C1353 H1357 0.930 . S
C1354 C1353 1.369 . S
C1354 C1363 1.429 . S
C1355 C1353 1.419 . S
C1355 C1356 1.363 . S
C1355 H1358 0.929 . S
C1356 C1355 1.363 . S
C1356 C1362 1.428 . S
H1357 C1353 0.930 . S
H1358 C1355 0.929 . S
S1359 N1360 1.613 . S
S1359 N1361 1.610 . S
N1360 S1359 1.613 . S
N1360 C1363 1.350 . S
N1361 S1359 1.610 . S
N1361 C1362 1.351 . S
C1362 C1356 1.428 . S
C1362 N1361 1.351 . S
C1362 C1363 1.434 . S
C1363 C1354 1.429 . S
C1363 N1360 1.350 . S
C1363 C1362 1.434 . S
C1364 C1365 1.369 . S
C1364 C1366 1.419 . S
C1364 H1368 0.930 . S
C1365 C1364 1.369 . S
C1365 C1374 1.429 . S
C1366 C1364 1.419 . S
C1366 C1367 1.363 . S
C1366 H1369 0.929 . S
C1367 C1366 1.363 . S
C1367 C1373 1.428 . S
H1368 C1364 0.930 . S
H1369 C1366 0.929 . S
S1370 N1371 1.613 . S
S1370 N1372 1.610 . S
N1371 S1370 1.613 . S
N1371 C1374 1.350 . S
N1372 S1370 1.610 . S
N1372 C1373 1.351 . S
C1373 C1367 1.428 . S
C1373 N1372 1.351 . S
C1373 C1374 1.434 . S
C1374 C1365 1.429 . S
C1374 N1371 1.350 . S
C1374 C1373 1.434 . S
C1375 C1376 1.369 . S
C1375 C1377 1.419 . S
C1375 H1379 0.930 . S
C1376 C1375 1.369 . S
C1376 C1385 1.429 . S
C1377 C1375 1.419 . S
C1377 C1378 1.363 . S
C1377 H1380 0.929 . S
C1378 C1377 1.363 . S
C1378 C1384 1.428 . S
H1379 C1375 0.930 . S
H1380 C1377 0.929 . S
S1381 N1382 1.613 . S
S1381 N1383 1.610 . S
N1382 S1381 1.613 . S
N1382 C1385 1.350 . S
N1383 S1381 1.610 . S
N1383 C1384 1.351 . S
C1384 C1378 1.428 . S
C1384 N1383 1.351 . S
C1384 C1385 1.434 . S
C1385 C1376 1.429 . S
C1385 N1382 1.350 . S
C1385 C1384 1.434 . S
C1386 C1387 1.369 . S
C1386 C1388 1.419 . S
C1386 H1390 0.930 . S
C1387 C1386 1.369 . S
C1387 C1396 1.429 . S
C1388 C1386 1.419 . S
C1388 C1389 1.363 . S
C1388 H1391 0.929 . S
C1389 C1388 1.363 . S
C1389 C1395 1.428 . S
H1390 C1386 0.930 . S
H1391 C1388 0.929 . S
S1392 N1393 1.613 . S
S1392 N1394 1.610 . S
N1393 S1392 1.613 . S
N1393 C1396 1.350 . S
N1394 S1392 1.610 . S
N1394 C1395 1.351 . S
C1395 C1389 1.428 . S
C1395 N1394 1.351 . S
C1395 C1396 1.434 . S
C1396 C1387 1.429 . S
C1396 N1393 1.350 . S
C1396 C1395 1.434 . S
C1397 C1398 1.369 . S
C1397 C1399 1.419 . S
C1397 H1401 0.930 . S
C1398 C1397 1.369 . S
C1398 C1407 1.429 . S
C1399 C1397 1.419 . S
C1399 C1400 1.363 . S
C1399 H1402 0.929 . S
C1400 C1399 1.363 . S
C1400 C1406 1.428 . S
H1401 C1397 0.930 . S
H1402 C1399 0.929 . S
S1403 N1404 1.613 . S
S1403 N1405 1.610 . S
N1404 S1403 1.613 . S
N1404 C1407 1.350 . S
N1405 S1403 1.610 . S
N1405 C1406 1.351 . S
C1406 C1400 1.428 . S
C1406 N1405 1.351 . S
C1406 C1407 1.434 . S
C1407 C1398 1.429 . S
C1407 N1404 1.350 . S
C1407 C1406 1.434 . S
C1408 C1409 1.369 . S
C1408 C1410 1.419 . S
C1408 H1412 0.930 . S
C1409 C1408 1.369 . S
C1409 C1418 1.429 . S
C1410 C1408 1.419 . S
C1410 C1411 1.363 . S
C1410 H1413 0.929 . S
C1411 C1410 1.363 . S
C1411 C1417 1.428 . S
H1412 C1408 0.930 . S
H1413 C1410 0.929 . S
S1414 N1415 1.613 . S
S1414 N1416 1.610 . S
N1415 S1414 1.613 . S
N1415 C1418 1.350 . S
N1416 S1414 1.610 . S
N1416 C1417 1.351 . S
C1417 C1411 1.428 . S
C1417 N1416 1.351 . S
C1417 C1418 1.434 . S
C1418 C1409 1.429 . S
C1418 N1415 1.350 . S
C1418 C1417 1.434 . S
C1419 C1420 1.369 . S
C1419 C1421 1.419 . S
C1419 H1423 0.930 . S
C1420 C1419 1.369 . S
C1420 C1429 1.429 . S
C1421 C1419 1.419 . S
C1421 C1422 1.363 . S
C1421 H1424 0.929 . S
C1422 C1421 1.363 . S
C1422 C1428 1.428 . S
H1423 C1419 0.930 . S
H1424 C1421 0.929 . S
S1425 N1426 1.613 . S
S1425 N1427 1.610 . S
N1426 S1425 1.613 . S
N1426 C1429 1.350 . S
N1427 S1425 1.610 . S
N1427 C1428 1.351 . S
C1428 C1422 1.428 . S
C1428 N1427 1.351 . S
C1428 C1429 1.434 . S
C1429 C1420 1.429 . S
C1429 N1426 1.350 . S
C1429 C1428 1.434 . S
C1430 C1431 1.369 . S
C1430 C1432 1.419 . S
C1430 H1434 0.930 . S
C1431 C1430 1.369 . S
C1431 C1440 1.429 . S
C1432 C1430 1.419 . S
C1432 C1433 1.363 . S
C1432 H1435 0.929 . S
C1433 C1432 1.363 . S
C1433 C1439 1.428 . S
H1434 C1430 0.930 . S
H1435 C1432 0.929 . S
S1436 N1437 1.613 . S
S1436 N1438 1.610 . S
N1437 S1436 1.613 . S
N1437 C1440 1.350 . S
N1438 S1436 1.610 . S
N1438 C1439 1.351 . S
C1439 C1433 1.428 . S
C1439 N1438 1.351 . S
C1439 C1440 1.434 . S
C1440 C1431 1.429 . S
C1440 N1437 1.350 . S
C1440 C1439 1.434 . S
C1441 C1442 1.369 . S
C1441 C1443 1.419 . S
C1441 H1445 0.930 . S
C1442 C1441 1.369 . S
C1442 C1451 1.429 . S
C1443 C1441 1.419 . S
C1443 C1444 1.363 . S
C1443 H1446 0.929 . S
C1444 C1443 1.363 . S
C1444 C1450 1.428 . S
H1445 C1441 0.930 . S
H1446 C1443 0.929 . S
S1447 N1448 1.613 . S
S1447 N1449 1.610 . S
N1448 S1447 1.613 . S
N1448 C1451 1.350 . S
N1449 S1447 1.610 . S
N1449 C1450 1.351 . S
C1450 C1444 1.428 . S
C1450 N1449 1.351 . S
C1450 C1451 1.434 . S
C1451 C1442 1.429 . S
C1451 N1448 1.350 . S
C1451 C1450 1.434 . S
C793 C182 1.240 . S
C795 C17 1.236 . S
C804 C50 1.241 . S
C806 C215 1.237 . S
C815 C83 1.235 . S
C817 C248 1.238 . S
C826 C149 1.235 . S
C828 C116 1.239 . S
C837 C281 1.245 . S
C839 C776 1.241 . S
C848 C710 1.240 . S
C850 C314 1.244 . S
C859 C347 1.244 . S
C861 C743 1.243 . S
C870 C545 1.241 . S
C872 C380 1.236 . S
C881 C413 1.244 . S
C883 C677 1.239 . S
C892 C446 1.245 . S
C894 C578 1.241 . S
C903 C611 1.237 . S
C905 C479 1.242 . S
C914 C512 1.235 . S
C916 C644 1.237 . S
C925 N104 1.660 . S
C927 C28 1.764 . S
C936 C61 1.765 . S
C938 N5 1.661 . S
C947 C94 1.761 . S
C949 N38 1.664 . S
C958 N71 1.663 . S
C960 C127 1.761 . S
C969 N170 1.660 . S
C971 C160 1.765 . S
C980 C193 1.759 . S
C982 N203 1.670 . S
C991 N236 1.662 . S
C993 C226 1.765 . S
C1002 N137 1.661 . S
C1004 C259 1.762 . S
C1013 N599 1.663 . S
C1015 C292 1.765 . S
C1024 C325 1.759 . S
C1026 N632 1.670 . S
C1035 N665 1.663 . S
C1037 C358 1.761 . S
C1046 C391 1.765 . S
C1048 N566 1.666 . S
C1057 N731 1.667 . S
C1059 C424 1.760 . S
C1068 C457 1.761 . S
C1070 N533 1.670 . S
C1079 N764 1.669 . S
C1081 C490 1.763 . S
C1090 C523 1.758 . S
C1092 N698 1.669 . S
C1101 N302 1.660 . S
C1103 C556 1.763 . S
C1112 N500 1.661 . S
C1114 C589 1.766 . S
C1123 C622 1.759 . S
C1125 N401 1.670 . S
C1134 C655 1.766 . S
C1136 N434 1.662 . S
C1145 N467 1.667 . S
C1147 C688 1.760 . S
C1156 N368 1.660 . S
C1158 C721 1.764 . S
C1167 N269 1.666 . S
C1169 C754 1.760 . S
C1178 C787 1.760 . S
C1180 N335 1.664 . S
C1189 C8 1.452 . S
C1191 N542 1.369 . S
C1200 N773 1.374 . S
C1202 C41 1.447 . S
C1211 C74 1.443 . S
C1213 N707 1.379 . S
C1222 N740 1.381 . S
C1224 C107 1.444 . S
C1233 C140 1.444 . S
C1235 N575 1.377 . S
C1244 C173 1.449 . S
C1246 N608 1.370 . S
C1255 N641 1.376 . S
C1257 C206 1.445 . S
C1266 N674 1.373 . S
C1268 C239 1.448 . S
C1277 N14 1.380 . S
C1279 C272 1.444 . S
C1288 C305 1.443 . S
C1290 N47 1.378 . S
C1299 C338 1.449 . S
C1301 N80 1.371 . S
C1310 C371 1.442 . S
C1312 N113 1.379 . S
C1321 C404 1.446 . S
C1323 N146 1.376 . S
C1332 C437 1.451 . S
C1334 N179 1.370 . S
C1343 C470 1.444 . S
C1345 N212 1.378 . S
C1354 C503 1.452 . S
C1356 N245 1.369 . S
C1365 N278 1.369 . S
C1367 C536 1.450 . S
C1376 C569 1.445 . S
C1378 N410 1.377 . S
C1387 C602 1.446 . S
C1389 N443 1.376 . S
C1398 N476 1.380 . S
C1400 C635 1.443 . S
C1409 C668 1.442 . S
C1411 N509 1.379 . S
C1420 N344 1.367 . S
C1422 C701 1.450 . S
C1431 N377 1.367 . S
C1433 C734 1.450 . S
C1442 C767 1.444 . S
C1444 N311 1.378 . S
