# Generated by pormake.
# Topology lcs, (4)-cn, num edge types: 1
# Building blocks:
#     Node 0, Type 0, BuildingBlock: TATPOV_clean_sbu_0, # of connection points: 4
#     Node 1, Type 0, BuildingBlock: TATPOV_clean_sbu_0, # of connection points: 4
#     Node 2, Type 0, BuildingBlock: TATPOV_clean_sbu_0, # of connection points: 4
#     Node 3, Type 0, BuildingBlock: TATPOV_clean_sbu_0, # of connection points: 4
#     Node 4, Type 0, BuildingBlock: TATPOV_clean_sbu_0, # of connection points: 4
#     Node 5, Type 0, BuildingBlock: TATPOV_clean_sbu_0, # of connection points: 4
#     Node 6, Type 0, BuildingBlock: TATPOV_clean_sbu_0, # of connection points: 4
#     Node 7, Type 0, BuildingBlock: TATPOV_clean_sbu_0, # of connection points: 4
#     Node 8, Type 0, BuildingBlock: TATPOV_clean_sbu_0, # of connection points: 4
#     Node 9, Type 0, BuildingBlock: TATPOV_clean_sbu_0, # of connection points: 4
#     Node 10, Type 0, BuildingBlock: TATPOV_clean_sbu_0, # of connection points: 4
#     Node 11, Type 0, BuildingBlock: TATPOV_clean_sbu_0, # of connection points: 4
#     Node 12, Type 0, BuildingBlock: TATPOV_clean_sbu_0, # of connection points: 4
#     Node 13, Type 0, BuildingBlock: TATPOV_clean_sbu_0, # of connection points: 4
#     Node 14, Type 0, BuildingBlock: TATPOV_clean_sbu_0, # of connection points: 4
#     Node 15, Type 0, BuildingBlock: TATPOV_clean_sbu_0, # of connection points: 4
#     Node 16, Type 0, BuildingBlock: TATPOV_clean_sbu_0, # of connection points: 4
#     Node 17, Type 0, BuildingBlock: TATPOV_clean_sbu_0, # of connection points: 4
#     Node 18, Type 0, BuildingBlock: TATPOV_clean_sbu_0, # of connection points: 4
#     Node 19, Type 0, BuildingBlock: TATPOV_clean_sbu_0, # of connection points: 4
#     Node 20, Type 0, BuildingBlock: TATPOV_clean_sbu_0, # of connection points: 4
#     Node 21, Type 0, BuildingBlock: TATPOV_clean_sbu_0, # of connection points: 4
#     Node 22, Type 0, BuildingBlock: TATPOV_clean_sbu_0, # of connection points: 4
#     Node 23, Type 0, BuildingBlock: TATPOV_clean_sbu_0, # of connection points: 4
#     Edge 24, Type (0, 0), BuildingBlock: MIFKUJ_clean_linker_0, # of connection points: 2
#     Edge 25, Type (0, 0), BuildingBlock: MIFKUJ_clean_linker_0, # of connection points: 2
#     Edge 26, Type (0, 0), BuildingBlock: MIFKUJ_clean_linker_0, # of connection points: 2
#     Edge 27, Type (0, 0), BuildingBlock: MIFKUJ_clean_linker_0, # of connection points: 2
#     Edge 28, Type (0, 0), BuildingBlock: MIFKUJ_clean_linker_0, # of connection points: 2
#     Edge 29, Type (0, 0), BuildingBlock: MIFKUJ_clean_linker_0, # of connection points: 2
#     Edge 30, Type (0, 0), BuildingBlock: MIFKUJ_clean_linker_0, # of connection points: 2
#     Edge 31, Type (0, 0), BuildingBlock: MIFKUJ_clean_linker_0, # of connection points: 2
#     Edge 32, Type (0, 0), BuildingBlock: MIFKUJ_clean_linker_0, # of connection points: 2
#     Edge 33, Type (0, 0), BuildingBlock: MIFKUJ_clean_linker_0, # of connection points: 2
#     Edge 34, Type (0, 0), BuildingBlock: MIFKUJ_clean_linker_0, # of connection points: 2
#     Edge 35, Type (0, 0), BuildingBlock: MIFKUJ_clean_linker_0, # of connection points: 2
#     Edge 36, Type (0, 0), BuildingBlock: MIFKUJ_clean_linker_0, # of connection points: 2
#     Edge 37, Type (0, 0), BuildingBlock: MIFKUJ_clean_linker_0, # of connection points: 2
#     Edge 38, Type (0, 0), BuildingBlock: MIFKUJ_clean_linker_0, # of connection points: 2
#     Edge 39, Type (0, 0), BuildingBlock: MIFKUJ_clean_linker_0, # of connection points: 2
#     Edge 40, Type (0, 0), BuildingBlock: MIFKUJ_clean_linker_0, # of connection points: 2
#     Edge 41, Type (0, 0), BuildingBlock: MIFKUJ_clean_linker_0, # of connection points: 2
#     Edge 42, Type (0, 0), BuildingBlock: MIFKUJ_clean_linker_0, # of connection points: 2
#     Edge 43, Type (0, 0), BuildingBlock: MIFKUJ_clean_linker_0, # of connection points: 2
#     Edge 44, Type (0, 0), BuildingBlock: MIFKUJ_clean_linker_0, # of connection points: 2
#     Edge 45, Type (0, 0), BuildingBlock: MIFKUJ_clean_linker_0, # of connection points: 2
#     Edge 46, Type (0, 0), BuildingBlock: MIFKUJ_clean_linker_0, # of connection points: 2
#     Edge 47, Type (0, 0), BuildingBlock: MIFKUJ_clean_linker_0, # of connection points: 2
#     Edge 48, Type (0, 0), BuildingBlock: MIFKUJ_clean_linker_0, # of connection points: 2
#     Edge 49, Type (0, 0), BuildingBlock: MIFKUJ_clean_linker_0, # of connection points: 2
#     Edge 50, Type (0, 0), BuildingBlock: MIFKUJ_clean_linker_0, # of connection points: 2
#     Edge 51, Type (0, 0), BuildingBlock: MIFKUJ_clean_linker_0, # of connection points: 2
#     Edge 52, Type (0, 0), BuildingBlock: MIFKUJ_clean_linker_0, # of connection points: 2
#     Edge 53, Type (0, 0), BuildingBlock: MIFKUJ_clean_linker_0, # of connection points: 2
#     Edge 54, Type (0, 0), BuildingBlock: MIFKUJ_clean_linker_0, # of connection points: 2
#     Edge 55, Type (0, 0), BuildingBlock: MIFKUJ_clean_linker_0, # of connection points: 2
#     Edge 56, Type (0, 0), BuildingBlock: MIFKUJ_clean_linker_0, # of connection points: 2
#     Edge 57, Type (0, 0), BuildingBlock: MIFKUJ_clean_linker_0, # of connection points: 2
#     Edge 58, Type (0, 0), BuildingBlock: MIFKUJ_clean_linker_0, # of connection points: 2
#     Edge 59, Type (0, 0), BuildingBlock: MIFKUJ_clean_linker_0, # of connection points: 2
#     Edge 60, Type (0, 0), BuildingBlock: MIFKUJ_clean_linker_0, # of connection points: 2
#     Edge 61, Type (0, 0), BuildingBlock: MIFKUJ_clean_linker_0, # of connection points: 2
#     Edge 62, Type (0, 0), BuildingBlock: MIFKUJ_clean_linker_0, # of connection points: 2
#     Edge 63, Type (0, 0), BuildingBlock: MIFKUJ_clean_linker_0, # of connection points: 2
#     Edge 64, Type (0, 0), BuildingBlock: MIFKUJ_clean_linker_0, # of connection points: 2
#     Edge 65, Type (0, 0), BuildingBlock: MIFKUJ_clean_linker_0, # of connection points: 2
#     Edge 66, Type (0, 0), BuildingBlock: MIFKUJ_clean_linker_0, # of connection points: 2
#     Edge 67, Type (0, 0), BuildingBlock: MIFKUJ_clean_linker_0, # of connection points: 2
#     Edge 68, Type (0, 0), BuildingBlock: MIFKUJ_clean_linker_0, # of connection points: 2
#     Edge 69, Type (0, 0), BuildingBlock: MIFKUJ_clean_linker_0, # of connection points: 2
#     Edge 70, Type (0, 0), BuildingBlock: MIFKUJ_clean_linker_0, # of connection points: 2
#     Edge 71, Type (0, 0), BuildingBlock: MIFKUJ_clean_linker_0, # of connection points: 2
# Relax obj value: 0.081
# Max RMSD: 0.145
# Mean RMSD: 0.143
data_MOF--net-lcs--node1-TATPOV_clean_sbu_0--edge1-MIFKUJ_clean_linker_0
_symmetry_space_group_name_H-M    P1
_symmetry_Int_Tables_number       1
_symmetry_cell_setting            triclinic
loop_
_symmetry_equiv_pos_as_xyz
'x, y, z'
_cell_length_a     62.865196
_cell_length_b     62.875635
_cell_length_c     62.859917
_cell_angle_alpha  93.196439
_cell_angle_beta   93.196937
_cell_angle_gamma 93.209513
loop_
_atom_site_label
_atom_site_type_symbol
_atom_site_fract_x
_atom_site_fract_y
_atom_site_fract_z
_atom_type_partial_charge
Zn0 Zn 0.997 0.2088 0.42488 0.0
Zn1 Zn 0.00873 0.24106 0.40114 0.0
O2 O 0.98371 0.25272 0.41704 0.0
O3 O 0.97316 0.22589 0.43569 0.0
O4 O 0.01783 0.26536 0.38362 0.0
O5 O 0.02603 0.21062 0.44011 0.0
O6 O 0.03635 0.23507 0.41855 0.0
C7 C 0.97085 0.24459 0.42975 0.0
C8 C 0.99292 0.19792 0.37969 0.0
O9 O 0.99868 0.21753 0.37858 0.0
O10 O 0.9917 0.18993 0.39767 0.0
C11 C 0.02864 0.26247 0.36731 0.0
O12 O 0.03434 0.2432 0.36198 0.0
C13 C 0.04062 0.22286 0.43355 0.0
Zn14 Zn -0.00065 0.7824 0.56574 0.0
Zn15 Zn 0.99172 0.75425 0.59543 0.0
O16 O 0.96197 0.75724 0.58051 0.0
O17 O 0.9686 0.77881 0.55494 0.0
O18 O 0.98669 0.73264 0.61731 0.0
O19 O 0.02112 0.76381 0.55337 0.0
O20 O 0.01523 0.7411 0.57808 0.0
C21 C 0.95551 0.76737 0.5646 0.0
C22 C 0.00908 0.7995 0.60911 0.0
O23 O 0.00293 0.78074 0.61365 0.0
O24 O 0.00882 0.80441 0.58981 0.0
C25 C 0.97125 0.73282 0.62954 0.0
O26 O 0.9573 0.74751 0.62779 0.0
C27 C 0.02533 0.74675 0.56209 0.0
Zn28 Zn 0.505 0.71571 0.93479 0.0
Zn29 Zn 0.51389 0.74448 0.90583 0.0
O30 O 0.49106 0.7586 0.92308 0.0
O31 O 0.48392 0.73541 0.94706 0.0
O32 O 0.52101 0.76581 0.88432 0.0
O33 O 0.53582 0.71767 0.94562 0.0
O34 O 0.54304 0.74026 0.92113 0.0
C35 C 0.48055 0.75291 0.93879 0.0
C36 C 0.49469 0.70005 0.89117 0.0
O37 O 0.50148 0.71876 0.88715 0.0
O38 O 0.49488 0.69455 0.91027 0.0
C39 C 0.50618 0.77284 0.8726 0.0
O40 O 0.48632 0.76612 0.87493 0.0
C41 C 0.54923 0.7293 0.93652 0.0
Zn42 Zn 0.50214 0.28755 0.07813 0.0
Zn43 Zn 0.49425 0.25879 0.10715 0.0
O44 O 0.46497 0.26093 0.09119 0.0
O45 O 0.47153 0.28368 0.06668 0.0
O46 O 0.48832 0.23709 0.12866 0.0
O47 O 0.5246 0.26938 0.06633 0.0
O48 O 0.51852 0.24617 0.09055 0.0
C49 C 0.45851 0.27143 0.07555 0.0
C50 C 0.50989 0.30442 0.1217 0.0
O51 O 0.50397 0.2855 0.1259 0.0
O52 O 0.51046 0.30945 0.10248 0.0
C53 C 0.47434 0.23993 0.14223 0.0
O54 O 0.46352 0.25721 0.14192 0.0
C55 C 0.52892 0.25227 0.07491 0.0
Zn56 Zn 0.96328 0.75069 0.18282 0.0
Zn57 Zn 0.99504 0.76231 0.15808 0.0
O58 O 0.99093 0.78965 0.17663 0.0
O59 O 0.96763 0.77915 0.19939 0.0
O60 O 0.01909 0.77044 0.13985 0.0
O61 O 0.97962 0.72561 0.19171 0.0
O62 O 0.00613 0.7363 0.17272 0.0
C63 C 0.97996 0.79359 0.19269 0.0
C64 C 0.95073 0.74899 0.13783 0.0
O65 O 0.97041 0.75414 0.13628 0.0
O66 O 0.94333 0.74725 0.15604 0.0
C67 C 0.01643 0.78032 0.12289 0.0
O68 O 0.99733 0.78626 0.11718 0.0
C69 C 0.99802 0.72309 0.18509 0.0
Zn70 Zn 0.53727 0.75487 0.31589 0.0
Zn71 Zn 0.51221 0.74474 0.34767 0.0
O72 O 0.49642 0.76829 0.33284 0.0
O73 O 0.51608 0.77565 0.30602 0.0
O74 O 0.4933 0.73668 0.37107 0.0
O75 O 0.53538 0.72409 0.30471 0.0
O76 O 0.51524 0.71605 0.33098 0.0
C77 C 0.49997 0.77904 0.31668 0.0
C78 C 0.5573 0.76433 0.35814 0.0
O79 O 0.53964 0.75647 0.36405 0.0
O80 O 0.56033 0.76548 0.33846 0.0
C81 C 0.48511 0.75088 0.38267 0.0
O82 O 0.48901 0.7711 0.37917 0.0
C83 C 0.52494 0.71031 0.31453 0.0
Zn84 Zn 0.46378 0.25528 0.68384 0.0
Zn85 Zn 0.49536 0.26613 0.65865 0.0
O86 O 0.49274 0.29343 0.67777 0.0
O87 O 0.46925 0.28355 0.70057 0.0
O88 O 0.5187 0.27365 0.63945 0.0
O89 O 0.47968 0.22961 0.69206 0.0
O90 O 0.50611 0.23966 0.67267 0.0
C91 C 0.48209 0.29762 0.694 0.0
C92 C 0.45036 0.25423 0.6392 0.0
O93 O 0.4701 0.25886 0.63737 0.0
O94 O 0.44319 0.25259 0.65753 0.0
C95 C 0.51836 0.28965 0.62797 0.0
O96 O 0.50258 0.30243 0.62917 0.0
C97 C 0.49784 0.22658 0.68507 0.0
Zn98 Zn 0.04418 0.24978 0.82637 0.0
Zn99 Zn 0.01716 0.24001 0.85635 0.0
O100 O 0.00306 0.26459 0.8413 0.0
O101 O 0.02574 0.27307 0.81728 0.0
O102 O 0.99663 0.23211 0.8785 0.0
O103 O 0.03945 0.22018 0.81249 0.0
O104 O 0.0197 0.2115 0.83891 0.0
C105 C 0.00867 0.2763 0.82641 0.0
C106 C 0.06302 0.25603 0.86937 0.0
O107 O 0.04428 0.25018 0.87426 0.0
O108 O 0.0673 0.25662 0.84994 0.0
C109 C 0.98782 0.2464 0.88945 0.0
O110 O 0.99222 0.26659 0.88617 0.0
C111 C 0.0286 0.20633 0.82179 0.0
Zn112 Zn 0.42825 0.00623 0.22353 0.0
Zn113 Zn 0.39897 0.01368 0.25216 0.0
O114 O 0.41583 0.99005 0.2653 0.0
O115 O 0.43922 0.98301 0.24149 0.0
O116 O 0.37717 0.01958 0.27354 0.0
O117 O 0.44021 0.03657 0.22812 0.0
O118 O 0.41436 0.04319 0.24931 0.0
C119 C 0.43099 0.97916 0.25892 0.0
C120 C 0.38481 0.99805 0.20659 0.0
O121 O 0.38057 0.00261 0.2258 0.0
O122 O 0.40393 -0.00088 0.20115 0.0
C123 C 0.36541 0.00423 0.2796 0.0
O124 O 0.36792 0.98474 0.27184 0.0
C125 C 0.43052 0.04966 0.23953 0.0
Zn126 Zn 0.29438 0.07672 0.51132 0.0
Zn127 Zn 0.26284 0.10188 0.50134 0.0
O128 O 0.26538 0.08293 0.47386 0.0
O129 O 0.28781 0.05915 0.48373 0.0
O130 O 0.23854 0.12004 0.4941 0.0
O131 O 0.27984 0.06906 0.53797 0.0
O132 O 0.25276 0.08757 0.52788 0.0
C133 C 0.2753 0.06621 0.46968 0.0
C134 C 0.30783 0.12137 0.51143 0.0
O135 O 0.28792 0.12353 0.50833 0.0
O136 O 0.31496 0.10295 0.51215 0.0
C137 C 0.23984 0.13522 0.48161 0.0
O138 O 0.2578 0.13931 0.47249 0.0
C139 C 0.26152 0.07563 0.5411 0.0
Zn140 Zn 0.18415 0.96244 0.75568 0.0
Zn141 Zn 0.15354 0.98881 0.76589 0.0
O142 O 0.1704 0.98559 0.79455 0.0
O143 O 0.19598 0.96473 0.78606 0.0
O144 O 0.13106 0.00883 0.7738 0.0
O145 O 0.19463 0.98325 0.73476 0.0
O146 O 0.16917 0.00442 0.74286 0.0
C147 C 0.1868 0.97564 0.79997 0.0
C148 C 0.14139 0.94368 0.74696 0.0
O149 O 0.13614 0.96194 0.75393 0.0
O150 O 0.1609 0.93973 0.74634 0.0
C151 C 0.11801 0.01472 0.75944 0.0
O152 O 0.11937 0.00738 0.7396 0.0
C153 C 0.1851 0.00019 0.73203 0.0
Zn154 Zn 0.2538 0.81952 0.04243 0.0
Zn155 Zn 0.24462 0.84704 0.01213 0.0
O156 O 0.27 0.83191 0.00028 0.0
O157 O 0.27794 0.80978 0.02507 0.0
O158 O 0.23699 0.86755 0.9898 0.0
O159 O 0.22413 0.80574 0.03788 0.0
O160 O 0.21628 0.82961 0.01484 0.0
C161 C 0.28176 0.81778 0.00752 0.0
C162 C 0.2585 0.86351 0.05789 0.0
O163 O 0.25346 0.86653 0.03846 0.0
O164 O 0.25928 0.84472 0.06409 0.0
C165 C 0.24586 0.88625 0.98996 0.0
O166 O 0.26092 0.8923 0.00472 0.0
C167 C 0.21062 0.81379 0.02548 0.0
Zn168 Zn 0.22911 0.43756 0.00215 0.0
Zn169 Zn 0.25449 0.40658 0.01328 0.0
O170 O 0.26862 0.42015 0.98806 0.0
O171 O 0.25013 0.44796 0.98129 0.0
O172 O 0.27462 0.38413 0.02079 0.0
O173 O 0.23071 0.44923 0.03277 0.0
O174 O 0.25211 0.42423 0.04162 0.0
C175 C 0.2655 0.43645 0.9774 0.0
C176 C 0.20948 0.39454 0.9952 0.0
O177 O 0.2271 0.38924 0.00368 0.0
O178 O 0.20653 0.41398 0.99226 0.0
C179 C 0.27058 0.37017 0.0341 0.0
O180 O 0.2527 0.37053 0.04394 0.0
C181 C 0.24174 0.44038 0.04685 0.0
Zn182 Zn 0.75467 0.18814 0.96721 0.0
Zn183 Zn 0.76264 0.15771 0.99445 0.0
O184 O 0.79193 0.17396 0.99319 0.0
O185 O 0.78508 0.20006 0.97234 0.0
O186 O 0.76751 0.13588 0.0161 0.0
O187 O 0.73132 0.19875 0.98494 0.0
O188 O 0.7377 0.17345 0.00681 0.0
C189 C 0.79819 0.19048 0.98387 0.0
C190 C 0.74782 0.1449 0.94841 0.0
O191 O 0.75363 0.13978 0.96707 0.0
O192 O 0.74707 0.16438 0.94437 0.0
C193 C 0.7814 0.12199 0.01509 0.0
O194 O 0.794 0.1216 0.9991 0.0
C195 C 0.72687 0.18902 0.00137 0.0
Zn196 Zn 0.07337 0.50175 0.28308 0.0
Zn197 Zn 0.1034 0.49223 0.25604 0.0
O198 O 0.0885 0.46278 0.26035 0.0
O199 O 0.06374 0.47074 0.28239 0.0
O200 O 0.12509 0.48622 0.23449 0.0
O201 O 0.06014 0.52134 0.26267 0.0
O202 O 0.08616 0.51504 0.24162 0.0
C203 C 0.07309 0.45696 0.27147 0.0
C204 C 0.11654 0.51255 0.30023 0.0
O205 O 0.12154 0.50438 0.28234 0.0
O206 O 0.09709 0.51359 0.30432 0.0
C207 C 0.14128 0.47543 0.23808 0.0
O208 O 0.14411 0.46708 0.25665 0.0
C209 C 0.06959 0.5249 0.24586 0.0
Zn210 Zn 0.72079 0.93992 0.50568 0.0
Zn211 Zn 0.74689 0.90863 0.51468 0.0
O212 O 0.76213 0.92423 0.49128 0.0
O213 O 0.74144 0.95048 0.48462 0.0
O214 O 0.76619 0.88543 0.52237 0.0
O215 O 0.72312 0.95079 0.53654 0.0
O216 O 0.74377 0.92469 0.54372 0.0
C217 C 0.75788 0.94045 0.48086 0.0
C218 C 0.70164 0.8974 0.49576 0.0
O219 O 0.71977 0.89189 0.50281 0.0
O220 O 0.6979 0.91699 0.49544 0.0
C221 C 0.77473 0.87409 0.50821 0.0
O222 O 0.77118 0.87779 0.48799 0.0
C223 C 0.73392 0.94087 0.54995 0.0
Zn224 Zn 0.81663 0.03482 0.24847 0.0
Zn225 Zn 0.8462 0.00678 0.24073 0.0
O226 O 0.8309 0.99446 0.26589 0.0
O227 O 0.80776 0.0183 0.27353 0.0
O228 O 0.8683 0.9857 0.23484 0.0
O229 O 0.80303 0.02834 0.21888 0.0
O230 O 0.82968 0.0084 0.21161 0.0
C231 C 0.81651 0.0012 0.27761 0.0
C232 C 0.8598 0.05323 0.2532 0.0
O233 O 0.86434 0.03395 0.24956 0.0
O234 O 0.84051 0.05813 0.25287 0.0
C235 C 0.88054 0.98037 0.25017 0.0
O236 O 0.87829 0.98865 0.26952 0.0
C237 C 0.81278 0.01723 0.20557 0.0
Zn238 Zn 0.25718 0.68968 0.46274 0.0
Zn239 Zn 0.26473 0.65966 0.49064 0.0
O240 O 0.29392 0.6762 0.48995 0.0
O241 O 0.28729 0.70212 0.46881 0.0
O242 O 0.26946 0.63779 0.51227 0.0
O243 O 0.23313 0.69986 0.47976 0.0
O244 O 0.23952 0.67526 0.50244 0.0
C245 C 0.30022 0.69279 0.48075 0.0
C246 C 0.25114 0.64636 0.44431 0.0
O247 O 0.25623 0.6416 0.46327 0.0
O248 O 0.25068 0.66575 0.43984 0.0
C249 C 0.28503 0.62575 0.51258 0.0
O250 O 0.29935 0.62755 0.49823 0.0
C251 C 0.22855 0.6905 0.49637 0.0
Zn252 Zn 0.31743 0.53271 0.74839 0.0
Zn253 Zn 0.35102 0.50987 0.73857 0.0
O254 O 0.33704 0.49437 0.76263 0.0
O255 O 0.30797 0.51102 0.76905 0.0
O256 O 0.37438 0.4906 0.73151 0.0
O257 O 0.30645 0.53004 0.71761 0.0
O258 O 0.33454 0.51248 0.7096 0.0
C259 C 0.32026 0.49625 0.77284 0.0
C260 C 0.3594 0.55505 0.75726 0.0
O261 O 0.36636 0.53775 0.74974 0.0
O262 O 0.33949 0.55688 0.75842 0.0
C263 C 0.39131 0.49024 0.74349 0.0
O264 O 0.39407 0.50346 0.76049 0.0
C265 C 0.31731 0.52087 0.70382 0.0
Zn266 Zn 0.56944 0.00435 0.78732 0.0
Zn267 Zn 0.59912 0.99419 0.75984 0.0
O268 O 0.58275 0.96529 0.76314 0.0
O269 O 0.55707 0.97408 0.78385 0.0
O270 O 0.6208 0.98768 0.73849 0.0
O271 O 0.55852 0.02621 0.76803 0.0
O272 O 0.5831 0.01808 0.74583 0.0
C273 C 0.56618 0.96013 0.77293 0.0
C274 C 0.61298 0.01181 0.8049 0.0
O275 O 0.61749 0.00489 0.78638 0.0
O276 O 0.59367 0.01297 0.80944 0.0
C277 C 0.63561 0.97505 0.74165 0.0
O278 O 0.63674 0.96511 0.75948 0.0
C279 C 0.56761 0.02921 0.75089 0.0
Zn280 Zn 0.79644 0.57602 8e-05 0.0
Zn281 Zn 0.76482 0.6022 0.99265 0.0
O282 O 0.76659 0.58517 0.96389 0.0
O283 O 0.7902 0.56157 0.97083 0.0
O284 O 0.74156 0.62203 0.98695 0.0
O285 O 0.78127 0.56605 0.02571 0.0
O286 O 0.75469 0.58623 0.01816 0.0
C287 C 0.77708 0.56937 0.95783 0.0
C288 C 0.81031 0.62048 0.00388 0.0
O289 O 0.79045 0.62286 0.0008 0.0
O290 O 0.81737 0.60199 0.00345 0.0
C291 C 0.74384 0.63654 0.97383 0.0
O292 O 0.76142 0.63804 0.96352 0.0
C293 C 0.76328 0.57285 0.02993 0.0
Zn294 Zn 0.94101 0.50172 0.72609 0.0
Zn295 Zn 0.90967 0.50937 0.7518 0.0
O296 O 0.92572 0.48551 0.76596 0.0
O297 O 0.9515 0.47906 0.74469 0.0
O298 O 0.88679 0.5149 0.77211 0.0
O299 O 0.95249 0.53219 0.73046 0.0
O300 O 0.92485 0.53909 0.74916 0.0
C301 C 0.94164 0.47491 0.76112 0.0
C302 C 0.89868 0.4931 0.70587 0.0
O303 O 0.89283 0.49845 0.72438 0.0
O304 O 0.91834 0.49355 0.70231 0.0
C305 C 0.87168 0.52693 0.76804 0.0
O306 O 0.87103 0.53659 0.75003 0.0
C307 C 0.94171 0.54547 0.74043 0.0
Zn308 Zn 0.75227 0.32495 0.53482 0.0
Zn309 Zn 0.7446 0.35595 0.50838 0.0
O310 O 0.767 0.33835 0.49369 0.0
O311 O 0.77314 0.31264 0.51518 0.0
O312 O 0.73922 0.37838 0.48753 0.0
O313 O 0.72133 0.31494 0.53191 0.0
O314 O 0.71465 0.3419 0.51216 0.0
C315 C 0.77688 0.32189 0.4983 0.0
C316 C 0.76334 0.36758 0.55343 0.0
O317 O 0.7571 0.3731 0.53504 0.0
O318 O 0.7626 0.34804 0.55748 0.0
C319 C 0.72712 0.39357 0.49103 0.0
O320 O 0.71732 0.39476 0.50895 0.0
C321 C 0.70813 0.32562 0.52171 0.0
Zn322 Zn 0.68677 0.46833 0.25414 0.0
Zn323 Zn 0.6577 0.49744 0.26146 0.0
O324 O 0.67317 0.49581 0.291 0.0
O325 O 0.69736 0.47252 0.28508 0.0
O326 O 0.63648 0.5197 0.26616 0.0
O327 O 0.69939 0.48626 0.23186 0.0
O328 O 0.67481 0.50925 0.2372 0.0
C329 C 0.68851 0.48511 0.29781 0.0
C330 C 0.64298 0.45178 0.24631 0.0
O331 O 0.63885 0.47069 0.25232 0.0
O332 O 0.66216 0.44672 0.24546 0.0
C333 C 0.621 0.51696 0.27809 0.0
O334 O 0.61893 0.49916 0.28799 0.0
C335 C 0.69072 0.50323 0.22719 0.0
H336 H 0.0401 0.44004 0.29252 0.0
H337 H 0.03482 0.40348 0.30282 0.0
H338 H 0.08774 0.38514 0.26658 0.0
H339 H 0.0935 0.42208 0.2563 0.0
H340 H 0.04344 0.35445 0.26821 0.0
H341 H 0.10511 0.3899 0.30851 0.0
H342 H 0.12386 0.42109 0.32827 0.0
H343 H 0.07472 0.42224 0.37305 0.0
H344 H 0.0555 0.39126 0.3533 0.0
H345 H 0.05037 0.26184 0.33067 0.0
H346 H 0.05982 0.2921 0.30943 0.0
H347 H 0.02929 0.33417 0.35325 0.0
H348 H 0.02001 0.3042 0.37462 0.0
H349 H 0.06768 0.35073 0.34438 0.0
H350 H 0.00536 0.3175 0.30491 0.0
H351 H 0.98394 0.28796 0.28517 0.0
H352 H 0.03169 0.28328 0.23914 0.0
H353 H 0.05354 0.31263 0.2588 0.0
C354 C 0.05041 0.42823 0.28631 0.0
C355 C 0.06746 0.43407 0.27384 0.0
C356 C 0.04728 0.40732 0.29217 0.0
C357 C 0.06099 0.39178 0.28556 0.0
C358 C 0.077 0.39701 0.27175 0.0
C359 C 0.08027 0.4181 0.26596 0.0
C360 C 0.06004 0.37112 0.2956 0.0
C361 C 0.0492 0.35333 0.28468 0.0
C362 C 0.06712 0.37002 0.31721 0.0
C363 C 0.0788 0.3884 0.32932 0.0
C364 C 0.09822 0.39693 0.32246 0.0
C365 C 0.10894 0.41454 0.33368 0.0
C366 C 0.10046 0.42367 0.35188 0.0
C367 C 0.08126 0.41516 0.35893 0.0
C368 C 0.07046 0.39756 0.34775 0.0
C369 C 0.04568 0.27754 0.33578 0.0
C370 C 0.03445 0.28062 0.35436 0.0
C371 C 0.05102 0.29479 0.32357 0.0
C372 C 0.04515 0.31535 0.32971 0.0
C373 C 0.03401 0.31843 0.34826 0.0
C374 C 0.02867 0.30126 0.36044 0.0
C375 C 0.0508 0.33389 0.31715 0.0
C376 C 0.06242 0.35145 0.32771 0.0
C377 C 0.04431 0.33471 0.29526 0.0
C378 C 0.03121 0.31706 0.28347 0.0
C379 C 0.01139 0.31003 0.29069 0.0
C380 C 0.99914 0.29335 0.2795 0.0
C381 C 0.00648 0.28369 0.26095 0.0
C382 C 0.02605 0.29074 0.25354 0.0
C383 C 0.03837 0.3074 0.26469 0.0
H384 H 0.99697 0.27079 0.2523 0.0
H385 H 0.10878 0.43731 0.36054 0.0
H386 H 0.92201 0.76177 0.59009 0.0
H387 H 0.88513 0.77107 0.58212 0.0
H388 H 0.90054 0.78435 0.51799 0.0
H389 H 0.93726 0.77533 0.52588 0.0
H390 H 0.87737 0.81211 0.57141 0.0
H391 H 0.85584 0.77663 0.48485 0.0
H392 H 0.85998 0.74331 0.46329 0.0
H393 H 0.86418 0.70871 0.52022 0.0
H394 H 0.85975 0.74174 0.54212 0.0
H395 H 0.80292 0.85379 0.4838 0.0
H396 H 0.82852 0.82823 0.49513 0.0
H397 H 0.8039 0.83031 0.55791 0.0
H398 H 0.77882 0.85649 0.54689 0.0
H399 H 0.82724 0.78967 0.50946 0.0
H400 H 0.84403 0.82616 0.59523 0.0
H401 H 0.84215 0.86055 0.6158 0.0
H402 H 0.85078 0.89416 0.55899 0.0
H403 H 0.85297 0.85999 0.53816 0.0
C404 C 0.91732 0.76602 0.57411 0.0
C405 C 0.93251 0.76802 0.55865 0.0
C406 C 0.8963 0.7714 0.56961 0.0
C407 C 0.89011 0.77837 0.54946 0.0
C408 C 0.90489 0.77878 0.53356 0.0
C409 C 0.92591 0.77373 0.53812 0.0
C410 C 0.8695 0.78828 0.54582 0.0
C411 C 0.86605 0.80686 0.55824 0.0
C412 C 0.85514 0.78176 0.52824 0.0
C413 C 0.85759 0.76174 0.51515 0.0
C414 C 0.85752 0.7619 0.49278 0.0
C415 C 0.85995 0.74306 0.48049 0.0
C416 C 0.86239 0.72391 0.49038 0.0
C417 C 0.86236 0.72356 0.51258 0.0
C418 C 0.85993 0.74235 0.52494 0.0
C419 C 0.80289 0.84873 0.49998 0.0
C420 C 0.78908 0.85739 0.51454 0.0
C421 C 0.81746 0.83402 0.50642 0.0
C422 C 0.81837 0.82757 0.52747 0.0
C423 C 0.80382 0.83538 0.54171 0.0
C424 C 0.78947 0.85033 0.53539 0.0
C425 C 0.83544 0.81377 0.53475 0.0
C426 C 0.83825 0.79459 0.52296 0.0
C427 C 0.84947 0.81987 0.55274 0.0
C428 C 0.84837 0.84052 0.56512 0.0
C429 C 0.84556 0.8409 0.58716 0.0
C430 C 0.84445 0.86035 0.59885 0.0
C431 C 0.84626 0.87952 0.58869 0.0
C432 C 0.84929 0.87929 0.56682 0.0
C433 C 0.85045 0.8599 0.55506 0.0
H434 H 0.84537 0.89455 0.59776 0.0
H435 H 0.86428 0.70935 0.48083 0.0
H436 H 0.35067 0.59578 0.76995 0.0
H437 H 0.37543 0.62355 0.7874 0.0
H438 H 0.42708 0.58147 0.78223 0.0
H439 H 0.40258 0.55388 0.76427 0.0
H440 H 0.3954 0.62196 0.82419 0.0
H441 H 0.47459 0.60953 0.78242 0.0
H442 H 0.48622 0.60023 0.74642 0.0
H443 H 0.42881 0.62348 0.7184 0.0
H444 H 0.41696 0.6332 0.7542 0.0
H445 H 0.48085 0.65838 0.89367 0.0
H446 H 0.46003 0.63572 0.86641 0.0
H447 H 0.46485 0.68565 0.82228 0.0
H448 H 0.486 0.70843 0.84939 0.0
H449 H 0.46713 0.64575 0.80229 0.0
H450 H 0.42167 0.68157 0.8492 0.0
H451 H 0.40892 0.6935 0.88404 0.0
H452 H 0.39611 0.62833 0.89879 0.0
H453 H 0.40908 0.616 0.86415 0.0
C454 C 0.36736 0.59256 0.77223 0.0
C455 C 0.37464 0.57259 0.76585 0.0
C456 C 0.38149 0.60844 0.7822 0.0
C457 C 0.40312 0.60463 0.78605 0.0
C458 C 0.41055 0.58494 0.7791 0.0
C459 C 0.39647 0.56911 0.76894 0.0
C460 C 0.41744 0.62039 0.79914 0.0
C461 C 0.41101 0.62724 0.81928 0.0
C462 C 0.43772 0.62753 0.79267 0.0
C463 C 0.44481 0.62193 0.77103 0.0
C464 C 0.46449 0.61276 0.76858 0.0
C465 C 0.47111 0.60739 0.74821 0.0
C466 C 0.45823 0.6112 0.73014 0.0
C467 C 0.43873 0.62045 0.73241 0.0
C468 C 0.43204 0.62587 0.75275 0.0
C469 C 0.47779 0.66446 0.87808 0.0
C470 C 0.48482 0.68532 0.8738 0.0
C471 C 0.46587 0.65149 0.86253 0.0
C472 C 0.46059 0.6592 0.84251 0.0
C473 C 0.4687 0.67948 0.83769 0.0
C474 C 0.48073 0.69247 0.85323 0.0
C475 C 0.4452 0.64673 0.82738 0.0
C476 C 0.45143 0.64052 0.80699 0.0
C477 C 0.42451 0.64052 0.83337 0.0
C478 C 0.4165 0.64787 0.85415 0.0
C479 C 0.41626 0.66978 0.85993 0.0
C480 C 0.40899 0.67662 0.87964 0.0
C481 C 0.40175 0.66168 0.89364 0.0
C482 C 0.40173 0.63988 0.88794 0.0
C483 C 0.40903 0.63296 0.86826 0.0
H484 H 0.39612 0.667 0.90889 0.0
H485 H 0.46338 0.60702 0.71438 0.0
H486 H 0.5519 0.25951 0.04031 0.0
H487 H 0.58426 0.24314 0.03028 0.0
H488 H 0.58021 0.20204 0.0828 0.0
H489 H 0.54769 0.21872 0.09327 0.0
H490 H 0.61993 0.22016 0.08136 0.0
H491 H 0.57104 0.18102 0.03198 0.0
H492 H 0.54112 0.1749 0.00489 0.0
H493 H 0.5751 0.21298 0.96179 0.0
H494 H 0.60512 0.21961 0.98874 0.0
H495 H 0.71023 0.16988 0.03559 0.0
H496 H 0.67587 0.17601 0.05085 0.0
H497 H 0.66555 0.22593 0.00775 0.0
H498 H 0.69964 0.22004 0.99251 0.0
H499 H 0.63161 0.19553 0.0068 0.0
H500 H 0.67813 0.23817 0.05927 0.0
H501 H 0.7078 0.24361 0.08674 0.0
H502 H 0.67774 0.19678 0.12423 0.0
H503 H 0.64801 0.19086 0.09682 0.0
C504 C 0.55766 0.24682 0.04964 0.0
C505 C 0.54717 0.24045 0.06762 0.0
C506 C 0.57617 0.23738 0.0438 0.0
C507 C 0.58456 0.2212 0.05565 0.0
C508 C 0.57396 0.21446 0.07339 0.0
C509 C 0.55533 0.22392 0.07927 0.0
C510 C 0.60506 0.21243 0.04994 0.0
C511 C 0.62238 0.21428 0.06518 0.0
C512 C 0.6083 0.20488 0.0288 0.0
C513 C 0.59031 0.2009 0.01246 0.0
C514 C 0.57209 0.18821 0.01679 0.0
C515 C 0.55511 0.18463 0.00144 0.0
C516 C 0.5562 0.19357 0.98164 0.0
C517 C 0.57429 0.20607 0.97714 0.0
C518 C 0.59131 0.20971 0.99243 0.0
C519 C 0.7008 0.18239 0.0296 0.0
C520 C 0.70766 0.19439 0.01274 0.0
C521 C 0.68116 0.18584 0.03832 0.0
C522 C 0.66813 0.20132 0.0303 0.0
C523 C 0.67531 0.21379 0.01404 0.0
C524 C 0.69488 0.21045 0.00541 0.0
C525 C 0.64655 0.20411 0.03798 0.0
C526 C 0.62904 0.20101 0.02308 0.0
C527 C 0.64314 0.21029 0.05943 0.0
C528 C 0.661 0.21388 0.07588 0.0
C529 C 0.67795 0.22888 0.07328 0.0
C530 C 0.69476 0.23209 0.08886 0.0
C531 C 0.6947 0.2205 0.10718 0.0
C532 C 0.67779 0.20572 0.11 0.0
C533 C 0.66096 0.20244 0.09446 0.0
H534 H 0.70772 0.223 0.11923 0.0
H535 H 0.54303 0.19078 0.96979 0.0
H536 H 0.09219 0.54598 0.21657 0.0
H537 H 0.08293 0.57887 0.19996 0.0
H538 H 0.02252 0.57632 0.22934 0.0
H539 H 0.03156 0.54358 0.24586 0.0
H540 H 0.01887 0.58984 0.1886 0.0
H541 H 0.06473 0.60484 0.25343 0.0
H542 H 0.0979 0.60223 0.27578 0.0
H543 H 0.13435 0.63002 0.22749 0.0
H544 H 0.10139 0.63252 0.20472 0.0
H545 H 0.98392 0.69097 0.20911 0.0
H546 H -0.0004 0.65691 0.21388 0.0
H547 H 0.05259 0.67652 0.17738 0.0
H548 H 0.03693 0.71092 0.17238 0.0
H549 H 0.0642 0.65432 0.21451 0.0
H550 H 0.01694 0.64548 0.15274 0.0
H551 H 0.98342 0.64908 0.13145 0.0
H552 H 0.94948 0.60974 0.17352 0.0
H553 H 0.98276 0.60636 0.19546 0.0
C554 C 0.07673 0.55217 0.21907 0.0
C555 C 0.06268 0.54232 0.2327 0.0
C556 C 0.07153 0.57101 0.20967 0.0
C557 C 0.05217 0.58016 0.21369 0.0
C558 C 0.03756 0.56954 0.22608 0.0
C559 C 0.04279 0.55086 0.23558 0.0
C560 C 0.04764 0.60162 0.20665 0.0
C561 C 0.02879 0.60394 0.19422 0.0
C562 C 0.0609 0.61995 0.21353 0.0
C563 C 0.08066 0.61862 0.22728 0.0
C564 C 0.07985 0.61024 0.24752 0.0
C565 C 0.0986 0.6088 0.26027 0.0
C566 C 0.11823 0.61588 0.25303 0.0
C567 C 0.11914 0.62449 0.23305 0.0
C568 C 0.10043 0.62593 0.22022 0.0
C569 C 0.99903 0.68824 0.20226 0.0
C570 C 0.00906 0.70363 0.19018 0.0
C571 C 0.00793 0.6687 0.20496 0.0
C572 C 0.02704 0.6641 0.19567 0.0
C573 C 0.03775 0.67977 0.18455 0.0
C574 C 0.02877 0.69938 0.18172 0.0
C575 C 0.0351 0.64253 0.19705 0.0
C576 C 0.05457 0.6402 0.20842 0.0
C577 C 0.02241 0.62416 0.18918 0.0
C578 C 0.00236 0.62579 0.17584 0.0
C579 C 0.00232 0.63771 0.15756 0.0
C580 C 0.98334 0.63971 0.14536 0.0
C581 C 0.96432 0.62963 0.1511 0.0
C582 C 0.96424 0.61753 0.16908 0.0
C583 C 0.98316 0.61558 0.18142 0.0
H584 H 0.94964 0.6312 0.1416 0.0
H585 H 0.13273 0.61475 0.26292 0.0
H586 H 0.56021 0.75842 0.401 0.0
H587 H 0.58565 0.7765 0.42789 0.0
H588 H 0.61611 0.80995 0.37859 0.0
H589 H 0.5914 0.79135 0.35165 0.0
H590 H 0.64507 0.80034 0.40626 0.0
H591 H 0.57727 0.83233 0.40963 0.0
H592 H 0.53848 0.83239 0.41375 0.0
H593 H 0.54707 0.8095 0.47658 0.0
H594 H 0.58592 0.80907 0.47271 0.0
H595 H 0.6627 0.90373 0.47643 0.0
H596 H 0.63819 0.87712 0.45696 0.0
H597 H 0.67917 0.8274 0.47465 0.0
H598 H 0.70407 0.854 0.49386 0.0
H599 H 0.6149 0.8424 0.46534 0.0
H600 H 0.68099 0.79236 0.43144 0.0
H601 H 0.71901 0.79685 0.42372 0.0
H602 H 0.71244 0.86364 0.41598 0.0
H603 H 0.67436 0.85947 0.42334 0.0
C604 C 0.57252 0.76943 0.3959 0.0
C605 C 0.57372 0.77359 0.37424 0.0
C606 C 0.58699 0.7798 0.41128 0.0
C607 C 0.60255 0.79487 0.4053 0.0
C608 C 0.60426 0.79839 0.38359 0.0
C609 C 0.59007 0.78778 0.3682 0.0
C610 C 0.61635 0.80793 0.42155 0.0
C611 C 0.63847 0.80936 0.4193 0.0
C612 C 0.60775 0.82001 0.43837 0.0
C613 C 0.58444 0.82044 0.44079 0.0
C614 C 0.57086 0.82719 0.42427 0.0
C615 C 0.54888 0.8273 0.42657 0.0
C616 C 0.54031 0.82089 0.44539 0.0
C617 C 0.55373 0.81442 0.46199 0.0
C618 C 0.57573 0.81425 0.45976 0.0
C619 C 0.6664 0.88712 0.47643 0.0
C620 C 0.68549 0.88102 0.48645 0.0
C621 C 0.65231 0.87191 0.46537 0.0
C622 C 0.65702 0.85035 0.46413 0.0
C623 C 0.67542 0.84402 0.47516 0.0
C624 C 0.6896 0.85925 0.48616 0.0
C625 C 0.64351 0.8349 0.4499 0.0
C626 C 0.62149 0.83303 0.45255 0.0
C627 C 0.65209 0.82303 0.43295 0.0
C628 C 0.67492 0.82563 0.42822 0.0
C629 C 0.68767 0.80798 0.42803 0.0
C630 C 0.70922 0.81047 0.42371 0.0
C631 C 0.71816 0.83053 0.41944 0.0
C632 C 0.70553 0.84812 0.41937 0.0
C633 C 0.68397 0.84571 0.42363 0.0
H634 H 0.73485 0.83243 0.41613 0.0
H635 H 0.52328 0.82098 0.44714 0.0
H636 H 0.49019 0.33494 0.67499 0.0
H637 H 0.48257 0.37061 0.68878 0.0
H638 H 0.46764 0.34544 0.74907 0.0
H639 H 0.47423 0.3096 0.73492 0.0
H640 H 0.43663 0.36555 0.7362 0.0
H641 H 0.51086 0.38339 0.74342 0.0
H642 H 0.54816 0.38607 0.73318 0.0
H643 H 0.53066 0.42622 0.68278 0.0
H644 H 0.49318 0.42354 0.69251 0.0
H645 H 0.42945 0.48499 0.76539 0.0
H646 H 0.45232 0.45484 0.76128 0.0
H647 H 0.41035 0.42767 0.70899 0.0
H648 H 0.38754 0.45759 0.71283 0.0
H649 H 0.47378 0.43558 0.72571 0.0
H650 H 0.39929 0.37617 0.72052 0.0
H651 H 0.36325 0.37387 0.7342 0.0
H652 H 0.38464 0.41685 0.78756 0.0
H653 H 0.42087 0.4191 0.7744 0.0
C654 C 0.48587 0.33714 0.69138 0.0
C655 C 0.48255 0.31951 0.70382 0.0
C656 C 0.4816 0.35759 0.69931 0.0
C657 C 0.47448 0.36079 0.72 0.0
C658 C 0.47292 0.34338 0.73301 0.0
C659 C 0.47673 0.32291 0.72493 0.0
C660 C 0.46573 0.3814 0.72687 0.0
C661 C 0.44498 0.3808 0.73413 0.0
C662 C 0.47661 0.40142 0.72455 0.0
C663 C 0.49915 0.40315 0.71863 0.0
C664 C 0.51492 0.39267 0.73005 0.0
C665 C 0.53611 0.39421 0.72436 0.0
C666 C 0.54177 0.40628 0.70732 0.0
C667 C 0.52625 0.41688 0.69598 0.0
C668 C 0.50503 0.41538 0.7016 0.0
C669 C 0.42527 0.47274 0.75282 0.0
C670 C 0.40654 0.47355 0.73958 0.0
C671 C 0.43841 0.45562 0.75045 0.0
C672 C 0.43286 0.43901 0.73499 0.0
C673 C 0.41477 0.44031 0.72113 0.0
C674 C 0.40176 0.45743 0.72336 0.0
C675 C 0.44472 0.41936 0.73426 0.0
C676 C 0.46583 0.42021 0.7281 0.0
C677 C 0.43448 0.39951 0.73815 0.0
C678 C 0.41276 0.39794 0.74635 0.0
C679 C 0.39633 0.38504 0.73522 0.0
C680 C 0.37586 0.38375 0.74289 0.0
C681 C 0.37165 0.39524 0.76171 0.0
C682 C 0.38791 0.408 0.77295 0.0
C683 C 0.40841 0.40931 0.76538 0.0
H684 H 0.35579 0.39424 0.76761 0.0
H685 H 0.55818 0.40745 0.70294 0.0
H686 H 0.95921 0.27156 0.90801 0.0
H687 H 0.93162 0.26095 0.93172 0.0
H688 H 0.95369 0.19712 0.93046 0.0
H689 H 0.98083 0.20748 0.90599 0.0
H690 H 0.91326 0.19459 0.92434 0.0
H691 H 0.96021 0.23287 0.97642 0.0
H692 H 0.98394 0.26274 0.99246 0.0
H693 H 0.93141 0.30354 0.99229 0.0
H694 H 0.9074 0.274 0.97595 0.0
H695 H 0.83235 0.16664 0.99282 0.0
H696 H 0.86956 0.17535 0.98523 0.0
H697 H 0.85293 0.23782 0.9674 0.0
H698 H 0.81581 0.22925 0.97481 0.0
H699 H 0.8943 0.23736 0.98853 0.0
H700 H 0.8502 0.19972 0.93011 0.0
H701 H 0.82675 0.16939 0.91454 0.0
H702 H 0.8758 0.12643 0.92824 0.0
H703 H 0.89944 0.15652 0.94418 0.0
C704 C 0.95834 0.25532 0.91295 0.0
C705 C 0.97214 0.24034 0.90506 0.0
C706 C 0.94264 0.2493 0.92668 0.0
C707 C 0.94072 0.22829 0.9332 0.0
C708 C 0.95485 0.21343 0.92571 0.0
C709 C 0.97035 0.21937 0.91172 0.0
C710 C 0.92285 0.22146 0.9463 0.0
C711 C 0.90952 0.20367 0.93869 0.0
C712 C 0.91767 0.23338 0.96493 0.0
C713 C 0.93202 0.25122 0.97482 0.0
C714 C 0.95374 0.24825 0.97966 0.0
C715 C 0.96724 0.26512 0.98883 0.0
C716 C 0.95919 0.28504 0.99336 0.0
C717 C 0.93762 0.2881 0.98877 0.0
C718 C 0.92405 0.27129 0.97958 0.0
C719 C 0.83675 0.18245 0.9879 0.0
C720 C 0.82113 0.19717 0.98411 0.0
C721 C 0.85799 0.18738 0.98353 0.0
C722 C 0.86389 0.20713 0.97552 0.0
C723 C 0.84869 0.22249 0.97357 0.0
C724 C 0.82746 0.21752 0.97769 0.0
C725 C 0.88485 0.21084 0.96629 0.0
C726 C 0.89857 0.22805 0.97452 0.0
C727 C 0.89056 0.19831 0.94836 0.0
C728 C 0.87646 0.1803 0.93856 0.0
C729 C 0.85591 0.18378 0.92994 0.0
C730 C 0.8426 0.16665 0.92103 0.0
C731 C 0.84976 0.14599 0.92046 0.0
C732 C 0.87027 0.14244 0.92874 0.0
C733 C 0.88363 0.15952 0.93771 0.0
H734 H 0.83943 0.13274 0.91356 0.0
H735 H 0.96967 0.29808 0.00045 0.0
H736 H 0.27095 0.08597 0.43237 0.0
H737 H 0.27833 0.07122 0.39699 0.0
H738 H 0.28484 0.00925 0.42223 0.0
H739 H 0.27874 0.02436 0.45787 0.0
H740 H 0.31759 0.01814 0.40308 0.0
H741 H 0.24403 0.0209 0.38274 0.0
H742 H 0.2089 0.03628 0.37886 0.0
H743 H 0.235 0.08414 0.33998 0.0
H744 H 0.27038 0.06924 0.34387 0.0
H745 H 0.34431 0.97477 0.30233 0.0
H746 H 0.32111 0.98162 0.33165 0.0
H747 H 0.328 0.04917 0.32306 0.0
H748 H 0.35137 0.04252 0.29385 0.0
H749 H 0.28499 0.033 0.33217 0.0
H750 H 0.35949 0.03185 0.35824 0.0
H751 H 0.39399 0.01515 0.3619 0.0
H752 H 0.36361 0.96161 0.39006 0.0
H753 H 0.32885 0.97788 0.38628 0.0
C754 C 0.27336 0.06907 0.43021 0.0
C755 C 0.27446 0.05632 0.44782 0.0
C756 C 0.27748 0.06059 0.40992 0.0
C757 C 0.28214 0.03905 0.40682 0.0
C758 C 0.28147 0.02594 0.42419 0.0
C759 C 0.27791 0.03454 0.44454 0.0
C760 C 0.29065 0.03103 0.38646 0.0
C761 C 0.31004 0.02094 0.38763 0.0
C762 C 0.2812 0.03501 0.36617 0.0
C763 C 0.25992 0.04402 0.36373 0.0
C764 C 0.24233 0.0348 0.37349 0.0
C765 C 0.22236 0.04342 0.37127 0.0
C766 C 0.21973 0.0612 0.35922 0.0
C767 C 0.23707 0.07037 0.34932 0.0
C768 C 0.25708 0.06182 0.3515 0.0
C769 C 0.34067 0.99106 0.30648 0.0
C770 C 0.34987 0.00814 0.29596 0.0
C771 C 0.32737 0.99492 0.32318 0.0
C772 C 0.32293 0.01589 0.32949 0.0
C773 C 0.33119 0.03288 0.31832 0.0
C774 C 0.34468 0.02905 0.30178 0.0
C775 C 0.31167 0.02034 0.34912 0.0
C776 C 0.29202 0.02985 0.34775 0.0
C777 C 0.32065 0.0156 0.36928 0.0
C778 C 0.34156 0.00595 0.37175 0.0
C779 C 0.36015 0.01643 0.36505 0.0
C780 C 0.37975 0.00707 0.36717 0.0
C781 C 0.38098 0.9873 0.37614 0.0
C782 C 0.36262 0.9769 0.38308 0.0
C783 C 0.34298 0.98618 0.38096 0.0
H784 H 0.39617 0.98007 0.37777 0.0
H785 H 0.20426 0.06784 0.35752 0.0
H786 H 0.22307 0.00142 0.71331 0.0
H787 H 0.23287 0.02121 0.68274 0.0
H788 H 0.17215 0.05 0.68149 0.0
H789 H 0.16217 0.03017 0.71236 0.0
H790 H 0.18154 0.03183 0.6421 0.0
H791 H 0.21502 0.08134 0.6946 0.0
H792 H 0.23688 0.09377 0.72715 0.0
H793 H 0.29232 0.06886 0.70024 0.0
H794 H 0.27074 0.05597 0.66764 0.0
H795 H 0.22235 0.08706 0.55356 0.0
H796 H 0.20627 0.08007 0.5873 0.0
H797 H 0.26085 0.04573 0.6069 0.0
H798 H 0.27703 0.05266 0.57346 0.0
H799 H 0.24995 0.07438 0.63824 0.0
H800 H 0.21449 0.01948 0.58898 0.0
H801 H 0.19246 0.00649 0.55667 0.0
H802 H 0.14046 0.04201 0.57798 0.0
H803 H 0.16231 0.05543 0.6103 0.0
C804 C 0.21189 0.01219 0.70676 0.0
C805 C 0.19182 0.01419 0.7152 0.0
C806 C 0.21756 0.02357 0.68934 0.0
C807 C 0.20328 0.03716 0.67994 0.0
C808 C 0.18341 0.03964 0.6886 0.0
C809 C 0.17778 0.02839 0.70626 0.0
C810 C 0.20881 0.04731 0.66012 0.0
C811 C 0.19621 0.04162 0.64131 0.0
C812 C 0.22807 0.05985 0.65911 0.0
C813 C 0.2412 0.06758 0.67869 0.0
C814 C 0.23184 0.07836 0.69567 0.0
C815 C 0.24419 0.08552 0.71413 0.0
C816 C 0.26597 0.08209 0.71577 0.0
C817 C 0.27545 0.07151 0.69894 0.0
C818 C 0.26316 0.06431 0.68045 0.0
C819 C 0.23086 0.07791 0.565 0.0
C820 C 0.25098 0.07041 0.5608 0.0
C821 C 0.22165 0.07395 0.58427 0.0
C822 C 0.2324 0.06242 0.59959 0.0
C823 C 0.25235 0.05478 0.59533 0.0
C824 C 0.26152 0.05866 0.57613 0.0
C825 C 0.22311 0.05818 0.62019 0.0
C826 C 0.23502 0.06503 0.63912 0.0
C827 C 0.20322 0.04674 0.62131 0.0
C828 C 0.19011 0.03868 0.6019 0.0
C829 C 0.19842 0.02467 0.58667 0.0
C830 C 0.18596 0.0172 0.56838 0.0
C831 C 0.1651 0.02348 0.56524 0.0
C832 C 0.15664 0.0372 0.58041 0.0
C833 C 0.16905 0.04474 0.59872 0.0
H834 H 0.15547 0.01768 0.55107 0.0
H835 H 0.27551 0.08764 0.73007 0.0
H836 H 0.1695 0.99415 0.83521 0.0
H837 H 0.18 0.98956 0.87276 0.0
H838 H 0.23098 0.95101 0.85324 0.0
H839 H 0.2211 0.95599 0.81611 0.0
H840 H 0.17828 0.95466 0.89232 0.0
H841 H 0.2712 0.95149 0.88824 0.0
H842 H 0.30044 0.97134 0.87199 0.0
H843 H 0.26266 0.02597 0.86841 0.0
H844 H 0.23329 0.00659 0.88493 0.0
H845 H 0.21959 0.87722 0.95419 0.0
H846 H 0.20898 0.90154 0.92722 0.0
H847 H 0.24568 0.95338 0.96241 0.0
H848 H 0.25692 0.9289 0.98923 0.0
H849 H 0.25284 0.95492 0.92271 0.0
H850 H 0.19025 0.95106 0.96003 0.0
H851 H 0.16038 0.93469 0.97839 0.0
H852 H 0.13652 0.90119 0.91976 0.0
H853 H 0.16642 0.91709 0.90109 0.0
C854 C 0.18323 0.98509 0.83898 0.0
C855 C 0.19438 0.97534 0.82266 0.0
C856 C 0.18918 0.98246 0.86043 0.0
C857 C 0.20642 0.97012 0.86587 0.0
C858 C 0.21796 0.96103 0.84956 0.0
C859 C 0.21213 0.96373 0.82824 0.0
C860 C 0.2111 0.96455 0.88821 0.0
C861 C 0.19454 0.95499 0.89912 0.0
C862 C 0.23221 0.96567 0.8975 0.0
C863 C 0.24998 0.97752 0.88779 0.0
C864 C 0.26917 0.96779 0.88415 0.0
C865 C 0.28576 0.97895 0.87484 0.0
C866 C 0.2834 -0.00011 0.86915 0.0
C867 C 0.26445 0.00973 0.87278 0.0
C868 C 0.24781 0.99865 0.88209 0.0
C869 C 0.22533 0.89381 0.95627 0.0
C870 C 0.23911 0.90112 0.97383 0.0
C871 C 0.21911 0.90776 0.94092 0.0
C872 C 0.2262 0.92941 0.94298 0.0
C873 C 0.23992 0.93678 0.96054 0.0
C874 C 0.24634 0.92276 0.97583 0.0
C875 C 0.22021 0.94385 0.92602 0.0
C876 C 0.23652 0.95508 0.91619 0.0
C877 C 0.19879 0.94484 0.91808 0.0
C878 C 0.18066 0.93523 0.92917 0.0
C879 C 0.17871 0.9401 0.95107 0.0
C880 C 0.16176 0.93091 0.96153 0.0
C881 C 0.14657 0.9169 0.95025 0.0
C882 C 0.14829 0.91206 0.92847 0.0
C883 C 0.16522 0.92119 0.91793 0.0
H884 H 0.13345 0.9098 0.95838 0.0
H885 H 0.29626 0.00849 0.86193 0.0
H886 H 0.26065 0.86494 0.10149 0.0
H887 H 0.27664 0.894 0.12586 0.0
H888 H 0.28836 0.93215 0.07236 0.0
H889 H 0.27201 0.90347 0.04792 0.0
H890 H 0.32541 0.92139 0.10119 0.0
H891 H 0.25649 0.9511 0.10126 0.0
H892 H 0.21768 0.94991 0.10533 0.0
H893 H 0.22755 0.93405 0.17057 0.0
H894 H 0.26643 0.93482 0.16679 0.0
H895 H 0.38283 0.00246 0.1637 0.0
H896 H 0.3562 0.98565 0.13725 0.0
H897 H 0.32226 0.95757 0.18762 0.0
H898 H 0.34812 0.97546 0.21415 0.0
H899 H 0.29469 0.96588 0.15812 0.0
H900 H 0.36035 0.9305 0.1588 0.0
H901 H 0.39912 0.92739 0.15672 0.0
H902 H 0.3956 0.94841 0.09285 0.0
H903 H 0.35681 0.9519 0.09466 0.0
C904 C 0.26624 0.87969 0.09496 0.0
C905 C 0.26526 0.88188 0.07281 0.0
C906 C 0.27523 0.89627 0.10888 0.0
C907 C 0.28358 0.91512 0.10081 0.0
C908 C 0.28185 0.91771 0.07881 0.0
C909 C 0.27251 0.90131 0.06491 0.0
C910 C 0.29659 0.93079 0.11502 0.0
C911 C 0.31873 0.9315 0.11337 0.0
C912 C 0.28774 0.9432 0.13133 0.0
C913 C 0.26438 0.94284 0.13367 0.0
C914 C 0.25038 0.94716 0.11641 0.0
C915 C 0.22837 0.94661 0.11868 0.0
C916 C 0.22015 0.94186 0.13818 0.0
C917 C 0.23394 0.93771 0.15547 0.0
C918 C 0.25597 0.93823 0.15328 0.0
C919 C 0.36947 0.99298 0.16909 0.0
C920 C 0.36761 0.99 0.19088 0.0
C921 C 0.35432 0.98332 0.154 0.0
C922 C 0.33756 0.96984 0.1604 0.0
C923 C 0.33508 0.96781 0.18227 0.0
C924 C 0.3499 0.97797 0.19741 0.0
C925 C 0.3237 0.95655 0.14437 0.0
C926 C 0.30143 0.95609 0.14575 0.0
C927 C 0.33244 0.9438 0.12811 0.0
C928 C 0.35574 0.9417 0.12696 0.0
C929 C 0.36788 0.9346 0.14437 0.0
C930 C 0.38984 0.93276 0.14323 0.0
C931 C 0.39983 0.93777 0.12469 0.0
C932 C 0.38785 0.94458 0.10722 0.0
C933 C 0.36587 0.94649 0.10829 0.0
H934 H 0.41684 0.93632 0.12384 0.0
H935 H 0.2031 0.94144 0.13991 0.0
H936 H 0.30666 0.3629 0.01341 0.0
H937 H 0.33256 0.33645 0.02058 0.0
H938 H 0.2954 0.31343 0.07112 0.0
H939 H 0.26926 0.34012 0.0641 0.0
H940 H 0.33747 0.3204 0.08356 0.0
H941 H 0.29744 0.28232 0.02627 0.0
H942 H 0.27827 0.27698 0.99092 0.0
H943 H 0.33653 0.2909 0.96056 0.0
H944 H 0.35602 0.29668 0.99572 0.0
H945 H 0.42457 0.25463 0.09614 0.0
H946 H 0.38681 0.26094 0.08886 0.0
H947 H 0.40288 0.29504 0.03371 0.0
H948 H 0.44034 0.28851 0.04058 0.0
H949 H 0.36482 0.27327 0.02659 0.0
H950 H 0.40104 0.32091 0.08339 0.0
H951 H 0.42063 0.32816 0.1184 0.0
H952 H 0.3692 0.29697 0.14914 0.0
H953 H 0.34942 0.28933 0.11424 0.0
C954 C 0.30387 0.35216 0.02598 0.0
C955 C 0.28591 0.35365 0.03822 0.0
C956 C 0.31862 0.33691 0.02995 0.0
C957 C 0.31574 0.32275 0.04617 0.0
C958 C 0.29782 0.32411 0.05842 0.0
C959 C 0.28293 0.33936 0.05439 0.0
C960 C 0.33237 0.30765 0.05103 0.0
C961 C 0.34307 0.3096 0.07129 0.0
C962 C 0.33977 0.29372 0.03496 0.0
C963 C 0.32819 0.29001 0.01369 0.0
C964 C 0.30616 0.28437 0.01207 0.0
C965 C 0.29523 0.28125 0.99205 0.0
C966 C 0.30617 0.28361 0.97351 0.0
C967 C 0.32808 0.28906 0.97494 0.0
C968 C 0.33909 0.29222 0.99492 0.0
C969 C 0.41997 0.26299 0.08215 0.0
C970 C 0.4355 0.27139 0.06914 0.0
C971 C 0.3984 0.26664 0.07806 0.0
C972 C 0.39209 0.2788 0.06097 0.0
C973 C 0.40737 0.28567 0.04702 0.0
C974 C 0.42884 0.28203 0.05106 0.0
C975 C 0.37035 0.28674 0.0588 0.0
C976 C 0.35873 0.28348 0.03906 0.0
C977 C 0.36211 0.29956 0.07529 0.0
C978 C 0.3739 0.30432 0.09624 0.0
C979 C 0.39398 0.3155 0.09762 0.0
C980 C 0.40511 0.31969 0.11743 0.0
C981 C 0.39619 0.31297 0.13597 0.0
C982 C 0.3761 0.30212 0.13476 0.0
C983 C 0.36493 0.29785 0.11498 0.0
H984 H 0.40483 0.31623 0.1513 0.0
H985 H 0.29768 0.28121 0.95803 0.0
H986 H 0.98305 0.83057 0.17227 0.0
H987 H 0.97347 0.86562 0.18596 0.0
H988 H 0.96635 0.84119 0.24822 0.0
H989 H 0.97462 0.8058 0.23411 0.0
H990 H 0.93298 0.85862 0.23812 0.0
H991 H 0.00589 0.88225 0.23674 0.0
H992 H 0.04128 0.88757 0.22218 0.0
H993 H 0.01435 0.92422 0.17286 0.0
H994 H 0.97872 0.91888 0.18693 0.0
H995 H 0.9024 0.95869 0.27995 0.0
H996 H 0.92653 0.9301 0.27352 0.0
H997 H 0.91905 0.9374 0.20576 0.0
H998 H 0.89469 0.96586 0.21199 0.0
H999 H 0.96284 0.93044 0.22268 0.0
H1000 H 0.88922 0.90139 0.223 0.0
H1001 H 0.85457 0.89646 0.2392 0.0
H1002 H 0.88548 0.87017 0.29358 0.0
H1003 H 0.92037 0.87525 0.27781 0.0
C1004 C 0.98002 0.83287 0.18902 0.0
C1005 C 0.9794 0.81551 0.20212 0.0
C1006 C 0.97464 0.85298 0.1969 0.0
C1007 C 0.96919 0.85618 0.2182 0.0
C1008 C 0.9703 0.83914 0.2317 0.0
C1009 C 0.9751 0.81894 0.22367 0.0
C1010 C 0.95952 0.87618 0.22553 0.0
C1011 C 0.93992 0.87429 0.23519 0.0
C1012 C 0.96817 0.89674 0.22136 0.0
C1013 C 0.98958 0.90003 0.21282 0.0
C1014 C 0.00747 0.89132 0.22269 0.0
C1015 C 0.02759 0.89436 0.21454 0.0
C1016 C 0.03005 0.90619 0.19658 0.0
C1017 C 0.01241 0.91505 0.18677 0.0
C1018 C 0.99225 0.91205 0.19485 0.0
C1019 C 0.90608 0.9544 0.26369 0.0
C1020 C 0.89647 0.96436 0.24645 0.0
C1021 C 0.91991 0.93812 0.26007 0.0
C1022 C 0.9245 0.93169 0.23918 0.0
C1023 C 0.91575 0.94226 0.222 0.0
C1024 C 0.90171 0.95836 0.22558 0.0
C1025 C 0.93661 0.91255 0.23507 0.0
C1026 C 0.9564 0.91466 0.22593 0.0
C1027 C 0.92839 0.89216 0.23998 0.0
C1028 C 0.90741 0.88893 0.24935 0.0
C1029 C 0.88864 0.89473 0.23849 0.0
C1030 C 0.86896 0.89188 0.24758 0.0
C1031 C 0.86784 0.88307 0.26744 0.0
C1032 C 0.88638 0.87703 0.27822 0.0
C1033 C 0.90611 0.87988 0.26921 0.0
H1034 H 0.85259 0.88088 0.27445 0.0
H1035 H 0.04564 0.90853 0.1903 0.0
H1036 H 0.21144 0.67183 0.53059 0.0
H1037 H 0.17719 0.6786 0.54571 0.0
H1038 H 0.16733 0.72772 0.50151 0.0
H1039 H 0.20152 0.72146 0.48675 0.0
H1040 H 0.15509 0.74021 0.53907 0.0
H1041 H 0.14451 0.67619 0.49253 0.0
H1042 H 0.15158 0.63947 0.48014 0.0
H1043 H 0.1348 0.61681 0.54054 0.0
H1044 H 0.1279 0.65347 0.55338 0.0
H1045 H 0.04684 0.75185 0.52612 0.0
H1046 H 0.08125 0.73829 0.51821 0.0
H1047 H 0.08065 0.70205 0.57442 0.0
H1048 H 0.04594 0.71555 0.58254 0.0
H1049 H 0.09893 0.68124 0.53676 0.0
H1050 H 0.1054 0.74693 0.58073 0.0
H1051 H 0.09628 0.78384 0.58979 0.0
H1052 H 0.12003 0.80373 0.53087 0.0
H1053 H 0.12885 0.76682 0.52122 0.0
C1054 C 0.2021 0.68428 0.52431 0.0
C1055 C 0.20918 0.69602 0.50736 0.0
C1056 C 0.18247 0.68803 0.53287 0.0
C1057 C 0.16953 0.70344 0.52451 0.0
C1058 C 0.177 0.71572 0.50821 0.0
C1059 C 0.19659 0.71208 0.49974 0.0
C1060 C 0.1479 0.70656 0.53205 0.0
C1061 C 0.14285 0.72729 0.53853 0.0
C1062 C 0.13197 0.68964 0.53175 0.0
C1063 C 0.13595 0.66759 0.524 0.0
C1064 C 0.14248 0.66339 0.50322 0.0
C1065 C 0.14644 0.6426 0.49611 0.0
C1066 C 0.14371 0.62583 0.50957 0.0
C1067 C 0.13695 0.62982 0.53015 0.0
C1068 C 0.13301 0.6506 0.53735 0.0
C1069 C 0.05374 0.74066 0.53661 0.0
C1070 C 0.04379 0.73505 0.55516 0.0
C1071 C 0.07342 0.73291 0.53204 0.0
C1072 C 0.08361 0.7195 0.54595 0.0
C1073 C 0.07302 0.71247 0.56356 0.0
C1074 C 0.05322 0.72021 0.56817 0.0
C1075 C 0.10616 0.71493 0.54314 0.0
C1076 C 0.11134 0.69401 0.53766 0.0
C1077 C 0.12221 0.73171 0.54405 0.0
C1078 C 0.11765 0.75407 0.5502 0.0
C1079 C 0.10859 0.75915 0.56966 0.0
C1080 C 0.10347 0.78008 0.5749 0.0
C1081 C 0.10754 0.79612 0.5609 0.0
C1082 C 0.11686 0.79128 0.54169 0.0
C1083 C 0.12194 0.77036 0.53633 0.0
H1084 H 0.10348 0.81229 0.56492 0.0
H1085 H 0.14679 0.60974 0.50404 0.0
H1086 H 0.00059 0.70488 0.64174 0.0
H1087 H 0.9964 0.67648 0.66629 0.0
H1088 H 0.93264 0.6947 0.67749 0.0
H1089 H 0.93693 0.72366 0.65324 0.0
H1090 H 0.95288 0.68317 0.71414 0.0
H1091 H 0.93991 0.65355 0.6425 0.0
H1092 H 0.94752 0.64661 0.60476 0.0
H1093 H 0.00456 0.61642 0.62385 0.0
H1094 H 0.99744 0.62344 0.66173 0.0
H1095 H 0.91532 0.57854 0.74436 0.0
H1096 H 0.92178 0.61432 0.73169 0.0
H1097 H 0.98644 0.60001 0.71939 0.0
H1098 H 0.98002 0.56424 0.73168 0.0
H1099 H 0.96449 0.61039 0.68408 0.0
H1100 H 0.97573 0.63903 0.75665 0.0
H1101 H 0.9665 0.64551 0.79397 0.0
H1102 H 0.91062 0.67652 0.77288 0.0
H1103 H 0.91935 0.66996 0.73539 0.0
C1104 C 0.9857 0.70296 0.64949 0.0
C1105 C 0.96898 0.71635 0.64532 0.0
C1106 C 0.98333 0.68671 0.66354 0.0
C1107 C 0.96407 0.68323 0.67344 0.0
C1108 C 0.94762 0.69707 0.66998 0.0
C1109 C 0.95006 0.71353 0.65604 0.0
C1110 C 0.9608 0.66435 0.6863 0.0
C1111 C 0.95519 0.6672 0.70755 0.0
C1112 C 0.96397 0.64356 0.67773 0.0
C1113 C 0.96824 0.6392 0.65495 0.0
C1114 C 0.95416 0.64557 0.63865 0.0
C1115 C 0.95837 0.6416 0.61724 0.0
C1116 C 0.97654 0.63113 0.61191 0.0
C1117 C 0.99051 0.62455 0.628 0.0
C1118 C 0.98638 0.62851 0.64944 0.0
C1119 C 0.93113 0.58328 0.73966 0.0
C1120 C 0.94708 0.56849 0.73872 0.0
C1121 C 0.9348 0.60376 0.73241 0.0
C1122 C 0.95454 0.60975 0.7244 0.0
C1123 C 0.97104 0.59564 0.72534 0.0
C1124 C 0.96735 0.57521 0.7324 0.0
C1125 C 0.95711 0.62915 0.71217 0.0
C1126 C 0.96234 0.62634 0.69082 0.0
C1127 C 0.95334 0.64983 0.72065 0.0
C1128 C 0.94809 0.65381 0.74319 0.0
C1129 C 0.96137 0.64706 0.75995 0.0
C1130 C 0.95625 0.65079 0.78114 0.0
C1131 C 0.93795 0.66137 0.78579 0.0
C1132 C 0.92477 0.6683 0.76926 0.0
C1133 C 0.92981 0.6646 0.74803 0.0
H1134 H 0.93402 0.66424 0.80221 0.0
H1135 H 0.97977 0.62807 0.59532 0.0
H1136 H 0.20164 0.13225 0.50002 0.0
H1137 H 0.17012 0.15185 0.49204 0.0
H1138 H 0.20369 0.18638 0.44551 0.0
H1139 H 0.23564 0.16694 0.45364 0.0
H1140 H 0.17857 0.21239 0.46948 0.0
H1141 H 0.17021 0.14624 0.42819 0.0
H1142 H 0.17018 0.10723 0.42139 0.0
H1143 H 0.1207 0.09841 0.46503 0.0
H1144 H 0.12064 0.13736 0.47233 0.0
H1145 H 0.07747 0.23899 0.41734 0.0
H1146 H 0.11388 0.22914 0.42664 0.0
H1147 H 0.09045 0.19193 0.47694 0.0
H1148 H 0.05423 0.20158 0.46783 0.0
H1149 H 0.11201 0.1687 0.44744 0.0
H1150 H 0.12153 0.23583 0.48907 0.0
H1151 H 0.1218 0.27497 0.49473 0.0
H1152 H 0.16892 0.28219 0.44837 0.0
H1153 H 0.16872 0.24307 0.4422 0.0
C1154 C 0.20243 0.14406 0.48814 0.0
C1155 C 0.22109 0.14786 0.47729 0.0
C1156 C 0.18437 0.15526 0.4836 0.0
C1157 C 0.18449 0.17034 0.46798 0.0
C1158 C 0.20328 0.17475 0.4576 0.0
C1159 C 0.22146 0.16356 0.46219 0.0
C1160 C 0.16457 0.18061 0.46197 0.0
C1161 C 0.16406 0.20291 0.46434 0.0
C1162 C 0.14566 0.16818 0.45536 0.0
C1163 C 0.14555 0.14472 0.45094 0.0
C1164 C 0.15943 0.13597 0.43646 0.0
C1165 C 0.15941 0.11387 0.4325 0.0
C1166 C 0.14548 0.10035 0.44281 0.0
C1167 C 0.13149 0.1089 0.45707 0.0
C1168 C 0.13146 0.131 0.46111 0.0
C1169 C 0.08016 0.22916 0.43073 0.0
C1170 C 0.06292 0.22081 0.44165 0.0
C1171 C 0.10097 0.22357 0.43602 0.0
C1172 C 0.10477 0.20967 0.45235 0.0
C1173 C 0.08779 0.20255 0.46418 0.0
C1174 C 0.06709 0.20811 0.45894 0.0
C1175 C 0.12577 0.20044 0.45563 0.0
C1176 C 0.12651 0.17825 0.45251 0.0
C1177 C 0.14481 0.21302 0.46131 0.0
C1178 C 0.14492 0.23653 0.46499 0.0
C1179 C 0.13179 0.24576 0.47992 0.0
C1180 C 0.13197 0.26794 0.48326 0.0
C1181 C 0.14532 0.28106 0.47187 0.0
C1182 C 0.15856 0.27201 0.45715 0.0
C1183 C 0.15843 0.24984 0.45374 0.0
H1184 H 0.14543 0.29823 0.47448 0.0
H1185 H 0.14549 0.08324 0.43972 0.0
H1186 H 0.60047 0.45396 0.25309 0.0
H1187 H 0.57134 0.4281 0.24035 0.0
H1188 H 0.61664 0.3885 0.21076 0.0
H1189 H 0.64572 0.4137 0.22408 0.0
H1190 H 0.55679 0.41689 0.2027 0.0
H1191 H 0.60193 0.33784 0.20661 0.0
H1192 H 0.62779 0.32196 0.23107 0.0
H1193 H 0.60881 0.36214 0.2833 0.0
H1194 H 0.58261 0.37805 0.25924 0.0
H1195 H 0.52854 0.34413 0.11809 0.0
H1196 H 0.5437 0.36902 0.14661 0.0
H1197 H 0.52274 0.32607 0.19349 0.0
H1198 H 0.508 0.30061 0.16481 0.0
H1199 H 0.56174 0.33845 0.20297 0.0
H1200 H 0.50034 0.37514 0.18841 0.0
H1201 H 0.47171 0.39089 0.16721 0.0
H1202 H 0.51765 0.43492 0.14279 0.0
H1203 H 0.54662 0.41924 0.16358 0.0
C1204 C 0.60421 0.43958 0.24409 0.0
C1205 C 0.62539 0.43584 0.2396 0.0
C1206 C 0.58755 0.42483 0.23684 0.0
C1207 C 0.59179 0.40617 0.22487 0.0
C1208 C 0.61297 0.40243 0.22049 0.0
C1209 C 0.62961 0.41697 0.22797 0.0
C1210 C 0.57415 0.39135 0.21538 0.0
C1211 C 0.55771 0.39974 0.20297 0.0
C1212 C 0.57477 0.36896 0.21643 0.0
C1213 C 0.59033 0.35921 0.23106 0.0
C1214 C 0.60314 0.34319 0.22334 0.0
C1215 C 0.6179 0.33421 0.23713 0.0
C1216 C 0.61996 0.34106 0.25872 0.0
C1217 C 0.60723 0.35688 0.26656 0.0
C1218 C 0.59244 0.36591 0.25285 0.0
C1219 C 0.52687 0.34004 0.13445 0.0
C1220 C 0.51715 0.32033 0.13917 0.0
C1221 C 0.53541 0.35441 0.1508 0.0
C1222 C 0.53411 0.34959 0.17224 0.0
C1223 C 0.52387 0.33016 0.17706 0.0
C1224 C 0.51546 0.31564 0.16066 0.0
C1225 C 0.54528 0.36403 0.18927 0.0
C1226 C 0.56047 0.35558 0.20313 0.0
C1227 C 0.54304 0.38633 0.19011 0.0
C1228 C 0.52569 0.39594 0.17755 0.0
C1229 C 0.50437 0.3881 0.17843 0.0
C1230 C 0.48807 0.39702 0.16648 0.0
C1231 C 0.49286 0.41388 0.15365 0.0
C1232 C 0.51396 0.42187 0.15275 0.0
C1233 C 0.53033 0.41299 0.16465 0.0
H1234 H 0.48022 0.42077 0.14441 0.0
H1235 H 0.63141 0.3341 0.26936 0.0
H1236 H 0.29853 0.8353 0.97252 0.0
H1237 H 0.33334 0.8291 0.95828 0.0
H1238 H 0.34396 0.78185 0.00428 0.0
H1239 H 0.30946 0.78788 0.01857 0.0
H1240 H 0.37733 0.81204 0.00443 0.0
H1241 H 0.33227 0.76728 0.95248 0.0
H1242 H 0.30317 0.76048 0.92455 0.0
H1243 H 0.33336 0.80625 0.886 0.0
H1244 H 0.36253 0.81352 0.91384 0.0
H1245 H 0.45795 0.74728 0.97397 0.0
H1246 H 0.42569 0.76423 0.98345 0.0
H1247 H 0.43023 0.80376 0.92975 0.0
H1248 H 0.46261 0.78651 0.91987 0.0
H1249 H 0.39071 0.78526 0.93095 0.0
H1250 H 0.43841 0.82621 0.98016 0.0
H1251 H 0.46777 0.83332 0.00774 0.0
H1252 H 0.43312 0.79635 0.05124 0.0
H1253 H 0.40366 0.78874 0.02383 0.0
C1254 C 0.30813 0.82335 0.97937 0.0
C1255 C 0.30125 0.81218 0.99678 0.0
C1256 C 0.32802 0.81986 0.97123 0.0
C1257 C 0.34126 0.80513 0.98034 0.0
C1258 C 0.33405 0.79343 0.99715 0.0
C1259 C 0.31426 0.79684 0.00523 0.0
C1260 C 0.36306 0.80234 0.97322 0.0
C1261 C 0.38028 0.80608 0.98839 0.0
C1262 C 0.36695 0.79551 0.95205 0.0
C1263 C 0.34942 0.79114 0.93535 0.0
C1264 C 0.3326 0.77604 0.93813 0.0
C1265 C 0.31612 0.77207 0.9223 0.0
C1266 C 0.31638 0.78298 0.90354 0.0
C1267 C 0.33316 0.79785 0.90055 0.0
C1268 C 0.34967 0.80189 0.91635 0.0
C1269 C 0.45234 0.75981 0.96432 0.0
C1270 C 0.46286 0.76551 0.94613 0.0
C1271 C 0.43391 0.76958 0.96983 0.0
C1272 C 0.42562 0.78539 0.95741 0.0
C1273 C 0.43639 0.79162 0.93958 0.0
C1274 C 0.45495 0.78184 0.93405 0.0
C1275 C 0.40492 0.79412 0.96243 0.0
C1276 C 0.38789 0.79161 0.94688 0.0
C1277 C 0.40119 0.80224 0.98325 0.0
C1278 C 0.41885 0.80682 -0.00013 0.0
C1279 C 0.4371 0.81947 0.99556 0.0
C1280 C 0.45376 0.82361 0.01117 0.0
C1281 C 0.45233 0.81527 0.03122 0.0
C1282 C 0.43421 0.8028 0.03571 0.0
C1283 C 0.4175 0.7986 0.02015 0.0
H1284 H 0.46524 0.81849 0.04328 0.0
H1285 H 0.30361 0.77988 0.8913 0.0
H1286 H 0.92056 0.4568 0.7935 0.0
H1287 H 0.92677 0.42223 0.80836 0.0
H1288 H 0.98094 0.41562 0.76987 0.0
H1289 H 0.97504 0.44991 0.75511 0.0
H1290 H 0.95011 0.38115 0.7645 0.0
H1291 H 0.98864 0.42576 0.82179 0.0
H1292 H 0.99127 0.45376 0.85106 0.0
H1293 H 0.94289 0.41943 0.88324 0.0
H1294 H 0.93978 0.39135 0.854 0.0
H1295 H 0.01596 0.30271 0.79447 0.0
H1296 H 0.9985 0.33504 0.78671 0.0
H1297 H 0.95596 0.32462 0.83715 0.0
H1298 H 0.9739 0.29208 0.84548 0.0
H1299 H 0.97154 0.36551 0.83889 0.0
H1300 H 0.93676 0.31822 0.78522 0.0
H1301 H 0.9332 0.28986 0.75633 0.0
H1302 H 0.97173 0.32851 0.71738 0.0
H1303 H 0.97581 0.35699 0.74614 0.0
C1304 C 0.93405 0.44818 0.78854 0.0
C1305 C 0.94719 0.45605 0.77296 0.0
C1306 C 0.93753 0.42842 0.79702 0.0
C1307 C 0.95417 0.41632 0.79002 0.0
C1308 C 0.96789 0.42465 0.77532 0.0
C1309 C 0.96451 0.44432 0.76695 0.0
C1310 C 0.95674 0.39434 0.79667 0.0
C1311 C 0.95485 0.3777 0.78075 0.0
C1312 C 0.96186 0.38974 0.81805 0.0
C1313 C 0.96378 0.40661 0.83559 0.0
C1314 C 0.97842 0.42429 0.835 0.0
C1315 C 0.98003 0.44015 0.85161 0.0
C1316 C 0.9672 0.43841 0.86896 0.0
C1317 C 0.95278 0.42078 0.86977 0.0
C1318 C 0.95109 0.40489 0.85319 0.0
C1319 C 0.00275 0.30706 0.80384 0.0
C1320 C 0.99631 0.29473 0.82058 0.0
C1321 C 0.99268 0.32557 0.79929 0.0
C1322 C 0.9757 0.33213 0.81113 0.0
C1323 C 0.96897 0.31978 0.82774 0.0
C1324 C 0.97915 0.30115 0.83238 0.0
C1325 C 0.96595 0.35246 0.80647 0.0
C1326 C 0.96634 0.36878 0.82272 0.0
C1327 C 0.95916 0.35677 0.78538 0.0
C1328 C 0.95664 0.33974 0.76791 0.0
C1329 C 0.94458 0.32064 0.77055 0.0
C1330 C 0.94246 0.30454 0.75418 0.0
C1331 C 0.95224 0.30737 0.73504 0.0
C1332 C 0.96415 0.32634 0.73221 0.0
C1333 C 0.96633 0.34249 0.74853 0.0
H1334 H 0.95059 0.29488 0.7224 0.0
H1335 H 0.96848 0.4507 0.8818 0.0
H1336 H 0.34937 0.12662 0.50162 0.0
H1337 H 0.37504 0.1558 0.51457 0.0
H1338 H 0.32521 0.18695 0.54661 0.0
H1339 H 0.29931 0.15857 0.53242 0.0
H1340 H 0.3518 0.21603 0.53574 0.0
H1341 H 0.35898 0.15069 0.57142 0.0
H1342 H 0.36446 0.11235 0.57406 0.0
H1343 H 0.42574 0.12078 0.54772 0.0
H1344 H 0.42049 0.15914 0.54469 0.0
H1345 H 0.40674 0.25139 0.63589 0.0
H1346 H 0.38385 0.23585 0.60557 0.0
H1347 H 0.43916 0.22775 0.56902 0.0
H1348 H 0.46216 0.24365 0.59906 0.0
H1349 H 0.41339 0.18953 0.57711 0.0
H1350 H 0.40657 0.25853 0.5499 0.0
H1351 H 0.39934 0.29669 0.55187 0.0
H1352 H 0.33507 0.28113 0.56802 0.0
H1353 H 0.342 0.24287 0.56647 0.0
C1354 C 0.34388 0.13998 0.51102 0.0
C1355 C 0.3225 0.14028 0.51631 0.0
C1356 C 0.35853 0.15659 0.51848 0.0
C1357 C 0.35221 0.17324 0.53215 0.0
C1358 C 0.33053 0.17425 0.5362 0.0
C1359 C 0.31574 0.15798 0.52816 0.0
C1360 C 0.36832 0.18822 0.54406 0.0
C1361 C 0.36525 0.21023 0.54481 0.0
C1362 C 0.38604 0.18073 0.55577 0.0
C1363 C 0.38923 0.15769 0.55757 0.0
C1364 C 0.37356 0.14432 0.56606 0.0
C1365 C 0.37663 0.1226 0.56764 0.0
C1366 C 0.3954 0.11412 0.56099 0.0
C1367 C 0.41118 0.12736 0.55281 0.0
C1368 C 0.40817 0.14909 0.55115 0.0
C1369 C 0.41398 0.2468 0.62122 0.0
C1370 C 0.43626 0.2485 0.61993 0.0
C1371 C 0.40088 0.23807 0.60388 0.0
C1372 C 0.40989 0.23073 0.58513 0.0
C1373 C 0.43198 0.23348 0.58336 0.0
C1374 C 0.44506 0.24253 0.60055 0.0
C1375 C 0.39668 0.21717 0.56898 0.0
C1376 C 0.40024 0.19537 0.5676 0.0
C1377 C 0.37913 0.22481 0.55733 0.0
C1378 C 0.37487 0.24781 0.55821 0.0
C1379 C 0.39095 0.26324 0.55406 0.0
C1380 C 0.38689 0.2849 0.55506 0.0
C1381 C 0.36677 0.29134 0.5601 0.0
C1382 C 0.35065 0.27612 0.56412 0.0
C1383 C 0.35463 0.25444 0.56315 0.0
H1384 H 0.36366 0.30811 0.56087 0.0
H1385 H 0.39775 0.09731 0.56224 0.0
H1386 H 0.54408 0.693 0.28029 0.0
H1387 H 0.55149 0.65585 0.27318 0.0
H1388 H 0.51612 0.63823 0.32705 0.0
H1389 H 0.50898 0.67571 0.33463 0.0
H1390 H 0.55395 0.62279 0.32954 0.0
H1391 H 0.49859 0.62079 0.27531 0.0
H1392 H 0.47733 0.63288 0.24462 0.0
H1393 H 0.53113 0.62829 0.20578 0.0
H1394 H 0.55283 0.61647 0.23631 0.0
H1395 H 0.58791 0.5179 0.30468 0.0
H1396 H 0.56344 0.54648 0.30991 0.0
H1397 H 0.59492 0.58242 0.26301 0.0
H1398 H 0.61927 0.554 0.25758 0.0
H1399 H 0.55119 0.58368 0.2586 0.0
H1400 H 0.60745 0.59294 0.31552 0.0
H1401 H 0.6287 0.58125 0.34646 0.0
H1402 H 0.57173 0.57205 0.38029 0.0
H1403 H 0.55012 0.58344 0.34942 0.0
C1404 C 0.53748 0.68123 0.29042 0.0
C1405 C 0.52609 0.68739 0.30815 0.0
C1406 C 0.54161 0.6599 0.28622 0.0
C1407 C 0.53424 0.64417 0.29948 0.0
C1408 C 0.52194 0.65009 0.31658 0.0
C1409 C 0.51783 0.67151 0.32085 0.0
C1410 C 0.54159 0.6222 0.2968 0.0
C1411 C 0.55279 0.61396 0.31415 0.0
C1412 C 0.54037 0.61077 0.27667 0.0
C1413 C 0.52738 0.61781 0.25817 0.0
C1414 C 0.50594 0.62249 0.26027 0.0
C1415 C 0.4938 0.62928 0.24288 0.0
C1416 C 0.50288 0.63137 0.22327 0.0
C1417 C 0.52411 0.62665 0.22098 0.0
C1418 C 0.53633 0.61986 0.23832 0.0
C1419 C 0.58954 0.53184 0.29539 0.0
C1420 C 0.60565 0.53376 0.28084 0.0
C1421 C 0.57555 0.54814 0.29841 0.0
C1422 C 0.57746 0.56661 0.28693 0.0
C1423 C 0.59313 0.56827 0.27198 0.0
C1424 C 0.60713 0.55206 0.26901 0.0
C1425 C 0.56401 0.58482 0.29113 0.0
C1426 C 0.55175 0.5923 0.27408 0.0
C1427 C 0.56416 0.59553 0.31154 0.0
C1428 C 0.57716 0.58877 0.33009 0.0
C1429 C 0.59945 0.58825 0.3295 0.0
C1430 C 0.61156 0.58172 0.34703 0.0
C1431 C 0.60157 0.57584 0.3653 0.0
C1432 C 0.57944 0.57656 0.36611 0.0
C1433 C 0.56726 0.58306 0.34861 0.0
H1434 H 0.61097 0.57079 0.37886 0.0
H1435 H 0.49345 0.63664 0.20983 0.0
H1436 H 0.01654 0.80039 0.08523 0.0
H1437 H 0.04678 0.80654 0.06294 0.0
H1438 H 0.08732 0.77517 0.1075 0.0
H1439 H 0.05743 0.76925 0.12993 0.0
H1440 H 0.10626 0.81151 0.09671 0.0
H1441 H 0.06774 0.75031 0.05991 0.0
H1442 H 0.03637 0.73066 0.0414 0.0
H1443 H 0.03473 0.77696 0.99372 0.0
H1444 H 0.06595 0.79706 0.01213 0.0
H1445 H 0.19368 0.77999 0.04546 0.0
H1446 H 0.15685 0.7745 0.05502 0.0
H1447 H 0.13875 0.82646 0.0173 0.0
H1448 H 0.17582 0.83236 0.00774 0.0
H1449 H 0.10671 0.78408 0.02111 0.0
H1450 H 0.14608 0.84523 0.05905 0.0
H1451 H 0.17877 0.86263 0.07733 0.0
H1452 H 0.179 0.81437 0.12305 0.0
H1453 H 0.1465 0.79648 0.10478 0.0
C1454 C 0.03191 0.79483 0.09029 0.0
C1455 C 0.03459 0.78436 0.10938 0.0
C1456 C 0.04913 0.79826 0.07747 0.0
C1457 C 0.06925 0.79117 0.08349 0.0
C1458 C 0.07193 0.7808 0.10257 0.0
C1459 C 0.0548 0.77741 0.11537 0.0
C1460 C 0.08781 0.79482 0.07033 0.0
C1461 C 0.10626 0.8055 0.08018 0.0
C1462 C 0.08774 0.7874 0.04861 0.0
C1463 C 0.069 0.77533 0.03754 0.0
C1464 C 0.06057 0.75641 0.04559 0.0
C1465 C 0.04285 0.74517 0.03509 0.0
C1466 C 0.03352 0.7526 0.01643 0.0
C1467 C 0.04194 0.77125 0.0082 0.0
C1468 C 0.05966 0.78257 0.01865 0.0
C1469 C 0.18183 0.7899 0.03864 0.0
C1470 C 0.18778 0.80692 0.0262 0.0
C1471 C 0.16076 0.78665 0.04405 0.0
C1472 C 0.14525 0.80022 0.03701 0.0
C1473 C 0.15058 0.81581 0.0228 0.0
C1474 C 0.17177 0.81918 0.01743 0.0
C1475 C 0.12496 0.80042 0.0477 0.0
C1476 C 0.10636 0.79046 0.03747 0.0
C1477 C 0.12478 0.80845 0.06912 0.0
C1478 C 0.144 0.81943 0.08044 0.0
C1479 C 0.15321 0.83825 0.0729 0.0
C1480 C 0.17168 0.84821 0.08327 0.0
C1481 C 0.18099 0.83958 0.10132 0.0
C1482 C 0.17179 0.82102 0.10906 0.0
C1483 C 0.15333 0.81097 0.09872 0.0
H1484 H 0.1953 0.84731 0.10932 0.0
H1485 H 0.0198 0.74387 0.00833 0.0
H1486 H 0.75003 0.91991 0.58393 0.0
H1487 H 0.74258 0.92627 0.62151 0.0
H1488 H 0.70756 0.98084 0.60553 0.0
H1489 H 0.71524 0.97491 0.56822 0.0
H1490 H 0.72859 0.98795 0.64384 0.0
H1491 H 0.68261 0.93073 0.6069 0.0
H1492 H 0.67587 0.89596 0.58678 0.0
H1493 H 0.7073 0.86482 0.6378 0.0
H1494 H 0.71444 0.89949 0.6581 0.0
H1495 H 0.64035 0.9968 0.70573 0.0
H1496 H 0.66578 0.99122 0.6784 0.0
H1497 H 0.69231 0.9407 0.71316 0.0
H1498 H 0.66671 0.94615 0.74075 0.0
H1499 H 0.68366 0.92912 0.67092 0.0
H1500 H 0.72148 0.98656 0.71121 0.0
H1501 H 0.72652 0.02161 0.731 0.0
H1502 H 0.70957 0.05278 0.67394 0.0
H1503 H 0.7041 0.01791 0.65386 0.0
C1504 C 0.74116 0.93355 0.5885 0.0
C1505 C 0.73294 0.9467 0.57301 0.0
C1506 C 0.73687 0.93712 0.60997 0.0
C1507 C 0.72417 0.95379 0.61625 0.0
C1508 C 0.71733 0.96784 0.60106 0.0
C1509 C 0.72166 0.96434 0.57967 0.0
C1510 C 0.71597 0.95549 0.63792 0.0
C1511 C 0.71881 0.9751 0.64983 0.0
C1512 C 0.7037 0.9385 0.64601 0.0
C1513 C 0.69929 0.91769 0.63388 0.0
C1514 C 0.6882 0.91648 0.61375 0.0
C1515 C 0.68429 0.89679 0.60233 0.0
C1516 C 0.69122 0.8782 0.61098 0.0
C1517 C 0.70199 0.87925 0.6311 0.0
C1518 C 0.70598 0.8989 0.64257 0.0
C1519 C 0.65164 0.98456 0.70768 0.0
C1520 C 0.65147 0.97188 0.72541 0.0
C1521 C 0.6663 0.9815 0.69211 0.0
C1522 C 0.68113 0.96575 0.69391 0.0
C1523 C 0.68107 0.95305 0.71157 0.0
C1524 C 0.66645 0.95618 0.72729 0.0
C1525 C 0.69565 0.96184 0.67649 0.0
C1526 C 0.69395 0.94181 0.66534 0.0
C1527 C 0.70886 0.97849 0.66908 0.0
C1528 C 0.71229 -0.00043 0.68104 0.0
C1529 C 0.71869 0.00088 0.7029 0.0
C1530 C 0.72164 0.02072 0.71418 0.0
C1531 C 0.71834 0.03941 0.70374 0.0
C1532 C 0.71213 0.03829 0.682 0.0
C1533 C 0.70913 0.01848 0.67065 0.0
H1534 H 0.72063 0.05476 0.7125 0.0
H1535 H 0.68818 0.86298 0.60211 0.0
H1536 H 0.78845 0.01308 0.30698 0.0
H1537 H 0.78404 0.9991 0.34192 0.0
H1538 H 0.82896 0.95146 0.32854 0.0
H1539 H 0.8337 0.96551 0.29332 0.0
H1540 H 0.79088 0.93682 0.35029 0.0
H1541 H 0.84824 0.99037 0.35759 0.0
H1542 H 0.86616 0.02537 0.35217 0.0
H1543 H 0.81806 0.05678 0.38583 0.0
H1544 H 0.79965 0.02197 0.39115 0.0
H1545 H 0.78795 0.91744 0.46122 0.0
H1546 H 0.80396 0.92469 0.42748 0.0
H1547 H 0.77156 0.98329 0.42512 0.0
H1548 H 0.75587 0.97639 0.45876 0.0
H1549 H 0.81082 0.98865 0.4116 0.0
H1550 H 0.75072 0.93632 0.39904 0.0
H1551 H 0.73134 0.90182 0.40368 0.0
H1552 H 0.78361 0.86851 0.37965 0.0
H1553 H 0.80342 0.90283 0.37514 0.0
C1554 C 0.79722 -0.00056 0.31124 0.0
C1555 C 0.81158 0.99055 0.29737 0.0
C1556 C 0.7947 0.99151 0.33127 0.0
C1557 C 0.80641 0.97447 0.33789 0.0
C1558 C 0.81986 0.96469 0.32371 0.0
C1559 C 0.82253 0.97275 0.30362 0.0
C1560 C 0.80525 0.96795 0.36009 0.0
C1561 C 0.79567 0.94792 0.36376 0.0
C1562 C 0.81135 0.98255 0.3776 0.0
C1563 C 0.82249 0.00354 0.37465 0.0
C1564 C 0.8414 0.00474 0.3637 0.0
C1565 C 0.85166 0.02455 0.36066 0.0
C1566 C 0.84324 0.04329 0.36862 0.0
C1567 C 0.82456 0.04225 0.37967 0.0
C1568 C 0.81422 0.02248 0.38273 0.0
C1569 C 0.78462 0.93209 0.45374 0.0
C1570 C 0.77048 0.94625 0.46259 0.0
C1571 C 0.79366 0.93613 0.43438 0.0
C1572 C 0.78867 0.95436 0.4236 0.0
C1573 C 0.7756 0.96909 0.4331 0.0
C1574 C 0.76658 0.96508 0.45234 0.0
C1575 C 0.79578 0.95776 0.40185 0.0
C1576 C 0.80649 0.97729 0.39822 0.0
C1577 C 0.79061 0.94271 0.38442 0.0
C1578 C 0.77865 0.92212 0.38701 0.0
C1579 C 0.75814 0.92163 0.3949 0.0
C1580 C 0.74707 0.90211 0.39748 0.0
C1581 C 0.75627 0.88298 0.39203 0.0
C1582 C 0.77653 0.88334 0.38392 0.0
C1583 C 0.78768 0.90281 0.38134 0.0
H1584 H 0.74768 0.86789 0.39403 0.0
H1585 H 0.8512 0.05861 0.36625 0.0
H1586 H 0.81217 0.09324 0.02106 0.0
H1587 H 0.81624 0.06955 0.0505 0.0
H1588 H 0.75908 0.09229 0.07659 0.0
H1589 H 0.75515 0.11619 0.04761 0.0
H1590 H 0.79054 0.0937 0.10624 0.0
H1591 H 0.76063 0.04181 0.0519 0.0
H1592 H 0.75874 0.0218 0.01691 0.0
H1593 H 0.82022 0.99787 0.03137 0.0
H1594 H 0.8226 0.01798 0.06635 0.0
H1595 H 0.77458 0.02787 0.18783 0.0
H1596 H 0.76777 0.03895 0.15163 0.0
H1597 H 0.82999 0.02023 0.13517 0.0
H1598 H 0.8369 0.00881 0.17141 0.0
H1599 H 0.79777 0.01541 0.10001 0.0
H1600 H 0.82818 0.06804 0.15341 0.0
H1601 H 0.83023 0.08767 0.18861 0.0
H1602 H 0.76803 0.11049 0.17535 0.0
H1603 H 0.76547 0.09067 0.14019 0.0
C1604 C 0.80039 0.09306 0.033 0.0
C1605 C 0.78342 0.10671 0.03207 0.0
C1606 C 0.80267 0.07942 0.04974 0.0
C1607 C 0.78789 0.07906 0.06569 0.0
C1608 C 0.7707 0.09233 0.06449 0.0
C1609 C 0.76849 0.10601 0.04789 0.0
C1610 C 0.79094 0.06602 0.08448 0.0
C1611 C 0.79181 0.07655 0.1048 0.0
C1612 C 0.79333 0.04372 0.08265 0.0
C1613 C 0.79189 0.03158 0.06165 0.0
C1614 C 0.77382 0.03242 0.04755 0.0
C1615 C 0.77265 0.02103 0.02773 0.0
C1616 C 0.78937 0.00862 0.0219 0.0
C1617 C 0.80729 0.00752 0.0359 0.0
C1618 C 0.80855 0.0189 0.05573 0.0
C1619 C 0.78656 0.02544 0.17634 0.0
C1620 C 0.80644 0.01787 0.1826 0.0
C1621 C 0.78263 0.03176 0.15565 0.0
C1622 C 0.79857 0.03083 0.14093 0.0
C1623 C 0.81753 0.02114 0.14636 0.0
C1624 C 0.82145 0.01464 0.1671 0.0
C1625 C 0.79677 0.04312 0.12155 0.0
C1626 C 0.79639 0.03255 0.10127 0.0
C1627 C 0.7949 0.06546 0.1233 0.0
C1628 C 0.79655 0.07771 0.14427 0.0
C1629 C 0.81488 0.07712 0.15806 0.0
C1630 C 0.81614 0.08829 0.178 0.0
C1631 C 0.79925 0.10028 0.18423 0.0
C1632 C 0.78109 0.10117 0.17051 0.0
C1633 C 0.77973 0.08998 0.15058 0.0
H1634 H 0.80025 0.10892 0.19967 0.0
H1635 H 0.78843 -0.00019 0.00655 0.0
H1636 H 0.60897 0.03334 0.84321 0.0
H1637 H 0.63737 0.05052 0.86717 0.0
H1638 H 0.68455 0.02557 0.82675 0.0
H1639 H 0.65609 0.00879 0.80224 0.0
H1640 H 0.66967 0.03914 0.89094 0.0
H1641 H 0.72576 0.06297 0.826 0.0
H1642 H 0.72431 0.06886 0.78745 0.0
H1643 H 0.6593 0.08603 0.79008 0.0
H1644 H 0.66046 0.08044 0.82866 0.0
H1645 H 0.75302 0.10189 0.94842 0.0
H1646 H 0.73664 0.07411 0.92285 0.0
H1647 H 0.70821 0.12239 0.88623 0.0
H1648 H 0.72518 0.1501 0.91106 0.0
H1649 H 0.7186 0.09233 0.86016 0.0
H1650 H 0.68144 0.09525 0.92588 0.0
H1651 H 0.6787 0.0933 0.96473 0.0
H1652 H 0.69882 0.02911 0.96103 0.0
H1653 H 0.7019 0.03079 0.92216 0.0
C1654 C 0.62538 0.03128 0.83949 0.0
C1655 C 0.63026 0.01993 0.82067 0.0
C1656 C 0.64162 0.04105 0.85328 0.0
C1657 C 0.66308 0.03957 0.84861 0.0
C1658 C 0.66808 0.02722 0.83047 0.0
C1659 C 0.6518 0.01761 0.81651 0.0
C1660 C 0.67988 0.05231 0.86201 0.0
C1661 C 0.68056 0.05059 0.88419 0.0
C1662 C 0.69394 0.0674 0.85325 0.0
C1663 C 0.69313 0.07102 0.83012 0.0
C1664 C 0.71119 0.06804 0.81834 0.0
C1665 C 0.71041 0.07132 0.79649 0.0
C1666 C 0.6917 0.07773 0.78631 0.0
C1667 C 0.67375 0.08097 0.79796 0.0
C1668 C 0.67445 0.07773 0.81981 0.0
C1669 C 0.74355 0.10656 0.93471 0.0
C1670 C 0.74018 0.12817 0.93188 0.0
C1671 C 0.73415 0.09067 0.92015 0.0
C1672 C 0.72085 0.09613 0.90284 0.0
C1673 C 0.71841 0.11775 0.89944 0.0
C1674 C 0.72806 0.13361 0.91374 0.0
C1675 C 0.70799 0.0796 0.88916 0.0
C1676 C 0.70811 0.08051 0.8669 0.0
C1677 C 0.69411 0.0643 0.8979 0.0
C1678 C 0.69215 0.06324 0.9212 0.0
C1679 C 0.6854 0.08078 0.93339 0.0
C1680 C 0.68377 0.07971 0.9554 0.0
C1681 C 0.68865 0.06112 0.96536 0.0
C1682 C 0.6951 0.04352 0.9533 0.0
C1683 C 0.69678 0.04451 0.93129 0.0
H1684 H 0.68738 0.06033 0.9824 0.0
H1685 H 0.69113 0.08024 0.76939 0.0
H1686 H 0.58335 0.74656 0.91657 0.0
H1687 H 0.62105 0.7399 0.92358 0.0
H1688 H 0.60463 0.70293 0.97673 0.0
H1689 H 0.5672 0.70976 0.97012 0.0
H1690 H 0.64223 0.72548 0.98528 0.0
H1691 H 0.60798 0.6793 0.92662 0.0
H1692 H 0.58894 0.67256 0.89129 0.0
H1693 H 0.64 0.70608 0.86209 0.0
H1694 H 0.65922 0.71322 0.89733 0.0
H1695 H 0.70736 0.63972 0.99505 0.0
H1696 H 0.67912 0.66412 0.9891 0.0
H1697 H 0.71367 0.69212 0.93919 0.0
H1698 H 0.74209 0.66757 0.94496 0.0
H1699 H 0.67217 0.68235 0.92683 0.0
H1700 H 0.70999 0.72076 0.98544 0.0
H1701 H 0.72886 0.72621 0.02093 0.0
H1702 H 0.67155 0.70692 0.05058 0.0
H1703 H 0.6524 0.70104 0.01525 0.0
C1704 C 0.58783 0.7374 0.93002 0.0
C1705 C 0.57223 0.72841 0.94259 0.0
C1706 C 0.60937 0.73356 0.93396 0.0
C1707 C 0.61558 0.72063 0.95046 0.0
C1708 C 0.60021 0.71292 0.96389 0.0
C1709 C 0.57876 0.71674 0.96 0.0
C1710 C 0.63749 0.71315 0.95262 0.0
C1711 C 0.64885 0.71609 0.97252 0.0
C1712 C 0.64637 0.70142 0.93575 0.0
C1713 C 0.63489 0.69702 0.9146 0.0
C1714 C 0.61507 0.68535 0.91268 0.0
C1715 C 0.60426 0.68144 0.89268 0.0
C1716 C 0.61322 0.68895 0.87447 0.0
C1717 C 0.63305 0.70032 0.87622 0.0
C1718 C 0.64391 0.7043 0.89619 0.0
C1719 C 0.70905 0.65112 0.98287 0.0
C1720 C 0.72696 0.65167 0.97045 0.0
C1721 C 0.69296 0.66519 0.97961 0.0
C1722 C 0.69445 0.68014 0.96392 0.0
C1723 C 0.7123 0.68079 0.95148 0.0
C1724 C 0.7285 0.66675 0.9548 0.0
C1725 C 0.67658 0.69402 0.95975 0.0
C1726 C 0.66595 0.69225 0.93946 0.0
C1727 C 0.66836 0.70676 0.9763 0.0
C1728 C 0.67977 0.71036 0.99764 0.0
C1729 C 0.70143 0.71754 -0.00049 0.0
C1730 C 0.71218 0.72073 0.01961 0.0
C1731 C 0.70142 0.71689 0.03799 0.0
C1732 C 0.67987 0.70989 0.03632 0.0
C1733 C 0.66905 0.70666 0.01626 0.0
H1734 H 0.70977 0.71936 0.05354 0.0
H1735 H 0.60483 0.68591 0.859 0.0
H1736 H 0.09305 0.03603 0.7318 0.0
H1737 H 0.07038 0.06527 0.74056 0.0
H1738 H 0.08522 0.05905 0.80764 0.0
H1739 H 0.10803 0.02984 0.79907 0.0
H1740 H 0.04112 0.06768 0.79672 0.0
H1741 H 0.11366 0.09387 0.78511 0.0
H1742 H 0.14554 0.09692 0.76407 0.0
H1743 H 0.10844 0.12246 0.71311 0.0
H1744 H 0.07625 0.11926 0.73375 0.0
H1745 H 0.02891 0.17097 0.84495 0.0
H1746 H 0.03667 0.135 0.83207 0.0
H1747 H 0.03509 0.15502 0.76741 0.0
H1748 H 0.02862 0.19126 0.78047 0.0
H1749 H 0.0694 0.13766 0.77428 0.0
H1750 H 0.99759 0.11617 0.78669 0.0
H1751 H 0.96496 0.11269 0.80653 0.0
H1752 H 0.99816 0.07821 0.85384 0.0
H1753 H 0.0311 0.08173 0.83445 0.0
C1754 C 0.09126 0.04066 0.74843 0.0
C1755 C 0.10255 0.0308 0.76474 0.0
C1756 C 0.07827 0.05733 0.75339 0.0
C1757 C 0.07625 0.06434 0.77473 0.0
C1758 C 0.08654 0.05379 0.79108 0.0
C1759 C 0.09968 0.03723 0.78614 0.0
C1760 C 0.06537 0.08407 0.77991 0.0
C1761 C 0.04724 0.08306 0.79194 0.0
C1762 C 0.07313 0.10395 0.77315 0.0
C1763 C 0.09252 0.1061 0.76086 0.0
C1764 C 0.11227 0.09998 0.76935 0.0
C1765 C 0.1304 0.10176 0.75751 0.0
C1766 C 0.12901 0.10982 0.73724 0.0
C1767 C 0.10949 0.11618 0.7288 0.0
C1768 C 0.09131 0.1144 0.74056 0.0
C1769 C 0.02967 0.1675 0.82794 0.0
C1770 C 0.02834 0.18386 0.8137 0.0
C1771 C 0.03401 0.14689 0.82054 0.0
C1772 C 0.03645 0.14218 0.7987 0.0
C1773 C 0.03347 0.15824 0.78433 0.0
C1774 C 0.02969 0.17892 0.79178 0.0
C1775 C 0.04484 0.12157 0.7912 0.0
C1776 C 0.06278 0.12237 0.77881 0.0
C1777 C 0.03667 0.10154 0.79745 0.0
C1778 C 0.01688 0.09936 0.80918 0.0
C1779 C 0.99799 0.10798 0.80141 0.0
C1780 C 0.97942 0.10598 0.81256 0.0
C1781 C 0.9795 0.09528 0.83145 0.0
C1782 C 0.99813 0.08651 0.83921 0.0
C1783 C 0.01675 0.08848 0.82812 0.0
H1784 H 0.9651 0.09374 0.84006 0.0
H1785 H 0.14306 0.11118 0.7281 0.0
H1786 H 0.95835 0.28355 0.41757 0.0
H1787 H 0.92468 0.29977 0.42463 0.0
H1788 H 0.90679 0.24732 0.4626 0.0
H1789 H 0.94015 0.23105 0.45569 0.0
H1790 H 0.87539 0.25519 0.43236 0.0
H1791 H 0.9225 0.29527 0.48596 0.0
H1792 H 0.95378 0.31906 0.49837 0.0
H1793 H 0.93096 0.36797 0.45946 0.0
H1794 H 0.89966 0.34434 0.4466 0.0
H1795 H 0.79568 0.284 0.49941 0.0
H1796 H 0.82744 0.2738 0.48187 0.0
H1797 H 0.82966 0.33304 0.45038 0.0
H1798 H 0.7977 0.34351 0.46808 0.0
H1799 H 0.86809 0.32553 0.4702 0.0
H1800 H 0.81815 0.28752 0.42092 0.0
H1801 H 0.78663 0.26399 0.40874 0.0
H1802 H 0.81439 0.21152 0.43864 0.0
H1803 H 0.84596 0.23479 0.45128 0.0
C1804 C 0.94737 0.27563 0.42767 0.0
C1805 C 0.95192 0.25594 0.43599 0.0
C1806 C 0.92814 0.28491 0.43166 0.0
C1807 C 0.91321 0.27466 0.44403 0.0
C1808 C 0.91803 0.25539 0.45287 0.0
C1809 C 0.93719 0.24617 0.44897 0.0
C1810 C 0.89216 0.28339 0.44734 0.0
C1811 C 0.87376 0.27053 0.44071 0.0
C1812 C 0.89008 0.30378 0.45742 0.0
C1813 C 0.9089 0.31794 0.46511 0.0
C1814 C 0.92426 0.31102 0.47989 0.0
C1815 C 0.94196 0.32449 0.48704 0.0
C1816 C 0.94439 0.34498 0.47965 0.0
C1817 C 0.92908 0.35207 0.46513 0.0
C1818 C 0.91136 0.33865 0.45792 0.0
C1819 C 0.80267 0.29475 0.48849 0.0
C1820 C 0.79419 0.31459 0.48518 0.0
C1821 C 0.8208 0.28884 0.47839 0.0
C1822 C 0.83085 0.30261 0.46473 0.0
C1823 C 0.8221 0.32218 0.46084 0.0
C1824 C 0.80379 0.32806 0.47086 0.0
C1825 C 0.85132 0.29696 0.45593 0.0
C1826 C 0.86964 0.31038 0.46144 0.0
C1827 C 0.85335 0.27709 0.44474 0.0
C1828 C 0.8344 0.26296 0.43715 0.0
C1829 C 0.81748 0.271 0.42504 0.0
C1830 C 0.79961 0.2577 0.41803 0.0
C1831 C 0.7985 0.23628 0.42294 0.0
C1832 C 0.81528 0.22811 0.43484 0.0
C1833 C 0.83318 0.24135 0.44191 0.0
H1834 H 0.78464 0.22601 0.4175 0.0
H1835 H 0.95811 0.35539 0.48521 0.0
H1836 H 0.52522 0.9445 0.77418 0.0
H1837 H 0.51319 0.90888 0.78381 0.0
H1838 H 0.57813 0.88985 0.78493 0.0
H1839 H 0.59008 0.92527 0.77421 0.0
H1840 H 0.55123 0.85622 0.77344 0.0
H1841 H 0.55735 0.91089 0.83012 0.0
H1842 H 0.55081 0.94567 0.84793 0.0
H1843 H 0.48356 0.92867 0.84527 0.0
H1844 H 0.48968 0.89389 0.82715 0.0
H1845 H 0.54531 0.78531 0.8591 0.0
H1846 H 0.55365 0.81375 0.83531 0.0
H1847 H 0.48682 0.82554 0.82759 0.0
H1848 H 0.47829 0.79703 0.85122 0.0
H1849 H 0.51346 0.86165 0.84063 0.0
H1850 H 0.50965 0.80415 0.78672 0.0
H1851 H 0.51856 0.76932 0.77072 0.0
H1852 H 0.58447 0.79133 0.77084 0.0
H1853 H 0.57601 0.82621 0.78715 0.0
C1854 C 0.53682 0.93249 0.77585 0.0
C1855 C 0.55859 0.93763 0.77374 0.0
C1856 C 0.52996 0.9122 0.78144 0.0
C1857 C 0.54485 0.89694 0.78576 0.0
C1858 C 0.56638 0.90143 0.78183 0.0
C1859 C 0.5732 0.92165 0.77571 0.0
C1860 C 0.53836 0.87756 0.79679 0.0
C1861 C 0.54309 0.85739 0.7882 0.0
C1862 C 0.52766 0.87907 0.81603 0.0
C1863 C 0.52395 0.89989 0.82708 0.0
C1864 C 0.54115 0.91463 0.83321 0.0
C1865 C 0.53753 0.93433 0.84337 0.0
C1866 C 0.51678 0.9394 0.84768 0.0
C1867 C 0.49962 0.92474 0.84189 0.0
C1868 C 0.50315 0.90503 0.83168 0.0
C1869 C 0.53236 0.79381 0.85217 0.0
C1870 C 0.51115 0.78903 0.85714 0.0
C1871 C 0.53715 0.80994 0.83847 0.0
C1872 C 0.52083 0.82162 0.82963 0.0
C1873 C 0.49961 0.81661 0.83421 0.0
C1874 C 0.49478 0.80033 0.84772 0.0
C1875 C 0.52609 0.84031 0.8172 0.0
C1876 C 0.52132 0.86043 0.82571 0.0
C1877 C 0.53709 0.8387 0.79819 0.0
C1878 C 0.54221 0.81775 0.78834 0.0
C1879 C 0.52607 0.80151 0.78352 0.0
C1880 C 0.53104 0.78176 0.77435 0.0
C1881 C 0.55207 0.77809 0.76981 0.0
C1882 C 0.56818 0.79419 0.77439 0.0
C1883 C 0.56331 0.81396 0.78357 0.0
H1884 H 0.55588 0.7628 0.76271 0.0
H1885 H 0.514 0.95466 0.85555 0.0
H1886 H 0.9785 0.21171 0.34139 0.0
H1887 H 0.96076 0.18979 0.31139 0.0
H1888 H 0.97367 0.13284 0.34381 0.0
H1889 H 0.991 0.15458 0.37404 0.0
H1890 H 0.97697 0.13072 0.29601 0.0
H1891 H 0.93024 0.15057 0.35346 0.0
H1892 H 0.91459 0.17739 0.37709 0.0
H1893 H 0.89007 0.20833 0.32246 0.0
H1894 H 0.90588 0.18184 0.29852 0.0
H1895 H 0.89911 0.04775 0.27161 0.0
H1896 H 0.92603 0.07539 0.28487 0.0
H1897 H 0.88673 0.12362 0.26009 0.0
H1898 H 0.85915 0.09595 0.24791 0.0
H1899 H 0.89852 0.13534 0.29756 0.0
H1900 H 0.93731 0.11105 0.23966 0.0
H1901 H 0.9532 0.08546 0.21494 0.0
H1902 H 0.99305 0.06481 0.26659 0.0
H1903 H 0.9772 0.09005 0.2917 0.0
C1904 C 0.97801 0.1945 0.34189 0.0
C1905 C 0.98584 0.18482 0.36014 0.0
C1906 C 0.96794 0.18204 0.32474 0.0
C1907 C 0.96592 0.15978 0.32551 0.0
C1908 C 0.97521 0.15001 0.34295 0.0
C1909 C 0.98493 0.16245 0.36025 0.0
C1910 C 0.95143 0.14686 0.30998 0.0
C1911 C 0.9598 0.13163 0.29618 0.0
C1912 C 0.92914 0.1487 0.30986 0.0
C1913 C 0.91945 0.16443 0.32424 0.0
C1914 C 0.92167 0.16321 0.34651 0.0
C1915 C 0.91275 0.17832 0.35995 0.0
C1916 C 0.9014 0.1946 0.35129 0.0
C1917 C 0.8989 0.19574 0.32915 0.0
C1918 C 0.90784 0.18069 0.31564 0.0
C1919 C 0.89637 0.06423 0.26871 0.0
C1920 C 0.87702 0.06976 0.25889 0.0
C1921 C 0.91188 0.08004 0.27611 0.0
C1922 C 0.90863 0.10166 0.27322 0.0
C1923 C 0.88964 0.10709 0.26253 0.0
C1924 C 0.87388 0.09129 0.2556 0.0
C1925 C 0.92386 0.11855 0.28354 0.0
C1926 C 0.91565 0.13459 0.29663 0.0
C1927 C 0.94629 0.11762 0.28264 0.0
C1928 C 0.95596 0.10241 0.2676 0.0
C1929 C 0.94936 0.10096 0.24579 0.0
C1930 C 0.95838 0.08653 0.23169 0.0
C1931 C 0.9741 0.0735 0.23919 0.0
C1932 C 0.98087 0.07491 0.2608 0.0
C1933 C 0.9719 0.08932 0.27497 0.0
H1934 H 0.98106 0.06233 0.22825 0.0
H1935 H 0.89451 0.20628 0.36172 0.0
H1936 H 0.5899 0.04866 0.72026 0.0
H1937 H 0.58102 0.08115 0.70263 0.0
H1938 H 0.52225 0.0823 0.73486 0.0
H1939 H 0.5309 0.05003 0.75239 0.0
H1940 H 0.51702 0.09281 0.69316 0.0
H1941 H 0.56613 0.11106 0.75526 0.0
H1942 H 0.60033 0.10914 0.7761 0.0
H1943 H 0.6342 0.13298 0.72407 0.0
H1944 H 0.60017 0.13476 0.70282 0.0
H1945 H 0.48367 0.19507 0.70979 0.0
H1946 H 0.49889 0.16085 0.71491 0.0
H1947 H 0.55107 0.17857 0.67653 0.0
H1948 H 0.5359 0.21315 0.67126 0.0
H1949 H 0.56384 0.15784 0.71334 0.0
H1950 H 0.51384 0.14582 0.65386 0.0
H1951 H 0.47954 0.14789 0.63329 0.0
H1952 H 0.44747 0.11225 0.67959 0.0
H1953 H 0.48153 0.11024 0.70064 0.0
C1954 C 0.57491 0.05563 0.72327 0.0
C1955 C 0.56117 0.04689 0.73786 0.0
C1956 C 0.56992 0.07423 0.71327 0.0
C1957 C 0.55109 0.08423 0.71764 0.0
C1958 C 0.53687 0.07484 0.73128 0.0
C1959 C 0.54189 0.05643 0.74136 0.0
C1960 C 0.54657 0.1052 0.70935 0.0
C1961 C 0.52725 0.10703 0.69752 0.0
C1962 C 0.56027 0.12363 0.71451 0.0
C1963 C 0.58066 0.12278 0.72737 0.0
C1964 C 0.58089 0.11574 0.74822 0.0
C1965 C 0.60023 0.1147 0.76011 0.0
C1966 C 0.61943 0.12087 0.75139 0.0
C1967 C 0.61932 0.12816 0.73079 0.0
C1968 C 0.60001 0.12919 0.71881 0.0
C1969 C 0.49848 0.19186 0.70254 0.0
C1970 C 0.50847 0.20683 0.68996 0.0
C1971 C 0.50711 0.17222 0.70542 0.0
C1972 C 0.52587 0.16705 0.69576 0.0
C1973 C 0.53648 0.18224 0.68397 0.0
C1974 C 0.52778 0.20197 0.681 0.0
C1975 C 0.5339 0.14552 0.69784 0.0
C1976 C 0.55385 0.14358 0.70848 0.0
C1977 C 0.5208 0.12694 0.69155 0.0
C1978 C 0.50025 0.12798 0.6789 0.0
C1979 C 0.49945 0.13855 0.65975 0.0
C1980 C 0.48005 0.13969 0.64799 0.0
C1981 C 0.46133 0.13023 0.65514 0.0
C1982 C 0.46199 0.11957 0.67407 0.0
C1983 C 0.48134 0.11839 0.6859 0.0
H1984 H 0.44633 0.13114 0.64602 0.0
H1985 H 0.6344 0.12004 0.76062 0.0
H1986 H 0.20663 0.3527 0.00521 0.0
H1987 H 0.18081 0.32456 0.9901 0.0
H1988 H 0.14978 0.37039 0.95228 0.0
H1989 H 0.17494 0.39863 0.96787 0.0
H1990 H 0.12101 0.34407 0.96563 0.0
H1991 H 0.18854 0.33703 0.93255 0.0
H1992 H 0.2272 0.33201 0.93283 0.0
H1993 H 0.21762 0.27201 0.96139 0.0
H1994 H 0.17891 0.27681 0.96149 0.0
H1995 H 0.10321 0.27286 0.86419 0.0
H1996 H 0.12792 0.29099 0.89138 0.0
H1997 H 0.08493 0.27507 0.94003 0.0
H1998 H 0.05972 0.2573 0.91275 0.0
H1999 H 0.15003 0.28241 0.92653 0.0
H2000 H 0.08501 0.31814 0.97555 0.0
H2001 H 0.04698 0.32594 0.97148 0.0
H2002 H 0.05273 0.33314 0.90447 0.0
H2003 H 0.09082 0.32564 0.90822 0.0
C2004 C 0.19414 0.3568 0.99386 0.0
C2005 C 0.19292 0.37784 0.98758 0.0
C2006 C 0.17944 0.34069 0.9852 0.0
C2007 C 0.16358 0.34529 0.96979 0.0
C2008 C 0.16187 0.36645 0.96416 0.0
C2009 C 0.17632 0.38258 0.97304 0.0
C2010 C 0.14945 0.3281 0.95849 0.0
C2011 C 0.12735 0.33045 0.9573 0.0
C2012 C 0.15769 0.31037 0.9475 0.0
C2013 C 0.1809 0.30739 0.94726 0.0
C2014 C 0.19471 0.32283 0.939 0.0
C2015 C 0.21662 0.32002 0.93908 0.0
C2016 C 0.22487 0.30174 0.94719 0.0
C2017 C 0.21121 0.28618 0.95516 0.0
C2018 C 0.18929 0.28893 0.95514 0.0
C2019 C 0.09909 0.27292 0.8807 0.0
C2020 C 0.07932 0.26395 0.88625 0.0
C2021 C 0.11332 0.2832 0.89626 0.0
C2022 C 0.10812 0.28466 0.91769 0.0
C2023 C 0.08909 0.27441 0.92353 0.0
C2024 C 0.07472 0.26424 0.90791 0.0
C2025 C 0.12171 0.29872 0.93326 0.0
C2026 C 0.14366 0.29573 0.93532 0.0
C2027 C 0.11344 0.31624 0.94453 0.0
C2028 C 0.09065 0.32106 0.94214 0.0
C2029 C 0.07814 0.32144 0.95998 0.0
C2030 C 0.05659 0.3258 0.95772 0.0
C2031 C 0.04743 0.32994 0.93772 0.0
C2032 C 0.05982 0.32984 0.91994 0.0
C2033 C 0.08138 0.32553 0.92212 0.0
H2034 H 0.03073 0.33329 0.936 0.0
H2035 H 0.24184 0.29959 0.94725 0.0
H2036 H 0.45733 0.77566 0.40303 0.0
H2037 H 0.4313 0.76461 0.42818 0.0
H2038 H 0.4544 0.70119 0.42553 0.0
H2039 H 0.47993 0.71198 0.39964 0.0
H2040 H 0.41394 0.69804 0.42098 0.0
H2041 H 0.46205 0.73664 0.47159 0.0
H2042 H 0.48594 0.7667 0.48697 0.0
H2043 H 0.43295 0.80682 0.48919 0.0
H2044 H 0.40878 0.77711 0.47352 0.0
H2045 H 0.33451 0.66933 0.4903 0.0
H2046 H 0.37173 0.6784 0.48305 0.0
H2047 H 0.35471 0.74079 0.46534 0.0
H2048 H 0.31759 0.73185 0.4724 0.0
H2049 H 0.39645 0.7404 0.48601 0.0
H2050 H 0.35138 0.70276 0.42805 0.0
H2051 H 0.32775 0.67234 0.41297 0.0
H2052 H 0.37705 0.6295 0.42613 0.0
H2053 H 0.40086 0.65969 0.44158 0.0
C2054 C 0.45704 0.75943 0.40798 0.0
C2055 C 0.47059 0.74466 0.39926 0.0
C2056 C 0.44225 0.75316 0.42254 0.0
C2057 C 0.44104 0.73212 0.42905 0.0
C2058 C 0.45502 0.71751 0.4208 0.0
C2059 C 0.46959 0.72369 0.40598 0.0
C2060 C 0.42386 0.72493 0.44281 0.0
C2061 C 0.41055 0.70702 0.43553 0.0
C2062 C 0.41916 0.7367 0.4617 0.0
C2063 C 0.43361 0.75465 0.47125 0.0
C2064 C 0.4555 0.75191 0.47522 0.0
C2065 C 0.4691 0.76889 0.48401 0.0
C2066 C 0.46097 0.78866 0.48903 0.0
C2067 C 0.43923 0.79149 0.4853 0.0
C2068 C 0.42556 0.77458 0.47649 0.0
C2069 C 0.33883 0.68521 0.48553 0.0
C2070 C 0.3231 0.69978 0.48158 0.0
C2071 C 0.36008 0.69035 0.48137 0.0
C2072 C 0.36586 0.71016 0.47342 0.0
C2073 C 0.35056 0.72543 0.47147 0.0
C2074 C 0.32933 0.72024 0.47538 0.0
C2075 C 0.38664 0.7139 0.46387 0.0
C2076 C 0.40042 0.73117 0.47184 0.0
C2077 C 0.39198 0.70146 0.44572 0.0
C2078 C 0.37778 0.6834 0.43618 0.0
C2079 C 0.35711 0.68683 0.42785 0.0
C2080 C 0.3437 0.66964 0.41923 0.0
C2081 C 0.35087 0.64899 0.41865 0.0
C2082 C 0.3715 0.6455 0.42663 0.0
C2083 C 0.38496 0.66263 0.43532 0.0
H2084 H 0.34046 0.6357 0.41197 0.0
H2085 H 0.47153 0.80179 0.49583 0.0
H2086 H 0.86644 0.50627 0.80457 0.0
H2087 H 0.84031 0.51236 0.8311 0.0
H2088 H 0.81326 0.56066 0.79357 0.0
H2089 H 0.83959 0.55473 0.76682 0.0
H2090 H 0.82124 0.57443 0.83494 0.0
H2091 H 0.78458 0.51432 0.79802 0.0
H2092 H 0.78006 0.47826 0.78028 0.0
H2093 H 0.79789 0.45086 0.83925 0.0
H2094 H 0.80284 0.48677 0.8573 0.0
H2095 H 0.75789 0.58746 0.92348 0.0
H2096 H 0.76319 0.57879 0.88573 0.0
H2097 H 0.80022 0.52602 0.90314 0.0
H2098 H 0.79467 0.53422 0.94062 0.0
H2099 H 0.77799 0.51661 0.86575 0.0
H2100 H 0.82377 0.57637 0.89878 0.0
H2101 H 0.82998 0.61213 0.91705 0.0
H2102 H 0.79595 0.63963 0.86523 0.0
H2103 H 0.78933 0.60396 0.84679 0.0
C2104 C 0.85486 0.51809 0.80182 0.0
C2105 C 0.85515 0.53008 0.78361 0.0
C2106 C 0.83979 0.52142 0.81693 0.0
C2107 C 0.82464 0.53675 0.81416 0.0
C2108 C 0.82473 0.54864 0.79592 0.0
C2109 C 0.83978 0.54524 0.78068 0.0
C2110 C 0.80999 0.54136 0.8313 0.0
C2111 C 0.81128 0.56193 0.8413 0.0
C2112 C 0.79719 0.52499 0.83974 0.0
C2113 C 0.79416 0.50329 0.829 0.0
C2114 C 0.78767 0.50063 0.80719 0.0
C2115 C 0.78501 0.4802 0.79707 0.0
C2116 C 0.7887 0.46228 0.80862 0.0
C2117 C 0.79503 0.46475 0.83032 0.0
C2118 C 0.79772 0.48514 0.84052 0.0
C2119 C 0.76666 0.57365 0.91921 0.0
C2120 C 0.7762 0.56176 0.93508 0.0
C2121 C 0.76973 0.56878 0.89764 0.0
C2122 C 0.78247 0.55203 0.89167 0.0
C2123 C 0.79041 0.53906 0.90736 0.0
C2124 C 0.78732 0.54387 0.92884 0.0
C2125 C 0.78995 0.54943 0.86977 0.0
C2126 C 0.78736 0.52925 0.85892 0.0
C2127 C 0.80169 0.5661 0.86058 0.0
C2128 C 0.80583 0.58752 0.87156 0.0
C2129 C 0.81751 0.59004 0.89136 0.0
C2130 C 0.82111 0.61028 0.90174 0.0
C2131 C 0.8133 0.62813 0.89234 0.0
C2132 C 0.80194 0.62578 0.87251 0.0
C2133 C 0.79826 0.60557 0.8621 0.0
H2134 H 0.8161 0.64379 0.90039 0.0
H2135 H 0.78664 0.44648 0.80076 0.0
H2136 H 0.67104 0.53478 0.20655 0.0
H2137 H 0.68163 0.55098 0.17387 0.0
H2138 H 0.73748 0.51414 0.17382 0.0
H2139 H 0.72714 0.49801 0.20638 0.0
H2140 H 0.74629 0.55521 0.1633 0.0
H2141 H 0.6932 0.49732 0.14368 0.0
H2142 H 0.65781 0.47846 0.14454 0.0
H2143 H 0.6279 0.53306 0.12124 0.0
H2144 H 0.66313 0.55234 0.12051 0.0
H2145 H 0.778 0.54558 0.05891 0.0
H2146 H 0.76359 0.53791 0.09303 0.0
H2147 H 0.71171 0.57826 0.08009 0.0
H2148 H 0.72598 0.58599 0.04566 0.0
H2149 H 0.6984 0.54106 0.09795 0.0
H2150 H 0.75172 0.59736 0.11326 0.0
H2151 H 0.78704 0.61625 0.11212 0.0
H2152 H 0.81636 0.56554 0.14362 0.0
H2153 H 0.78124 0.54618 0.14467 0.0
C2154 C 0.68574 0.53037 0.19975 0.0
C2155 C 0.69817 0.51499 0.20898 0.0
C2156 C 0.6917 0.53956 0.18103 0.0
C2157 C 0.7102 0.53355 0.17131 0.0
C2158 C 0.72312 0.51896 0.18105 0.0
C2159 C 0.71714 0.50971 0.19963 0.0
C2160 C 0.71578 0.54153 0.15046 0.0
C2161 C 0.73587 0.55205 0.14899 0.0
C2162 C 0.7019 0.53797 0.13192 0.0
C2163 C 0.68075 0.52636 0.13229 0.0
C2164 C 0.67906 0.50536 0.13891 0.0
C2165 C 0.65904 0.49459 0.13934 0.0
C2166 C 0.64061 0.50458 0.13302 0.0
C2167 C 0.64218 0.52535 0.12618 0.0
C2168 C 0.66217 0.53621 0.12575 0.0
C2169 C 0.76342 0.55271 0.06317 0.0
C2170 C 0.75323 0.56653 0.04959 0.0
C2171 C 0.75527 0.54839 0.08276 0.0
C2172 C 0.73682 0.55784 0.08926 0.0
C2173 C 0.72606 0.57093 0.07541 0.0
C2174 C 0.73424 0.57531 0.05575 0.0
C2175 C 0.72916 0.55421 0.11071 0.0
C2176 C 0.7087 0.54454 0.1123 0.0
C2177 C 0.74267 0.55862 0.1294 0.0
C2178 C 0.76384 0.57024 0.1289 0.0
C2179 C 0.76571 0.59016 0.11981 0.0
C2180 C 0.7857 0.60096 0.1192 0.0
C2181 C 0.80394 0.59208 0.12776 0.0
C2182 C 0.80222 0.57239 0.13698 0.0
C2183 C 0.78227 0.56151 0.13761 0.0
H2184 H 0.8194 0.60047 0.12727 0.0
H2185 H 0.62512 0.49621 0.13336 0.0
H2186 H 0.6995 0.42586 0.49117 0.0
H2187 H 0.69338 0.45096 0.46329 0.0
H2188 H 0.74137 0.42227 0.42657 0.0
H2189 H 0.74768 0.39734 0.45425 0.0
H2190 H 0.74413 0.46602 0.4261 0.0
H2191 H 0.68899 0.40771 0.41639 0.0
H2192 H 0.65874 0.38546 0.42808 0.0
H2193 H 0.62319 0.4412 0.43777 0.0
H2194 H 0.65337 0.46381 0.42637 0.0
H2195 H 0.72309 0.46794 0.31665 0.0
H2196 H 0.73004 0.46277 0.35436 0.0
H2197 H 0.67503 0.49763 0.3693 0.0
H2198 H 0.66769 0.50259 0.33123 0.0
H2199 H 0.67337 0.46024 0.38647 0.0
H2200 H 0.72558 0.51717 0.38739 0.0
H2201 H 0.75561 0.53918 0.37502 0.0
H2202 H 0.79662 0.48733 0.38181 0.0
H2203 H 0.76678 0.46487 0.39392 0.0
C2204 C 0.70886 0.42502 0.47722 0.0
C2205 C 0.72395 0.40948 0.47484 0.0
C2206 C 0.70534 0.43936 0.46133 0.0
C2207 C 0.71685 0.43839 0.44282 0.0
C2208 C 0.73237 0.42335 0.44076 0.0
C2209 C 0.73584 0.409 0.45655 0.0
C2210 C 0.71204 0.45197 0.42485 0.0
C2211 C 0.72867 0.46484 0.4174 0.0
C2212 C 0.69163 0.45106 0.41405 0.0
C2213 C 0.6735 0.43746 0.42081 0.0
C2214 C 0.67478 0.41522 0.42118 0.0
C2215 C 0.65764 0.40255 0.42772 0.0
C2216 C 0.63908 0.41192 0.43374 0.0
C2217 C 0.63759 0.43398 0.43316 0.0
C2218 C 0.6547 0.44672 0.42666 0.0
C2219 C 0.71267 0.47491 0.32794 0.0
C2220 C 0.69472 0.48551 0.3209 0.0
C2221 C 0.71678 0.47209 0.34958 0.0
C2222 C 0.70316 0.47995 0.36473 0.0
C2223 C 0.6858 0.49149 0.35789 0.0
C2224 C 0.68167 0.49436 0.33614 0.0
C2225 C 0.70575 0.47365 0.38709 0.0
C2226 C 0.68869 0.46209 0.39543 0.0
C2227 C 0.72577 0.47584 0.39872 0.0
C2228 C 0.74387 0.48929 0.39152 0.0
C2229 C 0.74097 0.5104 0.38613 0.0
C2230 C 0.75797 0.52297 0.37918 0.0
C2231 C 0.77801 0.51466 0.37762 0.0
C2232 C 0.78109 0.49376 0.38304 0.0
C2233 C 0.76414 0.48111 0.39 0.0
H2234 H 0.79115 0.52442 0.37222 0.0
H2235 H 0.62583 0.40208 0.4388 0.0
H2236 H 0.90517 0.48434 0.66381 0.0
H2237 H 0.87952 0.46802 0.6363 0.0
H2238 H 0.8305 0.46713 0.68169 0.0
H2239 H 0.85596 0.4839 0.70923 0.0
H2240 H 0.86112 0.42977 0.63668 0.0
H2241 H 0.78142 0.46748 0.65513 0.0
H2242 H 0.76895 0.50207 0.66822 0.0
H2243 H 0.82448 0.53452 0.64566 0.0
H2244 H 0.83713 0.50017 0.63218 0.0
H2245 H 0.77668 0.36149 0.59459 0.0
H2246 H 0.79661 0.38709 0.61984 0.0
H2247 H 0.79188 0.43577 0.5744 0.0
H2248 H 0.77165 0.4103 0.549 0.0
H2249 H 0.78842 0.45163 0.6165 0.0
H2250 H 0.8351 0.40959 0.57586 0.0
H2251 H 0.84839 0.37616 0.56075 0.0
H2252 H 0.86129 0.35546 0.62389 0.0
H2253 H 0.84777 0.38866 0.63937 0.0
C2254 C 0.88886 0.48095 0.66789 0.0
C2255 C 0.88264 0.48524 0.68875 0.0
C2256 C 0.87422 0.47163 0.65214 0.0
C2257 C 0.85311 0.46639 0.65693 0.0
C2258 C 0.84664 0.47132 0.67755 0.0
C2259 C 0.86125 0.48079 0.69331 0.0
C2260 C 0.83851 0.45399 0.64093 0.0
C2261 C 0.84527 0.43465 0.63223 0.0
C2262 C 0.81789 0.46042 0.63498 0.0
C2263 C 0.81031 0.4812 0.64282 0.0
C2264 C 0.79092 0.482 0.65289 0.0
C2265 C 0.78384 0.50157 0.66039 0.0
C2266 C 0.79595 0.52047 0.65784 0.0
C2267 C 0.81515 0.51985 0.64771 0.0
C2268 C 0.82231 0.50033 0.64016 0.0
C2269 C 0.77958 0.37771 0.59003 0.0
C2270 C 0.77288 0.38377 0.56965 0.0
C2271 C 0.79095 0.39231 0.6045 0.0
C2272 C 0.79597 0.41317 0.59881 0.0
C2273 C 0.78818 0.4197 0.57903 0.0
C2274 C 0.77672 0.4051 0.56452 0.0
C2275 C 0.81101 0.4274 0.61268 0.0
C2276 C 0.80432 0.44694 0.62097 0.0
C2277 C 0.8319 0.4214 0.61802 0.0
C2278 C 0.84026 0.40153 0.60876 0.0
C2279 C 0.84064 0.39785 0.58652 0.0
C2280 C 0.84823 0.37895 0.57789 0.0
C2281 C 0.85564 0.36368 0.59135 0.0
C2282 C 0.85553 0.3673 0.61348 0.0
C2283 C 0.84792 0.38616 0.62219 0.0
H2284 H 0.86151 0.34906 0.58464 0.0
H2285 H 0.79044 0.5356 0.66367 0.0
H2286 H 0.46696 0.06792 0.22532 0.0
H2287 H 0.47408 0.10516 0.21817 0.0
H2288 H 0.41512 0.1211 0.24544 0.0
H2289 H 0.40768 0.08353 0.25244 0.0
H2290 H 0.41721 0.13503 0.20648 0.0
H2291 H 0.4631 0.14157 0.26887 0.0
H2292 H 0.49105 0.13179 0.295 0.0
H2293 H 0.53766 0.13656 0.24784 0.0
H2294 H 0.50995 0.14606 0.22131 0.0
H2295 H 0.44312 0.239 0.17095 0.0
H2296 H 0.43546 0.21136 0.19588 0.0
H2297 H 0.48826 0.17684 0.17398 0.0
H2298 H 0.4961 0.20434 0.14917 0.0
H2299 H 0.48625 0.17749 0.21775 0.0
H2300 H 0.43832 0.16314 0.15438 0.0
H2301 H 0.41026 0.1722 0.12797 0.0
H2302 H 0.36734 0.18192 0.17795 0.0
H2303 H 0.39528 0.17317 0.2047 0.0
C2304 C 0.4557 0.07938 0.23026 0.0
C2305 C 0.43665 0.07272 0.23927 0.0
C2306 C 0.45988 0.10075 0.22629 0.0
C2307 C 0.44519 0.11599 0.23136 0.0
C2308 C 0.42669 0.10961 0.24145 0.0
C2309 C 0.42251 0.08816 0.24551 0.0
C2310 C 0.44805 0.13775 0.22355 0.0
C2311 C 0.43208 0.14463 0.20946 0.0
C2312 C 0.46757 0.15012 0.22715 0.0
C2313 C 0.48438 0.14446 0.24305 0.0
C2314 C 0.47928 0.1404 0.26401 0.0
C2315 C 0.49509 0.13492 0.27891 0.0
C2316 C 0.51611 0.13354 0.27308 0.0
C2317 C 0.52137 0.13765 0.25234 0.0
C2318 C 0.50562 0.14313 0.23738 0.0
C2319 C 0.45319 0.22559 0.17155 0.0
C2320 C 0.47012 0.22377 0.15796 0.0
C2321 C 0.44878 0.20983 0.18579 0.0
C2322 C 0.46123 0.19201 0.18668 0.0
C2323 C 0.4785 0.1905 0.17359 0.0
C2324 C 0.48287 0.20617 0.15931 0.0
C2325 C 0.4557 0.17424 0.20027 0.0
C2326 C 0.47118 0.16815 0.21534 0.0
C2327 C 0.43573 0.16258 0.19763 0.0
C2328 C 0.41895 0.16779 0.18155 0.0
C2329 C 0.42295 0.16739 0.15975 0.0
C2330 C 0.40707 0.17243 0.14472 0.0
C2331 C 0.38706 0.17771 0.15128 0.0
C2332 C 0.38287 0.17789 0.17289 0.0
C2333 C 0.39872 0.17288 0.18799 0.0
H2334 H 0.37478 0.18161 0.13962 0.0
H2335 H 0.52833 0.12929 0.28464 0.0
H2336 H 0.02606 0.83986 0.60475 0.0
H2337 H 0.04517 0.86368 0.63224 0.0
H2338 H 0.03208 0.81835 0.67954 0.0
H2339 H 0.01278 0.79434 0.65213 0.0
H2340 H 0.02957 0.86081 0.69506 0.0
H2341 H 0.07802 0.81714 0.6591 0.0
H2342 H 0.09522 0.80071 0.62848 0.0
H2343 H 0.11503 0.8628 0.60906 0.0
H2344 H 0.09771 0.87961 0.63946 0.0
H2345 H 0.14589 0.90121 0.7389 0.0
H2346 H 0.12001 0.87513 0.72055 0.0
H2347 H 0.07399 0.92336 0.71615 0.0
H2348 H 0.09965 0.94943 0.73509 0.0
H2349 H 0.10569 0.87656 0.6815 0.0
H2350 H 0.02338 0.89979 0.71037 0.0
H2351 H 0.00798 0.9134 0.74335 0.0
H2352 H 0.05816 0.88733 0.78106 0.0
H2353 H 0.0737 0.87331 0.74834 0.0
C2354 C 0.02693 0.83504 0.62104 0.0
C2355 C 0.01813 0.81506 0.6262 0.0
C2356 C 0.03787 0.84869 0.63672 0.0
C2357 C 0.04024 0.84261 0.65781 0.0
C2358 C 0.03042 0.82327 0.66331 0.0
C2359 C 0.01949 0.80956 0.64761 0.0
C2360 C 0.05452 0.8556 0.67358 0.0
C2361 C 0.04622 0.86432 0.69218 0.0
C2362 C 0.07633 0.85965 0.66999 0.0
C2363 C 0.0864 0.84963 0.65144 0.0
C2364 C 0.08585 0.82729 0.64817 0.0
C2365 C 0.09566 0.81791 0.63088 0.0
C2366 C 0.10619 0.83071 0.61682 0.0
C2367 C 0.10686 0.85291 0.61997 0.0
C2368 C 0.09706 0.86238 0.63723 0.0
C2369 C 0.13014 0.90619 0.73434 0.0
C2370 C 0.12486 0.92741 0.73826 0.0
C2371 C 0.11536 0.89126 0.72386 0.0
C2372 C 0.09507 0.89728 0.71695 0.0
C2373 C 0.08943 0.91826 0.7216 0.0
C2374 C 0.10416 0.93318 0.73234 0.0
C2375 C 0.08078 0.88222 0.703 0.0
C2376 C 0.08907 0.87311 0.68457 0.0
C2377 C 0.05915 0.8775 0.70707 0.0
C2378 C 0.04981 0.88568 0.72687 0.0
C2379 C 0.03108 0.89689 0.7257 0.0
C2380 C 0.02234 0.90469 0.74435 0.0
C2381 C 0.03212 0.90129 0.76428 0.0
C2382 C 0.05064 0.89003 0.76561 0.0
C2383 C 0.05945 0.88218 0.74701 0.0
H2384 H 0.02533 0.90735 0.7787 0.0
H2385 H 0.11394 0.82343 0.60355 0.0
H2386 H 0.50394 0.80508 0.28373 0.0
H2387 H 0.48831 0.83928 0.2797 0.0
H2388 H 0.45172 0.82971 0.33471 0.0
H2389 H 0.46754 0.79526 0.33915 0.0
H2390 H 0.42998 0.84952 0.29654 0.0
H2391 H 0.49073 0.85866 0.34633 0.0
H2392 H 0.52757 0.85304 0.35944 0.0
H2393 H 0.55176 0.88264 0.30505 0.0
H2394 H 0.51502 0.8881 0.29141 0.0
H2395 H 0.41212 0.96094 0.29243 0.0
H2396 H 0.42082 0.92751 0.30828 0.0
H2397 H 0.47323 0.92181 0.26724 0.0
H2398 H 0.46489 0.95514 0.25161 0.0
H2399 H 0.48418 0.91032 0.30659 0.0
H2400 H 0.42416 0.89607 0.2544 0.0
H2401 H 0.3876 0.90064 0.23969 0.0
H2402 H 0.36219 0.88037 0.29776 0.0
H2403 H 0.39866 0.87593 0.31291 0.0
C2404 C 0.49228 0.80995 0.2948 0.0
C2405 C 0.4872 0.79751 0.31193 0.0
C2406 C 0.48338 0.82954 0.29245 0.0
C2407 C 0.46913 0.83708 0.30708 0.0
C2408 C 0.46276 0.82411 0.32331 0.0
C2409 C 0.47181 0.80446 0.32579 0.0
C2410 C 0.46261 0.85926 0.30617 0.0
C2411 C 0.44164 0.86292 0.29923 0.0
C2412 C 0.47795 0.87663 0.3095 0.0
C2413 C 0.5001 0.87365 0.31778 0.0
C2414 C 0.5039 0.86382 0.33708 0.0
C2415 C 0.52476 0.86069 0.34462 0.0
C2416 C 0.54199 0.86745 0.33307 0.0
C2417 C 0.53839 0.8774 0.31398 0.0
C2418 C 0.51755 0.88055 0.30634 0.0
C2419 C 0.42572 0.95275 0.28705 0.0
C2420 C 0.43772 0.96063 0.27063 0.0
C2421 C 0.43059 0.93359 0.29604 0.0
C2422 C 0.44749 0.92202 0.28873 0.0
C2423 C 0.46009 0.93044 0.27311 0.0
C2424 C 0.45525 0.94949 0.26414 0.0
C2425 C 0.45165 0.90063 0.29629 0.0
C2426 C 0.47229 0.89707 0.30446 0.0
C2427 C 0.436 0.8834 0.29403 0.0
C2428 C 0.41411 0.88593 0.28488 0.0
C2429 C 0.41078 0.89274 0.26408 0.0
C2430 C 0.39008 0.89528 0.25566 0.0
C2431 C 0.37259 0.89086 0.26781 0.0
C2432 C 0.37576 0.88383 0.28839 0.0
C2433 C 0.39643 0.88129 0.2969 0.0
H2434 H 0.35658 0.89284 0.26127 0.0
H2435 H 0.55814 0.865 0.33893 0.0
H2436 H 0.80212 0.65603 0.02768 0.0
H2437 H 0.82778 0.68426 0.04223 0.0
H2438 H 0.87706 0.65598 0.00675 0.0
H2439 H 0.8516 0.62671 0.99354 0.0
H2440 H 0.89194 0.66288 0.0433 0.0
H2441 H 0.85664 0.70836 0.99788 0.0
H2442 H 0.82676 0.72511 0.97957 0.0
H2443 H 0.80791 0.75133 0.0397 0.0
H2444 H 0.83747 0.73449 0.05843 0.0
H2445 H 0.96288 0.74212 0.09704 0.0
H2446 H 0.94054 0.72718 0.06608 0.0
H2447 H 0.88514 0.72795 0.10352 0.0
H2448 H 0.9073 0.74272 0.1346 0.0
H2449 H 0.87795 0.73883 0.05907 0.0
H2450 H 0.91123 0.68504 0.10255 0.0
H2451 H 0.94256 0.66847 0.11852 0.0
H2452 H 0.96736 0.65952 0.05658 0.0
H2453 H 0.93632 0.67628 0.04031 0.0
C2454 C 0.81835 0.65609 0.0227 0.0
C2455 C 0.825 0.63918 0.00967 0.0
C2456 C 0.83301 0.6724 0.03084 0.0
C2457 C 0.85443 0.67254 0.02543 0.0
C2458 C 0.8607 0.65624 0.01128 0.0
C2459 C 0.84618 0.63954 0.00371 0.0
C2460 C 0.87066 0.68787 0.03679 0.0
C2461 C 0.88906 0.67962 0.0461 0.0
C2462 C 0.86707 0.70977 0.04074 0.0
C2463 C 0.84926 0.72005 0.02958 0.0
C2464 C 0.84605 0.71758 0.00723 0.0
C2465 C 0.82917 0.72711 0.99677 0.0
C2466 C 0.81543 0.73926 0.00847 0.0
C2467 C 0.81857 0.74193 0.03066 0.0
C2468 C 0.83542 0.73243 0.0412 0.0
C2469 C 0.94587 0.73953 0.09859 0.0
C2470 C 0.93688 0.74328 0.11836 0.0
C2471 C 0.93316 0.73105 0.08087 0.0
C2472 C 0.91128 0.72637 0.08264 0.0
C2473 C 0.90201 0.73154 0.10188 0.0
C2474 C 0.91472 0.73981 0.11966 0.0
C2475 C 0.89853 0.71351 0.0656 0.0
C2476 C 0.88089 0.72222 0.05546 0.0
C2477 C 0.90303 0.69216 0.06038 0.0
C2478 C 0.92162 0.68213 0.07027 0.0
C2479 C 0.92347 0.6797 0.09238 0.0
C2480 C 0.94114 0.67025 0.10148 0.0
C2481 C 0.95696 0.66302 0.08856 0.0
C2482 C 0.95512 0.66518 0.06655 0.0
C2483 C 0.9375 0.67464 0.0574 0.0
H2484 H 0.97062 0.65567 0.09556 0.0
H2485 H 0.80237 0.74661 0.00034 0.0
H2486 H 0.54846 0.2625 0.61628 0.0
H2487 H 0.57755 0.26907 0.59303 0.0
H2488 H 0.55653 0.33211 0.58316 0.0
H2489 H 0.52685 0.32542 0.6061 0.0
H2490 H 0.56997 0.31353 0.54638 0.0
H2491 H 0.59736 0.32609 0.61869 0.0
H2492 H 0.60366 0.31807 0.6564 0.0
H2493 H 0.63677 0.26285 0.63739 0.0
H2494 H 0.6304 0.27038 0.59954 0.0
H2495 H 0.67537 0.35239 0.51789 0.0
H2496 H 0.63937 0.34612 0.53026 0.0
H2497 H 0.65318 0.28134 0.54253 0.0
H2498 H 0.6891 0.28757 0.53057 0.0
H2499 H 0.64263 0.30366 0.57784 0.0
H2500 H 0.61516 0.29222 0.50465 0.0
H2501 H 0.60921 0.30179 0.46736 0.0
H2502 H 0.57725 0.35707 0.4884 0.0
H2503 H 0.58325 0.34799 0.52586 0.0
C2504 C 0.54994 0.27776 0.60914 0.0
C2505 C 0.53552 0.29356 0.61326 0.0
C2506 C 0.56658 0.28148 0.59583 0.0
C2507 C 0.56942 0.30122 0.58667 0.0
C2508 C 0.55464 0.3168 0.59013 0.0
C2509 C 0.53778 0.31299 0.60332 0.0
C2510 C 0.5885 0.30578 0.57448 0.0
C2511 C 0.58591 0.31164 0.55329 0.0
C2512 C 0.60925 0.30321 0.5835 0.0
C2513 C 0.61325 0.29871 0.60627 0.0
C2514 C 0.60586 0.31216 0.62255 0.0
C2515 C 0.60946 0.30771 0.64395 0.0
C2516 C 0.62057 0.28994 0.64929 0.0
C2517 C 0.62815 0.27661 0.63323 0.0
C2518 C 0.62457 0.28097 0.6118 0.0
C2519 C 0.67046 0.33662 0.52257 0.0
C2520 C 0.68512 0.32055 0.52359 0.0
C2521 C 0.64989 0.33306 0.52963 0.0
C2522 C 0.64371 0.31332 0.53751 0.0
C2523 C 0.65772 0.29674 0.53669 0.0
C2524 C 0.67823 0.30032 0.52983 0.0
C2525 C 0.62416 0.31073 0.54946 0.0
C2526 C 0.62672 0.30549 0.57081 0.0
C2527 C 0.60353 0.31411 0.5406 0.0
C2528 C 0.59986 0.31954 0.51808 0.0
C2529 C 0.60703 0.30653 0.50135 0.0
C2530 C 0.60361 0.31184 0.48017 0.0
C2531 C 0.59291 0.33006 0.47552 0.0
C2532 C 0.58555 0.34298 0.49203 0.0
C2533 C 0.58894 0.33774 0.51323 0.0
H2534 H 0.59028 0.33415 0.45912 0.0
H2535 H 0.62334 0.28652 0.66587 0.0
H2536 H 0.26002 0.4232 0.08229 0.0
H2537 H 0.25195 0.43089 0.11952 0.0
H2538 H 0.21119 0.48011 0.09992 0.0
H2539 H 0.21967 0.47308 0.06304 0.0
H2540 H 0.23027 0.49175 0.13728 0.0
H2541 H 0.19216 0.42695 0.10519 0.0
H2542 H 0.19022 0.3906 0.08797 0.0
H2543 H 0.22608 0.36839 0.14164 0.0
H2544 H 0.22843 0.4047 0.15905 0.0
H2545 H 0.14182 0.49377 0.19978 0.0
H2546 H 0.16712 0.48909 0.17216 0.0
H2547 H 0.20148 0.44635 0.21087 0.0
H2548 H 0.17604 0.45088 0.23875 0.0
H2549 H 0.19371 0.43047 0.1695 0.0
H2550 H 0.22368 0.49503 0.20472 0.0
H2551 H 0.22347 0.53146 0.22136 0.0
H2552 H 0.20138 0.55451 0.16151 0.0
H2553 H 0.20112 0.51817 0.14457 0.0
C2554 C 0.24974 0.436 0.08599 0.0
C2555 C 0.24023 0.4473 0.06963 0.0
C2556 C 0.24506 0.4403 0.10727 0.0
C2557 C 0.23057 0.45575 0.11247 0.0
C2558 C 0.22234 0.46805 0.09634 0.0
C2559 C 0.22714 0.46392 0.07518 0.0
C2560 C 0.22219 0.45793 0.13407 0.0
C2561 C 0.22232 0.47835 0.14436 0.0
C2562 C 0.21228 0.44037 0.14365 0.0
C2563 C 0.21069 0.41854 0.13328 0.0
C2564 C 0.19973 0.41433 0.11324 0.0
C2565 C 0.19855 0.39374 0.10346 0.0
C2566 C 0.20809 0.37721 0.11367 0.0
C2567 C 0.21875 0.38122 0.13373 0.0
C2568 C 0.22001 0.40179 0.14356 0.0
C2569 C 0.15478 0.48342 0.20252 0.0
C2570 C 0.15689 0.47268 0.22149 0.0
C2571 C 0.16933 0.48089 0.18675 0.0
C2572 C 0.18636 0.46762 0.18959 0.0
C2573 C 0.18852 0.45678 0.20844 0.0
C2574 C 0.17398 0.45939 0.22434 0.0
C2575 C 0.20112 0.46441 0.17225 0.0
C2576 C 0.20217 0.44379 0.16277 0.0
C2577 C 0.21193 0.48183 0.16334 0.0
C2578 C 0.2123 0.50381 0.17339 0.0
C2579 C 0.21865 0.50783 0.19513 0.0
C2580 C 0.21863 0.52848 0.20461 0.0
C2581 C 0.2124 0.54528 0.19251 0.0
C2582 C 0.20621 0.54148 0.17087 0.0
C2583 C 0.20618 0.52086 0.16131 0.0
H2584 H 0.21238 0.56125 0.19988 0.0
H2585 H 0.20717 0.36128 0.10607 0.0
H2586 H 0.34956 0.48638 0.80338 0.0
H2587 H 0.34258 0.47147 0.83748 0.0
H2588 H 0.27577 0.46107 0.81733 0.0
H2589 H 0.28259 0.47785 0.78399 0.0
H2590 H 0.27663 0.47782 0.85288 0.0
H2591 H 0.31335 0.4192 0.82639 0.0
H2592 H 0.34209 0.40041 0.80964 0.0
H2593 H 0.38637 0.42368 0.86127 0.0
H2594 H 0.358 0.44292 0.87816 0.0
H2595 H 0.28061 0.40682 0.94976 0.0
H2596 H 0.29276 0.41278 0.91414 0.0
H2597 H 0.29057 0.48077 0.9269 0.0
H2598 H 0.27706 0.47474 0.96192 0.0
H2599 H 0.32231 0.43083 0.89388 0.0
H2600 H 0.27102 0.50464 0.8857 0.0
H2601 H 0.23834 0.51844 0.89991 0.0
H2602 H 0.21597 0.45484 0.91248 0.0
H2603 H 0.24837 0.44064 0.89808 0.0
C2604 C 0.33347 0.48047 0.80612 0.0
C2605 C 0.31658 0.48321 0.79116 0.0
C2606 C 0.32948 0.4718 0.8256 0.0
C2607 C 0.30863 0.46489 0.83012 0.0
C2608 C 0.29197 0.46642 0.81444 0.0
C2609 C 0.29585 0.47585 0.79532 0.0
C2610 C 0.3038 0.45834 0.85187 0.0
C2611 C 0.2866 0.46737 0.86165 0.0
C2612 C 0.31644 0.4444 0.86345 0.0
C2613 C 0.33354 0.43264 0.85348 0.0
C2614 C 0.32924 0.42043 0.83411 0.0
C2615 C 0.34547 0.40968 0.82459 0.0
C2616 C 0.36604 0.41087 0.83437 0.0
C2617 C 0.37042 0.42277 0.85371 0.0
C2618 C 0.35426 0.43359 0.86328 0.0
C2619 C 0.28316 0.42305 0.9451 0.0
C2620 C 0.27764 0.44033 0.95843 0.0
C2621 C 0.29011 0.42644 0.92472 0.0
C2622 C 0.29197 0.44719 0.91754 0.0
C2623 C 0.28856 0.46456 0.93178 0.0
C2624 C 0.28101 0.46114 0.95185 0.0
C2625 C 0.29546 0.45063 0.89471 0.0
C2626 C 0.31235 0.44108 0.88485 0.0
C2627 C 0.2819 0.46323 0.88258 0.0
C2628 C 0.26222 0.47162 0.891 0.0
C2629 C 0.25908 0.4936 0.89141 0.0
C2630 C 0.24062 0.50149 0.89951 0.0
C2631 C 0.22512 0.48753 0.90715 0.0
C2632 C 0.22802 0.46564 0.90662 0.0
C2633 C 0.24643 0.45767 0.8985 0.0
H2634 H 0.21086 0.49368 0.91344 0.0
H2635 H 0.37858 0.40254 0.82698 0.0
H2636 H 0.25561 0.6144 0.54077 0.0
H2637 H 0.25984 0.59093 0.57011 0.0
H2638 H 0.32352 0.5789 0.55223 0.0
H2639 H 0.31925 0.60212 0.52241 0.0
H2640 H 0.30269 0.5427 0.56524 0.0
H2641 H 0.31683 0.61544 0.59164 0.0
H2642 H 0.30949 0.65343 0.59695 0.0
H2643 H 0.25282 0.63628 0.62869 0.0
H2644 H 0.25966 0.59815 0.6233 0.0
H2645 H 0.34249 0.516 0.66988 0.0
H2646 H 0.3351 0.52777 0.6339 0.0
H2647 H 0.2715 0.54225 0.65013 0.0
H2648 H 0.27888 0.53089 0.68613 0.0
H2649 H 0.29292 0.57628 0.63707 0.0
H2650 H 0.28031 0.50288 0.61204 0.0
H2651 H 0.28875 0.46518 0.607 0.0
H2652 H 0.34391 0.48358 0.57349 0.0
H2653 H 0.33596 0.52144 0.57859 0.0
C2654 C 0.27048 0.60667 0.54295 0.0
C2655 C 0.28721 0.61036 0.52943 0.0
C2656 C 0.27286 0.59323 0.55972 0.0
C2657 C 0.29212 0.58345 0.56356 0.0
C2658 C 0.30854 0.58634 0.54957 0.0
C2659 C 0.30611 0.59969 0.53261 0.0
C2660 C 0.29548 0.57145 0.583 0.0
C2661 C 0.30077 0.55005 0.581 0.0
C2662 C 0.29275 0.581 0.6035 0.0
C2663 C 0.28865 0.60393 0.60688 0.0
C2664 C 0.30272 0.61976 0.59961 0.0
C2665 C 0.29866 0.64132 0.60266 0.0
C2666 C 0.28067 0.64726 0.6131 0.0
C2667 C 0.26673 0.63165 0.62058 0.0
C2668 C 0.2707 0.61007 0.61754 0.0
C2669 C 0.32672 0.52109 0.66558 0.0
C2670 C 0.31137 0.52281 0.68093 0.0
C2671 C 0.32251 0.52779 0.64498 0.0
C2672 C 0.30279 0.53604 0.63938 0.0
C2673 C 0.28688 0.53609 0.65417 0.0
C2674 C 0.29112 0.52957 0.67474 0.0
C2675 C 0.29969 0.5473 0.61941 0.0
C2676 C 0.29466 0.56876 0.62134 0.0
C2677 C 0.30284 0.53779 0.59898 0.0
C2678 C 0.30765 0.51503 0.59588 0.0
C2679 C 0.29434 0.49891 0.60376 0.0
C2680 C 0.29902 0.4775 0.60085 0.0
C2681 C 0.31689 0.47199 0.58998 0.0
C2682 C 0.33009 0.48788 0.58193 0.0
C2683 C 0.32549 0.50931 0.58481 0.0
H2684 H 0.32048 0.45541 0.58774 0.0
H2685 H 0.27755 0.66396 0.61545 0.0
H2686 H 0.11158 0.54015 0.3342 0.0
H2687 H 0.13932 0.55805 0.35841 0.0
H2688 H 0.18714 0.52357 0.32663 0.0
H2689 H 0.15937 0.5062 0.30162 0.0
H2690 H 0.16654 0.54705 0.38675 0.0
H2691 H 0.23325 0.55473 0.32809 0.0
H2692 H 0.23747 0.55529 0.2893 0.0
H2693 H 0.17554 0.58014 0.28048 0.0
H2694 H 0.17107 0.57993 0.31922 0.0
H2695 H 0.25121 0.60309 0.44758 0.0
H2696 H 0.23424 0.57539 0.42236 0.0
H2697 H 0.21696 0.62348 0.37926 0.0
H2698 H 0.23432 0.65113 0.40401 0.0
H2699 H 0.22618 0.58878 0.35715 0.0
H2700 H 0.18247 0.60586 0.41572 0.0
H2701 H 0.1742 0.61007 0.45358 0.0
H2702 H 0.18355 0.54369 0.46098 0.0
H2703 H 0.19212 0.53916 0.42319 0.0
C2704 C 0.12798 0.53625 0.33241 0.0
C2705 C 0.13332 0.52191 0.31589 0.0
C2706 C 0.14384 0.54644 0.34634 0.0
C2707 C 0.16536 0.54235 0.34422 0.0
C2708 C 0.17069 0.5273 0.32831 0.0
C2709 C 0.15481 0.51734 0.31409 0.0
C2710 C 0.18204 0.5547 0.35816 0.0
C2711 C 0.17973 0.55597 0.38027 0.0
C2712 C 0.19912 0.56656 0.34974 0.0
C2713 C 0.20174 0.56705 0.32648 0.0
C2714 C 0.22057 0.56035 0.31786 0.0
C2715 C 0.223 0.56061 0.29589 0.0
C2716 C 0.20674 0.56766 0.28242 0.0
C2717 C 0.18807 0.57459 0.29091 0.0
C2718 C 0.18558 0.57439 0.31286 0.0
C2719 C 0.24415 0.60773 0.43255 0.0
C2720 C 0.24382 0.62935 0.42794 0.0
C2721 C 0.23443 0.59188 0.41818 0.0
C2722 C 0.224 0.59742 0.39913 0.0
C2723 C 0.22489 0.61884 0.39388 0.0
C2724 C 0.23474 0.63465 0.40813 0.0
C2725 C 0.21035 0.58145 0.38561 0.0
C2726 C 0.2133 0.57944 0.36364 0.0
C2727 C 0.19331 0.56956 0.39402 0.0
C2728 C 0.1882 0.57223 0.41673 0.0
C2729 C 0.18292 0.5922 0.42547 0.0
C2730 C 0.17815 0.59464 0.4469 0.0
C2731 C 0.17842 0.57718 0.45969 0.0
C2732 C 0.1834 0.55722 0.45106 0.0
C2733 C 0.18821 0.5547 0.42964 0.0
H2734 H 0.17471 0.57909 0.47628 0.0
H2735 H 0.20864 0.56781 0.26542 0.0
loop_
_geom_bond_atom_site_label_1
_geom_bond_atom_site_label_2
_geom_bond_distance
_geom_bond_site_symmetry_2
_ccdc_geom_bond_type
Zn0 O3 2.031 . S
Zn0 O5 2.049 1_655 S
Zn0 O10 2.067 . S
Zn1 O2 1.962 1_455 S
Zn1 O4 1.986 . S
Zn1 O6 1.996 . S
Zn1 O9 1.943 1_455 S
O2 Zn1 1.962 1_655 S
O2 C7 1.254 . S
O3 Zn0 2.031 . S
O3 C7 1.269 . S
O4 Zn1 1.986 . S
O4 C11 1.262 . S
O5 Zn0 2.049 1_455 S
O5 C13 1.260 . S
O6 Zn1 1.996 . S
O6 C13 1.257 . S
C7 O2 1.254 . S
C7 O3 1.269 . S
C8 O9 1.249 . S
C8 O10 1.270 . S
O9 Zn1 1.943 1_655 S
O9 C8 1.249 . S
O10 Zn0 2.067 . S
O10 C8 1.270 . S
C11 O4 1.262 . S
C11 O12 1.258 . S
O12 C11 1.258 . S
C13 O5 1.260 . S
C13 O6 1.257 . S
Zn14 O17 2.031 1_455 S
Zn14 O19 2.049 . S
Zn14 O24 2.067 . S
Zn15 O16 1.962 1_455 S
Zn15 O18 1.986 . S
Zn15 O20 1.996 . S
Zn15 O23 1.943 . S
O16 Zn15 1.962 1_655 S
O16 C21 1.254 . S
O17 Zn14 2.031 1_655 S
O17 C21 1.269 . S
O18 Zn15 1.986 . S
O18 C25 1.262 1_455 S
O19 Zn14 2.049 . S
O19 C27 1.260 . S
O20 Zn15 1.996 . S
O20 C27 1.257 . S
C21 O16 1.254 . S
C21 O17 1.269 . S
C22 O23 1.249 . S
C22 O24 1.270 . S
O23 Zn15 1.943 . S
O23 C22 1.249 . S
O24 Zn14 2.067 . S
O24 C22 1.270 . S
C25 O18 1.262 1_655 S
C25 O26 1.232 . S
O26 C25 1.232 . S
C27 O19 1.260 . S
C27 O20 1.257 . S
Zn28 O31 2.031 . S
Zn28 O33 2.049 . S
Zn28 O38 2.067 . S
Zn29 O30 1.962 . S
Zn29 O32 1.986 . S
Zn29 O34 1.996 . S
Zn29 O37 1.943 . S
O30 Zn29 1.962 . S
O30 C35 1.254 . S
O31 Zn28 2.031 . S
O31 C35 1.269 . S
O32 Zn29 1.986 . S
O32 C39 1.262 . S
O33 Zn28 2.049 . S
O33 C41 1.260 . S
O34 Zn29 1.996 . S
O34 C41 1.257 . S
C35 O30 1.254 . S
C35 O31 1.269 . S
C36 O37 1.249 . S
C36 O38 1.270 . S
O37 Zn29 1.943 . S
O37 C36 1.249 . S
O38 Zn28 2.067 . S
O38 C36 1.270 . S
C39 O32 1.262 . S
C39 O40 1.232 . S
O40 C39 1.232 . S
C41 O33 1.260 . S
C41 O34 1.257 . S
Zn42 O45 2.031 . S
Zn42 O47 2.049 . S
Zn42 O52 2.067 . S
Zn43 O44 1.962 . S
Zn43 O46 1.986 . S
Zn43 O48 1.996 . S
Zn43 O51 1.943 . S
O44 Zn43 1.962 . S
O44 C49 1.254 . S
O45 Zn42 2.031 . S
O45 C49 1.269 . S
O46 Zn43 1.986 . S
O46 C53 1.262 . S
O47 Zn42 2.049 . S
O47 C55 1.260 . S
O48 Zn43 1.996 . S
O48 C55 1.257 . S
C49 O44 1.254 . S
C49 O45 1.269 . S
C50 O51 1.249 . S
C50 O52 1.270 . S
O51 Zn43 1.943 . S
O51 C50 1.249 . S
O52 Zn42 2.067 . S
O52 C50 1.270 . S
C53 O46 1.262 . S
C53 O54 1.232 . S
O54 C53 1.232 . S
C55 O47 1.260 . S
C55 O48 1.257 . S
Zn56 O59 2.031 . S
Zn56 O61 2.049 . S
Zn56 O66 2.067 . S
Zn57 O58 1.962 . S
Zn57 O60 1.986 . S
Zn57 O62 1.996 . S
Zn57 O65 1.943 1_455 S
O58 Zn57 1.962 . S
O58 C63 1.254 1_455 S
O59 Zn56 2.031 . S
O59 C63 1.269 . S
O60 Zn57 1.986 . S
O60 C67 1.262 . S
O61 Zn56 2.049 . S
O61 C69 1.260 1_655 S
O62 Zn57 1.996 . S
O62 C69 1.257 . S
C63 O58 1.254 1_655 S
C63 O59 1.269 . S
C64 O65 1.249 . S
C64 O66 1.270 . S
O65 Zn57 1.943 1_655 S
O65 C64 1.249 . S
O66 Zn56 2.067 . S
O66 C64 1.270 . S
C67 O60 1.262 . S
C67 O68 1.232 . S
O68 C67 1.232 . S
C69 O61 1.260 1_455 S
C69 O62 1.257 . S
Zn70 O73 2.031 . S
Zn70 O75 2.049 . S
Zn70 O80 2.067 . S
Zn71 O72 1.962 . S
Zn71 O74 1.986 . S
Zn71 O76 1.996 . S
Zn71 O79 1.943 . S
O72 Zn71 1.962 . S
O72 C77 1.254 . S
O73 Zn70 2.031 . S
O73 C77 1.269 . S
O74 Zn71 1.986 . S
O74 C81 1.262 . S
O75 Zn70 2.049 . S
O75 C83 1.260 . S
O76 Zn71 1.996 . S
O76 C83 1.257 . S
C77 O72 1.254 . S
C77 O73 1.269 . S
C78 O79 1.249 . S
C78 O80 1.270 . S
O79 Zn71 1.943 . S
O79 C78 1.249 . S
O80 Zn70 2.067 . S
O80 C78 1.270 . S
C81 O74 1.262 . S
C81 O82 1.232 . S
O82 C81 1.232 . S
C83 O75 1.260 . S
C83 O76 1.257 . S
Zn84 O87 2.031 . S
Zn84 O89 2.049 . S
Zn84 O94 2.067 . S
Zn85 O86 1.962 . S
Zn85 O88 1.986 . S
Zn85 O90 1.996 . S
Zn85 O93 1.943 . S
O86 Zn85 1.962 . S
O86 C91 1.254 . S
O87 Zn84 2.031 . S
O87 C91 1.269 . S
O88 Zn85 1.986 . S
O88 C95 1.262 . S
O89 Zn84 2.049 . S
O89 C97 1.260 . S
O90 Zn85 1.996 . S
O90 C97 1.257 . S
C91 O86 1.254 . S
C91 O87 1.269 . S
C92 O93 1.249 . S
C92 O94 1.270 . S
O93 Zn85 1.943 . S
O93 C92 1.249 . S
O94 Zn84 2.067 . S
O94 C92 1.270 . S
C95 O88 1.262 . S
C95 O96 1.232 . S
O96 C95 1.232 . S
C97 O89 1.260 . S
C97 O90 1.257 . S
Zn98 O101 2.031 . S
Zn98 O103 2.049 . S
Zn98 O108 2.067 . S
Zn99 O100 1.962 . S
Zn99 O102 1.986 . S
Zn99 O104 1.996 1_655 S
Zn99 O107 1.943 1_655 S
O100 Zn99 1.962 . S
O100 C105 1.254 . S
O101 Zn98 2.031 . S
O101 C105 1.269 1_455 S
O102 Zn99 1.986 . S
O102 C109 1.262 . S
O103 Zn98 2.049 . S
O103 C111 1.260 . S
O104 Zn99 1.996 1_455 S
O104 C111 1.257 . S
C105 O100 1.254 . S
C105 O101 1.269 1_655 S
C106 O107 1.249 . S
C106 O108 1.270 . S
O107 Zn99 1.943 1_455 S
O107 C106 1.249 . S
O108 Zn98 2.067 . S
O108 C106 1.270 . S
C109 O102 1.262 . S
C109 O110 1.232 . S
O110 C109 1.232 . S
C111 O103 1.260 . S
C111 O104 1.257 . S
Zn112 O115 2.031 . S
Zn112 O117 2.049 1_565 S
Zn112 O122 2.067 . S
Zn113 O114 1.962 1_545 S
Zn113 O116 1.986 . S
Zn113 O118 1.996 . S
Zn113 O121 1.943 1_545 S
O114 Zn113 1.962 1_565 S
O114 C119 1.254 . S
O115 Zn112 2.031 . S
O115 C119 1.269 . S
O116 Zn113 1.986 . S
O116 C123 1.262 . S
O117 Zn112 2.049 1_545 S
O117 C125 1.260 . S
O118 Zn113 1.996 . S
O118 C125 1.257 . S
C119 O114 1.254 . S
C119 O115 1.269 . S
C120 O121 1.249 . S
C120 O122 1.270 . S
O121 Zn113 1.943 1_565 S
O121 C120 1.249 . S
O122 Zn112 2.067 . S
O122 C120 1.270 . S
C123 O116 1.262 . S
C123 O124 1.258 . S
O124 C123 1.258 . S
C125 O117 1.260 . S
C125 O118 1.257 . S
Zn126 O129 2.031 . S
Zn126 O131 2.049 . S
Zn126 O136 2.067 . S
Zn127 O128 1.962 . S
Zn127 O130 1.986 . S
Zn127 O132 1.996 . S
Zn127 O135 1.943 . S
O128 Zn127 1.962 . S
O128 C133 1.254 . S
O129 Zn126 2.031 . S
O129 C133 1.269 . S
O130 Zn127 1.986 . S
O130 C137 1.262 . S
O131 Zn126 2.049 . S
O131 C139 1.260 . S
O132 Zn127 1.996 . S
O132 C139 1.257 . S
C133 O128 1.254 . S
C133 O129 1.269 . S
C134 O135 1.249 . S
C134 O136 1.270 . S
O135 Zn127 1.943 . S
O135 C134 1.249 . S
O136 Zn126 2.067 . S
O136 C134 1.270 . S
C137 O130 1.262 . S
C137 O138 1.232 . S
O138 C137 1.232 . S
C139 O131 1.260 . S
C139 O132 1.257 . S
Zn140 O143 2.031 . S
Zn140 O145 2.049 . S
Zn140 O150 2.067 . S
Zn141 O142 1.962 . S
Zn141 O144 1.986 . S
Zn141 O146 1.996 . S
Zn141 O149 1.943 1_545 S
O142 Zn141 1.962 . S
O142 C147 1.254 1_545 S
O143 Zn140 2.031 . S
O143 C147 1.269 . S
O144 Zn141 1.986 . S
O144 C151 1.262 . S
O145 Zn140 2.049 . S
O145 C153 1.260 1_565 S
O146 Zn141 1.996 . S
O146 C153 1.257 . S
C147 O142 1.254 1_565 S
C147 O143 1.269 . S
C148 O149 1.249 . S
C148 O150 1.270 . S
O149 Zn141 1.943 1_565 S
O149 C148 1.249 . S
O150 Zn140 2.067 . S
O150 C148 1.270 . S
C151 O144 1.262 . S
C151 O152 1.232 . S
O152 C151 1.232 . S
C153 O145 1.260 1_545 S
C153 O146 1.257 . S
Zn154 O157 2.031 . S
Zn154 O159 2.049 . S
Zn154 O164 2.067 . S
Zn155 O156 1.962 . S
Zn155 O158 1.986 . S
Zn155 O160 1.996 1_556 S
Zn155 O163 1.943 1_556 S
O156 Zn155 1.962 . S
O156 C161 1.254 . S
O157 Zn154 2.031 . S
O157 C161 1.269 1_554 S
O158 Zn155 1.986 . S
O158 C165 1.262 . S
O159 Zn154 2.049 . S
O159 C167 1.260 . S
O160 Zn155 1.996 1_554 S
O160 C167 1.257 . S
C161 O156 1.254 . S
C161 O157 1.269 1_556 S
C162 O163 1.249 . S
C162 O164 1.270 . S
O163 Zn155 1.943 1_554 S
O163 C162 1.249 . S
O164 Zn154 2.067 . S
O164 C162 1.270 . S
C165 O158 1.262 . S
C165 O166 1.232 . S
O166 C165 1.232 . S
C167 O159 1.260 . S
C167 O160 1.257 . S
Zn168 O171 2.031 . S
Zn168 O173 2.049 1_556 S
Zn168 O178 2.067 . S
Zn169 O170 1.962 1_554 S
Zn169 O172 1.986 . S
Zn169 O174 1.996 . S
Zn169 O177 1.943 1_554 S
O170 Zn169 1.962 1_556 S
O170 C175 1.254 . S
O171 Zn168 2.031 . S
O171 C175 1.269 . S
O172 Zn169 1.986 . S
O172 C179 1.262 . S
O173 Zn168 2.049 1_554 S
O173 C181 1.260 . S
O174 Zn169 1.996 . S
O174 C181 1.257 . S
C175 O170 1.254 . S
C175 O171 1.269 . S
C176 O177 1.249 . S
C176 O178 1.270 . S
O177 Zn169 1.943 1_556 S
O177 C176 1.249 . S
O178 Zn168 2.067 . S
O178 C176 1.270 . S
C179 O172 1.262 . S
C179 O180 1.258 . S
O180 C179 1.258 . S
C181 O173 1.260 . S
C181 O174 1.257 . S
Zn182 O185 2.031 . S
Zn182 O187 2.049 . S
Zn182 O192 2.067 . S
Zn183 O184 1.962 . S
Zn183 O186 1.986 . S
Zn183 O188 1.996 . S
Zn183 O191 1.943 1_554 S
O184 Zn183 1.962 . S
O184 C189 1.254 1_554 S
O185 Zn182 2.031 . S
O185 C189 1.269 . S
O186 Zn183 1.986 . S
O186 C193 1.262 . S
O187 Zn182 2.049 . S
O187 C195 1.260 1_556 S
O188 Zn183 1.996 . S
O188 C195 1.257 . S
C189 O184 1.254 1_556 S
C189 O185 1.269 . S
C190 O191 1.249 . S
C190 O192 1.270 . S
O191 Zn183 1.943 1_556 S
O191 C190 1.249 . S
O192 Zn182 2.067 . S
O192 C190 1.270 . S
C193 O186 1.262 . S
C193 O194 1.232 . S
O194 C193 1.232 . S
C195 O187 1.260 1_554 S
C195 O188 1.257 . S
Zn196 O199 2.031 . S
Zn196 O201 2.049 . S
Zn196 O206 2.067 . S
Zn197 O198 1.962 . S
Zn197 O200 1.986 . S
Zn197 O202 1.996 . S
Zn197 O205 1.943 . S
O198 Zn197 1.962 . S
O198 C203 1.254 . S
O199 Zn196 2.031 . S
O199 C203 1.269 . S
O200 Zn197 1.986 . S
O200 C207 1.262 . S
O201 Zn196 2.049 . S
O201 C209 1.260 . S
O202 Zn197 1.996 . S
O202 C209 1.257 . S
C203 O198 1.254 . S
C203 O199 1.269 . S
C204 O205 1.249 . S
C204 O206 1.270 . S
O205 Zn197 1.943 . S
O205 C204 1.249 . S
O206 Zn196 2.067 . S
O206 C204 1.270 . S
C207 O200 1.262 . S
C207 O208 1.232 . S
O208 C207 1.232 . S
C209 O201 1.260 . S
C209 O202 1.257 . S
Zn210 O213 2.031 . S
Zn210 O215 2.049 . S
Zn210 O220 2.067 . S
Zn211 O212 1.962 . S
Zn211 O214 1.986 . S
Zn211 O216 1.996 . S
Zn211 O219 1.943 . S
O212 Zn211 1.962 . S
O212 C217 1.254 . S
O213 Zn210 2.031 . S
O213 C217 1.269 . S
O214 Zn211 1.986 . S
O214 C221 1.262 . S
O215 Zn210 2.049 . S
O215 C223 1.260 . S
O216 Zn211 1.996 . S
O216 C223 1.257 . S
C217 O212 1.254 . S
C217 O213 1.269 . S
C218 O219 1.249 . S
C218 O220 1.270 . S
O219 Zn211 1.943 . S
O219 C218 1.249 . S
O220 Zn210 2.067 . S
O220 C218 1.270 . S
C221 O214 1.262 . S
C221 O222 1.232 . S
O222 C221 1.232 . S
C223 O215 1.260 . S
C223 O216 1.257 . S
Zn224 O227 2.031 . S
Zn224 O229 2.049 . S
Zn224 O234 2.067 . S
Zn225 O226 1.962 . S
Zn225 O228 1.986 . S
Zn225 O230 1.996 1_565 S
Zn225 O233 1.943 1_565 S
O226 Zn225 1.962 . S
O226 C231 1.254 . S
O227 Zn224 2.031 . S
O227 C231 1.269 1_545 S
O228 Zn225 1.986 . S
O228 C235 1.262 . S
O229 Zn224 2.049 . S
O229 C237 1.260 . S
O230 Zn225 1.996 1_545 S
O230 C237 1.257 . S
C231 O226 1.254 . S
C231 O227 1.269 1_565 S
C232 O233 1.249 . S
C232 O234 1.270 . S
O233 Zn225 1.943 1_545 S
O233 C232 1.249 . S
O234 Zn224 2.067 . S
O234 C232 1.270 . S
C235 O228 1.262 . S
C235 O236 1.232 . S
O236 C235 1.232 . S
C237 O229 1.260 . S
C237 O230 1.257 . S
Zn238 O241 2.031 . S
Zn238 O243 2.049 . S
Zn238 O248 2.067 . S
Zn239 O240 1.962 . S
Zn239 O242 1.986 . S
Zn239 O244 1.996 . S
Zn239 O247 1.943 . S
O240 Zn239 1.962 . S
O240 C245 1.254 . S
O241 Zn238 2.031 . S
O241 C245 1.269 . S
O242 Zn239 1.986 . S
O242 C249 1.262 . S
O243 Zn238 2.049 . S
O243 C251 1.260 . S
O244 Zn239 1.996 . S
O244 C251 1.257 . S
C245 O240 1.254 . S
C245 O241 1.269 . S
C246 O247 1.249 . S
C246 O248 1.270 . S
O247 Zn239 1.943 . S
O247 C246 1.249 . S
O248 Zn238 2.067 . S
O248 C246 1.270 . S
C249 O242 1.262 . S
C249 O250 1.232 . S
O250 C249 1.232 . S
C251 O243 1.260 . S
C251 O244 1.257 . S
Zn252 O255 2.031 . S
Zn252 O257 2.049 . S
Zn252 O262 2.067 . S
Zn253 O254 1.962 . S
Zn253 O256 1.986 . S
Zn253 O258 1.996 . S
Zn253 O261 1.943 . S
O254 Zn253 1.962 . S
O254 C259 1.254 . S
O255 Zn252 2.031 . S
O255 C259 1.269 . S
O256 Zn253 1.986 . S
O256 C263 1.262 . S
O257 Zn252 2.049 . S
O257 C265 1.260 . S
O258 Zn253 1.996 . S
O258 C265 1.257 . S
C259 O254 1.254 . S
C259 O255 1.269 . S
C260 O261 1.249 . S
C260 O262 1.270 . S
O261 Zn253 1.943 . S
O261 C260 1.249 . S
O262 Zn252 2.067 . S
O262 C260 1.270 . S
C263 O256 1.262 . S
C263 O264 1.232 . S
O264 C263 1.232 . S
C265 O257 1.260 . S
C265 O258 1.257 . S
Zn266 O269 2.031 1_545 S
Zn266 O271 2.049 . S
Zn266 O276 2.067 . S
Zn267 O268 1.962 1_545 S
Zn267 O270 1.986 . S
Zn267 O272 1.996 . S
Zn267 O275 1.943 . S
O268 Zn267 1.962 1_565 S
O268 C273 1.254 . S
O269 Zn266 2.031 1_565 S
O269 C273 1.269 . S
O270 Zn267 1.986 . S
O270 C277 1.262 1_545 S
O271 Zn266 2.049 . S
O271 C279 1.260 . S
O272 Zn267 1.996 . S
O272 C279 1.257 . S
C273 O268 1.254 . S
C273 O269 1.269 . S
C274 O275 1.249 . S
C274 O276 1.270 . S
O275 Zn267 1.943 . S
O275 C274 1.249 . S
O276 Zn266 2.067 . S
O276 C274 1.270 . S
C277 O270 1.262 1_565 S
C277 O278 1.232 . S
O278 C277 1.232 . S
C279 O271 1.260 . S
C279 O272 1.257 . S
Zn280 O283 2.031 1_554 S
Zn280 O285 2.049 . S
Zn280 O290 2.067 . S
Zn281 O282 1.962 1_554 S
Zn281 O284 1.986 . S
Zn281 O286 1.996 . S
Zn281 O289 1.943 . S
O282 Zn281 1.962 1_556 S
O282 C287 1.254 . S
O283 Zn280 2.031 1_556 S
O283 C287 1.269 . S
O284 Zn281 1.986 . S
O284 C291 1.262 1_554 S
O285 Zn280 2.049 . S
O285 C293 1.260 . S
O286 Zn281 1.996 . S
O286 C293 1.257 . S
C287 O282 1.254 . S
C287 O283 1.269 . S
C288 O289 1.249 . S
C288 O290 1.270 . S
O289 Zn281 1.943 . S
O289 C288 1.249 . S
O290 Zn280 2.067 . S
O290 C288 1.270 . S
C291 O284 1.262 1_556 S
C291 O292 1.232 . S
O292 C291 1.232 . S
C293 O285 1.260 . S
C293 O286 1.257 . S
Zn294 O297 2.031 . S
Zn294 O299 2.049 . S
Zn294 O304 2.067 . S
Zn295 O296 1.962 . S
Zn295 O298 1.986 . S
Zn295 O300 1.996 . S
Zn295 O303 1.943 . S
O296 Zn295 1.962 . S
O296 C301 1.254 . S
O297 Zn294 2.031 . S
O297 C301 1.269 . S
O298 Zn295 1.986 . S
O298 C305 1.262 . S
O299 Zn294 2.049 . S
O299 C307 1.260 . S
O300 Zn295 1.996 . S
O300 C307 1.257 . S
C301 O296 1.254 . S
C301 O297 1.269 . S
C302 O303 1.249 . S
C302 O304 1.270 . S
O303 Zn295 1.943 . S
O303 C302 1.249 . S
O304 Zn294 2.067 . S
O304 C302 1.270 . S
C305 O298 1.262 . S
C305 O306 1.232 . S
O306 C305 1.232 . S
C307 O299 1.260 . S
C307 O300 1.257 . S
Zn308 O311 2.031 . S
Zn308 O313 2.049 . S
Zn308 O318 2.067 . S
Zn309 O310 1.962 . S
Zn309 O312 1.986 . S
Zn309 O314 1.996 . S
Zn309 O317 1.943 . S
O310 Zn309 1.962 . S
O310 C315 1.254 . S
O311 Zn308 2.031 . S
O311 C315 1.269 . S
O312 Zn309 1.986 . S
O312 C319 1.262 . S
O313 Zn308 2.049 . S
O313 C321 1.260 . S
O314 Zn309 1.996 . S
O314 C321 1.257 . S
C315 O310 1.254 . S
C315 O311 1.269 . S
C316 O317 1.249 . S
C316 O318 1.270 . S
O317 Zn309 1.943 . S
O317 C316 1.249 . S
O318 Zn308 2.067 . S
O318 C316 1.270 . S
C319 O312 1.262 . S
C319 O320 1.232 . S
O320 C319 1.232 . S
C321 O313 1.260 . S
C321 O314 1.257 . S
Zn322 O325 2.031 . S
Zn322 O327 2.049 . S
Zn322 O332 2.067 . S
Zn323 O324 1.962 . S
Zn323 O326 1.986 . S
Zn323 O328 1.996 . S
Zn323 O331 1.943 . S
O324 Zn323 1.962 . S
O324 C329 1.254 . S
O325 Zn322 2.031 . S
O325 C329 1.269 . S
O326 Zn323 1.986 . S
O326 C333 1.262 . S
O327 Zn322 2.049 . S
O327 C335 1.260 . S
O328 Zn323 1.996 . S
O328 C335 1.257 . S
C329 O324 1.254 . S
C329 O325 1.269 . S
C330 O331 1.249 . S
C330 O332 1.270 . S
O331 Zn323 1.943 . S
O331 C330 1.249 . S
O332 Zn322 2.067 . S
O332 C330 1.270 . S
C333 O326 1.262 . S
C333 O334 1.232 . S
O334 C333 1.232 . S
C335 O327 1.260 . S
C335 O328 1.257 . S
H336 C354 0.951 . S
H337 C356 0.951 . S
H338 C358 0.950 . S
H339 C359 0.950 . S
H340 C361 0.950 . S
H341 C364 0.950 . S
H342 C365 0.950 . S
H343 C367 0.950 . S
H344 C368 0.950 . S
H345 C369 0.951 . S
H346 C371 0.951 . S
H347 C373 0.950 . S
H348 C374 0.950 . S
H349 C376 0.950 . S
H350 C379 0.950 . S
H351 C380 0.950 . S
H352 C382 0.950 . S
H353 C383 0.950 . S
C354 H336 0.951 . S
C354 C355 1.366 . S
C354 C356 1.388 . S
C355 C354 1.366 . S
C355 C359 1.385 . S
C356 H337 0.951 . S
C356 C354 1.388 . S
C356 C357 1.366 . S
C357 C356 1.366 . S
C357 C358 1.414 . S
C357 C360 1.499 . S
C358 H338 0.950 . S
C358 C357 1.414 . S
C358 C359 1.374 . S
C359 H339 0.950 . S
C359 C355 1.385 . S
C359 C358 1.374 . S
C360 C357 1.499 . S
C360 C361 1.373 . S
C360 C362 1.389 . S
C361 H340 0.950 . S
C361 C360 1.373 . S
C361 C377 1.377 . S
C362 C360 1.389 . S
C362 C363 1.524 . S
C362 C376 1.377 . S
C363 C362 1.524 . S
C363 C364 1.397 . S
C363 C368 1.363 . S
C364 H341 0.950 . S
C364 C363 1.397 . S
C364 C365 1.334 . S
C365 H342 0.950 . S
C365 C364 1.334 . S
C365 C366 1.287 . S
C366 C365 1.287 . S
C366 C367 1.524 . S
C366 H385 0.913 . S
C367 H343 0.950 . S
C367 C366 1.524 . S
C367 C368 1.415 . S
C368 H344 0.950 . S
C368 C363 1.363 . S
C368 C367 1.415 . S
C369 H345 0.951 . S
C369 C370 1.366 . S
C369 C371 1.388 . S
C370 C369 1.366 . S
C370 C374 1.385 . S
C371 H346 0.951 . S
C371 C369 1.388 . S
C371 C372 1.366 . S
C372 C371 1.366 . S
C372 C373 1.414 . S
C372 C375 1.499 . S
C373 H347 0.950 . S
C373 C372 1.414 . S
C373 C374 1.374 . S
C374 H348 0.950 . S
C374 C370 1.385 . S
C374 C373 1.374 . S
C375 C372 1.499 . S
C375 C376 1.373 . S
C375 C377 1.389 . S
C376 H349 0.950 . S
C376 C362 1.377 . S
C376 C375 1.373 . S
C377 C361 1.377 . S
C377 C375 1.389 . S
C377 C378 1.524 . S
C378 C377 1.524 . S
C378 C379 1.397 . S
C378 C383 1.363 . S
C379 H350 0.950 . S
C379 C378 1.397 . S
C379 C380 1.334 1_455 S
C380 H351 0.950 . S
C380 C379 1.334 1_655 S
C380 C381 1.287 . S
C381 C380 1.287 . S
C381 C382 1.524 1_655 S
C381 H384 0.999 . S
C382 H352 0.950 . S
C382 C381 1.524 1_455 S
C382 C383 1.415 . S
C383 H353 0.950 . S
C383 C378 1.363 . S
C383 C382 1.415 . S
H384 C381 0.999 . S
H385 C366 0.913 . S
H386 C404 0.951 . S
H387 C406 0.951 . S
H388 C408 0.950 . S
H389 C409 0.950 . S
H390 C411 0.950 . S
H391 C414 0.950 . S
H392 C415 0.950 . S
H393 C417 0.950 . S
H394 C418 0.950 . S
H395 C419 0.951 . S
H396 C421 0.951 . S
H397 C423 0.950 . S
H398 C424 0.950 . S
H399 C426 0.950 . S
H400 C429 0.950 . S
H401 C430 0.950 . S
H402 C432 0.950 . S
H403 C433 0.950 . S
C404 H386 0.951 . S
C404 C405 1.366 . S
C404 C406 1.388 . S
C405 C404 1.366 . S
C405 C409 1.385 . S
C406 H387 0.951 . S
C406 C404 1.388 . S
C406 C407 1.366 . S
C407 C406 1.366 . S
C407 C408 1.414 . S
C407 C410 1.499 . S
C408 H388 0.950 . S
C408 C407 1.414 . S
C408 C409 1.374 . S
C409 H389 0.950 . S
C409 C405 1.385 . S
C409 C408 1.374 . S
C410 C407 1.499 . S
C410 C411 1.373 . S
C410 C412 1.389 . S
C411 H390 0.950 . S
C411 C410 1.373 . S
C411 C427 1.377 . S
C412 C410 1.389 . S
C412 C413 1.524 . S
C412 C426 1.377 . S
C413 C412 1.524 . S
C413 C414 1.397 . S
C413 C418 1.363 . S
C414 H391 0.950 . S
C414 C413 1.397 . S
C414 C415 1.334 . S
C415 H392 0.950 . S
C415 C414 1.334 . S
C415 C416 1.287 . S
C416 C415 1.287 . S
C416 C417 1.524 . S
C416 H435 0.913 . S
C417 H393 0.950 . S
C417 C416 1.524 . S
C417 C418 1.415 . S
C418 H394 0.950 . S
C418 C413 1.363 . S
C418 C417 1.415 . S
C419 H395 0.951 . S
C419 C420 1.366 . S
C419 C421 1.388 . S
C420 C419 1.366 . S
C420 C424 1.385 . S
C421 H396 0.951 . S
C421 C419 1.388 . S
C421 C422 1.366 . S
C422 C421 1.366 . S
C422 C423 1.414 . S
C422 C425 1.499 . S
C423 H397 0.950 . S
C423 C422 1.414 . S
C423 C424 1.374 . S
C424 H398 0.950 . S
C424 C420 1.385 . S
C424 C423 1.374 . S
C425 C422 1.499 . S
C425 C426 1.373 . S
C425 C427 1.389 . S
C426 H399 0.950 . S
C426 C412 1.377 . S
C426 C425 1.373 . S
C427 C411 1.377 . S
C427 C425 1.389 . S
C427 C428 1.524 . S
C428 C427 1.524 . S
C428 C429 1.397 . S
C428 C433 1.363 . S
C429 H400 0.950 . S
C429 C428 1.397 . S
C429 C430 1.334 . S
C430 H401 0.950 . S
C430 C429 1.334 . S
C430 C431 1.287 . S
C431 C430 1.287 . S
C431 C432 1.524 . S
C431 H434 0.999 . S
C432 H402 0.950 . S
C432 C431 1.524 . S
C432 C433 1.415 . S
C433 H403 0.950 . S
C433 C428 1.363 . S
C433 C432 1.415 . S
H434 C431 0.999 . S
H435 C416 0.913 . S
H436 C454 0.951 . S
H437 C456 0.951 . S
H438 C458 0.950 . S
H439 C459 0.950 . S
H440 C461 0.950 . S
H441 C464 0.950 . S
H442 C465 0.950 . S
H443 C467 0.950 . S
H444 C468 0.950 . S
H445 C469 0.951 . S
H446 C471 0.951 . S
H447 C473 0.950 . S
H448 C474 0.950 . S
H449 C476 0.950 . S
H450 C479 0.950 . S
H451 C480 0.950 . S
H452 C482 0.950 . S
H453 C483 0.950 . S
C454 H436 0.951 . S
C454 C455 1.366 . S
C454 C456 1.388 . S
C455 C454 1.366 . S
C455 C459 1.385 . S
C456 H437 0.951 . S
C456 C454 1.388 . S
C456 C457 1.366 . S
C457 C456 1.366 . S
C457 C458 1.414 . S
C457 C460 1.499 . S
C458 H438 0.950 . S
C458 C457 1.414 . S
C458 C459 1.374 . S
C459 H439 0.950 . S
C459 C455 1.385 . S
C459 C458 1.374 . S
C460 C457 1.499 . S
C460 C461 1.373 . S
C460 C462 1.389 . S
C461 H440 0.950 . S
C461 C460 1.373 . S
C461 C477 1.377 . S
C462 C460 1.389 . S
C462 C463 1.524 . S
C462 C476 1.377 . S
C463 C462 1.524 . S
C463 C464 1.397 . S
C463 C468 1.363 . S
C464 H441 0.950 . S
C464 C463 1.397 . S
C464 C465 1.334 . S
C465 H442 0.950 . S
C465 C464 1.334 . S
C465 C466 1.287 . S
C466 C465 1.287 . S
C466 C467 1.524 . S
C466 H485 0.913 . S
C467 H443 0.950 . S
C467 C466 1.524 . S
C467 C468 1.415 . S
C468 H444 0.950 . S
C468 C463 1.363 . S
C468 C467 1.415 . S
C469 H445 0.951 . S
C469 C470 1.366 . S
C469 C471 1.388 . S
C470 C469 1.366 . S
C470 C474 1.385 . S
C471 H446 0.951 . S
C471 C469 1.388 . S
C471 C472 1.366 . S
C472 C471 1.366 . S
C472 C473 1.414 . S
C472 C475 1.499 . S
C473 H447 0.950 . S
C473 C472 1.414 . S
C473 C474 1.374 . S
C474 H448 0.950 . S
C474 C470 1.385 . S
C474 C473 1.374 . S
C475 C472 1.499 . S
C475 C476 1.373 . S
C475 C477 1.389 . S
C476 H449 0.950 . S
C476 C462 1.377 . S
C476 C475 1.373 . S
C477 C461 1.377 . S
C477 C475 1.389 . S
C477 C478 1.524 . S
C478 C477 1.524 . S
C478 C479 1.397 . S
C478 C483 1.363 . S
C479 H450 0.950 . S
C479 C478 1.397 . S
C479 C480 1.334 . S
C480 H451 0.950 . S
C480 C479 1.334 . S
C480 C481 1.287 . S
C481 C480 1.287 . S
C481 C482 1.524 . S
C481 H484 0.999 . S
C482 H452 0.950 . S
C482 C481 1.524 . S
C482 C483 1.415 . S
C483 H453 0.950 . S
C483 C478 1.363 . S
C483 C482 1.415 . S
H484 C481 0.999 . S
H485 C466 0.913 . S
H486 C504 0.951 . S
H487 C506 0.951 . S
H488 C508 0.950 . S
H489 C509 0.950 . S
H490 C511 0.950 . S
H491 C514 0.950 . S
H492 C515 0.950 . S
H493 C517 0.950 . S
H494 C518 0.950 . S
H495 C519 0.951 . S
H496 C521 0.951 . S
H497 C523 0.950 . S
H498 C524 0.950 . S
H499 C526 0.950 . S
H500 C529 0.950 . S
H501 C530 0.950 . S
H502 C532 0.950 . S
H503 C533 0.950 . S
C504 H486 0.951 . S
C504 C505 1.366 . S
C504 C506 1.388 . S
C505 C504 1.366 . S
C505 C509 1.385 . S
C506 H487 0.951 . S
C506 C504 1.388 . S
C506 C507 1.366 . S
C507 C506 1.366 . S
C507 C508 1.414 . S
C507 C510 1.499 . S
C508 H488 0.950 . S
C508 C507 1.414 . S
C508 C509 1.374 . S
C509 H489 0.950 . S
C509 C505 1.385 . S
C509 C508 1.374 . S
C510 C507 1.499 . S
C510 C511 1.373 . S
C510 C512 1.389 . S
C511 H490 0.950 . S
C511 C510 1.373 . S
C511 C527 1.377 . S
C512 C510 1.389 . S
C512 C513 1.524 . S
C512 C526 1.377 . S
C513 C512 1.524 . S
C513 C514 1.397 . S
C513 C518 1.363 . S
C514 H491 0.950 . S
C514 C513 1.397 . S
C514 C515 1.334 . S
C515 H492 0.950 . S
C515 C514 1.334 . S
C515 C516 1.287 . S
C516 C515 1.287 . S
C516 C517 1.524 1_554 S
C516 H535 0.913 1_554 S
C517 H493 0.950 . S
C517 C516 1.524 1_556 S
C517 C518 1.415 1_556 S
C518 H494 0.950 . S
C518 C513 1.363 . S
C518 C517 1.415 1_554 S
C519 H495 0.951 . S
C519 C520 1.366 . S
C519 C521 1.388 . S
C520 C519 1.366 . S
C520 C524 1.385 . S
C521 H496 0.951 . S
C521 C519 1.388 . S
C521 C522 1.366 . S
C522 C521 1.366 . S
C522 C523 1.414 . S
C522 C525 1.499 . S
C523 H497 0.950 . S
C523 C522 1.414 . S
C523 C524 1.374 . S
C524 H498 0.950 . S
C524 C520 1.385 . S
C524 C523 1.374 . S
C525 C522 1.499 . S
C525 C526 1.373 . S
C525 C527 1.389 . S
C526 H499 0.950 . S
C526 C512 1.377 . S
C526 C525 1.373 . S
C527 C511 1.377 . S
C527 C525 1.389 . S
C527 C528 1.524 . S
C528 C527 1.524 . S
C528 C529 1.397 . S
C528 C533 1.363 . S
C529 H500 0.950 . S
C529 C528 1.397 . S
C529 C530 1.334 . S
C530 H501 0.950 . S
C530 C529 1.334 . S
C530 C531 1.287 . S
C531 C530 1.287 . S
C531 C532 1.524 . S
C531 H534 0.999 . S
C532 H502 0.950 . S
C532 C531 1.524 . S
C532 C533 1.415 . S
C533 H503 0.950 . S
C533 C528 1.363 . S
C533 C532 1.415 . S
H534 C531 0.999 . S
H535 C516 0.913 1_556 S
H536 C554 0.951 . S
H537 C556 0.951 . S
H538 C558 0.950 . S
H539 C559 0.950 . S
H540 C561 0.950 . S
H541 C564 0.950 . S
H542 C565 0.950 . S
H543 C567 0.950 . S
H544 C568 0.950 . S
H545 C569 0.951 . S
H546 C571 0.951 . S
H547 C573 0.950 . S
H548 C574 0.950 . S
H549 C576 0.950 . S
H550 C579 0.950 . S
H551 C580 0.950 . S
H552 C582 0.950 . S
H553 C583 0.950 . S
C554 H536 0.951 . S
C554 C555 1.366 . S
C554 C556 1.388 . S
C555 C554 1.366 . S
C555 C559 1.385 . S
C556 H537 0.951 . S
C556 C554 1.388 . S
C556 C557 1.366 . S
C557 C556 1.366 . S
C557 C558 1.414 . S
C557 C560 1.499 . S
C558 H538 0.950 . S
C558 C557 1.414 . S
C558 C559 1.374 . S
C559 H539 0.950 . S
C559 C555 1.385 . S
C559 C558 1.374 . S
C560 C557 1.499 . S
C560 C561 1.373 . S
C560 C562 1.389 . S
C561 H540 0.950 . S
C561 C560 1.373 . S
C561 C577 1.377 . S
C562 C560 1.389 . S
C562 C563 1.524 . S
C562 C576 1.377 . S
C563 C562 1.524 . S
C563 C564 1.397 . S
C563 C568 1.363 . S
C564 H541 0.950 . S
C564 C563 1.397 . S
C564 C565 1.334 . S
C565 H542 0.950 . S
C565 C564 1.334 . S
C565 C566 1.287 . S
C566 C565 1.287 . S
C566 C567 1.524 . S
C566 H585 0.913 . S
C567 H543 0.950 . S
C567 C566 1.524 . S
C567 C568 1.415 . S
C568 H544 0.950 . S
C568 C563 1.363 . S
C568 C567 1.415 . S
C569 H545 0.951 . S
C569 C570 1.366 . S
C569 C571 1.388 . S
C570 C569 1.366 . S
C570 C574 1.385 . S
C571 H546 0.951 . S
C571 C569 1.388 . S
C571 C572 1.366 . S
C572 C571 1.366 . S
C572 C573 1.414 . S
C572 C575 1.499 . S
C573 H547 0.950 . S
C573 C572 1.414 . S
C573 C574 1.374 . S
C574 H548 0.950 . S
C574 C570 1.385 . S
C574 C573 1.374 . S
C575 C572 1.499 . S
C575 C576 1.373 . S
C575 C577 1.389 . S
C576 H549 0.950 . S
C576 C562 1.377 . S
C576 C575 1.373 . S
C577 C561 1.377 . S
C577 C575 1.389 . S
C577 C578 1.524 . S
C578 C577 1.524 . S
C578 C579 1.397 . S
C578 C583 1.363 . S
C579 H550 0.950 . S
C579 C578 1.397 . S
C579 C580 1.334 . S
C580 H551 0.950 . S
C580 C579 1.334 . S
C580 C581 1.287 1_455 S
C581 C580 1.287 1_655 S
C581 C582 1.524 . S
C581 H584 0.999 . S
C582 H552 0.950 . S
C582 C581 1.524 . S
C582 C583 1.415 1_655 S
C583 H553 0.950 . S
C583 C578 1.363 . S
C583 C582 1.415 1_455 S
H584 C581 0.999 . S
H585 C566 0.913 . S
H586 C604 0.951 . S
H587 C606 0.951 . S
H588 C608 0.950 . S
H589 C609 0.950 . S
H590 C611 0.950 . S
H591 C614 0.950 . S
H592 C615 0.950 . S
H593 C617 0.950 . S
H594 C618 0.950 . S
H595 C619 0.951 . S
H596 C621 0.951 . S
H597 C623 0.950 . S
H598 C624 0.950 . S
H599 C626 0.950 . S
H600 C629 0.950 . S
H601 C630 0.950 . S
H602 C632 0.950 . S
H603 C633 0.950 . S
C604 H586 0.951 . S
C604 C605 1.366 . S
C604 C606 1.388 . S
C605 C604 1.366 . S
C605 C609 1.385 . S
C606 H587 0.951 . S
C606 C604 1.388 . S
C606 C607 1.366 . S
C607 C606 1.366 . S
C607 C608 1.414 . S
C607 C610 1.499 . S
C608 H588 0.950 . S
C608 C607 1.414 . S
C608 C609 1.374 . S
C609 H589 0.950 . S
C609 C605 1.385 . S
C609 C608 1.374 . S
C610 C607 1.499 . S
C610 C611 1.373 . S
C610 C612 1.389 . S
C611 H590 0.950 . S
C611 C610 1.373 . S
C611 C627 1.377 . S
C612 C610 1.389 . S
C612 C613 1.524 . S
C612 C626 1.377 . S
C613 C612 1.524 . S
C613 C614 1.397 . S
C613 C618 1.363 . S
C614 H591 0.950 . S
C614 C613 1.397 . S
C614 C615 1.334 . S
C615 H592 0.950 . S
C615 C614 1.334 . S
C615 C616 1.287 . S
C616 C615 1.287 . S
C616 C617 1.524 . S
C616 H635 0.913 . S
C617 H593 0.950 . S
C617 C616 1.524 . S
C617 C618 1.415 . S
C618 H594 0.950 . S
C618 C613 1.363 . S
C618 C617 1.415 . S
C619 H595 0.951 . S
C619 C620 1.366 . S
C619 C621 1.388 . S
C620 C619 1.366 . S
C620 C624 1.385 . S
C621 H596 0.951 . S
C621 C619 1.388 . S
C621 C622 1.366 . S
C622 C621 1.366 . S
C622 C623 1.414 . S
C622 C625 1.499 . S
C623 H597 0.950 . S
C623 C622 1.414 . S
C623 C624 1.374 . S
C624 H598 0.950 . S
C624 C620 1.385 . S
C624 C623 1.374 . S
C625 C622 1.499 . S
C625 C626 1.373 . S
C625 C627 1.389 . S
C626 H599 0.950 . S
C626 C612 1.377 . S
C626 C625 1.373 . S
C627 C611 1.377 . S
C627 C625 1.389 . S
C627 C628 1.524 . S
C628 C627 1.524 . S
C628 C629 1.397 . S
C628 C633 1.363 . S
C629 H600 0.950 . S
C629 C628 1.397 . S
C629 C630 1.334 . S
C630 H601 0.950 . S
C630 C629 1.334 . S
C630 C631 1.287 . S
C631 C630 1.287 . S
C631 C632 1.524 . S
C631 H634 0.999 . S
C632 H602 0.950 . S
C632 C631 1.524 . S
C632 C633 1.415 . S
C633 H603 0.950 . S
C633 C628 1.363 . S
C633 C632 1.415 . S
H634 C631 0.999 . S
H635 C616 0.913 . S
H636 C654 0.951 . S
H637 C656 0.951 . S
H638 C658 0.950 . S
H639 C659 0.950 . S
H640 C661 0.950 . S
H641 C664 0.950 . S
H642 C665 0.950 . S
H643 C667 0.950 . S
H644 C668 0.950 . S
H645 C669 0.951 . S
H646 C671 0.951 . S
H647 C673 0.950 . S
H648 C674 0.950 . S
H649 C676 0.950 . S
H650 C679 0.950 . S
H651 C680 0.950 . S
H652 C682 0.950 . S
H653 C683 0.950 . S
C654 H636 0.951 . S
C654 C655 1.366 . S
C654 C656 1.388 . S
C655 C654 1.366 . S
C655 C659 1.385 . S
C656 H637 0.951 . S
C656 C654 1.388 . S
C656 C657 1.366 . S
C657 C656 1.366 . S
C657 C658 1.414 . S
C657 C660 1.499 . S
C658 H638 0.950 . S
C658 C657 1.414 . S
C658 C659 1.374 . S
C659 H639 0.950 . S
C659 C655 1.385 . S
C659 C658 1.374 . S
C660 C657 1.499 . S
C660 C661 1.373 . S
C660 C662 1.389 . S
C661 H640 0.950 . S
C661 C660 1.373 . S
C661 C677 1.377 . S
C662 C660 1.389 . S
C662 C663 1.524 . S
C662 C676 1.377 . S
C663 C662 1.524 . S
C663 C664 1.397 . S
C663 C668 1.363 . S
C664 H641 0.950 . S
C664 C663 1.397 . S
C664 C665 1.334 . S
C665 H642 0.950 . S
C665 C664 1.334 . S
C665 C666 1.287 . S
C666 C665 1.287 . S
C666 C667 1.524 . S
C666 H685 0.913 . S
C667 H643 0.950 . S
C667 C666 1.524 . S
C667 C668 1.415 . S
C668 H644 0.950 . S
C668 C663 1.363 . S
C668 C667 1.415 . S
C669 H645 0.951 . S
C669 C670 1.366 . S
C669 C671 1.388 . S
C670 C669 1.366 . S
C670 C674 1.385 . S
C671 H646 0.951 . S
C671 C669 1.388 . S
C671 C672 1.366 . S
C672 C671 1.366 . S
C672 C673 1.414 . S
C672 C675 1.499 . S
C673 H647 0.950 . S
C673 C672 1.414 . S
C673 C674 1.374 . S
C674 H648 0.950 . S
C674 C670 1.385 . S
C674 C673 1.374 . S
C675 C672 1.499 . S
C675 C676 1.373 . S
C675 C677 1.389 . S
C676 H649 0.950 . S
C676 C662 1.377 . S
C676 C675 1.373 . S
C677 C661 1.377 . S
C677 C675 1.389 . S
C677 C678 1.524 . S
C678 C677 1.524 . S
C678 C679 1.397 . S
C678 C683 1.363 . S
C679 H650 0.950 . S
C679 C678 1.397 . S
C679 C680 1.334 . S
C680 H651 0.950 . S
C680 C679 1.334 . S
C680 C681 1.287 . S
C681 C680 1.287 . S
C681 C682 1.524 . S
C681 H684 0.999 . S
C682 H652 0.950 . S
C682 C681 1.524 . S
C682 C683 1.415 . S
C683 H653 0.950 . S
C683 C678 1.363 . S
C683 C682 1.415 . S
H684 C681 0.999 . S
H685 C666 0.913 . S
H686 C704 0.951 . S
H687 C706 0.951 . S
H688 C708 0.950 . S
H689 C709 0.950 . S
H690 C711 0.950 . S
H691 C714 0.950 . S
H692 C715 0.950 . S
H693 C717 0.950 . S
H694 C718 0.950 . S
H695 C719 0.951 . S
H696 C721 0.951 . S
H697 C723 0.950 . S
H698 C724 0.950 . S
H699 C726 0.950 . S
H700 C729 0.950 . S
H701 C730 0.950 . S
H702 C732 0.950 . S
H703 C733 0.950 . S
C704 H686 0.951 . S
C704 C705 1.366 . S
C704 C706 1.388 . S
C705 C704 1.366 . S
C705 C709 1.385 . S
C706 H687 0.951 . S
C706 C704 1.388 . S
C706 C707 1.366 . S
C707 C706 1.366 . S
C707 C708 1.414 . S
C707 C710 1.499 . S
C708 H688 0.950 . S
C708 C707 1.414 . S
C708 C709 1.374 . S
C709 H689 0.950 . S
C709 C705 1.385 . S
C709 C708 1.374 . S
C710 C707 1.499 . S
C710 C711 1.373 . S
C710 C712 1.389 . S
C711 H690 0.950 . S
C711 C710 1.373 . S
C711 C727 1.377 . S
C712 C710 1.389 . S
C712 C713 1.524 . S
C712 C726 1.377 . S
C713 C712 1.524 . S
C713 C714 1.397 . S
C713 C718 1.363 . S
C714 H691 0.950 . S
C714 C713 1.397 . S
C714 C715 1.334 . S
C715 H692 0.950 . S
C715 C714 1.334 . S
C715 C716 1.287 . S
C716 C715 1.287 . S
C716 C717 1.524 . S
C716 H735 0.913 . S
C717 H693 0.950 . S
C717 C716 1.524 . S
C717 C718 1.415 . S
C718 H694 0.950 . S
C718 C713 1.363 . S
C718 C717 1.415 . S
C719 H695 0.951 . S
C719 C720 1.366 . S
C719 C721 1.388 . S
C720 C719 1.366 . S
C720 C724 1.385 . S
C721 H696 0.951 . S
C721 C719 1.388 . S
C721 C722 1.366 . S
C722 C721 1.366 . S
C722 C723 1.414 . S
C722 C725 1.499 . S
C723 H697 0.950 . S
C723 C722 1.414 . S
C723 C724 1.374 . S
C724 H698 0.950 . S
C724 C720 1.385 . S
C724 C723 1.374 . S
C725 C722 1.499 . S
C725 C726 1.373 . S
C725 C727 1.389 . S
C726 H699 0.950 . S
C726 C712 1.377 . S
C726 C725 1.373 . S
C727 C711 1.377 . S
C727 C725 1.389 . S
C727 C728 1.524 . S
C728 C727 1.524 . S
C728 C729 1.397 . S
C728 C733 1.363 . S
C729 H700 0.950 . S
C729 C728 1.397 . S
C729 C730 1.334 . S
C730 H701 0.950 . S
C730 C729 1.334 . S
C730 C731 1.287 . S
C731 C730 1.287 . S
C731 C732 1.524 . S
C731 H734 0.999 . S
C732 H702 0.950 . S
C732 C731 1.524 . S
C732 C733 1.415 . S
C733 H703 0.950 . S
C733 C728 1.363 . S
C733 C732 1.415 . S
H734 C731 0.999 . S
H735 C716 0.913 . S
H736 C754 0.951 . S
H737 C756 0.951 . S
H738 C758 0.950 . S
H739 C759 0.950 . S
H740 C761 0.950 . S
H741 C764 0.950 . S
H742 C765 0.950 . S
H743 C767 0.950 . S
H744 C768 0.950 . S
H745 C769 0.951 . S
H746 C771 0.951 . S
H747 C773 0.950 . S
H748 C774 0.950 . S
H749 C776 0.950 . S
H750 C779 0.950 . S
H751 C780 0.950 . S
H752 C782 0.947 1_565 S
H753 C783 0.950 . S
C754 H736 0.951 . S
C754 C755 1.366 . S
C754 C756 1.388 . S
C755 C754 1.366 . S
C755 C759 1.385 . S
C756 H737 0.951 . S
C756 C754 1.388 . S
C756 C757 1.366 . S
C757 C756 1.366 . S
C757 C758 1.414 . S
C757 C760 1.499 . S
C758 H738 0.950 . S
C758 C757 1.414 . S
C758 C759 1.374 . S
C759 H739 0.950 . S
C759 C755 1.385 . S
C759 C758 1.374 . S
C760 C757 1.499 . S
C760 C761 1.373 . S
C760 C762 1.389 . S
C761 H740 0.950 . S
C761 C760 1.373 . S
C761 C777 1.377 . S
C762 C760 1.389 . S
C762 C763 1.524 . S
C762 C776 1.377 . S
C763 C762 1.524 . S
C763 C764 1.397 . S
C763 C768 1.363 . S
C764 H741 0.950 . S
C764 C763 1.397 . S
C764 C765 1.334 . S
C765 H742 0.950 . S
C765 C764 1.334 . S
C765 C766 1.287 . S
C766 C765 1.287 . S
C766 C767 1.524 . S
C766 H785 0.913 . S
C767 H743 0.950 . S
C767 C766 1.524 . S
C767 C768 1.415 . S
C768 H744 0.950 . S
C768 C763 1.363 . S
C768 C767 1.415 . S
C769 H745 0.951 . S
C769 C770 1.366 . S
C769 C771 1.388 . S
C770 C769 1.366 . S
C770 C774 1.385 . S
C771 H746 0.951 . S
C771 C769 1.388 . S
C771 C772 1.366 . S
C772 C771 1.366 . S
C772 C773 1.414 . S
C772 C775 1.499 . S
C773 H747 0.950 . S
C773 C772 1.414 . S
C773 C774 1.374 . S
C774 H748 0.950 . S
C774 C770 1.385 . S
C774 C773 1.374 . S
C775 C772 1.499 . S
C775 C776 1.373 . S
C775 C777 1.389 . S
C776 H749 0.950 . S
C776 C762 1.377 . S
C776 C775 1.373 . S
C777 C761 1.377 . S
C777 C775 1.389 . S
C777 C778 1.524 . S
C778 C777 1.524 . S
C778 C779 1.397 . S
C778 C783 1.363 . S
C779 H750 0.950 . S
C779 C778 1.397 . S
C779 C780 1.334 . S
C780 H751 0.950 . S
C780 C779 1.334 . S
C780 C781 1.287 . S
C781 C780 1.287 . S
C781 C782 1.524 . S
C781 H784 0.999 . S
C782 H752 0.947 1_545 S
C782 C781 1.524 . S
C782 C783 1.415 . S
C783 H753 0.950 . S
C783 C778 1.363 . S
C783 C782 1.415 . S
H784 C781 0.999 . S
H785 C766 0.913 . S
H786 C804 0.951 . S
H787 C806 0.951 . S
H788 C808 0.950 . S
H789 C809 0.950 . S
H790 C811 0.950 . S
H791 C814 0.950 . S
H792 C815 0.950 . S
H793 C817 0.950 . S
H794 C818 0.950 . S
H795 C819 0.951 . S
H796 C821 0.951 . S
H797 C823 0.950 . S
H798 C824 0.950 . S
H799 C826 0.950 . S
H800 C829 0.950 . S
H801 C830 0.950 . S
H802 C832 0.950 . S
H803 C833 0.950 . S
C804 H786 0.951 . S
C804 C805 1.366 . S
C804 C806 1.388 . S
C805 C804 1.366 . S
C805 C809 1.385 . S
C806 H787 0.951 . S
C806 C804 1.388 . S
C806 C807 1.366 . S
C807 C806 1.366 . S
C807 C808 1.414 . S
C807 C810 1.499 . S
C808 H788 0.950 . S
C808 C807 1.414 . S
C808 C809 1.374 . S
C809 H789 0.950 . S
C809 C805 1.385 . S
C809 C808 1.374 . S
C810 C807 1.499 . S
C810 C811 1.373 . S
C810 C812 1.389 . S
C811 H790 0.950 . S
C811 C810 1.373 . S
C811 C827 1.377 . S
C812 C810 1.389 . S
C812 C813 1.524 . S
C812 C826 1.377 . S
C813 C812 1.524 . S
C813 C814 1.397 . S
C813 C818 1.363 . S
C814 H791 0.950 . S
C814 C813 1.397 . S
C814 C815 1.334 . S
C815 H792 0.950 . S
C815 C814 1.334 . S
C815 C816 1.287 . S
C816 C815 1.287 . S
C816 C817 1.524 . S
C816 H835 0.913 . S
C817 H793 0.950 . S
C817 C816 1.524 . S
C817 C818 1.415 . S
C818 H794 0.950 . S
C818 C813 1.363 . S
C818 C817 1.415 . S
C819 H795 0.951 . S
C819 C820 1.366 . S
C819 C821 1.388 . S
C820 C819 1.366 . S
C820 C824 1.385 . S
C821 H796 0.951 . S
C821 C819 1.388 . S
C821 C822 1.366 . S
C822 C821 1.366 . S
C822 C823 1.414 . S
C822 C825 1.499 . S
C823 H797 0.950 . S
C823 C822 1.414 . S
C823 C824 1.374 . S
C824 H798 0.950 . S
C824 C820 1.385 . S
C824 C823 1.374 . S
C825 C822 1.499 . S
C825 C826 1.373 . S
C825 C827 1.389 . S
C826 H799 0.950 . S
C826 C812 1.377 . S
C826 C825 1.373 . S
C827 C811 1.377 . S
C827 C825 1.389 . S
C827 C828 1.524 . S
C828 C827 1.524 . S
C828 C829 1.397 . S
C828 C833 1.363 . S
C829 H800 0.950 . S
C829 C828 1.397 . S
C829 C830 1.334 . S
C830 H801 0.950 . S
C830 C829 1.334 . S
C830 C831 1.287 . S
C831 C830 1.287 . S
C831 C832 1.524 1_545 S
C831 H834 0.999 1_545 S
C832 H802 0.950 . S
C832 C831 1.524 1_565 S
C832 C833 1.415 1_565 S
C833 H803 0.950 . S
C833 C828 1.363 . S
C833 C832 1.415 1_545 S
H834 C831 0.999 1_565 S
H835 C816 0.913 . S
H836 C854 0.951 1_545 S
H837 C856 0.951 . S
H838 C858 0.950 . S
H839 C859 0.950 . S
H840 C861 0.950 . S
H841 C864 0.950 . S
H842 C865 0.950 . S
H843 C867 0.950 . S
H844 C868 0.950 . S
H845 C869 0.951 . S
H846 C871 0.951 . S
H847 C873 0.950 . S
H848 C874 0.950 . S
H849 C876 0.950 . S
H850 C879 0.950 . S
H851 C880 0.950 . S
H852 C882 0.950 . S
H853 C883 0.950 . S
C854 H836 0.951 1_565 S
C854 C855 1.366 . S
C854 C856 1.388 . S
C855 C854 1.366 . S
C855 C859 1.385 . S
C856 H837 0.951 . S
C856 C854 1.388 . S
C856 C857 1.366 . S
C857 C856 1.366 . S
C857 C858 1.414 . S
C857 C860 1.499 . S
C858 H838 0.950 . S
C858 C857 1.414 . S
C858 C859 1.374 . S
C859 H839 0.950 . S
C859 C855 1.385 . S
C859 C858 1.374 . S
C860 C857 1.499 . S
C860 C861 1.373 . S
C860 C862 1.389 . S
C861 H840 0.950 . S
C861 C860 1.373 . S
C861 C877 1.377 . S
C862 C860 1.389 . S
C862 C863 1.524 . S
C862 C876 1.377 . S
C863 C862 1.524 . S
C863 C864 1.397 . S
C863 C868 1.363 . S
C864 H841 0.950 . S
C864 C863 1.397 . S
C864 C865 1.334 . S
C865 H842 0.950 . S
C865 C864 1.334 . S
C865 C866 1.287 . S
C866 C865 1.287 . S
C866 C867 1.524 . S
C866 H885 0.913 . S
C867 H843 0.950 . S
C867 C866 1.524 . S
C867 C868 1.415 . S
C868 H844 0.950 . S
C868 C863 1.363 . S
C868 C867 1.415 . S
C869 H845 0.951 . S
C869 C870 1.366 . S
C869 C871 1.388 . S
C870 C869 1.366 . S
C870 C874 1.385 . S
C871 H846 0.951 . S
C871 C869 1.388 . S
C871 C872 1.366 . S
C872 C871 1.366 . S
C872 C873 1.414 . S
C872 C875 1.499 . S
C873 H847 0.950 . S
C873 C872 1.414 . S
C873 C874 1.374 . S
C874 H848 0.950 . S
C874 C870 1.385 . S
C874 C873 1.374 . S
C875 C872 1.499 . S
C875 C876 1.373 . S
C875 C877 1.389 . S
C876 H849 0.950 . S
C876 C862 1.377 . S
C876 C875 1.373 . S
C877 C861 1.377 . S
C877 C875 1.389 . S
C877 C878 1.524 . S
C878 C877 1.524 . S
C878 C879 1.397 . S
C878 C883 1.363 . S
C879 H850 0.950 . S
C879 C878 1.397 . S
C879 C880 1.334 . S
C880 H851 0.950 . S
C880 C879 1.334 . S
C880 C881 1.287 . S
C881 C880 1.287 . S
C881 C882 1.524 . S
C881 H884 0.999 . S
C882 H852 0.950 . S
C882 C881 1.524 . S
C882 C883 1.415 . S
C883 H853 0.950 . S
C883 C878 1.363 . S
C883 C882 1.415 . S
H884 C881 0.999 . S
H885 C866 0.913 . S
H886 C904 0.951 . S
H887 C906 0.951 . S
H888 C908 0.950 . S
H889 C909 0.950 . S
H890 C911 0.950 . S
H891 C914 0.950 . S
H892 C915 0.950 . S
H893 C917 0.950 . S
H894 C918 0.950 . S
H895 C919 0.952 . S
H896 C921 0.951 . S
H897 C923 0.950 . S
H898 C924 0.950 . S
H899 C926 0.950 . S
H900 C929 0.950 . S
H901 C930 0.950 . S
H902 C932 0.950 . S
H903 C933 0.950 . S
C904 H886 0.951 . S
C904 C905 1.366 . S
C904 C906 1.388 . S
C905 C904 1.366 . S
C905 C909 1.385 . S
C906 H887 0.951 . S
C906 C904 1.388 . S
C906 C907 1.366 . S
C907 C906 1.366 . S
C907 C908 1.414 . S
C907 C910 1.499 . S
C908 H888 0.950 . S
C908 C907 1.414 . S
C908 C909 1.374 . S
C909 H889 0.950 . S
C909 C905 1.385 . S
C909 C908 1.374 . S
C910 C907 1.499 . S
C910 C911 1.373 . S
C910 C912 1.389 . S
C911 H890 0.950 . S
C911 C910 1.373 . S
C911 C927 1.377 . S
C912 C910 1.389 . S
C912 C913 1.524 . S
C912 C926 1.377 . S
C913 C912 1.524 . S
C913 C914 1.397 . S
C913 C918 1.363 . S
C914 H891 0.950 . S
C914 C913 1.397 . S
C914 C915 1.334 . S
C915 H892 0.950 . S
C915 C914 1.334 . S
C915 C916 1.287 . S
C916 C915 1.287 . S
C916 C917 1.524 . S
C916 H935 0.913 . S
C917 H893 0.950 . S
C917 C916 1.524 . S
C917 C918 1.415 . S
C918 H894 0.950 . S
C918 C913 1.363 . S
C918 C917 1.415 . S
C919 H895 0.952 . S
C919 C920 1.366 . S
C919 C921 1.388 . S
C920 C919 1.366 . S
C920 C924 1.385 . S
C921 H896 0.951 . S
C921 C919 1.388 . S
C921 C922 1.366 . S
C922 C921 1.366 . S
C922 C923 1.414 . S
C922 C925 1.499 . S
C923 H897 0.950 . S
C923 C922 1.414 . S
C923 C924 1.374 . S
C924 H898 0.950 . S
C924 C920 1.385 . S
C924 C923 1.374 . S
C925 C922 1.499 . S
C925 C926 1.373 . S
C925 C927 1.389 . S
C926 H899 0.950 . S
C926 C912 1.377 . S
C926 C925 1.373 . S
C927 C911 1.377 . S
C927 C925 1.389 . S
C927 C928 1.524 . S
C928 C927 1.524 . S
C928 C929 1.397 . S
C928 C933 1.363 . S
C929 H900 0.950 . S
C929 C928 1.397 . S
C929 C930 1.334 . S
C930 H901 0.950 . S
C930 C929 1.334 . S
C930 C931 1.287 . S
C931 C930 1.287 . S
C931 C932 1.524 . S
C931 H934 0.999 . S
C932 H902 0.950 . S
C932 C931 1.524 . S
C932 C933 1.415 . S
C933 H903 0.950 . S
C933 C928 1.363 . S
C933 C932 1.415 . S
H934 C931 0.999 . S
H935 C916 0.913 . S
H936 C954 0.951 . S
H937 C956 0.951 . S
H938 C958 0.950 . S
H939 C959 0.950 . S
H940 C961 0.950 . S
H941 C964 0.950 . S
H942 C965 0.950 . S
H943 C967 0.950 . S
H944 C968 0.950 . S
H945 C969 0.951 . S
H946 C971 0.951 . S
H947 C973 0.950 . S
H948 C974 0.950 . S
H949 C976 0.950 . S
H950 C979 0.950 . S
H951 C980 0.950 . S
H952 C982 0.950 . S
H953 C983 0.950 . S
C954 H936 0.951 . S
C954 C955 1.366 . S
C954 C956 1.388 . S
C955 C954 1.366 . S
C955 C959 1.385 . S
C956 H937 0.951 . S
C956 C954 1.388 . S
C956 C957 1.366 . S
C957 C956 1.366 . S
C957 C958 1.414 . S
C957 C960 1.499 . S
C958 H938 0.950 . S
C958 C957 1.414 . S
C958 C959 1.374 . S
C959 H939 0.950 . S
C959 C955 1.385 . S
C959 C958 1.374 . S
C960 C957 1.499 . S
C960 C961 1.373 . S
C960 C962 1.389 . S
C961 H940 0.950 . S
C961 C960 1.373 . S
C961 C977 1.377 . S
C962 C960 1.389 . S
C962 C963 1.524 . S
C962 C976 1.377 . S
C963 C962 1.524 . S
C963 C964 1.397 . S
C963 C968 1.363 . S
C964 H941 0.950 . S
C964 C963 1.397 . S
C964 C965 1.334 1_554 S
C965 H942 0.950 . S
C965 C964 1.334 1_556 S
C965 C966 1.287 . S
C966 C965 1.287 . S
C966 C967 1.524 . S
C966 H985 0.913 . S
C967 H943 0.950 . S
C967 C966 1.524 . S
C967 C968 1.415 1_556 S
C968 H944 0.950 . S
C968 C963 1.363 . S
C968 C967 1.415 1_554 S
C969 H945 0.951 . S
C969 C970 1.366 . S
C969 C971 1.388 . S
C970 C969 1.366 . S
C970 C974 1.385 . S
C971 H946 0.951 . S
C971 C969 1.388 . S
C971 C972 1.366 . S
C972 C971 1.366 . S
C972 C973 1.414 . S
C972 C975 1.499 . S
C973 H947 0.950 . S
C973 C972 1.414 . S
C973 C974 1.374 . S
C974 H948 0.950 . S
C974 C970 1.385 . S
C974 C973 1.374 . S
C975 C972 1.499 . S
C975 C976 1.373 . S
C975 C977 1.389 . S
C976 H949 0.950 . S
C976 C962 1.377 . S
C976 C975 1.373 . S
C977 C961 1.377 . S
C977 C975 1.389 . S
C977 C978 1.524 . S
C978 C977 1.524 . S
C978 C979 1.397 . S
C978 C983 1.363 . S
C979 H950 0.950 . S
C979 C978 1.397 . S
C979 C980 1.334 . S
C980 H951 0.950 . S
C980 C979 1.334 . S
C980 C981 1.287 . S
C981 C980 1.287 . S
C981 C982 1.524 . S
C981 H984 0.999 . S
C982 H952 0.950 . S
C982 C981 1.524 . S
C982 C983 1.415 . S
C983 H953 0.950 . S
C983 C978 1.363 . S
C983 C982 1.415 . S
H984 C981 0.999 . S
H985 C966 0.913 . S
H986 C1004 0.951 . S
H987 C1006 0.951 . S
H988 C1008 0.950 . S
H989 C1009 0.950 . S
H990 C1011 0.950 . S
H991 C1014 0.959 . S
H992 C1015 0.950 . S
H993 C1017 0.950 . S
H994 C1018 0.950 . S
H995 C1019 0.951 . S
H996 C1021 0.951 . S
H997 C1023 0.950 . S
H998 C1024 0.950 . S
H999 C1026 0.950 . S
H1000 C1029 0.950 . S
H1001 C1030 0.950 . S
H1002 C1032 0.950 . S
H1003 C1033 0.950 . S
C1004 H986 0.951 . S
C1004 C1005 1.366 . S
C1004 C1006 1.388 . S
C1005 C1004 1.366 . S
C1005 C1009 1.385 . S
C1006 H987 0.951 . S
C1006 C1004 1.388 . S
C1006 C1007 1.366 . S
C1007 C1006 1.366 . S
C1007 C1008 1.414 . S
C1007 C1010 1.499 . S
C1008 H988 0.950 . S
C1008 C1007 1.414 . S
C1008 C1009 1.374 . S
C1009 H989 0.950 . S
C1009 C1005 1.385 . S
C1009 C1008 1.374 . S
C1010 C1007 1.499 . S
C1010 C1011 1.373 . S
C1010 C1012 1.389 . S
C1011 H990 0.950 . S
C1011 C1010 1.373 . S
C1011 C1027 1.377 . S
C1012 C1010 1.389 . S
C1012 C1013 1.524 . S
C1012 C1026 1.377 . S
C1013 C1012 1.524 . S
C1013 C1014 1.422 . S
C1013 C1018 1.363 . S
C1014 H991 0.959 . S
C1014 C1013 1.422 . S
C1014 C1015 1.300 1_655 S
C1015 H992 0.950 . S
C1015 C1014 1.300 1_455 S
C1015 C1016 1.287 . S
C1016 C1015 1.287 . S
C1016 C1017 1.524 . S
C1016 H1035 0.913 . S
C1017 H993 0.950 . S
C1017 C1016 1.524 . S
C1017 C1018 1.415 1_455 S
C1018 H994 0.950 . S
C1018 C1013 1.363 . S
C1018 C1017 1.415 1_655 S
C1019 H995 0.951 . S
C1019 C1020 1.366 . S
C1019 C1021 1.388 . S
C1020 C1019 1.366 . S
C1020 C1024 1.385 . S
C1021 H996 0.951 . S
C1021 C1019 1.388 . S
C1021 C1022 1.366 . S
C1022 C1021 1.366 . S
C1022 C1023 1.414 . S
C1022 C1025 1.499 . S
C1023 H997 0.950 . S
C1023 C1022 1.414 . S
C1023 C1024 1.374 . S
C1024 H998 0.950 . S
C1024 C1020 1.385 . S
C1024 C1023 1.374 . S
C1025 C1022 1.499 . S
C1025 C1026 1.373 . S
C1025 C1027 1.389 . S
C1026 H999 0.950 . S
C1026 C1012 1.377 . S
C1026 C1025 1.373 . S
C1027 C1011 1.377 . S
C1027 C1025 1.389 . S
C1027 C1028 1.524 . S
C1028 C1027 1.524 . S
C1028 C1029 1.397 . S
C1028 C1033 1.363 . S
C1029 H1000 0.950 . S
C1029 C1028 1.397 . S
C1029 C1030 1.334 . S
C1030 H1001 0.950 . S
C1030 C1029 1.334 . S
C1030 C1031 1.287 . S
C1031 C1030 1.287 . S
C1031 C1032 1.524 . S
C1031 H1034 0.999 . S
C1032 H1002 0.950 . S
C1032 C1031 1.524 . S
C1032 C1033 1.415 . S
C1033 H1003 0.950 . S
C1033 C1028 1.363 . S
C1033 C1032 1.415 . S
H1034 C1031 0.999 . S
H1035 C1016 0.913 . S
H1036 C1054 0.951 . S
H1037 C1056 0.951 . S
H1038 C1058 0.950 . S
H1039 C1059 0.950 . S
H1040 C1061 0.950 . S
H1041 C1064 0.950 . S
H1042 C1065 0.950 . S
H1043 C1067 0.950 . S
H1044 C1068 0.950 . S
H1045 C1069 0.951 . S
H1046 C1071 0.951 . S
H1047 C1073 0.950 . S
H1048 C1074 0.950 . S
H1049 C1076 0.950 . S
H1050 C1079 0.950 . S
H1051 C1080 0.950 . S
H1052 C1082 0.950 . S
H1053 C1083 0.950 . S
C1054 H1036 0.951 . S
C1054 C1055 1.366 . S
C1054 C1056 1.388 . S
C1055 C1054 1.366 . S
C1055 C1059 1.385 . S
C1056 H1037 0.951 . S
C1056 C1054 1.388 . S
C1056 C1057 1.366 . S
C1057 C1056 1.366 . S
C1057 C1058 1.414 . S
C1057 C1060 1.499 . S
C1058 H1038 0.950 . S
C1058 C1057 1.414 . S
C1058 C1059 1.374 . S
C1059 H1039 0.950 . S
C1059 C1055 1.385 . S
C1059 C1058 1.374 . S
C1060 C1057 1.499 . S
C1060 C1061 1.373 . S
C1060 C1062 1.389 . S
C1061 H1040 0.950 . S
C1061 C1060 1.373 . S
C1061 C1077 1.377 . S
C1062 C1060 1.389 . S
C1062 C1063 1.524 . S
C1062 C1076 1.377 . S
C1063 C1062 1.524 . S
C1063 C1064 1.397 . S
C1063 C1068 1.363 . S
C1064 H1041 0.950 . S
C1064 C1063 1.397 . S
C1064 C1065 1.334 . S
C1065 H1042 0.950 . S
C1065 C1064 1.334 . S
C1065 C1066 1.287 . S
C1066 C1065 1.287 . S
C1066 C1067 1.524 . S
C1066 H1085 0.913 . S
C1067 H1043 0.950 . S
C1067 C1066 1.524 . S
C1067 C1068 1.415 . S
C1068 H1044 0.950 . S
C1068 C1063 1.363 . S
C1068 C1067 1.415 . S
C1069 H1045 0.951 . S
C1069 C1070 1.366 . S
C1069 C1071 1.388 . S
C1070 C1069 1.366 . S
C1070 C1074 1.385 . S
C1071 H1046 0.951 . S
C1071 C1069 1.388 . S
C1071 C1072 1.366 . S
C1072 C1071 1.366 . S
C1072 C1073 1.414 . S
C1072 C1075 1.499 . S
C1073 H1047 0.950 . S
C1073 C1072 1.414 . S
C1073 C1074 1.374 . S
C1074 H1048 0.950 . S
C1074 C1070 1.385 . S
C1074 C1073 1.374 . S
C1075 C1072 1.499 . S
C1075 C1076 1.373 . S
C1075 C1077 1.389 . S
C1076 H1049 0.950 . S
C1076 C1062 1.377 . S
C1076 C1075 1.373 . S
C1077 C1061 1.377 . S
C1077 C1075 1.389 . S
C1077 C1078 1.524 . S
C1078 C1077 1.524 . S
C1078 C1079 1.397 . S
C1078 C1083 1.363 . S
C1079 H1050 0.950 . S
C1079 C1078 1.397 . S
C1079 C1080 1.334 . S
C1080 H1051 0.950 . S
C1080 C1079 1.334 . S
C1080 C1081 1.287 . S
C1081 C1080 1.287 . S
C1081 C1082 1.524 . S
C1081 H1084 0.999 . S
C1082 H1052 0.950 . S
C1082 C1081 1.524 . S
C1082 C1083 1.415 . S
C1083 H1053 0.950 . S
C1083 C1078 1.363 . S
C1083 C1082 1.415 . S
H1084 C1081 0.999 . S
H1085 C1066 0.913 . S
H1086 C1104 0.951 1_455 S
H1087 C1106 0.951 . S
H1088 C1108 0.950 . S
H1089 C1109 0.950 . S
H1090 C1111 0.950 . S
H1091 C1114 0.950 . S
H1092 C1115 0.950 . S
H1093 C1117 0.950 . S
H1094 C1118 0.950 . S
H1095 C1119 0.951 . S
H1096 C1121 0.951 . S
H1097 C1123 0.950 . S
H1098 C1124 0.950 . S
H1099 C1126 0.950 . S
H1100 C1129 0.950 . S
H1101 C1130 0.950 . S
H1102 C1132 0.950 . S
H1103 C1133 0.950 . S
C1104 H1086 0.951 1_655 S
C1104 C1105 1.366 . S
C1104 C1106 1.388 . S
C1105 C1104 1.366 . S
C1105 C1109 1.385 . S
C1106 H1087 0.951 . S
C1106 C1104 1.388 . S
C1106 C1107 1.366 . S
C1107 C1106 1.366 . S
C1107 C1108 1.414 . S
C1107 C1110 1.499 . S
C1108 H1088 0.950 . S
C1108 C1107 1.414 . S
C1108 C1109 1.374 . S
C1109 H1089 0.950 . S
C1109 C1105 1.385 . S
C1109 C1108 1.374 . S
C1110 C1107 1.499 . S
C1110 C1111 1.373 . S
C1110 C1112 1.389 . S
C1111 H1090 0.950 . S
C1111 C1110 1.373 . S
C1111 C1127 1.377 . S
C1112 C1110 1.389 . S
C1112 C1113 1.524 . S
C1112 C1126 1.377 . S
C1113 C1112 1.524 . S
C1113 C1114 1.397 . S
C1113 C1118 1.363 . S
C1114 H1091 0.950 . S
C1114 C1113 1.397 . S
C1114 C1115 1.334 . S
C1115 H1092 0.950 . S
C1115 C1114 1.334 . S
C1115 C1116 1.287 . S
C1116 C1115 1.287 . S
C1116 C1117 1.524 . S
C1116 H1135 0.913 . S
C1117 H1093 0.950 . S
C1117 C1116 1.524 . S
C1117 C1118 1.415 . S
C1118 H1094 0.950 . S
C1118 C1113 1.363 . S
C1118 C1117 1.415 . S
C1119 H1095 0.951 . S
C1119 C1120 1.366 . S
C1119 C1121 1.388 . S
C1120 C1119 1.366 . S
C1120 C1124 1.385 . S
C1121 H1096 0.951 . S
C1121 C1119 1.388 . S
C1121 C1122 1.366 . S
C1122 C1121 1.366 . S
C1122 C1123 1.414 . S
C1122 C1125 1.499 . S
C1123 H1097 0.950 . S
C1123 C1122 1.414 . S
C1123 C1124 1.374 . S
C1124 H1098 0.950 . S
C1124 C1120 1.385 . S
C1124 C1123 1.374 . S
C1125 C1122 1.499 . S
C1125 C1126 1.373 . S
C1125 C1127 1.389 . S
C1126 H1099 0.950 . S
C1126 C1112 1.377 . S
C1126 C1125 1.373 . S
C1127 C1111 1.377 . S
C1127 C1125 1.389 . S
C1127 C1128 1.524 . S
C1128 C1127 1.524 . S
C1128 C1129 1.397 . S
C1128 C1133 1.363 . S
C1129 H1100 0.950 . S
C1129 C1128 1.397 . S
C1129 C1130 1.334 . S
C1130 H1101 0.950 . S
C1130 C1129 1.334 . S
C1130 C1131 1.287 . S
C1131 C1130 1.287 . S
C1131 C1132 1.524 . S
C1131 H1134 0.999 . S
C1132 H1102 0.950 . S
C1132 C1131 1.524 . S
C1132 C1133 1.415 . S
C1133 H1103 0.950 . S
C1133 C1128 1.363 . S
C1133 C1132 1.415 . S
H1134 C1131 0.999 . S
H1135 C1116 0.913 . S
H1136 C1154 0.951 . S
H1137 C1156 0.951 . S
H1138 C1158 0.950 . S
H1139 C1159 0.950 . S
H1140 C1161 0.950 . S
H1141 C1164 0.950 . S
H1142 C1165 0.950 . S
H1143 C1167 0.950 . S
H1144 C1168 0.950 . S
H1145 C1169 0.951 . S
H1146 C1171 0.951 . S
H1147 C1173 0.950 . S
H1148 C1174 0.950 . S
H1149 C1176 0.950 . S
H1150 C1179 0.950 . S
H1151 C1180 0.950 . S
H1152 C1182 0.950 . S
H1153 C1183 0.950 . S
C1154 H1136 0.951 . S
C1154 C1155 1.366 . S
C1154 C1156 1.388 . S
C1155 C1154 1.366 . S
C1155 C1159 1.385 . S
C1156 H1137 0.951 . S
C1156 C1154 1.388 . S
C1156 C1157 1.366 . S
C1157 C1156 1.366 . S
C1157 C1158 1.414 . S
C1157 C1160 1.499 . S
C1158 H1138 0.950 . S
C1158 C1157 1.414 . S
C1158 C1159 1.374 . S
C1159 H1139 0.950 . S
C1159 C1155 1.385 . S
C1159 C1158 1.374 . S
C1160 C1157 1.499 . S
C1160 C1161 1.373 . S
C1160 C1162 1.389 . S
C1161 H1140 0.950 . S
C1161 C1160 1.373 . S
C1161 C1177 1.377 . S
C1162 C1160 1.389 . S
C1162 C1163 1.524 . S
C1162 C1176 1.377 . S
C1163 C1162 1.524 . S
C1163 C1164 1.397 . S
C1163 C1168 1.363 . S
C1164 H1141 0.950 . S
C1164 C1163 1.397 . S
C1164 C1165 1.334 . S
C1165 H1142 0.950 . S
C1165 C1164 1.334 . S
C1165 C1166 1.287 . S
C1166 C1165 1.287 . S
C1166 C1167 1.524 . S
C1166 H1185 0.913 . S
C1167 H1143 0.950 . S
C1167 C1166 1.524 . S
C1167 C1168 1.415 . S
C1168 H1144 0.950 . S
C1168 C1163 1.363 . S
C1168 C1167 1.415 . S
C1169 H1145 0.951 . S
C1169 C1170 1.366 . S
C1169 C1171 1.388 . S
C1170 C1169 1.366 . S
C1170 C1174 1.385 . S
C1171 H1146 0.951 . S
C1171 C1169 1.388 . S
C1171 C1172 1.366 . S
C1172 C1171 1.366 . S
C1172 C1173 1.414 . S
C1172 C1175 1.499 . S
C1173 H1147 0.950 . S
C1173 C1172 1.414 . S
C1173 C1174 1.374 . S
C1174 H1148 0.950 . S
C1174 C1170 1.385 . S
C1174 C1173 1.374 . S
C1175 C1172 1.499 . S
C1175 C1176 1.373 . S
C1175 C1177 1.389 . S
C1176 H1149 0.950 . S
C1176 C1162 1.377 . S
C1176 C1175 1.373 . S
C1177 C1161 1.377 . S
C1177 C1175 1.389 . S
C1177 C1178 1.524 . S
C1178 C1177 1.524 . S
C1178 C1179 1.397 . S
C1178 C1183 1.363 . S
C1179 H1150 0.950 . S
C1179 C1178 1.397 . S
C1179 C1180 1.334 . S
C1180 H1151 0.950 . S
C1180 C1179 1.334 . S
C1180 C1181 1.287 . S
C1181 C1180 1.287 . S
C1181 C1182 1.524 . S
C1181 H1184 0.999 . S
C1182 H1152 0.950 . S
C1182 C1181 1.524 . S
C1182 C1183 1.415 . S
C1183 H1153 0.950 . S
C1183 C1178 1.363 . S
C1183 C1182 1.415 . S
H1184 C1181 0.999 . S
H1185 C1166 0.913 . S
H1186 C1204 0.951 . S
H1187 C1206 0.951 . S
H1188 C1208 0.950 . S
H1189 C1209 0.950 . S
H1190 C1211 0.950 . S
H1191 C1214 0.950 . S
H1192 C1215 0.950 . S
H1193 C1217 0.950 . S
H1194 C1218 0.950 . S
H1195 C1219 0.951 . S
H1196 C1221 0.951 . S
H1197 C1223 0.950 . S
H1198 C1224 0.950 . S
H1199 C1226 0.950 . S
H1200 C1229 0.950 . S
H1201 C1230 0.950 . S
H1202 C1232 0.950 . S
H1203 C1233 0.950 . S
C1204 H1186 0.951 . S
C1204 C1205 1.366 . S
C1204 C1206 1.388 . S
C1205 C1204 1.366 . S
C1205 C1209 1.385 . S
C1206 H1187 0.951 . S
C1206 C1204 1.388 . S
C1206 C1207 1.366 . S
C1207 C1206 1.366 . S
C1207 C1208 1.414 . S
C1207 C1210 1.499 . S
C1208 H1188 0.950 . S
C1208 C1207 1.414 . S
C1208 C1209 1.374 . S
C1209 H1189 0.950 . S
C1209 C1205 1.385 . S
C1209 C1208 1.374 . S
C1210 C1207 1.499 . S
C1210 C1211 1.373 . S
C1210 C1212 1.389 . S
C1211 H1190 0.950 . S
C1211 C1210 1.373 . S
C1211 C1227 1.377 . S
C1212 C1210 1.389 . S
C1212 C1213 1.524 . S
C1212 C1226 1.377 . S
C1213 C1212 1.524 . S
C1213 C1214 1.397 . S
C1213 C1218 1.363 . S
C1214 H1191 0.950 . S
C1214 C1213 1.397 . S
C1214 C1215 1.334 . S
C1215 H1192 0.950 . S
C1215 C1214 1.334 . S
C1215 C1216 1.287 . S
C1216 C1215 1.287 . S
C1216 C1217 1.524 . S
C1216 H1235 0.913 . S
C1217 H1193 0.950 . S
C1217 C1216 1.524 . S
C1217 C1218 1.415 . S
C1218 H1194 0.950 . S
C1218 C1213 1.363 . S
C1218 C1217 1.415 . S
C1219 H1195 0.951 . S
C1219 C1220 1.366 . S
C1219 C1221 1.388 . S
C1220 C1219 1.366 . S
C1220 C1224 1.385 . S
C1221 H1196 0.951 . S
C1221 C1219 1.388 . S
C1221 C1222 1.366 . S
C1222 C1221 1.366 . S
C1222 C1223 1.414 . S
C1222 C1225 1.499 . S
C1223 H1197 0.950 . S
C1223 C1222 1.414 . S
C1223 C1224 1.374 . S
C1224 H1198 0.950 . S
C1224 C1220 1.385 . S
C1224 C1223 1.374 . S
C1225 C1222 1.499 . S
C1225 C1226 1.373 . S
C1225 C1227 1.389 . S
C1226 H1199 0.950 . S
C1226 C1212 1.377 . S
C1226 C1225 1.373 . S
C1227 C1211 1.377 . S
C1227 C1225 1.389 . S
C1227 C1228 1.524 . S
C1228 C1227 1.524 . S
C1228 C1229 1.397 . S
C1228 C1233 1.363 . S
C1229 H1200 0.950 . S
C1229 C1228 1.397 . S
C1229 C1230 1.334 . S
C1230 H1201 0.950 . S
C1230 C1229 1.334 . S
C1230 C1231 1.287 . S
C1231 C1230 1.287 . S
C1231 C1232 1.524 . S
C1231 H1234 0.999 . S
C1232 H1202 0.950 . S
C1232 C1231 1.524 . S
C1232 C1233 1.415 . S
C1233 H1203 0.950 . S
C1233 C1228 1.363 . S
C1233 C1232 1.415 . S
H1234 C1231 0.999 . S
H1235 C1216 0.913 . S
H1236 C1254 0.951 . S
H1237 C1256 0.951 . S
H1238 C1258 0.950 . S
H1239 C1259 0.950 . S
H1240 C1261 0.950 . S
H1241 C1264 0.950 . S
H1242 C1265 0.950 . S
H1243 C1267 0.950 . S
H1244 C1268 0.950 . S
H1245 C1269 0.951 . S
H1246 C1271 0.951 . S
H1247 C1273 0.950 . S
H1248 C1274 0.950 . S
H1249 C1276 0.950 . S
H1250 C1279 0.950 . S
H1251 C1280 0.950 . S
H1252 C1282 0.950 . S
H1253 C1283 0.950 . S
C1254 H1236 0.951 . S
C1254 C1255 1.366 . S
C1254 C1256 1.388 . S
C1255 C1254 1.366 . S
C1255 C1259 1.385 . S
C1256 H1237 0.951 . S
C1256 C1254 1.388 . S
C1256 C1257 1.366 . S
C1257 C1256 1.366 . S
C1257 C1258 1.414 . S
C1257 C1260 1.499 . S
C1258 H1238 0.950 . S
C1258 C1257 1.414 . S
C1258 C1259 1.374 . S
C1259 H1239 0.950 . S
C1259 C1255 1.385 . S
C1259 C1258 1.374 . S
C1260 C1257 1.499 . S
C1260 C1261 1.373 . S
C1260 C1262 1.389 . S
C1261 H1240 0.950 . S
C1261 C1260 1.373 . S
C1261 C1277 1.377 . S
C1262 C1260 1.389 . S
C1262 C1263 1.524 . S
C1262 C1276 1.377 . S
C1263 C1262 1.524 . S
C1263 C1264 1.397 . S
C1263 C1268 1.363 . S
C1264 H1241 0.950 . S
C1264 C1263 1.397 . S
C1264 C1265 1.334 . S
C1265 H1242 0.950 . S
C1265 C1264 1.334 . S
C1265 C1266 1.287 . S
C1266 C1265 1.287 . S
C1266 C1267 1.524 . S
C1266 H1285 0.913 . S
C1267 H1243 0.950 . S
C1267 C1266 1.524 . S
C1267 C1268 1.415 . S
C1268 H1244 0.950 . S
C1268 C1263 1.363 . S
C1268 C1267 1.415 . S
C1269 H1245 0.951 . S
C1269 C1270 1.366 . S
C1269 C1271 1.388 . S
C1270 C1269 1.366 . S
C1270 C1274 1.385 . S
C1271 H1246 0.951 . S
C1271 C1269 1.388 . S
C1271 C1272 1.366 . S
C1272 C1271 1.366 . S
C1272 C1273 1.414 . S
C1272 C1275 1.499 . S
C1273 H1247 0.950 . S
C1273 C1272 1.414 . S
C1273 C1274 1.374 . S
C1274 H1248 0.950 . S
C1274 C1270 1.385 . S
C1274 C1273 1.374 . S
C1275 C1272 1.499 . S
C1275 C1276 1.373 . S
C1275 C1277 1.389 . S
C1276 H1249 0.950 . S
C1276 C1262 1.377 . S
C1276 C1275 1.373 . S
C1277 C1261 1.377 . S
C1277 C1275 1.389 . S
C1277 C1278 1.524 . S
C1278 C1277 1.524 . S
C1278 C1279 1.397 . S
C1278 C1283 1.363 . S
C1279 H1250 0.950 . S
C1279 C1278 1.397 . S
C1279 C1280 1.334 1_556 S
C1280 H1251 0.950 . S
C1280 C1279 1.334 1_554 S
C1280 C1281 1.287 . S
C1281 C1280 1.287 . S
C1281 C1282 1.524 . S
C1281 H1284 0.999 . S
C1282 H1252 0.950 . S
C1282 C1281 1.524 . S
C1282 C1283 1.415 1_554 S
C1283 H1253 0.950 . S
C1283 C1278 1.363 . S
C1283 C1282 1.415 1_556 S
H1284 C1281 0.999 . S
H1285 C1266 0.913 . S
H1286 C1304 0.951 . S
H1287 C1306 0.951 . S
H1288 C1308 0.950 . S
H1289 C1309 0.950 . S
H1290 C1311 0.950 . S
H1291 C1314 0.950 . S
H1292 C1315 0.950 . S
H1293 C1317 0.950 . S
H1294 C1318 0.950 . S
H1295 C1319 0.951 1_455 S
H1296 C1321 0.951 . S
H1297 C1323 0.950 . S
H1298 C1324 0.950 . S
H1299 C1326 0.950 . S
H1300 C1329 0.950 . S
H1301 C1330 0.950 . S
H1302 C1332 0.950 . S
H1303 C1333 0.950 . S
C1304 H1286 0.951 . S
C1304 C1305 1.366 . S
C1304 C1306 1.388 . S
C1305 C1304 1.366 . S
C1305 C1309 1.385 . S
C1306 H1287 0.951 . S
C1306 C1304 1.388 . S
C1306 C1307 1.366 . S
C1307 C1306 1.366 . S
C1307 C1308 1.414 . S
C1307 C1310 1.499 . S
C1308 H1288 0.950 . S
C1308 C1307 1.414 . S
C1308 C1309 1.374 . S
C1309 H1289 0.950 . S
C1309 C1305 1.385 . S
C1309 C1308 1.374 . S
C1310 C1307 1.499 . S
C1310 C1311 1.373 . S
C1310 C1312 1.389 . S
C1311 H1290 0.950 . S
C1311 C1310 1.373 . S
C1311 C1327 1.377 . S
C1312 C1310 1.389 . S
C1312 C1313 1.524 . S
C1312 C1326 1.377 . S
C1313 C1312 1.524 . S
C1313 C1314 1.397 . S
C1313 C1318 1.363 . S
C1314 H1291 0.950 . S
C1314 C1313 1.397 . S
C1314 C1315 1.334 . S
C1315 H1292 0.950 . S
C1315 C1314 1.334 . S
C1315 C1316 1.287 . S
C1316 C1315 1.287 . S
C1316 C1317 1.524 . S
C1316 H1335 0.913 . S
C1317 H1293 0.950 . S
C1317 C1316 1.524 . S
C1317 C1318 1.415 . S
C1318 H1294 0.950 . S
C1318 C1313 1.363 . S
C1318 C1317 1.415 . S
C1319 H1295 0.951 1_655 S
C1319 C1320 1.366 . S
C1319 C1321 1.388 . S
C1320 C1319 1.366 . S
C1320 C1324 1.385 . S
C1321 H1296 0.951 . S
C1321 C1319 1.388 . S
C1321 C1322 1.366 . S
C1322 C1321 1.366 . S
C1322 C1323 1.414 . S
C1322 C1325 1.499 . S
C1323 H1297 0.950 . S
C1323 C1322 1.414 . S
C1323 C1324 1.374 . S
C1324 H1298 0.950 . S
C1324 C1320 1.385 . S
C1324 C1323 1.374 . S
C1325 C1322 1.499 . S
C1325 C1326 1.373 . S
C1325 C1327 1.389 . S
C1326 H1299 0.950 . S
C1326 C1312 1.377 . S
C1326 C1325 1.373 . S
C1327 C1311 1.377 . S
C1327 C1325 1.389 . S
C1327 C1328 1.524 . S
C1328 C1327 1.524 . S
C1328 C1329 1.397 . S
C1328 C1333 1.363 1_655 S
C1329 H1300 0.950 . S
C1329 C1328 1.397 . S
C1329 C1330 1.334 1_655 S
C1330 H1301 0.950 . S
C1330 C1329 1.334 1_455 S
C1330 C1331 1.287 . S
C1331 C1330 1.287 . S
C1331 C1332 1.524 . S
C1331 H1334 0.999 . S
C1332 H1302 0.950 . S
C1332 C1331 1.524 . S
C1332 C1333 1.415 . S
C1333 H1303 0.950 . S
C1333 C1328 1.363 1_455 S
C1333 C1332 1.415 . S
H1334 C1331 0.999 . S
H1335 C1316 0.913 . S
H1336 C1354 0.951 . S
H1337 C1356 0.951 . S
H1338 C1358 0.950 . S
H1339 C1359 0.950 . S
H1340 C1361 0.950 . S
H1341 C1364 0.950 . S
H1342 C1365 0.950 . S
H1343 C1367 0.950 . S
H1344 C1368 0.950 . S
H1345 C1369 0.951 . S
H1346 C1371 0.951 . S
H1347 C1373 0.950 . S
H1348 C1374 0.950 . S
H1349 C1376 0.950 . S
H1350 C1379 0.950 . S
H1351 C1380 0.950 . S
H1352 C1382 0.950 . S
H1353 C1383 0.950 . S
C1354 H1336 0.951 . S
C1354 C1355 1.366 . S
C1354 C1356 1.388 . S
C1355 C1354 1.366 . S
C1355 C1359 1.385 . S
C1356 H1337 0.951 . S
C1356 C1354 1.388 . S
C1356 C1357 1.366 . S
C1357 C1356 1.366 . S
C1357 C1358 1.414 . S
C1357 C1360 1.499 . S
C1358 H1338 0.950 . S
C1358 C1357 1.414 . S
C1358 C1359 1.374 . S
C1359 H1339 0.950 . S
C1359 C1355 1.385 . S
C1359 C1358 1.374 . S
C1360 C1357 1.499 . S
C1360 C1361 1.373 . S
C1360 C1362 1.389 . S
C1361 H1340 0.950 . S
C1361 C1360 1.373 . S
C1361 C1377 1.377 . S
C1362 C1360 1.389 . S
C1362 C1363 1.524 . S
C1362 C1376 1.377 . S
C1363 C1362 1.524 . S
C1363 C1364 1.397 . S
C1363 C1368 1.363 . S
C1364 H1341 0.950 . S
C1364 C1363 1.397 . S
C1364 C1365 1.334 . S
C1365 H1342 0.950 . S
C1365 C1364 1.334 . S
C1365 C1366 1.287 . S
C1366 C1365 1.287 . S
C1366 C1367 1.524 . S
C1366 H1385 0.913 . S
C1367 H1343 0.950 . S
C1367 C1366 1.524 . S
C1367 C1368 1.415 . S
C1368 H1344 0.950 . S
C1368 C1363 1.363 . S
C1368 C1367 1.415 . S
C1369 H1345 0.951 . S
C1369 C1370 1.366 . S
C1369 C1371 1.388 . S
C1370 C1369 1.366 . S
C1370 C1374 1.385 . S
C1371 H1346 0.951 . S
C1371 C1369 1.388 . S
C1371 C1372 1.366 . S
C1372 C1371 1.366 . S
C1372 C1373 1.414 . S
C1372 C1375 1.499 . S
C1373 H1347 0.950 . S
C1373 C1372 1.414 . S
C1373 C1374 1.374 . S
C1374 H1348 0.950 . S
C1374 C1370 1.385 . S
C1374 C1373 1.374 . S
C1375 C1372 1.499 . S
C1375 C1376 1.373 . S
C1375 C1377 1.389 . S
C1376 H1349 0.950 . S
C1376 C1362 1.377 . S
C1376 C1375 1.373 . S
C1377 C1361 1.377 . S
C1377 C1375 1.389 . S
C1377 C1378 1.524 . S
C1378 C1377 1.524 . S
C1378 C1379 1.397 . S
C1378 C1383 1.363 . S
C1379 H1350 0.950 . S
C1379 C1378 1.397 . S
C1379 C1380 1.334 . S
C1380 H1351 0.950 . S
C1380 C1379 1.334 . S
C1380 C1381 1.287 . S
C1381 C1380 1.287 . S
C1381 C1382 1.524 . S
C1381 H1384 0.999 . S
C1382 H1352 0.950 . S
C1382 C1381 1.524 . S
C1382 C1383 1.415 . S
C1383 H1353 0.950 . S
C1383 C1378 1.363 . S
C1383 C1382 1.415 . S
H1384 C1381 0.999 . S
H1385 C1366 0.913 . S
H1386 C1404 0.951 . S
H1387 C1406 0.951 . S
H1388 C1408 0.950 . S
H1389 C1409 0.950 . S
H1390 C1411 0.950 . S
H1391 C1414 0.950 . S
H1392 C1415 0.950 . S
H1393 C1417 0.950 . S
H1394 C1418 0.950 . S
H1395 C1419 0.951 . S
H1396 C1421 0.951 . S
H1397 C1423 0.950 . S
H1398 C1424 0.950 . S
H1399 C1426 0.950 . S
H1400 C1429 0.950 . S
H1401 C1430 0.950 . S
H1402 C1432 0.950 . S
H1403 C1433 0.950 . S
C1404 H1386 0.951 . S
C1404 C1405 1.366 . S
C1404 C1406 1.388 . S
C1405 C1404 1.366 . S
C1405 C1409 1.385 . S
C1406 H1387 0.951 . S
C1406 C1404 1.388 . S
C1406 C1407 1.366 . S
C1407 C1406 1.366 . S
C1407 C1408 1.414 . S
C1407 C1410 1.499 . S
C1408 H1388 0.950 . S
C1408 C1407 1.414 . S
C1408 C1409 1.374 . S
C1409 H1389 0.950 . S
C1409 C1405 1.385 . S
C1409 C1408 1.374 . S
C1410 C1407 1.499 . S
C1410 C1411 1.373 . S
C1410 C1412 1.389 . S
C1411 H1390 0.950 . S
C1411 C1410 1.373 . S
C1411 C1427 1.377 . S
C1412 C1410 1.389 . S
C1412 C1413 1.524 . S
C1412 C1426 1.377 . S
C1413 C1412 1.524 . S
C1413 C1414 1.397 . S
C1413 C1418 1.363 . S
C1414 H1391 0.950 . S
C1414 C1413 1.397 . S
C1414 C1415 1.334 . S
C1415 H1392 0.950 . S
C1415 C1414 1.334 . S
C1415 C1416 1.287 . S
C1416 C1415 1.287 . S
C1416 C1417 1.524 . S
C1416 H1435 0.913 . S
C1417 H1393 0.950 . S
C1417 C1416 1.524 . S
C1417 C1418 1.415 . S
C1418 H1394 0.950 . S
C1418 C1413 1.363 . S
C1418 C1417 1.415 . S
C1419 H1395 0.951 . S
C1419 C1420 1.366 . S
C1419 C1421 1.388 . S
C1420 C1419 1.366 . S
C1420 C1424 1.385 . S
C1421 H1396 0.951 . S
C1421 C1419 1.388 . S
C1421 C1422 1.366 . S
C1422 C1421 1.366 . S
C1422 C1423 1.414 . S
C1422 C1425 1.499 . S
C1423 H1397 0.950 . S
C1423 C1422 1.414 . S
C1423 C1424 1.374 . S
C1424 H1398 0.950 . S
C1424 C1420 1.385 . S
C1424 C1423 1.374 . S
C1425 C1422 1.499 . S
C1425 C1426 1.373 . S
C1425 C1427 1.389 . S
C1426 H1399 0.950 . S
C1426 C1412 1.377 . S
C1426 C1425 1.373 . S
C1427 C1411 1.377 . S
C1427 C1425 1.389 . S
C1427 C1428 1.524 . S
C1428 C1427 1.524 . S
C1428 C1429 1.397 . S
C1428 C1433 1.363 . S
C1429 H1400 0.950 . S
C1429 C1428 1.397 . S
C1429 C1430 1.334 . S
C1430 H1401 0.950 . S
C1430 C1429 1.334 . S
C1430 C1431 1.287 . S
C1431 C1430 1.287 . S
C1431 C1432 1.524 . S
C1431 H1434 0.999 . S
C1432 H1402 0.950 . S
C1432 C1431 1.524 . S
C1432 C1433 1.415 . S
C1433 H1403 0.950 . S
C1433 C1428 1.363 . S
C1433 C1432 1.415 . S
H1434 C1431 0.999 . S
H1435 C1416 0.913 . S
H1436 C1454 0.951 . S
H1437 C1456 0.951 . S
H1438 C1458 0.950 . S
H1439 C1459 0.950 . S
H1440 C1461 0.950 . S
H1441 C1464 0.950 . S
H1442 C1465 0.950 . S
H1443 C1467 0.978 . S
H1444 C1468 0.950 . S
H1445 C1469 0.951 . S
H1446 C1471 0.951 . S
H1447 C1473 0.950 . S
H1448 C1474 0.985 . S
H1449 C1476 0.950 . S
H1450 C1479 0.950 . S
H1451 C1480 0.950 . S
H1452 C1482 0.950 . S
H1453 C1483 0.950 . S
C1454 H1436 0.951 . S
C1454 C1455 1.366 . S
C1454 C1456 1.388 . S
C1455 C1454 1.366 . S
C1455 C1459 1.385 . S
C1456 H1437 0.951 . S
C1456 C1454 1.388 . S
C1456 C1457 1.366 . S
C1457 C1456 1.366 . S
C1457 C1458 1.414 . S
C1457 C1460 1.499 . S
C1458 H1438 0.950 . S
C1458 C1457 1.414 . S
C1458 C1459 1.374 . S
C1459 H1439 0.950 . S
C1459 C1455 1.385 . S
C1459 C1458 1.374 . S
C1460 C1457 1.499 . S
C1460 C1461 1.373 . S
C1460 C1462 1.389 . S
C1461 H1440 0.950 . S
C1461 C1460 1.373 . S
C1461 C1477 1.377 . S
C1462 C1460 1.389 . S
C1462 C1463 1.524 . S
C1462 C1476 1.377 . S
C1463 C1462 1.524 . S
C1463 C1464 1.397 . S
C1463 C1468 1.363 . S
C1464 H1441 0.950 . S
C1464 C1463 1.397 . S
C1464 C1465 1.334 . S
C1465 H1442 0.950 . S
C1465 C1464 1.334 . S
C1465 C1466 1.287 . S
C1466 C1465 1.287 . S
C1466 C1467 1.509 1_554 S
C1466 H1485 0.913 . S
C1467 H1443 0.978 . S
C1467 C1466 1.509 1_556 S
C1467 C1468 1.398 1_556 S
C1468 H1444 0.950 . S
C1468 C1463 1.363 . S
C1468 C1467 1.398 1_554 S
C1469 H1445 0.951 . S
C1469 C1470 1.366 . S
C1469 C1471 1.388 . S
C1470 C1469 1.366 . S
C1470 C1474 1.385 . S
C1471 H1446 0.951 . S
C1471 C1469 1.388 . S
C1471 C1472 1.366 . S
C1472 C1471 1.366 . S
C1472 C1473 1.414 . S
C1472 C1475 1.499 . S
C1473 H1447 0.950 . S
C1473 C1472 1.414 . S
C1473 C1474 1.374 . S
C1474 H1448 0.985 . S
C1474 C1470 1.385 . S
C1474 C1473 1.374 . S
C1475 C1472 1.499 . S
C1475 C1476 1.373 . S
C1475 C1477 1.389 . S
C1476 H1449 0.950 . S
C1476 C1462 1.377 . S
C1476 C1475 1.373 . S
C1477 C1461 1.377 . S
C1477 C1475 1.389 . S
C1477 C1478 1.524 . S
C1478 C1477 1.524 . S
C1478 C1479 1.397 . S
C1478 C1483 1.363 . S
C1479 H1450 0.950 . S
C1479 C1478 1.397 . S
C1479 C1480 1.334 . S
C1480 H1451 0.950 . S
C1480 C1479 1.334 . S
C1480 C1481 1.287 . S
C1481 C1480 1.287 . S
C1481 C1482 1.524 . S
C1481 H1484 0.999 . S
C1482 H1452 0.950 . S
C1482 C1481 1.524 . S
C1482 C1483 1.415 . S
C1483 H1453 0.950 . S
C1483 C1478 1.363 . S
C1483 C1482 1.415 . S
H1484 C1481 0.999 . S
H1485 C1466 0.913 . S
H1486 C1504 0.951 . S
H1487 C1506 0.951 . S
H1488 C1508 0.950 . S
H1489 C1509 0.950 . S
H1490 C1511 0.950 . S
H1491 C1514 0.950 . S
H1492 C1515 0.950 . S
H1493 C1517 0.950 . S
H1494 C1518 0.950 . S
H1495 C1519 0.951 1_545 S
H1496 C1521 0.951 . S
H1497 C1523 0.950 . S
H1498 C1524 0.950 . S
H1499 C1526 0.950 . S
H1500 C1529 0.950 1_565 S
H1501 C1530 0.950 . S
H1502 C1532 0.950 . S
H1503 C1533 0.950 . S
C1504 H1486 0.951 . S
C1504 C1505 1.366 . S
C1504 C1506 1.388 . S
C1505 C1504 1.366 . S
C1505 C1509 1.385 . S
C1506 H1487 0.951 . S
C1506 C1504 1.388 . S
C1506 C1507 1.366 . S
C1507 C1506 1.366 . S
C1507 C1508 1.414 . S
C1507 C1510 1.499 . S
C1508 H1488 0.950 . S
C1508 C1507 1.414 . S
C1508 C1509 1.374 . S
C1509 H1489 0.950 . S
C1509 C1505 1.385 . S
C1509 C1508 1.374 . S
C1510 C1507 1.499 . S
C1510 C1511 1.373 . S
C1510 C1512 1.389 . S
C1511 H1490 0.950 . S
C1511 C1510 1.373 . S
C1511 C1527 1.377 . S
C1512 C1510 1.389 . S
C1512 C1513 1.524 . S
C1512 C1526 1.377 . S
C1513 C1512 1.524 . S
C1513 C1514 1.397 . S
C1513 C1518 1.363 . S
C1514 H1491 0.950 . S
C1514 C1513 1.397 . S
C1514 C1515 1.334 . S
C1515 H1492 0.950 . S
C1515 C1514 1.334 . S
C1515 C1516 1.287 . S
C1516 C1515 1.287 . S
C1516 C1517 1.524 . S
C1516 H1535 0.913 . S
C1517 H1493 0.950 . S
C1517 C1516 1.524 . S
C1517 C1518 1.415 . S
C1518 H1494 0.950 . S
C1518 C1513 1.363 . S
C1518 C1517 1.415 . S
C1519 H1495 0.951 1_565 S
C1519 C1520 1.366 . S
C1519 C1521 1.388 . S
C1520 C1519 1.366 . S
C1520 C1524 1.385 . S
C1521 H1496 0.951 . S
C1521 C1519 1.388 . S
C1521 C1522 1.366 . S
C1522 C1521 1.366 . S
C1522 C1523 1.414 . S
C1522 C1525 1.499 . S
C1523 H1497 0.950 . S
C1523 C1522 1.414 . S
C1523 C1524 1.374 . S
C1524 H1498 0.950 . S
C1524 C1520 1.385 . S
C1524 C1523 1.374 . S
C1525 C1522 1.499 . S
C1525 C1526 1.373 . S
C1525 C1527 1.389 . S
C1526 H1499 0.950 . S
C1526 C1512 1.377 . S
C1526 C1525 1.373 . S
C1527 C1511 1.377 . S
C1527 C1525 1.389 . S
C1527 C1528 1.576 . S
C1528 C1527 1.576 . S
C1528 C1529 1.384 1_565 S
C1528 C1533 1.327 1_565 S
C1529 H1500 0.950 1_545 S
C1529 C1528 1.384 1_545 S
C1529 C1530 1.334 . S
C1530 H1501 0.950 . S
C1530 C1529 1.334 . S
C1530 C1531 1.287 . S
C1531 C1530 1.287 . S
C1531 C1532 1.524 . S
C1531 H1534 0.999 . S
C1532 H1502 0.950 . S
C1532 C1531 1.524 . S
C1532 C1533 1.415 . S
C1533 H1503 0.950 . S
C1533 C1528 1.327 1_545 S
C1533 C1532 1.415 . S
H1534 C1531 0.999 . S
H1535 C1516 0.913 . S
H1536 C1554 0.951 . S
H1537 C1556 0.951 . S
H1538 C1558 0.950 . S
H1539 C1559 0.950 . S
H1540 C1561 0.950 . S
H1541 C1564 0.950 . S
H1542 C1565 0.950 . S
H1543 C1567 0.950 . S
H1544 C1568 0.926 1_565 S
H1545 C1569 0.951 . S
H1546 C1571 0.951 . S
H1547 C1573 0.950 . S
H1548 C1574 0.950 . S
H1549 C1576 0.950 . S
H1550 C1579 0.950 . S
H1551 C1580 0.950 . S
H1552 C1582 0.950 . S
H1553 C1583 0.950 . S
C1554 H1536 0.951 . S
C1554 C1555 1.366 . S
C1554 C1556 1.388 . S
C1555 C1554 1.366 . S
C1555 C1559 1.385 . S
C1556 H1537 0.951 . S
C1556 C1554 1.388 . S
C1556 C1557 1.366 . S
C1557 C1556 1.366 . S
C1557 C1558 1.414 . S
C1557 C1560 1.499 . S
C1558 H1538 0.950 . S
C1558 C1557 1.414 . S
C1558 C1559 1.374 . S
C1559 H1539 0.950 . S
C1559 C1555 1.385 . S
C1559 C1558 1.374 . S
C1560 C1557 1.499 . S
C1560 C1561 1.373 . S
C1560 C1562 1.389 . S
C1561 H1540 0.950 . S
C1561 C1560 1.373 . S
C1561 C1577 1.377 . S
C1562 C1560 1.389 . S
C1562 C1563 1.524 . S
C1562 C1576 1.377 . S
C1563 C1562 1.524 . S
C1563 C1564 1.397 1_565 S
C1563 C1568 1.351 1_565 S
C1564 H1541 0.950 . S
C1564 C1563 1.397 1_545 S
C1564 C1565 1.334 . S
C1565 H1542 0.950 . S
C1565 C1564 1.334 . S
C1565 C1566 1.287 . S
C1566 C1565 1.287 . S
C1566 C1567 1.524 . S
C1566 H1585 0.913 . S
C1567 H1543 0.950 . S
C1567 C1566 1.524 . S
C1567 C1568 1.451 . S
C1568 H1544 0.926 1_545 S
C1568 C1563 1.351 1_545 S
C1568 C1567 1.451 . S
C1569 H1545 0.951 . S
C1569 C1570 1.366 . S
C1569 C1571 1.388 . S
C1570 C1569 1.366 . S
C1570 C1574 1.385 . S
C1571 H1546 0.951 . S
C1571 C1569 1.388 . S
C1571 C1572 1.366 . S
C1572 C1571 1.366 . S
C1572 C1573 1.414 . S
C1572 C1575 1.499 . S
C1573 H1547 0.950 . S
C1573 C1572 1.414 . S
C1573 C1574 1.374 . S
C1574 H1548 0.950 . S
C1574 C1570 1.385 . S
C1574 C1573 1.374 . S
C1575 C1572 1.499 . S
C1575 C1576 1.373 . S
C1575 C1577 1.389 . S
C1576 H1549 0.950 . S
C1576 C1562 1.377 . S
C1576 C1575 1.373 . S
C1577 C1561 1.377 . S
C1577 C1575 1.389 . S
C1577 C1578 1.524 . S
C1578 C1577 1.524 . S
C1578 C1579 1.397 . S
C1578 C1583 1.363 . S
C1579 H1550 0.950 . S
C1579 C1578 1.397 . S
C1579 C1580 1.334 . S
C1580 H1551 0.950 . S
C1580 C1579 1.334 . S
C1580 C1581 1.287 . S
C1581 C1580 1.287 . S
C1581 C1582 1.524 . S
C1581 H1584 0.999 . S
C1582 H1552 0.950 . S
C1582 C1581 1.524 . S
C1582 C1583 1.415 . S
C1583 H1553 0.950 . S
C1583 C1578 1.363 . S
C1583 C1582 1.415 . S
H1584 C1581 0.999 . S
H1585 C1566 0.913 . S
H1586 C1604 0.951 . S
H1587 C1606 0.951 . S
H1588 C1608 0.950 . S
H1589 C1609 0.950 . S
H1590 C1611 0.950 . S
H1591 C1614 0.950 . S
H1592 C1615 0.950 . S
H1593 C1617 0.950 . S
H1594 C1618 0.950 . S
H1595 C1619 0.951 . S
H1596 C1621 0.951 . S
H1597 C1623 0.950 . S
H1598 C1624 0.950 . S
H1599 C1626 0.950 . S
H1600 C1629 0.950 . S
H1601 C1630 0.950 . S
H1602 C1632 0.950 . S
H1603 C1633 0.950 . S
C1604 H1586 0.951 . S
C1604 C1605 1.366 . S
C1604 C1606 1.388 . S
C1605 C1604 1.366 . S
C1605 C1609 1.385 . S
C1606 H1587 0.951 . S
C1606 C1604 1.388 . S
C1606 C1607 1.366 . S
C1607 C1606 1.366 . S
C1607 C1608 1.414 . S
C1607 C1610 1.499 . S
C1608 H1588 0.950 . S
C1608 C1607 1.414 . S
C1608 C1609 1.374 . S
C1609 H1589 0.950 . S
C1609 C1605 1.385 . S
C1609 C1608 1.374 . S
C1610 C1607 1.499 . S
C1610 C1611 1.373 . S
C1610 C1612 1.389 . S
C1611 H1590 0.950 . S
C1611 C1610 1.373 . S
C1611 C1627 1.377 . S
C1612 C1610 1.389 . S
C1612 C1613 1.524 . S
C1612 C1626 1.377 . S
C1613 C1612 1.524 . S
C1613 C1614 1.397 . S
C1613 C1618 1.363 . S
C1614 H1591 0.950 . S
C1614 C1613 1.397 . S
C1614 C1615 1.334 . S
C1615 H1592 0.950 . S
C1615 C1614 1.334 . S
C1615 C1616 1.287 . S
C1616 C1615 1.287 . S
C1616 C1617 1.524 . S
C1616 H1635 0.913 . S
C1617 H1593 0.950 . S
C1617 C1616 1.524 . S
C1617 C1618 1.415 . S
C1618 H1594 0.950 . S
C1618 C1613 1.363 . S
C1618 C1617 1.415 . S
C1619 H1595 0.951 . S
C1619 C1620 1.366 . S
C1619 C1621 1.388 . S
C1620 C1619 1.366 . S
C1620 C1624 1.385 . S
C1621 H1596 0.951 . S
C1621 C1619 1.388 . S
C1621 C1622 1.366 . S
C1622 C1621 1.366 . S
C1622 C1623 1.414 . S
C1622 C1625 1.499 . S
C1623 H1597 0.950 . S
C1623 C1622 1.414 . S
C1623 C1624 1.374 . S
C1624 H1598 0.950 . S
C1624 C1620 1.385 . S
C1624 C1623 1.374 . S
C1625 C1622 1.499 . S
C1625 C1626 1.373 . S
C1625 C1627 1.389 . S
C1626 H1599 0.950 . S
C1626 C1612 1.377 . S
C1626 C1625 1.373 . S
C1627 C1611 1.377 . S
C1627 C1625 1.389 . S
C1627 C1628 1.524 . S
C1628 C1627 1.524 . S
C1628 C1629 1.397 . S
C1628 C1633 1.363 . S
C1629 H1600 0.950 . S
C1629 C1628 1.397 . S
C1629 C1630 1.334 . S
C1630 H1601 0.950 . S
C1630 C1629 1.334 . S
C1630 C1631 1.287 . S
C1631 C1630 1.287 . S
C1631 C1632 1.524 . S
C1631 H1634 0.999 . S
C1632 H1602 0.950 . S
C1632 C1631 1.524 . S
C1632 C1633 1.415 . S
C1633 H1603 0.950 . S
C1633 C1628 1.363 . S
C1633 C1632 1.415 . S
H1634 C1631 0.999 . S
H1635 C1616 0.913 . S
H1636 C1654 0.951 . S
H1637 C1656 0.951 . S
H1638 C1658 0.950 . S
H1639 C1659 0.950 . S
H1640 C1661 0.950 . S
H1641 C1664 0.950 . S
H1642 C1665 0.950 . S
H1643 C1667 0.950 . S
H1644 C1668 0.950 . S
H1645 C1669 0.951 . S
H1646 C1671 0.951 . S
H1647 C1673 0.950 . S
H1648 C1674 0.950 . S
H1649 C1676 0.950 . S
H1650 C1679 0.950 . S
H1651 C1680 0.950 . S
H1652 C1682 0.950 1_565 S
H1653 C1683 0.950 . S
C1654 H1636 0.951 . S
C1654 C1655 1.366 . S
C1654 C1656 1.388 . S
C1655 C1654 1.366 . S
C1655 C1659 1.385 . S
C1656 H1637 0.951 . S
C1656 C1654 1.388 . S
C1656 C1657 1.366 . S
C1657 C1656 1.366 . S
C1657 C1658 1.414 . S
C1657 C1660 1.499 . S
C1658 H1638 0.950 . S
C1658 C1657 1.414 . S
C1658 C1659 1.374 . S
C1659 H1639 0.950 . S
C1659 C1655 1.385 . S
C1659 C1658 1.374 . S
C1660 C1657 1.499 . S
C1660 C1661 1.373 . S
C1660 C1662 1.389 . S
C1661 H1640 0.950 . S
C1661 C1660 1.373 . S
C1661 C1677 1.377 . S
C1662 C1660 1.389 . S
C1662 C1663 1.524 . S
C1662 C1676 1.377 . S
C1663 C1662 1.524 . S
C1663 C1664 1.397 . S
C1663 C1668 1.363 . S
C1664 H1641 0.950 . S
C1664 C1663 1.397 . S
C1664 C1665 1.334 . S
C1665 H1642 0.950 . S
C1665 C1664 1.334 . S
C1665 C1666 1.287 . S
C1666 C1665 1.287 . S
C1666 C1667 1.524 . S
C1666 H1685 0.913 . S
C1667 H1643 0.950 . S
C1667 C1666 1.524 . S
C1667 C1668 1.415 . S
C1668 H1644 0.950 . S
C1668 C1663 1.363 . S
C1668 C1667 1.415 . S
C1669 H1645 0.951 . S
C1669 C1670 1.366 . S
C1669 C1671 1.388 . S
C1670 C1669 1.366 . S
C1670 C1674 1.385 . S
C1671 H1646 0.951 . S
C1671 C1669 1.388 . S
C1671 C1672 1.366 . S
C1672 C1671 1.366 . S
C1672 C1673 1.414 . S
C1672 C1675 1.499 . S
C1673 H1647 0.950 . S
C1673 C1672 1.414 . S
C1673 C1674 1.374 . S
C1674 H1648 0.950 . S
C1674 C1670 1.385 . S
C1674 C1673 1.374 . S
C1675 C1672 1.499 . S
C1675 C1676 1.373 . S
C1675 C1677 1.389 . S
C1676 H1649 0.950 . S
C1676 C1662 1.377 . S
C1676 C1675 1.373 . S
C1677 C1661 1.377 . S
C1677 C1675 1.389 . S
C1677 C1678 1.524 . S
C1678 C1677 1.524 . S
C1678 C1679 1.397 . S
C1678 C1683 1.363 . S
C1679 H1650 0.950 . S
C1679 C1678 1.397 . S
C1679 C1680 1.334 . S
C1680 H1651 0.950 . S
C1680 C1679 1.334 . S
C1680 C1681 1.287 . S
C1681 C1680 1.287 . S
C1681 C1682 1.524 . S
C1681 H1684 0.979 1_545 S
C1682 H1652 0.950 1_545 S
C1682 C1681 1.524 . S
C1682 C1683 1.415 . S
C1683 H1653 0.950 . S
C1683 C1678 1.363 . S
C1683 C1682 1.415 . S
H1684 C1681 0.979 1_565 S
H1685 C1666 0.913 . S
H1686 C1704 0.951 . S
H1687 C1706 0.951 . S
H1688 C1708 0.950 . S
H1689 C1709 0.950 . S
H1690 C1711 0.950 . S
H1691 C1714 0.950 . S
H1692 C1715 0.950 . S
H1693 C1717 0.950 . S
H1694 C1718 0.950 . S
H1695 C1719 0.951 . S
H1696 C1721 0.951 . S
H1697 C1723 0.950 . S
H1698 C1724 0.950 . S
H1699 C1726 0.950 . S
H1700 C1729 0.950 . S
H1701 C1730 0.950 . S
H1702 C1732 0.950 . S
H1703 C1733 0.950 1_556 S
C1704 H1686 0.951 . S
C1704 C1705 1.366 . S
C1704 C1706 1.388 . S
C1705 C1704 1.366 . S
C1705 C1709 1.385 . S
C1706 H1687 0.951 . S
C1706 C1704 1.388 . S
C1706 C1707 1.366 . S
C1707 C1706 1.366 . S
C1707 C1708 1.414 . S
C1707 C1710 1.499 . S
C1708 H1688 0.950 . S
C1708 C1707 1.414 . S
C1708 C1709 1.374 . S
C1709 H1689 0.950 . S
C1709 C1705 1.385 . S
C1709 C1708 1.374 . S
C1710 C1707 1.499 . S
C1710 C1711 1.373 . S
C1710 C1712 1.389 . S
C1711 H1690 0.950 . S
C1711 C1710 1.373 . S
C1711 C1727 1.377 . S
C1712 C1710 1.389 . S
C1712 C1713 1.524 . S
C1712 C1726 1.377 . S
C1713 C1712 1.524 . S
C1713 C1714 1.397 . S
C1713 C1718 1.363 . S
C1714 H1691 0.950 . S
C1714 C1713 1.397 . S
C1714 C1715 1.334 . S
C1715 H1692 0.950 . S
C1715 C1714 1.334 . S
C1715 C1716 1.287 . S
C1716 C1715 1.287 . S
C1716 C1717 1.524 . S
C1716 H1735 0.913 . S
C1717 H1693 0.950 . S
C1717 C1716 1.524 . S
C1717 C1718 1.415 . S
C1718 H1694 0.950 . S
C1718 C1713 1.363 . S
C1718 C1717 1.415 . S
C1719 H1695 0.951 . S
C1719 C1720 1.366 . S
C1719 C1721 1.388 . S
C1720 C1719 1.366 . S
C1720 C1724 1.385 . S
C1721 H1696 0.951 . S
C1721 C1719 1.388 . S
C1721 C1722 1.366 . S
C1722 C1721 1.366 . S
C1722 C1723 1.414 . S
C1722 C1725 1.499 . S
C1723 H1697 0.950 . S
C1723 C1722 1.414 . S
C1723 C1724 1.374 . S
C1724 H1698 0.950 . S
C1724 C1720 1.385 . S
C1724 C1723 1.374 . S
C1725 C1722 1.499 . S
C1725 C1726 1.373 . S
C1725 C1727 1.389 . S
C1726 H1699 0.950 . S
C1726 C1712 1.377 . S
C1726 C1725 1.373 . S
C1727 C1711 1.377 . S
C1727 C1725 1.389 . S
C1727 C1728 1.524 . S
C1728 C1727 1.524 . S
C1728 C1729 1.397 1_556 S
C1728 C1733 1.363 1_556 S
C1729 H1700 0.950 . S
C1729 C1728 1.397 1_554 S
C1729 C1730 1.334 . S
C1730 H1701 0.950 . S
C1730 C1729 1.334 . S
C1730 C1731 1.287 . S
C1731 C1730 1.287 . S
C1731 C1732 1.524 . S
C1731 H1734 0.999 . S
C1732 H1702 0.950 . S
C1732 C1731 1.524 . S
C1732 C1733 1.415 . S
C1733 H1703 0.950 1_554 S
C1733 C1728 1.363 1_554 S
C1733 C1732 1.415 . S
H1734 C1731 0.999 . S
H1735 C1716 0.913 . S
H1736 C1754 0.951 . S
H1737 C1756 0.951 . S
H1738 C1758 0.950 . S
H1739 C1759 0.950 . S
H1740 C1761 0.950 . S
H1741 C1764 0.950 . S
H1742 C1765 0.950 . S
H1743 C1767 0.950 . S
H1744 C1768 0.950 . S
H1745 C1769 0.951 . S
H1746 C1771 0.951 . S
H1747 C1773 0.950 . S
H1748 C1774 0.950 . S
H1749 C1776 0.950 . S
H1750 C1779 0.950 . S
H1751 C1780 0.950 . S
H1752 C1782 0.950 . S
H1753 C1783 0.950 . S
C1754 H1736 0.951 . S
C1754 C1755 1.366 . S
C1754 C1756 1.388 . S
C1755 C1754 1.366 . S
C1755 C1759 1.385 . S
C1756 H1737 0.951 . S
C1756 C1754 1.388 . S
C1756 C1757 1.366 . S
C1757 C1756 1.366 . S
C1757 C1758 1.414 . S
C1757 C1760 1.499 . S
C1758 H1738 0.950 . S
C1758 C1757 1.414 . S
C1758 C1759 1.374 . S
C1759 H1739 0.950 . S
C1759 C1755 1.385 . S
C1759 C1758 1.374 . S
C1760 C1757 1.499 . S
C1760 C1761 1.373 . S
C1760 C1762 1.389 . S
C1761 H1740 0.950 . S
C1761 C1760 1.373 . S
C1761 C1777 1.377 . S
C1762 C1760 1.389 . S
C1762 C1763 1.524 . S
C1762 C1776 1.377 . S
C1763 C1762 1.524 . S
C1763 C1764 1.397 . S
C1763 C1768 1.363 . S
C1764 H1741 0.950 . S
C1764 C1763 1.397 . S
C1764 C1765 1.334 . S
C1765 H1742 0.950 . S
C1765 C1764 1.334 . S
C1765 C1766 1.287 . S
C1766 C1765 1.287 . S
C1766 C1767 1.524 . S
C1766 H1785 0.913 . S
C1767 H1743 0.950 . S
C1767 C1766 1.524 . S
C1767 C1768 1.415 . S
C1768 H1744 0.950 . S
C1768 C1763 1.363 . S
C1768 C1767 1.415 . S
C1769 H1745 0.951 . S
C1769 C1770 1.366 . S
C1769 C1771 1.388 . S
C1770 C1769 1.366 . S
C1770 C1774 1.385 . S
C1771 H1746 0.951 . S
C1771 C1769 1.388 . S
C1771 C1772 1.366 . S
C1772 C1771 1.366 . S
C1772 C1773 1.414 . S
C1772 C1775 1.499 . S
C1773 H1747 0.950 . S
C1773 C1772 1.414 . S
C1773 C1774 1.374 . S
C1774 H1748 0.950 . S
C1774 C1770 1.385 . S
C1774 C1773 1.374 . S
C1775 C1772 1.499 . S
C1775 C1776 1.373 . S
C1775 C1777 1.389 . S
C1776 H1749 0.950 . S
C1776 C1762 1.377 . S
C1776 C1775 1.373 . S
C1777 C1761 1.377 . S
C1777 C1775 1.389 . S
C1777 C1778 1.524 . S
C1778 C1777 1.524 . S
C1778 C1779 1.397 . S
C1778 C1783 1.363 . S
C1779 H1750 0.950 . S
C1779 C1778 1.397 . S
C1779 C1780 1.334 . S
C1780 H1751 0.950 . S
C1780 C1779 1.334 . S
C1780 C1781 1.287 . S
C1781 C1780 1.287 . S
C1781 C1782 1.524 . S
C1781 H1784 0.999 . S
C1782 H1752 0.950 . S
C1782 C1781 1.524 . S
C1782 C1783 1.415 . S
C1783 H1753 0.950 . S
C1783 C1778 1.363 . S
C1783 C1782 1.415 . S
H1784 C1781 0.999 . S
H1785 C1766 0.913 . S
H1786 C1804 0.951 . S
H1787 C1806 0.951 . S
H1788 C1808 0.950 . S
H1789 C1809 0.950 . S
H1790 C1811 0.950 . S
H1791 C1814 0.950 . S
H1792 C1815 0.950 . S
H1793 C1817 0.950 . S
H1794 C1818 0.950 . S
H1795 C1819 0.951 . S
H1796 C1821 0.951 . S
H1797 C1823 0.950 . S
H1798 C1824 0.950 . S
H1799 C1826 0.950 . S
H1800 C1829 0.950 . S
H1801 C1830 0.950 . S
H1802 C1832 0.950 . S
H1803 C1833 0.950 . S
C1804 H1786 0.951 . S
C1804 C1805 1.366 . S
C1804 C1806 1.388 . S
C1805 C1804 1.366 . S
C1805 C1809 1.385 . S
C1806 H1787 0.951 . S
C1806 C1804 1.388 . S
C1806 C1807 1.366 . S
C1807 C1806 1.366 . S
C1807 C1808 1.414 . S
C1807 C1810 1.499 . S
C1808 H1788 0.950 . S
C1808 C1807 1.414 . S
C1808 C1809 1.374 . S
C1809 H1789 0.950 . S
C1809 C1805 1.385 . S
C1809 C1808 1.374 . S
C1810 C1807 1.499 . S
C1810 C1811 1.373 . S
C1810 C1812 1.389 . S
C1811 H1790 0.950 . S
C1811 C1810 1.373 . S
C1811 C1827 1.377 . S
C1812 C1810 1.389 . S
C1812 C1813 1.524 . S
C1812 C1826 1.377 . S
C1813 C1812 1.524 . S
C1813 C1814 1.397 . S
C1813 C1818 1.363 . S
C1814 H1791 0.950 . S
C1814 C1813 1.397 . S
C1814 C1815 1.334 . S
C1815 H1792 0.950 . S
C1815 C1814 1.334 . S
C1815 C1816 1.287 . S
C1816 C1815 1.287 . S
C1816 C1817 1.524 . S
C1816 H1835 0.913 . S
C1817 H1793 0.950 . S
C1817 C1816 1.524 . S
C1817 C1818 1.415 . S
C1818 H1794 0.950 . S
C1818 C1813 1.363 . S
C1818 C1817 1.415 . S
C1819 H1795 0.951 . S
C1819 C1820 1.366 . S
C1819 C1821 1.388 . S
C1820 C1819 1.366 . S
C1820 C1824 1.385 . S
C1821 H1796 0.951 . S
C1821 C1819 1.388 . S
C1821 C1822 1.366 . S
C1822 C1821 1.366 . S
C1822 C1823 1.414 . S
C1822 C1825 1.499 . S
C1823 H1797 0.950 . S
C1823 C1822 1.414 . S
C1823 C1824 1.374 . S
C1824 H1798 0.950 . S
C1824 C1820 1.385 . S
C1824 C1823 1.374 . S
C1825 C1822 1.499 . S
C1825 C1826 1.373 . S
C1825 C1827 1.389 . S
C1826 H1799 0.950 . S
C1826 C1812 1.377 . S
C1826 C1825 1.373 . S
C1827 C1811 1.377 . S
C1827 C1825 1.389 . S
C1827 C1828 1.524 . S
C1828 C1827 1.524 . S
C1828 C1829 1.397 . S
C1828 C1833 1.363 . S
C1829 H1800 0.950 . S
C1829 C1828 1.397 . S
C1829 C1830 1.334 . S
C1830 H1801 0.950 . S
C1830 C1829 1.334 . S
C1830 C1831 1.287 . S
C1831 C1830 1.287 . S
C1831 C1832 1.524 . S
C1831 H1834 0.999 . S
C1832 H1802 0.950 . S
C1832 C1831 1.524 . S
C1832 C1833 1.415 . S
C1833 H1803 0.950 . S
C1833 C1828 1.363 . S
C1833 C1832 1.415 . S
H1834 C1831 0.999 . S
H1835 C1816 0.913 . S
H1836 C1854 0.951 . S
H1837 C1856 0.951 . S
H1838 C1858 0.950 . S
H1839 C1859 0.950 . S
H1840 C1861 0.950 . S
H1841 C1864 0.950 . S
H1842 C1865 0.950 . S
H1843 C1867 0.950 . S
H1844 C1868 0.950 . S
H1845 C1869 0.951 . S
H1846 C1871 0.951 . S
H1847 C1873 0.950 . S
H1848 C1874 0.950 . S
H1849 C1876 0.950 . S
H1850 C1879 0.950 . S
H1851 C1880 0.950 . S
H1852 C1882 0.950 . S
H1853 C1883 0.950 . S
C1854 H1836 0.951 . S
C1854 C1855 1.366 . S
C1854 C1856 1.388 . S
C1855 C1854 1.366 . S
C1855 C1859 1.385 . S
C1856 H1837 0.951 . S
C1856 C1854 1.388 . S
C1856 C1857 1.366 . S
C1857 C1856 1.366 . S
C1857 C1858 1.414 . S
C1857 C1860 1.499 . S
C1858 H1838 0.950 . S
C1858 C1857 1.414 . S
C1858 C1859 1.374 . S
C1859 H1839 0.950 . S
C1859 C1855 1.385 . S
C1859 C1858 1.374 . S
C1860 C1857 1.499 . S
C1860 C1861 1.373 . S
C1860 C1862 1.389 . S
C1861 H1840 0.950 . S
C1861 C1860 1.373 . S
C1861 C1877 1.377 . S
C1862 C1860 1.389 . S
C1862 C1863 1.524 . S
C1862 C1876 1.377 . S
C1863 C1862 1.524 . S
C1863 C1864 1.397 . S
C1863 C1868 1.363 . S
C1864 H1841 0.950 . S
C1864 C1863 1.397 . S
C1864 C1865 1.334 . S
C1865 H1842 0.950 . S
C1865 C1864 1.334 . S
C1865 C1866 1.287 . S
C1866 C1865 1.287 . S
C1866 C1867 1.524 . S
C1866 H1885 0.913 . S
C1867 H1843 0.950 . S
C1867 C1866 1.524 . S
C1867 C1868 1.415 . S
C1868 H1844 0.950 . S
C1868 C1863 1.363 . S
C1868 C1867 1.415 . S
C1869 H1845 0.951 . S
C1869 C1870 1.366 . S
C1869 C1871 1.388 . S
C1870 C1869 1.366 . S
C1870 C1874 1.385 . S
C1871 H1846 0.951 . S
C1871 C1869 1.388 . S
C1871 C1872 1.366 . S
C1872 C1871 1.366 . S
C1872 C1873 1.414 . S
C1872 C1875 1.499 . S
C1873 H1847 0.950 . S
C1873 C1872 1.414 . S
C1873 C1874 1.374 . S
C1874 H1848 0.950 . S
C1874 C1870 1.385 . S
C1874 C1873 1.374 . S
C1875 C1872 1.499 . S
C1875 C1876 1.373 . S
C1875 C1877 1.389 . S
C1876 H1849 0.950 . S
C1876 C1862 1.377 . S
C1876 C1875 1.373 . S
C1877 C1861 1.377 . S
C1877 C1875 1.389 . S
C1877 C1878 1.524 . S
C1878 C1877 1.524 . S
C1878 C1879 1.397 . S
C1878 C1883 1.363 . S
C1879 H1850 0.950 . S
C1879 C1878 1.397 . S
C1879 C1880 1.334 . S
C1880 H1851 0.950 . S
C1880 C1879 1.334 . S
C1880 C1881 1.287 . S
C1881 C1880 1.287 . S
C1881 C1882 1.524 . S
C1881 H1884 0.999 . S
C1882 H1852 0.950 . S
C1882 C1881 1.524 . S
C1882 C1883 1.415 . S
C1883 H1853 0.950 . S
C1883 C1878 1.363 . S
C1883 C1882 1.415 . S
H1884 C1881 0.999 . S
H1885 C1866 0.913 . S
H1886 C1904 0.951 . S
H1887 C1906 0.951 . S
H1888 C1908 0.950 . S
H1889 C1909 0.950 . S
H1890 C1911 0.950 . S
H1891 C1914 0.950 . S
H1892 C1915 0.950 . S
H1893 C1917 0.950 . S
H1894 C1918 0.950 . S
H1895 C1919 0.951 . S
H1896 C1921 0.951 . S
H1897 C1923 0.950 . S
H1898 C1924 0.950 . S
H1899 C1926 0.950 . S
H1900 C1929 0.950 . S
H1901 C1930 0.950 . S
H1902 C1932 0.950 1_455 S
H1903 C1933 0.950 . S
C1904 H1886 0.951 . S
C1904 C1905 1.366 . S
C1904 C1906 1.388 . S
C1905 C1904 1.366 . S
C1905 C1909 1.385 . S
C1906 H1887 0.951 . S
C1906 C1904 1.388 . S
C1906 C1907 1.366 . S
C1907 C1906 1.366 . S
C1907 C1908 1.414 . S
C1907 C1910 1.499 . S
C1908 H1888 0.950 . S
C1908 C1907 1.414 . S
C1908 C1909 1.374 . S
C1909 H1889 0.950 . S
C1909 C1905 1.385 . S
C1909 C1908 1.374 . S
C1910 C1907 1.499 . S
C1910 C1911 1.373 . S
C1910 C1912 1.389 . S
C1911 H1890 0.950 . S
C1911 C1910 1.373 . S
C1911 C1927 1.377 . S
C1912 C1910 1.389 . S
C1912 C1913 1.524 . S
C1912 C1926 1.377 . S
C1913 C1912 1.524 . S
C1913 C1914 1.397 . S
C1913 C1918 1.363 . S
C1914 H1891 0.950 . S
C1914 C1913 1.397 . S
C1914 C1915 1.334 . S
C1915 H1892 0.950 . S
C1915 C1914 1.334 . S
C1915 C1916 1.287 . S
C1916 C1915 1.287 . S
C1916 C1917 1.524 . S
C1916 H1935 0.913 . S
C1917 H1893 0.950 . S
C1917 C1916 1.524 . S
C1917 C1918 1.415 . S
C1918 H1894 0.950 . S
C1918 C1913 1.363 . S
C1918 C1917 1.415 . S
C1919 H1895 0.951 . S
C1919 C1920 1.366 . S
C1919 C1921 1.388 . S
C1920 C1919 1.366 . S
C1920 C1924 1.385 . S
C1921 H1896 0.951 . S
C1921 C1919 1.388 . S
C1921 C1922 1.366 . S
C1922 C1921 1.366 . S
C1922 C1923 1.414 . S
C1922 C1925 1.499 . S
C1923 H1897 0.950 . S
C1923 C1922 1.414 . S
C1923 C1924 1.374 . S
C1924 H1898 0.950 . S
C1924 C1920 1.385 . S
C1924 C1923 1.374 . S
C1925 C1922 1.499 . S
C1925 C1926 1.373 . S
C1925 C1927 1.389 . S
C1926 H1899 0.950 . S
C1926 C1912 1.377 . S
C1926 C1925 1.373 . S
C1927 C1911 1.377 . S
C1927 C1925 1.389 . S
C1927 C1928 1.524 . S
C1928 C1927 1.524 . S
C1928 C1929 1.397 . S
C1928 C1933 1.363 . S
C1929 H1900 0.950 . S
C1929 C1928 1.397 . S
C1929 C1930 1.334 . S
C1930 H1901 0.950 . S
C1930 C1929 1.334 . S
C1930 C1931 1.287 . S
C1931 C1930 1.287 . S
C1931 C1932 1.524 . S
C1931 H1934 0.999 1_655 S
C1932 H1902 0.950 1_655 S
C1932 C1931 1.524 . S
C1932 C1933 1.415 . S
C1933 H1903 0.950 . S
C1933 C1928 1.363 . S
C1933 C1932 1.415 . S
H1934 C1931 0.999 1_455 S
H1935 C1916 0.913 . S
H1936 C1954 0.951 . S
H1937 C1956 0.951 . S
H1938 C1958 0.950 . S
H1939 C1959 0.950 . S
H1940 C1961 0.950 . S
H1941 C1964 0.950 . S
H1942 C1965 0.950 . S
H1943 C1967 0.950 . S
H1944 C1968 0.950 . S
H1945 C1969 0.951 . S
H1946 C1971 0.951 . S
H1947 C1973 0.950 . S
H1948 C1974 0.950 . S
H1949 C1976 0.950 . S
H1950 C1979 0.950 . S
H1951 C1980 0.950 . S
H1952 C1982 0.950 . S
H1953 C1983 0.950 . S
C1954 H1936 0.951 . S
C1954 C1955 1.366 . S
C1954 C1956 1.388 . S
C1955 C1954 1.366 . S
C1955 C1959 1.385 . S
C1956 H1937 0.951 . S
C1956 C1954 1.388 . S
C1956 C1957 1.366 . S
C1957 C1956 1.366 . S
C1957 C1958 1.414 . S
C1957 C1960 1.499 . S
C1958 H1938 0.950 . S
C1958 C1957 1.414 . S
C1958 C1959 1.374 . S
C1959 H1939 0.950 . S
C1959 C1955 1.385 . S
C1959 C1958 1.374 . S
C1960 C1957 1.499 . S
C1960 C1961 1.373 . S
C1960 C1962 1.389 . S
C1961 H1940 0.950 . S
C1961 C1960 1.373 . S
C1961 C1977 1.377 . S
C1962 C1960 1.389 . S
C1962 C1963 1.524 . S
C1962 C1976 1.377 . S
C1963 C1962 1.524 . S
C1963 C1964 1.397 . S
C1963 C1968 1.363 . S
C1964 H1941 0.950 . S
C1964 C1963 1.397 . S
C1964 C1965 1.334 . S
C1965 H1942 0.950 . S
C1965 C1964 1.334 . S
C1965 C1966 1.287 . S
C1966 C1965 1.287 . S
C1966 C1967 1.524 . S
C1966 H1985 0.913 . S
C1967 H1943 0.950 . S
C1967 C1966 1.524 . S
C1967 C1968 1.415 . S
C1968 H1944 0.950 . S
C1968 C1963 1.363 . S
C1968 C1967 1.415 . S
C1969 H1945 0.951 . S
C1969 C1970 1.366 . S
C1969 C1971 1.388 . S
C1970 C1969 1.366 . S
C1970 C1974 1.385 . S
C1971 H1946 0.951 . S
C1971 C1969 1.388 . S
C1971 C1972 1.366 . S
C1972 C1971 1.366 . S
C1972 C1973 1.414 . S
C1972 C1975 1.499 . S
C1973 H1947 0.950 . S
C1973 C1972 1.414 . S
C1973 C1974 1.374 . S
C1974 H1948 0.950 . S
C1974 C1970 1.385 . S
C1974 C1973 1.374 . S
C1975 C1972 1.499 . S
C1975 C1976 1.373 . S
C1975 C1977 1.389 . S
C1976 H1949 0.950 . S
C1976 C1962 1.377 . S
C1976 C1975 1.373 . S
C1977 C1961 1.377 . S
C1977 C1975 1.389 . S
C1977 C1978 1.524 . S
C1978 C1977 1.524 . S
C1978 C1979 1.397 . S
C1978 C1983 1.363 . S
C1979 H1950 0.950 . S
C1979 C1978 1.397 . S
C1979 C1980 1.334 . S
C1980 H1951 0.950 . S
C1980 C1979 1.334 . S
C1980 C1981 1.287 . S
C1981 C1980 1.287 . S
C1981 C1982 1.524 . S
C1981 H1984 0.999 . S
C1982 H1952 0.950 . S
C1982 C1981 1.524 . S
C1982 C1983 1.415 . S
C1983 H1953 0.950 . S
C1983 C1978 1.363 . S
C1983 C1982 1.415 . S
H1984 C1981 0.999 . S
H1985 C1966 0.913 . S
H1986 C2004 0.951 1_554 S
H1987 C2006 0.951 . S
H1988 C2008 0.950 . S
H1989 C2009 0.950 . S
H1990 C2011 0.950 . S
H1991 C2014 0.950 . S
H1992 C2015 0.950 . S
H1993 C2017 0.950 1_554 S
H1994 C2018 0.950 . S
H1995 C2019 0.951 . S
H1996 C2021 0.951 . S
H1997 C2023 0.950 . S
H1998 C2024 0.950 . S
H1999 C2026 0.950 . S
H2000 C2029 0.950 . S
H2001 C2030 0.950 . S
H2002 C2032 0.950 . S
H2003 C2033 0.950 . S
C2004 H1986 0.951 1_556 S
C2004 C2005 1.366 . S
C2004 C2006 1.388 . S
C2005 C2004 1.366 . S
C2005 C2009 1.385 . S
C2006 H1987 0.951 . S
C2006 C2004 1.388 . S
C2006 C2007 1.366 . S
C2007 C2006 1.366 . S
C2007 C2008 1.414 . S
C2007 C2010 1.499 . S
C2008 H1988 0.950 . S
C2008 C2007 1.414 . S
C2008 C2009 1.374 . S
C2009 H1989 0.950 . S
C2009 C2005 1.385 . S
C2009 C2008 1.374 . S
C2010 C2007 1.499 . S
C2010 C2011 1.373 . S
C2010 C2012 1.389 . S
C2011 H1990 0.950 . S
C2011 C2010 1.373 . S
C2011 C2027 1.377 . S
C2012 C2010 1.389 . S
C2012 C2013 1.524 . S
C2012 C2026 1.377 . S
C2013 C2012 1.524 . S
C2013 C2014 1.397 . S
C2013 C2018 1.363 . S
C2014 H1991 0.950 . S
C2014 C2013 1.397 . S
C2014 C2015 1.334 . S
C2015 H1992 0.950 . S
C2015 C2014 1.334 . S
C2015 C2016 1.287 . S
C2016 C2015 1.287 . S
C2016 C2017 1.524 . S
C2016 H2035 0.913 . S
C2017 H1993 0.950 1_556 S
C2017 C2016 1.524 . S
C2017 C2018 1.415 . S
C2018 H1994 0.950 . S
C2018 C2013 1.363 . S
C2018 C2017 1.415 . S
C2019 H1995 0.951 . S
C2019 C2020 1.366 . S
C2019 C2021 1.388 . S
C2020 C2019 1.366 . S
C2020 C2024 1.385 . S
C2021 H1996 0.951 . S
C2021 C2019 1.388 . S
C2021 C2022 1.366 . S
C2022 C2021 1.366 . S
C2022 C2023 1.414 . S
C2022 C2025 1.499 . S
C2023 H1997 0.950 . S
C2023 C2022 1.414 . S
C2023 C2024 1.374 . S
C2024 H1998 0.950 . S
C2024 C2020 1.385 . S
C2024 C2023 1.374 . S
C2025 C2022 1.499 . S
C2025 C2026 1.373 . S
C2025 C2027 1.389 . S
C2026 H1999 0.950 . S
C2026 C2012 1.377 . S
C2026 C2025 1.373 . S
C2027 C2011 1.377 . S
C2027 C2025 1.389 . S
C2027 C2028 1.524 . S
C2028 C2027 1.524 . S
C2028 C2029 1.397 . S
C2028 C2033 1.363 . S
C2029 H2000 0.950 . S
C2029 C2028 1.397 . S
C2029 C2030 1.334 . S
C2030 H2001 0.950 . S
C2030 C2029 1.334 . S
C2030 C2031 1.287 . S
C2031 C2030 1.287 . S
C2031 C2032 1.524 . S
C2031 H2034 0.999 . S
C2032 H2002 0.950 . S
C2032 C2031 1.524 . S
C2032 C2033 1.415 . S
C2033 H2003 0.950 . S
C2033 C2028 1.363 . S
C2033 C2032 1.415 . S
H2034 C2031 0.999 . S
H2035 C2016 0.913 . S
H2036 C2054 0.951 . S
H2037 C2056 0.951 . S
H2038 C2058 0.950 . S
H2039 C2059 0.950 . S
H2040 C2061 0.950 . S
H2041 C2064 0.950 . S
H2042 C2065 0.950 . S
H2043 C2067 0.950 . S
H2044 C2068 0.950 . S
H2045 C2069 0.951 . S
H2046 C2071 0.951 . S
H2047 C2073 0.950 . S
H2048 C2074 0.950 . S
H2049 C2076 0.950 . S
H2050 C2079 0.950 . S
H2051 C2080 0.950 . S
H2052 C2082 0.950 . S
H2053 C2083 0.950 . S
C2054 H2036 0.951 . S
C2054 C2055 1.366 . S
C2054 C2056 1.388 . S
C2055 C2054 1.366 . S
C2055 C2059 1.385 . S
C2056 H2037 0.951 . S
C2056 C2054 1.388 . S
C2056 C2057 1.366 . S
C2057 C2056 1.366 . S
C2057 C2058 1.414 . S
C2057 C2060 1.499 . S
C2058 H2038 0.950 . S
C2058 C2057 1.414 . S
C2058 C2059 1.374 . S
C2059 H2039 0.950 . S
C2059 C2055 1.385 . S
C2059 C2058 1.374 . S
C2060 C2057 1.499 . S
C2060 C2061 1.373 . S
C2060 C2062 1.389 . S
C2061 H2040 0.950 . S
C2061 C2060 1.373 . S
C2061 C2077 1.377 . S
C2062 C2060 1.389 . S
C2062 C2063 1.524 . S
C2062 C2076 1.377 . S
C2063 C2062 1.524 . S
C2063 C2064 1.397 . S
C2063 C2068 1.363 . S
C2064 H2041 0.950 . S
C2064 C2063 1.397 . S
C2064 C2065 1.334 . S
C2065 H2042 0.950 . S
C2065 C2064 1.334 . S
C2065 C2066 1.287 . S
C2066 C2065 1.287 . S
C2066 C2067 1.524 . S
C2066 H2085 0.913 . S
C2067 H2043 0.950 . S
C2067 C2066 1.524 . S
C2067 C2068 1.415 . S
C2068 H2044 0.950 . S
C2068 C2063 1.363 . S
C2068 C2067 1.415 . S
C2069 H2045 0.951 . S
C2069 C2070 1.366 . S
C2069 C2071 1.388 . S
C2070 C2069 1.366 . S
C2070 C2074 1.385 . S
C2071 H2046 0.951 . S
C2071 C2069 1.388 . S
C2071 C2072 1.366 . S
C2072 C2071 1.366 . S
C2072 C2073 1.414 . S
C2072 C2075 1.499 . S
C2073 H2047 0.950 . S
C2073 C2072 1.414 . S
C2073 C2074 1.374 . S
C2074 H2048 0.950 . S
C2074 C2070 1.385 . S
C2074 C2073 1.374 . S
C2075 C2072 1.499 . S
C2075 C2076 1.373 . S
C2075 C2077 1.389 . S
C2076 H2049 0.950 . S
C2076 C2062 1.377 . S
C2076 C2075 1.373 . S
C2077 C2061 1.377 . S
C2077 C2075 1.389 . S
C2077 C2078 1.524 . S
C2078 C2077 1.524 . S
C2078 C2079 1.397 . S
C2078 C2083 1.363 . S
C2079 H2050 0.950 . S
C2079 C2078 1.397 . S
C2079 C2080 1.334 . S
C2080 H2051 0.950 . S
C2080 C2079 1.334 . S
C2080 C2081 1.287 . S
C2081 C2080 1.287 . S
C2081 C2082 1.524 . S
C2081 H2084 0.999 . S
C2082 H2052 0.950 . S
C2082 C2081 1.524 . S
C2082 C2083 1.415 . S
C2083 H2053 0.950 . S
C2083 C2078 1.363 . S
C2083 C2082 1.415 . S
H2084 C2081 0.999 . S
H2085 C2066 0.913 . S
H2086 C2104 0.951 . S
H2087 C2106 0.951 . S
H2088 C2108 0.950 . S
H2089 C2109 0.950 . S
H2090 C2111 0.950 . S
H2091 C2114 0.950 . S
H2092 C2115 0.950 . S
H2093 C2117 0.950 . S
H2094 C2118 0.950 . S
H2095 C2119 0.951 . S
H2096 C2121 0.951 . S
H2097 C2123 0.950 . S
H2098 C2124 0.950 . S
H2099 C2126 0.950 . S
H2100 C2129 0.950 . S
H2101 C2130 0.950 . S
H2102 C2132 0.950 . S
H2103 C2133 0.950 . S
C2104 H2086 0.951 . S
C2104 C2105 1.366 . S
C2104 C2106 1.388 . S
C2105 C2104 1.366 . S
C2105 C2109 1.385 . S
C2106 H2087 0.951 . S
C2106 C2104 1.388 . S
C2106 C2107 1.366 . S
C2107 C2106 1.366 . S
C2107 C2108 1.414 . S
C2107 C2110 1.499 . S
C2108 H2088 0.950 . S
C2108 C2107 1.414 . S
C2108 C2109 1.374 . S
C2109 H2089 0.950 . S
C2109 C2105 1.385 . S
C2109 C2108 1.374 . S
C2110 C2107 1.499 . S
C2110 C2111 1.373 . S
C2110 C2112 1.389 . S
C2111 H2090 0.950 . S
C2111 C2110 1.373 . S
C2111 C2127 1.377 . S
C2112 C2110 1.389 . S
C2112 C2113 1.524 . S
C2112 C2126 1.377 . S
C2113 C2112 1.524 . S
C2113 C2114 1.397 . S
C2113 C2118 1.363 . S
C2114 H2091 0.950 . S
C2114 C2113 1.397 . S
C2114 C2115 1.334 . S
C2115 H2092 0.950 . S
C2115 C2114 1.334 . S
C2115 C2116 1.287 . S
C2116 C2115 1.287 . S
C2116 C2117 1.524 . S
C2116 H2135 0.913 . S
C2117 H2093 0.950 . S
C2117 C2116 1.524 . S
C2117 C2118 1.415 . S
C2118 H2094 0.950 . S
C2118 C2113 1.363 . S
C2118 C2117 1.415 . S
C2119 H2095 0.951 . S
C2119 C2120 1.366 . S
C2119 C2121 1.388 . S
C2120 C2119 1.366 . S
C2120 C2124 1.385 . S
C2121 H2096 0.951 . S
C2121 C2119 1.388 . S
C2121 C2122 1.366 . S
C2122 C2121 1.366 . S
C2122 C2123 1.414 . S
C2122 C2125 1.499 . S
C2123 H2097 0.950 . S
C2123 C2122 1.414 . S
C2123 C2124 1.374 . S
C2124 H2098 0.950 . S
C2124 C2120 1.385 . S
C2124 C2123 1.374 . S
C2125 C2122 1.499 . S
C2125 C2126 1.373 . S
C2125 C2127 1.389 . S
C2126 H2099 0.950 . S
C2126 C2112 1.377 . S
C2126 C2125 1.373 . S
C2127 C2111 1.377 . S
C2127 C2125 1.389 . S
C2127 C2128 1.524 . S
C2128 C2127 1.524 . S
C2128 C2129 1.397 . S
C2128 C2133 1.363 . S
C2129 H2100 0.950 . S
C2129 C2128 1.397 . S
C2129 C2130 1.334 . S
C2130 H2101 0.950 . S
C2130 C2129 1.334 . S
C2130 C2131 1.287 . S
C2131 C2130 1.287 . S
C2131 C2132 1.524 . S
C2131 H2134 0.999 . S
C2132 H2102 0.950 . S
C2132 C2131 1.524 . S
C2132 C2133 1.415 . S
C2133 H2103 0.950 . S
C2133 C2128 1.363 . S
C2133 C2132 1.415 . S
H2134 C2131 0.999 . S
H2135 C2116 0.913 . S
H2136 C2154 0.951 . S
H2137 C2156 0.951 . S
H2138 C2158 0.950 . S
H2139 C2159 0.950 . S
H2140 C2161 0.950 . S
H2141 C2164 0.950 . S
H2142 C2165 0.950 . S
H2143 C2167 0.950 . S
H2144 C2168 0.950 . S
H2145 C2169 0.951 . S
H2146 C2171 0.951 . S
H2147 C2173 0.950 . S
H2148 C2174 0.950 . S
H2149 C2176 0.950 . S
H2150 C2179 0.950 . S
H2151 C2180 0.950 . S
H2152 C2182 0.950 . S
H2153 C2183 0.950 . S
C2154 H2136 0.951 . S
C2154 C2155 1.366 . S
C2154 C2156 1.388 . S
C2155 C2154 1.366 . S
C2155 C2159 1.385 . S
C2156 H2137 0.951 . S
C2156 C2154 1.388 . S
C2156 C2157 1.366 . S
C2157 C2156 1.366 . S
C2157 C2158 1.414 . S
C2157 C2160 1.499 . S
C2158 H2138 0.950 . S
C2158 C2157 1.414 . S
C2158 C2159 1.374 . S
C2159 H2139 0.950 . S
C2159 C2155 1.385 . S
C2159 C2158 1.374 . S
C2160 C2157 1.499 . S
C2160 C2161 1.373 . S
C2160 C2162 1.389 . S
C2161 H2140 0.950 . S
C2161 C2160 1.373 . S
C2161 C2177 1.377 . S
C2162 C2160 1.389 . S
C2162 C2163 1.524 . S
C2162 C2176 1.377 . S
C2163 C2162 1.524 . S
C2163 C2164 1.397 . S
C2163 C2168 1.363 . S
C2164 H2141 0.950 . S
C2164 C2163 1.397 . S
C2164 C2165 1.334 . S
C2165 H2142 0.950 . S
C2165 C2164 1.334 . S
C2165 C2166 1.287 . S
C2166 C2165 1.287 . S
C2166 C2167 1.524 . S
C2166 H2185 0.913 . S
C2167 H2143 0.950 . S
C2167 C2166 1.524 . S
C2167 C2168 1.415 . S
C2168 H2144 0.950 . S
C2168 C2163 1.363 . S
C2168 C2167 1.415 . S
C2169 H2145 0.951 . S
C2169 C2170 1.366 . S
C2169 C2171 1.388 . S
C2170 C2169 1.366 . S
C2170 C2174 1.385 . S
C2171 H2146 0.951 . S
C2171 C2169 1.388 . S
C2171 C2172 1.366 . S
C2172 C2171 1.366 . S
C2172 C2173 1.414 . S
C2172 C2175 1.499 . S
C2173 H2147 0.950 . S
C2173 C2172 1.414 . S
C2173 C2174 1.374 . S
C2174 H2148 0.950 . S
C2174 C2170 1.385 . S
C2174 C2173 1.374 . S
C2175 C2172 1.499 . S
C2175 C2176 1.373 . S
C2175 C2177 1.389 . S
C2176 H2149 0.950 . S
C2176 C2162 1.377 . S
C2176 C2175 1.373 . S
C2177 C2161 1.377 . S
C2177 C2175 1.389 . S
C2177 C2178 1.524 . S
C2178 C2177 1.524 . S
C2178 C2179 1.397 . S
C2178 C2183 1.363 . S
C2179 H2150 0.950 . S
C2179 C2178 1.397 . S
C2179 C2180 1.334 . S
C2180 H2151 0.950 . S
C2180 C2179 1.334 . S
C2180 C2181 1.287 . S
C2181 C2180 1.287 . S
C2181 C2182 1.524 . S
C2181 H2184 0.999 . S
C2182 H2152 0.950 . S
C2182 C2181 1.524 . S
C2182 C2183 1.415 . S
C2183 H2153 0.950 . S
C2183 C2178 1.363 . S
C2183 C2182 1.415 . S
H2184 C2181 0.999 . S
H2185 C2166 0.913 . S
H2186 C2204 0.951 . S
H2187 C2206 0.951 . S
H2188 C2208 0.950 . S
H2189 C2209 0.950 . S
H2190 C2211 0.950 . S
H2191 C2214 0.950 . S
H2192 C2215 0.950 . S
H2193 C2217 0.950 . S
H2194 C2218 0.950 . S
H2195 C2219 0.951 . S
H2196 C2221 0.951 . S
H2197 C2223 0.950 . S
H2198 C2224 0.950 . S
H2199 C2226 0.950 . S
H2200 C2229 0.950 . S
H2201 C2230 0.950 . S
H2202 C2232 0.950 . S
H2203 C2233 0.950 . S
C2204 H2186 0.951 . S
C2204 C2205 1.366 . S
C2204 C2206 1.388 . S
C2205 C2204 1.366 . S
C2205 C2209 1.385 . S
C2206 H2187 0.951 . S
C2206 C2204 1.388 . S
C2206 C2207 1.366 . S
C2207 C2206 1.366 . S
C2207 C2208 1.414 . S
C2207 C2210 1.499 . S
C2208 H2188 0.950 . S
C2208 C2207 1.414 . S
C2208 C2209 1.374 . S
C2209 H2189 0.950 . S
C2209 C2205 1.385 . S
C2209 C2208 1.374 . S
C2210 C2207 1.499 . S
C2210 C2211 1.373 . S
C2210 C2212 1.389 . S
C2211 H2190 0.950 . S
C2211 C2210 1.373 . S
C2211 C2227 1.377 . S
C2212 C2210 1.389 . S
C2212 C2213 1.524 . S
C2212 C2226 1.377 . S
C2213 C2212 1.524 . S
C2213 C2214 1.397 . S
C2213 C2218 1.363 . S
C2214 H2191 0.950 . S
C2214 C2213 1.397 . S
C2214 C2215 1.334 . S
C2215 H2192 0.950 . S
C2215 C2214 1.334 . S
C2215 C2216 1.287 . S
C2216 C2215 1.287 . S
C2216 C2217 1.524 . S
C2216 H2235 0.913 . S
C2217 H2193 0.950 . S
C2217 C2216 1.524 . S
C2217 C2218 1.415 . S
C2218 H2194 0.950 . S
C2218 C2213 1.363 . S
C2218 C2217 1.415 . S
C2219 H2195 0.951 . S
C2219 C2220 1.366 . S
C2219 C2221 1.388 . S
C2220 C2219 1.366 . S
C2220 C2224 1.385 . S
C2221 H2196 0.951 . S
C2221 C2219 1.388 . S
C2221 C2222 1.366 . S
C2222 C2221 1.366 . S
C2222 C2223 1.414 . S
C2222 C2225 1.499 . S
C2223 H2197 0.950 . S
C2223 C2222 1.414 . S
C2223 C2224 1.374 . S
C2224 H2198 0.950 . S
C2224 C2220 1.385 . S
C2224 C2223 1.374 . S
C2225 C2222 1.499 . S
C2225 C2226 1.373 . S
C2225 C2227 1.389 . S
C2226 H2199 0.950 . S
C2226 C2212 1.377 . S
C2226 C2225 1.373 . S
C2227 C2211 1.377 . S
C2227 C2225 1.389 . S
C2227 C2228 1.524 . S
C2228 C2227 1.524 . S
C2228 C2229 1.397 . S
C2228 C2233 1.363 . S
C2229 H2200 0.950 . S
C2229 C2228 1.397 . S
C2229 C2230 1.334 . S
C2230 H2201 0.950 . S
C2230 C2229 1.334 . S
C2230 C2231 1.287 . S
C2231 C2230 1.287 . S
C2231 C2232 1.524 . S
C2231 H2234 0.999 . S
C2232 H2202 0.950 . S
C2232 C2231 1.524 . S
C2232 C2233 1.415 . S
C2233 H2203 0.950 . S
C2233 C2228 1.363 . S
C2233 C2232 1.415 . S
H2234 C2231 0.999 . S
H2235 C2216 0.913 . S
H2236 C2254 0.951 . S
H2237 C2256 0.951 . S
H2238 C2258 0.950 . S
H2239 C2259 0.950 . S
H2240 C2261 0.950 . S
H2241 C2264 0.950 . S
H2242 C2265 0.950 . S
H2243 C2267 0.950 . S
H2244 C2268 0.950 . S
H2245 C2269 0.951 . S
H2246 C2271 0.951 . S
H2247 C2273 0.950 . S
H2248 C2274 0.950 . S
H2249 C2276 0.950 . S
H2250 C2279 0.950 . S
H2251 C2280 0.950 . S
H2252 C2282 0.950 . S
H2253 C2283 0.950 . S
C2254 H2236 0.951 . S
C2254 C2255 1.366 . S
C2254 C2256 1.388 . S
C2255 C2254 1.366 . S
C2255 C2259 1.385 . S
C2256 H2237 0.951 . S
C2256 C2254 1.388 . S
C2256 C2257 1.366 . S
C2257 C2256 1.366 . S
C2257 C2258 1.414 . S
C2257 C2260 1.499 . S
C2258 H2238 0.950 . S
C2258 C2257 1.414 . S
C2258 C2259 1.374 . S
C2259 H2239 0.950 . S
C2259 C2255 1.385 . S
C2259 C2258 1.374 . S
C2260 C2257 1.499 . S
C2260 C2261 1.373 . S
C2260 C2262 1.389 . S
C2261 H2240 0.950 . S
C2261 C2260 1.373 . S
C2261 C2277 1.377 . S
C2262 C2260 1.389 . S
C2262 C2263 1.524 . S
C2262 C2276 1.377 . S
C2263 C2262 1.524 . S
C2263 C2264 1.397 . S
C2263 C2268 1.363 . S
C2264 H2241 0.950 . S
C2264 C2263 1.397 . S
C2264 C2265 1.334 . S
C2265 H2242 0.950 . S
C2265 C2264 1.334 . S
C2265 C2266 1.287 . S
C2266 C2265 1.287 . S
C2266 C2267 1.524 . S
C2266 H2285 0.913 . S
C2267 H2243 0.950 . S
C2267 C2266 1.524 . S
C2267 C2268 1.415 . S
C2268 H2244 0.950 . S
C2268 C2263 1.363 . S
C2268 C2267 1.415 . S
C2269 H2245 0.951 . S
C2269 C2270 1.366 . S
C2269 C2271 1.388 . S
C2270 C2269 1.366 . S
C2270 C2274 1.385 . S
C2271 H2246 0.951 . S
C2271 C2269 1.388 . S
C2271 C2272 1.366 . S
C2272 C2271 1.366 . S
C2272 C2273 1.414 . S
C2272 C2275 1.499 . S
C2273 H2247 0.950 . S
C2273 C2272 1.414 . S
C2273 C2274 1.374 . S
C2274 H2248 0.950 . S
C2274 C2270 1.385 . S
C2274 C2273 1.374 . S
C2275 C2272 1.499 . S
C2275 C2276 1.373 . S
C2275 C2277 1.389 . S
C2276 H2249 0.950 . S
C2276 C2262 1.377 . S
C2276 C2275 1.373 . S
C2277 C2261 1.377 . S
C2277 C2275 1.389 . S
C2277 C2278 1.524 . S
C2278 C2277 1.524 . S
C2278 C2279 1.397 . S
C2278 C2283 1.363 . S
C2279 H2250 0.950 . S
C2279 C2278 1.397 . S
C2279 C2280 1.334 . S
C2280 H2251 0.950 . S
C2280 C2279 1.334 . S
C2280 C2281 1.287 . S
C2281 C2280 1.287 . S
C2281 C2282 1.524 . S
C2281 H2284 0.999 . S
C2282 H2252 0.950 . S
C2282 C2281 1.524 . S
C2282 C2283 1.415 . S
C2283 H2253 0.950 . S
C2283 C2278 1.363 . S
C2283 C2282 1.415 . S
H2284 C2281 0.999 . S
H2285 C2266 0.913 . S
H2286 C2304 0.951 . S
H2287 C2306 0.951 . S
H2288 C2308 0.950 . S
H2289 C2309 0.950 . S
H2290 C2311 0.950 . S
H2291 C2314 0.950 . S
H2292 C2315 0.950 . S
H2293 C2317 0.950 . S
H2294 C2318 0.950 . S
H2295 C2319 0.951 . S
H2296 C2321 0.951 . S
H2297 C2323 0.950 . S
H2298 C2324 0.950 . S
H2299 C2326 0.950 . S
H2300 C2329 0.950 . S
H2301 C2330 0.950 . S
H2302 C2332 0.950 . S
H2303 C2333 0.950 . S
C2304 H2286 0.951 . S
C2304 C2305 1.366 . S
C2304 C2306 1.388 . S
C2305 C2304 1.366 . S
C2305 C2309 1.385 . S
C2306 H2287 0.951 . S
C2306 C2304 1.388 . S
C2306 C2307 1.366 . S
C2307 C2306 1.366 . S
C2307 C2308 1.414 . S
C2307 C2310 1.499 . S
C2308 H2288 0.950 . S
C2308 C2307 1.414 . S
C2308 C2309 1.374 . S
C2309 H2289 0.950 . S
C2309 C2305 1.385 . S
C2309 C2308 1.374 . S
C2310 C2307 1.499 . S
C2310 C2311 1.373 . S
C2310 C2312 1.389 . S
C2311 H2290 0.950 . S
C2311 C2310 1.373 . S
C2311 C2327 1.377 . S
C2312 C2310 1.389 . S
C2312 C2313 1.524 . S
C2312 C2326 1.377 . S
C2313 C2312 1.524 . S
C2313 C2314 1.397 . S
C2313 C2318 1.363 . S
C2314 H2291 0.950 . S
C2314 C2313 1.397 . S
C2314 C2315 1.334 . S
C2315 H2292 0.950 . S
C2315 C2314 1.334 . S
C2315 C2316 1.287 . S
C2316 C2315 1.287 . S
C2316 C2317 1.524 . S
C2316 H2335 0.913 . S
C2317 H2293 0.950 . S
C2317 C2316 1.524 . S
C2317 C2318 1.415 . S
C2318 H2294 0.950 . S
C2318 C2313 1.363 . S
C2318 C2317 1.415 . S
C2319 H2295 0.951 . S
C2319 C2320 1.366 . S
C2319 C2321 1.388 . S
C2320 C2319 1.366 . S
C2320 C2324 1.385 . S
C2321 H2296 0.951 . S
C2321 C2319 1.388 . S
C2321 C2322 1.366 . S
C2322 C2321 1.366 . S
C2322 C2323 1.414 . S
C2322 C2325 1.499 . S
C2323 H2297 0.950 . S
C2323 C2322 1.414 . S
C2323 C2324 1.374 . S
C2324 H2298 0.950 . S
C2324 C2320 1.385 . S
C2324 C2323 1.374 . S
C2325 C2322 1.499 . S
C2325 C2326 1.373 . S
C2325 C2327 1.389 . S
C2326 H2299 0.950 . S
C2326 C2312 1.377 . S
C2326 C2325 1.373 . S
C2327 C2311 1.377 . S
C2327 C2325 1.389 . S
C2327 C2328 1.524 . S
C2328 C2327 1.524 . S
C2328 C2329 1.397 . S
C2328 C2333 1.363 . S
C2329 H2300 0.950 . S
C2329 C2328 1.397 . S
C2329 C2330 1.334 . S
C2330 H2301 0.950 . S
C2330 C2329 1.334 . S
C2330 C2331 1.287 . S
C2331 C2330 1.287 . S
C2331 C2332 1.524 . S
C2331 H2334 0.999 . S
C2332 H2302 0.950 . S
C2332 C2331 1.524 . S
C2332 C2333 1.415 . S
C2333 H2303 0.950 . S
C2333 C2328 1.363 . S
C2333 C2332 1.415 . S
H2334 C2331 0.999 . S
H2335 C2316 0.913 . S
H2336 C2354 0.951 . S
H2337 C2356 0.951 . S
H2338 C2358 0.950 . S
H2339 C2359 0.950 . S
H2340 C2361 0.950 . S
H2341 C2364 0.950 . S
H2342 C2365 0.950 . S
H2343 C2367 0.950 . S
H2344 C2368 0.950 . S
H2345 C2369 0.951 . S
H2346 C2371 0.951 . S
H2347 C2373 0.950 . S
H2348 C2374 0.950 . S
H2349 C2376 0.950 . S
H2350 C2379 0.950 . S
H2351 C2380 0.950 . S
H2352 C2382 0.950 . S
H2353 C2383 0.950 . S
C2354 H2336 0.951 . S
C2354 C2355 1.366 . S
C2354 C2356 1.388 . S
C2355 C2354 1.366 . S
C2355 C2359 1.385 . S
C2356 H2337 0.951 . S
C2356 C2354 1.388 . S
C2356 C2357 1.366 . S
C2357 C2356 1.366 . S
C2357 C2358 1.414 . S
C2357 C2360 1.499 . S
C2358 H2338 0.950 . S
C2358 C2357 1.414 . S
C2358 C2359 1.374 . S
C2359 H2339 0.950 . S
C2359 C2355 1.385 . S
C2359 C2358 1.374 . S
C2360 C2357 1.499 . S
C2360 C2361 1.373 . S
C2360 C2362 1.389 . S
C2361 H2340 0.950 . S
C2361 C2360 1.373 . S
C2361 C2377 1.377 . S
C2362 C2360 1.389 . S
C2362 C2363 1.524 . S
C2362 C2376 1.377 . S
C2363 C2362 1.524 . S
C2363 C2364 1.397 . S
C2363 C2368 1.363 . S
C2364 H2341 0.950 . S
C2364 C2363 1.397 . S
C2364 C2365 1.334 . S
C2365 H2342 0.950 . S
C2365 C2364 1.334 . S
C2365 C2366 1.287 . S
C2366 C2365 1.287 . S
C2366 C2367 1.524 . S
C2366 H2385 0.913 . S
C2367 H2343 0.950 . S
C2367 C2366 1.524 . S
C2367 C2368 1.415 . S
C2368 H2344 0.950 . S
C2368 C2363 1.363 . S
C2368 C2367 1.415 . S
C2369 H2345 0.951 . S
C2369 C2370 1.366 . S
C2369 C2371 1.388 . S
C2370 C2369 1.366 . S
C2370 C2374 1.385 . S
C2371 H2346 0.951 . S
C2371 C2369 1.388 . S
C2371 C2372 1.366 . S
C2372 C2371 1.366 . S
C2372 C2373 1.414 . S
C2372 C2375 1.499 . S
C2373 H2347 0.950 . S
C2373 C2372 1.414 . S
C2373 C2374 1.374 . S
C2374 H2348 0.950 . S
C2374 C2370 1.385 . S
C2374 C2373 1.374 . S
C2375 C2372 1.499 . S
C2375 C2376 1.373 . S
C2375 C2377 1.389 . S
C2376 H2349 0.950 . S
C2376 C2362 1.377 . S
C2376 C2375 1.373 . S
C2377 C2361 1.377 . S
C2377 C2375 1.389 . S
C2377 C2378 1.524 . S
C2378 C2377 1.524 . S
C2378 C2379 1.397 . S
C2378 C2383 1.363 . S
C2379 H2350 0.950 . S
C2379 C2378 1.397 . S
C2379 C2380 1.334 . S
C2380 H2351 0.950 . S
C2380 C2379 1.334 . S
C2380 C2381 1.287 . S
C2381 C2380 1.287 . S
C2381 C2382 1.524 . S
C2381 H2384 0.999 . S
C2382 H2352 0.950 . S
C2382 C2381 1.524 . S
C2382 C2383 1.415 . S
C2383 H2353 0.950 . S
C2383 C2378 1.363 . S
C2383 C2382 1.415 . S
H2384 C2381 0.999 . S
H2385 C2366 0.913 . S
H2386 C2404 0.951 . S
H2387 C2406 0.951 . S
H2388 C2408 0.950 . S
H2389 C2409 0.950 . S
H2390 C2411 0.950 . S
H2391 C2414 0.950 . S
H2392 C2415 0.950 . S
H2393 C2417 0.950 . S
H2394 C2418 0.950 . S
H2395 C2419 0.951 . S
H2396 C2421 0.951 . S
H2397 C2423 0.950 . S
H2398 C2424 0.950 . S
H2399 C2426 0.950 . S
H2400 C2429 0.950 . S
H2401 C2430 0.950 . S
H2402 C2432 0.950 . S
H2403 C2433 0.950 . S
C2404 H2386 0.951 . S
C2404 C2405 1.366 . S
C2404 C2406 1.388 . S
C2405 C2404 1.366 . S
C2405 C2409 1.385 . S
C2406 H2387 0.951 . S
C2406 C2404 1.388 . S
C2406 C2407 1.366 . S
C2407 C2406 1.366 . S
C2407 C2408 1.414 . S
C2407 C2410 1.499 . S
C2408 H2388 0.950 . S
C2408 C2407 1.414 . S
C2408 C2409 1.374 . S
C2409 H2389 0.950 . S
C2409 C2405 1.385 . S
C2409 C2408 1.374 . S
C2410 C2407 1.499 . S
C2410 C2411 1.373 . S
C2410 C2412 1.389 . S
C2411 H2390 0.950 . S
C2411 C2410 1.373 . S
C2411 C2427 1.377 . S
C2412 C2410 1.389 . S
C2412 C2413 1.524 . S
C2412 C2426 1.377 . S
C2413 C2412 1.524 . S
C2413 C2414 1.397 . S
C2413 C2418 1.363 . S
C2414 H2391 0.950 . S
C2414 C2413 1.397 . S
C2414 C2415 1.334 . S
C2415 H2392 0.950 . S
C2415 C2414 1.334 . S
C2415 C2416 1.287 . S
C2416 C2415 1.287 . S
C2416 C2417 1.524 . S
C2416 H2435 0.913 . S
C2417 H2393 0.950 . S
C2417 C2416 1.524 . S
C2417 C2418 1.415 . S
C2418 H2394 0.950 . S
C2418 C2413 1.363 . S
C2418 C2417 1.415 . S
C2419 H2395 0.951 . S
C2419 C2420 1.366 . S
C2419 C2421 1.388 . S
C2420 C2419 1.366 . S
C2420 C2424 1.385 . S
C2421 H2396 0.951 . S
C2421 C2419 1.388 . S
C2421 C2422 1.366 . S
C2422 C2421 1.366 . S
C2422 C2423 1.414 . S
C2422 C2425 1.499 . S
C2423 H2397 0.950 . S
C2423 C2422 1.414 . S
C2423 C2424 1.374 . S
C2424 H2398 0.950 . S
C2424 C2420 1.385 . S
C2424 C2423 1.374 . S
C2425 C2422 1.499 . S
C2425 C2426 1.373 . S
C2425 C2427 1.389 . S
C2426 H2399 0.950 . S
C2426 C2412 1.377 . S
C2426 C2425 1.373 . S
C2427 C2411 1.377 . S
C2427 C2425 1.389 . S
C2427 C2428 1.524 . S
C2428 C2427 1.524 . S
C2428 C2429 1.397 . S
C2428 C2433 1.363 . S
C2429 H2400 0.950 . S
C2429 C2428 1.397 . S
C2429 C2430 1.334 . S
C2430 H2401 0.950 . S
C2430 C2429 1.334 . S
C2430 C2431 1.287 . S
C2431 C2430 1.287 . S
C2431 C2432 1.524 . S
C2431 H2434 0.999 . S
C2432 H2402 0.950 . S
C2432 C2431 1.524 . S
C2432 C2433 1.415 . S
C2433 H2403 0.950 . S
C2433 C2428 1.363 . S
C2433 C2432 1.415 . S
H2434 C2431 0.999 . S
H2435 C2416 0.913 . S
H2436 C2454 0.951 . S
H2437 C2456 0.951 . S
H2438 C2458 0.950 . S
H2439 C2459 0.950 . S
H2440 C2461 0.950 . S
H2441 C2464 0.950 . S
H2442 C2465 0.950 1_556 S
H2443 C2467 0.950 . S
H2444 C2468 0.950 . S
H2445 C2469 0.951 . S
H2446 C2471 0.951 . S
H2447 C2473 0.950 . S
H2448 C2474 0.950 . S
H2449 C2476 0.950 . S
H2450 C2479 0.950 . S
H2451 C2480 0.950 . S
H2452 C2482 0.950 . S
H2453 C2483 0.950 . S
C2454 H2436 0.951 . S
C2454 C2455 1.366 . S
C2454 C2456 1.388 . S
C2455 C2454 1.366 . S
C2455 C2459 1.385 . S
C2456 H2437 0.951 . S
C2456 C2454 1.388 . S
C2456 C2457 1.366 . S
C2457 C2456 1.366 . S
C2457 C2458 1.414 . S
C2457 C2460 1.499 . S
C2458 H2438 0.950 . S
C2458 C2457 1.414 . S
C2458 C2459 1.374 . S
C2459 H2439 0.950 . S
C2459 C2455 1.385 . S
C2459 C2458 1.374 . S
C2460 C2457 1.499 . S
C2460 C2461 1.373 . S
C2460 C2462 1.389 . S
C2461 H2440 0.950 . S
C2461 C2460 1.373 . S
C2461 C2477 1.377 . S
C2462 C2460 1.389 . S
C2462 C2463 1.524 . S
C2462 C2476 1.377 . S
C2463 C2462 1.524 . S
C2463 C2464 1.397 . S
C2463 C2468 1.363 . S
C2464 H2441 0.950 . S
C2464 C2463 1.397 . S
C2464 C2465 1.334 . S
C2465 H2442 0.950 1_554 S
C2465 C2464 1.334 . S
C2465 C2466 1.287 . S
C2466 C2465 1.287 . S
C2466 C2467 1.524 . S
C2466 H2485 0.913 . S
C2467 H2443 0.950 . S
C2467 C2466 1.524 . S
C2467 C2468 1.415 . S
C2468 H2444 0.950 . S
C2468 C2463 1.363 . S
C2468 C2467 1.415 . S
C2469 H2445 0.951 . S
C2469 C2470 1.366 . S
C2469 C2471 1.388 . S
C2470 C2469 1.366 . S
C2470 C2474 1.385 . S
C2471 H2446 0.951 . S
C2471 C2469 1.388 . S
C2471 C2472 1.366 . S
C2472 C2471 1.366 . S
C2472 C2473 1.414 . S
C2472 C2475 1.499 . S
C2473 H2447 0.950 . S
C2473 C2472 1.414 . S
C2473 C2474 1.374 . S
C2474 H2448 0.950 . S
C2474 C2470 1.385 . S
C2474 C2473 1.374 . S
C2475 C2472 1.499 . S
C2475 C2476 1.373 . S
C2475 C2477 1.389 . S
C2476 H2449 0.950 . S
C2476 C2462 1.377 . S
C2476 C2475 1.373 . S
C2477 C2461 1.377 . S
C2477 C2475 1.389 . S
C2477 C2478 1.524 . S
C2478 C2477 1.524 . S
C2478 C2479 1.397 . S
C2478 C2483 1.363 . S
C2479 H2450 0.950 . S
C2479 C2478 1.397 . S
C2479 C2480 1.334 . S
C2480 H2451 0.950 . S
C2480 C2479 1.334 . S
C2480 C2481 1.287 . S
C2481 C2480 1.287 . S
C2481 C2482 1.524 . S
C2481 H2484 0.999 . S
C2482 H2452 0.950 . S
C2482 C2481 1.524 . S
C2482 C2483 1.415 . S
C2483 H2453 0.950 . S
C2483 C2478 1.363 . S
C2483 C2482 1.415 . S
H2484 C2481 0.999 . S
H2485 C2466 0.913 . S
H2486 C2504 0.951 . S
H2487 C2506 0.951 . S
H2488 C2508 0.950 . S
H2489 C2509 0.950 . S
H2490 C2511 0.950 . S
H2491 C2514 0.950 . S
H2492 C2515 0.950 . S
H2493 C2517 0.950 . S
H2494 C2518 0.950 . S
H2495 C2519 0.951 . S
H2496 C2521 0.951 . S
H2497 C2523 0.950 . S
H2498 C2524 0.950 . S
H2499 C2526 0.950 . S
H2500 C2529 0.950 . S
H2501 C2530 0.950 . S
H2502 C2532 0.950 . S
H2503 C2533 0.950 . S
C2504 H2486 0.951 . S
C2504 C2505 1.366 . S
C2504 C2506 1.388 . S
C2505 C2504 1.366 . S
C2505 C2509 1.385 . S
C2506 H2487 0.951 . S
C2506 C2504 1.388 . S
C2506 C2507 1.366 . S
C2507 C2506 1.366 . S
C2507 C2508 1.414 . S
C2507 C2510 1.499 . S
C2508 H2488 0.950 . S
C2508 C2507 1.414 . S
C2508 C2509 1.374 . S
C2509 H2489 0.950 . S
C2509 C2505 1.385 . S
C2509 C2508 1.374 . S
C2510 C2507 1.499 . S
C2510 C2511 1.373 . S
C2510 C2512 1.389 . S
C2511 H2490 0.950 . S
C2511 C2510 1.373 . S
C2511 C2527 1.377 . S
C2512 C2510 1.389 . S
C2512 C2513 1.524 . S
C2512 C2526 1.377 . S
C2513 C2512 1.524 . S
C2513 C2514 1.397 . S
C2513 C2518 1.363 . S
C2514 H2491 0.950 . S
C2514 C2513 1.397 . S
C2514 C2515 1.334 . S
C2515 H2492 0.950 . S
C2515 C2514 1.334 . S
C2515 C2516 1.287 . S
C2516 C2515 1.287 . S
C2516 C2517 1.524 . S
C2516 H2535 0.913 . S
C2517 H2493 0.950 . S
C2517 C2516 1.524 . S
C2517 C2518 1.415 . S
C2518 H2494 0.950 . S
C2518 C2513 1.363 . S
C2518 C2517 1.415 . S
C2519 H2495 0.951 . S
C2519 C2520 1.366 . S
C2519 C2521 1.388 . S
C2520 C2519 1.366 . S
C2520 C2524 1.385 . S
C2521 H2496 0.951 . S
C2521 C2519 1.388 . S
C2521 C2522 1.366 . S
C2522 C2521 1.366 . S
C2522 C2523 1.414 . S
C2522 C2525 1.499 . S
C2523 H2497 0.950 . S
C2523 C2522 1.414 . S
C2523 C2524 1.374 . S
C2524 H2498 0.950 . S
C2524 C2520 1.385 . S
C2524 C2523 1.374 . S
C2525 C2522 1.499 . S
C2525 C2526 1.373 . S
C2525 C2527 1.389 . S
C2526 H2499 0.950 . S
C2526 C2512 1.377 . S
C2526 C2525 1.373 . S
C2527 C2511 1.377 . S
C2527 C2525 1.389 . S
C2527 C2528 1.524 . S
C2528 C2527 1.524 . S
C2528 C2529 1.397 . S
C2528 C2533 1.363 . S
C2529 H2500 0.950 . S
C2529 C2528 1.397 . S
C2529 C2530 1.334 . S
C2530 H2501 0.950 . S
C2530 C2529 1.334 . S
C2530 C2531 1.287 . S
C2531 C2530 1.287 . S
C2531 C2532 1.524 . S
C2531 H2534 0.999 . S
C2532 H2502 0.950 . S
C2532 C2531 1.524 . S
C2532 C2533 1.415 . S
C2533 H2503 0.950 . S
C2533 C2528 1.363 . S
C2533 C2532 1.415 . S
H2534 C2531 0.999 . S
H2535 C2516 0.913 . S
H2536 C2554 0.951 . S
H2537 C2556 0.951 . S
H2538 C2558 0.950 . S
H2539 C2559 0.950 . S
H2540 C2561 0.950 . S
H2541 C2564 0.950 . S
H2542 C2565 0.950 . S
H2543 C2567 0.950 . S
H2544 C2568 0.950 . S
H2545 C2569 0.951 . S
H2546 C2571 0.951 . S
H2547 C2573 0.950 . S
H2548 C2574 0.950 . S
H2549 C2576 0.950 . S
H2550 C2579 0.950 . S
H2551 C2580 0.950 . S
H2552 C2582 0.950 . S
H2553 C2583 0.950 . S
C2554 H2536 0.951 . S
C2554 C2555 1.366 . S
C2554 C2556 1.388 . S
C2555 C2554 1.366 . S
C2555 C2559 1.385 . S
C2556 H2537 0.951 . S
C2556 C2554 1.388 . S
C2556 C2557 1.366 . S
C2557 C2556 1.366 . S
C2557 C2558 1.414 . S
C2557 C2560 1.499 . S
C2558 H2538 0.950 . S
C2558 C2557 1.414 . S
C2558 C2559 1.374 . S
C2559 H2539 0.950 . S
C2559 C2555 1.385 . S
C2559 C2558 1.374 . S
C2560 C2557 1.499 . S
C2560 C2561 1.373 . S
C2560 C2562 1.389 . S
C2561 H2540 0.950 . S
C2561 C2560 1.373 . S
C2561 C2577 1.377 . S
C2562 C2560 1.389 . S
C2562 C2563 1.524 . S
C2562 C2576 1.377 . S
C2563 C2562 1.524 . S
C2563 C2564 1.397 . S
C2563 C2568 1.363 . S
C2564 H2541 0.950 . S
C2564 C2563 1.397 . S
C2564 C2565 1.334 . S
C2565 H2542 0.950 . S
C2565 C2564 1.334 . S
C2565 C2566 1.287 . S
C2566 C2565 1.287 . S
C2566 C2567 1.524 . S
C2566 H2585 0.913 . S
C2567 H2543 0.950 . S
C2567 C2566 1.524 . S
C2567 C2568 1.415 . S
C2568 H2544 0.950 . S
C2568 C2563 1.363 . S
C2568 C2567 1.415 . S
C2569 H2545 0.951 . S
C2569 C2570 1.366 . S
C2569 C2571 1.388 . S
C2570 C2569 1.366 . S
C2570 C2574 1.385 . S
C2571 H2546 0.951 . S
C2571 C2569 1.388 . S
C2571 C2572 1.366 . S
C2572 C2571 1.366 . S
C2572 C2573 1.414 . S
C2572 C2575 1.499 . S
C2573 H2547 0.950 . S
C2573 C2572 1.414 . S
C2573 C2574 1.374 . S
C2574 H2548 0.950 . S
C2574 C2570 1.385 . S
C2574 C2573 1.374 . S
C2575 C2572 1.499 . S
C2575 C2576 1.373 . S
C2575 C2577 1.389 . S
C2576 H2549 0.950 . S
C2576 C2562 1.377 . S
C2576 C2575 1.373 . S
C2577 C2561 1.377 . S
C2577 C2575 1.389 . S
C2577 C2578 1.524 . S
C2578 C2577 1.524 . S
C2578 C2579 1.397 . S
C2578 C2583 1.363 . S
C2579 H2550 0.950 . S
C2579 C2578 1.397 . S
C2579 C2580 1.334 . S
C2580 H2551 0.950 . S
C2580 C2579 1.334 . S
C2580 C2581 1.287 . S
C2581 C2580 1.287 . S
C2581 C2582 1.524 . S
C2581 H2584 0.999 . S
C2582 H2552 0.950 . S
C2582 C2581 1.524 . S
C2582 C2583 1.415 . S
C2583 H2553 0.950 . S
C2583 C2578 1.363 . S
C2583 C2582 1.415 . S
H2584 C2581 0.999 . S
H2585 C2566 0.913 . S
H2586 C2604 0.951 . S
H2587 C2606 0.951 . S
H2588 C2608 0.950 . S
H2589 C2609 0.950 . S
H2590 C2611 0.950 . S
H2591 C2614 0.950 . S
H2592 C2615 0.950 . S
H2593 C2617 0.950 . S
H2594 C2618 0.950 . S
H2595 C2619 0.951 . S
H2596 C2621 0.951 . S
H2597 C2623 0.950 . S
H2598 C2624 0.950 . S
H2599 C2626 0.950 . S
H2600 C2629 0.950 . S
H2601 C2630 0.950 . S
H2602 C2632 0.950 . S
H2603 C2633 0.950 . S
C2604 H2586 0.951 . S
C2604 C2605 1.366 . S
C2604 C2606 1.388 . S
C2605 C2604 1.366 . S
C2605 C2609 1.385 . S
C2606 H2587 0.951 . S
C2606 C2604 1.388 . S
C2606 C2607 1.366 . S
C2607 C2606 1.366 . S
C2607 C2608 1.414 . S
C2607 C2610 1.499 . S
C2608 H2588 0.950 . S
C2608 C2607 1.414 . S
C2608 C2609 1.374 . S
C2609 H2589 0.950 . S
C2609 C2605 1.385 . S
C2609 C2608 1.374 . S
C2610 C2607 1.499 . S
C2610 C2611 1.373 . S
C2610 C2612 1.389 . S
C2611 H2590 0.950 . S
C2611 C2610 1.373 . S
C2611 C2627 1.377 . S
C2612 C2610 1.389 . S
C2612 C2613 1.524 . S
C2612 C2626 1.377 . S
C2613 C2612 1.524 . S
C2613 C2614 1.397 . S
C2613 C2618 1.363 . S
C2614 H2591 0.950 . S
C2614 C2613 1.397 . S
C2614 C2615 1.334 . S
C2615 H2592 0.950 . S
C2615 C2614 1.334 . S
C2615 C2616 1.287 . S
C2616 C2615 1.287 . S
C2616 C2617 1.524 . S
C2616 H2635 0.913 . S
C2617 H2593 0.950 . S
C2617 C2616 1.524 . S
C2617 C2618 1.415 . S
C2618 H2594 0.950 . S
C2618 C2613 1.363 . S
C2618 C2617 1.415 . S
C2619 H2595 0.951 . S
C2619 C2620 1.366 . S
C2619 C2621 1.388 . S
C2620 C2619 1.366 . S
C2620 C2624 1.385 . S
C2621 H2596 0.951 . S
C2621 C2619 1.388 . S
C2621 C2622 1.366 . S
C2622 C2621 1.366 . S
C2622 C2623 1.414 . S
C2622 C2625 1.499 . S
C2623 H2597 0.950 . S
C2623 C2622 1.414 . S
C2623 C2624 1.374 . S
C2624 H2598 0.950 . S
C2624 C2620 1.385 . S
C2624 C2623 1.374 . S
C2625 C2622 1.499 . S
C2625 C2626 1.373 . S
C2625 C2627 1.389 . S
C2626 H2599 0.950 . S
C2626 C2612 1.377 . S
C2626 C2625 1.373 . S
C2627 C2611 1.377 . S
C2627 C2625 1.389 . S
C2627 C2628 1.524 . S
C2628 C2627 1.524 . S
C2628 C2629 1.397 . S
C2628 C2633 1.363 . S
C2629 H2600 0.950 . S
C2629 C2628 1.397 . S
C2629 C2630 1.334 . S
C2630 H2601 0.950 . S
C2630 C2629 1.334 . S
C2630 C2631 1.287 . S
C2631 C2630 1.287 . S
C2631 C2632 1.524 . S
C2631 H2634 0.999 . S
C2632 H2602 0.950 . S
C2632 C2631 1.524 . S
C2632 C2633 1.415 . S
C2633 H2603 0.950 . S
C2633 C2628 1.363 . S
C2633 C2632 1.415 . S
H2634 C2631 0.999 . S
H2635 C2616 0.913 . S
H2636 C2654 0.951 . S
H2637 C2656 0.951 . S
H2638 C2658 0.950 . S
H2639 C2659 0.950 . S
H2640 C2661 0.950 . S
H2641 C2664 0.950 . S
H2642 C2665 0.950 . S
H2643 C2667 0.950 . S
H2644 C2668 0.950 . S
H2645 C2669 0.951 . S
H2646 C2671 0.951 . S
H2647 C2673 0.950 . S
H2648 C2674 0.950 . S
H2649 C2676 0.950 . S
H2650 C2679 0.950 . S
H2651 C2680 0.950 . S
H2652 C2682 0.950 . S
H2653 C2683 0.950 . S
C2654 H2636 0.951 . S
C2654 C2655 1.366 . S
C2654 C2656 1.388 . S
C2655 C2654 1.366 . S
C2655 C2659 1.385 . S
C2656 H2637 0.951 . S
C2656 C2654 1.388 . S
C2656 C2657 1.366 . S
C2657 C2656 1.366 . S
C2657 C2658 1.414 . S
C2657 C2660 1.499 . S
C2658 H2638 0.950 . S
C2658 C2657 1.414 . S
C2658 C2659 1.374 . S
C2659 H2639 0.950 . S
C2659 C2655 1.385 . S
C2659 C2658 1.374 . S
C2660 C2657 1.499 . S
C2660 C2661 1.373 . S
C2660 C2662 1.389 . S
C2661 H2640 0.950 . S
C2661 C2660 1.373 . S
C2661 C2677 1.377 . S
C2662 C2660 1.389 . S
C2662 C2663 1.524 . S
C2662 C2676 1.377 . S
C2663 C2662 1.524 . S
C2663 C2664 1.397 . S
C2663 C2668 1.363 . S
C2664 H2641 0.950 . S
C2664 C2663 1.397 . S
C2664 C2665 1.334 . S
C2665 H2642 0.950 . S
C2665 C2664 1.334 . S
C2665 C2666 1.287 . S
C2666 C2665 1.287 . S
C2666 C2667 1.524 . S
C2666 H2685 0.913 . S
C2667 H2643 0.950 . S
C2667 C2666 1.524 . S
C2667 C2668 1.415 . S
C2668 H2644 0.950 . S
C2668 C2663 1.363 . S
C2668 C2667 1.415 . S
C2669 H2645 0.951 . S
C2669 C2670 1.366 . S
C2669 C2671 1.388 . S
C2670 C2669 1.366 . S
C2670 C2674 1.385 . S
C2671 H2646 0.951 . S
C2671 C2669 1.388 . S
C2671 C2672 1.366 . S
C2672 C2671 1.366 . S
C2672 C2673 1.414 . S
C2672 C2675 1.499 . S
C2673 H2647 0.950 . S
C2673 C2672 1.414 . S
C2673 C2674 1.374 . S
C2674 H2648 0.950 . S
C2674 C2670 1.385 . S
C2674 C2673 1.374 . S
C2675 C2672 1.499 . S
C2675 C2676 1.373 . S
C2675 C2677 1.389 . S
C2676 H2649 0.950 . S
C2676 C2662 1.377 . S
C2676 C2675 1.373 . S
C2677 C2661 1.377 . S
C2677 C2675 1.389 . S
C2677 C2678 1.524 . S
C2678 C2677 1.524 . S
C2678 C2679 1.397 . S
C2678 C2683 1.363 . S
C2679 H2650 0.950 . S
C2679 C2678 1.397 . S
C2679 C2680 1.334 . S
C2680 H2651 0.950 . S
C2680 C2679 1.334 . S
C2680 C2681 1.287 . S
C2681 C2680 1.287 . S
C2681 C2682 1.524 . S
C2681 H2684 0.999 . S
C2682 H2652 0.950 . S
C2682 C2681 1.524 . S
C2682 C2683 1.415 . S
C2683 H2653 0.950 . S
C2683 C2678 1.363 . S
C2683 C2682 1.415 . S
H2684 C2681 0.999 . S
H2685 C2666 0.913 . S
H2686 C2704 0.951 . S
H2687 C2706 0.951 . S
H2688 C2708 0.950 . S
H2689 C2709 0.950 . S
H2690 C2711 0.950 . S
H2691 C2714 0.950 . S
H2692 C2715 0.950 . S
H2693 C2717 0.950 . S
H2694 C2718 0.950 . S
H2695 C2719 0.951 . S
H2696 C2721 0.951 . S
H2697 C2723 0.950 . S
H2698 C2724 0.950 . S
H2699 C2726 0.950 . S
H2700 C2729 0.950 . S
H2701 C2730 0.950 . S
H2702 C2732 0.950 . S
H2703 C2733 0.950 . S
C2704 H2686 0.951 . S
C2704 C2705 1.366 . S
C2704 C2706 1.388 . S
C2705 C2704 1.366 . S
C2705 C2709 1.385 . S
C2706 H2687 0.951 . S
C2706 C2704 1.388 . S
C2706 C2707 1.366 . S
C2707 C2706 1.366 . S
C2707 C2708 1.414 . S
C2707 C2710 1.499 . S
C2708 H2688 0.950 . S
C2708 C2707 1.414 . S
C2708 C2709 1.374 . S
C2709 H2689 0.950 . S
C2709 C2705 1.385 . S
C2709 C2708 1.374 . S
C2710 C2707 1.499 . S
C2710 C2711 1.373 . S
C2710 C2712 1.389 . S
C2711 H2690 0.950 . S
C2711 C2710 1.373 . S
C2711 C2727 1.377 . S
C2712 C2710 1.389 . S
C2712 C2713 1.524 . S
C2712 C2726 1.377 . S
C2713 C2712 1.524 . S
C2713 C2714 1.397 . S
C2713 C2718 1.363 . S
C2714 H2691 0.950 . S
C2714 C2713 1.397 . S
C2714 C2715 1.334 . S
C2715 H2692 0.950 . S
C2715 C2714 1.334 . S
C2715 C2716 1.287 . S
C2716 C2715 1.287 . S
C2716 C2717 1.524 . S
C2716 H2735 0.913 . S
C2717 H2693 0.950 . S
C2717 C2716 1.524 . S
C2717 C2718 1.415 . S
C2718 H2694 0.950 . S
C2718 C2713 1.363 . S
C2718 C2717 1.415 . S
C2719 H2695 0.951 . S
C2719 C2720 1.366 . S
C2719 C2721 1.388 . S
C2720 C2719 1.366 . S
C2720 C2724 1.385 . S
C2721 H2696 0.951 . S
C2721 C2719 1.388 . S
C2721 C2722 1.366 . S
C2722 C2721 1.366 . S
C2722 C2723 1.414 . S
C2722 C2725 1.499 . S
C2723 H2697 0.950 . S
C2723 C2722 1.414 . S
C2723 C2724 1.374 . S
C2724 H2698 0.950 . S
C2724 C2720 1.385 . S
C2724 C2723 1.374 . S
C2725 C2722 1.499 . S
C2725 C2726 1.373 . S
C2725 C2727 1.389 . S
C2726 H2699 0.950 . S
C2726 C2712 1.377 . S
C2726 C2725 1.373 . S
C2727 C2711 1.377 . S
C2727 C2725 1.389 . S
C2727 C2728 1.524 . S
C2728 C2727 1.524 . S
C2728 C2729 1.397 . S
C2728 C2733 1.363 . S
C2729 H2700 0.950 . S
C2729 C2728 1.397 . S
C2729 C2730 1.334 . S
C2730 H2701 0.950 . S
C2730 C2729 1.334 . S
C2730 C2731 1.287 . S
C2731 C2730 1.287 . S
C2731 C2732 1.524 . S
C2731 H2734 0.999 . S
C2732 H2702 0.950 . S
C2732 C2731 1.524 . S
C2732 C2733 1.415 . S
C2733 H2703 0.950 . S
C2733 C2728 1.363 . S
C2733 C2732 1.415 . S
H2734 C2731 0.999 . S
H2735 C2716 0.913 . S
C355 C203 1.443 . S
C370 C11 1.428 . S
C405 C21 1.443 . S
C420 C221 1.428 . S
C455 C260 1.500 . S
C470 C36 1.500 . S
C505 C55 1.241 . S
C520 C195 1.241 . S
C555 C209 1.242 . S
C570 C69 1.242 . S
C605 C78 1.500 . S
C620 C218 1.500 . S
C655 C91 1.443 . S
C670 C263 1.428 . S
C705 C109 1.428 . S
C720 C189 1.443 . S
C755 C133 1.443 . S
C770 C123 1.428 . S
C805 C153 1.241 . S
C820 C139 1.242 . S
C855 C147 1.443 . S
C870 C165 1.427 . S
C905 C162 1.501 . S
C920 C120 1.501 . S
C955 C179 1.428 . S
C970 C49 1.443 . S
C1005 C63 1.443 . S
C1020 C235 1.428 . S
C1055 C251 1.241 . S
C1070 C27 1.242 . S
C1105 C25 1.158 . S
C1120 C307 1.120 . S
C1155 C137 1.158 . S
C1170 C13 1.120 . S
C1205 C330 1.194 . S
C1220 C50 1.193 . S
C1255 C161 1.202 . S
C1270 C35 1.202 . S
C1305 C301 1.202 . S
C1320 C105 1.203 . S
C1355 C134 1.194 . S
C1370 C92 1.193 . S
C1405 C83 1.121 . S
C1420 C333 1.158 . S
C1455 C67 1.157 . S
C1470 C167 1.121 . S
C1505 C223 1.121 . S
C1520 C277 1.158 . S
C1555 C231 1.203 . S
C1570 C217 1.203 . S
C1605 C193 1.158 . S
C1620 C237 1.122 . S
C1655 C274 1.194 . S
C1670 C190 1.193 . S
C1705 C41 1.120 . S
C1720 C291 1.158 . S
C1755 C151 1.158 . S
C1770 C111 1.120 . S
C1805 C7 1.202 . S
C1820 C315 1.202 . S
C1855 C273 1.443 . S
C1870 C39 1.427 . S
C1905 C8 1.500 . S
C1920 C232 1.500 . S
C1955 C279 1.242 . S
C1970 C97 1.242 . S
C2005 C176 1.500 . S
C2020 C106 1.500 . S
C2055 C81 1.428 . S
C2070 C245 1.443 . S
C2105 C305 1.428 . S
C2120 C287 1.443 . S
C2155 C335 1.242 . S
C2170 C293 1.242 . S
C2205 C319 1.427 . S
C2220 C329 1.443 . S
C2255 C302 1.500 . S
C2270 C316 1.501 . S
C2305 C125 1.120 . S
C2320 C53 1.158 . S
C2355 C22 1.194 . S
C2370 C148 1.193 . S
C2405 C77 1.203 . S
C2420 C119 1.203 . S
C2455 C288 1.193 . S
C2470 C64 1.194 . S
C2505 C95 1.158 . S
C2520 C321 1.120 . S
C2555 C181 1.120 . S
C2570 C207 1.158 . S
C2605 C259 1.202 . S
C2620 C175 1.203 . S
C2655 C249 1.158 . S
C2670 C265 1.120 . S
C2705 C204 1.193 . S
C2720 C246 1.194 . S
