# Generated by pormake.
# Topology ukh, (4)-cn, num edge types: 1
# Building blocks:
#     Node 0, Type 0, BuildingBlock: KUFVIS_clean_sbu_0, # of connection points: 4
#     Node 1, Type 0, BuildingBlock: KUFVIS_clean_sbu_0, # of connection points: 4
#     Node 2, Type 0, BuildingBlock: KUFVIS_clean_sbu_0, # of connection points: 4
#     Node 3, Type 0, BuildingBlock: KUFVIS_clean_sbu_0, # of connection points: 4
#     Node 4, Type 0, BuildingBlock: KUFVIS_clean_sbu_0, # of connection points: 4
#     Node 5, Type 0, BuildingBlock: KUFVIS_clean_sbu_0, # of connection points: 4
#     Node 6, Type 0, BuildingBlock: KUFVIS_clean_sbu_0, # of connection points: 4
#     Node 7, Type 0, BuildingBlock: KUFVIS_clean_sbu_0, # of connection points: 4
#     Node 8, Type 0, BuildingBlock: KUFVIS_clean_sbu_0, # of connection points: 4
#     Node 9, Type 0, BuildingBlock: KUFVIS_clean_sbu_0, # of connection points: 4
#     Node 10, Type 0, BuildingBlock: KUFVIS_clean_sbu_0, # of connection points: 4
#     Node 11, Type 0, BuildingBlock: KUFVIS_clean_sbu_0, # of connection points: 4
#     Edge 12, Type (0, 0), BuildingBlock: EYOCIG_clean_linker_4, # of connection points: 2
#     Edge 13, Type (0, 0), BuildingBlock: EYOCIG_clean_linker_4, # of connection points: 2
#     Edge 14, Type (0, 0), BuildingBlock: EYOCIG_clean_linker_4, # of connection points: 2
#     Edge 15, Type (0, 0), BuildingBlock: EYOCIG_clean_linker_4, # of connection points: 2
#     Edge 16, Type (0, 0), BuildingBlock: EYOCIG_clean_linker_4, # of connection points: 2
#     Edge 17, Type (0, 0), BuildingBlock: EYOCIG_clean_linker_4, # of connection points: 2
#     Edge 18, Type (0, 0), BuildingBlock: EYOCIG_clean_linker_4, # of connection points: 2
#     Edge 19, Type (0, 0), BuildingBlock: EYOCIG_clean_linker_4, # of connection points: 2
#     Edge 20, Type (0, 0), BuildingBlock: EYOCIG_clean_linker_4, # of connection points: 2
#     Edge 21, Type (0, 0), BuildingBlock: EYOCIG_clean_linker_4, # of connection points: 2
#     Edge 22, Type (0, 0), BuildingBlock: EYOCIG_clean_linker_4, # of connection points: 2
#     Edge 23, Type (0, 0), BuildingBlock: EYOCIG_clean_linker_4, # of connection points: 2
#     Edge 24, Type (0, 0), BuildingBlock: EYOCIG_clean_linker_4, # of connection points: 2
#     Edge 25, Type (0, 0), BuildingBlock: EYOCIG_clean_linker_4, # of connection points: 2
#     Edge 26, Type (0, 0), BuildingBlock: EYOCIG_clean_linker_4, # of connection points: 2
#     Edge 27, Type (0, 0), BuildingBlock: EYOCIG_clean_linker_4, # of connection points: 2
#     Edge 28, Type (0, 0), BuildingBlock: EYOCIG_clean_linker_4, # of connection points: 2
#     Edge 29, Type (0, 0), BuildingBlock: EYOCIG_clean_linker_4, # of connection points: 2
#     Edge 30, Type (0, 0), BuildingBlock: EYOCIG_clean_linker_4, # of connection points: 2
#     Edge 31, Type (0, 0), BuildingBlock: EYOCIG_clean_linker_4, # of connection points: 2
#     Edge 32, Type (0, 0), BuildingBlock: EYOCIG_clean_linker_4, # of connection points: 2
#     Edge 33, Type (0, 0), BuildingBlock: EYOCIG_clean_linker_4, # of connection points: 2
#     Edge 34, Type (0, 0), BuildingBlock: EYOCIG_clean_linker_4, # of connection points: 2
#     Edge 35, Type (0, 0), BuildingBlock: EYOCIG_clean_linker_4, # of connection points: 2
# Relax obj value: 0.086
# Max RMSD: 0.126
# Mean RMSD: 0.126
data_MOF--net-ukh--node1-KUFVIS_clean_sbu_0--edge1-EYOCIG_clean_linker_4
_symmetry_space_group_name_H-M    P1
_symmetry_Int_Tables_number       1
_symmetry_cell_setting            triclinic
loop_
_symmetry_equiv_pos_as_xyz
'x, y, z'
_cell_length_a     25.909488
_cell_length_b     25.906933
_cell_length_c     46.715346
_cell_angle_alpha  89.997578
_cell_angle_beta   90.001354
_cell_angle_gamma 120.00257
loop_
_atom_site_label
_atom_site_type_symbol
_atom_site_fract_x
_atom_site_fract_y
_atom_site_fract_z
_atom_type_partial_charge
Mn0 Mn 0.31189 0.22796 0.05928 0.0
Mn1 Mn 0.26621 0.30298 0.10202 0.0
C2 C 0.24805 0.25789 0.04183 0.0
C3 C 0.29695 0.13608 0.04307 0.0
C4 C 0.38777 0.3603 0.07396 0.0
O5 O 0.33395 0.21438 0.09922 0.0
O6 O 0.29318 0.25741 0.12609 0.0
C7 C 0.16025 0.20067 0.12809 0.0
N8 N 0.18468 0.25179 0.11239 0.0
C9 C 0.08957 0.24637 0.10771 0.0
C10 C 0.06345 0.19381 0.12394 0.0
C11 C 0.09893 0.17081 0.13413 0.0
C12 C 0.15089 0.27418 0.1024 0.0
H13 H 0.18737 0.18288 0.13601 0.0
C14 C 0.31971 0.22721 0.12321 0.0
O15 O 0.34896 0.18388 0.04118 0.0
O16 O 0.25464 0.14124 0.05488 0.0
N17 N 0.23821 0.34819 0.08147 0.0
C18 C 0.26992 0.39849 0.06549 0.0
C19 C 0.24082 0.42673 0.05348 0.0
C20 C 0.17957 0.40334 0.05818 0.0
C21 C 0.14795 0.35181 0.07485 0.0
C22 C 0.17935 0.32559 0.08631 0.0
H23 H 0.31706 0.41697 0.06188 0.0
O24 O 0.27777 0.24383 0.02426 0.0
O25 O 0.25544 0.25267 0.0689 0.0
O26 O 0.38091 0.31513 0.05969 0.0
O27 O 0.34941 0.35939 0.09138 0.0
C28 C 0.08629 0.32482 0.0801 0.0
C29 C 0.05712 0.27211 0.0965 0.0
H30 H 0.01618 0.17066 0.12866 0.0
H31 H 0.07907 0.13021 0.14664 0.0
H32 H 0.26556 0.4665 0.04064 0.0
H33 H 0.15722 0.42508 0.04874 0.0
H34 H 0.0608 0.34394 0.07142 0.0
H35 H 0.00963 0.2516 0.10026 0.0
Mn36 Mn 0.08395 0.3121 0.39261 0.0
Mn37 Mn 0.96321 0.26637 0.43534 0.0
C38 C 0.99019 0.24826 0.37515 0.0
C39 C 0.16089 0.29718 0.37641 0.0
C40 C 0.02747 0.38796 0.40729 0.0
O41 O 0.11955 0.33415 0.43256 0.0
O42 O 0.03574 0.29334 0.45941 0.0
C43 C 0.95955 0.16039 0.4614 0.0
N44 N 0.93286 0.18483 0.4457 0.0
C45 C 0.84318 0.08971 0.441 0.0
C46 C 0.86962 0.06358 0.45724 0.0
C47 C 0.92809 0.09907 0.46742 0.0
C48 C 0.87669 0.15104 0.4357 0.0
H49 H 0.00445 0.18752 0.46932 0.0
C50 C 0.09247 0.31989 0.45654 0.0
O51 O 0.16511 0.34919 0.37453 0.0
O52 O 0.1134 0.25485 0.38821 0.0
N53 N 0.89001 0.23838 0.41478 0.0
C54 C 0.87144 0.27009 0.3988 0.0
C55 C 0.81409 0.24098 0.38678 0.0
C56 C 0.77624 0.17973 0.39147 0.0
C57 C 0.79614 0.14809 0.40814 0.0
C58 C 0.85376 0.1795 0.41961 0.0
H59 H 0.9001 0.31723 0.3952 0.0
O60 O 0.03398 0.278 0.35759 0.0
O61 O 0.00278 0.25564 0.40222 0.0
O62 O 0.06579 0.38112 0.39302 0.0
O63 O 0.99001 0.34959 0.42471 0.0
C64 C 0.76147 0.08643 0.41339 0.0
C65 C 0.78499 0.05725 0.42978 0.0
H66 H 0.8455 0.01631 0.46194 0.0
H67 H 0.94881 0.0792 0.47994 0.0
H68 H 0.79908 0.26573 0.37395 0.0
H69 H 0.73215 0.15736 0.38203 0.0
H70 H 0.71686 0.06093 0.4047 0.0
H71 H 0.75802 0.00975 0.43354 0.0
Mn72 Mn 0.77168 0.08407 0.72585 0.0
Mn73 Mn 0.69678 0.96333 0.76859 0.0
C74 C 0.74177 0.99031 0.70839 0.0
C75 C 0.86353 0.16106 0.70964 0.0
C76 C 0.63936 0.02755 0.74059 0.0
O77 O 0.7853 0.11968 0.7658 0.0
O78 O 0.74238 0.03587 0.79266 0.0
C79 C 0.79918 0.95972 0.79458 0.0
N80 N 0.74801 0.93301 0.77891 0.0
C81 C 0.75347 0.84334 0.77417 0.0
C82 C 0.80608 0.86981 0.79037 0.0
C83 C 0.82908 0.92829 0.80056 0.0
C84 C 0.72562 0.87683 0.7689 0.0
H85 H 0.81696 0.00462 0.80249 0.0
C86 C 0.77254 0.0926 0.78978 0.0
O87 O 0.81572 0.16526 0.70777 0.0
O88 O 0.85838 0.11356 0.72142 0.0
N89 N 0.65155 0.89012 0.74804 0.0
C90 C 0.60123 0.87152 0.73208 0.0
C91 C 0.57298 0.81418 0.72006 0.0
C92 C 0.5964 0.77634 0.72473 0.0
C93 C 0.64797 0.79626 0.74137 0.0
C94 C 0.67418 0.85387 0.75285 0.0
H95 H 0.58273 0.90017 0.7285 0.0
O96 O 0.75578 0.0341 0.69083 0.0
O97 O 0.74701 0.00291 0.73546 0.0
O98 O 0.6845 0.06588 0.72631 0.0
O99 O 0.64033 0.9901 0.758 0.0
C100 C 0.67499 0.76161 0.74659 0.0
C101 C 0.72773 0.78515 0.76295 0.0
H102 H 0.82927 0.84571 0.79505 0.0
H103 H 0.86971 0.94903 0.81304 0.0
H104 H 0.5332 0.79915 0.70725 0.0
H105 H 0.57467 0.73224 0.71529 0.0
H106 H 0.65588 0.717 0.73789 0.0
H107 H 0.74828 0.7582 0.76668 0.0
Mn108 Mn 0.68758 0.77185 0.05919 0.0
Mn109 Mn 0.73328 0.69689 0.10196 0.0
C110 C 0.7514 0.7419 0.04176 0.0
C111 C 0.70251 0.86371 0.04295 0.0
C112 C 0.6117 0.63953 0.07392 0.0
O113 O 0.66554 0.78548 0.09913 0.0
O114 O 0.70636 0.74252 0.12601 0.0
C115 C 0.83929 0.79924 0.12798 0.0
N116 N 0.81482 0.74807 0.1123 0.0
C117 C 0.90991 0.75345 0.10761 0.0
C118 C 0.93607 0.80606 0.12382 0.0
C119 C 0.90062 0.82909 0.13399 0.0
C120 C 0.84859 0.72564 0.10232 0.0
H121 H 0.8122 0.81705 0.13588 0.0
C122 C 0.67982 0.77271 0.12312 0.0
O123 O 0.6505 0.81591 0.04107 0.0
O124 O 0.74483 0.85856 0.05476 0.0
N125 N 0.76123 0.65162 0.08142 0.0
C126 C 0.72949 0.60131 0.06546 0.0
C127 C 0.75857 0.57302 0.05346 0.0
C128 C 0.81981 0.5964 0.05815 0.0
C129 C 0.85147 0.64796 0.0748 0.0
C130 C 0.8201 0.67421 0.08626 0.0
H131 H 0.68236 0.58284 0.06186 0.0
O132 O 0.72168 0.75593 0.02418 0.0
O133 O 0.74402 0.74714 0.06882 0.0
O134 O 0.61856 0.68468 0.05962 0.0
O135 O 0.65006 0.64047 0.09135 0.0
C136 C 0.91313 0.67494 0.08004 0.0
C137 C 0.94234 0.72767 0.09641 0.0
H138 H 0.98334 0.8292 0.12852 0.0
H139 H 0.92051 0.86972 0.14648 0.0
H140 H 0.7338 0.53324 0.04064 0.0
H141 H 0.84215 0.57463 0.04872 0.0
H142 H 0.9386 0.65579 0.07136 0.0
H143 H 0.98983 0.74818 0.10017 0.0
Mn144 Mn 0.91573 0.68777 0.39253 0.0
Mn145 Mn 0.03641 0.73346 0.43529 0.0
C146 C 0.00952 0.7516 0.37509 0.0
C147 C 0.83882 0.70272 0.3763 0.0
C148 C 0.97214 0.61187 0.40725 0.0
O149 O 0.88008 0.66573 0.43247 0.0
O150 O 0.96386 0.70655 0.45934 0.0
C151 C 0.04011 0.83949 0.46131 0.0
N152 N 0.06679 0.81502 0.44564 0.0
C153 C 0.15652 0.91011 0.44094 0.0
C154 C 0.13009 0.93627 0.45715 0.0
C155 C 0.0716 0.90082 0.46733 0.0
C156 C 0.12298 0.84878 0.43565 0.0
H157 H 0.9952 0.8124 0.46922 0.0
C158 C 0.90713 0.68001 0.45646 0.0
O159 O 0.83459 0.6507 0.37442 0.0
O160 O 0.8863 0.74504 0.38811 0.0
N161 N 0.10962 0.76141 0.41475 0.0
C162 C 0.12818 0.72967 0.39878 0.0
C163 C 0.18553 0.75874 0.38678 0.0
C164 C 0.22342 0.81999 0.39147 0.0
C165 C 0.20353 0.85165 0.40812 0.0
C166 C 0.14591 0.82028 0.41958 0.0
H167 H 0.0995 0.68253 0.39518 0.0
O168 O 0.96575 0.72188 0.35751 0.0
O169 O 0.99689 0.74421 0.40216 0.0
O170 O 0.93386 0.61874 0.39296 0.0
O171 O 0.00957 0.65023 0.42468 0.0
C172 C 0.23823 0.91332 0.41336 0.0
C173 C 0.21472 0.94253 0.42974 0.0
H174 H 0.15423 0.98355 0.46185 0.0
H175 H 0.05088 0.92072 0.47982 0.0
H176 H 0.20054 0.73397 0.37396 0.0
H177 H 0.26752 0.84232 0.38204 0.0
H178 H 0.28285 0.93879 0.40468 0.0
H179 H 0.24172 0.99003 0.43349 0.0
Mn180 Mn 0.22782 0.91582 0.7259 0.0
Mn181 Mn 0.30277 0.0365 0.76867 0.0
C182 C 0.25774 0.00961 0.70847 0.0
C183 C 0.13597 0.83888 0.70966 0.0
C184 C 0.36014 0.97229 0.74062 0.0
O185 O 0.2142 0.88014 0.76584 0.0
O186 O 0.25716 0.96393 0.79271 0.0
C187 C 0.20039 0.0401 0.79469 0.0
N188 N 0.25156 0.06682 0.77902 0.0
C189 C 0.24611 0.15651 0.77433 0.0
C190 C 0.19351 0.13003 0.79053 0.0
C191 C 0.17051 0.07154 0.8007 0.0
C192 C 0.27395 0.12302 0.76903 0.0
H193 H 0.18261 0.99518 0.80259 0.0
C194 C 0.22698 0.9072 0.78983 0.0
O195 O 0.18376 0.83467 0.70778 0.0
O196 O 0.14112 0.88636 0.72147 0.0
N197 N 0.348 0.10974 0.74813 0.0
C198 C 0.3983 0.12834 0.73217 0.0
C199 C 0.42656 0.1857 0.72016 0.0
C200 C 0.40315 0.22355 0.72486 0.0
C201 C 0.3516 0.20362 0.74151 0.0
C202 C 0.32538 0.14599 0.75297 0.0
H203 H 0.41679 0.09968 0.72857 0.0
O204 O 0.24373 0.96586 0.69089 0.0
O205 O 0.25251 0.99697 0.73553 0.0
O206 O 0.31499 0.93399 0.72633 0.0
O207 O 0.3592 0.00972 0.75805 0.0
C208 C 0.32459 0.23827 0.74675 0.0
C209 C 0.27186 0.21472 0.76313 0.0
H210 H 0.17034 0.15413 0.79523 0.0
H211 H 0.12989 0.05078 0.81319 0.0
H212 H 0.46633 0.20074 0.70734 0.0
H213 H 0.42489 0.26765 0.71543 0.0
H214 H 0.34371 0.28289 0.73807 0.0
H215 H 0.25132 0.24168 0.76688 0.0
Mn216 Mn 0.77174 0.68777 0.64128 0.0
Mn217 Mn 0.69678 0.73346 0.59849 0.0
C218 C 0.74182 0.75164 0.65869 0.0
C219 C 0.86359 0.7027 0.65751 0.0
C220 C 0.63941 0.61189 0.62657 0.0
O221 O 0.78534 0.66568 0.60134 0.0
O222 O 0.74239 0.70649 0.57445 0.0
C223 C 0.79913 0.83943 0.57244 0.0
N224 N 0.74798 0.81499 0.58812 0.0
C225 C 0.7534 0.91011 0.59279 0.0
C226 C 0.80599 0.93624 0.57658 0.0
C227 C 0.829 0.90076 0.56641 0.0
C228 C 0.72558 0.84879 0.5981 0.0
H229 H 0.81692 0.81231 0.56455 0.0
C230 C 0.77257 0.67995 0.57735 0.0
O231 O 0.81579 0.65069 0.6594 0.0
O232 O 0.85844 0.74502 0.64569 0.0
N233 N 0.65155 0.76145 0.61902 0.0
C234 C 0.60124 0.72975 0.63499 0.0
C235 C 0.57298 0.75885 0.64698 0.0
C236 C 0.59638 0.8201 0.64227 0.0
C237 C 0.64793 0.85173 0.62562 0.0
C238 C 0.67416 0.82032 0.61417 0.0
H239 H 0.58276 0.68261 0.6386 0.0
O240 O 0.75584 0.72192 0.67628 0.0
O241 O 0.74705 0.74422 0.63163 0.0
O242 O 0.68456 0.61875 0.64086 0.0
O243 O 0.64036 0.65024 0.60912 0.0
C244 C 0.67492 0.91339 0.62036 0.0
C245 C 0.72764 0.94257 0.60398 0.0
H246 H 0.82915 0.98351 0.57187 0.0
H247 H 0.86961 0.92062 0.55392 0.0
H248 H 0.53321 0.73411 0.6598 0.0
H249 H 0.57463 0.84246 0.6517 0.0
H250 H 0.6558 0.93889 0.62903 0.0
H251 H 0.74817 0.99007 0.60022 0.0
Mn252 Mn 0.08386 0.77185 0.97467 0.0
Mn253 Mn 0.9632 0.69689 0.93189 0.0
C254 C 0.99008 0.74189 0.99209 0.0
C255 C 0.16078 0.8637 0.99091 0.0
C256 C 0.02742 0.63953 0.95993 0.0
O257 O 0.11954 0.78549 0.93473 0.0
O258 O 0.03577 0.74252 0.90784 0.0
C259 C 0.95957 0.79926 0.90587 0.0
N260 N 0.93286 0.74809 0.92154 0.0
C261 C 0.84316 0.75349 0.92622 0.0
C262 C 0.86962 0.80609 0.91002 0.0
C263 C 0.92811 0.82912 0.89985 0.0
C264 C 0.87667 0.72567 0.93152 0.0
H265 H 0.00448 0.81706 0.89797 0.0
C266 C 0.09249 0.77272 0.91074 0.0
O267 O 0.165 0.8159 0.99278 0.0
O268 O 0.11331 0.85855 0.9791 0.0
N269 N 0.88998 0.65163 0.95242 0.0
C270 C 0.87139 0.60131 0.96838 0.0
C271 C 0.81403 0.57304 0.98038 0.0
C272 C 0.77617 0.59642 0.97569 0.0
C273 C 0.79608 0.64798 0.95904 0.0
C274 C 0.85371 0.67423 0.94758 0.0
H275 H 0.90005 0.58284 0.97198 0.0
O276 O 0.03383 0.75591 1.00967 0.0
O277 O 0.00271 0.74714 0.96503 0.0
O278 O 0.06572 0.68468 0.97422 0.0
O279 O 0.99 0.64047 0.9425 0.0
C280 C 0.76141 0.67497 0.95379 0.0
C281 C 0.78495 0.72771 0.93742 0.0
H282 H 0.8455 0.82925 0.90531 0.0
H283 H 0.94885 0.86975 0.88736 0.0
H284 H 0.799 0.53325 0.9932 0.0
H285 H 0.73206 0.57466 0.98511 0.0
H286 H 0.71679 0.65583 0.96247 0.0
H287 H 0.75797 0.74823 0.93366 0.0
Mn288 Mn 0.3121 0.08413 0.30805 0.0
Mn289 Mn 0.26643 0.9635 0.26524 0.0
C290 C 0.24826 0.99031 0.32545 0.0
C291 C 0.29715 0.16103 0.3243 0.0
C292 C 0.388 0.02772 0.29331 0.0
O293 O 0.33417 0.11985 0.26812 0.0
O294 O 0.29337 0.0361 0.24122 0.0
C295 C 0.16045 0.95986 0.23921 0.0
N296 N 0.1849 0.93315 0.25489 0.0
C297 C 0.08981 0.84342 0.25955 0.0
C298 C 0.06367 0.86988 0.24334 0.0
C299 C 0.09913 0.92839 0.23319 0.0
C300 C 0.15113 0.87694 0.26486 0.0
H301 H 0.18756 0.00479 0.23132 0.0
C302 C 0.3199 0.09282 0.24412 0.0
O303 O 0.34916 0.16526 0.32618 0.0
O304 O 0.25484 0.11356 0.31248 0.0
N305 N 0.23846 0.89025 0.28576 0.0
C306 C 0.27018 0.87166 0.30173 0.0
C307 C 0.24109 0.81428 0.31371 0.0
C308 C 0.17985 0.77641 0.30901 0.0
C309 C 0.14821 0.79633 0.29236 0.0
C310 C 0.1796 0.85398 0.28092 0.0
H311 H 0.31731 0.90033 0.30533 0.0
O312 O 0.27798 0.03405 0.34304 0.0
O313 O 0.25567 0.00298 0.29839 0.0
O314 O 0.38113 0.066 0.30761 0.0
O315 O 0.34965 0.99031 0.27587 0.0
C316 C 0.08656 0.76165 0.2871 0.0
C317 C 0.05736 0.78519 0.27073 0.0
H318 H 0.0164 0.84576 0.23863 0.0
H319 H 0.07925 0.94914 0.2207 0.0
H320 H 0.26584 0.79925 0.32653 0.0
H321 H 0.1575 0.73229 0.31843 0.0
H322 H 0.06107 0.71701 0.29577 0.0
H323 H 0.00988 0.75821 0.26697 0.0
Mn324 Mn 0.22781 0.31222 0.64139 0.0
Mn325 Mn 0.30269 0.26643 0.59861 0.0
C326 C 0.2577 0.24833 0.65882 0.0
C327 C 0.13597 0.29733 0.65762 0.0
C328 C 0.36013 0.38803 0.62665 0.0
O329 O 0.2142 0.33428 0.60145 0.0
O330 O 0.25709 0.2934 0.57457 0.0
C331 C 0.20027 0.16045 0.57261 0.0
N332 N 0.25144 0.18488 0.58828 0.0
C333 C 0.24597 0.08974 0.59297 0.0
C334 C 0.19336 0.06362 0.57677 0.0
C335 C 0.17036 0.09912 0.56661 0.0
C336 C 0.27383 0.15108 0.59826 0.0
H337 H 0.18249 0.18758 0.56471 0.0
C338 C 0.22694 0.31998 0.57746 0.0
O339 O 0.18378 0.34933 0.6595 0.0
O340 O 0.1411 0.25499 0.64581 0.0
N341 N 0.34791 0.23841 0.61915 0.0
C342 C 0.39823 0.27012 0.6351 0.0
C343 C 0.42648 0.241 0.6471 0.0
C344 C 0.40305 0.17974 0.64241 0.0
C345 C 0.35148 0.14812 0.62576 0.0
C346 C 0.32527 0.17954 0.61431 0.0
H347 H 0.41674 0.31727 0.6387 0.0
O348 O 0.2437 0.27808 0.6764 0.0
O349 O 0.25246 0.25573 0.63176 0.0
O350 O 0.315 0.38121 0.64095 0.0
O351 O 0.35915 0.34964 0.60922 0.0
C352 C 0.32445 0.08645 0.62053 0.0
C353 C 0.27171 0.05727 0.60416 0.0
H354 H 0.17017 0.01634 0.57208 0.0
H355 H 0.12973 0.07925 0.55413 0.0
H356 H 0.46627 0.26574 0.65991 0.0
H357 H 0.42479 0.15737 0.65183 0.0
H358 H 0.34357 0.06094 0.6292 0.0
H359 H 0.25115 0.00977 0.60042 0.0
Mn360 Mn 0.91569 0.22797 0.97461 0.0
Mn361 Mn 0.0364 0.30296 0.93186 0.0
C362 C 0.00946 0.25792 0.99205 0.0
C363 C 0.83875 0.13611 0.99082 0.0
C364 C 0.97215 0.3603 0.95989 0.0
O365 O 0.88006 0.21436 0.93466 0.0
O366 O 0.96386 0.25734 0.90779 0.0
C367 C 0.04007 0.20063 0.90583 0.0
N368 N 0.06676 0.25177 0.92151 0.0
C369 C 0.15646 0.24638 0.92622 0.0
C370 C 0.13002 0.19379 0.91 0.0
C371 C 0.07154 0.17077 0.89981 0.0
C372 C 0.12294 0.27419 0.93151 0.0
H373 H 0.99517 0.18283 0.89791 0.0
C374 C 0.90713 0.22714 0.91068 0.0
O375 O 0.83454 0.18391 0.9927 0.0
O376 O 0.88623 0.14126 0.97903 0.0
N377 N 0.1096 0.34821 0.95241 0.0
C378 C 0.12817 0.39851 0.96838 0.0
C379 C 0.18551 0.42678 0.98039 0.0
C380 C 0.22338 0.40339 0.97571 0.0
C381 C 0.20349 0.35185 0.95905 0.0
C382 C 0.14587 0.32561 0.94758 0.0
H383 H 0.0995 0.41698 0.97197 0.0
O384 O 0.96569 0.24388 1.00962 0.0
O385 O 0.99685 0.25268 0.96499 0.0
O386 O 0.93385 0.31514 0.97417 0.0
O387 O 0.00959 0.35937 0.94246 0.0
C388 C 0.23817 0.32487 0.95381 0.0
C389 C 0.21465 0.27215 0.93743 0.0
H390 H 0.15415 0.17065 0.9053 0.0
H391 H 0.05082 0.13016 0.88731 0.0
H392 H 0.20052 0.46655 0.99321 0.0
H393 H 0.26747 0.42515 0.98515 0.0
H394 H 0.28278 0.344 0.9625 0.0
H395 H 0.24163 0.25163 0.93368 0.0
Mn396 Mn 0.6877 0.91586 0.30794 0.0
Mn397 Mn 0.73343 0.03656 0.26518 0.0
C398 C 0.75156 0.00964 0.32538 0.0
C399 C 0.70262 0.83891 0.32417 0.0
C400 C 0.61186 0.97235 0.29324 0.0
O401 O 0.66564 0.8802 0.268 0.0
O402 O 0.70644 0.96399 0.24113 0.0
C403 C 0.83937 0.04015 0.23913 0.0
N404 N 0.81495 0.06687 0.25482 0.0
C405 C 0.91009 0.15654 0.2595 0.0
C406 C 0.93619 0.13007 0.24328 0.0
C407 C 0.90069 0.07159 0.2331 0.0
C408 C 0.84877 0.12306 0.26481 0.0
H409 H 0.81224 0.99524 0.23122 0.0
C410 C 0.67989 0.90726 0.24401 0.0
O411 O 0.65061 0.8347 0.32605 0.0
O412 O 0.74494 0.88639 0.31236 0.0
N413 N 0.76145 0.10979 0.28572 0.0
C414 C 0.72976 0.1284 0.30169 0.0
C415 C 0.75889 0.18576 0.31369 0.0
C416 C 0.82014 0.22359 0.309 0.0
C417 C 0.85175 0.20366 0.29234 0.0
C418 C 0.82032 0.14603 0.28088 0.0
H419 H 0.68262 0.09975 0.30529 0.0
O420 O 0.72182 0.96587 0.34295 0.0
O421 O 0.74416 0.99702 0.29831 0.0
O422 O 0.6187 0.93403 0.30752 0.0
O423 O 0.65023 0.00979 0.27582 0.0
C424 C 0.91341 0.23831 0.28709 0.0
C425 C 0.94257 0.21475 0.2707 0.0
H426 H 0.98346 0.15417 0.23857 0.0
H427 H 0.92054 0.05083 0.2206 0.0
H428 H 0.73416 0.2008 0.32652 0.0
H429 H 0.84251 0.2677 0.31843 0.0
H430 H 0.93892 0.28292 0.29577 0.0
H431 H 0.99006 0.24171 0.26694 0.0
C432 C 0.52125 0.53062 0.06739 0.0
C433 C 0.56036 0.58206 0.0688 0.0
C434 C 0.47822 0.46921 0.0674 0.0
C435 C 0.43911 0.41776 0.06882 0.0
C436 C 0.009 0.4784 0.40073 0.0
C437 C 0.02134 0.4393 0.40215 0.0
C438 C 0.9906 0.52142 0.40072 0.0
C439 C 0.97826 0.56053 0.40213 0.0
C440 C 0.46904 0.99074 0.7341 0.0
C441 C 0.41761 0.97842 0.73551 0.0
C442 C 0.53045 0.00909 0.73409 0.0
C443 C 0.58189 0.02141 0.73549 0.0
C444 C 0.53049 0.52147 0.63313 0.0
C445 C 0.58194 0.56057 0.63171 0.0
C446 C 0.46907 0.47845 0.63316 0.0
C447 C 0.41762 0.43936 0.63176 0.0
C448 C 0.99061 0.46921 0.96643 0.0
C449 C 0.97828 0.41777 0.96502 0.0
C450 C 0.00898 0.53062 0.96644 0.0
C451 C 0.0213 0.58206 0.96504 0.0
C452 C 0.47844 0.00926 0.29982 0.0
C453 C 0.43934 0.0216 0.29843 0.0
C454 C 0.52146 0.99086 0.29981 0.0
C455 C 0.56055 0.9785 0.29838 0.0
C456 C 0.33623 0.15444 0.19669 0.0
C457 C 0.32946 0.12766 0.21875 0.0
C458 C 0.33618 0.18209 0.17067 0.0
C459 C 0.32933 0.20203 0.1486 0.0
C460 C 0.15402 0.33631 0.504 0.0
C461 C 0.12725 0.32949 0.48193 0.0
C462 C 0.18171 0.33634 0.53002 0.0
C463 C 0.20169 0.32955 0.55209 0.0
C464 C 0.8178 0.15419 0.83723 0.0
C465 C 0.79779 0.1274 0.81517 0.0
C466 C 0.84552 0.1819 0.86324 0.0
C467 C 0.87232 0.2019 0.88529 0.0
C468 C 0.66347 0.81796 0.17055 0.0
C469 C 0.67026 0.79796 0.14849 0.0
C470 C 0.66348 0.84566 0.19657 0.0
C471 C 0.6703 0.87245 0.21863 0.0
C472 C 0.81782 0.66359 0.52991 0.0
C473 C 0.79783 0.67038 0.55198 0.0
C474 C 0.84553 0.66361 0.5039 0.0
C475 C 0.87232 0.67042 0.48184 0.0
C476 C 0.15409 0.81793 0.86329 0.0
C477 C 0.12731 0.79795 0.88536 0.0
C478 C 0.18177 0.8456 0.83727 0.0
C479 C 0.20175 0.87238 0.81521 0.0
C480 C 0.23655 0.97021 1.01173 0.0
C481 C 0.20476 0.92011 1.00288 0.0
C482 C 0.26622 0.02956 0.02227 0.0
C483 C 0.28452 0.07966 0.03111 0.0
C484 C 0.23669 0.26645 0.35564 0.0
C485 C 0.20489 0.28475 0.36447 0.0
C486 C 0.26638 0.23678 0.34511 0.0
C487 C 0.2847 0.205 0.33626 0.0
C488 C 0.97006 0.23692 0.68889 0.0
C489 C 0.91995 0.2051 0.69771 0.0
C490 C 0.02944 0.26662 0.67838 0.0
C491 C 0.07955 0.28493 0.66956 0.0
C492 C 0.73325 0.97023 0.02215 0.0
C493 C 0.71494 0.92013 0.03099 0.0
C494 C 0.76294 0.02959 1.01162 0.0
C495 C 0.79475 0.07969 1.00278 0.0
C496 C 0.73336 0.76313 0.34497 0.0
C497 C 0.71505 0.79492 0.33613 0.0
C498 C 0.76304 0.73346 0.3555 0.0
C499 C 0.79484 0.71516 0.36434 0.0
C500 C 0.02945 0.7631 0.68885 0.0
C501 C 0.07955 0.7949 0.6977 0.0
C502 C 0.9701 0.73343 0.67832 0.0
C503 C 0.92 0.71513 0.66947 0.0
C504 C 0.11106 0.27327 1.01176 0.0
C505 C 0.06481 0.26631 1.00253 0.0
C506 C 0.16182 0.27327 0.02213 0.0
C507 C 0.2011 0.26629 0.03136 0.0
C508 C 0.83782 0.11125 0.34507 0.0
C509 C 0.79853 0.06499 0.33584 0.0
C510 C 0.88859 0.16201 0.35544 0.0
C511 C 0.93484 0.2013 0.36467 0.0
C512 C 0.72648 0.83795 0.67834 0.0
C513 C 0.73344 0.79864 0.66913 0.0
C514 C 0.72647 0.88872 0.68868 0.0
C515 C 0.73341 0.93498 0.69791 0.0
C516 C 0.83767 0.72654 0.02209 0.0
C517 C 0.79837 0.7335 0.0313 0.0
C518 C 0.88845 0.72653 1.01175 0.0
C519 C 0.93472 0.7335 1.00254 0.0
C520 C 0.11116 0.83787 0.35542 0.0
C521 C 0.06488 0.79857 0.36463 0.0
C522 C 0.16195 0.88865 0.34509 0.0
C523 C 0.20127 0.93493 0.33589 0.0
C524 C 0.27303 0.11123 0.68881 0.0
C525 C 0.26609 0.06497 0.69802 0.0
C526 C 0.27301 0.16202 0.67848 0.0
C527 C 0.26607 0.20134 0.66928 0.0
loop_
_geom_bond_atom_site_label_1
_geom_bond_atom_site_label_2
_geom_bond_distance
_geom_bond_site_symmetry_2
_ccdc_geom_bond_type
Mn0 O5 2.095 . S
Mn0 O15 2.162 . S
Mn0 O16 2.297 . S
Mn0 O24 2.385 . S
Mn0 O25 2.209 . S
Mn0 O26 2.094 . S
Mn1 O6 2.121 . S
Mn1 N8 2.257 . S
Mn1 N17 2.282 . S
Mn1 O25 2.215 . S
Mn1 O27 2.117 . S
C2 O24 1.234 . S
C2 O25 1.283 . S
C3 O15 1.281 . S
C3 O16 1.236 . S
C4 O26 1.240 . S
C4 O27 1.264 . S
O5 Mn0 2.095 . S
O5 C14 1.250 . S
O6 Mn1 2.121 . S
O6 C14 1.258 . S
C7 N8 1.326 . S
C7 C11 1.460 . S
C7 H13 0.929 . S
N8 Mn1 2.257 . S
N8 C7 1.326 . S
N8 C12 1.362 . S
C9 C10 1.258 . S
C9 C12 1.431 . S
C9 C29 1.449 . S
C10 C9 1.258 . S
C10 C11 1.477 . S
C10 H30 0.931 . S
C11 C7 1.460 . S
C11 C10 1.477 . S
C11 H31 0.930 . S
C12 N8 1.362 . S
C12 C9 1.431 . S
C12 C22 1.476 . S
H13 C7 0.929 . S
C14 O5 1.250 . S
C14 O6 1.258 . S
O15 Mn0 2.162 . S
O15 C3 1.281 . S
O16 Mn0 2.297 . S
O16 C3 1.236 . S
N17 Mn1 2.282 . S
N17 C18 1.328 . S
N17 C22 1.318 . S
C18 N17 1.328 . S
C18 C19 1.457 . S
C18 H23 0.929 . S
C19 C18 1.457 . S
C19 C20 1.291 . S
C19 H32 0.931 . S
C20 C19 1.291 . S
C20 C21 1.373 . S
C20 H33 0.929 . S
C21 C20 1.373 . S
C21 C22 1.396 . S
C21 C28 1.403 . S
C22 C12 1.476 . S
C22 N17 1.318 . S
C22 C21 1.396 . S
H23 C18 0.929 . S
O24 Mn0 2.385 . S
O24 C2 1.234 . S
O25 Mn0 2.209 . S
O25 Mn1 2.215 . S
O25 C2 1.283 . S
O26 Mn0 2.094 . S
O26 C4 1.240 . S
O27 Mn1 2.117 . S
O27 C4 1.264 . S
C28 C21 1.403 . S
C28 C29 1.399 . S
C28 H34 0.929 . S
C29 C9 1.449 . S
C29 C28 1.399 . S
C29 H35 0.930 . S
H30 C10 0.931 . S
H31 C11 0.930 . S
H32 C19 0.931 . S
H33 C20 0.929 . S
H34 C28 0.929 . S
H35 C29 0.930 . S
Mn36 O41 2.095 . S
Mn36 O51 2.162 . S
Mn36 O52 2.297 . S
Mn36 O60 2.385 . S
Mn36 O61 2.209 . S
Mn36 O62 2.094 . S
Mn37 O42 2.121 1_655 S
Mn37 N44 2.257 . S
Mn37 N53 2.282 . S
Mn37 O61 2.215 1_655 S
Mn37 O63 2.117 1_655 S
C38 O60 1.234 1_655 S
C38 O61 1.283 1_655 S
C39 O51 1.281 . S
C39 O52 1.236 . S
C40 O62 1.240 . S
C40 O63 1.264 . S
O41 Mn36 2.095 . S
O41 C50 1.250 . S
O42 Mn37 2.121 1_455 S
O42 C50 1.258 . S
C43 N44 1.326 . S
C43 C47 1.460 . S
C43 H49 0.929 . S
N44 Mn37 2.257 . S
N44 C43 1.326 . S
N44 C48 1.362 . S
C45 C46 1.258 . S
C45 C48 1.431 . S
C45 C65 1.449 . S
C46 C45 1.258 . S
C46 C47 1.477 . S
C46 H66 0.931 . S
C47 C43 1.460 . S
C47 C46 1.477 . S
C47 H67 0.930 . S
C48 N44 1.362 . S
C48 C45 1.431 . S
C48 C58 1.476 . S
H49 C43 0.929 . S
C50 O41 1.250 . S
C50 O42 1.258 . S
O51 Mn36 2.162 . S
O51 C39 1.281 . S
O52 Mn36 2.297 . S
O52 C39 1.236 . S
N53 Mn37 2.282 . S
N53 C54 1.328 . S
N53 C58 1.318 . S
C54 N53 1.328 . S
C54 C55 1.457 . S
C54 H59 0.929 . S
C55 C54 1.457 . S
C55 C56 1.291 . S
C55 H68 0.931 . S
C56 C55 1.291 . S
C56 C57 1.373 . S
C56 H69 0.929 . S
C57 C56 1.373 . S
C57 C58 1.396 . S
C57 C64 1.403 . S
C58 C48 1.476 . S
C58 N53 1.318 . S
C58 C57 1.396 . S
H59 C54 0.929 . S
O60 Mn36 2.385 . S
O60 C38 1.234 1_455 S
O61 Mn36 2.209 . S
O61 Mn37 2.215 1_455 S
O61 C38 1.283 1_455 S
O62 Mn36 2.094 . S
O62 C40 1.240 . S
O63 Mn37 2.117 1_455 S
O63 C40 1.264 . S
C64 C57 1.403 . S
C64 C65 1.399 . S
C64 H70 0.929 . S
C65 C45 1.449 . S
C65 C64 1.399 . S
C65 H71 0.930 . S
H66 C46 0.931 . S
H67 C47 0.930 . S
H68 C55 0.931 . S
H69 C56 0.929 . S
H70 C64 0.929 . S
H71 C65 0.930 . S
Mn72 O77 2.095 . S
Mn72 O87 2.162 . S
Mn72 O88 2.297 . S
Mn72 O96 2.385 . S
Mn72 O97 2.209 . S
Mn72 O98 2.094 . S
Mn73 O78 2.121 1_565 S
Mn73 N80 2.257 . S
Mn73 N89 2.282 . S
Mn73 O97 2.215 1_565 S
Mn73 O99 2.117 1_565 S
C74 O96 1.234 1_565 S
C74 O97 1.283 1_565 S
C75 O87 1.281 . S
C75 O88 1.236 . S
C76 O98 1.240 . S
C76 O99 1.264 . S
O77 Mn72 2.095 . S
O77 C86 1.250 . S
O78 Mn73 2.121 1_545 S
O78 C86 1.258 . S
C79 N80 1.326 . S
C79 C83 1.460 . S
C79 H85 0.929 . S
N80 Mn73 2.257 . S
N80 C79 1.326 . S
N80 C84 1.362 . S
C81 C82 1.258 . S
C81 C84 1.431 . S
C81 C101 1.449 . S
C82 C81 1.258 . S
C82 C83 1.477 . S
C82 H102 0.931 . S
C83 C79 1.460 . S
C83 C82 1.477 . S
C83 H103 0.930 . S
C84 N80 1.362 . S
C84 C81 1.431 . S
C84 C94 1.476 . S
H85 C79 0.929 . S
C86 O77 1.250 . S
C86 O78 1.258 . S
O87 Mn72 2.162 . S
O87 C75 1.281 . S
O88 Mn72 2.297 . S
O88 C75 1.236 . S
N89 Mn73 2.282 . S
N89 C90 1.328 . S
N89 C94 1.318 . S
C90 N89 1.328 . S
C90 C91 1.457 . S
C90 H95 0.929 . S
C91 C90 1.457 . S
C91 C92 1.291 . S
C91 H104 0.931 . S
C92 C91 1.291 . S
C92 C93 1.373 . S
C92 H105 0.929 . S
C93 C92 1.373 . S
C93 C94 1.396 . S
C93 C100 1.403 . S
C94 C84 1.476 . S
C94 N89 1.318 . S
C94 C93 1.396 . S
H95 C90 0.929 . S
O96 Mn72 2.385 . S
O96 C74 1.234 1_545 S
O97 Mn72 2.209 . S
O97 Mn73 2.215 1_545 S
O97 C74 1.283 1_545 S
O98 Mn72 2.094 . S
O98 C76 1.240 . S
O99 Mn73 2.117 1_545 S
O99 C76 1.264 . S
C100 C93 1.403 . S
C100 C101 1.399 . S
C100 H106 0.929 . S
C101 C81 1.449 . S
C101 C100 1.399 . S
C101 H107 0.930 . S
H102 C82 0.931 . S
H103 C83 0.930 . S
H104 C91 0.931 . S
H105 C92 0.929 . S
H106 C100 0.929 . S
H107 C101 0.930 . S
Mn108 O113 2.095 . S
Mn108 O123 2.162 . S
Mn108 O124 2.297 . S
Mn108 O132 2.385 . S
Mn108 O133 2.209 . S
Mn108 O134 2.094 . S
Mn109 O114 2.121 . S
Mn109 N116 2.257 . S
Mn109 N125 2.282 . S
Mn109 O133 2.215 . S
Mn109 O135 2.117 . S
C110 O132 1.234 . S
C110 O133 1.283 . S
C111 O123 1.281 . S
C111 O124 1.236 . S
C112 O134 1.240 . S
C112 O135 1.264 . S
O113 Mn108 2.095 . S
O113 C122 1.250 . S
O114 Mn109 2.121 . S
O114 C122 1.258 . S
C115 N116 1.326 . S
C115 C119 1.460 . S
C115 H121 0.929 . S
N116 Mn109 2.257 . S
N116 C115 1.326 . S
N116 C120 1.362 . S
C117 C118 1.258 . S
C117 C120 1.431 . S
C117 C137 1.449 . S
C118 C117 1.258 . S
C118 C119 1.477 . S
C118 H138 0.931 . S
C119 C115 1.460 . S
C119 C118 1.477 . S
C119 H139 0.930 . S
C120 N116 1.362 . S
C120 C117 1.431 . S
C120 C130 1.476 . S
H121 C115 0.929 . S
C122 O113 1.250 . S
C122 O114 1.258 . S
O123 Mn108 2.162 . S
O123 C111 1.281 . S
O124 Mn108 2.297 . S
O124 C111 1.236 . S
N125 Mn109 2.282 . S
N125 C126 1.328 . S
N125 C130 1.318 . S
C126 N125 1.328 . S
C126 C127 1.457 . S
C126 H131 0.929 . S
C127 C126 1.457 . S
C127 C128 1.291 . S
C127 H140 0.931 . S
C128 C127 1.291 . S
C128 C129 1.373 . S
C128 H141 0.929 . S
C129 C128 1.373 . S
C129 C130 1.396 . S
C129 C136 1.403 . S
C130 C120 1.476 . S
C130 N125 1.318 . S
C130 C129 1.396 . S
H131 C126 0.929 . S
O132 Mn108 2.385 . S
O132 C110 1.234 . S
O133 Mn108 2.209 . S
O133 Mn109 2.215 . S
O133 C110 1.283 . S
O134 Mn108 2.094 . S
O134 C112 1.240 . S
O135 Mn109 2.117 . S
O135 C112 1.264 . S
C136 C129 1.403 . S
C136 C137 1.399 . S
C136 H142 0.929 . S
C137 C117 1.449 . S
C137 C136 1.399 . S
C137 H143 0.930 . S
H138 C118 0.931 . S
H139 C119 0.930 . S
H140 C127 0.931 . S
H141 C128 0.929 . S
H142 C136 0.929 . S
H143 C137 0.930 . S
Mn144 O149 2.095 . S
Mn144 O159 2.162 . S
Mn144 O160 2.297 . S
Mn144 O168 2.385 . S
Mn144 O169 2.209 . S
Mn144 O170 2.094 . S
Mn145 O150 2.121 1_455 S
Mn145 N152 2.257 . S
Mn145 N161 2.282 . S
Mn145 O169 2.215 1_455 S
Mn145 O171 2.117 1_455 S
C146 O168 1.234 1_455 S
C146 O169 1.283 1_455 S
C147 O159 1.281 . S
C147 O160 1.236 . S
C148 O170 1.240 . S
C148 O171 1.264 . S
O149 Mn144 2.095 . S
O149 C158 1.250 . S
O150 Mn145 2.121 1_655 S
O150 C158 1.258 . S
C151 N152 1.326 . S
C151 C155 1.460 . S
C151 H157 0.929 . S
N152 Mn145 2.257 . S
N152 C151 1.326 . S
N152 C156 1.362 . S
C153 C154 1.258 . S
C153 C156 1.431 . S
C153 C173 1.449 . S
C154 C153 1.258 . S
C154 C155 1.477 . S
C154 H174 0.931 . S
C155 C151 1.460 . S
C155 C154 1.477 . S
C155 H175 0.930 . S
C156 N152 1.362 . S
C156 C153 1.431 . S
C156 C166 1.476 . S
H157 C151 0.929 . S
C158 O149 1.250 . S
C158 O150 1.258 . S
O159 Mn144 2.162 . S
O159 C147 1.281 . S
O160 Mn144 2.297 . S
O160 C147 1.236 . S
N161 Mn145 2.282 . S
N161 C162 1.328 . S
N161 C166 1.318 . S
C162 N161 1.328 . S
C162 C163 1.457 . S
C162 H167 0.929 . S
C163 C162 1.457 . S
C163 C164 1.291 . S
C163 H176 0.931 . S
C164 C163 1.291 . S
C164 C165 1.373 . S
C164 H177 0.929 . S
C165 C164 1.373 . S
C165 C166 1.396 . S
C165 C172 1.403 . S
C166 C156 1.476 . S
C166 N161 1.318 . S
C166 C165 1.396 . S
H167 C162 0.929 . S
O168 Mn144 2.385 . S
O168 C146 1.234 1_655 S
O169 Mn144 2.209 . S
O169 Mn145 2.215 1_655 S
O169 C146 1.283 1_655 S
O170 Mn144 2.094 . S
O170 C148 1.240 . S
O171 Mn145 2.117 1_655 S
O171 C148 1.264 . S
C172 C165 1.403 . S
C172 C173 1.399 . S
C172 H178 0.929 . S
C173 C153 1.449 . S
C173 C172 1.399 . S
C173 H179 0.930 . S
H174 C154 0.931 . S
H175 C155 0.930 . S
H176 C163 0.931 . S
H177 C164 0.929 . S
H178 C172 0.929 . S
H179 C173 0.930 . S
Mn180 O185 2.095 . S
Mn180 O195 2.162 . S
Mn180 O196 2.297 . S
Mn180 O204 2.385 . S
Mn180 O205 2.209 . S
Mn180 O206 2.094 . S
Mn181 O186 2.121 1_545 S
Mn181 N188 2.257 . S
Mn181 N197 2.282 . S
Mn181 O205 2.215 1_545 S
Mn181 O207 2.117 1_545 S
C182 O204 1.234 1_545 S
C182 O205 1.283 1_545 S
C183 O195 1.281 . S
C183 O196 1.236 . S
C184 O206 1.240 . S
C184 O207 1.264 . S
O185 Mn180 2.095 . S
O185 C194 1.250 . S
O186 Mn181 2.121 1_565 S
O186 C194 1.258 . S
C187 N188 1.326 . S
C187 C191 1.460 . S
C187 H193 0.929 . S
N188 Mn181 2.257 . S
N188 C187 1.326 . S
N188 C192 1.362 . S
C189 C190 1.258 . S
C189 C192 1.431 . S
C189 C209 1.449 . S
C190 C189 1.258 . S
C190 C191 1.477 . S
C190 H210 0.931 . S
C191 C187 1.460 . S
C191 C190 1.477 . S
C191 H211 0.930 . S
C192 N188 1.362 . S
C192 C189 1.431 . S
C192 C202 1.476 . S
H193 C187 0.929 . S
C194 O185 1.250 . S
C194 O186 1.258 . S
O195 Mn180 2.162 . S
O195 C183 1.281 . S
O196 Mn180 2.297 . S
O196 C183 1.236 . S
N197 Mn181 2.282 . S
N197 C198 1.328 . S
N197 C202 1.318 . S
C198 N197 1.328 . S
C198 C199 1.457 . S
C198 H203 0.929 . S
C199 C198 1.457 . S
C199 C200 1.291 . S
C199 H212 0.931 . S
C200 C199 1.291 . S
C200 C201 1.373 . S
C200 H213 0.929 . S
C201 C200 1.373 . S
C201 C202 1.396 . S
C201 C208 1.403 . S
C202 C192 1.476 . S
C202 N197 1.318 . S
C202 C201 1.396 . S
H203 C198 0.929 . S
O204 Mn180 2.385 . S
O204 C182 1.234 1_565 S
O205 Mn180 2.209 . S
O205 Mn181 2.215 1_565 S
O205 C182 1.283 1_565 S
O206 Mn180 2.094 . S
O206 C184 1.240 . S
O207 Mn181 2.117 1_565 S
O207 C184 1.264 . S
C208 C201 1.403 . S
C208 C209 1.399 . S
C208 H214 0.929 . S
C209 C189 1.449 . S
C209 C208 1.399 . S
C209 H215 0.930 . S
H210 C190 0.931 . S
H211 C191 0.930 . S
H212 C199 0.931 . S
H213 C200 0.929 . S
H214 C208 0.929 . S
H215 C209 0.930 . S
Mn216 O221 2.095 . S
Mn216 O231 2.162 . S
Mn216 O232 2.297 . S
Mn216 O240 2.385 . S
Mn216 O241 2.209 . S
Mn216 O242 2.094 . S
Mn217 O222 2.121 . S
Mn217 N224 2.257 . S
Mn217 N233 2.282 . S
Mn217 O241 2.215 . S
Mn217 O243 2.117 . S
C218 O240 1.234 . S
C218 O241 1.283 . S
C219 O231 1.281 . S
C219 O232 1.236 . S
C220 O242 1.240 . S
C220 O243 1.264 . S
O221 Mn216 2.095 . S
O221 C230 1.250 . S
O222 Mn217 2.121 . S
O222 C230 1.258 . S
C223 N224 1.326 . S
C223 C227 1.460 . S
C223 H229 0.929 . S
N224 Mn217 2.257 . S
N224 C223 1.326 . S
N224 C228 1.362 . S
C225 C226 1.258 . S
C225 C228 1.431 . S
C225 C245 1.449 . S
C226 C225 1.258 . S
C226 C227 1.477 . S
C226 H246 0.931 . S
C227 C223 1.460 . S
C227 C226 1.477 . S
C227 H247 0.930 . S
C228 N224 1.362 . S
C228 C225 1.431 . S
C228 C238 1.476 . S
H229 C223 0.929 . S
C230 O221 1.250 . S
C230 O222 1.258 . S
O231 Mn216 2.162 . S
O231 C219 1.281 . S
O232 Mn216 2.297 . S
O232 C219 1.236 . S
N233 Mn217 2.282 . S
N233 C234 1.328 . S
N233 C238 1.318 . S
C234 N233 1.328 . S
C234 C235 1.457 . S
C234 H239 0.929 . S
C235 C234 1.457 . S
C235 C236 1.291 . S
C235 H248 0.931 . S
C236 C235 1.291 . S
C236 C237 1.373 . S
C236 H249 0.929 . S
C237 C236 1.373 . S
C237 C238 1.396 . S
C237 C244 1.403 . S
C238 C228 1.476 . S
C238 N233 1.318 . S
C238 C237 1.396 . S
H239 C234 0.929 . S
O240 Mn216 2.385 . S
O240 C218 1.234 . S
O241 Mn216 2.209 . S
O241 Mn217 2.215 . S
O241 C218 1.283 . S
O242 Mn216 2.094 . S
O242 C220 1.240 . S
O243 Mn217 2.117 . S
O243 C220 1.264 . S
C244 C237 1.403 . S
C244 C245 1.399 . S
C244 H250 0.929 . S
C245 C225 1.449 . S
C245 C244 1.399 . S
C245 H251 0.930 . S
H246 C226 0.931 . S
H247 C227 0.930 . S
H248 C235 0.931 . S
H249 C236 0.929 . S
H250 C244 0.929 . S
H251 C245 0.930 . S
Mn252 O257 2.095 . S
Mn252 O267 2.162 . S
Mn252 O268 2.297 . S
Mn252 O276 2.385 . S
Mn252 O277 2.209 . S
Mn252 O278 2.094 . S
Mn253 O258 2.121 1_655 S
Mn253 N260 2.257 . S
Mn253 N269 2.282 . S
Mn253 O277 2.215 1_655 S
Mn253 O279 2.117 1_655 S
C254 O276 1.234 1_655 S
C254 O277 1.283 1_655 S
C255 O267 1.281 . S
C255 O268 1.236 . S
C256 O278 1.240 . S
C256 O279 1.264 . S
O257 Mn252 2.095 . S
O257 C266 1.250 . S
O258 Mn253 2.121 1_455 S
O258 C266 1.258 . S
C259 N260 1.326 . S
C259 C263 1.460 . S
C259 H265 0.929 . S
N260 Mn253 2.257 . S
N260 C259 1.326 . S
N260 C264 1.362 . S
C261 C262 1.258 . S
C261 C264 1.431 . S
C261 C281 1.449 . S
C262 C261 1.258 . S
C262 C263 1.477 . S
C262 H282 0.931 . S
C263 C259 1.460 . S
C263 C262 1.477 . S
C263 H283 0.930 . S
C264 N260 1.362 . S
C264 C261 1.431 . S
C264 C274 1.476 . S
H265 C259 0.929 . S
C266 O257 1.250 . S
C266 O258 1.258 . S
O267 Mn252 2.162 . S
O267 C255 1.281 . S
O268 Mn252 2.297 . S
O268 C255 1.236 . S
N269 Mn253 2.282 . S
N269 C270 1.328 . S
N269 C274 1.318 . S
C270 N269 1.328 . S
C270 C271 1.457 . S
C270 H275 0.929 . S
C271 C270 1.457 . S
C271 C272 1.291 . S
C271 H284 0.931 . S
C272 C271 1.291 . S
C272 C273 1.373 . S
C272 H285 0.929 . S
C273 C272 1.373 . S
C273 C274 1.396 . S
C273 C280 1.403 . S
C274 C264 1.476 . S
C274 N269 1.318 . S
C274 C273 1.396 . S
H275 C270 0.929 . S
O276 Mn252 2.385 . S
O276 C254 1.234 1_455 S
O277 Mn252 2.209 . S
O277 Mn253 2.215 1_455 S
O277 C254 1.283 1_455 S
O278 Mn252 2.094 . S
O278 C256 1.240 . S
O279 Mn253 2.117 1_455 S
O279 C256 1.264 . S
C280 C273 1.403 . S
C280 C281 1.399 . S
C280 H286 0.929 . S
C281 C261 1.449 . S
C281 C280 1.399 . S
C281 H287 0.930 . S
H282 C262 0.931 . S
H283 C263 0.930 . S
H284 C271 0.931 . S
H285 C272 0.929 . S
H286 C280 0.929 . S
H287 C281 0.930 . S
Mn288 O293 2.095 . S
Mn288 O303 2.162 . S
Mn288 O304 2.297 . S
Mn288 O312 2.385 . S
Mn288 O313 2.209 . S
Mn288 O314 2.094 . S
Mn289 O294 2.121 1_565 S
Mn289 N296 2.257 . S
Mn289 N305 2.282 . S
Mn289 O313 2.215 1_565 S
Mn289 O315 2.117 1_565 S
C290 O312 1.234 1_565 S
C290 O313 1.283 1_565 S
C291 O303 1.281 . S
C291 O304 1.236 . S
C292 O314 1.240 . S
C292 O315 1.264 . S
O293 Mn288 2.095 . S
O293 C302 1.250 . S
O294 Mn289 2.121 1_545 S
O294 C302 1.258 . S
C295 N296 1.326 . S
C295 C299 1.460 . S
C295 H301 0.929 . S
N296 Mn289 2.257 . S
N296 C295 1.326 . S
N296 C300 1.362 . S
C297 C298 1.258 . S
C297 C300 1.431 . S
C297 C317 1.449 . S
C298 C297 1.258 . S
C298 C299 1.477 . S
C298 H318 0.931 . S
C299 C295 1.460 . S
C299 C298 1.477 . S
C299 H319 0.930 . S
C300 N296 1.362 . S
C300 C297 1.431 . S
C300 C310 1.476 . S
H301 C295 0.929 . S
C302 O293 1.250 . S
C302 O294 1.258 . S
O303 Mn288 2.162 . S
O303 C291 1.281 . S
O304 Mn288 2.297 . S
O304 C291 1.236 . S
N305 Mn289 2.282 . S
N305 C306 1.328 . S
N305 C310 1.318 . S
C306 N305 1.328 . S
C306 C307 1.457 . S
C306 H311 0.929 . S
C307 C306 1.457 . S
C307 C308 1.291 . S
C307 H320 0.931 . S
C308 C307 1.291 . S
C308 C309 1.373 . S
C308 H321 0.929 . S
C309 C308 1.373 . S
C309 C310 1.396 . S
C309 C316 1.403 . S
C310 C300 1.476 . S
C310 N305 1.318 . S
C310 C309 1.396 . S
H311 C306 0.929 . S
O312 Mn288 2.385 . S
O312 C290 1.234 1_545 S
O313 Mn288 2.209 . S
O313 Mn289 2.215 1_545 S
O313 C290 1.283 1_545 S
O314 Mn288 2.094 . S
O314 C292 1.240 . S
O315 Mn289 2.117 1_545 S
O315 C292 1.264 . S
C316 C309 1.403 . S
C316 C317 1.399 . S
C316 H322 0.929 . S
C317 C297 1.449 . S
C317 C316 1.399 . S
C317 H323 0.930 . S
H318 C298 0.931 . S
H319 C299 0.930 . S
H320 C307 0.931 . S
H321 C308 0.929 . S
H322 C316 0.929 . S
H323 C317 0.930 . S
Mn324 O329 2.095 . S
Mn324 O339 2.162 . S
Mn324 O340 2.297 . S
Mn324 O348 2.385 . S
Mn324 O349 2.209 . S
Mn324 O350 2.094 . S
Mn325 O330 2.121 . S
Mn325 N332 2.257 . S
Mn325 N341 2.282 . S
Mn325 O349 2.215 . S
Mn325 O351 2.117 . S
C326 O348 1.234 . S
C326 O349 1.283 . S
C327 O339 1.281 . S
C327 O340 1.236 . S
C328 O350 1.240 . S
C328 O351 1.264 . S
O329 Mn324 2.095 . S
O329 C338 1.250 . S
O330 Mn325 2.121 . S
O330 C338 1.258 . S
C331 N332 1.326 . S
C331 C335 1.460 . S
C331 H337 0.929 . S
N332 Mn325 2.257 . S
N332 C331 1.326 . S
N332 C336 1.362 . S
C333 C334 1.258 . S
C333 C336 1.431 . S
C333 C353 1.449 . S
C334 C333 1.258 . S
C334 C335 1.477 . S
C334 H354 0.931 . S
C335 C331 1.460 . S
C335 C334 1.477 . S
C335 H355 0.930 . S
C336 N332 1.362 . S
C336 C333 1.431 . S
C336 C346 1.476 . S
H337 C331 0.929 . S
C338 O329 1.250 . S
C338 O330 1.258 . S
O339 Mn324 2.162 . S
O339 C327 1.281 . S
O340 Mn324 2.297 . S
O340 C327 1.236 . S
N341 Mn325 2.282 . S
N341 C342 1.328 . S
N341 C346 1.318 . S
C342 N341 1.328 . S
C342 C343 1.457 . S
C342 H347 0.929 . S
C343 C342 1.457 . S
C343 C344 1.291 . S
C343 H356 0.931 . S
C344 C343 1.291 . S
C344 C345 1.373 . S
C344 H357 0.929 . S
C345 C344 1.373 . S
C345 C346 1.396 . S
C345 C352 1.403 . S
C346 C336 1.476 . S
C346 N341 1.318 . S
C346 C345 1.396 . S
H347 C342 0.929 . S
O348 Mn324 2.385 . S
O348 C326 1.234 . S
O349 Mn324 2.209 . S
O349 Mn325 2.215 . S
O349 C326 1.283 . S
O350 Mn324 2.094 . S
O350 C328 1.240 . S
O351 Mn325 2.117 . S
O351 C328 1.264 . S
C352 C345 1.403 . S
C352 C353 1.399 . S
C352 H358 0.929 . S
C353 C333 1.449 . S
C353 C352 1.399 . S
C353 H359 0.930 . S
H354 C334 0.931 . S
H355 C335 0.930 . S
H356 C343 0.931 . S
H357 C344 0.929 . S
H358 C352 0.929 . S
H359 C353 0.930 . S
Mn360 O365 2.095 . S
Mn360 O375 2.162 . S
Mn360 O376 2.297 . S
Mn360 O384 2.385 . S
Mn360 O385 2.209 . S
Mn360 O386 2.094 . S
Mn361 O366 2.121 1_455 S
Mn361 N368 2.257 . S
Mn361 N377 2.282 . S
Mn361 O385 2.215 1_455 S
Mn361 O387 2.117 1_455 S
C362 O384 1.234 1_455 S
C362 O385 1.283 1_455 S
C363 O375 1.281 . S
C363 O376 1.236 . S
C364 O386 1.240 . S
C364 O387 1.264 . S
O365 Mn360 2.095 . S
O365 C374 1.250 . S
O366 Mn361 2.121 1_655 S
O366 C374 1.258 . S
C367 N368 1.326 . S
C367 C371 1.460 . S
C367 H373 0.929 . S
N368 Mn361 2.257 . S
N368 C367 1.326 . S
N368 C372 1.362 . S
C369 C370 1.258 . S
C369 C372 1.431 . S
C369 C389 1.449 . S
C370 C369 1.258 . S
C370 C371 1.477 . S
C370 H390 0.931 . S
C371 C367 1.460 . S
C371 C370 1.477 . S
C371 H391 0.930 . S
C372 N368 1.362 . S
C372 C369 1.431 . S
C372 C382 1.476 . S
H373 C367 0.929 . S
C374 O365 1.250 . S
C374 O366 1.258 . S
O375 Mn360 2.162 . S
O375 C363 1.281 . S
O376 Mn360 2.297 . S
O376 C363 1.236 . S
N377 Mn361 2.282 . S
N377 C378 1.328 . S
N377 C382 1.318 . S
C378 N377 1.328 . S
C378 C379 1.457 . S
C378 H383 0.929 . S
C379 C378 1.457 . S
C379 C380 1.291 . S
C379 H392 0.931 . S
C380 C379 1.291 . S
C380 C381 1.373 . S
C380 H393 0.929 . S
C381 C380 1.373 . S
C381 C382 1.396 . S
C381 C388 1.403 . S
C382 C372 1.476 . S
C382 N377 1.318 . S
C382 C381 1.396 . S
H383 C378 0.929 . S
O384 Mn360 2.385 . S
O384 C362 1.234 1_655 S
O385 Mn360 2.209 . S
O385 Mn361 2.215 1_655 S
O385 C362 1.283 1_655 S
O386 Mn360 2.094 . S
O386 C364 1.240 . S
O387 Mn361 2.117 1_655 S
O387 C364 1.264 . S
C388 C381 1.403 . S
C388 C389 1.399 . S
C388 H394 0.929 . S
C389 C369 1.449 . S
C389 C388 1.399 . S
C389 H395 0.930 . S
H390 C370 0.931 . S
H391 C371 0.930 . S
H392 C379 0.931 . S
H393 C380 0.929 . S
H394 C388 0.929 . S
H395 C389 0.930 . S
Mn396 O401 2.095 . S
Mn396 O411 2.162 . S
Mn396 O412 2.297 . S
Mn396 O420 2.385 . S
Mn396 O421 2.209 . S
Mn396 O422 2.094 . S
Mn397 O402 2.121 1_545 S
Mn397 N404 2.257 . S
Mn397 N413 2.282 . S
Mn397 O421 2.215 1_545 S
Mn397 O423 2.117 1_545 S
C398 O420 1.234 1_545 S
C398 O421 1.283 1_545 S
C399 O411 1.281 . S
C399 O412 1.236 . S
C400 O422 1.240 . S
C400 O423 1.264 . S
O401 Mn396 2.095 . S
O401 C410 1.250 . S
O402 Mn397 2.121 1_565 S
O402 C410 1.258 . S
C403 N404 1.326 . S
C403 C407 1.460 . S
C403 H409 0.929 . S
N404 Mn397 2.257 . S
N404 C403 1.326 . S
N404 C408 1.362 . S
C405 C406 1.258 . S
C405 C408 1.431 . S
C405 C425 1.449 . S
C406 C405 1.258 . S
C406 C407 1.477 . S
C406 H426 0.931 . S
C407 C403 1.460 . S
C407 C406 1.477 . S
C407 H427 0.930 . S
C408 N404 1.362 . S
C408 C405 1.431 . S
C408 C418 1.476 . S
H409 C403 0.929 . S
C410 O401 1.250 . S
C410 O402 1.258 . S
O411 Mn396 2.162 . S
O411 C399 1.281 . S
O412 Mn396 2.297 . S
O412 C399 1.236 . S
N413 Mn397 2.282 . S
N413 C414 1.328 . S
N413 C418 1.318 . S
C414 N413 1.328 . S
C414 C415 1.457 . S
C414 H419 0.929 . S
C415 C414 1.457 . S
C415 C416 1.291 . S
C415 H428 0.931 . S
C416 C415 1.291 . S
C416 C417 1.373 . S
C416 H429 0.929 . S
C417 C416 1.373 . S
C417 C418 1.396 . S
C417 C424 1.403 . S
C418 C408 1.476 . S
C418 N413 1.318 . S
C418 C417 1.396 . S
H419 C414 0.929 . S
O420 Mn396 2.385 . S
O420 C398 1.234 1_565 S
O421 Mn396 2.209 . S
O421 Mn397 2.215 1_565 S
O421 C398 1.283 1_565 S
O422 Mn396 2.094 . S
O422 C400 1.240 . S
O423 Mn397 2.117 1_565 S
O423 C400 1.264 . S
C424 C417 1.403 . S
C424 C425 1.399 . S
C424 H430 0.929 . S
C425 C405 1.449 . S
C425 C424 1.399 . S
C425 H431 0.930 . S
H426 C406 0.931 . S
H427 C407 0.930 . S
H428 C415 0.931 . S
H429 C416 0.929 . S
H430 C424 0.929 . S
H431 C425 0.930 . S
C432 C433 1.170 . S
C432 C434 1.380 . S
C433 C432 1.170 . S
C434 C432 1.380 . S
C434 C435 1.170 . S
C435 C434 1.170 . S
C436 C437 1.170 . S
C436 C438 1.380 1_455 S
C437 C436 1.170 . S
C438 C436 1.380 1_655 S
C438 C439 1.170 . S
C439 C438 1.170 . S
C440 C441 1.170 . S
C440 C442 1.380 1_565 S
C441 C440 1.170 . S
C442 C440 1.380 1_545 S
C442 C443 1.170 . S
C443 C442 1.170 . S
C444 C445 1.170 . S
C444 C446 1.380 . S
C445 C444 1.170 . S
C446 C444 1.380 . S
C446 C447 1.170 . S
C447 C446 1.170 . S
C448 C449 1.170 . S
C448 C450 1.380 1_655 S
C449 C448 1.170 . S
C450 C448 1.380 1_455 S
C450 C451 1.170 . S
C451 C450 1.170 . S
C452 C453 1.170 . S
C452 C454 1.380 1_545 S
C453 C452 1.170 . S
C454 C452 1.380 1_565 S
C454 C455 1.170 . S
C455 C454 1.170 . S
C456 C457 1.170 . S
C456 C458 1.380 . S
C457 C456 1.170 . S
C458 C456 1.380 . S
C458 C459 1.170 . S
C459 C458 1.170 . S
C460 C461 1.170 . S
C460 C462 1.380 . S
C461 C460 1.170 . S
C462 C460 1.380 . S
C462 C463 1.170 . S
C463 C462 1.170 . S
C464 C465 1.170 . S
C464 C466 1.380 . S
C465 C464 1.170 . S
C466 C464 1.380 . S
C466 C467 1.170 . S
C467 C466 1.170 . S
C468 C469 1.170 . S
C468 C470 1.380 . S
C469 C468 1.170 . S
C470 C468 1.380 . S
C470 C471 1.170 . S
C471 C470 1.170 . S
C472 C473 1.170 . S
C472 C474 1.380 . S
C473 C472 1.170 . S
C474 C472 1.380 . S
C474 C475 1.170 . S
C475 C474 1.170 . S
C476 C477 1.170 . S
C476 C478 1.380 . S
C477 C476 1.170 . S
C478 C476 1.380 . S
C478 C479 1.170 . S
C479 C478 1.170 . S
C480 C481 1.179 . S
C480 C482 1.373 1_566 S
C481 C480 1.179 . S
C482 C480 1.373 1_544 S
C482 C483 1.170 . S
C483 C482 1.170 . S
C484 C485 1.170 . S
C484 C486 1.380 . S
C485 C484 1.170 . S
C486 C484 1.380 . S
C486 C487 1.170 . S
C487 C486 1.170 . S
C488 C489 1.170 . S
C488 C490 1.380 1_655 S
C489 C488 1.170 . S
C490 C488 1.380 1_455 S
C490 C491 1.170 . S
C491 C490 1.170 . S
C492 C493 1.170 . S
C492 C494 1.380 1_564 S
C493 C492 1.170 . S
C494 C492 1.380 1_546 S
C494 C495 1.170 . S
C495 C494 1.170 . S
C496 C497 1.170 . S
C496 C498 1.380 . S
C497 C496 1.170 . S
C498 C496 1.380 . S
C498 C499 1.170 . S
C499 C498 1.170 . S
C500 C501 1.170 . S
C500 C502 1.380 1_455 S
C501 C500 1.170 . S
C502 C500 1.380 1_655 S
C502 C503 1.170 . S
C503 C502 1.170 . S
C504 C505 1.170 . S
C504 C506 1.380 1_556 S
C505 C504 1.170 . S
C506 C504 1.380 1_554 S
C506 C507 1.170 . S
C507 C506 1.170 . S
C508 C509 1.170 . S
C508 C510 1.380 . S
C509 C508 1.170 . S
C510 C508 1.380 . S
C510 C511 1.170 . S
C511 C510 1.170 . S
C512 C513 1.170 . S
C512 C514 1.380 . S
C513 C512 1.170 . S
C514 C512 1.380 . S
C514 C515 1.170 . S
C515 C514 1.170 . S
C516 C517 1.170 . S
C516 C518 1.380 1_554 S
C517 C516 1.170 . S
C518 C516 1.380 1_556 S
C518 C519 1.170 . S
C519 C518 1.170 . S
C520 C521 1.170 . S
C520 C522 1.380 . S
C521 C520 1.170 . S
C522 C520 1.380 . S
C522 C523 1.170 . S
C523 C522 1.170 . S
C524 C525 1.170 . S
C524 C526 1.380 . S
C525 C524 1.170 . S
C526 C524 1.380 . S
C526 C527 1.170 . S
C527 C526 1.170 . S
C433 C112 1.403 . S
C435 C4 1.364 . S
C437 C40 1.363 . S
C439 C148 1.406 . S
C441 C184 1.394 . S
C443 C76 1.376 . S
C445 C220 1.387 . S
C447 C328 1.381 . S
C449 C364 1.394 . S
C451 C256 1.373 . S
C453 C292 1.408 . S
C455 C400 1.360 . S
C457 C302 1.549 . S
C459 C14 1.565 . S
C461 C50 1.551 . S
C463 C338 1.574 . S
C465 C86 1.551 . S
C467 C374 1.574 . S
C469 C122 1.567 . S
C471 C410 1.561 . S
C473 C230 1.558 . S
C475 C158 1.570 . S
C477 C266 1.571 . S
C479 C194 1.556 . S
C481 C255 1.187 . S
C483 C3 1.166 . S
C485 C39 1.165 . S
C487 C291 1.195 . S
C489 C75 1.189 . S
C491 C327 1.183 . S
C493 C111 1.195 . S
C495 C363 1.165 . S
C497 C399 1.191 . S
C499 C147 1.164 . S
C501 C183 1.192 . S
C503 C219 1.179 . S
C505 C362 1.517 . S
C507 C2 1.524 . S
C509 C398 1.513 . S
C511 C38 1.528 . S
C513 C218 1.522 . S
C515 C74 1.518 . S
C517 C110 1.529 . S
C519 C254 1.512 . S
C521 C146 1.520 . S
C523 C290 1.520 . S
C525 C182 1.533 . S
C527 C326 1.512 . S
