# Generated by pormake.
# Topology snl, (6)-cn, num edge types: 1
# Building blocks:
#     Node 0, Type 0, BuildingBlock: MIFKUJ_clean_sbu_0, # of connection points: 6
#     Node 1, Type 0, BuildingBlock: MIFKUJ_clean_sbu_0, # of connection points: 6
#     Node 2, Type 0, BuildingBlock: MIFKUJ_clean_sbu_0, # of connection points: 6
#     Node 3, Type 0, BuildingBlock: MIFKUJ_clean_sbu_0, # of connection points: 6
#     Node 4, Type 0, BuildingBlock: MIFKUJ_clean_sbu_0, # of connection points: 6
#     Node 5, Type 0, BuildingBlock: MIFKUJ_clean_sbu_0, # of connection points: 6
#     Node 6, Type 0, BuildingBlock: MIFKUJ_clean_sbu_0, # of connection points: 6
#     Node 7, Type 0, BuildingBlock: MIFKUJ_clean_sbu_0, # of connection points: 6
#     Node 8, Type 0, BuildingBlock: MIFKUJ_clean_sbu_0, # of connection points: 6
#     Node 9, Type 0, BuildingBlock: MIFKUJ_clean_sbu_0, # of connection points: 6
#     Node 10, Type 0, BuildingBlock: MIFKUJ_clean_sbu_0, # of connection points: 6
#     Node 11, Type 0, BuildingBlock: MIFKUJ_clean_sbu_0, # of connection points: 6
#     Node 12, Type 0, BuildingBlock: MIFKUJ_clean_sbu_0, # of connection points: 6
#     Node 13, Type 0, BuildingBlock: MIFKUJ_clean_sbu_0, # of connection points: 6
#     Node 14, Type 0, BuildingBlock: MIFKUJ_clean_sbu_0, # of connection points: 6
#     Node 15, Type 0, BuildingBlock: MIFKUJ_clean_sbu_0, # of connection points: 6
#     Edge 16, Type (0, 0), BuildingBlock: OJICUG_clean_linker_0, # of connection points: 2
#     Edge 17, Type (0, 0), BuildingBlock: OJICUG_clean_linker_0, # of connection points: 2
#     Edge 18, Type (0, 0), BuildingBlock: OJICUG_clean_linker_0, # of connection points: 2
#     Edge 19, Type (0, 0), BuildingBlock: OJICUG_clean_linker_0, # of connection points: 2
#     Edge 20, Type (0, 0), BuildingBlock: OJICUG_clean_linker_0, # of connection points: 2
#     Edge 21, Type (0, 0), BuildingBlock: OJICUG_clean_linker_0, # of connection points: 2
#     Edge 22, Type (0, 0), BuildingBlock: OJICUG_clean_linker_0, # of connection points: 2
#     Edge 23, Type (0, 0), BuildingBlock: OJICUG_clean_linker_0, # of connection points: 2
#     Edge 24, Type (0, 0), BuildingBlock: OJICUG_clean_linker_0, # of connection points: 2
#     Edge 25, Type (0, 0), BuildingBlock: OJICUG_clean_linker_0, # of connection points: 2
#     Edge 26, Type (0, 0), BuildingBlock: OJICUG_clean_linker_0, # of connection points: 2
#     Edge 27, Type (0, 0), BuildingBlock: OJICUG_clean_linker_0, # of connection points: 2
#     Edge 28, Type (0, 0), BuildingBlock: OJICUG_clean_linker_0, # of connection points: 2
#     Edge 29, Type (0, 0), BuildingBlock: OJICUG_clean_linker_0, # of connection points: 2
#     Edge 30, Type (0, 0), BuildingBlock: OJICUG_clean_linker_0, # of connection points: 2
#     Edge 31, Type (0, 0), BuildingBlock: OJICUG_clean_linker_0, # of connection points: 2
#     Edge 32, Type (0, 0), BuildingBlock: OJICUG_clean_linker_0, # of connection points: 2
#     Edge 33, Type (0, 0), BuildingBlock: OJICUG_clean_linker_0, # of connection points: 2
#     Edge 34, Type (0, 0), BuildingBlock: OJICUG_clean_linker_0, # of connection points: 2
#     Edge 35, Type (0, 0), BuildingBlock: OJICUG_clean_linker_0, # of connection points: 2
#     Edge 36, Type (0, 0), BuildingBlock: OJICUG_clean_linker_0, # of connection points: 2
#     Edge 37, Type (0, 0), BuildingBlock: OJICUG_clean_linker_0, # of connection points: 2
#     Edge 38, Type (0, 0), BuildingBlock: OJICUG_clean_linker_0, # of connection points: 2
#     Edge 39, Type (0, 0), BuildingBlock: OJICUG_clean_linker_0, # of connection points: 2
#     Edge 40, Type (0, 0), BuildingBlock: OJICUG_clean_linker_0, # of connection points: 2
#     Edge 41, Type (0, 0), BuildingBlock: OJICUG_clean_linker_0, # of connection points: 2
#     Edge 42, Type (0, 0), BuildingBlock: OJICUG_clean_linker_0, # of connection points: 2
#     Edge 43, Type (0, 0), BuildingBlock: OJICUG_clean_linker_0, # of connection points: 2
#     Edge 44, Type (0, 0), BuildingBlock: OJICUG_clean_linker_0, # of connection points: 2
#     Edge 45, Type (0, 0), BuildingBlock: OJICUG_clean_linker_0, # of connection points: 2
#     Edge 46, Type (0, 0), BuildingBlock: OJICUG_clean_linker_0, # of connection points: 2
#     Edge 47, Type (0, 0), BuildingBlock: OJICUG_clean_linker_0, # of connection points: 2
#     Edge 48, Type (0, 0), BuildingBlock: OJICUG_clean_linker_0, # of connection points: 2
#     Edge 49, Type (0, 0), BuildingBlock: OJICUG_clean_linker_0, # of connection points: 2
#     Edge 50, Type (0, 0), BuildingBlock: OJICUG_clean_linker_0, # of connection points: 2
#     Edge 51, Type (0, 0), BuildingBlock: OJICUG_clean_linker_0, # of connection points: 2
#     Edge 52, Type (0, 0), BuildingBlock: OJICUG_clean_linker_0, # of connection points: 2
#     Edge 53, Type (0, 0), BuildingBlock: OJICUG_clean_linker_0, # of connection points: 2
#     Edge 54, Type (0, 0), BuildingBlock: OJICUG_clean_linker_0, # of connection points: 2
#     Edge 55, Type (0, 0), BuildingBlock: OJICUG_clean_linker_0, # of connection points: 2
#     Edge 56, Type (0, 0), BuildingBlock: OJICUG_clean_linker_0, # of connection points: 2
#     Edge 57, Type (0, 0), BuildingBlock: OJICUG_clean_linker_0, # of connection points: 2
#     Edge 58, Type (0, 0), BuildingBlock: OJICUG_clean_linker_0, # of connection points: 2
#     Edge 59, Type (0, 0), BuildingBlock: OJICUG_clean_linker_0, # of connection points: 2
#     Edge 60, Type (0, 0), BuildingBlock: OJICUG_clean_linker_0, # of connection points: 2
#     Edge 61, Type (0, 0), BuildingBlock: OJICUG_clean_linker_0, # of connection points: 2
#     Edge 62, Type (0, 0), BuildingBlock: OJICUG_clean_linker_0, # of connection points: 2
#     Edge 63, Type (0, 0), BuildingBlock: OJICUG_clean_linker_0, # of connection points: 2
# Relax obj value: 0.129
# Max RMSD: 0.184
# Mean RMSD: 0.165
data_MOF--net-snl--node1-MIFKUJ_clean_sbu_0--edge1-OJICUG_clean_linker_0
_symmetry_space_group_name_H-M    P1
_symmetry_Int_Tables_number       1
_symmetry_cell_setting            triclinic
loop_
_symmetry_equiv_pos_as_xyz
'x, y, z'
_cell_length_a     44.356683
_cell_length_b     46.614477
_cell_length_c     14.448717
_cell_angle_alpha  88.80527
_cell_angle_beta   91.069975
_cell_angle_gamma 90.040041
loop_
_atom_site_label
_atom_site_type_symbol
_atom_site_fract_x
_atom_site_fract_y
_atom_site_fract_z
_atom_type_partial_charge
Zn0 Zn 0.13975 0.62439 0.24741 0.0
Zn1 Zn 0.1255 0.63784 0.02284 0.0
C2 C 0.20113 0.60216 0.25844 0.0
O3 O 0.18729 0.57731 0.25351 0.0
C4 C 0.06309 0.65016 0.071 0.0
O5 O 0.07211 0.67694 0.06382 0.0
O6 O 0.12799 0.61707 0.38009 0.0
O7 O 0.12472 0.66515 0.21895 0.0
O8 O 0.14083 0.67442 0.07786 0.0
C9 C 0.13606 0.63634 0.43654 0.0
O10 O 0.15071 0.65889 0.40483 0.0
O11 O 0.18566 0.62516 0.2539 0.0
C12 C 0.11782 0.62387 0.83087 0.0
O13 O 0.10791 0.59959 0.8668 0.0
O14 O 0.12605 0.64379 0.8846 0.0
O15 O 0.15036 0.6026 0.04694 0.0
O16 O 0.12598 0.58983 0.17214 0.0
O17 O 0.08182 0.63006 0.05759 0.0
C18 C 0.1327 0.68305 0.15629 0.0
C19 C 0.13888 0.58311 0.09765 0.0
Zn20 Zn 0.61419 0.89764 0.49832 0.0
Zn21 Zn 0.61338 0.8493 0.25915 0.0
C22 C 0.63779 0.95076 0.56456 0.0
O23 O 0.66305 0.9361 0.56902 0.0
C24 C 0.60172 0.78923 0.23615 0.0
O25 O 0.58239 0.79886 0.1729 0.0
O26 O 0.61952 0.87528 0.61758 0.0
O27 O 0.57279 0.89033 0.44527 0.0
O28 O 0.57706 0.86438 0.31984 0.0
C29 C 0.60044 0.88038 0.67961 0.0
O30 O 0.57794 0.89789 0.65946 0.0
O31 O 0.61381 0.9388 0.53552 0.0
C32 C 0.62329 0.84671 0.06124 0.0
O33 O 0.64721 0.83163 0.0862 0.0
O34 O 0.60614 0.85618 0.12307 0.0
O35 O 0.65279 0.86718 0.29176 0.0
O36 O 0.65107 0.89246 0.42032 0.0
O37 O 0.61695 0.807 0.28333 0.0
C38 C 0.56101 0.87735 0.37728 0.0
C39 C 0.66535 0.88288 0.35199 0.0
Zn40 Zn 0.37417 0.38355 0.76134 0.0
Zn41 Zn 0.38625 0.37027 0.54271 0.0
C42 C 0.31313 0.39951 0.80222 0.0
O43 O 0.3277 0.41946 0.84787 0.0
C44 C 0.44941 0.35798 0.59133 0.0
O45 O 0.44023 0.33126 0.5866 0.0
O46 O 0.38453 0.39082 0.89586 0.0
O47 O 0.3908 0.34344 0.74116 0.0
O48 O 0.3722 0.33325 0.60319 0.0
C49 C 0.37638 0.37144 0.95353 0.0
O50 O 0.36242 0.34862 0.92228 0.0
O51 O 0.32819 0.38169 0.75591 0.0
C52 C 0.39266 0.38422 0.34924 0.0
O53 O 0.40302 0.40834 0.38302 0.0
O54 O 0.3844 0.36434 0.40486 0.0
O55 O 0.36117 0.40561 0.56209 0.0
O56 O 0.38788 0.41833 0.68406 0.0
O57 O 0.43053 0.3782 0.57622 0.0
C58 C 0.38198 0.32507 0.68259 0.0
C59 C 0.37305 0.42513 0.61061 0.0
Zn60 Zn 0.8741 0.10518 0.99096 0.0
Zn61 Zn 0.88117 0.14905 0.74796 0.0
C62 C 0.85928 0.05204 0.08889 0.0
O63 O 0.84026 0.06765 0.13494 0.0
C64 C 0.89542 0.20884 0.73405 0.0
O65 O 0.91423 0.1997 0.67198 0.0
O66 O 0.86928 0.12697 0.10827 0.0
O67 O 0.9149 0.11122 0.93929 0.0
O68 O 0.92061 0.13381 0.80445 0.0
C69 C 0.88952 0.12315 0.17066 0.0
O70 O 0.91292 0.10706 0.15256 0.0
O71 O 0.87515 0.06377 0.02654 0.0
C72 C 0.86886 0.15433 0.54884 0.0
O73 O 0.84394 0.16724 0.5727 0.0
O74 O 0.88725 0.1454 0.61141 0.0
O75 O 0.83964 0.1317 0.77256 0.0
O76 O 0.83769 0.10927 0.9092 0.0
O77 O 0.87884 0.19084 0.77634 0.0
C78 C 0.93157 0.12057 0.87514 0.0
C79 C 0.82512 0.11782 0.83407 0.0
Zn80 Zn 0.13407 0.4028 0.99587 0.0
Zn81 Zn 0.13023 0.34968 0.76353 0.0
C82 C 0.14379 0.46503 0.97915 0.0
O83 O 0.15786 0.45863 0.90307 0.0
C84 C 0.11942 0.28896 0.74133 0.0
O85 O 0.10039 0.29833 0.67679 0.0
O86 O 0.14046 0.38262 0.12048 0.0
O87 O 0.09248 0.39152 0.94688 0.0
O88 O 0.0926 0.36242 0.82685 0.0
C89 C 0.12106 0.38696 0.18247 0.0
O90 O 0.09744 0.40296 0.16122 0.0
O91 O 0.13192 0.44499 0.02713 0.0
C92 C 0.14197 0.35078 0.56479 0.0
O93 O 0.16729 0.33809 0.59059 0.0
O94 O 0.12304 0.35725 0.6261 0.0
O95 O 0.16968 0.36856 0.79679 0.0
O96 O 0.17166 0.39688 0.9188 0.0
O97 O 0.13477 0.30702 0.78717 0.0
C98 C 0.07861 0.3765 0.88705 0.0
C99 C 0.18418 0.38509 0.85055 0.0
Zn100 Zn 0.85516 0.88353 0.31014 0.0
Zn101 Zn 0.90958 0.87969 0.07666 0.0
C102 C 0.79428 0.89839 0.34562 0.0
O103 O 0.80729 0.92091 0.38232 0.0
C104 C 0.9715 0.87071 0.03106 0.0
O105 O 0.95969 0.85229 0.9731 0.0
O106 O 0.86941 0.89035 0.44041 0.0
O107 O 0.87183 0.84571 0.27203 0.0
O108 O 0.90111 0.84386 0.14912 0.0
C109 C 0.86396 0.87184 0.50365 0.0
O110 O 0.8492 0.84838 0.4821 0.0
O111 O 0.81052 0.87905 0.31122 0.0
C112 C 0.90199 0.89144 0.8821 0.0
O113 O 0.91603 0.91524 0.90426 0.0
O114 O 0.89671 0.87279 0.94507 0.0
O115 O 0.89106 0.91661 0.113 0.0
O116 O 0.86249 0.91954 0.23671 0.0
O117 O 0.95426 0.8851 0.08168 0.0
C118 C 0.88794 0.83185 0.21672 0.0
C119 C 0.87502 0.931 0.167 0.0
Zn120 Zn 0.37785 0.6042 0.47902 0.0
Zn121 Zn 0.38748 0.60699 0.26014 0.0
C122 C 0.35948 0.54418 0.49537 0.0
O123 O 0.33225 0.55522 0.49533 0.0
C124 C 0.40713 0.66445 0.2397 0.0
O125 O 0.43004 0.65035 0.20643 0.0
O126 O 0.37226 0.6136 0.61331 0.0
O127 O 0.41789 0.62183 0.44353 0.0
O128 O 0.42557 0.59346 0.32661 0.0
C129 C 0.39107 0.60264 0.67147 0.0
O130 O 0.41343 0.58722 0.64082 0.0
O131 O 0.38204 0.56067 0.48351 0.0
C132 C 0.37512 0.61313 0.06623 0.0
O133 O 0.35305 0.62875 0.09767 0.0
O134 O 0.39315 0.60077 0.12381 0.0
O135 O 0.34734 0.58901 0.29065 0.0
O136 O 0.33969 0.61687 0.40889 0.0
O137 O 0.38494 0.65025 0.27138 0.0
C138 C 0.43596 0.6093 0.3903 0.0
C139 C 0.32943 0.60297 0.34036 0.0
Zn140 Zn 0.63329 0.1139 0.79212 0.0
Zn141 Zn 0.62676 0.12492 0.57685 0.0
C142 C 0.69588 0.09992 0.81203 0.0
O143 O 0.68386 0.07847 0.8589 0.0
C144 C 0.56373 0.13874 0.56153 0.0
O145 O 0.57452 0.15787 0.50283 0.0
O146 O 0.62751 0.10762 0.93011 0.0
O147 O 0.61282 0.15118 0.75937 0.0
O148 O 0.64147 0.16048 0.63978 0.0
C149 C 0.63618 0.12687 0.98589 0.0
O150 O 0.64863 0.15036 0.95224 0.0
O151 O 0.67845 0.11842 0.77339 0.0
C152 C 0.6224 0.11176 0.3827 0.0
O153 O 0.61032 0.08814 0.41668 0.0
O154 O 0.63123 0.13102 0.43824 0.0
O155 O 0.64794 0.08776 0.6092 0.0
O156 O 0.61872 0.07845 0.72741 0.0
O157 O 0.58191 0.12135 0.60252 0.0
C158 C 0.62603 0.16919 0.70689 0.0
C159 C 0.63431 0.06979 0.66067 0.0
Zn160 Zn 0.88622 0.37425 0.94245 0.0
Zn161 Zn 0.87663 0.38617 0.72335 0.0
C162 C 0.94965 0.36112 0.91983 0.0
O163 O 0.93985 0.33481 0.93374 0.0
C164 C 0.81389 0.39928 0.69301 0.0
O165 O 0.82599 0.41978 0.64213 0.0
O166 O 0.88219 0.3681 0.08043 0.0
O167 O 0.8618 0.40937 0.91023 0.0
O168 O 0.89048 0.42116 0.79297 0.0
C169 C 0.89 0.38797 0.13499 0.0
O170 O 0.90082 0.41201 0.09997 0.0
O171 O 0.93092 0.38181 0.91963 0.0
C172 C 0.87536 0.37394 0.5312 0.0
O173 O 0.86313 0.35037 0.56499 0.0
O174 O 0.88346 0.39346 0.58676 0.0
O175 O 0.89652 0.34806 0.75159 0.0
O176 O 0.87307 0.33789 0.88122 0.0
O177 O 0.83122 0.3819 0.73753 0.0
C178 C 0.87435 0.42844 0.86033 0.0
C179 C 0.88547 0.32974 0.80776 0.0
Zn180 Zn 0.38801 0.14227 0.76669 0.0
Zn181 Zn 0.37521 0.13464 0.5485 0.0
C182 C 0.39676 0.20366 0.77142 0.0
O183 O 0.41527 0.19582 0.83935 0.0
C184 C 0.35304 0.07778 0.5268 0.0
O185 O 0.32871 0.09269 0.50494 0.0
O186 O 0.39389 0.14043 0.906 0.0
O187 O 0.35011 0.11998 0.74158 0.0
O188 O 0.33771 0.14643 0.61912 0.0
C189 C 0.37353 0.1493 0.95935 0.0
O190 O 0.34859 0.16013 0.92276 0.0
O191 O 0.38238 0.18436 0.72776 0.0
C192 C 0.38816 0.13606 0.35751 0.0
O193 O 0.41173 0.12216 0.39185 0.0
O194 O 0.36822 0.14468 0.41275 0.0
O195 O 0.41724 0.1501 0.57911 0.0
O196 O 0.42593 0.12703 0.7114 0.0
O197 O 0.37683 0.09109 0.55151 0.0
C198 C 0.32998 0.1309 0.68823 0.0
C199 C 0.43563 0.13836 0.63703 0.0
Zn200 Zn 0.6283 0.62227 0.41059 0.0
Zn201 Zn 0.63765 0.61424 0.19265 0.0
C202 C 0.56442 0.63132 0.42543 0.0
O203 O 0.57415 0.65162 0.4802 0.0
C204 C 0.69992 0.60172 0.1732 0.0
O205 O 0.68745 0.58016 0.12951 0.0
O206 O 0.63332 0.62858 0.54723 0.0
O207 O 0.65046 0.58593 0.38635 0.0
O208 O 0.6261 0.57717 0.25566 0.0
C209 C 0.62323 0.61027 0.6052 0.0
O210 O 0.60943 0.58729 0.57456 0.0
O211 O 0.58361 0.61594 0.38486 0.0
C212 C 0.6393 0.62729 0.99854 0.0
O213 O 0.65271 0.65049 0.02907 0.0
O214 O 0.63051 0.60837 0.05657 0.0
O215 O 0.61503 0.65034 0.22184 0.0
O216 O 0.64167 0.65872 0.34796 0.0
O217 O 0.68285 0.62003 0.21011 0.0
C218 C 0.63967 0.56826 0.32887 0.0
C219 C 0.62585 0.66792 0.2796 0.0
Zn220 Zn 0.14315 0.86496 0.21883 0.0
Zn221 Zn 0.15675 0.8858 0.98485 0.0
C222 C 0.1257 0.80507 0.22556 0.0
O223 O 0.1094 0.81409 0.2941 0.0
C224 C 0.15569 0.94857 0.01088 0.0
O225 O 0.16887 0.94261 0.09115 0.0
O226 O 0.13532 0.86595 0.35481 0.0
O227 O 0.18491 0.87931 0.20865 0.0
O228 O 0.196 0.88245 0.05964 0.0
C229 C 0.15488 0.85561 0.41159 0.0
O230 O 0.1794 0.84386 0.37958 0.0
O231 O 0.14143 0.82316 0.18008 0.0
C232 C 0.14181 0.87425 0.80206 0.0
O233 O 0.11709 0.88632 0.83143 0.0
O234 O 0.16384 0.87053 0.85859 0.0
O235 O 0.11811 0.86643 0.02579 0.0
O236 O 0.11105 0.88859 0.15586 0.0
O237 O 0.14819 0.92812 0.95838 0.0
C238 C 0.20385 0.88275 0.14485 0.0
C239 C 0.10058 0.87874 0.08086 0.0
Zn240 Zn 0.88308 0.65105 0.25453 0.0
Zn241 Zn 0.88127 0.60194 0.01851 0.0
C242 C 0.90056 0.70957 0.2603 0.0
O243 O 0.92708 0.69782 0.27626 0.0
C244 C 0.86225 0.54616 0.96486 0.0
O245 O 0.83588 0.55892 0.95964 0.0
O246 O 0.8904 0.64039 0.38802 0.0
O247 O 0.84305 0.63362 0.21772 0.0
O248 O 0.84333 0.60711 0.09198 0.0
C249 C 0.87312 0.64957 0.44997 0.0
O250 O 0.85012 0.66596 0.42537 0.0
O251 O 0.87765 0.69364 0.24875 0.0
C252 C 0.89348 0.6149 0.83226 0.0
O253 O 0.91648 0.59827 0.85484 0.0
O254 O 0.8745 0.62081 0.89385 0.0
O255 O 0.92202 0.61484 0.06481 0.0
O256 O 0.92184 0.64213 0.18877 0.0
O257 O 0.88526 0.56017 0.99139 0.0
C258 C 0.82956 0.61783 0.15948 0.0
C259 C 0.93581 0.62962 0.12504 0.0
Zn260 Zn 0.12225 0.12512 0.95995 0.0
Zn261 Zn 0.13889 0.11252 0.73932 0.0
C262 C 0.0601 0.10439 0.93426 0.0
O263 O 0.07013 0.08169 0.98054 0.0
C264 C 0.20448 0.10345 0.75178 0.0
O265 O 0.19718 0.07688 0.77356 0.0
O266 O 0.12221 0.13303 0.09719 0.0
O267 O 0.14174 0.08654 0.95241 0.0
O268 O 0.13184 0.07424 0.80824 0.0
C269 C 0.11818 0.11232 0.15447 0.0
O270 O 0.11348 0.08646 0.12292 0.0
O271 O 0.07833 0.12465 0.91525 0.0
C272 C 0.13231 0.12732 0.54902 0.0
O273 O 0.14236 0.15179 0.58102 0.0
O274 O 0.12836 0.10638 0.60535 0.0
O275 O 0.11671 0.14907 0.77125 0.0
O276 O 0.14288 0.15835 0.89737 0.0
O277 O 0.18371 0.12193 0.73795 0.0
C278 C 0.13873 0.06742 0.8918 0.0
C279 C 0.12969 0.16712 0.82341 0.0
Zn280 Zn 0.63082 0.34931 0.768 0.0
Zn281 Zn 0.63335 0.39571 0.52353 0.0
C282 C 0.61611 0.29001 0.77893 0.0
O283 O 0.59458 0.29967 0.83118 0.0
C284 C 0.64416 0.44702 0.41109 0.0
O285 O 0.65465 0.42906 0.3508 0.0
O286 O 0.62304 0.3541 0.9036 0.0
O287 O 0.6714 0.36704 0.7418 0.0
O288 O 0.67006 0.39025 0.60642 0.0
C289 C 0.64103 0.34517 0.96733 0.0
O290 O 0.66607 0.33221 0.94485 0.0
O291 O 0.63484 0.30757 0.74424 0.0
C292 C 0.6175 0.37445 0.34585 0.0
O293 O 0.59257 0.3882 0.36463 0.0
O294 O 0.63864 0.37345 0.40652 0.0
O295 O 0.59144 0.3879 0.57045 0.0
O296 O 0.59264 0.36212 0.70113 0.0
O297 O 0.63411 0.43758 0.4877 0.0
C298 C 0.68438 0.3815 0.67858 0.0
C299 C 0.57805 0.375 0.63616 0.0
Zn300 Zn 0.38472 0.84594 0.19014 0.0
Zn301 Zn 0.37341 0.89905 0.42359 0.0
C302 C 0.40573 0.78843 0.20059 0.0
O303 O 0.43008 0.80182 0.17237 0.0
C304 C 0.35109 0.95514 0.46877 0.0
O305 O 0.32548 0.94099 0.47221 0.0
O306 O 0.39151 0.85329 0.05346 0.0
O307 O 0.34583 0.86486 0.21822 0.0
O308 O 0.33719 0.89258 0.33846 0.0
C309 C 0.37225 0.84614 0.99175 0.0
O310 O 0.34762 0.83266 0.01709 0.0
O311 O 0.38207 0.80304 0.21395 0.0
C312 C 0.38736 0.88403 0.61066 0.0
O313 O 0.41074 0.90001 0.58932 0.0
O314 O 0.36729 0.87953 0.54853 0.0
O315 O 0.41475 0.88836 0.37946 0.0
O316 O 0.42094 0.8607 0.25765 0.0
O317 O 0.37495 0.94173 0.44842 0.0
C318 C 0.32842 0.88038 0.26462 0.0
C319 C 0.4316 0.87543 0.32358 0.0
C320 C 0.13336 0.65276 0.69176 0.0
C321 C 0.12101 0.62743 0.72941 0.0
H322 H 0.14772 0.67539 0.57028 0.0
C323 C 0.11268 0.60527 0.66942 0.0
H324 H 0.13998 0.67027 0.73587 0.0
C325 C 0.1171 0.60823 0.57399 0.0
C326 C 0.13001 0.63337 0.53674 0.0
H327 H 0.10308 0.58548 0.69619 0.0
H328 H 0.11079 0.59066 0.52969 0.0
C329 C 0.13784 0.65567 0.59664 0.0
C330 C 0.59042 0.86884 0.93685 0.0
C331 C 0.61662 0.85346 0.9625 0.0
H332 H 0.56465 0.88909 0.82757 0.0
C333 C 0.63658 0.84538 0.8933 0.0
H334 H 0.57444 0.87523 0.98831 0.0
C335 C 0.63092 0.85333 0.8007 0.0
C336 C 0.60517 0.86949 0.77563 0.0
H337 H 0.6569 0.83341 0.91078 0.0
H338 H 0.64708 0.84738 0.74919 0.0
C339 C 0.58476 0.87674 0.84451 0.0
C340 C 0.37719 0.3554 0.21175 0.0
C341 C 0.38954 0.38069 0.24777 0.0
H342 H 0.36342 0.33269 0.09113 0.0
C343 C 0.39823 0.40276 0.18593 0.0
H344 H 0.37028 0.33796 0.2573 0.0
C345 C 0.39432 0.39973 0.09024 0.0
C346 C 0.38157 0.37458 0.05443 0.0
H347 H 0.40785 0.42252 0.21136 0.0
H348 H 0.40099 0.41721 0.04448 0.0
C349 C 0.37323 0.3524 0.11629 0.0
C350 C 0.90207 0.13541 0.42624 0.0
C351 C 0.87496 0.14867 0.45055 0.0
H352 H 0.928 0.11725 0.31899 0.0
C353 C 0.85349 0.15533 0.38064 0.0
H354 H 0.91921 0.13016 0.47823 0.0
C355 C 0.85858 0.14791 0.28888 0.0
C356 C 0.88525 0.13373 0.26534 0.0
H357 H 0.83243 0.16564 0.39704 0.0
H358 H 0.84127 0.15263 0.23693 0.0
C359 C 0.90715 0.12804 0.33476 0.0
C360 C 0.10424 0.38144 0.34653 0.0
C361 C 0.12579 0.37602 0.27891 0.0
H362 H 0.09232 0.37772 0.48909 0.0
C363 C 0.15226 0.36118 0.30551 0.0
H364 H 0.08355 0.39275 0.3286 0.0
C365 C 0.15732 0.35256 0.39799 0.0
C366 C 0.13603 0.35856 0.46592 0.0
H367 H 0.16933 0.35663 0.25522 0.0
H368 H 0.17815 0.34154 0.41638 0.0
C369 C 0.10928 0.37282 0.4388 0.0
C370 C 0.87737 0.86092 0.76165 0.0
C371 C 0.89243 0.88637 0.78518 0.0
H372 H 0.8566 0.83636 0.65446 0.0
C373 C 0.89819 0.90694 0.71526 0.0
H374 H 0.8726 0.84462 0.81386 0.0
C375 C 0.88902 0.90219 0.6238 0.0
C376 C 0.87389 0.87677 0.60033 0.0
H377 H 0.90974 0.92677 0.73106 0.0
H378 H 0.89375 0.91851 0.57159 0.0
C379 C 0.86819 0.85618 0.67022 0.0
C380 C 0.40743 0.59251 0.83576 0.0
C381 C 0.38724 0.60591 0.77235 0.0
H382 H 0.41944 0.58417 0.97793 0.0
C383 C 0.36307 0.62177 0.80645 0.0
H384 H 0.42628 0.58008 0.8119 0.0
C385 C 0.35914 0.62409 0.90185 0.0
C386 C 0.37926 0.61055 0.96523 0.0
H387 H 0.34708 0.63232 0.75951 0.0
H388 H 0.34026 0.63645 0.92581 0.0
C389 C 0.40348 0.59479 0.93108 0.0
C390 C 0.61959 0.09781 0.12444 0.0
C391 C 0.63249 0.12299 0.08734 0.0
H392 H 0.60629 0.07453 0.24631 0.0
C393 C 0.64194 0.14451 0.1483 0.0
H394 H 0.61207 0.0808 0.07958 0.0
C395 C 0.63862 0.14092 0.24401 0.0
C396 C 0.62578 0.11572 0.28114 0.0
H397 H 0.65196 0.16419 0.12221 0.0
H398 H 0.64618 0.15792 0.28885 0.0
C399 C 0.61628 0.09422 0.22018 0.0
C400 C 0.89516 0.40631 0.29668 0.0
C401 C 0.88657 0.3843 0.23646 0.0
H402 H 0.89841 0.42037 0.43677 0.0
C403 C 0.87444 0.35886 0.27417 0.0
H404 H 0.90458 0.42619 0.26998 0.0
C405 C 0.87089 0.35555 0.36975 0.0
C406 C 0.8794 0.37758 0.42998 0.0
H407 H 0.86758 0.34148 0.22986 0.0
H408 H 0.86141 0.33567 0.39632 0.0
C409 C 0.89163 0.40298 0.39237 0.0
C410 C 0.4073 0.13125 0.19658 0.0
C411 C 0.38465 0.1405 0.25591 0.0
H412 H 0.42165 0.12681 0.05705 0.0
C413 C 0.35856 0.15331 0.21691 0.0
H414 H 0.42773 0.12133 0.22418 0.0
C415 C 0.35506 0.15642 0.12067 0.0
C416 C 0.37758 0.14683 0.06137 0.0
H417 H 0.34069 0.16067 0.2606 0.0
H418 H 0.33457 0.16615 0.09282 0.0
C419 C 0.40382 0.13439 0.10056 0.0
C420 C 0.64512 0.64373 0.83368 0.0
C421 C 0.63488 0.62307 0.89796 0.0
H422 H 0.64949 0.65593 0.69099 0.0
C423 C 0.62058 0.59824 0.86514 0.0
H424 H 0.65622 0.6631 0.85661 0.0
C425 C 0.6167 0.59414 0.77011 0.0
C426 C 0.62707 0.61474 0.70584 0.0
H427 H 0.61242 0.5819 0.91283 0.0
H428 H 0.60567 0.57474 0.74715 0.0
C429 C 0.64127 0.63961 0.73866 0.0
C430 C 0.17429 0.85089 0.57508 0.0
C431 C 0.15086 0.85832 0.51224 0.0
H432 H 0.18984 0.85006 0.71634 0.0
C433 C 0.12392 0.86947 0.5462 0.0
H434 H 0.19531 0.84219 0.55104 0.0
C435 C 0.12077 0.87387 0.6407 0.0
C436 C 0.14453 0.86733 0.70329 0.0
H437 H 0.10538 0.87524 0.49965 0.0
H438 H 0.09988 0.88298 0.6643 0.0
C439 C 0.17117 0.8554 0.66976 0.0
C440 C 0.90897 0.61667 0.66687 0.0
C441 C 0.88885 0.62496 0.73534 0.0
H442 H 0.91978 0.61788 0.52334 0.0
C443 C 0.86384 0.64203 0.70958 0.0
H444 H 0.92847 0.60353 0.68435 0.0
C445 C 0.85884 0.65028 0.61697 0.0
C446 C 0.87873 0.64158 0.54834 0.0
H447 H 0.84792 0.64877 0.76073 0.0
H448 H 0.83923 0.66323 0.59915 0.0
C449 C 0.90395 0.62486 0.57442 0.0
C450 C 0.11896 0.09712 0.41293 0.0
C451 C 0.12715 0.1239 0.4484 0.0
H452 H 0.10968 0.07251 0.29256 0.0
C453 C 0.13123 0.14721 0.38651 0.0
H454 H 0.11561 0.07874 0.45868 0.0
C455 C 0.12778 0.14367 0.29103 0.0
C456 C 0.12024 0.11671 0.25551 0.0
H457 H 0.13745 0.16817 0.41163 0.0
H458 H 0.13147 0.16194 0.2451 0.0
C459 C 0.11559 0.09356 0.31757 0.0
C460 C 0.65 0.35142 0.2278 0.0
C461 C 0.62254 0.36426 0.25097 0.0
H462 H 0.67737 0.33521 0.12006 0.0
C463 C 0.60065 0.36921 0.18091 0.0
H464 H 0.66733 0.34729 0.28017 0.0
C465 C 0.60647 0.36246 0.08925 0.0
C466 C 0.63428 0.35048 0.06549 0.0
H467 H 0.57924 0.37902 0.19628 0.0
H468 H 0.58931 0.36712 0.03677 0.0
C469 C 0.65577 0.34453 0.136 0.0
C470 C 0.35457 0.84832 0.82533 0.0
C471 C 0.37673 0.85437 0.89315 0.0
H472 H 0.34049 0.85282 0.68297 0.0
C473 C 0.40282 0.86925 0.86629 0.0
H474 H 0.3342 0.83688 0.84357 0.0
C475 C 0.4064 0.87836 0.77437 0.0
C476 C 0.384 0.87285 0.70687 0.0
H477 H 0.42038 0.87422 0.91654 0.0
H478 H 0.42665 0.89009 0.75659 0.0
C479 C 0.35816 0.85746 0.73319 0.0
C480 C 0.14299 0.73448 0.11026 0.0
C481 C 0.13078 0.71433 0.17312 0.0
H482 H 0.1511 0.77889 0.07741 0.0
C483 C 0.11654 0.72439 0.25225 0.0
H484 H 0.15413 0.7275 0.04858 0.0
C485 C 0.11454 0.75381 0.26818 0.0
C486 C 0.12701 0.77396 0.20594 0.0
H487 H 0.10679 0.70954 0.30201 0.0
H488 H 0.1035 0.76072 0.33011 0.0
C489 C 0.14127 0.76396 0.12674 0.0
C490 C 0.50909 0.89156 0.4252 0.0
C491 C 0.5279 0.87737 0.36369 0.0
H492 H 0.46388 0.90222 0.46077 0.0
C493 C 0.51478 0.86303 0.2884 0.0
H494 H 0.51849 0.90284 0.48385 0.0
C495 C 0.4836 0.86269 0.27517 0.0
C496 C 0.46471 0.87669 0.33687 0.0
H497 H 0.52857 0.85191 0.23951 0.0
H498 H 0.47436 0.85128 0.21657 0.0
C499 C 0.47779 0.89124 0.41189 0.0
C500 C 0.3732 0.27299 0.64595 0.0
C501 C 0.38529 0.29391 0.705 0.0
H502 H 0.3671 0.22811 0.62063 0.0
C503 C 0.40095 0.28478 0.78583 0.0
H504 H 0.36097 0.27925 0.58317 0.0
C505 C 0.40466 0.25556 0.80676 0.0
C506 C 0.39258 0.23462 0.74796 0.0
H507 H 0.4106 0.30021 0.83293 0.0
H508 H 0.41695 0.24941 0.86955 0.0
C509 C 0.37667 0.24367 0.66745 0.0
C510 C 0.98536 0.13287 0.83647 0.0
C511 C 0.96457 0.11559 0.88437 0.0
H512 H 0.03198 0.14311 0.8152 0.0
C513 C 0.97558 0.09381 0.94475 0.0
H514 H 0.9776 0.14986 0.78959 0.0
C515 C 0.00655 0.08968 0.95829 0.0
C516 C 0.02738 0.10752 0.91302 0.0
H517 H 0.96023 0.07996 0.98232 0.0
H518 H 0.0141 0.07294 0.0064 0.0
C519 C 0.01648 0.12905 0.85132 0.0
C520 C 0.14035 0.24774 0.83681 0.0
C521 C 0.12253 0.25778 0.76141 0.0
H522 H 0.15652 0.21135 0.91571 0.0
C523 C 0.10745 0.23772 0.70587 0.0
H524 H 0.15227 0.26261 0.88101 0.0
C525 C 0.10999 0.20832 0.72553 0.0
C526 C 0.12752 0.19828 0.80156 0.0
H527 H 0.09362 0.24471 0.64709 0.0
H528 H 0.09799 0.19347 0.68142 0.0
C529 C 0.14275 0.21833 0.8568 0.0
C530 C 0.0551 0.86166 0.99257 0.0
C531 C 0.06761 0.87771 0.06512 0.0
H532 H 0.01486 0.84677 0.92502 0.0
C533 C 0.04826 0.89226 0.12404 0.0
H534 H 0.06942 0.85027 0.94579 0.0
C535 C 0.01707 0.89038 0.11181 0.0
C536 C 1.00453 0.87378 0.04071 0.0
H537 H 0.05719 0.90495 0.18024 0.0
H538 H 1.0028 0.9016 0.15913 0.0
C539 C 0.02385 0.85962 0.98072 0.0
C540 C 0.38079 0.71191 0.25574 0.0
C541 C 0.40681 0.69625 0.23485 0.0
H542 H 0.3599 0.75334 0.261 0.0
C543 C 0.43252 0.71125 0.2054 0.0
H544 H 0.36059 0.70099 0.27849 0.0
C545 C 0.43214 0.74111 0.1955 0.0
C546 C 0.40601 0.7568 0.2145 0.0
H547 H 0.45299 0.69992 0.18904 0.0
H548 H 0.45234 0.75184 0.17187 0.0
C549 C 0.38037 0.74189 0.24548 0.0
C550 C 0.5107 0.15427 0.5246 0.0
C551 C 0.53096 0.13811 0.5806 0.0
H552 H 0.46493 0.16689 0.49793 0.0
C553 C 0.51961 0.12192 0.65539 0.0
H554 H 0.51864 0.16694 0.46629 0.0
C555 C 0.48872 0.12212 0.67416 0.0
C556 C 0.46845 0.13828 0.618 0.0
H557 H 0.53461 0.10932 0.70005 0.0
H558 H 0.48072 0.10949 0.7325 0.0
C559 C 0.47983 0.15423 0.54274 0.0
C560 C 0.8759 0.24916 0.82756 0.0
C561 C 0.8932 0.23973 0.75358 0.0
H562 H 0.86001 0.28494 0.90301 0.0
C563 C 0.90811 0.26011 0.69797 0.0
H564 H 0.86418 0.23397 0.87181 0.0
C565 C 0.90557 0.28935 0.7155 0.0
C566 C 0.88826 0.29879 0.78949 0.0
H567 H 0.92156 0.25353 0.64033 0.0
H568 H 0.91723 0.30453 0.67108 0.0
C569 C 0.87355 0.27837 0.84554 0.0
C570 C 0.62651 0.74785 0.31995 0.0
C571 C 0.60709 0.75811 0.2488 0.0
H572 H 0.64764 0.71139 0.38551 0.0
C573 C 0.59364 0.73845 0.18828 0.0
H574 H 0.63721 0.76245 0.36779 0.0
C575 C 0.59978 0.70914 0.19808 0.0
C576 C 0.61935 0.69891 0.26893 0.0
H577 H 0.57863 0.74569 0.1326 0.0
H578 H 0.58918 0.69453 0.15003 0.0
C579 C 0.63251 0.71856 0.33004 0.0
C580 C 0.87066 0.75441 0.27634 0.0
C581 C 0.8976 0.74091 0.25222 0.0
H582 H 0.84676 0.79415 0.28597 0.0
C583 C 0.92154 0.75752 0.21846 0.0
H584 H 0.85194 0.74199 0.30292 0.0
C585 C 0.91833 0.78714 0.20662 0.0
C586 C 0.89142 0.80069 0.2309 0.0
H587 H 0.94249 0.74753 0.19909 0.0
H588 H 0.93695 0.79949 0.17902 0.0
C589 C 0.86775 0.78416 0.26704 0.0
C590 C 0.64094 0.22018 0.67572 0.0
C591 C 0.62331 0.20013 0.72439 0.0
H592 H 0.65261 0.26433 0.65522 0.0
C593 C 0.60317 0.20989 0.79083 0.0
H594 H 0.65669 0.21332 0.62423 0.0
C595 C 0.60071 0.23912 0.80822 0.0
C596 C 0.6185 0.25913 0.7601 0.0
H597 H 0.58923 0.19497 0.82942 0.0
H598 H 0.585 0.24597 0.85985 0.0
C599 C 0.63865 0.24939 0.69369 0.0
C600 C 1.00005 0.34491 0.86739 0.0
C601 C 0.98225 0.36624 0.90647 0.0
H602 H 0.0442 0.33172 0.82889 0.0
C603 C 0.99616 0.39165 0.93608 0.0
H604 H 0.98993 0.32515 0.84365 0.0
C605 C 0.02748 0.39517 0.92963 0.0
C606 C 0.04531 0.37369 0.891 0.0
H607 H 0.98297 0.40839 0.96685 0.0
H608 H 0.03775 0.41465 0.95495 0.0
C609 C 0.03113 0.34874 0.85863 0.0
C610 C 0.48951 0.59996 0.34426 0.0
C611 C 0.4689 0.61466 0.399 0.0
H612 H 0.53581 0.5936 0.30956 0.0
C613 C 0.48004 0.63499 0.4615 0.0
H614 H 0.48171 0.58419 0.29527 0.0
C615 C 0.51095 0.64053 0.46913 0.0
C616 C 0.53159 0.62575 0.41491 0.0
H617 H 0.46486 0.64681 0.50453 0.0
H618 H 0.51865 0.65631 0.5182 0.0
C619 C 0.52052 0.60537 0.35237 0.0
C620 C 0.49565 0.38857 0.57156 0.0
C621 C 0.48173 0.36407 0.6098 0.0
H622 H 0.5372 0.41107 0.54863 0.0
C623 C 0.4994 0.34432 0.66167 0.0
H624 H 0.48259 0.40409 0.53092 0.0
C625 C 0.53043 0.34864 0.67366 0.0
C626 C 0.54467 0.37243 0.632 0.0
H627 H 0.48926 0.32531 0.69228 0.0
H628 H 0.54344 0.33268 0.7126 0.0
C629 C 0.5269 0.39251 0.58146 0.0
C630 C 0.0176 0.61814 0.06089 0.0
C631 C 0.03108 0.64375 0.09045 0.0
H632 H 0.97674 0.59375 0.04747 0.0
C633 C 0.01333 0.66395 0.13536 0.0
H634 H 0.0307 0.60222 0.02575 0.0
C635 C 0.98266 0.65886 0.1494 0.0
C636 C 0.96886 0.63374 0.11711 0.0
H637 H 0.0231 0.68384 0.1592 0.0
H638 H 0.96959 0.6751 0.18273 0.0
C639 C 0.9867 0.61335 0.07304 0.0
C640 C 0.12734 0.53062 0.12211 0.0
C641 C 0.14018 0.55279 0.06837 0.0
H642 H 0.11831 0.48559 0.13618 0.0
C643 C 0.15409 0.54578 0.98506 0.0
H644 H 0.11643 0.53524 0.18656 0.0
C645 C 0.15516 0.51737 0.95618 0.0
C646 C 0.14232 0.4952 0.00975 0.0
H647 H 0.16418 0.56228 0.94171 0.0
H648 H 0.16609 0.51284 0.89169 0.0
C649 C 0.12839 0.50215 0.0931 0.0
C650 C 0.71613 0.86991 0.29432 0.0
C651 C 0.69809 0.88817 0.3461 0.0
H652 H 0.76063 0.85868 0.2543 0.0
C653 C 0.71185 0.91054 0.39503 0.0
H654 H 0.70625 0.85243 0.25589 0.0
C655 C 0.7431 0.91419 0.39393 0.0
C656 C 0.76117 0.89538 0.34433 0.0
H657 H 0.6985 0.92521 0.43424 0.0
H658 H 0.7531 0.93146 0.43301 0.0
C659 C 0.74734 0.87339 0.29383 0.0
C660 C 0.39248 0.47573 0.60151 0.0
C661 C 0.37002 0.45554 0.5799 0.0
H662 H 0.40719 0.5195 0.58908 0.0
C663 C 0.34467 0.46455 0.52715 0.0
H664 H 0.41237 0.46935 0.64144 0.0
C665 C 0.34143 0.4933 0.49877 0.0
C666 C 0.36391 0.51347 0.52007 0.0
H667 H 0.32699 0.44947 0.50942 0.0
H668 H 0.32132 0.49976 0.46005 0.0
C669 C 0.38965 0.50434 0.57078 0.0
C670 C 0.77432 0.12869 0.75956 0.0
C671 C 0.7924 0.11198 0.82088 0.0
H672 H 0.72949 0.13825 0.70907 0.0
C673 C 0.77858 0.0904 0.87474 0.0
H674 H 0.78426 0.14553 0.71727 0.0
C675 C 0.74745 0.08607 0.86944 0.0
C676 C 0.72915 0.10343 0.81099 0.0
H677 H 0.7918 0.07698 0.92225 0.0
H678 H 0.73768 0.06952 0.91326 0.0
C679 C 0.74295 0.12459 0.75516 0.0
C680 C 0.84119 0.49695 0.94824 0.0
C681 C 0.86528 0.51615 0.93711 0.0
H682 H 0.82549 0.45379 0.93368 0.0
C683 C 0.89217 0.50654 0.8983 0.0
H684 H 0.82025 0.5039 0.978 0.0
C685 C 0.89486 0.47813 0.87059 0.0
C686 C 0.87101 0.45878 0.88381 0.0
H687 H 0.91096 0.52106 0.88838 0.0
H688 H 0.91581 0.47114 0.84099 0.0
C689 C 0.8442 0.46837 0.92306 0.0
C690 C 0.25962 0.09374 0.77545 0.0
C691 C 0.23652 0.11126 0.73794 0.0
H692 H 0.30709 0.08639 0.78994 0.0
C693 C 0.24437 0.1356 0.68435 0.0
H694 H 0.25433 0.07486 0.817 0.0
C695 C 0.2747 0.14196 0.66735 0.0
C696 C 0.29778 0.12444 0.70519 0.0
H697 H 0.22707 0.14943 0.65398 0.0
H698 H 0.28007 0.16068 0.62513 0.0
C699 C 0.28987 0.1004 0.76001 0.0
C700 C 0.64382 0.52721 0.44166 0.0
C701 C 0.64173 0.53728 0.34948 0.0
H702 H 0.64569 0.49058 0.5334 0.0
C703 C 0.64099 0.51748 0.27754 0.0
H704 H 0.64436 0.54203 0.49842 0.0
C705 C 0.64238 0.48807 0.29753 0.0
C706 C 0.64376 0.47802 0.38979 0.0
H707 H 0.63952 0.52475 0.20588 0.0
H708 H 0.64175 0.4732 0.24089 0.0
C709 C 0.64444 0.49781 0.46168 0.0
C710 C 0.27428 0.89172 0.29287 0.0
C711 C 0.29686 0.88372 0.2318 0.0
H712 H 0.22711 0.89766 0.31308 0.0
C713 C 0.28884 0.87772 0.13947 0.0
H714 H 0.27976 0.89656 0.36424 0.0
C715 C 0.25871 0.87868 0.10971 0.0
C716 C 0.23598 0.88527 0.17207 0.0
H717 H 0.30581 0.87187 0.09038 0.0
H718 H 0.25316 0.8732 0.03892 0.0
C719 C 0.24413 0.89228 0.26349 0.0
C720 C 0.61118 0.99261 0.63006 0.0
C721 C 0.63726 0.98095 0.59208 0.0
H722 H 0.59013 0.02996 0.68395 0.0
C723 C 0.66266 0.99845 0.57937 0.0
H724 H 0.59138 0.97944 0.64092 0.0
C725 C 0.66169 0.02743 0.60182 0.0
C726 C 0.63563 0.03908 0.63993 0.0
H727 H 0.68299 0.98992 0.54994 0.0
H728 H 0.68136 0.0407 0.58979 0.0
C729 C 0.61053 0.02137 0.6551 0.0
C730 C 0.23243 0.37333 0.77029 0.0
C731 C 0.21693 0.38977 0.83493 0.0
H732 H 0.27479 0.36339 0.70933 0.0
C733 C 0.23325 0.41014 0.88591 0.0
H734 H 0.22066 0.35743 0.72966 0.0
C735 C 0.26429 0.41367 0.87364 0.0
C736 C 0.27989 0.39678 0.81061 0.0
H737 H 0.22212 0.42327 0.93593 0.0
H738 H 0.27614 0.42935 0.91497 0.0
C739 C 0.26353 0.37671 0.75858 0.0
C740 C 0.85127 0.97837 0.20124 0.0
C741 C 0.87073 0.96198 0.14758 0.0
H742 H 0.83224 0.01977 0.22464 0.0
C743 C 0.88608 0.97546 0.07452 0.0
H744 H 0.83903 0.96861 0.25793 0.0
C745 C 0.88221 0.00465 0.05569 0.0
C746 C 0.86282 0.02107 0.10926 0.0
H747 H 0.90124 0.96353 0.03178 0.0
H748 H 0.8945 0.01431 0.99892 0.0
C749 C 0.84731 0.00766 0.18213 0.0
C750 C 0.24747 0.62621 0.32219 0.0
C751 C 0.23413 0.60307 0.27584 0.0
H752 H 0.28797 0.64401 0.38078 0.0
C753 C 0.25243 0.58007 0.25015 0.0
H754 H 0.23389 0.64413 0.34349 0.0
C755 C 0.28343 0.58022 0.27006 0.0
C756 C 0.29667 0.60304 0.31823 0.0
H757 H 0.24279 0.56194 0.21437 0.0
H758 H 0.29695 0.56221 0.24923 0.0
C759 C 0.27836 0.62603 0.34418 0.0
C760 C 0.32488 0.00193 0.49224 0.0
C761 C 0.35188 0.98635 0.48695 0.0
H762 H 0.30412 0.04286 0.50896 0.0
C763 C 0.37943 0.00095 0.4985 0.0
H764 H 0.30326 0.99139 0.48382 0.0
C765 C 0.37992 0.03054 0.51401 0.0
C766 C 0.35287 0.04618 0.5171 0.0
H767 H 0.40064 0.98955 0.49531 0.0
H768 H 0.40147 0.04125 0.52155 0.0
C769 C 0.32537 0.03149 0.5066 0.0
C770 C 0.78228 0.59114 0.11711 0.0
C771 C 0.79657 0.61286 0.16769 0.0
H772 H 0.74093 0.57046 0.07983 0.0
C773 C 0.77882 0.63036 0.22339 0.0
H774 H 0.79517 0.57709 0.07427 0.0
C775 C 0.74746 0.62667 0.2262 0.0
C776 C 0.73321 0.6052 0.17423 0.0
H777 H 0.78906 0.64734 0.26326 0.0
H778 H 0.73437 0.64079 0.26847 0.0
C779 C 0.75108 0.58727 0.12062 0.0
C780 C 0.13606 0.01435 0.86079 0.0
C781 C 0.14311 0.03686 0.92077 0.0
H782 H 0.13419 0.96885 0.84223 0.0
C783 C 0.15408 0.02996 0.01059 0.0
H784 H 0.12749 0.01886 0.79133 0.0
C785 C 0.15795 0.00139 0.03969 0.0
C786 C 0.15086 0.97887 0.98001 0.0
H787 H 0.15985 0.04666 0.05883 0.0
H788 H 0.16657 0.99701 0.10919 0.0
C789 C 0.1398 0.98568 0.89018 0.0
C790 C 0.73551 0.37206 0.75197 0.0
C791 C 0.71731 0.38721 0.68675 0.0
H792 H 0.78027 0.36376 0.80483 0.0
C793 C 0.73111 0.40707 0.62641 0.0
H794 H 0.72566 0.35655 0.79939 0.0
C795 C 0.76232 0.41135 0.63011 0.0
C796 C 0.78062 0.39566 0.69352 0.0
H797 H 0.71784 0.4192 0.57555 0.0
H798 H 0.77213 0.4266 0.58176 0.0
C799 C 0.76684 0.37612 0.75493 0.0
loop_
_geom_bond_atom_site_label_1
_geom_bond_atom_site_label_2
_geom_bond_distance
_geom_bond_site_symmetry_2
_ccdc_geom_bond_type
Zn0 O6 1.969 . S
Zn0 O7 1.965 . S
Zn0 O11 2.024 . S
Zn0 O16 1.969 . S
Zn1 O8 1.969 . S
Zn1 O14 1.969 1_554 S
Zn1 O15 1.965 . S
Zn1 O17 2.024 . S
C2 O3 1.229 . S
C2 O11 1.058 . S
O3 C2 1.229 . S
C4 O5 1.229 1_554 S
C4 O17 1.058 . S
O5 C4 1.229 1_556 S
O6 Zn0 1.969 . S
O6 C9 1.267 . S
O7 Zn0 1.965 . S
O7 C18 1.260 . S
O8 Zn1 1.969 . S
O8 C18 1.258 . S
C9 O6 1.267 . S
C9 O10 1.228 . S
O10 C9 1.228 . S
O11 Zn0 2.024 . S
O11 C2 1.058 . S
C12 O13 1.228 . S
C12 O14 1.267 . S
O13 C12 1.228 . S
O14 Zn1 1.969 1_556 S
O14 C12 1.267 . S
O15 Zn1 1.965 . S
O15 C19 1.260 . S
O16 Zn0 1.969 . S
O16 C19 1.258 . S
O17 Zn1 2.024 . S
O17 C4 1.058 . S
C18 O7 1.260 . S
C18 O8 1.258 . S
C19 O15 1.260 . S
C19 O16 1.258 . S
Zn20 O26 1.969 . S
Zn20 O27 1.965 . S
Zn20 O31 2.024 . S
Zn20 O36 1.969 . S
Zn21 O28 1.969 . S
Zn21 O34 1.969 . S
Zn21 O35 1.965 . S
Zn21 O37 2.024 . S
C22 O23 1.229 . S
C22 O31 1.058 . S
O23 C22 1.229 . S
C24 O25 1.229 . S
C24 O37 1.058 . S
O25 C24 1.229 . S
O26 Zn20 1.969 . S
O26 C29 1.267 . S
O27 Zn20 1.965 . S
O27 C38 1.260 . S
O28 Zn21 1.969 . S
O28 C38 1.258 . S
C29 O26 1.267 . S
C29 O30 1.228 . S
O30 C29 1.228 . S
O31 Zn20 2.024 . S
O31 C22 1.058 . S
C32 O33 1.228 . S
C32 O34 1.267 . S
O33 C32 1.228 . S
O34 Zn21 1.969 . S
O34 C32 1.267 . S
O35 Zn21 1.965 . S
O35 C39 1.260 . S
O36 Zn20 1.969 . S
O36 C39 1.258 . S
O37 Zn21 2.024 . S
O37 C24 1.058 . S
C38 O27 1.260 . S
C38 O28 1.258 . S
C39 O35 1.260 . S
C39 O36 1.258 . S
Zn40 O46 1.969 . S
Zn40 O47 1.965 . S
Zn40 O51 2.024 . S
Zn40 O56 1.969 . S
Zn41 O48 1.969 . S
Zn41 O54 1.969 . S
Zn41 O55 1.965 . S
Zn41 O57 2.024 . S
C42 O43 1.229 . S
C42 O51 1.058 . S
O43 C42 1.229 . S
C44 O45 1.229 . S
C44 O57 1.058 . S
O45 C44 1.229 . S
O46 Zn40 1.969 . S
O46 C49 1.267 . S
O47 Zn40 1.965 . S
O47 C58 1.260 . S
O48 Zn41 1.969 . S
O48 C58 1.258 . S
C49 O46 1.267 . S
C49 O50 1.228 . S
O50 C49 1.228 . S
O51 Zn40 2.024 . S
O51 C42 1.058 . S
C52 O53 1.228 . S
C52 O54 1.267 . S
O53 C52 1.228 . S
O54 Zn41 1.969 . S
O54 C52 1.267 . S
O55 Zn41 1.965 . S
O55 C59 1.260 . S
O56 Zn40 1.969 . S
O56 C59 1.258 . S
O57 Zn41 2.024 . S
O57 C44 1.058 . S
C58 O47 1.260 . S
C58 O48 1.258 . S
C59 O55 1.260 . S
C59 O56 1.258 . S
Zn60 O66 1.969 . S
Zn60 O67 1.965 . S
Zn60 O71 2.024 . S
Zn60 O76 1.969 1_554 S
Zn61 O68 1.969 . S
Zn61 O74 1.969 . S
Zn61 O75 1.965 . S
Zn61 O77 2.024 . S
C62 O63 1.229 . S
C62 O71 1.058 . S
O63 C62 1.229 . S
C64 O65 1.229 . S
C64 O77 1.058 . S
O65 C64 1.229 . S
O66 Zn60 1.969 . S
O66 C69 1.267 . S
O67 Zn60 1.965 . S
O67 C78 1.260 1_554 S
O68 Zn61 1.969 . S
O68 C78 1.258 . S
C69 O66 1.267 . S
C69 O70 1.228 . S
O70 C69 1.228 . S
O71 Zn60 2.024 . S
O71 C62 1.058 . S
C72 O73 1.228 . S
C72 O74 1.267 . S
O73 C72 1.228 . S
O74 Zn61 1.969 . S
O74 C72 1.267 . S
O75 Zn61 1.965 . S
O75 C79 1.260 . S
O76 Zn60 1.969 1_556 S
O76 C79 1.258 . S
O77 Zn61 2.024 . S
O77 C64 1.058 . S
C78 O67 1.260 1_556 S
C78 O68 1.258 . S
C79 O75 1.260 . S
C79 O76 1.258 . S
Zn80 O86 1.969 . S
Zn80 O87 1.965 . S
Zn80 O91 2.024 . S
Zn80 O96 1.969 1_554 S
Zn81 O88 1.969 . S
Zn81 O94 1.969 . S
Zn81 O95 1.965 . S
Zn81 O97 2.024 . S
C82 O83 1.229 . S
C82 O91 1.058 . S
O83 C82 1.229 . S
C84 O85 1.229 . S
C84 O97 1.058 . S
O85 C84 1.229 . S
O86 Zn80 1.969 . S
O86 C89 1.267 . S
O87 Zn80 1.965 . S
O87 C98 1.260 1_554 S
O88 Zn81 1.969 . S
O88 C98 1.258 . S
C89 O86 1.267 . S
C89 O90 1.228 . S
O90 C89 1.228 . S
O91 Zn80 2.024 . S
O91 C82 1.058 . S
C92 O93 1.228 . S
C92 O94 1.267 . S
O93 C92 1.228 . S
O94 Zn81 1.969 . S
O94 C92 1.267 . S
O95 Zn81 1.965 . S
O95 C99 1.260 . S
O96 Zn80 1.969 1_556 S
O96 C99 1.258 . S
O97 Zn81 2.024 . S
O97 C84 1.058 . S
C98 O87 1.260 1_556 S
C98 O88 1.258 . S
C99 O95 1.260 . S
C99 O96 1.258 . S
Zn100 O106 1.969 . S
Zn100 O107 1.965 . S
Zn100 O111 2.024 . S
Zn100 O116 1.969 . S
Zn101 O108 1.969 . S
Zn101 O114 1.969 1_554 S
Zn101 O115 1.965 . S
Zn101 O117 2.024 . S
C102 O103 1.229 . S
C102 O111 1.058 . S
O103 C102 1.229 . S
C104 O105 1.229 . S
C104 O117 1.058 . S
O105 C104 1.229 . S
O106 Zn100 1.969 . S
O106 C109 1.267 . S
O107 Zn100 1.965 . S
O107 C118 1.260 . S
O108 Zn101 1.969 . S
O108 C118 1.258 . S
C109 O106 1.267 . S
C109 O110 1.228 . S
O110 C109 1.228 . S
O111 Zn100 2.024 . S
O111 C102 1.058 . S
C112 O113 1.228 . S
C112 O114 1.267 . S
O113 C112 1.228 . S
O114 Zn101 1.969 1_556 S
O114 C112 1.267 . S
O115 Zn101 1.965 . S
O115 C119 1.260 . S
O116 Zn100 1.969 . S
O116 C119 1.258 . S
O117 Zn101 2.024 . S
O117 C104 1.058 . S
C118 O107 1.260 . S
C118 O108 1.258 . S
C119 O115 1.260 . S
C119 O116 1.258 . S
Zn120 O126 1.969 . S
Zn120 O127 1.965 . S
Zn120 O131 2.024 . S
Zn120 O136 1.969 . S
Zn121 O128 1.969 . S
Zn121 O134 1.969 . S
Zn121 O135 1.965 . S
Zn121 O137 2.024 . S
C122 O123 1.229 . S
C122 O131 1.058 . S
O123 C122 1.229 . S
C124 O125 1.229 . S
C124 O137 1.058 . S
O125 C124 1.229 . S
O126 Zn120 1.969 . S
O126 C129 1.267 . S
O127 Zn120 1.965 . S
O127 C138 1.260 . S
O128 Zn121 1.969 . S
O128 C138 1.258 . S
C129 O126 1.267 . S
C129 O130 1.228 . S
O130 C129 1.228 . S
O131 Zn120 2.024 . S
O131 C122 1.058 . S
C132 O133 1.228 . S
C132 O134 1.267 . S
O133 C132 1.228 . S
O134 Zn121 1.969 . S
O134 C132 1.267 . S
O135 Zn121 1.965 . S
O135 C139 1.260 . S
O136 Zn120 1.969 . S
O136 C139 1.258 . S
O137 Zn121 2.024 . S
O137 C124 1.058 . S
C138 O127 1.260 . S
C138 O128 1.258 . S
C139 O135 1.260 . S
C139 O136 1.258 . S
Zn140 O146 1.969 . S
Zn140 O147 1.965 . S
Zn140 O151 2.024 . S
Zn140 O156 1.969 . S
Zn141 O148 1.969 . S
Zn141 O154 1.969 . S
Zn141 O155 1.965 . S
Zn141 O157 2.024 . S
C142 O143 1.229 . S
C142 O151 1.058 . S
O143 C142 1.229 . S
C144 O145 1.229 . S
C144 O157 1.058 . S
O145 C144 1.229 . S
O146 Zn140 1.969 . S
O146 C149 1.267 . S
O147 Zn140 1.965 . S
O147 C158 1.260 . S
O148 Zn141 1.969 . S
O148 C158 1.258 . S
C149 O146 1.267 . S
C149 O150 1.228 . S
O150 C149 1.228 . S
O151 Zn140 2.024 . S
O151 C142 1.058 . S
C152 O153 1.228 . S
C152 O154 1.267 . S
O153 C152 1.228 . S
O154 Zn141 1.969 . S
O154 C152 1.267 . S
O155 Zn141 1.965 . S
O155 C159 1.260 . S
O156 Zn140 1.969 . S
O156 C159 1.258 . S
O157 Zn141 2.024 . S
O157 C144 1.058 . S
C158 O147 1.260 . S
C158 O148 1.258 . S
C159 O155 1.260 . S
C159 O156 1.258 . S
Zn160 O166 1.969 1_556 S
Zn160 O167 1.965 . S
Zn160 O171 2.024 . S
Zn160 O176 1.969 . S
Zn161 O168 1.969 . S
Zn161 O174 1.969 . S
Zn161 O175 1.965 . S
Zn161 O177 2.024 . S
C162 O163 1.229 1_556 S
C162 O171 1.058 . S
O163 C162 1.229 1_554 S
C164 O165 1.229 . S
C164 O177 1.058 . S
O165 C164 1.229 . S
O166 Zn160 1.969 1_554 S
O166 C169 1.267 . S
O167 Zn160 1.965 . S
O167 C178 1.260 . S
O168 Zn161 1.969 . S
O168 C178 1.258 . S
C169 O166 1.267 . S
C169 O170 1.228 . S
O170 C169 1.228 . S
O171 Zn160 2.024 . S
O171 C162 1.058 . S
C172 O173 1.228 . S
C172 O174 1.267 . S
O173 C172 1.228 . S
O174 Zn161 1.969 . S
O174 C172 1.267 . S
O175 Zn161 1.965 . S
O175 C179 1.260 . S
O176 Zn160 1.969 . S
O176 C179 1.258 . S
O177 Zn161 2.024 . S
O177 C164 1.058 . S
C178 O167 1.260 . S
C178 O168 1.258 . S
C179 O175 1.260 . S
C179 O176 1.258 . S
Zn180 O186 1.969 . S
Zn180 O187 1.965 . S
Zn180 O191 2.024 . S
Zn180 O196 1.969 . S
Zn181 O188 1.969 . S
Zn181 O194 1.969 . S
Zn181 O195 1.965 . S
Zn181 O197 2.024 . S
C182 O183 1.229 . S
C182 O191 1.058 . S
O183 C182 1.229 . S
C184 O185 1.229 . S
C184 O197 1.058 . S
O185 C184 1.229 . S
O186 Zn180 1.969 . S
O186 C189 1.267 . S
O187 Zn180 1.965 . S
O187 C198 1.260 . S
O188 Zn181 1.969 . S
O188 C198 1.258 . S
C189 O186 1.267 . S
C189 O190 1.228 . S
O190 C189 1.228 . S
O191 Zn180 2.024 . S
O191 C182 1.058 . S
C192 O193 1.228 . S
C192 O194 1.267 . S
O193 C192 1.228 . S
O194 Zn181 1.969 . S
O194 C192 1.267 . S
O195 Zn181 1.965 . S
O195 C199 1.260 . S
O196 Zn180 1.969 . S
O196 C199 1.258 . S
O197 Zn181 2.024 . S
O197 C184 1.058 . S
C198 O187 1.260 . S
C198 O188 1.258 . S
C199 O195 1.260 . S
C199 O196 1.258 . S
Zn200 O206 1.969 . S
Zn200 O207 1.965 . S
Zn200 O211 2.024 . S
Zn200 O216 1.969 . S
Zn201 O208 1.969 . S
Zn201 O214 1.969 . S
Zn201 O215 1.965 . S
Zn201 O217 2.024 . S
C202 O203 1.229 . S
C202 O211 1.058 . S
O203 C202 1.229 . S
C204 O205 1.229 . S
C204 O217 1.058 . S
O205 C204 1.229 . S
O206 Zn200 1.969 . S
O206 C209 1.267 . S
O207 Zn200 1.965 . S
O207 C218 1.260 . S
O208 Zn201 1.969 . S
O208 C218 1.258 . S
C209 O206 1.267 . S
C209 O210 1.228 . S
O210 C209 1.228 . S
O211 Zn200 2.024 . S
O211 C202 1.058 . S
C212 O213 1.228 . S
C212 O214 1.267 . S
O213 C212 1.228 . S
O214 Zn201 1.969 . S
O214 C212 1.267 . S
O215 Zn201 1.965 . S
O215 C219 1.260 . S
O216 Zn200 1.969 . S
O216 C219 1.258 . S
O217 Zn201 2.024 . S
O217 C204 1.058 . S
C218 O207 1.260 . S
C218 O208 1.258 . S
C219 O215 1.260 . S
C219 O216 1.258 . S
Zn220 O226 1.969 . S
Zn220 O227 1.965 . S
Zn220 O231 2.024 . S
Zn220 O236 1.969 . S
Zn221 O228 1.969 1_556 S
Zn221 O234 1.969 . S
Zn221 O235 1.965 1_556 S
Zn221 O237 2.024 1_556 S
C222 O223 1.229 . S
C222 O231 1.058 . S
O223 C222 1.229 . S
C224 O225 1.229 . S
C224 O237 1.058 1_556 S
O225 C224 1.229 . S
O226 Zn220 1.969 . S
O226 C229 1.267 . S
O227 Zn220 1.965 . S
O227 C238 1.260 . S
O228 Zn221 1.969 1_554 S
O228 C238 1.258 . S
C229 O226 1.267 . S
C229 O230 1.228 . S
O230 C229 1.228 . S
O231 Zn220 2.024 . S
O231 C222 1.058 . S
C232 O233 1.228 . S
C232 O234 1.267 . S
O233 C232 1.228 . S
O234 Zn221 1.969 . S
O234 C232 1.267 . S
O235 Zn221 1.965 1_554 S
O235 C239 1.260 . S
O236 Zn220 1.969 . S
O236 C239 1.258 . S
O237 Zn221 2.024 1_554 S
O237 C224 1.058 1_554 S
C238 O227 1.260 . S
C238 O228 1.258 . S
C239 O235 1.260 . S
C239 O236 1.258 . S
Zn240 O246 1.969 . S
Zn240 O247 1.965 . S
Zn240 O251 2.024 . S
Zn240 O256 1.969 . S
Zn241 O248 1.969 1_556 S
Zn241 O254 1.969 . S
Zn241 O255 1.965 . S
Zn241 O257 2.024 . S
C242 O243 1.229 . S
C242 O251 1.058 . S
O243 C242 1.229 . S
C244 O245 1.229 . S
C244 O257 1.058 . S
O245 C244 1.229 . S
O246 Zn240 1.969 . S
O246 C249 1.267 . S
O247 Zn240 1.965 . S
O247 C258 1.260 . S
O248 Zn241 1.969 1_554 S
O248 C258 1.258 . S
C249 O246 1.267 . S
C249 O250 1.228 . S
O250 C249 1.228 . S
O251 Zn240 2.024 . S
O251 C242 1.058 . S
C252 O253 1.228 . S
C252 O254 1.267 . S
O253 C252 1.228 . S
O254 Zn241 1.969 . S
O254 C252 1.267 . S
O255 Zn241 1.965 . S
O255 C259 1.260 1_556 S
O256 Zn240 1.969 . S
O256 C259 1.258 . S
O257 Zn241 2.024 . S
O257 C244 1.058 . S
C258 O247 1.260 . S
C258 O248 1.258 . S
C259 O255 1.260 1_554 S
C259 O256 1.258 . S
Zn260 O266 1.969 1_556 S
Zn260 O267 1.965 . S
Zn260 O271 2.024 . S
Zn260 O276 1.969 . S
Zn261 O268 1.969 . S
Zn261 O274 1.969 . S
Zn261 O275 1.965 . S
Zn261 O277 2.024 . S
C262 O263 1.229 1_556 S
C262 O271 1.058 . S
O263 C262 1.229 1_554 S
C264 O265 1.229 . S
C264 O277 1.058 . S
O265 C264 1.229 . S
O266 Zn260 1.969 1_554 S
O266 C269 1.267 . S
O267 Zn260 1.965 . S
O267 C278 1.260 . S
O268 Zn261 1.969 . S
O268 C278 1.258 . S
C269 O266 1.267 . S
C269 O270 1.228 . S
O270 C269 1.228 . S
O271 Zn260 2.024 . S
O271 C262 1.058 . S
C272 O273 1.228 . S
C272 O274 1.267 . S
O273 C272 1.228 . S
O274 Zn261 1.969 . S
O274 C272 1.267 . S
O275 Zn261 1.965 . S
O275 C279 1.260 . S
O276 Zn260 1.969 . S
O276 C279 1.258 . S
O277 Zn261 2.024 . S
O277 C264 1.058 . S
C278 O267 1.260 . S
C278 O268 1.258 . S
C279 O275 1.260 . S
C279 O276 1.258 . S
Zn280 O286 1.969 . S
Zn280 O287 1.965 . S
Zn280 O291 2.024 . S
Zn280 O296 1.969 . S
Zn281 O288 1.969 . S
Zn281 O294 1.969 . S
Zn281 O295 1.965 . S
Zn281 O297 2.024 . S
C282 O283 1.229 . S
C282 O291 1.058 . S
O283 C282 1.229 . S
C284 O285 1.229 . S
C284 O297 1.058 . S
O285 C284 1.229 . S
O286 Zn280 1.969 . S
O286 C289 1.267 . S
O287 Zn280 1.965 . S
O287 C298 1.260 . S
O288 Zn281 1.969 . S
O288 C298 1.258 . S
C289 O286 1.267 . S
C289 O290 1.228 . S
O290 C289 1.228 . S
O291 Zn280 2.024 . S
O291 C282 1.058 . S
C292 O293 1.228 . S
C292 O294 1.267 . S
O293 C292 1.228 . S
O294 Zn281 1.969 . S
O294 C292 1.267 . S
O295 Zn281 1.965 . S
O295 C299 1.260 . S
O296 Zn280 1.969 . S
O296 C299 1.258 . S
O297 Zn281 2.024 . S
O297 C284 1.058 . S
C298 O287 1.260 . S
C298 O288 1.258 . S
C299 O295 1.260 . S
C299 O296 1.258 . S
Zn300 O306 1.969 . S
Zn300 O307 1.965 . S
Zn300 O311 2.024 . S
Zn300 O316 1.969 . S
Zn301 O308 1.969 . S
Zn301 O314 1.969 . S
Zn301 O315 1.965 . S
Zn301 O317 2.024 . S
C302 O303 1.229 . S
C302 O311 1.058 . S
O303 C302 1.229 . S
C304 O305 1.229 . S
C304 O317 1.058 . S
O305 C304 1.229 . S
O306 Zn300 1.969 . S
O306 C309 1.267 1_554 S
O307 Zn300 1.965 . S
O307 C318 1.260 . S
O308 Zn301 1.969 . S
O308 C318 1.258 . S
C309 O306 1.267 1_556 S
C309 O310 1.228 1_556 S
O310 C309 1.228 1_554 S
O311 Zn300 2.024 . S
O311 C302 1.058 . S
C312 O313 1.228 . S
C312 O314 1.267 . S
O313 C312 1.228 . S
O314 Zn301 1.969 . S
O314 C312 1.267 . S
O315 Zn301 1.965 . S
O315 C319 1.260 . S
O316 Zn300 1.969 . S
O316 C319 1.258 . S
O317 Zn301 2.024 . S
O317 C304 1.058 . S
C318 O307 1.260 . S
C318 O308 1.258 . S
C319 O315 1.260 . S
C319 O316 1.258 . S
C320 C321 1.387 . S
C320 H324 0.950 . S
C320 C329 1.390 . S
C321 C320 1.387 . S
C321 C323 1.387 . S
H322 C329 0.950 . S
C323 C321 1.387 . S
C323 C325 1.390 . S
C323 H327 0.950 . S
H324 C320 0.950 . S
C325 C323 1.390 . S
C325 C326 1.387 . S
C325 H328 0.950 . S
C326 C325 1.387 . S
C326 C329 1.387 . S
H327 C323 0.950 . S
H328 C325 0.950 . S
C329 C320 1.390 . S
C329 H322 0.950 . S
C329 C326 1.387 . S
C330 C331 1.387 . S
C330 H334 0.950 . S
C330 C339 1.390 . S
C331 C330 1.387 . S
C331 C333 1.387 . S
H332 C339 0.950 . S
C333 C331 1.387 . S
C333 C335 1.390 . S
C333 H337 0.950 . S
H334 C330 0.950 . S
C335 C333 1.390 . S
C335 C336 1.387 . S
C335 H338 0.950 . S
C336 C335 1.387 . S
C336 C339 1.387 . S
H337 C333 0.950 . S
H338 C335 0.950 . S
C339 C330 1.390 . S
C339 H332 0.950 . S
C339 C336 1.387 . S
C340 C341 1.387 . S
C340 H344 0.950 . S
C340 C349 1.390 . S
C341 C340 1.387 . S
C341 C343 1.387 . S
H342 C349 0.950 . S
C343 C341 1.387 . S
C343 C345 1.390 . S
C343 H347 0.950 . S
H344 C340 0.950 . S
C345 C343 1.390 . S
C345 C346 1.387 . S
C345 H348 0.950 . S
C346 C345 1.387 . S
C346 C349 1.387 . S
H347 C343 0.950 . S
H348 C345 0.950 . S
C349 C340 1.390 . S
C349 H342 0.950 . S
C349 C346 1.387 . S
C350 C351 1.387 . S
C350 H354 0.950 . S
C350 C359 1.390 . S
C351 C350 1.387 . S
C351 C353 1.387 . S
H352 C359 0.950 . S
C353 C351 1.387 . S
C353 C355 1.390 . S
C353 H357 0.950 . S
H354 C350 0.950 . S
C355 C353 1.390 . S
C355 C356 1.387 . S
C355 H358 0.950 . S
C356 C355 1.387 . S
C356 C359 1.387 . S
H357 C353 0.950 . S
H358 C355 0.950 . S
C359 C350 1.390 . S
C359 H352 0.950 . S
C359 C356 1.387 . S
C360 C361 1.387 . S
C360 H364 0.950 . S
C360 C369 1.390 . S
C361 C360 1.387 . S
C361 C363 1.387 . S
H362 C369 0.950 . S
C363 C361 1.387 . S
C363 C365 1.390 . S
C363 H367 0.950 . S
H364 C360 0.950 . S
C365 C363 1.390 . S
C365 C366 1.387 . S
C365 H368 0.950 . S
C366 C365 1.387 . S
C366 C369 1.387 . S
H367 C363 0.950 . S
H368 C365 0.950 . S
C369 C360 1.390 . S
C369 H362 0.950 . S
C369 C366 1.387 . S
C370 C371 1.387 . S
C370 H374 0.950 . S
C370 C379 1.390 . S
C371 C370 1.387 . S
C371 C373 1.387 . S
H372 C379 0.950 . S
C373 C371 1.387 . S
C373 C375 1.390 . S
C373 H377 0.950 . S
H374 C370 0.950 . S
C375 C373 1.390 . S
C375 C376 1.387 . S
C375 H378 0.950 . S
C376 C375 1.387 . S
C376 C379 1.387 . S
H377 C373 0.950 . S
H378 C375 0.950 . S
C379 C370 1.390 . S
C379 H372 0.950 . S
C379 C376 1.387 . S
C380 C381 1.387 . S
C380 H384 0.950 . S
C380 C389 1.390 . S
C381 C380 1.387 . S
C381 C383 1.387 . S
H382 C389 0.950 1_554 S
C383 C381 1.387 . S
C383 C385 1.390 . S
C383 H387 0.950 . S
H384 C380 0.950 . S
C385 C383 1.390 . S
C385 C386 1.387 . S
C385 H388 0.950 . S
C386 C385 1.387 . S
C386 C389 1.387 . S
H387 C383 0.950 . S
H388 C385 0.950 . S
C389 C380 1.390 . S
C389 H382 0.950 1_556 S
C389 C386 1.387 . S
C390 C391 1.387 . S
C390 H394 0.950 . S
C390 C399 1.390 . S
C391 C390 1.387 . S
C391 C393 1.387 . S
H392 C399 0.950 . S
C393 C391 1.387 . S
C393 C395 1.390 . S
C393 H397 0.950 . S
H394 C390 0.950 . S
C395 C393 1.390 . S
C395 C396 1.387 . S
C395 H398 0.950 . S
C396 C395 1.387 . S
C396 C399 1.387 . S
H397 C393 0.950 . S
H398 C395 0.950 . S
C399 C390 1.390 . S
C399 H392 0.950 . S
C399 C396 1.387 . S
C400 C401 1.387 . S
C400 H404 0.950 . S
C400 C409 1.390 . S
C401 C400 1.387 . S
C401 C403 1.387 . S
H402 C409 0.950 . S
C403 C401 1.387 . S
C403 C405 1.390 . S
C403 H407 0.950 . S
H404 C400 0.950 . S
C405 C403 1.390 . S
C405 C406 1.387 . S
C405 H408 0.950 . S
C406 C405 1.387 . S
C406 C409 1.387 . S
H407 C403 0.950 . S
H408 C405 0.950 . S
C409 C400 1.390 . S
C409 H402 0.950 . S
C409 C406 1.387 . S
C410 C411 1.387 . S
C410 H414 0.950 . S
C410 C419 1.390 . S
C411 C410 1.387 . S
C411 C413 1.387 . S
H412 C419 0.950 . S
C413 C411 1.387 . S
C413 C415 1.390 . S
C413 H417 0.950 . S
H414 C410 0.950 . S
C415 C413 1.390 . S
C415 C416 1.387 . S
C415 H418 0.950 . S
C416 C415 1.387 . S
C416 C419 1.387 . S
H417 C413 0.950 . S
H418 C415 0.950 . S
C419 C410 1.390 . S
C419 H412 0.950 . S
C419 C416 1.387 . S
C420 C421 1.387 . S
C420 H424 0.950 . S
C420 C429 1.390 . S
C421 C420 1.387 . S
C421 C423 1.387 . S
H422 C429 0.950 . S
C423 C421 1.387 . S
C423 C425 1.390 . S
C423 H427 0.950 . S
H424 C420 0.950 . S
C425 C423 1.390 . S
C425 C426 1.387 . S
C425 H428 0.950 . S
C426 C425 1.387 . S
C426 C429 1.387 . S
H427 C423 0.950 . S
H428 C425 0.950 . S
C429 C420 1.390 . S
C429 H422 0.950 . S
C429 C426 1.387 . S
C430 C431 1.387 . S
C430 H434 0.950 . S
C430 C439 1.390 . S
C431 C430 1.387 . S
C431 C433 1.387 . S
H432 C439 0.950 . S
C433 C431 1.387 . S
C433 C435 1.390 . S
C433 H437 0.950 . S
H434 C430 0.950 . S
C435 C433 1.390 . S
C435 C436 1.387 . S
C435 H438 0.950 . S
C436 C435 1.387 . S
C436 C439 1.387 . S
H437 C433 0.950 . S
H438 C435 0.950 . S
C439 C430 1.390 . S
C439 H432 0.950 . S
C439 C436 1.387 . S
C440 C441 1.387 . S
C440 H444 0.950 . S
C440 C449 1.390 . S
C441 C440 1.387 . S
C441 C443 1.387 . S
H442 C449 0.950 . S
C443 C441 1.387 . S
C443 C445 1.390 . S
C443 H447 0.950 . S
H444 C440 0.950 . S
C445 C443 1.390 . S
C445 C446 1.387 . S
C445 H448 0.950 . S
C446 C445 1.387 . S
C446 C449 1.387 . S
H447 C443 0.950 . S
H448 C445 0.950 . S
C449 C440 1.390 . S
C449 H442 0.950 . S
C449 C446 1.387 . S
C450 C451 1.387 . S
C450 H454 0.950 . S
C450 C459 1.390 . S
C451 C450 1.387 . S
C451 C453 1.387 . S
H452 C459 0.950 . S
C453 C451 1.387 . S
C453 C455 1.390 . S
C453 H457 0.950 . S
H454 C450 0.950 . S
C455 C453 1.390 . S
C455 C456 1.387 . S
C455 H458 0.950 . S
C456 C455 1.387 . S
C456 C459 1.387 . S
H457 C453 0.950 . S
H458 C455 0.950 . S
C459 C450 1.390 . S
C459 H452 0.950 . S
C459 C456 1.387 . S
C460 C461 1.387 . S
C460 H464 0.950 . S
C460 C469 1.390 . S
C461 C460 1.387 . S
C461 C463 1.387 . S
H462 C469 0.950 . S
C463 C461 1.387 . S
C463 C465 1.401 . S
C463 H467 0.950 . S
H464 C460 0.950 . S
C465 C463 1.401 . S
C465 C466 1.385 1_554 S
C465 H468 0.941 1_554 S
C466 C465 1.385 1_556 S
C466 C469 1.387 1_556 S
H467 C463 0.950 . S
H468 C465 0.941 1_556 S
C469 C460 1.390 . S
C469 H462 0.950 . S
C469 C466 1.387 1_554 S
C470 C471 1.387 . S
C470 H474 0.950 . S
C470 C479 1.390 . S
C471 C470 1.387 . S
C471 C473 1.387 . S
H472 C479 0.950 . S
C473 C471 1.387 . S
C473 C475 1.390 . S
C473 H477 0.950 . S
H474 C470 0.950 . S
C475 C473 1.390 . S
C475 C476 1.387 . S
C475 H478 0.950 . S
C476 C475 1.387 . S
C476 C479 1.387 . S
H477 C473 0.950 . S
H478 C475 0.950 . S
C479 C470 1.390 . S
C479 H472 0.950 . S
C479 C476 1.387 . S
C480 C481 1.387 . S
C480 H484 0.950 . S
C480 C489 1.390 . S
C481 C480 1.387 . S
C481 C483 1.387 . S
H482 C489 0.950 . S
C483 C481 1.387 . S
C483 C485 1.390 . S
C483 H487 0.950 . S
H484 C480 0.950 . S
C485 C483 1.390 . S
C485 C486 1.387 . S
C485 H488 0.950 . S
C486 C485 1.387 . S
C486 C489 1.387 . S
H487 C483 0.950 . S
H488 C485 0.950 . S
C489 C480 1.390 . S
C489 H482 0.950 . S
C489 C486 1.387 . S
C490 C491 1.387 . S
C490 H494 0.950 . S
C490 C499 1.390 . S
C491 C490 1.387 . S
C491 C493 1.387 . S
H492 C499 0.950 . S
C493 C491 1.387 . S
C493 C495 1.390 . S
C493 H497 0.950 . S
H494 C490 0.950 . S
C495 C493 1.390 . S
C495 C496 1.387 . S
C495 H498 0.950 . S
C496 C495 1.387 . S
C496 C499 1.387 . S
H497 C493 0.950 . S
H498 C495 0.950 . S
C499 C490 1.390 . S
C499 H492 0.950 . S
C499 C496 1.387 . S
C500 C501 1.387 . S
C500 H504 0.950 . S
C500 C509 1.390 . S
C501 C500 1.387 . S
C501 C503 1.387 . S
H502 C509 0.950 . S
C503 C501 1.387 . S
C503 C505 1.390 . S
C503 H507 0.950 . S
H504 C500 0.950 . S
C505 C503 1.390 . S
C505 C506 1.387 . S
C505 H508 0.950 . S
C506 C505 1.387 . S
C506 C509 1.387 . S
H507 C503 0.950 . S
H508 C505 0.950 . S
C509 C500 1.390 . S
C509 H502 0.950 . S
C509 C506 1.387 . S
C510 C511 1.387 . S
C510 H514 0.950 . S
C510 C519 1.390 . S
C511 C510 1.387 . S
C511 C513 1.387 1_556 S
H512 C519 0.950 1_455 S
C513 C511 1.387 1_554 S
C513 C515 1.390 . S
C513 H517 0.950 . S
H514 C510 0.950 . S
C515 C513 1.390 . S
C515 C516 1.387 1_654 S
C515 H518 0.950 1_655 S
C516 C515 1.387 1_456 S
C516 C519 1.387 1_455 S
H517 C513 0.950 . S
H518 C515 0.950 1_455 S
C519 C510 1.390 . S
C519 H512 0.950 1_655 S
C519 C516 1.387 1_655 S
C520 C521 1.387 . S
C520 H524 0.950 . S
C520 C529 1.390 . S
C521 C520 1.387 . S
C521 C523 1.387 . S
H522 C529 0.950 . S
C523 C521 1.387 . S
C523 C525 1.390 . S
C523 H527 0.950 . S
H524 C520 0.950 . S
C525 C523 1.390 . S
C525 C526 1.387 . S
C525 H528 0.950 . S
C526 C525 1.387 . S
C526 C529 1.387 . S
H527 C523 0.950 . S
H528 C525 0.950 . S
C529 C520 1.390 . S
C529 H522 0.950 . S
C529 C526 1.387 . S
C530 C531 1.387 . S
C530 H534 0.950 1_554 S
C530 C539 1.390 . S
C531 C530 1.387 . S
C531 C533 1.387 . S
H532 C539 0.952 1_656 S
C533 C531 1.387 . S
C533 C535 1.390 . S
C533 H537 0.950 . S
H534 C530 0.950 1_556 S
C535 C533 1.390 . S
C535 C536 1.387 1_455 S
C535 H538 0.950 . S
C536 C535 1.387 1_655 S
C536 C539 1.387 1_655 S
H537 C533 0.950 . S
H538 C535 0.950 . S
C539 C530 1.390 . S
C539 H532 0.952 1_454 S
C539 C536 1.387 1_455 S
C540 C541 1.387 . S
C540 H544 0.950 . S
C540 C549 1.390 . S
C541 C540 1.387 . S
C541 C543 1.387 . S
H542 C549 0.950 . S
C543 C541 1.387 . S
C543 C545 1.390 . S
C543 H547 0.950 . S
H544 C540 0.950 . S
C545 C543 1.390 . S
C545 C546 1.387 . S
C545 H548 0.950 . S
C546 C545 1.387 . S
C546 C549 1.387 . S
H547 C543 0.950 . S
H548 C545 0.950 . S
C549 C540 1.390 . S
C549 H542 0.950 . S
C549 C546 1.387 . S
C550 C551 1.387 . S
C550 H554 0.950 . S
C550 C559 1.390 . S
C551 C550 1.387 . S
C551 C553 1.387 . S
H552 C559 0.950 . S
C553 C551 1.387 . S
C553 C555 1.390 . S
C553 H557 0.950 . S
H554 C550 0.950 . S
C555 C553 1.390 . S
C555 C556 1.387 . S
C555 H558 0.950 . S
C556 C555 1.387 . S
C556 C559 1.387 . S
H557 C553 0.950 . S
H558 C555 0.950 . S
C559 C550 1.390 . S
C559 H552 0.950 . S
C559 C556 1.387 . S
C560 C561 1.387 . S
C560 H564 0.950 . S
C560 C569 1.390 . S
C561 C560 1.387 . S
C561 C563 1.387 . S
H562 C569 0.950 . S
C563 C561 1.387 . S
C563 C565 1.390 . S
C563 H567 0.950 . S
H564 C560 0.950 . S
C565 C563 1.390 . S
C565 C566 1.387 . S
C565 H568 0.950 . S
C566 C565 1.387 . S
C566 C569 1.387 . S
H567 C563 0.950 . S
H568 C565 0.950 . S
C569 C560 1.390 . S
C569 H562 0.950 . S
C569 C566 1.387 . S
C570 C571 1.387 . S
C570 H574 0.950 . S
C570 C579 1.390 . S
C571 C570 1.387 . S
C571 C573 1.387 . S
H572 C579 0.950 . S
C573 C571 1.387 . S
C573 C575 1.390 . S
C573 H577 0.950 . S
H574 C570 0.950 . S
C575 C573 1.390 . S
C575 C576 1.387 . S
C575 H578 0.950 . S
C576 C575 1.387 . S
C576 C579 1.387 . S
H577 C573 0.950 . S
H578 C575 0.950 . S
C579 C570 1.390 . S
C579 H572 0.950 . S
C579 C576 1.387 . S
C580 C581 1.387 . S
C580 H584 0.950 . S
C580 C589 1.390 . S
C581 C580 1.387 . S
C581 C583 1.387 . S
H582 C589 0.950 . S
C583 C581 1.387 . S
C583 C585 1.390 . S
C583 H587 0.950 . S
H584 C580 0.950 . S
C585 C583 1.390 . S
C585 C586 1.387 . S
C585 H588 0.950 . S
C586 C585 1.387 . S
C586 C589 1.387 . S
H587 C583 0.950 . S
H588 C585 0.950 . S
C589 C580 1.390 . S
C589 H582 0.950 . S
C589 C586 1.387 . S
C590 C591 1.387 . S
C590 H594 0.950 . S
C590 C599 1.390 . S
C591 C590 1.387 . S
C591 C593 1.387 . S
H592 C599 0.950 . S
C593 C591 1.387 . S
C593 C595 1.390 . S
C593 H597 0.950 . S
H594 C590 0.950 . S
C595 C593 1.390 . S
C595 C596 1.387 . S
C595 H598 0.950 . S
C596 C595 1.387 . S
C596 C599 1.387 . S
H597 C593 0.950 . S
H598 C595 0.950 . S
C599 C590 1.390 . S
C599 H592 0.950 . S
C599 C596 1.387 . S
C600 C601 1.387 1_455 S
C600 H604 0.950 1_455 S
C600 C609 1.390 . S
C601 C600 1.387 1_655 S
C601 C603 1.387 1_655 S
H602 C609 0.950 . S
C603 C601 1.387 1_455 S
C603 C605 1.390 . S
C603 H607 0.950 1_456 S
H604 C600 0.950 1_655 S
C605 C603 1.390 . S
C605 C606 1.387 . S
C605 H608 0.950 1_556 S
C606 C605 1.387 . S
C606 C609 1.387 . S
H607 C603 0.950 1_654 S
H608 C605 0.950 1_554 S
C609 C600 1.390 . S
C609 H602 0.950 . S
C609 C606 1.387 . S
C610 C611 1.387 . S
C610 H614 0.950 . S
C610 C619 1.390 . S
C611 C610 1.387 . S
C611 C613 1.387 . S
H612 C619 0.950 . S
C613 C611 1.387 . S
C613 C615 1.390 . S
C613 H617 0.950 . S
H614 C610 0.950 . S
C615 C613 1.390 . S
C615 C616 1.387 . S
C615 H618 0.950 . S
C616 C615 1.387 . S
C616 C619 1.387 . S
H617 C613 0.950 . S
H618 C615 0.950 . S
C619 C610 1.390 . S
C619 H612 0.950 . S
C619 C616 1.387 . S
C620 C621 1.387 . S
C620 H624 0.950 . S
C620 C629 1.390 . S
C621 C620 1.387 . S
C621 C623 1.387 . S
H622 C629 0.950 . S
C623 C621 1.387 . S
C623 C625 1.390 . S
C623 H627 0.950 . S
H624 C620 0.950 . S
C625 C623 1.390 . S
C625 C626 1.387 . S
C625 H628 0.950 . S
C626 C625 1.387 . S
C626 C629 1.387 . S
H627 C623 0.950 . S
H628 C625 0.950 . S
C629 C620 1.390 . S
C629 H622 0.950 . S
C629 C626 1.387 . S
C630 C631 1.387 1_655 S
C630 H634 0.950 1_655 S
C630 C639 1.390 . S
C631 C630 1.387 1_455 S
C631 C633 1.387 1_455 S
H632 C639 0.950 . S
C633 C631 1.387 1_655 S
C633 C635 1.390 . S
C633 H637 0.950 1_655 S
H634 C630 0.950 1_455 S
C635 C633 1.390 . S
C635 C636 1.387 . S
C635 H638 0.950 . S
C636 C635 1.387 . S
C636 C639 1.387 . S
H637 C633 0.950 1_455 S
H638 C635 0.950 . S
C639 C630 1.390 . S
C639 H632 0.950 . S
C639 C636 1.387 . S
C640 C641 1.387 . S
C640 H644 0.950 . S
C640 C649 1.390 . S
C641 C640 1.387 . S
C641 C643 1.387 . S
H642 C649 0.950 . S
C643 C641 1.387 . S
C643 C645 1.390 . S
C643 H647 0.950 . S
H644 C640 0.950 . S
C645 C643 1.390 . S
C645 C646 1.387 . S
C645 H648 0.950 . S
C646 C645 1.387 . S
C646 C649 1.387 . S
H647 C643 0.950 . S
H648 C645 0.950 . S
C649 C640 1.390 . S
C649 H642 0.950 . S
C649 C646 1.387 . S
C650 C651 1.387 . S
C650 H654 0.950 . S
C650 C659 1.390 . S
C651 C650 1.387 . S
C651 C653 1.387 . S
H652 C659 0.950 . S
C653 C651 1.387 . S
C653 C655 1.390 . S
C653 H657 0.950 . S
H654 C650 0.950 . S
C655 C653 1.390 . S
C655 C656 1.387 . S
C655 H658 0.950 . S
C656 C655 1.387 . S
C656 C659 1.387 . S
H657 C653 0.950 . S
H658 C655 0.950 . S
C659 C650 1.390 . S
C659 H652 0.950 . S
C659 C656 1.387 . S
C660 C661 1.387 . S
C660 H664 0.950 . S
C660 C669 1.390 . S
C661 C660 1.387 . S
C661 C663 1.387 . S
H662 C669 0.950 . S
C663 C661 1.387 . S
C663 C665 1.390 . S
C663 H667 0.950 . S
H664 C660 0.950 . S
C665 C663 1.390 . S
C665 C666 1.387 . S
C665 H668 0.950 . S
C666 C665 1.387 . S
C666 C669 1.387 . S
H667 C663 0.950 . S
H668 C665 0.950 . S
C669 C660 1.390 . S
C669 H662 0.950 . S
C669 C666 1.387 . S
C670 C671 1.387 . S
C670 H674 0.950 . S
C670 C679 1.390 . S
C671 C670 1.387 . S
C671 C673 1.387 . S
H672 C679 0.950 . S
C673 C671 1.387 . S
C673 C675 1.390 . S
C673 H677 0.950 . S
H674 C670 0.950 . S
C675 C673 1.390 . S
C675 C676 1.387 . S
C675 H678 0.950 . S
C676 C675 1.387 . S
C676 C679 1.387 . S
H677 C673 0.950 . S
H678 C675 0.950 . S
C679 C670 1.390 . S
C679 H672 0.950 . S
C679 C676 1.387 . S
C680 C681 1.387 . S
C680 H684 0.950 1_556 S
C680 C689 1.390 . S
C681 C680 1.387 . S
C681 C683 1.387 . S
H682 C689 0.950 . S
C683 C681 1.387 . S
C683 C685 1.390 . S
C683 H687 0.950 . S
H684 C680 0.950 1_554 S
C685 C683 1.390 . S
C685 C686 1.387 . S
C685 H688 0.950 . S
C686 C685 1.387 . S
C686 C689 1.387 . S
H687 C683 0.950 . S
H688 C685 0.950 . S
C689 C680 1.390 . S
C689 H682 0.950 . S
C689 C686 1.387 . S
C690 C691 1.387 . S
C690 H694 0.950 . S
C690 C699 1.390 . S
C691 C690 1.387 . S
C691 C693 1.387 . S
H692 C699 0.950 . S
C693 C691 1.387 . S
C693 C695 1.390 . S
C693 H697 0.950 . S
H694 C690 0.950 . S
C695 C693 1.390 . S
C695 C696 1.387 . S
C695 H698 0.950 . S
C696 C695 1.387 . S
C696 C699 1.387 . S
H697 C693 0.950 . S
H698 C695 0.950 . S
C699 C690 1.390 . S
C699 H692 0.950 . S
C699 C696 1.387 . S
C700 C701 1.387 . S
C700 H704 0.950 . S
C700 C709 1.390 . S
C701 C700 1.387 . S
C701 C703 1.387 . S
H702 C709 0.950 . S
C703 C701 1.387 . S
C703 C705 1.390 . S
C703 H707 0.950 . S
H704 C700 0.950 . S
C705 C703 1.390 . S
C705 C706 1.387 . S
C705 H708 0.950 . S
C706 C705 1.387 . S
C706 C709 1.387 . S
H707 C703 0.950 . S
H708 C705 0.950 . S
C709 C700 1.390 . S
C709 H702 0.950 . S
C709 C706 1.387 . S
C710 C711 1.387 . S
C710 H714 0.950 . S
C710 C719 1.390 . S
C711 C710 1.387 . S
C711 C713 1.387 . S
H712 C719 0.950 . S
C713 C711 1.387 . S
C713 C715 1.390 . S
C713 H717 0.950 . S
H714 C710 0.950 . S
C715 C713 1.390 . S
C715 C716 1.387 . S
C715 H718 0.950 . S
C716 C715 1.387 . S
C716 C719 1.387 . S
H717 C713 0.950 . S
H718 C715 0.950 . S
C719 C710 1.390 . S
C719 H712 0.950 . S
C719 C716 1.387 . S
C720 C721 1.387 1_545 S
C720 H724 0.950 . S
C720 C729 1.390 . S
C721 C720 1.387 1_565 S
C721 C723 1.397 . S
H722 C729 0.950 . S
C723 C721 1.397 . S
C723 C725 1.365 1_565 S
C723 H727 0.967 . S
H724 C720 0.950 . S
C725 C723 1.365 1_545 S
C725 C726 1.387 . S
C725 H728 0.950 . S
C726 C725 1.387 . S
C726 C729 1.387 . S
H727 C723 0.967 . S
H728 C725 0.950 . S
C729 C720 1.390 . S
C729 H722 0.950 . S
C729 C726 1.387 . S
C730 C731 1.387 . S
C730 H734 0.950 . S
C730 C739 1.390 . S
C731 C730 1.387 . S
C731 C733 1.387 . S
H732 C739 0.950 . S
C733 C731 1.387 . S
C733 C735 1.390 . S
C733 H737 0.950 . S
H734 C730 0.950 . S
C735 C733 1.390 . S
C735 C736 1.387 . S
C735 H738 0.950 . S
C736 C735 1.387 . S
C736 C739 1.387 . S
H737 C733 0.950 . S
H738 C735 0.950 . S
C739 C730 1.390 . S
C739 H732 0.950 . S
C739 C736 1.387 . S
C740 C741 1.387 . S
C740 H744 0.950 . S
C740 C749 1.390 1_565 S
C741 C740 1.387 . S
C741 C743 1.387 . S
H742 C749 0.950 . S
C743 C741 1.387 . S
C743 C745 1.390 1_554 S
C743 H747 0.950 1_554 S
H744 C740 0.950 . S
C745 C743 1.390 1_556 S
C745 C746 1.387 1_566 S
C745 H748 0.950 . S
C746 C745 1.387 1_544 S
C746 C749 1.387 . S
H747 C743 0.950 1_556 S
H748 C745 0.950 . S
C749 C740 1.390 1_545 S
C749 H742 0.950 . S
C749 C746 1.387 . S
C750 C751 1.387 . S
C750 H754 0.950 . S
C750 C759 1.390 . S
C751 C750 1.387 . S
C751 C753 1.387 . S
H752 C759 0.950 . S
C753 C751 1.387 . S
C753 C755 1.390 . S
C753 H757 0.950 . S
H754 C750 0.950 . S
C755 C753 1.390 . S
C755 C756 1.387 . S
C755 H758 0.950 . S
C756 C755 1.387 . S
C756 C759 1.387 . S
H757 C753 0.950 . S
H758 C755 0.950 . S
C759 C750 1.390 . S
C759 H752 0.950 . S
C759 C756 1.387 . S
C760 C761 1.387 . S
C760 H764 0.950 . S
C760 C769 1.390 1_565 S
C761 C760 1.387 . S
C761 C763 1.387 . S
H762 C769 0.950 . S
C763 C761 1.387 . S
C763 C765 1.390 1_565 S
C763 H767 0.950 . S
H764 C760 0.950 . S
C765 C763 1.390 1_545 S
C765 C766 1.387 . S
C765 H768 0.950 . S
C766 C765 1.387 . S
C766 C769 1.387 . S
H767 C763 0.950 . S
H768 C765 0.950 . S
C769 C760 1.390 1_545 S
C769 H762 0.950 . S
C769 C766 1.387 . S
C770 C771 1.387 . S
C770 H774 0.950 . S
C770 C779 1.390 . S
C771 C770 1.387 . S
C771 C773 1.387 . S
H772 C779 0.950 . S
C773 C771 1.387 . S
C773 C775 1.390 . S
C773 H777 0.950 . S
H774 C770 0.950 . S
C775 C773 1.390 . S
C775 C776 1.387 . S
C775 H778 0.950 . S
C776 C775 1.387 . S
C776 C779 1.387 . S
H777 C773 0.950 . S
H778 C775 0.950 . S
C779 C770 1.390 . S
C779 H772 0.950 . S
C779 C776 1.387 . S
C780 C781 1.387 . S
C780 H784 0.950 . S
C780 C789 1.412 . S
C781 C780 1.387 . S
C781 C783 1.387 . S
H782 C789 0.936 1_565 S
C783 C781 1.387 . S
C783 C785 1.390 . S
C783 H787 0.950 . S
H784 C780 0.950 . S
C785 C783 1.390 . S
C785 C786 1.387 1_545 S
C785 H788 0.941 1_545 S
C786 C785 1.387 1_565 S
C786 C789 1.379 1_565 S
H787 C783 0.950 . S
H788 C785 0.941 1_565 S
C789 C780 1.412 . S
C789 H782 0.936 1_545 S
C789 C786 1.379 1_545 S
C790 C791 1.387 . S
C790 H794 0.950 . S
C790 C799 1.390 . S
C791 C790 1.387 . S
C791 C793 1.387 . S
H792 C799 0.950 . S
C793 C791 1.387 . S
C793 C795 1.390 . S
C793 H797 0.950 . S
H794 C790 0.950 . S
C795 C793 1.390 . S
C795 C796 1.387 . S
C795 H798 0.950 . S
C796 C795 1.387 . S
C796 C799 1.387 . S
H797 C793 0.950 . S
H798 C795 0.950 . S
C799 C790 1.390 . S
C799 H792 0.950 . S
C799 C796 1.387 . S
C321 C12 1.626 . S
C326 C9 1.626 . S
C331 C32 1.588 1_556 S
C336 C29 1.588 . S
C341 C52 1.571 . S
C346 C49 1.571 1_554 S
C351 C72 1.633 . S
C356 C69 1.633 . S
C361 C89 1.600 . S
C366 C92 1.600 . S
C371 C112 1.650 . S
C376 C109 1.650 . S
C381 C129 1.615 . S
C386 C132 1.615 1_556 S
C391 C149 1.632 1_554 S
C396 C152 1.632 . S
C401 C169 1.609 . S
C406 C172 1.609 . S
C411 C192 1.569 . S
C416 C189 1.569 1_554 S
C421 C212 1.607 1_556 S
C426 C209 1.607 . S
C431 C229 1.658 . S
C436 C232 1.658 . S
C441 C252 1.593 . S
C446 C249 1.593 . S
C451 C272 1.609 . S
C456 C269 1.609 . S
C461 C292 1.626 . S
C466 C289 1.626 . S
C471 C309 1.657 . S
C476 C312 1.657 . S
C481 C18 1.826 . S
C486 C222 1.808 . S
C491 C38 2.002 . S
C496 C319 2.027 . S
C501 C58 1.414 . S
C506 C182 1.412 . S
C511 C78 1.559 . S
C516 C262 1.550 . S
C521 C84 1.673 . S
C526 C279 1.681 . S
C531 C239 1.800 . S
C536 C104 1.793 . S
C541 C124 1.373 . S
C546 C302 1.428 . S
C551 C144 1.511 . S
C556 C199 1.530 . S
C561 C64 1.723 . S
C566 C179 1.730 . S
C571 C24 1.823 . S
C576 C219 1.811 . S
C581 C242 1.697 . S
C586 C118 1.706 . S
C591 C158 1.691 . S
C596 C282 1.687 . S
C601 C162 1.518 . S
C606 C98 1.525 . S
C611 C138 1.447 . S
C616 C202 1.460 . S
C621 C44 1.523 . S
C626 C299 1.534 . S
C631 C4 1.559 . S
C636 C259 1.566 . S
C641 C19 1.603 . S
C646 C82 1.528 . S
C651 C39 1.745 . S
C656 C102 1.673 . S
C661 C59 1.346 . S
C666 C122 1.249 . S
C671 C79 1.513 . S
C676 C142 1.434 . S
C681 C244 1.600 . S
C686 C178 1.678 . S
C691 C264 1.369 . S
C696 C198 1.427 . S
C701 C218 1.619 . S
C706 C284 1.535 . S
C711 C318 1.967 . S
C716 C238 1.952 . S
C721 C22 1.685 . S
C726 C159 1.814 . S
C731 C99 1.525 . S
C736 C42 1.443 . S
C741 C119 1.614 . S
C746 C62 1.546 . S
C751 C2 1.298 . S
C756 C139 1.365 . S
C761 C304 1.151 . S
C766 C184 1.169 . S
C771 C258 1.516 . S
C776 C204 1.434 . S
C781 C278 1.685 . S
C786 C224 1.611 . S
C791 C298 1.452 . S
C796 C164 1.376 . S
