# Generated by pormake.
# Topology zfn, (5)-cn, num edge types: 1
# Building blocks:
#     Node 0, Type 0, BuildingBlock: XOMCOT_clean_sbu_0, # of connection points: 5
#     Node 1, Type 0, BuildingBlock: XOMCOT_clean_sbu_0, # of connection points: 5
#     Node 2, Type 0, BuildingBlock: XOMCOT_clean_sbu_0, # of connection points: 5
#     Node 3, Type 0, BuildingBlock: XOMCOT_clean_sbu_0, # of connection points: 5
#     Node 4, Type 0, BuildingBlock: XOMCOT_clean_sbu_0, # of connection points: 5
#     Node 5, Type 0, BuildingBlock: XOMCOT_clean_sbu_0, # of connection points: 5
#     Node 6, Type 0, BuildingBlock: XOMCOT_clean_sbu_0, # of connection points: 5
#     Node 7, Type 0, BuildingBlock: XOMCOT_clean_sbu_0, # of connection points: 5
#     Node 8, Type 0, BuildingBlock: XOMCOT_clean_sbu_0, # of connection points: 5
#     Node 9, Type 0, BuildingBlock: XOMCOT_clean_sbu_0, # of connection points: 5
#     Node 10, Type 0, BuildingBlock: XOMCOT_clean_sbu_0, # of connection points: 5
#     Node 11, Type 0, BuildingBlock: XOMCOT_clean_sbu_0, # of connection points: 5
#     Node 12, Type 0, BuildingBlock: XOMCOT_clean_sbu_0, # of connection points: 5
#     Node 13, Type 0, BuildingBlock: XOMCOT_clean_sbu_0, # of connection points: 5
#     Node 14, Type 0, BuildingBlock: XOMCOT_clean_sbu_0, # of connection points: 5
#     Node 15, Type 0, BuildingBlock: XOMCOT_clean_sbu_0, # of connection points: 5
#     Edge 16, Type (0, 0), BuildingBlock: UVAHIK_clean_linker_0, # of connection points: 2
#     Edge 17, Type (0, 0), BuildingBlock: UVAHIK_clean_linker_0, # of connection points: 2
#     Edge 18, Type (0, 0), BuildingBlock: UVAHIK_clean_linker_0, # of connection points: 2
#     Edge 19, Type (0, 0), BuildingBlock: UVAHIK_clean_linker_0, # of connection points: 2
#     Edge 20, Type (0, 0), BuildingBlock: UVAHIK_clean_linker_0, # of connection points: 2
#     Edge 21, Type (0, 0), BuildingBlock: UVAHIK_clean_linker_0, # of connection points: 2
#     Edge 22, Type (0, 0), BuildingBlock: UVAHIK_clean_linker_0, # of connection points: 2
#     Edge 23, Type (0, 0), BuildingBlock: UVAHIK_clean_linker_0, # of connection points: 2
#     Edge 24, Type (0, 0), BuildingBlock: UVAHIK_clean_linker_0, # of connection points: 2
#     Edge 25, Type (0, 0), BuildingBlock: UVAHIK_clean_linker_0, # of connection points: 2
#     Edge 26, Type (0, 0), BuildingBlock: UVAHIK_clean_linker_0, # of connection points: 2
#     Edge 27, Type (0, 0), BuildingBlock: UVAHIK_clean_linker_0, # of connection points: 2
#     Edge 28, Type (0, 0), BuildingBlock: UVAHIK_clean_linker_0, # of connection points: 2
#     Edge 29, Type (0, 0), BuildingBlock: UVAHIK_clean_linker_0, # of connection points: 2
#     Edge 30, Type (0, 0), BuildingBlock: UVAHIK_clean_linker_0, # of connection points: 2
#     Edge 31, Type (0, 0), BuildingBlock: UVAHIK_clean_linker_0, # of connection points: 2
#     Edge 32, Type (0, 0), BuildingBlock: UVAHIK_clean_linker_0, # of connection points: 2
#     Edge 33, Type (0, 0), BuildingBlock: UVAHIK_clean_linker_0, # of connection points: 2
#     Edge 34, Type (0, 0), BuildingBlock: UVAHIK_clean_linker_0, # of connection points: 2
#     Edge 35, Type (0, 0), BuildingBlock: UVAHIK_clean_linker_0, # of connection points: 2
#     Edge 36, Type (0, 0), BuildingBlock: UVAHIK_clean_linker_0, # of connection points: 2
#     Edge 37, Type (0, 0), BuildingBlock: UVAHIK_clean_linker_0, # of connection points: 2
#     Edge 38, Type (0, 0), BuildingBlock: UVAHIK_clean_linker_0, # of connection points: 2
#     Edge 39, Type (0, 0), BuildingBlock: UVAHIK_clean_linker_0, # of connection points: 2
#     Edge 40, Type (0, 0), BuildingBlock: UVAHIK_clean_linker_0, # of connection points: 2
#     Edge 41, Type (0, 0), BuildingBlock: UVAHIK_clean_linker_0, # of connection points: 2
#     Edge 42, Type (0, 0), BuildingBlock: UVAHIK_clean_linker_0, # of connection points: 2
#     Edge 43, Type (0, 0), BuildingBlock: UVAHIK_clean_linker_0, # of connection points: 2
#     Edge 44, Type (0, 0), BuildingBlock: UVAHIK_clean_linker_0, # of connection points: 2
#     Edge 45, Type (0, 0), BuildingBlock: UVAHIK_clean_linker_0, # of connection points: 2
#     Edge 46, Type (0, 0), BuildingBlock: UVAHIK_clean_linker_0, # of connection points: 2
#     Edge 47, Type (0, 0), BuildingBlock: UVAHIK_clean_linker_0, # of connection points: 2
#     Edge 48, Type (0, 0), BuildingBlock: UVAHIK_clean_linker_0, # of connection points: 2
#     Edge 49, Type (0, 0), BuildingBlock: UVAHIK_clean_linker_0, # of connection points: 2
#     Edge 50, Type (0, 0), BuildingBlock: UVAHIK_clean_linker_0, # of connection points: 2
#     Edge 51, Type (0, 0), BuildingBlock: UVAHIK_clean_linker_0, # of connection points: 2
#     Edge 52, Type (0, 0), BuildingBlock: UVAHIK_clean_linker_0, # of connection points: 2
#     Edge 53, Type (0, 0), BuildingBlock: UVAHIK_clean_linker_0, # of connection points: 2
#     Edge 54, Type (0, 0), BuildingBlock: UVAHIK_clean_linker_0, # of connection points: 2
#     Edge 55, Type (0, 0), BuildingBlock: UVAHIK_clean_linker_0, # of connection points: 2
# Relax obj value: 0.133
# Max RMSD: 0.138
# Mean RMSD: 0.138
data_MOF--net-zfn--node1-XOMCOT_clean_sbu_0--edge1-UVAHIK_clean_linker_0
_symmetry_space_group_name_H-M    P1
_symmetry_Int_Tables_number       1
_symmetry_cell_setting            triclinic
loop_
_symmetry_equiv_pos_as_xyz
'x, y, z'
_cell_length_a     95.163081
_cell_length_b     95.091844
_cell_length_c     22.080273
_cell_angle_alpha  90.010961
_cell_angle_beta   90.0214
_cell_angle_gamma 89.999008
loop_
_atom_site_label
_atom_site_type_symbol
_atom_site_fract_x
_atom_site_fract_y
_atom_site_fract_z
_atom_type_partial_charge
Co0 Co 0.01375 0.34414 0.21824 0.0
C1 C 0.01625 0.34617 0.35324 0.0
C2 C 0.03399 0.35502 0.30777 0.0
C3 C 0.03637 0.35565 0.36913 0.0
N4 N 0.02111 0.34955 0.29749 0.0
N5 N 0.02519 0.35007 0.39775 0.0
H6 H 0.00678 0.34028 0.36145 0.0
H7 H 0.0415 0.35777 0.27304 0.0
C8 C 0.02504 0.37284 0.19535 0.0
O9 O 0.01806 0.37714 0.2433 0.0
N10 N 0.00692 0.33842 0.13961 0.0
C11 C 0.99451 0.33221 0.12763 0.0
C12 C 0.99336 0.33039 0.06596 0.0
C13 C 0.01318 0.34025 0.08539 0.0
N14 N 0.00509 0.33548 0.0394 0.0
C15 C 0.9879 0.35351 0.27368 0.0
C16 C 0.98167 0.37368 0.18773 0.0
C17 C 0.97291 0.37227 0.23823 0.0
C18 C 0.97598 0.36188 0.28108 0.0
C19 C 0.99358 0.36522 0.18265 0.0
N20 N -0.00297 0.35581 0.2271 0.0
H21 H 0.98947 0.34491 0.3044 0.0
H22 H 6e-05 0.36627 0.14274 0.0
H23 H 0.98672 0.32949 0.16133 0.0
H24 H 0.02343 0.345 0.07979 0.0
O25 O 0.00666 0.32695 0.25229 0.0
O26 O 0.02809 0.32987 0.21422 0.0
O27 O 0.02448 0.35996 0.17908 0.0
C28 C 0.01893 0.32162 0.23989 0.0
H29 H 0.04591 0.35929 0.39077 0.0
H30 H 0.98437 0.32604 0.04247 0.0
H31 H 0.97948 0.38139 0.15289 0.0
H32 H 0.96907 0.36005 0.31925 0.0
Co33 Co 0.14768 0.01273 0.71974 0.0
C34 C 0.14604 0.01549 0.85482 0.0
C35 C 0.13984 0.03432 0.8091 0.0
C36 C 0.13951 0.03679 0.87043 0.0
N37 N 0.14344 0.02078 0.799 0.0
N38 N 0.14342 0.02493 0.8992 0.0
H39 H 0.15045 0.00527 0.86324 0.0
H40 H 0.13816 0.04211 0.77422 0.0
C41 C 0.12053 0.02744 0.69849 0.0
O42 O 0.11566 0.02111 0.74708 0.0
N43 N 0.15229 0.00517 0.64103 0.0
C44 C 0.15685 0.99207 0.62905 0.0
C45 C 0.15844 0.99067 0.56737 0.0
C46 C 0.1512 0.01161 0.58681 0.0
N47 N 0.15485 0.00296 0.54081 0.0
C48 C 0.13586 0.98798 0.77531 0.0
C49 C 0.11478 0.984 0.69096 0.0
C50 C 0.11575 0.97481 0.74026 0.0
C51 C 0.12652 0.97679 0.78249 0.0
C52 C 0.1242 0.99518 0.68611 0.0
N53 N 0.13417 -0.0025 0.72966 0.0
H54 H 0.14477 0.98854 0.805 0.0
H55 H 0.12359 0.00185 0.64665 0.0
H56 H 0.15862 0.98401 0.66277 0.0
H57 H 0.14781 0.02239 0.58124 0.0
O58 O 0.164 0.00365 0.75297 0.0
O59 O 0.16355 0.02526 0.71461 0.0
O60 O 0.13315 0.02526 0.68113 0.0
C61 C 0.17072 0.01517 0.73986 0.0
H62 H 0.13724 0.04676 0.89198 0.0
H63 H 0.1616 0.9812 0.54388 0.0
H64 H 0.1068 0.98259 0.6565 0.0
H65 H 0.12801 0.96948 0.81957 0.0
Co66 Co 0.47429 0.15159 0.18886 0.0
C67 C 0.47193 0.14941 0.32409 0.0
C68 C 0.45262 0.14488 0.27838 0.0
C69 C 0.45024 0.1443 0.33971 0.0
N70 N 0.46633 0.14768 0.2683 0.0
N71 N 0.4624 0.14718 0.3684 0.0
H72 H 0.48253 0.15276 0.33275 0.0
H73 H 0.44474 0.1438 0.2434 0.0
C74 C 0.46025 0.12397 0.17407 0.0
O75 O 0.46666 0.12005 0.22406 0.0
N76 N 0.48176 0.15584 0.10981 0.0
C77 C 0.49476 0.16065 0.09774 0.0
C78 C 0.49617 0.16205 0.03605 0.0
C79 C 0.47539 0.15441 0.05565 0.0
N80 N 0.48399 0.15811 0.00958 0.0
C81 C 0.50009 0.14166 0.24262 0.0
C82 C 0.50409 0.11966 0.16276 0.0
C83 C 0.51411 0.12204 0.20803 0.0
C84 C 0.51204 0.13322 0.24825 0.0
C85 C 0.49229 0.12827 0.15906 0.0
N86 N 0.49001 0.13872 0.20046 0.0
H87 H 0.49942 0.15098 0.26999 0.0
H88 H 0.48524 0.12677 0.12134 0.0
H89 H 0.50273 0.16277 0.13147 0.0
H90 H 0.46468 0.15079 0.05022 0.0
O91 O 0.48277 0.16847 0.21965 0.0
O92 O 0.46123 0.16699 0.18115 0.0
O93 O 0.46222 0.13631 0.15276 0.0
C94 C 0.47109 0.17472 0.20494 0.0
H95 H 0.4402 0.14253 0.36144 0.0
H96 H 0.50558 0.16536 0.01253 0.0
H97 H 0.50542 0.1113 0.12991 0.0
H98 H 0.51988 0.1358 0.28209 0.0
Co99 Co 0.33995 0.4728 0.69303 0.0
C100 C 0.34271 0.47084 0.82598 0.0
C101 C 0.35104 0.45252 0.78184 0.0
C102 C 0.35226 0.45077 0.84357 0.0
N103 N 0.34513 0.46513 0.771 0.0
N104 N 0.34697 0.46227 0.87126 0.0
H105 H 0.33787 0.48102 0.83255 0.0
H106 H 0.35397 0.44499 0.7474 0.0
C107 C 0.36523 0.46712 0.61781 0.0
O108 O 0.36478 0.48039 0.60116 0.0
N109 N 0.33424 0.48007 0.61374 0.0
C110 C 0.32537 0.49082 0.60174 0.0
C111 C 0.32325 0.49169 0.54022 0.0
C112 C 0.33654 0.47404 0.55906 0.0
N113 N 0.33038 0.48118 0.51325 0.0
C114 C 0.34661 0.50222 0.7076 0.0
C115 C 0.37436 0.49824 0.74028 0.0
C116 C 0.36929 0.51195 0.73297 0.0
C117 C 0.35516 0.5139 0.7176 0.0
C118 C 0.36547 0.48687 0.72904 0.0
N119 N 0.35197 0.48893 0.70961 0.0
H120 H 0.33563 0.50395 0.69955 0.0
H121 H 0.36954 0.47635 0.73505 0.0
H122 H 0.3201 0.49723 0.635 0.0
H123 H 0.34218 0.46428 0.55287 0.0
O124 O 0.32287 0.47977 0.7278 0.0
O125 O 0.32547 0.45865 0.68611 0.0
O126 O 0.35601 0.46224 0.65429 0.0
C127 C 0.31738 0.46768 0.71362 0.0
H128 H 0.3563 0.44153 0.8663 0.0
H129 H 0.31685 0.49946 0.5174 0.0
H130 H 0.38517 0.4963 0.75314 0.0
H131 H 0.35073 0.52436 0.71408 0.0
Co132 Co 0.02407 0.15054 0.31739 0.0
C133 C 0.02731 0.14955 0.18453 0.0
C134 C 0.04614 0.14292 0.22995 0.0
C135 C 0.04833 0.14218 0.1683 0.0
N136 N 0.03295 0.14745 0.23987 0.0
N137 N 0.03648 0.14637 0.13981 0.0
H138 H 0.01665 0.15314 0.17734 0.0
H139 H 0.05367 0.1404 0.26501 0.0
C140 C 0.03021 0.12464 0.38698 0.0
O141 O 0.01674 0.12437 0.40035 0.0
N142 N 0.01551 0.15414 0.39656 0.0
C143 C 0.00367 0.16141 0.40914 0.0
C144 C 0.00243 0.16298 0.47082 0.0
C145 C 0.02168 0.15221 0.45125 0.0
N146 N 0.01375 0.15713 0.49744 0.0
C147 C 0.99549 0.14269 0.28974 0.0
C148 C 0.00149 0.11552 0.254 0.0
C149 C 0.98739 0.11976 0.25748 0.0
C150 C 0.9845 0.13369 0.27413 0.0
C151 C 0.01212 0.12483 0.27083 0.0
N152 N 0.00899 0.13796 0.29223 0.0
H153 H 0.99308 0.15351 0.2987 0.0
H154 H 0.02291 0.12141 0.26719 0.0
H155 H -0.00325 0.16618 0.37646 0.0
H156 H 0.03208 0.14782 0.45704 0.0
O157 O 0.01643 0.1679 0.28791 0.0
O158 O 0.03712 0.16561 0.33369 0.0
O159 O 0.0351 0.1344 0.35315 0.0
C160 C 0.0278 0.17378 0.30854 0.0
H161 H 0.05799 0.13905 0.14624 0.0
H162 H 0.99393 0.16828 0.49399 0.0
H163 H 0.00432 0.10509 0.23854 0.0
H164 H 0.97384 0.13763 0.2762 0.0
Co165 Co 0.34342 0.01526 0.81893 0.0
C166 C 0.34347 0.01883 0.68619 0.0
C167 C 0.34791 0.03827 0.73183 0.0
C168 C 0.34805 0.04063 0.67023 0.0
N169 N 0.34508 0.0246 0.74158 0.0
N170 N 0.34526 0.02839 0.64148 0.0
H171 H 0.34088 0.00787 0.67908 0.0
H172 H 0.34975 0.04597 0.767 0.0
C173 C 0.36894 0.02378 0.88674 0.0
O174 O 0.37052 0.01043 0.90067 0.0
N175 N 0.34129 0.00616 0.89786 0.0
C176 C 0.33634 0.99317 0.91041 0.0
C177 C 0.33533 0.99157 0.97216 0.0
C178 C 0.34241 0.01249 0.95266 0.0
N179 N 0.33922 0.0037 0.99883 0.0
C180 C 0.35334 0.98772 0.78388 0.0
C181 C 0.37999 0.99627 0.75094 0.0
C182 C 0.3768 0.98189 0.74996 0.0
C183 C 0.36312 0.97769 0.76498 0.0
C184 C 0.36992 0.00589 0.77034 0.0
N185 N 0.35709 0.00147 0.79076 0.0
H186 H 0.34269 0.98442 0.79148 0.0
H187 H 0.37247 0.01695 0.76892 0.0
H188 H 0.33281 0.98554 0.87781 0.0
H189 H 0.34542 0.02336 0.95857 0.0
O190 O 0.32648 0.00625 0.79157 0.0
O191 O 0.32752 0.02694 0.83832 0.0
O192 O 0.3587 0.02766 0.85314 0.0
C193 C 0.31991 0.01713 0.81341 0.0
H194 H 0.35025 0.05058 0.64847 0.0
H195 H 0.33143 0.98235 0.99544 0.0
H196 H 0.39019 9e-05 0.73664 0.0
H197 H 0.36001 0.96675 0.76301 0.0
Co198 Co 0.47715 0.34628 0.31057 0.0
C199 C 0.47443 0.34801 0.17535 0.0
C200 C 0.45554 0.35388 0.22135 0.0
C201 C 0.45304 0.35427 0.16004 0.0
N202 N 0.46911 0.35041 0.23124 0.0
N203 N 0.46493 0.35055 0.13114 0.0
H204 H 0.48474 0.34386 0.16666 0.0
H205 H 0.44778 0.3555 0.25642 0.0
C206 C 0.46336 0.37401 0.32798 0.0
O207 O 0.46972 0.37819 0.27829 0.0
N208 N 0.48467 0.34182 0.38941 0.0
C209 C 0.49766 0.33697 0.40143 0.0
C210 C 0.49904 0.33545 0.46314 0.0
C211 C 0.47828 0.34315 0.44359 0.0
N212 N 0.48685 0.33935 0.48965 0.0
C213 C 0.50248 0.35652 0.25429 0.0
C214 C 0.50687 0.37854 0.33368 0.0
C215 C 0.51609 0.37674 0.28493 0.0
C216 C 0.51393 0.36544 0.24541 0.0
C217 C 0.49546 0.36948 0.34031 0.0
N218 N 0.49288 0.35911 0.2988 0.0
H219 H 0.50173 0.34723 0.22683 0.0
H220 H 0.48878 0.37073 0.37947 0.0
H221 H 0.50564 0.3349 0.3677 0.0
H222 H 0.46758 0.34677 0.44906 0.0
O223 O 0.48549 0.32945 0.27867 0.0
O224 O 0.46402 0.33092 0.31774 0.0
O225 O 0.46525 0.36153 0.3478 0.0
C226 C 0.47376 0.32325 0.29272 0.0
H227 H 0.44305 0.35648 0.13857 0.0
H228 H 0.50843 0.33206 0.48665 0.0
H229 H 0.5084 0.38693 0.36619 0.0
H230 H 0.52126 0.36329 0.20901 0.0
Co231 Co 0.14869 0.47049 0.83289 0.0
C232 C 0.14763 0.46727 0.7 0.0
C233 C 0.14009 0.44879 0.74542 0.0
C234 C 0.13941 0.44657 0.68382 0.0
N235 N 0.14518 0.46178 0.75532 0.0
N236 N 0.14417 0.4582 0.65519 0.0
H237 H 0.15202 0.47764 0.69304 0.0
H238 H 0.1371 0.44144 0.78049 0.0
C239 C 0.12216 0.46567 0.90047 0.0
O240 O 0.12243 0.47911 0.91442 0.0
N241 N 0.1527 0.47886 0.91211 0.0
C242 C 0.16097 0.49005 0.92447 0.0
C243 C 0.16233 0.49146 0.98616 0.0
C244 C 0.14998 0.47313 0.96707 0.0
N245 N 0.15535 0.48085 0.013 0.0
C246 C 0.14224 0.4996 0.80729 0.0
C247 C 0.11508 0.49487 0.76829 0.0
C248 C 0.11983 0.50878 0.77371 0.0
C249 C 0.13376 0.51103 0.792 0.0
C250 C 0.12386 0.48379 0.78489 0.0
N251 N 0.13698 0.48627 0.80773 0.0
H252 H 0.15307 0.50155 0.81787 0.0
H253 H 0.12001 0.47316 0.78008 0.0
H254 H 0.16659 0.49627 0.89163 0.0
H255 H 0.14442 0.46333 0.97346 0.0
O256 O 0.16648 0.47711 0.80365 0.0
O257 O 0.16292 0.45655 0.84921 0.0
O258 O 0.13193 0.46036 0.8679 0.0
C259 C 0.17162 0.46534 0.82386 0.0
H260 H 0.13556 0.43714 0.66203 0.0
H261 H 0.16857 0.49931 0.00932 0.0
H262 H 0.10465 0.49252 0.75154 0.0
H263 H 0.13808 0.52153 0.7956 0.0
Co264 Co 0.97796 0.64714 0.79891 0.0
C265 C 0.9756 0.64481 0.66394 0.0
C266 C 0.95751 0.63668 0.70949 0.0
C267 C 0.95517 0.63598 0.6481 0.0
N268 N 0.97055 0.64177 0.71974 0.0
N269 N 0.96656 0.64112 0.61945 0.0
H270 H 0.9853 0.65028 0.6556 0.0
H271 H 0.9499 0.63424 0.74426 0.0
C272 C 0.96635 0.61851 0.82131 0.0
O273 O 0.97312 0.61419 0.77287 0.0
N274 N 0.98486 0.6528 0.87748 0.0
C275 C -0.00268 0.6589 0.88939 0.0
C276 C -0.00147 0.66066 0.95108 0.0
C277 C 0.97862 0.65097 0.93174 0.0
N278 N 0.98679 0.65563 0.97772 0.0
C279 C 0.00398 0.63825 0.7442 0.0
C280 C 0.0099 0.61729 0.82695 0.0
C281 C 0.01883 0.61915 0.77722 0.0
C282 C 0.01593 0.62997 0.73616 0.0
C283 C -0.00201 0.62573 0.8328 0.0
N284 N 0.99466 0.63549 0.78962 0.0
H285 H 0.00253 0.64715 0.71497 0.0
H286 H 0.99144 0.6244 0.87233 0.0
H287 H 0.00511 0.66158 0.85565 0.0
H288 H 0.96835 0.64629 0.93738 0.0
O289 O 0.98503 0.66432 0.76477 0.0
O290 O 0.96363 0.66145 0.80313 0.0
O291 O 0.9672 0.63134 0.83808 0.0
C292 C 0.97277 0.66966 0.77705 0.0
H293 H 0.94553 0.63263 0.62642 0.0
H294 H 0.00757 0.66491 0.97453 0.0
H295 H 0.01196 0.60926 0.86055 0.0
H296 H 0.02297 0.63217 0.69882 0.0
Co297 Co 0.84617 0.98069 0.3194 0.0
C298 C 0.84724 0.97762 0.18418 0.0
C299 C 0.85251 0.95859 0.23053 0.0
C300 C 0.85265 0.95598 0.16926 0.0
N301 N 0.84954 0.97229 0.24011 0.0
N302 N 0.84936 0.96799 0.1401 0.0
H303 H 0.84316 0.98796 0.17537 0.0
H304 H 0.85411 0.95087 0.26581 0.0
C305 C 0.87371 0.96639 0.33355 0.0
O306 O 0.87761 0.97249 0.28285 0.0
N307 N 0.84247 0.98861 0.39828 0.0
C308 C 0.83808 0.00178 0.40991 0.0
C309 C 0.83708 0.00347 0.47166 0.0
C310 C 0.844 0.98239 0.45277 0.0
N311 N 0.84083 0.99128 0.4986 0.0
C312 C 0.85634 0.00569 0.26003 0.0
C313 C 0.87925 0.00978 0.33478 0.0
C314 C 0.8772 0.01884 0.2856 0.0
C315 C 0.86546 0.01685 0.24851 0.0
C316 C 0.86998 -0.00136 0.34402 0.0
N317 N 0.85917 0.99616 0.30461 0.0
H318 H 0.84674 0.0051 0.23453 0.0
H319 H 0.87145 0.99208 0.38342 0.0
H320 H 0.83588 0.00965 0.37581 0.0
H321 H 0.84762 0.97169 0.4587 0.0
O322 O 0.82925 0.98922 0.2894 0.0
O323 O 0.83068 0.96786 0.32976 0.0
O324 O 0.86147 0.96863 0.35519 0.0
C325 C 0.82297 0.97764 0.30524 0.0
H326 H 0.85487 0.94597 0.14805 0.0
H327 H 0.83375 0.01293 0.49481 0.0
H328 H 0.888 0.01123 0.36556 0.0
H329 H 0.86313 0.02409 0.21197 0.0
Co330 Co 0.51835 0.84511 0.81234 0.0
C331 C 0.52174 0.84562 0.67949 0.0
C332 C 0.54105 0.85064 0.72502 0.0
C333 C 0.54333 0.8511 0.66339 0.0
N334 N 0.52751 0.84729 0.73487 0.0
N335 N 0.53118 0.84793 0.63479 0.0
H336 H 0.51081 0.84297 0.67226 0.0
H337 H 0.54874 0.85254 0.76015 0.0
C338 C 0.52642 0.87051 0.88203 0.0
O339 O 0.51308 0.8717 0.89668 0.0
N340 N 0.50945 0.84247 0.89137 0.0
C341 C 0.49659 0.83728 0.90419 0.0
C342 C 0.49524 0.83585 0.96591 0.0
C343 C 0.51593 0.84341 0.94585 0.0
N344 N 0.5074 0.83977 0.99223 0.0
C345 C 0.49058 0.85446 0.77842 0.0
C346 C 0.49834 0.88152 0.74769 0.0
C347 C 0.48407 0.8779 0.74635 0.0
C348 C 0.48028 0.86403 0.76032 0.0
C349 C 0.50825 0.87163 0.76629 0.0
N350 N 0.50421 0.85858 0.7856 0.0
H351 H 0.48759 0.84368 0.7851 0.0
H352 H 0.51922 0.87451 0.76502 0.0
H353 H 0.48884 0.83395 0.87174 0.0
H354 H 0.52685 0.84631 0.95128 0.0
O355 O 0.50965 0.8281 0.78404 0.0
O356 O 0.53039 0.82935 0.83019 0.0
O357 O 0.53045 0.86053 0.84732 0.0
C358 C 0.52067 0.82165 0.80513 0.0
H359 H 0.55324 0.85335 0.64144 0.0
H360 H 0.486 0.83207 0.98938 0.0
H361 H 0.50186 0.89188 0.73419 0.0
H362 H 0.46944 0.8606 0.75809 0.0
Co363 Co 0.65027 0.52318 0.31573 0.0
C364 C 0.64807 0.52587 0.18272 0.0
C365 C 0.64071 0.54445 0.22793 0.0
C366 C 0.63982 0.54653 0.1663 0.0
N367 N 0.64584 0.53148 0.23804 0.0
N368 N 0.6445 0.53486 0.13776 0.0
H369 H 0.65258 0.51554 0.17584 0.0
H370 H 0.63799 0.55194 0.26284 0.0
C371 C 0.62489 0.52947 0.38915 0.0
O372 O 0.62477 0.51609 0.40411 0.0
N373 N 0.65528 0.51522 0.39481 0.0
C374 C 0.66363 0.50404 0.4062 0.0
C375 C 0.66545 0.50268 0.46772 0.0
C376 C 0.65303 0.52103 0.45005 0.0
N377 N 0.6587 0.51333 0.49538 0.0
C378 C 0.64225 0.49416 0.29791 0.0
C379 C 0.61498 0.49971 0.26231 0.0
C380 C 0.61921 0.48567 0.26913 0.0
C381 C 0.63317 0.48298 0.28593 0.0
C382 C 0.62436 0.51054 0.27556 0.0
N383 N 0.63759 0.50771 0.2964 0.0
H384 H 0.65305 0.49182 0.30747 0.0
H385 H 0.62089 0.52128 0.26979 0.0
H386 H 0.66883 0.49767 0.37256 0.0
H387 H 0.64754 0.53083 0.45717 0.0
O388 O 0.66718 0.51562 0.28172 0.0
O389 O 0.66534 0.53661 0.32532 0.0
O390 O 0.6345 0.53423 0.35419 0.0
C391 C 0.67314 0.52736 0.2976 0.0
H392 H 0.636 0.55597 0.14445 0.0
H393 H 0.67174 0.49475 0.49015 0.0
H394 H 0.60451 0.50235 0.24686 0.0
H395 H 0.63707 0.47234 0.29074 0.0
Co396 Co 0.97171 0.83933 0.67725 0.0
C397 C 0.96849 0.84035 0.81017 0.0
C398 C 0.94984 0.84739 0.76457 0.0
C399 C 0.94758 0.84802 0.82614 0.0
N400 N 0.96295 0.84263 0.7548 0.0
N401 N 0.95932 0.84358 0.85488 0.0
H402 H 0.97896 0.83623 0.81725 0.0
H403 H 0.94242 0.85016 0.72943 0.0
C404 C 0.96634 0.86573 0.60924 0.0
O405 O 0.97973 0.86563 0.59451 0.0
N406 N 0.98014 0.83555 0.59801 0.0
C407 C 0.99174 0.82789 0.58546 0.0
C408 C 0.99313 0.82659 0.52374 0.0
C409 C 0.97422 0.83797 0.54317 0.0
N410 N 0.98214 0.83301 0.49709 0.0
C411 C 0.00059 0.84584 0.70515 0.0
C412 C 0.99592 0.87337 0.73975 0.0
C413 C 0.00975 0.86842 0.73577 0.0
C414 C 0.01201 0.85436 0.71994 0.0
C415 C 0.98483 0.86451 0.72388 0.0
N416 N 0.98732 0.85122 0.70271 0.0
H417 H 0.00246 0.83488 0.69685 0.0
H418 H 0.97422 0.86845 0.7276 0.0
H419 H -0.00169 0.82264 0.61811 0.0
H420 H 0.96418 0.8431 0.53704 0.0
O421 O 0.97863 0.82162 0.70603 0.0
O422 O 0.95803 0.82485 0.66047 0.0
O423 O 0.96129 0.85596 0.64253 0.0
C424 C 0.967 0.81626 0.68538 0.0
H425 H 0.93805 0.85162 0.84785 0.0
H426 H 0.00129 0.82079 0.50043 0.0
H427 H 0.99372 0.8841 0.75325 0.0
H428 H 0.02251 0.84996 0.71931 0.0
Co429 Co 0.65105 0.97658 0.20272 0.0
C430 C 0.64866 0.97432 0.33777 0.0
C431 C 0.64383 0.95503 0.29241 0.0
C432 C 0.64324 0.95271 0.35379 0.0
N433 N 0.6468 0.9687 0.28206 0.0
N434 N 0.64631 0.96485 0.38228 0.0
H435 H 0.65228 0.98485 0.34616 0.0
H436 H 0.64271 0.9471 0.25764 0.0
C437 C 0.6238 0.96198 0.18399 0.0
O438 O 0.6193 0.96829 0.2333 0.0
N439 N 0.65565 0.98399 0.12385 0.0
C440 C 0.6604 -0.00297 0.11185 0.0
C441 C 0.66192 -0.00158 0.05018 0.0
C442 C 0.65438 0.97758 0.06966 0.0
N443 N 0.65811 0.9862 0.02365 0.0
C444 C 0.64013 0.00217 0.25487 0.0
C445 C 0.61882 0.00577 0.17135 0.0
C446 C 0.62064 0.01587 0.21679 0.0
C447 C 0.63147 0.01399 0.25892 0.0
C448 C 0.62765 0.99412 0.16918 0.0
N449 N 0.63778 0.99204 0.2122 0.0
H450 H 0.64918 0.00165 0.28389 0.0
H451 H 0.6266 0.987 0.13135 0.0
H452 H 0.66235 0.00505 0.14556 0.0
H453 H 0.6508 0.96686 0.06412 0.0
O454 O 0.66752 0.98549 0.23524 0.0
O455 O 0.66676 0.96384 0.1974 0.0
O456 O 0.63629 0.96414 0.16501 0.0
C457 C 0.67411 0.97392 0.22173 0.0
H458 H 0.64138 0.94269 0.37566 0.0
H459 H 0.66518 0.00785 0.0267 0.0
H460 H 0.61074 0.00693 0.13715 0.0
H461 H 0.63363 0.02189 0.29307 0.0
Co462 Co 0.51376 0.64976 0.70741 0.0
C463 C 0.51635 0.64789 0.84252 0.0
C464 C 0.53505 0.64131 0.79691 0.0
C465 C 0.53748 0.64087 0.85826 0.0
N466 N 0.52162 0.64523 0.78673 0.0
N467 N 0.52571 0.64503 0.88694 0.0
H468 H 0.50623 0.65253 0.85091 0.0
H469 H 0.54282 0.63948 0.76209 0.0
C470 C 0.52758 0.62214 0.68681 0.0
O471 O 0.52101 0.61755 0.73532 0.0
N472 N 0.50642 0.65464 0.62865 0.0
C473 C 0.4935 0.65967 0.61663 0.0
C474 C 0.49218 0.66132 0.55496 0.0
C475 C 0.51283 0.65334 0.57448 0.0
N476 N 0.50432 0.65731 0.52845 0.0
C477 C 0.48858 0.63871 0.76229 0.0
C478 C 0.48411 0.61773 0.67787 0.0
C479 C 0.47491 0.61895 0.72698 0.0
C480 C 0.47713 0.62969 0.76919 0.0
C481 C 0.49554 0.62685 0.67326 0.0
N482 N 0.49811 0.63673 0.71691 0.0
H483 H 0.48937 0.6476 0.79203 0.0
H484 H 0.50224 0.62604 0.63395 0.0
H485 H 0.4855 0.66171 0.65031 0.0
H486 H 0.52347 0.64957 0.56895 0.0
O487 O 0.5052 0.66635 0.74066 0.0
O488 O 0.52679 0.66524 0.70262 0.0
O489 O 0.52585 0.63481 0.66902 0.0
C490 C 0.51693 0.67271 0.72785 0.0
H491 H 0.54738 0.63836 0.87988 0.0
H492 H 0.48283 0.66481 0.53144 0.0
H493 H 0.48255 0.60976 0.64346 0.0
H494 H 0.46983 0.63137 0.80615 0.0
Co495 Co 0.842 0.52012 0.17612 0.0
C496 C 0.84341 0.52307 0.30912 0.0
C497 C 0.85122 0.54145 0.2638 0.0
C498 C 0.85201 0.54362 0.32538 0.0
N499 N 0.84589 0.52856 0.25383 0.0
N500 N 0.84707 0.53206 0.35395 0.0
H501 H 0.8388 0.5128 0.31606 0.0
H502 H 0.85425 0.5488 0.22878 0.0
C503 C 0.86849 0.52496 0.10736 0.0
O504 O 0.86816 0.51164 0.0915 0.0
N505 N 0.83765 0.512 0.0968 0.0
C506 C 0.82931 0.50086 0.08446 0.0
C507 C 0.82789 0.4995 0.0228 0.0
C508 C 0.84037 0.51775 0.04188 0.0
N509 N 0.83492 0.51008 0.99596 0.0
C510 C 0.84748 0.49092 0.20195 0.0
C511 C 0.87518 0.49443 0.23623 0.0
C512 C 0.86966 0.48081 0.23221 0.0
C513 C 0.85553 0.47914 0.21636 0.0
C514 C 0.86677 0.50591 0.22072 0.0
N515 N 0.85336 0.50399 0.19997 0.0
H516 H 0.83646 0.48949 0.19371 0.0
H517 H 0.87113 0.51636 0.22468 0.0
H518 H 0.82374 0.49461 0.11729 0.0
H519 H 0.84604 0.52748 0.03551 0.0
O520 O 0.82413 0.51381 0.20579 0.0
O521 O 0.82801 0.5344 0.16105 0.0
O522 O 0.85884 0.53006 0.14106 0.0
C523 C 0.81918 0.52574 0.18637 0.0
H524 H 0.85602 0.55298 0.3472 0.0
H525 H 0.82161 0.49167 0.99965 0.0
H526 H 0.88598 0.49619 0.24971 0.0
H527 H 0.8507 0.46882 0.21563 0.0
C528 C 0.95137 0.38409 0.19783 0.0
C529 C 0.96066 0.38164 0.24612 0.0
C530 C 0.94029 0.39358 0.20432 0.0
C531 C 0.93094 0.42538 0.28449 0.0
H532 H 0.89305 0.41739 0.22974 0.0
C533 C 0.88772 0.46776 0.29284 0.0
C534 C 0.87868 0.46839 0.24269 0.0
C535 C 0.89669 0.45626 0.30064 0.0
C536 C 0.90361 0.41984 0.24472 0.0
H537 H 0.9656 0.38697 0.33914 0.0
H538 H 0.94629 0.4038 0.35016 0.0
H539 H 0.9107 0.39876 0.22885 0.0
H540 H 0.87186 0.45759 0.16144 0.0
H541 H 0.88775 0.43777 0.17378 0.0
H542 H 0.92418 0.44657 0.29765 0.0
C543 C 0.94756 0.3983 0.30756 0.0
C544 C 0.91367 0.40915 0.24446 0.0
C545 C 0.95852 0.38864 0.30137 0.0
C546 C 0.87861 0.45726 0.20094 0.0
C547 C 0.88769 0.44587 0.20825 0.0
C548 C 0.92095 0.43612 0.28397 0.0
C549 C 0.93842 0.40093 0.25891 0.0
C550 C 0.92746 0.41188 0.2637 0.0
C551 C 0.89692 0.44526 0.25796 0.0
C552 C 0.9072 0.43354 0.26331 0.0
H553 H 0.95276 0.37873 0.15493 0.0
H554 H 0.93344 0.39552 0.166 0.0
H555 H 0.94156 0.42778 0.2989 0.0
H556 H 0.88784 0.47615 0.32603 0.0
H557 H 0.90347 0.45603 0.34002 0.0
C558 C 0.10319 0.95398 0.69744 0.0
C559 C 0.10584 0.96296 0.74663 0.0
C560 C 0.09371 0.94288 0.70326 0.0
C561 C 0.06244 0.9323 0.78424 0.0
H562 H 0.0719 0.89469 0.72994 0.0
C563 C 0.02208 0.88716 0.79547 0.0
C564 C 0.02177 0.87799 0.74567 0.0
C565 C 0.03314 0.8967 0.80246 0.0
C566 C 0.06903 0.90516 0.74475 0.0
H567 H 0.10072 0.96746 0.84025 0.0
H568 H 0.08383 0.94813 0.85005 0.0
H569 H 0.08973 0.91311 0.72792 0.0
H570 H 0.03267 0.87156 0.66414 0.0
H571 H 0.0517 0.88842 0.67506 0.0
H572 H 0.0416 0.92465 0.79844 0.0
C573 C 0.0892 0.94965 0.80731 0.0
C574 C 0.07927 0.91566 0.74383 0.0
C575 C 0.09888 0.96063 0.80179 0.0
C576 C 0.03277 0.87839 0.70343 0.0
C577 C 0.04371 0.88803 0.70992 0.0
C578 C 0.05213 0.92185 0.78433 0.0
C579 C 0.08655 0.94069 0.75807 0.0
C580 C 0.07601 0.92935 0.76295 0.0
C581 C 0.044 0.89738 0.75928 0.0
C582 C 0.05525 0.90818 0.76385 0.0
H583 H 0.10852 0.95552 0.6546 0.0
H584 H 0.09174 0.93616 0.66452 0.0
H585 H 0.05966 0.94282 0.7987 0.0
H586 H 0.01377 0.88695 0.82898 0.0
H587 H 0.03314 0.90357 0.84158 0.0
C588 C 0.6059 0.03339 0.27322 0.0
C589 C 0.6116 0.02854 0.21837 0.0
C590 C 0.5966 0.04478 0.27373 0.0
C591 C 0.57175 0.06284 0.1733 0.0
H592 H 0.57157 0.09177 0.29717 0.0
C593 C 0.53414 0.10957 0.15826 0.0
C594 C 0.52687 0.11317 0.21139 0.0
C595 C 0.54554 0.1004 0.16046 0.0
C596 C 0.57145 0.0837 0.26256 0.0
H597 H 0.61279 0.03235 0.12167 0.0
H598 H 0.59664 0.0522 0.12255 0.0
H599 H 0.58974 0.07355 0.29872 0.0
H600 H 0.52613 0.11042 0.30875 0.0
H601 H 0.54605 0.09419 0.31262 0.0
H602 H 0.55344 0.07277 0.13746 0.0
C603 C 0.59905 0.04701 0.16496 0.0
C604 C 0.58184 0.07328 0.26345 0.0
C605 C 0.60829 0.03564 0.16444 0.0
C606 C 0.53158 0.10784 0.26715 0.0
C607 C 0.54299 0.09859 0.26934 0.0
C608 C 0.56141 0.0732 0.17243 0.0
C609 C 0.59289 0.05153 0.2194 0.0
C610 C 0.5821 0.06277 0.21869 0.0
C611 C 0.54991 0.09457 0.21582 0.0
C612 C 0.56114 0.08376 0.21692 0.0
H613 H 0.60824 0.02808 0.31543 0.0
H614 H 0.59194 0.04796 0.31633 0.0
H615 H 0.57147 0.05471 0.13896 0.0
H616 H 0.53093 0.11379 0.11481 0.0
H617 H 0.55086 0.09776 0.11862 0.0
C618 C 0.38786 0.52514 0.7899 0.0
C619 C 0.37878 0.52415 0.73998 0.0
C620 C 0.39727 0.53636 0.79469 0.0
C621 C 0.40548 0.57167 0.7301 0.0
H622 H 0.44298 0.5633 0.78881 0.0
C623 C 0.45407 0.6064 0.68397 0.0
C624 C 0.4629 0.60922 0.73349 0.0
C625 C 0.44298 0.59689 0.68972 0.0
C626 C 0.4325 0.56582 0.77299 0.0
H627 H 0.37235 0.53401 0.65602 0.0
H628 H 0.38903 0.55334 0.66315 0.0
H629 H 0.42509 0.54499 0.7898 0.0
H630 H 0.46708 0.60445 0.82774 0.0
H631 H 0.44776 0.58758 0.83751 0.0
H632 H 0.41321 0.59237 0.71092 0.0
C633 C 0.38866 0.54575 0.69965 0.0
C634 C 0.42221 0.55536 0.77376 0.0
C635 C 0.37914 0.53464 0.69534 0.0
C636 C 0.46037 0.60248 0.78901 0.0
C637 C 0.4494 0.5928 0.79449 0.0
C638 C 0.41584 0.58207 0.72857 0.0
C639 C 0.39793 0.5467 0.74917 0.0
C640 C 0.4086 0.55811 0.75183 0.0
C641 C 0.44065 0.5899 0.74482 0.0
C642 C 0.42945 0.57919 0.74958 0.0
H643 H 0.38765 0.51725 0.82526 0.0
H644 H 0.40404 0.5369 0.83402 0.0
H645 H 0.39505 0.57426 0.71399 0.0
H646 H 0.45576 0.61156 0.64084 0.0
H647 H 0.43643 0.59474 0.65065 0.0
C648 C 0.89273 0.03232 0.21524 0.0
C649 C 0.88718 0.0304 0.27359 0.0
C650 C 0.90277 0.04274 0.20454 0.0
C651 C 0.93113 0.05795 0.21419 0.0
H652 H 0.92674 0.09592 0.27575 0.0
C653 C 0.97711 0.09552 0.26438 0.0
C654 C 0.9758 0.10962 0.24586 0.0
C655 C 0.96591 0.08619 0.2579 0.0
C656 C 0.92803 0.0854 0.25771 0.0
H657 H 0.8873 0.03811 0.36593 0.0
H658 H 0.90476 0.05647 0.34706 0.0
H659 H 0.90724 0.07923 0.28392 0.0
H660 H 0.96179 0.12472 0.20334 0.0
H661 H 0.94204 0.10846 0.19423 0.0
H662 H 0.9521 0.06396 0.19004 0.0
C663 C 0.90139 0.04988 0.30977 0.0
C664 C 0.91694 0.07586 0.26277 0.0
C665 C 0.89152 0.03933 0.32067 0.0
C666 C 0.96309 0.11404 0.21933 0.0
C667 C 0.95181 0.10473 0.21371 0.0
C668 C 0.94229 0.06743 0.20995 0.0
C669 C 0.90723 0.05155 0.25181 0.0
C670 C 0.91847 0.06201 0.24175 0.0
C671 C 0.95309 0.09077 0.23351 0.0
C672 C 0.94089 0.08117 0.23236 0.0
H673 H 0.88958 0.02551 0.1783 0.0
H674 H 0.9071 0.04387 0.15944 0.0
H675 H 0.93259 0.04729 0.19802 0.0
H676 H 0.98661 0.09177 0.28601 0.0
H677 H 0.96709 0.07551 0.27425 0.0
C678 C 0.46134 0.88518 0.69702 0.0
C679 C 0.47325 0.88862 0.73175 0.0
C680 C 0.45088 0.8952 0.68633 0.0
C681 C 0.44399 0.93348 0.69021 0.0
H682 H 0.40545 0.92253 0.72242 0.0
C683 C 0.40153 0.97315 0.75689 0.0
C684 C 0.38779 0.9714 0.73478 0.0
C685 C 0.41182 0.96308 0.74534 0.0
C686 C 0.41611 0.9257 0.71211 0.0
H687 H 0.48347 0.90529 0.78245 0.0
H688 H 0.46534 0.92272 0.76348 0.0
H689 H 0.42388 0.90469 0.72171 0.0
H690 H 0.3742 0.95783 0.68175 0.0
H691 H 0.39224 0.94009 0.66208 0.0
H692 H 0.43629 0.95453 0.68233 0.0
C693 C 0.46418 0.91236 0.74369 0.0
C694 C 0.42667 0.91549 0.71171 0.0
C695 C 0.47458 0.90236 0.75456 0.0
C696 C 0.38463 0.95939 0.70014 0.0
C697 C 0.39495 0.94926 0.68873 0.0
C698 C 0.43345 0.94367 0.69058 0.0
C699 C 0.45216 0.90887 0.7099 0.0
C700 C 0.44076 0.91934 0.70232 0.0
C701 C 0.40864 0.95098 0.71153 0.0
C702 C 0.41946 0.93994 0.7031 0.0
H703 H 0.4601 0.87475 0.67805 0.0
H704 H 0.44178 0.89227 0.65967 0.0
H705 H 0.45472 0.93671 0.6817 0.0
H706 H 0.40426 0.98213 0.78472 0.0
H707 H 0.42219 0.96457 0.7646 0.0
C708 C 0.59497 0.47552 0.27839 0.0
C709 C 0.60906 0.47397 0.2602 0.0
C710 C 0.58552 0.46439 0.27275 0.0
C711 C 0.58385 0.4264 0.27259 0.0
H712 H 0.54636 0.43194 0.20769 0.0
C713 C 0.53045 0.39243 0.21856 0.0
C714 C 0.52798 0.3865 0.27582 0.0
C715 C 0.54116 0.4023 0.21065 0.0
C716 C 0.55684 0.43021 0.22536 0.0
H717 H 0.62408 0.4595 0.22007 0.0
H718 H 0.60759 0.4399 0.2123 0.0
H719 H 0.56345 0.45112 0.20324 0.0
H720 H 0.53505 0.38574 0.36907 0.0
H721 H 0.55389 0.40292 0.3551 0.0
H722 H 0.57708 0.40562 0.29643 0.0
C723 C 0.60397 0.4498 0.23081 0.0
C724 C 0.56655 0.44119 0.22317 0.0
C725 C 0.6134 0.46101 0.23563 0.0
C726 C 0.53667 0.39027 0.3246 0.0
C727 C 0.5475 0.39998 0.31649 0.0
C728 C 0.57406 0.41548 0.27556 0.0
C729 C 0.58997 0.4514 0.24955 0.0
C730 C 0.58009 0.43943 0.24736 0.0
C731 C 0.54971 0.40623 0.25965 0.0
C732 C 0.56043 0.41735 0.25252 0.0
H733 H 0.5913 0.48522 0.29865 0.0
H734 H 0.57482 0.46581 0.28832 0.0
H735 H 0.5942 0.42483 0.29191 0.0
H736 H 0.52384 0.38973 0.18032 0.0
H737 H 0.5427 0.40694 0.16633 0.0
C738 C 0.03346 0.60369 0.71086 0.0
C739 C 0.03102 0.60974 0.76795 0.0
C740 C 0.04425 0.59392 0.70302 0.0
C741 C 0.05964 0.566 0.71856 0.0
H742 H 0.0969 0.57063 0.78719 0.0
C743 C 0.09595 0.51986 0.77888 0.0
C744 C 0.11019 0.52079 0.76217 0.0
C745 C 0.08696 0.53128 0.77103 0.0
C746 C 0.08659 0.56927 0.76721 0.0
H747 H 0.0383 0.61086 0.86082 0.0
H748 H 0.05725 0.59379 0.84705 0.0
H749 H 0.08027 0.59029 0.7895 0.0
H750 H 0.12597 0.53448 0.72245 0.0
H751 H 0.11026 0.55462 0.71078 0.0
H752 H 0.06577 0.54486 0.69809 0.0
C753 C 0.05079 0.5966 0.80847 0.0
C754 C 0.07707 0.58046 0.76892 0.0
C755 C 0.03989 0.60624 0.8165 0.0
C756 C 0.11515 0.53344 0.73684 0.0
C757 C 0.10617 0.54495 0.72981 0.0
C758 C 0.06908 0.55478 0.71756 0.0
C759 C 0.0529 0.59016 0.75193 0.0
C760 C 0.06346 0.57885 0.74532 0.0
C761 C 0.09201 0.54397 0.74706 0.0
C762 C 0.08256 0.55626 0.74264 0.0
H763 H 0.02671 0.60615 0.67277 0.0
H764 H 0.04572 0.58915 0.65891 0.0
H765 H 0.04917 0.56445 0.70049 0.0
H766 H 0.09179 0.51043 0.79973 0.0
H767 H 0.07612 0.53033 0.78555 0.0
C768 C 0.04209 0.37815 0.11226 0.0
C769 C 0.03377 0.38285 0.16077 0.0
C770 C 0.05074 0.38752 0.08095 0.0
C771 C 0.06845 0.4217 0.09935 0.0
H772 H 0.07384 0.41889 0.92564 0.0
C773 C 0.10121 0.46209 0.9668 0.0
C774 C 0.11099 0.45659 0.92541 0.0
C775 C 0.09104 0.45341 0.99275 0.0
C776 C 0.07249 0.41973 0.97422 0.0
H777 H 0.02765 0.40114 0.21329 0.0
H778 H 0.04258 0.41752 0.15806 0.0
H779 H 0.0572 0.40323 0.97602 0.0
H780 H 0.11756 0.43777 0.87758 0.0
H781 H 0.09977 0.4226 0.92316 0.0
H782 H 0.08374 0.43817 0.09759 0.0
C783 C 0.04264 0.40654 0.145 0.0
C784 C 0.06299 0.41076 1.00308 0.0
C785 C 0.03403 0.39716 0.17647 0.0
C786 C 0.11019 0.44231 0.90945 0.0
C787 C 0.09996 0.43364 0.93524 0.0
C788 C 0.07789 0.43069 0.07048 0.0
C789 C 0.0512 0.40179 0.09731 0.0
C790 C 0.06091 0.41161 0.06604 0.0
C791 C 0.09039 0.43908 0.97767 0.0
C792 C 0.08006 0.42976 0.00769 0.0
H793 H 0.04212 0.36718 0.09897 0.0
H794 H 0.05732 0.38349 0.04491 0.0
H795 H 0.0673 0.42245 0.14804 0.0
H796 H 0.10151 0.47306 0.97991 0.0
H797 H 0.08369 0.45793 0.02475 0.0
C798 C 0.09728 0.03889 0.68011 0.0
C799 C 0.11143 0.03712 0.66389 0.0
C800 C 0.08872 0.0482 0.64807 0.0
C801 C 0.08589 0.06754 0.50312 0.0
H802 H 0.05957 0.09045 0.59391 0.0
C803 C 0.05397 0.11353 0.39829 0.0
C804 C 0.03972 0.1142 0.41473 0.0
C805 C 0.06299 0.10398 0.42674 0.0
C806 C 0.06679 0.08404 0.56791 0.0
H807 H 0.12769 0.04362 0.6009 0.0
H808 H 0.11281 0.06007 0.54572 0.0
H809 H 0.07484 0.07409 0.64741 0.0
H810 H 0.02371 0.10527 0.47328 0.0
H811 H 0.03942 0.08867 0.52265 0.0
H812 H 0.07786 0.07768 0.42361 0.0
C813 C 0.10826 0.05411 0.58266 0.0
C814 C 0.07551 0.07464 0.59851 0.0
C815 C 0.11682 0.04475 0.61456 0.0
C816 C 0.03464 0.10504 0.45955 0.0
C817 C 0.04365 0.09558 0.48817 0.0
C818 C 0.0772 0.07702 0.4725 0.0
C819 C 0.09413 0.056 0.59928 0.0
C820 C 0.08509 0.06619 0.56648 0.0
C821 C 0.05793 0.09503 0.47243 0.0
C822 C 0.06749 0.08527 0.5046 0.0
H823 H 0.09277 0.03309 0.71757 0.0
H824 H 0.07781 0.04921 0.66135 0.0
H825 H 0.09304 0.06107 0.47704 0.0
H826 H 0.05819 0.12046 0.36384 0.0
H827 H 0.07398 0.10381 0.41398 0.0
C828 C 0.44301 0.11833 0.09183 0.0
C829 C 0.45101 0.11397 0.14195 0.0
C830 C 0.43409 0.10887 0.06234 0.0
C831 C 0.41571 0.07505 0.08632 0.0
H832 H 0.41226 0.07507 0.91127 0.0
C833 C 0.38834 0.0304 0.95722 0.0
C834 C 0.37866 0.03433 0.91226 0.0
C835 C 0.39714 0.04041 0.98353 0.0
C836 C 0.41304 0.07505 0.96022 0.0
H837 H 0.4562 0.09623 0.19954 0.0
H838 H 0.44091 0.07971 0.14747 0.0
H839 H 0.4278 0.09203 0.96058 0.0
H840 H 0.37081 0.05176 0.85862 0.0
H841 H 0.38632 0.06927 0.9046 0.0
H842 H 0.40113 0.05794 0.08587 0.0
C843 C 0.44124 0.09049 0.13176 0.0
C844 C 0.42191 0.08476 0.98848 0.0
C845 C 0.45007 0.09995 0.16142 0.0
C846 C 0.37815 0.04843 0.89328 0.0
C847 C 0.38705 0.05843 0.91933 0.0
C848 C 0.40695 0.0653 0.05808 0.0
C849 C 0.43305 0.09486 0.08219 0.0
C850 C 0.42341 0.08481 0.05187 0.0
C851 C 0.39652 0.05453 0.96517 0.0
C852 C 0.40559 0.06515 0.99477 0.0
H853 H 0.4435 0.12908 0.07576 0.0
H854 H 0.42782 0.1126 0.02469 0.0
H855 H 0.41638 0.07499 0.13529 0.0
H856 H 0.38901 0.01963 0.97284 0.0
H857 H 0.40447 0.03708 0.01825 0.0
C858 C 0.3847 0.4625 0.54465 0.0
C859 C 0.37591 0.45769 0.59135 0.0
C860 C 0.3945 0.45351 0.51807 0.0
C861 C 0.41436 0.42086 0.5429 0.0
H862 H 0.41723 0.42064 0.3677 0.0
C863 C 0.44637 0.37915 0.41166 0.0
C864 C 0.45395 0.38373 0.36073 0.0
C865 C 0.43716 0.38825 0.44145 0.0
C866 C 0.4167 0.4207 0.4167 0.0
H867 H 0.37064 0.43972 0.64749 0.0
H868 H 0.38779 0.42398 0.60087 0.0
H869 H 0.40061 0.43641 0.4169 0.0
H870 H 0.45807 0.40156 0.30203 0.0
H871 H 0.44219 0.41748 0.35452 0.0
H872 H 0.4305 0.40518 0.54269 0.0
C873 C 0.38713 0.43475 0.58511 0.0
C874 C 0.40716 0.42972 0.44485 0.0
C875 C 0.37726 0.44373 0.61154 0.0
C876 C 0.45231 0.39767 0.34084 0.0
C877 C 0.44314 0.40677 0.37073 0.0
C878 C 0.42395 0.41186 0.51473 0.0
C879 C 0.39577 0.43952 0.53779 0.0
C880 C 0.4059 0.4299 0.50822 0.0
C881 C 0.43536 0.40214 0.42104 0.0
C882 C 0.42524 0.4117 0.45129 0.0
H883 H 0.38394 0.47319 0.52806 0.0
H884 H 0.40114 0.45752 0.48218 0.0
H885 H 0.41371 0.42089 0.59188 0.0
H886 H 0.4474 0.36847 0.42814 0.0
H887 H 0.43122 0.38431 0.47967 0.0
C888 C 0.88907 0.52938 0.0395 0.0
C889 C 0.87968 0.53423 0.08393 0.0
C890 C 0.89925 0.53835 0.01538 0.0
C891 C 0.90683 0.57603 0.99433 0.0
H892 H 0.94421 0.56272 0.95423 0.0
C893 C 0.9499 0.61329 0.90671 0.0
C894 C 0.95752 0.60861 0.85603 0.0
C895 C 0.94111 0.60409 0.93817 0.0
C896 C 0.93378 0.56655 0.96488 0.0
H897 H 0.87388 0.55218 0.13926 0.0
H898 H 0.89177 0.56775 0.0979 0.0
H899 H 0.92758 0.54685 1.00335 0.0
H900 H 0.96216 0.59052 0.79955 0.0
H901 H 0.94675 0.57448 0.85443 0.0
H902 H 0.913 0.5957 0.95572 0.0
C903 C 0.89109 0.5571 0.08079 0.0
C904 C 0.92425 0.55747 0.99291 0.0
C905 C 0.88088 0.54815 0.1047 0.0
C906 C 0.95641 0.59446 0.83832 0.0
C907 C 0.94765 0.58524 0.86995 0.0
C908 C 0.91636 0.58511 0.96656 0.0
C909 C 0.90029 0.55235 0.03539 0.0
C910 C 0.91064 0.56209 0.00764 0.0
C911 C 0.9398 0.59001 0.91979 0.0
C912 C 0.92991 0.58045 0.95124 0.0
H913 H 0.8884 0.51872 0.0224 0.0
H914 H 0.90606 0.53441 0.97993 0.0
H915 H 0.89635 0.57986 1.00405 0.0
H916 H 0.95059 0.6241 0.92183 0.0
H917 H 0.93533 0.608 0.97693 0.0
C918 C 0.94301 0.87786 0.60425 0.0
C919 C 0.95705 0.87681 0.585 0.0
C920 C 0.93415 0.88809 0.57967 0.0
C921 C 0.92962 0.90971 0.44389 0.0
H922 H 0.90476 0.93201 0.54455 0.0
C923 C 0.89741 0.9554 0.34537 0.0
C924 C 0.88348 0.95685 0.36535 0.0
C925 C 0.90655 0.9461 0.37429 0.0
C926 C 0.91153 0.92576 0.51577 0.0
H927 H 0.97285 0.88576 0.52553 0.0
H928 H 0.95737 0.90356 0.48268 0.0
H929 H 0.92036 0.91477 0.59148 0.0
H930 H 0.86823 0.94981 0.43185 0.0
H931 H 0.88411 0.93335 0.48153 0.0
H932 H 0.9207 0.92044 0.36812 0.0
C933 C 0.95321 0.89643 0.51645 0.0
C934 C 0.92047 0.91591 0.54267 0.0
C935 C 0.96209 0.88628 0.54127 0.0
C936 C 0.87892 0.94894 0.41539 0.0
C937 C 0.88805 0.93957 0.44412 0.0
C938 C 0.92064 0.91947 0.41699 0.0
C939 C 0.93913 0.89738 0.53509 0.0
C940 C 0.92962 0.90782 0.50696 0.0
C941 C 0.90194 0.93797 0.42361 0.0
C942 C 0.91151 0.92764 0.45259 0.0
H943 H 0.93883 0.87073 0.63799 0.0
H944 H 0.92331 0.88853 0.59453 0.0
H945 H 0.93641 0.90345 0.41517 0.0
H946 H 0.90128 0.96143 0.30727 0.0
H947 H 0.91726 0.94531 0.35806 0.0
C948 C 0.61908 0.94537 0.09835 0.0
C949 C 0.6142 0.95288 0.14901 0.0
C950 C 0.60994 0.93682 0.06519 0.0
C951 C 0.57252 0.93148 0.0318 0.0
H952 H 0.58368 0.89345 0.99042 0.0
C953 C 0.53266 0.89008 0.95239 0.0
C954 C 0.53674 0.88051 0.90726 0.0
C955 C 0.54242 0.8993 0.97773 0.0
C956 C 0.58048 0.90411 1.00073 0.0
H957 H 0.5959 0.95738 0.20438 0.0
H958 H 0.57999 0.94249 0.14645 0.0
H959 H 0.60026 0.9089 0.04223 0.0
H960 H 0.55423 0.87322 0.85264 0.0
H961 H 0.57126 0.88952 0.89628 0.0
H962 H 0.55276 0.92676 0.99044 0.0
C963 C 0.59086 0.94327 0.13224 0.0
C964 C 0.58997 0.91294 0.03051 0.0
C965 C 0.6 0.95173 0.16563 0.0
C966 C 0.55078 0.88044 0.88755 0.0
C967 C 0.56055 0.88973 0.91274 0.0
C968 C 0.56307 0.92269 1.00174 0.0
C969 C 0.59573 0.93573 0.08175 0.0
C970 C 0.586 0.92664 0.04705 0.0
C971 C 0.55648 0.89923 0.9583 0.0
C972 C 0.56686 0.90884 0.98662 0.0
H973 H 0.62996 0.94606 0.08428 0.0
H974 H 0.61395 0.9312 0.02618 0.0
H975 H 0.56927 0.94208 0.04314 0.0
H976 H 0.52195 0.89033 0.96893 0.0
H977 H 0.53898 0.9063 0.01349 0.0
C978 C 0.60513 0.5342 0.4606 0.0
C979 C 0.61444 0.5391 0.41599 0.0
C980 C 0.59556 0.54333 0.48782 0.0
C981 C 0.57715 0.57692 0.46772 0.0
H982 H 0.57332 0.57532 0.64246 0.0
C983 C 0.54502 0.61772 0.60405 0.0
C984 C 0.53709 0.61268 0.65319 0.0
C985 C 0.5543 0.60883 0.57343 0.0
C986 C 0.57412 0.57578 0.59357 0.0
H987 H 0.62084 0.55739 0.36407 0.0
H988 H 0.60405 0.57337 0.41181 0.0
H989 H 0.58977 0.55965 0.59173 0.0
H990 H 0.53242 0.59429 0.70773 0.0
H991 H 0.54841 0.57876 0.65374 0.0
H992 H 0.5614 0.59298 0.46954 0.0
C993 C 0.60417 0.56243 0.42547 0.0
C994 C 0.58356 0.56682 0.56455 0.0
C995 C 0.61382 0.5533 0.39841 0.0
C996 C 0.53846 0.59853 0.67039 0.0
C997 C 0.54769 0.58964 0.63965 0.0
C998 C 0.56763 0.58585 0.49676 0.0
C999 C 0.59504 0.55755 0.47085 0.0
C1000 C 0.58514 0.56726 0.50134 0.0
C1001 C 0.55581 0.59471 0.59117 0.0
C1002 C 0.56597 0.58534 0.56001 0.0
H1003 H 0.60531 0.52332 0.47511 0.0
H1004 H 0.58852 0.53923 0.5221 0.0
H1005 H 0.57806 0.57738 0.41886 0.0
H1006 H 0.5442 0.62857 0.58965 0.0
H1007 H 0.5605 0.61311 0.53668 0.0
C1008 C 0.03593 0.30161 0.24787 0.0
C1009 C 0.02222 0.30687 0.25446 0.0
C1010 C 0.03888 0.28755 0.26143 0.0
C1011 C 0.02395 0.25647 0.34089 0.0
H1012 H 0.04702 0.23503 0.22923 0.0
C1013 C 0.01752 0.19766 0.30027 0.0
C1014 C 0.02947 0.18914 0.30674 0.0
C1015 C 0.01877 0.21224 0.3007 0.0
C1016 C 0.04077 0.24097 0.26129 0.0
H1017 H 0.00087 0.30163 0.2802 0.0
H1018 H 0.00588 0.27714 0.30208 0.0
H1019 H 0.04516 0.26055 0.21747 0.0
H1020 H 0.05211 0.18908 0.31777 0.0
H1021 H 0.05432 0.21487 0.31636 0.0
H1022 H 0.01888 0.23673 0.38213 0.0
C1023 C 0.01447 0.28386 0.28809 0.0
C1024 C 0.03971 0.25556 0.25474 0.0
C1025 C 0.01155 0.29789 0.27501 0.0
C1026 C 0.04275 0.19546 0.3128 0.0
C1027 C 0.04402 0.21013 0.31194 0.0
C1028 C 0.02486 0.24191 0.34682 0.0
C1029 C 0.02816 0.27851 0.28154 0.0
C1030 C 0.03095 0.26341 0.29342 0.0
C1031 C 0.032 0.21858 0.30656 0.0
C1032 C 0.03298 0.23403 0.30613 0.0
H1033 H 0.04437 0.30834 0.23237 0.0
H1034 H 0.04956 0.28379 0.25638 0.0
H1035 H 0.01742 0.26224 0.37244 0.0
H1036 H 0.00715 0.19307 0.29588 0.0
H1037 H 0.00938 0.21859 0.2959 0.0
C1038 C 0.29772 0.03113 0.81826 0.0
C1039 C 0.30451 0.01812 0.81089 0.0
C1040 C 0.28308 0.03198 0.8152 0.0
C1041 C 0.2513 0.01148 0.83744 0.0
H1042 H 0.23383 0.03629 0.72013 0.0
C1043 C 0.19381 0.00466 0.76704 0.0
C1044 C 0.18582 0.0166 0.7528 0.0
C1045 C 0.20816 0.00585 0.7785 0.0
C1046 C 0.23849 0.02951 0.75401 0.0
H1047 H 0.30142 0.99581 0.79559 0.0
H1048 H 0.27582 -0.00273 0.79157 0.0
H1049 H 0.2593 0.03676 0.73357 0.0
H1050 H 0.18643 0.0392 0.74038 0.0
H1051 H 0.21148 0.04139 0.76227 0.0
H1052 H 0.23064 0.00429 0.85873 0.0
C1053 C 0.28183 0.00678 0.79925 0.0
C1054 C 0.25307 0.02976 0.76144 0.0
C1055 C 0.29645 0.00597 0.80118 0.0
C1056 C 0.19239 0.0298 0.75087 0.0
C1057 C 0.20674 0.03104 0.76314 0.0
C1058 C 0.23674 0.01137 0.83074 0.0
C1059 C 0.27504 0.01979 0.80599 0.0
C1060 C 0.25959 0.02054 0.80231 0.0
C1061 C 0.21481 0.01905 0.77687 0.0
C1062 C 0.23017 0.02015 0.78795 0.0
H1063 H 0.30373 0.04065 0.82567 0.0
H1064 H 0.27802 0.04211 0.8206 0.0
H1065 H 0.25612 0.00441 0.86981 0.0
H1066 H 0.18903 0.99432 0.76837 0.0
H1067 H 0.21407 0.99635 0.78752 0.0
C1068 C 0.45837 0.30195 0.28604 0.0
C1069 C 0.47169 0.30818 0.2804 0.0
C1070 C 0.45655 0.28765 0.27342 0.0
C1071 C 0.47409 0.25775 0.19592 0.0
H1072 H 0.45106 0.23469 0.30149 0.0
C1073 C 0.48142 0.19843 0.22044 0.0
C1074 C 0.46946 0.18999 0.21247 0.0
C1075 C 0.48012 0.21298 0.22492 0.0
C1076 C 0.45737 0.24108 0.27128 0.0
H1077 H 0.49356 0.30439 0.25817 0.0
H1078 H 0.4905 0.2795 0.23804 0.0
H1079 H 0.45174 0.26019 0.31637 0.0
H1080 H 0.44675 0.19002 0.20431 0.0
H1081 H 0.44446 0.21565 0.21392 0.0
H1082 H 0.48023 0.23855 0.15291 0.0
C1083 C 0.48136 0.28563 0.25038 0.0
C1084 C 0.45774 0.25565 0.27958 0.0
C1085 C 0.48314 0.29989 0.26242 0.0
C1086 C 0.45613 0.19633 0.21027 0.0
C1087 C 0.45481 0.21092 0.21589 0.0
C1088 C 0.47386 0.24322 0.18824 0.0
C1089 C 0.46804 0.27934 0.25534 0.0
C1090 C 0.46637 0.26411 0.24282 0.0
C1091 C 0.46683 0.21933 0.22247 0.0
C1092 C 0.46573 0.23476 0.2266 0.0
H1093 H 0.44935 0.30813 0.29961 0.0
H1094 H 0.44613 0.28315 0.27721 0.0
H1095 H 0.48054 0.26399 0.16576 0.0
H1096 H 0.49182 0.19383 0.22212 0.0
H1097 H 0.48951 0.21928 0.23059 0.0
C1098 C 0.29704 0.45096 0.72079 0.0
C1099 C 0.30272 0.46444 0.72978 0.0
C1100 C 0.28319 0.44805 0.73815 0.0
C1101 C 0.25457 0.46205 0.83523 0.0
H1102 H 0.22957 0.44293 0.7235 0.0
C1103 C 0.19619 0.47372 0.81487 0.0
C1104 C 0.18676 0.46245 0.81987 0.0
C1105 C 0.21058 0.47124 0.81133 0.0
C1106 C 0.23652 0.44803 0.75559 0.0
H1107 H 0.29836 0.48547 0.76307 0.0
H1108 H 0.27432 0.48052 0.79188 0.0
H1109 H 0.25485 0.44361 0.70257 0.0
H1110 H 0.18483 0.43976 0.82454 0.0
H1111 H 0.21025 0.43539 0.81608 0.0
H1112 H 0.23612 0.46728 0.88588 0.0
C1113 C 0.28056 0.47206 0.773 0.0
C1114 C 0.25096 0.44842 0.74376 0.0
C1115 C 0.29433 0.47494 0.7559 0.0
C1116 C 0.19194 0.44861 0.8209 0.0
C1117 C 0.2064 0.44611 0.81597 0.0
C1118 C 0.24018 0.46181 0.84655 0.0
C1119 C 0.27485 0.45857 0.76481 0.0
C1120 C 0.26005 0.4559 0.78234 0.0
C1121 C 0.21578 0.45744 0.81161 0.0
C1122 C 0.23103 0.45519 0.80583 0.0
H1123 H 0.3033 0.44266 0.70086 0.0
H1124 H 0.27907 0.43755 0.73134 0.0
H1125 H 0.26136 0.46757 0.86665 0.0
H1126 H 0.19247 0.48448 0.81429 0.0
H1127 H 0.21766 0.48012 0.80745 0.0
C1128 C 0.97617 0.79193 0.69226 0.0
C1129 C 0.9646 0.80101 0.68749 0.0
C1130 C 0.97421 0.77744 0.69329 0.0
C1131 C 0.95153 0.75021 0.74182 0.0
H1132 H 0.97285 0.727 0.63031 0.0
C1133 C 0.95576 0.68967 0.7685 0.0
C1134 C 0.9694 0.68429 0.7608 0.0
C1135 C 0.95271 0.70356 0.75221 0.0
C1136 C 0.96685 0.73332 0.66188 0.0
H1137 H 0.94191 0.80217 0.68064 0.0
H1138 H 0.93843 0.77653 0.68472 0.0
H1139 H 0.97188 0.75238 0.6151 0.0
H1140 H 0.99052 0.68916 0.73041 0.0
H1141 H 0.98532 0.71332 0.70356 0.0
H1142 H 0.94727 0.73131 0.79109 0.0
C1143 C 0.94899 0.78077 0.68661 0.0
C1144 C 0.96621 0.7478 0.65281 0.0
C1145 C 0.95098 0.79535 0.68422 0.0
C1146 C 0.97989 0.69298 0.73661 0.0
C1147 C 0.97687 0.70682 0.72064 0.0
C1148 C 0.9523 0.7357 0.75141 0.0
C1149 C 0.96063 0.77175 0.69063 0.0
C1150 C 0.95892 0.75638 0.69373 0.0
C1151 C 0.96324 0.71227 0.72802 0.0
C1152 C 0.96039 0.72718 0.71267 0.0
H1153 H 0.98679 0.79602 0.69447 0.0
H1154 H 0.98331 0.77065 0.69702 0.0
H1155 H 0.94592 0.7567 0.77408 0.0
H1156 H 0.94745 0.68316 0.78683 0.0
H1157 H 0.9421 0.70744 0.75817 0.0
C1158 C 0.8015 0.96249 0.3009 0.0
C1159 C 0.80779 0.97578 0.29538 0.0
C1160 C 0.78712 0.96083 0.29015 0.0
C1161 C 0.75694 0.9789 0.21731 0.0
H1162 H 0.73439 0.95489 0.32083 0.0
C1163 C 0.69744 0.9848 0.24058 0.0
C1164 C 0.68936 0.97265 0.23101 0.0
C1165 C 0.71198 0.98386 0.24619 0.0
C1166 C 0.74062 0.96149 0.29126 0.0
H1167 H 0.80402 -0.0022 0.27571 0.0
H1168 H 0.77897 0.99504 0.25895 0.0
H1169 H 0.75988 0.95579 0.33492 0.0
H1170 H 0.69002 0.94996 0.22142 0.0
H1171 H 0.71564 0.94831 0.23288 0.0
H1172 H 0.7376 0.98506 0.17558 0.0
C1173 C 0.78512 0.98578 0.26965 0.0
C1174 C 0.7552 0.96199 0.29909 0.0
C1175 C 0.79947 0.9874 0.27972 0.0
C1176 C 0.69604 0.95949 0.2286 0.0
C1177 C 0.71063 0.95853 0.23529 0.0
C1178 C 0.74241 0.97855 0.21013 0.0
C1179 C 0.77878 0.97247 0.2742 0.0
C1180 C 0.76348 0.97092 0.2629 0.0
C1181 C 0.71869 0.97075 0.24326 0.0
C1182 C 0.73413 0.97003 0.24767 0.0
H1183 H 0.80771 0.95334 0.3127 0.0
H1184 H 0.78258 0.95042 0.29352 0.0
H1185 H 0.76303 0.98559 0.18756 0.0
H1186 H 0.69256 0.99508 0.2425 0.0
H1187 H 0.71801 0.9934 0.2529 0.0
C1188 C 0.50973 0.79808 0.79308 0.0
C1189 C 0.52183 0.80625 0.80215 0.0
C1190 C 0.51064 0.78347 0.79116 0.0
C1191 C 0.5334 0.75475 0.75194 0.0
H1192 H 0.50834 0.73243 0.85159 0.0
C1193 C 0.53219 0.69399 0.73856 0.0
C1194 C 0.51883 0.68775 0.7413 0.0
C1195 C 0.53386 0.70828 0.75154 0.0
C1196 C 0.51531 0.73849 0.823 0.0
H1197 H 0.54439 0.80564 0.81566 0.0
H1198 H 0.54602 0.77991 0.81049 0.0
H1199 H 0.50879 0.75791 0.86327 0.0
H1200 H 0.49674 0.6915 0.75902 0.0
H1201 H 0.49952 0.71642 0.77951 0.0
H1202 H 0.53945 0.73548 0.70937 0.0
C1203 C 0.53585 0.7849 0.80565 0.0
C1204 C 0.51562 0.75306 0.83005 0.0
C1205 C 0.53491 0.79956 0.80874 0.0
C1206 C 0.50719 0.69601 0.75702 0.0
C1207 C 0.50881 0.71029 0.76927 0.0
C1208 C 0.53295 0.74017 0.74418 0.0
C1209 C 0.5237 0.77677 0.79727 0.0
C1210 C 0.52449 0.7613 0.7939 0.0
C1211 C 0.52217 0.71661 0.7669 0.0
C1212 C 0.52369 0.7319 0.77885 0.0
H1213 H 0.49951 0.80298 0.78811 0.0
H1214 H 0.50115 0.77739 0.78409 0.0
H1215 H 0.54026 0.76095 0.72333 0.0
H1216 H 0.54136 0.68781 0.72688 0.0
H1217 H 0.54431 0.71277 0.74995 0.0
C1218 C 0.79448 0.51785 0.19663 0.0
C1219 C 0.80412 0.52893 0.19122 0.0
C1220 C 0.78016 0.5206 0.20098 0.0
C1221 C 0.75477 0.5444 0.2576 0.0
H1222 H 0.72935 0.52528 0.14761 0.0
C1223 C 0.69412 0.5433 0.29186 0.0
C1224 C 0.688 0.53002 0.28282 0.0
C1225 C 0.70811 0.54571 0.27513 0.0
C1226 C 0.7363 0.53068 0.17877 0.0
H1227 H 0.80648 0.55158 0.18671 0.0
H1228 H 0.78117 0.55644 0.19653 0.0
H1229 H 0.75455 0.52495 0.12783 0.0
H1230 H 0.69173 0.50879 0.25055 0.0
H1231 H 0.71601 0.51286 0.22287 0.0
H1232 H 0.7366 0.54935 0.31081 0.0
C1233 C 0.78482 0.54565 0.19637 0.0
C1234 C 0.75067 0.53057 0.16713 0.0
C1235 C 0.79921 0.54287 0.19065 0.0
C1236 C 0.69611 0.51918 0.25763 0.0
C1237 C 0.71001 0.52156 0.24121 0.0
C1238 C 0.74034 0.54437 0.26974 0.0
C1239 C 0.77522 0.5345 0.20109 0.0
C1240 C 0.76003 0.53704 0.20741 0.0
C1241 C 0.71615 0.53487 0.24912 0.0
C1242 C 0.73103 0.53706 0.23154 0.0
H1243 H 0.79799 0.50701 0.19689 0.0
H1244 H 0.77292 0.51186 0.20512 0.0
H1245 H 0.76187 0.54939 0.28936 0.0
H1246 H 0.68808 0.55185 0.31109 0.0
H1247 H 0.71256 0.55608 0.28174 0.0
C1248 C 0.01686 0.34672 0.95172 0.0
C1249 C 0.00793 0.33628 0.97522 0.0
C1250 C 0.01912 0.34783 0.88926 0.0
C1251 C 0.00313 0.3382 0.7422 0.0
H1252 H 0.04004 0.34693 0.67818 0.0
C1253 C 0.01498 0.33732 0.48536 0.0
C1254 C 0.02352 0.34814 0.46225 0.0
C1255 C 0.01332 0.33559 0.54787 0.0
C1256 C 0.02964 0.34463 0.69534 0.0
H1257 H 0.99475 0.31852 0.95126 0.0
H1258 H -0.00131 0.32043 0.84262 0.0
H1259 H 0.03684 0.34439 0.78724 0.0
H1260 H 0.03683 0.36572 0.48714 0.0
H1261 H 0.03392 0.36272 0.59595 0.0
H1262 H 0.99591 0.33849 0.65041 0.0
C1263 C 0.00375 0.32795 0.87237 0.0
C1264 C 0.0278 0.34317 0.7579 0.0
C1265 C 0.00149 0.32684 0.93475 0.0
C1266 C 0.03036 0.35715 0.50329 0.0
C1267 C 0.02869 0.35542 0.56576 0.0
C1268 C 0.00496 0.33966 0.67968 0.0
C1269 C 0.0125 0.33852 0.84876 0.0
C1270 C 0.01452 0.33995 0.78213 0.0
C1271 C 0.02013 0.34464 0.58887 0.0
C1272 C 0.01823 0.34291 0.65544 0.0
H1273 H 0.02185 0.35429 0.98136 0.0
H1274 H 0.02578 0.35621 0.87261 0.0
H1275 H 0.99271 0.33595 0.75933 0.0
H1276 H 0.00974 0.33003 0.45528 0.0
H1277 H 0.00682 0.32703 0.5641 0.0
C1278 C 0.15455 0.01307 0.98702 0.0
C1279 C 0.14503 0.02301 0.96372 0.0
C1280 C 0.15597 0.01118 0.04956 0.0
C1281 C 0.14911 0.02859 0.19687 0.0
H1282 H 0.15267 0.99079 0.26082 0.0
C1283 C 0.14523 0.01612 0.45317 0.0
C1284 C 0.15442 0.00588 0.47665 0.0
C1285 C 0.14443 0.01851 0.39072 0.0
C1286 C 0.15186 0.00143 0.2437 0.0
H1287 H 0.12944 0.03863 0.98822 0.0
H1288 H 0.13189 0.03532 0.09711 0.0
H1289 H 0.15063 0.99431 0.15188 0.0
H1290 H 0.17029 0.9905 0.45265 0.0
H1291 H 0.16891 0.99468 0.34404 0.0
H1292 H 0.15027 0.03568 0.28881 0.0
C1293 C 0.13843 0.02914 0.06706 0.0
C1294 C 0.15069 0.00345 0.18118 0.0
C1295 C 0.13702 0.03104 1.00456 0.0
C1296 C 0.16292 -0.00172 0.43617 0.0
C1297 C 0.16212 0.00067 0.37381 0.0
C1298 C 0.15027 0.02656 0.25943 0.0
C1299 C 0.14791 0.01918 0.09037 0.0
C1300 C 0.14929 0.01705 0.15695 0.0
C1301 C 0.15279 0.01074 0.35023 0.0
C1302 C 0.15165 0.01295 0.28363 0.0
H1303 H 0.16107 0.00688 0.95708 0.0
H1304 H 0.16354 0.00357 0.06594 0.0
H1305 H 0.14825 0.03922 0.17972 0.0
H1306 H 0.13839 0.02204 0.48282 0.0
H1307 H 0.137 0.02623 0.37407 0.0
C1308 C 0.47097 0.14819 0.92222 0.0
C1309 C 0.4811 0.15752 0.94546 0.0
C1310 C 0.46864 0.14724 0.85979 0.0
C1311 C 0.48589 0.1542 0.71335 0.0
H1312 H 0.44817 0.15135 0.64807 0.0
C1313 C 0.47476 0.1574 0.45672 0.0
C1314 C 0.46449 0.14832 0.43289 0.0
C1315 C 0.47665 0.15858 0.5193 0.0
C1316 C 0.45878 0.15197 0.6656 0.0
H1317 H 0.49633 0.17353 0.92111 0.0
H1318 H 0.4923 0.17183 0.81253 0.0
H1319 H 0.45155 0.15334 0.75727 0.0
H1320 H 0.44836 0.13318 0.45615 0.0
H1321 H 0.45173 0.13513 0.56525 0.0
H1322 H 0.49315 0.15273 0.6219 0.0
C1323 C 0.48634 0.16507 0.84251 0.0
C1324 C 0.46071 0.15312 0.72818 0.0
C1325 C 0.48865 0.16603 0.90482 0.0
C1326 C 0.45621 0.14042 0.47309 0.0
C1327 C 0.45813 0.14155 0.53564 0.0
C1328 C 0.48397 0.153 0.65083 0.0
C1329 C 0.47639 0.15558 0.81921 0.0
C1330 C 0.47429 0.15428 0.75275 0.0
C1331 C 0.46836 0.15067 0.55954 0.0
C1332 C 0.47039 0.1519 0.62615 0.0
H1333 H 0.46509 0.14135 0.95204 0.0
H1334 H 0.461 0.13972 0.84321 0.0
H1335 H 0.4965 0.15484 0.73093 0.0
H1336 H 0.48115 0.16382 0.42712 0.0
H1337 H 0.48447 0.16587 0.53616 0.0
C1338 C 0.33447 0.47274 0.95875 0.0
C1339 C 0.34549 0.46449 0.93564 0.0
C1340 C 0.33276 0.47444 0.02129 0.0
C1341 C 0.34274 0.45833 0.16862 0.0
H1342 H 0.33061 0.49418 0.23389 0.0
C1343 C 0.34308 0.47094 0.42557 0.0
C1344 C 0.33154 0.47844 0.44898 0.0
C1345 C 0.34459 0.46893 0.3631 0.0
C1346 C 0.33386 0.48405 0.21634 0.0
H1347 H 0.36359 0.4519 0.96024 0.0
H1348 H 0.36077 0.45502 0.06908 0.0
H1349 H 0.33384 0.49156 0.12498 0.0
H1350 H 0.31232 0.48933 0.42436 0.0
H1351 H 0.31503 0.48592 0.31572 0.0
H1352 H 0.3429 0.4509 0.26024 0.0
C1353 C 0.35322 0.45991 0.03904 0.0
C1354 C 0.3357 0.48253 0.15381 0.0
C1355 C 0.35487 0.45814 0.97655 0.0
C1356 C 0.32146 0.4837 0.40819 0.0
C1357 C 0.32301 0.48175 0.34576 0.0
C1358 C 0.34097 0.45987 0.23119 0.0
C1359 C 0.34208 0.46801 0.06232 0.0
C1360 C 0.34016 0.46965 0.12905 0.0
C1361 C 0.33464 0.47443 0.3224 0.0
C1362 C 0.33649 0.47275 0.25581 0.0
H1363 H 0.32694 0.4776 0.92859 0.0
H1364 H 0.32394 0.48057 0.03744 0.0
H1365 H 0.34594 0.44818 0.15122 0.0
H1366 H 0.35118 0.46692 0.4553 0.0
H1367 H 0.35376 0.46338 0.34659 0.0
C1368 C 0.02575 0.14598 0.58499 0.0
C1369 C 0.01674 0.1564 0.56162 0.0
C1370 C 0.02816 0.14493 0.64741 0.0
C1371 C 0.01241 0.15432 0.79486 0.0
H1372 H 0.04979 0.14742 0.858 0.0
C1373 C 0.0246 0.1571 0.05124 0.0
C1374 C 0.0342 0.14734 0.07525 0.0
C1375 C 0.02257 0.15817 0.98862 0.0
C1376 C 0.03925 0.14916 0.84118 0.0
H1377 H 0.00359 0.17415 0.58619 0.0
H1378 H 0.00771 0.17224 0.69457 0.0
H1379 H 0.04622 0.1493 0.74889 0.0
H1380 H 0.04895 0.13083 0.05202 0.0
H1381 H 0.0453 0.13255 0.94308 0.0
H1382 H 0.00537 0.15405 0.88686 0.0
C1383 C 0.01274 0.16475 0.66466 0.0
C1384 C 0.03721 0.15026 0.77855 0.0
C1385 C 0.01038 0.16584 0.60233 0.0
C1386 C 0.04164 0.13861 0.03507 0.0
C1387 C 0.03956 0.13962 0.97249 0.0
C1388 C 0.01442 0.15314 0.85743 0.0
C1389 C 0.02159 0.15423 0.68805 0.0
C1390 C 0.02378 0.15291 0.75463 0.0
C1391 C 0.03003 0.14945 0.94834 0.0
C1392 C 0.02787 0.15059 0.88152 0.0
H1393 H 0.03068 0.1384 0.55526 0.0
H1394 H 0.03492 0.13661 0.66398 0.0
H1395 H 0.00188 0.15612 0.77792 0.0
H1396 H 0.01885 0.16412 0.08078 0.0
H1397 H 0.01531 0.16602 0.97177 0.0
C1398 C 0.3417 0.9955 0.10467 0.0
C1399 C 0.33975 0.00655 0.06315 0.0
C1400 C 0.34217 -0.00189 0.16695 0.0
C1401 C 0.34787 0.02645 0.27991 0.0
H1402 H 0.33025 -0.00012 0.38935 0.0
C1403 C 0.34177 0.0373 0.53688 0.0
C1404 C 0.34443 0.02606 0.57678 0.0
C1405 C 0.34108 0.03509 0.47428 0.0
C1406 C 0.33535 0.00733 0.35949 0.0
H1407 H 0.3367 0.02906 0.05517 0.0
H1408 H 0.33743 0.03362 0.16391 0.0
H1409 H 0.32917 0.99587 0.28047 0.0
H1410 H 0.34864 0.00366 0.5812 0.0
H1411 H 0.34733 -0.0002 0.4723 0.0
H1412 H 0.35398 0.03794 0.35916 0.0
C1413 C 0.3388 0.02293 0.14813 0.0
C1414 C 0.33474 0.00503 0.29695 0.0
C1415 C 0.33837 0.02032 0.08566 0.0
C1416 C 0.34634 0.01254 0.55223 0.0
C1417 C 0.34561 0.01032 0.48962 0.0
C1418 C 0.34844 0.02877 0.34251 0.0
C1419 C 0.34066 0.01184 0.18963 0.0
C1420 C 0.34105 0.01452 0.25627 0.0
C1421 C 0.34298 0.02157 0.44982 0.0
C1422 C 0.34224 0.01921 0.38312 0.0
H1423 H 0.34309 0.9848 0.08904 0.0
H1424 H 0.34392 0.98934 0.1973 0.0
H1425 H 0.35302 0.03388 0.25013 0.0
H1426 H 0.34001 0.04782 0.55392 0.0
H1427 H 0.33883 0.04395 0.44506 0.0
C1428 C 0.49138 0.3312 0.59431 0.0
C1429 C 0.48392 0.33984 0.55379 0.0
C1430 C 0.48898 0.33204 0.65663 0.0
C1431 C 0.46326 0.34415 0.77085 0.0
H1432 H 0.49549 0.34355 0.87838 0.0
C1433 C 0.45882 0.35712 0.02599 0.0
C1434 C 0.46685 0.34905 0.0666 0.0
C1435 C 0.46071 0.35579 0.96346 0.0
C1436 C 0.48636 0.34355 0.8491 0.0
H1437 H 0.46803 0.35613 0.54752 0.0
H1438 H 0.46382 0.35755 0.65627 0.0
H1439 H 0.499 0.34153 0.76945 0.0
H1440 H 0.48297 0.33299 0.07292 0.0
H1441 H 0.48625 0.33064 0.964 0.0
H1442 H 0.45062 0.34618 0.85057 0.0
C1443 C 0.47142 0.35001 0.63963 0.0
C1444 C 0.48837 0.3424 0.78659 0.0
C1445 C 0.47383 0.34919 0.57721 0.0
C1446 C 0.47678 0.33956 0.0431 0.0
C1447 C 0.47865 0.3382 0.98055 0.0
C1448 C 0.46125 0.34528 0.83342 0.0
C1449 C 0.47906 0.34152 0.68013 0.0
C1450 C 0.47685 0.34269 0.74668 0.0
C1451 C 0.47066 0.34632 0.93993 0.0
C1452 C 0.47277 0.34501 0.87334 0.0
H1453 H 0.49903 0.32371 0.57789 0.0
H1454 H 0.49485 0.32516 0.68644 0.0
H1455 H 0.45415 0.34421 0.74145 0.0
H1456 H 0.45124 0.36468 0.04255 0.0
H1457 H 0.45453 0.36237 0.93357 0.0
C1458 C 0.15233 0.46461 0.10005 0.0
C1459 C 0.15416 0.47829 0.0773 0.0
C1460 C 0.15129 0.46224 0.16252 0.0
C1461 C 0.15917 0.47899 0.31108 0.0
H1462 H 0.13324 0.45106 0.37322 0.0
C1463 C 0.14607 0.47404 0.56617 0.0
C1464 C 0.14536 0.46038 0.59052 0.0
C1465 C 0.1472 0.47612 0.5036 0.0
C1466 C 0.14063 0.45881 0.35655 0.0
H1467 H 0.15592 0.50025 0.10251 0.0
H1468 H 0.15397 0.4962 0.21091 0.0
H1469 H 0.13504 0.45481 0.26421 0.0
H1470 H 0.14551 0.43819 0.56724 0.0
H1471 H 0.14732 0.44184 0.45849 0.0
H1472 H 0.16463 0.48308 0.40354 0.0
C1473 C 0.15369 0.48721 0.18078 0.0
C1474 C 0.14169 0.46094 0.29399 0.0
C1475 C 0.15479 0.48955 0.11848 0.0
C1476 C 0.14579 0.44887 0.55044 0.0
C1477 C 0.14685 0.45095 0.48789 0.0
C1478 C 0.15805 0.47691 0.3736 0.0
C1479 C 0.15199 0.47352 0.20375 0.0
C1480 C 0.15096 0.47108 0.27039 0.0
C1481 C 0.14758 0.4646 0.4637 0.0
C1482 C 0.14876 0.4668 0.39712 0.0
H1483 H 0.15196 0.45568 0.06972 0.0
H1484 H 0.15019 0.45154 0.17851 0.0
H1485 H 0.16662 0.48671 0.29465 0.0
H1486 H 0.14554 0.48318 0.59523 0.0
H1487 H 0.14755 0.48677 0.48638 0.0
C1488 C 0.97713 0.65352 0.53177 0.0
C1489 C 0.96832 0.64293 0.55494 0.0
C1490 C 0.97884 0.65519 0.46924 0.0
C1491 C 0.96227 0.64652 0.32185 0.0
H1492 H -0.00067 0.65455 0.2577 0.0
C1493 C 0.97491 0.64444 0.06531 0.0
C1494 C 0.98398 0.65478 0.04193 0.0
C1495 C 0.97267 0.64329 0.12777 0.0
C1496 C 0.98887 0.65248 0.27488 0.0
H1497 H 0.95457 0.62569 0.53022 0.0
H1498 H 0.95757 0.62856 0.42135 0.0
H1499 H 0.99613 0.65197 0.36661 0.0
H1500 H -0.00257 0.67231 0.06618 0.0
H1501 H 0.99354 0.67032 0.17481 0.0
H1502 H 0.95503 0.64697 0.23 0.0
C1503 C 0.96298 0.63574 0.45148 0.0
C1504 C 0.98704 0.651 0.33739 0.0
C1505 C 0.96126 0.63408 0.51397 0.0
C1506 C 0.99058 0.66407 0.08256 0.0
C1507 C 0.98835 0.66292 0.14494 0.0
C1508 C 0.96411 0.64799 0.2593 0.0
C1509 C 0.9718 0.64631 0.42829 0.0
C1510 C 0.97371 0.64799 0.3617 0.0
C1511 C 0.97945 0.65245 0.1684 0.0
C1512 C 0.97743 0.65098 0.23501 0.0
H1513 H 0.98254 0.6607 0.5618 0.0
H1514 H 0.98553 0.66359 0.45298 0.0
H1515 H 0.95182 0.64442 0.33905 0.0
H1516 H 0.9698 0.63698 0.03556 0.0
H1517 H 0.96589 0.63499 0.14431 0.0
C1518 C 0.84525 0.95865 0.0367 0.0
C1519 C 0.84801 0.97005 0.07553 0.0
C1520 C 0.84416 0.96066 0.97412 0.0
C1521 C 0.83759 0.98801 0.85866 0.0
H1522 H 0.85541 0.96156 0.74927 0.0
C1523 C 0.84372 -0.00037 0.60399 0.0
C1524 C 0.84158 0.98855 0.56285 0.0
C1525 C 0.84429 -0.00291 0.66624 0.0
C1526 C 0.85022 0.96895 0.77913 0.0
H1527 H 0.85199 0.99251 0.07839 0.0
H1528 H 0.85002 0.99601 0.96951 0.0
H1529 H 0.85668 0.95767 0.85837 0.0
H1530 H 0.8383 0.96605 0.55532 0.0
H1531 H 0.83925 0.9616 0.66409 0.0
H1532 H 0.83112 -0.0007 0.77963 0.0
C1533 C 0.84849 0.98553 0.98759 0.0
C1534 C 0.85095 0.96673 0.84169 0.0
C1535 C 0.84961 0.98352 0.05012 0.0
C1536 C 0.84013 0.97481 0.58561 0.0
C1537 C 0.84068 0.97226 0.64801 0.0
C1538 C 0.83683 0.99022 0.79617 0.0
C1539 C 0.84578 0.97412 0.94881 0.0
C1540 C 0.84472 0.97628 0.88221 0.0
C1541 C 0.84271 0.98338 0.68912 0.0
C1542 C 0.84321 0.98077 0.7556 0.0
H1543 H 0.84374 0.94817 0.0546 0.0
H1544 H 0.84186 0.95168 0.9456 0.0
H1545 H 0.83246 0.99545 0.88857 0.0
H1546 H 0.84516 0.0103 0.58811 0.0
H1547 H 0.84616 0.00587 0.69643 0.0
C1548 C 0.53721 0.85496 0.52991 0.0
C1549 C 0.52885 0.84713 0.57018 0.0
C1550 C 0.53506 0.85412 0.46732 0.0
C1551 C 0.5086 0.84352 0.35228 0.0
H1552 H 0.54065 0.84347 0.24387 0.0
C1553 C 0.50291 0.8316 0.09707 0.0
C1554 C 0.5105 0.84007 0.05636 0.0
C1555 C 0.50541 0.83235 0.1594 0.0
C1556 C 0.53158 0.84362 0.27347 0.0
H1557 H 0.51176 0.83212 0.57573 0.0
H1558 H 0.50806 0.83056 0.46672 0.0
H1559 H 0.54439 0.84497 0.35299 0.0
H1560 H 0.52678 0.85597 0.04993 0.0
H1561 H 0.53121 0.8572 0.15868 0.0
H1562 H 0.4958 0.84208 0.27276 0.0
C1563 C 0.51613 0.83757 0.48355 0.0
C1564 C 0.53372 0.84449 0.33612 0.0
C1565 C 0.51826 0.83846 0.54619 0.0
C1566 C 0.52086 0.84915 0.0797 0.0
C1567 C 0.52339 0.84987 0.14215 0.0
C1568 C 0.50647 0.8426 0.2897 0.0
C1569 C 0.52451 0.84539 0.44322 0.0
C1570 C 0.52225 0.84445 0.37641 0.0
C1571 C 0.5156 0.84157 0.18283 0.0
C1572 C 0.51793 0.84261 0.24947 0.0
H1573 H 0.54531 0.86193 0.54677 0.0
H1574 H 0.54155 0.86049 0.43785 0.0
H1575 H 0.4995 0.84372 0.38171 0.0
H1576 H 0.49505 0.82429 0.08088 0.0
H1577 H 0.49941 0.82561 0.18928 0.0
C1578 C 0.64695 0.51907 0.04866 0.0
C1579 C 0.64588 0.53271 0.07309 0.0
C1580 C 0.64842 0.51704 0.98616 0.0
C1581 C 0.64238 0.53438 0.83856 0.0
H1582 H 0.66919 0.50703 0.77872 0.0
C1583 C 0.65549 0.52935 0.58316 0.0
C1584 C 0.6576 0.51575 0.55986 0.0
C1585 C 0.65422 0.53155 0.64567 0.0
C1586 C 0.66152 0.51459 0.79454 0.0
H1587 H 0.64575 0.5549 0.04986 0.0
H1588 H 0.64813 0.55133 0.94137 0.0
H1589 H 0.66645 0.5104 0.8875 0.0
H1590 H 0.65972 0.49377 0.58436 0.0
H1591 H 0.65739 0.49756 0.69278 0.0
H1592 H 0.63731 0.53848 0.74576 0.0
C1593 C 0.64768 0.5422 0.97062 0.0
C1594 C 0.65996 0.51653 0.85702 0.0
C1595 C 0.64628 0.54424 0.03308 0.0
C1596 C 0.65838 0.50442 0.60067 0.0
C1597 C 0.65704 0.5066 0.66304 0.0
C1598 C 0.64387 0.53239 0.77607 0.0
C1599 C 0.64879 0.52858 0.94636 0.0
C1600 C 0.65038 0.52645 0.87982 0.0
C1601 C 0.65495 0.5202 0.68649 0.0
C1602 C 0.65346 0.52246 0.75315 0.0
H1603 H 0.64648 0.50991 0.07762 0.0
H1604 H 0.64907 0.5064 0.96889 0.0
H1605 H 0.63476 0.54198 0.8546 0.0
H1606 H 0.655 0.53834 0.55321 0.0
H1607 H 0.65284 0.5422 0.66201 0.0
C1608 C 0.99078 0.83416 0.39161 0.0
C1609 C 0.97952 0.83419 0.43284 0.0
C1610 C 0.98838 0.83537 0.32939 0.0
C1611 C 0.96131 0.83014 0.21213 0.0
H1612 H 0.98537 0.85425 0.11569 0.0
C1613 C 0.94999 0.8416 0.95945 0.0
C1614 C 0.9615 0.84247 0.91957 0.0
C1615 C 0.95206 0.84068 0.02204 0.0
C1616 C 0.97866 0.84733 0.14173 0.0
H1617 H 0.95684 0.83541 0.44053 0.0
H1618 H 0.95264 0.83759 0.33174 0.0
H1619 H 0.9891 0.85257 0.22464 0.0
H1620 H 0.98427 0.8431 0.91515 0.0
H1621 H 0.98787 0.84109 0.02388 0.0
H1622 H 0.95097 0.82476 0.12923 0.0
C1623 C 0.96335 0.83657 0.34777 0.0
C1624 C 0.98079 0.84639 0.20429 0.0
C1625 C 0.96576 0.83545 0.41018 0.0
C1626 C 0.97514 0.84231 0.94413 0.0
C1627 C 0.97721 0.84134 0.00676 0.0
C1628 C 0.95923 0.83102 0.14949 0.0
C1629 C 0.97464 0.83657 0.30665 0.0
C1630 C 0.97216 0.83777 0.24024 0.0
C1631 C 0.9657 0.84054 0.04659 0.0
C1632 C 0.96789 0.83961 0.1134 0.0
H1633 H 0.00152 0.83338 0.40747 0.0
H1634 H -0.00269 0.83519 0.29898 0.0
H1635 H 0.95461 0.82326 0.23839 0.0
H1636 H 0.93933 0.84153 0.94247 0.0
H1637 H 0.94293 0.84024 0.05123 0.0
C1638 C 0.64821 0.97319 0.93618 0.0
C1639 C 0.65752 0.98332 0.95949 0.0
C1640 C 0.64724 0.97089 0.87372 0.0
C1641 C 0.65416 0.98824 0.72728 0.0
H1642 H 0.65095 0.95054 0.66179 0.0
C1643 C 0.6568 0.97714 0.47029 0.0
C1644 C 0.6476 0.96695 0.44676 0.0
C1645 C 0.65812 0.97902 0.53285 0.0
C1646 C 0.65168 0.96115 0.67937 0.0
H1647 H 0.67348 -0.0014 0.93521 0.0
H1648 H 0.67176 0.99463 0.82657 0.0
H1649 H 0.65312 0.95386 0.77096 0.0
H1650 H 0.63237 0.95094 0.47062 0.0
H1651 H 0.63458 0.95427 0.57963 0.0
H1652 H 0.65263 0.99555 0.63589 0.0
C1653 C 0.66502 0.98864 0.85651 0.0
C1654 C 0.65293 0.96305 0.74196 0.0
C1655 C 0.666 0.99092 0.91887 0.0
C1656 C 0.63971 0.95873 0.48727 0.0
C1657 C 0.64099 0.96063 0.5498 0.0
C1658 C 0.65288 0.98635 0.66475 0.0
C1659 C 0.65555 0.97868 0.83314 0.0
C1660 C 0.65421 0.97661 0.76663 0.0
C1661 C 0.65024 0.97078 0.57339 0.0
C1662 C 0.65163 0.97278 0.63999 0.0
H1663 H 0.64139 0.96728 0.96597 0.0
H1664 H 0.63972 0.96325 0.85714 0.0
H1665 H 0.6549 -0.00116 0.74489 0.0
H1666 H 0.66322 0.98349 0.44049 0.0
H1667 H 0.66551 0.98678 0.54945 0.0
C1668 C 0.51417 0.65648 0.97473 0.0
C1669 C 0.52382 0.64667 0.95144 0.0
C1670 C 0.51234 0.65797 0.03726 0.0
C1671 C 0.52961 0.65065 0.18444 0.0
H1672 H 0.49201 0.65541 0.24875 0.0
C1673 C 0.51714 0.64724 0.44083 0.0
C1674 C 0.50724 0.65678 0.4643 0.0
C1675 C 0.51949 0.64635 0.37838 0.0
C1676 C 0.5026 0.65426 0.23151 0.0
H1677 H 0.53897 0.63062 0.97593 0.0
H1678 H 0.53577 0.63319 0.08482 0.0
H1679 H 0.4954 0.6532 0.1398 0.0
H1680 H 0.49242 0.67319 0.4403 0.0
H1681 H 0.49651 0.67163 0.33168 0.0
H1682 H 0.53679 0.65164 0.27629 0.0
C1683 C 0.52978 0.6399 0.05477 0.0
C1684 C 0.50454 0.653 0.16899 0.0
C1685 C 0.53161 0.63842 0.99228 0.0
C1686 C 0.49993 0.66555 0.42382 0.0
C1687 C 0.50227 0.66465 0.36146 0.0
C1688 C 0.52766 0.6519 0.24701 0.0
C1689 C 0.52011 0.64969 0.07808 0.0
C1690 C 0.51807 0.65117 0.14465 0.0
C1691 C 0.512 0.65497 0.3379 0.0
C1692 C 0.51413 0.65372 0.27132 0.0
H1693 H 0.50816 0.66318 0.94477 0.0
H1694 H 0.50497 0.66577 0.05364 0.0
H1695 H 0.5402 0.64947 0.16719 0.0
H1696 H 0.52282 0.6402 0.47049 0.0
H1697 H 0.52693 0.63865 0.36173 0.0
C1698 C 0.84489 0.51629 0.44305 0.0
C1699 C 0.8458 0.52993 0.41859 0.0
C1700 C 0.84366 0.51427 0.50562 0.0
C1701 C 0.85028 0.53163 0.65252 0.0
H1702 H 0.82385 0.50414 0.71432 0.0
C1703 C 0.83816 0.52623 0.90878 0.0
C1704 C 0.83618 0.51258 0.93168 0.0
C1705 C 0.83928 0.52853 0.8463 0.0
C1706 C 0.83142 0.51174 0.6979 0.0
H1707 H 0.84588 0.55214 0.44159 0.0
H1708 H 0.8439 0.54858 0.55031 0.0
H1709 H 0.82603 0.50762 0.60539 0.0
H1710 H 0.83427 0.49061 0.90675 0.0
H1711 H 0.83637 0.49456 0.79836 0.0
H1712 H 0.85579 0.53566 0.74492 0.0
C1713 C 0.8443 0.53945 0.52103 0.0
C1714 C 0.83265 0.51374 0.63538 0.0
C1715 C 0.84546 0.54147 0.45851 0.0
C1716 C 0.8355 0.50129 0.89065 0.0
C1717 C 0.83669 0.50357 0.82836 0.0
C1718 C 0.84911 0.52958 0.71508 0.0
C1719 C 0.84338 0.52583 0.54536 0.0
C1720 C 0.8421 0.5237 0.61192 0.0
C1721 C 0.83854 0.51722 0.80524 0.0
C1722 C 0.83967 0.51959 0.73863 0.0
H1723 H 0.84533 0.50714 0.41406 0.0
H1724 H 0.84316 0.50363 0.52297 0.0
H1725 H 0.85779 0.53926 0.63588 0.0
H1726 H 0.83858 0.53518 0.939 0.0
H1727 H 0.84051 0.53921 0.83016 0.0
loop_
_geom_bond_atom_site_label_1
_geom_bond_atom_site_label_2
_geom_bond_distance
_geom_bond_site_symmetry_2
_ccdc_geom_bond_type
Co0 N4 2.148 . S
Co0 N10 2.128 . S
Co0 N20 2.194 . S
Co0 O25 2.351 . S
Co0 O26 2.155 . S
Co0 O27 2.096 . S
C1 N4 1.301 . S
C1 N5 1.328 . S
C1 H6 0.930 . S
C2 C3 1.333 . S
C2 N4 1.317 . S
C2 H7 0.930 . S
C3 C2 1.333 . S
C3 N5 1.350 . S
C3 H29 0.931 . S
N4 Co0 2.148 . S
N4 C1 1.301 . S
N4 C2 1.317 . S
N5 C1 1.328 . S
N5 C3 1.350 . S
H6 C1 0.930 . S
H7 C2 0.930 . S
C8 O9 1.224 . S
C8 O27 1.247 . S
O9 C8 1.224 . S
N10 Co0 2.128 . S
N10 C11 1.355 . S
N10 C13 1.311 1_554 S
C11 N10 1.355 . S
C11 C12 1.363 1_554 S
C11 H23 0.929 1_455 S
C12 C11 1.363 1_556 S
C12 N14 1.375 . S
C12 H30 0.931 1_455 S
C13 N10 1.311 1_556 S
C13 N14 1.347 . S
C13 H24 0.930 . S
N14 C12 1.375 . S
N14 C13 1.347 . S
C15 C18 1.365 . S
C15 N20 1.328 1_655 S
C15 H21 0.929 . S
C16 C17 1.362 . S
C16 C19 1.378 1_655 S
C16 H31 0.929 . S
C17 C16 1.362 . S
C17 C18 1.366 . S
C18 C15 1.365 . S
C18 C17 1.366 . S
C18 H32 0.930 . S
C19 C16 1.378 1_455 S
C19 N20 1.315 . S
C19 H22 0.930 . S
N20 Co0 2.194 . S
N20 C15 1.328 1_455 S
N20 C19 1.315 . S
H21 C15 0.929 . S
H22 C19 0.930 . S
H23 C11 0.929 1_655 S
H24 C13 0.930 . S
O25 Co0 2.351 . S
O25 C28 1.244 . S
O26 Co0 2.155 . S
O26 C28 1.240 . S
O27 Co0 2.096 . S
O27 C8 1.247 . S
C28 O25 1.244 . S
C28 O26 1.240 . S
H29 C3 0.931 . S
H30 C12 0.931 1_655 S
H31 C16 0.929 . S
H32 C18 0.930 . S
Co33 N37 2.148 . S
Co33 N43 2.128 . S
Co33 N53 2.194 . S
Co33 O58 2.351 . S
Co33 O59 2.155 . S
Co33 O60 2.096 . S
C34 N37 1.301 . S
C34 N38 1.328 . S
C34 H39 0.930 . S
C35 C36 1.333 . S
C35 N37 1.317 . S
C35 H40 0.930 . S
C36 C35 1.333 . S
C36 N38 1.350 . S
C36 H62 0.931 . S
N37 Co33 2.148 . S
N37 C34 1.301 . S
N37 C35 1.317 . S
N38 C34 1.328 . S
N38 C36 1.350 . S
H39 C34 0.930 . S
H40 C35 0.930 . S
C41 O42 1.224 . S
C41 O60 1.247 . S
O42 C41 1.224 . S
N43 Co33 2.128 . S
N43 C44 1.355 . S
N43 C46 1.311 . S
C44 N43 1.355 . S
C44 C45 1.363 . S
C44 H56 0.929 1_545 S
C45 C44 1.363 . S
C45 N47 1.375 . S
C45 H63 0.931 1_545 S
C46 N43 1.311 . S
C46 N47 1.347 . S
C46 H57 0.929 . S
N47 C45 1.375 . S
N47 C46 1.347 . S
C48 C51 1.365 . S
C48 N53 1.328 1_565 S
C48 H54 0.929 . S
C49 C50 1.362 . S
C49 C52 1.378 1_565 S
C49 H64 0.929 . S
C50 C49 1.362 . S
C50 C51 1.366 . S
C51 C48 1.365 . S
C51 C50 1.366 . S
C51 H65 0.930 . S
C52 C49 1.378 1_545 S
C52 N53 1.315 . S
C52 H55 0.930 . S
N53 Co33 2.194 . S
N53 C48 1.328 1_545 S
N53 C52 1.315 . S
H54 C48 0.929 . S
H55 C52 0.930 . S
H56 C44 0.929 1_565 S
H57 C46 0.929 . S
O58 Co33 2.351 . S
O58 C61 1.244 . S
O59 Co33 2.155 . S
O59 C61 1.240 . S
O60 Co33 2.096 . S
O60 C41 1.247 . S
C61 O58 1.244 . S
C61 O59 1.240 . S
H62 C36 0.931 . S
H63 C45 0.931 1_565 S
H64 C49 0.929 . S
H65 C51 0.930 . S
Co66 N70 2.148 . S
Co66 N76 2.128 . S
Co66 N86 2.194 . S
Co66 O91 2.351 . S
Co66 O92 2.155 . S
Co66 O93 2.096 . S
C67 N70 1.301 . S
C67 N71 1.328 . S
C67 H72 0.930 . S
C68 C69 1.333 . S
C68 N70 1.317 . S
C68 H73 0.930 . S
C69 C68 1.333 . S
C69 N71 1.350 . S
C69 H95 0.931 . S
N70 Co66 2.148 . S
N70 C67 1.301 . S
N70 C68 1.317 . S
N71 C67 1.328 . S
N71 C69 1.350 . S
H72 C67 0.930 . S
H73 C68 0.930 . S
C74 O75 1.224 . S
C74 O93 1.247 . S
O75 C74 1.224 . S
N76 Co66 2.128 . S
N76 C77 1.355 . S
N76 C79 1.311 1_554 S
C77 N76 1.355 . S
C77 C78 1.363 1_554 S
C77 H89 0.929 . S
C78 C77 1.363 1_556 S
C78 N80 1.375 . S
C78 H96 0.931 . S
C79 N76 1.311 1_556 S
C79 N80 1.347 . S
C79 H90 0.930 . S
N80 C78 1.375 . S
N80 C79 1.347 . S
C81 C84 1.365 . S
C81 N86 1.328 . S
C81 H87 0.929 . S
C82 C83 1.362 . S
C82 C85 1.378 . S
C82 H97 0.929 . S
C83 C82 1.362 . S
C83 C84 1.366 . S
C84 C81 1.365 . S
C84 C83 1.366 . S
C84 H98 0.930 . S
C85 C82 1.378 . S
C85 N86 1.315 . S
C85 H88 0.930 . S
N86 Co66 2.194 . S
N86 C81 1.328 . S
N86 C85 1.315 . S
H87 C81 0.929 . S
H88 C85 0.930 . S
H89 C77 0.929 . S
H90 C79 0.930 . S
O91 Co66 2.351 . S
O91 C94 1.244 . S
O92 Co66 2.155 . S
O92 C94 1.240 . S
O93 Co66 2.096 . S
O93 C74 1.247 . S
C94 O91 1.244 . S
C94 O92 1.240 . S
H95 C69 0.931 . S
H96 C78 0.931 . S
H97 C82 0.929 . S
H98 C84 0.930 . S
Co99 N103 2.148 . S
Co99 N109 2.128 . S
Co99 N119 2.194 . S
Co99 O124 2.351 . S
Co99 O125 2.155 . S
Co99 O126 2.096 . S
C100 N103 1.301 . S
C100 N104 1.328 . S
C100 H105 0.930 . S
C101 C102 1.333 . S
C101 N103 1.317 . S
C101 H106 0.930 . S
C102 C101 1.333 . S
C102 N104 1.350 . S
C102 H128 0.931 . S
N103 Co99 2.148 . S
N103 C100 1.301 . S
N103 C101 1.317 . S
N104 C100 1.328 . S
N104 C102 1.350 . S
H105 C100 0.930 . S
H106 C101 0.930 . S
C107 O108 1.224 . S
C107 O126 1.247 . S
O108 C107 1.224 . S
N109 Co99 2.128 . S
N109 C110 1.355 . S
N109 C112 1.311 . S
C110 N109 1.355 . S
C110 C111 1.363 . S
C110 H122 0.929 . S
C111 C110 1.363 . S
C111 N113 1.375 . S
C111 H129 0.931 . S
C112 N109 1.311 . S
C112 N113 1.347 . S
C112 H123 0.929 . S
N113 C111 1.375 . S
N113 C112 1.347 . S
C114 C117 1.365 . S
C114 N119 1.328 . S
C114 H120 0.929 . S
C115 C116 1.362 . S
C115 C118 1.378 . S
C115 H130 0.929 . S
C116 C115 1.362 . S
C116 C117 1.366 . S
C117 C114 1.365 . S
C117 C116 1.366 . S
C117 H131 0.930 . S
C118 C115 1.378 . S
C118 N119 1.315 . S
C118 H121 0.930 . S
N119 Co99 2.194 . S
N119 C114 1.328 . S
N119 C118 1.315 . S
H120 C114 0.929 . S
H121 C118 0.930 . S
H122 C110 0.929 . S
H123 C112 0.929 . S
O124 Co99 2.351 . S
O124 C127 1.244 . S
O125 Co99 2.155 . S
O125 C127 1.240 . S
O126 Co99 2.096 . S
O126 C107 1.247 . S
C127 O124 1.244 . S
C127 O125 1.240 . S
H128 C102 0.931 . S
H129 C111 0.931 . S
H130 C115 0.929 . S
H131 C117 0.930 . S
Co132 N136 2.148 . S
Co132 N142 2.128 . S
Co132 N152 2.194 . S
Co132 O157 2.351 . S
Co132 O158 2.155 . S
Co132 O159 2.096 . S
C133 N136 1.301 . S
C133 N137 1.328 . S
C133 H138 0.930 . S
C134 C135 1.333 . S
C134 N136 1.317 . S
C134 H139 0.930 . S
C135 C134 1.333 . S
C135 N137 1.350 . S
C135 H161 0.931 . S
N136 Co132 2.148 . S
N136 C133 1.301 . S
N136 C134 1.317 . S
N137 C133 1.328 . S
N137 C135 1.350 . S
H138 C133 0.930 . S
H139 C134 0.930 . S
C140 O141 1.224 . S
C140 O159 1.247 . S
O141 C140 1.224 . S
N142 Co132 2.128 . S
N142 C143 1.355 . S
N142 C145 1.311 . S
C143 N142 1.355 . S
C143 C144 1.363 . S
C143 H155 0.929 1_455 S
C144 C143 1.363 . S
C144 N146 1.375 . S
C144 H162 0.931 1_455 S
C145 N142 1.311 . S
C145 N146 1.347 . S
C145 H156 0.929 . S
N146 C144 1.375 . S
N146 C145 1.347 . S
C147 C150 1.365 . S
C147 N152 1.328 1_655 S
C147 H153 0.929 . S
C148 C149 1.362 . S
C148 C151 1.378 1_655 S
C148 H163 0.929 . S
C149 C148 1.362 . S
C149 C150 1.366 . S
C150 C147 1.365 . S
C150 C149 1.366 . S
C150 H164 0.930 . S
C151 C148 1.378 1_455 S
C151 N152 1.315 . S
C151 H154 0.930 . S
N152 Co132 2.194 . S
N152 C147 1.328 1_455 S
N152 C151 1.315 . S
H153 C147 0.929 . S
H154 C151 0.930 . S
H155 C143 0.929 1_655 S
H156 C145 0.929 . S
O157 Co132 2.351 . S
O157 C160 1.244 . S
O158 Co132 2.155 . S
O158 C160 1.240 . S
O159 Co132 2.096 . S
O159 C140 1.247 . S
C160 O157 1.244 . S
C160 O158 1.240 . S
H161 C135 0.931 . S
H162 C144 0.931 1_655 S
H163 C148 0.929 . S
H164 C150 0.930 . S
Co165 N169 2.148 . S
Co165 N175 2.128 . S
Co165 N185 2.194 . S
Co165 O190 2.351 . S
Co165 O191 2.155 . S
Co165 O192 2.096 . S
C166 N169 1.301 . S
C166 N170 1.328 . S
C166 H171 0.930 . S
C167 C168 1.333 . S
C167 N169 1.317 . S
C167 H172 0.930 . S
C168 C167 1.333 . S
C168 N170 1.350 . S
C168 H194 0.931 . S
N169 Co165 2.148 . S
N169 C166 1.301 . S
N169 C167 1.317 . S
N170 C166 1.328 . S
N170 C168 1.350 . S
H171 C166 0.930 . S
H172 C167 0.930 . S
C173 O174 1.224 . S
C173 O192 1.247 . S
O174 C173 1.224 . S
N175 Co165 2.128 . S
N175 C176 1.355 . S
N175 C178 1.311 1_556 S
C176 N175 1.355 . S
C176 C177 1.363 1_556 S
C176 H188 0.929 1_545 S
C177 C176 1.363 1_554 S
C177 N179 1.375 . S
C177 H195 0.931 1_545 S
C178 N175 1.311 1_554 S
C178 N179 1.347 . S
C178 H189 0.930 . S
N179 C177 1.375 . S
N179 C178 1.347 . S
C180 C183 1.365 . S
C180 N185 1.328 1_565 S
C180 H186 0.929 . S
C181 C182 1.362 . S
C181 C184 1.378 1_565 S
C181 H196 0.929 . S
C182 C181 1.362 . S
C182 C183 1.366 . S
C183 C180 1.365 . S
C183 C182 1.366 . S
C183 H197 0.930 . S
C184 C181 1.378 1_545 S
C184 N185 1.315 . S
C184 H187 0.930 . S
N185 Co165 2.194 . S
N185 C180 1.328 1_545 S
N185 C184 1.315 . S
H186 C180 0.929 . S
H187 C184 0.930 . S
H188 C176 0.929 1_565 S
H189 C178 0.930 . S
O190 Co165 2.351 . S
O190 C193 1.244 . S
O191 Co165 2.155 . S
O191 C193 1.240 . S
O192 Co165 2.096 . S
O192 C173 1.247 . S
C193 O190 1.244 . S
C193 O191 1.240 . S
H194 C168 0.931 . S
H195 C177 0.931 1_565 S
H196 C181 0.929 . S
H197 C183 0.930 . S
Co198 N202 2.148 . S
Co198 N208 2.128 . S
Co198 N218 2.194 . S
Co198 O223 2.351 . S
Co198 O224 2.155 . S
Co198 O225 2.096 . S
C199 N202 1.301 . S
C199 N203 1.328 . S
C199 H204 0.930 . S
C200 C201 1.333 . S
C200 N202 1.317 . S
C200 H205 0.930 . S
C201 C200 1.333 . S
C201 N203 1.350 . S
C201 H227 0.931 . S
N202 Co198 2.148 . S
N202 C199 1.301 . S
N202 C200 1.317 . S
N203 C199 1.328 . S
N203 C201 1.350 . S
H204 C199 0.930 . S
H205 C200 0.930 . S
C206 O207 1.224 . S
C206 O225 1.247 . S
O207 C206 1.224 . S
N208 Co198 2.128 . S
N208 C209 1.355 . S
N208 C211 1.311 . S
C209 N208 1.355 . S
C209 C210 1.363 . S
C209 H221 0.929 . S
C210 C209 1.363 . S
C210 N212 1.375 . S
C210 H228 0.931 . S
C211 N208 1.311 . S
C211 N212 1.347 . S
C211 H222 0.929 . S
N212 C210 1.375 . S
N212 C211 1.347 . S
C213 C216 1.365 . S
C213 N218 1.328 . S
C213 H219 0.929 . S
C214 C215 1.362 . S
C214 C217 1.378 . S
C214 H229 0.929 . S
C215 C214 1.362 . S
C215 C216 1.366 . S
C216 C213 1.365 . S
C216 C215 1.366 . S
C216 H230 0.930 . S
C217 C214 1.378 . S
C217 N218 1.315 . S
C217 H220 0.930 . S
N218 Co198 2.194 . S
N218 C213 1.328 . S
N218 C217 1.315 . S
H219 C213 0.929 . S
H220 C217 0.930 . S
H221 C209 0.929 . S
H222 C211 0.929 . S
O223 Co198 2.351 . S
O223 C226 1.244 . S
O224 Co198 2.155 . S
O224 C226 1.240 . S
O225 Co198 2.096 . S
O225 C206 1.247 . S
C226 O223 1.244 . S
C226 O224 1.240 . S
H227 C201 0.931 . S
H228 C210 0.931 . S
H229 C214 0.929 . S
H230 C216 0.930 . S
Co231 N235 2.148 . S
Co231 N241 2.128 . S
Co231 N251 2.194 . S
Co231 O256 2.351 . S
Co231 O257 2.155 . S
Co231 O258 2.096 . S
C232 N235 1.301 . S
C232 N236 1.328 . S
C232 H237 0.930 . S
C233 C234 1.333 . S
C233 N235 1.317 . S
C233 H238 0.930 . S
C234 C233 1.333 . S
C234 N236 1.350 . S
C234 H260 0.931 . S
N235 Co231 2.148 . S
N235 C232 1.301 . S
N235 C233 1.317 . S
N236 C232 1.328 . S
N236 C234 1.350 . S
H237 C232 0.930 . S
H238 C233 0.930 . S
C239 O240 1.224 . S
C239 O258 1.247 . S
O240 C239 1.224 . S
N241 Co231 2.128 . S
N241 C242 1.355 . S
N241 C244 1.311 1_556 S
C242 N241 1.355 . S
C242 C243 1.363 1_556 S
C242 H254 0.929 . S
C243 C242 1.363 1_554 S
C243 N245 1.375 . S
C243 H261 0.931 . S
C244 N241 1.311 1_554 S
C244 N245 1.347 . S
C244 H255 0.930 . S
N245 C243 1.375 . S
N245 C244 1.347 . S
C246 C249 1.365 . S
C246 N251 1.328 . S
C246 H252 0.929 . S
C247 C248 1.362 . S
C247 C250 1.378 . S
C247 H262 0.929 . S
C248 C247 1.362 . S
C248 C249 1.366 . S
C249 C246 1.365 . S
C249 C248 1.366 . S
C249 H263 0.930 . S
C250 C247 1.378 . S
C250 N251 1.315 . S
C250 H253 0.930 . S
N251 Co231 2.194 . S
N251 C246 1.328 . S
N251 C250 1.315 . S
H252 C246 0.929 . S
H253 C250 0.930 . S
H254 C242 0.929 . S
H255 C244 0.930 . S
O256 Co231 2.351 . S
O256 C259 1.244 . S
O257 Co231 2.155 . S
O257 C259 1.240 . S
O258 Co231 2.096 . S
O258 C239 1.247 . S
C259 O256 1.244 . S
C259 O257 1.240 . S
H260 C234 0.931 . S
H261 C243 0.931 . S
H262 C247 0.929 . S
H263 C249 0.930 . S
Co264 N268 2.148 . S
Co264 N274 2.128 . S
Co264 N284 2.194 . S
Co264 O289 2.351 . S
Co264 O290 2.155 . S
Co264 O291 2.096 . S
C265 N268 1.301 . S
C265 N269 1.328 . S
C265 H270 0.930 . S
C266 C267 1.333 . S
C266 N268 1.317 . S
C266 H271 0.930 . S
C267 C266 1.333 . S
C267 N269 1.350 . S
C267 H293 0.931 . S
N268 Co264 2.148 . S
N268 C265 1.301 . S
N268 C266 1.317 . S
N269 C265 1.328 . S
N269 C267 1.350 . S
H270 C265 0.930 . S
H271 C266 0.930 . S
C272 O273 1.224 . S
C272 O291 1.247 . S
O273 C272 1.224 . S
N274 Co264 2.128 . S
N274 C275 1.355 . S
N274 C277 1.311 1_556 S
C275 N274 1.355 . S
C275 C276 1.363 1_556 S
C275 H287 0.929 1_655 S
C276 C275 1.363 1_554 S
C276 N278 1.375 . S
C276 H294 0.931 1_655 S
C277 N274 1.311 1_554 S
C277 N278 1.347 . S
C277 H288 0.930 . S
N278 C276 1.375 . S
N278 C277 1.347 . S
C279 C282 1.365 . S
C279 N284 1.328 1_455 S
C279 H285 0.929 . S
C280 C281 1.362 . S
C280 C283 1.378 1_455 S
C280 H295 0.929 . S
C281 C280 1.362 . S
C281 C282 1.366 . S
C282 C279 1.365 . S
C282 C281 1.366 . S
C282 H296 0.930 . S
C283 C280 1.378 1_655 S
C283 N284 1.315 . S
C283 H286 0.930 . S
N284 Co264 2.194 . S
N284 C279 1.328 1_655 S
N284 C283 1.315 . S
H285 C279 0.929 . S
H286 C283 0.930 . S
H287 C275 0.929 1_455 S
H288 C277 0.930 . S
O289 Co264 2.351 . S
O289 C292 1.244 . S
O290 Co264 2.155 . S
O290 C292 1.240 . S
O291 Co264 2.096 . S
O291 C272 1.247 . S
C292 O289 1.244 . S
C292 O290 1.240 . S
H293 C267 0.931 . S
H294 C276 0.931 1_455 S
H295 C280 0.929 . S
H296 C282 0.930 . S
Co297 N301 2.148 . S
Co297 N307 2.128 . S
Co297 N317 2.194 . S
Co297 O322 2.351 . S
Co297 O323 2.155 . S
Co297 O324 2.096 . S
C298 N301 1.301 . S
C298 N302 1.328 . S
C298 H303 0.930 . S
C299 C300 1.333 . S
C299 N301 1.317 . S
C299 H304 0.930 . S
C300 C299 1.333 . S
C300 N302 1.350 . S
C300 H326 0.931 . S
N301 Co297 2.148 . S
N301 C298 1.301 . S
N301 C299 1.317 . S
N302 C298 1.328 . S
N302 C300 1.350 . S
H303 C298 0.930 . S
H304 C299 0.930 . S
C305 O306 1.224 . S
C305 O324 1.247 . S
O306 C305 1.224 . S
N307 Co297 2.128 . S
N307 C308 1.355 . S
N307 C310 1.311 . S
C308 N307 1.355 . S
C308 C309 1.363 . S
C308 H320 0.929 1_565 S
C309 C308 1.363 . S
C309 N311 1.375 . S
C309 H327 0.931 1_565 S
C310 N307 1.311 . S
C310 N311 1.347 . S
C310 H321 0.929 . S
N311 C309 1.375 . S
N311 C310 1.347 . S
C312 C315 1.365 . S
C312 N317 1.328 1_545 S
C312 H318 0.929 . S
C313 C314 1.362 . S
C313 C316 1.378 1_545 S
C313 H328 0.929 . S
C314 C313 1.362 . S
C314 C315 1.366 . S
C315 C312 1.365 . S
C315 C314 1.366 . S
C315 H329 0.930 . S
C316 C313 1.378 1_565 S
C316 N317 1.315 . S
C316 H319 0.930 . S
N317 Co297 2.194 . S
N317 C312 1.328 1_565 S
N317 C316 1.315 . S
H318 C312 0.929 . S
H319 C316 0.930 . S
H320 C308 0.929 1_545 S
H321 C310 0.929 . S
O322 Co297 2.351 . S
O322 C325 1.244 . S
O323 Co297 2.155 . S
O323 C325 1.240 . S
O324 Co297 2.096 . S
O324 C305 1.247 . S
C325 O322 1.244 . S
C325 O323 1.240 . S
H326 C300 0.931 . S
H327 C309 0.931 1_545 S
H328 C313 0.929 . S
H329 C315 0.930 . S
Co330 N334 2.148 . S
Co330 N340 2.128 . S
Co330 N350 2.194 . S
Co330 O355 2.351 . S
Co330 O356 2.155 . S
Co330 O357 2.096 . S
C331 N334 1.301 . S
C331 N335 1.328 . S
C331 H336 0.930 . S
C332 C333 1.333 . S
C332 N334 1.317 . S
C332 H337 0.930 . S
C333 C332 1.333 . S
C333 N335 1.350 . S
C333 H359 0.931 . S
N334 Co330 2.148 . S
N334 C331 1.301 . S
N334 C332 1.317 . S
N335 C331 1.328 . S
N335 C333 1.350 . S
H336 C331 0.930 . S
H337 C332 0.930 . S
C338 O339 1.224 . S
C338 O357 1.247 . S
O339 C338 1.224 . S
N340 Co330 2.128 . S
N340 C341 1.355 . S
N340 C343 1.311 1_556 S
C341 N340 1.355 . S
C341 C342 1.363 1_556 S
C341 H353 0.929 . S
C342 C341 1.363 1_554 S
C342 N344 1.375 . S
C342 H360 0.931 . S
C343 N340 1.311 1_554 S
C343 N344 1.347 . S
C343 H354 0.930 . S
N344 C342 1.375 . S
N344 C343 1.347 . S
C345 C348 1.365 . S
C345 N350 1.328 . S
C345 H351 0.929 . S
C346 C347 1.362 . S
C346 C349 1.378 . S
C346 H361 0.929 . S
C347 C346 1.362 . S
C347 C348 1.366 . S
C348 C345 1.365 . S
C348 C347 1.366 . S
C348 H362 0.930 . S
C349 C346 1.378 . S
C349 N350 1.315 . S
C349 H352 0.930 . S
N350 Co330 2.194 . S
N350 C345 1.328 . S
N350 C349 1.315 . S
H351 C345 0.929 . S
H352 C349 0.930 . S
H353 C341 0.929 . S
H354 C343 0.930 . S
O355 Co330 2.351 . S
O355 C358 1.244 . S
O356 Co330 2.155 . S
O356 C358 1.240 . S
O357 Co330 2.096 . S
O357 C338 1.247 . S
C358 O355 1.244 . S
C358 O356 1.240 . S
H359 C333 0.931 . S
H360 C342 0.931 . S
H361 C346 0.929 . S
H362 C348 0.930 . S
Co363 N367 2.148 . S
Co363 N373 2.128 . S
Co363 N383 2.194 . S
Co363 O388 2.351 . S
Co363 O389 2.155 . S
Co363 O390 2.096 . S
C364 N367 1.301 . S
C364 N368 1.328 . S
C364 H369 0.930 . S
C365 C366 1.333 . S
C365 N367 1.317 . S
C365 H370 0.930 . S
C366 C365 1.333 . S
C366 N368 1.350 . S
C366 H392 0.931 . S
N367 Co363 2.148 . S
N367 C364 1.301 . S
N367 C365 1.317 . S
N368 C364 1.328 . S
N368 C366 1.350 . S
H369 C364 0.930 . S
H370 C365 0.930 . S
C371 O372 1.224 . S
C371 O390 1.247 . S
O372 C371 1.224 . S
N373 Co363 2.128 . S
N373 C374 1.355 . S
N373 C376 1.311 . S
C374 N373 1.355 . S
C374 C375 1.363 . S
C374 H386 0.929 . S
C375 C374 1.363 . S
C375 N377 1.375 . S
C375 H393 0.931 . S
C376 N373 1.311 . S
C376 N377 1.347 . S
C376 H387 0.929 . S
N377 C375 1.375 . S
N377 C376 1.347 . S
C378 C381 1.365 . S
C378 N383 1.328 . S
C378 H384 0.929 . S
C379 C380 1.362 . S
C379 C382 1.378 . S
C379 H394 0.929 . S
C380 C379 1.362 . S
C380 C381 1.366 . S
C381 C378 1.365 . S
C381 C380 1.366 . S
C381 H395 0.930 . S
C382 C379 1.378 . S
C382 N383 1.315 . S
C382 H385 0.930 . S
N383 Co363 2.194 . S
N383 C378 1.328 . S
N383 C382 1.315 . S
H384 C378 0.929 . S
H385 C382 0.930 . S
H386 C374 0.929 . S
H387 C376 0.929 . S
O388 Co363 2.351 . S
O388 C391 1.244 . S
O389 Co363 2.155 . S
O389 C391 1.240 . S
O390 Co363 2.096 . S
O390 C371 1.247 . S
C391 O388 1.244 . S
C391 O389 1.240 . S
H392 C366 0.931 . S
H393 C375 0.931 . S
H394 C379 0.929 . S
H395 C381 0.930 . S
Co396 N400 2.148 . S
Co396 N406 2.128 . S
Co396 N416 2.194 . S
Co396 O421 2.351 . S
Co396 O422 2.155 . S
Co396 O423 2.096 . S
C397 N400 1.301 . S
C397 N401 1.328 . S
C397 H402 0.930 . S
C398 C399 1.333 . S
C398 N400 1.317 . S
C398 H403 0.930 . S
C399 C398 1.333 . S
C399 N401 1.350 . S
C399 H425 0.931 . S
N400 Co396 2.148 . S
N400 C397 1.301 . S
N400 C398 1.317 . S
N401 C397 1.328 . S
N401 C399 1.350 . S
H402 C397 0.930 . S
H403 C398 0.930 . S
C404 O405 1.224 . S
C404 O423 1.247 . S
O405 C404 1.224 . S
N406 Co396 2.128 . S
N406 C407 1.355 . S
N406 C409 1.311 . S
C407 N406 1.355 . S
C407 C408 1.363 . S
C407 H419 0.929 1_655 S
C408 C407 1.363 . S
C408 N410 1.375 . S
C408 H426 0.931 1_655 S
C409 N406 1.311 . S
C409 N410 1.347 . S
C409 H420 0.929 . S
N410 C408 1.375 . S
N410 C409 1.347 . S
C411 C414 1.365 . S
C411 N416 1.328 1_455 S
C411 H417 0.929 . S
C412 C413 1.362 . S
C412 C415 1.378 1_455 S
C412 H427 0.929 . S
C413 C412 1.362 . S
C413 C414 1.366 . S
C414 C411 1.365 . S
C414 C413 1.366 . S
C414 H428 0.930 . S
C415 C412 1.378 1_655 S
C415 N416 1.315 . S
C415 H418 0.930 . S
N416 Co396 2.194 . S
N416 C411 1.328 1_655 S
N416 C415 1.315 . S
H417 C411 0.929 . S
H418 C415 0.930 . S
H419 C407 0.929 1_455 S
H420 C409 0.929 . S
O421 Co396 2.351 . S
O421 C424 1.244 . S
O422 Co396 2.155 . S
O422 C424 1.240 . S
O423 Co396 2.096 . S
O423 C404 1.247 . S
C424 O421 1.244 . S
C424 O422 1.240 . S
H425 C399 0.931 . S
H426 C408 0.931 1_455 S
H427 C412 0.929 . S
H428 C414 0.930 . S
Co429 N433 2.148 . S
Co429 N439 2.128 . S
Co429 N449 2.194 . S
Co429 O454 2.351 . S
Co429 O455 2.155 . S
Co429 O456 2.096 . S
C430 N433 1.301 . S
C430 N434 1.328 . S
C430 H435 0.930 . S
C431 C432 1.333 . S
C431 N433 1.317 . S
C431 H436 0.930 . S
C432 C431 1.333 . S
C432 N434 1.350 . S
C432 H458 0.931 . S
N433 Co429 2.148 . S
N433 C430 1.301 . S
N433 C431 1.317 . S
N434 C430 1.328 . S
N434 C432 1.350 . S
H435 C430 0.930 . S
H436 C431 0.930 . S
C437 O438 1.224 . S
C437 O456 1.247 . S
O438 C437 1.224 . S
N439 Co429 2.128 . S
N439 C440 1.355 . S
N439 C442 1.311 1_554 S
C440 N439 1.355 . S
C440 C441 1.363 1_554 S
C440 H452 0.929 1_565 S
C441 C440 1.363 1_556 S
C441 N443 1.375 . S
C441 H459 0.931 1_565 S
C442 N439 1.311 1_556 S
C442 N443 1.347 . S
C442 H453 0.930 . S
N443 C441 1.375 . S
N443 C442 1.347 . S
C444 C447 1.365 . S
C444 N449 1.328 1_545 S
C444 H450 0.929 . S
C445 C446 1.362 . S
C445 C448 1.378 1_545 S
C445 H460 0.929 . S
C446 C445 1.362 . S
C446 C447 1.366 . S
C447 C444 1.365 . S
C447 C446 1.366 . S
C447 H461 0.930 . S
C448 C445 1.378 1_565 S
C448 N449 1.315 . S
C448 H451 0.930 . S
N449 Co429 2.194 . S
N449 C444 1.328 1_565 S
N449 C448 1.315 . S
H450 C444 0.929 . S
H451 C448 0.930 . S
H452 C440 0.929 1_545 S
H453 C442 0.930 . S
O454 Co429 2.351 . S
O454 C457 1.244 . S
O455 Co429 2.155 . S
O455 C457 1.240 . S
O456 Co429 2.096 . S
O456 C437 1.247 . S
C457 O454 1.244 . S
C457 O455 1.240 . S
H458 C432 0.931 . S
H459 C441 0.931 1_545 S
H460 C445 0.929 . S
H461 C447 0.930 . S
Co462 N466 2.148 . S
Co462 N472 2.128 . S
Co462 N482 2.194 . S
Co462 O487 2.351 . S
Co462 O488 2.155 . S
Co462 O489 2.096 . S
C463 N466 1.301 . S
C463 N467 1.328 . S
C463 H468 0.930 . S
C464 C465 1.333 . S
C464 N466 1.317 . S
C464 H469 0.930 . S
C465 C464 1.333 . S
C465 N467 1.350 . S
C465 H491 0.931 . S
N466 Co462 2.148 . S
N466 C463 1.301 . S
N466 C464 1.317 . S
N467 C463 1.328 . S
N467 C465 1.350 . S
H468 C463 0.930 . S
H469 C464 0.930 . S
C470 O471 1.224 . S
C470 O489 1.247 . S
O471 C470 1.224 . S
N472 Co462 2.128 . S
N472 C473 1.355 . S
N472 C475 1.311 . S
C473 N472 1.355 . S
C473 C474 1.363 . S
C473 H485 0.929 . S
C474 C473 1.363 . S
C474 N476 1.375 . S
C474 H492 0.931 . S
C475 N472 1.311 . S
C475 N476 1.347 . S
C475 H486 0.929 . S
N476 C474 1.375 . S
N476 C475 1.347 . S
C477 C480 1.365 . S
C477 N482 1.328 . S
C477 H483 0.929 . S
C478 C479 1.362 . S
C478 C481 1.378 . S
C478 H493 0.929 . S
C479 C478 1.362 . S
C479 C480 1.366 . S
C480 C477 1.365 . S
C480 C479 1.366 . S
C480 H494 0.930 . S
C481 C478 1.378 . S
C481 N482 1.315 . S
C481 H484 0.930 . S
N482 Co462 2.194 . S
N482 C477 1.328 . S
N482 C481 1.315 . S
H483 C477 0.929 . S
H484 C481 0.930 . S
H485 C473 0.929 . S
H486 C475 0.929 . S
O487 Co462 2.351 . S
O487 C490 1.244 . S
O488 Co462 2.155 . S
O488 C490 1.240 . S
O489 Co462 2.096 . S
O489 C470 1.247 . S
C490 O487 1.244 . S
C490 O488 1.240 . S
H491 C465 0.931 . S
H492 C474 0.931 . S
H493 C478 0.929 . S
H494 C480 0.930 . S
Co495 N499 2.148 . S
Co495 N505 2.128 . S
Co495 N515 2.194 . S
Co495 O520 2.351 . S
Co495 O521 2.155 . S
Co495 O522 2.096 . S
C496 N499 1.301 . S
C496 N500 1.328 . S
C496 H501 0.930 . S
C497 C498 1.333 . S
C497 N499 1.317 . S
C497 H502 0.930 . S
C498 C497 1.333 . S
C498 N500 1.350 . S
C498 H524 0.931 . S
N499 Co495 2.148 . S
N499 C496 1.301 . S
N499 C497 1.317 . S
N500 C496 1.328 . S
N500 C498 1.350 . S
H501 C496 0.930 . S
H502 C497 0.930 . S
C503 O504 1.224 . S
C503 O522 1.247 . S
O504 C503 1.224 . S
N505 Co495 2.128 . S
N505 C506 1.355 . S
N505 C508 1.311 1_554 S
C506 N505 1.355 . S
C506 C507 1.363 1_554 S
C506 H518 0.929 . S
C507 C506 1.363 1_556 S
C507 N509 1.375 . S
C507 H525 0.931 . S
C508 N505 1.311 1_556 S
C508 N509 1.347 . S
C508 H519 0.930 . S
N509 C507 1.375 . S
N509 C508 1.347 . S
C510 C513 1.365 . S
C510 N515 1.328 . S
C510 H516 0.929 . S
C511 C512 1.362 . S
C511 C514 1.378 . S
C511 H526 0.929 . S
C512 C511 1.362 . S
C512 C513 1.366 . S
C513 C510 1.365 . S
C513 C512 1.366 . S
C513 H527 0.930 . S
C514 C511 1.378 . S
C514 N515 1.315 . S
C514 H517 0.930 . S
N515 Co495 2.194 . S
N515 C510 1.328 . S
N515 C514 1.315 . S
H516 C510 0.929 . S
H517 C514 0.930 . S
H518 C506 0.929 . S
H519 C508 0.930 . S
O520 Co495 2.351 . S
O520 C523 1.244 . S
O521 Co495 2.155 . S
O521 C523 1.240 . S
O522 Co495 2.096 . S
O522 C503 1.247 . S
C523 O520 1.244 . S
C523 O521 1.240 . S
H524 C498 0.931 . S
H525 C507 0.931 . S
H526 C511 0.929 . S
H527 C513 0.930 . S
C528 C529 1.349 . S
C528 C530 1.327 . S
C528 H553 0.950 . S
C529 C528 1.349 . S
C529 C545 1.349 . S
C530 C528 1.327 . S
C530 C549 1.429 . S
C530 H554 0.950 . S
C531 C548 1.574 . S
C531 C550 1.368 . S
C531 H555 0.949 . S
H532 C536 0.949 . S
C533 C534 1.349 . S
C533 C535 1.327 . S
C533 H556 0.950 . S
C534 C533 1.349 . S
C534 C546 1.349 . S
C535 C533 1.327 . S
C535 C551 1.429 . S
C535 H557 0.950 . S
C536 H532 0.949 . S
C536 C544 1.574 . S
C536 C552 1.368 . S
H537 C545 0.950 . S
H538 C543 0.950 . S
H539 C544 0.949 . S
H540 C546 0.950 . S
H541 C547 0.950 . S
H542 C548 0.949 . S
C543 H538 0.950 . S
C543 C545 1.327 . S
C543 C549 1.429 . S
C544 C536 1.574 . S
C544 H539 0.949 . S
C544 C550 1.368 . S
C545 C529 1.349 . S
C545 H537 0.950 . S
C545 C543 1.327 . S
C546 C534 1.349 . S
C546 H540 0.950 . S
C546 C547 1.327 . S
C547 H541 0.950 . S
C547 C546 1.327 . S
C547 C551 1.429 . S
C548 C531 1.574 . S
C548 H542 0.949 . S
C548 C552 1.368 . S
C549 C530 1.429 . S
C549 C543 1.429 . S
C549 C550 1.523 . S
C550 C531 1.368 . S
C550 C544 1.368 . S
C550 C549 1.523 . S
C551 C535 1.429 . S
C551 C547 1.429 . S
C551 C552 1.523 . S
C552 C536 1.368 . S
C552 C548 1.368 . S
C552 C551 1.523 . S
H553 C528 0.950 . S
H554 C530 0.950 . S
H555 C531 0.949 . S
H556 C533 0.950 . S
H557 C535 0.950 . S
C558 C559 1.349 . S
C558 C560 1.327 . S
C558 H583 0.950 . S
C559 C558 1.349 . S
C559 C575 1.349 . S
C560 C558 1.327 . S
C560 C579 1.429 . S
C560 H584 0.950 . S
C561 C578 1.574 . S
C561 C580 1.368 . S
C561 H585 0.949 . S
H562 C566 0.949 . S
C563 C564 1.349 . S
C563 C565 1.327 . S
C563 H586 0.950 . S
C564 C563 1.349 . S
C564 C576 1.349 . S
C565 C563 1.327 . S
C565 C581 1.429 . S
C565 H587 0.950 . S
C566 H562 0.949 . S
C566 C574 1.574 . S
C566 C582 1.368 . S
H567 C575 0.950 . S
H568 C573 0.950 . S
H569 C574 0.949 . S
H570 C576 0.950 . S
H571 C577 0.950 . S
H572 C578 0.949 . S
C573 H568 0.950 . S
C573 C575 1.327 . S
C573 C579 1.429 . S
C574 C566 1.574 . S
C574 H569 0.949 . S
C574 C580 1.368 . S
C575 C559 1.349 . S
C575 H567 0.950 . S
C575 C573 1.327 . S
C576 C564 1.349 . S
C576 H570 0.950 . S
C576 C577 1.327 . S
C577 H571 0.950 . S
C577 C576 1.327 . S
C577 C581 1.429 . S
C578 C561 1.574 . S
C578 H572 0.949 . S
C578 C582 1.368 . S
C579 C560 1.429 . S
C579 C573 1.429 . S
C579 C580 1.523 . S
C580 C561 1.368 . S
C580 C574 1.368 . S
C580 C579 1.523 . S
C581 C565 1.429 . S
C581 C577 1.429 . S
C581 C582 1.523 . S
C582 C566 1.368 . S
C582 C578 1.368 . S
C582 C581 1.523 . S
H583 C558 0.950 . S
H584 C560 0.950 . S
H585 C561 0.949 . S
H586 C563 0.950 . S
H587 C565 0.950 . S
C588 C589 1.349 . S
C588 C590 1.327 . S
C588 H613 0.950 . S
C589 C588 1.349 . S
C589 C605 1.349 . S
C590 C588 1.327 . S
C590 C609 1.429 . S
C590 H614 0.950 . S
C591 C608 1.574 . S
C591 C610 1.368 . S
C591 H615 0.949 . S
H592 C596 0.949 . S
C593 C594 1.349 . S
C593 C595 1.327 . S
C593 H616 0.950 . S
C594 C593 1.349 . S
C594 C606 1.349 . S
C595 C593 1.327 . S
C595 C611 1.429 . S
C595 H617 0.950 . S
C596 H592 0.949 . S
C596 C604 1.574 . S
C596 C612 1.368 . S
H597 C605 0.950 . S
H598 C603 0.950 . S
H599 C604 0.949 . S
H600 C606 0.950 . S
H601 C607 0.950 . S
H602 C608 0.949 . S
C603 H598 0.950 . S
C603 C605 1.327 . S
C603 C609 1.429 . S
C604 C596 1.574 . S
C604 H599 0.949 . S
C604 C610 1.368 . S
C605 C589 1.349 . S
C605 H597 0.950 . S
C605 C603 1.327 . S
C606 C594 1.349 . S
C606 H600 0.950 . S
C606 C607 1.327 . S
C607 H601 0.950 . S
C607 C606 1.327 . S
C607 C611 1.429 . S
C608 C591 1.574 . S
C608 H602 0.949 . S
C608 C612 1.368 . S
C609 C590 1.429 . S
C609 C603 1.429 . S
C609 C610 1.523 . S
C610 C591 1.368 . S
C610 C604 1.368 . S
C610 C609 1.523 . S
C611 C595 1.429 . S
C611 C607 1.429 . S
C611 C612 1.523 . S
C612 C596 1.368 . S
C612 C608 1.368 . S
C612 C611 1.523 . S
H613 C588 0.950 . S
H614 C590 0.950 . S
H615 C591 0.949 . S
H616 C593 0.950 . S
H617 C595 0.950 . S
C618 C619 1.349 . S
C618 C620 1.327 . S
C618 H643 0.950 . S
C619 C618 1.349 . S
C619 C635 1.349 . S
C620 C618 1.327 . S
C620 C639 1.429 . S
C620 H644 0.950 . S
C621 C638 1.574 . S
C621 C640 1.368 . S
C621 H645 0.949 . S
H622 C626 0.949 . S
C623 C624 1.349 . S
C623 C625 1.327 . S
C623 H646 0.950 . S
C624 C623 1.349 . S
C624 C636 1.349 . S
C625 C623 1.327 . S
C625 C641 1.429 . S
C625 H647 0.950 . S
C626 H622 0.949 . S
C626 C634 1.574 . S
C626 C642 1.368 . S
H627 C635 0.950 . S
H628 C633 0.950 . S
H629 C634 0.949 . S
H630 C636 0.950 . S
H631 C637 0.950 . S
H632 C638 0.949 . S
C633 H628 0.950 . S
C633 C635 1.327 . S
C633 C639 1.429 . S
C634 C626 1.574 . S
C634 H629 0.949 . S
C634 C640 1.368 . S
C635 C619 1.349 . S
C635 H627 0.950 . S
C635 C633 1.327 . S
C636 C624 1.349 . S
C636 H630 0.950 . S
C636 C637 1.327 . S
C637 H631 0.950 . S
C637 C636 1.327 . S
C637 C641 1.429 . S
C638 C621 1.574 . S
C638 H632 0.949 . S
C638 C642 1.368 . S
C639 C620 1.429 . S
C639 C633 1.429 . S
C639 C640 1.523 . S
C640 C621 1.368 . S
C640 C634 1.368 . S
C640 C639 1.523 . S
C641 C625 1.429 . S
C641 C637 1.429 . S
C641 C642 1.523 . S
C642 C626 1.368 . S
C642 C638 1.368 . S
C642 C641 1.523 . S
H643 C618 0.950 . S
H644 C620 0.950 . S
H645 C621 0.949 . S
H646 C623 0.950 . S
H647 C625 0.950 . S
C648 C649 1.349 . S
C648 C650 1.327 . S
C648 H673 0.950 . S
C649 C648 1.349 . S
C649 C665 1.349 . S
C650 C648 1.327 . S
C650 C669 1.429 . S
C650 H674 0.950 . S
C651 C668 1.574 . S
C651 C670 1.368 . S
C651 H675 0.949 . S
H652 C656 0.949 . S
C653 C654 1.349 . S
C653 C655 1.327 . S
C653 H676 0.950 . S
C654 C653 1.349 . S
C654 C666 1.349 . S
C655 C653 1.327 . S
C655 C671 1.429 . S
C655 H677 0.950 . S
C656 H652 0.949 . S
C656 C664 1.574 . S
C656 C672 1.368 . S
H657 C665 0.950 . S
H658 C663 0.950 . S
H659 C664 0.949 . S
H660 C666 0.950 . S
H661 C667 0.950 . S
H662 C668 0.949 . S
C663 H658 0.950 . S
C663 C665 1.327 . S
C663 C669 1.429 . S
C664 C656 1.574 . S
C664 H659 0.949 . S
C664 C670 1.368 . S
C665 C649 1.349 . S
C665 H657 0.950 . S
C665 C663 1.327 . S
C666 C654 1.349 . S
C666 H660 0.950 . S
C666 C667 1.327 . S
C667 H661 0.950 . S
C667 C666 1.327 . S
C667 C671 1.429 . S
C668 C651 1.574 . S
C668 H662 0.949 . S
C668 C672 1.368 . S
C669 C650 1.429 . S
C669 C663 1.429 . S
C669 C670 1.523 . S
C670 C651 1.368 . S
C670 C664 1.368 . S
C670 C669 1.523 . S
C671 C655 1.429 . S
C671 C667 1.429 . S
C671 C672 1.523 . S
C672 C656 1.368 . S
C672 C668 1.368 . S
C672 C671 1.523 . S
H673 C648 0.950 . S
H674 C650 0.950 . S
H675 C651 0.949 . S
H676 C653 0.950 . S
H677 C655 0.950 . S
C678 C679 1.349 . S
C678 C680 1.327 . S
C678 H703 0.950 . S
C679 C678 1.349 . S
C679 C695 1.349 . S
C680 C678 1.327 . S
C680 C699 1.429 . S
C680 H704 0.950 . S
C681 C698 1.574 . S
C681 C700 1.368 . S
C681 H705 0.949 . S
H682 C686 0.949 . S
C683 C684 1.349 . S
C683 C685 1.327 . S
C683 H706 0.950 . S
C684 C683 1.349 . S
C684 C696 1.349 . S
C685 C683 1.327 . S
C685 C701 1.429 . S
C685 H707 0.950 . S
C686 H682 0.949 . S
C686 C694 1.574 . S
C686 C702 1.368 . S
H687 C695 0.950 . S
H688 C693 0.950 . S
H689 C694 0.949 . S
H690 C696 0.950 . S
H691 C697 0.950 . S
H692 C698 0.949 . S
C693 H688 0.950 . S
C693 C695 1.327 . S
C693 C699 1.429 . S
C694 C686 1.574 . S
C694 H689 0.949 . S
C694 C700 1.368 . S
C695 C679 1.349 . S
C695 H687 0.950 . S
C695 C693 1.327 . S
C696 C684 1.349 . S
C696 H690 0.950 . S
C696 C697 1.327 . S
C697 H691 0.950 . S
C697 C696 1.327 . S
C697 C701 1.429 . S
C698 C681 1.574 . S
C698 H692 0.949 . S
C698 C702 1.368 . S
C699 C680 1.429 . S
C699 C693 1.429 . S
C699 C700 1.523 . S
C700 C681 1.368 . S
C700 C694 1.368 . S
C700 C699 1.523 . S
C701 C685 1.429 . S
C701 C697 1.429 . S
C701 C702 1.523 . S
C702 C686 1.368 . S
C702 C698 1.368 . S
C702 C701 1.523 . S
H703 C678 0.950 . S
H704 C680 0.950 . S
H705 C681 0.949 . S
H706 C683 0.950 . S
H707 C685 0.950 . S
C708 C709 1.349 . S
C708 C710 1.327 . S
C708 H733 0.950 . S
C709 C708 1.349 . S
C709 C725 1.349 . S
C710 C708 1.327 . S
C710 C729 1.429 . S
C710 H734 0.950 . S
C711 C728 1.574 . S
C711 C730 1.368 . S
C711 H735 0.949 . S
H712 C716 0.949 . S
C713 C714 1.349 . S
C713 C715 1.327 . S
C713 H736 0.950 . S
C714 C713 1.349 . S
C714 C726 1.349 . S
C715 C713 1.327 . S
C715 C731 1.429 . S
C715 H737 0.950 . S
C716 H712 0.949 . S
C716 C724 1.574 . S
C716 C732 1.368 . S
H717 C725 0.950 . S
H718 C723 0.950 . S
H719 C724 0.949 . S
H720 C726 0.950 . S
H721 C727 0.950 . S
H722 C728 0.949 . S
C723 H718 0.950 . S
C723 C725 1.327 . S
C723 C729 1.429 . S
C724 C716 1.574 . S
C724 H719 0.949 . S
C724 C730 1.368 . S
C725 C709 1.349 . S
C725 H717 0.950 . S
C725 C723 1.327 . S
C726 C714 1.349 . S
C726 H720 0.950 . S
C726 C727 1.327 . S
C727 H721 0.950 . S
C727 C726 1.327 . S
C727 C731 1.429 . S
C728 C711 1.574 . S
C728 H722 0.949 . S
C728 C732 1.368 . S
C729 C710 1.429 . S
C729 C723 1.429 . S
C729 C730 1.523 . S
C730 C711 1.368 . S
C730 C724 1.368 . S
C730 C729 1.523 . S
C731 C715 1.429 . S
C731 C727 1.429 . S
C731 C732 1.523 . S
C732 C716 1.368 . S
C732 C728 1.368 . S
C732 C731 1.523 . S
H733 C708 0.950 . S
H734 C710 0.950 . S
H735 C711 0.949 . S
H736 C713 0.950 . S
H737 C715 0.950 . S
C738 C739 1.349 . S
C738 C740 1.327 . S
C738 H763 0.950 . S
C739 C738 1.349 . S
C739 C755 1.349 . S
C740 C738 1.327 . S
C740 C759 1.429 . S
C740 H764 0.950 . S
C741 C758 1.574 . S
C741 C760 1.368 . S
C741 H765 0.949 . S
H742 C746 0.949 . S
C743 C744 1.349 . S
C743 C745 1.327 . S
C743 H766 0.950 . S
C744 C743 1.349 . S
C744 C756 1.349 . S
C745 C743 1.327 . S
C745 C761 1.429 . S
C745 H767 0.950 . S
C746 H742 0.949 . S
C746 C754 1.574 . S
C746 C762 1.368 . S
H747 C755 0.950 . S
H748 C753 0.950 . S
H749 C754 0.949 . S
H750 C756 0.950 . S
H751 C757 0.950 . S
H752 C758 0.949 . S
C753 H748 0.950 . S
C753 C755 1.327 . S
C753 C759 1.429 . S
C754 C746 1.574 . S
C754 H749 0.949 . S
C754 C760 1.368 . S
C755 C739 1.349 . S
C755 H747 0.950 . S
C755 C753 1.327 . S
C756 C744 1.349 . S
C756 H750 0.950 . S
C756 C757 1.327 . S
C757 H751 0.950 . S
C757 C756 1.327 . S
C757 C761 1.429 . S
C758 C741 1.574 . S
C758 H752 0.949 . S
C758 C762 1.368 . S
C759 C740 1.429 . S
C759 C753 1.429 . S
C759 C760 1.523 . S
C760 C741 1.368 . S
C760 C754 1.368 . S
C760 C759 1.523 . S
C761 C745 1.429 . S
C761 C757 1.429 . S
C761 C762 1.523 . S
C762 C746 1.368 . S
C762 C758 1.368 . S
C762 C761 1.523 . S
H763 C738 0.950 . S
H764 C740 0.950 . S
H765 C741 0.949 . S
H766 C743 0.950 . S
H767 C745 0.950 . S
C768 C769 1.349 . S
C768 C770 1.327 . S
C768 H793 0.950 . S
C769 C768 1.349 . S
C769 C785 1.349 . S
C770 C768 1.327 . S
C770 C789 1.429 . S
C770 H794 0.950 . S
C771 C788 1.574 1_554 S
C771 C790 1.368 . S
C771 H795 0.949 . S
H772 C776 0.949 . S
C773 C774 1.349 . S
C773 C775 1.327 . S
C773 H796 0.950 . S
C774 C773 1.349 . S
C774 C786 1.349 . S
C775 C773 1.327 . S
C775 C791 1.429 . S
C775 H797 0.950 . S
C776 H772 0.949 . S
C776 C784 1.574 1_556 S
C776 C792 1.368 . S
H777 C785 0.950 . S
H778 C783 0.950 . S
H779 C784 0.949 . S
H780 C786 0.950 . S
H781 C787 0.950 . S
H782 C788 0.949 . S
C783 H778 0.950 . S
C783 C785 1.327 . S
C783 C789 1.429 . S
C784 C776 1.574 1_554 S
C784 H779 0.949 . S
C784 C790 1.368 . S
C785 C769 1.349 . S
C785 H777 0.950 . S
C785 C783 1.327 . S
C786 C774 1.349 . S
C786 H780 0.950 . S
C786 C787 1.327 . S
C787 H781 0.950 . S
C787 C786 1.327 . S
C787 C791 1.429 . S
C788 C771 1.574 1_556 S
C788 H782 0.949 . S
C788 C792 1.368 . S
C789 C770 1.429 . S
C789 C783 1.429 . S
C789 C790 1.523 . S
C790 C771 1.368 . S
C790 C784 1.368 . S
C790 C789 1.523 . S
C791 C775 1.429 . S
C791 C787 1.429 . S
C791 C792 1.523 . S
C792 C776 1.368 . S
C792 C788 1.368 . S
C792 C791 1.523 . S
H793 C768 0.950 . S
H794 C770 0.950 . S
H795 C771 0.949 . S
H796 C773 0.950 . S
H797 C775 0.950 . S
C798 C799 1.349 . S
C798 C800 1.327 . S
C798 H823 0.950 . S
C799 C798 1.349 . S
C799 C815 1.349 . S
C800 C798 1.327 . S
C800 C819 1.429 . S
C800 H824 0.950 . S
C801 C818 1.574 . S
C801 C820 1.368 . S
C801 H825 0.949 . S
H802 C806 0.949 . S
C803 C804 1.349 . S
C803 C805 1.327 . S
C803 H826 0.950 . S
C804 C803 1.349 . S
C804 C816 1.349 . S
C805 C803 1.327 . S
C805 C821 1.429 . S
C805 H827 0.950 . S
C806 H802 0.949 . S
C806 C814 1.574 . S
C806 C822 1.368 . S
H807 C815 0.950 . S
H808 C813 0.950 . S
H809 C814 0.949 . S
H810 C816 0.950 . S
H811 C817 0.950 . S
H812 C818 0.949 . S
C813 H808 0.950 . S
C813 C815 1.327 . S
C813 C819 1.429 . S
C814 C806 1.574 . S
C814 H809 0.949 . S
C814 C820 1.368 . S
C815 C799 1.349 . S
C815 H807 0.950 . S
C815 C813 1.327 . S
C816 C804 1.349 . S
C816 H810 0.950 . S
C816 C817 1.327 . S
C817 H811 0.950 . S
C817 C816 1.327 . S
C817 C821 1.429 . S
C818 C801 1.574 . S
C818 H812 0.949 . S
C818 C822 1.368 . S
C819 C800 1.429 . S
C819 C813 1.429 . S
C819 C820 1.523 . S
C820 C801 1.368 . S
C820 C814 1.368 . S
C820 C819 1.523 . S
C821 C805 1.429 . S
C821 C817 1.429 . S
C821 C822 1.523 . S
C822 C806 1.368 . S
C822 C818 1.368 . S
C822 C821 1.523 . S
H823 C798 0.950 . S
H824 C800 0.950 . S
H825 C801 0.949 . S
H826 C803 0.950 . S
H827 C805 0.950 . S
C828 C829 1.349 . S
C828 C830 1.327 . S
C828 H853 0.950 . S
C829 C828 1.349 . S
C829 C845 1.349 . S
C830 C828 1.327 . S
C830 C849 1.429 . S
C830 H854 0.950 1_554 S
C831 C848 1.574 . S
C831 C850 1.368 . S
C831 H855 0.949 . S
H832 C836 0.949 . S
C833 C834 1.349 . S
C833 C835 1.327 . S
C833 H856 0.950 . S
C834 C833 1.349 . S
C834 C846 1.349 . S
C835 C833 1.327 . S
C835 C851 1.429 . S
C835 H857 0.950 1_556 S
C836 H832 0.949 . S
C836 C844 1.574 . S
C836 C852 1.368 . S
H837 C845 0.950 . S
H838 C843 0.950 . S
H839 C844 0.949 . S
H840 C846 0.950 . S
H841 C847 0.950 . S
H842 C848 0.949 . S
C843 H838 0.950 . S
C843 C845 1.327 . S
C843 C849 1.429 . S
C844 C836 1.574 . S
C844 H839 0.949 . S
C844 C850 1.368 1_556 S
C845 C829 1.349 . S
C845 H837 0.950 . S
C845 C843 1.327 . S
C846 C834 1.349 . S
C846 H840 0.950 . S
C846 C847 1.327 . S
C847 H841 0.950 . S
C847 C846 1.327 . S
C847 C851 1.429 . S
C848 C831 1.574 . S
C848 H842 0.949 . S
C848 C852 1.368 1_554 S
C849 C830 1.429 . S
C849 C843 1.429 . S
C849 C850 1.523 . S
C850 C831 1.368 . S
C850 C844 1.368 1_554 S
C850 C849 1.523 . S
C851 C835 1.429 . S
C851 C847 1.429 . S
C851 C852 1.523 . S
C852 C836 1.368 . S
C852 C848 1.368 1_556 S
C852 C851 1.523 . S
H853 C828 0.950 . S
H854 C830 0.950 1_556 S
H855 C831 0.949 . S
H856 C833 0.950 . S
H857 C835 0.950 1_554 S
C858 C859 1.349 . S
C858 C860 1.327 . S
C858 H883 0.950 . S
C859 C858 1.349 . S
C859 C875 1.349 . S
C860 C858 1.327 . S
C860 C879 1.429 . S
C860 H884 0.950 . S
C861 C878 1.574 . S
C861 C880 1.368 . S
C861 H885 0.949 . S
H862 C866 0.949 . S
C863 C864 1.349 . S
C863 C865 1.327 . S
C863 H886 0.950 . S
C864 C863 1.349 . S
C864 C876 1.349 . S
C865 C863 1.327 . S
C865 C881 1.429 . S
C865 H887 0.950 . S
C866 H862 0.949 . S
C866 C874 1.574 . S
C866 C882 1.368 . S
H867 C875 0.950 . S
H868 C873 0.950 . S
H869 C874 0.949 . S
H870 C876 0.950 . S
H871 C877 0.950 . S
H872 C878 0.949 . S
C873 H868 0.950 . S
C873 C875 1.327 . S
C873 C879 1.429 . S
C874 C866 1.574 . S
C874 H869 0.949 . S
C874 C880 1.368 . S
C875 C859 1.349 . S
C875 H867 0.950 . S
C875 C873 1.327 . S
C876 C864 1.349 . S
C876 H870 0.950 . S
C876 C877 1.327 . S
C877 H871 0.950 . S
C877 C876 1.327 . S
C877 C881 1.429 . S
C878 C861 1.574 . S
C878 H872 0.949 . S
C878 C882 1.368 . S
C879 C860 1.429 . S
C879 C873 1.429 . S
C879 C880 1.523 . S
C880 C861 1.368 . S
C880 C874 1.368 . S
C880 C879 1.523 . S
C881 C865 1.429 . S
C881 C877 1.429 . S
C881 C882 1.523 . S
C882 C866 1.368 . S
C882 C878 1.368 . S
C882 C881 1.523 . S
H883 C858 0.950 . S
H884 C860 0.950 . S
H885 C861 0.949 . S
H886 C863 0.950 . S
H887 C865 0.950 . S
C888 C889 1.349 . S
C888 C890 1.327 . S
C888 H913 0.940 1_554 S
C889 C888 1.349 . S
C889 C905 1.349 . S
C890 C888 1.327 . S
C890 C909 1.429 . S
C890 H914 0.950 1_554 S
C891 C908 1.574 . S
C891 C910 1.368 . S
C891 H915 0.949 . S
H892 C896 0.949 . S
C893 C894 1.349 . S
C893 C895 1.327 . S
C893 H916 0.939 1_556 S
C894 C893 1.349 . S
C894 C906 1.349 . S
C895 C893 1.327 . S
C895 C911 1.429 . S
C895 H917 0.950 1_556 S
C896 H892 0.949 . S
C896 C904 1.574 . S
C896 C912 1.368 . S
H897 C905 0.950 . S
H898 C903 0.950 . S
H899 C904 0.949 . S
H900 C906 0.950 . S
H901 C907 0.950 . S
H902 C908 0.949 . S
C903 H898 0.950 . S
C903 C905 1.327 . S
C903 C909 1.429 . S
C904 C896 1.574 . S
C904 H899 0.949 . S
C904 C910 1.368 1_556 S
C905 C889 1.349 . S
C905 H897 0.950 . S
C905 C903 1.327 . S
C906 C894 1.349 . S
C906 H900 0.950 . S
C906 C907 1.327 . S
C907 H901 0.950 . S
C907 C906 1.327 . S
C907 C911 1.429 . S
C908 C891 1.574 . S
C908 H902 0.949 . S
C908 C912 1.368 1_554 S
C909 C890 1.429 . S
C909 C903 1.429 . S
C909 C910 1.523 . S
C910 C891 1.368 . S
C910 C904 1.368 1_554 S
C910 C909 1.523 . S
C911 C895 1.429 . S
C911 C907 1.429 . S
C911 C912 1.523 . S
C912 C896 1.368 . S
C912 C908 1.368 1_556 S
C912 C911 1.523 . S
H913 C888 0.940 1_556 S
H914 C890 0.950 1_556 S
H915 C891 0.949 . S
H916 C893 0.939 1_554 S
H917 C895 0.950 1_554 S
C918 C919 1.349 . S
C918 C920 1.327 . S
C918 H943 0.950 . S
C919 C918 1.349 . S
C919 C935 1.349 . S
C920 C918 1.327 . S
C920 C939 1.429 . S
C920 H944 0.950 . S
C921 C938 1.574 . S
C921 C940 1.368 . S
C921 H945 0.949 . S
H922 C926 0.949 . S
C923 C924 1.349 . S
C923 C925 1.327 . S
C923 H946 0.950 . S
C924 C923 1.349 . S
C924 C936 1.349 . S
C925 C923 1.327 . S
C925 C941 1.429 . S
C925 H947 0.950 . S
C926 H922 0.949 . S
C926 C934 1.574 . S
C926 C942 1.368 . S
H927 C935 0.950 . S
H928 C933 0.950 . S
H929 C934 0.949 . S
H930 C936 0.950 . S
H931 C937 0.950 . S
H932 C938 0.949 . S
C933 H928 0.950 . S
C933 C935 1.327 . S
C933 C939 1.429 . S
C934 C926 1.574 . S
C934 H929 0.949 . S
C934 C940 1.368 . S
C935 C919 1.349 . S
C935 H927 0.950 . S
C935 C933 1.327 . S
C936 C924 1.349 . S
C936 H930 0.950 . S
C936 C937 1.327 . S
C937 H931 0.950 . S
C937 C936 1.327 . S
C937 C941 1.429 . S
C938 C921 1.574 . S
C938 H932 0.949 . S
C938 C942 1.368 . S
C939 C920 1.429 . S
C939 C933 1.429 . S
C939 C940 1.523 . S
C940 C921 1.368 . S
C940 C934 1.368 . S
C940 C939 1.523 . S
C941 C925 1.429 . S
C941 C937 1.429 . S
C941 C942 1.523 . S
C942 C926 1.368 . S
C942 C938 1.368 . S
C942 C941 1.523 . S
H943 C918 0.950 . S
H944 C920 0.950 . S
H945 C921 0.949 . S
H946 C923 0.950 . S
H947 C925 0.950 . S
C948 C949 1.349 . S
C948 C950 1.327 . S
C948 H973 0.952 . S
C949 C948 1.349 . S
C949 C965 1.349 . S
C950 C948 1.327 . S
C950 C969 1.429 . S
C950 H974 0.950 1_554 S
C951 C968 1.574 . S
C951 C970 1.368 . S
C951 H975 0.949 . S
H952 C956 0.949 . S
C953 C954 1.349 . S
C953 C955 1.327 . S
C953 H976 0.953 . S
C954 C953 1.349 . S
C954 C966 1.349 . S
C955 C953 1.327 . S
C955 C971 1.429 . S
C955 H977 0.950 1_556 S
C956 H952 0.949 . S
C956 C964 1.574 . S
C956 C972 1.368 . S
H957 C965 0.950 . S
H958 C963 0.950 . S
H959 C964 0.949 . S
H960 C966 0.950 . S
H961 C967 0.950 . S
H962 C968 0.949 . S
C963 H958 0.950 . S
C963 C965 1.327 . S
C963 C969 1.429 . S
C964 C956 1.574 . S
C964 H959 0.949 . S
C964 C970 1.368 1_556 S
C965 C949 1.349 . S
C965 H957 0.950 . S
C965 C963 1.327 . S
C966 C954 1.349 . S
C966 H960 0.950 . S
C966 C967 1.327 . S
C967 H961 0.950 . S
C967 C966 1.327 . S
C967 C971 1.429 . S
C968 C951 1.574 . S
C968 H962 0.949 . S
C968 C972 1.368 1_554 S
C969 C950 1.429 . S
C969 C963 1.429 . S
C969 C970 1.523 . S
C970 C951 1.368 . S
C970 C964 1.368 1_554 S
C970 C969 1.523 . S
C971 C955 1.429 . S
C971 C967 1.429 . S
C971 C972 1.523 . S
C972 C956 1.368 . S
C972 C968 1.368 1_556 S
C972 C971 1.523 . S
H973 C948 0.952 . S
H974 C950 0.950 1_556 S
H975 C951 0.949 . S
H976 C953 0.953 . S
H977 C955 0.950 1_554 S
C978 C979 1.349 . S
C978 C980 1.327 . S
C978 H1003 0.950 . S
C979 C978 1.349 . S
C979 C995 1.349 . S
C980 C978 1.327 . S
C980 C999 1.429 . S
C980 H1004 0.950 . S
C981 C998 1.574 . S
C981 C1000 1.368 . S
C981 H1005 0.949 . S
H982 C986 0.949 . S
C983 C984 1.349 . S
C983 C985 1.327 . S
C983 H1006 0.950 . S
C984 C983 1.349 . S
C984 C996 1.349 . S
C985 C983 1.327 . S
C985 C1001 1.429 . S
C985 H1007 0.950 . S
C986 H982 0.949 . S
C986 C994 1.574 . S
C986 C1002 1.368 . S
H987 C995 0.950 . S
H988 C993 0.950 . S
H989 C994 0.949 . S
H990 C996 0.950 . S
H991 C997 0.950 . S
H992 C998 0.949 . S
C993 H988 0.950 . S
C993 C995 1.327 . S
C993 C999 1.429 . S
C994 C986 1.574 . S
C994 H989 0.949 . S
C994 C1000 1.368 . S
C995 C979 1.349 . S
C995 H987 0.950 . S
C995 C993 1.327 . S
C996 C984 1.349 . S
C996 H990 0.950 . S
C996 C997 1.327 . S
C997 H991 0.950 . S
C997 C996 1.327 . S
C997 C1001 1.429 . S
C998 C981 1.574 . S
C998 H992 0.949 . S
C998 C1002 1.368 . S
C999 C980 1.429 . S
C999 C993 1.429 . S
C999 C1000 1.523 . S
C1000 C981 1.368 . S
C1000 C994 1.368 . S
C1000 C999 1.523 . S
C1001 C985 1.429 . S
C1001 C997 1.429 . S
C1001 C1002 1.523 . S
C1002 C986 1.368 . S
C1002 C998 1.368 . S
C1002 C1001 1.523 . S
H1003 C978 0.950 . S
H1004 C980 0.950 . S
H1005 C981 0.949 . S
H1006 C983 0.950 . S
H1007 C985 0.950 . S
C1008 C1009 1.349 . S
C1008 C1010 1.327 . S
C1008 H1033 0.950 . S
C1009 C1008 1.349 . S
C1009 C1025 1.349 . S
C1010 C1008 1.327 . S
C1010 C1029 1.429 . S
C1010 H1034 0.950 . S
C1011 C1028 1.574 . S
C1011 C1030 1.368 . S
C1011 H1035 0.949 . S
H1012 C1016 0.949 . S
C1013 C1014 1.349 . S
C1013 C1015 1.327 . S
C1013 H1036 0.950 . S
C1014 C1013 1.349 . S
C1014 C1026 1.349 . S
C1015 C1013 1.327 . S
C1015 C1031 1.429 . S
C1015 H1037 0.950 . S
C1016 H1012 0.949 . S
C1016 C1024 1.574 . S
C1016 C1032 1.368 . S
H1017 C1025 0.950 . S
H1018 C1023 0.950 . S
H1019 C1024 0.949 . S
H1020 C1026 0.950 . S
H1021 C1027 0.950 . S
H1022 C1028 0.949 . S
C1023 H1018 0.950 . S
C1023 C1025 1.327 . S
C1023 C1029 1.429 . S
C1024 C1016 1.574 . S
C1024 H1019 0.949 . S
C1024 C1030 1.368 . S
C1025 C1009 1.349 . S
C1025 H1017 0.950 . S
C1025 C1023 1.327 . S
C1026 C1014 1.349 . S
C1026 H1020 0.950 . S
C1026 C1027 1.327 . S
C1027 H1021 0.950 . S
C1027 C1026 1.327 . S
C1027 C1031 1.429 . S
C1028 C1011 1.574 . S
C1028 H1022 0.949 . S
C1028 C1032 1.368 . S
C1029 C1010 1.429 . S
C1029 C1023 1.429 . S
C1029 C1030 1.523 . S
C1030 C1011 1.368 . S
C1030 C1024 1.368 . S
C1030 C1029 1.523 . S
C1031 C1015 1.429 . S
C1031 C1027 1.429 . S
C1031 C1032 1.523 . S
C1032 C1016 1.368 . S
C1032 C1028 1.368 . S
C1032 C1031 1.523 . S
H1033 C1008 0.950 . S
H1034 C1010 0.950 . S
H1035 C1011 0.949 . S
H1036 C1013 0.950 . S
H1037 C1015 0.950 . S
C1038 C1039 1.349 . S
C1038 C1040 1.327 . S
C1038 H1063 0.950 . S
C1039 C1038 1.349 . S
C1039 C1055 1.349 . S
C1040 C1038 1.327 . S
C1040 C1059 1.429 . S
C1040 H1064 0.950 . S
C1041 C1058 1.574 . S
C1041 C1060 1.368 . S
C1041 H1065 0.905 1_545 S
H1042 C1046 0.949 . S
C1043 C1044 1.349 . S
C1043 C1045 1.327 . S
C1043 H1066 0.941 1_545 S
C1044 C1043 1.349 . S
C1044 C1056 1.349 . S
C1045 C1043 1.327 . S
C1045 C1061 1.429 . S
C1045 H1067 0.910 1_545 S
C1046 H1042 0.949 . S
C1046 C1054 1.574 . S
C1046 C1062 1.368 . S
H1047 C1055 0.941 1_565 S
H1048 C1053 0.910 1_565 S
H1049 C1054 0.949 . S
H1050 C1056 0.950 . S
H1051 C1057 0.950 . S
H1052 C1058 0.905 1_565 S
C1053 H1048 0.910 1_545 S
C1053 C1055 1.327 . S
C1053 C1059 1.429 . S
C1054 C1046 1.574 . S
C1054 H1049 0.949 . S
C1054 C1060 1.368 . S
C1055 C1039 1.349 . S
C1055 H1047 0.941 1_545 S
C1055 C1053 1.327 . S
C1056 C1044 1.349 . S
C1056 H1050 0.950 . S
C1056 C1057 1.327 . S
C1057 H1051 0.950 . S
C1057 C1056 1.327 . S
C1057 C1061 1.429 . S
C1058 C1041 1.574 . S
C1058 H1052 0.905 1_545 S
C1058 C1062 1.368 . S
C1059 C1040 1.429 . S
C1059 C1053 1.429 . S
C1059 C1060 1.523 . S
C1060 C1041 1.368 . S
C1060 C1054 1.368 . S
C1060 C1059 1.523 . S
C1061 C1045 1.429 . S
C1061 C1057 1.429 . S
C1061 C1062 1.523 . S
C1062 C1046 1.368 . S
C1062 C1058 1.368 . S
C1062 C1061 1.523 . S
H1063 C1038 0.950 . S
H1064 C1040 0.950 . S
H1065 C1041 0.905 1_565 S
H1066 C1043 0.941 1_565 S
H1067 C1045 0.910 1_565 S
C1068 C1069 1.349 . S
C1068 C1070 1.327 . S
C1068 H1093 0.950 . S
C1069 C1068 1.349 . S
C1069 C1085 1.349 . S
C1070 C1068 1.327 . S
C1070 C1089 1.429 . S
C1070 H1094 0.950 . S
C1071 C1088 1.574 . S
C1071 C1090 1.368 . S
C1071 H1095 0.949 . S
H1072 C1076 0.949 . S
C1073 C1074 1.349 . S
C1073 C1075 1.327 . S
C1073 H1096 0.950 . S
C1074 C1073 1.349 . S
C1074 C1086 1.349 . S
C1075 C1073 1.327 . S
C1075 C1091 1.429 . S
C1075 H1097 0.950 . S
C1076 H1072 0.949 . S
C1076 C1084 1.574 . S
C1076 C1092 1.368 . S
H1077 C1085 0.950 . S
H1078 C1083 0.950 . S
H1079 C1084 0.949 . S
H1080 C1086 0.950 . S
H1081 C1087 0.950 . S
H1082 C1088 0.949 . S
C1083 H1078 0.950 . S
C1083 C1085 1.327 . S
C1083 C1089 1.429 . S
C1084 C1076 1.574 . S
C1084 H1079 0.949 . S
C1084 C1090 1.368 . S
C1085 C1069 1.349 . S
C1085 H1077 0.950 . S
C1085 C1083 1.327 . S
C1086 C1074 1.349 . S
C1086 H1080 0.950 . S
C1086 C1087 1.327 . S
C1087 H1081 0.950 . S
C1087 C1086 1.327 . S
C1087 C1091 1.429 . S
C1088 C1071 1.574 . S
C1088 H1082 0.949 . S
C1088 C1092 1.368 . S
C1089 C1070 1.429 . S
C1089 C1083 1.429 . S
C1089 C1090 1.523 . S
C1090 C1071 1.368 . S
C1090 C1084 1.368 . S
C1090 C1089 1.523 . S
C1091 C1075 1.429 . S
C1091 C1087 1.429 . S
C1091 C1092 1.523 . S
C1092 C1076 1.368 . S
C1092 C1088 1.368 . S
C1092 C1091 1.523 . S
H1093 C1068 0.950 . S
H1094 C1070 0.950 . S
H1095 C1071 0.949 . S
H1096 C1073 0.950 . S
H1097 C1075 0.950 . S
C1098 C1099 1.349 . S
C1098 C1100 1.327 . S
C1098 H1123 0.950 . S
C1099 C1098 1.349 . S
C1099 C1115 1.349 . S
C1100 C1098 1.327 . S
C1100 C1119 1.429 . S
C1100 H1124 0.950 . S
C1101 C1118 1.574 . S
C1101 C1120 1.368 . S
C1101 H1125 0.949 . S
H1102 C1106 0.949 . S
C1103 C1104 1.349 . S
C1103 C1105 1.327 . S
C1103 H1126 0.950 . S
C1104 C1103 1.349 . S
C1104 C1116 1.349 . S
C1105 C1103 1.327 . S
C1105 C1121 1.429 . S
C1105 H1127 0.950 . S
C1106 H1102 0.949 . S
C1106 C1114 1.574 . S
C1106 C1122 1.368 . S
H1107 C1115 0.950 . S
H1108 C1113 0.950 . S
H1109 C1114 0.949 . S
H1110 C1116 0.950 . S
H1111 C1117 0.950 . S
H1112 C1118 0.949 . S
C1113 H1108 0.950 . S
C1113 C1115 1.327 . S
C1113 C1119 1.429 . S
C1114 C1106 1.574 . S
C1114 H1109 0.949 . S
C1114 C1120 1.368 . S
C1115 C1099 1.349 . S
C1115 H1107 0.950 . S
C1115 C1113 1.327 . S
C1116 C1104 1.349 . S
C1116 H1110 0.950 . S
C1116 C1117 1.327 . S
C1117 H1111 0.950 . S
C1117 C1116 1.327 . S
C1117 C1121 1.429 . S
C1118 C1101 1.574 . S
C1118 H1112 0.949 . S
C1118 C1122 1.368 . S
C1119 C1100 1.429 . S
C1119 C1113 1.429 . S
C1119 C1120 1.523 . S
C1120 C1101 1.368 . S
C1120 C1114 1.368 . S
C1120 C1119 1.523 . S
C1121 C1105 1.429 . S
C1121 C1117 1.429 . S
C1121 C1122 1.523 . S
C1122 C1106 1.368 . S
C1122 C1118 1.368 . S
C1122 C1121 1.523 . S
H1123 C1098 0.950 . S
H1124 C1100 0.950 . S
H1125 C1101 0.949 . S
H1126 C1103 0.950 . S
H1127 C1105 0.950 . S
C1128 C1129 1.349 . S
C1128 C1130 1.327 . S
C1128 H1153 0.950 . S
C1129 C1128 1.349 . S
C1129 C1145 1.349 . S
C1130 C1128 1.327 . S
C1130 C1149 1.429 . S
C1130 H1154 0.950 . S
C1131 C1148 1.574 . S
C1131 C1150 1.368 . S
C1131 H1155 0.949 . S
H1132 C1136 0.949 . S
C1133 C1134 1.349 . S
C1133 C1135 1.327 . S
C1133 H1156 0.950 . S
C1134 C1133 1.349 . S
C1134 C1146 1.349 . S
C1135 C1133 1.327 . S
C1135 C1151 1.429 . S
C1135 H1157 0.950 . S
C1136 H1132 0.949 . S
C1136 C1144 1.574 . S
C1136 C1152 1.368 . S
H1137 C1145 0.950 . S
H1138 C1143 0.950 . S
H1139 C1144 0.949 . S
H1140 C1146 0.950 . S
H1141 C1147 0.950 . S
H1142 C1148 0.949 . S
C1143 H1138 0.950 . S
C1143 C1145 1.327 . S
C1143 C1149 1.429 . S
C1144 C1136 1.574 . S
C1144 H1139 0.949 . S
C1144 C1150 1.368 . S
C1145 C1129 1.349 . S
C1145 H1137 0.950 . S
C1145 C1143 1.327 . S
C1146 C1134 1.349 . S
C1146 H1140 0.950 . S
C1146 C1147 1.327 . S
C1147 H1141 0.950 . S
C1147 C1146 1.327 . S
C1147 C1151 1.429 . S
C1148 C1131 1.574 . S
C1148 H1142 0.949 . S
C1148 C1152 1.368 . S
C1149 C1130 1.429 . S
C1149 C1143 1.429 . S
C1149 C1150 1.523 . S
C1150 C1131 1.368 . S
C1150 C1144 1.368 . S
C1150 C1149 1.523 . S
C1151 C1135 1.429 . S
C1151 C1147 1.429 . S
C1151 C1152 1.523 . S
C1152 C1136 1.368 . S
C1152 C1148 1.368 . S
C1152 C1151 1.523 . S
H1153 C1128 0.950 . S
H1154 C1130 0.950 . S
H1155 C1131 0.949 . S
H1156 C1133 0.950 . S
H1157 C1135 0.950 . S
C1158 C1159 1.349 . S
C1158 C1160 1.327 . S
C1158 H1183 0.950 . S
C1159 C1158 1.349 . S
C1159 C1175 1.349 . S
C1160 C1158 1.327 . S
C1160 C1179 1.429 . S
C1160 H1184 0.950 . S
C1161 C1178 1.574 . S
C1161 C1180 1.368 . S
C1161 H1185 0.905 1_565 S
H1162 C1166 0.949 . S
C1163 C1164 1.349 . S
C1163 C1165 1.327 . S
C1163 H1186 0.941 1_565 S
C1164 C1163 1.349 . S
C1164 C1176 1.349 . S
C1165 C1163 1.327 . S
C1165 C1181 1.429 . S
C1165 H1187 0.910 1_565 S
C1166 H1162 0.949 . S
C1166 C1174 1.574 . S
C1166 C1182 1.368 . S
H1167 C1175 0.941 1_545 S
H1168 C1173 0.910 1_545 S
H1169 C1174 0.949 . S
H1170 C1176 0.950 . S
H1171 C1177 0.950 . S
H1172 C1178 0.905 1_545 S
C1173 H1168 0.910 1_565 S
C1173 C1175 1.327 . S
C1173 C1179 1.429 . S
C1174 C1166 1.574 . S
C1174 H1169 0.949 . S
C1174 C1180 1.368 . S
C1175 C1159 1.349 . S
C1175 H1167 0.941 1_565 S
C1175 C1173 1.327 . S
C1176 C1164 1.349 . S
C1176 H1170 0.950 . S
C1176 C1177 1.327 . S
C1177 H1171 0.950 . S
C1177 C1176 1.327 . S
C1177 C1181 1.429 . S
C1178 C1161 1.574 . S
C1178 H1172 0.905 1_565 S
C1178 C1182 1.368 . S
C1179 C1160 1.429 . S
C1179 C1173 1.429 . S
C1179 C1180 1.523 . S
C1180 C1161 1.368 . S
C1180 C1174 1.368 . S
C1180 C1179 1.523 . S
C1181 C1165 1.429 . S
C1181 C1177 1.429 . S
C1181 C1182 1.523 . S
C1182 C1166 1.368 . S
C1182 C1178 1.368 . S
C1182 C1181 1.523 . S
H1183 C1158 0.950 . S
H1184 C1160 0.950 . S
H1185 C1161 0.905 1_545 S
H1186 C1163 0.941 1_545 S
H1187 C1165 0.910 1_545 S
C1188 C1189 1.349 . S
C1188 C1190 1.327 . S
C1188 H1213 0.950 . S
C1189 C1188 1.349 . S
C1189 C1205 1.349 . S
C1190 C1188 1.327 . S
C1190 C1209 1.429 . S
C1190 H1214 0.950 . S
C1191 C1208 1.574 . S
C1191 C1210 1.368 . S
C1191 H1215 0.949 . S
H1192 C1196 0.949 . S
C1193 C1194 1.349 . S
C1193 C1195 1.327 . S
C1193 H1216 0.950 . S
C1194 C1193 1.349 . S
C1194 C1206 1.349 . S
C1195 C1193 1.327 . S
C1195 C1211 1.429 . S
C1195 H1217 0.950 . S
C1196 H1192 0.949 . S
C1196 C1204 1.574 . S
C1196 C1212 1.368 . S
H1197 C1205 0.950 . S
H1198 C1203 0.950 . S
H1199 C1204 0.949 . S
H1200 C1206 0.950 . S
H1201 C1207 0.950 . S
H1202 C1208 0.949 . S
C1203 H1198 0.950 . S
C1203 C1205 1.327 . S
C1203 C1209 1.429 . S
C1204 C1196 1.574 . S
C1204 H1199 0.949 . S
C1204 C1210 1.368 . S
C1205 C1189 1.349 . S
C1205 H1197 0.950 . S
C1205 C1203 1.327 . S
C1206 C1194 1.349 . S
C1206 H1200 0.950 . S
C1206 C1207 1.327 . S
C1207 H1201 0.950 . S
C1207 C1206 1.327 . S
C1207 C1211 1.429 . S
C1208 C1191 1.574 . S
C1208 H1202 0.949 . S
C1208 C1212 1.368 . S
C1209 C1190 1.429 . S
C1209 C1203 1.429 . S
C1209 C1210 1.523 . S
C1210 C1191 1.368 . S
C1210 C1204 1.368 . S
C1210 C1209 1.523 . S
C1211 C1195 1.429 . S
C1211 C1207 1.429 . S
C1211 C1212 1.523 . S
C1212 C1196 1.368 . S
C1212 C1208 1.368 . S
C1212 C1211 1.523 . S
H1213 C1188 0.950 . S
H1214 C1190 0.950 . S
H1215 C1191 0.949 . S
H1216 C1193 0.950 . S
H1217 C1195 0.950 . S
C1218 C1219 1.349 . S
C1218 C1220 1.327 . S
C1218 H1243 0.950 . S
C1219 C1218 1.349 . S
C1219 C1235 1.349 . S
C1220 C1218 1.327 . S
C1220 C1239 1.429 . S
C1220 H1244 0.950 . S
C1221 C1238 1.574 . S
C1221 C1240 1.368 . S
C1221 H1245 0.949 . S
H1222 C1226 0.949 . S
C1223 C1224 1.349 . S
C1223 C1225 1.327 . S
C1223 H1246 0.950 . S
C1224 C1223 1.349 . S
C1224 C1236 1.349 . S
C1225 C1223 1.327 . S
C1225 C1241 1.429 . S
C1225 H1247 0.950 . S
C1226 H1222 0.949 . S
C1226 C1234 1.574 . S
C1226 C1242 1.368 . S
H1227 C1235 0.950 . S
H1228 C1233 0.950 . S
H1229 C1234 0.949 . S
H1230 C1236 0.950 . S
H1231 C1237 0.950 . S
H1232 C1238 0.949 . S
C1233 H1228 0.950 . S
C1233 C1235 1.327 . S
C1233 C1239 1.429 . S
C1234 C1226 1.574 . S
C1234 H1229 0.949 . S
C1234 C1240 1.368 . S
C1235 C1219 1.349 . S
C1235 H1227 0.950 . S
C1235 C1233 1.327 . S
C1236 C1224 1.349 . S
C1236 H1230 0.950 . S
C1236 C1237 1.327 . S
C1237 H1231 0.950 . S
C1237 C1236 1.327 . S
C1237 C1241 1.429 . S
C1238 C1221 1.574 . S
C1238 H1232 0.949 . S
C1238 C1242 1.368 . S
C1239 C1220 1.429 . S
C1239 C1233 1.429 . S
C1239 C1240 1.523 . S
C1240 C1221 1.368 . S
C1240 C1234 1.368 . S
C1240 C1239 1.523 . S
C1241 C1225 1.429 . S
C1241 C1237 1.429 . S
C1241 C1242 1.523 . S
C1242 C1226 1.368 . S
C1242 C1238 1.368 . S
C1242 C1241 1.523 . S
H1243 C1218 0.950 . S
H1244 C1220 0.950 . S
H1245 C1221 0.949 . S
H1246 C1223 0.950 . S
H1247 C1225 0.950 . S
C1248 C1249 1.349 . S
C1248 C1250 1.327 . S
C1248 H1273 0.950 . S
C1249 C1248 1.349 . S
C1249 C1265 1.349 . S
C1250 C1248 1.327 . S
C1250 C1269 1.429 . S
C1250 H1274 0.950 . S
C1251 C1268 1.574 . S
C1251 C1270 1.368 . S
C1251 H1275 0.949 . S
H1252 C1256 0.949 . S
C1253 C1254 1.349 . S
C1253 C1255 1.327 . S
C1253 H1276 0.950 . S
C1254 C1253 1.349 . S
C1254 C1266 1.349 . S
C1255 C1253 1.327 . S
C1255 C1271 1.429 . S
C1255 H1277 0.950 . S
C1256 H1252 0.949 . S
C1256 C1264 1.574 . S
C1256 C1272 1.368 . S
H1257 C1265 0.950 . S
H1258 C1263 0.950 . S
H1259 C1264 0.949 . S
H1260 C1266 0.950 . S
H1261 C1267 0.950 . S
H1262 C1268 0.949 . S
C1263 H1258 0.950 . S
C1263 C1265 1.327 . S
C1263 C1269 1.429 . S
C1264 C1256 1.574 . S
C1264 H1259 0.949 . S
C1264 C1270 1.368 . S
C1265 C1249 1.349 . S
C1265 H1257 0.950 . S
C1265 C1263 1.327 . S
C1266 C1254 1.349 . S
C1266 H1260 0.950 . S
C1266 C1267 1.327 . S
C1267 H1261 0.950 . S
C1267 C1266 1.327 . S
C1267 C1271 1.429 . S
C1268 C1251 1.574 . S
C1268 H1262 0.949 . S
C1268 C1272 1.368 . S
C1269 C1250 1.429 . S
C1269 C1263 1.429 . S
C1269 C1270 1.523 . S
C1270 C1251 1.368 . S
C1270 C1264 1.368 . S
C1270 C1269 1.523 . S
C1271 C1255 1.429 . S
C1271 C1267 1.429 . S
C1271 C1272 1.523 . S
C1272 C1256 1.368 . S
C1272 C1268 1.368 . S
C1272 C1271 1.523 . S
H1273 C1248 0.950 . S
H1274 C1250 0.950 . S
H1275 C1251 0.949 . S
H1276 C1253 0.950 . S
H1277 C1255 0.950 . S
C1278 C1279 1.349 . S
C1278 C1280 1.327 . S
C1278 H1303 0.950 . S
C1279 C1278 1.349 . S
C1279 C1295 1.349 . S
C1280 C1278 1.327 . S
C1280 C1299 1.429 1_556 S
C1280 H1304 0.950 . S
C1281 C1298 1.574 . S
C1281 C1300 1.368 . S
C1281 H1305 0.949 . S
H1282 C1286 0.949 . S
C1283 C1284 1.349 . S
C1283 C1285 1.327 . S
C1283 H1306 0.950 . S
C1284 C1283 1.349 . S
C1284 C1296 1.349 . S
C1285 C1283 1.327 . S
C1285 C1301 1.429 . S
C1285 H1307 0.950 . S
C1286 H1282 0.949 . S
C1286 C1294 1.574 . S
C1286 C1302 1.368 . S
H1287 C1295 0.950 . S
H1288 C1293 0.950 . S
H1289 C1294 0.949 . S
H1290 C1296 0.950 . S
H1291 C1297 0.950 . S
H1292 C1298 0.949 . S
C1293 H1288 0.950 . S
C1293 C1295 1.327 . S
C1293 C1299 1.429 1_556 S
C1294 C1286 1.574 . S
C1294 H1289 0.949 . S
C1294 C1300 1.368 . S
C1295 C1279 1.349 . S
C1295 H1287 0.950 . S
C1295 C1293 1.327 . S
C1296 C1284 1.349 . S
C1296 H1290 0.950 . S
C1296 C1297 1.327 . S
C1297 H1291 0.950 . S
C1297 C1296 1.327 . S
C1297 C1301 1.429 . S
C1298 C1281 1.574 . S
C1298 H1292 0.949 . S
C1298 C1302 1.368 . S
C1299 C1280 1.429 1_554 S
C1299 C1293 1.429 1_554 S
C1299 C1300 1.523 . S
C1300 C1281 1.368 . S
C1300 C1294 1.368 . S
C1300 C1299 1.523 . S
C1301 C1285 1.429 . S
C1301 C1297 1.429 . S
C1301 C1302 1.523 . S
C1302 C1286 1.368 . S
C1302 C1298 1.368 . S
C1302 C1301 1.523 . S
H1303 C1278 0.950 . S
H1304 C1280 0.950 . S
H1305 C1281 0.949 . S
H1306 C1283 0.950 . S
H1307 C1285 0.950 . S
C1308 C1309 1.349 . S
C1308 C1310 1.327 . S
C1308 H1333 0.950 . S
C1309 C1308 1.349 . S
C1309 C1325 1.349 . S
C1310 C1308 1.327 . S
C1310 C1329 1.429 . S
C1310 H1334 0.950 . S
C1311 C1328 1.574 . S
C1311 C1330 1.368 . S
C1311 H1335 0.949 . S
H1312 C1316 0.949 . S
C1313 C1314 1.349 . S
C1313 C1315 1.327 . S
C1313 H1336 0.950 . S
C1314 C1313 1.349 . S
C1314 C1326 1.349 . S
C1315 C1313 1.327 . S
C1315 C1331 1.429 . S
C1315 H1337 0.950 . S
C1316 H1312 0.949 . S
C1316 C1324 1.574 . S
C1316 C1332 1.368 . S
H1317 C1325 0.950 . S
H1318 C1323 0.950 . S
H1319 C1324 0.949 . S
H1320 C1326 0.950 . S
H1321 C1327 0.950 . S
H1322 C1328 0.949 . S
C1323 H1318 0.950 . S
C1323 C1325 1.327 . S
C1323 C1329 1.429 . S
C1324 C1316 1.574 . S
C1324 H1319 0.949 . S
C1324 C1330 1.368 . S
C1325 C1309 1.349 . S
C1325 H1317 0.950 . S
C1325 C1323 1.327 . S
C1326 C1314 1.349 . S
C1326 H1320 0.950 . S
C1326 C1327 1.327 . S
C1327 H1321 0.950 . S
C1327 C1326 1.327 . S
C1327 C1331 1.429 . S
C1328 C1311 1.574 . S
C1328 H1322 0.949 . S
C1328 C1332 1.368 . S
C1329 C1310 1.429 . S
C1329 C1323 1.429 . S
C1329 C1330 1.523 . S
C1330 C1311 1.368 . S
C1330 C1324 1.368 . S
C1330 C1329 1.523 . S
C1331 C1315 1.429 . S
C1331 C1327 1.429 . S
C1331 C1332 1.523 . S
C1332 C1316 1.368 . S
C1332 C1328 1.368 . S
C1332 C1331 1.523 . S
H1333 C1308 0.950 . S
H1334 C1310 0.950 . S
H1335 C1311 0.949 . S
H1336 C1313 0.950 . S
H1337 C1315 0.950 . S
C1338 C1339 1.349 . S
C1338 C1340 1.327 . S
C1338 H1363 0.950 . S
C1339 C1338 1.349 . S
C1339 C1355 1.349 . S
C1340 C1338 1.327 . S
C1340 C1359 1.429 1_556 S
C1340 H1364 0.950 . S
C1341 C1358 1.574 . S
C1341 C1360 1.368 . S
C1341 H1365 0.949 . S
H1342 C1346 0.949 . S
C1343 C1344 1.349 . S
C1343 C1345 1.327 . S
C1343 H1366 0.950 . S
C1344 C1343 1.349 . S
C1344 C1356 1.349 . S
C1345 C1343 1.327 . S
C1345 C1361 1.429 . S
C1345 H1367 0.950 . S
C1346 H1342 0.949 . S
C1346 C1354 1.574 . S
C1346 C1362 1.368 . S
H1347 C1355 0.950 . S
H1348 C1353 0.950 . S
H1349 C1354 0.949 . S
H1350 C1356 0.950 . S
H1351 C1357 0.950 . S
H1352 C1358 0.949 . S
C1353 H1348 0.950 . S
C1353 C1355 1.327 . S
C1353 C1359 1.429 1_556 S
C1354 C1346 1.574 . S
C1354 H1349 0.949 . S
C1354 C1360 1.368 . S
C1355 C1339 1.349 . S
C1355 H1347 0.950 . S
C1355 C1353 1.327 . S
C1356 C1344 1.349 . S
C1356 H1350 0.950 . S
C1356 C1357 1.327 . S
C1357 H1351 0.950 . S
C1357 C1356 1.327 . S
C1357 C1361 1.429 . S
C1358 C1341 1.574 . S
C1358 H1352 0.949 . S
C1358 C1362 1.368 . S
C1359 C1340 1.429 1_554 S
C1359 C1353 1.429 1_554 S
C1359 C1360 1.523 . S
C1360 C1341 1.368 . S
C1360 C1354 1.368 . S
C1360 C1359 1.523 . S
C1361 C1345 1.429 . S
C1361 C1357 1.429 . S
C1361 C1362 1.523 . S
C1362 C1346 1.368 . S
C1362 C1358 1.368 . S
C1362 C1361 1.523 . S
H1363 C1338 0.950 . S
H1364 C1340 0.950 . S
H1365 C1341 0.949 . S
H1366 C1343 0.950 . S
H1367 C1345 0.950 . S
C1368 C1369 1.349 . S
C1368 C1370 1.327 . S
C1368 H1393 0.950 . S
C1369 C1368 1.349 . S
C1369 C1385 1.349 . S
C1370 C1368 1.327 . S
C1370 C1389 1.429 . S
C1370 H1394 0.950 . S
C1371 C1388 1.574 . S
C1371 C1390 1.368 . S
C1371 H1395 0.949 . S
H1372 C1376 0.949 . S
C1373 C1374 1.349 . S
C1373 C1375 1.327 . S
C1373 H1396 0.950 . S
C1374 C1373 1.349 . S
C1374 C1386 1.349 . S
C1375 C1373 1.327 . S
C1375 C1391 1.429 1_554 S
C1375 H1397 0.950 . S
C1376 H1372 0.949 . S
C1376 C1384 1.574 . S
C1376 C1392 1.368 . S
H1377 C1385 0.950 . S
H1378 C1383 0.950 . S
H1379 C1384 0.949 . S
H1380 C1386 0.950 . S
H1381 C1387 0.950 . S
H1382 C1388 0.949 . S
C1383 H1378 0.950 . S
C1383 C1385 1.327 . S
C1383 C1389 1.429 . S
C1384 C1376 1.574 . S
C1384 H1379 0.949 . S
C1384 C1390 1.368 . S
C1385 C1369 1.349 . S
C1385 H1377 0.950 . S
C1385 C1383 1.327 . S
C1386 C1374 1.349 . S
C1386 H1380 0.950 . S
C1386 C1387 1.327 . S
C1387 H1381 0.950 . S
C1387 C1386 1.327 . S
C1387 C1391 1.429 1_554 S
C1388 C1371 1.574 . S
C1388 H1382 0.949 . S
C1388 C1392 1.368 . S
C1389 C1370 1.429 . S
C1389 C1383 1.429 . S
C1389 C1390 1.523 . S
C1390 C1371 1.368 . S
C1390 C1384 1.368 . S
C1390 C1389 1.523 . S
C1391 C1375 1.429 1_556 S
C1391 C1387 1.429 1_556 S
C1391 C1392 1.523 . S
C1392 C1376 1.368 . S
C1392 C1388 1.368 . S
C1392 C1391 1.523 . S
H1393 C1368 0.950 . S
H1394 C1370 0.950 . S
H1395 C1371 0.949 . S
H1396 C1373 0.950 . S
H1397 C1375 0.950 . S
C1398 C1399 1.349 . S
C1398 C1400 1.327 . S
C1398 H1423 0.950 . S
C1399 C1398 1.349 . S
C1399 C1415 1.349 . S
C1400 C1398 1.327 . S
C1400 C1419 1.429 . S
C1400 H1424 0.950 . S
C1401 C1418 1.574 . S
C1401 C1420 1.368 . S
C1401 H1425 0.949 . S
H1402 C1406 0.949 . S
C1403 C1404 1.349 . S
C1403 C1405 1.327 . S
C1403 H1426 0.950 . S
C1404 C1403 1.349 . S
C1404 C1416 1.349 . S
C1405 C1403 1.327 . S
C1405 C1421 1.429 . S
C1405 H1427 0.950 . S
C1406 H1402 0.949 . S
C1406 C1414 1.574 . S
C1406 C1422 1.368 . S
H1407 C1415 0.950 . S
H1408 C1413 0.950 . S
H1409 C1414 0.949 . S
H1410 C1416 0.950 . S
H1411 C1417 0.950 . S
H1412 C1418 0.949 . S
C1413 H1408 0.950 . S
C1413 C1415 1.327 . S
C1413 C1419 1.429 . S
C1414 C1406 1.574 . S
C1414 H1409 0.949 . S
C1414 C1420 1.368 . S
C1415 C1399 1.349 . S
C1415 H1407 0.950 . S
C1415 C1413 1.327 . S
C1416 C1404 1.349 . S
C1416 H1410 0.950 . S
C1416 C1417 1.327 . S
C1417 H1411 0.950 . S
C1417 C1416 1.327 . S
C1417 C1421 1.429 . S
C1418 C1401 1.574 . S
C1418 H1412 0.949 . S
C1418 C1422 1.368 . S
C1419 C1400 1.429 . S
C1419 C1413 1.429 . S
C1419 C1420 1.523 . S
C1420 C1401 1.368 . S
C1420 C1414 1.368 . S
C1420 C1419 1.523 . S
C1421 C1405 1.429 . S
C1421 C1417 1.429 . S
C1421 C1422 1.523 . S
C1422 C1406 1.368 . S
C1422 C1418 1.368 . S
C1422 C1421 1.523 . S
H1423 C1398 0.950 . S
H1424 C1400 0.950 . S
H1425 C1401 0.949 . S
H1426 C1403 0.950 . S
H1427 C1405 0.950 . S
C1428 C1429 1.349 . S
C1428 C1430 1.327 . S
C1428 H1453 0.950 . S
C1429 C1428 1.349 . S
C1429 C1445 1.349 . S
C1430 C1428 1.327 . S
C1430 C1449 1.429 . S
C1430 H1454 0.950 . S
C1431 C1448 1.574 . S
C1431 C1450 1.368 . S
C1431 H1455 0.949 . S
H1432 C1436 0.949 . S
C1433 C1434 1.349 . S
C1433 C1435 1.327 . S
C1433 H1456 0.950 . S
C1434 C1433 1.349 . S
C1434 C1446 1.349 . S
C1435 C1433 1.327 . S
C1435 C1451 1.429 1_554 S
C1435 H1457 0.950 . S
C1436 H1432 0.949 . S
C1436 C1444 1.574 . S
C1436 C1452 1.368 . S
H1437 C1445 0.950 . S
H1438 C1443 0.950 . S
H1439 C1444 0.949 . S
H1440 C1446 0.950 . S
H1441 C1447 0.950 . S
H1442 C1448 0.949 . S
C1443 H1438 0.950 . S
C1443 C1445 1.327 . S
C1443 C1449 1.429 . S
C1444 C1436 1.574 . S
C1444 H1439 0.949 . S
C1444 C1450 1.368 . S
C1445 C1429 1.349 . S
C1445 H1437 0.950 . S
C1445 C1443 1.327 . S
C1446 C1434 1.349 . S
C1446 H1440 0.950 . S
C1446 C1447 1.327 . S
C1447 H1441 0.950 . S
C1447 C1446 1.327 . S
C1447 C1451 1.429 1_554 S
C1448 C1431 1.574 . S
C1448 H1442 0.949 . S
C1448 C1452 1.368 . S
C1449 C1430 1.429 . S
C1449 C1443 1.429 . S
C1449 C1450 1.523 . S
C1450 C1431 1.368 . S
C1450 C1444 1.368 . S
C1450 C1449 1.523 . S
C1451 C1435 1.429 1_556 S
C1451 C1447 1.429 1_556 S
C1451 C1452 1.523 . S
C1452 C1436 1.368 . S
C1452 C1448 1.368 . S
C1452 C1451 1.523 . S
H1453 C1428 0.950 . S
H1454 C1430 0.950 . S
H1455 C1431 0.949 . S
H1456 C1433 0.950 . S
H1457 C1435 0.950 . S
C1458 C1459 1.349 . S
C1458 C1460 1.327 . S
C1458 H1483 0.950 . S
C1459 C1458 1.349 . S
C1459 C1475 1.349 . S
C1460 C1458 1.327 . S
C1460 C1479 1.429 . S
C1460 H1484 0.950 . S
C1461 C1478 1.574 . S
C1461 C1480 1.368 . S
C1461 H1485 0.949 . S
H1462 C1466 0.949 . S
C1463 C1464 1.349 . S
C1463 C1465 1.327 . S
C1463 H1486 0.950 . S
C1464 C1463 1.349 . S
C1464 C1476 1.349 . S
C1465 C1463 1.327 . S
C1465 C1481 1.429 . S
C1465 H1487 0.950 . S
C1466 H1462 0.949 . S
C1466 C1474 1.574 . S
C1466 C1482 1.368 . S
H1467 C1475 0.950 . S
H1468 C1473 0.950 . S
H1469 C1474 0.949 . S
H1470 C1476 0.950 . S
H1471 C1477 0.950 . S
H1472 C1478 0.949 . S
C1473 H1468 0.950 . S
C1473 C1475 1.327 . S
C1473 C1479 1.429 . S
C1474 C1466 1.574 . S
C1474 H1469 0.949 . S
C1474 C1480 1.368 . S
C1475 C1459 1.349 . S
C1475 H1467 0.950 . S
C1475 C1473 1.327 . S
C1476 C1464 1.349 . S
C1476 H1470 0.950 . S
C1476 C1477 1.327 . S
C1477 H1471 0.950 . S
C1477 C1476 1.327 . S
C1477 C1481 1.429 . S
C1478 C1461 1.574 . S
C1478 H1472 0.949 . S
C1478 C1482 1.368 . S
C1479 C1460 1.429 . S
C1479 C1473 1.429 . S
C1479 C1480 1.523 . S
C1480 C1461 1.368 . S
C1480 C1474 1.368 . S
C1480 C1479 1.523 . S
C1481 C1465 1.429 . S
C1481 C1477 1.429 . S
C1481 C1482 1.523 . S
C1482 C1466 1.368 . S
C1482 C1478 1.368 . S
C1482 C1481 1.523 . S
H1483 C1458 0.950 . S
H1484 C1460 0.950 . S
H1485 C1461 0.949 . S
H1486 C1463 0.950 . S
H1487 C1465 0.950 . S
C1488 C1489 1.349 . S
C1488 C1490 1.327 . S
C1488 H1513 0.950 . S
C1489 C1488 1.349 . S
C1489 C1505 1.349 . S
C1490 C1488 1.327 . S
C1490 C1509 1.429 . S
C1490 H1514 0.950 . S
C1491 C1508 1.574 . S
C1491 C1510 1.368 . S
C1491 H1515 0.949 . S
H1492 C1496 0.949 . S
C1493 C1494 1.349 . S
C1493 C1495 1.327 . S
C1493 H1516 0.950 . S
C1494 C1493 1.349 . S
C1494 C1506 1.349 . S
C1495 C1493 1.327 . S
C1495 C1511 1.429 . S
C1495 H1517 0.950 . S
C1496 H1492 0.949 . S
C1496 C1504 1.574 . S
C1496 C1512 1.368 . S
H1497 C1505 0.950 . S
H1498 C1503 0.950 . S
H1499 C1504 0.949 . S
H1500 C1506 0.950 . S
H1501 C1507 0.950 . S
H1502 C1508 0.949 . S
C1503 H1498 0.950 . S
C1503 C1505 1.327 . S
C1503 C1509 1.429 . S
C1504 C1496 1.574 . S
C1504 H1499 0.949 . S
C1504 C1510 1.368 . S
C1505 C1489 1.349 . S
C1505 H1497 0.950 . S
C1505 C1503 1.327 . S
C1506 C1494 1.349 . S
C1506 H1500 0.950 . S
C1506 C1507 1.327 . S
C1507 H1501 0.950 . S
C1507 C1506 1.327 . S
C1507 C1511 1.429 . S
C1508 C1491 1.574 . S
C1508 H1502 0.949 . S
C1508 C1512 1.368 . S
C1509 C1490 1.429 . S
C1509 C1503 1.429 . S
C1509 C1510 1.523 . S
C1510 C1491 1.368 . S
C1510 C1504 1.368 . S
C1510 C1509 1.523 . S
C1511 C1495 1.429 . S
C1511 C1507 1.429 . S
C1511 C1512 1.523 . S
C1512 C1496 1.368 . S
C1512 C1508 1.368 . S
C1512 C1511 1.523 . S
H1513 C1488 0.950 . S
H1514 C1490 0.950 . S
H1515 C1491 0.949 . S
H1516 C1493 0.950 . S
H1517 C1495 0.950 . S
C1518 C1519 1.349 . S
C1518 C1520 1.327 . S
C1518 H1543 0.950 . S
C1519 C1518 1.349 . S
C1519 C1535 1.349 . S
C1520 C1518 1.327 . S
C1520 C1539 1.429 1_554 S
C1520 H1544 0.950 . S
C1521 C1538 1.574 . S
C1521 C1540 1.368 . S
C1521 H1545 0.949 . S
H1522 C1526 0.949 . S
C1523 C1524 1.349 . S
C1523 C1525 1.327 . S
C1523 H1546 0.950 . S
C1524 C1523 1.349 . S
C1524 C1536 1.349 . S
C1525 C1523 1.327 . S
C1525 C1541 1.429 . S
C1525 H1547 0.950 . S
C1526 H1522 0.949 . S
C1526 C1534 1.574 . S
C1526 C1542 1.368 . S
H1527 C1535 0.950 . S
H1528 C1533 0.950 . S
H1529 C1534 0.949 . S
H1530 C1536 0.950 . S
H1531 C1537 0.950 . S
H1532 C1538 0.949 . S
C1533 H1528 0.950 . S
C1533 C1535 1.327 . S
C1533 C1539 1.429 1_554 S
C1534 C1526 1.574 . S
C1534 H1529 0.949 . S
C1534 C1540 1.368 . S
C1535 C1519 1.349 . S
C1535 H1527 0.950 . S
C1535 C1533 1.327 . S
C1536 C1524 1.349 . S
C1536 H1530 0.950 . S
C1536 C1537 1.327 . S
C1537 H1531 0.950 . S
C1537 C1536 1.327 . S
C1537 C1541 1.429 . S
C1538 C1521 1.574 . S
C1538 H1532 0.949 . S
C1538 C1542 1.368 . S
C1539 C1520 1.429 1_556 S
C1539 C1533 1.429 1_556 S
C1539 C1540 1.523 . S
C1540 C1521 1.368 . S
C1540 C1534 1.368 . S
C1540 C1539 1.523 . S
C1541 C1525 1.429 . S
C1541 C1537 1.429 . S
C1541 C1542 1.523 . S
C1542 C1526 1.368 . S
C1542 C1538 1.368 . S
C1542 C1541 1.523 . S
H1543 C1518 0.950 . S
H1544 C1520 0.950 . S
H1545 C1521 0.949 . S
H1546 C1523 0.950 . S
H1547 C1525 0.950 . S
C1548 C1549 1.349 . S
C1548 C1550 1.327 . S
C1548 H1573 0.950 . S
C1549 C1548 1.349 . S
C1549 C1565 1.349 . S
C1550 C1548 1.327 . S
C1550 C1569 1.429 . S
C1550 H1574 0.950 . S
C1551 C1568 1.574 . S
C1551 C1570 1.368 . S
C1551 H1575 0.949 . S
H1552 C1556 0.949 . S
C1553 C1554 1.349 . S
C1553 C1555 1.327 . S
C1553 H1576 0.950 . S
C1554 C1553 1.349 . S
C1554 C1566 1.349 . S
C1555 C1553 1.327 . S
C1555 C1571 1.429 . S
C1555 H1577 0.950 . S
C1556 H1552 0.949 . S
C1556 C1564 1.574 . S
C1556 C1572 1.368 . S
H1557 C1565 0.950 . S
H1558 C1563 0.950 . S
H1559 C1564 0.949 . S
H1560 C1566 0.950 . S
H1561 C1567 0.950 . S
H1562 C1568 0.949 . S
C1563 H1558 0.950 . S
C1563 C1565 1.327 . S
C1563 C1569 1.429 . S
C1564 C1556 1.574 . S
C1564 H1559 0.949 . S
C1564 C1570 1.368 . S
C1565 C1549 1.349 . S
C1565 H1557 0.950 . S
C1565 C1563 1.327 . S
C1566 C1554 1.349 . S
C1566 H1560 0.950 . S
C1566 C1567 1.327 . S
C1567 H1561 0.950 . S
C1567 C1566 1.327 . S
C1567 C1571 1.429 . S
C1568 C1551 1.574 . S
C1568 H1562 0.949 . S
C1568 C1572 1.368 . S
C1569 C1550 1.429 . S
C1569 C1563 1.429 . S
C1569 C1570 1.523 . S
C1570 C1551 1.368 . S
C1570 C1564 1.368 . S
C1570 C1569 1.523 . S
C1571 C1555 1.429 . S
C1571 C1567 1.429 . S
C1571 C1572 1.523 . S
C1572 C1556 1.368 . S
C1572 C1568 1.368 . S
C1572 C1571 1.523 . S
H1573 C1548 0.950 . S
H1574 C1550 0.950 . S
H1575 C1551 0.949 . S
H1576 C1553 0.950 . S
H1577 C1555 0.950 . S
C1578 C1579 1.349 . S
C1578 C1580 1.327 . S
C1578 H1603 0.950 . S
C1579 C1578 1.349 . S
C1579 C1595 1.349 . S
C1580 C1578 1.327 . S
C1580 C1599 1.429 1_554 S
C1580 H1604 0.950 . S
C1581 C1598 1.574 . S
C1581 C1600 1.368 . S
C1581 H1605 0.949 . S
H1582 C1586 0.949 . S
C1583 C1584 1.349 . S
C1583 C1585 1.327 . S
C1583 H1606 0.950 . S
C1584 C1583 1.349 . S
C1584 C1596 1.349 . S
C1585 C1583 1.327 . S
C1585 C1601 1.429 . S
C1585 H1607 0.950 . S
C1586 H1582 0.949 . S
C1586 C1594 1.574 . S
C1586 C1602 1.368 . S
H1587 C1595 0.950 . S
H1588 C1593 0.950 . S
H1589 C1594 0.949 . S
H1590 C1596 0.950 . S
H1591 C1597 0.950 . S
H1592 C1598 0.949 . S
C1593 H1588 0.950 . S
C1593 C1595 1.327 . S
C1593 C1599 1.429 1_554 S
C1594 C1586 1.574 . S
C1594 H1589 0.949 . S
C1594 C1600 1.368 . S
C1595 C1579 1.349 . S
C1595 H1587 0.950 . S
C1595 C1593 1.327 . S
C1596 C1584 1.349 . S
C1596 H1590 0.950 . S
C1596 C1597 1.327 . S
C1597 H1591 0.950 . S
C1597 C1596 1.327 . S
C1597 C1601 1.429 . S
C1598 C1581 1.574 . S
C1598 H1592 0.949 . S
C1598 C1602 1.368 . S
C1599 C1580 1.429 1_556 S
C1599 C1593 1.429 1_556 S
C1599 C1600 1.523 . S
C1600 C1581 1.368 . S
C1600 C1594 1.368 . S
C1600 C1599 1.523 . S
C1601 C1585 1.429 . S
C1601 C1597 1.429 . S
C1601 C1602 1.523 . S
C1602 C1586 1.368 . S
C1602 C1598 1.368 . S
C1602 C1601 1.523 . S
H1603 C1578 0.950 . S
H1604 C1580 0.950 . S
H1605 C1581 0.949 . S
H1606 C1583 0.950 . S
H1607 C1585 0.950 . S
C1608 C1609 1.349 . S
C1608 C1610 1.327 . S
C1608 H1633 0.950 . S
C1609 C1608 1.349 . S
C1609 C1625 1.349 . S
C1610 C1608 1.327 . S
C1610 C1629 1.429 . S
C1610 H1634 0.950 . S
C1611 C1628 1.574 . S
C1611 C1630 1.368 . S
C1611 H1635 0.949 . S
H1612 C1616 0.949 . S
C1613 C1614 1.349 . S
C1613 C1615 1.327 . S
C1613 H1636 0.950 . S
C1614 C1613 1.349 . S
C1614 C1626 1.349 . S
C1615 C1613 1.327 . S
C1615 C1631 1.429 1_556 S
C1615 H1637 0.950 . S
C1616 H1612 0.949 . S
C1616 C1624 1.574 . S
C1616 C1632 1.368 . S
H1617 C1625 0.950 . S
H1618 C1623 0.950 . S
H1619 C1624 0.949 . S
H1620 C1626 0.950 . S
H1621 C1627 0.950 . S
H1622 C1628 0.949 . S
C1623 H1618 0.950 . S
C1623 C1625 1.327 . S
C1623 C1629 1.429 . S
C1624 C1616 1.574 . S
C1624 H1619 0.949 . S
C1624 C1630 1.368 . S
C1625 C1609 1.349 . S
C1625 H1617 0.950 . S
C1625 C1623 1.327 . S
C1626 C1614 1.349 . S
C1626 H1620 0.950 . S
C1626 C1627 1.327 . S
C1627 H1621 0.950 . S
C1627 C1626 1.327 . S
C1627 C1631 1.429 1_556 S
C1628 C1611 1.574 . S
C1628 H1622 0.949 . S
C1628 C1632 1.368 . S
C1629 C1610 1.429 . S
C1629 C1623 1.429 . S
C1629 C1630 1.523 . S
C1630 C1611 1.368 . S
C1630 C1624 1.368 . S
C1630 C1629 1.523 . S
C1631 C1615 1.429 1_554 S
C1631 C1627 1.429 1_554 S
C1631 C1632 1.523 . S
C1632 C1616 1.368 . S
C1632 C1628 1.368 . S
C1632 C1631 1.523 . S
H1633 C1608 0.950 . S
H1634 C1610 0.950 . S
H1635 C1611 0.949 . S
H1636 C1613 0.950 . S
H1637 C1615 0.950 . S
C1638 C1639 1.349 . S
C1638 C1640 1.327 . S
C1638 H1663 0.950 . S
C1639 C1638 1.349 . S
C1639 C1655 1.349 . S
C1640 C1638 1.327 . S
C1640 C1659 1.429 . S
C1640 H1664 0.950 . S
C1641 C1658 1.574 . S
C1641 C1660 1.368 . S
C1641 H1665 0.949 . S
H1642 C1646 0.949 . S
C1643 C1644 1.349 . S
C1643 C1645 1.327 . S
C1643 H1666 0.950 . S
C1644 C1643 1.349 . S
C1644 C1656 1.349 . S
C1645 C1643 1.327 . S
C1645 C1661 1.429 . S
C1645 H1667 0.950 . S
C1646 H1642 0.949 . S
C1646 C1654 1.574 . S
C1646 C1662 1.368 . S
H1647 C1655 0.950 . S
H1648 C1653 0.950 . S
H1649 C1654 0.949 . S
H1650 C1656 0.950 . S
H1651 C1657 0.950 . S
H1652 C1658 0.949 . S
C1653 H1648 0.950 . S
C1653 C1655 1.327 . S
C1653 C1659 1.429 . S
C1654 C1646 1.574 . S
C1654 H1649 0.949 . S
C1654 C1660 1.368 . S
C1655 C1639 1.349 . S
C1655 H1647 0.950 . S
C1655 C1653 1.327 . S
C1656 C1644 1.349 . S
C1656 H1650 0.950 . S
C1656 C1657 1.327 . S
C1657 H1651 0.950 . S
C1657 C1656 1.327 . S
C1657 C1661 1.429 . S
C1658 C1641 1.574 . S
C1658 H1652 0.949 . S
C1658 C1662 1.368 . S
C1659 C1640 1.429 . S
C1659 C1653 1.429 . S
C1659 C1660 1.523 . S
C1660 C1641 1.368 . S
C1660 C1654 1.368 . S
C1660 C1659 1.523 . S
C1661 C1645 1.429 . S
C1661 C1657 1.429 . S
C1661 C1662 1.523 . S
C1662 C1646 1.368 . S
C1662 C1658 1.368 . S
C1662 C1661 1.523 . S
H1663 C1638 0.950 . S
H1664 C1640 0.950 . S
H1665 C1641 0.949 . S
H1666 C1643 0.950 . S
H1667 C1645 0.950 . S
C1668 C1669 1.349 . S
C1668 C1670 1.327 . S
C1668 H1693 0.950 . S
C1669 C1668 1.349 . S
C1669 C1685 1.349 . S
C1670 C1668 1.327 . S
C1670 C1689 1.429 1_556 S
C1670 H1694 0.950 . S
C1671 C1688 1.574 . S
C1671 C1690 1.368 . S
C1671 H1695 0.949 . S
H1672 C1676 0.949 . S
C1673 C1674 1.349 . S
C1673 C1675 1.327 . S
C1673 H1696 0.950 . S
C1674 C1673 1.349 . S
C1674 C1686 1.349 . S
C1675 C1673 1.327 . S
C1675 C1691 1.429 . S
C1675 H1697 0.950 . S
C1676 H1672 0.949 . S
C1676 C1684 1.574 . S
C1676 C1692 1.368 . S
H1677 C1685 0.950 . S
H1678 C1683 0.950 . S
H1679 C1684 0.949 . S
H1680 C1686 0.950 . S
H1681 C1687 0.950 . S
H1682 C1688 0.949 . S
C1683 H1678 0.950 . S
C1683 C1685 1.327 . S
C1683 C1689 1.429 1_556 S
C1684 C1676 1.574 . S
C1684 H1679 0.949 . S
C1684 C1690 1.368 . S
C1685 C1669 1.349 . S
C1685 H1677 0.950 . S
C1685 C1683 1.327 . S
C1686 C1674 1.349 . S
C1686 H1680 0.950 . S
C1686 C1687 1.327 . S
C1687 H1681 0.950 . S
C1687 C1686 1.327 . S
C1687 C1691 1.429 . S
C1688 C1671 1.574 . S
C1688 H1682 0.949 . S
C1688 C1692 1.368 . S
C1689 C1670 1.429 1_554 S
C1689 C1683 1.429 1_554 S
C1689 C1690 1.523 . S
C1690 C1671 1.368 . S
C1690 C1684 1.368 . S
C1690 C1689 1.523 . S
C1691 C1675 1.429 . S
C1691 C1687 1.429 . S
C1691 C1692 1.523 . S
C1692 C1676 1.368 . S
C1692 C1688 1.368 . S
C1692 C1691 1.523 . S
H1693 C1668 0.950 . S
H1694 C1670 0.950 . S
H1695 C1671 0.949 . S
H1696 C1673 0.950 . S
H1697 C1675 0.950 . S
C1698 C1699 1.349 . S
C1698 C1700 1.327 . S
C1698 H1723 0.950 . S
C1699 C1698 1.349 . S
C1699 C1715 1.349 . S
C1700 C1698 1.327 . S
C1700 C1719 1.429 . S
C1700 H1724 0.950 . S
C1701 C1718 1.574 . S
C1701 C1720 1.368 . S
C1701 H1725 0.949 . S
H1702 C1706 0.949 . S
C1703 C1704 1.349 . S
C1703 C1705 1.327 . S
C1703 H1726 0.950 . S
C1704 C1703 1.349 . S
C1704 C1716 1.349 . S
C1705 C1703 1.327 . S
C1705 C1721 1.429 . S
C1705 H1727 0.950 . S
C1706 H1702 0.949 . S
C1706 C1714 1.574 . S
C1706 C1722 1.368 . S
H1707 C1715 0.950 . S
H1708 C1713 0.950 . S
H1709 C1714 0.949 . S
H1710 C1716 0.950 . S
H1711 C1717 0.950 . S
H1712 C1718 0.949 . S
C1713 H1708 0.950 . S
C1713 C1715 1.327 . S
C1713 C1719 1.429 . S
C1714 C1706 1.574 . S
C1714 H1709 0.949 . S
C1714 C1720 1.368 . S
C1715 C1699 1.349 . S
C1715 H1707 0.950 . S
C1715 C1713 1.327 . S
C1716 C1704 1.349 . S
C1716 H1710 0.950 . S
C1716 C1717 1.327 . S
C1717 H1711 0.950 . S
C1717 C1716 1.327 . S
C1717 C1721 1.429 . S
C1718 C1701 1.574 . S
C1718 H1712 0.949 . S
C1718 C1722 1.368 . S
C1719 C1700 1.429 . S
C1719 C1713 1.429 . S
C1719 C1720 1.523 . S
C1720 C1701 1.368 . S
C1720 C1714 1.368 . S
C1720 C1719 1.523 . S
C1721 C1705 1.429 . S
C1721 C1717 1.429 . S
C1721 C1722 1.523 . S
C1722 C1706 1.368 . S
C1722 C1718 1.368 . S
C1722 C1721 1.523 . S
H1723 C1698 0.950 . S
H1724 C1700 0.950 . S
H1725 C1701 0.949 . S
H1726 C1703 0.950 . S
H1727 C1705 0.950 . S
C529 C17 1.487 . S
C534 C512 1.487 . S
C559 C50 1.487 . S
C564 C413 1.487 . S
C589 C446 1.487 . S
C594 C83 1.487 . S
C619 C116 1.487 . S
C624 C479 1.487 . S
C649 C314 1.487 . S
C654 C149 1.487 . S
C679 C347 1.487 . S
C684 C182 1.487 . S
C709 C380 1.487 . S
C714 C215 1.487 . S
C739 C281 1.487 . S
C744 C248 1.487 . S
C769 C8 1.276 . S
C774 C239 1.276 . S
C799 C41 1.277 . S
C804 C140 1.277 . S
C829 C74 1.276 . S
C834 C173 1.276 . S
C859 C107 1.277 . S
C864 C206 1.277 . S
C889 C503 1.276 . S
C894 C272 1.276 . S
C919 C404 1.277 . S
C924 C305 1.277 . S
C949 C437 1.276 . S
C954 C338 1.276 . S
C979 C371 1.277 . S
C984 C470 1.277 . S
C1009 C28 0.887 . S
C1014 C160 0.887 . S
C1039 C193 0.888 . S
C1044 C61 0.888 . S
C1069 C226 0.887 . S
C1074 C94 0.887 . S
C1099 C127 0.887 . S
C1104 C259 0.887 . S
C1129 C424 0.888 . S
C1134 C292 0.888 . S
C1159 C325 0.887 . S
C1164 C457 0.887 . S
C1189 C358 0.887 . S
C1194 C490 0.887 . S
C1219 C523 0.887 . S
C1224 C391 0.887 . S
C1249 N14 1.333 . S
C1254 N5 1.337 . S
C1279 N38 1.337 . S
C1284 N47 1.333 . S
C1309 N80 1.333 . S
C1314 N71 1.337 . S
C1339 N104 1.337 . S
C1344 N113 1.333 . S
C1369 N146 1.333 . S
C1374 N137 1.337 . S
C1399 N179 1.333 . S
C1404 N170 1.337 . S
C1429 N212 1.333 . S
C1434 N203 1.337 . S
C1459 N245 1.333 . S
C1464 N236 1.337 . S
C1489 N269 1.337 . S
C1494 N278 1.333 . S
C1519 N302 1.337 . S
C1524 N311 1.333 . S
C1549 N335 1.337 . S
C1554 N344 1.333 . S
C1579 N368 1.337 . S
C1584 N377 1.333 . S
C1609 N410 1.333 . S
C1614 N401 1.337 . S
C1639 N443 1.333 . S
C1644 N434 1.337 . S
C1669 N467 1.337 . S
C1674 N476 1.333 . S
C1699 N500 1.337 . S
C1704 N509 1.333 . S
