# Generated by pormake.
# Topology wlb, (5)-cn, num edge types: 1
# Building blocks:
#     Node 0, Type 0, BuildingBlock: XOMCOT_clean_sbu_1, # of connection points: 5
#     Node 1, Type 0, BuildingBlock: XOMCOT_clean_sbu_1, # of connection points: 5
#     Node 2, Type 0, BuildingBlock: XOMCOT_clean_sbu_1, # of connection points: 5
#     Node 3, Type 0, BuildingBlock: XOMCOT_clean_sbu_1, # of connection points: 5
#     Node 4, Type 0, BuildingBlock: XOMCOT_clean_sbu_1, # of connection points: 5
#     Node 5, Type 0, BuildingBlock: XOMCOT_clean_sbu_1, # of connection points: 5
#     Node 6, Type 0, BuildingBlock: XOMCOT_clean_sbu_1, # of connection points: 5
#     Node 7, Type 0, BuildingBlock: XOMCOT_clean_sbu_1, # of connection points: 5
#     Node 8, Type 0, BuildingBlock: XOMCOT_clean_sbu_1, # of connection points: 5
#     Node 9, Type 0, BuildingBlock: XOMCOT_clean_sbu_1, # of connection points: 5
#     Node 10, Type 0, BuildingBlock: XOMCOT_clean_sbu_1, # of connection points: 5
#     Node 11, Type 0, BuildingBlock: XOMCOT_clean_sbu_1, # of connection points: 5
#     Node 12, Type 0, BuildingBlock: XOMCOT_clean_sbu_1, # of connection points: 5
#     Node 13, Type 0, BuildingBlock: XOMCOT_clean_sbu_1, # of connection points: 5
#     Node 14, Type 0, BuildingBlock: XOMCOT_clean_sbu_1, # of connection points: 5
#     Node 15, Type 0, BuildingBlock: XOMCOT_clean_sbu_1, # of connection points: 5
#     Node 16, Type 0, BuildingBlock: XOMCOT_clean_sbu_1, # of connection points: 5
#     Node 17, Type 0, BuildingBlock: XOMCOT_clean_sbu_1, # of connection points: 5
#     Edge 18, Type (0, 0), BuildingBlock: KIFKEQ_clean_linker_1, # of connection points: 2
#     Edge 19, Type (0, 0), BuildingBlock: KIFKEQ_clean_linker_1, # of connection points: 2
#     Edge 20, Type (0, 0), BuildingBlock: KIFKEQ_clean_linker_1, # of connection points: 2
#     Edge 21, Type (0, 0), BuildingBlock: KIFKEQ_clean_linker_1, # of connection points: 2
#     Edge 22, Type (0, 0), BuildingBlock: KIFKEQ_clean_linker_1, # of connection points: 2
#     Edge 23, Type (0, 0), BuildingBlock: KIFKEQ_clean_linker_1, # of connection points: 2
#     Edge 24, Type (0, 0), BuildingBlock: KIFKEQ_clean_linker_1, # of connection points: 2
#     Edge 25, Type (0, 0), BuildingBlock: KIFKEQ_clean_linker_1, # of connection points: 2
#     Edge 26, Type (0, 0), BuildingBlock: KIFKEQ_clean_linker_1, # of connection points: 2
#     Edge 27, Type (0, 0), BuildingBlock: KIFKEQ_clean_linker_1, # of connection points: 2
#     Edge 28, Type (0, 0), BuildingBlock: KIFKEQ_clean_linker_1, # of connection points: 2
#     Edge 29, Type (0, 0), BuildingBlock: KIFKEQ_clean_linker_1, # of connection points: 2
#     Edge 30, Type (0, 0), BuildingBlock: KIFKEQ_clean_linker_1, # of connection points: 2
#     Edge 31, Type (0, 0), BuildingBlock: KIFKEQ_clean_linker_1, # of connection points: 2
#     Edge 32, Type (0, 0), BuildingBlock: KIFKEQ_clean_linker_1, # of connection points: 2
#     Edge 33, Type (0, 0), BuildingBlock: KIFKEQ_clean_linker_1, # of connection points: 2
#     Edge 34, Type (0, 0), BuildingBlock: KIFKEQ_clean_linker_1, # of connection points: 2
#     Edge 35, Type (0, 0), BuildingBlock: KIFKEQ_clean_linker_1, # of connection points: 2
#     Edge 36, Type (0, 0), BuildingBlock: KIFKEQ_clean_linker_1, # of connection points: 2
#     Edge 37, Type (0, 0), BuildingBlock: KIFKEQ_clean_linker_1, # of connection points: 2
#     Edge 38, Type (0, 0), BuildingBlock: KIFKEQ_clean_linker_1, # of connection points: 2
#     Edge 39, Type (0, 0), BuildingBlock: KIFKEQ_clean_linker_1, # of connection points: 2
#     Edge 40, Type (0, 0), BuildingBlock: KIFKEQ_clean_linker_1, # of connection points: 2
#     Edge 41, Type (0, 0), BuildingBlock: KIFKEQ_clean_linker_1, # of connection points: 2
#     Edge 42, Type (0, 0), BuildingBlock: KIFKEQ_clean_linker_1, # of connection points: 2
#     Edge 43, Type (0, 0), BuildingBlock: KIFKEQ_clean_linker_1, # of connection points: 2
#     Edge 44, Type (0, 0), BuildingBlock: KIFKEQ_clean_linker_1, # of connection points: 2
#     Edge 45, Type (0, 0), BuildingBlock: KIFKEQ_clean_linker_1, # of connection points: 2
#     Edge 46, Type (0, 0), BuildingBlock: KIFKEQ_clean_linker_1, # of connection points: 2
#     Edge 47, Type (0, 0), BuildingBlock: KIFKEQ_clean_linker_1, # of connection points: 2
#     Edge 48, Type (0, 0), BuildingBlock: KIFKEQ_clean_linker_1, # of connection points: 2
#     Edge 49, Type (0, 0), BuildingBlock: KIFKEQ_clean_linker_1, # of connection points: 2
#     Edge 50, Type (0, 0), BuildingBlock: KIFKEQ_clean_linker_1, # of connection points: 2
#     Edge 51, Type (0, 0), BuildingBlock: KIFKEQ_clean_linker_1, # of connection points: 2
#     Edge 52, Type (0, 0), BuildingBlock: KIFKEQ_clean_linker_1, # of connection points: 2
#     Edge 53, Type (0, 0), BuildingBlock: KIFKEQ_clean_linker_1, # of connection points: 2
#     Edge 54, Type (0, 0), BuildingBlock: KIFKEQ_clean_linker_1, # of connection points: 2
#     Edge 55, Type (0, 0), BuildingBlock: KIFKEQ_clean_linker_1, # of connection points: 2
#     Edge 56, Type (0, 0), BuildingBlock: KIFKEQ_clean_linker_1, # of connection points: 2
#     Edge 57, Type (0, 0), BuildingBlock: KIFKEQ_clean_linker_1, # of connection points: 2
#     Edge 58, Type (0, 0), BuildingBlock: KIFKEQ_clean_linker_1, # of connection points: 2
#     Edge 59, Type (0, 0), BuildingBlock: KIFKEQ_clean_linker_1, # of connection points: 2
#     Edge 60, Type (0, 0), BuildingBlock: KIFKEQ_clean_linker_1, # of connection points: 2
#     Edge 61, Type (0, 0), BuildingBlock: KIFKEQ_clean_linker_1, # of connection points: 2
#     Edge 62, Type (0, 0), BuildingBlock: KIFKEQ_clean_linker_1, # of connection points: 2
# Relax obj value: 0.336
# Max RMSD: 0.210
# Mean RMSD: 0.210
data_MOF--net-wlb--node1-XOMCOT_clean_sbu_1--edge1-KIFKEQ_clean_linker_1
_symmetry_space_group_name_H-M    P1
_symmetry_Int_Tables_number       1
_symmetry_cell_setting            triclinic
loop_
_symmetry_equiv_pos_as_xyz
'x, y, z'
_cell_length_a     52.881232
_cell_length_b     52.822792
_cell_length_c     40.530825
_cell_angle_alpha  90.022822
_cell_angle_beta   89.952613
_cell_angle_gamma 120.02336
loop_
_atom_site_label
_atom_site_type_symbol
_atom_site_fract_x
_atom_site_fract_y
_atom_site_fract_z
_atom_type_partial_charge
C0 C 0.10839 0.1978 0.19986 0.0
C1 C 0.12152 0.18125 0.20415 0.0
N2 N 0.10776 0.16206 0.22884 0.0
N3 N 0.08633 0.18915 0.22161 0.0
C4 C 0.08644 0.16735 0.23901 0.0
H5 H 0.11436 0.21493 0.18178 0.0
Co6 Co 0.06215 0.20536 0.22436 0.0
C7 C 1.00327 0.15619 0.23798 0.0
O8 O 0.99372 0.16889 0.2176 0.0
N9 N 0.03816 0.22256 0.22826 0.0
C10 C 0.00859 0.23538 0.25323 0.0
C11 C 0.02475 0.22182 0.25703 0.0
C12 C 0.03043 0.23775 0.20762 0.0
N13 N 0.01224 0.2454 0.22216 0.0
O14 O 0.07867 0.22234 0.26637 0.0
H15 H 0.0261 0.21138 0.27938 0.0
H16 H 0.03721 0.24279 0.18225 0.0
O17 O 0.03072 0.16846 0.24413 0.0
C18 C 0.10211 0.24652 0.26095 0.0
O19 O 0.11186 0.25285 0.23052 0.0
N20 N 0.04902 0.19166 0.18137 0.0
C21 C 0.03877 0.17787 0.11434 0.0
C22 C 0.02926 0.15568 0.1382 0.0
C23 C 0.03518 0.16305 0.17156 0.0
C24 C 0.06023 0.21332 0.15836 0.0
C25 C 0.05467 0.20704 0.1249 0.0
H26 H 0.02959 0.14571 0.18917 0.0
H27 H 0.0741 0.23575 0.16608 0.0
H28 H 0.07139 0.15577 0.25891 0.0
H29 H 0.13946 0.18288 0.18965 0.0
H30 H 0.99519 0.23772 0.27182 0.0
H31 H 0.01817 0.13286 0.13113 0.0
H32 H 0.06289 0.22502 0.10755 0.0
C33 C 0.80943 0.91154 0.212 0.0
C34 C 0.82587 0.94108 0.21791 0.0
N35 N 0.85134 0.9466 0.23148 0.0
N36 N 0.82428 0.89838 0.22215 0.0
C37 C 0.84996 0.92043 0.23366 0.0
H38 H 0.78784 0.90033 0.20126 0.0
Co39 Co 0.80885 0.85793 0.22138 0.0
C40 C 0.85646 0.84726 0.23964 0.0
O41 O 0.84577 0.82664 0.21706 0.0
N42 N 0.79203 0.81645 0.22183 0.0
C43 C 0.77569 0.77266 0.24492 0.0
C44 C 0.78942 0.80214 0.25045 0.0
C45 C 0.77903 0.79468 0.1992 0.0
N46 N 0.76917 0.76788 0.21265 0.0
O47 O 0.78751 0.85435 0.26118 0.0
H48 H 0.79717 0.8126 0.27415 0.0
H49 H 0.77682 0.79807 0.17339 0.0
O50 O 0.84373 0.86214 0.24527 0.0
C51 C 0.76175 0.84712 0.25147 0.0
O52 O 0.75691 0.84567 0.21953 0.0
N53 N 0.82684 0.86189 0.18028 0.0
C54 C 0.84701 0.86989 0.1153 0.0
C55 C 0.86674 0.88096 0.14175 0.0
C56 C 0.8562 0.87729 0.17407 0.0
C57 C 0.80753 0.85291 0.15481 0.0
C58 C 0.81702 0.85593 0.12224 0.0
H59 H 0.87173 0.88762 0.1938 0.0
H60 H 0.78447 0.84351 0.15984 0.0
H61 H 0.86707 0.91746 0.24412 0.0
H62 H 0.8197 0.95733 0.21246 0.0
H63 H 0.77044 0.756 0.26345 0.0
H64 H 0.89009 0.89305 0.13751 0.0
H65 H 0.80087 0.84728 0.10275 0.0
C66 C 0.10005 0.90079 0.21534 0.0
C67 C 0.07042 0.88722 0.22072 0.0
N68 N 0.06475 0.9057 0.23772 0.0
N69 N 0.11303 0.92758 0.22922 0.0
C70 C 0.09084 0.93004 0.24249 0.0
H71 H 0.11146 0.89157 0.20243 0.0
Co72 Co 0.15334 0.95257 0.23067 0.0
C73 C 0.16273 0.01052 0.25159 0.0
O74 O 0.18614 0.02284 0.23285 0.0
N75 N 0.19455 0.97716 0.23305 0.0
C76 C 0.23824 1.00431 0.2563 0.0
C77 C 0.20868 0.98884 0.26172 0.0
C78 C 0.21635 0.98537 0.21069 0.0
N79 N 0.24315 1.00213 0.22411 0.0
O80 O 0.15522 0.93455 0.27101 0.0
H81 H 0.19806 0.98652 0.28524 0.0
H82 H 0.21299 0.97869 0.18522 0.0
O83 O 0.14759 0.98256 0.25361 0.0
C84 C 0.16154 0.9152 0.26185 0.0
O85 O 0.16308 0.91136 0.23003 0.0
N86 N 0.15141 0.96699 0.1891 0.0
C87 C 0.15113 0.98215 0.12348 0.0
C88 C 0.13935 0.99197 0.14797 0.0
C89 C 0.13932 0.98374 0.18083 0.0
C90 C 0.15995 0.9549 0.16503 0.0
C91 C 0.16082 0.96281 0.13218 0.0
H92 H 0.12919 0.99049 0.19921 0.0
H93 H 0.16684 0.93943 0.17158 0.0
H94 H 0.09363 0.94881 0.25622 0.0
H95 H 0.05423 0.86552 0.21263 0.0
H96 H 0.2547 0.01649 0.27472 0.0
H97 H 0.13067 1.0061 0.14185 0.0
H98 H 0.16896 0.95385 0.1137 0.0
C99 C 0.20734 0.11058 0.79724 0.0
C100 C 0.19112 0.1242 0.79495 0.0
N101 N 0.16833 0.10863 0.77446 0.0
N102 N 0.19517 0.08649 0.77826 0.0
C103 C 0.17151 0.08583 0.76458 0.0
H104 H 0.22681 0.11773 0.81193 0.0
Co105 Co 0.21047 0.06169 0.7745 0.0
C106 C 0.16166 1.0039 0.75643 0.0
O107 O 0.17342 0.9931 0.77646 0.0
N108 N 0.22715 0.03726 0.76972 0.0
C109 C 0.24221 0.00999 0.74361 0.0
C110 C 0.22807 0.02564 0.7403 0.0
C111 C 0.24163 0.02874 0.79039 0.0
N112 N 0.25077 0.01191 0.7752 0.0
O113 O 0.22933 0.08036 0.73399 0.0
H114 H 0.21865 0.02813 0.7177 0.0
H115 H 0.24609 0.03505 0.8159 0.0
O116 O 0.17423 0.03169 0.75219 0.0
C117 C 0.25508 0.09989 0.74261 0.0
O118 O 0.26093 0.10398 0.77432 0.0
N119 N 0.19496 0.04657 0.81631 0.0
C120 C 0.17916 0.03158 0.88197 0.0
C121 C 0.15765 0.02388 0.85773 0.0
C122 C 0.16605 0.03207 0.82493 0.0
C123 C 0.21583 0.05668 0.84018 0.0
C124 C 0.20854 0.0487 0.873 0.0
H125 H 0.14929 0.02731 0.80683 0.0
H126 H 0.23842 0.07125 0.83363 0.0
H127 H 0.1569 0.06887 0.74789 0.0
H128 H 0.19616 0.14422 0.80752 0.0
H129 H 0.24543 0.99775 0.72429 0.0
H130 H 0.13467 0.01163 0.86405 0.0
H131 H 0.22571 0.0563 0.89133 0.0
C132 C 0.90813 0.09638 0.78553 0.0
C133 C 0.89542 0.06687 0.7796 0.0
N134 N 0.91249 0.06269 0.75828 0.0
N135 N 0.93291 0.11073 0.76771 0.0
C136 C 0.93511 0.08952 0.75145 0.0
H137 H 0.89971 0.10679 0.8016 0.0
Co138 Co 0.9561 0.1513 0.76595 0.0
C139 C 0.01558 0.16367 0.74921 0.0
O140 O 0.02557 0.18664 0.76857 0.0
N141 N 0.97899 0.19273 0.76304 0.0
C142 C 1.00608 0.23612 0.73881 0.0
C143 C 0.99081 0.20643 0.73414 0.0
C144 C 0.98697 0.21498 0.78481 0.0
N145 N 1.00368 0.24146 0.77072 0.0
O146 O 0.93894 0.1518 0.72452 0.0
H147 H 0.98897 0.19544 0.711 0.0
H148 H 0.98137 0.21228 0.81062 0.0
O149 O 0.98795 0.14744 0.74497 0.0
C150 C 0.91586 0.15295 0.73071 0.0
O151 O 0.90709 0.15036 0.76148 0.0
N152 N 0.96995 0.15051 0.80836 0.0
C153 C 0.98471 0.15029 0.8742 0.0
C154 C 0.99397 0.13779 0.84997 0.0
C155 C 0.98592 0.13768 0.81709 0.0
C156 C 0.95824 0.15976 0.83215 0.0
C157 C 0.96607 0.16075 0.86512 0.0
H158 H 0.99213 0.12683 0.79897 0.0
H159 H 0.943 0.16687 0.82532 0.0
H160 H 0.95241 0.09354 0.73431 0.0
H161 H 0.87533 0.04974 0.79027 0.0
H162 H 0.01795 0.2525 0.72014 0.0
H163 H 1.00753 0.1285 0.85633 0.0
H164 H 0.95743 0.1694 0.8834 0.0
C165 C 0.91898 0.8066 0.77398 0.0
C166 C 0.94834 0.82347 0.76741 0.0
N167 N 0.95371 0.85006 0.75767 0.0
N168 N 0.90577 0.82233 0.76805 0.0
C169 C 0.92763 0.84891 0.75843 0.0
H170 H 0.90794 0.78414 0.78222 0.0
Co171 Co 0.86547 0.80721 0.77077 0.0
C172 C 0.85486 0.85527 0.75398 0.0
O173 O 0.83507 0.84497 0.77748 0.0
N174 N 0.82417 0.79086 0.77229 0.0
C175 C 0.77981 0.77585 0.75167 0.0
C176 C 0.80896 0.78873 0.74457 0.0
C177 C 0.80328 0.77818 0.7959 0.0
N178 N 0.77622 0.76924 0.78396 0.0
O179 O 0.86027 0.7856 0.73066 0.0
H180 H 0.81859 0.79643 0.72049 0.0
H181 H 0.80745 0.7756 0.82136 0.0
O182 O 0.8693 0.84224 0.74743 0.0
C183 C 0.85264 0.75968 0.74032 0.0
O184 O 0.85173 0.75492 0.77225 0.0
N185 N 0.87092 0.82526 0.81211 0.0
C186 C 0.87925 0.84463 0.87741 0.0
C187 C 0.88964 0.86472 0.85122 0.0
C188 C 0.88581 0.85459 0.8187 0.0
C189 C 0.86283 0.80568 0.83728 0.0
C190 C 0.86606 0.81474 0.87001 0.0
H191 H 0.89539 0.87043 0.7991 0.0
H192 H 0.85363 0.78269 0.83182 0.0
H193 H 0.92458 0.86694 0.75146 0.0
H194 H 0.96457 0.81681 0.76984 0.0
H195 H 0.7625 0.77127 0.73429 0.0
H196 H 0.90111 0.88805 0.8558 0.0
H197 H 0.85791 0.79833 0.88926 0.0
C198 C 0.779 0.53329 0.54237 0.0
C199 C 0.79106 0.51602 0.54885 0.0
N200 N 0.77191 0.49313 0.56711 0.0
N201 N 0.75252 0.52153 0.55681 0.0
C202 C 0.74868 0.49685 0.57158 0.0
H203 H 0.78909 0.55344 0.52841 0.0
Co204 Co 0.72993 0.53952 0.55715 0.0
C205 C 0.66964 0.49359 0.5726 0.0
O206 O 0.66111 0.50679 0.55165 0.0
N207 N 0.7078 0.55883 0.55863 0.0
C208 C 0.68192 0.57686 0.58182 0.0
C209 C 0.69585 0.56128 0.58711 0.0
C210 C 0.70113 0.57377 0.5364 0.0
N211 N 0.68522 0.58479 0.54988 0.0
O212 O 0.74693 0.55772 0.59853 0.0
H213 H 0.69674 0.55178 0.61041 0.0
H214 H 0.70796 0.57697 0.51095 0.0
O215 O 0.69704 0.50437 0.57824 0.0
C216 C 0.76813 0.58298 0.59091 0.0
O217 O 0.7746 0.58885 0.5595 0.0
N218 N 0.71664 0.5246 0.51466 0.0
C219 C 0.7049 0.50943 0.44827 0.0
C220 C 0.69281 0.48792 0.47287 0.0
C221 C 0.69971 0.49586 0.50597 0.0
C222 C 0.73015 0.54533 0.49089 0.0
C223 C 0.72424 0.53837 0.45759 0.0
H224 H 0.69199 0.47876 0.52425 0.0
H225 H 0.74568 0.56755 0.49793 0.0
H226 H 0.72981 0.48237 0.58619 0.0
H227 H 0.81222 0.51989 0.54078 0.0
H228 H 0.66972 0.58134 0.60005 0.0
H229 H 0.67878 0.46512 0.4665 0.0
H230 H 0.7345 0.55557 0.43934 0.0
C231 C 0.47191 0.25126 0.54296 0.0
C232 C 0.48817 0.28076 0.54931 0.0
N233 N 0.51317 0.28612 0.56405 0.0
N234 N 0.48644 0.23802 0.55395 0.0
C235 C 0.51168 0.25993 0.56652 0.0
H236 H 0.45071 0.24013 0.53124 0.0
Co237 Co 0.47174 0.19771 0.55299 0.0
C238 C 0.5224 0.1898 0.56104 0.0
O239 O 0.50947 0.16861 0.53936 0.0
N240 N 0.45597 0.15637 0.55362 0.0
C241 C 0.44351 0.11341 0.57685 0.0
C242 C 0.45758 0.14305 0.58139 0.0
C243 C 0.44012 0.13386 0.53261 0.0
N244 N 0.43241 0.10752 0.54616 0.0
O245 O 0.4541 0.19416 0.59547 0.0
H246 H 0.46857 0.15432 0.60377 0.0
H247 H 0.43359 0.13628 0.50818 0.0
O248 O 0.50928 0.20327 0.57121 0.0
C249 C 0.42805 0.18778 0.58803 0.0
O250 O 0.42155 0.18701 0.55661 0.0
N251 N 0.48575 0.2016 0.50951 0.0
C252 C 0.50058 0.20817 0.44267 0.0
C253 C 0.52221 0.2218 0.4669 0.0
C254 C 0.51425 0.21888 0.50015 0.0
C255 C 0.46439 0.19058 0.48619 0.0
C256 C 0.47126 0.19281 0.45274 0.0
H257 H 0.53101 0.23109 0.51818 0.0
H258 H 0.44175 0.18032 0.49361 0.0
H259 H 0.52847 0.25685 0.57783 0.0
H260 H 0.48227 0.29709 0.54324 0.0
H261 H 0.44197 0.0975 0.59474 0.0
H262 H 0.545 0.23516 0.46023 0.0
H263 H 0.45366 0.18242 0.43503 0.0
C264 C 0.76792 0.23094 0.5497 0.0
C265 C 0.73809 0.21754 0.55149 0.0
N266 N 0.73073 0.237 0.56285 0.0
N267 N 0.7797 0.25873 0.56023 0.0
C268 C 0.7565 0.26185 0.56812 0.0
H269 H 0.7802 0.22104 0.54072 0.0
Co270 Co 0.81994 0.28442 0.56101 0.0
C271 C 0.82896 0.34264 0.5773 0.0
O272 O 0.85041 0.35276 0.55575 0.0
N273 N 0.86112 0.30953 0.56276 0.0
C274 C 0.90454 0.33826 0.58598 0.0
C275 C 0.87498 0.32258 0.59116 0.0
C276 C 0.88315 0.31717 0.5408 0.0
N277 N 0.90968 0.33485 0.55428 0.0
O278 O 0.82266 0.26793 0.60211 0.0
H279 H 0.86416 0.32083 0.61441 0.0
H280 H 0.88019 0.31016 0.51543 0.0
O281 O 0.8142 0.315 0.58295 0.0
C282 C 0.829 0.24822 0.59488 0.0
O283 O 0.83128 0.24301 0.56365 0.0
N284 N 0.81699 0.29757 0.51882 0.0
C285 C 0.81206 0.3101 0.45299 0.0
C286 C 0.80002 0.31885 0.47836 0.0
C287 C 0.80213 0.31179 0.51107 0.0
C288 C 0.82651 0.28677 0.49431 0.0
C289 C 0.82502 0.2934 0.46134 0.0
H290 H 0.79114 0.31719 0.52984 0.0
H291 H 0.83535 0.27282 0.50045 0.0
H292 H 0.75842 0.28214 0.57654 0.0
H293 H 0.72309 0.19511 0.54467 0.0
H294 H 0.92101 0.35073 0.60432 0.0
H295 H 0.7885 0.3305 0.47296 0.0
H296 H 0.83419 0.28567 0.44268 0.0
C297 C 0.87536 0.44773 0.12159 0.0
C298 C 0.85916 0.46118 0.11633 0.0
N299 N 0.83557 0.44327 0.09799 0.0
N300 N 0.86223 0.42147 0.10664 0.0
C301 C 0.83816 0.41939 0.09241 0.0
H302 H 0.89535 0.45646 0.13567 0.0
Co303 Co 0.87617 0.39531 0.10712 0.0
C304 C 0.8258 0.33723 0.09172 0.0
O305 O 0.83627 0.32684 0.11399 0.0
N306 N 0.89136 0.36944 0.10653 0.0
C307 C 0.90364 0.33825 0.0848 0.0
C308 C 0.89107 0.35504 0.07875 0.0
C309 C 0.90542 0.36176 0.12886 0.0
N310 N 0.91269 0.34257 0.11628 0.0
O311 O 0.89614 0.41118 0.06615 0.0
H312 H 0.88189 0.35642 0.05543 0.0
H313 H 0.91026 0.36964 0.1539 0.0
O314 O 0.83966 0.36475 0.08527 0.0
C315 C 0.92199 0.43055 0.07464 0.0
O316 O 0.92752 0.4358 0.1063 0.0
N317 N 0.85961 0.38299 0.14923 0.0
C318 C 0.84189 0.37118 0.21502 0.0
C319 C 0.8212 0.36289 0.18962 0.0
C320 C 0.83055 0.36968 0.15689 0.0
C321 C 0.87987 0.39349 0.17378 0.0
C322 C 0.8716 0.3872 0.20672 0.0
H323 H 0.81438 0.36475 0.13798 0.0
H324 H 0.90274 0.40695 0.16768 0.0
H325 H 0.82255 0.40045 0.07876 0.0
H326 H 0.86453 0.4825 0.12554 0.0
H327 H 0.90628 0.32422 0.06734 0.0
H328 H 0.79804 0.35179 0.19502 0.0
H329 H 0.88844 0.3946 0.22541 0.0
C330 C 0.56327 0.42877 0.11347 0.0
C331 C 0.54765 0.39962 0.10506 0.0
N332 N 0.56405 0.39402 0.08433 0.0
N333 N 0.58994 0.44148 0.09902 0.0
C334 C 0.58882 0.41974 0.08005 0.0
H335 H 0.55495 0.43999 0.12827 0.0
Co336 Co 0.61909 0.48201 0.09914 0.0
C337 C 0.65506 0.45417 0.0901 0.0
O338 O 0.64054 0.43678 0.1148 0.0
N339 N 0.64669 0.52167 0.09739 0.0
C340 C 0.68184 0.56426 0.07842 0.0
C341 C 0.66612 0.53471 0.07275 0.0
C342 C 0.65079 0.54372 0.11767 0.0
N343 N 0.67219 0.56998 0.10666 0.0
O344 O 0.60485 0.48582 0.05711 0.0
H345 H 0.66845 0.52348 0.05167 0.0
H346 H 0.63798 0.54057 0.13972 0.0
O347 O 0.64831 0.473 0.07975 0.0
C348 C 0.58392 0.49061 0.06328 0.0
O349 O 0.57637 0.49062 0.09417 0.0
N350 N 0.632 0.48018 0.14244 0.0
C351 C 0.65002 0.48214 0.20772 0.0
C352 C 0.67045 0.49267 0.18198 0.0
C353 C 0.66106 0.4919 0.14962 0.0
C354 C 0.61219 0.4714 0.16753 0.0
C355 C 0.62057 0.4715 0.20019 0.0
H356 H 0.67733 0.50134 0.13037 0.0
H357 H 0.58998 0.46563 0.16278 0.0
H358 H 0.60539 0.42254 0.06249 0.0
H359 H 0.52609 0.38371 0.11379 0.0
H360 H 0.69925 0.58025 0.06303 0.0
H361 H 0.69353 0.50172 0.18682 0.0
H362 H 0.60429 0.46451 0.21954 0.0
C363 C 0.58222 0.14566 0.1099 0.0
C364 C 0.61165 0.16277 0.1041 0.0
N365 N 0.61642 0.18774 0.08973 0.0
N366 N 0.56832 0.15952 0.09889 0.0
C367 C 0.58985 0.1854 0.08698 0.0
H368 H 0.57159 0.12427 0.12122 0.0
Co369 Co 0.52769 0.14227 0.09971 0.0
C370 C 0.51371 0.18784 0.08229 0.0
O371 O 0.49345 0.17614 0.10519 0.0
N372 N 0.48604 0.12355 0.09946 0.0
C373 C 0.44178 0.10641 0.07738 0.0
C374 C 0.47118 0.12041 0.07114 0.0
C375 C 0.46472 0.11034 0.12253 0.0
N376 N 0.43773 0.10012 0.10973 0.0
O377 O 0.52505 0.12162 0.0596 0.0
H378 H 0.4812 0.12837 0.04728 0.0
H379 H 0.46847 0.1085 0.14831 0.0
O380 O 0.52989 0.17658 0.07626 0.0
C381 C 0.51913 0.0961 0.06896 0.0
O382 O 0.51834 0.09114 0.10083 0.0
N383 N 0.53072 0.1596 0.14104 0.0
C384 C 0.53199 0.17812 0.20553 0.0
C385 C 0.54435 0.19861 0.17997 0.0
C386 C 0.54399 0.18888 0.14776 0.0
C387 C 0.52209 0.13999 0.16623 0.0
C388 C 0.52163 0.14859 0.19857 0.0
H389 H 0.55429 0.2049 0.12843 0.0
H390 H 0.51474 0.11727 0.16098 0.0
H391 H 0.58621 0.2019 0.07586 0.0
H392 H 0.62837 0.15742 0.11017 0.0
H393 H 0.42468 0.1011 0.05945 0.0
H394 H 0.55359 0.22176 0.1847 0.0
H395 H 0.51316 0.13229 0.21796 0.0
C396 C 0.45108 0.87062 0.8845 0.0
C397 C 0.46379 0.85397 0.8911 0.0
N398 N 0.44313 0.82812 0.90333 0.0
N399 N 0.42259 0.85552 0.89291 0.0
C400 C 0.41833 0.82949 0.90404 0.0
H401 H 0.46203 0.89252 0.8745 0.0
Co402 Co 0.39761 0.87086 0.89094 0.0
C403 C 0.33868 0.82277 0.90661 0.0
O404 O 0.32957 0.8337 0.88344 0.0
N405 N 0.3729 0.88748 0.89021 0.0
C406 C 0.34361 0.90226 0.91168 0.0
C407 C 0.35991 0.88931 0.9182 0.0
C408 C 0.36454 0.90035 0.86702 0.0
N409 N 0.34647 0.90916 0.87948 0.0
O410 O 0.41391 0.89169 0.93146 0.0
H411 H 0.36187 0.88129 0.94206 0.0
H412 H 0.37105 0.90306 0.84146 0.0
O413 O 0.36606 0.83546 0.9135 0.0
C414 C 0.4328 0.91755 0.92227 0.0
O415 O 0.43726 0.92263 0.89044 0.0
N416 N 0.38512 0.85356 0.84924 0.0
C417 C 0.37382 0.83488 0.78374 0.0
C418 C 0.3645 0.81452 0.80963 0.0
C419 C 0.37097 0.82432 0.84225 0.0
C420 C 0.39639 0.87343 0.82432 0.0
C421 C 0.39039 0.8647 0.79149 0.0
H422 H 0.36506 0.80831 0.86161 0.0
H423 H 0.4101 0.89638 0.83005 0.0
H424 H 0.39773 0.81207 0.91316 0.0
H425 H 0.48642 0.86023 0.887 0.0
H426 H 0.3309 0.9066 0.92937 0.0
H427 H 0.35281 0.79124 0.80474 0.0
H428 H 0.39843 0.88131 0.77246 0.0
C429 C 0.1449 0.58011 0.87947 0.0
C430 C 0.16105 0.60967 0.8855 0.0
N431 N 0.18563 0.61513 0.90133 0.0
N432 N 0.15908 0.56694 0.89176 0.0
C433 C 0.18401 0.58895 0.90475 0.0
H434 H 0.12396 0.56888 0.8672 0.0
Co435 Co 0.14392 0.5266 0.89184 0.0
C436 C 0.19233 0.51698 0.91238 0.0
O437 O 0.18175 0.49433 0.89248 0.0
N438 N 0.12746 0.48539 0.89291 0.0
C439 C 0.11068 0.44128 0.91521 0.0
C440 C 0.12508 0.47076 0.92117 0.0
C441 C 0.11353 0.46395 0.8702 0.0
N442 N 0.10329 0.43691 0.88308 0.0
O443 O 0.12335 0.52349 0.93213 0.0
H444 H 0.1335 0.481 0.94484 0.0
H445 H 0.11002 0.46777 0.84496 0.0
O446 O 0.17933 0.5319 0.91513 0.0
C447 C 0.09751 0.51669 0.92324 0.0
O448 O 0.09205 0.51547 0.89147 0.0
N449 N 0.16104 0.52979 0.85032 0.0
C450 C 0.17881 0.53454 0.78457 0.0
C451 C 0.19943 0.54486 0.81022 0.0
C452 C 0.19012 0.54284 0.84295 0.0
C453 C 0.14108 0.52177 0.82559 0.0
C454 C 0.1493 0.5232 0.7927 0.0
H455 H 0.20643 0.55257 0.86196 0.0
H456 H 0.11843 0.51397 0.83155 0.0
H457 H 0.20034 0.58597 0.91731 0.0
H458 H 0.15532 0.62597 0.87859 0.0
H459 H 0.10627 0.42448 0.93324 0.0
H460 H 0.22257 0.55503 0.80504 0.0
H461 H 0.13251 0.51517 0.77392 0.0
C462 C 0.43417 0.57268 0.86288 0.0
C463 C 0.40445 0.55964 0.86664 0.0
N464 N 0.39879 0.57232 0.89231 0.0
N465 N 0.44738 0.59361 0.88595 0.0
C466 C 0.4253 0.59292 0.9036 0.0
H467 H 0.44551 0.56743 0.8443 0.0
Co468 Co 0.48776 0.617 0.88972 0.0
C469 C 0.49872 0.67541 0.90842 0.0
O470 O 0.52158 0.68587 0.88883 0.0
N471 N 0.529 0.64004 0.89454 0.0
C472 C 0.57145 0.66633 0.92075 0.0
C473 C 0.54164 0.65122 0.92403 0.0
C474 C 0.55199 0.64829 0.87384 0.0
N475 N 0.57802 0.66455 0.88909 0.0
O476 O 0.48717 0.59815 0.93031 0.0
H477 H 0.52982 0.64902 0.94663 0.0
H478 H 0.55009 0.64236 0.8482 0.0
O479 O 0.48283 0.64765 0.91224 0.0
C480 C 0.48743 0.57461 0.92397 0.0
O481 O 0.48375 0.56546 0.89327 0.0
N482 N 0.48813 0.63285 0.84798 0.0
C483 C 0.48769 0.64977 0.783 0.0
C484 C 0.47399 0.65697 0.80789 0.0
C485 C 0.47401 0.64784 0.84026 0.0
C486 C 0.49881 0.62323 0.82342 0.0
C487 C 0.49974 0.63223 0.79092 0.0
H488 H 0.462 0.65221 0.85875 0.0
H489 H 0.50642 0.60817 0.82912 0.0
H490 H 0.42858 0.60701 0.92447 0.0
H491 H 0.38827 0.5425 0.85116 0.0
H492 H 0.58696 0.67828 0.94013 0.0
H493 H 0.46346 0.66956 0.80241 0.0
H494 H 0.50923 0.62503 0.77202 0.0
C495 C 0.53948 0.77982 0.44538 0.0
C496 C 0.52296 0.79275 0.43916 0.0
N497 N 0.49809 0.77292 0.42434 0.0
N498 N 0.52526 0.75207 0.43418 0.0
C499 C 0.49989 0.74841 0.42172 0.0
H500 H 0.56069 0.79012 0.45707 0.0
Co501 Co 0.54085 0.72729 0.43467 0.0
C502 C 0.49214 0.66807 0.42151 0.0
O503 O 0.50397 0.65922 0.4439 0.0
N504 N 0.55765 0.70276 0.43387 0.0
C505 C 0.57199 0.67352 0.41119 0.0
C506 C 0.558 0.68904 0.4058 0.0
C507 C 0.57242 0.69565 0.45587 0.0
N508 N 0.58106 0.67767 0.44269 0.0
O509 O 0.55954 0.74296 0.39305 0.0
H510 H 0.54844 0.69013 0.38265 0.0
H511 H 0.57679 0.70313 0.48107 0.0
O512 O 0.5046 0.69537 0.41419 0.0
C513 C 0.58538 0.7628 0.40099 0.0
O514 O 0.59145 0.76828 0.43253 0.0
N515 N 0.52577 0.71548 0.47737 0.0
C516 C 0.51092 0.70629 0.54415 0.0
C517 C 0.48912 0.69598 0.51981 0.0
C518 C 0.497 0.70142 0.48649 0.0
C519 C 0.54698 0.72758 0.50076 0.0
C520 C 0.54019 0.72261 0.53416 0.0
H521 H 0.47996 0.69494 0.4683 0.0
H522 H 0.56949 0.74131 0.49337 0.0
H523 H 0.48333 0.72853 0.41021 0.0
H524 H 0.52864 0.81494 0.44527 0.0
H525 H 0.57565 0.66058 0.39314 0.0
H526 H 0.4662 0.68443 0.52643 0.0
H527 H 0.55786 0.73137 0.55189 0.0
C528 C 0.23559 0.76327 0.45351 0.0
C529 C 0.22227 0.73368 0.44782 0.0
N530 N 0.24098 0.7283 0.4309 0.0
N531 N 0.26247 0.77658 0.43992 0.0
C532 C 0.26523 0.75459 0.42649 0.0
H533 H 0.22615 0.77444 0.46651 0.0
Co534 Co 0.28715 0.81705 0.43945 0.0
C535 C 0.34549 0.8277 0.42146 0.0
O536 O 0.35545 0.84881 0.44344 0.0
N537 N 0.31147 0.85852 0.43775 0.0
C538 C 0.33888 0.90181 0.41351 0.0
C539 C 0.32336 0.87218 0.40886 0.0
C540 C 0.3197 0.88081 0.45957 0.0
N541 N 0.33662 0.90728 0.44542 0.0
O542 O 0.26914 0.81951 0.39942 0.0
H543 H 0.32097 0.86116 0.38559 0.0
H544 H 0.31372 0.87807 0.48529 0.0
O545 O 0.31788 0.81259 0.41605 0.0
C546 C 0.24985 0.82578 0.40887 0.0
O547 O 0.24595 0.82689 0.44076 0.0
N548 N 0.30152 0.81422 0.48079 0.0
C549 C 0.31452 0.80795 0.54599 0.0
C550 C 0.32281 0.79615 0.51991 0.0
C551 C 0.3155 0.79893 0.48751 0.0
C552 C 0.29146 0.82383 0.50597 0.0
C553 C 0.29835 0.82168 0.53862 0.0
H554 H 0.32035 0.788 0.46812 0.0
H555 H 0.27761 0.83295 0.50066 0.0
H556 H 0.28423 0.75769 0.41307 0.0
H557 H 0.2006 0.7173 0.45573 0.0
H558 H 0.35046 0.91811 0.39467 0.0
H559 H 0.33412 0.78416 0.52455 0.0
H560 H 0.29104 0.83078 0.55784 0.0
C561 C 0.25065 0.47498 0.44982 0.0
C562 C 0.28005 0.49158 0.44336 0.0
N563 N 0.28452 0.5148 0.42523 0.0
N564 N 0.23659 0.48747 0.4355 0.0
C565 C 0.2579 0.51193 0.42086 0.0
H566 H 0.24016 0.455 0.46407 0.0
Co567 Co 0.19613 0.47114 0.43627 0.0
C568 C 0.1846 0.51925 0.4232 0.0
O569 O 0.16374 0.50692 0.44534 0.0
N570 N 0.15475 0.45352 0.43586 0.0
C571 C 0.11087 0.43786 0.41353 0.0
C572 C 0.14035 0.45257 0.4079 0.0
C573 C 0.1331 0.43855 0.4581 0.0
N574 N 0.10622 0.42897 0.44515 0.0
O575 O 0.19316 0.4526 0.39448 0.0
H576 H 0.15074 0.46239 0.3847 0.0
H577 H 0.13658 0.43413 0.48311 0.0
O578 O 0.19975 0.50715 0.41579 0.0
C579 C 0.19019 0.42755 0.40076 0.0
O580 O 0.19186 0.4209 0.43161 0.0
N581 N 0.19949 0.48656 0.47896 0.0
C582 C 0.20563 0.50364 0.54511 0.0
C583 C 0.21731 0.52459 0.51983 0.0
C584 C 0.21457 0.5156 0.48695 0.0
C585 C 0.19045 0.46608 0.50327 0.0
C586 C 0.19246 0.47399 0.53639 0.0
H587 H 0.22527 0.53208 0.46816 0.0
H588 H 0.18172 0.44333 0.49687 0.0
H589 H 0.2541 0.52707 0.40676 0.0
H590 H 0.29694 0.48722 0.45171 0.0
H591 H 0.09423 0.43452 0.39574 0.0
H592 H 0.22905 0.54775 0.52539 0.0
H593 H 0.18355 0.45691 0.55487 0.0
H594 H 0.959 0.36841 0.15741 0.0
H595 H 0.89836 0.28617 0.11209 0.0
H596 H 0.98435 0.34527 0.18359 0.0
H597 H 0.9231 0.2629 0.13881 0.0
H598 H 0.95635 0.23182 0.23028 0.0
H599 H 0.9321 0.25621 0.20502 0.0
H600 H 0.01245 0.31654 0.15588 0.0
H601 H 0.03657 0.29158 0.18063 0.0
C602 C 0.95101 0.34537 0.15338 0.0
C603 C 0.92684 0.32899 0.13281 0.0
C604 C 0.96554 0.33224 0.16808 0.0
C605 C 0.9556 0.3024 0.16305 0.0
C606 C 0.9311 0.28594 0.14301 0.0
C607 C 0.91706 0.2992 0.12772 0.0
C608 C 0.96878 0.25034 0.21416 0.0
C609 C 0.99825 0.2599 0.20731 0.0
C610 C 0.95495 0.26417 0.19969 0.0
C611 C 0.97053 0.28823 0.17872 0.0
C612 C 1.00011 0.2981 0.17217 0.0
C613 C 0.01379 0.28379 0.18606 0.0
H614 H 0.69677 0.62241 0.07569 0.0
H615 H 0.67261 0.58197 0.17181 0.0
H616 H 0.71934 0.67056 0.10118 0.0
H617 H 0.69434 0.63025 0.19737 0.0
H618 H 0.7696 0.71892 0.2313 0.0
H619 H 0.74368 0.67091 0.20584 0.0
H620 H 0.70944 0.70445 0.13175 0.0
H621 H 0.73549 0.75277 0.15745 0.0
C622 C 0.69615 0.62379 0.10228 0.0
C623 C 0.68317 0.59831 0.12174 0.0
C624 C 0.7088 0.65142 0.11687 0.0
C625 C 0.70882 0.6543 0.15132 0.0
C626 C 0.69505 0.6288 0.17077 0.0
C627 C 0.68232 0.60112 0.15613 0.0
C628 C 0.75632 0.71607 0.20979 0.0
C629 C 0.7545 0.73973 0.19657 0.0
C630 C 0.74138 0.68847 0.19522 0.0
C631 C 0.72424 0.68372 0.16695 0.0
C632 C 0.72263 0.70742 0.1534 0.0
C633 C 0.73762 0.73514 0.16805 0.0
H634 H 0.4227 0.06373 0.16228 0.0
H635 H 0.3904 0.1049 0.09595 0.0
H636 H 0.37526 0.03868 0.18989 0.0
H637 H 0.34337 0.08072 0.12386 0.0
H638 H 0.25392 0.01216 0.15828 0.0
H639 H 0.30101 0.03456 0.13087 0.0
H640 H 0.34371 0.04609 0.22505 0.0
H641 H 0.29654 0.02197 0.25225 0.0
C642 C 0.40553 0.06765 0.15388 0.0
C643 C 0.41017 0.0861 0.12686 0.0
C644 C 0.37835 0.05336 0.16969 0.0
C645 C 0.35532 0.0575 0.15902 0.0
C646 C 0.36027 0.0764 0.13229 0.0
C647 C 0.38728 0.09038 0.11633 0.0
C648 C 0.27321 0.01898 0.17319 0.0
C649 C 0.27116 0.01517 0.20763 0.0
C650 C 0.30038 0.03228 0.15745 0.0
C651 C 0.3263 0.04239 0.17571 0.0
C652 C 0.32426 0.03834 0.21008 0.0
C653 C 0.29708 0.02482 0.2258 0.0
H654 H 0.28405 0.99342 0.74369 0.0
H655 H 0.25182 0.99898 0.8399 0.0
H656 H 0.30699 0.96773 0.76771 0.0
H657 H 0.27615 0.97484 0.86412 0.0
H658 H 0.29327 0.90206 0.89202 0.0
H659 H 0.27072 0.92732 0.86602 0.0
H660 H 0.34615 0.97347 0.80274 0.0
H661 H 0.36843 0.94748 0.82858 0.0
C662 C 0.28188 0.98929 0.76996 0.0
C663 C 0.26583 0.99818 0.78975 0.0
C664 C 0.2954 0.97485 0.78381 0.0
C665 C 0.29332 0.96904 0.81783 0.0
C666 C 0.2778 0.97848 0.83772 0.0
C667 C 0.26415 0.99275 0.82386 0.0
C668 C 0.30505 0.91766 0.87261 0.0
C669 C 0.3327 0.923 0.8625 0.0
C670 C 0.29219 0.93224 0.85777 0.0
C671 C 0.30676 0.95277 0.83257 0.0
C672 C 0.3342 0.95764 0.8219 0.0
C673 C 0.34699 0.9428 0.83665 0.0
H674 H 0.10205 0.42653 0.81712 0.0
H675 H 0.06851 0.3836 0.91086 0.0
H676 H 0.07626 0.37949 0.78936 0.0
H677 H 0.04438 0.33658 0.88339 0.0
H678 H 0.98229 0.25803 0.82186 0.0
H679 H 1.00507 0.30596 0.84832 0.0
H680 H 0.07883 0.33629 0.78219 0.0
H681 H 0.05559 0.28869 0.75539 0.0
C682 C 0.08918 0.40717 0.83188 0.0
C683 C 0.08757 0.40907 0.86636 0.0
C684 C 0.07466 0.38007 0.81595 0.0
C685 C 0.05832 0.35412 0.83411 0.0
C686 C 0.05645 0.35606 0.86851 0.0
C687 C 0.07074 0.38314 0.88438 0.0
C688 C 1.0034 0.27497 0.81313 0.0
C689 C 0.01713 0.26965 0.78653 0.0
C690 C 0.01651 0.30243 0.82828 0.0
C691 C 0.04383 0.3251 0.8174 0.0
C692 C 0.05754 0.31963 0.79082 0.0
C693 C 0.04428 0.29229 0.77549 0.0
H694 H 0.6298 0.68256 0.92031 0.0
H695 H 0.59202 0.6782 0.82446 0.0
H696 H 0.67844 0.7088 0.89628 0.0
H697 H 0.64048 0.70285 0.80022 0.0
H698 H 0.72992 0.77623 0.77254 0.0
H699 H 0.68223 0.75047 0.79884 0.0
H700 H 0.71228 0.7042 0.86075 0.0
H701 H 0.76044 0.73074 0.83464 0.0
C702 C 0.63177 0.68705 0.89411 0.0
C703 C 0.60681 0.67836 0.87445 0.0
C704 C 0.65973 0.70181 0.88025 0.0
C705 C 0.66347 0.70816 0.84633 0.0
C706 C 0.63849 0.69884 0.82655 0.0
C707 C 0.61057 0.68425 0.84042 0.0
C708 C 0.72631 0.76053 0.79175 0.0
C709 C 0.74879 0.75529 0.80135 0.0
C710 C 0.69893 0.74564 0.80675 0.0
C711 C 0.6932 0.72488 0.83159 0.0
C712 C 0.71597 0.72017 0.84185 0.0
C713 C 0.74355 0.73534 0.82695 0.0
H714 H 0.66943 0.62134 0.57836 0.0
H715 H 0.67321 0.58441 0.48458 0.0
H716 H 0.64468 0.64429 0.55241 0.0
H717 H 0.64996 0.60889 0.45818 0.0
H718 H 0.57569 0.62501 0.43038 0.0
H719 H 0.60281 0.60416 0.45575 0.0
H720 H 0.6498 0.68174 0.51576 0.0
H721 H 0.62198 0.70224 0.49067 0.0
C722 C 0.66515 0.6182 0.55215 0.0
C723 C 0.67303 0.60063 0.53371 0.0
C724 C 0.65128 0.63177 0.53715 0.0
C725 C 0.64512 0.62834 0.5032 0.0
C726 C 0.65389 0.61159 0.4845 0.0
C727 C 0.66761 0.59784 0.49958 0.0
C728 C 0.59193 0.63766 0.44886 0.0
C729 C 0.59677 0.66529 0.45849 0.0
C730 C 0.60761 0.62578 0.46332 0.0
C731 C 0.62872 0.64133 0.48764 0.0
C732 C 0.63348 0.66898 0.49739 0.0
C733 C 0.61756 0.68076 0.48307 0.0
H734 H 0.31529 0.92397 0.49675 0.0
H735 H 0.38735 0.95525 0.42835 0.0
H736 H 0.33649 0.97292 0.52058 0.0
H737 H 0.40878 1.00388 0.45227 0.0
H738 H 0.42734 0.09414 0.48083 0.0
H739 H 0.40224 0.04548 0.45627 0.0
H740 H 0.37674 0.00715 0.55337 0.0
H741 H 0.40043 0.05565 0.57765 0.0
C742 C 0.33579 0.94122 0.48705 0.0
C743 C 0.34956 0.93577 0.46058 0.0
C744 C 0.34796 0.96929 0.50064 0.0
C745 C 0.37427 0.99248 0.48819 0.0
C746 C 0.38816 0.98681 0.46199 0.0
C747 C 0.37593 0.95886 0.44833 0.0
C748 C 0.41597 0.07538 0.49688 0.0
C749 C 0.41618 0.07891 0.53127 0.0
C750 C 0.40186 0.04741 0.48284 0.0
C751 C 0.38767 0.0223 0.50285 0.0
C752 C 0.38723 0.02592 0.53715 0.0
C753 C 0.40121 0.05382 0.55114 0.0
H754 H 0.09518 0.42771 0.51087 0.0
H755 H 0.05342 0.39436 0.41668 0.0
H756 H 0.04764 0.40307 0.53783 0.0
H757 H 1.00596 0.37121 0.44328 0.0
H758 H 0.92578 0.31154 0.50455 0.0
H759 H 0.97393 0.33254 0.47895 0.0
H760 H 1.00535 0.40805 0.54259 0.0
H761 H 0.95747 0.38672 0.56843 0.0
C762 C 0.07595 0.41504 0.49589 0.0
C763 C 0.07825 0.41325 0.46151 0.0
C764 C 0.0486 0.4012 0.51131 0.0
C765 C 0.02287 0.38532 0.49272 0.0
C766 C 0.02525 0.383 0.45846 0.0
C767 C 0.05255 0.39668 0.4431 0.0
C768 C 0.94296 0.33268 0.51288 0.0
C769 C 0.93785 0.34744 0.53853 0.0
C770 C 0.97057 0.34475 0.49824 0.0
C771 C 0.99363 0.37198 0.50877 0.0
C772 C 0.98836 0.38677 0.53432 0.0
C773 C 0.96086 0.3746 0.54907 0.0
H774 H 0.14764 0.41078 0.35363 0.0
H775 H 0.21069 0.3903 0.39412 0.0
H776 H 0.12573 0.36499 0.32172 0.0
H777 H 0.18935 0.34512 0.362 0.0
H778 H 0.1597 0.28423 0.26909 0.0
H779 H 0.18238 0.32951 0.30108 0.0
H780 H 0.09775 0.30892 0.33847 0.0
H781 H 0.07503 0.26308 0.30673 0.0
C782 C 0.15734 0.39695 0.35486 0.0
C783 C 0.18111 0.4042 0.37587 0.0
C784 C 0.14454 0.37057 0.33711 0.0
C785 C 0.15568 0.35137 0.33967 0.0
C786 C 0.18032 0.35946 0.3595 0.0
C787 C 0.19265 0.38539 0.37768 0.0
C788 C 0.14605 0.289 0.28486 0.0
C789 C 0.1157 0.26997 0.28588 0.0
C790 C 0.15899 0.315 0.30295 0.0
C791 C 0.14179 0.32292 0.32191 0.0
C792 C 0.11147 0.30349 0.32372 0.0
C793 C 0.09854 0.27707 0.30608 0.0
H794 H 0.63846 0.81024 0.4121 0.0
H795 H 0.58777 0.74785 0.33623 0.0
H796 H 0.68109 0.83128 0.37653 0.0
H797 H 0.63094 0.7691 0.30031 0.0
H798 H 0.70675 0.83396 0.23524 0.0
H799 H 0.66379 0.81432 0.27017 0.0
H800 H 0.71577 0.81757 0.35392 0.0
H801 H 0.7593 0.83757 0.31868 0.0
C802 C 0.63634 0.80108 0.38766 0.0
C803 C 0.60967 0.77727 0.37701 0.0
C804 C 0.66094 0.81306 0.36739 0.0
C805 C 0.65959 0.80167 0.33579 0.0
C806 C 0.63266 0.77845 0.32456 0.0
C807 C 0.6079 0.76632 0.34502 0.0
C808 C 0.70921 0.83065 0.26115 0.0
C809 C 0.73657 0.83737 0.27418 0.0
C810 C 0.68441 0.81913 0.2811 0.0
C811 C 0.68623 0.81413 0.31473 0.0
C812 C 0.71368 0.82136 0.32806 0.0
C813 C 0.73863 0.83284 0.30796 0.0
H814 H 0.17512 0.92575 0.32803 0.0
H815 H 0.16933 0.86948 0.24749 0.0
H816 H 0.19568 0.90268 0.36311 0.0
H817 H 0.18958 0.84663 0.28224 0.0
H818 H 0.25981 0.83891 0.34255 0.0
H819 H 0.2369 0.85975 0.30768 0.0
H820 H 0.18244 0.85552 0.38938 0.0
H821 H 0.20514 0.835 0.42396 0.0
C822 C 0.1778 0.90823 0.318 0.0
C823 C 0.17066 0.89955 0.28499 0.0
C824 C 0.18963 0.89505 0.33799 0.0
C825 C 0.19459 0.87302 0.32529 0.0
C826 C 0.18663 0.86389 0.29259 0.0
C827 C 0.17478 0.87691 0.27276 0.0
C828 C 0.24269 0.84209 0.35284 0.0
C829 C 0.23438 0.83534 0.38601 0.0
C830 C 0.22959 0.85407 0.33296 0.0
C831 C 0.20803 0.85958 0.34592 0.0
C832 C 0.19933 0.85211 0.37882 0.0
C833 C 0.21226 0.8401 0.39855 0.0
H834 H 0.42714 0.1731 0.65368 0.0
H835 H 0.3743 0.18042 0.57716 0.0
H836 H 0.38472 0.15242 0.69081 0.0
H837 H 0.33249 0.16005 0.61385 0.0
H838 H 0.25611 0.09001 0.67589 0.0
H839 H 0.29881 0.11245 0.63936 0.0
H840 H 0.35208 0.16609 0.71993 0.0
H841 H 0.30986 0.14388 0.75616 0.0
C842 C 0.4067 0.17069 0.64495 0.0
C843 C 0.40413 0.17831 0.61246 0.0
C844 C 0.38238 0.15879 0.66611 0.0
C845 C 0.35511 0.15425 0.65508 0.0
C846 C 0.35293 0.16265 0.6229 0.0
C847 C 0.37708 0.17457 0.60196 0.0
C848 C 0.27685 0.10685 0.6856 0.0
C849 C 0.27951 0.11511 0.7189 0.0
C850 C 0.30133 0.11967 0.66477 0.0
C851 C 0.32893 0.14088 0.67688 0.0
C852 C 0.33133 0.14947 0.70998 0.0
C853 C 0.30696 0.13685 0.73065 0.0
H854 H 0.87072 0.2727 0.64269 0.0
H855 H 0.80726 0.1902 0.60017 0.0
H856 H 0.89204 0.24783 0.67366 0.0
H857 H 0.82793 0.16529 0.63152 0.0
H858 H 0.85819 0.13326 0.7242 0.0
H859 H 0.83525 0.15611 0.69318 0.0
H860 H 0.91933 0.21937 0.65365 0.0
H861 H 0.94226 0.19597 0.68425 0.0
C862 C 0.86074 0.24915 0.64094 0.0
C863 C 0.83705 0.23318 0.61966 0.0
C864 C 0.87319 0.23502 0.65812 0.0
C865 C 0.86178 0.2047 0.65465 0.0
C866 C 0.83714 0.18864 0.63465 0.0
C867 C 0.82516 0.20282 0.61699 0.0
C868 C 0.87162 0.15154 0.70812 0.0
C869 C 0.90189 0.16262 0.7062 0.0
C870 C 0.85855 0.16473 0.69062 0.0
C871 C 0.87559 0.18973 0.67145 0.0
C872 C 0.90578 0.20031 0.66862 0.0
C873 C 0.9188 0.18665 0.68562 0.0
H874 H 0.84457 0.75757 0.67276 0.0
H875 H 0.83687 0.70399 0.75699 0.0
H876 H 0.82449 0.71399 0.63746 0.0
H877 H 0.81719 0.66106 0.72206 0.0
H878 H 0.75164 0.58598 0.65473 0.0
H879 H 0.77265 0.62923 0.69048 0.0
H880 H 0.83769 0.67824 0.6163 0.0
H881 H 0.81689 0.63545 0.58084 0.0
C882 C 0.83886 0.73666 0.68367 0.0
C883 C 0.84234 0.73434 0.71767 0.0
C884 C 0.82737 0.7117 0.66352 0.0
C885 C 0.81904 0.68399 0.67705 0.0
C886 C 0.82288 0.6819 0.71094 0.0
C887 C 0.83442 0.70669 0.73091 0.0
C888 C 0.7707 0.60585 0.64637 0.0
C889 C 0.78254 0.60724 0.61497 0.0
C890 C 0.78268 0.63067 0.66673 0.0
C891 C 0.80665 0.65732 0.65601 0.0
C892 C 0.8189 0.65831 0.62502 0.0
C893 C 0.80707 0.63361 0.60484 0.0
H894 H 0.97639 0.47543 0.08761 0.0
H895 H 0.92389 0.41822 0.00874 0.0
H896 H 0.01887 0.49699 0.05184 0.0
H897 H 0.96693 0.43992 0.97265 0.0
H898 H 0.04297 0.50624 0.90927 0.0
H899 H 1.00043 0.48604 0.94494 0.0
H900 H 0.05251 0.48382 0.02571 0.0
H901 H 0.09559 0.50442 0.98972 0.0
C902 C 0.97384 0.46746 0.06251 0.0
C903 C 0.94665 0.44501 0.05104 0.0
C904 C 0.99837 0.47974 0.04208 0.0
C905 C 0.99646 0.47003 0.00951 0.0
C906 C 0.9691 0.44803 -0.00237 0.0
C907 C 0.94442 0.43561 0.01823 0.0
C908 C 0.04553 0.50163 0.93469 0.0
C909 C 0.07278 0.50696 0.94665 0.0
C910 C 0.02097 0.48978 0.95507 0.0
C911 C 0.02291 0.48301 0.98807 0.0
C912 C 0.05031 0.48896 0.00039 0.0
C913 C 0.07502 0.5008 0.97985 0.0
H914 H 0.47049 0.51719 0.9285 0.0
H915 H 0.5291 0.60119 0.97186 0.0
H916 H 0.49397 0.49514 0.95998 0.0
H917 H 0.55311 0.57917 0.00291 0.0
H918 H 0.60915 0.53377 0.01695 0.0
H919 H 0.58422 0.55423 0.98452 0.0
H920 H 0.50108 0.48689 0.02199 0.0
H921 H 0.52599 0.46708 0.05479 0.0
C922 C 0.48804 0.5308 0.94529 0.0
C923 C 0.49775 0.56081 0.94805 0.0
C924 C 0.50158 0.51822 0.96309 0.0
C925 C 0.5256 0.53554 0.98347 0.0
C926 C 0.53485 0.56543 0.98701 0.0
C927 C 0.52084 0.57792 0.9697 0.0
C928 C 0.58551 0.52295 0.01738 0.0
C929 C 0.56936 0.49861 0.03781 0.0
C930 C 0.57131 0.53488 -0.00065 0.0
C931 C 0.54075 0.52227 0.00105 0.0
C932 C 0.52461 0.49702 0.02019 0.0
C933 C 0.53881 0.48556 0.03872 0.0
H934 H 0.51054 0.04235 0.08393 0.0
H935 H 0.50547 0.09262 0.00274 0.0
H936 H 0.49033 0.99906 0.04941 0.0
H937 H 0.48493 0.04878 0.9679 0.0
H938 H 0.47696 0.97192 0.90763 0.0
H939 H 0.49865 0.01517 0.94222 0.0
H940 H 0.44356 0.96438 0.02328 0.0
H941 H 0.42166 0.92054 0.98835 0.0
C942 C 0.50523 0.04424 0.05858 0.0
C943 C 0.50962 0.07103 0.04609 0.0
C944 C 0.49338 0.01925 0.03888 0.0
C945 C 0.4857 0.0203 0.00604 0.0
C946 C 0.49078 0.04727 0.99314 0.0
C947 C 0.50259 0.07241 0.013 0.0
C948 C 0.46945 0.96978 0.93289 0.0
C949 C 0.44747 0.94268 0.94522 0.0
C950 C 0.48181 0.99475 0.95263 0.0
C951 C 0.47267 0.99338 0.98537 0.0
C952 C 0.4512 0.96613 -0.00187 0.0
C953 C 0.43868 0.941 0.97822 0.0
H954 H 0.98915 0.13366 0.08582 0.0
H955 H 0.07465 0.20607 0.0618 0.0
H956 H 0.97786 0.12494 0.02702 0.0
H957 H 0.06275 0.19791 0.00332 0.0
H958 H 0.00937 0.19909 0.912 0.0
H959 H 0.02407 0.20362 0.9698 0.0
H960 H 0.99624 0.11162 0.97249 0.0
H961 H 0.98177 0.10715 0.91419 0.0
C962 C 1.00568 0.14746 0.06811 0.0
C963 C 0.03266 0.17087 0.07865 0.0
C964 C 0.99916 0.14246 0.03447 0.0
C965 C 0.01936 0.16094 0.01078 0.0
C966 C 0.04666 0.18362 0.02118 0.0
C967 C 0.05334 0.18839 0.0547 0.0
C968 C 1.00651 0.17989 0.92493 0.0
C969 C 0.99443 0.15278 0.90881 0.0
C970 C 0.01507 0.1825 0.95786 0.0
C971 C 0.01131 0.15797 0.97547 0.0
C972 C 0.99927 0.13081 0.95939 0.0
C973 C 0.99117 0.1283 0.92614 0.0
H974 H 0.87231 0.88924 0.90164 0.0
H975 H 0.89158 0.8223 0.93211 0.0
H976 H 0.87079 0.90164 0.95921 0.0
H977 H 0.8881 0.83328 0.98947 0.0
H978 H 0.89322 0.86526 0.09193 0.0
H979 H 0.90739 0.86569 0.03465 0.0
H980 H 0.8373 0.87973 0.00303 0.0
H981 H 0.82448 0.8813 0.06015 0.0
C982 C 0.87656 0.87738 0.92057 0.0
C983 C 0.88161 0.85445 0.91222 0.0
C984 C 0.87532 0.88425 0.95362 0.0
C985 C 0.87888 0.8682 0.97909 0.0
C986 C 0.88543 0.84629 0.97064 0.0
C987 C 0.88695 0.83963 0.93764 0.0
C988 C 0.88129 0.86916 0.07278 0.0
C989 C 0.85741 0.8728 0.08067 0.0
C990 C 0.8892 0.86905 0.03988 0.0
C991 C 0.87329 0.87237 0.01411 0.0
C992 C 0.85026 0.87734 0.02213 0.0
C993 C 0.84254 0.87772 0.05497 0.0
H994 H 0.14102 0.03816 0.92193 0.0
H995 H 0.20033 1.00441 0.92001 0.0
H996 H 0.13301 0.0275 0.98113 0.0
H997 H 0.19171 0.9928 0.97844 0.0
H998 H 0.20032 0.00748 0.08686 0.0
H999 H 0.20521 0.01957 0.02846 0.0
H1000 H 0.11282 0.98982 0.02327 0.0
H1001 H 0.10835 0.97876 0.08251 0.0
C1002 C 0.1519 0.028 0.93413 0.0
C1003 C 0.17153 0.02238 0.91669 0.0
C1004 C 0.14733 0.02187 0.96794 0.0
C1005 C 0.16215 0.00981 0.98469 0.0
C1006 C 0.18064 1.00294 0.96662 0.0
C1007 C 0.18544 0.00936 0.9331 0.0
C1008 C 0.18115 1.00379 0.07322 0.0
C1009 C 0.15394 0.99199 0.08892 0.0
C1010 C 0.18384 0.01046 0.03973 0.0
C1011 C 0.15927 1.00504 0.02096 0.0
C1012 C 0.13217 0.9943 0.03701 0.0
C1013 C 0.12957 0.98794 0.07083 0.0
H1014 H 0.69548 0.52845 0.23849 0.0
H1015 H 0.62557 0.44016 0.25545 0.0
H1016 H 0.70921 0.53277 0.29637 0.0
H1017 H 0.63973 0.44406 0.31337 0.0
H1018 H 0.65091 0.47611 0.42115 0.0
H1019 H 0.63841 0.46778 0.36272 0.0
H1020 H 0.73013 0.51715 0.33759 0.0
H1021 H 0.74238 0.52614 0.39599 0.0
C1022 C 0.6834 0.50976 0.25452 0.0
C1023 C 0.65946 0.48397 0.24249 0.0
C1024 C 0.69129 0.51218 0.28773 0.0
C1025 C 0.6756 0.48875 0.30965 0.0
C1026 C 0.65201 0.46271 0.29736 0.0
C1027 C 0.64394 0.46041 0.26418 0.0
C1028 C 0.66835 0.48484 0.40308 0.0
C1029 C 0.69757 0.50196 0.41303 0.0
C1030 C 0.66124 0.48002 0.36958 0.0
C1031 C 0.68325 0.49198 0.34533 0.0
C1032 C 0.71257 0.50816 0.35549 0.0
C1033 C 0.71963 0.51323 0.38895 0.0
H1034 H 0.47199 0.21428 0.38955 0.0
H1035 H 0.54684 0.20594 0.41528 0.0
H1036 H 0.48134 0.211 0.33126 0.0
H1037 H 0.55658 0.20357 0.35679 0.0
H1038 H 0.57439 0.2206 0.24435 0.0
H1039 H 0.56912 0.23275 0.3016 0.0
H1040 H 0.47749 0.16754 0.29908 0.0
H1041 H 0.48281 0.15538 0.24239 0.0
C1042 C 0.4905 0.21188 0.38283 0.0
C1043 C 0.50835 0.20984 0.40717 0.0
C1044 C 0.49594 0.21021 0.34944 0.0
C1045 C 0.51954 0.20684 0.33962 0.0
C1046 C 0.53836 0.20641 0.36374 0.0
C1047 C 0.53276 0.20778 0.39722 0.0
C1048 C 0.55315 0.20915 0.25609 0.0
C1049 C 0.52902 0.18699 0.23922 0.0
C1050 C 0.55017 0.21597 0.28873 0.0
C1051 C 0.52289 0.20112 0.30461 0.0
C1052 C 0.49869 0.17953 0.28731 0.0
C1053 C 0.50177 0.17242 0.25502 0.0
H1054 H 0.86607 0.4045 0.27031 0.0
H1055 H 0.79712 0.31961 0.23882 0.0
H1056 H 0.85517 0.38926 0.32754 0.0
H1057 H 0.78505 0.30487 0.29629 0.0
H1058 H 0.80271 0.27686 0.39748 0.0
H1059 H 0.80654 0.29212 0.34029 0.0
H1060 H 0.82157 0.37667 0.37206 0.0
H1061 H 0.81949 0.36198 0.42939 0.0
C1062 C 0.84838 0.38265 0.2756 0.0
C1063 C 0.83278 0.36312 0.24993 0.0
C1064 C 0.84182 0.37404 0.30851 0.0
C1065 C 0.81932 0.34575 0.3166 0.0
C1066 C 0.80283 0.32666 0.29094 0.0
C1067 C 0.80951 0.33524 0.25798 0.0
C1068 C 0.80699 0.29877 0.39231 0.0
C1069 C 0.81122 0.31832 0.41809 0.0
C1070 C 0.80872 0.30738 0.35944 0.0
C1071 C 0.81451 0.3357 0.3515 0.0
C1072 C 0.81753 0.35485 0.37728 0.0
C1073 C 0.81598 0.34629 0.41018 0.0
H1074 H 0.3222 0.79036 0.75974 0.0
H1075 H 0.40797 0.85786 0.72872 0.0
H1076 H 0.30792 0.77814 0.70224 0.0
H1077 H 0.39316 0.84696 0.67142 0.0
H1078 H 0.36574 0.81348 0.56916 0.0
H1079 H 0.38002 0.81406 0.62641 0.0
H1080 H 0.296 0.8001 0.65853 0.0
H1081 H 0.28113 0.79764 0.60147 0.0
C1082 C 0.33813 0.80238 0.74069 0.0
C1083 C 0.36611 0.82537 0.74888 0.0
C1084 C 0.32982 0.79562 0.70769 0.0
C1085 C 0.34923 0.81181 0.68211 0.0
C1086 C 0.37765 0.83386 0.69036 0.0
C1087 C 0.38603 0.84045 0.72332 0.0
C1088 C 0.35008 0.80986 0.58843 0.0
C1089 C 0.32242 0.80591 0.58068 0.0
C1090 C 0.3584 0.81054 0.6213 0.0
C1091 C 0.3393 0.80745 0.64718 0.0
C1092 C 0.31122 0.8023 0.63933 0.0
C1093 C 0.30285 0.80139 0.60653 0.0
H1094 H 0.20032 0.54902 0.57012 0.0
H1095 H 0.21433 0.47843 0.59998 0.0
H1096 H 0.19936 0.56142 0.62771 0.0
H1097 H 0.21122 0.48945 0.65745 0.0
H1098 H 0.22125 0.5243 0.75999 0.0
H1099 H 0.23285 0.52169 0.70235 0.0
H1100 H 0.16669 0.54219 0.67233 0.0
H1101 H 0.1566 0.54678 0.72969 0.0
C1102 C 0.20342 0.53625 0.5889 0.0
C1103 C 0.20708 0.51248 0.58027 0.0
C1104 C 0.20246 0.54313 0.62202 0.0
C1105 C 0.20484 0.52625 0.64737 0.0
C1106 C 0.20953 0.50314 0.63871 0.0
C1107 C 0.21081 0.49646 0.60562 0.0
C1108 C 0.20967 0.52893 0.74109 0.0
C1109 C 0.18772 0.53539 0.74956 0.0
C1110 C 0.21605 0.52704 0.70798 0.0
C1111 C 0.2005 0.53138 0.68255 0.0
C1112 C 0.17935 0.53895 0.6911 0.0
C1113 C 0.17319 0.5411 0.72413 0.0
H1114 H 0.53591 0.67771 0.74452 0.0
H1115 H 0.44294 0.64472 0.74449 0.0
H1116 H 0.53879 0.69321 0.6872 0.0
H1117 H 0.44576 0.66001 0.6867 0.0
H1118 H 0.46788 0.65578 0.57242 0.0
H1119 H 0.45987 0.64394 0.63119 0.0
H1120 H 0.52985 0.73051 0.65512 0.0
H1121 H 0.53728 0.74285 0.59667 0.0
C1122 C 0.51613 0.67387 0.73218 0.0
C1123 C 0.48922 0.66004 0.74876 0.0
C1124 C 0.51778 0.68288 0.69953 0.0
C1125 C 0.49249 0.67785 0.68266 0.0
C1126 C 0.46553 0.66407 0.69923 0.0
C1127 C 0.46395 0.6555 0.73219 0.0
C1128 C 0.48108 0.67255 0.5902 0.0
C1129 C 0.50356 0.70011 0.57975 0.0
C1130 C 0.47651 0.66572 0.62382 0.0
C1131 C 0.4945 0.68623 0.64753 0.0
C1132 C 0.516 0.71418 0.63724 0.0
C1133 C 0.52034 0.72113 0.60375 0.0
H1134 H 0.10643 0.99978 0.24817 0.0
H1135 H 0.19326 0.06425 0.27888 0.0
H1136 H 0.09161 0.0367 0.24992 0.0
H1137 H 0.17822 0.10082 0.28266 0.0
H1138 H 0.15997 0.16445 0.22616 0.0
H1139 H 0.17067 0.12645 0.24058 0.0
H1140 H 0.08203 0.07211 0.27503 0.0
H1141 H 0.07088 0.1101 0.25874 0.0
C1142 C 0.12198 0.02152 0.25676 0.0
C1143 C 0.1511 0.02926 0.26305 0.0
C1144 C 0.11351 0.0428 0.25772 0.0
C1145 C 0.13394 0.07209 0.26551 0.0
C1146 C 0.16214 0.07881 0.2754 0.0
C1147 C 0.17072 0.05776 0.27371 0.0
C1148 C 0.14266 0.14443 0.23671 0.0
C1149 C 0.11446 0.14029 0.24081 0.0
C1150 C 0.14894 0.12267 0.2456 0.0
C1151 C 0.1273 0.09606 0.25925 0.0
C1152 C 0.09922 0.09219 0.26439 0.0
C1153 C 0.09288 0.11409 0.25532 0.0
H1154 H 0.0149 0.11286 0.25741 0.0
H1155 H 0.94447 0.13016 0.23966 0.0
H1156 H 0.97923 0.06062 0.26361 0.0
H1157 H 0.90939 0.07874 0.24434 0.0
H1158 H 0.84629 0.98751 0.26543 0.0
H1159 H 0.88463 0.03747 0.27683 0.0
H1160 H 0.94766 0.02 0.22946 0.0
H1161 H 0.90912 0.96932 0.21999 0.0
C1162 C 0.99184 0.10562 0.25552 0.0
C1163 C 0.98252 0.12564 0.24795 0.0
C1164 C 0.97139 0.07564 0.25863 0.0
C1165 C 0.94127 0.06519 0.25434 0.0
C1166 C 0.93218 0.08567 0.24842 0.0
C1167 C 0.95244 0.11535 0.24543 0.0
C1168 C 0.86846 0.99435 0.25797 0.0
C1169 C 0.87476 0.97482 0.24147 0.0
C1170 C 0.89048 0.02302 0.26429 0.0
C1171 C 0.91929 0.03321 0.25338 0.0
C1172 C 0.92586 0.01306 0.23843 0.0
C1173 C 0.90381 0.98406 0.23279 0.0
H1174 H 0.88192 0.81402 0.24198 0.0
H1175 H 0.89825 0.9007 0.26512 0.0
H1176 H 0.93295 0.83005 0.249 0.0
H1177 H 0.94999 0.91687 0.27374 0.0
H1178 H 0.04198 0.94111 0.23055 0.0
H1179 H 0.99122 0.92812 0.24052 0.0
H1180 H 0.9738 0.84512 0.28101 0.0
H1181 H 0.02389 0.85765 0.26875 0.0
C1182 C 0.89637 0.83644 0.24952 0.0
C1183 C 0.88601 0.85617 0.25246 0.0
C1184 C 0.92585 0.84567 0.25387 0.0
C1185 C 0.946 0.87495 0.26173 0.0
C1186 C 0.93528 0.89429 0.26708 0.0
C1187 C 0.90553 0.88497 0.26254 0.0
C1188 C 0.02721 0.9203 0.24196 0.0
C1189 C 0.03647 0.90011 0.24836 0.0
C1190 C 0.99816 0.91286 0.24794 0.0
C1191 C 0.97801 0.88525 0.26105 0.0
C1192 C 0.98825 0.86615 0.26988 0.0
C1193 C 0.01697 0.87331 0.26309 0.0
H1194 H 1.00507 0.10732 0.74258 0.0
H1195 H 0.07306 0.19776 0.73602 0.0
H1196 H 0.04223 0.09247 0.7431 0.0
H1197 H 0.10991 0.18301 0.73614 0.0
H1198 H 0.15927 0.15119 0.80027 0.0
H1199 H 0.12215 0.16271 0.78556 0.0
H1200 H 0.08655 0.09252 0.71453 0.0
H1201 H 0.12441 0.08079 0.72878 0.0
C1202 C 0.02783 0.12391 0.73993 0.0
C1203 C 0.03622 0.15374 0.73965 0.0
C1204 C 0.04911 0.11542 0.74036 0.0
C1205 C 0.07899 0.13665 0.74043 0.0
C1206 C 0.08708 0.1662 0.73685 0.0
C1207 C 0.06596 0.17464 0.73657 0.0
C1208 C 0.14406 0.13819 0.78118 0.0
C1209 C 0.14555 0.11512 0.76562 0.0
C1210 C 0.1226 0.14496 0.77269 0.0
C1211 C 0.10168 0.12884 0.74851 0.0
C1212 C 0.10249 0.10539 0.73321 0.0
C1213 C 0.12429 0.09871 0.7415 0.0
H1214 H 0.86436 0.02247 0.72716 0.0
H1215 H 0.94854 0.04053 0.76226 0.0
H1216 H 0.85181 0.97253 0.7135 0.0
H1217 H 0.93559 0.98987 0.75104 0.0
H1218 H 0.9075 0.89671 0.72654 0.0
H1219 H 0.92349 0.94847 0.71761 0.0
H1220 H 0.83747 0.93174 0.74549 0.0
H1221 H 0.82163 0.88072 0.75289 0.0
C1222 C 0.88022 0.01559 0.73165 0.0
C1223 C 0.9072 0.03498 0.74596 0.0
C1224 C 0.87305 0.98696 0.72414 0.0
C1225 C 0.89233 0.97669 0.73192 0.0
C1226 C 0.92017 0.99683 0.74444 0.0
C1227 C 0.92761 0.02581 0.7511 0.0
C1228 C 0.89189 0.90407 0.72975 0.0
C1229 C 0.86342 0.88468 0.74087 0.0
C1230 C 0.90111 0.93382 0.72501 0.0
C1231 C 0.88197 0.94463 0.73118 0.0
C1232 C 0.85293 0.92456 0.73999 0.0
C1233 C 0.84381 0.8951 0.74456 0.0
H1234 H 0.11821 0.01627 0.7402 0.0
H1235 H 0.13676 0.94566 0.74781 0.0
H1236 H 0.06625 0.98058 0.73251 0.0
H1237 H 0.08555 0.9104 0.74158 0.0
H1238 H 0.99437 0.84796 0.71982 0.0
H1239 H 0.04394 0.88748 0.70925 0.0
H1240 H 0.0264 0.9464 0.76594 0.0
H1241 H 0.97614 0.90684 0.77474 0.0
C1242 C 0.11132 0.99322 0.73944 0.0
C1243 C 0.13157 0.98377 0.74474 0.0
C1244 C 0.08149 0.97272 0.7355 0.0
C1245 C 0.07144 0.94244 0.73666 0.0
C1246 C 0.09218 0.93336 0.74 0.0
C1247 C 0.12173 0.95368 0.74385 0.0
C1248 C 1.00111 0.86951 0.72956 0.0
C1249 C 0.9817 0.87432 0.74848 0.0
C1250 C 0.02954 0.89219 0.72367 0.0
C1251 C 0.0396 0.92014 0.73735 0.0
C1252 C 0.01954 0.92532 0.75479 0.0
C1253 C 0.99078 0.90265 0.76006 0.0
H1254 H 0.8619 0.40131 0.58114 0.0
H1255 H 0.77421 0.33051 0.59849 0.0
H1256 H 0.84553 0.43624 0.58643 0.0
H1257 H 0.75758 0.36599 0.6053 0.0
H1258 H 0.73639 0.43511 0.55873 0.0
H1259 H 0.74835 0.39683 0.57075 0.0
H1260 H 0.82872 0.46138 0.61711 0.0
H1261 H 0.81734 0.49943 0.60279 0.0
C1262 C 0.83913 0.39322 0.58705 0.0
C1263 C 0.81932 0.36307 0.58895 0.0
C1264 C 0.82968 0.41341 0.5904 0.0
C1265 C 0.80006 0.40416 0.59612 0.0
C1266 C 0.78046 0.37397 0.60034 0.0
C1267 C 0.79002 0.3536 0.59685 0.0
C1268 C 0.75632 0.44076 0.57194 0.0
C1269 C 0.77622 0.47008 0.57944 0.0
C1270 C 0.76318 0.41889 0.57906 0.0
C1271 C 0.78987 0.42595 0.59437 0.0
C1272 C 0.80845 0.45511 0.60433 0.0
C1273 C 0.80193 0.47695 0.59642 0.0
H1274 H 0.611 0.46993 0.57271 0.0
H1275 H 0.67826 0.44899 0.59501 0.0
H1276 H 0.57425 0.41903 0.57716 0.0
H1277 H 0.64092 0.39742 0.60107 0.0
H1278 H 0.57109 0.30755 0.55572 0.0
H1279 H 0.61011 0.3577 0.56626 0.0
H1280 H 0.54674 0.37754 0.60816 0.0
H1281 H 0.50793 0.32802 0.59565 0.0
C1282 C 0.6179 0.45447 0.57947 0.0
C1283 C 0.64766 0.46358 0.58311 0.0
C1284 C 0.59665 0.42508 0.58232 0.0
C1285 C 0.6044 0.40376 0.5893 0.0
C1286 C 0.63411 0.41309 0.5951 0.0
C1287 C 0.65554 0.44273 0.59205 0.0
C1288 C 0.56576 0.32268 0.56755 0.0
C1289 C 0.53655 0.31422 0.57438 0.0
C1290 C 0.5881 0.35139 0.57383 0.0
C1291 C 0.58168 0.37205 0.58762 0.0
C1292 C 0.55255 0.36268 0.59658 0.0
C1293 C 0.53025 0.33427 0.5896 0.0
H1294 H 0.68181 0.19494 0.5329 0.0
H1295 H 0.71243 0.26848 0.5995 0.0
H1296 H 0.63299 0.18711 0.53657 0.0
H1297 H 0.66275 0.26111 0.60197 0.0
H1298 H 0.557 0.20921 0.61723 0.0
H1299 H 0.60921 0.22359 0.62057 0.0
H1300 H 0.6112 0.21508 0.51475 0.0
H1301 H 0.5599 0.20009 0.51169 0.0
C1302 C 0.67827 0.20941 0.5486 0.0
C1303 C 0.70142 0.23241 0.56588 0.0
C1304 C 0.6501 0.20508 0.55038 0.0
C1305 C 0.64402 0.22375 0.56917 0.0
C1306 C 0.6668 0.24638 0.58725 0.0
C1307 C 0.69529 0.25075 0.58553 0.0
C1308 C 0.56891 0.21088 0.59483 0.0
C1309 C 0.55437 0.20297 0.56432 0.0
C1310 C 0.59869 0.21913 0.59667 0.0
C1311 C 0.61409 0.21974 0.56797 0.0
C1312 C 0.59981 0.21399 0.53741 0.0
C1313 C 0.57038 0.20548 0.53566 0.0
H1314 H 0.79227 0.4119 0.0532 0.0
H1315 H 0.82382 0.48502 0.12071 0.0
H1316 H 0.74955 0.41637 0.04184 0.0
H1317 H 0.78144 0.4896 0.10864 0.0
H1318 H 0.70767 0.50057 0.07141 0.0
H1319 H 0.75375 0.50029 0.06547 0.0
H1320 H 0.70715 0.40646 0.07763 0.0
H1321 H 0.66155 0.40686 0.08368 0.0
C1322 C 0.79041 0.42902 0.06558 0.0
C1323 C 0.81164 0.44773 0.08846 0.0
C1324 C 0.76589 0.43167 0.05879 0.0
C1325 C 0.76209 0.4533 0.07436 0.0
C1326 C 0.78391 0.47294 0.09587 0.0
C1327 C 0.80829 0.47016 0.10291 0.0
C1328 C 0.70727 0.47987 0.07166 0.0
C1329 C 0.68116 0.45374 0.07807 0.0
C1330 C 0.73361 0.47971 0.06861 0.0
C1331 C 0.7341 0.45337 0.07137 0.0
C1332 C 0.70754 0.42707 0.07514 0.0
C1333 C 0.68141 0.4273 0.0787 0.0
H1334 H 0.56446 0.23083 0.05286 0.0
H1335 H 0.47806 0.21064 0.08311 0.0
H1336 H 0.5773 0.28163 0.04305 0.0
H1337 H 0.49101 0.26081 0.07554 0.0
H1338 H 0.51356 0.35113 0.05889 0.0
H1339 H 0.50181 0.30131 0.04584 0.0
H1340 H 0.58932 0.32301 0.07418 0.0
H1341 H 0.60123 0.37321 0.08455 0.0
C1342 C 0.54807 0.23707 0.05684 0.0
C1343 C 0.5204 0.21677 0.06923 0.0
C1344 C 0.5555 0.26632 0.05166 0.0
C1345 C 0.53543 0.27581 0.05897 0.0
C1346 C 0.50715 0.25476 0.06912 0.0
C1347 C 0.49972 0.22575 0.07388 0.0
C1348 C 0.53029 0.34518 0.06161 0.0
C1349 C 0.55814 0.36578 0.07294 0.0
C1350 C 0.52361 0.31658 0.05443 0.0
C1351 C 0.54434 0.30758 0.05965 0.0
C1352 C 0.57274 0.32885 0.06943 0.0
C1353 C 0.57961 0.35767 0.07564 0.0
H1354 H 0.79894 0.27848 0.08732 0.0
H1355 H 0.78418 0.35071 0.07037 0.0
H1356 H 0.74756 0.24434 0.07981 0.0
H1357 H 0.73207 0.3161 0.06159 0.0
H1358 H 0.63912 0.24541 0.10251 0.0
H1359 H 0.69014 0.28385 0.09451 0.0
H1360 H 0.70739 0.22154 0.04492 0.0
H1361 H 0.65707 0.18328 0.05473 0.0
C1362 C 0.78475 0.28707 0.08109 0.0
C1363 C 0.79572 0.31736 0.07962 0.0
C1364 C 0.7551 0.26738 0.07651 0.0
C1365 C 0.73534 0.27728 0.07011 0.0
C1366 C 0.74653 0.30764 0.06685 0.0
C1367 C 0.77648 0.32751 0.07145 0.0
C1368 C 0.65385 0.24029 0.08939 0.0
C1369 C 0.64445 0.21141 0.07966 0.0
C1370 C 0.68306 0.26227 0.08465 0.0
C1371 C 0.70323 0.25578 0.06964 0.0
C1372 C 0.69287 0.22727 0.0575 0.0
C1373 C 0.664 0.20533 0.06286 0.0
H1374 H 0.4871 0.83188 0.94009 0.0
H1375 H 0.40852 0.77079 0.88912 0.0
H1376 H 0.49778 0.79294 0.95181 0.0
H1377 H 0.41984 0.73177 0.89886 0.0
H1378 H 0.4432 0.66325 0.92569 0.0
H1379 H 0.42679 0.69889 0.9327 0.0
H1380 H 0.51582 0.76915 0.9202 0.0
H1381 H 0.53197 0.73398 0.91477 0.0
C1382 C 0.4721 0.80996 0.93149 0.0
C1383 C 0.44726 0.80432 0.91335 0.0
C1384 C 0.47823 0.78762 0.93799 0.0
C1385 C 0.46009 0.75918 0.92565 0.0
C1386 C 0.43427 0.75324 0.90901 0.0
C1387 C 0.42781 0.77558 0.90319 0.0
C1388 C 0.45926 0.68635 0.92554 0.0
C1389 C 0.48887 0.69581 0.91953 0.0
C1390 C 0.44984 0.70681 0.9291 0.0
C1391 C 0.46987 0.73707 0.92678 0.0
C1392 C 0.49965 0.74623 0.92269 0.0
C1393 C 0.50898 0.72594 0.91928 0.0
H1394 H 0.3489 0.77986 0.93148 0.0
H1395 H 0.28013 0.79835 0.90829 0.0
H1396 H 0.3124 0.72814 0.93906 0.0
H1397 H 0.24421 0.74736 0.91431 0.0
H1398 H 0.17928 0.65638 0.9328 0.0
H1399 H 0.21744 0.70611 0.94568 0.0
H1400 H 0.28212 0.68764 0.90485 0.0
H1401 H 0.24373 0.63723 0.89412 0.0
C1402 C 0.32603 0.77305 0.92872 0.0
C1403 C 0.31746 0.79317 0.91894 0.0
C1404 C 0.30507 0.74332 0.93264 0.0
C1405 C 0.27519 0.73324 0.92695 0.0
C1406 C 0.26677 0.75396 0.9194 0.0
C1407 C 0.28753 0.78341 0.91565 0.0
C1408 C 0.20177 0.66297 0.92713 0.0
C1409 C 0.20862 0.64326 0.91208 0.0
C1410 C 0.22368 0.6915 0.93431 0.0
C1411 C 0.25298 0.70135 0.92564 0.0
C1412 C 0.25997 0.68098 0.91216 0.0
C1413 C 0.238 0.65214 0.90575 0.0
H1414 H 0.23807 0.5734 0.91136 0.0
H1415 H 0.21475 0.48551 0.93882 0.0
H1416 H 0.28969 0.58806 0.91407 0.0
H1417 H 0.26624 0.50033 0.9435 0.0
H1418 H 0.34896 0.52026 0.88747 0.0
H1419 H 0.30009 0.50918 0.90159 0.0
H1420 H 0.33414 0.59667 0.93996 0.0
H1421 H 0.3835 0.60823 0.92407 0.0
C1422 C 0.24399 0.55754 0.91947 0.0
C1423 C 0.22242 0.52823 0.92456 0.0
C1424 C 0.27368 0.56593 0.92098 0.0
C1425 C 0.28227 0.54519 0.92809 0.0
C1426 C 0.26052 0.51668 0.93681 0.0
C1427 C 0.23097 0.50822 0.9346 0.0
C1428 C 0.34615 0.53723 0.89886 0.0
C1429 C 0.37021 0.56526 0.90417 0.0
C1430 C 0.31801 0.53071 0.90756 0.0
C1431 C 0.31294 0.55194 0.92217 0.0
C1432 C 0.33713 0.57981 0.92855 0.0
C1433 C 0.36548 0.58638 0.91971 0.0
H1434 H 0.40398 0.86159 0.41683 0.0
H1435 H 0.33411 0.77345 0.39923 0.0
H1436 H 0.43948 0.84607 0.41017 0.0
H1437 H 0.37009 0.75773 0.39098 0.0
H1438 H 0.44034 0.73724 0.43468 0.0
H1439 H 0.40163 0.74889 0.42463 0.0
H1440 H 0.46471 0.83003 0.37824 0.0
H1441 H 0.50326 0.81892 0.39041 0.0
C1442 C 0.39621 0.83893 0.41055 0.0
C1443 C 0.36617 0.81871 0.40895 0.0
C1444 C 0.41671 0.82997 0.40643 0.0
C1445 C 0.40786 0.80048 0.40023 0.0
C1446 C 0.37776 0.78052 0.3963 0.0
C1447 C 0.35709 0.78957 0.40058 0.0
C1448 C 0.44562 0.75732 0.42195 0.0
C1449 C 0.47471 0.77748 0.41383 0.0
C1450 C 0.42347 0.76398 0.41594 0.0
C1451 C 0.42998 0.79073 0.40112 0.0
C1452 C 0.45888 0.80968 0.39066 0.0
C1453 C 0.48101 0.80333 0.39741 0.0
H1454 H 0.15128 0.54468 0.42527 0.0
H1455 H 0.23779 0.56255 0.3989 0.0
H1456 H 0.16676 0.59588 0.4205 0.0
H1457 H 0.25336 0.61449 0.39254 0.0
H1458 H 0.27711 0.70616 0.43685 0.0
H1459 H 0.26461 0.65548 0.42665 0.0
H1460 H 0.18059 0.63681 0.3886 0.0
H1461 H 0.1927 0.68679 0.40089 0.0
C1462 C 0.17354 0.55953 0.41756 0.0
C1463 C 0.19333 0.54947 0.41276 0.0
C1464 C 0.18245 0.5891 0.41452 0.0
C1465 C 0.21146 0.60969 0.4062 0.0
C1466 C 0.23096 0.59941 0.39947 0.0
C1467 C 0.22196 0.56956 0.40268 0.0
C1468 C 0.25618 0.69115 0.4259 0.0
C1469 C 0.23563 0.70007 0.42016 0.0
C1470 C 0.24901 0.66214 0.41984 0.0
C1471 C 0.22128 0.64165 0.40734 0.0
C1472 C 0.20175 0.65151 0.39925 0.0
C1473 C 0.20867 0.6802 0.40605 0.0
H1474 H 0.46688 0.60929 0.42248 0.0
H1475 H 0.44949 0.67825 0.39589 0.0
H1476 H 0.41595 0.57354 0.41585 0.0
H1477 H 0.39782 0.64186 0.38781 0.0
H1478 H 0.3058 0.57293 0.43122 0.0
H1479 H 0.35634 0.61154 0.42137 0.0
H1480 H 0.37586 0.54697 0.38235 0.0
H1481 H 0.32599 0.50864 0.39433 0.0
C1482 C 0.45221 0.61678 0.41436 0.0
C1483 C 0.46227 0.64671 0.41009 0.0
C1484 C 0.42281 0.5961 0.41023 0.0
C1485 C 0.40243 0.60461 0.40136 0.0
C1486 C 0.41276 0.63449 0.39512 0.0
C1487 C 0.44245 0.65536 0.39938 0.0
C1488 C 0.32095 0.56731 0.42004 0.0
C1489 C 0.31235 0.53793 0.41399 0.0
C1490 C 0.34987 0.58937 0.41419 0.0
C1491 C 0.37055 0.58243 0.40164 0.0
C1492 C 0.36095 0.55316 0.39304 0.0
C1493 C 0.33236 0.53116 0.39963 0.0
loop_
_geom_bond_atom_site_label_1
_geom_bond_atom_site_label_2
_geom_bond_distance
_geom_bond_site_symmetry_2
_ccdc_geom_bond_type
C0 C1 1.351 . S
C0 N3 1.368 . S
C0 H5 0.931 . S
C1 C0 1.351 . S
C1 N2 1.373 . S
C1 H29 0.930 . S
N2 C1 1.373 . S
N2 C4 1.340 . S
N3 C0 1.368 . S
N3 C4 1.321 . S
N3 Co6 2.135 . S
C4 N2 1.340 . S
C4 N3 1.321 . S
C4 H28 0.930 . S
H5 C0 0.931 . S
Co6 N3 2.135 . S
Co6 N9 2.121 1_455 S
Co6 O14 2.055 . S
Co6 O17 2.039 1_455 S
Co6 N20 2.140 . S
C7 O8 1.227 . S
C7 O17 1.265 . S
O8 C7 1.227 . S
N9 Co6 2.121 1_655 S
N9 C11 1.375 . S
N9 C12 1.313 . S
C10 C11 1.338 . S
C10 N13 1.377 . S
C10 H30 0.930 . S
C11 N9 1.375 . S
C11 C10 1.338 . S
C11 H15 0.931 . S
C12 N9 1.313 . S
C12 N13 1.344 . S
C12 H16 0.930 1_655 S
N13 C10 1.377 . S
N13 C12 1.344 . S
O14 Co6 2.055 . S
O14 C18 1.253 . S
H15 C11 0.931 . S
H16 C12 0.930 1_455 S
O17 Co6 2.039 1_655 S
O17 C7 1.265 . S
C18 O14 1.253 . S
C18 O19 1.227 . S
O19 C18 1.227 . S
N20 Co6 2.140 . S
N20 C23 1.346 . S
N20 C24 1.345 . S
C21 C22 1.387 . S
C21 C25 1.391 . S
C22 C21 1.387 . S
C22 C23 1.369 . S
C22 H31 0.929 . S
C23 N20 1.346 . S
C23 C22 1.369 . S
C23 H26 0.928 . S
C24 N20 1.345 . S
C24 C25 1.371 . S
C24 H27 0.931 . S
C25 C21 1.391 . S
C25 C24 1.371 . S
C25 H32 0.930 . S
H26 C23 0.928 . S
H27 C24 0.931 . S
H28 C4 0.930 . S
H29 C1 0.930 . S
H30 C10 0.930 . S
H31 C22 0.929 . S
H32 C25 0.930 . S
C33 C34 1.351 . S
C33 N36 1.368 . S
C33 H38 0.931 . S
C34 C33 1.351 . S
C34 N35 1.373 . S
C34 H62 0.930 . S
N35 C34 1.373 . S
N35 C37 1.340 . S
N36 C33 1.368 . S
N36 C37 1.321 . S
N36 Co39 2.135 . S
C37 N35 1.340 . S
C37 N36 1.321 . S
C37 H61 0.930 . S
H38 C33 0.931 . S
Co39 N36 2.135 . S
Co39 N42 2.121 . S
Co39 O47 2.055 . S
Co39 O50 2.039 . S
Co39 N53 2.140 . S
C40 O41 1.227 . S
C40 O50 1.265 . S
O41 C40 1.227 . S
N42 Co39 2.121 . S
N42 C44 1.375 . S
N42 C45 1.313 . S
C43 C44 1.338 . S
C43 N46 1.377 . S
C43 H63 0.930 . S
C44 N42 1.375 . S
C44 C43 1.338 . S
C44 H48 0.931 . S
C45 N42 1.313 . S
C45 N46 1.344 . S
C45 H49 0.930 . S
N46 C43 1.377 . S
N46 C45 1.344 . S
O47 Co39 2.055 . S
O47 C51 1.253 . S
H48 C44 0.931 . S
H49 C45 0.930 . S
O50 Co39 2.039 . S
O50 C40 1.265 . S
C51 O47 1.253 . S
C51 O52 1.227 . S
O52 C51 1.227 . S
N53 Co39 2.140 . S
N53 C56 1.346 . S
N53 C57 1.345 . S
C54 C55 1.387 . S
C54 C58 1.391 . S
C55 C54 1.387 . S
C55 C56 1.369 . S
C55 H64 0.929 . S
C56 N53 1.346 . S
C56 C55 1.369 . S
C56 H59 0.928 . S
C57 N53 1.345 . S
C57 C58 1.371 . S
C57 H60 0.931 . S
C58 C54 1.391 . S
C58 C57 1.371 . S
C58 H65 0.930 . S
H59 C56 0.928 . S
H60 C57 0.931 . S
H61 C37 0.930 . S
H62 C34 0.930 . S
H63 C43 0.930 . S
H64 C55 0.929 . S
H65 C58 0.930 . S
C66 C67 1.351 . S
C66 N69 1.368 . S
C66 H71 0.931 . S
C67 C66 1.351 . S
C67 N68 1.373 . S
C67 H95 0.930 . S
N68 C67 1.373 . S
N68 C70 1.340 . S
N69 C66 1.368 . S
N69 C70 1.321 . S
N69 Co72 2.135 . S
C70 N68 1.340 . S
C70 N69 1.321 . S
C70 H94 0.930 . S
H71 C66 0.931 . S
Co72 N69 2.135 . S
Co72 N75 2.121 1_565 S
Co72 O80 2.055 . S
Co72 O83 2.039 1_565 S
Co72 N86 2.140 . S
C73 O74 1.227 . S
C73 O83 1.265 . S
O74 C73 1.227 . S
N75 Co72 2.121 1_545 S
N75 C77 1.375 . S
N75 C78 1.313 . S
C76 C77 1.338 . S
C76 N79 1.377 . S
C76 H96 0.930 . S
C77 N75 1.375 . S
C77 C76 1.338 . S
C77 H81 0.931 . S
C78 N75 1.313 . S
C78 N79 1.344 . S
C78 H82 0.930 1_545 S
N79 C76 1.377 . S
N79 C78 1.344 . S
O80 Co72 2.055 . S
O80 C84 1.253 . S
H81 C77 0.931 . S
H82 C78 0.930 1_565 S
O83 Co72 2.039 1_545 S
O83 C73 1.265 . S
C84 O80 1.253 . S
C84 O85 1.227 . S
O85 C84 1.227 . S
N86 Co72 2.140 . S
N86 C89 1.346 . S
N86 C90 1.345 . S
C87 C88 1.387 . S
C87 C91 1.391 . S
C88 C87 1.387 . S
C88 C89 1.369 . S
C88 H97 0.929 . S
C89 N86 1.346 . S
C89 C88 1.369 . S
C89 H92 0.928 . S
C90 N86 1.345 . S
C90 C91 1.371 . S
C90 H93 0.931 . S
C91 C87 1.391 . S
C91 C90 1.371 . S
C91 H98 0.930 . S
H92 C89 0.928 . S
H93 C90 0.931 . S
H94 C70 0.930 . S
H95 C67 0.930 . S
H96 C76 0.930 . S
H97 C88 0.929 . S
H98 C91 0.930 . S
C99 C100 1.351 . S
C99 N102 1.368 . S
C99 H104 0.931 . S
C100 C99 1.351 . S
C100 N101 1.373 . S
C100 H128 0.930 . S
N101 C100 1.373 . S
N101 C103 1.340 . S
N102 C99 1.368 . S
N102 C103 1.321 . S
N102 Co105 2.135 . S
C103 N101 1.340 . S
C103 N102 1.321 . S
C103 H127 0.930 . S
H104 C99 0.931 . S
Co105 N102 2.135 . S
Co105 N108 2.121 1_545 S
Co105 O113 2.055 . S
Co105 O116 2.039 1_545 S
Co105 N119 2.140 . S
C106 O107 1.227 . S
C106 O116 1.265 . S
O107 C106 1.227 . S
N108 Co105 2.121 1_565 S
N108 C110 1.375 . S
N108 C111 1.313 . S
C109 C110 1.338 . S
C109 N112 1.377 . S
C109 H129 0.930 . S
C110 N108 1.375 . S
C110 C109 1.338 . S
C110 H114 0.931 . S
C111 N108 1.313 . S
C111 N112 1.344 . S
C111 H115 0.930 1_565 S
N112 C109 1.377 . S
N112 C111 1.344 . S
O113 Co105 2.055 . S
O113 C117 1.253 . S
H114 C110 0.931 . S
H115 C111 0.930 1_545 S
O116 Co105 2.039 1_565 S
O116 C106 1.265 . S
C117 O113 1.253 . S
C117 O118 1.227 . S
O118 C117 1.227 . S
N119 Co105 2.140 . S
N119 C122 1.346 . S
N119 C123 1.345 . S
C120 C121 1.387 . S
C120 C124 1.391 . S
C121 C120 1.387 . S
C121 C122 1.369 . S
C121 H130 0.929 . S
C122 N119 1.346 . S
C122 C121 1.369 . S
C122 H125 0.928 . S
C123 N119 1.345 . S
C123 C124 1.371 . S
C123 H126 0.931 . S
C124 C120 1.391 . S
C124 C123 1.371 . S
C124 H131 0.930 . S
H125 C122 0.928 . S
H126 C123 0.931 . S
H127 C103 0.930 . S
H128 C100 0.930 . S
H129 C109 0.930 . S
H130 C121 0.929 . S
H131 C124 0.930 . S
C132 C133 1.351 . S
C132 N135 1.368 . S
C132 H137 0.931 . S
C133 C132 1.351 . S
C133 N134 1.373 . S
C133 H161 0.930 . S
N134 C133 1.373 . S
N134 C136 1.340 . S
N135 C132 1.368 . S
N135 C136 1.321 . S
N135 Co138 2.135 . S
C136 N134 1.340 . S
C136 N135 1.321 . S
C136 H160 0.930 . S
H137 C132 0.931 . S
Co138 N135 2.135 . S
Co138 N141 2.121 1_655 S
Co138 O146 2.055 . S
Co138 O149 2.039 1_655 S
Co138 N152 2.140 . S
C139 O140 1.227 . S
C139 O149 1.265 . S
O140 C139 1.227 . S
N141 Co138 2.121 1_455 S
N141 C143 1.375 . S
N141 C144 1.313 . S
C142 C143 1.338 . S
C142 N145 1.377 . S
C142 H162 0.930 . S
C143 N141 1.375 . S
C143 C142 1.338 . S
C143 H147 0.931 . S
C144 N141 1.313 . S
C144 N145 1.344 . S
C144 H148 0.930 1_455 S
N145 C142 1.377 . S
N145 C144 1.344 . S
O146 Co138 2.055 . S
O146 C150 1.253 . S
H147 C143 0.931 . S
H148 C144 0.930 1_655 S
O149 Co138 2.039 1_455 S
O149 C139 1.265 . S
C150 O146 1.253 . S
C150 O151 1.227 . S
O151 C150 1.227 . S
N152 Co138 2.140 . S
N152 C155 1.346 . S
N152 C156 1.345 . S
C153 C154 1.387 . S
C153 C157 1.391 . S
C154 C153 1.387 . S
C154 C155 1.369 . S
C154 H163 0.929 . S
C155 N152 1.346 . S
C155 C154 1.369 . S
C155 H158 0.928 . S
C156 N152 1.345 . S
C156 C157 1.371 . S
C156 H159 0.931 . S
C157 C153 1.391 . S
C157 C156 1.371 . S
C157 H164 0.930 . S
H158 C155 0.928 . S
H159 C156 0.931 . S
H160 C136 0.930 . S
H161 C133 0.930 . S
H162 C142 0.930 . S
H163 C154 0.929 . S
H164 C157 0.930 . S
C165 C166 1.351 . S
C165 N168 1.368 . S
C165 H170 0.931 . S
C166 C165 1.351 . S
C166 N167 1.373 . S
C166 H194 0.930 . S
N167 C166 1.373 . S
N167 C169 1.340 . S
N168 C165 1.368 . S
N168 C169 1.321 . S
N168 Co171 2.135 . S
C169 N167 1.340 . S
C169 N168 1.321 . S
C169 H193 0.930 . S
H170 C165 0.931 . S
Co171 N168 2.135 . S
Co171 N174 2.121 . S
Co171 O179 2.055 . S
Co171 O182 2.039 . S
Co171 N185 2.140 . S
C172 O173 1.227 . S
C172 O182 1.265 . S
O173 C172 1.227 . S
N174 Co171 2.121 . S
N174 C176 1.375 . S
N174 C177 1.313 . S
C175 C176 1.338 . S
C175 N178 1.377 . S
C175 H195 0.930 . S
C176 N174 1.375 . S
C176 C175 1.338 . S
C176 H180 0.931 . S
C177 N174 1.313 . S
C177 N178 1.344 . S
C177 H181 0.930 . S
N178 C175 1.377 . S
N178 C177 1.344 . S
O179 Co171 2.055 . S
O179 C183 1.253 . S
H180 C176 0.931 . S
H181 C177 0.930 . S
O182 Co171 2.039 . S
O182 C172 1.265 . S
C183 O179 1.253 . S
C183 O184 1.227 . S
O184 C183 1.227 . S
N185 Co171 2.140 . S
N185 C188 1.346 . S
N185 C189 1.345 . S
C186 C187 1.387 . S
C186 C190 1.391 . S
C187 C186 1.387 . S
C187 C188 1.369 . S
C187 H196 0.929 . S
C188 N185 1.346 . S
C188 C187 1.369 . S
C188 H191 0.928 . S
C189 N185 1.345 . S
C189 C190 1.371 . S
C189 H192 0.931 . S
C190 C186 1.391 . S
C190 C189 1.371 . S
C190 H197 0.930 . S
H191 C188 0.928 . S
H192 C189 0.931 . S
H193 C169 0.930 . S
H194 C166 0.930 . S
H195 C175 0.930 . S
H196 C187 0.929 . S
H197 C190 0.930 . S
C198 C199 1.351 . S
C198 N201 1.368 . S
C198 H203 0.931 . S
C199 C198 1.351 . S
C199 N200 1.373 . S
C199 H227 0.930 . S
N200 C199 1.373 . S
N200 C202 1.340 . S
N201 C198 1.368 . S
N201 C202 1.321 . S
N201 Co204 2.135 . S
C202 N200 1.340 . S
C202 N201 1.321 . S
C202 H226 0.930 . S
H203 C198 0.931 . S
Co204 N201 2.135 . S
Co204 N207 2.121 . S
Co204 O212 2.055 . S
Co204 O215 2.039 . S
Co204 N218 2.140 . S
C205 O206 1.227 . S
C205 O215 1.265 . S
O206 C205 1.227 . S
N207 Co204 2.121 . S
N207 C209 1.375 . S
N207 C210 1.313 . S
C208 C209 1.338 . S
C208 N211 1.377 . S
C208 H228 0.930 . S
C209 N207 1.375 . S
C209 C208 1.338 . S
C209 H213 0.931 . S
C210 N207 1.313 . S
C210 N211 1.344 . S
C210 H214 0.930 . S
N211 C208 1.377 . S
N211 C210 1.344 . S
O212 Co204 2.055 . S
O212 C216 1.253 . S
H213 C209 0.931 . S
H214 C210 0.930 . S
O215 Co204 2.039 . S
O215 C205 1.265 . S
C216 O212 1.253 . S
C216 O217 1.227 . S
O217 C216 1.227 . S
N218 Co204 2.140 . S
N218 C221 1.346 . S
N218 C222 1.345 . S
C219 C220 1.387 . S
C219 C223 1.391 . S
C220 C219 1.387 . S
C220 C221 1.369 . S
C220 H229 0.929 . S
C221 N218 1.346 . S
C221 C220 1.369 . S
C221 H224 0.928 . S
C222 N218 1.345 . S
C222 C223 1.371 . S
C222 H225 0.931 . S
C223 C219 1.391 . S
C223 C222 1.371 . S
C223 H230 0.930 . S
H224 C221 0.928 . S
H225 C222 0.931 . S
H226 C202 0.930 . S
H227 C199 0.930 . S
H228 C208 0.930 . S
H229 C220 0.929 . S
H230 C223 0.930 . S
C231 C232 1.351 . S
C231 N234 1.368 . S
C231 H236 0.931 . S
C232 C231 1.351 . S
C232 N233 1.373 . S
C232 H260 0.930 . S
N233 C232 1.373 . S
N233 C235 1.340 . S
N234 C231 1.368 . S
N234 C235 1.321 . S
N234 Co237 2.135 . S
C235 N233 1.340 . S
C235 N234 1.321 . S
C235 H259 0.930 . S
H236 C231 0.931 . S
Co237 N234 2.135 . S
Co237 N240 2.121 . S
Co237 O245 2.055 . S
Co237 O248 2.039 . S
Co237 N251 2.140 . S
C238 O239 1.227 . S
C238 O248 1.265 . S
O239 C238 1.227 . S
N240 Co237 2.121 . S
N240 C242 1.375 . S
N240 C243 1.313 . S
C241 C242 1.338 . S
C241 N244 1.377 . S
C241 H261 0.930 . S
C242 N240 1.375 . S
C242 C241 1.338 . S
C242 H246 0.931 . S
C243 N240 1.313 . S
C243 N244 1.344 . S
C243 H247 0.930 . S
N244 C241 1.377 . S
N244 C243 1.344 . S
O245 Co237 2.055 . S
O245 C249 1.253 . S
H246 C242 0.931 . S
H247 C243 0.930 . S
O248 Co237 2.039 . S
O248 C238 1.265 . S
C249 O245 1.253 . S
C249 O250 1.227 . S
O250 C249 1.227 . S
N251 Co237 2.140 . S
N251 C254 1.346 . S
N251 C255 1.345 . S
C252 C253 1.387 . S
C252 C256 1.391 . S
C253 C252 1.387 . S
C253 C254 1.369 . S
C253 H262 0.929 . S
C254 N251 1.346 . S
C254 C253 1.369 . S
C254 H257 0.928 . S
C255 N251 1.345 . S
C255 C256 1.371 . S
C255 H258 0.931 . S
C256 C252 1.391 . S
C256 C255 1.371 . S
C256 H263 0.930 . S
H257 C254 0.928 . S
H258 C255 0.931 . S
H259 C235 0.930 . S
H260 C232 0.930 . S
H261 C241 0.930 . S
H262 C253 0.929 . S
H263 C256 0.930 . S
C264 C265 1.351 . S
C264 N267 1.368 . S
C264 H269 0.931 . S
C265 C264 1.351 . S
C265 N266 1.373 . S
C265 H293 0.930 . S
N266 C265 1.373 . S
N266 C268 1.340 . S
N267 C264 1.368 . S
N267 C268 1.321 . S
N267 Co270 2.135 . S
C268 N266 1.340 . S
C268 N267 1.321 . S
C268 H292 0.930 . S
H269 C264 0.931 . S
Co270 N267 2.135 . S
Co270 N273 2.121 . S
Co270 O278 2.055 . S
Co270 O281 2.039 . S
Co270 N284 2.140 . S
C271 O272 1.227 . S
C271 O281 1.265 . S
O272 C271 1.227 . S
N273 Co270 2.121 . S
N273 C275 1.375 . S
N273 C276 1.313 . S
C274 C275 1.338 . S
C274 N277 1.377 . S
C274 H294 0.930 . S
C275 N273 1.375 . S
C275 C274 1.338 . S
C275 H279 0.931 . S
C276 N273 1.313 . S
C276 N277 1.344 . S
C276 H280 0.930 . S
N277 C274 1.377 . S
N277 C276 1.344 . S
O278 Co270 2.055 . S
O278 C282 1.253 . S
H279 C275 0.931 . S
H280 C276 0.930 . S
O281 Co270 2.039 . S
O281 C271 1.265 . S
C282 O278 1.253 . S
C282 O283 1.227 . S
O283 C282 1.227 . S
N284 Co270 2.140 . S
N284 C287 1.346 . S
N284 C288 1.345 . S
C285 C286 1.387 . S
C285 C289 1.391 . S
C286 C285 1.387 . S
C286 C287 1.369 . S
C286 H295 0.929 . S
C287 N284 1.346 . S
C287 C286 1.369 . S
C287 H290 0.928 . S
C288 N284 1.345 . S
C288 C289 1.371 . S
C288 H291 0.931 . S
C289 C285 1.391 . S
C289 C288 1.371 . S
C289 H296 0.930 . S
H290 C287 0.928 . S
H291 C288 0.931 . S
H292 C268 0.930 . S
H293 C265 0.930 . S
H294 C274 0.930 . S
H295 C286 0.929 . S
H296 C289 0.930 . S
C297 C298 1.351 . S
C297 N300 1.368 . S
C297 H302 0.931 . S
C298 C297 1.351 . S
C298 N299 1.373 . S
C298 H326 0.930 . S
N299 C298 1.373 . S
N299 C301 1.340 . S
N300 C297 1.368 . S
N300 C301 1.321 . S
N300 Co303 2.135 . S
C301 N299 1.340 . S
C301 N300 1.321 . S
C301 H325 0.930 . S
H302 C297 0.931 . S
Co303 N300 2.135 . S
Co303 N306 2.121 . S
Co303 O311 2.055 . S
Co303 O314 2.039 . S
Co303 N317 2.140 . S
C304 O305 1.227 . S
C304 O314 1.265 . S
O305 C304 1.227 . S
N306 Co303 2.121 . S
N306 C308 1.375 . S
N306 C309 1.313 . S
C307 C308 1.338 . S
C307 N310 1.377 . S
C307 H327 0.930 . S
C308 N306 1.375 . S
C308 C307 1.338 . S
C308 H312 0.931 . S
C309 N306 1.313 . S
C309 N310 1.344 . S
C309 H313 0.930 . S
N310 C307 1.377 . S
N310 C309 1.344 . S
O311 Co303 2.055 . S
O311 C315 1.253 . S
H312 C308 0.931 . S
H313 C309 0.930 . S
O314 Co303 2.039 . S
O314 C304 1.265 . S
C315 O311 1.253 . S
C315 O316 1.227 . S
O316 C315 1.227 . S
N317 Co303 2.140 . S
N317 C320 1.346 . S
N317 C321 1.345 . S
C318 C319 1.387 . S
C318 C322 1.391 . S
C319 C318 1.387 . S
C319 C320 1.369 . S
C319 H328 0.929 . S
C320 N317 1.346 . S
C320 C319 1.369 . S
C320 H323 0.928 . S
C321 N317 1.345 . S
C321 C322 1.371 . S
C321 H324 0.931 . S
C322 C318 1.391 . S
C322 C321 1.371 . S
C322 H329 0.930 . S
H323 C320 0.928 . S
H324 C321 0.931 . S
H325 C301 0.930 . S
H326 C298 0.930 . S
H327 C307 0.930 . S
H328 C319 0.929 . S
H329 C322 0.930 . S
C330 C331 1.351 . S
C330 N333 1.368 . S
C330 H335 0.931 . S
C331 C330 1.351 . S
C331 N332 1.373 . S
C331 H359 0.930 . S
N332 C331 1.373 . S
N332 C334 1.340 . S
N333 C330 1.368 . S
N333 C334 1.321 . S
N333 Co336 2.135 . S
C334 N332 1.340 . S
C334 N333 1.321 . S
C334 H358 0.930 . S
H335 C330 0.931 . S
Co336 N333 2.135 . S
Co336 N339 2.121 . S
Co336 O344 2.055 . S
Co336 O347 2.039 . S
Co336 N350 2.140 . S
C337 O338 1.227 . S
C337 O347 1.265 . S
O338 C337 1.227 . S
N339 Co336 2.121 . S
N339 C341 1.375 . S
N339 C342 1.313 . S
C340 C341 1.338 . S
C340 N343 1.377 . S
C340 H360 0.930 . S
C341 N339 1.375 . S
C341 C340 1.338 . S
C341 H345 0.931 . S
C342 N339 1.313 . S
C342 N343 1.344 . S
C342 H346 0.930 . S
N343 C340 1.377 . S
N343 C342 1.344 . S
O344 Co336 2.055 . S
O344 C348 1.253 . S
H345 C341 0.931 . S
H346 C342 0.930 . S
O347 Co336 2.039 . S
O347 C337 1.265 . S
C348 O344 1.253 . S
C348 O349 1.227 . S
O349 C348 1.227 . S
N350 Co336 2.140 . S
N350 C353 1.346 . S
N350 C354 1.345 . S
C351 C352 1.387 . S
C351 C355 1.391 . S
C352 C351 1.387 . S
C352 C353 1.369 . S
C352 H361 0.929 . S
C353 N350 1.346 . S
C353 C352 1.369 . S
C353 H356 0.928 . S
C354 N350 1.345 . S
C354 C355 1.371 . S
C354 H357 0.931 . S
C355 C351 1.391 . S
C355 C354 1.371 . S
C355 H362 0.930 . S
H356 C353 0.928 . S
H357 C354 0.931 . S
H358 C334 0.930 . S
H359 C331 0.930 . S
H360 C340 0.930 . S
H361 C352 0.929 . S
H362 C355 0.930 . S
C363 C364 1.351 . S
C363 N366 1.368 . S
C363 H368 0.931 . S
C364 C363 1.351 . S
C364 N365 1.373 . S
C364 H392 0.930 . S
N365 C364 1.373 . S
N365 C367 1.340 . S
N366 C363 1.368 . S
N366 C367 1.321 . S
N366 Co369 2.135 . S
C367 N365 1.340 . S
C367 N366 1.321 . S
C367 H391 0.930 . S
H368 C363 0.931 . S
Co369 N366 2.135 . S
Co369 N372 2.121 . S
Co369 O377 2.055 . S
Co369 O380 2.039 . S
Co369 N383 2.140 . S
C370 O371 1.227 . S
C370 O380 1.265 . S
O371 C370 1.227 . S
N372 Co369 2.121 . S
N372 C374 1.375 . S
N372 C375 1.313 . S
C373 C374 1.338 . S
C373 N376 1.377 . S
C373 H393 0.930 . S
C374 N372 1.375 . S
C374 C373 1.338 . S
C374 H378 0.931 . S
C375 N372 1.313 . S
C375 N376 1.344 . S
C375 H379 0.930 . S
N376 C373 1.377 . S
N376 C375 1.344 . S
O377 Co369 2.055 . S
O377 C381 1.253 . S
H378 C374 0.931 . S
H379 C375 0.930 . S
O380 Co369 2.039 . S
O380 C370 1.265 . S
C381 O377 1.253 . S
C381 O382 1.227 . S
O382 C381 1.227 . S
N383 Co369 2.140 . S
N383 C386 1.346 . S
N383 C387 1.345 . S
C384 C385 1.387 . S
C384 C388 1.391 . S
C385 C384 1.387 . S
C385 C386 1.369 . S
C385 H394 0.929 . S
C386 N383 1.346 . S
C386 C385 1.369 . S
C386 H389 0.928 . S
C387 N383 1.345 . S
C387 C388 1.371 . S
C387 H390 0.931 . S
C388 C384 1.391 . S
C388 C387 1.371 . S
C388 H395 0.930 . S
H389 C386 0.928 . S
H390 C387 0.931 . S
H391 C367 0.930 . S
H392 C364 0.930 . S
H393 C373 0.930 . S
H394 C385 0.929 . S
H395 C388 0.930 . S
C396 C397 1.351 . S
C396 N399 1.368 . S
C396 H401 0.931 . S
C397 C396 1.351 . S
C397 N398 1.373 . S
C397 H425 0.930 . S
N398 C397 1.373 . S
N398 C400 1.340 . S
N399 C396 1.368 . S
N399 C400 1.321 . S
N399 Co402 2.135 . S
C400 N398 1.340 . S
C400 N399 1.321 . S
C400 H424 0.930 . S
H401 C396 0.931 . S
Co402 N399 2.135 . S
Co402 N405 2.121 . S
Co402 O410 2.055 . S
Co402 O413 2.039 . S
Co402 N416 2.140 . S
C403 O404 1.227 . S
C403 O413 1.265 . S
O404 C403 1.227 . S
N405 Co402 2.121 . S
N405 C407 1.375 . S
N405 C408 1.313 . S
C406 C407 1.338 . S
C406 N409 1.377 . S
C406 H426 0.930 . S
C407 N405 1.375 . S
C407 C406 1.338 . S
C407 H411 0.931 . S
C408 N405 1.313 . S
C408 N409 1.344 . S
C408 H412 0.930 . S
N409 C406 1.377 . S
N409 C408 1.344 . S
O410 Co402 2.055 . S
O410 C414 1.253 . S
H411 C407 0.931 . S
H412 C408 0.930 . S
O413 Co402 2.039 . S
O413 C403 1.265 . S
C414 O410 1.253 . S
C414 O415 1.227 . S
O415 C414 1.227 . S
N416 Co402 2.140 . S
N416 C419 1.346 . S
N416 C420 1.345 . S
C417 C418 1.387 . S
C417 C421 1.391 . S
C418 C417 1.387 . S
C418 C419 1.369 . S
C418 H427 0.929 . S
C419 N416 1.346 . S
C419 C418 1.369 . S
C419 H422 0.928 . S
C420 N416 1.345 . S
C420 C421 1.371 . S
C420 H423 0.931 . S
C421 C417 1.391 . S
C421 C420 1.371 . S
C421 H428 0.930 . S
H422 C419 0.928 . S
H423 C420 0.931 . S
H424 C400 0.930 . S
H425 C397 0.930 . S
H426 C406 0.930 . S
H427 C418 0.929 . S
H428 C421 0.930 . S
C429 C430 1.351 . S
C429 N432 1.368 . S
C429 H434 0.931 . S
C430 C429 1.351 . S
C430 N431 1.373 . S
C430 H458 0.930 . S
N431 C430 1.373 . S
N431 C433 1.340 . S
N432 C429 1.368 . S
N432 C433 1.321 . S
N432 Co435 2.135 . S
C433 N431 1.340 . S
C433 N432 1.321 . S
C433 H457 0.930 . S
H434 C429 0.931 . S
Co435 N432 2.135 . S
Co435 N438 2.121 . S
Co435 O443 2.055 . S
Co435 O446 2.039 . S
Co435 N449 2.140 . S
C436 O437 1.227 . S
C436 O446 1.265 . S
O437 C436 1.227 . S
N438 Co435 2.121 . S
N438 C440 1.375 . S
N438 C441 1.313 . S
C439 C440 1.338 . S
C439 N442 1.377 . S
C439 H459 0.930 . S
C440 N438 1.375 . S
C440 C439 1.338 . S
C440 H444 0.931 . S
C441 N438 1.313 . S
C441 N442 1.344 . S
C441 H445 0.930 . S
N442 C439 1.377 . S
N442 C441 1.344 . S
O443 Co435 2.055 . S
O443 C447 1.253 . S
H444 C440 0.931 . S
H445 C441 0.930 . S
O446 Co435 2.039 . S
O446 C436 1.265 . S
C447 O443 1.253 . S
C447 O448 1.227 . S
O448 C447 1.227 . S
N449 Co435 2.140 . S
N449 C452 1.346 . S
N449 C453 1.345 . S
C450 C451 1.387 . S
C450 C454 1.391 . S
C451 C450 1.387 . S
C451 C452 1.369 . S
C451 H460 0.929 . S
C452 N449 1.346 . S
C452 C451 1.369 . S
C452 H455 0.928 . S
C453 N449 1.345 . S
C453 C454 1.371 . S
C453 H456 0.931 . S
C454 C450 1.391 . S
C454 C453 1.371 . S
C454 H461 0.930 . S
H455 C452 0.928 . S
H456 C453 0.931 . S
H457 C433 0.930 . S
H458 C430 0.930 . S
H459 C439 0.930 . S
H460 C451 0.929 . S
H461 C454 0.930 . S
C462 C463 1.351 . S
C462 N465 1.368 . S
C462 H467 0.931 . S
C463 C462 1.351 . S
C463 N464 1.373 . S
C463 H491 0.930 . S
N464 C463 1.373 . S
N464 C466 1.340 . S
N465 C462 1.368 . S
N465 C466 1.321 . S
N465 Co468 2.135 . S
C466 N464 1.340 . S
C466 N465 1.321 . S
C466 H490 0.930 . S
H467 C462 0.931 . S
Co468 N465 2.135 . S
Co468 N471 2.121 . S
Co468 O476 2.055 . S
Co468 O479 2.039 . S
Co468 N482 2.140 . S
C469 O470 1.227 . S
C469 O479 1.265 . S
O470 C469 1.227 . S
N471 Co468 2.121 . S
N471 C473 1.375 . S
N471 C474 1.313 . S
C472 C473 1.338 . S
C472 N475 1.377 . S
C472 H492 0.930 . S
C473 N471 1.375 . S
C473 C472 1.338 . S
C473 H477 0.931 . S
C474 N471 1.313 . S
C474 N475 1.344 . S
C474 H478 0.930 . S
N475 C472 1.377 . S
N475 C474 1.344 . S
O476 Co468 2.055 . S
O476 C480 1.253 . S
H477 C473 0.931 . S
H478 C474 0.930 . S
O479 Co468 2.039 . S
O479 C469 1.265 . S
C480 O476 1.253 . S
C480 O481 1.227 . S
O481 C480 1.227 . S
N482 Co468 2.140 . S
N482 C485 1.346 . S
N482 C486 1.345 . S
C483 C484 1.387 . S
C483 C487 1.391 . S
C484 C483 1.387 . S
C484 C485 1.369 . S
C484 H493 0.929 . S
C485 N482 1.346 . S
C485 C484 1.369 . S
C485 H488 0.928 . S
C486 N482 1.345 . S
C486 C487 1.371 . S
C486 H489 0.931 . S
C487 C483 1.391 . S
C487 C486 1.371 . S
C487 H494 0.930 . S
H488 C485 0.928 . S
H489 C486 0.931 . S
H490 C466 0.930 . S
H491 C463 0.930 . S
H492 C472 0.930 . S
H493 C484 0.929 . S
H494 C487 0.930 . S
C495 C496 1.351 . S
C495 N498 1.368 . S
C495 H500 0.931 . S
C496 C495 1.351 . S
C496 N497 1.373 . S
C496 H524 0.930 . S
N497 C496 1.373 . S
N497 C499 1.340 . S
N498 C495 1.368 . S
N498 C499 1.321 . S
N498 Co501 2.135 . S
C499 N497 1.340 . S
C499 N498 1.321 . S
C499 H523 0.930 . S
H500 C495 0.931 . S
Co501 N498 2.135 . S
Co501 N504 2.121 . S
Co501 O509 2.055 . S
Co501 O512 2.039 . S
Co501 N515 2.140 . S
C502 O503 1.227 . S
C502 O512 1.265 . S
O503 C502 1.227 . S
N504 Co501 2.121 . S
N504 C506 1.375 . S
N504 C507 1.313 . S
C505 C506 1.338 . S
C505 N508 1.377 . S
C505 H525 0.930 . S
C506 N504 1.375 . S
C506 C505 1.338 . S
C506 H510 0.931 . S
C507 N504 1.313 . S
C507 N508 1.344 . S
C507 H511 0.930 . S
N508 C505 1.377 . S
N508 C507 1.344 . S
O509 Co501 2.055 . S
O509 C513 1.253 . S
H510 C506 0.931 . S
H511 C507 0.930 . S
O512 Co501 2.039 . S
O512 C502 1.265 . S
C513 O509 1.253 . S
C513 O514 1.227 . S
O514 C513 1.227 . S
N515 Co501 2.140 . S
N515 C518 1.346 . S
N515 C519 1.345 . S
C516 C517 1.387 . S
C516 C520 1.391 . S
C517 C516 1.387 . S
C517 C518 1.369 . S
C517 H526 0.929 . S
C518 N515 1.346 . S
C518 C517 1.369 . S
C518 H521 0.928 . S
C519 N515 1.345 . S
C519 C520 1.371 . S
C519 H522 0.931 . S
C520 C516 1.391 . S
C520 C519 1.371 . S
C520 H527 0.930 . S
H521 C518 0.928 . S
H522 C519 0.931 . S
H523 C499 0.930 . S
H524 C496 0.930 . S
H525 C505 0.930 . S
H526 C517 0.929 . S
H527 C520 0.930 . S
C528 C529 1.351 . S
C528 N531 1.368 . S
C528 H533 0.931 . S
C529 C528 1.351 . S
C529 N530 1.373 . S
C529 H557 0.930 . S
N530 C529 1.373 . S
N530 C532 1.340 . S
N531 C528 1.368 . S
N531 C532 1.321 . S
N531 Co534 2.135 . S
C532 N530 1.340 . S
C532 N531 1.321 . S
C532 H556 0.930 . S
H533 C528 0.931 . S
Co534 N531 2.135 . S
Co534 N537 2.121 . S
Co534 O542 2.055 . S
Co534 O545 2.039 . S
Co534 N548 2.140 . S
C535 O536 1.227 . S
C535 O545 1.265 . S
O536 C535 1.227 . S
N537 Co534 2.121 . S
N537 C539 1.375 . S
N537 C540 1.313 . S
C538 C539 1.338 . S
C538 N541 1.377 . S
C538 H558 0.930 . S
C539 N537 1.375 . S
C539 C538 1.338 . S
C539 H543 0.931 . S
C540 N537 1.313 . S
C540 N541 1.344 . S
C540 H544 0.930 . S
N541 C538 1.377 . S
N541 C540 1.344 . S
O542 Co534 2.055 . S
O542 C546 1.253 . S
H543 C539 0.931 . S
H544 C540 0.930 . S
O545 Co534 2.039 . S
O545 C535 1.265 . S
C546 O542 1.253 . S
C546 O547 1.227 . S
O547 C546 1.227 . S
N548 Co534 2.140 . S
N548 C551 1.346 . S
N548 C552 1.345 . S
C549 C550 1.387 . S
C549 C553 1.391 . S
C550 C549 1.387 . S
C550 C551 1.369 . S
C550 H559 0.929 . S
C551 N548 1.346 . S
C551 C550 1.369 . S
C551 H554 0.928 . S
C552 N548 1.345 . S
C552 C553 1.371 . S
C552 H555 0.931 . S
C553 C549 1.391 . S
C553 C552 1.371 . S
C553 H560 0.930 . S
H554 C551 0.928 . S
H555 C552 0.931 . S
H556 C532 0.930 . S
H557 C529 0.930 . S
H558 C538 0.930 . S
H559 C550 0.929 . S
H560 C553 0.930 . S
C561 C562 1.351 . S
C561 N564 1.368 . S
C561 H566 0.931 . S
C562 C561 1.351 . S
C562 N563 1.373 . S
C562 H590 0.930 . S
N563 C562 1.373 . S
N563 C565 1.340 . S
N564 C561 1.368 . S
N564 C565 1.321 . S
N564 Co567 2.135 . S
C565 N563 1.340 . S
C565 N564 1.321 . S
C565 H589 0.930 . S
H566 C561 0.931 . S
Co567 N564 2.135 . S
Co567 N570 2.121 . S
Co567 O575 2.055 . S
Co567 O578 2.039 . S
Co567 N581 2.140 . S
C568 O569 1.227 . S
C568 O578 1.265 . S
O569 C568 1.227 . S
N570 Co567 2.121 . S
N570 C572 1.375 . S
N570 C573 1.313 . S
C571 C572 1.338 . S
C571 N574 1.377 . S
C571 H591 0.930 . S
C572 N570 1.375 . S
C572 C571 1.338 . S
C572 H576 0.931 . S
C573 N570 1.313 . S
C573 N574 1.344 . S
C573 H577 0.930 . S
N574 C571 1.377 . S
N574 C573 1.344 . S
O575 Co567 2.055 . S
O575 C579 1.253 . S
H576 C572 0.931 . S
H577 C573 0.930 . S
O578 Co567 2.039 . S
O578 C568 1.265 . S
C579 O575 1.253 . S
C579 O580 1.227 . S
O580 C579 1.227 . S
N581 Co567 2.140 . S
N581 C584 1.346 . S
N581 C585 1.345 . S
C582 C583 1.387 . S
C582 C586 1.391 . S
C583 C582 1.387 . S
C583 C584 1.369 . S
C583 H592 0.929 . S
C584 N581 1.346 . S
C584 C583 1.369 . S
C584 H587 0.928 . S
C585 N581 1.345 . S
C585 C586 1.371 . S
C585 H588 0.931 . S
C586 C582 1.391 . S
C586 C585 1.371 . S
C586 H593 0.930 . S
H587 C584 0.928 . S
H588 C585 0.931 . S
H589 C565 0.930 . S
H590 C562 0.930 . S
H591 C571 0.930 . S
H592 C583 0.929 . S
H593 C586 0.930 . S
H594 C602 0.950 . S
H595 C607 0.950 . S
H596 C604 0.950 . S
H597 C606 0.950 . S
H598 C608 0.950 . S
H599 C610 0.950 . S
H600 C612 0.950 . S
H601 C613 0.950 . S
C602 H594 0.950 . S
C602 C603 1.386 . S
C602 C604 1.391 . S
C603 C602 1.386 . S
C603 C607 1.393 . S
C604 H596 0.950 . S
C604 C602 1.391 . S
C604 C605 1.400 . S
C605 C604 1.400 . S
C605 C606 1.398 . S
C605 C611 1.491 . S
C606 H597 0.950 . S
C606 C605 1.398 . S
C606 C607 1.391 . S
C607 H595 0.950 . S
C607 C603 1.393 . S
C607 C606 1.391 . S
C608 H598 0.950 . S
C608 C609 1.386 . S
C608 C610 1.391 . S
C609 C608 1.386 . S
C609 C613 1.393 . S
C610 H599 0.950 . S
C610 C608 1.391 . S
C610 C611 1.400 . S
C611 C605 1.491 . S
C611 C610 1.400 . S
C611 C612 1.398 . S
C612 H600 0.950 . S
C612 C611 1.398 . S
C612 C613 1.391 . S
C613 H601 0.950 . S
C613 C609 1.393 . S
C613 C612 1.391 . S
H614 C622 0.950 . S
H615 C627 0.950 . S
H616 C624 0.950 . S
H617 C626 0.950 . S
H618 C628 0.950 . S
H619 C630 0.950 . S
H620 C632 0.950 . S
H621 C633 0.950 . S
C622 H614 0.950 . S
C622 C623 1.386 . S
C622 C624 1.391 . S
C623 C622 1.386 . S
C623 C627 1.393 . S
C624 H616 0.950 . S
C624 C622 1.391 . S
C624 C625 1.400 . S
C625 C624 1.400 . S
C625 C626 1.398 . S
C625 C631 1.491 . S
C626 H617 0.950 . S
C626 C625 1.398 . S
C626 C627 1.391 . S
C627 H615 0.950 . S
C627 C623 1.393 . S
C627 C626 1.391 . S
C628 H618 0.950 . S
C628 C629 1.386 . S
C628 C630 1.391 . S
C629 C628 1.386 . S
C629 C633 1.393 . S
C630 H619 0.950 . S
C630 C628 1.391 . S
C630 C631 1.400 . S
C631 C625 1.491 . S
C631 C630 1.400 . S
C631 C632 1.398 . S
C632 H620 0.950 . S
C632 C631 1.398 . S
C632 C633 1.391 . S
C633 H621 0.950 . S
C633 C629 1.393 . S
C633 C632 1.391 . S
H634 C642 0.950 . S
H635 C647 0.950 . S
H636 C644 0.950 . S
H637 C646 0.950 . S
H638 C648 0.950 . S
H639 C650 0.950 . S
H640 C652 0.950 . S
H641 C653 0.950 . S
C642 H634 0.950 . S
C642 C643 1.386 . S
C642 C644 1.391 . S
C643 C642 1.386 . S
C643 C647 1.393 . S
C644 H636 0.950 . S
C644 C642 1.391 . S
C644 C645 1.400 . S
C645 C644 1.400 . S
C645 C646 1.398 . S
C645 C651 1.491 . S
C646 H637 0.950 . S
C646 C645 1.398 . S
C646 C647 1.391 . S
C647 H635 0.950 . S
C647 C643 1.393 . S
C647 C646 1.391 . S
C648 H638 0.950 . S
C648 C649 1.386 . S
C648 C650 1.391 . S
C649 C648 1.386 . S
C649 C653 1.393 . S
C650 H639 0.950 . S
C650 C648 1.391 . S
C650 C651 1.400 . S
C651 C645 1.491 . S
C651 C650 1.400 . S
C651 C652 1.398 . S
C652 H640 0.950 . S
C652 C651 1.398 . S
C652 C653 1.391 . S
C653 H641 0.950 . S
C653 C649 1.393 . S
C653 C652 1.391 . S
H654 C662 0.950 . S
H655 C667 0.950 . S
H656 C664 0.950 . S
H657 C666 0.950 . S
H658 C668 0.950 . S
H659 C670 0.950 . S
H660 C672 0.950 . S
H661 C673 0.950 . S
C662 H654 0.950 . S
C662 C663 1.386 . S
C662 C664 1.391 . S
C663 C662 1.386 . S
C663 C667 1.393 . S
C664 H656 0.950 . S
C664 C662 1.391 . S
C664 C665 1.400 . S
C665 C664 1.400 . S
C665 C666 1.398 . S
C665 C671 1.491 . S
C666 H657 0.950 . S
C666 C665 1.398 . S
C666 C667 1.391 . S
C667 H655 0.950 . S
C667 C663 1.393 . S
C667 C666 1.391 . S
C668 H658 0.950 . S
C668 C669 1.386 . S
C668 C670 1.391 . S
C669 C668 1.386 . S
C669 C673 1.393 . S
C670 H659 0.950 . S
C670 C668 1.391 . S
C670 C671 1.400 . S
C671 C665 1.491 . S
C671 C670 1.400 . S
C671 C672 1.398 . S
C672 H660 0.950 . S
C672 C671 1.398 . S
C672 C673 1.391 . S
C673 H661 0.950 . S
C673 C669 1.393 . S
C673 C672 1.391 . S
H674 C682 0.950 . S
H675 C687 0.950 . S
H676 C684 0.950 . S
H677 C686 0.950 . S
H678 C688 0.950 . S
H679 C690 0.950 . S
H680 C692 0.950 . S
H681 C693 0.950 . S
C682 H674 0.950 . S
C682 C683 1.386 . S
C682 C684 1.391 . S
C683 C682 1.386 . S
C683 C687 1.393 . S
C684 H676 0.950 . S
C684 C682 1.391 . S
C684 C685 1.400 . S
C685 C684 1.400 . S
C685 C686 1.398 . S
C685 C691 1.491 . S
C686 H677 0.950 . S
C686 C685 1.398 . S
C686 C687 1.391 . S
C687 H675 0.950 . S
C687 C683 1.393 . S
C687 C686 1.391 . S
C688 H678 0.950 . S
C688 C689 1.386 . S
C688 C690 1.391 . S
C689 C688 1.386 . S
C689 C693 1.393 . S
C690 H679 0.950 . S
C690 C688 1.391 . S
C690 C691 1.400 . S
C691 C685 1.491 . S
C691 C690 1.400 . S
C691 C692 1.398 . S
C692 H680 0.950 . S
C692 C691 1.398 . S
C692 C693 1.391 . S
C693 H681 0.950 . S
C693 C689 1.393 . S
C693 C692 1.391 . S
H694 C702 0.950 . S
H695 C707 0.950 . S
H696 C704 0.950 . S
H697 C706 0.950 . S
H698 C708 0.950 . S
H699 C710 0.950 . S
H700 C712 0.950 . S
H701 C713 0.950 . S
C702 H694 0.950 . S
C702 C703 1.386 . S
C702 C704 1.391 . S
C703 C702 1.386 . S
C703 C707 1.393 . S
C704 H696 0.950 . S
C704 C702 1.391 . S
C704 C705 1.400 . S
C705 C704 1.400 . S
C705 C706 1.398 . S
C705 C711 1.491 . S
C706 H697 0.950 . S
C706 C705 1.398 . S
C706 C707 1.391 . S
C707 H695 0.950 . S
C707 C703 1.393 . S
C707 C706 1.391 . S
C708 H698 0.950 . S
C708 C709 1.386 . S
C708 C710 1.391 . S
C709 C708 1.386 . S
C709 C713 1.393 . S
C710 H699 0.950 . S
C710 C708 1.391 . S
C710 C711 1.400 . S
C711 C705 1.491 . S
C711 C710 1.400 . S
C711 C712 1.398 . S
C712 H700 0.950 . S
C712 C711 1.398 . S
C712 C713 1.391 . S
C713 H701 0.950 . S
C713 C709 1.393 . S
C713 C712 1.391 . S
H714 C722 0.950 . S
H715 C727 0.950 . S
H716 C724 0.950 . S
H717 C726 0.950 . S
H718 C728 0.950 . S
H719 C730 0.950 . S
H720 C732 0.950 . S
H721 C733 0.950 . S
C722 H714 0.950 . S
C722 C723 1.386 . S
C722 C724 1.391 . S
C723 C722 1.386 . S
C723 C727 1.393 . S
C724 H716 0.950 . S
C724 C722 1.391 . S
C724 C725 1.400 . S
C725 C724 1.400 . S
C725 C726 1.398 . S
C725 C731 1.491 . S
C726 H717 0.950 . S
C726 C725 1.398 . S
C726 C727 1.391 . S
C727 H715 0.950 . S
C727 C723 1.393 . S
C727 C726 1.391 . S
C728 H718 0.950 . S
C728 C729 1.386 . S
C728 C730 1.391 . S
C729 C728 1.386 . S
C729 C733 1.393 . S
C730 H719 0.950 . S
C730 C728 1.391 . S
C730 C731 1.400 . S
C731 C725 1.491 . S
C731 C730 1.400 . S
C731 C732 1.398 . S
C732 H720 0.950 . S
C732 C731 1.398 . S
C732 C733 1.391 . S
C733 H721 0.950 . S
C733 C729 1.393 . S
C733 C732 1.391 . S
H734 C742 0.950 . S
H735 C747 0.950 . S
H736 C744 0.950 . S
H737 C746 0.950 1_545 S
H738 C748 0.950 . S
H739 C750 0.950 . S
H740 C752 0.950 1_565 S
H741 C753 0.950 . S
C742 H734 0.950 . S
C742 C743 1.386 . S
C742 C744 1.391 . S
C743 C742 1.386 . S
C743 C747 1.393 . S
C744 H736 0.950 . S
C744 C742 1.391 . S
C744 C745 1.400 . S
C745 C744 1.400 . S
C745 C746 1.398 . S
C745 C751 1.491 1_565 S
C746 H737 0.950 1_565 S
C746 C745 1.398 . S
C746 C747 1.391 . S
C747 H735 0.950 . S
C747 C743 1.393 . S
C747 C746 1.391 . S
C748 H738 0.950 . S
C748 C749 1.386 . S
C748 C750 1.391 . S
C749 C748 1.386 . S
C749 C753 1.393 . S
C750 H739 0.950 . S
C750 C748 1.391 . S
C750 C751 1.400 . S
C751 C745 1.491 1_545 S
C751 C750 1.400 . S
C751 C752 1.398 . S
C752 H740 0.950 1_545 S
C752 C751 1.398 . S
C752 C753 1.391 . S
C753 H741 0.950 . S
C753 C749 1.393 . S
C753 C752 1.391 . S
H754 C762 0.950 . S
H755 C767 0.950 . S
H756 C764 0.950 . S
H757 C766 0.950 1_655 S
H758 C768 0.950 . S
H759 C770 0.950 . S
H760 C772 0.950 1_455 S
H761 C773 0.950 . S
C762 H754 0.950 . S
C762 C763 1.386 . S
C762 C764 1.391 . S
C763 C762 1.386 . S
C763 C767 1.393 . S
C764 H756 0.950 . S
C764 C762 1.391 . S
C764 C765 1.400 . S
C765 C764 1.400 . S
C765 C766 1.398 . S
C765 C771 1.491 1_455 S
C766 H757 0.950 1_455 S
C766 C765 1.398 . S
C766 C767 1.391 . S
C767 H755 0.950 . S
C767 C763 1.393 . S
C767 C766 1.391 . S
C768 H758 0.950 . S
C768 C769 1.386 . S
C768 C770 1.391 . S
C769 C768 1.386 . S
C769 C773 1.393 . S
C770 H759 0.950 . S
C770 C768 1.391 . S
C770 C771 1.400 . S
C771 C765 1.491 1_655 S
C771 C770 1.400 . S
C771 C772 1.398 . S
C772 H760 0.950 1_655 S
C772 C771 1.398 . S
C772 C773 1.391 . S
C773 H761 0.950 . S
C773 C769 1.393 . S
C773 C772 1.391 . S
H774 C782 0.950 . S
H775 C787 0.950 . S
H776 C784 0.950 . S
H777 C786 0.950 . S
H778 C788 0.950 . S
H779 C790 0.950 . S
H780 C792 0.950 . S
H781 C793 0.950 . S
C782 H774 0.950 . S
C782 C783 1.386 . S
C782 C784 1.391 . S
C783 C782 1.386 . S
C783 C787 1.393 . S
C784 H776 0.950 . S
C784 C782 1.391 . S
C784 C785 1.400 . S
C785 C784 1.400 . S
C785 C786 1.398 . S
C785 C791 1.491 . S
C786 H777 0.950 . S
C786 C785 1.398 . S
C786 C787 1.391 . S
C787 H775 0.950 . S
C787 C783 1.393 . S
C787 C786 1.391 . S
C788 H778 0.950 . S
C788 C789 1.386 . S
C788 C790 1.391 . S
C789 C788 1.386 . S
C789 C793 1.393 . S
C790 H779 0.950 . S
C790 C788 1.391 . S
C790 C791 1.400 . S
C791 C785 1.491 . S
C791 C790 1.400 . S
C791 C792 1.398 . S
C792 H780 0.950 . S
C792 C791 1.398 . S
C792 C793 1.391 . S
C793 H781 0.950 . S
C793 C789 1.393 . S
C793 C792 1.391 . S
H794 C802 0.950 . S
H795 C807 0.950 . S
H796 C804 0.950 . S
H797 C806 0.950 . S
H798 C808 0.950 . S
H799 C810 0.950 . S
H800 C812 0.950 . S
H801 C813 0.950 . S
C802 H794 0.950 . S
C802 C803 1.386 . S
C802 C804 1.391 . S
C803 C802 1.386 . S
C803 C807 1.393 . S
C804 H796 0.950 . S
C804 C802 1.391 . S
C804 C805 1.400 . S
C805 C804 1.400 . S
C805 C806 1.398 . S
C805 C811 1.491 . S
C806 H797 0.950 . S
C806 C805 1.398 . S
C806 C807 1.391 . S
C807 H795 0.950 . S
C807 C803 1.393 . S
C807 C806 1.391 . S
C808 H798 0.950 . S
C808 C809 1.386 . S
C808 C810 1.391 . S
C809 C808 1.386 . S
C809 C813 1.393 . S
C810 H799 0.950 . S
C810 C808 1.391 . S
C810 C811 1.400 . S
C811 C805 1.491 . S
C811 C810 1.400 . S
C811 C812 1.398 . S
C812 H800 0.950 . S
C812 C811 1.398 . S
C812 C813 1.391 . S
C813 H801 0.950 . S
C813 C809 1.393 . S
C813 C812 1.391 . S
H814 C822 0.950 . S
H815 C827 0.950 . S
H816 C824 0.950 . S
H817 C826 0.950 . S
H818 C828 0.950 . S
H819 C830 0.950 . S
H820 C832 0.950 . S
H821 C833 0.950 . S
C822 H814 0.950 . S
C822 C823 1.386 . S
C822 C824 1.391 . S
C823 C822 1.386 . S
C823 C827 1.393 . S
C824 H816 0.950 . S
C824 C822 1.391 . S
C824 C825 1.400 . S
C825 C824 1.400 . S
C825 C826 1.398 . S
C825 C831 1.491 . S
C826 H817 0.950 . S
C826 C825 1.398 . S
C826 C827 1.391 . S
C827 H815 0.950 . S
C827 C823 1.393 . S
C827 C826 1.391 . S
C828 H818 0.950 . S
C828 C829 1.386 . S
C828 C830 1.391 . S
C829 C828 1.386 . S
C829 C833 1.393 . S
C830 H819 0.950 . S
C830 C828 1.391 . S
C830 C831 1.400 . S
C831 C825 1.491 . S
C831 C830 1.400 . S
C831 C832 1.398 . S
C832 H820 0.950 . S
C832 C831 1.398 . S
C832 C833 1.391 . S
C833 H821 0.950 . S
C833 C829 1.393 . S
C833 C832 1.391 . S
H834 C842 0.950 . S
H835 C847 0.950 . S
H836 C844 0.950 . S
H837 C846 0.950 . S
H838 C848 0.950 . S
H839 C850 0.950 . S
H840 C852 0.950 . S
H841 C853 0.950 . S
C842 H834 0.950 . S
C842 C843 1.386 . S
C842 C844 1.391 . S
C843 C842 1.386 . S
C843 C847 1.393 . S
C844 H836 0.950 . S
C844 C842 1.391 . S
C844 C845 1.400 . S
C845 C844 1.400 . S
C845 C846 1.398 . S
C845 C851 1.491 . S
C846 H837 0.950 . S
C846 C845 1.398 . S
C846 C847 1.391 . S
C847 H835 0.950 . S
C847 C843 1.393 . S
C847 C846 1.391 . S
C848 H838 0.950 . S
C848 C849 1.386 . S
C848 C850 1.391 . S
C849 C848 1.386 . S
C849 C853 1.393 . S
C850 H839 0.950 . S
C850 C848 1.391 . S
C850 C851 1.400 . S
C851 C845 1.491 . S
C851 C850 1.400 . S
C851 C852 1.398 . S
C852 H840 0.950 . S
C852 C851 1.398 . S
C852 C853 1.391 . S
C853 H841 0.950 . S
C853 C849 1.393 . S
C853 C852 1.391 . S
H854 C862 0.950 . S
H855 C867 0.950 . S
H856 C864 0.950 . S
H857 C866 0.950 . S
H858 C868 0.950 . S
H859 C870 0.950 . S
H860 C872 0.950 . S
H861 C873 0.950 . S
C862 H854 0.950 . S
C862 C863 1.386 . S
C862 C864 1.391 . S
C863 C862 1.386 . S
C863 C867 1.393 . S
C864 H856 0.950 . S
C864 C862 1.391 . S
C864 C865 1.400 . S
C865 C864 1.400 . S
C865 C866 1.398 . S
C865 C871 1.491 . S
C866 H857 0.950 . S
C866 C865 1.398 . S
C866 C867 1.391 . S
C867 H855 0.950 . S
C867 C863 1.393 . S
C867 C866 1.391 . S
C868 H858 0.950 . S
C868 C869 1.386 . S
C868 C870 1.391 . S
C869 C868 1.386 . S
C869 C873 1.393 . S
C870 H859 0.950 . S
C870 C868 1.391 . S
C870 C871 1.400 . S
C871 C865 1.491 . S
C871 C870 1.400 . S
C871 C872 1.398 . S
C872 H860 0.950 . S
C872 C871 1.398 . S
C872 C873 1.391 . S
C873 H861 0.950 . S
C873 C869 1.393 . S
C873 C872 1.391 . S
H874 C882 0.950 . S
H875 C887 0.950 . S
H876 C884 0.950 . S
H877 C886 0.950 . S
H878 C888 0.950 . S
H879 C890 0.950 . S
H880 C892 0.950 . S
H881 C893 0.950 . S
C882 H874 0.950 . S
C882 C883 1.386 . S
C882 C884 1.391 . S
C883 C882 1.386 . S
C883 C887 1.393 . S
C884 H876 0.950 . S
C884 C882 1.391 . S
C884 C885 1.400 . S
C885 C884 1.400 . S
C885 C886 1.398 . S
C885 C891 1.491 . S
C886 H877 0.950 . S
C886 C885 1.398 . S
C886 C887 1.391 . S
C887 H875 0.950 . S
C887 C883 1.393 . S
C887 C886 1.391 . S
C888 H878 0.950 . S
C888 C889 1.386 . S
C888 C890 1.391 . S
C889 C888 1.386 . S
C889 C893 1.393 . S
C890 H879 0.950 . S
C890 C888 1.391 . S
C890 C891 1.400 . S
C891 C885 1.491 . S
C891 C890 1.400 . S
C891 C892 1.398 . S
C892 H880 0.950 . S
C892 C891 1.398 . S
C892 C893 1.391 . S
C893 H881 0.950 . S
C893 C889 1.393 . S
C893 C892 1.391 . S
H894 C902 0.950 . S
H895 C907 0.950 . S
H896 C904 0.950 1_455 S
H897 C906 0.950 . S
H898 C908 0.950 . S
H899 C910 0.950 1_655 S
H900 C912 0.950 . S
H901 C913 0.950 . S
C902 H894 0.950 . S
C902 C903 1.386 . S
C902 C904 1.391 . S
C903 C902 1.386 . S
C903 C907 1.393 . S
C904 H896 0.950 1_655 S
C904 C902 1.391 . S
C904 C905 1.400 . S
C905 C904 1.400 . S
C905 C906 1.398 1_554 S
C905 C911 1.491 1_654 S
C906 H897 0.950 . S
C906 C905 1.398 1_556 S
C906 C907 1.391 1_556 S
C907 H895 0.950 . S
C907 C903 1.393 . S
C907 C906 1.391 1_554 S
C908 H898 0.950 . S
C908 C909 1.386 . S
C908 C910 1.391 . S
C909 C908 1.386 . S
C909 C913 1.393 . S
C910 H899 0.950 1_455 S
C910 C908 1.391 . S
C910 C911 1.400 . S
C911 C905 1.491 1_456 S
C911 C910 1.400 . S
C911 C912 1.398 1_556 S
C912 H900 0.950 . S
C912 C911 1.398 1_554 S
C912 C913 1.391 1_554 S
C913 H901 0.950 . S
C913 C909 1.393 . S
C913 C912 1.391 1_556 S
H914 C922 0.950 . S
H915 C927 0.950 . S
H916 C924 0.950 . S
H917 C926 0.960 . S
H918 C928 0.950 . S
H919 C930 0.950 . S
H920 C932 0.960 . S
H921 C933 0.950 . S
C922 H914 0.950 . S
C922 C923 1.386 . S
C922 C924 1.391 . S
C923 C922 1.386 . S
C923 C927 1.393 . S
C924 H916 0.950 . S
C924 C922 1.391 . S
C924 C925 1.400 . S
C925 C924 1.400 . S
C925 C926 1.398 . S
C925 C931 1.491 1_556 S
C926 H917 0.960 . S
C926 C925 1.398 . S
C926 C927 1.391 . S
C927 H915 0.950 . S
C927 C923 1.393 . S
C927 C926 1.391 . S
C928 H918 0.950 . S
C928 C929 1.386 . S
C928 C930 1.391 . S
C929 C928 1.386 . S
C929 C933 1.393 . S
C930 H919 0.950 . S
C930 C928 1.391 . S
C930 C931 1.400 . S
C931 C925 1.491 1_554 S
C931 C930 1.400 . S
C931 C932 1.398 . S
C932 H920 0.960 . S
C932 C931 1.398 . S
C932 C933 1.391 . S
C933 H921 0.950 . S
C933 C929 1.393 . S
C933 C932 1.391 . S
H934 C942 0.950 . S
H935 C947 0.950 . S
H936 C944 0.973 . S
H937 C946 0.950 1_556 S
H938 C948 0.950 . S
H939 C950 0.973 . S
H940 C952 0.950 1_554 S
H941 C953 0.950 . S
C942 H934 0.950 . S
C942 C943 1.386 . S
C942 C944 1.391 . S
C943 C942 1.386 . S
C943 C947 1.393 . S
C944 H936 0.973 . S
C944 C942 1.391 . S
C944 C945 1.400 . S
C945 C944 1.400 . S
C945 C946 1.398 . S
C945 C951 1.491 1_544 S
C946 H937 0.950 1_554 S
C946 C945 1.398 . S
C946 C947 1.391 . S
C947 H935 0.950 . S
C947 C943 1.393 . S
C947 C946 1.391 . S
C948 H938 0.950 . S
C948 C949 1.386 . S
C948 C950 1.391 . S
C949 C948 1.386 . S
C949 C953 1.393 . S
C950 H939 0.973 . S
C950 C948 1.391 . S
C950 C951 1.400 . S
C951 C945 1.491 1_566 S
C951 C950 1.400 . S
C951 C952 1.398 . S
C952 H940 0.950 1_556 S
C952 C951 1.398 . S
C952 C953 1.391 . S
C953 H941 0.950 . S
C953 C949 1.393 . S
C953 C952 1.391 . S
H954 C962 0.950 1_655 S
H955 C967 0.950 . S
H956 C964 0.950 . S
H957 C966 0.938 1_556 S
H958 C968 0.950 1_455 S
H959 C970 0.950 . S
H960 C972 0.938 1_554 S
H961 C973 0.950 . S
C962 H954 0.950 1_455 S
C962 C963 1.386 . S
C962 C964 1.391 1_455 S
C963 C962 1.386 . S
C963 C967 1.393 . S
C964 H956 0.950 . S
C964 C962 1.391 1_655 S
C964 C965 1.400 1_655 S
C965 C964 1.400 1_455 S
C965 C966 1.398 . S
C965 C971 1.491 1_454 S
C966 H957 0.938 1_554 S
C966 C965 1.398 . S
C966 C967 1.391 . S
C967 H955 0.950 . S
C967 C963 1.393 . S
C967 C966 1.391 . S
C968 H958 0.950 1_655 S
C968 C969 1.386 . S
C968 C970 1.391 1_655 S
C969 C968 1.386 . S
C969 C973 1.393 . S
C970 H959 0.950 . S
C970 C968 1.391 1_455 S
C970 C971 1.400 1_455 S
C971 C965 1.491 1_656 S
C971 C970 1.400 1_655 S
C971 C972 1.398 . S
C972 H960 0.938 1_556 S
C972 C971 1.398 . S
C972 C973 1.391 . S
C973 H961 0.950 . S
C973 C969 1.393 . S
C973 C972 1.391 . S
H974 C982 0.950 . S
H975 C987 0.950 . S
H976 C984 0.950 . S
H977 C986 0.950 . S
H978 C988 0.950 . S
H979 C990 0.950 . S
H980 C992 0.950 . S
H981 C993 0.950 . S
C982 H974 0.950 . S
C982 C983 1.386 . S
C982 C984 1.391 . S
C983 C982 1.386 . S
C983 C987 1.393 . S
C984 H976 0.950 . S
C984 C982 1.391 . S
C984 C985 1.400 . S
C985 C984 1.400 . S
C985 C986 1.398 . S
C985 C991 1.491 1_556 S
C986 H977 0.950 . S
C986 C985 1.398 . S
C986 C987 1.391 . S
C987 H975 0.950 . S
C987 C983 1.393 . S
C987 C986 1.391 . S
C988 H978 0.950 . S
C988 C989 1.386 . S
C988 C990 1.391 . S
C989 C988 1.386 . S
C989 C993 1.393 . S
C990 H979 0.950 . S
C990 C988 1.391 . S
C990 C991 1.400 . S
C991 C985 1.491 1_554 S
C991 C990 1.400 . S
C991 C992 1.398 . S
C992 H980 0.950 . S
C992 C991 1.398 . S
C992 C993 1.391 . S
C993 H981 0.950 . S
C993 C989 1.393 . S
C993 C992 1.391 . S
H994 C1002 0.950 . S
H995 C1007 0.950 . S
H996 C1004 0.950 . S
H997 C1006 0.950 1_565 S
H998 C1008 0.950 . S
H999 C1010 0.950 . S
H1000 C1012 0.950 1_545 S
H1001 C1013 0.950 . S
C1002 H994 0.950 . S
C1002 C1003 1.386 . S
C1002 C1004 1.391 . S
C1003 C1002 1.386 . S
C1003 C1007 1.393 . S
C1004 H996 0.950 . S
C1004 C1002 1.391 . S
C1004 C1005 1.400 . S
C1005 C1004 1.400 . S
C1005 C1006 1.398 . S
C1005 C1011 1.491 1_546 S
C1006 H997 0.950 1_545 S
C1006 C1005 1.398 . S
C1006 C1007 1.391 . S
C1007 H995 0.950 . S
C1007 C1003 1.393 . S
C1007 C1006 1.391 . S
C1008 H998 0.950 . S
C1008 C1009 1.386 . S
C1008 C1010 1.391 . S
C1009 C1008 1.386 . S
C1009 C1013 1.393 . S
C1010 H999 0.950 . S
C1010 C1008 1.391 . S
C1010 C1011 1.400 . S
C1011 C1005 1.491 1_564 S
C1011 C1010 1.400 . S
C1011 C1012 1.398 . S
C1012 H1000 0.950 1_565 S
C1012 C1011 1.398 . S
C1012 C1013 1.391 . S
C1013 H1001 0.950 . S
C1013 C1009 1.393 . S
C1013 C1012 1.391 . S
H1014 C1022 0.950 . S
H1015 C1027 0.950 . S
H1016 C1024 0.950 . S
H1017 C1026 0.950 . S
H1018 C1028 0.950 . S
H1019 C1030 0.950 . S
H1020 C1032 0.950 . S
H1021 C1033 0.950 . S
C1022 H1014 0.950 . S
C1022 C1023 1.386 . S
C1022 C1024 1.391 . S
C1023 C1022 1.386 . S
C1023 C1027 1.393 . S
C1024 H1016 0.950 . S
C1024 C1022 1.391 . S
C1024 C1025 1.400 . S
C1025 C1024 1.400 . S
C1025 C1026 1.398 . S
C1025 C1031 1.491 . S
C1026 H1017 0.950 . S
C1026 C1025 1.398 . S
C1026 C1027 1.391 . S
C1027 H1015 0.950 . S
C1027 C1023 1.393 . S
C1027 C1026 1.391 . S
C1028 H1018 0.950 . S
C1028 C1029 1.386 . S
C1028 C1030 1.391 . S
C1029 C1028 1.386 . S
C1029 C1033 1.393 . S
C1030 H1019 0.950 . S
C1030 C1028 1.391 . S
C1030 C1031 1.400 . S
C1031 C1025 1.491 . S
C1031 C1030 1.400 . S
C1031 C1032 1.398 . S
C1032 H1020 0.950 . S
C1032 C1031 1.398 . S
C1032 C1033 1.391 . S
C1033 H1021 0.950 . S
C1033 C1029 1.393 . S
C1033 C1032 1.391 . S
H1034 C1042 0.950 . S
H1035 C1047 0.950 . S
H1036 C1044 0.950 . S
H1037 C1046 0.950 . S
H1038 C1048 0.950 . S
H1039 C1050 0.950 . S
H1040 C1052 0.950 . S
H1041 C1053 0.950 . S
C1042 H1034 0.950 . S
C1042 C1043 1.386 . S
C1042 C1044 1.391 . S
C1043 C1042 1.386 . S
C1043 C1047 1.393 . S
C1044 H1036 0.950 . S
C1044 C1042 1.391 . S
C1044 C1045 1.400 . S
C1045 C1044 1.400 . S
C1045 C1046 1.398 . S
C1045 C1051 1.491 . S
C1046 H1037 0.950 . S
C1046 C1045 1.398 . S
C1046 C1047 1.391 . S
C1047 H1035 0.950 . S
C1047 C1043 1.393 . S
C1047 C1046 1.391 . S
C1048 H1038 0.950 . S
C1048 C1049 1.386 . S
C1048 C1050 1.391 . S
C1049 C1048 1.386 . S
C1049 C1053 1.393 . S
C1050 H1039 0.950 . S
C1050 C1048 1.391 . S
C1050 C1051 1.400 . S
C1051 C1045 1.491 . S
C1051 C1050 1.400 . S
C1051 C1052 1.398 . S
C1052 H1040 0.950 . S
C1052 C1051 1.398 . S
C1052 C1053 1.391 . S
C1053 H1041 0.950 . S
C1053 C1049 1.393 . S
C1053 C1052 1.391 . S
H1054 C1062 0.950 . S
H1055 C1067 0.950 . S
H1056 C1064 0.950 . S
H1057 C1066 0.950 . S
H1058 C1068 0.950 . S
H1059 C1070 0.950 . S
H1060 C1072 0.950 . S
H1061 C1073 0.950 . S
C1062 H1054 0.950 . S
C1062 C1063 1.386 . S
C1062 C1064 1.391 . S
C1063 C1062 1.386 . S
C1063 C1067 1.393 . S
C1064 H1056 0.950 . S
C1064 C1062 1.391 . S
C1064 C1065 1.400 . S
C1065 C1064 1.400 . S
C1065 C1066 1.398 . S
C1065 C1071 1.491 . S
C1066 H1057 0.950 . S
C1066 C1065 1.398 . S
C1066 C1067 1.391 . S
C1067 H1055 0.950 . S
C1067 C1063 1.393 . S
C1067 C1066 1.391 . S
C1068 H1058 0.950 . S
C1068 C1069 1.386 . S
C1068 C1070 1.391 . S
C1069 C1068 1.386 . S
C1069 C1073 1.393 . S
C1070 H1059 0.950 . S
C1070 C1068 1.391 . S
C1070 C1071 1.400 . S
C1071 C1065 1.491 . S
C1071 C1070 1.400 . S
C1071 C1072 1.398 . S
C1072 H1060 0.950 . S
C1072 C1071 1.398 . S
C1072 C1073 1.391 . S
C1073 H1061 0.950 . S
C1073 C1069 1.393 . S
C1073 C1072 1.391 . S
H1074 C1082 0.950 . S
H1075 C1087 0.950 . S
H1076 C1084 0.950 . S
H1077 C1086 0.950 . S
H1078 C1088 0.950 . S
H1079 C1090 0.950 . S
H1080 C1092 0.950 . S
H1081 C1093 0.950 . S
C1082 H1074 0.950 . S
C1082 C1083 1.386 . S
C1082 C1084 1.391 . S
C1083 C1082 1.386 . S
C1083 C1087 1.393 . S
C1084 H1076 0.950 . S
C1084 C1082 1.391 . S
C1084 C1085 1.400 . S
C1085 C1084 1.400 . S
C1085 C1086 1.398 . S
C1085 C1091 1.491 . S
C1086 H1077 0.950 . S
C1086 C1085 1.398 . S
C1086 C1087 1.391 . S
C1087 H1075 0.950 . S
C1087 C1083 1.393 . S
C1087 C1086 1.391 . S
C1088 H1078 0.950 . S
C1088 C1089 1.386 . S
C1088 C1090 1.391 . S
C1089 C1088 1.386 . S
C1089 C1093 1.393 . S
C1090 H1079 0.950 . S
C1090 C1088 1.391 . S
C1090 C1091 1.400 . S
C1091 C1085 1.491 . S
C1091 C1090 1.400 . S
C1091 C1092 1.398 . S
C1092 H1080 0.950 . S
C1092 C1091 1.398 . S
C1092 C1093 1.391 . S
C1093 H1081 0.950 . S
C1093 C1089 1.393 . S
C1093 C1092 1.391 . S
H1094 C1102 0.950 . S
H1095 C1107 0.950 . S
H1096 C1104 0.950 . S
H1097 C1106 0.950 . S
H1098 C1108 0.950 . S
H1099 C1110 0.950 . S
H1100 C1112 0.950 . S
H1101 C1113 0.950 . S
C1102 H1094 0.950 . S
C1102 C1103 1.386 . S
C1102 C1104 1.391 . S
C1103 C1102 1.386 . S
C1103 C1107 1.393 . S
C1104 H1096 0.950 . S
C1104 C1102 1.391 . S
C1104 C1105 1.400 . S
C1105 C1104 1.400 . S
C1105 C1106 1.398 . S
C1105 C1111 1.491 . S
C1106 H1097 0.950 . S
C1106 C1105 1.398 . S
C1106 C1107 1.391 . S
C1107 H1095 0.950 . S
C1107 C1103 1.393 . S
C1107 C1106 1.391 . S
C1108 H1098 0.950 . S
C1108 C1109 1.386 . S
C1108 C1110 1.391 . S
C1109 C1108 1.386 . S
C1109 C1113 1.393 . S
C1110 H1099 0.950 . S
C1110 C1108 1.391 . S
C1110 C1111 1.400 . S
C1111 C1105 1.491 . S
C1111 C1110 1.400 . S
C1111 C1112 1.398 . S
C1112 H1100 0.950 . S
C1112 C1111 1.398 . S
C1112 C1113 1.391 . S
C1113 H1101 0.950 . S
C1113 C1109 1.393 . S
C1113 C1112 1.391 . S
H1114 C1122 0.950 . S
H1115 C1127 0.950 . S
H1116 C1124 0.950 . S
H1117 C1126 0.950 . S
H1118 C1128 0.950 . S
H1119 C1130 0.950 . S
H1120 C1132 0.950 . S
H1121 C1133 0.950 . S
C1122 H1114 0.950 . S
C1122 C1123 1.386 . S
C1122 C1124 1.391 . S
C1123 C1122 1.386 . S
C1123 C1127 1.393 . S
C1124 H1116 0.950 . S
C1124 C1122 1.391 . S
C1124 C1125 1.400 . S
C1125 C1124 1.400 . S
C1125 C1126 1.398 . S
C1125 C1131 1.491 . S
C1126 H1117 0.950 . S
C1126 C1125 1.398 . S
C1126 C1127 1.391 . S
C1127 H1115 0.950 . S
C1127 C1123 1.393 . S
C1127 C1126 1.391 . S
C1128 H1118 0.950 . S
C1128 C1129 1.386 . S
C1128 C1130 1.391 . S
C1129 C1128 1.386 . S
C1129 C1133 1.393 . S
C1130 H1119 0.950 . S
C1130 C1128 1.391 . S
C1130 C1131 1.400 . S
C1131 C1125 1.491 . S
C1131 C1130 1.400 . S
C1131 C1132 1.398 . S
C1132 H1120 0.950 . S
C1132 C1131 1.398 . S
C1132 C1133 1.391 . S
C1133 H1121 0.950 . S
C1133 C1129 1.393 . S
C1133 C1132 1.391 . S
H1134 C1142 0.950 . S
H1135 C1147 0.950 . S
H1136 C1144 0.950 . S
H1137 C1146 0.950 . S
H1138 C1148 0.950 . S
H1139 C1150 0.950 . S
H1140 C1152 0.950 . S
H1141 C1153 0.950 . S
C1142 H1134 0.950 . S
C1142 C1143 1.386 . S
C1142 C1144 1.391 . S
C1143 C1142 1.386 . S
C1143 C1147 1.393 . S
C1144 H1136 0.950 . S
C1144 C1142 1.391 . S
C1144 C1145 1.400 . S
C1145 C1144 1.400 . S
C1145 C1146 1.398 . S
C1145 C1151 1.491 . S
C1146 H1137 0.950 . S
C1146 C1145 1.398 . S
C1146 C1147 1.391 . S
C1147 H1135 0.950 . S
C1147 C1143 1.393 . S
C1147 C1146 1.391 . S
C1148 H1138 0.950 . S
C1148 C1149 1.386 . S
C1148 C1150 1.391 . S
C1149 C1148 1.386 . S
C1149 C1153 1.393 . S
C1150 H1139 0.950 . S
C1150 C1148 1.391 . S
C1150 C1151 1.400 . S
C1151 C1145 1.491 . S
C1151 C1150 1.400 . S
C1151 C1152 1.398 . S
C1152 H1140 0.950 . S
C1152 C1151 1.398 . S
C1152 C1153 1.391 . S
C1153 H1141 0.950 . S
C1153 C1149 1.393 . S
C1153 C1152 1.391 . S
H1154 C1162 0.950 . S
H1155 C1167 0.950 . S
H1156 C1164 0.950 . S
H1157 C1166 0.950 . S
H1158 C1168 0.950 . S
H1159 C1170 0.962 . S
H1160 C1172 0.950 1_545 S
H1161 C1173 0.950 . S
C1162 H1154 0.950 . S
C1162 C1163 1.386 . S
C1162 C1164 1.391 . S
C1163 C1162 1.386 . S
C1163 C1167 1.393 . S
C1164 H1156 0.950 . S
C1164 C1162 1.391 . S
C1164 C1165 1.400 . S
C1165 C1164 1.400 . S
C1165 C1166 1.398 . S
C1165 C1171 1.491 . S
C1166 H1157 0.950 . S
C1166 C1165 1.398 . S
C1166 C1167 1.391 . S
C1167 H1155 0.950 . S
C1167 C1163 1.393 . S
C1167 C1166 1.391 . S
C1168 H1158 0.950 . S
C1168 C1169 1.386 . S
C1168 C1170 1.380 1_565 S
C1169 C1168 1.386 . S
C1169 C1173 1.393 . S
C1170 H1159 0.962 . S
C1170 C1168 1.380 1_545 S
C1170 C1171 1.399 . S
C1171 C1165 1.491 . S
C1171 C1170 1.399 . S
C1171 C1172 1.398 1_545 S
C1172 H1160 0.950 1_565 S
C1172 C1171 1.398 1_565 S
C1172 C1173 1.391 . S
C1173 H1161 0.950 . S
C1173 C1169 1.393 . S
C1173 C1172 1.391 . S
H1174 C1182 0.950 . S
H1175 C1187 0.950 . S
H1176 C1184 0.950 . S
H1177 C1186 0.950 . S
H1178 C1188 0.950 . S
H1179 C1190 0.950 1_655 S
H1180 C1192 0.950 1_655 S
H1181 C1193 0.950 . S
C1182 H1174 0.950 . S
C1182 C1183 1.386 . S
C1182 C1184 1.391 . S
C1183 C1182 1.386 . S
C1183 C1187 1.393 . S
C1184 H1176 0.950 . S
C1184 C1182 1.391 . S
C1184 C1185 1.400 . S
C1185 C1184 1.400 . S
C1185 C1186 1.398 . S
C1185 C1191 1.491 . S
C1186 H1177 0.950 . S
C1186 C1185 1.398 . S
C1186 C1187 1.391 . S
C1187 H1175 0.950 . S
C1187 C1183 1.393 . S
C1187 C1186 1.391 . S
C1188 H1178 0.950 . S
C1188 C1189 1.386 . S
C1188 C1190 1.391 . S
C1189 C1188 1.386 . S
C1189 C1193 1.393 . S
C1190 H1179 0.950 1_455 S
C1190 C1188 1.391 . S
C1190 C1191 1.400 1_455 S
C1191 C1185 1.491 . S
C1191 C1190 1.400 1_655 S
C1191 C1192 1.398 1_655 S
C1192 H1180 0.950 1_455 S
C1192 C1191 1.398 1_455 S
C1192 C1193 1.391 . S
C1193 H1181 0.950 . S
C1193 C1189 1.393 . S
C1193 C1192 1.391 . S
H1194 C1202 0.950 . S
H1195 C1207 0.950 . S
H1196 C1204 0.950 . S
H1197 C1206 0.950 . S
H1198 C1208 0.950 . S
H1199 C1210 0.950 . S
H1200 C1212 0.950 . S
H1201 C1213 0.950 . S
C1202 H1194 0.950 . S
C1202 C1203 1.386 . S
C1202 C1204 1.391 . S
C1203 C1202 1.386 . S
C1203 C1207 1.393 . S
C1204 H1196 0.950 . S
C1204 C1202 1.391 . S
C1204 C1205 1.400 . S
C1205 C1204 1.400 . S
C1205 C1206 1.398 . S
C1205 C1211 1.491 . S
C1206 H1197 0.950 . S
C1206 C1205 1.398 . S
C1206 C1207 1.391 . S
C1207 H1195 0.950 . S
C1207 C1203 1.393 . S
C1207 C1206 1.391 . S
C1208 H1198 0.950 . S
C1208 C1209 1.386 . S
C1208 C1210 1.391 . S
C1209 C1208 1.386 . S
C1209 C1213 1.393 . S
C1210 H1199 0.950 . S
C1210 C1208 1.391 . S
C1210 C1211 1.400 . S
C1211 C1205 1.491 . S
C1211 C1210 1.400 . S
C1211 C1212 1.398 . S
C1212 H1200 0.950 . S
C1212 C1211 1.398 . S
C1212 C1213 1.391 . S
C1213 H1201 0.950 . S
C1213 C1209 1.393 . S
C1213 C1212 1.391 . S
H1214 C1222 0.950 . S
H1215 C1227 0.950 . S
H1216 C1224 0.950 1_565 S
H1217 C1226 0.950 1_565 S
H1218 C1228 0.950 . S
H1219 C1230 0.950 . S
H1220 C1232 0.950 . S
H1221 C1233 0.950 . S
C1222 H1214 0.950 . S
C1222 C1223 1.386 . S
C1222 C1224 1.391 . S
C1223 C1222 1.386 . S
C1223 C1227 1.393 . S
C1224 H1216 0.950 1_545 S
C1224 C1222 1.391 . S
C1224 C1225 1.400 1_545 S
C1225 C1224 1.400 1_565 S
C1225 C1226 1.398 1_565 S
C1225 C1231 1.491 . S
C1226 H1217 0.950 1_545 S
C1226 C1225 1.398 1_545 S
C1226 C1227 1.391 . S
C1227 H1215 0.950 . S
C1227 C1223 1.393 . S
C1227 C1226 1.391 . S
C1228 H1218 0.950 . S
C1228 C1229 1.386 . S
C1228 C1230 1.391 . S
C1229 C1228 1.386 . S
C1229 C1233 1.393 . S
C1230 H1219 0.950 . S
C1230 C1228 1.391 . S
C1230 C1231 1.400 . S
C1231 C1225 1.491 . S
C1231 C1230 1.400 . S
C1231 C1232 1.398 . S
C1232 H1220 0.950 . S
C1232 C1231 1.398 . S
C1232 C1233 1.391 . S
C1233 H1221 0.950 . S
C1233 C1229 1.393 . S
C1233 C1232 1.391 . S
H1234 C1242 0.950 . S
H1235 C1247 0.950 . S
H1236 C1244 0.950 . S
H1237 C1246 0.950 . S
H1238 C1248 0.950 . S
H1239 C1250 0.923 1_455 S
H1240 C1252 0.950 1_455 S
H1241 C1253 0.950 . S
C1242 H1234 0.950 . S
C1242 C1243 1.386 . S
C1242 C1244 1.391 . S
C1243 C1242 1.386 . S
C1243 C1247 1.393 . S
C1244 H1236 0.950 . S
C1244 C1242 1.391 . S
C1244 C1245 1.400 . S
C1245 C1244 1.400 . S
C1245 C1246 1.398 . S
C1245 C1251 1.491 . S
C1246 H1237 0.950 . S
C1246 C1245 1.398 . S
C1246 C1247 1.391 . S
C1247 H1235 0.950 . S
C1247 C1243 1.393 . S
C1247 C1246 1.391 . S
C1248 H1238 0.950 . S
C1248 C1249 1.386 . S
C1248 C1250 1.419 . S
C1249 C1248 1.386 . S
C1249 C1253 1.393 . S
C1250 H1239 0.923 1_655 S
C1250 C1248 1.419 . S
C1250 C1251 1.400 1_655 S
C1251 C1245 1.491 . S
C1251 C1250 1.400 1_455 S
C1251 C1252 1.398 1_455 S
C1252 H1240 0.950 1_655 S
C1252 C1251 1.398 1_655 S
C1252 C1253 1.391 . S
C1253 H1241 0.950 . S
C1253 C1249 1.393 . S
C1253 C1252 1.391 . S
H1254 C1262 0.950 . S
H1255 C1267 0.950 . S
H1256 C1264 0.950 . S
H1257 C1266 0.950 . S
H1258 C1268 0.950 . S
H1259 C1270 0.950 . S
H1260 C1272 0.950 . S
H1261 C1273 0.950 . S
C1262 H1254 0.950 . S
C1262 C1263 1.386 . S
C1262 C1264 1.391 . S
C1263 C1262 1.386 . S
C1263 C1267 1.393 . S
C1264 H1256 0.950 . S
C1264 C1262 1.391 . S
C1264 C1265 1.400 . S
C1265 C1264 1.400 . S
C1265 C1266 1.398 . S
C1265 C1271 1.491 . S
C1266 H1257 0.950 . S
C1266 C1265 1.398 . S
C1266 C1267 1.391 . S
C1267 H1255 0.950 . S
C1267 C1263 1.393 . S
C1267 C1266 1.391 . S
C1268 H1258 0.950 . S
C1268 C1269 1.386 . S
C1268 C1270 1.391 . S
C1269 C1268 1.386 . S
C1269 C1273 1.393 . S
C1270 H1259 0.950 . S
C1270 C1268 1.391 . S
C1270 C1271 1.400 . S
C1271 C1265 1.491 . S
C1271 C1270 1.400 . S
C1271 C1272 1.398 . S
C1272 H1260 0.950 . S
C1272 C1271 1.398 . S
C1272 C1273 1.391 . S
C1273 H1261 0.950 . S
C1273 C1269 1.393 . S
C1273 C1272 1.391 . S
H1274 C1282 0.950 . S
H1275 C1287 0.950 . S
H1276 C1284 0.950 . S
H1277 C1286 0.950 . S
H1278 C1288 0.950 . S
H1279 C1290 0.950 . S
H1280 C1292 0.950 . S
H1281 C1293 0.950 . S
C1282 H1274 0.950 . S
C1282 C1283 1.386 . S
C1282 C1284 1.391 . S
C1283 C1282 1.386 . S
C1283 C1287 1.393 . S
C1284 H1276 0.950 . S
C1284 C1282 1.391 . S
C1284 C1285 1.400 . S
C1285 C1284 1.400 . S
C1285 C1286 1.398 . S
C1285 C1291 1.491 . S
C1286 H1277 0.950 . S
C1286 C1285 1.398 . S
C1286 C1287 1.391 . S
C1287 H1275 0.950 . S
C1287 C1283 1.393 . S
C1287 C1286 1.391 . S
C1288 H1278 0.950 . S
C1288 C1289 1.386 . S
C1288 C1290 1.391 . S
C1289 C1288 1.386 . S
C1289 C1293 1.393 . S
C1290 H1279 0.950 . S
C1290 C1288 1.391 . S
C1290 C1291 1.400 . S
C1291 C1285 1.491 . S
C1291 C1290 1.400 . S
C1291 C1292 1.398 . S
C1292 H1280 0.950 . S
C1292 C1291 1.398 . S
C1292 C1293 1.391 . S
C1293 H1281 0.950 . S
C1293 C1289 1.393 . S
C1293 C1292 1.391 . S
H1294 C1302 0.950 . S
H1295 C1307 0.950 . S
H1296 C1304 0.950 . S
H1297 C1306 0.950 . S
H1298 C1308 0.950 . S
H1299 C1310 0.950 . S
H1300 C1312 0.950 . S
H1301 C1313 0.950 . S
C1302 H1294 0.950 . S
C1302 C1303 1.386 . S
C1302 C1304 1.391 . S
C1303 C1302 1.386 . S
C1303 C1307 1.393 . S
C1304 H1296 0.950 . S
C1304 C1302 1.391 . S
C1304 C1305 1.400 . S
C1305 C1304 1.400 . S
C1305 C1306 1.398 . S
C1305 C1311 1.491 . S
C1306 H1297 0.950 . S
C1306 C1305 1.398 . S
C1306 C1307 1.391 . S
C1307 H1295 0.950 . S
C1307 C1303 1.393 . S
C1307 C1306 1.391 . S
C1308 H1298 0.950 . S
C1308 C1309 1.386 . S
C1308 C1310 1.391 . S
C1309 C1308 1.386 . S
C1309 C1313 1.393 . S
C1310 H1299 0.950 . S
C1310 C1308 1.391 . S
C1310 C1311 1.400 . S
C1311 C1305 1.491 . S
C1311 C1310 1.400 . S
C1311 C1312 1.398 . S
C1312 H1300 0.950 . S
C1312 C1311 1.398 . S
C1312 C1313 1.391 . S
C1313 H1301 0.950 . S
C1313 C1309 1.393 . S
C1313 C1312 1.391 . S
H1314 C1322 0.950 . S
H1315 C1327 0.950 . S
H1316 C1324 0.950 . S
H1317 C1326 0.950 . S
H1318 C1328 0.950 . S
H1319 C1330 0.950 . S
H1320 C1332 0.950 . S
H1321 C1333 0.950 . S
C1322 H1314 0.950 . S
C1322 C1323 1.386 . S
C1322 C1324 1.391 . S
C1323 C1322 1.386 . S
C1323 C1327 1.393 . S
C1324 H1316 0.950 . S
C1324 C1322 1.391 . S
C1324 C1325 1.400 . S
C1325 C1324 1.400 . S
C1325 C1326 1.398 . S
C1325 C1331 1.491 . S
C1326 H1317 0.950 . S
C1326 C1325 1.398 . S
C1326 C1327 1.391 . S
C1327 H1315 0.950 . S
C1327 C1323 1.393 . S
C1327 C1326 1.391 . S
C1328 H1318 0.950 . S
C1328 C1329 1.386 . S
C1328 C1330 1.391 . S
C1329 C1328 1.386 . S
C1329 C1333 1.393 . S
C1330 H1319 0.950 . S
C1330 C1328 1.391 . S
C1330 C1331 1.400 . S
C1331 C1325 1.491 . S
C1331 C1330 1.400 . S
C1331 C1332 1.398 . S
C1332 H1320 0.950 . S
C1332 C1331 1.398 . S
C1332 C1333 1.391 . S
C1333 H1321 0.950 . S
C1333 C1329 1.393 . S
C1333 C1332 1.391 . S
H1334 C1342 0.950 . S
H1335 C1347 0.950 . S
H1336 C1344 0.950 . S
H1337 C1346 0.950 . S
H1338 C1348 0.950 . S
H1339 C1350 0.950 . S
H1340 C1352 0.950 . S
H1341 C1353 0.950 . S
C1342 H1334 0.950 . S
C1342 C1343 1.386 . S
C1342 C1344 1.391 . S
C1343 C1342 1.386 . S
C1343 C1347 1.393 . S
C1344 H1336 0.950 . S
C1344 C1342 1.391 . S
C1344 C1345 1.400 . S
C1345 C1344 1.400 . S
C1345 C1346 1.398 . S
C1345 C1351 1.491 . S
C1346 H1337 0.950 . S
C1346 C1345 1.398 . S
C1346 C1347 1.391 . S
C1347 H1335 0.950 . S
C1347 C1343 1.393 . S
C1347 C1346 1.391 . S
C1348 H1338 0.950 . S
C1348 C1349 1.386 . S
C1348 C1350 1.391 . S
C1349 C1348 1.386 . S
C1349 C1353 1.393 . S
C1350 H1339 0.950 . S
C1350 C1348 1.391 . S
C1350 C1351 1.400 . S
C1351 C1345 1.491 . S
C1351 C1350 1.400 . S
C1351 C1352 1.398 . S
C1352 H1340 0.950 . S
C1352 C1351 1.398 . S
C1352 C1353 1.391 . S
C1353 H1341 0.950 . S
C1353 C1349 1.393 . S
C1353 C1352 1.391 . S
H1354 C1362 0.950 . S
H1355 C1367 0.950 . S
H1356 C1364 0.950 . S
H1357 C1366 0.950 . S
H1358 C1368 0.950 . S
H1359 C1370 0.950 . S
H1360 C1372 0.950 . S
H1361 C1373 0.950 . S
C1362 H1354 0.950 . S
C1362 C1363 1.386 . S
C1362 C1364 1.391 . S
C1363 C1362 1.386 . S
C1363 C1367 1.393 . S
C1364 H1356 0.950 . S
C1364 C1362 1.391 . S
C1364 C1365 1.400 . S
C1365 C1364 1.400 . S
C1365 C1366 1.398 . S
C1365 C1371 1.491 . S
C1366 H1357 0.950 . S
C1366 C1365 1.398 . S
C1366 C1367 1.391 . S
C1367 H1355 0.950 . S
C1367 C1363 1.393 . S
C1367 C1366 1.391 . S
C1368 H1358 0.950 . S
C1368 C1369 1.386 . S
C1368 C1370 1.391 . S
C1369 C1368 1.386 . S
C1369 C1373 1.393 . S
C1370 H1359 0.950 . S
C1370 C1368 1.391 . S
C1370 C1371 1.400 . S
C1371 C1365 1.491 . S
C1371 C1370 1.400 . S
C1371 C1372 1.398 . S
C1372 H1360 0.950 . S
C1372 C1371 1.398 . S
C1372 C1373 1.391 . S
C1373 H1361 0.950 . S
C1373 C1369 1.393 . S
C1373 C1372 1.391 . S
H1374 C1382 0.950 . S
H1375 C1387 0.950 . S
H1376 C1384 0.950 . S
H1377 C1386 0.950 . S
H1378 C1388 0.950 . S
H1379 C1390 0.950 . S
H1380 C1392 0.950 . S
H1381 C1393 0.950 . S
C1382 H1374 0.950 . S
C1382 C1383 1.386 . S
C1382 C1384 1.391 . S
C1383 C1382 1.386 . S
C1383 C1387 1.393 . S
C1384 H1376 0.950 . S
C1384 C1382 1.391 . S
C1384 C1385 1.400 . S
C1385 C1384 1.400 . S
C1385 C1386 1.398 . S
C1385 C1391 1.491 . S
C1386 H1377 0.950 . S
C1386 C1385 1.398 . S
C1386 C1387 1.391 . S
C1387 H1375 0.950 . S
C1387 C1383 1.393 . S
C1387 C1386 1.391 . S
C1388 H1378 0.950 . S
C1388 C1389 1.386 . S
C1388 C1390 1.391 . S
C1389 C1388 1.386 . S
C1389 C1393 1.393 . S
C1390 H1379 0.950 . S
C1390 C1388 1.391 . S
C1390 C1391 1.400 . S
C1391 C1385 1.491 . S
C1391 C1390 1.400 . S
C1391 C1392 1.398 . S
C1392 H1380 0.950 . S
C1392 C1391 1.398 . S
C1392 C1393 1.391 . S
C1393 H1381 0.950 . S
C1393 C1389 1.393 . S
C1393 C1392 1.391 . S
H1394 C1402 0.950 . S
H1395 C1407 0.950 . S
H1396 C1404 0.950 . S
H1397 C1406 0.950 . S
H1398 C1408 0.950 . S
H1399 C1410 0.950 . S
H1400 C1412 0.950 . S
H1401 C1413 0.950 . S
C1402 H1394 0.950 . S
C1402 C1403 1.386 . S
C1402 C1404 1.391 . S
C1403 C1402 1.386 . S
C1403 C1407 1.393 . S
C1404 H1396 0.950 . S
C1404 C1402 1.391 . S
C1404 C1405 1.400 . S
C1405 C1404 1.400 . S
C1405 C1406 1.398 . S
C1405 C1411 1.491 . S
C1406 H1397 0.950 . S
C1406 C1405 1.398 . S
C1406 C1407 1.391 . S
C1407 H1395 0.950 . S
C1407 C1403 1.393 . S
C1407 C1406 1.391 . S
C1408 H1398 0.950 . S
C1408 C1409 1.386 . S
C1408 C1410 1.391 . S
C1409 C1408 1.386 . S
C1409 C1413 1.393 . S
C1410 H1399 0.950 . S
C1410 C1408 1.391 . S
C1410 C1411 1.400 . S
C1411 C1405 1.491 . S
C1411 C1410 1.400 . S
C1411 C1412 1.398 . S
C1412 H1400 0.950 . S
C1412 C1411 1.398 . S
C1412 C1413 1.391 . S
C1413 H1401 0.950 . S
C1413 C1409 1.393 . S
C1413 C1412 1.391 . S
H1414 C1422 0.950 . S
H1415 C1427 0.950 . S
H1416 C1424 0.950 . S
H1417 C1426 0.950 . S
H1418 C1428 0.950 . S
H1419 C1430 0.950 . S
H1420 C1432 0.950 . S
H1421 C1433 0.950 . S
C1422 H1414 0.950 . S
C1422 C1423 1.386 . S
C1422 C1424 1.391 . S
C1423 C1422 1.386 . S
C1423 C1427 1.393 . S
C1424 H1416 0.950 . S
C1424 C1422 1.391 . S
C1424 C1425 1.400 . S
C1425 C1424 1.400 . S
C1425 C1426 1.398 . S
C1425 C1431 1.491 . S
C1426 H1417 0.950 . S
C1426 C1425 1.398 . S
C1426 C1427 1.391 . S
C1427 H1415 0.950 . S
C1427 C1423 1.393 . S
C1427 C1426 1.391 . S
C1428 H1418 0.950 . S
C1428 C1429 1.386 . S
C1428 C1430 1.391 . S
C1429 C1428 1.386 . S
C1429 C1433 1.393 . S
C1430 H1419 0.950 . S
C1430 C1428 1.391 . S
C1430 C1431 1.400 . S
C1431 C1425 1.491 . S
C1431 C1430 1.400 . S
C1431 C1432 1.398 . S
C1432 H1420 0.950 . S
C1432 C1431 1.398 . S
C1432 C1433 1.391 . S
C1433 H1421 0.950 . S
C1433 C1429 1.393 . S
C1433 C1432 1.391 . S
H1434 C1442 0.950 . S
H1435 C1447 0.950 . S
H1436 C1444 0.950 . S
H1437 C1446 0.950 . S
H1438 C1448 0.950 . S
H1439 C1450 0.950 . S
H1440 C1452 0.950 . S
H1441 C1453 0.950 . S
C1442 H1434 0.950 . S
C1442 C1443 1.386 . S
C1442 C1444 1.391 . S
C1443 C1442 1.386 . S
C1443 C1447 1.393 . S
C1444 H1436 0.950 . S
C1444 C1442 1.391 . S
C1444 C1445 1.400 . S
C1445 C1444 1.400 . S
C1445 C1446 1.398 . S
C1445 C1451 1.491 . S
C1446 H1437 0.950 . S
C1446 C1445 1.398 . S
C1446 C1447 1.391 . S
C1447 H1435 0.950 . S
C1447 C1443 1.393 . S
C1447 C1446 1.391 . S
C1448 H1438 0.950 . S
C1448 C1449 1.386 . S
C1448 C1450 1.391 . S
C1449 C1448 1.386 . S
C1449 C1453 1.393 . S
C1450 H1439 0.950 . S
C1450 C1448 1.391 . S
C1450 C1451 1.400 . S
C1451 C1445 1.491 . S
C1451 C1450 1.400 . S
C1451 C1452 1.398 . S
C1452 H1440 0.950 . S
C1452 C1451 1.398 . S
C1452 C1453 1.391 . S
C1453 H1441 0.950 . S
C1453 C1449 1.393 . S
C1453 C1452 1.391 . S
H1454 C1462 0.950 . S
H1455 C1467 0.950 . S
H1456 C1464 0.950 . S
H1457 C1466 0.950 . S
H1458 C1468 0.950 . S
H1459 C1470 0.950 . S
H1460 C1472 0.950 . S
H1461 C1473 0.950 . S
C1462 H1454 0.950 . S
C1462 C1463 1.386 . S
C1462 C1464 1.391 . S
C1463 C1462 1.386 . S
C1463 C1467 1.393 . S
C1464 H1456 0.950 . S
C1464 C1462 1.391 . S
C1464 C1465 1.400 . S
C1465 C1464 1.400 . S
C1465 C1466 1.398 . S
C1465 C1471 1.491 . S
C1466 H1457 0.950 . S
C1466 C1465 1.398 . S
C1466 C1467 1.391 . S
C1467 H1455 0.950 . S
C1467 C1463 1.393 . S
C1467 C1466 1.391 . S
C1468 H1458 0.950 . S
C1468 C1469 1.386 . S
C1468 C1470 1.391 . S
C1469 C1468 1.386 . S
C1469 C1473 1.393 . S
C1470 H1459 0.950 . S
C1470 C1468 1.391 . S
C1470 C1471 1.400 . S
C1471 C1465 1.491 . S
C1471 C1470 1.400 . S
C1471 C1472 1.398 . S
C1472 H1460 0.950 . S
C1472 C1471 1.398 . S
C1472 C1473 1.391 . S
C1473 H1461 0.950 . S
C1473 C1469 1.393 . S
C1473 C1472 1.391 . S
H1474 C1482 0.950 . S
H1475 C1487 0.950 . S
H1476 C1484 0.950 . S
H1477 C1486 0.950 . S
H1478 C1488 0.950 . S
H1479 C1490 0.950 . S
H1480 C1492 0.950 . S
H1481 C1493 0.950 . S
C1482 H1474 0.950 . S
C1482 C1483 1.386 . S
C1482 C1484 1.391 . S
C1483 C1482 1.386 . S
C1483 C1487 1.393 . S
C1484 H1476 0.950 . S
C1484 C1482 1.391 . S
C1484 C1485 1.400 . S
C1485 C1484 1.400 . S
C1485 C1486 1.398 . S
C1485 C1491 1.491 . S
C1486 H1477 0.950 . S
C1486 C1485 1.398 . S
C1486 C1487 1.391 . S
C1487 H1475 0.950 . S
C1487 C1483 1.393 . S
C1487 C1486 1.391 . S
C1488 H1478 0.950 . S
C1488 C1489 1.386 . S
C1488 C1490 1.391 . S
C1489 C1488 1.386 . S
C1489 C1493 1.393 . S
C1490 H1479 0.950 . S
C1490 C1488 1.391 . S
C1490 C1491 1.400 . S
C1491 C1485 1.491 . S
C1491 C1490 1.400 . S
C1491 C1492 1.398 . S
C1492 H1480 0.950 . S
C1492 C1491 1.398 . S
C1492 C1493 1.391 . S
C1493 H1481 0.950 . S
C1493 C1489 1.393 . S
C1493 C1492 1.391 . S
C603 N310 0.913 . S
C609 N13 0.927 . S
C623 N343 0.927 . S
C629 N46 0.913 . S
C643 N376 0.925 . S
C649 N79 0.949 . S
C663 N112 0.924 . S
C669 N409 0.912 . S
C683 N442 0.940 . S
C689 N145 0.961 . S
C703 N475 0.948 . S
C709 N178 0.924 . S
C723 N211 0.946 . S
C729 N508 0.923 . S
C743 N541 0.916 . S
C749 N244 0.936 . S
C763 N574 0.953 . S
C769 N277 0.967 . S
C783 C579 1.907 . S
C789 C18 1.910 . S
C803 C513 1.902 . S
C809 C51 1.909 . S
C823 C84 1.905 . S
C829 C546 1.902 . S
C843 C249 1.905 . S
C849 C117 1.901 . S
C863 C282 1.908 . S
C869 C150 1.909 . S
C883 C183 1.905 . S
C889 C216 1.902 . S
C903 C315 1.904 . S
C909 C447 1.910 . S
C923 C480 1.902 . S
C929 C348 1.905 . S
C943 C381 1.901 . S
C949 C414 1.907 . S
C963 C21 1.215 . S
C969 C153 1.213 . S
C983 C186 1.223 . S
C989 C54 1.222 . S
C1003 C120 1.194 . S
C1009 C87 1.194 . S
C1023 C351 1.209 . S
C1029 C219 1.207 . S
C1043 C252 1.207 . S
C1049 C384 1.209 . S
C1063 C318 1.225 . S
C1069 C285 1.226 . S
C1083 C417 1.228 . S
C1089 C549 1.228 . S
C1103 C582 1.223 . S
C1109 C450 1.222 . S
C1123 C483 1.218 . S
C1129 C516 1.216 . S
C1143 C73 1.061 . S
C1149 N2 1.077 . S
C1163 C7 1.056 . S
C1169 N35 1.073 . S
C1183 C40 1.040 . S
C1189 N68 1.070 . S
C1203 C139 1.056 . S
C1209 N101 1.075 . S
C1223 N134 1.071 . S
C1229 C172 1.044 . S
C1243 C106 1.050 . S
C1249 N167 1.071 . S
C1263 C271 1.030 . S
C1269 N200 1.065 . S
C1283 C205 1.038 . S
C1289 N233 1.068 . S
C1303 N266 1.065 . S
C1309 C238 1.036 . S
C1323 N299 1.076 . S
C1329 C337 1.057 . S
C1343 C370 1.042 . S
C1349 N332 1.067 . S
C1363 C304 1.037 . S
C1369 N365 1.068 . S
C1383 N398 1.067 . S
C1389 C469 1.034 . S
C1403 C403 1.056 . S
C1409 N431 1.073 . S
C1423 C436 1.056 . S
C1429 N464 1.076 . S
C1443 C535 1.040 . S
C1449 N497 1.069 . S
C1463 C568 1.037 . S
C1469 N530 1.068 . S
C1483 C502 1.043 . S
C1489 N563 1.071 . S
