# Generated by pormake.
# Topology mok, (4)-cn, num edge types: 1
# Building blocks:
#     Node 0, Type 0, BuildingBlock: NAHDIM_clean_sbu_0, # of connection points: 4
#     Node 1, Type 0, BuildingBlock: NAHDIM_clean_sbu_0, # of connection points: 4
#     Node 2, Type 0, BuildingBlock: NAHDIM_clean_sbu_0, # of connection points: 4
#     Node 3, Type 0, BuildingBlock: NAHDIM_clean_sbu_0, # of connection points: 4
#     Node 4, Type 0, BuildingBlock: NAHDIM_clean_sbu_0, # of connection points: 4
#     Node 5, Type 0, BuildingBlock: NAHDIM_clean_sbu_0, # of connection points: 4
#     Node 6, Type 0, BuildingBlock: NAHDIM_clean_sbu_0, # of connection points: 4
#     Node 7, Type 0, BuildingBlock: NAHDIM_clean_sbu_0, # of connection points: 4
#     Edge 8, Type (0, 0), BuildingBlock: KIFKEQ_clean_linker_1, # of connection points: 2
#     Edge 9, Type (0, 0), BuildingBlock: KIFKEQ_clean_linker_1, # of connection points: 2
#     Edge 10, Type (0, 0), BuildingBlock: KIFKEQ_clean_linker_1, # of connection points: 2
#     Edge 11, Type (0, 0), BuildingBlock: KIFKEQ_clean_linker_1, # of connection points: 2
#     Edge 12, Type (0, 0), BuildingBlock: KIFKEQ_clean_linker_1, # of connection points: 2
#     Edge 13, Type (0, 0), BuildingBlock: KIFKEQ_clean_linker_1, # of connection points: 2
#     Edge 14, Type (0, 0), BuildingBlock: KIFKEQ_clean_linker_1, # of connection points: 2
#     Edge 15, Type (0, 0), BuildingBlock: KIFKEQ_clean_linker_1, # of connection points: 2
#     Edge 16, Type (0, 0), BuildingBlock: KIFKEQ_clean_linker_1, # of connection points: 2
#     Edge 17, Type (0, 0), BuildingBlock: KIFKEQ_clean_linker_1, # of connection points: 2
#     Edge 18, Type (0, 0), BuildingBlock: KIFKEQ_clean_linker_1, # of connection points: 2
#     Edge 19, Type (0, 0), BuildingBlock: KIFKEQ_clean_linker_1, # of connection points: 2
#     Edge 20, Type (0, 0), BuildingBlock: KIFKEQ_clean_linker_1, # of connection points: 2
#     Edge 21, Type (0, 0), BuildingBlock: KIFKEQ_clean_linker_1, # of connection points: 2
#     Edge 22, Type (0, 0), BuildingBlock: KIFKEQ_clean_linker_1, # of connection points: 2
#     Edge 23, Type (0, 0), BuildingBlock: KIFKEQ_clean_linker_1, # of connection points: 2
# Relax obj value: 0.051
# Max RMSD: 0.062
# Mean RMSD: 0.062
data_MOF--net-mok--node1-NAHDIM_clean_sbu_0--edge1-KIFKEQ_clean_linker_1
_symmetry_space_group_name_H-M    P1
_symmetry_Int_Tables_number       1
_symmetry_cell_setting            triclinic
loop_
_symmetry_equiv_pos_as_xyz
'x, y, z'
_cell_length_a     50.947193
_cell_length_b     20.392734
_cell_length_c     25.474406
_cell_angle_alpha  90.03015
_cell_angle_beta   90.000687
_cell_angle_gamma 89.966748
loop_
_atom_site_label
_atom_site_type_symbol
_atom_site_fract_x
_atom_site_fract_y
_atom_site_fract_z
_atom_type_partial_charge
C0 C 0.55257 0.20967 0.00584 0.0
O1 O 0.54127 0.26629 0.99611 0.0
O2 O 0.58825 0.34103 0.94677 0.0
Zn3 Zn 0.59798 0.29133 0.01232 0.0
O4 O 0.59109 0.34163 0.07905 0.0
C5 C 0.65278 0.30885 0.98907 0.0
O6 O 0.6443 0.36526 0.97086 0.0
O7 O 0.57713 0.208 0.01434 0.0
C8 C 0.59927 0.3996 0.0872 0.0
O9 O 0.61197 0.43046 0.04977 0.0
C10 C 0.57294 0.39007 0.94332 0.0
O11 O 0.56173 0.41346 0.98583 0.0
O12 O 0.63642 0.26873 0.00875 0.0
C13 C 0.4464 0.7922 0.00355 0.0
O14 O 0.45748 0.73619 0.99095 0.0
O15 O 0.40986 0.66133 0.94574 0.0
Zn16 Zn 0.4011 0.7101 0.01239 0.0
O17 O 0.40871 0.65839 0.07789 0.0
C18 C 0.34591 0.69629 0.98976 0.0
O19 O 0.35397 0.64279 0.96593 0.0
O20 O 0.42208 0.79326 0.01457 0.0
C21 C 0.40011 0.60073 0.08558 0.0
O22 O 0.38671 0.5714 0.04829 0.0
C23 C 0.42558 0.61324 0.94132 0.0
O24 O 0.43769 0.59074 0.98313 0.0
O25 O 0.36265 0.73308 0.01215 0.0
C26 C 0.55266 0.79234 0.53204 0.0
O27 O 0.54178 0.73674 0.54627 0.0
O28 O 0.58839 0.66048 0.58835 0.0
Zn29 Zn 0.59781 0.70968 0.52233 0.0
O30 O 0.59069 0.65855 0.45611 0.0
C31 C 0.65271 0.69198 0.54478 0.0
O32 O 0.64413 0.63635 0.56427 0.0
O33 O 0.57683 0.79305 0.51979 0.0
C34 C 0.59905 0.60068 0.44811 0.0
O35 O 0.61206 0.5704 0.48545 0.0
C36 C 0.57307 0.61152 0.59199 0.0
O37 O 0.56173 0.58821 0.54961 0.0
O38 O 0.63635 0.73196 0.52481 0.0
C39 C 0.44568 0.20899 0.52571 0.0
O40 O 0.45716 0.26595 0.53301 0.0
O41 O 0.41205 0.341 0.58681 0.0
Zn42 Zn 0.40116 0.29223 0.52143 0.0
O43 O 0.40871 0.34194 0.45484 0.0
C44 C 0.34721 0.31314 0.55028 0.0
O45 O 0.35748 0.36363 0.57484 0.0
O46 O 0.42096 0.2072 0.51931 0.0
C47 C 0.39841 0.39742 0.44525 0.0
O48 O 0.3834 0.42502 0.48089 0.0
C49 C 0.42585 0.39281 0.5893 0.0
O50 O 0.43471 0.4196 0.54591 0.0
O51 O 0.3622 0.27462 0.52487 0.0
C52 C 0.05175 0.70639 0.00568 0.0
O53 O 0.04123 0.7616 0.98942 0.0
O54 O 0.0886 0.83478 0.94608 0.0
Zn55 Zn 0.09773 0.78696 0.01275 0.0
O56 O 0.09233 0.84318 0.07672 0.0
C57 C 0.15281 0.80694 0.00391 0.0
O58 O 0.1449 0.86812 0.00036 0.0
O59 O 0.07588 0.70544 0.01826 0.0
C60 C 0.09538 0.81639 0.12133 0.0
O61 O 0.10105 0.75358 0.12345 0.0
C62 C 0.08105 0.89412 0.94422 0.0
O63 O 0.0785 0.92744 0.98807 0.0
O64 O 0.13581 0.76193 0.00953 0.0
C65 C 0.94566 0.28863 0.00973 0.0
O66 O 0.95704 0.23213 -0.00018 0.0
O67 O 0.91225 0.15426 0.95209 0.0
Zn68 Zn 0.90015 0.2068 0.01508 0.0
O69 O 0.90557 0.15776 0.08312 0.0
C70 C 0.84556 0.19602 0.98191 0.0
O71 O 0.85383 0.14282 0.958 0.0
O72 O 0.92107 0.29006 0.0179 0.0
C73 C 0.88871 0.11677 0.09973 0.0
O74 O 0.86765 0.10501 0.07154 0.0
C75 C 0.9109 0.09212 0.94925 0.0
O76 O 0.90165 0.05882 0.98925 0.0
O77 O 0.8618 0.23061 0.00779 0.0
C78 C 0.05474 0.28615 0.52037 0.0
O79 O 0.04401 0.23031 0.53449 0.0
O80 O 0.09295 0.1608 0.58392 0.0
Zn81 Zn 0.10046 0.205 0.51483 0.0
O82 O 0.0924 0.14509 0.45423 0.0
C83 C 0.15093 0.24444 0.55409 0.0
O84 O 0.13766 0.25008 0.59808 0.0
O85 O 0.07906 0.28752 0.50935 0.0
C86 C 0.10681 0.09493 0.44748 0.0
O87 O 0.12585 0.08328 0.48102 0.0
C88 C 0.07818 0.11117 0.58995 0.0
O89 O 0.06637 0.08555 0.54895 0.0
O90 O 0.13895 0.22702 0.5126 0.0
C91 C 0.94702 0.70172 0.52454 0.0
O92 O 0.958 0.7579 0.53699 0.0
O93 O 0.91104 0.82869 0.58911 0.0
Zn94 Zn 0.90107 0.78236 0.52192 0.0
O95 O 0.90668 0.83697 0.45689 0.0
C96 C 0.84634 0.7966 0.54749 0.0
O97 O 0.8548 0.85127 0.56887 0.0
O98 O 0.92247 0.69996 0.51589 0.0
C99 C 0.89754 0.89454 0.45116 0.0
O100 O 0.88473 0.92225 0.49003 0.0
C101 C 0.92375 0.88199 0.59376 0.0
O102 O 0.93223 0.91256 0.55171 0.0
O103 O 0.86272 0.7584 0.52546 0.0
H104 H 0.82249 0.30766 0.01961 0.0
H105 H 0.8049 0.12423 0.94214 0.0
H106 H 0.77585 0.33499 0.02038 0.0
H107 H 0.7583 0.15189 0.94274 0.0
H108 H 0.6762 0.19183 0.0128 0.0
H109 H 0.72289 0.16531 0.00973 0.0
H110 H 0.73997 0.36198 0.95712 0.0
H111 H 0.69332 0.3888 0.96041 0.0
C112 C 0.8087 0.2733 0.00256 0.0
C113 C 0.8174 0.21373 0.98088 0.0
C114 C 0.78201 0.28913 0.00279 0.0
C115 C 0.76345 0.24551 0.98172 0.0
C116 C 0.77215 0.18613 0.95978 0.0
C117 C 0.79885 0.17052 0.95917 0.0
C118 C 0.6899 0.22943 0.00056 0.0
C119 C 0.68105 0.29244 0.98688 0.0
C120 C 0.71662 0.21409 0.99851 0.0
C121 C 0.73506 0.26158 0.98316 0.0
C122 C 0.72623 0.32459 0.96957 0.0
C123 C 0.69949 0.3398 0.97121 0.0
H124 H 0.19387 0.89116 0.98944 0.0
H125 H 0.17578 0.68618 0.01277 0.0
H126 H 0.24046 0.86462 0.98498 0.0
H127 H 0.22242 0.65988 0.00938 0.0
H128 H 0.30527 0.62919 0.94487 0.0
H129 H 0.2587 0.65637 0.94747 0.0
H130 H 0.27595 0.82754 0.04133 0.0
H131 H 0.32258 0.80116 0.03785 0.0
C132 C 0.19983 0.84046 0.99382 0.0
C133 C 0.18111 0.79078 0.00143 0.0
C134 C 0.22655 0.82531 0.99155 0.0
C135 C 0.23517 0.76014 0.99686 0.0
C136 C 0.21642 0.71046 0.00444 0.0
C137 C 0.18969 0.7256 0.00669 0.0
C138 C 0.29915 0.6727 0.96599 0.0
C139 C 0.31765 0.71302 0.99113 0.0
C140 C 0.27243 0.68805 0.96774 0.0
C141 C 0.2636 0.74407 0.99468 0.0
C142 C 0.28213 0.78449 0.01968 0.0
C143 C 0.30885 0.76916 0.01792 0.0
H144 H 0.80595 0.87351 0.58196 0.0
H145 H 0.82259 0.68375 0.51395 0.0
H146 H 0.75919 0.84807 0.58174 0.0
H147 H 0.77575 0.65865 0.51342 0.0
H148 H 0.69298 0.61241 0.57575 0.0
H149 H 0.73976 0.63753 0.57701 0.0
H150 H 0.72353 0.83121 0.51665 0.0
H151 H 0.67667 0.80642 0.51572 0.0
C152 C 0.79965 0.82635 0.56699 0.0
C153 C 0.818 0.78064 0.54798 0.0
C154 C 0.77284 0.81198 0.56658 0.0
C155 C 0.7638 0.75143 0.54749 0.0
C156 C 0.78216 0.70549 0.52884 0.0
C157 C 0.80897 0.72002 0.52892 0.0
C158 C 0.69935 0.6604 0.56279 0.0
C159 C 0.68108 0.70744 0.54566 0.0
C160 C 0.72618 0.67461 0.56324 0.0
C161 C 0.73531 0.73631 0.54691 0.0
C162 C 0.71705 0.78346 0.52998 0.0
C163 C 0.69022 0.76912 0.5292 0.0
H164 H 0.18434 0.23444 0.47036 0.0
H165 H 0.18251 0.27942 0.63616 0.0
H166 H 0.23173 0.25104 0.46963 0.0
H167 H 0.22993 0.29479 0.63554 0.0
H168 H 0.31019 0.38615 0.60121 0.0
H169 H 0.26283 0.37027 0.6016 0.0
H170 H 0.27177 0.1995 0.50276 0.0
H171 H 0.3192 0.21601 0.50155 0.0
C172 C 0.19403 0.24781 0.50666 0.0
C173 C 0.17963 0.25572 0.55331 0.0
C174 C 0.22123 0.25687 0.5063 0.0
C175 C 0.23461 0.2741 0.55254 0.0
C176 C 0.22017 0.2823 0.59912 0.0
C177 C 0.19299 0.2732 0.5995 0.0
C178 C 0.30209 0.34515 0.57958 0.0
C179 C 0.31849 0.30237 0.55131 0.0
C180 C 0.27493 0.33587 0.58005 0.0
C181 C 0.26352 0.28364 0.55221 0.0
C182 C 0.27993 0.24071 0.52406 0.0
C183 C 0.30712 0.24994 0.52364 0.0
H184 H 0.61149 0.52493 0.11641 0.0
H185 H 0.57983 0.34324 0.17649 0.0
H186 H 0.6089 0.57282 0.20403 0.0
H187 H 0.57712 0.39144 0.264 0.0
H188 H 0.61191 0.47562 0.41907 0.0
H189 H 0.60945 0.42743 0.33153 0.0
H190 H 0.57637 0.60746 0.27157 0.0
H191 H 0.57895 0.65595 0.35898 0.0
C192 C 0.60378 0.49539 0.14817 0.0
C193 C 0.59599 0.43019 0.1395 0.0
C194 C 0.60216 0.52296 0.19831 0.0
C195 C 0.59289 0.48578 0.2409 0.0
C196 C 0.58462 0.42101 0.23204 0.0
C197 C 0.58605 0.39359 0.18184 0.0
C198 C 0.60392 0.50478 0.38733 0.0
C199 C 0.59576 0.56973 0.39596 0.0
C200 C 0.60239 0.47704 0.33724 0.0
C201 C 0.59281 0.5138 0.29467 0.0
C202 C 0.58412 0.57824 0.30352 0.0
C203 C 0.58547 0.60583 0.35366 0.0
H204 H 0.38852 0.4744 0.11314 0.0
H205 H 0.4188 0.65633 0.17573 0.0
H206 H 0.39072 0.42552 0.20054 0.0
H207 H 0.42097 0.60729 0.26294 0.0
H208 H 0.38395 0.52087 0.41532 0.0
H209 H 0.38702 0.56927 0.32795 0.0
H210 H 0.42354 0.39239 0.26993 0.0
H211 H 0.4205 0.34376 0.3573 0.0
C212 C 0.39585 0.50377 0.1454 0.0
C213 C 0.40335 0.56933 0.13753 0.0
C214 C 0.39723 0.47566 0.19538 0.0
C215 C 0.4059 0.51275 0.23854 0.0
C216 C 0.41395 0.57781 0.23046 0.0
C217 C 0.41283 0.60571 0.18044 0.0
C218 C 0.39282 0.49246 0.38406 0.0
C219 C 0.40189 0.42841 0.39322 0.0
C220 C 0.3947 0.52032 0.3341 0.0
C221 C 0.40547 0.4845 0.29215 0.0
C222 C 0.41494 0.42087 0.30146 0.0
C223 C 0.41331 0.39323 0.35155 0.0
H224 H 0.40987 0.65957 0.84598 0.0
H225 H 0.45052 0.49744 0.91905 0.0
H226 H 0.41417 0.60644 0.76077 0.0
H227 H 0.4548 0.44424 0.83336 0.0
H228 H 0.41785 0.33991 0.68623 0.0
H229 H 0.42177 0.39411 0.77112 0.0
H230 H 0.44811 0.57087 0.69424 0.0
H231 H 0.4442 0.51662 0.60892 0.0
C232 C 0.41989 0.61279 0.84383 0.0
C233 C 0.42967 0.58245 0.88936 0.0
C234 C 0.42254 0.58265 0.79491 0.0
C235 C 0.4348 0.52123 0.79047 0.0
C236 C 0.4451 0.49143 0.83577 0.0
C237 C 0.4427 0.52195 0.88474 0.0
C238 C 0.42472 0.39015 0.68738 0.0
C239 C 0.4305 0.42419 0.64081 0.0
C240 C 0.42715 0.42099 0.73607 0.0
C241 C 0.43516 0.48673 0.73924 0.0
C242 C 0.44169 0.52027 0.69284 0.0
C243 C 0.43954 0.48915 0.64408 0.0
H244 H 0.55126 0.51032 0.92292 0.0
H245 H 0.58494 0.34042 0.84694 0.0
H246 H 0.54725 0.56448 0.83755 0.0
H247 H 0.58084 0.39443 0.76204 0.0
H248 H 0.55086 0.49203 0.61268 0.0
H249 H 0.54675 0.43809 0.69808 0.0
H250 H 0.58145 0.6069 0.77323 0.0
H251 H 0.58565 0.66072 0.68826 0.0
C252 C 0.55754 0.48431 0.88803 0.0
C253 C 0.56862 0.42136 0.8917 0.0
C254 C 0.55531 0.51536 0.83927 0.0
C255 C 0.56377 0.48363 0.79327 0.0
C256 C 0.57394 0.4198 0.79678 0.0
C257 C 0.57647 0.38913 0.84548 0.0
C258 C 0.55738 0.51783 0.64749 0.0
C259 C 0.56879 0.58037 0.64369 0.0
C260 C 0.55508 0.4869 0.69628 0.0
C261 C 0.56381 0.51834 0.74219 0.0
C262 C 0.57433 0.58178 0.73856 0.0
C263 C 0.57692 0.61233 0.68982 0.0
H264 H 0.08728 0.94863 0.13065 0.0
H265 H 0.10093 0.77352 0.22222 0.0
H266 H 0.08836 0.01432 0.21064 0.0
H267 H 0.10148 0.83903 0.30217 0.0
H268 H 0.13525 0.98655 0.42058 0.0
H269 H 0.13054 0.9186 0.34262 0.0
H270 H 0.06485 0.03693 0.29218 0.0
H271 H 0.06987 0.10591 0.36986 0.0
C272 C 0.09023 0.92406 0.16788 0.0
C273 C 0.09419 0.85589 0.17002 0.0
C274 C 0.0907 0.96168 0.21377 0.0
C275 C 0.09514 0.93195 0.26277 0.0
C276 C 0.09844 0.86357 0.26497 0.0
C277 C 0.09798 0.82598 0.21913 0.0
C278 C 0.11971 0.99796 0.39304 0.0
C279 C 0.103 0.0518 0.40137 0.0
C280 C 0.11691 0.95872 0.34846 0.0
C281 C 0.09731 0.97232 0.31116 0.0
C282 C 0.08034 0.02563 0.31985 0.0
C283 C 0.08314 0.06492 0.36451 0.0
H284 H 0.90862 0.83959 0.35603 0.0
H285 H 0.89096 0.02494 0.43046 0.0
H286 H 0.90858 0.89334 0.27032 0.0
H287 H 0.89136 0.0787 0.34456 0.0
H288 H 0.92033 0.154 0.1812 0.0
H289 H 0.92485 0.10048 0.26683 0.0
H290 H 0.87034 0.95036 0.21816 0.0
H291 H 0.86542 0.00414 0.13306 0.0
C292 C 0.90507 0.89191 0.35417 0.0
C293 C 0.89966 0.92805 0.39993 0.0
C294 C 0.90494 0.9225 0.30513 0.0
C295 C 0.8999 0.98998 0.30102 0.0
C296 C 0.89544 0.02663 0.34684 0.0
C297 C 0.89509 0.99582 0.39585 0.0
C298 C 0.90943 0.1094 0.18874 0.0
C299 C 0.89247 0.08328 0.15055 0.0
C300 C 0.91194 0.07905 0.23771 0.0
C301 C 0.89797 0.02138 0.24885 0.0
C302 C 0.88147 0.99455 0.2103 0.0
C303 C 0.87856 0.02551 0.16178 0.0
H304 H 0.92898 0.01153 0.61827 0.0
H305 H 0.92564 0.81867 0.68758 0.0
H306 H 0.92884 0.06067 0.7054 0.0
H307 H 0.92719 0.86706 0.77483 0.0
H308 H 0.89328 0.97301 0.91671 0.0
H309 H 0.89959 0.92182 0.83169 0.0
H310 H 0.9497 0.08267 0.78458 0.0
H311 H 0.94194 0.13566 0.86903 0.0
C312 C 0.92884 0.97965 0.65227 0.0
C313 C 0.92701 0.91141 0.64626 0.0
C314 C 0.92891 0.00773 0.70236 0.0
C315 C 0.92771 0.96803 0.74757 0.0
C316 C 0.92735 0.89945 0.74118 0.0
C317 C 0.92668 0.87155 0.69114 0.0
C318 C 0.90582 0.99714 0.88833 0.0
C319 C 0.91699 0.05847 0.89937 0.0
C320 C 0.90964 0.96754 0.83951 0.0
C321 C 0.92519 0.99791 0.80081 0.0
C322 C 0.93715 0.05833 0.81279 0.0
C323 C 0.93288 0.08857 0.86134 0.0
H324 H 0.08343 0.83788 0.847 0.0
H325 H 0.06894 0.0227 0.92499 0.0
H326 H 0.07966 0.89182 0.76212 0.0
H327 H 0.0648 0.07649 0.83979 0.0
H328 H 0.098 0.15611 0.68277 0.0
H329 H 0.09541 0.10438 0.76865 0.0
H330 H 0.04879 0.94777 0.70278 0.0
H331 H 0.05165 -0.00086 0.61636 0.0
C332 C 0.07917 0.88991 0.84607 0.0
C333 C 0.07672 0.92611 0.8928 0.0
C334 C 0.07682 0.92072 0.79735 0.0
C335 C 0.07203 0.98846 0.79424 0.0
C336 C 0.06883 0.02435 0.84095 0.0
C337 C 0.07109 0.99347 0.88974 0.0
C338 C 0.08705 0.11084 0.68656 0.0
C339 C 0.07518 0.0815 0.64261 0.0
C340 C 0.0854 0.08146 0.73592 0.0
C341 C 0.07192 0.02195 0.7425 0.0
C342 C 0.05955 0.99328 0.69881 0.0
C343 C 0.06111 0.02285 0.64937 0.0
H344 H 0.49732 0.80897 0.97297 0.0
H345 H 0.43069 0.91362 0.03647 0.0
H346 H 0.52282 0.90994 0.97347 0.0
H347 H 0.45643 0.01421 0.03835 0.0
H348 H 0.50085 0.19471 0.98038 0.0
H349 H 0.47532 0.09379 0.97971 0.0
H350 H 0.54329 0.98587 0.03315 0.0
H351 H 0.56902 0.08649 0.03241 0.0
C352 C 0.48817 0.85343 0.98736 0.0
C353 C 0.46198 0.8533 0.0046 0.0
C354 C 0.50284 0.91126 0.98793 0.0
C355 C 0.49168 0.97018 0.00599 0.0
C356 C 0.4655 0.9699 0.02347 0.0
C357 C 0.45079 0.91214 0.02267 0.0
C358 C 0.51035 0.14946 0.99201 0.0
C359 C 0.53697 0.14859 0.00636 0.0
C360 C 0.49567 0.09164 0.99192 0.0
C361 C 0.50725 0.03172 0.0064 0.0
C362 C 0.53386 0.031 0.02103 0.0
C363 C 0.54857 0.08877 0.0209 0.0
H364 H 0.50234 0.81031 0.56608 0.0
H365 H 0.56746 0.9122 0.49429 0.0
H366 H 0.47661 0.91096 0.56441 0.0
H367 H 0.54145 0.0124 0.49121 0.0
H368 H 0.49792 0.19536 0.5469 0.0
H369 H 0.5236 0.09471 0.54848 0.0
H370 H 0.45471 0.98391 0.50456 0.0
H371 H 0.42883 0.08444 0.50445 0.0
C372 C 0.51111 0.85409 0.54961 0.0
C373 C 0.53696 0.8533 0.5304 0.0
C374 C 0.49629 0.91172 0.54837 0.0
C375 C 0.50695 0.96978 0.52762 0.0
C376 C 0.53278 0.96882 0.50817 0.0
C377 C 0.54764 0.91128 0.50968 0.0
C378 C 0.48824 0.14954 0.53755 0.0
C379 C 0.46132 0.14789 0.52564 0.0
C380 C 0.50301 0.09185 0.53815 0.0
C381 C 0.49124 0.03119 0.52661 0.0
C382 C 0.46432 0.02965 0.51439 0.0
C383 C 0.44952 0.08734 0.51403 0.0
H384 H 0.00108 0.68876 0.97341 0.0
H385 H 0.06667 0.58665 0.04345 0.0
H386 H 0.97551 0.58784 0.97503 0.0
H387 H 0.04088 0.4862 0.04627 0.0
H388 H 0.99776 0.30373 0.98745 0.0
H389 H 0.02312 0.40493 0.9872 0.0
H390 H 0.95418 0.51314 0.03501 0.0
H391 H 0.92865 0.41217 0.034 0.0
C392 C 0.00998 0.64491 0.98952 0.0
C393 C 0.03594 0.64569 0.00814 0.0
C394 C 0.99527 0.58713 0.99071 0.0
C395 C 0.00616 0.52889 0.01072 0.0
C396 C 0.03204 0.52992 0.02985 0.0
C397 C 0.04677 0.58763 0.02851 0.0
C398 C 0.98801 0.34909 0.99796 0.0
C399 C 0.96117 0.3499 0.01065 0.0
C400 C 0.00259 0.40707 0.99812 0.0
C401 C 0.99069 0.46716 0.01112 0.0
C402 C 0.96387 0.46785 0.0241 0.0
C403 C 0.94927 0.40989 0.02381 0.0
H404 H 0.00343 0.30156 0.54883 0.0
H405 H 0.07014 0.40815 0.48811 0.0
H406 H 0.97761 0.40205 0.54858 0.0
H407 H 0.04408 0.5084 0.48658 0.0
H408 H 0.9989 0.68668 0.5489 0.0
H409 H 0.02479 0.58627 0.54658 0.0
H410 H 0.95719 0.47954 0.49002 0.0
H411 H 0.93112 0.57961 0.49366 0.0
C412 C 0.01253 0.34633 0.53503 0.0
C413 C 0.03886 0.34686 0.51861 0.0
C414 C 0.99767 0.40391 0.5346 0.0
C415 C 0.00876 0.46333 0.51756 0.0
C416 C 0.03504 0.46368 0.50065 0.0
C417 C 0.04993 0.40612 0.50125 0.0
C418 C 0.98957 0.64183 0.53588 0.0
C419 C 0.96292 0.64111 0.52164 0.0
C420 C 0.00446 0.58431 0.53424 0.0
C421 C 0.99307 0.5248 0.51814 0.0
C422 C 0.96648 0.5243 0.50337 0.0
C423 C 0.95156 0.58177 0.50518 0.0
loop_
_geom_bond_atom_site_label_1
_geom_bond_atom_site_label_2
_geom_bond_distance
_geom_bond_site_symmetry_2
_ccdc_geom_bond_type
C0 O1 1.160 1_554 S
C0 O7 1.185 . S
O1 C0 1.160 1_556 S
O2 Zn3 1.899 1_556 S
O2 C10 1.284 . S
Zn3 O2 1.899 1_554 S
Zn3 O4 2.032 . S
Zn3 O7 2.086 . S
Zn3 O12 1.977 . S
O4 Zn3 2.032 . S
O4 C8 1.278 . S
C5 O6 1.203 1_554 S
C5 O12 1.267 . S
O6 C5 1.203 1_556 S
O7 C0 1.185 . S
O7 Zn3 2.086 . S
C8 O4 1.278 . S
C8 O9 1.211 . S
O9 C8 1.211 . S
C10 O2 1.284 . S
C10 O11 1.273 . S
O11 C10 1.273 . S
O12 Zn3 1.977 . S
O12 C5 1.267 . S
C13 O14 1.160 1_554 S
C13 O20 1.185 . S
O14 C13 1.160 1_556 S
O15 Zn16 1.899 1_556 S
O15 C23 1.284 . S
Zn16 O15 1.899 1_554 S
Zn16 O17 2.032 . S
Zn16 O20 2.086 . S
Zn16 O25 1.977 . S
O17 Zn16 2.032 . S
O17 C21 1.278 . S
C18 O19 1.203 1_554 S
C18 O25 1.267 . S
O19 C18 1.203 1_556 S
O20 C13 1.185 . S
O20 Zn16 2.086 . S
C21 O17 1.278 . S
C21 O22 1.211 . S
O22 C21 1.211 . S
C23 O15 1.284 . S
C23 O24 1.273 . S
O24 C23 1.273 . S
O25 Zn16 1.977 . S
O25 C18 1.267 . S
C26 O27 1.160 . S
C26 O33 1.185 . S
O27 C26 1.160 . S
O28 Zn29 1.899 . S
O28 C36 1.284 . S
Zn29 O28 1.899 . S
Zn29 O30 2.032 . S
Zn29 O33 2.086 . S
Zn29 O38 1.977 . S
O30 Zn29 2.032 . S
O30 C34 1.278 . S
C31 O32 1.203 . S
C31 O38 1.267 . S
O32 C31 1.203 . S
O33 C26 1.185 . S
O33 Zn29 2.086 . S
C34 O30 1.278 . S
C34 O35 1.211 . S
O35 C34 1.211 . S
C36 O28 1.284 . S
C36 O37 1.273 . S
O37 C36 1.273 . S
O38 Zn29 1.977 . S
O38 C31 1.267 . S
C39 O40 1.160 . S
C39 O46 1.185 . S
O40 C39 1.160 . S
O41 Zn42 1.899 . S
O41 C49 1.284 . S
Zn42 O41 1.899 . S
Zn42 O43 2.032 . S
Zn42 O46 2.086 . S
Zn42 O51 1.977 . S
O43 Zn42 2.032 . S
O43 C47 1.278 . S
C44 O45 1.203 . S
C44 O51 1.267 . S
O45 C44 1.203 . S
O46 C39 1.185 . S
O46 Zn42 2.086 . S
C47 O43 1.278 . S
C47 O48 1.211 . S
O48 C47 1.211 . S
C49 O41 1.284 . S
C49 O50 1.273 . S
O50 C49 1.273 . S
O51 Zn42 1.977 . S
O51 C44 1.267 . S
C52 O53 1.160 1_554 S
C52 O59 1.185 . S
O53 C52 1.160 1_556 S
O54 Zn55 1.899 1_556 S
O54 C62 1.284 . S
Zn55 O54 1.899 1_554 S
Zn55 O56 2.032 . S
Zn55 O59 2.086 . S
Zn55 O64 1.977 . S
O56 Zn55 2.032 . S
O56 C60 1.278 . S
C57 O58 1.203 1_554 S
C57 O64 1.267 . S
O58 C57 1.203 1_556 S
O59 C52 1.185 . S
O59 Zn55 2.086 . S
C60 O56 1.278 . S
C60 O61 1.211 . S
O61 C60 1.211 . S
C62 O54 1.284 . S
C62 O63 1.273 . S
O63 C62 1.273 . S
O64 Zn55 1.977 . S
O64 C57 1.267 . S
C65 O66 1.160 1_554 S
C65 O72 1.185 . S
O66 C65 1.160 1_556 S
O67 Zn68 1.899 1_556 S
O67 C75 1.284 . S
Zn68 O67 1.899 1_554 S
Zn68 O69 2.032 . S
Zn68 O72 2.086 . S
Zn68 O77 1.977 . S
O69 Zn68 2.032 . S
O69 C73 1.278 . S
C70 O71 1.203 1_554 S
C70 O77 1.267 . S
O71 C70 1.203 1_556 S
O72 C65 1.185 . S
O72 Zn68 2.086 . S
C73 O69 1.278 . S
C73 O74 1.211 . S
O74 C73 1.211 . S
C75 O67 1.284 . S
C75 O76 1.273 . S
O76 C75 1.273 . S
O77 Zn68 1.977 . S
O77 C70 1.267 . S
C78 O79 1.160 . S
C78 O85 1.185 . S
O79 C78 1.160 . S
O80 Zn81 1.899 . S
O80 C88 1.284 . S
Zn81 O80 1.899 . S
Zn81 O82 2.032 . S
Zn81 O85 2.086 . S
Zn81 O90 1.977 . S
O82 Zn81 2.032 . S
O82 C86 1.278 . S
C83 O84 1.203 . S
C83 O90 1.267 . S
O84 C83 1.203 . S
O85 C78 1.185 . S
O85 Zn81 2.086 . S
C86 O82 1.278 . S
C86 O87 1.211 . S
O87 C86 1.211 . S
C88 O80 1.284 . S
C88 O89 1.273 . S
O89 C88 1.273 . S
O90 Zn81 1.977 . S
O90 C83 1.267 . S
C91 O92 1.160 . S
C91 O98 1.185 . S
O92 C91 1.160 . S
O93 Zn94 1.899 . S
O93 C101 1.284 . S
Zn94 O93 1.899 . S
Zn94 O95 2.032 . S
Zn94 O98 2.086 . S
Zn94 O103 1.977 . S
O95 Zn94 2.032 . S
O95 C99 1.278 . S
C96 O97 1.203 . S
C96 O103 1.267 . S
O97 C96 1.203 . S
O98 C91 1.185 . S
O98 Zn94 2.086 . S
C99 O95 1.278 . S
C99 O100 1.211 . S
O100 C99 1.211 . S
C101 O93 1.284 . S
C101 O102 1.273 . S
O102 C101 1.273 . S
O103 Zn94 1.977 . S
O103 C96 1.267 . S
H104 C112 0.950 . S
H105 C117 0.950 . S
H106 C114 0.950 . S
H107 C116 0.950 . S
H108 C118 0.950 . S
H109 C120 0.950 . S
H110 C122 0.950 . S
H111 C123 0.950 . S
C112 H104 0.950 . S
C112 C113 1.386 . S
C112 C114 1.391 . S
C113 C112 1.386 . S
C113 C117 1.393 1_554 S
C114 H106 0.950 . S
C114 C112 1.391 . S
C114 C115 1.400 . S
C115 C114 1.400 . S
C115 C116 1.398 1_554 S
C115 C121 1.491 . S
C116 H107 0.950 . S
C116 C115 1.398 1_556 S
C116 C117 1.391 . S
C117 H105 0.950 . S
C117 C113 1.393 1_556 S
C117 C116 1.391 . S
C118 H108 0.950 . S
C118 C119 1.386 1_556 S
C118 C120 1.391 . S
C119 C118 1.386 1_554 S
C119 C123 1.393 . S
C120 H109 0.950 . S
C120 C118 1.391 . S
C120 C121 1.400 1_556 S
C121 C115 1.491 . S
C121 C120 1.400 1_554 S
C121 C122 1.398 . S
C122 H110 0.950 . S
C122 C121 1.398 . S
C122 C123 1.391 . S
C123 H111 0.950 . S
C123 C119 1.393 . S
C123 C122 1.391 . S
H124 C132 0.950 . S
H125 C137 0.950 . S
H126 C134 0.950 . S
H127 C136 0.950 . S
H128 C138 0.950 . S
H129 C140 0.950 . S
H130 C142 0.950 . S
H131 C143 0.950 . S
C132 H124 0.950 . S
C132 C133 1.386 . S
C132 C134 1.391 . S
C133 C132 1.386 . S
C133 C137 1.393 1_554 S
C134 H126 0.950 . S
C134 C132 1.391 . S
C134 C135 1.400 . S
C135 C134 1.400 . S
C135 C136 1.398 1_554 S
C135 C141 1.491 . S
C136 H127 0.950 . S
C136 C135 1.398 1_556 S
C136 C137 1.391 . S
C137 H125 0.950 . S
C137 C133 1.393 1_556 S
C137 C136 1.391 . S
C138 H128 0.950 . S
C138 C139 1.386 1_556 S
C138 C140 1.391 . S
C139 C138 1.386 1_554 S
C139 C143 1.393 . S
C140 H129 0.950 . S
C140 C138 1.391 . S
C140 C141 1.400 1_556 S
C141 C135 1.491 . S
C141 C140 1.400 1_554 S
C141 C142 1.398 . S
C142 H130 0.950 . S
C142 C141 1.398 . S
C142 C143 1.391 . S
C143 H131 0.950 . S
C143 C139 1.393 . S
C143 C142 1.391 . S
H144 C152 0.950 . S
H145 C157 0.950 . S
H146 C154 0.950 . S
H147 C156 0.950 . S
H148 C158 0.950 . S
H149 C160 0.950 . S
H150 C162 0.950 . S
H151 C163 0.950 . S
C152 H144 0.950 . S
C152 C153 1.386 . S
C152 C154 1.391 . S
C153 C152 1.386 . S
C153 C157 1.393 . S
C154 H146 0.950 . S
C154 C152 1.391 . S
C154 C155 1.400 . S
C155 C154 1.400 . S
C155 C156 1.398 . S
C155 C161 1.491 . S
C156 H147 0.950 . S
C156 C155 1.398 . S
C156 C157 1.391 . S
C157 H145 0.950 . S
C157 C153 1.393 . S
C157 C156 1.391 . S
C158 H148 0.950 . S
C158 C159 1.386 . S
C158 C160 1.391 . S
C159 C158 1.386 . S
C159 C163 1.393 . S
C160 H149 0.950 . S
C160 C158 1.391 . S
C160 C161 1.400 . S
C161 C155 1.491 . S
C161 C160 1.400 . S
C161 C162 1.398 . S
C162 H150 0.950 . S
C162 C161 1.398 . S
C162 C163 1.391 . S
C163 H151 0.950 . S
C163 C159 1.393 . S
C163 C162 1.391 . S
H164 C172 0.950 . S
H165 C177 0.950 . S
H166 C174 0.950 . S
H167 C176 0.950 . S
H168 C178 0.950 . S
H169 C180 0.950 . S
H170 C182 0.950 . S
H171 C183 0.950 . S
C172 H164 0.950 . S
C172 C173 1.386 . S
C172 C174 1.391 . S
C173 C172 1.386 . S
C173 C177 1.393 . S
C174 H166 0.950 . S
C174 C172 1.391 . S
C174 C175 1.400 . S
C175 C174 1.400 . S
C175 C176 1.398 . S
C175 C181 1.491 . S
C176 H167 0.950 . S
C176 C175 1.398 . S
C176 C177 1.391 . S
C177 H165 0.950 . S
C177 C173 1.393 . S
C177 C176 1.391 . S
C178 H168 0.950 . S
C178 C179 1.386 . S
C178 C180 1.391 . S
C179 C178 1.386 . S
C179 C183 1.393 . S
C180 H169 0.950 . S
C180 C178 1.391 . S
C180 C181 1.400 . S
C181 C175 1.491 . S
C181 C180 1.400 . S
C181 C182 1.398 . S
C182 H170 0.950 . S
C182 C181 1.398 . S
C182 C183 1.391 . S
C183 H171 0.950 . S
C183 C179 1.393 . S
C183 C182 1.391 . S
H184 C192 0.950 . S
H185 C197 0.950 . S
H186 C194 0.950 . S
H187 C196 0.950 . S
H188 C198 0.950 . S
H189 C200 0.950 . S
H190 C202 0.950 . S
H191 C203 0.950 . S
C192 H184 0.950 . S
C192 C193 1.386 . S
C192 C194 1.391 . S
C193 C192 1.386 . S
C193 C197 1.393 . S
C194 H186 0.950 . S
C194 C192 1.391 . S
C194 C195 1.400 . S
C195 C194 1.400 . S
C195 C196 1.398 . S
C195 C201 1.491 . S
C196 H187 0.950 . S
C196 C195 1.398 . S
C196 C197 1.391 . S
C197 H185 0.950 . S
C197 C193 1.393 . S
C197 C196 1.391 . S
C198 H188 0.950 . S
C198 C199 1.386 . S
C198 C200 1.391 . S
C199 C198 1.386 . S
C199 C203 1.393 . S
C200 H189 0.950 . S
C200 C198 1.391 . S
C200 C201 1.400 . S
C201 C195 1.491 . S
C201 C200 1.400 . S
C201 C202 1.398 . S
C202 H190 0.950 . S
C202 C201 1.398 . S
C202 C203 1.391 . S
C203 H191 0.950 . S
C203 C199 1.393 . S
C203 C202 1.391 . S
H204 C212 0.950 . S
H205 C217 0.950 . S
H206 C214 0.950 . S
H207 C216 0.950 . S
H208 C218 0.950 . S
H209 C220 0.950 . S
H210 C222 0.950 . S
H211 C223 0.950 . S
C212 H204 0.950 . S
C212 C213 1.386 . S
C212 C214 1.391 . S
C213 C212 1.386 . S
C213 C217 1.393 . S
C214 H206 0.950 . S
C214 C212 1.391 . S
C214 C215 1.400 . S
C215 C214 1.400 . S
C215 C216 1.398 . S
C215 C221 1.491 . S
C216 H207 0.950 . S
C216 C215 1.398 . S
C216 C217 1.391 . S
C217 H205 0.950 . S
C217 C213 1.393 . S
C217 C216 1.391 . S
C218 H208 0.950 . S
C218 C219 1.386 . S
C218 C220 1.391 . S
C219 C218 1.386 . S
C219 C223 1.393 . S
C220 H209 0.950 . S
C220 C218 1.391 . S
C220 C221 1.400 . S
C221 C215 1.491 . S
C221 C220 1.400 . S
C221 C222 1.398 . S
C222 H210 0.950 . S
C222 C221 1.398 . S
C222 C223 1.391 . S
C223 H211 0.950 . S
C223 C219 1.393 . S
C223 C222 1.391 . S
H224 C232 0.950 . S
H225 C237 0.950 . S
H226 C234 0.950 . S
H227 C236 0.950 . S
H228 C238 0.950 . S
H229 C240 0.950 . S
H230 C242 0.950 . S
H231 C243 0.950 . S
C232 H224 0.950 . S
C232 C233 1.386 . S
C232 C234 1.391 . S
C233 C232 1.386 . S
C233 C237 1.393 . S
C234 H226 0.950 . S
C234 C232 1.391 . S
C234 C235 1.400 . S
C235 C234 1.400 . S
C235 C236 1.398 . S
C235 C241 1.491 . S
C236 H227 0.950 . S
C236 C235 1.398 . S
C236 C237 1.391 . S
C237 H225 0.950 . S
C237 C233 1.393 . S
C237 C236 1.391 . S
C238 H228 0.950 . S
C238 C239 1.386 . S
C238 C240 1.391 . S
C239 C238 1.386 . S
C239 C243 1.393 . S
C240 H229 0.950 . S
C240 C238 1.391 . S
C240 C241 1.400 . S
C241 C235 1.491 . S
C241 C240 1.400 . S
C241 C242 1.398 . S
C242 H230 0.950 . S
C242 C241 1.398 . S
C242 C243 1.391 . S
C243 H231 0.950 . S
C243 C239 1.393 . S
C243 C242 1.391 . S
H244 C252 0.950 . S
H245 C257 0.950 . S
H246 C254 0.950 . S
H247 C256 0.950 . S
H248 C258 0.950 . S
H249 C260 0.950 . S
H250 C262 0.950 . S
H251 C263 0.950 . S
C252 H244 0.950 . S
C252 C253 1.386 . S
C252 C254 1.391 . S
C253 C252 1.386 . S
C253 C257 1.393 . S
C254 H246 0.950 . S
C254 C252 1.391 . S
C254 C255 1.400 . S
C255 C254 1.400 . S
C255 C256 1.398 . S
C255 C261 1.491 . S
C256 H247 0.950 . S
C256 C255 1.398 . S
C256 C257 1.391 . S
C257 H245 0.950 . S
C257 C253 1.393 . S
C257 C256 1.391 . S
C258 H248 0.950 . S
C258 C259 1.386 . S
C258 C260 1.391 . S
C259 C258 1.386 . S
C259 C263 1.393 . S
C260 H249 0.950 . S
C260 C258 1.391 . S
C260 C261 1.400 . S
C261 C255 1.491 . S
C261 C260 1.400 . S
C261 C262 1.398 . S
C262 H250 0.950 . S
C262 C261 1.398 . S
C262 C263 1.391 . S
C263 H251 0.950 . S
C263 C259 1.393 . S
C263 C262 1.391 . S
H264 C272 0.950 . S
H265 C277 0.950 . S
H266 C274 0.950 . S
H267 C276 0.950 . S
H268 C278 0.950 . S
H269 C280 0.950 . S
H270 C282 0.950 . S
H271 C283 0.950 . S
C272 H264 0.950 . S
C272 C273 1.386 . S
C272 C274 1.391 . S
C273 C272 1.386 . S
C273 C277 1.393 . S
C274 H266 0.950 . S
C274 C272 1.391 . S
C274 C275 1.400 . S
C275 C274 1.400 . S
C275 C276 1.398 . S
C275 C281 1.491 1_565 S
C276 H267 0.950 . S
C276 C275 1.398 . S
C276 C277 1.391 . S
C277 H265 0.950 . S
C277 C273 1.393 . S
C277 C276 1.391 . S
C278 H268 0.950 . S
C278 C279 1.386 . S
C278 C280 1.391 . S
C279 C278 1.386 . S
C279 C283 1.393 . S
C280 H269 0.950 . S
C280 C278 1.391 . S
C280 C281 1.400 . S
C281 C275 1.491 1_545 S
C281 C280 1.400 . S
C281 C282 1.398 . S
C282 H270 0.950 . S
C282 C281 1.398 . S
C282 C283 1.391 . S
C283 H271 0.950 . S
C283 C279 1.393 . S
C283 C282 1.391 . S
H284 C292 0.950 . S
H285 C297 0.950 1_545 S
H286 C294 0.950 . S
H287 C296 0.950 . S
H288 C298 0.950 . S
H289 C300 0.950 . S
H290 C302 0.950 . S
H291 C303 0.950 1_565 S
C292 H284 0.950 . S
C292 C293 1.386 . S
C292 C294 1.391 . S
C293 C292 1.386 . S
C293 C297 1.393 . S
C294 H286 0.950 . S
C294 C292 1.391 . S
C294 C295 1.400 . S
C295 C294 1.400 . S
C295 C296 1.398 1_565 S
C295 C301 1.491 1_565 S
C296 H287 0.950 . S
C296 C295 1.398 1_545 S
C296 C297 1.391 1_545 S
C297 H285 0.950 1_565 S
C297 C293 1.393 . S
C297 C296 1.391 1_565 S
C298 H288 0.950 . S
C298 C299 1.386 . S
C298 C300 1.391 . S
C299 C298 1.386 . S
C299 C303 1.393 . S
C300 H289 0.950 . S
C300 C298 1.391 . S
C300 C301 1.400 . S
C301 C295 1.491 1_545 S
C301 C300 1.400 . S
C301 C302 1.398 1_545 S
C302 H290 0.950 . S
C302 C301 1.398 1_565 S
C302 C303 1.391 1_565 S
C303 H291 0.950 1_545 S
C303 C299 1.393 . S
C303 C302 1.391 1_545 S
H304 C312 0.950 . S
H305 C317 0.950 . S
H306 C314 0.957 . S
H307 C316 0.950 . S
H308 C318 0.950 . S
H309 C320 0.957 . S
H310 C322 0.950 . S
H311 C323 0.950 . S
C312 H304 0.950 . S
C312 C313 1.386 . S
C312 C314 1.391 . S
C313 C312 1.386 . S
C313 C317 1.393 . S
C314 H306 0.957 . S
C314 C312 1.391 . S
C314 C315 1.400 . S
C315 C314 1.400 . S
C315 C316 1.398 . S
C315 C321 1.491 1_565 S
C316 H307 0.950 . S
C316 C315 1.398 . S
C316 C317 1.391 . S
C317 H305 0.950 . S
C317 C313 1.393 . S
C317 C316 1.391 . S
C318 H308 0.950 . S
C318 C319 1.386 . S
C318 C320 1.391 . S
C319 C318 1.386 . S
C319 C323 1.393 . S
C320 H309 0.957 . S
C320 C318 1.391 . S
C320 C321 1.400 . S
C321 C315 1.491 1_545 S
C321 C320 1.400 . S
C321 C322 1.398 . S
C322 H310 0.950 . S
C322 C321 1.398 . S
C322 C323 1.391 . S
C323 H311 0.950 . S
C323 C319 1.393 . S
C323 C322 1.391 . S
H324 C332 0.950 . S
H325 C337 0.950 . S
H326 C334 0.950 . S
H327 C336 0.950 . S
H328 C338 0.950 . S
H329 C340 0.950 . S
H330 C342 0.950 . S
H331 C343 0.950 . S
C332 H324 0.950 . S
C332 C333 1.386 . S
C332 C334 1.391 . S
C333 C332 1.386 . S
C333 C337 1.393 . S
C334 H326 0.950 . S
C334 C332 1.391 . S
C334 C335 1.400 . S
C335 C334 1.400 . S
C335 C336 1.398 1_565 S
C335 C341 1.491 1_565 S
C336 H327 0.950 . S
C336 C335 1.398 1_545 S
C336 C337 1.391 1_545 S
C337 H325 0.950 . S
C337 C333 1.393 . S
C337 C336 1.391 1_565 S
C338 H328 0.950 . S
C338 C339 1.386 . S
C338 C340 1.391 . S
C339 C338 1.386 . S
C339 C343 1.393 . S
C340 H329 0.950 . S
C340 C338 1.391 . S
C340 C341 1.400 . S
C341 C335 1.491 1_545 S
C341 C340 1.400 . S
C341 C342 1.398 1_545 S
C342 H330 0.950 . S
C342 C341 1.398 1_565 S
C342 C343 1.391 1_565 S
C343 H331 0.950 . S
C343 C339 1.393 . S
C343 C342 1.391 1_545 S
H344 C352 0.950 1_556 S
H345 C357 0.950 . S
H346 C354 0.950 1_556 S
H347 C356 0.950 1_545 S
H348 C358 0.950 . S
H349 C360 0.950 . S
H350 C362 0.950 1_566 S
H351 C363 0.950 1_556 S
C352 H344 0.950 1_554 S
C352 C353 1.386 . S
C352 C354 1.391 . S
C353 C352 1.386 . S
C353 C357 1.393 . S
C354 H346 0.950 1_554 S
C354 C352 1.391 . S
C354 C355 1.400 . S
C355 C354 1.400 . S
C355 C356 1.398 . S
C355 C361 1.491 1_565 S
C356 H347 0.950 1_565 S
C356 C355 1.398 . S
C356 C357 1.391 . S
C357 H345 0.950 . S
C357 C353 1.393 . S
C357 C356 1.391 . S
C358 H348 0.950 . S
C358 C359 1.386 . S
C358 C360 1.391 . S
C359 C358 1.386 . S
C359 C363 1.393 . S
C360 H349 0.950 . S
C360 C358 1.391 . S
C360 C361 1.400 . S
C361 C355 1.491 1_545 S
C361 C360 1.400 . S
C361 C362 1.398 . S
C362 H350 0.950 1_544 S
C362 C361 1.398 . S
C362 C363 1.391 . S
C363 H351 0.950 1_554 S
C363 C359 1.393 . S
C363 C362 1.391 . S
H364 C372 0.950 . S
H365 C377 0.950 . S
H366 C374 0.950 . S
H367 C376 0.950 . S
H368 C378 0.950 . S
H369 C380 0.950 . S
H370 C382 0.950 . S
H371 C383 0.950 . S
C372 H364 0.950 . S
C372 C373 1.386 . S
C372 C374 1.391 . S
C373 C372 1.386 . S
C373 C377 1.393 . S
C374 H366 0.950 . S
C374 C372 1.391 . S
C374 C375 1.400 . S
C375 C374 1.400 . S
C375 C376 1.398 . S
C375 C381 1.491 1_565 S
C376 H367 0.950 . S
C376 C375 1.398 . S
C376 C377 1.391 . S
C377 H365 0.950 . S
C377 C373 1.393 . S
C377 C376 1.391 . S
C378 H368 0.950 . S
C378 C379 1.386 . S
C378 C380 1.391 . S
C379 C378 1.386 . S
C379 C383 1.393 . S
C380 H369 0.950 . S
C380 C378 1.391 . S
C380 C381 1.400 . S
C381 C375 1.491 1_545 S
C381 C380 1.400 . S
C381 C382 1.398 . S
C382 H370 0.950 . S
C382 C381 1.398 . S
C382 C383 1.391 . S
C383 H371 0.950 . S
C383 C379 1.393 . S
C383 C382 1.391 . S
H384 C392 0.950 . S
H385 C397 0.950 . S
H386 C394 0.950 1_655 S
H387 C396 0.950 . S
H388 C398 0.950 . S
H389 C400 0.950 1_455 S
H390 C402 0.950 . S
H391 C403 0.950 . S
C392 H384 0.950 . S
C392 C393 1.386 1_556 S
C392 C394 1.391 . S
C393 C392 1.386 1_554 S
C393 C397 1.393 . S
C394 H386 0.950 1_455 S
C394 C392 1.391 . S
C394 C395 1.400 1_556 S
C395 C394 1.400 1_554 S
C395 C396 1.398 . S
C395 C401 1.491 1_455 S
C396 H387 0.950 . S
C396 C395 1.398 . S
C396 C397 1.391 . S
C397 H385 0.950 . S
C397 C393 1.393 . S
C397 C396 1.391 . S
C398 H388 0.950 . S
C398 C399 1.386 . S
C398 C400 1.391 . S
C399 C398 1.386 . S
C399 C403 1.393 1_554 S
C400 H389 0.950 1_655 S
C400 C398 1.391 . S
C400 C401 1.400 . S
C401 C395 1.491 1_655 S
C401 C400 1.400 . S
C401 C402 1.398 1_554 S
C402 H390 0.950 . S
C402 C401 1.398 1_556 S
C402 C403 1.391 . S
C403 H391 0.950 . S
C403 C399 1.393 1_556 S
C403 C402 1.391 . S
H404 C412 0.950 . S
H405 C417 0.950 . S
H406 C414 0.947 1_655 S
H407 C416 0.950 . S
H408 C418 0.950 . S
H409 C420 0.947 1_455 S
H410 C422 0.950 . S
H411 C423 0.950 . S
C412 H404 0.950 . S
C412 C413 1.386 . S
C412 C414 1.393 . S
C413 C412 1.386 . S
C413 C417 1.393 . S
C414 H406 0.947 1_455 S
C414 C412 1.393 . S
C414 C415 1.401 . S
C415 C414 1.401 . S
C415 C416 1.398 . S
C415 C421 1.491 1_455 S
C416 H407 0.950 . S
C416 C415 1.398 . S
C416 C417 1.391 . S
C417 H405 0.950 . S
C417 C413 1.393 . S
C417 C416 1.391 . S
C418 H408 0.950 . S
C418 C419 1.386 . S
C418 C420 1.393 . S
C419 C418 1.386 . S
C419 C423 1.393 . S
C420 H409 0.947 1_655 S
C420 C418 1.393 . S
C420 C421 1.401 . S
C421 C415 1.491 1_655 S
C421 C420 1.401 . S
C421 C422 1.398 . S
C422 H410 0.950 . S
C422 C421 1.398 . S
C422 C423 1.391 . S
C423 H411 0.950 . S
C423 C419 1.393 . S
C423 C422 1.391 . S
C113 C70 1.476 . S
C119 C5 1.483 . S
C133 C57 1.485 . S
C139 C18 1.481 . S
C153 C96 1.480 . S
C159 C31 1.472 . S
C173 C83 1.485 . S
C179 C44 1.484 . S
C193 C8 1.332 . S
C199 C34 1.306 . S
C213 C21 1.325 . S
C219 C47 1.311 . S
C233 C23 1.360 . S
C239 C49 1.358 . S
C253 C10 1.357 . S
C259 C36 1.360 . S
C273 C60 1.315 . S
C279 C86 1.321 . S
C293 C99 1.307 . S
C299 C73 1.334 . S
C313 C101 1.351 . S
C319 C75 1.352 . S
C333 C62 1.354 . S
C339 C88 1.351 . S
C353 C13 1.489 . S
C359 C0 1.504 . S
C373 C26 1.495 . S
C379 C39 1.499 . S
C393 C52 1.491 . S
C399 C65 1.503 . S
C413 C78 1.487 . S
C419 C91 1.503 . S
