# Generated by pormake.
# Topology lcs, (4)-cn, num edge types: 1
# Building blocks:
#     Node 0, Type 0, BuildingBlock: ICAMEG_clean_sbu_1, # of connection points: 4
#     Node 1, Type 0, BuildingBlock: ICAMEG_clean_sbu_1, # of connection points: 4
#     Node 2, Type 0, BuildingBlock: ICAMEG_clean_sbu_1, # of connection points: 4
#     Node 3, Type 0, BuildingBlock: ICAMEG_clean_sbu_1, # of connection points: 4
#     Node 4, Type 0, BuildingBlock: ICAMEG_clean_sbu_1, # of connection points: 4
#     Node 5, Type 0, BuildingBlock: ICAMEG_clean_sbu_1, # of connection points: 4
#     Node 6, Type 0, BuildingBlock: ICAMEG_clean_sbu_1, # of connection points: 4
#     Node 7, Type 0, BuildingBlock: ICAMEG_clean_sbu_1, # of connection points: 4
#     Node 8, Type 0, BuildingBlock: ICAMEG_clean_sbu_1, # of connection points: 4
#     Node 9, Type 0, BuildingBlock: ICAMEG_clean_sbu_1, # of connection points: 4
#     Node 10, Type 0, BuildingBlock: ICAMEG_clean_sbu_1, # of connection points: 4
#     Node 11, Type 0, BuildingBlock: ICAMEG_clean_sbu_1, # of connection points: 4
#     Node 12, Type 0, BuildingBlock: ICAMEG_clean_sbu_1, # of connection points: 4
#     Node 13, Type 0, BuildingBlock: ICAMEG_clean_sbu_1, # of connection points: 4
#     Node 14, Type 0, BuildingBlock: ICAMEG_clean_sbu_1, # of connection points: 4
#     Node 15, Type 0, BuildingBlock: ICAMEG_clean_sbu_1, # of connection points: 4
#     Node 16, Type 0, BuildingBlock: ICAMEG_clean_sbu_1, # of connection points: 4
#     Node 17, Type 0, BuildingBlock: ICAMEG_clean_sbu_1, # of connection points: 4
#     Node 18, Type 0, BuildingBlock: ICAMEG_clean_sbu_1, # of connection points: 4
#     Node 19, Type 0, BuildingBlock: ICAMEG_clean_sbu_1, # of connection points: 4
#     Node 20, Type 0, BuildingBlock: ICAMEG_clean_sbu_1, # of connection points: 4
#     Node 21, Type 0, BuildingBlock: ICAMEG_clean_sbu_1, # of connection points: 4
#     Node 22, Type 0, BuildingBlock: ICAMEG_clean_sbu_1, # of connection points: 4
#     Node 23, Type 0, BuildingBlock: ICAMEG_clean_sbu_1, # of connection points: 4
#     Edge 24, Type (0, 0), BuildingBlock: KIFKEQ_clean_linker_1, # of connection points: 2
#     Edge 25, Type (0, 0), BuildingBlock: KIFKEQ_clean_linker_1, # of connection points: 2
#     Edge 26, Type (0, 0), BuildingBlock: KIFKEQ_clean_linker_1, # of connection points: 2
#     Edge 27, Type (0, 0), BuildingBlock: KIFKEQ_clean_linker_1, # of connection points: 2
#     Edge 28, Type (0, 0), BuildingBlock: KIFKEQ_clean_linker_1, # of connection points: 2
#     Edge 29, Type (0, 0), BuildingBlock: KIFKEQ_clean_linker_1, # of connection points: 2
#     Edge 30, Type (0, 0), BuildingBlock: KIFKEQ_clean_linker_1, # of connection points: 2
#     Edge 31, Type (0, 0), BuildingBlock: KIFKEQ_clean_linker_1, # of connection points: 2
#     Edge 32, Type (0, 0), BuildingBlock: KIFKEQ_clean_linker_1, # of connection points: 2
#     Edge 33, Type (0, 0), BuildingBlock: KIFKEQ_clean_linker_1, # of connection points: 2
#     Edge 34, Type (0, 0), BuildingBlock: KIFKEQ_clean_linker_1, # of connection points: 2
#     Edge 35, Type (0, 0), BuildingBlock: KIFKEQ_clean_linker_1, # of connection points: 2
#     Edge 36, Type (0, 0), BuildingBlock: KIFKEQ_clean_linker_1, # of connection points: 2
#     Edge 37, Type (0, 0), BuildingBlock: KIFKEQ_clean_linker_1, # of connection points: 2
#     Edge 38, Type (0, 0), BuildingBlock: KIFKEQ_clean_linker_1, # of connection points: 2
#     Edge 39, Type (0, 0), BuildingBlock: KIFKEQ_clean_linker_1, # of connection points: 2
#     Edge 40, Type (0, 0), BuildingBlock: KIFKEQ_clean_linker_1, # of connection points: 2
#     Edge 41, Type (0, 0), BuildingBlock: KIFKEQ_clean_linker_1, # of connection points: 2
#     Edge 42, Type (0, 0), BuildingBlock: KIFKEQ_clean_linker_1, # of connection points: 2
#     Edge 43, Type (0, 0), BuildingBlock: KIFKEQ_clean_linker_1, # of connection points: 2
#     Edge 44, Type (0, 0), BuildingBlock: KIFKEQ_clean_linker_1, # of connection points: 2
#     Edge 45, Type (0, 0), BuildingBlock: KIFKEQ_clean_linker_1, # of connection points: 2
#     Edge 46, Type (0, 0), BuildingBlock: KIFKEQ_clean_linker_1, # of connection points: 2
#     Edge 47, Type (0, 0), BuildingBlock: KIFKEQ_clean_linker_1, # of connection points: 2
#     Edge 48, Type (0, 0), BuildingBlock: KIFKEQ_clean_linker_1, # of connection points: 2
#     Edge 49, Type (0, 0), BuildingBlock: KIFKEQ_clean_linker_1, # of connection points: 2
#     Edge 50, Type (0, 0), BuildingBlock: KIFKEQ_clean_linker_1, # of connection points: 2
#     Edge 51, Type (0, 0), BuildingBlock: KIFKEQ_clean_linker_1, # of connection points: 2
#     Edge 52, Type (0, 0), BuildingBlock: KIFKEQ_clean_linker_1, # of connection points: 2
#     Edge 53, Type (0, 0), BuildingBlock: KIFKEQ_clean_linker_1, # of connection points: 2
#     Edge 54, Type (0, 0), BuildingBlock: KIFKEQ_clean_linker_1, # of connection points: 2
#     Edge 55, Type (0, 0), BuildingBlock: KIFKEQ_clean_linker_1, # of connection points: 2
#     Edge 56, Type (0, 0), BuildingBlock: KIFKEQ_clean_linker_1, # of connection points: 2
#     Edge 57, Type (0, 0), BuildingBlock: KIFKEQ_clean_linker_1, # of connection points: 2
#     Edge 58, Type (0, 0), BuildingBlock: KIFKEQ_clean_linker_1, # of connection points: 2
#     Edge 59, Type (0, 0), BuildingBlock: KIFKEQ_clean_linker_1, # of connection points: 2
#     Edge 60, Type (0, 0), BuildingBlock: KIFKEQ_clean_linker_1, # of connection points: 2
#     Edge 61, Type (0, 0), BuildingBlock: KIFKEQ_clean_linker_1, # of connection points: 2
#     Edge 62, Type (0, 0), BuildingBlock: KIFKEQ_clean_linker_1, # of connection points: 2
#     Edge 63, Type (0, 0), BuildingBlock: KIFKEQ_clean_linker_1, # of connection points: 2
#     Edge 64, Type (0, 0), BuildingBlock: KIFKEQ_clean_linker_1, # of connection points: 2
#     Edge 65, Type (0, 0), BuildingBlock: KIFKEQ_clean_linker_1, # of connection points: 2
#     Edge 66, Type (0, 0), BuildingBlock: KIFKEQ_clean_linker_1, # of connection points: 2
#     Edge 67, Type (0, 0), BuildingBlock: KIFKEQ_clean_linker_1, # of connection points: 2
#     Edge 68, Type (0, 0), BuildingBlock: KIFKEQ_clean_linker_1, # of connection points: 2
#     Edge 69, Type (0, 0), BuildingBlock: KIFKEQ_clean_linker_1, # of connection points: 2
#     Edge 70, Type (0, 0), BuildingBlock: KIFKEQ_clean_linker_1, # of connection points: 2
#     Edge 71, Type (0, 0), BuildingBlock: KIFKEQ_clean_linker_1, # of connection points: 2
# Relax obj value: 0.037
# Max RMSD: 0.107
# Mean RMSD: 0.107
data_MOF--net-lcs--node1-ICAMEG_clean_sbu_1--edge1-KIFKEQ_clean_linker_1
_symmetry_space_group_name_H-M    P1
_symmetry_Int_Tables_number       1
_symmetry_cell_setting            triclinic
loop_
_symmetry_equiv_pos_as_xyz
'x, y, z'
_cell_length_a     52.466449
_cell_length_b     52.581382
_cell_length_c     52.536168
_cell_angle_alpha  93.279901
_cell_angle_beta   93.292054
_cell_angle_gamma 93.364526
loop_
_atom_site_label
_atom_site_type_symbol
_atom_site_fract_x
_atom_site_fract_y
_atom_site_fract_z
_atom_type_partial_charge
Co0 Co 1.00876 0.25857 0.42166 0.0
Co1 Co 0.03849 0.26259 0.36513 0.0
O2 O 0.01977 0.27794 0.39288 0.0
C3 C 0.9656 0.29309 0.40975 0.0
O4 O 0.97632 0.30114 0.38952 0.0
C5 C 0.06912 0.31221 0.37889 0.0
O6 O 0.06896 0.30793 0.40326 0.0
O7 O 0.06498 0.25152 0.3903 0.0
O8 O 0.04092 0.23976 0.42206 0.0
H9 H 0.08569 0.19348 0.32198 0.0
H10 H 1.01248 0.31556 0.42485 0.0
O11 O 0.97595 0.27657 0.42315 0.0
H12 H 0.06634 0.29086 0.49818 0.0
H13 H 0.96918 0.24651 0.50566 0.0
H14 H 1.0097 0.20422 0.43358 0.0
H15 H 0.04327 0.25806 0.46877 0.0
H16 H 0.98372 0.27122 0.47013 0.0
O17 O 0.05862 0.29581 0.36216 0.0
H18 H 0.06159 0.21303 0.35616 0.0
H19 H 0.05594 0.28025 0.31555 0.0
H20 H 0.99567 0.17883 0.46886 0.0
H21 H 0.03483 0.34895 0.45397 0.0
H22 H 0.97524 0.19999 0.50523 0.0
H23 H 0.0621 0.33673 0.49095 0.0
O24 O 0.99096 0.23168 0.3975 0.0
H25 H 0.9817 0.3257 0.32636 0.0
H26 H 1.00778 0.23718 0.32001 0.0
H27 H 0.97475 0.25054 0.28921 0.0
H28 H 0.96154 0.29516 0.2922 0.0
H29 H 0.01431 0.31133 0.35706 0.0
H30 H 0.08016 0.26151 0.28104 0.0
H31 H 0.09512 0.21778 0.28408 0.0
O32 O 0.01838 0.22908 0.36638 0.0
C33 C 0.06194 0.24034 0.41096 0.0
C34 C 0.07922 0.21253 0.3204 0.0
C35 C 0.07615 0.25073 0.29745 0.0
N36 N 0.05726 0.24771 0.33781 0.0
C37 C 0.06552 0.22368 0.33967 0.0
C38 C 0.06251 0.26127 0.3171 0.0
C39 C 0.08453 0.22618 0.29916 0.0
C40 C 0.02389 0.30997 0.44106 0.0
N41 N 0.02619 0.28476 0.44519 0.0
C42 C 0.0367 0.32903 0.45743 0.0
C43 C 0.05204 0.32217 0.47813 0.0
C44 C 0.05444 0.29645 0.48218 0.0
C45 C 0.04137 0.27793 0.4654 0.0
C46 C 0.9781 0.23708 0.48994 0.0
C47 C 1.00097 0.21359 0.44942 0.0
C48 C 0.98631 0.25096 0.46972 0.0
N49 N 0.99773 0.2392 0.44987 0.0
C50 C 0.993 0.19911 0.46931 0.0
C51 C 0.98151 0.21098 0.48969 0.0
C52 C 0.99893 0.22052 0.37753 0.0
C53 C 0.98722 0.30618 0.32489 0.0
C54 C 1.00183 0.25644 0.32176 0.0
C55 C 0.98326 0.26399 0.3041 0.0
C56 C 0.9759 0.28904 0.30575 0.0
N57 N 1.01272 0.2733 0.3406 0.0
C58 C 1.00573 0.29794 0.3422 0.0
Co59 Co 0.02703 0.78014 0.60852 0.0
Co60 Co 0.03984 0.75775 0.66761 0.0
O61 O 0.01587 0.76398 0.63898 0.0
C62 C 0.98274 0.80965 0.62313 0.0
O63 O 0.99206 0.81038 0.64691 0.0
C64 C 1.00966 0.70758 0.65827 0.0
O65 O 1.01386 0.7079 0.63388 0.0
O66 O 0.06144 0.73841 0.64401 0.0
O67 O 0.06015 0.76267 0.61023 0.0
H68 H 0.12677 0.7536 0.71197 0.0
H69 H 0.97646 0.75176 0.60661 0.0
O70 O 0.99421 0.7981 0.60556 0.0
H71 H 0.02407 0.7086 0.54021 0.0
H72 H 0.01469 0.81161 0.52017 0.0
H73 H 0.07571 0.80536 0.59419 0.0
H74 H 0.04378 0.7461 0.56598 0.0
H75 H 1.00127 0.79045 0.55836 0.0
O76 O 0.01913 0.7256 0.67381 0.0
H77 H 0.09626 0.76204 0.67641 0.0
H78 H 0.03391 0.7387 0.71955 0.0
H79 H 0.09 0.82648 0.5563 0.0
H80 H 0.95592 0.71445 0.58112 0.0
H81 H 0.05938 0.82971 0.51894 0.0
H82 H 0.97981 0.69258 0.54769 0.0
O83 O 0.04326 0.80969 0.63001 0.0
H84 H 0.95686 0.7811 0.70319 0.0
H85 H 0.05035 0.79911 0.70899 0.0
H86 H 0.02369 0.82383 0.73719 0.0
H87 H 0.97657 0.81484 0.73445 0.0
H88 H 0.98423 0.75707 0.6751 0.0
H89 H 0.06375 0.72981 0.75548 0.0
H90 H 0.11055 0.73736 0.75186 0.0
O91 O 0.06085 0.79029 0.66303 0.0
C92 C 0.06987 0.74522 0.62294 0.0
C93 C 0.10642 0.75029 0.7138 0.0
C94 C 0.07105 0.73691 0.73821 0.0
N95 N 0.06334 0.75103 0.69595 0.0
C96 C 0.08905 0.75509 0.69375 0.0
C97 C 0.05425 0.74191 0.71777 0.0
C98 C 0.09731 0.74116 0.73617 0.0
C99 C 0.98687 0.74247 0.59194 0.0
N100 N 1.01122 0.75117 0.5877 0.0
C101 C 0.97519 0.7213 0.57763 0.0
C102 C 0.98862 0.70902 0.5589 0.0
C103 C 1.01346 0.71799 0.55471 0.0
C104 C 0.02454 0.73919 0.5694 0.0
C105 C 0.02823 0.81026 0.5363 0.0
C106 C 0.06233 0.80653 0.57793 0.0
C107 C 0.02073 0.79834 0.558 0.0
N108 N 0.03777 0.79646 0.57838 0.0
C109 C 0.07051 0.81858 0.55657 0.0
C110 C 0.0533 0.82041 0.53562 0.0
C111 C 0.0583 0.80987 0.64998 0.0
C112 C 0.97737 0.78516 0.70461 0.0
C113 C 0.02987 0.79521 0.70752 0.0
C114 C 0.01486 0.8092 0.72363 0.0
C115 C 0.98843 0.80412 0.7221 0.0
N116 N 0.01888 0.77667 0.69037 0.0
C117 C 0.99298 0.77155 0.68881 0.0
Co118 Co 0.51232 0.7576 0.92739 0.0
Co119 Co 0.53954 0.76646 0.87023 0.0
O120 O 0.52287 0.77967 0.90042 0.0
C121 C 0.46577 0.78699 0.91704 0.0
O122 O 0.46762 0.78314 0.89232 0.0
C123 C 0.56887 0.81648 0.88651 0.0
O124 O 0.56294 0.81426 0.91022 0.0
O125 O 0.56631 0.75165 0.89264 0.0
O126 O 0.54294 0.73699 0.92372 0.0
H127 H 0.58056 0.69922 0.81762 0.0
H128 H 0.51582 0.81368 0.93857 0.0
O129 O 0.48167 0.77778 0.93269 0.0
H130 H 0.57609 0.78008 1.00189 0.0
H131 H 0.47706 0.73911 0.01208 0.0
H132 H 0.51019 0.70181 0.93325 0.0
H133 H 0.55085 0.75097 0.97033 0.0
H134 H 0.49117 0.76671 0.97852 0.0
O135 O 0.56172 0.79898 0.8694 0.0
H136 H 0.55909 0.71654 0.8548 0.0
H137 H 0.55612 0.78844 0.82211 0.0
H138 H 0.49648 0.67352 0.96641 0.0
H139 H 0.54026 0.84347 0.97018 0.0
H140 H 0.47976 0.69216 1.00618 0.0
H141 H 0.57079 0.82673 1.00204 0.0
O142 O 0.49204 0.73396 0.90174 0.0
H143 H 0.48272 0.83542 0.84432 0.0
H144 H 0.50716 0.74798 0.82334 0.0
H145 H 0.47341 0.76605 0.79663 0.0
H146 H 0.46104 0.81016 0.80701 0.0
H147 H 0.51606 0.8164 0.87073 0.0
H148 H 0.57777 0.77196 0.78471 0.0
H149 H 0.59005 0.72701 0.78224 0.0
O150 O 0.51758 0.73369 0.86892 0.0
C151 C 0.56357 0.73833 0.91201 0.0
C152 C 0.57524 0.71881 0.81844 0.0
C153 C 0.57371 0.75965 0.79999 0.0
N154 N 0.55619 0.75341 0.84057 0.0
C155 C 0.56302 0.72871 0.83941 0.0
C156 C 0.56152 0.76889 0.82126 0.0
C157 C 0.58058 0.73443 0.79861 0.0
C158 C 0.52886 0.8062 0.95253 0.0
N159 N 0.53201 0.78058 0.95244 0.0
C160 C 0.54275 0.82319 0.97031 0.0
C161 C 0.55991 0.81379 0.98815 0.0
C162 C 0.56293 0.78763 0.98804 0.0
C163 C 0.54872 0.77123 0.96997 0.0
C164 C 0.48432 0.73076 0.99484 0.0
C165 C 0.50303 0.71008 0.95054 0.0
C166 C 0.49226 0.74629 0.97573 0.0
N167 N 0.50158 0.7359 0.95397 0.0
C168 C 0.49525 0.69396 0.96923 0.0
C169 C 0.48585 0.70442 0.99153 0.0
C170 C 0.49848 0.72457 0.88028 0.0
C171 C 0.48794 0.81619 0.83959 0.0
C172 C 0.50168 0.76702 0.82817 0.0
C173 C 0.48266 0.77724 0.81287 0.0
C174 C 0.47576 0.80199 0.81868 0.0
N175 N 0.51353 0.78102 0.84866 0.0
C176 C 0.50689 0.80534 0.85443 0.0
Co177 Co 0.52521 0.27765 0.10897 0.0
Co178 Co 0.54181 0.25635 0.16781 0.0
O179 O 0.51617 0.26218 0.14046 0.0
C180 C 0.48213 0.30745 0.12628 0.0
O181 O 0.49264 0.30805 0.14959 0.0
C182 C 0.51082 0.2069 0.15983 0.0
O183 O 0.51349 0.20793 0.13521 0.0
O184 O 0.56208 0.23681 0.14325 0.0
O185 O 0.5581 0.25971 0.10864 0.0
H186 H 0.63088 0.25259 0.20739 0.0
H187 H 0.47476 0.24981 0.11093 0.0
O188 O 0.49255 0.29592 0.10796 0.0
H189 H 0.51692 0.2053 0.04128 0.0
H190 H 0.50725 0.30805 0.02092 0.0
H191 H 0.57285 0.30166 0.09096 0.0
H192 H 0.53851 0.24293 0.06531 0.0
H193 H 0.49628 0.28775 0.06037 0.0
O194 O 0.52163 0.22427 0.17536 0.0
H195 H 0.59847 0.26066 0.17339 0.0
H196 H 0.53894 0.23804 0.22035 0.0
H197 H 0.58472 0.32191 0.05173 0.0
H198 H 0.45232 0.21239 0.08721 0.0
H199 H 0.55179 0.3252 0.01637 0.0
H200 H 0.47347 0.18982 0.05216 0.0
O201 O 0.54272 0.30745 0.12918 0.0
H202 H 0.46145 0.28003 0.20862 0.0
H203 H 0.55459 0.29873 0.20764 0.0
H204 H 0.52973 0.3239 0.23727 0.0
H205 H 0.48282 0.31457 0.23794 0.0
H206 H 0.48698 0.25555 0.17904 0.0
H207 H 0.57071 0.22955 0.25479 0.0
H208 H 0.61705 0.23692 0.24845 0.0
O209 O 0.56236 0.28868 0.16157 0.0
C210 C 0.56889 0.2428 0.1213 0.0
C211 C 0.61074 0.24937 0.21041 0.0
C212 C 0.57697 0.23641 0.237 0.0
N213 N 0.56685 0.24999 0.19495 0.0
C214 C 0.5923 0.25397 0.19126 0.0
C215 C 0.55907 0.2412 0.21741 0.0
C216 C 0.60297 0.24056 0.23343 0.0
C217 C 0.48398 0.24021 0.09555 0.0
N218 N 0.5079 0.24856 0.08949 0.0
C219 C 0.47122 0.21899 0.08225 0.0
C220 C 0.48312 0.20631 0.06262 0.0
C221 C 0.5075 0.21496 0.05652 0.0
C222 C 0.51969 0.23623 0.07025 0.0
C223 C 0.52178 0.30669 0.03617 0.0
C224 C 0.55846 0.30289 0.07558 0.0
C225 C 0.51567 0.29526 0.05857 0.0
N226 N 0.53397 0.29336 0.07785 0.0
C227 C 0.56527 0.31443 0.05345 0.0
C228 C 0.54678 0.3163 0.03363 0.0
C229 C 0.55873 0.308 0.14844 0.0
C230 C 0.48189 0.28423 0.20857 0.0
C231 C 0.53417 0.29463 0.2077 0.0
C232 C 0.5202 0.3089 0.22459 0.0
C233 C 0.49389 0.30363 0.22498 0.0
N234 N 0.52227 0.27563 0.19164 0.0
C235 C 0.49648 0.27034 0.19194 0.0
Co236 Co 0.02812 0.75047 0.12238 0.0
Co237 Co 1.00331 0.76283 0.18106 0.0
O238 O 0.02016 0.77412 0.15083 0.0
C239 C 0.07381 0.78895 0.13045 0.0
O240 O 0.06567 0.79785 0.15213 0.0
C241 C 0.97206 0.80502 0.16397 0.0
O242 O 0.97323 0.79583 0.14034 0.0
O243 O 0.97514 0.74454 0.15906 0.0
O244 O 0.99511 0.72975 0.12516 0.0
H245 H 0.95917 0.69857 0.23345 0.0
H246 H 0.02801 0.80642 0.11572 0.0
O247 O 0.06152 0.77034 0.11762 0.0
H248 H 0.96586 0.76647 0.04929 0.0
H249 H 0.06048 0.72671 0.03626 0.0
H250 H 0.02382 0.6942 0.11334 0.0
H251 H 0.9893 0.74001 0.07872 0.0
H252 H 0.04987 0.75645 0.07154 0.0
O253 O 0.98312 0.7942 0.18229 0.0
H254 H 0.9808 0.71328 0.19599 0.0
H255 H 0.9893 0.78884 0.22986 0.0
H256 H 0.03394 0.6638 0.0784 0.0
H257 H 1.00532 0.83352 0.08646 0.0
H258 H 0.05242 0.68002 0.03951 0.0
H259 H 0.97389 0.8136 0.05296 0.0
O260 O 0.04626 0.72863 0.14656 0.0
H261 H 0.06194 0.83901 0.21098 0.0
H262 H 0.0375 0.74917 0.22502 0.0
H263 H 0.07237 0.77189 0.25229 0.0
H264 H 0.08475 0.81719 0.24541 0.0
H265 H 0.02749 0.81539 0.18384 0.0
H266 H 0.96759 0.77499 0.26758 0.0
H267 H 0.95245 0.72954 0.26959 0.0
O268 O 0.02301 0.73118 0.18108 0.0
C269 C 0.97546 0.73073 0.13835 0.0
C270 C 0.96575 0.71841 0.23284 0.0
C271 C 0.97045 0.76131 0.25198 0.0
N272 N 0.98648 0.75183 0.21083 0.0
C273 C 0.97807 0.72683 0.21171 0.0
C274 C 0.98269 0.76905 0.23054 0.0
C275 C 0.96197 0.7358 0.2531 0.0
C276 C 0.01477 0.79749 0.10097 0.0
N277 N 1.01034 0.77157 0.09879 0.0
C278 C 1.00179 0.813 0.08454 0.0
C279 C 0.98411 0.80181 0.0658 0.0
C280 C 0.97958 0.77538 0.06374 0.0
C281 C 0.9929 0.76049 0.08052 0.0
C282 C 0.0524 0.71941 0.05309 0.0
C283 C 0.03172 0.70141 0.09642 0.0
C284 C 0.04642 0.73616 0.07316 0.0
N285 N 0.03608 0.72708 0.09443 0.0
C286 C 0.03747 0.6841 0.07672 0.0
C287 C 0.04786 0.69321 0.05492 0.0
C288 C 0.04021 0.72112 0.16824 0.0
C289 C 0.05674 0.81927 0.21416 0.0
C290 C 0.04301 0.76874 0.22164 0.0
C291 C 0.06265 0.78158 0.23728 0.0
C292 C 0.06955 0.80701 0.23344 0.0
N293 N 0.03061 0.78085 0.20267 0.0
C294 C 0.03717 0.80582 0.19891 0.0
Co295 Co 0.52368 0.74456 0.41472 0.0
Co296 Co 0.53628 0.77137 0.35857 0.0
O297 O 0.51215 0.76158 0.38413 0.0
C298 C 0.47115 0.71957 0.39865 0.0
O299 O 0.47217 0.72818 0.37578 0.0
C300 C 0.50629 0.81778 0.36563 0.0
O301 O 0.50786 0.81579 0.39046 0.0
O302 O 0.55793 0.79206 0.38537 0.0
O303 O 0.55766 0.76493 0.41674 0.0
H304 H 0.62361 0.78686 0.32576 0.0
H305 H 0.47514 0.77096 0.41333 0.0
O306 O 0.49004 0.72385 0.41501 0.0
H307 H 0.5264 0.81086 0.48821 0.0
H308 H 0.5144 0.70715 0.50017 0.0
H309 H 0.57218 0.72253 0.43111 0.0
H310 H 0.54309 0.77618 0.46172 0.0
H311 H 0.49985 0.72938 0.46242 0.0
O312 O 0.51658 0.80179 0.35096 0.0
H313 H 0.59279 0.77381 0.35698 0.0
H314 H 0.53091 0.79106 0.30644 0.0
H315 H 0.58759 0.70045 0.46867 0.0
H316 H 0.45749 0.80526 0.43953 0.0
H317 H 0.5586 0.69262 0.50353 0.0
H318 H 0.48321 0.82556 0.47725 0.0
O319 O 0.5374 0.71703 0.3925 0.0
H320 H 0.45349 0.74215 0.30986 0.0
H321 H 0.54632 0.73167 0.31793 0.0
H322 H 0.51954 0.70551 0.28507 0.0
H323 H 0.47277 0.71072 0.28079 0.0
H324 H 0.48093 0.76761 0.34279 0.0
H325 H 0.56108 0.80448 0.27475 0.0
H326 H 0.6078 0.80233 0.28429 0.0
O327 O 0.55682 0.7411 0.36467 0.0
C328 C 0.56695 0.7847 0.40658 0.0
C329 C 0.60329 0.78783 0.32135 0.0
C330 C 0.5682 0.79775 0.29274 0.0
N331 N 0.56006 0.78155 0.33351 0.0
C332 C 0.58574 0.78042 0.33894 0.0
C333 C 0.55121 0.79019 0.3108 0.0
C334 C 0.59441 0.79653 0.2981 0.0
C335 C 0.48635 0.77942 0.42986 0.0
N336 N 0.51012 0.77142 0.436 0.0
C337 C 0.47629 0.79896 0.44457 0.0
C338 C 0.49075 0.81038 0.46569 0.0
C339 C 0.51499 0.80217 0.47183 0.0
C340 C 0.52442 0.78258 0.45667 0.0
C341 C 0.52722 0.71047 0.48512 0.0
C342 C 0.5595 0.71931 0.44627 0.0
C343 C 0.51906 0.72298 0.46365 0.0
N344 N 0.53521 0.72738 0.44463 0.0
C345 C 0.56831 0.70674 0.46746 0.0
C346 C 0.55203 0.70234 0.487 0.0
C347 C 0.55281 0.71987 0.37478 0.0
C348 C 0.47385 0.73969 0.31153 0.0
C349 C 0.52594 0.73384 0.31645 0.0
C350 C 0.51089 0.71907 0.29767 0.0
C351 C 0.48467 0.72204 0.29526 0.0
N352 N 0.51518 0.75103 0.33245 0.0
C353 C 0.4895 0.75412 0.33009 0.0
Co354 Co 0.52974 0.24673 0.61968 0.0
Co355 Co 0.50582 0.25925 0.67822 0.0
O356 O 0.52295 0.27059 0.64828 0.0
C357 C 0.57717 0.28251 0.62811 0.0
O358 O 0.57175 0.28801 0.65176 0.0
C359 C 0.47542 0.30335 0.66413 0.0
O360 O 0.47174 0.29285 0.64082 0.0
O361 O 0.47652 0.24369 0.6559 0.0
O362 O 0.49665 0.2262 0.6234 0.0
H363 H 0.45719 0.19627 0.72851 0.0
H364 H 0.53024 0.30243 0.61312 0.0
O365 O 0.56286 0.26643 0.61388 0.0
H366 H 0.46567 0.26354 0.54836 0.0
H367 H 0.55933 0.22225 0.53256 0.0
H368 H 0.5249 0.19045 0.61098 0.0
H369 H 0.48973 0.23664 0.57688 0.0
H370 H 0.54997 0.25227 0.56811 0.0
O371 O 0.48854 0.2924 0.68102 0.0
H372 H 0.47957 0.21073 0.6914 0.0
H373 H 0.49435 0.2846 0.7282 0.0
H374 H 0.53378 0.15976 0.57578 0.0
H375 H 0.50684 0.33003 0.58481 0.0
H376 H 0.55112 0.17563 0.53622 0.0
H377 H 0.47422 0.31061 0.55217 0.0
O378 O 0.54835 0.22509 0.64368 0.0
H379 H 0.56999 0.33009 0.71078 0.0
H380 H 0.53912 0.241 0.72061 0.0
H381 H 0.57557 0.26006 0.74834 0.0
H382 H 0.59119 0.30495 0.7436 0.0
H383 H 0.5339 0.31013 0.68308 0.0
H384 H 0.47197 0.271 0.76562 0.0
H385 H 0.45328 0.22651 0.76597 0.0
O386 O 0.52287 0.22586 0.67657 0.0
C387 C 0.47666 0.2289 0.63584 0.0
C388 C 0.46533 0.21568 0.72862 0.0
C389 C 0.47359 0.25763 0.74944 0.0
N390 N 0.48846 0.2484 0.70773 0.0
C391 C 0.47809 0.22395 0.7077 0.0
C392 C 0.48621 0.26523 0.72817 0.0
C393 C 0.46312 0.23266 0.74962 0.0
C394 C 0.5163 0.29379 0.5988 0.0
N395 N 0.51153 0.26791 0.59657 0.0
C396 C 0.50301 0.30954 0.58289 0.0
C397 C 0.48468 0.29864 0.56461 0.0
C398 C 0.47987 0.27223 0.56247 0.0
C399 C 0.49352 0.25709 0.57873 0.0
C400 C 0.55174 0.2151 0.54968 0.0
C401 C 0.53232 0.1975 0.59377 0.0
C402 C 0.54646 0.232 0.56991 0.0
N403 N 0.53675 0.22312 0.59155 0.0
C404 C 0.53737 0.18004 0.57393 0.0
C405 C 0.54712 0.18895 0.55175 0.0
C406 C 0.5409 0.21643 0.66441 0.0
C407 C 0.56336 0.31051 0.71304 0.0
C408 C 0.54599 0.26044 0.71817 0.0
C409 C 0.56655 0.27118 0.73406 0.0
C410 C 0.57527 0.29639 0.73142 0.0
N411 N 0.53446 0.27439 0.70011 0.0
C412 C 0.54284 0.29914 0.69749 0.0
Co413 Co 0.02754 0.24664 0.91817 0.0
Co414 Co 0.03364 0.27853 0.8637 0.0
O415 O 1.01267 0.26641 0.89092 0.0
C416 C 0.97601 0.22012 0.90386 0.0
O417 O 0.9787 0.22491 0.8799 0.0
C418 C 0.99648 0.31986 0.87362 0.0
O419 O 0.98666 0.3079 0.89234 0.0
O420 O 0.05805 0.29664 0.88994 0.0
O421 O 0.06186 0.26589 0.91737 0.0
H422 H 0.11666 0.29567 0.82276 0.0
H423 H 0.97974 0.27218 0.92746 0.0
O424 O 0.99379 0.22697 0.92082 0.0
H425 H 0.04245 0.30824 0.9954 0.0
H426 H 0.02767 0.2025 1.0008 0.0
H427 H 0.07639 0.22176 0.92598 0.0
H428 H 0.05448 0.27553 0.96359 0.0
H429 H 1.00954 0.22825 0.96724 0.0
O430 O 0.01461 0.31067 0.86155 0.0
H431 H 0.08917 0.27998 0.85579 0.0
H432 H 0.02344 0.30405 0.81506 0.0
H433 H 0.09533 0.1961 0.95921 0.0
H434 H 0.9668 0.30466 0.95908 0.0
H435 H 0.07091 0.18632 0.99696 0.0
H436 H 0.9983 0.32299 0.99332 0.0
O437 O 0.03747 0.2208 0.89199 0.0
H438 H 0.94625 0.25159 0.8227 0.0
H439 H 0.03903 0.24417 0.81746 0.0
H440 H 1.00922 0.22109 0.785 0.0
H441 H 0.96243 0.22483 0.78738 0.0
H442 H 0.97664 0.27387 0.85499 0.0
H443 H 0.05025 0.32021 0.78173 0.0
H444 H 0.0972 0.31595 0.78539 0.0
O445 O 0.05378 0.24705 0.86414 0.0
C446 C 0.06952 0.28711 0.90884 0.0
C447 C 0.09621 0.29756 0.8209 0.0
C448 C 0.05895 0.31136 0.79789 0.0
N449 N 0.05471 0.29091 0.83727 0.0
C450 C 0.08054 0.28866 0.83952 0.0
C451 C 0.04388 0.30223 0.81687 0.0
C452 C 0.08529 0.30896 0.79996 0.0
C453 C 0.99352 0.27998 0.94235 0.0
N454 N 0.01786 0.27204 0.94354 0.0
C455 C 0.9861 0.2984 0.96018 0.0
C456 C 1.00378 0.3087 0.97937 0.0
C457 C 0.02856 0.30045 0.98053 0.0
C458 C 0.0353 0.282 0.96237 0.0
C459 C 0.03852 0.20667 0.98447 0.0
C460 C 0.0657 0.21769 0.94241 0.0
C461 C 0.02833 0.2212 0.96536 0.0
N462 N 0.04197 0.22665 0.94473 0.0
C463 C 0.0765 0.20311 0.96114 0.0
C464 C 0.06278 0.1976 0.9823 0.0
C465 C 0.05082 0.22498 0.87294 0.0
C466 C 0.9666 0.24996 0.82133 0.0
C467 C 0.01872 0.24586 0.81876 0.0
C468 C 1.00192 0.23277 0.80024 0.0
C469 C 0.97568 0.2349 0.80157 0.0
N470 N 1.0097 0.26076 0.83805 0.0
C471 C 0.98398 0.26278 0.8395 0.0
Co472 Co 0.37513 0.03428 0.26457 0.0
Co473 Co 0.43047 1.00765 0.24962 0.0
O474 O 0.40572 0.01685 0.27448 0.0
C475 C 0.3766 0.07589 0.3061 0.0
O476 O 0.37749 0.0928 0.28866 0.0
C477 C 0.42287 0.96065 0.27835 0.0
O478 O 0.39808 0.96298 0.27649 0.0
O479 O 0.40289 0.98802 0.22796 0.0
O480 O 0.37189 0.01562 0.22969 0.0
H481 H 0.46153 0.99458 0.16139 0.0
H482 H 0.3772 1.00661 0.3122 0.0
O483 O 0.37723 0.05218 0.29965 0.0
H484 H 0.30189 0.96737 0.26094 0.0
H485 H 0.28969 0.07026 0.27861 0.0
H486 H 0.35766 0.05973 0.2185 0.0
H487 H 0.32796 1.00284 0.24491 0.0
H488 H 0.32783 0.04728 0.29052 0.0
O489 O 0.43794 0.97658 0.26839 0.0
H490 H 0.4311 1.00712 0.19319 0.0
H491 H 0.48219 0.9868 0.25327 0.0
H492 H 0.31977 0.08275 0.20575 0.0
H493 H 0.3514 0.97149 0.3292 0.0
H494 H 0.28546 0.08814 0.23593 0.0
H495 H 0.3135 0.95152 0.30345 0.0
O496 O 0.39726 0.06229 0.25125 0.0
H497 H 0.47897 0.03612 0.33259 0.0
H498 H 0.47226 0.04629 0.23977 0.0
H499 H 0.50558 0.07176 0.26671 0.0
H500 H 0.50915 0.06669 0.31347 0.0
H501 H 0.44573 1.0112 0.30497 0.0
H502 H 0.51309 0.97384 0.2221 0.0
H503 H 0.50288 0.97779 0.17579 0.0
O504 O 0.42443 0.03871 0.23029 0.0
C505 C 0.38164 0.99595 0.2196 0.0
C506 C 0.46623 0.99282 0.18152 0.0
C507 C 0.49515 0.98115 0.21559 0.0
N508 N 0.45491 0.99784 0.22507 0.0
C509 C 0.44909 0.99995 0.19962 0.0
C510 C 0.47754 0.98845 0.23314 0.0
C511 C 0.48942 0.98339 0.18961 0.0
C512 C 0.3606 0.9982 0.30097 0.0
N513 N 0.35416 1.00677 0.27752 0.0
C514 C 0.34612 0.97824 0.31066 0.0
C515 C 0.32489 0.96701 0.29619 0.0
C516 C 0.31839 0.97587 0.27232 0.0
C517 C 0.33333 0.99586 0.26325 0.0
C518 C 0.30451 0.06803 0.26529 0.0
C519 C 0.34278 0.06197 0.23171 0.0
C520 C 0.32617 0.05507 0.27194 0.0
N521 N 0.34495 0.05215 0.2552 0.0
C522 C 0.32138 0.07503 0.2244 0.0
C523 C 0.30214 0.07805 0.24134 0.0
C524 C 0.41459 0.0599 0.2353 0.0
C525 C 0.47764 0.03845 0.31224 0.0
C526 C 0.4736 0.04405 0.26012 0.0
C527 C 0.49256 0.05849 0.27527 0.0
C528 C 0.49456 0.05562 0.3015 0.0
N529 N 0.45712 0.02719 0.27078 0.0
C530 C 0.45891 0.02435 0.29649 0.0
Co531 Co 0.2566 0.16742 0.53565 0.0
Co532 Co 0.27967 0.1084 0.52148 0.0
O533 O 0.26319 0.13915 0.51119 0.0
C534 C 0.20809 0.15825 0.50194 0.0
O535 O 0.21272 0.13416 0.49796 0.0
C536 C 0.30933 0.12531 0.47785 0.0
O537 O 0.3083 0.14902 0.48678 0.0
O538 O 0.30875 0.1296 0.53925 0.0
O539 O 0.28989 0.16358 0.55543 0.0
H540 H 0.32432 0.05419 0.58358 0.0
H541 H 0.254 0.17536 0.48012 0.0
O542 O 0.2232 0.17313 0.51662 0.0
H543 H 0.32032 0.23882 0.51813 0.0
H544 H 0.22721 0.25414 0.56163 0.0
H545 H 0.26241 0.17561 0.592 0.0
H546 H 0.29723 0.20969 0.54525 0.0
H547 H 0.23612 0.21891 0.53103 0.0
O548 O 0.29887 0.10712 0.48938 0.0
H549 H 0.30315 0.09232 0.57013 0.0
H550 H 0.29184 0.05961 0.49421 0.0
H551 H 0.25397 0.21046 0.62325 0.0
H552 H 0.27634 0.20438 0.45233 0.0
H553 H 0.23624 0.25008 0.6081 0.0
H554 H 0.30986 0.23633 0.4713 0.0
O555 O 0.2385 0.14332 0.55762 0.0
H556 H 0.21805 0.08125 0.44678 0.0
H557 H 0.24516 0.06478 0.53542 0.0
H558 H 0.20913 0.03861 0.51333 0.0
H559 H 0.1954 0.04672 0.46864 0.0
H560 H 0.2537 0.10728 0.46978 0.0
H561 H 0.31307 0.02123 0.50679 0.0
H562 H 0.32939 0.0183 0.55179 0.0
O563 O 0.26089 0.10835 0.55381 0.0
C564 C 0.30919 0.15004 0.55357 0.0
C565 C 0.31722 0.0552 0.56394 0.0
C566 C 0.31093 0.03672 0.52083 0.0
N567 N 0.29609 0.0781 0.53148 0.0
C568 C 0.30516 0.07671 0.55623 0.0
C569 C 0.29897 0.05852 0.51381 0.0
C570 C 0.32008 0.03508 0.54608 0.0
C571 C 0.26831 0.18941 0.48858 0.0
N572 N 0.27421 0.19086 0.51432 0.0
C573 C 0.28101 0.20571 0.47272 0.0
C574 C 0.29985 0.2236 0.48337 0.0
C575 C 0.30574 0.22498 0.50963 0.0
C576 C 0.29267 0.20836 0.52489 0.0
C577 C 0.23497 0.23699 0.56846 0.0
C578 C 0.25482 0.19284 0.58526 0.0
C579 C 0.24 0.21694 0.55123 0.0
N580 N 0.24993 0.19528 0.55971 0.0
C581 C 0.25002 0.21249 0.60304 0.0
C582 C 0.24005 0.2347 0.59453 0.0
C583 C 0.24425 0.12139 0.56459 0.0
C584 C 0.22387 0.07752 0.46625 0.0
C585 C 0.23912 0.06864 0.5161 0.0
C586 C 0.2188 0.05365 0.50363 0.0
C587 C 0.21114 0.05817 0.47853 0.0
N588 N 0.25147 0.08763 0.50395 0.0
C589 C 0.24413 0.09211 0.47932 0.0
Co590 Co 0.17959 1.00813 0.76041 0.0
Co591 Co 0.12011 0.02964 0.74599 0.0
O592 O 0.14842 0.02372 0.77051 0.0
C593 C 0.16326 0.97759 0.80344 0.0
O594 O 0.13967 0.97723 0.79359 0.0
C595 C 0.12907 0.08025 0.77528 0.0
O596 O 0.15355 0.07998 0.77137 0.0
O597 O 0.14392 0.04864 0.72432 0.0
O598 O 0.17921 0.02663 0.72795 0.0
H599 H 0.07687 0.03256 0.65847 0.0
H600 H 0.17869 0.03532 0.81122 0.0
O601 O 0.1813 0.98928 0.79271 0.0
H602 H 0.24773 0.08024 0.76834 0.0
H603 H 0.26789 0.97719 0.77573 0.0
H604 H 0.19643 0.98486 0.71199 0.0
H605 H 0.22314 0.04294 0.74674 0.0
H606 H 0.2288 0.99746 0.78796 0.0
O607 O 0.11363 0.06204 0.76601 0.0
H608 H 0.11207 0.02457 0.68959 0.0
H609 H 0.06796 0.04862 0.75084 0.0
H610 H 0.23526 0.96464 0.69888 0.0
H611 H 0.20295 0.07242 0.83365 0.0
H612 H 0.27133 0.96071 0.73087 0.0
H613 H 0.23771 0.09518 0.81215 0.0
O614 O 0.159 0.97857 0.74273 0.0
H615 H 0.08324 1.00753 0.82872 0.0
H616 H 0.07893 0.98798 0.73561 0.0
H617 H 0.05033 0.96359 0.76225 0.0
H618 H 0.05233 0.97336 0.80917 0.0
H619 H 0.11174 0.03122 0.8014 0.0
H620 H 0.03236 0.05705 0.72038 0.0
H621 H 0.03666 0.04892 0.67382 0.0
O622 O 0.12502 0.99697 0.72572 0.0
C623 C 0.16595 0.04314 0.71726 0.0
C624 C 0.07474 0.03612 0.67871 0.0
C625 C 0.04977 0.04989 0.71345 0.0
N626 N 0.09202 0.03596 0.72201 0.0
C627 C 0.09458 0.03157 0.69642 0.0
C628 C 0.07003 0.04514 0.73061 0.0
C629 C 0.05219 0.04531 0.68734 0.0
C630 C 0.19392 0.04502 0.80183 0.0
N631 N 0.19953 0.03693 0.77773 0.0
C632 C 0.20753 0.06606 0.81459 0.0
C633 C 0.22701 0.07884 0.8025 0.0
C634 C 0.23262 0.07048 0.77791 0.0
C635 C 0.21858 0.04939 0.76574 0.0
C636 C 0.25232 0.97883 0.7616 0.0
C637 C 0.21211 0.98334 0.72598 0.0
C638 C 0.23012 0.99024 0.76843 0.0
N639 N 0.21044 0.9925 0.75065 0.0
C640 C 0.23402 0.97182 0.71846 0.0
C641 C 0.25424 0.9696 0.73643 0.0
C642 C 0.13874 0.97787 0.72799 0.0
C643 C 0.08215 1.00313 0.80829 0.0
C644 C 0.08007 0.99223 0.75601 0.0
C645 C 0.06374 0.97842 0.771 0.0
C646 C 0.06484 0.98393 0.79732 0.0
N647 N 0.09703 1.01101 0.76691 0.0
C648 C 0.09817 0.01656 0.7927 0.0
Co649 Co 0.27353 0.86133 0.02718 0.0
Co650 Co 0.24553 0.91834 0.01954 0.0
O651 O 0.26334 0.88903 1.00581 0.0
C652 C 0.31997 0.87247 0.99717 0.0
O653 O 0.31504 0.89657 0.99605 0.0
C654 C 0.21711 0.90261 0.96905 0.0
O655 O 0.22238 0.8788 0.97165 0.0
O656 O 0.2186 0.89492 0.03281 0.0
O657 O 0.24191 0.86349 0.0465 0.0
H658 H 0.20137 0.96763 0.08698 0.0
H659 H 0.27241 0.8527 0.97087 0.0
O660 O 0.30552 0.85723 1.00868 0.0
H661 H 0.2119 0.78641 0.9993 0.0
H662 H 0.30914 0.77655 0.0442 0.0
H663 H 0.27348 0.85348 0.08259 0.0
H664 H 0.23546 0.81717 0.03054 0.0
H665 H 0.29571 0.81086 0.01727 0.0
O666 O 0.22432 0.91975 0.98651 0.0
H667 H 0.22404 0.93152 0.06917 0.0
H668 H 0.22881 0.96686 0.99873 0.0
H669 H 0.28647 0.81952 0.11019 0.0
H670 H 0.24966 0.82198 0.93898 0.0
H671 H 0.30446 0.78071 0.09101 0.0
H672 H 0.21902 0.78861 0.95312 0.0
O673 O 0.29241 0.88649 0.05235 0.0
H674 H 0.30266 0.94956 0.95279 0.0
H675 H 0.27742 0.96443 0.04106 0.0
H676 H 0.31094 0.99292 0.02486 0.0
H677 H 0.3237 0.98564 0.98035 0.0
H678 H 0.26958 0.92124 0.96998 0.0
H679 H 0.20601 1.00322 0.01572 0.0
H680 H 0.19222 1.00381 0.06018 0.0
O681 O 0.26644 0.91891 0.05289 0.0
C682 C 0.22122 0.87503 0.04534 0.0
C683 C 0.20735 0.96762 0.0676 0.0
C684 C 0.20992 0.98758 0.0276 0.0
N685 N 0.22789 0.94714 0.033 0.0
C686 C 0.22024 0.94726 0.05743 0.0
C687 C 0.22276 0.9669 0.01806 0.0
C688 C 0.20219 0.98791 0.05255 0.0
C689 C 0.25934 0.83807 0.97722 0.0
N690 N 0.25522 0.83683 1.00258 0.0
C691 C 0.24641 0.8208 0.95905 0.0
C692 C 0.22918 0.80211 0.96698 0.0
C693 C 0.22514 0.8009 0.99288 0.0
C694 C 0.23841 0.81851 1.0105 0.0
C695 C 0.3013 0.79336 0.05278 0.0
C696 C 0.28118 0.8366 0.07408 0.0
C697 C 0.29373 0.81289 0.03764 0.0
N698 N 0.28371 0.83413 0.04833 0.0
C699 C 0.28855 0.81746 0.08981 0.0
C700 C 0.29866 0.7957 0.07904 0.0
C701 C 0.28541 0.90753 0.06217 0.0
C702 C 0.29725 0.95295 0.97221 0.0
C703 C 0.28308 0.96091 0.02183 0.0
C704 C 0.30196 0.97722 0.01268 0.0
C705 C 0.30908 0.97316 0.98769 0.0
N706 N 0.2716 0.94109 1.00656 0.0
C707 C 0.27844 0.93704 0.98202 0.0
Co708 Co 0.26411 0.42129 0.01476 0.0
Co709 Co 0.26437 0.36667 0.04738 0.0
O710 O 0.28163 0.39245 0.02776 0.0
C711 C 0.27758 0.41812 0.96055 0.0
O712 O 0.25301 0.4146 0.95418 0.0
C713 C 0.31434 0.38025 0.07646 0.0
O714 O 0.31127 0.40433 0.07256 0.0
O715 O 0.25414 0.39383 0.07211 0.0
O716 O 0.24312 0.42393 0.04562 0.0
H717 H 0.19215 0.32963 0.09519 0.0
H718 H 0.32084 0.42372 0.01859 0.0
O719 O 0.28545 0.41976 0.98405 0.0
H720 H 0.29711 0.49783 0.07193 0.0
H721 H 0.25865 0.50454 0.97223 0.0
H722 H 0.21015 0.43491 1.01074 0.0
H723 H 0.26389 0.46882 0.04883 0.0
H724 H 0.2808 0.46865 0.98966 0.0
O725 O 0.29707 0.36318 0.06845 0.0
H726 H 0.21388 0.36145 0.06982 0.0
H727 H 0.2792 0.31748 0.06787 0.0
H728 H 0.18724 0.47049 0.99364 0.0
H729 H 0.35473 0.45252 0.04096 0.0
H730 H 0.21153 0.50563 0.97421 0.0
H731 H 0.34295 0.48982 0.06799 0.0
O732 O 0.23723 0.39705 0.99691 0.0
H733 H 0.3255 0.3229 0.9919 0.0
H734 H 0.23692 0.32147 0.01875 0.0
H735 H 0.24896 0.28855 0.98712 0.0
H736 H 0.29356 0.28907 0.97355 0.0
H737 H 0.31258 0.35563 0.0233 0.0
H738 H 0.25824 0.28529 0.09339 0.0
H739 H 0.21436 0.29121 0.10713 0.0
O740 O 0.23132 0.36865 0.02656 0.0
C741 C 0.24312 0.41423 0.06741 0.0
C742 C 0.21124 0.3268 0.08925 0.0
C743 C 0.24835 0.30193 0.08827 0.0
N744 N 0.24771 0.34125 0.06722 0.0
C745 C 0.22362 0.34472 0.07483 0.0
C746 C 0.26015 0.32026 0.07388 0.0
C747 C 0.22372 0.30526 0.09597 0.0
C748 C 0.31554 0.44006 0.03008 0.0
N749 N 0.29036 0.4445 0.03245 0.0
C750 C 0.33483 0.45624 0.04281 0.0
C751 C 0.3282 0.47713 0.05801 0.0
C752 C 0.30249 0.4816 0.06027 0.0
C753 C 0.28374 0.465 0.04728 0.0
C754 C 0.24786 0.48936 0.98068 0.0
C755 C 0.22086 0.45017 1.00238 0.0
C756 C 0.26029 0.46897 0.99056 0.0
N757 N 0.24678 0.44974 1.00128 0.0
C758 C 0.20778 0.47025 0.9927 0.0
C759 C 0.22142 0.48996 0.98179 0.0
C760 C 0.22451 0.37845 1.00574 0.0
C761 C 0.30603 0.32243 0.99771 0.0
C762 C 0.25635 0.3219 0.01289 0.0
C763 C 0.26306 0.30317 0.995 0.0
C764 C 0.28809 0.30347 0.98741 0.0
N765 N 0.27408 0.34039 0.02299 0.0
C766 C 0.29862 0.34086 0.01555 0.0
Co767 Co 0.76552 0.1808 1.00701 0.0
Co768 Co 0.75039 0.12157 0.02797 0.0
O769 O 0.77545 0.14952 0.0223 0.0
C770 C 0.8093 0.1653 0.97709 0.0
O771 O 0.7995 0.1417 0.97618 0.0
C772 C 0.78106 0.1293 0.07772 0.0
O773 O 0.77769 0.15384 0.07741 0.0
O774 O 0.72979 0.14542 0.04796 0.0
O775 O 0.7325 0.17999 0.02489 0.0
H776 H 0.66206 0.08016 0.03199 0.0
H777 H 0.81595 0.18006 0.03511 0.0
O778 O 0.79827 0.18304 0.98885 0.0
H779 H 0.77165 0.24799 0.07981 0.0
H780 H 0.78095 0.26947 0.97729 0.0
H781 H 0.71734 0.19747 0.98296 0.0
H782 H 0.75085 0.22372 0.04192 0.0
H783 H 0.79307 0.23029 0.99735 0.0
O784 O 0.7709 0.11401 0.05981 0.0
H785 H 0.69377 0.11487 0.02405 0.0
H786 H 0.7544 0.06891 0.0456 0.0
H787 H 0.70432 0.23639 0.96295 0.0
H788 H 0.83759 0.20404 0.0728 0.0
H789 H 0.73626 0.27273 0.96002 0.0
H790 H 0.81537 0.23823 0.09547 0.0
O791 O 0.74867 0.16032 0.97701 0.0
H792 H 0.83143 0.08284 1.00321 0.0
H793 H 0.73809 0.08203 0.98521 0.0
H794 H 0.76338 0.05329 0.95951 0.0
H795 H 0.8104 0.05352 0.96849 0.0
H796 H 0.80546 0.11154 0.02822 0.0
H797 H 0.72334 0.03377 0.05394 0.0
H798 H 0.6768 0.03925 0.04704 0.0
O799 O 0.72947 0.12775 0.99587 0.0
C800 C 0.72227 0.16709 0.042 0.0
C801 C 0.68229 0.07751 0.03499 0.0
C802 C 0.71668 0.05149 0.04735 0.0
N803 N 0.72591 0.09386 0.03418 0.0
C804 C 0.70034 0.09707 0.03047 0.0
C805 C 0.73418 0.07148 0.04265 0.0
C806 C 0.69057 0.05457 0.04346 0.0
C807 C 0.80625 0.19506 0.04475 0.0
N808 N 0.78219 0.20051 0.0363 0.0
C809 C 0.81856 0.20851 0.06613 0.0
C810 C 0.80607 0.22766 0.07886 0.0
C811 C 0.78153 0.23313 0.07011 0.0
C812 C 0.76981 0.21926 0.04869 0.0
C813 C 0.76685 0.25378 0.97849 0.0
C814 C 0.73129 0.21327 0.98188 0.0
C815 C 0.77361 0.23153 0.98978 0.0
N816 N 0.75587 0.21169 0.99148 0.0
C817 C 0.72383 0.23523 0.97048 0.0
C818 C 0.74177 0.2556 0.96882 0.0
C819 C 0.73295 0.14083 0.97649 0.0
C820 C 0.81095 0.08251 0.99916 0.0
C821 C 0.75856 0.08237 0.98916 0.0
C822 C 0.77277 0.06597 0.97459 0.0
C823 C 0.79914 0.0661 0.97966 0.0
N824 N 0.77027 0.09844 1.00825 0.0
C825 C 0.79612 0.09864 0.01335 0.0
Co826 Co 0.10745 0.52586 0.28067 0.0
Co827 Co 0.16653 0.54088 0.2584 0.0
O828 O 0.13839 0.51606 0.26439 0.0
C829 C 0.12285 0.48305 0.31243 0.0
O830 O 0.14561 0.4947 0.31708 0.0
C831 C 0.15795 0.50837 0.20933 0.0
O832 O 0.13346 0.50556 0.213 0.0
O833 O 0.14234 0.56254 0.24006 0.0
O834 O 0.10765 0.55883 0.263 0.0
H835 H 0.20887 0.6289 0.25652 0.0
H836 H 0.1067 0.47504 0.25302 0.0
O837 O 0.10596 0.49294 0.29836 0.0
H838 H 0.0381 0.51974 0.20974 0.0
H839 H 0.01965 0.50978 0.31275 0.0
H840 H 0.09103 0.57374 0.3054 0.0
H841 H 0.06397 0.54074 0.24652 0.0
H842 H 0.0584 0.49801 0.29156 0.0
O843 O 0.173 0.522 0.22521 0.0
H844 H 0.17408 0.59724 0.2644 0.0
H845 H 0.21858 0.53697 0.23878 0.0
H846 H 0.05254 0.58639 0.32655 0.0
H847 H 0.08096 0.45313 0.21659 0.0
H848 H 0.01651 0.55428 0.33033 0.0
H849 H 0.04646 0.47556 0.1946 0.0
O850 O 0.12844 0.54287 0.31034 0.0
H851 H 0.20312 0.4579 0.27953 0.0
H852 H 0.20848 0.55092 0.29933 0.0
H853 H 0.23725 0.52403 0.32313 0.0
H854 H 0.23471 0.47715 0.31324 0.0
H855 H 0.17455 0.48548 0.25636 0.0
H856 H 0.25376 0.568 0.23043 0.0
H857 H 0.24906 0.61433 0.23942 0.0
O858 O 0.16193 0.56044 0.29157 0.0
C859 C 0.12051 0.5696 0.24619 0.0
C860 C 0.21118 0.60876 0.2526 0.0
C861 C 0.23635 0.57458 0.23793 0.0
N862 N 0.19435 0.56528 0.25222 0.0
C863 C 0.19157 0.59074 0.25708 0.0
C864 C 0.21634 0.55711 0.24263 0.0
C865 C 0.23371 0.60057 0.24298 0.0
C866 C 0.09155 0.48484 0.24371 0.0
N867 N 0.08693 0.5092 0.25184 0.0
C868 C 0.07712 0.47237 0.22302 0.0
C869 C 0.05779 0.48499 0.21066 0.0
C870 C 0.05313 0.50979 0.21912 0.0
C871 C 0.06796 0.52166 0.23986 0.0
C872 C 0.03521 0.52395 0.31118 0.0
C873 C 0.07537 0.5597 0.30685 0.0
C874 C 0.05722 0.51739 0.29926 0.0
N875 N 0.07688 0.53523 0.29709 0.0
C876 C 0.05365 0.56696 0.3189 0.0
C877 C 0.03345 0.54893 0.32103 0.0
C878 C 0.14864 0.55767 0.31094 0.0
C879 C 0.20446 0.47831 0.28396 0.0
C880 C 0.20719 0.53054 0.29496 0.0
C881 C 0.22358 0.51541 0.30846 0.0
C882 C 0.22216 0.48912 0.30289 0.0
N883 N 0.18991 0.51981 0.27637 0.0
C884 C 0.1884 0.49404 0.27083 0.0
Co885 Co 0.7543 0.92618 0.5135 0.0
Co886 Co 0.76596 0.87011 0.54097 0.0
O887 O 0.77794 0.90037 0.52365 0.0
C888 C 0.78398 0.91773 0.46699 0.0
O889 O 0.78208 0.89301 0.46951 0.0
C890 C 0.81829 0.88611 0.56639 0.0
O891 O 0.81735 0.90899 0.55783 0.0
O892 O 0.75223 0.89267 0.56821 0.0
O893 O 0.73378 0.92099 0.54403 0.0
H894 H 0.70123 0.81722 0.5853 0.0
H895 H 0.80987 0.94097 0.51673 0.0
O896 O 0.774 0.93288 0.48278 0.0
H897 H 0.77266 1.00039 0.57828 0.0
H898 H 0.73105 1.00983 0.47911 0.0
H899 H 0.69792 0.92881 0.51128 0.0
H900 H 0.74521 0.96759 0.55275 0.0
H901 H 0.7606 0.97782 0.49293 0.0
O902 O 0.79944 0.86974 0.5619 0.0
H903 H 0.71716 0.85439 0.56291 0.0
H904 H 0.7892 0.82239 0.55677 0.0
H905 H 0.6677 0.96038 0.49785 0.0
H906 H 0.83797 0.97383 0.54155 0.0
H907 H 0.68423 1.00123 0.48162 0.0
H908 H 0.8194 1.00374 0.5727 0.0
O909 O 0.73209 0.89951 0.49324 0.0
H910 H 0.83243 0.84405 0.48101 0.0
H911 H 0.74628 0.82307 0.50958 0.0
H912 H 0.76299 0.79611 0.47523 0.0
H913 H 0.80644 0.80648 0.46078 0.0
H914 H 0.81477 0.87072 0.51497 0.0
H915 H 0.77413 0.78503 0.5793 0.0
H916 H 0.7298 0.78221 0.59363 0.0
O917 O 0.73213 0.86818 0.52042 0.0
C918 C 0.73725 0.9107 0.56525 0.0
C919 C 0.72056 0.8182 0.57909 0.0
C920 C 0.76148 0.80014 0.57576 0.0
N921 N 0.75402 0.8405 0.55839 0.0
C922 C 0.72966 0.83916 0.56635 0.0
C923 C 0.76993 0.8214 0.56307 0.0
C924 C 0.73661 0.79857 0.58378 0.0
C925 C 0.80161 0.95405 0.53009 0.0
N926 N 0.77594 0.95221 0.53338 0.0
C927 C 0.81764 0.97256 0.54416 0.0
C928 C 0.80721 0.98931 0.56166 0.0
C929 C 0.78099 0.98741 0.56483 0.0
C930 C 0.76556 0.96866 0.55043 0.0
C931 C 0.72362 0.99211 0.48617 0.0
C932 C 0.70527 0.94659 0.50434 0.0
C933 C 0.74025 0.97387 0.49396 0.0
N934 N 0.73101 0.9515 0.50301 0.0
C935 C 0.68806 0.96437 0.49672 0.0
C936 C 0.69735 0.98728 0.48759 0.0
C937 C 0.72289 0.8784 0.50067 0.0
C938 C 0.8135 0.83928 0.48719 0.0
C939 C 0.76508 0.82785 0.50327 0.0
C940 C 0.77451 0.81244 0.48388 0.0
C941 C 0.79889 0.81824 0.47581 0.0
N942 N 0.77951 0.84846 0.51439 0.0
C943 C 0.80343 0.85425 0.50654 0.0
Co944 Co 0.85755 0.03122 0.27473 0.0
Co945 Co 0.91417 0.01948 0.24784 0.0
O946 O 0.88334 1.00762 0.26438 0.0
C947 C 0.86594 1.00118 0.32089 0.0
O948 O 0.89073 1.00347 0.31852 0.0
C949 C 0.89655 0.96934 0.21928 0.0
O950 O 0.87304 0.97168 0.22588 0.0
O951 O 0.89243 0.03463 0.22084 0.0
O952 O 0.86296 0.05198 0.24447 0.0
H953 H 0.96953 0.08442 0.20647 0.0
H954 H 0.84266 0.97575 0.27082 0.0
O955 O 0.8507 1.01117 0.30516 0.0
H956 H 0.78352 0.01365 0.20942 0.0
H957 H 0.7736 0.05411 0.30902 0.0
H958 H 0.85492 0.08748 0.27739 0.0
H959 H 0.81632 0.04075 0.23537 0.0
H960 H 0.80573 0.02473 0.2951 0.0
O961 O 0.91396 0.98672 0.22597 0.0
H962 H 0.93155 0.06864 0.22781 0.0
H963 H 0.96157 0.99558 0.23186 0.0
H964 H 0.82325 0.11752 0.29094 0.0
H965 H 0.80978 0.94801 0.2456 0.0
H966 H 0.78223 0.10087 0.3069 0.0
H967 H 0.78001 0.96693 0.21452 0.0
O968 O 0.88416 0.05325 0.29538 0.0
H969 H 0.93722 0.95016 0.30542 0.0
H970 H 0.96142 0.03673 0.28031 0.0
H971 H 0.98724 0.01808 0.31433 0.0
H972 H 0.97523 0.97441 0.32705 0.0
H973 H 0.91172 0.96977 0.2718 0.0
H974 H 0.99972 1.01051 0.21034 0.0
H975 H 1.00395 0.05525 0.1976 0.0
O976 O 0.91661 0.05255 0.26943 0.0
C977 C 0.87413 0.04933 0.22364 0.0
C978 C 0.96794 0.0649 0.21199 0.0
C979 C 0.98487 0.02341 0.21413 0.0
N980 N 0.9444 0.03128 0.23124 0.0
C981 C 0.94651 0.05588 0.22414 0.0
C982 C 0.96317 0.01505 0.22625 0.0
C983 C 0.98724 0.04852 0.207 0.0
C984 C 0.82961 0.98418 0.25754 0.0
N985 N 0.83152 1.00984 0.25453 0.0
C986 C 0.8111 0.96835 0.24322 0.0
C987 C 0.79444 0.97896 0.22575 0.0
C988 C 0.79643 1.00517 0.22285 0.0
C989 C 0.81517 0.0204 0.2375 0.0
C990 C 0.79139 0.0616 0.30208 0.0
C991 C 0.83708 0.08007 0.28421 0.0
C992 C 0.80969 0.04506 0.29424 0.0
N993 N 0.83215 0.05437 0.28533 0.0
C994 C 0.81924 0.09718 0.2919 0.0
C995 C 0.79624 0.08783 0.30088 0.0
C996 C 0.90582 0.06196 0.28873 0.0
C997 C 0.94267 0.9692 0.30004 0.0
C998 C 0.95589 0.0179 0.28593 0.0
C999 C 0.97068 1.00734 0.3051 0.0
C1000 C 0.96396 0.98283 0.3122 0.0
N1001 N 0.935 1.00445 0.2741 0.0
C1002 C 0.92835 0.98038 0.28093 0.0
Co1003 Co 0.2623 0.68003 0.50549 0.0
Co1004 Co 0.25139 0.62158 0.53063 0.0
O1005 O 0.2745 0.65047 0.52272 0.0
C1006 C 0.30619 0.66491 0.47565 0.0
O1007 O 0.29723 0.64112 0.47608 0.0
C1008 C 0.29077 0.6297 0.5756 0.0
O1009 O 0.29991 0.65106 0.56697 0.0
O1010 O 0.22943 0.6454 0.5491 0.0
O1011 O 0.22962 0.67839 0.52381 0.0
H1012 H 0.16522 0.57617 0.53685 0.0
H1013 H 0.31422 0.68577 0.53145 0.0
O1014 O 0.2946 0.68276 0.48659 0.0
H1015 H 0.26504 0.75087 0.57451 0.0
H1016 H 0.27191 0.76681 0.47003 0.0
H1017 H 0.21271 0.69235 0.48075 0.0
H1018 H 0.24491 0.72262 0.53901 0.0
H1019 H 0.2867 0.72993 0.49246 0.0
O1020 O 0.27171 0.61701 0.56383 0.0
H1021 H 0.19509 0.61163 0.52669 0.0
H1022 H 0.25832 0.57088 0.55222 0.0
H1023 H 0.19706 0.7289 0.45837 0.0
H1024 H 0.33523 0.71391 0.56663 0.0
H1025 H 0.22676 0.76648 0.45289 0.0
H1026 H 0.31055 0.74667 0.5885 0.0
O1027 O 0.24591 0.65723 0.47709 0.0
H1028 H 0.33494 0.58733 0.50645 0.0
H1029 H 0.24113 0.57776 0.49208 0.0
H1030 H 0.26778 0.54887 0.46824 0.0
H1031 H 0.31507 0.55346 0.47543 0.0
H1032 H 0.30764 0.61603 0.52952 0.0
H1033 H 0.22912 0.5351 0.56288 0.0
H1034 H 0.18221 0.53756 0.55509 0.0
O1035 O 0.23019 0.62416 0.4977 0.0
C1036 C 0.22046 0.66603 0.54182 0.0
C1037 C 0.18563 0.57484 0.54027 0.0
C1038 C 0.22149 0.55181 0.55491 0.0
N1039 N 0.22842 0.59327 0.53869 0.0
C1040 C 0.20264 0.59483 0.53449 0.0
C1041 C 0.23793 0.57217 0.5489 0.0
C1042 C 0.19517 0.55319 0.55052 0.0
C1043 C 0.3034 0.7001 0.54075 0.0
N1044 N 0.27832 0.70241 0.53327 0.0
C1045 C 0.31538 0.71592 0.56072 0.0
C1046 C 0.30152 0.73428 0.573 0.0
C1047 C 0.27597 0.73661 0.56519 0.0
C1048 C 0.26463 0.72044 0.54517 0.0
C1049 C 0.25876 0.75058 0.47235 0.0
C1050 C 0.22569 0.70871 0.4786 0.0
C1051 C 0.26704 0.72962 0.485 0.0
N1052 N 0.25051 0.70911 0.48812 0.0
C1053 C 0.21675 0.72931 0.46583 0.0
C1054 C 0.23343 0.75038 0.46274 0.0
C1055 C 0.23171 0.6368 0.47771 0.0
C1056 C 0.31435 0.585 0.50328 0.0
C1057 C 0.26167 0.57996 0.49532 0.0
C1058 C 0.27668 0.56349 0.48178 0.0
C1059 C 0.3032 0.56606 0.48583 0.0
N1060 N 0.27271 0.59843 0.51254 0.0
C1061 C 0.29873 0.60111 0.5165 0.0
Co1062 Co 0.36338 0.52979 0.77578 0.0
Co1063 Co 0.42102 0.52344 0.74994 0.0
O1064 O 0.39163 0.50894 0.76675 0.0
C1065 C 0.37262 0.50243 0.82407 0.0
O1066 O 0.39727 0.50862 0.82462 0.0
C1067 C 0.4084 0.47388 0.71874 0.0
O1068 O 0.3842 0.47892 0.71629 0.0
O1069 O 0.39765 0.53459 0.72176 0.0
O1070 O 0.36717 0.55033 0.7451 0.0
H1071 H 0.46899 0.59107 0.7047 0.0
H1072 H 0.35611 0.47342 0.77128 0.0
O1073 O 0.35766 0.50956 0.80629 0.0
H1074 H 0.29136 0.50344 0.71013 0.0
H1075 H 0.2764 0.54479 0.80762 0.0
H1076 H 0.35528 0.58516 0.77713 0.0
H1077 H 0.32027 0.53418 0.7367 0.0
H1078 H 0.31162 0.51865 0.795 0.0
O1079 O 0.42462 0.4898 0.73083 0.0
H1080 H 0.43278 0.57254 0.72687 0.0
H1081 H 0.47135 0.50454 0.73599 0.0
H1082 H 0.32043 0.612 0.78934 0.0
H1083 H 0.32738 0.44198 0.74532 0.0
H1084 H 0.28063 0.59182 0.80472 0.0
H1085 H 0.29477 0.45694 0.71439 0.0
O1086 O 0.38782 0.55456 0.79641 0.0
H1087 H 0.45203 0.46129 0.81214 0.0
H1088 H 0.46589 0.54776 0.78199 0.0
H1089 H 0.49373 0.53432 0.81749 0.0
H1090 H 0.48693 0.49073 0.83275 0.0
H1091 H 0.42443 0.4757 0.77689 0.0
H1092 H 0.50787 0.52225 0.71371 0.0
H1093 H 0.50688 0.56586 0.69799 0.0
O1094 O 0.4193 0.5573 0.7694 0.0
C1095 C 0.37818 0.54784 0.72414 0.0
C1096 C 0.46968 0.57207 0.71152 0.0
C1097 C 0.49148 0.53343 0.71654 0.0
N1098 N 0.44999 0.53754 0.73284 0.0
C1099 C 0.44925 0.56149 0.72414 0.0
C1100 C 0.47069 0.52347 0.72907 0.0
C1101 C 0.49092 0.5579 0.70774 0.0
C1102 C 0.34186 0.48009 0.758 0.0
N1103 N 0.33994 0.50565 0.75548 0.0
C1104 C 0.32568 0.46219 0.74329 0.0
C1105 C 0.30742 0.4706 0.72592 0.0
C1106 C 0.30552 0.49668 0.7235 0.0
C1107 C 0.32204 0.51402 0.73851 0.0
C1108 C 0.29364 0.55381 0.80093 0.0
C1109 C 0.33799 0.57622 0.78371 0.0
C1110 C 0.31369 0.53911 0.79385 0.0
N1111 N 0.33547 0.55035 0.78525 0.0
C1112 C 0.31833 0.59152 0.79064 0.0
C1113 C 0.29602 0.58019 0.79929 0.0
C1114 C 0.40826 0.56553 0.78905 0.0
C1115 C 0.45518 0.48034 0.80567 0.0
C1116 C 0.46261 0.52892 0.78869 0.0
C1117 C 0.47854 0.52133 0.80872 0.0
C1118 C 0.47474 0.49687 0.81725 0.0
N1119 N 0.44345 0.51263 0.77745 0.0
C1120 C 0.43964 0.48859 0.78569 0.0
Co1121 Co 0.60993 0.02554 0.78233 0.0
Co1122 Co 0.66828 0.03968 0.75923 0.0
O1123 O 0.64047 0.0149 0.76598 0.0
C1124 C 0.62527 0.98138 0.8116 0.0
O1125 O 0.64902 0.99083 0.81209 0.0
C1126 C 0.65969 1.0078 0.71023 0.0
O1127 O 0.6351 1.01105 0.71086 0.0
O1128 O 0.64373 0.05954 0.73916 0.0
O1129 O 0.61104 0.05875 0.76484 0.0
H1130 H 0.70929 0.12761 0.75241 0.0
H1131 H 0.60824 0.97524 0.75378 0.0
O1132 O 0.60747 0.9927 0.80023 0.0
H1133 H 0.54073 0.02213 0.71144 0.0
H1134 H 0.52192 1.01218 0.81467 0.0
H1135 H 0.59535 0.07385 0.80774 0.0
H1136 H 0.56673 0.04191 0.74876 0.0
H1137 H 0.5601 0.99925 0.79315 0.0
O1138 O 0.67526 0.01847 0.72765 0.0
H1139 H 0.67484 0.09617 0.76173 0.0
H1140 H 0.7206 0.03532 0.74053 0.0
H1141 H 0.55746 0.08767 0.82923 0.0
H1142 H 0.58251 0.95462 0.71664 0.0
H1143 H 0.5204 0.05671 0.83279 0.0
H1144 H 0.54852 0.97815 0.69517 0.0
O1145 O 0.63176 0.0416 0.81172 0.0
H1146 H 0.70783 0.95959 0.78519 0.0
H1147 H 0.70893 0.05303 0.80084 0.0
H1148 H 0.7384 0.02848 0.82655 0.0
H1149 H 0.73803 0.98141 0.81875 0.0
H1150 H 0.67842 0.98483 0.76015 0.0
H1151 H 0.75547 0.0661 0.73079 0.0
H1152 H 0.74996 0.11262 0.73682 0.0
O1153 O 0.66279 0.06134 0.79117 0.0
C1154 C 0.62283 0.06795 0.74645 0.0
C1155 C 0.71194 0.10739 0.74977 0.0
C1156 C 0.73785 0.07287 0.7376 0.0
N1157 N 0.69576 0.06395 0.75184 0.0
C1158 C 0.69252 0.0895 0.75507 0.0
C1159 C 0.71801 0.05553 0.74309 0.0
C1160 C 0.73475 0.09896 0.741 0.0
C1161 C 0.59332 0.98549 0.74467 0.0
N1162 N 0.58892 1.00969 0.75349 0.0
C1163 C 0.57888 0.97376 0.7236 0.0
C1164 C 0.55984 0.98699 0.71153 0.0
C1165 C 0.55547 1.01168 0.72064 0.0
C1166 C 0.5703 0.02281 0.74174 0.0
C1167 C 0.53792 0.02586 0.81319 0.0
C1168 C 0.57922 0.06033 0.80908 0.0
C1169 C 0.55961 0.01864 0.80107 0.0
N1170 N 0.57983 0.03586 0.79901 0.0
C1171 C 0.55785 0.06823 0.82133 0.0
C1172 C 0.53708 0.05085 0.82335 0.0
C1173 C 0.65094 0.05757 0.81133 0.0
C1174 C 0.70823 0.98009 0.78872 0.0
C1175 C 0.70852 0.03254 0.79741 0.0
C1176 C 0.72533 0.01875 0.81198 0.0
C1177 C 0.72513 0.99235 0.80758 0.0
N1178 N 0.69197 0.02038 0.77896 0.0
C1179 C 0.6917 0.99451 0.77452 0.0
Co1180 Co 0.75793 0.66248 0.03481 0.0
Co1181 Co 0.78303 0.60391 0.02297 0.0
O1182 O 0.76593 0.63385 1.01141 0.0
C1183 C 0.7123 0.654 0.99621 0.0
O1184 O 0.72098 0.63278 0.98685 0.0
C1185 C 0.814 0.62065 0.98035 0.0
O1186 O 0.81291 0.64431 0.98945 0.0
O1187 O 0.81117 0.62625 0.04086 0.0
O1188 O 0.7911 0.66015 0.0554 0.0
H1189 H 0.82796 0.55267 0.08765 0.0
H1190 H 0.75797 0.66839 0.97861 0.0
O1191 O 0.72432 0.66674 0.01506 0.0
H1192 H 0.81955 0.73575 0.01774 0.0
H1193 H 0.72507 0.74845 0.05779 0.0
H1194 H 0.76256 0.67222 0.09104 0.0
H1195 H 0.79638 0.7065 0.04463 0.0
H1196 H 0.73574 0.71296 0.02835 0.0
O1197 O 0.803 0.60243 0.99139 0.0
H1198 H 0.80599 0.58974 0.07263 0.0
H1199 H 0.79713 0.55498 0.9974 0.0
H1200 H 0.75239 0.70738 0.12115 0.0
H1201 H 0.7804 0.69745 0.95109 0.0
H1202 H 0.7335 0.74585 0.10455 0.0
H1203 H 0.81154 0.73142 0.97059 0.0
O1204 O 0.74009 0.63848 0.0571 0.0
H1205 H 0.72404 0.57275 0.94746 0.0
H1206 H 0.74916 0.56006 0.03748 0.0
H1207 H 0.71429 0.53236 0.01532 0.0
H1208 H 0.70156 0.53856 0.96993 0.0
H1209 H 0.75852 0.60032 0.97051 0.0
H1210 H 0.81918 0.51763 1.01155 0.0
H1211 H 0.83468 0.51628 0.057 0.0
O1212 O 0.76357 0.60418 0.05484 0.0
C1213 C 0.8108 0.64705 0.05449 0.0
C1214 C 0.82123 0.553 0.06782 0.0
C1215 C 0.81633 0.53335 0.0251 0.0
N1216 N 0.80011 0.57444 0.03422 0.0
C1217 C 0.80872 0.57391 0.05922 0.0
C1218 C 0.8039 0.55458 0.01719 0.0
C1219 C 0.82501 0.5326 0.0506 0.0
C1220 C 0.77106 0.68336 0.98737 0.0
N1221 N 0.77545 0.68591 0.01331 0.0
C1222 C 0.7839 0.69966 0.97162 0.0
C1223 C 0.80143 0.71867 0.98257 0.0
C1224 C 0.80594 0.7211 1.00901 0.0
C1225 C 0.79277 0.70443 0.02415 0.0
C1226 C 0.73333 0.73181 0.06525 0.0
C1227 C 0.75448 0.68896 0.08367 0.0
C1228 C 0.73934 0.71161 0.04868 0.0
N1229 N 0.74991 0.69059 0.05796 0.0
C1230 C 0.74869 0.70878 0.10081 0.0
C1231 C 0.73807 0.73034 0.09149 0.0
C1232 C 0.74637 0.61701 0.06489 0.0
C1233 C 0.72939 0.56987 0.96724 0.0
C1234 C 0.74351 0.56314 0.01787 0.0
C1235 C 0.72386 0.54726 1.00535 0.0
C1236 C 0.71676 0.55072 0.97987 0.0
N1237 N 0.75573 0.58197 1.00539 0.0
C1238 C 0.74897 0.58537 0.98037 0.0
Co1239 Co 0.87158 0.5387 0.76444 0.0
Co1240 Co 0.92712 0.50902 0.75385 0.0
O1241 O 0.90099 0.52022 0.77683 0.0
C1242 C 0.88919 0.5658 0.8153 0.0
O1243 O 0.91249 0.55859 0.81302 0.0
C1244 C 0.91609 0.46382 0.78505 0.0
O1245 O 0.89237 0.46992 0.7869 0.0
O1246 O 0.90026 0.49039 0.73048 0.0
O1247 O 0.86916 0.51786 0.7309 0.0
H1248 H 0.96371 0.49366 0.6684 0.0
H1249 H 0.86993 0.51457 0.81405 0.0
O1250 O 0.87186 0.55996 0.79761 0.0
H1251 H 0.79511 0.47568 0.76183 0.0
H1252 H 0.78805 0.58049 0.77168 0.0
H1253 H 0.85721 0.5607 0.71539 0.0
H1254 H 0.82388 0.5083 0.74461 0.0
H1255 H 0.82433 0.55666 0.7872 0.0
O1256 O 0.93152 0.47726 0.7727 0.0
H1257 H 0.93177 0.50801 0.69783 0.0
H1258 H 0.97727 0.48543 0.76116 0.0
H1259 H 0.82113 0.58438 0.69903 0.0
H1260 H 0.84135 0.48244 0.83227 0.0
H1261 H 0.78622 0.59443 0.72727 0.0
H1262 H 0.80369 0.46262 0.80605 0.0
O1263 O 0.89524 0.56492 0.75057 0.0
H1264 H 0.97275 0.53332 0.83928 0.0
H1265 H 0.97107 0.54632 0.74701 0.0
H1266 H 1.00418 0.56969 0.77596 0.0
H1267 H 1.00524 0.56318 0.82246 0.0
H1268 H 0.93967 0.51069 0.80971 0.0
H1269 H 1.00959 0.47066 0.73238 0.0
H1270 H 1.00296 0.47483 0.68565 0.0
O1271 O 0.9244 0.54035 0.73405 0.0
C1272 C 0.87929 0.49823 0.72137 0.0
C1273 C 0.96686 0.49181 0.68873 0.0
C1274 C 0.99259 0.47888 0.72464 0.0
N1275 N 0.95272 0.49774 0.7312 0.0
C1276 C 0.94887 0.49996 0.7055 0.0
C1277 C 0.97418 0.48723 0.74084 0.0
C1278 C 0.98886 0.48123 0.69842 0.0
C1279 C 0.85344 0.50627 0.80259 0.0
N1280 N 0.84869 0.51326 0.7782 0.0
C1281 C 0.83739 0.48798 0.81299 0.0
C1282 C 0.8163 0.47683 0.79825 0.0
C1283 C 0.8115 0.4841 0.77342 0.0
C1284 C 0.82799 0.50245 0.76368 0.0
C1285 C 0.80312 0.57619 0.75918 0.0
C1286 C 0.84202 0.56488 0.72775 0.0
C1287 C 0.82377 0.56276 0.76788 0.0
N1288 N 0.84281 0.55715 0.75215 0.0
C1289 C 0.82167 0.57835 0.7184 0.0
C1290 C 0.80211 0.584 0.73426 0.0
C1291 C 0.91401 0.56162 0.73657 0.0
C1292 C 0.97252 0.53629 0.81906 0.0
C1293 C 0.9712 0.54357 0.76725 0.0
C1294 C 0.9901 0.55676 0.78353 0.0
C1295 C 0.99071 0.55307 0.80961 0.0
N1296 N 0.95338 0.52717 0.77666 0.0
C1297 C 0.95391 0.52342 0.80219 0.0
Co1298 Co 0.77633 0.36329 0.52646 0.0
Co1299 Co 0.74526 0.4192 0.52063 0.0
O1300 O 0.7646 0.39129 0.50626 0.0
C1301 C 0.82013 0.37642 0.49305 0.0
O1302 O 0.80923 0.39651 0.48497 0.0
C1303 C 0.71641 0.40215 0.47094 0.0
O1304 O 0.722 0.37853 0.47422 0.0
O1305 O 0.71981 0.39421 0.53384 0.0
O1306 O 0.74381 0.36212 0.54462 0.0
H1307 H 0.6992 0.46469 0.58922 0.0
H1308 H 0.77515 0.35826 0.46951 0.0
O1309 O 0.8096 0.36263 0.50917 0.0
H1310 H 0.72141 0.28489 0.49438 0.0
H1311 H 0.81832 0.28109 0.54088 0.0
H1312 H 0.77481 0.35226 0.58104 0.0
H1313 H 0.74243 0.31577 0.52711 0.0
H1314 H 0.80312 0.31561 0.5152 0.0
O1315 O 0.72358 0.41982 0.48785 0.0
H1316 H 0.72369 0.43031 0.57067 0.0
H1317 H 0.72542 0.46684 0.50067 0.0
H1318 H 0.78949 0.31799 0.60739 0.0
H1319 H 0.75499 0.32758 0.43621 0.0
H1320 H 0.81143 0.28207 0.58731 0.0
H1321 H 0.72774 0.29059 0.44851 0.0
O1322 O 0.79295 0.38824 0.55324 0.0
H1323 H 0.79878 0.45559 0.45347 0.0
H1324 H 0.77517 0.46626 0.5427 0.0
H1325 H 0.80667 0.49702 0.52659 0.0
H1326 H 0.81861 0.49186 0.4816 0.0
H1327 H 0.76775 0.42499 0.47058 0.0
H1328 H 0.70077 0.50149 0.5184 0.0
H1329 H 0.68758 0.50061 0.56301 0.0
O1330 O 0.76657 0.42033 0.55369 0.0
C1331 C 0.72294 0.3734 0.54468 0.0
C1332 C 0.7049 0.46533 0.56978 0.0
C1333 C 0.70575 0.48596 0.53002 0.0
N1334 N 0.72613 0.44664 0.53468 0.0
C1335 C 0.71883 0.44595 0.55919 0.0
C1336 C 0.71965 0.46624 0.52007 0.0
C1337 C 0.69836 0.48546 0.55506 0.0
C1338 C 0.76378 0.34204 0.47515 0.0
N1339 N 0.76023 0.3388 0.50036 0.0
C1340 C 0.7522 0.3248 0.45614 0.0
C1341 C 0.73685 0.30409 0.46304 0.0
C1342 C 0.73326 0.30091 0.48876 0.0
C1343 C 0.74513 0.31856 0.50723 0.0
C1344 C 0.80874 0.29661 0.54985 0.0
C1345 C 0.78419 0.33661 0.57213 0.0
C1346 C 0.80015 0.31626 0.53541 0.0
N1347 N 0.78791 0.33586 0.54658 0.0
C1348 C 0.79253 0.3173 0.58716 0.0
C1349 C 0.80486 0.29717 0.57589 0.0
C1350 C 0.78548 0.40903 0.56316 0.0
C1351 C 0.79378 0.45804 0.47312 0.0
C1352 C 0.78058 0.46361 0.52329 0.0
C1353 C 0.79828 0.48122 0.51418 0.0
C1354 C 0.80492 0.47835 0.48892 0.0
N1355 N 0.76983 0.44363 0.50774 0.0
C1356 C 0.77614 0.4408 0.48291 0.0
Co1357 Co 0.68038 0.50485 0.26119 0.0
Co1358 Co 0.62128 0.52602 0.24524 0.0
O1359 O 0.64886 0.52007 0.27058 0.0
C1360 C 0.66355 0.47429 0.30396 0.0
O1361 O 0.64013 0.47353 0.29359 0.0
C1362 C 0.62934 0.57525 0.27651 0.0
O1363 O 0.65397 0.57444 0.27359 0.0
O1364 O 0.64565 0.54589 0.22496 0.0
O1365 O 0.68042 0.52315 0.22853 0.0
H1366 H 0.58096 0.5305 0.15665 0.0
H1367 H 0.67862 0.53218 0.31181 0.0
O1368 O 0.68169 0.48624 0.29361 0.0
H1369 H 0.74796 0.57749 0.26969 0.0
H1370 H 0.76879 0.47475 0.27814 0.0
H1371 H 0.69813 0.48142 0.21327 0.0
H1372 H 0.72392 0.53993 0.24796 0.0
H1373 H 0.72929 0.49472 0.28961 0.0
O1374 O 0.61379 0.55787 0.26572 0.0
H1375 H 0.61525 0.52222 0.18867 0.0
H1376 H 0.56865 0.54412 0.24868 0.0
H1377 H 0.73739 0.46152 0.20091 0.0
H1378 H 0.70235 0.56952 0.33439 0.0
H1379 H 0.77306 0.45809 0.23349 0.0
H1380 H 0.73724 0.5925 0.31326 0.0
O1381 O 0.66009 0.47513 0.24361 0.0
H1382 H 0.58118 0.50131 0.32561 0.0
H1383 H 0.58136 0.48364 0.23242 0.0
H1384 H 0.55197 0.45809 0.25726 0.0
H1385 H 0.5517 0.4669 0.3042 0.0
H1386 H 0.61052 0.52618 0.3001 0.0
H1387 H 0.53393 0.5528 0.21731 0.0
H1388 H 0.53994 0.5459 0.17092 0.0
O1389 O 0.62744 0.4939 0.22441 0.0
C1390 C 0.66761 0.54011 0.21799 0.0
C1391 C 0.57808 0.53351 0.17681 0.0
C1392 C 0.5517 0.54606 0.21085 0.0
N1393 N 0.5939 0.53251 0.22051 0.0
C1394 C 0.59741 0.52879 0.19503 0.0
C1395 C 0.57146 0.54116 0.22853 0.0
C1396 C 0.55508 0.54217 0.18483 0.0
C1397 C 0.69393 0.54195 0.3026 0.0
N1398 N 0.6999 0.53387 0.27861 0.0
C1399 C 0.70723 0.56314 0.31543 0.0
C1400 C 0.72678 0.57604 0.30355 0.0
C1401 C 0.73278 0.56765 0.27909 0.0
C1402 C 0.71904 0.54642 0.26683 0.0
C1403 C 0.7534 0.47618 0.26377 0.0
C1404 C 0.71364 0.48013 0.2275 0.0
C1405 C 0.73097 0.48741 0.27016 0.0
N1406 N 0.71151 0.4894 0.25206 0.0
C1407 C 0.73579 0.46878 0.22042 0.0
C1408 C 0.75578 0.46684 0.23871 0.0
C1409 C 0.64064 0.4746 0.22784 0.0
C1410 C 0.58106 0.49734 0.30516 0.0
C1411 C 0.58148 0.48752 0.25286 0.0
C1412 C 0.56472 0.47303 0.26681 0.0
C1413 C 0.56456 0.47801 0.29314 0.0
N1414 N 0.59762 0.50645 0.26478 0.0
C1415 C 0.59755 0.51145 0.29059 0.0
H1416 H 0.07964 0.45198 0.30191 0.0
H1417 H 0.15107 0.45768 0.34772 0.0
H1418 H 0.06844 0.4112 0.31914 0.0
H1419 H 0.1397 0.4164 0.365 0.0
H1420 H 0.09237 0.35366 0.40783 0.0
H1421 H 0.10683 0.39513 0.3927 0.0
H1422 H 0.08412 0.36783 0.31521 0.0
H1423 H 0.06973 0.32692 0.33003 0.0
C1424 C 0.09301 0.44456 0.31568 0.0
C1425 C 0.11635 0.45814 0.32332 0.0
C1426 C 0.0866 0.42105 0.32548 0.0
C1427 C 0.10324 0.41043 0.34332 0.0
C1428 C 0.12643 0.42413 0.35137 0.0
C1429 C 0.13299 0.44769 0.34135 0.0
C1430 C 0.09067 0.35649 0.38756 0.0
C1431 C 0.07973 0.33692 0.37022 0.0
C1432 C 0.09903 0.3802 0.3789 0.0
C1433 C 0.09637 0.38486 0.35277 0.0
C1434 C 0.08606 0.36505 0.33549 0.0
C1435 C 0.07791 0.34146 0.34405 0.0
H1436 H 0.94496 0.82275 0.65448 0.0
H1437 H 0.96674 0.82549 0.5766 0.0
H1438 H 0.90533 0.84304 0.64287 0.0
H1439 H 0.9275 0.84617 0.56524 0.0
H1440 H 0.86699 0.90657 0.56212 0.0
H1441 H 0.90715 0.88937 0.57722 0.0
H1442 H 0.86474 0.82925 0.61212 0.0
H1443 H 0.82458 0.84606 0.59663 0.0
C1444 C 0.94139 0.82784 0.63496 0.0
C1445 C 0.95897 0.82245 0.61645 0.0
C1446 C 0.91869 0.83937 0.62832 0.0
C1447 C 0.9134 0.84629 0.60318 0.0
C1448 C 0.93118 0.84128 0.5848 0.0
C1449 C 0.95357 0.82928 0.59129 0.0
C1450 C 0.86621 0.8899 0.57332 0.0
C1451 C 0.84257 0.87768 0.57815 0.0
C1452 C 0.88921 0.87997 0.58181 0.0
C1453 C 0.88907 0.85793 0.59577 0.0
C1454 C 0.86545 0.84634 0.60152 0.0
C1455 C 0.84246 0.85594 0.59259 0.0
H1456 H 0.38896 0.59495 0.82808 0.0
H1457 H 0.45455 0.58976 0.78238 0.0
H1458 H 0.40905 0.63383 0.85046 0.0
H1459 H 0.47523 0.62658 0.80576 0.0
H1460 H 0.4995 0.7059 0.83084 0.0
H1461 H 0.47561 0.6696 0.80954 0.0
H1462 H 0.44095 0.6531 0.87997 0.0
H1463 H 0.46357 0.69139 0.90093 0.0
C1464 C 0.40774 0.60184 0.82301 0.0
C1465 C 0.42008 0.589 0.80341 0.0
C1466 C 0.4194 0.62408 0.83599 0.0
C1467 C 0.44381 0.6338 0.8299 0.0
C1468 C 0.45617 0.62046 0.81067 0.0
C1469 C 0.44437 0.59881 0.79741 0.0
C1470 C 0.48652 0.69492 0.84184 0.0
C1471 C 0.48345 0.70188 0.86765 0.0
C1472 C 0.47299 0.6736 0.82963 0.0
C1473 C 0.45653 0.65777 0.84299 0.0
C1474 C 0.4532 0.6648 0.86885 0.0
C1475 C 0.46635 0.68671 0.88098 0.0
H1476 H 0.6019 0.21038 0.14359 0.0
H1477 H 0.58604 0.24705 0.07337 0.0
H1478 H 0.63898 0.19188 0.1254 0.0
H1479 H 0.62225 0.22796 0.05502 0.0
H1480 H 0.70348 0.21425 0.03761 0.0
H1481 H 0.66719 0.23164 0.05747 0.0
H1482 H 0.65346 0.16132 0.09458 0.0
H1483 H 0.69061 0.14411 0.0753 0.0
C1484 C 0.6061 0.21429 0.1242 0.0
C1485 C 0.59086 0.23031 0.11005 0.0
C1486 C 0.62736 0.20357 0.11369 0.0
C1487 C 0.63391 0.20849 0.08872 0.0
C1488 C 0.6183 0.2241 0.07448 0.0
C1489 C 0.59725 0.23492 0.08499 0.0
C1490 C 0.69291 0.20244 0.05011 0.0
C1491 C 0.70017 0.17771 0.0548 0.0
C1492 C 0.67181 0.2124 0.06138 0.0
C1493 C 0.65703 0.19789 0.07753 0.0
C1494 C 0.66443 0.17322 0.08248 0.0
C1495 C 0.68573 0.16328 0.0713 0.0
H1496 H 0.14282 0.60217 0.21327 0.0
H1497 H 0.07282 0.5872 0.25083 0.0
H1498 H 0.12452 0.6389 0.19422 0.0
H1499 H 0.05433 0.62288 0.2311 0.0
H1500 H 0.0361 0.70298 0.21574 0.0
H1501 H 0.05649 0.66745 0.23381 0.0
H1502 H 0.0936 0.653 0.16356 0.0
H1503 H 0.07387 0.68958 0.14569 0.0
C1504 C 0.12347 0.6065 0.21729 0.0
C1505 C 0.10939 0.59159 0.23368 0.0
C1506 C 0.11289 0.62753 0.20623 0.0
C1507 C 0.08792 0.63415 0.21117 0.0
C1508 C 0.07379 0.6189 0.22721 0.0
C1509 C 0.08438 0.59812 0.23839 0.0
C1510 C 0.04874 0.69245 0.20408 0.0
C1511 C 0.0533 0.69937 0.17918 0.0
C1512 C 0.06031 0.67176 0.21443 0.0
C1513 C 0.07658 0.65697 0.20015 0.0
C1514 C 0.08141 0.66401 0.1753 0.0
C1515 C 0.06997 0.68496 0.16497 0.0
H1516 H 0.58686 0.78002 0.45524 0.0
H1517 H 0.59888 0.8219 0.38814 0.0
H1518 H 0.623 0.80372 0.4776 0.0
H1519 H 0.63661 0.84445 0.40994 0.0
H1520 H 0.69114 0.89695 0.46343 0.0
H1521 H 0.65334 0.87531 0.44084 0.0
H1522 H 0.66641 0.8077 0.48173 0.0
H1523 H 0.70261 0.8299 0.50546 0.0
C1524 C 0.59726 0.79425 0.44515 0.0
C1525 C 0.58963 0.79916 0.4199 0.0
C1526 C 0.61842 0.8077 0.45793 0.0
C1527 C 0.6332 0.82603 0.44568 0.0
C1528 C 0.62563 0.83086 0.4203 0.0
C1529 C 0.60402 0.81775 0.40766 0.0
C1530 C 0.68586 0.87748 0.46761 0.0
C1531 C 0.70013 0.86521 0.48625 0.0
C1532 C 0.66421 0.86493 0.45448 0.0
C1533 C 0.65648 0.83961 0.45933 0.0
C1534 C 0.67112 0.82733 0.47772 0.0
C1535 C 0.69231 0.84003 0.49119 0.0
H1536 H 0.44299 0.33104 0.63505 0.0
H1537 H 0.48308 0.33185 0.70931 0.0
H1538 H 0.42581 0.37211 0.64705 0.0
H1539 H 0.46587 0.37248 0.72119 0.0
H1540 H 0.45669 0.45747 0.72351 0.0
H1541 H 0.47179 0.41667 0.70926 0.0
H1542 H 0.39603 0.39251 0.67727 0.0
H1543 H 0.38069 0.43389 0.69148 0.0
C1544 C 0.4481 0.3399 0.65392 0.0
C1545 C 0.46453 0.32813 0.67115 0.0
C1546 C 0.43812 0.36336 0.66083 0.0
C1547 C 0.44457 0.37568 0.68503 0.0
C1548 C 0.46079 0.36374 0.70227 0.0
C1549 C 0.47059 0.34032 0.69546 0.0
C1550 C 0.44312 0.44362 0.71335 0.0
C1551 C 0.41737 0.44906 0.70876 0.0
C1552 C 0.45182 0.42007 0.7053 0.0
C1553 C 0.4351 0.40117 0.69233 0.0
C1554 C 0.40944 0.4067 0.68712 0.0
C1555 C 0.40063 0.43037 0.69535 0.0
H1556 H 0.96826 0.19336 0.94601 0.0
H1557 H 0.92814 0.22202 0.8806 0.0
H1558 H 0.92745 0.17813 0.96177 0.0
H1559 H 0.88722 0.20735 0.89684 0.0
H1560 H 0.82538 0.21119 0.95995 0.0
H1561 H 0.86519 0.22211 0.93988 0.0
H1562 H 0.88763 0.14499 0.94617 0.0
H1563 H 0.84738 0.13376 0.96569 0.0
C1564 C 0.95073 0.19621 0.93489 0.0
C1565 C 0.95142 0.20886 0.91203 0.0
C1566 C 0.9274 0.18742 0.94389 0.0
C1567 C 0.9042 0.19162 0.93055 0.0
C1568 C 0.90485 0.20393 0.90751 0.0
C1569 C 0.92825 0.21219 0.89816 0.0
C1570 C 0.83872 0.1965 0.95693 0.0
C1571 C 0.83325 0.17161 0.96444 0.0
C1572 C 0.86142 0.20273 0.9453 0.0
C1573 C 0.87944 0.18438 0.94143 0.0
C1574 C 0.87404 0.15949 0.94895 0.0
C1575 C 0.85102 0.15307 0.96004 0.0
H1576 H 0.33104 0.0813 0.46379 0.0
H1577 H 0.31639 0.15574 0.43786 0.0
H1578 H 0.35055 0.07039 0.42414 0.0
H1579 H 0.33437 0.14436 0.39723 0.0
H1580 H 0.38239 0.12356 0.33092 0.0
H1581 H 0.36903 0.13627 0.37334 0.0
H1582 H 0.34081 0.05849 0.38221 0.0
H1583 H 0.35553 0.04581 0.34087 0.0
C1584 C 0.33183 0.09529 0.44945 0.0
C1585 C 0.32207 0.11934 0.45392 0.0
C1586 C 0.34286 0.08897 0.42649 0.0
C1587 C 0.34384 0.10626 0.40697 0.0
C1588 C 0.3344 0.13055 0.41173 0.0
C1589 C 0.32389 0.13709 0.43502 0.0
C1590 C 0.37366 0.10918 0.34218 0.0
C1591 C 0.37025 0.08364 0.33254 0.0
C1592 C 0.36572 0.11649 0.36647 0.0
C1593 C 0.3537 0.09851 0.38155 0.0
C1594 C 0.3505 0.07293 0.37176 0.0
C1595 C 0.35888 0.06559 0.3478 0.0
H1596 H 0.14304 0.07575 0.68476 0.0
H1597 H 0.21374 0.03948 0.69958 0.0
H1598 H 0.16091 0.09495 0.64781 0.0
H1599 H 0.23171 0.05919 0.66356 0.0
H1600 H 0.24856 0.07388 0.58264 0.0
H1601 H 0.22873 0.05588 0.61863 0.0
H1602 H 0.19183 0.12605 0.63362 0.0
H1603 H 0.21111 0.14392 0.59674 0.0
C1604 C 0.16244 0.07205 0.68035 0.0
C1605 C 0.17684 0.05595 0.69528 0.0
C1606 C 0.17276 0.08317 0.65918 0.0
C1607 C 0.19776 0.07853 0.65241 0.0
C1608 C 0.21222 0.06283 0.66768 0.0
C1609 C 0.20192 0.05165 0.68864 0.0
C1610 C 0.23611 0.08554 0.59341 0.0
C1611 C 0.2315 0.11044 0.58658 0.0
C1612 C 0.22486 0.07523 0.61434 0.0
C1613 C 0.20879 0.08951 0.62938 0.0
C1614 C 0.20388 0.11433 0.62242 0.0
C1615 C 0.21507 0.12465 0.60129 0.0
H1616 H 0.20884 0.95961 0.81943 0.0
H1617 H 0.13118 0.96592 0.84107 0.0
H1618 H 0.21918 0.93887 0.8589 0.0
H1619 H 0.14183 0.94569 0.88098 0.0
H1620 H 0.18975 0.94438 0.96164 0.0
H1621 H 0.17456 0.96038 0.921 0.0
H1622 H 0.20415 0.89593 0.88044 0.0
H1623 H 0.21881 0.87947 0.92117 0.0
C1624 C 0.19397 0.95656 0.83261 0.0
C1625 C 0.16919 0.96444 0.82714 0.0
C1626 C 0.19987 0.94453 0.85511 0.0
C1627 C 0.1813 0.94062 0.87295 0.0
C1628 C 0.1565 0.94849 0.86754 0.0
C1629 C 0.15042 0.95999 0.8447 0.0
C1630 C 0.19264 0.93338 0.94407 0.0
C1631 C 0.20544 0.91063 0.94461 0.0
C1632 C 0.18388 0.94252 0.92084 0.0
C1633 C 0.18825 0.92943 0.89759 0.0
C1634 C 0.2006 0.90642 0.8981 0.0
C1635 C 0.20884 0.89694 0.9214 0.0
H1636 H 0.3222 0.88735 0.09334 0.0
H1637 H 0.28108 0.95537 0.0842 0.0
H1638 H 0.34513 0.90763 0.13163 0.0
H1639 H 0.30508 0.97617 0.12089 0.0
H1640 H 0.33273 1.00164 0.20062 0.0
H1641 H 0.30962 0.97895 0.16429 0.0
H1642 H 0.37661 0.93788 0.14869 0.0
H1643 H 0.39917 0.95937 0.1865 0.0
C1644 C 0.31826 0.90672 0.09926 0.0
C1645 C 0.29982 0.91969 0.08545 0.0
C1646 C 0.33158 0.91849 0.12119 0.0
C1647 C 0.3271 0.94369 0.12968 0.0
C1648 C 0.30882 0.95662 0.11558 0.0
C1649 C 0.29519 0.94472 0.0941 0.0
C1650 C 0.34252 0.98755 0.18971 0.0
C1651 C 0.36781 0.98224 0.1968 0.0
C1652 C 0.3293 0.97468 0.16847 0.0
C1653 C 0.34114 0.95655 0.15309 0.0
C1654 C 0.36655 0.95132 0.16013 0.0
C1655 C 0.37963 0.96384 0.18179 0.0
H1656 H 0.36176 0.40471 0.07575 0.0
H1657 H 0.3227 0.33718 0.1015 0.0
H1658 H 0.40298 0.38862 0.08947 0.0
H1659 H 0.36386 0.32155 0.11583 0.0
H1660 H 0.44479 0.31763 0.15912 0.0
H1661 H 0.40418 0.33708 0.14945 0.0
H1662 H 0.42487 0.34585 0.07201 0.0
H1663 H 0.46501 0.32581 0.08134 0.0
C1664 C 0.36194 0.38672 0.08481 0.0
C1665 C 0.339 0.3722 0.08755 0.0
C1666 C 0.38552 0.37747 0.09251 0.0
C1667 C 0.38655 0.35386 0.10369 0.0
C1668 C 0.36357 0.33988 0.10742 0.0
C1669 C 0.34006 0.3488 0.09915 0.0
C1670 C 0.44069 0.32382 0.14008 0.0
C1671 C 0.45804 0.32012 0.12097 0.0
C1672 C 0.41747 0.33487 0.13456 0.0
C1673 C 0.4115 0.34305 0.11003 0.0
C1674 C 0.42911 0.3399 0.09112 0.0
C1675 C 0.45199 0.3283 0.09644 0.0
H1676 H 0.95225 0.81991 0.20891 0.0
H1677 H 0.96077 0.84285 0.13207 0.0
H1678 H 0.93104 0.85901 0.21921 0.0
H1679 H 0.93994 0.88237 0.14265 0.0
H1680 H 0.93769 0.96224 0.19081 0.0
H1681 H 0.9534 0.92181 0.17493 0.0
H1682 H 0.88917 0.88097 0.20501 0.0
H1683 H 0.87307 0.92151 0.2205 0.0
C1684 C 0.94951 0.83327 0.19419 0.0
C1685 C 0.95823 0.8283 0.16967 0.0
C1686 C 0.93722 0.85557 0.20005 0.0
C1687 C 0.93378 0.87369 0.18172 0.0
C1688 C 0.94236 0.86872 0.15715 0.0
C1689 C 0.95419 0.84609 0.15109 0.0
C1690 C 0.92666 0.94467 0.19365 0.0
C1691 C 0.90413 0.94508 0.20692 0.0
C1692 C 0.93563 0.92154 0.18448 0.0
C1693 C 0.92256 0.89825 0.18882 0.0
C1694 C 0.89967 0.89865 0.20149 0.0
C1695 C 0.89039 0.92185 0.21021 0.0
H1696 H 0.1867 0.69853 0.52257 0.0
H1697 H 0.20318 0.65658 0.5892 0.0
H1698 H 0.15049 0.71602 0.54234 0.0
H1699 H 0.16752 0.67532 0.6099 0.0
H1700 H 0.0876 0.69797 0.63202 0.0
H1701 H 0.1233 0.67775 0.61277 0.0
H1702 H 0.13956 0.74578 0.57254 0.0
H1703 H 0.10335 0.76505 0.59052 0.0
C1704 C 0.18277 0.69324 0.54164 0.0
C1705 C 0.19805 0.67624 0.55431 0.0
C1706 C 0.16198 0.70349 0.55318 0.0
C1707 C 0.15603 0.69759 0.57808 0.0
C1708 C 0.17117 0.68027 0.59067 0.0
C1709 C 0.19179 0.66958 0.57886 0.0
C1710 C 0.09886 0.70851 0.61903 0.0
C1711 C 0.09238 0.73303 0.61262 0.0
C1712 C 0.11948 0.69698 0.60804 0.0
C1713 C 0.1344 0.70985 0.59067 0.0
C1714 C 0.12824 0.73473 0.58507 0.0
C1715 C 0.10746 0.74598 0.59562 0.0
H1716 H 0.99312 0.70449 0.70643 0.0
H1717 H 0.98951 0.66311 0.63272 0.0
H1718 H 0.96782 0.66989 0.72349 0.0
H1719 H 0.96384 0.62842 0.64986 0.0
H1720 H 0.94939 0.55999 0.70035 0.0
H1721 H 0.97031 0.59537 0.68028 0.0
H1722 H 0.92496 0.64807 0.72122 0.0
H1723 H 0.90404 0.61249 0.74171 0.0
C1724 C 0.98685 0.68804 0.69378 0.0
C1725 C 0.99357 0.68654 0.66819 0.0
C1726 C 0.9721 0.66826 0.70356 0.0
C1727 C 0.96373 0.64634 0.68809 0.0
C1728 C 0.97017 0.64494 0.66239 0.0
C1729 C 0.98483 0.66485 0.65252 0.0
C1730 C 0.94365 0.57906 0.70502 0.0
C1731 C 0.92506 0.58331 0.72286 0.0
C1732 C 0.95559 0.59939 0.69331 0.0
C1733 C 0.94942 0.62462 0.69914 0.0
C1734 C 0.93039 0.62889 0.7165 0.0
C1735 C 0.91828 0.60847 0.72814 0.0
H1736 H 0.18334 0.14073 0.45629 0.0
H1737 H 0.1837 0.20061 0.51615 0.0
H1738 H 0.14852 0.16038 0.43273 0.0
H1739 H 0.14863 0.21968 0.49297 0.0
H1740 H 0.06472 0.22122 0.45828 0.0
H1741 H 0.10009 0.20119 0.47926 0.0
H1742 H 0.14328 0.20804 0.41236 0.0
H1743 H 0.10799 0.2292 0.39125 0.0
C1744 C 0.17585 0.15791 0.46451 0.0
C1745 C 0.18617 0.16906 0.48813 0.0
C1746 C 0.15612 0.16924 0.45093 0.0
C1747 C 0.146 0.19155 0.46104 0.0
C1748 C 0.1561 0.20247 0.48478 0.0
C1749 C 0.17614 0.19153 0.49803 0.0
C1750 C 0.08175 0.21881 0.44795 0.0
C1751 C 0.08356 0.22734 0.42313 0.0
C1752 C 0.102 0.2072 0.46004 0.0
C1753 C 0.1244 0.20317 0.44748 0.0
C1754 C 0.12614 0.21092 0.42242 0.0
C1755 C 0.106 0.22314 0.41043 0.0
H1756 H 0.61419 0.46765 0.1814 0.0
H1757 H 0.64681 0.42638 0.24272 0.0
H1758 H 0.5971 0.42763 0.15965 0.0
H1759 H 0.62833 0.38646 0.22207 0.0
H1760 H 0.60568 0.31484 0.17395 0.0
H1761 H 0.62801 0.35482 0.19033 0.0
H1762 H 0.56516 0.39619 0.16027 0.0
H1763 H 0.54389 0.35627 0.14247 0.0
C1764 C 0.61768 0.44995 0.19023 0.0
C1765 C 0.63192 0.45016 0.21372 0.0
C1766 C 0.60763 0.42693 0.1779 0.0
C1767 C 0.61098 0.40351 0.18905 0.0
C1768 C 0.62564 0.40384 0.21245 0.0
C1769 C 0.63619 0.42682 0.22445 0.0
C1770 C 0.59686 0.33257 0.17059 0.0
C1771 C 0.57306 0.33242 0.15687 0.0
C1772 C 0.60954 0.35557 0.18022 0.0
C1773 C 0.59846 0.37904 0.17697 0.0
C1774 C 0.57473 0.37876 0.16285 0.0
C1775 C 0.56236 0.35579 0.1527 0.0
H1776 H 0.34113 0.82763 1.00568 0.0
H1777 H 0.34876 0.8933 0.96022 0.0
H1778 H 0.37627 0.80896 0.98494 0.0
H1779 H 0.38452 0.87429 0.93928 0.0
H1780 H 0.42753 0.8109 0.89105 0.0
H1781 H 0.39282 0.83386 0.90961 0.0
H1782 H 0.42337 0.82004 0.98525 0.0
H1783 H 0.45755 0.79737 0.96712 0.0
C1784 C 0.35032 0.83815 0.99124 0.0
C1785 C 0.34213 0.86204 0.98468 0.0
C1786 C 0.37059 0.82744 0.97941 0.0
C1787 C 0.38324 0.84019 0.96056 0.0
C1788 C 0.37502 0.864 0.95369 0.0
C1789 C 0.35474 0.87495 0.96581 0.0
C1790 C 0.42684 0.81289 0.91163 0.0
C1791 C 0.44517 0.80194 0.92754 0.0
C1792 C 0.40709 0.82616 0.92223 0.0
C1793 C 0.40527 0.82852 0.94887 0.0
C1794 C 0.42403 0.81822 0.96465 0.0
C1795 C 0.44368 0.80519 0.95417 0.0
H1796 H 0.95504 0.43524 0.77145 0.0
H1797 H 0.89962 0.44317 0.82851 0.0
H1798 H 0.97341 0.40094 0.79379 0.0
H1799 H 0.91902 0.40969 0.85207 0.0
H1800 H 0.94666 0.33233 0.87596 0.0
H1801 H 0.92603 0.36651 0.85475 0.0
H1802 H 0.99917 0.39309 0.82882 0.0
H1803 H 0.01916 0.35805 0.8486 0.0
C1804 C 0.94689 0.4297 0.78895 0.0
C1805 C 0.92593 0.44193 0.79825 0.0
C1806 C 0.95762 0.41016 0.80201 0.0
C1807 C 0.94815 0.40266 0.82517 0.0
C1808 C 0.9268 0.41466 0.83424 0.0
C1809 C 0.91567 0.43393 0.82079 0.0
C1810 C 0.95828 0.34568 0.86589 0.0
C1811 C 0.98449 0.34244 0.8638 0.0
C1812 C 0.94648 0.36537 0.85374 0.0
C1813 C 0.96073 0.38254 0.83959 0.0
C1814 C 0.98725 0.37988 0.83871 0.0
C1815 C 0.99887 0.35993 0.85034 0.0
H1816 H 0.35522 0.12751 0.55563 0.0
H1817 H 0.31834 0.19363 0.58471 0.0
H1818 H 0.39549 0.14419 0.57757 0.0
H1819 H 0.35861 0.21066 0.60569 0.0
H1820 H 0.42997 0.2278 0.657 0.0
H1821 H 0.38978 0.2065 0.63941 0.0
H1822 H 0.42801 0.17707 0.57427 0.0
H1823 H 0.46828 0.19745 0.59229 0.0
C1824 C 0.35565 0.14558 0.56667 0.0
C1825 C 0.33347 0.15927 0.56814 0.0
C1826 C 0.37883 0.15525 0.57914 0.0
C1827 C 0.38047 0.17891 0.59334 0.0
C1828 C 0.35813 0.19225 0.59526 0.0
C1829 C 0.33497 0.18254 0.58296 0.0
C1830 C 0.42987 0.21662 0.63902 0.0
C1831 C 0.45242 0.21464 0.62598 0.0
C1832 C 0.40673 0.20451 0.62882 0.0
C1833 C 0.40547 0.19019 0.60524 0.0
C1834 C 0.42818 0.18766 0.59257 0.0
C1835 C 0.45134 0.19961 0.60285 0.0
H1836 H 0.54258 0.66856 0.3806 0.0
H1837 H 0.5937 0.72127 0.345 0.0
H1838 H 0.56235 0.63275 0.35921 0.0
H1839 H 0.61297 0.68583 0.32354 0.0
H1840 H 0.65613 0.6162 0.30235 0.0
H1841 H 0.63932 0.64989 0.32937 0.0
H1842 H 0.56308 0.61445 0.31522 0.0
H1843 H 0.57983 0.58068 0.28857 0.0
C1844 C 0.5582 0.67253 0.36852 0.0
C1845 C 0.5664 0.69783 0.36447 0.0
C1846 C 0.5694 0.65203 0.35608 0.0
C1847 C 0.5892 0.65639 0.33952 0.0
C1848 C 0.59799 0.68168 0.33632 0.0
C1849 C 0.58676 0.70207 0.34856 0.0
C1850 C 0.63579 0.61557 0.30503 0.0
C1851 C 0.61935 0.59581 0.29307 0.0
C1852 C 0.62613 0.63491 0.3205 0.0
C1853 C 0.59981 0.63491 0.3245 0.0
C1854 C 0.58347 0.6149 0.31288 0.0
C1855 C 0.59309 0.59564 0.29735 0.0
H1856 H 0.09406 0.83789 0.14164 0.0
H1857 H 0.103 0.77018 0.09322 0.0
H1858 H 0.12906 0.8602 0.12118 0.0
H1859 H 0.13816 0.79233 0.07326 0.0
H1860 H 0.21928 0.83085 0.07032 0.0
H1861 H 0.18363 0.81108 0.09084 0.0
H1862 H 0.13809 0.87428 0.07364 0.0
H1863 H 0.17385 0.89416 0.05207 0.0
C1864 C 0.10361 0.8277 0.12682 0.0
C1865 C 0.09585 0.80219 0.11917 0.0
C1866 C 0.12346 0.84056 0.11497 0.0
C1867 C 0.13626 0.828 0.09563 0.0
C1868 C 0.12867 0.80245 0.08819 0.0
C1869 C 0.10855 0.78977 0.09964 0.0
C1870 C 0.2017 0.84064 0.07057 0.0
C1871 C 0.19943 0.86401 0.05902 0.0
C1872 C 0.18125 0.82921 0.08245 0.0
C1873 C 0.15805 0.84101 0.08366 0.0
C1874 C 0.15583 0.86477 0.07295 0.0
C1875 C 0.17626 0.87608 0.06054 0.0
H1876 H 0.69766 0.94211 0.56369 0.0
H1877 H 0.74583 0.90344 0.61654 0.0
H1878 H 0.678 0.96319 0.59915 0.0
H1879 H 0.72568 0.92449 0.65232 0.0
H1880 H 0.70887 0.99433 0.70578 0.0
H1881 H 0.7258 0.96812 0.67178 0.0
H1882 H 0.65026 0.95692 0.63419 0.0
H1883 H 0.63326 0.98351 0.66815 0.0
C1884 C 0.70388 0.93782 0.5829 0.0
C1885 C 0.72353 0.92113 0.58719 0.0
C1886 C 0.69241 0.94985 0.60329 0.0
C1887 C 0.70026 0.94565 0.62864 0.0
C1888 C 0.71937 0.92838 0.63301 0.0
C1889 C 0.7308 0.91615 0.61252 0.0
C1890 C 0.69579 0.98628 0.6903 0.0
C1891 C 0.66969 0.99127 0.68962 0.0
C1892 C 0.70551 0.971 0.6709 0.0
C1893 C 0.68943 0.96035 0.65022 0.0
C1894 C 0.66325 0.96503 0.6497 0.0
C1895 C 0.65348 0.98024 0.66921 0.0
H1896 H 0.89031 0.97123 0.35498 0.0
H1897 H 0.81666 0.99957 0.33452 0.0
H1898 H 0.87147 0.94937 0.39021 0.0
H1899 H 0.79821 0.97797 0.36932 0.0
H1900 H 0.7835 0.96645 0.45228 0.0
H1901 H 0.80457 0.98508 0.41725 0.0
H1902 H 0.83626 0.91308 0.39789 0.0
H1903 H 0.81492 0.89406 0.43336 0.0
C1904 C 0.87018 0.97278 0.35793 0.0
C1905 C 0.85507 0.98733 0.34202 0.0
C1906 C 0.8594 0.96014 0.37796 0.0
C1907 C 0.83342 0.96213 0.38259 0.0
C1908 C 0.81834 0.97633 0.36643 0.0
C1909 C 0.82897 0.98867 0.34639 0.0
C1910 C 0.79496 0.95446 0.44069 0.0
C1911 C 0.79736 0.92866 0.44559 0.0
C1912 C 0.80698 0.96518 0.42052 0.0
C1913 C 0.82193 0.95051 0.40474 0.0
C1914 C 0.82491 0.92484 0.40984 0.0
C1915 C 0.81256 0.91394 0.43 0.0
H1916 H 0.8038 0.15499 0.12096 0.0
H1917 H 0.79488 0.08028 0.08158 0.0
H1918 H 0.82946 0.13751 0.15536 0.0
H1919 H 0.82018 0.06287 0.11598 0.0
H1920 H 0.88346 0.04237 0.17268 0.0
H1921 H 0.86343 0.06321 0.13681 0.0
H1922 H 0.82202 0.10875 0.18946 0.0
H1923 H 0.84207 0.08838 0.22506 0.0
C1924 C 0.80731 0.13487 0.1196 0.0
C1925 C 0.79707 0.11904 0.09857 0.0
C1926 C 0.82198 0.12483 0.13935 0.0
C1927 C 0.82691 0.09875 0.13846 0.0
C1928 C 0.81708 0.08307 0.11717 0.0
C1929 C 0.80233 0.09306 0.09753 0.0
C1930 C 0.87036 0.05708 0.17659 0.0
C1931 C 0.86432 0.06353 0.20179 0.0
C1932 C 0.85873 0.0689 0.15603 0.0
C1933 C 0.841 0.08759 0.16022 0.0
C1934 C 0.83574 0.09465 0.18548 0.0
C1935 C 0.84718 0.08278 0.20594 0.0
H1936 H 0.67786 0.10389 0.81703 0.0
H1937 H 0.64599 0.04349 0.86004 0.0
H1938 H 0.69524 0.12652 0.85653 0.0
H1939 H 0.6647 0.06505 0.89942 0.0
H1940 H 0.68615 0.11511 0.96986 0.0
H1941 H 0.66423 0.09763 0.93008 0.0
H1942 H 0.72713 0.1272 0.88835 0.0
H1943 H 0.74802 0.14609 0.92809 0.0
C1944 C 0.67464 0.09542 0.83498 0.0
C1945 C 0.66046 0.07196 0.83542 0.0
C1946 C 0.68483 0.10828 0.85771 0.0
C1947 C 0.68163 0.09773 0.88147 0.0
C1948 C 0.66722 0.07426 0.88176 0.0
C1949 C 0.65655 0.06171 0.85909 0.0
C1950 C 0.69507 0.11814 0.95209 0.0
C1951 C 0.71877 0.13201 0.95209 0.0
C1952 C 0.68263 0.10787 0.92921 0.0
C1953 C 0.69389 0.11059 0.90571 0.0
C1954 C 0.71747 0.12494 0.9058 0.0
C1955 C 0.7296 0.13574 0.92866 0.0
H1956 H 0.61131 0.73323 0.89312 0.0
H1957 H 0.56508 0.71077 0.9546 0.0
H1958 H 0.64726 0.71168 0.9125 0.0
H1959 H 0.60096 0.6903 0.97397 0.0
H1960 H 0.68171 0.68955 0.01584 0.0
H1961 H 0.646 0.70895 0.99402 0.0
H1962 H 0.65726 0.66369 0.92494 0.0
H1963 H 0.69276 0.64374 0.9469 0.0
C1964 C 0.60874 0.72378 0.91066 0.0
C1965 C 0.5853 0.72418 0.92241 0.0
C1966 C 0.6293 0.71141 0.9217 0.0
C1967 C 0.62694 0.69959 0.94489 0.0
C1968 C 0.60344 0.69956 0.9563 0.0
C1969 C 0.58285 0.7114 0.9451 0.0
C1970 C 0.6765 0.68359 0.99605 0.0
C1971 C 0.68996 0.66494 0.98318 0.0
C1972 C 0.65607 0.69471 0.98357 0.0
C1973 C 0.64893 0.68786 0.95777 0.0
C1974 C 0.66248 0.66941 0.94478 0.0
C1975 C 0.68262 0.65786 0.95743 0.0
H1976 H 0.15407 0.12546 0.79433 0.0
H1977 H 0.08089 0.08288 0.7919 0.0
H1978 H 0.13651 0.16015 0.81959 0.0
H1979 H 0.06347 0.11743 0.81683 0.0
H1980 H 0.04642 0.1739 0.8819 0.0
H1981 H 0.06666 0.13895 0.85986 0.0
H1982 H 0.1049 0.1927 0.81346 0.0
H1983 H 0.08495 0.22759 0.83548 0.0
C1984 C 0.13429 0.12347 0.79917 0.0
C1985 C 0.1189 0.10141 0.79094 0.0
C1986 C 0.1242 0.14338 0.81357 0.0
C1987 C 0.09857 0.14157 0.82028 0.0
C1988 C 0.08334 0.11936 0.81231 0.0
C1989 C 0.09333 0.0996 0.79779 0.0
C1990 C 0.05924 0.17831 0.8671 0.0
C1991 C 0.06388 0.20362 0.86045 0.0
C1992 C 0.07077 0.15824 0.85438 0.0
C1993 C 0.08738 0.163 0.83483 0.0
C1994 C 0.09245 0.18836 0.82859 0.0
C1995 C 0.08081 0.20837 0.84115 0.0
H1996 H 0.93143 0.2738 0.44175 0.0
H1997 H 0.94916 0.34036 0.40008 0.0
H1998 H 0.89669 0.29496 0.4609 0.0
H1999 H 0.91511 0.36227 0.42029 0.0
H2000 H 0.83669 0.38597 0.44574 0.0
H2001 H 0.87099 0.36592 0.42408 0.0
H2002 H 0.88982 0.32644 0.49202 0.0
H2003 H 0.85482 0.34541 0.51293 0.0
C2004 C 0.92789 0.29302 0.4367 0.0
C2005 C 0.94307 0.3054 0.41942 0.0
C2006 C 0.9081 0.30534 0.44792 0.0
C2007 C 0.90324 0.33063 0.44262 0.0
C2008 C 0.91806 0.34277 0.42477 0.0
C2009 C 0.93764 0.33023 0.41317 0.0
C2010 C 0.84837 0.3732 0.45607 0.0
C2011 C 0.84297 0.36716 0.48098 0.0
C2012 C 0.8681 0.36169 0.44366 0.0
C2013 C 0.88308 0.34415 0.45606 0.0
C2014 C 0.87828 0.33915 0.48146 0.0
C2015 C 0.85836 0.35028 0.49363 0.0
H2016 H 0.65673 0.94332 0.82322 0.0
H2017 H 0.57928 0.9657 0.82903 0.0
H2018 H 0.64545 0.90352 0.84335 0.0
H2019 H 0.56831 0.92632 0.84965 0.0
H2020 H 0.56741 0.86449 0.90931 0.0
H2021 H 0.58263 0.90494 0.89268 0.0
H2022 H 0.61265 0.86369 0.82884 0.0
H2023 H 0.59693 0.82332 0.84502 0.0
C2024 C 0.63739 0.93985 0.82899 0.0
C2025 C 0.61887 0.95761 0.82445 0.0
C2026 C 0.63095 0.91708 0.84044 0.0
C2027 C 0.60605 0.91192 0.84816 0.0
C2028 C 0.5877 0.92991 0.8441 0.0
C2029 C 0.59396 0.95237 0.83214 0.0
C2030 C 0.57761 0.86404 0.89195 0.0
C2031 C 0.58097 0.84071 0.87848 0.0
C2032 C 0.58616 0.88718 0.88236 0.0
C2033 C 0.59877 0.88742 0.85946 0.0
C2034 C 0.60312 0.86406 0.84661 0.0
C2035 C 0.59407 0.84098 0.85585 0.0
H2036 H 0.95992 0.19129 0.39698 0.0
H2037 H 1.00656 0.19529 0.332 0.0
H2038 H 0.93754 0.15231 0.37734 0.0
H2039 H 0.98312 0.15828 0.31165 0.0
H2040 H 0.95576 0.07935 0.28742 0.0
H2041 H 0.978 0.11535 0.31109 0.0
H2042 H 0.90799 0.13364 0.34574 0.0
H2043 H 0.88614 0.09574 0.32346 0.0
C2044 C 0.96522 0.18408 0.37842 0.0
C2045 C 0.985 0.19669 0.36608 0.0
C2046 C 0.95222 0.16179 0.36701 0.0
C2047 C 0.95843 0.15176 0.34281 0.0
C2048 C 0.97805 0.16469 0.33053 0.0
C2049 C 0.99135 0.18644 0.34212 0.0
C2050 C 0.94509 0.09068 0.30038 0.0
C2051 C 0.91912 0.08435 0.30358 0.0
C2052 C 0.95784 0.1118 0.31378 0.0
C2053 C 0.94487 0.12801 0.33019 0.0
C2054 C 0.91884 0.12161 0.33358 0.0
C2055 C 0.9062 0.09992 0.32061 0.0
H2056 H 0.63153 0.085 0.69888 0.0
H2057 H 0.58933 0.10078 0.76554 0.0
H2058 H 0.61186 0.11999 0.67802 0.0
H2059 H 0.5709 0.13639 0.74558 0.0
H2060 H 0.52125 0.18314 0.69723 0.0
H2061 H 0.54094 0.14726 0.71546 0.0
H2062 H 0.60893 0.16384 0.67508 0.0
H2063 H 0.58834 0.19908 0.65561 0.0
C2064 C 0.61826 0.09611 0.70919 0.0
C2065 C 0.61187 0.08987 0.73382 0.0
C2066 C 0.60705 0.11635 0.69728 0.0
C2067 C 0.58943 0.13116 0.70985 0.0
C2068 C 0.58367 0.12517 0.73478 0.0
C2069 C 0.59448 0.10474 0.74642 0.0
C2070 C 0.54039 0.17913 0.69214 0.0
C2071 C 0.55322 0.19415 0.675 0.0
C2072 C 0.55188 0.15856 0.70284 0.0
C2073 C 0.57687 0.15257 0.69722 0.0
C2074 C 0.58962 0.16748 0.67978 0.0
C2075 C 0.57786 0.18786 0.66867 0.0
H2076 H 0.18812 0.34514 0.02242 0.0
H2077 H 0.20746 0.38564 0.9562 0.0
H2078 H 0.151 0.32431 0.99859 0.0
H2079 H 0.17059 0.36393 0.93189 0.0
H2080 H 0.08826 0.33625 0.90283 0.0
H2081 H 0.125 0.35947 0.92594 0.0
H2082 H 0.14064 0.29212 0.96616 0.0
H2083 H 0.10361 0.26937 0.94388 0.0
C2084 C 0.18453 0.34959 1.00271 0.0
C2085 C 0.20098 0.36703 0.99125 0.0
C2086 C 0.16325 0.33741 0.98891 0.0
C2087 C 0.15786 0.34205 0.9631 0.0
C2088 C 0.17397 0.35996 0.95175 0.0
C2089 C 0.19522 0.37237 0.96569 0.0
C2090 C 0.0996 0.3264 0.91656 0.0
C2091 C 0.09279 0.30096 0.92158 0.0
C2092 C 0.12078 0.3397 0.92977 0.0
C2093 C 0.13577 0.32784 0.9482 0.0
C2094 C 0.12927 0.30218 0.95264 0.0
C2095 C 0.10806 0.289 0.93964 0.0
H2096 H 0.46444 0.68988 0.43908 0.0
H2097 H 0.42259 0.72386 0.37789 0.0
H2098 H 0.4241 0.67491 0.45594 0.0
H2099 H 0.38225 0.70923 0.3951 0.0
H2100 H 0.32208 0.71088 0.4584 0.0
H2101 H 0.36142 0.72171 0.43758 0.0
H2102 H 0.38368 0.64441 0.44293 0.0
H2103 H 0.34401 0.63334 0.46341 0.0
C2104 C 0.44664 0.69391 0.42906 0.0
C2105 C 0.44675 0.70806 0.40712 0.0
C2106 C 0.42355 0.68527 0.4387 0.0
C2107 C 0.40003 0.691 0.42691 0.0
C2108 C 0.4001 0.70467 0.40467 0.0
C2109 C 0.4232 0.71288 0.39472 0.0
C2110 C 0.33529 0.69614 0.45505 0.0
C2111 C 0.32991 0.67124 0.46258 0.0
C2112 C 0.35774 0.70232 0.44297 0.0
C2113 C 0.37559 0.68389 0.43856 0.0
C2114 C 0.37028 0.659 0.44613 0.0
C2115 C 0.34755 0.65266 0.45777 0.0
H2116 H 0.84863 0.59496 0.82271 0.0
H2117 H 0.91213 0.56328 0.86324 0.0
H2118 H 0.83293 0.6105 0.8633 0.0
H2119 H 0.89605 0.57848 0.90393 0.0
H2120 H 0.83313 0.57548 0.96511 0.0
H2121 H 0.85419 0.5651 0.92589 0.0
H2122 H 0.8464 0.64191 0.90298 0.0
H2123 H 0.82569 0.65255 0.94259 0.0
C2124 C 0.85942 0.59159 0.84028 0.0
C2125 C 0.88164 0.57787 0.83975 0.0
C2126 C 0.85045 0.60058 0.8635 0.0
C2127 C 0.8632 0.59562 0.88678 0.0
C2128 C 0.88578 0.58247 0.88627 0.0
C2129 C 0.89506 0.57392 0.86298 0.0
C2130 C 0.83606 0.59024 0.95182 0.0
C2131 C 0.82769 0.61484 0.95695 0.0
C2132 C 0.84828 0.58432 0.92944 0.0
C2133 C 0.852 0.6027 0.9114 0.0
C2134 C 0.84376 0.62736 0.91654 0.0
C2135 C 0.83198 0.63345 0.93923 0.0
H2136 H 0.7157 0.53669 0.20095 0.0
H2137 H 0.64489 0.57244 0.18513 0.0
H2138 H 0.73391 0.55625 0.16494 0.0
H2139 H 0.66294 0.59137 0.14817 0.0
H2140 H 0.7126 0.63963 0.09629 0.0
H2141 H 0.6934 0.62227 0.13345 0.0
H2142 H 0.73154 0.55252 0.12021 0.0
H2143 H 0.75133 0.57008 0.08403 0.0
C2144 C 0.70392 0.54871 0.1898 0.0
C2145 C 0.67874 0.55292 0.19614 0.0
C2146 C 0.71435 0.5598 0.16885 0.0
C2147 C 0.6999 0.57525 0.15326 0.0
C2148 C 0.6748 0.5798 0.15978 0.0
C2149 C 0.66438 0.56882 0.18096 0.0
C2150 C 0.71684 0.62056 0.10129 0.0
C2151 C 0.7336 0.60634 0.08701 0.0
C2152 C 0.70571 0.61053 0.12259 0.0
C2153 C 0.71098 0.58598 0.13014 0.0
C2154 C 0.72738 0.57168 0.1155 0.0
C2155 C 0.7386 0.58173 0.09444 0.0
H2156 H 0.68804 0.44297 0.46257 0.0
H2157 H 0.71879 0.37815 0.42356 0.0
H2158 H 0.67291 0.45802 0.42149 0.0
H2159 H 0.70417 0.39366 0.38236 0.0
H2160 H 0.70911 0.45701 0.3209 0.0
H2161 H 0.71899 0.43661 0.36066 0.0
H2162 H 0.64098 0.44235 0.3811 0.0
H2163 H 0.6308 0.46224 0.34089 0.0
C2164 C 0.69127 0.43177 0.44522 0.0
C2165 C 0.70456 0.40935 0.44629 0.0
C2166 C 0.68255 0.44036 0.42174 0.0
C2167 C 0.68744 0.42704 0.39877 0.0
C2168 C 0.70021 0.40431 0.39981 0.0
C2169 C 0.70842 0.39536 0.42336 0.0
C2170 C 0.694 0.45377 0.33378 0.0
C2171 C 0.66917 0.46128 0.32778 0.0
C2172 C 0.69963 0.44194 0.35644 0.0
C2173 C 0.68073 0.43784 0.37389 0.0
C2174 C 0.65589 0.44529 0.36794 0.0
C2175 C 0.65007 0.4566 0.34494 0.0
H2176 H 0.83072 0.50358 0.70145 0.0
H2177 H 0.89753 0.46135 0.689 0.0
H2178 H 0.80821 0.48052 0.66514 0.0
H2179 H 0.8756 0.43952 0.65097 0.0
H2180 H 0.82193 0.38889 0.59477 0.0
H2181 H 0.84442 0.40925 0.63328 0.0
H2182 H 0.80434 0.47768 0.62192 0.0
H2183 H 0.78069 0.45676 0.58516 0.0
C2184 C 0.84073 0.4894 0.69092 0.0
C2185 C 0.86593 0.48422 0.69849 0.0
C2186 C 0.82785 0.47633 0.66964 0.0
C2187 C 0.84 0.45817 0.65461 0.0
C2188 C 0.86533 0.45302 0.66212 0.0
C2189 C 0.87805 0.46572 0.68389 0.0
C2190 C 0.81787 0.40825 0.60064 0.0
C2191 C 0.79952 0.42116 0.58663 0.0
C2192 C 0.83095 0.42006 0.62267 0.0
C2193 C 0.82632 0.44524 0.63106 0.0
C2194 C 0.80816 0.45811 0.61674 0.0
C2195 C 0.79474 0.44615 0.59519 0.0
H2196 H 0.44383 0.05968 0.19405 0.0
H2197 H 0.40887 0.11104 0.24691 0.0
H2198 H 0.4648 0.0957 0.17523 0.0
H2199 H 0.42978 0.14746 0.22757 0.0
H2200 H 0.49968 0.20062 0.20943 0.0
H2201 H 0.47356 0.16634 0.22616 0.0
H2202 H 0.45822 0.132 0.14975 0.0
H2203 H 0.48472 0.16617 0.13297 0.0
C2204 C 0.44031 0.0787 0.2015 0.0
C2205 C 0.42471 0.08237 0.22218 0.0
C2206 C 0.45227 0.09944 0.19051 0.0
C2207 C 0.4491 0.12454 0.19988 0.0
C2208 C 0.43288 0.12834 0.22007 0.0
C2209 C 0.42072 0.10749 0.23103 0.0
C2210 C 0.49074 0.18579 0.19614 0.0
C2211 C 0.49455 0.18606 0.16983 0.0
C2212 C 0.47552 0.16623 0.20575 0.0
C2213 C 0.46374 0.14636 0.18934 0.0
C2214 C 0.46724 0.14684 0.16298 0.0
C2215 C 0.48242 0.16646 0.15334 0.0
H2216 H 0.06049 0.85553 0.62703 0.0
H2217 H 0.08992 0.81913 0.69336 0.0
H2218 H 0.08259 0.89573 0.64326 0.0
H2219 H 0.11103 0.85946 0.71006 0.0
H2220 H 0.16111 0.93179 0.72741 0.0
H2221 H 0.14436 0.89125 0.70622 0.0
H2222 H 0.0787 0.92801 0.67568 0.0
H2223 H 0.09585 0.96849 0.69582 0.0
C2224 C 0.07162 0.85606 0.64508 0.0
C2225 C 0.07308 0.83406 0.65899 0.0
C2226 C 0.08421 0.8792 0.6545 0.0
C2227 C 0.09846 0.88104 0.67815 0.0
C2228 C 0.10051 0.85883 0.69167 0.0
C2229 C 0.08812 0.83566 0.68216 0.0
C2230 C 0.14324 0.93128 0.71594 0.0
C2231 C 0.12978 0.95347 0.71359 0.0
C2232 C 0.13351 0.90794 0.70392 0.0
C2233 C 0.11002 0.90618 0.68933 0.0
C2234 C 0.09698 0.92855 0.68643 0.0
C2235 C 0.10676 0.95185 0.69827 0.0
H2236 H 0.47524 0.85194 0.38828 0.0
H2237 H 0.50659 0.83082 0.3163 0.0
H2238 H 0.45362 0.88651 0.36805 0.0
H2239 H 0.4852 0.86491 0.29645 0.0
H2240 H 0.47201 0.9467 0.27889 0.0
H2241 H 0.49093 0.91266 0.30129 0.0
H2242 H 0.41836 0.89289 0.33208 0.0
H2243 H 0.3991 0.92735 0.30947 0.0
C2244 C 0.47753 0.85463 0.36824 0.0
C2245 C 0.49279 0.83869 0.35399 0.0
C2246 C 0.46502 0.87427 0.35664 0.0
C2247 C 0.46787 0.87848 0.33072 0.0
C2248 C 0.48289 0.86235 0.31653 0.0
C2249 C 0.49509 0.84271 0.32795 0.0
C2250 C 0.45996 0.9352 0.29041 0.0
C2251 C 0.43395 0.93968 0.29222 0.0
C2252 C 0.47084 0.91561 0.30321 0.0
C2253 C 0.4561 0.90002 0.31833 0.0
C2254 C 0.43019 0.9047 0.32063 0.0
C2255 C 0.41915 0.92427 0.30754 0.0
H2256 H 0.8183 0.69129 0.08497 0.0
H2257 H 0.85743 0.62584 0.05786 0.0
H2258 H 0.85792 0.70953 0.10658 0.0
H2259 H 0.89698 0.64383 0.08022 0.0
H2260 H 0.96809 0.69952 0.09459 0.0
H2261 H 0.92843 0.67806 0.07631 0.0
H2262 H 0.88899 0.70588 0.14127 0.0
H2263 H 0.92861 0.72809 0.1593 0.0
C2264 C 0.83527 0.68062 0.08378 0.0
C2265 C 0.83461 0.65716 0.06937 0.0
C2266 C 0.85803 0.69104 0.09642 0.0
C2267 C 0.88078 0.67825 0.09512 0.0
C2268 C 0.87997 0.65444 0.08131 0.0
C2269 C 0.8572 0.64403 0.06859 0.0
C2270 C 0.95103 0.70105 0.1051 0.0
C2271 C 0.95162 0.71583 0.12836 0.0
C2272 C 0.92824 0.68851 0.09466 0.0
C2273 C 0.90538 0.69026 0.10721 0.0
C2274 C 0.9061 0.70443 0.13083 0.0
C2275 C 0.92891 0.71705 0.14127 0.0
H2276 H 0.60074 0.32915 0.64397 0.0
H2277 H 0.60253 0.26716 0.58661 0.0
H2278 H 0.63548 0.35244 0.62397 0.0
H2279 H 0.6375 0.29017 0.56713 0.0
H2280 H 0.72029 0.32604 0.56375 0.0
H2281 H 0.68505 0.30497 0.58396 0.0
H2282 H 0.64176 0.37175 0.57746 0.0
H2283 H 0.67695 0.39296 0.55621 0.0
C2284 C 0.60868 0.32041 0.62726 0.0
C2285 C 0.59897 0.29625 0.61695 0.0
C2286 C 0.62838 0.33384 0.61572 0.0
C2287 C 0.63912 0.3231 0.59401 0.0
C2288 C 0.62961 0.29885 0.5839 0.0
C2289 C 0.6096 0.2857 0.59507 0.0
C2290 C 0.70326 0.33633 0.56628 0.0
C2291 C 0.70142 0.36116 0.55785 0.0
C2292 C 0.68306 0.32417 0.57798 0.0
C2293 C 0.66065 0.33666 0.58215 0.0
C2294 C 0.65889 0.36172 0.57447 0.0
C2295 C 0.67899 0.37378 0.56222 0.0
H2296 H 0.22451 0.46186 0.06773 0.0
H2297 H 0.22987 0.39631 0.11341 0.0
H2298 H 0.2033 0.48415 0.10167 0.0
H2299 H 0.20759 0.41859 0.14703 0.0
H2300 H 0.13977 0.46335 0.18392 0.0
H2301 H 0.15976 0.4395 0.14956 0.0
H2302 H 0.2205 0.4986 0.15104 0.0
H2303 H 0.20112 0.52203 0.18577 0.0
C2304 C 0.22125 0.45214 0.08496 0.0
C2305 C 0.2294 0.42737 0.08792 0.0
C2306 C 0.20897 0.46495 0.10436 0.0
C2307 C 0.20388 0.45309 0.12693 0.0
C2308 C 0.21126 0.4281 0.12974 0.0
C2309 C 0.22413 0.41544 0.11054 0.0
C2310 C 0.15732 0.47128 0.17679 0.0
C2311 C 0.16885 0.49459 0.18748 0.0
C2312 C 0.16881 0.45756 0.15731 0.0
C2313 C 0.19165 0.46724 0.14774 0.0
C2314 C 0.20286 0.49076 0.15806 0.0
C2315 C 0.19177 0.50413 0.17792 0.0
H2316 H 0.32258 0.48686 0.82689 0.0
H2317 H 0.39662 0.48343 0.86663 0.0
H2318 H 0.30276 0.46365 0.85952 0.0
H2319 H 0.37656 0.45902 0.8994 0.0
H2320 H 0.32358 0.44586 0.96722 0.0
H2321 H 0.34883 0.46363 0.93414 0.0
H2322 H 0.29743 0.42337 0.87616 0.0
H2323 H 0.27162 0.40665 0.90922 0.0
C2324 C 0.33477 0.48095 0.84252 0.0
C2325 C 0.36128 0.4872 0.84409 0.0
C2326 C 0.32333 0.46727 0.86121 0.0
C2327 C 0.33799 0.45909 0.88209 0.0
C2328 C 0.36461 0.46511 0.88367 0.0
C2329 C 0.37615 0.47901 0.86485 0.0
C2330 C 0.31794 0.44047 0.9474 0.0
C2331 C 0.29541 0.42508 0.94081 0.0
C2332 C 0.3325 0.45062 0.92839 0.0
C2333 C 0.32498 0.44538 0.90238 0.0
C2334 C 0.30343 0.42848 0.89595 0.0
C2335 C 0.2887 0.41869 0.9149 0.0
H2336 H 0.34027 0.64041 0.59457 0.0
H2337 H 0.27207 0.59333 0.6059 0.0
H2338 H 0.36297 0.62049 0.62961 0.0
H2339 H 0.29462 0.57396 0.64118 0.0
H2340 H 0.33496 0.57437 0.72223 0.0
H2341 H 0.31483 0.59369 0.68608 0.0
H2342 H 0.37613 0.57222 0.63962 0.0
H2343 H 0.39629 0.55171 0.67591 0.0
C2344 C 0.33007 0.62598 0.60464 0.0
C2345 C 0.30429 0.61858 0.59755 0.0
C2346 C 0.34315 0.61444 0.62451 0.0
C2347 C 0.33056 0.59567 0.63803 0.0
C2348 C 0.30477 0.58843 0.63109 0.0
C2349 C 0.29186 0.59955 0.61092 0.0
C2350 C 0.34424 0.57341 0.70436 0.0
C2351 C 0.36715 0.56095 0.702 0.0
C2352 C 0.33261 0.58461 0.68362 0.0
C2353 C 0.34377 0.58427 0.66002 0.0
C2354 C 0.36711 0.57269 0.65766 0.0
C2355 C 0.37859 0.56092 0.6784 0.0
H2356 H 0.19094 0.59069 0.31967 0.0
H2357 H 0.12805 0.55624 0.35796 0.0
H2358 H 0.20883 0.6105 0.36001 0.0
H2359 H 0.14562 0.57702 0.39848 0.0
H2360 H 0.20228 0.59179 0.46925 0.0
H2361 H 0.18052 0.5743 0.42937 0.0
H2362 H 0.20408 0.64251 0.39259 0.0
H2363 H 0.22669 0.65957 0.43217 0.0
C2364 C 0.1807 0.58753 0.33665 0.0
C2365 C 0.15809 0.5716 0.33546 0.0
C2366 C 0.19092 0.59915 0.35988 0.0
C2367 C 0.17876 0.59542 0.38266 0.0
C2368 C 0.15575 0.58004 0.38142 0.0
C2369 C 0.14555 0.56826 0.35812 0.0
C2370 C 0.20285 0.6031 0.45269 0.0
C2371 C 0.21666 0.62696 0.45393 0.0
C2372 C 0.19012 0.59313 0.4298 0.0
C2373 C 0.19065 0.60684 0.40757 0.0
C2374 C 0.20368 0.63111 0.4091 0.0
C2375 C 0.21657 0.64099 0.43192 0.0
loop_
_geom_bond_atom_site_label_1
_geom_bond_atom_site_label_2
_geom_bond_distance
_geom_bond_site_symmetry_2
_ccdc_geom_bond_type
Co0 O2 2.143 . S
Co0 O8 2.074 1_655 S
Co0 O11 2.093 . S
Co0 O24 2.097 . S
Co0 N41 2.151 1_655 S
Co0 N49 2.214 . S
Co1 O2 2.160 1_455 S
Co1 O7 2.058 . S
Co1 O17 2.057 . S
Co1 O32 2.037 1_455 S
Co1 N36 2.145 . S
Co1 N57 2.257 1_455 S
O2 Co0 2.143 . S
O2 Co1 2.160 1_655 S
C3 O4 1.278 . S
C3 O11 1.224 . S
O4 C3 1.278 . S
C5 O6 1.245 . S
C5 O17 1.232 . S
O6 C5 1.245 . S
O7 Co1 2.058 . S
O7 C33 1.269 . S
O8 Co0 2.074 1_455 S
O8 C33 1.257 . S
H9 C34 0.930 . S
H10 C40 0.930 . S
O11 Co0 2.093 . S
O11 C3 1.224 . S
H12 C44 0.929 . S
H13 C46 0.930 . S
H14 C47 0.930 . S
H15 C45 0.929 . S
H16 C48 0.928 . S
O17 Co1 2.057 . S
O17 C5 1.232 . S
H18 C37 0.929 . S
H19 C38 0.929 . S
H20 C50 0.931 . S
H21 C42 0.929 . S
H22 C51 0.930 . S
H23 C43 0.931 . S
O24 Co0 2.097 . S
O24 C52 1.214 . S
H25 C53 0.929 . S
H26 C54 0.929 . S
H27 C55 0.930 . S
H28 C56 0.929 . S
H29 C58 0.930 . S
H30 C35 0.930 . S
H31 C39 0.930 . S
O32 Co1 2.037 1_655 S
O32 C52 1.234 . S
C33 O7 1.269 . S
C33 O8 1.257 . S
C34 H9 0.930 . S
C34 C37 1.388 . S
C34 C39 1.418 . S
C35 H30 0.930 . S
C35 C38 1.404 . S
C35 C39 1.353 . S
N36 Co1 2.145 . S
N36 C37 1.397 . S
N36 C38 1.334 . S
C37 H18 0.929 . S
C37 C34 1.388 . S
C37 N36 1.397 . S
C38 H19 0.929 . S
C38 C35 1.404 . S
C38 N36 1.334 . S
C39 H31 0.930 . S
C39 C34 1.418 . S
C39 C35 1.353 . S
C40 H10 0.930 . S
C40 N41 1.330 1_655 S
C40 C42 1.446 1_655 S
N41 Co0 2.151 1_455 S
N41 C40 1.330 1_455 S
N41 C45 1.418 . S
C42 H21 0.929 . S
C42 C40 1.446 1_455 S
C42 C43 1.332 . S
C43 H23 0.931 . S
C43 C42 1.332 . S
C43 C44 1.267 . S
C44 H12 0.929 . S
C44 C43 1.267 . S
C44 C45 1.251 . S
C45 H15 0.929 . S
C45 N41 1.418 . S
C45 C44 1.251 . S
C46 H13 0.930 . S
C46 C48 1.406 . S
C46 C51 1.261 . S
C47 H14 0.930 . S
C47 N49 1.325 . S
C47 C50 1.357 . S
C48 H16 0.928 . S
C48 C46 1.406 . S
C48 N49 1.261 . S
N49 Co0 2.214 . S
N49 C47 1.325 . S
N49 C48 1.261 . S
C50 H20 0.931 . S
C50 C47 1.357 . S
C50 C51 1.312 . S
C51 H22 0.930 . S
C51 C46 1.261 . S
C51 C50 1.312 . S
C52 O24 1.214 . S
C52 O32 1.234 . S
C53 H25 0.929 . S
C53 C56 1.391 . S
C53 C58 1.391 . S
C54 H26 0.929 . S
C54 C55 1.390 . S
C54 N57 1.391 . S
C55 H27 0.930 . S
C55 C54 1.390 . S
C55 C56 1.392 . S
C56 H28 0.929 . S
C56 C53 1.391 . S
C56 C55 1.392 . S
N57 Co1 2.257 1_655 S
N57 C54 1.391 . S
N57 C58 1.388 . S
C58 H29 0.930 . S
C58 C53 1.391 . S
C58 N57 1.388 . S
Co59 O61 2.143 1_455 S
Co59 O67 2.074 . S
Co59 O70 2.093 1_455 S
Co59 O83 2.097 . S
Co59 N100 2.151 1_455 S
Co59 N108 2.214 . S
Co60 O61 2.160 1_455 S
Co60 O66 2.058 . S
Co60 O76 2.057 1_455 S
Co60 O91 2.037 . S
Co60 N95 2.145 . S
Co60 N116 2.257 1_455 S
O61 Co59 2.143 1_655 S
O61 Co60 2.160 1_655 S
C62 O63 1.278 . S
C62 O70 1.224 . S
O63 C62 1.278 . S
C64 O65 1.245 . S
C64 O76 1.232 . S
O65 C64 1.245 . S
O66 Co60 2.058 . S
O66 C92 1.269 . S
O67 Co59 2.074 . S
O67 C92 1.257 . S
H68 C93 0.930 . S
H69 C99 0.930 . S
O70 Co59 2.093 1_655 S
O70 C62 1.224 . S
H71 C103 0.929 . S
H72 C105 0.930 . S
H73 C106 0.930 . S
H74 C104 0.929 . S
H75 C107 0.914 1_655 S
O76 Co60 2.057 1_655 S
O76 C64 1.232 . S
H77 C96 0.929 . S
H78 C97 0.929 . S
H79 C109 0.931 . S
H80 C101 0.929 . S
H81 C110 0.930 . S
H82 C102 0.931 . S
O83 Co59 2.097 . S
O83 C111 1.214 . S
H84 C112 0.929 . S
H85 C113 0.929 . S
H86 C114 0.930 . S
H87 C115 0.929 . S
H88 C117 0.930 . S
H89 C94 0.930 . S
H90 C98 0.930 . S
O91 Co60 2.037 . S
O91 C111 1.234 . S
C92 O66 1.269 . S
C92 O67 1.257 . S
C93 H68 0.930 . S
C93 C96 1.388 . S
C93 C98 1.418 . S
C94 H89 0.930 . S
C94 C97 1.404 . S
C94 C98 1.353 . S
N95 Co60 2.145 . S
N95 C96 1.397 . S
N95 C97 1.334 . S
C96 H77 0.929 . S
C96 C93 1.388 . S
C96 N95 1.397 . S
C97 H78 0.929 . S
C97 C94 1.404 . S
C97 N95 1.334 . S
C98 H90 0.930 . S
C98 C93 1.418 . S
C98 C94 1.353 . S
C99 H69 0.930 . S
C99 N100 1.330 . S
C99 C101 1.446 . S
N100 Co59 2.151 1_655 S
N100 C99 1.330 . S
N100 C104 1.418 1_655 S
C101 H80 0.929 . S
C101 C99 1.446 . S
C101 C102 1.332 . S
C102 H82 0.931 . S
C102 C101 1.332 . S
C102 C103 1.267 1_655 S
C103 H71 0.929 . S
C103 C102 1.267 1_455 S
C103 C104 1.251 . S
C104 H74 0.929 . S
C104 N100 1.418 1_455 S
C104 C103 1.251 . S
C105 H72 0.930 . S
C105 C107 1.406 . S
C105 C110 1.261 . S
C106 H73 0.930 . S
C106 N108 1.325 . S
C106 C109 1.357 . S
C107 H75 0.914 1_455 S
C107 C105 1.406 . S
C107 N108 1.261 . S
N108 Co59 2.214 . S
N108 C106 1.325 . S
N108 C107 1.261 . S
C109 H79 0.931 . S
C109 C106 1.357 . S
C109 C110 1.312 . S
C110 H81 0.930 . S
C110 C105 1.261 . S
C110 C109 1.312 . S
C111 O83 1.214 . S
C111 O91 1.234 . S
C112 H84 0.929 . S
C112 C115 1.391 . S
C112 C117 1.391 . S
C113 H85 0.929 . S
C113 C114 1.390 1_455 S
C113 N116 1.391 1_455 S
C114 H86 0.930 . S
C114 C113 1.390 1_655 S
C114 C115 1.392 . S
C115 H87 0.929 . S
C115 C112 1.391 . S
C115 C114 1.392 . S
N116 Co60 2.257 1_655 S
N116 C113 1.391 1_655 S
N116 C117 1.388 . S
C117 H88 0.930 . S
C117 C112 1.391 . S
C117 N116 1.388 . S
Co118 O120 2.143 . S
Co118 O126 2.074 . S
Co118 O129 2.093 . S
Co118 O142 2.097 . S
Co118 N159 2.151 . S
Co118 N167 2.214 . S
Co119 O120 2.160 . S
Co119 O125 2.058 . S
Co119 O135 2.057 . S
Co119 O150 2.037 . S
Co119 N154 2.145 . S
Co119 N175 2.257 . S
O120 Co118 2.143 . S
O120 Co119 2.160 . S
C121 O122 1.278 . S
C121 O129 1.224 . S
O122 C121 1.278 . S
C123 O124 1.245 . S
C123 O135 1.232 . S
O124 C123 1.245 . S
O125 Co119 2.058 . S
O125 C151 1.269 . S
O126 Co118 2.074 . S
O126 C151 1.257 . S
H127 C152 0.930 . S
H128 C158 0.930 . S
O129 Co118 2.093 . S
O129 C121 1.224 . S
H130 C162 0.929 . S
H131 C164 0.930 . S
H132 C165 0.930 . S
H133 C163 0.929 . S
H134 C166 0.928 . S
O135 Co119 2.057 . S
O135 C123 1.232 . S
H136 C155 0.929 . S
H137 C156 0.929 . S
H138 C168 0.931 . S
H139 C160 0.929 . S
H140 C169 0.930 . S
H141 C161 0.895 1_554 S
O142 Co118 2.097 . S
O142 C170 1.214 . S
H143 C171 0.929 . S
H144 C172 0.929 . S
H145 C173 0.930 . S
H146 C174 0.929 . S
H147 C176 0.930 . S
H148 C153 0.930 . S
H149 C157 0.930 . S
O150 Co119 2.037 . S
O150 C170 1.234 . S
C151 O125 1.269 . S
C151 O126 1.257 . S
C152 H127 0.930 . S
C152 C155 1.388 . S
C152 C157 1.418 . S
C153 H148 0.930 . S
C153 C156 1.404 . S
C153 C157 1.353 . S
N154 Co119 2.145 . S
N154 C155 1.397 . S
N154 C156 1.334 . S
C155 H136 0.929 . S
C155 C152 1.388 . S
C155 N154 1.397 . S
C156 H137 0.929 . S
C156 C153 1.404 . S
C156 N154 1.334 . S
C157 H149 0.930 . S
C157 C152 1.418 . S
C157 C153 1.353 . S
C158 H128 0.930 . S
C158 N159 1.330 . S
C158 C160 1.446 . S
N159 Co118 2.151 . S
N159 C158 1.330 . S
N159 C163 1.418 . S
C160 H139 0.929 . S
C160 C158 1.446 . S
C160 C161 1.332 . S
C161 H141 0.895 1_556 S
C161 C160 1.332 . S
C161 C162 1.267 . S
C162 H130 0.929 . S
C162 C161 1.267 . S
C162 C163 1.251 . S
C163 H133 0.929 . S
C163 N159 1.418 . S
C163 C162 1.251 . S
C164 H131 0.930 . S
C164 C166 1.406 . S
C164 C169 1.261 . S
C165 H132 0.930 . S
C165 N167 1.325 . S
C165 C168 1.357 . S
C166 H134 0.928 . S
C166 C164 1.406 . S
C166 N167 1.261 . S
N167 Co118 2.214 . S
N167 C165 1.325 . S
N167 C166 1.261 . S
C168 H138 0.931 . S
C168 C165 1.357 . S
C168 C169 1.312 . S
C169 H140 0.930 . S
C169 C164 1.261 . S
C169 C168 1.312 . S
C170 O142 1.214 . S
C170 O150 1.234 . S
C171 H143 0.929 . S
C171 C174 1.391 . S
C171 C176 1.391 . S
C172 H144 0.929 . S
C172 C173 1.390 . S
C172 N175 1.391 . S
C173 H145 0.930 . S
C173 C172 1.390 . S
C173 C174 1.392 . S
C174 H146 0.929 . S
C174 C171 1.391 . S
C174 C173 1.392 . S
N175 Co119 2.257 . S
N175 C172 1.391 . S
N175 C176 1.388 . S
C176 H147 0.930 . S
C176 C171 1.391 . S
C176 N175 1.388 . S
Co177 O179 2.143 . S
Co177 O185 2.074 . S
Co177 O188 2.093 . S
Co177 O201 2.097 . S
Co177 N218 2.151 . S
Co177 N226 2.214 . S
Co178 O179 2.160 . S
Co178 O184 2.058 . S
Co178 O194 2.057 . S
Co178 O209 2.037 . S
Co178 N213 2.145 . S
Co178 N234 2.257 . S
O179 Co177 2.143 . S
O179 Co178 2.160 . S
C180 O181 1.278 . S
C180 O188 1.224 . S
O181 C180 1.278 . S
C182 O183 1.245 . S
C182 O194 1.232 . S
O183 C182 1.245 . S
O184 Co178 2.058 . S
O184 C210 1.269 . S
O185 Co177 2.074 . S
O185 C210 1.257 . S
H186 C211 0.930 . S
H187 C217 0.930 . S
O188 Co177 2.093 . S
O188 C180 1.224 . S
H189 C221 0.929 . S
H190 C223 0.930 . S
H191 C224 0.930 . S
H192 C222 0.929 . S
H193 C225 0.928 . S
O194 Co178 2.057 . S
O194 C182 1.232 . S
H195 C214 0.929 . S
H196 C215 0.929 . S
H197 C227 0.931 . S
H198 C219 0.929 . S
H199 C228 0.930 . S
H200 C220 0.931 . S
O201 Co177 2.097 . S
O201 C229 1.214 . S
H202 C230 0.929 . S
H203 C231 0.929 . S
H204 C232 0.930 . S
H205 C233 0.929 . S
H206 C235 0.930 . S
H207 C212 0.930 . S
H208 C216 0.930 . S
O209 Co178 2.037 . S
O209 C229 1.234 . S
C210 O184 1.269 . S
C210 O185 1.257 . S
C211 H186 0.930 . S
C211 C214 1.388 . S
C211 C216 1.418 . S
C212 H207 0.930 . S
C212 C215 1.404 . S
C212 C216 1.353 . S
N213 Co178 2.145 . S
N213 C214 1.397 . S
N213 C215 1.334 . S
C214 H195 0.929 . S
C214 C211 1.388 . S
C214 N213 1.397 . S
C215 H196 0.929 . S
C215 C212 1.404 . S
C215 N213 1.334 . S
C216 H208 0.930 . S
C216 C211 1.418 . S
C216 C212 1.353 . S
C217 H187 0.930 . S
C217 N218 1.330 . S
C217 C219 1.446 . S
N218 Co177 2.151 . S
N218 C217 1.330 . S
N218 C222 1.418 . S
C219 H198 0.929 . S
C219 C217 1.446 . S
C219 C220 1.332 . S
C220 H200 0.931 . S
C220 C219 1.332 . S
C220 C221 1.267 . S
C221 H189 0.929 . S
C221 C220 1.267 . S
C221 C222 1.251 . S
C222 H192 0.929 . S
C222 N218 1.418 . S
C222 C221 1.251 . S
C223 H190 0.930 . S
C223 C225 1.406 . S
C223 C228 1.261 . S
C224 H191 0.930 . S
C224 N226 1.325 . S
C224 C227 1.357 . S
C225 H193 0.928 . S
C225 C223 1.406 . S
C225 N226 1.261 . S
N226 Co177 2.214 . S
N226 C224 1.325 . S
N226 C225 1.261 . S
C227 H197 0.931 . S
C227 C224 1.357 . S
C227 C228 1.312 . S
C228 H199 0.930 . S
C228 C223 1.261 . S
C228 C227 1.312 . S
C229 O201 1.214 . S
C229 O209 1.234 . S
C230 H202 0.929 . S
C230 C233 1.391 . S
C230 C235 1.391 . S
C231 H203 0.929 . S
C231 C232 1.390 . S
C231 N234 1.391 . S
C232 H204 0.930 . S
C232 C231 1.390 . S
C232 C233 1.392 . S
C233 H205 0.929 . S
C233 C230 1.391 . S
C233 C232 1.392 . S
N234 Co178 2.257 . S
N234 C231 1.391 . S
N234 C235 1.388 . S
C235 H206 0.930 . S
C235 C230 1.391 . S
C235 N234 1.388 . S
Co236 O238 2.143 . S
Co236 O244 2.074 1_455 S
Co236 O247 2.093 . S
Co236 O260 2.097 . S
Co236 N277 2.151 . S
Co236 N285 2.214 . S
Co237 O238 2.160 1_655 S
Co237 O243 2.058 . S
Co237 O253 2.057 . S
Co237 O268 2.037 1_655 S
Co237 N272 2.145 . S
Co237 N293 2.257 1_655 S
O238 Co236 2.143 . S
O238 Co237 2.160 1_455 S
C239 O240 1.278 . S
C239 O247 1.224 . S
O240 C239 1.278 . S
C241 O242 1.245 . S
C241 O253 1.232 . S
O242 C241 1.245 . S
O243 Co237 2.058 . S
O243 C269 1.269 . S
O244 Co236 2.074 1_655 S
O244 C269 1.257 . S
H245 C270 0.930 . S
H246 C276 0.930 . S
O247 Co236 2.093 . S
O247 C239 1.224 . S
H248 C280 0.929 . S
H249 C282 0.930 . S
H250 C283 0.930 . S
H251 C281 0.929 . S
H252 C284 0.928 . S
O253 Co237 2.057 . S
O253 C241 1.232 . S
H254 C273 0.929 . S
H255 C274 0.929 . S
H256 C286 0.931 . S
H257 C278 0.929 . S
H258 C287 0.930 . S
H259 C279 0.931 . S
O260 Co236 2.097 . S
O260 C288 1.214 . S
H261 C289 0.929 . S
H262 C290 0.929 . S
H263 C291 0.930 . S
H264 C292 0.929 . S
H265 C294 0.930 . S
H266 C271 0.930 . S
H267 C275 0.930 . S
O268 Co237 2.037 1_455 S
O268 C288 1.234 . S
C269 O243 1.269 . S
C269 O244 1.257 . S
C270 H245 0.930 . S
C270 C273 1.388 . S
C270 C275 1.418 . S
C271 H266 0.930 . S
C271 C274 1.404 . S
C271 C275 1.353 . S
N272 Co237 2.145 . S
N272 C273 1.397 . S
N272 C274 1.334 . S
C273 H254 0.929 . S
C273 C270 1.388 . S
C273 N272 1.397 . S
C274 H255 0.929 . S
C274 C271 1.404 . S
C274 N272 1.334 . S
C275 H267 0.930 . S
C275 C270 1.418 . S
C275 C271 1.353 . S
C276 H246 0.930 . S
C276 N277 1.330 . S
C276 C278 1.446 . S
N277 Co236 2.151 . S
N277 C276 1.330 . S
N277 C281 1.418 1_455 S
C278 H257 0.929 . S
C278 C276 1.446 . S
C278 C279 1.332 1_455 S
C279 H259 0.931 . S
C279 C278 1.332 1_655 S
C279 C280 1.267 . S
C280 H248 0.929 . S
C280 C279 1.267 . S
C280 C281 1.251 . S
C281 H251 0.929 . S
C281 N277 1.418 1_655 S
C281 C280 1.251 . S
C282 H249 0.930 . S
C282 C284 1.406 . S
C282 C287 1.261 . S
C283 H250 0.930 . S
C283 N285 1.325 . S
C283 C286 1.357 . S
C284 H252 0.928 . S
C284 C282 1.406 . S
C284 N285 1.261 . S
N285 Co236 2.214 . S
N285 C283 1.325 . S
N285 C284 1.261 . S
C286 H256 0.931 . S
C286 C283 1.357 . S
C286 C287 1.312 . S
C287 H258 0.930 . S
C287 C282 1.261 . S
C287 C286 1.312 . S
C288 O260 1.214 . S
C288 O268 1.234 . S
C289 H261 0.929 . S
C289 C292 1.391 . S
C289 C294 1.391 . S
C290 H262 0.929 . S
C290 C291 1.390 . S
C290 N293 1.391 . S
C291 H263 0.930 . S
C291 C290 1.390 . S
C291 C292 1.392 . S
C292 H264 0.929 . S
C292 C289 1.391 . S
C292 C291 1.392 . S
N293 Co237 2.257 1_455 S
N293 C290 1.391 . S
N293 C294 1.388 . S
C294 H265 0.930 . S
C294 C289 1.391 . S
C294 N293 1.388 . S
Co295 O297 2.143 . S
Co295 O303 2.074 . S
Co295 O306 2.093 . S
Co295 O319 2.097 . S
Co295 N336 2.151 . S
Co295 N344 2.214 . S
Co296 O297 2.160 . S
Co296 O302 2.058 . S
Co296 O312 2.057 . S
Co296 O327 2.037 . S
Co296 N331 2.145 . S
Co296 N352 2.257 . S
O297 Co295 2.143 . S
O297 Co296 2.160 . S
C298 O299 1.278 . S
C298 O306 1.224 . S
O299 C298 1.278 . S
C300 O301 1.245 . S
C300 O312 1.232 . S
O301 C300 1.245 . S
O302 Co296 2.058 . S
O302 C328 1.269 . S
O303 Co295 2.074 . S
O303 C328 1.257 . S
H304 C329 0.930 . S
H305 C335 0.930 . S
O306 Co295 2.093 . S
O306 C298 1.224 . S
H307 C339 0.929 . S
H308 C341 0.930 . S
H309 C342 0.930 . S
H310 C340 0.929 . S
H311 C343 0.928 . S
O312 Co296 2.057 . S
O312 C300 1.232 . S
H313 C332 0.929 . S
H314 C333 0.929 . S
H315 C345 0.931 . S
H316 C337 0.929 . S
H317 C346 0.930 . S
H318 C338 0.931 . S
O319 Co295 2.097 . S
O319 C347 1.214 . S
H320 C348 0.929 . S
H321 C349 0.929 . S
H322 C350 0.930 . S
H323 C351 0.929 . S
H324 C353 0.930 . S
H325 C330 0.930 . S
H326 C334 0.930 . S
O327 Co296 2.037 . S
O327 C347 1.234 . S
C328 O302 1.269 . S
C328 O303 1.257 . S
C329 H304 0.930 . S
C329 C332 1.388 . S
C329 C334 1.418 . S
C330 H325 0.930 . S
C330 C333 1.404 . S
C330 C334 1.353 . S
N331 Co296 2.145 . S
N331 C332 1.397 . S
N331 C333 1.334 . S
C332 H313 0.929 . S
C332 C329 1.388 . S
C332 N331 1.397 . S
C333 H314 0.929 . S
C333 C330 1.404 . S
C333 N331 1.334 . S
C334 H326 0.930 . S
C334 C329 1.418 . S
C334 C330 1.353 . S
C335 H305 0.930 . S
C335 N336 1.330 . S
C335 C337 1.446 . S
N336 Co295 2.151 . S
N336 C335 1.330 . S
N336 C340 1.418 . S
C337 H316 0.929 . S
C337 C335 1.446 . S
C337 C338 1.332 . S
C338 H318 0.931 . S
C338 C337 1.332 . S
C338 C339 1.267 . S
C339 H307 0.929 . S
C339 C338 1.267 . S
C339 C340 1.251 . S
C340 H310 0.929 . S
C340 N336 1.418 . S
C340 C339 1.251 . S
C341 H308 0.930 . S
C341 C343 1.406 . S
C341 C346 1.261 . S
C342 H309 0.930 . S
C342 N344 1.325 . S
C342 C345 1.357 . S
C343 H311 0.928 . S
C343 C341 1.406 . S
C343 N344 1.261 . S
N344 Co295 2.214 . S
N344 C342 1.325 . S
N344 C343 1.261 . S
C345 H315 0.931 . S
C345 C342 1.357 . S
C345 C346 1.312 . S
C346 H317 0.930 . S
C346 C341 1.261 . S
C346 C345 1.312 . S
C347 O319 1.214 . S
C347 O327 1.234 . S
C348 H320 0.929 . S
C348 C351 1.391 . S
C348 C353 1.391 . S
C349 H321 0.929 . S
C349 C350 1.390 . S
C349 N352 1.391 . S
C350 H322 0.930 . S
C350 C349 1.390 . S
C350 C351 1.392 . S
C351 H323 0.929 . S
C351 C348 1.391 . S
C351 C350 1.392 . S
N352 Co296 2.257 . S
N352 C349 1.391 . S
N352 C353 1.388 . S
C353 H324 0.930 . S
C353 C348 1.391 . S
C353 N352 1.388 . S
Co354 O356 2.143 . S
Co354 O362 2.074 . S
Co354 O365 2.093 . S
Co354 O378 2.097 . S
Co354 N395 2.151 . S
Co354 N403 2.214 . S
Co355 O356 2.160 . S
Co355 O361 2.058 . S
Co355 O371 2.057 . S
Co355 O386 2.037 . S
Co355 N390 2.145 . S
Co355 N411 2.257 . S
O356 Co354 2.143 . S
O356 Co355 2.160 . S
C357 O358 1.278 . S
C357 O365 1.224 . S
O358 C357 1.278 . S
C359 O360 1.245 . S
C359 O371 1.232 . S
O360 C359 1.245 . S
O361 Co355 2.058 . S
O361 C387 1.269 . S
O362 Co354 2.074 . S
O362 C387 1.257 . S
H363 C388 0.930 . S
H364 C394 0.930 . S
O365 Co354 2.093 . S
O365 C357 1.224 . S
H366 C398 0.929 . S
H367 C400 0.930 . S
H368 C401 0.930 . S
H369 C399 0.929 . S
H370 C402 0.928 . S
O371 Co355 2.057 . S
O371 C359 1.232 . S
H372 C391 0.929 . S
H373 C392 0.929 . S
H374 C404 0.931 . S
H375 C396 0.929 . S
H376 C405 0.930 . S
H377 C397 0.931 . S
O378 Co354 2.097 . S
O378 C406 1.214 . S
H379 C407 0.929 . S
H380 C408 0.929 . S
H381 C409 0.930 . S
H382 C410 0.929 . S
H383 C412 0.930 . S
H384 C389 0.930 . S
H385 C393 0.930 . S
O386 Co355 2.037 . S
O386 C406 1.234 . S
C387 O361 1.269 . S
C387 O362 1.257 . S
C388 H363 0.930 . S
C388 C391 1.388 . S
C388 C393 1.418 . S
C389 H384 0.930 . S
C389 C392 1.404 . S
C389 C393 1.353 . S
N390 Co355 2.145 . S
N390 C391 1.397 . S
N390 C392 1.334 . S
C391 H372 0.929 . S
C391 C388 1.388 . S
C391 N390 1.397 . S
C392 H373 0.929 . S
C392 C389 1.404 . S
C392 N390 1.334 . S
C393 H385 0.930 . S
C393 C388 1.418 . S
C393 C389 1.353 . S
C394 H364 0.930 . S
C394 N395 1.330 . S
C394 C396 1.446 . S
N395 Co354 2.151 . S
N395 C394 1.330 . S
N395 C399 1.418 . S
C396 H375 0.929 . S
C396 C394 1.446 . S
C396 C397 1.332 . S
C397 H377 0.931 . S
C397 C396 1.332 . S
C397 C398 1.267 . S
C398 H366 0.929 . S
C398 C397 1.267 . S
C398 C399 1.251 . S
C399 H369 0.929 . S
C399 N395 1.418 . S
C399 C398 1.251 . S
C400 H367 0.930 . S
C400 C402 1.406 . S
C400 C405 1.261 . S
C401 H368 0.930 . S
C401 N403 1.325 . S
C401 C404 1.357 . S
C402 H370 0.928 . S
C402 C400 1.406 . S
C402 N403 1.261 . S
N403 Co354 2.214 . S
N403 C401 1.325 . S
N403 C402 1.261 . S
C404 H374 0.931 . S
C404 C401 1.357 . S
C404 C405 1.312 . S
C405 H376 0.930 . S
C405 C400 1.261 . S
C405 C404 1.312 . S
C406 O378 1.214 . S
C406 O386 1.234 . S
C407 H379 0.929 . S
C407 C410 1.391 . S
C407 C412 1.391 . S
C408 H380 0.929 . S
C408 C409 1.390 . S
C408 N411 1.391 . S
C409 H381 0.930 . S
C409 C408 1.390 . S
C409 C410 1.392 . S
C410 H382 0.929 . S
C410 C407 1.391 . S
C410 C409 1.392 . S
N411 Co355 2.257 . S
N411 C408 1.391 . S
N411 C412 1.388 . S
C412 H383 0.930 . S
C412 C407 1.391 . S
C412 N411 1.388 . S
Co413 O415 2.143 1_455 S
Co413 O421 2.074 . S
Co413 O424 2.093 1_455 S
Co413 O437 2.097 . S
Co413 N454 2.164 . S
Co413 N462 2.214 . S
Co414 O415 2.160 1_455 S
Co414 O420 2.058 . S
Co414 O430 2.057 1_455 S
Co414 O445 2.037 . S
Co414 N449 2.145 . S
Co414 N470 2.257 1_455 S
O415 Co413 2.143 1_655 S
O415 Co414 2.160 1_655 S
C416 O417 1.278 . S
C416 O424 1.224 . S
O417 C416 1.278 . S
C418 O419 1.245 . S
C418 O430 1.232 . S
O419 C418 1.245 . S
O420 Co414 2.058 . S
O420 C446 1.269 . S
O421 Co413 2.074 . S
O421 C446 1.257 . S
H422 C447 0.930 . S
H423 C453 0.930 . S
O424 Co413 2.093 1_655 S
O424 C416 1.224 . S
H425 C457 0.929 . S
H426 C459 0.930 . S
H427 C460 0.930 . S
H428 C458 0.929 . S
H429 C461 0.928 . S
O430 Co414 2.057 1_655 S
O430 C418 1.232 . S
H431 C450 0.929 . S
H432 C451 0.929 . S
H433 C463 0.931 . S
H434 C455 0.929 . S
H435 C464 0.930 . S
H436 C456 0.931 . S
O437 Co413 2.097 . S
O437 C465 1.214 . S
H438 C466 0.929 . S
H439 C467 0.929 1_455 S
H440 C468 0.930 . S
H441 C469 0.929 . S
H442 C471 0.930 . S
H443 C448 0.930 . S
H444 C452 0.930 . S
O445 Co414 2.037 . S
O445 C465 1.234 . S
C446 O420 1.269 . S
C446 O421 1.257 . S
C447 H422 0.930 . S
C447 C450 1.388 . S
C447 C452 1.418 . S
C448 H443 0.930 . S
C448 C451 1.404 . S
C448 C452 1.353 . S
N449 Co414 2.145 . S
N449 C450 1.397 . S
N449 C451 1.334 . S
C450 H431 0.929 . S
C450 C447 1.388 . S
C450 N449 1.397 . S
C451 H432 0.929 . S
C451 C448 1.404 . S
C451 N449 1.334 . S
C452 H444 0.930 . S
C452 C447 1.418 . S
C452 C448 1.353 . S
C453 H423 0.930 . S
C453 N454 1.286 1_655 S
C453 C455 1.446 . S
N454 Co413 2.164 . S
N454 C453 1.286 1_455 S
N454 C458 1.445 . S
C455 H434 0.929 . S
C455 C453 1.446 . S
C455 C456 1.332 . S
C456 H436 0.931 . S
C456 C455 1.332 . S
C456 C457 1.267 1_655 S
C457 H425 0.929 . S
C457 C456 1.267 1_455 S
C457 C458 1.251 . S
C458 H428 0.929 . S
C458 N454 1.445 . S
C458 C457 1.251 . S
C459 H426 0.930 . S
C459 C461 1.406 . S
C459 C464 1.261 . S
C460 H427 0.930 . S
C460 N462 1.325 . S
C460 C463 1.357 . S
C461 H429 0.928 . S
C461 C459 1.406 . S
C461 N462 1.261 . S
N462 Co413 2.214 . S
N462 C460 1.325 . S
N462 C461 1.261 . S
C463 H433 0.931 . S
C463 C460 1.357 . S
C463 C464 1.312 . S
C464 H435 0.930 . S
C464 C459 1.261 . S
C464 C463 1.312 . S
C465 O437 1.214 . S
C465 O445 1.234 . S
C466 H438 0.929 . S
C466 C469 1.391 . S
C466 C471 1.391 . S
C467 H439 0.929 1_655 S
C467 C468 1.390 . S
C467 N470 1.391 . S
C468 H440 0.930 . S
C468 C467 1.390 . S
C468 C469 1.392 . S
C469 H441 0.929 . S
C469 C466 1.391 . S
C469 C468 1.392 . S
N470 Co414 2.257 1_655 S
N470 C467 1.391 . S
N470 C471 1.388 . S
C471 H442 0.930 . S
C471 C466 1.391 . S
C471 N470 1.388 . S
Co472 O474 2.143 1_545 S
Co472 O480 2.086 . S
Co472 O483 2.093 . S
Co472 O496 2.097 . S
Co472 N513 2.151 1_545 S
Co472 N521 2.214 . S
Co473 O474 2.160 . S
Co473 O479 2.058 . S
Co473 O489 2.057 . S
Co473 O504 2.037 1_565 S
Co473 N508 2.145 . S
Co473 N529 2.257 1_565 S
O474 Co472 2.143 1_565 S
O474 Co473 2.160 . S
C475 O476 1.278 . S
C475 O483 1.224 . S
O476 C475 1.278 . S
C477 O478 1.245 . S
C477 O489 1.232 . S
O478 C477 1.245 . S
O479 Co473 2.058 . S
O479 C505 1.269 . S
O480 Co472 2.086 . S
O480 C505 1.236 1_545 S
H481 C506 0.930 . S
H482 C512 0.930 . S
O483 Co472 2.093 . S
O483 C475 1.224 . S
H484 C516 0.929 . S
H485 C518 0.930 . S
H486 C519 0.930 . S
H487 C517 0.929 . S
H488 C520 0.928 . S
O489 Co473 2.057 . S
O489 C477 1.232 . S
H490 C509 0.929 1_545 S
H491 C510 0.929 . S
H492 C522 0.931 . S
H493 C514 0.929 . S
H494 C523 0.930 . S
H495 C515 0.931 . S
O496 Co472 2.097 . S
O496 C524 1.214 . S
H497 C525 0.929 . S
H498 C526 0.929 . S
H499 C527 0.930 . S
H500 C528 0.929 . S
H501 C530 0.930 1_565 S
H502 C507 0.930 . S
H503 C511 0.930 . S
O504 Co473 2.037 1_545 S
O504 C524 1.234 . S
C505 O479 1.269 . S
C505 O480 1.236 1_565 S
C506 H481 0.930 . S
C506 C509 1.388 . S
C506 C511 1.418 . S
C507 H502 0.930 . S
C507 C510 1.404 . S
C507 C511 1.353 . S
N508 Co473 2.145 . S
N508 C509 1.397 . S
N508 C510 1.334 . S
C509 H490 0.929 1_565 S
C509 C506 1.388 . S
C509 N508 1.397 . S
C510 H491 0.929 . S
C510 C507 1.404 . S
C510 N508 1.334 . S
C511 H503 0.930 . S
C511 C506 1.418 . S
C511 C507 1.353 . S
C512 H482 0.930 . S
C512 N513 1.330 . S
C512 C514 1.446 . S
N513 Co472 2.151 1_565 S
N513 C512 1.330 . S
N513 C517 1.418 . S
C514 H493 0.929 . S
C514 C512 1.446 . S
C514 C515 1.332 . S
C515 H495 0.931 . S
C515 C514 1.332 . S
C515 C516 1.267 . S
C516 H484 0.929 . S
C516 C515 1.267 . S
C516 C517 1.251 . S
C517 H487 0.929 . S
C517 N513 1.418 . S
C517 C516 1.251 . S
C518 H485 0.930 . S
C518 C520 1.406 . S
C518 C523 1.261 . S
C519 H486 0.930 . S
C519 N521 1.325 . S
C519 C522 1.357 . S
C520 H488 0.928 . S
C520 C518 1.406 . S
C520 N521 1.261 . S
N521 Co472 2.214 . S
N521 C519 1.325 . S
N521 C520 1.261 . S
C522 H492 0.931 . S
C522 C519 1.357 . S
C522 C523 1.312 . S
C523 H494 0.930 . S
C523 C518 1.261 . S
C523 C522 1.312 . S
C524 O496 1.214 . S
C524 O504 1.234 . S
C525 H497 0.929 . S
C525 C528 1.391 . S
C525 C530 1.391 . S
C526 H498 0.929 . S
C526 C527 1.390 . S
C526 N529 1.391 . S
C527 H499 0.930 . S
C527 C526 1.390 . S
C527 C528 1.392 . S
C528 H500 0.929 . S
C528 C525 1.391 . S
C528 C527 1.392 . S
N529 Co473 2.257 1_545 S
N529 C526 1.391 . S
N529 C530 1.388 . S
C530 H501 0.930 1_545 S
C530 C525 1.391 . S
C530 N529 1.388 . S
Co531 O533 2.143 . S
Co531 O539 2.074 . S
Co531 O542 2.093 . S
Co531 O555 2.097 . S
Co531 N572 2.151 . S
Co531 N580 2.214 . S
Co532 O533 2.160 . S
Co532 O538 2.058 . S
Co532 O548 2.057 . S
Co532 O563 2.037 . S
Co532 N567 2.145 . S
Co532 N588 2.257 . S
O533 Co531 2.143 . S
O533 Co532 2.160 . S
C534 O535 1.278 . S
C534 O542 1.224 . S
O535 C534 1.278 . S
C536 O537 1.245 . S
C536 O548 1.232 . S
O537 C536 1.245 . S
O538 Co532 2.058 . S
O538 C564 1.269 . S
O539 Co531 2.074 . S
O539 C564 1.257 . S
H540 C565 0.930 . S
H541 C571 0.930 . S
O542 Co531 2.093 . S
O542 C534 1.224 . S
H543 C575 0.929 . S
H544 C577 0.930 . S
H545 C578 0.930 . S
H546 C576 0.929 . S
H547 C579 0.928 . S
O548 Co532 2.057 . S
O548 C536 1.232 . S
H549 C568 0.929 . S
H550 C569 0.929 . S
H551 C581 0.931 . S
H552 C573 0.929 . S
H553 C582 0.930 . S
H554 C574 0.931 . S
O555 Co531 2.097 . S
O555 C583 1.214 . S
H556 C584 0.929 . S
H557 C585 0.929 . S
H558 C586 0.930 . S
H559 C587 0.929 . S
H560 C589 0.930 . S
H561 C566 0.930 . S
H562 C570 0.930 . S
O563 Co532 2.037 . S
O563 C583 1.234 . S
C564 O538 1.269 . S
C564 O539 1.257 . S
C565 H540 0.930 . S
C565 C568 1.388 . S
C565 C570 1.418 . S
C566 H561 0.930 . S
C566 C569 1.404 . S
C566 C570 1.353 . S
N567 Co532 2.145 . S
N567 C568 1.397 . S
N567 C569 1.334 . S
C568 H549 0.929 . S
C568 C565 1.388 . S
C568 N567 1.397 . S
C569 H550 0.929 . S
C569 C566 1.404 . S
C569 N567 1.334 . S
C570 H562 0.930 . S
C570 C565 1.418 . S
C570 C566 1.353 . S
C571 H541 0.930 . S
C571 N572 1.330 . S
C571 C573 1.446 . S
N572 Co531 2.151 . S
N572 C571 1.330 . S
N572 C576 1.418 . S
C573 H552 0.929 . S
C573 C571 1.446 . S
C573 C574 1.332 . S
C574 H554 0.931 . S
C574 C573 1.332 . S
C574 C575 1.267 . S
C575 H543 0.929 . S
C575 C574 1.267 . S
C575 C576 1.251 . S
C576 H546 0.929 . S
C576 N572 1.418 . S
C576 C575 1.251 . S
C577 H544 0.930 . S
C577 C579 1.406 . S
C577 C582 1.261 . S
C578 H545 0.930 . S
C578 N580 1.325 . S
C578 C581 1.357 . S
C579 H547 0.928 . S
C579 C577 1.406 . S
C579 N580 1.261 . S
N580 Co531 2.214 . S
N580 C578 1.325 . S
N580 C579 1.261 . S
C581 H551 0.931 . S
C581 C578 1.357 . S
C581 C582 1.312 . S
C582 H553 0.930 . S
C582 C577 1.261 . S
C582 C581 1.312 . S
C583 O555 1.214 . S
C583 O563 1.234 . S
C584 H556 0.929 . S
C584 C587 1.391 . S
C584 C589 1.391 . S
C585 H557 0.929 . S
C585 C586 1.390 . S
C585 N588 1.391 . S
C586 H558 0.930 . S
C586 C585 1.390 . S
C586 C587 1.392 . S
C587 H559 0.929 . S
C587 C584 1.391 . S
C587 C586 1.392 . S
N588 Co532 2.257 . S
N588 C585 1.391 . S
N588 C589 1.388 . S
C589 H560 0.930 . S
C589 C584 1.391 . S
C589 N588 1.388 . S
Co590 O592 2.143 1_565 S
Co590 O598 2.074 1_565 S
Co590 O601 2.093 . S
Co590 O614 2.097 . S
Co590 N631 2.151 1_565 S
Co590 N639 2.214 . S
Co591 O592 2.160 . S
Co591 O597 2.058 . S
Co591 O607 2.057 . S
Co591 O622 2.037 1_545 S
Co591 N626 2.145 . S
Co591 N647 2.257 . S
O592 Co590 2.143 1_545 S
O592 Co591 2.160 . S
C593 O594 1.278 . S
C593 O601 1.224 . S
O594 C593 1.278 . S
C595 O596 1.245 . S
C595 O607 1.232 . S
O596 C595 1.245 . S
O597 Co591 2.058 . S
O597 C623 1.269 . S
O598 Co590 2.074 1_545 S
O598 C623 1.257 . S
H599 C624 0.930 . S
H600 C630 0.930 . S
O601 Co590 2.093 . S
O601 C593 1.224 . S
H602 C634 0.929 . S
H603 C636 0.930 . S
H604 C637 0.930 . S
H605 C635 0.929 . S
H606 C638 0.928 . S
O607 Co591 2.057 . S
O607 C595 1.232 . S
H608 C627 0.929 . S
H609 C628 0.929 . S
H610 C640 0.931 . S
H611 C632 0.929 . S
H612 C641 0.930 . S
H613 C633 0.931 . S
O614 Co590 2.097 . S
O614 C642 1.214 . S
H615 C643 0.929 1_545 S
H616 C644 0.929 . S
H617 C645 0.930 . S
H618 C646 0.929 . S
H619 C648 0.930 . S
H620 C625 0.930 . S
H621 C629 0.930 . S
O622 Co591 2.037 1_565 S
O622 C642 1.234 . S
C623 O597 1.269 . S
C623 O598 1.257 . S
C624 H599 0.930 . S
C624 C627 1.388 . S
C624 C629 1.418 . S
C625 H620 0.930 . S
C625 C628 1.404 . S
C625 C629 1.353 . S
N626 Co591 2.145 . S
N626 C627 1.397 . S
N626 C628 1.334 . S
C627 H608 0.929 . S
C627 C624 1.388 . S
C627 N626 1.397 . S
C628 H609 0.929 . S
C628 C625 1.404 . S
C628 N626 1.334 . S
C629 H621 0.930 . S
C629 C624 1.418 . S
C629 C625 1.353 . S
C630 H600 0.930 . S
C630 N631 1.330 . S
C630 C632 1.446 . S
N631 Co590 2.151 1_545 S
N631 C630 1.330 . S
N631 C635 1.418 . S
C632 H611 0.929 . S
C632 C630 1.446 . S
C632 C633 1.332 . S
C633 H613 0.931 . S
C633 C632 1.332 . S
C633 C634 1.267 . S
C634 H602 0.929 . S
C634 C633 1.267 . S
C634 C635 1.251 . S
C635 H605 0.929 . S
C635 N631 1.418 . S
C635 C634 1.251 . S
C636 H603 0.930 . S
C636 C638 1.406 . S
C636 C641 1.261 . S
C637 H604 0.930 . S
C637 N639 1.325 . S
C637 C640 1.357 . S
C638 H606 0.928 . S
C638 C636 1.406 . S
C638 N639 1.261 . S
N639 Co590 2.214 . S
N639 C637 1.325 . S
N639 C638 1.261 . S
C640 H610 0.931 . S
C640 C637 1.357 . S
C640 C641 1.312 . S
C641 H612 0.930 . S
C641 C636 1.261 . S
C641 C640 1.312 . S
C642 O614 1.214 . S
C642 O622 1.234 . S
C643 H615 0.929 1_565 S
C643 C646 1.391 . S
C643 C648 1.391 1_565 S
C644 H616 0.929 . S
C644 C645 1.390 . S
C644 N647 1.391 1_565 S
C645 H617 0.930 . S
C645 C644 1.390 . S
C645 C646 1.392 . S
C646 H618 0.929 . S
C646 C643 1.391 . S
C646 C645 1.392 . S
N647 Co591 2.257 . S
N647 C644 1.391 1_545 S
N647 C648 1.388 . S
C648 H619 0.930 . S
C648 C643 1.391 1_545 S
C648 N647 1.388 . S
Co649 O651 2.143 1_554 S
Co649 O657 2.074 . S
Co649 O660 2.108 . S
Co649 O673 2.097 . S
Co649 N690 2.151 1_554 S
Co649 N698 2.214 . S
Co650 O651 2.160 1_554 S
Co650 O656 2.058 . S
Co650 O666 2.057 1_554 S
Co650 O681 2.037 . S
Co650 N685 2.145 . S
Co650 N706 2.257 1_554 S
O651 Co649 2.143 1_556 S
O651 Co650 2.160 1_556 S
C652 O653 1.278 . S
C652 O660 1.200 1_556 S
O653 C652 1.278 . S
C654 O655 1.245 . S
C654 O666 1.232 . S
O655 C654 1.245 . S
O656 Co650 2.058 . S
O656 C682 1.269 . S
O657 Co649 2.074 . S
O657 C682 1.257 . S
H658 C683 0.930 . S
H659 C689 0.930 . S
O660 Co649 2.108 . S
O660 C652 1.200 1_554 S
H661 C693 0.929 . S
H662 C695 0.930 . S
H663 C696 0.930 . S
H664 C694 0.948 . S
H665 C697 0.928 . S
O666 Co650 2.057 1_556 S
O666 C654 1.232 . S
H667 C686 0.929 . S
H668 C687 0.929 1_556 S
H669 C699 0.931 . S
H670 C691 0.929 . S
H671 C700 0.930 . S
H672 C692 0.931 . S
O673 Co649 2.097 . S
O673 C701 1.214 . S
H674 C702 0.929 . S
H675 C703 0.929 . S
H676 C704 0.930 . S
H677 C705 0.929 . S
H678 C707 0.930 . S
H679 C684 0.930 . S
H680 C688 0.930 . S
O681 Co650 2.037 . S
O681 C701 1.234 . S
C682 O656 1.269 . S
C682 O657 1.257 . S
C683 H658 0.930 . S
C683 C686 1.388 . S
C683 C688 1.418 . S
C684 H679 0.930 . S
C684 C687 1.404 . S
C684 C688 1.353 . S
N685 Co650 2.145 . S
N685 C686 1.397 . S
N685 C687 1.334 . S
C686 H667 0.929 . S
C686 C683 1.388 . S
C686 N685 1.397 . S
C687 H668 0.929 1_554 S
C687 C684 1.404 . S
C687 N685 1.334 . S
C688 H680 0.930 . S
C688 C683 1.418 . S
C688 C684 1.353 . S
C689 H659 0.930 . S
C689 N690 1.330 . S
C689 C691 1.446 . S
N690 Co649 2.151 1_556 S
N690 C689 1.330 . S
N690 C694 1.410 1_556 S
C691 H670 0.929 . S
C691 C689 1.446 . S
C691 C692 1.332 . S
C692 H672 0.931 . S
C692 C691 1.332 . S
C692 C693 1.267 . S
C693 H661 0.929 . S
C693 C692 1.267 . S
C693 C694 1.241 1_556 S
C694 H664 0.948 . S
C694 N690 1.410 1_554 S
C694 C693 1.241 1_554 S
C695 H662 0.930 . S
C695 C697 1.406 . S
C695 C700 1.261 . S
C696 H663 0.930 . S
C696 N698 1.325 . S
C696 C699 1.357 . S
C697 H665 0.928 . S
C697 C695 1.406 . S
C697 N698 1.261 . S
N698 Co649 2.214 . S
N698 C696 1.325 . S
N698 C697 1.261 . S
C699 H669 0.931 . S
C699 C696 1.357 . S
C699 C700 1.312 . S
C700 H671 0.930 . S
C700 C695 1.261 . S
C700 C699 1.312 . S
C701 O673 1.214 . S
C701 O681 1.234 . S
C702 H674 0.929 . S
C702 C705 1.391 . S
C702 C707 1.391 . S
C703 H675 0.929 . S
C703 C704 1.390 . S
C703 N706 1.391 1_554 S
C704 H676 0.930 . S
C704 C703 1.390 . S
C704 C705 1.392 1_554 S
C705 H677 0.929 . S
C705 C702 1.391 . S
C705 C704 1.392 1_556 S
N706 Co650 2.257 1_556 S
N706 C703 1.391 1_556 S
N706 C707 1.388 . S
C707 H678 0.930 . S
C707 C702 1.391 . S
C707 N706 1.388 . S
Co708 O710 2.143 . S
Co708 O716 2.074 1_556 S
Co708 O719 2.093 . S
Co708 O732 2.097 . S
Co708 N749 2.151 1_556 S
Co708 N757 2.214 . S
Co709 O710 2.160 1_554 S
Co709 O715 2.058 . S
Co709 O725 2.057 . S
Co709 O740 2.037 1_554 S
Co709 N744 2.145 . S
Co709 N765 2.257 1_554 S
O710 Co708 2.143 . S
O710 Co709 2.160 1_556 S
C711 O712 1.278 . S
C711 O719 1.224 . S
O712 C711 1.278 . S
C713 O714 1.245 . S
C713 O725 1.232 . S
O714 C713 1.245 . S
O715 Co709 2.058 . S
O715 C741 1.269 . S
O716 Co708 2.074 1_554 S
O716 C741 1.257 . S
H717 C742 0.930 . S
H718 C748 0.930 . S
O719 Co708 2.093 . S
O719 C711 1.224 . S
H720 C752 0.929 . S
H721 C754 0.930 . S
H722 C755 0.930 . S
H723 C753 0.929 . S
H724 C756 0.928 . S
O725 Co709 2.057 . S
O725 C713 1.232 . S
H726 C745 0.929 . S
H727 C746 0.929 . S
H728 C758 0.931 . S
H729 C750 0.929 . S
H730 C759 0.930 . S
H731 C751 0.931 . S
O732 Co708 2.097 . S
O732 C760 1.214 . S
H733 C761 0.929 . S
H734 C762 0.929 . S
H735 C763 0.930 . S
H736 C764 0.929 . S
H737 C766 0.930 . S
H738 C743 0.930 . S
H739 C747 0.930 . S
O740 Co709 2.037 1_556 S
O740 C760 1.234 . S
C741 O715 1.269 . S
C741 O716 1.257 . S
C742 H717 0.930 . S
C742 C745 1.388 . S
C742 C747 1.418 . S
C743 H738 0.930 . S
C743 C746 1.404 . S
C743 C747 1.353 . S
N744 Co709 2.145 . S
N744 C745 1.397 . S
N744 C746 1.334 . S
C745 H726 0.929 . S
C745 C742 1.388 . S
C745 N744 1.397 . S
C746 H727 0.929 . S
C746 C743 1.404 . S
C746 N744 1.334 . S
C747 H739 0.930 . S
C747 C742 1.418 . S
C747 C743 1.353 . S
C748 H718 0.930 . S
C748 N749 1.330 1_556 S
C748 C750 1.446 1_556 S
N749 Co708 2.151 1_554 S
N749 C748 1.330 1_554 S
N749 C753 1.418 . S
C750 H729 0.929 . S
C750 C748 1.446 1_554 S
C750 C751 1.332 . S
C751 H731 0.931 . S
C751 C750 1.332 . S
C751 C752 1.267 . S
C752 H720 0.929 . S
C752 C751 1.267 . S
C752 C753 1.251 . S
C753 H723 0.929 . S
C753 N749 1.418 . S
C753 C752 1.251 . S
C754 H721 0.930 . S
C754 C756 1.406 . S
C754 C759 1.261 . S
C755 H722 0.930 . S
C755 N757 1.325 . S
C755 C758 1.357 . S
C756 H724 0.928 . S
C756 C754 1.406 . S
C756 N757 1.261 . S
N757 Co708 2.214 . S
N757 C755 1.325 . S
N757 C756 1.261 . S
C758 H728 0.931 . S
C758 C755 1.357 . S
C758 C759 1.312 . S
C759 H730 0.930 . S
C759 C754 1.261 . S
C759 C758 1.312 . S
C760 O732 1.214 . S
C760 O740 1.234 . S
C761 H733 0.929 . S
C761 C764 1.391 . S
C761 C766 1.391 . S
C762 H734 0.929 . S
C762 C763 1.390 . S
C762 N765 1.391 . S
C763 H735 0.930 . S
C763 C762 1.390 . S
C763 C764 1.392 . S
C764 H736 0.929 . S
C764 C761 1.391 . S
C764 C763 1.392 . S
N765 Co709 2.257 1_556 S
N765 C762 1.391 . S
N765 C766 1.388 . S
C766 H737 0.930 . S
C766 C761 1.391 . S
C766 N765 1.388 . S
Co767 O769 2.143 1_556 S
Co767 O775 2.074 1_556 S
Co767 O778 2.093 . S
Co767 O791 2.097 . S
Co767 N808 2.151 1_556 S
Co767 N816 2.214 . S
Co768 O769 2.160 . S
Co768 O774 2.058 . S
Co768 O784 2.057 . S
Co768 O799 2.037 1_554 S
Co768 N803 2.145 . S
Co768 N824 2.257 . S
O769 Co767 2.143 1_554 S
O769 Co768 2.160 . S
C770 O771 1.278 . S
C770 O778 1.224 . S
O771 C770 1.278 . S
C772 O773 1.245 . S
C772 O784 1.232 . S
O773 C772 1.245 . S
O774 Co768 2.058 . S
O774 C800 1.269 . S
O775 Co767 2.074 1_554 S
O775 C800 1.257 . S
H776 C801 0.930 . S
H777 C807 0.930 . S
O778 Co767 2.093 . S
O778 C770 1.224 . S
H779 C811 0.929 . S
H780 C813 0.930 . S
H781 C814 0.930 . S
H782 C812 0.929 . S
H783 C815 0.928 . S
O784 Co768 2.057 . S
O784 C772 1.232 . S
H785 C804 0.929 . S
H786 C805 0.929 . S
H787 C817 0.931 . S
H788 C809 0.929 . S
H789 C818 0.930 . S
H790 C810 0.931 . S
O791 Co767 2.097 . S
O791 C819 1.214 . S
H792 C820 0.929 1_554 S
H793 C821 0.929 . S
H794 C822 0.930 . S
H795 C823 0.929 . S
H796 C825 0.930 . S
H797 C802 0.930 . S
H798 C806 0.930 . S
O799 Co768 2.037 1_556 S
O799 C819 1.234 . S
C800 O774 1.269 . S
C800 O775 1.257 . S
C801 H776 0.930 . S
C801 C804 1.388 . S
C801 C806 1.418 . S
C802 H797 0.930 . S
C802 C805 1.404 . S
C802 C806 1.353 . S
N803 Co768 2.145 . S
N803 C804 1.397 . S
N803 C805 1.334 . S
C804 H785 0.929 . S
C804 C801 1.388 . S
C804 N803 1.397 . S
C805 H786 0.929 . S
C805 C802 1.404 . S
C805 N803 1.334 . S
C806 H798 0.930 . S
C806 C801 1.418 . S
C806 C802 1.353 . S
C807 H777 0.930 . S
C807 N808 1.330 . S
C807 C809 1.446 . S
N808 Co767 2.151 1_554 S
N808 C807 1.330 . S
N808 C812 1.418 . S
C809 H788 0.929 . S
C809 C807 1.446 . S
C809 C810 1.332 . S
C810 H790 0.931 . S
C810 C809 1.332 . S
C810 C811 1.267 . S
C811 H779 0.929 . S
C811 C810 1.267 . S
C811 C812 1.251 . S
C812 H782 0.929 . S
C812 N808 1.418 . S
C812 C811 1.251 . S
C813 H780 0.930 . S
C813 C815 1.406 . S
C813 C818 1.261 . S
C814 H781 0.930 . S
C814 N816 1.325 . S
C814 C817 1.357 . S
C815 H783 0.928 . S
C815 C813 1.406 . S
C815 N816 1.261 . S
N816 Co767 2.214 . S
N816 C814 1.325 . S
N816 C815 1.261 . S
C817 H787 0.931 . S
C817 C814 1.357 . S
C817 C818 1.312 . S
C818 H789 0.930 . S
C818 C813 1.261 . S
C818 C817 1.312 . S
C819 O791 1.214 . S
C819 O799 1.234 . S
C820 H792 0.929 1_556 S
C820 C823 1.391 . S
C820 C825 1.391 1_556 S
C821 H793 0.929 . S
C821 C822 1.390 . S
C821 N824 1.391 1_556 S
C822 H794 0.930 . S
C822 C821 1.390 . S
C822 C823 1.392 . S
C823 H795 0.929 . S
C823 C820 1.391 . S
C823 C822 1.392 . S
N824 Co768 2.257 . S
N824 C821 1.391 1_554 S
N824 C825 1.388 . S
C825 H796 0.930 . S
C825 C820 1.391 1_554 S
C825 N824 1.388 . S
Co826 O828 2.143 . S
Co826 O834 2.074 . S
Co826 O837 2.093 . S
Co826 O850 2.097 . S
Co826 N867 2.151 . S
Co826 N875 2.214 . S
Co827 O828 2.160 . S
Co827 O833 2.058 . S
Co827 O843 2.057 . S
Co827 O858 2.037 . S
Co827 N862 2.145 . S
Co827 N883 2.257 . S
O828 Co826 2.143 . S
O828 Co827 2.160 . S
C829 O830 1.278 . S
C829 O837 1.224 . S
O830 C829 1.278 . S
C831 O832 1.245 . S
C831 O843 1.232 . S
O832 C831 1.245 . S
O833 Co827 2.058 . S
O833 C859 1.269 . S
O834 Co826 2.074 . S
O834 C859 1.257 . S
H835 C860 0.930 . S
H836 C866 0.930 . S
O837 Co826 2.093 . S
O837 C829 1.224 . S
H838 C870 0.929 . S
H839 C872 0.930 . S
H840 C873 0.930 . S
H841 C871 0.929 . S
H842 C874 0.928 . S
O843 Co827 2.057 . S
O843 C831 1.232 . S
H844 C863 0.929 . S
H845 C864 0.929 . S
H846 C876 0.931 . S
H847 C868 0.929 . S
H848 C877 0.930 . S
H849 C869 0.931 . S
O850 Co826 2.097 . S
O850 C878 1.214 . S
H851 C879 0.929 . S
H852 C880 0.929 . S
H853 C881 0.930 . S
H854 C882 0.929 . S
H855 C884 0.930 . S
H856 C861 0.930 . S
H857 C865 0.930 . S
O858 Co827 2.037 . S
O858 C878 1.234 . S
C859 O833 1.269 . S
C859 O834 1.257 . S
C860 H835 0.930 . S
C860 C863 1.388 . S
C860 C865 1.418 . S
C861 H856 0.930 . S
C861 C864 1.404 . S
C861 C865 1.353 . S
N862 Co827 2.145 . S
N862 C863 1.397 . S
N862 C864 1.334 . S
C863 H844 0.929 . S
C863 C860 1.388 . S
C863 N862 1.397 . S
C864 H845 0.929 . S
C864 C861 1.404 . S
C864 N862 1.334 . S
C865 H857 0.930 . S
C865 C860 1.418 . S
C865 C861 1.353 . S
C866 H836 0.930 . S
C866 N867 1.330 . S
C866 C868 1.446 . S
N867 Co826 2.151 . S
N867 C866 1.330 . S
N867 C871 1.418 . S
C868 H847 0.929 . S
C868 C866 1.446 . S
C868 C869 1.332 . S
C869 H849 0.931 . S
C869 C868 1.332 . S
C869 C870 1.267 . S
C870 H838 0.929 . S
C870 C869 1.267 . S
C870 C871 1.251 . S
C871 H841 0.929 . S
C871 N867 1.418 . S
C871 C870 1.251 . S
C872 H839 0.930 . S
C872 C874 1.406 . S
C872 C877 1.261 . S
C873 H840 0.930 . S
C873 N875 1.325 . S
C873 C876 1.357 . S
C874 H842 0.928 . S
C874 C872 1.406 . S
C874 N875 1.261 . S
N875 Co826 2.214 . S
N875 C873 1.325 . S
N875 C874 1.261 . S
C876 H846 0.931 . S
C876 C873 1.357 . S
C876 C877 1.312 . S
C877 H848 0.930 . S
C877 C872 1.261 . S
C877 C876 1.312 . S
C878 O850 1.214 . S
C878 O858 1.234 . S
C879 H851 0.929 . S
C879 C882 1.391 . S
C879 C884 1.391 . S
C880 H852 0.929 . S
C880 C881 1.390 . S
C880 N883 1.391 . S
C881 H853 0.930 . S
C881 C880 1.390 . S
C881 C882 1.392 . S
C882 H854 0.929 . S
C882 C879 1.391 . S
C882 C881 1.392 . S
N883 Co827 2.257 . S
N883 C880 1.391 . S
N883 C884 1.388 . S
C884 H855 0.930 . S
C884 C879 1.391 . S
C884 N883 1.388 . S
Co885 O887 2.143 . S
Co885 O893 2.074 . S
Co885 O896 2.093 . S
Co885 O909 2.097 . S
Co885 N926 2.151 . S
Co885 N934 2.214 . S
Co886 O887 2.160 . S
Co886 O892 2.058 . S
Co886 O902 2.057 . S
Co886 O917 2.037 . S
Co886 N921 2.145 . S
Co886 N942 2.257 . S
O887 Co885 2.143 . S
O887 Co886 2.160 . S
C888 O889 1.278 . S
C888 O896 1.224 . S
O889 C888 1.278 . S
C890 O891 1.245 . S
C890 O902 1.232 . S
O891 C890 1.245 . S
O892 Co886 2.058 . S
O892 C918 1.269 . S
O893 Co885 2.074 . S
O893 C918 1.257 . S
H894 C919 0.930 . S
H895 C925 0.930 . S
O896 Co885 2.093 . S
O896 C888 1.224 . S
H897 C929 0.929 . S
H898 C931 0.930 . S
H899 C932 0.930 . S
H900 C930 0.929 . S
H901 C933 0.928 . S
O902 Co886 2.057 . S
O902 C890 1.232 . S
H903 C922 0.929 . S
H904 C923 0.929 . S
H905 C935 0.931 . S
H906 C927 0.929 . S
H907 C936 0.930 . S
H908 C928 0.907 1_545 S
O909 Co885 2.097 . S
O909 C937 1.214 . S
H910 C938 0.929 . S
H911 C939 0.929 . S
H912 C940 0.930 . S
H913 C941 0.929 . S
H914 C943 0.930 . S
H915 C920 0.930 . S
H916 C924 0.930 . S
O917 Co886 2.037 . S
O917 C937 1.234 . S
C918 O892 1.269 . S
C918 O893 1.257 . S
C919 H894 0.930 . S
C919 C922 1.388 . S
C919 C924 1.418 . S
C920 H915 0.930 . S
C920 C923 1.404 . S
C920 C924 1.353 . S
N921 Co886 2.145 . S
N921 C922 1.397 . S
N921 C923 1.334 . S
C922 H903 0.929 . S
C922 C919 1.388 . S
C922 N921 1.397 . S
C923 H904 0.929 . S
C923 C920 1.404 . S
C923 N921 1.334 . S
C924 H916 0.930 . S
C924 C919 1.418 . S
C924 C920 1.353 . S
C925 H895 0.930 . S
C925 N926 1.330 . S
C925 C927 1.446 . S
N926 Co885 2.151 . S
N926 C925 1.330 . S
N926 C930 1.418 . S
C927 H906 0.929 . S
C927 C925 1.446 . S
C927 C928 1.332 . S
C928 H908 0.907 1_565 S
C928 C927 1.332 . S
C928 C929 1.267 . S
C929 H897 0.929 . S
C929 C928 1.267 . S
C929 C930 1.251 . S
C930 H900 0.929 . S
C930 N926 1.418 . S
C930 C929 1.251 . S
C931 H898 0.930 . S
C931 C933 1.406 . S
C931 C936 1.261 . S
C932 H899 0.930 . S
C932 N934 1.325 . S
C932 C935 1.357 . S
C933 H901 0.928 . S
C933 C931 1.406 . S
C933 N934 1.261 . S
N934 Co885 2.214 . S
N934 C932 1.325 . S
N934 C933 1.261 . S
C935 H905 0.931 . S
C935 C932 1.357 . S
C935 C936 1.312 . S
C936 H907 0.930 . S
C936 C931 1.261 . S
C936 C935 1.312 . S
C937 O909 1.214 . S
C937 O917 1.234 . S
C938 H910 0.929 . S
C938 C941 1.391 . S
C938 C943 1.391 . S
C939 H911 0.929 . S
C939 C940 1.390 . S
C939 N942 1.391 . S
C940 H912 0.930 . S
C940 C939 1.390 . S
C940 C941 1.392 . S
C941 H913 0.929 . S
C941 C938 1.391 . S
C941 C940 1.392 . S
N942 Co886 2.257 . S
N942 C939 1.391 . S
N942 C943 1.388 . S
C943 H914 0.930 . S
C943 C938 1.391 . S
C943 N942 1.388 . S
Co944 O946 2.143 1_545 S
Co944 O952 2.074 . S
Co944 O955 2.113 . S
Co944 O968 2.097 . S
Co944 N985 2.151 1_545 S
Co944 N993 2.214 . S
Co945 O946 2.160 1_545 S
Co945 O951 2.058 . S
Co945 O961 2.057 1_545 S
Co945 O976 2.037 . S
Co945 N980 2.145 . S
Co945 N1001 2.257 1_545 S
O946 Co944 2.143 1_565 S
O946 Co945 2.160 1_565 S
C947 O948 1.278 . S
C947 O955 1.192 1_565 S
O948 C947 1.278 . S
C949 O950 1.245 . S
C949 O961 1.232 . S
O950 C949 1.245 . S
O951 Co945 2.058 . S
O951 C977 1.269 . S
O952 Co944 2.074 . S
O952 C977 1.257 . S
H953 C978 0.930 . S
H954 C984 0.930 . S
O955 Co944 2.113 . S
O955 C947 1.192 1_545 S
H956 C988 0.929 . S
H957 C990 0.930 . S
H958 C991 0.930 . S
H959 C989 0.958 . S
H960 C992 0.928 . S
O961 Co945 2.057 1_565 S
O961 C949 1.232 . S
H962 C981 0.929 . S
H963 C982 0.929 1_565 S
H964 C994 0.931 . S
H965 C986 0.929 . S
H966 C995 0.930 . S
H967 C987 0.931 . S
O968 Co944 2.097 . S
O968 C996 1.214 . S
H969 C997 0.929 . S
H970 C998 0.929 . S
H971 C999 0.930 . S
H972 C1000 0.929 . S
H973 C1002 0.930 . S
H974 C979 0.930 . S
H975 C983 0.930 . S
O976 Co945 2.037 . S
O976 C996 1.234 . S
C977 O951 1.269 . S
C977 O952 1.257 . S
C978 H953 0.930 . S
C978 C981 1.388 . S
C978 C983 1.418 . S
C979 H974 0.930 . S
C979 C982 1.404 . S
C979 C983 1.353 . S
N980 Co945 2.145 . S
N980 C981 1.397 . S
N980 C982 1.334 . S
C981 H962 0.929 . S
C981 C978 1.388 . S
C981 N980 1.397 . S
C982 H963 0.929 1_545 S
C982 C979 1.404 . S
C982 N980 1.334 . S
C983 H975 0.930 . S
C983 C978 1.418 . S
C983 C979 1.353 . S
C984 H954 0.930 . S
C984 N985 1.330 . S
C984 C986 1.446 . S
N985 Co944 2.151 1_565 S
N985 C984 1.330 . S
N985 C989 1.406 1_565 S
C986 H965 0.929 . S
C986 C984 1.446 . S
C986 C987 1.332 . S
C987 H967 0.931 . S
C987 C986 1.332 . S
C987 C988 1.267 . S
C988 H956 0.929 . S
C988 C987 1.267 . S
C988 C989 1.235 1_565 S
C989 H959 0.958 . S
C989 N985 1.406 1_545 S
C989 C988 1.235 1_545 S
C990 H957 0.930 . S
C990 C992 1.406 . S
C990 C995 1.261 . S
C991 H958 0.930 . S
C991 N993 1.325 . S
C991 C994 1.357 . S
C992 H960 0.928 . S
C992 C990 1.406 . S
C992 N993 1.261 . S
N993 Co944 2.214 . S
N993 C991 1.325 . S
N993 C992 1.261 . S
C994 H964 0.931 . S
C994 C991 1.357 . S
C994 C995 1.312 . S
C995 H966 0.930 . S
C995 C990 1.261 . S
C995 C994 1.312 . S
C996 O968 1.214 . S
C996 O976 1.234 . S
C997 H969 0.929 . S
C997 C1000 1.391 . S
C997 C1002 1.391 . S
C998 H970 0.929 . S
C998 C999 1.390 . S
C998 N1001 1.391 1_545 S
C999 H971 0.930 . S
C999 C998 1.390 . S
C999 C1000 1.392 1_545 S
C1000 H972 0.929 . S
C1000 C997 1.391 . S
C1000 C999 1.392 1_565 S
N1001 Co945 2.257 1_565 S
N1001 C998 1.391 1_565 S
N1001 C1002 1.388 . S
C1002 H973 0.930 . S
C1002 C997 1.391 . S
C1002 N1001 1.388 . S
Co1003 O1005 2.143 . S
Co1003 O1011 2.074 . S
Co1003 O1014 2.093 . S
Co1003 O1027 2.097 . S
Co1003 N1044 2.151 . S
Co1003 N1052 2.214 . S
Co1004 O1005 2.160 . S
Co1004 O1010 2.058 . S
Co1004 O1020 2.057 . S
Co1004 O1035 2.037 . S
Co1004 N1039 2.145 . S
Co1004 N1060 2.257 . S
O1005 Co1003 2.143 . S
O1005 Co1004 2.160 . S
C1006 O1007 1.278 . S
C1006 O1014 1.224 . S
O1007 C1006 1.278 . S
C1008 O1009 1.245 . S
C1008 O1020 1.232 . S
O1009 C1008 1.245 . S
O1010 Co1004 2.058 . S
O1010 C1036 1.269 . S
O1011 Co1003 2.074 . S
O1011 C1036 1.257 . S
H1012 C1037 0.930 . S
H1013 C1043 0.930 . S
O1014 Co1003 2.093 . S
O1014 C1006 1.224 . S
H1015 C1047 0.929 . S
H1016 C1049 0.930 . S
H1017 C1050 0.930 . S
H1018 C1048 0.929 . S
H1019 C1051 0.928 . S
O1020 Co1004 2.057 . S
O1020 C1008 1.232 . S
H1021 C1040 0.929 . S
H1022 C1041 0.929 . S
H1023 C1053 0.931 . S
H1024 C1045 0.929 . S
H1025 C1054 0.930 . S
H1026 C1046 0.931 . S
O1027 Co1003 2.097 . S
O1027 C1055 1.214 . S
H1028 C1056 0.929 . S
H1029 C1057 0.929 . S
H1030 C1058 0.930 . S
H1031 C1059 0.929 . S
H1032 C1061 0.930 . S
H1033 C1038 0.930 . S
H1034 C1042 0.930 . S
O1035 Co1004 2.037 . S
O1035 C1055 1.234 . S
C1036 O1010 1.269 . S
C1036 O1011 1.257 . S
C1037 H1012 0.930 . S
C1037 C1040 1.388 . S
C1037 C1042 1.418 . S
C1038 H1033 0.930 . S
C1038 C1041 1.404 . S
C1038 C1042 1.353 . S
N1039 Co1004 2.145 . S
N1039 C1040 1.397 . S
N1039 C1041 1.334 . S
C1040 H1021 0.929 . S
C1040 C1037 1.388 . S
C1040 N1039 1.397 . S
C1041 H1022 0.929 . S
C1041 C1038 1.404 . S
C1041 N1039 1.334 . S
C1042 H1034 0.930 . S
C1042 C1037 1.418 . S
C1042 C1038 1.353 . S
C1043 H1013 0.930 . S
C1043 N1044 1.330 . S
C1043 C1045 1.446 . S
N1044 Co1003 2.151 . S
N1044 C1043 1.330 . S
N1044 C1048 1.418 . S
C1045 H1024 0.929 . S
C1045 C1043 1.446 . S
C1045 C1046 1.332 . S
C1046 H1026 0.931 . S
C1046 C1045 1.332 . S
C1046 C1047 1.267 . S
C1047 H1015 0.929 . S
C1047 C1046 1.267 . S
C1047 C1048 1.251 . S
C1048 H1018 0.929 . S
C1048 N1044 1.418 . S
C1048 C1047 1.251 . S
C1049 H1016 0.930 . S
C1049 C1051 1.406 . S
C1049 C1054 1.261 . S
C1050 H1017 0.930 . S
C1050 N1052 1.325 . S
C1050 C1053 1.357 . S
C1051 H1019 0.928 . S
C1051 C1049 1.406 . S
C1051 N1052 1.261 . S
N1052 Co1003 2.214 . S
N1052 C1050 1.325 . S
N1052 C1051 1.261 . S
C1053 H1023 0.931 . S
C1053 C1050 1.357 . S
C1053 C1054 1.312 . S
C1054 H1025 0.930 . S
C1054 C1049 1.261 . S
C1054 C1053 1.312 . S
C1055 O1027 1.214 . S
C1055 O1035 1.234 . S
C1056 H1028 0.929 . S
C1056 C1059 1.391 . S
C1056 C1061 1.391 . S
C1057 H1029 0.929 . S
C1057 C1058 1.390 . S
C1057 N1060 1.391 . S
C1058 H1030 0.930 . S
C1058 C1057 1.390 . S
C1058 C1059 1.392 . S
C1059 H1031 0.929 . S
C1059 C1056 1.391 . S
C1059 C1058 1.392 . S
N1060 Co1004 2.257 . S
N1060 C1057 1.391 . S
N1060 C1061 1.388 . S
C1061 H1032 0.930 . S
C1061 C1056 1.391 . S
C1061 N1060 1.388 . S
Co1062 O1064 2.143 . S
Co1062 O1070 2.074 . S
Co1062 O1073 2.093 . S
Co1062 O1086 2.097 . S
Co1062 N1103 2.151 . S
Co1062 N1111 2.214 . S
Co1063 O1064 2.160 . S
Co1063 O1069 2.058 . S
Co1063 O1079 2.057 . S
Co1063 O1094 2.037 . S
Co1063 N1098 2.145 . S
Co1063 N1119 2.257 . S
O1064 Co1062 2.143 . S
O1064 Co1063 2.160 . S
C1065 O1066 1.278 . S
C1065 O1073 1.224 . S
O1066 C1065 1.278 . S
C1067 O1068 1.245 . S
C1067 O1079 1.232 . S
O1068 C1067 1.245 . S
O1069 Co1063 2.058 . S
O1069 C1095 1.269 . S
O1070 Co1062 2.074 . S
O1070 C1095 1.257 . S
H1071 C1096 0.930 . S
H1072 C1102 0.930 . S
O1073 Co1062 2.093 . S
O1073 C1065 1.224 . S
H1074 C1106 0.929 . S
H1075 C1108 0.930 . S
H1076 C1109 0.930 . S
H1077 C1107 0.929 . S
H1078 C1110 0.928 . S
O1079 Co1063 2.057 . S
O1079 C1067 1.232 . S
H1080 C1099 0.929 . S
H1081 C1100 0.929 . S
H1082 C1112 0.931 . S
H1083 C1104 0.929 . S
H1084 C1113 0.930 . S
H1085 C1105 0.931 . S
O1086 Co1062 2.097 . S
O1086 C1114 1.214 . S
H1087 C1115 0.929 . S
H1088 C1116 0.929 . S
H1089 C1117 0.930 . S
H1090 C1118 0.929 . S
H1091 C1120 0.930 . S
H1092 C1097 0.930 . S
H1093 C1101 0.930 . S
O1094 Co1063 2.037 . S
O1094 C1114 1.234 . S
C1095 O1069 1.269 . S
C1095 O1070 1.257 . S
C1096 H1071 0.930 . S
C1096 C1099 1.388 . S
C1096 C1101 1.418 . S
C1097 H1092 0.930 . S
C1097 C1100 1.404 . S
C1097 C1101 1.353 . S
N1098 Co1063 2.145 . S
N1098 C1099 1.397 . S
N1098 C1100 1.334 . S
C1099 H1080 0.929 . S
C1099 C1096 1.388 . S
C1099 N1098 1.397 . S
C1100 H1081 0.929 . S
C1100 C1097 1.404 . S
C1100 N1098 1.334 . S
C1101 H1093 0.930 . S
C1101 C1096 1.418 . S
C1101 C1097 1.353 . S
C1102 H1072 0.930 . S
C1102 N1103 1.330 . S
C1102 C1104 1.446 . S
N1103 Co1062 2.151 . S
N1103 C1102 1.330 . S
N1103 C1107 1.418 . S
C1104 H1083 0.929 . S
C1104 C1102 1.446 . S
C1104 C1105 1.332 . S
C1105 H1085 0.931 . S
C1105 C1104 1.332 . S
C1105 C1106 1.267 . S
C1106 H1074 0.929 . S
C1106 C1105 1.267 . S
C1106 C1107 1.251 . S
C1107 H1077 0.929 . S
C1107 N1103 1.418 . S
C1107 C1106 1.251 . S
C1108 H1075 0.930 . S
C1108 C1110 1.406 . S
C1108 C1113 1.261 . S
C1109 H1076 0.930 . S
C1109 N1111 1.325 . S
C1109 C1112 1.357 . S
C1110 H1078 0.928 . S
C1110 C1108 1.406 . S
C1110 N1111 1.261 . S
N1111 Co1062 2.214 . S
N1111 C1109 1.325 . S
N1111 C1110 1.261 . S
C1112 H1082 0.931 . S
C1112 C1109 1.357 . S
C1112 C1113 1.312 . S
C1113 H1084 0.930 . S
C1113 C1108 1.261 . S
C1113 C1112 1.312 . S
C1114 O1086 1.214 . S
C1114 O1094 1.234 . S
C1115 H1087 0.929 . S
C1115 C1118 1.391 . S
C1115 C1120 1.391 . S
C1116 H1088 0.929 . S
C1116 C1117 1.390 . S
C1116 N1119 1.391 . S
C1117 H1089 0.930 . S
C1117 C1116 1.390 . S
C1117 C1118 1.392 . S
C1118 H1090 0.929 . S
C1118 C1115 1.391 . S
C1118 C1117 1.392 . S
N1119 Co1063 2.257 . S
N1119 C1116 1.391 . S
N1119 C1120 1.388 . S
C1120 H1091 0.930 . S
C1120 C1115 1.391 . S
C1120 N1119 1.388 . S
Co1121 O1123 2.143 1_545 S
Co1121 O1129 2.074 . S
Co1121 O1132 2.093 1_545 S
Co1121 O1145 2.097 . S
Co1121 N1162 2.151 1_545 S
Co1121 N1170 2.214 . S
Co1122 O1123 2.160 1_545 S
Co1122 O1128 2.058 . S
Co1122 O1138 2.057 1_545 S
Co1122 O1153 2.037 . S
Co1122 N1157 2.145 . S
Co1122 N1178 2.257 1_545 S
O1123 Co1121 2.143 1_565 S
O1123 Co1122 2.160 1_565 S
C1124 O1125 1.278 . S
C1124 O1132 1.224 . S
O1125 C1124 1.278 . S
C1126 O1127 1.245 . S
C1126 O1138 1.232 . S
O1127 C1126 1.245 . S
O1128 Co1122 2.058 . S
O1128 C1154 1.269 . S
O1129 Co1121 2.074 . S
O1129 C1154 1.257 . S
H1130 C1155 0.930 . S
H1131 C1161 0.930 . S
O1132 Co1121 2.093 1_565 S
O1132 C1124 1.224 . S
H1133 C1165 0.929 . S
H1134 C1167 0.930 . S
H1135 C1168 0.930 . S
H1136 C1166 0.929 . S
H1137 C1169 0.919 1_565 S
O1138 Co1122 2.057 1_565 S
O1138 C1126 1.232 . S
H1139 C1158 0.929 . S
H1140 C1159 0.929 . S
H1141 C1171 0.931 . S
H1142 C1163 0.929 . S
H1143 C1172 0.930 . S
H1144 C1164 0.931 . S
O1145 Co1121 2.097 . S
O1145 C1173 1.214 . S
H1146 C1174 0.929 . S
H1147 C1175 0.929 . S
H1148 C1176 0.930 . S
H1149 C1177 0.929 . S
H1150 C1179 0.930 . S
H1151 C1156 0.930 . S
H1152 C1160 0.930 . S
O1153 Co1122 2.037 . S
O1153 C1173 1.234 . S
C1154 O1128 1.269 . S
C1154 O1129 1.257 . S
C1155 H1130 0.930 . S
C1155 C1158 1.388 . S
C1155 C1160 1.418 . S
C1156 H1151 0.930 . S
C1156 C1159 1.404 . S
C1156 C1160 1.353 . S
N1157 Co1122 2.145 . S
N1157 C1158 1.397 . S
N1157 C1159 1.334 . S
C1158 H1139 0.929 . S
C1158 C1155 1.388 . S
C1158 N1157 1.397 . S
C1159 H1140 0.929 . S
C1159 C1156 1.404 . S
C1159 N1157 1.334 . S
C1160 H1152 0.930 . S
C1160 C1155 1.418 . S
C1160 C1156 1.353 . S
C1161 H1131 0.930 . S
C1161 N1162 1.330 . S
C1161 C1163 1.446 . S
N1162 Co1121 2.151 1_565 S
N1162 C1161 1.330 . S
N1162 C1166 1.418 1_565 S
C1163 H1142 0.929 . S
C1163 C1161 1.446 . S
C1163 C1164 1.332 . S
C1164 H1144 0.931 . S
C1164 C1163 1.332 . S
C1164 C1165 1.267 1_565 S
C1165 H1133 0.929 . S
C1165 C1164 1.267 1_545 S
C1165 C1166 1.251 . S
C1166 H1136 0.929 . S
C1166 N1162 1.418 1_545 S
C1166 C1165 1.251 . S
C1167 H1134 0.930 . S
C1167 C1169 1.406 . S
C1167 C1172 1.261 . S
C1168 H1135 0.930 . S
C1168 N1170 1.325 . S
C1168 C1171 1.357 . S
C1169 H1137 0.919 1_545 S
C1169 C1167 1.406 . S
C1169 N1170 1.261 . S
N1170 Co1121 2.214 . S
N1170 C1168 1.325 . S
N1170 C1169 1.261 . S
C1171 H1141 0.931 . S
C1171 C1168 1.357 . S
C1171 C1172 1.312 . S
C1172 H1143 0.930 . S
C1172 C1167 1.261 . S
C1172 C1171 1.312 . S
C1173 O1145 1.214 . S
C1173 O1153 1.234 . S
C1174 H1146 0.929 . S
C1174 C1177 1.391 . S
C1174 C1179 1.391 . S
C1175 H1147 0.929 . S
C1175 C1176 1.390 1_545 S
C1175 N1178 1.391 1_545 S
C1176 H1148 0.930 . S
C1176 C1175 1.390 1_565 S
C1176 C1177 1.392 . S
C1177 H1149 0.929 . S
C1177 C1174 1.391 . S
C1177 C1176 1.392 . S
N1178 Co1122 2.257 1_565 S
N1178 C1175 1.391 1_565 S
N1178 C1179 1.388 . S
C1179 H1150 0.930 . S
C1179 C1174 1.391 . S
C1179 N1178 1.388 . S
Co1180 O1182 2.143 1_554 S
Co1180 O1188 2.074 . S
Co1180 O1191 2.093 . S
Co1180 O1204 2.097 . S
Co1180 N1221 2.152 1_554 S
Co1180 N1229 2.214 . S
Co1181 O1182 2.160 1_554 S
Co1181 O1187 2.058 . S
Co1181 O1197 2.057 1_554 S
Co1181 O1212 2.037 . S
Co1181 N1216 2.145 . S
Co1181 N1237 2.257 1_554 S
O1182 Co1180 2.143 1_556 S
O1182 Co1181 2.160 1_556 S
C1183 O1184 1.278 . S
C1183 O1191 1.224 1_556 S
O1184 C1183 1.278 . S
C1185 O1186 1.245 . S
C1185 O1197 1.232 . S
O1186 C1185 1.245 . S
O1187 Co1181 2.058 . S
O1187 C1213 1.269 . S
O1188 Co1180 2.074 . S
O1188 C1213 1.257 . S
H1189 C1214 0.930 . S
H1190 C1220 0.930 . S
O1191 Co1180 2.093 . S
O1191 C1183 1.224 1_554 S
H1192 C1224 0.929 1_554 S
H1193 C1226 0.930 . S
H1194 C1227 0.930 . S
H1195 C1225 0.929 . S
H1196 C1228 0.928 . S
O1197 Co1181 2.057 1_556 S
O1197 C1185 1.232 . S
H1198 C1217 0.929 . S
H1199 C1218 0.929 1_556 S
H1200 C1230 0.931 . S
H1201 C1222 0.929 . S
H1202 C1231 0.930 . S
H1203 C1223 0.931 . S
O1204 Co1180 2.097 . S
O1204 C1232 1.214 . S
H1205 C1233 0.929 . S
H1206 C1234 0.929 . S
H1207 C1235 0.930 . S
H1208 C1236 0.929 . S
H1209 C1238 0.930 . S
H1210 C1215 0.930 1_556 S
H1211 C1219 0.930 . S
O1212 Co1181 2.037 . S
O1212 C1232 1.234 . S
C1213 O1187 1.269 . S
C1213 O1188 1.257 . S
C1214 H1189 0.930 . S
C1214 C1217 1.388 . S
C1214 C1219 1.418 . S
C1215 H1210 0.930 1_554 S
C1215 C1218 1.404 . S
C1215 C1219 1.353 . S
N1216 Co1181 2.145 . S
N1216 C1217 1.397 . S
N1216 C1218 1.334 . S
C1217 H1198 0.929 . S
C1217 C1214 1.388 . S
C1217 N1216 1.397 . S
C1218 H1199 0.929 1_554 S
C1218 C1215 1.404 . S
C1218 N1216 1.334 . S
C1219 H1211 0.930 . S
C1219 C1214 1.418 . S
C1219 C1215 1.353 . S
C1220 H1190 0.930 . S
C1220 N1221 1.329 . S
C1220 C1222 1.446 . S
N1221 Co1180 2.152 1_556 S
N1221 C1220 1.329 . S
N1221 C1225 1.418 1_556 S
C1222 H1201 0.929 . S
C1222 C1220 1.446 . S
C1222 C1223 1.332 . S
C1223 H1203 0.931 . S
C1223 C1222 1.332 . S
C1223 C1224 1.267 . S
C1224 H1192 0.929 1_556 S
C1224 C1223 1.267 . S
C1224 C1225 1.251 1_556 S
C1225 H1195 0.929 . S
C1225 N1221 1.418 1_554 S
C1225 C1224 1.251 1_554 S
C1226 H1193 0.930 . S
C1226 C1228 1.406 . S
C1226 C1231 1.261 . S
C1227 H1194 0.930 . S
C1227 N1229 1.325 . S
C1227 C1230 1.357 . S
C1228 H1196 0.928 . S
C1228 C1226 1.406 . S
C1228 N1229 1.261 . S
N1229 Co1180 2.214 . S
N1229 C1227 1.325 . S
N1229 C1228 1.261 . S
C1230 H1200 0.931 . S
C1230 C1227 1.357 . S
C1230 C1231 1.312 . S
C1231 H1202 0.930 . S
C1231 C1226 1.261 . S
C1231 C1230 1.312 . S
C1232 O1204 1.214 . S
C1232 O1212 1.234 . S
C1233 H1205 0.929 . S
C1233 C1236 1.391 . S
C1233 C1238 1.391 . S
C1234 H1206 0.929 . S
C1234 C1235 1.390 . S
C1234 N1237 1.391 1_554 S
C1235 H1207 0.930 . S
C1235 C1234 1.390 . S
C1235 C1236 1.392 1_554 S
C1236 H1208 0.929 . S
C1236 C1233 1.391 . S
C1236 C1235 1.392 1_556 S
N1237 Co1181 2.257 1_556 S
N1237 C1234 1.391 1_556 S
N1237 C1238 1.388 . S
C1238 H1209 0.930 . S
C1238 C1233 1.391 . S
C1238 N1237 1.388 . S
Co1239 O1241 2.143 . S
Co1239 O1247 2.074 . S
Co1239 O1250 2.093 . S
Co1239 O1263 2.097 . S
Co1239 N1280 2.151 . S
Co1239 N1288 2.214 . S
Co1240 O1241 2.160 . S
Co1240 O1246 2.058 . S
Co1240 O1256 2.057 . S
Co1240 O1271 2.037 . S
Co1240 N1275 2.145 . S
Co1240 N1296 2.257 . S
O1241 Co1239 2.143 . S
O1241 Co1240 2.160 . S
C1242 O1243 1.278 . S
C1242 O1250 1.224 . S
O1243 C1242 1.278 . S
C1244 O1245 1.245 . S
C1244 O1256 1.232 . S
O1245 C1244 1.245 . S
O1246 Co1240 2.058 . S
O1246 C1272 1.269 . S
O1247 Co1239 2.074 . S
O1247 C1272 1.257 . S
H1248 C1273 0.930 . S
H1249 C1279 0.930 . S
O1250 Co1239 2.093 . S
O1250 C1242 1.224 . S
H1251 C1283 0.929 . S
H1252 C1285 0.930 . S
H1253 C1286 0.930 . S
H1254 C1284 0.929 . S
H1255 C1287 0.928 . S
O1256 Co1240 2.057 . S
O1256 C1244 1.232 . S
H1257 C1276 0.929 . S
H1258 C1277 0.929 . S
H1259 C1289 0.931 . S
H1260 C1281 0.929 . S
H1261 C1290 0.930 . S
H1262 C1282 0.931 . S
O1263 Co1239 2.097 . S
O1263 C1291 1.214 . S
H1264 C1292 0.929 . S
H1265 C1293 0.929 . S
H1266 C1294 0.930 . S
H1267 C1295 0.929 . S
H1268 C1297 0.930 . S
H1269 C1274 0.930 . S
H1270 C1278 0.930 1_455 S
O1271 Co1240 2.037 . S
O1271 C1291 1.234 . S
C1272 O1246 1.269 . S
C1272 O1247 1.257 . S
C1273 H1248 0.930 . S
C1273 C1276 1.388 . S
C1273 C1278 1.418 . S
C1274 H1269 0.930 . S
C1274 C1277 1.404 . S
C1274 C1278 1.353 . S
N1275 Co1240 2.145 . S
N1275 C1276 1.397 . S
N1275 C1277 1.334 . S
C1276 H1257 0.929 . S
C1276 C1273 1.388 . S
C1276 N1275 1.397 . S
C1277 H1258 0.929 . S
C1277 C1274 1.404 . S
C1277 N1275 1.334 . S
C1278 H1270 0.930 1_655 S
C1278 C1273 1.418 . S
C1278 C1274 1.353 . S
C1279 H1249 0.930 . S
C1279 N1280 1.330 . S
C1279 C1281 1.446 . S
N1280 Co1239 2.151 . S
N1280 C1279 1.330 . S
N1280 C1284 1.418 . S
C1281 H1260 0.929 . S
C1281 C1279 1.446 . S
C1281 C1282 1.332 . S
C1282 H1262 0.931 . S
C1282 C1281 1.332 . S
C1282 C1283 1.267 . S
C1283 H1251 0.929 . S
C1283 C1282 1.267 . S
C1283 C1284 1.251 . S
C1284 H1254 0.929 . S
C1284 N1280 1.418 . S
C1284 C1283 1.251 . S
C1285 H1252 0.930 . S
C1285 C1287 1.406 . S
C1285 C1290 1.261 . S
C1286 H1253 0.930 . S
C1286 N1288 1.325 . S
C1286 C1289 1.357 . S
C1287 H1255 0.928 . S
C1287 C1285 1.406 . S
C1287 N1288 1.261 . S
N1288 Co1239 2.214 . S
N1288 C1286 1.325 . S
N1288 C1287 1.261 . S
C1289 H1259 0.931 . S
C1289 C1286 1.357 . S
C1289 C1290 1.312 . S
C1290 H1261 0.930 . S
C1290 C1285 1.261 . S
C1290 C1289 1.312 . S
C1291 O1263 1.214 . S
C1291 O1271 1.234 . S
C1292 H1264 0.929 . S
C1292 C1295 1.391 . S
C1292 C1297 1.391 . S
C1293 H1265 0.929 . S
C1293 C1294 1.390 . S
C1293 N1296 1.391 . S
C1294 H1266 0.930 . S
C1294 C1293 1.390 . S
C1294 C1295 1.392 . S
C1295 H1267 0.929 . S
C1295 C1292 1.391 . S
C1295 C1294 1.392 . S
N1296 Co1240 2.257 . S
N1296 C1293 1.391 . S
N1296 C1297 1.388 . S
C1297 H1268 0.930 . S
C1297 C1292 1.391 . S
C1297 N1296 1.388 . S
Co1298 O1300 2.143 . S
Co1298 O1306 2.074 . S
Co1298 O1309 2.093 . S
Co1298 O1322 2.097 . S
Co1298 N1339 2.151 . S
Co1298 N1347 2.214 . S
Co1299 O1300 2.160 . S
Co1299 O1305 2.058 . S
Co1299 O1315 2.057 . S
Co1299 O1330 2.037 . S
Co1299 N1334 2.145 . S
Co1299 N1355 2.257 . S
O1300 Co1298 2.143 . S
O1300 Co1299 2.160 . S
C1301 O1302 1.278 . S
C1301 O1309 1.224 . S
O1302 C1301 1.278 . S
C1303 O1304 1.245 . S
C1303 O1315 1.232 . S
O1304 C1303 1.245 . S
O1305 Co1299 2.058 . S
O1305 C1331 1.269 . S
O1306 Co1298 2.074 . S
O1306 C1331 1.257 . S
H1307 C1332 0.930 . S
H1308 C1338 0.930 . S
O1309 Co1298 2.093 . S
O1309 C1301 1.224 . S
H1310 C1342 0.929 . S
H1311 C1344 0.930 . S
H1312 C1345 0.930 . S
H1313 C1343 0.929 . S
H1314 C1346 0.928 . S
O1315 Co1299 2.057 . S
O1315 C1303 1.232 . S
H1316 C1335 0.929 . S
H1317 C1336 0.929 . S
H1318 C1348 0.931 . S
H1319 C1340 0.929 . S
H1320 C1349 0.930 . S
H1321 C1341 0.931 . S
O1322 Co1298 2.097 . S
O1322 C1350 1.214 . S
H1323 C1351 0.929 . S
H1324 C1352 0.929 . S
H1325 C1353 0.930 . S
H1326 C1354 0.929 . S
H1327 C1356 0.930 . S
H1328 C1333 0.930 . S
H1329 C1337 0.930 . S
O1330 Co1299 2.037 . S
O1330 C1350 1.234 . S
C1331 O1305 1.269 . S
C1331 O1306 1.257 . S
C1332 H1307 0.930 . S
C1332 C1335 1.388 . S
C1332 C1337 1.418 . S
C1333 H1328 0.930 . S
C1333 C1336 1.404 . S
C1333 C1337 1.353 . S
N1334 Co1299 2.145 . S
N1334 C1335 1.397 . S
N1334 C1336 1.334 . S
C1335 H1316 0.929 . S
C1335 C1332 1.388 . S
C1335 N1334 1.397 . S
C1336 H1317 0.929 . S
C1336 C1333 1.404 . S
C1336 N1334 1.334 . S
C1337 H1329 0.930 . S
C1337 C1332 1.418 . S
C1337 C1333 1.353 . S
C1338 H1308 0.930 . S
C1338 N1339 1.330 . S
C1338 C1340 1.446 . S
N1339 Co1298 2.151 . S
N1339 C1338 1.330 . S
N1339 C1343 1.418 . S
C1340 H1319 0.929 . S
C1340 C1338 1.446 . S
C1340 C1341 1.332 . S
C1341 H1321 0.931 . S
C1341 C1340 1.332 . S
C1341 C1342 1.267 . S
C1342 H1310 0.929 . S
C1342 C1341 1.267 . S
C1342 C1343 1.251 . S
C1343 H1313 0.929 . S
C1343 N1339 1.418 . S
C1343 C1342 1.251 . S
C1344 H1311 0.930 . S
C1344 C1346 1.406 . S
C1344 C1349 1.261 . S
C1345 H1312 0.930 . S
C1345 N1347 1.325 . S
C1345 C1348 1.357 . S
C1346 H1314 0.928 . S
C1346 C1344 1.406 . S
C1346 N1347 1.261 . S
N1347 Co1298 2.214 . S
N1347 C1345 1.325 . S
N1347 C1346 1.261 . S
C1348 H1318 0.931 . S
C1348 C1345 1.357 . S
C1348 C1349 1.312 . S
C1349 H1320 0.930 . S
C1349 C1344 1.261 . S
C1349 C1348 1.312 . S
C1350 O1322 1.214 . S
C1350 O1330 1.234 . S
C1351 H1323 0.929 . S
C1351 C1354 1.391 . S
C1351 C1356 1.391 . S
C1352 H1324 0.929 . S
C1352 C1353 1.390 . S
C1352 N1355 1.391 . S
C1353 H1325 0.930 . S
C1353 C1352 1.390 . S
C1353 C1354 1.392 . S
C1354 H1326 0.929 . S
C1354 C1351 1.391 . S
C1354 C1353 1.392 . S
N1355 Co1299 2.257 . S
N1355 C1352 1.391 . S
N1355 C1356 1.388 . S
C1356 H1327 0.930 . S
C1356 C1351 1.391 . S
C1356 N1355 1.388 . S
Co1357 O1359 2.143 . S
Co1357 O1365 2.074 . S
Co1357 O1368 2.093 . S
Co1357 O1381 2.097 . S
Co1357 N1398 2.151 . S
Co1357 N1406 2.214 . S
Co1358 O1359 2.160 . S
Co1358 O1364 2.058 . S
Co1358 O1374 2.057 . S
Co1358 O1389 2.037 . S
Co1358 N1393 2.145 . S
Co1358 N1414 2.257 . S
O1359 Co1357 2.143 . S
O1359 Co1358 2.160 . S
C1360 O1361 1.278 . S
C1360 O1368 1.224 . S
O1361 C1360 1.278 . S
C1362 O1363 1.245 . S
C1362 O1374 1.232 . S
O1363 C1362 1.245 . S
O1364 Co1358 2.058 . S
O1364 C1390 1.269 . S
O1365 Co1357 2.074 . S
O1365 C1390 1.257 . S
H1366 C1391 0.930 . S
H1367 C1397 0.930 . S
O1368 Co1357 2.093 . S
O1368 C1360 1.224 . S
H1369 C1401 0.929 . S
H1370 C1403 0.930 . S
H1371 C1404 0.930 . S
H1372 C1402 0.929 . S
H1373 C1405 0.928 . S
O1374 Co1358 2.057 . S
O1374 C1362 1.232 . S
H1375 C1394 0.929 . S
H1376 C1395 0.929 . S
H1377 C1407 0.931 . S
H1378 C1399 0.929 . S
H1379 C1408 0.930 . S
H1380 C1400 0.931 . S
O1381 Co1357 2.097 . S
O1381 C1409 1.214 . S
H1382 C1410 0.929 . S
H1383 C1411 0.929 . S
H1384 C1412 0.930 . S
H1385 C1413 0.929 . S
H1386 C1415 0.930 . S
H1387 C1392 0.930 . S
H1388 C1396 0.930 . S
O1389 Co1358 2.037 . S
O1389 C1409 1.234 . S
C1390 O1364 1.269 . S
C1390 O1365 1.257 . S
C1391 H1366 0.930 . S
C1391 C1394 1.388 . S
C1391 C1396 1.418 . S
C1392 H1387 0.930 . S
C1392 C1395 1.404 . S
C1392 C1396 1.353 . S
N1393 Co1358 2.145 . S
N1393 C1394 1.397 . S
N1393 C1395 1.334 . S
C1394 H1375 0.929 . S
C1394 C1391 1.388 . S
C1394 N1393 1.397 . S
C1395 H1376 0.929 . S
C1395 C1392 1.404 . S
C1395 N1393 1.334 . S
C1396 H1388 0.930 . S
C1396 C1391 1.418 . S
C1396 C1392 1.353 . S
C1397 H1367 0.930 . S
C1397 N1398 1.330 . S
C1397 C1399 1.446 . S
N1398 Co1357 2.151 . S
N1398 C1397 1.330 . S
N1398 C1402 1.418 . S
C1399 H1378 0.929 . S
C1399 C1397 1.446 . S
C1399 C1400 1.332 . S
C1400 H1380 0.931 . S
C1400 C1399 1.332 . S
C1400 C1401 1.267 . S
C1401 H1369 0.929 . S
C1401 C1400 1.267 . S
C1401 C1402 1.251 . S
C1402 H1372 0.929 . S
C1402 N1398 1.418 . S
C1402 C1401 1.251 . S
C1403 H1370 0.930 . S
C1403 C1405 1.406 . S
C1403 C1408 1.261 . S
C1404 H1371 0.930 . S
C1404 N1406 1.325 . S
C1404 C1407 1.357 . S
C1405 H1373 0.928 . S
C1405 C1403 1.406 . S
C1405 N1406 1.261 . S
N1406 Co1357 2.214 . S
N1406 C1404 1.325 . S
N1406 C1405 1.261 . S
C1407 H1377 0.931 . S
C1407 C1404 1.357 . S
C1407 C1408 1.312 . S
C1408 H1379 0.930 . S
C1408 C1403 1.261 . S
C1408 C1407 1.312 . S
C1409 O1381 1.214 . S
C1409 O1389 1.234 . S
C1410 H1382 0.929 . S
C1410 C1413 1.391 . S
C1410 C1415 1.391 . S
C1411 H1383 0.929 . S
C1411 C1412 1.390 . S
C1411 N1414 1.391 . S
C1412 H1384 0.930 . S
C1412 C1411 1.390 . S
C1412 C1413 1.392 . S
C1413 H1385 0.929 . S
C1413 C1410 1.391 . S
C1413 C1412 1.392 . S
N1414 Co1358 2.257 . S
N1414 C1411 1.391 . S
N1414 C1415 1.388 . S
C1415 H1386 0.930 . S
C1415 C1410 1.391 . S
C1415 N1414 1.388 . S
H1416 C1424 0.950 . S
H1417 C1429 0.950 . S
H1418 C1426 0.950 . S
H1419 C1428 0.950 . S
H1420 C1430 0.950 . S
H1421 C1432 0.950 . S
H1422 C1434 0.950 . S
H1423 C1435 0.950 . S
C1424 H1416 0.950 . S
C1424 C1425 1.386 . S
C1424 C1426 1.391 . S
C1425 C1424 1.386 . S
C1425 C1429 1.393 . S
C1426 H1418 0.950 . S
C1426 C1424 1.391 . S
C1426 C1427 1.400 . S
C1427 C1426 1.400 . S
C1427 C1428 1.398 . S
C1427 C1433 1.491 . S
C1428 H1419 0.950 . S
C1428 C1427 1.398 . S
C1428 C1429 1.391 . S
C1429 H1417 0.950 . S
C1429 C1425 1.393 . S
C1429 C1428 1.391 . S
C1430 H1420 0.950 . S
C1430 C1431 1.386 . S
C1430 C1432 1.391 . S
C1431 C1430 1.386 . S
C1431 C1435 1.393 . S
C1432 H1421 0.950 . S
C1432 C1430 1.391 . S
C1432 C1433 1.400 . S
C1433 C1427 1.491 . S
C1433 C1432 1.400 . S
C1433 C1434 1.398 . S
C1434 H1422 0.950 . S
C1434 C1433 1.398 . S
C1434 C1435 1.391 . S
C1435 H1423 0.950 . S
C1435 C1431 1.393 . S
C1435 C1434 1.391 . S
H1436 C1444 0.950 . S
H1437 C1449 0.950 . S
H1438 C1446 0.950 . S
H1439 C1448 0.950 . S
H1440 C1450 0.950 . S
H1441 C1452 0.950 . S
H1442 C1454 0.950 . S
H1443 C1455 0.950 . S
C1444 H1436 0.950 . S
C1444 C1445 1.386 . S
C1444 C1446 1.391 . S
C1445 C1444 1.386 . S
C1445 C1449 1.393 . S
C1446 H1438 0.950 . S
C1446 C1444 1.391 . S
C1446 C1447 1.400 . S
C1447 C1446 1.400 . S
C1447 C1448 1.398 . S
C1447 C1453 1.491 . S
C1448 H1439 0.950 . S
C1448 C1447 1.398 . S
C1448 C1449 1.391 . S
C1449 H1437 0.950 . S
C1449 C1445 1.393 . S
C1449 C1448 1.391 . S
C1450 H1440 0.950 . S
C1450 C1451 1.386 . S
C1450 C1452 1.391 . S
C1451 C1450 1.386 . S
C1451 C1455 1.393 . S
C1452 H1441 0.950 . S
C1452 C1450 1.391 . S
C1452 C1453 1.400 . S
C1453 C1447 1.491 . S
C1453 C1452 1.400 . S
C1453 C1454 1.398 . S
C1454 H1442 0.950 . S
C1454 C1453 1.398 . S
C1454 C1455 1.391 . S
C1455 H1443 0.950 . S
C1455 C1451 1.393 . S
C1455 C1454 1.391 . S
H1456 C1464 0.950 . S
H1457 C1469 0.950 . S
H1458 C1466 0.950 . S
H1459 C1468 0.950 . S
H1460 C1470 0.950 . S
H1461 C1472 0.950 . S
H1462 C1474 0.950 . S
H1463 C1475 0.950 . S
C1464 H1456 0.950 . S
C1464 C1465 1.386 . S
C1464 C1466 1.391 . S
C1465 C1464 1.386 . S
C1465 C1469 1.393 . S
C1466 H1458 0.950 . S
C1466 C1464 1.391 . S
C1466 C1467 1.400 . S
C1467 C1466 1.400 . S
C1467 C1468 1.398 . S
C1467 C1473 1.491 . S
C1468 H1459 0.950 . S
C1468 C1467 1.398 . S
C1468 C1469 1.391 . S
C1469 H1457 0.950 . S
C1469 C1465 1.393 . S
C1469 C1468 1.391 . S
C1470 H1460 0.950 . S
C1470 C1471 1.386 . S
C1470 C1472 1.391 . S
C1471 C1470 1.386 . S
C1471 C1475 1.393 . S
C1472 H1461 0.950 . S
C1472 C1470 1.391 . S
C1472 C1473 1.400 . S
C1473 C1467 1.491 . S
C1473 C1472 1.400 . S
C1473 C1474 1.398 . S
C1474 H1462 0.950 . S
C1474 C1473 1.398 . S
C1474 C1475 1.391 . S
C1475 H1463 0.950 . S
C1475 C1471 1.393 . S
C1475 C1474 1.391 . S
H1476 C1484 0.950 . S
H1477 C1489 0.950 . S
H1478 C1486 0.950 . S
H1479 C1488 0.950 . S
H1480 C1490 0.950 . S
H1481 C1492 0.950 . S
H1482 C1494 0.950 . S
H1483 C1495 0.950 . S
C1484 H1476 0.950 . S
C1484 C1485 1.386 . S
C1484 C1486 1.391 . S
C1485 C1484 1.386 . S
C1485 C1489 1.393 . S
C1486 H1478 0.950 . S
C1486 C1484 1.391 . S
C1486 C1487 1.400 . S
C1487 C1486 1.400 . S
C1487 C1488 1.398 . S
C1487 C1493 1.491 . S
C1488 H1479 0.950 . S
C1488 C1487 1.398 . S
C1488 C1489 1.391 . S
C1489 H1477 0.950 . S
C1489 C1485 1.393 . S
C1489 C1488 1.391 . S
C1490 H1480 0.950 . S
C1490 C1491 1.386 . S
C1490 C1492 1.391 . S
C1491 C1490 1.386 . S
C1491 C1495 1.393 . S
C1492 H1481 0.950 . S
C1492 C1490 1.391 . S
C1492 C1493 1.400 . S
C1493 C1487 1.491 . S
C1493 C1492 1.400 . S
C1493 C1494 1.398 . S
C1494 H1482 0.950 . S
C1494 C1493 1.398 . S
C1494 C1495 1.391 . S
C1495 H1483 0.950 . S
C1495 C1491 1.393 . S
C1495 C1494 1.391 . S
H1496 C1504 0.950 . S
H1497 C1509 0.950 . S
H1498 C1506 0.950 . S
H1499 C1508 0.950 . S
H1500 C1510 0.950 . S
H1501 C1512 0.950 . S
H1502 C1514 0.950 . S
H1503 C1515 0.950 . S
C1504 H1496 0.950 . S
C1504 C1505 1.386 . S
C1504 C1506 1.391 . S
C1505 C1504 1.386 . S
C1505 C1509 1.393 . S
C1506 H1498 0.950 . S
C1506 C1504 1.391 . S
C1506 C1507 1.400 . S
C1507 C1506 1.400 . S
C1507 C1508 1.398 . S
C1507 C1513 1.491 . S
C1508 H1499 0.950 . S
C1508 C1507 1.398 . S
C1508 C1509 1.391 . S
C1509 H1497 0.950 . S
C1509 C1505 1.393 . S
C1509 C1508 1.391 . S
C1510 H1500 0.950 . S
C1510 C1511 1.386 . S
C1510 C1512 1.391 . S
C1511 C1510 1.386 . S
C1511 C1515 1.393 . S
C1512 H1501 0.950 . S
C1512 C1510 1.391 . S
C1512 C1513 1.400 . S
C1513 C1507 1.491 . S
C1513 C1512 1.400 . S
C1513 C1514 1.398 . S
C1514 H1502 0.950 . S
C1514 C1513 1.398 . S
C1514 C1515 1.391 . S
C1515 H1503 0.950 . S
C1515 C1511 1.393 . S
C1515 C1514 1.391 . S
H1516 C1524 0.950 . S
H1517 C1529 0.950 . S
H1518 C1526 0.950 . S
H1519 C1528 0.950 . S
H1520 C1530 0.950 . S
H1521 C1532 0.950 . S
H1522 C1534 0.950 . S
H1523 C1535 0.950 . S
C1524 H1516 0.950 . S
C1524 C1525 1.386 . S
C1524 C1526 1.391 . S
C1525 C1524 1.386 . S
C1525 C1529 1.393 . S
C1526 H1518 0.950 . S
C1526 C1524 1.391 . S
C1526 C1527 1.400 . S
C1527 C1526 1.400 . S
C1527 C1528 1.398 . S
C1527 C1533 1.491 . S
C1528 H1519 0.950 . S
C1528 C1527 1.398 . S
C1528 C1529 1.391 . S
C1529 H1517 0.950 . S
C1529 C1525 1.393 . S
C1529 C1528 1.391 . S
C1530 H1520 0.950 . S
C1530 C1531 1.386 . S
C1530 C1532 1.391 . S
C1531 C1530 1.386 . S
C1531 C1535 1.393 . S
C1532 H1521 0.950 . S
C1532 C1530 1.391 . S
C1532 C1533 1.400 . S
C1533 C1527 1.491 . S
C1533 C1532 1.400 . S
C1533 C1534 1.398 . S
C1534 H1522 0.950 . S
C1534 C1533 1.398 . S
C1534 C1535 1.391 . S
C1535 H1523 0.950 . S
C1535 C1531 1.393 . S
C1535 C1534 1.391 . S
H1536 C1544 0.950 . S
H1537 C1549 0.950 . S
H1538 C1546 0.950 . S
H1539 C1548 0.950 . S
H1540 C1550 0.950 . S
H1541 C1552 0.950 . S
H1542 C1554 0.950 . S
H1543 C1555 0.950 . S
C1544 H1536 0.950 . S
C1544 C1545 1.386 . S
C1544 C1546 1.391 . S
C1545 C1544 1.386 . S
C1545 C1549 1.393 . S
C1546 H1538 0.950 . S
C1546 C1544 1.391 . S
C1546 C1547 1.400 . S
C1547 C1546 1.400 . S
C1547 C1548 1.398 . S
C1547 C1553 1.491 . S
C1548 H1539 0.950 . S
C1548 C1547 1.398 . S
C1548 C1549 1.391 . S
C1549 H1537 0.950 . S
C1549 C1545 1.393 . S
C1549 C1548 1.391 . S
C1550 H1540 0.950 . S
C1550 C1551 1.386 . S
C1550 C1552 1.391 . S
C1551 C1550 1.386 . S
C1551 C1555 1.393 . S
C1552 H1541 0.950 . S
C1552 C1550 1.391 . S
C1552 C1553 1.400 . S
C1553 C1547 1.491 . S
C1553 C1552 1.400 . S
C1553 C1554 1.398 . S
C1554 H1542 0.950 . S
C1554 C1553 1.398 . S
C1554 C1555 1.391 . S
C1555 H1543 0.950 . S
C1555 C1551 1.393 . S
C1555 C1554 1.391 . S
H1556 C1564 0.950 . S
H1557 C1569 0.950 . S
H1558 C1566 0.950 . S
H1559 C1568 0.950 . S
H1560 C1570 0.950 . S
H1561 C1572 0.950 . S
H1562 C1574 0.950 . S
H1563 C1575 0.960 . S
C1564 H1556 0.950 . S
C1564 C1565 1.386 . S
C1564 C1566 1.391 . S
C1565 C1564 1.386 . S
C1565 C1569 1.393 . S
C1566 H1558 0.950 . S
C1566 C1564 1.391 . S
C1566 C1567 1.400 . S
C1567 C1566 1.400 . S
C1567 C1568 1.398 . S
C1567 C1573 1.491 . S
C1568 H1559 0.950 . S
C1568 C1567 1.398 . S
C1568 C1569 1.391 . S
C1569 H1557 0.950 . S
C1569 C1565 1.393 . S
C1569 C1568 1.391 . S
C1570 H1560 0.950 . S
C1570 C1571 1.386 . S
C1570 C1572 1.391 . S
C1571 C1570 1.386 . S
C1571 C1575 1.393 . S
C1572 H1561 0.950 . S
C1572 C1570 1.391 . S
C1572 C1573 1.400 . S
C1573 C1567 1.491 . S
C1573 C1572 1.400 . S
C1573 C1574 1.398 . S
C1574 H1562 0.950 . S
C1574 C1573 1.398 . S
C1574 C1575 1.391 . S
C1575 H1563 0.960 . S
C1575 C1571 1.393 . S
C1575 C1574 1.391 . S
H1576 C1584 0.950 . S
H1577 C1589 0.950 . S
H1578 C1586 0.950 . S
H1579 C1588 0.950 . S
H1580 C1590 0.950 . S
H1581 C1592 0.950 . S
H1582 C1594 0.950 . S
H1583 C1595 0.950 . S
C1584 H1576 0.950 . S
C1584 C1585 1.386 . S
C1584 C1586 1.391 . S
C1585 C1584 1.386 . S
C1585 C1589 1.393 . S
C1586 H1578 0.950 . S
C1586 C1584 1.391 . S
C1586 C1587 1.400 . S
C1587 C1586 1.400 . S
C1587 C1588 1.398 . S
C1587 C1593 1.491 . S
C1588 H1579 0.950 . S
C1588 C1587 1.398 . S
C1588 C1589 1.391 . S
C1589 H1577 0.950 . S
C1589 C1585 1.393 . S
C1589 C1588 1.391 . S
C1590 H1580 0.950 . S
C1590 C1591 1.386 . S
C1590 C1592 1.391 . S
C1591 C1590 1.386 . S
C1591 C1595 1.393 . S
C1592 H1581 0.950 . S
C1592 C1590 1.391 . S
C1592 C1593 1.400 . S
C1593 C1587 1.491 . S
C1593 C1592 1.400 . S
C1593 C1594 1.398 . S
C1594 H1582 0.950 . S
C1594 C1593 1.398 . S
C1594 C1595 1.391 . S
C1595 H1583 0.950 . S
C1595 C1591 1.393 . S
C1595 C1594 1.391 . S
H1596 C1604 0.950 . S
H1597 C1609 0.950 . S
H1598 C1606 0.950 . S
H1599 C1608 0.950 . S
H1600 C1610 0.950 . S
H1601 C1612 0.950 . S
H1602 C1614 0.950 . S
H1603 C1615 0.950 . S
C1604 H1596 0.950 . S
C1604 C1605 1.386 . S
C1604 C1606 1.391 . S
C1605 C1604 1.386 . S
C1605 C1609 1.393 . S
C1606 H1598 0.950 . S
C1606 C1604 1.391 . S
C1606 C1607 1.400 . S
C1607 C1606 1.400 . S
C1607 C1608 1.398 . S
C1607 C1613 1.491 . S
C1608 H1599 0.950 . S
C1608 C1607 1.398 . S
C1608 C1609 1.391 . S
C1609 H1597 0.950 . S
C1609 C1605 1.393 . S
C1609 C1608 1.391 . S
C1610 H1600 0.950 . S
C1610 C1611 1.386 . S
C1610 C1612 1.391 . S
C1611 C1610 1.386 . S
C1611 C1615 1.393 . S
C1612 H1601 0.950 . S
C1612 C1610 1.391 . S
C1612 C1613 1.400 . S
C1613 C1607 1.491 . S
C1613 C1612 1.400 . S
C1613 C1614 1.398 . S
C1614 H1602 0.950 . S
C1614 C1613 1.398 . S
C1614 C1615 1.391 . S
C1615 H1603 0.950 . S
C1615 C1611 1.393 . S
C1615 C1614 1.391 . S
H1616 C1624 0.950 . S
H1617 C1629 0.934 1_545 S
H1618 C1626 0.950 . S
H1619 C1628 0.950 . S
H1620 C1630 0.950 . S
H1621 C1632 0.950 . S
H1622 C1634 0.950 . S
H1623 C1635 0.950 . S
C1624 H1616 0.950 . S
C1624 C1625 1.386 . S
C1624 C1626 1.391 . S
C1625 C1624 1.386 . S
C1625 C1629 1.393 . S
C1626 H1618 0.950 . S
C1626 C1624 1.391 . S
C1626 C1627 1.400 . S
C1627 C1626 1.400 . S
C1627 C1628 1.398 . S
C1627 C1633 1.491 . S
C1628 H1619 0.950 . S
C1628 C1627 1.398 . S
C1628 C1629 1.391 . S
C1629 H1617 0.934 1_565 S
C1629 C1625 1.393 . S
C1629 C1628 1.391 . S
C1630 H1620 0.950 . S
C1630 C1631 1.386 . S
C1630 C1632 1.391 . S
C1631 C1630 1.386 . S
C1631 C1635 1.393 . S
C1632 H1621 0.950 . S
C1632 C1630 1.391 . S
C1632 C1633 1.400 . S
C1633 C1627 1.491 . S
C1633 C1632 1.400 . S
C1633 C1634 1.398 . S
C1634 H1622 0.950 . S
C1634 C1633 1.398 . S
C1634 C1635 1.391 . S
C1635 H1623 0.950 . S
C1635 C1631 1.393 . S
C1635 C1634 1.391 . S
H1636 C1644 0.950 . S
H1637 C1649 0.950 . S
H1638 C1646 0.950 . S
H1639 C1648 0.950 . S
H1640 C1650 0.950 . S
H1641 C1652 0.950 . S
H1642 C1654 0.950 . S
H1643 C1655 0.950 . S
C1644 H1636 0.950 . S
C1644 C1645 1.386 . S
C1644 C1646 1.391 . S
C1645 C1644 1.386 . S
C1645 C1649 1.393 . S
C1646 H1638 0.950 . S
C1646 C1644 1.391 . S
C1646 C1647 1.400 . S
C1647 C1646 1.400 . S
C1647 C1648 1.398 . S
C1647 C1653 1.491 . S
C1648 H1639 0.950 . S
C1648 C1647 1.398 . S
C1648 C1649 1.391 . S
C1649 H1637 0.950 . S
C1649 C1645 1.393 . S
C1649 C1648 1.391 . S
C1650 H1640 0.950 . S
C1650 C1651 1.386 . S
C1650 C1652 1.391 . S
C1651 C1650 1.386 . S
C1651 C1655 1.393 . S
C1652 H1641 0.950 . S
C1652 C1650 1.391 . S
C1652 C1653 1.400 . S
C1653 C1647 1.491 . S
C1653 C1652 1.400 . S
C1653 C1654 1.398 . S
C1654 H1642 0.950 . S
C1654 C1653 1.398 . S
C1654 C1655 1.391 . S
C1655 H1643 0.950 . S
C1655 C1651 1.393 . S
C1655 C1654 1.391 . S
H1656 C1664 0.950 . S
H1657 C1669 0.950 . S
H1658 C1666 0.950 . S
H1659 C1668 0.950 . S
H1660 C1670 0.950 . S
H1661 C1672 0.950 . S
H1662 C1674 0.950 . S
H1663 C1675 0.950 . S
C1664 H1656 0.950 . S
C1664 C1665 1.386 . S
C1664 C1666 1.391 . S
C1665 C1664 1.386 . S
C1665 C1669 1.393 . S
C1666 H1658 0.950 . S
C1666 C1664 1.391 . S
C1666 C1667 1.400 . S
C1667 C1666 1.400 . S
C1667 C1668 1.398 . S
C1667 C1673 1.491 . S
C1668 H1659 0.950 . S
C1668 C1667 1.398 . S
C1668 C1669 1.391 . S
C1669 H1657 0.950 . S
C1669 C1665 1.393 . S
C1669 C1668 1.391 . S
C1670 H1660 0.950 . S
C1670 C1671 1.386 . S
C1670 C1672 1.391 . S
C1671 C1670 1.386 . S
C1671 C1675 1.393 . S
C1672 H1661 0.950 . S
C1672 C1670 1.391 . S
C1672 C1673 1.400 . S
C1673 C1667 1.491 . S
C1673 C1672 1.400 . S
C1673 C1674 1.398 . S
C1674 H1662 0.950 . S
C1674 C1673 1.398 . S
C1674 C1675 1.391 . S
C1675 H1663 0.950 . S
C1675 C1671 1.393 . S
C1675 C1674 1.391 . S
H1676 C1684 0.950 . S
H1677 C1689 0.950 . S
H1678 C1686 0.950 . S
H1679 C1688 0.950 . S
H1680 C1690 0.950 . S
H1681 C1692 0.950 . S
H1682 C1694 0.950 . S
H1683 C1695 0.950 . S
C1684 H1676 0.950 . S
C1684 C1685 1.386 . S
C1684 C1686 1.391 . S
C1685 C1684 1.386 . S
C1685 C1689 1.393 . S
C1686 H1678 0.950 . S
C1686 C1684 1.391 . S
C1686 C1687 1.400 . S
C1687 C1686 1.400 . S
C1687 C1688 1.398 . S
C1687 C1693 1.491 . S
C1688 H1679 0.950 . S
C1688 C1687 1.398 . S
C1688 C1689 1.391 . S
C1689 H1677 0.950 . S
C1689 C1685 1.393 . S
C1689 C1688 1.391 . S
C1690 H1680 0.950 . S
C1690 C1691 1.386 . S
C1690 C1692 1.391 . S
C1691 C1690 1.386 . S
C1691 C1695 1.393 . S
C1692 H1681 0.950 . S
C1692 C1690 1.391 . S
C1692 C1693 1.400 . S
C1693 C1687 1.491 . S
C1693 C1692 1.400 . S
C1693 C1694 1.398 . S
C1694 H1682 0.950 . S
C1694 C1693 1.398 . S
C1694 C1695 1.391 . S
C1695 H1683 0.950 . S
C1695 C1691 1.393 . S
C1695 C1694 1.391 . S
H1696 C1704 0.950 . S
H1697 C1709 0.950 . S
H1698 C1706 0.950 . S
H1699 C1708 0.950 . S
H1700 C1710 0.950 . S
H1701 C1712 0.950 . S
H1702 C1714 0.950 . S
H1703 C1715 0.950 . S
C1704 H1696 0.950 . S
C1704 C1705 1.386 . S
C1704 C1706 1.391 . S
C1705 C1704 1.386 . S
C1705 C1709 1.393 . S
C1706 H1698 0.950 . S
C1706 C1704 1.391 . S
C1706 C1707 1.400 . S
C1707 C1706 1.400 . S
C1707 C1708 1.398 . S
C1707 C1713 1.491 . S
C1708 H1699 0.950 . S
C1708 C1707 1.398 . S
C1708 C1709 1.391 . S
C1709 H1697 0.950 . S
C1709 C1705 1.393 . S
C1709 C1708 1.391 . S
C1710 H1700 0.950 . S
C1710 C1711 1.386 . S
C1710 C1712 1.391 . S
C1711 C1710 1.386 . S
C1711 C1715 1.393 . S
C1712 H1701 0.950 . S
C1712 C1710 1.391 . S
C1712 C1713 1.400 . S
C1713 C1707 1.491 . S
C1713 C1712 1.400 . S
C1713 C1714 1.398 . S
C1714 H1702 0.950 . S
C1714 C1713 1.398 . S
C1714 C1715 1.391 . S
C1715 H1703 0.950 . S
C1715 C1711 1.393 . S
C1715 C1714 1.391 . S
H1716 C1724 0.950 . S
H1717 C1729 0.950 . S
H1718 C1726 0.950 . S
H1719 C1728 0.950 . S
H1720 C1730 0.950 . S
H1721 C1732 0.950 . S
H1722 C1734 0.950 . S
H1723 C1735 0.950 . S
C1724 H1716 0.950 . S
C1724 C1725 1.386 . S
C1724 C1726 1.391 . S
C1725 C1724 1.386 . S
C1725 C1729 1.393 . S
C1726 H1718 0.950 . S
C1726 C1724 1.391 . S
C1726 C1727 1.400 . S
C1727 C1726 1.400 . S
C1727 C1728 1.398 . S
C1727 C1733 1.491 . S
C1728 H1719 0.950 . S
C1728 C1727 1.398 . S
C1728 C1729 1.391 . S
C1729 H1717 0.950 . S
C1729 C1725 1.393 . S
C1729 C1728 1.391 . S
C1730 H1720 0.950 . S
C1730 C1731 1.386 . S
C1730 C1732 1.391 . S
C1731 C1730 1.386 . S
C1731 C1735 1.393 . S
C1732 H1721 0.950 . S
C1732 C1730 1.391 . S
C1732 C1733 1.400 . S
C1733 C1727 1.491 . S
C1733 C1732 1.400 . S
C1733 C1734 1.398 . S
C1734 H1722 0.950 . S
C1734 C1733 1.398 . S
C1734 C1735 1.391 . S
C1735 H1723 0.950 . S
C1735 C1731 1.393 . S
C1735 C1734 1.391 . S
H1736 C1744 0.950 . S
H1737 C1749 0.950 . S
H1738 C1746 0.950 . S
H1739 C1748 0.950 . S
H1740 C1750 0.950 . S
H1741 C1752 0.950 . S
H1742 C1754 0.950 . S
H1743 C1755 0.950 . S
C1744 H1736 0.950 . S
C1744 C1745 1.386 . S
C1744 C1746 1.391 . S
C1745 C1744 1.386 . S
C1745 C1749 1.393 . S
C1746 H1738 0.950 . S
C1746 C1744 1.391 . S
C1746 C1747 1.400 . S
C1747 C1746 1.400 . S
C1747 C1748 1.398 . S
C1747 C1753 1.491 . S
C1748 H1739 0.950 . S
C1748 C1747 1.398 . S
C1748 C1749 1.391 . S
C1749 H1737 0.950 . S
C1749 C1745 1.393 . S
C1749 C1748 1.391 . S
C1750 H1740 0.950 . S
C1750 C1751 1.386 . S
C1750 C1752 1.391 . S
C1751 C1750 1.386 . S
C1751 C1755 1.393 . S
C1752 H1741 0.950 . S
C1752 C1750 1.391 . S
C1752 C1753 1.400 . S
C1753 C1747 1.491 . S
C1753 C1752 1.400 . S
C1753 C1754 1.398 . S
C1754 H1742 0.950 . S
C1754 C1753 1.398 . S
C1754 C1755 1.391 . S
C1755 H1743 0.950 . S
C1755 C1751 1.393 . S
C1755 C1754 1.391 . S
H1756 C1764 0.950 . S
H1757 C1769 0.950 . S
H1758 C1766 0.950 . S
H1759 C1768 0.950 . S
H1760 C1770 0.950 . S
H1761 C1772 0.950 . S
H1762 C1774 0.950 . S
H1763 C1775 0.950 . S
C1764 H1756 0.950 . S
C1764 C1765 1.386 . S
C1764 C1766 1.391 . S
C1765 C1764 1.386 . S
C1765 C1769 1.393 . S
C1766 H1758 0.950 . S
C1766 C1764 1.391 . S
C1766 C1767 1.400 . S
C1767 C1766 1.400 . S
C1767 C1768 1.398 . S
C1767 C1773 1.491 . S
C1768 H1759 0.950 . S
C1768 C1767 1.398 . S
C1768 C1769 1.391 . S
C1769 H1757 0.950 . S
C1769 C1765 1.393 . S
C1769 C1768 1.391 . S
C1770 H1760 0.950 . S
C1770 C1771 1.386 . S
C1770 C1772 1.391 . S
C1771 C1770 1.386 . S
C1771 C1775 1.393 . S
C1772 H1761 0.950 . S
C1772 C1770 1.391 . S
C1772 C1773 1.400 . S
C1773 C1767 1.491 . S
C1773 C1772 1.400 . S
C1773 C1774 1.398 . S
C1774 H1762 0.950 . S
C1774 C1773 1.398 . S
C1774 C1775 1.391 . S
C1775 H1763 0.950 . S
C1775 C1771 1.393 . S
C1775 C1774 1.391 . S
H1776 C1784 0.950 1_554 S
H1777 C1789 0.950 . S
H1778 C1786 0.950 . S
H1779 C1788 0.950 . S
H1780 C1790 0.950 . S
H1781 C1792 0.950 . S
H1782 C1794 0.950 . S
H1783 C1795 0.950 . S
C1784 H1776 0.950 1_556 S
C1784 C1785 1.386 . S
C1784 C1786 1.391 . S
C1785 C1784 1.386 . S
C1785 C1789 1.393 . S
C1786 H1778 0.950 . S
C1786 C1784 1.391 . S
C1786 C1787 1.400 . S
C1787 C1786 1.400 . S
C1787 C1788 1.398 . S
C1787 C1793 1.491 . S
C1788 H1779 0.950 . S
C1788 C1787 1.398 . S
C1788 C1789 1.391 . S
C1789 H1777 0.950 . S
C1789 C1785 1.393 . S
C1789 C1788 1.391 . S
C1790 H1780 0.950 . S
C1790 C1791 1.386 . S
C1790 C1792 1.391 . S
C1791 C1790 1.386 . S
C1791 C1795 1.393 . S
C1792 H1781 0.950 . S
C1792 C1790 1.391 . S
C1792 C1793 1.400 . S
C1793 C1787 1.491 . S
C1793 C1792 1.400 . S
C1793 C1794 1.398 . S
C1794 H1782 0.950 . S
C1794 C1793 1.398 . S
C1794 C1795 1.391 . S
C1795 H1783 0.950 . S
C1795 C1791 1.393 . S
C1795 C1794 1.391 . S
H1796 C1804 0.950 . S
H1797 C1809 0.950 . S
H1798 C1806 0.950 . S
H1799 C1808 0.950 . S
H1800 C1810 0.950 . S
H1801 C1812 0.950 . S
H1802 C1814 0.950 . S
H1803 C1815 0.950 . S
C1804 H1796 0.950 . S
C1804 C1805 1.386 . S
C1804 C1806 1.391 . S
C1805 C1804 1.386 . S
C1805 C1809 1.393 . S
C1806 H1798 0.950 . S
C1806 C1804 1.391 . S
C1806 C1807 1.400 . S
C1807 C1806 1.400 . S
C1807 C1808 1.398 . S
C1807 C1813 1.491 . S
C1808 H1799 0.950 . S
C1808 C1807 1.398 . S
C1808 C1809 1.391 . S
C1809 H1797 0.950 . S
C1809 C1805 1.393 . S
C1809 C1808 1.391 . S
C1810 H1800 0.950 . S
C1810 C1811 1.386 . S
C1810 C1812 1.391 . S
C1811 C1810 1.386 . S
C1811 C1815 1.393 . S
C1812 H1801 0.950 . S
C1812 C1810 1.391 . S
C1812 C1813 1.400 . S
C1813 C1807 1.491 . S
C1813 C1812 1.400 . S
C1813 C1814 1.398 . S
C1814 H1802 0.950 . S
C1814 C1813 1.398 . S
C1814 C1815 1.391 . S
C1815 H1803 0.950 . S
C1815 C1811 1.393 . S
C1815 C1814 1.391 . S
H1816 C1824 0.950 . S
H1817 C1829 0.950 . S
H1818 C1826 0.950 . S
H1819 C1828 0.950 . S
H1820 C1830 0.950 . S
H1821 C1832 0.950 . S
H1822 C1834 0.950 . S
H1823 C1835 0.950 . S
C1824 H1816 0.950 . S
C1824 C1825 1.386 . S
C1824 C1826 1.391 . S
C1825 C1824 1.386 . S
C1825 C1829 1.393 . S
C1826 H1818 0.950 . S
C1826 C1824 1.391 . S
C1826 C1827 1.400 . S
C1827 C1826 1.400 . S
C1827 C1828 1.398 . S
C1827 C1833 1.491 . S
C1828 H1819 0.950 . S
C1828 C1827 1.398 . S
C1828 C1829 1.391 . S
C1829 H1817 0.950 . S
C1829 C1825 1.393 . S
C1829 C1828 1.391 . S
C1830 H1820 0.950 . S
C1830 C1831 1.386 . S
C1830 C1832 1.391 . S
C1831 C1830 1.386 . S
C1831 C1835 1.393 . S
C1832 H1821 0.950 . S
C1832 C1830 1.391 . S
C1832 C1833 1.400 . S
C1833 C1827 1.491 . S
C1833 C1832 1.400 . S
C1833 C1834 1.398 . S
C1834 H1822 0.950 . S
C1834 C1833 1.398 . S
C1834 C1835 1.391 . S
C1835 H1823 0.950 . S
C1835 C1831 1.393 . S
C1835 C1834 1.391 . S
H1836 C1844 0.950 . S
H1837 C1849 0.950 . S
H1838 C1846 0.950 . S
H1839 C1848 0.950 . S
H1840 C1850 0.950 . S
H1841 C1852 0.950 . S
H1842 C1854 0.950 . S
H1843 C1855 0.950 . S
C1844 H1836 0.950 . S
C1844 C1845 1.386 . S
C1844 C1846 1.391 . S
C1845 C1844 1.386 . S
C1845 C1849 1.393 . S
C1846 H1838 0.950 . S
C1846 C1844 1.391 . S
C1846 C1847 1.400 . S
C1847 C1846 1.400 . S
C1847 C1848 1.398 . S
C1847 C1853 1.491 . S
C1848 H1839 0.950 . S
C1848 C1847 1.398 . S
C1848 C1849 1.391 . S
C1849 H1837 0.950 . S
C1849 C1845 1.393 . S
C1849 C1848 1.391 . S
C1850 H1840 0.950 . S
C1850 C1851 1.386 . S
C1850 C1852 1.391 . S
C1851 C1850 1.386 . S
C1851 C1855 1.393 . S
C1852 H1841 0.950 . S
C1852 C1850 1.391 . S
C1852 C1853 1.400 . S
C1853 C1847 1.491 . S
C1853 C1852 1.400 . S
C1853 C1854 1.398 . S
C1854 H1842 0.950 . S
C1854 C1853 1.398 . S
C1854 C1855 1.391 . S
C1855 H1843 0.950 . S
C1855 C1851 1.393 . S
C1855 C1854 1.391 . S
H1856 C1864 0.950 . S
H1857 C1869 0.950 . S
H1858 C1866 0.950 . S
H1859 C1868 0.950 . S
H1860 C1870 0.950 . S
H1861 C1872 0.950 . S
H1862 C1874 0.950 . S
H1863 C1875 0.950 . S
C1864 H1856 0.950 . S
C1864 C1865 1.386 . S
C1864 C1866 1.391 . S
C1865 C1864 1.386 . S
C1865 C1869 1.393 . S
C1866 H1858 0.950 . S
C1866 C1864 1.391 . S
C1866 C1867 1.400 . S
C1867 C1866 1.400 . S
C1867 C1868 1.398 . S
C1867 C1873 1.491 . S
C1868 H1859 0.950 . S
C1868 C1867 1.398 . S
C1868 C1869 1.391 . S
C1869 H1857 0.950 . S
C1869 C1865 1.393 . S
C1869 C1868 1.391 . S
C1870 H1860 0.950 . S
C1870 C1871 1.386 . S
C1870 C1872 1.391 . S
C1871 C1870 1.386 . S
C1871 C1875 1.393 . S
C1872 H1861 0.950 . S
C1872 C1870 1.391 . S
C1872 C1873 1.400 . S
C1873 C1867 1.491 . S
C1873 C1872 1.400 . S
C1873 C1874 1.398 . S
C1874 H1862 0.950 . S
C1874 C1873 1.398 . S
C1874 C1875 1.391 . S
C1875 H1863 0.950 . S
C1875 C1871 1.393 . S
C1875 C1874 1.391 . S
H1876 C1884 0.950 . S
H1877 C1889 0.950 . S
H1878 C1886 0.950 . S
H1879 C1888 0.950 . S
H1880 C1890 0.950 . S
H1881 C1892 0.950 . S
H1882 C1894 0.950 . S
H1883 C1895 0.950 . S
C1884 H1876 0.950 . S
C1884 C1885 1.386 . S
C1884 C1886 1.391 . S
C1885 C1884 1.386 . S
C1885 C1889 1.393 . S
C1886 H1878 0.950 . S
C1886 C1884 1.391 . S
C1886 C1887 1.400 . S
C1887 C1886 1.400 . S
C1887 C1888 1.398 . S
C1887 C1893 1.491 . S
C1888 H1879 0.950 . S
C1888 C1887 1.398 . S
C1888 C1889 1.391 . S
C1889 H1877 0.950 . S
C1889 C1885 1.393 . S
C1889 C1888 1.391 . S
C1890 H1880 0.950 . S
C1890 C1891 1.386 . S
C1890 C1892 1.391 . S
C1891 C1890 1.386 . S
C1891 C1895 1.393 . S
C1892 H1881 0.950 . S
C1892 C1890 1.391 . S
C1892 C1893 1.400 . S
C1893 C1887 1.491 . S
C1893 C1892 1.400 . S
C1893 C1894 1.398 . S
C1894 H1882 0.950 . S
C1894 C1893 1.398 . S
C1894 C1895 1.391 . S
C1895 H1883 0.950 . S
C1895 C1891 1.393 . S
C1895 C1894 1.391 . S
H1896 C1904 0.950 . S
H1897 C1909 0.950 . S
H1898 C1906 0.950 . S
H1899 C1908 0.950 . S
H1900 C1910 0.950 . S
H1901 C1912 0.950 . S
H1902 C1914 0.950 . S
H1903 C1915 0.950 . S
C1904 H1896 0.950 . S
C1904 C1905 1.386 . S
C1904 C1906 1.391 . S
C1905 C1904 1.386 . S
C1905 C1909 1.393 . S
C1906 H1898 0.950 . S
C1906 C1904 1.391 . S
C1906 C1907 1.400 . S
C1907 C1906 1.400 . S
C1907 C1908 1.398 . S
C1907 C1913 1.491 . S
C1908 H1899 0.950 . S
C1908 C1907 1.398 . S
C1908 C1909 1.391 . S
C1909 H1897 0.950 . S
C1909 C1905 1.393 . S
C1909 C1908 1.391 . S
C1910 H1900 0.950 . S
C1910 C1911 1.386 . S
C1910 C1912 1.391 . S
C1911 C1910 1.386 . S
C1911 C1915 1.393 . S
C1912 H1901 0.950 . S
C1912 C1910 1.391 . S
C1912 C1913 1.400 . S
C1913 C1907 1.491 . S
C1913 C1912 1.400 . S
C1913 C1914 1.398 . S
C1914 H1902 0.950 . S
C1914 C1913 1.398 . S
C1914 C1915 1.391 . S
C1915 H1903 0.950 . S
C1915 C1911 1.393 . S
C1915 C1914 1.391 . S
H1916 C1924 0.950 . S
H1917 C1929 0.950 . S
H1918 C1926 0.950 . S
H1919 C1928 0.950 . S
H1920 C1930 0.950 . S
H1921 C1932 0.950 . S
H1922 C1934 0.950 . S
H1923 C1935 0.950 . S
C1924 H1916 0.950 . S
C1924 C1925 1.386 . S
C1924 C1926 1.391 . S
C1925 C1924 1.386 . S
C1925 C1929 1.393 . S
C1926 H1918 0.950 . S
C1926 C1924 1.391 . S
C1926 C1927 1.400 . S
C1927 C1926 1.400 . S
C1927 C1928 1.398 . S
C1927 C1933 1.491 . S
C1928 H1919 0.950 . S
C1928 C1927 1.398 . S
C1928 C1929 1.391 . S
C1929 H1917 0.950 . S
C1929 C1925 1.393 . S
C1929 C1928 1.391 . S
C1930 H1920 0.950 . S
C1930 C1931 1.386 . S
C1930 C1932 1.391 . S
C1931 C1930 1.386 . S
C1931 C1935 1.393 . S
C1932 H1921 0.950 . S
C1932 C1930 1.391 . S
C1932 C1933 1.400 . S
C1933 C1927 1.491 . S
C1933 C1932 1.400 . S
C1933 C1934 1.398 . S
C1934 H1922 0.950 . S
C1934 C1933 1.398 . S
C1934 C1935 1.391 . S
C1935 H1923 0.950 . S
C1935 C1931 1.393 . S
C1935 C1934 1.391 . S
H1936 C1944 0.950 . S
H1937 C1949 0.950 . S
H1938 C1946 0.950 . S
H1939 C1948 0.950 . S
H1940 C1950 0.950 . S
H1941 C1952 0.950 . S
H1942 C1954 0.950 . S
H1943 C1955 0.950 . S
C1944 H1936 0.950 . S
C1944 C1945 1.386 . S
C1944 C1946 1.391 . S
C1945 C1944 1.386 . S
C1945 C1949 1.393 . S
C1946 H1938 0.950 . S
C1946 C1944 1.391 . S
C1946 C1947 1.400 . S
C1947 C1946 1.400 . S
C1947 C1948 1.398 . S
C1947 C1953 1.491 . S
C1948 H1939 0.950 . S
C1948 C1947 1.398 . S
C1948 C1949 1.391 . S
C1949 H1937 0.950 . S
C1949 C1945 1.393 . S
C1949 C1948 1.391 . S
C1950 H1940 0.950 . S
C1950 C1951 1.386 . S
C1950 C1952 1.391 . S
C1951 C1950 1.386 . S
C1951 C1955 1.393 . S
C1952 H1941 0.950 . S
C1952 C1950 1.391 . S
C1952 C1953 1.400 . S
C1953 C1947 1.491 . S
C1953 C1952 1.400 . S
C1953 C1954 1.398 . S
C1954 H1942 0.950 . S
C1954 C1953 1.398 . S
C1954 C1955 1.391 . S
C1955 H1943 0.950 . S
C1955 C1951 1.393 . S
C1955 C1954 1.391 . S
H1956 C1964 0.950 . S
H1957 C1969 0.950 . S
H1958 C1966 0.950 . S
H1959 C1968 0.950 . S
H1960 C1970 0.950 . S
H1961 C1972 0.950 . S
H1962 C1974 0.950 . S
H1963 C1975 0.950 . S
C1964 H1956 0.950 . S
C1964 C1965 1.386 . S
C1964 C1966 1.391 . S
C1965 C1964 1.386 . S
C1965 C1969 1.393 . S
C1966 H1958 0.950 . S
C1966 C1964 1.391 . S
C1966 C1967 1.400 . S
C1967 C1966 1.400 . S
C1967 C1968 1.398 . S
C1967 C1973 1.491 . S
C1968 H1959 0.950 . S
C1968 C1967 1.398 . S
C1968 C1969 1.391 . S
C1969 H1957 0.950 . S
C1969 C1965 1.393 . S
C1969 C1968 1.391 . S
C1970 H1960 0.950 . S
C1970 C1971 1.386 . S
C1970 C1972 1.391 . S
C1971 C1970 1.386 . S
C1971 C1975 1.393 . S
C1972 H1961 0.950 . S
C1972 C1970 1.391 . S
C1972 C1973 1.400 . S
C1973 C1967 1.491 . S
C1973 C1972 1.400 . S
C1973 C1974 1.398 . S
C1974 H1962 0.950 . S
C1974 C1973 1.398 . S
C1974 C1975 1.391 . S
C1975 H1963 0.950 . S
C1975 C1971 1.393 . S
C1975 C1974 1.391 . S
H1976 C1984 0.950 . S
H1977 C1989 0.950 . S
H1978 C1986 0.950 . S
H1979 C1988 0.950 . S
H1980 C1990 0.950 . S
H1981 C1992 0.950 . S
H1982 C1994 0.950 . S
H1983 C1995 0.950 . S
C1984 H1976 0.950 . S
C1984 C1985 1.386 . S
C1984 C1986 1.391 . S
C1985 C1984 1.386 . S
C1985 C1989 1.393 . S
C1986 H1978 0.950 . S
C1986 C1984 1.391 . S
C1986 C1987 1.400 . S
C1987 C1986 1.400 . S
C1987 C1988 1.398 . S
C1987 C1993 1.491 . S
C1988 H1979 0.950 . S
C1988 C1987 1.398 . S
C1988 C1989 1.391 . S
C1989 H1977 0.950 . S
C1989 C1985 1.393 . S
C1989 C1988 1.391 . S
C1990 H1980 0.950 . S
C1990 C1991 1.386 . S
C1990 C1992 1.391 . S
C1991 C1990 1.386 . S
C1991 C1995 1.393 . S
C1992 H1981 0.950 . S
C1992 C1990 1.391 . S
C1992 C1993 1.400 . S
C1993 C1987 1.491 . S
C1993 C1992 1.400 . S
C1993 C1994 1.398 . S
C1994 H1982 0.950 . S
C1994 C1993 1.398 . S
C1994 C1995 1.391 . S
C1995 H1983 0.950 . S
C1995 C1991 1.393 . S
C1995 C1994 1.391 . S
H1996 C2004 0.950 . S
H1997 C2009 0.950 . S
H1998 C2006 0.950 . S
H1999 C2008 0.950 . S
H2000 C2010 0.950 . S
H2001 C2012 0.950 . S
H2002 C2014 0.950 . S
H2003 C2015 0.950 . S
C2004 H1996 0.950 . S
C2004 C2005 1.386 . S
C2004 C2006 1.391 . S
C2005 C2004 1.386 . S
C2005 C2009 1.393 . S
C2006 H1998 0.950 . S
C2006 C2004 1.391 . S
C2006 C2007 1.400 . S
C2007 C2006 1.400 . S
C2007 C2008 1.398 . S
C2007 C2013 1.491 . S
C2008 H1999 0.950 . S
C2008 C2007 1.398 . S
C2008 C2009 1.391 . S
C2009 H1997 0.950 . S
C2009 C2005 1.393 . S
C2009 C2008 1.391 . S
C2010 H2000 0.950 . S
C2010 C2011 1.386 . S
C2010 C2012 1.391 . S
C2011 C2010 1.386 . S
C2011 C2015 1.393 . S
C2012 H2001 0.950 . S
C2012 C2010 1.391 . S
C2012 C2013 1.400 . S
C2013 C2007 1.491 . S
C2013 C2012 1.400 . S
C2013 C2014 1.398 . S
C2014 H2002 0.950 . S
C2014 C2013 1.398 . S
C2014 C2015 1.391 . S
C2015 H2003 0.950 . S
C2015 C2011 1.393 . S
C2015 C2014 1.391 . S
H2016 C2024 0.950 . S
H2017 C2029 0.950 . S
H2018 C2026 0.950 . S
H2019 C2028 0.950 . S
H2020 C2030 0.950 . S
H2021 C2032 0.950 . S
H2022 C2034 0.950 . S
H2023 C2035 0.950 . S
C2024 H2016 0.950 . S
C2024 C2025 1.386 . S
C2024 C2026 1.391 . S
C2025 C2024 1.386 . S
C2025 C2029 1.393 . S
C2026 H2018 0.950 . S
C2026 C2024 1.391 . S
C2026 C2027 1.400 . S
C2027 C2026 1.400 . S
C2027 C2028 1.398 . S
C2027 C2033 1.491 . S
C2028 H2019 0.950 . S
C2028 C2027 1.398 . S
C2028 C2029 1.391 . S
C2029 H2017 0.950 . S
C2029 C2025 1.393 . S
C2029 C2028 1.391 . S
C2030 H2020 0.950 . S
C2030 C2031 1.386 . S
C2030 C2032 1.391 . S
C2031 C2030 1.386 . S
C2031 C2035 1.393 . S
C2032 H2021 0.950 . S
C2032 C2030 1.391 . S
C2032 C2033 1.400 . S
C2033 C2027 1.491 . S
C2033 C2032 1.400 . S
C2033 C2034 1.398 . S
C2034 H2022 0.950 . S
C2034 C2033 1.398 . S
C2034 C2035 1.391 . S
C2035 H2023 0.950 . S
C2035 C2031 1.393 . S
C2035 C2034 1.391 . S
H2036 C2044 0.950 . S
H2037 C2049 0.950 . S
H2038 C2046 0.950 . S
H2039 C2048 0.950 . S
H2040 C2050 0.950 . S
H2041 C2052 0.950 . S
H2042 C2054 0.950 . S
H2043 C2055 0.950 . S
C2044 H2036 0.950 . S
C2044 C2045 1.386 . S
C2044 C2046 1.391 . S
C2045 C2044 1.386 . S
C2045 C2049 1.393 . S
C2046 H2038 0.950 . S
C2046 C2044 1.391 . S
C2046 C2047 1.400 . S
C2047 C2046 1.400 . S
C2047 C2048 1.398 . S
C2047 C2053 1.491 . S
C2048 H2039 0.950 . S
C2048 C2047 1.398 . S
C2048 C2049 1.391 . S
C2049 H2037 0.950 . S
C2049 C2045 1.393 . S
C2049 C2048 1.391 . S
C2050 H2040 0.950 . S
C2050 C2051 1.386 . S
C2050 C2052 1.391 . S
C2051 C2050 1.386 . S
C2051 C2055 1.393 . S
C2052 H2041 0.950 . S
C2052 C2050 1.391 . S
C2052 C2053 1.400 . S
C2053 C2047 1.491 . S
C2053 C2052 1.400 . S
C2053 C2054 1.398 . S
C2054 H2042 0.950 . S
C2054 C2053 1.398 . S
C2054 C2055 1.391 . S
C2055 H2043 0.950 . S
C2055 C2051 1.393 . S
C2055 C2054 1.391 . S
H2056 C2064 0.950 . S
H2057 C2069 0.950 . S
H2058 C2066 0.950 . S
H2059 C2068 0.950 . S
H2060 C2070 0.950 . S
H2061 C2072 0.950 . S
H2062 C2074 0.950 . S
H2063 C2075 0.950 . S
C2064 H2056 0.950 . S
C2064 C2065 1.386 . S
C2064 C2066 1.391 . S
C2065 C2064 1.386 . S
C2065 C2069 1.393 . S
C2066 H2058 0.950 . S
C2066 C2064 1.391 . S
C2066 C2067 1.400 . S
C2067 C2066 1.400 . S
C2067 C2068 1.398 . S
C2067 C2073 1.491 . S
C2068 H2059 0.950 . S
C2068 C2067 1.398 . S
C2068 C2069 1.391 . S
C2069 H2057 0.950 . S
C2069 C2065 1.393 . S
C2069 C2068 1.391 . S
C2070 H2060 0.950 . S
C2070 C2071 1.386 . S
C2070 C2072 1.391 . S
C2071 C2070 1.386 . S
C2071 C2075 1.393 . S
C2072 H2061 0.950 . S
C2072 C2070 1.391 . S
C2072 C2073 1.400 . S
C2073 C2067 1.491 . S
C2073 C2072 1.400 . S
C2073 C2074 1.398 . S
C2074 H2062 0.950 . S
C2074 C2073 1.398 . S
C2074 C2075 1.391 . S
C2075 H2063 0.950 . S
C2075 C2071 1.393 . S
C2075 C2074 1.391 . S
H2076 C2084 0.950 . S
H2077 C2089 0.950 . S
H2078 C2086 0.950 . S
H2079 C2088 0.950 . S
H2080 C2090 0.950 . S
H2081 C2092 0.950 . S
H2082 C2094 0.950 . S
H2083 C2095 0.950 . S
C2084 H2076 0.950 . S
C2084 C2085 1.386 . S
C2084 C2086 1.391 . S
C2085 C2084 1.386 . S
C2085 C2089 1.393 . S
C2086 H2078 0.950 . S
C2086 C2084 1.391 . S
C2086 C2087 1.400 . S
C2087 C2086 1.400 . S
C2087 C2088 1.398 . S
C2087 C2093 1.491 . S
C2088 H2079 0.950 . S
C2088 C2087 1.398 . S
C2088 C2089 1.391 . S
C2089 H2077 0.950 . S
C2089 C2085 1.393 . S
C2089 C2088 1.391 . S
C2090 H2080 0.950 . S
C2090 C2091 1.386 . S
C2090 C2092 1.391 . S
C2091 C2090 1.386 . S
C2091 C2095 1.393 . S
C2092 H2081 0.950 . S
C2092 C2090 1.391 . S
C2092 C2093 1.400 . S
C2093 C2087 1.491 . S
C2093 C2092 1.400 . S
C2093 C2094 1.398 . S
C2094 H2082 0.950 . S
C2094 C2093 1.398 . S
C2094 C2095 1.391 . S
C2095 H2083 0.950 . S
C2095 C2091 1.393 . S
C2095 C2094 1.391 . S
H2096 C2104 0.950 . S
H2097 C2109 0.950 . S
H2098 C2106 0.950 . S
H2099 C2108 0.950 . S
H2100 C2110 0.950 . S
H2101 C2112 0.950 . S
H2102 C2114 0.950 . S
H2103 C2115 0.950 . S
C2104 H2096 0.950 . S
C2104 C2105 1.386 . S
C2104 C2106 1.391 . S
C2105 C2104 1.386 . S
C2105 C2109 1.393 . S
C2106 H2098 0.950 . S
C2106 C2104 1.391 . S
C2106 C2107 1.400 . S
C2107 C2106 1.400 . S
C2107 C2108 1.398 . S
C2107 C2113 1.491 . S
C2108 H2099 0.950 . S
C2108 C2107 1.398 . S
C2108 C2109 1.391 . S
C2109 H2097 0.950 . S
C2109 C2105 1.393 . S
C2109 C2108 1.391 . S
C2110 H2100 0.950 . S
C2110 C2111 1.386 . S
C2110 C2112 1.391 . S
C2111 C2110 1.386 . S
C2111 C2115 1.393 . S
C2112 H2101 0.950 . S
C2112 C2110 1.391 . S
C2112 C2113 1.400 . S
C2113 C2107 1.491 . S
C2113 C2112 1.400 . S
C2113 C2114 1.398 . S
C2114 H2102 0.950 . S
C2114 C2113 1.398 . S
C2114 C2115 1.391 . S
C2115 H2103 0.950 . S
C2115 C2111 1.393 . S
C2115 C2114 1.391 . S
H2116 C2124 0.950 . S
H2117 C2129 0.950 . S
H2118 C2126 0.950 . S
H2119 C2128 0.950 . S
H2120 C2130 0.950 . S
H2121 C2132 0.950 . S
H2122 C2134 0.950 . S
H2123 C2135 0.950 . S
C2124 H2116 0.950 . S
C2124 C2125 1.386 . S
C2124 C2126 1.391 . S
C2125 C2124 1.386 . S
C2125 C2129 1.393 . S
C2126 H2118 0.950 . S
C2126 C2124 1.391 . S
C2126 C2127 1.400 . S
C2127 C2126 1.400 . S
C2127 C2128 1.398 . S
C2127 C2133 1.491 . S
C2128 H2119 0.950 . S
C2128 C2127 1.398 . S
C2128 C2129 1.391 . S
C2129 H2117 0.950 . S
C2129 C2125 1.393 . S
C2129 C2128 1.391 . S
C2130 H2120 0.950 . S
C2130 C2131 1.386 . S
C2130 C2132 1.391 . S
C2131 C2130 1.386 . S
C2131 C2135 1.393 . S
C2132 H2121 0.950 . S
C2132 C2130 1.391 . S
C2132 C2133 1.400 . S
C2133 C2127 1.491 . S
C2133 C2132 1.400 . S
C2133 C2134 1.398 . S
C2134 H2122 0.950 . S
C2134 C2133 1.398 . S
C2134 C2135 1.391 . S
C2135 H2123 0.950 . S
C2135 C2131 1.393 . S
C2135 C2134 1.391 . S
H2136 C2144 0.950 . S
H2137 C2149 0.950 . S
H2138 C2146 0.950 . S
H2139 C2148 0.950 . S
H2140 C2150 0.950 . S
H2141 C2152 0.950 . S
H2142 C2154 0.950 . S
H2143 C2155 0.950 . S
C2144 H2136 0.950 . S
C2144 C2145 1.386 . S
C2144 C2146 1.391 . S
C2145 C2144 1.386 . S
C2145 C2149 1.393 . S
C2146 H2138 0.950 . S
C2146 C2144 1.391 . S
C2146 C2147 1.400 . S
C2147 C2146 1.400 . S
C2147 C2148 1.398 . S
C2147 C2153 1.491 . S
C2148 H2139 0.950 . S
C2148 C2147 1.398 . S
C2148 C2149 1.391 . S
C2149 H2137 0.950 . S
C2149 C2145 1.393 . S
C2149 C2148 1.391 . S
C2150 H2140 0.950 . S
C2150 C2151 1.386 . S
C2150 C2152 1.391 . S
C2151 C2150 1.386 . S
C2151 C2155 1.393 . S
C2152 H2141 0.950 . S
C2152 C2150 1.391 . S
C2152 C2153 1.400 . S
C2153 C2147 1.491 . S
C2153 C2152 1.400 . S
C2153 C2154 1.398 . S
C2154 H2142 0.950 . S
C2154 C2153 1.398 . S
C2154 C2155 1.391 . S
C2155 H2143 0.950 . S
C2155 C2151 1.393 . S
C2155 C2154 1.391 . S
H2156 C2164 0.950 . S
H2157 C2169 0.950 . S
H2158 C2166 0.950 . S
H2159 C2168 0.950 . S
H2160 C2170 0.950 . S
H2161 C2172 0.950 . S
H2162 C2174 0.950 . S
H2163 C2175 0.950 . S
C2164 H2156 0.950 . S
C2164 C2165 1.386 . S
C2164 C2166 1.391 . S
C2165 C2164 1.386 . S
C2165 C2169 1.393 . S
C2166 H2158 0.950 . S
C2166 C2164 1.391 . S
C2166 C2167 1.400 . S
C2167 C2166 1.400 . S
C2167 C2168 1.398 . S
C2167 C2173 1.491 . S
C2168 H2159 0.950 . S
C2168 C2167 1.398 . S
C2168 C2169 1.391 . S
C2169 H2157 0.950 . S
C2169 C2165 1.393 . S
C2169 C2168 1.391 . S
C2170 H2160 0.950 . S
C2170 C2171 1.386 . S
C2170 C2172 1.391 . S
C2171 C2170 1.386 . S
C2171 C2175 1.393 . S
C2172 H2161 0.950 . S
C2172 C2170 1.391 . S
C2172 C2173 1.400 . S
C2173 C2167 1.491 . S
C2173 C2172 1.400 . S
C2173 C2174 1.398 . S
C2174 H2162 0.950 . S
C2174 C2173 1.398 . S
C2174 C2175 1.391 . S
C2175 H2163 0.950 . S
C2175 C2171 1.393 . S
C2175 C2174 1.391 . S
H2176 C2184 0.950 . S
H2177 C2189 0.950 . S
H2178 C2186 0.950 . S
H2179 C2188 0.950 . S
H2180 C2190 0.950 . S
H2181 C2192 0.950 . S
H2182 C2194 0.950 . S
H2183 C2195 0.950 . S
C2184 H2176 0.950 . S
C2184 C2185 1.386 . S
C2184 C2186 1.391 . S
C2185 C2184 1.386 . S
C2185 C2189 1.393 . S
C2186 H2178 0.950 . S
C2186 C2184 1.391 . S
C2186 C2187 1.400 . S
C2187 C2186 1.400 . S
C2187 C2188 1.398 . S
C2187 C2193 1.491 . S
C2188 H2179 0.950 . S
C2188 C2187 1.398 . S
C2188 C2189 1.391 . S
C2189 H2177 0.950 . S
C2189 C2185 1.393 . S
C2189 C2188 1.391 . S
C2190 H2180 0.950 . S
C2190 C2191 1.386 . S
C2190 C2192 1.391 . S
C2191 C2190 1.386 . S
C2191 C2195 1.393 . S
C2192 H2181 0.950 . S
C2192 C2190 1.391 . S
C2192 C2193 1.400 . S
C2193 C2187 1.491 . S
C2193 C2192 1.400 . S
C2193 C2194 1.398 . S
C2194 H2182 0.950 . S
C2194 C2193 1.398 . S
C2194 C2195 1.391 . S
C2195 H2183 0.950 . S
C2195 C2191 1.393 . S
C2195 C2194 1.391 . S
H2196 C2204 0.950 . S
H2197 C2209 0.950 . S
H2198 C2206 0.950 . S
H2199 C2208 0.950 . S
H2200 C2210 0.950 . S
H2201 C2212 0.950 . S
H2202 C2214 0.950 . S
H2203 C2215 0.950 . S
C2204 H2196 0.950 . S
C2204 C2205 1.386 . S
C2204 C2206 1.391 . S
C2205 C2204 1.386 . S
C2205 C2209 1.393 . S
C2206 H2198 0.950 . S
C2206 C2204 1.391 . S
C2206 C2207 1.400 . S
C2207 C2206 1.400 . S
C2207 C2208 1.398 . S
C2207 C2213 1.491 . S
C2208 H2199 0.950 . S
C2208 C2207 1.398 . S
C2208 C2209 1.391 . S
C2209 H2197 0.950 . S
C2209 C2205 1.393 . S
C2209 C2208 1.391 . S
C2210 H2200 0.950 . S
C2210 C2211 1.386 . S
C2210 C2212 1.391 . S
C2211 C2210 1.386 . S
C2211 C2215 1.393 . S
C2212 H2201 0.950 . S
C2212 C2210 1.391 . S
C2212 C2213 1.400 . S
C2213 C2207 1.491 . S
C2213 C2212 1.400 . S
C2213 C2214 1.398 . S
C2214 H2202 0.950 . S
C2214 C2213 1.398 . S
C2214 C2215 1.391 . S
C2215 H2203 0.950 . S
C2215 C2211 1.393 . S
C2215 C2214 1.391 . S
H2216 C2224 0.950 . S
H2217 C2229 0.950 . S
H2218 C2226 0.950 . S
H2219 C2228 0.950 . S
H2220 C2230 0.950 . S
H2221 C2232 0.950 . S
H2222 C2234 0.950 . S
H2223 C2235 0.950 . S
C2224 H2216 0.950 . S
C2224 C2225 1.386 . S
C2224 C2226 1.391 . S
C2225 C2224 1.386 . S
C2225 C2229 1.393 . S
C2226 H2218 0.950 . S
C2226 C2224 1.391 . S
C2226 C2227 1.400 . S
C2227 C2226 1.400 . S
C2227 C2228 1.398 . S
C2227 C2233 1.491 . S
C2228 H2219 0.950 . S
C2228 C2227 1.398 . S
C2228 C2229 1.391 . S
C2229 H2217 0.950 . S
C2229 C2225 1.393 . S
C2229 C2228 1.391 . S
C2230 H2220 0.950 . S
C2230 C2231 1.386 . S
C2230 C2232 1.391 . S
C2231 C2230 1.386 . S
C2231 C2235 1.393 . S
C2232 H2221 0.950 . S
C2232 C2230 1.391 . S
C2232 C2233 1.400 . S
C2233 C2227 1.491 . S
C2233 C2232 1.400 . S
C2233 C2234 1.398 . S
C2234 H2222 0.950 . S
C2234 C2233 1.398 . S
C2234 C2235 1.391 . S
C2235 H2223 0.950 . S
C2235 C2231 1.393 . S
C2235 C2234 1.391 . S
H2236 C2244 0.950 . S
H2237 C2249 0.950 . S
H2238 C2246 0.950 . S
H2239 C2248 0.950 . S
H2240 C2250 0.950 . S
H2241 C2252 0.950 . S
H2242 C2254 0.950 . S
H2243 C2255 0.950 . S
C2244 H2236 0.950 . S
C2244 C2245 1.386 . S
C2244 C2246 1.391 . S
C2245 C2244 1.386 . S
C2245 C2249 1.393 . S
C2246 H2238 0.950 . S
C2246 C2244 1.391 . S
C2246 C2247 1.400 . S
C2247 C2246 1.400 . S
C2247 C2248 1.398 . S
C2247 C2253 1.491 . S
C2248 H2239 0.950 . S
C2248 C2247 1.398 . S
C2248 C2249 1.391 . S
C2249 H2237 0.950 . S
C2249 C2245 1.393 . S
C2249 C2248 1.391 . S
C2250 H2240 0.950 . S
C2250 C2251 1.386 . S
C2250 C2252 1.391 . S
C2251 C2250 1.386 . S
C2251 C2255 1.393 . S
C2252 H2241 0.950 . S
C2252 C2250 1.391 . S
C2252 C2253 1.400 . S
C2253 C2247 1.491 . S
C2253 C2252 1.400 . S
C2253 C2254 1.398 . S
C2254 H2242 0.950 . S
C2254 C2253 1.398 . S
C2254 C2255 1.391 . S
C2255 H2243 0.950 . S
C2255 C2251 1.393 . S
C2255 C2254 1.391 . S
H2256 C2264 0.950 . S
H2257 C2269 0.950 . S
H2258 C2266 0.950 . S
H2259 C2268 0.950 . S
H2260 C2270 0.950 . S
H2261 C2272 0.950 . S
H2262 C2274 0.950 . S
H2263 C2275 0.950 . S
C2264 H2256 0.950 . S
C2264 C2265 1.386 . S
C2264 C2266 1.391 . S
C2265 C2264 1.386 . S
C2265 C2269 1.393 . S
C2266 H2258 0.950 . S
C2266 C2264 1.391 . S
C2266 C2267 1.400 . S
C2267 C2266 1.400 . S
C2267 C2268 1.398 . S
C2267 C2273 1.491 . S
C2268 H2259 0.950 . S
C2268 C2267 1.398 . S
C2268 C2269 1.391 . S
C2269 H2257 0.950 . S
C2269 C2265 1.393 . S
C2269 C2268 1.391 . S
C2270 H2260 0.950 . S
C2270 C2271 1.386 . S
C2270 C2272 1.391 . S
C2271 C2270 1.386 . S
C2271 C2275 1.393 . S
C2272 H2261 0.950 . S
C2272 C2270 1.391 . S
C2272 C2273 1.400 . S
C2273 C2267 1.491 . S
C2273 C2272 1.400 . S
C2273 C2274 1.398 . S
C2274 H2262 0.950 . S
C2274 C2273 1.398 . S
C2274 C2275 1.391 . S
C2275 H2263 0.950 . S
C2275 C2271 1.393 . S
C2275 C2274 1.391 . S
H2276 C2284 0.950 . S
H2277 C2289 0.950 . S
H2278 C2286 0.950 . S
H2279 C2288 0.950 . S
H2280 C2290 0.950 . S
H2281 C2292 0.950 . S
H2282 C2294 0.950 . S
H2283 C2295 0.950 . S
C2284 H2276 0.950 . S
C2284 C2285 1.386 . S
C2284 C2286 1.391 . S
C2285 C2284 1.386 . S
C2285 C2289 1.393 . S
C2286 H2278 0.950 . S
C2286 C2284 1.391 . S
C2286 C2287 1.400 . S
C2287 C2286 1.400 . S
C2287 C2288 1.398 . S
C2287 C2293 1.491 . S
C2288 H2279 0.950 . S
C2288 C2287 1.398 . S
C2288 C2289 1.391 . S
C2289 H2277 0.950 . S
C2289 C2285 1.393 . S
C2289 C2288 1.391 . S
C2290 H2280 0.950 . S
C2290 C2291 1.386 . S
C2290 C2292 1.391 . S
C2291 C2290 1.386 . S
C2291 C2295 1.393 . S
C2292 H2281 0.950 . S
C2292 C2290 1.391 . S
C2292 C2293 1.400 . S
C2293 C2287 1.491 . S
C2293 C2292 1.400 . S
C2293 C2294 1.398 . S
C2294 H2282 0.950 . S
C2294 C2293 1.398 . S
C2294 C2295 1.391 . S
C2295 H2283 0.950 . S
C2295 C2291 1.393 . S
C2295 C2294 1.391 . S
H2296 C2304 0.950 . S
H2297 C2309 0.950 . S
H2298 C2306 0.950 . S
H2299 C2308 0.950 . S
H2300 C2310 0.950 . S
H2301 C2312 0.950 . S
H2302 C2314 0.950 . S
H2303 C2315 0.950 . S
C2304 H2296 0.950 . S
C2304 C2305 1.386 . S
C2304 C2306 1.391 . S
C2305 C2304 1.386 . S
C2305 C2309 1.393 . S
C2306 H2298 0.950 . S
C2306 C2304 1.391 . S
C2306 C2307 1.400 . S
C2307 C2306 1.400 . S
C2307 C2308 1.398 . S
C2307 C2313 1.491 . S
C2308 H2299 0.950 . S
C2308 C2307 1.398 . S
C2308 C2309 1.391 . S
C2309 H2297 0.950 . S
C2309 C2305 1.393 . S
C2309 C2308 1.391 . S
C2310 H2300 0.950 . S
C2310 C2311 1.386 . S
C2310 C2312 1.391 . S
C2311 C2310 1.386 . S
C2311 C2315 1.393 . S
C2312 H2301 0.950 . S
C2312 C2310 1.391 . S
C2312 C2313 1.400 . S
C2313 C2307 1.491 . S
C2313 C2312 1.400 . S
C2313 C2314 1.398 . S
C2314 H2302 0.950 . S
C2314 C2313 1.398 . S
C2314 C2315 1.391 . S
C2315 H2303 0.950 . S
C2315 C2311 1.393 . S
C2315 C2314 1.391 . S
H2316 C2324 0.950 . S
H2317 C2329 0.950 . S
H2318 C2326 0.950 . S
H2319 C2328 0.950 . S
H2320 C2330 0.950 . S
H2321 C2332 0.950 . S
H2322 C2334 0.950 . S
H2323 C2335 0.950 . S
C2324 H2316 0.950 . S
C2324 C2325 1.386 . S
C2324 C2326 1.391 . S
C2325 C2324 1.386 . S
C2325 C2329 1.393 . S
C2326 H2318 0.950 . S
C2326 C2324 1.391 . S
C2326 C2327 1.400 . S
C2327 C2326 1.400 . S
C2327 C2328 1.398 . S
C2327 C2333 1.491 . S
C2328 H2319 0.950 . S
C2328 C2327 1.398 . S
C2328 C2329 1.391 . S
C2329 H2317 0.950 . S
C2329 C2325 1.393 . S
C2329 C2328 1.391 . S
C2330 H2320 0.950 . S
C2330 C2331 1.386 . S
C2330 C2332 1.391 . S
C2331 C2330 1.386 . S
C2331 C2335 1.393 . S
C2332 H2321 0.950 . S
C2332 C2330 1.391 . S
C2332 C2333 1.400 . S
C2333 C2327 1.491 . S
C2333 C2332 1.400 . S
C2333 C2334 1.398 . S
C2334 H2322 0.950 . S
C2334 C2333 1.398 . S
C2334 C2335 1.391 . S
C2335 H2323 0.950 . S
C2335 C2331 1.393 . S
C2335 C2334 1.391 . S
H2336 C2344 0.950 . S
H2337 C2349 0.950 . S
H2338 C2346 0.950 . S
H2339 C2348 0.950 . S
H2340 C2350 0.950 . S
H2341 C2352 0.950 . S
H2342 C2354 0.950 . S
H2343 C2355 0.950 . S
C2344 H2336 0.950 . S
C2344 C2345 1.386 . S
C2344 C2346 1.391 . S
C2345 C2344 1.386 . S
C2345 C2349 1.393 . S
C2346 H2338 0.950 . S
C2346 C2344 1.391 . S
C2346 C2347 1.400 . S
C2347 C2346 1.400 . S
C2347 C2348 1.398 . S
C2347 C2353 1.491 . S
C2348 H2339 0.950 . S
C2348 C2347 1.398 . S
C2348 C2349 1.391 . S
C2349 H2337 0.950 . S
C2349 C2345 1.393 . S
C2349 C2348 1.391 . S
C2350 H2340 0.950 . S
C2350 C2351 1.386 . S
C2350 C2352 1.391 . S
C2351 C2350 1.386 . S
C2351 C2355 1.393 . S
C2352 H2341 0.950 . S
C2352 C2350 1.391 . S
C2352 C2353 1.400 . S
C2353 C2347 1.491 . S
C2353 C2352 1.400 . S
C2353 C2354 1.398 . S
C2354 H2342 0.950 . S
C2354 C2353 1.398 . S
C2354 C2355 1.391 . S
C2355 H2343 0.950 . S
C2355 C2351 1.393 . S
C2355 C2354 1.391 . S
H2356 C2364 0.950 . S
H2357 C2369 0.950 . S
H2358 C2366 0.950 . S
H2359 C2368 0.950 . S
H2360 C2370 0.950 . S
H2361 C2372 0.950 . S
H2362 C2374 0.950 . S
H2363 C2375 0.950 . S
C2364 H2356 0.950 . S
C2364 C2365 1.386 . S
C2364 C2366 1.391 . S
C2365 C2364 1.386 . S
C2365 C2369 1.393 . S
C2366 H2358 0.950 . S
C2366 C2364 1.391 . S
C2366 C2367 1.400 . S
C2367 C2366 1.400 . S
C2367 C2368 1.398 . S
C2367 C2373 1.491 . S
C2368 H2359 0.950 . S
C2368 C2367 1.398 . S
C2368 C2369 1.391 . S
C2369 H2357 0.950 . S
C2369 C2365 1.393 . S
C2369 C2368 1.391 . S
C2370 H2360 0.950 . S
C2370 C2371 1.386 . S
C2370 C2372 1.391 . S
C2371 C2370 1.386 . S
C2371 C2375 1.393 . S
C2372 H2361 0.950 . S
C2372 C2370 1.391 . S
C2372 C2373 1.400 . S
C2373 C2367 1.491 . S
C2373 C2372 1.400 . S
C2373 C2374 1.398 . S
C2374 H2362 0.950 . S
C2374 C2373 1.398 . S
C2374 C2375 1.391 . S
C2375 H2363 0.950 . S
C2375 C2371 1.393 . S
C2375 C2374 1.391 . S
C1425 C829 1.387 . S
C1431 C5 1.395 . S
C1445 C62 1.369 . S
C1451 C890 1.387 . S
C1465 C1114 1.548 . S
C1471 C170 1.547 . S
C1485 C210 1.866 . S
C1491 C800 1.866 . S
C1505 C859 1.868 . S
C1511 C288 1.860 . S
C1525 C328 1.557 . S
C1531 C937 1.552 . S
C1545 C359 1.385 . S
C1551 C1067 1.388 . S
C1565 C416 1.390 . S
C1571 C770 1.376 . S
C1585 C536 1.391 . S
C1591 C475 1.391 . S
C1605 C623 1.866 . S
C1611 C583 1.858 . S
C1625 C593 1.384 . S
C1631 C654 1.394 . S
C1645 C701 1.544 . S
C1651 C505 1.554 . S
C1665 C713 1.391 . S
C1671 C180 1.381 . S
C1685 C241 1.391 . S
C1691 C949 1.392 . S
C1705 C1036 1.868 . S
C1711 C92 1.868 . S
C1725 C64 1.756 . S
C1731 C1291 1.750 . S
C1745 C534 1.758 . S
C1751 C33 1.761 . S
C1765 C1409 1.892 . S
C1771 C229 1.887 . S
C1785 C652 1.277 . S
C1791 C121 1.282 . S
C1805 C1244 1.275 . S
C1811 C418 1.276 . S
C1825 C564 1.895 . S
C1831 C387 1.897 . S
C1845 C347 1.752 . S
C1851 C1362 1.756 . S
C1865 C239 1.755 . S
C1871 C682 1.758 . S
C1885 C918 1.757 . S
C1891 C1126 1.756 . S
C1905 C947 1.271 . S
C1911 C888 1.279 . S
C1925 C772 1.756 . S
C1931 C977 1.758 . S
C1945 C1173 1.892 . S
C1951 C819 1.889 . S
C1965 C151 1.760 . S
C1971 C1183 1.758 . S
C1985 C595 1.757 . S
C1991 C465 1.757 . S
C2005 C3 1.282 . S
C2011 C1301 1.274 . S
C2025 C1124 1.381 . S
C2031 C123 1.393 . S
C2045 C52 1.548 . S
C2051 C996 1.548 . S
C2065 C1154 1.868 . S
C2071 C406 1.859 . S
C2085 C760 1.553 . S
C2091 C446 1.559 . S
C2105 C298 1.389 . S
C2111 C1006 1.375 . S
C2125 C1242 1.386 . S
C2131 C1185 1.385 . S
C2145 C1390 1.869 . S
C2151 C1232 1.864 . S
C2165 C1303 1.390 . S
C2171 C1360 1.373 . S
C2185 C1272 1.556 . S
C2191 C1350 1.548 . S
C2205 C524 1.756 . S
C2211 C182 1.754 . S
C2225 C111 1.885 . S
C2231 C642 1.892 . S
C2245 C300 1.276 . S
C2251 C477 1.276 . S
C2265 C1213 1.898 . S
C2271 C269 1.895 . S
C2285 C357 1.753 . S
C2291 C1331 1.759 . S
C2305 C741 1.754 . S
C2311 C831 1.754 . S
C2325 C1065 1.280 . S
C2331 C711 1.272 . S
C2345 C1008 1.758 . S
C2351 C1095 1.758 . S
C2365 C878 1.895 . S
C2371 C1055 1.888 . S
