# Generated by pormake.
# Topology zni, (4)-cn, num edge types: 1
# Building blocks:
#     Node 0, Type 0, BuildingBlock: GALJAG_clean_sbu_0, # of connection points: 4
#     Node 1, Type 0, BuildingBlock: GALJAG_clean_sbu_0, # of connection points: 4
#     Node 2, Type 0, BuildingBlock: GALJAG_clean_sbu_0, # of connection points: 4
#     Node 3, Type 0, BuildingBlock: GALJAG_clean_sbu_0, # of connection points: 4
#     Node 4, Type 0, BuildingBlock: GALJAG_clean_sbu_0, # of connection points: 4
#     Node 5, Type 0, BuildingBlock: GALJAG_clean_sbu_0, # of connection points: 4
#     Node 6, Type 0, BuildingBlock: GALJAG_clean_sbu_0, # of connection points: 4
#     Node 7, Type 0, BuildingBlock: GALJAG_clean_sbu_0, # of connection points: 4
#     Node 8, Type 0, BuildingBlock: GALJAG_clean_sbu_0, # of connection points: 4
#     Node 9, Type 0, BuildingBlock: GALJAG_clean_sbu_0, # of connection points: 4
#     Node 10, Type 0, BuildingBlock: GALJAG_clean_sbu_0, # of connection points: 4
#     Node 11, Type 0, BuildingBlock: GALJAG_clean_sbu_0, # of connection points: 4
#     Node 12, Type 0, BuildingBlock: GALJAG_clean_sbu_0, # of connection points: 4
#     Node 13, Type 0, BuildingBlock: GALJAG_clean_sbu_0, # of connection points: 4
#     Node 14, Type 0, BuildingBlock: GALJAG_clean_sbu_0, # of connection points: 4
#     Node 15, Type 0, BuildingBlock: GALJAG_clean_sbu_0, # of connection points: 4
#     Node 16, Type 0, BuildingBlock: GALJAG_clean_sbu_0, # of connection points: 4
#     Node 17, Type 0, BuildingBlock: GALJAG_clean_sbu_0, # of connection points: 4
#     Node 18, Type 0, BuildingBlock: GALJAG_clean_sbu_0, # of connection points: 4
#     Node 19, Type 0, BuildingBlock: GALJAG_clean_sbu_0, # of connection points: 4
#     Node 20, Type 0, BuildingBlock: GALJAG_clean_sbu_0, # of connection points: 4
#     Node 21, Type 0, BuildingBlock: GALJAG_clean_sbu_0, # of connection points: 4
#     Node 22, Type 0, BuildingBlock: GALJAG_clean_sbu_0, # of connection points: 4
#     Node 23, Type 0, BuildingBlock: GALJAG_clean_sbu_0, # of connection points: 4
#     Node 24, Type 0, BuildingBlock: GALJAG_clean_sbu_0, # of connection points: 4
#     Node 25, Type 0, BuildingBlock: GALJAG_clean_sbu_0, # of connection points: 4
#     Node 26, Type 0, BuildingBlock: GALJAG_clean_sbu_0, # of connection points: 4
#     Node 27, Type 0, BuildingBlock: GALJAG_clean_sbu_0, # of connection points: 4
#     Node 28, Type 0, BuildingBlock: GALJAG_clean_sbu_0, # of connection points: 4
#     Node 29, Type 0, BuildingBlock: GALJAG_clean_sbu_0, # of connection points: 4
#     Node 30, Type 0, BuildingBlock: GALJAG_clean_sbu_0, # of connection points: 4
#     Node 31, Type 0, BuildingBlock: GALJAG_clean_sbu_0, # of connection points: 4
#     Edge 32, Type (0, 0), BuildingBlock: XUDNAN_clean_linker_2, # of connection points: 2
#     Edge 33, Type (0, 0), BuildingBlock: XUDNAN_clean_linker_2, # of connection points: 2
#     Edge 34, Type (0, 0), BuildingBlock: XUDNAN_clean_linker_2, # of connection points: 2
#     Edge 35, Type (0, 0), BuildingBlock: XUDNAN_clean_linker_2, # of connection points: 2
#     Edge 36, Type (0, 0), BuildingBlock: XUDNAN_clean_linker_2, # of connection points: 2
#     Edge 37, Type (0, 0), BuildingBlock: XUDNAN_clean_linker_2, # of connection points: 2
#     Edge 38, Type (0, 0), BuildingBlock: XUDNAN_clean_linker_2, # of connection points: 2
#     Edge 39, Type (0, 0), BuildingBlock: XUDNAN_clean_linker_2, # of connection points: 2
#     Edge 40, Type (0, 0), BuildingBlock: XUDNAN_clean_linker_2, # of connection points: 2
#     Edge 41, Type (0, 0), BuildingBlock: XUDNAN_clean_linker_2, # of connection points: 2
#     Edge 42, Type (0, 0), BuildingBlock: XUDNAN_clean_linker_2, # of connection points: 2
#     Edge 43, Type (0, 0), BuildingBlock: XUDNAN_clean_linker_2, # of connection points: 2
#     Edge 44, Type (0, 0), BuildingBlock: XUDNAN_clean_linker_2, # of connection points: 2
#     Edge 45, Type (0, 0), BuildingBlock: XUDNAN_clean_linker_2, # of connection points: 2
#     Edge 46, Type (0, 0), BuildingBlock: XUDNAN_clean_linker_2, # of connection points: 2
#     Edge 47, Type (0, 0), BuildingBlock: XUDNAN_clean_linker_2, # of connection points: 2
#     Edge 48, Type (0, 0), BuildingBlock: XUDNAN_clean_linker_2, # of connection points: 2
#     Edge 49, Type (0, 0), BuildingBlock: XUDNAN_clean_linker_2, # of connection points: 2
#     Edge 50, Type (0, 0), BuildingBlock: XUDNAN_clean_linker_2, # of connection points: 2
#     Edge 51, Type (0, 0), BuildingBlock: XUDNAN_clean_linker_2, # of connection points: 2
#     Edge 52, Type (0, 0), BuildingBlock: XUDNAN_clean_linker_2, # of connection points: 2
#     Edge 53, Type (0, 0), BuildingBlock: XUDNAN_clean_linker_2, # of connection points: 2
#     Edge 54, Type (0, 0), BuildingBlock: XUDNAN_clean_linker_2, # of connection points: 2
#     Edge 55, Type (0, 0), BuildingBlock: XUDNAN_clean_linker_2, # of connection points: 2
#     Edge 56, Type (0, 0), BuildingBlock: XUDNAN_clean_linker_2, # of connection points: 2
#     Edge 57, Type (0, 0), BuildingBlock: XUDNAN_clean_linker_2, # of connection points: 2
#     Edge 58, Type (0, 0), BuildingBlock: XUDNAN_clean_linker_2, # of connection points: 2
#     Edge 59, Type (0, 0), BuildingBlock: XUDNAN_clean_linker_2, # of connection points: 2
#     Edge 60, Type (0, 0), BuildingBlock: XUDNAN_clean_linker_2, # of connection points: 2
#     Edge 61, Type (0, 0), BuildingBlock: XUDNAN_clean_linker_2, # of connection points: 2
#     Edge 62, Type (0, 0), BuildingBlock: XUDNAN_clean_linker_2, # of connection points: 2
#     Edge 63, Type (0, 0), BuildingBlock: XUDNAN_clean_linker_2, # of connection points: 2
#     Edge 64, Type (0, 0), BuildingBlock: XUDNAN_clean_linker_2, # of connection points: 2
#     Edge 65, Type (0, 0), BuildingBlock: XUDNAN_clean_linker_2, # of connection points: 2
#     Edge 66, Type (0, 0), BuildingBlock: XUDNAN_clean_linker_2, # of connection points: 2
#     Edge 67, Type (0, 0), BuildingBlock: XUDNAN_clean_linker_2, # of connection points: 2
#     Edge 68, Type (0, 0), BuildingBlock: XUDNAN_clean_linker_2, # of connection points: 2
#     Edge 69, Type (0, 0), BuildingBlock: XUDNAN_clean_linker_2, # of connection points: 2
#     Edge 70, Type (0, 0), BuildingBlock: XUDNAN_clean_linker_2, # of connection points: 2
#     Edge 71, Type (0, 0), BuildingBlock: XUDNAN_clean_linker_2, # of connection points: 2
#     Edge 72, Type (0, 0), BuildingBlock: XUDNAN_clean_linker_2, # of connection points: 2
#     Edge 73, Type (0, 0), BuildingBlock: XUDNAN_clean_linker_2, # of connection points: 2
#     Edge 74, Type (0, 0), BuildingBlock: XUDNAN_clean_linker_2, # of connection points: 2
#     Edge 75, Type (0, 0), BuildingBlock: XUDNAN_clean_linker_2, # of connection points: 2
#     Edge 76, Type (0, 0), BuildingBlock: XUDNAN_clean_linker_2, # of connection points: 2
#     Edge 77, Type (0, 0), BuildingBlock: XUDNAN_clean_linker_2, # of connection points: 2
#     Edge 78, Type (0, 0), BuildingBlock: XUDNAN_clean_linker_2, # of connection points: 2
#     Edge 79, Type (0, 0), BuildingBlock: XUDNAN_clean_linker_2, # of connection points: 2
#     Edge 80, Type (0, 0), BuildingBlock: XUDNAN_clean_linker_2, # of connection points: 2
#     Edge 81, Type (0, 0), BuildingBlock: XUDNAN_clean_linker_2, # of connection points: 2
#     Edge 82, Type (0, 0), BuildingBlock: XUDNAN_clean_linker_2, # of connection points: 2
#     Edge 83, Type (0, 0), BuildingBlock: XUDNAN_clean_linker_2, # of connection points: 2
#     Edge 84, Type (0, 0), BuildingBlock: XUDNAN_clean_linker_2, # of connection points: 2
#     Edge 85, Type (0, 0), BuildingBlock: XUDNAN_clean_linker_2, # of connection points: 2
#     Edge 86, Type (0, 0), BuildingBlock: XUDNAN_clean_linker_2, # of connection points: 2
#     Edge 87, Type (0, 0), BuildingBlock: XUDNAN_clean_linker_2, # of connection points: 2
#     Edge 88, Type (0, 0), BuildingBlock: XUDNAN_clean_linker_2, # of connection points: 2
#     Edge 89, Type (0, 0), BuildingBlock: XUDNAN_clean_linker_2, # of connection points: 2
#     Edge 90, Type (0, 0), BuildingBlock: XUDNAN_clean_linker_2, # of connection points: 2
#     Edge 91, Type (0, 0), BuildingBlock: XUDNAN_clean_linker_2, # of connection points: 2
#     Edge 92, Type (0, 0), BuildingBlock: XUDNAN_clean_linker_2, # of connection points: 2
#     Edge 93, Type (0, 0), BuildingBlock: XUDNAN_clean_linker_2, # of connection points: 2
#     Edge 94, Type (0, 0), BuildingBlock: XUDNAN_clean_linker_2, # of connection points: 2
#     Edge 95, Type (0, 0), BuildingBlock: XUDNAN_clean_linker_2, # of connection points: 2
# Relax obj value: 0.235
# Max RMSD: 0.125
# Mean RMSD: 0.125
data_MOF--net-zni--node1-GALJAG_clean_sbu_0--edge1-XUDNAN_clean_linker_2
_symmetry_space_group_name_H-M    P1
_symmetry_Int_Tables_number       1
_symmetry_cell_setting            triclinic
loop_
_symmetry_equiv_pos_as_xyz
'x, y, z'
_cell_length_a     58.632493
_cell_length_b     58.621438
_cell_length_c     30.382536
_cell_angle_alpha  90.023825
_cell_angle_beta   90.01446
_cell_angle_gamma 90.007078
loop_
_atom_site_label
_atom_site_type_symbol
_atom_site_fract_x
_atom_site_fract_y
_atom_site_fract_z
_atom_type_partial_charge
In0 In 0.11131 0.08963 0.40002 0.0
O1 O 0.12568 0.06895 0.3427 0.0
O2 O 0.11333 0.05093 0.39855 0.0
C3 C 0.1257 0.13221 0.38074 0.0
C4 C 0.06636 0.09253 0.38146 0.0
C5 C 0.13158 0.08493 0.47872 0.0
O6 O 0.13362 0.11478 0.36161 0.0
O7 O 0.11058 0.12808 0.40918 0.0
O8 O 0.11021 0.0835 0.47391 0.0
O9 O 0.14263 0.08856 0.44378 0.0
C10 C 0.12212 0.04988 0.36075 0.0
O11 O 0.07357 0.09055 0.42044 0.0
O12 O 0.08173 0.09286 0.35248 0.0
In13 In 0.14746 0.85565 0.66027 0.0
O14 O 0.15391 0.85958 0.58618 0.0
O15 O 0.18194 0.86319 0.62969 0.0
C16 C 0.10379 0.86975 0.66519 0.0
C17 C 0.14691 0.8096 0.66731 0.0
C18 C 0.16241 0.88147 0.72737 0.0
O19 O 0.11547 0.87216 0.63049 0.0
O20 O 0.11408 0.86015 0.69658 0.0
O21 O 0.16288 0.85993 0.72805 0.0
O22 O 0.15488 0.89009 0.69213 0.0
C23 C 0.17504 0.86296 0.5905 0.0
O24 O 0.16275 0.82165 0.68285 0.0
O25 O 0.13144 0.8207 0.64818 0.0
In26 In 0.40376 0.90162 0.90603 0.0
O27 O 0.43685 0.89667 0.94407 0.0
O28 O 0.4393 0.89861 0.87463 0.0
C29 C 0.38179 0.90911 0.98223 0.0
C30 C 0.39413 0.94033 0.86141 0.0
C31 C 0.387 0.86062 0.88167 0.0
O32 O 0.40091 0.91791 0.97355 0.0
O33 O 0.37364 0.89652 0.95239 0.0
O34 O 0.38065 0.87892 0.8634 0.0
O35 O 0.40178 0.86314 0.91141 0.0
C36 C 0.44957 0.89607 0.91077 0.0
O37 O 0.39863 0.92191 0.84167 0.0
O38 O 0.39461 0.939 0.90266 0.0
In39 In 0.3377 0.14946 0.16333 0.0
O40 O 0.32061 0.13047 0.10583 0.0
O41 O 0.29962 0.14474 0.15579 0.0
C42 C 0.38153 0.13562 0.16214 0.0
C43 C 0.34237 0.19327 0.13714 0.0
C44 C 0.3276 0.13452 0.24425 0.0
O45 O 0.36729 0.12845 0.13405 0.0
O46 O 0.37364 0.14958 0.18975 0.0
O47 O 0.32328 0.15468 0.23197 0.0
O48 O 0.33667 0.12186 0.21546 0.0
C49 C 0.30066 0.13379 0.12024 0.0
O50 O 0.33811 0.18798 0.17652 0.0
O51 O 0.3438 0.17658 0.11119 0.0
In52 In 0.1057 0.89624 0.08789 0.0
O53 O 0.07119 0.90517 0.05712 0.0
O54 O 0.07123 0.88919 0.11972 0.0
C55 C 0.13142 0.91159 0.02095 0.0
C56 C 0.11848 0.9228 0.15618 0.0
C57 C 0.11336 0.85116 0.0787 0.0
O58 O 0.11158 0.919 0.0284 0.0
O59 O 0.13848 0.8968 0.04789 0.0
O60 O 0.12152 0.8625 0.11041 0.0
O61 O 0.10149 0.86258 0.05199 0.0
C62 C 0.05959 0.89719 0.08845 0.0
O63 O 0.11373 0.93058 0.11869 0.0
O64 O 0.11699 0.9014 0.15946 0.0
In65 In 0.34551 0.8476 0.34896 0.0
O66 O 0.32398 0.8539 0.41075 0.0
O67 O 0.30677 0.84911 0.35008 0.0
C68 C 0.38622 0.86449 0.37484 0.0
C69 C 0.35202 0.80196 0.34375 0.0
C70 C 0.34033 0.87335 0.27651 0.0
O71 O 0.36807 0.86816 0.39608 0.0
O72 O 0.38384 0.85194 0.34142 0.0
O73 O 0.33809 0.85195 0.27633 0.0
O74 O 0.34486 0.88193 0.31361 0.0
C75 C 0.30516 0.85294 0.39069 0.0
O76 O 0.34774 0.81428 0.31085 0.0
O77 O 0.35299 0.8126 0.37981 0.0
In78 In 0.39375 0.10859 0.61334 0.0
O79 O 0.42612 0.09708 0.57795 0.0
O80 O 0.43002 0.11822 0.63403 0.0
C81 C 0.36569 0.10344 0.54371 0.0
C82 C 0.38597 0.07519 0.67292 0.0
C83 C 0.38375 0.15241 0.6318 0.0
O84 O 0.38684 0.09981 0.54181 0.0
O85 O 0.35845 0.10918 0.58117 0.0
O86 O 0.37754 0.13598 0.65583 0.0
O87 O 0.39513 0.14677 0.59821 0.0
C88 C 0.43961 0.10735 0.60342 0.0
O89 O 0.38726 0.09596 0.683 0.0
O90 O 0.38838 0.0711 0.6325 0.0
In91 In 0.14773 0.14716 0.84735 0.0
O92 O 0.15368 0.13457 0.91791 0.0
O93 O 0.18245 0.13882 0.87644 0.0
C94 C 0.10234 0.14116 0.83957 0.0
C95 C 0.15011 0.19324 0.84655 0.0
C96 C 0.16042 0.12088 0.77916 0.0
O97 O 0.11342 0.13322 0.87187 0.0
O98 O 0.11414 0.15211 0.81204 0.0
O99 O 0.16926 0.14012 0.78666 0.0
O100 O 0.14571 0.11455 0.80689 0.0
C101 C 0.17506 0.1333 0.91383 0.0
O102 O 0.15804 0.18105 0.81602 0.0
O103 O 0.14144 0.1822 0.87797 0.0
In104 In 0.89574 0.90219 0.62078 0.0
O105 O 0.93352 0.90353 0.60107 0.0
O106 O 0.92525 0.90259 0.66908 0.0
C107 C 0.87789 0.90129 0.53926 0.0
C108 C 0.88151 0.94213 0.65545 0.0
C109 C 0.88329 0.85969 0.64488 0.0
O110 O 0.89886 0.9048 0.54624 0.0
O111 O 0.86592 0.89879 0.57346 0.0
O112 O 0.87271 0.87715 0.65815 0.0
O113 O 0.90009 0.8638 0.62028 0.0
C114 C 0.94069 0.90309 0.64026 0.0
O115 O 0.88208 0.9239 0.67746 0.0
O116 O 0.88781 0.94017 0.61597 0.0
In117 In 0.85996 0.14278 0.36214 0.0
O118 O 0.85231 0.18087 0.35318 0.0
O119 O 0.86859 0.17035 0.41213 0.0
C120 C 0.85257 0.13097 0.27813 0.0
C121 C 0.82385 0.12558 0.40631 0.0
C122 C 0.90367 0.12828 0.3615 0.0
O123 O 0.8544 0.15152 0.29038 0.0
O124 O 0.85366 0.11632 0.30864 0.0
O125 O 0.88919 0.11963 0.3874 0.0
O126 O 0.89619 0.14414 0.33774 0.0
C127 C 0.86091 0.18665 0.38956 0.0
O128 O 0.84326 0.12746 0.42393 0.0
O129 O 0.82281 0.13209 0.36689 0.0
In130 In 0.58807 0.10302 0.09106 0.0
O131 O 0.6115 0.09079 0.14656 0.0
O132 O 0.59132 0.06614 0.11311 0.0
C133 C 0.5969 0.14813 0.08958 0.0
C134 C 0.54402 0.10493 0.11692 0.0
C135 C 0.60587 0.09144 0.01257 0.0
O136 O 0.60505 0.13521 0.11898 0.0
O137 O 0.58428 0.13831 0.06178 0.0
O138 O 0.5861 0.08529 0.02416 0.0
O139 O 0.6167 0.10288 0.04085 0.0
C140 C 0.6056 0.07012 0.14319 0.0
O141 O 0.54952 0.10057 0.07762 0.0
O142 O 0.56061 0.10815 0.14253 0.0
In143 In 0.65433 0.8486 0.84768 0.0
O144 O 0.66373 0.81483 0.81471 0.0
O145 O 0.64249 0.81362 0.87133 0.0
C146 C 0.65828 0.87366 0.77342 0.0
C147 C 0.69069 0.85915 0.89904 0.0
C148 C 0.61149 0.8579 0.87468 0.0
O149 O 0.65891 0.85217 0.77343 0.0
O150 O 0.65633 0.88256 0.81099 0.0
O151 O 0.62792 0.85563 0.90121 0.0
O152 O 0.61662 0.85512 0.83471 0.0
C153 C 0.65258 0.80265 0.84136 0.0
O154 O 0.6726 0.8707 0.89896 0.0
O155 O 0.69054 0.8424 0.8731 0.0
In156 In 0.89211 0.11754 0.87791 0.0
O157 O 0.87425 0.10322 0.81734 0.0
O158 O 0.88985 0.07973 0.86151 0.0
C159 C 0.87401 0.1593 0.86448 0.0
C160 C 0.93678 0.11842 0.85594 0.0
C161 C 0.87983 0.11205 0.96297 0.0
O162 O 0.86258 0.14133 0.85809 0.0
O163 O 0.89422 0.15601 0.87688 0.0
O164 O 0.89542 0.12542 0.95087 0.0
O165 O 0.87061 0.10089 0.93229 0.0
C166 C 0.87891 0.08268 0.82615 0.0
O167 O 0.92998 0.11081 0.89252 0.0
O168 O 0.92111 0.1251 0.83067 0.0
In169 In 0.64991 0.13396 0.63108 0.0
O170 O 0.65263 0.17158 0.65192 0.0
O171 O 0.64583 0.164 0.58483 0.0
C172 C 0.65233 0.1131 0.71011 0.0
C173 C 0.68663 0.11972 0.58474 0.0
C174 C 0.60596 0.12429 0.61284 0.0
O175 O 0.65734 0.13388 0.70503 0.0
O176 O 0.64719 0.10275 0.67513 0.0
O177 O 0.6223 0.11532 0.592 0.0
O178 O 0.61184 0.13812 0.64257 0.0
C179 C 0.64859 0.17915 0.61379 0.0
O180 O 0.66644 0.11451 0.57472 0.0
O181 O 0.68848 0.13181 0.61894 0.0
In182 In 0.5912 0.91125 0.40471 0.0
O183 O 0.5567 0.92096 0.43492 0.0
O184 O 0.55681 0.90642 0.37103 0.0
C185 C 0.61366 0.91761 0.48068 0.0
C186 C 0.60747 0.94348 0.34884 0.0
C187 C 0.59829 0.86584 0.40027 0.0
O188 O 0.59494 0.92745 0.47247 0.0
O189 O 0.62131 0.90517 0.45008 0.0
O190 O 0.60833 0.87945 0.37437 0.0
O191 O 0.58482 0.87519 0.42705 0.0
C192 C 0.54512 0.91386 0.40273 0.0
O193 O 0.59887 0.92505 0.33525 0.0
O194 O 0.60812 0.94537 0.39004 0.0
In195 In 0.85692 0.84387 0.15027 0.0
O196 O 0.82995 0.86914 0.12586 0.0
O197 O 0.83389 0.83809 0.09085 0.0
C198 C 0.89784 0.85944 0.12307 0.0
C199 C 0.85763 0.79775 0.15547 0.0
C200 C 0.85162 0.86139 0.23193 0.0
O201 O 0.87938 0.86649 0.10648 0.0
O202 O 0.89553 0.8445 0.15259 0.0
O203 O 0.83587 0.85069 0.21254 0.0
O204 O 0.86973 0.86337 0.21001 0.0
C205 C 0.82334 0.85671 0.09446 0.0
O206 O 0.84662 0.80997 0.1822 0.0
O207 O 0.86817 0.80875 0.12624 0.0
In208 In 0.60481 0.59716 0.88613 0.0
O209 O 0.56741 0.60042 0.9078 0.0
O210 O 0.57443 0.59741 0.83962 0.0
C211 C 0.62173 0.59565 0.96822 0.0
C212 C 0.61932 0.55741 0.85036 0.0
C213 C 0.61939 0.63895 0.86211 0.0
O214 O 0.60341 0.58571 0.95771 0.0
O215 O 0.6316 0.60612 0.93737 0.0
O216 O 0.62882 0.62094 0.84803 0.0
O217 O 0.60275 0.6357 0.88767 0.0
C218 C 0.55957 0.59989 0.86917 0.0
O219 O 0.61894 0.57581 0.82882 0.0
O220 O 0.61276 0.55921 0.88964 0.0
In221 In 0.64341 0.35387 0.14909 0.0
O222 O 0.66068 0.37965 0.10369 0.0
O223 O 0.67989 0.35087 0.12411 0.0
C224 C 0.60132 0.37074 0.1351 0.0
C225 C 0.63503 0.31033 0.12457 0.0
C226 C 0.65566 0.3665 0.23134 0.0
O227 O 0.61854 0.37725 0.11351 0.0
O228 O 0.60537 0.35578 0.164 0.0
O229 O 0.66248 0.34823 0.21392 0.0
O230 O 0.64258 0.37823 0.20753 0.0
C231 C 0.67938 0.3691 0.10218 0.0
O232 O 0.63794 0.31597 0.16427 0.0
O233 O 0.63659 0.32655 0.09749 0.0
In234 In 0.89926 0.39537 0.41151 0.0
O235 O 0.93355 0.40123 0.44493 0.0
O236 O 0.93391 0.38686 0.38086 0.0
C237 C 0.87403 0.41111 0.47896 0.0
C238 C 0.88804 0.42426 0.34569 0.0
C239 C 0.88963 0.35057 0.41777 0.0
O240 O 0.89379 0.41842 0.4707 0.0
O241 O 0.86664 0.39631 0.45239 0.0
O242 O 0.88398 0.36218 0.3844 0.0
O243 O 0.90012 0.36156 0.4472 0.0
C244 C 0.94532 0.39342 0.41371 0.0
O245 O 0.88475 0.40304 0.34275 0.0
O246 O 0.89684 0.43064 0.3814 0.0
In247 In 0.85212 0.6496 0.63916 0.0
O248 O 0.83972 0.68271 0.67142 0.0
O249 O 0.86801 0.68473 0.62835 0.0
C250 C 0.84158 0.6277 0.71462 0.0
C251 C 0.82285 0.64342 0.57115 0.0
C252 C 0.89428 0.63331 0.62334 0.0
O253 O 0.83087 0.64508 0.7016 0.0
O254 O 0.85702 0.62094 0.68891 0.0
O255 O 0.87697 0.62652 0.60217 0.0
O256 O 0.8902 0.6481 0.65257 0.0
C257 C 0.85448 0.69519 0.6534 0.0
O258 O 0.84076 0.65513 0.56836 0.0
O259 O 0.81974 0.63429 0.60818 0.0
In260 In 0.61271 0.38958 0.60723 0.0
O261 O 0.57949 0.40064 0.57501 0.0
O262 O 0.57723 0.38365 0.63653 0.0
C263 C 0.63939 0.39836 0.53733 0.0
C264 C 0.6248 0.42052 0.669 0.0
C265 C 0.61876 0.344 0.60365 0.0
O266 O 0.61892 0.40488 0.53992 0.0
O267 O 0.64688 0.3884 0.57125 0.0
O268 O 0.62641 0.35568 0.63544 0.0
O269 O 0.6078 0.35523 0.57532 0.0
C270 C 0.56677 0.39282 0.60483 0.0
O271 O 0.62372 0.39944 0.6773 0.0
O272 O 0.62028 0.42571 0.62976 0.0
In273 In 0.84736 0.36974 0.86024 0.0
O274 O 0.82864 0.36615 0.92577 0.0
O275 O 0.81728 0.39177 0.8818 0.0
C276 C 0.89065 0.38137 0.88051 0.0
C277 C 0.84506 0.32381 0.85524 0.0
C278 C 0.84113 0.39005 0.78166 0.0
O279 O 0.87397 0.38692 0.90453 0.0
O280 O 0.88541 0.3701 0.84664 0.0
O281 O 0.83698 0.36918 0.78796 0.0
O282 O 0.8482 0.40067 0.81508 0.0
C283 C 0.81452 0.38184 0.91812 0.0
O284 O 0.82973 0.33651 0.83936 0.0
O285 O 0.8613 0.3343 0.87344 0.0
In286 In 0.89438 0.59078 0.09557 0.0
O287 O 0.92858 0.57975 0.06615 0.0
O288 O 0.92924 0.6 0.12396 0.0
C289 C 0.87243 0.5906 0.01778 0.0
C290 C 0.88327 0.55295 0.14203 0.0
C291 C 0.88205 0.63312 0.12098 0.0
O292 O 0.89366 0.58748 0.02114 0.0
O293 O 0.86214 0.59358 0.05383 0.0
O294 O 0.87398 0.61543 0.13892 0.0
O295 O 0.89623 0.62935 0.09062 0.0
C296 C 0.94053 0.58976 0.09474 0.0
O297 O 0.89008 0.57107 0.16008 0.0
O298 O 0.88171 0.55403 0.10079 0.0
In299 In 0.64744 0.66025 0.34457 0.0
O300 O 0.66993 0.64476 0.39886 0.0
O301 O 0.68538 0.66555 0.34969 0.0
C302 C 0.60571 0.64168 0.35028 0.0
C303 C 0.63738 0.70369 0.36601 0.0
C304 C 0.65581 0.63926 0.26803 0.0
O305 O 0.62022 0.63897 0.3808 0.0
O306 O 0.61218 0.65398 0.31864 0.0
O307 O 0.65398 0.66077 0.27068 0.0
O308 O 0.65431 0.62871 0.30418 0.0
C309 C 0.68804 0.65348 0.38363 0.0
O310 O 0.64471 0.69839 0.32823 0.0
O311 O 0.63552 0.68722 0.39246 0.0
In312 In 0.39154 0.3998 0.10266 0.0
O313 O 0.39336 0.41611 0.17087 0.0
O314 O 0.36467 0.42396 0.13159 0.0
C315 C 0.38066 0.35507 0.10114 0.0
C316 C 0.43758 0.40085 0.10496 0.0
C317 C 0.37552 0.41482 0.02487 0.0
O318 O 0.37461 0.36792 0.13246 0.0
O319 O 0.39221 0.36475 0.07162 0.0
O320 O 0.39346 0.42278 0.04207 0.0
O321 O 0.36547 0.39985 0.04752 0.0
C322 C 0.37512 0.42723 0.1672 0.0
O323 O 0.42599 0.41446 0.08184 0.0
O324 O 0.42595 0.38683 0.12704 0.0
In325 In 0.35314 0.65243 0.85111 0.0
O326 O 0.33833 0.64448 0.91975 0.0
O327 O 0.31801 0.63784 0.86331 0.0
C328 C 0.39822 0.64358 0.85296 0.0
C329 C 0.34999 0.69841 0.85272 0.0
C330 C 0.34759 0.62733 0.77827 0.0
O331 O 0.38518 0.63676 0.88343 0.0
O332 O 0.38865 0.65541 0.82373 0.0
O333 O 0.34269 0.64837 0.77955 0.0
O334 O 0.35449 0.61894 0.81419 0.0
C335 C 0.31963 0.63725 0.90455 0.0
O336 O 0.34105 0.68654 0.82267 0.0
O337 O 0.35991 0.68706 0.8823 0.0
In338 In 0.10449 0.60543 0.60714 0.0
O339 O 0.12448 0.58931 0.66396 0.0
O340 O 0.10128 0.56838 0.62878 0.0
C341 C 0.11837 0.64595 0.63948 0.0
C342 C 0.05853 0.60388 0.60386 0.0
C343 C 0.12351 0.60487 0.52598 0.0
O344 O 0.13173 0.62917 0.63554 0.0
O345 O 0.09804 0.64204 0.6282 0.0
O346 O 0.11181 0.62123 0.54035 0.0
O347 O 0.12574 0.58852 0.55252 0.0
C348 C 0.11568 0.56983 0.65942 0.0
O349 O 0.07099 0.59782 0.57207 0.0
O350 O 0.06925 0.61051 0.63757 0.0
In351 In 0.14974 0.34317 0.36005 0.0
O352 O 0.16375 0.30953 0.33276 0.0
O353 O 0.13967 0.30783 0.3847 0.0
C354 C 0.14951 0.36429 0.28154 0.0
C355 C 0.18686 0.35702 0.40584 0.0
C356 C 0.10772 0.35596 0.38645 0.0
O357 O 0.15268 0.34307 0.28538 0.0
O358 O 0.14664 0.37483 0.31734 0.0
O359 O 0.12552 0.36176 0.40704 0.0
O360 O 0.11118 0.34349 0.35331 0.0
C361 C 0.15218 0.29706 0.35814 0.0
O362 O 0.171 0.34571 0.42334 0.0
O363 O 0.18396 0.36128 0.36567 0.0
In364 In 0.40032 0.59662 0.39669 0.0
O365 O 0.3735 0.57901 0.35372 0.0
O366 O 0.40068 0.55898 0.37898 0.0
C367 C 0.38875 0.63922 0.37193 0.0
C368 C 0.44549 0.59907 0.37958 0.0
C369 C 0.38358 0.59013 0.47821 0.0
O370 O 0.38534 0.62204 0.34769 0.0
O371 O 0.39809 0.63489 0.4084 0.0
O372 O 0.40199 0.58113 0.46555 0.0
O373 O 0.37364 0.60219 0.44978 0.0
C374 C 0.38278 0.55963 0.35606 0.0
O375 O 0.43759 0.60148 0.41793 0.0
O376 O 0.43067 0.59542 0.35037 0.0
In377 In 0.14543 0.64284 0.1299 0.0
O378 O 0.14877 0.68128 0.14039 0.0
O379 O 0.13463 0.66985 0.07999 0.0
C380 C 0.15208 0.62988 0.21413 0.0
C381 C 0.18354 0.63065 0.08599 0.0
C382 C 0.10369 0.62468 0.11553 0.0
O383 O 0.14637 0.64984 0.20338 0.0
O384 O 0.15488 0.61639 0.18224 0.0
O385 O 0.12109 0.61861 0.09409 0.0
O386 O 0.10737 0.63984 0.14411 0.0
C387 C 0.14027 0.68659 0.10367 0.0
O388 O 0.16444 0.62134 0.0795 0.0
O389 O 0.18353 0.64601 0.11507 0.0
In390 In 0.10264 0.39842 0.89408 0.0
O391 O 0.09932 0.42076 0.83296 0.0
O392 O 0.12777 0.42649 0.87455 0.0
C393 C 0.11613 0.3565 0.86836 0.0
C394 C 0.05661 0.39991 0.90053 0.0
C395 C 0.12025 0.40241 0.97566 0.0
O396 O 0.12436 0.37444 0.85161 0.0
O397 O 0.10098 0.35984 0.89711 0.0
O398 O 0.10786 0.41768 0.95876 0.0
O399 O 0.12408 0.38552 0.9511 0.0
C400 C 0.11696 0.43238 0.84057 0.0
O401 O 0.06675 0.38984 0.86953 0.0
O402 O 0.06963 0.4093 0.92808 0.0
In403 In 0.35732 0.36367 0.64707 0.0
O404 O 0.35513 0.33049 0.68546 0.0
O405 O 0.36342 0.32819 0.61757 0.0
C406 C 0.35019 0.3902 0.71864 0.0
C407 C 0.32161 0.37215 0.59304 0.0
C408 C 0.40106 0.37263 0.62614 0.0
O409 O 0.34347 0.36985 0.71598 0.0
O410 O 0.35994 0.39755 0.68453 0.0
O411 O 0.38468 0.37704 0.60051 0.0
O412 O 0.39537 0.36352 0.66213 0.0
C413 C 0.35987 0.31779 0.65328 0.0
O414 O 0.34112 0.38051 0.58675 0.0
O415 O 0.32003 0.35982 0.6268 0.0
H416 H 0.12959 0.04294 0.27316 0.0
H417 H 0.12322 0.00748 0.3978 0.0
H418 H 0.12636 0.97049 0.35921 0.0
H419 H 0.09457 0.00666 0.2145 0.0
H420 H 0.11049 0.0079 0.16381 0.0
H421 H 0.11154 0.03144 0.20169 0.0
H422 H 0.15563 0.02852 0.20456 0.0
H423 H 0.15473 0.00495 0.16646 0.0
H424 H 0.16881 0.00174 0.21884 0.0
H425 H 0.1264 0.93748 0.3064 0.0
H426 H 0.12169 0.91119 0.24329 0.0
H427 H 0.12672 0.96848 0.15347 0.0
C428 C 0.12947 0.0274 0.29241 0.0
C429 C 0.12639 0.02799 0.33841 0.0
C430 C 0.12571 0.00733 0.36248 0.0
C431 C 0.12757 0.98627 0.34089 0.0
C432 C 0.13008 0.98623 0.29529 0.0
C433 C 0.13104 0.00627 0.27133 0.0
C434 C 0.13144 0.0016 0.22238 0.0
C435 C 0.11078 0.01254 0.19927 0.0
C436 C 0.154 0.00968 0.20186 0.0
C437 C 0.12982 0.97586 0.22249 0.0
C438 C 0.12949 0.96725 0.26482 0.0
C439 C 0.12692 0.94399 0.27309 0.0
C440 C 0.12425 0.9292 0.23711 0.0
C441 C 0.12387 0.93784 0.19364 0.0
C442 C 0.12707 0.9614 0.18638 0.0
H443 H 0.22116 0.86815 0.59398 0.0
H444 H 0.16476 0.86071 0.50259 0.0
H445 H 0.19206 0.85951 0.44053 0.0
H446 H 0.2576 0.90337 0.52258 0.0
H447 H 0.28332 0.88963 0.54134 0.0
H448 H 0.25918 0.89213 0.57771 0.0
H449 H 0.25954 0.84834 0.58959 0.0
H450 H 0.28352 0.84567 0.55301 0.0
H451 H 0.25783 0.82965 0.54255 0.0
H452 H 0.22566 0.85612 0.38947 0.0
H453 H 0.26298 0.85167 0.35277 0.0
H454 H 0.29724 0.86107 0.47812 0.0
C455 C 0.21451 0.86669 0.56085 0.0
C456 C 0.19087 0.86461 0.55296 0.0
C457 C 0.18282 0.86245 0.50924 0.0
C458 C 0.19819 0.86175 0.47385 0.0
C459 C 0.22145 0.86335 0.4829 0.0
C460 C 0.22956 0.86593 0.52531 0.0
C461 C 0.25536 0.86607 0.52653 0.0
C462 C 0.26439 0.88918 0.54301 0.0
C463 C 0.26459 0.84625 0.55457 0.0
C464 C 0.26055 0.86263 0.47826 0.0
C465 C 0.24078 0.86128 0.45358 0.0
C466 C 0.24126 0.85737 0.40839 0.0
C467 C 0.26252 0.8548 0.38789 0.0
C468 C 0.28296 0.85606 0.41265 0.0
C469 C 0.28189 0.86012 0.45836 0.0
H470 H 0.39038 0.02893 0.66196 0.0
H471 H 0.37537 0.08102 0.75934 0.0
H472 H 0.37307 0.05147 0.81688 0.0
H473 H 0.35393 0.98382 0.70977 0.0
H474 H 0.37406 0.96154 0.69701 0.0
H475 H 0.37228 0.98646 0.66245 0.0
H476 H 0.41548 0.99375 0.67374 0.0
H477 H 0.41737 0.96895 0.70845 0.0
H478 H 0.42662 0.99631 0.72884 0.0
H479 H 0.37513 0.0173 0.86438 0.0
H480 H 0.38159 0.98017 0.89992 0.0
H481 H 0.39574 0.94968 0.77253 0.0
C482 C 0.3862 0.03402 0.69526 0.0
C483 C 0.38293 0.05721 0.70626 0.0
C484 C 0.37787 0.06332 0.75025 0.0
C485 C 0.37647 0.04667 0.78312 0.0
C486 C 0.38014 0.02401 0.77139 0.0
C487 C 0.38485 0.0176 0.72858 0.0
C488 C 0.38947 0.99219 0.72549 0.0
C489 C 0.37135 0.98031 0.69699 0.0
C490 C 0.41368 0.98754 0.70811 0.0
C491 C 0.38718 0.98548 0.77344 0.0
C492 C 0.38154 0.00411 0.79915 0.0
C493 C 0.37932 0.00253 0.84461 0.0
C494 C 0.38309 0.98136 0.86447 0.0
C495 C 0.38912 0.96205 0.83894 0.0
C496 C 0.39098 0.96412 0.79277 0.0
H497 H 0.22131 0.1285 0.91047 0.0
H498 H 0.16369 0.12537 -0.00015 0.0
H499 H 0.19014 0.11976 0.06229 0.0
H500 H 0.25802 0.08641 0.97012 0.0
H501 H 0.28354 0.1024 0.95821 0.0
H502 H 0.26 0.10275 0.92001 0.0
H503 H 0.25908 0.14691 0.92369 0.0
H504 H 0.28249 0.1467 0.96187 0.0
H505 H 0.25621 0.16077 0.97639 0.0
H506 H 0.22258 0.12041 0.11534 0.0
H507 H 0.25877 0.12622 0.15535 0.0
H508 H 0.29549 0.12754 0.03154 0.0
C509 C 0.21423 0.12609 0.94306 0.0
C510 C 0.19047 0.12731 0.95043 0.0
C511 C 0.18184 0.12436 0.99353 0.0
C512 C 0.19672 0.12111 0.02913 0.0
C513 C 0.22011 0.12054 0.02088 0.0
C514 C 0.22882 0.1227 0.97883 0.0
C515 C 0.25465 0.12338 0.97921 0.0
C516 C 0.26464 0.10249 0.95548 0.0
C517 C 0.26362 0.14577 0.95912 0.0
C518 C 0.25912 0.12229 0.02822 0.0
C519 C 0.23896 0.1204 0.05163 0.0
C520 C 0.2385 0.12135 0.09741 0.0
C521 C 0.2591 0.12473 0.11982 0.0
C522 C 0.27986 0.12701 0.09644 0.0
C523 C 0.27991 0.12523 0.05016 0.0
H524 H 0.88395 0.9544 0.74195 0.0
H525 H 0.86655 0.9801 0.61242 0.0
H526 H 0.8597 0.01836 0.64412 0.0
H527 H 0.84437 0.99052 0.80671 0.0
H528 H 0.86489 0.99462 0.85019 0.0
H529 H 0.86506 0.96861 0.81853 0.0
H530 H 0.90755 0.97531 0.79884 0.0
H531 H 0.9075 0.00131 0.83027 0.0
H532 H 0.91587 0.00176 0.7732 0.0
H533 H 0.85754 0.05427 0.68881 0.0
H534 H 0.86266 0.08571 0.74208 0.0
H535 H 0.88353 0.03694 0.84164 0.0
C536 C 0.87812 0.96797 0.72053 0.0
C537 C 0.87545 0.96434 0.67491 0.0
C538 C 0.86851 0.98259 0.64755 0.0
C539 C 0.8645 0.00431 0.66527 0.0
C540 C 0.8677 0.00748 0.71032 0.0
C541 C 0.87446 0.98983 0.73757 0.0
C542 C 0.87901 0.99824 0.78388 0.0
C543 C 0.86234 0.98735 0.81676 0.0
C544 C 0.90396 0.9939 0.7973 0.0
C545 C 0.87427 0.02345 0.77819 0.0
C546 C 0.86734 0.02836 0.73576 0.0
C547 C 0.86276 0.05061 0.72223 0.0
C548 C 0.86571 0.06835 0.7527 0.0
C549 C 0.87348 0.06373 0.79591 0.0
C550 C 0.87748 0.04095 0.80886 0.0
H551 H 0.81316 0.13244 0.49296 0.0
H552 H 0.78816 0.1021 0.37212 0.0
H553 H 0.75178 0.09263 0.40881 0.0
H554 H 0.78274 0.09401 0.57204 0.0
H555 H 0.77654 0.1172 0.60912 0.0
H556 H 0.80209 0.11782 0.57613 0.0
H557 H 0.79016 0.1571 0.54456 0.0
H558 H 0.76459 0.15656 0.57722 0.0
H559 H 0.76272 0.16007 0.51839 0.0
H560 H 0.71712 0.08994 0.45543 0.0
H561 H 0.68548 0.09619 0.50744 0.0
H562 H 0.73186 0.13028 0.59735 0.0
C563 C 0.80026 0.12314 0.47483 0.0
C564 C 0.80348 0.11759 0.43005 0.0
C565 C 0.78599 0.10624 0.40662 0.0
C566 C 0.76535 0.10073 0.42722 0.0
C567 C 0.76241 0.10691 0.47114 0.0
C568 C 0.77932 0.11794 0.4947 0.0
C569 C 0.77074 0.12521 0.53967 0.0
C570 C 0.7838 0.11281 0.57641 0.0
C571 C 0.77213 0.15128 0.54525 0.0
C572 C 0.74621 0.11713 0.53713 0.0
C573 C 0.74194 0.10619 0.49768 0.0
C574 C 0.7203 0.09823 0.48666 0.0
C575 C 0.70242 0.1019 0.51641 0.0
C576 C 0.70622 0.11368 0.55645 0.0
C577 C 0.7285 0.12103 0.56718 0.0
H578 H 0.59525 0.95032 0.26284 0.0
H579 H 0.63471 0.97952 0.36965 0.0
H580 H 0.64272 0.01349 0.32421 0.0
H581 H 0.62964 0.9745 0.17013 0.0
H582 H 0.60454 0.97974 0.13742 0.0
H583 H 0.60514 0.95613 0.1754 0.0
H584 H 0.5685 0.97142 0.21289 0.0
H585 H 0.56784 0.99507 0.17527 0.0
H586 H 0.56807 0.00022 0.23377 0.0
H587 H 0.64272 0.04603 0.2709 0.0
H588 H 0.63388 0.07501 0.21432 0.0
H589 H 0.5937 0.02505 0.14287 0.0
C590 C 0.60615 0.96356 0.27608 0.0
C591 C 0.61458 0.96224 0.31951 0.0
C592 C 0.62822 0.98018 0.3363 0.0
C593 C 0.63293 0.99949 0.31069 0.0
C594 C 0.62385 0.00061 0.26837 0.0
C595 C 0.6108 0.9831 0.25109 0.0
C596 C 0.60108 0.98955 0.20661 0.0
C597 C 0.61068 0.97406 0.17024 0.0
C598 C 0.57483 0.98904 0.20721 0.0
C599 C 0.61006 0.01367 0.2023 0.0
C600 C 0.62349 0.0196 0.23788 0.0
C601 C 0.63252 0.04148 0.24253 0.0
C602 C 0.6274 0.05784 0.21029 0.0
C603 C 0.6132 0.05225 0.17418 0.0
C604 C 0.60481 0.02976 0.16988 0.0
H605 H 0.72896 0.8334 0.91183 0.0
H606 H 0.69612 0.89628 0.95263 0.0
H607 H 0.72797 0.90392 0.00399 0.0
H608 H 0.74811 0.81719 0.01723 0.0
H609 H 0.77466 0.80522 0.99825 0.0
H610 H 0.75026 0.80572 0.96232 0.0
H611 H 0.77379 0.82752 0.9036 0.0
H612 H 0.79829 0.82708 0.93939 0.0
H613 H 0.78776 0.85383 0.91838 0.0
H614 H 0.7625 0.90361 0.05356 0.0
H615 H 0.79654 0.89491 0.09869 0.0
H616 H 0.80625 0.83202 0.0257 0.0
C617 C 0.72861 0.84893 0.93114 0.0
C618 C 0.71017 0.86432 0.92817 0.0
C619 C 0.71016 0.8843 0.95438 0.0
C620 C 0.72818 0.8888 0.98353 0.0
C621 C 0.74603 0.87315 0.986 0.0
C622 C 0.74637 0.85362 0.9605 0.0
C623 C 0.76689 0.83894 0.97096 0.0
C624 C 0.75953 0.81538 0.98822 0.0
C625 C 0.78261 0.83672 0.93068 0.0
C626 C 0.77788 0.85309 0.0068 0.0
C627 C 0.76573 0.87286 0.01477 0.0
C628 C 0.77225 0.88826 0.0474 0.0
C629 C 0.79158 0.88319 0.07284 0.0
C630 C 0.80403 0.86283 0.0656 0.0
C631 C 0.79716 0.84778 0.03182 0.0
H632 H 0.62651 0.46661 0.6572 0.0
H633 H 0.63225 0.41414 0.75727 0.0
H634 H 0.6355 0.44401 0.81453 0.0
H635 H 0.66553 0.50844 0.70921 0.0
H636 H 0.64819 0.53228 0.69238 0.0
H637 H 0.64913 0.50684 0.6591 0.0
H638 H 0.6051 0.5037 0.66332 0.0
H639 H 0.60401 0.52901 0.69668 0.0
H640 H 0.5914 0.50291 0.71642 0.0
H641 H 0.63369 0.47939 0.86116 0.0
H642 H 0.62762 0.51753 0.89369 0.0
H643 H 0.6236 0.54689 0.76288 0.0
C644 C 0.62895 0.46138 0.69105 0.0
C645 C 0.62924 0.43807 0.70285 0.0
C646 C 0.63213 0.43191 0.74754 0.0
C647 C 0.63401 0.44875 0.78023 0.0
C648 C 0.63316 0.47161 0.76755 0.0
C649 C 0.63087 0.47793 0.72397 0.0
C650 C 0.6288 0.50357 0.71921 0.0
C651 C 0.64913 0.51335 0.69345 0.0
C652 C 0.60597 0.51017 0.69765 0.0
C653 C 0.6296 0.51069 0.76706 0.0
C654 C 0.63231 0.49202 0.7944 0.0
C655 C 0.63194 0.49416 0.84006 0.0
C656 C 0.62843 0.51587 0.85822 0.0
C657 C 0.62534 0.53515 0.83077 0.0
C658 C 0.62632 0.53252 0.78464 0.0
H659 H 0.80096 0.3575 0.98997 0.0
H660 H 0.78374 0.41664 0.91087 0.0
H661 H 0.74857 0.42203 0.95448 0.0
H662 H 0.74648 0.33522 0.99493 0.0
H663 H 0.74848 0.32486 0.05065 0.0
H664 H 0.77383 0.32761 0.01777 0.0
H665 H 0.79209 0.35355 0.07724 0.0
H666 H 0.76682 0.35073 0.11058 0.0
H667 H 0.77709 0.37865 0.0956 0.0
H668 H 0.71357 0.41859 0.00159 0.0
H669 H 0.68139 0.40662 0.04882 0.0
H670 H 0.72139 0.34932 0.09588 0.0
C671 C 0.79009 0.37193 0.98257 0.0
C672 C 0.79509 0.38676 0.94733 0.0
C673 C 0.78023 0.40517 0.93797 0.0
C674 C 0.76026 0.40838 0.96258 0.0
C675 C 0.75551 0.39307 0.99643 0.0
C676 C 0.77006 0.37528 0.0066 0.0
C677 C 0.76016 0.36011 0.04204 0.0
C678 C 0.75705 0.33551 0.02532 0.0
C679 C 0.77492 0.36082 0.08385 0.0
C680 C 0.73745 0.37175 0.04928 0.0
C681 C 0.7352 0.3909 0.02313 0.0
C682 C 0.71524 0.4038 0.02264 0.0
C683 C 0.69705 0.39684 0.04944 0.0
C684 C 0.69896 0.37708 0.07596 0.0
C685 C 0.71951 0.36457 0.07611 0.0
H686 H 0.89296 0.4704 0.34795 0.0
H687 H 0.87161 0.41485 0.26298 0.0
H688 H 0.86508 0.4424 0.20245 0.0
H689 H 0.85295 0.51318 0.30576 0.0
H690 H 0.87346 0.53595 0.31067 0.0
H691 H 0.87456 0.51206 0.34792 0.0
H692 H 0.91666 0.50472 0.32597 0.0
H693 H 0.91569 0.52853 0.28869 0.0
H694 H 0.92379 0.50072 0.26876 0.0
H695 H 0.86374 0.47585 0.14993 0.0
H696 H 0.86774 0.51227 0.10964 0.0
H697 H 0.88973 0.54558 0.22993 0.0
C698 C 0.88663 0.46403 0.31679 0.0
C699 C 0.88275 0.44052 0.31006 0.0
C700 C 0.87461 0.43283 0.26877 0.0
C701 C 0.87083 0.44835 0.23431 0.0
C702 C 0.87512 0.47143 0.24193 0.0
C703 C 0.88274 0.47922 0.28226 0.0
C704 C 0.88715 0.50464 0.28156 0.0
C705 C 0.87107 0.51719 0.31336 0.0
C706 C 0.91231 0.50995 0.29183 0.0
C707 C 0.88137 0.50992 0.23418 0.0
C708 C 0.87427 0.4906 0.2119 0.0
C709 C 0.86903 0.49112 0.16717 0.0
C710 C 0.87137 0.51186 0.14458 0.0
C711 C 0.87895 0.53173 0.16676 0.0
C712 C 0.88369 0.53072 0.21223 0.0
H713 H 0.69867 0.6358 0.4652 0.0
H714 H 0.72879 0.66397 0.34656 0.0
H715 H 0.76699 0.66062 0.37949 0.0
H716 H 0.73414 0.66502 0.5394 0.0
H717 H 0.73654 0.64201 0.57847 0.0
H718 H 0.71166 0.64417 0.54404 0.0
H719 H 0.71855 0.60307 0.51556 0.0
H720 H 0.74351 0.6008 0.54993 0.0
H721 H 0.74571 0.5958 0.49155 0.0
H722 H 0.80125 0.65753 0.42643 0.0
H723 H 0.82981 0.6555 0.48586 0.0
H724 H 0.77825 0.6292 0.57487 0.0
C725 C 0.71337 0.64087 0.44598 0.0
C726 C 0.71081 0.65007 0.4033 0.0
C727 C 0.73037 0.65688 0.37934 0.0
C728 C 0.75216 0.65494 0.39765 0.0
C729 C 0.75415 0.64612 0.43996 0.0
C730 C 0.73535 0.63916 0.46393 0.0
C731 C 0.74222 0.63182 0.50993 0.0
C732 C 0.73044 0.64665 0.54501 0.0
C733 C 0.7372 0.60636 0.51715 0.0
C734 C 0.76768 0.63632 0.50829 0.0
C735 C 0.77417 0.64432 0.46739 0.0
C736 C 0.79648 0.651 0.45843 0.0
C737 C 0.81256 0.64983 0.4924 0.0
C738 C 0.80625 0.64206 0.53477 0.0
C739 C 0.78361 0.63485 0.54255 0.0
H740 H 0.39754 0.43951 0.24211 0.0
H741 H 0.33792 0.45539 0.16335 0.0
H742 H 0.33033 0.48901 0.21023 0.0
H743 H 0.37446 0.46051 0.35022 0.0
H744 H 0.40195 0.4716 0.36601 0.0
H745 H 0.40013 0.44665 0.33147 0.0
H746 H 0.4256 0.46656 0.27331 0.0
H747 H 0.42732 0.49158 0.30731 0.0
H748 H 0.41706 0.49387 0.25156 0.0
H749 H 0.33278 0.52391 0.25815 0.0
H750 H 0.34452 0.55658 0.3045 0.0
H751 H 0.40246 0.5176 0.35166 0.0
C752 C 0.38247 0.44963 0.2356 0.0
C753 C 0.36824 0.44482 0.19932 0.0
C754 C 0.34894 0.45871 0.19125 0.0
C755 C 0.34448 0.47782 0.21772 0.0
C756 C 0.35936 0.4826 0.25231 0.0
C757 C 0.37782 0.46872 0.26162 0.0
C758 C 0.39252 0.47875 0.29769 0.0
C759 C 0.39224 0.46347 0.33879 0.0
C760 C 0.41706 0.48294 0.28147 0.0
C761 C 0.38005 0.50091 0.30587 0.0
C762 C 0.36077 0.50271 0.27991 0.0
C763 C 0.34757 0.5225 0.2793 0.0
C764 C 0.3544 0.54098 0.30557 0.0
C765 C 0.37431 0.53954 0.33178 0.0
C766 C 0.38699 0.51909 0.33239 0.0
H767 H 0.22629 0.64945 0.09193 0.0
H768 H 0.18652 0.59939 0.01981 0.0
H769 H 0.21925 0.5924 0.9707 0.0
H770 H 0.25249 0.67405 0.00165 0.0
H771 H 0.27984 0.67858 0.02729 0.0
H772 H 0.25448 0.67755 0.06049 0.0
H773 H 0.27212 0.64519 0.10755 0.0
H774 H 0.29763 0.64616 0.0745 0.0
H775 H 0.28237 0.61968 0.08095 0.0
H776 H 0.25365 0.59469 0.9237 0.0
H777 H 0.2885 0.60511 0.88289 0.0
H778 H 0.30721 0.65242 0.98652 0.0
C779 C 0.22467 0.63666 0.0664 0.0
C780 C 0.20391 0.62491 0.05969 0.0
C781 C 0.2023 0.60852 0.02561 0.0
C782 C 0.22081 0.60438 0.99764 0.0
C783 C 0.24089 0.61658 0.00452 0.0
C784 C 0.24306 0.63222 0.03829 0.0
C785 C 0.26598 0.64417 0.03649 0.0
C786 C 0.26301 0.67012 0.03114 0.0
C787 C 0.28038 0.63845 0.0773 0.0
C788 C 0.27597 0.63344 0.99541 0.0
C789 C 0.26124 0.61743 0.97776 0.0
C790 C 0.26558 0.60677 0.93768 0.0
C791 C 0.28534 0.61285 0.9147 0.0
C792 C 0.30058 0.62927 0.93201 0.0
C793 C 0.29609 0.63935 0.97328 0.0
H794 H 0.09617 0.44766 0.76578 0.0
H795 H 0.15134 0.46288 0.85638 0.0
H796 H 0.15883 0.49894 0.81673 0.0
H797 H 0.12322 0.47247 0.66688 0.0
H798 H 0.09643 0.48314 0.64629 0.0
H799 H 0.09708 0.45758 0.67918 0.0
H800 H 0.06804 0.47563 0.73327 0.0
H801 H 0.06745 0.50128 0.70083 0.0
H802 H 0.07452 0.50271 0.75851 0.0
H803 H 0.15761 0.53508 0.77171 0.0
H804 H 0.14898 0.5676 0.72253 0.0
H805 H 0.09505 0.52814 0.66107 0.0
C806 C 0.11012 0.45836 0.77676 0.0
C807 C 0.12322 0.4525 0.81404 0.0
C808 C 0.14118 0.46703 0.8277 0.0
C809 C 0.14555 0.48753 0.80542 0.0
C810 C 0.13193 0.49308 0.76937 0.0
C811 C 0.11475 0.47878 0.75483 0.0
C812 C 0.10185 0.48915 0.71665 0.0
C813 C 0.10483 0.47472 0.67477 0.0
C814 C 0.07647 0.49238 0.72803 0.0
C815 C 0.11402 0.51179 0.71274 0.0
C816 C 0.1314 0.51373 0.74324 0.0
C817 C 0.14426 0.53363 0.74728 0.0
C818 C 0.13919 0.55202 0.71937 0.0
C819 C 0.12144 0.55031 0.68793 0.0
C820 C 0.10887 0.52986 0.68451 0.0
H821 H 0.20006 0.34476 0.48907 0.0
H822 H 0.22043 0.38528 0.37621 0.0
H823 H 0.25603 0.39598 0.41439 0.0
H824 H 0.22433 0.38222 0.57401 0.0
H825 H 0.23342 0.35865 0.6078 0.0
H826 H 0.20863 0.35578 0.57314 0.0
H827 H 0.22653 0.32015 0.53622 0.0
H828 H 0.25133 0.32292 0.57069 0.0
H829 H 0.25444 0.32229 0.51168 0.0
H830 H 0.29037 0.40033 0.4627 0.0
H831 H 0.32145 0.39737 0.51737 0.0
H832 H 0.27885 0.35376 0.5984 0.0
C833 C 0.21187 0.35615 0.4727 0.0
C834 C 0.20749 0.36429 0.42981 0.0
C835 C 0.22347 0.3789 0.40914 0.0
C836 C 0.24369 0.38513 0.43059 0.0
C837 C 0.24764 0.3766 0.47268 0.0
C838 C 0.23219 0.36245 0.49356 0.0
C839 C 0.24115 0.35458 0.53775 0.0
C840 C 0.22598 0.36334 0.5754 0.0
C841 C 0.24351 0.32844 0.53913 0.0
C842 C 0.26422 0.36616 0.53804 0.0
C843 C 0.26755 0.37897 0.50042 0.0
C844 C 0.28791 0.39052 0.49249 0.0
C845 C 0.30545 0.38873 0.52368 0.0
C846 C 0.3025 0.3754 0.5621 0.0
C847 C 0.28151 0.36422 0.56948 0.0
H848 H 0.11163 0.17155 0.42035 0.0
H849 H 0.15724 0.14581 0.31944 0.0
H850 H 0.16988 0.18527 0.30354 0.0
H851 H 0.0942 0.22182 0.36349 0.0
H852 H 0.09322 0.2392 0.41242 0.0
H853 H 0.08828 0.20895 0.41615 0.0
H854 H 0.1207 0.2055 0.4738 0.0
H855 H 0.12577 0.23574 0.4702 0.0
H856 H 0.14878 0.21598 0.46054 0.0
H857 H 0.17688 0.22788 0.29804 0.0
H858 H 0.17752 0.27002 0.30313 0.0
H859 H 0.1274 0.26727 0.40806 0.0
C860 C 0.12431 0.17418 0.39494 0.0
C861 C 0.13347 0.15565 0.37107 0.0
C862 C 0.15002 0.1598 0.33811 0.0
C863 C 0.1573 0.18213 0.32889 0.0
C864 C 0.14789 0.20004 0.35306 0.0
C865 C 0.13177 0.19627 0.38543 0.0
C866 C 0.12411 0.21839 0.40642 0.0
C867 C 0.09843 0.22231 0.39916 0.0
C868 C 0.13021 0.21892 0.45566 0.0
C869 C 0.13829 0.23526 0.38059 0.0
C870 C 0.15196 0.22438 0.35003 0.0
C871 C 0.1663 0.23655 0.32196 0.0
C872 C 0.16656 0.26046 0.3251 0.0
C873 C 0.15256 0.27188 0.35604 0.0
C874 C 0.13837 0.25902 0.3842 0.0
H875 H 0.97748 0.89925 0.58446 0.0
H876 H 0.95894 0.90332 0.72258 0.0
H877 H 0.99917 0.8977 0.74337 0.0
H878 H 0.01784 0.85534 0.5956 0.0
H879 H 0.0376 0.86642 0.55551 0.0
H880 H 0.00768 0.87284 0.55091 0.0
H881 H 0.01675 0.91609 0.55076 0.0
H882 H 0.04676 0.9098 0.55514 0.0
H883 H 0.0333 0.92814 0.59506 0.0
H884 H 0.04023 0.88817 0.74968 0.0
H885 H 0.08047 0.8768 0.74112 0.0
H886 H 0.07329 0.87974 0.59905 0.0
C887 C 0.98198 0.89937 0.61903 0.0
C888 C 0.96511 0.90178 0.65194 0.0
C889 C 0.97159 0.90155 0.69683 0.0
C890 C 0.9944 0.8984 0.70898 0.0
C891 C 0.01056 0.89564 0.67585 0.0
C892 C 0.00475 0.89627 0.63178 0.0
C893 C 0.02539 0.89181 0.60291 0.0
C894 C 0.02191 0.87032 0.57458 0.0
C895 C 0.03087 0.91271 0.57428 0.0
C896 C 0.04354 0.88807 0.63772 0.0
C897 C 0.03457 0.89044 0.67953 0.0
C898 C 0.04756 0.88657 0.71714 0.0
C899 C 0.07036 0.88002 0.71193 0.0
C900 C 0.07997 0.87753 0.66946 0.0
C901 C 0.06643 0.88184 0.6319 0.0
H902 H 0.39491 0.82063 0.92441 0.0
H903 H 0.35778 0.84951 0.8142 0.0
H904 H 0.34249 0.81117 0.79629 0.0
H905 H 0.41089 0.76883 0.873 0.0
H906 H 0.40749 0.75188 0.92205 0.0
H907 H 0.4147 0.78163 0.92646 0.0
H908 H 0.37946 0.78826 0.97639 0.0
H909 H 0.37209 0.75852 0.97202 0.0
H910 H 0.35157 0.78006 0.95702 0.0
H911 H 0.33268 0.76899 0.78912 0.0
H912 H 0.32924 0.72693 0.7933 0.0
H913 H 0.37228 0.7267 0.90949 0.0
C914 C 0.38353 0.81894 0.89652 0.0
C915 C 0.37756 0.83799 0.87055 0.0
C916 C 0.36255 0.83509 0.83447 0.0
C917 C 0.35378 0.81342 0.82414 0.0
C918 C 0.36006 0.79496 0.85047 0.0
C919 C 0.37454 0.79758 0.88602 0.0
C920 C 0.37902 0.77512 0.90886 0.0
C921 C 0.40454 0.76901 0.90748 0.0
C922 C 0.36999 0.77552 0.95638 0.0
C923 C 0.3651 0.75929 0.88024 0.0
C924 C 0.35419 0.77099 0.8468 0.0
C925 C 0.341 0.75971 0.81539 0.0
C926 C 0.33913 0.73585 0.81804 0.0
C927 C 0.35039 0.72361 0.85185 0.0
C928 C 0.36329 0.7356 0.88351 0.0
H929 H 0.40875 0.12037 0.09414 0.0
H930 H 0.4086 0.13505 0.23413 0.0
H931 H 0.4495 0.1257 0.23819 0.0
H932 H 0.45109 0.07352 0.09708 0.0
H933 H 0.46458 0.08237 0.04659 0.0
H934 H 0.43463 0.08773 0.05514 0.0
H935 H 0.4412 0.13077 0.04052 0.0
H936 H 0.47113 0.12555 0.03208 0.0
H937 H 0.46205 0.14603 0.07273 0.0
H938 H 0.49034 0.11747 0.22706 0.0
H939 H 0.52963 0.11166 0.2009 0.0
H940 H 0.50458 0.10316 0.06737 0.0
C941 C 0.4173 0.12113 0.1257 0.0
C942 C 0.40557 0.12827 0.16392 0.0
C943 C 0.41734 0.12962 0.20451 0.0
C944 C 0.44052 0.12425 0.20719 0.0
C945 C 0.45177 0.11768 0.16891 0.0
C946 C 0.44066 0.11612 0.12886 0.0
C947 C 0.45733 0.11032 0.09229 0.0
C948 C 0.45156 0.0871 0.07156 0.0
C949 C 0.45796 0.1293 0.05735 0.0
C950 C 0.47949 0.10925 0.11803 0.0
C951 C 0.47575 0.11331 0.16224 0.0
C952 C 0.49351 0.11408 0.19258 0.0
C953 C 0.51578 0.11081 0.17736 0.0
C954 C 0.52016 0.10692 0.13214 0.0
C955 C 0.50172 0.10592 0.10217 0.0
H956 H 0.14946 0.72535 0.15092 0.0
H957 H 0.12196 0.70169 0.02633 0.0
H958 H 0.11356 0.74149 0.00521 0.0
H959 H 0.10859 0.76877 0.16939 0.0
H960 H 0.12851 0.78867 0.19328 0.0
H961 H 0.13361 0.75848 0.19759 0.0
H962 H 0.17333 0.76364 0.16151 0.0
H963 H 0.16837 0.79389 0.1572 0.0
H964 H 0.17548 0.77759 0.1088 0.0
H965 H 0.10631 0.78345 -0.00071 0.0
H966 H 0.10122 0.82497 0.00835 0.0
H967 H 0.13372 0.8215 0.13656 0.0
C968 C 0.14189 0.72857 0.119 0.0
C969 C 0.1364 0.71047 0.09018 0.0
C970 C 0.12636 0.71533 0.04885 0.0
C971 C 0.12154 0.73787 0.03656 0.0
C972 C 0.12694 0.75531 0.06592 0.0
C973 C 0.13698 0.75096 0.1062 0.0
C974 C 0.14042 0.77275 0.13221 0.0
C975 C 0.12698 0.77212 0.17568 0.0
C976 C 0.16592 0.77723 0.14039 0.0
C977 C 0.13047 0.79 0.10049 0.0
C978 C 0.12285 0.77957 0.06241 0.0
C979 C 0.11236 0.79184 0.02881 0.0
C980 C 0.1095 0.81539 0.03431 0.0
C981 C 0.11713 0.82643 0.07309 0.0
C982 C 0.12787 0.81354 0.10643 0.0
H983 H 0.51774 0.89319 0.34205 0.0
H984 H 0.51598 0.92904 0.46696 0.0
H985 H 0.47453 0.92153 0.47258 0.0
H986 H 0.46144 0.91123 0.30251 0.0
H987 H 0.45569 0.88391 0.2776 0.0
H988 H 0.48461 0.89408 0.28186 0.0
H989 H 0.49589 0.85702 0.32299 0.0
H990 H 0.46699 0.84686 0.31932 0.0
H991 H 0.4807 0.84908 0.37225 0.0
H992 H 0.43355 0.90794 0.46628 0.0
H993 H 0.39647 0.8901 0.44783 0.0
H994 H 0.42591 0.86246 0.32815 0.0
C995 C 0.50857 0.89988 0.37018 0.0
C996 C 0.52001 0.91185 0.40393 0.0
C997 C 0.50748 0.91997 0.44058 0.0
C998 C 0.48396 0.91575 0.44407 0.0
C999 C 0.4733 0.9034 0.41066 0.0
C1000 C 0.48521 0.8957 0.3743 0.0
C1001 C 0.47011 0.88185 0.34399 0.0
C1002 C 0.46783 0.89347 0.29882 0.0
C1003 C 0.47895 0.85725 0.3394 0.0
C1004 C 0.44791 0.88265 0.36924 0.0
C1005 C 0.44999 0.89528 0.40745 0.0
C1006 C 0.43172 0.89811 0.43633 0.0
C1007 C 0.41076 0.88788 0.42567 0.0
C1008 C 0.40836 0.87485 0.38667 0.0
C1009 C 0.42724 0.87225 0.35828 0.0
H1010 H 0.39112 0.19047 0.58113 0.0
H1011 H 0.36349 0.16824 0.70653 0.0
H1012 H 0.35411 0.20812 0.72518 0.0
H1013 H 0.41635 0.24251 0.61988 0.0
H1014 H 0.40924 0.25858 0.57121 0.0
H1015 H 0.41374 0.22825 0.56752 0.0
H1016 H 0.37376 0.22335 0.53238 0.0
H1017 H 0.36913 0.25367 0.53595 0.0
H1018 H 0.34904 0.23426 0.56069 0.0
H1019 H 0.34864 0.25024 0.73116 0.0
H1020 H 0.34633 0.29207 0.72317 0.0
H1021 H 0.37646 0.28706 0.59304 0.0
C1022 C 0.38311 0.19402 0.6125 0.0
C1023 C 0.37808 0.1763 0.64248 0.0
C1024 C 0.36749 0.18157 0.68311 0.0
C1025 C 0.36211 0.20416 0.694 0.0
C1026 C 0.36731 0.22123 0.66379 0.0
C1027 C 0.37746 0.21647 0.62379 0.0
C1028 C 0.3811 0.23803 0.59719 0.0
C1029 C 0.40662 0.24208 0.58845 0.0
C1030 C 0.36744 0.23727 0.554 0.0
C1031 C 0.37152 0.25565 0.62863 0.0
C1032 C 0.36373 0.24557 0.6669 0.0
C1033 C 0.35458 0.25833 0.70128 0.0
C1034 C 0.35338 0.28206 0.69646 0.0
C1035 C 0.36114 0.29275 0.65746 0.0
C1036 C 0.37026 0.27932 0.6231 0.0
H1037 H 0.07137 0.12331 0.89844 0.0
H1038 H 0.07747 0.15133 0.76671 0.0
H1039 H 0.03616 0.14631 0.75548 0.0
H1040 H 0.02738 0.08114 0.87286 0.0
H1041 H 0.0125 0.0852 0.92417 0.0
H1042 H 0.04286 0.08977 0.92137 0.0
H1043 H 0.03759 0.13071 0.95187 0.0
H1044 H 0.00725 0.12625 0.95485 0.0
H1045 H 0.01847 0.15007 0.92422 0.0
H1046 H 0.99443 0.13968 0.75893 0.0
H1047 H 0.95412 0.13295 0.7778 0.0
H1048 H 0.97433 0.10952 0.90764 0.0
C1049 C 0.064 0.1282 0.86716 0.0
C1050 C 0.07761 0.13767 0.8334 0.0
C1051 C 0.06735 0.14407 0.79304 0.0
C1052 C 0.04392 0.14121 0.78627 0.0
C1053 C 0.03095 0.13195 0.82019 0.0
C1054 C 0.04053 0.12558 0.85989 0.0
C1055 C 0.02244 0.11695 0.89147 0.0
C1056 C 0.02655 0.09176 0.90314 0.0
C1057 C 0.02138 0.13189 0.93305 0.0
C1058 C 0.00123 0.11977 0.86344 0.0
C1059 C 0.00662 0.12827 0.82232 0.0
C1060 C 0.98997 0.13291 0.79092 0.0
C1061 C 0.96712 0.12903 0.80197 0.0
C1062 C 0.96111 0.12067 0.84412 0.0
C1063 C 0.97844 0.11576 0.87505 0.0
H1064 H 0.88533 0.72488 0.61824 0.0
H1065 H 0.82632 0.72163 0.70417 0.0
H1066 H 0.82797 0.76352 0.71409 0.0
H1067 H 0.91529 0.76942 0.67745 0.0
H1068 H 0.92593 0.78258 0.62794 0.0
H1069 H 0.92046 0.75235 0.62909 0.0
H1070 H 0.8937 0.75639 0.56159 0.0
H1071 H 0.89909 0.78661 0.56021 0.0
H1072 H 0.87022 0.77622 0.56386 0.0
H1073 H 0.83538 0.80617 0.71198 0.0
H1074 H 0.84805 0.84585 0.6981 0.0
H1075 H 0.90229 0.82039 0.61428 0.0
C1076 C 0.87283 0.73295 0.63937 0.0
C1077 C 0.8557 0.72006 0.66047 0.0
C1078 C 0.83961 0.73123 0.68774 0.0
C1079 C 0.84042 0.75498 0.69359 0.0
C1080 C 0.85748 0.76722 0.67207 0.0
C1081 C 0.87342 0.75654 0.6456 0.0
C1082 C 0.88972 0.77352 0.62531 0.0
C1083 C 0.9143 0.76921 0.6409 0.0
C1084 C 0.88807 0.77316 0.57475 0.0
C1085 C 0.88035 0.79548 0.64411 0.0
C1086 C 0.8618 0.79156 0.6711 0.0
C1087 C 0.84998 0.80942 0.69113 0.0
C1088 C 0.85728 0.83187 0.68308 0.0
C1089 C 0.87618 0.83615 0.65529 0.0
C1090 C 0.88788 0.81765 0.63594 0.0
H1091 H 0.93291 0.11188 0.42541 0.0
H1092 H 0.92759 0.12698 0.28602 0.0
H1093 H 0.96783 0.11625 0.27564 0.0
H1094 H 0.98762 0.13604 0.43856 0.0
H1095 H 0.99786 0.11532 0.47768 0.0
H1096 H 0.96781 0.1213 0.47391 0.0
H1097 H 0.95956 0.07845 0.46037 0.0
H1098 H 0.98963 0.07232 0.46425 0.0
H1099 H 0.97385 0.06384 0.41602 0.0
H1100 H 0.00851 0.10636 0.28019 0.0
H1101 H 0.04859 0.09937 0.3 0.0
H1102 H 0.0292 0.09222 0.43726 0.0
C1103 C 0.9402 0.1124 0.39268 0.0
C1104 C 0.92722 0.12001 0.35638 0.0
C1105 C 0.93733 0.12112 0.31416 0.0
C1106 C 0.96011 0.11498 0.30789 0.0
C1107 C 0.97265 0.10795 0.3443 0.0
C1108 C 0.96321 0.1067 0.38594 0.0
C1109 C 0.9812 0.10047 0.41982 0.0
C1110 C 0.98377 0.11942 0.45453 0.0
C1111 C 0.97573 0.0774 0.44138 0.0
C1112 C 0.00218 0.09885 0.39071 0.0
C1113 C 0.99668 0.1029 0.3472 0.0
C1114 C 0.01306 0.103 0.31408 0.0
C1115 C 0.03579 0.09904 0.3257 0.0
C1116 C 0.04201 0.09524 0.37013 0.0
C1117 C 0.02492 0.09496 0.403 0.0
H1118 H 0.63631 0.27126 0.17454 0.0
H1119 H 0.62094 0.29642 0.04349 0.0
H1120 H 0.61003 0.25756 0.02044 0.0
H1121 H 0.66049 0.2171 0.13896 0.0
H1122 H 0.64882 0.20138 0.18468 0.0
H1123 H 0.65568 0.23116 0.19093 0.0
H1124 H 0.61429 0.23932 0.21632 0.0
H1125 H 0.60728 0.20958 0.21003 0.0
H1126 H 0.5908 0.23094 0.1816 0.0
H1127 H 0.59901 0.21673 0.01249 0.0
H1128 H 0.59063 0.17564 0.01868 0.0
H1129 H 0.61465 0.17614 0.15382 0.0
C1130 C 0.63073 0.26854 0.14097 0.0
C1131 C 0.62941 0.28684 0.11078 0.0
C1132 C 0.62212 0.28263 0.0671 0.0
C1133 C 0.61585 0.26064 0.05372 0.0
C1134 C 0.61719 0.243 0.0843 0.0
C1135 C 0.62464 0.2466 0.12689 0.0
C1136 C 0.62457 0.22457 0.15305 0.0
C1137 C 0.64883 0.21818 0.16776 0.0
C1138 C 0.60826 0.22621 0.19258 0.0
C1139 C 0.61566 0.2081 0.11862 0.0
C1140 C 0.61143 0.21916 0.07929 0.0
C1141 C 0.60242 0.20782 0.04298 0.0
C1142 C 0.59765 0.18451 0.04687 0.0
C1143 C 0.60208 0.17273 0.08665 0.0
C1144 C 0.61129 0.18469 0.12291 0.0
H1145 H 0.57423 0.86603 0.82272 0.0
H1146 H 0.59613 0.86304 0.95908 0.0
H1147 H 0.55718 0.87333 0.98307 0.0
H1148 H 0.53668 0.91424 0.83475 0.0
H1149 H 0.51571 0.90335 0.79678 0.0
H1150 H 0.54529 0.89575 0.79034 0.0
H1151 H 0.53458 0.85287 0.79303 0.0
H1152 H 0.50497 0.86034 0.79932 0.0
H1153 H 0.51856 0.84208 0.8392 0.0
H1154 H 0.51586 0.8835 0.99212 0.0
H1155 H 0.47487 0.89255 0.98579 0.0
H1156 H 0.48003 0.88937 0.8434 0.0
C1157 C 0.57082 0.86751 0.85764 0.0
C1158 C 0.58816 0.86372 0.8891 0.0
C1159 C 0.58307 0.86587 0.93446 0.0
C1160 C 0.56103 0.87173 0.94837 0.0
C1161 C 0.54434 0.87543 0.91649 0.0
C1162 C 0.54896 0.8734 0.87207 0.0
C1163 C 0.52796 0.87821 0.84454 0.0
C1164 C 0.53164 0.89913 0.81486 0.0
C1165 C 0.52112 0.85712 0.81744 0.0
C1166 C 0.51076 0.88314 0.88043 0.0
C1167 C 0.52057 0.88147 0.92169 0.0
C1168 C 0.508 0.88493 0.96 0.0
C1169 C 0.48475 0.89007 0.95605 0.0
C1170 C 0.47432 0.89173 0.91411 0.0
C1171 C 0.48758 0.88835 0.87588 0.0
H1172 H 0.87747 0.29418 0.88407 0.0
H1173 H 0.81126 0.29673 0.82048 0.0
H1174 H 0.81083 0.25449 0.81626 0.0
H1175 H 0.90016 0.24836 0.82081 0.0
H1176 H 0.91548 0.23606 0.86645 0.0
H1177 H 0.91005 0.26628 0.86514 0.0
H1178 H 0.89037 0.26375 0.94143 0.0
H1179 H 0.89576 0.23352 0.94298 0.0
H1180 H 0.86707 0.24409 0.94922 0.0
H1181 H 0.81811 0.21147 0.81953 0.0
H1182 H 0.83282 0.17204 0.8285 0.0
H1183 H 0.89433 0.19899 0.8885 0.0
C1184 C 0.86282 0.2859 0.86934 0.0
C1185 C 0.84437 0.29868 0.85266 0.0
C1186 C 0.82557 0.2872 0.83349 0.0
C1187 C 0.82518 0.26325 0.831 0.0
C1188 C 0.84373 0.25115 0.84776 0.0
C1189 C 0.8622 0.26216 0.86648 0.0
C1190 C 0.88018 0.24546 0.88161 0.0
C1191 C 0.9028 0.24927 0.85702 0.0
C1192 C 0.88353 0.24679 0.93178 0.0
C1193 C 0.86908 0.22328 0.86825 0.0
C1194 C 0.848 0.22677 0.84902 0.0
C1195 C 0.83461 0.20857 0.83448 0.0
C1196 C 0.84306 0.18628 0.8397 0.0
C1197 C 0.86472 0.18252 0.85897 0.0
C1198 C 0.87776 0.20132 0.87337 0.0
H1199 H 0.56849 0.14079 0.65565 0.0
H1200 H 0.589 0.09555 0.5497 0.0
H1201 H 0.5485 0.08631 0.53535 0.0
H1202 H 0.5228 0.10628 0.69633 0.0
H1203 H 0.50467 0.13021 0.70912 0.0
H1204 H 0.5352 0.13347 0.7104 0.0
H1205 H 0.53236 0.16702 0.6551 0.0
H1206 H 0.50181 0.16388 0.65369 0.0
H1207 H 0.51798 0.16277 0.60329 0.0
H1208 H 0.5057 0.08205 0.5329 0.0
H1209 H 0.46385 0.08288 0.54276 0.0
H1210 H 0.4717 0.13065 0.65086 0.0
C1211 C 0.56447 0.12898 0.62934 0.0
C1212 C 0.58184 0.11889 0.60371 0.0
C1213 C 0.57592 0.10348 0.56969 0.0
C1214 C 0.55299 0.09814 0.56131 0.0
C1215 C 0.53627 0.10836 0.5873 0.0
C1216 C 0.54174 0.12345 0.62062 0.0
C1217 C 0.52062 0.13198 0.64402 0.0
C1218 C 0.52084 0.12506 0.69286 0.0
C1219 C 0.51804 0.15795 0.63868 0.0
C1220 C 0.50238 0.11928 0.61877 0.0
C1221 C 0.51173 0.10579 0.5861 0.0
C1222 C 0.49819 0.09254 0.55838 0.0
C1223 C 0.47446 0.09312 0.56422 0.0
C1224 C 0.46458 0.10679 0.5976 0.0
C1225 C 0.47878 0.11999 0.62515 0.0
H1226 H 0.64346 0.74357 0.31911 0.0
H1227 H 0.61582 0.71656 0.44104 0.0
H1228 H 0.60314 0.75503 0.46221 0.0
H1229 H 0.66412 0.79683 0.36595 0.0
H1230 H 0.65695 0.81359 0.31819 0.0
H1231 H 0.66405 0.78385 0.31215 0.0
H1232 H 0.62559 0.77677 0.27244 0.0
H1233 H 0.61834 0.80647 0.27846 0.0
H1234 H 0.59935 0.78482 0.29918 0.0
H1235 H 0.59225 0.79544 0.46952 0.0
H1236 H 0.58528 0.83671 0.46465 0.0
H1237 H 0.6209 0.83893 0.33939 0.0
C1238 C 0.63479 0.74583 0.35029 0.0
C1239 C 0.63059 0.72708 0.37844 0.0
C1240 C 0.61926 0.73066 0.41901 0.0
C1241 C 0.61195 0.75245 0.43132 0.0
C1242 C 0.61623 0.77053 0.40286 0.0
C1243 C 0.62752 0.7676 0.36335 0.0
C1244 C 0.63001 0.79015 0.33925 0.0
C1245 C 0.65529 0.79648 0.33356 0.0
C1246 C 0.61758 0.7895 0.29469 0.0
C1247 C 0.61819 0.8061 0.37132 0.0
C1248 C 0.61032 0.79428 0.40762 0.0
C1249 C 0.59842 0.80495 0.44142 0.0
C1250 C 0.59449 0.8284 0.43823 0.0
C1251 C 0.60257 0.84102 0.40167 0.0
C1252 C 0.61463 0.82971 0.36779 0.0
H1253 H 0.9383 0.8514 0.16413 0.0
H1254 H 0.90835 0.88778 0.05403 0.0
H1255 H 0.94654 0.90261 0.03391 0.0
H1256 H 0.97895 0.89488 0.19386 0.0
H1257 H 0.00074 0.87462 0.20883 0.0
H1258 H 0.97108 0.8671 0.21426 0.0
H1259 H 0.97753 0.8315 0.16513 0.0
H1260 H 0.0072 0.83886 0.15968 0.0
H1261 H 0.9899 0.83496 0.11121 0.0
H1262 H 0.98855 0.91229 0.02487 0.0
H1263 H 0.03055 0.91644 0.02828 0.0
H1264 H 0.03201 0.87458 0.14597 0.0
C1265 C 0.93974 0.86247 0.13573 0.0
C1266 C 0.92044 0.86839 0.11046 0.0
C1267 C 0.92299 0.88304 0.07376 0.0
C1268 C 0.94458 0.89153 0.06215 0.0
C1269 C 0.96329 0.88535 0.08787 0.0
C1270 C 0.96102 0.87122 0.124 0.0
C1271 C 0.98368 0.86708 0.14635 0.0
C1272 C 0.9836 0.87649 0.19362 0.0
C1273 C 0.98994 0.84159 0.14551 0.0
C1274 C 0.99919 0.88086 0.11687 0.0
C1275 C 0.98718 0.89129 0.08329 0.0
C1276 C 0.99809 0.90433 0.05122 0.0
C1277 C 0.02191 0.9066 0.05341 0.0
C1278 C 0.03446 0.89595 0.08754 0.0
C1279 C 0.02285 0.88312 0.11977 0.0
H1280 H 0.62533 0.77387 0.88857 0.0
H1281 H 0.67641 0.77486 0.78528 0.0
H1282 H 0.67366 0.73285 0.77883 0.0
H1283 H 0.64341 0.72189 0.94039 0.0
H1284 H 0.61478 0.71258 0.95243 0.0
H1285 H 0.62111 0.74259 0.94901 0.0
H1286 H 0.58957 0.74749 0.88993 0.0
H1287 H 0.58317 0.71749 0.89312 0.0
H1288 H 0.59035 0.73017 0.84089 0.0
H1289 H 0.66548 0.69037 0.78475 0.0
H1290 H 0.65183 0.65129 0.80136 0.0
H1291 H 0.60547 0.67892 0.89907 0.0
C1292 C 0.636 0.76525 0.86468 0.0
C1293 C 0.65115 0.77757 0.83753 0.0
C1294 C 0.6647 0.76571 0.80644 0.0
C1295 C 0.66326 0.74187 0.80257 0.0
C1296 C 0.6481 0.73023 0.82984 0.0
C1297 C 0.63466 0.74156 0.86017 0.0
C1298 C 0.6195 0.72521 0.88519 0.0
C1299 C 0.62504 0.72559 0.93468 0.0
C1300 C 0.59415 0.7304 0.87675 0.0
C1301 C 0.62652 0.70287 0.86431 0.0
C1302 C 0.6431 0.70604 0.83257 0.0
C1303 C 0.65244 0.68772 0.80942 0.0
C1304 C 0.64461 0.66561 0.81905 0.0
C1305 C 0.62754 0.66212 0.8513 0.0
C1306 C 0.61842 0.68106 0.874 0.0
H1307 H 0.46581 0.37381 0.15407 0.0
H1308 H 0.46614 0.42793 0.05664 0.0
H1309 H 0.5083 0.42706 0.05553 0.0
H1310 H 0.51598 0.39286 0.21426 0.0
H1311 H 0.52586 0.36425 0.22466 0.0
H1312 H 0.49579 0.36979 0.2189 0.0
H1313 H 0.49335 0.33956 0.15678 0.0
H1314 H 0.5234 0.33396 0.1623 0.0
H1315 H 0.51183 0.34203 0.10959 0.0
H1316 H 0.55032 0.41906 0.06274 0.0
H1317 H 0.58918 0.40494 0.07862 0.0
H1318 H 0.56123 0.35641 0.17202 0.0
C1319 C 0.47476 0.38559 0.13272 0.0
C1320 C 0.46275 0.40095 0.10543 0.0
C1321 C 0.47504 0.41606 0.07786 0.0
C1322 C 0.49896 0.41569 0.07702 0.0
C1323 C 0.51028 0.40021 0.1041 0.0
C1324 C 0.49859 0.3855 0.13158 0.0
C1325 C 0.51478 0.37021 0.1568 0.0
C1326 C 0.51299 0.37455 0.20661 0.0
C1327 C 0.51058 0.34494 0.14568 0.0
C1328 C 0.5374 0.37838 0.13878 0.0
C1329 C 0.53445 0.39573 0.10852 0.0
C1330 C 0.55285 0.40559 0.0866 0.0
C1331 C 0.57483 0.39744 0.09578 0.0
C1332 C 0.57819 0.37965 0.12662 0.0
C1333 C 0.5592 0.37014 0.14849 0.0
H1334 H 0.85384 0.22527 0.3403 0.0
H1335 H 0.87386 0.20206 0.47033 0.0
H1336 H 0.88106 0.24187 0.49271 0.0
H1337 H 0.89606 0.26748 0.33017 0.0
H1338 H 0.87834 0.28783 0.30173 0.0
H1339 H 0.87249 0.25779 0.29693 0.0
H1340 H 0.83115 0.26444 0.32417 0.0
H1341 H 0.83683 0.29457 0.3288 0.0
H1342 H 0.82643 0.27892 0.37574 0.0
H1343 H 0.88882 0.28338 0.49946 0.0
H1344 H 0.89625 0.32449 0.49066 0.0
H1345 H 0.87146 0.32129 0.35612 0.0
C1346 C 0.85932 0.22864 0.37372 0.0
C1347 C 0.86319 0.21063 0.4037 0.0
C1348 C 0.87074 0.21563 0.4469 0.0
C1349 C 0.87483 0.23817 0.45994 0.0
C1350 C 0.87128 0.25551 0.42939 0.0
C1351 C 0.86361 0.25108 0.38723 0.0
C1352 C 0.86243 0.27278 0.36015 0.0
C1353 C 0.87828 0.27138 0.31987 0.0
C1354 C 0.83774 0.27798 0.34641 0.0
C1355 C 0.87106 0.28999 0.39345 0.0
C1356 C 0.8759 0.27964 0.43324 0.0
C1357 C 0.8849 0.29174 0.46862 0.0
C1358 C 0.88913 0.31507 0.46323 0.0
C1359 C 0.8844 0.32607 0.42274 0.0
C1360 C 0.87509 0.31335 0.38753 0.0
H1361 H 0.93286 0.6419 0.67102 0.0
H1362 H 0.90824 0.60577 0.55572 0.0
H1363 H 0.94756 0.59294 0.5396 0.0
H1364 H 0.98467 0.66165 0.62487 0.0
H1365 H 0.00107 0.65796 0.67455 0.0
H1366 H 0.97092 0.66347 0.67783 0.0
H1367 H 0.96542 0.62674 0.7241 0.0
H1368 H 0.99559 0.62112 0.72101 0.0
H1369 H 0.97548 0.59984 0.70287 0.0
H1370 H 0.9899 0.58599 0.53388 0.0
H1371 H 0.03192 0.58438 0.54029 0.0
H1372 H 0.02848 0.62406 0.6607 0.0
C1373 C 0.93571 0.63117 0.64252 0.0
C1374 C 0.91755 0.62484 0.61453 0.0
C1375 C 0.92194 0.61077 0.57761 0.0
C1376 C 0.9442 0.60341 0.56821 0.0
C1377 C 0.96177 0.61011 0.59632 0.0
C1378 C 0.95774 0.62354 0.63289 0.0
C1379 C 0.97961 0.62865 0.6575 0.0
C1380 C 0.98434 0.65447 0.65873 0.0
C1381 C 0.97898 0.61848 0.70413 0.0
C1382 C 0.99665 0.6163 0.62867 0.0
C1383 C 0.98603 0.60571 0.59355 0.0
C1384 C 0.99838 0.59402 0.56148 0.0
C1385 C 0.02221 0.59323 0.56535 0.0
C1386 C 0.03339 0.60396 0.60112 0.0
C1387 C 0.02037 0.61547 0.63329 0.0
H1388 H 0.65161 0.21575 0.67073 0.0
H1389 H 0.63851 0.19782 0.53433 0.0
H1390 H 0.63051 0.23809 0.51744 0.0
H1391 H 0.6079 0.25735 0.68048 0.0
H1392 H 0.62413 0.27672 0.71429 0.0
H1393 H 0.63012 0.2466 0.71587 0.0
H1394 H 0.67237 0.2545 0.6962 0.0
H1395 H 0.66655 0.28467 0.69484 0.0
H1396 H 0.67905 0.27086 0.64764 0.0
H1397 H 0.62133 0.27913 0.51581 0.0
H1398 H 0.61376 0.31988 0.52828 0.0
H1399 H 0.63383 0.3126 0.66515 0.0
C1400 C 0.64735 0.22039 0.63723 0.0
C1401 C 0.6457 0.20365 0.6038 0.0
C1402 C 0.63992 0.21034 0.56043 0.0
C1403 C 0.63532 0.23317 0.55049 0.0
C1404 C 0.63672 0.24918 0.58421 0.0
C1405 C 0.6428 0.24323 0.62661 0.0
C1406 C 0.64259 0.26394 0.65668 0.0
C1407 C 0.62514 0.26096 0.69403 0.0
C1408 C 0.66657 0.26878 0.67491 0.0
C1409 C 0.63515 0.28232 0.62457 0.0
C1410 C 0.63182 0.27329 0.58303 0.0
C1411 C 0.62408 0.28649 0.54806 0.0
C1412 C 0.61973 0.3096 0.55557 0.0
C1413 C 0.62326 0.3194 0.59765 0.0
C1414 C 0.63116 0.30557 0.63259 0.0
H1415 H 0.02533 0.37932 0.84678 0.0
H1416 H 0.03131 0.42145 0.9637 0.0
H1417 H 0.98932 0.42171 0.97126 0.0
H1418 H 0.97469 0.40583 0.80334 0.0
H1419 H 0.96282 0.37941 0.7834 0.0
H1420 H 0.99329 0.38283 0.7871 0.0
H1421 H 0.99584 0.34661 0.83578 0.0
H1422 H 0.96539 0.34309 0.83227 0.0
H1423 H 0.97902 0.34488 0.88533 0.0
H1424 H 0.94655 0.41682 0.96647 0.0
H1425 H 0.90637 0.40732 0.94925 0.0
H1426 H 0.92881 0.36857 0.83548 0.0
C1427 C 0.0178 0.38868 0.87388 0.0
C1428 C 0.03153 0.40039 0.90464 0.0
C1429 C 0.02107 0.41236 0.93975 0.0
C1430 C 0.99726 0.41261 0.94431 0.0
C1431 C 0.9842 0.40081 0.91349 0.0
C1432 C 0.99411 0.38908 0.87894 0.0
C1433 C 0.97631 0.37756 0.85054 0.0
C1434 C 0.97681 0.38698 0.8033 0.0
C1435 C 0.97933 0.35149 0.85103 0.0
C1436 C 0.95483 0.38467 0.87445 0.0
C1437 C 0.95969 0.39804 0.91071 0.0
C1438 C 0.94253 0.4064 0.9381 0.0
C1439 C 0.9198 0.40092 0.92811 0.0
C1440 C 0.91451 0.38727 0.89104 0.0
C1441 C 0.93231 0.37911 0.86397 0.0
H1442 H 0.88189 0.76859 0.10335 0.0
H1443 H 0.83472 0.77016 0.21331 0.0
H1444 H 0.83575 0.72798 0.21701 0.0
H1445 H 0.85922 0.71872 0.05108 0.0
H1446 H 0.88674 0.70818 0.03423 0.0
H1447 H 0.88223 0.73838 0.0406 0.0
H1448 H 0.91616 0.74048 0.09519 0.0
H1449 H 0.92078 0.71028 0.08899 0.0
H1450 H 0.91633 0.72225 0.14297 0.0
H1451 H 0.84187 0.68538 0.20787 0.0
H1452 H 0.85288 0.64602 0.1871 0.0
H1453 H 0.89623 0.67301 0.08375 0.0
C1454 C 0.87177 0.76008 0.12822 0.0
C1455 C 0.8582 0.7726 0.15803 0.0
C1456 C 0.84523 0.76085 0.19016 0.0
C1457 C 0.84571 0.73693 0.19249 0.0
C1458 C 0.85929 0.72508 0.16253 0.0
C1459 C 0.8721 0.73629 0.13108 0.0
C1460 C 0.88534 0.71969 0.10279 0.0
C1461 C 0.87793 0.72135 0.05431 0.0
C1462 C 0.91118 0.7234 0.10781 0.0
C1463 C 0.87793 0.69735 0.12311 0.0
C1464 C 0.8629 0.70075 0.15751 0.0
C1465 C 0.85367 0.68253 0.18104 0.0
C1466 C 0.86 0.66026 0.16903 0.0
C1467 C 0.87541 0.65649 0.1339 0.0
C1468 C 0.88445 0.67534 0.11083 0.0
H1469 H 0.57582 0.63422 0.41893 0.0
H1470 H 0.58487 0.62487 0.27841 0.0
H1471 H 0.54593 0.60938 0.27253 0.0
H1472 H 0.53831 0.58378 0.43809 0.0
H1473 H 0.52053 0.59887 0.47677 0.0
H1474 H 0.55027 0.60621 0.47152 0.0
H1475 H 0.53915 0.64821 0.45597 0.0
H1476 H 0.50943 0.64099 0.46096 0.0
H1477 H 0.51975 0.65452 0.41156 0.0
H1478 H 0.50567 0.59818 0.27984 0.0
H1479 H 0.46535 0.59266 0.29972 0.0
H1480 H 0.48086 0.61031 0.43529 0.0
C1481 C 0.5697 0.62832 0.38728 0.0
C1482 C 0.58328 0.63047 0.34915 0.0
C1483 C 0.57464 0.62327 0.30795 0.0
C1484 C 0.55262 0.61436 0.30432 0.0
C1485 C 0.53937 0.61293 0.34217 0.0
C1486 C 0.54746 0.61971 0.38292 0.0
C1487 C 0.52878 0.61833 0.41741 0.0
C1488 C 0.53484 0.60074 0.45306 0.0
C1489 C 0.524 0.64191 0.43765 0.0
C1490 C 0.50893 0.61023 0.38939 0.0
C1491 C 0.51559 0.60693 0.34625 0.0
C1492 C 0.50024 0.60046 0.3136 0.0
C1493 C 0.47736 0.59743 0.3252 0.0
C1494 C 0.46999 0.60102 0.36901 0.0
C1495 C 0.48606 0.60727 0.4016 0.0
H1496 H 0.36333 0.32728 0.16613 0.0
H1497 H 0.38434 0.3279 0.02913 0.0
H1498 H 0.37479 0.28711 0.02279 0.0
H1499 H 0.38643 0.27241 0.19097 0.0
H1500 H 0.36361 0.26423 0.22744 0.0
H1501 H 0.37076 0.2939 0.22078 0.0
H1502 H 0.32898 0.3027 0.19867 0.0
H1503 H 0.32171 0.27303 0.20519 0.0
H1504 H 0.31611 0.28727 0.15374 0.0
H1505 H 0.36396 0.24642 0.03117 0.0
H1506 H 0.35406 0.20745 0.05487 0.0
H1507 H 0.34088 0.2324 0.18702 0.0
C1508 C 0.36571 0.31883 0.13476 0.0
C1509 C 0.37448 0.33073 0.09806 0.0
C1510 C 0.37766 0.31908 0.05767 0.0
C1511 C 0.3722 0.29594 0.05367 0.0
C1512 C 0.36369 0.28465 0.09043 0.0
C1513 C 0.36055 0.29559 0.13028 0.0
C1514 C 0.35213 0.27909 0.1651 0.0
C1515 C 0.36926 0.27731 0.20332 0.0
C1516 C 0.32832 0.28593 0.18164 0.0
C1517 C 0.35124 0.25719 0.1386 0.0
C1518 C 0.35778 0.26088 0.09551 0.0
C1519 C 0.35872 0.24329 0.06478 0.0
C1520 C 0.35306 0.22122 0.07856 0.0
C1521 C 0.34668 0.21692 0.12273 0.0
C1522 C 0.34559 0.23521 0.15299 0.0
H1523 H 0.42854 0.62999 0.91772 0.0
H1524 H 0.4219 0.64099 0.777 0.0
H1525 H 0.46153 0.6285 0.76609 0.0
H1526 H 0.4858 0.65167 0.92489 0.0
H1527 H 0.49492 0.6315 0.96605 0.0
H1528 H 0.46541 0.63986 0.96299 0.0
H1529 H 0.4536 0.59744 0.95562 0.0
H1530 H 0.48311 0.58896 0.95842 0.0
H1531 H 0.46579 0.58029 0.91233 0.0
H1532 H 0.50134 0.61511 0.76948 0.0
H1533 H 0.54094 0.60491 0.78786 0.0
H1534 H 0.52352 0.60432 0.92678 0.0
C1535 C 0.43549 0.62962 0.8847 0.0
C1536 C 0.42219 0.63639 0.84817 0.0
C1537 C 0.43185 0.63599 0.80546 0.0
C1538 C 0.45429 0.62877 0.79885 0.0
C1539 C 0.467 0.62224 0.83535 0.0
C1540 C 0.45816 0.62284 0.87752 0.0
C1541 C 0.47616 0.61623 0.91107 0.0
C1542 C 0.48085 0.636 0.94314 0.0
C1543 C 0.46925 0.59443 0.93582 0.0
C1544 C 0.49641 0.61195 0.88105 0.0
C1545 C 0.49055 0.61522 0.83748 0.0
C1546 C 0.5062 0.61249 0.80346 0.0
C1547 C 0.52865 0.60665 0.81425 0.0
C1548 C 0.5353 0.60384 0.85871 0.0
C1549 C 0.51888 0.6063 0.89249 0.0
H1550 H 0.09464 0.68575 0.6334 0.0
H1551 H 0.1599 0.65793 0.67391 0.0
H1552 H 0.17374 0.69695 0.69015 0.0
H1553 H 0.11678 0.73296 0.57733 0.0
H1554 H 0.09419 0.75219 0.59289 0.0
H1555 H 0.08869 0.72206 0.58916 0.0
H1556 H 0.07417 0.7218 0.66975 0.0
H1557 H 0.0795 0.75201 0.67367 0.0
H1558 H 0.09221 0.73277 0.71291 0.0
H1559 H 0.18094 0.73932 0.69814 0.0
H1560 H 0.18128 0.78152 0.69535 0.0
H1561 H 0.11169 0.78109 0.64674 0.0
C1562 C 0.1117 0.68782 0.64649 0.0
C1563 C 0.12616 0.66886 0.6528 0.0
C1564 C 0.14852 0.67227 0.66912 0.0
C1565 C 0.1565 0.69433 0.67847 0.0
C1566 C 0.1419 0.71272 0.67114 0.0
C1567 C 0.11997 0.70966 0.65551 0.0
C1568 C 0.10816 0.73223 0.64761 0.0
C1569 C 0.10158 0.73501 0.59885 0.0
C1570 C 0.08728 0.73485 0.67779 0.0
C1571 C 0.12699 0.74853 0.66053 0.0
C1572 C 0.14623 0.73699 0.67454 0.0
C1573 C 0.16593 0.74852 0.68743 0.0
C1574 C 0.16597 0.77245 0.68571 0.0
C1575 C 0.14653 0.7845 0.67074 0.0
C1576 C 0.12681 0.77232 0.65827 0.0
H1577 H 0.06803 0.34869 0.34167 0.0
H1578 H 0.09544 0.38104 0.4588 0.0
H1579 H 0.0568 0.39478 0.4781 0.0
H1580 H 0.02784 0.39266 0.31485 0.0
H1581 H 0.00632 0.37305 0.29578 0.0
H1582 H 0.03603 0.36556 0.29165 0.0
H1583 H 0.02852 0.32848 0.33578 0.0
H1584 H 0.99877 0.33579 0.33987 0.0
H1585 H 0.01506 0.33022 0.38903 0.0
H1586 H 0.01505 0.40462 0.48468 0.0
H1587 H 0.97335 0.4098 0.47823 0.0
H1588 H 0.97369 0.37163 0.3558 0.0
C1589 C 0.06591 0.35859 0.37149 0.0
C1590 C 0.08468 0.36376 0.39888 0.0
C1591 C 0.08125 0.37687 0.43745 0.0
C1592 C 0.05939 0.38476 0.44862 0.0
C1593 C 0.04126 0.37944 0.42073 0.0
C1594 C 0.0443 0.36667 0.38296 0.0
C1595 C 0.02207 0.36339 0.35843 0.0
C1596 C 0.02314 0.37432 0.31246 0.0
C1597 C 0.01574 0.33796 0.35564 0.0
C1598 C 0.00598 0.37625 0.38838 0.0
C1599 C 0.01736 0.38537 0.42416 0.0
C1600 C 0.00598 0.39762 0.45673 0.0
C1601 C 0.98232 0.40048 0.45277 0.0
C1602 C 0.97035 0.3912 0.41643 0.0
C1603 C 0.98242 0.37907 0.38376 0.0
H1604 H 0.38922 0.6776 0.4232 0.0
H1605 H 0.37307 0.65347 0.29176 0.0
H1606 H 0.36176 0.69256 0.27038 0.0
H1607 H 0.34248 0.71712 0.43188 0.0
H1608 H 0.35871 0.73812 0.46188 0.0
H1609 H 0.36582 0.70833 0.4666 0.0
H1610 H 0.40732 0.71709 0.44264 0.0
H1611 H 0.40036 0.7469 0.43789 0.0
H1612 H 0.41236 0.7319 0.39157 0.0
H1613 H 0.35279 0.73424 0.26314 0.0
H1614 H 0.34592 0.7756 0.27077 0.0
H1615 H 0.36696 0.77238 0.40761 0.0
C1616 C 0.38335 0.68055 0.38988 0.0
C1617 C 0.38207 0.66256 0.35903 0.0
C1618 C 0.37418 0.66704 0.31586 0.0
C1619 C 0.36773 0.68916 0.30344 0.0
C1620 C 0.36917 0.70652 0.33468 0.0
C1621 C 0.3767 0.70247 0.37705 0.0
C1622 C 0.37639 0.72406 0.40445 0.0
C1623 C 0.35986 0.72176 0.44351 0.0
C1624 C 0.40055 0.73036 0.42004 0.0
C1625 C 0.36759 0.74095 0.37079 0.0
C1626 C 0.3636 0.73048 0.33074 0.0
C1627 C 0.35577 0.74261 0.29437 0.0
C1628 C 0.35194 0.76609 0.29903 0.0
C1629 C 0.35584 0.77715 0.33981 0.0
C1630 C 0.3637 0.76435 0.37612 0.0
H1631 H 0.96924 0.61442 0.14729 0.0
H1632 H 0.96856 0.56674 0.03801 0.0
H1633 H 0.01061 0.56922 0.03319 0.0
H1634 H 0.01242 0.65046 0.10492 0.0
H1635 H 0.02527 0.65619 0.15768 0.0
H1636 H 0.99536 0.6495 0.15425 0.0
H1637 H 0.00094 0.61623 0.20937 0.0
H1638 H 0.03088 0.62285 0.21307 0.0
H1639 H 0.02188 0.59452 0.19787 0.0
H1640 H 0.05265 0.57811 0.03871 0.0
H1641 H 0.09137 0.59299 0.0537 0.0
H1642 H 0.06415 0.63517 0.1587 0.0
C1643 C 0.97795 0.6043 0.12266 0.0
C1644 C 0.96569 0.5903 0.09313 0.0
C1645 C 0.97767 0.57752 0.06103 0.0
C1646 C 0.00152 0.5788 0.05809 0.0
C1647 C 0.01309 0.59296 0.08745 0.0
C1648 C 0.00169 0.60546 0.11915 0.0
C1649 C 0.01798 0.62005 0.14564 0.0
C1650 C 0.01242 0.64556 0.14027 0.0
C1651 C 0.01792 0.61298 0.19437 0.0
C1652 C 0.04032 0.61398 0.12365 0.0
C1653 C 0.03718 0.59823 0.09033 0.0
C1654 C 0.05532 0.59037 0.06485 0.0
C1655 C 0.07723 0.59892 0.07357 0.0
C1656 C 0.08074 0.6152 0.10734 0.0
C1657 C 0.06201 0.62269 0.13273 0.0
H1658 H 0.12746 0.22239 0.90132 0.0
H1659 H 0.17094 0.22073 0.78584 0.0
H1660 H 0.16776 0.26268 0.77926 0.0
H1661 H 0.08932 0.26433 0.8617 0.0
H1662 H 0.08534 0.27791 0.91437 0.0
H1663 H 0.09235 0.24805 0.91169 0.0
H1664 H 0.12752 0.25488 0.96176 0.0
H1665 H 0.12051 0.28476 0.96487 0.0
H1666 H 0.14836 0.27601 0.94626 0.0
H1667 H 0.1589 0.30495 0.7846 0.0
H1668 H 0.14481 0.34388 0.80122 0.0
H1669 H 0.1062 0.31702 0.91146 0.0
C1670 C 0.13657 0.23088 0.87499 0.0
C1671 C 0.14956 0.21838 0.84424 0.0
C1672 C 0.16097 0.23005 0.80987 0.0
C1673 C 0.15926 0.25384 0.80587 0.0
C1674 C 0.14602 0.26564 0.83642 0.0
C1675 C 0.13489 0.25453 0.87033 0.0
C1676 C 0.12104 0.27095 0.89786 0.0
C1677 C 0.0955 0.26495 0.89628 0.0
C1678 C 0.1299 0.27169 0.9455 0.0
C1679 C 0.12592 0.29303 0.87395 0.0
C1680 C 0.1405 0.28971 0.8388 0.0
C1681 C 0.14748 0.30775 0.81205 0.0
C1682 C 0.13938 0.32975 0.82166 0.0
C1683 C 0.12434 0.33339 0.85741 0.0
C1684 C 0.11756 0.31474 0.88368 0.0
H1685 H 0.43909 0.36326 0.67512 0.0
H1686 H 0.41697 0.39431 0.55267 0.0
H1687 H 0.45697 0.4039 0.53494 0.0
H1688 H 0.4836 0.40366 0.70006 0.0
H1689 H 0.50267 0.38242 0.72209 0.0
H1690 H 0.47228 0.37827 0.72542 0.0
H1691 H 0.47624 0.33942 0.68536 0.0
H1692 H 0.50664 0.34341 0.68206 0.0
H1693 H 0.49037 0.33825 0.63271 0.0
H1694 H 0.4993 0.40988 0.53044 0.0
H1695 H 0.54121 0.41081 0.53828 0.0
H1696 H 0.53569 0.37565 0.66354 0.0
C1697 C 0.44267 0.3721 0.64459 0.0
C1698 C 0.42497 0.37808 0.61525 0.0
C1699 C 0.4303 0.38957 0.57558 0.0
C1700 C 0.45294 0.39512 0.56529 0.0
C1701 C 0.46999 0.38904 0.595 0.0
C1702 C 0.46515 0.37772 0.63377 0.0
C1703 C 0.48665 0.37277 0.65969 0.0
C1704 C 0.48627 0.38502 0.70446 0.0
C1705 C 0.49018 0.34693 0.66526 0.0
C1706 C 0.50437 0.38301 0.62935 0.0
C1707 C 0.4944 0.39239 0.59232 0.0
C1708 C 0.50731 0.40263 0.55932 0.0
C1709 C 0.53108 0.4031 0.5641 0.0
C1710 C 0.54167 0.39334 0.60154 0.0
C1711 C 0.52807 0.38332 0.63465 0.0
H1712 H 0.11186 0.07473 0.55769 0.0
H1713 H 0.17608 0.09432 0.4978 0.0
H1714 H 0.19322 0.09868 0.57147 0.0
H1715 H 0.11192 0.11384 0.63885 0.0
H1716 H 0.09974 0.09611 0.68122 0.0
H1717 H 0.094 0.08998 0.62441 0.0
H1718 H 0.10937 0.04886 0.63477 0.0
H1719 H 0.11517 0.0549 0.6919 0.0
H1720 H 0.13763 0.04457 0.65664 0.0
H1721 H 0.2006 0.1089 0.64949 0.0
H1722 H 0.19802 0.12251 0.72637 0.0
H1723 H 0.13009 0.09393 0.73662 0.0
C1724 C 0.12973 0.07924 0.56014 0.0
C1725 C 0.14267 0.08418 0.52221 0.0
C1726 C 0.1659 0.09034 0.52653 0.0
C1727 C 0.17581 0.09277 0.56823 0.0
C1728 C 0.16237 0.08851 0.60514 0.0
C1729 C 0.13992 0.0815 0.6015 0.0
C1730 C 0.12845 0.08042 0.64605 0.0
C1731 C 0.1073 0.09602 0.6477 0.0
C1732 C 0.1223 0.05571 0.65804 0.0
C1733 C 0.14748 0.08934 0.67496 0.0
C1734 C 0.16704 0.09358 0.65087 0.0
C1735 C 0.18571 0.10493 0.66909 0.0
C1736 C 0.1841 0.11265 0.71265 0.0
C1737 C 0.16406 0.1088 0.73739 0.0
C1738 C 0.1459 0.09633 0.71879 0.0
H1739 H 0.18155 0.86688 0.80372 0.0
H1740 H 0.15154 0.9262 0.74149 0.0
H1741 H 0.1492 0.94533 0.81362 0.0
H1742 H 0.14687 0.86364 0.8865 0.0
H1743 H 0.1667 0.85511 0.92876 0.0
H1744 H 0.17298 0.84915 0.87225 0.0
H1745 H 0.21137 0.87077 0.87884 0.0
H1746 H 0.2053 0.87665 0.93593 0.0
H1747 H 0.21171 0.89974 0.89875 0.0
H1748 H 0.13939 0.95268 0.8913 0.0
H1749 H 0.12546 0.9486 0.96758 0.0
H1750 H 0.16348 0.88565 0.9809 0.0
C1751 C 0.17551 0.88432 0.80512 0.0
C1752 C 0.16673 0.89509 0.76726 0.0
C1753 C 0.15854 0.91773 0.77015 0.0
C1754 C 0.1572 0.92875 0.81102 0.0
C1755 C 0.16461 0.91707 0.84838 0.0
C1756 C 0.17418 0.89552 0.84564 0.0
C1757 C 0.1775 0.88514 0.8908 0.0
C1758 C 0.16526 0.86192 0.89477 0.0
C1759 C 0.20299 0.88296 0.90172 0.0
C1760 C 0.1663 0.90321 0.91902 0.0
C1761 C 0.1595 0.92178 0.89414 0.0
C1762 C 0.1454 0.93871 0.9115 0.0
C1763 C 0.13746 0.93622 0.95475 0.0
C1764 C 0.14372 0.91699 0.98006 0.0
C1765 C 0.15908 0.90088 0.96259 0.0
H1766 H 0.35111 0.88067 0.02054 0.0
H1767 H 0.38879 0.94333 0.04151 0.0
H1768 H 0.37467 0.945 0.11804 0.0
H1769 H 0.30206 0.89292 0.09924 0.0
H1770 H 0.30162 0.86359 0.11701 0.0
H1771 H 0.3095 0.87051 0.06121 0.0
H1772 H 0.34755 0.84859 0.07115 0.0
H1773 H 0.33987 0.84171 0.12673 0.0
H1774 H 0.36633 0.8563 0.11577 0.0
H1775 H 0.36224 0.93652 0.1944 0.0
H1776 H 0.35494 0.91723 0.26525 0.0
H1777 H 0.32686 0.85913 0.19538 0.0
C1778 C 0.35561 0.8952 0.0408 0.0
C1779 C 0.37075 0.91202 0.02527 0.0
C1780 C 0.37703 0.93037 0.05294 0.0
C1781 C 0.36896 0.93154 0.09628 0.0
C1782 C 0.35468 0.9142 0.11129 0.0
C1783 C 0.34803 0.89636 0.08432 0.0
C1784 C 0.33588 0.87794 0.11013 0.0
C1785 C 0.31077 0.87614 0.09606 0.0
C1786 C 0.34816 0.85479 0.10569 0.0
C1787 C 0.33798 0.88754 0.15615 0.0
C1788 C 0.34816 0.90882 0.156 0.0
C1789 C 0.35382 0.92009 0.19493 0.0
C1790 C 0.34964 0.90901 0.23499 0.0
C1791 C 0.34034 0.88674 0.23558 0.0
C1792 C 0.33378 0.87626 0.19577 0.0
H1793 H 0.37535 0.08436 0.46432 0.0
H1794 H 0.32448 0.12446 0.5331 0.0
H1795 H 0.3048 0.13189 0.46261 0.0
H1796 H 0.38209 0.11891 0.37769 0.0
H1797 H 0.38537 0.09722 0.33609 0.0
H1798 H 0.39256 0.09098 0.39223 0.0
H1799 H 0.36469 0.05667 0.39209 0.0
H1800 H 0.35755 0.06265 0.33552 0.0
H1801 H 0.33534 0.06094 0.3764 0.0
H1802 H 0.29632 0.14212 0.38442 0.0
H1803 H 0.29744 0.15115 0.30486 0.0
H1804 H 0.35211 0.10228 0.28715 0.0
C1805 C 0.3596 0.094 0.46467 0.0
C1806 C 0.35136 0.10382 0.50393 0.0
C1807 C 0.33091 0.11661 0.5033 0.0
C1808 C 0.31964 0.12091 0.46344 0.0
C1809 C 0.32878 0.11182 0.42487 0.0
C1810 C 0.34801 0.09815 0.42532 0.0
C1811 C 0.35573 0.09229 0.37918 0.0
C1812 C 0.38038 0.10035 0.37085 0.0
C1813 C 0.35316 0.06661 0.37028 0.0
C1814 C 0.33873 0.10596 0.35266 0.0
C1815 C 0.32317 0.11695 0.37953 0.0
C1816 C 0.30786 0.13301 0.3629 0.0
C1817 C 0.30869 0.13813 0.31783 0.0
C1818 C 0.32457 0.12707 0.29006 0.0
C1819 C 0.33933 0.11041 0.30755 0.0
H1820 H 0.88519 0.88063 0.28163 0.0
H1821 H 0.81395 0.86069 0.28537 0.0
H1822 H 0.8119 0.87239 0.36356 0.0
H1823 H 0.89961 0.85936 0.38487 0.0
H1824 H 0.91924 0.88195 0.3985 0.0
H1825 H 0.91429 0.8746 0.34182 0.0
H1826 H 0.90298 0.91644 0.32499 0.0
H1827 H 0.90795 0.92396 0.38171 0.0
H1828 H 0.88071 0.92986 0.35667 0.0
H1829 H 0.81864 0.88334 0.44272 0.0
H1830 H 0.83373 0.89176 0.51691 0.0
H1831 H 0.9007 0.90402 0.46094 0.0
C1832 C 0.86903 0.87911 0.29864 0.0
C1833 C 0.84967 0.86988 0.27749 0.0
C1834 C 0.82894 0.86782 0.301 0.0
C1835 C 0.82762 0.87448 0.34532 0.0
C1836 C 0.84715 0.8832 0.36542 0.0
C1837 C 0.86745 0.88556 0.34278 0.0
C1838 C 0.88642 0.89381 0.3726 0.0
C1839 C 0.90603 0.87638 0.37456 0.0
C1840 C 0.89502 0.91742 0.35812 0.0
C1841 C 0.87379 0.89516 0.4159 0.0
C1842 C 0.85109 0.88927 0.41101 0.0
C1843 C 0.83631 0.88823 0.44685 0.0
C1844 C 0.84504 0.89303 0.48883 0.0
C1845 C 0.86835 0.89861 0.49459 0.0
C1846 C 0.88276 0.90001 0.45749 0.0
H1847 H 0.88553 0.1441 0.02652 0.0
H1848 H 0.85717 0.07686 0.00323 0.0
H1849 H 0.84532 0.07468 0.08151 0.0
H1850 H 0.90726 0.13426 0.13363 0.0
H1851 H 0.8998 0.16216 0.15399 0.0
H1852 H 0.90573 0.15815 0.0964 0.0
H1853 H 0.86626 0.17533 0.07674 0.0
H1854 H 0.86016 0.17929 0.13435 0.0
H1855 H 0.84083 0.16311 0.10036 0.0
H1856 H 0.83926 0.07915 0.16405 0.0
H1857 H 0.8374 0.09079 0.24245 0.0
H1858 H 0.867 0.15627 0.2087 0.0
C1859 C 0.87684 0.1289 0.03792 0.0
C1860 C 0.87242 0.11054 0.00919 0.0
C1861 C 0.86073 0.09107 0.02496 0.0
C1862 C 0.85396 0.08971 0.06925 0.0
C1863 C 0.85864 0.10816 0.09684 0.0
C1864 C 0.86958 0.12749 0.08156 0.0
C1865 C 0.87242 0.14511 0.11747 0.0
C1866 C 0.89781 0.15021 0.12586 0.0
C1867 C 0.85912 0.167 0.10657 0.0
C1868 C 0.86179 0.13254 0.15571 0.0
C1869 C 0.85403 0.1112 0.14335 0.0
C1870 C 0.84494 0.09596 0.17392 0.0
C1871 C 0.84395 0.10268 0.21828 0.0
C1872 C 0.85171 0.12453 0.2313 0.0
C1873 C 0.86045 0.13967 0.19945 0.0
H1874 H 0.66335 0.13129 0.79042 0.0
H1875 H 0.63351 0.07164 0.72847 0.0
H1876 H 0.622 0.05707 0.80129 0.0
H1877 H 0.6833 0.10119 0.89304 0.0
H1878 H 0.67668 0.1256 0.92679 0.0
H1879 H 0.68559 0.12954 0.87052 0.0
H1880 H 0.64891 0.15289 0.8552 0.0
H1881 H 0.63978 0.14883 0.91112 0.0
H1882 H 0.62147 0.14026 0.8664 0.0
H1883 H 0.60756 0.0527 0.87841 0.0
H1884 H 0.59481 0.05698 0.95571 0.0
H1885 H 0.63618 0.11792 0.96838 0.0
C1886 C 0.65503 0.11482 0.79235 0.0
C1887 C 0.64936 0.10257 0.75388 0.0
C1888 C 0.63817 0.08124 0.75758 0.0
C1889 C 0.63154 0.07282 0.79881 0.0
C1890 C 0.63663 0.08572 0.83604 0.0
C1891 C 0.64855 0.10604 0.83331 0.0
C1892 C 0.6505 0.11738 0.87793 0.0
C1893 C 0.67551 0.11848 0.89296 0.0
C1894 C 0.6395 0.14124 0.87761 0.0
C1895 C 0.63693 0.10081 0.90574 0.0
C1896 C 0.62912 0.08261 0.88104 0.0
C1897 C 0.61412 0.06649 0.89844 0.0
C1898 C 0.60688 0.06909 0.94219 0.0
C1899 C 0.61487 0.08751 0.96798 0.0
C1900 C 0.63035 0.10331 0.94967 0.0
H1901 H 0.64097 0.88542 0.51714 0.0
H1902 H 0.60931 0.95082 0.5434 0.0
H1903 H 0.62348 0.94937 0.62012 0.0
H1904 H 0.62377 0.86065 0.6131 0.0
H1905 H 0.64887 0.8434 0.62133 0.0
H1906 H 0.64081 0.85187 0.56668 0.0
H1907 H 0.68062 0.87009 0.55492 0.0
H1908 H 0.68887 0.86159 0.60969 0.0
H1909 H 0.69094 0.89109 0.59346 0.0
H1910 H 0.6371 0.93867 0.69557 0.0
H1911 H 0.64595 0.91836 0.76471 0.0
H1912 H 0.66643 0.85881 0.68974 0.0
C1913 C 0.63775 0.89981 0.53864 0.0
C1914 C 0.62446 0.91844 0.52439 0.0
C1915 C 0.61973 0.93654 0.55377 0.0
C1916 C 0.6278 0.93589 0.59724 0.0
C1917 C 0.64038 0.91694 0.61071 0.0
C1918 C 0.64524 0.89917 0.58226 0.0
C1919 C 0.65606 0.87929 0.60621 0.0
C1920 C 0.6415 0.85754 0.60156 0.0
C1921 C 0.68059 0.87529 0.59011 0.0
C1922 C 0.65578 0.88829 0.65286 0.0
C1923 C 0.64726 0.91027 0.65464 0.0
C1924 C 0.64408 0.92159 0.69451 0.0
C1925 C 0.64917 0.90993 0.7336 0.0
C1926 C 0.6569 0.88706 0.73245 0.0
C1927 C 0.66074 0.87637 0.69152 0.0
H1928 H 0.64301 0.63091 0.00903 0.0
H1929 H 0.61849 0.562 0.0297 0.0
H1930 H 0.63058 0.56401 0.10771 0.0
H1931 H 0.69142 0.63003 0.0882 0.0
H1932 H 0.68578 0.65875 0.10638 0.0
H1933 H 0.67919 0.65046 0.05065 0.0
H1934 H 0.63737 0.66363 0.06155 0.0
H1935 H 0.64383 0.67199 0.1171 0.0
H1936 H 0.62099 0.65213 0.10658 0.0
H1937 H 0.64254 0.57446 0.18381 0.0
H1938 H 0.64882 0.5939 0.25471 0.0
H1939 H 0.66257 0.65724 0.18576 0.0
C1940 C 0.64082 0.61605 0.02982 0.0
C1941 C 0.63028 0.59614 0.01359 0.0
C1942 C 0.62677 0.5773 0.04177 0.0
C1943 C 0.63371 0.57825 0.08589 0.0
C1944 C 0.6438 0.59829 0.10119 0.0
C1945 C 0.64708 0.61697 0.07415 0.0
C1946 C 0.65528 0.63749 0.1 0.0
C1947 C 0.67935 0.64459 0.08543 0.0
C1948 C 0.63835 0.65747 0.09608 0.0
C1949 C 0.65549 0.62762 0.14601 0.0
C1950 C 0.64945 0.60481 0.14575 0.0
C1951 C 0.64748 0.59225 0.18442 0.0
C1952 C 0.65113 0.60344 0.22452 0.0
C1953 C 0.6562 0.62706 0.22562 0.0
C1954 C 0.6589 0.63913 0.18581 0.0
H1955 H 0.62683 0.41971 0.4617 0.0
H1956 H 0.67875 0.37562 0.51719 0.0
H1957 H 0.69309 0.36733 0.44249 0.0
H1958 H 0.6115 0.38572 0.37984 0.0
H1959 H 0.60669 0.40716 0.33837 0.0
H1960 H 0.60426 0.41449 0.39552 0.0
H1961 H 0.63428 0.44655 0.38615 0.0
H1962 H 0.63652 0.43964 0.32847 0.0
H1963 H 0.6617 0.43998 0.36252 0.0
H1964 H 0.69562 0.35686 0.36289 0.0
H1965 H 0.68844 0.3479 0.28454 0.0
H1966 H 0.63549 0.39949 0.28084 0.0
C1967 C 0.64186 0.40912 0.45822 0.0
C1968 C 0.65175 0.39836 0.49509 0.0
C1969 C 0.67109 0.38423 0.48934 0.0
C1970 C 0.67932 0.3794 0.44701 0.0
C1971 C 0.66828 0.3892 0.41102 0.0
C1972 C 0.65028 0.40422 0.41628 0.0
C1973 C 0.63954 0.41027 0.37252 0.0
C1974 C 0.61401 0.40402 0.37155 0.0
C1975 C 0.64324 0.43562 0.36178 0.0
C1976 C 0.65329 0.39517 0.34215 0.0
C1977 C 0.67003 0.38341 0.36478 0.0
C1978 C 0.68305 0.36648 0.34455 0.0
C1979 C 0.67875 0.36138 0.30019 0.0
C1980 C 0.66156 0.37316 0.27671 0.0
C1981 C 0.64905 0.39055 0.29781 0.0
H1982 H 0.82722 0.37023 0.70492 0.0
H1983 H 0.85309 0.43355 0.75938 0.0
H1984 H 0.85691 0.44927 0.68447 0.0
H1985 H 0.86453 0.36597 0.62192 0.0
H1986 H 0.84529 0.35447 0.58129 0.0
H1987 H 0.8396 0.3502 0.6387 0.0
H1988 H 0.79966 0.36856 0.6294 0.0
H1989 H 0.80526 0.37288 0.57164 0.0
H1990 H 0.79722 0.39668 0.60586 0.0
H1991 H 0.86607 0.45463 0.60561 0.0
H1992 H 0.87866 0.44957 0.52862 0.0
H1993 H 0.84503 0.3838 0.52417 0.0
C1994 C 0.83293 0.38768 0.70109 0.0
C1995 C 0.83982 0.40071 0.7378 0.0
C1996 C 0.8476 0.42333 0.73162 0.0
C1997 C 0.84973 0.43244 0.6892 0.0
C1998 C 0.84361 0.41885 0.65346 0.0
C1999 C 0.83502 0.39705 0.65898 0.0
C2000 C 0.8324 0.38493 0.61527 0.0
C2001 C 0.84629 0.3626 0.61427 0.0
C2002 C 0.80713 0.38051 0.60494 0.0
C2003 C 0.8423 0.4027 0.58464 0.0
C2004 C 0.84828 0.42232 0.60719 0.0
C2005 C 0.86077 0.43973 0.58724 0.0
C2006 C 0.8679 0.43671 0.54361 0.0
C2007 C 0.86239 0.41651 0.5205 0.0
C2008 C 0.84874 0.39974 0.54074 0.0
H2009 H 0.89019 0.58011 0.93743 0.0
H2010 H 0.82905 0.60548 0.00111 0.0
H2011 H 0.81175 0.61277 0.92823 0.0
H2012 H 0.89296 0.62026 0.85626 0.0
H2013 H 0.90289 0.60144 0.81341 0.0
H2014 H 0.90884 0.5949 0.87001 0.0
H2015 H 0.88969 0.55531 0.86078 0.0
H2016 H 0.8837 0.56175 0.80392 0.0
H2017 H 0.86087 0.55357 0.84037 0.0
H2018 H 0.80396 0.62314 0.84946 0.0
H2019 H 0.80581 0.63438 0.77105 0.0
H2020 H 0.87123 0.6005 0.75892 0.0
C2021 C 0.87294 0.58666 0.93602 0.0
C2022 C 0.86091 0.59222 0.97476 0.0
C2023 C 0.83847 0.60098 0.97172 0.0
C2024 C 0.82851 0.60513 0.9305 0.0
C2025 C 0.84108 0.60002 0.89281 0.0
C2026 C 0.8627 0.59067 0.89524 0.0
C2027 C 0.8734 0.58846 0.85016 0.0
C2028 C 0.89583 0.60209 0.84732 0.0
C2029 C 0.87713 0.56327 0.8381 0.0
C2030 C 0.8549 0.59904 0.82215 0.0
C2031 C 0.83627 0.60539 0.84722 0.0
C2032 C 0.81817 0.61771 0.82928 0.0
C2033 C 0.81937 0.62407 0.78482 0.0
C2034 C 0.8385 0.61801 0.75895 0.0
C2035 C 0.85613 0.60484 0.77766 0.0
H2036 H 0.32905 0.37767 0.79452 0.0
H2037 H 0.37119 0.43076 0.73753 0.0
H2038 H 0.37681 0.44753 0.81137 0.0
H2039 H 0.30396 0.41352 0.88706 0.0
H2040 H 0.30501 0.38952 0.92408 0.0
H2041 H 0.30008 0.385 0.86614 0.0
H2042 H 0.33447 0.35726 0.86353 0.0
H2043 H 0.33964 0.36182 0.92108 0.0
H2044 H 0.36206 0.36704 0.88177 0.0
H2045 H 0.3845 0.45331 0.89172 0.0
H2046 H 0.39205 0.44862 0.9713 0.0
H2047 H 0.34398 0.39246 0.9756 0.0
C2048 C 0.33874 0.39333 0.79738 0.0
C2049 C 0.34961 0.40299 0.76043 0.0
C2050 C 0.36253 0.42322 0.76545 0.0
C2051 C 0.36579 0.43287 0.80726 0.0
C2052 C 0.35569 0.42229 0.84345 0.0
C2053 C 0.34206 0.40317 0.83876 0.0
C2054 C 0.3354 0.39336 0.88297 0.0
C2055 C 0.30958 0.39549 0.8905 0.0
C2056 C 0.34339 0.36841 0.88758 0.0
C2057 C 0.34852 0.40908 0.91323 0.0
C2058 C 0.35982 0.42591 0.88997 0.0
C2059 C 0.37521 0.44065 0.91043 0.0
C2060 C 0.37946 0.43782 0.95557 0.0
C2061 C 0.36839 0.42035 0.97957 0.0
C2062 C 0.35228 0.40631 0.95828 0.0
H2063 H 0.33343 0.64141 0.69704 0.0
H2064 H 0.36422 0.58436 0.76586 0.0
H2065 H 0.37205 0.56555 0.69484 0.0
H2066 H 0.30891 0.60684 0.6027 0.0
H2067 H 0.31505 0.62938 0.56413 0.0
H2068 H 0.30796 0.63619 0.62036 0.0
H2069 H 0.34555 0.65917 0.62741 0.0
H2070 H 0.35288 0.65225 0.57159 0.0
H2071 H 0.37231 0.64531 0.61557 0.0
H2072 H 0.38341 0.55691 0.61755 0.0
H2073 H 0.39453 0.55757 0.53901 0.0
H2074 H 0.35474 0.61913 0.52016 0.0
C2075 C 0.3411 0.6246 0.69717 0.0
C2076 C 0.34818 0.6143 0.73682 0.0
C2077 C 0.35851 0.59247 0.73579 0.0
C2078 C 0.36301 0.58165 0.69562 0.0
C2079 C 0.35668 0.59269 0.65693 0.0
C2080 C 0.34553 0.61349 0.65738 0.0
C2081 C 0.34248 0.62277 0.61129 0.0
C2082 C 0.31709 0.62385 0.59889 0.0
C2083 C 0.354 0.64625 0.6062 0.0
C2084 C 0.35477 0.60459 0.58512 0.0
C2085 C 0.36265 0.58726 0.61195 0.0
C2086 C 0.37676 0.56999 0.59597 0.0
C2087 C 0.3831 0.57056 0.55148 0.0
C2088 C 0.3752 0.58821 0.52366 0.0
C2089 C 0.36052 0.60512 0.54056 0.0
H2090 H 0.12383 0.64011 0.46785 0.0
H2091 H 0.14416 0.56937 0.48258 0.0
H2092 H 0.15717 0.56887 0.40501 0.0
H2093 H 0.10124 0.6354 0.36259 0.0
H2094 H 0.11099 0.66291 0.34397 0.0
H2095 H 0.10559 0.65822 0.40151 0.0
H2096 H 0.1468 0.67105 0.42018 0.0
H2097 H 0.15233 0.67584 0.36257 0.0
H2098 H 0.17059 0.65715 0.39383 0.0
H2099 H 0.16426 0.57528 0.32366 0.0
H2100 H 0.16548 0.58823 0.24612 0.0
H2101 H 0.1412 0.65493 0.28654 0.0
C2102 C 0.13133 0.6246 0.45499 0.0
C2103 C 0.13301 0.60477 0.48106 0.0
C2104 C 0.14282 0.58477 0.46307 0.0
C2105 C 0.15026 0.58435 0.41914 0.0
C2106 C 0.148 0.60414 0.39405 0.0
C2107 C 0.13894 0.62395 0.41152 0.0
C2108 C 0.13719 0.64257 0.37732 0.0
C2109 C 0.11228 0.65021 0.37098 0.0
C2110 C 0.15266 0.66285 0.38919 0.0
C2111 C 0.14603 0.62998 0.33743 0.0
C2112 C 0.15236 0.6079 0.34767 0.0
C2113 C 0.15969 0.59264 0.3154 0.0
C2114 C 0.16029 0.60012 0.27151 0.0
C2115 C 0.15358 0.6226 0.26048 0.0
C2116 C 0.14673 0.63774 0.29405 0.0
H2117 H 0.15672 0.34538 0.20061 0.0
H2118 H 0.13866 0.40885 0.26533 0.0
H2119 H 0.1331 0.42709 0.19281 0.0
H2120 H 0.18649 0.37146 0.10539 0.0
H2121 H 0.17582 0.35013 0.06793 0.0
H2122 H 0.1809 0.34294 0.12477 0.0
H2123 H 0.1391 0.32899 0.13213 0.0
H2124 H 0.13392 0.33614 0.07547 0.0
H2125 H 0.11612 0.34807 0.11802 0.0
H2126 H 0.12524 0.43697 0.11373 0.0
H2127 H 0.11631 0.43778 0.03413 0.0
H2128 H 0.14054 0.36815 0.02164 0.0
C2129 C 0.15201 0.36324 0.19951 0.0
C2130 C 0.14815 0.37574 0.23845 0.0
C2131 C 0.1418 0.399 0.23577 0.0
C2132 C 0.13865 0.40952 0.19478 0.0
C2133 C 0.1422 0.39658 0.15692 0.0
C2134 C 0.14894 0.374 0.15894 0.0
C2135 C 0.1502 0.36342 0.11361 0.0
C2136 C 0.17482 0.35659 0.10226 0.0
C2137 C 0.13386 0.34296 0.1096 0.0
C2138 C 0.14233 0.38333 0.08589 0.0
C2139 C 0.13801 0.40239 0.11134 0.0
C2140 C 0.12896 0.4223 0.09332 0.0
C2141 C 0.1239 0.4226 0.04818 0.0
C2142 C 0.12792 0.4031 0.02181 0.0
C2143 C 0.13764 0.38344 0.04088 0.0
loop_
_geom_bond_atom_site_label_1
_geom_bond_atom_site_label_2
_geom_bond_distance
_geom_bond_site_symmetry_2
_ccdc_geom_bond_type
In0 O1 2.294 . S
In0 O2 2.326 . S
In0 O6 2.266 . S
In0 O7 2.326 . S
In0 O8 2.266 . S
In0 O9 2.326 . S
In0 O11 2.294 . S
In0 O12 2.326 . S
O1 In0 2.294 . S
O1 C10 1.240 . S
O2 In0 2.326 . S
O2 C10 1.252 . S
C3 O6 1.252 . S
C3 O7 1.260 . S
C4 O11 1.240 . S
C4 O12 1.252 . S
C5 O8 1.252 . S
C5 O9 1.260 . S
O6 In0 2.266 . S
O6 C3 1.252 . S
O7 In0 2.326 . S
O7 C3 1.260 . S
O8 In0 2.266 . S
O8 C5 1.252 . S
O9 In0 2.326 . S
O9 C5 1.260 . S
C10 O1 1.240 . S
C10 O2 1.252 . S
O11 In0 2.294 . S
O11 C4 1.240 . S
O12 In0 2.326 . S
O12 C4 1.252 . S
In13 O14 2.294 . S
In13 O15 2.326 . S
In13 O19 2.266 . S
In13 O20 2.326 . S
In13 O21 2.266 . S
In13 O22 2.326 . S
In13 O24 2.294 . S
In13 O25 2.326 . S
O14 In13 2.294 . S
O14 C23 1.240 . S
O15 In13 2.326 . S
O15 C23 1.252 . S
C16 O19 1.252 . S
C16 O20 1.260 . S
C17 O24 1.240 . S
C17 O25 1.252 . S
C18 O21 1.252 . S
C18 O22 1.260 . S
O19 In13 2.266 . S
O19 C16 1.252 . S
O20 In13 2.326 . S
O20 C16 1.260 . S
O21 In13 2.266 . S
O21 C18 1.252 . S
O22 In13 2.326 . S
O22 C18 1.260 . S
C23 O14 1.240 . S
C23 O15 1.252 . S
O24 In13 2.294 . S
O24 C17 1.240 . S
O25 In13 2.326 . S
O25 C17 1.252 . S
In26 O27 2.294 . S
In26 O28 2.326 . S
In26 O32 2.266 . S
In26 O33 2.326 . S
In26 O34 2.266 . S
In26 O35 2.326 . S
In26 O37 2.294 . S
In26 O38 2.326 . S
O27 In26 2.294 . S
O27 C36 1.240 . S
O28 In26 2.326 . S
O28 C36 1.252 . S
C29 O32 1.252 . S
C29 O33 1.260 . S
C30 O37 1.240 . S
C30 O38 1.252 . S
C31 O34 1.252 . S
C31 O35 1.260 . S
O32 In26 2.266 . S
O32 C29 1.252 . S
O33 In26 2.326 . S
O33 C29 1.260 . S
O34 In26 2.266 . S
O34 C31 1.252 . S
O35 In26 2.326 . S
O35 C31 1.260 . S
C36 O27 1.240 . S
C36 O28 1.252 . S
O37 In26 2.294 . S
O37 C30 1.240 . S
O38 In26 2.326 . S
O38 C30 1.252 . S
In39 O40 2.294 . S
In39 O41 2.326 . S
In39 O45 2.266 . S
In39 O46 2.326 . S
In39 O47 2.266 . S
In39 O48 2.326 . S
In39 O50 2.294 . S
In39 O51 2.326 . S
O40 In39 2.294 . S
O40 C49 1.240 . S
O41 In39 2.326 . S
O41 C49 1.252 . S
C42 O45 1.252 . S
C42 O46 1.260 . S
C43 O50 1.240 . S
C43 O51 1.252 . S
C44 O47 1.252 . S
C44 O48 1.260 . S
O45 In39 2.266 . S
O45 C42 1.252 . S
O46 In39 2.326 . S
O46 C42 1.260 . S
O47 In39 2.266 . S
O47 C44 1.252 . S
O48 In39 2.326 . S
O48 C44 1.260 . S
C49 O40 1.240 . S
C49 O41 1.252 . S
O50 In39 2.294 . S
O50 C43 1.240 . S
O51 In39 2.326 . S
O51 C43 1.252 . S
In52 O53 2.294 . S
In52 O54 2.326 . S
In52 O58 2.266 . S
In52 O59 2.326 . S
In52 O60 2.266 . S
In52 O61 2.326 . S
In52 O63 2.294 . S
In52 O64 2.326 . S
O53 In52 2.294 . S
O53 C62 1.240 . S
O54 In52 2.326 . S
O54 C62 1.252 . S
C55 O58 1.252 . S
C55 O59 1.260 . S
C56 O63 1.240 . S
C56 O64 1.252 . S
C57 O60 1.252 . S
C57 O61 1.260 . S
O58 In52 2.266 . S
O58 C55 1.252 . S
O59 In52 2.326 . S
O59 C55 1.260 . S
O60 In52 2.266 . S
O60 C57 1.252 . S
O61 In52 2.326 . S
O61 C57 1.260 . S
C62 O53 1.240 . S
C62 O54 1.252 . S
O63 In52 2.294 . S
O63 C56 1.240 . S
O64 In52 2.326 . S
O64 C56 1.252 . S
In65 O66 2.294 . S
In65 O67 2.326 . S
In65 O71 2.266 . S
In65 O72 2.326 . S
In65 O73 2.266 . S
In65 O74 2.326 . S
In65 O76 2.294 . S
In65 O77 2.326 . S
O66 In65 2.294 . S
O66 C75 1.240 . S
O67 In65 2.326 . S
O67 C75 1.252 . S
C68 O71 1.252 . S
C68 O72 1.260 . S
C69 O76 1.240 . S
C69 O77 1.252 . S
C70 O73 1.252 . S
C70 O74 1.260 . S
O71 In65 2.266 . S
O71 C68 1.252 . S
O72 In65 2.326 . S
O72 C68 1.260 . S
O73 In65 2.266 . S
O73 C70 1.252 . S
O74 In65 2.326 . S
O74 C70 1.260 . S
C75 O66 1.240 . S
C75 O67 1.252 . S
O76 In65 2.294 . S
O76 C69 1.240 . S
O77 In65 2.326 . S
O77 C69 1.252 . S
In78 O79 2.294 . S
In78 O80 2.326 . S
In78 O84 2.266 . S
In78 O85 2.326 . S
In78 O86 2.266 . S
In78 O87 2.326 . S
In78 O89 2.294 . S
In78 O90 2.326 . S
O79 In78 2.294 . S
O79 C88 1.240 . S
O80 In78 2.326 . S
O80 C88 1.252 . S
C81 O84 1.252 . S
C81 O85 1.260 . S
C82 O89 1.240 . S
C82 O90 1.252 . S
C83 O86 1.252 . S
C83 O87 1.260 . S
O84 In78 2.266 . S
O84 C81 1.252 . S
O85 In78 2.326 . S
O85 C81 1.260 . S
O86 In78 2.266 . S
O86 C83 1.252 . S
O87 In78 2.326 . S
O87 C83 1.260 . S
C88 O79 1.240 . S
C88 O80 1.252 . S
O89 In78 2.294 . S
O89 C82 1.240 . S
O90 In78 2.326 . S
O90 C82 1.252 . S
In91 O92 2.294 . S
In91 O93 2.326 . S
In91 O97 2.266 . S
In91 O98 2.326 . S
In91 O99 2.266 . S
In91 O100 2.326 . S
In91 O102 2.294 . S
In91 O103 2.326 . S
O92 In91 2.294 . S
O92 C101 1.240 . S
O93 In91 2.326 . S
O93 C101 1.252 . S
C94 O97 1.252 . S
C94 O98 1.260 . S
C95 O102 1.240 . S
C95 O103 1.252 . S
C96 O99 1.252 . S
C96 O100 1.260 . S
O97 In91 2.266 . S
O97 C94 1.252 . S
O98 In91 2.326 . S
O98 C94 1.260 . S
O99 In91 2.266 . S
O99 C96 1.252 . S
O100 In91 2.326 . S
O100 C96 1.260 . S
C101 O92 1.240 . S
C101 O93 1.252 . S
O102 In91 2.294 . S
O102 C95 1.240 . S
O103 In91 2.326 . S
O103 C95 1.252 . S
In104 O105 2.294 . S
In104 O106 2.326 . S
In104 O110 2.266 . S
In104 O111 2.326 . S
In104 O112 2.266 . S
In104 O113 2.326 . S
In104 O115 2.294 . S
In104 O116 2.326 . S
O105 In104 2.294 . S
O105 C114 1.240 . S
O106 In104 2.326 . S
O106 C114 1.252 . S
C107 O110 1.252 . S
C107 O111 1.260 . S
C108 O115 1.240 . S
C108 O116 1.252 . S
C109 O112 1.252 . S
C109 O113 1.260 . S
O110 In104 2.266 . S
O110 C107 1.252 . S
O111 In104 2.326 . S
O111 C107 1.260 . S
O112 In104 2.266 . S
O112 C109 1.252 . S
O113 In104 2.326 . S
O113 C109 1.260 . S
C114 O105 1.240 . S
C114 O106 1.252 . S
O115 In104 2.294 . S
O115 C108 1.240 . S
O116 In104 2.326 . S
O116 C108 1.252 . S
In117 O118 2.294 . S
In117 O119 2.326 . S
In117 O123 2.266 . S
In117 O124 2.326 . S
In117 O125 2.266 . S
In117 O126 2.326 . S
In117 O128 2.294 . S
In117 O129 2.326 . S
O118 In117 2.294 . S
O118 C127 1.240 . S
O119 In117 2.326 . S
O119 C127 1.252 . S
C120 O123 1.252 . S
C120 O124 1.260 . S
C121 O128 1.240 . S
C121 O129 1.252 . S
C122 O125 1.252 . S
C122 O126 1.260 . S
O123 In117 2.266 . S
O123 C120 1.252 . S
O124 In117 2.326 . S
O124 C120 1.260 . S
O125 In117 2.266 . S
O125 C122 1.252 . S
O126 In117 2.326 . S
O126 C122 1.260 . S
C127 O118 1.240 . S
C127 O119 1.252 . S
O128 In117 2.294 . S
O128 C121 1.240 . S
O129 In117 2.326 . S
O129 C121 1.252 . S
In130 O131 2.294 . S
In130 O132 2.326 . S
In130 O136 2.266 . S
In130 O137 2.326 . S
In130 O138 2.266 . S
In130 O139 2.326 . S
In130 O141 2.294 . S
In130 O142 2.326 . S
O131 In130 2.294 . S
O131 C140 1.240 . S
O132 In130 2.326 . S
O132 C140 1.252 . S
C133 O136 1.252 . S
C133 O137 1.260 . S
C134 O141 1.240 . S
C134 O142 1.252 . S
C135 O138 1.252 . S
C135 O139 1.260 . S
O136 In130 2.266 . S
O136 C133 1.252 . S
O137 In130 2.326 . S
O137 C133 1.260 . S
O138 In130 2.266 . S
O138 C135 1.252 . S
O139 In130 2.326 . S
O139 C135 1.260 . S
C140 O131 1.240 . S
C140 O132 1.252 . S
O141 In130 2.294 . S
O141 C134 1.240 . S
O142 In130 2.326 . S
O142 C134 1.252 . S
In143 O144 2.294 . S
In143 O145 2.326 . S
In143 O149 2.266 . S
In143 O150 2.326 . S
In143 O151 2.266 . S
In143 O152 2.326 . S
In143 O154 2.294 . S
In143 O155 2.326 . S
O144 In143 2.294 . S
O144 C153 1.240 . S
O145 In143 2.326 . S
O145 C153 1.252 . S
C146 O149 1.252 . S
C146 O150 1.260 . S
C147 O154 1.240 . S
C147 O155 1.252 . S
C148 O151 1.252 . S
C148 O152 1.260 . S
O149 In143 2.266 . S
O149 C146 1.252 . S
O150 In143 2.326 . S
O150 C146 1.260 . S
O151 In143 2.266 . S
O151 C148 1.252 . S
O152 In143 2.326 . S
O152 C148 1.260 . S
C153 O144 1.240 . S
C153 O145 1.252 . S
O154 In143 2.294 . S
O154 C147 1.240 . S
O155 In143 2.326 . S
O155 C147 1.252 . S
In156 O157 2.294 . S
In156 O158 2.326 . S
In156 O162 2.266 . S
In156 O163 2.326 . S
In156 O164 2.266 . S
In156 O165 2.326 . S
In156 O167 2.294 . S
In156 O168 2.326 . S
O157 In156 2.294 . S
O157 C166 1.240 . S
O158 In156 2.326 . S
O158 C166 1.252 . S
C159 O162 1.252 . S
C159 O163 1.260 . S
C160 O167 1.240 . S
C160 O168 1.252 . S
C161 O164 1.252 . S
C161 O165 1.260 . S
O162 In156 2.266 . S
O162 C159 1.252 . S
O163 In156 2.326 . S
O163 C159 1.260 . S
O164 In156 2.266 . S
O164 C161 1.252 . S
O165 In156 2.326 . S
O165 C161 1.260 . S
C166 O157 1.240 . S
C166 O158 1.252 . S
O167 In156 2.294 . S
O167 C160 1.240 . S
O168 In156 2.326 . S
O168 C160 1.252 . S
In169 O170 2.294 . S
In169 O171 2.326 . S
In169 O175 2.266 . S
In169 O176 2.326 . S
In169 O177 2.266 . S
In169 O178 2.326 . S
In169 O180 2.294 . S
In169 O181 2.326 . S
O170 In169 2.294 . S
O170 C179 1.240 . S
O171 In169 2.326 . S
O171 C179 1.252 . S
C172 O175 1.252 . S
C172 O176 1.260 . S
C173 O180 1.240 . S
C173 O181 1.252 . S
C174 O177 1.252 . S
C174 O178 1.260 . S
O175 In169 2.266 . S
O175 C172 1.252 . S
O176 In169 2.326 . S
O176 C172 1.260 . S
O177 In169 2.266 . S
O177 C174 1.252 . S
O178 In169 2.326 . S
O178 C174 1.260 . S
C179 O170 1.240 . S
C179 O171 1.252 . S
O180 In169 2.294 . S
O180 C173 1.240 . S
O181 In169 2.326 . S
O181 C173 1.252 . S
In182 O183 2.294 . S
In182 O184 2.326 . S
In182 O188 2.266 . S
In182 O189 2.326 . S
In182 O190 2.266 . S
In182 O191 2.326 . S
In182 O193 2.294 . S
In182 O194 2.326 . S
O183 In182 2.294 . S
O183 C192 1.240 . S
O184 In182 2.326 . S
O184 C192 1.252 . S
C185 O188 1.252 . S
C185 O189 1.260 . S
C186 O193 1.240 . S
C186 O194 1.252 . S
C187 O190 1.252 . S
C187 O191 1.260 . S
O188 In182 2.266 . S
O188 C185 1.252 . S
O189 In182 2.326 . S
O189 C185 1.260 . S
O190 In182 2.266 . S
O190 C187 1.252 . S
O191 In182 2.326 . S
O191 C187 1.260 . S
C192 O183 1.240 . S
C192 O184 1.252 . S
O193 In182 2.294 . S
O193 C186 1.240 . S
O194 In182 2.326 . S
O194 C186 1.252 . S
In195 O196 2.294 . S
In195 O197 2.326 . S
In195 O201 2.266 . S
In195 O202 2.326 . S
In195 O203 2.266 . S
In195 O204 2.326 . S
In195 O206 2.294 . S
In195 O207 2.326 . S
O196 In195 2.294 . S
O196 C205 1.240 . S
O197 In195 2.326 . S
O197 C205 1.252 . S
C198 O201 1.252 . S
C198 O202 1.260 . S
C199 O206 1.240 . S
C199 O207 1.252 . S
C200 O203 1.252 . S
C200 O204 1.260 . S
O201 In195 2.266 . S
O201 C198 1.252 . S
O202 In195 2.326 . S
O202 C198 1.260 . S
O203 In195 2.266 . S
O203 C200 1.252 . S
O204 In195 2.326 . S
O204 C200 1.260 . S
C205 O196 1.240 . S
C205 O197 1.252 . S
O206 In195 2.294 . S
O206 C199 1.240 . S
O207 In195 2.326 . S
O207 C199 1.252 . S
In208 O209 2.294 . S
In208 O210 2.326 . S
In208 O214 2.266 . S
In208 O215 2.326 . S
In208 O216 2.266 . S
In208 O217 2.326 . S
In208 O219 2.294 . S
In208 O220 2.326 . S
O209 In208 2.294 . S
O209 C218 1.240 . S
O210 In208 2.326 . S
O210 C218 1.252 . S
C211 O214 1.252 . S
C211 O215 1.260 . S
C212 O219 1.240 . S
C212 O220 1.252 . S
C213 O216 1.252 . S
C213 O217 1.260 . S
O214 In208 2.266 . S
O214 C211 1.252 . S
O215 In208 2.326 . S
O215 C211 1.260 . S
O216 In208 2.266 . S
O216 C213 1.252 . S
O217 In208 2.326 . S
O217 C213 1.260 . S
C218 O209 1.240 . S
C218 O210 1.252 . S
O219 In208 2.294 . S
O219 C212 1.240 . S
O220 In208 2.326 . S
O220 C212 1.252 . S
In221 O222 2.294 . S
In221 O223 2.326 . S
In221 O227 2.266 . S
In221 O228 2.326 . S
In221 O229 2.266 . S
In221 O230 2.326 . S
In221 O232 2.294 . S
In221 O233 2.326 . S
O222 In221 2.294 . S
O222 C231 1.240 . S
O223 In221 2.326 . S
O223 C231 1.252 . S
C224 O227 1.252 . S
C224 O228 1.260 . S
C225 O232 1.240 . S
C225 O233 1.252 . S
C226 O229 1.252 . S
C226 O230 1.260 . S
O227 In221 2.266 . S
O227 C224 1.252 . S
O228 In221 2.326 . S
O228 C224 1.260 . S
O229 In221 2.266 . S
O229 C226 1.252 . S
O230 In221 2.326 . S
O230 C226 1.260 . S
C231 O222 1.240 . S
C231 O223 1.252 . S
O232 In221 2.294 . S
O232 C225 1.240 . S
O233 In221 2.326 . S
O233 C225 1.252 . S
In234 O235 2.294 . S
In234 O236 2.326 . S
In234 O240 2.266 . S
In234 O241 2.326 . S
In234 O242 2.266 . S
In234 O243 2.326 . S
In234 O245 2.294 . S
In234 O246 2.326 . S
O235 In234 2.294 . S
O235 C244 1.240 . S
O236 In234 2.326 . S
O236 C244 1.252 . S
C237 O240 1.252 . S
C237 O241 1.260 . S
C238 O245 1.240 . S
C238 O246 1.252 . S
C239 O242 1.252 . S
C239 O243 1.260 . S
O240 In234 2.266 . S
O240 C237 1.252 . S
O241 In234 2.326 . S
O241 C237 1.260 . S
O242 In234 2.266 . S
O242 C239 1.252 . S
O243 In234 2.326 . S
O243 C239 1.260 . S
C244 O235 1.240 . S
C244 O236 1.252 . S
O245 In234 2.294 . S
O245 C238 1.240 . S
O246 In234 2.326 . S
O246 C238 1.252 . S
In247 O248 2.294 . S
In247 O249 2.326 . S
In247 O253 2.266 . S
In247 O254 2.326 . S
In247 O255 2.266 . S
In247 O256 2.326 . S
In247 O258 2.294 . S
In247 O259 2.326 . S
O248 In247 2.294 . S
O248 C257 1.240 . S
O249 In247 2.326 . S
O249 C257 1.252 . S
C250 O253 1.252 . S
C250 O254 1.260 . S
C251 O258 1.240 . S
C251 O259 1.252 . S
C252 O255 1.252 . S
C252 O256 1.260 . S
O253 In247 2.266 . S
O253 C250 1.252 . S
O254 In247 2.326 . S
O254 C250 1.260 . S
O255 In247 2.266 . S
O255 C252 1.252 . S
O256 In247 2.326 . S
O256 C252 1.260 . S
C257 O248 1.240 . S
C257 O249 1.252 . S
O258 In247 2.294 . S
O258 C251 1.240 . S
O259 In247 2.326 . S
O259 C251 1.252 . S
In260 O261 2.294 . S
In260 O262 2.326 . S
In260 O266 2.266 . S
In260 O267 2.326 . S
In260 O268 2.266 . S
In260 O269 2.326 . S
In260 O271 2.294 . S
In260 O272 2.326 . S
O261 In260 2.294 . S
O261 C270 1.240 . S
O262 In260 2.326 . S
O262 C270 1.252 . S
C263 O266 1.252 . S
C263 O267 1.260 . S
C264 O271 1.240 . S
C264 O272 1.252 . S
C265 O268 1.252 . S
C265 O269 1.260 . S
O266 In260 2.266 . S
O266 C263 1.252 . S
O267 In260 2.326 . S
O267 C263 1.260 . S
O268 In260 2.266 . S
O268 C265 1.252 . S
O269 In260 2.326 . S
O269 C265 1.260 . S
C270 O261 1.240 . S
C270 O262 1.252 . S
O271 In260 2.294 . S
O271 C264 1.240 . S
O272 In260 2.326 . S
O272 C264 1.252 . S
In273 O274 2.294 . S
In273 O275 2.326 . S
In273 O279 2.266 . S
In273 O280 2.326 . S
In273 O281 2.266 . S
In273 O282 2.326 . S
In273 O284 2.294 . S
In273 O285 2.326 . S
O274 In273 2.294 . S
O274 C283 1.240 . S
O275 In273 2.326 . S
O275 C283 1.252 . S
C276 O279 1.252 . S
C276 O280 1.260 . S
C277 O284 1.240 . S
C277 O285 1.252 . S
C278 O281 1.252 . S
C278 O282 1.260 . S
O279 In273 2.266 . S
O279 C276 1.252 . S
O280 In273 2.326 . S
O280 C276 1.260 . S
O281 In273 2.266 . S
O281 C278 1.252 . S
O282 In273 2.326 . S
O282 C278 1.260 . S
C283 O274 1.240 . S
C283 O275 1.252 . S
O284 In273 2.294 . S
O284 C277 1.240 . S
O285 In273 2.326 . S
O285 C277 1.252 . S
In286 O287 2.294 . S
In286 O288 2.326 . S
In286 O292 2.266 . S
In286 O293 2.326 . S
In286 O294 2.266 . S
In286 O295 2.326 . S
In286 O297 2.294 . S
In286 O298 2.326 . S
O287 In286 2.294 . S
O287 C296 1.240 . S
O288 In286 2.326 . S
O288 C296 1.252 . S
C289 O292 1.252 . S
C289 O293 1.260 . S
C290 O297 1.240 . S
C290 O298 1.252 . S
C291 O294 1.252 . S
C291 O295 1.260 . S
O292 In286 2.266 . S
O292 C289 1.252 . S
O293 In286 2.326 . S
O293 C289 1.260 . S
O294 In286 2.266 . S
O294 C291 1.252 . S
O295 In286 2.326 . S
O295 C291 1.260 . S
C296 O287 1.240 . S
C296 O288 1.252 . S
O297 In286 2.294 . S
O297 C290 1.240 . S
O298 In286 2.326 . S
O298 C290 1.252 . S
In299 O300 2.294 . S
In299 O301 2.326 . S
In299 O305 2.266 . S
In299 O306 2.326 . S
In299 O307 2.266 . S
In299 O308 2.326 . S
In299 O310 2.294 . S
In299 O311 2.326 . S
O300 In299 2.294 . S
O300 C309 1.240 . S
O301 In299 2.326 . S
O301 C309 1.252 . S
C302 O305 1.252 . S
C302 O306 1.260 . S
C303 O310 1.240 . S
C303 O311 1.252 . S
C304 O307 1.252 . S
C304 O308 1.260 . S
O305 In299 2.266 . S
O305 C302 1.252 . S
O306 In299 2.326 . S
O306 C302 1.260 . S
O307 In299 2.266 . S
O307 C304 1.252 . S
O308 In299 2.326 . S
O308 C304 1.260 . S
C309 O300 1.240 . S
C309 O301 1.252 . S
O310 In299 2.294 . S
O310 C303 1.240 . S
O311 In299 2.326 . S
O311 C303 1.252 . S
In312 O313 2.294 . S
In312 O314 2.326 . S
In312 O318 2.266 . S
In312 O319 2.326 . S
In312 O320 2.266 . S
In312 O321 2.326 . S
In312 O323 2.294 . S
In312 O324 2.326 . S
O313 In312 2.294 . S
O313 C322 1.240 . S
O314 In312 2.326 . S
O314 C322 1.252 . S
C315 O318 1.252 . S
C315 O319 1.260 . S
C316 O323 1.240 . S
C316 O324 1.252 . S
C317 O320 1.252 . S
C317 O321 1.260 . S
O318 In312 2.266 . S
O318 C315 1.252 . S
O319 In312 2.326 . S
O319 C315 1.260 . S
O320 In312 2.266 . S
O320 C317 1.252 . S
O321 In312 2.326 . S
O321 C317 1.260 . S
C322 O313 1.240 . S
C322 O314 1.252 . S
O323 In312 2.294 . S
O323 C316 1.240 . S
O324 In312 2.326 . S
O324 C316 1.252 . S
In325 O326 2.294 . S
In325 O327 2.326 . S
In325 O331 2.266 . S
In325 O332 2.326 . S
In325 O333 2.266 . S
In325 O334 2.326 . S
In325 O336 2.294 . S
In325 O337 2.326 . S
O326 In325 2.294 . S
O326 C335 1.240 . S
O327 In325 2.326 . S
O327 C335 1.252 . S
C328 O331 1.252 . S
C328 O332 1.260 . S
C329 O336 1.240 . S
C329 O337 1.252 . S
C330 O333 1.252 . S
C330 O334 1.260 . S
O331 In325 2.266 . S
O331 C328 1.252 . S
O332 In325 2.326 . S
O332 C328 1.260 . S
O333 In325 2.266 . S
O333 C330 1.252 . S
O334 In325 2.326 . S
O334 C330 1.260 . S
C335 O326 1.240 . S
C335 O327 1.252 . S
O336 In325 2.294 . S
O336 C329 1.240 . S
O337 In325 2.326 . S
O337 C329 1.252 . S
In338 O339 2.294 . S
In338 O340 2.326 . S
In338 O344 2.266 . S
In338 O345 2.326 . S
In338 O346 2.266 . S
In338 O347 2.326 . S
In338 O349 2.294 . S
In338 O350 2.326 . S
O339 In338 2.294 . S
O339 C348 1.240 . S
O340 In338 2.326 . S
O340 C348 1.252 . S
C341 O344 1.252 . S
C341 O345 1.260 . S
C342 O349 1.240 . S
C342 O350 1.252 . S
C343 O346 1.252 . S
C343 O347 1.260 . S
O344 In338 2.266 . S
O344 C341 1.252 . S
O345 In338 2.326 . S
O345 C341 1.260 . S
O346 In338 2.266 . S
O346 C343 1.252 . S
O347 In338 2.326 . S
O347 C343 1.260 . S
C348 O339 1.240 . S
C348 O340 1.252 . S
O349 In338 2.294 . S
O349 C342 1.240 . S
O350 In338 2.326 . S
O350 C342 1.252 . S
In351 O352 2.294 . S
In351 O353 2.326 . S
In351 O357 2.266 . S
In351 O358 2.326 . S
In351 O359 2.266 . S
In351 O360 2.326 . S
In351 O362 2.294 . S
In351 O363 2.326 . S
O352 In351 2.294 . S
O352 C361 1.240 . S
O353 In351 2.326 . S
O353 C361 1.252 . S
C354 O357 1.252 . S
C354 O358 1.260 . S
C355 O362 1.240 . S
C355 O363 1.252 . S
C356 O359 1.252 . S
C356 O360 1.260 . S
O357 In351 2.266 . S
O357 C354 1.252 . S
O358 In351 2.326 . S
O358 C354 1.260 . S
O359 In351 2.266 . S
O359 C356 1.252 . S
O360 In351 2.326 . S
O360 C356 1.260 . S
C361 O352 1.240 . S
C361 O353 1.252 . S
O362 In351 2.294 . S
O362 C355 1.240 . S
O363 In351 2.326 . S
O363 C355 1.252 . S
In364 O365 2.294 . S
In364 O366 2.326 . S
In364 O370 2.266 . S
In364 O371 2.326 . S
In364 O372 2.266 . S
In364 O373 2.326 . S
In364 O375 2.294 . S
In364 O376 2.326 . S
O365 In364 2.294 . S
O365 C374 1.240 . S
O366 In364 2.326 . S
O366 C374 1.252 . S
C367 O370 1.252 . S
C367 O371 1.260 . S
C368 O375 1.240 . S
C368 O376 1.252 . S
C369 O372 1.252 . S
C369 O373 1.260 . S
O370 In364 2.266 . S
O370 C367 1.252 . S
O371 In364 2.326 . S
O371 C367 1.260 . S
O372 In364 2.266 . S
O372 C369 1.252 . S
O373 In364 2.326 . S
O373 C369 1.260 . S
C374 O365 1.240 . S
C374 O366 1.252 . S
O375 In364 2.294 . S
O375 C368 1.240 . S
O376 In364 2.326 . S
O376 C368 1.252 . S
In377 O378 2.294 . S
In377 O379 2.326 . S
In377 O383 2.266 . S
In377 O384 2.326 . S
In377 O385 2.266 . S
In377 O386 2.326 . S
In377 O388 2.294 . S
In377 O389 2.326 . S
O378 In377 2.294 . S
O378 C387 1.240 . S
O379 In377 2.326 . S
O379 C387 1.252 . S
C380 O383 1.252 . S
C380 O384 1.260 . S
C381 O388 1.240 . S
C381 O389 1.252 . S
C382 O385 1.252 . S
C382 O386 1.260 . S
O383 In377 2.266 . S
O383 C380 1.252 . S
O384 In377 2.326 . S
O384 C380 1.260 . S
O385 In377 2.266 . S
O385 C382 1.252 . S
O386 In377 2.326 . S
O386 C382 1.260 . S
C387 O378 1.240 . S
C387 O379 1.252 . S
O388 In377 2.294 . S
O388 C381 1.240 . S
O389 In377 2.326 . S
O389 C381 1.252 . S
In390 O391 2.294 . S
In390 O392 2.326 . S
In390 O396 2.266 . S
In390 O397 2.326 . S
In390 O398 2.266 . S
In390 O399 2.326 . S
In390 O401 2.294 . S
In390 O402 2.326 . S
O391 In390 2.294 . S
O391 C400 1.240 . S
O392 In390 2.326 . S
O392 C400 1.252 . S
C393 O396 1.252 . S
C393 O397 1.260 . S
C394 O401 1.240 . S
C394 O402 1.252 . S
C395 O398 1.252 . S
C395 O399 1.260 . S
O396 In390 2.266 . S
O396 C393 1.252 . S
O397 In390 2.326 . S
O397 C393 1.260 . S
O398 In390 2.266 . S
O398 C395 1.252 . S
O399 In390 2.326 . S
O399 C395 1.260 . S
C400 O391 1.240 . S
C400 O392 1.252 . S
O401 In390 2.294 . S
O401 C394 1.240 . S
O402 In390 2.326 . S
O402 C394 1.252 . S
In403 O404 2.294 . S
In403 O405 2.326 . S
In403 O409 2.266 . S
In403 O410 2.326 . S
In403 O411 2.266 . S
In403 O412 2.326 . S
In403 O414 2.294 . S
In403 O415 2.326 . S
O404 In403 2.294 . S
O404 C413 1.240 . S
O405 In403 2.326 . S
O405 C413 1.252 . S
C406 O409 1.252 . S
C406 O410 1.260 . S
C407 O414 1.240 . S
C407 O415 1.252 . S
C408 O411 1.252 . S
C408 O412 1.260 . S
O409 In403 2.266 . S
O409 C406 1.252 . S
O410 In403 2.326 . S
O410 C406 1.260 . S
O411 In403 2.266 . S
O411 C408 1.252 . S
O412 In403 2.326 . S
O412 C408 1.260 . S
C413 O404 1.240 . S
C413 O405 1.252 . S
O414 In403 2.294 . S
O414 C407 1.240 . S
O415 In403 2.326 . S
O415 C407 1.252 . S
H416 C428 0.930 . S
H417 C430 0.930 . S
H418 C431 0.930 . S
H419 C435 0.959 . S
H420 C435 0.959 1_565 S
H421 C435 0.961 . S
H422 C436 0.960 . S
H423 C436 0.961 . S
H424 C436 0.959 . S
H425 C439 0.929 . S
H426 C440 0.931 . S
H427 C442 0.930 . S
C428 H416 0.930 . S
C428 C429 1.399 . S
C428 C433 1.399 . S
C429 C428 1.399 . S
C429 C430 1.376 . S
C430 H417 0.930 . S
C430 C429 1.376 . S
C430 C431 1.388 . S
C431 H418 0.930 . S
C431 C430 1.388 . S
C431 C432 1.390 . S
C432 C431 1.390 . S
C432 C433 1.394 . S
C432 C438 1.465 1_545 S
C433 C428 1.399 . S
C433 C432 1.394 . S
C433 C434 1.516 1_545 S
C434 C433 1.516 1_565 S
C434 C435 1.502 1_565 S
C434 C436 1.561 . S
C434 C437 1.526 . S
C435 H419 0.959 . S
C435 H420 0.959 1_545 S
C435 H421 0.961 . S
C435 C434 1.502 1_545 S
C436 H422 0.960 . S
C436 H423 0.961 . S
C436 H424 0.959 . S
C436 C434 1.561 . S
C437 C434 1.526 . S
C437 C438 1.396 . S
C437 C442 1.390 . S
C438 C432 1.465 1_565 S
C438 C437 1.396 . S
C438 C439 1.399 . S
C439 H425 0.929 . S
C439 C438 1.399 . S
C439 C440 1.385 . S
C440 H426 0.931 . S
C440 C439 1.385 . S
C440 C441 1.389 . S
C441 C440 1.389 . S
C441 C442 1.387 . S
C442 H427 0.930 . S
C442 C437 1.390 . S
C442 C441 1.387 . S
H443 C455 0.930 . S
H444 C457 0.930 . S
H445 C458 0.930 . S
H446 C462 0.959 . S
H447 C462 0.959 . S
H448 C462 0.961 . S
H449 C463 0.960 . S
H450 C463 0.961 . S
H451 C463 0.959 . S
H452 C466 0.929 . S
H453 C467 0.931 . S
H454 C469 0.930 . S
C455 H443 0.930 . S
C455 C456 1.399 . S
C455 C460 1.399 . S
C456 C455 1.399 . S
C456 C457 1.376 . S
C457 H444 0.930 . S
C457 C456 1.376 . S
C457 C458 1.388 . S
C458 H445 0.930 . S
C458 C457 1.388 . S
C458 C459 1.390 . S
C459 C458 1.390 . S
C459 C460 1.394 . S
C459 C465 1.465 . S
C460 C455 1.399 . S
C460 C459 1.394 . S
C460 C461 1.516 . S
C461 C460 1.516 . S
C461 C462 1.502 . S
C461 C463 1.561 . S
C461 C464 1.526 . S
C462 H446 0.959 . S
C462 H447 0.959 . S
C462 H448 0.961 . S
C462 C461 1.502 . S
C463 H449 0.960 . S
C463 H450 0.961 . S
C463 H451 0.959 . S
C463 C461 1.561 . S
C464 C461 1.526 . S
C464 C465 1.396 . S
C464 C469 1.390 . S
C465 C459 1.465 . S
C465 C464 1.396 . S
C465 C466 1.399 . S
C466 H452 0.929 . S
C466 C465 1.399 . S
C466 C467 1.385 . S
C467 H453 0.931 . S
C467 C466 1.385 . S
C467 C468 1.389 . S
C468 C467 1.389 . S
C468 C469 1.387 . S
C469 H454 0.930 . S
C469 C464 1.390 . S
C469 C468 1.387 . S
H470 C482 0.930 . S
H471 C484 0.930 . S
H472 C485 0.930 . S
H473 C489 0.977 . S
H474 C489 0.959 . S
H475 C489 0.961 . S
H476 C490 0.960 . S
H477 C490 0.961 . S
H478 C490 0.959 . S
H479 C493 0.929 1_545 S
H480 C494 0.931 . S
H481 C496 0.930 . S
C482 H470 0.930 . S
C482 C483 1.399 . S
C482 C487 1.399 . S
C483 C482 1.399 . S
C483 C484 1.376 . S
C484 H471 0.930 . S
C484 C483 1.376 . S
C484 C485 1.388 . S
C485 H472 0.930 . S
C485 C484 1.388 . S
C485 C486 1.390 . S
C486 C485 1.390 . S
C486 C487 1.394 . S
C486 C492 1.465 1_545 S
C487 C482 1.399 . S
C487 C486 1.394 . S
C487 C488 1.516 1_545 S
C488 C487 1.516 1_565 S
C488 C489 1.502 . S
C488 C490 1.561 . S
C488 C491 1.526 . S
C489 H473 0.977 . S
C489 H474 0.959 . S
C489 H475 0.961 . S
C489 C488 1.502 . S
C490 H476 0.960 . S
C490 H477 0.961 . S
C490 H478 0.959 . S
C490 C488 1.561 . S
C491 C488 1.526 . S
C491 C492 1.396 . S
C491 C496 1.390 . S
C492 C486 1.465 1_565 S
C492 C491 1.396 . S
C492 C493 1.399 . S
C493 H479 0.929 1_565 S
C493 C492 1.399 . S
C493 C494 1.385 . S
C494 H480 0.931 . S
C494 C493 1.385 . S
C494 C495 1.389 . S
C495 C494 1.389 . S
C495 C496 1.387 . S
C496 H481 0.930 . S
C496 C491 1.390 . S
C496 C495 1.387 . S
H497 C509 0.930 . S
H498 C511 0.930 . S
H499 C512 0.930 . S
H500 C516 0.959 . S
H501 C516 0.959 . S
H502 C516 0.961 . S
H503 C517 0.960 . S
H504 C517 0.961 1_554 S
H505 C517 0.959 . S
H506 C520 0.929 . S
H507 C521 0.931 . S
H508 C523 0.930 . S
C509 H497 0.930 . S
C509 C510 1.399 . S
C509 C514 1.399 . S
C510 C509 1.399 . S
C510 C511 1.376 . S
C511 H498 0.930 . S
C511 C510 1.376 . S
C511 C512 1.388 . S
C512 H499 0.930 . S
C512 C511 1.388 . S
C512 C513 1.390 . S
C513 C512 1.390 . S
C513 C514 1.394 . S
C513 C519 1.465 1_556 S
C514 C509 1.399 . S
C514 C513 1.394 . S
C514 C515 1.516 1_556 S
C515 C514 1.516 1_554 S
C515 C516 1.502 . S
C515 C517 1.561 1_554 S
C515 C518 1.526 . S
C516 H500 0.959 . S
C516 H501 0.959 . S
C516 H502 0.961 . S
C516 C515 1.502 . S
C517 H503 0.960 . S
C517 H504 0.961 1_556 S
C517 H505 0.959 . S
C517 C515 1.561 1_556 S
C518 C515 1.526 . S
C518 C519 1.396 . S
C518 C523 1.390 . S
C519 C513 1.465 1_554 S
C519 C518 1.396 . S
C519 C520 1.399 . S
C520 H506 0.929 . S
C520 C519 1.399 . S
C520 C521 1.385 . S
C521 H507 0.931 . S
C521 C520 1.385 . S
C521 C522 1.389 . S
C522 C521 1.389 . S
C522 C523 1.387 . S
C523 H508 0.930 . S
C523 C518 1.390 . S
C523 C522 1.387 . S
H524 C536 0.930 . S
H525 C538 0.930 . S
H526 C539 0.930 1_545 S
H527 C543 0.959 . S
H528 C543 0.959 . S
H529 C543 0.961 . S
H530 C544 0.960 . S
H531 C544 0.961 . S
H532 C544 0.959 . S
H533 C547 0.929 . S
H534 C548 0.931 . S
H535 C550 0.930 . S
C536 H524 0.930 . S
C536 C537 1.399 . S
C536 C541 1.399 . S
C537 C536 1.399 . S
C537 C538 1.376 . S
C538 H525 0.930 . S
C538 C537 1.376 . S
C538 C539 1.388 . S
C539 H526 0.930 1_565 S
C539 C538 1.388 . S
C539 C540 1.390 . S
C540 C539 1.390 . S
C540 C541 1.394 . S
C540 C546 1.465 1_565 S
C541 C536 1.399 . S
C541 C540 1.394 . S
C541 C542 1.516 . S
C542 C541 1.516 . S
C542 C543 1.502 . S
C542 C544 1.561 . S
C542 C545 1.526 1_565 S
C543 H527 0.959 . S
C543 H528 0.959 . S
C543 H529 0.961 . S
C543 C542 1.502 . S
C544 H530 0.960 . S
C544 H531 0.961 . S
C544 H532 0.959 . S
C544 C542 1.561 . S
C545 C542 1.526 1_545 S
C545 C546 1.396 . S
C545 C550 1.390 . S
C546 C540 1.465 1_545 S
C546 C545 1.396 . S
C546 C547 1.399 . S
C547 H533 0.929 . S
C547 C546 1.399 . S
C547 C548 1.385 . S
C548 H534 0.931 . S
C548 C547 1.385 . S
C548 C549 1.389 . S
C549 C548 1.389 . S
C549 C550 1.387 . S
C550 H535 0.930 . S
C550 C545 1.390 . S
C550 C549 1.387 . S
H551 C563 0.930 . S
H552 C565 0.930 . S
H553 C566 0.930 . S
H554 C570 0.959 . S
H555 C570 0.959 . S
H556 C570 0.961 . S
H557 C571 0.960 . S
H558 C571 0.961 . S
H559 C571 0.959 . S
H560 C574 0.929 . S
H561 C575 0.931 . S
H562 C577 0.930 . S
C563 H551 0.930 . S
C563 C564 1.399 . S
C563 C568 1.399 . S
C564 C563 1.399 . S
C564 C565 1.376 . S
C565 H552 0.930 . S
C565 C564 1.376 . S
C565 C566 1.388 . S
C566 H553 0.930 . S
C566 C565 1.388 . S
C566 C567 1.390 . S
C567 C566 1.390 . S
C567 C568 1.394 . S
C567 C573 1.465 . S
C568 C563 1.399 . S
C568 C567 1.394 . S
C568 C569 1.516 . S
C569 C568 1.516 . S
C569 C570 1.502 . S
C569 C571 1.561 . S
C569 C572 1.526 . S
C570 H554 0.959 . S
C570 H555 0.959 . S
C570 H556 0.961 . S
C570 C569 1.502 . S
C571 H557 0.960 . S
C571 H558 0.961 . S
C571 H559 0.959 . S
C571 C569 1.561 . S
C572 C569 1.526 . S
C572 C573 1.396 . S
C572 C577 1.390 . S
C573 C567 1.465 . S
C573 C572 1.396 . S
C573 C574 1.399 . S
C574 H560 0.929 . S
C574 C573 1.399 . S
C574 C575 1.385 . S
C575 H561 0.931 . S
C575 C574 1.385 . S
C575 C576 1.389 . S
C576 C575 1.389 . S
C576 C577 1.387 . S
C577 H562 0.930 . S
C577 C572 1.390 . S
C577 C576 1.387 . S
H578 C590 0.930 . S
H579 C592 0.930 . S
H580 C593 0.900 1_545 S
H581 C597 0.959 . S
H582 C597 0.959 . S
H583 C597 0.961 . S
H584 C598 0.960 . S
H585 C598 0.961 . S
H586 C598 0.959 . S
H587 C601 0.929 . S
H588 C602 0.931 . S
H589 C604 0.930 . S
C590 H578 0.930 . S
C590 C591 1.399 . S
C590 C595 1.399 . S
C591 C590 1.399 . S
C591 C592 1.376 . S
C592 H579 0.930 . S
C592 C591 1.376 . S
C592 C593 1.418 . S
C593 H580 0.900 1_565 S
C593 C592 1.418 . S
C593 C594 1.392 . S
C594 C593 1.392 . S
C594 C595 1.394 . S
C594 C600 1.465 1_565 S
C595 C590 1.399 . S
C595 C594 1.394 . S
C595 C596 1.516 . S
C596 C595 1.516 . S
C596 C597 1.502 . S
C596 C598 1.561 . S
C596 C599 1.526 1_565 S
C597 H581 0.959 . S
C597 H582 0.959 . S
C597 H583 0.961 . S
C597 C596 1.502 . S
C598 H584 0.960 . S
C598 H585 0.961 . S
C598 H586 0.959 . S
C598 C596 1.561 . S
C599 C596 1.526 1_545 S
C599 C600 1.396 . S
C599 C604 1.390 . S
C600 C594 1.465 1_545 S
C600 C599 1.396 . S
C600 C601 1.399 . S
C601 H587 0.929 . S
C601 C600 1.399 . S
C601 C602 1.385 . S
C602 H588 0.931 . S
C602 C601 1.385 . S
C602 C603 1.389 . S
C603 C602 1.389 . S
C603 C604 1.387 . S
C604 H589 0.930 . S
C604 C599 1.390 . S
C604 C603 1.387 . S
H605 C617 0.930 . S
H606 C619 0.930 . S
H607 C620 0.930 . S
H608 C624 0.959 . S
H609 C624 0.959 . S
H610 C624 0.961 . S
H611 C625 0.960 . S
H612 C625 0.961 1_554 S
H613 C625 0.959 . S
H614 C628 0.929 . S
H615 C629 0.931 . S
H616 C631 0.930 . S
C617 H605 0.930 . S
C617 C618 1.399 . S
C617 C622 1.399 . S
C618 C617 1.399 . S
C618 C619 1.376 . S
C619 H606 0.930 . S
C619 C618 1.376 . S
C619 C620 1.388 . S
C620 H607 0.930 . S
C620 C619 1.388 . S
C620 C621 1.390 . S
C621 C620 1.390 . S
C621 C622 1.394 . S
C621 C627 1.465 1_556 S
C622 C617 1.399 . S
C622 C621 1.394 . S
C622 C623 1.516 1_556 S
C623 C622 1.516 1_554 S
C623 C624 1.502 . S
C623 C625 1.561 1_554 S
C623 C626 1.526 . S
C624 H608 0.959 . S
C624 H609 0.959 . S
C624 H610 0.961 . S
C624 C623 1.502 . S
C625 H611 0.960 . S
C625 H612 0.961 1_556 S
C625 H613 0.959 . S
C625 C623 1.561 1_556 S
C626 C623 1.526 . S
C626 C627 1.396 . S
C626 C631 1.390 . S
C627 C621 1.465 1_554 S
C627 C626 1.396 . S
C627 C628 1.399 . S
C628 H614 0.929 . S
C628 C627 1.399 . S
C628 C629 1.385 . S
C629 H615 0.931 . S
C629 C628 1.385 . S
C629 C630 1.389 . S
C630 C629 1.389 . S
C630 C631 1.387 . S
C631 H616 0.930 . S
C631 C626 1.390 . S
C631 C630 1.387 . S
H632 C644 0.930 . S
H633 C646 0.930 . S
H634 C647 0.930 . S
H635 C651 0.959 . S
H636 C651 0.959 . S
H637 C651 0.961 . S
H638 C652 0.960 . S
H639 C652 0.961 . S
H640 C652 0.959 . S
H641 C655 0.929 . S
H642 C656 0.931 . S
H643 C658 0.930 . S
C644 H632 0.930 . S
C644 C645 1.399 . S
C644 C649 1.399 . S
C645 C644 1.399 . S
C645 C646 1.376 . S
C646 H633 0.930 . S
C646 C645 1.376 . S
C646 C647 1.388 . S
C647 H634 0.930 . S
C647 C646 1.388 . S
C647 C648 1.390 . S
C648 C647 1.390 . S
C648 C649 1.394 . S
C648 C654 1.465 . S
C649 C644 1.399 . S
C649 C648 1.394 . S
C649 C650 1.516 . S
C650 C649 1.516 . S
C650 C651 1.502 . S
C650 C652 1.561 . S
C650 C653 1.526 . S
C651 H635 0.959 . S
C651 H636 0.959 . S
C651 H637 0.961 . S
C651 C650 1.502 . S
C652 H638 0.960 . S
C652 H639 0.961 . S
C652 H640 0.959 . S
C652 C650 1.561 . S
C653 C650 1.526 . S
C653 C654 1.396 . S
C653 C658 1.390 . S
C654 C648 1.465 . S
C654 C653 1.396 . S
C654 C655 1.399 . S
C655 H641 0.929 . S
C655 C654 1.399 . S
C655 C656 1.385 . S
C656 H642 0.931 . S
C656 C655 1.385 . S
C656 C657 1.389 . S
C657 C656 1.389 . S
C657 C658 1.387 . S
C658 H643 0.930 . S
C658 C653 1.390 . S
C658 C657 1.387 . S
H659 C671 0.930 . S
H660 C673 0.930 . S
H661 C674 0.930 . S
H662 C678 0.959 . S
H663 C678 0.959 . S
H664 C678 0.961 . S
H665 C679 0.960 . S
H666 C679 0.961 . S
H667 C679 0.959 . S
H668 C682 0.934 . S
H669 C683 0.931 . S
H670 C685 0.930 . S
C671 H659 0.930 . S
C671 C672 1.399 . S
C671 C676 1.399 . S
C672 C671 1.399 . S
C672 C673 1.376 . S
C673 H660 0.930 . S
C673 C672 1.376 . S
C673 C674 1.388 . S
C674 H661 0.930 . S
C674 C673 1.388 . S
C674 C675 1.390 . S
C675 C674 1.390 . S
C675 C676 1.394 . S
C675 C681 1.465 1_556 S
C676 C671 1.399 . S
C676 C675 1.394 . S
C676 C677 1.516 1_556 S
C677 C676 1.516 1_554 S
C677 C678 1.502 . S
C677 C679 1.561 . S
C677 C680 1.526 . S
C678 H662 0.959 . S
C678 H663 0.959 . S
C678 H664 0.961 . S
C678 C677 1.502 . S
C679 H665 0.960 . S
C679 H666 0.961 . S
C679 H667 0.959 . S
C679 C677 1.561 . S
C680 C677 1.526 . S
C680 C681 1.396 . S
C680 C685 1.390 . S
C681 C675 1.465 1_554 S
C681 C680 1.396 . S
C681 C682 1.398 1_554 S
C682 H668 0.934 . S
C682 C681 1.398 1_556 S
C682 C683 1.380 1_556 S
C683 H669 0.931 . S
C683 C682 1.380 1_554 S
C683 C684 1.389 . S
C684 C683 1.389 . S
C684 C685 1.387 . S
C685 H670 0.930 . S
C685 C680 1.390 . S
C685 C684 1.387 . S
H686 C698 0.930 . S
H687 C700 0.930 . S
H688 C701 0.930 . S
H689 C705 0.959 . S
H690 C705 0.959 . S
H691 C705 0.961 . S
H692 C706 0.960 . S
H693 C706 0.961 . S
H694 C706 0.959 . S
H695 C709 0.929 . S
H696 C710 0.931 . S
H697 C712 0.930 . S
C698 H686 0.930 . S
C698 C699 1.399 . S
C698 C703 1.399 . S
C699 C698 1.399 . S
C699 C700 1.376 . S
C700 H687 0.930 . S
C700 C699 1.376 . S
C700 C701 1.388 . S
C701 H688 0.930 . S
C701 C700 1.388 . S
C701 C702 1.390 . S
C702 C701 1.390 . S
C702 C703 1.394 . S
C702 C708 1.465 . S
C703 C698 1.399 . S
C703 C702 1.394 . S
C703 C704 1.516 . S
C704 C703 1.516 . S
C704 C705 1.502 . S
C704 C706 1.561 . S
C704 C707 1.526 . S
C705 H689 0.959 . S
C705 H690 0.959 . S
C705 H691 0.961 . S
C705 C704 1.502 . S
C706 H692 0.960 . S
C706 H693 0.961 . S
C706 H694 0.959 . S
C706 C704 1.561 . S
C707 C704 1.526 . S
C707 C708 1.396 . S
C707 C712 1.390 . S
C708 C702 1.465 . S
C708 C707 1.396 . S
C708 C709 1.399 . S
C709 H695 0.929 . S
C709 C708 1.399 . S
C709 C710 1.385 . S
C710 H696 0.931 . S
C710 C709 1.385 . S
C710 C711 1.389 . S
C711 C710 1.389 . S
C711 C712 1.387 . S
C712 H697 0.930 . S
C712 C707 1.390 . S
C712 C711 1.387 . S
H713 C725 0.930 . S
H714 C727 0.930 . S
H715 C728 0.930 . S
H716 C732 0.959 . S
H717 C732 0.959 . S
H718 C732 0.961 . S
H719 C733 0.960 . S
H720 C733 0.961 . S
H721 C733 0.959 . S
H722 C736 0.929 . S
H723 C737 0.931 . S
H724 C739 0.930 . S
C725 H713 0.930 . S
C725 C726 1.399 . S
C725 C730 1.399 . S
C726 C725 1.399 . S
C726 C727 1.376 . S
C727 H714 0.930 . S
C727 C726 1.376 . S
C727 C728 1.388 . S
C728 H715 0.930 . S
C728 C727 1.388 . S
C728 C729 1.390 . S
C729 C728 1.390 . S
C729 C730 1.394 . S
C729 C735 1.465 . S
C730 C725 1.399 . S
C730 C729 1.394 . S
C730 C731 1.516 . S
C731 C730 1.516 . S
C731 C732 1.502 . S
C731 C733 1.561 . S
C731 C734 1.526 . S
C732 H716 0.959 . S
C732 H717 0.959 . S
C732 H718 0.961 . S
C732 C731 1.502 . S
C733 H719 0.960 . S
C733 H720 0.961 . S
C733 H721 0.959 . S
C733 C731 1.561 . S
C734 C731 1.526 . S
C734 C735 1.396 . S
C734 C739 1.390 . S
C735 C729 1.465 . S
C735 C734 1.396 . S
C735 C736 1.399 . S
C736 H722 0.929 . S
C736 C735 1.399 . S
C736 C737 1.385 . S
C737 H723 0.931 . S
C737 C736 1.385 . S
C737 C738 1.389 . S
C738 C737 1.389 . S
C738 C739 1.387 . S
C739 H724 0.930 . S
C739 C734 1.390 . S
C739 C738 1.387 . S
H740 C752 0.930 . S
H741 C754 0.930 . S
H742 C755 0.930 . S
H743 C759 0.959 . S
H744 C759 0.959 . S
H745 C759 0.961 . S
H746 C760 0.960 . S
H747 C760 0.961 . S
H748 C760 0.959 . S
H749 C763 0.929 . S
H750 C764 0.931 . S
H751 C766 0.930 . S
C752 H740 0.930 . S
C752 C753 1.399 . S
C752 C757 1.399 . S
C753 C752 1.399 . S
C753 C754 1.376 . S
C754 H741 0.930 . S
C754 C753 1.376 . S
C754 C755 1.388 . S
C755 H742 0.930 . S
C755 C754 1.388 . S
C755 C756 1.390 . S
C756 C755 1.390 . S
C756 C757 1.394 . S
C756 C762 1.465 . S
C757 C752 1.399 . S
C757 C756 1.394 . S
C757 C758 1.516 . S
C758 C757 1.516 . S
C758 C759 1.502 . S
C758 C760 1.561 . S
C758 C761 1.526 . S
C759 H743 0.959 . S
C759 H744 0.959 . S
C759 H745 0.961 . S
C759 C758 1.502 . S
C760 H746 0.960 . S
C760 H747 0.961 . S
C760 H748 0.959 . S
C760 C758 1.561 . S
C761 C758 1.526 . S
C761 C762 1.396 . S
C761 C766 1.390 . S
C762 C756 1.465 . S
C762 C761 1.396 . S
C762 C763 1.399 . S
C763 H749 0.929 . S
C763 C762 1.399 . S
C763 C764 1.385 . S
C764 H750 0.931 . S
C764 C763 1.385 . S
C764 C765 1.389 . S
C765 C764 1.389 . S
C765 C766 1.387 . S
C766 H751 0.930 . S
C766 C761 1.390 . S
C766 C765 1.387 . S
H767 C779 0.930 . S
H768 C781 0.930 . S
H769 C782 0.930 1_556 S
H770 C786 0.959 . S
H771 C786 0.959 . S
H772 C786 0.961 . S
H773 C787 0.960 1_554 S
H774 C787 0.961 . S
H775 C787 0.959 . S
H776 C790 0.929 . S
H777 C791 0.931 . S
H778 C793 0.930 . S
C779 H767 0.930 . S
C779 C780 1.399 . S
C779 C784 1.399 . S
C780 C779 1.399 . S
C780 C781 1.376 . S
C781 H768 0.930 . S
C781 C780 1.376 . S
C781 C782 1.388 . S
C782 H769 0.930 1_554 S
C782 C781 1.388 . S
C782 C783 1.390 . S
C783 C782 1.390 . S
C783 C784 1.394 . S
C783 C789 1.465 1_554 S
C784 C779 1.399 . S
C784 C783 1.394 . S
C784 C785 1.516 . S
C785 C784 1.516 . S
C785 C786 1.502 . S
C785 C787 1.561 1_554 S
C785 C788 1.526 1_554 S
C786 H770 0.959 . S
C786 H771 0.959 . S
C786 H772 0.961 . S
C786 C785 1.502 . S
C787 H773 0.960 1_556 S
C787 H774 0.961 . S
C787 H775 0.959 . S
C787 C785 1.561 1_556 S
C788 C785 1.526 1_556 S
C788 C789 1.396 . S
C788 C793 1.390 . S
C789 C783 1.465 1_556 S
C789 C788 1.396 . S
C789 C790 1.399 . S
C790 H776 0.929 . S
C790 C789 1.399 . S
C790 C791 1.385 . S
C791 H777 0.931 . S
C791 C790 1.385 . S
C791 C792 1.389 . S
C792 C791 1.389 . S
C792 C793 1.387 . S
C793 H778 0.930 . S
C793 C788 1.390 . S
C793 C792 1.387 . S
H794 C806 0.930 . S
H795 C808 0.930 . S
H796 C809 0.930 . S
H797 C813 0.959 . S
H798 C813 0.959 . S
H799 C813 0.961 . S
H800 C814 0.960 . S
H801 C814 0.961 . S
H802 C814 0.959 . S
H803 C817 0.929 . S
H804 C818 0.931 . S
H805 C820 0.930 . S
C806 H794 0.930 . S
C806 C807 1.399 . S
C806 C811 1.399 . S
C807 C806 1.399 . S
C807 C808 1.376 . S
C808 H795 0.930 . S
C808 C807 1.376 . S
C808 C809 1.388 . S
C809 H796 0.930 . S
C809 C808 1.388 . S
C809 C810 1.390 . S
C810 C809 1.390 . S
C810 C811 1.394 . S
C810 C816 1.465 . S
C811 C806 1.399 . S
C811 C810 1.394 . S
C811 C812 1.516 . S
C812 C811 1.516 . S
C812 C813 1.502 . S
C812 C814 1.561 . S
C812 C815 1.526 . S
C813 H797 0.959 . S
C813 H798 0.959 . S
C813 H799 0.961 . S
C813 C812 1.502 . S
C814 H800 0.960 . S
C814 H801 0.961 . S
C814 H802 0.959 . S
C814 C812 1.561 . S
C815 C812 1.526 . S
C815 C816 1.396 . S
C815 C820 1.390 . S
C816 C810 1.465 . S
C816 C815 1.396 . S
C816 C817 1.399 . S
C817 H803 0.929 . S
C817 C816 1.399 . S
C817 C818 1.385 . S
C818 H804 0.931 . S
C818 C817 1.385 . S
C818 C819 1.389 . S
C819 C818 1.389 . S
C819 C820 1.387 . S
C820 H805 0.930 . S
C820 C815 1.390 . S
C820 C819 1.387 . S
H821 C833 0.930 . S
H822 C835 0.930 . S
H823 C836 0.930 . S
H824 C840 0.959 . S
H825 C840 0.959 . S
H826 C840 0.961 . S
H827 C841 0.960 . S
H828 C841 0.961 . S
H829 C841 0.959 . S
H830 C844 0.929 . S
H831 C845 0.931 . S
H832 C847 0.930 . S
C833 H821 0.930 . S
C833 C834 1.399 . S
C833 C838 1.399 . S
C834 C833 1.399 . S
C834 C835 1.376 . S
C835 H822 0.930 . S
C835 C834 1.376 . S
C835 C836 1.388 . S
C836 H823 0.930 . S
C836 C835 1.388 . S
C836 C837 1.390 . S
C837 C836 1.390 . S
C837 C838 1.394 . S
C837 C843 1.465 . S
C838 C833 1.399 . S
C838 C837 1.394 . S
C838 C839 1.516 . S
C839 C838 1.516 . S
C839 C840 1.502 . S
C839 C841 1.561 . S
C839 C842 1.526 . S
C840 H824 0.959 . S
C840 H825 0.959 . S
C840 H826 0.961 . S
C840 C839 1.502 . S
C841 H827 0.960 . S
C841 H828 0.961 . S
C841 H829 0.959 . S
C841 C839 1.561 . S
C842 C839 1.526 . S
C842 C843 1.396 . S
C842 C847 1.390 . S
C843 C837 1.465 . S
C843 C842 1.396 . S
C843 C844 1.399 . S
C844 H830 0.929 . S
C844 C843 1.399 . S
C844 C845 1.385 . S
C845 H831 0.931 . S
C845 C844 1.385 . S
C845 C846 1.389 . S
C846 C845 1.389 . S
C846 C847 1.387 . S
C847 H832 0.930 . S
C847 C842 1.390 . S
C847 C846 1.387 . S
H848 C860 0.930 . S
H849 C862 0.930 . S
H850 C863 0.930 . S
H851 C867 0.959 . S
H852 C867 0.959 . S
H853 C867 0.961 . S
H854 C868 0.960 . S
H855 C868 0.961 . S
H856 C868 0.959 . S
H857 C871 0.929 . S
H858 C872 0.931 . S
H859 C874 0.930 . S
C860 H848 0.930 . S
C860 C861 1.399 . S
C860 C865 1.399 . S
C861 C860 1.399 . S
C861 C862 1.376 . S
C862 H849 0.930 . S
C862 C861 1.376 . S
C862 C863 1.388 . S
C863 H850 0.930 . S
C863 C862 1.388 . S
C863 C864 1.390 . S
C864 C863 1.390 . S
C864 C865 1.394 . S
C864 C870 1.465 . S
C865 C860 1.399 . S
C865 C864 1.394 . S
C865 C866 1.516 . S
C866 C865 1.516 . S
C866 C867 1.502 . S
C866 C868 1.561 . S
C866 C869 1.526 . S
C867 H851 0.959 . S
C867 H852 0.959 . S
C867 H853 0.961 . S
C867 C866 1.502 . S
C868 H854 0.960 . S
C868 H855 0.961 . S
C868 H856 0.959 . S
C868 C866 1.561 . S
C869 C866 1.526 . S
C869 C870 1.396 . S
C869 C874 1.390 . S
C870 C864 1.465 . S
C870 C869 1.396 . S
C870 C871 1.399 . S
C871 H857 0.929 . S
C871 C870 1.399 . S
C871 C872 1.385 . S
C872 H858 0.931 . S
C872 C871 1.385 . S
C872 C873 1.389 . S
C873 C872 1.389 . S
C873 C874 1.387 . S
C874 H859 0.930 . S
C874 C869 1.390 . S
C874 C873 1.387 . S
H875 C887 0.930 . S
H876 C889 0.930 . S
H877 C890 0.930 . S
H878 C894 0.959 . S
H879 C894 0.959 . S
H880 C894 0.961 . S
H881 C895 0.960 . S
H882 C895 0.961 . S
H883 C895 0.959 . S
H884 C898 0.929 . S
H885 C899 0.931 . S
H886 C901 0.930 . S
C887 H875 0.930 . S
C887 C888 1.399 . S
C887 C892 1.399 1_655 S
C888 C887 1.399 . S
C888 C889 1.376 . S
C889 H876 0.930 . S
C889 C888 1.376 . S
C889 C890 1.388 . S
C890 H877 0.930 . S
C890 C889 1.388 . S
C890 C891 1.390 1_655 S
C891 C890 1.390 1_455 S
C891 C892 1.394 . S
C891 C897 1.465 . S
C892 C887 1.399 1_455 S
C892 C891 1.394 . S
C892 C893 1.516 . S
C893 C892 1.516 . S
C893 C894 1.502 . S
C893 C895 1.561 . S
C893 C896 1.526 . S
C894 H878 0.959 . S
C894 H879 0.959 . S
C894 H880 0.961 . S
C894 C893 1.502 . S
C895 H881 0.960 . S
C895 H882 0.961 . S
C895 H883 0.959 . S
C895 C893 1.561 . S
C896 C893 1.526 . S
C896 C897 1.396 . S
C896 C901 1.390 . S
C897 C891 1.465 . S
C897 C896 1.396 . S
C897 C898 1.399 . S
C898 H884 0.929 . S
C898 C897 1.399 . S
C898 C899 1.385 . S
C899 H885 0.931 . S
C899 C898 1.385 . S
C899 C900 1.389 . S
C900 C899 1.389 . S
C900 C901 1.387 . S
C901 H886 0.930 . S
C901 C896 1.390 . S
C901 C900 1.387 . S
H902 C914 0.930 . S
H903 C916 0.930 . S
H904 C917 0.930 . S
H905 C921 0.959 . S
H906 C921 0.959 . S
H907 C921 0.961 . S
H908 C922 0.960 . S
H909 C922 0.961 . S
H910 C922 0.959 . S
H911 C925 0.929 . S
H912 C926 0.931 . S
H913 C928 0.930 . S
C914 H902 0.930 . S
C914 C915 1.399 . S
C914 C919 1.399 . S
C915 C914 1.399 . S
C915 C916 1.376 . S
C916 H903 0.930 . S
C916 C915 1.376 . S
C916 C917 1.388 . S
C917 H904 0.930 . S
C917 C916 1.388 . S
C917 C918 1.390 . S
C918 C917 1.390 . S
C918 C919 1.394 . S
C918 C924 1.465 . S
C919 C914 1.399 . S
C919 C918 1.394 . S
C919 C920 1.516 . S
C920 C919 1.516 . S
C920 C921 1.502 . S
C920 C922 1.561 . S
C920 C923 1.526 . S
C921 H905 0.959 . S
C921 H906 0.959 . S
C921 H907 0.961 . S
C921 C920 1.502 . S
C922 H908 0.960 . S
C922 H909 0.961 . S
C922 H910 0.959 . S
C922 C920 1.561 . S
C923 C920 1.526 . S
C923 C924 1.396 . S
C923 C928 1.390 . S
C924 C918 1.465 . S
C924 C923 1.396 . S
C924 C925 1.399 . S
C925 H911 0.929 . S
C925 C924 1.399 . S
C925 C926 1.385 . S
C926 H912 0.931 . S
C926 C925 1.385 . S
C926 C927 1.389 . S
C927 C926 1.389 . S
C927 C928 1.387 . S
C928 H913 0.930 . S
C928 C923 1.390 . S
C928 C927 1.387 . S
H929 C941 0.930 . S
H930 C943 0.930 . S
H931 C944 0.930 . S
H932 C948 0.959 . S
H933 C948 0.959 . S
H934 C948 0.961 . S
H935 C949 0.960 . S
H936 C949 0.961 . S
H937 C949 0.959 . S
H938 C952 0.929 . S
H939 C953 0.931 . S
H940 C955 0.930 . S
C941 H929 0.930 . S
C941 C942 1.399 . S
C941 C946 1.399 . S
C942 C941 1.399 . S
C942 C943 1.376 . S
C943 H930 0.930 . S
C943 C942 1.376 . S
C943 C944 1.388 . S
C944 H931 0.930 . S
C944 C943 1.388 . S
C944 C945 1.390 . S
C945 C944 1.390 . S
C945 C946 1.394 . S
C945 C951 1.465 . S
C946 C941 1.399 . S
C946 C945 1.394 . S
C946 C947 1.516 . S
C947 C946 1.516 . S
C947 C948 1.502 . S
C947 C949 1.561 . S
C947 C950 1.526 . S
C948 H932 0.959 . S
C948 H933 0.959 . S
C948 H934 0.961 . S
C948 C947 1.502 . S
C949 H935 0.960 . S
C949 H936 0.961 . S
C949 H937 0.959 . S
C949 C947 1.561 . S
C950 C947 1.526 . S
C950 C951 1.396 . S
C950 C955 1.390 . S
C951 C945 1.465 . S
C951 C950 1.396 . S
C951 C952 1.399 . S
C952 H938 0.929 . S
C952 C951 1.399 . S
C952 C953 1.385 . S
C953 H939 0.931 . S
C953 C952 1.385 . S
C953 C954 1.389 . S
C954 C953 1.389 . S
C954 C955 1.387 . S
C955 H940 0.930 . S
C955 C950 1.390 . S
C955 C954 1.387 . S
H956 C968 0.930 . S
H957 C970 0.930 . S
H958 C971 0.930 . S
H959 C975 0.959 . S
H960 C975 0.959 . S
H961 C975 0.961 . S
H962 C976 0.960 . S
H963 C976 0.961 . S
H964 C976 0.959 . S
H965 C979 0.929 . S
H966 C980 0.931 . S
H967 C982 0.930 . S
C968 H956 0.930 . S
C968 C969 1.399 . S
C968 C973 1.399 . S
C969 C968 1.399 . S
C969 C970 1.376 . S
C970 H957 0.930 . S
C970 C969 1.376 . S
C970 C971 1.388 . S
C971 H958 0.930 . S
C971 C970 1.388 . S
C971 C972 1.390 . S
C972 C971 1.390 . S
C972 C973 1.394 . S
C972 C978 1.465 . S
C973 C968 1.399 . S
C973 C972 1.394 . S
C973 C974 1.516 . S
C974 C973 1.516 . S
C974 C975 1.502 . S
C974 C976 1.561 . S
C974 C977 1.526 . S
C975 H959 0.959 . S
C975 H960 0.959 . S
C975 H961 0.961 . S
C975 C974 1.502 . S
C976 H962 0.960 . S
C976 H963 0.961 . S
C976 H964 0.959 . S
C976 C974 1.561 . S
C977 C974 1.526 . S
C977 C978 1.396 . S
C977 C982 1.390 . S
C978 C972 1.465 . S
C978 C977 1.396 . S
C978 C979 1.399 . S
C979 H965 0.929 . S
C979 C978 1.399 . S
C979 C980 1.385 . S
C980 H966 0.931 . S
C980 C979 1.385 . S
C980 C981 1.389 . S
C981 C980 1.389 . S
C981 C982 1.387 . S
C982 H967 0.930 . S
C982 C977 1.390 . S
C982 C981 1.387 . S
H983 C995 0.930 . S
H984 C997 0.930 . S
H985 C998 0.930 . S
H986 C1002 0.959 . S
H987 C1002 0.959 . S
H988 C1002 0.961 . S
H989 C1003 0.960 . S
H990 C1003 0.961 . S
H991 C1003 0.959 . S
H992 C1006 0.929 . S
H993 C1007 0.931 . S
H994 C1009 0.930 . S
C995 H983 0.930 . S
C995 C996 1.399 . S
C995 C1000 1.399 . S
C996 C995 1.399 . S
C996 C997 1.376 . S
C997 H984 0.930 . S
C997 C996 1.376 . S
C997 C998 1.388 . S
C998 H985 0.930 . S
C998 C997 1.388 . S
C998 C999 1.390 . S
C999 C998 1.390 . S
C999 C1000 1.394 . S
C999 C1005 1.465 . S
C1000 C995 1.399 . S
C1000 C999 1.394 . S
C1000 C1001 1.516 . S
C1001 C1000 1.516 . S
C1001 C1002 1.502 . S
C1001 C1003 1.561 . S
C1001 C1004 1.526 . S
C1002 H986 0.959 . S
C1002 H987 0.959 . S
C1002 H988 0.961 . S
C1002 C1001 1.502 . S
C1003 H989 0.960 . S
C1003 H990 0.961 . S
C1003 H991 0.959 . S
C1003 C1001 1.561 . S
C1004 C1001 1.526 . S
C1004 C1005 1.396 . S
C1004 C1009 1.390 . S
C1005 C999 1.465 . S
C1005 C1004 1.396 . S
C1005 C1006 1.399 . S
C1006 H992 0.929 . S
C1006 C1005 1.399 . S
C1006 C1007 1.385 . S
C1007 H993 0.931 . S
C1007 C1006 1.385 . S
C1007 C1008 1.389 . S
C1008 C1007 1.389 . S
C1008 C1009 1.387 . S
C1009 H994 0.930 . S
C1009 C1004 1.390 . S
C1009 C1008 1.387 . S
H1010 C1022 0.930 . S
H1011 C1024 0.930 . S
H1012 C1025 0.930 . S
H1013 C1029 0.959 . S
H1014 C1029 0.959 . S
H1015 C1029 0.961 . S
H1016 C1030 0.960 . S
H1017 C1030 0.961 . S
H1018 C1030 0.959 . S
H1019 C1033 0.929 . S
H1020 C1034 0.931 . S
H1021 C1036 0.930 . S
C1022 H1010 0.930 . S
C1022 C1023 1.399 . S
C1022 C1027 1.399 . S
C1023 C1022 1.399 . S
C1023 C1024 1.376 . S
C1024 H1011 0.930 . S
C1024 C1023 1.376 . S
C1024 C1025 1.388 . S
C1025 H1012 0.930 . S
C1025 C1024 1.388 . S
C1025 C1026 1.390 . S
C1026 C1025 1.390 . S
C1026 C1027 1.394 . S
C1026 C1032 1.465 . S
C1027 C1022 1.399 . S
C1027 C1026 1.394 . S
C1027 C1028 1.516 . S
C1028 C1027 1.516 . S
C1028 C1029 1.502 . S
C1028 C1030 1.561 . S
C1028 C1031 1.526 . S
C1029 H1013 0.959 . S
C1029 H1014 0.959 . S
C1029 H1015 0.961 . S
C1029 C1028 1.502 . S
C1030 H1016 0.960 . S
C1030 H1017 0.961 . S
C1030 H1018 0.959 . S
C1030 C1028 1.561 . S
C1031 C1028 1.526 . S
C1031 C1032 1.396 . S
C1031 C1036 1.390 . S
C1032 C1026 1.465 . S
C1032 C1031 1.396 . S
C1032 C1033 1.399 . S
C1033 H1019 0.929 . S
C1033 C1032 1.399 . S
C1033 C1034 1.385 . S
C1034 H1020 0.931 . S
C1034 C1033 1.385 . S
C1034 C1035 1.389 . S
C1035 C1034 1.389 . S
C1035 C1036 1.387 . S
C1036 H1021 0.930 . S
C1036 C1031 1.390 . S
C1036 C1035 1.387 . S
H1037 C1049 0.930 . S
H1038 C1051 0.930 . S
H1039 C1052 0.930 . S
H1040 C1056 0.959 . S
H1041 C1056 0.959 . S
H1042 C1056 0.961 . S
H1043 C1057 0.960 . S
H1044 C1057 0.961 . S
H1045 C1057 0.959 . S
H1046 C1060 0.929 . S
H1047 C1061 0.931 . S
H1048 C1063 0.930 . S
C1049 H1037 0.930 . S
C1049 C1050 1.399 . S
C1049 C1054 1.399 . S
C1050 C1049 1.399 . S
C1050 C1051 1.376 . S
C1051 H1038 0.930 . S
C1051 C1050 1.376 . S
C1051 C1052 1.388 . S
C1052 H1039 0.930 . S
C1052 C1051 1.388 . S
C1052 C1053 1.390 . S
C1053 C1052 1.390 . S
C1053 C1054 1.394 . S
C1053 C1059 1.465 . S
C1054 C1049 1.399 . S
C1054 C1053 1.394 . S
C1054 C1055 1.516 . S
C1055 C1054 1.516 . S
C1055 C1056 1.502 . S
C1055 C1057 1.561 . S
C1055 C1058 1.526 . S
C1056 H1040 0.959 . S
C1056 H1041 0.959 . S
C1056 H1042 0.961 . S
C1056 C1055 1.502 . S
C1057 H1043 0.960 . S
C1057 H1044 0.961 . S
C1057 H1045 0.959 . S
C1057 C1055 1.561 . S
C1058 C1055 1.526 . S
C1058 C1059 1.396 . S
C1058 C1063 1.390 1_455 S
C1059 C1053 1.465 . S
C1059 C1058 1.396 . S
C1059 C1060 1.399 1_455 S
C1060 H1046 0.929 . S
C1060 C1059 1.399 1_655 S
C1060 C1061 1.385 . S
C1061 H1047 0.931 . S
C1061 C1060 1.385 . S
C1061 C1062 1.389 . S
C1062 C1061 1.389 . S
C1062 C1063 1.387 . S
C1063 H1048 0.930 . S
C1063 C1058 1.390 1_655 S
C1063 C1062 1.387 . S
H1064 C1076 0.930 . S
H1065 C1078 0.930 . S
H1066 C1079 0.930 . S
H1067 C1083 0.959 . S
H1068 C1083 0.959 . S
H1069 C1083 0.961 . S
H1070 C1084 0.960 . S
H1071 C1084 0.961 . S
H1072 C1084 0.959 . S
H1073 C1087 0.929 . S
H1074 C1088 0.931 . S
H1075 C1090 0.930 . S
C1076 H1064 0.930 . S
C1076 C1077 1.399 . S
C1076 C1081 1.399 . S
C1077 C1076 1.399 . S
C1077 C1078 1.376 . S
C1078 H1065 0.930 . S
C1078 C1077 1.376 . S
C1078 C1079 1.388 . S
C1079 H1066 0.930 . S
C1079 C1078 1.388 . S
C1079 C1080 1.390 . S
C1080 C1079 1.390 . S
C1080 C1081 1.394 . S
C1080 C1086 1.465 . S
C1081 C1076 1.399 . S
C1081 C1080 1.394 . S
C1081 C1082 1.516 . S
C1082 C1081 1.516 . S
C1082 C1083 1.502 . S
C1082 C1084 1.561 . S
C1082 C1085 1.526 . S
C1083 H1067 0.959 . S
C1083 H1068 0.959 . S
C1083 H1069 0.961 . S
C1083 C1082 1.502 . S
C1084 H1070 0.960 . S
C1084 H1071 0.961 . S
C1084 H1072 0.959 . S
C1084 C1082 1.561 . S
C1085 C1082 1.526 . S
C1085 C1086 1.396 . S
C1085 C1090 1.390 . S
C1086 C1080 1.465 . S
C1086 C1085 1.396 . S
C1086 C1087 1.399 . S
C1087 H1073 0.929 . S
C1087 C1086 1.399 . S
C1087 C1088 1.385 . S
C1088 H1074 0.931 . S
C1088 C1087 1.385 . S
C1088 C1089 1.389 . S
C1089 C1088 1.389 . S
C1089 C1090 1.387 . S
C1090 H1075 0.930 . S
C1090 C1085 1.390 . S
C1090 C1089 1.387 . S
H1091 C1103 0.930 . S
H1092 C1105 0.930 . S
H1093 C1106 0.930 . S
H1094 C1110 0.959 . S
H1095 C1110 0.959 . S
H1096 C1110 0.961 . S
H1097 C1111 0.960 . S
H1098 C1111 0.961 . S
H1099 C1111 0.959 . S
H1100 C1114 0.929 1_655 S
H1101 C1115 0.931 . S
H1102 C1117 0.930 . S
C1103 H1091 0.930 . S
C1103 C1104 1.399 . S
C1103 C1108 1.399 . S
C1104 C1103 1.399 . S
C1104 C1105 1.376 . S
C1105 H1092 0.930 . S
C1105 C1104 1.376 . S
C1105 C1106 1.388 . S
C1106 H1093 0.930 . S
C1106 C1105 1.388 . S
C1106 C1107 1.390 . S
C1107 C1106 1.390 . S
C1107 C1108 1.394 . S
C1107 C1113 1.465 . S
C1108 C1103 1.399 . S
C1108 C1107 1.394 . S
C1108 C1109 1.516 . S
C1109 C1108 1.516 . S
C1109 C1110 1.502 . S
C1109 C1111 1.561 . S
C1109 C1112 1.526 . S
C1110 H1094 0.959 . S
C1110 H1095 0.959 . S
C1110 H1096 0.961 . S
C1110 C1109 1.502 . S
C1111 H1097 0.960 . S
C1111 H1098 0.961 . S
C1111 H1099 0.959 . S
C1111 C1109 1.561 . S
C1112 C1109 1.526 . S
C1112 C1113 1.396 . S
C1112 C1117 1.390 1_655 S
C1113 C1107 1.465 . S
C1113 C1112 1.396 . S
C1113 C1114 1.399 1_655 S
C1114 H1100 0.929 1_455 S
C1114 C1113 1.399 1_455 S
C1114 C1115 1.385 . S
C1115 H1101 0.931 . S
C1115 C1114 1.385 . S
C1115 C1116 1.389 . S
C1116 C1115 1.389 . S
C1116 C1117 1.387 . S
C1117 H1102 0.930 . S
C1117 C1112 1.390 1_455 S
C1117 C1116 1.387 . S
H1118 C1130 0.930 . S
H1119 C1132 0.930 . S
H1120 C1133 0.930 . S
H1121 C1137 0.959 . S
H1122 C1137 0.959 . S
H1123 C1137 0.961 . S
H1124 C1138 0.960 . S
H1125 C1138 0.961 . S
H1126 C1138 0.959 . S
H1127 C1141 0.929 . S
H1128 C1142 0.931 . S
H1129 C1144 0.930 . S
C1130 H1118 0.930 . S
C1130 C1131 1.399 . S
C1130 C1135 1.399 . S
C1131 C1130 1.399 . S
C1131 C1132 1.376 . S
C1132 H1119 0.930 . S
C1132 C1131 1.376 . S
C1132 C1133 1.388 . S
C1133 H1120 0.930 . S
C1133 C1132 1.388 . S
C1133 C1134 1.390 . S
C1134 C1133 1.390 . S
C1134 C1135 1.394 . S
C1134 C1140 1.465 . S
C1135 C1130 1.399 . S
C1135 C1134 1.394 . S
C1135 C1136 1.516 . S
C1136 C1135 1.516 . S
C1136 C1137 1.502 . S
C1136 C1138 1.561 . S
C1136 C1139 1.526 . S
C1137 H1121 0.959 . S
C1137 H1122 0.959 . S
C1137 H1123 0.961 . S
C1137 C1136 1.502 . S
C1138 H1124 0.960 . S
C1138 H1125 0.961 . S
C1138 H1126 0.959 . S
C1138 C1136 1.561 . S
C1139 C1136 1.526 . S
C1139 C1140 1.396 . S
C1139 C1144 1.390 . S
C1140 C1134 1.465 . S
C1140 C1139 1.396 . S
C1140 C1141 1.399 . S
C1141 H1127 0.929 . S
C1141 C1140 1.399 . S
C1141 C1142 1.385 . S
C1142 H1128 0.931 . S
C1142 C1141 1.385 . S
C1142 C1143 1.389 . S
C1143 C1142 1.389 . S
C1143 C1144 1.387 . S
C1144 H1129 0.930 . S
C1144 C1139 1.390 . S
C1144 C1143 1.387 . S
H1145 C1157 0.930 . S
H1146 C1159 0.930 . S
H1147 C1160 0.930 . S
H1148 C1164 0.959 . S
H1149 C1164 0.959 . S
H1150 C1164 0.961 . S
H1151 C1165 0.960 . S
H1152 C1165 0.961 . S
H1153 C1165 0.959 . S
H1154 C1168 0.929 . S
H1155 C1169 0.931 . S
H1156 C1171 0.930 . S
C1157 H1145 0.930 . S
C1157 C1158 1.399 . S
C1157 C1162 1.399 . S
C1158 C1157 1.399 . S
C1158 C1159 1.376 . S
C1159 H1146 0.930 . S
C1159 C1158 1.376 . S
C1159 C1160 1.388 . S
C1160 H1147 0.930 . S
C1160 C1159 1.388 . S
C1160 C1161 1.390 . S
C1161 C1160 1.390 . S
C1161 C1162 1.394 . S
C1161 C1167 1.465 . S
C1162 C1157 1.399 . S
C1162 C1161 1.394 . S
C1162 C1163 1.516 . S
C1163 C1162 1.516 . S
C1163 C1164 1.502 . S
C1163 C1165 1.561 . S
C1163 C1166 1.526 . S
C1164 H1148 0.959 . S
C1164 H1149 0.959 . S
C1164 H1150 0.961 . S
C1164 C1163 1.502 . S
C1165 H1151 0.960 . S
C1165 H1152 0.961 . S
C1165 H1153 0.959 . S
C1165 C1163 1.561 . S
C1166 C1163 1.526 . S
C1166 C1167 1.396 . S
C1166 C1171 1.390 . S
C1167 C1161 1.465 . S
C1167 C1166 1.396 . S
C1167 C1168 1.399 . S
C1168 H1154 0.929 . S
C1168 C1167 1.399 . S
C1168 C1169 1.385 . S
C1169 H1155 0.931 . S
C1169 C1168 1.385 . S
C1169 C1170 1.389 . S
C1170 C1169 1.389 . S
C1170 C1171 1.387 . S
C1171 H1156 0.930 . S
C1171 C1166 1.390 . S
C1171 C1170 1.387 . S
H1172 C1184 0.930 . S
H1173 C1186 0.930 . S
H1174 C1187 0.930 . S
H1175 C1191 0.959 . S
H1176 C1191 0.959 . S
H1177 C1191 0.961 . S
H1178 C1192 0.960 . S
H1179 C1192 0.961 . S
H1180 C1192 0.959 . S
H1181 C1195 0.929 . S
H1182 C1196 0.931 . S
H1183 C1198 0.930 . S
C1184 H1172 0.930 . S
C1184 C1185 1.399 . S
C1184 C1189 1.399 . S
C1185 C1184 1.399 . S
C1185 C1186 1.376 . S
C1186 H1173 0.930 . S
C1186 C1185 1.376 . S
C1186 C1187 1.388 . S
C1187 H1174 0.930 . S
C1187 C1186 1.388 . S
C1187 C1188 1.390 . S
C1188 C1187 1.390 . S
C1188 C1189 1.394 . S
C1188 C1194 1.465 . S
C1189 C1184 1.399 . S
C1189 C1188 1.394 . S
C1189 C1190 1.516 . S
C1190 C1189 1.516 . S
C1190 C1191 1.502 . S
C1190 C1192 1.561 . S
C1190 C1193 1.526 . S
C1191 H1175 0.959 . S
C1191 H1176 0.959 . S
C1191 H1177 0.961 . S
C1191 C1190 1.502 . S
C1192 H1178 0.960 . S
C1192 H1179 0.961 . S
C1192 H1180 0.959 . S
C1192 C1190 1.561 . S
C1193 C1190 1.526 . S
C1193 C1194 1.396 . S
C1193 C1198 1.390 . S
C1194 C1188 1.465 . S
C1194 C1193 1.396 . S
C1194 C1195 1.399 . S
C1195 H1181 0.929 . S
C1195 C1194 1.399 . S
C1195 C1196 1.385 . S
C1196 H1182 0.931 . S
C1196 C1195 1.385 . S
C1196 C1197 1.389 . S
C1197 C1196 1.389 . S
C1197 C1198 1.387 . S
C1198 H1183 0.930 . S
C1198 C1193 1.390 . S
C1198 C1197 1.387 . S
H1199 C1211 0.930 . S
H1200 C1213 0.930 . S
H1201 C1214 0.930 . S
H1202 C1218 0.959 . S
H1203 C1218 0.959 . S
H1204 C1218 0.961 . S
H1205 C1219 0.960 . S
H1206 C1219 0.961 . S
H1207 C1219 0.959 . S
H1208 C1222 0.929 . S
H1209 C1223 0.931 . S
H1210 C1225 0.930 . S
C1211 H1199 0.930 . S
C1211 C1212 1.399 . S
C1211 C1216 1.399 . S
C1212 C1211 1.399 . S
C1212 C1213 1.376 . S
C1213 H1200 0.930 . S
C1213 C1212 1.376 . S
C1213 C1214 1.388 . S
C1214 H1201 0.930 . S
C1214 C1213 1.388 . S
C1214 C1215 1.390 . S
C1215 C1214 1.390 . S
C1215 C1216 1.394 . S
C1215 C1221 1.465 . S
C1216 C1211 1.399 . S
C1216 C1215 1.394 . S
C1216 C1217 1.516 . S
C1217 C1216 1.516 . S
C1217 C1218 1.502 . S
C1217 C1219 1.561 . S
C1217 C1220 1.526 . S
C1218 H1202 0.959 . S
C1218 H1203 0.959 . S
C1218 H1204 0.961 . S
C1218 C1217 1.502 . S
C1219 H1205 0.960 . S
C1219 H1206 0.961 . S
C1219 H1207 0.959 . S
C1219 C1217 1.561 . S
C1220 C1217 1.526 . S
C1220 C1221 1.396 . S
C1220 C1225 1.390 . S
C1221 C1215 1.465 . S
C1221 C1220 1.396 . S
C1221 C1222 1.399 . S
C1222 H1208 0.929 . S
C1222 C1221 1.399 . S
C1222 C1223 1.385 . S
C1223 H1209 0.931 . S
C1223 C1222 1.385 . S
C1223 C1224 1.389 . S
C1224 C1223 1.389 . S
C1224 C1225 1.387 . S
C1225 H1210 0.930 . S
C1225 C1220 1.390 . S
C1225 C1224 1.387 . S
H1226 C1238 0.930 . S
H1227 C1240 0.930 . S
H1228 C1241 0.930 . S
H1229 C1245 0.959 . S
H1230 C1245 0.959 . S
H1231 C1245 0.961 . S
H1232 C1246 0.960 . S
H1233 C1246 0.961 . S
H1234 C1246 0.959 . S
H1235 C1249 0.929 . S
H1236 C1250 0.931 . S
H1237 C1252 0.930 . S
C1238 H1226 0.930 . S
C1238 C1239 1.399 . S
C1238 C1243 1.399 . S
C1239 C1238 1.399 . S
C1239 C1240 1.376 . S
C1240 H1227 0.930 . S
C1240 C1239 1.376 . S
C1240 C1241 1.388 . S
C1241 H1228 0.930 . S
C1241 C1240 1.388 . S
C1241 C1242 1.390 . S
C1242 C1241 1.390 . S
C1242 C1243 1.394 . S
C1242 C1248 1.465 . S
C1243 C1238 1.399 . S
C1243 C1242 1.394 . S
C1243 C1244 1.516 . S
C1244 C1243 1.516 . S
C1244 C1245 1.502 . S
C1244 C1246 1.561 . S
C1244 C1247 1.526 . S
C1245 H1229 0.959 . S
C1245 H1230 0.959 . S
C1245 H1231 0.961 . S
C1245 C1244 1.502 . S
C1246 H1232 0.960 . S
C1246 H1233 0.961 . S
C1246 H1234 0.959 . S
C1246 C1244 1.561 . S
C1247 C1244 1.526 . S
C1247 C1248 1.396 . S
C1247 C1252 1.390 . S
C1248 C1242 1.465 . S
C1248 C1247 1.396 . S
C1248 C1249 1.399 . S
C1249 H1235 0.929 . S
C1249 C1248 1.399 . S
C1249 C1250 1.385 . S
C1250 H1236 0.931 . S
C1250 C1249 1.385 . S
C1250 C1251 1.389 . S
C1251 C1250 1.389 . S
C1251 C1252 1.387 . S
C1252 H1237 0.930 . S
C1252 C1247 1.390 . S
C1252 C1251 1.387 . S
H1253 C1265 0.930 . S
H1254 C1267 0.930 . S
H1255 C1268 0.930 . S
H1256 C1272 0.959 . S
H1257 C1272 0.959 . S
H1258 C1272 0.961 . S
H1259 C1273 0.960 . S
H1260 C1273 0.961 . S
H1261 C1273 0.959 . S
H1262 C1276 0.929 . S
H1263 C1277 0.931 . S
H1264 C1279 0.930 . S
C1265 H1253 0.930 . S
C1265 C1266 1.399 . S
C1265 C1270 1.399 . S
C1266 C1265 1.399 . S
C1266 C1267 1.376 . S
C1267 H1254 0.930 . S
C1267 C1266 1.376 . S
C1267 C1268 1.388 . S
C1268 H1255 0.930 . S
C1268 C1267 1.388 . S
C1268 C1269 1.390 . S
C1269 C1268 1.390 . S
C1269 C1270 1.394 . S
C1269 C1275 1.465 . S
C1270 C1265 1.399 . S
C1270 C1269 1.394 . S
C1270 C1271 1.516 . S
C1271 C1270 1.516 . S
C1271 C1272 1.502 . S
C1271 C1273 1.561 . S
C1271 C1274 1.526 . S
C1272 H1256 0.959 . S
C1272 H1257 0.959 . S
C1272 H1258 0.961 . S
C1272 C1271 1.502 . S
C1273 H1259 0.960 . S
C1273 H1260 0.961 . S
C1273 H1261 0.959 . S
C1273 C1271 1.561 . S
C1274 C1271 1.526 . S
C1274 C1275 1.396 . S
C1274 C1279 1.390 1_655 S
C1275 C1269 1.465 . S
C1275 C1274 1.396 . S
C1275 C1276 1.399 1_655 S
C1276 H1262 0.929 . S
C1276 C1275 1.399 1_455 S
C1276 C1277 1.385 . S
C1277 H1263 0.931 . S
C1277 C1276 1.385 . S
C1277 C1278 1.389 . S
C1278 C1277 1.389 . S
C1278 C1279 1.387 . S
C1279 H1264 0.930 . S
C1279 C1274 1.390 1_455 S
C1279 C1278 1.387 . S
H1280 C1292 0.930 . S
H1281 C1294 0.930 . S
H1282 C1295 0.930 . S
H1283 C1299 0.959 . S
H1284 C1299 0.959 . S
H1285 C1299 0.961 . S
H1286 C1300 0.960 . S
H1287 C1300 0.961 . S
H1288 C1300 0.959 . S
H1289 C1303 0.929 . S
H1290 C1304 0.931 . S
H1291 C1306 0.930 . S
C1292 H1280 0.930 . S
C1292 C1293 1.399 . S
C1292 C1297 1.399 . S
C1293 C1292 1.399 . S
C1293 C1294 1.376 . S
C1294 H1281 0.930 . S
C1294 C1293 1.376 . S
C1294 C1295 1.388 . S
C1295 H1282 0.930 . S
C1295 C1294 1.388 . S
C1295 C1296 1.390 . S
C1296 C1295 1.390 . S
C1296 C1297 1.394 . S
C1296 C1302 1.465 . S
C1297 C1292 1.399 . S
C1297 C1296 1.394 . S
C1297 C1298 1.516 . S
C1298 C1297 1.516 . S
C1298 C1299 1.502 . S
C1298 C1300 1.561 . S
C1298 C1301 1.526 . S
C1299 H1283 0.959 . S
C1299 H1284 0.959 . S
C1299 H1285 0.961 . S
C1299 C1298 1.502 . S
C1300 H1286 0.960 . S
C1300 H1287 0.961 . S
C1300 H1288 0.959 . S
C1300 C1298 1.561 . S
C1301 C1298 1.526 . S
C1301 C1302 1.396 . S
C1301 C1306 1.390 . S
C1302 C1296 1.465 . S
C1302 C1301 1.396 . S
C1302 C1303 1.399 . S
C1303 H1289 0.929 . S
C1303 C1302 1.399 . S
C1303 C1304 1.385 . S
C1304 H1290 0.931 . S
C1304 C1303 1.385 . S
C1304 C1305 1.389 . S
C1305 C1304 1.389 . S
C1305 C1306 1.387 . S
C1306 H1291 0.930 . S
C1306 C1301 1.390 . S
C1306 C1305 1.387 . S
H1307 C1319 0.930 . S
H1308 C1321 0.930 . S
H1309 C1322 0.930 . S
H1310 C1326 0.959 . S
H1311 C1326 0.959 . S
H1312 C1326 0.961 . S
H1313 C1327 0.960 . S
H1314 C1327 0.961 . S
H1315 C1327 0.959 . S
H1316 C1330 0.929 . S
H1317 C1331 0.931 . S
H1318 C1333 0.930 . S
C1319 H1307 0.930 . S
C1319 C1320 1.399 . S
C1319 C1324 1.399 . S
C1320 C1319 1.399 . S
C1320 C1321 1.376 . S
C1321 H1308 0.930 . S
C1321 C1320 1.376 . S
C1321 C1322 1.388 . S
C1322 H1309 0.930 . S
C1322 C1321 1.388 . S
C1322 C1323 1.390 . S
C1323 C1322 1.390 . S
C1323 C1324 1.394 . S
C1323 C1329 1.465 . S
C1324 C1319 1.399 . S
C1324 C1323 1.394 . S
C1324 C1325 1.516 . S
C1325 C1324 1.516 . S
C1325 C1326 1.502 . S
C1325 C1327 1.561 . S
C1325 C1328 1.526 . S
C1326 H1310 0.959 . S
C1326 H1311 0.959 . S
C1326 H1312 0.961 . S
C1326 C1325 1.502 . S
C1327 H1313 0.960 . S
C1327 H1314 0.961 . S
C1327 H1315 0.959 . S
C1327 C1325 1.561 . S
C1328 C1325 1.526 . S
C1328 C1329 1.396 . S
C1328 C1333 1.390 . S
C1329 C1323 1.465 . S
C1329 C1328 1.396 . S
C1329 C1330 1.399 . S
C1330 H1316 0.929 . S
C1330 C1329 1.399 . S
C1330 C1331 1.385 . S
C1331 H1317 0.931 . S
C1331 C1330 1.385 . S
C1331 C1332 1.389 . S
C1332 C1331 1.389 . S
C1332 C1333 1.387 . S
C1333 H1318 0.930 . S
C1333 C1328 1.390 . S
C1333 C1332 1.387 . S
H1334 C1346 0.930 . S
H1335 C1348 0.930 . S
H1336 C1349 0.930 . S
H1337 C1353 0.959 . S
H1338 C1353 0.959 . S
H1339 C1353 0.961 . S
H1340 C1354 0.960 . S
H1341 C1354 0.961 . S
H1342 C1354 0.959 . S
H1343 C1357 0.929 . S
H1344 C1358 0.931 . S
H1345 C1360 0.930 . S
C1346 H1334 0.930 . S
C1346 C1347 1.399 . S
C1346 C1351 1.399 . S
C1347 C1346 1.399 . S
C1347 C1348 1.376 . S
C1348 H1335 0.930 . S
C1348 C1347 1.376 . S
C1348 C1349 1.388 . S
C1349 H1336 0.930 . S
C1349 C1348 1.388 . S
C1349 C1350 1.390 . S
C1350 C1349 1.390 . S
C1350 C1351 1.394 . S
C1350 C1356 1.465 . S
C1351 C1346 1.399 . S
C1351 C1350 1.394 . S
C1351 C1352 1.516 . S
C1352 C1351 1.516 . S
C1352 C1353 1.502 . S
C1352 C1354 1.561 . S
C1352 C1355 1.526 . S
C1353 H1337 0.959 . S
C1353 H1338 0.959 . S
C1353 H1339 0.961 . S
C1353 C1352 1.502 . S
C1354 H1340 0.960 . S
C1354 H1341 0.961 . S
C1354 H1342 0.959 . S
C1354 C1352 1.561 . S
C1355 C1352 1.526 . S
C1355 C1356 1.396 . S
C1355 C1360 1.390 . S
C1356 C1350 1.465 . S
C1356 C1355 1.396 . S
C1356 C1357 1.399 . S
C1357 H1343 0.929 . S
C1357 C1356 1.399 . S
C1357 C1358 1.385 . S
C1358 H1344 0.931 . S
C1358 C1357 1.385 . S
C1358 C1359 1.389 . S
C1359 C1358 1.389 . S
C1359 C1360 1.387 . S
C1360 H1345 0.930 . S
C1360 C1355 1.390 . S
C1360 C1359 1.387 . S
H1361 C1373 0.930 . S
H1362 C1375 0.930 . S
H1363 C1376 0.930 . S
H1364 C1380 0.959 . S
H1365 C1380 0.959 . S
H1366 C1380 0.961 . S
H1367 C1381 0.960 . S
H1368 C1381 0.961 . S
H1369 C1381 0.959 . S
H1370 C1384 0.929 1_655 S
H1371 C1385 0.931 . S
H1372 C1387 0.930 . S
C1373 H1361 0.930 . S
C1373 C1374 1.399 . S
C1373 C1378 1.399 . S
C1374 C1373 1.399 . S
C1374 C1375 1.376 . S
C1375 H1362 0.930 . S
C1375 C1374 1.376 . S
C1375 C1376 1.388 . S
C1376 H1363 0.930 . S
C1376 C1375 1.388 . S
C1376 C1377 1.390 . S
C1377 C1376 1.390 . S
C1377 C1378 1.394 . S
C1377 C1383 1.465 . S
C1378 C1373 1.399 . S
C1378 C1377 1.394 . S
C1378 C1379 1.516 . S
C1379 C1378 1.516 . S
C1379 C1380 1.502 . S
C1379 C1381 1.561 . S
C1379 C1382 1.526 . S
C1380 H1364 0.959 . S
C1380 H1365 0.959 . S
C1380 H1366 0.961 . S
C1380 C1379 1.502 . S
C1381 H1367 0.960 . S
C1381 H1368 0.961 . S
C1381 H1369 0.959 . S
C1381 C1379 1.561 . S
C1382 C1379 1.526 . S
C1382 C1383 1.396 . S
C1382 C1387 1.390 1_655 S
C1383 C1377 1.465 . S
C1383 C1382 1.396 . S
C1383 C1384 1.399 1_655 S
C1384 H1370 0.929 1_455 S
C1384 C1383 1.399 1_455 S
C1384 C1385 1.385 . S
C1385 H1371 0.931 . S
C1385 C1384 1.385 . S
C1385 C1386 1.389 . S
C1386 C1385 1.389 . S
C1386 C1387 1.387 . S
C1387 H1372 0.930 . S
C1387 C1382 1.390 1_455 S
C1387 C1386 1.387 . S
H1388 C1400 0.930 . S
H1389 C1402 0.930 . S
H1390 C1403 0.930 . S
H1391 C1407 0.959 . S
H1392 C1407 0.959 . S
H1393 C1407 0.961 . S
H1394 C1408 0.960 . S
H1395 C1408 0.961 . S
H1396 C1408 0.959 . S
H1397 C1411 0.929 . S
H1398 C1412 0.931 . S
H1399 C1414 0.930 . S
C1400 H1388 0.930 . S
C1400 C1401 1.399 . S
C1400 C1405 1.399 . S
C1401 C1400 1.399 . S
C1401 C1402 1.376 . S
C1402 H1389 0.930 . S
C1402 C1401 1.376 . S
C1402 C1403 1.388 . S
C1403 H1390 0.930 . S
C1403 C1402 1.388 . S
C1403 C1404 1.390 . S
C1404 C1403 1.390 . S
C1404 C1405 1.394 . S
C1404 C1410 1.465 . S
C1405 C1400 1.399 . S
C1405 C1404 1.394 . S
C1405 C1406 1.516 . S
C1406 C1405 1.516 . S
C1406 C1407 1.502 . S
C1406 C1408 1.561 . S
C1406 C1409 1.526 . S
C1407 H1391 0.959 . S
C1407 H1392 0.959 . S
C1407 H1393 0.961 . S
C1407 C1406 1.502 . S
C1408 H1394 0.960 . S
C1408 H1395 0.961 . S
C1408 H1396 0.959 . S
C1408 C1406 1.561 . S
C1409 C1406 1.526 . S
C1409 C1410 1.396 . S
C1409 C1414 1.390 . S
C1410 C1404 1.465 . S
C1410 C1409 1.396 . S
C1410 C1411 1.399 . S
C1411 H1397 0.929 . S
C1411 C1410 1.399 . S
C1411 C1412 1.385 . S
C1412 H1398 0.931 . S
C1412 C1411 1.385 . S
C1412 C1413 1.389 . S
C1413 C1412 1.389 . S
C1413 C1414 1.387 . S
C1414 H1399 0.930 . S
C1414 C1409 1.390 . S
C1414 C1413 1.387 . S
H1415 C1427 0.930 . S
H1416 C1429 0.930 . S
H1417 C1430 0.918 1_655 S
H1418 C1434 0.959 . S
H1419 C1434 0.959 . S
H1420 C1434 0.989 . S
H1421 C1435 0.960 . S
H1422 C1435 0.961 . S
H1423 C1435 0.959 . S
H1424 C1438 0.929 . S
H1425 C1439 0.931 . S
H1426 C1441 0.930 . S
C1427 H1415 0.930 . S
C1427 C1428 1.399 . S
C1427 C1432 1.399 1_455 S
C1428 C1427 1.399 . S
C1428 C1429 1.376 . S
C1429 H1416 0.930 . S
C1429 C1428 1.376 . S
C1429 C1430 1.417 . S
C1430 H1417 0.918 1_455 S
C1430 C1429 1.417 . S
C1430 C1431 1.375 1_455 S
C1431 C1430 1.375 1_655 S
C1431 C1432 1.394 . S
C1431 C1437 1.465 . S
C1432 C1427 1.399 1_655 S
C1432 C1431 1.394 . S
C1432 C1433 1.516 . S
C1433 C1432 1.516 . S
C1433 C1434 1.502 . S
C1433 C1435 1.561 . S
C1433 C1436 1.526 . S
C1434 H1418 0.959 . S
C1434 H1419 0.959 . S
C1434 H1420 0.989 . S
C1434 C1433 1.502 . S
C1435 H1421 0.960 . S
C1435 H1422 0.961 . S
C1435 H1423 0.959 . S
C1435 C1433 1.561 . S
C1436 C1433 1.526 . S
C1436 C1437 1.396 . S
C1436 C1441 1.390 . S
C1437 C1431 1.465 . S
C1437 C1436 1.396 . S
C1437 C1438 1.399 . S
C1438 H1424 0.929 . S
C1438 C1437 1.399 . S
C1438 C1439 1.385 . S
C1439 H1425 0.931 . S
C1439 C1438 1.385 . S
C1439 C1440 1.389 . S
C1440 C1439 1.389 . S
C1440 C1441 1.387 . S
C1441 H1426 0.930 . S
C1441 C1436 1.390 . S
C1441 C1440 1.387 . S
H1442 C1454 0.930 . S
H1443 C1456 0.930 . S
H1444 C1457 0.930 . S
H1445 C1461 0.959 . S
H1446 C1461 0.959 . S
H1447 C1461 0.961 . S
H1448 C1462 0.960 . S
H1449 C1462 0.961 . S
H1450 C1462 0.959 . S
H1451 C1465 0.929 . S
H1452 C1466 0.931 . S
H1453 C1468 0.930 . S
C1454 H1442 0.930 . S
C1454 C1455 1.399 . S
C1454 C1459 1.399 . S
C1455 C1454 1.399 . S
C1455 C1456 1.376 . S
C1456 H1443 0.930 . S
C1456 C1455 1.376 . S
C1456 C1457 1.388 . S
C1457 H1444 0.930 . S
C1457 C1456 1.388 . S
C1457 C1458 1.390 . S
C1458 C1457 1.390 . S
C1458 C1459 1.394 . S
C1458 C1464 1.465 . S
C1459 C1454 1.399 . S
C1459 C1458 1.394 . S
C1459 C1460 1.516 . S
C1460 C1459 1.516 . S
C1460 C1461 1.502 . S
C1460 C1462 1.561 . S
C1460 C1463 1.526 . S
C1461 H1445 0.959 . S
C1461 H1446 0.959 . S
C1461 H1447 0.961 . S
C1461 C1460 1.502 . S
C1462 H1448 0.960 . S
C1462 H1449 0.961 . S
C1462 H1450 0.959 . S
C1462 C1460 1.561 . S
C1463 C1460 1.526 . S
C1463 C1464 1.396 . S
C1463 C1468 1.390 . S
C1464 C1458 1.465 . S
C1464 C1463 1.396 . S
C1464 C1465 1.399 . S
C1465 H1451 0.929 . S
C1465 C1464 1.399 . S
C1465 C1466 1.385 . S
C1466 H1452 0.931 . S
C1466 C1465 1.385 . S
C1466 C1467 1.389 . S
C1467 C1466 1.389 . S
C1467 C1468 1.387 . S
C1468 H1453 0.930 . S
C1468 C1463 1.390 . S
C1468 C1467 1.387 . S
H1469 C1481 0.930 . S
H1470 C1483 0.930 . S
H1471 C1484 0.930 . S
H1472 C1488 0.959 . S
H1473 C1488 0.959 . S
H1474 C1488 0.961 . S
H1475 C1489 0.960 . S
H1476 C1489 0.961 . S
H1477 C1489 0.959 . S
H1478 C1492 0.929 . S
H1479 C1493 0.931 . S
H1480 C1495 0.930 . S
C1481 H1469 0.930 . S
C1481 C1482 1.399 . S
C1481 C1486 1.399 . S
C1482 C1481 1.399 . S
C1482 C1483 1.376 . S
C1483 H1470 0.930 . S
C1483 C1482 1.376 . S
C1483 C1484 1.388 . S
C1484 H1471 0.930 . S
C1484 C1483 1.388 . S
C1484 C1485 1.390 . S
C1485 C1484 1.390 . S
C1485 C1486 1.394 . S
C1485 C1491 1.465 . S
C1486 C1481 1.399 . S
C1486 C1485 1.394 . S
C1486 C1487 1.516 . S
C1487 C1486 1.516 . S
C1487 C1488 1.502 . S
C1487 C1489 1.561 . S
C1487 C1490 1.526 . S
C1488 H1472 0.959 . S
C1488 H1473 0.959 . S
C1488 H1474 0.961 . S
C1488 C1487 1.502 . S
C1489 H1475 0.960 . S
C1489 H1476 0.961 . S
C1489 H1477 0.959 . S
C1489 C1487 1.561 . S
C1490 C1487 1.526 . S
C1490 C1491 1.396 . S
C1490 C1495 1.390 . S
C1491 C1485 1.465 . S
C1491 C1490 1.396 . S
C1491 C1492 1.399 . S
C1492 H1478 0.929 . S
C1492 C1491 1.399 . S
C1492 C1493 1.385 . S
C1493 H1479 0.931 . S
C1493 C1492 1.385 . S
C1493 C1494 1.389 . S
C1494 C1493 1.389 . S
C1494 C1495 1.387 . S
C1495 H1480 0.930 . S
C1495 C1490 1.390 . S
C1495 C1494 1.387 . S
H1496 C1508 0.930 . S
H1497 C1510 0.930 . S
H1498 C1511 0.930 . S
H1499 C1515 0.959 . S
H1500 C1515 0.959 . S
H1501 C1515 0.961 . S
H1502 C1516 0.960 . S
H1503 C1516 0.961 . S
H1504 C1516 0.959 . S
H1505 C1519 0.929 . S
H1506 C1520 0.931 . S
H1507 C1522 0.930 . S
C1508 H1496 0.930 . S
C1508 C1509 1.399 . S
C1508 C1513 1.399 . S
C1509 C1508 1.399 . S
C1509 C1510 1.376 . S
C1510 H1497 0.930 . S
C1510 C1509 1.376 . S
C1510 C1511 1.388 . S
C1511 H1498 0.930 . S
C1511 C1510 1.388 . S
C1511 C1512 1.390 . S
C1512 C1511 1.390 . S
C1512 C1513 1.394 . S
C1512 C1518 1.465 . S
C1513 C1508 1.399 . S
C1513 C1512 1.394 . S
C1513 C1514 1.516 . S
C1514 C1513 1.516 . S
C1514 C1515 1.502 . S
C1514 C1516 1.561 . S
C1514 C1517 1.526 . S
C1515 H1499 0.959 . S
C1515 H1500 0.959 . S
C1515 H1501 0.961 . S
C1515 C1514 1.502 . S
C1516 H1502 0.960 . S
C1516 H1503 0.961 . S
C1516 H1504 0.959 . S
C1516 C1514 1.561 . S
C1517 C1514 1.526 . S
C1517 C1518 1.396 . S
C1517 C1522 1.390 . S
C1518 C1512 1.465 . S
C1518 C1517 1.396 . S
C1518 C1519 1.399 . S
C1519 H1505 0.929 . S
C1519 C1518 1.399 . S
C1519 C1520 1.385 . S
C1520 H1506 0.931 . S
C1520 C1519 1.385 . S
C1520 C1521 1.389 . S
C1521 C1520 1.389 . S
C1521 C1522 1.387 . S
C1522 H1507 0.930 . S
C1522 C1517 1.390 . S
C1522 C1521 1.387 . S
H1523 C1535 0.930 . S
H1524 C1537 0.930 . S
H1525 C1538 0.930 . S
H1526 C1542 0.959 . S
H1527 C1542 0.959 . S
H1528 C1542 0.961 . S
H1529 C1543 0.960 . S
H1530 C1543 0.961 . S
H1531 C1543 0.959 . S
H1532 C1546 0.929 . S
H1533 C1547 0.931 . S
H1534 C1549 0.930 . S
C1535 H1523 0.930 . S
C1535 C1536 1.399 . S
C1535 C1540 1.399 . S
C1536 C1535 1.399 . S
C1536 C1537 1.376 . S
C1537 H1524 0.930 . S
C1537 C1536 1.376 . S
C1537 C1538 1.388 . S
C1538 H1525 0.930 . S
C1538 C1537 1.388 . S
C1538 C1539 1.390 . S
C1539 C1538 1.390 . S
C1539 C1540 1.394 . S
C1539 C1545 1.465 . S
C1540 C1535 1.399 . S
C1540 C1539 1.394 . S
C1540 C1541 1.516 . S
C1541 C1540 1.516 . S
C1541 C1542 1.502 . S
C1541 C1543 1.561 . S
C1541 C1544 1.526 . S
C1542 H1526 0.959 . S
C1542 H1527 0.959 . S
C1542 H1528 0.961 . S
C1542 C1541 1.502 . S
C1543 H1529 0.960 . S
C1543 H1530 0.961 . S
C1543 H1531 0.959 . S
C1543 C1541 1.561 . S
C1544 C1541 1.526 . S
C1544 C1545 1.396 . S
C1544 C1549 1.390 . S
C1545 C1539 1.465 . S
C1545 C1544 1.396 . S
C1545 C1546 1.399 . S
C1546 H1532 0.929 . S
C1546 C1545 1.399 . S
C1546 C1547 1.385 . S
C1547 H1533 0.931 . S
C1547 C1546 1.385 . S
C1547 C1548 1.389 . S
C1548 C1547 1.389 . S
C1548 C1549 1.387 . S
C1549 H1534 0.930 . S
C1549 C1544 1.390 . S
C1549 C1548 1.387 . S
H1550 C1562 0.930 . S
H1551 C1564 0.930 . S
H1552 C1565 0.930 . S
H1553 C1569 0.959 . S
H1554 C1569 0.959 . S
H1555 C1569 0.961 . S
H1556 C1570 0.960 . S
H1557 C1570 0.961 . S
H1558 C1570 0.959 . S
H1559 C1573 0.929 . S
H1560 C1574 0.931 . S
H1561 C1576 0.930 . S
C1562 H1550 0.930 . S
C1562 C1563 1.399 . S
C1562 C1567 1.399 . S
C1563 C1562 1.399 . S
C1563 C1564 1.376 . S
C1564 H1551 0.930 . S
C1564 C1563 1.376 . S
C1564 C1565 1.388 . S
C1565 H1552 0.930 . S
C1565 C1564 1.388 . S
C1565 C1566 1.390 . S
C1566 C1565 1.390 . S
C1566 C1567 1.394 . S
C1566 C1572 1.465 . S
C1567 C1562 1.399 . S
C1567 C1566 1.394 . S
C1567 C1568 1.516 . S
C1568 C1567 1.516 . S
C1568 C1569 1.502 . S
C1568 C1570 1.561 . S
C1568 C1571 1.526 . S
C1569 H1553 0.959 . S
C1569 H1554 0.959 . S
C1569 H1555 0.961 . S
C1569 C1568 1.502 . S
C1570 H1556 0.960 . S
C1570 H1557 0.961 . S
C1570 H1558 0.959 . S
C1570 C1568 1.561 . S
C1571 C1568 1.526 . S
C1571 C1572 1.396 . S
C1571 C1576 1.390 . S
C1572 C1566 1.465 . S
C1572 C1571 1.396 . S
C1572 C1573 1.399 . S
C1573 H1559 0.929 . S
C1573 C1572 1.399 . S
C1573 C1574 1.385 . S
C1574 H1560 0.931 . S
C1574 C1573 1.385 . S
C1574 C1575 1.389 . S
C1575 C1574 1.389 . S
C1575 C1576 1.387 . S
C1576 H1561 0.930 . S
C1576 C1571 1.390 . S
C1576 C1575 1.387 . S
H1577 C1589 0.930 . S
H1578 C1591 0.930 . S
H1579 C1592 0.930 . S
H1580 C1596 0.959 . S
H1581 C1596 0.959 . S
H1582 C1596 0.961 . S
H1583 C1597 0.960 . S
H1584 C1597 0.961 . S
H1585 C1597 0.959 . S
H1586 C1600 0.929 1_455 S
H1587 C1601 0.931 . S
H1588 C1603 0.930 . S
C1589 H1577 0.930 . S
C1589 C1590 1.399 . S
C1589 C1594 1.399 . S
C1590 C1589 1.399 . S
C1590 C1591 1.376 . S
C1591 H1578 0.930 . S
C1591 C1590 1.376 . S
C1591 C1592 1.388 . S
C1592 H1579 0.930 . S
C1592 C1591 1.388 . S
C1592 C1593 1.390 . S
C1593 C1592 1.390 . S
C1593 C1594 1.394 . S
C1593 C1599 1.465 . S
C1594 C1589 1.399 . S
C1594 C1593 1.394 . S
C1594 C1595 1.516 . S
C1595 C1594 1.516 . S
C1595 C1596 1.502 . S
C1595 C1597 1.561 . S
C1595 C1598 1.526 . S
C1596 H1580 0.959 . S
C1596 H1581 0.959 . S
C1596 H1582 0.961 . S
C1596 C1595 1.502 . S
C1597 H1583 0.960 . S
C1597 H1584 0.961 . S
C1597 H1585 0.959 . S
C1597 C1595 1.561 . S
C1598 C1595 1.526 . S
C1598 C1599 1.396 . S
C1598 C1603 1.390 1_455 S
C1599 C1593 1.465 . S
C1599 C1598 1.396 . S
C1599 C1600 1.399 1_455 S
C1600 H1586 0.929 1_655 S
C1600 C1599 1.399 1_655 S
C1600 C1601 1.385 . S
C1601 H1587 0.931 . S
C1601 C1600 1.385 . S
C1601 C1602 1.389 . S
C1602 C1601 1.389 . S
C1602 C1603 1.387 . S
C1603 H1588 0.930 . S
C1603 C1598 1.390 1_655 S
C1603 C1602 1.387 . S
H1604 C1616 0.930 . S
H1605 C1618 0.930 . S
H1606 C1619 0.930 . S
H1607 C1623 0.959 . S
H1608 C1623 0.959 . S
H1609 C1623 0.961 . S
H1610 C1624 0.960 . S
H1611 C1624 0.961 . S
H1612 C1624 0.959 . S
H1613 C1627 0.929 . S
H1614 C1628 0.931 . S
H1615 C1630 0.930 . S
C1616 H1604 0.930 . S
C1616 C1617 1.399 . S
C1616 C1621 1.399 . S
C1617 C1616 1.399 . S
C1617 C1618 1.376 . S
C1618 H1605 0.930 . S
C1618 C1617 1.376 . S
C1618 C1619 1.388 . S
C1619 H1606 0.930 . S
C1619 C1618 1.388 . S
C1619 C1620 1.390 . S
C1620 C1619 1.390 . S
C1620 C1621 1.394 . S
C1620 C1626 1.465 . S
C1621 C1616 1.399 . S
C1621 C1620 1.394 . S
C1621 C1622 1.516 . S
C1622 C1621 1.516 . S
C1622 C1623 1.502 . S
C1622 C1624 1.561 . S
C1622 C1625 1.526 . S
C1623 H1607 0.959 . S
C1623 H1608 0.959 . S
C1623 H1609 0.961 . S
C1623 C1622 1.502 . S
C1624 H1610 0.960 . S
C1624 H1611 0.961 . S
C1624 H1612 0.959 . S
C1624 C1622 1.561 . S
C1625 C1622 1.526 . S
C1625 C1626 1.396 . S
C1625 C1630 1.390 . S
C1626 C1620 1.465 . S
C1626 C1625 1.396 . S
C1626 C1627 1.399 . S
C1627 H1613 0.929 . S
C1627 C1626 1.399 . S
C1627 C1628 1.385 . S
C1628 H1614 0.931 . S
C1628 C1627 1.385 . S
C1628 C1629 1.389 . S
C1629 C1628 1.389 . S
C1629 C1630 1.387 . S
C1630 H1615 0.930 . S
C1630 C1625 1.390 . S
C1630 C1629 1.387 . S
H1631 C1643 0.930 . S
H1632 C1645 0.930 . S
H1633 C1646 0.930 1_455 S
H1634 C1650 0.959 . S
H1635 C1650 0.959 . S
H1636 C1650 0.961 . S
H1637 C1651 0.960 . S
H1638 C1651 0.961 . S
H1639 C1651 0.959 . S
H1640 C1654 0.929 . S
H1641 C1655 0.931 . S
H1642 C1657 0.930 . S
C1643 H1631 0.930 . S
C1643 C1644 1.399 . S
C1643 C1648 1.399 1_655 S
C1644 C1643 1.399 . S
C1644 C1645 1.376 . S
C1645 H1632 0.930 . S
C1645 C1644 1.376 . S
C1645 C1646 1.388 . S
C1646 H1633 0.930 1_655 S
C1646 C1645 1.388 . S
C1646 C1647 1.390 1_655 S
C1647 C1646 1.390 1_455 S
C1647 C1648 1.394 . S
C1647 C1653 1.465 . S
C1648 C1643 1.399 1_455 S
C1648 C1647 1.394 . S
C1648 C1649 1.516 . S
C1649 C1648 1.516 . S
C1649 C1650 1.502 . S
C1649 C1651 1.561 . S
C1649 C1652 1.526 . S
C1650 H1634 0.959 . S
C1650 H1635 0.959 . S
C1650 H1636 0.961 . S
C1650 C1649 1.502 . S
C1651 H1637 0.960 . S
C1651 H1638 0.961 . S
C1651 H1639 0.959 . S
C1651 C1649 1.561 . S
C1652 C1649 1.526 . S
C1652 C1653 1.396 . S
C1652 C1657 1.390 . S
C1653 C1647 1.465 . S
C1653 C1652 1.396 . S
C1653 C1654 1.399 . S
C1654 H1640 0.929 . S
C1654 C1653 1.399 . S
C1654 C1655 1.385 . S
C1655 H1641 0.931 . S
C1655 C1654 1.385 . S
C1655 C1656 1.389 . S
C1656 C1655 1.389 . S
C1656 C1657 1.387 . S
C1657 H1642 0.930 . S
C1657 C1652 1.390 . S
C1657 C1656 1.387 . S
H1658 C1670 0.930 . S
H1659 C1672 0.930 . S
H1660 C1673 0.930 . S
H1661 C1677 0.959 . S
H1662 C1677 0.959 . S
H1663 C1677 0.961 . S
H1664 C1678 0.960 . S
H1665 C1678 0.961 . S
H1666 C1678 0.959 . S
H1667 C1681 0.929 . S
H1668 C1682 0.931 . S
H1669 C1684 0.930 . S
C1670 H1658 0.930 . S
C1670 C1671 1.399 . S
C1670 C1675 1.399 . S
C1671 C1670 1.399 . S
C1671 C1672 1.376 . S
C1672 H1659 0.930 . S
C1672 C1671 1.376 . S
C1672 C1673 1.388 . S
C1673 H1660 0.930 . S
C1673 C1672 1.388 . S
C1673 C1674 1.390 . S
C1674 C1673 1.390 . S
C1674 C1675 1.394 . S
C1674 C1680 1.465 . S
C1675 C1670 1.399 . S
C1675 C1674 1.394 . S
C1675 C1676 1.516 . S
C1676 C1675 1.516 . S
C1676 C1677 1.502 . S
C1676 C1678 1.561 . S
C1676 C1679 1.526 . S
C1677 H1661 0.959 . S
C1677 H1662 0.959 . S
C1677 H1663 0.961 . S
C1677 C1676 1.502 . S
C1678 H1664 0.960 . S
C1678 H1665 0.961 . S
C1678 H1666 0.959 . S
C1678 C1676 1.561 . S
C1679 C1676 1.526 . S
C1679 C1680 1.396 . S
C1679 C1684 1.390 . S
C1680 C1674 1.465 . S
C1680 C1679 1.396 . S
C1680 C1681 1.399 . S
C1681 H1667 0.929 . S
C1681 C1680 1.399 . S
C1681 C1682 1.385 . S
C1682 H1668 0.931 . S
C1682 C1681 1.385 . S
C1682 C1683 1.389 . S
C1683 C1682 1.389 . S
C1683 C1684 1.387 . S
C1684 H1669 0.930 . S
C1684 C1679 1.390 . S
C1684 C1683 1.387 . S
H1685 C1697 0.930 . S
H1686 C1699 0.930 . S
H1687 C1700 0.930 . S
H1688 C1704 0.959 . S
H1689 C1704 0.959 . S
H1690 C1704 0.961 . S
H1691 C1705 0.960 . S
H1692 C1705 0.961 . S
H1693 C1705 0.959 . S
H1694 C1708 0.929 . S
H1695 C1709 0.931 . S
H1696 C1711 0.930 . S
C1697 H1685 0.930 . S
C1697 C1698 1.399 . S
C1697 C1702 1.399 . S
C1698 C1697 1.399 . S
C1698 C1699 1.376 . S
C1699 H1686 0.930 . S
C1699 C1698 1.376 . S
C1699 C1700 1.388 . S
C1700 H1687 0.930 . S
C1700 C1699 1.388 . S
C1700 C1701 1.390 . S
C1701 C1700 1.390 . S
C1701 C1702 1.394 . S
C1701 C1707 1.465 . S
C1702 C1697 1.399 . S
C1702 C1701 1.394 . S
C1702 C1703 1.516 . S
C1703 C1702 1.516 . S
C1703 C1704 1.502 . S
C1703 C1705 1.561 . S
C1703 C1706 1.526 . S
C1704 H1688 0.959 . S
C1704 H1689 0.959 . S
C1704 H1690 0.961 . S
C1704 C1703 1.502 . S
C1705 H1691 0.960 . S
C1705 H1692 0.961 . S
C1705 H1693 0.959 . S
C1705 C1703 1.561 . S
C1706 C1703 1.526 . S
C1706 C1707 1.396 . S
C1706 C1711 1.390 . S
C1707 C1701 1.465 . S
C1707 C1706 1.396 . S
C1707 C1708 1.399 . S
C1708 H1694 0.929 . S
C1708 C1707 1.399 . S
C1708 C1709 1.385 . S
C1709 H1695 0.931 . S
C1709 C1708 1.385 . S
C1709 C1710 1.389 . S
C1710 C1709 1.389 . S
C1710 C1711 1.387 . S
C1711 H1696 0.930 . S
C1711 C1706 1.390 . S
C1711 C1710 1.387 . S
H1712 C1724 0.930 . S
H1713 C1726 0.930 . S
H1714 C1727 0.930 . S
H1715 C1731 0.959 . S
H1716 C1731 0.959 . S
H1717 C1731 0.961 . S
H1718 C1732 0.960 . S
H1719 C1732 0.961 . S
H1720 C1732 0.959 . S
H1721 C1735 0.929 . S
H1722 C1736 0.931 . S
H1723 C1738 0.930 . S
C1724 H1712 0.930 . S
C1724 C1725 1.399 . S
C1724 C1729 1.399 . S
C1725 C1724 1.399 . S
C1725 C1726 1.376 . S
C1726 H1713 0.930 . S
C1726 C1725 1.376 . S
C1726 C1727 1.388 . S
C1727 H1714 0.930 . S
C1727 C1726 1.388 . S
C1727 C1728 1.390 . S
C1728 C1727 1.390 . S
C1728 C1729 1.394 . S
C1728 C1734 1.465 . S
C1729 C1724 1.399 . S
C1729 C1728 1.394 . S
C1729 C1730 1.516 . S
C1730 C1729 1.516 . S
C1730 C1731 1.502 . S
C1730 C1732 1.561 . S
C1730 C1733 1.526 . S
C1731 H1715 0.959 . S
C1731 H1716 0.959 . S
C1731 H1717 0.961 . S
C1731 C1730 1.502 . S
C1732 H1718 0.960 . S
C1732 H1719 0.961 . S
C1732 H1720 0.959 . S
C1732 C1730 1.561 . S
C1733 C1730 1.526 . S
C1733 C1734 1.396 . S
C1733 C1738 1.390 . S
C1734 C1728 1.465 . S
C1734 C1733 1.396 . S
C1734 C1735 1.399 . S
C1735 H1721 0.929 . S
C1735 C1734 1.399 . S
C1735 C1736 1.385 . S
C1736 H1722 0.931 . S
C1736 C1735 1.385 . S
C1736 C1737 1.389 . S
C1737 C1736 1.389 . S
C1737 C1738 1.387 . S
C1738 H1723 0.930 . S
C1738 C1733 1.390 . S
C1738 C1737 1.387 . S
H1739 C1751 0.930 . S
H1740 C1753 0.930 . S
H1741 C1754 0.930 . S
H1742 C1758 0.959 . S
H1743 C1758 0.959 . S
H1744 C1758 0.961 . S
H1745 C1759 0.960 . S
H1746 C1759 0.961 . S
H1747 C1759 0.959 . S
H1748 C1762 0.929 . S
H1749 C1763 0.931 . S
H1750 C1765 0.930 . S
C1751 H1739 0.930 . S
C1751 C1752 1.399 . S
C1751 C1756 1.399 . S
C1752 C1751 1.399 . S
C1752 C1753 1.376 . S
C1753 H1740 0.930 . S
C1753 C1752 1.376 . S
C1753 C1754 1.388 . S
C1754 H1741 0.930 . S
C1754 C1753 1.388 . S
C1754 C1755 1.390 . S
C1755 C1754 1.390 . S
C1755 C1756 1.394 . S
C1755 C1761 1.465 . S
C1756 C1751 1.399 . S
C1756 C1755 1.394 . S
C1756 C1757 1.516 . S
C1757 C1756 1.516 . S
C1757 C1758 1.502 . S
C1757 C1759 1.561 . S
C1757 C1760 1.526 . S
C1758 H1742 0.959 . S
C1758 H1743 0.959 . S
C1758 H1744 0.961 . S
C1758 C1757 1.502 . S
C1759 H1745 0.960 . S
C1759 H1746 0.961 . S
C1759 H1747 0.959 . S
C1759 C1757 1.561 . S
C1760 C1757 1.526 . S
C1760 C1761 1.396 . S
C1760 C1765 1.390 . S
C1761 C1755 1.465 . S
C1761 C1760 1.396 . S
C1761 C1762 1.399 . S
C1762 H1748 0.929 . S
C1762 C1761 1.399 . S
C1762 C1763 1.385 . S
C1763 H1749 0.931 . S
C1763 C1762 1.385 . S
C1763 C1764 1.389 . S
C1764 C1763 1.389 . S
C1764 C1765 1.387 . S
C1765 H1750 0.930 . S
C1765 C1760 1.390 . S
C1765 C1764 1.387 . S
H1766 C1778 0.930 . S
H1767 C1780 0.930 . S
H1768 C1781 0.930 . S
H1769 C1785 0.959 . S
H1770 C1785 0.959 . S
H1771 C1785 0.961 . S
H1772 C1786 0.960 . S
H1773 C1786 0.961 . S
H1774 C1786 0.959 . S
H1775 C1789 0.929 . S
H1776 C1790 0.931 . S
H1777 C1792 0.930 . S
C1778 H1766 0.930 . S
C1778 C1779 1.399 . S
C1778 C1783 1.399 . S
C1779 C1778 1.399 . S
C1779 C1780 1.376 . S
C1780 H1767 0.930 . S
C1780 C1779 1.376 . S
C1780 C1781 1.388 . S
C1781 H1768 0.930 . S
C1781 C1780 1.388 . S
C1781 C1782 1.390 . S
C1782 C1781 1.390 . S
C1782 C1783 1.394 . S
C1782 C1788 1.465 . S
C1783 C1778 1.399 . S
C1783 C1782 1.394 . S
C1783 C1784 1.516 . S
C1784 C1783 1.516 . S
C1784 C1785 1.502 . S
C1784 C1786 1.561 . S
C1784 C1787 1.526 . S
C1785 H1769 0.959 . S
C1785 H1770 0.959 . S
C1785 H1771 0.961 . S
C1785 C1784 1.502 . S
C1786 H1772 0.960 . S
C1786 H1773 0.961 . S
C1786 H1774 0.959 . S
C1786 C1784 1.561 . S
C1787 C1784 1.526 . S
C1787 C1788 1.396 . S
C1787 C1792 1.390 . S
C1788 C1782 1.465 . S
C1788 C1787 1.396 . S
C1788 C1789 1.399 . S
C1789 H1775 0.929 . S
C1789 C1788 1.399 . S
C1789 C1790 1.385 . S
C1790 H1776 0.931 . S
C1790 C1789 1.385 . S
C1790 C1791 1.389 . S
C1791 C1790 1.389 . S
C1791 C1792 1.387 . S
C1792 H1777 0.930 . S
C1792 C1787 1.390 . S
C1792 C1791 1.387 . S
H1793 C1805 0.930 . S
H1794 C1807 0.930 . S
H1795 C1808 0.930 . S
H1796 C1812 0.959 . S
H1797 C1812 0.959 . S
H1798 C1812 0.961 . S
H1799 C1813 0.960 . S
H1800 C1813 0.961 . S
H1801 C1813 0.959 . S
H1802 C1816 0.929 . S
H1803 C1817 0.931 . S
H1804 C1819 0.930 . S
C1805 H1793 0.930 . S
C1805 C1806 1.399 . S
C1805 C1810 1.399 . S
C1806 C1805 1.399 . S
C1806 C1807 1.376 . S
C1807 H1794 0.930 . S
C1807 C1806 1.376 . S
C1807 C1808 1.388 . S
C1808 H1795 0.930 . S
C1808 C1807 1.388 . S
C1808 C1809 1.390 . S
C1809 C1808 1.390 . S
C1809 C1810 1.394 . S
C1809 C1815 1.465 . S
C1810 C1805 1.399 . S
C1810 C1809 1.394 . S
C1810 C1811 1.516 . S
C1811 C1810 1.516 . S
C1811 C1812 1.502 . S
C1811 C1813 1.561 . S
C1811 C1814 1.526 . S
C1812 H1796 0.959 . S
C1812 H1797 0.959 . S
C1812 H1798 0.961 . S
C1812 C1811 1.502 . S
C1813 H1799 0.960 . S
C1813 H1800 0.961 . S
C1813 H1801 0.959 . S
C1813 C1811 1.561 . S
C1814 C1811 1.526 . S
C1814 C1815 1.396 . S
C1814 C1819 1.390 . S
C1815 C1809 1.465 . S
C1815 C1814 1.396 . S
C1815 C1816 1.399 . S
C1816 H1802 0.929 . S
C1816 C1815 1.399 . S
C1816 C1817 1.385 . S
C1817 H1803 0.931 . S
C1817 C1816 1.385 . S
C1817 C1818 1.389 . S
C1818 C1817 1.389 . S
C1818 C1819 1.387 . S
C1819 H1804 0.930 . S
C1819 C1814 1.390 . S
C1819 C1818 1.387 . S
H1820 C1832 0.930 . S
H1821 C1834 0.930 . S
H1822 C1835 0.930 . S
H1823 C1839 0.959 . S
H1824 C1839 0.959 . S
H1825 C1839 0.961 . S
H1826 C1840 0.960 . S
H1827 C1840 0.961 . S
H1828 C1840 0.959 . S
H1829 C1843 0.929 . S
H1830 C1844 0.931 . S
H1831 C1846 0.930 . S
C1832 H1820 0.930 . S
C1832 C1833 1.399 . S
C1832 C1837 1.399 . S
C1833 C1832 1.399 . S
C1833 C1834 1.376 . S
C1834 H1821 0.930 . S
C1834 C1833 1.376 . S
C1834 C1835 1.388 . S
C1835 H1822 0.930 . S
C1835 C1834 1.388 . S
C1835 C1836 1.390 . S
C1836 C1835 1.390 . S
C1836 C1837 1.394 . S
C1836 C1842 1.465 . S
C1837 C1832 1.399 . S
C1837 C1836 1.394 . S
C1837 C1838 1.516 . S
C1838 C1837 1.516 . S
C1838 C1839 1.502 . S
C1838 C1840 1.561 . S
C1838 C1841 1.526 . S
C1839 H1823 0.959 . S
C1839 H1824 0.959 . S
C1839 H1825 0.961 . S
C1839 C1838 1.502 . S
C1840 H1826 0.960 . S
C1840 H1827 0.961 . S
C1840 H1828 0.959 . S
C1840 C1838 1.561 . S
C1841 C1838 1.526 . S
C1841 C1842 1.396 . S
C1841 C1846 1.390 . S
C1842 C1836 1.465 . S
C1842 C1841 1.396 . S
C1842 C1843 1.399 . S
C1843 H1829 0.929 . S
C1843 C1842 1.399 . S
C1843 C1844 1.385 . S
C1844 H1830 0.931 . S
C1844 C1843 1.385 . S
C1844 C1845 1.389 . S
C1845 C1844 1.389 . S
C1845 C1846 1.387 . S
C1846 H1831 0.930 . S
C1846 C1841 1.390 . S
C1846 C1845 1.387 . S
H1847 C1859 0.930 . S
H1848 C1861 0.930 . S
H1849 C1862 0.930 . S
H1850 C1866 0.959 . S
H1851 C1866 0.959 . S
H1852 C1866 0.961 . S
H1853 C1867 0.960 . S
H1854 C1867 0.961 . S
H1855 C1867 0.959 . S
H1856 C1870 0.929 . S
H1857 C1871 0.931 . S
H1858 C1873 0.930 . S
C1859 H1847 0.930 . S
C1859 C1860 1.399 . S
C1859 C1864 1.399 . S
C1860 C1859 1.399 . S
C1860 C1861 1.376 . S
C1861 H1848 0.930 . S
C1861 C1860 1.376 . S
C1861 C1862 1.388 . S
C1862 H1849 0.930 . S
C1862 C1861 1.388 . S
C1862 C1863 1.390 . S
C1863 C1862 1.390 . S
C1863 C1864 1.394 . S
C1863 C1869 1.465 . S
C1864 C1859 1.399 . S
C1864 C1863 1.394 . S
C1864 C1865 1.516 . S
C1865 C1864 1.516 . S
C1865 C1866 1.502 . S
C1865 C1867 1.561 . S
C1865 C1868 1.526 . S
C1866 H1850 0.959 . S
C1866 H1851 0.959 . S
C1866 H1852 0.961 . S
C1866 C1865 1.502 . S
C1867 H1853 0.960 . S
C1867 H1854 0.961 . S
C1867 H1855 0.959 . S
C1867 C1865 1.561 . S
C1868 C1865 1.526 . S
C1868 C1869 1.396 . S
C1868 C1873 1.390 . S
C1869 C1863 1.465 . S
C1869 C1868 1.396 . S
C1869 C1870 1.399 . S
C1870 H1856 0.929 . S
C1870 C1869 1.399 . S
C1870 C1871 1.385 . S
C1871 H1857 0.931 . S
C1871 C1870 1.385 . S
C1871 C1872 1.389 . S
C1872 C1871 1.389 . S
C1872 C1873 1.387 . S
C1873 H1858 0.930 . S
C1873 C1868 1.390 . S
C1873 C1872 1.387 . S
H1874 C1886 0.930 . S
H1875 C1888 0.930 . S
H1876 C1889 0.930 . S
H1877 C1893 0.959 . S
H1878 C1893 0.959 . S
H1879 C1893 0.961 . S
H1880 C1894 0.960 . S
H1881 C1894 0.961 . S
H1882 C1894 0.959 . S
H1883 C1897 0.929 . S
H1884 C1898 0.931 . S
H1885 C1900 0.930 . S
C1886 H1874 0.930 . S
C1886 C1887 1.399 . S
C1886 C1891 1.399 . S
C1887 C1886 1.399 . S
C1887 C1888 1.376 . S
C1888 H1875 0.930 . S
C1888 C1887 1.376 . S
C1888 C1889 1.388 . S
C1889 H1876 0.930 . S
C1889 C1888 1.388 . S
C1889 C1890 1.390 . S
C1890 C1889 1.390 . S
C1890 C1891 1.394 . S
C1890 C1896 1.465 . S
C1891 C1886 1.399 . S
C1891 C1890 1.394 . S
C1891 C1892 1.516 . S
C1892 C1891 1.516 . S
C1892 C1893 1.502 . S
C1892 C1894 1.561 . S
C1892 C1895 1.526 . S
C1893 H1877 0.959 . S
C1893 H1878 0.959 . S
C1893 H1879 0.961 . S
C1893 C1892 1.502 . S
C1894 H1880 0.960 . S
C1894 H1881 0.961 . S
C1894 H1882 0.959 . S
C1894 C1892 1.561 . S
C1895 C1892 1.526 . S
C1895 C1896 1.396 . S
C1895 C1900 1.390 . S
C1896 C1890 1.465 . S
C1896 C1895 1.396 . S
C1896 C1897 1.399 . S
C1897 H1883 0.929 . S
C1897 C1896 1.399 . S
C1897 C1898 1.385 . S
C1898 H1884 0.931 . S
C1898 C1897 1.385 . S
C1898 C1899 1.389 . S
C1899 C1898 1.389 . S
C1899 C1900 1.387 . S
C1900 H1885 0.930 . S
C1900 C1895 1.390 . S
C1900 C1899 1.387 . S
H1901 C1913 0.930 . S
H1902 C1915 0.930 . S
H1903 C1916 0.930 . S
H1904 C1920 0.959 . S
H1905 C1920 0.959 . S
H1906 C1920 0.961 . S
H1907 C1921 0.960 . S
H1908 C1921 0.961 . S
H1909 C1921 0.959 . S
H1910 C1924 0.929 . S
H1911 C1925 0.931 . S
H1912 C1927 0.930 . S
C1913 H1901 0.930 . S
C1913 C1914 1.399 . S
C1913 C1918 1.399 . S
C1914 C1913 1.399 . S
C1914 C1915 1.376 . S
C1915 H1902 0.930 . S
C1915 C1914 1.376 . S
C1915 C1916 1.388 . S
C1916 H1903 0.930 . S
C1916 C1915 1.388 . S
C1916 C1917 1.390 . S
C1917 C1916 1.390 . S
C1917 C1918 1.394 . S
C1917 C1923 1.465 . S
C1918 C1913 1.399 . S
C1918 C1917 1.394 . S
C1918 C1919 1.516 . S
C1919 C1918 1.516 . S
C1919 C1920 1.502 . S
C1919 C1921 1.561 . S
C1919 C1922 1.526 . S
C1920 H1904 0.959 . S
C1920 H1905 0.959 . S
C1920 H1906 0.961 . S
C1920 C1919 1.502 . S
C1921 H1907 0.960 . S
C1921 H1908 0.961 . S
C1921 H1909 0.959 . S
C1921 C1919 1.561 . S
C1922 C1919 1.526 . S
C1922 C1923 1.396 . S
C1922 C1927 1.390 . S
C1923 C1917 1.465 . S
C1923 C1922 1.396 . S
C1923 C1924 1.399 . S
C1924 H1910 0.929 . S
C1924 C1923 1.399 . S
C1924 C1925 1.385 . S
C1925 H1911 0.931 . S
C1925 C1924 1.385 . S
C1925 C1926 1.389 . S
C1926 C1925 1.389 . S
C1926 C1927 1.387 . S
C1927 H1912 0.930 . S
C1927 C1922 1.390 . S
C1927 C1926 1.387 . S
H1928 C1940 0.930 . S
H1929 C1942 0.930 . S
H1930 C1943 0.930 . S
H1931 C1947 0.959 . S
H1932 C1947 0.959 . S
H1933 C1947 0.961 . S
H1934 C1948 0.960 . S
H1935 C1948 0.961 . S
H1936 C1948 0.959 . S
H1937 C1951 0.929 . S
H1938 C1952 0.931 . S
H1939 C1954 0.930 . S
C1940 H1928 0.930 . S
C1940 C1941 1.399 . S
C1940 C1945 1.399 . S
C1941 C1940 1.399 . S
C1941 C1942 1.376 . S
C1942 H1929 0.930 . S
C1942 C1941 1.376 . S
C1942 C1943 1.388 . S
C1943 H1930 0.930 . S
C1943 C1942 1.388 . S
C1943 C1944 1.390 . S
C1944 C1943 1.390 . S
C1944 C1945 1.394 . S
C1944 C1950 1.465 . S
C1945 C1940 1.399 . S
C1945 C1944 1.394 . S
C1945 C1946 1.516 . S
C1946 C1945 1.516 . S
C1946 C1947 1.502 . S
C1946 C1948 1.561 . S
C1946 C1949 1.526 . S
C1947 H1931 0.959 . S
C1947 H1932 0.959 . S
C1947 H1933 0.961 . S
C1947 C1946 1.502 . S
C1948 H1934 0.960 . S
C1948 H1935 0.961 . S
C1948 H1936 0.959 . S
C1948 C1946 1.561 . S
C1949 C1946 1.526 . S
C1949 C1950 1.396 . S
C1949 C1954 1.390 . S
C1950 C1944 1.465 . S
C1950 C1949 1.396 . S
C1950 C1951 1.399 . S
C1951 H1937 0.929 . S
C1951 C1950 1.399 . S
C1951 C1952 1.385 . S
C1952 H1938 0.931 . S
C1952 C1951 1.385 . S
C1952 C1953 1.389 . S
C1953 C1952 1.389 . S
C1953 C1954 1.387 . S
C1954 H1939 0.930 . S
C1954 C1949 1.390 . S
C1954 C1953 1.387 . S
H1955 C1967 0.930 . S
H1956 C1969 0.930 . S
H1957 C1970 0.930 . S
H1958 C1974 0.959 . S
H1959 C1974 0.959 . S
H1960 C1974 0.961 . S
H1961 C1975 0.960 . S
H1962 C1975 0.961 . S
H1963 C1975 0.959 . S
H1964 C1978 0.929 . S
H1965 C1979 0.931 . S
H1966 C1981 0.930 . S
C1967 H1955 0.930 . S
C1967 C1968 1.399 . S
C1967 C1972 1.399 . S
C1968 C1967 1.399 . S
C1968 C1969 1.376 . S
C1969 H1956 0.930 . S
C1969 C1968 1.376 . S
C1969 C1970 1.388 . S
C1970 H1957 0.930 . S
C1970 C1969 1.388 . S
C1970 C1971 1.390 . S
C1971 C1970 1.390 . S
C1971 C1972 1.394 . S
C1971 C1977 1.465 . S
C1972 C1967 1.399 . S
C1972 C1971 1.394 . S
C1972 C1973 1.516 . S
C1973 C1972 1.516 . S
C1973 C1974 1.502 . S
C1973 C1975 1.561 . S
C1973 C1976 1.526 . S
C1974 H1958 0.959 . S
C1974 H1959 0.959 . S
C1974 H1960 0.961 . S
C1974 C1973 1.502 . S
C1975 H1961 0.960 . S
C1975 H1962 0.961 . S
C1975 H1963 0.959 . S
C1975 C1973 1.561 . S
C1976 C1973 1.526 . S
C1976 C1977 1.396 . S
C1976 C1981 1.390 . S
C1977 C1971 1.465 . S
C1977 C1976 1.396 . S
C1977 C1978 1.399 . S
C1978 H1964 0.929 . S
C1978 C1977 1.399 . S
C1978 C1979 1.385 . S
C1979 H1965 0.931 . S
C1979 C1978 1.385 . S
C1979 C1980 1.389 . S
C1980 C1979 1.389 . S
C1980 C1981 1.387 . S
C1981 H1966 0.930 . S
C1981 C1976 1.390 . S
C1981 C1980 1.387 . S
H1982 C1994 0.930 . S
H1983 C1996 0.930 . S
H1984 C1997 0.930 . S
H1985 C2001 0.959 . S
H1986 C2001 0.959 . S
H1987 C2001 0.961 . S
H1988 C2002 0.960 . S
H1989 C2002 0.961 . S
H1990 C2002 0.959 . S
H1991 C2005 0.929 . S
H1992 C2006 0.931 . S
H1993 C2008 0.930 . S
C1994 H1982 0.930 . S
C1994 C1995 1.399 . S
C1994 C1999 1.399 . S
C1995 C1994 1.399 . S
C1995 C1996 1.376 . S
C1996 H1983 0.930 . S
C1996 C1995 1.376 . S
C1996 C1997 1.388 . S
C1997 H1984 0.930 . S
C1997 C1996 1.388 . S
C1997 C1998 1.390 . S
C1998 C1997 1.390 . S
C1998 C1999 1.394 . S
C1998 C2004 1.465 . S
C1999 C1994 1.399 . S
C1999 C1998 1.394 . S
C1999 C2000 1.516 . S
C2000 C1999 1.516 . S
C2000 C2001 1.502 . S
C2000 C2002 1.561 . S
C2000 C2003 1.526 . S
C2001 H1985 0.959 . S
C2001 H1986 0.959 . S
C2001 H1987 0.961 . S
C2001 C2000 1.502 . S
C2002 H1988 0.960 . S
C2002 H1989 0.961 . S
C2002 H1990 0.959 . S
C2002 C2000 1.561 . S
C2003 C2000 1.526 . S
C2003 C2004 1.396 . S
C2003 C2008 1.390 . S
C2004 C1998 1.465 . S
C2004 C2003 1.396 . S
C2004 C2005 1.399 . S
C2005 H1991 0.929 . S
C2005 C2004 1.399 . S
C2005 C2006 1.385 . S
C2006 H1992 0.931 . S
C2006 C2005 1.385 . S
C2006 C2007 1.389 . S
C2007 C2006 1.389 . S
C2007 C2008 1.387 . S
C2008 H1993 0.930 . S
C2008 C2003 1.390 . S
C2008 C2007 1.387 . S
H2009 C2021 0.930 . S
H2010 C2023 0.930 1_554 S
H2011 C2024 0.930 . S
H2012 C2028 0.959 . S
H2013 C2028 0.959 . S
H2014 C2028 0.961 . S
H2015 C2029 0.960 . S
H2016 C2029 0.961 . S
H2017 C2029 0.959 . S
H2018 C2032 0.929 . S
H2019 C2033 0.931 . S
H2020 C2035 0.930 . S
C2021 H2009 0.930 . S
C2021 C2022 1.399 . S
C2021 C2026 1.399 . S
C2022 C2021 1.399 . S
C2022 C2023 1.376 . S
C2023 H2010 0.930 1_556 S
C2023 C2022 1.376 . S
C2023 C2024 1.388 . S
C2024 H2011 0.930 . S
C2024 C2023 1.388 . S
C2024 C2025 1.390 . S
C2025 C2024 1.390 . S
C2025 C2026 1.394 . S
C2025 C2031 1.465 . S
C2026 C2021 1.399 . S
C2026 C2025 1.394 . S
C2026 C2027 1.516 . S
C2027 C2026 1.516 . S
C2027 C2028 1.502 . S
C2027 C2029 1.561 . S
C2027 C2030 1.526 . S
C2028 H2012 0.959 . S
C2028 H2013 0.959 . S
C2028 H2014 0.961 . S
C2028 C2027 1.502 . S
C2029 H2015 0.960 . S
C2029 H2016 0.961 . S
C2029 H2017 0.959 . S
C2029 C2027 1.561 . S
C2030 C2027 1.526 . S
C2030 C2031 1.396 . S
C2030 C2035 1.390 . S
C2031 C2025 1.465 . S
C2031 C2030 1.396 . S
C2031 C2032 1.399 . S
C2032 H2018 0.929 . S
C2032 C2031 1.399 . S
C2032 C2033 1.385 . S
C2033 H2019 0.931 . S
C2033 C2032 1.385 . S
C2033 C2034 1.389 . S
C2034 C2033 1.389 . S
C2034 C2035 1.387 . S
C2035 H2020 0.930 . S
C2035 C2030 1.390 . S
C2035 C2034 1.387 . S
H2036 C2048 0.930 . S
H2037 C2050 0.930 . S
H2038 C2051 0.930 . S
H2039 C2055 0.959 . S
H2040 C2055 0.959 . S
H2041 C2055 0.961 . S
H2042 C2056 0.960 . S
H2043 C2056 0.961 . S
H2044 C2056 0.959 . S
H2045 C2059 0.929 . S
H2046 C2060 0.931 . S
H2047 C2062 0.930 . S
C2048 H2036 0.930 . S
C2048 C2049 1.399 . S
C2048 C2053 1.399 . S
C2049 C2048 1.399 . S
C2049 C2050 1.376 . S
C2050 H2037 0.930 . S
C2050 C2049 1.376 . S
C2050 C2051 1.388 . S
C2051 H2038 0.930 . S
C2051 C2050 1.388 . S
C2051 C2052 1.390 . S
C2052 C2051 1.390 . S
C2052 C2053 1.394 . S
C2052 C2058 1.465 . S
C2053 C2048 1.399 . S
C2053 C2052 1.394 . S
C2053 C2054 1.516 . S
C2054 C2053 1.516 . S
C2054 C2055 1.502 . S
C2054 C2056 1.561 . S
C2054 C2057 1.526 . S
C2055 H2039 0.959 . S
C2055 H2040 0.959 . S
C2055 H2041 0.961 . S
C2055 C2054 1.502 . S
C2056 H2042 0.960 . S
C2056 H2043 0.961 . S
C2056 H2044 0.959 . S
C2056 C2054 1.561 . S
C2057 C2054 1.526 . S
C2057 C2058 1.396 . S
C2057 C2062 1.390 . S
C2058 C2052 1.465 . S
C2058 C2057 1.396 . S
C2058 C2059 1.399 . S
C2059 H2045 0.929 . S
C2059 C2058 1.399 . S
C2059 C2060 1.385 . S
C2060 H2046 0.931 . S
C2060 C2059 1.385 . S
C2060 C2061 1.389 . S
C2061 C2060 1.389 . S
C2061 C2062 1.387 . S
C2062 H2047 0.930 . S
C2062 C2057 1.390 . S
C2062 C2061 1.387 . S
H2063 C2075 0.930 . S
H2064 C2077 0.930 . S
H2065 C2078 0.930 . S
H2066 C2082 0.959 . S
H2067 C2082 0.959 . S
H2068 C2082 0.961 . S
H2069 C2083 0.960 . S
H2070 C2083 0.961 . S
H2071 C2083 0.959 . S
H2072 C2086 0.929 . S
H2073 C2087 0.931 . S
H2074 C2089 0.930 . S
C2075 H2063 0.930 . S
C2075 C2076 1.399 . S
C2075 C2080 1.399 . S
C2076 C2075 1.399 . S
C2076 C2077 1.376 . S
C2077 H2064 0.930 . S
C2077 C2076 1.376 . S
C2077 C2078 1.388 . S
C2078 H2065 0.930 . S
C2078 C2077 1.388 . S
C2078 C2079 1.390 . S
C2079 C2078 1.390 . S
C2079 C2080 1.394 . S
C2079 C2085 1.465 . S
C2080 C2075 1.399 . S
C2080 C2079 1.394 . S
C2080 C2081 1.516 . S
C2081 C2080 1.516 . S
C2081 C2082 1.502 . S
C2081 C2083 1.561 . S
C2081 C2084 1.526 . S
C2082 H2066 0.959 . S
C2082 H2067 0.959 . S
C2082 H2068 0.961 . S
C2082 C2081 1.502 . S
C2083 H2069 0.960 . S
C2083 H2070 0.961 . S
C2083 H2071 0.959 . S
C2083 C2081 1.561 . S
C2084 C2081 1.526 . S
C2084 C2085 1.396 . S
C2084 C2089 1.390 . S
C2085 C2079 1.465 . S
C2085 C2084 1.396 . S
C2085 C2086 1.399 . S
C2086 H2072 0.929 . S
C2086 C2085 1.399 . S
C2086 C2087 1.385 . S
C2087 H2073 0.931 . S
C2087 C2086 1.385 . S
C2087 C2088 1.389 . S
C2088 C2087 1.389 . S
C2088 C2089 1.387 . S
C2089 H2074 0.930 . S
C2089 C2084 1.390 . S
C2089 C2088 1.387 . S
H2090 C2102 0.930 . S
H2091 C2104 0.930 . S
H2092 C2105 0.930 . S
H2093 C2109 0.959 . S
H2094 C2109 0.959 . S
H2095 C2109 0.961 . S
H2096 C2110 0.960 . S
H2097 C2110 0.961 . S
H2098 C2110 0.959 . S
H2099 C2113 0.929 . S
H2100 C2114 0.931 . S
H2101 C2116 0.930 . S
C2102 H2090 0.930 . S
C2102 C2103 1.399 . S
C2102 C2107 1.399 . S
C2103 C2102 1.399 . S
C2103 C2104 1.376 . S
C2104 H2091 0.930 . S
C2104 C2103 1.376 . S
C2104 C2105 1.388 . S
C2105 H2092 0.930 . S
C2105 C2104 1.388 . S
C2105 C2106 1.390 . S
C2106 C2105 1.390 . S
C2106 C2107 1.394 . S
C2106 C2112 1.465 . S
C2107 C2102 1.399 . S
C2107 C2106 1.394 . S
C2107 C2108 1.516 . S
C2108 C2107 1.516 . S
C2108 C2109 1.502 . S
C2108 C2110 1.561 . S
C2108 C2111 1.526 . S
C2109 H2093 0.959 . S
C2109 H2094 0.959 . S
C2109 H2095 0.961 . S
C2109 C2108 1.502 . S
C2110 H2096 0.960 . S
C2110 H2097 0.961 . S
C2110 H2098 0.959 . S
C2110 C2108 1.561 . S
C2111 C2108 1.526 . S
C2111 C2112 1.396 . S
C2111 C2116 1.390 . S
C2112 C2106 1.465 . S
C2112 C2111 1.396 . S
C2112 C2113 1.399 . S
C2113 H2099 0.929 . S
C2113 C2112 1.399 . S
C2113 C2114 1.385 . S
C2114 H2100 0.931 . S
C2114 C2113 1.385 . S
C2114 C2115 1.389 . S
C2115 C2114 1.389 . S
C2115 C2116 1.387 . S
C2116 H2101 0.930 . S
C2116 C2111 1.390 . S
C2116 C2115 1.387 . S
H2117 C2129 0.930 . S
H2118 C2131 0.930 . S
H2119 C2132 0.930 . S
H2120 C2136 0.959 . S
H2121 C2136 0.959 . S
H2122 C2136 0.961 . S
H2123 C2137 0.960 . S
H2124 C2137 0.961 . S
H2125 C2137 0.959 . S
H2126 C2140 0.929 . S
H2127 C2141 0.931 . S
H2128 C2143 0.930 . S
C2129 H2117 0.930 . S
C2129 C2130 1.399 . S
C2129 C2134 1.399 . S
C2130 C2129 1.399 . S
C2130 C2131 1.376 . S
C2131 H2118 0.930 . S
C2131 C2130 1.376 . S
C2131 C2132 1.388 . S
C2132 H2119 0.930 . S
C2132 C2131 1.388 . S
C2132 C2133 1.390 . S
C2133 C2132 1.390 . S
C2133 C2134 1.394 . S
C2133 C2139 1.465 . S
C2134 C2129 1.399 . S
C2134 C2133 1.394 . S
C2134 C2135 1.516 . S
C2135 C2134 1.516 . S
C2135 C2136 1.502 . S
C2135 C2137 1.561 . S
C2135 C2138 1.526 . S
C2136 H2120 0.959 . S
C2136 H2121 0.959 . S
C2136 H2122 0.961 . S
C2136 C2135 1.502 . S
C2137 H2123 0.960 . S
C2137 H2124 0.961 . S
C2137 H2125 0.959 . S
C2137 C2135 1.561 . S
C2138 C2135 1.526 . S
C2138 C2139 1.396 . S
C2138 C2143 1.390 . S
C2139 C2133 1.465 . S
C2139 C2138 1.396 . S
C2139 C2140 1.399 . S
C2140 H2126 0.929 . S
C2140 C2139 1.399 . S
C2140 C2141 1.385 . S
C2141 H2127 0.931 . S
C2141 C2140 1.385 . S
C2141 C2142 1.389 . S
C2142 C2141 1.389 . S
C2142 C2143 1.387 . S
C2143 H2128 0.930 . S
C2143 C2138 1.390 . S
C2143 C2142 1.387 . S
C429 C10 1.466 . S
C441 C56 1.462 . S
C456 C23 1.476 . S
C468 C75 1.454 . S
C483 C82 1.455 . S
C495 C30 1.474 . S
C510 C101 1.480 . S
C522 C49 1.452 . S
C537 C108 1.472 . S
C549 C166 1.448 . S
C564 C121 1.500 . S
C576 C173 1.465 . S
C591 C186 1.479 . S
C603 C140 1.447 . S
C618 C147 1.499 . S
C630 C205 1.475 . S
C645 C264 1.447 . S
C657 C212 1.488 . S
C672 C283 1.500 . S
C684 C231 1.452 . S
C699 C238 1.456 . S
C711 C290 1.473 . S
C726 C309 1.481 . S
C738 C251 1.451 . S
C753 C322 1.492 . S
C765 C374 1.450 . S
C780 C381 1.446 . S
C792 C335 1.478 . S
C807 C400 1.476 . S
C819 C348 1.447 . S
C834 C355 1.485 . S
C846 C407 1.447 . S
C861 C3 1.678 . S
C873 C361 1.655 . S
C888 C114 1.678 . S
C900 C16 1.659 . S
C915 C31 1.679 . S
C927 C329 1.657 . S
C942 C42 1.656 . S
C954 C134 1.677 . S
C969 C387 1.678 . S
C981 C57 1.663 . S
C996 C192 1.653 . S
C1008 C68 1.656 . S
C1023 C83 1.678 . S
C1035 C413 1.654 . S
C1050 C94 1.651 . S
C1062 C160 1.659 . S
C1077 C257 1.663 . S
C1089 C109 1.678 . S
C1104 C122 1.671 . S
C1116 C4 1.678 . S
C1131 C225 1.670 . S
C1143 C133 1.656 . S
C1158 C148 1.654 . S
C1170 C36 1.648 . S
C1185 C277 1.660 . S
C1197 C159 1.677 . S
C1212 C174 1.675 . S
C1224 C88 1.658 . S
C1239 C303 1.663 . S
C1251 C187 1.652 . S
C1266 C198 1.652 . S
C1278 C62 1.650 . S
C1293 C153 1.647 . S
C1305 C213 1.666 . S
C1320 C316 1.648 . S
C1332 C224 1.661 . S
C1347 C127 1.675 . S
C1359 C239 1.671 . S
C1374 C252 1.675 . S
C1386 C342 1.650 . S
C1401 C179 1.678 . S
C1413 C265 1.665 . S
C1428 C394 1.668 . S
C1440 C276 1.676 . S
C1455 C199 1.662 . S
C1467 C291 1.679 . S
C1482 C302 1.655 . S
C1494 C368 1.676 . S
C1509 C315 1.663 . S
C1521 C43 1.676 . S
C1536 C328 1.669 . S
C1548 C218 1.678 . S
C1563 C341 1.679 . S
C1575 C17 1.667 . S
C1590 C356 1.667 . S
C1602 C244 1.650 . S
C1617 C367 1.674 . S
C1629 C69 1.656 . S
C1644 C296 1.656 . S
C1656 C382 1.674 . S
C1671 C95 1.656 . S
C1683 C393 1.674 . S
C1698 C408 1.657 . S
C1710 C270 1.647 . S
C1725 C5 1.095 . S
C1737 C96 1.066 . S
C1752 C18 1.127 . S
C1764 C55 1.113 1_556 S
C1779 C29 1.081 1_554 S
C1791 C70 1.111 . S
C1806 C81 1.096 . S
C1818 C44 1.066 . S
C1833 C200 1.062 . S
C1845 C107 1.069 . S
C1860 C161 1.124 1_554 S
C1872 C120 1.126 . S
C1887 C172 1.113 . S
C1899 C135 1.106 1_556 S
C1914 C185 1.126 . S
C1926 C146 1.126 . S
C1941 C211 1.076 1_554 S
C1953 C304 1.107 . S
C1968 C263 1.099 . S
C1980 C226 1.069 . S
C1995 C278 1.126 . S
C2007 C237 1.119 . S
C2022 C289 1.097 1_556 S
C2034 C250 1.067 . S
C2049 C406 1.099 . S
C2061 C317 1.092 1_556 S
C2076 C330 1.087 . S
C2088 C369 1.079 . S
C2103 C343 1.125 . S
C2115 C380 1.126 . S
C2130 C354 1.095 . S
C2142 C395 1.087 1_554 S
