# Generated by pormake.
# Topology lcy-e, (6)-cn, num edge types: 1
# Building blocks:
#     Node 0, Type 0, BuildingBlock: HISSIN_clean_sbu_0, # of connection points: 6
#     Node 1, Type 0, BuildingBlock: HISSIN_clean_sbu_0, # of connection points: 6
#     Node 2, Type 0, BuildingBlock: HISSIN_clean_sbu_0, # of connection points: 6
#     Node 3, Type 0, BuildingBlock: HISSIN_clean_sbu_0, # of connection points: 6
#     Node 4, Type 0, BuildingBlock: HISSIN_clean_sbu_0, # of connection points: 6
#     Node 5, Type 0, BuildingBlock: HISSIN_clean_sbu_0, # of connection points: 6
#     Node 6, Type 0, BuildingBlock: HISSIN_clean_sbu_0, # of connection points: 6
#     Node 7, Type 0, BuildingBlock: HISSIN_clean_sbu_0, # of connection points: 6
#     Node 8, Type 0, BuildingBlock: HISSIN_clean_sbu_0, # of connection points: 6
#     Node 9, Type 0, BuildingBlock: HISSIN_clean_sbu_0, # of connection points: 6
#     Node 10, Type 0, BuildingBlock: HISSIN_clean_sbu_0, # of connection points: 6
#     Node 11, Type 0, BuildingBlock: HISSIN_clean_sbu_0, # of connection points: 6
#     Edge 12, Type (0, 0), BuildingBlock: OJICUG_clean_linker_0, # of connection points: 2
#     Edge 13, Type (0, 0), BuildingBlock: OJICUG_clean_linker_0, # of connection points: 2
#     Edge 14, Type (0, 0), BuildingBlock: OJICUG_clean_linker_0, # of connection points: 2
#     Edge 15, Type (0, 0), BuildingBlock: OJICUG_clean_linker_0, # of connection points: 2
#     Edge 16, Type (0, 0), BuildingBlock: OJICUG_clean_linker_0, # of connection points: 2
#     Edge 17, Type (0, 0), BuildingBlock: OJICUG_clean_linker_0, # of connection points: 2
#     Edge 18, Type (0, 0), BuildingBlock: OJICUG_clean_linker_0, # of connection points: 2
#     Edge 19, Type (0, 0), BuildingBlock: OJICUG_clean_linker_0, # of connection points: 2
#     Edge 20, Type (0, 0), BuildingBlock: OJICUG_clean_linker_0, # of connection points: 2
#     Edge 21, Type (0, 0), BuildingBlock: OJICUG_clean_linker_0, # of connection points: 2
#     Edge 22, Type (0, 0), BuildingBlock: OJICUG_clean_linker_0, # of connection points: 2
#     Edge 23, Type (0, 0), BuildingBlock: OJICUG_clean_linker_0, # of connection points: 2
#     Edge 24, Type (0, 0), BuildingBlock: OJICUG_clean_linker_0, # of connection points: 2
#     Edge 25, Type (0, 0), BuildingBlock: OJICUG_clean_linker_0, # of connection points: 2
#     Edge 26, Type (0, 0), BuildingBlock: OJICUG_clean_linker_0, # of connection points: 2
#     Edge 27, Type (0, 0), BuildingBlock: OJICUG_clean_linker_0, # of connection points: 2
#     Edge 28, Type (0, 0), BuildingBlock: OJICUG_clean_linker_0, # of connection points: 2
#     Edge 29, Type (0, 0), BuildingBlock: OJICUG_clean_linker_0, # of connection points: 2
#     Edge 30, Type (0, 0), BuildingBlock: OJICUG_clean_linker_0, # of connection points: 2
#     Edge 31, Type (0, 0), BuildingBlock: OJICUG_clean_linker_0, # of connection points: 2
#     Edge 32, Type (0, 0), BuildingBlock: OJICUG_clean_linker_0, # of connection points: 2
#     Edge 33, Type (0, 0), BuildingBlock: OJICUG_clean_linker_0, # of connection points: 2
#     Edge 34, Type (0, 0), BuildingBlock: OJICUG_clean_linker_0, # of connection points: 2
#     Edge 35, Type (0, 0), BuildingBlock: OJICUG_clean_linker_0, # of connection points: 2
#     Edge 36, Type (0, 0), BuildingBlock: OJICUG_clean_linker_0, # of connection points: 2
#     Edge 37, Type (0, 0), BuildingBlock: OJICUG_clean_linker_0, # of connection points: 2
#     Edge 38, Type (0, 0), BuildingBlock: OJICUG_clean_linker_0, # of connection points: 2
#     Edge 39, Type (0, 0), BuildingBlock: OJICUG_clean_linker_0, # of connection points: 2
#     Edge 40, Type (0, 0), BuildingBlock: OJICUG_clean_linker_0, # of connection points: 2
#     Edge 41, Type (0, 0), BuildingBlock: OJICUG_clean_linker_0, # of connection points: 2
#     Edge 42, Type (0, 0), BuildingBlock: OJICUG_clean_linker_0, # of connection points: 2
#     Edge 43, Type (0, 0), BuildingBlock: OJICUG_clean_linker_0, # of connection points: 2
#     Edge 44, Type (0, 0), BuildingBlock: OJICUG_clean_linker_0, # of connection points: 2
#     Edge 45, Type (0, 0), BuildingBlock: OJICUG_clean_linker_0, # of connection points: 2
#     Edge 46, Type (0, 0), BuildingBlock: OJICUG_clean_linker_0, # of connection points: 2
#     Edge 47, Type (0, 0), BuildingBlock: OJICUG_clean_linker_0, # of connection points: 2
# Relax obj value: 0.193
# Max RMSD: 0.295
# Mean RMSD: 0.283
data_MOF--net-lcy-e--node1-HISSIN_clean_sbu_0--edge1-OJICUG_clean_linker_0
_symmetry_space_group_name_H-M    P1
_symmetry_Int_Tables_number       1
_symmetry_cell_setting            triclinic
loop_
_symmetry_equiv_pos_as_xyz
'x, y, z'
_cell_length_a     34.297392
_cell_length_b     35.445871
_cell_length_c     34.67612
_cell_angle_alpha  89.896107
_cell_angle_beta   89.816918
_cell_angle_gamma 88.852644
loop_
_atom_site_label
_atom_site_type_symbol
_atom_site_fract_x
_atom_site_fract_y
_atom_site_fract_z
_atom_type_partial_charge
Eu0 Eu 0.12402 0.23945 0.54974 0.0
Eu1 Eu 0.0971 0.30321 0.4876 0.0
C2 C 0.05838 0.29577 0.5732 0.0
C3 C 0.12433 0.1518 0.6126 0.0
C4 C 0.086 0.15468 0.62684 0.0
C5 C 0.12516 0.08464 0.6269 0.0
C6 C 0.0677 0.1229 0.64167 0.0
C7 C 0.14361 0.11652 0.61241 0.0
C8 C 0.0872 0.08763 0.64208 0.0
C9 C 0.14406 0.18487 0.59656 0.0
O10 O 0.15346 0.32295 0.51125 0.0
O11 O 0.1454 0.29673 0.57082 0.0
C12 C 0.15922 0.32359 0.54845 0.0
O13 O 0.17506 0.24834 0.51138 0.0
O14 O 0.09053 0.36164 0.468 0.0
O15 O 0.0714 0.31595 0.43164 0.0
O16 O 0.13978 0.26226 0.45773 0.0
C17 C 0.17216 0.24953 0.4739 0.0
O18 O 0.08396 0.21153 0.50613 0.0
O19 O 0.04736 0.26405 0.49242 0.0
O20 O 0.07135 0.31957 0.54683 0.0
O21 O 0.15066 0.18389 0.5595 0.0
O22 O 0.13181 0.2181 0.60826 0.0
O23 O 0.06563 0.25964 0.56964 0.0
C24 C 0.09803 0.36856 0.40067 0.0
C25 C 0.13452 0.35436 0.38833 0.0
C26 C 0.09902 0.41461 0.3489 0.0
C27 C 0.15322 0.37033 0.35643 0.0
C28 C 0.08034 0.39858 0.38064 0.0
C29 C 0.13581 0.40089 0.33657 0.0
C30 C 0.07798 0.35199 0.43398 0.0
C31 C 0.05174 0.22736 0.4925 0.0
H32 H 0.07021 0.18146 0.62668 0.0
H33 H 0.14098 0.05789 0.62726 0.0
H34 H 0.03831 0.12591 0.65294 0.0
H35 H 0.17305 0.11369 0.60121 0.0
H36 H 0.14858 0.33109 0.40351 0.0
H37 H 0.08458 0.43778 0.33392 0.0
H38 H 0.18165 0.35936 0.34789 0.0
H39 H 0.05208 0.40969 0.38959 0.0
Eu40 Eu 0.97313 0.88781 0.73469 0.0
Eu41 Eu 0.03607 0.91234 0.80014 0.0
C42 C 0.94817 0.94821 0.79487 0.0
C43 C 0.91024 0.88629 0.64399 0.0
C44 C 0.91914 0.92348 0.63365 0.0
C45 C 0.87027 0.88125 0.58683 0.0
C46 C 0.90321 0.93965 0.60016 0.0
C47 C 0.88618 0.86517 0.62016 0.0
C48 C 0.87809 0.91884 0.57673 0.0
C49 C 0.92631 0.86879 0.67905 0.0
O50 O 0.0138 0.85724 0.82046 0.0
O51 O 0.95369 0.86388 0.79281 0.0
C52 C 0.97637 0.85123 0.82103 0.0
O53 O 0.01316 0.83867 0.74292 0.0
O54 O 0.05588 0.91905 0.85941 0.0
O55 O 0.09331 0.93539 0.81194 0.0
O56 O 0.06683 0.87226 0.75792 0.0
C57 C 0.05092 0.84194 0.7435 0.0
O58 O 0.01614 0.92768 0.70688 0.0
O59 O 0.0283 0.96184 0.76097 0.0
O60 O 0.97547 0.9349 0.81842 0.0
O61 O 0.96382 0.862 0.67866 0.0
O62 O 0.91417 0.88266 0.71194 0.0
O63 O 0.95101 0.94282 0.75769 0.0
C64 C 0.12352 0.90556 0.8647 0.0
C65 C 0.11952 0.86664 0.87082 0.0
C66 C 0.19118 0.90021 0.88497 0.0
C67 C 0.15089 0.84483 0.88458 0.0
C68 C 0.15963 0.92212 0.87154 0.0
C69 C 0.187 0.8614 0.89196 0.0
C70 C 0.091 0.92841 0.84882 0.0
C71 C 0.02757 0.95891 0.72342 0.0
H72 H 0.93801 0.94005 0.65169 0.0
H73 H 0.85148 0.86432 0.56909 0.0
H74 H 0.90953 0.96871 0.59326 0.0
H75 H 0.87945 0.83629 0.62748 0.0
H76 H 0.09216 0.85306 0.86491 0.0
H77 H 0.21855 0.91378 0.89081 0.0
H78 H 0.14695 0.81494 0.88944 0.0
H79 H 0.1634 0.952 0.86648 0.0
Eu80 Eu 0.3575 0.79692 0.05082 0.0
Eu81 Eu 0.3854 0.73147 0.99032 0.0
C82 C 0.42131 0.73975 0.07648 0.0
C83 C 0.35869 0.88525 0.11299 0.0
C84 C 0.39571 0.88105 0.12991 0.0
C85 C 0.36038 0.95277 0.12544 0.0
C86 C 0.41455 0.91235 0.14503 0.0
C87 C 0.34136 0.92139 0.11062 0.0
C88 C 0.397 0.94852 0.14318 0.0
C89 C 0.33828 0.85262 0.09671 0.0
O90 O 0.32708 0.71465 1.01196 0.0
O91 O 0.33417 0.73999 0.07177 0.0
C92 C 0.3204 0.71353 0.04901 0.0
O93 O 0.30785 0.78943 1.01044 0.0
O94 O 0.39101 0.67244 0.97263 0.0
O95 O 0.41201 0.71667 0.93515 0.0
O96 O 0.34571 0.77356 0.95863 0.0
C97 C 0.31281 0.78708 0.97316 0.0
O98 O 0.39926 0.82312 1.00721 0.0
O99 O 0.43557 0.76991 0.99528 0.0
O100 O 0.40866 0.71569 0.05042 0.0
O101 O 0.33267 0.85347 0.05952 0.0
O102 O 0.34887 0.81906 0.10897 0.0
O103 O 0.41509 0.77591 0.07183 0.0
C104 C 0.38406 0.66416 0.90553 0.0
C105 C 0.34839 0.67948 0.89241 0.0
C106 C 0.3815 0.61646 0.8556 0.0
C107 C 0.32935 0.66331 0.86101 0.0
C108 C 0.40055 0.63271 0.88684 0.0
C109 C 0.34556 0.63139 0.84245 0.0
C110 C 0.40432 0.68091 0.93845 0.0
C111 C 0.43148 0.80661 0.99421 0.0
H112 H 0.41008 0.8536 0.13159 0.0
H113 H 0.34595 0.9802 0.12395 0.0
H114 H 0.44292 0.90825 0.15822 0.0
H115 H 0.31296 0.92531 0.09746 0.0
H116 H 0.33522 0.70381 0.90659 0.0
H117 H 0.39501 0.59219 0.84163 0.0
H118 H 0.30158 0.67524 0.85183 0.0
H119 H 0.42814 0.62067 0.89645 0.0
Eu120 Eu 0.5154 0.14805 0.23301 0.0
Eu121 Eu 0.4514 0.12549 0.29812 0.0
C122 C 0.53873 0.08852 0.29449 0.0
C123 C 0.57852 0.14267 0.14349 0.0
C124 C 0.58838 0.10414 0.14649 0.0
C125 C 0.59462 0.14072 0.07522 0.0
C126 C 0.60198 0.08425 0.11424 0.0
C127 C 0.58136 0.16071 0.10759 0.0
C128 C 0.60547 0.1024 0.07834 0.0
C129 C 0.56317 0.16384 0.1769 0.0
O130 O 0.47236 0.18216 0.31468 0.0
O131 O 0.53378 0.1742 0.29049 0.0
C132 C 0.50966 0.18849 0.31676 0.0
O133 O 0.47428 0.19695 0.23723 0.0
O134 O 0.43104 0.12263 0.35786 0.0
O135 O 0.3952 0.1012 0.31168 0.0
O136 O 0.42057 0.16396 0.25442 0.0
C137 C 0.43649 0.19361 0.23829 0.0
O138 O 0.47282 0.10745 0.20564 0.0
O139 O 0.45862 0.07487 0.26041 0.0
O140 O 0.51177 0.10344 0.31753 0.0
O141 O 0.52587 0.17161 0.1759 0.0
O142 O 0.5748 0.15279 0.21104 0.0
O143 O 0.53644 0.09313 0.25721 0.0
C144 C 0.36286 0.13136 0.36351 0.0
C145 C 0.34546 0.16124 0.34259 0.0
C146 C 0.3165 0.14246 0.41536 0.0
C147 C 0.31369 0.18163 0.35804 0.0
C148 C 0.34799 0.12197 0.39981 0.0
C149 C 0.29922 0.17273 0.39483 0.0
C150 C 0.39685 0.11026 0.34809 0.0
C151 C 0.46014 0.07687 0.2228 0.0
H152 H 0.58564 0.0894 0.17374 0.0
H153 H 0.59746 0.15552 0.04802 0.0
H154 H 0.60991 0.05467 0.11737 0.0
H155 H 0.5734 0.19031 0.10463 0.0
H156 H 0.3567 0.16905 0.31452 0.0
H157 H 0.30568 0.13467 0.4436 0.0
H158 H 0.30117 0.20496 0.34175 0.0
H159 H 0.36096 0.09898 0.41629 0.0
Eu160 Eu 0.60041 0.23438 0.55072 0.0
Eu161 Eu 0.62796 0.29499 0.48593 0.0
C162 C 0.66372 0.20943 0.49128 0.0
C163 C 0.59771 0.1737 0.6408 0.0
C164 C 0.63551 0.18422 0.65121 0.0
C165 C 0.59504 0.13288 0.69675 0.0
C166 C 0.65319 0.16875 0.68412 0.0
C167 C 0.57742 0.14839 0.66398 0.0
C168 C 0.63331 0.14244 0.70686 0.0
C169 C 0.57903 0.18927 0.60613 0.0
O170 O 0.57018 0.27542 0.46577 0.0
O171 O 0.57596 0.21652 0.49227 0.0
C172 C 0.56255 0.23949 0.46514 0.0
O173 O 0.55137 0.27579 0.54405 0.0
O174 O 0.63325 0.31567 0.42679 0.0
O175 O 0.65771 0.34741 0.47397 0.0
O176 O 0.58844 0.32629 0.52873 0.0
C177 C 0.55661 0.31213 0.54369 0.0
O178 O 0.64284 0.2743 0.57925 0.0
O179 O 0.67848 0.28558 0.52524 0.0
O180 O 0.65056 0.23623 0.46785 0.0
O181 O 0.57268 0.22564 0.60645 0.0
O182 O 0.59288 0.17735 0.57312 0.0
O183 O 0.65677 0.21085 0.52831 0.0
C184 C 0.63147 0.38211 0.42231 0.0
C185 C 0.59426 0.3943 0.43461 0.0
C186 C 0.63581 0.43758 0.38172 0.0
C187 C 0.57774 0.4279 0.42022 0.0
C188 C 0.65225 0.40409 0.39612 0.0
C189 C 0.59819 0.44968 0.39324 0.0
C190 C 0.64928 0.3471 0.43734 0.0
C191 C 0.67512 0.28576 0.56276 0.0
H192 H 0.65146 0.204 0.63361 0.0
H193 H 0.57886 0.11301 0.714 0.0
H194 H 0.68278 0.17637 0.69104 0.0
H195 H 0.54808 0.14034 0.65654 0.0
H196 H 0.57793 0.37768 0.45511 0.0
H197 H 0.65254 0.45399 0.36141 0.0
H198 H 0.54862 0.43628 0.42939 0.0
H199 H 0.68119 0.39529 0.38671 0.0
Eu200 Eu 0.94795 0.402 0.74807 0.0
Eu201 Eu 0.01572 0.38158 0.81134 0.0
C202 C 0.01165 0.3432 0.72618 0.0
C203 C 0.86066 0.39679 0.68076 0.0
C204 C 0.84603 0.36397 0.69789 0.0
C205 C 0.81409 0.39083 0.62882 0.0
C206 C 0.81545 0.34472 0.68053 0.0
C207 C 0.8444 0.41013 0.64628 0.0
C208 C 0.79941 0.35779 0.64561 0.0
C209 C 0.89261 0.41751 0.69858 0.0
O210 O 0.02757 0.43939 0.78942 0.0
O211 O 1.00597 0.42769 0.72906 0.0
C212 C 0.03087 0.44407 0.7523 0.0
O213 O 0.94623 0.4494 0.79029 0.0
O214 O 0.07686 0.38234 0.82922 0.0
O215 O 0.03348 0.35668 0.86607 0.0
O216 O 0.97014 0.41763 0.84297 0.0
C217 C 0.94972 0.44569 0.82765 0.0
O218 O 0.92202 0.3586 0.78902 0.0
O219 O 0.97925 0.33017 0.8081 0.0
O220 O 0.03466 0.35888 0.75188 0.0
O221 O 0.88946 0.42344 0.73558 0.0
O222 O 0.92795 0.40735 0.68843 0.0
O223 O 0.97387 0.34708 0.72898 0.0
C224 C 0.08488 0.38858 0.89679 0.0
C225 C 0.06016 0.40568 0.92443 0.0
C226 C 0.14088 0.40808 0.93382 0.0
C227 C 0.07575 0.42318 0.95697 0.0
C228 C 0.1253 0.39036 0.90158 0.0
C229 C 0.11634 0.42409 0.96236 0.0
C230 C 0.06923 0.36834 0.86321 0.0
C231 C 0.94121 0.32997 0.8049 0.0
H232 H 0.85835 0.35319 0.72455 0.0
H233 H 0.802 0.40185 0.60217 0.0
H234 H 0.80496 0.31921 0.69392 0.0
H235 H 0.8552 0.43548 0.63279 0.0
H236 H 0.02877 0.40509 0.92124 0.0
H237 H 0.1723 0.40909 0.9364 0.0
H238 H 0.05598 0.43509 0.97832 0.0
H239 H 0.14491 0.37774 0.88046 0.0
Eu240 Eu 0.88426 0.79047 0.05285 0.0
Eu241 Eu 0.85369 0.73566 0.98369 0.0
C242 C 0.81327 0.8203 0.99971 0.0
C243 C 0.88853 0.84988 0.14293 0.0
C244 C 0.8533 0.86967 0.13622 0.0
C245 C 0.88276 0.86471 0.21124 0.0
C246 C 0.83326 0.88723 0.16667 0.0
C247 C 0.903 0.84741 0.18068 0.0
C248 C 0.84776 0.88497 0.20454 0.0
C249 C 0.90889 0.82956 0.11142 0.0
O250 O 0.873 0.78797 0.95611 0.0
O251 O 0.92198 0.79908 0.99843 0.0
C252 C 0.90641 0.8028 0.96371 0.0
O253 O 0.90562 0.73163 0.06359 0.0
O254 O 0.86583 0.71039 0.92781 0.0
O255 O 0.81436 0.69382 0.95971 0.0
O256 O 0.91469 0.71637 1.00096 0.0
C257 C 0.92372 0.71176 0.03733 0.0
O258 O 0.82467 0.77059 0.07101 0.0
O259 O 0.82909 0.71435 0.03928 0.0
O260 O 0.81366 0.78844 0.97942 0.0
O261 O 0.90564 0.79301 0.11201 0.0
O262 O 0.9051 0.8434 0.07667 0.0
O263 O 0.83611 0.82578 0.02924 0.0
C264 C 0.84735 0.6476 0.92113 0.0
C265 C 0.86802 0.6249 0.94765 0.0
C266 C 0.85472 0.59816 0.8732 0.0
C267 C 0.88214 0.58897 0.93688 0.0
C268 C 0.84051 0.6338 0.88406 0.0
C269 C 0.87603 0.57525 0.8993 0.0
C270 C 0.83689 0.68718 0.92986 0.0
C271 C 0.81313 0.73586 0.06586 0.0
H272 H 0.84106 0.87135 0.10748 0.0
H273 H 0.89484 0.86277 0.24002 0.0
H274 H 0.80616 0.9023 0.16065 0.0
H275 H 0.92987 0.83189 0.18654 0.0
H276 H 0.87408 0.63535 0.97631 0.0
H277 H 0.85015 0.58923 0.84375 0.0
H278 H 0.89812 0.57215 0.95784 0.0
H279 H 0.82529 0.65117 0.86297 0.0
Eu280 Eu 0.52866 0.63176 0.24428 0.0
Eu281 Eu 0.46486 0.6491 0.3124 0.0
C282 C 0.46544 0.69257 0.22989 0.0
C283 C 0.6125 0.63878 0.17267 0.0
C284 C 0.63022 0.66863 0.19208 0.0
C285 C 0.65914 0.6447 0.12058 0.0
C286 C 0.6628 0.68598 0.17607 0.0
C287 C 0.62677 0.62732 0.13666 0.0
C288 C 0.67801 0.67374 0.14041 0.0
C289 C 0.58009 0.61847 0.19019 0.0
O290 O 0.44843 0.5938 0.28745 0.0
O291 O 0.46971 0.60789 0.22697 0.0
C292 C 0.44522 0.59062 0.25015 0.0
O293 O 0.52832 0.58038 0.28126 0.0
O294 O 0.40497 0.65056 0.33441 0.0
O295 O 0.45226 0.67037 0.37001 0.0
O296 O 0.51047 0.60866 0.33785 0.0
C297 C 0.52725 0.5805 0.31893 0.0
O298 O 0.55852 0.67018 0.28732 0.0
O299 O 0.50302 0.69925 0.31008 0.0
O300 O 0.44328 0.67526 0.25536 0.0
O301 O 0.58484 0.60847 0.22614 0.0
O302 O 0.54508 0.63191 0.18334 0.0
O303 O 0.50322 0.68855 0.23145 0.0
C304 C 0.39988 0.6403 0.40209 0.0
C305 C 0.42386 0.62844 0.43292 0.0
C306 C 0.34391 0.61543 0.43605 0.0
C307 C 0.40779 0.61084 0.46534 0.0
C308 C 0.35987 0.63318 0.40386 0.0
C309 C 0.36748 0.60477 0.4676 0.0
C310 C 0.41557 0.66137 0.36875 0.0
C311 C 0.54096 0.69817 0.30591 0.0
H312 H 0.61936 0.67796 0.21992 0.0
H313 H 0.66957 0.63519 0.09266 0.0
H314 H 0.67671 0.70816 0.1921 0.0
H315 H 0.6132 0.60453 0.1212 0.0
H316 H 0.45491 0.63338 0.43242 0.0
H317 H 0.31286 0.61044 0.43637 0.0
H318 H 0.42675 0.60315 0.48913 0.0
H319 H 0.34077 0.64185 0.3805 0.0
Eu320 Eu 0.27234 0.4846 0.13898 0.0
Eu321 Eu 0.20948 0.55191 0.15876 0.0
C322 C 0.29352 0.54328 0.20096 0.0
C323 C 0.33229 0.39236 0.1393 0.0
C324 C 0.32888 0.38554 0.17908 0.0
C325 C 0.35855 0.32898 0.13046 0.0
C326 C 0.34109 0.35072 0.19457 0.0
C327 C 0.34653 0.36368 0.1151 0.0
C328 C 0.35673 0.32232 0.17044 0.0
C329 C 0.31987 0.42849 0.12207 0.0
O330 O 0.23416 0.56366 0.1006 0.0
O331 O 0.29452 0.54041 0.11427 0.0
C332 C 0.27188 0.56577 0.09703 0.0
O333 O 0.23178 0.48826 0.08902 0.0
O334 O 0.19333 0.61173 0.15732 0.0
O335 O 0.15391 0.57141 0.18262 0.0
O336 O 0.17764 0.51011 0.12098 0.0
C337 C 0.19389 0.49161 0.09205 0.0
O338 O 0.2278 0.45953 0.18023 0.0
O339 O 0.20987 0.51446 0.21049 0.0
O340 O 0.26832 0.56713 0.18485 0.0
O341 O 0.28363 0.43051 0.11107 0.0
O342 O 0.33098 0.45932 0.13904 0.0
O343 O 0.29007 0.50697 0.19606 0.0
C344 C 0.12607 0.62101 0.14712 0.0
C345 C 0.12062 0.60827 0.1092 0.0
C346 C 0.06641 0.65825 0.14263 0.0
C347 C 0.08789 0.62026 0.08817 0.0
C348 C 0.09911 0.64636 0.16352 0.0
C349 C 0.06009 0.64482 0.105 0.0
C350 C 0.15827 0.60594 0.17051 0.0
C351 C 0.21128 0.47755 0.20945 0.0
H352 H 0.3173 0.40725 0.19812 0.0
H353 H 0.36989 0.30749 0.11104 0.0
H354 H 0.33957 0.34652 0.22548 0.0
H355 H 0.34864 0.36823 0.08426 0.0
H356 H 0.1412 0.58842 0.09625 0.0
H357 H 0.04584 0.67777 0.15607 0.0
H358 H 0.08369 0.60942 0.05932 0.0
H359 H 0.10294 0.65639 0.19274 0.0
Eu360 Eu 0.7043 0.98441 0.87624 0.0
Eu361 Eu 0.76657 0.04806 0.90306 0.0
C362 C 0.76117 0.96461 0.94239 0.0
C363 C 0.61768 0.91982 0.87695 0.0
C364 C 0.60317 0.93564 0.91139 0.0
C365 C 0.56896 0.87132 0.88104 0.0
C366 C 0.57173 0.91928 0.93062 0.0
C367 C 0.60019 0.88779 0.86178 0.0
C368 C 0.55461 0.88664 0.91587 0.0
C369 C 0.65113 0.93633 0.85686 0.0
O370 O 0.78774 0.02622 0.84645 0.0
O371 O 0.76553 0.96663 0.85514 0.0
C372 C 0.7917 0.98991 0.84117 0.0
O373 O 0.7108 0.02376 0.82685 0.0
O374 O 0.82604 0.0684 0.90923 0.0
O375 O 0.77694 0.10316 0.92829 0.0
O376 O 0.72261 0.07624 0.86239 0.0
C377 C 0.70932 0.06037 0.83086 0.0
O378 O 0.67276 0.02586 0.9164 0.0
O379 O 0.72565 0.04139 0.95242 0.0
O380 O 0.78499 0.99048 0.92883 0.0
O381 O 0.64834 0.97248 0.84994 0.0
O382 O 0.68562 0.9262 0.86946 0.0
O383 O 0.72416 0.96569 0.93408 0.0
C384 C 0.83149 0.1347 0.90348 0.0
C385 C 0.81667 0.14919 0.8686 0.0
C386 C 0.87889 0.18462 0.90451 0.0
C387 C 0.83297 0.18129 0.85175 0.0
C388 C 0.86256 0.15271 0.92131 0.0
C389 C 0.8645 0.19924 0.86941 0.0
C390 C 0.81447 0.1014 0.92206 0.0
C391 C 0.68793 0.03883 0.94847 0.0
H392 H 0.61642 0.9604 0.92359 0.0
H393 H 0.55609 0.84644 0.86872 0.0
H394 H 0.56157 0.9315 0.95753 0.0
H395 H 0.61088 0.87532 0.83516 0.0
H396 H 0.7926 0.13563 0.85441 0.0
H397 H 0.90272 0.19803 0.91922 0.0
H398 H 0.82142 0.19159 0.82459 0.0
H399 H 0.87418 0.14212 0.94835 0.0
Eu400 Eu 0.71598 0.97993 0.40137 0.0
Eu401 Eu 0.77976 0.04326 0.37763 0.0
C402 C 0.69334 0.0396 0.33993 0.0
C403 C 0.65213 0.89221 0.40222 0.0
C404 C 0.65964 0.88279 0.36353 0.0
C405 C 0.61491 0.83519 0.40945 0.0
C406 C 0.64438 0.84981 0.34774 0.0
C407 C 0.6301 0.86801 0.42511 0.0
C408 C 0.62136 0.82591 0.37045 0.0
C409 C 0.66777 0.92649 0.41967 0.0
O410 O 0.75654 0.06073 0.43504 0.0
O411 O 0.69586 0.03689 0.42685 0.0
C412 C 0.71897 0.06273 0.44129 0.0
O413 O 0.75549 0.9852 0.45168 0.0
O414 O 0.79837 0.10171 0.3724 0.0
O415 O 0.83683 0.05596 0.35375 0.0
O416 O 0.81003 1.00139 0.41835 0.0
C417 C 0.79343 0.98637 0.44889 0.0
O418 O 0.76078 0.95193 0.36142 0.0
O419 O 0.77524 1.00471 0.32702 0.0
O420 O 0.71964 0.06214 0.3547 0.0
O421 O 0.7049 0.92531 0.42763 0.0
O422 O 0.65665 0.95879 0.40474 0.0
O423 O 0.69668 1.00312 0.34466 0.0
C424 C 0.86613 0.10948 0.38055 0.0
C425 C 0.88191 0.09351 0.41436 0.0
C426 C 0.91278 0.15986 0.38448 0.0
C427 C 0.913 0.11074 0.43316 0.0
C428 C 0.88193 0.14257 0.36567 0.0
C429 C 0.92849 0.14437 0.41862 0.0
C430 C 0.8333 0.09207 0.36048 0.0
C431 C 0.77474 0.96795 0.33013 0.0
H432 H 0.67698 0.90107 0.34555 0.0
H433 H 0.59786 0.8171 0.4279 0.0
H434 H 0.64965 0.84359 0.31759 0.0
H435 H 0.62449 0.87458 0.45515 0.0
H436 H 0.87 0.06792 0.42633 0.0
H437 H 0.92437 0.18546 0.37225 0.0
H438 H 0.92424 0.09831 0.45954 0.0
H439 H 0.87028 0.15518 0.33954 0.0
Eu440 Eu 0.20945 0.54856 0.64563 0.0
Eu441 Eu 0.27159 0.48105 0.66631 0.0
C442 C 0.18566 0.4889 0.70623 0.0
C443 C 0.15174 0.64187 0.64529 0.0
C444 C 0.15411 0.64824 0.68518 0.0
C445 C 0.12846 0.70621 0.6361 0.0
C446 C 0.14282 0.68334 0.70053 0.0
C447 C 0.13956 0.67123 0.62087 0.0
C448 C 0.12916 0.71245 0.67615 0.0
C449 C 0.16326 0.60546 0.62822 0.0
O450 O 0.24766 0.46806 0.60826 0.0
O451 O 0.18736 0.4935 0.61979 0.0
C452 C 0.21 0.46769 0.60316 0.0
O453 O 0.24967 0.5433 0.59542 0.0
O454 O 0.29058 0.42171 0.66444 0.0
O455 O 0.32653 0.46317 0.69239 0.0
O456 O 0.30355 0.523 0.62822 0.0
C457 C 0.28752 0.5405 0.59857 0.0
O458 O 0.2541 0.57314 0.68658 0.0
O459 O 0.26895 0.51824 0.71812 0.0
O460 O 0.21166 0.46514 0.6909 0.0
O461 O 0.1995 0.60262 0.61713 0.0
O462 O 0.15134 0.57496 0.64544 0.0
O463 O 0.18955 0.52526 0.70185 0.0
C464 C 0.3591 0.41431 0.65808 0.0
C465 C 0.38352 0.43868 0.63748 0.0
C466 C 0.40109 0.36147 0.63957 0.0
C467 C 0.41696 0.42457 0.61868 0.0
C468 C 0.36795 0.37561 0.65858 0.0
C469 C 0.42646 0.3858 0.61991 0.0
C470 C 0.32458 0.42877 0.67931 0.0
C471 C 0.26895 0.55511 0.71655 0.0
H472 H 0.16415 0.62598 0.7044 0.0
H473 H 0.11863 0.72826 0.61653 0.0
H474 H 0.1434 0.68724 0.7315 0.0
H475 H 0.13832 0.66699 0.58995 0.0
H476 H 0.37705 0.4687 0.63628 0.0
H477 H 0.40677 0.33132 0.64028 0.0
H478 H 0.43575 0.44416 0.60397 0.0
H479 H 0.34927 0.35629 0.67386 0.0
C480 C 0.20388 0.37795 0.54551 0.0
C481 C 0.1738 0.35909 0.56457 0.0
H482 H 0.23875 0.4274 0.54278 0.0
C483 C 0.15367 0.37751 0.5947 0.0
H484 H 0.2193 0.36466 0.52166 0.0
C485 C 0.16333 0.41433 0.60534 0.0
C486 C 0.19414 0.43275 0.58689 0.0
H487 H 0.12977 0.3639 0.60924 0.0
H488 H 0.1476 0.42788 0.62877 0.0
C489 C 0.21445 0.41408 0.55705 0.0
C490 C 0.85273 0.95105 0.85021 0.0
C491 C 0.83037 0.9764 0.82772 0.0
H492 H 0.90865 0.92386 0.85876 0.0
C493 C 0.84809 0.99442 0.79636 0.0
H494 H 0.84015 0.93785 0.8754 0.0
C495 C 0.887 0.98644 0.78685 0.0
C496 C 0.90955 0.96122 0.80929 0.0
H497 H 0.83178 1.01486 0.77924 0.0
H498 H 0.89948 0.99987 0.76171 0.0
C499 C 0.89215 0.94383 0.8413 0.0
C500 C 0.32555 0.65826 0.09408 0.0
C501 C 0.30574 0.6775 0.06429 0.0
H502 H 0.33208 0.60658 0.12622 0.0
C503 C 0.27654 0.65871 0.04404 0.0
H504 H 0.3488 0.67177 0.10952 0.0
C505 C 0.26676 0.6218 0.05378 0.0
C506 C 0.28691 0.60222 0.08309 0.0
H507 H 0.2614 0.67259 0.0204 0.0
H508 H 0.24328 0.6085 0.03839 0.0
C509 C 0.31658 0.62073 0.10304 0.0
C510 C 0.59784 0.0953 0.33588 0.0
C511 C 0.57655 0.07413 0.30927 0.0
H512 H 0.65272 0.10257 0.36441 0.0
C513 C 0.59491 0.04314 0.29116 0.0
H514 H 0.58469 0.11992 0.34944 0.0
C515 C 0.63341 0.03287 0.30014 0.0
C516 C 0.65499 0.05422 0.32635 0.0
H517 H 0.57947 0.02694 0.26981 0.0
H518 H 0.64635 1.00811 0.28654 0.0
C519 C 0.63695 0.0858 0.34386 0.0
C520 C 0.65312 0.14849 0.45765 0.0
C521 C 0.67861 0.17312 0.4762 0.0
H522 H 0.64512 0.09338 0.43371 0.0
C523 C 0.71593 0.15996 0.4864 0.0
H524 H 0.62345 0.1574 0.45134 0.0
C525 C 0.72832 0.12341 0.47649 0.0
C526 C 0.70323 0.09884 0.45709 0.0
H527 H 0.7355 0.17798 0.50207 0.0
H528 H 0.7578 0.1145 0.48375 0.0
C529 C 0.66521 0.11158 0.4484 0.0
C530 C 0.08321 0.49186 0.74822 0.0
C531 C 0.06934 0.45632 0.73814 0.0
H532 H 0.13085 0.52989 0.74644 0.0
C533 C 0.09521 0.43016 0.72064 0.0
H534 H 0.06437 0.51201 0.76309 0.0
C535 C 0.13381 0.43977 0.71223 0.0
C536 C 0.14729 0.47595 0.72081 0.0
H537 H 0.08609 0.40179 0.71462 0.0
H538 H 0.15281 0.4191 0.69839 0.0
C539 C 0.12152 0.50176 0.73922 0.0
C540 C 0.78248 0.89823 0.93161 0.0
C541 C 0.77603 0.92833 0.95738 0.0
H542 H 0.79795 0.83964 0.92479 0.0
C543 C 0.77644 0.92123 0.99705 0.0
H544 H 0.78055 0.90284 0.90079 0.0
C545 C 0.78538 0.88495 1.0108 0.0
C546 C 0.7935 0.85494 0.9851 0.0
H547 H 0.76983 0.94368 1.01735 0.0
H548 H 0.78715 0.88059 0.04169 0.0
C549 C 0.79121 0.86185 0.94531 0.0
C550 C 0.39504 0.54128 0.24377 0.0
C551 C 0.40743 0.57786 0.23576 0.0
H552 H 0.34902 0.50171 0.23944 0.0
C553 C 0.38091 0.60414 0.21968 0.0
H554 H 0.41455 0.52101 0.25755 0.0
C555 C 0.34301 0.59362 0.21027 0.0
C556 C 0.33099 0.55649 0.21666 0.0
H557 H 0.38899 0.63318 0.21546 0.0
H558 H 0.32347 0.61438 0.19735 0.0
C559 C 0.35734 0.53055 0.23393 0.0
C560 C 0.56357 0.20092 0.36382 0.0
C561 C 0.52412 0.20447 0.35346 0.0
H562 H 0.60631 0.2086 0.40796 0.0
C563 C 0.49731 0.21924 0.38076 0.0
H564 H 0.58499 0.18986 0.34358 0.0
C565 C 0.50949 0.22945 0.41769 0.0
C566 C 0.54855 0.22453 0.42831 0.0
H567 H 0.46665 0.22251 0.37382 0.0
H568 H 0.48844 0.24127 0.43791 0.0
C569 C 0.57562 0.21085 0.40094 0.0
C570 C 0.04684 0.34678 0.62281 0.0
C571 C 0.04383 0.30894 0.61144 0.0
H572 H 0.03944 0.38705 0.66842 0.0
C573 C 0.03118 0.28236 0.63891 0.0
H574 H 0.05629 0.368 0.60251 0.0
C575 C 0.02243 0.29318 0.6768 0.0
C576 C 0.02675 0.33065 0.68837 0.0
H577 H 0.02835 0.25292 0.6313 0.0
H578 H 0.01199 0.27231 0.69702 0.0
C579 C 0.03826 0.35751 0.66087 0.0
C580 C 0.98297 0.8257 0.88867 0.0
C581 C 0.95911 0.83801 0.85775 0.0
H582 H 0.98526 0.80547 0.9473 0.0
C583 C 0.91887 0.84181 0.86382 0.0
H584 H 0.01429 0.82301 0.8851 0.0
C585 C 0.90276 0.83315 0.89955 0.0
C586 C 0.92621 0.81963 0.93011 0.0
H587 H 0.8997 0.85195 0.84113 0.0
H588 H 0.87142 0.83604 0.90289 0.0
C589 C 0.96662 0.81643 0.92457 0.0
C590 C 0.45382 0.74287 0.18095 0.0
C591 C 0.44976 0.7053 0.19246 0.0
H592 H 0.44862 0.78314 0.13525 0.0
C593 C 0.43899 0.67843 0.16485 0.0
H594 H 0.46376 0.76378 0.20125 0.0
C595 C 0.43122 0.68911 0.12669 0.0
C596 C 0.4343 0.72694 0.11527 0.0
H597 H 0.43807 0.64885 0.17226 0.0
H598 H 0.42259 0.66778 0.10627 0.0
C599 C 0.44583 0.75367 0.14291 0.0
C600 C 0.15622 0.4592 0.30209 0.0
C601 C 0.15636 0.41968 0.30417 0.0
H602 H 0.17328 0.50807 0.27116 0.0
C603 C 0.1759 0.39881 0.27518 0.0
H604 H 0.14214 0.47616 0.32427 0.0
C605 C 0.19413 0.41727 0.2443 0.0
C606 C 0.19335 0.4569 0.24209 0.0
H607 H 0.17643 0.36826 0.27597 0.0
H608 H 0.20853 0.40056 0.22213 0.0
C609 C 0.17441 0.47752 0.27159 0.0
C610 C 0.81754 0.93088 0.53895 0.0
C611 C 0.85756 0.93668 0.54352 0.0
H612 H 0.76646 0.94165 0.50592 0.0
C613 C 0.877 0.95946 0.51654 0.0
H614 H 0.80155 0.91406 0.55952 0.0
C615 C 0.85664 0.97561 0.48526 0.0
C616 C 0.81649 0.9696 0.48092 0.0
H617 H 0.90793 0.96435 0.51937 0.0
H618 H 0.87216 0.99292 0.46478 0.0
C619 C 0.79734 0.94706 0.50822 0.0
C620 C 0.28809 0.61526 0.75007 0.0
C621 C 0.28696 0.57564 0.74903 0.0
H622 H 0.30764 0.66415 0.78046 0.0
C623 C 0.30427 0.55495 0.77938 0.0
H624 H 0.275 0.63203 0.72722 0.0
C625 C 0.32283 0.57318 0.80956 0.0
C626 C 0.32462 0.61267 0.81044 0.0
H627 H 0.3039 0.52441 0.77982 0.0
H628 H 0.33567 0.55621 0.83241 0.0
C629 C 0.30665 0.63363 0.78061 0.0
C630 C 0.65855 0.06197 0.05035 0.0
C631 C 0.62349 0.08233 0.0451 0.0
H632 H 0.70609 0.03212 0.02372 0.0
C633 C 0.60758 0.08528 1.0078 0.0
H634 H 0.67167 0.05946 0.07865 0.0
C635 C 0.62722 0.06913 0.97614 0.0
C636 C 0.66335 0.0506 0.9814 0.0
H637 H 0.5804 0.10065 1.00307 0.0
H638 H 0.61518 0.07275 0.9475 0.0
C639 C 0.67835 0.0465 0.01885 0.0
C640 C 0.65027 0.08326 0.74205 0.0
C641 C 0.65318 0.12253 0.73914 0.0
H642 H 0.66546 0.03331 0.77287 0.0
C643 C 0.67529 0.14186 0.7667 0.0
H644 H 0.63403 0.0675 0.72095 0.0
C645 C 0.69362 0.12206 0.79699 0.0
C646 C 0.69052 0.08266 0.79967 0.0
H647 H 0.67797 0.17221 0.76507 0.0
H648 H 0.71031 0.13745 0.818 0.0
C649 C 0.66868 0.06363 0.77177 0.0
C650 C 0.18503 0.43947 0.04584 0.0
C651 C 0.17051 0.47317 0.0621 0.0
H652 H 0.17877 0.3971 1.00295 0.0
C653 C 0.13612 0.48962 0.04728 0.0
H654 H 0.21116 0.42581 0.05712 0.0
C655 C 0.11781 0.47348 1.01525 0.0
C656 C 0.13346 0.44046 0.99795 0.0
H657 H 0.12447 0.51572 0.05927 0.0
H658 H 0.0923 0.48757 1.00325 0.0
C659 C 0.16662 0.42317 1.01449 0.0
C660 C 0.79617 0.96221 0.26154 0.0
C661 C 0.79096 0.94518 0.29782 0.0
H662 H 0.81811 0.95667 0.20401 0.0
C663 C 0.80325 0.90745 0.30293 0.0
H664 H 0.78691 0.9912 0.25651 0.0
C665 C 0.82152 0.88763 0.27263 0.0
C666 C 0.82721 0.90502 0.23655 0.0
H667 H 0.79971 0.8936 0.33055 0.0
H668 H 0.83121 0.85874 0.2774 0.0
C669 C 0.81389 0.94237 0.2313 0.0
C670 C 0.3478 0.54408 0.55662 0.0
C671 C 0.31097 0.55824 0.56789 0.0
H672 H 0.39452 0.54717 0.51528 0.0
C673 C 0.29449 0.58898 0.54768 0.0
H674 H 0.36112 0.52036 0.5717 0.0
C675 C 0.31345 0.60439 0.51603 0.0
C676 C 0.34932 0.58927 0.50321 0.0
H677 H 0.26647 0.60106 0.55611 0.0
H678 H 0.2997 0.62815 0.50139 0.0
C679 C 0.36682 0.55942 0.52436 0.0
C680 C 0.20209 0.22439 0.41202 0.0
C681 C 0.20548 0.23406 0.45116 0.0
H682 H 0.22931 0.19703 0.36323 0.0
C683 C 0.24087 0.22607 0.47019 0.0
H684 H 0.17524 0.23023 0.39657 0.0
C685 C 0.27134 0.20714 0.45141 0.0
C686 C 0.26747 0.19572 0.41296 0.0
H687 H 0.24491 0.23362 0.50015 0.0
H688 H 0.29789 0.20095 0.46726 0.0
C689 C 0.23296 0.2054 0.39301 0.0
C690 C 0.0524 0.05892 0.69766 0.0
C691 C 0.0691 0.05475 0.66091 0.0
H692 H 0.02618 0.03192 0.74595 0.0
C693 C 0.06997 1.01888 0.64353 0.0
H694 H 0.05162 0.08612 0.71189 0.0
C695 C 0.05501 0.98762 0.66302 0.0
C696 C 0.03972 0.99174 0.70043 0.0
H697 H 0.08252 1.01501 0.61508 0.0
H698 H 0.05663 0.96013 0.64944 0.0
C699 C 0.03808 0.02778 0.71725 0.0
C700 C 0.25781 0.84121 0.89574 0.0
C701 C 0.21926 0.83884 0.9095 0.0
H702 H 0.31805 0.82551 0.90463 0.0
C703 C 0.21175 0.81625 0.94184 0.0
H704 H 0.26431 0.85827 0.87067 0.0
C705 C 0.24226 0.798 0.96125 0.0
C706 C 0.28091 0.80139 0.94843 0.0
H707 H 0.18243 0.81406 0.95324 0.0
H708 H 0.2357 0.78202 0.98706 0.0
C709 C 0.28843 0.82224 0.91486 0.0
C710 C 0.4332 0.04768 0.1625 0.0
C711 C 0.44693 0.04396 0.20047 0.0
H712 H 0.40622 1.02029 0.11449 0.0
C713 C 0.44593 1.00838 0.21841 0.0
H714 H 0.43353 0.07476 0.148 0.0
C715 C 0.43072 0.9774 0.19931 0.0
C716 C 0.41571 0.98122 0.16188 0.0
H717 H 0.45649 1.00448 0.24758 0.0
H718 H 0.42958 0.95065 0.2144 0.0
C719 C 0.41736 1.01661 0.14347 0.0
C720 C 0.73558 0.32342 0.64566 0.0
C721 C 0.76841 0.3367 0.6257 0.0
H722 H 0.67992 0.29684 0.64148 0.0
C723 C 0.7712 0.33068 0.58583 0.0
H724 H 0.73271 0.32768 0.67646 0.0
C725 C 0.74139 0.31312 0.56602 0.0
C726 C 0.70774 0.30112 0.58546 0.0
H727 H 0.79647 0.33986 0.56977 0.0
H728 H 0.74457 0.30965 0.53513 0.0
C729 C 0.70537 0.30587 0.62566 0.0
C730 C 0.89107 0.48512 0.84184 0.0
C731 C 0.92924 0.4741 0.8518 0.0
H732 H 0.8437 0.52418 0.85028 0.0
C733 C 0.94843 0.49378 0.88098 0.0
H734 H 0.87551 0.47013 0.81964 0.0
C735 C 0.93059 0.52578 0.89789 0.0
C736 C 0.89306 0.53821 0.88621 0.0
H737 H 0.97804 0.48593 0.88889 0.0
H738 H 0.94706 0.54187 0.91849 0.0
C739 C 0.87302 0.51639 0.85916 0.0
C740 C 0.77472 0.68136 0.08869 0.0
C741 C 0.78062 0.72046 0.08862 0.0
H742 H 0.7384 0.63609 0.10575 0.0
C743 C 0.75378 0.74422 0.10798 0.0
H744 H 0.79515 0.6622 0.07451 0.0
C745 C 0.72069 0.72914 0.12559 0.0
C746 C 0.71409 0.69009 0.12422 0.0
H747 H 0.75756 0.77448 0.1083 0.0
H748 H 0.69968 0.74816 0.1391 0.0
C749 C 0.742 0.66638 0.10638 0.0
C750 C 0.5583 0.51041 0.39707 0.0
C751 C 0.57977 0.48367 0.37524 0.0
H752 H 0.52496 0.5625 0.39661 0.0
C753 C 0.5835 0.48922 0.33537 0.0
H754 H 0.55506 0.50691 0.42794 0.0
C755 C 0.5665 0.52067 0.31765 0.0
C756 C 0.54517 0.54765 0.33922 0.0
H757 H 0.59919 0.46888 0.31758 0.0
H758 H 0.57021 0.52368 0.28677 0.0
C759 C 0.54126 0.54229 0.37922 0.0
C760 C 0.41128 0.27509 0.17296 0.0
C761 C 0.37472 0.28737 0.18681 0.0
H762 H 0.45869 0.23579 0.17803 0.0
C763 C 0.35697 0.26692 0.2168 0.0
H764 H 0.42606 0.29039 0.15033 0.0
C765 C 0.37591 0.23507 0.23288 0.0
C766 C 0.41307 0.22383 0.21957 0.0
H767 H 0.32868 0.2757 0.22791 0.0
H768 H 0.36224 0.22018 0.25647 0.0
C769 C 0.43015 0.24386 0.18911 0.0
C770 C 0.94246 0.26619 0.83577 0.0
C771 C 0.9206 0.2963 0.81965 0.0
H772 H 0.94215 0.21223 0.86319 0.0
C773 C 0.87973 0.2937 0.81867 0.0
H774 H 0.974 0.26681 0.83682 0.0
C775 C 0.86129 0.26197 0.83418 0.0
C776 C 0.88336 0.23238 0.85111 0.0
H777 H 0.86201 0.31629 0.80637 0.0
H778 H 0.82975 0.26102 0.83375 0.0
C779 C 0.92416 0.23479 0.85119 0.0
C780 C 0.02479 0.66851 0.04575 0.0
C781 C 0.02392 0.65597 0.0843 0.0
H782 H 0.9929 0.69594 0.99992 0.0
C783 C 0.98828 0.6564 0.10426 0.0
H784 H 0.05191 0.66831 0.02966 0.0
C785 C 0.95495 0.67201 0.08741 0.0
C786 C 0.95638 0.68733 0.05009 0.0
H787 H 0.98648 0.64595 0.13358 0.0
H788 H 0.92837 0.67374 0.10435 0.0
C789 C 0.99109 0.68411 0.02868 0.0
C790 C 0.5628 0.78603 0.36277 0.0
C791 C 0.60189 0.7927 0.35343 0.0
H792 H 0.51353 0.75133 0.35557 0.0
C793 C 0.62146 0.76768 0.32805 0.0
H794 H 0.54661 0.80501 0.38164 0.0
C795 C 0.60223 0.73641 0.31273 0.0
C796 C 0.56301 0.72999 0.32223 0.0
H797 H 0.65168 0.77205 0.32041 0.0
H798 H 0.61786 0.71759 0.29326 0.0
C799 C 0.54371 0.75523 0.34747 0.0
C800 C 0.51524 0.32325 0.60099 0.0
C801 C 0.52766 0.33559 0.56461 0.0
H802 H 0.47492 0.33016 0.64743 0.0
C803 C 0.50887 0.36687 0.54751 0.0
H804 H 0.52957 0.29935 0.6149 0.0
C805 C 0.47649 0.38409 0.56578 0.0
C806 C 0.46284 0.37044 0.60154 0.0
H807 H 0.51781 0.3766 0.51926 0.0
H808 H 0.46122 0.40695 0.55114 0.0
C809 C 0.48359 0.34066 0.6194 0.0
C810 C 0.07597 0.76105 0.67773 0.0
C811 C 0.11179 0.74774 0.69226 0.0
H812 H 0.02936 0.80135 0.68231 0.0
C813 C 0.12925 0.76735 0.72282 0.0
H814 H 0.06145 0.74639 0.65463 0.0
C815 C 0.11067 0.79942 0.73882 0.0
C816 C 0.07415 0.81162 0.72487 0.0
H817 H 0.15697 0.75772 0.73446 0.0
H818 H 0.124 0.81366 0.76288 0.0
C819 C 0.05741 0.79245 0.69384 0.0
C820 C 0.49585 0.80878 0.96075 0.0
C821 C 0.4633 0.82839 0.97618 0.0
H822 H 0.54983 0.8117 0.93019 0.0
C823 C 0.4615 0.86793 0.97278 0.0
H824 H 0.49857 0.77835 0.9629 0.0
C825 C 0.49138 0.88721 0.95373 0.0
C826 C 0.5233 0.86721 0.93748 0.0
H827 H 0.43689 0.88387 0.98438 0.0
H828 H 0.4891 0.91761 0.95094 0.0
C829 C 0.5253 0.82787 0.94166 0.0
C830 C 0.9567 0.20374 0.44396 0.0
C831 C 0.9597 0.16447 0.43952 0.0
H832 H 0.98274 0.2539 0.46417 0.0
C833 C 0.9927 0.14526 0.45448 0.0
H834 H 0.93135 0.21933 0.43354 0.0
C835 C 0.02266 0.16527 0.47236 0.0
C836 C 0.01991 0.20477 0.4758 0.0
H837 H 0.99581 0.11494 0.45146 0.0
H838 H 0.0481 0.14993 0.4829 0.0
C839 C 0.98627 0.22356 0.46181 0.0
loop_
_geom_bond_atom_site_label_1
_geom_bond_atom_site_label_2
_geom_bond_distance
_geom_bond_site_symmetry_2
_ccdc_geom_bond_type
Eu0 C9 2.828 . S
Eu0 O11 2.392 . S
Eu0 O13 2.418 . S
Eu0 O18 2.373 . S
Eu0 O21 2.488 . S
Eu0 O22 2.471 . S
Eu0 O23 2.349 . S
Eu1 O10 2.373 . S
Eu1 O14 2.488 . S
Eu1 O15 2.471 . S
Eu1 O16 2.349 . S
Eu1 O19 2.392 . S
Eu1 O20 2.418 . S
Eu1 C30 2.828 . S
C2 O20 1.244 . S
C2 O23 1.265 . S
C3 C4 1.379 . S
C3 C7 1.373 . S
C3 C9 1.505 . S
C4 C3 1.379 . S
C4 C6 1.369 . S
C4 H32 0.930 . S
C5 C7 1.383 . S
C5 C8 1.382 . S
C5 H33 0.930 . S
C6 C4 1.369 . S
C6 C8 1.392 . S
C6 H34 0.930 . S
C7 C3 1.373 . S
C7 C5 1.383 . S
C7 H35 0.931 . S
C8 C5 1.382 . S
C8 C6 1.392 . S
C9 Eu0 2.828 . S
C9 C3 1.505 . S
C9 O21 1.249 . S
C9 O22 1.244 . S
O10 Eu1 2.373 . S
O10 C12 1.258 . S
O11 Eu0 2.392 . S
O11 C12 1.242 . S
C12 O10 1.258 . S
C12 O11 1.242 . S
O13 Eu0 2.418 . S
O13 C17 1.244 . S
O14 Eu1 2.488 . S
O14 C30 1.249 . S
O15 Eu1 2.471 . S
O15 C30 1.244 . S
O16 Eu1 2.349 . S
O16 C17 1.265 . S
C17 O13 1.244 . S
C17 O16 1.265 . S
O18 Eu0 2.373 . S
O18 C31 1.258 . S
O19 Eu1 2.392 . S
O19 C31 1.242 . S
O20 Eu1 2.418 . S
O20 C2 1.244 . S
O21 Eu0 2.488 . S
O21 C9 1.249 . S
O22 Eu0 2.471 . S
O22 C9 1.244 . S
O23 Eu0 2.349 . S
O23 C2 1.265 . S
C24 C25 1.379 . S
C24 C28 1.373 . S
C24 C30 1.505 . S
C25 C24 1.379 . S
C25 C27 1.369 . S
C25 H36 0.930 . S
C26 C28 1.383 . S
C26 C29 1.382 . S
C26 H37 0.930 . S
C27 C25 1.369 . S
C27 C29 1.392 . S
C27 H38 0.930 . S
C28 C24 1.373 . S
C28 C26 1.383 . S
C28 H39 0.931 . S
C29 C26 1.382 . S
C29 C27 1.392 . S
C30 Eu1 2.828 . S
C30 O14 1.249 . S
C30 O15 1.244 . S
C30 C24 1.505 . S
C31 O18 1.258 . S
C31 O19 1.242 . S
H32 C4 0.930 . S
H33 C5 0.930 . S
H34 C6 0.930 . S
H35 C7 0.931 . S
H36 C25 0.930 . S
H37 C26 0.930 . S
H38 C27 0.930 . S
H39 C28 0.931 . S
Eu40 C49 2.828 . S
Eu40 O51 2.392 . S
Eu40 O53 2.418 1_655 S
Eu40 O58 2.373 . S
Eu40 O61 2.488 . S
Eu40 O62 2.471 . S
Eu40 O63 2.349 . S
Eu41 O50 2.373 . S
Eu41 O54 2.488 . S
Eu41 O55 2.471 . S
Eu41 O56 2.349 . S
Eu41 O59 2.392 . S
Eu41 O60 2.418 1_455 S
Eu41 C70 2.828 . S
C42 O60 1.244 . S
C42 O63 1.265 . S
C43 C44 1.379 . S
C43 C47 1.373 . S
C43 C49 1.505 . S
C44 C43 1.379 . S
C44 C46 1.369 . S
C44 H72 0.930 . S
C45 C47 1.383 . S
C45 C48 1.382 . S
C45 H73 0.930 . S
C46 C44 1.369 . S
C46 C48 1.392 . S
C46 H74 0.930 . S
C47 C43 1.373 . S
C47 C45 1.383 . S
C47 H75 0.931 . S
C48 C45 1.382 . S
C48 C46 1.392 . S
C49 Eu40 2.828 . S
C49 C43 1.505 . S
C49 O61 1.249 . S
C49 O62 1.244 . S
O50 Eu41 2.373 . S
O50 C52 1.258 1_455 S
O51 Eu40 2.392 . S
O51 C52 1.242 . S
C52 O50 1.258 1_655 S
C52 O51 1.242 . S
O53 Eu40 2.418 1_455 S
O53 C57 1.244 . S
O54 Eu41 2.488 . S
O54 C70 1.249 . S
O55 Eu41 2.471 . S
O55 C70 1.244 . S
O56 Eu41 2.349 . S
O56 C57 1.265 . S
C57 O53 1.244 . S
C57 O56 1.265 . S
O58 Eu40 2.373 . S
O58 C71 1.258 1_655 S
O59 Eu41 2.392 . S
O59 C71 1.242 . S
O60 Eu41 2.418 1_655 S
O60 C42 1.244 . S
O61 Eu40 2.488 . S
O61 C49 1.249 . S
O62 Eu40 2.471 . S
O62 C49 1.244 . S
O63 Eu40 2.349 . S
O63 C42 1.265 . S
C64 C65 1.379 . S
C64 C68 1.373 . S
C64 C70 1.505 . S
C65 C64 1.379 . S
C65 C67 1.369 . S
C65 H76 0.930 . S
C66 C68 1.383 . S
C66 C69 1.382 . S
C66 H77 0.930 . S
C67 C65 1.369 . S
C67 C69 1.392 . S
C67 H78 0.930 . S
C68 C64 1.373 . S
C68 C66 1.383 . S
C68 H79 0.931 . S
C69 C66 1.382 . S
C69 C67 1.392 . S
C70 Eu41 2.828 . S
C70 O54 1.249 . S
C70 O55 1.244 . S
C70 C64 1.505 . S
C71 O58 1.258 1_455 S
C71 O59 1.242 . S
H72 C44 0.930 . S
H73 C45 0.930 . S
H74 C46 0.930 . S
H75 C47 0.931 . S
H76 C65 0.930 . S
H77 C66 0.930 . S
H78 C67 0.930 . S
H79 C68 0.931 . S
Eu80 C89 2.828 . S
Eu80 O91 2.392 . S
Eu80 O93 2.418 1_554 S
Eu80 O98 2.373 . S
Eu80 O101 2.488 . S
Eu80 O102 2.471 . S
Eu80 O103 2.349 . S
Eu81 O90 2.373 . S
Eu81 O94 2.488 . S
Eu81 O95 2.471 . S
Eu81 O96 2.349 . S
Eu81 O99 2.392 . S
Eu81 O100 2.418 1_556 S
Eu81 C110 2.828 . S
C82 O100 1.244 . S
C82 O103 1.265 . S
C83 C84 1.379 . S
C83 C87 1.373 . S
C83 C89 1.505 . S
C84 C83 1.379 . S
C84 C86 1.369 . S
C84 H112 0.930 . S
C85 C87 1.383 . S
C85 C88 1.382 . S
C85 H113 0.930 . S
C86 C84 1.369 . S
C86 C88 1.392 . S
C86 H114 0.930 . S
C87 C83 1.373 . S
C87 C85 1.383 . S
C87 H115 0.931 . S
C88 C85 1.382 . S
C88 C86 1.392 . S
C89 Eu80 2.828 . S
C89 C83 1.505 . S
C89 O101 1.249 . S
C89 O102 1.244 . S
O90 Eu81 2.373 . S
O90 C92 1.258 1_556 S
O91 Eu80 2.392 . S
O91 C92 1.242 . S
C92 O90 1.258 1_554 S
C92 O91 1.242 . S
O93 Eu80 2.418 1_556 S
O93 C97 1.244 . S
O94 Eu81 2.488 . S
O94 C110 1.249 . S
O95 Eu81 2.471 . S
O95 C110 1.244 . S
O96 Eu81 2.349 . S
O96 C97 1.265 . S
C97 O93 1.244 . S
C97 O96 1.265 . S
O98 Eu80 2.373 . S
O98 C111 1.258 1_554 S
O99 Eu81 2.392 . S
O99 C111 1.242 . S
O100 Eu81 2.418 1_554 S
O100 C82 1.244 . S
O101 Eu80 2.488 . S
O101 C89 1.249 . S
O102 Eu80 2.471 . S
O102 C89 1.244 . S
O103 Eu80 2.349 . S
O103 C82 1.265 . S
C104 C105 1.379 . S
C104 C108 1.373 . S
C104 C110 1.505 . S
C105 C104 1.379 . S
C105 C107 1.369 . S
C105 H116 0.930 . S
C106 C108 1.383 . S
C106 C109 1.382 . S
C106 H117 0.930 . S
C107 C105 1.369 . S
C107 C109 1.392 . S
C107 H118 0.930 . S
C108 C104 1.373 . S
C108 C106 1.383 . S
C108 H119 0.931 . S
C109 C106 1.382 . S
C109 C107 1.392 . S
C110 Eu81 2.828 . S
C110 O94 1.249 . S
C110 O95 1.244 . S
C110 C104 1.505 . S
C111 O98 1.258 1_556 S
C111 O99 1.242 . S
H112 C84 0.930 . S
H113 C85 0.930 . S
H114 C86 0.930 . S
H115 C87 0.931 . S
H116 C105 0.930 . S
H117 C106 0.930 . S
H118 C107 0.930 . S
H119 C108 0.931 . S
Eu120 C129 2.828 . S
Eu120 O131 2.392 . S
Eu120 O133 2.418 . S
Eu120 O138 2.373 . S
Eu120 O141 2.488 . S
Eu120 O142 2.471 . S
Eu120 O143 2.349 . S
Eu121 O130 2.373 . S
Eu121 O134 2.488 . S
Eu121 O135 2.471 . S
Eu121 O136 2.349 . S
Eu121 O139 2.392 . S
Eu121 O140 2.418 . S
Eu121 C150 2.828 . S
C122 O140 1.244 . S
C122 O143 1.265 . S
C123 C124 1.379 . S
C123 C127 1.373 . S
C123 C129 1.505 . S
C124 C123 1.379 . S
C124 C126 1.369 . S
C124 H152 0.930 . S
C125 C127 1.383 . S
C125 C128 1.382 . S
C125 H153 0.930 . S
C126 C124 1.369 . S
C126 C128 1.392 . S
C126 H154 0.930 . S
C127 C123 1.373 . S
C127 C125 1.383 . S
C127 H155 0.931 . S
C128 C125 1.382 . S
C128 C126 1.392 . S
C129 Eu120 2.828 . S
C129 C123 1.505 . S
C129 O141 1.249 . S
C129 O142 1.244 . S
O130 Eu121 2.373 . S
O130 C132 1.258 . S
O131 Eu120 2.392 . S
O131 C132 1.242 . S
C132 O130 1.258 . S
C132 O131 1.242 . S
O133 Eu120 2.418 . S
O133 C137 1.244 . S
O134 Eu121 2.488 . S
O134 C150 1.249 . S
O135 Eu121 2.471 . S
O135 C150 1.244 . S
O136 Eu121 2.349 . S
O136 C137 1.265 . S
C137 O133 1.244 . S
C137 O136 1.265 . S
O138 Eu120 2.373 . S
O138 C151 1.258 . S
O139 Eu121 2.392 . S
O139 C151 1.242 . S
O140 Eu121 2.418 . S
O140 C122 1.244 . S
O141 Eu120 2.488 . S
O141 C129 1.249 . S
O142 Eu120 2.471 . S
O142 C129 1.244 . S
O143 Eu120 2.349 . S
O143 C122 1.265 . S
C144 C145 1.379 . S
C144 C148 1.373 . S
C144 C150 1.505 . S
C145 C144 1.379 . S
C145 C147 1.369 . S
C145 H156 0.930 . S
C146 C148 1.383 . S
C146 C149 1.382 . S
C146 H157 0.930 . S
C147 C145 1.369 . S
C147 C149 1.392 . S
C147 H158 0.930 . S
C148 C144 1.373 . S
C148 C146 1.383 . S
C148 H159 0.931 . S
C149 C146 1.382 . S
C149 C147 1.392 . S
C150 Eu121 2.828 . S
C150 O134 1.249 . S
C150 O135 1.244 . S
C150 C144 1.505 . S
C151 O138 1.258 . S
C151 O139 1.242 . S
H152 C124 0.930 . S
H153 C125 0.930 . S
H154 C126 0.930 . S
H155 C127 0.931 . S
H156 C145 0.930 . S
H157 C146 0.930 . S
H158 C147 0.930 . S
H159 C148 0.931 . S
Eu160 C169 2.828 . S
Eu160 O171 2.392 . S
Eu160 O173 2.418 . S
Eu160 O178 2.373 . S
Eu160 O181 2.488 . S
Eu160 O182 2.471 . S
Eu160 O183 2.349 . S
Eu161 O170 2.373 . S
Eu161 O174 2.488 . S
Eu161 O175 2.471 . S
Eu161 O176 2.349 . S
Eu161 O179 2.392 . S
Eu161 O180 2.418 . S
Eu161 C190 2.828 . S
C162 O180 1.244 . S
C162 O183 1.265 . S
C163 C164 1.379 . S
C163 C167 1.373 . S
C163 C169 1.505 . S
C164 C163 1.379 . S
C164 C166 1.369 . S
C164 H192 0.930 . S
C165 C167 1.383 . S
C165 C168 1.382 . S
C165 H193 0.930 . S
C166 C164 1.369 . S
C166 C168 1.392 . S
C166 H194 0.930 . S
C167 C163 1.373 . S
C167 C165 1.383 . S
C167 H195 0.931 . S
C168 C165 1.382 . S
C168 C166 1.392 . S
C169 Eu160 2.828 . S
C169 C163 1.505 . S
C169 O181 1.249 . S
C169 O182 1.244 . S
O170 Eu161 2.373 . S
O170 C172 1.258 . S
O171 Eu160 2.392 . S
O171 C172 1.242 . S
C172 O170 1.258 . S
C172 O171 1.242 . S
O173 Eu160 2.418 . S
O173 C177 1.244 . S
O174 Eu161 2.488 . S
O174 C190 1.249 . S
O175 Eu161 2.471 . S
O175 C190 1.244 . S
O176 Eu161 2.349 . S
O176 C177 1.265 . S
C177 O173 1.244 . S
C177 O176 1.265 . S
O178 Eu160 2.373 . S
O178 C191 1.258 . S
O179 Eu161 2.392 . S
O179 C191 1.242 . S
O180 Eu161 2.418 . S
O180 C162 1.244 . S
O181 Eu160 2.488 . S
O181 C169 1.249 . S
O182 Eu160 2.471 . S
O182 C169 1.244 . S
O183 Eu160 2.349 . S
O183 C162 1.265 . S
C184 C185 1.379 . S
C184 C188 1.373 . S
C184 C190 1.505 . S
C185 C184 1.379 . S
C185 C187 1.369 . S
C185 H196 0.930 . S
C186 C188 1.383 . S
C186 C189 1.382 . S
C186 H197 0.930 . S
C187 C185 1.369 . S
C187 C189 1.392 . S
C187 H198 0.930 . S
C188 C184 1.373 . S
C188 C186 1.383 . S
C188 H199 0.931 . S
C189 C186 1.382 . S
C189 C187 1.392 . S
C190 Eu161 2.828 . S
C190 O174 1.249 . S
C190 O175 1.244 . S
C190 C184 1.505 . S
C191 O178 1.258 . S
C191 O179 1.242 . S
H192 C164 0.930 . S
H193 C165 0.930 . S
H194 C166 0.930 . S
H195 C167 0.931 . S
H196 C185 0.930 . S
H197 C186 0.930 . S
H198 C187 0.930 . S
H199 C188 0.931 . S
Eu200 C209 2.828 . S
Eu200 O211 2.392 1_655 S
Eu200 O213 2.418 . S
Eu200 O218 2.373 . S
Eu200 O221 2.488 . S
Eu200 O222 2.471 . S
Eu200 O223 2.349 1_655 S
Eu201 O210 2.373 . S
Eu201 O214 2.488 . S
Eu201 O215 2.471 . S
Eu201 O216 2.349 1_455 S
Eu201 O219 2.392 1_455 S
Eu201 O220 2.418 . S
Eu201 C230 2.828 . S
C202 O220 1.244 . S
C202 O223 1.265 . S
C203 C204 1.379 . S
C203 C207 1.373 . S
C203 C209 1.505 . S
C204 C203 1.379 . S
C204 C206 1.369 . S
C204 H232 0.930 . S
C205 C207 1.383 . S
C205 C208 1.382 . S
C205 H233 0.930 . S
C206 C204 1.369 . S
C206 C208 1.392 . S
C206 H234 0.930 . S
C207 C203 1.373 . S
C207 C205 1.383 . S
C207 H235 0.931 . S
C208 C205 1.382 . S
C208 C206 1.392 . S
C209 Eu200 2.828 . S
C209 C203 1.505 . S
C209 O221 1.249 . S
C209 O222 1.244 . S
O210 Eu201 2.373 . S
O210 C212 1.258 . S
O211 Eu200 2.392 1_455 S
O211 C212 1.242 . S
C212 O210 1.258 . S
C212 O211 1.242 . S
O213 Eu200 2.418 . S
O213 C217 1.244 . S
O214 Eu201 2.488 . S
O214 C230 1.249 . S
O215 Eu201 2.471 . S
O215 C230 1.244 . S
O216 Eu201 2.349 1_655 S
O216 C217 1.265 . S
C217 O213 1.244 . S
C217 O216 1.265 . S
O218 Eu200 2.373 . S
O218 C231 1.258 . S
O219 Eu201 2.392 1_655 S
O219 C231 1.242 . S
O220 Eu201 2.418 . S
O220 C202 1.244 . S
O221 Eu200 2.488 . S
O221 C209 1.249 . S
O222 Eu200 2.471 . S
O222 C209 1.244 . S
O223 Eu200 2.349 1_455 S
O223 C202 1.265 . S
C224 C225 1.379 . S
C224 C228 1.373 . S
C224 C230 1.505 . S
C225 C224 1.379 . S
C225 C227 1.369 . S
C225 H236 0.930 . S
C226 C228 1.383 . S
C226 C229 1.382 . S
C226 H237 0.930 . S
C227 C225 1.369 . S
C227 C229 1.392 . S
C227 H238 0.930 . S
C228 C224 1.373 . S
C228 C226 1.383 . S
C228 H239 0.931 . S
C229 C226 1.382 . S
C229 C227 1.392 . S
C230 Eu201 2.828 . S
C230 O214 1.249 . S
C230 O215 1.244 . S
C230 C224 1.505 . S
C231 O218 1.258 . S
C231 O219 1.242 . S
H232 C204 0.930 . S
H233 C205 0.930 . S
H234 C206 0.930 . S
H235 C207 0.931 . S
H236 C225 0.930 . S
H237 C226 0.930 . S
H238 C227 0.930 . S
H239 C228 0.931 . S
Eu240 C249 2.828 . S
Eu240 O251 2.392 1_554 S
Eu240 O253 2.418 . S
Eu240 O258 2.373 . S
Eu240 O261 2.488 . S
Eu240 O262 2.471 . S
Eu240 O263 2.349 1_554 S
Eu241 O250 2.373 . S
Eu241 O254 2.488 . S
Eu241 O255 2.471 . S
Eu241 O256 2.349 1_556 S
Eu241 O259 2.392 1_556 S
Eu241 O260 2.418 . S
Eu241 C270 2.828 . S
C242 O260 1.244 . S
C242 O263 1.265 . S
C243 C244 1.379 . S
C243 C247 1.373 . S
C243 C249 1.505 . S
C244 C243 1.379 . S
C244 C246 1.369 . S
C244 H272 0.930 . S
C245 C247 1.383 . S
C245 C248 1.382 . S
C245 H273 0.930 . S
C246 C244 1.369 . S
C246 C248 1.392 . S
C246 H274 0.930 . S
C247 C243 1.373 . S
C247 C245 1.383 . S
C247 H275 0.931 . S
C248 C245 1.382 . S
C248 C246 1.392 . S
C249 Eu240 2.828 . S
C249 C243 1.505 . S
C249 O261 1.249 . S
C249 O262 1.244 . S
O250 Eu241 2.373 . S
O250 C252 1.258 . S
O251 Eu240 2.392 1_556 S
O251 C252 1.242 . S
C252 O250 1.258 . S
C252 O251 1.242 . S
O253 Eu240 2.418 . S
O253 C257 1.244 . S
O254 Eu241 2.488 . S
O254 C270 1.249 . S
O255 Eu241 2.471 . S
O255 C270 1.244 . S
O256 Eu241 2.349 1_554 S
O256 C257 1.265 . S
C257 O253 1.244 . S
C257 O256 1.265 . S
O258 Eu240 2.373 . S
O258 C271 1.258 . S
O259 Eu241 2.392 1_554 S
O259 C271 1.242 . S
O260 Eu241 2.418 . S
O260 C242 1.244 . S
O261 Eu240 2.488 . S
O261 C249 1.249 . S
O262 Eu240 2.471 . S
O262 C249 1.244 . S
O263 Eu240 2.349 1_556 S
O263 C242 1.265 . S
C264 C265 1.379 . S
C264 C268 1.373 . S
C264 C270 1.505 . S
C265 C264 1.379 . S
C265 C267 1.369 . S
C265 H276 0.930 . S
C266 C268 1.383 . S
C266 C269 1.382 . S
C266 H277 0.930 . S
C267 C265 1.369 . S
C267 C269 1.392 . S
C267 H278 0.930 . S
C268 C264 1.373 . S
C268 C266 1.383 . S
C268 H279 0.931 . S
C269 C266 1.382 . S
C269 C267 1.392 . S
C270 Eu241 2.828 . S
C270 O254 1.249 . S
C270 O255 1.244 . S
C270 C264 1.505 . S
C271 O258 1.258 . S
C271 O259 1.242 . S
H272 C244 0.930 . S
H273 C245 0.930 . S
H274 C246 0.930 . S
H275 C247 0.931 . S
H276 C265 0.930 . S
H277 C266 0.930 . S
H278 C267 0.930 . S
H279 C268 0.931 . S
Eu280 C289 2.828 . S
Eu280 O291 2.392 . S
Eu280 O293 2.418 . S
Eu280 O298 2.373 . S
Eu280 O301 2.488 . S
Eu280 O302 2.471 . S
Eu280 O303 2.349 . S
Eu281 O290 2.373 . S
Eu281 O294 2.488 . S
Eu281 O295 2.471 . S
Eu281 O296 2.349 . S
Eu281 O299 2.392 . S
Eu281 O300 2.418 . S
Eu281 C310 2.828 . S
C282 O300 1.244 . S
C282 O303 1.265 . S
C283 C284 1.379 . S
C283 C287 1.373 . S
C283 C289 1.505 . S
C284 C283 1.379 . S
C284 C286 1.369 . S
C284 H312 0.930 . S
C285 C287 1.383 . S
C285 C288 1.382 . S
C285 H313 0.930 . S
C286 C284 1.369 . S
C286 C288 1.392 . S
C286 H314 0.930 . S
C287 C283 1.373 . S
C287 C285 1.383 . S
C287 H315 0.931 . S
C288 C285 1.382 . S
C288 C286 1.392 . S
C289 Eu280 2.828 . S
C289 C283 1.505 . S
C289 O301 1.249 . S
C289 O302 1.244 . S
O290 Eu281 2.373 . S
O290 C292 1.258 . S
O291 Eu280 2.392 . S
O291 C292 1.242 . S
C292 O290 1.258 . S
C292 O291 1.242 . S
O293 Eu280 2.418 . S
O293 C297 1.244 . S
O294 Eu281 2.488 . S
O294 C310 1.249 . S
O295 Eu281 2.471 . S
O295 C310 1.244 . S
O296 Eu281 2.349 . S
O296 C297 1.265 . S
C297 O293 1.244 . S
C297 O296 1.265 . S
O298 Eu280 2.373 . S
O298 C311 1.258 . S
O299 Eu281 2.392 . S
O299 C311 1.242 . S
O300 Eu281 2.418 . S
O300 C282 1.244 . S
O301 Eu280 2.488 . S
O301 C289 1.249 . S
O302 Eu280 2.471 . S
O302 C289 1.244 . S
O303 Eu280 2.349 . S
O303 C282 1.265 . S
C304 C305 1.379 . S
C304 C308 1.373 . S
C304 C310 1.505 . S
C305 C304 1.379 . S
C305 C307 1.369 . S
C305 H316 0.930 . S
C306 C308 1.383 . S
C306 C309 1.382 . S
C306 H317 0.930 . S
C307 C305 1.369 . S
C307 C309 1.392 . S
C307 H318 0.930 . S
C308 C304 1.373 . S
C308 C306 1.383 . S
C308 H319 0.931 . S
C309 C306 1.382 . S
C309 C307 1.392 . S
C310 Eu281 2.828 . S
C310 O294 1.249 . S
C310 O295 1.244 . S
C310 C304 1.505 . S
C311 O298 1.258 . S
C311 O299 1.242 . S
H312 C284 0.930 . S
H313 C285 0.930 . S
H314 C286 0.930 . S
H315 C287 0.931 . S
H316 C305 0.930 . S
H317 C306 0.930 . S
H318 C307 0.930 . S
H319 C308 0.931 . S
Eu320 C329 2.828 . S
Eu320 O331 2.392 . S
Eu320 O333 2.418 . S
Eu320 O338 2.373 . S
Eu320 O341 2.488 . S
Eu320 O342 2.471 . S
Eu320 O343 2.349 . S
Eu321 O330 2.373 . S
Eu321 O334 2.488 . S
Eu321 O335 2.471 . S
Eu321 O336 2.349 . S
Eu321 O339 2.392 . S
Eu321 O340 2.418 . S
Eu321 C350 2.828 . S
C322 O340 1.244 . S
C322 O343 1.265 . S
C323 C324 1.379 . S
C323 C327 1.373 . S
C323 C329 1.505 . S
C324 C323 1.379 . S
C324 C326 1.369 . S
C324 H352 0.930 . S
C325 C327 1.383 . S
C325 C328 1.382 . S
C325 H353 0.930 . S
C326 C324 1.369 . S
C326 C328 1.392 . S
C326 H354 0.930 . S
C327 C323 1.373 . S
C327 C325 1.383 . S
C327 H355 0.931 . S
C328 C325 1.382 . S
C328 C326 1.392 . S
C329 Eu320 2.828 . S
C329 C323 1.505 . S
C329 O341 1.249 . S
C329 O342 1.244 . S
O330 Eu321 2.373 . S
O330 C332 1.258 . S
O331 Eu320 2.392 . S
O331 C332 1.242 . S
C332 O330 1.258 . S
C332 O331 1.242 . S
O333 Eu320 2.418 . S
O333 C337 1.244 . S
O334 Eu321 2.488 . S
O334 C350 1.249 . S
O335 Eu321 2.471 . S
O335 C350 1.244 . S
O336 Eu321 2.349 . S
O336 C337 1.265 . S
C337 O333 1.244 . S
C337 O336 1.265 . S
O338 Eu320 2.373 . S
O338 C351 1.258 . S
O339 Eu321 2.392 . S
O339 C351 1.242 . S
O340 Eu321 2.418 . S
O340 C322 1.244 . S
O341 Eu320 2.488 . S
O341 C329 1.249 . S
O342 Eu320 2.471 . S
O342 C329 1.244 . S
O343 Eu320 2.349 . S
O343 C322 1.265 . S
C344 C345 1.379 . S
C344 C348 1.373 . S
C344 C350 1.505 . S
C345 C344 1.379 . S
C345 C347 1.369 . S
C345 H356 0.930 . S
C346 C348 1.383 . S
C346 C349 1.382 . S
C346 H357 0.930 . S
C347 C345 1.369 . S
C347 C349 1.392 . S
C347 H358 0.930 . S
C348 C344 1.373 . S
C348 C346 1.383 . S
C348 H359 0.931 . S
C349 C346 1.382 . S
C349 C347 1.392 . S
C350 Eu321 2.828 . S
C350 O334 1.249 . S
C350 O335 1.244 . S
C350 C344 1.505 . S
C351 O338 1.258 . S
C351 O339 1.242 . S
H352 C324 0.930 . S
H353 C325 0.930 . S
H354 C326 0.930 . S
H355 C327 0.931 . S
H356 C345 0.930 . S
H357 C346 0.930 . S
H358 C347 0.930 . S
H359 C348 0.931 . S
Eu360 C369 2.828 . S
Eu360 O371 2.392 . S
Eu360 O373 2.418 1_565 S
Eu360 O378 2.373 1_565 S
Eu360 O381 2.488 . S
Eu360 O382 2.471 . S
Eu360 O383 2.349 . S
Eu361 O370 2.373 . S
Eu361 O374 2.488 . S
Eu361 O375 2.471 . S
Eu361 O376 2.349 . S
Eu361 O379 2.392 . S
Eu361 O380 2.418 1_545 S
Eu361 C390 2.828 . S
C362 O380 1.244 . S
C362 O383 1.265 . S
C363 C364 1.379 . S
C363 C367 1.373 . S
C363 C369 1.505 . S
C364 C363 1.379 . S
C364 C366 1.369 . S
C364 H392 0.930 . S
C365 C367 1.383 . S
C365 C368 1.382 . S
C365 H393 0.930 . S
C366 C364 1.369 . S
C366 C368 1.392 . S
C366 H394 0.930 . S
C367 C363 1.373 . S
C367 C365 1.383 . S
C367 H395 0.931 . S
C368 C365 1.382 . S
C368 C366 1.392 . S
C369 Eu360 2.828 . S
C369 C363 1.505 . S
C369 O381 1.249 . S
C369 O382 1.244 . S
O370 Eu361 2.373 . S
O370 C372 1.258 1_545 S
O371 Eu360 2.392 . S
O371 C372 1.242 . S
C372 O370 1.258 1_565 S
C372 O371 1.242 . S
O373 Eu360 2.418 1_545 S
O373 C377 1.244 . S
O374 Eu361 2.488 . S
O374 C390 1.249 . S
O375 Eu361 2.471 . S
O375 C390 1.244 . S
O376 Eu361 2.349 . S
O376 C377 1.265 . S
C377 O373 1.244 . S
C377 O376 1.265 . S
O378 Eu360 2.373 1_545 S
O378 C391 1.258 . S
O379 Eu361 2.392 . S
O379 C391 1.242 . S
O380 Eu361 2.418 1_565 S
O380 C362 1.244 . S
O381 Eu360 2.488 . S
O381 C369 1.249 . S
O382 Eu360 2.471 . S
O382 C369 1.244 . S
O383 Eu360 2.349 . S
O383 C362 1.265 . S
C384 C385 1.379 . S
C384 C388 1.373 . S
C384 C390 1.505 . S
C385 C384 1.379 . S
C385 C387 1.369 . S
C385 H396 0.930 . S
C386 C388 1.383 . S
C386 C389 1.382 . S
C386 H397 0.930 . S
C387 C385 1.369 . S
C387 C389 1.392 . S
C387 H398 0.930 . S
C388 C384 1.373 . S
C388 C386 1.383 . S
C388 H399 0.931 . S
C389 C386 1.382 . S
C389 C387 1.392 . S
C390 Eu361 2.828 . S
C390 O374 1.249 . S
C390 O375 1.244 . S
C390 C384 1.505 . S
C391 O378 1.258 . S
C391 O379 1.242 . S
H392 C364 0.930 . S
H393 C365 0.930 . S
H394 C366 0.930 . S
H395 C367 0.931 . S
H396 C385 0.930 . S
H397 C386 0.930 . S
H398 C387 0.930 . S
H399 C388 0.931 . S
Eu400 C409 2.828 . S
Eu400 O411 2.392 1_565 S
Eu400 O413 2.418 . S
Eu400 O418 2.373 . S
Eu400 O421 2.488 . S
Eu400 O422 2.471 . S
Eu400 O423 2.349 1_565 S
Eu401 O410 2.373 . S
Eu401 O414 2.488 . S
Eu401 O415 2.471 . S
Eu401 O416 2.349 1_545 S
Eu401 O419 2.392 1_545 S
Eu401 O420 2.418 . S
Eu401 C430 2.828 . S
C402 O420 1.244 . S
C402 O423 1.265 . S
C403 C404 1.379 . S
C403 C407 1.373 . S
C403 C409 1.505 . S
C404 C403 1.379 . S
C404 C406 1.369 . S
C404 H432 0.930 . S
C405 C407 1.383 . S
C405 C408 1.382 . S
C405 H433 0.930 . S
C406 C404 1.369 . S
C406 C408 1.392 . S
C406 H434 0.930 . S
C407 C403 1.373 . S
C407 C405 1.383 . S
C407 H435 0.931 . S
C408 C405 1.382 . S
C408 C406 1.392 . S
C409 Eu400 2.828 . S
C409 C403 1.505 . S
C409 O421 1.249 . S
C409 O422 1.244 . S
O410 Eu401 2.373 . S
O410 C412 1.258 . S
O411 Eu400 2.392 1_545 S
O411 C412 1.242 . S
C412 O410 1.258 . S
C412 O411 1.242 . S
O413 Eu400 2.418 . S
O413 C417 1.244 . S
O414 Eu401 2.488 . S
O414 C430 1.249 . S
O415 Eu401 2.471 . S
O415 C430 1.244 . S
O416 Eu401 2.349 1_565 S
O416 C417 1.265 . S
C417 O413 1.244 . S
C417 O416 1.265 . S
O418 Eu400 2.373 . S
O418 C431 1.258 . S
O419 Eu401 2.392 1_565 S
O419 C431 1.242 . S
O420 Eu401 2.418 . S
O420 C402 1.244 . S
O421 Eu400 2.488 . S
O421 C409 1.249 . S
O422 Eu400 2.471 . S
O422 C409 1.244 . S
O423 Eu400 2.349 1_545 S
O423 C402 1.265 . S
C424 C425 1.379 . S
C424 C428 1.373 . S
C424 C430 1.505 . S
C425 C424 1.379 . S
C425 C427 1.369 . S
C425 H436 0.930 . S
C426 C428 1.383 . S
C426 C429 1.382 . S
C426 H437 0.930 . S
C427 C425 1.369 . S
C427 C429 1.392 . S
C427 H438 0.930 . S
C428 C424 1.373 . S
C428 C426 1.383 . S
C428 H439 0.931 . S
C429 C426 1.382 . S
C429 C427 1.392 . S
C430 Eu401 2.828 . S
C430 O414 1.249 . S
C430 O415 1.244 . S
C430 C424 1.505 . S
C431 O418 1.258 . S
C431 O419 1.242 . S
H432 C404 0.930 . S
H433 C405 0.930 . S
H434 C406 0.930 . S
H435 C407 0.931 . S
H436 C425 0.930 . S
H437 C426 0.930 . S
H438 C427 0.930 . S
H439 C428 0.931 . S
Eu440 C449 2.828 . S
Eu440 O451 2.392 . S
Eu440 O453 2.418 . S
Eu440 O458 2.373 . S
Eu440 O461 2.488 . S
Eu440 O462 2.471 . S
Eu440 O463 2.349 . S
Eu441 O450 2.373 . S
Eu441 O454 2.488 . S
Eu441 O455 2.471 . S
Eu441 O456 2.349 . S
Eu441 O459 2.392 . S
Eu441 O460 2.418 . S
Eu441 C470 2.828 . S
C442 O460 1.244 . S
C442 O463 1.265 . S
C443 C444 1.379 . S
C443 C447 1.373 . S
C443 C449 1.505 . S
C444 C443 1.379 . S
C444 C446 1.369 . S
C444 H472 0.930 . S
C445 C447 1.383 . S
C445 C448 1.382 . S
C445 H473 0.930 . S
C446 C444 1.369 . S
C446 C448 1.392 . S
C446 H474 0.930 . S
C447 C443 1.373 . S
C447 C445 1.383 . S
C447 H475 0.931 . S
C448 C445 1.382 . S
C448 C446 1.392 . S
C449 Eu440 2.828 . S
C449 C443 1.505 . S
C449 O461 1.249 . S
C449 O462 1.244 . S
O450 Eu441 2.373 . S
O450 C452 1.258 . S
O451 Eu440 2.392 . S
O451 C452 1.242 . S
C452 O450 1.258 . S
C452 O451 1.242 . S
O453 Eu440 2.418 . S
O453 C457 1.244 . S
O454 Eu441 2.488 . S
O454 C470 1.249 . S
O455 Eu441 2.471 . S
O455 C470 1.244 . S
O456 Eu441 2.349 . S
O456 C457 1.265 . S
C457 O453 1.244 . S
C457 O456 1.265 . S
O458 Eu440 2.373 . S
O458 C471 1.258 . S
O459 Eu441 2.392 . S
O459 C471 1.242 . S
O460 Eu441 2.418 . S
O460 C442 1.244 . S
O461 Eu440 2.488 . S
O461 C449 1.249 . S
O462 Eu440 2.471 . S
O462 C449 1.244 . S
O463 Eu440 2.349 . S
O463 C442 1.265 . S
C464 C465 1.379 . S
C464 C468 1.373 . S
C464 C470 1.505 . S
C465 C464 1.379 . S
C465 C467 1.369 . S
C465 H476 0.930 . S
C466 C468 1.383 . S
C466 C469 1.382 . S
C466 H477 0.930 . S
C467 C465 1.369 . S
C467 C469 1.392 . S
C467 H478 0.930 . S
C468 C464 1.373 . S
C468 C466 1.383 . S
C468 H479 0.931 . S
C469 C466 1.382 . S
C469 C467 1.392 . S
C470 Eu441 2.828 . S
C470 O454 1.249 . S
C470 O455 1.244 . S
C470 C464 1.505 . S
C471 O458 1.258 . S
C471 O459 1.242 . S
H472 C444 0.930 . S
H473 C445 0.930 . S
H474 C446 0.930 . S
H475 C447 0.931 . S
H476 C465 0.930 . S
H477 C466 0.930 . S
H478 C467 0.930 . S
H479 C468 0.931 . S
C480 C481 1.387 . S
C480 H484 0.950 . S
C480 C489 1.390 . S
C481 C480 1.387 . S
C481 C483 1.387 . S
H482 C489 0.950 . S
C483 C481 1.387 . S
C483 C485 1.390 . S
C483 H487 0.950 . S
H484 C480 0.950 . S
C485 C483 1.390 . S
C485 C486 1.387 . S
C485 H488 0.950 . S
C486 C485 1.387 . S
C486 C489 1.387 . S
H487 C483 0.950 . S
H488 C485 0.950 . S
C489 C480 1.390 . S
C489 H482 0.950 . S
C489 C486 1.387 . S
C490 C491 1.387 . S
C490 H494 0.950 . S
C490 C499 1.390 . S
C491 C490 1.387 . S
C491 C493 1.387 . S
H492 C499 0.950 . S
C493 C491 1.387 . S
C493 C495 1.390 . S
C493 H497 0.950 . S
H494 C490 0.950 . S
C495 C493 1.390 . S
C495 C496 1.387 . S
C495 H498 0.950 . S
C496 C495 1.387 . S
C496 C499 1.387 . S
H497 C493 0.950 . S
H498 C495 0.950 . S
C499 C490 1.390 . S
C499 H492 0.950 . S
C499 C496 1.387 . S
C500 C501 1.387 . S
C500 H504 0.950 . S
C500 C509 1.390 . S
C501 C500 1.387 . S
C501 C503 1.387 . S
H502 C509 0.950 . S
C503 C501 1.387 . S
C503 C505 1.390 . S
C503 H507 0.950 1_554 S
H504 C500 0.950 . S
C505 C503 1.390 . S
C505 C506 1.387 . S
C505 H508 0.950 . S
C506 C505 1.387 . S
C506 C509 1.387 . S
H507 C503 0.950 1_556 S
H508 C505 0.950 . S
C509 C500 1.390 . S
C509 H502 0.950 . S
C509 C506 1.387 . S
C510 C511 1.387 . S
C510 H514 0.950 . S
C510 C519 1.390 . S
C511 C510 1.387 . S
C511 C513 1.387 . S
H512 C519 0.950 . S
C513 C511 1.387 . S
C513 C515 1.390 . S
C513 H517 0.950 . S
H514 C510 0.950 . S
C515 C513 1.390 . S
C515 C516 1.387 . S
C515 H518 0.950 . S
C516 C515 1.387 . S
C516 C519 1.387 . S
H517 C513 0.950 . S
H518 C515 0.950 . S
C519 C510 1.390 . S
C519 H512 0.950 . S
C519 C516 1.387 . S
C520 C521 1.387 . S
C520 H524 0.950 . S
C520 C529 1.390 . S
C521 C520 1.387 . S
C521 C523 1.387 . S
H522 C529 0.950 . S
C523 C521 1.387 . S
C523 C525 1.390 . S
C523 H527 0.950 . S
H524 C520 0.950 . S
C525 C523 1.390 . S
C525 C526 1.387 . S
C525 H528 0.950 . S
C526 C525 1.387 . S
C526 C529 1.387 . S
H527 C523 0.950 . S
H528 C525 0.950 . S
C529 C520 1.390 . S
C529 H522 0.950 . S
C529 C526 1.387 . S
C530 C531 1.387 . S
C530 H534 0.950 . S
C530 C539 1.390 . S
C531 C530 1.387 . S
C531 C533 1.387 . S
H532 C539 0.950 . S
C533 C531 1.387 . S
C533 C535 1.390 . S
C533 H537 0.950 . S
H534 C530 0.950 . S
C535 C533 1.390 . S
C535 C536 1.387 . S
C535 H538 0.950 . S
C536 C535 1.387 . S
C536 C539 1.387 . S
H537 C533 0.950 . S
H538 C535 0.950 . S
C539 C530 1.390 . S
C539 H532 0.950 . S
C539 C536 1.387 . S
C540 C541 1.387 . S
C540 H544 0.950 . S
C540 C549 1.390 . S
C541 C540 1.387 . S
C541 C543 1.387 . S
H542 C549 0.950 . S
C543 C541 1.387 . S
C543 C545 1.390 . S
C543 H547 0.950 . S
H544 C540 0.950 . S
C545 C543 1.390 . S
C545 C546 1.387 . S
C545 H548 0.950 1_556 S
C546 C545 1.387 . S
C546 C549 1.387 . S
H547 C543 0.950 . S
H548 C545 0.950 1_554 S
C549 C540 1.390 . S
C549 H542 0.950 . S
C549 C546 1.387 . S
C550 C551 1.387 . S
C550 H554 0.950 . S
C550 C559 1.390 . S
C551 C550 1.387 . S
C551 C553 1.387 . S
H552 C559 0.950 . S
C553 C551 1.387 . S
C553 C555 1.390 . S
C553 H557 0.950 . S
H554 C550 0.950 . S
C555 C553 1.390 . S
C555 C556 1.387 . S
C555 H558 0.950 . S
C556 C555 1.387 . S
C556 C559 1.387 . S
H557 C553 0.950 . S
H558 C555 0.950 . S
C559 C550 1.390 . S
C559 H552 0.950 . S
C559 C556 1.387 . S
C560 C561 1.387 . S
C560 H564 0.950 . S
C560 C569 1.390 . S
C561 C560 1.387 . S
C561 C563 1.387 . S
H562 C569 0.950 . S
C563 C561 1.387 . S
C563 C565 1.390 . S
C563 H567 0.950 . S
H564 C560 0.950 . S
C565 C563 1.390 . S
C565 C566 1.387 . S
C565 H568 0.950 . S
C566 C565 1.387 . S
C566 C569 1.387 . S
H567 C563 0.950 . S
H568 C565 0.950 . S
C569 C560 1.390 . S
C569 H562 0.950 . S
C569 C566 1.387 . S
C570 C571 1.387 . S
C570 H574 0.950 . S
C570 C579 1.390 . S
C571 C570 1.387 . S
C571 C573 1.387 . S
H572 C579 0.950 . S
C573 C571 1.387 . S
C573 C575 1.390 . S
C573 H577 0.950 . S
H574 C570 0.950 . S
C575 C573 1.390 . S
C575 C576 1.387 . S
C575 H578 0.950 . S
C576 C575 1.387 . S
C576 C579 1.387 . S
H577 C573 0.950 . S
H578 C575 0.950 . S
C579 C570 1.390 . S
C579 H572 0.950 . S
C579 C576 1.387 . S
C580 C581 1.387 . S
C580 H584 0.950 . S
C580 C589 1.390 . S
C581 C580 1.387 . S
C581 C583 1.387 . S
H582 C589 0.950 . S
C583 C581 1.387 . S
C583 C585 1.390 . S
C583 H587 0.950 . S
H584 C580 0.950 . S
C585 C583 1.390 . S
C585 C586 1.387 . S
C585 H588 0.950 . S
C586 C585 1.387 . S
C586 C589 1.387 . S
H587 C583 0.950 . S
H588 C585 0.950 . S
C589 C580 1.390 . S
C589 H582 0.950 . S
C589 C586 1.387 . S
C590 C591 1.387 . S
C590 H594 0.950 . S
C590 C599 1.390 . S
C591 C590 1.387 . S
C591 C593 1.387 . S
H592 C599 0.950 . S
C593 C591 1.387 . S
C593 C595 1.390 . S
C593 H597 0.950 . S
H594 C590 0.950 . S
C595 C593 1.390 . S
C595 C596 1.387 . S
C595 H598 0.950 . S
C596 C595 1.387 . S
C596 C599 1.387 . S
H597 C593 0.950 . S
H598 C595 0.950 . S
C599 C590 1.390 . S
C599 H592 0.950 . S
C599 C596 1.387 . S
C600 C601 1.387 . S
C600 H604 0.950 . S
C600 C609 1.390 . S
C601 C600 1.387 . S
C601 C603 1.387 . S
H602 C609 0.950 . S
C603 C601 1.387 . S
C603 C605 1.390 . S
C603 H607 0.950 . S
H604 C600 0.950 . S
C605 C603 1.390 . S
C605 C606 1.387 . S
C605 H608 0.950 . S
C606 C605 1.387 . S
C606 C609 1.387 . S
H607 C603 0.950 . S
H608 C605 0.950 . S
C609 C600 1.390 . S
C609 H602 0.950 . S
C609 C606 1.387 . S
C610 C611 1.387 . S
C610 H614 0.950 . S
C610 C619 1.390 . S
C611 C610 1.387 . S
C611 C613 1.387 . S
H612 C619 0.950 . S
C613 C611 1.387 . S
C613 C615 1.390 . S
C613 H617 0.950 . S
H614 C610 0.950 . S
C615 C613 1.390 . S
C615 C616 1.387 . S
C615 H618 0.950 1_565 S
C616 C615 1.387 . S
C616 C619 1.387 . S
H617 C613 0.950 . S
H618 C615 0.950 1_545 S
C619 C610 1.390 . S
C619 H612 0.950 . S
C619 C616 1.387 . S
C620 C621 1.387 . S
C620 H624 0.950 . S
C620 C629 1.390 . S
C621 C620 1.387 . S
C621 C623 1.387 . S
H622 C629 0.950 . S
C623 C621 1.387 . S
C623 C625 1.390 . S
C623 H627 0.950 . S
H624 C620 0.950 . S
C625 C623 1.390 . S
C625 C626 1.387 . S
C625 H628 0.950 . S
C626 C625 1.387 . S
C626 C629 1.387 . S
H627 C623 0.950 . S
H628 C625 0.950 . S
C629 C620 1.390 . S
C629 H622 0.950 . S
C629 C626 1.387 . S
C630 C631 1.387 . S
C630 H634 0.950 . S
C630 C639 1.390 1_554 S
C631 C630 1.387 . S
C631 C633 1.387 1_554 S
H632 C639 0.950 1_565 S
C633 C631 1.387 1_556 S
C633 C635 1.390 . S
C633 H637 0.947 1_556 S
H634 C630 0.950 . S
C635 C633 1.390 . S
C635 C636 1.387 . S
C635 H638 0.950 . S
C636 C635 1.387 . S
C636 C639 1.387 . S
H637 C633 0.947 1_554 S
H638 C635 0.950 . S
C639 C630 1.390 1_556 S
C639 H632 0.950 1_545 S
C639 C636 1.387 . S
C640 C641 1.387 . S
C640 H644 0.950 . S
C640 C649 1.390 . S
C641 C640 1.387 . S
C641 C643 1.387 . S
H642 C649 0.950 . S
C643 C641 1.387 . S
C643 C645 1.390 . S
C643 H647 0.950 . S
H644 C640 0.950 . S
C645 C643 1.390 . S
C645 C646 1.387 . S
C645 H648 0.950 . S
C646 C645 1.387 . S
C646 C649 1.387 . S
H647 C643 0.950 . S
H648 C645 0.950 . S
C649 C640 1.390 . S
C649 H642 0.950 . S
C649 C646 1.387 . S
C650 C651 1.387 . S
C650 H654 0.950 . S
C650 C659 1.390 1_554 S
C651 C650 1.387 . S
C651 C653 1.387 . S
H652 C659 0.950 . S
C653 C651 1.387 . S
C653 C655 1.390 1_554 S
C653 H657 0.950 . S
H654 C650 0.950 . S
C655 C653 1.390 1_556 S
C655 C656 1.387 . S
C655 H658 0.950 . S
C656 C655 1.387 . S
C656 C659 1.387 . S
H657 C653 0.950 . S
H658 C655 0.950 . S
C659 C650 1.390 1_556 S
C659 H652 0.950 . S
C659 C656 1.387 . S
C660 C661 1.387 . S
C660 H664 0.950 . S
C660 C669 1.390 . S
C661 C660 1.387 . S
C661 C663 1.387 . S
H662 C669 0.950 . S
C663 C661 1.387 . S
C663 C665 1.390 . S
C663 H667 0.950 . S
H664 C660 0.950 . S
C665 C663 1.390 . S
C665 C666 1.387 . S
C665 H668 0.950 . S
C666 C665 1.387 . S
C666 C669 1.387 . S
H667 C663 0.950 . S
H668 C665 0.950 . S
C669 C660 1.390 . S
C669 H662 0.950 . S
C669 C666 1.387 . S
C670 C671 1.387 . S
C670 H674 0.950 . S
C670 C679 1.390 . S
C671 C670 1.387 . S
C671 C673 1.387 . S
H672 C679 0.950 . S
C673 C671 1.387 . S
C673 C675 1.390 . S
C673 H677 0.950 . S
H674 C670 0.950 . S
C675 C673 1.390 . S
C675 C676 1.387 . S
C675 H678 0.950 . S
C676 C675 1.387 . S
C676 C679 1.387 . S
H677 C673 0.950 . S
H678 C675 0.950 . S
C679 C670 1.390 . S
C679 H672 0.950 . S
C679 C676 1.387 . S
C680 C681 1.387 . S
C680 H684 0.950 . S
C680 C689 1.390 . S
C681 C680 1.387 . S
C681 C683 1.387 . S
H682 C689 0.950 . S
C683 C681 1.387 . S
C683 C685 1.390 . S
C683 H687 0.950 . S
H684 C680 0.950 . S
C685 C683 1.390 . S
C685 C686 1.387 . S
C685 H688 0.950 . S
C686 C685 1.387 . S
C686 C689 1.387 . S
H687 C683 0.950 . S
H688 C685 0.950 . S
C689 C680 1.390 . S
C689 H682 0.950 . S
C689 C686 1.387 . S
C690 C691 1.387 . S
C690 H694 0.950 . S
C690 C699 1.390 1_545 S
C691 C690 1.387 . S
C691 C693 1.387 1_545 S
H692 C699 0.950 . S
C693 C691 1.387 1_565 S
C693 C695 1.390 . S
C693 H697 0.950 . S
H694 C690 0.950 . S
C695 C693 1.390 . S
C695 C696 1.387 . S
C695 H698 0.950 . S
C696 C695 1.387 . S
C696 C699 1.387 . S
H697 C693 0.950 . S
H698 C695 0.950 . S
C699 C690 1.390 1_565 S
C699 H692 0.950 . S
C699 C696 1.387 . S
C700 C701 1.387 . S
C700 H704 0.950 . S
C700 C709 1.390 . S
C701 C700 1.387 . S
C701 C703 1.387 . S
H702 C709 0.950 . S
C703 C701 1.387 . S
C703 C705 1.390 . S
C703 H707 0.950 . S
H704 C700 0.950 . S
C705 C703 1.390 . S
C705 C706 1.387 . S
C705 H708 0.950 . S
C706 C705 1.387 . S
C706 C709 1.387 . S
H707 C703 0.950 . S
H708 C705 0.950 . S
C709 C700 1.390 . S
C709 H702 0.950 . S
C709 C706 1.387 . S
C710 C711 1.387 . S
C710 H714 0.950 . S
C710 C719 1.390 . S
C711 C710 1.387 . S
C711 C713 1.387 . S
H712 C719 0.950 . S
C713 C711 1.387 . S
C713 C715 1.390 1_545 S
C713 H717 0.950 . S
H714 C710 0.950 . S
C715 C713 1.390 1_565 S
C715 C716 1.387 . S
C715 H718 0.950 . S
C716 C715 1.387 . S
C716 C719 1.387 1_565 S
H717 C713 0.950 . S
H718 C715 0.950 . S
C719 C710 1.390 . S
C719 H712 0.950 . S
C719 C716 1.387 1_545 S
C720 C721 1.387 . S
C720 H724 0.950 . S
C720 C729 1.390 . S
C721 C720 1.387 . S
C721 C723 1.387 . S
H722 C729 0.950 . S
C723 C721 1.387 . S
C723 C725 1.390 . S
C723 H727 0.950 . S
H724 C720 0.950 . S
C725 C723 1.390 . S
C725 C726 1.387 . S
C725 H728 0.950 . S
C726 C725 1.387 . S
C726 C729 1.387 . S
H727 C723 0.950 . S
H728 C725 0.950 . S
C729 C720 1.390 . S
C729 H722 0.950 . S
C729 C726 1.387 . S
C730 C731 1.387 . S
C730 H734 0.950 . S
C730 C739 1.390 . S
C731 C730 1.387 . S
C731 C733 1.387 . S
H732 C739 0.950 . S
C733 C731 1.387 . S
C733 C735 1.390 . S
C733 H737 0.950 . S
H734 C730 0.950 . S
C735 C733 1.390 . S
C735 C736 1.387 . S
C735 H738 0.950 . S
C736 C735 1.387 . S
C736 C739 1.387 . S
H737 C733 0.950 . S
H738 C735 0.950 . S
C739 C730 1.390 . S
C739 H732 0.950 . S
C739 C736 1.387 . S
C740 C741 1.387 . S
C740 H744 0.950 . S
C740 C749 1.390 . S
C741 C740 1.387 . S
C741 C743 1.387 . S
H742 C749 0.950 . S
C743 C741 1.387 . S
C743 C745 1.390 . S
C743 H747 0.950 . S
H744 C740 0.950 . S
C745 C743 1.390 . S
C745 C746 1.387 . S
C745 H748 0.950 . S
C746 C745 1.387 . S
C746 C749 1.387 . S
H747 C743 0.950 . S
H748 C745 0.950 . S
C749 C740 1.390 . S
C749 H742 0.950 . S
C749 C746 1.387 . S
C750 C751 1.387 . S
C750 H754 0.950 . S
C750 C759 1.390 . S
C751 C750 1.387 . S
C751 C753 1.387 . S
H752 C759 0.950 . S
C753 C751 1.387 . S
C753 C755 1.390 . S
C753 H757 0.950 . S
H754 C750 0.950 . S
C755 C753 1.390 . S
C755 C756 1.387 . S
C755 H758 0.950 . S
C756 C755 1.387 . S
C756 C759 1.387 . S
H757 C753 0.950 . S
H758 C755 0.950 . S
C759 C750 1.390 . S
C759 H752 0.950 . S
C759 C756 1.387 . S
C760 C761 1.387 . S
C760 H764 0.950 . S
C760 C769 1.390 . S
C761 C760 1.387 . S
C761 C763 1.387 . S
H762 C769 0.950 . S
C763 C761 1.387 . S
C763 C765 1.390 . S
C763 H767 0.950 . S
H764 C760 0.950 . S
C765 C763 1.390 . S
C765 C766 1.387 . S
C765 H768 0.950 . S
C766 C765 1.387 . S
C766 C769 1.387 . S
H767 C763 0.950 . S
H768 C765 0.950 . S
C769 C760 1.390 . S
C769 H762 0.950 . S
C769 C766 1.387 . S
C770 C771 1.387 . S
C770 H774 0.950 . S
C770 C779 1.390 . S
C771 C770 1.387 . S
C771 C773 1.387 . S
H772 C779 0.950 . S
C773 C771 1.387 . S
C773 C775 1.390 . S
C773 H777 0.950 . S
H774 C770 0.950 . S
C775 C773 1.390 . S
C775 C776 1.387 . S
C775 H778 0.950 . S
C776 C775 1.387 . S
C776 C779 1.387 . S
H777 C773 0.950 . S
H778 C775 0.950 . S
C779 C770 1.390 . S
C779 H772 0.950 . S
C779 C776 1.387 . S
C780 C781 1.387 . S
C780 H784 0.950 . S
C780 C789 1.390 1_455 S
C781 C780 1.387 . S
C781 C783 1.387 . S
H782 C789 0.950 . S
C783 C781 1.387 . S
C783 C785 1.390 1_455 S
C783 H787 0.950 . S
H784 C780 0.950 . S
C785 C783 1.390 1_655 S
C785 C786 1.387 . S
C785 H788 0.950 . S
C786 C785 1.387 . S
C786 C789 1.387 . S
H787 C783 0.950 . S
H788 C785 0.950 . S
C789 C780 1.390 1_655 S
C789 H782 0.950 . S
C789 C786 1.387 . S
C790 C791 1.387 . S
C790 H794 0.950 . S
C790 C799 1.390 . S
C791 C790 1.387 . S
C791 C793 1.387 . S
H792 C799 0.950 . S
C793 C791 1.387 . S
C793 C795 1.390 . S
C793 H797 0.950 . S
H794 C790 0.950 . S
C795 C793 1.390 . S
C795 C796 1.387 . S
C795 H798 0.950 . S
C796 C795 1.387 . S
C796 C799 1.387 . S
H797 C793 0.950 . S
H798 C795 0.950 . S
C799 C790 1.390 . S
C799 H792 0.950 . S
C799 C796 1.387 . S
C800 C801 1.387 . S
C800 H804 0.950 . S
C800 C809 1.390 . S
C801 C800 1.387 . S
C801 C803 1.387 . S
H802 C809 0.950 . S
C803 C801 1.387 . S
C803 C805 1.390 . S
C803 H807 0.950 . S
H804 C800 0.950 . S
C805 C803 1.390 . S
C805 C806 1.387 . S
C805 H808 0.950 . S
C806 C805 1.387 . S
C806 C809 1.387 . S
H807 C803 0.950 . S
H808 C805 0.950 . S
C809 C800 1.390 . S
C809 H802 0.950 . S
C809 C806 1.387 . S
C810 C811 1.387 . S
C810 H814 0.950 . S
C810 C819 1.390 . S
C811 C810 1.387 . S
C811 C813 1.387 . S
H812 C819 0.950 . S
C813 C811 1.387 . S
C813 C815 1.390 . S
C813 H817 0.950 . S
H814 C810 0.950 . S
C815 C813 1.390 . S
C815 C816 1.387 . S
C815 H818 0.950 . S
C816 C815 1.387 . S
C816 C819 1.387 . S
H817 C813 0.950 . S
H818 C815 0.950 . S
C819 C810 1.390 . S
C819 H812 0.950 . S
C819 C816 1.387 . S
C820 C821 1.387 . S
C820 H824 0.950 . S
C820 C829 1.390 . S
C821 C820 1.387 . S
C821 C823 1.387 . S
H822 C829 0.950 . S
C823 C821 1.387 . S
C823 C825 1.390 . S
C823 H827 0.950 . S
H824 C820 0.950 . S
C825 C823 1.390 . S
C825 C826 1.387 . S
C825 H828 0.950 . S
C826 C825 1.387 . S
C826 C829 1.387 . S
H827 C823 0.950 . S
H828 C825 0.950 . S
C829 C820 1.390 . S
C829 H822 0.950 . S
C829 C826 1.387 . S
C830 C831 1.387 . S
C830 H834 0.950 . S
C830 C839 1.390 . S
C831 C830 1.387 . S
C831 C833 1.387 . S
H832 C839 0.944 1_455 S
C833 C831 1.387 . S
C833 C835 1.390 . S
C833 H837 0.950 . S
H834 C830 0.950 . S
C835 C833 1.390 . S
C835 C836 1.387 1_655 S
C835 H838 0.950 . S
C836 C835 1.387 1_455 S
C836 C839 1.387 1_455 S
H837 C833 0.950 . S
H838 C835 0.950 . S
C839 C830 1.390 . S
C839 H832 0.944 1_655 S
C839 C836 1.387 1_655 S
C481 C12 1.546 . S
C486 C452 1.558 . S
C491 C372 1.931 . S
C496 C42 1.981 . S
C501 C92 1.705 . S
C506 C332 1.741 . S
C511 C122 2.055 . S
C516 C402 2.059 . S
C521 C162 1.931 . S
C526 C412 1.871 . S
C531 C212 1.536 . S
C536 C442 1.568 . S
C541 C362 2.130 . S
C546 C242 2.129 . S
C551 C292 1.484 . S
C556 C322 1.528 . S
C561 C132 1.679 . S
C566 C172 1.663 . S
C571 C2 1.877 . S
C576 C202 1.872 . S
C581 C52 1.836 . S
C586 C252 1.839 . S
C591 C282 1.998 . S
C596 C82 2.000 . S
C601 C29 2.188 . S
C606 C351 2.286 . S
C611 C48 1.324 . S
C616 C417 1.283 . S
C621 C471 2.158 . S
C626 C109 2.065 . S
C631 C128 1.496 . S
C636 C391 1.472 . S
C641 C168 1.401 . S
C646 C377 1.331 . S
C651 C337 2.118 . S
C656 C229 2.139 . S
C661 C431 1.497 . S
C666 C248 1.523 . S
C671 C457 2.095 . S
C676 C309 2.104 . S
C681 C17 1.598 . S
C686 C149 1.625 . S
C691 C8 1.540 . S
C696 C71 1.486 . S
C701 C69 1.315 . S
C706 C97 1.304 . S
C711 C151 1.478 . S
C716 C88 1.518 . S
C721 C208 1.669 . S
C726 C191 1.629 . S
C731 C217 2.373 . S
C736 C269 2.384 . S
C741 C271 1.582 . S
C746 C288 1.616 . S
C751 C189 2.269 . S
C756 C297 2.272 . S
C761 C328 1.575 . S
C766 C137 1.460 . S
C771 C231 2.144 . S
C776 C389 2.045 . S
C781 C349 1.741 . S
C786 C257 1.713 . S
C791 C408 1.670 . S
C796 C311 1.641 . S
C801 C177 1.668 . S
C806 C469 1.690 . S
C811 C448 1.483 . S
C816 C57 1.372 . S
C821 C111 1.665 . S
C826 C368 1.705 . S
C831 C429 2.145 . S
C836 C31 2.228 . S
