# Generated by pormake.
# Topology rkf, (6)-cn, num edge types: 1
# Building blocks:
#     Node 0, Type 0, BuildingBlock: BETGAK_clean_sbu_0, # of connection points: 6
#     Node 1, Type 0, BuildingBlock: BETGAK_clean_sbu_0, # of connection points: 6
#     Node 2, Type 0, BuildingBlock: BETGAK_clean_sbu_0, # of connection points: 6
#     Node 3, Type 0, BuildingBlock: BETGAK_clean_sbu_0, # of connection points: 6
#     Node 4, Type 0, BuildingBlock: BETGAK_clean_sbu_0, # of connection points: 6
#     Node 5, Type 0, BuildingBlock: BETGAK_clean_sbu_0, # of connection points: 6
#     Edge 6, Type (0, 0), BuildingBlock: FUNLAD_clean_linker_0, # of connection points: 2
#     Edge 7, Type (0, 0), BuildingBlock: FUNLAD_clean_linker_0, # of connection points: 2
#     Edge 8, Type (0, 0), BuildingBlock: FUNLAD_clean_linker_0, # of connection points: 2
#     Edge 9, Type (0, 0), BuildingBlock: FUNLAD_clean_linker_0, # of connection points: 2
#     Edge 10, Type (0, 0), BuildingBlock: FUNLAD_clean_linker_0, # of connection points: 2
#     Edge 11, Type (0, 0), BuildingBlock: FUNLAD_clean_linker_0, # of connection points: 2
#     Edge 12, Type (0, 0), BuildingBlock: FUNLAD_clean_linker_0, # of connection points: 2
#     Edge 13, Type (0, 0), BuildingBlock: FUNLAD_clean_linker_0, # of connection points: 2
#     Edge 14, Type (0, 0), BuildingBlock: FUNLAD_clean_linker_0, # of connection points: 2
#     Edge 15, Type (0, 0), BuildingBlock: FUNLAD_clean_linker_0, # of connection points: 2
#     Edge 16, Type (0, 0), BuildingBlock: FUNLAD_clean_linker_0, # of connection points: 2
#     Edge 17, Type (0, 0), BuildingBlock: FUNLAD_clean_linker_0, # of connection points: 2
#     Edge 18, Type (0, 0), BuildingBlock: FUNLAD_clean_linker_0, # of connection points: 2
#     Edge 19, Type (0, 0), BuildingBlock: FUNLAD_clean_linker_0, # of connection points: 2
#     Edge 20, Type (0, 0), BuildingBlock: FUNLAD_clean_linker_0, # of connection points: 2
#     Edge 21, Type (0, 0), BuildingBlock: FUNLAD_clean_linker_0, # of connection points: 2
#     Edge 22, Type (0, 0), BuildingBlock: FUNLAD_clean_linker_0, # of connection points: 2
#     Edge 23, Type (0, 0), BuildingBlock: FUNLAD_clean_linker_0, # of connection points: 2
# Relax obj value: 0.623
# Max RMSD: 0.251
# Mean RMSD: 0.251
data_MOF--net-rkf--node1-BETGAK_clean_sbu_0--edge1-FUNLAD_clean_linker_0
_symmetry_space_group_name_H-M    P1
_symmetry_Int_Tables_number       1
_symmetry_cell_setting            triclinic
loop_
_symmetry_equiv_pos_as_xyz
'x, y, z'
_cell_length_a     29.246219
_cell_length_b     29.167809
_cell_length_c     51.643876
_cell_angle_alpha  90.763049
_cell_angle_beta   89.1718
_cell_angle_gamma 120.75517
loop_
_atom_site_label
_atom_site_type_symbol
_atom_site_fract_x
_atom_site_fract_y
_atom_site_fract_z
_atom_type_partial_charge
La0 La 0.24781 0.00829 0.14893 0.0
La1 La 0.31229 0.12508 0.13721 0.0
C2 C 0.21794 0.91448 0.16266 0.0
C3 C 0.22085 0.88692 0.18554 0.0
C4 C 0.22721 0.90935 0.21033 0.0
C5 C 0.22795 0.88154 0.23194 0.0
C6 C 0.22258 0.8309 0.22911 0.0
C7 C 0.2178 0.80938 0.2041 0.0
C8 C 0.21697 0.83725 0.18249 0.0
C9 C 0.19248 0.05323 0.13676 0.0
C10 C 0.28616 0.09444 0.19588 0.0
C11 C 0.35638 0.22191 1.12498 0.0
C12 C 0.36154 0.25892 1.10486 0.0
C13 C 0.39881 0.31312 1.10845 0.0
C14 C 0.40511 0.35015 1.0899 0.0
C15 C 0.37422 0.3334 1.0674 0.0
C16 C 0.3367 0.27879 1.06383 0.0
C17 C 0.33028 0.24166 1.08254 0.0
C18 C 0.36694 0.07949 0.15009 0.0
C19 C 0.26025 0.04036 1.09015 0.0
O20 O 0.1882 0.93604 0.16474 0.0
O21 O 0.26333 0.94577 0.15096 0.0
O22 O 0.17823 0.00432 0.13086 0.0
O23 O 0.23376 0.07261 0.15018 0.0
O24 O 0.27075 0.04451 0.18861 0.0
O25 O 0.29868 0.13182 0.17836 0.0
O26 O 0.37689 0.19203 1.11996 0.0
O27 O 0.31038 0.19588 0.13691 0.0
O28 O 0.37842 0.12674 0.15723 0.0
O29 O 0.32703 0.06019 0.13562 0.0
O30 O 0.28012 0.0907 1.09816 0.0
O31 O 0.25104 0.00224 1.10678 0.0
H32 H 0.23045 0.94778 0.21303 0.0
H33 H 0.23074 0.89892 0.25094 0.0
H34 H 0.21409 0.77076 0.20125 0.0
H35 H 0.21256 0.81967 0.16339 0.0
H36 H 0.42319 0.32686 1.12566 0.0
H37 H 0.43466 0.3918 1.09299 0.0
H38 H 0.31202 0.26496 1.04675 0.0
H39 H 0.3011 0.1998 1.07966 0.0
La40 La 0.3321 0.28666 0.48173 0.0
La41 La 0.24202 0.30393 0.46757 0.0
C42 C 0.42215 0.30531 0.49606 0.0
C43 C 0.44679 0.2996 0.51933 0.0
C44 C 0.42374 0.295 0.54384 0.0
C45 C 0.44566 0.28563 0.56552 0.0
C46 C 0.49074 0.28033 0.56298 0.0
C47 C 0.5143 0.28607 0.53843 0.0
C48 C 0.49249 0.29576 0.51677 0.0
C49 C 0.24068 0.19751 0.47568 0.0
C50 C 0.259 0.29543 0.52706 0.0
C51 C 0.16038 0.30364 0.45215 0.0
C52 C 0.1461 0.33284 0.43399 0.0
C53 C 0.1232 0.3618 0.44371 0.0
C54 C 0.10582 0.38675 0.42689 0.0
C55 C 0.11062 0.3829 0.39994 0.0
C56 C 0.1347 0.35485 0.39027 0.0
C57 C 0.15231 0.33013 0.4071 0.0
C58 C 0.33812 0.39109 0.47013 0.0
C59 C 0.29659 0.27045 0.42274 0.0
O60 O 0.38649 0.26058 0.48521 0.0
O61 O 0.40708 0.34059 0.49712 0.0
O62 O 0.28672 0.20097 0.47491 0.0
O63 O 0.24762 0.24118 0.4846 0.0
O64 O 0.30581 0.3005 0.52063 0.0
O65 O 0.22391 0.2867 0.50885 0.0
O66 O 0.18782 0.3304 0.47238 0.0
O67 O 0.17713 0.2732 0.44234 0.0
O68 O 0.29441 0.3898 0.47577 0.0
O69 O 0.32649 0.34621 0.46142 0.0
O70 O 0.25557 0.27509 0.43035 0.0
O71 O 0.3358 0.28065 0.43897 0.0
H72 H 0.38813 0.29738 0.54612 0.0
H73 H 0.42604 0.28044 0.58411 0.0
H74 H 0.54912 0.28237 0.53593 0.0
H75 H 0.51064 0.29912 0.49791 0.0
H76 H 0.11788 0.36435 0.46438 0.0
H77 H 0.08802 0.4085 0.43499 0.0
H78 H 0.13822 0.35027 0.36962 0.0
H79 H 0.16963 0.30793 0.39898 0.0
La80 La 0.11294 0.33371 0.81226 0.0
La81 La -0.00216 0.25911 0.79958 0.0
C82 C 0.19847 0.41401 0.82704 0.0
C83 C 0.22063 0.44321 0.85124 0.0
C84 C 0.19765 0.41997 0.87508 0.0
C85 C 0.22169 0.44618 0.89809 0.0
C86 C 0.26924 0.49607 0.89762 0.0
C87 C 0.2906 0.5204 0.87363 0.0
C88 C 0.26636 0.49408 0.85058 0.0
C89 C 0.0865 0.23438 0.80241 0.0
C90 C 0.02793 0.27189 0.85835 0.0
C91 C 0.90738 0.1873 0.78429 0.0
C92 C 0.86662 0.18002 0.76554 0.0
C93 C 0.81584 0.16668 0.77461 0.0
C94 C 0.77492 0.1545 0.75724 0.0
C95 C 0.78393 0.15501 0.73042 0.0
C96 C 0.83546 0.17041 0.72138 0.0
C97 C 0.87641 0.18284 0.73875 0.0
C98 C 0.02639 0.36061 0.80553 0.0
C99 C 0.08593 0.30498 0.75316 0.0
O100 O 0.1906 0.36558 0.82588 0.0
O101 O 0.1584 0.41656 0.81781 0.0
O102 O 0.13309 0.27553 0.79745 0.0
O103 O 0.05958 0.25018 0.81469 0.0
O104 O 0.07321 0.31564 0.85134 0.0
O105 O -0.00364 0.23816 0.84034 0.0
O106 O 0.91477 0.21905 0.8039 0.0
O107 O 0.95222 0.19377 0.7751 0.0
O108 O -0.01992 0.32099 0.81148 0.0
O109 O 0.05261 0.34254 0.79479 0.0
O110 O 0.03613 0.2705 0.76074 0.0
O111 O 0.12201 0.33839 0.76993 0.0
H112 H 0.16238 0.38069 0.87591 0.0
H113 H 0.20469 0.42578 0.91618 0.0
H114 H 0.32699 0.55889 0.87268 0.0
H115 H 0.28424 0.51269 0.83224 0.0
H116 H 0.80738 0.16426 0.79521 0.0
H117 H 0.7359 0.14334 0.76483 0.0
H118 H 0.84368 0.17033 0.70087 0.0
H119 H 0.91515 0.19295 0.73114 0.0
La120 La 0.87542 0.1421 0.14925 0.0
La121 La 0.85364 0.0333 0.13545 0.0
C122 C 0.86808 0.22406 0.15536 0.0
C123 C 0.85888 0.24955 0.17785 0.0
C124 C 0.84611 0.22425 0.20194 0.0
C125 C 0.84848 0.25256 0.22435 0.0
C126 C 0.86356 0.30674 0.22306 0.0
C127 C 0.87218 0.33058 0.19856 0.0
C128 C 0.87015 0.30221 0.17613 0.0
C129 C 0.96215 0.13582 0.14542 0.0
C130 C 0.86782 0.06958 0.19514 0.0
C131 C 0.84873 0.94462 0.13177 0.0
C132 C 0.8278 0.89867 1.11408 0.0
C133 C 0.80912 0.84785 1.12438 0.0
C134 C 0.7891 0.80324 1.10811 0.0
C135 C 0.78759 0.80876 1.08119 0.0
C136 C 0.8056 0.85986 1.07099 0.0
C137 C 0.82536 0.90445 1.08732 0.0
C138 C 0.76983 0.04434 0.13756 0.0
C139 C 0.8751 0.1092 1.08829 0.0
O140 O 0.9129 0.22438 0.15594 0.0
O141 O 0.82831 0.17753 0.14825 0.0
O142 O 0.95539 0.16586 0.16197 0.0
O143 O 0.92083 0.11165 0.13193 0.0
O144 O 0.86019 0.10902 0.18861 0.0
O145 O 0.87574 0.04187 0.17687 0.0
O146 O 0.81296 0.95154 0.14364 0.0
O147 O 0.88939 -0.01037 1.12366 0.0
O148 O 0.77568 0.01432 1.12072 0.0
O149 O 0.8086 0.06435 0.15271 0.0
O150 O 0.86945 0.06307 1.09563 0.0
O151 O 0.8748 0.14325 1.1058 0.0
H152 H 0.83746 0.18361 0.20362 0.0
H153 H 0.84226 0.23289 0.2428 0.0
H154 H 0.88303 0.3719 0.19682 0.0
H155 H 0.88009 0.32228 0.15761 0.0
H156 H 0.81019 0.8427 0.14506 0.0
H157 H 0.7749 0.76446 1.11662 0.0
H158 H 0.80573 0.86568 1.05032 0.0
H159 H 0.8392 0.94339 1.07905 0.0
La160 La 0.8111 0.88119 0.48132 0.0
La161 La 0.90037 0.86239 0.46658 0.0
C162 C 0.72099 0.86385 0.49594 0.0
C163 C 0.69575 0.87111 0.51906 0.0
C164 C 0.71948 0.88003 0.54341 0.0
C165 C 0.69682 0.89096 0.56482 0.0
C166 C 0.65029 0.89347 0.56215 0.0
C167 C 0.62608 0.8833 0.53779 0.0
C168 C 0.64865 0.87211 0.51642 0.0
C169 C 0.90284 0.96974 0.47441 0.0
C170 C 0.88456 0.87567 0.52611 0.0
C171 C -0.01895 0.85951 0.45114 0.0
C172 C -0.00763 0.82324 0.43593 0.0
C173 C 0.01667 0.79839 0.44802 0.0
C174 C 0.0301 0.7658 0.43382 0.0
C175 C 0.01989 0.75778 0.40714 0.0
C176 C -0.0055 0.78186 0.39519 0.0
C177 C -0.01921 0.81416 0.40942 0.0
C178 C 0.804 0.77562 0.47006 0.0
C179 C 0.84852 0.89626 0.42221 0.0
O180 O 0.75696 0.90783 0.48474 0.0
O181 O 0.73592 0.82858 0.49738 0.0
O182 O 0.85696 0.96656 0.4738 0.0
O183 O 0.89551 0.92645 0.48345 0.0
O184 O 0.83725 0.86938 0.52031 0.0
O185 O 0.91923 0.8839 0.50733 0.0
O186 O 0.95789 0.84163 0.47357 0.0
O187 O 0.96142 0.88457 0.43894 0.0
O188 O 0.84759 0.77701 0.4754 0.0
O189 O 0.8159 0.82004 0.46112 0.0
O190 O 0.88977 0.89293 0.42993 0.0
O191 O 0.80822 0.88522 0.4384 0.0
H192 H 0.75614 0.87983 0.54573 0.0
H193 H 0.7169 0.89951 0.58325 0.0
H194 H 0.59013 0.88471 0.5352 0.0
H195 H 0.62996 0.86537 0.49768 0.0
H196 H 0.02598 0.80479 0.46846 0.0
H197 H 0.04917 0.74754 0.44366 0.0
H198 H -0.01301 0.77749 0.37457 0.0
H199 H 0.96215 0.83281 0.39952 0.0
La200 La 0.01223 0.83888 0.81714 0.0
La201 La 0.12119 0.91788 0.79819 0.0
C202 C 0.9269 0.75263 0.82626 0.0
C203 C 0.90163 0.71666 0.84838 0.0
C204 C 0.85131 0.70583 0.85675 0.0
C205 C 0.82911 0.67809 0.87967 0.0
C206 C 0.85663 0.66011 0.89462 0.0
C207 C 0.90545 0.66775 0.8852 0.0
C208 C 0.9279 0.69603 0.86234 0.0
C209 C 0.02738 0.93564 0.811 0.0
C210 C 0.09428 0.91021 0.85897 0.0
C211 C 0.21446 -0.00608 0.7901 0.0
C212 C 0.25743 0.0072 0.77116 0.0
C213 C 0.30881 0.02443 0.78013 0.0
C214 C 0.35064 0.03797 0.76266 0.0
C215 C 0.34189 0.03486 0.73583 0.0
C216 C 0.28996 0.01644 0.72694 0.0
C217 C 0.24807 0.0025 0.74442 0.0
C218 C 0.09919 0.81872 0.8008 0.0
C219 C 0.03455 0.86287 0.75484 0.0
O220 O 0.93237 0.79983 0.82895 0.0
O221 O 0.96911 0.75502 0.81572 0.0
O222 O -0.00298 0.90232 0.82874 0.0
O223 O 0.04641 0.91279 0.79785 0.0
O224 O 0.05217 0.86209 0.8549 0.0
O225 O 0.12007 0.9416 0.83902 0.0
O226 O 0.20287 0.95367 0.80514 0.0
O227 O 0.17184 -0.00667 0.78205 0.0
O228 O 0.12723 0.85104 0.7824 0.0
O229 O 0.08647 0.84275 0.81707 0.0
O230 O 0.0835 0.90251 0.76004 0.0
O231 O 0.00278 0.83161 0.77389 0.0
H232 H 0.83024 0.72115 0.84619 0.0
H233 H 0.79188 0.6738 0.88639 0.0
H234 H 0.92729 0.65366 0.89599 0.0
H235 H 0.96652 0.70327 0.85618 0.0
H236 H 0.31667 0.02775 0.80072 0.0
H237 H 0.3899 0.0513 0.77018 0.0
H238 H 0.28184 0.0144 0.70643 0.0
H239 H 0.20864 0.98879 0.73701 0.0
C240 C 0.01891 0.12229 1.11395 0.0
C241 C 0.01406 0.15491 0.13265 0.0
C242 C 0.0617 0.14377 1.09659 0.0
C243 C 0.10043 0.1983 1.09763 0.0
C244 C 0.09687 0.2306 1.1169 0.0
C245 C 0.05431 0.20894 0.13454 0.0
C246 C 0.14338 0.22183 1.07785 0.0
C247 C 0.17498 0.20192 1.0725 0.0
C248 C 0.17617 0.16191 1.08919 0.0
C249 C 0.16346 0.11191 1.07919 0.0
C250 C 0.16411 0.0741 1.09532 0.0
C251 C 0.1796 0.08693 1.12129 0.0
H252 H 0.199 0.21214 1.12346 0.0
C253 C 0.19085 0.13644 0.13135 0.0
C254 C 0.1891 0.17366 1.11544 0.0
H255 H 0.20287 0.14707 0.15132 0.0
H256 H -0.01205 0.08084 1.11178 0.0
H257 H 0.06326 0.11825 1.0816 0.0
H258 H 0.12641 0.27274 1.11796 0.0
H259 H 0.05112 0.23529 0.14846 0.0
H260 H 0.14824 0.25536 1.0667 0.0
H261 H 0.20246 0.21755 1.05619 0.0
H262 H 0.15299 0.10217 1.05901 0.0
H263 H 0.15527 0.03607 1.08715 0.0
C264 C -0.00924 -0.00105 0.45323 0.0
C265 C 0.94466 0.00218 0.45534 0.0
C266 C 0.02476 0.021 0.43186 0.0
C267 C 0.01359 0.04756 0.41264 0.0
C268 C 0.96841 0.05211 0.41518 0.0
C269 C 0.9346 0.03028 0.43652 0.0
C270 C 0.04751 0.06918 0.38927 0.0
C271 C 0.10087 0.09906 0.38964 0.0
C272 C 0.13288 0.11924 0.41349 0.0
C273 C 0.17931 0.11693 0.41531 0.0
C274 C 0.21212 0.13865 0.43677 0.0
C275 C 0.19981 0.16447 0.45649 0.0
H276 H 0.0843 0.14663 0.43248 0.0
C277 C 0.15219 0.16482 0.45527 0.0
C278 C 0.11928 0.14307 0.43372 0.0
H279 H 0.14188 0.18435 0.47028 0.0
H280 H -0.00084 0.97731 0.46744 0.0
H281 H 0.05888 0.01598 0.43001 0.0
H282 H 0.95898 0.07209 0.40048 0.0
H283 H 0.89907 0.03305 0.43751 0.0
H284 H 0.02789 0.0602 0.37062 0.0
H285 H 0.12205 0.10927 0.3712 0.0
H286 H 0.1907 0.09912 0.39988 0.0
H287 H 0.24875 0.13789 0.4371 0.0
C288 C 0.95473 0.94763 0.79464 0.0
C289 C 0.00949 0.96631 0.79641 0.0
C290 C 0.93532 0.96329 0.77408 0.0
C291 C 0.97048 -0.00144 0.75544 0.0
C292 C 0.02538 0.01926 0.75792 0.0
C293 C 0.04471 0.00331 0.77827 0.0
C294 C 0.95027 0.0153 0.73364 0.0
C295 C 0.96687 0.06686 0.72946 0.0
C296 C -0.00053 0.10873 0.74858 0.0
C297 C -0.01907 0.10482 0.77417 0.0
C298 C 0.01162 0.14384 0.79241 0.0
C299 C 0.0611 0.18744 0.78529 0.0
H300 H 0.065 0.15416 0.72211 0.0
C301 C 0.08103 0.18973 0.76009 0.0
C302 C 0.04986 0.15106 0.74168 0.0
H303 H 0.11923 0.22301 0.75417 0.0
H304 H 0.92651 0.91787 0.80794 0.0
H305 H 0.8929 0.94736 0.77252 0.0
H306 H 0.05313 0.04647 0.74362 0.0
H307 H 0.08682 0.01703 0.77882 0.0
H308 H 0.92244 0.98514 0.72029 0.0
H309 H 0.95498 0.07805 0.71194 0.0
H310 H 0.94205 0.07228 0.77984 0.0
H311 H -0.00457 0.14147 0.81168 0.0
C312 C 0.38515 0.36277 1.02138 0.0
C313 C 0.38155 0.37298 1.04771 0.0
C314 C 0.39138 0.39976 1.00277 0.0
C315 C 0.39333 0.44727 1.01006 0.0
C316 C 0.39141 0.45835 1.03649 0.0
C317 C 0.38558 0.42146 1.05515 0.0
C318 C 0.39368 0.48201 0.98934 0.0
C319 C 0.36944 0.51065 0.99184 0.0
C320 C 0.35092 0.52553 0.96864 0.0
C321 C 0.299 0.51651 0.96881 0.0
C322 C 0.27354 0.51244 0.94551 0.0
C323 C 0.29993 0.51772 0.92179 0.0
H324 H 0.4206 0.5477 0.94465 0.0
C325 C 0.35435 0.53448 0.92192 0.0
C326 C 0.37978 0.53865 0.94521 0.0
H327 H 0.37603 0.53936 0.904 0.0
H328 H 0.38318 0.32618 1.01518 0.0
H329 H 0.393 0.39039 0.98252 0.0
H330 H 0.39399 0.49512 1.04281 0.0
H331 H 0.3831 0.43038 1.07537 0.0
H332 H 0.40571 0.47601 0.97018 0.0
H333 H 0.35272 0.51265 1.01044 0.0
H334 H 0.27628 0.50728 0.98671 0.0
H335 H 0.23196 0.50091 0.94599 0.0
C336 C 0.03717 0.39854 0.38715 0.0
C337 C 0.08723 0.40445 0.38186 0.0
C338 C 0.01134 0.41111 0.36843 0.0
C339 C 0.03481 0.4292 0.34385 0.0
C340 C 0.08672 0.43939 0.33948 0.0
C341 C 0.11262 0.4271 0.35822 0.0
C342 C 0.00515 0.43201 0.32132 0.0
C343 C 0.9515 0.40543 0.32003 0.0
C344 C 0.92271 0.38925 0.29496 0.0
C345 C 0.87295 0.34188 0.2942 0.0
C346 C 0.85078 0.31721 0.27056 0.0
C347 C 0.87806 0.33944 0.2472 0.0
H348 H -0.0167 0.45305 0.27119 0.0
C349 C 0.92451 0.39017 0.24788 0.0
C350 C 0.94637 0.41511 0.27151 0.0
H351 H 0.94648 0.40895 0.23032 0.0
H352 H 0.01654 0.38149 0.40523 0.0
H353 H 0.97236 0.40464 0.37313 0.0
H354 H 0.1063 0.45414 0.32092 0.0
H355 H 0.15181 0.43358 0.35381 0.0
H356 H 0.02845 0.44885 0.3038 0.0
H357 H 0.9279 0.38622 0.33717 0.0
H358 H 0.85306 0.32164 0.31194 0.0
H359 H 0.81399 0.27901 0.2707 0.0
C360 C 0.69062 0.087 0.71782 0.0
C361 C 0.73904 0.13372 0.71194 0.0
C362 C 0.65319 0.0596 0.69848 0.0
C363 C 0.66398 0.07802 0.67281 0.0
C364 C 0.70918 0.128 0.66772 0.0
C365 C 0.74645 0.15558 0.68708 0.0
C366 C 0.63491 0.04317 0.65041 0.0
C367 C 0.61378 -0.01017 0.65113 0.0
C368 C 0.61057 0.95819 0.62774 0.0
C369 C 0.60661 0.97362 0.60257 0.0
C370 C 0.61639 0.9502 0.58105 0.0
C371 C 0.62995 0.91083 0.58433 0.0
H372 H 0.62151 0.90204 0.64995 0.0
C373 C 0.62887 0.89202 0.60933 0.0
C374 C 0.61896 0.91527 0.6308 0.0
H375 H 0.63798 0.86087 0.61238 0.0
H376 H 0.68322 0.06925 0.73684 0.0
H377 H 0.61754 0.02245 0.70343 0.0
H378 H 0.718 0.14375 0.64823 0.0
H379 H 0.78258 0.1924 0.68215 0.0
H380 H 0.64204 0.06276 0.63182 0.0
H381 H 0.60985 0.97073 0.66958 0.0
H382 H 0.59832 0.00525 0.5994 0.0
H383 H 0.61652 0.96525 0.56197 0.0
C384 C 0.78601 0.72476 1.06813 0.0
C385 C 0.77025 0.76213 1.06361 0.0
C386 C 0.77623 0.68524 1.04977 0.0
C387 C 0.75109 0.68278 1.02634 0.0
C388 C 0.73137 0.7172 1.02288 0.0
C389 C 0.74096 0.75656 1.04126 0.0
C390 C 0.75043 0.65013 1.00386 0.0
C391 C 0.78875 0.63802 0.99984 0.0
C392 C 0.80353 0.62958 0.97338 0.0
C393 C 0.76619 0.60656 0.95336 0.0
C394 C 0.78336 0.61208 0.92758 0.0
C395 C 0.83803 0.64092 0.92142 0.0
H396 H 0.88734 0.67001 0.98252 0.0
C397 C 0.87496 0.65852 0.9417 0.0
C398 C 0.85777 0.65245 0.96741 0.0
H399 H 0.91735 0.681 0.93782 0.0
H400 H 0.80838 0.72763 1.08522 0.0
H401 H 0.79023 0.65813 1.05363 0.0
H402 H 0.71117 0.71574 1.00519 0.0
H403 H 0.72694 0.78376 1.03756 0.0
H404 H 0.72453 0.64577 0.98797 0.0
H405 H 0.81742 0.64618 1.01494 0.0
H406 H 0.72392 0.5868 0.95744 0.0
H407 H 0.75382 0.59643 0.91244 0.0
C408 C 0.01087 0.69783 0.36981 0.0
C409 C 0.03993 0.72887 0.39118 0.0
C410 C 0.03467 0.68091 0.35146 0.0
C411 C 0.088 0.69478 0.35402 0.0
C412 C 0.11471 0.7198 0.37709 0.0
C413 C 0.09103 0.73712 0.39537 0.0
C414 C 0.11602 0.69097 0.33055 0.0
C415 C 0.16847 0.72484 0.32632 0.0
C416 C 0.19062 0.74511 0.30006 0.0
C417 C 0.16484 0.71786 0.27719 0.0
C418 C 0.17781 0.74484 0.25361 0.0
C419 C 0.21725 0.79919 0.2524 0.0
H420 H 0.25551 0.8192 0.31534 0.0
C421 C 0.24728 0.82428 0.27461 0.0
C422 C 0.23416 0.79744 0.29817 0.0
H423 H 0.27905 0.86565 0.27411 0.0
H424 H 0.97073 0.68919 0.36649 0.0
H425 H 0.0126 0.66066 0.33418 0.0
H426 H 0.15491 0.72896 0.38051 0.0
H427 H 0.11439 0.76028 0.41179 0.0
H428 H 0.09074 0.66899 0.31435 0.0
H429 H 0.1935 0.74799 0.34236 0.0
H430 H 0.13271 0.67674 0.27754 0.0
H431 H 0.1543 0.72405 0.23678 0.0
C432 C 0.43548 0.10188 0.72243 0.0
C433 C 0.38705 0.0548 0.71712 0.0
C434 C 0.47399 0.12659 0.703 0.0
C435 C 0.46428 0.10518 0.67774 0.0
C436 C 0.41866 0.05513 0.6733 0.0
C437 C 0.38037 0.03019 0.69277 0.0
C438 C 0.49538 0.13674 0.65489 0.0
C439 C 0.51969 0.19045 0.65448 0.0
C440 C 0.52556 0.22015 0.63034 0.0
C441 C 0.52044 0.2654 0.63219 0.0
C442 C 0.5124 0.2872 0.61007 0.0
C443 C 0.50998 0.26454 0.58562 0.0
H444 H 0.53444 0.16725 0.60339 0.0
C445 C 0.52063 0.22276 0.58347 0.0
C446 C 0.52854 0.20081 0.60565 0.0
H447 H 0.51945 0.20475 0.56483 0.0
H448 H 0.44236 0.12171 0.74106 0.0
H449 H 0.50982 0.16383 0.70757 0.0
H450 H 0.41059 0.03707 0.65418 0.0
H451 H 0.34433 -0.00704 0.68832 0.0
H452 H 0.48775 0.11492 0.63674 0.0
H453 H 0.52453 0.21214 0.67244 0.0
H454 H 0.51876 0.28164 0.65094 0.0
H455 H 0.50557 0.32023 0.61223 0.0
C456 C 0.44889 0.0867 0.16792 0.0
C457 C 0.40575 0.0615 0.15096 0.0
C458 C 0.48973 0.07519 0.16683 0.0
C459 C 0.48879 0.03873 0.14834 0.0
C460 C 0.44398 0.01134 0.13236 0.0
C461 C 0.40278 0.02257 0.13365 0.0
C462 C 0.53388 0.02895 0.14484 0.0
C463 C 0.58382 0.06344 0.15292 0.0
C464 C 0.62977 0.05553 0.14884 0.0
C465 C 0.67276 0.08091 0.16593 0.0
C466 C 0.71787 0.07669 0.16236 0.0
C467 C 0.72154 0.04785 0.14127 0.0
H468 H 0.60148 0.00716 1.11381 0.0
C469 C 0.67873 0.0224 1.12406 0.0
C470 C 0.63316 0.02612 1.1278 0.0
H471 H 0.68062 -3e-05 1.10762 0.0
H472 H 0.45163 0.11623 0.18177 0.0
H473 H 0.52189 0.0954 0.18044 0.0
H474 H 0.44161 0.98243 1.11824 0.0
H475 H 0.36974 0.00234 1.12042 0.0
H476 H 0.5258 -0.00709 0.13453 0.0
H477 H 0.59227 0.09959 0.16317 0.0
H478 H 0.6714 0.10403 0.18222 0.0
H479 H 0.75 0.09625 0.17613 0.0
C480 C 0.43618 0.4378 0.4605 0.0
C481 C 0.39198 0.43934 0.4704 0.0
C482 C 0.48699 0.48371 0.46068 0.0
C483 C 0.49461 0.5323 0.47072 0.0
C484 C 0.45012 0.53373 0.48028 0.0
C485 C 0.39947 0.48778 0.48026 0.0
C486 C 0.54763 0.58265 0.47061 0.0
C487 C 0.5945 0.58403 0.47051 0.0
C488 C 0.6475 0.63441 0.47068 0.0
C489 C 0.69174 0.63312 0.48001 0.0
C490 C 0.74239 0.67908 0.48001 0.0
C491 C 0.75014 0.72737 0.4704 0.0
H492 H 0.62282 0.68535 0.45283 0.0
C493 C 0.70618 0.72878 0.46077 0.0
C494 C 0.65539 0.68287 0.46092 0.0
H495 H 0.71112 0.76529 0.45288 0.0
H496 H 0.43144 0.40118 0.4524 0.0
H497 H 0.51978 0.48111 0.4524 0.0
H498 H 0.45456 0.57056 0.48792 0.0
H499 H 0.3661 0.49026 0.4879 0.0
H500 H 0.54768 0.61986 0.47194 0.0
H501 H 0.5944 0.54684 0.4716 0.0
H502 H 0.68711 0.59639 0.48744 0.0
H503 H 0.77557 0.67672 0.48744 0.0
C504 C 0.00602 0.43196 0.81636 0.0
C505 C 0.03987 0.41671 0.80467 0.0
C506 C 0.01727 0.48456 0.81464 0.0
C507 C 0.06306 0.52321 0.80132 0.0
C508 C 0.09679 0.50764 0.78966 0.0
C509 C 0.08535 0.45499 0.7913 0.0
C510 C 0.07593 0.57932 0.79806 0.0
C511 C 0.05463 0.60254 0.81268 0.0
C512 C 0.0672 0.65841 0.80902 0.0
C513 C 0.05715 0.68418 0.82958 0.0
C514 C 0.06772 0.73636 0.82693 0.0
C515 C 0.08807 0.7637 0.80356 0.0
H516 H 0.0939 0.66712 0.76883 0.0
C517 C 0.09782 0.7381 0.78288 0.0
C518 C 0.08722 0.68587 0.78548 0.0
H519 H 0.11311 0.75826 0.76456 0.0
H520 H 0.97035 0.40302 0.82656 0.0
H521 H -0.01083 0.49401 0.82326 0.0
H522 H 0.132 0.53623 0.77904 0.0
H523 H 0.11166 0.44412 0.78169 0.0
H524 H 0.10563 0.60271 0.78346 0.0
H525 H 0.02842 0.58086 0.82875 0.0
H526 H 0.04136 0.66402 0.84786 0.0
H527 H 0.0603 0.75547 0.84324 0.0
C528 C 0.29535 0.15995 0.23113 0.0
C529 C 0.28848 0.10983 0.22412 0.0
C530 C 0.29824 0.17575 0.25725 0.0
C531 C 0.29461 0.14211 0.27752 0.0
C532 C 0.28823 0.09216 0.27055 0.0
C533 C 0.28473 0.07605 0.24433 0.0
C534 C 0.29941 0.15869 0.30582 0.0
C535 C 0.28737 0.19508 0.31531 0.0
C536 C 0.29062 0.2124 0.34335 0.0
C537 C 0.2595 0.23418 0.35151 0.0
C538 C 0.26202 0.25303 0.37694 0.0
C539 C 0.2967 0.25202 0.39528 0.0
H540 H 0.35052 0.19515 0.35624 0.0
C541 C 0.32837 0.23059 0.38722 0.0
C542 C 0.32519 0.21077 0.36168 0.0
H543 H 0.35516 0.22848 0.40075 0.0
H544 H 0.29863 0.18749 0.21635 0.0
H545 H 0.30453 0.21502 0.26136 0.0
H546 H 0.28571 0.06523 0.28549 0.0
H547 H 0.27975 0.03736 0.23993 0.0
H548 H 0.31114 0.13847 0.31935 0.0
H549 H 0.27146 0.21176 0.30196 0.0
H550 H 0.2326 0.23645 0.33809 0.0
H551 H 0.23665 0.26877 0.38216 0.0
C552 C 0.27908 0.30868 0.57558 0.0
C553 C 0.24351 0.29699 0.55503 0.0
C554 C 0.26415 0.31169 0.60144 0.0
C555 C 0.21304 0.30274 0.60783 0.0
C556 C 0.17744 0.29084 0.58721 0.0
C557 C 0.19241 0.28803 0.56141 0.0
C558 C 0.19957 0.30823 0.63587 0.0
C559 C 0.1496 0.29052 0.6455 0.0
C560 C 0.13531 0.29569 0.6734 0.0
C561 C 0.0817 0.26503 0.68157 0.0
C562 C 0.06571 0.26862 0.70704 0.0
C563 C 0.10266 0.30355 0.72542 0.0
H564 H 0.2139 0.35613 0.68653 0.0
C565 C 0.15632 0.33473 0.71727 0.0
C566 C 0.17241 0.33092 0.69175 0.0
H567 H 0.18628 0.36197 0.73072 0.0
H568 H 0.31878 0.31611 0.57171 0.0
H569 H 0.29299 0.32127 0.61659 0.0
H570 H 0.13816 0.28469 0.59067 0.0
H571 H 0.16364 0.27921 0.54633 0.0
H572 H 0.23268 0.32663 0.64918 0.0
H573 H 0.11628 0.26922 0.63249 0.0
H574 H 0.05172 0.23759 0.66817 0.0
H575 H 0.02417 0.24351 0.71235 0.0
C576 C 0.96825 0.20876 0.89373 0.0
C577 C 0.01307 0.25816 0.8866 0.0
C578 C 0.95345 0.19532 0.91993 0.0
C579 C -0.01709 0.23087 0.94017 0.0
C580 C 0.02749 0.2804 0.933 0.0
C581 C 0.04248 0.29372 0.90677 0.0
C582 C 0.96777 0.21894 0.96868 0.0
C583 C 0.93478 0.16949 0.9787 0.0
C584 C 0.91991 0.15635 1.00711 0.0
C585 C 0.89782 0.10305 1.01517 0.0
C586 C 0.88272 0.08797 1.04113 0.0
C587 C 0.88822 0.12544 1.06019 0.0
H588 H 0.94098 0.23533 1.02097 0.0
C589 C 0.90944 0.17877 1.05217 0.0
C590 C 0.9252 0.19406 1.02611 0.0
H591 H 0.91471 0.20908 1.06614 0.0
H592 H 0.94412 0.18011 0.87897 0.0
H593 H 0.91821 0.1573 0.92406 0.0
H594 H 0.05112 0.30917 0.94783 0.0
H595 H 0.07695 0.33221 0.90235 0.0
H596 H -0.01359 0.25255 0.98199 0.0
H597 H 0.91903 0.13558 0.96555 0.0
H598 H 0.89261 0.07261 1.00128 0.0
H599 H 0.86678 0.04659 1.04625 0.0
C600 C 0.87466 0.01292 0.23029 0.0
C601 C 0.86494 0.05377 0.2232 0.0
C602 C 0.86925 -0.00423 0.2562 0.0
C603 C 0.85378 0.01881 0.27614 0.0
C604 C 0.84417 0.05971 0.26901 0.0
C605 C 0.84989 0.07707 0.24311 0.0
C606 C 0.84532 0.00031 0.30417 0.0
C607 C 0.86549 0.97195 0.31485 0.0
C608 C 0.85904 0.95367 0.34279 0.0
C609 C 0.89402 0.93803 0.35207 0.0
C610 C 0.88983 0.91925 0.37741 0.0
C611 C 0.8499 0.91449 0.39472 0.0
H612 H 0.79053 0.96006 0.35379 0.0
C613 C 0.81439 0.92983 0.38558 0.0
C614 C 0.81892 0.94927 0.36002 0.0
H615 H 0.78335 0.9273 0.39823 0.0
H616 H 0.8859 -0.00658 0.21569 0.0
H617 H 0.87603 0.96347 0.26025 0.0
H618 H 0.83194 0.0784 0.2836 0.0
H619 H 0.84161 0.10829 0.23867 0.0
H620 H 0.82309 0.01242 0.31662 0.0
H621 H 0.89062 0.96309 0.30271 0.0
H622 H 0.92533 0.94053 0.3396 0.0
H623 H 0.91838 0.9084 0.38339 0.0
C624 C 0.86769 0.85836 0.57527 0.0
C625 C 0.90261 0.87759 0.55369 0.0
C626 C 0.88681 0.85835 0.60047 0.0
C627 C 0.94156 0.87806 0.60479 0.0
C628 C -0.02406 0.89799 0.5832 0.0
C629 C 0.95702 0.89751 0.55833 0.0
C630 C 0.9661 0.88056 0.63094 0.0
C631 C 0.94003 0.85437 0.65291 0.0
C632 C 0.96662 0.8565 0.67847 0.0
C633 C 0.93638 0.81995 0.69818 0.0
C634 C 0.95857 0.8209 0.72243 0.0
C635 C 0.01206 0.85866 0.72808 0.0
H636 H 0.04561 0.92399 0.67011 0.0
C637 C 0.04257 0.89512 0.70838 0.0
C638 C 0.02039 0.89417 0.68409 0.0
H639 H 0.08367 0.92537 0.71186 0.0
H640 H 0.82554 0.84262 0.57266 0.0
H641 H 0.85868 0.84327 0.61643 0.0
H642 H 0.01822 0.91386 0.58548 0.0
H643 H -0.01427 0.91301 0.54258 0.0
H644 H 0.00916 0.90416 0.63147 0.0
H645 H 0.89712 0.82857 0.65214 0.0
H646 H 0.89495 0.79043 0.69489 0.0
H647 H 0.93328 0.79238 0.73695 0.0
C648 C 0.09418 0.89703 0.90802 0.0
C649 C 0.11421 0.93026 0.88608 0.0
C650 C 0.11493 0.91632 0.93305 0.0
C651 C 0.15637 0.96971 0.93703 0.0
C652 C 0.17556 0.00278 0.9151 0.0
C653 C 0.15525 0.98349 0.8902 0.0
C654 C 0.18009 -0.00659 0.96335 0.0
C655 C 0.17601 0.96501 0.98485 0.0
C656 C 0.20097 0.98791 1.01107 0.0
C657 C 0.20124 0.95296 1.02953 0.0
C658 C 0.22175 0.97054 1.05452 0.0
C659 C 0.24285 0.02407 1.06238 0.0
H660 H 0.22303 0.07054 1.00547 0.0
C661 C 0.24334 0.05966 1.04391 0.0
C662 C 0.22275 0.04193 1.01866 0.0
H663 H 0.25859 0.10105 1.04911 0.0
H664 H 0.06264 0.85584 0.90585 0.0
H665 H 0.09781 0.8893 0.9492 0.0
H666 H 0.20704 0.04405 0.91715 0.0
H667 H 0.17202 0.01073 0.87407 0.0
H668 H 0.20399 0.03658 0.96451 0.0
H669 H 0.1545 0.92185 0.98315 0.0
H670 H 0.18499 0.91122 1.0247 0.0
H671 H 0.22018 0.94145 1.06787 0.0
loop_
_geom_bond_atom_site_label_1
_geom_bond_atom_site_label_2
_geom_bond_distance
_geom_bond_site_symmetry_2
_ccdc_geom_bond_type
La0 C2 2.928 . S
La0 O20 2.521 . S
La0 O21 2.628 . S
La0 O22 2.554 . S
La0 O23 2.757 . S
La0 O24 2.470 . S
La0 O29 2.482 . S
La0 O31 2.503 1_554 S
La1 C11 2.928 . S
La1 O23 2.482 1_556 S
La1 O25 2.503 1_556 S
La1 O26 2.521 . S
La1 O27 2.628 . S
La1 O28 2.553 1_556 S
La1 O29 2.757 1_556 S
La1 O30 2.470 . S
C2 La0 2.928 . S
C2 C3 1.503 . S
C2 O20 1.261 . S
C2 O21 1.243 . S
C3 C2 1.503 . S
C3 C4 1.394 . S
C3 C8 1.373 . S
C4 C3 1.394 . S
C4 C5 1.380 1_545 S
C4 H32 0.930 . S
C5 C4 1.380 1_565 S
C5 C6 1.377 1_565 S
C5 H33 0.930 . S
C6 C5 1.377 1_545 S
C6 C7 1.370 . S
C7 C6 1.370 . S
C7 C8 1.396 . S
C7 H34 0.929 . S
C8 C3 1.373 . S
C8 C7 1.396 . S
C8 H35 0.929 . S
C9 O22 1.240 . S
C9 O23 1.289 . S
C10 O24 1.258 . S
C10 O25 1.256 . S
C11 La1 2.928 . S
C11 C12 1.503 . S
C11 O26 1.261 . S
C11 O27 1.243 . S
C12 C11 1.503 . S
C12 C13 1.394 . S
C12 C17 1.373 . S
C13 C12 1.394 . S
C13 C14 1.380 . S
C13 H36 0.930 . S
C14 C13 1.380 . S
C14 C15 1.376 . S
C14 H37 0.930 . S
C15 C14 1.376 . S
C15 C16 1.370 . S
C16 C15 1.370 . S
C16 C17 1.396 . S
C16 H38 0.929 . S
C17 C12 1.373 . S
C17 C16 1.396 . S
C17 H39 0.929 . S
C18 O28 1.244 . S
C18 O29 1.289 . S
C19 O30 1.258 . S
C19 O31 1.256 . S
O20 La0 2.521 . S
O20 C2 1.261 . S
O21 La0 2.628 . S
O21 C2 1.243 . S
O22 La0 2.554 . S
O22 C9 1.240 . S
O23 La0 2.757 . S
O23 La1 2.482 1_554 S
O23 C9 1.289 . S
O24 La0 2.470 . S
O24 C10 1.258 . S
O25 La1 2.503 1_554 S
O25 C10 1.256 . S
O26 La1 2.521 . S
O26 C11 1.261 . S
O27 La1 2.628 . S
O27 C11 1.243 . S
O28 La1 2.553 1_554 S
O28 C18 1.244 . S
O29 La0 2.482 . S
O29 La1 2.757 1_554 S
O29 C18 1.289 . S
O30 La1 2.470 . S
O30 C19 1.258 . S
O31 La0 2.503 1_556 S
O31 C19 1.256 . S
H32 C4 0.930 . S
H33 C5 0.930 . S
H34 C7 0.929 . S
H35 C8 0.929 . S
H36 C13 0.930 . S
H37 C14 0.930 . S
H38 C16 0.929 . S
H39 C17 0.929 . S
La40 C42 2.928 . S
La40 O60 2.521 . S
La40 O61 2.628 . S
La40 O62 2.554 . S
La40 O63 2.757 . S
La40 O64 2.470 . S
La40 O69 2.482 . S
La40 O71 2.503 . S
La41 C51 2.928 . S
La41 O63 2.482 . S
La41 O65 2.503 . S
La41 O66 2.521 . S
La41 O67 2.628 . S
La41 O68 2.554 . S
La41 O69 2.757 . S
La41 O70 2.470 . S
C42 La40 2.928 . S
C42 C43 1.503 . S
C42 O60 1.261 . S
C42 O61 1.243 . S
C43 C42 1.503 . S
C43 C44 1.394 . S
C43 C48 1.373 . S
C44 C43 1.394 . S
C44 C45 1.380 . S
C44 H72 0.930 . S
C45 C44 1.380 . S
C45 C46 1.376 . S
C45 H73 0.930 . S
C46 C45 1.376 . S
C46 C47 1.370 . S
C47 C46 1.370 . S
C47 C48 1.396 . S
C47 H74 0.929 . S
C48 C43 1.373 . S
C48 C47 1.396 . S
C48 H75 0.929 . S
C49 O62 1.240 . S
C49 O63 1.289 . S
C50 O64 1.258 . S
C50 O65 1.256 . S
C51 La41 2.928 . S
C51 C52 1.503 . S
C51 O66 1.261 . S
C51 O67 1.243 . S
C52 C51 1.503 . S
C52 C53 1.394 . S
C52 C57 1.373 . S
C53 C52 1.394 . S
C53 C54 1.380 . S
C53 H76 0.930 . S
C54 C53 1.380 . S
C54 C55 1.376 . S
C54 H77 0.930 . S
C55 C54 1.376 . S
C55 C56 1.370 . S
C56 C55 1.370 . S
C56 C57 1.396 . S
C56 H78 0.929 . S
C57 C52 1.373 . S
C57 C56 1.396 . S
C57 H79 0.929 . S
C58 O68 1.240 . S
C58 O69 1.289 . S
C59 O70 1.258 . S
C59 O71 1.256 . S
O60 La40 2.521 . S
O60 C42 1.261 . S
O61 La40 2.628 . S
O61 C42 1.243 . S
O62 La40 2.554 . S
O62 C49 1.240 . S
O63 La40 2.757 . S
O63 La41 2.482 . S
O63 C49 1.289 . S
O64 La40 2.470 . S
O64 C50 1.258 . S
O65 La41 2.503 . S
O65 C50 1.256 . S
O66 La41 2.521 . S
O66 C51 1.261 . S
O67 La41 2.628 . S
O67 C51 1.243 . S
O68 La41 2.554 . S
O68 C58 1.240 . S
O69 La40 2.482 . S
O69 La41 2.757 . S
O69 C58 1.289 . S
O70 La41 2.470 . S
O70 C59 1.258 . S
O71 La40 2.503 . S
O71 C59 1.256 . S
H72 C44 0.930 . S
H73 C45 0.930 . S
H74 C47 0.929 . S
H75 C48 0.929 . S
H76 C53 0.930 . S
H77 C54 0.930 . S
H78 C56 0.929 . S
H79 C57 0.929 . S
La80 C82 2.928 . S
La80 O100 2.521 . S
La80 O101 2.628 . S
La80 O102 2.554 . S
La80 O103 2.759 . S
La80 O104 2.470 1_455 S
La80 O109 2.479 1_455 S
La80 O111 2.503 . S
La81 C91 2.928 . S
La81 O103 2.474 1_655 S
La81 O105 2.503 . S
La81 O106 2.521 . S
La81 O107 2.628 . S
La81 O108 2.554 . S
La81 O109 2.757 . S
La81 O110 2.470 1_655 S
C82 La80 2.928 . S
C82 C83 1.503 . S
C82 O100 1.261 . S
C82 O101 1.243 . S
C83 C82 1.503 . S
C83 C84 1.394 . S
C83 C88 1.373 . S
C84 C83 1.394 . S
C84 C85 1.380 . S
C84 H112 0.930 . S
C85 C84 1.380 . S
C85 C86 1.376 . S
C85 H113 0.930 . S
C86 C85 1.376 . S
C86 C87 1.370 . S
C87 C86 1.370 . S
C87 C88 1.396 . S
C87 H114 0.929 . S
C88 C83 1.373 . S
C88 C87 1.396 . S
C88 H115 0.929 . S
C89 O102 1.240 . S
C89 O103 1.296 . S
C90 O104 1.258 . S
C90 O105 1.256 . S
C91 La81 2.928 . S
C91 C92 1.503 . S
C91 O106 1.261 . S
C91 O107 1.243 . S
C92 C91 1.503 . S
C92 C93 1.394 . S
C92 C97 1.373 . S
C93 C92 1.394 . S
C93 C94 1.380 . S
C93 H116 0.930 . S
C94 C93 1.380 . S
C94 C95 1.376 . S
C94 H117 0.930 . S
C95 C94 1.376 . S
C95 C96 1.370 . S
C96 C95 1.370 . S
C96 C97 1.396 . S
C96 H118 0.929 . S
C97 C92 1.373 . S
C97 C96 1.396 . S
C97 H119 0.929 . S
C98 O108 1.240 . S
C98 O109 1.292 . S
C99 O110 1.258 . S
C99 O111 1.256 . S
O100 La80 2.521 . S
O100 C82 1.261 . S
O101 La80 2.628 . S
O101 C82 1.243 . S
O102 La80 2.554 . S
O102 C89 1.240 . S
O103 La80 2.759 . S
O103 La81 2.474 1_455 S
O103 C89 1.296 . S
O104 La80 2.470 1_655 S
O104 C90 1.258 . S
O105 La81 2.503 . S
O105 C90 1.256 . S
O106 La81 2.521 . S
O106 C91 1.261 . S
O107 La81 2.628 . S
O107 C91 1.243 . S
O108 La81 2.554 . S
O108 C98 1.240 . S
O109 La80 2.479 1_655 S
O109 La81 2.757 . S
O109 C98 1.292 . S
O110 La81 2.470 1_455 S
O110 C99 1.258 . S
O111 La80 2.503 . S
O111 C99 1.256 . S
H112 C84 0.930 . S
H113 C85 0.930 . S
H114 C87 0.929 . S
H115 C88 0.929 . S
H116 C93 0.930 . S
H117 C94 0.930 . S
H118 C96 0.929 . S
H119 C97 0.929 . S
La120 C122 2.928 . S
La120 O140 2.521 . S
La120 O141 2.628 . S
La120 O142 2.554 . S
La120 O143 2.764 . S
La120 O144 2.470 1_545 S
La120 O149 2.481 1_545 S
La120 O151 2.503 1_554 S
La121 C131 2.928 . S
La121 O143 2.479 1_566 S
La121 O145 2.503 1_556 S
La121 O146 2.521 . S
La121 O147 2.628 . S
La121 O148 2.553 1_556 S
La121 O149 2.759 1_556 S
La121 O150 2.470 1_565 S
C122 La120 2.928 . S
C122 C123 1.503 . S
C122 O140 1.261 . S
C122 O141 1.243 . S
C123 C122 1.503 . S
C123 C124 1.394 . S
C123 C128 1.373 . S
C124 C123 1.394 . S
C124 C125 1.380 . S
C124 H152 0.930 . S
C125 C124 1.380 . S
C125 C126 1.376 . S
C125 H153 0.930 . S
C126 C125 1.376 . S
C126 C127 1.370 . S
C127 C126 1.370 . S
C127 C128 1.396 . S
C127 H154 0.929 . S
C128 C123 1.373 . S
C128 C127 1.396 . S
C128 H155 0.929 . S
C129 O142 1.240 . S
C129 O143 1.289 . S
C130 O144 1.258 . S
C130 O145 1.256 . S
C131 La121 2.928 . S
C131 C132 1.503 . S
C131 O146 1.261 . S
C131 O147 1.243 . S
C132 C131 1.503 . S
C132 C133 1.394 . S
C132 C137 1.373 . S
C133 C132 1.394 . S
C133 C134 1.380 . S
C133 H156 0.930 . S
C134 C133 1.380 . S
C134 C135 1.376 . S
C134 H157 0.930 . S
C135 C134 1.376 . S
C135 C136 1.370 . S
C136 C135 1.370 . S
C136 C137 1.396 . S
C136 H158 0.929 . S
C137 C132 1.373 . S
C137 C136 1.396 . S
C137 H159 0.929 . S
C138 O148 1.244 . S
C138 O149 1.289 . S
C139 O150 1.258 . S
C139 O151 1.256 . S
O140 La120 2.521 . S
O140 C122 1.261 . S
O141 La120 2.628 . S
O141 C122 1.243 . S
O142 La120 2.554 . S
O142 C129 1.240 . S
O143 La120 2.764 . S
O143 La121 2.479 1_544 S
O143 C129 1.289 . S
O144 La120 2.470 1_565 S
O144 C130 1.258 . S
O145 La121 2.503 1_554 S
O145 C130 1.256 . S
O146 La121 2.521 . S
O146 C131 1.261 . S
O147 La121 2.628 . S
O147 C131 1.243 . S
O148 La121 2.553 1_554 S
O148 C138 1.244 . S
O149 La120 2.481 1_565 S
O149 La121 2.759 1_554 S
O149 C138 1.289 . S
O150 La121 2.470 1_545 S
O150 C139 1.258 . S
O151 La120 2.503 1_556 S
O151 C139 1.256 . S
H152 C124 0.930 . S
H153 C125 0.930 . S
H154 C127 0.929 . S
H155 C128 0.929 . S
H156 C133 0.930 . S
H157 C134 0.930 . S
H158 C136 0.929 . S
H159 C137 0.929 . S
La160 C162 2.928 . S
La160 O180 2.521 . S
La160 O181 2.628 . S
La160 O182 2.554 . S
La160 O183 2.757 . S
La160 O184 2.470 . S
La160 O189 2.482 . S
La160 O191 2.503 . S
La161 C171 2.928 . S
La161 O183 2.482 . S
La161 O185 2.503 . S
La161 O186 2.521 . S
La161 O187 2.628 . S
La161 O188 2.554 . S
La161 O189 2.757 . S
La161 O190 2.470 . S
C162 La160 2.928 . S
C162 C163 1.503 . S
C162 O180 1.261 . S
C162 O181 1.243 . S
C163 C162 1.503 . S
C163 C164 1.394 . S
C163 C168 1.373 . S
C164 C163 1.394 . S
C164 C165 1.380 . S
C164 H192 0.930 . S
C165 C164 1.380 . S
C165 C166 1.376 . S
C165 H193 0.930 . S
C166 C165 1.376 . S
C166 C167 1.370 . S
C167 C166 1.370 . S
C167 C168 1.396 . S
C167 H194 0.929 . S
C168 C163 1.373 . S
C168 C167 1.396 . S
C168 H195 0.929 . S
C169 O182 1.240 . S
C169 O183 1.289 . S
C170 O184 1.258 . S
C170 O185 1.256 . S
C171 La161 2.928 . S
C171 C172 1.503 . S
C171 O186 1.261 . S
C171 O187 1.243 . S
C172 C171 1.503 . S
C172 C173 1.394 . S
C172 C177 1.373 1_655 S
C173 C172 1.394 . S
C173 C174 1.380 . S
C173 H196 0.930 . S
C174 C173 1.380 . S
C174 C175 1.376 1_655 S
C174 H197 0.930 . S
C175 C174 1.376 1_455 S
C175 C176 1.370 . S
C176 C175 1.370 . S
C176 C177 1.396 . S
C176 H198 0.929 . S
C177 C172 1.373 1_455 S
C177 C176 1.396 . S
C177 H199 0.929 . S
C178 O188 1.240 . S
C178 O189 1.289 . S
C179 O190 1.258 . S
C179 O191 1.256 . S
O180 La160 2.521 . S
O180 C162 1.261 . S
O181 La160 2.628 . S
O181 C162 1.243 . S
O182 La160 2.554 . S
O182 C169 1.240 . S
O183 La160 2.757 . S
O183 La161 2.482 . S
O183 C169 1.289 . S
O184 La160 2.470 . S
O184 C170 1.258 . S
O185 La161 2.503 . S
O185 C170 1.256 . S
O186 La161 2.521 . S
O186 C171 1.261 . S
O187 La161 2.628 . S
O187 C171 1.243 . S
O188 La161 2.554 . S
O188 C178 1.240 . S
O189 La160 2.482 . S
O189 La161 2.757 . S
O189 C178 1.289 . S
O190 La161 2.470 . S
O190 C179 1.258 . S
O191 La160 2.503 . S
O191 C179 1.256 . S
H192 C164 0.930 . S
H193 C165 0.930 . S
H194 C167 0.929 . S
H195 C168 0.929 . S
H196 C173 0.930 . S
H197 C174 0.930 . S
H198 C176 0.929 . S
H199 C177 0.929 . S
La200 C202 2.928 . S
La200 O220 2.521 . S
La200 O221 2.628 . S
La200 O222 2.554 . S
La200 O223 2.757 . S
La200 O224 2.470 . S
La200 O229 2.482 . S
La200 O231 2.503 . S
La201 C211 2.928 . S
La201 O223 2.482 . S
La201 O225 2.503 . S
La201 O226 2.521 . S
La201 O227 2.628 . S
La201 O228 2.554 . S
La201 O229 2.757 . S
La201 O230 2.470 . S
C202 La200 2.928 . S
C202 C203 1.503 . S
C202 O220 1.261 . S
C202 O221 1.243 . S
C203 C202 1.503 . S
C203 C204 1.394 . S
C203 C208 1.373 . S
C204 C203 1.394 . S
C204 C205 1.381 1_455 S
C204 H232 0.930 . S
C205 C204 1.381 1_655 S
C205 C206 1.377 1_655 S
C205 H233 0.929 . S
C206 C205 1.377 1_455 S
C206 C207 1.370 . S
C207 C206 1.370 . S
C207 C208 1.396 . S
C207 H234 0.929 . S
C208 C203 1.373 . S
C208 C207 1.396 . S
C208 H235 0.929 . S
C209 O222 1.240 . S
C209 O223 1.289 . S
C210 O224 1.258 . S
C210 O225 1.256 . S
C211 La201 2.928 . S
C211 C212 1.503 . S
C211 O226 1.261 . S
C211 O227 1.243 . S
C212 C211 1.503 . S
C212 C213 1.394 . S
C212 C217 1.373 1_565 S
C213 C212 1.394 . S
C213 C214 1.380 . S
C213 H236 0.930 . S
C214 C213 1.380 . S
C214 C215 1.376 1_565 S
C214 H237 0.930 . S
C215 C214 1.376 1_545 S
C215 C216 1.370 . S
C216 C215 1.370 . S
C216 C217 1.396 . S
C216 H238 0.929 . S
C217 C212 1.373 1_545 S
C217 C216 1.396 . S
C217 H239 0.929 . S
C218 O228 1.240 . S
C218 O229 1.289 . S
C219 O230 1.258 . S
C219 O231 1.256 . S
O220 La200 2.521 . S
O220 C202 1.261 . S
O221 La200 2.628 . S
O221 C202 1.243 . S
O222 La200 2.554 . S
O222 C209 1.240 . S
O223 La200 2.757 . S
O223 La201 2.482 . S
O223 C209 1.289 . S
O224 La200 2.470 . S
O224 C210 1.258 . S
O225 La201 2.503 . S
O225 C210 1.256 . S
O226 La201 2.521 . S
O226 C211 1.261 . S
O227 La201 2.628 . S
O227 C211 1.243 . S
O228 La201 2.554 . S
O228 C218 1.240 . S
O229 La200 2.482 . S
O229 La201 2.757 . S
O229 C218 1.289 . S
O230 La201 2.470 . S
O230 C219 1.258 . S
O231 La200 2.503 . S
O231 C219 1.256 . S
H232 C204 0.930 . S
H233 C205 0.929 . S
H234 C207 0.929 . S
H235 C208 0.929 . S
H236 C213 0.930 . S
H237 C214 0.930 . S
H238 C216 0.929 . S
H239 C217 0.929 . S
C240 C241 1.386 1_556 S
C240 C242 1.383 1_565 S
C240 H256 0.951 . S
C241 C240 1.386 1_554 S
C241 C245 1.383 1_565 S
C242 C240 1.383 1_545 S
C242 C243 1.402 1_656 S
C242 H257 0.951 1_655 S
C243 C242 1.402 1_454 S
C243 C244 1.375 1_455 S
C243 C246 1.481 . S
C244 C243 1.375 1_655 S
C244 C245 1.367 . S
C244 H258 0.951 . S
C245 C241 1.383 1_545 S
C245 C244 1.367 . S
C245 H259 0.950 . S
C246 C243 1.481 . S
C246 C247 1.297 1_554 S
C246 H260 0.950 . S
C247 C246 1.297 1_556 S
C247 C248 1.477 1_556 S
C247 H261 0.950 . S
C248 C247 1.477 1_554 S
C248 C249 1.360 1_554 S
C248 C254 1.424 . S
C249 C248 1.360 1_556 S
C249 C250 1.369 . S
C249 H262 0.950 . S
C250 C249 1.369 . S
C250 C251 1.392 1_556 S
C250 H263 0.951 . S
C251 C250 1.392 1_554 S
C251 C253 1.384 . S
H252 C254 0.949 . S
C253 C251 1.384 . S
C253 C254 1.385 . S
C253 H255 0.950 . S
C254 C248 1.424 . S
C254 H252 0.949 . S
C254 C253 1.385 . S
H255 C253 0.950 . S
H256 C240 0.951 . S
H257 C242 0.951 1_455 S
H258 C244 0.951 . S
H259 C245 0.950 . S
H260 C246 0.950 . S
H261 C247 0.950 . S
H262 C249 0.950 . S
H263 C250 0.951 . S
C264 C265 1.386 1_455 S
C264 C266 1.383 . S
C264 H280 0.951 . S
C265 C264 1.386 1_655 S
C265 C269 1.383 . S
C266 C264 1.383 . S
C266 C267 1.402 1_565 S
C266 H281 0.951 1_565 S
C267 C266 1.402 1_545 S
C267 C268 1.375 1_445 S
C267 C270 1.481 . S
C268 C267 1.375 1_665 S
C268 C269 1.367 . S
C268 H282 0.951 . S
C269 C265 1.383 . S
C269 C268 1.367 . S
C269 H283 0.950 . S
C270 C267 1.481 . S
C270 C271 1.297 . S
C270 H284 0.950 . S
C271 C270 1.297 . S
C271 C272 1.479 . S
C271 H285 0.950 . S
C272 C271 1.479 . S
C272 C273 1.375 . S
C272 C278 1.404 . S
C273 C272 1.375 . S
C273 C274 1.369 . S
C273 H286 0.950 . S
C274 C273 1.369 . S
C274 C275 1.392 . S
C274 H287 0.951 . S
C275 C274 1.392 . S
C275 C277 1.384 . S
H276 C278 0.949 . S
C277 C275 1.384 . S
C277 C278 1.385 . S
C277 H279 0.950 . S
C278 C272 1.404 . S
C278 H276 0.949 . S
C278 C277 1.385 . S
H279 C277 0.950 . S
H280 C264 0.951 . S
H281 C266 0.951 1_545 S
H282 C268 0.951 . S
H283 C269 0.950 . S
H284 C270 0.950 . S
H285 C271 0.950 . S
H286 C273 0.950 . S
H287 C274 0.951 . S
C288 C289 1.395 . S
C288 C290 1.383 . S
C288 H304 0.951 . S
C289 C288 1.395 . S
C289 C293 1.390 . S
C290 C288 1.383 . S
C290 C291 1.402 . S
C290 H305 0.951 . S
C291 C290 1.402 . S
C291 C292 1.375 . S
C291 C294 1.481 . S
C292 C291 1.375 . S
C292 C293 1.367 . S
C292 H306 0.951 . S
C293 C289 1.390 . S
C293 C292 1.367 . S
C293 H307 0.950 . S
C294 C291 1.481 . S
C294 C295 1.297 . S
C294 H308 0.950 . S
C295 C294 1.297 . S
C295 C296 1.479 . S
C295 H309 0.950 . S
C296 C295 1.479 . S
C296 C297 1.375 . S
C296 C302 1.404 . S
C297 C296 1.375 . S
C297 C298 1.369 . S
C297 H310 0.950 . S
C298 C297 1.369 . S
C298 C299 1.392 1_455 S
C298 H311 0.951 1_455 S
C299 C298 1.392 1_655 S
C299 C301 1.384 1_655 S
H300 C302 0.949 . S
C301 C299 1.384 1_455 S
C301 C302 1.385 . S
C301 H303 0.950 . S
C302 C296 1.404 . S
C302 H300 0.949 . S
C302 C301 1.385 . S
H303 C301 0.950 . S
H304 C288 0.951 . S
H305 C290 0.951 . S
H306 C292 0.951 . S
H307 C293 0.950 . S
H308 C294 0.950 . S
H309 C295 0.950 . S
H310 C297 0.950 . S
H311 C298 0.951 1_655 S
C312 C313 1.386 . S
C312 C314 1.383 . S
C312 H328 0.951 . S
C313 C312 1.386 . S
C313 C317 1.383 . S
C314 C312 1.383 . S
C314 C315 1.402 . S
C314 H329 0.951 . S
C315 C314 1.402 . S
C315 C316 1.375 . S
C315 C318 1.481 . S
C316 C315 1.375 . S
C316 C317 1.367 . S
C316 H330 0.951 . S
C317 C313 1.383 . S
C317 C316 1.367 . S
C317 H331 0.950 . S
C318 C315 1.481 . S
C318 C319 1.297 . S
C318 H332 0.950 . S
C319 C318 1.297 . S
C319 C320 1.479 . S
C319 H333 0.950 . S
C320 C319 1.479 . S
C320 C321 1.375 . S
C320 C326 1.404 . S
C321 C320 1.375 . S
C321 C322 1.369 . S
C321 H334 0.950 . S
C322 C321 1.369 . S
C322 C323 1.392 . S
C322 H335 0.951 . S
C323 C322 1.392 . S
C323 C325 1.384 . S
H324 C326 0.949 . S
C325 C323 1.384 . S
C325 C326 1.385 . S
C325 H327 0.950 . S
C326 C320 1.404 . S
C326 H324 0.949 . S
C326 C325 1.385 . S
H327 C325 0.950 . S
H328 C312 0.951 . S
H329 C314 0.951 . S
H330 C316 0.951 . S
H331 C317 0.950 . S
H332 C318 0.950 . S
H333 C319 0.950 . S
H334 C321 0.950 . S
H335 C322 0.951 . S
C336 C337 1.386 . S
C336 C338 1.383 . S
C336 H352 0.951 . S
C337 C336 1.386 . S
C337 C341 1.383 . S
C338 C336 1.383 . S
C338 C339 1.402 . S
C338 H353 0.951 . S
C339 C338 1.402 . S
C339 C340 1.375 . S
C339 C342 1.481 . S
C340 C339 1.375 . S
C340 C341 1.367 . S
C340 H354 0.951 . S
C341 C337 1.383 . S
C341 C340 1.367 . S
C341 H355 0.950 . S
C342 C339 1.481 . S
C342 C343 1.297 1_455 S
C342 H356 0.950 . S
C343 C342 1.297 1_655 S
C343 C344 1.479 . S
C343 H357 0.950 . S
C344 C343 1.479 . S
C344 C345 1.375 . S
C344 C350 1.404 . S
C345 C344 1.375 . S
C345 C346 1.369 . S
C345 H358 0.950 . S
C346 C345 1.369 . S
C346 C347 1.392 . S
C346 H359 0.951 . S
C347 C346 1.392 . S
C347 C349 1.384 . S
H348 C350 0.949 . S
C349 C347 1.384 . S
C349 C350 1.385 . S
C349 H351 0.950 . S
C350 C344 1.404 . S
C350 H348 0.949 . S
C350 C349 1.385 . S
H351 C349 0.950 . S
H352 C336 0.951 . S
H353 C338 0.951 . S
H354 C340 0.951 . S
H355 C341 0.950 . S
H356 C342 0.950 . S
H357 C343 0.950 . S
H358 C345 0.950 . S
H359 C346 0.951 . S
C360 C361 1.386 . S
C360 C362 1.383 . S
C360 H376 0.951 . S
C361 C360 1.386 . S
C361 C365 1.383 . S
C362 C360 1.383 . S
C362 C363 1.402 . S
C362 H377 0.951 . S
C363 C362 1.402 . S
C363 C364 1.375 . S
C363 C366 1.481 . S
C364 C363 1.375 . S
C364 C365 1.367 . S
C364 H378 0.951 . S
C365 C361 1.383 . S
C365 C364 1.367 . S
C365 H379 0.950 . S
C366 C363 1.481 . S
C366 C367 1.297 . S
C366 H380 0.950 . S
C367 C366 1.297 . S
C367 C368 1.479 1_545 S
C367 H381 0.950 . S
C368 C367 1.479 1_565 S
C368 C369 1.375 . S
C368 C374 1.404 . S
C369 C368 1.375 . S
C369 C370 1.369 . S
C369 H382 0.950 . S
C370 C369 1.369 . S
C370 C371 1.392 . S
C370 H383 0.951 . S
C371 C370 1.392 . S
C371 C373 1.384 . S
H372 C374 0.949 . S
C373 C371 1.384 . S
C373 C374 1.385 . S
C373 H375 0.950 . S
C374 C368 1.404 . S
C374 H372 0.949 . S
C374 C373 1.385 . S
H375 C373 0.950 . S
H376 C360 0.951 . S
H377 C362 0.951 . S
H378 C364 0.951 . S
H379 C365 0.950 . S
H380 C366 0.950 . S
H381 C367 0.950 . S
H382 C369 0.950 . S
H383 C370 0.951 . S
C384 C385 1.386 . S
C384 C386 1.383 . S
C384 H400 0.951 . S
C385 C384 1.386 . S
C385 C389 1.383 . S
C386 C384 1.383 . S
C386 C387 1.402 . S
C386 H401 0.951 . S
C387 C386 1.402 . S
C387 C388 1.375 . S
C387 C390 1.481 . S
C388 C387 1.375 . S
C388 C389 1.367 . S
C388 H402 0.951 . S
C389 C385 1.383 . S
C389 C388 1.367 . S
C389 H403 0.950 . S
C390 C387 1.481 . S
C390 C391 1.297 . S
C390 H404 0.950 . S
C391 C390 1.297 . S
C391 C392 1.479 . S
C391 H405 0.950 . S
C392 C391 1.479 . S
C392 C393 1.375 . S
C392 C398 1.404 . S
C393 C392 1.375 . S
C393 C394 1.369 . S
C393 H406 0.950 . S
C394 C393 1.369 . S
C394 C395 1.392 1_655 S
C394 H407 0.951 . S
C395 C394 1.392 1_455 S
C395 C397 1.384 . S
H396 C398 0.949 . S
C397 C395 1.384 . S
C397 C398 1.385 1_455 S
C397 H399 0.950 . S
C398 C392 1.404 . S
C398 H396 0.949 . S
C398 C397 1.385 1_655 S
H399 C397 0.950 . S
H400 C384 0.951 . S
H401 C386 0.951 . S
H402 C388 0.951 . S
H403 C389 0.950 . S
H404 C390 0.950 . S
H405 C391 0.950 . S
H406 C393 0.950 . S
H407 C394 0.951 . S
C408 C409 1.386 . S
C408 C410 1.383 . S
C408 H424 0.951 . S
C409 C408 1.386 . S
C409 C413 1.383 . S
C410 C408 1.383 . S
C410 C411 1.402 . S
C410 H425 0.951 . S
C411 C410 1.402 . S
C411 C412 1.375 . S
C411 C414 1.481 . S
C412 C411 1.375 . S
C412 C413 1.367 . S
C412 H426 0.951 . S
C413 C409 1.383 . S
C413 C412 1.367 . S
C413 H427 0.950 . S
C414 C411 1.481 . S
C414 C415 1.297 . S
C414 H428 0.950 . S
C415 C414 1.297 . S
C415 C416 1.479 . S
C415 H429 0.950 . S
C416 C415 1.479 . S
C416 C417 1.375 . S
C416 C422 1.404 . S
C417 C416 1.375 . S
C417 C418 1.369 . S
C417 H430 0.950 . S
C418 C417 1.369 . S
C418 C419 1.392 1_565 S
C418 H431 0.951 . S
C419 C418 1.392 1_545 S
C419 C421 1.384 . S
H420 C422 0.949 . S
C421 C419 1.384 . S
C421 C422 1.385 1_545 S
C421 H423 0.950 . S
C422 C416 1.404 . S
C422 H420 0.949 . S
C422 C421 1.385 1_565 S
H423 C421 0.950 . S
H424 C408 0.951 . S
H425 C410 0.951 . S
H426 C412 0.951 . S
H427 C413 0.950 . S
H428 C414 0.950 . S
H429 C415 0.950 . S
H430 C417 0.950 . S
H431 C418 0.951 . S
C432 C433 1.386 . S
C432 C434 1.383 . S
C432 H448 0.951 . S
C433 C432 1.386 . S
C433 C437 1.383 . S
C434 C432 1.383 . S
C434 C435 1.402 . S
C434 H449 0.951 . S
C435 C434 1.402 . S
C435 C436 1.375 . S
C435 C438 1.481 . S
C436 C435 1.375 . S
C436 C437 1.372 . S
C436 H450 0.951 . S
C437 C433 1.383 . S
C437 C436 1.372 . S
C437 H451 0.945 1_545 S
C438 C435 1.481 . S
C438 C439 1.297 . S
C438 H452 0.950 . S
C439 C438 1.297 . S
C439 C440 1.479 . S
C439 H453 0.950 . S
C440 C439 1.479 . S
C440 C441 1.375 . S
C440 C446 1.404 . S
C441 C440 1.375 . S
C441 C442 1.369 . S
C441 H454 0.950 . S
C442 C441 1.369 . S
C442 C443 1.392 . S
C442 H455 0.951 . S
C443 C442 1.392 . S
C443 C445 1.384 . S
H444 C446 0.949 . S
C445 C443 1.384 . S
C445 C446 1.385 . S
C445 H447 0.950 . S
C446 C440 1.404 . S
C446 H444 0.949 . S
C446 C445 1.385 . S
H447 C445 0.950 . S
H448 C432 0.951 . S
H449 C434 0.951 . S
H450 C436 0.951 . S
H451 C437 0.945 1_565 S
H452 C438 0.950 . S
H453 C439 0.950 . S
H454 C441 0.950 . S
H455 C442 0.951 . S
C456 C457 1.386 . S
C456 C458 1.383 . S
C456 H472 0.951 . S
C457 C456 1.386 . S
C457 C461 1.383 . S
C458 C456 1.383 . S
C458 C459 1.402 . S
C458 H473 0.951 . S
C459 C458 1.402 . S
C459 C460 1.375 . S
C459 C462 1.481 . S
C460 C459 1.375 . S
C460 C461 1.367 . S
C460 H474 0.951 . S
C461 C457 1.383 . S
C461 C460 1.367 . S
C461 H475 0.950 . S
C462 C459 1.481 . S
C462 C463 1.297 . S
C462 H476 0.950 . S
C463 C462 1.297 . S
C463 C464 1.479 . S
C463 H477 0.950 . S
C464 C463 1.479 . S
C464 C465 1.375 . S
C464 C470 1.404 . S
C465 C464 1.375 . S
C465 C466 1.369 . S
C465 H478 0.950 . S
C466 C465 1.369 . S
C466 C467 1.392 1_545 S
C466 H479 0.949 1_554 S
C467 C466 1.392 1_565 S
C467 C469 1.384 . S
H468 C470 0.949 . S
C469 C467 1.384 . S
C469 C470 1.385 1_565 S
C469 H471 0.950 . S
C470 C464 1.404 . S
C470 H468 0.949 . S
C470 C469 1.385 1_545 S
H471 C469 0.950 . S
H472 C456 0.951 . S
H473 C458 0.951 . S
H474 C460 0.951 . S
H475 C461 0.950 . S
H476 C462 0.950 . S
H477 C463 0.950 . S
H478 C465 0.950 . S
H479 C466 0.949 1_556 S
C480 C481 1.386 . S
C480 C482 1.383 . S
C480 H496 0.951 . S
C481 C480 1.386 . S
C481 C485 1.383 . S
C482 C480 1.383 . S
C482 C483 1.402 . S
C482 H497 0.951 . S
C483 C482 1.402 . S
C483 C484 1.375 . S
C483 C486 1.481 . S
C484 C483 1.375 . S
C484 C485 1.367 . S
C484 H498 0.951 . S
C485 C481 1.383 . S
C485 C484 1.367 . S
C485 H499 0.950 . S
C486 C483 1.481 . S
C486 C487 1.297 . S
C486 H500 0.950 . S
C487 C486 1.297 . S
C487 C488 1.479 . S
C487 H501 0.950 . S
C488 C487 1.479 . S
C488 C489 1.375 . S
C488 C494 1.404 . S
C489 C488 1.375 . S
C489 C490 1.369 . S
C489 H502 0.950 . S
C490 C489 1.369 . S
C490 C491 1.392 . S
C490 H503 0.951 . S
C491 C490 1.392 . S
C491 C493 1.384 . S
H492 C494 0.949 . S
C493 C491 1.384 . S
C493 C494 1.385 . S
C493 H495 0.950 . S
C494 C488 1.404 . S
C494 H492 0.949 . S
C494 C493 1.385 . S
H495 C493 0.950 . S
H496 C480 0.951 . S
H497 C482 0.951 . S
H498 C484 0.951 . S
H499 C485 0.950 . S
H500 C486 0.950 . S
H501 C487 0.950 . S
H502 C489 0.950 . S
H503 C490 0.951 . S
C504 C505 1.386 1_455 S
C504 C506 1.383 . S
C504 H520 0.951 . S
C505 C504 1.386 1_655 S
C505 C509 1.383 . S
C506 C504 1.383 . S
C506 C507 1.402 . S
C506 H521 0.951 . S
C507 C506 1.402 . S
C507 C508 1.375 . S
C507 C510 1.481 . S
C508 C507 1.375 . S
C508 C509 1.367 1_455 S
C508 H522 0.951 . S
C509 C505 1.383 . S
C509 C508 1.367 1_655 S
C509 H523 0.950 . S
C510 C507 1.481 . S
C510 C511 1.297 . S
C510 H524 0.950 . S
C511 C510 1.297 . S
C511 C512 1.479 . S
C511 H525 0.950 . S
C512 C511 1.479 . S
C512 C513 1.375 . S
C512 C518 1.404 . S
C513 C512 1.375 . S
C513 C514 1.369 . S
C513 H526 0.950 . S
C514 C513 1.369 . S
C514 C515 1.392 . S
C514 H527 0.951 . S
C515 C514 1.392 . S
C515 C517 1.384 . S
H516 C518 0.949 . S
C517 C515 1.384 . S
C517 C518 1.385 . S
C517 H519 0.950 . S
C518 C512 1.404 . S
C518 H516 0.949 . S
C518 C517 1.385 . S
H519 C517 0.950 . S
H520 C504 0.951 . S
H521 C506 0.951 . S
H522 C508 0.951 . S
H523 C509 0.950 . S
H524 C510 0.950 . S
H525 C511 0.950 . S
H526 C513 0.950 . S
H527 C514 0.951 . S
C528 C529 1.386 . S
C528 C530 1.383 . S
C528 H544 0.951 . S
C529 C528 1.386 . S
C529 C533 1.383 . S
C530 C528 1.383 . S
C530 C531 1.402 . S
C530 H545 0.951 . S
C531 C530 1.402 . S
C531 C532 1.375 . S
C531 C534 1.481 . S
C532 C531 1.375 . S
C532 C533 1.367 . S
C532 H546 0.951 . S
C533 C529 1.383 . S
C533 C532 1.367 . S
C533 H547 0.950 . S
C534 C531 1.481 . S
C534 C535 1.297 . S
C534 H548 0.950 . S
C535 C534 1.297 . S
C535 C536 1.479 . S
C535 H549 0.950 . S
C536 C535 1.479 . S
C536 C537 1.375 . S
C536 C542 1.404 . S
C537 C536 1.375 . S
C537 C538 1.369 . S
C537 H550 0.950 . S
C538 C537 1.369 . S
C538 C539 1.392 . S
C538 H551 0.951 . S
C539 C538 1.392 . S
C539 C541 1.384 . S
H540 C542 0.949 . S
C541 C539 1.384 . S
C541 C542 1.385 . S
C541 H543 0.950 . S
C542 C536 1.404 . S
C542 H540 0.949 . S
C542 C541 1.385 . S
H543 C541 0.950 . S
H544 C528 0.951 . S
H545 C530 0.951 . S
H546 C532 0.951 . S
H547 C533 0.950 . S
H548 C534 0.950 . S
H549 C535 0.950 . S
H550 C537 0.950 . S
H551 C538 0.951 . S
C552 C553 1.386 . S
C552 C554 1.383 . S
C552 H568 0.951 . S
C553 C552 1.386 . S
C553 C557 1.383 . S
C554 C552 1.383 . S
C554 C555 1.402 . S
C554 H569 0.951 . S
C555 C554 1.402 . S
C555 C556 1.375 . S
C555 C558 1.481 . S
C556 C555 1.375 . S
C556 C557 1.367 . S
C556 H570 0.951 . S
C557 C553 1.383 . S
C557 C556 1.367 . S
C557 H571 0.950 . S
C558 C555 1.481 . S
C558 C559 1.297 . S
C558 H572 0.950 . S
C559 C558 1.297 . S
C559 C560 1.479 . S
C559 H573 0.950 . S
C560 C559 1.479 . S
C560 C561 1.375 . S
C560 C566 1.404 . S
C561 C560 1.375 . S
C561 C562 1.369 . S
C561 H574 0.950 . S
C562 C561 1.369 . S
C562 C563 1.392 . S
C562 H575 0.951 . S
C563 C562 1.392 . S
C563 C565 1.384 . S
H564 C566 0.949 . S
C565 C563 1.384 . S
C565 C566 1.385 . S
C565 H567 0.950 . S
C566 C560 1.404 . S
C566 H564 0.949 . S
C566 C565 1.385 . S
H567 C565 0.950 . S
H568 C552 0.951 . S
H569 C554 0.951 . S
H570 C556 0.951 . S
H571 C557 0.950 . S
H572 C558 0.950 . S
H573 C559 0.950 . S
H574 C561 0.950 . S
H575 C562 0.951 . S
C576 C577 1.386 . S
C576 C578 1.383 . S
C576 H592 0.951 . S
C577 C576 1.386 . S
C577 C581 1.383 . S
C578 C576 1.383 . S
C578 C579 1.402 . S
C578 H593 0.951 . S
C579 C578 1.402 . S
C579 C580 1.375 . S
C579 C582 1.481 . S
C580 C579 1.375 . S
C580 C581 1.367 . S
C580 H594 0.951 . S
C581 C577 1.383 . S
C581 C580 1.367 . S
C581 H595 0.950 . S
C582 C579 1.481 . S
C582 C583 1.297 . S
C582 H596 0.950 . S
C583 C582 1.297 . S
C583 C584 1.479 . S
C583 H597 0.950 . S
C584 C583 1.479 . S
C584 C585 1.375 . S
C584 C590 1.404 . S
C585 C584 1.375 . S
C585 C586 1.369 . S
C585 H598 0.950 . S
C586 C585 1.369 . S
C586 C587 1.392 . S
C586 H599 0.951 . S
C587 C586 1.392 . S
C587 C589 1.384 . S
H588 C590 0.949 . S
C589 C587 1.384 . S
C589 C590 1.385 . S
C589 H591 0.950 . S
C590 C584 1.404 . S
C590 H588 0.949 . S
C590 C589 1.385 . S
H591 C589 0.950 . S
H592 C576 0.951 . S
H593 C578 0.951 . S
H594 C580 0.951 . S
H595 C581 0.950 . S
H596 C582 0.950 . S
H597 C583 0.950 . S
H598 C585 0.950 . S
H599 C586 0.951 . S
C600 C601 1.386 . S
C600 C602 1.383 . S
C600 H616 0.951 . S
C601 C600 1.386 . S
C601 C605 1.383 . S
C602 C600 1.383 . S
C602 C603 1.402 . S
C602 H617 0.951 . S
C603 C602 1.402 . S
C603 C604 1.375 . S
C603 C606 1.481 . S
C604 C603 1.375 . S
C604 C605 1.367 . S
C604 H618 0.957 . S
C605 C601 1.383 . S
C605 C604 1.367 . S
C605 H619 0.950 1_565 S
C606 C603 1.481 . S
C606 C607 1.297 . S
C606 H620 0.950 . S
C607 C606 1.297 . S
C607 C608 1.479 . S
C607 H621 0.950 . S
C608 C607 1.479 . S
C608 C609 1.375 . S
C608 C614 1.404 . S
C609 C608 1.375 . S
C609 C610 1.369 . S
C609 H622 0.950 . S
C610 C609 1.369 . S
C610 C611 1.392 . S
C610 H623 0.951 . S
C611 C610 1.392 . S
C611 C613 1.384 . S
H612 C614 0.949 . S
C613 C611 1.384 . S
C613 C614 1.385 . S
C613 H615 0.950 . S
C614 C608 1.404 . S
C614 H612 0.949 . S
C614 C613 1.385 . S
H615 C613 0.950 . S
H616 C600 0.951 . S
H617 C602 0.951 . S
H618 C604 0.957 . S
H619 C605 0.950 1_545 S
H620 C606 0.950 . S
H621 C607 0.950 . S
H622 C609 0.950 . S
H623 C610 0.951 . S
C624 C625 1.386 . S
C624 C626 1.383 . S
C624 H640 0.951 . S
C625 C624 1.386 . S
C625 C629 1.383 1_655 S
C626 C624 1.383 . S
C626 C627 1.402 1_655 S
C626 H641 0.951 . S
C627 C626 1.402 1_455 S
C627 C628 1.375 . S
C627 C630 1.481 . S
C628 C627 1.375 . S
C628 C629 1.367 . S
C628 H642 0.951 . S
C629 C625 1.383 1_455 S
C629 C628 1.367 . S
C629 H643 0.950 . S
C630 C627 1.481 . S
C630 C631 1.297 . S
C630 H644 0.950 . S
C631 C630 1.297 . S
C631 C632 1.479 . S
C631 H645 0.950 1_455 S
C632 C631 1.479 . S
C632 C633 1.375 . S
C632 C638 1.404 . S
C633 C632 1.375 . S
C633 C634 1.369 . S
C633 H646 0.950 1_455 S
C634 C633 1.369 . S
C634 C635 1.392 . S
C634 H647 0.951 . S
C635 C634 1.392 . S
C635 C637 1.384 . S
H636 C638 0.949 . S
C637 C635 1.384 . S
C637 C638 1.385 . S
C637 H639 0.950 . S
C638 C632 1.404 . S
C638 H636 0.949 . S
C638 C637 1.385 . S
H639 C637 0.950 . S
H640 C624 0.951 . S
H641 C626 0.951 . S
H642 C628 0.951 . S
H643 C629 0.950 . S
H644 C630 0.950 . S
H645 C631 0.950 1_655 S
H646 C633 0.950 1_655 S
H647 C634 0.951 . S
C648 C649 1.386 . S
C648 C650 1.383 . S
C648 H664 0.951 . S
C649 C648 1.386 . S
C649 C653 1.383 1_565 S
C650 C648 1.383 . S
C650 C651 1.402 1_565 S
C650 H665 0.951 . S
C651 C650 1.402 1_545 S
C651 C652 1.375 . S
C651 C654 1.481 . S
C652 C651 1.375 . S
C652 C653 1.367 . S
C652 H666 0.951 . S
C653 C649 1.383 1_545 S
C653 C652 1.367 . S
C653 H667 0.950 . S
C654 C651 1.481 . S
C654 C655 1.297 . S
C654 H668 0.950 . S
C655 C654 1.297 . S
C655 C656 1.479 . S
C655 H669 0.950 . S
C656 C655 1.479 . S
C656 C657 1.375 . S
C656 C662 1.404 . S
C657 C656 1.375 . S
C657 C658 1.369 . S
C657 H670 0.950 . S
C658 C657 1.369 . S
C658 C659 1.392 . S
C658 H671 0.951 . S
C659 C658 1.392 . S
C659 C661 1.384 . S
H660 C662 0.949 . S
C661 C659 1.384 . S
C661 C662 1.385 . S
C661 H663 0.950 . S
C662 C656 1.404 . S
C662 H660 0.949 . S
C662 C661 1.385 . S
H663 C661 0.950 . S
H664 C648 0.951 . S
H665 C650 0.951 . S
H666 C652 0.951 . S
H667 C653 0.950 . S
H668 C654 0.950 . S
H669 C655 0.950 . S
H670 C657 0.950 . S
H671 C658 0.951 . S
C241 C129 0.717 1_565 S
C251 C9 0.924 . S
C265 C169 0.713 . S
C275 C49 0.932 . S
C289 C209 0.870 1_545 S
C299 C89 0.676 1_655 S
C313 C15 0.661 . S
C323 C86 0.765 . S
C337 C55 0.738 . S
C347 C126 0.734 . S
C361 C95 0.673 . S
C371 C166 0.490 . S
C385 C135 0.649 . S
C395 C206 0.467 . S
C409 C175 0.568 . S
C419 C6 0.474 . S
C433 C215 0.735 . S
C443 C46 0.621 . S
C457 C18 1.110 . S
C467 C138 1.106 . S
C481 C58 1.078 . S
C491 C178 1.080 . S
C505 C98 1.072 . S
C515 C218 1.096 . S
C529 C10 3.981 . S
C539 C59 4.039 . S
C553 C50 3.991 . S
C563 C99 4.034 . S
C577 C90 3.978 . S
C587 C139 4.038 . S
C601 C130 3.972 . S
C611 C179 4.033 . S
C625 C170 3.979 . S
C635 C219 4.023 . S
C649 C210 3.975 . S
C659 C19 4.023 . S
