# Generated by pormake.
# Topology upa, (4)-cn, num edge types: 1
# Building blocks:
#     Node 0, Type 0, BuildingBlock: UXUYUI_clean_sbu_0, # of connection points: 4
#     Node 1, Type 0, BuildingBlock: UXUYUI_clean_sbu_0, # of connection points: 4
#     Node 2, Type 0, BuildingBlock: UXUYUI_clean_sbu_0, # of connection points: 4
#     Node 3, Type 0, BuildingBlock: UXUYUI_clean_sbu_0, # of connection points: 4
#     Node 4, Type 0, BuildingBlock: UXUYUI_clean_sbu_0, # of connection points: 4
#     Node 5, Type 0, BuildingBlock: UXUYUI_clean_sbu_0, # of connection points: 4
#     Node 6, Type 0, BuildingBlock: UXUYUI_clean_sbu_0, # of connection points: 4
#     Node 7, Type 0, BuildingBlock: UXUYUI_clean_sbu_0, # of connection points: 4
#     Edge 8, Type (0, 0), BuildingBlock: XUDNAN_clean_linker_2, # of connection points: 2
#     Edge 9, Type (0, 0), BuildingBlock: XUDNAN_clean_linker_2, # of connection points: 2
#     Edge 10, Type (0, 0), BuildingBlock: XUDNAN_clean_linker_2, # of connection points: 2
#     Edge 11, Type (0, 0), BuildingBlock: XUDNAN_clean_linker_2, # of connection points: 2
#     Edge 12, Type (0, 0), BuildingBlock: XUDNAN_clean_linker_2, # of connection points: 2
#     Edge 13, Type (0, 0), BuildingBlock: XUDNAN_clean_linker_2, # of connection points: 2
#     Edge 14, Type (0, 0), BuildingBlock: XUDNAN_clean_linker_2, # of connection points: 2
#     Edge 15, Type (0, 0), BuildingBlock: XUDNAN_clean_linker_2, # of connection points: 2
#     Edge 16, Type (0, 0), BuildingBlock: XUDNAN_clean_linker_2, # of connection points: 2
#     Edge 17, Type (0, 0), BuildingBlock: XUDNAN_clean_linker_2, # of connection points: 2
#     Edge 18, Type (0, 0), BuildingBlock: XUDNAN_clean_linker_2, # of connection points: 2
#     Edge 19, Type (0, 0), BuildingBlock: XUDNAN_clean_linker_2, # of connection points: 2
#     Edge 20, Type (0, 0), BuildingBlock: XUDNAN_clean_linker_2, # of connection points: 2
#     Edge 21, Type (0, 0), BuildingBlock: XUDNAN_clean_linker_2, # of connection points: 2
#     Edge 22, Type (0, 0), BuildingBlock: XUDNAN_clean_linker_2, # of connection points: 2
#     Edge 23, Type (0, 0), BuildingBlock: XUDNAN_clean_linker_2, # of connection points: 2
# Relax obj value: 0.344
# Max RMSD: 0.248
# Mean RMSD: 0.248
data_MOF--net-upa--node1-UXUYUI_clean_sbu_0--edge1-XUDNAN_clean_linker_2
_symmetry_space_group_name_H-M    P1
_symmetry_Int_Tables_number       1
_symmetry_cell_setting            triclinic
loop_
_symmetry_equiv_pos_as_xyz
'x, y, z'
_cell_length_a     38.553879
_cell_length_b     38.320409
_cell_length_c     63.171337
_cell_angle_alpha  89.977876
_cell_angle_beta   90.064632
_cell_angle_gamma 90.054145
loop_
_atom_site_label
_atom_site_type_symbol
_atom_site_fract_x
_atom_site_fract_y
_atom_site_fract_z
_atom_type_partial_charge
Li0 Li 0.13723 0.23829 0.31821 0.0
Li1 Li 0.16933 0.22206 0.35178 0.0
Li2 Li 0.19885 0.22029 0.31649 0.0
Li3 Li 0.15336 0.18076 0.32482 0.0
C4 C 0.16969 0.29389 0.33984 0.0
N5 N 0.15138 0.35757 0.35699 0.0
C6 C 0.14393 0.29574 0.35535 0.0
C7 C 0.18616 0.3244 0.33306 0.0
C8 C 0.13506 0.32818 0.36384 0.0
C9 C 0.1765 0.35636 0.34191 0.0
C10 C 0.09714 0.18691 0.3488 0.0
C11 C 0.07593 0.1431 0.37302 0.0
N12 N 0.04691 0.13942 0.36096 0.0
C13 C 0.06698 0.18283 0.33673 0.0
C14 C 0.10164 0.16692 0.36712 0.0
C15 C 0.04197 0.15859 0.34309 0.0
C16 C 0.08336 0.24204 0.28977 0.0
N17 N 0.09791 0.26141 0.30549 0.0
C18 C 0.04955 0.30069 0.30465 0.0
C19 C 0.08194 0.29068 0.31282 0.0
C20 C 0.0335 0.28031 0.28888 0.0
C21 C 0.05147 0.25122 0.28107 0.0
H22 H 0.09562 0.21819 0.28465 0.0
H23 H 0.09336 0.30543 0.32559 0.0
C24 C 0.21309 0.23356 0.386 0.0
N25 N 0.17899 0.22991 0.38101 0.0
C26 C 0.22353 0.2358 0.40712 0.0
C27 C 0.16344 0.23101 0.41764 0.0
C28 C 0.15411 0.22933 0.39626 0.0
C29 C 0.1986 0.23389 0.42327 0.0
H30 H 0.23228 0.23375 0.37352 0.0
H31 H 0.12711 0.22684 0.39187 0.0
C32 C 0.16537 0.22264 0.27903 0.0
N33 N 0.17531 0.25605 0.24072 0.0
C34 C 0.16496 0.20361 0.26016 0.0
C35 C 0.17087 0.25872 0.27839 0.0
C36 C 0.17004 0.22096 0.24096 0.0
C37 C 0.17581 0.27511 0.25887 0.0
C38 C 0.20766 0.15181 0.3438 0.0
C39 C 0.21874 0.12982 0.32752 0.0
C40 C 0.20611 0.13932 0.36456 0.0
C41 C 0.22775 0.09539 0.33229 0.0
C42 C 0.21542 0.10475 0.36868 0.0
N43 N 0.22591 0.08368 0.35259 0.0
C44 C 0.26753 0.24601 0.31227 0.0
C45 C 0.25165 0.20199 0.28776 0.0
C46 C 0.30181 0.24529 0.30502 0.0
N47 N 0.24345 0.22423 0.30374 0.0
C48 C 0.28551 0.20053 0.27996 0.0
C49 C 0.31132 0.22188 0.28889 0.0
H50 H 0.26037 0.26309 0.32518 0.0
H51 H 0.23218 0.18438 0.2816 0.0
C52 C 0.11672 0.13401 0.30064 0.0
N53 N 0.13381 0.13585 0.31943 0.0
C54 C 0.09366 0.10685 0.29664 0.0
C55 C 0.10746 0.08275 0.33099 0.0
C56 C 0.13057 0.11031 0.33427 0.0
C57 C 0.08786 0.08154 0.31225 0.0
H58 H 0.119 0.155 0.28932 0.0
H59 H 0.14367 0.11265 0.3493 0.0
O60 O 0.17929 0.26242 0.33148 0.0
O61 O 0.12217 0.21018 0.34267 0.0
O62 O 0.16047 0.20569 0.29791 0.0
O63 O 0.19875 0.18555 0.33948 0.0
H64 H 0.13057 0.27251 0.3606 0.0
H65 H 0.20622 0.32336 0.3211 0.0
H66 H 0.1151 0.33 0.37581 0.0
H67 H 0.18901 0.38019 0.3368 0.0
H68 H 0.07923 0.12728 0.38706 0.0
H69 H 0.063 0.19799 0.32252 0.0
H70 H 0.12512 0.16908 0.3764 0.0
H71 H 0.01865 0.15499 0.33381 0.0
H72 H 0.0366 0.32321 0.31131 0.0
H73 H 0.04064 0.23501 0.26868 0.0
H74 H 0.25091 0.23774 0.4108 0.0
H75 H 0.14343 0.22987 0.42965 0.0
H76 H 0.16086 0.17566 0.26036 0.0
H77 H 0.17113 0.27407 0.2927 0.0
H78 H 0.1698 0.20652 0.22625 0.0
H79 H 0.18002 0.303 0.25816 0.0
H80 H 0.22005 0.13917 0.31138 0.0
H81 H 0.19762 0.15607 0.37733 0.0
H82 H 0.23618 0.07798 0.31984 0.0
H83 H 0.21423 0.09464 0.38465 0.0
H84 H 0.32077 0.26247 0.31221 0.0
H85 H 0.29172 0.18176 0.26773 0.0
H86 H 0.07872 0.10713 0.28211 0.0
H87 H 0.10372 0.06357 0.34338 0.0
Li88 Li 0.27284 0.7013 0.82205 0.0
Li89 Li 0.26857 0.67088 0.85617 0.0
Li90 Li 0.31396 0.65578 0.83236 0.0
Li91 Li 0.25598 0.63542 0.82419 0.0
C92 C 0.33408 0.71796 0.85296 0.0
N93 N 0.39209 0.75237 0.86795 0.0
C94 C 0.34619 0.71147 0.87344 0.0
C95 C 0.35113 0.74234 0.8402 0.0
C96 C 0.37567 0.72901 0.88069 0.0
C97 C 0.3805 0.75938 0.84805 0.0
C98 C 0.20345 0.6799 0.84877 0.0
C99 C 0.16557 0.65209 0.874 0.0
N100 N 0.15188 0.68376 0.87896 0.0
C101 C 0.18897 0.71215 0.85402 0.0
C102 C 0.19166 0.64958 0.85875 0.0
C103 C 0.16291 0.71355 0.86936 0.0
C104 C 0.26646 0.75055 0.78765 0.0
N105 N 0.26753 0.74573 0.80897 0.0
C106 C 0.26546 0.80726 0.81486 0.0
C107 C 0.26693 0.77317 0.82255 0.0
C108 C 0.26426 0.81338 0.79292 0.0
C109 C 0.26473 0.78437 0.77923 0.0
H110 H 0.26728 0.72821 0.7772 0.0
H111 H 0.26829 0.76852 0.83942 0.0
C112 C 0.26202 0.66 0.90175 0.0
N113 N 0.25946 0.68275 0.88529 0.0
C114 C 0.26391 0.6723 0.92255 0.0
C115 C 0.25631 0.73086 0.90934 0.0
C116 C 0.25577 0.71753 0.88878 0.0
C117 C 0.26209 0.7084 0.92664 0.0
H118 H 0.26437 0.63245 0.89888 0.0
H119 H 0.25395 0.73517 0.87546 0.0
C120 C 0.31456 0.65515 0.79066 0.0
N121 N 0.36806 0.643 0.7626 0.0
C122 C 0.31755 0.62272 0.78072 0.0
C123 C 0.33854 0.6815 0.78622 0.0
C124 C 0.34485 0.61707 0.76661 0.0
C125 C 0.36547 0.67481 0.77202 0.0
C126 C 0.29633 0.60449 0.86566 0.0
C127 C 0.32742 0.61337 0.87572 0.0
C128 C 0.2771 0.57599 0.87303 0.0
C129 C 0.33892 0.59344 0.89286 0.0
C130 C 0.28947 0.55673 0.89023 0.0
N131 N 0.31987 0.56576 0.89969 0.0
C132 C 0.39004 0.65364 0.83336 0.0
C133 C 0.35796 0.6023 0.82584 0.0
C134 C 0.42089 0.63448 0.83391 0.0
N135 N 0.35936 0.63708 0.82984 0.0
C136 C 0.38793 0.58227 0.82621 0.0
C137 C 0.41988 0.59816 0.83074 0.0
H138 H 0.39062 0.68131 0.83641 0.0
H139 H 0.33313 0.58985 0.82322 0.0
C140 C 0.21668 0.60007 0.79211 0.0
N141 N 0.23588 0.59629 0.81003 0.0
C142 C 0.21053 0.57126 0.77895 0.0
C143 C 0.24256 0.53517 0.80348 0.0
C144 C 0.24841 0.5646 0.81596 0.0
C145 C 0.22435 0.53843 0.78435 0.0
H146 H 0.20809 0.62576 0.78733 0.0
H147 H 0.26523 0.56255 0.82954 0.0
O148 O 0.30509 0.70134 0.84562 0.0
O149 O 0.22969 0.67799 0.83432 0.0
O150 O 0.28851 0.66098 0.80487 0.0
O151 O 0.28464 0.62342 0.84869 0.0
H152 H 0.33292 0.69322 0.88369 0.0
H153 H 0.34186 0.74795 0.82439 0.0
H154 H 0.38543 0.72413 0.89648 0.0
H155 H 0.39408 0.77817 0.83832 0.0
H156 H 0.15629 0.62889 0.88195 0.0
H157 H 0.19801 0.73584 0.84648 0.0
H158 H 0.20283 0.62446 0.85491 0.0
H159 H 0.15155 0.73834 0.87368 0.0
H160 H 0.26596 0.8286 0.82608 0.0
H161 H 0.26355 0.78772 0.76222 0.0
H162 H 0.26855 0.65359 0.93505 0.0
H163 H 0.25336 0.75871 0.91144 0.0
H164 H 0.29919 0.60205 0.78401 0.0
H165 H 0.33651 0.70673 0.7938 0.0
H166 H 0.34763 0.59204 0.75888 0.0
H167 H 0.38435 0.6949 0.76851 0.0
H168 H 0.34256 0.63538 0.87041 0.0
H169 H 0.2526 0.56912 0.86577 0.0
H170 H 0.36298 0.60001 0.90074 0.0
H171 H 0.27481 0.53469 0.89611 0.0
H172 H 0.44509 0.64775 0.83726 0.0
H173 H 0.38574 0.55432 0.82403 0.0
H174 H 0.19639 0.5749 0.76429 0.0
H175 H 0.25443 0.51066 0.808 0.0
Li176 Li 0.87141 0.76397 0.32808 0.0
Li177 Li 0.83387 0.76836 0.35908 0.0
Li178 Li 0.80888 0.76882 0.32149 0.0
Li179 Li 0.84461 0.81738 0.33569 0.0
C180 C 0.83994 0.69855 0.32747 0.0
N181 N 0.8525 0.63511 0.30817 0.0
C182 C 0.85508 0.67128 0.33892 0.0
C183 C 0.83063 0.69332 0.30633 0.0
C184 C 0.8614 0.63947 0.32884 0.0
C185 C 0.83732 0.66112 0.29682 0.0
C186 C 0.90257 0.77867 0.36726 0.0
C187 C 0.94608 0.78454 0.39454 0.0
N188 N 0.95239 0.74968 0.39342 0.0
C189 C 0.90964 0.74293 0.36635 0.0
C190 C 0.92109 0.7997 0.38141 0.0
C191 C 0.93486 0.72876 0.37969 0.0
C192 C 0.94041 0.77518 0.32055 0.0
N193 N 0.91593 0.75064 0.31609 0.0
C194 C 0.95395 0.72431 0.29061 0.0
C195 C 0.92236 0.72485 0.30176 0.0
C196 C 0.97857 0.75075 0.29423 0.0
C197 C 0.97193 0.77554 0.30996 0.0
H198 H 0.93449 0.79643 0.33114 0.0
H199 H 0.90235 0.70616 0.29792 0.0
C200 C 0.78508 0.75967 0.39076 0.0
N201 N 0.81998 0.75879 0.38776 0.0
C202 C 0.7713 0.7615 0.41117 0.0
C203 C 0.82949 0.75907 0.42523 0.0
C204 C 0.84216 0.75732 0.40453 0.0
C205 C 0.79368 0.76249 0.42873 0.0
H206 H 0.76793 0.76096 0.37722 0.0
H207 H 0.86975 0.75669 0.40207 0.0
C208 C 0.86692 0.79691 0.29043 0.0
N209 N 0.90992 0.79993 0.25549 0.0
C210 C 0.89387 0.82133 0.2896 0.0
C211 C 0.86165 0.77428 0.27338 0.0
C212 C 0.91531 0.82244 0.2718 0.0
C213 C 0.88377 0.7761 0.25591 0.0
C214 C 0.78385 0.83123 0.35015 0.0
C215 C 0.76258 0.8468 0.33493 0.0
C216 C 0.78995 0.84818 0.36938 0.0
C217 C 0.74769 0.87925 0.33923 0.0
C218 C 0.77459 0.8806 0.37307 0.0
N219 N 0.75396 0.89534 0.35805 0.0
C220 C 0.74129 0.74338 0.31639 0.0
C221 C 0.76172 0.77604 0.28707 0.0
C222 C 0.70776 0.74296 0.30798 0.0
N223 N 0.76721 0.76034 0.30609 0.0
C224 C 0.72856 0.77614 0.27802 0.0
C225 C 0.7008 0.76037 0.28884 0.0
H226 H 0.7463 0.73172 0.33169 0.0
H227 H 0.7826 0.79018 0.27951 0.0
C228 C 0.87418 0.87968 0.34862 0.0
N229 N 0.85256 0.86577 0.33393 0.0
C230 C 0.89179 0.91061 0.34433 0.0
C231 C 0.86135 0.91423 0.31089 0.0
C232 C 0.8444 0.88306 0.31583 0.0
C233 C 0.88695 0.9272 0.32469 0.0
H234 H 0.88018 0.86511 0.36279 0.0
H235 H 0.82741 0.87098 0.30432 0.0
O236 O 0.83356 0.72991 0.33706 0.0
O237 O 0.87848 0.79333 0.354 0.0
O238 O 0.84589 0.79513 0.30786 0.0
O239 O 0.79932 0.79991 0.34605 0.0
H240 H 0.86176 0.67456 0.35544 0.0
H241 H 0.8184 0.71389 0.29734 0.0
H242 H 0.87328 0.61822 0.33747 0.0
H243 H 0.83043 0.65681 0.28042 0.0
H244 H 0.96049 0.80051 0.4056 0.0
H245 H 0.89605 0.72638 0.35534 0.0
H246 H 0.91624 0.82744 0.38231 0.0
H247 H 0.94055 0.70114 0.37911 0.0
H248 H 0.9581 0.70496 0.27839 0.0
H249 H 0.99021 0.79639 0.31317 0.0
H250 H 0.74347 0.76344 0.41311 0.0
H251 H 0.84777 0.75993 0.43825 0.0
H252 H 0.89867 0.83881 0.30271 0.0
H253 H 0.84079 0.75543 0.27363 0.0
H254 H 0.93634 0.8411 0.27102 0.0
H255 H 0.88012 0.75857 0.24267 0.0
H256 H 0.75781 0.83407 0.31992 0.0
H257 H 0.80663 0.83653 0.38123 0.0
H258 H 0.73122 0.89169 0.32759 0.0
H259 H 0.77914 0.8941 0.38785 0.0
H260 H 0.68723 0.73016 0.31674 0.0
H261 H 0.7243 0.7902 0.26337 0.0
H262 H 0.91137 0.9194 0.35541 0.0
H263 H 0.85642 0.92652 0.29574 0.0
Li264 Li 0.7432 0.3619 0.8275 0.0
Li265 Li 0.68509 0.34058 0.83742 0.0
Li266 Li 0.73521 0.32513 0.85978 0.0
Li267 Li 0.72678 0.29923 0.82388 0.0
C268 C 0.71702 0.4032 0.86244 0.0
N269 N 0.71798 0.46867 0.8808 0.0
C270 C 0.69276 0.42841 0.85637 0.0
C271 C 0.74145 0.41118 0.87809 0.0
C272 C 0.69375 0.46138 0.86577 0.0
C273 C 0.74161 0.44446 0.8871 0.0
C274 C 0.70617 0.33511 0.78813 0.0
C275 C 0.67812 0.31218 0.75693 0.0
N276 N 0.70531 0.32323 0.74498 0.0
C277 C 0.73376 0.34641 0.77551 0.0
C278 C 0.678 0.31806 0.77876 0.0
C279 C 0.73285 0.34012 0.75373 0.0
C280 C 0.79547 0.41077 0.81035 0.0
N281 N 0.76174 0.40351 0.81496 0.0
C282 C 0.74348 0.4578 0.79993 0.0
C283 C 0.73597 0.4261 0.80971 0.0
C284 C 0.77793 0.46624 0.79499 0.0
C285 C 0.80418 0.44222 0.80026 0.0
H286 H 0.8155 0.39205 0.81412 0.0
H287 H 0.7093 0.41906 0.81277 0.0
C288 C 0.62582 0.3647 0.85805 0.0
N289 N 0.6398 0.35838 0.83871 0.0
C290 C 0.59881 0.38862 0.86012 0.0
C291 C 0.59985 0.39719 0.82217 0.0
C292 C 0.62674 0.37304 0.82084 0.0
C293 C 0.58665 0.40642 0.84212 0.0
H294 H 0.63766 0.35357 0.87204 0.0
H295 H 0.63929 0.36852 0.8058 0.0
C296 C 0.80354 0.32392 0.8441 0.0
N297 N 0.86908 0.33194 0.86113 0.0
C298 C 0.82711 0.29625 0.8436 0.0
C299 C 0.81328 0.35564 0.85322 0.0
C300 C 0.86014 0.30083 0.8523 0.0
C301 C 0.84654 0.35921 0.86174 0.0
C302 C 0.6644 0.28155 0.85287 0.0
C303 C 0.65187 0.27734 0.87346 0.0
C304 C 0.64308 0.27339 0.83567 0.0
C305 C 0.61795 0.26548 0.87649 0.0
C306 C 0.60933 0.2616 0.83934 0.0
N307 N 0.59755 0.25796 0.85951 0.0
C308 C 0.72016 0.3285 0.90208 0.0
C309 C 0.77559 0.30335 0.89661 0.0
C310 C 0.72265 0.32292 0.92383 0.0
N311 N 0.74613 0.31829 0.88894 0.0
C312 C 0.77948 0.2979 0.91842 0.0
C313 C 0.75248 0.30723 0.93222 0.0
H314 H 0.69711 0.34045 0.89553 0.0
H315 H 0.79577 0.29514 0.88587 0.0
C316 C 0.74531 0.25702 0.78795 0.0
N317 N 0.73056 0.25709 0.8075 0.0
C318 C 0.74317 0.22737 0.7751 0.0
C319 C 0.71361 0.19732 0.80345 0.0
C320 C 0.7158 0.22771 0.8156 0.0
C321 C 0.72654 0.19724 0.7827 0.0
H322 H 0.75796 0.2802 0.78207 0.0
H323 H 0.70479 0.22811 0.83132 0.0
O324 O 0.71621 0.37057 0.85361 0.0
O325 O 0.70647 0.34116 0.80948 0.0
O326 O 0.77089 0.31955 0.83607 0.0
O327 O 0.69732 0.29369 0.8495 0.0
H328 H 0.6734 0.4227 0.84447 0.0
H329 H 0.75998 0.39184 0.88333 0.0
H330 H 0.67521 0.48115 0.86114 0.0
H331 H 0.76045 0.451 0.89917 0.0
H332 H 0.65656 0.29888 0.74949 0.0
H333 H 0.75589 0.35942 0.78244 0.0
H334 H 0.65623 0.3095 0.78821 0.0
H335 H 0.75412 0.34854 0.74381 0.0
H336 H 0.72235 0.47503 0.79566 0.0
H337 H 0.83107 0.44765 0.79658 0.0
H338 H 0.58908 0.39473 0.87576 0.0
H339 H 0.59165 0.41062 0.80793 0.0
H340 H 0.81986 0.27146 0.83666 0.0
H341 H 0.79541 0.37732 0.8536 0.0
H342 H 0.87864 0.27962 0.85208 0.0
H343 H 0.85442 0.38364 0.86885 0.0
H344 H 0.6681 0.28311 0.88697 0.0
H345 H 0.65251 0.27624 0.81966 0.0
H346 H 0.60786 0.26223 0.89234 0.0
H347 H 0.5925 0.25535 0.82616 0.0
H348 H 0.70147 0.33082 0.93401 0.0
H349 H 0.80285 0.28565 0.92437 0.0
H350 H 0.75401 0.22813 0.75929 0.0
H351 H 0.70061 0.17461 0.80989 0.0
Li352 Li 0.64478 0.30764 0.17775 0.0
Li353 Li 0.69359 0.26896 0.19092 0.0
Li354 Li 0.66931 0.26376 0.1531 0.0
Li355 Li 0.63553 0.24772 0.18381 0.0
C356 C 0.70946 0.33408 0.16186 0.0
N357 N 0.74325 0.39533 0.15136 0.0
C358 C 0.72605 0.35374 0.17751 0.0
C359 C 0.71045 0.34537 0.14081 0.0
C360 C 0.74289 0.38469 0.1719 0.0
C361 C 0.72753 0.37646 0.13584 0.0
C362 C 0.63614 0.27306 0.22344 0.0
C363 C 0.63808 0.23932 0.25565 0.0
N364 N 0.6058 0.25092 0.2607 0.0
C365 C 0.60311 0.2849 0.22904 0.0
C366 C 0.65388 0.25022 0.23688 0.0
C367 C 0.58815 0.27327 0.2479 0.0
C368 C 0.58624 0.34552 0.1814 0.0
N369 N 0.62113 0.35039 0.18129 0.0
C370 C 0.614 0.41108 0.1887 0.0
C371 C 0.63543 0.38229 0.18491 0.0
C372 C 0.57781 0.40662 0.18864 0.0
C373 C 0.56402 0.37336 0.18491 0.0
H374 H 0.57565 0.31968 0.17913 0.0
H375 H 0.66324 0.38538 0.18518 0.0
C376 C 0.76315 0.25057 0.2015 0.0
N377 N 0.73518 0.26994 0.20725 0.0
C378 C 0.79485 0.25477 0.21204 0.0
C379 C 0.76808 0.29827 0.23437 0.0
C380 C 0.73688 0.29295 0.22359 0.0
C381 C 0.79775 0.27946 0.22841 0.0
H382 H 0.7611 0.23268 0.18831 0.0
H383 H 0.71424 0.30812 0.22775 0.0
C384 C 0.60432 0.28955 0.14176 0.0
N385 N 0.57238 0.3199 0.10716 0.0
C386 C 0.57536 0.2737 0.13249 0.0
C387 C 0.61686 0.32094 0.1335 0.0
C388 C 0.55963 0.28941 0.11499 0.0
C389 C 0.6004 0.33585 0.11599 0.0
C390 C 0.6714 0.19207 0.17675 0.0
C391 C 0.64744 0.17708 0.16285 0.0
C392 C 0.68543 0.17218 0.1932 0.0
C393 C 0.63756 0.14234 0.1658 0.0
C394 C 0.67496 0.13748 0.19557 0.0
N395 N 0.65141 0.12343 0.18196 0.0
C396 C 0.71975 0.25724 0.12161 0.0
C397 C 0.66286 0.25726 0.10759 0.0
C398 C 0.73384 0.25892 0.10125 0.0
N399 N 0.68482 0.25738 0.12444 0.0
C400 C 0.67576 0.25999 0.087 0.0
C401 C 0.71181 0.2617 0.08351 0.0
H402 H 0.73672 0.25716 0.13526 0.0
H403 H 0.63524 0.25643 0.10999 0.0
C404 C 0.5659 0.23459 0.18939 0.0
N405 N 0.59712 0.22111 0.19517 0.0
C406 C 0.53591 0.22619 0.20056 0.0
C407 C 0.57001 0.18827 0.22287 0.0
C408 C 0.59954 0.19739 0.21116 0.0
C409 C 0.53784 0.20379 0.21809 0.0
H410 H 0.56454 0.2543 0.17725 0.0
H411 H 0.62463 0.18779 0.21603 0.0
O412 O 0.69323 0.30345 0.16701 0.0
O413 O 0.651 0.28358 0.20485 0.0
O414 O 0.61975 0.27454 0.15905 0.0
O415 O 0.68114 0.22607 0.17422 0.0
H416 H 0.72556 0.34548 0.19385 0.0
H417 H 0.69819 0.33032 0.1284 0.0
H418 H 0.75563 0.40027 0.18389 0.0
H419 H 0.72836 0.38555 0.11963 0.0
H420 H 0.6514 0.22147 0.26614 0.0
H421 H 0.58901 0.30254 0.21881 0.0
H422 H 0.67937 0.24064 0.23272 0.0
H423 H 0.56246 0.28191 0.25233 0.0
H424 H 0.62548 0.43645 0.19156 0.0
H425 H 0.5363 0.36873 0.18518 0.0
H426 H 0.81717 0.23992 0.20686 0.0
H427 H 0.76911 0.31726 0.24705 0.0
H428 H 0.56533 0.24932 0.13862 0.0
H429 H 0.63883 0.33383 0.14062 0.0
H430 H 0.53731 0.27735 0.10761 0.0
H431 H 0.60987 0.36015 0.10945 0.0
H432 H 0.63641 0.19226 0.15004 0.0
H433 H 0.70403 0.18352 0.20406 0.0
H434 H 0.61888 0.13041 0.15525 0.0
H435 H 0.68546 0.12176 0.20827 0.0
H436 H 0.76177 0.25887 0.09959 0.0
H437 H 0.65735 0.26226 0.07415 0.0
H438 H 0.51201 0.2394 0.19647 0.0
H439 H 0.57272 0.17073 0.23621 0.0
Li440 Li 0.23159 0.19961 0.68166 0.0
Li441 Li 0.23631 0.16758 0.64712 0.0
Li442 Li 0.19164 0.15267 0.67265 0.0
Li443 Li 0.25021 0.13631 0.68133 0.0
C444 C 0.16688 0.2137 0.65796 0.0
N445 N 0.10282 0.24595 0.65863 0.0
C446 C 0.14992 0.22171 0.639 0.0
C447 C 0.15131 0.22221 0.67723 0.0
C448 C 0.11753 0.23799 0.63968 0.0
C449 C 0.11892 0.23848 0.67726 0.0
C450 C 0.30639 0.16831 0.66067 0.0
C451 C 0.34234 0.12648 0.64247 0.0
N452 N 0.37012 0.148 0.64497 0.0
C453 C 0.3353 0.18998 0.66308 0.0
C454 C 0.30991 0.13626 0.6503 0.0
C455 C 0.3673 0.17925 0.65502 0.0
C456 C 0.24615 0.25124 0.71391 0.0
N457 N 0.23579 0.24523 0.69365 0.0
C458 C 0.2267 0.30621 0.68798 0.0
C459 C 0.22656 0.27191 0.68066 0.0
C460 C 0.23707 0.31352 0.70886 0.0
C461 C 0.24703 0.28539 0.72189 0.0
H462 H 0.25349 0.22954 0.72392 0.0
H463 H 0.2186 0.26648 0.66458 0.0
C464 C 0.21393 0.16996 0.60578 0.0
N465 N 0.24322 0.17409 0.61747 0.0
C466 C 0.21373 0.17789 0.58424 0.0
C467 C 0.2744 0.19309 0.58683 0.0
C468 C 0.27328 0.18527 0.60848 0.0
C469 C 0.24416 0.19001 0.57443 0.0
H470 H 0.19029 0.16147 0.61341 0.0
H471 H 0.29615 0.18904 0.6181 0.0
C472 C 0.20151 0.15257 0.71876 0.0
N473 N 0.17242 0.13662 0.75758 0.0
C474 C 0.20091 0.11805 0.726 0.0
C475 C 0.1875 0.17897 0.73139 0.0
C476 C 0.18607 0.11053 0.74564 0.0
C477 C 0.17283 0.17037 0.75093 0.0
C478 C 0.20503 0.09113 0.65147 0.0
C479 C 0.19234 0.06911 0.66734 0.0
C480 C 0.1993 0.08263 0.63024 0.0
C481 C 0.17364 0.03929 0.66171 0.0
C482 C 0.18052 0.05254 0.62524 0.0
N483 N 0.16817 0.03168 0.64095 0.0
C484 C 0.1317 0.12989 0.65314 0.0
C485 C 0.12958 0.12241 0.69034 0.0
C486 C 0.1038 0.10718 0.65045 0.0
N487 N 0.14518 0.13542 0.67274 0.0
C488 C 0.10165 0.09948 0.68839 0.0
C489 C 0.08969 0.09019 0.66815 0.0
H490 H 0.14464 0.14057 0.63941 0.0
H491 H 0.14014 0.12755 0.70578 0.0
C492 C 0.28342 0.10421 0.71614 0.0
N493 N 0.27478 0.09965 0.69547 0.0
C494 C 0.28841 0.07523 0.72925 0.0
C495 C 0.27946 0.03768 0.69902 0.0
C496 C 0.27471 0.06739 0.6865 0.0
C497 C 0.28444 0.04137 0.72095 0.0
H498 H 0.28288 0.13011 0.72294 0.0
H499 H 0.26779 0.06443 0.67001 0.0
O500 O 0.19842 0.19734 0.6577 0.0
O501 O 0.27494 0.17856 0.6685 0.0
O502 O 0.21656 0.1607 0.69975 0.0
O503 O 0.22305 0.12077 0.65665 0.0
H504 H 0.16164 0.21557 0.62392 0.0
H505 H 0.16406 0.21613 0.69201 0.0
H506 H 0.1041 0.24432 0.62514 0.0
H507 H 0.10656 0.24512 0.69208 0.0
H508 H 0.34542 0.1018 0.63439 0.0
H509 H 0.333 0.21485 0.67108 0.0
H510 H 0.2879 0.11917 0.64818 0.0
H511 H 0.38988 0.19578 0.65675 0.0
H512 H 0.21814 0.32669 0.6774 0.0
H513 H 0.25565 0.28966 0.73799 0.0
H514 H 0.18955 0.17571 0.57562 0.0
H515 H 0.29862 0.20187 0.58 0.0
H516 H 0.21147 0.09718 0.71654 0.0
H517 H 0.18803 0.20587 0.72624 0.0
H518 H 0.18538 0.08392 0.75136 0.0
H519 H 0.16185 0.19056 0.76082 0.0
H520 H 0.19651 0.07521 0.68382 0.0
H521 H 0.20937 0.09899 0.61773 0.0
H522 H 0.16338 0.02225 0.67384 0.0
H523 H 0.17581 0.04573 0.60887 0.0
H524 H 0.09484 0.10133 0.63459 0.0
H525 H 0.09148 0.0871 0.70249 0.0
H526 H 0.29286 0.07929 0.746 0.0
H527 H 0.27618 0.01219 0.69191 0.0
Li528 Li 0.31005 0.73941 0.18707 0.0
Li529 Li 0.34907 0.69174 0.17486 0.0
Li530 Li 0.37243 0.74845 0.18029 0.0
Li531 Li 0.33576 0.73728 0.15011 0.0
C532 C 0.36608 0.72575 0.21999 0.0
N533 N 0.40242 0.74348 0.25614 0.0
C534 C 0.39559 0.70686 0.22582 0.0
C535 C 0.35489 0.75348 0.23261 0.0
C536 C 0.41367 0.71631 0.24413 0.0
C537 C 0.37363 0.76204 0.25083 0.0
C538 C 0.28975 0.67115 0.16319 0.0
C539 C 0.2851 0.61506 0.14612 0.0
N540 N 0.26645 0.60296 0.16285 0.0
C541 C 0.27054 0.65819 0.18021 0.0
C542 C 0.29711 0.64946 0.14599 0.0
C543 C 0.25897 0.62364 0.17974 0.0
C544 C 0.24425 0.76837 0.19203 0.0
N545 N 0.26867 0.74924 0.20228 0.0
C546 C 0.22993 0.73914 0.23122 0.0
C547 C 0.26228 0.73474 0.22154 0.0
C548 C 0.20395 0.75852 0.2209 0.0
C549 C 0.21162 0.77339 0.20108 0.0
H550 H 0.24987 0.77895 0.17653 0.0
H551 H 0.282 0.71904 0.22914 0.0
C552 C 0.37857 0.62752 0.16395 0.0
N553 N 0.36112 0.64465 0.17941 0.0
C554 C 0.39647 0.59696 0.16862 0.0
C555 C 0.37639 0.60117 0.2048 0.0
C556 C 0.35851 0.63153 0.19934 0.0
C557 C 0.39674 0.58433 0.18948 0.0
H558 H 0.38066 0.63883 0.14839 0.0
H559 H 0.34471 0.64602 0.21136 0.0
C560 C 0.34323 0.81066 0.17487 0.0
N561 N 0.36538 0.87739 0.18437 0.0
C562 C 0.36867 0.82668 0.16248 0.0
C563 C 0.32881 0.82861 0.19198 0.0
C564 C 0.37962 0.86041 0.16759 0.0
C565 C 0.3404 0.86235 0.19654 0.0
C566 C 0.39886 0.72124 0.13773 0.0
C567 C 0.42288 0.74835 0.13536 0.0
C568 C 0.39219 0.69897 0.12066 0.0
C569 C 0.44005 0.75246 0.11605 0.0
C570 C 0.40983 0.70401 0.10159 0.0
N571 N 0.43323 0.7304 0.09971 0.0
C572 C 0.44269 0.74544 0.18907 0.0
C573 C 0.41737 0.79494 0.20526 0.0
C574 C 0.4736 0.7507 0.20011 0.0
N575 N 0.41514 0.76711 0.19194 0.0
C576 C 0.44789 0.80111 0.21674 0.0
C577 C 0.47627 0.77829 0.21461 0.0
H578 H 0.43998 0.72262 0.17916 0.0
H579 H 0.39492 0.81104 0.20809 0.0
C580 C 0.29601 0.73015 0.11302 0.0
N581 N 0.32434 0.74665 0.12104 0.0
C582 C 0.28786 0.73286 0.09155 0.0
C583 C 0.33761 0.7704 0.08697 0.0
C584 C 0.34437 0.76753 0.10865 0.0
C585 C 0.30925 0.7525 0.078 0.0
H586 H 0.27987 0.71448 0.12326 0.0
H587 H 0.3663 0.78107 0.11542 0.0
O588 O 0.34869 0.71767 0.20175 0.0
O589 O 0.30221 0.70456 0.16366 0.0
O590 O 0.33207 0.77776 0.1701 0.0
O591 O 0.38188 0.7166 0.15658 0.0
H592 H 0.4048 0.68555 0.21611 0.0
H593 H 0.33229 0.76855 0.22821 0.0
H594 H 0.43676 0.70218 0.24871 0.0
H595 H 0.36541 0.78358 0.26067 0.0
H596 H 0.29075 0.59793 0.13296 0.0
H597 H 0.26486 0.67453 0.19372 0.0
H598 H 0.31232 0.65896 0.1328 0.0
H599 H 0.24415 0.61322 0.19283 0.0
H600 H 0.22532 0.72745 0.24657 0.0
H601 H 0.19231 0.78799 0.19233 0.0
H602 H 0.41218 0.58502 0.1564 0.0
H603 H 0.37583 0.59205 0.22102 0.0
H604 H 0.37993 0.81315 0.14913 0.0
H605 H 0.30897 0.81658 0.20166 0.0
H606 H 0.39943 0.87309 0.15821 0.0
H607 H 0.32958 0.87654 0.20978 0.0
H608 H 0.42797 0.76636 0.14814 0.0
H609 H 0.373 0.67851 0.12189 0.0
H610 H 0.45865 0.77335 0.11402 0.0
H611 H 0.40474 0.68708 0.08825 0.0
H612 H 0.49437 0.73195 0.19828 0.0
H613 H 0.44877 0.82274 0.22775 0.0
H614 H 0.26505 0.7195 0.08568 0.0
H615 H 0.35513 0.78569 0.07732 0.0
Li616 Li 0.74949 0.86452 0.68341 0.0
Li617 Li 0.80994 0.84555 0.67676 0.0
Li618 Li 0.76348 0.82416 0.6538 0.0
Li619 Li 0.76989 0.80169 0.6889 0.0
C620 C 0.78163 0.88506 0.63826 0.0
N621 N 0.78679 0.90634 0.59657 0.0
C622 C 0.81365 0.88421 0.62791 0.0
C623 C 0.75223 0.89673 0.62738 0.0
C624 C 0.81573 0.89512 0.60684 0.0
C625 C 0.75538 0.90736 0.60631 0.0
C626 C 0.80842 0.85889 0.71741 0.0
C627 C 0.8613 0.85338 0.7376 0.0
N628 N 0.85918 0.88767 0.74298 0.0
C629 C 0.80671 0.89406 0.72322 0.0
C630 C 0.83588 0.83835 0.72473 0.0
C631 C 0.83263 0.90812 0.73613 0.0
C632 C 0.71287 0.90841 0.71328 0.0
N633 N 0.72658 0.90573 0.6935 0.0
C634 C 0.72243 0.96745 0.68859 0.0
C635 C 0.73098 0.93439 0.68111 0.0
C636 C 0.70952 0.97144 0.70922 0.0
C637 C 0.70415 0.94127 0.72152 0.0
H638 H 0.71059 0.88537 0.72308 0.0
H639 H 0.74308 0.93196 0.66582 0.0
C640 C 0.88489 0.84912 0.6747 0.0
N641 N 0.85432 0.86621 0.67729 0.0
C642 C 0.91591 0.86802 0.67369 0.0
C643 C 0.88307 0.92125 0.67828 0.0
C644 C 0.85291 0.90148 0.6791 0.0
C645 C 0.9151 0.90461 0.67537 0.0
H646 H 0.88512 0.82108 0.67293 0.0
H647 H 0.82806 0.9143 0.68066 0.0
C648 C 0.69458 0.81729 0.66537 0.0
N649 N 0.6313 0.81292 0.64496 0.0
C650 C 0.68138 0.78481 0.65929 0.0
C651 C 0.67549 0.84753 0.66119 0.0
C652 C 0.64937 0.78316 0.64894 0.0
C653 C 0.64357 0.84478 0.65083 0.0
C654 C 0.81584 0.76531 0.66612 0.0
C655 C 0.80239 0.73981 0.65256 0.0
C656 C 0.84121 0.75618 0.68093 0.0
C657 C 0.81428 0.70549 0.65424 0.0
C658 C 0.85232 0.72155 0.68217 0.0
N659 N 0.83874 0.69713 0.66892 0.0
C660 C 0.785 0.80496 0.61351 0.0
C661 C 0.72479 0.81682 0.614 0.0
C662 C 0.78421 0.79986 0.59165 0.0
N663 N 0.75563 0.81339 0.62427 0.0
C664 C 0.72272 0.81159 0.59213 0.0
C665 C 0.75279 0.80336 0.58057 0.0
H666 H 0.80944 0.80331 0.62187 0.0
H667 H 0.70193 0.82472 0.62248 0.0
C668 C 0.77819 0.75715 0.72533 0.0
N669 N 0.76587 0.75946 0.70518 0.0
C670 C 0.78107 0.72455 0.73524 0.0
C671 C 0.75725 0.69771 0.70382 0.0
C672 C 0.75413 0.73075 0.69474 0.0
C673 C 0.77161 0.69431 0.72411 0.0
H674 H 0.78706 0.78034 0.73341 0.0
H675 H 0.74424 0.73328 0.67881 0.0
O676 O 0.77882 0.87344 0.65869 0.0
O677 O 0.78373 0.84481 0.70434 0.0
O678 O 0.72564 0.8194 0.67575 0.0
O679 O 0.80405 0.79895 0.66498 0.0
H680 H 0.83659 0.87473 0.6359 0.0
H681 H 0.7271 0.89697 0.635 0.0
H682 H 0.84031 0.89445 0.59862 0.0
H683 H 0.7328 0.91622 0.59768 0.0
H684 H 0.88277 0.8378 0.74328 0.0
H685 H 0.78597 0.91054 0.71756 0.0
H686 H 0.83774 0.81116 0.72037 0.0
H687 H 0.83172 0.93535 0.74062 0.0
H688 H 0.72781 0.98986 0.67867 0.0
H689 H 0.69425 0.94314 0.73751 0.0
H690 H 0.94015 0.85427 0.67142 0.0
H691 H 0.88112 0.94941 0.67913 0.0
H692 H 0.69574 0.76115 0.66244 0.0
H693 H 0.68526 0.87287 0.66576 0.0
H694 H 0.6389 0.75822 0.64406 0.0
H695 H 0.62859 0.86797 0.64742 0.0
H696 H 0.78249 0.74626 0.64114 0.0
H697 H 0.85197 0.77553 0.69149 0.0
H698 H 0.80389 0.68545 0.64397 0.0
H699 H 0.87172 0.71407 0.69369 0.0
H700 H 0.80826 0.79441 0.58347 0.0
H701 H 0.69783 0.81437 0.58436 0.0
H702 H 0.79222 0.72282 0.75095 0.0
H703 H 0.74946 0.67492 0.69484 0.0
H704 H 0.0386 0.06494 0.3416 0.0
H705 H 0.07106 0.04291 0.27723 0.0
H706 H 0.01959 0.00516 0.27235 0.0
H707 H 0.00736 0.97928 0.35373 0.0
H708 H 0.97145 0.99479 0.36935 0.0
H709 H 0.0104 0.0205 0.36736 0.0
H710 H 0.9741 0.07303 0.35401 0.0
H711 H 0.93506 0.04728 0.35568 0.0
H712 H 0.94676 0.0679 0.33105 0.0
H713 H 0.9659 0.9687 0.27491 0.0
H714 H 0.91603 0.93255 0.28537 0.0
H715 H 0.91739 0.97996 0.34782 0.0
C716 C 0.03513 0.05178 0.32658 0.0
C717 C 0.05886 0.05658 0.30981 0.0
C718 C 0.05308 0.03956 0.29024 0.0
C719 C 0.02393 0.01821 0.28731 0.0
C720 C 1.00076 0.01445 0.30407 0.0
C721 C 0.00613 0.03058 0.32335 0.0
C722 C 0.9777 0.02166 0.33895 0.0
C723 C 0.99263 0.00294 0.35849 0.0
C724 C 0.9572 0.05442 0.34529 0.0
C725 C 0.95589 0.99733 0.32557 0.0
C726 C 0.96944 0.99385 0.30543 0.0
C727 C 0.95476 0.97153 0.29054 0.0
C728 C 0.92613 0.95136 0.29659 0.0
C729 C 0.91247 0.95361 0.31738 0.0
C730 C 0.92713 0.97766 0.33181 0.0
H731 H 0.44001 0.54132 0.80746 0.0
H732 H 0.4692 0.60432 0.86175 0.0
H733 H 0.51592 0.56255 0.87018 0.0
H734 H 0.44979 0.46034 0.83245 0.0
H735 H 0.46668 0.43802 0.80957 0.0
H736 H 0.43819 0.4748 0.80622 0.0
H737 H 0.48422 0.50599 0.78306 0.0
H738 H 0.51268 0.46906 0.78605 0.0
H739 H 0.5275 0.51208 0.79324 0.0
H740 H 0.55631 0.51173 0.87426 0.0
H741 H 0.5905 0.45752 0.87226 0.0
H742 H 0.53251 0.42621 0.81641 0.0
C743 C 0.45648 0.54658 0.82098 0.0
C744 C 0.45102 0.57614 0.83391 0.0
C745 C 0.47328 0.58219 0.8514 0.0
C746 C 0.49967 0.55845 0.85643 0.0
C747 C 0.50345 0.52891 0.84379 0.0
C748 C 0.48273 0.52309 0.82629 0.0
C749 C 0.49112 0.48861 0.81583 0.0
C750 C 0.45956 0.464 0.81604 0.0
C751 C 0.5047 0.49429 0.79321 0.0
C752 C 0.51948 0.47566 0.83039 0.0
C753 C 0.52628 0.49933 0.84636 0.0
C754 C 0.55123 0.49299 0.86182 0.0
C755 C 0.57019 0.46189 0.8607 0.0
C756 C 0.56394 0.43741 0.84429 0.0
C757 C 0.538 0.44442 0.82908 0.0
H758 H 0.52001 0.42368 0.16618 0.0
H759 H 0.58184 0.45544 0.22026 0.0
H760 H 0.5391 0.50186 0.22829 0.0
H761 H 0.49515 0.50912 0.14995 0.0
H762 H 0.45227 0.49597 0.1418 0.0
H763 H 0.48743 0.46516 0.14092 0.0
H764 H 0.45204 0.42271 0.16452 0.0
H765 H 0.41693 0.45365 0.1657 0.0
H766 H 0.43613 0.43746 0.1898 0.0
H767 H 0.48945 0.5446 0.23016 0.0
H768 H 0.44039 0.58454 0.22355 0.0
H769 H 0.41115 0.52367 0.16843 0.0
C770 C 0.52447 0.44034 0.17977 0.0
C771 C 0.55401 0.43602 0.19269 0.0
C772 C 0.5594 0.45861 0.21011 0.0
C773 C 0.53514 0.48471 0.21489 0.0
C774 C 0.50586 0.48777 0.20204 0.0
C775 C 0.50068 0.46643 0.1847 0.0
C776 C 0.46794 0.47588 0.17286 0.0
C777 C 0.4762 0.48722 0.15004 0.0
C778 C 0.44171 0.44562 0.17326 0.0
C779 C 0.45558 0.5062 0.18611 0.0
C780 C 0.47752 0.51241 0.20302 0.0
C781 C 0.47195 0.53984 0.21706 0.0
C782 C 0.44384 0.56217 0.21329 0.0
C783 C 0.42189 0.557 0.19555 0.0
C784 C 0.42747 0.52815 0.18214 0.0
H785 H 0.03252 0.07319 0.69207 0.0
H786 H 0.09394 0.03846 0.6385 0.0
H787 H 0.05786 0.98558 0.63567 0.0
H788 H 0.02109 0.98857 0.71561 0.0
H789 H 0.97719 0.99689 0.72397 0.0
H790 H 0.00755 0.03245 0.72169 0.0
H791 H 0.96574 0.06464 0.69613 0.0
H792 H 0.93511 0.02937 0.69853 0.0
H793 H 0.9503 0.04252 0.67275 0.0
H794 H 0.01554 0.93614 0.63886 0.0
H795 H 0.96677 0.89602 0.64613 0.0
H796 H 0.93433 0.96213 0.69825 0.0
C797 C 0.03836 0.05448 0.67974 0.0
C798 C 0.06595 0.06009 0.66545 0.0
C799 C 0.07258 0.03507 0.64942 0.0
C800 C 0.05248 0.00474 0.64781 0.0
C801 C 0.02587 0.99978 0.66236 0.0
C802 C 0.01858 0.02406 0.6779 0.0
C803 C 0.98816 0.01269 0.69135 0.0
C804 C 0.99917 0.00733 0.71453 0.0
C805 C 0.95805 0.03886 0.68957 0.0
C806 C 0.97937 0.97835 0.68082 0.0
C807 C 0.00157 0.97122 0.66424 0.0
C808 C 0.99805 0.94133 0.65187 0.0
C809 C 0.97048 0.91856 0.65622 0.0
C810 C 0.94682 0.92596 0.67275 0.0
C811 C 0.95189 0.9559 0.68543 0.0
H812 H 0.17721 0.18915 0.45447 0.0
H813 H 0.24509 0.27738 0.44276 0.0
H814 H 0.26502 0.27527 0.48 0.0
H815 H 0.15223 0.21267 0.50764 0.0
H816 H 0.15226 0.16826 0.51705 0.0
H817 H 0.14296 0.17734 0.48965 0.0
H818 H 0.1925 0.13569 0.47833 0.0
H819 H 0.20205 0.12661 0.50569 0.0
H820 H 0.23569 0.14269 0.48845 0.0
H821 H 0.27675 0.26394 0.51869 0.0
H822 H 0.2798 0.24423 0.55578 0.0
H823 H 0.20668 0.16109 0.5415 0.0
C824 C 0.19597 0.20827 0.45983 0.0
C825 C 0.20949 0.23358 0.4458 0.0
C826 C 0.23451 0.25773 0.45326 0.0
C827 C 0.24591 0.25676 0.47437 0.0
C828 C 0.23225 0.23129 0.48774 0.0
C829 C 0.2079 0.20743 0.48075 0.0
C830 C 0.19786 0.18226 0.4982 0.0
C831 C 0.15902 0.18533 0.50344 0.0
C832 C 0.20762 0.14458 0.49231 0.0
C833 C 0.22019 0.19583 0.51614 0.0
C834 C 0.23976 0.22416 0.50981 0.0
C835 C 0.26176 0.24157 0.52378 0.0
C836 C 0.26356 0.22991 0.54482 0.0
C837 C 0.24366 0.2009 0.55173 0.0
C838 C 0.22199 0.18356 0.53697 0.0
H839 H 0.25006 0.67677 0.96565 0.0
H840 H 0.29053 0.77218 0.93753 0.0
H841 H 0.30312 0.79493 0.97295 0.0
H842 H 0.21396 0.71351 0.01315 0.0
H843 H 0.22826 0.67807 0.02976 0.0
H844 H 0.21884 0.67033 1.00222 0.0
H845 H 0.28047 0.64489 0.9969 0.0
H846 H 0.29001 0.6524 0.02443 0.0
H847 H 0.31773 0.67062 0.00429 0.0
H848 H 0.31239 0.80743 0.0116 0.0
H849 H 0.321 0.80691 0.05023 0.0
H850 H 0.282 0.70048 0.05262 0.0
C851 C 0.26167 0.70241 0.96671 0.0
C852 C 0.26853 0.72268 0.9484 0.0
C853 C 0.28361 0.75628 0.95103 0.0
C854 C 0.29131 0.76946 0.97119 0.0
C855 C 0.28448 0.74862 0.98873 0.0
C856 C 0.2704 0.71566 0.98669 0.0
C857 C 0.26793 0.69759 0.00798 0.0
C858 C 0.22998 0.6894 0.01361 0.0
C859 C 0.29038 0.66442 0.00842 0.0
C860 C 0.28272 0.72565 0.02228 0.0
C861 C 0.29175 0.75501 0.0109 0.0
C862 C 0.30569 0.78444 0.02067 0.0
C863 C 0.31077 0.78374 0.04267 0.0
C864 C 0.30247 0.7536 0.05471 0.0
C865 C 0.28818 0.72425 0.04417 0.0
H866 H 0.7902 0.7582 0.55531 0.0
H867 H 0.71387 0.84143 0.55236 0.0
H868 H 0.71346 0.83718 0.51345 0.0
H869 H 0.83946 0.78724 0.5109 0.0
H870 H 0.84958 0.74391 0.50172 0.0
H871 H 0.842 0.75156 0.52945 0.0
H872 H 0.79391 0.70427 0.52941 0.0
H873 H 0.80131 0.6965 0.50165 0.0
H874 H 0.75849 0.70762 0.51086 0.0
H875 H 0.72304 0.82585 0.47487 0.0
H876 H 0.74313 0.8094 0.43925 0.0
H877 H 0.81433 0.73447 0.46703 0.0
C878 C 0.77338 0.77561 0.54655 0.0
C879 C 0.75179 0.79993 0.55706 0.0
C880 C 0.73005 0.82198 0.54483 0.0
C881 C 0.7298 0.81995 0.52267 0.0
C882 C 0.75152 0.79585 0.51288 0.0
C883 C 0.77299 0.77414 0.5244 0.0
C884 C 0.79492 0.75158 0.50994 0.0
C885 C 0.83379 0.75903 0.5132 0.0
C886 C 0.78665 0.71268 0.51316 0.0
C887 C 0.7826 0.76424 0.48849 0.0
C888 C 0.75738 0.78959 0.49057 0.0
C889 C 0.74253 0.80578 0.47304 0.0
C890 C 0.75396 0.79603 0.45284 0.0
C891 C 0.78009 0.77035 0.45026 0.0
C892 C 0.79437 0.75418 0.46842 0.0
H893 H 0.70532 0.27331 0.95705 0.0
H894 H 0.80476 0.32605 0.95923 0.0
H895 H 0.80665 0.31803 0.99816 0.0
H896 H 0.67075 0.30795 0.00439 0.0
H897 H 0.64933 0.26823 0.01234 0.0
H898 H 0.65655 0.27701 0.9847 0.0
H899 H 0.68905 0.2182 0.98083 0.0
H900 H 0.68178 0.20914 0.00846 0.0
H901 H 0.72525 0.20877 0.99799 0.0
H902 H 0.79458 0.30902 0.0371 0.0
H903 H 0.77234 0.29611 0.07263 0.0
H904 H 0.68342 0.24353 0.04455 0.0
C905 C 0.72758 0.28294 0.96575 0.0
C906 C 0.75488 0.3004 0.95526 0.0
C907 C 0.78373 0.31245 0.96704 0.0
C908 C 0.78493 0.3081 0.98912 0.0
C909 C 0.75735 0.29111 0.99904 0.0
C910 C 0.72946 0.27827 0.98769 0.0
C911 C 0.70315 0.26105 1.00212 0.0
C912 C 0.66787 0.27968 1.00081 0.0
C913 C 0.69962 0.22197 0.99705 0.0
C914 C 0.72026 0.26677 0.02343 0.0
C915 C 0.75135 0.28433 0.02133 0.0
C916 C 0.77066 0.29454 0.0389 0.0
C917 C 0.75783 0.28668 0.05913 0.0
C918 C 0.72613 0.2682 0.06179 0.0
C919 C 0.70751 0.25788 0.04346 0.0
H920 H 0.46854 0.19897 0.2075 0.0
H921 H 0.5382 0.20309 0.2615 0.0
H922 H 0.48788 0.20604 0.28549 0.0
H923 H 0.40913 0.26101 0.22673 0.0
H924 H 0.3711 0.23961 0.21633 0.0
H925 H 0.41234 0.23408 0.20342 0.0
H926 H 0.4069 0.16694 0.20705 0.0
H927 H 0.36546 0.17225 0.21981 0.0
H928 H 0.39942 0.148 0.23278 0.0
H929 H 0.43011 0.21351 0.30347 0.0
H930 H 0.36905 0.22116 0.31423 0.0
H931 H 0.33704 0.21399 0.24848 0.0
C932 C 0.47326 0.20004 0.22438 0.0
C933 C 0.50748 0.20049 0.23256 0.0
C934 C 0.51237 0.2019 0.2548 0.0
C935 C 0.4839 0.20394 0.26858 0.0
C936 C 0.45063 0.20445 0.25993 0.0
C937 C 0.44516 0.20221 0.23835 0.0
C938 C 0.40688 0.20475 0.23305 0.0
C939 C 0.39944 0.23677 0.21906 0.0
C940 C 0.39391 0.17097 0.22255 0.0
C941 C 0.39169 0.20919 0.25499 0.0
C942 C 0.41737 0.20894 0.27027 0.0
C943 C 0.40978 0.21356 0.29165 0.0
C944 C 0.37502 0.21822 0.29758 0.0
C945 C 0.34818 0.21826 0.28222 0.0
C946 C 0.35685 0.21371 0.26064 0.0
H947 H 0.29606 0.84081 0.75725 0.0
H948 H 0.22869 0.86881 0.80965 0.0
H949 H 0.22883 0.92988 0.79764 0.0
H950 H 0.34725 0.91851 0.75674 0.0
H951 H 0.34988 0.92132 0.72831 0.0
H952 H 0.34489 0.87944 0.74091 0.0
H953 H 0.28982 0.86733 0.71856 0.0
H954 H 0.2948 0.90904 0.70574 0.0
H955 H 0.25469 0.89836 0.71888 0.0
H956 H 0.23677 0.98794 0.78063 0.0
H957 H 0.24851 0.03896 0.75808 0.0
H958 H 0.30951 0.97406 0.71584 0.0
C959 C 0.28098 0.85965 0.76608 0.0
C960 C 0.26274 0.84985 0.78463 0.0
C961 C 0.24359 0.87559 0.79573 0.0
C962 C 0.24331 0.91041 0.78896 0.0
C963 C 0.26203 0.91922 0.7709 0.0
C964 C 0.28018 0.8946 0.75944 0.0
C965 C 0.29762 0.91112 0.74035 0.0
C966 C 0.33726 0.90737 0.74167 0.0
C967 C 0.28337 0.89554 0.71966 0.0
C968 C 0.28656 0.94888 0.743 0.0
C969 C 0.26619 0.95289 0.76081 0.0
C970 C 0.25278 0.98518 0.76667 0.0
C971 C 0.25996 0.01412 0.75385 0.0
C972 C 0.28036 0.01076 0.7353 0.0
C973 C 0.2939 0.97757 0.72992 0.0
H974 H 0.67567 0.75492 0.24796 0.0
H975 H 0.64377 0.77625 0.31255 0.0
H976 H 0.58366 0.78522 0.30038 0.0
H977 H 0.61994 0.81843 0.22277 0.0
H978 H 0.61024 0.79109 0.20032 0.0
H979 H 0.65102 0.78644 0.21399 0.0
H980 H 0.63847 0.72076 0.22002 0.0
H981 H 0.59775 0.72516 0.20628 0.0
H982 H 0.59869 0.70782 0.2328 0.0
H983 H 0.527 0.792 0.28137 0.0
H984 H 0.47696 0.7929 0.25703 0.0
H985 H 0.54522 0.76803 0.20455 0.0
C986 C 0.65604 0.76159 0.25952 0.0
C987 C 0.66446 0.76466 0.28125 0.0
C988 C 0.63791 0.77316 0.29588 0.0
C989 C 0.60371 0.77861 0.2891 0.0
C990 C 0.59631 0.77547 0.26761 0.0
C991 C 0.62163 0.76696 0.25303 0.0
C992 C 0.60648 0.76445 0.2309 0.0
C993 C 0.6229 0.79174 0.21613 0.0
C994 C 0.61059 0.72734 0.22198 0.0
C995 C 0.56874 0.77285 0.23536 0.0
C996 C 0.56351 0.77933 0.25662 0.0
C997 C 0.53079 0.78719 0.26466 0.0
C998 C 0.50254 0.78797 0.25065 0.0
C999 C 0.50708 0.78086 0.22881 0.0
C1000 C 0.54081 0.77352 0.22114 0.0
H1001 H 0.73861 0.12788 0.79142 0.0
H1002 H 0.70124 0.19771 0.7424 0.0
H1003 H 0.68926 0.14714 0.71925 0.0
H1004 H 0.78178 0.06847 0.75608 0.0
H1005 H 0.77118 0.03019 0.77136 0.0
H1006 H 0.7756 0.07182 0.78429 0.0
H1007 H 0.7138 0.0651 0.79986 0.0
H1008 H 0.70906 0.02358 0.78678 0.0
H1009 H 0.67768 0.05763 0.78228 0.0
H1010 H 0.68081 0.08926 0.7016 0.0
H1011 H 0.68167 0.0283 0.68912 0.0
H1012 H 0.7268 0.99577 0.74895 0.0
C1013 C 0.72778 0.13243 0.77584 0.0
C1014 C 0.7208 0.16668 0.76867 0.0
C1015 C 0.70704 0.1717 0.7481 0.0
C1016 C 0.6999 0.14314 0.73492 0.0
C1017 C 0.70687 0.1097 0.74249 0.0
C1018 C 0.72089 0.10419 0.76235 0.0
C1019 C 0.72743 0.06567 0.7662 0.0
C1020 C 0.76631 0.05863 0.76968 0.0
C1021 C 0.70569 0.05221 0.78489 0.0
C1022 C 0.71489 0.05041 0.7454 0.0
C1023 C 0.70282 0.07628 0.73206 0.0
C1024 C 0.69033 0.06879 0.71188 0.0
C1025 C 0.69101 0.03407 0.70492 0.0
C1026 C 0.70442 0.00716 0.71799 0.0
C1027 C 0.7159 0.01554 0.73867 0.0
H1028 H 0.98215 0.23333 0.27872 0.0
H1029 H 0.00348 0.34454 0.28149 0.0
H1030 H 0.9446 0.35651 0.26772 0.0
H1031 H 0.93644 0.23497 0.22974 0.0
H1032 H 0.90587 0.20165 0.23737 0.0
H1033 H 0.94872 0.20207 0.24872 0.0
H1034 H 0.92219 0.20354 0.28638 0.0
H1035 H 0.87922 0.20311 0.27514 0.0
H1036 H 0.89171 0.23739 0.29314 0.0
H1037 H 0.88366 0.35605 0.25261 0.0
H1038 H 0.82637 0.34332 0.23679 0.0
H1039 H 0.84628 0.23234 0.24263 0.0
C1040 C 0.97471 0.26027 0.2763 0.0
C1041 C 0.99772 0.28801 0.28113 0.0
C1042 C 0.98634 0.32283 0.27815 0.0
C1043 C 0.95297 0.32988 0.27022 0.0
C1044 C 0.93126 0.30184 0.26537 0.0
C1045 C 0.94172 0.26774 0.26829 0.0
C1046 C 0.91393 0.24221 0.26131 0.0
C1047 C 0.92703 0.21886 0.24321 0.0
C1048 C 0.901 0.22027 0.28012 0.0
C1049 C 0.88626 0.26725 0.2537 0.0
C1050 C 0.89658 0.30154 0.25638 0.0
C1051 C 0.87531 0.3293 0.25052 0.0
C1052 C 0.84276 0.32181 0.24164 0.0
C1053 C 0.83183 0.28684 0.23852 0.0
C1054 C 0.85399 0.25931 0.24469 0.0
H1055 H 0.22081 0.33776 0.74897 0.0
H1056 H 0.25408 0.37293 0.6868 0.0
H1057 H 0.25072 0.43386 0.69883 0.0
H1058 H 0.16174 0.40742 0.76002 0.0
H1059 H 0.1734 0.41087 0.78758 0.0
H1060 H 0.1774 0.36965 0.7741 0.0
H1061 H 0.24224 0.3662 0.7847 0.0
H1062 H 0.23835 0.40721 0.79841 0.0
H1063 H 0.27081 0.40187 0.77816 0.0
H1064 H 0.24307 0.49116 0.71722 0.0
H1065 H 0.23723 0.54073 0.74187 0.0
H1066 H 0.21154 0.4689 0.79264 0.0
C1067 C 0.22777 0.35817 0.73791 0.0
C1068 C 0.23718 0.35027 0.71677 0.0
C1069 C 0.24586 0.37807 0.70288 0.0
C1070 C 0.24423 0.41288 0.70959 0.0
C1071 C 0.23426 0.41969 0.73035 0.0
C1072 C 0.22665 0.39316 0.74441 0.0
C1073 C 0.21777 0.40769 0.76607 0.0
C1074 C 0.18035 0.39835 0.7723 0.0
C1075 C 0.24385 0.39499 0.78282 0.0
C1076 C 0.2216 0.44651 0.76194 0.0
C1077 C 0.23078 0.45282 0.74116 0.0
C1078 C 0.23585 0.48656 0.73353 0.0
C1079 C 0.23214 0.51459 0.74761 0.0
C1080 C 0.22368 0.50877 0.76915 0.0
C1081 C 0.21803 0.47419 0.77627 0.0
H1082 H 0.16474 0.71024 0.24309 0.0
H1083 H 0.16391 0.81743 0.22066 0.0
H1084 H 0.10517 0.82509 0.23514 0.0
H1085 H 0.07441 0.69144 0.23319 0.0
H1086 H 0.0687 0.66589 0.2569 0.0
H1087 H 0.11061 0.66804 0.24437 0.0
H1088 H 0.13814 0.68965 0.27941 0.0
H1089 H 0.09639 0.68728 0.2921 0.0
H1090 H 0.12049 0.72761 0.29235 0.0
H1091 H 0.04755 0.82203 0.25216 0.0
H1092 H 0.99466 0.80933 0.27257 0.0
H1093 H 0.03157 0.70437 0.28489 0.0
C1094 C 0.15232 0.73541 0.24136 0.0
C1095 C 0.16897 0.76316 0.23051 0.0
C1096 C 0.15157 0.79556 0.22849 0.0
C1097 C 0.11821 0.80024 0.23674 0.0
C1098 C 0.10247 0.77232 0.24707 0.0
C1099 C 0.1189 0.74059 0.24957 0.0
C1100 C 0.09622 0.71521 0.26184 0.0
C1101 C 0.08694 0.68326 0.24826 0.0
C1102 C 0.11386 0.70431 0.28266 0.0
C1103 C 0.06456 0.73778 0.26592 0.0
C1104 C 0.06885 0.77056 0.25713 0.0
C1105 C 0.04384 0.79647 0.25909 0.0
C1106 C 0.0139 0.789 0.27071 0.0
C1107 C 0.00907 0.75592 0.28028 0.0
C1108 C 0.03449 0.72973 0.27754 0.0
H1109 H 0.75202 0.53186 0.80261 0.0
H1110 H 0.82039 0.47457 0.76066 0.0
H1111 H 0.82832 0.52764 0.73892 0.0
H1112 H 0.70908 0.58053 0.76328 0.0
H1113 H 0.706 0.6201 0.77857 0.0
H1114 H 0.70775 0.57851 0.79178 0.0
H1115 H 0.7611 0.59906 0.81343 0.0
H1116 H 0.75938 0.64085 0.80038 0.0
H1117 H 0.79874 0.61552 0.79976 0.0
H1118 H 0.82404 0.58499 0.7198 0.0
H1119 H 0.81171 0.64428 0.70621 0.0
H1120 H 0.74797 0.6653 0.76121 0.0
C1121 C 0.76898 0.53061 0.78898 0.0
C1122 C 0.78567 0.49907 0.78334 0.0
C1123 C 0.80773 0.49852 0.76543 0.0
C1124 C 0.81221 0.52848 0.75293 0.0
C1125 C 0.79479 0.55891 0.75868 0.0
C1126 C 0.77399 0.56036 0.77645 0.0
C1127 C 0.75757 0.5961 0.77887 0.0
C1128 C 0.71774 0.59364 0.77807 0.0
C1129 C 0.76995 0.61393 0.79932 0.0
C1130 C 0.77182 0.61435 0.75944 0.0
C1131 C 0.79315 0.59235 0.74798 0.0
C1132 C 0.8078 0.60258 0.7288 0.0
C1133 C 0.80055 0.63616 0.72116 0.0
C1134 C 0.77912 0.65921 0.73276 0.0
C1135 C 0.76481 0.64824 0.75222 0.0
loop_
_geom_bond_atom_site_label_1
_geom_bond_atom_site_label_2
_geom_bond_distance
_geom_bond_site_symmetry_2
_ccdc_geom_bond_type
Li0 N17 1.990 . S
Li0 O60 1.956 . S
Li0 O61 1.970 . S
Li0 O62 1.961 . S
Li1 N25 1.990 . S
Li1 O60 1.970 . S
Li1 O61 1.956 . S
Li1 O63 1.961 . S
Li2 N47 1.990 . S
Li2 O60 1.961 . S
Li2 O62 1.956 . S
Li2 O63 1.970 . S
Li3 N53 1.990 . S
Li3 O61 1.961 . S
Li3 O62 1.970 . S
Li3 O63 1.956 . S
C4 C6 1.348 . S
C4 C7 1.356 . S
C4 O60 1.325 . S
N5 C8 1.314 . S
N5 C9 1.279 . S
C6 C4 1.348 . S
C6 C8 1.353 . S
C6 H64 0.929 . S
C7 C4 1.356 . S
C7 C9 1.358 . S
C7 H65 0.930 . S
C8 N5 1.314 . S
C8 C6 1.353 . S
C8 H66 0.930 . S
C9 N5 1.279 . S
C9 C7 1.358 . S
C9 H67 0.930 . S
C10 C13 1.348 . S
C10 C14 1.356 . S
C10 O61 1.325 . S
C11 N12 1.279 1_455 S
C11 C14 1.358 . S
C11 H68 0.930 . S
N12 C11 1.279 1_655 S
N12 C15 1.314 . S
C13 C10 1.348 . S
C13 C15 1.353 1_455 S
C13 H69 0.929 . S
C14 C10 1.356 . S
C14 C11 1.358 . S
C14 H70 0.930 . S
C15 N12 1.314 . S
C15 C13 1.353 1_655 S
C15 H71 0.930 . S
C16 N17 1.314 . S
C16 C21 1.353 1_455 S
C16 H22 0.930 . S
N17 Li0 1.990 . S
N17 C16 1.314 . S
N17 C19 1.279 . S
C18 C19 1.358 . S
C18 C20 1.356 1_455 S
C18 H72 0.930 . S
C19 N17 1.279 . S
C19 C18 1.358 . S
C19 H23 0.930 . S
C20 C18 1.356 1_655 S
C20 C21 1.348 . S
C21 C16 1.353 1_655 S
C21 C20 1.348 . S
C21 H73 0.929 . S
H22 C16 0.930 . S
H23 C19 0.930 . S
C24 N25 1.314 . S
C24 C26 1.353 . S
C24 H30 0.930 . S
N25 Li1 1.990 . S
N25 C24 1.314 . S
N25 C28 1.279 . S
C26 C24 1.353 . S
C26 C29 1.348 . S
C26 H74 0.929 . S
C27 C28 1.358 . S
C27 C29 1.356 . S
C27 H75 0.930 . S
C28 N25 1.279 . S
C28 C27 1.358 . S
C28 H31 0.930 . S
C29 C26 1.348 . S
C29 C27 1.356 . S
H30 C24 0.930 . S
H31 C28 0.930 . S
C32 C34 1.348 . S
C32 C35 1.356 . S
C32 O62 1.325 . S
N33 C36 1.314 . S
N33 C37 1.279 . S
C34 C32 1.348 . S
C34 C36 1.353 . S
C34 H76 0.929 . S
C35 C32 1.356 . S
C35 C37 1.358 . S
C35 H77 0.930 . S
C36 N33 1.314 . S
C36 C34 1.353 . S
C36 H78 0.930 . S
C37 N33 1.279 . S
C37 C35 1.358 . S
C37 H79 0.930 . S
C38 C39 1.348 . S
C38 C40 1.356 . S
C38 O63 1.325 . S
C39 C38 1.348 . S
C39 C41 1.353 . S
C39 H80 0.929 . S
C40 C38 1.356 . S
C40 C42 1.358 . S
C40 H81 0.930 . S
C41 C39 1.353 . S
C41 N43 1.314 . S
C41 H82 0.930 . S
C42 C40 1.358 . S
C42 N43 1.279 . S
C42 H83 0.930 . S
N43 C41 1.314 . S
N43 C42 1.279 . S
C44 C46 1.353 . S
C44 N47 1.314 . S
C44 H50 0.930 . S
C45 N47 1.279 . S
C45 C48 1.358 . S
C45 H51 0.930 . S
C46 C44 1.353 . S
C46 C49 1.348 . S
C46 H84 0.929 . S
N47 Li2 1.990 . S
N47 C44 1.314 . S
N47 C45 1.279 . S
C48 C45 1.358 . S
C48 C49 1.356 . S
C48 H85 0.930 . S
C49 C46 1.348 . S
C49 C48 1.356 . S
H50 C44 0.930 . S
H51 C45 0.930 . S
C52 N53 1.314 . S
C52 C54 1.353 . S
C52 H58 0.930 . S
N53 Li3 1.990 . S
N53 C52 1.314 . S
N53 C56 1.279 . S
C54 C52 1.353 . S
C54 C57 1.348 . S
C54 H86 0.929 . S
C55 C56 1.358 . S
C55 C57 1.356 . S
C55 H87 0.930 . S
C56 N53 1.279 . S
C56 C55 1.358 . S
C56 H59 0.930 . S
C57 C54 1.348 . S
C57 C55 1.356 . S
H58 C52 0.930 . S
H59 C56 0.930 . S
O60 Li0 1.956 . S
O60 Li1 1.970 . S
O60 Li2 1.961 . S
O60 C4 1.325 . S
O61 Li0 1.970 . S
O61 Li1 1.956 . S
O61 Li3 1.961 . S
O61 C10 1.325 . S
O62 Li0 1.961 . S
O62 Li2 1.956 . S
O62 Li3 1.970 . S
O62 C32 1.325 . S
O63 Li1 1.961 . S
O63 Li2 1.970 . S
O63 Li3 1.956 . S
O63 C38 1.325 . S
H64 C6 0.929 . S
H65 C7 0.930 . S
H66 C8 0.930 . S
H67 C9 0.930 . S
H68 C11 0.930 . S
H69 C13 0.929 . S
H70 C14 0.930 . S
H71 C15 0.930 . S
H72 C18 0.930 . S
H73 C21 0.929 . S
H74 C26 0.929 . S
H75 C27 0.930 . S
H76 C34 0.929 . S
H77 C35 0.930 . S
H78 C36 0.930 . S
H79 C37 0.930 . S
H80 C39 0.929 . S
H81 C40 0.930 . S
H82 C41 0.930 . S
H83 C42 0.930 . S
H84 C46 0.929 . S
H85 C48 0.930 . S
H86 C54 0.929 . S
H87 C55 0.930 . S
Li88 N105 1.990 . S
Li88 O148 1.956 . S
Li88 O149 1.970 . S
Li88 O150 1.961 . S
Li89 N113 1.990 . S
Li89 O148 1.970 . S
Li89 O149 1.956 . S
Li89 O151 1.961 . S
Li90 N135 1.990 . S
Li90 O148 1.961 . S
Li90 O150 1.956 . S
Li90 O151 1.970 . S
Li91 N141 1.990 . S
Li91 O149 1.961 . S
Li91 O150 1.970 . S
Li91 O151 1.956 . S
C92 C94 1.348 . S
C92 C95 1.356 . S
C92 O148 1.325 . S
N93 C96 1.314 . S
N93 C97 1.279 . S
C94 C92 1.348 . S
C94 C96 1.353 . S
C94 H152 0.929 . S
C95 C92 1.356 . S
C95 C97 1.358 . S
C95 H153 0.930 . S
C96 N93 1.314 . S
C96 C94 1.353 . S
C96 H154 0.930 . S
C97 N93 1.279 . S
C97 C95 1.358 . S
C97 H155 0.930 . S
C98 C101 1.348 . S
C98 C102 1.356 . S
C98 O149 1.325 . S
C99 N100 1.279 . S
C99 C102 1.358 . S
C99 H156 0.930 . S
N100 C99 1.279 . S
N100 C103 1.314 . S
C101 C98 1.348 . S
C101 C103 1.353 . S
C101 H157 0.929 . S
C102 C98 1.356 . S
C102 C99 1.358 . S
C102 H158 0.930 . S
C103 N100 1.314 . S
C103 C101 1.353 . S
C103 H159 0.930 . S
C104 N105 1.314 . S
C104 C109 1.353 . S
C104 H110 0.930 . S
N105 Li88 1.990 . S
N105 C104 1.314 . S
N105 C107 1.279 . S
C106 C107 1.358 . S
C106 C108 1.356 . S
C106 H160 0.930 . S
C107 N105 1.279 . S
C107 C106 1.358 . S
C107 H111 0.930 . S
C108 C106 1.356 . S
C108 C109 1.348 . S
C109 C104 1.353 . S
C109 C108 1.348 . S
C109 H161 0.929 . S
H110 C104 0.930 . S
H111 C107 0.930 . S
C112 N113 1.314 . S
C112 C114 1.353 . S
C112 H118 0.930 . S
N113 Li89 1.990 . S
N113 C112 1.314 . S
N113 C116 1.279 . S
C114 C112 1.353 . S
C114 C117 1.348 . S
C114 H162 0.929 . S
C115 C116 1.358 . S
C115 C117 1.356 . S
C115 H163 0.930 . S
C116 N113 1.279 . S
C116 C115 1.358 . S
C116 H119 0.930 . S
C117 C114 1.348 . S
C117 C115 1.356 . S
H118 C112 0.930 . S
H119 C116 0.930 . S
C120 C122 1.348 . S
C120 C123 1.356 . S
C120 O150 1.325 . S
N121 C124 1.314 . S
N121 C125 1.279 . S
C122 C120 1.348 . S
C122 C124 1.353 . S
C122 H164 0.929 . S
C123 C120 1.356 . S
C123 C125 1.358 . S
C123 H165 0.930 . S
C124 N121 1.314 . S
C124 C122 1.353 . S
C124 H166 0.930 . S
C125 N121 1.279 . S
C125 C123 1.358 . S
C125 H167 0.930 . S
C126 C127 1.348 . S
C126 C128 1.356 . S
C126 O151 1.325 . S
C127 C126 1.348 . S
C127 C129 1.353 . S
C127 H168 0.929 . S
C128 C126 1.356 . S
C128 C130 1.358 . S
C128 H169 0.930 . S
C129 C127 1.353 . S
C129 N131 1.314 . S
C129 H170 0.930 . S
C130 C128 1.358 . S
C130 N131 1.279 . S
C130 H171 0.930 . S
N131 C129 1.314 . S
N131 C130 1.279 . S
C132 C134 1.353 . S
C132 N135 1.314 . S
C132 H138 0.930 . S
C133 N135 1.279 . S
C133 C136 1.358 . S
C133 H139 0.930 . S
C134 C132 1.353 . S
C134 C137 1.348 . S
C134 H172 0.929 . S
N135 Li90 1.990 . S
N135 C132 1.314 . S
N135 C133 1.279 . S
C136 C133 1.358 . S
C136 C137 1.356 . S
C136 H173 0.930 . S
C137 C134 1.348 . S
C137 C136 1.356 . S
H138 C132 0.930 . S
H139 C133 0.930 . S
C140 N141 1.314 . S
C140 C142 1.353 . S
C140 H146 0.930 . S
N141 Li91 1.990 . S
N141 C140 1.314 . S
N141 C144 1.279 . S
C142 C140 1.353 . S
C142 C145 1.348 . S
C142 H174 0.929 . S
C143 C144 1.358 . S
C143 C145 1.356 . S
C143 H175 0.930 . S
C144 N141 1.279 . S
C144 C143 1.358 . S
C144 H147 0.930 . S
C145 C142 1.348 . S
C145 C143 1.356 . S
H146 C140 0.930 . S
H147 C144 0.930 . S
O148 Li88 1.956 . S
O148 Li89 1.970 . S
O148 Li90 1.961 . S
O148 C92 1.325 . S
O149 Li88 1.970 . S
O149 Li89 1.956 . S
O149 Li91 1.961 . S
O149 C98 1.325 . S
O150 Li88 1.961 . S
O150 Li90 1.956 . S
O150 Li91 1.970 . S
O150 C120 1.325 . S
O151 Li89 1.961 . S
O151 Li90 1.970 . S
O151 Li91 1.956 . S
O151 C126 1.325 . S
H152 C94 0.929 . S
H153 C95 0.930 . S
H154 C96 0.930 . S
H155 C97 0.930 . S
H156 C99 0.930 . S
H157 C101 0.929 . S
H158 C102 0.930 . S
H159 C103 0.930 . S
H160 C106 0.930 . S
H161 C109 0.929 . S
H162 C114 0.929 . S
H163 C115 0.930 . S
H164 C122 0.929 . S
H165 C123 0.930 . S
H166 C124 0.930 . S
H167 C125 0.930 . S
H168 C127 0.929 . S
H169 C128 0.930 . S
H170 C129 0.930 . S
H171 C130 0.930 . S
H172 C134 0.929 . S
H173 C136 0.930 . S
H174 C142 0.929 . S
H175 C143 0.930 . S
Li176 N193 1.990 . S
Li176 O236 1.956 . S
Li176 O237 1.970 . S
Li176 O238 1.961 . S
Li177 N201 1.990 . S
Li177 O236 1.970 . S
Li177 O237 1.956 . S
Li177 O239 1.961 . S
Li178 N223 1.990 . S
Li178 O236 1.961 . S
Li178 O238 1.956 . S
Li178 O239 1.970 . S
Li179 N229 1.990 . S
Li179 O237 1.961 . S
Li179 O238 1.970 . S
Li179 O239 1.956 . S
C180 C182 1.348 . S
C180 C183 1.356 . S
C180 O236 1.325 . S
N181 C184 1.314 . S
N181 C185 1.279 . S
C182 C180 1.348 . S
C182 C184 1.353 . S
C182 H240 0.929 . S
C183 C180 1.356 . S
C183 C185 1.358 . S
C183 H241 0.930 . S
C184 N181 1.314 . S
C184 C182 1.353 . S
C184 H242 0.930 . S
C185 N181 1.279 . S
C185 C183 1.358 . S
C185 H243 0.930 . S
C186 C189 1.348 . S
C186 C190 1.356 . S
C186 O237 1.325 . S
C187 N188 1.279 1_655 S
C187 C190 1.358 . S
C187 H244 0.930 . S
N188 C187 1.279 1_455 S
N188 C191 1.314 . S
C189 C186 1.348 . S
C189 C191 1.353 1_655 S
C189 H245 0.929 . S
C190 C186 1.356 . S
C190 C187 1.358 . S
C190 H246 0.930 . S
C191 N188 1.314 . S
C191 C189 1.353 1_455 S
C191 H247 0.930 . S
C192 N193 1.314 . S
C192 C197 1.353 1_655 S
C192 H198 0.930 . S
N193 Li176 1.990 . S
N193 C192 1.314 . S
N193 C195 1.279 . S
C194 C195 1.358 . S
C194 C196 1.356 1_655 S
C194 H248 0.930 . S
C195 N193 1.279 . S
C195 C194 1.358 . S
C195 H199 0.930 . S
C196 C194 1.356 1_455 S
C196 C197 1.348 . S
C197 C192 1.353 1_455 S
C197 C196 1.348 . S
C197 H249 0.929 . S
H198 C192 0.930 . S
H199 C195 0.930 . S
C200 N201 1.314 . S
C200 C202 1.353 . S
C200 H206 0.930 . S
N201 Li177 1.990 . S
N201 C200 1.314 . S
N201 C204 1.279 . S
C202 C200 1.353 . S
C202 C205 1.348 . S
C202 H250 0.929 . S
C203 C204 1.358 . S
C203 C205 1.356 . S
C203 H251 0.930 . S
C204 N201 1.279 . S
C204 C203 1.358 . S
C204 H207 0.930 . S
C205 C202 1.348 . S
C205 C203 1.356 . S
H206 C200 0.930 . S
H207 C204 0.930 . S
C208 C210 1.348 . S
C208 C211 1.356 . S
C208 O238 1.325 . S
N209 C212 1.314 . S
N209 C213 1.279 . S
C210 C208 1.348 . S
C210 C212 1.353 . S
C210 H252 0.929 . S
C211 C208 1.356 . S
C211 C213 1.358 . S
C211 H253 0.930 . S
C212 N209 1.314 . S
C212 C210 1.353 . S
C212 H254 0.930 . S
C213 N209 1.279 . S
C213 C211 1.358 . S
C213 H255 0.930 . S
C214 C215 1.348 . S
C214 C216 1.356 . S
C214 O239 1.325 . S
C215 C214 1.348 . S
C215 C217 1.353 . S
C215 H256 0.929 . S
C216 C214 1.356 . S
C216 C218 1.358 . S
C216 H257 0.930 . S
C217 C215 1.353 . S
C217 N219 1.314 . S
C217 H258 0.930 . S
C218 C216 1.358 . S
C218 N219 1.279 . S
C218 H259 0.930 . S
N219 C217 1.314 . S
N219 C218 1.279 . S
C220 C222 1.353 . S
C220 N223 1.314 . S
C220 H226 0.930 . S
C221 N223 1.279 . S
C221 C224 1.358 . S
C221 H227 0.930 . S
C222 C220 1.353 . S
C222 C225 1.348 . S
C222 H260 0.929 . S
N223 Li178 1.990 . S
N223 C220 1.314 . S
N223 C221 1.279 . S
C224 C221 1.358 . S
C224 C225 1.356 . S
C224 H261 0.930 . S
C225 C222 1.348 . S
C225 C224 1.356 . S
H226 C220 0.930 . S
H227 C221 0.930 . S
C228 N229 1.314 . S
C228 C230 1.353 . S
C228 H234 0.930 . S
N229 Li179 1.990 . S
N229 C228 1.314 . S
N229 C232 1.279 . S
C230 C228 1.353 . S
C230 C233 1.348 . S
C230 H262 0.929 . S
C231 C232 1.358 . S
C231 C233 1.356 . S
C231 H263 0.930 . S
C232 N229 1.279 . S
C232 C231 1.358 . S
C232 H235 0.930 . S
C233 C230 1.348 . S
C233 C231 1.356 . S
H234 C228 0.930 . S
H235 C232 0.930 . S
O236 Li176 1.956 . S
O236 Li177 1.970 . S
O236 Li178 1.961 . S
O236 C180 1.325 . S
O237 Li176 1.970 . S
O237 Li177 1.956 . S
O237 Li179 1.961 . S
O237 C186 1.325 . S
O238 Li176 1.961 . S
O238 Li178 1.956 . S
O238 Li179 1.970 . S
O238 C208 1.325 . S
O239 Li177 1.961 . S
O239 Li178 1.970 . S
O239 Li179 1.956 . S
O239 C214 1.325 . S
H240 C182 0.929 . S
H241 C183 0.930 . S
H242 C184 0.930 . S
H243 C185 0.930 . S
H244 C187 0.930 . S
H245 C189 0.929 . S
H246 C190 0.930 . S
H247 C191 0.930 . S
H248 C194 0.930 . S
H249 C197 0.929 . S
H250 C202 0.929 . S
H251 C203 0.930 . S
H252 C210 0.929 . S
H253 C211 0.930 . S
H254 C212 0.930 . S
H255 C213 0.930 . S
H256 C215 0.929 . S
H257 C216 0.930 . S
H258 C217 0.930 . S
H259 C218 0.930 . S
H260 C222 0.929 . S
H261 C224 0.930 . S
H262 C230 0.929 . S
H263 C231 0.930 . S
Li264 N281 1.990 . S
Li264 O324 1.956 . S
Li264 O325 1.970 . S
Li264 O326 1.961 . S
Li265 N289 1.990 . S
Li265 O324 1.970 . S
Li265 O325 1.956 . S
Li265 O327 1.961 . S
Li266 N311 1.990 . S
Li266 O324 1.961 . S
Li266 O326 1.956 . S
Li266 O327 1.970 . S
Li267 N317 1.990 . S
Li267 O325 1.961 . S
Li267 O326 1.970 . S
Li267 O327 1.956 . S
C268 C270 1.348 . S
C268 C271 1.356 . S
C268 O324 1.325 . S
N269 C272 1.314 . S
N269 C273 1.279 . S
C270 C268 1.348 . S
C270 C272 1.353 . S
C270 H328 0.929 . S
C271 C268 1.356 . S
C271 C273 1.358 . S
C271 H329 0.930 . S
C272 N269 1.314 . S
C272 C270 1.353 . S
C272 H330 0.930 . S
C273 N269 1.279 . S
C273 C271 1.358 . S
C273 H331 0.930 . S
C274 C277 1.348 . S
C274 C278 1.356 . S
C274 O325 1.325 . S
C275 N276 1.279 . S
C275 C278 1.358 . S
C275 H332 0.930 . S
N276 C275 1.279 . S
N276 C279 1.314 . S
C277 C274 1.348 . S
C277 C279 1.353 . S
C277 H333 0.929 . S
C278 C274 1.356 . S
C278 C275 1.358 . S
C278 H334 0.930 . S
C279 N276 1.314 . S
C279 C277 1.353 . S
C279 H335 0.930 . S
C280 N281 1.314 . S
C280 C285 1.353 . S
C280 H286 0.930 . S
N281 Li264 1.990 . S
N281 C280 1.314 . S
N281 C283 1.279 . S
C282 C283 1.358 . S
C282 C284 1.356 . S
C282 H336 0.930 . S
C283 N281 1.279 . S
C283 C282 1.358 . S
C283 H287 0.930 . S
C284 C282 1.356 . S
C284 C285 1.348 . S
C285 C280 1.353 . S
C285 C284 1.348 . S
C285 H337 0.929 . S
H286 C280 0.930 . S
H287 C283 0.930 . S
C288 N289 1.314 . S
C288 C290 1.353 . S
C288 H294 0.930 . S
N289 Li265 1.990 . S
N289 C288 1.314 . S
N289 C292 1.279 . S
C290 C288 1.353 . S
C290 C293 1.348 . S
C290 H338 0.929 . S
C291 C292 1.358 . S
C291 C293 1.356 . S
C291 H339 0.930 . S
C292 N289 1.279 . S
C292 C291 1.358 . S
C292 H295 0.930 . S
C293 C290 1.348 . S
C293 C291 1.356 . S
H294 C288 0.930 . S
H295 C292 0.930 . S
C296 C298 1.348 . S
C296 C299 1.356 . S
C296 O326 1.325 . S
N297 C300 1.314 . S
N297 C301 1.279 . S
C298 C296 1.348 . S
C298 C300 1.353 . S
C298 H340 0.929 . S
C299 C296 1.356 . S
C299 C301 1.358 . S
C299 H341 0.930 . S
C300 N297 1.314 . S
C300 C298 1.353 . S
C300 H342 0.930 . S
C301 N297 1.279 . S
C301 C299 1.358 . S
C301 H343 0.930 . S
C302 C303 1.348 . S
C302 C304 1.356 . S
C302 O327 1.325 . S
C303 C302 1.348 . S
C303 C305 1.353 . S
C303 H344 0.929 . S
C304 C302 1.356 . S
C304 C306 1.358 . S
C304 H345 0.930 . S
C305 C303 1.353 . S
C305 N307 1.314 . S
C305 H346 0.930 . S
C306 C304 1.358 . S
C306 N307 1.279 . S
C306 H347 0.930 . S
N307 C305 1.314 . S
N307 C306 1.279 . S
C308 C310 1.353 . S
C308 N311 1.314 . S
C308 H314 0.930 . S
C309 N311 1.279 . S
C309 C312 1.358 . S
C309 H315 0.930 . S
C310 C308 1.353 . S
C310 C313 1.348 . S
C310 H348 0.929 . S
N311 Li266 1.990 . S
N311 C308 1.314 . S
N311 C309 1.279 . S
C312 C309 1.358 . S
C312 C313 1.356 . S
C312 H349 0.930 . S
C313 C310 1.348 . S
C313 C312 1.356 . S
H314 C308 0.930 . S
H315 C309 0.930 . S
C316 N317 1.314 . S
C316 C318 1.353 . S
C316 H322 0.930 . S
N317 Li267 1.990 . S
N317 C316 1.314 . S
N317 C320 1.279 . S
C318 C316 1.353 . S
C318 C321 1.348 . S
C318 H350 0.929 . S
C319 C320 1.358 . S
C319 C321 1.356 . S
C319 H351 0.930 . S
C320 N317 1.279 . S
C320 C319 1.358 . S
C320 H323 0.930 . S
C321 C318 1.348 . S
C321 C319 1.356 . S
H322 C316 0.930 . S
H323 C320 0.930 . S
O324 Li264 1.956 . S
O324 Li265 1.970 . S
O324 Li266 1.961 . S
O324 C268 1.325 . S
O325 Li264 1.970 . S
O325 Li265 1.956 . S
O325 Li267 1.961 . S
O325 C274 1.325 . S
O326 Li264 1.961 . S
O326 Li266 1.956 . S
O326 Li267 1.970 . S
O326 C296 1.325 . S
O327 Li265 1.961 . S
O327 Li266 1.970 . S
O327 Li267 1.956 . S
O327 C302 1.325 . S
H328 C270 0.929 . S
H329 C271 0.930 . S
H330 C272 0.930 . S
H331 C273 0.930 . S
H332 C275 0.930 . S
H333 C277 0.929 . S
H334 C278 0.930 . S
H335 C279 0.930 . S
H336 C282 0.930 . S
H337 C285 0.929 . S
H338 C290 0.929 . S
H339 C291 0.930 . S
H340 C298 0.929 . S
H341 C299 0.930 . S
H342 C300 0.930 . S
H343 C301 0.930 . S
H344 C303 0.929 . S
H345 C304 0.930 . S
H346 C305 0.930 . S
H347 C306 0.930 . S
H348 C310 0.929 . S
H349 C312 0.930 . S
H350 C318 0.929 . S
H351 C319 0.930 . S
Li352 N369 1.990 . S
Li352 O412 1.956 . S
Li352 O413 1.970 . S
Li352 O414 1.961 . S
Li353 N377 1.990 . S
Li353 O412 1.970 . S
Li353 O413 1.956 . S
Li353 O415 1.961 . S
Li354 N399 1.990 . S
Li354 O412 1.961 . S
Li354 O414 1.956 . S
Li354 O415 1.970 . S
Li355 N405 1.990 . S
Li355 O413 1.961 . S
Li355 O414 1.970 . S
Li355 O415 1.956 . S
C356 C358 1.348 . S
C356 C359 1.356 . S
C356 O412 1.325 . S
N357 C360 1.314 . S
N357 C361 1.279 . S
C358 C356 1.348 . S
C358 C360 1.353 . S
C358 H416 0.929 . S
C359 C356 1.356 . S
C359 C361 1.358 . S
C359 H417 0.930 . S
C360 N357 1.314 . S
C360 C358 1.353 . S
C360 H418 0.930 . S
C361 N357 1.279 . S
C361 C359 1.358 . S
C361 H419 0.930 . S
C362 C365 1.348 . S
C362 C366 1.356 . S
C362 O413 1.325 . S
C363 N364 1.279 . S
C363 C366 1.358 . S
C363 H420 0.930 . S
N364 C363 1.279 . S
N364 C367 1.314 . S
C365 C362 1.348 . S
C365 C367 1.353 . S
C365 H421 0.929 . S
C366 C362 1.356 . S
C366 C363 1.358 . S
C366 H422 0.930 . S
C367 N364 1.314 . S
C367 C365 1.353 . S
C367 H423 0.930 . S
C368 N369 1.314 . S
C368 C373 1.353 . S
C368 H374 0.930 . S
N369 Li352 1.990 . S
N369 C368 1.314 . S
N369 C371 1.279 . S
C370 C371 1.358 . S
C370 C372 1.356 . S
C370 H424 0.930 . S
C371 N369 1.279 . S
C371 C370 1.358 . S
C371 H375 0.930 . S
C372 C370 1.356 . S
C372 C373 1.348 . S
C373 C368 1.353 . S
C373 C372 1.348 . S
C373 H425 0.929 . S
H374 C368 0.930 . S
H375 C371 0.930 . S
C376 N377 1.314 . S
C376 C378 1.353 . S
C376 H382 0.930 . S
N377 Li353 1.990 . S
N377 C376 1.314 . S
N377 C380 1.279 . S
C378 C376 1.353 . S
C378 C381 1.348 . S
C378 H426 0.929 . S
C379 C380 1.358 . S
C379 C381 1.356 . S
C379 H427 0.930 . S
C380 N377 1.279 . S
C380 C379 1.358 . S
C380 H383 0.930 . S
C381 C378 1.348 . S
C381 C379 1.356 . S
H382 C376 0.930 . S
H383 C380 0.930 . S
C384 C386 1.348 . S
C384 C387 1.356 . S
C384 O414 1.325 . S
N385 C388 1.314 . S
N385 C389 1.279 . S
C386 C384 1.348 . S
C386 C388 1.353 . S
C386 H428 0.929 . S
C387 C384 1.356 . S
C387 C389 1.358 . S
C387 H429 0.930 . S
C388 N385 1.314 . S
C388 C386 1.353 . S
C388 H430 0.930 . S
C389 N385 1.279 . S
C389 C387 1.358 . S
C389 H431 0.930 . S
C390 C391 1.348 . S
C390 C392 1.356 . S
C390 O415 1.325 . S
C391 C390 1.348 . S
C391 C393 1.353 . S
C391 H432 0.929 . S
C392 C390 1.356 . S
C392 C394 1.358 . S
C392 H433 0.930 . S
C393 C391 1.353 . S
C393 N395 1.314 . S
C393 H434 0.930 . S
C394 C392 1.358 . S
C394 N395 1.279 . S
C394 H435 0.930 . S
N395 C393 1.314 . S
N395 C394 1.279 . S
C396 C398 1.353 . S
C396 N399 1.314 . S
C396 H402 0.930 . S
C397 N399 1.279 . S
C397 C400 1.358 . S
C397 H403 0.930 . S
C398 C396 1.353 . S
C398 C401 1.348 . S
C398 H436 0.929 . S
N399 Li354 1.990 . S
N399 C396 1.314 . S
N399 C397 1.279 . S
C400 C397 1.358 . S
C400 C401 1.356 . S
C400 H437 0.930 . S
C401 C398 1.348 . S
C401 C400 1.356 . S
H402 C396 0.930 . S
H403 C397 0.930 . S
C404 N405 1.314 . S
C404 C406 1.353 . S
C404 H410 0.930 . S
N405 Li355 1.990 . S
N405 C404 1.314 . S
N405 C408 1.279 . S
C406 C404 1.353 . S
C406 C409 1.348 . S
C406 H438 0.929 . S
C407 C408 1.358 . S
C407 C409 1.356 . S
C407 H439 0.930 . S
C408 N405 1.279 . S
C408 C407 1.358 . S
C408 H411 0.930 . S
C409 C406 1.348 . S
C409 C407 1.356 . S
H410 C404 0.930 . S
H411 C408 0.930 . S
O412 Li352 1.956 . S
O412 Li353 1.970 . S
O412 Li354 1.961 . S
O412 C356 1.325 . S
O413 Li352 1.970 . S
O413 Li353 1.956 . S
O413 Li355 1.961 . S
O413 C362 1.325 . S
O414 Li352 1.961 . S
O414 Li354 1.956 . S
O414 Li355 1.970 . S
O414 C384 1.325 . S
O415 Li353 1.961 . S
O415 Li354 1.970 . S
O415 Li355 1.956 . S
O415 C390 1.325 . S
H416 C358 0.929 . S
H417 C359 0.930 . S
H418 C360 0.930 . S
H419 C361 0.930 . S
H420 C363 0.930 . S
H421 C365 0.929 . S
H422 C366 0.930 . S
H423 C367 0.930 . S
H424 C370 0.930 . S
H425 C373 0.929 . S
H426 C378 0.929 . S
H427 C379 0.930 . S
H428 C386 0.929 . S
H429 C387 0.930 . S
H430 C388 0.930 . S
H431 C389 0.930 . S
H432 C391 0.929 . S
H433 C392 0.930 . S
H434 C393 0.930 . S
H435 C394 0.930 . S
H436 C398 0.929 . S
H437 C400 0.930 . S
H438 C406 0.929 . S
H439 C407 0.930 . S
Li440 N457 1.990 . S
Li440 O500 1.956 . S
Li440 O501 1.970 . S
Li440 O502 1.961 . S
Li441 N465 1.990 . S
Li441 O500 1.970 . S
Li441 O501 1.956 . S
Li441 O503 1.961 . S
Li442 N487 1.990 . S
Li442 O500 1.961 . S
Li442 O502 1.956 . S
Li442 O503 1.970 . S
Li443 N493 1.990 . S
Li443 O501 1.961 . S
Li443 O502 1.970 . S
Li443 O503 1.956 . S
C444 C446 1.348 . S
C444 C447 1.356 . S
C444 O500 1.325 . S
N445 C448 1.314 . S
N445 C449 1.279 . S
C446 C444 1.348 . S
C446 C448 1.353 . S
C446 H504 0.929 . S
C447 C444 1.356 . S
C447 C449 1.358 . S
C447 H505 0.930 . S
C448 N445 1.314 . S
C448 C446 1.353 . S
C448 H506 0.930 . S
C449 N445 1.279 . S
C449 C447 1.358 . S
C449 H507 0.930 . S
C450 C453 1.348 . S
C450 C454 1.356 . S
C450 O501 1.325 . S
C451 N452 1.279 . S
C451 C454 1.358 . S
C451 H508 0.930 . S
N452 C451 1.279 . S
N452 C455 1.314 . S
C453 C450 1.348 . S
C453 C455 1.353 . S
C453 H509 0.929 . S
C454 C450 1.356 . S
C454 C451 1.358 . S
C454 H510 0.930 . S
C455 N452 1.314 . S
C455 C453 1.353 . S
C455 H511 0.930 . S
C456 N457 1.314 . S
C456 C461 1.353 . S
C456 H462 0.930 . S
N457 Li440 1.990 . S
N457 C456 1.314 . S
N457 C459 1.279 . S
C458 C459 1.358 . S
C458 C460 1.356 . S
C458 H512 0.930 . S
C459 N457 1.279 . S
C459 C458 1.358 . S
C459 H463 0.930 . S
C460 C458 1.356 . S
C460 C461 1.348 . S
C461 C456 1.353 . S
C461 C460 1.348 . S
C461 H513 0.929 . S
H462 C456 0.930 . S
H463 C459 0.930 . S
C464 N465 1.314 . S
C464 C466 1.353 . S
C464 H470 0.930 . S
N465 Li441 1.990 . S
N465 C464 1.314 . S
N465 C468 1.279 . S
C466 C464 1.353 . S
C466 C469 1.348 . S
C466 H514 0.929 . S
C467 C468 1.358 . S
C467 C469 1.356 . S
C467 H515 0.930 . S
C468 N465 1.279 . S
C468 C467 1.358 . S
C468 H471 0.930 . S
C469 C466 1.348 . S
C469 C467 1.356 . S
H470 C464 0.930 . S
H471 C468 0.930 . S
C472 C474 1.348 . S
C472 C475 1.356 . S
C472 O502 1.325 . S
N473 C476 1.314 . S
N473 C477 1.279 . S
C474 C472 1.348 . S
C474 C476 1.353 . S
C474 H516 0.929 . S
C475 C472 1.356 . S
C475 C477 1.358 . S
C475 H517 0.930 . S
C476 N473 1.314 . S
C476 C474 1.353 . S
C476 H518 0.930 . S
C477 N473 1.279 . S
C477 C475 1.358 . S
C477 H519 0.930 . S
C478 C479 1.348 . S
C478 C480 1.356 . S
C478 O503 1.325 . S
C479 C478 1.348 . S
C479 C481 1.353 1_545 S
C479 H520 0.929 . S
C480 C478 1.356 . S
C480 C482 1.353 1_545 S
C480 H521 0.930 . S
C481 C479 1.353 1_565 S
C481 N483 1.314 . S
C481 H522 0.930 . S
C482 C480 1.353 1_565 S
C482 N483 1.283 . S
C482 H523 0.932 . S
N483 C481 1.314 . S
N483 C482 1.283 . S
C484 C486 1.353 . S
C484 N487 1.314 . S
C484 H490 0.930 . S
C485 N487 1.279 . S
C485 C488 1.358 . S
C485 H491 0.930 . S
C486 C484 1.353 . S
C486 C489 1.348 . S
C486 H524 0.929 . S
N487 Li442 1.990 . S
N487 C484 1.314 . S
N487 C485 1.279 . S
C488 C485 1.358 . S
C488 C489 1.356 . S
C488 H525 0.930 . S
C489 C486 1.348 . S
C489 C488 1.356 . S
H490 C484 0.930 . S
H491 C485 0.930 . S
C492 N493 1.314 . S
C492 C494 1.353 . S
C492 H498 0.930 . S
N493 Li443 1.990 . S
N493 C492 1.314 . S
N493 C496 1.279 . S
C494 C492 1.353 . S
C494 C497 1.348 1_545 S
C494 H526 0.929 . S
C495 C496 1.358 1_565 S
C495 C497 1.356 . S
C495 H527 0.930 . S
C496 N493 1.279 . S
C496 C495 1.358 1_545 S
C496 H499 0.937 . S
C497 C494 1.348 1_565 S
C497 C495 1.356 . S
H498 C492 0.930 . S
H499 C496 0.937 . S
O500 Li440 1.956 . S
O500 Li441 1.970 . S
O500 Li442 1.961 . S
O500 C444 1.325 . S
O501 Li440 1.970 . S
O501 Li441 1.956 . S
O501 Li443 1.961 . S
O501 C450 1.325 . S
O502 Li440 1.961 . S
O502 Li442 1.956 . S
O502 Li443 1.970 . S
O502 C472 1.325 . S
O503 Li441 1.961 . S
O503 Li442 1.970 . S
O503 Li443 1.956 . S
O503 C478 1.325 . S
H504 C446 0.929 . S
H505 C447 0.930 . S
H506 C448 0.930 . S
H507 C449 0.930 . S
H508 C451 0.930 . S
H509 C453 0.929 . S
H510 C454 0.930 . S
H511 C455 0.930 . S
H512 C458 0.930 . S
H513 C461 0.929 . S
H514 C466 0.929 . S
H515 C467 0.930 . S
H516 C474 0.929 . S
H517 C475 0.930 . S
H518 C476 0.930 . S
H519 C477 0.930 . S
H520 C479 0.929 . S
H521 C480 0.930 . S
H522 C481 0.930 . S
H523 C482 0.932 . S
H524 C486 0.929 . S
H525 C488 0.930 . S
H526 C494 0.929 . S
H527 C495 0.930 . S
Li528 N545 1.990 . S
Li528 O588 1.956 . S
Li528 O589 1.970 . S
Li528 O590 1.961 . S
Li529 N553 1.990 . S
Li529 O588 1.970 . S
Li529 O589 1.956 . S
Li529 O591 1.961 . S
Li530 N575 1.990 . S
Li530 O588 1.961 . S
Li530 O590 1.956 . S
Li530 O591 1.970 . S
Li531 N581 1.990 . S
Li531 O589 1.961 . S
Li531 O590 1.970 . S
Li531 O591 1.956 . S
C532 C534 1.348 . S
C532 C535 1.356 . S
C532 O588 1.325 . S
N533 C536 1.314 . S
N533 C537 1.279 . S
C534 C532 1.348 . S
C534 C536 1.353 . S
C534 H592 0.929 . S
C535 C532 1.356 . S
C535 C537 1.358 . S
C535 H593 0.930 . S
C536 N533 1.314 . S
C536 C534 1.353 . S
C536 H594 0.930 . S
C537 N533 1.279 . S
C537 C535 1.358 . S
C537 H595 0.930 . S
C538 C541 1.348 . S
C538 C542 1.356 . S
C538 O589 1.325 . S
C539 N540 1.279 . S
C539 C542 1.358 . S
C539 H596 0.930 . S
N540 C539 1.279 . S
N540 C543 1.314 . S
C541 C538 1.348 . S
C541 C543 1.353 . S
C541 H597 0.929 . S
C542 C538 1.356 . S
C542 C539 1.358 . S
C542 H598 0.930 . S
C543 N540 1.314 . S
C543 C541 1.353 . S
C543 H599 0.930 . S
C544 N545 1.314 . S
C544 C549 1.353 . S
C544 H550 0.930 . S
N545 Li528 1.990 . S
N545 C544 1.314 . S
N545 C547 1.279 . S
C546 C547 1.358 . S
C546 C548 1.356 . S
C546 H600 0.930 . S
C547 N545 1.279 . S
C547 C546 1.358 . S
C547 H551 0.930 . S
C548 C546 1.356 . S
C548 C549 1.348 . S
C549 C544 1.353 . S
C549 C548 1.348 . S
C549 H601 0.929 . S
H550 C544 0.930 . S
H551 C547 0.930 . S
C552 N553 1.314 . S
C552 C554 1.353 . S
C552 H558 0.930 . S
N553 Li529 1.990 . S
N553 C552 1.314 . S
N553 C556 1.279 . S
C554 C552 1.353 . S
C554 C557 1.348 . S
C554 H602 0.929 . S
C555 C556 1.358 . S
C555 C557 1.356 . S
C555 H603 0.930 . S
C556 N553 1.279 . S
C556 C555 1.358 . S
C556 H559 0.930 . S
C557 C554 1.348 . S
C557 C555 1.356 . S
H558 C552 0.930 . S
H559 C556 0.930 . S
C560 C562 1.348 . S
C560 C563 1.356 . S
C560 O590 1.325 . S
N561 C564 1.314 . S
N561 C565 1.279 . S
C562 C560 1.348 . S
C562 C564 1.353 . S
C562 H604 0.929 . S
C563 C560 1.356 . S
C563 C565 1.358 . S
C563 H605 0.930 . S
C564 N561 1.314 . S
C564 C562 1.353 . S
C564 H606 0.930 . S
C565 N561 1.279 . S
C565 C563 1.358 . S
C565 H607 0.930 . S
C566 C567 1.348 . S
C566 C568 1.356 . S
C566 O591 1.325 . S
C567 C566 1.348 . S
C567 C569 1.353 . S
C567 H608 0.929 . S
C568 C566 1.356 . S
C568 C570 1.358 . S
C568 H609 0.930 . S
C569 C567 1.353 . S
C569 N571 1.314 . S
C569 H610 0.930 . S
C570 C568 1.358 . S
C570 N571 1.279 . S
C570 H611 0.930 . S
N571 C569 1.314 . S
N571 C570 1.279 . S
C572 C574 1.353 . S
C572 N575 1.314 . S
C572 H578 0.930 . S
C573 N575 1.279 . S
C573 C576 1.358 . S
C573 H579 0.930 . S
C574 C572 1.353 . S
C574 C577 1.348 . S
C574 H612 0.929 . S
N575 Li530 1.990 . S
N575 C572 1.314 . S
N575 C573 1.279 . S
C576 C573 1.358 . S
C576 C577 1.356 . S
C576 H613 0.930 . S
C577 C574 1.348 . S
C577 C576 1.356 . S
H578 C572 0.930 . S
H579 C573 0.930 . S
C580 N581 1.314 . S
C580 C582 1.353 . S
C580 H586 0.930 . S
N581 Li531 1.990 . S
N581 C580 1.314 . S
N581 C584 1.279 . S
C582 C580 1.353 . S
C582 C585 1.348 . S
C582 H614 0.929 . S
C583 C584 1.358 . S
C583 C585 1.356 . S
C583 H615 0.930 . S
C584 N581 1.279 . S
C584 C583 1.358 . S
C584 H587 0.930 . S
C585 C582 1.348 . S
C585 C583 1.356 . S
H586 C580 0.930 . S
H587 C584 0.930 . S
O588 Li528 1.956 . S
O588 Li529 1.970 . S
O588 Li530 1.961 . S
O588 C532 1.325 . S
O589 Li528 1.970 . S
O589 Li529 1.956 . S
O589 Li531 1.961 . S
O589 C538 1.325 . S
O590 Li528 1.961 . S
O590 Li530 1.956 . S
O590 Li531 1.970 . S
O590 C560 1.325 . S
O591 Li529 1.961 . S
O591 Li530 1.970 . S
O591 Li531 1.956 . S
O591 C566 1.325 . S
H592 C534 0.929 . S
H593 C535 0.930 . S
H594 C536 0.930 . S
H595 C537 0.930 . S
H596 C539 0.930 . S
H597 C541 0.929 . S
H598 C542 0.930 . S
H599 C543 0.930 . S
H600 C546 0.930 . S
H601 C549 0.929 . S
H602 C554 0.929 . S
H603 C555 0.930 . S
H604 C562 0.929 . S
H605 C563 0.930 . S
H606 C564 0.930 . S
H607 C565 0.930 . S
H608 C567 0.929 . S
H609 C568 0.930 . S
H610 C569 0.930 . S
H611 C570 0.930 . S
H612 C574 0.929 . S
H613 C576 0.930 . S
H614 C582 0.929 . S
H615 C583 0.930 . S
Li616 N633 1.990 . S
Li616 O676 1.956 . S
Li616 O677 1.970 . S
Li616 O678 1.961 . S
Li617 N641 1.990 . S
Li617 O676 1.970 . S
Li617 O677 1.956 . S
Li617 O679 1.961 . S
Li618 N663 1.990 . S
Li618 O676 1.961 . S
Li618 O678 1.956 . S
Li618 O679 1.970 . S
Li619 N669 1.990 . S
Li619 O677 1.961 . S
Li619 O678 1.970 . S
Li619 O679 1.956 . S
C620 C622 1.348 . S
C620 C623 1.356 . S
C620 O676 1.325 . S
N621 C624 1.314 . S
N621 C625 1.283 . S
C622 C620 1.348 . S
C622 C624 1.353 1_565 S
C622 H680 0.929 . S
C623 C620 1.356 . S
C623 C625 1.353 1_565 S
C623 H681 0.930 . S
C624 N621 1.314 . S
C624 C622 1.353 1_545 S
C624 H682 0.930 . S
C625 N621 1.283 . S
C625 C623 1.353 1_545 S
C625 H683 0.932 . S
C626 C629 1.348 . S
C626 C630 1.356 . S
C626 O677 1.325 . S
C627 N628 1.279 . S
C627 C630 1.358 . S
C627 H684 0.930 . S
N628 C627 1.279 . S
N628 C631 1.314 . S
C629 C626 1.348 . S
C629 C631 1.353 . S
C629 H685 0.929 . S
C630 C626 1.356 . S
C630 C627 1.358 . S
C630 H686 0.930 . S
C631 N628 1.314 . S
C631 C629 1.353 . S
C631 H687 0.930 . S
C632 N633 1.314 . S
C632 C637 1.353 . S
C632 H638 0.930 . S
N633 Li616 1.990 . S
N633 C632 1.314 . S
N633 C635 1.279 . S
C634 C635 1.358 1_545 S
C634 C636 1.356 . S
C634 H688 0.930 . S
C635 N633 1.279 . S
C635 C634 1.358 1_565 S
C635 H639 0.937 . S
C636 C634 1.356 . S
C636 C637 1.348 1_545 S
C637 C632 1.353 . S
C637 C636 1.348 1_565 S
C637 H689 0.929 . S
H638 C632 0.930 . S
H639 C635 0.937 . S
C640 N641 1.314 . S
C640 C642 1.353 . S
C640 H646 0.930 . S
N641 Li617 1.990 . S
N641 C640 1.314 . S
N641 C644 1.279 . S
C642 C640 1.353 . S
C642 C645 1.348 . S
C642 H690 0.929 . S
C643 C644 1.358 . S
C643 C645 1.356 . S
C643 H691 0.930 . S
C644 N641 1.279 . S
C644 C643 1.358 . S
C644 H647 0.930 . S
C645 C642 1.348 . S
C645 C643 1.356 . S
H646 C640 0.930 . S
H647 C644 0.930 . S
C648 C650 1.348 . S
C648 C651 1.356 . S
C648 O678 1.325 . S
N649 C652 1.314 . S
N649 C653 1.279 . S
C650 C648 1.348 . S
C650 C652 1.353 . S
C650 H692 0.929 . S
C651 C648 1.356 . S
C651 C653 1.358 . S
C651 H693 0.930 . S
C652 N649 1.314 . S
C652 C650 1.353 . S
C652 H694 0.930 . S
C653 N649 1.279 . S
C653 C651 1.358 . S
C653 H695 0.930 . S
C654 C655 1.348 . S
C654 C656 1.356 . S
C654 O679 1.325 . S
C655 C654 1.348 . S
C655 C657 1.353 . S
C655 H696 0.929 . S
C656 C654 1.356 . S
C656 C658 1.358 . S
C656 H697 0.930 . S
C657 C655 1.353 . S
C657 N659 1.314 . S
C657 H698 0.930 . S
C658 C656 1.358 . S
C658 N659 1.279 . S
C658 H699 0.930 . S
N659 C657 1.314 . S
N659 C658 1.279 . S
C660 C662 1.353 . S
C660 N663 1.314 . S
C660 H666 0.930 . S
C661 N663 1.279 . S
C661 C664 1.358 . S
C661 H667 0.930 . S
C662 C660 1.353 . S
C662 C665 1.348 . S
C662 H700 0.929 . S
N663 Li618 1.990 . S
N663 C660 1.314 . S
N663 C661 1.279 . S
C664 C661 1.358 . S
C664 C665 1.356 . S
C664 H701 0.930 . S
C665 C662 1.348 . S
C665 C664 1.356 . S
H666 C660 0.930 . S
H667 C661 0.930 . S
C668 N669 1.314 . S
C668 C670 1.353 . S
C668 H674 0.930 . S
N669 Li619 1.990 . S
N669 C668 1.314 . S
N669 C672 1.279 . S
C670 C668 1.353 . S
C670 C673 1.348 . S
C670 H702 0.929 . S
C671 C672 1.358 . S
C671 C673 1.356 . S
C671 H703 0.930 . S
C672 N669 1.279 . S
C672 C671 1.358 . S
C672 H675 0.930 . S
C673 C670 1.348 . S
C673 C671 1.356 . S
H674 C668 0.930 . S
H675 C672 0.930 . S
O676 Li616 1.956 . S
O676 Li617 1.970 . S
O676 Li618 1.961 . S
O676 C620 1.325 . S
O677 Li616 1.970 . S
O677 Li617 1.956 . S
O677 Li619 1.961 . S
O677 C626 1.325 . S
O678 Li616 1.961 . S
O678 Li618 1.956 . S
O678 Li619 1.970 . S
O678 C648 1.325 . S
O679 Li617 1.961 . S
O679 Li618 1.970 . S
O679 Li619 1.956 . S
O679 C654 1.325 . S
H680 C622 0.929 . S
H681 C623 0.930 . S
H682 C624 0.930 . S
H683 C625 0.932 . S
H684 C627 0.930 . S
H685 C629 0.929 . S
H686 C630 0.930 . S
H687 C631 0.930 . S
H688 C634 0.930 . S
H689 C637 0.929 . S
H690 C642 0.929 . S
H691 C643 0.930 . S
H692 C650 0.929 . S
H693 C651 0.930 . S
H694 C652 0.930 . S
H695 C653 0.930 . S
H696 C655 0.929 . S
H697 C656 0.930 . S
H698 C657 0.930 . S
H699 C658 0.930 . S
H700 C662 0.929 . S
H701 C664 0.930 . S
H702 C670 0.929 . S
H703 C671 0.930 . S
H704 C716 0.930 . S
H705 C718 0.930 . S
H706 C719 0.930 1_565 S
H707 C723 0.959 1_465 S
H708 C723 0.959 . S
H709 C723 0.961 1_455 S
H710 C724 0.960 . S
H711 C724 0.961 . S
H712 C724 0.959 . S
H713 C727 0.929 . S
H714 C728 0.931 . S
H715 C730 0.930 . S
C716 H704 0.930 . S
C716 C717 1.399 . S
C716 C721 1.399 . S
C717 C716 1.399 . S
C717 C718 1.376 . S
C718 H705 0.930 . S
C718 C717 1.376 . S
C718 C719 1.388 . S
C719 H706 0.930 1_545 S
C719 C718 1.388 . S
C719 C720 1.390 . S
C720 C719 1.390 . S
C720 C721 1.394 . S
C720 C726 1.465 1_445 S
C721 C716 1.399 . S
C721 C720 1.394 . S
C721 C722 1.516 1_455 S
C722 C721 1.516 1_655 S
C722 C723 1.502 . S
C722 C724 1.561 . S
C722 C725 1.526 1_545 S
C723 H707 0.959 1_645 S
C723 H708 0.959 . S
C723 H709 0.961 1_655 S
C723 C722 1.502 . S
C724 H710 0.960 . S
C724 H711 0.961 . S
C724 H712 0.959 . S
C724 C722 1.561 . S
C725 C722 1.526 1_565 S
C725 C726 1.396 . S
C725 C730 1.390 . S
C726 C720 1.465 1_665 S
C726 C725 1.396 . S
C726 C727 1.399 . S
C727 H713 0.929 . S
C727 C726 1.399 . S
C727 C728 1.385 . S
C728 H714 0.931 . S
C728 C727 1.385 . S
C728 C729 1.389 . S
C729 C728 1.389 . S
C729 C730 1.387 . S
C730 H715 0.930 . S
C730 C725 1.390 . S
C730 C729 1.387 . S
H731 C743 0.930 . S
H732 C745 0.930 . S
H733 C746 0.930 . S
H734 C750 0.959 . S
H735 C750 0.959 . S
H736 C750 0.961 . S
H737 C751 0.960 . S
H738 C751 0.961 . S
H739 C751 0.959 . S
H740 C754 0.929 . S
H741 C755 0.931 . S
H742 C757 0.930 . S
C743 H731 0.930 . S
C743 C744 1.399 . S
C743 C748 1.399 . S
C744 C743 1.399 . S
C744 C745 1.376 . S
C745 H732 0.930 . S
C745 C744 1.376 . S
C745 C746 1.388 . S
C746 H733 0.930 . S
C746 C745 1.388 . S
C746 C747 1.390 . S
C747 C746 1.390 . S
C747 C748 1.394 . S
C747 C753 1.465 . S
C748 C743 1.399 . S
C748 C747 1.394 . S
C748 C749 1.516 . S
C749 C748 1.516 . S
C749 C750 1.502 . S
C749 C751 1.561 . S
C749 C752 1.526 . S
C750 H734 0.959 . S
C750 H735 0.959 . S
C750 H736 0.961 . S
C750 C749 1.502 . S
C751 H737 0.960 . S
C751 H738 0.961 . S
C751 H739 0.959 . S
C751 C749 1.561 . S
C752 C749 1.526 . S
C752 C753 1.396 . S
C752 C757 1.390 . S
C753 C747 1.465 . S
C753 C752 1.396 . S
C753 C754 1.399 . S
C754 H740 0.929 . S
C754 C753 1.399 . S
C754 C755 1.385 . S
C755 H741 0.931 . S
C755 C754 1.385 . S
C755 C756 1.389 . S
C756 C755 1.389 . S
C756 C757 1.387 . S
C757 H742 0.930 . S
C757 C752 1.390 . S
C757 C756 1.387 . S
H758 C770 0.930 . S
H759 C772 0.930 . S
H760 C773 0.930 . S
H761 C777 0.959 . S
H762 C777 0.959 . S
H763 C777 0.961 . S
H764 C778 0.960 . S
H765 C778 0.961 . S
H766 C778 0.959 . S
H767 C781 0.929 . S
H768 C782 0.931 . S
H769 C784 0.930 . S
C770 H758 0.930 . S
C770 C771 1.399 . S
C770 C775 1.399 . S
C771 C770 1.399 . S
C771 C772 1.376 . S
C772 H759 0.930 . S
C772 C771 1.376 . S
C772 C773 1.388 . S
C773 H760 0.930 . S
C773 C772 1.388 . S
C773 C774 1.390 . S
C774 C773 1.390 . S
C774 C775 1.394 . S
C774 C780 1.465 . S
C775 C770 1.399 . S
C775 C774 1.394 . S
C775 C776 1.516 . S
C776 C775 1.516 . S
C776 C777 1.502 . S
C776 C778 1.561 . S
C776 C779 1.526 . S
C777 H761 0.959 . S
C777 H762 0.959 . S
C777 H763 0.961 . S
C777 C776 1.502 . S
C778 H764 0.960 . S
C778 H765 0.961 . S
C778 H766 0.959 . S
C778 C776 1.561 . S
C779 C776 1.526 . S
C779 C780 1.396 . S
C779 C784 1.390 . S
C780 C774 1.465 . S
C780 C779 1.396 . S
C780 C781 1.399 . S
C781 H767 0.929 . S
C781 C780 1.399 . S
C781 C782 1.385 . S
C782 H768 0.931 . S
C782 C781 1.385 . S
C782 C783 1.389 . S
C783 C782 1.389 . S
C783 C784 1.387 . S
C784 H769 0.930 . S
C784 C779 1.390 . S
C784 C783 1.387 . S
H785 C797 0.930 . S
H786 C799 0.930 . S
H787 C800 0.930 . S
H788 C804 0.959 . S
H789 C804 0.961 1_655 S
H790 C804 0.961 1_545 S
H791 C805 0.960 . S
H792 C805 0.961 . S
H793 C805 0.959 . S
H794 C808 0.929 . S
H795 C809 0.931 . S
H796 C811 0.930 . S
C797 H785 0.930 . S
C797 C798 1.399 . S
C797 C802 1.399 . S
C798 C797 1.399 . S
C798 C799 1.376 . S
C799 H786 0.930 . S
C799 C798 1.376 . S
C799 C800 1.388 . S
C800 H787 0.930 . S
C800 C799 1.388 . S
C800 C801 1.390 . S
C801 C800 1.390 . S
C801 C802 1.394 . S
C801 C807 1.465 1_445 S
C802 C797 1.399 . S
C802 C801 1.394 . S
C802 C803 1.516 1_455 S
C803 C802 1.516 1_655 S
C803 C804 1.502 1_645 S
C803 C805 1.561 . S
C803 C806 1.526 1_545 S
C804 H788 0.959 . S
C804 H789 0.961 1_455 S
C804 H790 0.961 1_565 S
C804 C803 1.502 1_465 S
C805 H791 0.960 . S
C805 H792 0.961 . S
C805 H793 0.959 . S
C805 C803 1.561 . S
C806 C803 1.526 1_565 S
C806 C807 1.396 . S
C806 C811 1.390 . S
C807 C801 1.465 1_665 S
C807 C806 1.396 . S
C807 C808 1.399 . S
C808 H794 0.929 . S
C808 C807 1.399 . S
C808 C809 1.385 . S
C809 H795 0.931 . S
C809 C808 1.385 . S
C809 C810 1.389 . S
C810 C809 1.389 . S
C810 C811 1.387 . S
C811 H796 0.930 . S
C811 C806 1.390 . S
C811 C810 1.387 . S
H812 C824 0.930 . S
H813 C826 0.930 . S
H814 C827 0.930 . S
H815 C831 0.959 . S
H816 C831 0.959 . S
H817 C831 0.961 . S
H818 C832 0.960 . S
H819 C832 0.961 . S
H820 C832 0.959 . S
H821 C835 0.929 . S
H822 C836 0.931 . S
H823 C838 0.930 . S
C824 H812 0.930 . S
C824 C825 1.399 . S
C824 C829 1.399 . S
C825 C824 1.399 . S
C825 C826 1.376 . S
C826 H813 0.930 . S
C826 C825 1.376 . S
C826 C827 1.388 . S
C827 H814 0.930 . S
C827 C826 1.388 . S
C827 C828 1.390 . S
C828 C827 1.390 . S
C828 C829 1.394 . S
C828 C834 1.465 . S
C829 C824 1.399 . S
C829 C828 1.394 . S
C829 C830 1.516 . S
C830 C829 1.516 . S
C830 C831 1.502 . S
C830 C832 1.561 . S
C830 C833 1.526 . S
C831 H815 0.959 . S
C831 H816 0.959 . S
C831 H817 0.961 . S
C831 C830 1.502 . S
C832 H818 0.960 . S
C832 H819 0.961 . S
C832 H820 0.959 . S
C832 C830 1.561 . S
C833 C830 1.526 . S
C833 C834 1.396 . S
C833 C838 1.390 . S
C834 C828 1.465 . S
C834 C833 1.396 . S
C834 C835 1.399 . S
C835 H821 0.929 . S
C835 C834 1.399 . S
C835 C836 1.385 . S
C836 H822 0.931 . S
C836 C835 1.385 . S
C836 C837 1.389 . S
C837 C836 1.389 . S
C837 C838 1.387 . S
C838 H823 0.930 . S
C838 C833 1.390 . S
C838 C837 1.387 . S
H839 C851 0.930 . S
H840 C853 0.930 . S
H841 C854 0.930 . S
H842 C858 0.959 . S
H843 C858 0.959 . S
H844 C858 0.961 . S
H845 C859 0.960 . S
H846 C859 0.961 . S
H847 C859 0.959 . S
H848 C862 0.929 1_556 S
H849 C863 0.931 . S
H850 C865 0.930 . S
C851 H839 0.930 . S
C851 C852 1.399 . S
C851 C856 1.399 . S
C852 C851 1.399 . S
C852 C853 1.376 . S
C853 H840 0.930 . S
C853 C852 1.376 . S
C853 C854 1.388 . S
C854 H841 0.930 . S
C854 C853 1.388 . S
C854 C855 1.390 . S
C855 C854 1.390 . S
C855 C856 1.394 . S
C855 C861 1.465 1_556 S
C856 C851 1.399 . S
C856 C855 1.394 . S
C856 C857 1.516 1_556 S
C857 C856 1.516 1_554 S
C857 C858 1.502 . S
C857 C859 1.561 . S
C857 C860 1.526 . S
C858 H842 0.959 . S
C858 H843 0.959 . S
C858 H844 0.961 . S
C858 C857 1.502 . S
C859 H845 0.960 . S
C859 H846 0.961 . S
C859 H847 0.959 . S
C859 C857 1.561 . S
C860 C857 1.526 . S
C860 C861 1.396 . S
C860 C865 1.390 . S
C861 C855 1.465 1_554 S
C861 C860 1.396 . S
C861 C862 1.399 . S
C862 H848 0.929 1_554 S
C862 C861 1.399 . S
C862 C863 1.385 . S
C863 H849 0.931 . S
C863 C862 1.385 . S
C863 C864 1.389 . S
C864 C863 1.389 . S
C864 C865 1.387 . S
C865 H850 0.930 . S
C865 C860 1.390 . S
C865 C864 1.387 . S
H866 C878 0.930 . S
H867 C880 0.930 . S
H868 C881 0.930 . S
H869 C885 0.959 . S
H870 C885 0.959 . S
H871 C885 0.961 . S
H872 C886 0.960 . S
H873 C886 0.961 . S
H874 C886 0.959 . S
H875 C889 0.929 . S
H876 C890 0.931 . S
H877 C892 0.930 . S
C878 H866 0.930 . S
C878 C879 1.399 . S
C878 C883 1.399 . S
C879 C878 1.399 . S
C879 C880 1.376 . S
C880 H867 0.930 . S
C880 C879 1.376 . S
C880 C881 1.388 . S
C881 H868 0.930 . S
C881 C880 1.388 . S
C881 C882 1.390 . S
C882 C881 1.390 . S
C882 C883 1.394 . S
C882 C888 1.465 . S
C883 C878 1.399 . S
C883 C882 1.394 . S
C883 C884 1.516 . S
C884 C883 1.516 . S
C884 C885 1.502 . S
C884 C886 1.561 . S
C884 C887 1.526 . S
C885 H869 0.959 . S
C885 H870 0.959 . S
C885 H871 0.961 . S
C885 C884 1.502 . S
C886 H872 0.960 . S
C886 H873 0.961 . S
C886 H874 0.959 . S
C886 C884 1.561 . S
C887 C884 1.526 . S
C887 C888 1.396 . S
C887 C892 1.390 . S
C888 C882 1.465 . S
C888 C887 1.396 . S
C888 C889 1.399 . S
C889 H875 0.929 . S
C889 C888 1.399 . S
C889 C890 1.385 . S
C890 H876 0.931 . S
C890 C889 1.385 . S
C890 C891 1.389 . S
C891 C890 1.389 . S
C891 C892 1.387 . S
C892 H877 0.930 . S
C892 C887 1.390 . S
C892 C891 1.387 . S
H893 C905 0.930 . S
H894 C907 0.930 . S
H895 C908 0.930 1_554 S
H896 C912 0.959 . S
H897 C912 0.959 . S
H898 C912 0.961 . S
H899 C913 0.960 . S
H900 C913 0.961 . S
H901 C913 0.959 . S
H902 C916 0.929 . S
H903 C917 0.931 . S
H904 C919 0.930 . S
C905 H893 0.930 . S
C905 C906 1.399 . S
C905 C910 1.399 . S
C906 C905 1.399 . S
C906 C907 1.376 . S
C907 H894 0.930 . S
C907 C906 1.376 . S
C907 C908 1.388 . S
C908 H895 0.930 1_556 S
C908 C907 1.388 . S
C908 C909 1.390 . S
C909 C908 1.390 . S
C909 C910 1.394 . S
C909 C915 1.465 1_556 S
C910 C905 1.399 . S
C910 C909 1.394 . S
C910 C911 1.516 . S
C911 C910 1.516 . S
C911 C912 1.502 . S
C911 C913 1.561 . S
C911 C914 1.526 1_556 S
C912 H896 0.959 . S
C912 H897 0.959 . S
C912 H898 0.961 . S
C912 C911 1.502 . S
C913 H899 0.960 . S
C913 H900 0.961 . S
C913 H901 0.959 . S
C913 C911 1.561 . S
C914 C911 1.526 1_554 S
C914 C915 1.396 . S
C914 C919 1.390 . S
C915 C909 1.465 1_554 S
C915 C914 1.396 . S
C915 C916 1.399 . S
C916 H902 0.929 . S
C916 C915 1.399 . S
C916 C917 1.385 . S
C917 H903 0.931 . S
C917 C916 1.385 . S
C917 C918 1.389 . S
C918 C917 1.389 . S
C918 C919 1.387 . S
C919 H904 0.930 . S
C919 C914 1.390 . S
C919 C918 1.387 . S
H920 C932 0.930 . S
H921 C934 0.930 . S
H922 C935 0.930 . S
H923 C939 0.959 . S
H924 C939 0.959 . S
H925 C939 0.961 . S
H926 C940 0.960 . S
H927 C940 0.961 . S
H928 C940 0.959 . S
H929 C943 0.929 . S
H930 C944 0.931 . S
H931 C946 0.930 . S
C932 H920 0.930 . S
C932 C933 1.399 . S
C932 C937 1.399 . S
C933 C932 1.399 . S
C933 C934 1.376 . S
C934 H921 0.930 . S
C934 C933 1.376 . S
C934 C935 1.388 . S
C935 H922 0.930 . S
C935 C934 1.388 . S
C935 C936 1.390 . S
C936 C935 1.390 . S
C936 C937 1.394 . S
C936 C942 1.465 . S
C937 C932 1.399 . S
C937 C936 1.394 . S
C937 C938 1.516 . S
C938 C937 1.516 . S
C938 C939 1.502 . S
C938 C940 1.561 . S
C938 C941 1.526 . S
C939 H923 0.959 . S
C939 H924 0.959 . S
C939 H925 0.961 . S
C939 C938 1.502 . S
C940 H926 0.960 . S
C940 H927 0.961 . S
C940 H928 0.959 . S
C940 C938 1.561 . S
C941 C938 1.526 . S
C941 C942 1.396 . S
C941 C946 1.390 . S
C942 C936 1.465 . S
C942 C941 1.396 . S
C942 C943 1.399 . S
C943 H929 0.929 . S
C943 C942 1.399 . S
C943 C944 1.385 . S
C944 H930 0.931 . S
C944 C943 1.385 . S
C944 C945 1.389 . S
C945 C944 1.389 . S
C945 C946 1.387 . S
C946 H931 0.930 . S
C946 C941 1.390 . S
C946 C945 1.387 . S
H947 C959 0.930 . S
H948 C961 0.930 . S
H949 C962 0.930 . S
H950 C966 0.959 . S
H951 C966 0.959 . S
H952 C966 0.961 . S
H953 C967 0.960 . S
H954 C967 0.961 . S
H955 C967 0.959 . S
H956 C970 0.929 . S
H957 C971 0.931 . S
H958 C973 0.930 . S
C959 H947 0.930 . S
C959 C960 1.399 . S
C959 C964 1.399 . S
C960 C959 1.399 . S
C960 C961 1.376 . S
C961 H948 0.930 . S
C961 C960 1.376 . S
C961 C962 1.388 . S
C962 H949 0.930 . S
C962 C961 1.388 . S
C962 C963 1.390 . S
C963 C962 1.390 . S
C963 C964 1.394 . S
C963 C969 1.465 . S
C964 C959 1.399 . S
C964 C963 1.394 . S
C964 C965 1.516 . S
C965 C964 1.516 . S
C965 C966 1.502 . S
C965 C967 1.561 . S
C965 C968 1.526 . S
C966 H950 0.959 . S
C966 H951 0.959 . S
C966 H952 0.961 . S
C966 C965 1.502 . S
C967 H953 0.960 . S
C967 H954 0.961 . S
C967 H955 0.959 . S
C967 C965 1.561 . S
C968 C965 1.526 . S
C968 C969 1.396 . S
C968 C973 1.390 . S
C969 C963 1.465 . S
C969 C968 1.396 . S
C969 C970 1.399 . S
C970 H956 0.929 . S
C970 C969 1.399 . S
C970 C971 1.385 . S
C971 H957 0.931 . S
C971 C970 1.385 . S
C971 C972 1.389 . S
C972 C971 1.389 . S
C972 C973 1.387 . S
C973 H958 0.930 . S
C973 C968 1.390 . S
C973 C972 1.387 . S
H974 C986 0.930 . S
H975 C988 0.930 . S
H976 C989 0.930 . S
H977 C993 0.959 . S
H978 C993 0.959 . S
H979 C993 0.961 . S
H980 C994 0.960 . S
H981 C994 0.961 . S
H982 C994 0.959 . S
H983 C997 0.929 . S
H984 C998 0.931 . S
H985 C1000 0.930 . S
C986 H974 0.930 . S
C986 C987 1.399 . S
C986 C991 1.399 . S
C987 C986 1.399 . S
C987 C988 1.376 . S
C988 H975 0.930 . S
C988 C987 1.376 . S
C988 C989 1.388 . S
C989 H976 0.930 . S
C989 C988 1.388 . S
C989 C990 1.390 . S
C990 C989 1.390 . S
C990 C991 1.394 . S
C990 C996 1.465 . S
C991 C986 1.399 . S
C991 C990 1.394 . S
C991 C992 1.516 . S
C992 C991 1.516 . S
C992 C993 1.502 . S
C992 C994 1.561 . S
C992 C995 1.526 . S
C993 H977 0.959 . S
C993 H978 0.959 . S
C993 H979 0.961 . S
C993 C992 1.502 . S
C994 H980 0.960 . S
C994 H981 0.961 . S
C994 H982 0.959 . S
C994 C992 1.561 . S
C995 C992 1.526 . S
C995 C996 1.396 . S
C995 C1000 1.390 . S
C996 C990 1.465 . S
C996 C995 1.396 . S
C996 C997 1.399 . S
C997 H983 0.929 . S
C997 C996 1.399 . S
C997 C998 1.385 . S
C998 H984 0.931 . S
C998 C997 1.385 . S
C998 C999 1.389 . S
C999 C998 1.389 . S
C999 C1000 1.387 . S
C1000 H985 0.930 . S
C1000 C995 1.390 . S
C1000 C999 1.387 . S
H1001 C1013 0.930 . S
H1002 C1015 0.930 . S
H1003 C1016 0.930 . S
H1004 C1020 0.959 . S
H1005 C1020 0.959 . S
H1006 C1020 0.961 . S
H1007 C1021 0.960 . S
H1008 C1021 0.961 . S
H1009 C1021 0.959 . S
H1010 C1024 0.929 . S
H1011 C1025 0.931 . S
H1012 C1027 0.930 . S
C1013 H1001 0.930 . S
C1013 C1014 1.399 . S
C1013 C1018 1.399 . S
C1014 C1013 1.399 . S
C1014 C1015 1.376 . S
C1015 H1002 0.930 . S
C1015 C1014 1.376 . S
C1015 C1016 1.388 . S
C1016 H1003 0.930 . S
C1016 C1015 1.388 . S
C1016 C1017 1.390 . S
C1017 C1016 1.390 . S
C1017 C1018 1.394 . S
C1017 C1023 1.465 . S
C1018 C1013 1.399 . S
C1018 C1017 1.394 . S
C1018 C1019 1.516 . S
C1019 C1018 1.516 . S
C1019 C1020 1.502 . S
C1019 C1021 1.561 . S
C1019 C1022 1.526 . S
C1020 H1004 0.959 . S
C1020 H1005 0.959 . S
C1020 H1006 0.961 . S
C1020 C1019 1.502 . S
C1021 H1007 0.960 . S
C1021 H1008 0.961 . S
C1021 H1009 0.959 . S
C1021 C1019 1.561 . S
C1022 C1019 1.526 . S
C1022 C1023 1.396 . S
C1022 C1027 1.390 . S
C1023 C1017 1.465 . S
C1023 C1022 1.396 . S
C1023 C1024 1.399 . S
C1024 H1010 0.929 . S
C1024 C1023 1.399 . S
C1024 C1025 1.385 . S
C1025 H1011 0.931 . S
C1025 C1024 1.385 . S
C1025 C1026 1.389 . S
C1026 C1025 1.389 . S
C1026 C1027 1.387 . S
C1027 H1012 0.930 . S
C1027 C1022 1.390 . S
C1027 C1026 1.387 . S
H1028 C1040 0.930 . S
H1029 C1042 0.930 . S
H1030 C1043 0.930 . S
H1031 C1047 0.959 . S
H1032 C1047 0.959 . S
H1033 C1047 0.961 . S
H1034 C1048 0.960 . S
H1035 C1048 0.961 . S
H1036 C1048 0.959 . S
H1037 C1051 0.929 . S
H1038 C1052 0.931 . S
H1039 C1054 0.930 . S
C1040 H1028 0.930 . S
C1040 C1041 1.399 . S
C1040 C1045 1.399 . S
C1041 C1040 1.399 . S
C1041 C1042 1.376 . S
C1042 H1029 0.930 . S
C1042 C1041 1.376 . S
C1042 C1043 1.388 . S
C1043 H1030 0.930 . S
C1043 C1042 1.388 . S
C1043 C1044 1.390 . S
C1044 C1043 1.390 . S
C1044 C1045 1.394 . S
C1044 C1050 1.465 . S
C1045 C1040 1.399 . S
C1045 C1044 1.394 . S
C1045 C1046 1.516 . S
C1046 C1045 1.516 . S
C1046 C1047 1.502 . S
C1046 C1048 1.561 . S
C1046 C1049 1.526 . S
C1047 H1031 0.959 . S
C1047 H1032 0.959 . S
C1047 H1033 0.961 . S
C1047 C1046 1.502 . S
C1048 H1034 0.960 . S
C1048 H1035 0.961 . S
C1048 H1036 0.959 . S
C1048 C1046 1.561 . S
C1049 C1046 1.526 . S
C1049 C1050 1.396 . S
C1049 C1054 1.390 . S
C1050 C1044 1.465 . S
C1050 C1049 1.396 . S
C1050 C1051 1.399 . S
C1051 H1037 0.929 . S
C1051 C1050 1.399 . S
C1051 C1052 1.385 . S
C1052 H1038 0.931 . S
C1052 C1051 1.385 . S
C1052 C1053 1.389 . S
C1053 C1052 1.389 . S
C1053 C1054 1.387 . S
C1054 H1039 0.930 . S
C1054 C1049 1.390 . S
C1054 C1053 1.387 . S
H1055 C1067 0.930 . S
H1056 C1069 0.930 . S
H1057 C1070 0.930 . S
H1058 C1074 0.959 . S
H1059 C1074 0.959 . S
H1060 C1074 0.961 . S
H1061 C1075 0.960 . S
H1062 C1075 0.961 . S
H1063 C1075 0.959 . S
H1064 C1078 0.929 . S
H1065 C1079 0.931 . S
H1066 C1081 0.930 . S
C1067 H1055 0.930 . S
C1067 C1068 1.399 . S
C1067 C1072 1.399 . S
C1068 C1067 1.399 . S
C1068 C1069 1.376 . S
C1069 H1056 0.930 . S
C1069 C1068 1.376 . S
C1069 C1070 1.388 . S
C1070 H1057 0.930 . S
C1070 C1069 1.388 . S
C1070 C1071 1.390 . S
C1071 C1070 1.390 . S
C1071 C1072 1.394 . S
C1071 C1077 1.465 . S
C1072 C1067 1.399 . S
C1072 C1071 1.394 . S
C1072 C1073 1.516 . S
C1073 C1072 1.516 . S
C1073 C1074 1.502 . S
C1073 C1075 1.561 . S
C1073 C1076 1.526 . S
C1074 H1058 0.959 . S
C1074 H1059 0.959 . S
C1074 H1060 0.961 . S
C1074 C1073 1.502 . S
C1075 H1061 0.960 . S
C1075 H1062 0.961 . S
C1075 H1063 0.959 . S
C1075 C1073 1.561 . S
C1076 C1073 1.526 . S
C1076 C1077 1.396 . S
C1076 C1081 1.390 . S
C1077 C1071 1.465 . S
C1077 C1076 1.396 . S
C1077 C1078 1.399 . S
C1078 H1064 0.929 . S
C1078 C1077 1.399 . S
C1078 C1079 1.385 . S
C1079 H1065 0.931 . S
C1079 C1078 1.385 . S
C1079 C1080 1.389 . S
C1080 C1079 1.389 . S
C1080 C1081 1.387 . S
C1081 H1066 0.930 . S
C1081 C1076 1.390 . S
C1081 C1080 1.387 . S
H1082 C1094 0.930 . S
H1083 C1096 0.930 . S
H1084 C1097 0.930 . S
H1085 C1101 0.959 . S
H1086 C1101 0.959 . S
H1087 C1101 0.961 . S
H1088 C1102 0.960 . S
H1089 C1102 0.961 . S
H1090 C1102 0.959 . S
H1091 C1105 0.929 . S
H1092 C1106 0.931 . S
H1093 C1108 0.930 . S
C1094 H1082 0.930 . S
C1094 C1095 1.399 . S
C1094 C1099 1.399 . S
C1095 C1094 1.399 . S
C1095 C1096 1.376 . S
C1096 H1083 0.930 . S
C1096 C1095 1.376 . S
C1096 C1097 1.388 . S
C1097 H1084 0.930 . S
C1097 C1096 1.388 . S
C1097 C1098 1.390 . S
C1098 C1097 1.390 . S
C1098 C1099 1.394 . S
C1098 C1104 1.465 . S
C1099 C1094 1.399 . S
C1099 C1098 1.394 . S
C1099 C1100 1.516 . S
C1100 C1099 1.516 . S
C1100 C1101 1.502 . S
C1100 C1102 1.561 . S
C1100 C1103 1.526 . S
C1101 H1085 0.959 . S
C1101 H1086 0.959 . S
C1101 H1087 0.961 . S
C1101 C1100 1.502 . S
C1102 H1088 0.960 . S
C1102 H1089 0.961 . S
C1102 H1090 0.959 . S
C1102 C1100 1.561 . S
C1103 C1100 1.526 . S
C1103 C1104 1.396 . S
C1103 C1108 1.390 . S
C1104 C1098 1.465 . S
C1104 C1103 1.396 . S
C1104 C1105 1.399 . S
C1105 H1091 0.929 . S
C1105 C1104 1.399 . S
C1105 C1106 1.385 . S
C1106 H1092 0.931 . S
C1106 C1105 1.385 . S
C1106 C1107 1.389 . S
C1107 C1106 1.389 . S
C1107 C1108 1.387 . S
C1108 H1093 0.930 . S
C1108 C1103 1.390 . S
C1108 C1107 1.387 . S
H1109 C1121 0.930 . S
H1110 C1123 0.930 . S
H1111 C1124 0.930 . S
H1112 C1128 0.959 . S
H1113 C1128 0.959 . S
H1114 C1128 0.961 . S
H1115 C1129 0.960 . S
H1116 C1129 0.961 . S
H1117 C1129 0.959 . S
H1118 C1132 0.929 . S
H1119 C1133 0.931 . S
H1120 C1135 0.930 . S
C1121 H1109 0.930 . S
C1121 C1122 1.399 . S
C1121 C1126 1.399 . S
C1122 C1121 1.399 . S
C1122 C1123 1.376 . S
C1123 H1110 0.930 . S
C1123 C1122 1.376 . S
C1123 C1124 1.388 . S
C1124 H1111 0.930 . S
C1124 C1123 1.388 . S
C1124 C1125 1.390 . S
C1125 C1124 1.390 . S
C1125 C1126 1.394 . S
C1125 C1131 1.465 . S
C1126 C1121 1.399 . S
C1126 C1125 1.394 . S
C1126 C1127 1.516 . S
C1127 C1126 1.516 . S
C1127 C1128 1.502 . S
C1127 C1129 1.561 . S
C1127 C1130 1.526 . S
C1128 H1112 0.959 . S
C1128 H1113 0.959 . S
C1128 H1114 0.961 . S
C1128 C1127 1.502 . S
C1129 H1115 0.960 . S
C1129 H1116 0.961 . S
C1129 H1117 0.959 . S
C1129 C1127 1.561 . S
C1130 C1127 1.526 . S
C1130 C1131 1.396 . S
C1130 C1135 1.390 . S
C1131 C1125 1.465 . S
C1131 C1130 1.396 . S
C1131 C1132 1.399 . S
C1132 H1118 0.929 . S
C1132 C1131 1.399 . S
C1132 C1133 1.385 . S
C1133 H1119 0.931 . S
C1133 C1132 1.385 . S
C1133 C1134 1.389 . S
C1134 C1133 1.389 . S
C1134 C1135 1.387 . S
C1135 H1120 0.930 . S
C1135 C1130 1.390 . S
C1135 C1134 1.387 . S
C717 C57 0.737 . S
C729 C233 0.709 . S
C744 C137 0.732 . S
C756 C293 0.690 . S
C771 C372 0.766 . S
C783 C557 0.677 . S
C798 C489 0.728 . S
C810 C645 0.694 . S
C825 C29 1.885 . S
C837 C469 1.932 . S
C852 C117 1.877 . S
C864 C585 1.929 . S
C879 C665 1.943 . S
C891 C205 1.870 . S
C906 C313 1.947 . S
C918 C401 1.860 . S
C933 C409 1.772 . S
C945 C49 1.904 . S
C960 C108 1.878 . S
C972 C497 1.720 . S
C987 C225 1.891 . S
C999 C577 1.796 . S
C1014 C321 1.846 . S
C1026 C636 1.761 . S
C1041 C20 1.822 . S
C1053 C381 1.872 . S
C1068 C460 1.874 . S
C1080 C145 1.728 . S
C1095 C548 1.917 . S
C1107 C196 1.742 . S
C1122 C284 1.790 . S
C1134 C673 1.838 . S
