# Generated by pormake.
# Topology vma, (5)-cn, num edge types: 1
# Building blocks:
#     Node 0, Type 0, BuildingBlock: BEQFEK_clean_sbu_0, # of connection points: 5
#     Node 1, Type 0, BuildingBlock: BEQFEK_clean_sbu_0, # of connection points: 5
#     Node 2, Type 0, BuildingBlock: BEQFEK_clean_sbu_0, # of connection points: 5
#     Node 3, Type 0, BuildingBlock: BEQFEK_clean_sbu_0, # of connection points: 5
#     Node 4, Type 0, BuildingBlock: BEQFEK_clean_sbu_0, # of connection points: 5
#     Node 5, Type 0, BuildingBlock: BEQFEK_clean_sbu_0, # of connection points: 5
#     Node 6, Type 0, BuildingBlock: BEQFEK_clean_sbu_0, # of connection points: 5
#     Node 7, Type 0, BuildingBlock: BEQFEK_clean_sbu_0, # of connection points: 5
#     Edge 8, Type (0, 0), BuildingBlock: MIFKUJ_clean_linker_0, # of connection points: 2
#     Edge 9, Type (0, 0), BuildingBlock: MIFKUJ_clean_linker_0, # of connection points: 2
#     Edge 10, Type (0, 0), BuildingBlock: MIFKUJ_clean_linker_0, # of connection points: 2
#     Edge 11, Type (0, 0), BuildingBlock: MIFKUJ_clean_linker_0, # of connection points: 2
#     Edge 12, Type (0, 0), BuildingBlock: MIFKUJ_clean_linker_0, # of connection points: 2
#     Edge 13, Type (0, 0), BuildingBlock: MIFKUJ_clean_linker_0, # of connection points: 2
#     Edge 14, Type (0, 0), BuildingBlock: MIFKUJ_clean_linker_0, # of connection points: 2
#     Edge 15, Type (0, 0), BuildingBlock: MIFKUJ_clean_linker_0, # of connection points: 2
#     Edge 16, Type (0, 0), BuildingBlock: MIFKUJ_clean_linker_0, # of connection points: 2
#     Edge 17, Type (0, 0), BuildingBlock: MIFKUJ_clean_linker_0, # of connection points: 2
#     Edge 18, Type (0, 0), BuildingBlock: MIFKUJ_clean_linker_0, # of connection points: 2
#     Edge 19, Type (0, 0), BuildingBlock: MIFKUJ_clean_linker_0, # of connection points: 2
#     Edge 20, Type (0, 0), BuildingBlock: MIFKUJ_clean_linker_0, # of connection points: 2
#     Edge 21, Type (0, 0), BuildingBlock: MIFKUJ_clean_linker_0, # of connection points: 2
#     Edge 22, Type (0, 0), BuildingBlock: MIFKUJ_clean_linker_0, # of connection points: 2
#     Edge 23, Type (0, 0), BuildingBlock: MIFKUJ_clean_linker_0, # of connection points: 2
#     Edge 24, Type (0, 0), BuildingBlock: MIFKUJ_clean_linker_0, # of connection points: 2
#     Edge 25, Type (0, 0), BuildingBlock: MIFKUJ_clean_linker_0, # of connection points: 2
#     Edge 26, Type (0, 0), BuildingBlock: MIFKUJ_clean_linker_0, # of connection points: 2
#     Edge 27, Type (0, 0), BuildingBlock: MIFKUJ_clean_linker_0, # of connection points: 2
# Relax obj value: 0.013
# Max RMSD: 0.085
# Mean RMSD: 0.085
data_MOF--net-vma--node1-BEQFEK_clean_sbu_0--edge1-MIFKUJ_clean_linker_0
_symmetry_space_group_name_H-M    P1
_symmetry_Int_Tables_number       1
_symmetry_cell_setting            triclinic
loop_
_symmetry_equiv_pos_as_xyz
'x, y, z'
_cell_length_a     47.56652
_cell_length_b     36.935009
_cell_length_c     53.947434
_cell_angle_alpha  90.013516
_cell_angle_beta   99.379936
_cell_angle_gamma 90.010858
loop_
_atom_site_label
_atom_site_type_symbol
_atom_site_fract_x
_atom_site_fract_y
_atom_site_fract_z
_atom_type_partial_charge
Co0 Co 0.3709 0.1202 0.36537 0.0
Co1 Co 0.32878 0.16611 0.3267 0.0
C2 C 0.3917 0.1633 0.32499 0.0
O3 O 0.39625 0.14249 0.34403 0.0
O4 O 0.36671 0.17468 0.31641 0.0
C5 C 0.41839 0.10736 0.40473 0.0
O6 O 0.42677 0.13935 0.39817 0.0
C7 C 0.30542 0.23172 0.30037 0.0
C8 C 0.26072 0.21599 0.28697 0.0
C9 C 0.27972 0.24453 0.28732 0.0
N10 N 0.30167 0.19734 0.30734 0.0
N11 N 0.27497 0.188 0.29909 0.0
C12 C 0.33239 0.25252 0.30829 0.0
H13 H 0.34488 0.24037 0.32544 0.0
H14 H 0.32771 0.2813 0.31192 0.0
H15 H 0.34546 0.25139 0.29304 0.0
C16 C 0.3428 0.16261 0.40131 0.0
N17 N 0.34732 0.15506 0.37782 0.0
N18 N 0.32971 0.17443 0.36168 0.0
C19 C 0.31342 0.19491 0.37444 0.0
C20 C 0.32117 0.18811 0.39995 0.0
C21 C 0.35696 0.14306 0.42429 0.0
H22 H 0.35694 0.11353 0.42055 0.0
H23 H 0.37943 0.15216 0.42889 0.0
H24 H 0.34614 0.14825 0.44066 0.0
O25 O 0.3473 0.08327 0.34514 0.0
O26 O 0.31652 0.11534 0.31836 0.0
H27 H 0.27389 0.20442 0.35015 0.0
H28 H 0.2807 0.23528 0.37651 0.0
C29 C 0.29056 0.2201 0.3624 0.0
H30 H 0.29982 0.23985 0.35057 0.0
H31 H 0.26635 0.16272 0.30213 0.0
O32 O 0.39504 0.0944 0.39336 0.0
C33 C 0.32633 0.08505 0.32718 0.0
Co34 Co 0.63562 0.11778 0.13725 0.0
Co35 Co 0.67731 0.16546 0.17515 0.0
C36 C 0.61498 0.16038 0.17821 0.0
O37 O 0.61059 0.13879 0.15956 0.0
O38 O 0.63971 0.17317 0.18607 0.0
C39 C 0.58644 0.10161 0.10031 0.0
O40 O 0.5764 0.13157 0.10868 0.0
C41 C 0.70004 0.23177 0.20112 0.0
C42 C 0.74563 0.21837 0.21212 0.0
C43 C 0.72588 0.24573 0.21288 0.0
N44 N 0.70433 0.19772 0.19374 0.0
N45 N 0.73158 0.18975 0.2006 0.0
C46 C 0.67223 0.2513 0.19511 0.0
H47 H 0.65936 0.23992 0.17785 0.0
H48 H 0.67569 0.2807 0.19256 0.0
H49 H 0.66021 0.24775 0.21092 0.0
C50 C 0.66115 0.16147 0.10052 0.0
N51 N 0.65758 0.15378 0.12422 0.0
N52 N 0.67516 0.17377 0.13996 0.0
C53 C 0.69044 0.19496 0.12668 0.0
C54 C 0.68207 0.18786 0.10125 0.0
C55 C 0.6452 0.14317 0.07772 0.0
H56 H 0.64936 0.11361 0.07898 0.0
H57 H 0.62204 0.1474 0.07716 0.0
H58 H 0.6512 0.15392 0.06012 0.0
O59 O 0.66124 0.08185 0.1564 0.0
O60 O 0.69045 0.11498 0.18375 0.0
H61 H 0.73022 0.20188 0.15106 0.0
H62 H 0.72594 0.23097 0.12395 0.0
C63 C 0.71474 0.21842 0.13825 0.0
H64 H 0.70662 0.24007 0.14945 0.0
H65 H 0.74069 0.16504 0.19694 0.0
O66 O 0.61139 0.09116 0.10965 0.0
C67 C 0.68202 0.08433 0.17449 0.0
Co68 Co 0.63617 0.88515 0.63896 0.0
Co69 Co 0.67591 0.83675 0.67811 0.0
C70 C 0.61319 0.84401 0.67927 0.0
O71 O 0.60942 0.86439 0.65997 0.0
O72 O 0.63776 0.8317 0.68816 0.0
C73 C 0.58985 0.89914 0.59895 0.0
O74 O 0.58126 0.86703 0.60506 0.0
C75 C 0.69857 0.76994 0.70514 0.0
C76 C 0.74311 0.78628 0.71862 0.0
C77 C 0.72436 0.75751 0.71836 0.0
N78 N 0.70219 0.80422 0.69765 0.0
N79 N 0.72884 0.81377 0.70591 0.0
C80 C 0.6708 0.75 0.70026 0.0
H81 H 0.65264 0.76901 0.69752 0.0
H82 H 0.66981 0.73372 0.68285 0.0
H83 H 0.66875 0.73149 0.71607 0.0
C84 C 0.66353 0.84136 0.60338 0.0
N85 N 0.65862 0.84887 0.62675 0.0
N86 N 0.67496 0.82818 0.64299 0.0
C87 C 0.69059 0.80653 0.63035 0.0
C88 C 0.68391 0.81417 0.60482 0.0
C89 C 0.6514 0.86279 0.58058 0.0
H90 H 0.65143 0.892 0.58532 0.0
H91 H 0.62903 0.85425 0.57419 0.0
H92 H 0.6637 0.85879 0.565 0.0
O93 O 0.66144 0.92082 0.65902 0.0
O94 O 0.6895 0.88695 0.6868 0.0
H95 H 0.72955 0.79342 0.65443 0.0
H96 H 0.72012 0.76216 0.62854 0.0
C97 C 0.71167 0.77925 0.64254 0.0
H98 H 0.70123 0.76136 0.65475 0.0
H99 H 0.73737 0.83904 0.70273 0.0
O100 O 0.61301 0.91189 0.61085 0.0
C101 C 0.68167 0.9178 0.67755 0.0
Co102 Co 0.36788 0.88273 0.86522 0.0
Co103 Co 0.32412 0.83861 0.82687 0.0
C104 C 0.38705 0.83952 0.82437 0.0
O105 O 0.39287 0.85898 0.84402 0.0
O106 O 0.36153 0.8302 0.81582 0.0
C107 C 0.41616 0.89567 0.90395 0.0
O108 O 0.4249 0.86419 0.89678 0.0
C109 C 0.30019 0.77284 0.80132 0.0
C110 C 0.25704 0.79066 0.7843 0.0
C111 C 0.27509 0.76088 0.78656 0.0
N112 N 0.29689 0.80775 0.80732 0.0
N113 N 0.27112 0.8183 0.797 0.0
C114 C 0.32627 0.75141 0.81132 0.0
H115 H 0.33839 0.76483 0.82817 0.0
H116 H 0.32043 0.72354 0.81627 0.0
H117 H 0.34026 0.74988 0.79678 0.0
C118 C 0.33935 0.84158 0.90148 0.0
N119 N 0.34366 0.84888 0.8779 0.0
N120 N 0.32539 0.83015 0.8619 0.0
C121 C 0.30881 0.81038 0.87483 0.0
C122 C 0.31712 0.81691 0.90036 0.0
C123 C 0.35434 0.86071 0.92434 0.0
H124 H 0.35467 0.89024 0.92069 0.0
H125 H 0.37671 0.8511 0.92847 0.0
H126 H 0.34389 0.85582 0.94097 0.0
O127 O 0.34484 0.92039 0.84482 0.0
O128 O 0.31249 0.88937 0.81884 0.0
H129 H 0.26946 0.80211 0.84993 0.0
H130 H 0.27447 0.77224 0.87693 0.0
C131 C 0.28525 0.78608 0.86286 0.0
H132 H 0.29413 0.76511 0.85168 0.0
H133 H 0.2631 0.84431 0.79873 0.0
O134 O 0.39242 0.90822 0.89314 0.0
C135 C 0.32334 0.91933 0.8273 0.0
Co136 Co 0.86575 0.61652 0.36561 0.0
Co137 Co 0.82587 0.66512 0.32679 0.0
C138 C 0.88832 0.65938 0.32558 0.0
O139 O 0.89223 0.63816 0.34446 0.0
O140 O 0.86374 0.67186 0.31699 0.0
C141 C 0.91298 0.6021 0.40476 0.0
O142 O 0.92219 0.63341 0.39775 0.0
C143 C 0.80409 0.7309 0.29922 0.0
C144 C 0.75881 0.71674 0.2869 0.0
C145 C 0.77853 0.74417 0.28622 0.0
N146 N 0.79947 0.69738 0.30748 0.0
N147 N 0.7724 0.68905 0.29996 0.0
C148 C 0.83287 0.74837 0.30252 0.0
H149 H 0.84174 0.74995 0.32283 0.0
H150 H 0.8323 0.77566 0.29396 0.0
H151 H 0.84744 0.73124 0.29346 0.0
C152 C 0.83835 0.65972 0.40146 0.0
N153 N 0.84311 0.65234 0.37803 0.0
N154 N 0.82668 0.67308 0.36191 0.0
C155 C 0.81119 0.69473 0.37468 0.0
C156 C 0.81798 0.68693 0.40018 0.0
C157 C 0.85079 0.6383 0.42418 0.0
H158 H 0.85058 0.60908 0.41944 0.0
H159 H 0.87325 0.6467 0.43024 0.0
H160 H 0.83882 0.64241 0.43996 0.0
O161 O 0.84052 0.5806 0.3456 0.0
O162 O 0.81327 0.61493 0.31739 0.0
H163 H 0.77192 0.70854 0.35135 0.0
H164 H 0.78274 0.74014 0.37676 0.0
C165 C 0.79037 0.72243 0.36265 0.0
H166 H 0.80067 0.73959 0.34989 0.0
H167 H 0.76319 0.6645 0.30382 0.0
O168 O 0.8892 0.58998 0.39369 0.0
C169 C 0.82081 0.58408 0.32672 0.0
Co170 Co 0.13481 0.61999 0.14013 0.0
Co171 Co 0.17721 0.66569 0.17858 0.0
C172 C 0.11444 0.66311 0.18077 0.0
O173 O 0.1093 0.64267 0.16153 0.0
O174 O 0.13965 0.6738 0.18916 0.0
C175 C 0.08643 0.60537 0.10174 0.0
O176 O 0.07648 0.63569 0.10966 0.0
C177 C 0.20066 0.73187 0.20394 0.0
C178 C 0.24368 0.71421 0.22144 0.0
C179 C 0.22562 0.74399 0.21884 0.0
N180 N 0.20405 0.69689 0.19819 0.0
N181 N 0.22975 0.68644 0.2088 0.0
C182 C 0.17461 0.75319 0.19363 0.0
H183 H 0.16254 0.73944 0.1769 0.0
H184 H 0.18051 0.78091 0.1884 0.0
H185 H 0.16057 0.75514 0.2081 0.0
C186 C 0.16264 0.66221 0.10397 0.0
N187 N 0.1583 0.65481 0.12753 0.0
N188 N 0.1762 0.67398 0.14356 0.0
C189 C 0.1926 0.69411 0.13068 0.0
C190 C 0.18453 0.68738 0.10515 0.0
C191 C 0.1481 0.64264 0.08112 0.0
H192 H 0.14881 0.61306 0.0847 0.0
H193 H 0.12541 0.651 0.0772 0.0
H194 H 0.15819 0.64838 0.0644 0.0
O195 O 0.15895 0.58282 0.16007 0.0
O196 O 0.18927 0.61518 0.18698 0.0
H197 H 0.23155 0.70321 0.15596 0.0
H198 H 0.2268 0.73249 0.12865 0.0
C199 C 0.21584 0.71884 0.14268 0.0
H200 H 0.2066 0.73997 0.15347 0.0
H201 H 0.23781 0.66041 0.20729 0.0
O202 O 0.11082 0.59413 0.11202 0.0
C203 C 0.17988 0.58474 0.1781 0.0
Co204 Co 0.13386 0.38187 0.6375 0.0
Co205 Co 0.17811 0.33888 0.67612 0.0
C206 C 0.11495 0.33813 0.67804 0.0
O207 O 0.10896 0.35728 0.65827 0.0
O208 O 0.1406 0.32982 0.68695 0.0
C209 C 0.08513 0.39516 0.59921 0.0
O210 O 0.07594 0.36429 0.60697 0.0
C211 C 0.20225 0.27276 0.7008 0.0
C212 C 0.24456 0.29104 0.71964 0.0
C213 C 0.22702 0.26078 0.71607 0.0
N214 N 0.20526 0.30807 0.69578 0.0
N215 N 0.23054 0.3189 0.70718 0.0
C216 C 0.17673 0.25115 0.68949 0.0
H217 H 0.16484 0.2654 0.6729 0.0
H218 H 0.18323 0.22395 0.68375 0.0
H219 H 0.16227 0.24796 0.70354 0.0
C220 C 0.16291 0.34115 0.60148 0.0
N221 N 0.15855 0.34854 0.62503 0.0
N222 N 0.17719 0.33049 0.64112 0.0
C223 C 0.19423 0.31131 0.62829 0.0
C224 C 0.18569 0.31733 0.60273 0.0
C225 C 0.14732 0.35939 0.57851 0.0
H226 H 0.14729 0.38908 0.58157 0.0
H227 H 0.12486 0.35001 0.5752 0.0
H228 H 0.15709 0.35352 0.56163 0.0
O229 O 0.15641 0.41989 0.65809 0.0
O230 O 0.18939 0.38975 0.68405 0.0
H231 H 0.23309 0.30458 0.65415 0.0
H232 H 0.23058 0.27632 0.62642 0.0
C233 C 0.21852 0.28822 0.64036 0.0
H234 H 0.21012 0.26574 0.65057 0.0
H235 H 0.23825 0.34525 0.70637 0.0
O236 O 0.10931 0.40716 0.60945 0.0
C237 C 0.17803 0.4194 0.67551 0.0
Co238 Co 0.87215 0.38226 0.86568 0.0
Co239 Co 0.82829 0.33679 0.82816 0.0
C240 C 0.89079 0.33881 0.82442 0.0
O241 O 0.8966 0.35918 0.84364 0.0
O242 O 0.86536 0.32843 0.81649 0.0
C243 C 0.922 0.39891 0.90222 0.0
O244 O 0.93271 0.36982 0.89328 0.0
C245 C 0.804 0.27087 0.80276 0.0
C246 C 0.75875 0.28591 0.79165 0.0
C247 C 0.77782 0.25766 0.79117 0.0
N248 N 0.80054 0.3053 0.80979 0.0
N249 N 0.77349 0.31425 0.80284 0.0
C250 C 0.83137 0.2504 0.80904 0.0
H251 H 0.8444 0.26171 0.82624 0.0
H252 H 0.82728 0.22121 0.81179 0.0
H253 H 0.8436 0.25319 0.79329 0.0
C254 C 0.84593 0.34009 0.90274 0.0
N255 N 0.84923 0.34764 0.87895 0.0
N256 N 0.83088 0.32841 0.86337 0.0
C257 C 0.81534 0.30791 0.87683 0.0
C258 C 0.82438 0.31462 0.90222 0.0
C259 C 0.86284 0.35755 0.92543 0.0
H260 H 0.85907 0.3872 0.92464 0.0
H261 H 0.88585 0.35288 0.92533 0.0
H262 H 0.85727 0.34653 0.94313 0.0
O263 O 0.84762 0.41922 0.84612 0.0
O264 O 0.81605 0.38745 0.81996 0.0
H265 H 0.77528 0.30245 0.8526 0.0
H266 H 0.77878 0.27396 0.88 0.0
C267 C 0.79029 0.28547 0.86553 0.0
H268 H 0.79768 0.26306 0.85453 0.0
H269 H 0.76498 0.33944 0.80627 0.0
O270 O 0.89671 0.40851 0.89328 0.0
C271 C 0.82611 0.41772 0.82865 0.0
H272 H 0.16118 0.27991 0.56137 0.0
H273 H 0.18408 0.25822 0.52652 0.0
H274 H 0.26399 0.30408 0.56214 0.0
H275 H 0.24092 0.32637 0.59667 0.0
H276 H 0.25442 0.31827 0.51251 0.0
H277 H 0.2518 0.2138 0.56488 0.0
H278 H 0.22936 0.16823 0.58875 0.0
H279 H 0.17564 0.1339 0.52102 0.0
H280 H 0.19748 0.17967 0.49679 0.0
H281 H 0.3458 0.22356 0.44218 0.0
H282 H 0.32242 0.24599 0.47659 0.0
H283 H 0.24188 0.20469 0.43875 0.0
H284 H 0.26528 0.18218 0.40446 0.0
H285 H 0.25166 0.18815 0.48928 0.0
H286 H 0.25449 0.29255 0.43696 0.0
H287 H 0.2771 0.33801 0.41313 0.0
H288 H 0.33075 0.3722 0.48093 0.0
H289 H 0.30873 0.32655 0.50512 0.0
C290 C 0.18362 0.28531 0.56164 0.0
C291 C 0.19945 0.30432 0.58173 0.0
C292 C 0.1967 0.27283 0.54185 0.0
C293 C 0.22586 0.27911 0.54189 0.0
C294 C 0.24153 0.29878 0.56177 0.0
C295 C 0.22843 0.31125 0.58153 0.0
C296 C 0.24006 0.26516 0.52125 0.0
C297 C 0.25414 0.28975 0.50765 0.0
C298 C 0.23918 0.22805 0.51455 0.0
C299 C 0.22608 0.20042 0.52906 0.0
C300 C 0.23504 0.19674 0.5551 0.0
C301 C 0.22246 0.17083 0.56869 0.0
C302 C 0.20104 0.14824 0.55642 0.0
C303 C 0.19221 0.15145 0.53051 0.0
C304 C 0.2047 0.17735 0.51684 0.0
C305 C 0.32312 0.21936 0.44132 0.0
C306 C 0.3072 0.20154 0.42071 0.0
C307 C 0.30978 0.23223 0.46086 0.0
C308 C 0.28036 0.22728 0.46009 0.0
C309 C 0.26457 0.20887 0.43967 0.0
C310 C 0.27787 0.19625 0.42007 0.0
C311 C 0.26603 0.24125 0.48061 0.0
C312 C 0.25193 0.21666 0.49417 0.0
C313 C 0.26693 0.27833 0.48729 0.0
C314 C 0.28017 0.30587 0.47281 0.0
C315 C 0.27128 0.30954 0.44675 0.0
C316 C 0.28396 0.33539 0.43318 0.0
C317 C 0.3054 0.35791 0.44549 0.0
C318 C 0.31417 0.35469 0.47141 0.0
C319 C 0.30158 0.32886 0.48507 0.0
H320 H 0.31518 0.37791 0.43496 0.0
H321 H 0.19133 0.1282 0.56697 0.0
H322 H 0.70714 0.14785 0.06865 0.0
H323 H 0.73133 0.16988 0.03478 0.0
H324 H 0.71228 0.27996 0.05313 0.0
H325 H 0.68767 0.25778 0.08684 0.0
H326 H 0.70307 0.26831 0.00239 0.0
H327 H 0.77757 0.24666 0.07185 0.0
H328 H 0.8051 0.21118 0.1062 0.0
H329 H 0.82566 0.13311 0.05294 0.0
H330 H 0.79784 0.16786 0.01828 0.0
H331 H 0.80088 0.3552 0.93556 0.0
H332 H 0.77688 0.33364 0.96971 0.0
H333 H 0.79358 0.22317 0.95049 0.0
H334 H 0.81781 0.24483 0.91639 0.0
H335 H 0.80414 0.23544 1.00182 0.0
H336 H 0.72933 0.25728 0.93238 0.0
H337 H 0.70197 0.29316 0.89816 0.0
H338 H 0.68222 0.37139 0.95165 0.0
H339 H 0.70988 0.33625 0.98618 0.0
C340 C 0.70791 0.1767 0.06522 0.0
C341 C 0.69558 0.20121 0.08019 0.0
C342 C 0.72187 0.18927 0.04604 0.0
C343 C 0.72387 0.22659 0.04161 0.0
C344 C 0.71102 0.25107 0.05625 0.0
C345 C 0.69709 0.23846 0.07549 0.0
C346 C 0.73969 0.24001 0.02189 0.0
C347 C 0.72528 0.26154 0.00245 0.0
C348 C 0.76851 0.23056 0.02171 0.0
C349 C 0.78538 0.20969 0.04249 0.0
C350 C 0.78776 0.22178 0.06748 0.0
C351 C 0.80345 0.20182 0.087 0.0
C352 C 0.81706 0.16986 0.08176 0.0
C353 C 0.81507 0.15785 0.05697 0.0
C354 C 0.79936 0.17767 0.03738 0.0
C355 C 0.79963 0.32635 0.93885 0.0
C356 C 0.81114 0.30158 0.92351 0.0
C357 C 0.78581 0.31407 0.95821 0.0
C358 C 0.78323 0.27679 0.96248 0.0
C359 C 0.79532 0.25203 0.94749 0.0
C360 C 0.80903 0.26435 0.92804 0.0
C361 C 0.7675 0.26368 0.98233 0.0
C362 C 0.78194 0.24221 1.00179 0.0
C363 C 0.73872 0.27324 0.98256 0.0
C364 C 0.72193 0.29432 0.96184 0.0
C365 C 0.71936 0.28229 0.93683 0.0
C366 C 0.70376 0.30247 0.91738 0.0
C367 C 0.69042 0.33458 0.92272 0.0
C368 C 0.6926 0.34653 0.94754 0.0
C369 C 0.70822 0.32649 0.96706 0.0
H370 H 0.67835 0.35016 0.90763 0.0
H371 H 0.82921 0.15445 0.0969 0.0
H372 H 0.74076 0.8103 0.60294 0.0
H373 H 0.76358 0.78805 0.56835 0.0
H374 H 0.68093 0.76549 0.52496 0.0
H375 H 0.65812 0.7866 0.56 0.0
H376 H 0.71718 0.7114 0.52065 0.0
H377 H 0.71919 0.84091 0.51377 0.0
H378 H 0.72969 0.90324 0.52887 0.0
H379 H 0.81901 0.87838 0.54437 0.0
H380 H 0.809 0.81571 0.5297 0.0
H381 H 0.7612 0.69135 0.40212 0.0
H382 H 0.73856 0.7135 0.43685 0.0
H383 H 0.82136 0.73513 0.48024 0.0
H384 H 0.84401 0.71402 0.4451 0.0
H385 H 0.78514 0.78962 0.48461 0.0
H386 H 0.78309 0.66011 0.49136 0.0
H387 H 0.77254 0.59782 0.47619 0.0
H388 H 0.68322 0.62275 0.46084 0.0
H389 H 0.69328 0.68538 0.47558 0.0
C390 C 0.72753 0.80012 0.58613 0.0
C391 C 0.69772 0.79992 0.58412 0.0
C392 C 0.74054 0.78778 0.56628 0.0
C393 C 0.72397 0.77552 0.5439 0.0
C394 C 0.69416 0.77488 0.54202 0.0
C395 C 0.68115 0.78707 0.56194 0.0
C396 C 0.7377 0.76353 0.52242 0.0
C397 C 0.73174 0.72869 0.51255 0.0
C398 C 0.75722 0.78576 0.51219 0.0
C399 C 0.76331 0.82352 0.52085 0.0
C400 C 0.74105 0.84866 0.52056 0.0
C401 C 0.74692 0.88406 0.52902 0.0
C402 C 0.77499 0.89474 0.53763 0.0
C403 C 0.79727 0.87006 0.53773 0.0
C404 C 0.79152 0.8346 0.52932 0.0
C405 C 0.77451 0.70128 0.41896 0.0
C406 C 0.80431 0.70116 0.42097 0.0
C407 C 0.76159 0.71358 0.43888 0.0
C408 C 0.77826 0.72556 0.4613 0.0
C409 C 0.80807 0.72595 0.46316 0.0
C410 C 0.82099 0.71375 0.44318 0.0
C411 C 0.76461 0.7375 0.48283 0.0
C412 C 0.77059 0.77233 0.49271 0.0
C413 C 0.7451 0.71527 0.49305 0.0
C414 C 0.73897 0.67753 0.48436 0.0
C415 C 0.76122 0.65239 0.48458 0.0
C416 C 0.75532 0.61701 0.47608 0.0
C417 C 0.72723 0.60636 0.4675 0.0
C418 C 0.70497 0.63105 0.46746 0.0
C419 C 0.71076 0.66648 0.47591 0.0
H420 H 0.72271 0.57895 0.46093 0.0
H421 H 0.77949 0.92217 0.54417 0.0
H422 H 0.34266 0.78277 0.94284 0.0
H423 H 0.32021 0.76097 0.9779 0.0
H424 H 0.23865 0.79936 0.94021 0.0
H425 H 0.26126 0.82198 0.90552 0.0
H426 H 0.24636 0.81642 0.98907 0.0
H427 H 0.25589 0.70938 0.9406 0.0
H428 H 0.28151 0.66443 0.91887 0.0
H429 H 0.33552 0.63875 0.98842 0.0
H430 H 0.31048 0.68394 0.01051 0.0
H431 H 0.15907 0.72152 0.06265 0.0
H432 H 0.18165 0.74354 0.02771 0.0
H433 H 0.26318 0.70537 0.06562 0.0
H434 H 0.24045 0.68261 0.10021 0.0
H435 H 0.25555 0.68825 0.01671 0.0
H436 H 0.24604 0.79514 0.06522 0.0
H437 H 0.22049 0.84009 0.08701 0.0
H438 H 0.16652 0.86605 0.01749 0.0
H439 H 0.1915 0.82086 0.99534 0.0
C440 C 0.31996 0.78652 0.94215 0.0
C441 C 0.30357 0.80358 0.92144 0.0
C442 C 0.30712 0.77394 0.96206 0.0
C443 C 0.27764 0.77806 0.96153 0.0
C444 C 0.26138 0.79571 0.94099 0.0
C445 C 0.27423 0.80834 0.92112 0.0
C446 C 0.26375 0.76414 0.98239 0.0
C447 C 0.24806 0.78828 0.9949 0.0
C448 C 0.26648 0.72761 0.99039 0.0
C449 C 0.28149 0.7003 0.97716 0.0
C450 C 0.27337 0.69435 0.95123 0.0
C451 C 0.28777 0.66879 0.93885 0.0
C452 C 0.31017 0.64881 0.95225 0.0
C453 C 0.31818 0.65428 0.97806 0.0
C454 C 0.30388 0.67984 0.99053 0.0
C455 C 0.1818 0.71789 0.06341 0.0
C456 C 0.19815 0.70084 0.08415 0.0
C457 C 0.1947 0.73059 0.04357 0.0
C458 C 0.2242 0.72656 0.0442 0.0
C459 C 0.24043 0.70894 0.06477 0.0
C460 C 0.22752 0.69622 0.08458 0.0
C461 C 0.23815 0.74051 0.02338 0.0
C462 C 0.25386 0.71638 0.01089 0.0
C463 C 0.23544 0.77705 0.01541 0.0
C464 C 0.22047 0.80436 0.02866 0.0
C465 C 0.22858 0.81023 0.05461 0.0
C466 C 0.21423 0.83578 0.06702 0.0
C467 C 0.19185 0.85584 0.05365 0.0
C468 C 0.18383 0.85045 0.02783 0.0
C469 C 0.1981 0.8249 0.01533 0.0
H470 H 0.18076 0.87562 0.06329 0.0
H471 H 0.32129 0.62903 0.94263 0.0
H472 H 0.56409 0.12517 0.17527 0.0
H473 H 0.52643 0.13615 0.19997 0.0
H474 H 0.57371 0.22658 0.23641 0.0
H475 H 0.61217 0.2147 0.21241 0.0
H476 H 0.55467 0.18994 0.2699 0.0
H477 H 0.51087 0.23744 0.19155 0.0
H478 H 0.4949 0.23906 0.14572 0.0
H479 H 0.44086 0.14716 0.15089 0.0
H480 H 0.45679 0.14466 0.19671 0.0
H481 H 0.39403 0.21607 0.28954 0.0
H482 H 0.43254 0.22714 0.26539 0.0
H483 H 0.48088 0.13963 0.30462 0.0
H484 H 0.44327 0.12961 0.32945 0.0
H485 H 0.45207 0.18875 0.23309 0.0
H486 H 0.55015 0.1483 0.30763 0.0
H487 H 0.56596 0.15367 0.35334 0.0
H488 H 0.51148 0.24587 0.35564 0.0
H489 H 0.49561 0.24136 0.3099 0.0
C490 C 0.5664 0.14766 0.18834 0.0
C491 C 0.59117 0.16908 0.19184 0.0
C492 C 0.5447 0.15406 0.2024 0.0
C493 C 0.54691 0.18258 0.21985 0.0
C494 C 0.57144 0.20442 0.22308 0.0
C495 C 0.5934 0.19766 0.20929 0.0
C496 C 0.5243 0.18817 0.2356 0.0
C497 C 0.53224 0.18998 0.26181 0.0
C498 C 0.49498 0.18927 0.22513 0.0
C499 C 0.48517 0.19075 0.19757 0.0
C500 C 0.49571 0.21744 0.1829 0.0
C501 C 0.48665 0.21853 0.15692 0.0
C502 C 0.46691 0.19319 0.1454 0.0
C503 C 0.45615 0.16677 0.15984 0.0
C504 C 0.46516 0.16554 0.18582 0.0
C505 C 0.41309 0.1996 0.29327 0.0
C506 C 0.41562 0.17208 0.31151 0.0
C507 C 0.43506 0.20587 0.27939 0.0
C508 C 0.45988 0.18456 0.28333 0.0
C509 C 0.4624 0.15718 0.30163 0.0
C510 C 0.44072 0.15131 0.31576 0.0
C511 C 0.48245 0.18929 0.26742 0.0
C512 C 0.47449 0.18933 0.24117 0.0
C513 C 0.51175 0.19105 0.27784 0.0
C514 C 0.52156 0.19433 0.30533 0.0
C515 C 0.54167 0.16986 0.31785 0.0
C516 C 0.55061 0.17272 0.34378 0.0
C517 C 0.53968 0.20005 0.35739 0.0
C518 C 0.51986 0.22465 0.34509 0.0
C519 C 0.51086 0.22193 0.31916 0.0
H520 H 0.54661 0.20218 0.37747 0.0
H521 H 0.45993 0.19407 0.12528 0.0
H522 H 0.61529 0.81808 0.72696 0.0
H523 H 0.57592 0.81095 0.75035 0.0
H524 H 0.51665 0.84469 0.68519 0.0
H525 H 0.55622 0.85344 0.66199 0.0
H526 H 0.50402 0.87776 0.72331 0.0
H527 H 0.52245 0.75376 0.70771 0.0
H528 H 0.55114 0.69837 0.70656 0.0
H529 H 0.57418 0.70129 0.78687 0.0
H530 H 0.54594 0.757 0.78848 0.0
H531 H 0.3814 0.82241 0.77459 0.0
H532 H 0.4194 0.81653 0.74924 0.0
H533 H 0.48249 0.83069 0.81554 0.0
H534 H 0.44458 0.8377 0.84104 0.0
H535 H 0.49097 0.77057 0.77574 0.0
H536 H 0.47494 0.89919 0.78888 0.0
H537 H 0.44396 0.95276 0.78863 0.0
H538 H 0.41355 0.93746 0.70992 0.0
H539 H 0.44409 0.88339 0.70982 0.0
C540 C 0.59385 0.82362 0.71749 0.0
C541 C 0.58892 0.83637 0.69259 0.0
C542 C 0.57127 0.81931 0.73088 0.0
C543 C 0.54314 0.82678 0.7195 0.0
C544 C 0.53812 0.83876 0.69444 0.0
C545 C 0.56076 0.84365 0.68115 0.0
C546 C 0.51926 0.82409 0.73419 0.0
C547 C 0.501 0.85398 0.73438 0.0
C548 C 0.51533 0.79336 0.74905 0.0
C549 C 0.53226 0.75975 0.74818 0.0
C550 C 0.53379 0.74274 0.72511 0.0
C551 C 0.54995 0.71126 0.72438 0.0
C552 C 0.56453 0.69637 0.74662 0.0
C553 C 0.5629 0.71288 0.76965 0.0
C554 C 0.54679 0.74439 0.77049 0.0
C555 C 0.40335 0.82366 0.78389 0.0
C556 C 0.41 0.83071 0.80982 0.0
C557 C 0.425 0.82034 0.76936 0.0
C558 C 0.45365 0.82326 0.78057 0.0
C559 C 0.46046 0.82827 0.80663 0.0
C560 C 0.4388 0.83238 0.82112 0.0
C561 C 0.4763 0.82415 0.76477 0.0
C562 C 0.49414 0.79404 0.76442 0.0
C563 C 0.47965 0.85437 0.74949 0.0
C564 C 0.46151 0.88703 0.74942 0.0
C565 C 0.46143 0.90704 0.77158 0.0
C566 C 0.44401 0.93753 0.77149 0.0
C567 C 0.42673 0.94844 0.74929 0.0
C568 C 0.42691 0.92893 0.72711 0.0
C569 C 0.44429 0.89838 0.72712 0.0
H570 H 0.41329 0.97208 0.74927 0.0
H571 H 0.57703 0.672 0.74601 0.0
H572 H 0.11937 0.68724 0.22915 0.0
H573 H 0.08134 0.6943 0.25431 0.0
H574 H 0.01883 0.6664 0.18999 0.0
H575 H 0.05682 0.65841 0.16471 0.0
H576 H 0.00547 0.7293 0.22353 0.0
H577 H 0.0347 0.60251 0.22435 0.0
H578 H 0.07076 0.55399 0.23074 0.0
H579 H 0.09662 0.58812 0.30716 0.0
H580 H 0.06097 0.63724 0.30107 0.0
H581 H 0.88527 0.67807 0.27643 0.0
H582 H 0.92441 0.68582 0.25294 0.0
H583 H 0.98487 0.66829 0.32077 0.0
H584 H 0.94548 0.6582 0.34407 0.0
H585 H 1.0017 0.63258 0.28675 0.0
H586 H 0.97149 0.75513 0.28935 0.0
H587 H 0.93764 0.80619 0.28485 0.0
H588 H 0.91659 0.7856 0.20567 0.0
H589 H 0.95002 0.73409 0.20973 0.0
C590 C 0.09751 0.68314 0.2202 0.0
C591 C 0.09114 0.67199 0.19495 0.0
C592 C 0.07583 0.68719 0.23463 0.0
C593 C 0.04737 0.68077 0.22399 0.0
C594 C 0.04072 0.67156 0.19847 0.0
C595 C 0.06244 0.66686 0.18412 0.0
C596 C 0.02491 0.68055 0.24003 0.0
C597 C 0.00436 0.70809 0.23725 0.0
C598 C 0.02422 0.65352 0.25844 0.0
C599 C 0.04542 0.62378 0.26217 0.0
C600 C 0.04826 0.59988 0.24244 0.0
C601 C 0.06858 0.57223 0.24602 0.0
C602 C 0.08603 0.56804 0.26932 0.0
C603 C 0.08312 0.59143 0.28911 0.0
C604 C 0.06286 0.61916 0.28561 0.0
C605 C 0.90691 0.67628 0.28642 0.0
C606 C 0.91231 0.66757 0.31212 0.0
C607 C 0.92936 0.68099 0.27297 0.0
C608 C 0.95778 0.67836 0.28506 0.0
C609 C 0.96319 0.6705 0.31093 0.0
C610 C 0.94068 0.66484 0.32428 0.0
C611 C 0.9817 0.68139 0.2704 0.0
C612 C 0.00267 0.65423 0.27333 0.0
C613 C 0.98303 0.70927 0.2525 0.0
C614 C 0.96313 0.74054 0.2499 0.0
C615 C 0.95952 0.76135 0.271 0.0
C616 C 0.94042 0.79039 0.26852 0.0
C617 C 0.92492 0.79908 0.245 0.0
C618 C 0.92859 0.77882 0.22388 0.0
C619 C 0.94765 0.74973 0.22626 0.0
H620 H 0.91012 0.82155 0.24313 0.0
H621 H 0.10176 0.54662 0.27206 0.0
H622 H 0.05872 0.32679 0.65943 0.0
H623 H 0.01991 0.31695 0.68335 0.0
H624 H 0.08016 0.32023 0.75247 0.0
H625 H 0.11912 0.32764 0.72849 0.0
H626 H 0.0421 0.27503 0.75866 0.0
H627 H 0.03785 0.39643 0.72649 0.0
H628 H 0.03515 0.44386 0.694 0.0
H629 H 0.95493 0.40134 0.65758 0.0
H630 H 0.95734 0.35337 0.6897 0.0
H631 H 0.94847 0.34522 0.83913 0.0
H632 H 0.98579 0.33551 0.81351 0.0
H633 H 0.92241 0.30244 0.75116 0.0
H634 H 0.88494 0.31154 0.77669 0.0
H635 H 0.95988 0.35889 0.74039 0.0
H636 H 0.96429 0.2405 0.77823 0.0
H637 H 0.96864 0.19767 0.81369 0.0
H638 H 0.05098 0.24117 0.84337 0.0
H639 H 0.04696 0.28464 0.80826 0.0
C640 C 0.06367 0.32484 0.67971 0.0
C641 C 0.09189 0.32826 0.69212 0.0
C642 C 0.04146 0.3195 0.69341 0.0
C643 C 0.04689 0.31893 0.71983 0.0
C644 C 0.07528 0.32073 0.73214 0.0
C645 C 0.09757 0.32502 0.71841 0.0
C646 C 0.02308 0.31822 0.7347 0.0
C647 C 0.02427 0.29361 0.75474 0.0
C648 C 0.99952 0.34214 0.72957 0.0
C649 C 0.99793 0.37109 0.71033 0.0
C650 C 0.01973 0.39708 0.71146 0.0
C651 C 0.01824 0.42406 0.69312 0.0
C652 C 0.99492 0.42554 0.67369 0.0
C653 C 0.973 0.40011 0.67261 0.0
C654 C 0.9744 0.37304 0.69088 0.0
C655 C 0.94248 0.33539 0.82008 0.0
C656 C 0.91369 0.32931 0.80993 0.0
C657 C 0.96385 0.32976 0.8055 0.0
C658 C 0.95682 0.31824 0.78047 0.0
C659 C 0.92823 0.31131 0.77046 0.0
C660 C 0.90688 0.31643 0.78512 0.0
C661 C 0.9791 0.31594 0.76425 0.0
C662 C 0.97762 0.34011 0.74406 0.0
C663 C 0.00268 0.29233 0.76967 0.0
C664 C 0.00521 0.26604 0.79071 0.0
C665 C 0.98323 0.24114 0.79242 0.0
C666 C 0.98566 0.21671 0.81244 0.0
C667 C 0.01004 0.21675 0.8308 0.0
C668 C 0.03209 0.24118 0.82914 0.0
C669 C 0.02976 0.2657 0.80917 0.0
H670 H 0.01188 0.19781 0.84629 0.0
H671 H 0.99381 0.44645 0.65951 0.0
H672 H 0.19031 0.79789 0.23248 0.0
H673 H 0.20438 0.85734 0.24995 0.0
H674 H 0.29261 0.83104 0.24988 0.0
H675 H 0.27877 0.77227 0.23107 0.0
H676 H 0.27785 0.85928 0.29708 0.0
H677 H 0.26504 0.88435 0.20739 0.0
H678 H 0.23711 0.88557 0.16467 0.0
H679 H 0.17458 0.95366 0.19037 0.0
H680 H 0.20196 0.95238 0.23336 0.0
H681 H 0.35299 0.02047 0.32462 0.0
H682 H 0.33278 0.96415 0.30612 0.0
H683 H 0.25064 0.01574 0.28702 0.0
H684 H 0.27141 0.07303 0.30425 0.0
H685 H 0.25729 0.9748 0.25074 0.0
H686 H 0.26833 0.95427 0.33877 0.0
H687 H 0.2928 0.95281 0.38273 0.0
H688 H 0.3532 0.87607 0.36291 0.0
H689 H 0.32933 0.87742 0.31876 0.0
C690 C 0.21261 0.80497 0.23528 0.0
C691 C 0.2333 0.78046 0.22954 0.0
C692 C 0.22063 0.83889 0.24566 0.0
C693 C 0.24949 0.84858 0.251 0.0
C694 C 0.27021 0.82403 0.24582 0.0
C695 C 0.26221 0.79044 0.23508 0.0
C696 C 0.25831 0.88403 0.26246 0.0
C697 C 0.27361 0.88459 0.28695 0.0
C698 C 0.25169 0.91697 0.24951 0.0
C699 C 0.23537 0.91792 0.22364 0.0
C700 C 0.2452 0.8993 0.20399 0.0
C701 C 0.2295 0.90006 0.17971 0.0
C702 C 0.20404 0.91958 0.17483 0.0
C703 C 0.19428 0.93849 0.19419 0.0
C704 C 0.20988 0.93777 0.21851 0.0
C705 C 0.3306 0.01979 0.31653 0.0
C706 C 0.3137 0.05102 0.31606 0.0
C707 C 0.31898 0.98747 0.30608 0.0
C708 C 0.28993 0.98525 0.29575 0.0
C709 C 0.27306 0.01662 0.295 0.0
C710 C 0.2849 0.04931 0.30488 0.0
C711 C 0.27749 0.9503 0.28543 0.0
C712 C 0.2614 0.9497 0.26113 0.0
C713 C 0.28282 0.91729 0.29881 0.0
C714 C 0.29714 0.91616 0.32541 0.0
C715 C 0.28693 0.93724 0.34376 0.0
C716 C 0.30069 0.93641 0.36871 0.0
C717 C 0.32457 0.91441 0.37559 0.0
C718 C 0.33471 0.89311 0.35755 0.0
C719 C 0.32104 0.89386 0.33256 0.0
H720 H 0.3352 0.91383 0.39492 0.0
H721 H 0.19192 0.92015 0.15602 0.0
H722 H 0.67465 0.01572 0.15569 0.0
H723 H 0.69455 0.95965 0.17485 0.0
H724 H 0.74013 0.01987 0.23727 0.0
H725 H 0.72071 0.0765 0.21791 0.0
H726 H 0.77249 0.96497 0.22349 0.0
H727 H 0.67816 0.97798 0.2428 0.0
H728 H 0.62629 0.98826 0.23337 0.0
H729 H 0.61646 0.89363 0.1865 0.0
H730 H 0.66835 0.88307 0.19537 0.0
H731 H 0.79456 0.81098 0.30557 0.0
H732 H 0.78164 0.87007 0.28641 0.0
H733 H 0.7336 0.81698 0.22178 0.0
H734 H 0.74662 0.75791 0.24086 0.0
H735 H 0.70346 0.8699 0.23848 0.0
H736 H 0.79825 0.85704 0.21928 0.0
H737 H 0.85008 0.8467 0.2293 0.0
H738 H 0.85916 0.94074 0.27674 0.0
H739 H 0.8073 0.95134 0.26731 0.0
C740 C 0.68904 0.01719 0.17343 0.0
C741 C 0.69581 0.05064 0.1854 0.0
C742 C 0.70036 0.98504 0.18439 0.0
C743 C 0.71839 0.98549 0.20773 0.0
C744 C 0.72614 0.01889 0.2193 0.0
C745 C 0.71496 0.05121 0.20824 0.0
C746 C 0.7281 0.95094 0.22038 0.0
C747 C 0.75742 0.94435 0.22709 0.0
C748 C 0.70843 0.92383 0.22477 0.0
C749 C 0.67717 0.92992 0.21959 0.0
C750 C 0.66496 0.9595 0.23035 0.0
C751 C 0.63556 0.96536 0.22512 0.0
C752 C 0.6181 0.94166 0.2093 0.0
C753 C 0.63001 0.91199 0.19873 0.0
C754 C 0.65942 0.90603 0.20387 0.0
C755 C 0.7819 0.81197 0.28698 0.0
C756 C 0.77221 0.77993 0.27434 0.0
C757 C 0.77438 0.84571 0.27612 0.0
C758 C 0.75698 0.84795 0.25249 0.0
C759 C 0.74715 0.81591 0.23997 0.0
C760 C 0.75462 0.78223 0.25084 0.0
C761 C 0.74788 0.88359 0.24123 0.0
C762 C 0.71859 0.89048 0.2349 0.0
C763 C 0.7676 0.91089 0.23729 0.0
C764 C 0.79884 0.90477 0.24278 0.0
C765 C 0.81126 0.87536 0.232 0.0
C766 C 0.84065 0.86948 0.23755 0.0
C767 C 0.85789 0.89299 0.2537 0.0
C768 C 0.84578 0.92252 0.26426 0.0
C769 C 0.81639 0.92849 0.25881 0.0
H770 H 0.88064 0.88837 0.25798 0.0
H771 H 0.59534 0.94625 0.20527 0.0
H772 H 0.71366 0.92541 0.72431 0.0
H773 H 0.73222 0.9816 0.7448 0.0
H774 H 0.70023 0.04124 0.67732 0.0
H775 H 0.68072 0.98551 0.65711 0.0
H776 H 0.76903 0.03124 0.73843 0.0
H777 H 0.67627 0.12251 0.6907 0.0
H778 H 0.62518 0.11709 0.67317 0.0
H779 H 0.61797 0.02523 0.7205 0.0
H780 H 0.66889 0.0304 0.73855 0.0
H781 H 0.80632 0.21619 0.76137 0.0
H782 H 0.79231 0.15678 0.74331 0.0
H783 H 0.71897 0.15701 0.78114 0.0
H784 H 0.73232 0.21706 0.79818 0.0
H785 H 0.70263 0.13498 0.73739 0.0
H786 H 0.78139 0.10279 0.80001 0.0
H787 H 0.83061 0.10527 0.823 0.0
H788 H 0.86261 0.07394 0.75618 0.0
H789 H 0.81359 0.07177 0.73269 0.0
C790 C 0.71074 0.95047 0.71379 0.0
C791 C 0.69538 0.95107 0.68919 0.0
C792 C 0.72142 0.98258 0.72551 0.0
C793 C 0.71715 0.01582 0.7128 0.0
C794 C 0.70316 0.01611 0.68777 0.0
C795 C 0.6921 0.98418 0.67619 0.0
C796 C 0.72628 0.05032 0.72595 0.0
C797 C 0.75454 0.05395 0.73821 0.0
C798 C 0.70721 0.07969 0.72629 0.0
C799 C 0.67646 0.07665 0.71577 0.0
C800 C 0.66375 0.10125 0.69743 0.0
C801 C 0.63483 0.0982 0.6874 0.0
C802 C 0.61836 0.07076 0.69566 0.0
C803 C 0.63076 0.04639 0.71405 0.0
C804 C 0.65966 0.04935 0.72417 0.0
C805 C 0.78743 0.20326 0.76602 0.0
C806 C 0.77051 0.22094 0.78132 0.0
C807 C 0.77944 0.16926 0.75576 0.0
C808 C 0.75475 0.15197 0.76111 0.0
C809 C 0.73806 0.16967 0.77663 0.0
C810 C 0.74571 0.20393 0.78643 0.0
C811 C 0.74555 0.11624 0.74975 0.0
C812 C 0.71722 0.11236 0.7377 0.0
C813 C 0.76431 0.08629 0.75046 0.0
C814 C 0.79382 0.08745 0.76454 0.0
C815 C 0.79893 0.09668 0.79018 0.0
C816 C 0.8268 0.09799 0.8033 0.0
C817 C 0.84973 0.08985 0.79105 0.0
C818 C 0.84483 0.08029 0.76565 0.0
C819 C 0.81701 0.07898 0.75242 0.0
H820 H 0.87128 0.09089 0.80124 0.0
H821 H 0.59599 0.06843 0.68785 0.0
H822 H 0.19186 0.20487 0.72707 0.0
H823 H 0.20605 0.14529 0.74347 0.0
H824 H 0.2945 0.17517 0.74855 0.0
H825 H 0.28042 0.23383 0.72997 0.0
H826 H 0.28936 0.11 0.73312 0.0
H827 H 0.25684 0.17362 0.80075 0.0
H828 H 0.22305 0.20842 0.82156 0.0
H829 H 0.16305 0.12076 0.80961 0.0
H830 H 0.19635 0.08561 0.78844 0.0
H831 H 0.34996 0.9848 0.82767 0.0
H832 H 0.33103 0.0409 0.80731 0.0
H833 H 0.25089 0.98795 0.78125 0.0
H834 H 0.26987 0.9313 0.80108 0.0
H835 H 0.24974 0.06162 0.80602 0.0
H836 H 0.28571 0.99762 0.73973 0.0
H837 H 0.3221 0.96388 0.72143 0.0
H838 H 0.37895 0.05471 0.73429 0.0
H839 H 0.34302 0.08883 0.75303 0.0
C840 C 0.2143 0.19861 0.73074 0.0
C841 C 0.23492 0.22413 0.72639 0.0
C842 C 0.22245 0.16456 0.74078 0.0
C843 C 0.2514 0.1557 0.7476 0.0
C844 C 0.27202 0.18117 0.7434 0.0
C845 C 0.26388 0.2149 0.73291 0.0
C846 C 0.26036 0.12009 0.75923 0.0
C847 C 0.28084 0.09973 0.74922 0.0
C848 C 0.24899 0.10611 0.78 0.0
C849 C 0.22896 0.12715 0.79278 0.0
C850 C 0.23635 0.16187 0.80241 0.0
C851 C 0.21731 0.18164 0.81429 0.0
C852 C 0.19089 0.16685 0.81684 0.0
C853 C 0.1835 0.13221 0.80758 0.0
C854 C 0.20246 0.11234 0.79565 0.0
C855 C 0.32826 0.9851 0.81772 0.0
C856 C 0.3114 0.95363 0.81596 0.0
C857 C 0.31754 0.01712 0.80606 0.0
C858 C 0.28965 0.0184 0.79277 0.0
C859 C 0.27249 0.98737 0.79145 0.0
C860 C 0.28338 0.95508 0.8027 0.0
C861 C 0.27871 0.05218 0.77999 0.0
C862 C 0.25799 0.07205 0.78982 0.0
C863 C 0.29018 0.06602 0.75936 0.0
C864 C 0.31177 0.04565 0.748 0.0
C865 C 0.30607 0.01028 0.73888 0.0
C866 C 0.32659 0.99112 0.72838 0.0
C867 C 0.35283 0.00713 0.72673 0.0
C868 C 0.35861 0.04235 0.73558 0.0
C869 C 0.33817 0.06163 0.74612 0.0
H870 H 0.36865 0.99228 0.71852 0.0
H871 H 0.17617 0.1822 0.82605 0.0
H872 H 0.82202 0.56129 0.27931 0.0
H873 H 0.8025 0.50507 0.25968 0.0
H874 H 0.76829 0.47843 0.32689 0.0
H875 H 0.79015 0.53333 0.34717 0.0
H876 H 0.78704 0.42168 0.31274 0.0
H877 H 0.7263 0.50937 0.26711 0.0
H878 H 0.71316 0.56453 0.24216 0.0
H879 H 0.75458 0.52316 0.18304 0.0
H880 H 0.7683 0.46795 0.20777 0.0
H881 H 0.69684 0.28359 0.24413 0.0
H882 H 0.7092 0.34318 0.26317 0.0
H883 H 0.78123 0.34967 0.22413 0.0
H884 H 0.76945 0.28974 0.20562 0.0
H885 H 0.73836 0.41625 0.22419 0.0
H886 H 0.8014 0.32955 0.27581 0.0
H887 H 0.80919 0.27434 0.30173 0.0
H888 H 0.7545 0.31594 0.35099 0.0
H889 H 0.74605 0.37118 0.32509 0.0
C890 C 0.8102 0.54338 0.28974 0.0
C891 C 0.80737 0.55142 0.31459 0.0
C892 C 0.79877 0.5114 0.27847 0.0
C893 C 0.78318 0.48763 0.29148 0.0
C894 C 0.78013 0.49614 0.31635 0.0
C895 C 0.79247 0.52752 0.32791 0.0
C896 C 0.77134 0.45317 0.27961 0.0
C897 C 0.77595 0.42089 0.29352 0.0
C898 C 0.75688 0.45154 0.25443 0.0
C899 C 0.74852 0.48462 0.2394 0.0
C900 C 0.73275 0.51213 0.24885 0.0
C901 C 0.72518 0.54339 0.23474 0.0
C902 C 0.73308 0.54738 0.21105 0.0
C903 C 0.74849 0.52005 0.2014 0.0
C904 C 0.75614 0.48874 0.21544 0.0
C905 C 0.7151 0.29797 0.23943 0.0
C906 C 0.73214 0.28233 0.22334 0.0
C907 C 0.72215 0.33184 0.25033 0.0
C908 C 0.74603 0.3507 0.24492 0.0
C909 C 0.76266 0.33549 0.22839 0.0
C910 C 0.756 0.30132 0.21796 0.0
C911 C 0.75449 0.38561 0.25732 0.0
C912 C 0.74919 0.41767 0.24349 0.0
C913 C 0.76752 0.38726 0.28273 0.0
C914 C 0.77282 0.35423 0.29836 0.0
C915 C 0.79081 0.32674 0.29202 0.0
C916 C 0.7954 0.29549 0.30674 0.0
C917 C 0.78227 0.29157 0.32795 0.0
C918 C 0.76461 0.31897 0.33453 0.0
C919 C 0.75993 0.35025 0.31984 0.0
H920 H 0.78585 0.26736 0.33933 0.0
H921 H 0.72721 0.57161 0.20016 0.0
H922 H 0.22404 0.57791 0.21736 0.0
H923 H 0.24532 0.52206 0.23616 0.0
H924 H 0.18702 0.45922 0.18339 0.0
H925 H 0.16582 0.51482 0.16427 0.0
H926 H 0.22271 0.46822 0.25952 0.0
H927 H 0.21957 0.38212 0.16908 0.0
H928 H 0.22306 0.39107 0.12436 0.0
H929 H 0.27141 0.48836 0.14274 0.0
H930 H 0.26856 0.47973 0.18759 0.0
H931 H 0.22994 0.28087 0.2862 0.0
H932 H 0.21719 0.34067 0.26842 0.0
H933 H 0.30018 0.35031 0.24663 0.0
H934 H 0.31279 0.29006 0.26382 0.0
H935 H 0.25861 0.37118 0.20923 0.0
H936 H 0.28562 0.397 0.29641 0.0
H937 H 0.28562 0.3897 0.34184 0.0
H938 H 0.19667 0.41667 0.33151 0.0
H939 H 0.19603 0.42359 0.28594 0.0
C940 C 0.2158 0.55223 0.20964 0.0
C941 C 0.19323 0.55091 0.18924 0.0
C942 C 0.22796 0.52032 0.22048 0.0
C943 C 0.21794 0.48647 0.21106 0.0
C944 C 0.1954 0.48504 0.19073 0.0
C945 C 0.18322 0.51691 0.17988 0.0
C946 C 0.23058 0.45259 0.22279 0.0
C947 C 0.23063 0.44705 0.24854 0.0
C948 C 0.24146 0.42525 0.20858 0.0
C949 C 0.24362 0.43042 0.18167 0.0
C950 C 0.23106 0.40533 0.16359 0.0
C951 C 0.2329 0.41036 0.13822 0.0
C952 C 0.24737 0.44032 0.13071 0.0
C953 C 0.26012 0.46524 0.14857 0.0
C954 C 0.25836 0.46031 0.17397 0.0
C955 C 0.2455 0.29577 0.27767 0.0
C956 C 0.27259 0.28109 0.27689 0.0
C957 C 0.23824 0.33001 0.26765 0.0
C958 C 0.2579 0.3502 0.25655 0.0
C959 C 0.2848 0.33534 0.25533 0.0
C960 C 0.29211 0.30109 0.26545 0.0
C961 C 0.25002 0.38647 0.24579 0.0
C962 C 0.25083 0.39244 0.22023 0.0
C963 C 0.24041 0.41446 0.26028 0.0
C964 C 0.24073 0.41053 0.28771 0.0
C965 C 0.266 0.40111 0.30379 0.0
C966 C 0.26613 0.39708 0.32958 0.0
C967 C 0.24115 0.40264 0.33955 0.0
C968 C 0.216 0.41234 0.32376 0.0
C969 C 0.21575 0.41635 0.29795 0.0
H970 H 0.24129 0.3995 0.35952 0.0
H971 H 0.24875 0.44418 0.11106 0.0
H972 H 0.23263 0.43378 0.69798 0.0
H973 H 0.25172 0.49117 0.71611 0.0
H974 H 0.16846 0.53984 0.69707 0.0
H975 H 0.1498 0.4832 0.67764 0.0
H976 H 0.20425 0.5858 0.68787 0.0
H977 H 0.19975 0.51005 0.75941 0.0
H978 H 0.20928 0.4558 0.78611 0.0
H979 H 0.29926 0.47562 0.79403 0.0
H980 H 0.29027 0.52976 0.7671 0.0
H981 H 0.22197 0.73219 0.77487 0.0
H982 H 0.20812 0.67373 0.75549 0.0
H983 H 0.29625 0.64863 0.75382 0.0
H984 H 0.31028 0.70773 0.77188 0.0
H985 H 0.26117 0.59116 0.77347 0.0
H986 H 0.26253 0.67066 0.70252 0.0
H987 H 0.24986 0.72614 0.6778 0.0
H988 H 0.16105 0.69983 0.67152 0.0
H989 H 0.17318 0.64444 0.69654 0.0
C990 C 0.21846 0.4568 0.69765 0.0
C991 C 0.18973 0.45403 0.68644 0.0
C992 C 0.22933 0.48955 0.70817 0.0
C993 C 0.21145 0.51982 0.70846 0.0
C994 C 0.18276 0.51701 0.69711 0.0
C995 C 0.17207 0.48458 0.68604 0.0
C996 C 0.2225 0.55455 0.72032 0.0
C997 C 0.2164 0.58683 0.70671 0.0
C998 C 0.23888 0.55617 0.74476 0.0
C999 C 0.24434 0.52372 0.76103 0.0
C1000 C 0.22157 0.50269 0.76671 0.0
C1001 C 0.22688 0.47199 0.7819 0.0
C1002 C 0.25486 0.46221 0.7917 0.0
C1003 C 0.2776 0.48319 0.78639 0.0
C1004 C 0.27241 0.5139 0.77118 0.0
C1005 C 0.2385 0.71431 0.77042 0.0
C1006 C 0.26737 0.72454 0.77562 0.0
C1007 C 0.23051 0.68087 0.7594 0.0
C1008 C 0.2512 0.65687 0.75341 0.0
C1009 C 0.28002 0.66668 0.75865 0.0
C1010 C 0.28803 0.70042 0.76933 0.0
C1011 C 0.2425 0.6219 0.74109 0.0
C1012 C 0.24909 0.58978 0.75461 0.0
C1013 C 0.22606 0.62044 0.71681 0.0
C1014 C 0.21876 0.65359 0.7016 0.0
C1015 C 0.24029 0.67687 0.69606 0.0
C1016 C 0.23321 0.70827 0.68195 0.0
C1017 C 0.20467 0.71656 0.67315 0.0
C1018 C 0.18315 0.6934 0.67838 0.0
C1019 C 0.19011 0.66198 0.6925 0.0
H1020 H 0.19923 0.74088 0.66224 0.0
H1021 H 0.25893 0.43843 0.80346 0.0
H1022 H 0.76262 0.74332 0.7603 0.0
H1023 H 0.77758 0.68437 0.77837 0.0
H1024 H 0.71885 0.63132 0.72035 0.0
H1025 H 0.70441 0.69005 0.70169 0.0
H1026 H 0.71832 0.60222 0.76867 0.0
H1027 H 0.78545 0.63166 0.71468 0.0
H1028 H 0.82015 0.66996 0.69752 0.0
H1029 H 0.8737 0.6723 0.76973 0.0
H1030 H 0.8391 0.63444 0.78743 0.0
H1031 H 0.78066 0.42611 0.79057 0.0
H1032 H 0.76099 0.48274 0.77164 0.0
H1033 H 0.82237 0.54331 0.82318 0.0
H1034 H 0.84238 0.487 0.84199 0.0
H1035 H 0.82008 0.56728 0.77613 0.0
H1036 H 0.75244 0.53893 0.83044 0.0
H1037 H 0.71768 0.50082 0.84766 0.0
H1038 H 0.6651 0.49623 0.77504 0.0
H1039 H 0.69977 0.53392 0.7573 0.0
C1040 C 0.75276 0.71913 0.75143 0.0
C1041 C 0.73184 0.72155 0.72985 0.0
C1042 C 0.76133 0.68548 0.76179 0.0
C1043 C 0.74932 0.6535 0.75069 0.0
C1044 C 0.72815 0.65572 0.72935 0.0
C1045 C 0.71969 0.68943 0.71886 0.0
C1046 C 0.75964 0.61779 0.76095 0.0
C1047 C 0.74047 0.59428 0.77 0.0
C1048 C 0.78864 0.60779 0.76302 0.0
C1049 C 0.80954 0.63051 0.75244 0.0
C1050 C 0.80451 0.6406 0.72696 0.0
C1051 C 0.82418 0.66218 0.71712 0.0
C1052 C 0.84908 0.67363 0.73254 0.0
C1053 C 0.85439 0.66345 0.75782 0.0
C1054 C 0.83476 0.64191 0.76776 0.0
C1055 C 0.78989 0.45147 0.79798 0.0
C1056 C 0.81315 0.45194 0.8178 0.0
C1057 C 0.77854 0.48384 0.78719 0.0
C1058 C 0.7901 0.51729 0.79609 0.0
C1059 C 0.81314 0.51782 0.81598 0.0
C1060 C 0.8245 0.48555 0.82676 0.0
C1061 C 0.77888 0.55179 0.78426 0.0
C1062 C 0.7979 0.57509 0.7748 0.0
C1063 C 0.74976 0.56153 0.78185 0.0
C1064 C 0.72886 0.53892 0.79248 0.0
C1065 C 0.73359 0.52954 0.81809 0.0
C1066 C 0.71388 0.50806 0.82796 0.0
C1067 C 0.68924 0.49602 0.81244 0.0
C1068 C 0.68422 0.50552 0.78703 0.0
C1069 C 0.70388 0.52696 0.77706 0.0
H1070 H 0.674 0.4794 0.82012 0.0
H1071 H 0.86429 0.69033 0.72489 0.0
H1072 H 0.46802 0.12823 0.43439 0.0
H1073 H 0.49719 0.09325 0.46748 0.0
H1074 H 0.43799 0.00418 0.4539 0.0
H1075 H 0.4084 0.03923 0.42115 0.0
H1076 H 0.45341 0.01507 0.50298 0.0
H1077 H 0.50213 0.00334 0.43198 0.0
H1078 H 0.5253 0.0256 0.39721 0.0
H1079 H 0.58748 0.08229 0.44979 0.0
H1080 H 0.56444 0.06075 0.48486 0.0
H1081 H 0.54042 0.87901 0.56874 0.0
H1082 H 0.5117 0.91464 0.53578 0.0
H1083 H 0.57136 0.00308 0.55033 0.0
H1084 H 0.60051 0.96737 0.58301 0.0
H1085 H 0.55591 0.99304 0.50098 0.0
H1086 H 0.50742 0.0046 0.57197 0.0
H1087 H 0.48419 0.98265 0.60678 0.0
H1088 H 0.42155 0.92655 0.55428 0.0
H1089 H 0.44465 0.94777 0.51917 0.0
C1090 C 0.46117 0.10121 0.43845 0.0
C1091 C 0.43594 0.08647 0.42504 0.0
C1092 C 0.47795 0.08118 0.45731 0.0
C1093 C 0.46999 0.04588 0.46295 0.0
C1094 C 0.44459 0.03133 0.44985 0.0
C1095 C 0.42774 0.05138 0.43107 0.0
C1096 C 0.48807 0.02408 0.48253 0.0
C1097 C 0.47573 0.00985 0.50236 0.0
C1098 C 0.51737 0.01798 0.48206 0.0
C1099 C 0.53139 0.03071 0.46102 0.0
C1100 C 0.52063 0.02076 0.43611 0.0
C1101 C 0.53375 0.03321 0.41635 0.0
C1102 C 0.5578 0.05542 0.42128 0.0
C1103 C 0.56883 0.06513 0.44599 0.0
C1104 C 0.55576 0.05278 0.46582 0.0
C1105 C 0.54748 0.90602 0.56492 0.0
C1106 C 0.57269 0.9204 0.57862 0.0
C1107 C 0.53096 0.92643 0.54613 0.0
C1108 C 0.53915 0.96175 0.54082 0.0
C1109 C 0.56458 0.97593 0.55415 0.0
C1110 C 0.58117 0.9555 0.57288 0.0
C1111 C 0.52122 0.98394 0.52139 0.0
C1112 C 0.53359 0.99826 0.5016 0.0
C1113 C 0.49194 0.99015 0.52189 0.0
C1114 C 0.47793 0.9775 0.54297 0.0
C1115 C 0.48882 0.98736 0.56787 0.0
C1116 C 0.47566 0.97509 0.58765 0.0
C1117 C 0.45145 0.95314 0.58275 0.0
C1118 C 0.44032 0.94351 0.55805 0.0
C1119 C 0.45342 0.95568 0.5382 0.0
H1120 H 0.4413 0.94366 0.59809 0.0
H1121 H 0.56792 0.06506 0.40596 0.0
H1122 H 0.59896 0.03577 0.08159 0.0
H1123 H 0.57005 1.00062 0.04848 0.0
H1124 H 0.50602 0.08443 0.03972 0.0
H1125 H 0.53451 0.11938 0.07327 0.0
H1126 H 0.48173 0.01991 0.03943 0.0
H1127 H 0.55297 0.07367 0.99747 0.0
H1128 H 0.60185 0.08876 0.99127 0.0
H1129 H 0.6211 0.97572 0.98602 0.0
H1130 H 0.57244 0.95992 0.99256 0.0
H1131 H 0.40469 0.96205 0.92245 0.0
H1132 H 0.43379 0.99641 0.95587 0.0
H1133 H 0.49611 0.91059 0.96547 0.0
H1134 H 0.46734 0.87623 0.93171 0.0
H1135 H 0.52135 0.97563 0.96542 0.0
H1136 H 0.44968 0.92216 0.00704 0.0
H1137 H 0.40064 0.90748 0.01297 0.0
H1138 H 0.38203 0.02067 0.01851 0.0
H1139 H 0.43086 0.03606 0.01224 0.0
C1140 C 0.57875 0.04679 0.0726 0.0
C1141 C 0.56908 0.08045 0.08003 0.0
C1142 C 0.56229 0.0267 0.05359 0.0
C1143 C 0.53601 0.04008 0.04135 0.0
C1144 C 0.52623 0.07357 0.04886 0.0
C1145 C 0.54259 0.09357 0.068 0.0
C1146 C 0.51859 0.01899 0.02093 0.0
C1147 C 0.49029 0.01066 0.02308 0.0
C1148 C 0.52993 0.00616 0.99986 0.0
C1149 C 0.55914 0.01561 0.99574 0.0
C1150 C 0.56769 0.05202 0.99517 0.0
C1151 C 0.59534 0.0607 0.99158 0.0
C1152 C 0.61459 0.03321 0.98832 0.0
C1153 C 0.60618 0.99698 0.98858 0.0
C1154 C 0.57856 0.98815 0.99221 0.0
C1155 C 0.42457 0.9504 0.93167 0.0
C1156 C 0.43365 0.91632 0.92443 0.0
C1157 C 0.44113 0.97005 0.95086 0.0
C1158 C 0.46698 0.9559 0.96339 0.0
C1159 C 0.47622 0.92201 0.95609 0.0
C1160 C 0.4597 0.90236 0.93683 0.0
C1161 C 0.48451 0.97663 0.98392 0.0
C1162 C 0.51282 0.98488 0.98178 0.0
C1163 C 0.47317 0.98946 0.00497 0.0
C1164 C 0.44386 0.98026 0.00894 0.0
C1165 C 0.43507 0.94393 0.00934 0.0
C1166 C 0.40732 0.93548 0.01279 0.0
C1167 C 0.38821 0.96313 0.01605 0.0
C1168 C 0.39684 0.99929 0.01595 0.0
C1169 C 0.42456 0.00788 0.01247 0.0
H1170 H 0.36673 0.95654 0.01872 0.0
H1171 H 0.63599 0.03999 0.98554 0.0
H1172 H 0.03263 0.37735 0.57319 0.0
H1173 H 0.00327 0.41236 0.54022 0.0
H1174 H 0.06817 0.49493 0.54625 0.0
H1175 H 0.09756 0.46029 0.57938 0.0
H1176 H 0.01572 0.52414 0.54439 0.0
H1177 H 0.05955 0.43592 0.49761 0.0
H1178 H 0.07301 0.37451 0.48599 0.0
H1179 H 0.98469 0.34556 0.46695 0.0
H1180 H 0.97069 0.40669 0.47881 0.0
H1181 H 0.96504 0.61957 0.43172 0.0
H1182 H 0.99369 0.58422 0.46489 0.0
H1183 H 0.92859 0.5018 0.45741 0.0
H1184 H 0.89992 0.53677 0.42398 0.0
H1185 H 0.98068 0.47225 0.46018 0.0
H1186 H 0.93674 0.56045 0.5066 0.0
H1187 H 0.92314 0.62179 0.51827 0.0
H1188 H 0.01139 0.65066 0.53811 0.0
H1189 H 0.02553 0.58963 0.5262 0.0
C1190 C 0.04071 0.40291 0.56748 0.0
C1191 C 0.06748 0.41598 0.57891 0.0
C1192 C 0.02393 0.42284 0.54856 0.0
C1193 C 0.03363 0.45613 0.54062 0.0
C1194 C 0.06026 0.46932 0.55208 0.0
C1195 C 0.07707 0.4494 0.57097 0.0
C1196 C 0.01589 0.4774 0.52054 0.0
C1197 C 0.00836 0.51297 0.52587 0.0
C1198 C 0.00572 0.46251 0.49657 0.0
C1199 C 0.01408 0.42577 0.48935 0.0
C1200 C 0.043 0.41637 0.49114 0.0
C1201 C 0.05072 0.38163 0.48447 0.0
C1202 C 0.02972 0.35612 0.4758 0.0
C1203 C 1.00093 0.36534 0.47371 0.0
C1204 C 0.99309 0.40003 0.48038 0.0
C1205 C 0.95675 0.59397 0.43715 0.0
C1206 C 0.93016 0.58103 0.42521 0.0
C1207 C 0.97313 0.57384 0.4562 0.0
C1208 C 0.96317 0.5405 0.46381 0.0
C1209 C 0.93669 0.52745 0.45184 0.0
C1210 C 0.9203 0.54754 0.43279 0.0
C1211 C 0.98054 0.51903 0.48401 0.0
C1212 C 0.988 0.48342 0.47871 0.0
C1213 C 0.99062 0.53387 0.50801 0.0
C1214 C 0.98219 0.57057 0.51527 0.0
C1215 C 0.95325 0.57997 0.51326 0.0
C1216 C 0.94544 0.61467 0.51995 0.0
C1217 C 0.96639 0.64013 0.52887 0.0
C1218 C 0.99519 0.63092 0.53117 0.0
C1219 C 0.00311 0.59627 0.52447 0.0
H1220 H 0.96031 0.66698 0.53404 0.0
H1221 H 0.03574 0.32924 0.47064 0.0
H1222 H 0.10109 0.54208 0.0808 0.0
H1223 H 0.07308 0.50743 0.04688 0.0
H1224 H 0.00577 0.58668 0.04158 0.0
H1225 H 0.03349 0.62129 0.0758 0.0
H1226 H 0.98477 0.51882 0.04025 0.0
H1227 H 0.05064 0.5842 0.99843 0.0
H1228 H 0.09803 0.60515 0.99167 0.0
H1229 H 0.12345 0.49529 0.9816 0.0
H1230 H 0.07633 0.47362 0.98868 0.0
H1231 H 0.90696 0.46176 0.92347 0.0
H1232 H 0.935 0.49675 0.95716 0.0
H1233 H 0.00322 0.41888 0.96149 0.0
H1234 H 0.97551 0.38407 0.92738 0.0
H1235 H 0.02377 0.48616 0.96334 0.0
H1236 H 0.95815 0.42061 0.00524 0.0
H1237 H 0.9109 0.39938 0.01218 0.0
H1238 H 0.88515 0.50908 0.02232 0.0
H1239 H 0.93213 0.53103 0.01508 0.0
C1240 C 0.08034 0.5522 0.07242 0.0
C1241 C 0.06956 0.58453 0.08099 0.0
C1242 C 0.0644 0.53241 0.05295 0.0
C1243 C 0.03745 0.54466 0.0415 0.0
C1244 C 0.02653 0.57675 0.05013 0.0
C1245 C 0.04245 0.59656 0.06964 0.0
C1246 C 0.02057 0.5238 0.02066 0.0
C1247 C 0.99313 0.5121 0.02328 0.0
C1248 C 0.03176 0.51428 0.99878 0.0
C1249 C 0.06004 0.52727 0.99432 0.0
C1250 C 0.06641 0.56448 0.99496 0.0
C1251 C 0.09321 0.57649 0.99104 0.0
C1252 C 0.11376 0.55156 0.98627 0.0
C1253 C 0.10752 0.51457 0.98533 0.0
C1254 C 0.08076 0.50241 0.98927 0.0
C1255 C 0.92792 0.45202 0.93158 0.0
C1256 C 0.93896 0.42004 0.92276 0.0
C1257 C 0.94389 0.472 0.95093 0.0
C1258 C 0.97109 0.46021 0.96209 0.0
C1259 C 0.98227 0.42848 0.95318 0.0
C1260 C 0.96636 0.40854 0.93373 0.0
C1261 C 0.98795 0.48115 0.98292 0.0
C1262 C 0.01539 0.49287 0.98031 0.0
C1263 C 0.97678 0.49063 0.00483 0.0
C1264 C 0.94858 0.47748 0.00938 0.0
C1265 C 0.94234 0.44023 0.00877 0.0
C1266 C 0.91562 0.42806 0.01278 0.0
C1267 C 0.89501 0.45287 0.01763 0.0
C1268 C 0.90112 0.4899 0.01854 0.0
C1269 C 0.92781 0.50222 0.0145 0.0
H1270 H 0.87433 0.4434 0.02073 0.0
H1271 H 0.1345 0.56091 0.98324 0.0
loop_
_geom_bond_atom_site_label_1
_geom_bond_atom_site_label_2
_geom_bond_distance
_geom_bond_site_symmetry_2
_ccdc_geom_bond_type
Co0 O3 1.970 . S
Co0 N17 1.989 . S
Co0 O25 1.967 . S
Co0 O32 1.920 . S
Co1 O4 1.966 . S
Co1 N10 2.022 . S
Co1 N18 1.993 . S
Co1 O26 1.941 . S
C2 O3 1.258 . S
C2 O4 1.263 . S
O3 Co0 1.970 . S
O3 C2 1.258 . S
O4 Co1 1.966 . S
O4 C2 1.263 . S
C5 O6 1.235 . S
C5 O32 1.289 . S
O6 C5 1.235 . S
C7 C9 1.400 . S
C7 N10 1.351 . S
C7 C12 1.501 . S
C8 C9 1.387 . S
C8 N11 1.341 . S
C9 C7 1.400 . S
C9 C8 1.387 . S
N10 Co1 2.022 . S
N10 C7 1.351 . S
N10 N11 1.365 . S
N11 C8 1.341 . S
N11 N10 1.365 . S
N11 H31 0.862 . S
C12 C7 1.501 . S
C12 H13 0.961 . S
C12 H14 0.961 . S
C12 H15 0.960 . S
H13 C12 0.961 . S
H14 C12 0.961 . S
H15 C12 0.960 . S
C16 N17 1.342 . S
C16 C20 1.401 . S
C16 C21 1.499 . S
N17 Co0 1.989 . S
N17 C16 1.342 . S
N17 N18 1.388 . S
N18 Co1 1.993 . S
N18 N17 1.388 . S
N18 C19 1.346 . S
C19 N18 1.346 . S
C19 C20 1.396 . S
C19 C29 1.510 . S
C20 C16 1.401 . S
C20 C19 1.396 . S
C21 C16 1.499 . S
C21 H22 0.959 . S
C21 H23 0.960 . S
C21 H24 0.961 . S
H22 C21 0.959 . S
H23 C21 0.960 . S
H24 C21 0.961 . S
O25 Co0 1.967 . S
O25 C33 1.258 . S
O26 Co1 1.941 . S
O26 C33 1.266 . S
H27 C29 0.959 . S
H28 C29 0.961 . S
C29 C19 1.510 . S
C29 H27 0.959 . S
C29 H28 0.961 . S
C29 H30 0.960 . S
H30 C29 0.960 . S
H31 N11 0.862 . S
O32 Co0 1.920 . S
O32 C5 1.289 . S
C33 O25 1.258 . S
C33 O26 1.266 . S
Co34 O37 1.970 . S
Co34 N51 1.989 . S
Co34 O59 1.967 . S
Co34 O66 1.920 . S
Co35 O38 1.966 . S
Co35 N44 2.022 . S
Co35 N52 1.993 . S
Co35 O60 1.941 . S
C36 O37 1.258 . S
C36 O38 1.263 . S
O37 Co34 1.970 . S
O37 C36 1.258 . S
O38 Co35 1.966 . S
O38 C36 1.263 . S
C39 O40 1.235 . S
C39 O66 1.289 . S
O40 C39 1.235 . S
C41 C43 1.400 . S
C41 N44 1.351 . S
C41 C46 1.501 . S
C42 C43 1.387 . S
C42 N45 1.341 . S
C43 C41 1.400 . S
C43 C42 1.387 . S
N44 Co35 2.022 . S
N44 C41 1.351 . S
N44 N45 1.365 . S
N45 C42 1.341 . S
N45 N44 1.365 . S
N45 H65 0.862 . S
C46 C41 1.501 . S
C46 H47 0.961 . S
C46 H48 0.961 . S
C46 H49 0.960 . S
H47 C46 0.961 . S
H48 C46 0.961 . S
H49 C46 0.960 . S
C50 N51 1.342 . S
C50 C54 1.401 . S
C50 C55 1.499 . S
N51 Co34 1.989 . S
N51 C50 1.342 . S
N51 N52 1.388 . S
N52 Co35 1.993 . S
N52 N51 1.388 . S
N52 C53 1.346 . S
C53 N52 1.346 . S
C53 C54 1.396 . S
C53 C63 1.510 . S
C54 C50 1.401 . S
C54 C53 1.396 . S
C55 C50 1.499 . S
C55 H56 0.959 . S
C55 H57 0.960 . S
C55 H58 0.961 . S
H56 C55 0.959 . S
H57 C55 0.960 . S
H58 C55 0.961 . S
O59 Co34 1.967 . S
O59 C67 1.258 . S
O60 Co35 1.941 . S
O60 C67 1.266 . S
H61 C63 0.959 . S
H62 C63 0.961 . S
C63 C53 1.510 . S
C63 H61 0.959 . S
C63 H62 0.961 . S
C63 H64 0.960 . S
H64 C63 0.960 . S
H65 N45 0.862 . S
O66 Co34 1.920 . S
O66 C39 1.289 . S
C67 O59 1.258 . S
C67 O60 1.266 . S
Co68 O71 1.970 . S
Co68 N85 1.989 . S
Co68 O93 1.967 . S
Co68 O100 1.920 . S
Co69 O72 1.966 . S
Co69 N78 2.022 . S
Co69 N86 1.993 . S
Co69 O94 1.941 . S
C70 O71 1.258 . S
C70 O72 1.263 . S
O71 Co68 1.970 . S
O71 C70 1.258 . S
O72 Co69 1.966 . S
O72 C70 1.263 . S
C73 O74 1.235 . S
C73 O100 1.289 . S
O74 C73 1.235 . S
C75 C77 1.400 . S
C75 N78 1.351 . S
C75 C80 1.501 . S
C76 C77 1.387 . S
C76 N79 1.341 . S
C77 C75 1.400 . S
C77 C76 1.387 . S
N78 Co69 2.022 . S
N78 C75 1.351 . S
N78 N79 1.365 . S
N79 C76 1.341 . S
N79 N78 1.365 . S
N79 H99 0.862 . S
C80 C75 1.501 . S
C80 H81 0.961 . S
C80 H82 0.961 . S
C80 H83 0.960 . S
H81 C80 0.961 . S
H82 C80 0.961 . S
H83 C80 0.960 . S
C84 N85 1.342 . S
C84 C88 1.401 . S
C84 C89 1.499 . S
N85 Co68 1.989 . S
N85 C84 1.342 . S
N85 N86 1.388 . S
N86 Co69 1.993 . S
N86 N85 1.388 . S
N86 C87 1.346 . S
C87 N86 1.346 . S
C87 C88 1.396 . S
C87 C97 1.510 . S
C88 C84 1.401 . S
C88 C87 1.396 . S
C89 C84 1.499 . S
C89 H90 0.959 . S
C89 H91 0.960 . S
C89 H92 0.961 . S
H90 C89 0.959 . S
H91 C89 0.960 . S
H92 C89 0.961 . S
O93 Co68 1.967 . S
O93 C101 1.258 . S
O94 Co69 1.941 . S
O94 C101 1.266 . S
H95 C97 0.959 . S
H96 C97 0.961 . S
C97 C87 1.510 . S
C97 H95 0.959 . S
C97 H96 0.961 . S
C97 H98 0.960 . S
H98 C97 0.960 . S
H99 N79 0.862 . S
O100 Co68 1.920 . S
O100 C73 1.289 . S
C101 O93 1.258 . S
C101 O94 1.266 . S
Co102 O105 1.970 . S
Co102 N119 1.989 . S
Co102 O127 1.967 . S
Co102 O134 1.920 . S
Co103 O106 1.966 . S
Co103 N112 2.022 . S
Co103 N120 1.993 . S
Co103 O128 1.941 . S
C104 O105 1.258 . S
C104 O106 1.263 . S
O105 Co102 1.970 . S
O105 C104 1.258 . S
O106 Co103 1.966 . S
O106 C104 1.263 . S
C107 O108 1.235 . S
C107 O134 1.289 . S
O108 C107 1.235 . S
C109 C111 1.400 . S
C109 N112 1.351 . S
C109 C114 1.501 . S
C110 C111 1.387 . S
C110 N113 1.341 . S
C111 C109 1.400 . S
C111 C110 1.387 . S
N112 Co103 2.022 . S
N112 C109 1.351 . S
N112 N113 1.365 . S
N113 C110 1.341 . S
N113 N112 1.365 . S
N113 H133 0.862 . S
C114 C109 1.501 . S
C114 H115 0.961 . S
C114 H116 0.961 . S
C114 H117 0.960 . S
H115 C114 0.961 . S
H116 C114 0.961 . S
H117 C114 0.960 . S
C118 N119 1.342 . S
C118 C122 1.401 . S
C118 C123 1.499 . S
N119 Co102 1.989 . S
N119 C118 1.342 . S
N119 N120 1.388 . S
N120 Co103 1.993 . S
N120 N119 1.388 . S
N120 C121 1.346 . S
C121 N120 1.346 . S
C121 C122 1.396 . S
C121 C131 1.510 . S
C122 C118 1.401 . S
C122 C121 1.396 . S
C123 C118 1.499 . S
C123 H124 0.959 . S
C123 H125 0.960 . S
C123 H126 0.961 . S
H124 C123 0.959 . S
H125 C123 0.960 . S
H126 C123 0.961 . S
O127 Co102 1.967 . S
O127 C135 1.258 . S
O128 Co103 1.941 . S
O128 C135 1.266 . S
H129 C131 0.959 . S
H130 C131 0.961 . S
C131 C121 1.510 . S
C131 H129 0.959 . S
C131 H130 0.961 . S
C131 H132 0.960 . S
H132 C131 0.960 . S
H133 N113 0.862 . S
O134 Co102 1.920 . S
O134 C107 1.289 . S
C135 O127 1.258 . S
C135 O128 1.266 . S
Co136 O139 1.970 . S
Co136 N153 1.989 . S
Co136 O161 1.967 . S
Co136 O168 1.920 . S
Co137 O140 1.966 . S
Co137 N146 2.022 . S
Co137 N154 1.993 . S
Co137 O162 1.941 . S
C138 O139 1.258 . S
C138 O140 1.263 . S
O139 Co136 1.970 . S
O139 C138 1.258 . S
O140 Co137 1.966 . S
O140 C138 1.263 . S
C141 O142 1.235 . S
C141 O168 1.289 . S
O142 C141 1.235 . S
C143 C145 1.400 . S
C143 N146 1.351 . S
C143 C148 1.501 . S
C144 C145 1.387 . S
C144 N147 1.341 . S
C145 C143 1.400 . S
C145 C144 1.387 . S
N146 Co137 2.022 . S
N146 C143 1.351 . S
N146 N147 1.365 . S
N147 C144 1.341 . S
N147 N146 1.365 . S
N147 H167 0.862 . S
C148 C143 1.501 . S
C148 H149 0.961 . S
C148 H150 0.961 . S
C148 H151 0.960 . S
H149 C148 0.961 . S
H150 C148 0.961 . S
H151 C148 0.960 . S
C152 N153 1.342 . S
C152 C156 1.401 . S
C152 C157 1.499 . S
N153 Co136 1.989 . S
N153 C152 1.342 . S
N153 N154 1.388 . S
N154 Co137 1.993 . S
N154 N153 1.388 . S
N154 C155 1.346 . S
C155 N154 1.346 . S
C155 C156 1.396 . S
C155 C165 1.510 . S
C156 C152 1.401 . S
C156 C155 1.396 . S
C157 C152 1.499 . S
C157 H158 0.959 . S
C157 H159 0.960 . S
C157 H160 0.961 . S
H158 C157 0.959 . S
H159 C157 0.960 . S
H160 C157 0.961 . S
O161 Co136 1.967 . S
O161 C169 1.258 . S
O162 Co137 1.941 . S
O162 C169 1.266 . S
H163 C165 0.959 . S
H164 C165 0.961 . S
C165 C155 1.510 . S
C165 H163 0.959 . S
C165 H164 0.961 . S
C165 H166 0.960 . S
H166 C165 0.960 . S
H167 N147 0.862 . S
O168 Co136 1.920 . S
O168 C141 1.289 . S
C169 O161 1.258 . S
C169 O162 1.266 . S
Co170 O173 1.970 . S
Co170 N187 1.989 . S
Co170 O195 1.967 . S
Co170 O202 1.920 . S
Co171 O174 1.966 . S
Co171 N180 2.022 . S
Co171 N188 1.993 . S
Co171 O196 1.941 . S
C172 O173 1.258 . S
C172 O174 1.263 . S
O173 Co170 1.970 . S
O173 C172 1.258 . S
O174 Co171 1.966 . S
O174 C172 1.263 . S
C175 O176 1.235 . S
C175 O202 1.289 . S
O176 C175 1.235 . S
C177 C179 1.400 . S
C177 N180 1.351 . S
C177 C182 1.501 . S
C178 C179 1.387 . S
C178 N181 1.341 . S
C179 C177 1.400 . S
C179 C178 1.387 . S
N180 Co171 2.022 . S
N180 C177 1.351 . S
N180 N181 1.365 . S
N181 C178 1.341 . S
N181 N180 1.365 . S
N181 H201 0.862 . S
C182 C177 1.501 . S
C182 H183 0.961 . S
C182 H184 0.961 . S
C182 H185 0.960 . S
H183 C182 0.961 . S
H184 C182 0.961 . S
H185 C182 0.960 . S
C186 N187 1.342 . S
C186 C190 1.401 . S
C186 C191 1.499 . S
N187 Co170 1.989 . S
N187 C186 1.342 . S
N187 N188 1.388 . S
N188 Co171 1.993 . S
N188 N187 1.388 . S
N188 C189 1.346 . S
C189 N188 1.346 . S
C189 C190 1.396 . S
C189 C199 1.510 . S
C190 C186 1.401 . S
C190 C189 1.396 . S
C191 C186 1.499 . S
C191 H192 0.959 . S
C191 H193 0.960 . S
C191 H194 0.961 . S
H192 C191 0.959 . S
H193 C191 0.960 . S
H194 C191 0.961 . S
O195 Co170 1.967 . S
O195 C203 1.258 . S
O196 Co171 1.941 . S
O196 C203 1.266 . S
H197 C199 0.959 . S
H198 C199 0.961 . S
C199 C189 1.510 . S
C199 H197 0.959 . S
C199 H198 0.961 . S
C199 H200 0.960 . S
H200 C199 0.960 . S
H201 N181 0.862 . S
O202 Co170 1.920 . S
O202 C175 1.289 . S
C203 O195 1.258 . S
C203 O196 1.266 . S
Co204 O207 1.970 . S
Co204 N221 1.989 . S
Co204 O229 1.967 . S
Co204 O236 1.920 . S
Co205 O208 1.966 . S
Co205 N214 2.022 . S
Co205 N222 1.993 . S
Co205 O230 1.941 . S
C206 O207 1.258 . S
C206 O208 1.263 . S
O207 Co204 1.970 . S
O207 C206 1.258 . S
O208 Co205 1.966 . S
O208 C206 1.263 . S
C209 O210 1.235 . S
C209 O236 1.289 . S
O210 C209 1.235 . S
C211 C213 1.400 . S
C211 N214 1.351 . S
C211 C216 1.501 . S
C212 C213 1.387 . S
C212 N215 1.341 . S
C213 C211 1.400 . S
C213 C212 1.387 . S
N214 Co205 2.022 . S
N214 C211 1.351 . S
N214 N215 1.365 . S
N215 C212 1.341 . S
N215 N214 1.365 . S
N215 H235 0.862 . S
C216 C211 1.501 . S
C216 H217 0.961 . S
C216 H218 0.961 . S
C216 H219 0.960 . S
H217 C216 0.961 . S
H218 C216 0.961 . S
H219 C216 0.960 . S
C220 N221 1.342 . S
C220 C224 1.401 . S
C220 C225 1.499 . S
N221 Co204 1.989 . S
N221 C220 1.342 . S
N221 N222 1.388 . S
N222 Co205 1.993 . S
N222 N221 1.388 . S
N222 C223 1.346 . S
C223 N222 1.346 . S
C223 C224 1.396 . S
C223 C233 1.510 . S
C224 C220 1.401 . S
C224 C223 1.396 . S
C225 C220 1.499 . S
C225 H226 0.959 . S
C225 H227 0.960 . S
C225 H228 0.961 . S
H226 C225 0.959 . S
H227 C225 0.960 . S
H228 C225 0.961 . S
O229 Co204 1.967 . S
O229 C237 1.258 . S
O230 Co205 1.941 . S
O230 C237 1.266 . S
H231 C233 0.959 . S
H232 C233 0.961 . S
C233 C223 1.510 . S
C233 H231 0.959 . S
C233 H232 0.961 . S
C233 H234 0.960 . S
H234 C233 0.960 . S
H235 N215 0.862 . S
O236 Co204 1.920 . S
O236 C209 1.289 . S
C237 O229 1.258 . S
C237 O230 1.266 . S
Co238 O241 1.970 . S
Co238 N255 1.989 . S
Co238 O263 1.967 . S
Co238 O270 1.920 . S
Co239 O242 1.966 . S
Co239 N248 2.022 . S
Co239 N256 1.993 . S
Co239 O264 1.941 . S
C240 O241 1.258 . S
C240 O242 1.263 . S
O241 Co238 1.970 . S
O241 C240 1.258 . S
O242 Co239 1.966 . S
O242 C240 1.263 . S
C243 O244 1.235 . S
C243 O270 1.289 . S
O244 C243 1.235 . S
C245 C247 1.400 . S
C245 N248 1.351 . S
C245 C250 1.501 . S
C246 C247 1.387 . S
C246 N249 1.341 . S
C247 C245 1.400 . S
C247 C246 1.387 . S
N248 Co239 2.022 . S
N248 C245 1.351 . S
N248 N249 1.365 . S
N249 C246 1.341 . S
N249 N248 1.365 . S
N249 H269 0.862 . S
C250 C245 1.501 . S
C250 H251 0.961 . S
C250 H252 0.961 . S
C250 H253 0.960 . S
H251 C250 0.961 . S
H252 C250 0.961 . S
H253 C250 0.960 . S
C254 N255 1.342 . S
C254 C258 1.401 . S
C254 C259 1.499 . S
N255 Co238 1.989 . S
N255 C254 1.342 . S
N255 N256 1.388 . S
N256 Co239 1.993 . S
N256 N255 1.388 . S
N256 C257 1.346 . S
C257 N256 1.346 . S
C257 C258 1.396 . S
C257 C267 1.510 . S
C258 C254 1.401 . S
C258 C257 1.396 . S
C259 C254 1.499 . S
C259 H260 0.959 . S
C259 H261 0.960 . S
C259 H262 0.961 . S
H260 C259 0.959 . S
H261 C259 0.960 . S
H262 C259 0.961 . S
O263 Co238 1.967 . S
O263 C271 1.258 . S
O264 Co239 1.941 . S
O264 C271 1.266 . S
H265 C267 0.959 . S
H266 C267 0.961 . S
C267 C257 1.510 . S
C267 H265 0.959 . S
C267 H266 0.961 . S
C267 H268 0.960 . S
H268 C267 0.960 . S
H269 N249 0.862 . S
O270 Co238 1.920 . S
O270 C243 1.289 . S
C271 O263 1.258 . S
C271 O264 1.266 . S
H272 C290 0.951 . S
H273 C292 0.951 . S
H274 C294 0.950 . S
H275 C295 0.950 . S
H276 C297 0.950 . S
H277 C300 0.950 . S
H278 C301 0.950 . S
H279 C303 0.950 . S
H280 C304 0.950 . S
H281 C305 0.951 . S
H282 C307 0.951 . S
H283 C309 0.950 . S
H284 C310 0.950 . S
H285 C312 0.950 . S
H286 C315 0.950 . S
H287 C316 0.950 . S
H288 C318 0.950 . S
H289 C319 0.950 . S
C290 H272 0.951 . S
C290 C291 1.366 . S
C290 C292 1.388 . S
C291 C290 1.366 . S
C291 C295 1.385 . S
C292 H273 0.951 . S
C292 C290 1.388 . S
C292 C293 1.366 . S
C293 C292 1.366 . S
C293 C294 1.414 . S
C293 C296 1.499 . S
C294 H274 0.950 . S
C294 C293 1.414 . S
C294 C295 1.374 . S
C295 H275 0.950 . S
C295 C291 1.385 . S
C295 C294 1.374 . S
C296 C293 1.499 . S
C296 C297 1.373 . S
C296 C298 1.389 . S
C297 H276 0.950 . S
C297 C296 1.373 . S
C297 C313 1.377 . S
C298 C296 1.389 . S
C298 C299 1.524 . S
C298 C312 1.377 . S
C299 C298 1.524 . S
C299 C300 1.397 . S
C299 C304 1.363 . S
C300 H277 0.950 . S
C300 C299 1.397 . S
C300 C301 1.334 . S
C301 H278 0.950 . S
C301 C300 1.334 . S
C301 C302 1.287 . S
C302 C301 1.287 . S
C302 C303 1.524 . S
C302 H321 0.913 . S
C303 H279 0.950 . S
C303 C302 1.524 . S
C303 C304 1.415 . S
C304 H280 0.950 . S
C304 C299 1.363 . S
C304 C303 1.415 . S
C305 H281 0.951 . S
C305 C306 1.366 . S
C305 C307 1.388 . S
C306 C305 1.366 . S
C306 C310 1.385 . S
C307 H282 0.951 . S
C307 C305 1.388 . S
C307 C308 1.366 . S
C308 C307 1.366 . S
C308 C309 1.414 . S
C308 C311 1.499 . S
C309 H283 0.950 . S
C309 C308 1.414 . S
C309 C310 1.374 . S
C310 H284 0.950 . S
C310 C306 1.385 . S
C310 C309 1.374 . S
C311 C308 1.499 . S
C311 C312 1.373 . S
C311 C313 1.389 . S
C312 H285 0.950 . S
C312 C298 1.377 . S
C312 C311 1.373 . S
C313 C297 1.377 . S
C313 C311 1.389 . S
C313 C314 1.524 . S
C314 C313 1.524 . S
C314 C315 1.397 . S
C314 C319 1.363 . S
C315 H286 0.950 . S
C315 C314 1.397 . S
C315 C316 1.334 . S
C316 H287 0.950 . S
C316 C315 1.334 . S
C316 C317 1.287 . S
C317 C316 1.287 . S
C317 C318 1.524 . S
C317 H320 0.999 . S
C318 H288 0.950 . S
C318 C317 1.524 . S
C318 C319 1.415 . S
C319 H289 0.950 . S
C319 C314 1.363 . S
C319 C318 1.415 . S
H320 C317 0.999 . S
H321 C302 0.913 . S
H322 C340 0.951 . S
H323 C342 0.951 . S
H324 C344 0.950 . S
H325 C345 0.950 . S
H326 C347 0.953 . S
H327 C350 0.950 . S
H328 C351 0.950 . S
H329 C353 0.950 . S
H330 C354 0.950 . S
H331 C355 0.951 . S
H332 C357 0.951 . S
H333 C359 0.950 . S
H334 C360 0.950 . S
H335 C362 0.953 . S
H336 C365 0.950 . S
H337 C366 0.950 . S
H338 C368 0.950 . S
H339 C369 0.950 . S
C340 H322 0.951 . S
C340 C341 1.366 . S
C340 C342 1.388 . S
C341 C340 1.366 . S
C341 C345 1.385 . S
C342 H323 0.951 . S
C342 C340 1.388 . S
C342 C343 1.366 . S
C343 C342 1.366 . S
C343 C344 1.414 . S
C343 C346 1.499 . S
C344 H324 0.950 . S
C344 C343 1.414 . S
C344 C345 1.374 . S
C345 H325 0.950 . S
C345 C341 1.385 . S
C345 C344 1.374 . S
C346 C343 1.499 . S
C346 C347 1.372 1_554 S
C346 C348 1.389 . S
C347 H326 0.953 . S
C347 C346 1.372 1_556 S
C347 C363 1.378 . S
C348 C346 1.389 . S
C348 C349 1.524 . S
C348 C362 1.378 . S
C349 C348 1.524 . S
C349 C350 1.397 . S
C349 C354 1.363 . S
C350 H327 0.950 . S
C350 C349 1.397 . S
C350 C351 1.334 . S
C351 H328 0.950 . S
C351 C350 1.334 . S
C351 C352 1.287 . S
C352 C351 1.287 . S
C352 C353 1.524 . S
C352 H371 0.913 . S
C353 H329 0.950 . S
C353 C352 1.524 . S
C353 C354 1.415 . S
C354 H330 0.950 . S
C354 C349 1.363 . S
C354 C353 1.415 . S
C355 H331 0.951 . S
C355 C356 1.366 . S
C355 C357 1.388 . S
C356 C355 1.366 . S
C356 C360 1.385 . S
C357 H332 0.951 . S
C357 C355 1.388 . S
C357 C358 1.366 . S
C358 C357 1.366 . S
C358 C359 1.414 . S
C358 C361 1.499 . S
C359 H333 0.950 . S
C359 C358 1.414 . S
C359 C360 1.374 . S
C360 H334 0.950 . S
C360 C356 1.385 . S
C360 C359 1.374 . S
C361 C358 1.499 . S
C361 C362 1.372 1_556 S
C361 C363 1.389 . S
C362 H335 0.953 . S
C362 C348 1.378 . S
C362 C361 1.372 1_554 S
C363 C347 1.378 . S
C363 C361 1.389 . S
C363 C364 1.524 . S
C364 C363 1.524 . S
C364 C365 1.397 . S
C364 C369 1.363 . S
C365 H336 0.950 . S
C365 C364 1.397 . S
C365 C366 1.334 . S
C366 H337 0.950 . S
C366 C365 1.334 . S
C366 C367 1.287 . S
C367 C366 1.287 . S
C367 C368 1.524 . S
C367 H370 0.999 . S
C368 H338 0.950 . S
C368 C367 1.524 . S
C368 C369 1.415 . S
C369 H339 0.950 . S
C369 C364 1.363 . S
C369 C368 1.415 . S
H370 C367 0.999 . S
H371 C352 0.913 . S
H372 C390 0.951 . S
H373 C392 0.951 . S
H374 C394 0.950 . S
H375 C395 0.950 . S
H376 C397 0.950 . S
H377 C400 0.950 . S
H378 C401 0.950 . S
H379 C403 0.950 . S
H380 C404 0.950 . S
H381 C405 0.951 . S
H382 C407 0.951 . S
H383 C409 0.950 . S
H384 C410 0.950 . S
H385 C412 0.950 . S
H386 C415 0.950 . S
H387 C416 0.950 . S
H388 C418 0.950 . S
H389 C419 0.950 . S
C390 H372 0.951 . S
C390 C391 1.366 . S
C390 C392 1.388 . S
C391 C390 1.366 . S
C391 C395 1.385 . S
C392 H373 0.951 . S
C392 C390 1.388 . S
C392 C393 1.366 . S
C393 C392 1.366 . S
C393 C394 1.414 . S
C393 C396 1.499 . S
C394 H374 0.950 . S
C394 C393 1.414 . S
C394 C395 1.374 . S
C395 H375 0.950 . S
C395 C391 1.385 . S
C395 C394 1.374 . S
C396 C393 1.499 . S
C396 C397 1.373 . S
C396 C398 1.389 . S
C397 H376 0.950 . S
C397 C396 1.373 . S
C397 C413 1.377 . S
C398 C396 1.389 . S
C398 C399 1.524 . S
C398 C412 1.377 . S
C399 C398 1.524 . S
C399 C400 1.397 . S
C399 C404 1.363 . S
C400 H377 0.950 . S
C400 C399 1.397 . S
C400 C401 1.334 . S
C401 H378 0.950 . S
C401 C400 1.334 . S
C401 C402 1.287 . S
C402 C401 1.287 . S
C402 C403 1.524 . S
C402 H421 0.913 . S
C403 H379 0.950 . S
C403 C402 1.524 . S
C403 C404 1.415 . S
C404 H380 0.950 . S
C404 C399 1.363 . S
C404 C403 1.415 . S
C405 H381 0.951 . S
C405 C406 1.366 . S
C405 C407 1.388 . S
C406 C405 1.366 . S
C406 C410 1.385 . S
C407 H382 0.951 . S
C407 C405 1.388 . S
C407 C408 1.366 . S
C408 C407 1.366 . S
C408 C409 1.414 . S
C408 C411 1.499 . S
C409 H383 0.950 . S
C409 C408 1.414 . S
C409 C410 1.374 . S
C410 H384 0.950 . S
C410 C406 1.385 . S
C410 C409 1.374 . S
C411 C408 1.499 . S
C411 C412 1.373 . S
C411 C413 1.389 . S
C412 H385 0.950 . S
C412 C398 1.377 . S
C412 C411 1.373 . S
C413 C397 1.377 . S
C413 C411 1.389 . S
C413 C414 1.524 . S
C414 C413 1.524 . S
C414 C415 1.397 . S
C414 C419 1.363 . S
C415 H386 0.950 . S
C415 C414 1.397 . S
C415 C416 1.334 . S
C416 H387 0.950 . S
C416 C415 1.334 . S
C416 C417 1.287 . S
C417 C416 1.287 . S
C417 C418 1.524 . S
C417 H420 0.999 . S
C418 H388 0.950 . S
C418 C417 1.524 . S
C418 C419 1.415 . S
C419 H389 0.950 . S
C419 C414 1.363 . S
C419 C418 1.415 . S
H420 C417 0.999 . S
H421 C402 0.913 . S
H422 C440 0.951 . S
H423 C442 0.951 . S
H424 C444 0.950 . S
H425 C445 0.950 . S
H426 C447 0.950 . S
H427 C450 0.950 . S
H428 C451 0.950 . S
H429 C453 0.950 . S
H430 C454 0.950 1_554 S
H431 C455 0.951 . S
H432 C457 0.951 . S
H433 C459 0.950 . S
H434 C460 0.950 . S
H435 C462 0.950 . S
H436 C465 0.950 . S
H437 C466 0.950 . S
H438 C468 0.950 . S
H439 C469 0.950 1_556 S
C440 H422 0.951 . S
C440 C441 1.366 . S
C440 C442 1.388 . S
C441 C440 1.366 . S
C441 C445 1.385 . S
C442 H423 0.951 . S
C442 C440 1.388 . S
C442 C443 1.366 . S
C443 C442 1.366 . S
C443 C444 1.414 . S
C443 C446 1.499 . S
C444 H424 0.950 . S
C444 C443 1.414 . S
C444 C445 1.374 . S
C445 H425 0.950 . S
C445 C441 1.385 . S
C445 C444 1.374 . S
C446 C443 1.499 . S
C446 C447 1.373 . S
C446 C448 1.389 . S
C447 H426 0.950 . S
C447 C446 1.373 . S
C447 C463 1.377 1_556 S
C448 C446 1.389 . S
C448 C449 1.524 . S
C448 C462 1.377 1_556 S
C449 C448 1.524 . S
C449 C450 1.397 . S
C449 C454 1.363 . S
C450 H427 0.950 . S
C450 C449 1.397 . S
C450 C451 1.334 . S
C451 H428 0.950 . S
C451 C450 1.334 . S
C451 C452 1.287 . S
C452 C451 1.287 . S
C452 C453 1.524 . S
C452 H471 0.913 . S
C453 H429 0.950 . S
C453 C452 1.524 . S
C453 C454 1.415 . S
C454 H430 0.950 1_556 S
C454 C449 1.363 . S
C454 C453 1.415 . S
C455 H431 0.951 . S
C455 C456 1.366 . S
C455 C457 1.388 . S
C456 C455 1.366 . S
C456 C460 1.385 . S
C457 H432 0.951 . S
C457 C455 1.388 . S
C457 C458 1.366 . S
C458 C457 1.366 . S
C458 C459 1.414 . S
C458 C461 1.499 . S
C459 H433 0.950 . S
C459 C458 1.414 . S
C459 C460 1.374 . S
C460 H434 0.950 . S
C460 C456 1.385 . S
C460 C459 1.374 . S
C461 C458 1.499 . S
C461 C462 1.373 . S
C461 C463 1.389 . S
C462 H435 0.950 . S
C462 C448 1.377 1_554 S
C462 C461 1.373 . S
C463 C447 1.377 1_554 S
C463 C461 1.389 . S
C463 C464 1.524 . S
C464 C463 1.524 . S
C464 C465 1.397 . S
C464 C469 1.363 . S
C465 H436 0.950 . S
C465 C464 1.397 . S
C465 C466 1.334 . S
C466 H437 0.950 . S
C466 C465 1.334 . S
C466 C467 1.287 . S
C467 C466 1.287 . S
C467 C468 1.524 . S
C467 H470 0.999 . S
C468 H438 0.950 . S
C468 C467 1.524 . S
C468 C469 1.415 . S
C469 H439 0.950 1_554 S
C469 C464 1.363 . S
C469 C468 1.415 . S
H470 C467 0.999 . S
H471 C452 0.913 . S
H472 C490 0.951 . S
H473 C492 0.951 . S
H474 C494 0.950 . S
H475 C495 0.950 . S
H476 C497 0.950 . S
H477 C500 0.950 . S
H478 C501 0.950 . S
H479 C503 0.950 . S
H480 C504 0.950 . S
H481 C505 0.951 . S
H482 C507 0.951 . S
H483 C509 0.950 . S
H484 C510 0.950 . S
H485 C512 0.950 . S
H486 C515 0.950 . S
H487 C516 0.950 . S
H488 C518 0.950 . S
H489 C519 0.950 . S
C490 H472 0.951 . S
C490 C491 1.366 . S
C490 C492 1.388 . S
C491 C490 1.366 . S
C491 C495 1.385 . S
C492 H473 0.951 . S
C492 C490 1.388 . S
C492 C493 1.366 . S
C493 C492 1.366 . S
C493 C494 1.414 . S
C493 C496 1.499 . S
C494 H474 0.950 . S
C494 C493 1.414 . S
C494 C495 1.374 . S
C495 H475 0.950 . S
C495 C491 1.385 . S
C495 C494 1.374 . S
C496 C493 1.499 . S
C496 C497 1.373 . S
C496 C498 1.389 . S
C497 H476 0.950 . S
C497 C496 1.373 . S
C497 C513 1.377 . S
C498 C496 1.389 . S
C498 C499 1.524 . S
C498 C512 1.377 . S
C499 C498 1.524 . S
C499 C500 1.397 . S
C499 C504 1.363 . S
C500 H477 0.950 . S
C500 C499 1.397 . S
C500 C501 1.334 . S
C501 H478 0.950 . S
C501 C500 1.334 . S
C501 C502 1.287 . S
C502 C501 1.287 . S
C502 C503 1.524 . S
C502 H521 0.913 . S
C503 H479 0.950 . S
C503 C502 1.524 . S
C503 C504 1.415 . S
C504 H480 0.950 . S
C504 C499 1.363 . S
C504 C503 1.415 . S
C505 H481 0.951 . S
C505 C506 1.366 . S
C505 C507 1.388 . S
C506 C505 1.366 . S
C506 C510 1.385 . S
C507 H482 0.951 . S
C507 C505 1.388 . S
C507 C508 1.366 . S
C508 C507 1.366 . S
C508 C509 1.414 . S
C508 C511 1.499 . S
C509 H483 0.950 . S
C509 C508 1.414 . S
C509 C510 1.374 . S
C510 H484 0.950 . S
C510 C506 1.385 . S
C510 C509 1.374 . S
C511 C508 1.499 . S
C511 C512 1.373 . S
C511 C513 1.389 . S
C512 H485 0.950 . S
C512 C498 1.377 . S
C512 C511 1.373 . S
C513 C497 1.377 . S
C513 C511 1.389 . S
C513 C514 1.524 . S
C514 C513 1.524 . S
C514 C515 1.397 . S
C514 C519 1.363 . S
C515 H486 0.950 . S
C515 C514 1.397 . S
C515 C516 1.334 . S
C516 H487 0.950 . S
C516 C515 1.334 . S
C516 C517 1.287 . S
C517 C516 1.287 . S
C517 C518 1.524 . S
C517 H520 0.999 . S
C518 H488 0.950 . S
C518 C517 1.524 . S
C518 C519 1.415 . S
C519 H489 0.950 . S
C519 C514 1.363 . S
C519 C518 1.415 . S
H520 C517 0.999 . S
H521 C502 0.913 . S
H522 C540 0.951 . S
H523 C542 0.951 . S
H524 C544 0.950 . S
H525 C545 0.950 . S
H526 C547 0.950 . S
H527 C550 0.950 . S
H528 C551 0.950 . S
H529 C553 0.950 . S
H530 C554 0.950 . S
H531 C555 0.951 . S
H532 C557 0.951 . S
H533 C559 0.950 . S
H534 C560 0.950 . S
H535 C562 0.950 . S
H536 C565 0.950 . S
H537 C566 0.950 . S
H538 C568 0.950 . S
H539 C569 0.950 . S
C540 H522 0.951 . S
C540 C541 1.366 . S
C540 C542 1.388 . S
C541 C540 1.366 . S
C541 C545 1.385 . S
C542 H523 0.951 . S
C542 C540 1.388 . S
C542 C543 1.366 . S
C543 C542 1.366 . S
C543 C544 1.414 . S
C543 C546 1.499 . S
C544 H524 0.950 . S
C544 C543 1.414 . S
C544 C545 1.374 . S
C545 H525 0.950 . S
C545 C541 1.385 . S
C545 C544 1.374 . S
C546 C543 1.499 . S
C546 C547 1.373 . S
C546 C548 1.389 . S
C547 H526 0.950 . S
C547 C546 1.373 . S
C547 C563 1.377 . S
C548 C546 1.389 . S
C548 C549 1.524 . S
C548 C562 1.377 . S
C549 C548 1.524 . S
C549 C550 1.397 . S
C549 C554 1.363 . S
C550 H527 0.950 . S
C550 C549 1.397 . S
C550 C551 1.334 . S
C551 H528 0.950 . S
C551 C550 1.334 . S
C551 C552 1.287 . S
C552 C551 1.287 . S
C552 C553 1.524 . S
C552 H571 0.913 . S
C553 H529 0.950 . S
C553 C552 1.524 . S
C553 C554 1.415 . S
C554 H530 0.950 . S
C554 C549 1.363 . S
C554 C553 1.415 . S
C555 H531 0.951 . S
C555 C556 1.366 . S
C555 C557 1.388 . S
C556 C555 1.366 . S
C556 C560 1.385 . S
C557 H532 0.951 . S
C557 C555 1.388 . S
C557 C558 1.366 . S
C558 C557 1.366 . S
C558 C559 1.414 . S
C558 C561 1.499 . S
C559 H533 0.950 . S
C559 C558 1.414 . S
C559 C560 1.374 . S
C560 H534 0.950 . S
C560 C556 1.385 . S
C560 C559 1.374 . S
C561 C558 1.499 . S
C561 C562 1.373 . S
C561 C563 1.389 . S
C562 H535 0.950 . S
C562 C548 1.377 . S
C562 C561 1.373 . S
C563 C547 1.377 . S
C563 C561 1.389 . S
C563 C564 1.524 . S
C564 C563 1.524 . S
C564 C565 1.397 . S
C564 C569 1.363 . S
C565 H536 0.950 . S
C565 C564 1.397 . S
C565 C566 1.334 . S
C566 H537 0.950 . S
C566 C565 1.334 . S
C566 C567 1.287 . S
C567 C566 1.287 . S
C567 C568 1.524 . S
C567 H570 0.999 . S
C568 H538 0.950 . S
C568 C567 1.524 . S
C568 C569 1.415 . S
C569 H539 0.950 . S
C569 C564 1.363 . S
C569 C568 1.415 . S
H570 C567 0.999 . S
H571 C552 0.913 . S
H572 C590 0.951 . S
H573 C592 0.951 . S
H574 C594 0.950 . S
H575 C595 0.950 . S
H576 C597 0.950 . S
H577 C600 0.950 . S
H578 C601 0.950 . S
H579 C603 0.950 . S
H580 C604 0.950 . S
H581 C605 0.951 . S
H582 C607 0.951 . S
H583 C609 0.950 . S
H584 C610 0.950 . S
H585 C612 0.950 . S
H586 C615 0.950 . S
H587 C616 0.950 . S
H588 C618 0.950 . S
H589 C619 0.950 . S
C590 H572 0.951 . S
C590 C591 1.366 . S
C590 C592 1.388 . S
C591 C590 1.366 . S
C591 C595 1.385 . S
C592 H573 0.951 . S
C592 C590 1.388 . S
C592 C593 1.366 . S
C593 C592 1.366 . S
C593 C594 1.414 . S
C593 C596 1.499 . S
C594 H574 0.950 . S
C594 C593 1.414 . S
C594 C595 1.374 . S
C595 H575 0.950 . S
C595 C591 1.385 . S
C595 C594 1.374 . S
C596 C593 1.499 . S
C596 C597 1.373 1_455 S
C596 C598 1.389 . S
C597 H576 0.950 . S
C597 C596 1.373 1_655 S
C597 C613 1.377 . S
C598 C596 1.389 . S
C598 C599 1.524 . S
C598 C612 1.377 . S
C599 C598 1.524 . S
C599 C600 1.397 . S
C599 C604 1.363 . S
C600 H577 0.950 . S
C600 C599 1.397 . S
C600 C601 1.334 . S
C601 H578 0.950 . S
C601 C600 1.334 . S
C601 C602 1.287 . S
C602 C601 1.287 . S
C602 C603 1.524 . S
C602 H621 0.913 . S
C603 H579 0.950 . S
C603 C602 1.524 . S
C603 C604 1.415 . S
C604 H580 0.950 . S
C604 C599 1.363 . S
C604 C603 1.415 . S
C605 H581 0.951 . S
C605 C606 1.366 . S
C605 C607 1.388 . S
C606 C605 1.366 . S
C606 C610 1.385 . S
C607 H582 0.951 . S
C607 C605 1.388 . S
C607 C608 1.366 . S
C608 C607 1.366 . S
C608 C609 1.414 . S
C608 C611 1.499 . S
C609 H583 0.950 . S
C609 C608 1.414 . S
C609 C610 1.374 . S
C610 H584 0.950 . S
C610 C606 1.385 . S
C610 C609 1.374 . S
C611 C608 1.499 . S
C611 C612 1.373 1_655 S
C611 C613 1.389 . S
C612 H585 0.950 . S
C612 C598 1.377 . S
C612 C611 1.373 1_455 S
C613 C597 1.377 . S
C613 C611 1.389 . S
C613 C614 1.524 . S
C614 C613 1.524 . S
C614 C615 1.397 . S
C614 C619 1.363 . S
C615 H586 0.950 . S
C615 C614 1.397 . S
C615 C616 1.334 . S
C616 H587 0.950 . S
C616 C615 1.334 . S
C616 C617 1.287 . S
C617 C616 1.287 . S
C617 C618 1.524 . S
C617 H620 0.999 . S
C618 H588 0.950 . S
C618 C617 1.524 . S
C618 C619 1.415 . S
C619 H589 0.950 . S
C619 C614 1.363 . S
C619 C618 1.415 . S
H620 C617 0.999 . S
H621 C602 0.913 . S
H622 C640 0.951 . S
H623 C642 0.951 . S
H624 C644 0.950 . S
H625 C645 0.950 . S
H626 C647 0.950 . S
H627 C650 0.950 1_455 S
H628 C651 0.946 1_455 S
H629 C653 0.950 . S
H630 C654 0.950 . S
H631 C655 0.951 . S
H632 C657 0.951 . S
H633 C659 0.950 . S
H634 C660 0.950 . S
H635 C662 0.950 . S
H636 C665 0.950 1_655 S
H637 C666 0.946 1_655 S
H638 C668 0.950 . S
H639 C669 0.950 . S
C640 H622 0.951 . S
C640 C641 1.366 . S
C640 C642 1.388 . S
C641 C640 1.366 . S
C641 C645 1.385 . S
C642 H623 0.951 . S
C642 C640 1.388 . S
C642 C643 1.366 . S
C643 C642 1.366 . S
C643 C644 1.414 . S
C643 C646 1.499 . S
C644 H624 0.950 . S
C644 C643 1.414 . S
C644 C645 1.374 . S
C645 H625 0.950 . S
C645 C641 1.385 . S
C645 C644 1.374 . S
C646 C643 1.499 . S
C646 C647 1.373 . S
C646 C648 1.389 1_455 S
C647 H626 0.950 . S
C647 C646 1.373 . S
C647 C663 1.377 . S
C648 C646 1.389 1_655 S
C648 C649 1.524 . S
C648 C662 1.377 . S
C649 C648 1.524 . S
C649 C650 1.397 . S
C649 C654 1.363 . S
C650 H627 0.950 1_655 S
C650 C649 1.397 . S
C650 C651 1.334 . S
C651 H628 0.946 1_655 S
C651 C650 1.334 . S
C651 C652 1.287 . S
C652 C651 1.287 . S
C652 C653 1.524 . S
C652 H671 0.913 . S
C653 H629 0.950 . S
C653 C652 1.524 . S
C653 C654 1.415 . S
C654 H630 0.950 . S
C654 C649 1.363 . S
C654 C653 1.415 . S
C655 H631 0.951 . S
C655 C656 1.366 . S
C655 C657 1.388 . S
C656 C655 1.366 . S
C656 C660 1.385 . S
C657 H632 0.951 . S
C657 C655 1.388 . S
C657 C658 1.366 . S
C658 C657 1.366 . S
C658 C659 1.414 . S
C658 C661 1.499 . S
C659 H633 0.950 . S
C659 C658 1.414 . S
C659 C660 1.374 . S
C660 H634 0.950 . S
C660 C656 1.385 . S
C660 C659 1.374 . S
C661 C658 1.499 . S
C661 C662 1.373 . S
C661 C663 1.389 1_655 S
C662 H635 0.950 . S
C662 C648 1.377 . S
C662 C661 1.373 . S
C663 C647 1.377 . S
C663 C661 1.389 1_455 S
C663 C664 1.524 . S
C664 C663 1.524 . S
C664 C665 1.397 . S
C664 C669 1.363 . S
C665 H636 0.950 1_455 S
C665 C664 1.397 . S
C665 C666 1.334 . S
C666 H637 0.946 1_455 S
C666 C665 1.334 . S
C666 C667 1.287 . S
C667 C666 1.287 . S
C667 C668 1.524 . S
C667 H670 0.999 . S
C668 H638 0.950 . S
C668 C667 1.524 . S
C668 C669 1.415 . S
C669 H639 0.950 . S
C669 C664 1.363 . S
C669 C668 1.415 . S
H670 C667 0.999 . S
H671 C652 0.913 . S
H672 C690 0.951 . S
H673 C692 0.951 . S
H674 C694 0.950 . S
H675 C695 0.950 . S
H676 C697 0.950 . S
H677 C700 0.950 . S
H678 C701 0.950 . S
H679 C703 0.950 . S
H680 C704 0.950 . S
H681 C705 0.951 . S
H682 C707 0.951 1_565 S
H683 C709 0.950 . S
H684 C710 0.950 . S
H685 C712 0.950 . S
H686 C715 0.950 . S
H687 C716 0.950 . S
H688 C718 0.950 . S
H689 C719 0.950 . S
C690 H672 0.951 . S
C690 C691 1.366 . S
C690 C692 1.388 . S
C691 C690 1.366 . S
C691 C695 1.385 . S
C692 H673 0.951 . S
C692 C690 1.388 . S
C692 C693 1.366 . S
C693 C692 1.366 . S
C693 C694 1.414 . S
C693 C696 1.499 . S
C694 H674 0.950 . S
C694 C693 1.414 . S
C694 C695 1.374 . S
C695 H675 0.950 . S
C695 C691 1.385 . S
C695 C694 1.374 . S
C696 C693 1.499 . S
C696 C697 1.373 . S
C696 C698 1.389 . S
C697 H676 0.950 . S
C697 C696 1.373 . S
C697 C713 1.377 . S
C698 C696 1.389 . S
C698 C699 1.524 . S
C698 C712 1.377 . S
C699 C698 1.524 . S
C699 C700 1.397 . S
C699 C704 1.363 . S
C700 H677 0.950 . S
C700 C699 1.397 . S
C700 C701 1.334 . S
C701 H678 0.950 . S
C701 C700 1.334 . S
C701 C702 1.287 . S
C702 C701 1.287 . S
C702 C703 1.524 . S
C702 H721 0.913 . S
C703 H679 0.950 . S
C703 C702 1.524 . S
C703 C704 1.415 . S
C704 H680 0.950 . S
C704 C699 1.363 . S
C704 C703 1.415 . S
C705 H681 0.951 . S
C705 C706 1.366 . S
C705 C707 1.388 . S
C706 C705 1.366 . S
C706 C710 1.385 . S
C707 H682 0.951 1_545 S
C707 C705 1.388 . S
C707 C708 1.366 . S
C708 C707 1.366 . S
C708 C709 1.414 . S
C708 C711 1.499 1_545 S
C709 H683 0.950 . S
C709 C708 1.414 . S
C709 C710 1.374 . S
C710 H684 0.950 . S
C710 C706 1.385 . S
C710 C709 1.374 . S
C711 C708 1.499 1_565 S
C711 C712 1.373 . S
C711 C713 1.389 . S
C712 H685 0.950 . S
C712 C698 1.377 . S
C712 C711 1.373 . S
C713 C697 1.377 . S
C713 C711 1.389 . S
C713 C714 1.524 . S
C714 C713 1.524 . S
C714 C715 1.397 . S
C714 C719 1.363 . S
C715 H686 0.950 . S
C715 C714 1.397 . S
C715 C716 1.334 . S
C716 H687 0.950 . S
C716 C715 1.334 . S
C716 C717 1.287 . S
C717 C716 1.287 . S
C717 C718 1.524 . S
C717 H720 0.999 . S
C718 H688 0.950 . S
C718 C717 1.524 . S
C718 C719 1.415 . S
C719 H689 0.950 . S
C719 C714 1.363 . S
C719 C718 1.415 . S
H720 C717 0.999 . S
H721 C702 0.913 . S
H722 C740 0.951 . S
H723 C742 0.951 1_565 S
H724 C744 0.950 . S
H725 C745 0.950 . S
H726 C747 0.950 . S
H727 C750 0.950 . S
H728 C751 0.950 . S
H729 C753 0.950 . S
H730 C754 0.950 . S
H731 C755 0.951 . S
H732 C757 0.951 . S
H733 C759 0.950 . S
H734 C760 0.950 . S
H735 C762 0.950 . S
H736 C765 0.950 . S
H737 C766 0.950 . S
H738 C768 0.950 . S
H739 C769 0.950 . S
C740 H722 0.951 . S
C740 C741 1.366 . S
C740 C742 1.388 . S
C741 C740 1.366 . S
C741 C745 1.385 . S
C742 H723 0.951 1_545 S
C742 C740 1.388 . S
C742 C743 1.366 . S
C743 C742 1.366 . S
C743 C744 1.414 . S
C743 C746 1.499 1_545 S
C744 H724 0.950 . S
C744 C743 1.414 . S
C744 C745 1.374 . S
C745 H725 0.950 . S
C745 C741 1.385 . S
C745 C744 1.374 . S
C746 C743 1.499 1_565 S
C746 C747 1.373 . S
C746 C748 1.389 . S
C747 H726 0.950 . S
C747 C746 1.373 . S
C747 C763 1.377 . S
C748 C746 1.389 . S
C748 C749 1.524 . S
C748 C762 1.377 . S
C749 C748 1.524 . S
C749 C750 1.397 . S
C749 C754 1.363 . S
C750 H727 0.950 . S
C750 C749 1.397 . S
C750 C751 1.334 . S
C751 H728 0.950 . S
C751 C750 1.334 . S
C751 C752 1.287 . S
C752 C751 1.287 . S
C752 C753 1.524 . S
C752 H771 0.913 . S
C753 H729 0.950 . S
C753 C752 1.524 . S
C753 C754 1.415 . S
C754 H730 0.950 . S
C754 C749 1.363 . S
C754 C753 1.415 . S
C755 H731 0.951 . S
C755 C756 1.366 . S
C755 C757 1.388 . S
C756 C755 1.366 . S
C756 C760 1.385 . S
C757 H732 0.951 . S
C757 C755 1.388 . S
C757 C758 1.366 . S
C758 C757 1.366 . S
C758 C759 1.414 . S
C758 C761 1.499 . S
C759 H733 0.950 . S
C759 C758 1.414 . S
C759 C760 1.374 . S
C760 H734 0.950 . S
C760 C756 1.385 . S
C760 C759 1.374 . S
C761 C758 1.499 . S
C761 C762 1.373 . S
C761 C763 1.389 . S
C762 H735 0.950 . S
C762 C748 1.377 . S
C762 C761 1.373 . S
C763 C747 1.377 . S
C763 C761 1.389 . S
C763 C764 1.524 . S
C764 C763 1.524 . S
C764 C765 1.397 . S
C764 C769 1.363 . S
C765 H736 0.950 . S
C765 C764 1.397 . S
C765 C766 1.334 . S
C766 H737 0.950 . S
C766 C765 1.334 . S
C766 C767 1.287 . S
C767 C766 1.287 . S
C767 C768 1.524 . S
C767 H770 0.999 . S
C768 H738 0.950 . S
C768 C767 1.524 . S
C768 C769 1.415 . S
C769 H739 0.950 . S
C769 C764 1.363 . S
C769 C768 1.415 . S
H770 C767 0.999 . S
H771 C752 0.913 . S
H772 C790 0.951 . S
H773 C792 0.951 . S
H774 C794 0.950 . S
H775 C795 0.950 . S
H776 C797 0.950 . S
H777 C800 0.950 . S
H778 C801 0.950 . S
H779 C803 0.950 . S
H780 C804 0.950 . S
H781 C805 0.951 . S
H782 C807 0.951 . S
H783 C809 0.950 . S
H784 C810 0.950 . S
H785 C812 0.950 . S
H786 C815 0.950 . S
H787 C816 0.950 . S
H788 C818 0.950 . S
H789 C819 0.950 . S
C790 H772 0.951 . S
C790 C791 1.366 . S
C790 C792 1.388 . S
C791 C790 1.366 . S
C791 C795 1.385 . S
C792 H773 0.951 . S
C792 C790 1.388 . S
C792 C793 1.366 . S
C793 C792 1.366 . S
C793 C794 1.414 . S
C793 C796 1.499 1_565 S
C794 H774 0.950 . S
C794 C793 1.414 . S
C794 C795 1.374 . S
C795 H775 0.950 . S
C795 C791 1.385 . S
C795 C794 1.374 . S
C796 C793 1.499 1_545 S
C796 C797 1.373 . S
C796 C798 1.389 . S
C797 H776 0.950 . S
C797 C796 1.373 . S
C797 C813 1.377 . S
C798 C796 1.389 . S
C798 C799 1.524 . S
C798 C812 1.377 . S
C799 C798 1.524 . S
C799 C800 1.397 . S
C799 C804 1.363 . S
C800 H777 0.950 . S
C800 C799 1.397 . S
C800 C801 1.334 . S
C801 H778 0.950 . S
C801 C800 1.334 . S
C801 C802 1.287 . S
C802 C801 1.287 . S
C802 C803 1.524 . S
C802 H821 0.913 . S
C803 H779 0.950 . S
C803 C802 1.524 . S
C803 C804 1.415 . S
C804 H780 0.950 . S
C804 C799 1.363 . S
C804 C803 1.415 . S
C805 H781 0.951 . S
C805 C806 1.366 . S
C805 C807 1.388 . S
C806 C805 1.366 . S
C806 C810 1.385 . S
C807 H782 0.951 . S
C807 C805 1.388 . S
C807 C808 1.366 . S
C808 C807 1.366 . S
C808 C809 1.414 . S
C808 C811 1.499 . S
C809 H783 0.950 . S
C809 C808 1.414 . S
C809 C810 1.374 . S
C810 H784 0.950 . S
C810 C806 1.385 . S
C810 C809 1.374 . S
C811 C808 1.499 . S
C811 C812 1.373 . S
C811 C813 1.389 . S
C812 H785 0.950 . S
C812 C798 1.377 . S
C812 C811 1.373 . S
C813 C797 1.377 . S
C813 C811 1.389 . S
C813 C814 1.524 . S
C814 C813 1.524 . S
C814 C815 1.397 . S
C814 C819 1.363 . S
C815 H786 0.950 . S
C815 C814 1.397 . S
C815 C816 1.334 . S
C816 H787 0.950 . S
C816 C815 1.334 . S
C816 C817 1.287 . S
C817 C816 1.287 . S
C817 C818 1.524 . S
C817 H820 0.999 . S
C818 H788 0.950 . S
C818 C817 1.524 . S
C818 C819 1.415 . S
C819 H789 0.950 . S
C819 C814 1.363 . S
C819 C818 1.415 . S
H820 C817 0.999 . S
H821 C802 0.913 . S
H822 C840 0.951 . S
H823 C842 0.951 . S
H824 C844 0.950 . S
H825 C845 0.950 . S
H826 C847 0.950 . S
H827 C850 0.950 . S
H828 C851 0.950 . S
H829 C853 0.950 . S
H830 C854 0.950 . S
H831 C855 0.951 . S
H832 C857 0.951 1_545 S
H833 C859 0.950 . S
H834 C860 0.950 . S
H835 C862 0.950 . S
H836 C865 0.950 . S
H837 C866 0.950 . S
H838 C868 0.950 . S
H839 C869 0.950 . S
C840 H822 0.951 . S
C840 C841 1.366 . S
C840 C842 1.388 . S
C841 C840 1.366 . S
C841 C845 1.385 . S
C842 H823 0.951 . S
C842 C840 1.388 . S
C842 C843 1.366 . S
C843 C842 1.366 . S
C843 C844 1.414 . S
C843 C846 1.499 . S
C844 H824 0.950 . S
C844 C843 1.414 . S
C844 C845 1.374 . S
C845 H825 0.950 . S
C845 C841 1.385 . S
C845 C844 1.374 . S
C846 C843 1.499 . S
C846 C847 1.373 . S
C846 C848 1.389 . S
C847 H826 0.950 . S
C847 C846 1.373 . S
C847 C863 1.377 . S
C848 C846 1.389 . S
C848 C849 1.524 . S
C848 C862 1.377 . S
C849 C848 1.524 . S
C849 C850 1.397 . S
C849 C854 1.363 . S
C850 H827 0.950 . S
C850 C849 1.397 . S
C850 C851 1.334 . S
C851 H828 0.950 . S
C851 C850 1.334 . S
C851 C852 1.287 . S
C852 C851 1.287 . S
C852 C853 1.524 . S
C852 H871 0.913 . S
C853 H829 0.950 . S
C853 C852 1.524 . S
C853 C854 1.415 . S
C854 H830 0.950 . S
C854 C849 1.363 . S
C854 C853 1.415 . S
C855 H831 0.951 . S
C855 C856 1.366 . S
C855 C857 1.388 . S
C856 C855 1.366 . S
C856 C860 1.385 . S
C857 H832 0.951 1_565 S
C857 C855 1.388 . S
C857 C858 1.366 . S
C858 C857 1.366 . S
C858 C859 1.414 . S
C858 C861 1.499 1_565 S
C859 H833 0.950 . S
C859 C858 1.414 . S
C859 C860 1.374 . S
C860 H834 0.950 . S
C860 C856 1.385 . S
C860 C859 1.374 . S
C861 C858 1.499 1_545 S
C861 C862 1.373 . S
C861 C863 1.389 . S
C862 H835 0.950 . S
C862 C848 1.377 . S
C862 C861 1.373 . S
C863 C847 1.377 . S
C863 C861 1.389 . S
C863 C864 1.524 . S
C864 C863 1.524 . S
C864 C865 1.397 1_545 S
C864 C869 1.363 . S
C865 H836 0.950 . S
C865 C864 1.397 1_565 S
C865 C866 1.334 . S
C866 H837 0.950 . S
C866 C865 1.334 . S
C866 C867 1.287 . S
C867 C866 1.287 . S
C867 C868 1.524 1_565 S
C867 H870 0.999 . S
C868 H838 0.950 . S
C868 C867 1.524 1_545 S
C868 C869 1.415 . S
C869 H839 0.950 . S
C869 C864 1.363 . S
C869 C868 1.415 . S
H870 C867 0.999 . S
H871 C852 0.913 . S
H872 C890 0.951 . S
H873 C892 0.951 . S
H874 C894 0.950 . S
H875 C895 0.950 . S
H876 C897 0.950 . S
H877 C900 0.950 . S
H878 C901 0.950 . S
H879 C903 0.950 . S
H880 C904 0.950 . S
H881 C905 0.951 . S
H882 C907 0.951 . S
H883 C909 0.950 . S
H884 C910 0.950 . S
H885 C912 0.950 . S
H886 C915 0.950 . S
H887 C916 0.950 . S
H888 C918 0.950 . S
H889 C919 0.950 . S
C890 H872 0.951 . S
C890 C891 1.366 . S
C890 C892 1.388 . S
C891 C890 1.366 . S
C891 C895 1.385 . S
C892 H873 0.951 . S
C892 C890 1.388 . S
C892 C893 1.366 . S
C893 C892 1.366 . S
C893 C894 1.414 . S
C893 C896 1.499 . S
C894 H874 0.950 . S
C894 C893 1.414 . S
C894 C895 1.374 . S
C895 H875 0.950 . S
C895 C891 1.385 . S
C895 C894 1.374 . S
C896 C893 1.499 . S
C896 C897 1.373 . S
C896 C898 1.389 . S
C897 H876 0.950 . S
C897 C896 1.373 . S
C897 C913 1.377 . S
C898 C896 1.389 . S
C898 C899 1.524 . S
C898 C912 1.377 . S
C899 C898 1.524 . S
C899 C900 1.397 . S
C899 C904 1.363 . S
C900 H877 0.950 . S
C900 C899 1.397 . S
C900 C901 1.334 . S
C901 H878 0.950 . S
C901 C900 1.334 . S
C901 C902 1.287 . S
C902 C901 1.287 . S
C902 C903 1.524 . S
C902 H921 0.913 . S
C903 H879 0.950 . S
C903 C902 1.524 . S
C903 C904 1.415 . S
C904 H880 0.950 . S
C904 C899 1.363 . S
C904 C903 1.415 . S
C905 H881 0.951 . S
C905 C906 1.366 . S
C905 C907 1.388 . S
C906 C905 1.366 . S
C906 C910 1.385 . S
C907 H882 0.951 . S
C907 C905 1.388 . S
C907 C908 1.366 . S
C908 C907 1.366 . S
C908 C909 1.414 . S
C908 C911 1.499 . S
C909 H883 0.950 . S
C909 C908 1.414 . S
C909 C910 1.374 . S
C910 H884 0.950 . S
C910 C906 1.385 . S
C910 C909 1.374 . S
C911 C908 1.499 . S
C911 C912 1.373 . S
C911 C913 1.389 . S
C912 H885 0.950 . S
C912 C898 1.377 . S
C912 C911 1.373 . S
C913 C897 1.377 . S
C913 C911 1.389 . S
C913 C914 1.524 . S
C914 C913 1.524 . S
C914 C915 1.397 . S
C914 C919 1.363 . S
C915 H886 0.950 . S
C915 C914 1.397 . S
C915 C916 1.334 . S
C916 H887 0.950 . S
C916 C915 1.334 . S
C916 C917 1.287 . S
C917 C916 1.287 . S
C917 C918 1.524 . S
C917 H920 0.999 . S
C918 H888 0.950 . S
C918 C917 1.524 . S
C918 C919 1.415 . S
C919 H889 0.950 . S
C919 C914 1.363 . S
C919 C918 1.415 . S
H920 C917 0.999 . S
H921 C902 0.913 . S
H922 C940 0.951 . S
H923 C942 0.951 . S
H924 C944 0.950 . S
H925 C945 0.950 . S
H926 C947 0.950 . S
H927 C950 0.950 . S
H928 C951 0.950 . S
H929 C953 0.950 . S
H930 C954 0.950 . S
H931 C955 0.951 . S
H932 C957 0.951 . S
H933 C959 0.950 . S
H934 C960 0.950 . S
H935 C962 0.950 . S
H936 C965 0.950 . S
H937 C966 0.950 . S
H938 C968 0.950 . S
H939 C969 0.950 . S
C940 H922 0.951 . S
C940 C941 1.366 . S
C940 C942 1.388 . S
C941 C940 1.366 . S
C941 C945 1.385 . S
C942 H923 0.951 . S
C942 C940 1.388 . S
C942 C943 1.366 . S
C943 C942 1.366 . S
C943 C944 1.414 . S
C943 C946 1.499 . S
C944 H924 0.950 . S
C944 C943 1.414 . S
C944 C945 1.374 . S
C945 H925 0.950 . S
C945 C941 1.385 . S
C945 C944 1.374 . S
C946 C943 1.499 . S
C946 C947 1.373 . S
C946 C948 1.389 . S
C947 H926 0.950 . S
C947 C946 1.373 . S
C947 C963 1.377 . S
C948 C946 1.389 . S
C948 C949 1.524 . S
C948 C962 1.377 . S
C949 C948 1.524 . S
C949 C950 1.397 . S
C949 C954 1.363 . S
C950 H927 0.950 . S
C950 C949 1.397 . S
C950 C951 1.334 . S
C951 H928 0.950 . S
C951 C950 1.334 . S
C951 C952 1.287 . S
C952 C951 1.287 . S
C952 C953 1.524 . S
C952 H971 0.913 . S
C953 H929 0.950 . S
C953 C952 1.524 . S
C953 C954 1.415 . S
C954 H930 0.950 . S
C954 C949 1.363 . S
C954 C953 1.415 . S
C955 H931 0.951 . S
C955 C956 1.366 . S
C955 C957 1.388 . S
C956 C955 1.366 . S
C956 C960 1.385 . S
C957 H932 0.951 . S
C957 C955 1.388 . S
C957 C958 1.366 . S
C958 C957 1.366 . S
C958 C959 1.414 . S
C958 C961 1.499 . S
C959 H933 0.950 . S
C959 C958 1.414 . S
C959 C960 1.374 . S
C960 H934 0.950 . S
C960 C956 1.385 . S
C960 C959 1.374 . S
C961 C958 1.499 . S
C961 C962 1.373 . S
C961 C963 1.389 . S
C962 H935 0.950 . S
C962 C948 1.377 . S
C962 C961 1.373 . S
C963 C947 1.377 . S
C963 C961 1.389 . S
C963 C964 1.524 . S
C964 C963 1.524 . S
C964 C965 1.397 . S
C964 C969 1.363 . S
C965 H936 0.950 . S
C965 C964 1.397 . S
C965 C966 1.334 . S
C966 H937 0.950 . S
C966 C965 1.334 . S
C966 C967 1.287 . S
C967 C966 1.287 . S
C967 C968 1.524 . S
C967 H970 0.999 . S
C968 H938 0.950 . S
C968 C967 1.524 . S
C968 C969 1.415 . S
C969 H939 0.950 . S
C969 C964 1.363 . S
C969 C968 1.415 . S
H970 C967 0.999 . S
H971 C952 0.913 . S
H972 C990 0.951 . S
H973 C992 0.951 . S
H974 C994 0.950 . S
H975 C995 0.950 . S
H976 C997 0.950 . S
H977 C1000 0.950 . S
H978 C1001 0.950 . S
H979 C1003 0.950 . S
H980 C1004 0.950 . S
H981 C1005 0.951 . S
H982 C1007 0.951 . S
H983 C1009 0.950 . S
H984 C1010 0.950 . S
H985 C1012 0.950 . S
H986 C1015 0.950 . S
H987 C1016 0.950 . S
H988 C1018 0.950 . S
H989 C1019 0.950 . S
C990 H972 0.951 . S
C990 C991 1.366 . S
C990 C992 1.388 . S
C991 C990 1.366 . S
C991 C995 1.385 . S
C992 H973 0.951 . S
C992 C990 1.388 . S
C992 C993 1.366 . S
C993 C992 1.366 . S
C993 C994 1.414 . S
C993 C996 1.499 . S
C994 H974 0.950 . S
C994 C993 1.414 . S
C994 C995 1.374 . S
C995 H975 0.950 . S
C995 C991 1.385 . S
C995 C994 1.374 . S
C996 C993 1.499 . S
C996 C997 1.373 . S
C996 C998 1.389 . S
C997 H976 0.950 . S
C997 C996 1.373 . S
C997 C1013 1.377 . S
C998 C996 1.389 . S
C998 C999 1.524 . S
C998 C1012 1.377 . S
C999 C998 1.524 . S
C999 C1000 1.397 . S
C999 C1004 1.363 . S
C1000 H977 0.950 . S
C1000 C999 1.397 . S
C1000 C1001 1.334 . S
C1001 H978 0.950 . S
C1001 C1000 1.334 . S
C1001 C1002 1.287 . S
C1002 C1001 1.287 . S
C1002 C1003 1.524 . S
C1002 H1021 0.913 . S
C1003 H979 0.950 . S
C1003 C1002 1.524 . S
C1003 C1004 1.415 . S
C1004 H980 0.950 . S
C1004 C999 1.363 . S
C1004 C1003 1.415 . S
C1005 H981 0.951 . S
C1005 C1006 1.366 . S
C1005 C1007 1.388 . S
C1006 C1005 1.366 . S
C1006 C1010 1.385 . S
C1007 H982 0.951 . S
C1007 C1005 1.388 . S
C1007 C1008 1.366 . S
C1008 C1007 1.366 . S
C1008 C1009 1.414 . S
C1008 C1011 1.499 . S
C1009 H983 0.950 . S
C1009 C1008 1.414 . S
C1009 C1010 1.374 . S
C1010 H984 0.950 . S
C1010 C1006 1.385 . S
C1010 C1009 1.374 . S
C1011 C1008 1.499 . S
C1011 C1012 1.373 . S
C1011 C1013 1.389 . S
C1012 H985 0.950 . S
C1012 C998 1.377 . S
C1012 C1011 1.373 . S
C1013 C997 1.377 . S
C1013 C1011 1.389 . S
C1013 C1014 1.524 . S
C1014 C1013 1.524 . S
C1014 C1015 1.397 . S
C1014 C1019 1.363 . S
C1015 H986 0.950 . S
C1015 C1014 1.397 . S
C1015 C1016 1.334 . S
C1016 H987 0.950 . S
C1016 C1015 1.334 . S
C1016 C1017 1.287 . S
C1017 C1016 1.287 . S
C1017 C1018 1.524 . S
C1017 H1020 0.999 . S
C1018 H988 0.950 . S
C1018 C1017 1.524 . S
C1018 C1019 1.415 . S
C1019 H989 0.950 . S
C1019 C1014 1.363 . S
C1019 C1018 1.415 . S
H1020 C1017 0.999 . S
H1021 C1002 0.913 . S
H1022 C1040 0.951 . S
H1023 C1042 0.951 . S
H1024 C1044 0.950 . S
H1025 C1045 0.950 . S
H1026 C1047 0.950 . S
H1027 C1050 0.950 . S
H1028 C1051 0.950 . S
H1029 C1053 0.950 . S
H1030 C1054 0.950 . S
H1031 C1055 0.951 . S
H1032 C1057 0.951 . S
H1033 C1059 0.950 . S
H1034 C1060 0.950 . S
H1035 C1062 0.950 . S
H1036 C1065 0.950 . S
H1037 C1066 0.950 . S
H1038 C1068 0.950 . S
H1039 C1069 0.950 . S
C1040 H1022 0.951 . S
C1040 C1041 1.366 . S
C1040 C1042 1.388 . S
C1041 C1040 1.366 . S
C1041 C1045 1.385 . S
C1042 H1023 0.951 . S
C1042 C1040 1.388 . S
C1042 C1043 1.366 . S
C1043 C1042 1.366 . S
C1043 C1044 1.414 . S
C1043 C1046 1.499 . S
C1044 H1024 0.950 . S
C1044 C1043 1.414 . S
C1044 C1045 1.374 . S
C1045 H1025 0.950 . S
C1045 C1041 1.385 . S
C1045 C1044 1.374 . S
C1046 C1043 1.499 . S
C1046 C1047 1.373 . S
C1046 C1048 1.389 . S
C1047 H1026 0.950 . S
C1047 C1046 1.373 . S
C1047 C1063 1.377 . S
C1048 C1046 1.389 . S
C1048 C1049 1.524 . S
C1048 C1062 1.377 . S
C1049 C1048 1.524 . S
C1049 C1050 1.397 . S
C1049 C1054 1.363 . S
C1050 H1027 0.950 . S
C1050 C1049 1.397 . S
C1050 C1051 1.334 . S
C1051 H1028 0.950 . S
C1051 C1050 1.334 . S
C1051 C1052 1.287 . S
C1052 C1051 1.287 . S
C1052 C1053 1.524 . S
C1052 H1071 0.913 . S
C1053 H1029 0.950 . S
C1053 C1052 1.524 . S
C1053 C1054 1.415 . S
C1054 H1030 0.950 . S
C1054 C1049 1.363 . S
C1054 C1053 1.415 . S
C1055 H1031 0.951 . S
C1055 C1056 1.366 . S
C1055 C1057 1.388 . S
C1056 C1055 1.366 . S
C1056 C1060 1.385 . S
C1057 H1032 0.951 . S
C1057 C1055 1.388 . S
C1057 C1058 1.366 . S
C1058 C1057 1.366 . S
C1058 C1059 1.414 . S
C1058 C1061 1.499 . S
C1059 H1033 0.950 . S
C1059 C1058 1.414 . S
C1059 C1060 1.374 . S
C1060 H1034 0.950 . S
C1060 C1056 1.385 . S
C1060 C1059 1.374 . S
C1061 C1058 1.499 . S
C1061 C1062 1.373 . S
C1061 C1063 1.389 . S
C1062 H1035 0.950 . S
C1062 C1048 1.377 . S
C1062 C1061 1.373 . S
C1063 C1047 1.377 . S
C1063 C1061 1.389 . S
C1063 C1064 1.524 . S
C1064 C1063 1.524 . S
C1064 C1065 1.397 . S
C1064 C1069 1.363 . S
C1065 H1036 0.950 . S
C1065 C1064 1.397 . S
C1065 C1066 1.334 . S
C1066 H1037 0.950 . S
C1066 C1065 1.334 . S
C1066 C1067 1.287 . S
C1067 C1066 1.287 . S
C1067 C1068 1.524 . S
C1067 H1070 0.999 . S
C1068 H1038 0.950 . S
C1068 C1067 1.524 . S
C1068 C1069 1.415 . S
C1069 H1039 0.950 . S
C1069 C1064 1.363 . S
C1069 C1068 1.415 . S
H1070 C1067 0.999 . S
H1071 C1052 0.913 . S
H1072 C1090 0.951 . S
H1073 C1092 0.951 . S
H1074 C1094 0.950 1_565 S
H1075 C1095 0.950 . S
H1076 C1097 0.950 . S
H1077 C1100 0.950 . S
H1078 C1101 0.950 . S
H1079 C1103 0.950 . S
H1080 C1104 0.950 . S
H1081 C1105 0.951 . S
H1082 C1107 0.951 . S
H1083 C1109 0.950 1_545 S
H1084 C1110 0.950 . S
H1085 C1112 0.950 . S
H1086 C1115 0.950 . S
H1087 C1116 0.950 . S
H1088 C1118 0.950 . S
H1089 C1119 0.950 . S
C1090 H1072 0.951 . S
C1090 C1091 1.366 . S
C1090 C1092 1.388 . S
C1091 C1090 1.366 . S
C1091 C1095 1.385 . S
C1092 H1073 0.951 . S
C1092 C1090 1.388 . S
C1092 C1093 1.366 . S
C1093 C1092 1.366 . S
C1093 C1094 1.414 . S
C1093 C1096 1.499 . S
C1094 H1074 0.950 1_545 S
C1094 C1093 1.414 . S
C1094 C1095 1.374 . S
C1095 H1075 0.950 . S
C1095 C1091 1.385 . S
C1095 C1094 1.374 . S
C1096 C1093 1.499 . S
C1096 C1097 1.373 1_545 S
C1096 C1098 1.389 . S
C1097 H1076 0.950 . S
C1097 C1096 1.373 1_565 S
C1097 C1113 1.377 . S
C1098 C1096 1.389 . S
C1098 C1099 1.524 . S
C1098 C1112 1.377 . S
C1099 C1098 1.524 . S
C1099 C1100 1.397 . S
C1099 C1104 1.363 . S
C1100 H1077 0.950 . S
C1100 C1099 1.397 . S
C1100 C1101 1.334 . S
C1101 H1078 0.950 . S
C1101 C1100 1.334 . S
C1101 C1102 1.287 . S
C1102 C1101 1.287 . S
C1102 C1103 1.524 . S
C1102 H1121 0.913 . S
C1103 H1079 0.950 . S
C1103 C1102 1.524 . S
C1103 C1104 1.415 . S
C1104 H1080 0.950 . S
C1104 C1099 1.363 . S
C1104 C1103 1.415 . S
C1105 H1081 0.951 . S
C1105 C1106 1.366 . S
C1105 C1107 1.388 . S
C1106 C1105 1.366 . S
C1106 C1110 1.385 . S
C1107 H1082 0.951 . S
C1107 C1105 1.388 . S
C1107 C1108 1.366 . S
C1108 C1107 1.366 . S
C1108 C1109 1.414 . S
C1108 C1111 1.499 . S
C1109 H1083 0.950 1_565 S
C1109 C1108 1.414 . S
C1109 C1110 1.374 . S
C1110 H1084 0.950 . S
C1110 C1106 1.385 . S
C1110 C1109 1.374 . S
C1111 C1108 1.499 . S
C1111 C1112 1.373 1_565 S
C1111 C1113 1.389 . S
C1112 H1085 0.950 . S
C1112 C1098 1.377 . S
C1112 C1111 1.373 1_545 S
C1113 C1097 1.377 . S
C1113 C1111 1.389 . S
C1113 C1114 1.524 . S
C1114 C1113 1.524 . S
C1114 C1115 1.397 . S
C1114 C1119 1.363 . S
C1115 H1086 0.950 . S
C1115 C1114 1.397 . S
C1115 C1116 1.334 . S
C1116 H1087 0.950 . S
C1116 C1115 1.334 . S
C1116 C1117 1.287 . S
C1117 C1116 1.287 . S
C1117 C1118 1.524 . S
C1117 H1120 0.999 . S
C1118 H1088 0.950 . S
C1118 C1117 1.524 . S
C1118 C1119 1.415 . S
C1119 H1089 0.950 . S
C1119 C1114 1.363 . S
C1119 C1118 1.415 . S
H1120 C1117 0.999 . S
H1121 C1102 0.913 . S
H1122 C1140 0.951 . S
H1123 C1142 0.951 1_565 S
H1124 C1144 0.950 . S
H1125 C1145 0.950 . S
H1126 C1147 0.950 . S
H1127 C1150 0.950 . S
H1128 C1151 0.950 . S
H1129 C1153 0.950 . S
H1130 C1154 0.950 . S
H1131 C1155 0.951 . S
H1132 C1157 0.951 1_545 S
H1133 C1159 0.950 . S
H1134 C1160 0.950 . S
H1135 C1162 0.950 . S
H1136 C1165 0.950 . S
H1137 C1166 0.950 . S
H1138 C1168 0.950 . S
H1139 C1169 0.950 . S
C1140 H1122 0.951 . S
C1140 C1141 1.366 . S
C1140 C1142 1.388 . S
C1141 C1140 1.366 . S
C1141 C1145 1.385 . S
C1142 H1123 0.951 1_545 S
C1142 C1140 1.388 . S
C1142 C1143 1.366 . S
C1143 C1142 1.366 . S
C1143 C1144 1.414 . S
C1143 C1146 1.499 . S
C1144 H1124 0.950 . S
C1144 C1143 1.414 . S
C1144 C1145 1.374 . S
C1145 H1125 0.950 . S
C1145 C1141 1.385 . S
C1145 C1144 1.374 . S
C1146 C1143 1.499 . S
C1146 C1147 1.373 . S
C1146 C1148 1.387 1_544 S
C1147 H1126 0.950 . S
C1147 C1146 1.373 . S
C1147 C1163 1.378 . S
C1148 C1146 1.387 1_566 S
C1148 C1149 1.525 . S
C1148 C1162 1.378 . S
C1149 C1148 1.525 . S
C1149 C1150 1.397 1_565 S
C1149 C1154 1.363 . S
C1150 H1127 0.950 . S
C1150 C1149 1.397 1_545 S
C1150 C1151 1.334 . S
C1151 H1128 0.950 . S
C1151 C1150 1.334 . S
C1151 C1152 1.287 1_545 S
C1152 C1151 1.287 1_565 S
C1152 C1153 1.524 . S
C1152 H1171 0.913 . S
C1153 H1129 0.950 . S
C1153 C1152 1.524 . S
C1153 C1154 1.415 . S
C1154 H1130 0.950 . S
C1154 C1149 1.363 . S
C1154 C1153 1.415 . S
C1155 H1131 0.951 . S
C1155 C1156 1.366 . S
C1155 C1157 1.388 . S
C1156 C1155 1.366 . S
C1156 C1160 1.385 . S
C1157 H1132 0.951 1_565 S
C1157 C1155 1.388 . S
C1157 C1158 1.366 . S
C1158 C1157 1.366 . S
C1158 C1159 1.414 . S
C1158 C1161 1.499 . S
C1159 H1133 0.950 . S
C1159 C1158 1.414 . S
C1159 C1160 1.374 . S
C1160 H1134 0.950 . S
C1160 C1156 1.385 . S
C1160 C1159 1.374 . S
C1161 C1158 1.499 . S
C1161 C1162 1.373 . S
C1161 C1163 1.387 1_566 S
C1162 H1135 0.950 . S
C1162 C1148 1.378 . S
C1162 C1161 1.373 . S
C1163 C1147 1.378 . S
C1163 C1161 1.387 1_544 S
C1163 C1164 1.525 . S
C1164 C1163 1.525 . S
C1164 C1165 1.397 1_545 S
C1164 C1169 1.363 . S
C1165 H1136 0.950 . S
C1165 C1164 1.397 1_565 S
C1165 C1166 1.334 . S
C1166 H1137 0.950 . S
C1166 C1165 1.334 . S
C1166 C1167 1.287 1_565 S
C1167 C1166 1.287 1_545 S
C1167 C1168 1.524 . S
C1167 H1170 0.999 . S
C1168 H1138 0.950 . S
C1168 C1167 1.524 . S
C1168 C1169 1.415 . S
C1169 H1139 0.950 . S
C1169 C1164 1.363 . S
C1169 C1168 1.415 . S
H1170 C1167 0.999 . S
H1171 C1152 0.913 . S
H1172 C1190 0.951 . S
H1173 C1192 0.951 . S
H1174 C1194 0.950 . S
H1175 C1195 0.950 . S
H1176 C1197 0.950 . S
H1177 C1200 0.950 . S
H1178 C1201 0.950 . S
H1179 C1203 0.924 1_655 S
H1180 C1204 0.950 . S
H1181 C1205 0.951 . S
H1182 C1207 0.951 . S
H1183 C1209 0.950 . S
H1184 C1210 0.950 . S
H1185 C1212 0.950 . S
H1186 C1215 0.950 . S
H1187 C1216 0.950 . S
H1188 C1218 0.924 1_455 S
H1189 C1219 0.950 . S
C1190 H1172 0.951 . S
C1190 C1191 1.366 . S
C1190 C1192 1.388 . S
C1191 C1190 1.366 . S
C1191 C1195 1.385 . S
C1192 H1173 0.951 . S
C1192 C1190 1.388 . S
C1192 C1193 1.366 . S
C1193 C1192 1.366 . S
C1193 C1194 1.414 . S
C1193 C1196 1.499 . S
C1194 H1174 0.950 . S
C1194 C1193 1.414 . S
C1194 C1195 1.374 . S
C1195 H1175 0.950 . S
C1195 C1191 1.385 . S
C1195 C1194 1.374 . S
C1196 C1193 1.499 . S
C1196 C1197 1.373 . S
C1196 C1198 1.389 . S
C1197 H1176 0.950 . S
C1197 C1196 1.373 . S
C1197 C1213 1.377 1_455 S
C1198 C1196 1.389 . S
C1198 C1199 1.524 . S
C1198 C1212 1.377 1_455 S
C1199 C1198 1.524 . S
C1199 C1200 1.397 . S
C1199 C1204 1.363 1_455 S
C1200 H1177 0.950 . S
C1200 C1199 1.397 . S
C1200 C1201 1.334 . S
C1201 H1178 0.950 . S
C1201 C1200 1.334 . S
C1201 C1202 1.287 . S
C1202 C1201 1.287 . S
C1202 C1203 1.566 . S
C1202 H1221 0.913 . S
C1203 H1179 0.924 1_455 S
C1203 C1202 1.566 . S
C1203 C1204 1.403 1_455 S
C1204 H1180 0.950 . S
C1204 C1199 1.363 1_655 S
C1204 C1203 1.403 1_655 S
C1205 H1181 0.951 . S
C1205 C1206 1.366 . S
C1205 C1207 1.388 . S
C1206 C1205 1.366 . S
C1206 C1210 1.385 . S
C1207 H1182 0.951 . S
C1207 C1205 1.388 . S
C1207 C1208 1.366 . S
C1208 C1207 1.366 . S
C1208 C1209 1.414 . S
C1208 C1211 1.499 . S
C1209 H1183 0.950 . S
C1209 C1208 1.414 . S
C1209 C1210 1.374 . S
C1210 H1184 0.950 . S
C1210 C1206 1.385 . S
C1210 C1209 1.374 . S
C1211 C1208 1.499 . S
C1211 C1212 1.373 . S
C1211 C1213 1.389 . S
C1212 H1185 0.950 . S
C1212 C1198 1.377 1_655 S
C1212 C1211 1.373 . S
C1213 C1197 1.377 1_655 S
C1213 C1211 1.389 . S
C1213 C1214 1.524 . S
C1214 C1213 1.524 . S
C1214 C1215 1.397 . S
C1214 C1219 1.363 1_655 S
C1215 H1186 0.950 . S
C1215 C1214 1.397 . S
C1215 C1216 1.334 . S
C1216 H1187 0.950 . S
C1216 C1215 1.334 . S
C1216 C1217 1.287 . S
C1217 C1216 1.287 . S
C1217 C1218 1.566 . S
C1217 H1220 0.999 . S
C1218 H1188 0.924 1_655 S
C1218 C1217 1.566 . S
C1218 C1219 1.403 1_655 S
C1219 H1189 0.950 . S
C1219 C1214 1.363 1_455 S
C1219 C1218 1.403 1_455 S
H1220 C1217 0.999 . S
H1221 C1202 0.913 . S
H1222 C1240 0.951 . S
H1223 C1242 0.951 . S
H1224 C1244 0.950 . S
H1225 C1245 0.950 . S
H1226 C1247 0.950 . S
H1227 C1250 0.950 . S
H1228 C1251 0.950 . S
H1229 C1253 0.950 . S
H1230 C1254 0.950 . S
H1231 C1255 0.951 . S
H1232 C1257 0.951 . S
H1233 C1259 0.950 . S
H1234 C1260 0.950 . S
H1235 C1262 0.950 . S
H1236 C1265 0.950 . S
H1237 C1266 0.950 . S
H1238 C1268 0.950 . S
H1239 C1269 0.950 . S
C1240 H1222 0.951 . S
C1240 C1241 1.366 . S
C1240 C1242 1.388 . S
C1241 C1240 1.366 . S
C1241 C1245 1.385 . S
C1242 H1223 0.951 . S
C1242 C1240 1.388 . S
C1242 C1243 1.366 . S
C1243 C1242 1.366 . S
C1243 C1244 1.414 . S
C1243 C1246 1.499 . S
C1244 H1224 0.950 . S
C1244 C1243 1.414 . S
C1244 C1245 1.374 . S
C1245 H1225 0.950 . S
C1245 C1241 1.385 . S
C1245 C1244 1.374 . S
C1246 C1243 1.499 . S
C1246 C1247 1.373 1_455 S
C1246 C1248 1.389 1_554 S
C1247 H1226 0.950 . S
C1247 C1246 1.373 1_655 S
C1247 C1263 1.377 . S
C1248 C1246 1.389 1_556 S
C1248 C1249 1.524 . S
C1248 C1262 1.377 . S
C1249 C1248 1.524 . S
C1249 C1250 1.397 . S
C1249 C1254 1.363 . S
C1250 H1227 0.950 . S
C1250 C1249 1.397 . S
C1250 C1251 1.334 . S
C1251 H1228 0.950 . S
C1251 C1250 1.334 . S
C1251 C1252 1.287 . S
C1252 C1251 1.287 . S
C1252 C1253 1.524 . S
C1252 H1271 0.913 . S
C1253 H1229 0.950 . S
C1253 C1252 1.524 . S
C1253 C1254 1.415 . S
C1254 H1230 0.950 . S
C1254 C1249 1.363 . S
C1254 C1253 1.415 . S
C1255 H1231 0.951 . S
C1255 C1256 1.366 . S
C1255 C1257 1.388 . S
C1256 C1255 1.366 . S
C1256 C1260 1.385 . S
C1257 H1232 0.951 . S
C1257 C1255 1.388 . S
C1257 C1258 1.366 . S
C1258 C1257 1.366 . S
C1258 C1259 1.414 . S
C1258 C1261 1.499 . S
C1259 H1233 0.950 . S
C1259 C1258 1.414 . S
C1259 C1260 1.374 . S
C1260 H1234 0.950 . S
C1260 C1256 1.385 . S
C1260 C1259 1.374 . S
C1261 C1258 1.499 . S
C1261 C1262 1.373 1_655 S
C1261 C1263 1.389 1_556 S
C1262 H1235 0.950 . S
C1262 C1248 1.377 . S
C1262 C1261 1.373 1_455 S
C1263 C1247 1.377 . S
C1263 C1261 1.389 1_554 S
C1263 C1264 1.524 . S
C1264 C1263 1.524 . S
C1264 C1265 1.397 . S
C1264 C1269 1.363 . S
C1265 H1236 0.950 . S
C1265 C1264 1.397 . S
C1265 C1266 1.334 . S
C1266 H1237 0.950 . S
C1266 C1265 1.334 . S
C1266 C1267 1.287 . S
C1267 C1266 1.287 . S
C1267 C1268 1.524 . S
C1267 H1270 0.999 . S
C1268 H1238 0.950 . S
C1268 C1267 1.524 . S
C1268 C1269 1.415 . S
C1269 H1239 0.950 . S
C1269 C1264 1.363 . S
C1269 C1268 1.415 . S
H1270 C1267 0.999 . S
H1271 C1252 0.913 . S
C291 C224 1.215 . S
C306 C20 1.215 . S
C341 C54 1.215 . S
C356 C258 1.215 . S
C391 C88 1.215 . S
C406 C156 1.215 . S
C441 C122 1.215 . S
C456 C190 1.215 . S
C491 C36 1.610 . S
C506 C2 1.610 . S
C541 C70 1.610 . S
C556 C104 1.610 . S
C591 C172 1.610 . S
C606 C138 1.610 . S
C641 C206 1.610 . S
C656 C240 1.610 . S
C691 C179 1.520 . S
C706 C33 1.561 . S
C741 C67 1.561 . S
C756 C145 1.520 . S
C791 C101 1.561 . S
C806 C247 1.520 . S
C841 C213 1.520 . S
C856 C135 1.561 . S
C891 C169 1.561 . S
C906 C43 1.520 . S
C941 C203 1.561 . S
C956 C9 1.520 . S
C991 C237 1.561 . S
C1006 C111 1.520 . S
C1041 C77 1.520 . S
C1056 C271 1.561 . S
C1091 C5 1.589 . S
C1106 C73 1.589 . S
C1141 C39 1.589 . S
C1156 C107 1.589 . S
C1191 C209 1.589 . S
C1206 C141 1.589 . S
C1241 C175 1.589 . S
C1256 C243 1.589 . S
