# Generated by pormake.
# Topology mmt, (4)-cn, num edge types: 1
# Building blocks:
#     Node 0, Type 0, BuildingBlock: QUQFOY_clean_sbu_3, # of connection points: 4
#     Node 1, Type 0, BuildingBlock: QUQFOY_clean_sbu_3, # of connection points: 4
#     Node 2, Type 0, BuildingBlock: QUQFOY_clean_sbu_3, # of connection points: 4
#     Node 3, Type 0, BuildingBlock: QUQFOY_clean_sbu_3, # of connection points: 4
#     Node 4, Type 0, BuildingBlock: QUQFOY_clean_sbu_3, # of connection points: 4
#     Node 5, Type 0, BuildingBlock: QUQFOY_clean_sbu_3, # of connection points: 4
#     Node 6, Type 0, BuildingBlock: QUQFOY_clean_sbu_3, # of connection points: 4
#     Node 7, Type 0, BuildingBlock: QUQFOY_clean_sbu_3, # of connection points: 4
#     Edge 8, Type (0, 0), BuildingBlock: UVAHIK_clean_linker_0, # of connection points: 2
#     Edge 9, Type (0, 0), BuildingBlock: UVAHIK_clean_linker_0, # of connection points: 2
#     Edge 10, Type (0, 0), BuildingBlock: UVAHIK_clean_linker_0, # of connection points: 2
#     Edge 11, Type (0, 0), BuildingBlock: UVAHIK_clean_linker_0, # of connection points: 2
#     Edge 12, Type (0, 0), BuildingBlock: UVAHIK_clean_linker_0, # of connection points: 2
#     Edge 13, Type (0, 0), BuildingBlock: UVAHIK_clean_linker_0, # of connection points: 2
#     Edge 14, Type (0, 0), BuildingBlock: UVAHIK_clean_linker_0, # of connection points: 2
#     Edge 15, Type (0, 0), BuildingBlock: UVAHIK_clean_linker_0, # of connection points: 2
#     Edge 16, Type (0, 0), BuildingBlock: UVAHIK_clean_linker_0, # of connection points: 2
#     Edge 17, Type (0, 0), BuildingBlock: UVAHIK_clean_linker_0, # of connection points: 2
#     Edge 18, Type (0, 0), BuildingBlock: UVAHIK_clean_linker_0, # of connection points: 2
#     Edge 19, Type (0, 0), BuildingBlock: UVAHIK_clean_linker_0, # of connection points: 2
#     Edge 20, Type (0, 0), BuildingBlock: UVAHIK_clean_linker_0, # of connection points: 2
#     Edge 21, Type (0, 0), BuildingBlock: UVAHIK_clean_linker_0, # of connection points: 2
#     Edge 22, Type (0, 0), BuildingBlock: UVAHIK_clean_linker_0, # of connection points: 2
#     Edge 23, Type (0, 0), BuildingBlock: UVAHIK_clean_linker_0, # of connection points: 2
# Relax obj value: 0.027
# Max RMSD: 0.041
# Mean RMSD: 0.041
data_MOF--net-mmt--node1-QUQFOY_clean_sbu_3--edge1-UVAHIK_clean_linker_0
_symmetry_space_group_name_H-M    P1
_symmetry_Int_Tables_number       1
_symmetry_cell_setting            triclinic
loop_
_symmetry_equiv_pos_as_xyz
'x, y, z'
_cell_length_a     29.039394
_cell_length_b     48.464559
_cell_length_c     58.916539
_cell_angle_alpha  89.996143
_cell_angle_beta   90.004866
_cell_angle_gamma 90.000901
loop_
_atom_site_label
_atom_site_type_symbol
_atom_site_fract_x
_atom_site_fract_y
_atom_site_fract_z
_atom_type_partial_charge
C0 C 0.06185 0.64657 0.3316 0.0
O1 O 0.03491 0.64602 0.31462 0.0
Cd2 Cd 0.99459 0.60579 0.3013 0.0
O3 O 0.06687 0.62526 0.34403 0.0
Cd4 Cd 0.03509 0.57772 0.34599 0.0
C5 C 0.08648 0.56135 0.29633 0.0
O6 O 0.95588 0.58381 0.33203 0.0
O7 O 0.98283 0.54233 0.33304 0.0
O8 O 0.02057 0.58044 0.38666 0.0
C9 C 0.94897 0.55815 0.32926 0.0
O10 O 0.05415 0.57489 0.28684 0.0
C11 C 0.04464 0.55946 0.39177 0.0
O12 O 0.09001 0.56053 0.31789 0.0
O13 O 0.06605 0.5477 0.37564 0.0
C14 C 0.4067 0.85774 0.32456 0.0
O15 O 0.43064 0.85698 0.30651 0.0
Cd16 Cd 0.48371 0.89166 0.29362 0.0
O17 O 0.41074 0.87779 0.33844 0.0
Cd18 Cd 0.45738 0.9208 0.34129 0.0
C19 C 0.41036 0.94717 0.29289 0.0
O20 O 0.53044 0.90414 0.32527 0.0
O21 O 0.52497 0.94782 0.33186 0.0
O22 O 0.46969 0.91543 0.38215 0.0
C23 C 0.54936 0.92773 0.32523 0.0
O24 O 0.43509 0.9301 0.28186 0.0
C25 C 0.45244 0.93869 0.38734 0.0
O26 O 0.4103 0.94724 0.31452 0.0
O27 O 0.4358 0.95292 0.3712 0.0
C28 C 0.56536 0.35216 0.1583 0.0
O29 O 0.53929 0.35107 0.17559 0.0
Cd30 Cd 0.49854 0.3901 0.19097 0.0
O31 O 0.56872 0.3744 0.14689 0.0
Cd32 Cd 0.53492 0.42138 0.14743 0.0
C33 C 0.58912 0.43523 0.19678 0.0
O34 O 0.45642 0.41374 0.16211 0.0
O35 O 0.48303 0.45536 0.16275 0.0
O36 O 0.51751 0.42053 0.10701 0.0
C37 C 0.44939 0.4392 0.16599 0.0
O38 O 0.55777 0.42072 0.20609 0.0
C39 C 0.54029 0.44213 0.1022 0.0
O40 O 0.59136 0.43749 0.17525 0.0
O41 O 0.56243 0.45342 0.11832 0.0
C42 C 0.90739 0.14239 0.16748 0.0
O43 O 0.93027 0.14451 0.18578 0.0
Cd44 Cd 0.98148 0.11007 0.20087 0.0
O45 O 0.91204 0.12129 0.15476 0.0
Cd46 Cd 0.95868 0.07825 0.15424 0.0
C47 C 0.90811 0.05453 0.20257 0.0
O48 O 0.03088 0.09583 0.17067 0.0
O49 O 0.02562 0.05182 0.16554 0.0
O50 O 0.9731 0.08256 0.11353 0.0
C51 C 0.04972 0.07224 0.17172 0.0
O52 O 0.93189 0.07235 0.21331 0.0
C53 C 0.95675 0.05901 0.10851 0.0
O54 O 0.90968 0.05313 0.181 0.0
O55 O 0.93975 0.04497 0.12467 0.0
C56 C 0.92826 0.34675 0.66888 0.0
O57 O 0.9509 0.34673 0.68733 0.0
Cd58 Cd 0.995 0.38469 0.70198 0.0
O59 O 0.92994 0.36749 0.65559 0.0
Cd60 Cd 0.97049 0.4128 0.65444 0.0
C61 C 0.91241 0.4354 0.70088 0.0
O62 O 0.04454 0.40136 0.67271 0.0
O63 O 0.02931 0.44448 0.66713 0.0
O64 O 0.99145 0.40847 0.61436 0.0
C65 C 0.05759 0.42633 0.6738 0.0
O66 O 0.93829 0.41954 0.71248 0.0
C67 C 0.9712 0.4305 0.60826 0.0
O68 O 0.91525 0.4361 0.6793 0.0
O69 O 0.94888 0.44342 0.62345 0.0
C70 C 0.568 0.14512 0.66742 0.0
O71 O 0.54352 0.14631 0.68527 0.0
Cd72 Cd 0.49301 0.11093 0.69923 0.0
O73 O 0.56546 0.1243 0.65423 0.0
Cd74 Cd 0.52054 0.08048 0.65232 0.0
C75 C 0.57005 0.05714 0.70108 0.0
O76 O 0.4467 0.09612 0.66817 0.0
O77 O 0.45495 0.05232 0.6629 0.0
O78 O 0.50727 0.08492 0.61151 0.0
C79 C 0.42935 0.07211 0.669 0.0
O80 O 0.54456 0.0742 0.7117 0.0
C81 C 0.52497 0.06172 0.6065 0.0
O82 O 0.56965 0.056 0.67947 0.0
O83 O 0.54237 0.04793 0.6227 0.0
C84 C 0.42844 0.65553 0.82409 0.0
O85 O 0.45147 0.65527 0.80575 0.0
Cd86 Cd 0.49622 0.61713 0.79183 0.0
O87 O 0.42994 0.63504 0.83765 0.0
Cd88 Cd 0.47025 0.58975 0.83978 0.0
C89 C 0.41366 0.56638 0.79307 0.0
O90 O 0.54454 0.60094 0.82177 0.0
O91 O 0.52986 0.55794 0.82819 0.0
O92 O 0.48937 0.59482 0.88004 0.0
C93 C 0.5579 0.57601 0.82114 0.0
O94 O 0.43976 0.58208 0.78144 0.0
C95 C 0.46847 0.57303 0.88619 0.0
O96 O 0.41599 0.56603 0.81466 0.0
O97 O 0.44689 0.55985 0.8709 0.0
C98 C 0.06831 0.85775 0.82537 0.0
O99 O 0.04347 0.85679 0.80763 0.0
Cd100 Cd 0.99261 0.89243 0.7944 0.0
O101 O 0.06588 0.87833 0.83881 0.0
Cd102 Cd 0.02092 0.92201 0.84165 0.0
C103 C 0.06961 0.94633 0.79305 0.0
O104 O 0.94689 0.9067 0.82586 0.0
O105 O 0.95511 0.95037 0.83182 0.0
O106 O 0.00866 0.91627 0.88243 0.0
C107 C 0.9295 0.93072 0.82543 0.0
O108 O 0.04398 0.92944 0.78232 0.0
C109 C 0.02632 0.93934 0.88783 0.0
O110 O 0.06956 0.94709 0.81467 0.0
O111 O 0.04313 0.95372 0.87182 0.0
C112 C 0.1138 0.54508 0.25833 0.0
C113 C 0.11996 0.5463 0.28199 0.0
C114 C 0.14539 0.53115 0.24465 0.0
C115 C 0.23975 0.47972 0.24607 0.0
H116 H 0.27668 0.51554 0.1901 0.0
C117 C 0.40057 0.47792 0.17984 0.0
C118 C 0.40653 0.44944 0.17653 0.0
C119 C 0.36192 0.48796 0.19114 0.0
C120 C 0.26676 0.50527 0.20568 0.0
H121 H 0.16401 0.53353 0.30982 0.0
H122 H 0.21969 0.50966 0.28586 0.0
H123 H 0.21732 0.53645 0.21359 0.0
H124 H 0.3761 0.40913 0.182 0.0
H125 H 0.30795 0.42681 0.20174 0.0
H126 H 0.29066 0.4491 0.2385 0.0
C127 C 0.18996 0.51912 0.27794 0.0
C128 C 0.23238 0.51711 0.21904 0.0
C129 C 0.15822 0.53299 0.29167 0.0
C130 C 0.37241 0.43119 0.18432 0.0
C131 C 0.33361 0.44129 0.19573 0.0
C132 C 0.27425 0.46788 0.23268 0.0
C133 C 0.18404 0.5182 0.25426 0.0
C134 C 0.21886 0.50467 0.23953 0.0
C135 C 0.32819 0.46979 0.1994 0.0
C136 C 0.2886 0.48077 0.21251 0.0
H137 H 0.08451 0.55488 0.2503 0.0
H138 H 0.13943 0.53048 0.22652 0.0
H139 H 0.22968 0.46944 0.26161 0.0
H140 H 0.42623 0.49254 0.17405 0.0
H141 H 0.35917 0.50998 0.19397 0.0
C142 C 0.11195 0.08562 0.19901 0.0
C143 C 0.09545 0.06797 0.18193 0.0
C144 C 0.15261 0.07919 0.21064 0.0
C145 C 0.25885 0.03852 0.20801 0.0
H146 H 0.24145 0.02544 0.27236 0.0
C147 C 0.37205 0.96257 0.25709 0.0
C148 C 0.38068 0.9667 0.2803 0.0
C149 C 0.34268 0.98021 0.24524 0.0
C150 C 0.24753 0.02957 0.25456 0.0
H151 H 0.10941 0.03079 0.16269 0.0
H152 H 0.181 0.02006 0.1825 0.0
H153 H 0.18129 0.04848 0.25063 0.0
H154 H 0.36646 0.9932 0.30912 0.0
H155 H 0.31605 0.02452 0.28827 0.0
H156 H 0.3248 0.01951 0.2117 0.0
C157 C 0.16241 0.03864 0.18707 0.0
C158 C 0.21294 0.04275 0.24212 0.0
C159 C 0.12138 0.04468 0.17584 0.0
C160 C 0.36015 0.98931 0.29128 0.0
C161 C 0.33113 0.00721 0.27934 0.0
C162 C 0.29374 0.02575 0.22048 0.0
C163 C 0.17782 0.05545 0.20491 0.0
C164 C 0.21772 0.0465 0.21863 0.0
C165 C 0.32161 0.0027 0.25621 0.0
C166 C 0.28784 0.02019 0.24375 0.0
H167 H 0.09237 0.10362 0.20408 0.0
H168 H 0.16389 0.09241 0.22439 0.0
H169 H 0.2634 0.04143 0.18991 0.0
H170 H 0.38709 0.94526 0.24812 0.0
H171 H 0.33548 0.97563 0.22761 0.0
C172 C 0.6174 0.4499 0.23504 0.0
C173 C 0.62288 0.44977 0.21132 0.0
C174 C 0.64909 0.46346 0.2489 0.0
C175 C 0.74197 0.51588 0.24823 0.0
H176 H 0.77984 0.47917 0.30366 0.0
C177 C 0.90155 0.51875 0.3154 0.0
C178 C 0.90652 0.5473 0.31871 0.0
C179 C 0.86354 0.50825 0.30384 0.0
C180 C 0.76972 0.48967 0.28821 0.0
H181 H 0.66591 0.46399 0.18359 0.0
H182 H 0.72183 0.48721 0.20787 0.0
H183 H 0.72146 0.45807 0.2797 0.0
H184 H 0.87483 0.58723 0.31307 0.0
H185 H 0.80777 0.56876 0.29299 0.0
H186 H 0.79171 0.54694 0.25637 0.0
C187 C 0.69252 0.4772 0.2157 0.0
C188 C 0.73586 0.47772 0.27459 0.0
C189 C 0.66064 0.46372 0.20179 0.0
C190 C 0.87195 0.56512 0.31074 0.0
C191 C 0.83376 0.55457 0.29912 0.0
C192 C 0.77598 0.52781 0.26185 0.0
C193 C 0.6872 0.47712 0.23943 0.0
C194 C 0.72189 0.49053 0.25432 0.0
C195 C 0.82943 0.52602 0.29534 0.0
C196 C 0.79064 0.51465 0.28185 0.0
H197 H 0.58849 0.43958 0.24296 0.0
H198 H 0.64355 0.46337 0.26708 0.0
H199 H 0.73154 0.52646 0.23288 0.0
H200 H 0.92759 0.50445 0.32132 0.0
H201 H 0.86166 0.48621 0.30096 0.0
C202 C 0.8583 0.01227 0.20498 0.0
C203 C 0.87796 0.03552 0.21545 0.0
C204 C 0.82925 0.99468 0.21721 0.0
C205 C 0.79129 0.97798 0.27627 0.0
H206 H 0.68038 0.95246 0.24622 0.0
C207 C 0.6202 0.95612 0.32131 0.0
C208 C 0.59501 0.9326 0.31509 0.0
C209 C 0.66092 0.96281 0.31005 0.0
C210 C 0.71162 0.95899 0.25473 0.0
H211 H 0.88263 0.05848 0.24698 0.0
H212 H 0.83101 0.02857 0.26797 0.0
H213 H 0.73976 0.97585 0.22423 0.0
H214 H 0.59306 0.89713 0.2927 0.0
H215 H 0.66407 0.90937 0.27243 0.0
H216 H 0.76141 0.96258 0.30703 0.0
C217 C 0.83892 0.0233 0.25055 0.0
C218 C 0.74574 0.97238 0.24214 0.0
C219 C 0.86828 0.04066 0.23842 0.0
C220 C 0.61204 0.91532 0.29788 0.0
C221 C 0.65241 0.92235 0.28625 0.0
C222 C 0.75687 0.96496 0.28888 0.0
C223 C 0.81887 1.00012 0.24011 0.0
C224 C 0.78548 0.98271 0.25287 0.0
C225 C 0.6768 0.94637 0.29206 0.0
C226 C 0.71629 0.95593 0.27831 0.0
H227 H 0.8654 0.00761 0.18735 0.0
H228 H 0.81494 0.97684 0.2087 0.0
H229 H 0.82194 0.985 0.28501 0.0
H230 H 0.60783 0.96974 0.33456 0.0
H231 H 0.67885 0.98158 0.31471 0.0
C232 C 0.62124 0.58338 0.7929 0.0
C233 C 0.60156 0.56765 0.81042 0.0
C234 C 0.65959 0.57341 0.78104 0.0
C235 C 0.75661 0.52551 0.78446 0.0
H236 H 0.74001 0.51423 0.71981 0.0
C237 C 0.86731 0.44796 0.73547 0.0
C238 C 0.87913 0.4534 0.7128 0.0
C239 C 0.83656 0.46505 0.74701 0.0
C240 C 0.7458 0.5177 0.73774 0.0
H241 H 0.60745 0.52998 0.83004 0.0
H242 H 0.67513 0.51304 0.80984 0.0
H243 H 0.68257 0.54018 0.74123 0.0
H244 H 0.8682 0.4812 0.68446 0.0
H245 H 0.81542 0.51157 0.70483 0.0
H246 H 0.81971 0.50326 0.78119 0.0
C247 C 0.66074 0.53285 0.8051 0.0
C248 C 0.71281 0.53255 0.74998 0.0
C249 C 0.62197 0.54248 0.81657 0.0
C250 C 0.85951 0.47636 0.7019 0.0
C251 C 0.82913 0.49372 0.71356 0.0
C252 C 0.78992 0.51106 0.7722 0.0
C253 C 0.67935 0.54794 0.78696 0.0
C254 C 0.71741 0.53596 0.77353 0.0
C255 C 0.81731 0.48829 0.7363 0.0
C256 C 0.78433 0.50627 0.74879 0.0
H257 H 0.6059 0.60277 0.78776 0.0
H258 H 0.67346 0.58538 0.7671 0.0
H259 H 0.76105 0.52812 0.80259 0.0
H260 H 0.88148 0.43028 0.7443 0.0
H261 H 0.82744 0.45973 0.76428 0.0
C262 C 0.62138 0.01559 0.70397 0.0
C263 C 0.60097 0.03879 0.71415 0.0
C264 C 0.65103 0.99859 0.71642 0.0
C265 C 0.68948 0.98356 0.77575 0.0
H266 H 0.79985 0.95693 0.74588 0.0
C267 C 0.86052 0.96062 0.82088 0.0
C268 C 0.88428 0.9364 0.81509 0.0
C269 C 0.82023 0.96789 0.80947 0.0
C270 C 0.76878 0.96382 0.75435 0.0
H271 H 0.59575 0.06237 0.74533 0.0
H272 H 0.6485 0.03355 0.76668 0.0
H273 H 0.74059 0.98013 0.72366 0.0
H274 H 0.88419 0.9004 0.79327 0.0
H275 H 0.81399 0.91364 0.77273 0.0
H276 H 0.71945 0.96869 0.80667 0.0
C277 C 0.64066 0.02781 0.74934 0.0
C278 C 0.73471 0.97708 0.74163 0.0
C279 C 0.61063 0.04454 0.73702 0.0
C280 C 0.86631 0.91911 0.79812 0.0
C281 C 0.82641 0.92671 0.78634 0.0
C282 C 0.72388 0.9707 0.78849 0.0
C283 C 0.66135 0.00461 0.73923 0.0
C284 C 0.69507 0.9877 0.75225 0.0
C285 C 0.80341 0.95134 0.79176 0.0
C286 C 0.7642 0.96121 0.77796 0.0
H287 H 0.6143 0.01048 0.68642 0.0
H288 H 0.66577 0.9807 0.70814 0.0
H289 H 0.65892 0.99078 0.78444 0.0
H290 H 0.87364 0.97427 0.83392 0.0
H291 H 0.80334 0.98711 0.81382 0.0
C292 C 0.36098 0.52533 0.79218 0.0
C293 C 0.3806 0.54821 0.78117 0.0
C294 C 0.33062 0.50789 0.78058 0.0
C295 C 0.29091 0.49031 0.72203 0.0
H296 H 0.18365 0.4616 0.75332 0.0
C297 C 0.12169 0.45981 0.67841 0.0
C298 C 0.10141 0.43456 0.68442 0.0
C299 C 0.16077 0.46925 0.68974 0.0
C300 C 0.21387 0.46912 0.74449 0.0
H301 H 0.38308 0.57107 0.74955 0.0
H302 H 0.32904 0.54151 0.72969 0.0
H303 H 0.24153 0.48743 0.77455 0.0
H304 H 0.10621 0.39911 0.70672 0.0
H305 H 0.17427 0.4162 0.72718 0.0
H306 H 0.2615 0.47332 0.69174 0.0
C307 C 0.33815 0.5363 0.74699 0.0
C308 C 0.24712 0.48389 0.75662 0.0
C309 C 0.3689 0.55346 0.75846 0.0
C310 C 0.12146 0.41857 0.70169 0.0
C311 C 0.16009 0.42836 0.71343 0.0
C312 C 0.25732 0.47596 0.70989 0.0
C313 C 0.3188 0.51316 0.75782 0.0
C314 C 0.28562 0.49518 0.74545 0.0
C315 C 0.17977 0.45389 0.70763 0.0
C316 C 0.21816 0.46567 0.72094 0.0
H317 H 0.3696 0.52063 0.80964 0.0
H318 H 0.31687 0.49011 0.78941 0.0
H319 H 0.32067 0.49801 0.71295 0.0
H320 H 0.1069 0.4725 0.66513 0.0
H321 H 0.1751 0.48911 0.6851 0.0
C322 C 0.1097 0.95946 0.75711 0.0
C323 C 0.10036 0.96488 0.78007 0.0
C324 C 0.13965 0.97632 0.74487 0.0
C325 C 0.23419 0.02664 0.75285 0.0
H326 H 0.21868 0.03565 0.68787 0.0
C327 C 0.36633 0.08416 0.69626 0.0
C328 C 0.38411 0.06666 0.67939 0.0
C329 C 0.32634 0.07681 0.70807 0.0
C330 C 0.22316 0.03348 0.70604 0.0
H331 H 0.11416 0.99275 0.80805 0.0
H332 H 0.1655 0.02276 0.78647 0.0
H333 H 0.15792 0.01373 0.71007 0.0
H334 H 0.37309 0.02869 0.66075 0.0
H335 H 0.30258 0.01631 0.68088 0.0
H336 H 0.29963 0.04646 0.74861 0.0
C337 C 0.15056 0.00504 0.77806 0.0
C338 C 0.18863 0.02072 0.71876 0.0
C339 C 0.12099 0.9879 0.79042 0.0
C340 C 0.3601 0.0425 0.67372 0.0
C341 C 0.3197 0.03549 0.68514 0.0
C342 C 0.26839 0.03983 0.74016 0.0
C343 C 0.16059 0.99933 0.75516 0.0
C344 C 0.19434 0.01631 0.74222 0.0
C345 C 0.30305 0.05224 0.70275 0.0
C346 C 0.26371 0.04263 0.71657 0.0
H347 H 0.09465 0.94177 0.74866 0.0
H348 H 0.14727 0.97081 0.72746 0.0
H349 H 0.24016 0.0234 0.77079 0.0
H350 H 0.38441 0.10284 0.70102 0.0
H351 H 0.31405 0.09001 0.72161 0.0
C352 C 0.01788 0.56031 0.43211 0.0
C353 C 0.04442 0.54788 0.415 0.0
C354 C 0.01319 0.54772 0.45331 0.0
C355 C 0.01904 0.47932 0.48024 0.0
H356 H 0.01373 0.5215 0.53609 0.0
C357 C 0.00526 0.42882 0.5692 0.0
C358 C 0.97653 0.44187 0.58511 0.0
C359 C 0.0142 0.44119 0.54821 0.0
C360 C 0.01463 0.50946 0.5206 0.0
H361 H 0.08842 0.51305 0.407 0.0
H362 H 0.0807 0.49122 0.44414 0.0
H363 H 0.03126 0.54484 0.50048 0.0
H364 H 0.9333 0.47763 0.59116 0.0
H365 H 0.94837 0.49897 0.55447 0.0
H366 H 0.00215 0.44395 0.50038 0.0
C367 C 0.06289 0.51049 0.44103 0.0
C368 C 0.02479 0.52284 0.50021 0.0
C369 C 0.06761 0.52311 0.41981 0.0
C370 C 0.95573 0.46708 0.57931 0.0
C371 C 0.96468 0.47944 0.55836 0.0
C372 C 0.00891 0.46593 0.50065 0.0
C373 C 0.03496 0.5224 0.45788 0.0
C374 C 0.02676 0.50796 0.47976 0.0
C375 C 0.99462 0.46687 0.54272 0.0
C376 C 0.00619 0.48089 0.52104 0.0
H377 H -0.00051 0.57937 0.42893 0.0
H378 H 0.99108 0.55733 0.46582 0.0
H379 H 0.01959 0.46732 0.46474 0.0
H380 H 0.02193 0.40942 0.57319 0.0
H381 H 0.03763 0.43105 0.53659 0.0
C382 C 0.47789 0.93504 0.42786 0.0
C383 C 0.45497 0.94976 0.4107 0.0
C384 C 0.48464 0.94686 0.44925 0.0
C385 C 0.49207 0.01487 0.47696 0.0
H386 H 0.48178 0.9726 0.53259 0.0
C387 C 0.49917 0.06479 0.56601 0.0
C388 C 0.52219 0.05028 0.58326 0.0
C389 C 0.4924 0.05275 0.54472 0.0
C390 C 0.48538 0.98459 0.51718 0.0
H391 H 0.41953 0.98798 0.40278 0.0
H392 H 0.43075 0.00841 0.44016 0.0
H393 H 0.46461 0.95062 0.49632 0.0
H394 H 0.55758 0.01214 0.59146 0.0
H395 H 0.54631 0.9913 0.55421 0.0
H396 H 0.51284 0.04884 0.4978 0.0
C397 C 0.44427 0.98795 0.43697 0.0
C398 C 0.47543 0.97201 0.49641 0.0
C399 C 0.43752 0.97613 0.41561 0.0
C400 C 0.53958 0.02383 0.57855 0.0
C401 C 0.53279 0.01179 0.55727 0.0
C402 C 0.50202 0.02745 0.49772 0.0
C403 C 0.46862 0.97365 0.45391 0.0
C404 C 0.47859 0.98702 0.47606 0.0
C405 C 0.50849 0.02593 0.54022 0.0
C406 C 0.49877 0.01246 0.51808 0.0
H407 H 0.49186 0.9147 0.42459 0.0
H408 H 0.50382 0.93538 0.46187 0.0
H409 H 0.49567 0.02688 0.46156 0.0
H410 H 0.48523 0.08517 0.56913 0.0
H411 H 0.47322 0.06411 0.53202 0.0
C412 C 0.55988 0.48 0.07487 0.0
C413 C 0.53786 0.45475 0.07937 0.0
C414 C 0.5533 0.4934 0.05409 0.0
C415 C 0.4697 0.49774 0.00724 0.0
H416 H 0.56879 0.53423 0.97494 0.0
C417 C 0.45009 0.53746 0.91556 0.0
C418 C 0.472 0.56227 0.90962 0.0
C419 C 0.45705 0.5257 0.93693 0.0
C420 C 0.54062 0.52448 0.98393 0.0
H421 H 0.49316 0.42324 0.06528 0.0
H422 H 0.48216 0.44644 0.029 0.0
H423 H 0.58511 0.51017 0.01044 0.0
H424 H 0.51727 0.5947 0.92171 0.0
H425 H 0.52897 0.57432 0.95918 0.0
H426 H 0.4252 0.51197 0.98078 0.0
C427 C 0.50384 0.45612 0.04166 0.0
C428 C 0.55001 0.51063 0.00423 0.0
C429 C 0.51047 0.44272 0.06238 0.0
C430 C 0.49994 0.57553 0.92576 0.0
C431 C 0.50695 0.56375 0.94716 0.0
C432 C 0.4603 0.5116 0.98699 0.0
C433 C 0.52449 0.48185 0.03743 0.0
C434 C 0.51471 0.49691 0.01601 0.0
C435 C 0.48609 0.53849 0.95286 0.0
C436 C 0.49569 0.52497 0.975 0.0
H437 H 0.58112 0.48983 0.08763 0.0
H438 H 0.56949 0.51326 0.0514 0.0
H439 H 0.44156 0.48786 0.01616 0.0
H440 H 0.42846 0.52667 0.90349 0.0
H441 H 0.44084 0.5061 0.94067 0.0
C442 C 0.00224 0.93468 0.92847 0.0
C443 C 0.02422 0.94996 0.91134 0.0
C444 C -0.00393 0.94595 0.95009 0.0
C445 C 0.03619 0.00155 0.98839 0.0
H446 H 0.91632 0.99208 0.01637 0.0
C447 C 0.98247 0.06263 0.06805 0.0
C448 C 0.96021 0.04766 0.08527 0.0
C449 C 0.98943 0.05087 0.04666 0.0
C450 C 0.95011 0.99469 0.00889 0.0
H451 H 0.05823 0.98871 0.90365 0.0
H452 H 0.04725 0.0084 0.9413 0.0
H453 H 0.93236 0.97032 0.97991 0.0
H454 H 0.92672 0.00889 0.09341 0.0
H455 H 0.93901 0.98835 0.05614 0.0
H456 H 0.05389 0.026 0.01735 0.0
C457 C 0.03509 0.98763 0.93811 0.0
C458 C 0.95936 0.98217 0.98803 0.0
C459 C 0.04124 0.97637 0.91649 0.0
C460 C 0.9439 0.02099 0.08048 0.0
C461 C 0.9508 0.00925 0.05909 0.0
C462 C 0.02694 0.01409 0.00925 0.0
C463 C 0.01178 0.97273 0.95505 0.0
C464 C 0.00249 0.98547 0.97753 0.0
C465 C 0.97422 0.02391 0.04204 0.0
C466 C 0.98377 0.01084 0.01973 0.0
H467 H 0.98885 0.91424 0.92505 0.0
H468 H 0.97865 0.93376 0.96289 0.0
H469 H 0.06996 0.0042 0.9809 0.0
H470 H 0.99536 0.08325 0.0712 0.0
H471 H 0.00693 0.06286 0.03377 0.0
C472 C 0.08404 0.69533 0.32261 0.0
C473 C 0.09074 0.67133 0.3356 0.0
C474 C 0.11494 0.71734 0.32411 0.0
C475 C 0.212 0.74651 0.35765 0.0
H476 H 0.24853 0.77617 0.29924 0.0
C477 C 0.36824 0.81345 0.31363 0.0
C478 C 0.37192 0.83588 0.32866 0.0
C479 C 0.33324 0.79398 0.31621 0.0
C480 C 0.23896 0.76801 0.31569 0.0
H481 H 0.13391 0.6523 0.36127 0.0
H482 H 0.1882 0.69055 0.36362 0.0
H483 H 0.18734 0.7421 0.30115 0.0
H484 H 0.34237 0.85486 0.35868 0.0
H485 H 0.28092 0.82082 0.36306 0.0
H486 H 0.26488 0.772 0.37203 0.0
C487 C 0.15879 0.69246 0.35242 0.0
C488 C 0.20334 0.74875 0.31683 0.0
C489 C 0.12773 0.67046 0.351 0.0
C490 C 0.34055 0.83784 0.34679 0.0
C491 C 0.30541 0.81829 0.34936 0.0
C492 C 0.24774 0.76588 0.3565 0.0
C493 C 0.15344 0.71585 0.33854 0.0
C494 C 0.18958 0.7376 0.33779 0.0
C495 C 0.30091 0.79641 0.33384 0.0
C496 C 0.26195 0.77659 0.33545 0.0
H497 H 0.05563 0.69685 0.31075 0.0
H498 H 0.10923 0.73531 0.31354 0.0
H499 H 0.20201 0.73848 0.37408 0.0
H500 H 0.39198 0.81112 0.29959 0.0
H501 H 0.33136 0.77704 0.30424 0.0
C502 C 0.87286 0.18918 0.1735 0.0
C503 C 0.87364 0.16414 0.16146 0.0
C504 C 0.83943 0.2091 0.16884 0.0
C505 C 0.77899 0.25326 0.14752 0.0
H506 H 0.6517 0.22915 0.14518 0.0
C507 C 0.63079 0.33096 0.13664 0.0
C508 C 0.5953 0.32832 0.15275 0.0
C509 C 0.66296 0.30981 0.13364 0.0
C510 C 0.6871 0.23616 0.1457 0.0
H511 H 0.84023 0.14062 0.13479 0.0
H512 H 0.78152 0.17546 0.12679 0.0
H513 H 0.71335 0.19491 0.14778 0.0
H514 H 0.56429 0.30066 0.17736 0.0
H515 H 0.62034 0.26382 0.17208 0.0
H516 H 0.75285 0.29448 0.14618 0.0
C517 C 0.80686 0.17956 0.13985 0.0
C518 C 0.72239 0.21658 0.147 0.0
C519 C 0.84063 0.15969 0.14436 0.0
C520 C 0.59127 0.30344 0.16487 0.0
C521 C 0.62327 0.28223 0.16176 0.0
C522 C 0.74378 0.27281 0.14604 0.0
C523 C 0.80575 0.20439 0.15216 0.0
C524 C 0.76865 0.22496 0.14839 0.0
C525 C 0.66015 0.28547 0.14654 0.0
C526 C 0.6974 0.26451 0.14555 0.0
H527 H 0.89777 0.19331 0.18676 0.0
H528 H 0.83917 0.2279 0.17878 0.0
H529 H 0.81435 0.26031 0.14835 0.0
H530 H 0.63484 0.34979 0.12694 0.0
H531 H 0.69067 0.31275 0.12158 0.0
C532 C 0.60294 0.19092 0.67679 0.0
C533 C 0.6022 0.16722 0.66304 0.0
C534 C 0.63814 0.21034 0.67462 0.0
C535 C 0.73294 0.23487 0.67887 0.0
H536 H 0.78482 0.25972 0.62177 0.0
C537 C 0.8973 0.29974 0.67768 0.0
C538 C 0.89667 0.32346 0.66395 0.0
C539 C 0.8638 0.27932 0.67515 0.0
C540 C 0.77058 0.25301 0.63784 0.0
H541 H 0.63683 0.14607 0.63543 0.0
H542 H 0.69869 0.17999 0.63179 0.0
H543 H 0.71884 0.22819 0.62169 0.0
H544 H 0.86166 0.34354 0.63591 0.0
H545 H 0.80272 0.30796 0.6317 0.0
H546 H 0.78364 0.2599 0.6951 0.0
C547 C 0.67178 0.18355 0.64417 0.0
C548 C 0.73305 0.23481 0.63779 0.0
C549 C 0.63639 0.16408 0.64631 0.0
C550 C 0.86313 0.32555 0.6468 0.0
C551 C 0.82941 0.30511 0.64433 0.0
C552 C 0.77033 0.25291 0.67892 0.0
C553 C 0.67364 0.20655 0.6587 0.0
C554 C 0.71363 0.22571 0.65834 0.0
C555 C 0.82864 0.28214 0.65891 0.0
C556 C 0.78964 0.26224 0.65844 0.0
H557 H 0.57691 0.1942 0.68967 0.0
H558 H 0.63797 0.22815 0.68572 0.0
H559 H 0.71933 0.22794 0.69501 0.0
H560 H 0.92296 0.29727 0.69087 0.0
H561 H 0.86483 0.26157 0.68632 0.0
C562 C 0.39719 0.70227 0.81456 0.0
C563 C 0.39667 0.67885 0.82862 0.0
C564 C 0.36368 0.72274 0.81685 0.0
C565 C 0.27047 0.74957 0.81311 0.0
H566 H 0.21939 0.77462 0.87032 0.0
C567 C 0.10349 0.81218 0.8154 0.0
C568 C 0.10272 0.83567 0.82939 0.0
C569 C 0.13871 0.79274 0.81738 0.0
C570 C 0.23348 0.76792 0.85422 0.0
H571 H 0.36177 0.6593 0.85694 0.0
H572 H 0.30283 0.6949 0.86073 0.0
H573 H 0.28514 0.74299 0.87027 0.0
H574 H 0.13742 0.85645 0.85718 0.0
H575 H 0.19932 0.82255 0.86045 0.0
H576 H 0.21961 0.77464 0.797 0.0
C577 C 0.32944 0.69753 0.84804 0.0
C578 C 0.27088 0.74965 0.85419 0.0
C579 C 0.36316 0.67706 0.84581 0.0
C580 C 0.13698 0.83861 0.84611 0.0
C581 C 0.1724 0.81913 0.84804 0.0
C582 C 0.23322 0.76772 0.81314 0.0
C583 C 0.32863 0.72024 0.83319 0.0
C584 C 0.28979 0.74027 0.8336 0.0
C585 C 0.17421 0.79631 0.83333 0.0
C586 C 0.21405 0.77702 0.83367 0.0
H587 H 0.4228 0.7045 0.80132 0.0
H588 H 0.36468 0.74028 0.80548 0.0
H589 H 0.28365 0.74247 0.79693 0.0
H590 H 0.07741 0.80907 0.80251 0.0
H591 H 0.1385 0.77507 0.80612 0.0
loop_
_geom_bond_atom_site_label_1
_geom_bond_atom_site_label_2
_geom_bond_distance
_geom_bond_site_symmetry_2
_ccdc_geom_bond_type
C0 O1 1.306 . S
C0 O3 1.160 . S
O1 C0 1.306 . S
O1 Cd2 2.228 . S
Cd2 O1 2.228 . S
Cd2 O6 2.273 . S
Cd2 O10 2.277 . S
O3 C0 1.160 . S
O3 Cd4 2.203 . S
Cd4 O3 2.203 . S
Cd4 O6 2.411 . S
Cd4 O7 2.333 . S
Cd4 O8 2.352 . S
Cd4 O12 2.277 . S
Cd4 O13 2.356 . S
C5 O10 1.209 . S
C5 O12 1.226 . S
O6 Cd2 2.273 . S
O6 Cd4 2.411 . S
O6 C9 1.320 . S
O7 Cd4 2.333 . S
O7 C9 1.214 . S
O8 Cd4 2.352 . S
O8 C11 1.258 . S
C9 O6 1.320 . S
C9 O7 1.214 . S
O10 Cd2 2.277 . S
O10 C5 1.209 . S
C11 O8 1.258 . S
C11 O13 1.282 . S
O12 Cd4 2.277 . S
O12 C5 1.226 . S
O13 Cd4 2.356 . S
O13 C11 1.282 . S
C14 O15 1.306 . S
C14 O17 1.160 . S
O15 C14 1.306 . S
O15 Cd16 2.228 . S
Cd16 O15 2.228 . S
Cd16 O20 2.273 . S
Cd16 O24 2.277 . S
O17 C14 1.160 . S
O17 Cd18 2.203 . S
Cd18 O17 2.203 . S
Cd18 O20 2.411 . S
Cd18 O21 2.333 . S
Cd18 O22 2.352 . S
Cd18 O26 2.277 . S
Cd18 O27 2.356 . S
C19 O24 1.209 . S
C19 O26 1.226 . S
O20 Cd16 2.273 . S
O20 Cd18 2.411 . S
O20 C23 1.320 . S
O21 Cd18 2.333 . S
O21 C23 1.214 . S
O22 Cd18 2.352 . S
O22 C25 1.258 . S
C23 O20 1.320 . S
C23 O21 1.214 . S
O24 Cd16 2.277 . S
O24 C19 1.209 . S
C25 O22 1.258 . S
C25 O27 1.282 . S
O26 Cd18 2.277 . S
O26 C19 1.226 . S
O27 Cd18 2.356 . S
O27 C25 1.282 . S
C28 O29 1.306 . S
C28 O31 1.160 . S
O29 C28 1.306 . S
O29 Cd30 2.228 . S
Cd30 O29 2.228 . S
Cd30 O34 2.273 . S
Cd30 O38 2.277 . S
O31 C28 1.160 . S
O31 Cd32 2.203 . S
Cd32 O31 2.203 . S
Cd32 O34 2.411 . S
Cd32 O35 2.333 . S
Cd32 O36 2.352 . S
Cd32 O40 2.277 . S
Cd32 O41 2.356 . S
C33 O38 1.209 . S
C33 O40 1.226 . S
O34 Cd30 2.273 . S
O34 Cd32 2.411 . S
O34 C37 1.320 . S
O35 Cd32 2.333 . S
O35 C37 1.214 . S
O36 Cd32 2.352 . S
O36 C39 1.258 . S
C37 O34 1.320 . S
C37 O35 1.214 . S
O38 Cd30 2.277 . S
O38 C33 1.209 . S
C39 O36 1.258 . S
C39 O41 1.282 . S
O40 Cd32 2.277 . S
O40 C33 1.226 . S
O41 Cd32 2.356 . S
O41 C39 1.282 . S
C42 O43 1.306 . S
C42 O45 1.160 . S
O43 C42 1.306 . S
O43 Cd44 2.228 . S
Cd44 O43 2.228 . S
Cd44 O48 2.273 . S
Cd44 O52 2.277 . S
O45 C42 1.160 . S
O45 Cd46 2.203 . S
Cd46 O45 2.203 . S
Cd46 O48 2.411 . S
Cd46 O49 2.333 . S
Cd46 O50 2.352 . S
Cd46 O54 2.277 . S
Cd46 O55 2.356 . S
C47 O52 1.209 . S
C47 O54 1.226 . S
O48 Cd44 2.273 . S
O48 Cd46 2.411 . S
O48 C51 1.320 . S
O49 Cd46 2.333 . S
O49 C51 1.214 . S
O50 Cd46 2.352 . S
O50 C53 1.258 . S
C51 O48 1.320 . S
C51 O49 1.214 . S
O52 Cd44 2.277 . S
O52 C47 1.209 . S
C53 O50 1.258 . S
C53 O55 1.282 . S
O54 Cd46 2.277 . S
O54 C47 1.226 . S
O55 Cd46 2.356 . S
O55 C53 1.282 . S
C56 O57 1.306 . S
C56 O59 1.160 . S
O57 C56 1.306 . S
O57 Cd58 2.228 . S
Cd58 O57 2.228 . S
Cd58 O62 2.273 . S
Cd58 O66 2.277 . S
O59 C56 1.160 . S
O59 Cd60 2.203 . S
Cd60 O59 2.203 . S
Cd60 O62 2.411 . S
Cd60 O63 2.333 . S
Cd60 O64 2.352 . S
Cd60 O68 2.277 . S
Cd60 O69 2.356 . S
C61 O66 1.209 . S
C61 O68 1.226 . S
O62 Cd58 2.273 . S
O62 Cd60 2.411 . S
O62 C65 1.320 . S
O63 Cd60 2.333 . S
O63 C65 1.214 . S
O64 Cd60 2.352 . S
O64 C67 1.258 . S
C65 O62 1.320 . S
C65 O63 1.214 . S
O66 Cd58 2.277 . S
O66 C61 1.209 . S
C67 O64 1.258 . S
C67 O69 1.282 . S
O68 Cd60 2.277 . S
O68 C61 1.226 . S
O69 Cd60 2.356 . S
O69 C67 1.282 . S
C70 O71 1.306 . S
C70 O73 1.160 . S
O71 C70 1.306 . S
O71 Cd72 2.228 . S
Cd72 O71 2.228 . S
Cd72 O76 2.273 . S
Cd72 O80 2.277 . S
O73 C70 1.160 . S
O73 Cd74 2.203 . S
Cd74 O73 2.203 . S
Cd74 O76 2.411 . S
Cd74 O77 2.333 . S
Cd74 O78 2.352 . S
Cd74 O82 2.277 . S
Cd74 O83 2.356 . S
C75 O80 1.209 . S
C75 O82 1.226 . S
O76 Cd72 2.273 . S
O76 Cd74 2.411 . S
O76 C79 1.320 . S
O77 Cd74 2.333 . S
O77 C79 1.214 . S
O78 Cd74 2.352 . S
O78 C81 1.258 . S
C79 O76 1.320 . S
C79 O77 1.214 . S
O80 Cd72 2.277 . S
O80 C75 1.209 . S
C81 O78 1.258 . S
C81 O83 1.282 . S
O82 Cd74 2.277 . S
O82 C75 1.226 . S
O83 Cd74 2.356 . S
O83 C81 1.282 . S
C84 O85 1.306 . S
C84 O87 1.160 . S
O85 C84 1.306 . S
O85 Cd86 2.228 . S
Cd86 O85 2.228 . S
Cd86 O90 2.273 . S
Cd86 O94 2.277 . S
O87 C84 1.160 . S
O87 Cd88 2.203 . S
Cd88 O87 2.203 . S
Cd88 O90 2.411 . S
Cd88 O91 2.333 . S
Cd88 O92 2.352 . S
Cd88 O96 2.277 . S
Cd88 O97 2.356 . S
C89 O94 1.209 . S
C89 O96 1.226 . S
O90 Cd86 2.273 . S
O90 Cd88 2.411 . S
O90 C93 1.320 . S
O91 Cd88 2.333 . S
O91 C93 1.214 . S
O92 Cd88 2.352 . S
O92 C95 1.258 . S
C93 O90 1.320 . S
C93 O91 1.214 . S
O94 Cd86 2.277 . S
O94 C89 1.209 . S
C95 O92 1.258 . S
C95 O97 1.282 . S
O96 Cd88 2.277 . S
O96 C89 1.226 . S
O97 Cd88 2.356 . S
O97 C95 1.282 . S
C98 O99 1.306 . S
C98 O101 1.160 . S
O99 C98 1.306 . S
O99 Cd100 2.228 . S
Cd100 O99 2.228 . S
Cd100 O104 2.273 . S
Cd100 O108 2.277 . S
O101 C98 1.160 . S
O101 Cd102 2.203 . S
Cd102 O101 2.203 . S
Cd102 O104 2.411 . S
Cd102 O105 2.333 . S
Cd102 O106 2.352 . S
Cd102 O110 2.277 . S
Cd102 O111 2.356 . S
C103 O108 1.209 . S
C103 O110 1.226 . S
O104 Cd100 2.273 . S
O104 Cd102 2.411 . S
O104 C107 1.320 . S
O105 Cd102 2.333 . S
O105 C107 1.214 . S
O106 Cd102 2.352 . S
O106 C109 1.258 . S
C107 O104 1.320 . S
C107 O105 1.214 . S
O108 Cd100 2.277 . S
O108 C103 1.209 . S
C109 O106 1.258 . S
C109 O111 1.282 . S
O110 Cd102 2.277 . S
O110 C103 1.226 . S
O111 Cd102 2.356 . S
O111 C109 1.282 . S
C112 C113 1.349 . S
C112 C114 1.327 . S
C112 H137 0.950 . S
C113 C112 1.349 . S
C113 C129 1.349 . S
C114 C112 1.327 . S
C114 C133 1.429 . S
C114 H138 0.950 . S
C115 C132 1.574 . S
C115 C134 1.368 . S
C115 H139 0.949 . S
H116 C120 0.949 . S
C117 C118 1.349 . S
C117 C119 1.327 . S
C117 H140 0.950 . S
C118 C117 1.349 . S
C118 C130 1.349 . S
C119 C117 1.327 . S
C119 C135 1.429 . S
C119 H141 0.950 . S
C120 H116 0.949 . S
C120 C128 1.574 . S
C120 C136 1.368 . S
H121 C129 0.950 . S
H122 C127 0.950 . S
H123 C128 0.949 . S
H124 C130 0.950 . S
H125 C131 0.950 . S
H126 C132 0.949 . S
C127 H122 0.950 . S
C127 C129 1.327 . S
C127 C133 1.429 . S
C128 C120 1.574 . S
C128 H123 0.949 . S
C128 C134 1.368 . S
C129 C113 1.349 . S
C129 H121 0.950 . S
C129 C127 1.327 . S
C130 C118 1.349 . S
C130 H124 0.950 . S
C130 C131 1.327 . S
C131 H125 0.950 . S
C131 C130 1.327 . S
C131 C135 1.429 . S
C132 C115 1.574 . S
C132 H126 0.949 . S
C132 C136 1.368 . S
C133 C114 1.429 . S
C133 C127 1.429 . S
C133 C134 1.523 . S
C134 C115 1.368 . S
C134 C128 1.368 . S
C134 C133 1.523 . S
C135 C119 1.429 . S
C135 C131 1.429 . S
C135 C136 1.523 . S
C136 C120 1.368 . S
C136 C132 1.368 . S
C136 C135 1.523 . S
H137 C112 0.950 . S
H138 C114 0.950 . S
H139 C115 0.949 . S
H140 C117 0.950 . S
H141 C119 0.950 . S
C142 C143 1.349 . S
C142 C144 1.327 1_655 S
C142 H167 0.950 . S
C143 C142 1.349 . S
C143 C159 1.349 1_655 S
C144 C142 1.327 1_455 S
C144 C163 1.429 . S
C144 H168 0.950 . S
C145 C162 1.574 . S
C145 C164 1.368 1_565 S
C145 H169 0.949 . S
H146 C150 0.949 . S
C147 C148 1.349 . S
C147 C149 1.327 . S
C147 H170 0.950 . S
C148 C147 1.349 . S
C148 C160 1.349 . S
C149 C147 1.327 . S
C149 C165 1.429 . S
C149 H171 0.950 . S
C150 H146 0.949 . S
C150 C158 1.574 . S
C150 C166 1.368 1_545 S
H151 C159 0.950 . S
H152 C157 0.950 1_565 S
H153 C158 0.949 . S
H154 C160 0.950 . S
H155 C161 0.950 1_545 S
H156 C162 0.949 . S
C157 H152 0.950 1_545 S
C157 C159 1.327 . S
C157 C163 1.429 . S
C158 C150 1.574 . S
C158 H153 0.949 . S
C158 C164 1.368 . S
C159 C143 1.349 1_455 S
C159 H151 0.950 . S
C159 C157 1.327 . S
C160 C148 1.349 . S
C160 H154 0.950 . S
C160 C161 1.327 . S
C161 H155 0.950 1_565 S
C161 C160 1.327 . S
C161 C165 1.429 . S
C162 C145 1.574 . S
C162 H156 0.949 . S
C162 C166 1.368 . S
C163 C144 1.429 . S
C163 C157 1.429 . S
C163 C164 1.523 . S
C164 C145 1.368 1_545 S
C164 C158 1.368 . S
C164 C163 1.523 . S
C165 C149 1.429 . S
C165 C161 1.429 . S
C165 C166 1.523 . S
C166 C150 1.368 1_565 S
C166 C162 1.368 . S
C166 C165 1.523 . S
H167 C142 0.950 . S
H168 C144 0.950 . S
H169 C145 0.949 . S
H170 C147 0.950 . S
H171 C149 0.950 . S
C172 C173 1.349 . S
C172 C174 1.327 . S
C172 H197 0.950 . S
C173 C172 1.349 . S
C173 C189 1.349 . S
C174 C172 1.327 . S
C174 C193 1.429 . S
C174 H198 0.950 . S
C175 C192 1.574 . S
C175 C194 1.368 . S
C175 H199 0.949 . S
H176 C180 0.949 . S
C177 C178 1.349 . S
C177 C179 1.327 1_455 S
C177 H200 0.950 . S
C178 C177 1.349 . S
C178 C190 1.349 1_455 S
C179 C177 1.327 1_655 S
C179 C195 1.429 . S
C179 H201 0.950 1_655 S
C180 H176 0.949 . S
C180 C188 1.574 . S
C180 C196 1.368 . S
H181 C189 0.950 . S
H182 C187 0.950 . S
H183 C188 0.949 . S
H184 C190 0.950 . S
H185 C191 0.950 . S
H186 C192 0.949 . S
C187 H182 0.950 . S
C187 C189 1.327 . S
C187 C193 1.429 . S
C188 C180 1.574 . S
C188 H183 0.949 . S
C188 C194 1.368 . S
C189 C173 1.349 . S
C189 H181 0.950 . S
C189 C187 1.327 . S
C190 C178 1.349 1_655 S
C190 H184 0.950 . S
C190 C191 1.327 . S
C191 H185 0.950 . S
C191 C190 1.327 . S
C191 C195 1.429 . S
C192 C175 1.574 . S
C192 H186 0.949 . S
C192 C196 1.368 . S
C193 C174 1.429 . S
C193 C187 1.429 . S
C193 C194 1.523 . S
C194 C175 1.368 . S
C194 C188 1.368 . S
C194 C193 1.523 . S
C195 C179 1.429 . S
C195 C191 1.429 . S
C195 C196 1.523 . S
C196 C180 1.368 . S
C196 C192 1.368 . S
C196 C195 1.523 . S
H197 C172 0.950 . S
H198 C174 0.950 . S
H199 C175 0.949 . S
H200 C177 0.950 . S
H201 C179 0.950 1_455 S
C202 C203 1.349 . S
C202 C204 1.327 . S
C202 H227 0.955 . S
C203 C202 1.349 . S
C203 C219 1.349 . S
C204 C202 1.327 . S
C204 C223 1.429 . S
C204 H228 0.950 1_545 S
C205 C222 1.574 . S
C205 C224 1.368 . S
C205 H229 0.949 . S
H206 C210 0.949 . S
C207 C208 1.349 . S
C207 C209 1.327 . S
C207 H230 0.950 . S
C208 C207 1.349 . S
C208 C220 1.349 . S
C209 C207 1.327 . S
C209 C225 1.429 . S
C209 H231 0.950 1_565 S
C210 H206 0.949 . S
C210 C218 1.574 . S
C210 C226 1.368 . S
H211 C219 0.950 . S
H212 C217 0.950 . S
H213 C218 0.949 . S
H214 C220 0.950 . S
H215 C221 0.950 . S
H216 C222 0.949 . S
C217 H212 0.950 . S
C217 C219 1.327 . S
C217 C223 1.429 . S
C218 C210 1.574 . S
C218 H213 0.949 . S
C218 C224 1.368 1_565 S
C219 C203 1.349 . S
C219 H211 0.950 . S
C219 C217 1.327 . S
C220 C208 1.349 . S
C220 H214 0.950 . S
C220 C221 1.327 . S
C221 H215 0.950 . S
C221 C220 1.327 . S
C221 C225 1.429 . S
C222 C205 1.574 . S
C222 H216 0.949 . S
C222 C226 1.368 1_545 S
C223 C204 1.429 . S
C223 C217 1.429 . S
C223 C224 1.523 . S
C224 C205 1.368 . S
C224 C218 1.368 1_545 S
C224 C223 1.523 . S
C225 C209 1.429 . S
C225 C221 1.429 . S
C225 C226 1.523 . S
C226 C210 1.368 . S
C226 C222 1.368 1_565 S
C226 C225 1.523 . S
H227 C202 0.955 . S
H228 C204 0.950 1_565 S
H229 C205 0.949 . S
H230 C207 0.950 . S
H231 C209 0.950 1_545 S
C232 C233 1.349 . S
C232 C234 1.327 . S
C232 H257 0.950 . S
C233 C232 1.349 . S
C233 C249 1.349 . S
C234 C232 1.327 . S
C234 C253 1.429 . S
C234 H258 0.950 . S
C235 C252 1.574 . S
C235 C254 1.368 . S
C235 H259 0.949 . S
H236 C240 0.949 . S
C237 C238 1.349 . S
C237 C239 1.327 . S
C237 H260 0.950 . S
C238 C237 1.349 . S
C238 C250 1.349 . S
C239 C237 1.327 . S
C239 C255 1.429 . S
C239 H261 0.950 . S
C240 H236 0.949 . S
C240 C248 1.574 . S
C240 C256 1.368 . S
H241 C249 0.950 . S
H242 C247 0.950 . S
H243 C248 0.949 . S
H244 C250 0.950 . S
H245 C251 0.950 . S
H246 C252 0.949 . S
C247 H242 0.950 . S
C247 C249 1.327 . S
C247 C253 1.429 . S
C248 C240 1.574 . S
C248 H243 0.949 . S
C248 C254 1.368 . S
C249 C233 1.349 . S
C249 H241 0.950 . S
C249 C247 1.327 . S
C250 C238 1.349 . S
C250 H244 0.950 . S
C250 C251 1.327 . S
C251 H245 0.950 . S
C251 C250 1.327 . S
C251 C255 1.429 . S
C252 C235 1.574 . S
C252 H246 0.949 . S
C252 C256 1.368 . S
C253 C234 1.429 . S
C253 C247 1.429 . S
C253 C254 1.523 . S
C254 C235 1.368 . S
C254 C248 1.368 . S
C254 C253 1.523 . S
C255 C239 1.429 . S
C255 C251 1.429 . S
C255 C256 1.523 . S
C256 C240 1.368 . S
C256 C252 1.368 . S
C256 C255 1.523 . S
H257 C232 0.950 . S
H258 C234 0.950 . S
H259 C235 0.949 . S
H260 C237 0.950 . S
H261 C239 0.950 . S
C262 C263 1.349 . S
C262 C264 1.327 . S
C262 H287 0.950 . S
C263 C262 1.349 . S
C263 C279 1.349 . S
C264 C262 1.327 . S
C264 C283 1.429 . S
C264 H288 0.950 1_545 S
C265 C282 1.574 . S
C265 C284 1.368 . S
C265 H289 0.949 . S
H266 C270 0.949 . S
C267 C268 1.349 1_655 S
C267 C269 1.327 . S
C267 H290 0.950 1_655 S
C268 C267 1.349 1_455 S
C268 C280 1.349 . S
C269 C267 1.327 . S
C269 C285 1.429 . S
C269 H291 0.950 1_565 S
C270 H266 0.949 . S
C270 C278 1.574 . S
C270 C286 1.368 . S
H271 C279 0.950 . S
H272 C277 0.950 . S
H273 C278 0.949 . S
H274 C280 0.950 . S
H275 C281 0.950 . S
H276 C282 0.949 . S
C277 H272 0.950 . S
C277 C279 1.327 . S
C277 C283 1.429 . S
C278 C270 1.574 . S
C278 H273 0.949 . S
C278 C284 1.368 1_565 S
C279 C263 1.349 . S
C279 H271 0.950 . S
C279 C277 1.327 . S
C280 C268 1.349 . S
C280 H274 0.950 . S
C280 C281 1.327 1_455 S
C281 H275 0.950 . S
C281 C280 1.327 1_655 S
C281 C285 1.429 . S
C282 C265 1.574 . S
C282 H276 0.949 . S
C282 C286 1.368 1_545 S
C283 C264 1.429 . S
C283 C277 1.429 . S
C283 C284 1.523 . S
C284 C265 1.368 . S
C284 C278 1.368 1_545 S
C284 C283 1.523 . S
C285 C269 1.429 . S
C285 C281 1.429 . S
C285 C286 1.523 . S
C286 C270 1.368 . S
C286 C282 1.368 1_565 S
C286 C285 1.523 . S
H287 C262 0.950 . S
H288 C264 0.950 1_565 S
H289 C265 0.949 . S
H290 C267 0.950 1_455 S
H291 C269 0.950 1_545 S
C292 C293 1.349 . S
C292 C294 1.327 . S
C292 H317 0.950 . S
C293 C292 1.349 . S
C293 C309 1.349 . S
C294 C292 1.327 . S
C294 C313 1.429 . S
C294 H318 0.950 . S
C295 C312 1.574 . S
C295 C314 1.368 . S
C295 H319 0.949 . S
H296 C300 0.949 . S
C297 C298 1.349 1_455 S
C297 C299 1.327 . S
C297 H320 0.950 . S
C298 C297 1.349 1_655 S
C298 C310 1.349 . S
C299 C297 1.327 . S
C299 C315 1.429 . S
C299 H321 0.950 . S
C300 H296 0.949 . S
C300 C308 1.574 . S
C300 C316 1.368 . S
H301 C309 0.950 . S
H302 C307 0.950 . S
H303 C308 0.949 . S
H304 C310 0.950 . S
H305 C311 0.950 . S
H306 C312 0.949 . S
C307 H302 0.950 . S
C307 C309 1.327 . S
C307 C313 1.429 . S
C308 C300 1.574 . S
C308 H303 0.949 . S
C308 C314 1.368 . S
C309 C293 1.349 . S
C309 H301 0.950 . S
C309 C307 1.327 . S
C310 C298 1.349 . S
C310 H304 0.950 . S
C310 C311 1.327 1_655 S
C311 H305 0.950 . S
C311 C310 1.327 1_455 S
C311 C315 1.429 . S
C312 C295 1.574 . S
C312 H306 0.949 . S
C312 C316 1.368 . S
C313 C294 1.429 . S
C313 C307 1.429 . S
C313 C314 1.523 . S
C314 C295 1.368 . S
C314 C308 1.368 . S
C314 C313 1.523 . S
C315 C299 1.429 . S
C315 C311 1.429 . S
C315 C316 1.523 . S
C316 C300 1.368 . S
C316 C312 1.368 . S
C316 C315 1.523 . S
H317 C292 0.950 . S
H318 C294 0.950 . S
H319 C295 0.949 . S
H320 C297 0.950 . S
H321 C299 0.950 . S
C322 C323 1.349 . S
C322 C324 1.327 . S
C322 H347 0.950 . S
C323 C322 1.349 . S
C323 C339 1.349 . S
C324 C322 1.327 . S
C324 C343 1.429 . S
C324 H348 0.950 . S
C325 C342 1.574 . S
C325 C344 1.368 1_545 S
C325 H349 0.949 . S
H326 C330 0.949 . S
C327 C328 1.349 . S
C327 C329 1.327 . S
C327 H350 0.950 . S
C328 C327 1.349 . S
C328 C340 1.349 . S
C329 C327 1.327 . S
C329 C345 1.429 . S
C329 H351 0.950 . S
C330 H326 0.949 . S
C330 C338 1.574 . S
C330 C346 1.368 1_565 S
H331 C339 0.950 . S
H332 C337 0.952 . S
H333 C338 0.949 . S
H334 C340 0.950 . S
H335 C341 0.950 . S
H336 C342 0.949 . S
C337 H332 0.952 . S
C337 C339 1.327 . S
C337 C343 1.429 . S
C338 C330 1.574 . S
C338 H333 0.949 . S
C338 C344 1.368 . S
C339 C323 1.349 . S
C339 H331 0.950 . S
C339 C337 1.327 . S
C340 C328 1.349 . S
C340 H334 0.950 . S
C340 C341 1.327 . S
C341 H335 0.950 . S
C341 C340 1.327 . S
C341 C345 1.429 . S
C342 C325 1.574 . S
C342 H336 0.949 . S
C342 C346 1.368 . S
C343 C324 1.429 . S
C343 C337 1.429 . S
C343 C344 1.523 . S
C344 C325 1.368 1_565 S
C344 C338 1.368 . S
C344 C343 1.523 . S
C345 C329 1.429 . S
C345 C341 1.429 . S
C345 C346 1.523 . S
C346 C330 1.368 1_545 S
C346 C342 1.368 . S
C346 C345 1.523 . S
H347 C322 0.950 . S
H348 C324 0.950 . S
H349 C325 0.949 . S
H350 C327 0.950 . S
H351 C329 0.950 . S
C352 C353 1.349 . S
C352 C354 1.327 . S
C352 H377 0.950 . S
C353 C352 1.349 . S
C353 C369 1.349 . S
C354 C352 1.327 . S
C354 C373 1.429 . S
C354 H378 0.950 . S
C355 C372 1.574 . S
C355 C374 1.368 . S
C355 H379 0.949 . S
H356 C360 0.949 . S
C357 C358 1.349 . S
C357 C359 1.327 . S
C357 H380 0.950 . S
C358 C357 1.349 . S
C358 C370 1.349 . S
C359 C357 1.327 . S
C359 C375 1.429 . S
C359 H381 0.950 . S
C360 H356 0.949 . S
C360 C368 1.574 . S
C360 C376 1.368 . S
H361 C369 0.950 . S
H362 C367 0.950 . S
H363 C368 0.949 . S
H364 C370 0.950 . S
H365 C371 0.950 . S
H366 C372 0.949 . S
C367 H362 0.950 . S
C367 C369 1.327 . S
C367 C373 1.429 . S
C368 C360 1.574 . S
C368 H363 0.949 . S
C368 C374 1.368 1_655 S
C369 C353 1.349 . S
C369 H361 0.950 . S
C369 C367 1.327 . S
C370 C358 1.349 . S
C370 H364 0.950 . S
C370 C371 1.327 . S
C371 H365 0.950 . S
C371 C370 1.327 . S
C371 C375 1.429 . S
C372 C355 1.574 . S
C372 H366 0.949 . S
C372 C376 1.368 1_455 S
C373 C354 1.429 . S
C373 C367 1.429 . S
C373 C374 1.523 . S
C374 C355 1.368 . S
C374 C368 1.368 1_455 S
C374 C373 1.523 . S
C375 C359 1.429 . S
C375 C371 1.429 . S
C375 C376 1.523 . S
C376 C360 1.368 . S
C376 C372 1.368 1_655 S
C376 C375 1.523 . S
H377 C352 0.950 . S
H378 C354 0.950 . S
H379 C355 0.949 . S
H380 C357 0.950 . S
H381 C359 0.950 . S
C382 C383 1.349 . S
C382 C384 1.327 . S
C382 H407 0.950 . S
C383 C382 1.349 . S
C383 C399 1.349 . S
C384 C382 1.327 . S
C384 C403 1.429 . S
C384 H408 0.950 . S
C385 C402 1.574 . S
C385 C404 1.368 1_545 S
C385 H409 0.949 . S
H386 C390 0.949 . S
C387 C388 1.349 . S
C387 C389 1.327 . S
C387 H410 0.950 . S
C388 C387 1.349 . S
C388 C400 1.349 . S
C389 C387 1.327 . S
C389 C405 1.429 . S
C389 H411 0.950 . S
C390 H386 0.949 . S
C390 C398 1.574 . S
C390 C406 1.368 1_565 S
H391 C399 0.950 . S
H392 C397 0.950 1_545 S
H393 C398 0.949 . S
H394 C400 0.950 . S
H395 C401 0.950 1_565 S
H396 C402 0.949 . S
C397 H392 0.950 1_565 S
C397 C399 1.327 . S
C397 C403 1.429 . S
C398 C390 1.574 . S
C398 H393 0.949 . S
C398 C404 1.368 . S
C399 C383 1.349 . S
C399 H391 0.950 . S
C399 C397 1.327 . S
C400 C388 1.349 . S
C400 H394 0.950 . S
C400 C401 1.327 . S
C401 H395 0.950 1_545 S
C401 C400 1.327 . S
C401 C405 1.429 . S
C402 C385 1.574 . S
C402 H396 0.949 . S
C402 C406 1.368 . S
C403 C384 1.429 . S
C403 C397 1.429 . S
C403 C404 1.523 . S
C404 C385 1.368 1_565 S
C404 C398 1.368 . S
C404 C403 1.523 . S
C405 C389 1.429 . S
C405 C401 1.429 . S
C405 C406 1.523 . S
C406 C390 1.368 1_545 S
C406 C402 1.368 . S
C406 C405 1.523 . S
H407 C382 0.950 . S
H408 C384 0.950 . S
H409 C385 0.949 . S
H410 C387 0.950 . S
H411 C389 0.950 . S
C412 C413 1.349 . S
C412 C414 1.327 . S
C412 H437 0.950 . S
C413 C412 1.349 . S
C413 C429 1.349 . S
C414 C412 1.327 . S
C414 C433 1.429 . S
C414 H438 0.950 . S
C415 C432 1.574 1_554 S
C415 C434 1.368 . S
C415 H439 0.949 . S
H416 C420 0.949 . S
C417 C418 1.349 . S
C417 C419 1.327 . S
C417 H440 0.950 . S
C418 C417 1.349 . S
C418 C430 1.349 . S
C419 C417 1.327 . S
C419 C435 1.429 . S
C419 H441 0.950 . S
C420 H416 0.949 . S
C420 C428 1.574 1_556 S
C420 C436 1.368 . S
H421 C429 0.950 . S
H422 C427 0.950 . S
H423 C428 0.949 . S
H424 C430 0.950 . S
H425 C431 0.950 . S
H426 C432 0.949 . S
C427 H422 0.950 . S
C427 C429 1.327 . S
C427 C433 1.429 . S
C428 C420 1.574 1_554 S
C428 H423 0.949 . S
C428 C434 1.368 . S
C429 C413 1.349 . S
C429 H421 0.950 . S
C429 C427 1.327 . S
C430 C418 1.349 . S
C430 H424 0.950 . S
C430 C431 1.327 . S
C431 H425 0.950 . S
C431 C430 1.327 . S
C431 C435 1.429 . S
C432 C415 1.574 1_556 S
C432 H426 0.949 . S
C432 C436 1.368 . S
C433 C414 1.429 . S
C433 C427 1.429 . S
C433 C434 1.523 . S
C434 C415 1.368 . S
C434 C428 1.368 . S
C434 C433 1.523 . S
C435 C419 1.429 . S
C435 C431 1.429 . S
C435 C436 1.523 . S
C436 C420 1.368 . S
C436 C432 1.368 . S
C436 C435 1.523 . S
H437 C412 0.950 . S
H438 C414 0.950 . S
H439 C415 0.949 . S
H440 C417 0.950 . S
H441 C419 0.950 . S
C442 C443 1.349 . S
C442 C444 1.327 . S
C442 H467 0.950 . S
C443 C442 1.349 . S
C443 C459 1.349 . S
C444 C442 1.327 . S
C444 C463 1.429 . S
C444 H468 0.950 1_455 S
C445 C462 1.574 1_556 S
C445 C464 1.368 1_545 S
C445 H469 0.949 . S
H446 C450 0.949 . S
C447 C448 1.349 . S
C447 C449 1.327 . S
C447 H470 0.950 . S
C448 C447 1.349 . S
C448 C460 1.349 . S
C449 C447 1.327 . S
C449 C465 1.429 . S
C449 H471 0.950 1_655 S
C450 H446 0.949 . S
C450 C458 1.574 1_554 S
C450 C466 1.368 1_565 S
H451 C459 0.950 . S
H452 C457 0.950 . S
H453 C458 0.949 . S
H454 C460 0.950 . S
H455 C461 0.950 . S
H456 C462 0.949 . S
C457 H452 0.950 . S
C457 C459 1.327 . S
C457 C463 1.429 . S
C458 C450 1.574 1_556 S
C458 H453 0.949 . S
C458 C464 1.368 1_655 S
C459 C443 1.349 . S
C459 H451 0.950 . S
C459 C457 1.327 . S
C460 C448 1.349 . S
C460 H454 0.950 . S
C460 C461 1.327 . S
C461 H455 0.950 . S
C461 C460 1.327 . S
C461 C465 1.429 . S
C462 C445 1.574 1_554 S
C462 H456 0.949 . S
C462 C466 1.368 1_455 S
C463 C444 1.429 . S
C463 C457 1.429 . S
C463 C464 1.523 . S
C464 C445 1.368 1_565 S
C464 C458 1.368 1_455 S
C464 C463 1.523 . S
C465 C449 1.429 . S
C465 C461 1.429 . S
C465 C466 1.523 . S
C466 C450 1.368 1_545 S
C466 C462 1.368 1_655 S
C466 C465 1.523 . S
H467 C442 0.950 . S
H468 C444 0.950 1_655 S
H469 C445 0.949 . S
H470 C447 0.950 . S
H471 C449 0.950 1_455 S
C472 C473 1.349 . S
C472 C474 1.327 . S
C472 H497 0.950 . S
C473 C472 1.349 . S
C473 C489 1.349 . S
C474 C472 1.327 . S
C474 C493 1.429 . S
C474 H498 0.950 . S
C475 C492 1.574 . S
C475 C494 1.368 . S
C475 H499 0.949 . S
H476 C480 0.949 . S
C477 C478 1.349 . S
C477 C479 1.327 . S
C477 H500 0.950 . S
C478 C477 1.349 . S
C478 C490 1.349 . S
C479 C477 1.327 . S
C479 C495 1.429 . S
C479 H501 0.950 . S
C480 H476 0.949 . S
C480 C488 1.574 . S
C480 C496 1.368 . S
H481 C489 0.950 . S
H482 C487 0.950 . S
H483 C488 0.949 . S
H484 C490 0.950 . S
H485 C491 0.950 . S
H486 C492 0.949 . S
C487 H482 0.950 . S
C487 C489 1.327 . S
C487 C493 1.429 . S
C488 C480 1.574 . S
C488 H483 0.949 . S
C488 C494 1.368 . S
C489 C473 1.349 . S
C489 H481 0.950 . S
C489 C487 1.327 . S
C490 C478 1.349 . S
C490 H484 0.950 . S
C490 C491 1.327 . S
C491 H485 0.950 . S
C491 C490 1.327 . S
C491 C495 1.429 . S
C492 C475 1.574 . S
C492 H486 0.949 . S
C492 C496 1.368 . S
C493 C474 1.429 . S
C493 C487 1.429 . S
C493 C494 1.523 . S
C494 C475 1.368 . S
C494 C488 1.368 . S
C494 C493 1.523 . S
C495 C479 1.429 . S
C495 C491 1.429 . S
C495 C496 1.523 . S
C496 C480 1.368 . S
C496 C492 1.368 . S
C496 C495 1.523 . S
H497 C472 0.950 . S
H498 C474 0.950 . S
H499 C475 0.949 . S
H500 C477 0.950 . S
H501 C479 0.950 . S
C502 C503 1.349 . S
C502 C504 1.327 . S
C502 H527 0.950 . S
C503 C502 1.349 . S
C503 C519 1.349 . S
C504 C502 1.327 . S
C504 C523 1.429 . S
C504 H528 0.950 . S
C505 C522 1.574 . S
C505 C524 1.368 . S
C505 H529 0.949 . S
H506 C510 0.949 . S
C507 C508 1.349 . S
C507 C509 1.327 . S
C507 H530 0.950 . S
C508 C507 1.349 . S
C508 C520 1.349 . S
C509 C507 1.327 . S
C509 C525 1.429 . S
C509 H531 0.950 . S
C510 H506 0.949 . S
C510 C518 1.574 . S
C510 C526 1.368 . S
H511 C519 0.950 . S
H512 C517 0.950 . S
H513 C518 0.949 . S
H514 C520 0.950 . S
H515 C521 0.950 . S
H516 C522 0.949 . S
C517 H512 0.950 . S
C517 C519 1.327 . S
C517 C523 1.429 . S
C518 C510 1.574 . S
C518 H513 0.949 . S
C518 C524 1.368 . S
C519 C503 1.349 . S
C519 H511 0.950 . S
C519 C517 1.327 . S
C520 C508 1.349 . S
C520 H514 0.950 . S
C520 C521 1.327 . S
C521 H515 0.950 . S
C521 C520 1.327 . S
C521 C525 1.429 . S
C522 C505 1.574 . S
C522 H516 0.949 . S
C522 C526 1.368 . S
C523 C504 1.429 . S
C523 C517 1.429 . S
C523 C524 1.523 . S
C524 C505 1.368 . S
C524 C518 1.368 . S
C524 C523 1.523 . S
C525 C509 1.429 . S
C525 C521 1.429 . S
C525 C526 1.523 . S
C526 C510 1.368 . S
C526 C522 1.368 . S
C526 C525 1.523 . S
H527 C502 0.950 . S
H528 C504 0.950 . S
H529 C505 0.949 . S
H530 C507 0.950 . S
H531 C509 0.950 . S
C532 C533 1.349 . S
C532 C534 1.327 . S
C532 H557 0.950 . S
C533 C532 1.349 . S
C533 C549 1.349 . S
C534 C532 1.327 . S
C534 C553 1.429 . S
C534 H558 0.950 . S
C535 C552 1.574 . S
C535 C554 1.368 . S
C535 H559 0.949 . S
H536 C540 0.949 . S
C537 C538 1.349 . S
C537 C539 1.327 . S
C537 H560 0.950 . S
C538 C537 1.349 . S
C538 C550 1.349 . S
C539 C537 1.327 . S
C539 C555 1.429 . S
C539 H561 0.950 . S
C540 H536 0.949 . S
C540 C548 1.574 . S
C540 C556 1.368 . S
H541 C549 0.950 . S
H542 C547 0.950 . S
H543 C548 0.949 . S
H544 C550 0.950 . S
H545 C551 0.950 . S
H546 C552 0.949 . S
C547 H542 0.950 . S
C547 C549 1.327 . S
C547 C553 1.429 . S
C548 C540 1.574 . S
C548 H543 0.949 . S
C548 C554 1.368 . S
C549 C533 1.349 . S
C549 H541 0.950 . S
C549 C547 1.327 . S
C550 C538 1.349 . S
C550 H544 0.950 . S
C550 C551 1.327 . S
C551 H545 0.950 . S
C551 C550 1.327 . S
C551 C555 1.429 . S
C552 C535 1.574 . S
C552 H546 0.949 . S
C552 C556 1.368 . S
C553 C534 1.429 . S
C553 C547 1.429 . S
C553 C554 1.523 . S
C554 C535 1.368 . S
C554 C548 1.368 . S
C554 C553 1.523 . S
C555 C539 1.429 . S
C555 C551 1.429 . S
C555 C556 1.523 . S
C556 C540 1.368 . S
C556 C552 1.368 . S
C556 C555 1.523 . S
H557 C532 0.950 . S
H558 C534 0.950 . S
H559 C535 0.949 . S
H560 C537 0.950 . S
H561 C539 0.950 . S
C562 C563 1.349 . S
C562 C564 1.327 . S
C562 H587 0.950 . S
C563 C562 1.349 . S
C563 C579 1.349 . S
C564 C562 1.327 . S
C564 C583 1.429 . S
C564 H588 0.950 . S
C565 C582 1.574 . S
C565 C584 1.368 . S
C565 H589 0.949 . S
H566 C570 0.949 . S
C567 C568 1.349 . S
C567 C569 1.327 . S
C567 H590 0.950 . S
C568 C567 1.349 . S
C568 C580 1.349 . S
C569 C567 1.327 . S
C569 C585 1.429 . S
C569 H591 0.950 . S
C570 H566 0.949 . S
C570 C578 1.574 . S
C570 C586 1.368 . S
H571 C579 0.950 . S
H572 C577 0.950 . S
H573 C578 0.949 . S
H574 C580 0.950 . S
H575 C581 0.950 . S
H576 C582 0.949 . S
C577 H572 0.950 . S
C577 C579 1.327 . S
C577 C583 1.429 . S
C578 C570 1.574 . S
C578 H573 0.949 . S
C578 C584 1.368 . S
C579 C563 1.349 . S
C579 H571 0.950 . S
C579 C577 1.327 . S
C580 C568 1.349 . S
C580 H574 0.950 . S
C580 C581 1.327 . S
C581 H575 0.950 . S
C581 C580 1.327 . S
C581 C585 1.429 . S
C582 C565 1.574 . S
C582 H576 0.949 . S
C582 C586 1.368 . S
C583 C564 1.429 . S
C583 C577 1.429 . S
C583 C584 1.523 . S
C584 C565 1.368 . S
C584 C578 1.368 . S
C584 C583 1.523 . S
C585 C569 1.429 . S
C585 C581 1.429 . S
C585 C586 1.523 . S
C586 C570 1.368 . S
C586 C582 1.368 . S
C586 C585 1.523 . S
H587 C562 0.950 . S
H588 C564 0.950 . S
H589 C565 0.949 . S
H590 C567 0.950 . S
H591 C569 0.950 . S
C113 C5 1.390 . S
C118 C37 1.391 . S
C143 C51 1.391 . S
C148 C19 1.390 . S
C173 C33 1.390 . S
C178 C9 1.391 . S
C203 C47 1.390 . S
C208 C23 1.391 . S
C233 C93 1.391 . S
C238 C61 1.390 . S
C263 C75 1.390 . S
C268 C107 1.391 . S
C293 C89 1.390 . S
C298 C65 1.391 . S
C323 C103 1.390 . S
C328 C79 1.391 . S
C353 C11 1.511 . S
C358 C67 1.511 . S
C383 C25 1.511 . S
C388 C81 1.511 . S
C413 C39 1.511 . S
C418 C95 1.511 . S
C443 C109 1.511 . S
C448 C53 1.511 . S
C473 C0 1.509 . S
C478 C14 1.509 . S
C503 C42 1.509 . S
C508 C28 1.509 . S
C533 C70 1.509 . S
C538 C56 1.509 . S
C563 C84 1.509 . S
C568 C98 1.509 . S
