# Generated by pormake.
# Topology uoy, (4)-cn, num edge types: 1
# Building blocks:
#     Node 0, Type 0, BuildingBlock: CEKHIL_clean_sbu_0, # of connection points: 4
#     Node 1, Type 0, BuildingBlock: CEKHIL_clean_sbu_0, # of connection points: 4
#     Node 2, Type 0, BuildingBlock: CEKHIL_clean_sbu_0, # of connection points: 4
#     Node 3, Type 0, BuildingBlock: CEKHIL_clean_sbu_0, # of connection points: 4
#     Node 4, Type 0, BuildingBlock: CEKHIL_clean_sbu_0, # of connection points: 4
#     Node 5, Type 0, BuildingBlock: CEKHIL_clean_sbu_0, # of connection points: 4
#     Node 6, Type 0, BuildingBlock: CEKHIL_clean_sbu_0, # of connection points: 4
#     Node 7, Type 0, BuildingBlock: CEKHIL_clean_sbu_0, # of connection points: 4
#     Node 8, Type 0, BuildingBlock: CEKHIL_clean_sbu_0, # of connection points: 4
#     Node 9, Type 0, BuildingBlock: CEKHIL_clean_sbu_0, # of connection points: 4
#     Node 10, Type 0, BuildingBlock: CEKHIL_clean_sbu_0, # of connection points: 4
#     Node 11, Type 0, BuildingBlock: CEKHIL_clean_sbu_0, # of connection points: 4
#     Node 12, Type 0, BuildingBlock: CEKHIL_clean_sbu_0, # of connection points: 4
#     Node 13, Type 0, BuildingBlock: CEKHIL_clean_sbu_0, # of connection points: 4
#     Node 14, Type 0, BuildingBlock: CEKHIL_clean_sbu_0, # of connection points: 4
#     Node 15, Type 0, BuildingBlock: CEKHIL_clean_sbu_0, # of connection points: 4
#     Edge 16, Type (0, 0), BuildingBlock: EZIPEK_clean_linker_0, # of connection points: 2
#     Edge 17, Type (0, 0), BuildingBlock: EZIPEK_clean_linker_0, # of connection points: 2
#     Edge 18, Type (0, 0), BuildingBlock: EZIPEK_clean_linker_0, # of connection points: 2
#     Edge 19, Type (0, 0), BuildingBlock: EZIPEK_clean_linker_0, # of connection points: 2
#     Edge 20, Type (0, 0), BuildingBlock: EZIPEK_clean_linker_0, # of connection points: 2
#     Edge 21, Type (0, 0), BuildingBlock: EZIPEK_clean_linker_0, # of connection points: 2
#     Edge 22, Type (0, 0), BuildingBlock: EZIPEK_clean_linker_0, # of connection points: 2
#     Edge 23, Type (0, 0), BuildingBlock: EZIPEK_clean_linker_0, # of connection points: 2
#     Edge 24, Type (0, 0), BuildingBlock: EZIPEK_clean_linker_0, # of connection points: 2
#     Edge 25, Type (0, 0), BuildingBlock: EZIPEK_clean_linker_0, # of connection points: 2
#     Edge 26, Type (0, 0), BuildingBlock: EZIPEK_clean_linker_0, # of connection points: 2
#     Edge 27, Type (0, 0), BuildingBlock: EZIPEK_clean_linker_0, # of connection points: 2
#     Edge 28, Type (0, 0), BuildingBlock: EZIPEK_clean_linker_0, # of connection points: 2
#     Edge 29, Type (0, 0), BuildingBlock: EZIPEK_clean_linker_0, # of connection points: 2
#     Edge 30, Type (0, 0), BuildingBlock: EZIPEK_clean_linker_0, # of connection points: 2
#     Edge 31, Type (0, 0), BuildingBlock: EZIPEK_clean_linker_0, # of connection points: 2
#     Edge 32, Type (0, 0), BuildingBlock: EZIPEK_clean_linker_0, # of connection points: 2
#     Edge 33, Type (0, 0), BuildingBlock: EZIPEK_clean_linker_0, # of connection points: 2
#     Edge 34, Type (0, 0), BuildingBlock: EZIPEK_clean_linker_0, # of connection points: 2
#     Edge 35, Type (0, 0), BuildingBlock: EZIPEK_clean_linker_0, # of connection points: 2
#     Edge 36, Type (0, 0), BuildingBlock: EZIPEK_clean_linker_0, # of connection points: 2
#     Edge 37, Type (0, 0), BuildingBlock: EZIPEK_clean_linker_0, # of connection points: 2
#     Edge 38, Type (0, 0), BuildingBlock: EZIPEK_clean_linker_0, # of connection points: 2
#     Edge 39, Type (0, 0), BuildingBlock: EZIPEK_clean_linker_0, # of connection points: 2
#     Edge 40, Type (0, 0), BuildingBlock: EZIPEK_clean_linker_0, # of connection points: 2
#     Edge 41, Type (0, 0), BuildingBlock: EZIPEK_clean_linker_0, # of connection points: 2
#     Edge 42, Type (0, 0), BuildingBlock: EZIPEK_clean_linker_0, # of connection points: 2
#     Edge 43, Type (0, 0), BuildingBlock: EZIPEK_clean_linker_0, # of connection points: 2
#     Edge 44, Type (0, 0), BuildingBlock: EZIPEK_clean_linker_0, # of connection points: 2
#     Edge 45, Type (0, 0), BuildingBlock: EZIPEK_clean_linker_0, # of connection points: 2
#     Edge 46, Type (0, 0), BuildingBlock: EZIPEK_clean_linker_0, # of connection points: 2
#     Edge 47, Type (0, 0), BuildingBlock: EZIPEK_clean_linker_0, # of connection points: 2
# Relax obj value: 0.040
# Max RMSD: 0.061
# Mean RMSD: 0.061
data_MOF--net-uoy--node1-CEKHIL_clean_sbu_0--edge1-EZIPEK_clean_linker_0
_symmetry_space_group_name_H-M    P1
_symmetry_Int_Tables_number       1
_symmetry_cell_setting            triclinic
loop_
_symmetry_equiv_pos_as_xyz
'x, y, z'
_cell_length_a     20.026223
_cell_length_b     20.134013
_cell_length_c     77.344726
_cell_angle_alpha  90.196436
_cell_angle_beta   90.006249
_cell_angle_gamma 89.960054
loop_
_atom_site_label
_atom_site_type_symbol
_atom_site_fract_x
_atom_site_fract_y
_atom_site_fract_z
_atom_type_partial_charge
Co0 Co 0.24197 0.12243 0.18963 0.0
O1 O 0.14564 0.13408 0.19026 0.0
O2 O 0.19669 0.04221 0.18185 0.0
C3 C 0.25912 0.16735 0.21647 0.0
O4 O 0.33878 0.08823 0.188 0.0
Co5 Co 0.3435 0.23736 0.19224 0.0
O6 O 0.41224 0.16767 0.19548 0.0
C7 C 0.26799 0.21556 0.15984 0.0
C8 C 0.14092 0.07309 0.18493 0.0
C9 C 0.39876 0.10783 0.19147 0.0
O10 O 0.24586 0.15936 0.16535 0.0
O11 O 0.30251 0.25562 0.16911 0.0
O12 O 0.24243 0.10537 0.21446 0.0
O13 O 0.26321 0.20009 0.20223 0.0
Co14 Co 0.90425 0.739 0.43985 0.0
O15 O 0.89023 0.6439 0.44175 0.0
O16 O 0.98496 0.69101 0.4337 0.0
C17 C 0.85586 0.76716 0.46563 0.0
O18 O 0.94173 0.83354 0.43724 0.0
Co19 Co 0.78901 0.8384 0.43733 0.0
O20 O 0.85876 0.90816 0.43537 0.0
C21 C 0.81724 0.75336 0.40777 0.0
C22 C 0.95203 0.63696 0.43696 0.0
C23 C 0.9206 0.89375 0.43568 0.0
O24 O 0.87326 0.73698 0.41478 0.0
O25 O 0.77278 0.78748 0.4156 0.0
O26 O 0.91706 0.74582 0.46492 0.0
O27 O 0.82385 0.76555 0.45111 0.0
Co28 Co 0.26317 0.39938 0.68786 0.0
O29 O 0.35733 0.37955 0.6906 0.0
O30 O 0.31712 0.4731 0.6799 0.0
C31 C 0.23312 0.36413 0.71449 0.0
O32 O 0.17127 0.44187 0.68377 0.0
Co33 Co 0.15007 0.29504 0.68976 0.0
O34 O 0.09002 0.37263 0.69233 0.0
C35 C 0.23363 0.30418 0.65819 0.0
C36 C 0.36886 0.43869 0.68462 0.0
C37 C 0.1098 0.42975 0.68757 0.0
O38 O 0.26348 0.35625 0.66414 0.0
O39 O 0.19006 0.27151 0.66679 0.0
O40 O 0.25771 0.42328 0.71239 0.0
O41 O 0.23061 0.3273 0.70082 0.0
Co42 Co 0.61913 0.78835 0.93883 0.0
O43 O 0.63533 0.88285 0.94158 0.0
O44 O 0.54371 0.83958 0.93031 0.0
C45 C 0.65297 0.75966 0.96585 0.0
O46 O 0.58157 0.69487 0.93447 0.0
Co47 Co 0.73083 0.68164 0.94187 0.0
O48 O 0.65532 0.61785 0.94319 0.0
C49 C 0.71712 0.76013 0.90964 0.0
C50 C 0.57613 0.89233 0.93518 0.0
C51 C 0.59744 0.63415 0.93783 0.0
O52 O 0.66297 0.78777 0.91517 0.0
O53 O 0.75289 0.72078 0.91875 0.0
O54 O 0.59316 0.7826 0.96329 0.0
O55 O 0.69143 0.75919 0.95248 0.0
Co56 Co 0.24431 0.3977 0.05961 0.0
O57 O 0.14794 0.38633 0.05925 0.0
O58 O 0.19941 0.47804 0.06752 0.0
C59 C 0.25964 0.35286 0.03271 0.0
O60 O 0.3412 0.43183 0.06087 0.0
Co61 Co 0.34571 0.28276 0.0565 0.0
O62 O 0.41456 0.3523 0.05332 0.0
C63 C 0.27045 0.30291 0.08897 0.0
C64 C 0.14348 0.44743 0.06451 0.0
C65 C 0.40108 0.4122 0.05728 0.0
O66 O 0.24951 0.36017 0.08383 0.0
O67 O 0.30316 0.26263 0.07932 0.0
O68 O 0.24342 0.41494 0.03479 0.0
O69 O 0.26468 0.32007 0.04691 0.0
Co70 Co 0.62673 0.73065 0.30938 0.0
O71 O 0.64363 0.63648 0.30619 0.0
O72 O 0.55386 0.67831 0.3188 0.0
C73 C 0.65456 0.76073 0.28205 0.0
O74 O 0.5886 0.82333 0.31435 0.0
Co75 Co 0.73711 0.83762 0.30525 0.0
O76 O 0.66145 0.90182 0.30607 0.0
C77 C 0.73429 0.75375 0.33641 0.0
C78 C 0.58583 0.62615 0.3133 0.0
C79 C 0.60389 0.88448 0.31146 0.0
O80 O 0.67587 0.7314 0.33236 0.0
O81 O 0.77013 0.78832 0.32609 0.0
O82 O 0.59559 0.73703 0.28531 0.0
O83 O 0.69569 0.76078 0.29485 0.0
Co84 Co 0.25551 0.09869 0.55996 0.0
O85 O 0.35036 0.11485 0.55711 0.0
O86 O 0.30681 0.02354 0.5682 0.0
C87 C 0.22621 0.13383 0.5332 0.0
O88 O 0.16245 0.05926 0.56431 0.0
Co89 Co 0.14612 0.20639 0.55805 0.0
O90 O 0.08223 0.13147 0.55679 0.0
C91 C 0.2302 0.1962 0.58943 0.0
C92 C 0.35978 0.05587 0.56347 0.0
C93 C 0.10082 0.07362 0.56129 0.0
O94 O 0.25793 0.14286 0.58354 0.0
O95 O 0.18752 0.23004 0.58083 0.0
O96 O 0.24846 0.07384 0.53551 0.0
O97 O 0.2253 0.17148 0.54673 0.0
Co98 Co 0.90845 0.76708 0.81024 0.0
O99 O 0.88879 0.86102 0.80854 0.0
O100 O 0.98339 0.81937 0.81852 0.0
C101 C 0.87121 0.74041 0.78338 0.0
O102 O 0.94981 0.67463 0.8133 0.0
Co103 Co 0.79937 0.65814 0.80761 0.0
O104 O 0.876 0.59553 0.80586 0.0
C105 C 0.80967 0.74168 0.839 0.0
C106 C 0.94854 0.87153 0.81448 0.0
C107 C 0.93482 0.61358 0.81006 0.0
O108 O 0.86722 0.76352 0.83415 0.0
O109 O 0.77191 0.70638 0.82925 0.0
O110 O 0.93085 0.76454 0.78549 0.0
O111 O 0.83512 0.7374 0.79714 0.0
Co112 Co 0.72932 0.61529 0.69156 0.0
O113 O 0.63316 0.62402 0.69291 0.0
O114 O 0.6863 0.5361 0.68251 0.0
C115 C 0.75346 0.65088 0.71864 0.0
O116 O 0.82708 0.58652 0.68901 0.0
Co117 Co 0.82156 0.73976 0.69456 0.0
O118 O 0.89538 0.67429 0.69283 0.0
C119 C 0.74803 0.7152 0.66233 0.0
C120 C 0.62999 0.56462 0.6864 0.0
C121 C 0.88592 0.61246 0.69019 0.0
O122 O 0.73033 0.65732 0.66774 0.0
O123 O 0.77839 0.75792 0.67174 0.0
O124 O 0.73258 0.59063 0.71602 0.0
O125 O 0.75083 0.68927 0.70531 0.0
Co126 Co 0.4011 0.25507 0.93821 0.0
O127 O 0.38873 0.15979 0.94035 0.0
O128 O 0.48207 0.20789 0.9317 0.0
C129 C 0.35524 0.28279 0.9643 0.0
O130 O 0.43639 0.35021 0.9355 0.0
Co131 Co 0.28406 0.35193 0.93622 0.0
O132 O 0.35193 0.42344 0.93439 0.0
C133 C 0.31047 0.26689 0.9067 0.0
C134 C 0.4502 0.15348 0.93529 0.0
C135 C 0.414 0.41016 0.93455 0.0
O136 O 0.36754 0.25188 0.91335 0.0
O137 O 0.26613 0.30028 0.91477 0.0
O138 O 0.41684 0.263 0.96306 0.0
O139 O 0.32147 0.28021 0.95003 0.0
Co140 Co 0.7762 0.89987 0.18973 0.0
O141 O 0.87179 0.88453 0.19095 0.0
O142 O 0.82532 0.97725 0.18168 0.0
C143 C 0.75117 0.86186 0.21641 0.0
O144 O 0.68014 0.93702 0.18786 0.0
Co145 Co 0.67283 0.78541 0.19143 0.0
O146 O 0.60461 0.85623 0.19249 0.0
C147 C 0.74868 0.80578 0.15921 0.0
C148 C 0.87961 0.9448 0.18538 0.0
C149 C 0.61928 0.91705 0.19019 0.0
O150 O 0.77408 0.85966 0.16552 0.0
O151 O 0.71028 0.7677 0.16792 0.0
O152 O 0.77505 0.92127 0.21438 0.0
O153 O 0.74978 0.8253 0.20264 0.0
Co154 Co 0.1223 0.27307 0.43924 0.0
O155 O 0.13728 0.36721 0.44306 0.0
O156 O 0.04974 0.32508 0.42952 0.0
C157 C 0.14737 0.24169 0.46667 0.0
O158 O 0.08601 0.18031 0.43356 0.0
Co159 Co 0.23343 0.16701 0.44374 0.0
O160 O 0.15885 0.10197 0.44195 0.0
C161 C 0.23285 0.25264 0.41289 0.0
C162 C 0.08016 0.3772 0.43556 0.0
C163 C 0.10166 0.11911 0.43624 0.0
O164 O 0.17396 0.27453 0.41665 0.0
O165 O 0.26791 0.21755 0.42328 0.0
O166 O 0.08845 0.26458 0.46297 0.0
O167 O 0.19 0.24275 0.4542 0.0
Co168 Co 0.721 0.87869 0.55981 0.0
O169 O 0.62504 0.86603 0.55882 0.0
O170 O 0.67503 0.95753 0.56802 0.0
C171 C 0.74541 0.83943 0.53294 0.0
O172 O 0.81713 0.91283 0.56173 0.0
Co173 Co 0.82034 0.75894 0.55761 0.0
O174 O 0.88995 0.82898 0.5574 0.0
C175 C 0.74649 0.7846 0.5899 0.0
C176 C 0.61979 0.92662 0.56448 0.0
C177 C 0.87713 0.89023 0.56004 0.0
O178 O 0.72507 0.84058 0.58404 0.0
O179 O 0.77936 0.74259 0.58082 0.0
O180 O 0.72156 0.89881 0.53516 0.0
O181 O 0.74604 0.80358 0.54674 0.0
Co182 Co 0.12102 0.23183 0.8079 0.0
O183 O 0.13101 0.13624 0.80695 0.0
O184 O 0.04375 0.18853 0.81808 0.0
C185 C 0.15108 0.25304 0.78031 0.0
O186 O 0.09108 0.32906 0.81008 0.0
Co187 Co 0.24427 0.32454 0.80265 0.0
O188 O 0.17775 0.39726 0.80468 0.0
C189 C 0.22836 0.25317 0.83536 0.0
C190 C 0.07238 0.13263 0.81402 0.0
C191 C 0.11619 0.38768 0.80806 0.0
O192 O 0.16838 0.23616 0.83114 0.0
O193 O 0.26913 0.28102 0.82493 0.0
O194 O 0.09132 0.23209 0.78378 0.0
O195 O 0.19222 0.25244 0.79314 0.0
Co196 Co 0.77866 0.62011 0.05791 0.0
O197 O 0.87424 0.63569 0.05691 0.0
O198 O 0.82777 0.54311 0.06624 0.0
C199 C 0.75455 0.6577 0.03107 0.0
O200 O 0.68271 0.58272 0.05967 0.0
Co201 Co 0.67471 0.73418 0.05579 0.0
O202 O 0.60684 0.6631 0.05479 0.0
C203 C 0.74961 0.71472 0.08822 0.0
C204 C 0.88207 0.57566 0.06267 0.0
C205 C 0.62177 0.60243 0.05729 0.0
O206 O 0.77552 0.66084 0.08204 0.0
O207 O 0.71124 0.75244 0.07938 0.0
O208 O 0.77856 0.59838 0.03326 0.0
O209 O 0.75224 0.69426 0.04483 0.0
Co210 Co 0.40975 0.26434 0.31023 0.0
O211 O 0.39791 0.35968 0.30812 0.0
O212 O 0.49131 0.3108 0.31651 0.0
C213 C 0.36221 0.23691 0.28429 0.0
O214 O 0.4445 0.16897 0.31292 0.0
Co215 Co 0.29197 0.16857 0.31262 0.0
O216 O 0.35951 0.09663 0.31464 0.0
C217 C 0.32053 0.25378 0.34199 0.0
C218 C 0.45961 0.36547 0.31304 0.0
C219 C 0.42168 0.10934 0.31424 0.0
O220 O 0.3776 0.26771 0.3352 0.0
O221 O 0.27533 0.22132 0.334 0.0
O222 O 0.42401 0.25623 0.28529 0.0
O223 O 0.32937 0.2398 0.29869 0.0
C224 C 0.32684 0.27078 0.11623 0.0
C225 C 0.26625 0.28473 0.10749 0.0
C226 C 0.20332 0.25136 0.13333 0.0
C227 C 0.26416 0.23161 0.14122 0.0
N228 N 0.38114 0.20598 0.13832 0.0
N229 N 0.14597 0.2804 0.10667 0.0
C230 C 0.32508 0.23628 0.13206 0.0
C231 C 0.20399 0.27302 0.11575 0.0
N232 N 0.38621 0.29275 0.10968 0.0
N233 N 0.14562 0.25106 0.14273 0.0
H234 H 0.14496 0.29653 0.09387 0.0
H235 H 0.09943 0.26633 0.11139 0.0
H236 H 0.14355 0.23386 0.15543 0.0
H237 H 0.10093 0.27136 0.13834 0.0
H238 H 0.43125 0.28939 0.11637 0.0
H239 H 0.38916 0.32102 0.09845 0.0
H240 H 0.42562 0.20262 0.13137 0.0
H241 H 0.38069 0.17766 0.14958 0.0
C242 C 0.7838 0.68764 0.38121 0.0
C243 C 0.80816 0.74701 0.38884 0.0
C244 C 0.7784 0.80938 0.36301 0.0
C245 C 0.75814 0.74966 0.35463 0.0
N246 N 0.75168 0.63 0.35478 0.0
N247 N 0.84599 0.85964 0.38537 0.0
C248 C 0.7637 0.68798 0.36345 0.0
C249 C 0.81147 0.80613 0.37911 0.0
N250 N 0.77833 0.63172 0.39104 0.0
N251 N 0.76189 0.86983 0.35622 0.0
H252 H 0.87114 0.85882 0.39718 0.0
H253 H 0.85546 0.90195 0.37804 0.0
H254 H 0.73334 0.8752 0.34506 0.0
H255 H 0.76959 0.91456 0.36274 0.0
H256 H 0.75417 0.58876 0.38689 0.0
H257 H 0.79537 0.62973 0.40378 0.0
H258 H 0.7607 0.58327 0.36001 0.0
H259 H 0.73751 0.62862 0.34181 0.0
C260 C 0.24667 0.18006 0.62175 0.0
C261 C 0.24758 0.22177 0.60698 0.0
C262 C 0.24871 0.32017 0.62582 0.0
C263 C 0.24962 0.27841 0.64057 0.0
N264 N 0.27544 0.17001 0.65201 0.0
N265 N 0.27534 0.32949 0.59541 0.0
C266 C 0.25742 0.20875 0.63832 0.0
C267 C 0.25733 0.29123 0.60919 0.0
N268 N 0.23091 0.11425 0.62034 0.0
N269 N 0.23506 0.38643 0.62734 0.0
H270 H 0.2848 0.30933 0.5832 0.0
H271 H 0.2884 0.3794 0.59663 0.0
H272 H 0.22551 0.41 0.63908 0.0
H273 H 0.22696 0.41691 0.61668 0.0
H274 H 0.22292 0.08407 0.63106 0.0
H275 H 0.21931 0.09097 0.60869 0.0
H276 H 0.28716 0.11978 0.65074 0.0
H277 H 0.28623 0.18992 0.66418 0.0
C278 C 0.7643 0.69304 0.86618 0.0
C279 C 0.78767 0.75003 0.85728 0.0
C280 C 0.76256 0.81806 0.88302 0.0
C281 C 0.73329 0.76172 0.89094 0.0
N282 N 0.68827 0.65153 0.88776 0.0
N283 N 0.79919 0.86944 0.85625 0.0
C284 C 0.72841 0.70116 0.88174 0.0
C285 C 0.78426 0.81354 0.86542 0.0
N286 N 0.77934 0.63068 0.8603 0.0
N287 N 0.7709 0.87505 0.89237 0.0
H288 H 0.81411 0.86816 0.84334 0.0
H289 H 0.79157 0.91731 0.86099 0.0
H290 H 0.75346 0.88011 0.90503 0.0
H291 H 0.79837 0.91551 0.88798 0.0
H292 H 0.76829 0.58781 0.86725 0.0
H293 H 0.80987 0.62201 0.84961 0.0
H294 H 0.67859 0.60824 0.88076 0.0
H295 H 0.65856 0.65744 0.89873 0.0
C296 C 0.80479 0.76683 0.61783 0.0
C297 C 0.74355 0.77143 0.60873 0.0
C298 C 0.68262 0.7409 0.63513 0.0
C299 C 0.7446 0.73003 0.64359 0.0
N300 N 0.86437 0.71774 0.64174 0.0
N301 N 0.62419 0.7571 0.60786 0.0
C302 C 0.80559 0.73874 0.63457 0.0
C303 C 0.68223 0.7571 0.61715 0.0
N304 N 0.86215 0.7914 0.61069 0.0
N305 N 0.6246 0.73752 0.64437 0.0
H306 H 0.62233 0.77001 0.59482 0.0
H307 H 0.57874 0.7405 0.61274 0.0
H308 H 0.62343 0.72467 0.65743 0.0
H309 H 0.57828 0.75141 0.63946 0.0
H310 H 0.90684 0.79568 0.6175 0.0
H311 H 0.86352 0.814 0.59857 0.0
H312 H 0.90933 0.71646 0.63497 0.0
H313 H 0.86715 0.695 0.65382 0.0
C314 C 0.279 0.19649 0.88081 0.0
C315 C 0.29893 0.25847 0.88792 0.0
C316 C 0.26377 0.31536 0.86161 0.0
C317 C 0.24844 0.25327 0.85383 0.0
N318 N 0.24861 0.13371 0.85501 0.0
N319 N 0.32623 0.37378 0.88364 0.0
C320 C 0.25802 0.1933 0.86314 0.0
C321 C 0.29646 0.31684 0.8778 0.0
N322 N 0.27845 0.14141 0.89106 0.0
N323 N 0.24399 0.37324 0.85391 0.0
H324 H 0.35166 0.37641 0.8954 0.0
H325 H 0.33174 0.4161 0.87606 0.0
H326 H 0.217 0.37457 0.84238 0.0
H327 H 0.24784 0.41952 0.85989 0.0
H328 H 0.2579 0.09613 0.88731 0.0
H329 H 0.29584 0.14214 0.90378 0.0
H330 H 0.26084 0.08818 0.86051 0.0
H331 H 0.23231 0.13008 0.84223 0.0
C332 C 0.77265 0.80513 0.10993 0.0
C333 C 0.76395 0.73623 0.10641 0.0
C334 C 0.77304 0.71573 0.13752 0.0
C335 C 0.7637 0.78455 0.14104 0.0
N336 N 0.74531 0.89488 0.12942 0.0
N337 N 0.74637 0.6258 0.11805 0.0
C338 C 0.76178 0.82968 0.12696 0.0
C339 C 0.76238 0.6911 0.1205 0.0
N340 N 0.79232 0.84715 0.09708 0.0
N341 N 0.79301 0.67386 0.15038 0.0
H342 H 0.73383 0.60548 0.1061 0.0
H343 H 0.73855 0.59325 0.12831 0.0
H344 H 0.80499 0.69077 0.16277 0.0
H345 H 0.80549 0.6243 0.14811 0.0
H346 H 0.80434 0.8968 0.09936 0.0
H347 H 0.80455 0.83036 0.0847 0.0
H348 H 0.73718 0.92739 0.11916 0.0
H349 H 0.73281 0.91513 0.14138 0.0
C350 C 0.27771 0.19723 0.3864 0.0
C351 C 0.2579 0.25704 0.3948 0.0
C352 C 0.28681 0.31949 0.36853 0.0
C353 C 0.31075 0.25991 0.36089 0.0
N354 N 0.34612 0.1464 0.36429 0.0
N355 N 0.25304 0.37675 0.39489 0.0
C356 C 0.31218 0.2004 0.3705 0.0
C357 C 0.26514 0.31891 0.38617 0.0
N358 N 0.25941 0.1369 0.39295 0.0
N359 N 0.28327 0.37583 0.35881 0.0
H360 H 0.23747 0.37783 0.40776 0.0
H361 H 0.26313 0.42353 0.38984 0.0
H362 H 0.30153 0.37789 0.34618 0.0
H363 H 0.25962 0.41916 0.36292 0.0
H364 H 0.26686 0.09225 0.38637 0.0
H365 H 0.22969 0.13175 0.40391 0.0
H366 H 0.35417 0.10364 0.37156 0.0
H367 H 0.37219 0.14711 0.35261 0.0
C368 C 0.25096 0.16219 0.24878 0.0
C369 C 0.27369 0.19676 0.23402 0.0
C370 C 0.33767 0.27063 0.25347 0.0
C371 C 0.32865 0.22473 0.26721 0.0
N372 N 0.2788 0.1222 0.27701 0.0
N373 N 0.32878 0.29538 0.22306 0.0
C374 C 0.28529 0.16965 0.26466 0.0
C375 C 0.31415 0.25444 0.23653 0.0
N376 N 0.19404 0.12492 0.24792 0.0
N377 N 0.36391 0.33208 0.25686 0.0
H378 H 0.29825 0.2999 0.21227 0.0
H379 H 0.36906 0.32813 0.22319 0.0
H380 H 0.37669 0.34804 0.26925 0.0
H381 H 0.3661 0.37016 0.24781 0.0
H382 H 0.17235 0.10294 0.25874 0.0
H383 H 0.16339 0.12431 0.23701 0.0
H384 H 0.25347 0.07761 0.27498 0.0
H385 H 0.30498 0.12423 0.28847 0.0
C386 C 0.80782 0.84966 0.48689 0.0
C387 C 0.82266 0.78313 0.48247 0.0
C388 C 0.77729 0.7498 0.51069 0.0
C389 C 0.77534 0.81779 0.51606 0.0
N390 N 0.8154 0.92911 0.50992 0.0
N391 N 0.82732 0.66843 0.49137 0.0
C392 C 0.79854 0.86684 0.5044 0.0
C393 C 0.81004 0.73271 0.49484 0.0
N394 N 0.7995 0.89652 0.47452 0.0
N395 N 0.7444 0.70201 0.51983 0.0
H396 H 0.84695 0.65331 0.4795 0.0
H397 H 0.82584 0.63118 0.50069 0.0
H398 H 0.7145 0.71218 0.53051 0.0
H399 H 0.74002 0.65311 0.51552 0.0
H400 H 0.7838 0.9448 0.47736 0.0
H401 H 0.80034 0.88447 0.46152 0.0
H402 H 0.83592 0.96438 0.50161 0.0
H403 H 0.8187 0.942 0.52295 0.0
C404 C 0.24923 0.28316 0.73871 0.0
C405 C 0.21338 0.33766 0.73166 0.0
C406 C 0.13264 0.3324 0.75555 0.0
C407 C 0.17028 0.28002 0.76312 0.0
N408 N 0.26375 0.20436 0.76214 0.0
N409 N 0.12701 0.42032 0.73431 0.0
C410 C 0.22852 0.25519 0.75475 0.0
C411 C 0.15677 0.3639 0.74034 0.0
N412 N 0.30301 0.25796 0.72993 0.0
N413 N 0.07339 0.35208 0.76274 0.0
H414 H 0.14172 0.44329 0.72294 0.0
H415 H 0.0913 0.44739 0.74112 0.0
H416 H 0.05662 0.33683 0.7748 0.0
H417 H 0.03889 0.38217 0.75643 0.0
H418 H 0.32691 0.21368 0.73298 0.0
H419 H 0.32347 0.28063 0.71905 0.0
H420 H 0.31104 0.1893 0.7582 0.0
H421 H 0.2462 0.17708 0.77263 0.0
C422 C 0.682 0.64579 0.00448 0.0
C423 C 0.73057 0.68229 0.01398 0.0
C424 C 0.72939 0.76913 0.99154 0.0
C425 C 0.67679 0.73517 0.98294 0.0
N426 N 0.59517 0.64734 0.98279 0.0
N427 N 0.80189 0.77849 0.01661 0.0
C428 C 0.651 0.67526 0.98985 0.0
C429 C 0.75446 0.74408 0.00753 0.0
N430 N 0.66548 0.58252 0.00922 0.0
N431 N 0.75591 0.82511 0.98427 0.0
H432 H 0.82801 0.75842 0.02701 0.0
H433 H 0.81477 0.8276 0.01416 0.0
H434 H 0.73561 0.84791 0.97338 0.0
H435 H 0.79954 0.84795 0.98851 0.0
H436 H 0.63875 0.55023 0.00127 0.0
H437 H 0.68025 0.56055 0.02075 0.0
H438 H 0.56902 0.60824 0.98839 0.0
H439 H 0.5712 0.66731 0.97213 0.0
C440 C 0.24733 0.35753 0.00051 0.0
C441 C 0.27197 0.32317 0.01509 0.0
C442 C 0.33345 0.24897 0.99521 0.0
C443 C 0.32292 0.29482 0.98153 0.0
N444 N 0.27159 0.3972 0.97204 0.0
N445 N 0.32846 0.22464 0.02569 0.0
C446 C 0.27971 0.34989 0.98436 0.0
C447 C 0.31208 0.26539 0.01231 0.0
N448 N 0.19048 0.39481 0.0018 0.0
N449 N 0.3591 0.18738 0.99165 0.0
H450 H 0.29934 0.22029 0.03674 0.0
H451 H 0.3687 0.19182 0.02524 0.0
H452 H 0.37022 0.17123 0.97916 0.0
H453 H 0.36231 0.14938 0.0007 0.0
H454 H 0.16739 0.41663 0.99116 0.0
H455 H 0.16126 0.39561 0.01297 0.0
H456 H 0.24642 0.44179 0.97424 0.0
H457 H 0.29628 0.39507 0.96037 0.0
C458 C 0.65096 0.84631 0.25833 0.0
C459 C 0.67531 0.7849 0.2647 0.0
C460 C 0.75121 0.77556 0.23984 0.0
C461 C 0.72659 0.83699 0.23338 0.0
N462 N 0.66169 0.93691 0.23805 0.0
N463 N 0.7389 0.68488 0.26024 0.0
C464 C 0.67907 0.87418 0.24309 0.0
C465 C 0.72294 0.74791 0.25511 0.0
N466 N 0.59837 0.87641 0.2664 0.0
N467 N 0.80518 0.74616 0.2321 0.0
H468 H 0.7189 0.66294 0.27129 0.0
H469 H 0.76711 0.65196 0.25284 0.0
H470 H 0.82964 0.76633 0.22145 0.0
H471 H 0.83032 0.7054 0.23717 0.0
H472 H 0.57247 0.91695 0.26145 0.0
H473 H 0.57644 0.85681 0.27739 0.0
H474 H 0.63634 0.9704 0.24596 0.0
H475 H 0.67402 0.95711 0.22612 0.0
C476 C 0.13145 0.15911 0.49084 0.0
C477 C 0.16533 0.21515 0.48402 0.0
C478 C 0.24356 0.21245 0.50849 0.0
C479 C 0.20653 0.15969 0.51594 0.0
N480 N 0.11013 0.08832 0.51539 0.0
N481 N 0.24581 0.30296 0.48789 0.0
C482 C 0.14919 0.13442 0.5074 0.0
C483 C 0.21936 0.24392 0.49326 0.0
N484 N 0.08392 0.12768 0.48121 0.0
N485 N 0.3033 0.23085 0.5156 0.0
H486 H 0.22857 0.32823 0.47701 0.0
H487 H 0.28032 0.33012 0.49508 0.0
H488 H 0.32312 0.20845 0.52661 0.0
H489 H 0.33616 0.26388 0.50974 0.0
H490 H 0.06368 0.0816 0.48429 0.0
H491 H 0.06808 0.14575 0.46938 0.0
H492 H 0.06305 0.07413 0.51101 0.0
H493 H 0.12296 0.06759 0.52717 0.0
C494 C 0.75934 0.7323 0.7434 0.0
C495 C 0.78319 0.67312 0.73536 0.0
C496 C 0.86981 0.66266 0.75777 0.0
C497 C 0.84403 0.71974 0.76626 0.0
N498 N 0.76366 0.80864 0.76783 0.0
N499 N 0.85603 0.57705 0.73606 0.0
C500 C 0.78865 0.75454 0.75921 0.0
C501 C 0.83674 0.63679 0.74292 0.0
N502 N 0.70808 0.76696 0.73595 0.0
N503 N 0.92725 0.63398 0.76366 0.0
H504 H 0.83989 0.55903 0.72417 0.0
H505 H 0.8868 0.54352 0.74248 0.0
H506 H 0.95145 0.65019 0.77475 0.0
H507 H 0.95391 0.59777 0.75694 0.0
H508 H 0.69391 0.81468 0.7396 0.0
H509 H 0.67981 0.74865 0.72568 0.0
H510 H 0.71873 0.8318 0.76483 0.0
H511 H 0.78708 0.82988 0.77854 0.0
C512 C 0.03296 0.04278 0.1698 0.0
C513 C 0.07521 0.03814 0.18449 0.0
C514 C 0.98732 0.97763 0.20006 0.0
C515 C 0.94708 0.97692 0.18489 0.0
N516 N 0.93613 0.99985 0.15444 0.0
N517 N 0.09737 0.99165 0.2126 0.0
C518 C 0.97105 0.00732 0.16951 0.0
C519 C 0.05386 1.00241 0.19927 0.0
N520 N 0.05167 0.08174 0.1562 0.0
N521 N 0.96072 0.95846 0.21555 0.0
H522 H 0.14588 0.0104 0.21278 0.0
H523 H 0.08739 0.95947 0.22279 0.0
H524 H 0.91156 0.94252 0.21697 0.0
H525 H 0.98505 0.96487 0.22734 0.0
H526 H 0.02014 0.0934 0.14595 0.0
H527 H 0.09755 0.10622 0.15575 0.0
H528 H 0.95407 0.01486 0.14245 0.0
H529 H 0.89152 0.9733 0.15367 0.0
C530 C 0.03653 0.47875 0.42002 0.0
C531 C 0.04771 0.444 0.43571 0.0
C532 C 1.00065 0.538 0.45213 0.0
C533 C 0.98486 0.57053 0.43641 0.0
N534 N 0.97948 0.56911 0.40531 0.0
N535 N 0.0303 0.43545 0.46651 0.0
C536 C 1.00064 0.54017 0.42031 0.0
C537 C 0.02716 0.47234 0.45172 0.0
N538 N 0.06224 0.45411 0.40493 0.0
N539 N 0.99235 0.57075 0.46751 0.0
H540 H 0.04939 0.38735 0.46686 0.0
H541 H 0.00878 0.45011 0.47816 0.0
H542 H 0.97239 0.61848 0.4684 0.0
H543 H 0.01027 0.55305 0.47926 0.0
H544 H 0.06221 0.48015 0.39333 0.0
H545 H 0.08846 0.40936 0.40428 0.0
H546 H 0.98284 0.54634 0.39324 0.0
H547 H 0.95376 0.61419 0.40506 0.0
C548 C 0.47477 0.47003 0.70025 0.0
C549 C 0.43736 0.46796 0.68462 0.0
C550 C 0.5262 0.53114 0.67001 0.0
C551 C 0.5653 0.52858 0.68529 0.0
N552 N 0.5828 0.48439 0.71386 0.0
N553 N 0.43235 0.4863 0.65385 0.0
C554 C 0.54143 0.49437 0.70004 0.0
C555 C 0.46439 0.49583 0.66927 0.0
N556 N 0.44541 0.45276 0.71556 0.0
N557 N 0.54756 0.56834 0.65634 0.0
H558 H 0.38796 0.45953 0.65276 0.0
H559 H 0.45259 0.49961 0.64196 0.0
H560 H 0.5935 0.59276 0.65627 0.0
H561 H 0.51807 0.57862 0.64559 0.0
H562 H 0.46778 0.46043 0.72755 0.0
H563 H 0.39602 0.43704 0.71655 0.0
H564 H 0.57084 0.45338 0.72415 0.0
H565 H 0.63165 0.50215 0.71431 0.0
C566 C 0.488 0.05028 0.91936 0.0
C567 C 0.48387 0.0874 0.93496 0.0
C568 C 0.53565 0.99495 0.95077 0.0
C569 C 0.54472 0.95975 0.93496 0.0
N570 N 0.5385 0.95775 0.90385 0.0
N571 N 0.51297 0.10012 0.96502 0.0
C572 C 0.52311 0.9884 0.91914 0.0
C573 C 0.51051 0.06118 0.95051 0.0
N574 N 0.45708 0.07355 0.90483 0.0
N575 N 0.54772 0.96392 0.96616 0.0
H576 H 0.49397 0.14833 0.96545 0.0
H577 H 0.53873 0.08688 0.97619 0.0
H578 H 0.5649 0.91519 0.96704 0.0
H579 H 0.53484 0.98409 0.97812 0.0
H580 H 0.45158 0.04576 0.89354 0.0
H581 H 0.43257 0.11928 0.90445 0.0
H582 H 0.53048 0.97917 0.8918 0.0
H583 H 0.56454 0.91291 0.9032 0.0
C584 C 0.05724 0.51767 0.04966 0.0
C585 C 0.07799 0.48297 0.06467 0.0
C586 C 0.97304 0.51476 0.07916 0.0
C587 C 0.94968 0.54386 0.06355 0.0
N588 N 0.96477 0.56028 0.03286 0.0
N589 N 0.05354 0.44195 0.09316 0.0
C590 C 0.99065 0.54222 0.04853 0.0
C591 C 0.03516 0.47952 0.07927 0.0
N592 N 0.1014 0.5278 0.03645 0.0
N593 N 0.93731 0.52323 0.09407 0.0
H594 H 0.09969 0.41804 0.09392 0.0
H595 H 0.02167 0.431 0.10339 0.0
H596 H 0.8925 0.54961 0.09455 0.0
H597 H 0.95467 0.5092 0.1062 0.0
H598 H 0.09174 0.55919 0.02607 0.0
H599 H 0.15011 0.50954 0.03657 0.0
H600 H 0.98968 0.55304 0.02119 0.0
H601 H 0.91566 0.57614 0.0312 0.0
C602 C 0.53709 0.5281 0.32937 0.0
C603 C 0.55484 0.55863 0.31348 0.0
C604 C 0.5167 0.45926 0.29767 0.0
C605 C 0.49363 0.4313 0.31338 0.0
N606 N 0.47417 0.44154 0.34399 0.0
N607 N 0.55066 0.55814 0.28226 0.0
C608 C 0.50175 0.46641 0.3292 0.0
C609 C 0.54198 0.52538 0.29756 0.0
N610 N 0.55627 0.55684 0.34461 0.0
N611 N 0.51586 0.42198 0.28286 0.0
H612 H 0.5681 0.60677 0.28149 0.0
H613 H 0.53484 0.53948 0.27038 0.0
H614 H 0.49694 0.37377 0.28235 0.0
H615 H 0.53901 0.43649 0.27143 0.0
H616 H 0.55116 0.53397 0.35659 0.0
H617 H 0.58254 0.60153 0.34519 0.0
H618 H 0.47168 0.46791 0.35557 0.0
H619 H 0.44929 0.39604 0.34437 0.0
C620 C 0.51375 0.96151 0.57971 0.0
C621 C 0.55434 0.96173 0.56468 0.0
C622 C 0.46603 0.01993 0.5487 0.0
C623 C 0.42743 0.02472 0.56407 0.0
N624 N 0.41946 0.01015 0.59495 0.0
N625 N 0.57492 1.00239 0.53587 0.0
C626 C 0.45256 0.99808 0.5798 0.0
C627 C 0.53224 0.99452 0.5495 0.0
N628 N 0.53325 0.92559 0.59379 0.0
N629 N 0.43826 0.03593 0.5331 0.0
H630 H 0.62351 0.9839 0.53583 0.0
H631 H 0.56428 0.03241 0.52528 0.0
H632 H 0.38927 0.05253 0.53171 0.0
H633 H 0.46144 0.02633 0.52129 0.0
H634 H 0.50269 0.91722 0.60445 0.0
H635 H 0.57862 0.90012 0.59431 0.0
H636 H 0.43846 0.99789 0.60705 0.0
H637 H 0.37555 0.03795 0.59558 0.0
C638 C 0.03828 0.02891 0.83014 0.0
C639 C 0.03632 0.06808 0.81494 0.0
C640 C 0.98061 0.97723 0.79938 0.0
C641 C 0.97795 0.93961 0.81487 0.0
N642 N 0.99396 0.93394 0.84572 0.0
N643 N 0.9929 0.08542 0.78623 0.0
C644 C 1.00407 0.96661 0.83049 0.0
C645 C 1.00346 0.04401 0.79993 0.0
N646 N 0.07394 0.05067 0.84412 0.0
N647 N 0.96501 0.94813 0.78389 0.0
H648 H 0.00853 0.13475 0.78615 0.0
H649 H 0.96291 0.07296 0.77571 0.0
H650 H 0.95004 0.8988 0.78268 0.0
H651 H 0.97343 0.9708 0.772 0.0
H652 H 0.08369 0.02144 0.85491 0.0
H653 H 0.09755 0.09685 0.84444 0.0
H654 H 1.00579 0.95398 0.85776 0.0
H655 H 0.96835 0.88894 0.84646 0.0
C656 C 0.51461 0.96471 0.20408 0.0
C657 C 0.56292 0.96636 0.19048 0.0
C658 C 0.50614 0.06422 0.17833 0.0
C659 C 0.45483 0.05875 0.19098 0.0
N660 N 0.40611 0.99913 0.21483 0.0
N661 N 0.59454 0.00861 0.16249 0.0
C662 C 0.4577 0.00729 0.20344 0.0
C663 C 0.55613 0.01389 0.17705 0.0
N664 N 0.52445 0.92487 0.21814 0.0
N665 N 0.50751 0.11767 0.1675 0.0
H666 H 0.62938 0.9708 0.16059 0.0
H667 H 0.58695 0.03731 0.15149 0.0
H668 H 0.4709 0.15438 0.1675 0.0
H669 H 0.54777 0.1284 0.15945 0.0
H670 H 0.49623 0.92814 0.22942 0.0
H671 H 0.56436 0.89223 0.21937 0.0
H672 H 0.4006 0.95727 0.22257 0.0
H673 H 0.36619 0.03216 0.21584 0.0
C674 C 0.02077 0.95385 0.42277 0.0
C675 C 0.96911 0.95017 0.4353 0.0
C676 C 0.99169 0.06537 0.44371 0.0
C677 C 0.0507 0.06563 0.43356 0.0
N678 N 0.12267 0.00815 0.41341 0.0
N679 N 0.92198 0.99614 0.46136 0.0
C680 C 0.06578 0.00901 0.42312 0.0
C681 C 0.95903 1.00432 0.44674 0.0
N682 N 0.0253 0.90651 0.41012 0.0
N683 N 0.96597 0.12258 0.45051 0.0
H684 H 0.90513 0.94953 0.46509 0.0
H685 H 0.91732 0.03275 0.47086 0.0
H686 H 0.9861 0.16936 0.44832 0.0
H687 H 0.91998 0.12397 0.45683 0.0
H688 H 0.05748 0.91021 0.3996 0.0
H689 H 0.99291 0.8661 0.40934 0.0
H690 H 0.1407 0.96565 0.40726 0.0
H691 H 0.15328 0.04962 0.41207 0.0
C692 C 0.05949 0.53789 0.69761 0.0
C693 C 0.05854 0.48318 0.68603 0.0
C694 C 0.95075 0.52229 0.67465 0.0
C695 C 0.94602 0.56879 0.68849 0.0
N696 N 0.99347 0.61265 0.71503 0.0
N697 N 1.00259 0.42224 0.66337 0.0
C698 C 0.99994 0.57479 0.70041 0.0
C699 C 1.00377 0.47498 0.67453 0.0
N700 N 0.11712 0.55541 0.70589 0.0
N701 N 0.90694 0.52557 0.66112 0.0
H702 H 0.04304 0.39011 0.66175 0.0
H703 H 0.96041 0.40871 0.65631 0.0
H704 H 0.86986 0.56175 0.66019 0.0
H705 H 0.91183 0.49717 0.64991 0.0
H706 H 0.12174 0.59886 0.71316 0.0
H707 H 0.1623 0.53084 0.70403 0.0
H708 H 0.02824 0.61198 0.72506 0.0
H709 H 0.95062 0.63938 0.71812 0.0
C710 C 0.51487 0.47161 0.92287 0.0
C711 C 0.46164 0.46716 0.9349 0.0
C712 C 0.48763 0.5795 0.94531 0.0
C713 C 0.54719 0.57997 0.93534 0.0
N714 N 0.62068 0.52217 0.91547 0.0
N715 N 0.41056 0.51011 0.96092 0.0
C716 C 0.56192 0.52454 0.92442 0.0
C717 C 0.45153 0.51933 0.94702 0.0
N718 N 0.51898 0.42722 0.9095 0.0
N719 N 0.46473 0.63589 0.95319 0.0
H720 H 0.38783 0.46476 0.96354 0.0
H721 H 0.40645 0.54438 0.971 0.0
H722 H 0.48797 0.68185 0.95217 0.0
H723 H 0.41826 0.63839 0.95923 0.0
H724 H 0.55251 0.43218 0.89929 0.0
H725 H 0.48465 0.38891 0.90769 0.0
H726 H 0.63746 0.47975 0.90905 0.0
H727 H 0.65477 0.56115 0.91528 0.0
C728 C 0.5586 0.50707 0.07108 0.0
C729 C 0.56554 0.55308 0.0573 0.0
C730 C 0.46009 0.51139 0.04466 0.0
C731 C 0.45703 0.46135 0.0575 0.0
N732 N 0.50909 0.40498 0.08149 0.0
N733 N 0.52711 0.59201 0.0294 0.0
C734 C 0.50825 0.45703 0.07021 0.0
C735 C 0.51717 0.55359 0.04371 0.0
N736 N 0.5972 0.51361 0.08557 0.0
N737 N 0.40846 0.5186 0.03324 0.0
H738 H 0.56719 0.62427 0.02798 0.0
H739 H 0.49875 0.58795 0.01816 0.0
H740 H 0.36822 0.48589 0.03255 0.0
H741 H 0.40316 0.55951 0.02515 0.0
H742 H 0.58956 0.4862 0.09679 0.0
H743 H 0.63238 0.55126 0.08717 0.0
H744 H 0.54924 0.39474 0.08961 0.0
H745 H 0.47193 0.3689 0.08181 0.0
C746 C 0.52115 0.0469 0.32643 0.0
C747 C 0.46886 0.05189 0.31412 0.0
C748 C 0.49391 0.93894 0.304 0.0
C749 C 0.55286 0.93788 0.3142 0.0
N750 N 0.62402 0.99273 0.33503 0.0
N751 N 0.4182 0.00884 0.28807 0.0
C752 C 0.56702 0.99267 0.32534 0.0
C753 C 0.45859 0.9995 0.30208 0.0
N754 N 0.52536 0.0921 0.33961 0.0
N755 N 0.47067 0.88261 0.29617 0.0
H756 H 0.39593 0.05435 0.28534 0.0
H757 H 0.4141 0.97438 0.27803 0.0
H758 H 0.49322 0.83635 0.2974 0.0
H759 H 0.42451 0.88054 0.28996 0.0
H760 H 0.55791 0.08713 0.35003 0.0
H761 H 0.49222 0.13172 0.34099 0.0
H762 H 0.64156 0.03442 0.34161 0.0
H763 H 0.65538 0.95163 0.33588 0.0
C764 C 0.98558 0.93335 0.54812 0.0
C765 C 0.93488 0.937 0.56094 0.0
C766 C 0.9956 0.02884 0.57491 0.0
C767 C 0.04848 0.02125 0.5628 0.0
N768 N 0.10189 0.9511 0.54143 0.0
N769 N 0.90038 0.97782 0.58897 0.0
C770 C 0.04624 0.96855 0.55058 0.0
C771 C 0.94212 0.98201 0.57503 0.0
N772 N 0.97471 0.89919 0.53307 0.0
N773 N 0.99671 0.08042 0.58643 0.0
H774 H 0.86247 0.94259 0.58993 0.0
H775 H 0.90748 1.00479 0.60033 0.0
H776 H 0.03753 0.11221 0.58776 0.0
H777 H 0.95588 0.09349 0.59407 0.0
H778 H 1.00753 0.90083 0.52262 0.0
H779 H 0.92968 0.87564 0.5302 0.0
H780 H 0.10387 0.90907 0.53354 0.0
H781 H 0.14805 0.97391 0.54313 0.0
C782 C 0.04208 0.5601 0.79992 0.0
C783 C 0.98717 0.56088 0.8115 0.0
C784 C 0.02547 0.45384 0.82327 0.0
C785 C 0.07186 0.44745 0.80944 0.0
N786 N 0.114 0.49158 0.78239 0.0
N787 N 0.92538 0.50699 0.83428 0.0
C788 C 0.07761 0.4999 0.7972 0.0
C789 C 0.97831 0.50702 0.82314 0.0
N790 N 0.06148 0.61665 0.79163 0.0
N791 N 0.02887 0.41173 0.83707 0.0
H792 H 0.89353 0.54759 0.83578 0.0
H793 H 0.91143 0.46553 0.84144 0.0
H794 H 0.06524 0.37496 0.83825 0.0
H795 H 1.00053 0.41794 0.84825 0.0
H796 H 0.10511 0.61947 0.78432 0.0
H797 H 0.03884 0.66257 0.79359 0.0
H798 H 0.11308 0.5256 0.77226 0.0
H799 H 0.13913 0.44797 0.77925 0.0
loop_
_geom_bond_atom_site_label_1
_geom_bond_atom_site_label_2
_geom_bond_distance
_geom_bond_site_symmetry_2
_ccdc_geom_bond_type
Co0 O1 2.216 . S
Co0 O2 2.091 . S
Co0 O4 2.004 . S
Co0 O10 2.021 . S
Co0 O12 2.137 . S
Co0 O13 2.244 . S
O1 Co0 2.216 . S
O1 C8 1.247 . S
O2 Co0 2.091 . S
O2 C8 1.261 . S
C3 O12 1.247 . S
C3 O13 1.272 . S
O4 Co0 2.004 . S
O4 C9 1.259 . S
Co5 O6 2.061 . S
Co5 O11 2.052 . S
Co5 O13 2.135 . S
O6 Co5 2.061 . S
O6 C9 1.235 . S
C7 O10 1.238 . S
C7 O11 1.241 . S
C8 O1 1.247 . S
C8 O2 1.261 . S
C9 O4 1.259 . S
C9 O6 1.235 . S
O10 Co0 2.021 . S
O10 C7 1.238 . S
O11 Co5 2.052 . S
O11 C7 1.241 . S
O12 Co0 2.137 . S
O12 C3 1.247 . S
O13 Co0 2.244 . S
O13 C3 1.272 . S
O13 Co5 2.135 . S
Co14 O15 2.216 . S
Co14 O16 2.091 . S
Co14 O18 2.004 . S
Co14 O24 2.021 . S
Co14 O26 2.137 . S
Co14 O27 2.244 . S
O15 Co14 2.216 . S
O15 C22 1.247 . S
O16 Co14 2.091 . S
O16 C22 1.261 . S
C17 O26 1.247 . S
C17 O27 1.272 . S
O18 Co14 2.004 . S
O18 C23 1.259 . S
Co19 O20 2.061 . S
Co19 O25 2.052 . S
Co19 O27 2.135 . S
O20 Co19 2.061 . S
O20 C23 1.235 . S
C21 O24 1.238 . S
C21 O25 1.241 . S
C22 O15 1.247 . S
C22 O16 1.261 . S
C23 O18 1.259 . S
C23 O20 1.235 . S
O24 Co14 2.021 . S
O24 C21 1.238 . S
O25 Co19 2.052 . S
O25 C21 1.241 . S
O26 Co14 2.137 . S
O26 C17 1.247 . S
O27 Co14 2.244 . S
O27 C17 1.272 . S
O27 Co19 2.135 . S
Co28 O29 2.216 . S
Co28 O30 2.091 . S
Co28 O32 2.004 . S
Co28 O38 2.021 . S
Co28 O40 2.137 . S
Co28 O41 2.244 . S
O29 Co28 2.216 . S
O29 C36 1.247 . S
O30 Co28 2.091 . S
O30 C36 1.261 . S
C31 O40 1.247 . S
C31 O41 1.272 . S
O32 Co28 2.004 . S
O32 C37 1.259 . S
Co33 O34 2.061 . S
Co33 O39 2.052 . S
Co33 O41 2.135 . S
O34 Co33 2.061 . S
O34 C37 1.235 . S
C35 O38 1.238 . S
C35 O39 1.241 . S
C36 O29 1.247 . S
C36 O30 1.261 . S
C37 O32 1.259 . S
C37 O34 1.235 . S
O38 Co28 2.021 . S
O38 C35 1.238 . S
O39 Co33 2.052 . S
O39 C35 1.241 . S
O40 Co28 2.137 . S
O40 C31 1.247 . S
O41 Co28 2.244 . S
O41 C31 1.272 . S
O41 Co33 2.135 . S
Co42 O43 2.216 . S
Co42 O44 2.091 . S
Co42 O46 2.004 . S
Co42 O52 2.021 . S
Co42 O54 2.137 . S
Co42 O55 2.244 . S
O43 Co42 2.216 . S
O43 C50 1.247 . S
O44 Co42 2.091 . S
O44 C50 1.261 . S
C45 O54 1.247 . S
C45 O55 1.272 . S
O46 Co42 2.004 . S
O46 C51 1.259 . S
Co47 O48 2.061 . S
Co47 O53 2.052 . S
Co47 O55 2.135 . S
O48 Co47 2.061 . S
O48 C51 1.235 . S
C49 O52 1.238 . S
C49 O53 1.241 . S
C50 O43 1.247 . S
C50 O44 1.261 . S
C51 O46 1.259 . S
C51 O48 1.235 . S
O52 Co42 2.021 . S
O52 C49 1.238 . S
O53 Co47 2.052 . S
O53 C49 1.241 . S
O54 Co42 2.137 . S
O54 C45 1.247 . S
O55 Co42 2.244 . S
O55 C45 1.272 . S
O55 Co47 2.135 . S
Co56 O57 2.216 . S
Co56 O58 2.091 . S
Co56 O60 2.004 . S
Co56 O66 2.021 . S
Co56 O68 2.137 . S
Co56 O69 2.244 . S
O57 Co56 2.216 . S
O57 C64 1.247 . S
O58 Co56 2.091 . S
O58 C64 1.261 . S
C59 O68 1.247 . S
C59 O69 1.272 . S
O60 Co56 2.004 . S
O60 C65 1.259 . S
Co61 O62 2.061 . S
Co61 O67 2.052 . S
Co61 O69 2.135 . S
O62 Co61 2.061 . S
O62 C65 1.235 . S
C63 O66 1.238 . S
C63 O67 1.241 . S
C64 O57 1.247 . S
C64 O58 1.261 . S
C65 O60 1.259 . S
C65 O62 1.235 . S
O66 Co56 2.021 . S
O66 C63 1.238 . S
O67 Co61 2.052 . S
O67 C63 1.241 . S
O68 Co56 2.137 . S
O68 C59 1.247 . S
O69 Co56 2.244 . S
O69 C59 1.272 . S
O69 Co61 2.135 . S
Co70 O71 2.216 . S
Co70 O72 2.091 . S
Co70 O74 2.004 . S
Co70 O80 2.021 . S
Co70 O82 2.137 . S
Co70 O83 2.244 . S
O71 Co70 2.216 . S
O71 C78 1.247 . S
O72 Co70 2.091 . S
O72 C78 1.261 . S
C73 O82 1.247 . S
C73 O83 1.272 . S
O74 Co70 2.004 . S
O74 C79 1.259 . S
Co75 O76 2.061 . S
Co75 O81 2.052 . S
Co75 O83 2.135 . S
O76 Co75 2.061 . S
O76 C79 1.235 . S
C77 O80 1.238 . S
C77 O81 1.241 . S
C78 O71 1.247 . S
C78 O72 1.261 . S
C79 O74 1.259 . S
C79 O76 1.235 . S
O80 Co70 2.021 . S
O80 C77 1.238 . S
O81 Co75 2.052 . S
O81 C77 1.241 . S
O82 Co70 2.137 . S
O82 C73 1.247 . S
O83 Co70 2.244 . S
O83 C73 1.272 . S
O83 Co75 2.135 . S
Co84 O85 2.216 . S
Co84 O86 2.091 . S
Co84 O88 2.004 . S
Co84 O94 2.021 . S
Co84 O96 2.137 . S
Co84 O97 2.244 . S
O85 Co84 2.216 . S
O85 C92 1.247 . S
O86 Co84 2.091 . S
O86 C92 1.261 . S
C87 O96 1.247 . S
C87 O97 1.272 . S
O88 Co84 2.004 . S
O88 C93 1.259 . S
Co89 O90 2.061 . S
Co89 O95 2.052 . S
Co89 O97 2.135 . S
O90 Co89 2.061 . S
O90 C93 1.235 . S
C91 O94 1.238 . S
C91 O95 1.241 . S
C92 O85 1.247 . S
C92 O86 1.261 . S
C93 O88 1.259 . S
C93 O90 1.235 . S
O94 Co84 2.021 . S
O94 C91 1.238 . S
O95 Co89 2.052 . S
O95 C91 1.241 . S
O96 Co84 2.137 . S
O96 C87 1.247 . S
O97 Co84 2.244 . S
O97 C87 1.272 . S
O97 Co89 2.135 . S
Co98 O99 2.216 . S
Co98 O100 2.091 . S
Co98 O102 2.004 . S
Co98 O108 2.021 . S
Co98 O110 2.137 . S
Co98 O111 2.244 . S
O99 Co98 2.216 . S
O99 C106 1.247 . S
O100 Co98 2.091 . S
O100 C106 1.261 . S
C101 O110 1.247 . S
C101 O111 1.272 . S
O102 Co98 2.004 . S
O102 C107 1.259 . S
Co103 O104 2.061 . S
Co103 O109 2.052 . S
Co103 O111 2.135 . S
O104 Co103 2.061 . S
O104 C107 1.235 . S
C105 O108 1.238 . S
C105 O109 1.241 . S
C106 O99 1.247 . S
C106 O100 1.261 . S
C107 O102 1.259 . S
C107 O104 1.235 . S
O108 Co98 2.021 . S
O108 C105 1.238 . S
O109 Co103 2.052 . S
O109 C105 1.241 . S
O110 Co98 2.137 . S
O110 C101 1.247 . S
O111 Co98 2.244 . S
O111 C101 1.272 . S
O111 Co103 2.135 . S
Co112 O113 2.216 . S
Co112 O114 2.091 . S
Co112 O116 2.004 . S
Co112 O122 2.021 . S
Co112 O124 2.137 . S
Co112 O125 2.244 . S
O113 Co112 2.216 . S
O113 C120 1.247 . S
O114 Co112 2.091 . S
O114 C120 1.261 . S
C115 O124 1.247 . S
C115 O125 1.272 . S
O116 Co112 2.004 . S
O116 C121 1.259 . S
Co117 O118 2.061 . S
Co117 O123 2.052 . S
Co117 O125 2.135 . S
O118 Co117 2.061 . S
O118 C121 1.235 . S
C119 O122 1.238 . S
C119 O123 1.241 . S
C120 O113 1.247 . S
C120 O114 1.261 . S
C121 O116 1.259 . S
C121 O118 1.235 . S
O122 Co112 2.021 . S
O122 C119 1.238 . S
O123 Co117 2.052 . S
O123 C119 1.241 . S
O124 Co112 2.137 . S
O124 C115 1.247 . S
O125 Co112 2.244 . S
O125 C115 1.272 . S
O125 Co117 2.135 . S
Co126 O127 2.216 . S
Co126 O128 2.091 . S
Co126 O130 2.004 . S
Co126 O136 2.021 . S
Co126 O138 2.137 . S
Co126 O139 2.244 . S
O127 Co126 2.216 . S
O127 C134 1.247 . S
O128 Co126 2.091 . S
O128 C134 1.261 . S
C129 O138 1.247 . S
C129 O139 1.272 . S
O130 Co126 2.004 . S
O130 C135 1.259 . S
Co131 O132 2.061 . S
Co131 O137 2.052 . S
Co131 O139 2.135 . S
O132 Co131 2.061 . S
O132 C135 1.235 . S
C133 O136 1.238 . S
C133 O137 1.241 . S
C134 O127 1.247 . S
C134 O128 1.261 . S
C135 O130 1.259 . S
C135 O132 1.235 . S
O136 Co126 2.021 . S
O136 C133 1.238 . S
O137 Co131 2.052 . S
O137 C133 1.241 . S
O138 Co126 2.137 . S
O138 C129 1.247 . S
O139 Co126 2.244 . S
O139 C129 1.272 . S
O139 Co131 2.135 . S
Co140 O141 2.216 . S
Co140 O142 2.091 . S
Co140 O144 2.004 . S
Co140 O150 2.021 . S
Co140 O152 2.137 . S
Co140 O153 2.244 . S
O141 Co140 2.216 . S
O141 C148 1.247 . S
O142 Co140 2.091 . S
O142 C148 1.261 . S
C143 O152 1.247 . S
C143 O153 1.272 . S
O144 Co140 2.004 . S
O144 C149 1.259 . S
Co145 O146 2.061 . S
Co145 O151 2.052 . S
Co145 O153 2.135 . S
O146 Co145 2.061 . S
O146 C149 1.235 . S
C147 O150 1.238 . S
C147 O151 1.241 . S
C148 O141 1.247 . S
C148 O142 1.261 . S
C149 O144 1.259 . S
C149 O146 1.235 . S
O150 Co140 2.021 . S
O150 C147 1.238 . S
O151 Co145 2.052 . S
O151 C147 1.241 . S
O152 Co140 2.137 . S
O152 C143 1.247 . S
O153 Co140 2.244 . S
O153 C143 1.272 . S
O153 Co145 2.135 . S
Co154 O155 2.216 . S
Co154 O156 2.091 . S
Co154 O158 2.004 . S
Co154 O164 2.021 . S
Co154 O166 2.137 . S
Co154 O167 2.244 . S
O155 Co154 2.216 . S
O155 C162 1.247 . S
O156 Co154 2.091 . S
O156 C162 1.261 . S
C157 O166 1.247 . S
C157 O167 1.272 . S
O158 Co154 2.004 . S
O158 C163 1.259 . S
Co159 O160 2.061 . S
Co159 O165 2.052 . S
Co159 O167 2.135 . S
O160 Co159 2.061 . S
O160 C163 1.235 . S
C161 O164 1.238 . S
C161 O165 1.241 . S
C162 O155 1.247 . S
C162 O156 1.261 . S
C163 O158 1.259 . S
C163 O160 1.235 . S
O164 Co154 2.021 . S
O164 C161 1.238 . S
O165 Co159 2.052 . S
O165 C161 1.241 . S
O166 Co154 2.137 . S
O166 C157 1.247 . S
O167 Co154 2.244 . S
O167 C157 1.272 . S
O167 Co159 2.135 . S
Co168 O169 2.216 . S
Co168 O170 2.091 . S
Co168 O172 2.004 . S
Co168 O178 2.021 . S
Co168 O180 2.137 . S
Co168 O181 2.244 . S
O169 Co168 2.216 . S
O169 C176 1.247 . S
O170 Co168 2.091 . S
O170 C176 1.261 . S
C171 O180 1.247 . S
C171 O181 1.272 . S
O172 Co168 2.004 . S
O172 C177 1.259 . S
Co173 O174 2.061 . S
Co173 O179 2.052 . S
Co173 O181 2.135 . S
O174 Co173 2.061 . S
O174 C177 1.235 . S
C175 O178 1.238 . S
C175 O179 1.241 . S
C176 O169 1.247 . S
C176 O170 1.261 . S
C177 O172 1.259 . S
C177 O174 1.235 . S
O178 Co168 2.021 . S
O178 C175 1.238 . S
O179 Co173 2.052 . S
O179 C175 1.241 . S
O180 Co168 2.137 . S
O180 C171 1.247 . S
O181 Co168 2.244 . S
O181 C171 1.272 . S
O181 Co173 2.135 . S
Co182 O183 2.216 . S
Co182 O184 2.091 . S
Co182 O186 2.004 . S
Co182 O192 2.021 . S
Co182 O194 2.137 . S
Co182 O195 2.244 . S
O183 Co182 2.216 . S
O183 C190 1.247 . S
O184 Co182 2.091 . S
O184 C190 1.261 . S
C185 O194 1.247 . S
C185 O195 1.272 . S
O186 Co182 2.004 . S
O186 C191 1.259 . S
Co187 O188 2.061 . S
Co187 O193 2.052 . S
Co187 O195 2.135 . S
O188 Co187 2.061 . S
O188 C191 1.235 . S
C189 O192 1.238 . S
C189 O193 1.241 . S
C190 O183 1.247 . S
C190 O184 1.261 . S
C191 O186 1.259 . S
C191 O188 1.235 . S
O192 Co182 2.021 . S
O192 C189 1.238 . S
O193 Co187 2.052 . S
O193 C189 1.241 . S
O194 Co182 2.137 . S
O194 C185 1.247 . S
O195 Co182 2.244 . S
O195 C185 1.272 . S
O195 Co187 2.135 . S
Co196 O197 2.216 . S
Co196 O198 2.091 . S
Co196 O200 2.004 . S
Co196 O206 2.021 . S
Co196 O208 2.137 . S
Co196 O209 2.244 . S
O197 Co196 2.216 . S
O197 C204 1.247 . S
O198 Co196 2.091 . S
O198 C204 1.261 . S
C199 O208 1.247 . S
C199 O209 1.272 . S
O200 Co196 2.004 . S
O200 C205 1.259 . S
Co201 O202 2.061 . S
Co201 O207 2.052 . S
Co201 O209 2.135 . S
O202 Co201 2.061 . S
O202 C205 1.235 . S
C203 O206 1.238 . S
C203 O207 1.241 . S
C204 O197 1.247 . S
C204 O198 1.261 . S
C205 O200 1.259 . S
C205 O202 1.235 . S
O206 Co196 2.021 . S
O206 C203 1.238 . S
O207 Co201 2.052 . S
O207 C203 1.241 . S
O208 Co196 2.137 . S
O208 C199 1.247 . S
O209 Co196 2.244 . S
O209 C199 1.272 . S
O209 Co201 2.135 . S
Co210 O211 2.216 . S
Co210 O212 2.091 . S
Co210 O214 2.004 . S
Co210 O220 2.021 . S
Co210 O222 2.137 . S
Co210 O223 2.244 . S
O211 Co210 2.216 . S
O211 C218 1.247 . S
O212 Co210 2.091 . S
O212 C218 1.261 . S
C213 O222 1.247 . S
C213 O223 1.272 . S
O214 Co210 2.004 . S
O214 C219 1.259 . S
Co215 O216 2.061 . S
Co215 O221 2.052 . S
Co215 O223 2.135 . S
O216 Co215 2.061 . S
O216 C219 1.235 . S
C217 O220 1.238 . S
C217 O221 1.241 . S
C218 O211 1.247 . S
C218 O212 1.261 . S
C219 O214 1.259 . S
C219 O216 1.235 . S
O220 Co210 2.021 . S
O220 C217 1.238 . S
O221 Co215 2.052 . S
O221 C217 1.241 . S
O222 Co210 2.137 . S
O222 C213 1.247 . S
O223 Co210 2.244 . S
O223 C213 1.272 . S
O223 Co215 2.135 . S
C224 C225 1.363 . S
C224 C230 1.379 . S
C224 N232 1.356 . S
C225 C224 1.363 . S
C225 C231 1.363 . S
C226 C227 1.363 . S
C226 C231 1.379 . S
C226 N233 1.356 . S
C227 C226 1.363 . S
C227 C230 1.363 . S
N228 C230 1.356 . S
N228 H240 0.984 . S
N228 H241 0.985 . S
N229 C231 1.356 . S
N229 H234 0.984 . S
N229 H235 0.985 . S
C230 C224 1.379 . S
C230 C227 1.363 . S
C230 N228 1.356 . S
C231 C225 1.363 . S
C231 C226 1.379 . S
C231 N229 1.356 . S
N232 C224 1.356 . S
N232 H238 0.984 . S
N232 H239 0.984 . S
N233 C226 1.356 . S
N233 H236 0.984 . S
N233 H237 0.985 . S
H234 N229 0.984 . S
H235 N229 0.985 . S
H236 N233 0.984 . S
H237 N233 0.985 . S
H238 N232 0.984 . S
H239 N232 0.984 . S
H240 N228 0.984 . S
H241 N228 0.985 . S
C242 C243 1.363 . S
C242 C248 1.379 . S
C242 N250 1.356 . S
C243 C242 1.363 . S
C243 C249 1.363 . S
C244 C245 1.363 . S
C244 C249 1.379 . S
C244 N251 1.356 . S
C245 C244 1.363 . S
C245 C248 1.363 . S
N246 C248 1.356 . S
N246 H258 0.984 . S
N246 H259 0.985 . S
N247 C249 1.356 . S
N247 H252 0.984 . S
N247 H253 0.985 . S
C248 C242 1.379 . S
C248 C245 1.363 . S
C248 N246 1.356 . S
C249 C243 1.363 . S
C249 C244 1.379 . S
C249 N247 1.356 . S
N250 C242 1.356 . S
N250 H256 0.984 . S
N250 H257 0.984 . S
N251 C244 1.356 . S
N251 H254 0.984 . S
N251 H255 0.985 . S
H252 N247 0.984 . S
H253 N247 0.985 . S
H254 N251 0.984 . S
H255 N251 0.985 . S
H256 N250 0.984 . S
H257 N250 0.984 . S
H258 N246 0.984 . S
H259 N246 0.985 . S
C260 C261 1.363 . S
C260 C266 1.379 . S
C260 N268 1.356 . S
C261 C260 1.363 . S
C261 C267 1.363 . S
C262 C263 1.363 . S
C262 C267 1.379 . S
C262 N269 1.356 . S
C263 C262 1.363 . S
C263 C266 1.363 . S
N264 C266 1.356 . S
N264 H276 0.984 . S
N264 H277 0.985 . S
N265 C267 1.356 . S
N265 H270 0.984 . S
N265 H271 0.985 . S
C266 C260 1.379 . S
C266 C263 1.363 . S
C266 N264 1.356 . S
C267 C261 1.363 . S
C267 C262 1.379 . S
C267 N265 1.356 . S
N268 C260 1.356 . S
N268 H274 0.984 . S
N268 H275 0.984 . S
N269 C262 1.356 . S
N269 H272 0.984 . S
N269 H273 0.985 . S
H270 N265 0.984 . S
H271 N265 0.985 . S
H272 N269 0.984 . S
H273 N269 0.985 . S
H274 N268 0.984 . S
H275 N268 0.984 . S
H276 N264 0.984 . S
H277 N264 0.985 . S
C278 C279 1.363 . S
C278 C284 1.379 . S
C278 N286 1.356 . S
C279 C278 1.363 . S
C279 C285 1.363 . S
C280 C281 1.363 . S
C280 C285 1.379 . S
C280 N287 1.356 . S
C281 C280 1.363 . S
C281 C284 1.363 . S
N282 C284 1.356 . S
N282 H294 0.984 . S
N282 H295 0.985 . S
N283 C285 1.356 . S
N283 H288 0.984 . S
N283 H289 0.985 . S
C284 C278 1.379 . S
C284 C281 1.363 . S
C284 N282 1.356 . S
C285 C279 1.363 . S
C285 C280 1.379 . S
C285 N283 1.356 . S
N286 C278 1.356 . S
N286 H292 0.984 . S
N286 H293 0.984 . S
N287 C280 1.356 . S
N287 H290 0.984 . S
N287 H291 0.985 . S
H288 N283 0.984 . S
H289 N283 0.985 . S
H290 N287 0.984 . S
H291 N287 0.985 . S
H292 N286 0.984 . S
H293 N286 0.984 . S
H294 N282 0.984 . S
H295 N282 0.985 . S
C296 C297 1.363 . S
C296 C302 1.379 . S
C296 N304 1.356 . S
C297 C296 1.363 . S
C297 C303 1.363 . S
C298 C299 1.363 . S
C298 C303 1.379 . S
C298 N305 1.356 . S
C299 C298 1.363 . S
C299 C302 1.363 . S
N300 C302 1.356 . S
N300 H312 0.984 . S
N300 H313 0.985 . S
N301 C303 1.356 . S
N301 H306 0.984 . S
N301 H307 0.985 . S
C302 C296 1.379 . S
C302 C299 1.363 . S
C302 N300 1.356 . S
C303 C297 1.363 . S
C303 C298 1.379 . S
C303 N301 1.356 . S
N304 C296 1.356 . S
N304 H310 0.984 . S
N304 H311 0.984 . S
N305 C298 1.356 . S
N305 H308 0.984 . S
N305 H309 0.985 . S
H306 N301 0.984 . S
H307 N301 0.985 . S
H308 N305 0.984 . S
H309 N305 0.985 . S
H310 N304 0.984 . S
H311 N304 0.984 . S
H312 N300 0.984 . S
H313 N300 0.985 . S
C314 C315 1.363 . S
C314 C320 1.379 . S
C314 N322 1.356 . S
C315 C314 1.363 . S
C315 C321 1.363 . S
C316 C317 1.363 . S
C316 C321 1.379 . S
C316 N323 1.356 . S
C317 C316 1.363 . S
C317 C320 1.363 . S
N318 C320 1.356 . S
N318 H330 0.984 . S
N318 H331 0.985 . S
N319 C321 1.356 . S
N319 H324 0.984 . S
N319 H325 0.985 . S
C320 C314 1.379 . S
C320 C317 1.363 . S
C320 N318 1.356 . S
C321 C315 1.363 . S
C321 C316 1.379 . S
C321 N319 1.356 . S
N322 C314 1.356 . S
N322 H328 0.984 . S
N322 H329 0.984 . S
N323 C316 1.356 . S
N323 H326 0.984 . S
N323 H327 0.985 . S
H324 N319 0.984 . S
H325 N319 0.985 . S
H326 N323 0.984 . S
H327 N323 0.985 . S
H328 N322 0.984 . S
H329 N322 0.984 . S
H330 N318 0.984 . S
H331 N318 0.985 . S
C332 C333 1.363 . S
C332 C338 1.379 . S
C332 N340 1.356 . S
C333 C332 1.363 . S
C333 C339 1.363 . S
C334 C335 1.363 . S
C334 C339 1.379 . S
C334 N341 1.356 . S
C335 C334 1.363 . S
C335 C338 1.363 . S
N336 C338 1.356 . S
N336 H348 0.984 . S
N336 H349 0.985 . S
N337 C339 1.356 . S
N337 H342 0.984 . S
N337 H343 0.985 . S
C338 C332 1.379 . S
C338 C335 1.363 . S
C338 N336 1.356 . S
C339 C333 1.363 . S
C339 C334 1.379 . S
C339 N337 1.356 . S
N340 C332 1.356 . S
N340 H346 0.984 . S
N340 H347 0.984 . S
N341 C334 1.356 . S
N341 H344 0.984 . S
N341 H345 0.985 . S
H342 N337 0.984 . S
H343 N337 0.985 . S
H344 N341 0.984 . S
H345 N341 0.985 . S
H346 N340 0.984 . S
H347 N340 0.984 . S
H348 N336 0.984 . S
H349 N336 0.985 . S
C350 C351 1.363 . S
C350 C356 1.379 . S
C350 N358 1.356 . S
C351 C350 1.363 . S
C351 C357 1.363 . S
C352 C353 1.363 . S
C352 C357 1.379 . S
C352 N359 1.356 . S
C353 C352 1.363 . S
C353 C356 1.363 . S
N354 C356 1.356 . S
N354 H366 0.984 . S
N354 H367 0.985 . S
N355 C357 1.356 . S
N355 H360 0.984 . S
N355 H361 0.985 . S
C356 C350 1.379 . S
C356 C353 1.363 . S
C356 N354 1.356 . S
C357 C351 1.363 . S
C357 C352 1.379 . S
C357 N355 1.356 . S
N358 C350 1.356 . S
N358 H364 0.984 . S
N358 H365 0.984 . S
N359 C352 1.356 . S
N359 H362 0.984 . S
N359 H363 0.985 . S
H360 N355 0.984 . S
H361 N355 0.985 . S
H362 N359 0.984 . S
H363 N359 0.985 . S
H364 N358 0.984 . S
H365 N358 0.984 . S
H366 N354 0.984 . S
H367 N354 0.985 . S
C368 C369 1.363 . S
C368 C374 1.379 . S
C368 N376 1.356 . S
C369 C368 1.363 . S
C369 C375 1.363 . S
C370 C371 1.363 . S
C370 C375 1.379 . S
C370 N377 1.356 . S
C371 C370 1.363 . S
C371 C374 1.363 . S
N372 C374 1.356 . S
N372 H384 0.984 . S
N372 H385 0.985 . S
N373 C375 1.356 . S
N373 H378 0.984 . S
N373 H379 0.985 . S
C374 C368 1.379 . S
C374 C371 1.363 . S
C374 N372 1.356 . S
C375 C369 1.363 . S
C375 C370 1.379 . S
C375 N373 1.356 . S
N376 C368 1.356 . S
N376 H382 0.984 . S
N376 H383 0.984 . S
N377 C370 1.356 . S
N377 H380 0.984 . S
N377 H381 0.985 . S
H378 N373 0.984 . S
H379 N373 0.985 . S
H380 N377 0.984 . S
H381 N377 0.985 . S
H382 N376 0.984 . S
H383 N376 0.984 . S
H384 N372 0.984 . S
H385 N372 0.985 . S
C386 C387 1.363 . S
C386 C392 1.379 . S
C386 N394 1.356 . S
C387 C386 1.363 . S
C387 C393 1.363 . S
C388 C389 1.363 . S
C388 C393 1.379 . S
C388 N395 1.356 . S
C389 C388 1.363 . S
C389 C392 1.363 . S
N390 C392 1.356 . S
N390 H402 0.984 . S
N390 H403 0.985 . S
N391 C393 1.356 . S
N391 H396 0.984 . S
N391 H397 0.985 . S
C392 C386 1.379 . S
C392 C389 1.363 . S
C392 N390 1.356 . S
C393 C387 1.363 . S
C393 C388 1.379 . S
C393 N391 1.356 . S
N394 C386 1.356 . S
N394 H400 0.984 . S
N394 H401 0.984 . S
N395 C388 1.356 . S
N395 H398 0.984 . S
N395 H399 0.985 . S
H396 N391 0.984 . S
H397 N391 0.985 . S
H398 N395 0.984 . S
H399 N395 0.985 . S
H400 N394 0.984 . S
H401 N394 0.984 . S
H402 N390 0.984 . S
H403 N390 0.985 . S
C404 C405 1.363 . S
C404 C410 1.379 . S
C404 N412 1.356 . S
C405 C404 1.363 . S
C405 C411 1.363 . S
C406 C407 1.363 . S
C406 C411 1.379 . S
C406 N413 1.356 . S
C407 C406 1.363 . S
C407 C410 1.363 . S
N408 C410 1.356 . S
N408 H420 0.984 . S
N408 H421 0.985 . S
N409 C411 1.356 . S
N409 H414 0.984 . S
N409 H415 0.985 . S
C410 C404 1.379 . S
C410 C407 1.363 . S
C410 N408 1.356 . S
C411 C405 1.363 . S
C411 C406 1.379 . S
C411 N409 1.356 . S
N412 C404 1.356 . S
N412 H418 0.984 . S
N412 H419 0.984 . S
N413 C406 1.356 . S
N413 H416 0.984 . S
N413 H417 0.985 . S
H414 N409 0.984 . S
H415 N409 0.985 . S
H416 N413 0.984 . S
H417 N413 0.985 . S
H418 N412 0.984 . S
H419 N412 0.984 . S
H420 N408 0.984 . S
H421 N408 0.985 . S
C422 C423 1.363 . S
C422 C428 1.379 1_554 S
C422 N430 1.356 . S
C423 C422 1.363 . S
C423 C429 1.363 . S
C424 C425 1.363 . S
C424 C429 1.379 1_556 S
C424 N431 1.356 . S
C425 C424 1.363 . S
C425 C428 1.363 . S
N426 C428 1.356 . S
N426 H438 0.984 . S
N426 H439 0.985 . S
N427 C429 1.356 . S
N427 H432 0.984 . S
N427 H433 0.985 . S
C428 C422 1.379 1_556 S
C428 C425 1.363 . S
C428 N426 1.356 . S
C429 C423 1.363 . S
C429 C424 1.379 1_554 S
C429 N427 1.356 . S
N430 C422 1.356 . S
N430 H436 0.984 . S
N430 H437 0.984 . S
N431 C424 1.356 . S
N431 H434 0.984 . S
N431 H435 0.985 . S
H432 N427 0.984 . S
H433 N427 0.985 . S
H434 N431 0.984 . S
H435 N431 0.985 . S
H436 N430 0.984 . S
H437 N430 0.984 . S
H438 N426 0.984 . S
H439 N426 0.985 . S
C440 C441 1.363 . S
C440 C446 1.379 1_554 S
C440 N448 1.356 . S
C441 C440 1.363 . S
C441 C447 1.363 . S
C442 C443 1.363 . S
C442 C447 1.379 1_556 S
C442 N449 1.356 . S
C443 C442 1.363 . S
C443 C446 1.363 . S
N444 C446 1.356 . S
N444 H456 0.984 . S
N444 H457 0.985 . S
N445 C447 1.356 . S
N445 H450 0.984 . S
N445 H451 0.985 . S
C446 C440 1.379 1_556 S
C446 C443 1.363 . S
C446 N444 1.356 . S
C447 C441 1.363 . S
C447 C442 1.379 1_554 S
C447 N445 1.356 . S
N448 C440 1.356 . S
N448 H454 0.984 . S
N448 H455 0.984 . S
N449 C442 1.356 . S
N449 H452 0.984 . S
N449 H453 0.985 . S
H450 N445 0.984 . S
H451 N445 0.985 . S
H452 N449 0.984 . S
H453 N449 0.985 . S
H454 N448 0.984 . S
H455 N448 0.984 . S
H456 N444 0.984 . S
H457 N444 0.985 . S
C458 C459 1.363 . S
C458 C464 1.379 . S
C458 N466 1.356 . S
C459 C458 1.363 . S
C459 C465 1.363 . S
C460 C461 1.363 . S
C460 C465 1.379 . S
C460 N467 1.356 . S
C461 C460 1.363 . S
C461 C464 1.363 . S
N462 C464 1.356 . S
N462 H474 0.984 . S
N462 H475 0.985 . S
N463 C465 1.356 . S
N463 H468 0.984 . S
N463 H469 0.985 . S
C464 C458 1.379 . S
C464 C461 1.363 . S
C464 N462 1.356 . S
C465 C459 1.363 . S
C465 C460 1.379 . S
C465 N463 1.356 . S
N466 C458 1.356 . S
N466 H472 0.984 . S
N466 H473 0.984 . S
N467 C460 1.356 . S
N467 H470 0.984 . S
N467 H471 0.985 . S
H468 N463 0.984 . S
H469 N463 0.985 . S
H470 N467 0.984 . S
H471 N467 0.985 . S
H472 N466 0.984 . S
H473 N466 0.984 . S
H474 N462 0.984 . S
H475 N462 0.985 . S
C476 C477 1.363 . S
C476 C482 1.379 . S
C476 N484 1.356 . S
C477 C476 1.363 . S
C477 C483 1.363 . S
C478 C479 1.363 . S
C478 C483 1.379 . S
C478 N485 1.356 . S
C479 C478 1.363 . S
C479 C482 1.363 . S
N480 C482 1.356 . S
N480 H492 0.984 . S
N480 H493 0.985 . S
N481 C483 1.356 . S
N481 H486 0.984 . S
N481 H487 0.985 . S
C482 C476 1.379 . S
C482 C479 1.363 . S
C482 N480 1.356 . S
C483 C477 1.363 . S
C483 C478 1.379 . S
C483 N481 1.356 . S
N484 C476 1.356 . S
N484 H490 0.984 . S
N484 H491 0.984 . S
N485 C478 1.356 . S
N485 H488 0.984 . S
N485 H489 0.985 . S
H486 N481 0.984 . S
H487 N481 0.985 . S
H488 N485 0.984 . S
H489 N485 0.985 . S
H490 N484 0.984 . S
H491 N484 0.984 . S
H492 N480 0.984 . S
H493 N480 0.985 . S
C494 C495 1.363 . S
C494 C500 1.379 . S
C494 N502 1.356 . S
C495 C494 1.363 . S
C495 C501 1.363 . S
C496 C497 1.363 . S
C496 C501 1.379 . S
C496 N503 1.356 . S
C497 C496 1.363 . S
C497 C500 1.363 . S
N498 C500 1.356 . S
N498 H510 0.984 . S
N498 H511 0.985 . S
N499 C501 1.356 . S
N499 H504 0.984 . S
N499 H505 0.985 . S
C500 C494 1.379 . S
C500 C497 1.363 . S
C500 N498 1.356 . S
C501 C495 1.363 . S
C501 C496 1.379 . S
C501 N499 1.356 . S
N502 C494 1.356 . S
N502 H508 0.984 . S
N502 H509 0.984 . S
N503 C496 1.356 . S
N503 H506 0.984 . S
N503 H507 0.985 . S
H504 N499 0.984 . S
H505 N499 0.985 . S
H506 N503 0.984 . S
H507 N503 0.985 . S
H508 N502 0.984 . S
H509 N502 0.984 . S
H510 N498 0.984 . S
H511 N498 0.985 . S
C512 C513 1.363 . S
C512 C518 1.379 1_455 S
C512 N520 1.356 . S
C513 C512 1.363 . S
C513 C519 1.363 1_545 S
C514 C515 1.363 . S
C514 C519 1.379 1_655 S
C514 N521 1.356 . S
C515 C514 1.363 . S
C515 C518 1.363 1_565 S
N516 C518 1.356 . S
N516 H528 0.984 . S
N516 H529 0.985 1_545 S
N517 C519 1.356 . S
N517 H522 0.984 1_565 S
N517 H523 0.985 . S
C518 C512 1.379 1_655 S
C518 C515 1.363 1_545 S
C518 N516 1.356 . S
C519 C513 1.363 1_565 S
C519 C514 1.379 1_455 S
C519 N517 1.356 . S
N520 C512 1.356 . S
N520 H526 0.984 . S
N520 H527 0.984 . S
N521 C514 1.356 . S
N521 H524 0.984 . S
N521 H525 0.985 . S
H522 N517 0.984 1_545 S
H523 N517 0.985 . S
H524 N521 0.984 . S
H525 N521 0.985 . S
H526 N520 0.984 . S
H527 N520 0.984 . S
H528 N516 0.984 . S
H529 N516 0.985 1_565 S
C530 C531 1.363 . S
C530 C536 1.379 . S
C530 N538 1.356 . S
C531 C530 1.363 . S
C531 C537 1.363 1_455 S
C532 C533 1.363 . S
C532 C537 1.379 . S
C532 N539 1.356 . S
C533 C532 1.363 . S
C533 C536 1.363 1_655 S
N534 C536 1.356 . S
N534 H546 0.984 . S
N534 H547 0.985 1_455 S
N535 C537 1.356 . S
N535 H540 0.984 1_655 S
N535 H541 0.985 . S
C536 C530 1.379 . S
C536 C533 1.363 1_455 S
C536 N534 1.356 . S
C537 C531 1.363 1_655 S
C537 C532 1.379 . S
C537 N535 1.356 . S
N538 C530 1.356 . S
N538 H544 0.984 . S
N538 H545 0.984 . S
N539 C532 1.356 . S
N539 H542 0.984 . S
N539 H543 0.985 . S
H540 N535 0.984 1_455 S
H541 N535 0.985 . S
H542 N539 0.984 . S
H543 N539 0.985 . S
H544 N538 0.984 . S
H545 N538 0.984 . S
H546 N534 0.984 . S
H547 N534 0.985 1_655 S
C548 C549 1.363 . S
C548 C554 1.379 . S
C548 N556 1.356 . S
C549 C548 1.363 . S
C549 C555 1.363 . S
C550 C551 1.363 . S
C550 C555 1.379 . S
C550 N557 1.356 . S
C551 C550 1.363 . S
C551 C554 1.363 . S
N552 C554 1.356 . S
N552 H564 0.984 . S
N552 H565 0.985 . S
N553 C555 1.356 . S
N553 H558 0.984 . S
N553 H559 0.985 . S
C554 C548 1.379 . S
C554 C551 1.363 . S
C554 N552 1.356 . S
C555 C549 1.363 . S
C555 C550 1.379 . S
C555 N553 1.356 . S
N556 C548 1.356 . S
N556 H562 0.984 . S
N556 H563 0.984 . S
N557 C550 1.356 . S
N557 H560 0.984 . S
N557 H561 0.985 . S
H558 N553 0.984 . S
H559 N553 0.985 . S
H560 N557 0.984 . S
H561 N557 0.985 . S
H562 N556 0.984 . S
H563 N556 0.984 . S
H564 N552 0.984 . S
H565 N552 0.985 . S
C566 C567 1.363 . S
C566 C572 1.379 1_545 S
C566 N574 1.356 . S
C567 C566 1.363 . S
C567 C573 1.363 . S
C568 C569 1.363 . S
C568 C573 1.379 1_565 S
C568 N575 1.356 . S
C569 C568 1.363 . S
C569 C572 1.363 . S
N570 C572 1.356 . S
N570 H582 0.984 . S
N570 H583 0.985 . S
N571 C573 1.356 . S
N571 H576 0.984 . S
N571 H577 0.985 . S
C572 C566 1.379 1_565 S
C572 C569 1.363 . S
C572 N570 1.356 . S
C573 C567 1.363 . S
C573 C568 1.379 1_545 S
C573 N571 1.356 . S
N574 C566 1.356 . S
N574 H580 0.984 . S
N574 H581 0.984 . S
N575 C568 1.356 . S
N575 H578 0.984 . S
N575 H579 0.985 . S
H576 N571 0.984 . S
H577 N571 0.985 . S
H578 N575 0.984 . S
H579 N575 0.985 . S
H580 N574 0.984 . S
H581 N574 0.984 . S
H582 N570 0.984 . S
H583 N570 0.985 . S
C584 C585 1.363 . S
C584 C590 1.379 1_455 S
C584 N592 1.356 . S
C585 C584 1.363 . S
C585 C591 1.363 . S
C586 C587 1.363 . S
C586 C591 1.379 1_655 S
C586 N593 1.356 . S
C587 C586 1.363 . S
C587 C590 1.363 . S
N588 C590 1.356 . S
N588 H600 0.984 . S
N588 H601 0.985 . S
N589 C591 1.356 . S
N589 H594 0.984 . S
N589 H595 0.985 . S
C590 C584 1.379 1_655 S
C590 C587 1.363 . S
C590 N588 1.356 . S
C591 C585 1.363 . S
C591 C586 1.379 1_455 S
C591 N589 1.356 . S
N592 C584 1.356 . S
N592 H598 0.984 . S
N592 H599 0.984 . S
N593 C586 1.356 . S
N593 H596 0.984 . S
N593 H597 0.985 . S
H594 N589 0.984 . S
H595 N589 0.985 . S
H596 N593 0.984 . S
H597 N593 0.985 . S
H598 N592 0.984 . S
H599 N592 0.984 . S
H600 N588 0.984 . S
H601 N588 0.985 . S
C602 C603 1.363 . S
C602 C608 1.379 . S
C602 N610 1.356 . S
C603 C602 1.363 . S
C603 C609 1.363 . S
C604 C605 1.363 . S
C604 C609 1.379 . S
C604 N611 1.356 . S
C605 C604 1.363 . S
C605 C608 1.363 . S
N606 C608 1.356 . S
N606 H618 0.984 . S
N606 H619 0.985 . S
N607 C609 1.356 . S
N607 H612 0.984 . S
N607 H613 0.985 . S
C608 C602 1.379 . S
C608 C605 1.363 . S
C608 N606 1.356 . S
C609 C603 1.363 . S
C609 C604 1.379 . S
C609 N607 1.356 . S
N610 C602 1.356 . S
N610 H616 0.984 . S
N610 H617 0.984 . S
N611 C604 1.356 . S
N611 H614 0.984 . S
N611 H615 0.985 . S
H612 N607 0.984 . S
H613 N607 0.985 . S
H614 N611 0.984 . S
H615 N611 0.985 . S
H616 N610 0.984 . S
H617 N610 0.984 . S
H618 N606 0.984 . S
H619 N606 0.985 . S
C620 C621 1.363 . S
C620 C626 1.379 . S
C620 N628 1.356 . S
C621 C620 1.363 . S
C621 C627 1.363 1_565 S
C622 C623 1.363 . S
C622 C627 1.379 . S
C622 N629 1.356 . S
C623 C622 1.363 . S
C623 C626 1.363 1_545 S
N624 C626 1.356 . S
N624 H636 0.984 . S
N624 H637 0.985 1_565 S
N625 C627 1.356 . S
N625 H630 0.984 1_545 S
N625 H631 0.985 . S
C626 C620 1.379 . S
C626 C623 1.363 1_565 S
C626 N624 1.356 . S
C627 C621 1.363 1_545 S
C627 C622 1.379 . S
C627 N625 1.356 . S
N628 C620 1.356 . S
N628 H634 0.984 . S
N628 H635 0.984 . S
N629 C622 1.356 . S
N629 H632 0.984 . S
N629 H633 0.985 . S
H630 N625 0.984 1_565 S
H631 N625 0.985 . S
H632 N629 0.984 . S
H633 N629 0.985 . S
H634 N628 0.984 . S
H635 N628 0.984 . S
H636 N624 0.984 . S
H637 N624 0.985 1_545 S
C638 C639 1.363 . S
C638 C644 1.379 1_545 S
C638 N646 1.356 . S
C639 C638 1.363 . S
C639 C645 1.363 1_455 S
C640 C641 1.363 . S
C640 C645 1.379 1_565 S
C640 N647 1.356 . S
C641 C640 1.363 . S
C641 C644 1.363 1_655 S
N642 C644 1.356 . S
N642 H654 0.984 . S
N642 H655 0.985 1_455 S
N643 C645 1.356 . S
N643 H648 0.984 1_655 S
N643 H649 0.985 . S
C644 C638 1.379 1_565 S
C644 C641 1.363 1_455 S
C644 N642 1.356 . S
C645 C639 1.363 1_655 S
C645 C640 1.379 1_545 S
C645 N643 1.356 . S
N646 C638 1.356 . S
N646 H652 0.984 . S
N646 H653 0.984 . S
N647 C640 1.356 . S
N647 H650 0.984 . S
N647 H651 0.985 . S
H648 N643 0.984 1_455 S
H649 N643 0.985 . S
H650 N647 0.984 . S
H651 N647 0.985 . S
H652 N646 0.984 . S
H653 N646 0.984 . S
H654 N642 0.984 . S
H655 N642 0.985 1_655 S
C656 C657 1.363 . S
C656 C662 1.379 . S
C656 N664 1.356 . S
C657 C656 1.363 . S
C657 C663 1.363 1_565 S
C658 C659 1.363 . S
C658 C663 1.379 . S
C658 N665 1.356 . S
C659 C658 1.363 . S
C659 C662 1.363 1_545 S
N660 C662 1.356 . S
N660 H672 0.984 . S
N660 H673 0.985 1_565 S
N661 C663 1.356 . S
N661 H666 0.984 1_545 S
N661 H667 0.985 . S
C662 C656 1.379 . S
C662 C659 1.363 1_565 S
C662 N660 1.356 . S
C663 C657 1.363 1_545 S
C663 C658 1.379 . S
C663 N661 1.356 . S
N664 C656 1.356 . S
N664 H670 0.984 . S
N664 H671 0.984 . S
N665 C658 1.356 . S
N665 H668 0.984 . S
N665 H669 0.985 . S
H666 N661 0.984 1_565 S
H667 N661 0.985 . S
H668 N665 0.984 . S
H669 N665 0.985 . S
H670 N664 0.984 . S
H671 N664 0.984 . S
H672 N660 0.984 . S
H673 N660 0.985 1_545 S
C674 C675 1.363 1_455 S
C674 C680 1.379 1_565 S
C674 N682 1.356 . S
C675 C674 1.363 1_655 S
C675 C681 1.363 . S
C676 C677 1.363 1_655 S
C676 C681 1.379 1_545 S
C676 N683 1.356 . S
C677 C676 1.363 1_455 S
C677 C680 1.363 . S
N678 C680 1.356 . S
N678 H690 0.984 . S
N678 H691 0.985 . S
N679 C681 1.356 . S
N679 H684 0.984 . S
N679 H685 0.985 . S
C680 C674 1.379 1_545 S
C680 C677 1.363 . S
C680 N678 1.356 . S
C681 C675 1.363 . S
C681 C676 1.379 1_565 S
C681 N679 1.356 . S
N682 C674 1.356 . S
N682 H688 0.984 . S
N682 H689 0.984 1_455 S
N683 C676 1.356 . S
N683 H686 0.984 1_655 S
N683 H687 0.985 . S
H684 N679 0.984 . S
H685 N679 0.985 . S
H686 N683 0.984 1_455 S
H687 N683 0.985 . S
H688 N682 0.984 . S
H689 N682 0.984 1_655 S
H690 N678 0.984 . S
H691 N678 0.985 . S
C692 C693 1.363 . S
C692 C698 1.379 1_455 S
C692 N700 1.356 . S
C693 C692 1.363 . S
C693 C699 1.363 . S
C694 C695 1.363 . S
C694 C699 1.379 1_655 S
C694 N701 1.356 . S
C695 C694 1.363 . S
C695 C698 1.363 . S
N696 C698 1.356 . S
N696 H708 0.984 . S
N696 H709 0.985 . S
N697 C699 1.356 . S
N697 H702 0.984 . S
N697 H703 0.985 . S
C698 C692 1.379 1_655 S
C698 C695 1.363 . S
C698 N696 1.356 . S
C699 C693 1.363 . S
C699 C694 1.379 1_455 S
C699 N697 1.356 . S
N700 C692 1.356 . S
N700 H706 0.984 . S
N700 H707 0.984 . S
N701 C694 1.356 . S
N701 H704 0.984 . S
N701 H705 0.985 . S
H702 N697 0.984 . S
H703 N697 0.985 . S
H704 N701 0.984 . S
H705 N701 0.985 . S
H706 N700 0.984 . S
H707 N700 0.984 . S
H708 N696 0.984 . S
H709 N696 0.985 . S
C710 C711 1.363 . S
C710 C716 1.379 . S
C710 N718 1.356 . S
C711 C710 1.363 . S
C711 C717 1.363 . S
C712 C713 1.363 . S
C712 C717 1.379 . S
C712 N719 1.356 . S
C713 C712 1.363 . S
C713 C716 1.363 . S
N714 C716 1.356 . S
N714 H726 0.984 . S
N714 H727 0.985 . S
N715 C717 1.356 . S
N715 H720 0.984 . S
N715 H721 0.985 . S
C716 C710 1.379 . S
C716 C713 1.363 . S
C716 N714 1.356 . S
C717 C711 1.363 . S
C717 C712 1.379 . S
C717 N715 1.356 . S
N718 C710 1.356 . S
N718 H724 0.984 . S
N718 H725 0.984 . S
N719 C712 1.356 . S
N719 H722 0.984 . S
N719 H723 0.985 . S
H720 N715 0.984 . S
H721 N715 0.985 . S
H722 N719 0.984 . S
H723 N719 0.985 . S
H724 N718 0.984 . S
H725 N718 0.984 . S
H726 N714 0.984 . S
H727 N714 0.985 . S
C728 C729 1.363 . S
C728 C734 1.379 . S
C728 N736 1.356 . S
C729 C728 1.363 . S
C729 C735 1.363 . S
C730 C731 1.363 . S
C730 C735 1.379 . S
C730 N737 1.356 . S
C731 C730 1.363 . S
C731 C734 1.363 . S
N732 C734 1.356 . S
N732 H744 0.984 . S
N732 H745 0.985 . S
N733 C735 1.356 . S
N733 H738 0.984 . S
N733 H739 0.985 . S
C734 C728 1.379 . S
C734 C731 1.363 . S
C734 N732 1.356 . S
C735 C729 1.363 . S
C735 C730 1.379 . S
C735 N733 1.356 . S
N736 C728 1.356 . S
N736 H742 0.984 . S
N736 H743 0.984 . S
N737 C730 1.356 . S
N737 H740 0.984 . S
N737 H741 0.985 . S
H738 N733 0.984 . S
H739 N733 0.985 . S
H740 N737 0.984 . S
H741 N737 0.985 . S
H742 N736 0.984 . S
H743 N736 0.984 . S
H744 N732 0.984 . S
H745 N732 0.985 . S
C746 C747 1.363 . S
C746 C752 1.379 1_545 S
C746 N754 1.356 . S
C747 C746 1.363 . S
C747 C753 1.363 . S
C748 C749 1.363 . S
C748 C753 1.379 1_565 S
C748 N755 1.356 . S
C749 C748 1.363 . S
C749 C752 1.363 . S
N750 C752 1.356 . S
N750 H762 0.984 . S
N750 H763 0.985 . S
N751 C753 1.356 . S
N751 H756 0.984 . S
N751 H757 0.985 . S
C752 C746 1.379 1_565 S
C752 C749 1.363 . S
C752 N750 1.356 . S
C753 C747 1.363 . S
C753 C748 1.379 1_545 S
C753 N751 1.356 . S
N754 C746 1.356 . S
N754 H760 0.984 . S
N754 H761 0.984 . S
N755 C748 1.356 . S
N755 H758 0.984 . S
N755 H759 0.985 . S
H756 N751 0.984 . S
H757 N751 0.985 . S
H758 N755 0.984 . S
H759 N755 0.985 . S
H760 N754 0.984 . S
H761 N754 0.984 . S
H762 N750 0.984 . S
H763 N750 0.985 . S
C764 C765 1.363 . S
C764 C770 1.379 1_655 S
C764 N772 1.356 . S
C765 C764 1.363 . S
C765 C771 1.363 1_565 S
C766 C767 1.363 . S
C766 C771 1.379 1_455 S
C766 N773 1.356 . S
C767 C766 1.363 . S
C767 C770 1.363 1_545 S
N768 C770 1.356 . S
N768 H780 0.984 . S
N768 H781 0.985 1_565 S
N769 C771 1.356 . S
N769 H774 0.984 1_545 S
N769 H775 0.985 . S
C770 C764 1.379 1_455 S
C770 C767 1.363 1_565 S
C770 N768 1.356 . S
C771 C765 1.363 1_545 S
C771 C766 1.379 1_655 S
C771 N769 1.356 . S
N772 C764 1.356 . S
N772 H778 0.984 . S
N772 H779 0.984 . S
N773 C766 1.356 . S
N773 H776 0.984 . S
N773 H777 0.985 . S
H774 N769 0.984 1_565 S
H775 N769 0.985 . S
H776 N773 0.984 . S
H777 N773 0.985 . S
H778 N772 0.984 . S
H779 N772 0.984 . S
H780 N768 0.984 . S
H781 N768 0.985 1_545 S
C782 C783 1.363 . S
C782 C788 1.379 . S
C782 N790 1.356 . S
C783 C782 1.363 . S
C783 C789 1.363 1_655 S
C784 C785 1.363 . S
C784 C789 1.379 . S
C784 N791 1.356 . S
C785 C784 1.363 . S
C785 C788 1.363 1_455 S
N786 C788 1.356 . S
N786 H798 0.984 . S
N786 H799 0.985 1_655 S
N787 C789 1.356 . S
N787 H792 0.984 1_455 S
N787 H793 0.985 . S
C788 C782 1.379 . S
C788 C785 1.363 1_655 S
C788 N786 1.356 . S
C789 C783 1.363 1_455 S
C789 C784 1.379 . S
C789 N787 1.356 . S
N790 C782 1.356 . S
N790 H796 0.984 . S
N790 H797 0.984 . S
N791 C784 1.356 . S
N791 H794 0.984 . S
N791 H795 0.985 . S
H792 N787 0.984 1_655 S
H793 N787 0.985 . S
H794 N791 0.984 . S
H795 N791 0.985 . S
H796 N790 0.984 . S
H797 N790 0.984 . S
H798 N786 0.984 . S
H799 N786 0.985 1_455 S
C225 C63 1.392 . S
C227 C7 1.392 . S
C243 C21 1.392 . S
C245 C77 1.392 . S
C261 C91 1.392 . S
C263 C35 1.392 . S
C279 C105 1.392 . S
C281 C49 1.392 . S
C297 C175 1.392 . S
C299 C119 1.392 . S
C315 C133 1.392 . S
C317 C189 1.392 . S
C333 C203 1.392 . S
C335 C147 1.392 . S
C351 C161 1.392 . S
C353 C217 1.392 . S
C369 C3 1.452 . S
C371 C213 1.452 . S
C387 C17 1.452 . S
C389 C171 1.452 . S
C405 C31 1.452 . S
C407 C185 1.452 . S
C423 C199 1.452 . S
C425 C45 1.452 . S
C441 C59 1.452 . S
C443 C129 1.452 . S
C459 C73 1.452 . S
C461 C143 1.452 . S
C477 C157 1.452 . S
C479 C87 1.452 . S
C495 C115 1.452 . S
C497 C101 1.452 . S
C513 C8 1.595 . S
C515 C148 1.595 . S
C531 C162 1.595 . S
C533 C22 1.595 . S
C549 C36 1.595 . S
C551 C120 1.595 . S
C567 C134 1.595 . S
C569 C50 1.595 . S
C585 C64 1.595 . S
C587 C204 1.595 . S
C603 C78 1.595 . S
C605 C218 1.595 . S
C621 C176 1.595 . S
C623 C92 1.595 . S
C639 C190 1.595 . S
C641 C106 1.595 . S
C657 C149 1.416 . S
C659 C9 1.416 . S
C675 C23 1.416 . S
C677 C163 1.416 . S
C693 C37 1.416 . S
C695 C121 1.416 . S
C711 C135 1.416 . S
C713 C51 1.416 . S
C729 C205 1.416 . S
C731 C65 1.416 . S
C747 C219 1.416 . S
C749 C79 1.416 . S
C765 C177 1.416 . S
C767 C93 1.416 . S
C783 C107 1.416 . S
C785 C191 1.416 . S
