# Generated by pormake.
# Topology xfu, (5)-cn, num edge types: 1
# Building blocks:
#     Node 0, Type 0, BuildingBlock: XOMCOT_clean_sbu_0, # of connection points: 5
#     Node 1, Type 0, BuildingBlock: XOMCOT_clean_sbu_0, # of connection points: 5
#     Node 2, Type 0, BuildingBlock: XOMCOT_clean_sbu_0, # of connection points: 5
#     Node 3, Type 0, BuildingBlock: XOMCOT_clean_sbu_0, # of connection points: 5
#     Node 4, Type 0, BuildingBlock: XOMCOT_clean_sbu_0, # of connection points: 5
#     Node 5, Type 0, BuildingBlock: XOMCOT_clean_sbu_0, # of connection points: 5
#     Node 6, Type 0, BuildingBlock: XOMCOT_clean_sbu_0, # of connection points: 5
#     Node 7, Type 0, BuildingBlock: XOMCOT_clean_sbu_0, # of connection points: 5
#     Edge 8, Type (0, 0), BuildingBlock: MIFKUJ_clean_linker_0, # of connection points: 2
#     Edge 9, Type (0, 0), BuildingBlock: MIFKUJ_clean_linker_0, # of connection points: 2
#     Edge 10, Type (0, 0), BuildingBlock: MIFKUJ_clean_linker_0, # of connection points: 2
#     Edge 11, Type (0, 0), BuildingBlock: MIFKUJ_clean_linker_0, # of connection points: 2
#     Edge 12, Type (0, 0), BuildingBlock: MIFKUJ_clean_linker_0, # of connection points: 2
#     Edge 13, Type (0, 0), BuildingBlock: MIFKUJ_clean_linker_0, # of connection points: 2
#     Edge 14, Type (0, 0), BuildingBlock: MIFKUJ_clean_linker_0, # of connection points: 2
#     Edge 15, Type (0, 0), BuildingBlock: MIFKUJ_clean_linker_0, # of connection points: 2
#     Edge 16, Type (0, 0), BuildingBlock: MIFKUJ_clean_linker_0, # of connection points: 2
#     Edge 17, Type (0, 0), BuildingBlock: MIFKUJ_clean_linker_0, # of connection points: 2
#     Edge 18, Type (0, 0), BuildingBlock: MIFKUJ_clean_linker_0, # of connection points: 2
#     Edge 19, Type (0, 0), BuildingBlock: MIFKUJ_clean_linker_0, # of connection points: 2
#     Edge 20, Type (0, 0), BuildingBlock: MIFKUJ_clean_linker_0, # of connection points: 2
#     Edge 21, Type (0, 0), BuildingBlock: MIFKUJ_clean_linker_0, # of connection points: 2
#     Edge 22, Type (0, 0), BuildingBlock: MIFKUJ_clean_linker_0, # of connection points: 2
#     Edge 23, Type (0, 0), BuildingBlock: MIFKUJ_clean_linker_0, # of connection points: 2
#     Edge 24, Type (0, 0), BuildingBlock: MIFKUJ_clean_linker_0, # of connection points: 2
#     Edge 25, Type (0, 0), BuildingBlock: MIFKUJ_clean_linker_0, # of connection points: 2
#     Edge 26, Type (0, 0), BuildingBlock: MIFKUJ_clean_linker_0, # of connection points: 2
#     Edge 27, Type (0, 0), BuildingBlock: MIFKUJ_clean_linker_0, # of connection points: 2
# Relax obj value: 0.392
# Max RMSD: 0.265
# Mean RMSD: 0.265
data_MOF--net-xfu--node1-XOMCOT_clean_sbu_0--edge1-MIFKUJ_clean_linker_0
_symmetry_space_group_name_H-M    P1
_symmetry_Int_Tables_number       1
_symmetry_cell_setting            triclinic
loop_
_symmetry_equiv_pos_as_xyz
'x, y, z'
_cell_length_a     37.494457
_cell_length_b     37.545913
_cell_length_c     62.583144
_cell_angle_alpha  90.00275
_cell_angle_beta   90.016869
_cell_angle_gamma 90.022205
loop_
_atom_site_label
_atom_site_type_symbol
_atom_site_fract_x
_atom_site_fract_y
_atom_site_fract_z
_atom_type_partial_charge
Co0 Co 0.11047 0.23478 0.61786 0.0
C1 C 0.08615 0.17404 0.59214 0.0
C2 C 0.11796 0.15699 0.61878 0.0
C3 C 0.10908 0.12758 0.60676 0.0
N4 N 0.10348 0.18594 0.60957 0.0
N5 N 0.08918 0.13837 0.58996 0.0
H6 H 0.0722 0.19136 0.58114 0.0
H7 H 0.13484 0.15739 0.6328 0.0
C8 C 0.09606 0.2327 0.66488 0.0
O9 O 0.07371 0.25934 0.66241 0.0
N10 N 0.11917 0.28412 0.62626 0.0
C11 C 0.1136 0.31419 0.61487 0.0
C12 C 0.12658 0.34288 0.62614 0.0
C13 C 0.13763 0.29505 0.64364 0.0
N14 N 0.14157 0.33076 0.64428 0.0
C15 C 0.04336 0.26525 0.60575 0.0
C16 C 0.00134 0.22256 0.63144 0.0
C17 C 0.98537 0.25006 0.61974 0.0
C18 C 0.00671 0.27091 0.60633 0.0
C19 C 0.03823 0.21793 0.63041 0.0
N20 N 0.05901 0.24072 0.61876 0.0
H21 H 0.05887 0.28003 0.59439 0.0
H22 H 0.05016 0.19623 0.63921 0.0
H23 H 0.10287 0.31556 0.59891 0.0
H24 H 0.14849 0.27722 0.65552 0.0
O25 O 0.11845 0.2473 0.58834 0.0
O26 O 0.16032 0.23036 0.61131 0.0
O27 O 0.11243 0.21962 0.64877 0.0
C28 C 0.1519 0.24058 0.59206 0.0
H29 H 0.118 0.10061 0.60966 0.0
H30 H 0.12614 0.3704 0.62099 0.0
H31 H 0.98562 0.20521 0.64156 0.0
H32 H 0.99511 0.29111 0.5961 0.0
Co33 Co 0.8205 0.60684 0.11518 0.0
C34 C 0.88186 0.59273 0.08684 0.0
C35 C 0.89519 0.6284 0.11247 0.0
C36 C 0.92474 0.62421 0.09973 0.0
N37 N 0.86851 0.60857 0.10441 0.0
N38 N 0.91633 0.60182 0.0836 0.0
H39 H 0.86654 0.5752 0.07663 0.0
H40 H 0.89304 0.64548 0.12633 0.0
C41 C 0.82872 0.59549 0.16184 0.0
O42 O 0.80361 0.57119 0.16022 0.0
N43 N 0.77229 0.60753 0.12667 0.0
C44 C 0.74301 0.5872 0.12347 0.0
C45 C 0.71646 0.59843 0.13727 0.0
C46 C 0.76253 0.63137 0.14165 0.0
N47 N 0.72918 0.62589 0.14887 0.0
C48 C 0.80321 0.53524 0.10351 0.0
C49 C 0.8536 0.50263 0.12913 0.0
C50 C 0.82966 0.48152 0.11753 0.0
C51 C 0.8049 0.49823 0.10412 0.0
C52 C 0.85093 0.53959 0.12802 0.0
N53 N 0.82426 0.55538 0.11652 0.0
H54 H 0.78516 0.54771 0.09238 0.0
H55 H 0.87037 0.55548 0.13646 0.0
H56 H 0.74056 0.56541 0.11241 0.0
H57 H 0.78025 0.65179 0.14769 0.0
O58 O 0.80247 0.61105 0.08645 0.0
O59 O 0.81469 0.65639 0.10811 0.0
O60 O 0.83942 0.61221 0.14521 0.0
C61 C 0.80358 0.64522 0.08955 0.0
H62 H 0.95004 0.63766 0.10177 0.0
H63 H 0.69044 0.58638 0.13922 0.0
H64 H 0.87383 0.49078 0.13923 0.0
H65 H 0.78719 0.48284 0.09401 0.0
Co66 Co 0.49124 0.36398 0.61502 0.0
C67 C 0.5155 0.42411 0.5885 0.0
C68 C 0.48518 0.4416 0.61566 0.0
C69 C 0.49428 0.47092 0.60367 0.0
N70 N 0.49861 0.41243 0.60615 0.0
N71 N 0.5133 0.4599 0.58657 0.0
H72 H 0.52878 0.40665 0.57729 0.0
H73 H 0.46903 0.44146 0.62997 0.0
C74 C 0.50781 0.36499 0.66183 0.0
O75 O 0.52719 0.33613 0.65929 0.0
N76 N 0.48215 0.31532 0.62437 0.0
C77 C 0.49319 0.28393 0.61617 0.0
C78 C 0.47973 0.25664 0.62848 0.0
C79 C 0.4607 0.30638 0.64086 0.0
N80 N 0.45946 0.27087 0.64407 0.0
C81 C 0.55613 0.33432 0.59873 0.0
C82 C 0.60162 0.36913 0.62646 0.0
C83 C 0.61541 0.34294 0.61282 0.0
C84 C 0.59239 0.32641 0.59826 0.0
C85 C 0.56509 0.37614 0.62636 0.0
N86 N 0.54248 0.35658 0.61387 0.0
H87 H 0.53908 0.32259 0.58679 0.0
H88 H 0.55504 0.39709 0.63651 0.0
H89 H 0.50925 0.28033 0.60211 0.0
H90 H 0.44708 0.32568 0.65077 0.0
O91 O 0.4793 0.35104 0.58602 0.0
O92 O 0.44088 0.36976 0.61054 0.0
O93 O 0.4929 0.3798 0.64575 0.0
C94 C 0.44661 0.35896 0.59108 0.0
H95 H 0.48633 0.49808 0.60692 0.0
H96 H 0.48434 0.22847 0.62605 0.0
H97 H 0.61867 0.38346 0.63748 0.0
H98 H 0.60232 0.30759 0.58658 0.0
Co99 Co 0.78054 0.97896 0.11213 0.0
C100 C 0.7187 0.00097 0.08614 0.0
C101 C 0.70302 0.96921 0.1131 0.0
C102 C 0.6731 0.9771 0.10129 0.0
N103 N 0.73146 0.98427 0.1036 0.0
N104 N 0.68301 0.99695 0.0843 0.0
H105 H 0.73542 0.01465 0.07468 0.0
H106 H 0.70403 0.95296 0.12735 0.0
C107 C 0.7762 0.99412 0.15923 0.0
O108 O 0.80396 0.01533 0.15755 0.0
N109 N 0.83009 0.9718 0.12079 0.0
C110 C 0.8603 0.97593 0.10919 0.0
C111 C 0.88914 0.96459 0.12113 0.0
C112 C 0.84107 0.95589 0.13897 0.0
N113 N 0.87675 0.95257 0.13993 0.0
C114 C 0.81067 0.04649 0.10084 0.0
C115 C 0.766 0.08724 0.12605 0.0
C116 C 0.79417 0.10382 0.1152 0.0
C117 C 0.816 0.08313 0.10196 0.0
C118 C 0.76157 0.05049 0.12437 0.0
N119 N 0.7852 0.03035 0.11297 0.0
H120 H 0.82675 0.03128 0.08997 0.0
H121 H 0.73946 0.03814 0.13259 0.0
H122 H 0.86161 0.98504 0.09286 0.0
H123 H 0.82342 0.94561 0.15113 0.0
O124 O 0.79347 0.97119 0.08267 0.0
O125 O 0.77787 0.92901 0.10586 0.0
O126 O 0.76424 0.97742 0.14293 0.0
C127 C 0.78778 0.93767 0.08659 0.0
H128 H 0.64618 0.96861 0.10489 0.0
H129 H 0.91691 0.96519 0.11641 0.0
H130 H 0.748 0.10231 0.13611 0.0
H131 H 0.83687 0.09515 0.09241 0.0
Co132 Co 0.99606 0.81509 0.3853 0.0
C133 C 0.01124 0.87888 0.41094 0.0
C134 C 0.9787 0.89125 0.38369 0.0
C135 C 0.98316 0.92176 0.3956 0.0
N136 N 0.99641 0.86454 0.39334 0.0
N137 N 0.00345 0.91386 0.41278 0.0
H138 H 0.0268 0.86378 0.42233 0.0
H139 H 0.96261 0.8885 0.36944 0.0
C140 C 0.00434 0.81556 0.33783 0.0
O141 O 0.0279 0.78987 0.33988 0.0
N142 N 0.9939 0.76532 0.37691 0.0
C143 C 0.01435 0.73681 0.38176 0.0
C144 C 0.00232 0.70786 0.37025 0.0
C145 C 0.96904 0.75281 0.3633 0.0
N146 N 0.97389 0.71815 0.35863 0.0
C147 C 0.06733 0.79805 0.39765 0.0
C148 C 0.1013 0.83939 0.36731 0.0
C149 C 0.12155 0.8168 0.38032 0.0
C150 C 0.1043 0.79685 0.39611 0.0
C151 C 0.06424 0.83949 0.36932 0.0
N152 N 0.04763 0.81681 0.38322 0.0
H153 H 0.05453 0.78357 0.4104 0.0
H154 H 0.04899 0.85773 0.35962 0.0
H155 H 0.03668 0.73632 0.39253 0.0
H156 H 0.94897 0.76952 0.35595 0.0
O157 O 0.99189 0.80189 0.41503 0.0
O158 O 0.94652 0.81213 0.39301 0.0
O159 O 0.98977 0.82924 0.35439 0.0
C160 C 0.95766 0.80368 0.41205 0.0
H161 H 0.97102 0.94736 0.39237 0.0
H162 H 0.01398 0.68149 0.37016 0.0
H163 H 0.11386 0.85625 0.35545 0.0
H164 H 0.11928 0.78059 0.40725 0.0
Co165 Co 0.24041 0.49829 0.88024 0.0
C166 C 0.17898 0.52424 0.90497 0.0
C167 C 0.16268 0.49488 0.8772 0.0
C168 C 0.13284 0.50329 0.88892 0.0
N169 N 0.19145 0.50807 0.88729 0.0
N170 N 0.14308 0.52163 0.90648 0.0
H171 H 0.19612 0.53652 0.91676 0.0
H172 H 0.16349 0.47865 0.86293 0.0
C173 C 0.2421 0.51506 0.83334 0.0
O174 O 0.27036 0.53508 0.83659 0.0
N175 N 0.2897 0.48645 0.87301 0.0
C176 C 0.31918 0.48777 0.88545 0.0
C177 C 0.34784 0.47445 0.87419 0.0
C178 C 0.30069 0.46998 0.85499 0.0
N179 N 0.33608 0.46373 0.85492 0.0
C180 C 0.27592 0.56233 0.89342 0.0
C181 C 0.23639 0.60832 0.86837 0.0
C182 C 0.26487 0.62181 0.8804 0.0
C183 C 0.28424 0.59847 0.8934 0.0
C184 C 0.22912 0.57188 0.8688 0.0
N185 N 0.25011 0.5491 0.88029 0.0
H186 H 0.28975 0.54524 0.90439 0.0
H187 H 0.2068 0.56189 0.85966 0.0
H188 H 0.32001 0.49636 0.9019 0.0
H189 H 0.28311 0.46147 0.84232 0.0
O190 O 0.25002 0.48826 0.90992 0.0
O191 O 0.23201 0.44867 0.88583 0.0
O192 O 0.22716 0.49897 0.84897 0.0
C193 C 0.24106 0.45561 0.9055 0.0
H194 H 0.10598 0.49468 0.88533 0.0
H195 H 0.37517 0.473 0.8797 0.0
H196 H 0.22025 0.62563 0.85846 0.0
H197 H 0.30528 0.60814 0.90376 0.0
Co198 Co 0.62485 0.79062 0.39024 0.0
C199 C 0.61534 0.72658 0.41663 0.0
C200 C 0.65027 0.71667 0.39009 0.0
C201 C 0.64697 0.68573 0.40175 0.0
N202 N 0.63028 0.74205 0.39942 0.0
N203 N 0.62507 0.6921 0.41844 0.0
H204 H 0.59743 0.74024 0.42742 0.0
H205 H 0.66631 0.72046 0.37591 0.0
C206 C 0.61199 0.78521 0.34323 0.0
O207 O 0.58584 0.80822 0.34541 0.0
N208 N 0.62096 0.83967 0.38053 0.0
C209 C 0.59695 0.86564 0.38467 0.0
C210 C 0.60407 0.89439 0.37165 0.0
C211 C 0.64304 0.85374 0.36578 0.0
N212 N 0.63302 0.88669 0.35981 0.0
C213 C 0.55353 0.80121 0.40485 0.0
C214 C 0.52066 0.75672 0.37571 0.0
C215 C 0.49974 0.77895 0.38857 0.0
C216 C 0.51651 0.80003 0.40403 0.0
C217 C 0.55776 0.75886 0.37711 0.0
N218 N 0.57355 0.78357 0.39009 0.0
H219 H 0.56607 0.81742 0.41694 0.0
H220 H 0.57366 0.74125 0.36736 0.0
H221 H 0.57516 0.86432 0.39579 0.0
H222 H 0.66461 0.83902 0.35841 0.0
O223 O 0.63035 0.80637 0.41943 0.0
O224 O 0.6745 0.79919 0.39616 0.0
O225 O 0.62976 0.77481 0.35952 0.0
C226 C 0.66428 0.80786 0.41536 0.0
H227 H 0.66018 0.66071 0.39844 0.0
H228 H 0.58859 0.91865 0.37052 0.0
H229 H 0.50859 0.73894 0.36415 0.0
H230 H 0.50114 0.81607 0.41509 0.0
Co231 Co 0.35552 0.11959 0.88767 0.0
C232 C 0.41996 0.10195 0.91211 0.0
C233 C 0.43233 0.13421 0.88477 0.0
C234 C 0.46333 0.12804 0.896 0.0
N235 N 0.40533 0.11776 0.89492 0.0
N236 N 0.45545 0.10781 0.91322 0.0
H237 H 0.40462 0.08752 0.92392 0.0
H238 H 0.4296 0.15016 0.87047 0.0
C239 C 0.35351 0.10816 0.84016 0.0
O240 O 0.32759 0.085 0.84282 0.0
N241 N 0.30511 0.12256 0.88031 0.0
C242 C 0.27662 0.10605 0.88904 0.0
C243 C 0.24658 0.11486 0.87753 0.0
C244 C 0.29147 0.14273 0.86446 0.0
N245 N 0.2561 0.13752 0.86185 0.0
C246 C 0.33678 0.05067 0.9035 0.0
C247 C 0.37179 0.01147 0.87261 0.0
C248 C 0.34961 0.99391 0.88722 0.0
C249 C 0.33311 0.01381 0.90331 0.0
C250 C 0.37454 0.04856 0.87337 0.0
N251 N 0.3547 0.06783 0.88758 0.0
H252 H 0.32498 0.06539 0.91647 0.0
H253 H 0.39242 0.06165 0.86237 0.0
H254 H 0.27692 0.08863 0.90268 0.0
H255 H 0.30748 0.16016 0.85459 0.0
O256 O 0.34375 0.12799 0.91736 0.0
O257 O 0.3554 0.16981 0.89328 0.0
O258 O 0.36853 0.12252 0.85637 0.0
C259 C 0.34709 0.16164 0.91286 0.0
H260 H 0.48954 0.13789 0.89184 0.0
H261 H 0.2201 0.10417 0.88003 0.0
H262 H 0.3861 0.99686 0.8604 0.0
H263 H 0.3174 0.00099 0.91564 0.0
H264 H 0.01581 0.89496 0.45395 0.0
H265 H 0.02879 0.93465 0.48383 0.0
H266 H 0.02244 0.02535 0.44169 0.0
H267 H 0.01053 0.98563 0.41152 0.0
H268 H 0.07904 0.03007 0.46846 0.0
H269 H 0.95394 0.00614 0.4745 0.0
H270 H 0.90053 0.96788 0.47632 0.0
H271 H 0.94018 0.91936 0.53373 0.0
H272 H 0.99408 0.957 0.53209 0.0
H273 H 0.07383 0.16031 0.54958 0.0
H274 H 0.05606 0.12318 0.51948 0.0
H275 H 0.06007 0.03002 0.55973 0.0
H276 H 0.07643 0.06721 0.59022 0.0
H277 H 0.0031 0.02793 0.5334 0.0
H278 H 0.12912 0.05068 0.52653 0.0
H279 H 0.18274 0.08858 0.52435 0.0
H280 H 0.14113 0.1393 0.46813 0.0
H281 H 0.08701 0.10202 0.47015 0.0
C282 C 0.01765 0.92328 0.45094 0.0
C283 C 0.01212 0.93714 0.43032 0.0
C284 C 0.02468 0.94597 0.46809 0.0
C285 C 0.02608 0.98296 0.46501 0.0
C286 C 0.02128 0.99687 0.44441 0.0
C287 C 0.01423 0.97418 0.42723 0.0
C288 C 0.03262 0.0071 0.48332 0.0
C289 C 0.06214 0.03001 0.48253 0.0
C290 C 0.0109 0.00646 0.50182 0.0
C291 C 0.97821 0.98419 0.50306 0.0
C292 C 0.95138 0.98716 0.48744 0.0
C293 C 0.921 0.9656 0.48845 0.0
C294 C 0.91702 0.94113 0.5051 0.0
C295 C 0.94333 0.93829 0.52083 0.0
C296 C 0.97378 0.95977 0.51988 0.0
C297 C 0.07035 0.13205 0.55221 0.0
C298 C 0.07684 0.11677 0.57238 0.0
C299 C 0.06052 0.11079 0.53489 0.0
C300 C 0.05733 0.07377 0.53728 0.0
C301 C 0.06259 0.05853 0.5575 0.0
C302 C 0.07228 0.0798 0.57488 0.0
C303 C 0.04963 0.0508 0.51858 0.0
C304 C 0.0199 0.02809 0.51929 0.0
C305 C 0.07114 0.05164 0.49999 0.0
C306 C 0.10386 0.07379 0.49861 0.0
C307 C 0.1313 0.07008 0.51378 0.0
C308 C 0.16179 0.09142 0.51257 0.0
C309 C 0.16529 0.1164 0.49615 0.0
C310 C 0.13836 0.11998 0.48086 0.0
C311 C 0.10778 0.09873 0.48202 0.0
H312 H 0.18891 0.13291 0.49524 0.0
H313 H 0.89351 0.92442 0.50582 0.0
H314 H 0.98851 0.5991 0.08345 0.0
H315 H 0.0271 0.58576 0.05311 0.0
H316 H 0.93464 0.56789 0.01352 0.0
H317 H 0.89576 0.58169 0.04376 0.0
H318 H 0.98631 0.51705 0.00748 0.0
H319 H 0.97885 0.64461 0.00952 0.0
H320 H 0.98264 0.70407 0.02609 0.0
H321 H 0.09384 0.6876 0.03917 0.0
H322 H 0.0906 0.62778 0.02294 0.0
H323 H 0.07095 0.52938 0.90645 0.0
H324 H 0.0329 0.54242 0.93701 0.0
H325 H 0.12561 0.55234 0.97729 0.0
H326 H 0.164 0.53807 0.94709 0.0
H327 H 0.07418 0.60713 0.98293 0.0
H328 H 0.08175 0.47977 0.9812 0.0
H329 H 0.07832 0.42022 0.96472 0.0
H330 H 0.96724 0.43641 0.9511 0.0
H331 H 0.97015 0.4963 0.96725 0.0
C332 C 0.97632 0.59255 0.06828 0.0
C333 C 0.93901 0.59179 0.06602 0.0
C334 C -0.00157 0.58483 0.05097 0.0
C335 C 0.98369 0.57632 0.03101 0.0
C336 C 0.94651 0.57445 0.02881 0.0
C337 C 0.92433 0.58221 0.04614 0.0
C338 C 0.00716 0.56989 0.01239 0.0
C339 C 0.00517 0.53692 0.00192 0.0
C340 C 0.03232 0.59556 0.00549 0.0
C341 C 0.03439 0.63157 0.01521 0.0
C342 C 0.00404 0.65354 0.01609 0.0
C343 C 0.0061 0.68733 0.02539 0.0
C344 C 0.03844 0.69957 0.03373 0.0
C345 C 0.0688 0.67806 0.03273 0.0
C346 C 0.06687 0.64422 0.02347 0.0
C347 C 0.08343 0.53402 0.92177 0.0
C348 C 0.12073 0.5322 0.92418 0.0
C349 C 0.06155 0.54166 0.93921 0.0
C350 C 0.07649 0.54797 0.95938 0.0
C351 C 0.11364 0.54751 0.9618 0.0
C352 C 0.13556 0.53948 0.94441 0.0
C353 C 0.05321 0.55438 0.97804 0.0
C354 C 0.05527 0.58732 0.98851 0.0
C355 C 0.02813 0.52869 0.98495 0.0
C356 C 0.02627 0.49268 0.97522 0.0
C357 C 0.05667 0.47077 0.97451 0.0
C358 C 0.05481 0.43693 0.96526 0.0
C359 C 0.02261 0.42458 0.9568 0.0
C360 C 0.99218 0.44603 0.95763 0.0
C361 C 0.99391 0.47992 0.96684 0.0
H362 H 0.02121 0.39837 0.94966 0.0
H363 H 0.03998 0.72574 0.04091 0.0
H364 H 0.52774 0.43923 0.54582 0.0
H365 H 0.54801 0.47703 0.51647 0.0
H366 H 0.54826 0.56804 0.5585 0.0
H367 H 0.52868 0.53042 0.58802 0.0
H368 H 0.51414 0.58132 0.52036 0.0
H369 H 0.62524 0.53008 0.54438 0.0
H370 H 0.66566 0.48062 0.5536 0.0
H371 H 0.65762 0.44017 0.4896 0.0
H372 H 0.61672 0.48915 0.48008 0.0
H373 H 0.60812 0.70767 0.4594 0.0
H374 H 0.58939 0.66596 0.48713 0.0
H375 H 0.59943 0.57879 0.44261 0.0
H376 H 0.61841 0.6205 0.41478 0.0
H377 H 0.62674 0.56109 0.48053 0.0
H378 H 0.51774 0.61179 0.45565 0.0
H379 H 0.47627 0.65996 0.44569 0.0
H380 H 0.47828 0.69946 0.51006 0.0
H381 H 0.52022 0.65183 0.52035 0.0
C382 C 0.5326 0.46715 0.54895 0.0
C383 C 0.52649 0.48175 0.56934 0.0
C384 C 0.54405 0.48874 0.53211 0.0
C385 C 0.5497 0.52529 0.53535 0.0
C386 C 0.54385 0.53991 0.55566 0.0
C387 C 0.53254 0.51836 0.5725 0.0
C388 C 0.56103 0.54857 0.51751 0.0
C389 C 0.53896 0.57719 0.5118 0.0
C390 C 0.59282 0.54236 0.50592 0.0
C391 C 0.61763 0.51308 0.51158 0.0
C392 C 0.63187 0.51048 0.53232 0.0
C393 C 0.65491 0.48256 0.53759 0.0
C394 C 0.66413 0.45721 0.52221 0.0
C395 C 0.65041 0.4598 0.50151 0.0
C396 C 0.62733 0.48765 0.49616 0.0
C397 C 0.60606 0.67968 0.45545 0.0
C398 C 0.61449 0.66741 0.43485 0.0
C399 C 0.5954 0.65585 0.47133 0.0
C400 C 0.59251 0.61932 0.46685 0.0
C401 C 0.60146 0.60688 0.4464 0.0
C402 C 0.61235 0.63071 0.43054 0.0
C403 C 0.58009 0.59423 0.48356 0.0
C404 C 0.60186 0.5652 0.48902 0.0
C405 C 0.54782 0.59984 0.49481 0.0
C406 C 0.52238 0.6284 0.48873 0.0
C407 C 0.50955 0.6309 0.46765 0.0
C408 C 0.48593 0.65809 0.46195 0.0
C409 C 0.47471 0.6828 0.47722 0.0
C410 C 0.48702 0.68032 0.49825 0.0
C411 C 0.5107 0.65321 0.50403 0.0
H412 H 0.45643 0.70384 0.47277 0.0
H413 H 0.68196 0.43561 0.52633 0.0
H414 H 0.51744 0.1394 0.92525 0.0
H415 H 0.55713 0.12097 0.95412 0.0
H416 H 0.48752 0.03263 0.96835 0.0
H417 H 0.44784 0.05066 0.93934 0.0
H418 H 0.5069 0.0682 0.00419 0.0
H419 H 0.56557 0.01906 0.94268 0.0
H420 H 0.59272 0.02043 0.90681 0.0
H421 H 0.67038 0.0963 0.92856 0.0
H422 H 0.64337 0.09576 0.96451 0.0
H423 H 0.62084 0.96764 0.07086 0.0
H424 H 0.58276 0.98841 0.04187 0.0
H425 H 0.65582 0.07472 0.02944 0.0
H426 H 0.69409 0.05417 0.05864 0.0
H427 H 0.63527 0.04222 0.99289 0.0
H428 H 0.57748 0.09035 0.05465 0.0
H429 H 0.55031 0.089 0.09052 0.0
H430 H 0.47093 0.01529 0.06833 0.0
H431 H 0.49794 0.0158 0.03239 0.0
C432 C 0.51076 0.11578 0.9343 0.0
C433 C 0.47941 0.09649 0.92992 0.0
C434 C 0.53346 0.10533 0.95085 0.0
C435 C 0.5254 0.07529 0.96328 0.0
C436 C 0.49418 0.05597 0.95898 0.0
C437 C 0.47146 0.06639 0.94243 0.0
C438 C 0.54919 0.06435 0.98102 0.0
C439 C 0.53487 0.06206 0.00169 0.0
C440 C 0.58588 0.05732 0.97782 0.0
C441 C 0.60221 0.05764 0.95623 0.0
C442 C 0.58825 0.03626 0.93977 0.0
C443 C 0.60365 0.03685 0.91943 0.0
C444 C 0.6332 0.05851 0.91539 0.0
C445 C 0.64746 0.07957 0.93171 0.0
C446 C 0.63213 0.07912 0.95207 0.0
C447 C 0.62865 0.99131 0.06219 0.0
C448 C 0.66046 0.00937 0.06719 0.0
C449 C 0.60686 0.0031 0.04555 0.0
C450 C 0.61623 0.03336 0.03366 0.0
C451 C 0.6481 0.0513 0.03844 0.0
C452 C 0.66998 0.03947 0.05508 0.0
C453 C 0.59293 0.04584 0.01604 0.0
C454 C 0.60733 0.04845 0.99541 0.0
C455 C 0.5563 0.05319 0.01927 0.0
C456 C 0.53995 0.05287 0.04087 0.0
C457 C 0.55441 0.07363 0.05746 0.0
C458 C 0.539 0.07305 0.0778 0.0
C459 C 0.50897 0.052 0.08171 0.0
C460 C 0.49422 0.03155 0.06528 0.0
C461 C 0.50955 0.03199 0.04492 0.0
H462 H 0.49708 0.0516 0.09747 0.0
H463 H 0.64509 0.05892 0.89964 0.0
H464 H 0.27905 0.1556 0.82225 0.0
H465 H 0.24276 0.17238 0.79175 0.0
H466 H 0.14744 0.16128 0.82974 0.0
H467 H 0.1839 0.14454 0.86071 0.0
H468 H 0.14033 0.13106 0.78904 0.0
H469 H 0.17221 0.24266 0.8188 0.0
H470 H 0.21428 0.2843 0.83589 0.0
H471 H 0.27911 0.28396 0.7793 0.0
H472 H 0.23767 0.24223 0.76202 0.0
H473 H 0.05894 0.24331 0.70199 0.0
H474 H 0.07744 0.22669 0.73832 0.0
H475 H 0.17345 0.17971 0.71311 0.0
H476 H 0.15498 0.19529 0.67685 0.0
H477 H 0.16899 0.2437 0.75112 0.0
H478 H 0.13878 0.12127 0.72576 0.0
H479 H 0.09535 0.07877 0.71067 0.0
H480 H 0.02195 0.10283 0.76132 0.0
H481 H 0.06484 0.14591 0.7765 0.0
C482 C 0.25048 0.15722 0.82436 0.0
C483 C 0.23448 0.14907 0.84408 0.0
C484 C 0.22969 0.16658 0.80679 0.0
C485 C 0.19242 0.16835 0.80854 0.0
C486 C 0.17617 0.15998 0.82808 0.0
C487 C 0.19705 0.15051 0.84575 0.0
C488 C 0.17104 0.17963 0.78981 0.0
C489 C 0.14609 0.15597 0.78096 0.0
C490 C 0.17815 0.21229 0.7794 0.0
C491 C 0.20188 0.23933 0.78913 0.0
C492 C 0.1954 0.25165 0.80999 0.0
C493 C 0.21914 0.27525 0.81973 0.0
C494 C 0.24922 0.28706 0.80868 0.0
C495 C 0.25558 0.27532 0.78782 0.0
C496 C 0.23197 0.25166 0.77802 0.0
C497 C 0.08376 0.22903 0.70419 0.0
C498 C 0.1055 0.22055 0.68659 0.0
C499 C 0.09419 0.21955 0.72489 0.0
C500 C 0.12661 0.20185 0.72822 0.0
C501 C 0.14816 0.19309 0.71072 0.0
C502 C 0.13752 0.20197 0.69004 0.0
C503 C 0.13954 0.19451 0.75 0.0
C504 C 0.16274 0.21913 0.75944 0.0
C505 C 0.13026 0.1631 0.76109 0.0
C506 C 0.10473 0.13711 0.75206 0.0
C507 C 0.11322 0.11778 0.73352 0.0
C508 C 0.08876 0.09352 0.72499 0.0
C509 C 0.05585 0.0882 0.73499 0.0
C510 C 0.0474 0.10704 0.75357 0.0
C511 C 0.07177 0.13137 0.76214 0.0
H512 H 0.03695 0.0694 0.72837 0.0
H513 H 0.26762 0.30512 0.8164 0.0
H514 H 0.90529 0.72562 0.34633 0.0
H515 H 0.87728 0.69942 0.31473 0.0
H516 H 0.97407 0.64148 0.30126 0.0
H517 H 0.00209 0.66755 0.33287 0.0
H518 H 0.89697 0.7093 0.27467 0.0
H519 H 0.9543 0.56572 0.27403 0.0
H520 H 0.97165 0.51904 0.29974 0.0
H521 H 0.89922 0.56228 0.3461 0.0
H522 H 0.88108 0.60891 0.32057 0.0
H523 H 0.88599 0.63809 0.17076 0.0
H524 H 0.9093 0.6539 0.206 0.0
H525 H 0.82907 0.58821 0.23583 0.0
H526 H 0.80598 0.57177 0.2007 0.0
H527 H 0.89268 0.58109 0.25558 0.0
H528 H 0.818 0.67524 0.23037 0.0
H529 H 0.79888 0.7195 0.20376 0.0
H530 H 0.89778 0.77585 0.21138 0.0
H531 H 0.91835 0.73076 0.23724 0.0
C532 C 0.92041 0.70697 0.33675 0.0
C533 C 0.95591 0.69874 0.342 0.0
C534 C 0.90441 0.69203 0.31873 0.0
C535 C 0.92358 0.66852 0.30565 0.0
C536 C 0.9586 0.65918 0.31129 0.0
C537 C 0.97457 0.67401 0.3294 0.0
C538 C 0.90785 0.65578 0.28532 0.0
C539 C 0.89591 0.68126 0.27053 0.0
C540 C 0.90616 0.61919 0.28003 0.0
C541 C 0.91659 0.59101 0.29543 0.0
C542 C 0.94197 0.56517 0.28967 0.0
C543 C 0.95196 0.53874 0.30423 0.0
C544 C 0.93663 0.53776 0.32456 0.0
C545 C 0.91118 0.56315 0.33037 0.0
C546 C 0.90108 0.58963 0.31588 0.0
C547 C 0.87344 0.62684 0.18482 0.0
C548 C 0.84399 0.60388 0.18297 0.0
C549 C 0.8868 0.63588 0.20492 0.0
C550 C 0.87063 0.6225 0.2235 0.0
C551 C 0.84193 0.59876 0.22168 0.0
C552 C 0.82869 0.58953 0.20159 0.0
C553 C 0.88248 0.63463 0.24485 0.0
C554 C 0.89367 0.60911 0.25978 0.0
C555 C 0.88292 0.67118 0.25042 0.0
C556 C 0.86994 0.69927 0.23557 0.0
C557 C 0.83585 0.69686 0.22626 0.0
C558 C 0.82477 0.72208 0.21125 0.0
C559 C 0.84711 0.75049 0.20586 0.0
C560 C 0.88055 0.75377 0.21551 0.0
C561 C 0.89202 0.72825 0.23027 0.0
H562 H 0.83849 0.76998 0.19422 0.0
H563 H 0.94441 0.51729 0.33581 0.0
H564 H 0.32239 0.4751 0.8133 0.0
H565 H 0.35775 0.45618 0.78282 0.0
H566 H 0.43268 0.40509 0.8253 0.0
H567 H 0.3974 0.42513 0.85613 0.0
H568 H 0.46805 0.43739 0.79525 0.0
H569 H 0.37121 0.35778 0.79541 0.0
H570 H 0.31032 0.33413 0.79571 0.0
H571 H 0.28749 0.38759 0.73662 0.0
H572 H 0.34836 0.41259 0.73626 0.0
H573 H 0.53099 0.33847 0.7003 0.0
H574 H 0.50964 0.35538 0.73594 0.0
H575 H 0.44424 0.43741 0.70791 0.0
H576 H 0.46548 0.42119 0.67245 0.0
H577 H 0.40862 0.38162 0.73283 0.0
H578 H 0.50815 0.46427 0.73555 0.0
H579 H 0.57207 0.47962 0.73467 0.0
H580 H 0.59121 0.41132 0.78849 0.0
H581 H 0.52743 0.39514 0.78949 0.0
C582 C 0.34613 0.45951 0.81617 0.0
C583 C 0.35688 0.45128 0.83709 0.0
C584 C 0.3664 0.44866 0.79871 0.0
C585 C 0.39758 0.42858 0.80168 0.0
C586 C 0.40867 0.42049 0.82259 0.0
C587 C 0.38852 0.43186 0.84017 0.0
C588 C 0.41849 0.41669 0.78282 0.0
C589 C 0.45511 0.42468 0.78175 0.0
C590 C 0.40176 0.40011 0.76511 0.0
C591 C 0.36442 0.38705 0.76584 0.0
C592 C 0.35315 0.36485 0.78259 0.0
C593 C 0.31862 0.35106 0.7827 0.0
C594 C 0.29515 0.35879 0.76599 0.0
C595 C 0.30586 0.38125 0.74941 0.0
C596 C 0.34037 0.39534 0.74929 0.0
C597 C 0.51266 0.36061 0.70177 0.0
C598 C 0.49959 0.3782 0.68352 0.0
C599 C 0.50063 0.37028 0.72214 0.0
C600 C 0.4754 0.39755 0.72443 0.0
C601 C 0.46378 0.4163 0.70637 0.0
C602 C 0.47592 0.40691 0.68612 0.0
C603 C 0.45737 0.40371 0.74505 0.0
C604 C 0.42137 0.39427 0.74643 0.0
C605 C 0.47482 0.41833 0.76301 0.0
C606 C 0.51309 0.42816 0.76243 0.0
C607 C 0.52604 0.45222 0.74706 0.0
C608 C 0.56223 0.46115 0.74657 0.0
C609 C 0.58571 0.44636 0.76147 0.0
C610 C 0.57301 0.4227 0.77694 0.0
C611 C 0.53683 0.41367 0.77748 0.0
H612 H 0.61372 0.45331 0.76107 0.0
H613 H 0.26857 0.34756 0.76592 0.0
H614 H 0.70179 0.89329 0.34806 0.0
H615 H 0.72415 0.91894 0.31456 0.0
H616 H 0.61677 0.94724 0.29663 0.0
H617 H 0.59445 0.9221 0.33025 0.0
H618 H 0.65739 0.90384 0.26627 0.0
H619 H 0.66647 0.01181 0.30742 0.0
H620 H 0.68542 0.04799 0.33828 0.0
H621 H 0.79517 0.02567 0.324 0.0
H622 H 0.77684 0.9889 0.29322 0.0
H623 H 0.70607 0.98355 0.16812 0.0
H624 H 0.67914 0.9717 0.20301 0.0
H625 H 0.78345 0.97566 0.23228 0.0
H626 H 0.80983 0.99034 0.19768 0.0
H627 H 0.74095 0.00521 0.25752 0.0
H628 H 0.73505 0.89726 0.21771 0.0
H629 H 0.7194 0.85745 0.18782 0.0
H630 H 0.60815 0.87211 0.20119 0.0
H631 H 0.62312 0.91346 0.23048 0.0
C632 C 0.68316 0.9056 0.3371 0.0
C633 C 0.6465 0.9059 0.34169 0.0
C634 C 0.69588 0.92025 0.31807 0.0
C635 C 0.67204 0.93495 0.30322 0.0
C636 C 0.63552 0.93611 0.30799 0.0
C637 C 0.62286 0.92202 0.3272 0.0
C638 C 0.68502 0.94654 0.28205 0.0
C639 C 0.67514 0.92641 0.26416 0.0
C640 C 0.70917 0.9751 0.27969 0.0
C641 C 0.72025 0.99733 0.29813 0.0
C642 C 0.69463 0.01435 0.31097 0.0
C643 C 0.70526 0.03503 0.32843 0.0
C644 C 0.74147 0.03906 0.33313 0.0
C645 C 0.76713 0.0225 0.32035 0.0
C646 C 0.75663 0.00177 0.30289 0.0
C647 C 0.7231 0.98209 0.18208 0.0
C648 C 0.75999 0.98766 0.18029 0.0
C649 C 0.70777 0.97509 0.20199 0.0
C650 C 0.72928 0.972 0.22031 0.0
C651 C 0.76618 0.97794 0.21846 0.0
C652 C 0.78132 0.98616 0.19868 0.0
C653 C 0.71355 0.96238 0.24138 0.0
C654 C 0.72298 0.98278 0.25937 0.0
C655 C 0.68947 0.93347 0.2439 0.0
C656 C 0.68031 0.90881 0.22614 0.0
C657 C 0.70728 0.89226 0.21412 0.0
C658 C 0.69852 0.86938 0.19731 0.0
C659 C 0.66284 0.86201 0.1927 0.0
C660 C 0.63581 0.87782 0.20478 0.0
C661 C 0.64443 0.90116 0.22142 0.0
H662 H 0.65614 0.8441 0.17975 0.0
H663 H 0.74965 0.05508 0.34665 0.0
H664 H 0.03356 0.79651 0.29939 0.0
H665 H 0.01689 0.81809 0.26386 0.0
H666 H 0.93684 0.88585 0.29206 0.0
H667 H 0.95317 0.86442 0.32757 0.0
H668 H 0.91128 0.84879 0.25766 0.0
H669 H 0.01417 0.92043 0.27523 0.0
H670 H 0.07671 0.93053 0.28582 0.0
H671 H 0.11269 0.87431 0.2301 0.0
H672 H 0.05029 0.86343 0.21933 0.0
H673 H 0.86451 0.97055 0.18057 0.0
H674 H 0.89342 0.94632 0.21235 0.0
H675 H 0.96287 0.88327 0.17248 0.0
H676 H 0.93409 0.90847 0.14038 0.0
H677 H 0.99678 0.91143 0.21007 0.0
H678 H 0.89338 0.84256 0.19166 0.0
H679 H 0.83107 0.83951 0.17931 0.0
H680 H 0.79634 0.89289 0.23631 0.0
H681 H 0.85865 0.89679 0.24886 0.0
C682 C 0.01244 0.81606 0.29805 0.0
C683 C 0.99474 0.82882 0.31633 0.0
C684 C 0.00304 0.82841 0.27773 0.0
C685 C 0.97578 0.8537 0.27536 0.0
C686 C 0.95794 0.8663 0.29355 0.0
C687 C 0.96741 0.85411 0.31385 0.0
C688 C 0.96547 0.867 0.25394 0.0
C689 C 0.92999 0.86256 0.24733 0.0
C690 C 0.99009 0.88416 0.24018 0.0
C691 C 0.02758 0.89074 0.24662 0.0
C692 C 0.03542 0.90993 0.26534 0.0
C693 C 0.07084 0.91586 0.27135 0.0
C694 C 0.09866 0.90297 0.25868 0.0
C695 C 0.09111 0.88421 0.23993 0.0
C696 C 0.05572 0.87817 0.23385 0.0
C697 C 0.88611 0.95172 0.17864 0.0
C698 C 0.89668 0.94074 0.15818 0.0
C699 C 0.90272 0.93805 0.19673 0.0
C700 C 0.92979 0.91249 0.19475 0.0
C701 C 0.94193 0.9029 0.1743 0.0
C702 C 0.9255 0.91712 0.15606 0.0
C703 C 0.94259 0.89379 0.21413 0.0
C704 C 0.97837 0.89708 0.2203 0.0
C705 C 0.91836 0.87545 0.22754 0.0
C706 C 0.88065 0.87007 0.22114 0.0
C707 C 0.87243 0.85351 0.2016 0.0
C708 C 0.83716 0.85178 0.19452 0.0
C709 C 0.80983 0.86619 0.20695 0.0
C710 C 0.8176 0.88183 0.22667 0.0
C711 C 0.85289 0.88372 0.23381 0.0
H712 H 0.78264 0.86505 0.20129 0.0
H713 H 0.12606 0.90759 0.26336 0.0
H714 H 0.17854 0.48782 0.82006 0.0
H715 H 0.16533 0.46121 0.78533 0.0
H716 H 0.26989 0.49107 0.76273 0.0
H717 H 0.28244 0.51957 0.79705 0.0
H718 H 0.22411 0.49424 0.73105 0.0
H719 H 0.25201 0.41265 0.78617 0.0
H720 H 0.24641 0.38342 0.82116 0.0
H721 H 0.14305 0.34367 0.80374 0.0
H722 H 0.14762 0.37329 0.76871 0.0
H723 H 0.19395 0.31065 0.67177 0.0
H724 H 0.21756 0.34507 0.70181 0.0
H725 H 0.1475 0.43213 0.6856 0.0
H726 H 0.12417 0.39806 0.65553 0.0
H727 H 0.18668 0.36773 0.73614 0.0
H728 H 0.18204 0.5107 0.69946 0.0
H729 H 0.19239 0.53966 0.66463 0.0
H730 H 0.25984 0.45297 0.64547 0.0
H731 H 0.25032 0.42373 0.68028 0.0
C732 C 0.19839 0.48942 0.80752 0.0
C733 C 0.23179 0.50508 0.81139 0.0
C734 C 0.19087 0.47411 0.78771 0.0
C735 C 0.21705 0.47319 0.77167 0.0
C736 C 0.24942 0.49119 0.77494 0.0
C737 C 0.25661 0.50732 0.79461 0.0
C738 C 0.21178 0.45092 0.75234 0.0
C739 C 0.21584 0.46661 0.73215 0.0
C740 C 0.20243 0.41438 0.75382 0.0
C741 C 0.20007 0.39553 0.77474 0.0
C742 C 0.22794 0.39789 0.78977 0.0
C743 C 0.22493 0.38128 0.80967 0.0
C744 C 0.19424 0.36199 0.81474 0.0
C745 C 0.16673 0.35882 0.79981 0.0
C746 C 0.16955 0.37549 0.77991 0.0
C747 C 0.18369 0.33717 0.67457 0.0
C748 C 0.15719 0.35164 0.66122 0.0
C749 C 0.19727 0.35686 0.69172 0.0
C750 C 0.18463 0.39138 0.69587 0.0
C751 C 0.15835 0.40592 0.68246 0.0
C752 C 0.14498 0.38638 0.66525 0.0
C753 C 0.19727 0.41155 0.71486 0.0
C754 C 0.19497 0.39535 0.73503 0.0
C755 C 0.20908 0.44731 0.71336 0.0
C756 C 0.2152 0.46489 0.69243 0.0
C757 C 0.19921 0.49789 0.68785 0.0
C758 C 0.20491 0.51434 0.6681 0.0
C759 C 0.22668 0.49812 0.65282 0.0
C760 C 0.24288 0.46545 0.65729 0.0
C761 C 0.2373 0.4489 0.67701 0.0
H762 H 0.23104 0.51089 0.63754 0.0
H763 H 0.19184 0.34938 0.83022 0.0
H764 H 0.56796 0.78129 0.30849 0.0
H765 H 0.58174 0.75593 0.27328 0.0
H766 H 0.68818 0.7311 0.29465 0.0
H767 H 0.67442 0.75552 0.32998 0.0
H768 H 0.67953 0.77021 0.25281 0.0
H769 H 0.63841 0.66672 0.2932 0.0
H770 H 0.59392 0.63405 0.31459 0.0
H771 H 0.51818 0.64255 0.26336 0.0
H772 H 0.56211 0.6758 0.24179 0.0
H773 H 0.76308 0.65174 0.18367 0.0
H774 H 0.73656 0.6818 0.21418 0.0
H775 H 0.63196 0.66863 0.18648 0.0
H776 H 0.65868 0.6381 0.15563 0.0
H777 H 0.63058 0.65432 0.22834 0.0
H778 H 0.6738 0.74805 0.18534 0.0
H779 H 0.71683 0.78121 0.16323 0.0
H780 H 0.78433 0.79624 0.21793 0.0
H781 H 0.74262 0.76192 0.24014 0.0
C782 C 0.59429 0.77042 0.30566 0.0
C783 C 0.62014 0.77032 0.32195 0.0
C784 C 0.60204 0.75591 0.2856 0.0
C785 C 0.63592 0.7417 0.28148 0.0
C786 C 0.66189 0.74199 0.29761 0.0
C787 C 0.65395 0.75581 0.31776 0.0
C788 C 0.64466 0.72656 0.26033 0.0
C789 C 0.66911 0.74477 0.24744 0.0
C790 C 0.62965 0.69423 0.25307 0.0
C791 C 0.60336 0.67415 0.26601 0.0
C792 C 0.61215 0.66196 0.28659 0.0
C793 C 0.58706 0.64326 0.29873 0.0
C794 C 0.55319 0.63634 0.29037 0.0
C795 C 0.54439 0.64801 0.26984 0.0
C796 C 0.56937 0.66676 0.25765 0.0
C797 C 0.73447 0.65563 0.18386 0.0
C798 C 0.71299 0.64311 0.16702 0.0
C799 C 0.71931 0.67276 0.20138 0.0
C800 C 0.68233 0.67817 0.20243 0.0
C801 C 0.6606 0.66496 0.18592 0.0
C802 C 0.67583 0.64753 0.16834 0.0
C803 C 0.6668 0.69725 0.22102 0.0
C804 C 0.64083 0.67998 0.23343 0.0
C805 C 0.68007 0.73082 0.22771 0.0
C806 C 0.70519 0.75192 0.21438 0.0
C807 C 0.69806 0.75799 0.19261 0.0
C808 C 0.72231 0.77692 0.18002 0.0
C809 C 0.75352 0.79047 0.18909 0.0
C810 C 0.76029 0.78556 0.21084 0.0
C811 C 0.73642 0.7662 0.22343 0.0
H812 H 0.77225 0.80507 0.17929 0.0
H813 H 0.53381 0.62184 0.29979 0.0
H814 H 0.40962 0.15023 0.82838 0.0
H815 H 0.42084 0.17668 0.79338 0.0
H816 H 0.3278 0.12376 0.76809 0.0
H817 H 0.3168 0.09655 0.80299 0.0
H818 H 0.37974 0.121 0.74007 0.0
H819 H 0.32651 0.21031 0.78243 0.0
H820 H 0.31814 0.24899 0.81379 0.0
H821 H 0.41806 0.30058 0.80109 0.0
H822 H 0.42808 0.26095 0.77029 0.0
H823 H 0.39971 0.2903 0.66552 0.0
H824 H 0.37389 0.26086 0.69682 0.0
H825 H 0.45684 0.1813 0.69434 0.0
H826 H 0.48216 0.21019 0.66293 0.0
H827 H 0.39798 0.25157 0.73465 0.0
H828 H 0.43049 0.10331 0.71398 0.0
H829 H 0.43253 0.0645 0.68221 0.0
H830 H 0.35963 0.13386 0.64954 0.0
H831 H 0.35674 0.17282 0.6812 0.0
C832 C 0.39171 0.14393 0.81533 0.0
C833 C 0.36227 0.12133 0.81849 0.0
C834 C 0.39803 0.15926 0.79536 0.0
C835 C 0.37479 0.15274 0.7782 0.0
C836 C 0.34603 0.12927 0.78111 0.0
C837 C 0.33984 0.11367 0.80107 0.0
C838 C 0.38051 0.17064 0.7573 0.0
C839 C 0.38367 0.14956 0.73888 0.0
C840 C 0.38431 0.20811 0.75559 0.0
C841 C 0.37826 0.23225 0.77411 0.0
C842 C 0.34698 0.22954 0.78645 0.0
C843 C 0.34193 0.25166 0.80416 0.0
C844 C 0.3675 0.27726 0.80941 0.0
C845 C 0.39831 0.28066 0.79703 0.0
C846 C 0.40377 0.25826 0.77949 0.0
C847 C 0.41225 0.26639 0.67159 0.0
C848 C 0.44288 0.25247 0.66168 0.0
C849 C 0.39747 0.24957 0.68947 0.0
C850 C 0.4131 0.21856 0.69785 0.0
C851 C 0.44366 0.20462 0.68791 0.0
C852 C 0.45818 0.22119 0.66993 0.0
C853 C 0.3988 0.20173 0.71761 0.0
C854 C 0.39385 0.22305 0.73582 0.0
C855 C 0.39229 0.16464 0.719 0.0
C856 C 0.39364 0.14115 0.69993 0.0
C857 C 0.41476 0.1102 0.70006 0.0
C858 C 0.41609 0.08819 0.68205 0.0
C859 C 0.3963 0.09676 0.66385 0.0
C860 C 0.37505 0.12731 0.66362 0.0
C861 C 0.3736 0.1494 0.68159 0.0
H862 H 0.39738 0.07969 0.64993 0.0
H863 H 0.36338 0.29455 0.82302 0.0
H864 H 0.95293 0.31445 0.62358 0.0
H865 H 0.88907 0.32692 0.62439 0.0
H866 H 0.86654 0.21439 0.62054 0.0
H867 H 0.93068 0.20172 0.61926 0.0
H868 H 0.82746 0.25351 0.59206 0.0
H869 H 0.85368 0.25692 0.66668 0.0
H870 H 0.88638 0.27488 0.69912 0.0
H871 H 0.85869 0.38422 0.6878 0.0
H872 H 0.82625 0.36699 0.6551 0.0
H873 H 0.64235 0.27569 0.61171 0.0
H874 H 0.70475 0.2576 0.61425 0.0
H875 H 0.73645 0.36775 0.61947 0.0
H876 H 0.67394 0.3861 0.6169 0.0
H877 H 0.76999 0.3261 0.64867 0.0
H878 H 0.7471 0.3232 0.57304 0.0
H879 H 0.71487 0.30562 0.54034 0.0
H880 H 0.73674 0.19552 0.55348 0.0
H881 H 0.7687 0.21243 0.58643 0.0
C882 C 0.93437 0.29236 0.62288 0.0
C883 C 0.94669 0.25713 0.62127 0.0
C884 C 0.89795 0.2995 0.62355 0.0
C885 C 0.87319 0.27154 0.62273 0.0
C886 C 0.88534 0.23628 0.62128 0.0
C887 C 0.92187 0.22908 0.62068 0.0
C888 C 0.83464 0.27951 0.62244 0.0
C889 C 0.81468 0.2688 0.60462 0.0
C890 C 0.81837 0.30019 0.63862 0.0
C891 C 0.83777 0.31067 0.65833 0.0
C892 C 0.8548 0.28483 0.67101 0.0
C893 C 0.87325 0.29488 0.68947 0.0
C894 C 0.87468 0.33068 0.6955 0.0
C895 C 0.85758 0.3565 0.6831 0.0
C896 C 0.83912 0.3466 0.66462 0.0
C897 C 0.66265 0.29609 0.61315 0.0
C898 C 0.65334 0.33233 0.61397 0.0
C899 C 0.69824 0.2857 0.61466 0.0
C900 C 0.72515 0.31137 0.61684 0.0
C901 C 0.71598 0.34756 0.61783 0.0
C902 C 0.68033 0.35799 0.61638 0.0
C903 C 0.76292 0.30043 0.61818 0.0
C904 C 0.78272 0.31058 0.63619 0.0
C905 C 0.77906 0.27927 0.60217 0.0
C906 C 0.75997 0.26907 0.58232 0.0
C907 C 0.74479 0.29522 0.56905 0.0
C908 C 0.72661 0.28538 0.55045 0.0
C909 C 0.72367 0.24947 0.54487 0.0
C910 C 0.73899 0.22333 0.55784 0.0
C911 C 0.75716 0.23302 0.57647 0.0
H912 H 0.7096 0.2419 0.53046 0.0
H913 H 0.88897 0.33841 0.70979 0.0
H914 H 0.77254 0.43739 0.12112 0.0
H915 H 0.77267 0.37263 0.12392 0.0
H916 H 0.88772 0.37226 0.12195 0.0
H917 H 0.88777 0.4373 0.11846 0.0
H918 H 0.85936 0.32304 0.09544 0.0
H919 H 0.84621 0.35557 0.1683 0.0
H920 H 0.82133 0.38774 0.19922 0.0
H921 H 0.71881 0.34043 0.18777 0.0
H922 H 0.74294 0.30837 0.15657 0.0
H923 H 0.85847 0.13714 0.11928 0.0
H924 H 0.86976 0.20103 0.12251 0.0
H925 H 0.7566 0.22143 0.12032 0.0
H926 H 0.74504 0.15763 0.11671 0.0
H927 H 0.79189 0.2597 0.15213 0.0
H928 H 0.80477 0.23313 0.07671 0.0
H929 H 0.8303 0.20119 0.04586 0.0
H930 H 0.93506 0.2376 0.06301 0.0
H931 H 0.91017 0.26936 0.09415 0.0
C932 C 0.79787 0.42352 0.12114 0.0
C933 C 0.83014 0.44232 0.11951 0.0
C934 C 0.79792 0.38659 0.123 0.0
C935 C 0.83023 0.36781 0.12346 0.0
C936 C 0.86255 0.38642 0.12178 0.0
C937 C 0.86253 0.42347 0.11991 0.0
C938 C 0.8298 0.32859 0.12479 0.0
C939 C 0.84529 0.30911 0.10808 0.0
C940 C 0.81102 0.31061 0.14116 0.0
C941 C 0.79636 0.32973 0.15999 0.0
C942 C 0.8183 0.35221 0.17227 0.0
C943 C 0.80433 0.3704 0.18987 0.0
C944 C 0.7685 0.36618 0.19544 0.0
C945 C 0.74657 0.34369 0.18344 0.0
C946 C 0.76039 0.32546 0.16581 0.0
C947 C 0.836 0.15526 0.11931 0.0
C948 C 0.80086 0.14243 0.11759 0.0
C949 C 0.8425 0.19166 0.12128 0.0
C950 C 0.814 0.21577 0.12152 0.0
C951 C 0.77889 0.20307 0.12024 0.0
C952 C 0.77235 0.16668 0.11822 0.0
C953 C 0.82068 0.2544 0.12254 0.0
C954 C 0.80642 0.27368 0.1397 0.0
C955 C 0.84074 0.27218 0.10666 0.0
C956 C 0.85567 0.25326 0.08789 0.0
C957 C 0.83329 0.23407 0.074 0.0
C958 C 0.84763 0.21605 0.05645 0.0
C959 C 0.8843 0.21727 0.05252 0.0
C960 C 0.90668 0.23661 0.0661 0.0
C961 C 0.89247 0.25464 0.08369 0.0
H962 H 0.89535 0.20331 0.03892 0.0
H963 H 0.75774 0.38029 0.20907 0.0
H964 H 0.46134 0.83969 0.38554 0.0
H965 H 0.39703 0.84578 0.3811 0.0
H966 H 0.38613 0.73138 0.37941 0.0
H967 H 0.45098 0.7251 0.38366 0.0
H968 H 0.34401 0.76442 0.34954 0.0
H969 H 0.3676 0.77514 0.42451 0.0
H970 H 0.39772 0.79871 0.45656 0.0
H971 H 0.35973 0.90383 0.44199 0.0
H972 H 0.32981 0.88096 0.40966 0.0
H973 H 0.16046 0.75605 0.37808 0.0
H974 H 0.22531 0.75051 0.37584 0.0
H975 H 0.23517 0.86499 0.37415 0.0
H976 H 0.17009 0.87071 0.37655 0.0
H977 H 0.27776 0.83235 0.4048 0.0
H978 H 0.25174 0.82006 0.33026 0.0
H979 H 0.22117 0.79525 0.29872 0.0
H980 H 0.26267 0.69145 0.3132 0.0
H981 H 0.29309 0.71554 0.34504 0.0
C982 C 0.44521 0.81582 0.38433 0.0
C983 C 0.46091 0.78191 0.3853 0.0
C984 C 0.40856 0.81935 0.38172 0.0
C985 C 0.38689 0.78903 0.3803 0.0
C986 C 0.40253 0.75507 0.38055 0.0
C987 C 0.43941 0.75151 0.38301 0.0
C988 C 0.3478 0.79309 0.37927 0.0
C989 C 0.32939 0.77885 0.36173 0.0
C990 C 0.32903 0.81259 0.39501 0.0
C991 C 0.34674 0.82638 0.41455 0.0
C992 C 0.36589 0.80333 0.42805 0.0
C993 C 0.38289 0.81656 0.44628 0.0
C994 C 0.38071 0.85276 0.45128 0.0
C995 C 0.36143 0.87579 0.43809 0.0
C996 C 0.34442 0.86271 0.41981 0.0
C997 C 0.1765 0.78001 0.37715 0.0
C998 C 0.16047 0.81381 0.37762 0.0
C999 C 0.21341 0.77681 0.37568 0.0
C1000 C 0.23483 0.80735 0.37469 0.0
C1001 C 0.2189 0.84116 0.37481 0.0
C1002 C 0.18188 0.84438 0.3761 0.0
C1003 C 0.27395 0.80383 0.37503 0.0
C1004 C 0.29238 0.81807 0.39253 0.0
C1005 C 0.29258 0.78412 0.35935 0.0
C1006 C 0.27444 0.76956 0.34016 0.0
C1007 C 0.2541 0.79188 0.32684 0.0
C1008 C 0.23685 0.77796 0.30888 0.0
C1009 C 0.23991 0.74178 0.30399 0.0
C1010 C 0.2603 0.71946 0.31702 0.0
C1011 C 0.27759 0.73325 0.33501 0.0
H1012 H 0.22653 0.73105 0.29007 0.0
H1013 H 0.3939 0.86295 0.4654 0.0
H1014 H 0.28551 0.96073 0.88947 0.0
H1015 H 0.2733 0.89701 0.88748 0.0
H1016 H 0.38559 0.87603 0.87906 0.0
H1017 H 0.39795 0.94018 0.88078 0.0
H1018 H 0.34578 0.836 0.85252 0.0
H1019 H 0.34603 0.86237 0.92724 0.0
H1020 H 0.32932 0.89492 0.95995 0.0
H1021 H 0.21963 0.86591 0.95064 0.0
H1022 H 0.23561 0.83361 0.91768 0.0
H1023 H 0.33118 0.65098 0.87725 0.0
H1024 H 0.34698 0.71419 0.87732 0.0
H1025 H 0.23561 0.74205 0.88181 0.0
H1026 H 0.21963 0.67879 0.88211 0.0
H1027 H 0.2776 0.77782 0.91085 0.0
H1028 H 0.27813 0.7521 0.83554 0.0
H1029 H 0.29573 0.71925 0.8031 0.0
H1030 H 0.40546 0.74627 0.81422 0.0
H1031 H 0.38857 0.77888 0.84691 0.0
C1032 C 0.30763 0.94251 0.88733 0.0
C1033 C 0.34273 0.95526 0.88554 0.0
C1034 C 0.30062 0.90616 0.88618 0.0
C1035 C 0.32862 0.8818 0.88353 0.0
C1036 C 0.36365 0.89445 0.88121 0.0
C1037 C 0.37067 0.93099 0.88218 0.0
C1038 C 0.32103 0.84315 0.88329 0.0
C1039 C 0.33138 0.82312 0.86542 0.0
C1040 C 0.30168 0.82659 0.89997 0.0
C1041 C 0.29199 0.84581 0.91988 0.0
C1042 C 0.31831 0.86314 0.93208 0.0
C1043 C 0.30897 0.88152 0.95068 0.0
C1044 C 0.27343 0.88254 0.95734 0.0
C1045 C 0.24715 0.86512 0.94544 0.0
C1046 C 0.25634 0.84674 0.92681 0.0
C1047 C 0.31009 0.67061 0.8783 0.0
C1048 C 0.27419 0.66006 0.87971 0.0
C1049 C 0.31913 0.70664 0.87817 0.0
C1050 C 0.29242 0.73267 0.87941 0.0
C1051 C 0.25655 0.72226 0.88077 0.0
C1052 C 0.24747 0.68621 0.8808 0.0
C1053 C 0.30198 0.77081 0.87999 0.0
C1054 C 0.29209 0.79071 0.89799 0.0
C1055 C 0.32192 0.78712 0.86349 0.0
C1056 C 0.33211 0.76762 0.8438 0.0
C1057 C 0.30605 0.75078 0.83117 0.0
C1058 C 0.31589 0.73225 0.81272 0.0
C1059 C 0.3517 0.73059 0.80663 0.0
C1060 C 0.37774 0.74754 0.81897 0.0
C1061 C 0.36804 0.76607 0.83745 0.0
H1062 H 0.35927 0.71624 0.79234 0.0
H1063 H 0.26625 0.89679 0.97175 0.0
H1064 H 0.44979 0.33463 0.54981 0.0
H1065 H 0.39924 0.32039 0.52643 0.0
H1066 H 0.32677 0.35769 0.57518 0.0
H1067 H 0.37663 0.37271 0.59801 0.0
H1068 H 0.35353 0.2723 0.53249 0.0
H1069 H 0.25247 0.38462 0.56094 0.0
H1070 H 0.25198 0.45011 0.56236 0.0
H1071 H 0.33616 0.45433 0.51596 0.0
H1072 H 0.33683 0.3888 0.51392 0.0
H1073 H 0.22194 0.22319 0.59449 0.0
H1074 H 0.26923 0.24179 0.57063 0.0
H1075 H 0.19187 0.28991 0.52842 0.0
H1076 H 0.14401 0.27167 0.55277 0.0
H1077 H 0.23834 0.33649 0.53749 0.0
H1078 H 0.25224 0.2273 0.50717 0.0
H1079 H 0.25245 0.1622 0.50233 0.0
H1080 H 0.34135 0.15298 0.5452 0.0
H1081 H 0.34139 0.21788 0.55065 0.0
C1082 C 0.42302 0.34055 0.55524 0.0
C1083 C 0.41705 0.35443 0.57581 0.0
C1084 C 0.39421 0.33252 0.54184 0.0
C1085 C 0.35911 0.33843 0.54881 0.0
C1086 C 0.35348 0.35386 0.56901 0.0
C1087 C 0.38209 0.36199 0.58228 0.0
C1088 C 0.32807 0.32313 0.53731 0.0
C1089 C 0.32834 0.2864 0.53307 0.0
C1090 C 0.29545 0.34196 0.53617 0.0
C1091 C 0.29453 0.38157 0.53715 0.0
C1092 C 0.27056 0.3994 0.55078 0.0
C1093 C 0.27036 0.4366 0.55178 0.0
C1094 C 0.29397 0.45637 0.53923 0.0
C1095 C 0.31787 0.43898 0.52567 0.0
C1096 C 0.3182 0.40179 0.5246 0.0
C1097 C 0.21484 0.23698 0.5799 0.0
C1098 C 0.17941 0.24647 0.57566 0.0
C1099 C 0.24192 0.2472 0.56601 0.0
C1100 C 0.23419 0.26696 0.54749 0.0
C1101 C 0.19847 0.2745 0.5425 0.0
C1102 C 0.17121 0.26417 0.55646 0.0
C1103 C 0.26397 0.28516 0.53636 0.0
C1104 C 0.26349 0.32253 0.53586 0.0
C1105 C 0.29633 0.26705 0.53234 0.0
C1106 C 0.29696 0.22774 0.52918 0.0
C1107 C 0.27181 0.21144 0.51563 0.0
C1108 C 0.27186 0.17451 0.51279 0.0
C1109 C 0.29695 0.15348 0.52341 0.0
C1110 C 0.32203 0.16934 0.5369 0.0
C1111 C 0.32211 0.20627 0.53981 0.0
H1112 H 0.29692 0.12489 0.52121 0.0
H1113 H 0.29379 0.48516 0.54005 0.0
H1114 H 0.77368 0.71004 0.09448 0.0
H1115 H 0.76356 0.75476 0.06696 0.0
H1116 H 0.80298 0.68242 0.01884 0.0
H1117 H 0.8121 0.63675 0.04657 0.0
H1118 H 0.8402 0.74863 0.0223 0.0
H1119 H 0.72686 0.71501 0.00411 0.0
H1120 H 0.66677 0.68907 0.00757 0.0
H1121 H 0.63699 0.77237 0.05102 0.0
H1122 H 0.69696 0.79853 0.04817 0.0
H1123 H 0.77626 0.9444 0.04363 0.0
H1124 H 0.77833 0.8963 0.01678 0.0
H1125 H 0.8123 0.82278 0.06572 0.0
H1126 H 0.80913 0.86991 0.09239 0.0
H1127 H 0.73533 0.82884 0.02411 0.0
H1128 H 0.88125 0.78015 0.04415 0.0
H1129 H 0.94143 0.80625 0.04385 0.0
H1130 H 0.90654 0.88703 1.00005 0.0
H1131 H 0.84618 0.86108 0.99971 0.0
C1132 C 0.77935 0.70339 0.07798 0.0
C1133 C 0.79381 0.67027 0.07257 0.0
C1134 C 0.77316 0.7287 0.06221 0.0
C1135 C 0.78195 0.72161 0.04079 0.0
C1136 C 0.79539 0.68806 0.0352 0.0
C1137 C 0.80074 0.66222 0.05101 0.0
C1138 C 0.78329 0.75208 0.02592 0.0
C1139 C 0.81725 0.76618 0.02192 0.0
C1140 C 0.75304 0.7742 0.02382 0.0
C1141 C 0.71649 0.75905 0.02566 0.0
C1142 C 0.70753 0.72784 0.01442 0.0
C1143 C 0.67346 0.71305 0.0163 0.0
C1144 C 0.64803 0.72915 0.02943 0.0
C1145 C 0.65665 0.76005 0.04074 0.0
C1146 C 0.69069 0.77497 0.03892 0.0
C1147 C 0.7847 0.918 0.04844 0.0
C1148 C 0.79231 0.91051 0.06999 0.0
C1149 C 0.78597 0.89077 0.03314 0.0
C1150 C 0.79605 0.85632 0.03925 0.0
C1151 C 0.80512 0.84944 0.06064 0.0
C1152 C 0.80296 0.8762 0.0759 0.0
C1153 C 0.79252 0.82547 0.02486 0.0
C1154 C 0.75813 0.8112 0.02294 0.0
C1155 C 0.8224 0.80319 0.02176 0.0
C1156 C 0.85908 0.81832 0.02169 0.0
C1157 C 0.8864 0.80312 0.03416 0.0
C1158 C 0.92058 0.81802 0.03419 0.0
C1159 C 0.92784 0.84821 0.02189 0.0
C1160 C 0.90091 0.8636 0.00955 0.0
C1161 C 0.86669 0.84881 0.00943 0.0
H1162 H 0.95431 0.85972 0.02197 0.0
H1163 H 0.62168 0.71764 0.03088 0.0
H1164 H 0.65896 0.79596 0.45825 0.0
H1165 H 0.70713 0.80151 0.48473 0.0
H1166 H 0.77567 0.84582 0.43608 0.0
H1167 H 0.72832 0.8395 0.40978 0.0
H1168 H 0.76751 0.76313 0.47938 0.0
H1169 H 0.8322 0.90185 0.45465 0.0
H1170 H 0.81331 0.96452 0.45403 0.0
H1171 H 0.72811 0.94093 0.49759 0.0
H1172 H 0.74688 0.87811 0.49892 0.0
H1173 H 0.89225 0.77442 0.40914 0.0
H1174 H 0.84656 0.77261 0.43666 0.0
H1175 H 0.91965 0.81977 0.48189 0.0
H1176 H 0.96621 0.82073 0.45414 0.0
H1177 H 0.85857 0.85869 0.47674 0.0
H1178 H 0.87972 0.74565 0.5005 0.0
H1179 H 0.89895 0.68291 0.5005 0.0
H1180 H 0.81291 0.65587 0.45824 0.0
H1181 H 0.79345 0.71842 0.45763 0.0
C1182 C 0.68407 0.80783 0.45348 0.0
C1183 C 0.69031 0.81697 0.43201 0.0
C1184 C 0.71139 0.81114 0.46861 0.0
C1185 C 0.74479 0.82457 0.4625 0.0
C1186 C 0.74989 0.83615 0.44135 0.0
C1187 C 0.72301 0.8321 0.42621 0.0
C1188 C 0.77682 0.8194 0.47595 0.0
C1189 C 0.78744 0.78404 0.47942 0.0
C1190 C 0.80229 0.847 0.4778 0.0
C1191 C 0.79121 0.88506 0.47705 0.0
C1192 C 0.80975 0.90995 0.46438 0.0
C1193 C 0.79896 0.94557 0.46382 0.0
C1194 C 0.76957 0.95672 0.47579 0.0
C1195 C 0.75089 0.93226 0.48833 0.0
C1196 C 0.76159 0.89661 0.48898 0.0
C1197 C 0.89887 0.78346 0.42511 0.0
C1198 C 0.93243 0.79788 0.42959 0.0
C1199 C 0.87294 0.78201 0.44094 0.0
C1200 C 0.87988 0.79551 0.46149 0.0
C1201 C 0.91401 0.80862 0.46629 0.0
C1202 C 0.9404 0.80928 0.45045 0.0
C1203 C 0.84902 0.80224 0.4756 0.0
C1204 C 0.8386 0.8379 0.47791 0.0
C1205 C 0.82373 0.77495 0.47902 0.0
C1206 C 0.83483 0.7369 0.47927 0.0
C1207 C 0.86487 0.72637 0.49119 0.0
C1208 C 0.87585 0.69079 0.49126 0.0
C1209 C 0.85708 0.6654 0.47945 0.0
C1210 C 0.8273 0.67554 0.46749 0.0
C1211 C 0.81619 0.71108 0.46735 0.0
H1212 H 0.86565 0.63788 0.47951 0.0
H1213 H 0.76124 0.98431 0.47531 0.0
H1214 H 0.36444 0.23131 0.90975 0.0
H1215 H 0.34554 0.2794 0.93282 0.0
H1216 H 0.29525 0.20399 0.97536 0.0
H1217 H 0.31404 0.15515 0.95177 0.0
H1218 H 0.24954 0.25191 0.96528 0.0
H1219 H 0.35816 0.26357 0.99711 0.0
H1220 H 0.42315 0.2619 0.00281 0.0
H1221 H 0.43688 0.34825 0.95862 0.0
H1222 H 0.37215 0.35012 0.9523 0.0
H1223 H 0.26163 0.46148 0.94736 0.0
H1224 H 0.27111 0.41272 0.97278 0.0
H1225 H 0.23426 0.33771 0.92531 0.0
H1226 H 0.22401 0.38592 0.90039 0.0
H1227 H 0.31761 0.36489 0.96946 0.0
H1228 H 0.20264 0.26597 0.94121 0.0
H1229 H 0.13722 0.26814 0.93855 0.0
H1230 H 0.13444 0.35624 0.98223 0.0
H1231 H 0.19987 0.35424 0.98557 0.0
C1232 C 0.35005 0.22479 0.92424 0.0
C1233 C 0.3403 0.1896 0.92883 0.0
C1234 C 0.33967 0.25234 0.93769 0.0
C1235 C 0.31938 0.2454 0.95611 0.0
C1236 C 0.31119 0.20996 0.96138 0.0
C1237 C 0.32184 0.18216 0.94788 0.0
C1238 C 0.3017 0.27582 0.96687 0.0
C1239 C 0.26427 0.27663 0.96674 0.0
C1240 C 0.32077 0.30768 0.97073 0.0
C1241 C 0.36001 0.30717 0.97439 0.0
C1242 C 0.37499 0.28219 0.98855 0.0
C1243 C 0.41185 0.28118 0.99188 0.0
C1244 C 0.43411 0.30503 0.98113 0.0
C1245 C 0.41957 0.32991 0.96702 0.0
C1246 C 0.38273 0.33105 0.96362 0.0
C1247 C 0.25476 0.4346 0.94262 0.0
C1248 C 0.24251 0.42736 0.92182 0.0
C1249 C 0.26004 0.40682 0.95719 0.0
C1250 C 0.25296 0.37149 0.95117 0.0
C1251 C 0.23895 0.36471 0.93072 0.0
C1252 C 0.2336 0.39233 0.91626 0.0
C1253 C 0.26614 0.34098 0.96401 0.0
C1254 C 0.3026 0.34023 0.96909 0.0
C1255 C 0.24602 0.3092 0.96547 0.0
C1256 C 0.2064 0.30977 0.96378 0.0
C1257 C 0.18818 0.28548 0.95054 0.0
C1258 C 0.15102 0.28679 0.94883 0.0
C1259 C 0.13168 0.31226 0.96024 0.0
C1260 C 0.14945 0.33649 0.97341 0.0
C1261 C 0.1866 0.3353 0.9752 0.0
H1262 H 0.10292 0.31326 0.95885 0.0
H1263 H 0.46265 0.30418 0.98372 0.0
loop_
_geom_bond_atom_site_label_1
_geom_bond_atom_site_label_2
_geom_bond_distance
_geom_bond_site_symmetry_2
_ccdc_geom_bond_type
Co0 N4 2.148 . S
Co0 N10 2.128 . S
Co0 N20 2.194 . S
Co0 O25 2.351 . S
Co0 O26 2.155 . S
Co0 O27 2.096 . S
C1 N4 1.301 . S
C1 N5 1.328 . S
C1 H6 0.930 . S
C2 C3 1.333 . S
C2 N4 1.317 . S
C2 H7 0.930 . S
C3 C2 1.333 . S
C3 N5 1.350 . S
C3 H29 0.931 . S
N4 Co0 2.148 . S
N4 C1 1.301 . S
N4 C2 1.317 . S
N5 C1 1.328 . S
N5 C3 1.350 . S
H6 C1 0.930 . S
H7 C2 0.930 . S
C8 O9 1.224 . S
C8 O27 1.247 . S
O9 C8 1.224 . S
N10 Co0 2.128 . S
N10 C11 1.355 . S
N10 C13 1.311 . S
C11 N10 1.355 . S
C11 C12 1.363 . S
C11 H23 0.929 . S
C12 C11 1.363 . S
C12 N14 1.375 . S
C12 H30 0.931 . S
C13 N10 1.311 . S
C13 N14 1.347 . S
C13 H24 0.929 . S
N14 C12 1.375 . S
N14 C13 1.347 . S
C15 C18 1.365 . S
C15 N20 1.328 . S
C15 H21 0.929 . S
C16 C17 1.362 . S
C16 C19 1.378 1_655 S
C16 H31 0.929 . S
C17 C16 1.362 . S
C17 C18 1.366 1_655 S
C18 C15 1.365 . S
C18 C17 1.366 1_455 S
C18 H32 0.930 1_455 S
C19 C16 1.378 1_455 S
C19 N20 1.315 . S
C19 H22 0.930 . S
N20 Co0 2.194 . S
N20 C15 1.328 . S
N20 C19 1.315 . S
H21 C15 0.929 . S
H22 C19 0.930 . S
H23 C11 0.929 . S
H24 C13 0.929 . S
O25 Co0 2.351 . S
O25 C28 1.244 . S
O26 Co0 2.155 . S
O26 C28 1.240 . S
O27 Co0 2.096 . S
O27 C8 1.247 . S
C28 O25 1.244 . S
C28 O26 1.240 . S
H29 C3 0.931 . S
H30 C12 0.931 . S
H31 C16 0.929 . S
H32 C18 0.930 1_655 S
Co33 N37 2.148 . S
Co33 N43 2.128 . S
Co33 N53 2.194 . S
Co33 O58 2.351 . S
Co33 O59 2.155 . S
Co33 O60 2.096 . S
C34 N37 1.301 . S
C34 N38 1.328 . S
C34 H39 0.930 . S
C35 C36 1.333 . S
C35 N37 1.317 . S
C35 H40 0.930 . S
C36 C35 1.333 . S
C36 N38 1.350 . S
C36 H62 0.931 . S
N37 Co33 2.148 . S
N37 C34 1.301 . S
N37 C35 1.317 . S
N38 C34 1.328 . S
N38 C36 1.350 . S
H39 C34 0.930 . S
H40 C35 0.930 . S
C41 O42 1.224 . S
C41 O60 1.247 . S
O42 C41 1.224 . S
N43 Co33 2.128 . S
N43 C44 1.355 . S
N43 C46 1.311 . S
C44 N43 1.355 . S
C44 C45 1.363 . S
C44 H56 0.929 . S
C45 C44 1.363 . S
C45 N47 1.375 . S
C45 H63 0.931 . S
C46 N43 1.311 . S
C46 N47 1.347 . S
C46 H57 0.929 . S
N47 C45 1.375 . S
N47 C46 1.347 . S
C48 C51 1.365 . S
C48 N53 1.328 . S
C48 H54 0.929 . S
C49 C50 1.362 . S
C49 C52 1.378 . S
C49 H64 0.929 . S
C50 C49 1.362 . S
C50 C51 1.366 . S
C51 C48 1.365 . S
C51 C50 1.366 . S
C51 H65 0.930 . S
C52 C49 1.378 . S
C52 N53 1.315 . S
C52 H55 0.930 . S
N53 Co33 2.194 . S
N53 C48 1.328 . S
N53 C52 1.315 . S
H54 C48 0.929 . S
H55 C52 0.930 . S
H56 C44 0.929 . S
H57 C46 0.929 . S
O58 Co33 2.351 . S
O58 C61 1.244 . S
O59 Co33 2.155 . S
O59 C61 1.240 . S
O60 Co33 2.096 . S
O60 C41 1.247 . S
C61 O58 1.244 . S
C61 O59 1.240 . S
H62 C36 0.931 . S
H63 C45 0.931 . S
H64 C49 0.929 . S
H65 C51 0.930 . S
Co66 N70 2.148 . S
Co66 N76 2.128 . S
Co66 N86 2.194 . S
Co66 O91 2.351 . S
Co66 O92 2.155 . S
Co66 O93 2.096 . S
C67 N70 1.301 . S
C67 N71 1.328 . S
C67 H72 0.930 . S
C68 C69 1.333 . S
C68 N70 1.317 . S
C68 H73 0.930 . S
C69 C68 1.333 . S
C69 N71 1.350 . S
C69 H95 0.931 . S
N70 Co66 2.148 . S
N70 C67 1.301 . S
N70 C68 1.317 . S
N71 C67 1.328 . S
N71 C69 1.350 . S
H72 C67 0.930 . S
H73 C68 0.930 . S
C74 O75 1.224 . S
C74 O93 1.247 . S
O75 C74 1.224 . S
N76 Co66 2.128 . S
N76 C77 1.355 . S
N76 C79 1.311 . S
C77 N76 1.355 . S
C77 C78 1.363 . S
C77 H89 0.929 . S
C78 C77 1.363 . S
C78 N80 1.375 . S
C78 H96 0.931 . S
C79 N76 1.311 . S
C79 N80 1.347 . S
C79 H90 0.929 . S
N80 C78 1.375 . S
N80 C79 1.347 . S
C81 C84 1.365 . S
C81 N86 1.328 . S
C81 H87 0.929 . S
C82 C83 1.362 . S
C82 C85 1.378 . S
C82 H97 0.929 . S
C83 C82 1.362 . S
C83 C84 1.366 . S
C84 C81 1.365 . S
C84 C83 1.366 . S
C84 H98 0.930 . S
C85 C82 1.378 . S
C85 N86 1.315 . S
C85 H88 0.930 . S
N86 Co66 2.194 . S
N86 C81 1.328 . S
N86 C85 1.315 . S
H87 C81 0.929 . S
H88 C85 0.930 . S
H89 C77 0.929 . S
H90 C79 0.929 . S
O91 Co66 2.351 . S
O91 C94 1.244 . S
O92 Co66 2.155 . S
O92 C94 1.240 . S
O93 Co66 2.096 . S
O93 C74 1.247 . S
C94 O91 1.244 . S
C94 O92 1.240 . S
H95 C69 0.931 . S
H96 C78 0.931 . S
H97 C82 0.929 . S
H98 C84 0.930 . S
Co99 N103 2.148 . S
Co99 N109 2.128 . S
Co99 N119 2.194 . S
Co99 O124 2.351 1_545 S
Co99 O125 2.155 1_545 S
Co99 O126 2.096 1_545 S
C100 N103 1.301 . S
C100 N104 1.328 . S
C100 H105 0.930 . S
C101 C102 1.333 . S
C101 N103 1.317 . S
C101 H106 0.930 . S
C102 C101 1.333 . S
C102 N104 1.350 . S
C102 H128 0.931 . S
N103 Co99 2.148 . S
N103 C100 1.301 . S
N103 C101 1.317 . S
N104 C100 1.328 . S
N104 C102 1.350 . S
H105 C100 0.930 . S
H106 C101 0.930 . S
C107 O108 1.224 . S
C107 O126 1.247 1_545 S
O108 C107 1.224 . S
N109 Co99 2.128 . S
N109 C110 1.355 . S
N109 C112 1.311 1_545 S
C110 N109 1.355 . S
C110 C111 1.363 . S
C110 H122 0.929 . S
C111 C110 1.363 . S
C111 N113 1.375 1_545 S
C111 H129 0.931 . S
C112 N109 1.311 1_565 S
C112 N113 1.347 . S
C112 H123 0.929 . S
N113 C111 1.375 1_565 S
N113 C112 1.347 . S
C114 C117 1.365 . S
C114 N119 1.328 . S
C114 H120 0.929 . S
C115 C116 1.362 . S
C115 C118 1.378 . S
C115 H130 0.929 . S
C116 C115 1.362 . S
C116 C117 1.366 . S
C117 C114 1.365 . S
C117 C116 1.366 . S
C117 H131 0.930 . S
C118 C115 1.378 . S
C118 N119 1.315 . S
C118 H121 0.930 . S
N119 Co99 2.194 . S
N119 C114 1.328 . S
N119 C118 1.315 . S
H120 C114 0.929 . S
H121 C118 0.930 . S
H122 C110 0.929 . S
H123 C112 0.929 . S
O124 Co99 2.351 1_565 S
O124 C127 1.244 . S
O125 Co99 2.155 1_565 S
O125 C127 1.240 . S
O126 Co99 2.096 1_565 S
O126 C107 1.247 1_565 S
C127 O124 1.244 . S
C127 O125 1.240 . S
H128 C102 0.931 . S
H129 C111 0.931 . S
H130 C115 0.929 . S
H131 C117 0.930 . S
Co132 N136 2.148 . S
Co132 N142 2.128 . S
Co132 N152 2.194 . S
Co132 O157 2.351 1_455 S
Co132 O158 2.155 1_455 S
Co132 O159 2.096 1_455 S
C133 N136 1.301 . S
C133 N137 1.328 . S
C133 H138 0.930 . S
C134 C135 1.333 . S
C134 N136 1.317 . S
C134 H139 0.930 . S
C135 C134 1.333 . S
C135 N137 1.350 . S
C135 H161 0.931 . S
N136 Co132 2.148 . S
N136 C133 1.301 . S
N136 C134 1.317 . S
N137 C133 1.328 . S
N137 C135 1.350 . S
H138 C133 0.930 . S
H139 C134 0.930 . S
C140 O141 1.224 . S
C140 O159 1.247 1_455 S
O141 C140 1.224 . S
N142 Co132 2.128 . S
N142 C143 1.355 . S
N142 C145 1.311 1_455 S
C143 N142 1.355 . S
C143 C144 1.363 . S
C143 H155 0.929 . S
C144 C143 1.363 . S
C144 N146 1.375 1_455 S
C144 H162 0.931 . S
C145 N142 1.311 1_655 S
C145 N146 1.347 . S
C145 H156 0.929 . S
N146 C144 1.375 1_655 S
N146 C145 1.347 . S
C147 C150 1.365 . S
C147 N152 1.328 . S
C147 H153 0.929 . S
C148 C149 1.362 . S
C148 C151 1.378 . S
C148 H163 0.929 . S
C149 C148 1.362 . S
C149 C150 1.366 . S
C150 C147 1.365 . S
C150 C149 1.366 . S
C150 H164 0.930 . S
C151 C148 1.378 . S
C151 N152 1.315 . S
C151 H154 0.930 . S
N152 Co132 2.194 . S
N152 C147 1.328 . S
N152 C151 1.315 . S
H153 C147 0.929 . S
H154 C151 0.930 . S
H155 C143 0.929 . S
H156 C145 0.929 . S
O157 Co132 2.351 1_655 S
O157 C160 1.244 . S
O158 Co132 2.155 1_655 S
O158 C160 1.240 . S
O159 Co132 2.096 1_655 S
O159 C140 1.247 1_655 S
C160 O157 1.244 . S
C160 O158 1.240 . S
H161 C135 0.931 . S
H162 C144 0.931 . S
H163 C148 0.929 . S
H164 C150 0.930 . S
Co165 N169 2.148 . S
Co165 N175 2.128 . S
Co165 N185 2.194 . S
Co165 O190 2.351 . S
Co165 O191 2.155 . S
Co165 O192 2.096 . S
C166 N169 1.301 . S
C166 N170 1.328 . S
C166 H171 0.930 . S
C167 C168 1.333 . S
C167 N169 1.317 . S
C167 H172 0.930 . S
C168 C167 1.333 . S
C168 N170 1.350 . S
C168 H194 0.931 . S
N169 Co165 2.148 . S
N169 C166 1.301 . S
N169 C167 1.317 . S
N170 C166 1.328 . S
N170 C168 1.350 . S
H171 C166 0.930 . S
H172 C167 0.930 . S
C173 O174 1.224 . S
C173 O192 1.247 . S
O174 C173 1.224 . S
N175 Co165 2.128 . S
N175 C176 1.355 . S
N175 C178 1.311 . S
C176 N175 1.355 . S
C176 C177 1.363 . S
C176 H188 0.929 . S
C177 C176 1.363 . S
C177 N179 1.375 . S
C177 H195 0.931 . S
C178 N175 1.311 . S
C178 N179 1.347 . S
C178 H189 0.929 . S
N179 C177 1.375 . S
N179 C178 1.347 . S
C180 C183 1.365 . S
C180 N185 1.328 . S
C180 H186 0.929 . S
C181 C182 1.362 . S
C181 C184 1.378 . S
C181 H196 0.929 . S
C182 C181 1.362 . S
C182 C183 1.366 . S
C183 C180 1.365 . S
C183 C182 1.366 . S
C183 H197 0.930 . S
C184 C181 1.378 . S
C184 N185 1.315 . S
C184 H187 0.930 . S
N185 Co165 2.194 . S
N185 C180 1.328 . S
N185 C184 1.315 . S
H186 C180 0.929 . S
H187 C184 0.930 . S
H188 C176 0.929 . S
H189 C178 0.929 . S
O190 Co165 2.351 . S
O190 C193 1.244 . S
O191 Co165 2.155 . S
O191 C193 1.240 . S
O192 Co165 2.096 . S
O192 C173 1.247 . S
C193 O190 1.244 . S
C193 O191 1.240 . S
H194 C168 0.931 . S
H195 C177 0.931 . S
H196 C181 0.929 . S
H197 C183 0.930 . S
Co198 N202 2.148 . S
Co198 N208 2.128 . S
Co198 N218 2.194 . S
Co198 O223 2.351 . S
Co198 O224 2.155 . S
Co198 O225 2.096 . S
C199 N202 1.301 . S
C199 N203 1.328 . S
C199 H204 0.930 . S
C200 C201 1.333 . S
C200 N202 1.317 . S
C200 H205 0.930 . S
C201 C200 1.333 . S
C201 N203 1.350 . S
C201 H227 0.931 . S
N202 Co198 2.148 . S
N202 C199 1.301 . S
N202 C200 1.317 . S
N203 C199 1.328 . S
N203 C201 1.350 . S
H204 C199 0.930 . S
H205 C200 0.930 . S
C206 O207 1.224 . S
C206 O225 1.247 . S
O207 C206 1.224 . S
N208 Co198 2.128 . S
N208 C209 1.355 . S
N208 C211 1.311 . S
C209 N208 1.355 . S
C209 C210 1.363 . S
C209 H221 0.929 . S
C210 C209 1.363 . S
C210 N212 1.375 . S
C210 H228 0.931 . S
C211 N208 1.311 . S
C211 N212 1.347 . S
C211 H222 0.929 . S
N212 C210 1.375 . S
N212 C211 1.347 . S
C213 C216 1.365 . S
C213 N218 1.328 . S
C213 H219 0.929 . S
C214 C215 1.362 . S
C214 C217 1.378 . S
C214 H229 0.929 . S
C215 C214 1.362 . S
C215 C216 1.366 . S
C216 C213 1.365 . S
C216 C215 1.366 . S
C216 H230 0.930 . S
C217 C214 1.378 . S
C217 N218 1.315 . S
C217 H220 0.930 . S
N218 Co198 2.194 . S
N218 C213 1.328 . S
N218 C217 1.315 . S
H219 C213 0.929 . S
H220 C217 0.930 . S
H221 C209 0.929 . S
H222 C211 0.929 . S
O223 Co198 2.351 . S
O223 C226 1.244 . S
O224 Co198 2.155 . S
O224 C226 1.240 . S
O225 Co198 2.096 . S
O225 C206 1.247 . S
C226 O223 1.244 . S
C226 O224 1.240 . S
H227 C201 0.931 . S
H228 C210 0.931 . S
H229 C214 0.929 . S
H230 C216 0.930 . S
Co231 N235 2.148 . S
Co231 N241 2.128 . S
Co231 N251 2.194 . S
Co231 O256 2.351 . S
Co231 O257 2.155 . S
Co231 O258 2.096 . S
C232 N235 1.301 . S
C232 N236 1.328 . S
C232 H237 0.930 . S
C233 C234 1.333 . S
C233 N235 1.317 . S
C233 H238 0.930 . S
C234 C233 1.333 . S
C234 N236 1.350 . S
C234 H260 0.931 . S
N235 Co231 2.148 . S
N235 C232 1.301 . S
N235 C233 1.317 . S
N236 C232 1.328 . S
N236 C234 1.350 . S
H237 C232 0.930 . S
H238 C233 0.930 . S
C239 O240 1.224 . S
C239 O258 1.247 . S
O240 C239 1.224 . S
N241 Co231 2.128 . S
N241 C242 1.355 . S
N241 C244 1.311 . S
C242 N241 1.355 . S
C242 C243 1.363 . S
C242 H254 0.929 . S
C243 C242 1.363 . S
C243 N245 1.375 . S
C243 H261 0.931 . S
C244 N241 1.311 . S
C244 N245 1.347 . S
C244 H255 0.929 . S
N245 C243 1.375 . S
N245 C244 1.347 . S
C246 C249 1.365 . S
C246 N251 1.328 . S
C246 H252 0.929 . S
C247 C248 1.362 . S
C247 C250 1.378 1_565 S
C247 H262 0.929 . S
C248 C247 1.362 . S
C248 C249 1.366 1_565 S
C249 C246 1.365 . S
C249 C248 1.366 1_545 S
C249 H263 0.930 1_545 S
C250 C247 1.378 1_545 S
C250 N251 1.315 . S
C250 H253 0.930 . S
N251 Co231 2.194 . S
N251 C246 1.328 . S
N251 C250 1.315 . S
H252 C246 0.929 . S
H253 C250 0.930 . S
H254 C242 0.929 . S
H255 C244 0.929 . S
O256 Co231 2.351 . S
O256 C259 1.244 . S
O257 Co231 2.155 . S
O257 C259 1.240 . S
O258 Co231 2.096 . S
O258 C239 1.247 . S
C259 O256 1.244 . S
C259 O257 1.240 . S
H260 C234 0.931 . S
H261 C243 0.931 . S
H262 C247 0.929 . S
H263 C249 0.930 1_565 S
H264 C282 0.951 . S
H265 C284 0.951 . S
H266 C286 0.973 . S
H267 C287 0.950 . S
H268 C289 0.950 . S
H269 C292 0.950 1_545 S
H270 C293 0.950 . S
H271 C295 0.950 1_455 S
H272 C296 0.950 . S
H273 C297 0.951 . S
H274 C299 0.951 . S
H275 C301 0.950 . S
H276 C302 0.950 . S
H277 C304 0.950 . S
H278 C307 0.950 . S
H279 C308 0.950 . S
H280 C310 0.950 . S
H281 C311 0.950 . S
C282 H264 0.951 . S
C282 C283 1.366 . S
C282 C284 1.388 . S
C283 C282 1.366 . S
C283 C287 1.385 . S
C284 H265 0.951 . S
C284 C282 1.388 . S
C284 C285 1.366 . S
C285 C284 1.366 . S
C285 C286 1.410 1_565 S
C285 C288 1.499 1_565 S
C286 H266 0.973 . S
C286 C285 1.410 1_545 S
C286 C287 1.355 1_545 S
C287 H267 0.950 . S
C287 C283 1.385 . S
C287 C286 1.355 1_565 S
C288 C285 1.499 1_545 S
C288 C289 1.373 . S
C288 C290 1.389 . S
C289 H268 0.950 . S
C289 C288 1.373 . S
C289 C305 1.377 . S
C290 C288 1.389 . S
C290 C291 1.524 1_545 S
C290 C304 1.377 . S
C291 C290 1.524 1_565 S
C291 C292 1.397 1_455 S
C291 C296 1.363 . S
C292 H269 0.950 1_565 S
C292 C291 1.397 1_655 S
C292 C293 1.334 . S
C293 H270 0.950 . S
C293 C292 1.334 . S
C293 C294 1.287 . S
C294 C293 1.287 . S
C294 C295 1.524 . S
C294 H313 0.913 . S
C295 H271 0.950 1_655 S
C295 C294 1.524 . S
C295 C296 1.415 1_655 S
C296 H272 0.950 . S
C296 C291 1.363 . S
C296 C295 1.415 1_455 S
C297 H273 0.951 . S
C297 C298 1.366 . S
C297 C299 1.388 . S
C298 C297 1.366 . S
C298 C302 1.385 . S
C299 H274 0.951 . S
C299 C297 1.388 . S
C299 C300 1.366 . S
C300 C299 1.366 . S
C300 C301 1.414 . S
C300 C303 1.499 . S
C301 H275 0.950 . S
C301 C300 1.414 . S
C301 C302 1.374 . S
C302 H276 0.950 . S
C302 C298 1.385 . S
C302 C301 1.374 . S
C303 C300 1.499 . S
C303 C304 1.373 . S
C303 C305 1.389 . S
C304 H277 0.950 . S
C304 C290 1.377 . S
C304 C303 1.373 . S
C305 C289 1.377 . S
C305 C303 1.389 . S
C305 C306 1.524 . S
C306 C305 1.524 . S
C306 C307 1.397 . S
C306 C311 1.363 . S
C307 H278 0.950 . S
C307 C306 1.397 . S
C307 C308 1.334 . S
C308 H279 0.950 . S
C308 C307 1.334 . S
C308 C309 1.287 . S
C309 C308 1.287 . S
C309 C310 1.524 . S
C309 H312 0.999 . S
C310 H280 0.950 . S
C310 C309 1.524 . S
C310 C311 1.415 . S
C311 H281 0.950 . S
C311 C306 1.363 . S
C311 C310 1.415 . S
H312 C309 0.999 . S
H313 C294 0.913 . S
H314 C332 0.951 . S
H315 C334 0.951 . S
H316 C336 0.950 . S
H317 C337 0.950 . S
H318 C339 0.950 . S
H319 C342 0.950 . S
H320 C343 0.950 . S
H321 C345 0.950 . S
H322 C346 0.950 . S
H323 C347 0.951 . S
H324 C349 0.951 . S
H325 C351 0.950 . S
H326 C352 0.950 . S
H327 C354 0.950 . S
H328 C357 0.950 . S
H329 C358 0.950 . S
H330 C360 0.950 1_655 S
H331 C361 0.951 . S
C332 H314 0.951 . S
C332 C333 1.366 . S
C332 C334 1.388 1_655 S
C333 C332 1.366 . S
C333 C337 1.385 . S
C334 H315 0.951 . S
C334 C332 1.388 1_455 S
C334 C335 1.366 1_455 S
C335 C334 1.366 1_655 S
C335 C336 1.414 . S
C335 C338 1.499 1_655 S
C336 H316 0.950 . S
C336 C335 1.414 . S
C336 C337 1.374 . S
C337 H317 0.950 . S
C337 C333 1.385 . S
C337 C336 1.374 . S
C338 C335 1.499 1_455 S
C338 C339 1.376 . S
C338 C340 1.389 . S
C339 H318 0.950 . S
C339 C338 1.376 . S
C339 C355 1.374 1_554 S
C340 C338 1.389 . S
C340 C341 1.524 . S
C340 C354 1.374 1_554 S
C341 C340 1.524 . S
C341 C342 1.397 . S
C341 C346 1.363 . S
C342 H319 0.950 . S
C342 C341 1.397 . S
C342 C343 1.334 . S
C343 H320 0.950 . S
C343 C342 1.334 . S
C343 C344 1.287 . S
C344 C343 1.287 . S
C344 C345 1.524 . S
C344 H363 0.913 . S
C345 H321 0.950 . S
C345 C344 1.524 . S
C345 C346 1.415 . S
C346 H322 0.950 . S
C346 C341 1.363 . S
C346 C345 1.415 . S
C347 H323 0.951 . S
C347 C348 1.366 . S
C347 C349 1.388 . S
C348 C347 1.366 . S
C348 C352 1.385 . S
C349 H324 0.951 . S
C349 C347 1.388 . S
C349 C350 1.366 . S
C350 C349 1.366 . S
C350 C351 1.414 . S
C350 C353 1.499 . S
C351 H325 0.950 . S
C351 C350 1.414 . S
C351 C352 1.374 . S
C352 H326 0.950 . S
C352 C348 1.385 . S
C352 C351 1.374 . S
C353 C350 1.499 . S
C353 C354 1.376 . S
C353 C355 1.389 . S
C354 H327 0.950 . S
C354 C340 1.374 1_556 S
C354 C353 1.376 . S
C355 C339 1.374 1_556 S
C355 C353 1.389 . S
C355 C356 1.524 . S
C356 C355 1.524 . S
C356 C357 1.397 . S
C356 C361 1.363 . S
C357 H328 0.950 . S
C357 C356 1.397 . S
C357 C358 1.334 . S
C358 H329 0.950 . S
C358 C357 1.334 . S
C358 C359 1.287 . S
C359 C358 1.287 . S
C359 C360 1.524 . S
C359 H362 0.999 . S
C360 H330 0.950 1_455 S
C360 C359 1.524 . S
C360 C361 1.415 . S
C361 H331 0.951 . S
C361 C356 1.363 . S
C361 C360 1.415 . S
H362 C359 0.999 . S
H363 C344 0.913 . S
H364 C382 0.951 . S
H365 C384 0.951 . S
H366 C386 0.950 . S
H367 C387 0.950 . S
H368 C389 0.950 . S
H369 C392 0.950 . S
H370 C393 0.950 . S
H371 C395 0.950 . S
H372 C396 0.950 . S
H373 C397 0.951 . S
H374 C399 0.951 . S
H375 C401 0.950 . S
H376 C402 0.950 . S
H377 C404 0.950 . S
H378 C407 0.950 . S
H379 C408 0.950 . S
H380 C410 0.950 . S
H381 C411 0.950 . S
C382 H364 0.951 . S
C382 C383 1.366 . S
C382 C384 1.388 . S
C383 C382 1.366 . S
C383 C387 1.385 . S
C384 H365 0.951 . S
C384 C382 1.388 . S
C384 C385 1.366 . S
C385 C384 1.366 . S
C385 C386 1.414 . S
C385 C388 1.499 . S
C386 H366 0.950 . S
C386 C385 1.414 . S
C386 C387 1.374 . S
C387 H367 0.950 . S
C387 C383 1.385 . S
C387 C386 1.374 . S
C388 C385 1.499 . S
C388 C389 1.373 . S
C388 C390 1.389 . S
C389 H368 0.950 . S
C389 C388 1.373 . S
C389 C405 1.377 . S
C390 C388 1.389 . S
C390 C391 1.524 . S
C390 C404 1.377 . S
C391 C390 1.524 . S
C391 C392 1.397 . S
C391 C396 1.363 . S
C392 H369 0.950 . S
C392 C391 1.397 . S
C392 C393 1.334 . S
C393 H370 0.950 . S
C393 C392 1.334 . S
C393 C394 1.287 . S
C394 C393 1.287 . S
C394 C395 1.524 . S
C394 H413 0.913 . S
C395 H371 0.950 . S
C395 C394 1.524 . S
C395 C396 1.415 . S
C396 H372 0.950 . S
C396 C391 1.363 . S
C396 C395 1.415 . S
C397 H373 0.951 . S
C397 C398 1.366 . S
C397 C399 1.388 . S
C398 C397 1.366 . S
C398 C402 1.385 . S
C399 H374 0.951 . S
C399 C397 1.388 . S
C399 C400 1.366 . S
C400 C399 1.366 . S
C400 C401 1.414 . S
C400 C403 1.499 . S
C401 H375 0.950 . S
C401 C400 1.414 . S
C401 C402 1.374 . S
C402 H376 0.950 . S
C402 C398 1.385 . S
C402 C401 1.374 . S
C403 C400 1.499 . S
C403 C404 1.373 . S
C403 C405 1.389 . S
C404 H377 0.950 . S
C404 C390 1.377 . S
C404 C403 1.373 . S
C405 C389 1.377 . S
C405 C403 1.389 . S
C405 C406 1.524 . S
C406 C405 1.524 . S
C406 C407 1.397 . S
C406 C411 1.363 . S
C407 H378 0.950 . S
C407 C406 1.397 . S
C407 C408 1.334 . S
C408 H379 0.950 . S
C408 C407 1.334 . S
C408 C409 1.287 . S
C409 C408 1.287 . S
C409 C410 1.524 . S
C409 H412 0.999 . S
C410 H380 0.950 . S
C410 C409 1.524 . S
C410 C411 1.415 . S
C411 H381 0.950 . S
C411 C406 1.363 . S
C411 C410 1.415 . S
H412 C409 0.999 . S
H413 C394 0.913 . S
H414 C432 0.951 . S
H415 C434 0.951 . S
H416 C436 0.950 . S
H417 C437 0.950 . S
H418 C439 0.950 . S
H419 C442 0.950 1_565 S
H420 C443 0.950 . S
H421 C445 0.950 . S
H422 C446 0.950 . S
H423 C447 0.966 . S
H424 C449 0.951 . S
H425 C451 0.950 . S
H426 C452 0.950 . S
H427 C454 0.950 . S
H428 C457 0.950 . S
H429 C458 0.950 . S
H430 C460 0.950 . S
H431 C461 0.950 . S
C432 H414 0.951 . S
C432 C433 1.366 . S
C432 C434 1.388 . S
C433 C432 1.366 . S
C433 C437 1.385 . S
C434 H415 0.951 . S
C434 C432 1.388 . S
C434 C435 1.366 . S
C435 C434 1.366 . S
C435 C436 1.414 . S
C435 C438 1.499 . S
C436 H416 0.950 . S
C436 C435 1.414 . S
C436 C437 1.374 . S
C437 H417 0.950 . S
C437 C433 1.385 . S
C437 C436 1.374 . S
C438 C435 1.499 . S
C438 C439 1.373 1_556 S
C438 C440 1.389 . S
C439 H418 0.950 . S
C439 C438 1.373 1_554 S
C439 C455 1.377 . S
C440 C438 1.389 . S
C440 C441 1.524 . S
C440 C454 1.377 . S
C441 C440 1.524 . S
C441 C442 1.397 . S
C441 C446 1.363 . S
C442 H419 0.950 1_545 S
C442 C441 1.397 . S
C442 C443 1.334 1_545 S
C443 H420 0.950 . S
C443 C442 1.334 1_565 S
C443 C444 1.287 . S
C444 C443 1.287 . S
C444 C445 1.524 1_565 S
C444 H463 0.913 . S
C445 H421 0.950 . S
C445 C444 1.524 1_545 S
C445 C446 1.415 . S
C446 H422 0.950 . S
C446 C441 1.363 . S
C446 C445 1.415 . S
C447 H423 0.966 . S
C447 C448 1.366 . S
C447 C449 1.388 . S
C448 C447 1.366 . S
C448 C452 1.385 . S
C449 H424 0.951 . S
C449 C447 1.388 . S
C449 C450 1.366 . S
C450 C449 1.366 . S
C450 C451 1.414 . S
C450 C453 1.499 . S
C451 H425 0.950 . S
C451 C450 1.414 . S
C451 C452 1.374 . S
C452 H426 0.950 . S
C452 C448 1.385 . S
C452 C451 1.374 . S
C453 C450 1.499 . S
C453 C454 1.373 1_554 S
C453 C455 1.389 . S
C454 H427 0.950 . S
C454 C440 1.377 . S
C454 C453 1.373 1_556 S
C455 C439 1.377 . S
C455 C453 1.389 . S
C455 C456 1.524 . S
C456 C455 1.524 . S
C456 C457 1.397 . S
C456 C461 1.363 . S
C457 H428 0.950 . S
C457 C456 1.397 . S
C457 C458 1.334 . S
C458 H429 0.950 . S
C458 C457 1.334 . S
C458 C459 1.287 . S
C459 C458 1.287 . S
C459 C460 1.524 . S
C459 H462 0.999 . S
C460 H430 0.950 . S
C460 C459 1.524 . S
C460 C461 1.415 . S
C461 H431 0.950 . S
C461 C456 1.363 . S
C461 C460 1.415 . S
H462 C459 0.999 . S
H463 C444 0.913 . S
H464 C482 0.951 . S
H465 C484 0.951 . S
H466 C486 0.950 . S
H467 C487 0.950 . S
H468 C489 0.950 . S
H469 C492 0.950 . S
H470 C493 0.950 . S
H471 C495 0.950 . S
H472 C496 0.950 . S
H473 C497 0.951 . S
H474 C499 0.951 . S
H475 C501 0.950 . S
H476 C502 0.950 . S
H477 C504 0.950 . S
H478 C507 0.950 . S
H479 C508 0.950 . S
H480 C510 0.950 . S
H481 C511 0.950 . S
C482 H464 0.951 . S
C482 C483 1.366 . S
C482 C484 1.388 . S
C483 C482 1.366 . S
C483 C487 1.385 . S
C484 H465 0.951 . S
C484 C482 1.388 . S
C484 C485 1.366 . S
C485 C484 1.366 . S
C485 C486 1.414 . S
C485 C488 1.499 . S
C486 H466 0.950 . S
C486 C485 1.414 . S
C486 C487 1.374 . S
C487 H467 0.950 . S
C487 C483 1.385 . S
C487 C486 1.374 . S
C488 C485 1.499 . S
C488 C489 1.373 . S
C488 C490 1.389 . S
C489 H468 0.950 . S
C489 C488 1.373 . S
C489 C505 1.377 . S
C490 C488 1.389 . S
C490 C491 1.524 . S
C490 C504 1.377 . S
C491 C490 1.524 . S
C491 C492 1.397 . S
C491 C496 1.363 . S
C492 H469 0.950 . S
C492 C491 1.397 . S
C492 C493 1.334 . S
C493 H470 0.950 . S
C493 C492 1.334 . S
C493 C494 1.287 . S
C494 C493 1.287 . S
C494 C495 1.524 . S
C494 H513 0.913 . S
C495 H471 0.950 . S
C495 C494 1.524 . S
C495 C496 1.415 . S
C496 H472 0.950 . S
C496 C491 1.363 . S
C496 C495 1.415 . S
C497 H473 0.951 . S
C497 C498 1.366 . S
C497 C499 1.388 . S
C498 C497 1.366 . S
C498 C502 1.385 . S
C499 H474 0.951 . S
C499 C497 1.388 . S
C499 C500 1.366 . S
C500 C499 1.366 . S
C500 C501 1.414 . S
C500 C503 1.499 . S
C501 H475 0.950 . S
C501 C500 1.414 . S
C501 C502 1.374 . S
C502 H476 0.950 . S
C502 C498 1.385 . S
C502 C501 1.374 . S
C503 C500 1.499 . S
C503 C504 1.373 . S
C503 C505 1.389 . S
C504 H477 0.950 . S
C504 C490 1.377 . S
C504 C503 1.373 . S
C505 C489 1.377 . S
C505 C503 1.389 . S
C505 C506 1.524 . S
C506 C505 1.524 . S
C506 C507 1.397 . S
C506 C511 1.363 . S
C507 H478 0.950 . S
C507 C506 1.397 . S
C507 C508 1.334 . S
C508 H479 0.950 . S
C508 C507 1.334 . S
C508 C509 1.287 . S
C509 C508 1.287 . S
C509 C510 1.524 . S
C509 H512 0.999 . S
C510 H480 0.950 . S
C510 C509 1.524 . S
C510 C511 1.415 . S
C511 H481 0.950 . S
C511 C506 1.363 . S
C511 C510 1.415 . S
H512 C509 0.999 . S
H513 C494 0.913 . S
H514 C532 0.951 . S
H515 C534 0.951 . S
H516 C536 0.937 1_455 S
H517 C537 0.950 . S
H518 C539 0.950 . S
H519 C542 0.950 1_455 S
H520 C543 0.950 1_455 S
H521 C545 0.950 . S
H522 C546 0.950 . S
H523 C547 0.951 . S
H524 C549 0.951 . S
H525 C551 0.950 . S
H526 C552 0.950 . S
H527 C554 0.950 . S
H528 C557 0.950 . S
H529 C558 0.950 . S
H530 C560 0.950 . S
H531 C561 0.950 . S
C532 H514 0.951 . S
C532 C533 1.366 . S
C532 C534 1.388 . S
C533 C532 1.366 . S
C533 C537 1.385 1_655 S
C534 H515 0.951 . S
C534 C532 1.388 . S
C534 C535 1.366 . S
C535 C534 1.366 . S
C535 C536 1.438 . S
C535 C538 1.499 . S
C536 H516 0.937 1_655 S
C536 C535 1.438 . S
C536 C537 1.364 1_655 S
C537 H517 0.950 . S
C537 C533 1.385 1_455 S
C537 C536 1.364 1_455 S
C538 C535 1.499 . S
C538 C539 1.373 . S
C538 C540 1.389 . S
C539 H518 0.950 . S
C539 C538 1.373 . S
C539 C555 1.377 . S
C540 C538 1.389 . S
C540 C541 1.524 . S
C540 C554 1.377 . S
C541 C540 1.524 . S
C541 C542 1.397 . S
C541 C546 1.363 . S
C542 H519 0.950 1_655 S
C542 C541 1.397 . S
C542 C543 1.334 . S
C543 H520 0.950 1_655 S
C543 C542 1.334 . S
C543 C544 1.287 . S
C544 C543 1.287 . S
C544 C545 1.524 . S
C544 H563 0.913 . S
C545 H521 0.950 . S
C545 C544 1.524 . S
C545 C546 1.415 . S
C546 H522 0.950 . S
C546 C541 1.363 . S
C546 C545 1.415 . S
C547 H523 0.951 . S
C547 C548 1.366 . S
C547 C549 1.388 . S
C548 C547 1.366 . S
C548 C552 1.385 . S
C549 H524 0.951 . S
C549 C547 1.388 . S
C549 C550 1.366 . S
C550 C549 1.366 . S
C550 C551 1.414 . S
C550 C553 1.499 . S
C551 H525 0.950 . S
C551 C550 1.414 . S
C551 C552 1.374 . S
C552 H526 0.950 . S
C552 C548 1.385 . S
C552 C551 1.374 . S
C553 C550 1.499 . S
C553 C554 1.373 . S
C553 C555 1.389 . S
C554 H527 0.950 . S
C554 C540 1.377 . S
C554 C553 1.373 . S
C555 C539 1.377 . S
C555 C553 1.389 . S
C555 C556 1.524 . S
C556 C555 1.524 . S
C556 C557 1.397 . S
C556 C561 1.363 . S
C557 H528 0.950 . S
C557 C556 1.397 . S
C557 C558 1.334 . S
C558 H529 0.950 . S
C558 C557 1.334 . S
C558 C559 1.287 . S
C559 C558 1.287 . S
C559 C560 1.524 . S
C559 H562 0.999 . S
C560 H530 0.950 . S
C560 C559 1.524 . S
C560 C561 1.415 . S
C561 H531 0.950 . S
C561 C556 1.363 . S
C561 C560 1.415 . S
H562 C559 0.999 . S
H563 C544 0.913 . S
H564 C582 0.951 . S
H565 C584 0.951 . S
H566 C586 0.950 . S
H567 C587 0.950 . S
H568 C589 0.950 . S
H569 C592 0.950 . S
H570 C593 0.950 . S
H571 C595 0.950 . S
H572 C596 0.950 . S
H573 C597 0.951 . S
H574 C599 0.951 . S
H575 C601 0.950 . S
H576 C602 0.950 . S
H577 C604 0.950 . S
H578 C607 0.950 . S
H579 C608 0.950 . S
H580 C610 0.950 . S
H581 C611 0.950 . S
C582 H564 0.951 . S
C582 C583 1.366 . S
C582 C584 1.388 . S
C583 C582 1.366 . S
C583 C587 1.385 . S
C584 H565 0.951 . S
C584 C582 1.388 . S
C584 C585 1.366 . S
C585 C584 1.366 . S
C585 C586 1.414 . S
C585 C588 1.499 . S
C586 H566 0.950 . S
C586 C585 1.414 . S
C586 C587 1.374 . S
C587 H567 0.950 . S
C587 C583 1.385 . S
C587 C586 1.374 . S
C588 C585 1.499 . S
C588 C589 1.373 . S
C588 C590 1.389 . S
C589 H568 0.950 . S
C589 C588 1.373 . S
C589 C605 1.377 . S
C590 C588 1.389 . S
C590 C591 1.524 . S
C590 C604 1.377 . S
C591 C590 1.524 . S
C591 C592 1.397 . S
C591 C596 1.363 . S
C592 H569 0.950 . S
C592 C591 1.397 . S
C592 C593 1.334 . S
C593 H570 0.950 . S
C593 C592 1.334 . S
C593 C594 1.287 . S
C594 C593 1.287 . S
C594 C595 1.524 . S
C594 H613 0.913 . S
C595 H571 0.950 . S
C595 C594 1.524 . S
C595 C596 1.415 . S
C596 H572 0.950 . S
C596 C591 1.363 . S
C596 C595 1.415 . S
C597 H573 0.951 . S
C597 C598 1.366 . S
C597 C599 1.388 . S
C598 C597 1.366 . S
C598 C602 1.385 . S
C599 H574 0.951 . S
C599 C597 1.388 . S
C599 C600 1.366 . S
C600 C599 1.366 . S
C600 C601 1.414 . S
C600 C603 1.499 . S
C601 H575 0.950 . S
C601 C600 1.414 . S
C601 C602 1.374 . S
C602 H576 0.950 . S
C602 C598 1.385 . S
C602 C601 1.374 . S
C603 C600 1.499 . S
C603 C604 1.373 . S
C603 C605 1.389 . S
C604 H577 0.950 . S
C604 C590 1.377 . S
C604 C603 1.373 . S
C605 C589 1.377 . S
C605 C603 1.389 . S
C605 C606 1.524 . S
C606 C605 1.524 . S
C606 C607 1.397 . S
C606 C611 1.363 . S
C607 H578 0.950 . S
C607 C606 1.397 . S
C607 C608 1.334 . S
C608 H579 0.950 . S
C608 C607 1.334 . S
C608 C609 1.287 . S
C609 C608 1.287 . S
C609 C610 1.524 . S
C609 H612 0.999 . S
C610 H580 0.950 . S
C610 C609 1.524 . S
C610 C611 1.415 . S
C611 H581 0.950 . S
C611 C606 1.363 . S
C611 C610 1.415 . S
H612 C609 0.999 . S
H613 C594 0.913 . S
H614 C632 0.951 . S
H615 C634 0.951 . S
H616 C636 0.950 . S
H617 C637 0.950 . S
H618 C639 0.950 . S
H619 C642 0.950 . S
H620 C643 0.950 . S
H621 C645 0.950 . S
H622 C646 0.950 . S
H623 C647 0.951 . S
H624 C649 0.951 . S
H625 C651 0.950 . S
H626 C652 0.950 . S
H627 C654 0.950 . S
H628 C657 0.950 . S
H629 C658 0.950 . S
H630 C660 0.950 . S
H631 C661 0.950 . S
C632 H614 0.951 . S
C632 C633 1.366 . S
C632 C634 1.388 . S
C633 C632 1.366 . S
C633 C637 1.385 . S
C634 H615 0.951 . S
C634 C632 1.388 . S
C634 C635 1.366 . S
C635 C634 1.366 . S
C635 C636 1.414 . S
C635 C638 1.499 . S
C636 H616 0.950 . S
C636 C635 1.414 . S
C636 C637 1.374 . S
C637 H617 0.950 . S
C637 C633 1.385 . S
C637 C636 1.374 . S
C638 C635 1.499 . S
C638 C639 1.373 . S
C638 C640 1.389 . S
C639 H618 0.950 . S
C639 C638 1.373 . S
C639 C655 1.377 . S
C640 C638 1.389 . S
C640 C641 1.524 . S
C640 C654 1.377 . S
C641 C640 1.524 . S
C641 C642 1.397 . S
C641 C646 1.363 . S
C642 H619 0.950 . S
C642 C641 1.397 . S
C642 C643 1.334 1_565 S
C643 H620 0.950 . S
C643 C642 1.334 1_545 S
C643 C644 1.287 . S
C644 C643 1.287 . S
C644 C645 1.524 . S
C644 H663 0.913 . S
C645 H621 0.950 . S
C645 C644 1.524 . S
C645 C646 1.415 1_545 S
C646 H622 0.950 . S
C646 C641 1.363 . S
C646 C645 1.415 1_565 S
C647 H623 0.951 . S
C647 C648 1.366 . S
C647 C649 1.388 . S
C648 C647 1.366 . S
C648 C652 1.385 . S
C649 H624 0.951 . S
C649 C647 1.388 . S
C649 C650 1.366 . S
C650 C649 1.366 . S
C650 C651 1.414 . S
C650 C653 1.499 . S
C651 H625 0.950 . S
C651 C650 1.414 . S
C651 C652 1.374 . S
C652 H626 0.950 . S
C652 C648 1.385 . S
C652 C651 1.374 . S
C653 C650 1.499 . S
C653 C654 1.373 . S
C653 C655 1.389 . S
C654 H627 0.950 . S
C654 C640 1.377 . S
C654 C653 1.373 . S
C655 C639 1.377 . S
C655 C653 1.389 . S
C655 C656 1.524 . S
C656 C655 1.524 . S
C656 C657 1.397 . S
C656 C661 1.363 . S
C657 H628 0.950 . S
C657 C656 1.397 . S
C657 C658 1.334 . S
C658 H629 0.950 . S
C658 C657 1.334 . S
C658 C659 1.287 . S
C659 C658 1.287 . S
C659 C660 1.524 . S
C659 H662 0.999 . S
C660 H630 0.950 . S
C660 C659 1.524 . S
C660 C661 1.415 . S
C661 H631 0.950 . S
C661 C656 1.363 . S
C661 C660 1.415 . S
H662 C659 0.999 . S
H663 C644 0.913 . S
H664 C682 0.951 . S
H665 C684 0.951 . S
H666 C686 0.950 . S
H667 C687 0.950 . S
H668 C689 0.950 . S
H669 C692 0.950 . S
H670 C693 0.951 . S
H671 C695 0.950 . S
H672 C696 0.950 . S
H673 C697 0.951 . S
H674 C699 0.951 . S
H675 C701 0.950 . S
H676 C702 0.950 . S
H677 C704 0.950 . S
H678 C707 0.950 . S
H679 C708 0.950 . S
H680 C710 0.950 . S
H681 C711 0.950 . S
C682 H664 0.951 . S
C682 C683 1.366 1_455 S
C682 C684 1.388 . S
C683 C682 1.366 1_655 S
C683 C687 1.385 . S
C684 H665 0.951 . S
C684 C682 1.388 . S
C684 C685 1.366 1_455 S
C685 C684 1.366 1_655 S
C685 C686 1.414 . S
C685 C688 1.499 . S
C686 H666 0.950 . S
C686 C685 1.414 . S
C686 C687 1.374 . S
C687 H667 0.950 . S
C687 C683 1.385 . S
C687 C686 1.374 . S
C688 C685 1.499 . S
C688 C689 1.373 . S
C688 C690 1.389 . S
C689 H668 0.950 . S
C689 C688 1.373 . S
C689 C705 1.377 . S
C690 C688 1.389 . S
C690 C691 1.524 . S
C690 C704 1.377 . S
C691 C690 1.524 . S
C691 C692 1.397 . S
C691 C696 1.363 1_655 S
C692 H669 0.950 . S
C692 C691 1.397 . S
C692 C693 1.337 1_565 S
C693 H670 0.951 . S
C693 C692 1.337 1_545 S
C693 C694 1.283 1_655 S
C694 C693 1.283 1_455 S
C694 C695 1.524 . S
C694 H713 0.913 . S
C695 H671 0.950 . S
C695 C694 1.524 . S
C695 C696 1.415 1_545 S
C696 H672 0.950 . S
C696 C691 1.363 1_455 S
C696 C695 1.415 1_565 S
C697 H673 0.951 . S
C697 C698 1.366 . S
C697 C699 1.388 . S
C698 C697 1.366 . S
C698 C702 1.385 . S
C699 H674 0.951 . S
C699 C697 1.388 . S
C699 C700 1.366 . S
C700 C699 1.366 . S
C700 C701 1.414 . S
C700 C703 1.499 . S
C701 H675 0.950 . S
C701 C700 1.414 . S
C701 C702 1.374 . S
C702 H676 0.950 . S
C702 C698 1.385 . S
C702 C701 1.374 . S
C703 C700 1.499 . S
C703 C704 1.373 . S
C703 C705 1.389 . S
C704 H677 0.950 . S
C704 C690 1.377 . S
C704 C703 1.373 . S
C705 C689 1.377 . S
C705 C703 1.389 . S
C705 C706 1.524 . S
C706 C705 1.524 . S
C706 C707 1.397 . S
C706 C711 1.363 . S
C707 H678 0.950 . S
C707 C706 1.397 . S
C707 C708 1.334 . S
C708 H679 0.950 . S
C708 C707 1.334 . S
C708 C709 1.287 . S
C709 C708 1.287 . S
C709 C710 1.524 . S
C709 H712 0.999 . S
C710 H680 0.950 . S
C710 C709 1.524 . S
C710 C711 1.415 . S
C711 H681 0.950 . S
C711 C706 1.363 . S
C711 C710 1.415 . S
H712 C709 0.999 . S
H713 C694 0.913 . S
H714 C732 0.951 . S
H715 C734 0.951 . S
H716 C736 0.950 . S
H717 C737 0.950 . S
H718 C739 0.950 . S
H719 C742 0.950 . S
H720 C743 0.950 . S
H721 C745 0.950 . S
H722 C746 0.950 . S
H723 C747 0.951 . S
H724 C749 0.951 . S
H725 C751 0.950 . S
H726 C752 0.950 . S
H727 C754 0.950 . S
H728 C757 0.950 . S
H729 C758 0.950 . S
H730 C760 0.950 . S
H731 C761 0.950 . S
C732 H714 0.951 . S
C732 C733 1.366 . S
C732 C734 1.388 . S
C733 C732 1.366 . S
C733 C737 1.385 . S
C734 H715 0.951 . S
C734 C732 1.388 . S
C734 C735 1.366 . S
C735 C734 1.366 . S
C735 C736 1.414 . S
C735 C738 1.499 . S
C736 H716 0.950 . S
C736 C735 1.414 . S
C736 C737 1.374 . S
C737 H717 0.950 . S
C737 C733 1.385 . S
C737 C736 1.374 . S
C738 C735 1.499 . S
C738 C739 1.373 . S
C738 C740 1.389 . S
C739 H718 0.950 . S
C739 C738 1.373 . S
C739 C755 1.377 . S
C740 C738 1.389 . S
C740 C741 1.524 . S
C740 C754 1.377 . S
C741 C740 1.524 . S
C741 C742 1.397 . S
C741 C746 1.363 . S
C742 H719 0.950 . S
C742 C741 1.397 . S
C742 C743 1.334 . S
C743 H720 0.950 . S
C743 C742 1.334 . S
C743 C744 1.287 . S
C744 C743 1.287 . S
C744 C745 1.524 . S
C744 H763 0.913 . S
C745 H721 0.950 . S
C745 C744 1.524 . S
C745 C746 1.415 . S
C746 H722 0.950 . S
C746 C741 1.363 . S
C746 C745 1.415 . S
C747 H723 0.951 . S
C747 C748 1.366 . S
C747 C749 1.388 . S
C748 C747 1.366 . S
C748 C752 1.385 . S
C749 H724 0.951 . S
C749 C747 1.388 . S
C749 C750 1.366 . S
C750 C749 1.366 . S
C750 C751 1.414 . S
C750 C753 1.499 . S
C751 H725 0.950 . S
C751 C750 1.414 . S
C751 C752 1.374 . S
C752 H726 0.950 . S
C752 C748 1.385 . S
C752 C751 1.374 . S
C753 C750 1.499 . S
C753 C754 1.373 . S
C753 C755 1.389 . S
C754 H727 0.950 . S
C754 C740 1.377 . S
C754 C753 1.373 . S
C755 C739 1.377 . S
C755 C753 1.389 . S
C755 C756 1.524 . S
C756 C755 1.524 . S
C756 C757 1.397 . S
C756 C761 1.363 . S
C757 H728 0.950 . S
C757 C756 1.397 . S
C757 C758 1.334 . S
C758 H729 0.950 . S
C758 C757 1.334 . S
C758 C759 1.287 . S
C759 C758 1.287 . S
C759 C760 1.524 . S
C759 H762 0.999 . S
C760 H730 0.950 . S
C760 C759 1.524 . S
C760 C761 1.415 . S
C761 H731 0.950 . S
C761 C756 1.363 . S
C761 C760 1.415 . S
H762 C759 0.999 . S
H763 C744 0.913 . S
H764 C782 0.951 . S
H765 C784 0.951 . S
H766 C786 0.950 . S
H767 C787 0.950 . S
H768 C789 0.950 . S
H769 C792 0.950 . S
H770 C793 0.950 . S
H771 C795 0.950 . S
H772 C796 0.950 . S
H773 C797 0.951 . S
H774 C799 0.951 . S
H775 C801 0.950 . S
H776 C802 0.950 . S
H777 C804 0.950 . S
H778 C807 0.950 . S
H779 C808 0.950 . S
H780 C810 0.950 . S
H781 C811 0.950 . S
C782 H764 0.951 . S
C782 C783 1.366 . S
C782 C784 1.388 . S
C783 C782 1.366 . S
C783 C787 1.385 . S
C784 H765 0.951 . S
C784 C782 1.388 . S
C784 C785 1.366 . S
C785 C784 1.366 . S
C785 C786 1.414 . S
C785 C788 1.499 . S
C786 H766 0.950 . S
C786 C785 1.414 . S
C786 C787 1.374 . S
C787 H767 0.950 . S
C787 C783 1.385 . S
C787 C786 1.374 . S
C788 C785 1.499 . S
C788 C789 1.373 . S
C788 C790 1.389 . S
C789 H768 0.950 . S
C789 C788 1.373 . S
C789 C805 1.377 . S
C790 C788 1.389 . S
C790 C791 1.524 . S
C790 C804 1.377 . S
C791 C790 1.524 . S
C791 C792 1.397 . S
C791 C796 1.363 . S
C792 H769 0.950 . S
C792 C791 1.397 . S
C792 C793 1.334 . S
C793 H770 0.950 . S
C793 C792 1.334 . S
C793 C794 1.287 . S
C794 C793 1.287 . S
C794 C795 1.524 . S
C794 H813 0.913 . S
C795 H771 0.950 . S
C795 C794 1.524 . S
C795 C796 1.415 . S
C796 H772 0.950 . S
C796 C791 1.363 . S
C796 C795 1.415 . S
C797 H773 0.951 . S
C797 C798 1.366 . S
C797 C799 1.388 . S
C798 C797 1.366 . S
C798 C802 1.385 . S
C799 H774 0.951 . S
C799 C797 1.388 . S
C799 C800 1.366 . S
C800 C799 1.366 . S
C800 C801 1.414 . S
C800 C803 1.499 . S
C801 H775 0.950 . S
C801 C800 1.414 . S
C801 C802 1.374 . S
C802 H776 0.950 . S
C802 C798 1.385 . S
C802 C801 1.374 . S
C803 C800 1.499 . S
C803 C804 1.373 . S
C803 C805 1.389 . S
C804 H777 0.950 . S
C804 C790 1.377 . S
C804 C803 1.373 . S
C805 C789 1.377 . S
C805 C803 1.389 . S
C805 C806 1.524 . S
C806 C805 1.524 . S
C806 C807 1.397 . S
C806 C811 1.363 . S
C807 H778 0.950 . S
C807 C806 1.397 . S
C807 C808 1.334 . S
C808 H779 0.950 . S
C808 C807 1.334 . S
C808 C809 1.287 . S
C809 C808 1.287 . S
C809 C810 1.524 . S
C809 H812 0.999 . S
C810 H780 0.950 . S
C810 C809 1.524 . S
C810 C811 1.415 . S
C811 H781 0.950 . S
C811 C806 1.363 . S
C811 C810 1.415 . S
H812 C809 0.999 . S
H813 C794 0.913 . S
H814 C832 0.951 . S
H815 C834 0.951 . S
H816 C836 0.950 . S
H817 C837 0.950 . S
H818 C839 0.950 . S
H819 C842 0.950 . S
H820 C843 0.950 . S
H821 C845 0.950 . S
H822 C846 0.950 . S
H823 C847 0.951 . S
H824 C849 0.951 . S
H825 C851 0.950 . S
H826 C852 0.950 . S
H827 C854 0.950 . S
H828 C857 0.950 . S
H829 C858 0.950 . S
H830 C860 0.950 . S
H831 C861 0.950 . S
C832 H814 0.951 . S
C832 C833 1.366 . S
C832 C834 1.388 . S
C833 C832 1.366 . S
C833 C837 1.385 . S
C834 H815 0.951 . S
C834 C832 1.388 . S
C834 C835 1.366 . S
C835 C834 1.366 . S
C835 C836 1.414 . S
C835 C838 1.499 . S
C836 H816 0.950 . S
C836 C835 1.414 . S
C836 C837 1.374 . S
C837 H817 0.950 . S
C837 C833 1.385 . S
C837 C836 1.374 . S
C838 C835 1.499 . S
C838 C839 1.373 . S
C838 C840 1.389 . S
C839 H818 0.950 . S
C839 C838 1.373 . S
C839 C855 1.377 . S
C840 C838 1.389 . S
C840 C841 1.524 . S
C840 C854 1.377 . S
C841 C840 1.524 . S
C841 C842 1.397 . S
C841 C846 1.363 . S
C842 H819 0.950 . S
C842 C841 1.397 . S
C842 C843 1.334 . S
C843 H820 0.950 . S
C843 C842 1.334 . S
C843 C844 1.287 . S
C844 C843 1.287 . S
C844 C845 1.524 . S
C844 H863 0.913 . S
C845 H821 0.950 . S
C845 C844 1.524 . S
C845 C846 1.415 . S
C846 H822 0.950 . S
C846 C841 1.363 . S
C846 C845 1.415 . S
C847 H823 0.951 . S
C847 C848 1.366 . S
C847 C849 1.388 . S
C848 C847 1.366 . S
C848 C852 1.385 . S
C849 H824 0.951 . S
C849 C847 1.388 . S
C849 C850 1.366 . S
C850 C849 1.366 . S
C850 C851 1.414 . S
C850 C853 1.499 . S
C851 H825 0.950 . S
C851 C850 1.414 . S
C851 C852 1.374 . S
C852 H826 0.950 . S
C852 C848 1.385 . S
C852 C851 1.374 . S
C853 C850 1.499 . S
C853 C854 1.373 . S
C853 C855 1.389 . S
C854 H827 0.950 . S
C854 C840 1.377 . S
C854 C853 1.373 . S
C855 C839 1.377 . S
C855 C853 1.389 . S
C855 C856 1.524 . S
C856 C855 1.524 . S
C856 C857 1.397 . S
C856 C861 1.363 . S
C857 H828 0.950 . S
C857 C856 1.397 . S
C857 C858 1.334 . S
C858 H829 0.950 . S
C858 C857 1.334 . S
C858 C859 1.287 . S
C859 C858 1.287 . S
C859 C860 1.524 . S
C859 H862 0.999 . S
C860 H830 0.950 . S
C860 C859 1.524 . S
C860 C861 1.415 . S
C861 H831 0.950 . S
C861 C856 1.363 . S
C861 C860 1.415 . S
H862 C859 0.999 . S
H863 C844 0.913 . S
H864 C882 0.951 . S
H865 C884 0.951 . S
H866 C886 0.950 . S
H867 C887 0.950 . S
H868 C889 0.950 . S
H869 C892 0.950 . S
H870 C893 0.950 . S
H871 C895 0.950 . S
H872 C896 0.950 . S
H873 C897 0.951 . S
H874 C899 0.951 . S
H875 C901 0.950 . S
H876 C902 0.950 . S
H877 C904 0.950 . S
H878 C907 0.950 . S
H879 C908 0.950 . S
H880 C910 0.950 . S
H881 C911 0.950 . S
C882 H864 0.951 . S
C882 C883 1.366 . S
C882 C884 1.388 . S
C883 C882 1.366 . S
C883 C887 1.385 . S
C884 H865 0.951 . S
C884 C882 1.388 . S
C884 C885 1.366 . S
C885 C884 1.366 . S
C885 C886 1.414 . S
C885 C888 1.499 . S
C886 H866 0.950 . S
C886 C885 1.414 . S
C886 C887 1.374 . S
C887 H867 0.950 . S
C887 C883 1.385 . S
C887 C886 1.374 . S
C888 C885 1.499 . S
C888 C889 1.373 . S
C888 C890 1.389 . S
C889 H868 0.950 . S
C889 C888 1.373 . S
C889 C905 1.377 . S
C890 C888 1.389 . S
C890 C891 1.524 . S
C890 C904 1.377 . S
C891 C890 1.524 . S
C891 C892 1.397 . S
C891 C896 1.363 . S
C892 H869 0.950 . S
C892 C891 1.397 . S
C892 C893 1.334 . S
C893 H870 0.950 . S
C893 C892 1.334 . S
C893 C894 1.287 . S
C894 C893 1.287 . S
C894 C895 1.524 . S
C894 H913 0.913 . S
C895 H871 0.950 . S
C895 C894 1.524 . S
C895 C896 1.415 . S
C896 H872 0.950 . S
C896 C891 1.363 . S
C896 C895 1.415 . S
C897 H873 0.951 . S
C897 C898 1.366 . S
C897 C899 1.388 . S
C898 C897 1.366 . S
C898 C902 1.385 . S
C899 H874 0.951 . S
C899 C897 1.388 . S
C899 C900 1.366 . S
C900 C899 1.366 . S
C900 C901 1.414 . S
C900 C903 1.499 . S
C901 H875 0.950 . S
C901 C900 1.414 . S
C901 C902 1.374 . S
C902 H876 0.950 . S
C902 C898 1.385 . S
C902 C901 1.374 . S
C903 C900 1.499 . S
C903 C904 1.373 . S
C903 C905 1.389 . S
C904 H877 0.950 . S
C904 C890 1.377 . S
C904 C903 1.373 . S
C905 C889 1.377 . S
C905 C903 1.389 . S
C905 C906 1.524 . S
C906 C905 1.524 . S
C906 C907 1.397 . S
C906 C911 1.363 . S
C907 H878 0.950 . S
C907 C906 1.397 . S
C907 C908 1.334 . S
C908 H879 0.950 . S
C908 C907 1.334 . S
C908 C909 1.287 . S
C909 C908 1.287 . S
C909 C910 1.524 . S
C909 H912 0.999 . S
C910 H880 0.950 . S
C910 C909 1.524 . S
C910 C911 1.415 . S
C911 H881 0.950 . S
C911 C906 1.363 . S
C911 C910 1.415 . S
H912 C909 0.999 . S
H913 C894 0.913 . S
H914 C932 0.951 . S
H915 C934 0.951 . S
H916 C936 0.950 . S
H917 C937 0.950 . S
H918 C939 0.950 . S
H919 C942 0.950 . S
H920 C943 0.950 . S
H921 C945 0.950 . S
H922 C946 0.950 . S
H923 C947 0.951 . S
H924 C949 0.951 . S
H925 C951 0.950 . S
H926 C952 0.950 . S
H927 C954 0.950 . S
H928 C957 0.950 . S
H929 C958 0.950 . S
H930 C960 0.950 . S
H931 C961 0.950 . S
C932 H914 0.951 . S
C932 C933 1.366 . S
C932 C934 1.388 . S
C933 C932 1.366 . S
C933 C937 1.385 . S
C934 H915 0.951 . S
C934 C932 1.388 . S
C934 C935 1.366 . S
C935 C934 1.366 . S
C935 C936 1.414 . S
C935 C938 1.499 . S
C936 H916 0.950 . S
C936 C935 1.414 . S
C936 C937 1.374 . S
C937 H917 0.950 . S
C937 C933 1.385 . S
C937 C936 1.374 . S
C938 C935 1.499 . S
C938 C939 1.373 . S
C938 C940 1.389 . S
C939 H918 0.950 . S
C939 C938 1.373 . S
C939 C955 1.377 . S
C940 C938 1.389 . S
C940 C941 1.524 . S
C940 C954 1.377 . S
C941 C940 1.524 . S
C941 C942 1.397 . S
C941 C946 1.363 . S
C942 H919 0.950 . S
C942 C941 1.397 . S
C942 C943 1.334 . S
C943 H920 0.950 . S
C943 C942 1.334 . S
C943 C944 1.287 . S
C944 C943 1.287 . S
C944 C945 1.524 . S
C944 H963 0.913 . S
C945 H921 0.950 . S
C945 C944 1.524 . S
C945 C946 1.415 . S
C946 H922 0.950 . S
C946 C941 1.363 . S
C946 C945 1.415 . S
C947 H923 0.951 . S
C947 C948 1.366 . S
C947 C949 1.388 . S
C948 C947 1.366 . S
C948 C952 1.385 . S
C949 H924 0.951 . S
C949 C947 1.388 . S
C949 C950 1.366 . S
C950 C949 1.366 . S
C950 C951 1.414 . S
C950 C953 1.499 . S
C951 H925 0.950 . S
C951 C950 1.414 . S
C951 C952 1.374 . S
C952 H926 0.950 . S
C952 C948 1.385 . S
C952 C951 1.374 . S
C953 C950 1.499 . S
C953 C954 1.373 . S
C953 C955 1.389 . S
C954 H927 0.950 . S
C954 C940 1.377 . S
C954 C953 1.373 . S
C955 C939 1.377 . S
C955 C953 1.389 . S
C955 C956 1.524 . S
C956 C955 1.524 . S
C956 C957 1.397 . S
C956 C961 1.363 . S
C957 H928 0.950 . S
C957 C956 1.397 . S
C957 C958 1.334 . S
C958 H929 0.950 . S
C958 C957 1.334 . S
C958 C959 1.287 . S
C959 C958 1.287 . S
C959 C960 1.524 . S
C959 H962 0.999 . S
C960 H930 0.950 . S
C960 C959 1.524 . S
C960 C961 1.415 . S
C961 H931 0.950 . S
C961 C956 1.363 . S
C961 C960 1.415 . S
H962 C959 0.999 . S
H963 C944 0.913 . S
H964 C982 0.951 . S
H965 C984 0.951 . S
H966 C986 0.950 . S
H967 C987 0.950 . S
H968 C989 0.950 . S
H969 C992 0.950 . S
H970 C993 0.950 . S
H971 C995 0.950 . S
H972 C996 0.950 . S
H973 C997 0.951 . S
H974 C999 0.951 . S
H975 C1001 0.950 . S
H976 C1002 0.950 . S
H977 C1004 0.950 . S
H978 C1007 0.950 . S
H979 C1008 0.950 . S
H980 C1010 0.950 . S
H981 C1011 0.950 . S
C982 H964 0.951 . S
C982 C983 1.366 . S
C982 C984 1.388 . S
C983 C982 1.366 . S
C983 C987 1.385 . S
C984 H965 0.951 . S
C984 C982 1.388 . S
C984 C985 1.366 . S
C985 C984 1.366 . S
C985 C986 1.414 . S
C985 C988 1.499 . S
C986 H966 0.950 . S
C986 C985 1.414 . S
C986 C987 1.374 . S
C987 H967 0.950 . S
C987 C983 1.385 . S
C987 C986 1.374 . S
C988 C985 1.499 . S
C988 C989 1.373 . S
C988 C990 1.389 . S
C989 H968 0.950 . S
C989 C988 1.373 . S
C989 C1005 1.377 . S
C990 C988 1.389 . S
C990 C991 1.524 . S
C990 C1004 1.377 . S
C991 C990 1.524 . S
C991 C992 1.397 . S
C991 C996 1.363 . S
C992 H969 0.950 . S
C992 C991 1.397 . S
C992 C993 1.334 . S
C993 H970 0.950 . S
C993 C992 1.334 . S
C993 C994 1.287 . S
C994 C993 1.287 . S
C994 C995 1.524 . S
C994 H1013 0.913 . S
C995 H971 0.950 . S
C995 C994 1.524 . S
C995 C996 1.415 . S
C996 H972 0.950 . S
C996 C991 1.363 . S
C996 C995 1.415 . S
C997 H973 0.951 . S
C997 C998 1.366 . S
C997 C999 1.388 . S
C998 C997 1.366 . S
C998 C1002 1.385 . S
C999 H974 0.951 . S
C999 C997 1.388 . S
C999 C1000 1.366 . S
C1000 C999 1.366 . S
C1000 C1001 1.414 . S
C1000 C1003 1.499 . S
C1001 H975 0.950 . S
C1001 C1000 1.414 . S
C1001 C1002 1.374 . S
C1002 H976 0.950 . S
C1002 C998 1.385 . S
C1002 C1001 1.374 . S
C1003 C1000 1.499 . S
C1003 C1004 1.373 . S
C1003 C1005 1.389 . S
C1004 H977 0.950 . S
C1004 C990 1.377 . S
C1004 C1003 1.373 . S
C1005 C989 1.377 . S
C1005 C1003 1.389 . S
C1005 C1006 1.524 . S
C1006 C1005 1.524 . S
C1006 C1007 1.397 . S
C1006 C1011 1.363 . S
C1007 H978 0.950 . S
C1007 C1006 1.397 . S
C1007 C1008 1.334 . S
C1008 H979 0.950 . S
C1008 C1007 1.334 . S
C1008 C1009 1.287 . S
C1009 C1008 1.287 . S
C1009 C1010 1.524 . S
C1009 H1012 0.999 . S
C1010 H980 0.950 . S
C1010 C1009 1.524 . S
C1010 C1011 1.415 . S
C1011 H981 0.950 . S
C1011 C1006 1.363 . S
C1011 C1010 1.415 . S
H1012 C1009 0.999 . S
H1013 C994 0.913 . S
H1014 C1032 0.951 . S
H1015 C1034 0.951 . S
H1016 C1036 0.950 . S
H1017 C1037 0.950 . S
H1018 C1039 0.950 . S
H1019 C1042 0.950 . S
H1020 C1043 0.950 . S
H1021 C1045 0.950 . S
H1022 C1046 0.950 . S
H1023 C1047 0.951 . S
H1024 C1049 0.951 . S
H1025 C1051 0.950 . S
H1026 C1052 0.950 . S
H1027 C1054 0.950 . S
H1028 C1057 0.950 . S
H1029 C1058 0.950 . S
H1030 C1060 0.950 . S
H1031 C1061 0.950 . S
C1032 H1014 0.951 . S
C1032 C1033 1.366 . S
C1032 C1034 1.388 . S
C1033 C1032 1.366 . S
C1033 C1037 1.385 . S
C1034 H1015 0.951 . S
C1034 C1032 1.388 . S
C1034 C1035 1.366 . S
C1035 C1034 1.366 . S
C1035 C1036 1.414 . S
C1035 C1038 1.499 . S
C1036 H1016 0.950 . S
C1036 C1035 1.414 . S
C1036 C1037 1.374 . S
C1037 H1017 0.950 . S
C1037 C1033 1.385 . S
C1037 C1036 1.374 . S
C1038 C1035 1.499 . S
C1038 C1039 1.373 . S
C1038 C1040 1.389 . S
C1039 H1018 0.950 . S
C1039 C1038 1.373 . S
C1039 C1055 1.377 . S
C1040 C1038 1.389 . S
C1040 C1041 1.524 . S
C1040 C1054 1.377 . S
C1041 C1040 1.524 . S
C1041 C1042 1.397 . S
C1041 C1046 1.363 . S
C1042 H1019 0.950 . S
C1042 C1041 1.397 . S
C1042 C1043 1.334 . S
C1043 H1020 0.950 . S
C1043 C1042 1.334 . S
C1043 C1044 1.287 . S
C1044 C1043 1.287 . S
C1044 C1045 1.524 . S
C1044 H1063 0.913 . S
C1045 H1021 0.950 . S
C1045 C1044 1.524 . S
C1045 C1046 1.415 . S
C1046 H1022 0.950 . S
C1046 C1041 1.363 . S
C1046 C1045 1.415 . S
C1047 H1023 0.951 . S
C1047 C1048 1.366 . S
C1047 C1049 1.388 . S
C1048 C1047 1.366 . S
C1048 C1052 1.385 . S
C1049 H1024 0.951 . S
C1049 C1047 1.388 . S
C1049 C1050 1.366 . S
C1050 C1049 1.366 . S
C1050 C1051 1.414 . S
C1050 C1053 1.499 . S
C1051 H1025 0.950 . S
C1051 C1050 1.414 . S
C1051 C1052 1.374 . S
C1052 H1026 0.950 . S
C1052 C1048 1.385 . S
C1052 C1051 1.374 . S
C1053 C1050 1.499 . S
C1053 C1054 1.373 . S
C1053 C1055 1.389 . S
C1054 H1027 0.950 . S
C1054 C1040 1.377 . S
C1054 C1053 1.373 . S
C1055 C1039 1.377 . S
C1055 C1053 1.389 . S
C1055 C1056 1.524 . S
C1056 C1055 1.524 . S
C1056 C1057 1.397 . S
C1056 C1061 1.363 . S
C1057 H1028 0.950 . S
C1057 C1056 1.397 . S
C1057 C1058 1.334 . S
C1058 H1029 0.950 . S
C1058 C1057 1.334 . S
C1058 C1059 1.287 . S
C1059 C1058 1.287 . S
C1059 C1060 1.524 . S
C1059 H1062 0.999 . S
C1060 H1030 0.950 . S
C1060 C1059 1.524 . S
C1060 C1061 1.415 . S
C1061 H1031 0.950 . S
C1061 C1056 1.363 . S
C1061 C1060 1.415 . S
H1062 C1059 0.999 . S
H1063 C1044 0.913 . S
H1064 C1082 0.951 . S
H1065 C1084 0.951 . S
H1066 C1086 0.950 . S
H1067 C1087 0.950 . S
H1068 C1089 0.950 . S
H1069 C1092 0.950 . S
H1070 C1093 0.950 . S
H1071 C1095 0.950 . S
H1072 C1096 0.950 . S
H1073 C1097 0.951 . S
H1074 C1099 0.951 . S
H1075 C1101 0.950 . S
H1076 C1102 0.950 . S
H1077 C1104 0.950 . S
H1078 C1107 0.950 . S
H1079 C1108 0.950 . S
H1080 C1110 0.950 . S
H1081 C1111 0.950 . S
C1082 H1064 0.951 . S
C1082 C1083 1.366 . S
C1082 C1084 1.388 . S
C1083 C1082 1.366 . S
C1083 C1087 1.385 . S
C1084 H1065 0.951 . S
C1084 C1082 1.388 . S
C1084 C1085 1.366 . S
C1085 C1084 1.366 . S
C1085 C1086 1.414 . S
C1085 C1088 1.499 . S
C1086 H1066 0.950 . S
C1086 C1085 1.414 . S
C1086 C1087 1.374 . S
C1087 H1067 0.950 . S
C1087 C1083 1.385 . S
C1087 C1086 1.374 . S
C1088 C1085 1.499 . S
C1088 C1089 1.373 . S
C1088 C1090 1.389 . S
C1089 H1068 0.950 . S
C1089 C1088 1.373 . S
C1089 C1105 1.377 . S
C1090 C1088 1.389 . S
C1090 C1091 1.524 . S
C1090 C1104 1.377 . S
C1091 C1090 1.524 . S
C1091 C1092 1.397 . S
C1091 C1096 1.363 . S
C1092 H1069 0.950 . S
C1092 C1091 1.397 . S
C1092 C1093 1.334 . S
C1093 H1070 0.950 . S
C1093 C1092 1.334 . S
C1093 C1094 1.287 . S
C1094 C1093 1.287 . S
C1094 C1095 1.524 . S
C1094 H1113 0.913 . S
C1095 H1071 0.950 . S
C1095 C1094 1.524 . S
C1095 C1096 1.415 . S
C1096 H1072 0.950 . S
C1096 C1091 1.363 . S
C1096 C1095 1.415 . S
C1097 H1073 0.951 . S
C1097 C1098 1.366 . S
C1097 C1099 1.388 . S
C1098 C1097 1.366 . S
C1098 C1102 1.385 . S
C1099 H1074 0.951 . S
C1099 C1097 1.388 . S
C1099 C1100 1.366 . S
C1100 C1099 1.366 . S
C1100 C1101 1.414 . S
C1100 C1103 1.499 . S
C1101 H1075 0.950 . S
C1101 C1100 1.414 . S
C1101 C1102 1.374 . S
C1102 H1076 0.950 . S
C1102 C1098 1.385 . S
C1102 C1101 1.374 . S
C1103 C1100 1.499 . S
C1103 C1104 1.373 . S
C1103 C1105 1.389 . S
C1104 H1077 0.950 . S
C1104 C1090 1.377 . S
C1104 C1103 1.373 . S
C1105 C1089 1.377 . S
C1105 C1103 1.389 . S
C1105 C1106 1.524 . S
C1106 C1105 1.524 . S
C1106 C1107 1.397 . S
C1106 C1111 1.363 . S
C1107 H1078 0.950 . S
C1107 C1106 1.397 . S
C1107 C1108 1.334 . S
C1108 H1079 0.950 . S
C1108 C1107 1.334 . S
C1108 C1109 1.287 . S
C1109 C1108 1.287 . S
C1109 C1110 1.524 . S
C1109 H1112 0.999 . S
C1110 H1080 0.950 . S
C1110 C1109 1.524 . S
C1110 C1111 1.415 . S
C1111 H1081 0.950 . S
C1111 C1106 1.363 . S
C1111 C1110 1.415 . S
H1112 C1109 0.999 . S
H1113 C1094 0.913 . S
H1114 C1132 0.951 . S
H1115 C1134 0.951 . S
H1116 C1136 0.950 . S
H1117 C1137 0.950 . S
H1118 C1139 0.950 . S
H1119 C1142 0.950 . S
H1120 C1143 0.950 . S
H1121 C1145 0.950 . S
H1122 C1146 0.950 . S
H1123 C1147 0.951 . S
H1124 C1149 0.951 . S
H1125 C1151 0.950 . S
H1126 C1152 0.950 . S
H1127 C1154 0.950 . S
H1128 C1157 0.950 . S
H1129 C1158 0.950 . S
H1130 C1160 0.950 . S
H1131 C1161 0.950 . S
C1132 H1114 0.951 . S
C1132 C1133 1.366 . S
C1132 C1134 1.388 . S
C1133 C1132 1.366 . S
C1133 C1137 1.385 . S
C1134 H1115 0.951 . S
C1134 C1132 1.388 . S
C1134 C1135 1.366 . S
C1135 C1134 1.366 . S
C1135 C1136 1.414 . S
C1135 C1138 1.499 . S
C1136 H1116 0.950 . S
C1136 C1135 1.414 . S
C1136 C1137 1.374 . S
C1137 H1117 0.950 . S
C1137 C1133 1.385 . S
C1137 C1136 1.374 . S
C1138 C1135 1.499 . S
C1138 C1139 1.373 . S
C1138 C1140 1.389 . S
C1139 H1118 0.950 . S
C1139 C1138 1.373 . S
C1139 C1155 1.377 . S
C1140 C1138 1.389 . S
C1140 C1141 1.524 . S
C1140 C1154 1.377 . S
C1141 C1140 1.524 . S
C1141 C1142 1.397 . S
C1141 C1146 1.363 . S
C1142 H1119 0.950 . S
C1142 C1141 1.397 . S
C1142 C1143 1.334 . S
C1143 H1120 0.950 . S
C1143 C1142 1.334 . S
C1143 C1144 1.287 . S
C1144 C1143 1.287 . S
C1144 C1145 1.524 . S
C1144 H1163 0.913 . S
C1145 H1121 0.950 . S
C1145 C1144 1.524 . S
C1145 C1146 1.415 . S
C1146 H1122 0.950 . S
C1146 C1141 1.363 . S
C1146 C1145 1.415 . S
C1147 H1123 0.951 . S
C1147 C1148 1.366 . S
C1147 C1149 1.388 . S
C1148 C1147 1.366 . S
C1148 C1152 1.385 . S
C1149 H1124 0.951 . S
C1149 C1147 1.388 . S
C1149 C1150 1.366 . S
C1150 C1149 1.366 . S
C1150 C1151 1.414 . S
C1150 C1153 1.499 . S
C1151 H1125 0.950 . S
C1151 C1150 1.414 . S
C1151 C1152 1.374 . S
C1152 H1126 0.950 . S
C1152 C1148 1.385 . S
C1152 C1151 1.374 . S
C1153 C1150 1.499 . S
C1153 C1154 1.373 . S
C1153 C1155 1.389 . S
C1154 H1127 0.950 . S
C1154 C1140 1.377 . S
C1154 C1153 1.373 . S
C1155 C1139 1.377 . S
C1155 C1153 1.389 . S
C1155 C1156 1.524 . S
C1156 C1155 1.524 . S
C1156 C1157 1.397 . S
C1156 C1161 1.363 . S
C1157 H1128 0.950 . S
C1157 C1156 1.397 . S
C1157 C1158 1.334 . S
C1158 H1129 0.950 . S
C1158 C1157 1.334 . S
C1158 C1159 1.287 . S
C1159 C1158 1.287 . S
C1159 C1160 1.524 . S
C1159 H1162 0.999 . S
C1160 H1130 0.950 . S
C1160 C1159 1.524 . S
C1160 C1161 1.415 . S
C1161 H1131 0.950 . S
C1161 C1156 1.363 . S
C1161 C1160 1.415 . S
H1162 C1159 0.999 . S
H1163 C1144 0.913 . S
H1164 C1182 0.951 . S
H1165 C1184 0.951 . S
H1166 C1186 0.950 . S
H1167 C1187 0.950 . S
H1168 C1189 0.950 . S
H1169 C1192 0.950 . S
H1170 C1193 0.950 . S
H1171 C1195 0.950 . S
H1172 C1196 0.950 . S
H1173 C1197 0.951 . S
H1174 C1199 0.951 . S
H1175 C1201 0.950 . S
H1176 C1202 0.950 . S
H1177 C1204 0.950 . S
H1178 C1207 0.950 . S
H1179 C1208 0.950 . S
H1180 C1210 0.950 . S
H1181 C1211 0.950 . S
C1182 H1164 0.951 . S
C1182 C1183 1.366 . S
C1182 C1184 1.388 . S
C1183 C1182 1.366 . S
C1183 C1187 1.385 . S
C1184 H1165 0.951 . S
C1184 C1182 1.388 . S
C1184 C1185 1.366 . S
C1185 C1184 1.366 . S
C1185 C1186 1.414 . S
C1185 C1188 1.499 . S
C1186 H1166 0.950 . S
C1186 C1185 1.414 . S
C1186 C1187 1.374 . S
C1187 H1167 0.950 . S
C1187 C1183 1.385 . S
C1187 C1186 1.374 . S
C1188 C1185 1.499 . S
C1188 C1189 1.373 . S
C1188 C1190 1.389 . S
C1189 H1168 0.950 . S
C1189 C1188 1.373 . S
C1189 C1205 1.377 . S
C1190 C1188 1.389 . S
C1190 C1191 1.524 . S
C1190 C1204 1.377 . S
C1191 C1190 1.524 . S
C1191 C1192 1.397 . S
C1191 C1196 1.363 . S
C1192 H1169 0.950 . S
C1192 C1191 1.397 . S
C1192 C1193 1.334 . S
C1193 H1170 0.950 . S
C1193 C1192 1.334 . S
C1193 C1194 1.287 . S
C1194 C1193 1.287 . S
C1194 C1195 1.524 . S
C1194 H1213 0.913 . S
C1195 H1171 0.950 . S
C1195 C1194 1.524 . S
C1195 C1196 1.415 . S
C1196 H1172 0.950 . S
C1196 C1191 1.363 . S
C1196 C1195 1.415 . S
C1197 H1173 0.951 . S
C1197 C1198 1.366 . S
C1197 C1199 1.388 . S
C1198 C1197 1.366 . S
C1198 C1202 1.385 . S
C1199 H1174 0.951 . S
C1199 C1197 1.388 . S
C1199 C1200 1.366 . S
C1200 C1199 1.366 . S
C1200 C1201 1.414 . S
C1200 C1203 1.499 . S
C1201 H1175 0.950 . S
C1201 C1200 1.414 . S
C1201 C1202 1.374 . S
C1202 H1176 0.950 . S
C1202 C1198 1.385 . S
C1202 C1201 1.374 . S
C1203 C1200 1.499 . S
C1203 C1204 1.373 . S
C1203 C1205 1.389 . S
C1204 H1177 0.950 . S
C1204 C1190 1.377 . S
C1204 C1203 1.373 . S
C1205 C1189 1.377 . S
C1205 C1203 1.389 . S
C1205 C1206 1.524 . S
C1206 C1205 1.524 . S
C1206 C1207 1.397 . S
C1206 C1211 1.363 . S
C1207 H1178 0.950 . S
C1207 C1206 1.397 . S
C1207 C1208 1.334 . S
C1208 H1179 0.950 . S
C1208 C1207 1.334 . S
C1208 C1209 1.287 . S
C1209 C1208 1.287 . S
C1209 C1210 1.524 . S
C1209 H1212 0.999 . S
C1210 H1180 0.950 . S
C1210 C1209 1.524 . S
C1210 C1211 1.415 . S
C1211 H1181 0.950 . S
C1211 C1206 1.363 . S
C1211 C1210 1.415 . S
H1212 C1209 0.999 . S
H1213 C1194 0.913 . S
H1214 C1232 0.951 . S
H1215 C1234 0.951 . S
H1216 C1236 0.950 . S
H1217 C1237 0.950 . S
H1218 C1239 0.950 . S
H1219 C1242 0.950 . S
H1220 C1243 0.950 . S
H1221 C1245 0.950 . S
H1222 C1246 0.950 . S
H1223 C1247 0.951 . S
H1224 C1249 0.951 . S
H1225 C1251 0.950 . S
H1226 C1252 0.950 . S
H1227 C1254 0.950 . S
H1228 C1257 0.950 . S
H1229 C1258 0.950 . S
H1230 C1260 0.950 . S
H1231 C1261 0.950 . S
C1232 H1214 0.951 . S
C1232 C1233 1.366 . S
C1232 C1234 1.388 . S
C1233 C1232 1.366 . S
C1233 C1237 1.385 . S
C1234 H1215 0.951 . S
C1234 C1232 1.388 . S
C1234 C1235 1.366 . S
C1235 C1234 1.366 . S
C1235 C1236 1.414 . S
C1235 C1238 1.499 . S
C1236 H1216 0.950 . S
C1236 C1235 1.414 . S
C1236 C1237 1.374 . S
C1237 H1217 0.950 . S
C1237 C1233 1.385 . S
C1237 C1236 1.374 . S
C1238 C1235 1.499 . S
C1238 C1239 1.373 . S
C1238 C1240 1.389 . S
C1239 H1218 0.950 . S
C1239 C1238 1.373 . S
C1239 C1255 1.377 . S
C1240 C1238 1.389 . S
C1240 C1241 1.524 . S
C1240 C1254 1.377 . S
C1241 C1240 1.524 . S
C1241 C1242 1.397 . S
C1241 C1246 1.363 . S
C1242 H1219 0.950 . S
C1242 C1241 1.397 . S
C1242 C1243 1.334 . S
C1243 H1220 0.950 . S
C1243 C1242 1.334 . S
C1243 C1244 1.287 . S
C1244 C1243 1.287 . S
C1244 C1245 1.524 . S
C1244 H1263 0.913 . S
C1245 H1221 0.950 . S
C1245 C1244 1.524 . S
C1245 C1246 1.415 . S
C1246 H1222 0.950 . S
C1246 C1241 1.363 . S
C1246 C1245 1.415 . S
C1247 H1223 0.951 . S
C1247 C1248 1.366 . S
C1247 C1249 1.388 . S
C1248 C1247 1.366 . S
C1248 C1252 1.385 . S
C1249 H1224 0.951 . S
C1249 C1247 1.388 . S
C1249 C1250 1.366 . S
C1250 C1249 1.366 . S
C1250 C1251 1.414 . S
C1250 C1253 1.499 . S
C1251 H1225 0.950 . S
C1251 C1250 1.414 . S
C1251 C1252 1.374 . S
C1252 H1226 0.950 . S
C1252 C1248 1.385 . S
C1252 C1251 1.374 . S
C1253 C1250 1.499 . S
C1253 C1254 1.373 . S
C1253 C1255 1.389 . S
C1254 H1227 0.950 . S
C1254 C1240 1.377 . S
C1254 C1253 1.373 . S
C1255 C1239 1.377 . S
C1255 C1253 1.389 . S
C1255 C1256 1.524 . S
C1256 C1255 1.524 . S
C1256 C1257 1.397 . S
C1256 C1261 1.363 . S
C1257 H1228 0.950 . S
C1257 C1256 1.397 . S
C1257 C1258 1.334 . S
C1258 H1229 0.950 . S
C1258 C1257 1.334 . S
C1258 C1259 1.287 . S
C1259 C1258 1.287 . S
C1259 C1260 1.524 . S
C1259 H1262 0.999 . S
C1260 H1230 0.950 . S
C1260 C1259 1.524 . S
C1260 C1261 1.415 . S
C1261 H1231 0.950 . S
C1261 C1256 1.363 . S
C1261 C1260 1.415 . S
H1262 C1259 0.999 . S
H1263 C1244 0.913 . S
C283 N137 1.528 . S
C298 N5 1.528 . S
C333 N38 1.528 . S
C348 N170 1.528 . S
C383 N71 1.528 . S
C398 N203 1.528 . S
C433 N236 1.528 . S
C448 N104 1.528 . S
C483 N245 0.854 . S
C498 C8 0.852 . S
C533 N146 0.854 . S
C548 C41 0.853 . S
C583 N179 0.853 . S
C598 C74 0.852 . S
C633 N212 0.854 . S
C648 C107 0.852 1_565 S
C683 C140 0.852 1_655 S
C698 N113 0.854 . S
C733 C173 0.852 . S
C748 N14 0.853 . S
C783 C206 0.852 . S
C798 N47 0.854 . S
C833 C239 0.852 . S
C848 N80 0.853 . S
C883 C17 0.828 . S
C898 C83 0.827 . S
C933 C50 0.827 . S
C948 C116 0.827 . S
C983 C215 0.827 . S
C998 C149 0.828 . S
C1033 C248 0.827 . S
C1048 C182 0.827 . S
C1083 C94 0.585 . S
C1098 C28 0.581 . S
C1133 C61 0.581 . S
C1148 C127 0.583 . S
C1183 C226 0.582 . S
C1198 C160 0.582 . S
C1233 C259 0.582 . S
C1248 C193 0.585 . S
