# Generated by pormake.
# Topology zft, (5)-cn, num edge types: 1
# Building blocks:
#     Node 0, Type 0, BuildingBlock: XOMCOT_clean_sbu_0, # of connection points: 5
#     Node 1, Type 0, BuildingBlock: XOMCOT_clean_sbu_0, # of connection points: 5
#     Node 2, Type 0, BuildingBlock: XOMCOT_clean_sbu_0, # of connection points: 5
#     Node 3, Type 0, BuildingBlock: XOMCOT_clean_sbu_0, # of connection points: 5
#     Node 4, Type 0, BuildingBlock: XOMCOT_clean_sbu_0, # of connection points: 5
#     Node 5, Type 0, BuildingBlock: XOMCOT_clean_sbu_0, # of connection points: 5
#     Node 6, Type 0, BuildingBlock: XOMCOT_clean_sbu_0, # of connection points: 5
#     Node 7, Type 0, BuildingBlock: XOMCOT_clean_sbu_0, # of connection points: 5
#     Edge 8, Type (0, 0), BuildingBlock: CIFDUS_clean_linker_0, # of connection points: 2
#     Edge 9, Type (0, 0), BuildingBlock: CIFDUS_clean_linker_0, # of connection points: 2
#     Edge 10, Type (0, 0), BuildingBlock: CIFDUS_clean_linker_0, # of connection points: 2
#     Edge 11, Type (0, 0), BuildingBlock: CIFDUS_clean_linker_0, # of connection points: 2
#     Edge 12, Type (0, 0), BuildingBlock: CIFDUS_clean_linker_0, # of connection points: 2
#     Edge 13, Type (0, 0), BuildingBlock: CIFDUS_clean_linker_0, # of connection points: 2
#     Edge 14, Type (0, 0), BuildingBlock: CIFDUS_clean_linker_0, # of connection points: 2
#     Edge 15, Type (0, 0), BuildingBlock: CIFDUS_clean_linker_0, # of connection points: 2
#     Edge 16, Type (0, 0), BuildingBlock: CIFDUS_clean_linker_0, # of connection points: 2
#     Edge 17, Type (0, 0), BuildingBlock: CIFDUS_clean_linker_0, # of connection points: 2
#     Edge 18, Type (0, 0), BuildingBlock: CIFDUS_clean_linker_0, # of connection points: 2
#     Edge 19, Type (0, 0), BuildingBlock: CIFDUS_clean_linker_0, # of connection points: 2
#     Edge 20, Type (0, 0), BuildingBlock: CIFDUS_clean_linker_0, # of connection points: 2
#     Edge 21, Type (0, 0), BuildingBlock: CIFDUS_clean_linker_0, # of connection points: 2
#     Edge 22, Type (0, 0), BuildingBlock: CIFDUS_clean_linker_0, # of connection points: 2
#     Edge 23, Type (0, 0), BuildingBlock: CIFDUS_clean_linker_0, # of connection points: 2
#     Edge 24, Type (0, 0), BuildingBlock: CIFDUS_clean_linker_0, # of connection points: 2
#     Edge 25, Type (0, 0), BuildingBlock: CIFDUS_clean_linker_0, # of connection points: 2
#     Edge 26, Type (0, 0), BuildingBlock: CIFDUS_clean_linker_0, # of connection points: 2
#     Edge 27, Type (0, 0), BuildingBlock: CIFDUS_clean_linker_0, # of connection points: 2
# Relax obj value: 0.078
# Max RMSD: 0.164
# Mean RMSD: 0.164
data_MOF--net-zft--node1-XOMCOT_clean_sbu_0--edge1-CIFDUS_clean_linker_0
_symmetry_space_group_name_H-M    P1
_symmetry_Int_Tables_number       1
_symmetry_cell_setting            triclinic
loop_
_symmetry_equiv_pos_as_xyz
'x, y, z'
_cell_length_a     24.851207
_cell_length_b     24.986945
_cell_length_c     46.575637
_cell_angle_alpha  89.919918
_cell_angle_beta   90.20096
_cell_angle_gamma 90.248448
loop_
_atom_site_label
_atom_site_type_symbol
_atom_site_fract_x
_atom_site_fract_y
_atom_site_fract_z
_atom_type_partial_charge
Co0 Co 0.15469 0.29436 0.1647 0.0
C1 C 0.22781 0.37414 0.13879 0.0
C2 C 0.26601 0.29772 0.14303 0.0
C3 C 0.30375 0.33456 0.13403 0.0
N4 N 0.21841 0.3226 0.14605 0.0
N5 N 0.27984 0.3828 0.13169 0.0
H6 H 0.19806 0.40538 0.14068 0.0
H7 H 0.27378 0.25645 0.14853 0.0
C8 C 0.1552 0.18209 0.14108 0.0
O9 O 0.10581 0.18901 0.13163 0.0
N10 N 0.09095 0.26664 0.18484 0.0
C11 C 0.05174 0.29695 0.19662 0.0
C12 C 1.01338 0.26449 0.20861 0.0
C13 C 0.0769 0.21567 0.19182 0.0
N14 N 0.02927 0.21359 0.20557 0.0
C15 C 0.06763 0.32941 0.12924 0.0
C16 C 0.10676 0.29255 0.07751 0.0
C17 C 0.05632 0.31752 0.0782 0.0
C18 C 0.03733 0.33669 0.10443 0.0
C19 C 0.1357 0.28548 0.10313 0.0
N20 N 0.11485 0.30184 0.12881 0.0
H21 H 0.05349 0.34759 0.14862 0.0
H22 H 0.17464 0.26644 0.10237 0.0
H23 H 0.05015 0.34014 0.19646 0.0
H24 H 0.10022 0.18051 0.18717 0.0
O25 O 0.14065 0.36423 0.17977 0.0
O26 O 0.19034 0.30258 0.20151 0.0
O27 O 0.17906 0.21933 0.15506 0.0
C28 C 0.17 0.35064 0.20169 0.0
H29 H 0.34602 0.32666 0.13063 0.0
H30 H 0.97602 0.27711 0.21833 0.0
H31 H 0.12337 0.27827 0.05748 0.0
H32 H 0.99984 0.35853 0.10568 0.0
Co33 Co 0.25669 0.63738 0.42139 0.0
C34 C 0.16431 0.70234 0.40212 0.0
C35 C 0.23634 0.74885 0.39877 0.0
C36 C 0.19274 0.78095 0.39177 0.0
N37 N 0.2186 0.69878 0.40458 0.0
N38 N 0.14754 0.75137 0.39418 0.0
H39 H 0.13658 0.6706 0.4076 0.0
H40 H 0.27743 0.76245 0.40112 0.0
C41 C 0.34886 0.68439 0.38687 0.0
O42 O 0.31734 0.68843 0.36427 0.0
N43 N 0.2907 0.57556 0.4385 0.0
C44 C 0.268 0.52652 0.43824 0.0
C45 C 0.30301 0.4908 0.45027 0.0
C46 C 0.33934 0.56928 0.45118 0.0
N47 N 0.34789 0.5174 0.45828 0.0
C48 C 0.2012 0.58533 0.37468 0.0
C49 C 0.29147 0.53776 0.35154 0.0
C50 C 0.24103 0.52653 0.33952 0.0
C51 C 0.19552 0.55095 0.3513 0.0
C52 C 0.29536 0.57253 0.37485 0.0
N53 N 0.25071 0.59684 0.38584 0.0
H54 H 0.16537 0.60026 0.38461 0.0
H55 H 0.33427 0.578 0.38482 0.0
H56 H 0.2288 0.51726 0.42934 0.0
H57 H 0.36805 0.60134 0.45457 0.0
O58 O 0.19036 0.6161 0.43996 0.0
O59 O 0.25216 0.67063 0.45842 0.0
O60 O 0.33015 0.66651 0.41058 0.0
C61 C 0.20606 0.64639 0.46116 0.0
H62 H 0.1939 0.82342 0.38718 0.0
H63 H 0.29591 0.44833 0.45309 0.0
H64 H 0.32761 0.51931 0.34329 0.0
H65 H 0.15555 0.54189 0.34327 0.0
Co66 Co 0.90038 0.74891 0.66783 0.0
C67 C 0.84039 0.65045 0.65559 0.0
C68 C 0.78952 0.7186 0.64906 0.0
C69 C 0.7604 0.67262 0.64291 0.0
N70 N 0.83968 0.70436 0.65698 0.0
N71 N 0.79257 0.62997 0.64728 0.0
H72 H 0.87556 0.62655 0.66029 0.0
H73 H 0.77499 0.75927 0.64791 0.0
C74 C 0.88697 0.84944 0.63279 0.0
O75 O 0.93522 0.84251 0.62221 0.0
N76 N 0.96254 0.79318 0.67892 0.0
C77 C 1.00671 0.80473 0.66306 0.0
C78 C 0.03931 0.83937 0.67786 0.0
C79 C 0.97006 0.82087 0.70367 0.0
N80 N 1.01636 0.84943 0.70331 0.0
C81 C 0.98068 0.69467 0.63586 0.0
C82 C 0.9396 0.71589 0.58178 0.0
C83 C 0.98884 0.68904 0.58432 0.0
C84 C 1.00837 0.67693 0.6118 0.0
C85 C 0.91309 0.73295 0.60655 0.0
N86 N 0.93567 0.72533 0.63302 0.0
H87 H 0.99695 0.68607 0.65689 0.0
H88 H 0.87487 0.75303 0.60443 0.0
H89 H 1.01484 0.79103 0.64159 0.0
H90 H 0.94215 0.82106 0.72143 0.0
O91 O 0.92465 0.69263 0.69307 0.0
O92 O 0.86911 0.75765 0.70554 0.0
O93 O 0.86602 0.81389 0.64917 0.0
C94 C 0.89404 0.71376 0.71253 0.0
H95 H 0.71862 0.67064 0.63634 0.0
H96 H 0.07733 0.85572 0.6706 0.0
H97 H 0.92255 0.72502 0.56092 0.0
H98 H 0.04531 0.65468 0.61471 0.0
Co99 Co 0.78544 0.40123 0.9199 0.0
C100 C 0.87581 0.34757 0.89322 0.0
C101 C 0.80893 0.29344 0.89656 0.0
C102 C 0.85402 0.26489 0.88842 0.0
N103 N 0.82304 0.34524 0.89965 0.0
N104 N 0.89603 0.29915 0.88683 0.0
H105 H 0.9 0.38346 0.89552 0.0
H106 H 0.77011 0.27686 0.90222 0.0
C107 C 0.67796 0.39734 0.88918 0.0
O108 O 0.68367 0.448 0.88212 0.0
N109 N 0.74948 0.45789 0.9417 0.0
C110 C 0.77496 0.4934 0.95907 0.0
C111 C 0.73786 0.52464 0.97273 0.0
C112 C 0.69642 0.46771 0.94592 0.0
N113 N 0.68875 0.50849 0.96439 0.0
C114 C 0.82091 0.49726 0.89126 0.0
C115 C 0.80325 0.46041 0.83607 0.0
C116 C 0.82706 0.51086 0.83991 0.0
C117 C 0.83536 0.52944 0.86795 0.0
C118 C 0.78908 0.42971 0.85994 0.0
N119 N 0.79727 0.44843 0.88718 0.0
H120 H 0.83093 0.51091 0.9125 0.0
H121 H 0.7723 0.39024 0.85652 0.0
H122 H 0.81798 0.49705 0.96185 0.0
H123 H 0.66363 0.44516 0.93673 0.0
O124 O 0.85142 0.41516 0.94063 0.0
O125 O 0.78774 0.35816 0.95437 0.0
O126 O 0.71432 0.3739 0.90407 0.0
C127 C 0.83491 0.37947 0.95899 0.0
H128 H 0.85675 0.22183 0.88645 0.0
H129 H 0.74619 0.55765 0.98714 0.0
H130 H 0.79612 0.44449 0.81477 0.0
H131 H 0.85495 0.56756 0.87187 0.0
Co132 Co 0.65559 0.23766 0.57893 0.0
C133 C 0.73445 0.15572 0.59765 0.0
C134 C 0.77224 0.23204 0.59227 0.0
C135 C 0.81144 0.1946 0.598 0.0
N136 N 0.72347 0.20805 0.59289 0.0
N137 N 0.78746 0.14653 0.60136 0.0
H138 H 0.70533 0.12385 0.59551 0.0
H139 H 0.77958 0.27316 0.58619 0.0
C140 C 0.70095 0.33144 0.61121 0.0
O141 O 0.71115 0.29891 0.63273 0.0
N142 N 0.58898 0.26586 0.56412 0.0
C143 C 0.54054 0.24179 0.5662 0.0
C144 C 0.50392 0.27057 0.55039 0.0
C145 C 0.5814 0.30906 0.54715 0.0
N146 N 0.5296 0.31278 0.53863 0.0
C147 C 0.61743 0.17962 0.62823 0.0
C148 C 0.56531 0.26424 0.65399 0.0
C149 C 0.5627 0.21354 0.66684 0.0
C150 C 0.58939 0.17102 0.6537 0.0
C151 C 0.5946 0.27127 0.62866 0.0
N152 N 0.62141 0.22945 0.61638 0.0
H153 H 0.63327 0.14535 0.61741 0.0
H154 H 0.59409 0.31005 0.61838 0.0
H155 H 0.53293 0.20475 0.57756 0.0
H156 H 0.61337 0.3354 0.54001 0.0
O157 O 0.63708 0.169 0.56278 0.0
O158 O 0.68334 0.2323 0.54021 0.0
O159 O 0.6798 0.31324 0.5881 0.0
C160 C 0.6625 0.18433 0.53983 0.0
H161 H 0.85437 0.20198 0.59845 0.0
H162 H 0.462 0.26039 0.54692 0.0
H163 H 0.54429 0.29796 0.66321 0.0
H164 H 0.58648 0.13079 0.66227 0.0
Co165 Co 0.29171 0.15968 0.82899 0.0
C166 C 0.37313 0.23912 0.84896 0.0
C167 C 0.29634 0.27541 0.84233 0.0
C168 C 0.33326 0.31499 0.84865 0.0
N169 N 0.32087 0.22736 0.84332 0.0
N170 N 0.38174 0.2921 0.85273 0.0
H171 H 0.40536 0.21055 0.84756 0.0
H172 H 0.25519 0.28195 0.83568 0.0
C173 C 0.19688 0.20308 0.86139 0.0
O174 O 0.22885 0.21513 0.883 0.0
N175 N 0.26344 0.09332 0.81397 0.0
C176 C 0.28302 0.04382 0.8186 0.0
C177 C 0.24921 1.0072 0.80569 0.0
C178 C 0.21875 0.08644 0.79788 0.0
N179 N 0.209 0.03413 0.7927 0.0
C180 C 0.35274 0.1182 0.87669 0.0
C181 C 0.26735 0.06923 0.90424 0.0
C182 C 0.31911 0.06401 0.91589 0.0
C183 C 0.3621 0.08905 0.90179 0.0
C184 C 0.25972 0.0991 0.8792 0.0
N185 N 0.30192 0.12448 0.86607 0.0
H186 H 0.38693 0.13311 0.86509 0.0
H187 H 0.22003 0.09972 0.86972 0.0
H188 H 0.31905 0.03496 0.83078 0.0
H189 H 0.19361 0.11891 0.79041 0.0
O190 O 0.36042 0.14448 0.81144 0.0
O191 O 0.29369 0.18918 0.79082 0.0
O192 O 0.21585 0.18142 0.8388 0.0
C193 C 0.34248 0.17081 0.78924 0.0
H194 H 0.3252 0.35749 0.84907 0.0
H195 H 0.25432 0.9642 0.80533 0.0
H196 H 0.23308 0.04979 0.91416 0.0
H197 H 0.40305 0.08424 0.90938 0.0
Co198 Co 0.37427 0.79404 0.07842 0.0
C199 C 0.30418 0.87515 0.10509 0.0
C200 C 0.26589 0.79806 0.10353 0.0
C201 C 0.22913 0.83492 0.1131 0.0
N202 N 0.31292 0.8233 0.09847 0.0
N203 N 0.25306 0.88349 0.1138 0.0
H204 H 0.33342 0.90669 0.10163 0.0
H205 H 0.25768 0.75642 0.09904 0.0
C206 C 0.37621 0.68332 0.10473 0.0
O207 O 0.42655 0.69069 0.11259 0.0
N208 N 0.43501 0.76476 0.0568 0.0
C209 C 0.47153 0.79344 0.04159 0.0
C210 C 0.50411 0.75927 0.02655 0.0
C211 C 0.44528 0.71321 0.04969 0.0
N212 N 0.48758 0.70904 0.03183 0.0
C213 C 0.46663 0.83064 0.11035 0.0
C214 C 0.43041 0.80013 0.164 0.0
C215 C 0.48116 0.82454 0.16168 0.0
C216 C 0.49891 0.84015 0.1344 0.0
C217 C 0.39954 0.79085 0.13927 0.0
N218 N 0.41846 0.80461 0.1127 0.0
H219 H 0.48008 0.84553 0.08993 0.0
H220 H 0.36045 0.7722 0.14148 0.0
H221 H 0.47427 0.83658 0.0409 0.0
H222 H 0.42151 0.67913 0.05609 0.0
O223 O 0.3857 0.86274 0.06051 0.0
O224 O 0.33388 0.79801 0.04293 0.0
O225 O 0.35122 0.71983 0.09087 0.0
C226 C 0.35339 0.84627 0.04029 0.0
H227 H 0.18736 0.82682 0.11804 0.0
H228 H 0.53788 0.77032 0.01313 0.0
H229 H 0.41487 0.78785 0.18469 0.0
H230 H 0.53695 0.86088 0.13172 0.0
Co231 Co 0.75535 0.89097 0.32284 0.0
C232 C 0.66553 0.82688 0.34561 0.0
C233 C 0.73774 0.7809 0.34715 0.0
C234 C 0.69479 0.7482 0.35471 0.0
N235 N 0.71947 0.83093 0.34207 0.0
N236 N 0.64953 0.77752 0.35343 0.0
H237 H 0.6372 0.85786 0.34015 0.0
H238 H 0.77848 0.7677 0.34349 0.0
C239 C 0.84841 0.84896 0.3589 0.0
O240 O 0.81644 0.84485 0.38121 0.0
N241 N 0.78772 0.95096 0.30321 0.0
C242 C 0.76226 0.99767 0.29856 0.0
C243 C 0.79549 0.03087 0.28325 0.0
C244 C 0.83662 0.9564 0.2909 0.0
N245 N 0.84205 1.00503 0.27843 0.0
C246 C 0.69823 0.94945 0.36631 0.0
C247 C 0.78741 0.99739 0.391 0.0
C248 C 0.73633 1.00918 0.40195 0.0
C249 C 0.69141 0.98488 0.38913 0.0
C250 C 0.79243 0.9615 0.36815 0.0
N251 N 0.74829 0.9364 0.3567 0.0
H252 H 0.66286 0.93469 0.35563 0.0
H253 H 0.83186 0.9553 0.35914 0.0
H254 H 0.72212 1.00693 0.30587 0.0
H255 H 0.867 0.92555 0.29061 0.0
O256 O 0.68795 0.90698 0.30354 0.0
O257 O 0.7505 0.85234 0.28697 0.0
O258 O 0.82988 0.86574 0.33485 0.0
C259 C 0.70355 0.87435 0.28351 0.0
H260 H 0.69616 0.70547 0.35849 0.0
H261 H 0.78653 0.07137 0.2765 0.0
H262 H 0.82325 1.01592 0.39988 0.0
H263 H 0.65101 0.99458 0.39598 0.0
H264 H 0.23541 0.33907 0.24849 0.0
H265 H 0.12408 0.44802 0.20792 0.0
H266 H 0.137 0.51206 0.24661 0.0
H267 H 0.17926 0.5374 0.29198 0.0
H268 H 0.2903 0.42948 0.3333 0.0
H269 H 0.27879 0.36523 0.29416 0.0
C270 C 0.21402 0.37681 0.24819 0.0
C271 C 0.17879 0.38866 0.22543 0.0
C272 C 0.22175 0.41381 0.27054 0.0
C273 C 0.15148 0.43784 0.2252 0.0
C274 C 0.15879 0.47458 0.24732 0.0
C275 C 0.20069 0.49967 0.29249 0.0
C276 C 0.23542 0.48816 0.31548 0.0
C277 C 0.19367 0.46295 0.2701 0.0
C278 C 0.26369 0.43951 0.31565 0.0
C279 C 0.25688 0.40262 0.29338 0.0
H280 H 0.0954 0.70505 0.57794 0.0
H281 H 0.95531 0.6454 0.53318 0.0
H282 H 1.0106 0.62541 0.49107 0.0
H283 H 0.09913 0.62557 0.46709 0.0
H284 H 0.238 0.68714 0.51236 0.0
H285 H 0.18286 0.70492 0.55444 0.0
C286 C 0.07705 0.68702 0.5591 0.0
C287 C 1.02153 0.67623 0.55872 0.0
C288 C 0.10888 0.67587 0.53515 0.0
C289 C 0.99801 0.65419 0.53391 0.0
C290 C 0.02961 0.64258 0.50992 0.0
C291 C 0.11727 0.64244 0.48628 0.0
C292 C 0.17252 0.65481 0.48673 0.0
C293 C 0.08513 0.65327 0.51032 0.0
C294 C 0.19552 0.67733 0.51153 0.0
C295 C 0.16406 0.68752 0.53558 0.0
H296 H 0.81419 0.61779 0.83043 0.0
H297 H 0.88182 0.47512 0.79323 0.0
H298 H 0.9115 0.52628 0.75149 0.0
H299 H 0.91595 0.61057 0.72492 0.0
H300 H 0.84596 0.7532 0.76078 0.0
H301 H 0.82037 0.70328 0.80398 0.0
C302 C 0.83582 0.59808 0.81327 0.0
C303 C 0.84548 0.54268 0.81484 0.0
C304 C 0.85259 0.62775 0.78921 0.0
C305 C 0.87311 0.51754 0.79233 0.0
C306 C 0.89043 0.54681 0.76855 0.0
C307 C 0.89578 0.63097 0.74235 0.0
C308 C 0.88316 0.68555 0.73978 0.0
C309 C 0.88012 0.60181 0.76669 0.0
C310 C 0.85624 0.7112 0.76234 0.0
C311 C 0.84146 0.68265 0.78697 0.0
H312 H 0.94286 0.39147 0.96373 0.0
H313 H 0.8042 0.32799 0.00789 0.0
H314 H 0.86141 0.30014 0.04802 0.0
H315 H 0.95025 0.2968 0.07115 0.0
H316 H 0.08939 0.35797 0.02661 0.0
H317 H 0.03278 0.38244 0.98549 0.0
C318 C 0.92522 0.37152 0.98215 0.0
C319 C 0.86938 0.36231 0.98308 0.0
C320 C 0.95847 0.35479 0.00484 0.0
C321 C 0.84707 0.33574 0.00682 0.0
C322 C 0.87974 0.31977 0.02971 0.0
C323 C 0.96814 0.31525 0.05235 0.0
C324 C 0.02373 0.32601 0.05192 0.0
C325 C 0.93538 0.32946 0.02902 0.0
C326 C 0.04671 0.34909 0.02732 0.0
C327 C 1.01431 0.3635 0.00397 0.0
H328 H 0.72935 0.19578 0.49384 0.0
H329 H 0.61083 0.08979 0.53094 0.0
H330 H 0.62344 0.02648 0.49179 0.0
H331 H 0.66901 1.00021 0.44752 0.0
H332 H 0.788 0.10518 0.41015 0.0
H333 H 0.775 0.16934 0.44908 0.0
C334 C 0.70607 0.15899 0.49322 0.0
C335 C 0.66908 0.14764 0.51522 0.0
C336 C 0.71397 0.12228 0.47075 0.0
C337 C 0.63957 0.09955 0.51428 0.0
C338 C 0.64678 0.06323 0.49191 0.0
C339 C 0.69182 0.03731 0.44776 0.0
C340 C 0.72939 0.04781 0.42592 0.0
C341 C 0.684 0.07406 0.47011 0.0
C342 C 0.75928 0.09573 0.42686 0.0
C343 C 0.75159 0.13264 0.44901 0.0
H344 H 0.44678 0.14195 0.78115 0.0
H345 H 0.31538 0.22674 0.74113 0.0
H346 H 0.37263 0.24959 0.70043 0.0
H347 H 0.45978 0.24481 0.67587 0.0
H348 H 0.59077 0.15882 0.71527 0.0
H349 H 0.53407 0.13728 0.75658 0.0
C350 C 0.43062 0.16523 0.76347 0.0
C351 C 0.37686 0.18245 0.76415 0.0
C352 C 0.46379 0.17829 0.74009 0.0
C353 C 0.35658 0.21279 0.74112 0.0
C354 C 0.38933 0.22605 0.71785 0.0
C355 C 0.47603 0.22197 0.69369 0.0
C356 C 0.52937 0.20368 0.69265 0.0
C357 C 0.44301 0.20912 0.71713 0.0
C358 C 0.54971 0.17321 0.71561 0.0
C359 C 0.51734 0.16088 0.7392 0.0
H360 H 0.39088 0.94631 0.02966 0.0
H361 H 0.28585 0.82395 0.99538 0.0
H362 H 0.26464 0.88123 0.95429 0.0
H363 H 0.27766 0.96533 0.92758 0.0
H364 H 0.38321 0.08715 0.96191 0.0
H365 H 0.40271 0.03064 0.00348 0.0
C366 C 0.36326 0.93215 0.01323 0.0
C367 C 0.34003 0.88091 0.01555 0.0
C368 C 0.35145 0.96516 0.98966 0.0
C369 C 0.30435 0.8632 0.99408 0.0
C370 C 0.29218 0.89594 0.97059 0.0
C371 C 0.30439 0.97976 0.94435 0.0
C372 C 0.3289 0.03041 0.94168 0.0
C373 C 0.31562 0.94694 0.96812 0.0
C374 C 0.3642 0.04815 0.96334 0.0
C375 C 0.37524 1.01594 0.98715 0.0
H376 H 0.59575 0.88988 0.27819 0.0
H377 H 0.73378 0.82927 0.23292 0.0
H378 H 0.67713 0.80799 0.19144 0.0
H379 H 0.5885 0.8072 0.16784 0.0
H380 H 0.44989 0.86558 0.21341 0.0
H381 H 0.50639 0.88641 0.25508 0.0
C382 C 0.61342 0.87224 0.25917 0.0
C383 C 0.66897 0.86163 0.2585 0.0
C384 C 0.58043 0.85939 0.23554 0.0
C385 C 0.69116 0.83794 0.23393 0.0
C386 C 0.65879 0.82577 0.2102 0.0
C387 C 0.57072 0.82468 0.18687 0.0
C388 C 0.51511 0.83506 0.18746 0.0
C389 C 0.60342 0.83645 0.21073 0.0
C390 C 0.4925 0.85683 0.21246 0.0
C391 C 0.52485 0.86906 0.23623 0.0
H392 H 0.29922 0.9744 0.13344 0.0
H393 H 0.14852 0.90773 0.10385 0.0
H394 H 0.10514 0.99417 0.10969 0.0
H395 H 0.10994 0.08917 0.12235 0.0
H396 H 0.26017 0.15651 0.15229 0.0
H397 H 0.30376 0.06975 0.14679 0.0
C398 C 0.25696 0.97888 0.12819 0.0
C399 C 0.22728 0.93443 0.11832 0.0
C400 C 0.23214 0.02899 0.13148 0.0
C401 C 0.17229 0.94084 0.11194 0.0
C402 C 0.14744 0.99048 0.11504 0.0
C403 C 0.15226 0.085 0.12761 0.0
C404 C 0.18171 0.12947 0.13758 0.0
C405 C 0.17699 0.03487 0.12468 0.0
C406 C 0.23645 0.12306 0.14452 0.0
C407 C 0.26147 0.07339 0.1414 0.0
H408 H 0.60163 0.72138 0.39573 0.0
H409 H 0.57362 0.79433 0.31329 0.0
H410 H 0.47799 0.77133 0.31595 0.0
H411 H 0.4015 0.73316 0.34247 0.0
H412 H 0.42832 0.66366 0.42615 0.0
H413 H 0.52442 0.68262 0.4224 0.0
C414 C 0.57447 0.73147 0.37831 0.0
C415 C 0.59445 0.75928 0.35434 0.0
C416 C 0.51909 0.71922 0.38034 0.0
C417 C 0.55893 0.77301 0.33197 0.0
C418 C 0.50429 0.75994 0.33351 0.0
C419 C 0.42831 0.72209 0.3599 0.0
C420 C 0.40735 0.69706 0.38457 0.0
C421 C 0.48372 0.7336 0.35774 0.0
C422 C 0.44298 0.6832 0.40693 0.0
C423 C 0.49817 0.69388 0.40479 0.0
H424 H 0.74415 0.05799 0.62547 0.0
H425 H 0.88807 0.11831 0.58491 0.0
H426 H 0.93047 0.03104 0.59018 0.0
H427 H 0.92719 0.93798 0.60651 0.0
H428 H 0.78379 0.87691 0.64736 0.0
H429 H 0.74028 0.96384 0.64116 0.0
C430 C 0.7846 0.05195 0.61754 0.0
C431 C 0.81279 0.09494 0.60483 0.0
C432 C 0.80874 1.00142 0.62052 0.0
C433 C 0.86558 0.08644 0.59513 0.0
C434 C 0.88977 0.03632 0.59794 0.0
C435 C 0.88622 0.94336 0.61388 0.0
C436 C 0.85879 0.90075 0.62732 0.0
C437 C 0.86176 0.99358 0.61061 0.0
C438 C 0.80587 0.90888 0.6369 0.0
C439 C 0.781 0.95866 0.63343 0.0
H440 H 0.4718 0.24974 0.87621 0.0
H441 H 0.40809 0.39488 0.83924 0.0
H442 H 0.49415 0.43972 0.84681 0.0
H443 H 0.58765 0.43826 0.86407 0.0
H444 H 0.65199 0.29284 0.90042 0.0
H445 H 0.56602 0.24755 0.89237 0.0
C446 C 0.47676 0.291 0.86951 0.0
C447 C 0.43301 0.31867 0.85721 0.0
C448 C 0.52674 0.3166 0.87369 0.0
C449 C 0.44038 0.37253 0.84914 0.0
C450 C 0.48989 0.39823 0.85328 0.0
C451 C 0.58308 0.39657 0.87011 0.0
C452 C 0.62644 0.36915 0.88288 0.0
C453 C 0.53334 0.37073 0.86557 0.0
C454 C 0.61946 0.3151 0.89059 0.0
C455 C 0.57019 0.28911 0.88604 0.0
H456 H 0.76248 0.38054 0.65188 0.0
H457 H 0.66567 0.4131 0.57682 0.0
H458 H 0.68381 0.50887 0.58189 0.0
H459 H 0.72814 0.58384 0.60755 0.0
H460 H 0.82713 0.55013 0.68148 0.0
H461 H 0.80721 0.45468 0.67702 0.0
C462 C 0.74525 0.40854 0.63663 0.0
C463 C 0.71273 0.38953 0.61402 0.0
C464 C 0.75629 0.46354 0.63949 0.0
C465 C 0.69107 0.4265 0.59436 0.0
C466 C 0.70129 0.48137 0.59729 0.0
C467 C 0.74491 0.5555 0.62274 0.0
C468 C 0.77908 0.57397 0.64478 0.0
C469 C 0.73387 0.50041 0.61977 0.0
C470 C 0.80119 0.53681 0.66415 0.0
C471 C 0.78967 0.48226 0.66167 0.0
H472 H 0.14583 0.27022 0.89809 0.0
H473 H 0.11659 0.16042 0.82829 0.0
H474 H 1.02025 0.17903 0.83048 0.0
H475 H 0.94379 0.22803 0.85187 0.0
H476 H 0.97459 0.34009 0.92024 0.0
H477 H 0.07029 0.31921 0.91906 0.0
C478 C 0.11836 0.25019 0.88344 0.0
C479 C 0.13843 0.214 0.8631 0.0
C480 C 0.0631 0.26169 0.8845 0.0
C481 C 0.10228 0.18871 0.8441 0.0
C482 C 0.0471 0.19923 0.84535 0.0
C483 C 0.97166 0.24759 0.86647 0.0
C484 C 0.95233 0.28583 0.88591 0.0
C485 C 0.02701 0.23585 0.86539 0.0
C486 C 0.98868 0.31119 0.90474 0.0
C487 C 0.04339 0.29906 0.90418 0.0
H488 H 0.42234 0.59081 0.12358 0.0
H489 H 0.2712 0.6564 0.0945 0.0
H490 H 0.22839 0.56894 0.0996 0.0
H491 H 0.23379 0.47355 0.11197 0.0
H492 H 0.38472 0.40828 0.1415 0.0
H493 H 0.42764 0.49538 0.13594 0.0
C494 C 0.37997 0.5861 0.11849 0.0
C495 C 0.3501 0.63034 0.10879 0.0
C496 C 0.35556 0.53547 0.12123 0.0
C497 C 0.29528 0.62321 0.10207 0.0
C498 C 0.2707 0.5731 0.10492 0.0
C499 C 0.27597 0.47835 0.11735 0.0
C500 C 0.30574 0.43404 0.12711 0.0
C501 C 0.30045 0.52891 0.11444 0.0
C502 C 0.36073 0.44113 0.13352 0.0
C503 C 0.38535 0.49122 0.1306 0.0
H504 H 0.89865 0.79403 0.4021 0.0
H505 H 0.93026 0.87571 0.32223 0.0
H506 H 0.02604 0.85584 0.32685 0.0
H507 H 0.10163 0.81303 0.35318 0.0
H508 H 0.06863 0.72786 0.43165 0.0
H509 H 0.97345 0.75138 0.42815 0.0
C510 C 0.92645 0.80762 0.38572 0.0
C511 C 0.90688 0.83634 0.36183 0.0
C512 C 0.98165 0.79539 0.38831 0.0
C513 C 0.94379 0.85328 0.34078 0.0
C514 C 0.99881 0.84206 0.34344 0.0
C515 C 0.07352 0.80021 0.36957 0.0
C516 C 0.09217 0.76878 0.39263 0.0
C517 C 1.01831 0.81295 0.36706 0.0
C518 C 0.05521 0.75176 0.4136 0.0
C519 C 1.00076 0.76525 0.41162 0.0
H520 H 0.83891 0.05905 0.22934 0.0
H521 H 0.9465 1.00263 0.29513 0.0
H522 H 1.01936 0.05865 0.27554 0.0
H523 H 0.04729 0.13428 0.24365 0.0
H524 H 0.93618 0.19197 0.1798 0.0
H525 H 0.86974 0.12474 0.19418 0.0
C526 C 0.87872 0.05836 0.23895 0.0
C527 C 0.88751 0.02756 0.2637 0.0
C528 C 0.91942 0.09132 0.22799 0.0
C529 C 0.93916 0.02611 0.27597 0.0
C530 C 0.98049 0.05848 0.26492 0.0
C531 C 1.00899 0.13083 0.23258 0.0
C532 C 0.996 0.1677 0.21085 0.0
C533 C 0.97047 0.09278 0.24155 0.0
C534 C 0.94636 0.16377 0.19663 0.0
C535 C 0.90852 0.12559 0.2049 0.0
H536 H 0.51642 0.41926 0.54328 0.0
H537 H 0.49077 0.28432 0.48753 0.0
H538 H 0.43793 0.33969 0.45462 0.0
H539 H 0.38983 0.42268 0.44518 0.0
H540 H 0.40856 0.55725 0.50194 0.0
H541 H 0.47438 0.50695 0.53075 0.0
C542 C 0.50014 0.40279 0.52354 0.0
C543 C 0.50704 0.3481 0.51758 0.0
C544 C 0.46837 0.43469 0.50519 0.0
C545 C 0.48558 0.3264 0.49227 0.0
C546 C 0.45537 0.35795 0.47361 0.0
C547 C 0.40888 0.44115 0.46368 0.0
C548 C 0.39391 0.49309 0.47178 0.0
C549 C 0.44503 0.41154 0.48037 0.0
C550 C 0.41958 0.51724 0.49537 0.0
C551 C 0.45676 0.48829 0.51193 0.0
H552 H 0.05497 0.94838 0.69678 0.0
H553 H 0.03114 0.823 0.75887 0.0
H554 H 0.08746 0.87158 0.79371 0.0
H555 H 0.15143 0.94543 0.8041 0.0
H556 H 0.17244 0.07198 0.74222 0.0
H557 H 0.10893 0.02782 0.70956 0.0
C558 C 0.06141 0.93247 0.71819 0.0
C559 C 0.03957 0.88231 0.72539 0.0
C560 C 0.0937 0.96056 0.73785 0.0
C561 C 0.04748 0.86179 0.75312 0.0
C562 C 0.08001 0.88929 0.77283 0.0
C563 C 0.1415 0.96338 0.78356 0.0
C564 C 0.16689 1.01138 0.77529 0.0
C565 C 0.10461 0.93795 0.76509 0.0
C566 C 0.15326 0.03506 0.74893 0.0
C567 C 0.11721 1.00971 0.73026 0.0
H568 H 0.64312 0.51678 0.01594 0.0
H569 H 0.62755 0.56356 0.92747 0.0
H570 H 0.55831 0.62906 0.94027 0.0
H571 H 0.51194 0.68106 0.97798 0.0
H572 H 0.52385 0.63087 0.06614 0.0
H573 H 0.58432 0.55792 0.05248 0.0
C574 C 0.62309 0.54029 -0.00048 0.0
C575 C 0.63983 0.53586 0.9709 0.0
C576 C 0.58344 0.57747 0.00713 0.0
C577 C 0.61443 0.56636 0.94957 0.0
C578 C 0.57543 0.60401 0.95695 0.0
C579 C 0.52703 0.65324 0.99394 0.0
C580 C 0.51435 0.66115 0.02296 0.0
C581 C 0.56104 0.61119 0.98581 0.0
C582 C 0.53336 0.62505 0.04369 0.0
C583 C 0.56804 0.58371 0.03589 0.0
loop_
_geom_bond_atom_site_label_1
_geom_bond_atom_site_label_2
_geom_bond_distance
_geom_bond_site_symmetry_2
_ccdc_geom_bond_type
Co0 N4 2.148 . S
Co0 N10 2.128 . S
Co0 N20 2.194 . S
Co0 O25 2.351 . S
Co0 O26 2.155 . S
Co0 O27 2.096 . S
C1 N4 1.301 . S
C1 N5 1.328 . S
C1 H6 0.930 . S
C2 C3 1.333 . S
C2 N4 1.317 . S
C2 H7 0.930 . S
C3 C2 1.333 . S
C3 N5 1.350 . S
C3 H29 0.931 . S
N4 Co0 2.148 . S
N4 C1 1.301 . S
N4 C2 1.317 . S
N5 C1 1.328 . S
N5 C3 1.350 . S
H6 C1 0.930 . S
H7 C2 0.930 . S
C8 O9 1.224 . S
C8 O27 1.247 . S
O9 C8 1.224 . S
N10 Co0 2.128 . S
N10 C11 1.355 . S
N10 C13 1.311 . S
C11 N10 1.355 . S
C11 C12 1.363 1_455 S
C11 H23 0.929 1_455 S
C12 C11 1.363 1_655 S
C12 N14 1.375 1_655 S
C12 H30 0.931 . S
C13 N10 1.311 . S
C13 N14 1.347 . S
C13 H24 0.929 . S
N14 C12 1.375 1_455 S
N14 C13 1.347 . S
C15 C18 1.365 1_455 S
C15 N20 1.328 . S
C15 H21 0.929 . S
C16 C17 1.362 1_455 S
C16 C19 1.378 . S
C16 H31 0.929 . S
C17 C16 1.362 1_655 S
C17 C18 1.366 . S
C18 C15 1.365 1_655 S
C18 C17 1.366 . S
C18 H32 0.930 . S
C19 C16 1.378 . S
C19 N20 1.315 . S
C19 H22 0.930 . S
N20 Co0 2.194 . S
N20 C15 1.328 . S
N20 C19 1.315 . S
H21 C15 0.929 . S
H22 C19 0.930 . S
H23 C11 0.929 1_655 S
H24 C13 0.929 . S
O25 Co0 2.351 . S
O25 C28 1.244 . S
O26 Co0 2.155 . S
O26 C28 1.240 . S
O27 Co0 2.096 . S
O27 C8 1.247 . S
C28 O25 1.244 . S
C28 O26 1.240 . S
H29 C3 0.931 . S
H30 C12 0.931 . S
H31 C16 0.929 . S
H32 C18 0.930 . S
Co33 N37 2.148 . S
Co33 N43 2.128 . S
Co33 N53 2.194 . S
Co33 O58 2.351 . S
Co33 O59 2.155 . S
Co33 O60 2.096 . S
C34 N37 1.301 . S
C34 N38 1.328 . S
C34 H39 0.930 . S
C35 C36 1.333 . S
C35 N37 1.317 . S
C35 H40 0.930 . S
C36 C35 1.333 . S
C36 N38 1.350 . S
C36 H62 0.931 . S
N37 Co33 2.148 . S
N37 C34 1.301 . S
N37 C35 1.317 . S
N38 C34 1.328 . S
N38 C36 1.350 . S
H39 C34 0.930 . S
H40 C35 0.930 . S
C41 O42 1.224 . S
C41 O60 1.247 . S
O42 C41 1.224 . S
N43 Co33 2.128 . S
N43 C44 1.355 . S
N43 C46 1.311 . S
C44 N43 1.355 . S
C44 C45 1.363 . S
C44 H56 0.929 . S
C45 C44 1.363 . S
C45 N47 1.375 . S
C45 H63 0.931 . S
C46 N43 1.311 . S
C46 N47 1.347 . S
C46 H57 0.929 . S
N47 C45 1.375 . S
N47 C46 1.347 . S
C48 C51 1.365 . S
C48 N53 1.328 . S
C48 H54 0.929 . S
C49 C50 1.362 . S
C49 C52 1.378 . S
C49 H64 0.929 . S
C50 C49 1.362 . S
C50 C51 1.366 . S
C51 C48 1.365 . S
C51 C50 1.366 . S
C51 H65 0.930 . S
C52 C49 1.378 . S
C52 N53 1.315 . S
C52 H55 0.930 . S
N53 Co33 2.194 . S
N53 C48 1.328 . S
N53 C52 1.315 . S
H54 C48 0.929 . S
H55 C52 0.930 . S
H56 C44 0.929 . S
H57 C46 0.929 . S
O58 Co33 2.351 . S
O58 C61 1.244 . S
O59 Co33 2.155 . S
O59 C61 1.240 . S
O60 Co33 2.096 . S
O60 C41 1.247 . S
C61 O58 1.244 . S
C61 O59 1.240 . S
H62 C36 0.931 . S
H63 C45 0.931 . S
H64 C49 0.929 . S
H65 C51 0.930 . S
Co66 N70 2.148 . S
Co66 N76 2.128 . S
Co66 N86 2.194 . S
Co66 O91 2.351 . S
Co66 O92 2.155 . S
Co66 O93 2.096 . S
C67 N70 1.301 . S
C67 N71 1.328 . S
C67 H72 0.930 . S
C68 C69 1.333 . S
C68 N70 1.317 . S
C68 H73 0.930 . S
C69 C68 1.333 . S
C69 N71 1.350 . S
C69 H95 0.931 . S
N70 Co66 2.148 . S
N70 C67 1.301 . S
N70 C68 1.317 . S
N71 C67 1.328 . S
N71 C69 1.350 . S
H72 C67 0.930 . S
H73 C68 0.930 . S
C74 O75 1.224 . S
C74 O93 1.247 . S
O75 C74 1.224 . S
N76 Co66 2.128 . S
N76 C77 1.355 . S
N76 C79 1.311 . S
C77 N76 1.355 . S
C77 C78 1.363 1_655 S
C77 H89 0.929 1_655 S
C78 C77 1.363 1_455 S
C78 N80 1.375 1_455 S
C78 H96 0.931 . S
C79 N76 1.311 . S
C79 N80 1.347 . S
C79 H90 0.929 . S
N80 C78 1.375 1_655 S
N80 C79 1.347 . S
C81 C84 1.365 1_655 S
C81 N86 1.328 . S
C81 H87 0.929 . S
C82 C83 1.362 1_655 S
C82 C85 1.378 . S
C82 H97 0.929 . S
C83 C82 1.362 1_455 S
C83 C84 1.366 . S
C84 C81 1.365 1_455 S
C84 C83 1.366 . S
C84 H98 0.930 . S
C85 C82 1.378 . S
C85 N86 1.315 . S
C85 H88 0.930 . S
N86 Co66 2.194 . S
N86 C81 1.328 . S
N86 C85 1.315 . S
H87 C81 0.929 . S
H88 C85 0.930 . S
H89 C77 0.929 1_455 S
H90 C79 0.929 . S
O91 Co66 2.351 . S
O91 C94 1.244 . S
O92 Co66 2.155 . S
O92 C94 1.240 . S
O93 Co66 2.096 . S
O93 C74 1.247 . S
C94 O91 1.244 . S
C94 O92 1.240 . S
H95 C69 0.931 . S
H96 C78 0.931 . S
H97 C82 0.929 . S
H98 C84 0.930 . S
Co99 N103 2.148 . S
Co99 N109 2.128 . S
Co99 N119 2.194 . S
Co99 O124 2.351 . S
Co99 O125 2.155 . S
Co99 O126 2.096 . S
C100 N103 1.301 . S
C100 N104 1.328 . S
C100 H105 0.930 . S
C101 C102 1.333 . S
C101 N103 1.317 . S
C101 H106 0.930 . S
C102 C101 1.333 . S
C102 N104 1.350 . S
C102 H128 0.931 . S
N103 Co99 2.148 . S
N103 C100 1.301 . S
N103 C101 1.317 . S
N104 C100 1.328 . S
N104 C102 1.350 . S
H105 C100 0.930 . S
H106 C101 0.930 . S
C107 O108 1.224 . S
C107 O126 1.247 . S
O108 C107 1.224 . S
N109 Co99 2.128 . S
N109 C110 1.355 . S
N109 C112 1.311 . S
C110 N109 1.355 . S
C110 C111 1.363 . S
C110 H122 0.929 . S
C111 C110 1.363 . S
C111 N113 1.375 . S
C111 H129 0.931 . S
C112 N109 1.311 . S
C112 N113 1.347 . S
C112 H123 0.929 . S
N113 C111 1.375 . S
N113 C112 1.347 . S
C114 C117 1.365 . S
C114 N119 1.328 . S
C114 H120 0.929 . S
C115 C116 1.362 . S
C115 C118 1.378 . S
C115 H130 0.929 . S
C116 C115 1.362 . S
C116 C117 1.366 . S
C117 C114 1.365 . S
C117 C116 1.366 . S
C117 H131 0.930 . S
C118 C115 1.378 . S
C118 N119 1.315 . S
C118 H121 0.930 . S
N119 Co99 2.194 . S
N119 C114 1.328 . S
N119 C118 1.315 . S
H120 C114 0.929 . S
H121 C118 0.930 . S
H122 C110 0.929 . S
H123 C112 0.929 . S
O124 Co99 2.351 . S
O124 C127 1.244 . S
O125 Co99 2.155 . S
O125 C127 1.240 . S
O126 Co99 2.096 . S
O126 C107 1.247 . S
C127 O124 1.244 . S
C127 O125 1.240 . S
H128 C102 0.931 . S
H129 C111 0.931 . S
H130 C115 0.929 . S
H131 C117 0.930 . S
Co132 N136 2.148 . S
Co132 N142 2.128 . S
Co132 N152 2.194 . S
Co132 O157 2.351 . S
Co132 O158 2.155 . S
Co132 O159 2.096 . S
C133 N136 1.301 . S
C133 N137 1.328 . S
C133 H138 0.930 . S
C134 C135 1.333 . S
C134 N136 1.317 . S
C134 H139 0.930 . S
C135 C134 1.333 . S
C135 N137 1.350 . S
C135 H161 0.931 . S
N136 Co132 2.148 . S
N136 C133 1.301 . S
N136 C134 1.317 . S
N137 C133 1.328 . S
N137 C135 1.350 . S
H138 C133 0.930 . S
H139 C134 0.930 . S
C140 O141 1.224 . S
C140 O159 1.247 . S
O141 C140 1.224 . S
N142 Co132 2.128 . S
N142 C143 1.355 . S
N142 C145 1.311 . S
C143 N142 1.355 . S
C143 C144 1.363 . S
C143 H155 0.929 . S
C144 C143 1.363 . S
C144 N146 1.375 . S
C144 H162 0.931 . S
C145 N142 1.311 . S
C145 N146 1.347 . S
C145 H156 0.929 . S
N146 C144 1.375 . S
N146 C145 1.347 . S
C147 C150 1.365 . S
C147 N152 1.328 . S
C147 H153 0.929 . S
C148 C149 1.362 . S
C148 C151 1.378 . S
C148 H163 0.929 . S
C149 C148 1.362 . S
C149 C150 1.366 . S
C150 C147 1.365 . S
C150 C149 1.366 . S
C150 H164 0.930 . S
C151 C148 1.378 . S
C151 N152 1.315 . S
C151 H154 0.930 . S
N152 Co132 2.194 . S
N152 C147 1.328 . S
N152 C151 1.315 . S
H153 C147 0.929 . S
H154 C151 0.930 . S
H155 C143 0.929 . S
H156 C145 0.929 . S
O157 Co132 2.351 . S
O157 C160 1.244 . S
O158 Co132 2.155 . S
O158 C160 1.240 . S
O159 Co132 2.096 . S
O159 C140 1.247 . S
C160 O157 1.244 . S
C160 O158 1.240 . S
H161 C135 0.931 . S
H162 C144 0.931 . S
H163 C148 0.929 . S
H164 C150 0.930 . S
Co165 N169 2.148 . S
Co165 N175 2.128 . S
Co165 N185 2.194 . S
Co165 O190 2.351 . S
Co165 O191 2.155 . S
Co165 O192 2.096 . S
C166 N169 1.301 . S
C166 N170 1.328 . S
C166 H171 0.930 . S
C167 C168 1.333 . S
C167 N169 1.317 . S
C167 H172 0.930 . S
C168 C167 1.333 . S
C168 N170 1.350 . S
C168 H194 0.931 . S
N169 Co165 2.148 . S
N169 C166 1.301 . S
N169 C167 1.317 . S
N170 C166 1.328 . S
N170 C168 1.350 . S
H171 C166 0.930 . S
H172 C167 0.930 . S
C173 O174 1.224 . S
C173 O192 1.247 . S
O174 C173 1.224 . S
N175 Co165 2.128 . S
N175 C176 1.355 . S
N175 C178 1.311 . S
C176 N175 1.355 . S
C176 C177 1.363 1_545 S
C176 H188 0.929 1_545 S
C177 C176 1.363 1_565 S
C177 N179 1.375 1_565 S
C177 H195 0.931 . S
C178 N175 1.311 . S
C178 N179 1.347 . S
C178 H189 0.929 . S
N179 C177 1.375 1_545 S
N179 C178 1.347 . S
C180 C183 1.365 1_545 S
C180 N185 1.328 . S
C180 H186 0.929 . S
C181 C182 1.362 1_545 S
C181 C184 1.378 . S
C181 H196 0.929 . S
C182 C181 1.362 1_565 S
C182 C183 1.366 . S
C183 C180 1.365 1_565 S
C183 C182 1.366 . S
C183 H197 0.930 . S
C184 C181 1.378 . S
C184 N185 1.315 . S
C184 H187 0.930 . S
N185 Co165 2.194 . S
N185 C180 1.328 . S
N185 C184 1.315 . S
H186 C180 0.929 . S
H187 C184 0.930 . S
H188 C176 0.929 1_565 S
H189 C178 0.929 . S
O190 Co165 2.351 . S
O190 C193 1.244 . S
O191 Co165 2.155 . S
O191 C193 1.240 . S
O192 Co165 2.096 . S
O192 C173 1.247 . S
C193 O190 1.244 . S
C193 O191 1.240 . S
H194 C168 0.931 . S
H195 C177 0.931 . S
H196 C181 0.929 . S
H197 C183 0.930 . S
Co198 N202 2.148 . S
Co198 N208 2.128 . S
Co198 N218 2.194 . S
Co198 O223 2.351 . S
Co198 O224 2.155 . S
Co198 O225 2.096 . S
C199 N202 1.301 . S
C199 N203 1.328 . S
C199 H204 0.930 . S
C200 C201 1.333 . S
C200 N202 1.317 . S
C200 H205 0.930 . S
C201 C200 1.333 . S
C201 N203 1.350 . S
C201 H227 0.931 . S
N202 Co198 2.148 . S
N202 C199 1.301 . S
N202 C200 1.317 . S
N203 C199 1.328 . S
N203 C201 1.350 . S
H204 C199 0.930 . S
H205 C200 0.930 . S
C206 O207 1.224 . S
C206 O225 1.247 . S
O207 C206 1.224 . S
N208 Co198 2.128 . S
N208 C209 1.355 . S
N208 C211 1.311 . S
C209 N208 1.355 . S
C209 C210 1.363 . S
C209 H221 0.929 . S
C210 C209 1.363 . S
C210 N212 1.375 . S
C210 H228 0.931 . S
C211 N208 1.311 . S
C211 N212 1.347 . S
C211 H222 0.929 . S
N212 C210 1.375 . S
N212 C211 1.347 . S
C213 C216 1.365 . S
C213 N218 1.328 . S
C213 H219 0.929 . S
C214 C215 1.362 . S
C214 C217 1.378 . S
C214 H229 0.929 . S
C215 C214 1.362 . S
C215 C216 1.366 . S
C216 C213 1.365 . S
C216 C215 1.366 . S
C216 H230 0.930 . S
C217 C214 1.378 . S
C217 N218 1.315 . S
C217 H220 0.930 . S
N218 Co198 2.194 . S
N218 C213 1.328 . S
N218 C217 1.315 . S
H219 C213 0.929 . S
H220 C217 0.930 . S
H221 C209 0.929 . S
H222 C211 0.929 . S
O223 Co198 2.351 . S
O223 C226 1.244 . S
O224 Co198 2.155 . S
O224 C226 1.240 . S
O225 Co198 2.096 . S
O225 C206 1.247 . S
C226 O223 1.244 . S
C226 O224 1.240 . S
H227 C201 0.931 . S
H228 C210 0.931 . S
H229 C214 0.929 . S
H230 C216 0.930 . S
Co231 N235 2.148 . S
Co231 N241 2.128 . S
Co231 N251 2.194 . S
Co231 O256 2.351 . S
Co231 O257 2.155 . S
Co231 O258 2.096 . S
C232 N235 1.301 . S
C232 N236 1.328 . S
C232 H237 0.930 . S
C233 C234 1.333 . S
C233 N235 1.317 . S
C233 H238 0.930 . S
C234 C233 1.333 . S
C234 N236 1.350 . S
C234 H260 0.931 . S
N235 Co231 2.148 . S
N235 C232 1.301 . S
N235 C233 1.317 . S
N236 C232 1.328 . S
N236 C234 1.350 . S
H237 C232 0.930 . S
H238 C233 0.930 . S
C239 O240 1.224 . S
C239 O258 1.247 . S
O240 C239 1.224 . S
N241 Co231 2.128 . S
N241 C242 1.355 . S
N241 C244 1.311 . S
C242 N241 1.355 . S
C242 C243 1.363 1_565 S
C242 H254 0.929 1_565 S
C243 C242 1.363 1_545 S
C243 N245 1.375 1_545 S
C243 H261 0.931 . S
C244 N241 1.311 . S
C244 N245 1.347 . S
C244 H255 0.929 . S
N245 C243 1.375 1_565 S
N245 C244 1.347 . S
C246 C249 1.365 1_565 S
C246 N251 1.328 . S
C246 H252 0.929 . S
C247 C248 1.362 1_565 S
C247 C250 1.378 . S
C247 H262 0.929 . S
C248 C247 1.362 1_545 S
C248 C249 1.366 . S
C249 C246 1.365 1_545 S
C249 C248 1.366 . S
C249 H263 0.930 . S
C250 C247 1.378 . S
C250 N251 1.315 . S
C250 H253 0.930 . S
N251 Co231 2.194 . S
N251 C246 1.328 . S
N251 C250 1.315 . S
H252 C246 0.929 . S
H253 C250 0.930 . S
H254 C242 0.929 1_545 S
H255 C244 0.929 . S
O256 Co231 2.351 . S
O256 C259 1.244 . S
O257 Co231 2.155 . S
O257 C259 1.240 . S
O258 Co231 2.096 . S
O258 C239 1.247 . S
C259 O256 1.244 . S
C259 O257 1.240 . S
H260 C234 0.931 . S
H261 C243 0.931 . S
H262 C247 0.929 . S
H263 C249 0.930 . S
H264 C270 0.930 . S
H265 C273 0.930 . S
H266 C274 0.930 . S
H267 C275 0.930 . S
H268 C278 0.930 . S
H269 C279 0.930 . S
C270 H264 0.930 . S
C270 C271 1.355 . S
C270 C272 1.415 . S
C271 C270 1.355 . S
C271 C273 1.419 . S
C272 C270 1.415 . S
C272 C277 1.425 . S
C272 C279 1.409 . S
C273 H265 0.930 . S
C273 C271 1.419 . S
C273 C274 1.362 . S
C274 H266 0.930 . S
C274 C273 1.362 . S
C274 C277 1.409 . S
C275 H267 0.930 . S
C275 C276 1.355 . S
C275 C277 1.415 . S
C276 C275 1.355 . S
C276 C278 1.419 . S
C277 C272 1.425 . S
C277 C274 1.409 . S
C277 C275 1.415 . S
C278 H268 0.930 . S
C278 C276 1.419 . S
C278 C279 1.362 . S
C279 H269 0.930 . S
C279 C272 1.409 . S
C279 C278 1.362 . S
H280 C286 0.930 . S
H281 C289 0.930 1_655 S
H282 C290 0.930 . S
H283 C291 0.930 . S
H284 C294 0.930 . S
H285 C295 0.930 . S
C286 H280 0.930 . S
C286 C287 1.355 . S
C286 C288 1.415 . S
C287 C286 1.355 . S
C287 C289 1.419 . S
C288 C286 1.415 . S
C288 C293 1.425 . S
C288 C295 1.409 . S
C289 H281 0.930 1_455 S
C289 C287 1.419 . S
C289 C290 1.362 . S
C290 H282 0.930 . S
C290 C289 1.362 . S
C290 C293 1.409 . S
C291 H283 0.930 . S
C291 C292 1.355 . S
C291 C293 1.415 . S
C292 C291 1.355 . S
C292 C294 1.419 . S
C293 C288 1.425 . S
C293 C290 1.409 . S
C293 C291 1.415 . S
C294 H284 0.930 . S
C294 C292 1.419 . S
C294 C295 1.362 . S
C295 H285 0.930 . S
C295 C288 1.409 . S
C295 C294 1.362 . S
H296 C302 0.930 . S
H297 C305 0.930 . S
H298 C306 0.930 . S
H299 C307 0.930 . S
H300 C310 0.930 . S
H301 C311 0.930 . S
C302 H296 0.930 . S
C302 C303 1.355 . S
C302 C304 1.415 . S
C303 C302 1.355 . S
C303 C305 1.419 . S
C304 C302 1.415 . S
C304 C309 1.425 . S
C304 C311 1.409 . S
C305 H297 0.930 . S
C305 C303 1.419 . S
C305 C306 1.362 . S
C306 H298 0.930 . S
C306 C305 1.362 . S
C306 C309 1.409 . S
C307 H299 0.930 . S
C307 C308 1.355 . S
C307 C309 1.415 . S
C308 C307 1.355 . S
C308 C310 1.419 . S
C309 C304 1.425 . S
C309 C306 1.409 . S
C309 C307 1.415 . S
C310 H300 0.930 . S
C310 C308 1.419 . S
C310 C311 1.362 . S
C311 H301 0.930 . S
C311 C304 1.409 . S
C311 C310 1.362 . S
H312 C318 0.930 . S
H313 C321 0.930 . S
H314 C322 0.930 . S
H315 C323 0.930 . S
H316 C326 0.930 1_455 S
H317 C327 0.930 1_455 S
C318 H312 0.930 . S
C318 C319 1.355 . S
C318 C320 1.415 1_556 S
C319 C318 1.355 . S
C319 C321 1.419 1_556 S
C320 C318 1.415 1_554 S
C320 C325 1.425 . S
C320 C327 1.409 . S
C321 H313 0.930 . S
C321 C319 1.419 1_554 S
C321 C322 1.362 . S
C322 H314 0.930 . S
C322 C321 1.362 . S
C322 C325 1.409 . S
C323 H315 0.930 . S
C323 C324 1.355 . S
C323 C325 1.415 . S
C324 C323 1.355 . S
C324 C326 1.419 . S
C325 C320 1.425 . S
C325 C322 1.409 . S
C325 C323 1.415 . S
C326 H316 0.930 1_655 S
C326 C324 1.419 . S
C326 C327 1.362 . S
C327 H317 0.930 1_655 S
C327 C320 1.409 . S
C327 C326 1.362 . S
H328 C334 0.930 . S
H329 C337 0.930 . S
H330 C338 0.930 . S
H331 C339 0.930 . S
H332 C342 0.930 . S
H333 C343 0.930 . S
C334 H328 0.930 . S
C334 C335 1.355 . S
C334 C336 1.415 . S
C335 C334 1.355 . S
C335 C337 1.419 . S
C336 C334 1.415 . S
C336 C341 1.425 . S
C336 C343 1.409 . S
C337 H329 0.930 . S
C337 C335 1.419 . S
C337 C338 1.362 . S
C338 H330 0.930 . S
C338 C337 1.362 . S
C338 C341 1.409 . S
C339 H331 0.930 . S
C339 C340 1.355 . S
C339 C341 1.415 . S
C340 C339 1.355 . S
C340 C342 1.419 . S
C341 C336 1.425 . S
C341 C338 1.409 . S
C341 C339 1.415 . S
C342 H332 0.930 . S
C342 C340 1.419 . S
C342 C343 1.362 . S
C343 H333 0.930 . S
C343 C336 1.409 . S
C343 C342 1.362 . S
H344 C350 0.930 . S
H345 C353 0.930 . S
H346 C354 0.930 . S
H347 C355 0.930 . S
H348 C358 0.930 . S
H349 C359 0.930 . S
C350 H344 0.930 . S
C350 C351 1.355 . S
C350 C352 1.415 . S
C351 C350 1.355 . S
C351 C353 1.419 . S
C352 C350 1.415 . S
C352 C357 1.425 . S
C352 C359 1.409 . S
C353 H345 0.930 . S
C353 C351 1.419 . S
C353 C354 1.362 . S
C354 H346 0.930 . S
C354 C353 1.362 . S
C354 C357 1.409 . S
C355 H347 0.930 . S
C355 C356 1.355 . S
C355 C357 1.415 . S
C356 C355 1.355 . S
C356 C358 1.419 . S
C357 C352 1.425 . S
C357 C354 1.409 . S
C357 C355 1.415 . S
C358 H348 0.930 . S
C358 C356 1.419 . S
C358 C359 1.362 . S
C359 H349 0.930 . S
C359 C352 1.409 . S
C359 C358 1.362 . S
H360 C366 0.930 . S
H361 C369 0.930 . S
H362 C370 0.930 . S
H363 C371 0.930 . S
H364 C374 0.930 1_545 S
H365 C375 0.930 . S
C366 H360 0.930 . S
C366 C367 1.355 . S
C366 C368 1.415 1_554 S
C367 C366 1.355 . S
C367 C369 1.419 1_554 S
C368 C366 1.415 1_556 S
C368 C373 1.425 . S
C368 C375 1.409 . S
C369 H361 0.930 . S
C369 C367 1.419 1_556 S
C369 C370 1.362 . S
C370 H362 0.930 . S
C370 C369 1.362 . S
C370 C373 1.409 . S
C371 H363 0.930 . S
C371 C372 1.355 . S
C371 C373 1.415 . S
C372 C371 1.355 . S
C372 C374 1.419 . S
C373 C368 1.425 . S
C373 C370 1.409 . S
C373 C371 1.415 . S
C374 H364 0.930 1_565 S
C374 C372 1.419 . S
C374 C375 1.362 . S
C375 H365 0.930 . S
C375 C368 1.409 . S
C375 C374 1.362 . S
H376 C382 0.930 . S
H377 C385 0.930 . S
H378 C386 0.930 . S
H379 C387 0.930 . S
H380 C390 0.930 . S
H381 C391 0.930 . S
C382 H376 0.930 . S
C382 C383 1.355 . S
C382 C384 1.415 . S
C383 C382 1.355 . S
C383 C385 1.419 . S
C384 C382 1.415 . S
C384 C389 1.425 . S
C384 C391 1.409 . S
C385 H377 0.930 . S
C385 C383 1.419 . S
C385 C386 1.362 . S
C386 H378 0.930 . S
C386 C385 1.362 . S
C386 C389 1.409 . S
C387 H379 0.930 . S
C387 C388 1.355 . S
C387 C389 1.415 . S
C388 C387 1.355 . S
C388 C390 1.419 . S
C389 C384 1.425 . S
C389 C386 1.409 . S
C389 C387 1.415 . S
C390 H380 0.930 . S
C390 C388 1.419 . S
C390 C391 1.362 . S
C391 H381 0.930 . S
C391 C384 1.409 . S
C391 C390 1.362 . S
H392 C398 0.930 . S
H393 C401 0.930 . S
H394 C402 0.930 . S
H395 C403 0.930 . S
H396 C406 0.930 . S
H397 C407 0.930 . S
C398 H392 0.930 . S
C398 C399 1.355 . S
C398 C400 1.415 1_565 S
C399 C398 1.355 . S
C399 C401 1.419 . S
C400 C398 1.415 1_545 S
C400 C405 1.425 . S
C400 C407 1.409 . S
C401 H393 0.930 . S
C401 C399 1.419 . S
C401 C402 1.362 1_565 S
C402 H394 0.930 . S
C402 C401 1.362 1_545 S
C402 C405 1.409 . S
C403 H395 0.930 . S
C403 C404 1.355 . S
C403 C405 1.415 . S
C404 C403 1.355 . S
C404 C406 1.419 . S
C405 C400 1.425 . S
C405 C402 1.409 . S
C405 C403 1.415 . S
C406 H396 0.930 . S
C406 C404 1.419 . S
C406 C407 1.362 . S
C407 H397 0.930 . S
C407 C400 1.409 . S
C407 C406 1.362 . S
H408 C414 0.930 . S
H409 C417 0.930 . S
H410 C418 0.930 . S
H411 C419 0.930 . S
H412 C422 0.930 . S
H413 C423 0.930 . S
C414 H408 0.930 . S
C414 C415 1.355 . S
C414 C416 1.415 . S
C415 C414 1.355 . S
C415 C417 1.419 . S
C416 C414 1.415 . S
C416 C421 1.425 . S
C416 C423 1.409 . S
C417 H409 0.930 . S
C417 C415 1.419 . S
C417 C418 1.362 . S
C418 H410 0.930 . S
C418 C417 1.362 . S
C418 C421 1.409 . S
C419 H411 0.930 . S
C419 C420 1.355 . S
C419 C421 1.415 . S
C420 C419 1.355 . S
C420 C422 1.419 . S
C421 C416 1.425 . S
C421 C418 1.409 . S
C421 C419 1.415 . S
C422 H412 0.930 . S
C422 C420 1.419 . S
C422 C423 1.362 . S
C423 H413 0.930 . S
C423 C416 1.409 . S
C423 C422 1.362 . S
H424 C430 0.930 . S
H425 C433 0.930 . S
H426 C434 0.930 . S
H427 C435 0.930 . S
H428 C438 0.930 . S
H429 C439 0.930 . S
C430 H424 0.930 . S
C430 C431 1.355 . S
C430 C432 1.415 1_545 S
C431 C430 1.355 . S
C431 C433 1.419 . S
C432 C430 1.415 1_565 S
C432 C437 1.425 . S
C432 C439 1.409 . S
C433 H425 0.930 . S
C433 C431 1.419 . S
C433 C434 1.362 . S
C434 H426 0.930 . S
C434 C433 1.362 . S
C434 C437 1.409 1_545 S
C435 H427 0.930 . S
C435 C436 1.355 . S
C435 C437 1.415 . S
C436 C435 1.355 . S
C436 C438 1.419 . S
C437 C432 1.425 . S
C437 C434 1.409 1_565 S
C437 C435 1.415 . S
C438 H428 0.930 . S
C438 C436 1.419 . S
C438 C439 1.362 . S
C439 H429 0.930 . S
C439 C432 1.409 . S
C439 C438 1.362 . S
H440 C446 0.930 . S
H441 C449 0.930 . S
H442 C450 0.930 . S
H443 C451 0.930 . S
H444 C454 0.930 . S
H445 C455 0.930 . S
C446 H440 0.930 . S
C446 C447 1.355 . S
C446 C448 1.415 . S
C447 C446 1.355 . S
C447 C449 1.419 . S
C448 C446 1.415 . S
C448 C453 1.425 . S
C448 C455 1.409 . S
C449 H441 0.930 . S
C449 C447 1.419 . S
C449 C450 1.362 . S
C450 H442 0.930 . S
C450 C449 1.362 . S
C450 C453 1.409 . S
C451 H443 0.930 . S
C451 C452 1.355 . S
C451 C453 1.415 . S
C452 C451 1.355 . S
C452 C454 1.419 . S
C453 C448 1.425 . S
C453 C450 1.409 . S
C453 C451 1.415 . S
C454 H444 0.930 . S
C454 C452 1.419 . S
C454 C455 1.362 . S
C455 H445 0.930 . S
C455 C448 1.409 . S
C455 C454 1.362 . S
H456 C462 0.930 . S
H457 C465 0.930 . S
H458 C466 0.930 . S
H459 C467 0.930 . S
H460 C470 0.930 . S
H461 C471 0.930 . S
C462 H456 0.930 . S
C462 C463 1.355 . S
C462 C464 1.415 . S
C463 C462 1.355 . S
C463 C465 1.419 . S
C464 C462 1.415 . S
C464 C469 1.425 . S
C464 C471 1.409 . S
C465 H457 0.930 . S
C465 C463 1.419 . S
C465 C466 1.362 . S
C466 H458 0.930 . S
C466 C465 1.362 . S
C466 C469 1.409 . S
C467 H459 0.930 . S
C467 C468 1.355 . S
C467 C469 1.415 . S
C468 C467 1.355 . S
C468 C470 1.419 . S
C469 C464 1.425 . S
C469 C466 1.409 . S
C469 C467 1.415 . S
C470 H460 0.930 . S
C470 C468 1.419 . S
C470 C471 1.362 . S
C471 H461 0.930 . S
C471 C464 1.409 . S
C471 C470 1.362 . S
H472 C478 0.930 . S
H473 C481 0.930 . S
H474 C482 0.930 . S
H475 C483 0.930 . S
H476 C486 0.930 . S
H477 C487 0.930 . S
C478 H472 0.930 . S
C478 C479 1.355 . S
C478 C480 1.415 . S
C479 C478 1.355 . S
C479 C481 1.419 . S
C480 C478 1.415 . S
C480 C485 1.425 . S
C480 C487 1.409 . S
C481 H473 0.930 . S
C481 C479 1.419 . S
C481 C482 1.362 . S
C482 H474 0.930 . S
C482 C481 1.362 . S
C482 C485 1.409 . S
C483 H475 0.930 . S
C483 C484 1.355 . S
C483 C485 1.415 1_655 S
C484 C483 1.355 . S
C484 C486 1.419 . S
C485 C480 1.425 . S
C485 C482 1.409 . S
C485 C483 1.415 1_455 S
C486 H476 0.930 . S
C486 C484 1.419 . S
C486 C487 1.362 1_655 S
C487 H477 0.930 . S
C487 C480 1.409 . S
C487 C486 1.362 1_455 S
H488 C494 0.930 . S
H489 C497 0.930 . S
H490 C498 0.930 . S
H491 C499 0.930 . S
H492 C502 0.930 . S
H493 C503 0.930 . S
C494 H488 0.930 . S
C494 C495 1.355 . S
C494 C496 1.415 . S
C495 C494 1.355 . S
C495 C497 1.419 . S
C496 C494 1.415 . S
C496 C501 1.425 . S
C496 C503 1.409 . S
C497 H489 0.930 . S
C497 C495 1.419 . S
C497 C498 1.362 . S
C498 H490 0.930 . S
C498 C497 1.362 . S
C498 C501 1.409 . S
C499 H491 0.930 . S
C499 C500 1.355 . S
C499 C501 1.415 . S
C500 C499 1.355 . S
C500 C502 1.419 . S
C501 C496 1.425 . S
C501 C498 1.409 . S
C501 C499 1.415 . S
C502 H492 0.930 . S
C502 C500 1.419 . S
C502 C503 1.362 . S
C503 H493 0.930 . S
C503 C496 1.409 . S
C503 C502 1.362 . S
H504 C510 0.930 . S
H505 C513 0.930 . S
H506 C514 0.930 . S
H507 C515 0.930 . S
H508 C518 0.930 . S
H509 C519 0.930 . S
C510 H504 0.930 . S
C510 C511 1.355 . S
C510 C512 1.415 . S
C511 C510 1.355 . S
C511 C513 1.419 . S
C512 C510 1.415 . S
C512 C517 1.425 . S
C512 C519 1.409 . S
C513 H505 0.930 . S
C513 C511 1.419 . S
C513 C514 1.362 . S
C514 H506 0.930 . S
C514 C513 1.362 . S
C514 C517 1.409 . S
C515 H507 0.930 . S
C515 C516 1.355 . S
C515 C517 1.415 1_455 S
C516 C515 1.355 . S
C516 C518 1.419 . S
C517 C512 1.425 . S
C517 C514 1.409 . S
C517 C515 1.415 1_655 S
C518 H508 0.930 . S
C518 C516 1.419 . S
C518 C519 1.362 1_455 S
C519 H509 0.930 . S
C519 C512 1.409 . S
C519 C518 1.362 1_655 S
H520 C526 0.930 . S
H521 C529 0.930 . S
H522 C530 0.930 . S
H523 C531 0.930 1_455 S
H524 C534 0.930 . S
H525 C535 0.930 . S
C526 H520 0.930 . S
C526 C527 1.355 . S
C526 C528 1.415 . S
C527 C526 1.355 . S
C527 C529 1.419 . S
C528 C526 1.415 . S
C528 C533 1.425 . S
C528 C535 1.409 . S
C529 H521 0.930 . S
C529 C527 1.419 . S
C529 C530 1.362 . S
C530 H522 0.930 . S
C530 C529 1.362 . S
C530 C533 1.409 . S
C531 H523 0.930 1_655 S
C531 C532 1.355 . S
C531 C533 1.415 . S
C532 C531 1.355 . S
C532 C534 1.419 . S
C533 C528 1.425 . S
C533 C530 1.409 . S
C533 C531 1.415 . S
C534 H524 0.930 . S
C534 C532 1.419 . S
C534 C535 1.362 . S
C535 H525 0.930 . S
C535 C528 1.409 . S
C535 C534 1.362 . S
H536 C542 0.930 . S
H537 C545 0.930 . S
H538 C546 0.930 . S
H539 C547 0.930 . S
H540 C550 0.930 . S
H541 C551 0.930 . S
C542 H536 0.930 . S
C542 C543 1.355 . S
C542 C544 1.415 . S
C543 C542 1.355 . S
C543 C545 1.419 . S
C544 C542 1.415 . S
C544 C549 1.425 . S
C544 C551 1.409 . S
C545 H537 0.930 . S
C545 C543 1.419 . S
C545 C546 1.362 . S
C546 H538 0.930 . S
C546 C545 1.362 . S
C546 C549 1.409 . S
C547 H539 0.930 . S
C547 C548 1.355 . S
C547 C549 1.415 . S
C548 C547 1.355 . S
C548 C550 1.419 . S
C549 C544 1.425 . S
C549 C546 1.409 . S
C549 C547 1.415 . S
C550 H540 0.930 . S
C550 C548 1.419 . S
C550 C551 1.362 . S
C551 H541 0.930 . S
C551 C544 1.409 . S
C551 C550 1.362 . S
H552 C558 0.930 . S
H553 C561 0.930 . S
H554 C562 0.930 . S
H555 C563 0.930 . S
H556 C566 0.930 . S
H557 C567 0.930 1_545 S
C558 H552 0.930 . S
C558 C559 1.355 . S
C558 C560 1.415 . S
C559 C558 1.355 . S
C559 C561 1.419 . S
C560 C558 1.415 . S
C560 C565 1.425 . S
C560 C567 1.409 . S
C561 H553 0.930 . S
C561 C559 1.419 . S
C561 C562 1.362 . S
C562 H554 0.930 . S
C562 C561 1.362 . S
C562 C565 1.409 . S
C563 H555 0.930 . S
C563 C564 1.355 . S
C563 C565 1.415 . S
C564 C563 1.355 . S
C564 C566 1.419 1_565 S
C565 C560 1.425 . S
C565 C562 1.409 . S
C565 C563 1.415 . S
C566 H556 0.930 . S
C566 C564 1.419 1_545 S
C566 C567 1.362 1_545 S
C567 H557 0.930 1_565 S
C567 C560 1.409 . S
C567 C566 1.362 1_565 S
H568 C574 0.930 . S
H569 C577 0.930 . S
H570 C578 0.930 . S
H571 C579 0.930 . S
H572 C582 0.930 . S
H573 C583 0.930 . S
C574 H568 0.930 . S
C574 C575 1.355 . S
C574 C576 1.417 . S
C575 C574 1.355 . S
C575 C577 1.419 . S
C576 C574 1.417 . S
C576 C581 1.425 1_556 S
C576 C583 1.407 1_556 S
C577 H569 0.930 . S
C577 C575 1.419 . S
C577 C578 1.362 . S
C578 H570 0.930 . S
C578 C577 1.362 . S
C578 C581 1.407 1_556 S
C579 H571 0.930 . S
C579 C580 1.355 . S
C579 C581 1.417 . S
C580 C579 1.355 . S
C580 C582 1.419 . S
C581 C576 1.425 1_554 S
C581 C578 1.407 1_554 S
C581 C579 1.417 . S
C582 H572 0.930 . S
C582 C580 1.419 . S
C582 C583 1.362 . S
C583 H573 0.930 . S
C583 C576 1.407 1_554 S
C583 C582 1.362 . S
C271 C28 1.184 . S
C276 C50 1.167 . S
C287 C83 1.146 . S
C292 C61 1.160 . S
C303 C116 1.159 . S
C308 C94 1.163 . S
C319 C127 1.163 . S
C324 C17 1.145 . S
C335 C160 1.187 . S
C340 C248 1.170 . S
C351 C193 1.169 . S
C356 C149 1.171 . S
C367 C226 1.170 . S
C372 C182 1.150 . S
C383 C259 1.174 . S
C388 C215 1.178 . S
C399 N203 1.789 . S
C404 C8 1.760 . S
C415 N236 1.779 . S
C420 C41 1.768 . S
C431 N137 1.784 . S
C436 C74 1.782 . S
C447 N170 1.789 . S
C452 C107 1.769 . S
C463 C140 1.758 . S
C468 N71 1.784 . S
C479 C173 1.757 . S
C484 N104 1.788 . S
C495 C206 1.783 . S
C500 N5 1.778 . S
C511 C239 1.757 . S
C516 N38 1.785 . S
C527 N245 1.512 1_545 S
C532 N14 1.461 1_655 S
C543 N146 1.436 . S
C548 N47 1.501 . S
C559 N80 1.430 1_455 S
C564 N179 1.478 1_565 S
C575 N113 1.502 . S
C580 N212 1.437 . S
