# Generated by pormake.
# Topology pbz, (3)-cn, num edge types: 1
# Building blocks:
#     Node 0, Type 0, BuildingBlock: WUSLED_clean_sbu_0, # of connection points: 3
#     Node 1, Type 0, BuildingBlock: WUSLED_clean_sbu_0, # of connection points: 3
#     Node 2, Type 0, BuildingBlock: WUSLED_clean_sbu_0, # of connection points: 3
#     Node 3, Type 0, BuildingBlock: WUSLED_clean_sbu_0, # of connection points: 3
#     Node 4, Type 0, BuildingBlock: WUSLED_clean_sbu_0, # of connection points: 3
#     Node 5, Type 0, BuildingBlock: WUSLED_clean_sbu_0, # of connection points: 3
#     Node 6, Type 0, BuildingBlock: WUSLED_clean_sbu_0, # of connection points: 3
#     Node 7, Type 0, BuildingBlock: WUSLED_clean_sbu_0, # of connection points: 3
#     Node 8, Type 0, BuildingBlock: WUSLED_clean_sbu_0, # of connection points: 3
#     Node 9, Type 0, BuildingBlock: WUSLED_clean_sbu_0, # of connection points: 3
#     Node 10, Type 0, BuildingBlock: WUSLED_clean_sbu_0, # of connection points: 3
#     Node 11, Type 0, BuildingBlock: WUSLED_clean_sbu_0, # of connection points: 3
#     Node 12, Type 0, BuildingBlock: WUSLED_clean_sbu_0, # of connection points: 3
#     Node 13, Type 0, BuildingBlock: WUSLED_clean_sbu_0, # of connection points: 3
#     Node 14, Type 0, BuildingBlock: WUSLED_clean_sbu_0, # of connection points: 3
#     Node 15, Type 0, BuildingBlock: WUSLED_clean_sbu_0, # of connection points: 3
#     Node 16, Type 0, BuildingBlock: WUSLED_clean_sbu_0, # of connection points: 3
#     Node 17, Type 0, BuildingBlock: WUSLED_clean_sbu_0, # of connection points: 3
#     Node 18, Type 0, BuildingBlock: WUSLED_clean_sbu_0, # of connection points: 3
#     Node 19, Type 0, BuildingBlock: WUSLED_clean_sbu_0, # of connection points: 3
#     Node 20, Type 0, BuildingBlock: WUSLED_clean_sbu_0, # of connection points: 3
#     Node 21, Type 0, BuildingBlock: WUSLED_clean_sbu_0, # of connection points: 3
#     Node 22, Type 0, BuildingBlock: WUSLED_clean_sbu_0, # of connection points: 3
#     Node 23, Type 0, BuildingBlock: WUSLED_clean_sbu_0, # of connection points: 3
#     Edge 24, Type (0, 0), None
#     Edge 25, Type (0, 0), None
#     Edge 26, Type (0, 0), None
#     Edge 27, Type (0, 0), None
#     Edge 28, Type (0, 0), None
#     Edge 29, Type (0, 0), None
#     Edge 30, Type (0, 0), None
#     Edge 31, Type (0, 0), None
#     Edge 32, Type (0, 0), None
#     Edge 33, Type (0, 0), None
#     Edge 34, Type (0, 0), None
#     Edge 35, Type (0, 0), None
#     Edge 36, Type (0, 0), None
#     Edge 37, Type (0, 0), None
#     Edge 38, Type (0, 0), None
#     Edge 39, Type (0, 0), None
#     Edge 40, Type (0, 0), None
#     Edge 41, Type (0, 0), None
#     Edge 42, Type (0, 0), None
#     Edge 43, Type (0, 0), None
#     Edge 44, Type (0, 0), None
#     Edge 45, Type (0, 0), None
#     Edge 46, Type (0, 0), None
#     Edge 47, Type (0, 0), None
#     Edge 48, Type (0, 0), None
#     Edge 49, Type (0, 0), None
#     Edge 50, Type (0, 0), None
#     Edge 51, Type (0, 0), None
#     Edge 52, Type (0, 0), None
#     Edge 53, Type (0, 0), None
#     Edge 54, Type (0, 0), None
#     Edge 55, Type (0, 0), None
#     Edge 56, Type (0, 0), None
#     Edge 57, Type (0, 0), None
#     Edge 58, Type (0, 0), None
#     Edge 59, Type (0, 0), None
# Relax obj value: 0.000
# Max RMSD: 0.012
# Mean RMSD: 0.008
data_MOF--net-pbz--node1-WUSLED_clean_sbu_0--edge1-none
_symmetry_space_group_name_H-M    P1
_symmetry_Int_Tables_number       1
_symmetry_cell_setting            triclinic
loop_
_symmetry_equiv_pos_as_xyz
'x, y, z'
_cell_length_a     63.931421
_cell_length_b     63.959074
_cell_length_c     64.168682
_cell_angle_alpha  89.314577
_cell_angle_beta   89.986734
_cell_angle_gamma 90.003722
loop_
_atom_site_label
_atom_site_type_symbol
_atom_site_fract_x
_atom_site_fract_y
_atom_site_fract_z
_atom_type_partial_charge
C0 C 1.00557 0.23561 0.73241 0.0
C1 C 1.00068 0.22932 0.75296 0.0
C2 C 1.00884 0.26426 0.76636 0.0
C3 C 1.00236 0.24336 0.76964 0.0
C4 C 0.01427 0.27033 0.74585 0.0
C5 C 1.01261 0.25628 0.7292 0.0
U6 U 1.01127 0.18898 0.69214 0.0
O7 O 0.98559 0.17059 0.67829 0.0
O8 O 1.0051 0.19044 0.65823 0.0
C9 C 0.98878 0.17795 0.65933 0.0
C10 C 1.00044 0.2222 0.71401 0.0
C11 C 0.97 0.18293 0.64605 0.0
C12 C 0.93495 0.17322 0.63392 0.0
C13 C 0.95158 0.17099 0.64814 0.0
C14 C 0.95447 0.19959 0.61504 0.0
C15 C 0.93614 0.1874 0.61694 0.0
C16 C 0.97113 0.19734 0.62929 0.0
C17 C 0.05781 0.14791 0.69867 0.0
C18 C 0.07263 0.11449 0.71071 0.0
C19 C 0.08762 0.13198 0.68072 0.0
C20 C 0.0728 0.14819 0.68256 0.0
C21 C 0.08809 0.11502 0.69501 0.0
C22 C 0.05783 0.13066 0.71252 0.0
C23 C 0.04443 0.16662 0.7033 0.0
O24 O 1.01287 0.22307 0.69768 0.0
O25 O 0.99306 0.20328 0.71752 0.0
O26 O 0.02554 0.16336 0.71078 0.0
O27 O 0.04527 0.18288 0.69058 0.0
H28 H 0.99483 0.21371 0.75614 0.0
H29 H 0.99772 0.238 0.78502 0.0
H30 H 0.0196 0.28609 0.74255 0.0
H31 H 0.01622 0.26186 0.7136 0.0
H32 H 0.92139 0.16326 0.63592 0.0
H33 H 0.95024 0.15934 0.66047 0.0
H34 H 0.95604 0.21091 0.60247 0.0
H35 H 0.98512 0.20659 0.62683 0.0
H36 H 0.07247 0.10204 0.72228 0.0
H37 H 0.09896 0.13297 0.66821 0.0
H38 H 0.07355 0.16125 0.6717 0.0
H39 H 0.04687 0.13005 0.72539 0.0
C40 C 0.79987 0.51509 0.2313 0.0
C41 C 0.77909 0.52169 0.22807 0.0
C42 C 0.77093 0.51801 0.26533 0.0
C43 C 0.76489 0.52319 0.24477 0.0
C44 C 0.79194 0.51198 0.26862 0.0
C45 C 0.80613 0.51047 0.25191 0.0
U46 U 0.84724 0.5217 0.19159 0.0
O47 O 0.86613 0.49639 0.17773 0.0
O48 O 0.84671 0.51632 0.15763 0.0
C49 C 0.85923 0.50002 0.15872 0.0
C50 C 0.81353 0.51024 0.21293 0.0
C51 C 0.85466 0.48155 0.14517 0.0
C52 C 0.86674 0.44852 0.13026 0.0
C53 C 0.86855 0.46446 0.14508 0.0
C54 C 0.83669 0.46593 0.11535 0.0
C55 C 0.85102 0.44912 0.11484 0.0
C56 C 0.83852 0.4819 0.1302 0.0
C57 C 0.88746 0.56842 0.19991 0.0
C58 C 0.91254 0.58636 0.17707 0.0
C59 C 0.91266 0.59339 0.21396 0.0
C60 C 0.89614 0.57916 0.21681 0.0
C61 C 0.92116 0.59739 0.19404 0.0
C62 C 0.89589 0.5721 0.17996 0.0
C63 C 0.86888 0.55472 0.20377 0.0
O64 O 0.81299 0.52303 0.19672 0.0
O65 O 0.83238 0.50278 0.21651 0.0
O66 O 0.87224 0.53565 0.21087 0.0
O67 O 0.85329 0.55571 0.19043 0.0
H68 H 0.77356 0.5251 0.21244 0.0
H69 H 0.74905 0.52818 0.24146 0.0
H70 H 0.79729 0.50755 0.28406 0.0
H71 H 0.82184 0.50499 0.2551 0.0
H72 H 0.87834 0.4362 0.13038 0.0
H73 H 0.88143 0.46382 0.15603 0.0
H74 H 0.82416 0.46696 0.10405 0.0
H75 H 0.82762 0.49485 0.12952 0.0
H76 H 0.91872 0.58864 0.1615 0.0
H77 H 0.91842 0.60165 0.22743 0.0
H78 H 0.88983 0.57684 0.23234 0.0
H79 H 0.88952 0.56411 0.1666 0.0
C80 C 0.4704 0.40098 0.68516 0.0
C81 C 0.45084 0.39724 0.6758 0.0
C82 C 0.43611 0.42947 0.69022 0.0
C83 C 0.434 0.41116 0.67834 0.0
C84 C 0.45563 0.43307 0.6998 0.0
C85 C 0.47248 0.41912 0.69725 0.0
U86 U 0.51158 0.35471 0.691 0.0
O87 O 0.52544 0.33601 0.66569 0.0
O88 O 0.54552 0.35607 0.68452 0.0
C89 C 0.54442 0.34335 0.66859 0.0
C90 C 0.48912 0.38784 0.67982 0.0
C91 C 0.55755 0.34799 0.64968 0.0
C92 C 0.58586 0.36725 0.63215 0.0
C93 C 0.57159 0.36497 0.64879 0.0
C94 C 0.57236 0.3358 0.61671 0.0
C95 C 0.58668 0.35257 0.6159 0.0
C96 C 0.55813 0.33354 0.63331 0.0
C97 C 0.50592 0.31403 0.73813 0.0
C98 C 0.51448 0.30013 0.77291 0.0
C99 C 0.50266 0.27659 0.74627 0.0
C100 C 0.50105 0.29349 0.73207 0.0
C101 C 0.50904 0.27965 0.76708 0.0
C102 C 0.51289 0.317 0.75871 0.0
C103 C 0.50084 0.33264 0.72455 0.0
O104 O 0.50565 0.38877 0.69198 0.0
O105 O 0.48583 0.36891 0.67272 0.0
O106 O 0.49324 0.32933 0.70583 0.0
O107 O 0.51346 0.34887 0.72505 0.0
H108 H 0.44865 0.38379 0.66593 0.0
H109 H 0.41947 0.40783 0.67039 0.0
H110 H 0.45799 0.44673 0.70932 0.0
H111 H 0.48734 0.42286 0.70441 0.0
H112 H 0.5963 0.38058 0.63209 0.0
H113 H 0.5719 0.37632 0.66118 0.0
H114 H 0.57253 0.32393 0.60483 0.0
H115 H 0.54793 0.32001 0.63365 0.0
H116 H 0.51974 0.30325 0.7886 0.0
H117 H 0.49803 0.26123 0.74109 0.0
H118 H 0.49527 0.2905 0.71653 0.0
H119 H 0.51648 0.33259 0.76409 0.0
C120 C 0.67371 0.06411 0.14517 0.0
C121 C 0.66316 0.0832 0.14804 0.0
C122 C 0.67874 0.09837 0.11629 0.0
C123 C 0.66568 0.10003 0.13393 0.0
C124 C 0.68953 0.07933 0.11359 0.0
C125 C 0.68699 0.06249 0.12773 0.0
U126 U 0.67936 0.02263 0.19153 0.0
O127 O 0.65375 1.00854 0.21022 0.0
O128 O 0.67294 0.98871 0.19025 0.0
C129 C 0.65678 0.98965 0.20291 0.0
C130 C 0.6684 0.04529 0.15843 0.0
C131 C 0.63787 0.97663 0.19821 0.0
C132 C 0.61944 0.95056 0.17732 0.0
C133 C 0.63614 0.9647 0.17997 0.0
C134 C 0.60566 0.96001 0.21094 0.0
C135 C 0.60399 0.94778 0.19287 0.0
C136 C 0.6223 0.97412 0.21355 0.0
C137 C 0.72621 0.02819 0.23207 0.0
C138 C 0.73415 0.03162 0.26929 0.0
C139 C 0.76098 0.01952 0.2459 0.0
C140 C 0.74685 0.02109 0.22913 0.0
C141 C 0.75503 0.0251 0.26625 0.0
C142 C 0.72002 0.03321 0.25249 0.0
C143 C 0.71274 0.03329 0.2135 0.0
O144 O 0.68072 0.02885 0.15757 0.0
O145 O 0.66108 0.04844 0.17729 0.0
O146 O 0.69387 0.04078 0.21677 0.0
O147 O 0.71347 0.02079 0.19738 0.0
H148 H 0.65237 0.08498 0.16092 0.0
H149 H 0.6568 0.11416 0.13655 0.0
H150 H 0.69997 0.07736 0.10048 0.0
H151 H 0.69512 0.04799 0.12467 0.0
H152 H 0.61868 0.94179 0.16302 0.0
H153 H 0.64788 0.96599 0.16785 0.0
H154 H 0.59444 0.95827 0.22347 0.0
H155 H 0.62333 0.98269 0.22797 0.0
H156 H 0.72887 0.03636 0.28454 0.0
H157 H 0.77673 1.01416 0.2428 0.0
H158 H 0.75235 0.01739 0.21363 0.0
H159 H 0.70443 0.0391 0.25545 0.0
C160 C 1.00612 0.30849 0.81794 0.0
C161 C 1.01273 0.28769 0.82117 0.0
C162 C 1.00896 0.2798 0.78399 0.0
C163 C 1.01418 0.27362 0.80452 0.0
C164 C 1.00293 0.30082 0.78068 0.0
C165 C 1.00146 0.31489 0.79736 0.0
U166 U 1.01214 0.35524 0.85805 0.0
O167 O 0.9865 0.37375 0.87183 0.0
O168 O 1.00597 0.35393 0.89196 0.0
C169 C 0.98966 0.36643 0.89082 0.0
C170 C 1.00115 0.32198 0.83632 0.0
C171 C 0.97084 0.36145 0.90405 0.0
C172 C 0.93575 0.37113 0.91611 0.0
C173 C 0.95245 0.37343 0.90196 0.0
C174 C 0.95516 0.34462 0.9349 0.0
C175 C 0.93685 0.35685 0.93301 0.0
C176 C 0.97188 0.34694 0.92073 0.0
C177 C 0.05859 0.3962 0.85111 0.0
C178 C 0.08187 0.41636 0.87363 0.0
C179 C 0.07845 0.42611 0.83734 0.0
C180 C 0.06416 0.40966 0.83453 0.0
C181 C 0.08774 0.4297 0.8569 0.0
C182 C 0.06756 0.39983 0.87078 0.0
C183 C 0.0453 0.37746 0.84664 0.0
O184 O 1.01368 0.32112 0.85258 0.0
O185 O 0.9938 0.3409 0.83279 0.0
O186 O 0.02642 0.38072 0.83917 0.0
O187 O 0.04611 0.3614 0.85961 0.0
H188 H 0.01615 0.28204 0.83678 0.0
H189 H 0.01917 0.25775 0.80784 0.0
H190 H 0.99848 0.30629 0.76528 0.0
H191 H 0.99595 0.33062 0.79417 0.0
H192 H 0.92221 0.38112 0.91412 0.0
H193 H 0.95118 0.38514 0.8897 0.0
H194 H 0.95666 0.33322 0.94742 0.0
H195 H 0.98584 0.33764 0.92317 0.0
H196 H 0.0883 0.41866 0.88904 0.0
H197 H 0.08263 0.43563 0.82392 0.0
H198 H 0.05784 0.40712 0.8191 0.0
H199 H 0.06377 0.38972 0.8839 0.0
C200 C 0.67349 0.479 0.40396 0.0
C201 C 0.66286 0.45994 0.40114 0.0
C202 C 0.67834 0.44481 0.43295 0.0
C203 C 0.6653 0.44315 0.41531 0.0
C204 C 0.6892 0.46381 0.4356 0.0
C205 C 0.68676 0.48062 0.42141 0.0
U206 U 0.67943 0.52037 0.35753 0.0
O207 O 0.65393 0.53443 0.33867 0.0
O208 O 0.67303 0.55429 0.35869 0.0
C209 C 0.65697 0.55333 0.34593 0.0
C210 C 0.66827 0.49779 0.39063 0.0
C211 C 0.63806 0.56641 0.35047 0.0
C212 C 0.61921 0.59202 0.37155 0.0
C213 C 0.63589 0.57783 0.36898 0.0
C214 C 0.60636 0.58361 0.33729 0.0
C215 C 0.60424 0.59534 0.35564 0.0
C216 C 0.62297 0.56946 0.33477 0.0
C217 C 0.72642 0.51477 0.31718 0.0
C218 C 0.7344 0.51147 0.27996 0.0
C219 C 0.76122 0.52345 0.30342 0.0
C220 C 0.74706 0.52183 0.32018 0.0
C221 C 0.75528 0.51795 0.28304 0.0
C222 C 0.72025 0.50983 0.29674 0.0
C223 C 0.7129 0.50965 0.33572 0.0
O224 O 0.6806 0.51423 0.39151 0.0
O225 O 0.66105 0.49461 0.37174 0.0
O226 O 0.69405 0.50214 0.3324 0.0
O227 O 0.71357 0.52217 0.35183 0.0
H228 H 0.65209 0.45816 0.38826 0.0
H229 H 0.65636 0.42904 0.41272 0.0
H230 H 0.69963 0.46579 0.44872 0.0
H231 H 0.69494 0.4951 0.42443 0.0
H232 H 0.61809 0.60039 0.38606 0.0
H233 H 0.64726 0.5761 0.38139 0.0
H234 H 0.59551 0.58578 0.3245 0.0
H235 H 0.62435 0.56127 0.32015 0.0
H236 H 0.72914 0.50679 0.26468 0.0
H237 H 0.77696 0.52879 0.30656 0.0
H238 H 0.75254 0.52547 0.33569 0.0
H239 H 0.70466 0.50397 0.29374 0.0
C240 C 0.47062 0.14054 0.86509 0.0
C241 C 0.45175 0.14291 0.87617 0.0
C242 C 0.43659 0.11173 0.86004 0.0
C243 C 0.43504 0.12884 0.87364 0.0
C244 C 0.4554 0.10953 0.84874 0.0
C245 C 0.47213 0.12362 0.85128 0.0
U246 U 0.5117 0.1869 0.85894 0.0
O247 O 0.52556 0.20573 0.88415 0.0
O248 O 0.54566 0.18565 0.86536 0.0
C249 C 0.54456 0.19845 0.88123 0.0
C250 C 0.48933 0.15375 0.8703 0.0
C251 C 0.5578 0.194 0.90011 0.0
C252 C 0.5865 0.17522 0.91749 0.0
C253 C 0.57214 0.17727 0.90091 0.0
C254 C 0.5725 0.20641 0.93303 0.0
C255 C 0.58712 0.1899 0.93376 0.0
C256 C 0.55817 0.20843 0.9165 0.0
C257 C 0.50594 0.22744 0.81173 0.0
C258 C 0.50283 0.26489 0.80363 0.0
C259 C 0.51433 0.24129 0.7769 0.0
C260 C 0.51274 0.22442 0.79111 0.0
C261 C 0.50905 0.2618 0.78277 0.0
C262 C 0.50122 0.248 0.81784 0.0
C263 C 0.50088 0.20884 0.82535 0.0
O264 O 0.50584 0.15283 0.85809 0.0
O265 O 0.48599 0.17269 0.87733 0.0
O266 O 0.51352 0.19263 0.82487 0.0
O267 O 0.49329 0.21218 0.84407 0.0
H268 H 0.45008 0.15536 0.88734 0.0
H269 H 0.42109 0.13107 0.88293 0.0
H270 H 0.45728 0.09684 0.83788 0.0
H271 H 0.48646 0.12095 0.84271 0.0
H272 H 0.59717 0.16208 0.91749 0.0
H273 H 0.57261 0.16596 0.8885 0.0
H274 H 0.57251 0.21827 0.94492 0.0
H275 H 0.54775 0.22179 0.91622 0.0
H276 H 0.49833 0.28028 0.80884 0.0
H277 H 0.51946 0.23814 0.76116 0.0
H278 H 0.51621 0.20882 0.7857 0.0
H279 H 0.49558 0.25102 0.83342 0.0
C280 C 0.79953 0.02818 0.31803 0.0
C281 C 0.77875 0.02159 0.32126 0.0
C282 C 0.77066 0.02511 0.28397 0.0
C283 C 0.76458 0.02002 0.30455 0.0
C284 C 0.79167 0.03113 0.28068 0.0
C285 C 0.80583 0.03272 0.29742 0.0
U286 U 0.84685 0.02213 0.35794 0.0
O287 O 0.86542 0.04769 0.37174 0.0
O288 O 0.8461 0.02768 0.39187 0.0
C289 C 0.85851 0.04407 0.39075 0.0
C290 C 0.81314 0.03316 0.33641 0.0
C291 C 0.85386 0.06251 0.40429 0.0
C292 C 0.86575 0.09567 0.41907 0.0
C293 C 0.86754 0.07977 0.4042 0.0
C294 C 0.83612 0.0779 0.43438 0.0
C295 C 0.85026 0.09487 0.43471 0.0
C296 C 0.83793 0.06196 0.41949 0.0
C297 C 0.88797 0.97604 0.3505 0.0
C298 C 0.90769 0.95098 0.37202 0.0
C299 C 0.91859 0.95784 0.33658 0.0
C300 C 0.90205 0.97215 0.33415 0.0
C301 C 0.92165 0.9468 0.35549 0.0
C302 C 0.89108 0.96532 0.36955 0.0
C303 C 0.86908 0.98931 0.34623 0.0
O304 O 0.81263 0.02043 0.35266 0.0
O305 O 0.83193 0.04077 0.33285 0.0
O306 O 0.87209 1.00834 0.33885 0.0
O307 O 0.85322 0.98818 0.35927 0.0
H308 H 0.77319 0.01825 0.3369 0.0
H309 H 0.74873 0.01504 0.30787 0.0
H310 H 0.79705 0.03548 0.26524 0.0
H311 H 0.82155 0.03819 0.29422 0.0
H312 H 0.87721 0.10814 0.4188 0.0
H313 H 0.88027 0.08058 0.39308 0.0
H314 H 0.82375 0.0767 0.44586 0.0
H315 H 0.8272 0.04888 0.42032 0.0
H316 H 0.90957 0.94317 0.38696 0.0
H317 H 0.92862 0.955 0.32332 0.0
H318 H 0.89992 0.97981 0.31915 0.0
H319 H 0.88049 0.96774 0.38247 0.0
C320 C 0.1707 0.63941 0.98481 0.0
C321 C 0.18877 0.64078 0.9724 0.0
C322 C 0.17712 0.61101 0.95127 0.0
C323 C 0.19195 0.62676 0.95585 0.0
C324 C 0.15906 0.60988 0.96382 0.0
C325 C 0.15594 0.62383 0.98027 0.0
U326 U 0.17913 0.68688 0.02341 0.0
O327 O 0.15418 0.70617 0.03743 0.0
O328 O 0.17369 0.68625 0.05744 0.0
C329 C 0.15763 0.69909 0.05644 0.0
C330 C 0.16662 0.65346 1.00278 0.0
C331 C 0.13905 0.69479 0.0702 0.0
C332 C 0.10607 0.70728 0.08513 0.0
C333 C 0.12208 0.70883 0.07014 0.0
C334 C 0.12316 0.67722 0.1005 0.0
C335 C 0.10647 0.69169 0.10086 0.0
C336 C 0.1392 0.67878 0.08549 0.0
C337 C 0.22633 0.7265 0.01563 0.0
C338 C 0.24693 0.74797 0.03938 0.0
C339 C 0.2501 0.75359 1.00224 0.0
C340 C 0.23531 0.73769 0.99887 0.0
C341 C 0.25646 0.75884 0.02255 0.0
C342 C 0.23213 0.73201 0.03598 0.0
C343 C 0.21261 0.70813 1.01112 0.0
O344 O 0.17975 0.65272 0.01854 0.0
O345 O 0.16001 0.67252 0.99865 0.0
O346 O 0.19367 0.71187 1.00403 0.0
O347 O 0.21325 0.6921 0.02413 0.0
H348 H 0.20042 0.65264 0.97549 0.0
H349 H 0.20595 0.62843 0.94649 0.0
H350 H 0.1474 0.59792 0.96121 0.0
H351 H 0.1419 0.62232 0.98965 0.0
H352 H 0.09384 0.71899 0.08488 0.0
H353 H 0.12158 0.72162 0.05894 0.0
H354 H 0.12404 0.66478 0.11206 0.0
H355 H 0.15206 0.66778 0.08629 0.0
H356 H 0.25099 0.75168 0.05529 0.0
H357 H 0.25709 0.76122 0.9888 0.0
H358 H 0.23133 0.73369 0.983 0.0
H359 H 0.22554 0.72374 0.04926 0.0
C360 C 0.13286 0.86188 0.48392 0.0
C361 C 0.13476 0.87405 0.46558 0.0
C362 C 0.10437 0.85691 0.44976 0.0
C363 C 0.12085 0.87157 0.44879 0.0
C364 C 0.10265 0.84452 0.46804 0.0
C365 C 0.11659 0.84701 0.48484 0.0
U366 U 0.17888 0.8559 0.52528 0.0
O367 O 0.19685 0.88134 0.53983 0.0
O368 O 0.17705 0.86117 0.55931 0.0
C369 C 0.18941 0.8776 0.55863 0.0
C370 C 0.1458 0.86694 0.50278 0.0
C371 C 0.18399 0.8959 0.57205 0.0
C372 C 0.18261 0.93363 0.57827 0.0
C373 C 0.18511 0.91669 0.56464 0.0
C374 C 0.17762 0.90953 0.60707 0.0
C375 C 0.17902 0.93038 0.59981 0.0
C376 C 0.18011 0.89263 0.59344 0.0
C377 C 0.2201 0.80958 0.51923 0.0
C378 C 0.25738 0.80151 0.51508 0.0
C379 C 0.234 0.77487 0.52828 0.0
C380 C 0.21718 0.78902 0.52682 0.0
C381 C 0.25437 0.78072 0.5221 0.0
C382 C 0.24055 0.81566 0.5136 0.0
C383 C 0.20147 0.82307 0.51424 0.0
O384 O 0.1449 0.85421 0.51902 0.0
O385 O 0.16466 0.87462 0.49977 0.0
O386 O 0.20473 0.84217 0.50713 0.0
O387 O 0.18506 0.82183 0.52656 0.0
H388 H 0.1467 0.88602 0.46439 0.0
H389 H 0.12267 0.88169 0.43527 0.0
H390 H 0.09046 0.83284 0.46945 0.0
H391 H 0.11429 0.83755 0.49876 0.0
H392 H 0.18409 0.94931 0.57194 0.0
H393 H 0.1884 0.91994 0.54836 0.0
H394 H 0.17457 0.90617 0.62336 0.0
H395 H 0.17945 0.87686 0.59978 0.0
H396 H 0.27265 0.8067 0.50986 0.0
H397 H 0.23092 0.75919 0.53403 0.0
H398 H 0.20167 0.78359 0.53099 0.0
H399 H 0.24348 0.83117 0.5073 0.0
C400 C 0.30619 0.73611 0.51867 0.0
C401 C 0.30955 0.75692 0.52476 0.0
C402 C 0.27212 0.76505 0.52199 0.0
C403 C 0.29283 0.77112 0.52645 0.0
C404 C 0.2687 0.74401 0.51649 0.0
C405 C 0.28545 0.72981 0.51478 0.0
U406 U 0.34609 0.68864 0.52447 0.0
O407 O 0.35972 0.67008 0.49897 0.0
O408 O 0.38013 0.68928 0.51829 0.0
C409 C 0.37884 0.67697 0.50206 0.0
C410 C 0.32456 0.72245 0.51353 0.0
C411 C 0.39208 0.68191 0.48327 0.0
C412 C 0.40373 0.67262 0.44814 0.0
C413 C 0.38962 0.6704 0.46485 0.0
C414 C 0.42325 0.6981 0.46759 0.0
C415 C 0.42096 0.68635 0.44924 0.0
C416 C 0.40912 0.69586 0.48433 0.0
C417 C 0.33877 0.64735 0.57078 0.0
C418 C 0.36056 0.62728 0.59527 0.0
C419 C 0.32483 0.61668 0.58936 0.0
C420 C 0.32232 0.63335 0.57511 0.0
C421 C 0.34394 0.6134 0.59988 0.0
C422 C 0.35801 0.64403 0.58099 0.0
C423 C 0.33445 0.66634 0.55755 0.0
O424 O 0.34092 0.72285 0.52595 0.0
O425 O 0.32088 0.70369 0.50618 0.0
O426 O 0.32689 0.66346 0.53875 0.0
O427 O 0.3476 0.68213 0.55833 0.0
H428 H 0.32529 0.76247 0.5276 0.0
H429 H 0.29624 0.787 0.53102 0.0
H430 H 0.25314 0.73864 0.51263 0.0
H431 H 0.28215 0.71406 0.50971 0.0
H432 H 0.40144 0.663 0.43456 0.0
H433 H 0.37708 0.65911 0.46356 0.0
H434 H 0.43604 0.70907 0.4691 0.0
H435 H 0.41185 0.70477 0.49831 0.0
H436 H 0.37564 0.62524 0.60269 0.0
H437 H 0.3115 0.60672 0.59256 0.0
H438 H 0.30718 0.63565 0.56784 0.0
H439 H 0.37101 0.65455 0.57821 0.0
C440 C 0.30692 0.80389 0.03245 0.0
C441 C 0.29258 0.80693 0.0161 0.0
C442 C 0.27358 0.77478 0.02608 0.0
C443 C 0.27613 0.79254 1.01294 0.0
C444 C 0.28807 0.77201 0.04244 0.0
C445 C 0.3044 0.78631 0.04554 0.0
U446 U 0.34502 0.8526 0.02458 0.0
O447 O 0.35853 0.87175 0.04971 0.0
O448 O 0.37912 0.85275 0.03037 0.0
C449 C 0.37774 0.86517 0.04651 0.0
C450 C 0.32467 0.81842 0.03663 0.0
C451 C 0.39118 0.86055 0.06524 0.0
C452 C 0.40353 0.87074 0.09987 0.0
C453 C 0.38929 0.87278 0.08325 0.0
C454 C 0.42204 0.844 0.08113 0.0
C455 C 0.42032 0.85646 0.09908 0.0
C456 C 0.40778 0.84606 0.06449 0.0
C457 C 0.33671 0.89307 0.97787 0.0
C458 C 0.35944 0.91517 0.95614 0.0
C459 C 0.32225 0.92169 0.95663 0.0
C460 C 0.31959 0.90502 0.97086 0.0
C461 C 0.3422 0.92703 0.94884 0.0
C462 C 0.35674 0.89842 0.9704 0.0
C463 C 0.33267 0.87418 0.99129 0.0
O464 O 0.34062 0.8183 0.0237 0.0
O465 O 0.32016 0.83726 0.04324 0.0
O466 O 0.32522 0.8772 1.01011 0.0
O467 O 0.34612 0.85863 0.99062 0.0
H468 H 0.29408 0.82037 1.00578 0.0
H469 H 0.2653 0.79548 1.00028 0.0
H470 H 0.28712 0.75848 0.0527 0.0
H471 H 0.31525 0.78353 0.05825 0.0
H472 H 0.40168 0.8809 0.11312 0.0
H473 H 0.37709 0.88448 0.08428 0.0
H474 H 0.43447 0.83259 0.07988 0.0
H475 H 0.41006 0.83656 0.05082 0.0
H476 H 0.37512 0.91886 0.95089 0.0
H477 H 0.30848 0.93003 0.95132 0.0
H478 H 0.30392 0.90113 0.97606 0.0
H479 H 0.37029 0.88951 0.97537 0.0
C480 C 1.00727 0.81404 0.3114 0.0
C481 C 0.0146 0.81724 0.29091 0.0
C482 C 1.01021 0.7801 0.28267 0.0
C483 C 0.0161 0.8006 0.27682 0.0
C484 C 1.00343 0.77681 0.3034 0.0
C485 C 1.00189 0.79348 0.31749 0.0
U486 U 1.01341 0.85473 0.35765 0.0
O487 O 1.00764 0.88878 0.3558 0.0
O488 O 0.98783 0.86913 0.37576 0.0
C489 C 0.99126 0.88803 0.36819 0.0
C490 C 1.00228 0.8325 0.32483 0.0
C491 C 0.97272 0.90155 0.36285 0.0
C492 C 0.95861 0.93407 0.34783 0.0
C493 C 0.97509 0.91967 0.35037 0.0
C494 C 0.93671 0.91269 0.37007 0.0
C495 C 0.93916 0.931 0.35781 0.0
C496 C 0.95321 0.89828 0.37261 0.0
C497 C 0.06054 0.84949 0.39785 0.0
C498 C 0.06777 0.84997 0.4354 0.0
C499 C 0.0957 0.8571 0.41103 0.0
C500 C 0.0817 0.8545 0.39436 0.0
C501 C 0.08909 0.85468 0.43189 0.0
C502 C 0.05374 0.84735 0.41867 0.0
C503 C 0.04687 0.84397 0.37969 0.0
O504 O 0.99514 0.82904 0.34379 0.0
O505 O 0.01466 0.8489 0.32372 0.0
O506 O 0.04758 0.85619 0.36307 0.0
O507 O 0.02797 0.83671 0.38343 0.0
H508 H 0.01857 0.83285 0.28547 0.0
H509 H 0.02167 0.8039 0.26119 0.0
H510 H 0.99843 0.76143 0.3086 0.0
H511 H 0.99579 0.79032 0.33295 0.0
H512 H 0.96143 0.94801 0.33852 0.0
H513 H 0.98996 0.92311 0.343 0.0
H514 H 0.922 0.90944 0.37781 0.0
H515 H 0.9508 0.88479 0.38268 0.0
H516 H 0.06184 0.84827 0.45113 0.0
H517 H 0.11193 0.86038 0.40746 0.0
H518 H 0.08763 0.85582 0.37858 0.0
H519 H 0.03766 0.84327 0.42208 0.0
C520 C 0.13302 0.48043 0.86541 0.0
C521 C 0.11614 0.48258 0.85142 0.0
C522 C 0.10353 0.44711 0.85967 0.0
C523 C 0.10172 0.46621 0.84856 0.0
C524 C 0.1206 0.44491 0.87347 0.0
C525 C 0.13501 0.46129 0.87633 0.0
U526 U 0.17979 0.5211 0.85973 0.0
O527 O 0.17863 0.55499 0.86585 0.0
O528 O 0.19869 0.53483 0.88509 0.0
C529 C 0.19153 0.55386 0.8818 0.0
C530 C 0.14655 0.49882 0.87088 0.0
C531 C 0.18698 0.56704 0.9004 0.0
C532 C 0.16357 0.58841 0.9216 0.0
C533 C 0.16678 0.57433 0.90514 0.0
C534 C 0.2006 0.58816 0.92901 0.0
C535 C 0.18047 0.59573 0.93374 0.0
C536 C 0.20376 0.57408 0.91263 0.0
C537 C 0.21975 0.51591 0.81246 0.0
C538 C 0.23512 0.5361 0.78358 0.0
C539 C 0.25225 0.50456 0.79558 0.0
C540 C 0.23655 0.50175 0.81077 0.0
C541 C 0.25158 0.52155 0.7814 0.0
C542 C 0.21946 0.5333 0.7988 0.0
C543 C 0.20143 0.51058 0.8262 0.0
O544 O 0.16554 0.49513 0.87792 0.0
O545 O 0.14568 0.51558 0.85884 0.0
O546 O 0.18506 0.52304 0.82575 0.0
O547 O 0.20519 0.50293 0.84494 0.0
H548 H 0.11366 0.49717 0.84304 0.0
H549 H 0.08874 0.46885 0.83802 0.0
H550 H 0.12289 0.43047 0.88215 0.0
H551 H 0.14751 0.45909 0.88754 0.0
H552 H 0.14784 0.59393 0.92446 0.0
H553 H 0.1535 0.56944 0.89593 0.0
H554 H 0.21401 0.59302 0.93804 0.0
H555 H 0.21954 0.56892 0.90928 0.0
H556 H 0.23414 0.5496 0.7733 0.0
H557 H 0.26444 0.49289 0.79441 0.0
H558 H 0.23713 0.48796 0.82073 0.0
H559 H 0.20678 0.5445 0.7994 0.0
C560 C 0.55297 0.64017 0.36317 0.0
C561 C 0.55015 0.6215 0.35208 0.0
C562 C 0.58665 0.61098 0.35803 0.0
C563 C 0.56667 0.60723 0.34948 0.0
C564 C 0.58953 0.62981 0.36891 0.0
C565 C 0.57298 0.6441 0.3715 0.0
U566 U 0.51263 0.68724 0.35758 0.0
O567 O 0.47844 0.68609 0.36296 0.0
O568 O 0.49821 0.70519 0.38307 0.0
C569 C 0.47922 0.69824 0.37933 0.0
C570 C 0.53452 0.65366 0.36856 0.0
C571 C 0.46529 0.69294 0.39748 0.0
C572 C 0.45793 0.6918 0.435 0.0
C573 C 0.47213 0.69415 0.4183 0.0
C574 C 0.42975 0.68679 0.41055 0.0
C575 C 0.43641 0.68829 0.43143 0.0
C576 C 0.44392 0.68911 0.39392 0.0
C577 C 0.51898 0.72823 0.3108 0.0
C578 C 0.51059 0.74212 0.27597 0.0
C579 C 0.52219 0.76567 0.30269 0.0
C580 C 0.52378 0.74877 0.31689 0.0
C581 C 0.51592 0.76261 0.28185 0.0
C582 C 0.51214 0.72525 0.29018 0.0
C583 C 0.52395 0.70961 0.32442 0.0
O584 O 0.53807 0.67245 0.37589 0.0
O585 O 0.51808 0.65314 0.35626 0.0
O586 O 0.51146 0.6933 0.32356 0.0
O587 O 0.53113 0.71285 0.34332 0.0
H588 H 0.53492 0.61756 0.34586 0.0
H589 H 0.56353 0.59287 0.34128 0.0
H590 H 0.60463 0.63358 0.37551 0.0
H591 H 0.57579 0.65805 0.38048 0.0
H592 H 0.46389 0.69275 0.45075 0.0
H593 H 0.4884 0.69729 0.42175 0.0
H594 H 0.41338 0.68445 0.40692 0.0
H595 H 0.43798 0.68853 0.37812 0.0
H596 H 0.50542 0.73899 0.26025 0.0
H597 H 0.52673 0.78105 0.3079 0.0
H598 H 0.52946 0.75177 0.33247 0.0
H599 H 0.50862 0.70966 0.28476 0.0
C600 C 0.29874 1.01377 0.81623 0.0
C601 C 0.2781 0.02087 0.81914 0.0
C602 C 0.26998 0.0169 0.782 0.0
C603 C 0.26399 0.02246 0.80235 0.0
C604 C 0.29086 1.01034 0.779 0.0
C605 C 0.30495 1.00872 0.79583 0.0
U606 U 0.345 0.01989 0.8574 0.0
O607 O 0.34315 1.01367 0.89129 0.0
O608 O 0.36344 0.99433 0.87198 0.0
C609 C 0.35573 0.99742 0.8907 0.0
C610 C 0.31221 1.00868 0.83482 0.0
C611 C 0.35045 0.97859 0.90394 0.0
C612 C 0.33226 0.9628 0.93391 0.0
C613 C 0.33504 0.97946 0.91962 0.0
C614 C 0.36008 0.94375 0.91726 0.0
C615 C 0.34487 0.9447 0.93316 0.0
C616 C 0.36285 0.96042 0.90298 0.0
C617 C 0.38482 0.06755 0.85245 0.0
C618 C 0.42244 0.07485 0.85438 0.0
C619 C 0.39776 0.10301 0.85877 0.0
C620 C 0.38114 0.08888 0.85613 0.0
C621 C 0.41876 0.09634 0.85775 0.0
C622 C 0.40575 0.0607 0.85171 0.0
C623 C 0.36676 0.05369 0.84687 0.0
O624 O 0.33132 1.00178 0.83163 0.0
O625 O 0.31095 0.02085 0.85115 0.0
O626 O 0.3501 0.05409 0.85889 0.0
O627 O 0.37074 0.0349 0.83974 0.0
H628 H 0.27257 0.02458 0.83462 0.0
H629 H 0.24825 0.02785 0.80542 0.0
H630 H 0.29615 1.0056 0.76375 0.0
H631 H 0.32053 1.0028 0.79289 0.0
H632 H 0.32057 0.96446 0.94598 0.0
H633 H 0.32544 0.99329 0.92127 0.0
H634 H 0.36995 0.9301 0.91581 0.0
H635 H 0.37514 0.95925 0.89143 0.0
H636 H 0.43827 0.06888 0.85379 0.0
H637 H 0.39406 0.11934 0.86099 0.0
H638 H 0.36527 0.09483 0.85637 0.0
H639 H 0.4093 0.04446 0.84871 0.0
C640 C 1.00717 0.72868 0.23824 0.0
C641 C 1.00287 0.74943 0.23193 0.0
C642 C 1.0102 0.76251 0.26708 0.0
C643 C 1.00444 0.76605 0.24608 0.0
C644 C 0.01504 0.74181 0.27317 0.0
C645 C 1.0135 0.72522 0.25902 0.0
U646 U 1.01338 0.68849 0.19162 0.0
O647 O 1.0072 0.65453 0.19294 0.0
O648 O 0.98784 0.67463 0.17296 0.0
C649 C 0.99102 0.65561 0.18031 0.0
C650 C 1.00213 0.71038 0.22462 0.0
C651 C 0.97224 0.64233 0.18521 0.0
C652 C 0.95438 0.61561 0.20636 0.0
C653 C 0.97089 0.62996 0.20346 0.0
C654 C 0.93999 0.62569 0.17296 0.0
C655 C 0.93871 0.61305 0.19107 0.0
C656 C 0.95648 0.64002 0.17008 0.0
C657 C 0.06086 0.69435 0.15173 0.0
C658 C 0.06943 0.69761 0.11454 0.0
C659 C 0.09595 0.68598 0.13878 0.0
C660 C 0.0815 0.6875 0.15524 0.0
C661 C 0.09033 0.69138 0.11815 0.0
C662 C 0.05497 0.69915 0.13105 0.0
C663 C 0.04706 0.69939 0.16996 0.0
O664 O 0.99515 0.71409 0.20565 0.0
O665 O 0.0144 0.69389 0.22564 0.0
O666 O 0.04756 0.68679 0.1863 0.0
O667 O 0.02824 0.7069 0.16629 0.0
H668 H 0.99757 0.7528 0.21622 0.0
H669 H 1.00028 0.7816 0.24069 0.0
H670 H 0.01981 0.7383 0.28902 0.0
H671 H 0.01663 0.70947 0.26459 0.0
H672 H 0.95429 0.6061 0.22043 0.0
H673 H 0.98285 0.63098 0.21535 0.0
H674 H 0.92821 0.62458 0.16092 0.0
H675 H 0.95715 0.64904 0.1557 0.0
H676 H 0.06424 0.70163 0.09895 0.0
H677 H 0.11184 0.68144 0.14247 0.0
H678 H 0.0868 0.68409 0.17095 0.0
H679 H 0.03933 0.70471 0.12763 0.0
C680 C 0.29645 0.52816 0.73026 0.0
C681 C 0.30304 0.52079 0.74995 0.0
C682 C 0.26724 0.52362 0.76383 0.0
C683 C 0.28859 0.51844 0.76649 0.0
C684 C 0.26082 0.53071 0.74397 0.0
C685 C 0.27516 0.53292 0.72752 0.0
U686 U 0.34476 0.52104 0.69161 0.0
O687 O 0.34419 0.52688 0.65762 0.0
O688 O 0.36364 0.54653 0.67745 0.0
C689 C 0.35659 0.54325 0.6585 0.0
C690 C 0.31116 0.53274 0.71265 0.0
C691 C 0.35142 0.56189 0.64495 0.0
C692 C 0.33617 0.57638 0.6128 0.0
C693 C 0.33871 0.55977 0.62716 0.0
C694 C 0.35887 0.59791 0.63356 0.0
C695 C 0.34635 0.59573 0.6156 0.0
C696 C 0.36142 0.58126 0.64792 0.0
C697 C 0.38393 0.47315 0.69766 0.0
C698 C 0.42148 0.46647 0.69365 0.0
C699 C 0.39729 0.4375 0.69367 0.0
C700 C 0.38055 0.45148 0.69622 0.0
C701 C 0.41812 0.44467 0.6925 0.0
C702 C 0.40466 0.48049 0.69624 0.0
C703 C 0.36585 0.48707 0.70286 0.0
O704 O 0.33023 0.53901 0.71703 0.0
O705 O 0.31045 0.52052 0.69634 0.0
O706 O 0.34953 0.48678 0.6904 0.0
O707 O 0.36982 0.50584 0.71004 0.0
H708 H 0.31936 0.51712 0.75265 0.0
H709 H 0.29426 0.513 0.7815 0.0
H710 H 0.24457 0.53448 0.741 0.0
H711 H 0.2696 0.53873 0.71259 0.0
H712 H 0.32665 0.57377 0.59913 0.0
H713 H 0.33112 0.54502 0.62395 0.0
H714 H 0.36679 0.61252 0.63658 0.0
H715 H 0.37166 0.58347 0.66116 0.0
H716 H 0.43715 0.4728 0.69251 0.0
H717 H 0.39387 0.42093 0.6932 0.0
H718 H 0.36485 0.44523 0.69762 0.0
H719 H 0.40795 0.49704 0.69743 0.0
C720 C 0.55263 0.9031 0.18512 0.0
C721 C 0.54963 0.92209 0.1956 0.0
C722 C 0.58635 0.93219 0.19041 0.0
C723 C 0.56617 0.93633 0.19827 0.0
C724 C 0.58941 0.91304 0.18014 0.0
C725 C 0.57283 0.89879 0.17747 0.0
U726 U 0.51234 0.85596 0.19051 0.0
O727 O 0.47815 0.85706 0.18512 0.0
O728 O 0.49796 0.83804 0.16498 0.0
C729 C 0.47896 0.84495 0.16872 0.0
C730 C 0.5342 0.88961 0.17964 0.0
C731 C 0.465 0.85022 0.15058 0.0
C732 C 0.45725 0.85036 0.11313 0.0
C733 C 0.47156 0.84811 0.12974 0.0
C734 C 0.42952 0.85707 0.13767 0.0
C735 C 0.43589 0.85466 0.11679 0.0
C736 C 0.44379 0.85484 0.15422 0.0
C737 C 0.51877 0.81489 0.23723 0.0
C738 C 0.52223 0.77747 0.24534 0.0
C739 C 0.51038 0.80094 0.27203 0.0
C740 C 0.51186 0.81782 0.25783 0.0
C741 C 0.51587 0.78048 0.26617 0.0
C742 C 0.52374 0.79438 0.23114 0.0
C743 C 0.52368 0.83354 0.22363 0.0
O744 O 0.53778 0.87084 0.17226 0.0
O745 O 0.51773 0.89007 0.19193 0.0
O746 O 0.51115 0.84981 0.22452 0.0
O747 O 0.53088 0.83035 0.20472 0.0
H748 H 0.53425 0.9263 0.20127 0.0
H749 H 0.5629 0.95093 0.20598 0.0
H750 H 0.60466 0.90898 0.17408 0.0
H751 H 0.57579 0.88456 0.16898 0.0
H752 H 0.46301 0.84869 0.09737 0.0
H753 H 0.48767 0.84431 0.12623 0.0
H754 H 0.41328 0.86004 0.14137 0.0
H755 H 0.43803 0.85612 0.17004 0.0
H756 H 0.5269 0.76212 0.24014 0.0
H757 H 0.50515 0.80402 0.28775 0.0
H758 H 0.5082 0.83338 0.26324 0.0
H759 H 0.52949 0.79143 0.21558 0.0
C760 C 0.17145 0.98292 0.64229 0.0
C761 C 0.18141 0.96444 0.64903 0.0
C762 C 0.17669 0.94858 0.61453 0.0
C763 C 0.18402 0.94752 0.63533 0.0
C764 C 0.1669 0.96727 0.60794 0.0
C765 C 0.16436 0.9841 0.62158 0.0
U766 U 0.1786 0.02152 0.68998 0.0
O767 O 0.1733 0.05572 0.68928 0.0
O768 O 0.1532 0.03562 0.70853 0.0
C769 C 0.15692 0.05473 0.70166 0.0
C770 C 0.1669 1.00078 0.65641 0.0
C771 C 0.13868 0.06881 0.69688 0.0
C772 C 0.10153 0.07773 0.70056 0.0
C773 C 0.11796 0.06307 0.70184 0.0
C774 C 0.12589 0.10418 0.68885 0.0
C775 C 0.10524 0.09869 0.69442 0.0
C776 C 0.14228 0.08953 0.69012 0.0
C777 C 0.22557 1.01431 0.7301 0.0
C778 C 0.23336 1.01103 0.76743 0.0
C779 C 0.26054 0.0222 0.7437 0.0
C780 C 0.24639 0.02083 0.72696 0.0
C781 C 0.2544 0.017 0.76423 0.0
C782 C 0.21922 1.00962 0.75066 0.0
C783 C 0.21194 1.00965 0.71164 0.0
O784 O 0.16013 0.99646 0.67533 0.0
O785 O 0.17965 0.0169 0.65583 0.0
O786 O 0.21278 0.02246 0.69547 0.0
O787 O 0.19297 1.00239 0.71504 0.0
H788 H 0.18702 0.96301 0.66491 0.0
H789 H 0.19192 0.93363 0.64106 0.0
H790 H 0.16068 0.9688 0.5923 0.0
H791 H 0.15642 0.99804 0.61598 0.0
H792 H 0.08591 0.07264 0.70471 0.0
H793 H 0.11448 0.04738 0.70735 0.0
H794 H 0.12968 0.1201 0.68437 0.0
H795 H 0.15803 0.09473 0.68658 0.0
H796 H 0.22793 1.00659 0.78284 0.0
H797 H 0.27641 0.02715 0.74046 0.0
H798 H 0.252 0.02428 0.71136 0.0
H799 H 0.20347 1.00419 0.75378 0.0
C800 C 0.79858 0.31654 0.03367 0.0
C801 C 0.79967 0.3045 0.01552 0.0
C802 C 0.7695 0.28324 0.02696 0.0
C803 C 0.78534 0.28805 1.01222 0.0
C804 C 0.76877 0.29533 0.04517 0.0
C805 C 0.78307 0.31164 0.04844 0.0
U806 U 0.84583 0.35627 0.02511 0.0
O807 O 0.84469 0.39045 0.03009 0.0
O808 O 0.86472 0.37083 0.04988 0.0
C809 C 0.85743 0.38975 0.04618 0.0
C810 C 0.81263 0.33471 0.03767 0.0
C811 C 0.85275 0.40358 0.06438 0.0
C812 C 0.85649 0.41206 0.1014 0.0
C813 C 0.85772 0.39762 0.08501 0.0
C814 C 0.84481 0.43871 0.07715 0.0
C815 C 0.85039 0.43301 0.09772 0.0
C816 C 0.84603 0.42428 0.06081 0.0
C817 C 0.88526 0.35016 0.97761 0.0
C818 C 0.92285 0.35062 0.96987 0.0
C819 C 0.89809 0.35703 0.94215 0.0
C820 C 0.88151 0.35468 0.95641 0.0
C821 C 0.91909 0.35485 0.94853 0.0
C822 C 0.90622 0.34826 0.98416 0.0
C823 C 0.86715 0.34493 0.99165 0.0
O824 O 0.83175 0.33084 0.04418 0.0
O825 O 0.81172 0.35068 0.02461 0.0
O826 O 0.85069 0.35726 0.99095 0.0
O827 O 0.87109 0.33786 1.01059 0.0
H828 H 0.81147 0.3079 1.00385 0.0
H829 H 0.78675 0.27908 0.9981 0.0
H830 H 0.75675 0.29263 0.05678 0.0
H831 H 0.78176 0.32072 0.06253 0.0
H832 H 0.86064 0.40681 0.11695 0.0
H833 H 0.86319 0.38193 0.08846 0.0
H834 H 0.84036 0.45464 0.0734 0.0
H835 H 0.84248 0.42963 0.04512 0.0
H836 H 0.9387 0.34913 0.97563 0.0
H837 H 0.89432 0.35994 0.92593 0.0
H838 H 0.86561 0.35581 0.95067 0.0
H839 H 0.90982 0.34456 1.00027 0.0
C840 C 0.79842 0.22753 0.51589 0.0
C841 C 0.79823 0.23826 0.53487 0.0
C842 C 0.76913 0.26061 0.52276 0.0
C843 C 0.78382 0.25461 0.53824 0.0
C844 C 0.76973 0.24989 0.5037 0.0
C845 C 0.78414 0.23369 0.50035 0.0
U846 U 0.84544 0.18762 0.52449 0.0
O847 O 0.8442 0.15343 0.51957 0.0
O848 O 0.86433 0.17296 0.49978 0.0
C849 C 0.85697 0.15407 0.5035 0.0
C850 C 0.81234 0.20927 0.51186 0.0
C851 C 0.85223 0.14026 0.4853 0.0
C852 C 0.85554 0.13194 0.4482 0.0
C853 C 0.85685 0.14634 0.46462 0.0
C854 C 0.84448 0.10509 0.47252 0.0
C855 C 0.84971 0.11091 0.45189 0.0
C856 C 0.84578 0.11947 0.4889 0.0
C857 C 0.88475 0.19384 0.57209 0.0
C858 C 0.92231 0.19342 0.57998 0.0
C859 C 0.89741 0.18718 0.60764 0.0
C860 C 0.88091 0.18944 0.5933 0.0
C861 C 0.91845 0.18932 0.60133 0.0
C862 C 0.90574 0.1957 0.56561 0.0
C863 C 0.86671 0.19901 0.55795 0.0
O864 O 0.83147 0.21304 0.5053 0.0
O865 O 0.81137 0.19333 0.52494 0.0
O866 O 0.85023 0.18671 0.55866 0.0
O867 O 0.87073 0.206 0.539 0.0
H868 H 0.80906 0.23388 0.54715 0.0
H869 H 0.78423 0.26254 0.55304 0.0
H870 H 0.75864 0.25354 0.49146 0.0
H871 H 0.78381 0.2256 0.48561 0.0
H872 H 0.85942 0.13729 0.43261 0.0
H873 H 0.86209 0.1621 0.46115 0.0
H874 H 0.84025 0.0891 0.47629 0.0
H875 H 0.8425 0.11404 0.50461 0.0
H876 H 0.93818 0.19488 0.57429 0.0
H877 H 0.89357 0.18436 0.62386 0.0
H878 H 0.86498 0.18834 0.59897 0.0
H879 H 0.90942 0.19931 0.5495 0.0
C880 C 0.63174 0.35911 0.56472 0.0
C881 C 0.61158 0.35091 0.56139 0.0
C882 C 0.60238 0.35457 0.59832 0.0
C883 C 0.59721 0.34861 0.57786 0.0
C884 C 0.62269 0.36251 0.60171 0.0
C885 C 0.63709 0.36481 0.58519 0.0
U886 U 0.67938 0.35322 0.52531 0.0
O887 O 0.67866 0.35821 0.49111 0.0
O888 O 0.69761 0.37877 0.51057 0.0
C889 C 0.6908 0.3748 0.49168 0.0
C890 C 0.64556 0.36429 0.54641 0.0
C891 C 0.68548 0.39287 0.47752 0.0
C892 C 0.68301 0.43048 0.47001 0.0
C893 C 0.68552 0.41374 0.4843 0.0
C894 C 0.68016 0.40597 0.44184 0.0
C895 C 0.68048 0.42692 0.44846 0.0
C896 C 0.68265 0.38929 0.45611 0.0
C897 C 0.71975 0.30661 0.53372 0.0
C898 C 0.74502 0.29023 0.51036 0.0
C899 C 0.74386 0.27965 0.5466 0.0
C900 C 0.7277 0.29409 0.55003 0.0
C901 C 0.75273 0.27722 0.52665 0.0
C902 C 0.72872 0.30467 0.51383 0.0
C903 C 0.70129 0.32025 0.53793 0.0
O904 O 0.66436 0.3718 0.55001 0.0
O905 O 0.64517 0.35169 0.53037 0.0
O906 O 0.68538 0.31923 0.525 0.0
O907 O 0.7048 0.33934 0.54445 0.0
H908 H 0.60664 0.34681 0.54581 0.0
H909 H 0.58174 0.34274 0.57435 0.0
H910 H 0.62755 0.36702 0.61718 0.0
H911 H 0.65229 0.37149 0.58844 0.0
H912 H 0.68303 0.44626 0.47592 0.0
H913 H 0.68784 0.4172 0.50061 0.0
H914 H 0.67859 0.40237 0.42548 0.0
H915 H 0.68294 0.37348 0.45025 0.0
H916 H 0.75151 0.28925 0.49483 0.0
H917 H 0.74889 0.26988 0.55954 0.0
H918 H 0.72098 0.29511 0.5655 0.0
H919 H 0.72294 0.31408 0.50093 0.0
C920 C 0.63244 0.18404 0.98477 0.0
C921 C 0.61218 0.19192 0.98818 0.0
C922 C 0.60292 0.18815 0.95127 0.0
C923 C 0.59772 0.19401 0.97176 0.0
C924 C 0.62335 0.18054 0.94781 0.0
C925 C 0.63783 0.17844 0.96427 0.0
U926 U 0.68014 0.19012 0.02415 0.0
O927 O 0.67936 0.18509 0.05834 0.0
O928 O 0.69835 0.16457 0.03889 0.0
C929 C 0.6915 0.16851 0.05778 0.0
C930 C 0.64635 0.179 1.00304 0.0
C931 C 0.68612 0.15041 0.07189 0.0
C932 C 0.6835 0.11279 0.07928 0.0
C933 C 0.68608 0.12956 0.06504 0.0
C934 C 0.68073 0.13723 0.10752 0.0
C935 C 0.68097 0.1163 0.10084 0.0
C936 C 0.68329 0.15394 0.09331 0.0
C937 C 0.72059 0.23671 0.01602 0.0
C938 C 0.74442 0.25462 0.03974 0.0
C939 C 0.74583 0.26253 1.00288 0.0
C940 C 0.72978 0.24795 0.99942 0.0
C941 C 0.75331 0.2664 0.02314 0.0
C942 C 0.72825 0.24005 0.03624 0.0
C943 C 0.70212 0.22311 1.01166 0.0
O944 O 0.66517 0.17156 0.99942 0.0
O945 O 0.64593 0.19162 0.01906 0.0
O946 O 0.68613 0.22411 0.02451 0.0
O947 O 0.70561 0.20405 1.00507 0.0
H948 H 0.60722 0.19592 1.00378 0.0
H949 H 0.58217 0.19962 0.97534 0.0
H950 H 0.62823 0.17612 0.93232 0.0
H951 H 0.65312 0.17201 0.96096 0.0
H952 H 0.68346 0.09703 0.07332 0.0
H953 H 0.6884 0.12614 0.04871 0.0
H954 H 0.67917 0.14078 0.1239 0.0
H955 H 0.68364 0.16973 0.09922 0.0
H956 H 0.74985 0.25671 0.05555 0.0
H957 H 0.75182 0.2713 0.98965 0.0
H958 H 0.72409 0.24586 0.98367 0.0
H959 H 0.72151 0.23166 0.04938 0.0
loop_
_geom_bond_atom_site_label_1
_geom_bond_atom_site_label_2
_geom_bond_distance
_geom_bond_site_symmetry_2
_ccdc_geom_bond_type
C0 C1 1.264 1_655 S
C0 C5 1.479 . S
C0 C10 1.465 . S
C1 C0 1.264 1_455 S
C1 C3 1.339 . S
C1 H28 0.931 . S
C2 C3 1.395 . S
C2 C4 1.320 1_455 S
C3 C1 1.339 . S
C3 C2 1.395 . S
C3 H29 0.929 . S
C4 C2 1.320 1_655 S
C4 C5 1.405 . S
C4 H30 0.930 . S
C5 C0 1.479 . S
C5 C4 1.405 . S
C5 H31 0.931 . S
U6 O7 2.454 . S
U6 O8 2.458 . S
U6 C9 2.984 . S
U6 C10 2.847 . S
U6 C23 2.882 1_655 S
U6 O24 2.441 . S
U6 O25 2.420 1_655 S
U6 O26 2.455 1_655 S
U6 O27 2.449 1_655 S
O7 U6 2.454 . S
O7 C9 1.353 . S
O8 U6 2.458 . S
O8 C9 1.286 . S
C9 U6 2.984 . S
C9 O7 1.353 . S
C9 O8 1.286 . S
C9 C11 1.363 . S
C10 C0 1.465 . S
C10 U6 2.847 . S
C10 O24 1.249 . S
C10 O25 1.202 1_655 S
C11 C9 1.363 . S
C11 C13 1.408 . S
C11 C16 1.342 . S
C12 C13 1.310 . S
C12 C15 1.461 . S
C12 H32 0.932 . S
C13 C11 1.408 . S
C13 C12 1.310 . S
C13 H33 0.930 . S
C14 C15 1.474 . S
C14 C16 1.285 . S
C14 H34 0.929 . S
C15 C12 1.461 . S
C15 C14 1.474 . S
C16 C11 1.342 . S
C16 C14 1.285 . S
C16 H35 0.930 . S
C17 C20 1.424 . S
C17 C22 1.245 . S
C17 C23 1.428 . S
C18 C21 1.260 . S
C18 C22 1.477 . S
C18 H36 0.932 . S
C19 C20 1.384 . S
C19 C21 1.479 . S
C19 H37 0.929 . S
C20 C17 1.424 . S
C20 C19 1.384 . S
C20 H38 0.928 . S
C21 C18 1.260 . S
C21 C19 1.479 . S
C22 C17 1.245 . S
C22 C18 1.477 . S
C22 H39 0.932 . S
C23 U6 2.882 1_455 S
C23 C17 1.428 . S
C23 O26 1.301 . S
C23 O27 1.282 . S
O24 U6 2.441 . S
O24 C10 1.249 . S
O25 U6 2.420 1_455 S
O25 C10 1.202 1_455 S
O26 U6 2.455 1_455 S
O26 C23 1.301 . S
O27 U6 2.449 1_455 S
O27 C23 1.282 . S
H28 C1 0.931 . S
H29 C3 0.929 . S
H30 C4 0.930 . S
H31 C5 0.931 . S
H32 C12 0.932 . S
H33 C13 0.930 . S
H34 C14 0.929 . S
H35 C16 0.930 . S
H36 C18 0.932 . S
H37 C19 0.929 . S
H38 C20 0.928 . S
H39 C22 0.932 . S
C40 C41 1.264 . S
C40 C45 1.479 . S
C40 C50 1.465 . S
C41 C40 1.264 . S
C41 C43 1.339 . S
C41 H68 0.931 . S
C42 C43 1.395 . S
C42 C44 1.320 . S
C43 C41 1.339 . S
C43 C42 1.395 . S
C43 H69 0.929 . S
C44 C42 1.320 . S
C44 C45 1.405 . S
C44 H70 0.930 . S
C45 C40 1.479 . S
C45 C44 1.405 . S
C45 H71 0.931 . S
U46 O47 2.454 . S
U46 O48 2.458 . S
U46 C49 2.984 . S
U46 C50 2.847 . S
U46 C63 2.882 . S
U46 O64 2.441 . S
U46 O65 2.420 . S
U46 O66 2.455 . S
U46 O67 2.449 . S
O47 U46 2.454 . S
O47 C49 1.353 . S
O48 U46 2.458 . S
O48 C49 1.286 . S
C49 U46 2.984 . S
C49 O47 1.353 . S
C49 O48 1.286 . S
C49 C51 1.363 . S
C50 C40 1.465 . S
C50 U46 2.847 . S
C50 O64 1.249 . S
C50 O65 1.202 . S
C51 C49 1.363 . S
C51 C53 1.408 . S
C51 C56 1.342 . S
C52 C53 1.310 . S
C52 C55 1.461 . S
C52 H72 0.932 . S
C53 C51 1.408 . S
C53 C52 1.310 . S
C53 H73 0.930 . S
C54 C55 1.474 . S
C54 C56 1.285 . S
C54 H74 0.929 . S
C55 C52 1.461 . S
C55 C54 1.474 . S
C56 C51 1.342 . S
C56 C54 1.285 . S
C56 H75 0.930 . S
C57 C60 1.424 . S
C57 C62 1.245 . S
C57 C63 1.428 . S
C58 C61 1.260 . S
C58 C62 1.477 . S
C58 H76 0.932 . S
C59 C60 1.384 . S
C59 C61 1.479 . S
C59 H77 0.929 . S
C60 C57 1.424 . S
C60 C59 1.384 . S
C60 H78 0.928 . S
C61 C58 1.260 . S
C61 C59 1.479 . S
C62 C57 1.245 . S
C62 C58 1.477 . S
C62 H79 0.932 . S
C63 U46 2.882 . S
C63 C57 1.428 . S
C63 O66 1.301 . S
C63 O67 1.282 . S
O64 U46 2.441 . S
O64 C50 1.249 . S
O65 U46 2.420 . S
O65 C50 1.202 . S
O66 U46 2.455 . S
O66 C63 1.301 . S
O67 U46 2.449 . S
O67 C63 1.282 . S
H68 C41 0.931 . S
H69 C43 0.929 . S
H70 C44 0.930 . S
H71 C45 0.931 . S
H72 C52 0.932 . S
H73 C53 0.930 . S
H74 C54 0.929 . S
H75 C56 0.930 . S
H76 C58 0.932 . S
H77 C59 0.929 . S
H78 C60 0.928 . S
H79 C62 0.932 . S
C80 C81 1.264 . S
C80 C85 1.479 . S
C80 C90 1.465 . S
C81 C80 1.264 . S
C81 C83 1.339 . S
C81 H108 0.931 . S
C82 C83 1.395 . S
C82 C84 1.320 . S
C83 C81 1.339 . S
C83 C82 1.395 . S
C83 H109 0.929 . S
C84 C82 1.320 . S
C84 C85 1.405 . S
C84 H110 0.930 . S
C85 C80 1.479 . S
C85 C84 1.405 . S
C85 H111 0.931 . S
U86 O87 2.454 . S
U86 O88 2.458 . S
U86 C89 2.984 . S
U86 C90 2.847 . S
U86 C103 2.882 . S
U86 O104 2.441 . S
U86 O105 2.420 . S
U86 O106 2.455 . S
U86 O107 2.449 . S
O87 U86 2.454 . S
O87 C89 1.353 . S
O88 U86 2.458 . S
O88 C89 1.286 . S
C89 U86 2.984 . S
C89 O87 1.353 . S
C89 O88 1.286 . S
C89 C91 1.363 . S
C90 C80 1.465 . S
C90 U86 2.847 . S
C90 O104 1.249 . S
C90 O105 1.202 . S
C91 C89 1.363 . S
C91 C93 1.408 . S
C91 C96 1.342 . S
C92 C93 1.310 . S
C92 C95 1.461 . S
C92 H112 0.932 . S
C93 C91 1.408 . S
C93 C92 1.310 . S
C93 H113 0.930 . S
C94 C95 1.474 . S
C94 C96 1.285 . S
C94 H114 0.929 . S
C95 C92 1.461 . S
C95 C94 1.474 . S
C96 C91 1.342 . S
C96 C94 1.285 . S
C96 H115 0.930 . S
C97 C100 1.424 . S
C97 C102 1.245 . S
C97 C103 1.428 . S
C98 C101 1.260 . S
C98 C102 1.477 . S
C98 H116 0.932 . S
C99 C100 1.384 . S
C99 C101 1.479 . S
C99 H117 0.929 . S
C100 C97 1.424 . S
C100 C99 1.384 . S
C100 H118 0.928 . S
C101 C98 1.260 . S
C101 C99 1.479 . S
C102 C97 1.245 . S
C102 C98 1.477 . S
C102 H119 0.932 . S
C103 U86 2.882 . S
C103 C97 1.428 . S
C103 O106 1.301 . S
C103 O107 1.282 . S
O104 U86 2.441 . S
O104 C90 1.249 . S
O105 U86 2.420 . S
O105 C90 1.202 . S
O106 U86 2.455 . S
O106 C103 1.301 . S
O107 U86 2.449 . S
O107 C103 1.282 . S
H108 C81 0.931 . S
H109 C83 0.929 . S
H110 C84 0.930 . S
H111 C85 0.931 . S
H112 C92 0.932 . S
H113 C93 0.930 . S
H114 C94 0.929 . S
H115 C96 0.930 . S
H116 C98 0.932 . S
H117 C99 0.929 . S
H118 C100 0.928 . S
H119 C102 0.932 . S
C120 C121 1.264 . S
C120 C125 1.479 . S
C120 C130 1.465 . S
C121 C120 1.264 . S
C121 C123 1.339 . S
C121 H148 0.931 . S
C122 C123 1.395 . S
C122 C124 1.320 . S
C123 C121 1.339 . S
C123 C122 1.395 . S
C123 H149 0.929 . S
C124 C122 1.320 . S
C124 C125 1.405 . S
C124 H150 0.930 . S
C125 C120 1.479 . S
C125 C124 1.405 . S
C125 H151 0.931 . S
U126 O127 2.454 1_545 S
U126 O128 2.458 1_545 S
U126 C129 2.984 1_545 S
U126 C130 2.847 . S
U126 C143 2.882 . S
U126 O144 2.441 . S
U126 O145 2.420 . S
U126 O146 2.455 1_545 S
U126 O147 2.449 . S
O127 U126 2.454 1_565 S
O127 C129 1.353 . S
O128 U126 2.458 1_565 S
O128 C129 1.286 . S
C129 U126 2.984 1_565 S
C129 O127 1.353 . S
C129 O128 1.286 . S
C129 C131 1.363 . S
C130 C120 1.465 . S
C130 U126 2.847 . S
C130 O144 1.249 . S
C130 O145 1.202 . S
C131 C129 1.363 . S
C131 C133 1.408 . S
C131 C136 1.342 . S
C132 C133 1.310 . S
C132 C135 1.461 . S
C132 H152 0.932 . S
C133 C131 1.408 . S
C133 C132 1.310 . S
C133 H153 0.930 . S
C134 C135 1.474 . S
C134 C136 1.285 . S
C134 H154 0.929 . S
C135 C132 1.461 . S
C135 C134 1.474 . S
C136 C131 1.342 . S
C136 C134 1.285 . S
C136 H155 0.930 . S
C137 C140 1.424 . S
C137 C142 1.245 1_545 S
C137 C143 1.428 . S
C138 C141 1.260 1_565 S
C138 C142 1.477 . S
C138 H156 0.932 . S
C139 C140 1.384 . S
C139 C141 1.479 . S
C139 H157 0.929 . S
C140 C137 1.424 . S
C140 C139 1.384 . S
C140 H158 0.928 . S
C141 C138 1.260 1_545 S
C141 C139 1.479 . S
C142 C137 1.245 1_565 S
C142 C138 1.477 . S
C142 H159 0.932 . S
C143 U126 2.882 . S
C143 C137 1.428 . S
C143 O146 1.301 1_545 S
C143 O147 1.282 . S
O144 U126 2.441 . S
O144 C130 1.249 . S
O145 U126 2.420 . S
O145 C130 1.202 . S
O146 U126 2.455 1_565 S
O146 C143 1.301 1_565 S
O147 U126 2.449 . S
O147 C143 1.282 . S
H148 C121 0.931 . S
H149 C123 0.929 . S
H150 C124 0.930 . S
H151 C125 0.931 . S
H152 C132 0.932 . S
H153 C133 0.930 . S
H154 C134 0.929 . S
H155 C136 0.930 . S
H156 C138 0.932 . S
H157 C139 0.929 . S
H158 C140 0.928 . S
H159 C142 0.932 . S
C160 C161 1.264 1_655 S
C160 C165 1.479 . S
C160 C170 1.465 . S
C161 C160 1.264 1_455 S
C161 C163 1.339 . S
C161 H188 0.931 . S
C162 C163 1.395 . S
C162 C164 1.320 1_455 S
C163 C161 1.339 . S
C163 C162 1.395 . S
C163 H189 0.929 . S
C164 C162 1.320 1_655 S
C164 C165 1.405 . S
C164 H190 0.930 . S
C165 C160 1.479 . S
C165 C164 1.405 . S
C165 H191 0.931 . S
U166 O167 2.454 . S
U166 O168 2.458 . S
U166 C169 2.984 . S
U166 C170 2.847 . S
U166 C183 2.882 1_655 S
U166 O184 2.441 . S
U166 O185 2.420 1_655 S
U166 O186 2.455 1_655 S
U166 O187 2.449 1_655 S
O167 U166 2.454 . S
O167 C169 1.353 . S
O168 U166 2.458 . S
O168 C169 1.286 . S
C169 U166 2.984 . S
C169 O167 1.353 . S
C169 O168 1.286 . S
C169 C171 1.363 . S
C170 C160 1.465 . S
C170 U166 2.847 . S
C170 O184 1.249 . S
C170 O185 1.202 1_655 S
C171 C169 1.363 . S
C171 C173 1.408 . S
C171 C176 1.342 . S
C172 C173 1.310 . S
C172 C175 1.461 . S
C172 H192 0.932 . S
C173 C171 1.408 . S
C173 C172 1.310 . S
C173 H193 0.930 . S
C174 C175 1.474 . S
C174 C176 1.285 . S
C174 H194 0.929 . S
C175 C172 1.461 . S
C175 C174 1.474 . S
C176 C171 1.342 . S
C176 C174 1.285 . S
C176 H195 0.930 . S
C177 C180 1.424 . S
C177 C182 1.245 . S
C177 C183 1.428 . S
C178 C181 1.260 . S
C178 C182 1.477 . S
C178 H196 0.932 . S
C179 C180 1.384 . S
C179 C181 1.479 . S
C179 H197 0.929 . S
C180 C177 1.424 . S
C180 C179 1.384 . S
C180 H198 0.928 . S
C181 C178 1.260 . S
C181 C179 1.479 . S
C182 C177 1.245 . S
C182 C178 1.477 . S
C182 H199 0.932 . S
C183 U166 2.882 1_455 S
C183 C177 1.428 . S
C183 O186 1.301 . S
C183 O187 1.282 . S
O184 U166 2.441 . S
O184 C170 1.249 . S
O185 U166 2.420 1_455 S
O185 C170 1.202 1_455 S
O186 U166 2.455 1_455 S
O186 C183 1.301 . S
O187 U166 2.449 1_455 S
O187 C183 1.282 . S
H188 C161 0.931 . S
H189 C163 0.929 . S
H190 C164 0.930 . S
H191 C165 0.931 . S
H192 C172 0.932 . S
H193 C173 0.930 . S
H194 C174 0.929 . S
H195 C176 0.930 . S
H196 C178 0.932 . S
H197 C179 0.929 . S
H198 C180 0.928 . S
H199 C182 0.932 . S
C200 C201 1.264 . S
C200 C205 1.479 . S
C200 C210 1.465 . S
C201 C200 1.264 . S
C201 C203 1.339 . S
C201 H228 0.931 . S
C202 C203 1.395 . S
C202 C204 1.320 . S
C203 C201 1.339 . S
C203 C202 1.395 . S
C203 H229 0.929 . S
C204 C202 1.320 . S
C204 C205 1.405 . S
C204 H230 0.930 . S
C205 C200 1.479 . S
C205 C204 1.405 . S
C205 H231 0.931 . S
U206 O207 2.454 . S
U206 O208 2.458 . S
U206 C209 2.984 . S
U206 C210 2.847 . S
U206 C223 2.882 . S
U206 O224 2.441 . S
U206 O225 2.420 . S
U206 O226 2.455 . S
U206 O227 2.449 . S
O207 U206 2.454 . S
O207 C209 1.353 . S
O208 U206 2.458 . S
O208 C209 1.286 . S
C209 U206 2.984 . S
C209 O207 1.353 . S
C209 O208 1.286 . S
C209 C211 1.363 . S
C210 C200 1.465 . S
C210 U206 2.847 . S
C210 O224 1.249 . S
C210 O225 1.202 . S
C211 C209 1.363 . S
C211 C213 1.408 . S
C211 C216 1.342 . S
C212 C213 1.310 . S
C212 C215 1.461 . S
C212 H232 0.932 . S
C213 C211 1.408 . S
C213 C212 1.310 . S
C213 H233 0.930 . S
C214 C215 1.474 . S
C214 C216 1.285 . S
C214 H234 0.929 . S
C215 C212 1.461 . S
C215 C214 1.474 . S
C216 C211 1.342 . S
C216 C214 1.285 . S
C216 H235 0.930 . S
C217 C220 1.424 . S
C217 C222 1.245 . S
C217 C223 1.428 . S
C218 C221 1.260 . S
C218 C222 1.477 . S
C218 H236 0.932 . S
C219 C220 1.384 . S
C219 C221 1.479 . S
C219 H237 0.929 . S
C220 C217 1.424 . S
C220 C219 1.384 . S
C220 H238 0.928 . S
C221 C218 1.260 . S
C221 C219 1.479 . S
C222 C217 1.245 . S
C222 C218 1.477 . S
C222 H239 0.932 . S
C223 U206 2.882 . S
C223 C217 1.428 . S
C223 O226 1.301 . S
C223 O227 1.282 . S
O224 U206 2.441 . S
O224 C210 1.249 . S
O225 U206 2.420 . S
O225 C210 1.202 . S
O226 U206 2.455 . S
O226 C223 1.301 . S
O227 U206 2.449 . S
O227 C223 1.282 . S
H228 C201 0.931 . S
H229 C203 0.929 . S
H230 C204 0.930 . S
H231 C205 0.931 . S
H232 C212 0.932 . S
H233 C213 0.930 . S
H234 C214 0.929 . S
H235 C216 0.930 . S
H236 C218 0.932 . S
H237 C219 0.929 . S
H238 C220 0.928 . S
H239 C222 0.932 . S
C240 C241 1.264 . S
C240 C245 1.479 . S
C240 C250 1.465 . S
C241 C240 1.264 . S
C241 C243 1.339 . S
C241 H268 0.931 . S
C242 C243 1.395 . S
C242 C244 1.320 . S
C243 C241 1.339 . S
C243 C242 1.395 . S
C243 H269 0.929 . S
C244 C242 1.320 . S
C244 C245 1.405 . S
C244 H270 0.930 . S
C245 C240 1.479 . S
C245 C244 1.405 . S
C245 H271 0.931 . S
U246 O247 2.454 . S
U246 O248 2.458 . S
U246 C249 2.984 . S
U246 C250 2.847 . S
U246 C263 2.882 . S
U246 O264 2.441 . S
U246 O265 2.420 . S
U246 O266 2.455 . S
U246 O267 2.449 . S
O247 U246 2.454 . S
O247 C249 1.353 . S
O248 U246 2.458 . S
O248 C249 1.286 . S
C249 U246 2.984 . S
C249 O247 1.353 . S
C249 O248 1.286 . S
C249 C251 1.363 . S
C250 C240 1.465 . S
C250 U246 2.847 . S
C250 O264 1.249 . S
C250 O265 1.202 . S
C251 C249 1.363 . S
C251 C253 1.408 . S
C251 C256 1.342 . S
C252 C253 1.310 . S
C252 C255 1.461 . S
C252 H272 0.932 . S
C253 C251 1.408 . S
C253 C252 1.310 . S
C253 H273 0.930 . S
C254 C255 1.474 . S
C254 C256 1.285 . S
C254 H274 0.929 . S
C255 C252 1.461 . S
C255 C254 1.474 . S
C256 C251 1.342 . S
C256 C254 1.285 . S
C256 H275 0.930 . S
C257 C260 1.424 . S
C257 C262 1.245 . S
C257 C263 1.428 . S
C258 C261 1.260 . S
C258 C262 1.477 . S
C258 H276 0.932 . S
C259 C260 1.384 . S
C259 C261 1.479 . S
C259 H277 0.929 . S
C260 C257 1.424 . S
C260 C259 1.384 . S
C260 H278 0.928 . S
C261 C258 1.260 . S
C261 C259 1.479 . S
C262 C257 1.245 . S
C262 C258 1.477 . S
C262 H279 0.932 . S
C263 U246 2.882 . S
C263 C257 1.428 . S
C263 O266 1.301 . S
C263 O267 1.282 . S
O264 U246 2.441 . S
O264 C250 1.249 . S
O265 U246 2.420 . S
O265 C250 1.202 . S
O266 U246 2.455 . S
O266 C263 1.301 . S
O267 U246 2.449 . S
O267 C263 1.282 . S
H268 C241 0.931 . S
H269 C243 0.929 . S
H270 C244 0.930 . S
H271 C245 0.931 . S
H272 C252 0.932 . S
H273 C253 0.930 . S
H274 C254 0.929 . S
H275 C256 0.930 . S
H276 C258 0.932 . S
H277 C259 0.929 . S
H278 C260 0.928 . S
H279 C262 0.932 . S
C280 C281 1.264 . S
C280 C285 1.479 . S
C280 C290 1.465 . S
C281 C280 1.264 . S
C281 C283 1.338 . S
C281 H308 0.931 1_545 S
C282 C283 1.393 . S
C282 C284 1.320 . S
C283 C281 1.338 . S
C283 C282 1.393 . S
C283 H309 0.931 1_545 S
C284 C282 1.320 . S
C284 C285 1.405 . S
C284 H310 0.930 . S
C285 C280 1.479 . S
C285 C284 1.405 . S
C285 H311 0.931 . S
U286 O287 2.454 . S
U286 O288 2.458 . S
U286 C289 2.984 . S
U286 C290 2.847 . S
U286 C303 2.882 1_545 S
U286 O304 2.441 . S
U286 O305 2.420 . S
U286 O306 2.455 . S
U286 O307 2.449 1_545 S
O287 U286 2.454 . S
O287 C289 1.353 . S
O288 U286 2.458 . S
O288 C289 1.286 . S
C289 U286 2.984 . S
C289 O287 1.353 . S
C289 O288 1.286 . S
C289 C291 1.363 . S
C290 C280 1.465 . S
C290 U286 2.847 . S
C290 O304 1.249 . S
C290 O305 1.202 . S
C291 C289 1.363 . S
C291 C293 1.408 . S
C291 C296 1.342 . S
C292 C293 1.310 . S
C292 C295 1.461 . S
C292 H312 0.932 . S
C293 C291 1.408 . S
C293 C292 1.310 . S
C293 H313 0.930 . S
C294 C295 1.474 . S
C294 C296 1.285 . S
C294 H314 0.929 . S
C295 C292 1.461 . S
C295 C294 1.474 . S
C296 C291 1.342 . S
C296 C294 1.285 . S
C296 H315 0.930 . S
C297 C300 1.424 . S
C297 C302 1.245 . S
C297 C303 1.428 . S
C298 C301 1.260 . S
C298 C302 1.477 . S
C298 H316 0.932 . S
C299 C300 1.384 . S
C299 C301 1.479 . S
C299 H317 0.929 . S
C300 C297 1.424 . S
C300 C299 1.384 . S
C300 H318 0.928 . S
C301 C298 1.260 . S
C301 C299 1.479 . S
C302 C297 1.245 . S
C302 C298 1.477 . S
C302 H319 0.932 . S
C303 U286 2.882 1_565 S
C303 C297 1.428 . S
C303 O306 1.301 1_565 S
C303 O307 1.282 . S
O304 U286 2.441 . S
O304 C290 1.249 . S
O305 U286 2.420 . S
O305 C290 1.202 . S
O306 U286 2.455 . S
O306 C303 1.301 1_545 S
O307 U286 2.449 1_565 S
O307 C303 1.282 . S
H308 C281 0.931 1_565 S
H309 C283 0.931 1_565 S
H310 C284 0.930 . S
H311 C285 0.931 . S
H312 C292 0.932 . S
H313 C293 0.930 . S
H314 C294 0.929 . S
H315 C296 0.930 . S
H316 C298 0.932 . S
H317 C299 0.929 . S
H318 C300 0.928 . S
H319 C302 0.932 . S
C320 C321 1.264 . S
C320 C325 1.479 . S
C320 C330 1.465 . S
C321 C320 1.264 . S
C321 C323 1.339 . S
C321 H348 0.931 . S
C322 C323 1.395 . S
C322 C324 1.320 . S
C323 C321 1.339 . S
C323 C322 1.395 . S
C323 H349 0.929 . S
C324 C322 1.320 . S
C324 C325 1.405 . S
C324 H350 0.930 . S
C325 C320 1.479 . S
C325 C324 1.405 . S
C325 H351 0.931 . S
U326 O327 2.466 . S
U326 O328 2.477 . S
U326 C329 3.002 . S
U326 C330 2.832 1_554 S
U326 C343 2.881 1_554 S
U326 O344 2.432 1_554 S
U326 O345 2.402 1_554 S
U326 O346 2.462 . S
U326 O347 2.439 1_554 S
O327 U326 2.466 . S
O327 C329 1.353 . S
O328 U326 2.477 . S
O328 C329 1.286 . S
C329 U326 3.002 . S
C329 O327 1.353 . S
C329 O328 1.286 . S
C329 C331 1.363 . S
C330 C320 1.465 . S
C330 U326 2.832 1_556 S
C330 O344 1.249 . S
C330 O345 1.202 . S
C331 C329 1.363 . S
C331 C333 1.408 . S
C331 C336 1.342 . S
C332 C333 1.310 . S
C332 C335 1.461 . S
C332 H352 0.932 . S
C333 C331 1.408 . S
C333 C332 1.310 . S
C333 H353 0.930 . S
C334 C335 1.474 . S
C334 C336 1.285 . S
C334 H354 0.929 . S
C335 C332 1.461 . S
C335 C334 1.474 . S
C336 C331 1.342 . S
C336 C334 1.285 . S
C336 H355 0.930 . S
C337 C340 1.450 . S
C337 C342 1.214 1_556 S
C337 C343 1.431 . S
C338 C341 1.291 . S
C338 C342 1.477 . S
C338 H356 0.932 . S
C339 C340 1.384 . S
C339 C341 1.440 1_556 S
C339 H357 0.929 . S
C340 C337 1.450 . S
C340 C339 1.384 . S
C340 H358 0.928 . S
C341 C338 1.291 . S
C341 C339 1.440 1_554 S
C342 C337 1.214 1_554 S
C342 C338 1.477 . S
C342 H359 0.932 . S
C343 U326 2.881 1_556 S
C343 C337 1.431 . S
C343 O346 1.301 1_556 S
C343 O347 1.282 . S
O344 U326 2.432 1_556 S
O344 C330 1.249 . S
O345 U326 2.402 1_556 S
O345 C330 1.202 . S
O346 U326 2.462 . S
O346 C343 1.301 1_554 S
O347 U326 2.439 1_556 S
O347 C343 1.282 . S
H348 C321 0.931 . S
H349 C323 0.929 . S
H350 C324 0.930 . S
H351 C325 0.931 . S
H352 C332 0.932 . S
H353 C333 0.930 . S
H354 C334 0.929 . S
H355 C336 0.930 . S
H356 C338 0.932 . S
H357 C339 0.929 . S
H358 C340 0.928 . S
H359 C342 0.932 . S
C360 C361 1.264 . S
C360 C365 1.479 . S
C360 C370 1.465 . S
C361 C360 1.264 . S
C361 C363 1.339 . S
C361 H388 0.931 . S
C362 C363 1.395 . S
C362 C364 1.320 . S
C363 C361 1.339 . S
C363 C362 1.395 . S
C363 H389 0.929 . S
C364 C362 1.320 . S
C364 C365 1.405 . S
C364 H390 0.930 . S
C365 C360 1.479 . S
C365 C364 1.405 . S
C365 H391 0.931 . S
U366 O367 2.454 . S
U366 O368 2.458 . S
U366 C369 2.984 . S
U366 C370 2.847 . S
U366 C383 2.882 . S
U366 O384 2.441 . S
U366 O385 2.420 . S
U366 O386 2.455 . S
U366 O387 2.449 . S
O367 U366 2.454 . S
O367 C369 1.353 . S
O368 U366 2.458 . S
O368 C369 1.286 . S
C369 U366 2.984 . S
C369 O367 1.353 . S
C369 O368 1.286 . S
C369 C371 1.363 . S
C370 C360 1.465 . S
C370 U366 2.847 . S
C370 O384 1.249 . S
C370 O385 1.202 . S
C371 C369 1.363 . S
C371 C373 1.408 . S
C371 C376 1.342 . S
C372 C373 1.310 . S
C372 C375 1.461 . S
C372 H392 0.932 . S
C373 C371 1.408 . S
C373 C372 1.310 . S
C373 H393 0.930 . S
C374 C375 1.474 . S
C374 C376 1.285 . S
C374 H394 0.929 . S
C375 C372 1.461 . S
C375 C374 1.474 . S
C376 C371 1.342 . S
C376 C374 1.285 . S
C376 H395 0.930 . S
C377 C380 1.424 . S
C377 C382 1.245 . S
C377 C383 1.428 . S
C378 C381 1.260 . S
C378 C382 1.477 . S
C378 H396 0.932 . S
C379 C380 1.384 . S
C379 C381 1.479 . S
C379 H397 0.929 . S
C380 C377 1.424 . S
C380 C379 1.384 . S
C380 H398 0.928 . S
C381 C378 1.260 . S
C381 C379 1.479 . S
C382 C377 1.245 . S
C382 C378 1.477 . S
C382 H399 0.932 . S
C383 U366 2.882 . S
C383 C377 1.428 . S
C383 O386 1.301 . S
C383 O387 1.282 . S
O384 U366 2.441 . S
O384 C370 1.249 . S
O385 U366 2.420 . S
O385 C370 1.202 . S
O386 U366 2.455 . S
O386 C383 1.301 . S
O387 U366 2.449 . S
O387 C383 1.282 . S
H388 C361 0.931 . S
H389 C363 0.929 . S
H390 C364 0.930 . S
H391 C365 0.931 . S
H392 C372 0.932 . S
H393 C373 0.930 . S
H394 C374 0.929 . S
H395 C376 0.930 . S
H396 C378 0.932 . S
H397 C379 0.929 . S
H398 C380 0.928 . S
H399 C382 0.932 . S
C400 C401 1.264 . S
C400 C405 1.479 . S
C400 C410 1.465 . S
C401 C400 1.264 . S
C401 C403 1.339 . S
C401 H428 0.931 . S
C402 C403 1.395 . S
C402 C404 1.320 . S
C403 C401 1.339 . S
C403 C402 1.395 . S
C403 H429 0.929 . S
C404 C402 1.320 . S
C404 C405 1.405 . S
C404 H430 0.930 . S
C405 C400 1.479 . S
C405 C404 1.405 . S
C405 H431 0.931 . S
U406 O407 2.454 . S
U406 O408 2.458 . S
U406 C409 2.984 . S
U406 C410 2.847 . S
U406 C423 2.882 . S
U406 O424 2.441 . S
U406 O425 2.420 . S
U406 O426 2.455 . S
U406 O427 2.449 . S
O407 U406 2.454 . S
O407 C409 1.353 . S
O408 U406 2.458 . S
O408 C409 1.286 . S
C409 U406 2.984 . S
C409 O407 1.353 . S
C409 O408 1.286 . S
C409 C411 1.363 . S
C410 C400 1.465 . S
C410 U406 2.847 . S
C410 O424 1.249 . S
C410 O425 1.202 . S
C411 C409 1.363 . S
C411 C413 1.408 . S
C411 C416 1.342 . S
C412 C413 1.310 . S
C412 C415 1.461 . S
C412 H432 0.932 . S
C413 C411 1.408 . S
C413 C412 1.310 . S
C413 H433 0.930 . S
C414 C415 1.474 . S
C414 C416 1.285 . S
C414 H434 0.929 . S
C415 C412 1.461 . S
C415 C414 1.474 . S
C416 C411 1.342 . S
C416 C414 1.285 . S
C416 H435 0.930 . S
C417 C420 1.424 . S
C417 C422 1.245 . S
C417 C423 1.428 . S
C418 C421 1.260 . S
C418 C422 1.477 . S
C418 H436 0.932 . S
C419 C420 1.384 . S
C419 C421 1.479 . S
C419 H437 0.929 . S
C420 C417 1.424 . S
C420 C419 1.384 . S
C420 H438 0.928 . S
C421 C418 1.260 . S
C421 C419 1.479 . S
C422 C417 1.245 . S
C422 C418 1.477 . S
C422 H439 0.932 . S
C423 U406 2.882 . S
C423 C417 1.428 . S
C423 O426 1.301 . S
C423 O427 1.282 . S
O424 U406 2.441 . S
O424 C410 1.249 . S
O425 U406 2.420 . S
O425 C410 1.202 . S
O426 U406 2.455 . S
O426 C423 1.301 . S
O427 U406 2.449 . S
O427 C423 1.282 . S
H428 C401 0.931 . S
H429 C403 0.929 . S
H430 C404 0.930 . S
H431 C405 0.931 . S
H432 C412 0.932 . S
H433 C413 0.930 . S
H434 C414 0.929 . S
H435 C416 0.930 . S
H436 C418 0.932 . S
H437 C419 0.929 . S
H438 C420 0.928 . S
H439 C422 0.932 . S
C440 C441 1.264 1_554 S
C440 C445 1.479 . S
C440 C450 1.465 . S
C441 C440 1.264 1_556 S
C441 C443 1.339 . S
C441 H468 0.931 . S
C442 C443 1.395 1_554 S
C442 C444 1.320 . S
C443 C441 1.339 . S
C443 C442 1.395 1_556 S
C443 H469 0.929 . S
C444 C442 1.320 . S
C444 C445 1.405 . S
C444 H470 0.930 . S
C445 C440 1.479 . S
C445 C444 1.405 . S
C445 H471 0.931 . S
U446 O447 2.454 . S
U446 O448 2.458 . S
U446 C449 2.984 . S
U446 C450 2.847 . S
U446 C463 2.882 1_554 S
U446 O464 2.441 . S
U446 O465 2.420 . S
U446 O466 2.444 1_554 S
U446 O467 2.449 1_554 S
O447 U446 2.454 . S
O447 C449 1.353 . S
O448 U446 2.458 . S
O448 C449 1.286 . S
C449 U446 2.984 . S
C449 O447 1.353 . S
C449 O448 1.286 . S
C449 C451 1.363 . S
C450 C440 1.465 . S
C450 U446 2.847 . S
C450 O464 1.249 . S
C450 O465 1.202 . S
C451 C449 1.363 . S
C451 C453 1.408 . S
C451 C456 1.342 . S
C452 C453 1.310 . S
C452 C455 1.461 . S
C452 H472 0.932 . S
C453 C451 1.408 . S
C453 C452 1.310 . S
C453 H473 0.930 . S
C454 C455 1.474 . S
C454 C456 1.285 . S
C454 H474 0.929 . S
C455 C452 1.461 . S
C455 C454 1.474 . S
C456 C451 1.342 . S
C456 C454 1.285 . S
C456 H475 0.930 . S
C457 C460 1.424 . S
C457 C462 1.245 . S
C457 C463 1.428 . S
C458 C461 1.260 . S
C458 C462 1.477 . S
C458 H476 0.932 . S
C459 C460 1.384 . S
C459 C461 1.479 . S
C459 H477 0.929 . S
C460 C457 1.424 . S
C460 C459 1.384 . S
C460 H478 0.928 . S
C461 C458 1.260 . S
C461 C459 1.479 . S
C462 C457 1.245 . S
C462 C458 1.477 . S
C462 H479 0.932 . S
C463 U446 2.882 1_556 S
C463 C457 1.428 . S
C463 O466 1.320 . S
C463 O467 1.282 . S
O464 U446 2.441 . S
O464 C450 1.249 . S
O465 U446 2.420 . S
O465 C450 1.202 . S
O466 U446 2.444 1_556 S
O466 C463 1.320 . S
O467 U446 2.449 1_556 S
O467 C463 1.282 . S
H468 C441 0.931 . S
H469 C443 0.929 . S
H470 C444 0.930 . S
H471 C445 0.931 . S
H472 C452 0.932 . S
H473 C453 0.930 . S
H474 C454 0.929 . S
H475 C456 0.930 . S
H476 C458 0.932 . S
H477 C459 0.929 . S
H478 C460 0.928 . S
H479 C462 0.932 . S
C480 C481 1.264 . S
C480 C485 1.479 1_455 S
C480 C490 1.465 . S
C481 C480 1.264 . S
C481 C483 1.339 . S
C481 H508 0.931 . S
C482 C483 1.395 . S
C482 C484 1.320 1_455 S
C483 C481 1.339 . S
C483 C482 1.395 . S
C483 H509 0.929 . S
C484 C482 1.320 1_655 S
C484 C485 1.405 . S
C484 H510 0.930 . S
C485 C480 1.479 1_655 S
C485 C484 1.405 . S
C485 H511 0.931 . S
U486 O487 2.454 1_455 S
U486 O488 2.458 1_455 S
U486 C489 2.984 1_455 S
U486 C490 2.847 . S
U486 C503 2.882 . S
U486 O504 2.442 1_455 S
U486 O505 2.420 . S
U486 O506 2.455 . S
U486 O507 2.449 . S
O487 U486 2.454 1_655 S
O487 C489 1.353 . S
O488 U486 2.458 1_655 S
O488 C489 1.286 . S
C489 U486 2.984 1_655 S
C489 O487 1.353 . S
C489 O488 1.286 . S
C489 C491 1.363 . S
C490 C480 1.465 . S
C490 U486 2.847 . S
C490 O504 1.251 1_455 S
C490 O505 1.202 . S
C491 C489 1.363 . S
C491 C493 1.408 . S
C491 C496 1.342 . S
C492 C493 1.310 . S
C492 C495 1.461 . S
C492 H512 0.932 . S
C493 C491 1.408 . S
C493 C492 1.310 . S
C493 H513 0.930 . S
C494 C495 1.474 . S
C494 C496 1.285 . S
C494 H514 0.929 . S
C495 C492 1.461 . S
C495 C494 1.474 . S
C496 C491 1.342 . S
C496 C494 1.285 . S
C496 H515 0.930 . S
C497 C500 1.424 . S
C497 C502 1.245 . S
C497 C503 1.428 . S
C498 C501 1.260 . S
C498 C502 1.477 . S
C498 H516 0.932 . S
C499 C500 1.384 . S
C499 C501 1.479 . S
C499 H517 0.929 . S
C500 C497 1.424 . S
C500 C499 1.384 . S
C500 H518 0.928 . S
C501 C498 1.260 . S
C501 C499 1.479 . S
C502 C497 1.245 . S
C502 C498 1.477 . S
C502 H519 0.932 . S
C503 U486 2.882 . S
C503 C497 1.428 . S
C503 O506 1.301 . S
C503 O507 1.282 . S
O504 U486 2.442 1_655 S
O504 C490 1.251 1_655 S
O505 U486 2.420 . S
O505 C490 1.202 . S
O506 U486 2.455 . S
O506 C503 1.301 . S
O507 U486 2.449 . S
O507 C503 1.282 . S
H508 C481 0.931 . S
H509 C483 0.929 . S
H510 C484 0.930 . S
H511 C485 0.931 . S
H512 C492 0.932 . S
H513 C493 0.930 . S
H514 C494 0.929 . S
H515 C496 0.930 . S
H516 C498 0.932 . S
H517 C499 0.929 . S
H518 C500 0.928 . S
H519 C502 0.932 . S
C520 C521 1.264 . S
C520 C525 1.479 . S
C520 C530 1.465 . S
C521 C520 1.264 . S
C521 C523 1.339 . S
C521 H548 0.931 . S
C522 C523 1.395 . S
C522 C524 1.320 . S
C523 C521 1.339 . S
C523 C522 1.395 . S
C523 H549 0.929 . S
C524 C522 1.320 . S
C524 C525 1.405 . S
C524 H550 0.930 . S
C525 C520 1.479 . S
C525 C524 1.405 . S
C525 H551 0.931 . S
U526 O527 2.454 . S
U526 O528 2.458 . S
U526 C529 2.984 . S
U526 C530 2.847 . S
U526 C543 2.882 . S
U526 O544 2.441 . S
U526 O545 2.420 . S
U526 O546 2.455 . S
U526 O547 2.449 . S
O527 U526 2.454 . S
O527 C529 1.353 . S
O528 U526 2.458 . S
O528 C529 1.286 . S
C529 U526 2.984 . S
C529 O527 1.353 . S
C529 O528 1.286 . S
C529 C531 1.363 . S
C530 C520 1.465 . S
C530 U526 2.847 . S
C530 O544 1.249 . S
C530 O545 1.202 . S
C531 C529 1.363 . S
C531 C533 1.408 . S
C531 C536 1.342 . S
C532 C533 1.310 . S
C532 C535 1.461 . S
C532 H552 0.932 . S
C533 C531 1.408 . S
C533 C532 1.310 . S
C533 H553 0.930 . S
C534 C535 1.474 . S
C534 C536 1.285 . S
C534 H554 0.929 . S
C535 C532 1.461 . S
C535 C534 1.474 . S
C536 C531 1.342 . S
C536 C534 1.285 . S
C536 H555 0.930 . S
C537 C540 1.424 . S
C537 C542 1.245 . S
C537 C543 1.428 . S
C538 C541 1.260 . S
C538 C542 1.477 . S
C538 H556 0.932 . S
C539 C540 1.384 . S
C539 C541 1.479 . S
C539 H557 0.929 . S
C540 C537 1.424 . S
C540 C539 1.384 . S
C540 H558 0.928 . S
C541 C538 1.260 . S
C541 C539 1.479 . S
C542 C537 1.245 . S
C542 C538 1.477 . S
C542 H559 0.932 . S
C543 U526 2.882 . S
C543 C537 1.428 . S
C543 O546 1.301 . S
C543 O547 1.282 . S
O544 U526 2.441 . S
O544 C530 1.249 . S
O545 U526 2.420 . S
O545 C530 1.202 . S
O546 U526 2.455 . S
O546 C543 1.301 . S
O547 U526 2.449 . S
O547 C543 1.282 . S
H548 C521 0.931 . S
H549 C523 0.929 . S
H550 C524 0.930 . S
H551 C525 0.931 . S
H552 C532 0.932 . S
H553 C533 0.930 . S
H554 C534 0.929 . S
H555 C536 0.930 . S
H556 C538 0.932 . S
H557 C539 0.929 . S
H558 C540 0.928 . S
H559 C542 0.932 . S
C560 C561 1.264 . S
C560 C565 1.479 . S
C560 C570 1.465 . S
C561 C560 1.264 . S
C561 C563 1.339 . S
C561 H588 0.931 . S
C562 C563 1.395 . S
C562 C564 1.320 . S
C563 C561 1.339 . S
C563 C562 1.395 . S
C563 H589 0.929 . S
C564 C562 1.320 . S
C564 C565 1.405 . S
C564 H590 0.930 . S
C565 C560 1.479 . S
C565 C564 1.405 . S
C565 H591 0.931 . S
U566 O567 2.454 . S
U566 O568 2.458 . S
U566 C569 2.984 . S
U566 C570 2.847 . S
U566 C583 2.882 . S
U566 O584 2.441 . S
U566 O585 2.420 . S
U566 O586 2.455 . S
U566 O587 2.449 . S
O567 U566 2.454 . S
O567 C569 1.353 . S
O568 U566 2.458 . S
O568 C569 1.286 . S
C569 U566 2.984 . S
C569 O567 1.353 . S
C569 O568 1.286 . S
C569 C571 1.363 . S
C570 C560 1.465 . S
C570 U566 2.847 . S
C570 O584 1.249 . S
C570 O585 1.202 . S
C571 C569 1.363 . S
C571 C573 1.408 . S
C571 C576 1.342 . S
C572 C573 1.310 . S
C572 C575 1.461 . S
C572 H592 0.932 . S
C573 C571 1.408 . S
C573 C572 1.310 . S
C573 H593 0.930 . S
C574 C575 1.474 . S
C574 C576 1.285 . S
C574 H594 0.929 . S
C575 C572 1.461 . S
C575 C574 1.474 . S
C576 C571 1.342 . S
C576 C574 1.285 . S
C576 H595 0.930 . S
C577 C580 1.424 . S
C577 C582 1.245 . S
C577 C583 1.428 . S
C578 C581 1.260 . S
C578 C582 1.477 . S
C578 H596 0.932 . S
C579 C580 1.384 . S
C579 C581 1.479 . S
C579 H597 0.929 . S
C580 C577 1.424 . S
C580 C579 1.384 . S
C580 H598 0.928 . S
C581 C578 1.260 . S
C581 C579 1.479 . S
C582 C577 1.245 . S
C582 C578 1.477 . S
C582 H599 0.932 . S
C583 U566 2.882 . S
C583 C577 1.428 . S
C583 O586 1.301 . S
C583 O587 1.282 . S
O584 U566 2.441 . S
O584 C570 1.249 . S
O585 U566 2.420 . S
O585 C570 1.202 . S
O586 U566 2.455 . S
O586 C583 1.301 . S
O587 U566 2.449 . S
O587 C583 1.282 . S
H588 C561 0.931 . S
H589 C563 0.929 . S
H590 C564 0.930 . S
H591 C565 0.931 . S
H592 C572 0.932 . S
H593 C573 0.930 . S
H594 C574 0.929 . S
H595 C576 0.930 . S
H596 C578 0.932 . S
H597 C579 0.929 . S
H598 C580 0.928 . S
H599 C582 0.932 . S
C600 C601 1.264 . S
C600 C605 1.479 1_545 S
C600 C610 1.465 . S
C601 C600 1.264 . S
C601 C603 1.339 . S
C601 H628 0.931 . S
C602 C603 1.395 . S
C602 C604 1.320 1_545 S
C603 C601 1.339 . S
C603 C602 1.395 . S
C603 H629 0.929 . S
C604 C602 1.320 1_565 S
C604 C605 1.405 . S
C604 H630 0.930 . S
C605 C600 1.479 1_565 S
C605 C604 1.405 . S
C605 H631 0.931 . S
U606 O607 2.454 1_545 S
U606 O608 2.458 1_545 S
U606 C609 2.984 1_545 S
U606 C610 2.847 . S
U606 C623 2.882 . S
U606 O624 2.441 1_545 S
U606 O625 2.420 . S
U606 O626 2.455 . S
U606 O627 2.449 . S
O607 U606 2.454 1_565 S
O607 C609 1.353 . S
O608 U606 2.458 1_565 S
O608 C609 1.286 . S
C609 U606 2.984 1_565 S
C609 O607 1.353 . S
C609 O608 1.286 . S
C609 C611 1.363 . S
C610 C600 1.465 . S
C610 U606 2.847 . S
C610 O624 1.249 1_545 S
C610 O625 1.202 . S
C611 C609 1.363 . S
C611 C613 1.408 . S
C611 C616 1.342 . S
C612 C613 1.310 . S
C612 C615 1.461 . S
C612 H632 0.932 . S
C613 C611 1.408 . S
C613 C612 1.310 . S
C613 H633 0.930 . S
C614 C615 1.474 . S
C614 C616 1.285 . S
C614 H634 0.929 . S
C615 C612 1.461 . S
C615 C614 1.474 . S
C616 C611 1.342 . S
C616 C614 1.285 . S
C616 H635 0.930 . S
C617 C620 1.424 . S
C617 C622 1.245 . S
C617 C623 1.428 . S
C618 C621 1.260 . S
C618 C622 1.477 . S
C618 H636 0.932 . S
C619 C620 1.384 . S
C619 C621 1.479 . S
C619 H637 0.929 . S
C620 C617 1.424 . S
C620 C619 1.384 . S
C620 H638 0.928 . S
C621 C618 1.260 . S
C621 C619 1.479 . S
C622 C617 1.245 . S
C622 C618 1.477 . S
C622 H639 0.932 . S
C623 U606 2.882 . S
C623 C617 1.428 . S
C623 O626 1.301 . S
C623 O627 1.282 . S
O624 U606 2.441 1_565 S
O624 C610 1.249 1_565 S
O625 U606 2.420 . S
O625 C610 1.202 . S
O626 U606 2.455 . S
O626 C623 1.301 . S
O627 U606 2.449 . S
O627 C623 1.282 . S
H628 C601 0.931 . S
H629 C603 0.929 . S
H630 C604 0.930 . S
H631 C605 0.931 . S
H632 C612 0.932 . S
H633 C613 0.930 . S
H634 C614 0.929 . S
H635 C616 0.930 . S
H636 C618 0.932 . S
H637 C619 0.929 . S
H638 C620 0.928 . S
H639 C622 0.932 . S
C640 C641 1.264 . S
C640 C645 1.479 1_455 S
C640 C650 1.465 . S
C641 C640 1.264 . S
C641 C643 1.339 . S
C641 H668 0.931 . S
C642 C643 1.395 . S
C642 C644 1.320 1_455 S
C643 C641 1.339 . S
C643 C642 1.395 . S
C643 H669 0.929 . S
C644 C642 1.320 1_655 S
C644 C645 1.405 . S
C644 H670 0.930 . S
C645 C640 1.479 1_655 S
C645 C644 1.405 . S
C645 H671 0.931 . S
U646 O647 2.454 1_455 S
U646 O648 2.458 1_455 S
U646 C649 2.984 1_455 S
U646 C650 2.847 . S
U646 C663 2.882 . S
U646 O664 2.441 1_455 S
U646 O665 2.420 . S
U646 O666 2.455 . S
U646 O667 2.449 . S
O647 U646 2.454 1_655 S
O647 C649 1.353 . S
O648 U646 2.458 1_655 S
O648 C649 1.286 . S
C649 U646 2.984 1_655 S
C649 O647 1.353 . S
C649 O648 1.286 . S
C649 C651 1.363 . S
C650 C640 1.465 . S
C650 U646 2.847 . S
C650 O664 1.249 1_455 S
C650 O665 1.202 . S
C651 C649 1.363 . S
C651 C653 1.408 . S
C651 C656 1.342 . S
C652 C653 1.310 . S
C652 C655 1.461 . S
C652 H672 0.932 . S
C653 C651 1.408 . S
C653 C652 1.310 . S
C653 H673 0.930 . S
C654 C655 1.474 . S
C654 C656 1.285 . S
C654 H674 0.929 . S
C655 C652 1.461 . S
C655 C654 1.474 . S
C656 C651 1.342 . S
C656 C654 1.285 . S
C656 H675 0.930 . S
C657 C660 1.424 . S
C657 C662 1.245 . S
C657 C663 1.428 . S
C658 C661 1.260 . S
C658 C662 1.477 . S
C658 H676 0.932 . S
C659 C660 1.384 . S
C659 C661 1.479 . S
C659 H677 0.929 . S
C660 C657 1.424 . S
C660 C659 1.384 . S
C660 H678 0.928 . S
C661 C658 1.260 . S
C661 C659 1.479 . S
C662 C657 1.245 . S
C662 C658 1.477 . S
C662 H679 0.932 . S
C663 U646 2.882 . S
C663 C657 1.428 . S
C663 O666 1.301 . S
C663 O667 1.282 . S
O664 U646 2.441 1_655 S
O664 C650 1.249 1_655 S
O665 U646 2.420 . S
O665 C650 1.202 . S
O666 U646 2.455 . S
O666 C663 1.301 . S
O667 U646 2.449 . S
O667 C663 1.282 . S
H668 C641 0.931 . S
H669 C643 0.929 . S
H670 C644 0.930 . S
H671 C645 0.931 . S
H672 C652 0.932 . S
H673 C653 0.930 . S
H674 C654 0.929 . S
H675 C656 0.930 . S
H676 C658 0.932 . S
H677 C659 0.929 . S
H678 C660 0.928 . S
H679 C662 0.932 . S
C680 C681 1.264 . S
C680 C685 1.479 . S
C680 C690 1.465 . S
C681 C680 1.264 . S
C681 C683 1.339 . S
C681 H708 0.931 . S
C682 C683 1.395 . S
C682 C684 1.320 . S
C683 C681 1.339 . S
C683 C682 1.395 . S
C683 H709 0.929 . S
C684 C682 1.320 . S
C684 C685 1.405 . S
C684 H710 0.930 . S
C685 C680 1.479 . S
C685 C684 1.405 . S
C685 H711 0.931 . S
U686 O687 2.454 . S
U686 O688 2.458 . S
U686 C689 2.984 . S
U686 C690 2.847 . S
U686 C703 2.882 . S
U686 O704 2.441 . S
U686 O705 2.420 . S
U686 O706 2.455 . S
U686 O707 2.449 . S
O687 U686 2.454 . S
O687 C689 1.353 . S
O688 U686 2.458 . S
O688 C689 1.286 . S
C689 U686 2.984 . S
C689 O687 1.353 . S
C689 O688 1.286 . S
C689 C691 1.363 . S
C690 C680 1.465 . S
C690 U686 2.847 . S
C690 O704 1.249 . S
C690 O705 1.202 . S
C691 C689 1.363 . S
C691 C693 1.408 . S
C691 C696 1.342 . S
C692 C693 1.310 . S
C692 C695 1.461 . S
C692 H712 0.932 . S
C693 C691 1.408 . S
C693 C692 1.310 . S
C693 H713 0.930 . S
C694 C695 1.474 . S
C694 C696 1.285 . S
C694 H714 0.929 . S
C695 C692 1.461 . S
C695 C694 1.474 . S
C696 C691 1.342 . S
C696 C694 1.285 . S
C696 H715 0.930 . S
C697 C700 1.424 . S
C697 C702 1.245 . S
C697 C703 1.428 . S
C698 C701 1.260 . S
C698 C702 1.477 . S
C698 H716 0.932 . S
C699 C700 1.384 . S
C699 C701 1.479 . S
C699 H717 0.929 . S
C700 C697 1.424 . S
C700 C699 1.384 . S
C700 H718 0.928 . S
C701 C698 1.260 . S
C701 C699 1.479 . S
C702 C697 1.245 . S
C702 C698 1.477 . S
C702 H719 0.932 . S
C703 U686 2.882 . S
C703 C697 1.428 . S
C703 O706 1.301 . S
C703 O707 1.282 . S
O704 U686 2.441 . S
O704 C690 1.249 . S
O705 U686 2.420 . S
O705 C690 1.202 . S
O706 U686 2.455 . S
O706 C703 1.301 . S
O707 U686 2.449 . S
O707 C703 1.282 . S
H708 C681 0.931 . S
H709 C683 0.929 . S
H710 C684 0.930 . S
H711 C685 0.931 . S
H712 C692 0.932 . S
H713 C693 0.930 . S
H714 C694 0.929 . S
H715 C696 0.930 . S
H716 C698 0.932 . S
H717 C699 0.929 . S
H718 C700 0.928 . S
H719 C702 0.932 . S
C720 C721 1.264 . S
C720 C725 1.479 . S
C720 C730 1.465 . S
C721 C720 1.264 . S
C721 C723 1.339 . S
C721 H748 0.931 . S
C722 C723 1.395 . S
C722 C724 1.320 . S
C723 C721 1.339 . S
C723 C722 1.395 . S
C723 H749 0.929 . S
C724 C722 1.320 . S
C724 C725 1.405 . S
C724 H750 0.930 . S
C725 C720 1.479 . S
C725 C724 1.405 . S
C725 H751 0.931 . S
U726 O727 2.454 . S
U726 O728 2.458 . S
U726 C729 2.984 . S
U726 C730 2.847 . S
U726 C743 2.882 . S
U726 O744 2.441 . S
U726 O745 2.420 . S
U726 O746 2.455 . S
U726 O747 2.449 . S
O727 U726 2.454 . S
O727 C729 1.353 . S
O728 U726 2.458 . S
O728 C729 1.286 . S
C729 U726 2.984 . S
C729 O727 1.353 . S
C729 O728 1.286 . S
C729 C731 1.363 . S
C730 C720 1.465 . S
C730 U726 2.847 . S
C730 O744 1.249 . S
C730 O745 1.202 . S
C731 C729 1.363 . S
C731 C733 1.408 . S
C731 C736 1.342 . S
C732 C733 1.310 . S
C732 C735 1.461 . S
C732 H752 0.932 . S
C733 C731 1.408 . S
C733 C732 1.310 . S
C733 H753 0.930 . S
C734 C735 1.474 . S
C734 C736 1.285 . S
C734 H754 0.929 . S
C735 C732 1.461 . S
C735 C734 1.474 . S
C736 C731 1.342 . S
C736 C734 1.285 . S
C736 H755 0.930 . S
C737 C740 1.424 . S
C737 C742 1.245 . S
C737 C743 1.428 . S
C738 C741 1.260 . S
C738 C742 1.477 . S
C738 H756 0.932 . S
C739 C740 1.384 . S
C739 C741 1.479 . S
C739 H757 0.929 . S
C740 C737 1.424 . S
C740 C739 1.384 . S
C740 H758 0.928 . S
C741 C738 1.260 . S
C741 C739 1.479 . S
C742 C737 1.245 . S
C742 C738 1.477 . S
C742 H759 0.932 . S
C743 U726 2.882 . S
C743 C737 1.428 . S
C743 O746 1.301 . S
C743 O747 1.282 . S
O744 U726 2.441 . S
O744 C730 1.249 . S
O745 U726 2.420 . S
O745 C730 1.202 . S
O746 U726 2.455 . S
O746 C743 1.301 . S
O747 U726 2.449 . S
O747 C743 1.282 . S
H748 C721 0.931 . S
H749 C723 0.929 . S
H750 C724 0.930 . S
H751 C725 0.931 . S
H752 C732 0.932 . S
H753 C733 0.930 . S
H754 C734 0.929 . S
H755 C736 0.930 . S
H756 C738 0.932 . S
H757 C739 0.929 . S
H758 C740 0.928 . S
H759 C742 0.932 . S
C760 C761 1.264 . S
C760 C765 1.479 . S
C760 C770 1.465 . S
C761 C760 1.264 . S
C761 C763 1.339 . S
C761 H788 0.931 . S
C762 C763 1.395 . S
C762 C764 1.320 . S
C763 C761 1.339 . S
C763 C762 1.395 . S
C763 H789 0.929 . S
C764 C762 1.320 . S
C764 C765 1.405 . S
C764 H790 0.930 . S
C765 C760 1.479 . S
C765 C764 1.405 . S
C765 H791 0.931 . S
U766 O767 2.454 . S
U766 O768 2.458 . S
U766 C769 2.984 . S
U766 C770 2.847 1_545 S
U766 C783 2.882 . S
U766 O784 2.441 . S
U766 O785 2.420 1_545 S
U766 O786 2.455 . S
U766 O787 2.449 . S
O767 U766 2.454 . S
O767 C769 1.353 . S
O768 U766 2.458 . S
O768 C769 1.286 . S
C769 U766 2.984 . S
C769 O767 1.353 . S
C769 O768 1.286 . S
C769 C771 1.363 . S
C770 C760 1.465 . S
C770 U766 2.847 1_565 S
C770 O784 1.249 1_565 S
C770 O785 1.202 . S
C771 C769 1.363 . S
C771 C773 1.408 . S
C771 C776 1.342 . S
C772 C773 1.310 . S
C772 C775 1.461 . S
C772 H792 0.932 . S
C773 C771 1.408 . S
C773 C772 1.310 . S
C773 H793 0.930 . S
C774 C775 1.474 . S
C774 C776 1.285 . S
C774 H794 0.929 . S
C775 C772 1.461 . S
C775 C774 1.474 . S
C776 C771 1.342 . S
C776 C774 1.285 . S
C776 H795 0.930 . S
C777 C780 1.462 . S
C777 C782 1.245 . S
C777 C783 1.428 . S
C778 C781 1.260 . S
C778 C782 1.477 . S
C778 H796 0.932 . S
C779 C780 1.379 1_565 S
C779 C781 1.479 1_565 S
C779 H797 0.929 . S
C780 C777 1.462 . S
C780 C779 1.379 1_545 S
C780 H798 0.895 1_545 S
C781 C778 1.260 . S
C781 C779 1.479 1_545 S
C782 C777 1.245 . S
C782 C778 1.477 . S
C782 H799 0.932 . S
C783 U766 2.882 . S
C783 C777 1.428 . S
C783 O786 1.301 . S
C783 O787 1.282 . S
O784 U766 2.441 . S
O784 C770 1.249 1_545 S
O785 U766 2.420 1_565 S
O785 C770 1.202 . S
O786 U766 2.455 . S
O786 C783 1.301 . S
O787 U766 2.449 . S
O787 C783 1.282 . S
H788 C761 0.931 . S
H789 C763 0.929 . S
H790 C764 0.930 . S
H791 C765 0.931 . S
H792 C772 0.932 . S
H793 C773 0.930 . S
H794 C774 0.929 . S
H795 C776 0.930 . S
H796 C778 0.932 . S
H797 C779 0.929 . S
H798 C780 0.895 1_565 S
H799 C782 0.932 . S
C800 C801 1.264 . S
C800 C805 1.479 1_556 S
C800 C810 1.466 . S
C801 C800 1.264 . S
C801 C803 1.339 . S
C801 H828 0.931 . S
C802 C803 1.353 1_554 S
C802 C804 1.362 . S
C803 C801 1.339 . S
C803 C802 1.353 1_556 S
C803 H829 0.929 . S
C804 C802 1.362 . S
C804 C805 1.405 . S
C804 H830 0.930 . S
C805 C800 1.479 1_554 S
C805 C804 1.405 . S
C805 H831 0.931 . S
U806 O807 2.464 . S
U806 O808 2.464 . S
U806 C809 2.993 . S
U806 C810 2.846 1_554 S
U806 C823 2.874 1_554 S
U806 O824 2.445 . S
U806 O825 2.416 1_554 S
U806 O826 2.450 1_554 S
U806 O827 2.439 1_554 S
O807 U806 2.464 . S
O807 C809 1.353 . S
O808 U806 2.464 . S
O808 C809 1.286 . S
C809 U806 2.993 . S
C809 O807 1.353 . S
C809 O808 1.286 . S
C809 C811 1.363 . S
C810 C800 1.466 . S
C810 U806 2.846 1_556 S
C810 O824 1.225 1_556 S
C810 O825 1.227 . S
C811 C809 1.363 . S
C811 C813 1.408 . S
C811 C816 1.342 . S
C812 C813 1.310 . S
C812 C815 1.461 . S
C812 H832 0.932 . S
C813 C811 1.408 . S
C813 C812 1.310 . S
C813 H833 0.930 . S
C814 C815 1.474 . S
C814 C816 1.285 . S
C814 H834 0.929 . S
C815 C812 1.461 . S
C815 C814 1.474 . S
C816 C811 1.342 . S
C816 C814 1.285 . S
C816 H835 0.930 . S
C817 C820 1.424 . S
C817 C822 1.245 . S
C817 C823 1.428 . S
C818 C821 1.260 . S
C818 C822 1.477 . S
C818 H836 0.932 . S
C819 C820 1.384 . S
C819 C821 1.479 . S
C819 H837 0.929 . S
C820 C817 1.424 . S
C820 C819 1.384 . S
C820 H838 0.928 . S
C821 C818 1.260 . S
C821 C819 1.479 . S
C822 C817 1.245 . S
C822 C818 1.477 . S
C822 H839 0.932 . S
C823 U806 2.874 1_556 S
C823 C817 1.428 . S
C823 O826 1.301 . S
C823 O827 1.282 . S
O824 U806 2.445 . S
O824 C810 1.225 1_554 S
O825 U806 2.416 1_556 S
O825 C810 1.227 . S
O826 U806 2.450 1_556 S
O826 C823 1.301 . S
O827 U806 2.439 1_556 S
O827 C823 1.282 . S
H828 C801 0.931 . S
H829 C803 0.929 . S
H830 C804 0.930 . S
H831 C805 0.931 . S
H832 C812 0.932 . S
H833 C813 0.930 . S
H834 C814 0.929 . S
H835 C816 0.930 . S
H836 C818 0.932 . S
H837 C819 0.929 . S
H838 C820 0.928 . S
H839 C822 0.932 . S
C840 C841 1.264 . S
C840 C845 1.479 . S
C840 C850 1.465 . S
C841 C840 1.264 . S
C841 C843 1.339 . S
C841 H868 0.931 . S
C842 C843 1.395 . S
C842 C844 1.320 . S
C843 C841 1.339 . S
C843 C842 1.395 . S
C843 H869 0.929 . S
C844 C842 1.320 . S
C844 C845 1.405 . S
C844 H870 0.930 . S
C845 C840 1.479 . S
C845 C844 1.405 . S
C845 H871 0.931 . S
U846 O847 2.454 . S
U846 O848 2.458 . S
U846 C849 2.984 . S
U846 C850 2.847 . S
U846 C863 2.882 . S
U846 O864 2.441 . S
U846 O865 2.420 . S
U846 O866 2.455 . S
U846 O867 2.449 . S
O847 U846 2.454 . S
O847 C849 1.353 . S
O848 U846 2.458 . S
O848 C849 1.286 . S
C849 U846 2.984 . S
C849 O847 1.353 . S
C849 O848 1.286 . S
C849 C851 1.363 . S
C850 C840 1.465 . S
C850 U846 2.847 . S
C850 O864 1.249 . S
C850 O865 1.202 . S
C851 C849 1.363 . S
C851 C853 1.408 . S
C851 C856 1.342 . S
C852 C853 1.310 . S
C852 C855 1.461 . S
C852 H872 0.932 . S
C853 C851 1.408 . S
C853 C852 1.310 . S
C853 H873 0.930 . S
C854 C855 1.474 . S
C854 C856 1.285 . S
C854 H874 0.929 . S
C855 C852 1.461 . S
C855 C854 1.474 . S
C856 C851 1.342 . S
C856 C854 1.285 . S
C856 H875 0.930 . S
C857 C860 1.424 . S
C857 C862 1.245 . S
C857 C863 1.428 . S
C858 C861 1.260 . S
C858 C862 1.477 . S
C858 H876 0.932 . S
C859 C860 1.384 . S
C859 C861 1.479 . S
C859 H877 0.929 . S
C860 C857 1.424 . S
C860 C859 1.384 . S
C860 H878 0.928 . S
C861 C858 1.260 . S
C861 C859 1.479 . S
C862 C857 1.245 . S
C862 C858 1.477 . S
C862 H879 0.932 . S
C863 U846 2.882 . S
C863 C857 1.428 . S
C863 O866 1.301 . S
C863 O867 1.282 . S
O864 U846 2.441 . S
O864 C850 1.249 . S
O865 U846 2.420 . S
O865 C850 1.202 . S
O866 U846 2.455 . S
O866 C863 1.301 . S
O867 U846 2.449 . S
O867 C863 1.282 . S
H868 C841 0.931 . S
H869 C843 0.929 . S
H870 C844 0.930 . S
H871 C845 0.931 . S
H872 C852 0.932 . S
H873 C853 0.930 . S
H874 C854 0.929 . S
H875 C856 0.930 . S
H876 C858 0.932 . S
H877 C859 0.929 . S
H878 C860 0.928 . S
H879 C862 0.932 . S
C880 C881 1.264 . S
C880 C885 1.479 . S
C880 C890 1.465 . S
C881 C880 1.264 . S
C881 C883 1.339 . S
C881 H908 0.931 . S
C882 C883 1.395 . S
C882 C884 1.320 . S
C883 C881 1.339 . S
C883 C882 1.395 . S
C883 H909 0.929 . S
C884 C882 1.320 . S
C884 C885 1.405 . S
C884 H910 0.930 . S
C885 C880 1.479 . S
C885 C884 1.405 . S
C885 H911 0.931 . S
U886 O887 2.454 . S
U886 O888 2.458 . S
U886 C889 2.984 . S
U886 C890 2.847 . S
U886 C903 2.882 . S
U886 O904 2.441 . S
U886 O905 2.420 . S
U886 O906 2.455 . S
U886 O907 2.449 . S
O887 U886 2.454 . S
O887 C889 1.353 . S
O888 U886 2.458 . S
O888 C889 1.286 . S
C889 U886 2.984 . S
C889 O887 1.353 . S
C889 O888 1.286 . S
C889 C891 1.363 . S
C890 C880 1.465 . S
C890 U886 2.847 . S
C890 O904 1.249 . S
C890 O905 1.202 . S
C891 C889 1.363 . S
C891 C893 1.408 . S
C891 C896 1.342 . S
C892 C893 1.310 . S
C892 C895 1.461 . S
C892 H912 0.932 . S
C893 C891 1.408 . S
C893 C892 1.310 . S
C893 H913 0.930 . S
C894 C895 1.474 . S
C894 C896 1.285 . S
C894 H914 0.929 . S
C895 C892 1.461 . S
C895 C894 1.474 . S
C896 C891 1.342 . S
C896 C894 1.285 . S
C896 H915 0.930 . S
C897 C900 1.424 . S
C897 C902 1.245 . S
C897 C903 1.428 . S
C898 C901 1.260 . S
C898 C902 1.477 . S
C898 H916 0.932 . S
C899 C900 1.384 . S
C899 C901 1.479 . S
C899 H917 0.929 . S
C900 C897 1.424 . S
C900 C899 1.384 . S
C900 H918 0.928 . S
C901 C898 1.260 . S
C901 C899 1.479 . S
C902 C897 1.245 . S
C902 C898 1.477 . S
C902 H919 0.932 . S
C903 U886 2.882 . S
C903 C897 1.428 . S
C903 O906 1.301 . S
C903 O907 1.282 . S
O904 U886 2.441 . S
O904 C890 1.249 . S
O905 U886 2.420 . S
O905 C890 1.202 . S
O906 U886 2.455 . S
O906 C903 1.301 . S
O907 U886 2.449 . S
O907 C903 1.282 . S
H908 C881 0.931 . S
H909 C883 0.929 . S
H910 C884 0.930 . S
H911 C885 0.931 . S
H912 C892 0.932 . S
H913 C893 0.930 . S
H914 C894 0.929 . S
H915 C896 0.930 . S
H916 C898 0.932 . S
H917 C899 0.929 . S
H918 C900 0.928 . S
H919 C902 0.932 . S
C920 C921 1.264 . S
C920 C925 1.479 . S
C920 C930 1.465 . S
C921 C920 1.264 . S
C921 C923 1.339 . S
C921 H948 0.931 . S
C922 C923 1.395 . S
C922 C924 1.320 . S
C923 C921 1.339 . S
C923 C922 1.395 . S
C923 H949 0.929 . S
C924 C922 1.320 . S
C924 C925 1.405 . S
C924 H950 0.930 . S
C925 C920 1.479 . S
C925 C924 1.405 . S
C925 H951 0.931 . S
U926 O927 2.454 . S
U926 O928 2.458 . S
U926 C929 2.984 . S
U926 C930 2.847 1_554 S
U926 C943 2.882 . S
U926 O944 2.441 1_554 S
U926 O945 2.420 1_554 S
U926 O946 2.455 . S
U926 O947 2.449 . S
O927 U926 2.454 . S
O927 C929 1.353 . S
O928 U926 2.458 . S
O928 C929 1.286 . S
C929 U926 2.984 . S
C929 O927 1.353 . S
C929 O928 1.286 . S
C929 C931 1.363 . S
C930 C920 1.465 . S
C930 U926 2.847 1_556 S
C930 O944 1.249 . S
C930 O945 1.202 . S
C931 C929 1.363 . S
C931 C933 1.408 . S
C931 C936 1.342 . S
C932 C933 1.310 . S
C932 C935 1.461 . S
C932 H952 0.932 . S
C933 C931 1.408 . S
C933 C932 1.310 . S
C933 H953 0.930 . S
C934 C935 1.474 . S
C934 C936 1.285 . S
C934 H954 0.929 . S
C935 C932 1.461 . S
C935 C934 1.474 . S
C936 C931 1.342 . S
C936 C934 1.285 . S
C936 H955 0.930 . S
C937 C940 1.424 1_554 S
C937 C942 1.245 . S
C937 C943 1.428 . S
C938 C941 1.260 . S
C938 C942 1.477 . S
C938 H956 0.932 . S
C939 C940 1.384 . S
C939 C941 1.479 1_556 S
C939 H957 0.929 . S
C940 C937 1.424 1_556 S
C940 C939 1.384 . S
C940 H958 0.928 . S
C941 C938 1.260 . S
C941 C939 1.479 1_554 S
C942 C937 1.245 . S
C942 C938 1.477 . S
C942 H959 0.932 . S
C943 U926 2.882 . S
C943 C937 1.428 . S
C943 O946 1.301 . S
C943 O947 1.282 . S
O944 U926 2.441 1_556 S
O944 C930 1.249 . S
O945 U926 2.420 1_556 S
O945 C930 1.202 . S
O946 U926 2.455 . S
O946 C943 1.301 . S
O947 U926 2.449 . S
O947 C943 1.282 . S
H948 C921 0.931 . S
H949 C923 0.929 . S
H950 C924 0.930 . S
H951 C925 0.931 . S
H952 C932 0.932 . S
H953 C933 0.930 . S
H954 C934 0.929 . S
H955 C936 0.930 . S
H956 C938 0.932 . S
H957 C939 0.929 . S
H958 C940 0.928 . S
H959 C942 0.932 . S
C162 C2 1.471 . S
C221 C42 1.459 . S
C101 C261 1.661 . S
C282 C141 1.462 . S
C341 C442 1.626 . S
C402 C381 1.467 . S
C482 C642 1.745 . S
C682 C541 1.471 . S
C741 C581 1.427 . S
C602 C781 1.535 . S
C941 C802 1.592 . S
C901 C842 1.581 . S
C775 C21 1.486 . S
C655 C61 1.514 . S
C82 C701 1.531 . S
C135 C722 1.518 . S
C181 C522 1.458 . S
C562 C215 1.497 . S
C242 C621 1.587 . S
C301 C495 1.520 . S
C122 C935 1.467 . S
C15 C861 1.806 . S
C55 C815 1.696 . S
C95 C882 1.512 . S
C202 C895 1.461 . S
C255 C922 1.546 . S
C855 C295 1.701 . S
C175 C821 1.802 . S
C335 C661 1.800 . S
C501 C362 1.663 . S
C322 C535 1.711 . S
C415 C575 1.526 . S
C615 C461 1.533 . S
C735 C455 1.534 . S
C762 C375 1.679 . S
C695 C421 1.537 . S
