# Generated by pormake.
# Topology wiu, (6)-cn, num edge types: 1
# Building blocks:
#     Node 0, Type 0, BuildingBlock: MIFKUJ_clean_sbu_0, # of connection points: 6
#     Node 1, Type 0, BuildingBlock: MIFKUJ_clean_sbu_0, # of connection points: 6
#     Node 2, Type 0, BuildingBlock: MIFKUJ_clean_sbu_0, # of connection points: 6
#     Node 3, Type 0, BuildingBlock: MIFKUJ_clean_sbu_0, # of connection points: 6
#     Node 4, Type 0, BuildingBlock: MIFKUJ_clean_sbu_0, # of connection points: 6
#     Node 5, Type 0, BuildingBlock: MIFKUJ_clean_sbu_0, # of connection points: 6
#     Node 6, Type 0, BuildingBlock: MIFKUJ_clean_sbu_0, # of connection points: 6
#     Node 7, Type 0, BuildingBlock: MIFKUJ_clean_sbu_0, # of connection points: 6
#     Node 8, Type 0, BuildingBlock: MIFKUJ_clean_sbu_0, # of connection points: 6
#     Node 9, Type 0, BuildingBlock: MIFKUJ_clean_sbu_0, # of connection points: 6
#     Node 10, Type 0, BuildingBlock: MIFKUJ_clean_sbu_0, # of connection points: 6
#     Node 11, Type 0, BuildingBlock: MIFKUJ_clean_sbu_0, # of connection points: 6
#     Node 12, Type 0, BuildingBlock: MIFKUJ_clean_sbu_0, # of connection points: 6
#     Node 13, Type 0, BuildingBlock: MIFKUJ_clean_sbu_0, # of connection points: 6
#     Node 14, Type 0, BuildingBlock: MIFKUJ_clean_sbu_0, # of connection points: 6
#     Node 15, Type 0, BuildingBlock: MIFKUJ_clean_sbu_0, # of connection points: 6
#     Edge 16, Type (0, 0), BuildingBlock: OJICUG_clean_linker_0, # of connection points: 2
#     Edge 17, Type (0, 0), BuildingBlock: OJICUG_clean_linker_0, # of connection points: 2
#     Edge 18, Type (0, 0), BuildingBlock: OJICUG_clean_linker_0, # of connection points: 2
#     Edge 19, Type (0, 0), BuildingBlock: OJICUG_clean_linker_0, # of connection points: 2
#     Edge 20, Type (0, 0), BuildingBlock: OJICUG_clean_linker_0, # of connection points: 2
#     Edge 21, Type (0, 0), BuildingBlock: OJICUG_clean_linker_0, # of connection points: 2
#     Edge 22, Type (0, 0), BuildingBlock: OJICUG_clean_linker_0, # of connection points: 2
#     Edge 23, Type (0, 0), BuildingBlock: OJICUG_clean_linker_0, # of connection points: 2
#     Edge 24, Type (0, 0), BuildingBlock: OJICUG_clean_linker_0, # of connection points: 2
#     Edge 25, Type (0, 0), BuildingBlock: OJICUG_clean_linker_0, # of connection points: 2
#     Edge 26, Type (0, 0), BuildingBlock: OJICUG_clean_linker_0, # of connection points: 2
#     Edge 27, Type (0, 0), BuildingBlock: OJICUG_clean_linker_0, # of connection points: 2
#     Edge 28, Type (0, 0), BuildingBlock: OJICUG_clean_linker_0, # of connection points: 2
#     Edge 29, Type (0, 0), BuildingBlock: OJICUG_clean_linker_0, # of connection points: 2
#     Edge 30, Type (0, 0), BuildingBlock: OJICUG_clean_linker_0, # of connection points: 2
#     Edge 31, Type (0, 0), BuildingBlock: OJICUG_clean_linker_0, # of connection points: 2
#     Edge 32, Type (0, 0), BuildingBlock: OJICUG_clean_linker_0, # of connection points: 2
#     Edge 33, Type (0, 0), BuildingBlock: OJICUG_clean_linker_0, # of connection points: 2
#     Edge 34, Type (0, 0), BuildingBlock: OJICUG_clean_linker_0, # of connection points: 2
#     Edge 35, Type (0, 0), BuildingBlock: OJICUG_clean_linker_0, # of connection points: 2
#     Edge 36, Type (0, 0), BuildingBlock: OJICUG_clean_linker_0, # of connection points: 2
#     Edge 37, Type (0, 0), BuildingBlock: OJICUG_clean_linker_0, # of connection points: 2
#     Edge 38, Type (0, 0), BuildingBlock: OJICUG_clean_linker_0, # of connection points: 2
#     Edge 39, Type (0, 0), BuildingBlock: OJICUG_clean_linker_0, # of connection points: 2
#     Edge 40, Type (0, 0), BuildingBlock: OJICUG_clean_linker_0, # of connection points: 2
#     Edge 41, Type (0, 0), BuildingBlock: OJICUG_clean_linker_0, # of connection points: 2
#     Edge 42, Type (0, 0), BuildingBlock: OJICUG_clean_linker_0, # of connection points: 2
#     Edge 43, Type (0, 0), BuildingBlock: OJICUG_clean_linker_0, # of connection points: 2
#     Edge 44, Type (0, 0), BuildingBlock: OJICUG_clean_linker_0, # of connection points: 2
#     Edge 45, Type (0, 0), BuildingBlock: OJICUG_clean_linker_0, # of connection points: 2
#     Edge 46, Type (0, 0), BuildingBlock: OJICUG_clean_linker_0, # of connection points: 2
#     Edge 47, Type (0, 0), BuildingBlock: OJICUG_clean_linker_0, # of connection points: 2
#     Edge 48, Type (0, 0), BuildingBlock: OJICUG_clean_linker_0, # of connection points: 2
#     Edge 49, Type (0, 0), BuildingBlock: OJICUG_clean_linker_0, # of connection points: 2
#     Edge 50, Type (0, 0), BuildingBlock: OJICUG_clean_linker_0, # of connection points: 2
#     Edge 51, Type (0, 0), BuildingBlock: OJICUG_clean_linker_0, # of connection points: 2
#     Edge 52, Type (0, 0), BuildingBlock: OJICUG_clean_linker_0, # of connection points: 2
#     Edge 53, Type (0, 0), BuildingBlock: OJICUG_clean_linker_0, # of connection points: 2
#     Edge 54, Type (0, 0), BuildingBlock: OJICUG_clean_linker_0, # of connection points: 2
#     Edge 55, Type (0, 0), BuildingBlock: OJICUG_clean_linker_0, # of connection points: 2
#     Edge 56, Type (0, 0), BuildingBlock: OJICUG_clean_linker_0, # of connection points: 2
#     Edge 57, Type (0, 0), BuildingBlock: OJICUG_clean_linker_0, # of connection points: 2
#     Edge 58, Type (0, 0), BuildingBlock: OJICUG_clean_linker_0, # of connection points: 2
#     Edge 59, Type (0, 0), BuildingBlock: OJICUG_clean_linker_0, # of connection points: 2
#     Edge 60, Type (0, 0), BuildingBlock: OJICUG_clean_linker_0, # of connection points: 2
#     Edge 61, Type (0, 0), BuildingBlock: OJICUG_clean_linker_0, # of connection points: 2
#     Edge 62, Type (0, 0), BuildingBlock: OJICUG_clean_linker_0, # of connection points: 2
#     Edge 63, Type (0, 0), BuildingBlock: OJICUG_clean_linker_0, # of connection points: 2
# Relax obj value: 0.175
# Max RMSD: 0.242
# Mean RMSD: 0.242
data_MOF--net-wiu--node1-MIFKUJ_clean_sbu_0--edge1-OJICUG_clean_linker_0
_symmetry_space_group_name_H-M    P1
_symmetry_Int_Tables_number       1
_symmetry_cell_setting            triclinic
loop_
_symmetry_equiv_pos_as_xyz
'x, y, z'
_cell_length_a     23.588558
_cell_length_b     23.456144
_cell_length_c     51.940826
_cell_angle_alpha  88.847208
_cell_angle_beta   89.326604
_cell_angle_gamma 90.714711
loop_
_atom_site_label
_atom_site_type_symbol
_atom_site_fract_x
_atom_site_fract_y
_atom_site_fract_z
_atom_type_partial_charge
Zn0 Zn 0.30223 0.11141 0.0476 0.0
Zn1 Zn 0.28108 0.17925 0.11569 0.0
C2 C 0.23557 0.08284 0.00582 0.0
O3 O 0.2396 0.03478 0.01909 0.0
C4 C 0.32803 0.14336 0.16339 0.0
O5 O 0.34061 0.19809 0.16325 0.0
O6 O 0.35439 0.04802 0.03842 0.0
O7 O 0.36009 0.17358 0.05554 0.0
O8 O 0.34962 0.20163 0.09577 0.0
C9 C 0.38924 0.06098 0.02031 0.0
O10 O 0.38653 0.11171 0.00922 0.0
O11 O 0.25944 0.1274 0.01451 0.0
C12 C 0.21163 0.24796 0.14735 0.0
O13 O 0.18631 0.1984 0.15152 0.0
O14 O 0.25503 0.25074 0.13268 0.0
O15 O 0.21405 0.15242 0.09573 0.0
O16 O 0.24394 0.07887 0.07351 0.0
O17 O 0.30233 0.12283 0.14418 0.0
C18 C 0.37711 0.20171 0.07468 0.0
C19 C 0.20712 0.10203 0.0879 0.0
Zn20 Zn 0.59403 0.52843 0.29228 0.0
Zn21 Zn 0.55521 0.53417 0.36435 0.0
C22 C 0.63398 0.48381 0.24579 0.0
O23 O 0.68051 0.49075 0.25909 0.0
C24 C 0.61549 0.5968 0.40626 0.0
O25 O 0.62486 0.63936 0.38988 0.0
O26 O 0.65648 0.58726 0.28881 0.0
O27 O 0.52578 0.57515 0.30361 0.0
O28 O 0.56927 0.59873 0.33917 0.0
C29 C 0.64322 0.62708 0.27309 0.0
O30 O 0.59323 0.62511 0.26221 0.0
O31 O 0.58675 0.49762 0.25599 0.0
C32 C 0.44817 0.47036 0.36556 0.0
O33 O 0.47765 0.43345 0.35244 0.0
O34 O 0.47133 0.51773 0.37122 0.0
O35 O 0.59385 0.46294 0.35506 0.0
O36 O 0.6182 0.45989 0.31371 0.0
O37 O 0.58811 0.55294 0.39907 0.0
C38 C 0.53291 0.60964 0.322 0.0
C39 C 0.61659 0.43779 0.33627 0.0
Zn40 Zn 0.17614 0.86002 0.5348 0.0
Zn41 Zn 0.19728 0.818 0.61417 0.0
C42 C 0.21157 0.87315 0.48508 0.0
O43 O 0.20647 0.92457 0.49434 0.0
C44 C 0.12915 0.87832 0.65253 0.0
O45 O 0.08879 0.84131 0.64741 0.0
O46 O 0.11998 0.92134 0.52833 0.0
O47 O 0.12902 0.80703 0.56047 0.0
O48 O 0.12917 0.77745 0.60162 0.0
C49 C 0.07561 0.90314 0.5174 0.0
O50 O 0.07237 0.84918 0.51121 0.0
O51 O 0.1981 0.8304 0.49956 0.0
C52 C 0.23671 0.73241 0.64816 0.0
O53 O 0.18875 0.74516 0.65968 0.0
O54 O 0.2516 0.76012 0.62786 0.0
O55 O 0.22301 0.85556 0.58268 0.0
O56 O 0.25012 0.89544 0.54729 0.0
O57 O 0.17673 0.87554 0.64084 0.0
C58 C 0.10738 0.77724 0.57921 0.0
C59 C 0.26045 0.88406 0.57055 0.0
Zn60 Zn 0.86231 0.419 0.78901 0.0
Zn61 Zn 0.9147 0.44641 0.85388 0.0
C62 C 0.82722 0.47033 0.74229 0.0
O63 O 0.77861 0.45421 0.75288 0.0
C64 C 0.84858 0.40301 0.89602 0.0
O65 O 0.8823 0.35984 0.89208 0.0
O66 O 0.80583 0.35736 0.78357 0.0
O67 O 0.9327 0.37312 0.79941 0.0
O68 O 0.92091 0.36773 0.84164 0.0
C69 C 0.82178 0.31868 0.76847 0.0
O70 O 0.87227 0.32274 0.75758 0.0
O71 O 0.87286 0.45943 0.75423 0.0
C72 C 0.0062 0.513 0.87272 0.0
O73 O 0.97766 0.55416 0.86157 0.0
O74 O -0.01281 0.46226 0.87206 0.0
O75 O 0.906 0.50672 0.82635 0.0
O76 O 0.82472 0.47704 0.81212 0.0
O77 O 0.85287 0.44692 0.88123 0.0
C78 C 0.93539 0.34526 0.82065 0.0
C79 C 0.85448 0.51614 0.8219 0.0
Zn80 Zn 0.68516 0.78443 0.89694 0.0
Zn81 Zn 0.65118 0.85685 0.96108 0.0
C82 C 0.63052 0.85244 0.85608 0.0
O83 O 0.58455 0.82285 0.86229 0.0
C84 C 0.71847 0.88409 1.00234 0.0
O85 O 0.71358 0.93233 0.98928 0.0
O86 O 0.71467 0.71458 0.8797 0.0
O87 O 0.74423 0.81093 0.92165 0.0
O88 O 0.70687 0.8907 0.93487 0.0
C89 C 0.75846 0.71848 0.86528 0.0
O90 O 0.78385 0.76829 0.86197 0.0
O91 O 0.67574 0.84421 0.86869 0.0
C92 C 0.56332 0.90529 0.98906 0.0
O93 O 0.56568 0.85408 0.9997 0.0
O94 O 0.5984 0.91892 0.97114 0.0
O95 O 0.59495 0.79512 0.95162 0.0
O96 O 0.61067 0.7616 0.91254 0.0
O97 O 0.69496 0.83943 0.99359 0.0
C98 C 0.74739 0.86449 0.9242 0.0
C99 C 0.58046 0.76448 0.93285 0.0
Zn100 Zn 0.41213 0.44112 0.64502 0.0
Zn101 Zn 0.36473 0.42767 0.71397 0.0
C102 C 0.34926 0.39207 0.60257 0.0
O103 O 0.37652 0.34546 0.60894 0.0
C104 C 0.3249 0.47497 0.75991 0.0
O105 O 0.27775 0.46296 0.74781 0.0
O106 O 0.48875 0.45576 0.62883 0.0
O107 O 0.39807 0.51294 0.66442 0.0
O108 O 0.32996 0.49042 0.69229 0.0
C109 C 0.49129 0.5015 0.61532 0.0
O110 O 0.44475 0.5308 0.61199 0.0
O111 O 0.35667 0.43677 0.61568 0.0
C112 C 0.32124 0.32637 0.73493 0.0
O113 O 0.37103 0.32941 0.74594 0.0
O114 O 0.30745 0.36523 0.71891 0.0
O115 O 0.43711 0.38688 0.70314 0.0
O116 O 0.41353 0.36551 0.66346 0.0
O117 O 0.37207 0.46291 0.74923 0.0
C118 C 0.35257 0.52517 0.67609 0.0
C119 C 0.4325 0.35069 0.68531 0.0
Zn120 Zn 0.78334 0.14844 0.39583 0.0
Zn121 Zn 0.79409 0.09775 0.47395 0.0
C122 C 0.84469 0.08582 0.35572 0.0
O123 O 0.88828 0.11903 0.36068 0.0
C124 C 0.74706 0.07942 0.52218 0.0
O125 O 0.75156 0.02916 0.51169 0.0
O126 O 0.73321 0.2117 0.38403 0.0
O127 O 0.75542 0.10958 0.42606 0.0
O128 O 0.7231 0.06037 0.45771 0.0
C129 C 0.73528 0.23073 0.36096 0.0
O130 O 0.77037 0.20778 0.34441 0.0
O131 O 0.79833 0.09187 0.36805 0.0
C132 C 0.89066 0.05315 0.49489 0.0
O133 O 0.89373 0.1071 0.50117 0.0
O134 O 0.84791 0.03565 0.48253 0.0
O135 O 0.85178 0.152 0.45165 0.0
O136 O 0.8532 0.18064 0.41002 0.0
O137 O 0.76476 0.12325 0.50927 0.0
C138 C 0.71731 0.07637 0.43463 0.0
C139 C 0.87484 0.17996 0.43246 0.0
Zn140 Zn 0.04373 0.51839 0.15414 0.0
Zn141 Zn 0.10875 0.5539 0.21699 0.0
C142 C 0.1127 0.57185 0.11384 0.0
O143 O 0.07847 0.6145 0.11803 0.0
C144 C 0.14306 0.49653 0.26184 0.0
O145 O 0.19124 0.50786 0.24973 0.0
O146 O 0.97504 0.49349 0.13495 0.0
O147 O 0.05986 0.46062 0.18192 0.0
O148 O 0.14219 0.49598 0.19258 0.0
C149 C 0.94808 0.44718 0.1395 0.0
O150 O 0.96646 0.41145 0.15722 0.0
O151 O 0.10755 0.52664 0.12774 0.0
C152 C 0.15407 0.64959 0.23913 0.0
O153 O 0.10417 0.64488 0.25055 0.0
O154 O 0.16879 0.61213 0.22313 0.0
O155 O 0.04312 0.60654 0.20778 0.0
O156 O 0.02289 0.59354 0.16676 0.0
O157 O 0.09708 0.51233 0.2514 0.0
C158 C 0.11248 0.4543 0.18495 0.0
C159 C 0.02001 0.62274 0.18693 0.0
Zn160 Zn 0.79916 0.60288 0.54563 0.0
Zn161 Zn 0.76983 0.67703 0.60825 0.0
C162 C 0.72177 0.5882 0.50625 0.0
O163 O 0.71984 0.5394 0.51913 0.0
C164 C 0.82212 0.61173 0.64963 0.0
O165 O 0.86591 0.64467 0.6436 0.0
O166 O 0.84618 0.53965 0.53286 0.0
O167 O 0.86156 0.65855 0.5556 0.0
O168 O 0.84655 0.69566 0.59398 0.0
C169 C 0.87939 0.55555 0.51461 0.0
O170 O 0.87568 0.60783 0.50524 0.0
O171 O 0.75353 0.62799 0.51451 0.0
C172 C 0.68999 0.75727 0.62868 0.0
O173 O 0.65291 0.718 0.62222 0.0
O174 O 0.74237 0.74884 0.62459 0.0
O175 O 0.71254 0.65262 0.58219 0.0
O176 O 0.74516 0.56868 0.57247 0.0
O177 O 0.77664 0.61695 0.63684 0.0
C178 C 0.87763 0.68892 0.5742 0.0
C179 C 0.70571 0.59905 0.58136 0.0
Zn180 Zn 0.11302 0.05441 0.7908 0.0
Zn181 Zn 0.05187 0.0212 0.86836 0.0
C182 C 0.1243 0.01584 0.74228 0.0
O183 O 0.17573 0.02201 0.75132 0.0
C184 C 0.11633 0.07992 0.9088 0.0
O185 O 0.10569 0.12717 0.89584 0.0
O186 O 0.17411 0.1122 0.78266 0.0
O187 O 0.05875 0.09623 0.8155 0.0
O188 O 0.01993 0.09422 0.85472 0.0
C189 C 0.16043 0.15138 0.76677 0.0
O190 O 0.10887 0.15139 0.75748 0.0
O191 O 0.08221 0.02905 0.75648 0.0
C192 C 0.94853 -0.00975 0.8909 0.0
O193 O 0.95562 0.04316 0.8982 0.0
O194 O -0.01344 0.96808 0.87687 0.0
O195 O 0.09895 -0.00272 0.83948 0.0
O196 O 0.14737 0.98181 0.80508 0.0
O197 O 0.09842 0.03247 0.90039 0.0
C198 C 0.02613 0.11785 0.83246 0.0
C199 C 0.13081 0.96456 0.82714 0.0
Zn200 Zn 0.67564 0.38496 0.03947 0.0
Zn201 Zn 0.70877 0.30113 0.10923 0.0
C202 C 0.72155 0.40656 0.99155 0.0
O203 O 0.71386 0.45683 1.00165 0.0
C204 C 0.6515 0.36933 0.14819 0.0
O205 O 0.60559 0.35038 0.13698 0.0
O206 O 0.6168 0.44232 0.03116 0.0
O207 O 0.6274 0.3249 0.06094 0.0
O208 O 0.6333 0.27503 0.09788 0.0
C209 C 0.57746 0.42073 0.01783 0.0
O210 O 0.58118 0.36722 0.01107 0.0
O211 O 0.70755 0.36213 0.00482 0.0
C212 C 0.73909 0.21195 0.14205 0.0
O213 O 0.70165 0.23959 0.15577 0.0
O214 O 0.75229 0.23115 0.1197 0.0
O215 O 0.73407 0.34065 0.07771 0.0
O216 O 0.74156 0.42199 0.0583 0.0
O217 O 0.69989 0.35537 0.13932 0.0
C218 C 0.60689 0.28846 0.07737 0.0
C219 C 0.7585 0.38865 0.07591 0.0
Zn220 Zn 0.35583 0.91699 0.2928 0.0
Zn221 Zn 0.4276 0.93851 0.35851 0.0
C222 C 0.34534 0.00838 0.25678 0.0
O223 O 0.30639 0.02095 0.27393 0.0
C224 C 0.3535 0.87324 0.39455 0.0
O225 O 0.38678 0.83024 0.38958 0.0
O226 O 0.29158 0.86856 0.2816 0.0
O227 O 0.41284 0.85621 0.30251 0.0
O228 O 0.44993 0.8669 0.34126 0.0
C229 C 0.30395 0.83567 0.26331 0.0
O230 O 0.35487 0.8391 0.2528 0.0
O231 O 0.37615 0.96489 0.26067 0.0
C232 C 0.52766 0.00443 0.37241 0.0
O233 O 0.51904 0.02959 0.35 0.0
O234 O 0.49403 0.96461 0.38002 0.0
O235 O 0.40436 0.00243 0.33487 0.0
O236 O 0.32421 0.968 0.32018 0.0
O237 O 0.36274 0.92119 0.38326 0.0
C238 C 0.4441 0.83881 0.32077 0.0
C239 C 0.3512 0.00618 0.33215 0.0
Zn240 Zn 0.20714 0.2996 0.39801 0.0
Zn241 Zn 0.16666 0.38202 0.46224 0.0
C242 C 0.14952 0.36453 0.35725 0.0
O243 O 0.10322 0.34053 0.36698 0.0
C244 C 0.22272 0.40514 0.50779 0.0
O245 O 0.21235 0.45593 0.49793 0.0
O246 O 0.25291 0.23321 0.38669 0.0
O247 O 0.24361 0.33763 0.42682 0.0
O248 O 0.22364 0.42299 0.43838 0.0
C249 C 0.23083 0.20086 0.37017 0.0
O250 O 0.17995 0.21243 0.36162 0.0
O251 O 0.19705 0.35394 0.36757 0.0
C252 C 0.0703 0.41857 0.48709 0.0
O253 O 0.07481 0.36628 0.49633 0.0
O254 O 0.10824 0.43816 0.47168 0.0
O255 O 0.11576 0.31753 0.44768 0.0
O256 O 0.13204 0.2709 0.41138 0.0
O257 O 0.20696 0.36145 0.49542 0.0
C258 C 0.25272 0.39066 0.42438 0.0
C259 C 0.10151 0.28022 0.43125 0.0
Zn260 Zn 0.90065 0.94503 0.13996 0.0
Zn261 Zn 0.84253 0.90753 0.21782 0.0
C262 C 0.83775 0.88706 0.09919 0.0
O263 O 0.85128 0.83964 0.1114 0.0
C264 C 0.83575 0.94599 0.26639 0.0
O265 O 0.78358 0.93769 0.25858 0.0
O266 O 0.96535 -0.00123 0.13166 0.0
O267 O 0.85366 0.96541 0.16977 0.0
O268 O 0.804 0.97889 0.20406 0.0
C269 C -0.00202 0.98164 0.11381 0.0
O270 O -0.01439 0.93345 0.10255 0.0
O271 O 0.85335 0.93475 0.10819 0.0
C272 C 0.80057 0.80659 0.24211 0.0
O273 O 0.85304 0.80654 0.2503 0.0
O274 O 0.78481 0.84675 0.22713 0.0
O275 O 0.89483 0.87063 0.19091 0.0
O276 O 0.93416 0.87164 0.15195 0.0
O277 O 0.87662 0.93387 0.25127 0.0
C278 C 0.81993 -0.00338 0.18193 0.0
C279 C 0.92715 0.84808 0.17415 0.0
Zn280 Zn 0.25146 0.66054 0.89609 0.0
Zn281 Zn 0.28175 0.58539 0.96934 0.0
C282 C 0.30928 0.60114 0.85443 0.0
O283 O 0.35397 0.62849 0.86292 0.0
C284 C 0.24002 0.56774 0.01838 0.0
O285 O 0.24772 0.51679 0.00898 0.0
O286 O 0.20391 0.72952 0.88733 0.0
O287 O 0.23114 0.61663 0.92695 0.0
O288 O 0.21357 0.54614 0.95258 0.0
C289 C 0.20269 0.74317 0.86353 0.0
O290 O 0.22772 0.70997 0.84695 0.0
O291 O 0.26158 0.60758 0.86569 0.0
C292 C 0.38164 0.55083 0.98983 0.0
O293 O 0.37875 0.60486 0.99586 0.0
O294 O 0.34108 0.52846 0.97754 0.0
O295 O 0.32913 0.64321 0.94574 0.0
O296 O 0.326 0.68911 0.90764 0.0
O297 O 0.25256 0.61127 0.0042 0.0
C298 C 0.20083 0.57351 0.93233 0.0
C299 C 0.35095 0.67785 0.92881 0.0
Zn300 Zn 0.53666 0.01878 0.65428 0.0
Zn301 Zn 0.61842 0.04939 0.71656 0.0
C302 C 0.60946 0.07898 0.61524 0.0
O303 O 0.58026 0.12412 0.62141 0.0
C304 C 0.64145 -0.01276 0.76151 0.0
O305 O 0.69168 -0.00452 0.75078 0.0
O306 O 0.46861 0.98112 0.6385 0.0
O307 O 0.56235 0.9686 0.68289 0.0
O308 O 0.64929 -0.00834 0.69181 0.0
C309 C 0.46881 0.9637 0.6155 0.0
O310 O 0.51517 0.96947 0.60139 0.0
O311 O 0.59905 0.03166 0.627 0.0
C312 C 0.669 0.13616 0.743 0.0
O313 O 0.61812 0.13313 0.75356 0.0
O314 O 0.68178 0.10158 0.72543 0.0
O315 O 0.55783 0.10632 0.70469 0.0
O316 O 0.51164 0.09297 0.66814 0.0
O317 O 0.59815 0.0065 0.74993 0.0
C318 C 0.61464 0.95815 0.68118 0.0
C319 C 0.52173 0.1222 0.68798 0.0
C320 C 0.46554 0.23746 0.05107 0.0
C321 C 0.43421 0.22872 0.07411 0.0
H322 H 0.54536 0.26413 0.03388 0.0
C323 C 0.45981 0.24172 0.0976 0.0
H324 H 0.44701 0.22761 0.03268 0.0
C325 C 0.51565 0.26087 0.09826 0.0
C326 C 0.54742 0.2689 0.07546 0.0
H327 H 0.43739 0.23531 0.11577 0.0
H328 H 0.53399 0.26935 0.11684 0.0
C329 C 0.52167 0.25821 0.05173 0.0
C330 C 0.47992 0.68886 0.29934 0.0
C331 C 0.50917 0.66785 0.32091 0.0
H332 H 0.43686 0.75987 0.2821 0.0
C333 C 0.51812 0.70413 0.34173 0.0
H334 H 0.4726 0.6621 0.28293 0.0
C335 C 0.49862 0.75984 0.34114 0.0
C336 C 0.46904 0.7811 0.31977 0.0
H337 H 0.54023 0.68952 0.35874 0.0
H338 H 0.50606 0.7859 0.35777 0.0
C339 C 0.45995 0.74503 0.29879 0.0
C340 C 0.0255 0.73975 0.55306 0.0
C341 C 0.04983 0.75182 0.57698 0.0
H342 H 0.95162 0.70964 0.53326 0.0
C343 C 0.01699 0.74293 0.5995 0.0
H344 H 0.04979 0.74599 0.53539 0.0
C345 C 0.96113 0.72382 0.59825 0.0
C346 C 0.93647 0.7117 0.5745 0.0
H347 H 0.0339 0.75202 0.61829 0.0
H348 H 0.93748 0.71796 0.61612 0.0
C349 C 0.96938 0.71913 0.55185 0.0
C350 C 0.9739 0.20146 0.84869 0.0
C351 C 0.00058 0.17466 0.828 0.0
H352 H 0.93309 0.27491 0.86256 0.0
C353 C 0.00422 0.20383 0.80402 0.0
H354 H 0.97007 0.18067 0.86746 0.0
C355 C -0.0175 0.25918 0.8011 0.0
C356 C 0.95722 0.2862 0.82219 0.0
H357 H 0.02411 0.18415 0.78764 0.0
H358 H -0.01378 0.28097 0.78257 0.0
C359 C 0.95275 0.25614 0.84586 0.0
C360 C 0.49982 0.721 0.90959 0.0
C361 C 0.52344 0.73742 0.93303 0.0
H362 H 0.42708 0.69061 0.89006 0.0
C363 C 0.49028 0.73201 0.95572 0.0
H364 H 0.5238 0.72476 0.89171 0.0
C365 C 0.43423 0.71133 0.95476 0.0
C366 C 0.41038 0.69723 0.93104 0.0
H367 H 0.5073 0.74449 0.97407 0.0
H368 H 0.40911 0.70819 0.97233 0.0
C369 C 0.44398 0.70179 0.9086 0.0
C370 C 0.51204 0.21899 0.70824 0.0
C371 C 0.49433 0.1787 0.69011 0.0
H372 H 0.50619 0.30538 0.72118 0.0
C373 C 0.45266 0.19446 0.67233 0.0
H374 H 0.544 0.20826 0.72227 0.0
C375 C 0.43157 0.24964 0.67164 0.0
C376 C 0.45124 0.29089 0.68877 0.0
H377 H 0.43733 0.16461 0.65828 0.0
H378 H 0.40053 0.26029 0.65716 0.0
C379 C 0.49048 0.27463 0.70763 0.0
C380 C 0.02246 0.22598 0.41136 0.0
C381 C 0.04477 0.25163 0.43327 0.0
H382 H 0.95262 0.18418 0.39412 0.0
C383 C 0.01116 0.25168 0.45597 0.0
H384 H 0.04657 0.22499 0.39349 0.0
C385 C 0.95618 0.22712 0.45643 0.0
C386 C 0.9336 0.20349 0.43402 0.0
H387 H 0.02715 0.2709 0.47325 0.0
H388 H 0.93095 0.22803 0.47397 0.0
C389 C 0.96793 0.20278 0.41168 0.0
C390 C -0.01893 0.71243 0.20644 0.0
C391 C -0.0065 0.67949 0.18478 0.0
H392 H 0.94966 0.79221 0.22016 0.0
C393 C -0.01675 0.70253 0.16011 0.0
H394 H -0.01126 0.69592 0.22569 0.0
C395 C 0.96225 0.75718 0.157 0.0
C396 C 0.94987 0.79035 0.17846 0.0
H397 H -0.00751 0.67881 0.14292 0.0
H398 H 0.95534 0.77325 0.1376 0.0
C399 C 0.95879 0.76738 0.20329 0.0
C400 C 0.43688 0.96643 0.02389 0.0
C401 C 0.43345 0.02085 0.01229 0.0
H402 H 0.48077 0.88729 0.02568 0.0
C403 C 0.47336 0.03715 0.99314 0.0
H404 H 0.40679 0.95267 0.03873 0.0
C405 C 0.51582 -0.0002 0.9857 0.0
C406 C 0.51921 0.94535 0.99725 0.0
H407 H 0.47197 0.07889 0.98387 0.0
H408 H 0.54587 0.01361 0.97085 0.0
C409 C 0.47935 0.92904 0.01644 0.0
C410 C 0.73947 0.67335 0.27484 0.0
C411 C 0.6834 0.6737 0.26607 0.0
H412 H 0.82071 0.71508 0.27403 0.0
C413 C 0.666 0.71854 0.24975 0.0
H414 H 0.7541 0.63933 0.28741 0.0
C415 C 0.70399 0.76177 0.24208 0.0
C416 C 0.76027 0.76112 0.25053 0.0
H417 H 0.62298 0.7202 0.24273 0.0
H418 H 0.68923 0.79553 0.2294 0.0
C419 C 0.7776 0.71667 0.26711 0.0
C420 C 0.03117 -0.00088 0.51859 0.0
C421 C 0.02818 0.94149 0.51189 0.0
H422 H -0.01021 0.07961 0.51854 0.0
C423 C 0.97922 0.92058 0.49995 0.0
H424 H 0.06832 0.0164 0.52786 0.0
C425 C 0.93422 0.95674 0.49463 0.0
C426 C 0.93734 0.01444 0.50118 0.0
H427 H 0.97562 0.87627 0.49463 0.0
H428 H 0.89714 0.93948 0.48528 0.0
C429 C -0.01388 0.03526 0.51329 0.0
C430 C 0.8008 0.2286 0.74553 0.0
C431 C 0.78371 0.2706 0.76277 0.0
H432 H 0.77785 0.15278 0.72579 0.0
C433 C 0.72956 0.26674 0.77423 0.0
H434 H 0.84244 0.23031 0.73652 0.0
C435 C 0.69269 0.22232 0.76814 0.0
C436 C 0.70927 0.18103 0.75047 0.0
H437 H 0.71533 0.29838 0.78768 0.0
H438 H 0.65089 0.22094 0.77701 0.0
C439 C 0.76385 0.18419 0.73941 0.0
C440 C 0.2254 0.28048 0.73268 0.0
C441 C 0.28077 0.28043 0.74231 0.0
H442 H 0.14384 0.23983 0.733 0.0
C443 C 0.29662 0.23708 0.75973 0.0
H444 H 0.21192 0.31339 0.71925 0.0
C445 C 0.25758 0.19494 0.76765 0.0
C446 C 0.20199 0.19544 0.75828 0.0
H447 H 0.33907 0.23585 0.76744 0.0
H448 H 0.27094 0.1622 0.78119 0.0
C449 C 0.18636 0.2384 0.74062 0.0
C450 C 0.21028 0.78555 0.26752 0.0
C451 C 0.26416 0.79028 0.25585 0.0
H452 H 0.13325 0.73719 0.2714 0.0
C453 C 0.28095 0.74932 0.23802 0.0
H454 H 0.19613 0.81656 0.28129 0.0
C455 C 0.24504 0.70367 0.23245 0.0
C456 C 0.19169 0.69826 0.24456 0.0
H457 H 0.32226 0.75182 0.22872 0.0
H458 H 0.25937 0.67236 0.21885 0.0
C459 C 0.17436 0.73996 0.26192 0.0
C460 C 0.01461 0.50781 0.48281 0.0
C461 C 0.02071 0.45298 0.49368 0.0
H462 H 0.96462 0.58292 0.48067 0.0
C463 C 0.97855 0.43098 0.51056 0.0
H464 H 0.04624 0.52575 0.4696 0.0
C465 C 0.93164 0.46371 0.51687 0.0
C466 C 0.92608 0.51893 0.50635 0.0
H467 H -0.01807 0.38865 0.51909 0.0
H468 H 0.90022 0.44604 0.53026 0.0
C469 C 0.96767 0.54043 0.48905 0.0
C470 C 0.48268 0.42833 0.99744 0.0
C471 C 0.52771 0.45427 0.01049 0.0
H472 H 0.40093 0.43851 0.98074 0.0
C473 C 0.52436 0.51209 0.01666 0.0
H474 H 0.48401 0.38373 0.99248 0.0
C475 C 0.47674 0.54342 0.00994 0.0
C476 C 0.43163 0.51743 0.99697 0.0
H477 H 0.55846 0.5332 0.02668 0.0
H478 H 0.4754 0.58801 0.01492 0.0
C479 C 0.43504 0.45963 0.99076 0.0
C480 C 0.13073 0.30078 0.16635 0.0
C481 C 0.18761 0.30027 0.15813 0.0
H482 H 0.06242 0.35015 0.181 0.0
C483 C 0.22044 0.35054 0.15953 0.0
H484 H 0.10434 0.26276 0.16544 0.0
C485 C 0.19657 0.40054 0.16881 0.0
C486 C 0.13919 0.40132 0.17633 0.0
H487 H 0.26451 0.35125 0.1534 0.0
H488 H 0.22262 0.43883 0.16953 0.0
C489 C 0.10664 0.3509 0.17513 0.0
C490 C 0.37296 0.39641 0.37533 0.0
C491 C 0.39275 0.45293 0.37734 0.0
H492 H 0.31354 0.33249 0.38856 0.0
C493 C 0.36196 0.49052 0.3928 0.0
H494 H 0.39537 0.36627 0.36354 0.0
C495 C 0.31439 0.47112 0.40702 0.0
C496 C 0.29689 0.41363 0.40624 0.0
H497 H 0.37584 0.53441 0.39471 0.0
H498 H 0.293 0.50056 0.41953 0.0
C499 C 0.32587 0.37695 0.38971 0.0
C500 C 0.24918 0.64762 0.67755 0.0
C501 C 0.26944 0.6825 0.65702 0.0
H502 H 0.25944 0.57057 0.69971 0.0
C503 C 0.31935 0.66718 0.64403 0.0
H504 H 0.211 0.6584 0.68806 0.0
C505 C 0.34717 0.61695 0.65075 0.0
C506 C 0.32558 0.5807 0.67053 0.0
H507 H 0.33628 0.69329 0.62824 0.0
H508 H 0.38489 0.60597 0.63998 0.0
C509 C 0.27687 0.59717 0.68419 0.0
C510 C 0.08492 0.5797 0.88319 0.0
C511 C 0.05872 0.52607 0.88657 0.0
H512 H 0.15034 0.63628 0.89498 0.0
C513 C 0.08203 0.48621 0.9039 0.0
H514 H 0.06815 0.61118 0.86987 0.0
C515 C 0.12948 0.5008 0.91838 0.0
C516 C 0.1547 0.55511 0.91542 0.0
H517 H 0.06267 0.44443 0.90686 0.0
H518 H 0.14571 0.47004 0.93218 0.0
C519 C 0.13248 0.59393 0.89741 0.0
C520 C 0.77117 0.56904 0.83944 0.0
C521 C 0.8285 0.56833 0.83187 0.0
H522 H 0.70411 0.61711 0.85638 0.0
C523 C 0.86189 0.61781 0.83455 0.0
H524 H 0.74451 0.53144 0.8376 0.0
C525 C 0.8387 0.66692 0.84488 0.0
C526 C 0.78187 0.66724 0.8532 0.0
H527 H 0.90607 0.6186 0.82861 0.0
H528 H 0.86569 0.70424 0.84687 0.0
C529 C 0.74819 0.61792 0.85028 0.0
C530 C 0.55006 0.5823 0.59763 0.0
C531 C 0.54609 0.52484 0.60566 0.0
H532 H 0.6036 0.65063 0.58382 0.0
C533 C 0.59505 0.4913 0.60523 0.0
H534 H 0.51319 0.60937 0.59781 0.0
C535 C 0.64707 0.51504 0.59698 0.0
C536 C 0.65104 0.57289 0.5895 0.0
H537 H 0.59318 0.44686 0.61131 0.0
H538 H 0.6843 0.48846 0.59689 0.0
C539 C 0.60199 0.60612 0.5898 0.0
C540 C 0.70782 0.3069 0.32901 0.0
C541 C 0.70146 0.28085 0.35352 0.0
H542 H 0.6858 0.37712 0.30419 0.0
C543 C 0.66418 0.30469 0.37147 0.0
H544 H 0.73609 0.28935 0.31472 0.0
C545 C 0.63559 0.35471 0.36549 0.0
C546 C 0.64347 0.38215 0.34138 0.0
H547 H 0.65787 0.28541 0.39043 0.0
H548 H 0.608 0.37237 0.38003 0.0
C549 C 0.679 0.35713 0.32297 0.0
C550 C 0.82635 0.3649 0.11092 0.0
C551 C 0.80294 0.40567 0.0941 0.0
H552 H 0.89026 0.34596 0.13853 0.0
C553 C 0.82625 0.46104 0.0931 0.0
H554 H 0.8104 0.3216 0.11169 0.0
C555 C 0.87292 0.47484 0.10818 0.0
C556 C 0.89699 0.43355 0.12459 0.0
H557 H 0.8094 0.49332 0.0802 0.0
H558 H 0.89058 0.51765 0.10669 0.0
C559 C 0.87261 0.37875 0.12615 0.0
C560 C 0.71069 0.84914 0.65085 0.0
C561 C 0.67106 0.81021 0.641 0.0
H562 H 0.72405 0.92654 0.67127 0.0
C563 C 0.61301 0.82189 0.64338 0.0
H564 H 0.75577 0.84146 0.64927 0.0
C565 C 0.5949 0.8708 0.65578 0.0
C566 C 0.63442 0.90897 0.66626 0.0
H567 H 0.58139 0.79299 0.63585 0.0
H568 H 0.54977 0.87805 0.65758 0.0
C569 C 0.69255 0.89795 0.66343 0.0
C570 C 0.84308 0.86878 0.90246 0.0
C571 C 0.7987 0.89647 0.91529 0.0
H572 H 0.92512 0.87667 0.88446 0.0
C573 C 0.80411 0.9551 0.91986 0.0
H574 H 0.84053 0.82354 0.89885 0.0
C575 C 0.85276 -0.01469 0.9119 0.0
C576 C 0.89704 0.95773 0.89901 0.0
H577 H 0.7709 0.97776 0.92978 0.0
H578 H 0.85554 0.03042 0.91585 0.0
C579 C 0.89164 0.89917 0.89426 0.0
C580 C 0.81491 0.07028 0.14622 0.0
C581 C 0.80017 0.05171 0.17135 0.0
H582 H 0.8073 0.1359 0.11714 0.0
C583 C 0.76714 0.08708 0.18685 0.0
H584 H 0.8407 0.04409 0.1339 0.0
C585 C 0.74845 0.13944 0.17738 0.0
C586 C 0.76219 0.15777 0.15214 0.0
H587 H 0.75563 0.07438 0.20641 0.0
H588 H 0.7228 0.16538 0.18988 0.0
C589 C 0.79602 0.12291 0.13668 0.0
C590 C 0.63043 0.01527 0.42809 0.0
C591 C 0.6694 0.05669 0.41862 0.0
H592 H 0.55525 0.96596 0.42096 0.0
C593 C 0.66137 0.08017 0.39386 0.0
H594 H 0.63536 -0.00376 0.4471 0.0
C595 C 0.61535 0.06333 0.37901 0.0
C596 C 0.57632 0.02204 0.38842 0.0
H597 H 0.69031 0.11195 0.3859 0.0
H598 H 0.61052 0.08278 0.36008 0.0
C599 C 0.58449 -0.00204 0.41311 0.0
C600 C 0.31795 0.14093 0.3681 0.0
C601 C 0.26174 0.15093 0.36068 0.0
H602 H 0.39043 0.08731 0.36488 0.0
C603 C 0.2352 0.11275 0.34404 0.0
H604 H 0.33957 0.16961 0.38092 0.0
C605 C 0.26416 0.06552 0.335 0.0
C606 C 0.32049 0.05568 0.34223 0.0
H607 H 0.19194 0.11921 0.33797 0.0
H608 H 0.24243 0.03701 0.32215 0.0
C609 C 0.34712 0.09385 0.35889 0.0
C610 C 0.06435 0.06485 0.11851 0.0
C611 C 0.05048 0.01346 0.10658 0.0
H612 H 0.12426 0.13317 0.12183 0.0
C613 C 0.08804 -0.00816 0.08805 0.0
H614 H 0.03631 0.08271 0.13282 0.0
C615 C 0.13888 0.02048 0.08192 0.0
C616 C 0.15307 0.07162 0.09405 0.0
H617 H 0.07851 0.95239 0.07841 0.0
H618 H 0.16698 0.00253 0.06766 0.0
C619 C 0.11493 0.09371 0.11224 0.0
C620 C 0.16999 0.86842 0.81986 0.0
C621 C 0.14669 0.90755 0.83699 0.0
H622 H 0.20449 0.78595 0.81467 0.0
C623 C 0.1386 0.89116 0.86297 0.0
H624 H 0.17598 0.87938 0.79964 0.0
C625 C 0.15545 0.83707 0.87175 0.0
C626 C 0.17996 0.7985 0.85457 0.0
H627 H 0.12031 0.92038 0.87655 0.0
H628 H 0.15012 0.82585 0.89196 0.0
C629 C 0.18607 0.81455 0.82849 0.0
C630 C 0.37009 0.92351 0.62008 0.0
C631 C 0.4163 0.94058 0.60425 0.0
H632 H 0.28461 0.89139 0.62183 0.0
C633 C 0.41126 0.93719 0.57742 0.0
H634 H 0.37285 0.92538 0.64085 0.0
C635 C 0.36055 0.91873 0.56659 0.0
C636 C 0.31414 0.90229 0.58236 0.0
H637 H 0.44607 0.95 0.56471 0.0
H638 H 0.35773 0.91733 0.5458 0.0
C639 C 0.31962 0.904 0.60922 0.0
C640 C 0.19772 0.134 0.96652 0.0
C641 C 0.2052 0.08335 0.98096 0.0
H642 H 0.1637 0.17282 0.93237 0.0
C643 C 0.18366 0.03195 0.97131 0.0
H644 H 0.21388 0.17428 0.97339 0.0
C645 C 0.15534 0.03103 0.94788 0.0
C646 C 0.14749 0.08154 0.93345 0.0
H647 H 0.18873 -0.00798 0.98182 0.0
H648 H 0.13936 -0.00947 0.94117 0.0
C649 C 0.16902 0.13312 0.94301 0.0
C650 C 0.69538 0.42181 0.18475 0.0
C651 C 0.64664 0.40246 0.17217 0.0
H652 H 0.72949 0.46282 0.21763 0.0
C653 C 0.59316 0.41284 0.18337 0.0
H654 H 0.73719 0.41487 0.17663 0.0
C655 C 0.58865 0.44048 0.20697 0.0
C656 C 0.63754 0.45821 0.21991 0.0
H657 H 0.55467 0.39857 0.17419 0.0
H658 H 0.54697 0.44674 0.21534 0.0
C659 C 0.69088 0.44927 0.20832 0.0
C660 C 0.26988 0.81863 0.45321 0.0
C661 C 0.23918 0.86739 0.45958 0.0
H662 H 0.33057 0.7821 0.42745 0.0
C663 C 0.24108 0.91491 0.44266 0.0
H664 H 0.26926 0.78145 0.46593 0.0
C665 C 0.27595 0.91544 0.42082 0.0
C666 C 0.31003 0.86846 0.41536 0.0
H667 H 0.21736 0.95295 0.44688 0.0
H668 H 0.27792 0.95377 0.40883 0.0
C669 C 0.30518 0.8192 0.43126 0.0
C670 C 0.8754 0.5655 0.68593 0.0
C671 C 0.82467 0.5721 0.67222 0.0
H672 H 0.91631 0.5279 0.7187 0.0
C673 C 0.77589 0.54239 0.68101 0.0
H674 H 0.91387 0.58759 0.67964 0.0
C675 C 0.7773 0.50847 0.70344 0.0
C676 C 0.82759 0.50308 0.71755 0.0
H677 H 0.73618 0.5463 0.6709 0.0
H678 H 0.73858 0.48707 0.70989 0.0
C679 C 0.8769 0.53119 0.70831 0.0
C680 C 0.78709 0.8335 0.06454 0.0
C681 C 0.80649 0.8854 0.07461 0.0
H682 H 0.74389 0.79211 0.03375 0.0
C683 C 0.79659 0.93621 0.06072 0.0
H684 H 0.79407 0.79357 0.07477 0.0
C685 C 0.76835 0.93529 0.03729 0.0
C686 C 0.74891 0.88358 0.02714 0.0
H687 H 0.81093 0.97695 0.06784 0.0
H688 H 0.76162 0.97544 0.02719 0.0
C689 C 0.7584 0.83262 0.04104 0.0
C690 C 0.26557 0.54064 0.82048 0.0
C691 C 0.31398 0.56603 0.83107 0.0
H692 H 0.2312 0.49196 0.78986 0.0
C693 C 0.36674 0.55909 0.81862 0.0
H694 H 0.22432 0.54496 0.82957 0.0
C695 C 0.37078 0.52839 0.79583 0.0
C696 C 0.32208 0.50427 0.78492 0.0
H697 H 0.40493 0.57802 0.82628 0.0
H698 H 0.41182 0.52462 0.78649 0.0
C699 C 0.26956 0.51028 0.79765 0.0
C700 C 0.65937 0.13263 0.57867 0.0
C701 C 0.65008 0.08167 0.59309 0.0
H702 H 0.69793 0.17249 0.545 0.0
C703 C 0.67753 0.03212 0.58518 0.0
H704 H 0.63911 0.17172 0.5843 0.0
C705 C 0.71092 0.03268 0.5628 0.0
C706 C 0.71814 0.08281 0.54768 0.0
H707 H 0.67187 -0.00776 0.59584 0.0
H708 H 0.72996 -0.0069 0.55698 0.0
C709 C 0.69325 0.13324 0.55621 0.0
C710 C 0.197 0.42351 0.32231 0.0
C711 C 0.14697 0.40089 0.33359 0.0
H712 H 0.23485 0.47122 0.29101 0.0
C713 C 0.09494 0.41185 0.32155 0.0
H714 H 0.23779 0.41617 0.33109 0.0
C715 C 0.09319 0.4438 0.29847 0.0
C716 C 0.14348 0.46514 0.28691 0.0
H717 H 0.05556 0.39516 0.32976 0.0
H718 H 0.05263 0.45087 0.28947 0.0
C719 C 0.19528 0.45506 0.29926 0.0
C720 C 0.67253 0.64385 0.44096 0.0
C721 C 0.63958 0.5975 0.43255 0.0
H722 H 0.72424 0.67771 0.47097 0.0
C723 C 0.63141 0.55015 0.44925 0.0
H724 H 0.67948 0.6811 0.42861 0.0
C725 C 0.65684 0.54828 0.47335 0.0
C726 C 0.6912 0.59369 0.48153 0.0
H727 H 0.60617 0.51374 0.44354 0.0
H728 H 0.65034 0.51046 0.48539 0.0
C729 C 0.69809 0.64198 0.46524 0.0
C730 C 0.07521 0.91615 0.69056 0.0
C731 C 0.12179 0.91982 0.67336 0.0
H732 H 0.03879 0.94479 0.72613 0.0
C733 C 0.16403 0.96132 0.67727 0.0
H734 H 0.0418 0.88478 0.68795 0.0
C735 C 0.16213 -0.00464 0.6989 0.0
C736 C 0.11786 -0.01099 0.71706 0.0
H737 H 0.19997 0.96602 0.66419 0.0
H738 H 0.19683 0.02506 0.702 0.0
C739 C 0.0732 0.95068 0.7123 0.0
C740 C 0.80329 0.352 0.934 0.0
C741 C 0.8107 0.40224 0.91895 0.0
H742 H 0.7687 0.31358 0.96869 0.0
C743 C 0.78473 0.4524 0.92703 0.0
H744 H 0.8225 0.3125 0.9282 0.0
C745 C 0.75436 0.453 0.95026 0.0
C746 C 0.74879 0.40336 0.96582 0.0
H747 H 0.78947 0.49174 0.91588 0.0
H748 H 0.73621 0.49285 0.95627 0.0
C749 C 0.77237 0.35248 0.95717 0.0
C750 C 0.35306 0.01674 0.20859 0.0
C751 C 0.349 0.0427 0.23268 0.0
H752 H 0.34809 0.02824 0.16746 0.0
C753 C 0.34115 0.1018 0.23365 0.0
H754 H 0.3583 0.97104 0.2074 0.0
C755 C 0.33656 0.13441 0.21102 0.0
C756 C 0.33788 0.10839 0.1869 0.0
H757 H 0.33747 0.12271 0.252 0.0
H758 H 0.32961 0.17981 0.21248 0.0
C759 C 0.34668 0.04928 0.18583 0.0
C760 C 0.2924 0.44624 0.57014 0.0
C761 C 0.31392 0.39406 0.57914 0.0
H762 H 0.24713 0.49047 0.54071 0.0
C763 C 0.30335 0.34464 0.56492 0.0
H764 H 0.29968 0.48514 0.58056 0.0
C765 C 0.27278 0.34764 0.54195 0.0
C766 C 0.25263 0.40021 0.53266 0.0
H767 H 0.31924 0.30371 0.57137 0.0
H768 H 0.2659 0.30906 0.53125 0.0
C769 C 0.26235 0.44929 0.54717 0.0
C770 C 0.89356 0.04379 0.31723 0.0
C771 C 0.8474 0.04433 0.33467 0.0
H772 H 0.92663 0.01133 0.28173 0.0
C773 C 0.80153 0.0068 0.33099 0.0
H774 H 0.92971 0.07201 0.31967 0.0
C775 C 0.79997 0.9723 0.30952 0.0
C776 C 0.84424 0.9743 0.29119 0.0
H777 H 0.76569 0.00537 0.34424 0.0
H778 H 0.76286 0.94551 0.30678 0.0
C779 C 0.89203 0.00888 0.29562 0.0
C780 C 0.18087 0.52478 0.08397 0.0
C781 C 0.15146 0.57374 0.09113 0.0
H782 H 0.23205 0.4849 0.05551 0.0
C783 C 0.15603 0.62305 0.07524 0.0
H784 H 0.17863 0.48619 0.09577 0.0
C785 C 0.1871 0.62244 0.05206 0.0
C786 C 0.21375 0.57235 0.04428 0.0
H787 H 0.13413 0.66165 0.08028 0.0
H788 H 0.1882 0.6603 0.03977 0.0
C789 C 0.21143 0.52405 0.0608 0.0
C790 C 0.68335 0.91434 0.82394 0.0
C791 C 0.63166 0.89071 0.83297 0.0
H792 H 0.72674 0.96294 0.79446 0.0
C793 C 0.58212 0.90156 0.8189 0.0
H794 H 0.72232 0.90705 0.83426 0.0
C795 C 0.58462 0.93418 0.79596 0.0
C796 C 0.63678 0.95599 0.78655 0.0
H797 H 0.54157 0.88411 0.82538 0.0
H798 H 0.54603 0.94106 0.7853 0.0
C799 C 0.6859 0.94629 0.80099 0.0
loop_
_geom_bond_atom_site_label_1
_geom_bond_atom_site_label_2
_geom_bond_distance
_geom_bond_site_symmetry_2
_ccdc_geom_bond_type
Zn0 O6 1.969 . S
Zn0 O7 1.965 . S
Zn0 O11 2.024 . S
Zn0 O16 1.969 . S
Zn1 O8 1.969 . S
Zn1 O14 1.969 . S
Zn1 O15 1.965 . S
Zn1 O17 2.024 . S
C2 O3 1.229 . S
C2 O11 1.058 . S
O3 C2 1.229 . S
C4 O5 1.229 . S
C4 O17 1.058 . S
O5 C4 1.229 . S
O6 Zn0 1.969 . S
O6 C9 1.267 . S
O7 Zn0 1.965 . S
O7 C18 1.260 . S
O8 Zn1 1.969 . S
O8 C18 1.258 . S
C9 O6 1.267 . S
C9 O10 1.228 . S
O10 C9 1.228 . S
O11 Zn0 2.024 . S
O11 C2 1.058 . S
C12 O13 1.228 . S
C12 O14 1.267 . S
O13 C12 1.228 . S
O14 Zn1 1.969 . S
O14 C12 1.267 . S
O15 Zn1 1.965 . S
O15 C19 1.260 . S
O16 Zn0 1.969 . S
O16 C19 1.258 . S
O17 Zn1 2.024 . S
O17 C4 1.058 . S
C18 O7 1.260 . S
C18 O8 1.258 . S
C19 O15 1.260 . S
C19 O16 1.258 . S
Zn20 O26 1.969 . S
Zn20 O27 1.965 . S
Zn20 O31 2.024 . S
Zn20 O36 1.969 . S
Zn21 O28 1.969 . S
Zn21 O34 1.969 . S
Zn21 O35 1.965 . S
Zn21 O37 2.024 . S
C22 O23 1.229 . S
C22 O31 1.058 . S
O23 C22 1.229 . S
C24 O25 1.229 . S
C24 O37 1.058 . S
O25 C24 1.229 . S
O26 Zn20 1.969 . S
O26 C29 1.267 . S
O27 Zn20 1.965 . S
O27 C38 1.260 . S
O28 Zn21 1.969 . S
O28 C38 1.258 . S
C29 O26 1.267 . S
C29 O30 1.228 . S
O30 C29 1.228 . S
O31 Zn20 2.024 . S
O31 C22 1.058 . S
C32 O33 1.228 . S
C32 O34 1.267 . S
O33 C32 1.228 . S
O34 Zn21 1.969 . S
O34 C32 1.267 . S
O35 Zn21 1.965 . S
O35 C39 1.260 . S
O36 Zn20 1.969 . S
O36 C39 1.258 . S
O37 Zn21 2.024 . S
O37 C24 1.058 . S
C38 O27 1.260 . S
C38 O28 1.258 . S
C39 O35 1.260 . S
C39 O36 1.258 . S
Zn40 O46 1.969 . S
Zn40 O47 1.965 . S
Zn40 O51 2.024 . S
Zn40 O56 1.969 . S
Zn41 O48 1.969 . S
Zn41 O54 1.969 . S
Zn41 O55 1.965 . S
Zn41 O57 2.024 . S
C42 O43 1.229 . S
C42 O51 1.058 . S
O43 C42 1.229 . S
C44 O45 1.229 . S
C44 O57 1.058 . S
O45 C44 1.229 . S
O46 Zn40 1.969 . S
O46 C49 1.267 . S
O47 Zn40 1.965 . S
O47 C58 1.260 . S
O48 Zn41 1.969 . S
O48 C58 1.258 . S
C49 O46 1.267 . S
C49 O50 1.228 . S
O50 C49 1.228 . S
O51 Zn40 2.024 . S
O51 C42 1.058 . S
C52 O53 1.228 . S
C52 O54 1.267 . S
O53 C52 1.228 . S
O54 Zn41 1.969 . S
O54 C52 1.267 . S
O55 Zn41 1.965 . S
O55 C59 1.260 . S
O56 Zn40 1.969 . S
O56 C59 1.258 . S
O57 Zn41 2.024 . S
O57 C44 1.058 . S
C58 O47 1.260 . S
C58 O48 1.258 . S
C59 O55 1.260 . S
C59 O56 1.258 . S
Zn60 O66 1.969 . S
Zn60 O67 1.965 . S
Zn60 O71 2.024 . S
Zn60 O76 1.969 . S
Zn61 O68 1.969 . S
Zn61 O74 1.969 1_655 S
Zn61 O75 1.965 . S
Zn61 O77 2.024 . S
C62 O63 1.229 . S
C62 O71 1.058 . S
O63 C62 1.229 . S
C64 O65 1.229 . S
C64 O77 1.058 . S
O65 C64 1.229 . S
O66 Zn60 1.969 . S
O66 C69 1.267 . S
O67 Zn60 1.965 . S
O67 C78 1.260 . S
O68 Zn61 1.969 . S
O68 C78 1.258 . S
C69 O66 1.267 . S
C69 O70 1.228 . S
O70 C69 1.228 . S
O71 Zn60 2.024 . S
O71 C62 1.058 . S
C72 O73 1.228 1_455 S
C72 O74 1.267 . S
O73 C72 1.228 1_655 S
O74 Zn61 1.969 1_455 S
O74 C72 1.267 . S
O75 Zn61 1.965 . S
O75 C79 1.260 . S
O76 Zn60 1.969 . S
O76 C79 1.258 . S
O77 Zn61 2.024 . S
O77 C64 1.058 . S
C78 O67 1.260 . S
C78 O68 1.258 . S
C79 O75 1.260 . S
C79 O76 1.258 . S
Zn80 O86 1.969 . S
Zn80 O87 1.965 . S
Zn80 O91 2.024 . S
Zn80 O96 1.969 . S
Zn81 O88 1.969 . S
Zn81 O94 1.969 . S
Zn81 O95 1.965 . S
Zn81 O97 2.024 . S
C82 O83 1.229 . S
C82 O91 1.058 . S
O83 C82 1.229 . S
C84 O85 1.229 . S
C84 O97 1.058 . S
O85 C84 1.229 . S
O86 Zn80 1.969 . S
O86 C89 1.267 . S
O87 Zn80 1.965 . S
O87 C98 1.260 . S
O88 Zn81 1.969 . S
O88 C98 1.258 . S
C89 O86 1.267 . S
C89 O90 1.228 . S
O90 C89 1.228 . S
O91 Zn80 2.024 . S
O91 C82 1.058 . S
C92 O93 1.228 . S
C92 O94 1.267 . S
O93 C92 1.228 . S
O94 Zn81 1.969 . S
O94 C92 1.267 . S
O95 Zn81 1.965 . S
O95 C99 1.260 . S
O96 Zn80 1.969 . S
O96 C99 1.258 . S
O97 Zn81 2.024 . S
O97 C84 1.058 . S
C98 O87 1.260 . S
C98 O88 1.258 . S
C99 O95 1.260 . S
C99 O96 1.258 . S
Zn100 O106 1.969 . S
Zn100 O107 1.965 . S
Zn100 O111 2.024 . S
Zn100 O116 1.969 . S
Zn101 O108 1.969 . S
Zn101 O114 1.969 . S
Zn101 O115 1.965 . S
Zn101 O117 2.024 . S
C102 O103 1.229 . S
C102 O111 1.058 . S
O103 C102 1.229 . S
C104 O105 1.229 . S
C104 O117 1.058 . S
O105 C104 1.229 . S
O106 Zn100 1.969 . S
O106 C109 1.267 . S
O107 Zn100 1.965 . S
O107 C118 1.260 . S
O108 Zn101 1.969 . S
O108 C118 1.258 . S
C109 O106 1.267 . S
C109 O110 1.228 . S
O110 C109 1.228 . S
O111 Zn100 2.024 . S
O111 C102 1.058 . S
C112 O113 1.228 . S
C112 O114 1.267 . S
O113 C112 1.228 . S
O114 Zn101 1.969 . S
O114 C112 1.267 . S
O115 Zn101 1.965 . S
O115 C119 1.260 . S
O116 Zn100 1.969 . S
O116 C119 1.258 . S
O117 Zn101 2.024 . S
O117 C104 1.058 . S
C118 O107 1.260 . S
C118 O108 1.258 . S
C119 O115 1.260 . S
C119 O116 1.258 . S
Zn120 O126 1.969 . S
Zn120 O127 1.965 . S
Zn120 O131 2.024 . S
Zn120 O136 1.969 . S
Zn121 O128 1.969 . S
Zn121 O134 1.969 . S
Zn121 O135 1.965 . S
Zn121 O137 2.024 . S
C122 O123 1.229 . S
C122 O131 1.058 . S
O123 C122 1.229 . S
C124 O125 1.229 . S
C124 O137 1.058 . S
O125 C124 1.229 . S
O126 Zn120 1.969 . S
O126 C129 1.267 . S
O127 Zn120 1.965 . S
O127 C138 1.260 . S
O128 Zn121 1.969 . S
O128 C138 1.258 . S
C129 O126 1.267 . S
C129 O130 1.228 . S
O130 C129 1.228 . S
O131 Zn120 2.024 . S
O131 C122 1.058 . S
C132 O133 1.228 . S
C132 O134 1.267 . S
O133 C132 1.228 . S
O134 Zn121 1.969 . S
O134 C132 1.267 . S
O135 Zn121 1.965 . S
O135 C139 1.260 . S
O136 Zn120 1.969 . S
O136 C139 1.258 . S
O137 Zn121 2.024 . S
O137 C124 1.058 . S
C138 O127 1.260 . S
C138 O128 1.258 . S
C139 O135 1.260 . S
C139 O136 1.258 . S
Zn140 O146 1.969 1_455 S
Zn140 O147 1.965 . S
Zn140 O151 2.024 . S
Zn140 O156 1.969 . S
Zn141 O148 1.969 . S
Zn141 O154 1.969 . S
Zn141 O155 1.965 . S
Zn141 O157 2.024 . S
C142 O143 1.229 . S
C142 O151 1.058 . S
O143 C142 1.229 . S
C144 O145 1.229 . S
C144 O157 1.058 . S
O145 C144 1.229 . S
O146 Zn140 1.969 1_655 S
O146 C149 1.267 . S
O147 Zn140 1.965 . S
O147 C158 1.260 . S
O148 Zn141 1.969 . S
O148 C158 1.258 . S
C149 O146 1.267 . S
C149 O150 1.228 1_655 S
O150 C149 1.228 1_455 S
O151 Zn140 2.024 . S
O151 C142 1.058 . S
C152 O153 1.228 . S
C152 O154 1.267 . S
O153 C152 1.228 . S
O154 Zn141 1.969 . S
O154 C152 1.267 . S
O155 Zn141 1.965 . S
O155 C159 1.260 . S
O156 Zn140 1.969 . S
O156 C159 1.258 . S
O157 Zn141 2.024 . S
O157 C144 1.058 . S
C158 O147 1.260 . S
C158 O148 1.258 . S
C159 O155 1.260 . S
C159 O156 1.258 . S
Zn160 O166 1.969 . S
Zn160 O167 1.965 . S
Zn160 O171 2.024 . S
Zn160 O176 1.969 . S
Zn161 O168 1.969 . S
Zn161 O174 1.969 . S
Zn161 O175 1.965 . S
Zn161 O177 2.024 . S
C162 O163 1.229 . S
C162 O171 1.058 . S
O163 C162 1.229 . S
C164 O165 1.229 . S
C164 O177 1.058 . S
O165 C164 1.229 . S
O166 Zn160 1.969 . S
O166 C169 1.267 . S
O167 Zn160 1.965 . S
O167 C178 1.260 . S
O168 Zn161 1.969 . S
O168 C178 1.258 . S
C169 O166 1.267 . S
C169 O170 1.228 . S
O170 C169 1.228 . S
O171 Zn160 2.024 . S
O171 C162 1.058 . S
C172 O173 1.228 . S
C172 O174 1.267 . S
O173 C172 1.228 . S
O174 Zn161 1.969 . S
O174 C172 1.267 . S
O175 Zn161 1.965 . S
O175 C179 1.260 . S
O176 Zn160 1.969 . S
O176 C179 1.258 . S
O177 Zn161 2.024 . S
O177 C164 1.058 . S
C178 O167 1.260 . S
C178 O168 1.258 . S
C179 O175 1.260 . S
C179 O176 1.258 . S
Zn180 O186 1.969 . S
Zn180 O187 1.965 . S
Zn180 O191 2.024 . S
Zn180 O196 1.969 . S
Zn181 O188 1.969 . S
Zn181 O194 1.969 1_455 S
Zn181 O195 1.965 1_545 S
Zn181 O197 2.024 . S
C182 O183 1.229 . S
C182 O191 1.058 . S
O183 C182 1.229 . S
C184 O185 1.229 . S
C184 O197 1.058 . S
O185 C184 1.229 . S
O186 Zn180 1.969 . S
O186 C189 1.267 . S
O187 Zn180 1.965 . S
O187 C198 1.260 . S
O188 Zn181 1.969 . S
O188 C198 1.258 . S
C189 O186 1.267 . S
C189 O190 1.228 . S
O190 C189 1.228 . S
O191 Zn180 2.024 . S
O191 C182 1.058 . S
C192 O193 1.228 1_655 S
C192 O194 1.267 1_565 S
O193 C192 1.228 1_455 S
O194 Zn181 1.969 1_655 S
O194 C192 1.267 1_545 S
O195 Zn181 1.965 1_565 S
O195 C199 1.260 . S
O196 Zn180 1.969 . S
O196 C199 1.258 1_545 S
O197 Zn181 2.024 . S
O197 C184 1.058 . S
C198 O187 1.260 . S
C198 O188 1.258 . S
C199 O195 1.260 . S
C199 O196 1.258 1_565 S
Zn200 O206 1.969 . S
Zn200 O207 1.965 . S
Zn200 O211 2.024 . S
Zn200 O216 1.969 . S
Zn201 O208 1.969 . S
Zn201 O214 1.969 . S
Zn201 O215 1.965 . S
Zn201 O217 2.024 . S
C202 O203 1.229 . S
C202 O211 1.058 . S
O203 C202 1.229 . S
C204 O205 1.229 . S
C204 O217 1.058 . S
O205 C204 1.229 . S
O206 Zn200 1.969 . S
O206 C209 1.267 . S
O207 Zn200 1.965 . S
O207 C218 1.260 . S
O208 Zn201 1.969 . S
O208 C218 1.258 . S
C209 O206 1.267 . S
C209 O210 1.228 . S
O210 C209 1.228 . S
O211 Zn200 2.024 . S
O211 C202 1.058 . S
C212 O213 1.228 . S
C212 O214 1.267 . S
O213 C212 1.228 . S
O214 Zn201 1.969 . S
O214 C212 1.267 . S
O215 Zn201 1.965 . S
O215 C219 1.260 . S
O216 Zn200 1.969 . S
O216 C219 1.258 . S
O217 Zn201 2.024 . S
O217 C204 1.058 . S
C218 O207 1.260 . S
C218 O208 1.258 . S
C219 O215 1.260 . S
C219 O216 1.258 . S
Zn220 O226 1.969 . S
Zn220 O227 1.965 . S
Zn220 O231 2.024 . S
Zn220 O236 1.969 . S
Zn221 O228 1.969 . S
Zn221 O234 1.969 . S
Zn221 O235 1.965 1_565 S
Zn221 O237 2.024 . S
C222 O223 1.229 . S
C222 O231 1.058 . S
O223 C222 1.229 . S
C224 O225 1.229 . S
C224 O237 1.058 . S
O225 C224 1.229 . S
O226 Zn220 1.969 . S
O226 C229 1.267 . S
O227 Zn220 1.965 . S
O227 C238 1.260 . S
O228 Zn221 1.969 . S
O228 C238 1.258 . S
C229 O226 1.267 . S
C229 O230 1.228 . S
O230 C229 1.228 . S
O231 Zn220 2.024 . S
O231 C222 1.058 . S
C232 O233 1.228 . S
C232 O234 1.267 1_545 S
O233 C232 1.228 . S
O234 Zn221 1.969 . S
O234 C232 1.267 1_565 S
O235 Zn221 1.965 1_545 S
O235 C239 1.260 . S
O236 Zn220 1.969 . S
O236 C239 1.258 1_565 S
O237 Zn221 2.024 . S
O237 C224 1.058 . S
C238 O227 1.260 . S
C238 O228 1.258 . S
C239 O235 1.260 . S
C239 O236 1.258 1_545 S
Zn240 O246 1.969 . S
Zn240 O247 1.965 . S
Zn240 O251 2.024 . S
Zn240 O256 1.969 . S
Zn241 O248 1.969 . S
Zn241 O254 1.969 . S
Zn241 O255 1.965 . S
Zn241 O257 2.024 . S
C242 O243 1.229 . S
C242 O251 1.058 . S
O243 C242 1.229 . S
C244 O245 1.229 . S
C244 O257 1.058 . S
O245 C244 1.229 . S
O246 Zn240 1.969 . S
O246 C249 1.267 . S
O247 Zn240 1.965 . S
O247 C258 1.260 . S
O248 Zn241 1.969 . S
O248 C258 1.258 . S
C249 O246 1.267 . S
C249 O250 1.228 . S
O250 C249 1.228 . S
O251 Zn240 2.024 . S
O251 C242 1.058 . S
C252 O253 1.228 . S
C252 O254 1.267 . S
O253 C252 1.228 . S
O254 Zn241 1.969 . S
O254 C252 1.267 . S
O255 Zn241 1.965 . S
O255 C259 1.260 . S
O256 Zn240 1.969 . S
O256 C259 1.258 . S
O257 Zn241 2.024 . S
O257 C244 1.058 . S
C258 O247 1.260 . S
C258 O248 1.258 . S
C259 O255 1.260 . S
C259 O256 1.258 . S
Zn260 O266 1.969 1_655 S
Zn260 O267 1.965 1_565 S
Zn260 O271 2.024 . S
Zn260 O276 1.969 . S
Zn261 O268 1.969 . S
Zn261 O274 1.969 . S
Zn261 O275 1.965 . S
Zn261 O277 2.024 . S
C262 O263 1.229 . S
C262 O271 1.058 . S
O263 C262 1.229 . S
C264 O265 1.229 . S
C264 O277 1.058 . S
O265 C264 1.229 . S
O266 Zn260 1.969 1_455 S
O266 C269 1.267 1_565 S
O267 Zn260 1.965 1_545 S
O267 C278 1.260 . S
O268 Zn261 1.969 . S
O268 C278 1.258 1_565 S
C269 O266 1.267 1_545 S
C269 O270 1.228 1_455 S
O270 C269 1.228 1_655 S
O271 Zn260 2.024 . S
O271 C262 1.058 . S
C272 O273 1.228 . S
C272 O274 1.267 . S
O273 C272 1.228 . S
O274 Zn261 1.969 . S
O274 C272 1.267 . S
O275 Zn261 1.965 . S
O275 C279 1.260 . S
O276 Zn260 1.969 . S
O276 C279 1.258 . S
O277 Zn261 2.024 . S
O277 C264 1.058 . S
C278 O267 1.260 . S
C278 O268 1.258 1_545 S
C279 O275 1.260 . S
C279 O276 1.258 . S
Zn280 O286 1.969 . S
Zn280 O287 1.965 . S
Zn280 O291 2.024 . S
Zn280 O296 1.969 . S
Zn281 O288 1.969 . S
Zn281 O294 1.969 . S
Zn281 O295 1.965 . S
Zn281 O297 2.024 . S
C282 O283 1.229 . S
C282 O291 1.058 . S
O283 C282 1.229 . S
C284 O285 1.229 . S
C284 O297 1.058 . S
O285 C284 1.229 . S
O286 Zn280 1.969 . S
O286 C289 1.267 . S
O287 Zn280 1.965 . S
O287 C298 1.260 . S
O288 Zn281 1.969 . S
O288 C298 1.258 . S
C289 O286 1.267 . S
C289 O290 1.228 . S
O290 C289 1.228 . S
O291 Zn280 2.024 . S
O291 C282 1.058 . S
C292 O293 1.228 . S
C292 O294 1.267 . S
O293 C292 1.228 . S
O294 Zn281 1.969 . S
O294 C292 1.267 . S
O295 Zn281 1.965 . S
O295 C299 1.260 . S
O296 Zn280 1.969 . S
O296 C299 1.258 . S
O297 Zn281 2.024 . S
O297 C284 1.058 . S
C298 O287 1.260 . S
C298 O288 1.258 . S
C299 O295 1.260 . S
C299 O296 1.258 . S
Zn300 O306 1.969 . S
Zn300 O307 1.965 1_545 S
Zn300 O311 2.024 . S
Zn300 O316 1.969 . S
Zn301 O308 1.969 . S
Zn301 O314 1.969 . S
Zn301 O315 1.965 . S
Zn301 O317 2.024 . S
C302 O303 1.229 . S
C302 O311 1.058 . S
O303 C302 1.229 . S
C304 O305 1.229 . S
C304 O317 1.058 . S
O305 C304 1.229 . S
O306 Zn300 1.969 . S
O306 C309 1.267 1_545 S
O307 Zn300 1.965 1_565 S
O307 C318 1.260 . S
O308 Zn301 1.969 . S
O308 C318 1.258 1_545 S
C309 O306 1.267 1_565 S
C309 O310 1.228 . S
O310 C309 1.228 . S
O311 Zn300 2.024 . S
O311 C302 1.058 . S
C312 O313 1.228 . S
C312 O314 1.267 . S
O313 C312 1.228 . S
O314 Zn301 1.969 . S
O314 C312 1.267 . S
O315 Zn301 1.965 . S
O315 C319 1.260 . S
O316 Zn300 1.969 . S
O316 C319 1.258 . S
O317 Zn301 2.024 . S
O317 C304 1.058 . S
C318 O307 1.260 . S
C318 O308 1.258 1_565 S
C319 O315 1.260 . S
C319 O316 1.258 . S
C320 C321 1.387 . S
C320 H324 0.950 . S
C320 C329 1.390 . S
C321 C320 1.387 . S
C321 C323 1.387 . S
H322 C329 0.950 . S
C323 C321 1.387 . S
C323 C325 1.390 . S
C323 H327 0.950 . S
H324 C320 0.950 . S
C325 C323 1.390 . S
C325 C326 1.387 . S
C325 H328 0.950 . S
C326 C325 1.387 . S
C326 C329 1.387 . S
H327 C323 0.950 . S
H328 C325 0.950 . S
C329 C320 1.390 . S
C329 H322 0.950 . S
C329 C326 1.387 . S
C330 C331 1.387 . S
C330 H334 0.950 . S
C330 C339 1.390 . S
C331 C330 1.387 . S
C331 C333 1.387 . S
H332 C339 0.950 . S
C333 C331 1.387 . S
C333 C335 1.390 . S
C333 H337 0.950 . S
H334 C330 0.950 . S
C335 C333 1.390 . S
C335 C336 1.387 . S
C335 H338 0.950 . S
C336 C335 1.387 . S
C336 C339 1.387 . S
H337 C333 0.950 . S
H338 C335 0.950 . S
C339 C330 1.390 . S
C339 H332 0.950 . S
C339 C336 1.387 . S
C340 C341 1.387 . S
C340 H344 0.950 . S
C340 C349 1.390 1_455 S
C341 C340 1.387 . S
C341 C343 1.387 . S
H342 C349 0.950 . S
C343 C341 1.387 . S
C343 C345 1.390 1_455 S
C343 H347 0.950 . S
H344 C340 0.950 . S
C345 C343 1.390 1_655 S
C345 C346 1.387 . S
C345 H348 0.950 . S
C346 C345 1.387 . S
C346 C349 1.387 . S
H347 C343 0.950 . S
H348 C345 0.950 . S
C349 C340 1.390 1_655 S
C349 H342 0.950 . S
C349 C346 1.387 . S
C350 C351 1.387 . S
C350 H354 0.950 . S
C350 C359 1.390 1_455 S
C351 C350 1.387 . S
C351 C353 1.387 . S
H352 C359 0.950 . S
C353 C351 1.387 . S
C353 C355 1.390 1_455 S
C353 H357 0.950 . S
H354 C350 0.950 . S
C355 C353 1.390 1_655 S
C355 C356 1.387 . S
C355 H358 0.950 . S
C356 C355 1.387 . S
C356 C359 1.387 . S
H357 C353 0.950 . S
H358 C355 0.950 . S
C359 C350 1.390 1_655 S
C359 H352 0.950 . S
C359 C356 1.387 . S
C360 C361 1.387 . S
C360 H364 0.950 . S
C360 C369 1.390 . S
C361 C360 1.387 . S
C361 C363 1.387 . S
H362 C369 0.950 . S
C363 C361 1.387 . S
C363 C365 1.390 . S
C363 H367 0.950 . S
H364 C360 0.950 . S
C365 C363 1.390 . S
C365 C366 1.387 . S
C365 H368 0.950 . S
C366 C365 1.387 . S
C366 C369 1.387 . S
H367 C363 0.950 . S
H368 C365 0.950 . S
C369 C360 1.390 . S
C369 H362 0.950 . S
C369 C366 1.387 . S
C370 C371 1.387 . S
C370 H374 0.950 . S
C370 C379 1.390 . S
C371 C370 1.387 . S
C371 C373 1.387 . S
H372 C379 0.950 . S
C373 C371 1.387 . S
C373 C375 1.390 . S
C373 H377 0.950 . S
H374 C370 0.950 . S
C375 C373 1.390 . S
C375 C376 1.387 . S
C375 H378 0.950 . S
C376 C375 1.387 . S
C376 C379 1.387 . S
H377 C373 0.950 . S
H378 C375 0.950 . S
C379 C370 1.390 . S
C379 H372 0.950 . S
C379 C376 1.387 . S
C380 C381 1.387 . S
C380 H384 0.950 . S
C380 C389 1.390 1_455 S
C381 C380 1.387 . S
C381 C383 1.387 . S
H382 C389 0.950 . S
C383 C381 1.387 . S
C383 C385 1.390 1_455 S
C383 H387 0.950 . S
H384 C380 0.950 . S
C385 C383 1.390 1_655 S
C385 C386 1.387 . S
C385 H388 0.950 . S
C386 C385 1.387 . S
C386 C389 1.387 . S
H387 C383 0.950 . S
H388 C385 0.950 . S
C389 C380 1.390 1_655 S
C389 H382 0.950 . S
C389 C386 1.387 . S
C390 C391 1.387 . S
C390 H394 0.950 . S
C390 C399 1.390 1_455 S
C391 C390 1.387 . S
C391 C393 1.387 . S
H392 C399 0.950 . S
C393 C391 1.387 . S
C393 C395 1.390 1_455 S
C393 H397 0.950 . S
H394 C390 0.950 . S
C395 C393 1.390 1_655 S
C395 C396 1.387 . S
C395 H398 0.950 . S
C396 C395 1.387 . S
C396 C399 1.387 . S
H397 C393 0.950 . S
H398 C395 0.950 . S
C399 C390 1.390 1_655 S
C399 H392 0.950 . S
C399 C396 1.387 . S
C400 C401 1.373 1_565 S
C400 H404 0.950 . S
C400 C409 1.390 1_554 S
C401 C400 1.373 1_545 S
C401 C403 1.402 . S
H402 C409 0.950 . S
C403 C401 1.402 . S
C403 C405 1.390 1_554 S
C403 H407 0.950 . S
H404 C400 0.950 . S
C405 C403 1.390 1_556 S
C405 C406 1.373 1_545 S
C405 H408 0.950 . S
C406 C405 1.373 1_565 S
C406 C409 1.402 . S
H407 C403 0.950 . S
H408 C405 0.950 . S
C409 C400 1.390 1_556 S
C409 H402 0.950 . S
C409 C406 1.402 . S
C410 C411 1.387 . S
C410 H414 0.950 . S
C410 C419 1.390 . S
C411 C410 1.387 . S
C411 C413 1.387 . S
H412 C419 0.950 . S
C413 C411 1.387 . S
C413 C415 1.390 . S
C413 H417 0.950 . S
H414 C410 0.950 . S
C415 C413 1.390 . S
C415 C416 1.387 . S
C415 H418 0.950 . S
C416 C415 1.387 . S
C416 C419 1.387 . S
H417 C413 0.950 . S
H418 C415 0.950 . S
C419 C410 1.390 . S
C419 H412 0.950 . S
C419 C416 1.387 . S
C420 C421 1.373 1_545 S
C420 H424 0.950 . S
C420 C429 1.390 1_455 S
C421 C420 1.373 1_565 S
C421 C423 1.402 . S
H422 C429 0.950 . S
C423 C421 1.402 . S
C423 C425 1.390 1_455 S
C423 H427 0.950 . S
H424 C420 0.950 . S
C425 C423 1.390 1_655 S
C425 C426 1.373 1_565 S
C425 H428 0.950 . S
C426 C425 1.373 1_545 S
C426 C429 1.402 . S
H427 C423 0.950 . S
H428 C425 0.950 . S
C429 C420 1.390 1_655 S
C429 H422 0.950 . S
C429 C426 1.402 . S
C430 C431 1.387 . S
C430 H434 0.950 . S
C430 C439 1.390 . S
C431 C430 1.387 . S
C431 C433 1.387 . S
H432 C439 0.950 . S
C433 C431 1.387 . S
C433 C435 1.390 . S
C433 H437 0.950 . S
H434 C430 0.950 . S
C435 C433 1.390 . S
C435 C436 1.387 . S
C435 H438 0.950 . S
C436 C435 1.387 . S
C436 C439 1.387 . S
H437 C433 0.950 . S
H438 C435 0.950 . S
C439 C430 1.390 . S
C439 H432 0.950 . S
C439 C436 1.387 . S
C440 C441 1.387 . S
C440 H444 0.950 . S
C440 C449 1.390 . S
C441 C440 1.387 . S
C441 C443 1.387 . S
H442 C449 0.950 . S
C443 C441 1.387 . S
C443 C445 1.390 . S
C443 H447 0.950 . S
H444 C440 0.950 . S
C445 C443 1.390 . S
C445 C446 1.387 . S
C445 H448 0.950 . S
C446 C445 1.387 . S
C446 C449 1.387 . S
H447 C443 0.950 . S
H448 C445 0.950 . S
C449 C440 1.390 . S
C449 H442 0.950 . S
C449 C446 1.387 . S
C450 C451 1.387 . S
C450 H454 0.950 . S
C450 C459 1.390 . S
C451 C450 1.387 . S
C451 C453 1.387 . S
H452 C459 0.950 . S
C453 C451 1.387 . S
C453 C455 1.390 . S
C453 H457 0.950 . S
H454 C450 0.950 . S
C455 C453 1.390 . S
C455 C456 1.387 . S
C455 H458 0.950 . S
C456 C455 1.387 . S
C456 C459 1.387 . S
H457 C453 0.950 . S
H458 C455 0.950 . S
C459 C450 1.390 . S
C459 H452 0.950 . S
C459 C456 1.387 . S
C460 C461 1.387 . S
C460 H464 0.950 . S
C460 C469 1.390 1_455 S
C461 C460 1.387 . S
C461 C463 1.387 . S
H462 C469 0.950 . S
C463 C461 1.387 . S
C463 C465 1.390 1_455 S
C463 H467 0.950 . S
H464 C460 0.950 . S
C465 C463 1.390 1_655 S
C465 C466 1.387 . S
C465 H468 0.950 . S
C466 C465 1.387 . S
C466 C469 1.387 . S
H467 C463 0.950 . S
H468 C465 0.950 . S
C469 C460 1.390 1_655 S
C469 H462 0.950 . S
C469 C466 1.387 . S
C470 C471 1.387 . S
C470 H474 0.950 . S
C470 C479 1.390 1_554 S
C471 C470 1.387 . S
C471 C473 1.387 . S
H472 C479 0.950 . S
C473 C471 1.387 . S
C473 C475 1.390 1_554 S
C473 H477 0.950 . S
H474 C470 0.950 . S
C475 C473 1.390 1_556 S
C475 C476 1.387 . S
C475 H478 0.950 . S
C476 C475 1.387 . S
C476 C479 1.387 . S
H477 C473 0.950 . S
H478 C475 0.950 . S
C479 C470 1.390 1_556 S
C479 H472 0.950 . S
C479 C476 1.387 . S
C480 C481 1.387 . S
C480 H484 0.950 . S
C480 C489 1.390 . S
C481 C480 1.387 . S
C481 C483 1.387 . S
H482 C489 0.950 . S
C483 C481 1.387 . S
C483 C485 1.390 . S
C483 H487 0.950 . S
H484 C480 0.950 . S
C485 C483 1.390 . S
C485 C486 1.387 . S
C485 H488 0.950 . S
C486 C485 1.387 . S
C486 C489 1.387 . S
H487 C483 0.950 . S
H488 C485 0.950 . S
C489 C480 1.390 . S
C489 H482 0.950 . S
C489 C486 1.387 . S
C490 C491 1.387 . S
C490 H494 0.950 . S
C490 C499 1.390 . S
C491 C490 1.387 . S
C491 C493 1.387 . S
H492 C499 0.950 . S
C493 C491 1.387 . S
C493 C495 1.390 . S
C493 H497 0.950 . S
H494 C490 0.950 . S
C495 C493 1.390 . S
C495 C496 1.387 . S
C495 H498 0.950 . S
C496 C495 1.387 . S
C496 C499 1.387 . S
H497 C493 0.950 . S
H498 C495 0.950 . S
C499 C490 1.390 . S
C499 H492 0.950 . S
C499 C496 1.387 . S
C500 C501 1.387 . S
C500 H504 0.950 . S
C500 C509 1.390 . S
C501 C500 1.387 . S
C501 C503 1.387 . S
H502 C509 0.950 . S
C503 C501 1.387 . S
C503 C505 1.390 . S
C503 H507 0.950 . S
H504 C500 0.950 . S
C505 C503 1.390 . S
C505 C506 1.387 . S
C505 H508 0.950 . S
C506 C505 1.387 . S
C506 C509 1.387 . S
H507 C503 0.950 . S
H508 C505 0.950 . S
C509 C500 1.390 . S
C509 H502 0.950 . S
C509 C506 1.387 . S
C510 C511 1.387 . S
C510 H514 0.950 . S
C510 C519 1.390 . S
C511 C510 1.387 . S
C511 C513 1.387 . S
H512 C519 0.950 . S
C513 C511 1.387 . S
C513 C515 1.390 . S
C513 H517 0.950 . S
H514 C510 0.950 . S
C515 C513 1.390 . S
C515 C516 1.387 . S
C515 H518 0.950 . S
C516 C515 1.387 . S
C516 C519 1.387 . S
H517 C513 0.950 . S
H518 C515 0.950 . S
C519 C510 1.390 . S
C519 H512 0.950 . S
C519 C516 1.387 . S
C520 C521 1.387 . S
C520 H524 0.950 . S
C520 C529 1.390 . S
C521 C520 1.387 . S
C521 C523 1.387 . S
H522 C529 0.950 . S
C523 C521 1.387 . S
C523 C525 1.390 . S
C523 H527 0.950 . S
H524 C520 0.950 . S
C525 C523 1.390 . S
C525 C526 1.387 . S
C525 H528 0.950 . S
C526 C525 1.387 . S
C526 C529 1.387 . S
H527 C523 0.950 . S
H528 C525 0.950 . S
C529 C520 1.390 . S
C529 H522 0.950 . S
C529 C526 1.387 . S
C530 C531 1.387 . S
C530 H534 0.950 . S
C530 C539 1.390 . S
C531 C530 1.387 . S
C531 C533 1.387 . S
H532 C539 0.950 . S
C533 C531 1.387 . S
C533 C535 1.390 . S
C533 H537 0.950 . S
H534 C530 0.950 . S
C535 C533 1.390 . S
C535 C536 1.387 . S
C535 H538 0.950 . S
C536 C535 1.387 . S
C536 C539 1.387 . S
H537 C533 0.950 . S
H538 C535 0.950 . S
C539 C530 1.390 . S
C539 H532 0.950 . S
C539 C536 1.387 . S
C540 C541 1.387 . S
C540 H544 0.950 . S
C540 C549 1.390 . S
C541 C540 1.387 . S
C541 C543 1.387 . S
H542 C549 0.950 . S
C543 C541 1.387 . S
C543 C545 1.390 . S
C543 H547 0.950 . S
H544 C540 0.950 . S
C545 C543 1.390 . S
C545 C546 1.387 . S
C545 H548 0.950 . S
C546 C545 1.387 . S
C546 C549 1.387 . S
H547 C543 0.950 . S
H548 C545 0.950 . S
C549 C540 1.390 . S
C549 H542 0.950 . S
C549 C546 1.387 . S
C550 C551 1.387 . S
C550 H554 0.950 . S
C550 C559 1.390 . S
C551 C550 1.387 . S
C551 C553 1.387 . S
H552 C559 0.950 . S
C553 C551 1.387 . S
C553 C555 1.390 . S
C553 H557 0.950 . S
H554 C550 0.950 . S
C555 C553 1.390 . S
C555 C556 1.387 . S
C555 H558 0.950 . S
C556 C555 1.387 . S
C556 C559 1.387 . S
H557 C553 0.950 . S
H558 C555 0.950 . S
C559 C550 1.390 . S
C559 H552 0.950 . S
C559 C556 1.387 . S
C560 C561 1.387 . S
C560 H564 0.950 . S
C560 C569 1.390 . S
C561 C560 1.387 . S
C561 C563 1.387 . S
H562 C569 0.950 . S
C563 C561 1.387 . S
C563 C565 1.390 . S
C563 H567 0.950 . S
H564 C560 0.950 . S
C565 C563 1.390 . S
C565 C566 1.387 . S
C565 H568 0.950 . S
C566 C565 1.387 . S
C566 C569 1.387 . S
H567 C563 0.950 . S
H568 C565 0.950 . S
C569 C560 1.390 . S
C569 H562 0.950 . S
C569 C566 1.387 . S
C570 C571 1.387 . S
C570 H574 0.950 . S
C570 C579 1.390 . S
C571 C570 1.387 . S
C571 C573 1.387 . S
H572 C579 0.950 . S
C573 C571 1.387 . S
C573 C575 1.390 . S
C573 H577 0.950 . S
H574 C570 0.950 . S
C575 C573 1.390 . S
C575 C576 1.387 . S
C575 H578 0.950 . S
C576 C575 1.387 . S
C576 C579 1.387 . S
H577 C573 0.950 . S
H578 C575 0.950 . S
C579 C570 1.390 . S
C579 H572 0.950 . S
C579 C576 1.387 . S
C580 C581 1.387 . S
C580 H584 0.950 . S
C580 C589 1.390 . S
C581 C580 1.387 . S
C581 C583 1.387 . S
H582 C589 0.950 . S
C583 C581 1.387 . S
C583 C585 1.390 . S
C583 H587 0.950 . S
H584 C580 0.950 . S
C585 C583 1.390 . S
C585 C586 1.387 . S
C585 H588 0.950 . S
C586 C585 1.387 . S
C586 C589 1.387 . S
H587 C583 0.950 . S
H588 C585 0.950 . S
C589 C580 1.390 . S
C589 H582 0.950 . S
C589 C586 1.387 . S
C590 C591 1.387 . S
C590 H594 0.950 . S
C590 C599 1.390 . S
C591 C590 1.387 . S
C591 C593 1.387 . S
H592 C599 0.950 1_565 S
C593 C591 1.387 . S
C593 C595 1.390 . S
C593 H597 0.950 . S
H594 C590 0.950 . S
C595 C593 1.390 . S
C595 C596 1.387 . S
C595 H598 0.950 . S
C596 C595 1.387 . S
C596 C599 1.387 . S
H597 C593 0.950 . S
H598 C595 0.950 . S
C599 C590 1.390 . S
C599 H592 0.950 1_545 S
C599 C596 1.387 . S
C600 C601 1.387 . S
C600 H604 0.950 . S
C600 C609 1.390 . S
C601 C600 1.387 . S
C601 C603 1.387 . S
H602 C609 0.950 . S
C603 C601 1.387 . S
C603 C605 1.390 . S
C603 H607 0.950 . S
H604 C600 0.950 . S
C605 C603 1.390 . S
C605 C606 1.387 . S
C605 H608 0.950 . S
C606 C605 1.387 . S
C606 C609 1.387 . S
H607 C603 0.950 . S
H608 C605 0.950 . S
C609 C600 1.390 . S
C609 H602 0.950 . S
C609 C606 1.387 . S
C610 C611 1.387 . S
C610 H614 0.950 . S
C610 C619 1.390 . S
C611 C610 1.387 . S
C611 C613 1.387 . S
H612 C619 0.950 . S
C613 C611 1.387 . S
C613 C615 1.390 . S
C613 H617 0.950 . S
H614 C610 0.950 . S
C615 C613 1.390 . S
C615 C616 1.387 . S
C615 H618 0.950 . S
C616 C615 1.387 . S
C616 C619 1.387 . S
H617 C613 0.950 . S
H618 C615 0.950 . S
C619 C610 1.390 . S
C619 H612 0.950 . S
C619 C616 1.387 . S
C620 C621 1.387 . S
C620 H624 0.950 . S
C620 C629 1.390 . S
C621 C620 1.387 . S
C621 C623 1.387 . S
H622 C629 0.950 . S
C623 C621 1.387 . S
C623 C625 1.390 . S
C623 H627 0.950 . S
H624 C620 0.950 . S
C625 C623 1.390 . S
C625 C626 1.387 . S
C625 H628 0.950 . S
C626 C625 1.387 . S
C626 C629 1.387 . S
H627 C623 0.950 . S
H628 C625 0.950 . S
C629 C620 1.390 . S
C629 H622 0.950 . S
C629 C626 1.387 . S
C630 C631 1.387 . S
C630 H634 0.950 . S
C630 C639 1.390 . S
C631 C630 1.387 . S
C631 C633 1.387 . S
H632 C639 0.950 . S
C633 C631 1.387 . S
C633 C635 1.390 . S
C633 H637 0.950 . S
H634 C630 0.950 . S
C635 C633 1.390 . S
C635 C636 1.387 . S
C635 H638 0.950 . S
C636 C635 1.387 . S
C636 C639 1.387 . S
H637 C633 0.950 . S
H638 C635 0.950 . S
C639 C630 1.390 . S
C639 H632 0.950 . S
C639 C636 1.387 . S
C640 C641 1.387 . S
C640 H644 0.950 . S
C640 C649 1.390 . S
C641 C640 1.387 . S
C641 C643 1.387 . S
H642 C649 0.950 . S
C643 C641 1.387 . S
C643 C645 1.390 . S
C643 H647 0.950 . S
H644 C640 0.950 . S
C645 C643 1.390 . S
C645 C646 1.387 . S
C645 H648 0.950 . S
C646 C645 1.387 . S
C646 C649 1.387 . S
H647 C643 0.950 . S
H648 C645 0.950 . S
C649 C640 1.390 . S
C649 H642 0.950 . S
C649 C646 1.387 . S
C650 C651 1.387 . S
C650 H654 0.950 . S
C650 C659 1.390 . S
C651 C650 1.387 . S
C651 C653 1.387 . S
H652 C659 0.950 . S
C653 C651 1.387 . S
C653 C655 1.390 . S
C653 H657 0.950 . S
H654 C650 0.950 . S
C655 C653 1.390 . S
C655 C656 1.387 . S
C655 H658 0.950 . S
C656 C655 1.387 . S
C656 C659 1.387 . S
H657 C653 0.950 . S
H658 C655 0.950 . S
C659 C650 1.390 . S
C659 H652 0.950 . S
C659 C656 1.387 . S
C660 C661 1.387 . S
C660 H664 0.950 . S
C660 C669 1.390 . S
C661 C660 1.387 . S
C661 C663 1.387 . S
H662 C669 0.950 . S
C663 C661 1.387 . S
C663 C665 1.390 . S
C663 H667 0.950 . S
H664 C660 0.950 . S
C665 C663 1.390 . S
C665 C666 1.387 . S
C665 H668 0.950 . S
C666 C665 1.387 . S
C666 C669 1.387 . S
H667 C663 0.950 . S
H668 C665 0.950 . S
C669 C660 1.390 . S
C669 H662 0.950 . S
C669 C666 1.387 . S
C670 C671 1.387 . S
C670 H674 0.950 . S
C670 C679 1.390 . S
C671 C670 1.387 . S
C671 C673 1.387 . S
H672 C679 0.950 . S
C673 C671 1.387 . S
C673 C675 1.390 . S
C673 H677 0.950 . S
H674 C670 0.950 . S
C675 C673 1.390 . S
C675 C676 1.387 . S
C675 H678 0.950 . S
C676 C675 1.387 . S
C676 C679 1.387 . S
H677 C673 0.950 . S
H678 C675 0.950 . S
C679 C670 1.390 . S
C679 H672 0.950 . S
C679 C676 1.387 . S
C680 C681 1.387 . S
C680 H684 0.950 . S
C680 C689 1.390 . S
C681 C680 1.387 . S
C681 C683 1.387 . S
H682 C689 0.950 . S
C683 C681 1.387 . S
C683 C685 1.390 . S
C683 H687 0.950 . S
H684 C680 0.950 . S
C685 C683 1.390 . S
C685 C686 1.387 . S
C685 H688 0.950 . S
C686 C685 1.387 . S
C686 C689 1.387 . S
H687 C683 0.950 . S
H688 C685 0.950 . S
C689 C680 1.390 . S
C689 H682 0.950 . S
C689 C686 1.387 . S
C690 C691 1.387 . S
C690 H694 0.950 . S
C690 C699 1.390 . S
C691 C690 1.387 . S
C691 C693 1.387 . S
H692 C699 0.950 . S
C693 C691 1.387 . S
C693 C695 1.390 . S
C693 H697 0.950 . S
H694 C690 0.950 . S
C695 C693 1.390 . S
C695 C696 1.387 . S
C695 H698 0.950 . S
C696 C695 1.387 . S
C696 C699 1.387 . S
H697 C693 0.950 . S
H698 C695 0.950 . S
C699 C690 1.390 . S
C699 H692 0.950 . S
C699 C696 1.387 . S
C700 C701 1.387 . S
C700 H704 0.950 . S
C700 C709 1.390 . S
C701 C700 1.387 . S
C701 C703 1.387 . S
H702 C709 0.950 . S
C703 C701 1.387 . S
C703 C705 1.390 . S
C703 H707 0.950 . S
H704 C700 0.950 . S
C705 C703 1.390 . S
C705 C706 1.387 . S
C705 H708 0.950 . S
C706 C705 1.387 . S
C706 C709 1.387 . S
H707 C703 0.950 . S
H708 C705 0.950 . S
C709 C700 1.390 . S
C709 H702 0.950 . S
C709 C706 1.387 . S
C710 C711 1.387 . S
C710 H714 0.950 . S
C710 C719 1.390 . S
C711 C710 1.387 . S
C711 C713 1.387 . S
H712 C719 0.950 . S
C713 C711 1.387 . S
C713 C715 1.390 . S
C713 H717 0.950 . S
H714 C710 0.950 . S
C715 C713 1.390 . S
C715 C716 1.387 . S
C715 H718 0.950 . S
C716 C715 1.387 . S
C716 C719 1.387 . S
H717 C713 0.950 . S
H718 C715 0.950 . S
C719 C710 1.390 . S
C719 H712 0.950 . S
C719 C716 1.387 . S
C720 C721 1.387 . S
C720 H724 0.950 . S
C720 C729 1.390 . S
C721 C720 1.387 . S
C721 C723 1.387 . S
H722 C729 0.950 . S
C723 C721 1.387 . S
C723 C725 1.390 . S
C723 H727 0.950 . S
H724 C720 0.950 . S
C725 C723 1.390 . S
C725 C726 1.387 . S
C725 H728 0.950 . S
C726 C725 1.387 . S
C726 C729 1.387 . S
H727 C723 0.950 . S
H728 C725 0.950 . S
C729 C720 1.390 . S
C729 H722 0.950 . S
C729 C726 1.387 . S
C730 C731 1.387 . S
C730 H734 0.950 . S
C730 C739 1.390 . S
C731 C730 1.387 . S
C731 C733 1.387 . S
H732 C739 0.950 . S
C733 C731 1.387 . S
C733 C735 1.390 . S
C733 H737 0.950 . S
H734 C730 0.950 . S
C735 C733 1.390 . S
C735 C736 1.387 . S
C735 H738 0.950 1_565 S
C736 C735 1.387 . S
C736 C739 1.387 . S
H737 C733 0.950 . S
H738 C735 0.950 1_545 S
C739 C730 1.390 . S
C739 H732 0.950 . S
C739 C736 1.387 . S
C740 C741 1.387 . S
C740 H744 0.950 . S
C740 C749 1.390 . S
C741 C740 1.387 . S
C741 C743 1.387 . S
H742 C749 0.950 . S
C743 C741 1.387 . S
C743 C745 1.390 . S
C743 H747 0.950 . S
H744 C740 0.950 . S
C745 C743 1.390 . S
C745 C746 1.387 . S
C745 H748 0.950 . S
C746 C745 1.387 . S
C746 C749 1.387 . S
H747 C743 0.950 . S
H748 C745 0.950 . S
C749 C740 1.390 . S
C749 H742 0.950 . S
C749 C746 1.387 . S
C750 C751 1.387 . S
C750 H754 0.950 1_545 S
C750 C759 1.390 . S
C751 C750 1.387 . S
C751 C753 1.387 . S
H752 C759 0.950 . S
C753 C751 1.387 . S
C753 C755 1.390 . S
C753 H757 0.950 . S
H754 C750 0.950 1_565 S
C755 C753 1.390 . S
C755 C756 1.387 . S
C755 H758 0.950 . S
C756 C755 1.387 . S
C756 C759 1.387 . S
H757 C753 0.950 . S
H758 C755 0.950 . S
C759 C750 1.390 . S
C759 H752 0.950 . S
C759 C756 1.387 . S
C760 C761 1.387 . S
C760 H764 0.950 . S
C760 C769 1.390 . S
C761 C760 1.387 . S
C761 C763 1.387 . S
H762 C769 0.950 . S
C763 C761 1.387 . S
C763 C765 1.390 . S
C763 H767 0.950 . S
H764 C760 0.950 . S
C765 C763 1.390 . S
C765 C766 1.387 . S
C765 H768 0.950 . S
C766 C765 1.387 . S
C766 C769 1.387 . S
H767 C763 0.950 . S
H768 C765 0.950 . S
C769 C760 1.390 . S
C769 H762 0.950 . S
C769 C766 1.387 . S
C770 C771 1.387 . S
C770 H774 0.950 . S
C770 C779 1.390 . S
C771 C770 1.387 . S
C771 C773 1.387 . S
H772 C779 0.950 . S
C773 C771 1.387 . S
C773 C775 1.390 . S
C773 H777 0.950 . S
H774 C770 0.950 . S
C775 C773 1.390 . S
C775 C776 1.387 . S
C775 H778 0.950 1_545 S
C776 C775 1.387 . S
C776 C779 1.387 . S
H777 C773 0.950 . S
H778 C775 0.950 1_565 S
C779 C770 1.390 . S
C779 H772 0.950 . S
C779 C776 1.387 . S
C780 C781 1.387 . S
C780 H784 0.950 . S
C780 C789 1.390 . S
C781 C780 1.387 . S
C781 C783 1.387 . S
H782 C789 0.950 . S
C783 C781 1.387 . S
C783 C785 1.390 . S
C783 H787 0.950 . S
H784 C780 0.950 . S
C785 C783 1.390 . S
C785 C786 1.387 . S
C785 H788 0.950 . S
C786 C785 1.387 . S
C786 C789 1.387 . S
H787 C783 0.950 . S
H788 C785 0.950 . S
C789 C780 1.390 . S
C789 H782 0.950 . S
C789 C786 1.387 . S
C790 C791 1.387 . S
C790 H794 0.950 . S
C790 C799 1.390 . S
C791 C790 1.387 . S
C791 C793 1.387 . S
H792 C799 0.950 . S
C793 C791 1.387 . S
C793 C795 1.390 . S
C793 H797 0.950 . S
H794 C790 0.950 . S
C795 C793 1.390 . S
C795 C796 1.387 . S
C795 H798 0.950 . S
C796 C795 1.387 . S
C796 C799 1.387 . S
H797 C793 0.950 . S
H798 C795 0.950 . S
C799 C790 1.390 . S
C799 H792 0.950 . S
C799 C796 1.387 . S
C321 C18 1.412 . S
C326 C218 1.412 . S
C331 C38 1.413 . S
C336 C238 1.413 . S
C341 C58 1.412 . S
C346 C178 1.412 . S
C351 C198 1.414 . S
C356 C78 1.414 . S
C361 C99 1.412 . S
C366 C299 1.412 . S
C371 C319 1.414 . S
C376 C119 1.414 . S
C381 C259 1.412 . S
C386 C139 1.412 . S
C391 C159 1.414 . S
C396 C279 1.414 . S
C401 C9 1.453 . S
C406 C92 1.453 . S
C411 C29 1.444 . S
C416 C272 1.444 . S
C421 C49 1.453 . S
C426 C132 1.453 . S
C431 C69 1.444 . S
C436 C312 1.444 . S
C441 C112 1.444 . S
C446 C189 1.444 . S
C451 C229 1.445 . S
C456 C152 1.445 . S
C461 C252 1.444 . S
C466 C169 1.444 . S
C471 C209 1.444 . S
C476 C292 1.444 . S
C481 C12 1.249 . S
C486 C158 1.238 . S
C491 C32 1.248 . S
C496 C258 1.237 . S
C501 C52 1.249 . S
C506 C118 1.239 . S
C511 C72 1.248 . S
C516 C298 1.237 . S
C521 C79 1.239 . S
C526 C89 1.249 . S
C531 C109 1.247 . S
C536 C179 1.238 . S
C541 C129 1.247 . S
C546 C39 1.237 . S
C551 C219 1.239 . S
C556 C149 1.248 . S
C561 C172 1.247 . S
C566 C318 1.238 . S
C571 C98 1.237 . S
C576 C192 1.248 . S
C581 C278 1.238 . S
C586 C212 1.247 . S
C591 C138 1.239 . S
C596 C232 1.247 . S
C601 C249 1.249 . S
C606 C239 1.239 . S
C611 C269 1.249 . S
C616 C19 1.239 . S
C621 C199 1.237 . S
C626 C289 1.247 . S
C631 C309 1.249 . S
C636 C59 1.238 . S
C641 C2 1.984 1_556 S
C646 C184 2.168 . S
C651 C204 2.168 . S
C656 C22 1.985 . S
C661 C42 1.984 . S
C666 C224 2.169 . S
C671 C164 2.169 . S
C676 C62 1.984 . S
C681 C262 2.169 . S
C686 C84 1.984 1_554 S
C691 C282 2.169 . S
C696 C104 1.982 . S
C701 C302 2.169 . S
C706 C124 1.984 . S
C711 C242 2.169 . S
C716 C144 1.983 . S
C721 C24 2.168 . S
C726 C162 1.984 . S
C731 C44 2.169 . S
C736 C182 1.983 1_565 S
C741 C64 2.168 . S
C746 C202 1.984 1_556 S
C751 C222 1.985 1_545 S
C756 C4 2.168 . S
C761 C102 2.168 . S
C766 C244 1.985 . S
C771 C122 2.168 . S
C776 C264 1.986 1_545 S
C781 C142 2.169 . S
C786 C284 1.984 1_554 S
C791 C82 2.169 . S
C796 C304 1.984 1_565 S
