# Generated by pormake.
# Topology ukk, (4)-cn, num edge types: 1
# Building blocks:
#     Node 0, Type 0, BuildingBlock: ESEHIV_clean_sbu_0, # of connection points: 4
#     Node 1, Type 0, BuildingBlock: ESEHIV_clean_sbu_0, # of connection points: 4
#     Node 2, Type 0, BuildingBlock: ESEHIV_clean_sbu_0, # of connection points: 4
#     Node 3, Type 0, BuildingBlock: ESEHIV_clean_sbu_0, # of connection points: 4
#     Node 4, Type 0, BuildingBlock: ESEHIV_clean_sbu_0, # of connection points: 4
#     Node 5, Type 0, BuildingBlock: ESEHIV_clean_sbu_0, # of connection points: 4
#     Node 6, Type 0, BuildingBlock: ESEHIV_clean_sbu_0, # of connection points: 4
#     Node 7, Type 0, BuildingBlock: ESEHIV_clean_sbu_0, # of connection points: 4
#     Node 8, Type 0, BuildingBlock: ESEHIV_clean_sbu_0, # of connection points: 4
#     Node 9, Type 0, BuildingBlock: ESEHIV_clean_sbu_0, # of connection points: 4
#     Node 10, Type 0, BuildingBlock: ESEHIV_clean_sbu_0, # of connection points: 4
#     Node 11, Type 0, BuildingBlock: ESEHIV_clean_sbu_0, # of connection points: 4
#     Node 12, Type 0, BuildingBlock: ESEHIV_clean_sbu_0, # of connection points: 4
#     Node 13, Type 0, BuildingBlock: ESEHIV_clean_sbu_0, # of connection points: 4
#     Node 14, Type 0, BuildingBlock: ESEHIV_clean_sbu_0, # of connection points: 4
#     Node 15, Type 0, BuildingBlock: ESEHIV_clean_sbu_0, # of connection points: 4
#     Edge 16, Type (0, 0), BuildingBlock: UVAHIK_clean_linker_0, # of connection points: 2
#     Edge 17, Type (0, 0), BuildingBlock: UVAHIK_clean_linker_0, # of connection points: 2
#     Edge 18, Type (0, 0), BuildingBlock: UVAHIK_clean_linker_0, # of connection points: 2
#     Edge 19, Type (0, 0), BuildingBlock: UVAHIK_clean_linker_0, # of connection points: 2
#     Edge 20, Type (0, 0), BuildingBlock: UVAHIK_clean_linker_0, # of connection points: 2
#     Edge 21, Type (0, 0), BuildingBlock: UVAHIK_clean_linker_0, # of connection points: 2
#     Edge 22, Type (0, 0), BuildingBlock: UVAHIK_clean_linker_0, # of connection points: 2
#     Edge 23, Type (0, 0), BuildingBlock: UVAHIK_clean_linker_0, # of connection points: 2
#     Edge 24, Type (0, 0), BuildingBlock: UVAHIK_clean_linker_0, # of connection points: 2
#     Edge 25, Type (0, 0), BuildingBlock: UVAHIK_clean_linker_0, # of connection points: 2
#     Edge 26, Type (0, 0), BuildingBlock: UVAHIK_clean_linker_0, # of connection points: 2
#     Edge 27, Type (0, 0), BuildingBlock: UVAHIK_clean_linker_0, # of connection points: 2
#     Edge 28, Type (0, 0), BuildingBlock: UVAHIK_clean_linker_0, # of connection points: 2
#     Edge 29, Type (0, 0), BuildingBlock: UVAHIK_clean_linker_0, # of connection points: 2
#     Edge 30, Type (0, 0), BuildingBlock: UVAHIK_clean_linker_0, # of connection points: 2
#     Edge 31, Type (0, 0), BuildingBlock: UVAHIK_clean_linker_0, # of connection points: 2
#     Edge 32, Type (0, 0), BuildingBlock: UVAHIK_clean_linker_0, # of connection points: 2
#     Edge 33, Type (0, 0), BuildingBlock: UVAHIK_clean_linker_0, # of connection points: 2
#     Edge 34, Type (0, 0), BuildingBlock: UVAHIK_clean_linker_0, # of connection points: 2
#     Edge 35, Type (0, 0), BuildingBlock: UVAHIK_clean_linker_0, # of connection points: 2
#     Edge 36, Type (0, 0), BuildingBlock: UVAHIK_clean_linker_0, # of connection points: 2
#     Edge 37, Type (0, 0), BuildingBlock: UVAHIK_clean_linker_0, # of connection points: 2
#     Edge 38, Type (0, 0), BuildingBlock: UVAHIK_clean_linker_0, # of connection points: 2
#     Edge 39, Type (0, 0), BuildingBlock: UVAHIK_clean_linker_0, # of connection points: 2
#     Edge 40, Type (0, 0), BuildingBlock: UVAHIK_clean_linker_0, # of connection points: 2
#     Edge 41, Type (0, 0), BuildingBlock: UVAHIK_clean_linker_0, # of connection points: 2
#     Edge 42, Type (0, 0), BuildingBlock: UVAHIK_clean_linker_0, # of connection points: 2
#     Edge 43, Type (0, 0), BuildingBlock: UVAHIK_clean_linker_0, # of connection points: 2
#     Edge 44, Type (0, 0), BuildingBlock: UVAHIK_clean_linker_0, # of connection points: 2
#     Edge 45, Type (0, 0), BuildingBlock: UVAHIK_clean_linker_0, # of connection points: 2
#     Edge 46, Type (0, 0), BuildingBlock: UVAHIK_clean_linker_0, # of connection points: 2
#     Edge 47, Type (0, 0), BuildingBlock: UVAHIK_clean_linker_0, # of connection points: 2
# Relax obj value: 0.045
# Max RMSD: 0.116
# Mean RMSD: 0.116
data_MOF--net-ukk--node1-ESEHIV_clean_sbu_0--edge1-UVAHIK_clean_linker_0
_symmetry_space_group_name_H-M    P1
_symmetry_Int_Tables_number       1
_symmetry_cell_setting            triclinic
loop_
_symmetry_equiv_pos_as_xyz
'x, y, z'
_cell_length_a     73.533374
_cell_length_b     73.139559
_cell_length_c     27.897047
_cell_angle_alpha  89.858455
_cell_angle_beta   90.195663
_cell_angle_gamma 90.025011
loop_
_atom_site_label
_atom_site_type_symbol
_atom_site_fract_x
_atom_site_fract_y
_atom_site_fract_z
_atom_type_partial_charge
Cu0 Cu 0.3833 0.13283 0.12069 0.0
N1 N 0.39062 0.13212 0.18509 0.0
N2 N 0.4118 0.13193 0.24319 0.0
C3 C 0.40656 0.13912 0.20065 0.0
C4 C 0.39852 0.12001 0.25505 0.0
C5 C 0.38555 0.12008 0.21909 0.0
O6 O 0.39569 0.11123 0.09481 0.0
C7 C 0.38118 0.16976 0.11819 0.0
O8 O 0.37016 0.16494 0.15299 0.0
H9 H 0.41508 0.14782 0.17874 0.0
H10 H 0.37422 0.11073 0.21586 0.0
N11 N 0.35802 0.13081 0.11079 0.0
N12 N 0.33146 0.13144 0.0708 0.0
C13 C 0.34964 0.13409 0.0685 0.0
C14 C 0.34465 0.12616 0.14129 0.0
C15 C 0.32827 0.12653 0.11675 0.0
C16 C 0.38709 0.09734 0.07879 0.0
O17 O 0.36997 0.09914 0.06628 0.0
H18 H 0.35687 0.1383 0.03661 0.0
H19 H 0.34662 0.12265 0.17859 0.0
O20 O 0.38987 0.15714 0.09644 0.0
H21 H 0.39872 0.11104 0.28598 0.0
H22 H 0.31512 0.12306 0.13147 0.0
Cu23 Cu 0.14667 0.6642 0.88281 0.0
N24 N 0.15681 0.65492 0.82673 0.0
N25 N 0.16433 0.63061 0.78227 0.0
C26 C 0.15136 0.63871 0.80896 0.0
C27 C 0.17848 0.64239 0.78269 0.0
C28 C 0.17385 0.65731 0.81039 0.0
O29 O 0.12045 0.66053 0.87618 0.0
C30 C 0.17342 0.65493 0.95081 0.0
O31 O 0.17427 0.67233 0.96203 0.0
H32 H 0.1391 0.63188 0.82087 0.0
H33 H 0.18303 0.6679 0.82245 0.0
N34 N 0.1516 0.68922 0.89233 0.0
N35 N 0.15292 0.71693 0.92668 0.0
C36 C 0.14715 0.69942 0.9309 0.0
C37 C 0.16027 0.70073 0.86246 0.0
C38 C 0.16112 0.71776 0.88346 0.0
C39 C 0.11327 0.66992 0.84248 0.0
O40 O 0.1237 0.68136 0.81875 0.0
H41 H 0.13989 0.69402 0.9615 0.0
H42 H 0.16565 0.69701 0.82782 0.0
O43 O 0.15916 0.64899 0.92989 0.0
H44 H 0.19175 0.63974 0.76756 0.0
H45 H 0.16764 0.72972 0.86839 0.0
Cu46 Cu 0.6599 0.90233 0.17945 0.0
N47 N 0.6483 0.8987 0.23837 0.0
N48 N 0.62567 0.89816 0.29201 0.0
C49 C 0.63125 0.90417 0.2486 0.0
C50 C 0.63988 0.88851 0.30968 0.0
C51 C 0.65376 0.88882 0.27647 0.0
O52 O 0.6527 0.92665 0.15651 0.0
C53 C 0.66308 0.86674 0.14703 0.0
O54 O 0.67593 0.86712 0.1798 0.0
H55 H 0.62286 0.91174 0.22356 0.0
H56 H 0.66666 0.88181 0.27929 0.0
N57 N 0.68537 0.90308 0.18457 0.0
N58 N 0.71443 0.90382 0.16064 0.0
C59 C 0.69678 0.90342 0.1469 0.0
C60 C 0.6961 0.90339 0.22371 0.0
C61 C 0.71401 0.90383 0.20908 0.0
C62 C 0.65842 0.93939 0.18396 0.0
O63 O 0.66728 0.93477 0.22314 0.0
H64 H 0.69209 0.90354 0.1101 0.0
H65 H 0.69129 0.90336 0.26027 0.0
O66 O 0.65369 0.88116 0.13931 0.0
H67 H 0.6402 0.88147 0.34382 0.0
H68 H 0.72578 0.90393 0.23248 0.0
Cu69 Cu 0.88876 0.3948 0.90189 0.0
N70 N 0.88223 0.40285 0.84063 0.0
N71 N 0.87775 0.42627 0.78962 0.0
C72 C 0.88809 0.4193 0.82542 0.0
C73 C 0.86491 0.41337 0.7816 0.0
C74 C 0.86757 0.39906 0.81344 0.0
O75 O 0.91499 0.39961 0.90455 0.0
C76 C 0.85874 0.40312 0.96135 0.0
O77 O 0.85954 0.38608 0.97607 0.0
H78 H 0.89843 0.42689 0.84453 0.0
H79 H 0.85835 0.38779 0.8195 0.0
N80 N 0.88457 0.36977 0.91477 0.0
N81 N 0.88385 0.34324 0.95578 0.0
C82 C 0.88984 0.36077 0.95487 0.0
C83 C 0.87514 0.35746 0.88901 0.0
C84 C 0.87466 0.34117 0.91408 0.0
C85 C 0.92412 0.38877 0.87808 0.0
O86 O 0.91542 0.37535 0.85676 0.0
H87 H 0.89764 0.36717 0.98316 0.0
H88 H 0.86873 0.36018 0.85484 0.0
O89 O 0.8725 0.40999 0.94017 0.0
H90 H 0.85357 0.41465 0.75703 0.0
H91 H 0.86754 0.32894 0.90291 0.0
Cu92 Cu 0.39034 0.39621 0.15172 0.0
N93 N 0.41573 0.39433 0.16011 0.0
N94 N 0.44557 0.39313 0.14344 0.0
C95 C 0.42916 0.39998 0.13052 0.0
C96 C 0.44232 0.38308 0.18319 0.0
C97 C 0.42401 0.38374 0.19305 0.0
O98 O 0.38421 0.41927 0.11999 0.0
C99 C 0.39213 0.36528 0.08974 0.0
O100 O 0.40676 0.37334 0.07307 0.0
H101 H 0.4268 0.40784 0.09832 0.0
H102 H 0.41706 0.37616 0.22081 0.0
N103 N 0.37871 0.39711 0.21166 0.0
N104 N 0.35673 0.39841 0.26747 0.0
C105 C 0.36065 0.39628 0.22029 0.0
C106 C 0.3865 0.39994 0.25467 0.0
C107 C 0.37309 0.40062 0.28898 0.0
C108 C 0.38922 0.42485 0.07884 0.0
O109 O 0.39824 0.4138 0.05053 0.0
H110 H 0.35062 0.39466 0.19218 0.0
H111 H 0.40091 0.40177 0.2607 0.0
O112 O 0.38228 0.37373 0.12004 0.0
H113 H 0.45232 0.37524 0.20295 0.0
H114 H 0.37538 0.40266 0.3269 0.0
Cu115 Cu 0.38726 0.6491 0.85976 0.0
N116 N 0.38497 0.64126 0.92314 0.0
N117 N 0.38356 0.61813 0.9761 0.0
C118 C 0.39124 0.62462 0.93557 0.0
C119 C 0.37207 0.63152 0.99015 0.0
C120 C 0.37285 0.64569 0.95718 0.0
O121 O 0.41205 0.64161 0.8437 0.0
C122 C 0.35392 0.64401 0.80861 0.0
O123 O 0.35597 0.66097 0.79415 0.0
H124 H 0.39964 0.61656 0.91188 0.0
H125 H 0.36388 0.65738 0.95569 0.0
N126 N 0.38476 0.67448 0.84946 0.0
N127 N 0.38542 0.70131 0.81014 0.0
C128 C 0.38929 0.68324 0.80854 0.0
C129 C 0.37792 0.68746 0.87828 0.0
C130 C 0.37828 0.70399 0.85416 0.0
C131 C 0.42472 0.65239 0.85732 0.0
O132 O 0.42029 0.66841 0.87488 0.0
H133 H 0.39482 0.67628 0.77768 0.0
H134 H 0.3729 0.68511 0.91413 0.0
O135 O 0.36718 0.63594 0.82927 0.0
H136 H 0.36279 0.63067 0.02007 0.0
H137 H 0.37367 0.71696 0.86819 0.0
Cu138 Cu 0.64475 0.63805 0.13415 0.0
N139 N 0.61939 0.63409 0.13481 0.0
N140 N 0.59063 0.63162 0.10824 0.0
C141 C 0.60814 0.63505 0.09651 0.0
C142 C 0.59088 0.62863 0.15602 0.0
C143 C 0.60853 0.63025 0.17225 0.0
O144 O 0.656 0.61743 0.10123 0.0
C145 C 0.63924 0.67522 0.12388 0.0
O146 O 0.62699 0.67107 0.15631 0.0
H147 H 0.61268 0.6387 0.06095 0.0
H148 H 0.61294 0.629 0.20901 0.0
N149 N 0.6551 0.63739 0.19573 0.0
N150 N 0.67675 0.63951 0.25235 0.0
C151 C 0.67099 0.64525 0.20869 0.0
C152 C 0.65084 0.62609 0.23215 0.0
C153 C 0.66398 0.62755 0.26726 0.0
C154 C 0.65147 0.61077 0.0608 0.0
O155 O 0.6399 0.61967 0.03348 0.0
H156 H 0.6786 0.6543 0.18544 0.0
H157 H 0.63981 0.61634 0.23176 0.0
O158 O 0.64924 0.66244 0.10736 0.0
H159 H 0.57919 0.62539 0.1779 0.0
H160 H 0.66476 0.61937 0.2996 0.0
Cu161 Cu 0.651 0.38871 0.86421 0.0
N162 N 0.66102 0.39497 0.92339 0.0
N163 N 0.66895 0.41801 0.97206 0.0
C164 C 0.65565 0.41048 0.94509 0.0
C165 C 0.68321 0.4065 0.968 0.0
C166 C 0.67832 0.39237 0.93779 0.0
O167 O 0.62488 0.39318 0.87089 0.0
C168 C 0.67898 0.39966 0.80212 0.0
O169 O 0.6793 0.3827 0.78692 0.0
H170 H 0.6433 0.41761 0.93506 0.0
H171 H 0.68752 0.38253 0.92217 0.0
N172 N 0.65494 0.36416 0.8465 0.0
N173 N 0.65507 0.33844 0.80251 0.0
C174 C 0.64937 0.35602 0.80554 0.0
C175 C 0.66432 0.35126 0.8705 0.0
C176 C 0.66443 0.33546 0.84359 0.0
C177 C 0.61709 0.38221 0.89994 0.0
O178 O 0.62685 0.36893 0.91873 0.0
H179 H 0.64146 0.36301 0.77836 0.0
H180 H 0.67083 0.35326 0.90488 0.0
O181 O 0.66478 0.40538 0.82349 0.0
H182 H 0.69675 0.40906 0.9818 0.0
H183 H 0.67135 0.32291 0.85315 0.0
Cu184 Cu 0.88376 0.64675 0.60318 0.0
N185 N 0.90914 0.64883 0.59617 0.0
N186 N 0.93893 0.65123 0.61288 0.0
C187 C 0.92232 0.6465 0.62954 0.0
C188 C 0.93607 0.65667 0.5672 0.0
C189 C 0.91777 0.65527 0.55717 0.0
O190 O 0.87739 0.62434 0.63791 0.0
C191 C 0.88188 0.67878 0.6629 0.0
O192 O 0.89441 0.67095 0.68956 0.0
H193 H 0.91974 0.64233 0.66599 0.0
H194 H 0.91114 0.65928 0.52414 0.0
N195 N 0.87269 0.64415 0.54296 0.0
N196 N 0.85104 0.64382 0.4862 0.0
C197 C 0.85532 0.64839 0.53183 0.0
C198 C 0.8796 0.63648 0.50321 0.0
C199 C 0.86635 0.63637 0.46809 0.0
C200 C 0.88278 0.61899 0.67903 0.0
O201 O 0.8924 0.63005 0.70608 0.0
H202 H 0.84598 0.65455 0.55697 0.0
H203 H 0.89317 0.63091 0.50033 0.0
O204 O 0.87481 0.66994 0.62827 0.0
H205 H 0.9464 0.66159 0.54283 0.0
H206 H 0.8677 0.63065 0.43254 0.0
Cu207 Cu 0.63491 0.15922 0.35843 0.0
N208 N 0.63604 0.15164 0.29447 0.0
N209 N 0.63785 0.13019 0.23744 0.0
C210 C 0.64237 0.13499 0.28261 0.0
C211 C 0.62833 0.14453 0.2199 0.0
C212 C 0.62723 0.15776 0.25521 0.0
O213 O 0.61052 0.15171 0.37962 0.0
C214 C 0.67117 0.15494 0.37192 0.0
O215 O 0.67016 0.16824 0.34033 0.0
H216 H 0.64875 0.12586 0.30823 0.0
H217 H 0.61946 0.1703 0.25343 0.0
N218 N 0.63719 0.18461 0.36863 0.0
N219 N 0.63969 0.21097 0.40934 0.0
C220 C 0.63738 0.19263 0.41213 0.0
C221 C 0.63946 0.19829 0.33693 0.0
C222 C 0.64098 0.21454 0.36186 0.0
C223 C 0.59776 0.16202 0.36401 0.0
O224 O 0.60222 0.17665 0.33931 0.0
H225 H 0.63576 0.18504 0.44517 0.0
H226 H 0.64018 0.19656 0.29849 0.0
O227 O 0.65643 0.14801 0.38803 0.0
H228 H 0.62191 0.14506 0.18496 0.0
H229 H 0.64324 0.22787 0.34608 0.0
Cu230 Cu 0.14902 0.40805 0.61762 0.0
N231 N 0.12358 0.40614 0.61156 0.0
N232 N 0.09408 0.40447 0.63161 0.0
C233 C 0.11066 0.41121 0.64329 0.0
C234 C 0.09667 0.39513 0.59051 0.0
C235 C 0.11478 0.39609 0.57848 0.0
O236 O 0.1555 0.43156 0.64565 0.0
C237 C 0.14825 0.37818 0.68382 0.0
O238 O 0.13383 0.38632 0.7013 0.0
H239 H 0.11358 0.41849 0.67612 0.0
H240 H 0.12128 0.38905 0.54913 0.0
N241 N 0.16019 0.40763 0.55711 0.0
N242 N 0.1819 0.40597 0.50086 0.0
C243 C 0.17799 0.40465 0.54816 0.0
C244 C 0.15261 0.41111 0.51409 0.0
C245 C 0.16589 0.40999 0.47941 0.0
C246 C 0.15244 0.4373 0.68788 0.0
O247 O 0.14505 0.42626 0.71952 0.0
H248 H 0.18787 0.40163 0.57591 0.0
H249 H 0.13849 0.41461 0.50837 0.0
O250 O 0.15754 0.38628 0.65163 0.0
H251 H 0.08635 0.38751 0.57132 0.0
H252 H 0.16399 0.41251 0.44147 0.0
Cu253 Cu 0.40667 0.88688 0.38856 0.0
N254 N 0.40619 0.89549 0.3252 0.0
N255 N 0.40663 0.91637 0.26617 0.0
C256 C 0.40889 0.91318 0.31354 0.0
C257 C 0.40233 0.89993 0.24722 0.0
C258 C 0.40213 0.88706 0.2837 0.0
O259 O 0.42837 0.89842 0.41577 0.0
C260 C 0.3701 0.88431 0.39644 0.0
O261 O 0.37405 0.87313 0.36119 0.0
H262 H 0.41184 0.92364 0.33983 0.0
H263 H 0.39886 0.8727 0.28032 0.0
N264 N 0.40878 0.86134 0.39442 0.0
N265 N 0.40746 0.83381 0.43012 0.0
C266 C 0.40321 0.85176 0.43307 0.0
C267 C 0.41674 0.84905 0.36553 0.0
C268 C 0.41595 0.83207 0.38742 0.0
C269 C 0.44052 0.88967 0.43911 0.0
O270 O 0.43667 0.87339 0.45616 0.0
H271 H 0.39686 0.85812 0.46371 0.0
H272 H 0.42302 0.85226 0.33154 0.0
O273 O 0.38309 0.89311 0.41627 0.0
H274 H 0.39945 0.89738 0.20976 0.0
H275 H 0.42137 0.81949 0.37301 0.0
Cu276 Cu 0.89815 0.90796 0.72811 0.0
N277 N 0.92337 0.90437 0.73302 0.0
N278 N 0.95291 0.90074 0.71589 0.0
C279 C 0.9362 0.90488 0.69852 0.0
C280 C 0.95042 0.89744 0.76304 0.0
C281 C 0.93227 0.89962 0.77336 0.0
O282 O 0.89247 0.92986 0.69027 0.0
C283 C 0.89224 0.87496 0.67394 0.0
O284 O 0.90454 0.88128 0.64418 0.0
H285 H 0.93337 0.90815 0.66148 0.0
H286 H 0.92591 0.89753 0.80785 0.0
N287 N 0.88921 0.91306 0.78928 0.0
N288 N 0.87075 0.91461 0.85286 0.0
C289 C 0.87361 0.9071 0.80919 0.0
C290 C 0.89645 0.92477 0.82111 0.0
C291 C 0.88518 0.92571 0.86034 0.0
C292 C 0.89714 0.9339 0.6476 0.0
O293 O 0.90557 0.92169 0.62139 0.0
H294 H 0.86449 0.8976 0.79167 0.0
H295 H 0.90887 0.93242 0.81561 0.0
O296 O 0.88695 0.88493 0.70857 0.0
H297 H 0.96088 0.89326 0.78815 0.0
H298 H 0.8872 0.93442 0.8912 0.0
Cu299 Cu 0.89741 0.15676 0.38151 0.0
N300 N 0.89576 0.14642 0.44296 0.0
N301 N 0.8947 0.12286 0.49464 0.0
C302 C 0.8983 0.12835 0.44939 0.0
C303 C 0.88966 0.13827 0.51776 0.0
C304 C 0.8903 0.15279 0.48576 0.0
O305 O 0.9221 0.15034 0.36052 0.0
C306 C 0.86132 0.15471 0.36717 0.0
O307 O 0.86343 0.16691 0.4012 0.0
H308 H 0.9019 0.11928 0.42035 0.0
H309 H 0.88643 0.16677 0.49289 0.0
N310 N 0.89601 0.18249 0.37593 0.0
N311 N 0.89439 0.20966 0.33813 0.0
C312 C 0.89547 0.19127 0.33334 0.0
C313 C 0.89528 0.19576 0.40918 0.0
C314 C 0.89429 0.21249 0.38603 0.0
C315 C 0.93384 0.15847 0.38691 0.0
O316 O 0.92786 0.16899 0.42157 0.0
H317 H 0.89608 0.18416 0.29945 0.0
H318 H 0.89545 0.1935 0.44747 0.0
O319 O 0.87553 0.14732 0.3493 0.0
H320 H 0.88551 0.13902 0.55487 0.0
H321 H 0.89332 0.22566 0.40338 0.0
Cu322 Cu 0.1494 0.14728 0.63509 0.0
N323 N 0.14168 0.148 0.57089 0.0
N324 N 0.12073 0.14753 0.51225 0.0
C325 C 0.12436 0.15184 0.55835 0.0
C326 C 0.13646 0.1408 0.49486 0.0
C327 C 0.14937 0.14112 0.53106 0.0
O328 O 0.13483 0.12727 0.66052 0.0
C329 C 0.15515 0.18386 0.64226 0.0
O330 O 0.16615 0.17894 0.60755 0.0
H331 H 0.11422 0.15641 0.5837 0.0
H332 H 0.16303 0.13578 0.52897 0.0
N333 N 0.17421 0.14173 0.64427 0.0
N334 N 0.20059 0.13864 0.68433 0.0
C335 C 0.18406 0.14676 0.683 0.0
C336 C 0.18487 0.13001 0.62014 0.0
C337 C 0.20116 0.12819 0.64449 0.0
C338 C 0.14192 0.11343 0.68115 0.0
O339 O 0.15755 0.11538 0.70344 0.0
H340 H 0.17884 0.15565 0.71068 0.0
H341 H 0.18074 0.1224 0.5888 0.0
O342 O 0.14532 0.17158 0.66181 0.0
H343 H 0.13834 0.13547 0.45905 0.0
H344 H 0.21211 0.11902 0.63504 0.0
Cu345 Cu 0.14352 0.89741 0.37827 0.0
N346 N 0.14245 0.92299 0.37464 0.0
N347 N 0.13999 0.95217 0.39799 0.0
C348 C 0.13635 0.93451 0.40871 0.0
C349 C 0.14842 0.9517 0.35506 0.0
C350 C 0.14994 0.93373 0.34086 0.0
O351 O 0.12355 0.88951 0.41907 0.0
C352 C 0.17693 0.90087 0.4294 0.0
O353 O 0.16924 0.91559 0.44693 0.0
H354 H 0.13053 0.92994 0.44221 0.0
H355 H 0.15674 0.92876 0.30913 0.0
N356 N 0.1399 0.88746 0.31694 0.0
N357 N 0.13968 0.86852 0.25376 0.0
C358 C 0.14476 0.87085 0.30011 0.0
C359 C 0.13136 0.8958 0.28023 0.0
C360 C 0.13124 0.88424 0.24136 0.0
C361 C 0.12341 0.8911 0.46449 0.0
O362 O 0.1382 0.89663 0.48664 0.0
H363 H 0.15201 0.86078 0.32129 0.0
H364 H 0.12548 0.90934 0.28178 0.0
O365 O 0.16778 0.89057 0.4014 0.0
H366 H 0.15364 0.96345 0.33586 0.0
H367 H 0.12509 0.8871 0.20685 0.0
C368 C 0.4187 0.94797 0.26031 0.0
C369 C 0.40764 0.9339 0.24203 0.0
C370 C 0.41905 0.96524 0.23854 0.0
C371 C 0.40614 0.99041 0.1265 0.0
H372 H 0.40781 0.03266 0.21002 0.0
C373 C 0.38529 0.06344 0.06634 0.0
C374 C 0.39442 0.07856 0.08623 0.0
C375 C 0.38953 0.0456 0.08089 0.0
C376 C 0.40765 1.02105 0.18602 0.0
H377 H 0.38837 0.92707 0.18595 0.0
H378 H 0.38873 0.95722 0.14835 0.0
H379 H 0.40968 1.00212 0.24434 0.0
H380 H 0.41589 0.08659 0.13534 0.0
H381 H 0.42339 0.05544 0.16041 0.0
H382 H 0.40361 1.00947 0.06828 0.0
C383 C 0.39744 0.95483 0.17909 0.0
C384 C 0.40872 1.00345 0.20576 0.0
C385 C 0.39719 0.93749 0.20074 0.0
C386 C 0.40863 0.0753 0.11904 0.0
C387 C 0.41279 0.05743 0.13388 0.0
C388 C 0.40499 1.00803 0.10676 0.0
C389 C 0.40824 0.96903 0.19795 0.0
C390 C 0.40784 0.98783 0.17638 0.0
C391 C 0.40293 0.04238 0.11599 0.0
C392 C 0.40559 1.0236 0.13629 0.0
H393 H 0.42719 0.94561 0.29148 0.0
H394 H 0.42785 0.97563 0.25359 0.0
H395 H 0.40574 0.97879 0.10255 0.0
H396 H 0.37425 0.06543 0.04106 0.0
H397 H 0.38157 0.03441 0.06648 0.0
C398 C 0.08713 0.67858 0.78999 0.0
C399 C 0.09416 0.66723 0.82635 0.0
C400 C 0.06994 0.67541 0.77046 0.0
C401 C 0.02552 0.65366 0.78891 0.0
H402 H 0.0233 0.65631 0.65012 0.0
C403 C 0.95901 0.64016 0.67879 0.0
C404 C 0.95593 0.65174 0.63918 0.0
C405 C 0.97562 0.64064 0.70376 0.0
C406 C 0.02358 0.6557 0.68891 0.0
H407 H 0.08817 0.644 0.87204 0.0
H408 H 0.05777 0.6385 0.83779 0.0
H409 H 0.05237 0.65976 0.69081 0.0
H410 H 0.96779 0.67339 0.59621 0.0
H411 H 0.99645 0.67429 0.63941 0.0
H412 H 0.99656 0.64996 0.78682 0.0
C413 C 0.06578 0.64985 0.82449 0.0
C414 C 0.0403 0.65762 0.71226 0.0
C415 C 0.08317 0.65299 0.84407 0.0
C416 C 0.96977 0.66396 0.62569 0.0
C417 C 0.98628 0.66447 0.6506 0.0
C418 C 1.00868 0.65182 0.76544 0.0
C419 C 0.05918 0.66082 0.78667 0.0
C420 C 0.04146 0.65701 0.76255 0.0
C421 C 0.98954 0.65272 0.68971 0.0
C422 C 1.00746 0.65319 0.71512 0.0
H423 H 0.09506 0.68981 0.77571 0.0
H424 H 0.06513 0.68437 0.74215 0.0
H425 H 0.02597 0.65316 0.8277 0.0
H426 H 0.94872 0.63048 0.68999 0.0
H427 H 0.97768 0.6313 0.73345 0.0
C428 C 0.66842 0.97162 0.19353 0.0
C429 C 0.65614 0.95913 0.17299 0.0
C430 C 0.6661 0.9904 0.18768 0.0
C431 C 0.63142 0.02533 0.16851 0.0
H432 H 0.67361 0.05675 0.15482 0.0
C433 C 0.627 0.10459 0.18637 0.0
C434 C 0.6403 0.11229 0.21657 0.0
C435 C 0.62855 0.08642 0.17075 0.0
C436 C 0.66167 0.04821 0.15874 0.0
H437 H 0.63188 0.95663 0.12929 0.0
H438 H 0.62759 0.98988 0.11946 0.0
H439 H 0.67681 0.02383 0.14463 0.0
H440 H 0.66602 0.10722 0.25216 0.0
H441 H 0.66876 0.07572 0.22515 0.0
H442 H 0.61641 0.04973 0.18427 0.0
C443 C 0.6391 0.98493 0.14002 0.0
C444 C 0.6635 0.02932 0.15278 0.0
C445 C 0.6416 0.96593 0.14536 0.0
C446 C 0.65549 0.10165 0.22922 0.0
C447 C 0.65712 0.08362 0.21334 0.0
C448 C 0.62958 0.0443 0.1745 0.0
C449 C 0.65132 0.99737 0.16139 0.0
C450 C 0.64854 1.01757 0.15912 0.0
C451 C 0.64355 0.07564 0.18449 0.0
C452 C 0.64482 0.05591 0.17117 0.0
H453 H 0.67982 0.96688 0.21488 0.0
H454 H 0.67563 0.9995 0.20525 0.0
H455 H 0.61965 1.01667 0.17394 0.0
H456 H 0.61505 0.11236 0.17631 0.0
H457 H 0.61791 0.08075 0.14831 0.0
C458 C 0.07381 0.41942 0.69118 0.0
C459 C 0.07765 0.4048 0.66011 0.0
C460 C 0.05769 0.41962 0.71819 0.0
C461 C 1.01171 0.39802 0.72105 0.0
H462 H 1.01001 0.41478 0.85278 0.0
C463 C 0.95311 0.37787 0.84233 0.0
C464 C 0.94348 0.39198 0.86517 0.0
C465 C 0.97004 0.38113 0.82166 0.0
C466 C 1.01028 0.41024 0.81586 0.0
H467 H 0.06789 0.37849 0.63521 0.0
H468 H 0.04025 0.3787 0.68206 0.0
H469 H 0.03846 0.4173 0.80721 0.0
H470 H 0.94475 0.42039 0.88679 0.0
H471 H 0.97483 0.42606 0.85081 0.0
H472 H 0.98383 0.39046 0.72993 0.0
C473 C 0.04926 0.39037 0.68462 0.0
C474 C 0.02654 0.4117 0.78967 0.0
C475 C 0.06521 0.39023 0.65759 0.0
C476 C 0.95184 0.40922 0.86959 0.0
C477 C 0.969 0.41248 0.8489 0.0
C478 C 0.99564 0.39641 0.74721 0.0
C479 C 0.04509 0.40515 0.71487 0.0
C480 C 0.02757 0.40523 0.74216 0.0
C481 C 0.97796 0.39858 0.8233 0.0
C482 C 0.99479 0.40214 0.79518 0.0
H483 H 0.08309 0.43086 0.69394 0.0
H484 H 0.05494 0.43128 0.74089 0.0
H485 H 1.01172 0.39341 0.68419 0.0
H486 H 0.94724 0.36435 0.83873 0.0
H487 H 0.97675 0.37005 0.80304 0.0
C488 C 0.37453 0.45552 0.09115 0.0
C489 C 0.3868 0.44443 0.06583 0.0
C490 C 0.37337 0.47431 0.08177 0.0
C491 C 0.38752 0.51032 0.99325 0.0
H492 H 0.37809 0.54307 0.09945 0.0
C493 C 0.39926 0.58813 0.9795 0.0
C494 C 0.38464 0.5994 0.99317 0.0
C495 C 0.39927 0.56944 0.99018 0.0
C496 C 0.38063 0.53408 0.06941 0.0
H497 H 0.40741 0.44448 1.01051 0.0
H498 H 0.40588 0.47719 0.9952 0.0
H499 H 0.37836 0.5101 0.113 0.0
H500 H 0.35898 0.59962 0.03152 0.0
H501 H 0.35936 0.56709 0.05142 0.0
H502 H 0.39039 0.53446 0.95018 0.0
C503 C 0.39671 0.4714 0.02145 0.0
C504 C 0.38068 0.51512 0.07701 0.0
C505 C 0.39766 0.45256 0.03034 0.0
C506 C 0.37052 0.59154 0.02041 0.0
C507 C 0.37068 0.57283 0.03171 0.0
C508 C 0.38776 0.52926 0.98589 0.0
C509 C 0.38465 0.48263 0.04729 0.0
C510 C 0.38416 0.50291 0.03904 0.0
C511 C 0.38484 0.5615 0.01566 0.0
C512 C 0.38436 0.54136 0.02387 0.0
H513 H 0.36589 0.44968 0.11859 0.0
H514 H 0.3636 0.48229 0.10173 0.0
H515 H 0.38984 0.50151 0.96276 0.0
H516 H 0.41063 0.59365 0.95968 0.0
H517 H 0.41056 0.56113 0.97818 0.0
C518 C 0.44775 0.62808 0.87681 0.0
C519 C 0.44375 0.64618 0.86352 0.0
C520 C 0.46505 0.62355 0.89471 0.0
C521 C 0.49584 0.62342 0.96877 0.0
H522 H 0.54056 0.64632 0.92622 0.0
C523 C 0.55729 0.63365 0.0949 0.0
C524 C 0.57495 0.63129 0.07664 0.0
C525 C 0.54211 0.6332 0.06455 0.0
C526 C 0.52827 0.63962 0.93834 0.0
H527 H 0.455 0.67337 0.85515 0.0
H528 H 0.48503 0.66551 0.88547 0.0
H529 H 0.51321 0.64858 0.8767 0.0
H530 H 0.59027 0.62632 1.01159 0.0
H531 H 0.5638 0.62573 0.95867 0.0
H532 H 0.51081 0.61466 0.0307 0.0
C533 C 0.47497 0.65475 0.88232 0.0
C534 C 0.51254 0.64103 0.91009 0.0
C535 C 0.45771 0.65928 0.865 0.0
C536 C 0.57696 0.62847 0.027 0.0
C537 C 0.56175 0.62809 0.99658 0.0
C538 C 0.51154 0.62206 0.99709 0.0
C539 C 0.4787 0.637 0.89909 0.0
C540 C 0.49602 0.63326 0.9254 0.0
C541 C 0.54412 0.63042 0.01498 0.0
C542 C 0.52787 0.63046 0.98274 0.0
H543 H 0.4372 0.61773 0.87658 0.0
H544 H 0.46754 0.60969 0.90681 0.0
H545 H 0.48336 0.61741 0.98198 0.0
H546 H 0.55514 0.63615 0.13265 0.0
H547 H 0.52879 0.63542 0.0799 0.0
C548 C 0.65303 0.44506 1.00416 0.0
C549 C 0.66916 0.43675 0.98839 0.0
C550 C 0.65245 0.46382 0.01371 0.0
C551 C 0.68128 0.50512 0.03393 0.0
H552 H 0.63775 0.53054 0.99218 0.0
C553 C 0.66651 0.5809 0.08182 0.0
C554 C 0.65684 0.59172 0.0486 0.0
C555 C 0.66944 0.56227 0.07332 0.0
C556 C 0.65012 0.52374 1.00357 0.0
H557 H 0.69748 0.4417 0.97137 0.0
H558 H 0.69648 0.47442 0.98774 0.0
H559 H 0.64 0.49767 0.98154 0.0
H560 H 0.6435 0.59149 0.97917 0.0
H561 H 0.64897 0.55916 0.96385 0.0
H562 H 0.69154 0.53135 0.05493 0.0
C563 C 0.6843 0.46639 0.99344 0.0
C564 C 0.65129 0.50477 0.99818 0.0
C565 C 0.6849 0.44757 0.98414 0.0
C566 C 0.65091 0.58359 1.00569 0.0
C567 C 0.6539 0.56497 0.9971 0.0
C568 C 0.68012 0.52414 0.03925 0.0
C569 C 0.66796 0.47485 1.00742 0.0
C570 C 0.66684 0.49514 0.01349 0.0
C571 C 0.66285 0.55394 0.03128 0.0
C572 C 0.66449 0.53373 0.02423 0.0
H573 H 0.64074 0.43705 1.00818 0.0
H574 H 0.63972 0.46972 0.02551 0.0
H575 H 0.69343 0.4982 0.04643 0.0
H576 H 0.67125 0.58665 0.11536 0.0
H577 H 0.67624 0.55426 0.1007 0.0
C578 C 0.4756 0.38024 0.12179 0.0
C579 C 0.46249 0.39414 0.11702 0.0
C580 C 0.49188 0.38096 0.09625 0.0
C581 C 0.51436 0.40161 0.99037 0.0
H582 H 0.55778 0.38446 0.05557 0.0
C583 C 0.5883 0.40107 0.90817 0.0
C584 C 0.59813 0.38489 0.91702 0.0
C585 C 0.57124 0.40389 0.92977 0.0
C586 C 0.54578 0.38922 0.03671 0.0
H587 H 0.4564 0.41971 0.0809 0.0
H588 H 0.48501 0.42099 0.03623 0.0
H589 H 0.52936 0.38663 0.09937 0.0
H590 H 0.5972 0.35862 0.95342 0.0
H591 H 0.56786 0.36353 0.99047 0.0
H592 H 0.53108 0.40412 0.92749 0.0
C593 C 0.48252 0.40945 0.05968 0.0
C594 C 0.52944 0.39043 0.06182 0.0
C595 C 0.46612 0.40872 0.08537 0.0
C596 C 0.59019 0.37137 0.94617 0.0
C597 C 0.57335 0.3742 0.96771 0.0
C598 C 0.53085 0.40048 0.96514 0.0
C599 C 0.49569 0.39561 0.0651 0.0
C600 C 0.51338 0.39619 0.03881 0.0
C601 C 0.56383 0.39064 0.96081 0.0
C602 C 0.54664 0.39383 0.98781 0.0
H603 H 0.4732 0.36853 0.14465 0.0
H604 H 0.50143 0.3698 0.10048 0.0
H605 H 0.50227 0.40607 0.97143 0.0
H606 H 0.59402 0.41176 0.88593 0.0
H607 H 0.5642 0.41669 0.92367 0.0
C608 C 0.89373 0.45599 0.78006 0.0
C609 C 0.87831 0.44497 0.77194 0.0
C610 C 0.8937 0.47457 0.76809 0.0
C611 C 0.86197 0.51315 0.73908 0.0
H612 H 0.90702 0.53792 0.70754 0.0
C613 C 0.86725 0.58851 0.67011 0.0
C614 C 0.88034 0.59952 0.69306 0.0
C615 C 0.86616 0.56974 0.67999 0.0
C616 C 0.89435 0.5312 0.71658 0.0
H617 H 0.85101 0.44515 0.742 0.0
H618 H 0.85132 0.47717 0.71887 0.0
H619 H 0.90702 0.50496 0.71977 0.0
H620 H 0.90239 0.59938 0.74489 0.0
H621 H 0.90071 0.56656 0.76127 0.0
H622 H 0.84932 0.53956 0.73399 0.0
C623 C 0.86325 0.47159 0.73641 0.0
C624 C 0.89432 0.51226 0.72388 0.0
C625 C 0.86317 0.45301 0.74912 0.0
C626 C 0.89208 0.59135 0.72677 0.0
C627 C 0.89122 0.57253 0.73591 0.0
C628 C 0.86196 0.53208 0.73083 0.0
C629 C 0.8784 0.48277 0.74652 0.0
C630 C 0.87818 0.50291 0.73589 0.0
C631 C 0.87838 0.56148 0.71228 0.0
C632 C 0.87819 0.54133 0.72008 0.0
H633 H 0.90585 0.45041 0.79651 0.0
H634 H 0.90561 0.48257 0.77713 0.0
H635 H 0.8493 0.50667 0.74902 0.0
H636 H 0.85801 0.59437 0.64392 0.0
H637 H 0.85616 0.56156 0.66114 0.0
C638 C 0.56522 0.17125 0.35938 0.0
C639 C 0.57811 0.15744 0.36831 0.0
C640 C 0.54674 0.16719 0.35557 0.0
C641 C 0.51546 0.12914 0.32656 0.0
H642 H 0.47904 0.16528 0.35974 0.0
C643 C 0.438 0.11921 0.2887 0.0
C644 C 0.4294 0.13407 0.26583 0.0
C645 C 0.45562 0.12099 0.3076 0.0
C646 C 0.48904 0.15506 0.35016 0.0
H647 H 0.58147 0.12851 0.38223 0.0
H648 H 0.54886 0.12133 0.37639 0.0
H649 H 0.51051 0.16976 0.38471 0.0
H650 H 0.43241 0.16253 0.24606 0.0
H651 H 0.46302 0.16576 0.27968 0.0
H652 H 0.49379 0.11447 0.29201 0.0
C653 C 0.55322 0.13536 0.37164 0.0
C654 C 0.50714 0.15762 0.36439 0.0
C655 C 0.57189 0.13947 0.37555 0.0
C656 C 0.43868 0.15084 0.26332 0.0
C657 C 0.45617 0.1527 0.28285 0.0
C658 C 0.49726 0.12647 0.31279 0.0
C659 C 0.54042 0.14916 0.36073 0.0
C660 C 0.52074 0.14497 0.35167 0.0
C661 C 0.46494 0.13775 0.3048 0.0
C662 C 0.48392 0.13963 0.32341 0.0
H663 H 0.56948 0.18527 0.35366 0.0
H664 H 0.53752 0.1782 0.34641 0.0
H665 H 0.52548 0.11917 0.3156 0.0
H666 H 0.43134 0.10603 0.29074 0.0
H667 H 0.46195 0.10924 0.32445 0.0
C668 C 0.14793 0.60289 0.75562 0.0
C669 C 0.16434 0.61166 0.76758 0.0
C670 C 0.1475 0.58411 0.7463 0.0
C671 C 0.17662 0.54415 0.71662 0.0
H672 H 0.13581 0.51659 0.76682 0.0
C673 C 0.16292 0.46878 0.6646 0.0
C674 C 0.15582 0.45685 0.69953 0.0
C675 C 0.16492 0.48745 0.67401 0.0
C676 C 0.14741 0.52401 0.75297 0.0
H677 H 0.19325 0.60746 0.77853 0.0
H678 H 0.19252 0.57473 0.76227 0.0
H679 H 0.13743 0.54944 0.77998 0.0
H680 H 0.14572 0.45528 0.77235 0.0
H681 H 0.14945 0.48784 0.78902 0.0
H682 H 0.18676 0.51862 0.69038 0.0
C683 C 0.17998 0.58242 0.75945 0.0
C684 C 0.14821 0.54294 0.75991 0.0
C685 C 0.18042 0.60125 0.76866 0.0
C686 C 0.15118 0.46405 0.74455 0.0
C687 C 0.1532 0.48276 0.75399 0.0
C688 C 0.17582 0.52519 0.70967 0.0
C689 C 0.16346 0.57354 0.74884 0.0
C690 C 0.16277 0.55331 0.74161 0.0
C691 C 0.15991 0.49476 0.71864 0.0
C692 C 0.16116 0.51487 0.72757 0.0
H693 H 0.13536 0.61056 0.75399 0.0
H694 H 0.13459 0.57785 0.73724 0.0
H695 H 0.18798 0.55166 0.70173 0.0
H696 H 0.16661 0.46377 0.62945 0.0
H697 H 0.16993 0.49625 0.64568 0.0
C698 C 0.47358 0.88467 0.4572 0.0
C699 C 0.45987 0.89559 0.43661 0.0
C700 C 0.49193 0.888 0.44727 0.0
C701 C 0.52059 0.90857 0.35298 0.0
H702 H 0.55969 0.89796 0.44237 0.0
C703 C 0.5963 0.91471 0.29848 0.0
C704 C 0.60781 0.90034 0.31301 0.0
C705 C 0.57869 0.91631 0.31702 0.0
C706 C 0.54893 0.90088 0.41688 0.0
H707 H 0.45487 0.91937 0.39182 0.0
H708 H 0.4869 0.92539 0.37532 0.0
H709 H 0.52826 0.89767 0.47017 0.0
H710 H 0.60963 0.87647 0.35912 0.0
H711 H 0.57908 0.87928 0.39141 0.0
H712 H 0.54123 0.91152 0.29955 0.0
C713 C 0.48343 0.91398 0.39833 0.0
C714 C 0.53089 0.90073 0.43283 0.0
C715 C 0.46505 0.91064 0.40824 0.0
C716 C 0.60134 0.88785 0.34742 0.0
C717 C 0.58375 0.88947 0.36604 0.0
C718 C 0.53863 0.90878 0.33708 0.0
C719 C 0.49709 0.90237 0.41656 0.0
C720 C 0.51643 0.9043 0.40094 0.0
C721 C 0.57212 0.90361 0.35075 0.0
C722 C 0.55303 0.90467 0.36863 0.0
H723 H 0.47014 0.87296 0.4792 0.0
H724 H 0.50199 0.87866 0.46172 0.0
H725 H 0.50986 0.91109 0.32711 0.0
H726 H 0.60087 0.9248 0.27277 0.0
H727 H 0.57022 0.92754 0.30498 0.0
C728 C 0.88512 0.96593 0.65689 0.0
C729 C 0.89475 0.95297 0.62974 0.0
C730 C 0.88411 0.98424 0.64217 0.0
C731 C 0.89165 1.01504 0.53686 0.0
H732 H 0.89481 0.05271 0.63414 0.0
C733 C 0.90521 0.09069 0.48881 0.0
C734 C 0.89497 0.10419 0.51241 0.0
C735 C 0.90468 0.07242 0.50376 0.0
C736 C 0.89372 0.04238 0.60653 0.0
H737 H 0.91065 0.94922 0.56522 0.0
H738 H 0.90918 0.9811 0.53999 0.0
H739 H 0.89449 1.0206 0.65792 0.0
H740 H 0.87636 0.10881 0.57133 0.0
H741 H 0.87562 0.07694 0.59779 0.0
H742 H 0.8912 0.03686 0.48548 0.0
C743 C 0.90211 0.9771 0.57234 0.0
C744 C 0.89348 0.0239 0.62015 0.0
C745 C 0.90302 0.95876 0.58693 0.0
C746 C 0.88455 0.09891 0.5524 0.0
C747 C 0.8841 0.08059 0.56756 0.0
C748 C 0.892 0.03349 0.52326 0.0
C749 C 0.8928 0.99018 0.6 0.0
C750 C 0.89252 1.00993 0.58551 0.0
C751 C 0.89398 0.06706 0.54303 0.0
C752 C 0.89313 0.04742 0.55787 0.0
H753 H 0.87849 0.96198 0.68997 0.0
H754 H 0.87651 0.99375 0.66401 0.0
H755 H 0.89054 1.00478 0.5091 0.0
H756 H 0.91375 0.09418 0.45865 0.0
H757 H 0.91278 0.06247 0.48465 0.0
C758 C 0.96488 0.17103 0.39804 0.0
C759 C 0.95386 0.15668 0.38133 0.0
C760 C 0.9837 0.16914 0.40107 0.0
C761 C 1.01962 0.1342 0.41388 0.0
H762 H 0.05068 0.17687 0.40239 0.0
C763 C 0.0977 0.13416 0.45721 0.0
C764 C 0.10315 0.14809 0.48892 0.0
C765 C 0.08021 0.13426 0.43681 0.0
C766 C 0.04221 0.16482 0.40574 0.0
H767 H 0.95413 0.12918 0.35291 0.0
H768 H 0.98745 0.12582 0.35764 0.0
H769 H 1.01917 0.17849 0.37556 0.0
H770 H 0.0947 0.17317 0.52317 0.0
H771 H 0.06438 0.17361 0.48677 0.0
H772 H 0.04291 0.1206 0.44414 0.0
C773 C 0.98133 0.13857 0.36887 0.0
C774 C 0.02408 0.16573 0.39047 0.0
C775 C 0.96228 0.14053 0.36559 0.0
C776 C 0.09087 0.16226 0.49901 0.0
C777 C 0.07356 0.16254 0.47795 0.0
C778 C 0.0379 0.13322 0.42858 0.0
C779 C 0.99227 0.1528 0.38742 0.0
C780 C 1.01232 0.15065 0.39581 0.0
C781 C 0.06795 0.14849 0.44688 0.0
C782 C 0.04923 0.1487 0.426 0.0
H783 H 0.95887 0.18369 0.41042 0.0
H784 H 0.99143 0.18032 0.41632 0.0
H785 H 1.01102 0.12234 0.41893 0.0
H786 H 0.10679 0.12296 0.44916 0.0
H787 H 0.0763 0.12326 0.41296 0.0
C788 C 0.14957 0.98285 0.42577 0.0
C789 C 0.13767 0.96783 0.42891 0.0
C790 C 0.14805 0.99755 0.45741 0.0
C791 C 0.11678 1.02112 0.53991 0.0
H792 H 0.16154 0.04075 0.59265 0.0
C793 C 0.12325 0.09254 0.62905 0.0
C794 C 0.1362 0.09482 0.66588 0.0
C795 C 0.12115 0.07561 0.60632 0.0
C796 C 0.14887 0.03532 0.57885 0.0
H797 H 0.11448 0.95685 0.46716 0.0
H798 H 0.11185 0.9826 0.52261 0.0
H799 H 0.16265 1.01438 0.5398 0.0
H800 H 0.15581 0.08055 0.71057 0.0
H801 H 0.15193 0.05105 0.67148 0.0
H802 H 0.10303 0.04226 0.57887 0.0
C803 C 0.12236 0.98292 0.49553 0.0
C804 C 0.14953 1.02032 0.54797 0.0
C805 C 0.12396 0.96811 0.464 0.0
C806 C 0.14584 0.07938 0.68207 0.0
C807 C 0.14373 0.06247 0.65936 0.0
C808 C 0.11611 0.03625 0.57066 0.0
C809 C 0.13455 0.99772 0.49298 0.0
C810 C 0.13354 1.01316 0.52765 0.0
C811 C 0.13191 0.06056 0.61993 0.0
C812 C 0.13218 0.04362 0.59025 0.0
H813 H 0.1604 0.98307 0.39965 0.0
H814 H 0.15752 1.00883 0.45402 0.0
H815 H 0.10421 1.01597 0.52472 0.0
H816 H 0.11557 0.10411 0.61555 0.0
H817 H 0.11194 0.07467 0.57605 0.0
C818 C 0.97003 0.89571 0.64046 0.0
C819 C 0.96984 0.89958 0.68984 0.0
C820 C 0.98652 0.89416 0.61574 0.0
C821 C 0.03523 0.90696 0.62361 0.0
H822 H 0.04187 0.86843 0.53007 0.0
C823 C 0.10547 0.89254 0.54081 0.0
C824 C 0.10605 0.88929 0.49118 0.0
C825 C 0.08887 0.89279 0.56515 0.0
C826 C 0.0402 0.87937 0.55576 0.0
H827 H 0.98696 0.90519 0.75154 0.0
H828 H 1.01557 0.90222 0.70882 0.0
H829 H 1.01279 0.87138 0.57136 0.0
H830 H 0.08956 0.88317 0.42858 0.0
H831 H 0.06064 0.88374 0.47096 0.0
H832 H 0.06254 0.91503 0.608 0.0
C833 C 1.00299 0.9005 0.68902 0.0
C834 C 0.0235 0.88108 0.57939 0.0
C835 C 0.98655 0.902 0.7137 0.0
C836 C 0.08965 0.88568 0.46682 0.0
C837 C 0.07304 0.88595 0.49119 0.0
C838 C 0.05189 0.90526 0.60001 0.0
C839 C 1.00321 0.89653 0.63974 0.0
C840 C 1.02083 0.89486 0.61375 0.0
C841 C 0.0724 0.88982 0.54053 0.0
C842 C 0.05463 0.89142 0.56588 0.0
H843 H 0.95746 0.89359 0.62097 0.0
H844 H 0.98617 0.89126 0.5777 0.0
H845 H 0.03357 0.91794 0.6492 0.0
H846 H 0.11782 0.8953 0.56079 0.0
H847 H 0.08893 0.89548 0.60332 0.0
C848 C 0.37516 0.33575 0.10304 0.0
C849 C 0.38909 0.3455 0.07986 0.0
C850 C 0.3739 0.3167 0.09861 0.0
C851 C 0.40228 0.27614 0.07197 0.0
H852 H 0.35582 0.25114 0.07011 0.0
C853 C 0.39556 0.19629 0.07302 0.0
C854 C 0.38252 0.18948 0.10525 0.0
C855 C 0.39648 0.21516 0.0629 0.0
C856 C 0.36893 0.25789 0.07079 0.0
H857 H 0.41217 0.34278 0.03211 0.0
H858 H 0.40983 0.30969 0.02405 0.0
H859 H 0.35672 0.2844 0.06516 0.0
H860 H 0.36013 0.19727 0.15156 0.0
H861 H 0.36178 0.22959 0.13421 0.0
H862 H 0.41443 0.24957 0.07859 0.0
C863 C 0.40005 0.31672 0.04631 0.0
C864 C 0.36944 0.277 0.06804 0.0
C865 C 0.40128 0.33576 0.05064 0.0
C866 C 0.37038 0.2019 0.12653 0.0
C867 C 0.37121 0.22054 0.11625 0.0
C868 C 0.40176 0.25698 0.07474 0.0
C869 C 0.38654 0.30687 0.07091 0.0
C870 C 0.38609 0.28643 0.06954 0.0
C871 C 0.38423 0.2275 0.08436 0.0
C872 C 0.38505 0.24763 0.07528 0.0
H873 H 0.36558 0.34275 0.126 0.0
H874 H 0.36341 0.3096 0.11847 0.0
H875 H 0.41536 0.28291 0.07367 0.0
H876 H 0.40512 0.18712 0.05605 0.0
H877 H 0.40666 0.22006 0.03804 0.0
C878 C 0.20661 0.65132 0.96812 0.0
C879 C 0.19087 0.64498 0.94475 0.0
C880 C 0.22383 0.6452 0.95435 0.0
C881 C 0.25935 0.62676 0.9273 0.0
H882 H 0.26644 0.62824 0.78968 0.0
C883 C 0.33135 0.62267 0.84688 0.0
C884 C 0.33517 0.63663 0.81357 0.0
C885 C 0.31336 0.61874 0.85985 0.0
C886 C 0.2647 0.62769 0.82819 0.0
H887 H 0.1809 0.62614 0.89068 0.0
H888 H 0.21097 0.61545 0.86667 0.0
H889 H 0.23576 0.63021 0.82228 0.0
H890 H 0.32296 0.65637 0.76514 0.0
H891 H 0.29175 0.6495 0.78748 0.0
H892 H 0.28833 0.6252 0.93334 0.0
C893 C 0.20998 0.62533 0.8954 0.0
C894 C 0.24707 0.62861 0.84691 0.0
C895 C 0.19271 0.63133 0.90956 0.0
C896 C 0.32053 0.64555 0.79094 0.0
C897 C 0.30258 0.64156 0.80369 0.0
C898 C 0.27697 0.62578 0.90858 0.0
C899 C 0.22578 0.63263 0.91661 0.0
C900 C 0.2442 0.62868 0.89677 0.0
C901 C 0.29877 0.62856 0.83956 0.0
C902 C 0.27992 0.62673 0.85881 0.0
H903 H 0.2057 0.66182 0.99534 0.0
H904 H 0.23565 0.65123 0.97132 0.0
H905 H 0.25764 0.62656 0.96584 0.0
H906 H 0.34227 0.61553 0.86516 0.0
H907 H 0.31091 0.60845 0.88706 0.0
C908 C 0.67443 0.83853 0.10816 0.0
C909 C 0.65956 0.84916 0.12265 0.0
C910 C 0.67213 0.82021 0.09544 0.0
C911 C 0.63737 0.78353 0.07299 0.0
H912 H 0.67565 0.75228 0.12285 0.0
C913 C 0.62726 0.70709 0.11836 0.0
C914 C 0.64145 0.69467 0.10951 0.0
C915 C 0.62953 0.7258 0.10998 0.0
C916 C 0.66498 0.76077 0.10791 0.0
H917 H 0.63046 0.84923 0.13347 0.0
H918 H 0.62635 0.81698 0.11264 0.0
H919 H 0.67913 0.78525 0.12628 0.0
H920 H 0.66903 0.69215 0.08338 0.0
H921 H 0.67313 0.72505 0.06916 0.0
H922 H 0.62291 0.7588 0.05677 0.0
C923 C 0.63981 0.82286 0.10982 0.0
C924 C 0.66696 0.77979 0.10974 0.0
C925 C 0.64211 0.84139 0.12169 0.0
C926 C 0.65784 0.70136 0.09048 0.0
C927 C 0.6602 0.7202 0.08264 0.0
C928 C 0.63532 0.76446 0.07158 0.0
C929 C 0.65492 0.81183 0.09812 0.0
C930 C 0.65312 0.79151 0.09275 0.0
C931 C 0.64613 0.73267 0.09295 0.0
C932 C 0.64902 0.75285 0.08956 0.0
H933 H 0.68804 0.84422 0.10853 0.0
H934 H 0.68402 0.81244 0.08516 0.0
H935 H 0.62653 0.792 0.05885 0.0
H936 H 0.61442 0.70241 0.13283 0.0
H937 H 0.61848 0.73496 0.1188 0.0
C938 C 0.6988 0.42181 0.8477 0.0
C939 C 0.69675 0.40886 0.81078 0.0
C940 C 0.71619 0.42701 0.86355 0.0
C941 C 0.75293 0.42267 0.91377 0.0
H942 H 0.79488 0.42434 0.83011 0.0
C943 C 0.82522 0.40368 0.97695 0.0
C944 C 0.84045 0.41145 0.95432 0.0
C945 C 0.80757 0.40828 0.9624 0.0
C946 C 0.78336 0.42425 0.85416 0.0
H947 H 0.71138 0.3924 0.75924 0.0
H948 H 0.74146 0.40144 0.78647 0.0
H949 H 0.76443 0.42428 0.79563 0.0
H950 H 0.84892 0.43118 0.90062 0.0
H951 H 0.81812 0.43947 0.8759 0.0
H952 H 0.77187 0.42247 0.97231 0.0
C953 C 0.72976 0.40763 0.80338 0.0
C954 C 0.76584 0.42398 0.83427 0.0
C955 C 0.71244 0.40238 0.78776 0.0
C956 C 0.83754 0.42495 0.91905 0.0
C957 C 0.81984 0.42953 0.9044 0.0
C958 C 0.77046 0.42297 0.93368 0.0
C959 C 0.73191 0.41954 0.84256 0.0
C960 C 0.75038 0.42268 0.86373 0.0
C961 C 0.80462 0.4208 0.92476 0.0
C962 C 0.78595 0.42327 0.90413 0.0
H963 H 0.68704 0.42708 0.86641 0.0
H964 H 0.7173 0.43644 0.89328 0.0
H965 H 0.74142 0.42154 0.93771 0.0
H966 H 0.82693 0.39323 1.00419 0.0
H967 H 0.79629 0.40113 0.97879 0.0
C968 C 0.88224 0.70794 0.71044 0.0
C969 C 0.87848 0.69873 0.66744 0.0
C970 C 0.881 0.72705 0.71294 0.0
C971 C 0.86566 0.76866 0.64272 0.0
H972 H 0.89937 0.79329 0.72803 0.0
C973 C 0.88888 0.8452 0.62969 0.0
C974 C 0.88682 0.85539 0.67202 0.0
C975 C 0.88559 0.8263 0.62947 0.0
C976 C 0.88981 0.78657 0.70424 0.0
H977 H 0.8703 0.70239 0.59334 0.0
H978 H 0.86904 0.73549 0.59673 0.0
H979 H 0.89815 0.76006 0.72747 0.0
H980 H 0.87947 0.85372 0.74717 0.0
H981 H 0.87434 0.82066 0.74696 0.0
H982 H 0.85827 0.79549 0.61777 0.0
C983 C 0.87227 0.72814 0.62936 0.0
C984 C 0.88894 0.76745 0.70413 0.0
C985 C 0.87308 0.70903 0.62725 0.0
C986 C 0.88105 0.84632 0.71385 0.0
C987 C 0.87821 0.82738 0.71388 0.0
C988 C 0.86689 0.78779 0.64206 0.0
C989 C 0.87645 0.73754 0.67208 0.0
C990 C 0.87685 0.7581 0.67336 0.0
C991 C 0.88062 0.81717 0.67183 0.0
C992 C 0.87895 0.79692 0.67287 0.0
H993 H 0.88635 0.70038 0.74212 0.0
H994 H 0.88381 0.73353 0.74698 0.0
H995 H 0.85587 0.76221 0.61919 0.0
H996 H 0.89332 0.85177 0.59693 0.0
H997 H 0.8876 0.8187 0.59663 0.0
C998 C 0.83637 0.13164 0.35166 0.0
C999 C 0.84242 0.14988 0.35372 0.0
C1000 C 0.81761 0.12767 0.35346 0.0
C1001 C 0.77791 0.14599 0.41057 0.0
H1002 H 0.74611 0.12315 0.31725 0.0
C1003 C 0.70206 0.1619 0.40153 0.0
C1004 C 0.68948 0.14871 0.38639 0.0
C1005 C 0.72063 0.15796 0.40318 0.0
C1006 C 0.75484 0.12917 0.34427 0.0
H1007 H 0.8337 0.17815 0.3554 0.0
H1008 H 0.80135 0.17127 0.35823 0.0
H1009 H 0.77914 0.12355 0.30386 0.0
H1010 H 0.68633 0.12089 0.36159 0.0
H1011 H 0.71906 0.11378 0.3648 0.0
H1012 H 0.75394 0.15202 0.45066 0.0
C1013 C 0.81092 0.16005 0.35572 0.0
C1014 C 0.77374 0.12944 0.33642 0.0
C1015 C 0.82945 0.16397 0.35376 0.0
C1016 C 0.69575 0.13114 0.37467 0.0
C1017 C 0.71449 0.1272 0.37575 0.0
C1018 C 0.75918 0.14559 0.41862 0.0
C1019 C 0.80481 0.1419 0.35757 0.0
C1020 C 0.78535 0.13843 0.36877 0.0
C1021 C 0.7272 0.14073 0.38902 0.0
C1022 C 0.74728 0.13781 0.38474 0.0
H1023 H 0.84609 0.12052 0.35244 0.0
H1024 H 0.8132 0.11355 0.35481 0.0
H1025 H 0.7866 0.15283 0.43637 0.0
H1026 H 0.69761 0.17567 0.40965 0.0
H1027 H 0.72991 0.16886 0.4128 0.0
C1028 C 0.16524 0.34878 0.67069 0.0
C1029 C 0.15144 0.35849 0.69435 0.0
C1030 C 0.16641 0.32973 0.67488 0.0
C1031 C 0.13748 0.28959 0.6996 0.0
H1032 H 0.18342 0.26366 0.69886 0.0
C1033 C 0.14195 0.21002 0.69025 0.0
C1034 C 0.15478 0.20333 0.65738 0.0
C1035 C 0.14173 0.22866 0.70251 0.0
C1036 C 0.17046 0.27069 0.6989 0.0
H1037 H 0.12863 0.35577 0.74305 0.0
H1038 H 0.13082 0.32263 0.75065 0.0
H1039 H 0.1832 0.29685 0.7069 0.0
H1040 H 0.17757 0.21101 0.61228 0.0
H1041 H 0.1771 0.24308 0.63323 0.0
H1042 H 0.12477 0.26344 0.69039 0.0
C1043 C 0.14055 0.32971 0.72822 0.0
C1044 C 0.17035 0.28973 0.70348 0.0
C1045 C 0.1394 0.34876 0.72414 0.0
C1046 C 0.16747 0.2156 0.63772 0.0
C1047 C 0.16732 0.23406 0.65008 0.0
C1048 C 0.1376 0.27052 0.69496 0.0
C1049 C 0.15381 0.3199 0.70279 0.0
C1050 C 0.15388 0.29948 0.70291 0.0
C1051 C 0.15445 0.2409 0.68249 0.0
C1052 C 0.15412 0.26086 0.69345 0.0
H1053 H 0.17471 0.35578 0.64735 0.0
H1054 H 0.17672 0.32263 0.65446 0.0
H1055 H 0.12454 0.29665 0.69851 0.0
H1056 H 0.13199 0.20093 0.70605 0.0
H1057 H 0.13168 0.23347 0.72778 0.0
C1058 C 0.20578 0.88307 0.41603 0.0
C1059 C 0.19663 0.89768 0.43796 0.0
C1060 C 0.22468 0.88127 0.42061 0.0
C1061 C 0.26585 0.90878 0.44365 0.0
H1062 H 0.28911 0.86142 0.45477 0.0
C1063 C 0.34472 0.89992 0.44203 0.0
C1064 C 0.35084 0.8859 0.41171 0.0
C1065 C 0.32614 0.9014 0.45329 0.0
C1066 C 0.28284 0.87477 0.45152 0.0
H1067 H 0.2002 0.9215 0.48335 0.0
H1068 H 0.23303 0.91828 0.49139 0.0
H1069 H 0.25606 0.86357 0.45881 0.0
H1070 H 0.34228 0.86219 0.37061 0.0
H1071 H 0.31039 0.86484 0.3898 0.0
H1072 H 0.29263 0.9199 0.43502 0.0
C1073 C 0.22564 0.90835 0.47017 0.0
C1074 C 0.26388 0.87598 0.45375 0.0
C1075 C 0.20677 0.91011 0.46576 0.0
C1076 C 0.33811 0.87323 0.39397 0.0
C1077 C 0.31975 0.87463 0.40536 0.0
C1078 C 0.28484 0.90756 0.44127 0.0
C1079 C 0.23488 0.89407 0.44709 0.0
C1080 C 0.25512 0.89295 0.44889 0.0
C1081 C 0.31344 0.88876 0.43489 0.0
C1082 C 0.29354 0.89048 0.44407 0.0
H1083 H 0.19842 0.87328 0.39427 0.0
H1084 H 0.23137 0.87019 0.40199 0.0
H1085 H 0.25955 0.92207 0.43938 0.0
H1086 H 0.35419 0.90989 0.45625 0.0
H1087 H 0.32172 0.91242 0.47634 0.0
C1088 C 0.23237 0.13542 0.71362 0.0
C1089 C 0.21395 0.13925 0.72266 0.0
C1090 C 0.24518 0.13523 0.75096 0.0
C1091 C 0.25263 0.1503 0.87745 0.0
H1092 H 0.29047 0.11343 0.87578 0.0
C1093 C 0.2999 0.1364 0.04113 0.0
C1094 C 0.31839 0.13289 0.03194 0.0
C1095 C 0.28725 0.13761 1.00348 0.0
C1096 C 0.28013 0.12396 0.87663 0.0
H1097 H 0.19469 0.14581 0.77875 0.0
H1098 H 0.21689 0.14537 0.84364 0.0
H1099 H 0.26849 0.11487 0.8104 0.0
H1100 H 0.33787 0.12773 0.97536 0.0
H1101 H 0.31596 0.13004 0.91 0.0
H1102 H 0.26424 0.15924 0.94402 0.0
C1103 C 0.22155 0.14283 0.80749 0.0
C1104 C 0.26749 0.12481 0.83896 0.0
C1105 C 0.20875 0.14309 0.77011 0.0
C1106 C 0.32384 0.13064 0.98398 0.0
C1107 C 0.31119 0.13176 0.9464 0.0
C1108 C 0.26525 0.1494 0.91522 0.0
C1109 C 0.23996 0.13879 0.79857 0.0
C1110 C 0.25355 0.13801 0.83873 0.0
C1111 C 0.2927 0.13523 0.95556 0.0
C1112 C 0.2792 0.13622 0.91534 0.0
H1113 H 0.23694 0.13265 0.67753 0.0
H1114 H 0.25925 0.1324 0.74237 0.0
H1115 H 0.24231 0.16084 0.87833 0.0
H1116 H 0.29519 0.13836 0.07746 0.0
H1117 H 0.27312 0.14014 1.01204 0.0
C1118 C 0.1434 0.85479 0.17329 0.0
C1119 C 0.14237 0.85273 0.22337 0.0
C1120 C 0.14528 0.83959 0.14337 0.0
C1121 C 0.13754 0.78965 0.13814 0.0
H1122 H 0.16879 0.79278 0.02678 0.0
C1123 C 0.14992 0.72784 1.01071 0.0
C1124 C 0.15134 0.73158 0.96132 0.0
C1125 C 0.14915 0.74211 0.04421 0.0
C1126 C 0.15982 0.7917 0.05735 0.0
H1127 H 0.14265 0.83285 0.28108 0.0
H1128 H 0.14605 0.80622 0.22876 0.0
H1129 H 0.16731 0.81831 0.0824 0.0
H1130 H 0.15237 0.75341 0.90871 0.0
H1131 H 0.15087 0.77814 0.96665 0.0
H1132 H 0.12988 0.76309 0.1127 0.0
C1133 C 0.14527 0.8197 0.21269 0.0
C1134 C 0.159 0.80638 0.0894 0.0
C1135 C 0.14351 0.83498 0.24276 0.0
C1136 C 0.15164 0.74996 0.94639 0.0
C1137 C 0.15081 0.76419 0.97978 0.0
C1138 C 0.13831 0.77496 0.10593 0.0
C1139 C 0.14615 0.82181 0.16254 0.0
C1140 C 0.14772 0.80566 0.12999 0.0
C1141 C 0.14972 0.76051 0.02925 0.0
C1142 C 0.14932 0.77584 0.06476 0.0
H1143 H 0.1428 0.86823 0.15703 0.0
H1144 H 0.14571 0.84179 0.10498 0.0
H1145 H 0.12855 0.78868 0.16871 0.0
H1146 H 0.14987 0.71389 0.02366 0.0
H1147 H 0.14851 0.73869 0.08195 0.0
C1148 C 0.72918 0.89828 0.08205 0.0
C1149 C 0.73027 0.9042 0.12997 0.0
C1150 C 0.74443 0.89888 0.05218 0.0
C1151 C 0.78967 0.92102 0.04018 0.0
H1152 H 0.79832 0.88234 0.94821 0.0
C1153 C 0.85655 0.91625 0.93321 0.0
C1154 C 0.85523 0.91219 0.88403 0.0
C1155 C 0.84139 0.91475 0.96311 0.0
C1156 C 0.79601 0.89333 0.9734 0.0
H1157 H 0.74853 0.91539 0.18367 0.0
H1158 H 0.77513 0.91597 0.13217 0.0
H1159 H 0.77189 0.88069 1.00073 0.0
H1160 H 0.83671 0.90315 0.82815 0.0
H1161 H 0.81035 0.90039 0.88042 0.0
H1162 H 0.81385 0.93359 0.01306 0.0
C1163 C 0.76238 0.91113 0.11739 0.0
C1164 C 0.78083 0.89241 1.00351 0.0
C1165 C 0.74712 0.91058 0.14723 0.0
C1166 C 0.83837 0.90621 0.86582 0.0
C1167 C 0.82321 0.90464 0.89583 0.0
C1168 C 0.80488 0.92189 1.01026 0.0
C1169 C 0.76124 0.90536 0.06938 0.0
C1170 C 0.77745 0.90625 0.03734 0.0
C1171 C 0.82449 0.90907 0.94476 0.0
C1172 C 0.80825 0.90806 0.97651 0.0
H1173 H 0.71658 0.89304 0.06746 0.0
H1174 H 0.74295 0.8945 0.01533 0.0
H1175 H 0.78736 0.93211 0.06507 0.0
H1176 H 0.86933 0.92053 0.94886 0.0
H1177 H 0.84295 0.91794 1.00079 0.0
C1178 C 0.89767 0.24174 0.30894 0.0
C1179 C 0.89348 0.22325 0.30008 0.0
C1180 C 0.89683 0.25483 0.27209 0.0
C1181 C 0.87732 0.26277 0.14984 0.0
H1182 H 0.91281 0.30192 0.14467 0.0
C1183 C 0.88305 0.31112 0.98552 0.0
C1184 C 0.88581 0.32989 0.99416 0.0
C1185 C 0.88425 0.29828 0.02281 0.0
C1186 C 0.90267 0.29118 0.14579 0.0
H1187 H 0.88485 0.20435 0.24456 0.0
H1188 H 0.8839 0.22688 0.18062 0.0
H1189 H 0.91432 0.27941 0.20925 0.0
H1190 H 0.89207 0.34961 0.04988 0.0
H1191 H 0.89432 0.32727 0.11447 0.0
H1192 H 0.86577 0.27447 0.08615 0.0
C1193 C 0.88761 0.23138 0.21628 0.0
C1194 C 0.90351 0.27825 0.18299 0.0
C1195 C 0.8884 0.21832 0.25311 0.0
C1196 C 0.89008 0.33534 0.04131 0.0
C1197 C 0.89136 0.32247 0.07858 0.0
C1198 C 0.87654 0.27564 0.11256 0.0
C1199 C 0.89179 0.24985 0.22513 0.0
C1200 C 0.89085 0.26381 0.1856 0.0
C1201 C 0.88833 0.30376 0.06996 0.0
C1202 C 0.88921 0.29004 0.10992 0.0
H1203 H 0.90179 0.24617 0.34431 0.0
H1204 H 0.89995 0.26891 0.28065 0.0
H1205 H 0.86709 0.25212 0.15092 0.0
H1206 H 0.88006 0.30623 0.9498 0.0
H1207 H 0.88215 0.28397 0.01453 0.0
C1208 C 0.20077 0.39867 0.42983 0.0
C1209 C 0.19946 0.40427 0.47795 0.0
C1210 C 0.21769 0.39756 0.40704 0.0
C1211 C 0.2646 0.41561 0.41343 0.0
H1212 H 0.27623 0.37488 0.33031 0.0
C1213 C 0.33692 0.40593 0.33687 0.0
C1214 C 0.33897 0.39889 0.2902 0.0
C1215 C 0.31989 0.40636 0.35912 0.0
C1216 C 0.27316 0.3865 0.35282 0.0
H1217 H 0.21512 0.41308 0.53966 0.0
H1218 H 0.24463 0.41112 0.50001 0.0
H1219 H 0.24681 0.37588 0.37042 0.0
H1220 H 0.3242 0.38671 0.23082 0.0
H1221 H 0.29451 0.38798 0.269 0.0
H1222 H 0.29074 0.42644 0.39545 0.0
C1223 C 0.23251 0.40764 0.47983 0.0
C1224 C 0.25626 0.38704 0.37599 0.0
C1225 C 0.21559 0.40858 0.50276 0.0
C1226 C 0.32332 0.39237 0.2665 0.0
C1227 C 0.30622 0.3929 0.28875 0.0
C1228 C 0.28143 0.41515 0.39002 0.0
C1229 C 0.23379 0.40217 0.43159 0.0
C1230 C 0.25178 0.40156 0.40679 0.0
C1231 C 0.30424 0.39991 0.33545 0.0
C1232 C 0.28603 0.40055 0.35953 0.0
H1233 H 0.18868 0.39506 0.40974 0.0
H1234 H 0.21812 0.39342 0.36982 0.0
H1235 H 0.26152 0.42717 0.43618 0.0
H1236 H 0.34842 0.4113 0.3565 0.0
H1237 H 0.31909 0.4116 0.39531 0.0
C1238 C 0.41523 0.80388 0.46765 0.0
C1239 C 0.40461 0.81989 0.46652 0.0
C1240 C 0.41296 0.79084 0.5041 0.0
C1241 C 0.38064 0.77548 0.59893 0.0
H1242 H 0.42337 0.752 0.6526 0.0
C1243 C 0.37732 0.7308 0.7709 0.0
C1244 C 0.38779 0.71469 0.77218 0.0
C1245 C 0.37934 0.74352 0.73361 0.0
C1246 C 0.41125 0.75825 0.63772 0.0
H1247 H 0.38282 0.83426 0.50279 0.0
H1248 H 0.37921 0.81187 0.56655 0.0
H1249 H 0.42673 0.774 0.58748 0.0
H1250 H 0.40892 0.69969 0.73509 0.0
H1251 H 0.41222 0.72164 0.66994 0.0
H1252 H 0.36517 0.75979 0.64938 0.0
C1253 C 0.38921 0.80927 0.53901 0.0
C1254 C 0.41318 0.77089 0.60021 0.0
C1255 C 0.39146 0.82229 0.50256 0.0
C1256 C 0.40045 0.71178 0.73523 0.0
C1257 C 0.4025 0.72452 0.69801 0.0
C1258 C 0.37871 0.76286 0.6365 0.0
C1259 C 0.4 0.79339 0.54054 0.0
C1260 C 0.3979 0.77971 0.58024 0.0
C1261 C 0.39194 0.74056 0.69654 0.0
C1262 C 0.39399 0.75406 0.65648 0.0
H1263 H 0.42557 0.80151 0.44091 0.0
H1264 H 0.42136 0.77868 0.50355 0.0
H1265 H 0.36851 0.78173 0.58409 0.0
H1266 H 0.36732 0.73351 0.79832 0.0
H1267 H 0.37111 0.7558 0.7341 0.0
C1268 C 0.70971 0.64674 0.24813 0.0
C1269 C 0.69407 0.64299 0.27536 0.0
C1270 C 0.72674 0.64851 0.27034 0.0
C1271 C 0.74929 0.65671 0.38766 0.0
H1272 H 0.78986 0.63119 0.32995 0.0
C1273 C 0.81733 0.6451 0.48883 0.0
C1274 C 0.83359 0.64549 0.46246 0.0
C1275 C 0.80043 0.64598 0.46557 0.0
C1276 C 0.77879 0.63866 0.34628 0.0
H1277 H 0.68405 0.63891 0.34754 0.0
H1278 H 0.71371 0.64193 0.38625 0.0
H1279 H 0.76035 0.63113 0.29009 0.0
H1280 H 0.84475 0.64773 0.3909 0.0
H1281 H 0.81539 0.64953 0.3504 0.0
H1282 H 0.76771 0.66427 0.44384 0.0
C1283 C 0.71282 0.64352 0.3477 0.0
C1284 C 0.76182 0.6386 0.32336 0.0
C1285 C 0.69583 0.64162 0.32547 0.0
C1286 C 0.83251 0.6471 0.41228 0.0
C1287 C 0.81563 0.64809 0.38903 0.0
C1288 C 0.7663 0.65686 0.41048 0.0
C1289 C 0.72855 0.64672 0.32038 0.0
C1290 C 0.74681 0.64752 0.34388 0.0
C1291 C 0.79932 0.64738 0.41528 0.0
C1292 C 0.78128 0.64773 0.39029 0.0
H1293 H 0.70892 0.64773 0.20947 0.0
H1294 H 0.73854 0.65117 0.24825 0.0
H1295 H 0.73809 0.66392 0.40417 0.0
H1296 H 0.81762 0.64362 0.52742 0.0
H1297 H 0.78823 0.64509 0.48705 0.0
C1298 C 0.63781 0.24271 0.4412 0.0
C1299 C 0.64087 0.2239 0.4487 0.0
C1300 C 0.63904 0.25519 0.4792 0.0
C1301 C 0.65814 0.26038 0.60254 0.0
H1302 H 0.6247 0.30123 0.60986 0.0
C1303 C 0.65443 0.30678 0.77022 0.0
C1304 C 0.65256 0.32576 0.76306 0.0
C1305 C 0.65269 0.29453 0.73192 0.0
C1306 C 0.63428 0.29001 0.60815 0.0
H1307 H 0.64783 0.20373 0.50295 0.0
H1308 H 0.64951 0.22528 0.56892 0.0
H1309 H 0.62231 0.27968 0.54351 0.0
H1310 H 0.64728 0.34652 0.7091 0.0
H1311 H 0.64414 0.32519 0.6426 0.0
H1312 H 0.67005 0.27066 0.66728 0.0
C1313 C 0.64638 0.23046 0.53346 0.0
C1314 C 0.63293 0.27762 0.56996 0.0
C1315 C 0.64517 0.21799 0.49548 0.0
C1316 C 0.6486 0.33206 0.71641 0.0
C1317 C 0.6468 0.31978 0.67809 0.0
C1318 C 0.65946 0.27273 0.64076 0.0
C1319 C 0.64337 0.24927 0.52593 0.0
C1320 C 0.64483 0.26259 0.56658 0.0
C1321 C 0.64896 0.30084 0.68522 0.0
C1322 C 0.64753 0.28771 0.6442 0.0
H1323 H 0.63431 0.24785 0.40599 0.0
H1324 H 0.63683 0.26955 0.4717 0.0
H1325 H 0.6678 0.24923 0.60087 0.0
H1326 H 0.65714 0.30129 0.80556 0.0
H1327 H 0.6541 0.28004 0.73908 0.0
loop_
_geom_bond_atom_site_label_1
_geom_bond_atom_site_label_2
_geom_bond_distance
_geom_bond_site_symmetry_2
_ccdc_geom_bond_type
Cu0 N1 1.999 . S
Cu0 O6 1.974 . S
Cu0 N11 1.985 . S
Cu0 O20 1.959 . S
N1 Cu0 1.999 . S
N1 C3 1.263 . S
N1 C5 1.389 . S
N2 C3 1.358 . S
N2 C4 1.400 . S
C3 N1 1.263 . S
C3 N2 1.358 . S
C3 H9 0.930 . S
C4 N2 1.400 . S
C4 C5 1.351 . S
C4 H21 0.930 . S
C5 N1 1.389 . S
C5 C4 1.351 . S
C5 H10 0.930 . S
O6 Cu0 1.974 . S
O6 C16 1.282 . S
C7 O8 1.261 . S
C7 O20 1.251 . S
O8 C7 1.261 . S
H9 C3 0.930 . S
H10 C5 0.930 . S
N11 Cu0 1.985 . S
N11 C13 1.335 . S
N11 C14 1.390 . S
N12 C13 1.345 . S
N12 C15 1.336 . S
C13 N11 1.335 . S
C13 N12 1.345 . S
C13 H18 0.930 . S
C14 N11 1.390 . S
C14 C15 1.346 . S
C14 H19 0.930 . S
C15 N12 1.336 . S
C15 C14 1.346 . S
C15 H22 0.929 . S
C16 O6 1.282 . S
C16 O17 1.216 . S
O17 C16 1.216 . S
H18 C13 0.930 . S
H19 C14 0.930 . S
O20 Cu0 1.959 . S
O20 C7 1.251 . S
H21 C4 0.930 . S
H22 C15 0.929 . S
Cu23 N24 1.999 . S
Cu23 O29 1.974 . S
Cu23 N34 1.985 . S
Cu23 O43 1.959 . S
N24 Cu23 1.999 . S
N24 C26 1.263 . S
N24 C28 1.389 . S
N25 C26 1.358 . S
N25 C27 1.400 . S
C26 N24 1.263 . S
C26 N25 1.358 . S
C26 H32 0.930 . S
C27 N25 1.400 . S
C27 C28 1.351 . S
C27 H44 0.930 . S
C28 N24 1.389 . S
C28 C27 1.351 . S
C28 H33 0.930 . S
O29 Cu23 1.974 . S
O29 C39 1.282 . S
C30 O31 1.261 . S
C30 O43 1.251 . S
O31 C30 1.261 . S
H32 C26 0.930 . S
H33 C28 0.930 . S
N34 Cu23 1.985 . S
N34 C36 1.335 . S
N34 C37 1.390 . S
N35 C36 1.345 . S
N35 C38 1.336 . S
C36 N34 1.335 . S
C36 N35 1.345 . S
C36 H41 0.930 . S
C37 N34 1.390 . S
C37 C38 1.346 . S
C37 H42 0.930 . S
C38 N35 1.336 . S
C38 C37 1.346 . S
C38 H45 0.929 . S
C39 O29 1.282 . S
C39 O40 1.216 . S
O40 C39 1.216 . S
H41 C36 0.930 . S
H42 C37 0.930 . S
O43 Cu23 1.959 . S
O43 C30 1.251 . S
H44 C27 0.930 . S
H45 C38 0.929 . S
Cu46 N47 1.999 . S
Cu46 O52 1.974 . S
Cu46 N57 1.985 . S
Cu46 O66 1.959 . S
N47 Cu46 1.999 . S
N47 C49 1.263 . S
N47 C51 1.389 . S
N48 C49 1.358 . S
N48 C50 1.400 . S
C49 N47 1.263 . S
C49 N48 1.358 . S
C49 H55 0.930 . S
C50 N48 1.400 . S
C50 C51 1.351 . S
C50 H67 0.930 . S
C51 N47 1.389 . S
C51 C50 1.351 . S
C51 H56 0.930 . S
O52 Cu46 1.974 . S
O52 C62 1.282 . S
C53 O54 1.261 . S
C53 O66 1.251 . S
O54 C53 1.261 . S
H55 C49 0.930 . S
H56 C51 0.930 . S
N57 Cu46 1.985 . S
N57 C59 1.335 . S
N57 C60 1.390 . S
N58 C59 1.345 . S
N58 C61 1.336 . S
C59 N57 1.335 . S
C59 N58 1.345 . S
C59 H64 0.930 . S
C60 N57 1.390 . S
C60 C61 1.346 . S
C60 H65 0.930 . S
C61 N58 1.336 . S
C61 C60 1.346 . S
C61 H68 0.929 . S
C62 O52 1.282 . S
C62 O63 1.216 . S
O63 C62 1.216 . S
H64 C59 0.930 . S
H65 C60 0.930 . S
O66 Cu46 1.959 . S
O66 C53 1.251 . S
H67 C50 0.930 . S
H68 C61 0.929 . S
Cu69 N70 1.999 . S
Cu69 O75 1.974 . S
Cu69 N80 1.985 . S
Cu69 O89 1.959 . S
N70 Cu69 1.999 . S
N70 C72 1.263 . S
N70 C74 1.389 . S
N71 C72 1.358 . S
N71 C73 1.400 . S
C72 N70 1.263 . S
C72 N71 1.358 . S
C72 H78 0.930 . S
C73 N71 1.400 . S
C73 C74 1.351 . S
C73 H90 0.930 . S
C74 N70 1.389 . S
C74 C73 1.351 . S
C74 H79 0.930 . S
O75 Cu69 1.974 . S
O75 C85 1.282 . S
C76 O77 1.261 . S
C76 O89 1.251 . S
O77 C76 1.261 . S
H78 C72 0.930 . S
H79 C74 0.930 . S
N80 Cu69 1.985 . S
N80 C82 1.335 . S
N80 C83 1.390 . S
N81 C82 1.345 . S
N81 C84 1.336 . S
C82 N80 1.335 . S
C82 N81 1.345 . S
C82 H87 0.930 . S
C83 N80 1.390 . S
C83 C84 1.346 . S
C83 H88 0.930 . S
C84 N81 1.336 . S
C84 C83 1.346 . S
C84 H91 0.929 . S
C85 O75 1.282 . S
C85 O86 1.216 . S
O86 C85 1.216 . S
H87 C82 0.930 . S
H88 C83 0.930 . S
O89 Cu69 1.959 . S
O89 C76 1.251 . S
H90 C73 0.930 . S
H91 C84 0.929 . S
Cu92 N93 1.999 . S
Cu92 O98 1.974 . S
Cu92 N103 1.985 . S
Cu92 O112 1.959 . S
N93 Cu92 1.999 . S
N93 C95 1.263 . S
N93 C97 1.389 . S
N94 C95 1.358 . S
N94 C96 1.400 . S
C95 N93 1.263 . S
C95 N94 1.358 . S
C95 H101 0.930 . S
C96 N94 1.400 . S
C96 C97 1.351 . S
C96 H113 0.930 . S
C97 N93 1.389 . S
C97 C96 1.351 . S
C97 H102 0.930 . S
O98 Cu92 1.974 . S
O98 C108 1.282 . S
C99 O100 1.261 . S
C99 O112 1.251 . S
O100 C99 1.261 . S
H101 C95 0.930 . S
H102 C97 0.930 . S
N103 Cu92 1.985 . S
N103 C105 1.335 . S
N103 C106 1.390 . S
N104 C105 1.345 . S
N104 C107 1.336 . S
C105 N103 1.335 . S
C105 N104 1.345 . S
C105 H110 0.930 . S
C106 N103 1.390 . S
C106 C107 1.346 . S
C106 H111 0.930 . S
C107 N104 1.336 . S
C107 C106 1.346 . S
C107 H114 0.929 . S
C108 O98 1.282 . S
C108 O109 1.216 . S
O109 C108 1.216 . S
H110 C105 0.930 . S
H111 C106 0.930 . S
O112 Cu92 1.959 . S
O112 C99 1.251 . S
H113 C96 0.930 . S
H114 C107 0.929 . S
Cu115 N116 1.999 . S
Cu115 O121 1.974 . S
Cu115 N126 1.985 . S
Cu115 O135 1.959 . S
N116 Cu115 1.999 . S
N116 C118 1.263 . S
N116 C120 1.389 . S
N117 C118 1.358 . S
N117 C119 1.400 . S
C118 N116 1.263 . S
C118 N117 1.358 . S
C118 H124 0.930 . S
C119 N117 1.400 . S
C119 C120 1.351 . S
C119 H136 0.930 . S
C120 N116 1.389 . S
C120 C119 1.351 . S
C120 H125 0.930 . S
O121 Cu115 1.974 . S
O121 C131 1.282 . S
C122 O123 1.261 . S
C122 O135 1.251 . S
O123 C122 1.261 . S
H124 C118 0.930 . S
H125 C120 0.930 . S
N126 Cu115 1.985 . S
N126 C128 1.335 . S
N126 C129 1.390 . S
N127 C128 1.345 . S
N127 C130 1.336 . S
C128 N126 1.335 . S
C128 N127 1.345 . S
C128 H133 0.930 . S
C129 N126 1.390 . S
C129 C130 1.346 . S
C129 H134 0.930 . S
C130 N127 1.336 . S
C130 C129 1.346 . S
C130 H137 0.929 . S
C131 O121 1.282 . S
C131 O132 1.216 . S
O132 C131 1.216 . S
H133 C128 0.930 . S
H134 C129 0.930 . S
O135 Cu115 1.959 . S
O135 C122 1.251 . S
H136 C119 0.930 . S
H137 C130 0.929 . S
Cu138 N139 1.999 . S
Cu138 O144 1.974 . S
Cu138 N149 1.985 . S
Cu138 O158 1.959 . S
N139 Cu138 1.999 . S
N139 C141 1.263 . S
N139 C143 1.389 . S
N140 C141 1.358 . S
N140 C142 1.400 . S
C141 N139 1.263 . S
C141 N140 1.358 . S
C141 H147 0.930 . S
C142 N140 1.400 . S
C142 C143 1.351 . S
C142 H159 0.930 . S
C143 N139 1.389 . S
C143 C142 1.351 . S
C143 H148 0.930 . S
O144 Cu138 1.974 . S
O144 C154 1.282 . S
C145 O146 1.261 . S
C145 O158 1.251 . S
O146 C145 1.261 . S
H147 C141 0.930 . S
H148 C143 0.930 . S
N149 Cu138 1.985 . S
N149 C151 1.335 . S
N149 C152 1.390 . S
N150 C151 1.345 . S
N150 C153 1.336 . S
C151 N149 1.335 . S
C151 N150 1.345 . S
C151 H156 0.930 . S
C152 N149 1.390 . S
C152 C153 1.346 . S
C152 H157 0.930 . S
C153 N150 1.336 . S
C153 C152 1.346 . S
C153 H160 0.929 . S
C154 O144 1.282 . S
C154 O155 1.216 . S
O155 C154 1.216 . S
H156 C151 0.930 . S
H157 C152 0.930 . S
O158 Cu138 1.959 . S
O158 C145 1.251 . S
H159 C142 0.930 . S
H160 C153 0.929 . S
Cu161 N162 1.999 . S
Cu161 O167 1.974 . S
Cu161 N172 1.985 . S
Cu161 O181 1.959 . S
N162 Cu161 1.999 . S
N162 C164 1.263 . S
N162 C166 1.389 . S
N163 C164 1.358 . S
N163 C165 1.400 . S
C164 N162 1.263 . S
C164 N163 1.358 . S
C164 H170 0.930 . S
C165 N163 1.400 . S
C165 C166 1.351 . S
C165 H182 0.930 . S
C166 N162 1.389 . S
C166 C165 1.351 . S
C166 H171 0.930 . S
O167 Cu161 1.974 . S
O167 C177 1.282 . S
C168 O169 1.261 . S
C168 O181 1.251 . S
O169 C168 1.261 . S
H170 C164 0.930 . S
H171 C166 0.930 . S
N172 Cu161 1.985 . S
N172 C174 1.335 . S
N172 C175 1.390 . S
N173 C174 1.345 . S
N173 C176 1.336 . S
C174 N172 1.335 . S
C174 N173 1.345 . S
C174 H179 0.930 . S
C175 N172 1.390 . S
C175 C176 1.346 . S
C175 H180 0.930 . S
C176 N173 1.336 . S
C176 C175 1.346 . S
C176 H183 0.929 . S
C177 O167 1.282 . S
C177 O178 1.216 . S
O178 C177 1.216 . S
H179 C174 0.930 . S
H180 C175 0.930 . S
O181 Cu161 1.959 . S
O181 C168 1.251 . S
H182 C165 0.930 . S
H183 C176 0.929 . S
Cu184 N185 1.999 . S
Cu184 O190 1.974 . S
Cu184 N195 1.985 . S
Cu184 O204 1.959 . S
N185 Cu184 1.999 . S
N185 C187 1.263 . S
N185 C189 1.389 . S
N186 C187 1.358 . S
N186 C188 1.400 . S
C187 N185 1.263 . S
C187 N186 1.358 . S
C187 H193 0.930 . S
C188 N186 1.400 . S
C188 C189 1.351 . S
C188 H205 0.930 . S
C189 N185 1.389 . S
C189 C188 1.351 . S
C189 H194 0.930 . S
O190 Cu184 1.974 . S
O190 C200 1.282 . S
C191 O192 1.261 . S
C191 O204 1.251 . S
O192 C191 1.261 . S
H193 C187 0.930 . S
H194 C189 0.930 . S
N195 Cu184 1.985 . S
N195 C197 1.335 . S
N195 C198 1.390 . S
N196 C197 1.345 . S
N196 C199 1.336 . S
C197 N195 1.335 . S
C197 N196 1.345 . S
C197 H202 0.930 . S
C198 N195 1.390 . S
C198 C199 1.346 . S
C198 H203 0.930 . S
C199 N196 1.336 . S
C199 C198 1.346 . S
C199 H206 0.929 . S
C200 O190 1.282 . S
C200 O201 1.216 . S
O201 C200 1.216 . S
H202 C197 0.930 . S
H203 C198 0.930 . S
O204 Cu184 1.959 . S
O204 C191 1.251 . S
H205 C188 0.930 . S
H206 C199 0.929 . S
Cu207 N208 1.999 . S
Cu207 O213 1.974 . S
Cu207 N218 1.985 . S
Cu207 O227 1.959 . S
N208 Cu207 1.999 . S
N208 C210 1.263 . S
N208 C212 1.389 . S
N209 C210 1.358 . S
N209 C211 1.400 . S
C210 N208 1.263 . S
C210 N209 1.358 . S
C210 H216 0.930 . S
C211 N209 1.400 . S
C211 C212 1.351 . S
C211 H228 0.930 . S
C212 N208 1.389 . S
C212 C211 1.351 . S
C212 H217 0.930 . S
O213 Cu207 1.974 . S
O213 C223 1.282 . S
C214 O215 1.261 . S
C214 O227 1.251 . S
O215 C214 1.261 . S
H216 C210 0.930 . S
H217 C212 0.930 . S
N218 Cu207 1.985 . S
N218 C220 1.335 . S
N218 C221 1.390 . S
N219 C220 1.345 . S
N219 C222 1.336 . S
C220 N218 1.335 . S
C220 N219 1.345 . S
C220 H225 0.930 . S
C221 N218 1.390 . S
C221 C222 1.346 . S
C221 H226 0.930 . S
C222 N219 1.336 . S
C222 C221 1.346 . S
C222 H229 0.929 . S
C223 O213 1.282 . S
C223 O224 1.216 . S
O224 C223 1.216 . S
H225 C220 0.930 . S
H226 C221 0.930 . S
O227 Cu207 1.959 . S
O227 C214 1.251 . S
H228 C211 0.930 . S
H229 C222 0.929 . S
Cu230 N231 1.999 . S
Cu230 O236 1.974 . S
Cu230 N241 1.985 . S
Cu230 O250 1.959 . S
N231 Cu230 1.999 . S
N231 C233 1.263 . S
N231 C235 1.389 . S
N232 C233 1.358 . S
N232 C234 1.400 . S
C233 N231 1.263 . S
C233 N232 1.358 . S
C233 H239 0.930 . S
C234 N232 1.400 . S
C234 C235 1.351 . S
C234 H251 0.930 . S
C235 N231 1.389 . S
C235 C234 1.351 . S
C235 H240 0.930 . S
O236 Cu230 1.974 . S
O236 C246 1.282 . S
C237 O238 1.261 . S
C237 O250 1.251 . S
O238 C237 1.261 . S
H239 C233 0.930 . S
H240 C235 0.930 . S
N241 Cu230 1.985 . S
N241 C243 1.335 . S
N241 C244 1.390 . S
N242 C243 1.345 . S
N242 C245 1.336 . S
C243 N241 1.335 . S
C243 N242 1.345 . S
C243 H248 0.930 . S
C244 N241 1.390 . S
C244 C245 1.346 . S
C244 H249 0.930 . S
C245 N242 1.336 . S
C245 C244 1.346 . S
C245 H252 0.929 . S
C246 O236 1.282 . S
C246 O247 1.216 . S
O247 C246 1.216 . S
H248 C243 0.930 . S
H249 C244 0.930 . S
O250 Cu230 1.959 . S
O250 C237 1.251 . S
H251 C234 0.930 . S
H252 C245 0.929 . S
Cu253 N254 1.999 . S
Cu253 O259 1.974 . S
Cu253 N264 1.985 . S
Cu253 O273 1.959 . S
N254 Cu253 1.999 . S
N254 C256 1.263 . S
N254 C258 1.389 . S
N255 C256 1.358 . S
N255 C257 1.400 . S
C256 N254 1.263 . S
C256 N255 1.358 . S
C256 H262 0.930 . S
C257 N255 1.400 . S
C257 C258 1.351 . S
C257 H274 0.930 . S
C258 N254 1.389 . S
C258 C257 1.351 . S
C258 H263 0.930 . S
O259 Cu253 1.974 . S
O259 C269 1.282 . S
C260 O261 1.261 . S
C260 O273 1.251 . S
O261 C260 1.261 . S
H262 C256 0.930 . S
H263 C258 0.930 . S
N264 Cu253 1.985 . S
N264 C266 1.335 . S
N264 C267 1.390 . S
N265 C266 1.345 . S
N265 C268 1.336 . S
C266 N264 1.335 . S
C266 N265 1.345 . S
C266 H271 0.930 . S
C267 N264 1.390 . S
C267 C268 1.346 . S
C267 H272 0.930 . S
C268 N265 1.336 . S
C268 C267 1.346 . S
C268 H275 0.929 . S
C269 O259 1.282 . S
C269 O270 1.216 . S
O270 C269 1.216 . S
H271 C266 0.930 . S
H272 C267 0.930 . S
O273 Cu253 1.959 . S
O273 C260 1.251 . S
H274 C257 0.930 . S
H275 C268 0.929 . S
Cu276 N277 1.999 . S
Cu276 O282 1.974 . S
Cu276 N287 1.985 . S
Cu276 O296 1.959 . S
N277 Cu276 1.999 . S
N277 C279 1.263 . S
N277 C281 1.389 . S
N278 C279 1.358 . S
N278 C280 1.400 . S
C279 N277 1.263 . S
C279 N278 1.358 . S
C279 H285 0.930 . S
C280 N278 1.400 . S
C280 C281 1.351 . S
C280 H297 0.930 . S
C281 N277 1.389 . S
C281 C280 1.351 . S
C281 H286 0.930 . S
O282 Cu276 1.974 . S
O282 C292 1.282 . S
C283 O284 1.261 . S
C283 O296 1.251 . S
O284 C283 1.261 . S
H285 C279 0.930 . S
H286 C281 0.930 . S
N287 Cu276 1.985 . S
N287 C289 1.335 . S
N287 C290 1.390 . S
N288 C289 1.345 . S
N288 C291 1.336 . S
C289 N287 1.335 . S
C289 N288 1.345 . S
C289 H294 0.930 . S
C290 N287 1.390 . S
C290 C291 1.346 . S
C290 H295 0.930 . S
C291 N288 1.336 . S
C291 C290 1.346 . S
C291 H298 0.929 . S
C292 O282 1.282 . S
C292 O293 1.216 . S
O293 C292 1.216 . S
H294 C289 0.930 . S
H295 C290 0.930 . S
O296 Cu276 1.959 . S
O296 C283 1.251 . S
H297 C280 0.930 . S
H298 C291 0.929 . S
Cu299 N300 1.999 . S
Cu299 O305 1.974 . S
Cu299 N310 1.985 . S
Cu299 O319 1.959 . S
N300 Cu299 1.999 . S
N300 C302 1.263 . S
N300 C304 1.389 . S
N301 C302 1.358 . S
N301 C303 1.400 . S
C302 N300 1.263 . S
C302 N301 1.358 . S
C302 H308 0.930 . S
C303 N301 1.400 . S
C303 C304 1.351 . S
C303 H320 0.930 . S
C304 N300 1.389 . S
C304 C303 1.351 . S
C304 H309 0.930 . S
O305 Cu299 1.974 . S
O305 C315 1.282 . S
C306 O307 1.261 . S
C306 O319 1.251 . S
O307 C306 1.261 . S
H308 C302 0.930 . S
H309 C304 0.930 . S
N310 Cu299 1.985 . S
N310 C312 1.335 . S
N310 C313 1.390 . S
N311 C312 1.345 . S
N311 C314 1.336 . S
C312 N310 1.335 . S
C312 N311 1.345 . S
C312 H317 0.930 . S
C313 N310 1.390 . S
C313 C314 1.346 . S
C313 H318 0.930 . S
C314 N311 1.336 . S
C314 C313 1.346 . S
C314 H321 0.929 . S
C315 O305 1.282 . S
C315 O316 1.216 . S
O316 C315 1.216 . S
H317 C312 0.930 . S
H318 C313 0.930 . S
O319 Cu299 1.959 . S
O319 C306 1.251 . S
H320 C303 0.930 . S
H321 C314 0.929 . S
Cu322 N323 1.999 . S
Cu322 O328 1.974 . S
Cu322 N333 1.985 . S
Cu322 O342 1.959 . S
N323 Cu322 1.999 . S
N323 C325 1.263 . S
N323 C327 1.389 . S
N324 C325 1.358 . S
N324 C326 1.400 . S
C325 N323 1.263 . S
C325 N324 1.358 . S
C325 H331 0.930 . S
C326 N324 1.400 . S
C326 C327 1.351 . S
C326 H343 0.930 . S
C327 N323 1.389 . S
C327 C326 1.351 . S
C327 H332 0.930 . S
O328 Cu322 1.974 . S
O328 C338 1.282 . S
C329 O330 1.261 . S
C329 O342 1.251 . S
O330 C329 1.261 . S
H331 C325 0.930 . S
H332 C327 0.930 . S
N333 Cu322 1.985 . S
N333 C335 1.335 . S
N333 C336 1.390 . S
N334 C335 1.345 . S
N334 C337 1.336 . S
C335 N333 1.335 . S
C335 N334 1.345 . S
C335 H340 0.930 . S
C336 N333 1.390 . S
C336 C337 1.346 . S
C336 H341 0.930 . S
C337 N334 1.336 . S
C337 C336 1.346 . S
C337 H344 0.929 . S
C338 O328 1.282 . S
C338 O339 1.216 . S
O339 C338 1.216 . S
H340 C335 0.930 . S
H341 C336 0.930 . S
O342 Cu322 1.959 . S
O342 C329 1.251 . S
H343 C326 0.930 . S
H344 C337 0.929 . S
Cu345 N346 1.999 . S
Cu345 O351 1.974 . S
Cu345 N356 1.985 . S
Cu345 O365 1.959 . S
N346 Cu345 1.999 . S
N346 C348 1.263 . S
N346 C350 1.389 . S
N347 C348 1.358 . S
N347 C349 1.400 . S
C348 N346 1.263 . S
C348 N347 1.358 . S
C348 H354 0.930 . S
C349 N347 1.400 . S
C349 C350 1.351 . S
C349 H366 0.930 . S
C350 N346 1.389 . S
C350 C349 1.351 . S
C350 H355 0.930 . S
O351 Cu345 1.974 . S
O351 C361 1.282 . S
C352 O353 1.261 . S
C352 O365 1.251 . S
O353 C352 1.261 . S
H354 C348 0.930 . S
H355 C350 0.930 . S
N356 Cu345 1.985 . S
N356 C358 1.335 . S
N356 C359 1.390 . S
N357 C358 1.345 . S
N357 C360 1.336 . S
C358 N356 1.335 . S
C358 N357 1.345 . S
C358 H363 0.930 . S
C359 N356 1.390 . S
C359 C360 1.346 . S
C359 H364 0.930 . S
C360 N357 1.336 . S
C360 C359 1.346 . S
C360 H367 0.929 . S
C361 O351 1.282 . S
C361 O362 1.216 . S
O362 C361 1.216 . S
H363 C358 0.930 . S
H364 C359 0.930 . S
O365 Cu345 1.959 . S
O365 C352 1.251 . S
H366 C349 0.930 . S
H367 C360 0.929 . S
C368 C369 1.349 . S
C368 C370 1.327 . S
C368 H393 0.950 . S
C369 C368 1.349 . S
C369 C385 1.349 . S
C370 C368 1.327 . S
C370 C389 1.429 . S
C370 H394 0.950 . S
C371 C388 1.574 1_565 S
C371 C390 1.368 . S
C371 H395 0.949 . S
H372 C376 0.949 . S
C373 C374 1.349 . S
C373 C375 1.327 . S
C373 H396 0.950 . S
C374 C373 1.349 . S
C374 C386 1.349 . S
C375 C373 1.327 . S
C375 C391 1.429 . S
C375 H397 0.950 . S
C376 H372 0.949 . S
C376 C384 1.574 1_545 S
C376 C392 1.368 . S
H377 C385 0.950 . S
H378 C383 0.950 . S
H379 C384 0.949 . S
H380 C386 0.950 . S
H381 C387 0.950 . S
H382 C388 0.949 . S
C383 H378 0.950 . S
C383 C385 1.327 . S
C383 C389 1.429 . S
C384 C376 1.574 1_565 S
C384 H379 0.949 . S
C384 C390 1.368 . S
C385 C369 1.349 . S
C385 H377 0.950 . S
C385 C383 1.327 . S
C386 C374 1.349 . S
C386 H380 0.950 . S
C386 C387 1.327 . S
C387 H381 0.950 . S
C387 C386 1.327 . S
C387 C391 1.429 . S
C388 C371 1.574 1_545 S
C388 H382 0.949 . S
C388 C392 1.368 . S
C389 C370 1.429 . S
C389 C383 1.429 . S
C389 C390 1.523 . S
C390 C371 1.368 . S
C390 C384 1.368 . S
C390 C389 1.523 . S
C391 C375 1.429 . S
C391 C387 1.429 . S
C391 C392 1.523 . S
C392 C376 1.368 . S
C392 C388 1.368 . S
C392 C391 1.523 . S
H393 C368 0.950 . S
H394 C370 0.950 . S
H395 C371 0.949 . S
H396 C373 0.950 . S
H397 C375 0.950 . S
C398 C399 1.349 . S
C398 C400 1.327 . S
C398 H423 0.950 . S
C399 C398 1.349 . S
C399 C415 1.349 . S
C400 C398 1.327 . S
C400 C419 1.429 . S
C400 H424 0.950 . S
C401 C418 1.574 1_455 S
C401 C420 1.368 . S
C401 H425 0.949 . S
H402 C406 0.949 . S
C403 C404 1.349 . S
C403 C405 1.327 . S
C403 H426 0.950 . S
C404 C403 1.349 . S
C404 C416 1.349 . S
C405 C403 1.327 . S
C405 C421 1.429 . S
C405 H427 0.950 . S
C406 H402 0.949 . S
C406 C414 1.574 1_655 S
C406 C422 1.368 . S
H407 C415 0.950 . S
H408 C413 0.950 . S
H409 C414 0.949 . S
H410 C416 0.950 . S
H411 C417 0.950 . S
H412 C418 0.949 . S
C413 H408 0.950 . S
C413 C415 1.327 . S
C413 C419 1.429 . S
C414 C406 1.574 1_455 S
C414 H409 0.949 . S
C414 C420 1.368 . S
C415 C399 1.349 . S
C415 H407 0.950 . S
C415 C413 1.327 . S
C416 C404 1.349 . S
C416 H410 0.950 . S
C416 C417 1.327 . S
C417 H411 0.950 . S
C417 C416 1.327 . S
C417 C421 1.429 . S
C418 C401 1.574 1_655 S
C418 H412 0.949 . S
C418 C422 1.368 . S
C419 C400 1.429 . S
C419 C413 1.429 . S
C419 C420 1.523 . S
C420 C401 1.368 . S
C420 C414 1.368 . S
C420 C419 1.523 . S
C421 C405 1.429 . S
C421 C417 1.429 . S
C421 C422 1.523 . S
C422 C406 1.368 . S
C422 C418 1.368 . S
C422 C421 1.523 . S
H423 C398 0.950 . S
H424 C400 0.950 . S
H425 C401 0.949 . S
H426 C403 0.950 . S
H427 C405 0.950 . S
C428 C429 1.349 . S
C428 C430 1.327 . S
C428 H453 0.950 . S
C429 C428 1.349 . S
C429 C445 1.349 . S
C430 C428 1.327 . S
C430 C449 1.429 . S
C430 H454 0.950 . S
C431 C448 1.574 1_565 S
C431 C450 1.368 . S
C431 H455 0.949 . S
H432 C436 0.949 . S
C433 C434 1.349 . S
C433 C435 1.327 . S
C433 H456 0.950 . S
C434 C433 1.349 . S
C434 C446 1.349 . S
C435 C433 1.327 . S
C435 C451 1.429 . S
C435 H457 0.950 . S
C436 H432 0.949 . S
C436 C444 1.574 1_545 S
C436 C452 1.368 . S
H437 C445 0.950 . S
H438 C443 0.950 . S
H439 C444 0.949 . S
H440 C446 0.950 . S
H441 C447 0.950 . S
H442 C448 0.949 . S
C443 H438 0.950 . S
C443 C445 1.327 . S
C443 C449 1.429 . S
C444 C436 1.574 1_565 S
C444 H439 0.949 . S
C444 C450 1.368 . S
C445 C429 1.349 . S
C445 H437 0.950 . S
C445 C443 1.327 . S
C446 C434 1.349 . S
C446 H440 0.950 . S
C446 C447 1.327 . S
C447 H441 0.950 . S
C447 C446 1.327 . S
C447 C451 1.429 . S
C448 C431 1.574 1_545 S
C448 H442 0.949 . S
C448 C452 1.368 . S
C449 C430 1.429 . S
C449 C443 1.429 . S
C449 C450 1.523 . S
C450 C431 1.368 . S
C450 C444 1.368 . S
C450 C449 1.523 . S
C451 C435 1.429 . S
C451 C447 1.429 . S
C451 C452 1.523 . S
C452 C436 1.368 . S
C452 C448 1.368 . S
C452 C451 1.523 . S
H453 C428 0.950 . S
H454 C430 0.950 . S
H455 C431 0.949 . S
H456 C433 0.950 . S
H457 C435 0.950 . S
C458 C459 1.349 . S
C458 C460 1.327 . S
C458 H483 0.950 . S
C459 C458 1.349 . S
C459 C475 1.349 . S
C460 C458 1.327 . S
C460 C479 1.429 . S
C460 H484 0.950 . S
C461 C478 1.574 1_455 S
C461 C480 1.368 . S
C461 H485 0.949 . S
H462 C466 0.949 . S
C463 C464 1.349 . S
C463 C465 1.327 . S
C463 H486 0.950 . S
C464 C463 1.349 . S
C464 C476 1.349 . S
C465 C463 1.327 . S
C465 C481 1.429 . S
C465 H487 0.950 . S
C466 H462 0.949 . S
C466 C474 1.574 1_655 S
C466 C482 1.368 . S
H467 C475 0.950 . S
H468 C473 0.950 . S
H469 C474 0.949 . S
H470 C476 0.950 . S
H471 C477 0.950 . S
H472 C478 0.949 . S
C473 H468 0.950 . S
C473 C475 1.327 . S
C473 C479 1.429 . S
C474 C466 1.574 1_455 S
C474 H469 0.949 . S
C474 C480 1.368 . S
C475 C459 1.349 . S
C475 H467 0.950 . S
C475 C473 1.327 . S
C476 C464 1.349 . S
C476 H470 0.950 . S
C476 C477 1.327 . S
C477 H471 0.950 . S
C477 C476 1.327 . S
C477 C481 1.429 . S
C478 C461 1.574 1_655 S
C478 H472 0.949 . S
C478 C482 1.368 . S
C479 C460 1.429 . S
C479 C473 1.429 . S
C479 C480 1.523 . S
C480 C461 1.368 . S
C480 C474 1.368 . S
C480 C479 1.523 . S
C481 C465 1.429 . S
C481 C477 1.429 . S
C481 C482 1.523 . S
C482 C466 1.368 . S
C482 C478 1.368 . S
C482 C481 1.523 . S
H483 C458 0.950 . S
H484 C460 0.950 . S
H485 C461 0.949 . S
H486 C463 0.950 . S
H487 C465 0.950 . S
C488 C489 1.349 . S
C488 C490 1.327 . S
C488 H513 0.950 . S
C489 C488 1.349 . S
C489 C505 1.349 . S
C490 C488 1.327 . S
C490 C509 1.429 . S
C490 H514 0.950 . S
C491 C508 1.574 . S
C491 C510 1.368 1_556 S
C491 H515 0.949 . S
H492 C496 0.949 . S
C493 C494 1.349 . S
C493 C495 1.327 . S
C493 H516 0.950 . S
C494 C493 1.349 . S
C494 C506 1.349 1_556 S
C495 C493 1.327 . S
C495 C511 1.429 . S
C495 H517 0.950 . S
C496 H492 0.949 . S
C496 C504 1.574 . S
C496 C512 1.368 . S
H497 C505 0.950 . S
H498 C503 0.950 1_556 S
H499 C504 0.949 . S
H500 C506 0.950 . S
H501 C507 0.950 . S
H502 C508 0.949 . S
C503 H498 0.950 1_554 S
C503 C505 1.327 . S
C503 C509 1.429 . S
C504 C496 1.574 . S
C504 H499 0.949 . S
C504 C510 1.368 . S
C505 C489 1.349 . S
C505 H497 0.950 . S
C505 C503 1.327 . S
C506 C494 1.349 1_554 S
C506 H500 0.950 . S
C506 C507 1.327 . S
C507 H501 0.950 . S
C507 C506 1.327 . S
C507 C511 1.429 1_554 S
C508 C491 1.574 . S
C508 H502 0.949 . S
C508 C512 1.368 1_556 S
C509 C490 1.429 . S
C509 C503 1.429 . S
C509 C510 1.523 . S
C510 C491 1.368 1_554 S
C510 C504 1.368 . S
C510 C509 1.523 . S
C511 C495 1.429 . S
C511 C507 1.429 1_556 S
C511 C512 1.523 1_556 S
C512 C496 1.368 . S
C512 C508 1.368 1_554 S
C512 C511 1.523 1_554 S
H513 C488 0.950 . S
H514 C490 0.950 . S
H515 C491 0.949 . S
H516 C493 0.950 . S
H517 C495 0.950 . S
C518 C519 1.349 . S
C518 C520 1.327 . S
C518 H543 0.950 . S
C519 C518 1.349 . S
C519 C535 1.349 . S
C520 C518 1.327 . S
C520 C539 1.429 . S
C520 H544 0.950 . S
C521 C538 1.574 . S
C521 C540 1.368 1_554 S
C521 H545 0.949 . S
H522 C526 0.949 . S
C523 C524 1.349 . S
C523 C525 1.327 . S
C523 H546 0.950 . S
C524 C523 1.349 . S
C524 C536 1.349 1_554 S
C525 C523 1.327 . S
C525 C541 1.429 . S
C525 H547 0.950 . S
C526 H522 0.949 . S
C526 C534 1.574 . S
C526 C542 1.368 . S
H527 C535 0.950 . S
H528 C533 0.950 1_554 S
H529 C534 0.949 . S
H530 C536 0.950 . S
H531 C537 0.950 . S
H532 C538 0.949 . S
C533 H528 0.950 1_556 S
C533 C535 1.327 . S
C533 C539 1.429 . S
C534 C526 1.574 . S
C534 H529 0.949 . S
C534 C540 1.368 . S
C535 C519 1.349 . S
C535 H527 0.950 . S
C535 C533 1.327 . S
C536 C524 1.349 1_556 S
C536 H530 0.950 . S
C536 C537 1.327 . S
C537 H531 0.950 . S
C537 C536 1.327 . S
C537 C541 1.429 1_556 S
C538 C521 1.574 . S
C538 H532 0.949 . S
C538 C542 1.368 1_554 S
C539 C520 1.429 . S
C539 C533 1.429 . S
C539 C540 1.523 . S
C540 C521 1.368 1_556 S
C540 C534 1.368 . S
C540 C539 1.523 . S
C541 C525 1.429 . S
C541 C537 1.429 1_554 S
C541 C542 1.523 1_554 S
C542 C526 1.368 . S
C542 C538 1.368 1_556 S
C542 C541 1.523 1_556 S
H543 C518 0.950 . S
H544 C520 0.950 . S
H545 C521 0.949 . S
H546 C523 0.950 . S
H547 C525 0.950 . S
C548 C549 1.349 . S
C548 C550 1.327 . S
C548 H573 0.950 . S
C549 C548 1.349 . S
C549 C565 1.349 1_556 S
C550 C548 1.327 . S
C550 C569 1.429 . S
C550 H574 0.950 . S
C551 C568 1.574 . S
C551 C570 1.368 . S
C551 H575 0.949 . S
H552 C556 0.949 . S
C553 C554 1.349 . S
C553 C555 1.327 . S
C553 H576 0.950 . S
C554 C553 1.349 . S
C554 C566 1.349 . S
C555 C553 1.327 . S
C555 C571 1.429 . S
C555 H577 0.950 . S
C556 H552 0.949 . S
C556 C564 1.574 . S
C556 C572 1.368 1_556 S
H557 C565 0.950 . S
H558 C563 0.950 . S
H559 C564 0.949 . S
H560 C566 0.950 . S
H561 C567 0.950 1_556 S
H562 C568 0.949 . S
C563 H558 0.950 . S
C563 C565 1.327 . S
C563 C569 1.429 1_554 S
C564 C556 1.574 . S
C564 H559 0.949 . S
C564 C570 1.368 1_556 S
C565 C549 1.349 1_554 S
C565 H557 0.950 . S
C565 C563 1.327 . S
C566 C554 1.349 . S
C566 H560 0.950 . S
C566 C567 1.327 . S
C567 H561 0.950 1_554 S
C567 C566 1.327 . S
C567 C571 1.429 . S
C568 C551 1.574 . S
C568 H562 0.949 . S
C568 C572 1.368 . S
C569 C550 1.429 . S
C569 C563 1.429 1_556 S
C569 C570 1.523 1_556 S
C570 C551 1.368 . S
C570 C564 1.368 1_554 S
C570 C569 1.523 1_554 S
C571 C555 1.429 . S
C571 C567 1.429 . S
C571 C572 1.523 . S
C572 C556 1.368 1_554 S
C572 C568 1.368 . S
C572 C571 1.523 . S
H573 C548 0.950 . S
H574 C550 0.950 . S
H575 C551 0.949 . S
H576 C553 0.950 . S
H577 C555 0.950 . S
C578 C579 1.349 . S
C578 C580 1.327 1_554 S
C578 H603 0.950 . S
C579 C578 1.349 . S
C579 C595 1.349 . S
C580 C578 1.327 1_556 S
C580 C599 1.429 1_556 S
C580 H604 0.950 . S
C581 C598 1.574 1_554 S
C581 C600 1.368 1_554 S
C581 H605 0.949 . S
H582 C586 0.949 . S
C583 C584 1.349 . S
C583 C585 1.327 . S
C583 H606 0.950 . S
C584 C583 1.349 . S
C584 C596 1.349 . S
C585 C583 1.327 . S
C585 C601 1.429 . S
C585 H607 0.950 . S
C586 H582 0.949 . S
C586 C594 1.574 . S
C586 C602 1.368 . S
H587 C595 0.950 . S
H588 C593 0.950 . S
H589 C594 0.949 . S
H590 C596 0.950 . S
H591 C597 0.950 . S
H592 C598 0.949 . S
C593 H588 0.950 . S
C593 C595 1.327 . S
C593 C599 1.429 . S
C594 C586 1.574 . S
C594 H589 0.949 . S
C594 C600 1.368 . S
C595 C579 1.349 . S
C595 H587 0.950 . S
C595 C593 1.327 . S
C596 C584 1.349 . S
C596 H590 0.950 . S
C596 C597 1.327 . S
C597 H591 0.950 . S
C597 C596 1.327 . S
C597 C601 1.429 . S
C598 C581 1.574 1_556 S
C598 H592 0.949 . S
C598 C602 1.368 . S
C599 C580 1.429 1_554 S
C599 C593 1.429 . S
C599 C600 1.523 1_554 S
C600 C581 1.368 1_556 S
C600 C594 1.368 . S
C600 C599 1.523 1_556 S
C601 C585 1.429 . S
C601 C597 1.429 . S
C601 C602 1.523 . S
C602 C586 1.368 . S
C602 C598 1.368 . S
C602 C601 1.523 . S
H603 C578 0.950 . S
H604 C580 0.950 . S
H605 C581 0.949 . S
H606 C583 0.950 . S
H607 C585 0.950 . S
C608 C609 1.349 . S
C608 C610 1.327 . S
C608 H633 0.950 . S
C609 C608 1.349 . S
C609 C625 1.349 . S
C610 C608 1.327 . S
C610 C629 1.429 . S
C610 H634 0.950 . S
C611 C628 1.574 . S
C611 C630 1.368 . S
C611 H635 0.949 . S
H612 C616 0.949 . S
C613 C614 1.349 . S
C613 C615 1.327 . S
C613 H636 0.950 . S
C614 C613 1.349 . S
C614 C626 1.349 . S
C615 C613 1.327 . S
C615 C631 1.429 . S
C615 H637 0.950 . S
C616 H612 0.949 . S
C616 C624 1.574 . S
C616 C632 1.368 . S
H617 C625 0.950 . S
H618 C623 0.950 . S
H619 C624 0.949 . S
H620 C626 0.950 . S
H621 C627 0.950 . S
H622 C628 0.949 . S
C623 H618 0.950 . S
C623 C625 1.327 . S
C623 C629 1.429 . S
C624 C616 1.574 . S
C624 H619 0.949 . S
C624 C630 1.368 . S
C625 C609 1.349 . S
C625 H617 0.950 . S
C625 C623 1.327 . S
C626 C614 1.349 . S
C626 H620 0.950 . S
C626 C627 1.327 . S
C627 H621 0.950 . S
C627 C626 1.327 . S
C627 C631 1.429 . S
C628 C611 1.574 . S
C628 H622 0.949 . S
C628 C632 1.368 . S
C629 C610 1.429 . S
C629 C623 1.429 . S
C629 C630 1.523 . S
C630 C611 1.368 . S
C630 C624 1.368 . S
C630 C629 1.523 . S
C631 C615 1.429 . S
C631 C627 1.429 . S
C631 C632 1.523 . S
C632 C616 1.368 . S
C632 C628 1.368 . S
C632 C631 1.523 . S
H633 C608 0.950 . S
H634 C610 0.950 . S
H635 C611 0.949 . S
H636 C613 0.950 . S
H637 C615 0.950 . S
C638 C639 1.349 . S
C638 C640 1.327 . S
C638 H663 0.950 . S
C639 C638 1.349 . S
C639 C655 1.349 . S
C640 C638 1.327 . S
C640 C659 1.429 . S
C640 H664 0.950 . S
C641 C658 1.574 . S
C641 C660 1.368 . S
C641 H665 0.949 . S
H642 C646 0.949 . S
C643 C644 1.349 . S
C643 C645 1.327 . S
C643 H666 0.950 . S
C644 C643 1.349 . S
C644 C656 1.349 . S
C645 C643 1.327 . S
C645 C661 1.429 . S
C645 H667 0.950 . S
C646 H642 0.949 . S
C646 C654 1.574 . S
C646 C662 1.368 . S
H647 C655 0.950 . S
H648 C653 0.950 . S
H649 C654 0.949 . S
H650 C656 0.950 . S
H651 C657 0.950 . S
H652 C658 0.949 . S
C653 H648 0.950 . S
C653 C655 1.327 . S
C653 C659 1.429 . S
C654 C646 1.574 . S
C654 H649 0.949 . S
C654 C660 1.368 . S
C655 C639 1.349 . S
C655 H647 0.950 . S
C655 C653 1.327 . S
C656 C644 1.349 . S
C656 H650 0.950 . S
C656 C657 1.327 . S
C657 H651 0.950 . S
C657 C656 1.327 . S
C657 C661 1.429 . S
C658 C641 1.574 . S
C658 H652 0.949 . S
C658 C662 1.368 . S
C659 C640 1.429 . S
C659 C653 1.429 . S
C659 C660 1.523 . S
C660 C641 1.368 . S
C660 C654 1.368 . S
C660 C659 1.523 . S
C661 C645 1.429 . S
C661 C657 1.429 . S
C661 C662 1.523 . S
C662 C646 1.368 . S
C662 C658 1.368 . S
C662 C661 1.523 . S
H663 C638 0.950 . S
H664 C640 0.950 . S
H665 C641 0.949 . S
H666 C643 0.950 . S
H667 C645 0.950 . S
C668 C669 1.349 . S
C668 C670 1.327 . S
C668 H693 0.950 . S
C669 C668 1.349 . S
C669 C685 1.349 . S
C670 C668 1.327 . S
C670 C689 1.429 . S
C670 H694 0.950 . S
C671 C688 1.574 . S
C671 C690 1.368 . S
C671 H695 0.949 . S
H672 C676 0.949 . S
C673 C674 1.349 . S
C673 C675 1.327 . S
C673 H696 0.950 . S
C674 C673 1.349 . S
C674 C686 1.349 . S
C675 C673 1.327 . S
C675 C691 1.429 . S
C675 H697 0.950 . S
C676 H672 0.949 . S
C676 C684 1.574 . S
C676 C692 1.368 . S
H677 C685 0.950 . S
H678 C683 0.950 . S
H679 C684 0.949 . S
H680 C686 0.950 . S
H681 C687 0.950 . S
H682 C688 0.949 . S
C683 H678 0.950 . S
C683 C685 1.327 . S
C683 C689 1.429 . S
C684 C676 1.574 . S
C684 H679 0.949 . S
C684 C690 1.368 . S
C685 C669 1.349 . S
C685 H677 0.950 . S
C685 C683 1.327 . S
C686 C674 1.349 . S
C686 H680 0.950 . S
C686 C687 1.327 . S
C687 H681 0.950 . S
C687 C686 1.327 . S
C687 C691 1.429 . S
C688 C671 1.574 . S
C688 H682 0.949 . S
C688 C692 1.368 . S
C689 C670 1.429 . S
C689 C683 1.429 . S
C689 C690 1.523 . S
C690 C671 1.368 . S
C690 C684 1.368 . S
C690 C689 1.523 . S
C691 C675 1.429 . S
C691 C687 1.429 . S
C691 C692 1.523 . S
C692 C676 1.368 . S
C692 C688 1.368 . S
C692 C691 1.523 . S
H693 C668 0.950 . S
H694 C670 0.950 . S
H695 C671 0.949 . S
H696 C673 0.950 . S
H697 C675 0.950 . S
C698 C699 1.349 . S
C698 C700 1.327 . S
C698 H723 0.950 . S
C699 C698 1.349 . S
C699 C715 1.349 . S
C700 C698 1.327 . S
C700 C719 1.429 . S
C700 H724 0.950 . S
C701 C718 1.574 . S
C701 C720 1.368 . S
C701 H725 0.949 . S
H702 C706 0.949 . S
C703 C704 1.349 . S
C703 C705 1.327 . S
C703 H726 0.950 . S
C704 C703 1.349 . S
C704 C716 1.349 . S
C705 C703 1.327 . S
C705 C721 1.429 . S
C705 H727 0.950 . S
C706 H702 0.949 . S
C706 C714 1.574 . S
C706 C722 1.368 . S
H707 C715 0.950 . S
H708 C713 0.950 . S
H709 C714 0.949 . S
H710 C716 0.950 . S
H711 C717 0.950 . S
H712 C718 0.949 . S
C713 H708 0.950 . S
C713 C715 1.327 . S
C713 C719 1.429 . S
C714 C706 1.574 . S
C714 H709 0.949 . S
C714 C720 1.368 . S
C715 C699 1.349 . S
C715 H707 0.950 . S
C715 C713 1.327 . S
C716 C704 1.349 . S
C716 H710 0.950 . S
C716 C717 1.327 . S
C717 H711 0.950 . S
C717 C716 1.327 . S
C717 C721 1.429 . S
C718 C701 1.574 . S
C718 H712 0.949 . S
C718 C722 1.368 . S
C719 C700 1.429 . S
C719 C713 1.429 . S
C719 C720 1.523 . S
C720 C701 1.368 . S
C720 C714 1.368 . S
C720 C719 1.523 . S
C721 C705 1.429 . S
C721 C717 1.429 . S
C721 C722 1.523 . S
C722 C706 1.368 . S
C722 C718 1.368 . S
C722 C721 1.523 . S
H723 C698 0.950 . S
H724 C700 0.950 . S
H725 C701 0.949 . S
H726 C703 0.950 . S
H727 C705 0.950 . S
C728 C729 1.349 . S
C728 C730 1.327 . S
C728 H753 0.950 . S
C729 C728 1.349 . S
C729 C745 1.349 . S
C730 C728 1.327 . S
C730 C749 1.429 . S
C730 H754 0.950 . S
C731 C748 1.574 1_565 S
C731 C750 1.368 . S
C731 H755 0.949 . S
H732 C736 0.949 . S
C733 C734 1.349 . S
C733 C735 1.327 . S
C733 H756 0.950 . S
C734 C733 1.349 . S
C734 C746 1.349 . S
C735 C733 1.327 . S
C735 C751 1.429 . S
C735 H757 0.950 . S
C736 H732 0.949 . S
C736 C744 1.574 1_545 S
C736 C752 1.368 . S
H737 C745 0.950 . S
H738 C743 0.950 . S
H739 C744 0.949 . S
H740 C746 0.950 . S
H741 C747 0.950 . S
H742 C748 0.949 . S
C743 H738 0.950 . S
C743 C745 1.327 . S
C743 C749 1.429 . S
C744 C736 1.574 1_565 S
C744 H739 0.949 . S
C744 C750 1.368 . S
C745 C729 1.349 . S
C745 H737 0.950 . S
C745 C743 1.327 . S
C746 C734 1.349 . S
C746 H740 0.950 . S
C746 C747 1.327 . S
C747 H741 0.950 . S
C747 C746 1.327 . S
C747 C751 1.429 . S
C748 C731 1.574 1_545 S
C748 H742 0.949 . S
C748 C752 1.368 . S
C749 C730 1.429 . S
C749 C743 1.429 . S
C749 C750 1.523 . S
C750 C731 1.368 . S
C750 C744 1.368 . S
C750 C749 1.523 . S
C751 C735 1.429 . S
C751 C747 1.429 . S
C751 C752 1.523 . S
C752 C736 1.368 . S
C752 C748 1.368 . S
C752 C751 1.523 . S
H753 C728 0.950 . S
H754 C730 0.950 . S
H755 C731 0.949 . S
H756 C733 0.950 . S
H757 C735 0.950 . S
C758 C759 1.349 . S
C758 C760 1.327 . S
C758 H783 0.950 . S
C759 C758 1.349 . S
C759 C775 1.349 . S
C760 C758 1.327 . S
C760 C779 1.429 . S
C760 H784 0.950 . S
C761 C778 1.574 1_655 S
C761 C780 1.368 . S
C761 H785 0.949 . S
H762 C766 0.949 . S
C763 C764 1.349 . S
C763 C765 1.327 . S
C763 H786 0.950 . S
C764 C763 1.349 . S
C764 C776 1.349 . S
C765 C763 1.327 . S
C765 C781 1.429 . S
C765 H787 0.950 . S
C766 H762 0.949 . S
C766 C774 1.574 1_455 S
C766 C782 1.368 . S
H767 C775 0.950 . S
H768 C773 0.950 . S
H769 C774 0.949 . S
H770 C776 0.950 . S
H771 C777 0.950 . S
H772 C778 0.949 . S
C773 H768 0.950 . S
C773 C775 1.327 . S
C773 C779 1.429 . S
C774 C766 1.574 1_655 S
C774 H769 0.949 . S
C774 C780 1.368 . S
C775 C759 1.349 . S
C775 H767 0.950 . S
C775 C773 1.327 . S
C776 C764 1.349 . S
C776 H770 0.950 . S
C776 C777 1.327 . S
C777 H771 0.950 . S
C777 C776 1.327 . S
C777 C781 1.429 . S
C778 C761 1.574 1_455 S
C778 H772 0.949 . S
C778 C782 1.368 . S
C779 C760 1.429 . S
C779 C773 1.429 . S
C779 C780 1.523 . S
C780 C761 1.368 . S
C780 C774 1.368 . S
C780 C779 1.523 . S
C781 C765 1.429 . S
C781 C777 1.429 . S
C781 C782 1.523 . S
C782 C766 1.368 . S
C782 C778 1.368 . S
C782 C781 1.523 . S
H783 C758 0.950 . S
H784 C760 0.950 . S
H785 C761 0.949 . S
H786 C763 0.950 . S
H787 C765 0.950 . S
C788 C789 1.349 . S
C788 C790 1.327 . S
C788 H813 0.950 . S
C789 C788 1.349 . S
C789 C805 1.349 . S
C790 C788 1.327 . S
C790 C809 1.429 . S
C790 H814 0.950 . S
C791 C808 1.574 1_565 S
C791 C810 1.368 . S
C791 H815 0.949 . S
H792 C796 0.949 . S
C793 C794 1.349 . S
C793 C795 1.327 . S
C793 H816 0.950 . S
C794 C793 1.349 . S
C794 C806 1.349 . S
C795 C793 1.327 . S
C795 C811 1.429 . S
C795 H817 0.950 . S
C796 H792 0.949 . S
C796 C804 1.574 1_545 S
C796 C812 1.368 . S
H797 C805 0.950 . S
H798 C803 0.950 . S
H799 C804 0.949 . S
H800 C806 0.950 . S
H801 C807 0.950 . S
H802 C808 0.949 . S
C803 H798 0.950 . S
C803 C805 1.327 . S
C803 C809 1.429 . S
C804 C796 1.574 1_565 S
C804 H799 0.949 . S
C804 C810 1.368 . S
C805 C789 1.349 . S
C805 H797 0.950 . S
C805 C803 1.327 . S
C806 C794 1.349 . S
C806 H800 0.950 . S
C806 C807 1.327 . S
C807 H801 0.950 . S
C807 C806 1.327 . S
C807 C811 1.429 . S
C808 C791 1.574 1_545 S
C808 H802 0.949 . S
C808 C812 1.368 . S
C809 C790 1.429 . S
C809 C803 1.429 . S
C809 C810 1.523 . S
C810 C791 1.368 . S
C810 C804 1.368 . S
C810 C809 1.523 . S
C811 C795 1.429 . S
C811 C807 1.429 . S
C811 C812 1.523 . S
C812 C796 1.368 . S
C812 C808 1.368 . S
C812 C811 1.523 . S
H813 C788 0.950 . S
H814 C790 0.950 . S
H815 C791 0.949 . S
H816 C793 0.950 . S
H817 C795 0.950 . S
C818 C819 1.349 . S
C818 C820 1.327 . S
C818 H843 0.950 . S
C819 C818 1.349 . S
C819 C835 1.349 . S
C820 C818 1.327 . S
C820 C839 1.429 . S
C820 H844 0.950 . S
C821 C838 1.574 1_655 S
C821 C840 1.368 . S
C821 H845 0.949 . S
H822 C826 0.949 . S
C823 C824 1.349 . S
C823 C825 1.327 . S
C823 H846 0.950 . S
C824 C823 1.349 . S
C824 C836 1.349 . S
C825 C823 1.327 . S
C825 C841 1.429 . S
C825 H847 0.950 . S
C826 H822 0.949 . S
C826 C834 1.574 1_455 S
C826 C842 1.368 . S
H827 C835 0.950 . S
H828 C833 0.950 . S
H829 C834 0.949 . S
H830 C836 0.950 . S
H831 C837 0.950 . S
H832 C838 0.949 . S
C833 H828 0.950 . S
C833 C835 1.327 . S
C833 C839 1.429 . S
C834 C826 1.574 1_655 S
C834 H829 0.949 . S
C834 C840 1.368 . S
C835 C819 1.349 . S
C835 H827 0.950 . S
C835 C833 1.327 . S
C836 C824 1.349 . S
C836 H830 0.950 . S
C836 C837 1.327 . S
C837 H831 0.950 . S
C837 C836 1.327 . S
C837 C841 1.429 . S
C838 C821 1.574 1_455 S
C838 H832 0.949 . S
C838 C842 1.368 . S
C839 C820 1.429 . S
C839 C833 1.429 . S
C839 C840 1.523 . S
C840 C821 1.368 . S
C840 C834 1.368 . S
C840 C839 1.523 . S
C841 C825 1.429 . S
C841 C837 1.429 . S
C841 C842 1.523 . S
C842 C826 1.368 . S
C842 C838 1.368 . S
C842 C841 1.523 . S
H843 C818 0.950 . S
H844 C820 0.950 . S
H845 C821 0.949 . S
H846 C823 0.950 . S
H847 C825 0.950 . S
C848 C849 1.349 . S
C848 C850 1.327 . S
C848 H873 0.950 . S
C849 C848 1.349 . S
C849 C865 1.349 . S
C850 C848 1.327 . S
C850 C869 1.429 . S
C850 H874 0.950 . S
C851 C868 1.574 . S
C851 C870 1.368 . S
C851 H875 0.949 . S
H852 C856 0.949 . S
C853 C854 1.349 . S
C853 C855 1.327 . S
C853 H876 0.950 . S
C854 C853 1.349 . S
C854 C866 1.349 . S
C855 C853 1.327 . S
C855 C871 1.429 . S
C855 H877 0.950 . S
C856 H852 0.949 . S
C856 C864 1.574 . S
C856 C872 1.368 . S
H857 C865 0.950 . S
H858 C863 0.950 . S
H859 C864 0.949 . S
H860 C866 0.950 . S
H861 C867 0.950 . S
H862 C868 0.949 . S
C863 H858 0.950 . S
C863 C865 1.327 . S
C863 C869 1.429 . S
C864 C856 1.574 . S
C864 H859 0.949 . S
C864 C870 1.368 . S
C865 C849 1.349 . S
C865 H857 0.950 . S
C865 C863 1.327 . S
C866 C854 1.349 . S
C866 H860 0.950 . S
C866 C867 1.327 . S
C867 H861 0.950 . S
C867 C866 1.327 . S
C867 C871 1.429 . S
C868 C851 1.574 . S
C868 H862 0.949 . S
C868 C872 1.368 . S
C869 C850 1.429 . S
C869 C863 1.429 . S
C869 C870 1.523 . S
C870 C851 1.368 . S
C870 C864 1.368 . S
C870 C869 1.523 . S
C871 C855 1.429 . S
C871 C867 1.429 . S
C871 C872 1.523 . S
C872 C856 1.368 . S
C872 C868 1.368 . S
C872 C871 1.523 . S
H873 C848 0.950 . S
H874 C850 0.950 . S
H875 C851 0.949 . S
H876 C853 0.950 . S
H877 C855 0.950 . S
C878 C879 1.349 . S
C878 C880 1.327 . S
C878 H903 0.950 . S
C879 C878 1.349 . S
C879 C895 1.349 . S
C880 C878 1.327 . S
C880 C899 1.429 . S
C880 H904 0.950 . S
C881 C898 1.574 . S
C881 C900 1.368 . S
C881 H905 0.949 . S
H882 C886 0.949 . S
C883 C884 1.349 . S
C883 C885 1.327 . S
C883 H906 0.950 . S
C884 C883 1.349 . S
C884 C896 1.349 . S
C885 C883 1.327 . S
C885 C901 1.429 . S
C885 H907 0.950 . S
C886 H882 0.949 . S
C886 C894 1.574 . S
C886 C902 1.368 . S
H887 C895 0.950 . S
H888 C893 0.950 . S
H889 C894 0.949 . S
H890 C896 0.950 . S
H891 C897 0.950 . S
H892 C898 0.949 . S
C893 H888 0.950 . S
C893 C895 1.327 . S
C893 C899 1.429 . S
C894 C886 1.574 . S
C894 H889 0.949 . S
C894 C900 1.368 . S
C895 C879 1.349 . S
C895 H887 0.950 . S
C895 C893 1.327 . S
C896 C884 1.349 . S
C896 H890 0.950 . S
C896 C897 1.327 . S
C897 H891 0.950 . S
C897 C896 1.327 . S
C897 C901 1.429 . S
C898 C881 1.574 . S
C898 H892 0.949 . S
C898 C902 1.368 . S
C899 C880 1.429 . S
C899 C893 1.429 . S
C899 C900 1.523 . S
C900 C881 1.368 . S
C900 C894 1.368 . S
C900 C899 1.523 . S
C901 C885 1.429 . S
C901 C897 1.429 . S
C901 C902 1.523 . S
C902 C886 1.368 . S
C902 C898 1.368 . S
C902 C901 1.523 . S
H903 C878 0.950 . S
H904 C880 0.950 . S
H905 C881 0.949 . S
H906 C883 0.950 . S
H907 C885 0.950 . S
C908 C909 1.349 . S
C908 C910 1.327 . S
C908 H933 0.950 . S
C909 C908 1.349 . S
C909 C925 1.349 . S
C910 C908 1.327 . S
C910 C929 1.429 . S
C910 H934 0.950 . S
C911 C928 1.574 . S
C911 C930 1.368 . S
C911 H935 0.949 . S
H912 C916 0.949 . S
C913 C914 1.349 . S
C913 C915 1.327 . S
C913 H936 0.950 . S
C914 C913 1.349 . S
C914 C926 1.349 . S
C915 C913 1.327 . S
C915 C931 1.429 . S
C915 H937 0.950 . S
C916 H912 0.949 . S
C916 C924 1.574 . S
C916 C932 1.368 . S
H917 C925 0.950 . S
H918 C923 0.950 . S
H919 C924 0.949 . S
H920 C926 0.950 . S
H921 C927 0.950 . S
H922 C928 0.949 . S
C923 H918 0.950 . S
C923 C925 1.327 . S
C923 C929 1.429 . S
C924 C916 1.574 . S
C924 H919 0.949 . S
C924 C930 1.368 . S
C925 C909 1.349 . S
C925 H917 0.950 . S
C925 C923 1.327 . S
C926 C914 1.349 . S
C926 H920 0.950 . S
C926 C927 1.327 . S
C927 H921 0.950 . S
C927 C926 1.327 . S
C927 C931 1.429 . S
C928 C911 1.574 . S
C928 H922 0.949 . S
C928 C932 1.368 . S
C929 C910 1.429 . S
C929 C923 1.429 . S
C929 C930 1.523 . S
C930 C911 1.368 . S
C930 C924 1.368 . S
C930 C929 1.523 . S
C931 C915 1.429 . S
C931 C927 1.429 . S
C931 C932 1.523 . S
C932 C916 1.368 . S
C932 C928 1.368 . S
C932 C931 1.523 . S
H933 C908 0.950 . S
H934 C910 0.950 . S
H935 C911 0.949 . S
H936 C913 0.950 . S
H937 C915 0.950 . S
C938 C939 1.349 . S
C938 C940 1.327 . S
C938 H963 0.950 . S
C939 C938 1.349 . S
C939 C955 1.349 . S
C940 C938 1.327 . S
C940 C959 1.429 . S
C940 H964 0.950 . S
C941 C958 1.574 . S
C941 C960 1.368 . S
C941 H965 0.949 . S
H942 C946 0.949 . S
C943 C944 1.349 . S
C943 C945 1.327 . S
C943 H966 0.950 . S
C944 C943 1.349 . S
C944 C956 1.349 . S
C945 C943 1.327 . S
C945 C961 1.429 . S
C945 H967 0.950 . S
C946 H942 0.949 . S
C946 C954 1.574 . S
C946 C962 1.368 . S
H947 C955 0.950 . S
H948 C953 0.950 . S
H949 C954 0.949 . S
H950 C956 0.950 . S
H951 C957 0.950 . S
H952 C958 0.949 . S
C953 H948 0.950 . S
C953 C955 1.327 . S
C953 C959 1.429 . S
C954 C946 1.574 . S
C954 H949 0.949 . S
C954 C960 1.368 . S
C955 C939 1.349 . S
C955 H947 0.950 . S
C955 C953 1.327 . S
C956 C944 1.349 . S
C956 H950 0.950 . S
C956 C957 1.327 . S
C957 H951 0.950 . S
C957 C956 1.327 . S
C957 C961 1.429 . S
C958 C941 1.574 . S
C958 H952 0.949 . S
C958 C962 1.368 . S
C959 C940 1.429 . S
C959 C953 1.429 . S
C959 C960 1.523 . S
C960 C941 1.368 . S
C960 C954 1.368 . S
C960 C959 1.523 . S
C961 C945 1.429 . S
C961 C957 1.429 . S
C961 C962 1.523 . S
C962 C946 1.368 . S
C962 C958 1.368 . S
C962 C961 1.523 . S
H963 C938 0.950 . S
H964 C940 0.950 . S
H965 C941 0.949 . S
H966 C943 0.950 . S
H967 C945 0.950 . S
C968 C969 1.349 . S
C968 C970 1.327 . S
C968 H993 0.950 . S
C969 C968 1.349 . S
C969 C985 1.349 . S
C970 C968 1.327 . S
C970 C989 1.429 . S
C970 H994 0.950 . S
C971 C988 1.574 . S
C971 C990 1.368 . S
C971 H995 0.949 . S
H972 C976 0.949 . S
C973 C974 1.349 . S
C973 C975 1.327 . S
C973 H996 0.950 . S
C974 C973 1.349 . S
C974 C986 1.349 . S
C975 C973 1.327 . S
C975 C991 1.429 . S
C975 H997 0.950 . S
C976 H972 0.949 . S
C976 C984 1.574 . S
C976 C992 1.368 . S
H977 C985 0.950 . S
H978 C983 0.950 . S
H979 C984 0.949 . S
H980 C986 0.950 . S
H981 C987 0.950 . S
H982 C988 0.949 . S
C983 H978 0.950 . S
C983 C985 1.327 . S
C983 C989 1.429 . S
C984 C976 1.574 . S
C984 H979 0.949 . S
C984 C990 1.368 . S
C985 C969 1.349 . S
C985 H977 0.950 . S
C985 C983 1.327 . S
C986 C974 1.349 . S
C986 H980 0.950 . S
C986 C987 1.327 . S
C987 H981 0.950 . S
C987 C986 1.327 . S
C987 C991 1.429 . S
C988 C971 1.574 . S
C988 H982 0.949 . S
C988 C992 1.368 . S
C989 C970 1.429 . S
C989 C983 1.429 . S
C989 C990 1.523 . S
C990 C971 1.368 . S
C990 C984 1.368 . S
C990 C989 1.523 . S
C991 C975 1.429 . S
C991 C987 1.429 . S
C991 C992 1.523 . S
C992 C976 1.368 . S
C992 C988 1.368 . S
C992 C991 1.523 . S
H993 C968 0.950 . S
H994 C970 0.950 . S
H995 C971 0.949 . S
H996 C973 0.950 . S
H997 C975 0.950 . S
C998 C999 1.349 . S
C998 C1000 1.327 . S
C998 H1023 0.950 . S
C999 C998 1.349 . S
C999 C1015 1.349 . S
C1000 C998 1.327 . S
C1000 C1019 1.429 . S
C1000 H1024 0.950 . S
C1001 C1018 1.574 . S
C1001 C1020 1.368 . S
C1001 H1025 0.949 . S
H1002 C1006 0.949 . S
C1003 C1004 1.349 . S
C1003 C1005 1.327 . S
C1003 H1026 0.950 . S
C1004 C1003 1.349 . S
C1004 C1016 1.349 . S
C1005 C1003 1.327 . S
C1005 C1021 1.429 . S
C1005 H1027 0.950 . S
C1006 H1002 0.949 . S
C1006 C1014 1.574 . S
C1006 C1022 1.368 . S
H1007 C1015 0.950 . S
H1008 C1013 0.950 . S
H1009 C1014 0.949 . S
H1010 C1016 0.950 . S
H1011 C1017 0.950 . S
H1012 C1018 0.949 . S
C1013 H1008 0.950 . S
C1013 C1015 1.327 . S
C1013 C1019 1.429 . S
C1014 C1006 1.574 . S
C1014 H1009 0.949 . S
C1014 C1020 1.368 . S
C1015 C999 1.349 . S
C1015 H1007 0.950 . S
C1015 C1013 1.327 . S
C1016 C1004 1.349 . S
C1016 H1010 0.950 . S
C1016 C1017 1.327 . S
C1017 H1011 0.950 . S
C1017 C1016 1.327 . S
C1017 C1021 1.429 . S
C1018 C1001 1.574 . S
C1018 H1012 0.949 . S
C1018 C1022 1.368 . S
C1019 C1000 1.429 . S
C1019 C1013 1.429 . S
C1019 C1020 1.523 . S
C1020 C1001 1.368 . S
C1020 C1014 1.368 . S
C1020 C1019 1.523 . S
C1021 C1005 1.429 . S
C1021 C1017 1.429 . S
C1021 C1022 1.523 . S
C1022 C1006 1.368 . S
C1022 C1018 1.368 . S
C1022 C1021 1.523 . S
H1023 C998 0.950 . S
H1024 C1000 0.950 . S
H1025 C1001 0.949 . S
H1026 C1003 0.950 . S
H1027 C1005 0.950 . S
C1028 C1029 1.349 . S
C1028 C1030 1.327 . S
C1028 H1053 0.950 . S
C1029 C1028 1.349 . S
C1029 C1045 1.349 . S
C1030 C1028 1.327 . S
C1030 C1049 1.429 . S
C1030 H1054 0.950 . S
C1031 C1048 1.574 . S
C1031 C1050 1.368 . S
C1031 H1055 0.949 . S
H1032 C1036 0.949 . S
C1033 C1034 1.349 . S
C1033 C1035 1.327 . S
C1033 H1056 0.950 . S
C1034 C1033 1.349 . S
C1034 C1046 1.349 . S
C1035 C1033 1.327 . S
C1035 C1051 1.429 . S
C1035 H1057 0.950 . S
C1036 H1032 0.949 . S
C1036 C1044 1.574 . S
C1036 C1052 1.368 . S
H1037 C1045 0.950 . S
H1038 C1043 0.950 . S
H1039 C1044 0.949 . S
H1040 C1046 0.950 . S
H1041 C1047 0.950 . S
H1042 C1048 0.949 . S
C1043 H1038 0.950 . S
C1043 C1045 1.327 . S
C1043 C1049 1.429 . S
C1044 C1036 1.574 . S
C1044 H1039 0.949 . S
C1044 C1050 1.368 . S
C1045 C1029 1.349 . S
C1045 H1037 0.950 . S
C1045 C1043 1.327 . S
C1046 C1034 1.349 . S
C1046 H1040 0.950 . S
C1046 C1047 1.327 . S
C1047 H1041 0.950 . S
C1047 C1046 1.327 . S
C1047 C1051 1.429 . S
C1048 C1031 1.574 . S
C1048 H1042 0.949 . S
C1048 C1052 1.368 . S
C1049 C1030 1.429 . S
C1049 C1043 1.429 . S
C1049 C1050 1.523 . S
C1050 C1031 1.368 . S
C1050 C1044 1.368 . S
C1050 C1049 1.523 . S
C1051 C1035 1.429 . S
C1051 C1047 1.429 . S
C1051 C1052 1.523 . S
C1052 C1036 1.368 . S
C1052 C1048 1.368 . S
C1052 C1051 1.523 . S
H1053 C1028 0.950 . S
H1054 C1030 0.950 . S
H1055 C1031 0.949 . S
H1056 C1033 0.950 . S
H1057 C1035 0.950 . S
C1058 C1059 1.349 . S
C1058 C1060 1.327 . S
C1058 H1083 0.950 . S
C1059 C1058 1.349 . S
C1059 C1075 1.349 . S
C1060 C1058 1.327 . S
C1060 C1079 1.429 . S
C1060 H1084 0.950 . S
C1061 C1078 1.574 . S
C1061 C1080 1.368 . S
C1061 H1085 0.949 . S
H1062 C1066 0.949 . S
C1063 C1064 1.349 . S
C1063 C1065 1.327 . S
C1063 H1086 0.950 . S
C1064 C1063 1.349 . S
C1064 C1076 1.349 . S
C1065 C1063 1.327 . S
C1065 C1081 1.429 . S
C1065 H1087 0.950 . S
C1066 H1062 0.949 . S
C1066 C1074 1.574 . S
C1066 C1082 1.368 . S
H1067 C1075 0.950 . S
H1068 C1073 0.950 . S
H1069 C1074 0.949 . S
H1070 C1076 0.950 . S
H1071 C1077 0.950 . S
H1072 C1078 0.949 . S
C1073 H1068 0.950 . S
C1073 C1075 1.327 . S
C1073 C1079 1.429 . S
C1074 C1066 1.574 . S
C1074 H1069 0.949 . S
C1074 C1080 1.368 . S
C1075 C1059 1.349 . S
C1075 H1067 0.950 . S
C1075 C1073 1.327 . S
C1076 C1064 1.349 . S
C1076 H1070 0.950 . S
C1076 C1077 1.327 . S
C1077 H1071 0.950 . S
C1077 C1076 1.327 . S
C1077 C1081 1.429 . S
C1078 C1061 1.574 . S
C1078 H1072 0.949 . S
C1078 C1082 1.368 . S
C1079 C1060 1.429 . S
C1079 C1073 1.429 . S
C1079 C1080 1.523 . S
C1080 C1061 1.368 . S
C1080 C1074 1.368 . S
C1080 C1079 1.523 . S
C1081 C1065 1.429 . S
C1081 C1077 1.429 . S
C1081 C1082 1.523 . S
C1082 C1066 1.368 . S
C1082 C1078 1.368 . S
C1082 C1081 1.523 . S
H1083 C1058 0.950 . S
H1084 C1060 0.950 . S
H1085 C1061 0.949 . S
H1086 C1063 0.950 . S
H1087 C1065 0.950 . S
C1088 C1089 1.349 . S
C1088 C1090 1.327 . S
C1088 H1113 0.950 . S
C1089 C1088 1.349 . S
C1089 C1105 1.349 . S
C1090 C1088 1.327 . S
C1090 C1109 1.429 . S
C1090 H1114 0.950 . S
C1091 C1108 1.574 . S
C1091 C1110 1.368 . S
C1091 H1115 0.949 . S
H1092 C1096 0.949 . S
C1093 C1094 1.349 . S
C1093 C1095 1.327 1_554 S
C1093 H1116 0.950 . S
C1094 C1093 1.349 . S
C1094 C1106 1.349 1_554 S
C1095 C1093 1.327 1_556 S
C1095 C1111 1.429 . S
C1095 H1117 0.950 . S
C1096 H1092 0.949 . S
C1096 C1104 1.574 . S
C1096 C1112 1.368 . S
H1097 C1105 0.950 . S
H1098 C1103 0.950 . S
H1099 C1104 0.949 . S
H1100 C1106 0.950 . S
H1101 C1107 0.950 . S
H1102 C1108 0.949 . S
C1103 H1098 0.950 . S
C1103 C1105 1.327 . S
C1103 C1109 1.429 . S
C1104 C1096 1.574 . S
C1104 H1099 0.949 . S
C1104 C1110 1.368 . S
C1105 C1089 1.349 . S
C1105 H1097 0.950 . S
C1105 C1103 1.327 . S
C1106 C1094 1.349 1_556 S
C1106 H1100 0.950 . S
C1106 C1107 1.327 . S
C1107 H1101 0.950 . S
C1107 C1106 1.327 . S
C1107 C1111 1.429 . S
C1108 C1091 1.574 . S
C1108 H1102 0.949 . S
C1108 C1112 1.368 . S
C1109 C1090 1.429 . S
C1109 C1103 1.429 . S
C1109 C1110 1.523 . S
C1110 C1091 1.368 . S
C1110 C1104 1.368 . S
C1110 C1109 1.523 . S
C1111 C1095 1.429 . S
C1111 C1107 1.429 . S
C1111 C1112 1.523 . S
C1112 C1096 1.368 . S
C1112 C1108 1.368 . S
C1112 C1111 1.523 . S
H1113 C1088 0.950 . S
H1114 C1090 0.950 . S
H1115 C1091 0.949 . S
H1116 C1093 0.950 . S
H1117 C1095 0.950 . S
C1118 C1119 1.349 . S
C1118 C1120 1.327 . S
C1118 H1143 0.950 . S
C1119 C1118 1.349 . S
C1119 C1135 1.349 . S
C1120 C1118 1.327 . S
C1120 C1139 1.429 . S
C1120 H1144 0.950 . S
C1121 C1138 1.574 . S
C1121 C1140 1.368 . S
C1121 H1145 0.949 . S
H1122 C1126 0.949 . S
C1123 C1124 1.349 1_554 S
C1123 C1125 1.327 . S
C1123 H1146 0.950 . S
C1124 C1123 1.349 1_556 S
C1124 C1136 1.349 . S
C1125 C1123 1.327 . S
C1125 C1141 1.429 . S
C1125 H1147 0.950 . S
C1126 H1122 0.949 . S
C1126 C1134 1.574 . S
C1126 C1142 1.368 . S
H1127 C1135 0.950 . S
H1128 C1133 0.950 . S
H1129 C1134 0.949 . S
H1130 C1136 0.950 . S
H1131 C1137 0.950 . S
H1132 C1138 0.949 . S
C1133 H1128 0.950 . S
C1133 C1135 1.327 . S
C1133 C1139 1.429 . S
C1134 C1126 1.574 . S
C1134 H1129 0.949 . S
C1134 C1140 1.368 . S
C1135 C1119 1.349 . S
C1135 H1127 0.950 . S
C1135 C1133 1.327 . S
C1136 C1124 1.349 . S
C1136 H1130 0.950 . S
C1136 C1137 1.327 1_556 S
C1137 H1131 0.950 . S
C1137 C1136 1.327 1_554 S
C1137 C1141 1.429 . S
C1138 C1121 1.574 . S
C1138 H1132 0.949 . S
C1138 C1142 1.368 . S
C1139 C1120 1.429 . S
C1139 C1133 1.429 . S
C1139 C1140 1.523 . S
C1140 C1121 1.368 . S
C1140 C1134 1.368 . S
C1140 C1139 1.523 . S
C1141 C1125 1.429 . S
C1141 C1137 1.429 . S
C1141 C1142 1.523 . S
C1142 C1126 1.368 . S
C1142 C1138 1.368 . S
C1142 C1141 1.523 . S
H1143 C1118 0.950 . S
H1144 C1120 0.950 . S
H1145 C1121 0.949 . S
H1146 C1123 0.950 . S
H1147 C1125 0.950 . S
C1148 C1149 1.349 1_556 S
C1148 C1150 1.327 . S
C1148 H1173 0.950 . S
C1149 C1148 1.349 1_554 S
C1149 C1165 1.349 . S
C1150 C1148 1.327 . S
C1150 C1169 1.429 . S
C1150 H1174 0.950 . S
C1151 C1168 1.574 . S
C1151 C1170 1.368 . S
C1151 H1175 0.949 . S
H1152 C1156 0.949 . S
C1153 C1154 1.349 . S
C1153 C1155 1.327 . S
C1153 H1176 0.950 . S
C1154 C1153 1.349 . S
C1154 C1166 1.349 . S
C1155 C1153 1.327 . S
C1155 C1171 1.429 . S
C1155 H1177 0.950 . S
C1156 H1152 0.949 . S
C1156 C1164 1.574 . S
C1156 C1172 1.368 . S
H1157 C1165 0.950 . S
H1158 C1163 0.950 . S
H1159 C1164 0.949 . S
H1160 C1166 0.950 . S
H1161 C1167 0.950 . S
H1162 C1168 0.949 . S
C1163 H1158 0.950 . S
C1163 C1165 1.327 1_556 S
C1163 C1169 1.429 . S
C1164 C1156 1.574 . S
C1164 H1159 0.949 . S
C1164 C1170 1.368 . S
C1165 C1149 1.349 . S
C1165 H1157 0.950 . S
C1165 C1163 1.327 1_554 S
C1166 C1154 1.349 . S
C1166 H1160 0.950 . S
C1166 C1167 1.327 . S
C1167 H1161 0.950 . S
C1167 C1166 1.327 . S
C1167 C1171 1.429 . S
C1168 C1151 1.574 . S
C1168 H1162 0.949 . S
C1168 C1172 1.368 . S
C1169 C1150 1.429 . S
C1169 C1163 1.429 . S
C1169 C1170 1.523 . S
C1170 C1151 1.368 . S
C1170 C1164 1.368 . S
C1170 C1169 1.523 . S
C1171 C1155 1.429 . S
C1171 C1167 1.429 . S
C1171 C1172 1.523 . S
C1172 C1156 1.368 . S
C1172 C1168 1.368 . S
C1172 C1171 1.523 . S
H1173 C1148 0.950 . S
H1174 C1150 0.950 . S
H1175 C1151 0.949 . S
H1176 C1153 0.950 . S
H1177 C1155 0.950 . S
C1178 C1179 1.349 . S
C1178 C1180 1.327 . S
C1178 H1203 0.950 . S
C1179 C1178 1.349 . S
C1179 C1195 1.349 . S
C1180 C1178 1.327 . S
C1180 C1199 1.429 . S
C1180 H1204 0.950 . S
C1181 C1198 1.574 . S
C1181 C1200 1.368 . S
C1181 H1205 0.949 . S
H1182 C1186 0.949 . S
C1183 C1184 1.349 . S
C1183 C1185 1.327 1_556 S
C1183 H1206 0.950 . S
C1184 C1183 1.349 . S
C1184 C1196 1.349 1_556 S
C1185 C1183 1.327 1_554 S
C1185 C1201 1.429 . S
C1185 H1207 0.950 . S
C1186 H1182 0.949 . S
C1186 C1194 1.574 . S
C1186 C1202 1.368 . S
H1187 C1195 0.950 . S
H1188 C1193 0.950 . S
H1189 C1194 0.949 . S
H1190 C1196 0.950 . S
H1191 C1197 0.950 . S
H1192 C1198 0.949 . S
C1193 H1188 0.950 . S
C1193 C1195 1.327 . S
C1193 C1199 1.429 . S
C1194 C1186 1.574 . S
C1194 H1189 0.949 . S
C1194 C1200 1.368 . S
C1195 C1179 1.349 . S
C1195 H1187 0.950 . S
C1195 C1193 1.327 . S
C1196 C1184 1.349 1_554 S
C1196 H1190 0.950 . S
C1196 C1197 1.327 . S
C1197 H1191 0.950 . S
C1197 C1196 1.327 . S
C1197 C1201 1.429 . S
C1198 C1181 1.574 . S
C1198 H1192 0.949 . S
C1198 C1202 1.368 . S
C1199 C1180 1.429 . S
C1199 C1193 1.429 . S
C1199 C1200 1.523 . S
C1200 C1181 1.368 . S
C1200 C1194 1.368 . S
C1200 C1199 1.523 . S
C1201 C1185 1.429 . S
C1201 C1197 1.429 . S
C1201 C1202 1.523 . S
C1202 C1186 1.368 . S
C1202 C1198 1.368 . S
C1202 C1201 1.523 . S
H1203 C1178 0.950 . S
H1204 C1180 0.950 . S
H1205 C1181 0.949 . S
H1206 C1183 0.950 . S
H1207 C1185 0.950 . S
C1208 C1209 1.349 . S
C1208 C1210 1.327 . S
C1208 H1233 0.950 . S
C1209 C1208 1.349 . S
C1209 C1225 1.349 . S
C1210 C1208 1.327 . S
C1210 C1229 1.429 . S
C1210 H1234 0.950 . S
C1211 C1228 1.574 . S
C1211 C1230 1.368 . S
C1211 H1235 0.949 . S
H1212 C1216 0.949 . S
C1213 C1214 1.349 . S
C1213 C1215 1.327 . S
C1213 H1236 0.950 . S
C1214 C1213 1.349 . S
C1214 C1226 1.349 . S
C1215 C1213 1.327 . S
C1215 C1231 1.429 . S
C1215 H1237 0.950 . S
C1216 H1212 0.949 . S
C1216 C1224 1.574 . S
C1216 C1232 1.368 . S
H1217 C1225 0.950 . S
H1218 C1223 0.950 . S
H1219 C1224 0.949 . S
H1220 C1226 0.950 . S
H1221 C1227 0.950 . S
H1222 C1228 0.949 . S
C1223 H1218 0.950 . S
C1223 C1225 1.327 . S
C1223 C1229 1.429 . S
C1224 C1216 1.574 . S
C1224 H1219 0.949 . S
C1224 C1230 1.368 . S
C1225 C1209 1.349 . S
C1225 H1217 0.950 . S
C1225 C1223 1.327 . S
C1226 C1214 1.349 . S
C1226 H1220 0.950 . S
C1226 C1227 1.327 . S
C1227 H1221 0.950 . S
C1227 C1226 1.327 . S
C1227 C1231 1.429 . S
C1228 C1211 1.574 . S
C1228 H1222 0.949 . S
C1228 C1232 1.368 . S
C1229 C1210 1.429 . S
C1229 C1223 1.429 . S
C1229 C1230 1.523 . S
C1230 C1211 1.368 . S
C1230 C1224 1.368 . S
C1230 C1229 1.523 . S
C1231 C1215 1.429 . S
C1231 C1227 1.429 . S
C1231 C1232 1.523 . S
C1232 C1216 1.368 . S
C1232 C1228 1.368 . S
C1232 C1231 1.523 . S
H1233 C1208 0.950 . S
H1234 C1210 0.950 . S
H1235 C1211 0.949 . S
H1236 C1213 0.950 . S
H1237 C1215 0.950 . S
C1238 C1239 1.349 . S
C1238 C1240 1.327 . S
C1238 H1263 0.950 . S
C1239 C1238 1.349 . S
C1239 C1255 1.349 . S
C1240 C1238 1.327 . S
C1240 C1259 1.429 . S
C1240 H1264 0.950 . S
C1241 C1258 1.574 . S
C1241 C1260 1.368 . S
C1241 H1265 0.949 . S
H1242 C1246 0.949 . S
C1243 C1244 1.349 . S
C1243 C1245 1.327 . S
C1243 H1266 0.950 . S
C1244 C1243 1.349 . S
C1244 C1256 1.349 . S
C1245 C1243 1.327 . S
C1245 C1261 1.429 . S
C1245 H1267 0.950 . S
C1246 H1242 0.949 . S
C1246 C1254 1.574 . S
C1246 C1262 1.368 . S
H1247 C1255 0.950 . S
H1248 C1253 0.950 . S
H1249 C1254 0.949 . S
H1250 C1256 0.950 . S
H1251 C1257 0.950 . S
H1252 C1258 0.949 . S
C1253 H1248 0.950 . S
C1253 C1255 1.327 . S
C1253 C1259 1.429 . S
C1254 C1246 1.574 . S
C1254 H1249 0.949 . S
C1254 C1260 1.368 . S
C1255 C1239 1.349 . S
C1255 H1247 0.950 . S
C1255 C1253 1.327 . S
C1256 C1244 1.349 . S
C1256 H1250 0.950 . S
C1256 C1257 1.327 . S
C1257 H1251 0.950 . S
C1257 C1256 1.327 . S
C1257 C1261 1.429 . S
C1258 C1241 1.574 . S
C1258 H1252 0.949 . S
C1258 C1262 1.368 . S
C1259 C1240 1.429 . S
C1259 C1253 1.429 . S
C1259 C1260 1.523 . S
C1260 C1241 1.368 . S
C1260 C1254 1.368 . S
C1260 C1259 1.523 . S
C1261 C1245 1.429 . S
C1261 C1257 1.429 . S
C1261 C1262 1.523 . S
C1262 C1246 1.368 . S
C1262 C1258 1.368 . S
C1262 C1261 1.523 . S
H1263 C1238 0.950 . S
H1264 C1240 0.950 . S
H1265 C1241 0.949 . S
H1266 C1243 0.950 . S
H1267 C1245 0.950 . S
C1268 C1269 1.349 . S
C1268 C1270 1.327 . S
C1268 H1293 0.950 . S
C1269 C1268 1.349 . S
C1269 C1285 1.349 . S
C1270 C1268 1.327 . S
C1270 C1289 1.429 . S
C1270 H1294 0.950 . S
C1271 C1288 1.574 . S
C1271 C1290 1.368 . S
C1271 H1295 0.949 . S
H1272 C1276 0.949 . S
C1273 C1274 1.349 . S
C1273 C1275 1.327 . S
C1273 H1296 0.950 . S
C1274 C1273 1.349 . S
C1274 C1286 1.349 . S
C1275 C1273 1.327 . S
C1275 C1291 1.429 . S
C1275 H1297 0.950 . S
C1276 H1272 0.949 . S
C1276 C1284 1.574 . S
C1276 C1292 1.368 . S
H1277 C1285 0.950 . S
H1278 C1283 0.950 . S
H1279 C1284 0.949 . S
H1280 C1286 0.950 . S
H1281 C1287 0.950 . S
H1282 C1288 0.949 . S
C1283 H1278 0.950 . S
C1283 C1285 1.327 . S
C1283 C1289 1.429 . S
C1284 C1276 1.574 . S
C1284 H1279 0.949 . S
C1284 C1290 1.368 . S
C1285 C1269 1.349 . S
C1285 H1277 0.950 . S
C1285 C1283 1.327 . S
C1286 C1274 1.349 . S
C1286 H1280 0.950 . S
C1286 C1287 1.327 . S
C1287 H1281 0.950 . S
C1287 C1286 1.327 . S
C1287 C1291 1.429 . S
C1288 C1271 1.574 . S
C1288 H1282 0.949 . S
C1288 C1292 1.368 . S
C1289 C1270 1.429 . S
C1289 C1283 1.429 . S
C1289 C1290 1.523 . S
C1290 C1271 1.368 . S
C1290 C1284 1.368 . S
C1290 C1289 1.523 . S
C1291 C1275 1.429 . S
C1291 C1287 1.429 . S
C1291 C1292 1.523 . S
C1292 C1276 1.368 . S
C1292 C1288 1.368 . S
C1292 C1291 1.523 . S
H1293 C1268 0.950 . S
H1294 C1270 0.950 . S
H1295 C1271 0.949 . S
H1296 C1273 0.950 . S
H1297 C1275 0.950 . S
C1298 C1299 1.349 . S
C1298 C1300 1.327 . S
C1298 H1323 0.950 . S
C1299 C1298 1.349 . S
C1299 C1315 1.349 . S
C1300 C1298 1.327 . S
C1300 C1319 1.429 . S
C1300 H1324 0.950 . S
C1301 C1318 1.574 . S
C1301 C1320 1.368 . S
C1301 H1325 0.949 . S
H1302 C1306 0.949 . S
C1303 C1304 1.349 . S
C1303 C1305 1.327 . S
C1303 H1326 0.950 . S
C1304 C1303 1.349 . S
C1304 C1316 1.349 . S
C1305 C1303 1.327 . S
C1305 C1321 1.429 . S
C1305 H1327 0.950 . S
C1306 H1302 0.949 . S
C1306 C1314 1.574 . S
C1306 C1322 1.368 . S
H1307 C1315 0.950 . S
H1308 C1313 0.950 . S
H1309 C1314 0.949 . S
H1310 C1316 0.950 . S
H1311 C1317 0.950 . S
H1312 C1318 0.949 . S
C1313 H1308 0.950 . S
C1313 C1315 1.327 . S
C1313 C1319 1.429 . S
C1314 C1306 1.574 . S
C1314 H1309 0.949 . S
C1314 C1320 1.368 . S
C1315 C1299 1.349 . S
C1315 H1307 0.950 . S
C1315 C1313 1.327 . S
C1316 C1304 1.349 . S
C1316 H1310 0.950 . S
C1316 C1317 1.327 . S
C1317 H1311 0.950 . S
C1317 C1316 1.327 . S
C1317 C1321 1.429 . S
C1318 C1301 1.574 . S
C1318 H1312 0.949 . S
C1318 C1322 1.368 . S
C1319 C1300 1.429 . S
C1319 C1313 1.429 . S
C1319 C1320 1.523 . S
C1320 C1301 1.368 . S
C1320 C1314 1.368 . S
C1320 C1319 1.523 . S
C1321 C1305 1.429 . S
C1321 C1317 1.429 . S
C1321 C1322 1.523 . S
C1322 C1306 1.368 . S
C1322 C1318 1.368 . S
C1322 C1321 1.523 . S
H1323 C1298 0.950 . S
H1324 C1300 0.950 . S
H1325 C1301 0.949 . S
H1326 C1303 0.950 . S
H1327 C1305 0.950 . S
C369 N255 1.513 . S
C374 C16 1.613 . S
C399 C39 1.614 . S
C404 N186 1.513 . S
C429 C62 1.614 . S
C434 N209 1.513 . S
C459 N232 1.513 . S
C464 C85 1.613 . S
C489 C108 1.613 . S
C494 N117 1.513 . S
C519 C131 1.614 . S
C524 N140 1.513 . S
C549 N163 1.513 . S
C554 C154 1.614 . S
C579 N94 1.513 . S
C584 C177 1.613 . S
C609 N71 1.513 . S
C614 C200 1.613 . S
C639 C223 1.614 . S
C644 N2 1.513 . S
C669 N25 1.513 . S
C674 C246 1.614 . S
C699 C269 1.613 . S
C704 N48 1.513 . S
C729 C292 1.613 . S
C734 N301 1.513 . S
C759 C315 1.614 . S
C764 N324 1.513 . S
C789 N347 1.513 . S
C794 C338 1.614 . S
C819 N278 1.513 . S
C824 C361 1.613 . S
C849 C99 1.289 . S
C854 C7 1.289 . S
C879 C30 1.289 . S
C884 C122 1.289 . S
C909 C53 1.289 . S
C914 C145 1.289 . S
C939 C168 1.289 . S
C944 C76 1.289 . S
C969 C191 1.289 . S
C974 C283 1.289 . S
C999 C306 1.289 . S
C1004 C214 1.289 . S
C1029 C237 1.289 . S
C1034 C329 1.289 . S
C1059 C352 1.289 . S
C1064 C260 1.289 . S
C1089 N334 1.908 . S
C1094 N12 1.908 . S
C1119 N357 1.908 . S
C1124 N35 1.908 . S
C1149 N58 1.908 . S
C1154 N288 1.908 . S
C1179 N311 1.908 . S
C1184 N81 1.908 . S
C1209 N242 1.908 . S
C1214 N104 1.908 . S
C1239 N265 1.908 . S
C1244 N127 1.908 . S
C1269 N150 1.908 . S
C1274 N196 1.908 . S
C1299 N219 1.908 . S
C1304 N173 1.908 . S
