# Generated by pormake.
# Topology wio, (6)-cn, num edge types: 1
# Building blocks:
#     Node 0, Type 0, BuildingBlock: BETDIP_clean_sbu_0, # of connection points: 6
#     Node 1, Type 0, BuildingBlock: BETDIP_clean_sbu_0, # of connection points: 6
#     Node 2, Type 0, BuildingBlock: BETDIP_clean_sbu_0, # of connection points: 6
#     Node 3, Type 0, BuildingBlock: BETDIP_clean_sbu_0, # of connection points: 6
#     Node 4, Type 0, BuildingBlock: BETDIP_clean_sbu_0, # of connection points: 6
#     Node 5, Type 0, BuildingBlock: BETDIP_clean_sbu_0, # of connection points: 6
#     Node 6, Type 0, BuildingBlock: BETDIP_clean_sbu_0, # of connection points: 6
#     Node 7, Type 0, BuildingBlock: BETDIP_clean_sbu_0, # of connection points: 6
#     Node 8, Type 0, BuildingBlock: BETDIP_clean_sbu_0, # of connection points: 6
#     Node 9, Type 0, BuildingBlock: BETDIP_clean_sbu_0, # of connection points: 6
#     Node 10, Type 0, BuildingBlock: BETDIP_clean_sbu_0, # of connection points: 6
#     Node 11, Type 0, BuildingBlock: BETDIP_clean_sbu_0, # of connection points: 6
#     Node 12, Type 0, BuildingBlock: BETDIP_clean_sbu_0, # of connection points: 6
#     Node 13, Type 0, BuildingBlock: BETDIP_clean_sbu_0, # of connection points: 6
#     Node 14, Type 0, BuildingBlock: BETDIP_clean_sbu_0, # of connection points: 6
#     Node 15, Type 0, BuildingBlock: BETDIP_clean_sbu_0, # of connection points: 6
#     Node 16, Type 0, BuildingBlock: BETDIP_clean_sbu_0, # of connection points: 6
#     Node 17, Type 0, BuildingBlock: BETDIP_clean_sbu_0, # of connection points: 6
#     Node 18, Type 0, BuildingBlock: BETDIP_clean_sbu_0, # of connection points: 6
#     Node 19, Type 0, BuildingBlock: BETDIP_clean_sbu_0, # of connection points: 6
#     Node 20, Type 0, BuildingBlock: BETDIP_clean_sbu_0, # of connection points: 6
#     Node 21, Type 0, BuildingBlock: BETDIP_clean_sbu_0, # of connection points: 6
#     Node 22, Type 0, BuildingBlock: BETDIP_clean_sbu_0, # of connection points: 6
#     Node 23, Type 0, BuildingBlock: BETDIP_clean_sbu_0, # of connection points: 6
#     Node 24, Type 0, BuildingBlock: BETDIP_clean_sbu_0, # of connection points: 6
#     Node 25, Type 0, BuildingBlock: BETDIP_clean_sbu_0, # of connection points: 6
#     Node 26, Type 0, BuildingBlock: BETDIP_clean_sbu_0, # of connection points: 6
#     Node 27, Type 0, BuildingBlock: BETDIP_clean_sbu_0, # of connection points: 6
#     Node 28, Type 0, BuildingBlock: BETDIP_clean_sbu_0, # of connection points: 6
#     Node 29, Type 0, BuildingBlock: BETDIP_clean_sbu_0, # of connection points: 6
#     Node 30, Type 0, BuildingBlock: BETDIP_clean_sbu_0, # of connection points: 6
#     Node 31, Type 0, BuildingBlock: BETDIP_clean_sbu_0, # of connection points: 6
#     Edge 32, Type (0, 0), BuildingBlock: AJUNOK_clean_linker_0, # of connection points: 2
#     Edge 33, Type (0, 0), BuildingBlock: AJUNOK_clean_linker_0, # of connection points: 2
#     Edge 34, Type (0, 0), BuildingBlock: AJUNOK_clean_linker_0, # of connection points: 2
#     Edge 35, Type (0, 0), BuildingBlock: AJUNOK_clean_linker_0, # of connection points: 2
#     Edge 36, Type (0, 0), BuildingBlock: AJUNOK_clean_linker_0, # of connection points: 2
#     Edge 37, Type (0, 0), BuildingBlock: AJUNOK_clean_linker_0, # of connection points: 2
#     Edge 38, Type (0, 0), BuildingBlock: AJUNOK_clean_linker_0, # of connection points: 2
#     Edge 39, Type (0, 0), BuildingBlock: AJUNOK_clean_linker_0, # of connection points: 2
#     Edge 40, Type (0, 0), BuildingBlock: AJUNOK_clean_linker_0, # of connection points: 2
#     Edge 41, Type (0, 0), BuildingBlock: AJUNOK_clean_linker_0, # of connection points: 2
#     Edge 42, Type (0, 0), BuildingBlock: AJUNOK_clean_linker_0, # of connection points: 2
#     Edge 43, Type (0, 0), BuildingBlock: AJUNOK_clean_linker_0, # of connection points: 2
#     Edge 44, Type (0, 0), BuildingBlock: AJUNOK_clean_linker_0, # of connection points: 2
#     Edge 45, Type (0, 0), BuildingBlock: AJUNOK_clean_linker_0, # of connection points: 2
#     Edge 46, Type (0, 0), BuildingBlock: AJUNOK_clean_linker_0, # of connection points: 2
#     Edge 47, Type (0, 0), BuildingBlock: AJUNOK_clean_linker_0, # of connection points: 2
#     Edge 48, Type (0, 0), BuildingBlock: AJUNOK_clean_linker_0, # of connection points: 2
#     Edge 49, Type (0, 0), BuildingBlock: AJUNOK_clean_linker_0, # of connection points: 2
#     Edge 50, Type (0, 0), BuildingBlock: AJUNOK_clean_linker_0, # of connection points: 2
#     Edge 51, Type (0, 0), BuildingBlock: AJUNOK_clean_linker_0, # of connection points: 2
#     Edge 52, Type (0, 0), BuildingBlock: AJUNOK_clean_linker_0, # of connection points: 2
#     Edge 53, Type (0, 0), BuildingBlock: AJUNOK_clean_linker_0, # of connection points: 2
#     Edge 54, Type (0, 0), BuildingBlock: AJUNOK_clean_linker_0, # of connection points: 2
#     Edge 55, Type (0, 0), BuildingBlock: AJUNOK_clean_linker_0, # of connection points: 2
#     Edge 56, Type (0, 0), BuildingBlock: AJUNOK_clean_linker_0, # of connection points: 2
#     Edge 57, Type (0, 0), BuildingBlock: AJUNOK_clean_linker_0, # of connection points: 2
#     Edge 58, Type (0, 0), BuildingBlock: AJUNOK_clean_linker_0, # of connection points: 2
#     Edge 59, Type (0, 0), BuildingBlock: AJUNOK_clean_linker_0, # of connection points: 2
#     Edge 60, Type (0, 0), BuildingBlock: AJUNOK_clean_linker_0, # of connection points: 2
#     Edge 61, Type (0, 0), BuildingBlock: AJUNOK_clean_linker_0, # of connection points: 2
#     Edge 62, Type (0, 0), BuildingBlock: AJUNOK_clean_linker_0, # of connection points: 2
#     Edge 63, Type (0, 0), BuildingBlock: AJUNOK_clean_linker_0, # of connection points: 2
#     Edge 64, Type (0, 0), BuildingBlock: AJUNOK_clean_linker_0, # of connection points: 2
#     Edge 65, Type (0, 0), BuildingBlock: AJUNOK_clean_linker_0, # of connection points: 2
#     Edge 66, Type (0, 0), BuildingBlock: AJUNOK_clean_linker_0, # of connection points: 2
#     Edge 67, Type (0, 0), BuildingBlock: AJUNOK_clean_linker_0, # of connection points: 2
#     Edge 68, Type (0, 0), BuildingBlock: AJUNOK_clean_linker_0, # of connection points: 2
#     Edge 69, Type (0, 0), BuildingBlock: AJUNOK_clean_linker_0, # of connection points: 2
#     Edge 70, Type (0, 0), BuildingBlock: AJUNOK_clean_linker_0, # of connection points: 2
#     Edge 71, Type (0, 0), BuildingBlock: AJUNOK_clean_linker_0, # of connection points: 2
#     Edge 72, Type (0, 0), BuildingBlock: AJUNOK_clean_linker_0, # of connection points: 2
#     Edge 73, Type (0, 0), BuildingBlock: AJUNOK_clean_linker_0, # of connection points: 2
#     Edge 74, Type (0, 0), BuildingBlock: AJUNOK_clean_linker_0, # of connection points: 2
#     Edge 75, Type (0, 0), BuildingBlock: AJUNOK_clean_linker_0, # of connection points: 2
#     Edge 76, Type (0, 0), BuildingBlock: AJUNOK_clean_linker_0, # of connection points: 2
#     Edge 77, Type (0, 0), BuildingBlock: AJUNOK_clean_linker_0, # of connection points: 2
#     Edge 78, Type (0, 0), BuildingBlock: AJUNOK_clean_linker_0, # of connection points: 2
#     Edge 79, Type (0, 0), BuildingBlock: AJUNOK_clean_linker_0, # of connection points: 2
#     Edge 80, Type (0, 0), BuildingBlock: AJUNOK_clean_linker_0, # of connection points: 2
#     Edge 81, Type (0, 0), BuildingBlock: AJUNOK_clean_linker_0, # of connection points: 2
#     Edge 82, Type (0, 0), BuildingBlock: AJUNOK_clean_linker_0, # of connection points: 2
#     Edge 83, Type (0, 0), BuildingBlock: AJUNOK_clean_linker_0, # of connection points: 2
#     Edge 84, Type (0, 0), BuildingBlock: AJUNOK_clean_linker_0, # of connection points: 2
#     Edge 85, Type (0, 0), BuildingBlock: AJUNOK_clean_linker_0, # of connection points: 2
#     Edge 86, Type (0, 0), BuildingBlock: AJUNOK_clean_linker_0, # of connection points: 2
#     Edge 87, Type (0, 0), BuildingBlock: AJUNOK_clean_linker_0, # of connection points: 2
#     Edge 88, Type (0, 0), BuildingBlock: AJUNOK_clean_linker_0, # of connection points: 2
#     Edge 89, Type (0, 0), BuildingBlock: AJUNOK_clean_linker_0, # of connection points: 2
#     Edge 90, Type (0, 0), BuildingBlock: AJUNOK_clean_linker_0, # of connection points: 2
#     Edge 91, Type (0, 0), BuildingBlock: AJUNOK_clean_linker_0, # of connection points: 2
#     Edge 92, Type (0, 0), BuildingBlock: AJUNOK_clean_linker_0, # of connection points: 2
#     Edge 93, Type (0, 0), BuildingBlock: AJUNOK_clean_linker_0, # of connection points: 2
#     Edge 94, Type (0, 0), BuildingBlock: AJUNOK_clean_linker_0, # of connection points: 2
#     Edge 95, Type (0, 0), BuildingBlock: AJUNOK_clean_linker_0, # of connection points: 2
#     Edge 96, Type (0, 0), BuildingBlock: AJUNOK_clean_linker_0, # of connection points: 2
#     Edge 97, Type (0, 0), BuildingBlock: AJUNOK_clean_linker_0, # of connection points: 2
#     Edge 98, Type (0, 0), BuildingBlock: AJUNOK_clean_linker_0, # of connection points: 2
#     Edge 99, Type (0, 0), BuildingBlock: AJUNOK_clean_linker_0, # of connection points: 2
#     Edge 100, Type (0, 0), BuildingBlock: AJUNOK_clean_linker_0, # of connection points: 2
#     Edge 101, Type (0, 0), BuildingBlock: AJUNOK_clean_linker_0, # of connection points: 2
#     Edge 102, Type (0, 0), BuildingBlock: AJUNOK_clean_linker_0, # of connection points: 2
#     Edge 103, Type (0, 0), BuildingBlock: AJUNOK_clean_linker_0, # of connection points: 2
#     Edge 104, Type (0, 0), BuildingBlock: AJUNOK_clean_linker_0, # of connection points: 2
#     Edge 105, Type (0, 0), BuildingBlock: AJUNOK_clean_linker_0, # of connection points: 2
#     Edge 106, Type (0, 0), BuildingBlock: AJUNOK_clean_linker_0, # of connection points: 2
#     Edge 107, Type (0, 0), BuildingBlock: AJUNOK_clean_linker_0, # of connection points: 2
#     Edge 108, Type (0, 0), BuildingBlock: AJUNOK_clean_linker_0, # of connection points: 2
#     Edge 109, Type (0, 0), BuildingBlock: AJUNOK_clean_linker_0, # of connection points: 2
#     Edge 110, Type (0, 0), BuildingBlock: AJUNOK_clean_linker_0, # of connection points: 2
#     Edge 111, Type (0, 0), BuildingBlock: AJUNOK_clean_linker_0, # of connection points: 2
#     Edge 112, Type (0, 0), BuildingBlock: AJUNOK_clean_linker_0, # of connection points: 2
#     Edge 113, Type (0, 0), BuildingBlock: AJUNOK_clean_linker_0, # of connection points: 2
#     Edge 114, Type (0, 0), BuildingBlock: AJUNOK_clean_linker_0, # of connection points: 2
#     Edge 115, Type (0, 0), BuildingBlock: AJUNOK_clean_linker_0, # of connection points: 2
#     Edge 116, Type (0, 0), BuildingBlock: AJUNOK_clean_linker_0, # of connection points: 2
#     Edge 117, Type (0, 0), BuildingBlock: AJUNOK_clean_linker_0, # of connection points: 2
#     Edge 118, Type (0, 0), BuildingBlock: AJUNOK_clean_linker_0, # of connection points: 2
#     Edge 119, Type (0, 0), BuildingBlock: AJUNOK_clean_linker_0, # of connection points: 2
#     Edge 120, Type (0, 0), BuildingBlock: AJUNOK_clean_linker_0, # of connection points: 2
#     Edge 121, Type (0, 0), BuildingBlock: AJUNOK_clean_linker_0, # of connection points: 2
#     Edge 122, Type (0, 0), BuildingBlock: AJUNOK_clean_linker_0, # of connection points: 2
#     Edge 123, Type (0, 0), BuildingBlock: AJUNOK_clean_linker_0, # of connection points: 2
#     Edge 124, Type (0, 0), BuildingBlock: AJUNOK_clean_linker_0, # of connection points: 2
#     Edge 125, Type (0, 0), BuildingBlock: AJUNOK_clean_linker_0, # of connection points: 2
#     Edge 126, Type (0, 0), BuildingBlock: AJUNOK_clean_linker_0, # of connection points: 2
#     Edge 127, Type (0, 0), BuildingBlock: AJUNOK_clean_linker_0, # of connection points: 2
# Relax obj value: 0.217
# Max RMSD: 0.241
# Mean RMSD: 0.241
data_MOF--net-wio--node1-BETDIP_clean_sbu_0--edge1-AJUNOK_clean_linker_0
_symmetry_space_group_name_H-M    P1
_symmetry_Int_Tables_number       1
_symmetry_cell_setting            triclinic
loop_
_symmetry_equiv_pos_as_xyz
'x, y, z'
_cell_length_a     48.8216
_cell_length_b     48.838567
_cell_length_c     40.982897
_cell_angle_alpha  89.906649
_cell_angle_beta   89.926255
_cell_angle_gamma 89.996076
loop_
_atom_site_label
_atom_site_type_symbol
_atom_site_fract_x
_atom_site_fract_y
_atom_site_fract_z
_atom_type_partial_charge
Tb0 Tb 0.16467 0.11207 0.31333 0.0
Tb1 Tb 0.10543 0.12645 0.31708 0.0
C2 C 0.21124 0.09429 0.29824 0.0
C3 C 0.23215 0.10515 0.27614 0.0
C4 C 0.25696 0.09124 0.27168 0.0
C5 C 0.27648 0.10145 0.24982 0.0
C6 C 0.27123 0.12558 0.23222 0.0
C7 C 0.2468 0.13998 0.23772 0.0
C8 C 0.22742 0.12988 0.25961 0.0
C9 C 0.15569 0.16007 0.34022 0.0
C10 C 0.13465 0.13539 0.24893 0.0
C11 C 0.06093 0.14747 0.33679 0.0
C12 C 0.04153 0.14565 0.36495 0.0
C13 C 0.03954 0.16741 0.38742 0.0
C14 C 0.01951 0.16727 0.41214 0.0
C15 C 1.00076 0.14554 0.41471 0.0
C16 C 1.00342 0.12336 0.39298 0.0
C17 C 0.02343 0.12344 0.3684 0.0
C18 C 0.11541 0.07465 0.29847 0.0
C19 C 0.13571 0.09885 0.37856 0.0
O20 O 0.18858 0.08586 0.28439 0.0
O21 O 0.2065 0.10955 0.32374 0.0
O22 O 0.14231 0.1503 0.31622 0.0
O23 O 0.1762 0.14429 0.3463 0.0
O24 O 0.15615 0.12386 0.26291 0.0
O25 O 0.11241 0.14138 0.26639 0.0
O26 O 0.08511 0.15782 0.34257 0.0
O27 O 0.0623 0.12678 0.31659 0.0
O28 O 0.12822 0.08885 0.31889 0.0
O29 O 0.09464 0.08931 0.28907 0.0
O30 O 0.1144 0.11313 0.36784 0.0
O31 O 0.15579 0.09166 0.35882 0.0
H32 H 0.26096 0.07226 0.28455 0.0
H33 H 0.29507 0.08989 0.24551 0.0
H34 H 0.24235 0.15854 0.22421 0.0
H35 H 0.20852 0.14109 0.2632 0.0
H36 H 0.05305 0.18493 0.38535 0.0
H37 H 0.01803 0.18463 0.42847 0.0
H38 H 0.98962 0.10604 0.39466 0.0
H39 H 0.02427 0.10631 0.35168 0.0
Tb40 Tb 0.16775 0.90856 0.55402 0.0
Tb41 Tb 0.15508 0.84874 0.56657 0.0
C42 C 0.18577 0.95386 0.53437 0.0
C43 C 0.17535 0.97709 0.51532 0.0
C44 C 0.19367 0.99246 0.49647 0.0
C45 C 0.18442 1.01506 0.47878 0.0
C46 C 0.15669 0.02289 0.47995 0.0
C47 C 0.13827 1.00723 0.4986 0.0
C48 C 0.14753 0.98447 0.51617 0.0
C49 C 0.11971 0.90005 0.58214 0.0
C50 C 0.14404 0.87285 0.49515 0.0
C51 C 0.13399 0.80581 0.59083 0.0
C52 C 0.13644 0.78576 0.61823 0.0
C53 C 0.13879 0.79382 0.65113 0.0
C54 C 0.13913 0.77413 0.67637 0.0
C55 C 0.1371 0.74595 0.66931 0.0
C56 C 0.13475 0.73812 0.63636 0.0
C57 C 0.13437 0.7577 0.61129 0.0
C58 C 0.20679 0.85825 0.54624 0.0
C59 C 0.1835 0.88497 0.62235 0.0
O60 O 0.1895 0.93088 0.51852 0.0
O61 O 0.17435 0.95011 0.56289 0.0
O62 O 0.13094 0.88485 0.56088 0.0
O63 O 0.13372 0.92239 0.58395 0.0
O64 O 0.1563 0.8955 0.50488 0.0
O65 O 0.13895 0.85226 0.5158 0.0
O66 O 0.12602 0.83071 0.59777 0.0
O67 O 0.15287 0.80556 0.5681 0.0
O68 O 0.19168 0.87303 0.56369 0.0
O69 O 0.19325 0.83561 0.54192 0.0
O70 O 0.16904 0.86269 0.61534 0.0
O71 O 0.18963 0.90316 0.59954 0.0
H72 H 0.21514 0.98691 0.49535 0.0
H73 H 0.19892 0.02609 0.46368 0.0
H74 H 0.11677 1.01263 0.49963 0.0
H75 H 0.13301 0.9727 0.53046 0.0
H76 H 0.14031 0.81531 0.65739 0.0
H77 H 0.14153 0.78095 0.70133 0.0
H78 H 0.13307 0.71669 0.6299 0.0
H79 H 0.13218 0.75084 0.5863 0.0
Tb80 Tb 0.37142 0.91588 0.80514 0.0
Tb81 Tb 0.43166 0.90475 0.81539 0.0
C82 C 0.32514 0.93216 0.7867 0.0
C83 C 0.30262 0.92206 0.76631 0.0
C84 C 0.27595 0.93113 0.77277 0.0
C85 C 0.2541 0.9221 0.75368 0.0
C86 C 0.25857 0.90377 0.72783 0.0
C87 C 0.28529 0.89422 0.72185 0.0
C88 C 0.30717 0.90324 0.74104 0.0
C89 C 0.38181 0.87101 0.83861 0.0
C90 C 0.40557 0.88866 0.74672 0.0
C91 C 0.47554 0.8856 0.83944 0.0
C92 C 0.49363 0.88765 0.86878 0.0
C93 C 0.49832 0.86433 0.88832 0.0
C94 C 0.51782 0.86473 0.91359 0.0
C95 C 0.53339 0.88839 0.91971 0.0
C96 C 0.52783 0.91204 0.90108 0.0
C97 C 0.50831 0.91169 0.87593 0.0
C98 C 0.42057 0.95488 0.79055 0.0
C99 C 0.39762 0.93712 0.86977 0.0
O100 O 0.34807 0.93866 0.77184 0.0
O101 O 0.32925 0.91846 0.81367 0.0
O102 O 0.39567 0.87982 0.8145 0.0
O103 O 0.36006 0.88581 0.84162 0.0
O104 O 0.38219 0.89892 0.75749 0.0
O105 O 0.42782 0.88739 0.76554 0.0
O106 O 0.45146 0.87434 0.84333 0.0
O107 O 0.47461 0.90636 0.81922 0.0
O108 O 0.40689 0.9407 0.81024 0.0
O109 O 0.44305 0.94106 0.78602 0.0
O110 O 0.41903 0.92114 0.86369 0.0
O111 O 0.37877 0.94156 0.84722 0.0
H112 H 0.27206 0.94546 0.79241 0.0
H113 H 0.23372 0.92982 0.75875 0.0
H114 H 0.28944 0.88058 0.70162 0.0
H115 H 0.32763 0.8959 0.73583 0.0
H116 H 0.48747 0.84544 0.88337 0.0
H117 H 0.52153 0.84619 0.92744 0.0
H118 H 0.53905 0.9308 0.90555 0.0
H119 H 0.50526 0.93008 0.8616 0.0
Tb120 Tb 0.36476 0.11755 0.05796 0.0
Tb121 Tb 0.37425 0.17731 0.06738 0.0
C122 C 0.35089 0.07011 1.04133 0.0
C123 C 0.36347 0.04881 1.02138 0.0
C124 C 0.35106 0.02304 1.01914 0.0
C125 C 0.36203 1.00319 0.99845 0.0
C126 C 0.38543 1.00907 0.97981 0.0
C127 C 0.39872 0.03435 0.98356 0.0
C128 C 0.38781 0.05413 1.00432 0.0
C129 C 0.40916 0.12896 0.09181 0.0
C130 C 0.39029 0.15182 0.99856 0.0
C131 C 0.39135 0.22256 0.08983 0.0
C132 C 0.39007 0.24061 0.11925 0.0
C133 C 0.40966 0.23858 0.14444 0.0
C134 C 0.41069 0.25817 0.16961 0.0
C135 C 0.39245 0.28046 0.16988 0.0
C136 C 0.37224 0.28181 0.14546 0.0
C137 C 0.37113 0.26229 0.12048 0.0
C138 C 0.32517 0.16505 1.04092 0.0
C139 C 0.34232 0.14305 0.12187 0.0
O140 O 0.34309 0.09226 1.02576 0.0
O141 O 0.364 0.07565 0.06826 0.0
O142 O 0.40064 0.14233 0.0672 0.0
O143 O 0.39415 0.10748 0.09549 0.0
O144 O 0.38076 0.12819 1.00955 0.0
O145 O 0.3914 0.17396 1.01746 0.0
O146 O 0.40488 0.19953 0.09199 0.0
O147 O 0.36919 0.21989 0.07224 0.0
O148 O 0.33858 0.15211 0.06203 0.0
O149 O 0.33919 0.18724 1.03552 0.0
O150 O 0.35839 0.16445 0.11603 0.0
O151 O 0.33784 0.12465 0.09894 0.0
H152 H 0.33241 0.01863 1.03252 0.0
H153 H 0.35132 0.98392 0.99546 0.0
H154 H 0.41668 0.03926 0.96913 0.0
H155 H 0.39784 0.07385 1.00625 0.0
H156 H 0.4248 0.22236 0.14417 0.0
H157 H 0.42645 0.25652 0.18808 0.0
H158 H 0.35754 0.29843 0.14527 0.0
H159 H 0.35591 0.26473 0.10149 0.0
Tb160 Tb 0.1633 0.91542 0.29255 0.0
Tb161 Tb 0.10324 0.90459 0.28561 0.0
C162 C 0.21041 0.9302 0.30939 0.0
C163 C 0.23138 0.92091 0.33281 0.0
C164 C 0.22743 0.92349 0.36662 0.0
C165 C 0.24813 0.91581 0.38819 0.0
C166 C 0.27298 0.9052 0.3764 0.0
C167 C 0.2767 0.90183 0.34277 0.0
C168 C 0.25609 0.90979 0.32111 0.0
C169 C 0.1516 0.86994 0.2613 0.0
C170 C 0.13098 0.88964 0.3538 0.0
C171 C 0.05859 0.88607 0.26305 0.0
C172 C 0.04122 0.88809 0.23319 0.0
C173 C 0.02961 0.86421 0.21989 0.0
C174 C 1.01119 0.86562 0.19356 0.0
C175 C 1.00387 0.89101 0.17986 0.0
C176 C 1.01628 0.91484 0.19252 0.0
C177 C 0.03473 0.91341 0.21878 0.0
C178 C 0.11527 0.95463 0.30863 0.0
C179 C 0.13688 0.93415 0.22757 0.0
O180 O 0.18789 0.94109 0.32117 0.0
O181 O 0.20563 0.91358 0.28509 0.0
O182 O 0.1388 0.87912 0.286 0.0
O183 O 0.17279 0.88505 0.25585 0.0
O184 O 0.15365 0.9004 0.34158 0.0
O185 O 0.10828 0.88761 0.33579 0.0
O186 O 0.08216 0.87363 0.26007 0.0
O187 O 0.06037 0.90762 0.28188 0.0
O188 O 0.12808 0.94074 0.28781 0.0
O189 O 0.09332 0.94067 0.3156 0.0
O190 O 0.11476 0.91995 0.23621 0.0
O191 O 0.15677 0.9389 0.2486 0.0
H192 H 0.20859 0.93181 0.37645 0.0
H193 H 0.24494 0.91855 0.41416 0.0
H194 H 0.29586 0.89398 0.33325 0.0
H195 H 0.25964 0.90768 0.29513 0.0
H196 H 0.03418 0.84441 0.23053 0.0
H197 H 1.00179 0.84691 0.18491 0.0
H198 H 1.01127 0.93475 0.18249 0.0
H199 H 0.04338 0.9322 0.22827 0.0
Tb200 Tb 0.3666 0.90992 0.54882 0.0
Tb201 Tb 0.37729 0.85094 0.53587 0.0
C202 C 0.34993 0.95527 0.56959 0.0
C203 C 0.36 0.97771 0.59033 0.0
C204 C 0.34432 0.98578 0.61727 0.0
C205 C 0.35252 1.00791 0.63634 0.0
C206 C 0.37648 0.02257 0.62869 0.0
C207 C 0.39237 1.01436 0.60187 0.0
C208 C 0.38424 0.99205 0.58286 0.0
C209 C 0.41277 0.90133 0.51699 0.0
C210 C 0.39159 0.87367 0.60655 0.0
C211 C 0.39516 0.80652 0.51202 0.0
C212 C 0.39596 0.7907 0.48105 0.0
C213 C 0.42085 0.77906 0.47087 0.0
C214 C 0.42188 0.76153 0.44381 0.0
C215 C 0.39802 0.75529 0.4261 0.0
C216 C 0.3732 0.76764 0.43576 0.0
C217 C 0.37217 0.78515 0.4629 0.0
C218 C 0.32691 0.86106 0.55964 0.0
C219 C 0.34906 0.88798 0.48126 0.0
O220 O 0.34453 0.93196 0.58415 0.0
O221 O 0.3622 0.95197 0.5415 0.0
O222 O 0.40325 0.88622 0.53967 0.0
O223 O 0.39801 0.92318 0.51504 0.0
O224 O 0.38194 0.89753 0.59672 0.0
O225 O 0.39311 0.85226 0.58655 0.0
O226 O 0.40934 0.82917 0.51319 0.0
O227 O 0.37162 0.80896 0.52692 0.0
O228 O 0.34089 0.8754 0.5403 0.0
O229 O 0.34126 0.83916 0.56528 0.0
O230 O 0.36451 0.86615 0.48709 0.0
O231 O 0.34265 0.90494 0.5051 0.0
H232 H 0.32556 0.97509 0.62342 0.0
H233 H 0.34007 1.01357 0.65717 0.0
H234 H 0.41076 0.02547 0.59525 0.0
H235 H 0.39674 0.98631 0.56212 0.0
H236 H 0.43948 0.78292 0.48446 0.0
H237 H 0.44132 0.75244 0.43706 0.0
H238 H 0.3543 0.76289 0.42319 0.0
H239 H 0.35263 0.79365 0.47021 0.0
Tb240 Tb 0.37116 0.1159 0.79623 0.0
Tb241 Tb 0.4311 0.12563 0.78802 0.0
C242 C 0.32486 0.09982 0.8148 0.0
C243 C 0.30306 0.11022 0.83636 0.0
C244 C 0.28957 0.09201 0.85733 0.0
C245 C 0.26791 0.10107 0.87679 0.0
C246 C 0.25921 0.12853 0.87555 0.0
C247 C 0.27295 0.14686 0.85475 0.0
C248 C 0.29479 0.13782 0.83544 0.0
C249 C 0.38235 0.16246 0.76675 0.0
C250 C 0.40512 0.13888 0.8574 0.0
C251 C 0.47648 0.14332 0.76654 0.0
C252 C 0.4929 0.1438 0.73582 0.0
C253 C 0.50338 0.16882 0.72426 0.0
C254 C 0.52095 0.1697 0.69711 0.0
C255 C 0.52851 0.14555 0.68069 0.0
C256 C 0.51757 0.12053 0.69198 0.0
C257 C 0.49993 0.11966 0.71908 0.0
C258 C 0.41866 0.07464 0.80801 0.0
C259 C 0.3962 0.10049 0.7292 0.0
O260 O 0.34774 0.0921 0.8288 0.0
O261 O 0.32906 0.11371 0.78795 0.0
O262 O 0.3961 0.15199 0.79003 0.0
O263 O 0.36009 0.14856 0.76305 0.0
O264 O 0.38151 0.13057 0.84519 0.0
O265 O 0.42775 0.13986 0.83924 0.0
O266 O 0.454 0.15787 0.76717 0.0
O267 O 0.47339 0.11982 0.78141 0.0
O268 O 0.40563 0.0897 0.78849 0.0
O269 O 0.44025 0.08845 0.8166 0.0
O270 O 0.41859 0.11397 0.73798 0.0
O271 O 0.37682 0.09461 0.75059 0.0
H272 H 0.29566 0.0707 0.85847 0.0
H273 H 0.25799 0.08656 0.89297 0.0
H274 H 0.26655 0.16804 0.853 0.0
H275 H 0.30495 0.15233 0.81948 0.0
H276 H 0.49844 0.18774 0.73672 0.0
H277 H 0.52888 0.18932 0.68916 0.0
H278 H 0.52339 0.10139 0.68061 0.0
H279 H 0.49237 0.1 0.72738 0.0
Tb280 Tb 0.16316 0.11915 1.03879 0.0
Tb281 Tb 0.1549 0.17955 1.03681 0.0
C282 C 0.17691 0.07073 0.05219 0.0
C283 C 0.16812 0.04919 0.07499 0.0
C284 C 0.17746 0.02237 0.0703 0.0
C285 C 0.16943 1.0015 0.09161 0.0
C286 C 0.15188 1.00709 0.118 0.0
C287 C 0.14216 0.03397 0.12231 0.0
C288 C 0.15011 0.05484 0.10084 0.0
C289 C 0.11628 0.13408 1.01288 0.0
C290 C 0.14555 0.15048 0.10494 0.0
C291 C 0.13789 0.22608 1.0184 0.0
C292 C 0.13632 0.24247 0.98769 0.0
C293 C 0.11186 0.2561 0.97977 0.0
C294 C 0.11031 0.27335 0.95236 0.0
C295 C 0.13321 0.27742 0.93199 0.0
C296 C 0.15758 0.26325 0.93959 0.0
C297 C 0.15909 0.24594 0.96699 0.0
C298 C 0.20537 0.16479 0.05496 0.0
C299 C 0.17916 0.14766 0.97427 0.0
O300 O 0.18869 0.09233 0.06489 0.0
O301 O 0.15917 0.07718 1.02965 0.0
O302 O 0.12769 0.14536 1.03723 0.0
O303 O 0.1296 0.11227 1.00507 0.0
O304 O 0.15308 0.12784 0.08969 0.0
O305 O 0.14235 0.17388 0.0886 0.0
O306 O 0.12232 0.20435 1.02034 0.0
O307 O 0.16213 0.22171 1.03091 0.0
O308 O 0.19023 0.15341 1.03406 0.0
O309 O 0.19202 0.1859 0.06603 0.0
O310 O 0.16658 0.16984 0.98559 0.0
O311 O 0.18411 0.12648 0.99334 0.0
H312 H 0.19115 0.01761 1.05027 0.0
H313 H 0.17724 0.981 0.08771 0.0
H314 H 0.12915 0.03906 0.14285 0.0
H315 H 0.14246 0.07539 0.10466 0.0
H316 H 0.09398 0.25383 0.99523 0.0
H317 H 0.09121 0.28381 0.94733 0.0
H318 H 0.17586 0.26629 0.92504 0.0
H319 H 0.17829 0.23577 0.97235 0.0
Tb320 Tb 0.9328 0.90738 0.78613 0.0
Tb321 Tb 0.872 0.9148 0.79369 0.0
C322 C 0.97851 0.89063 0.7644 0.0
C323 C 0.99572 0.89131 0.7341 0.0
C324 C 1.00046 0.86711 0.71619 0.0
C325 C 0.0194 0.86657 0.69023 0.0
C326 C 0.03435 0.89015 0.68175 0.0
C327 C 0.02868 0.91461 0.69868 0.0
C328 C 1.00974 0.91519 0.72449 0.0
C329 C 0.91818 0.95726 0.80665 0.0
C330 C 0.89711 0.93188 0.72692 0.0
C331 C 0.82478 0.92998 0.81009 0.0
C332 C 0.80277 0.92103 0.832 0.0
C333 C 0.77611 0.93043 0.82633 0.0
C334 C 0.75471 0.9224 0.84682 0.0
C335 C 0.75966 0.90477 0.87327 0.0
C336 C 0.78639 0.89494 0.87854 0.0
C337 C 0.80781 0.90296 0.85794 0.0
C338 C 0.88614 0.86841 0.76612 0.0
C339 C 0.90642 0.89326 0.85539 0.0
O340 O 0.95599 0.87615 0.76377 0.0
O341 O 0.97526 0.91339 0.78078 0.0
O342 O 0.90574 0.94206 0.78673 0.0
O343 O 0.94065 0.94462 0.8147 0.0
O344 O 0.92028 0.91989 0.73614 0.0
O345 O 0.8769 0.93585 0.74775 0.0
O346 O 0.84724 0.9392 0.82376 0.0
O347 O 0.82975 0.9137 0.78552 0.0
O348 O 0.89878 0.88015 0.7892 0.0
O349 O 0.86321 0.88083 0.76103 0.0
O350 O 0.88267 0.90123 0.84307 0.0
O351 O 0.92918 0.89267 0.83732 0.0
H352 H 0.99015 0.8483 0.72298 0.0
H353 H 0.02321 0.84743 0.67772 0.0
H354 H 0.03943 0.9333 0.69241 0.0
H355 H 1.0067 0.93424 0.73749 0.0
H356 H 0.77187 0.9442 0.8062 0.0
H357 H 0.73432 0.93028 0.84228 0.0
H358 H 0.7909 0.88181 0.89917 0.0
H359 H 0.82829 0.8954 0.86252 0.0
Tb360 Tb 0.87622 0.17788 0.5325 0.0
Tb361 Tb 0.86622 0.11747 0.53748 0.0
C362 C 0.89455 0.22319 0.51146 0.0
C363 C 0.89329 0.24135 0.48204 0.0
C364 C 0.91725 0.24676 0.46388 0.0
C365 C 0.91737 0.26647 0.43877 0.0
C366 C 0.89361 0.28152 0.43146 0.0
C367 C 0.86936 0.27521 0.44861 0.0
C368 C 0.86918 0.25544 0.47354 0.0
C369 C 0.82599 0.16463 0.55422 0.0
C370 C 0.84808 0.1451 0.47304 0.0
C371 C 0.8522 0.06993 0.55407 0.0
C372 C 0.86157 0.04899 0.57775 0.0
C373 C 0.84697 0.04486 0.60686 0.0
C374 C 0.85486 0.02439 0.62871 0.0
C375 C 0.8774 1.0074 0.62185 0.0
C376 C 0.89216 1.01157 0.59286 0.0
C377 C 0.88431 0.03214 0.57099 0.0
C378 C 0.91238 0.13065 0.5082 0.0
C379 C 0.88804 0.14978 0.60077 0.0
O380 O 0.90755 0.1999 0.50858 0.0
O381 O 0.87255 0.22073 0.52951 0.0
O382 O 0.84031 0.1524 0.53325 0.0
O383 O 0.83954 0.18661 0.56195 0.0
O384 O 0.86178 0.16722 0.48259 0.0
O385 O 0.84334 0.12462 0.49335 0.0
O386 O 0.84092 0.09215 0.566 0.0
O387 O 0.86861 0.07526 0.52963 0.0
O388 O 0.90216 0.1427 0.53285 0.0
O389 O 0.89786 0.10927 0.50173 0.0
O390 O 0.87904 0.12704 0.58704 0.0
O391 O 0.89138 0.17263 0.58335 0.0
H392 H 0.9362 0.23636 0.46985 0.0
H393 H 0.93636 0.27082 0.42608 0.0
H394 H 0.85058 0.28613 0.44325 0.0
H395 H 0.85029 0.25184 0.48675 0.0
H396 H 0.82924 0.0573 0.61262 0.0
H397 H 0.84322 0.02174 0.65103 0.0
H398 H 0.90934 0.99851 0.58674 0.0
H399 H 0.89585 0.03454 0.54859 0.0
Tb400 Tb 0.59854 0.12635 0.28851 0.0
Tb401 Tb 0.65909 0.11863 0.2931 0.0
C402 C 0.55189 0.14383 0.27092 0.0
C403 C 0.53282 0.14469 0.24269 0.0
C404 C 0.54134 0.13995 0.21035 0.0
C405 C 0.52225 0.14065 0.18454 0.0
C406 C 0.49433 0.14611 0.1906 0.0
C407 C 0.48622 0.15144 0.22296 0.0
C408 C 0.50517 0.15074 0.24856 0.0
C409 C 0.61319 0.07633 0.30876 0.0
C410 C 0.63192 0.10173 0.22782 0.0
C411 C 0.70717 0.1043 0.30675 0.0
C412 C 0.72987 0.11427 0.32688 0.0
C413 C 0.72547 0.13261 0.35268 0.0
C414 C 0.74749 0.14136 0.37183 0.0
C415 C 0.77418 0.13199 0.36526 0.0
C416 C 0.77851 0.11436 0.33868 0.0
C417 C 0.75653 0.10561 0.31965 0.0
C418 C 0.64439 0.16509 0.26586 0.0
C419 C 0.62686 0.13997 0.35648 0.0
O420 O 0.57452 0.15802 0.26873 0.0
O421 O 0.5559 0.12015 0.28504 0.0
O422 O 0.62516 0.09121 0.28798 0.0
O423 O 0.59148 0.08955 0.31822 0.0
O424 O 0.60922 0.11411 0.23786 0.0
O425 O 0.65237 0.09697 0.24803 0.0
O426 O 0.68547 0.09501 0.32212 0.0
O427 O 0.70087 0.11985 0.28192 0.0
O428 O 0.63259 0.15367 0.28984 0.0
O429 O 0.66682 0.15224 0.25942 0.0
O430 O 0.65019 0.13193 0.3431 0.0
O431 O 0.60367 0.14075 0.33942 0.0
H432 H 0.56259 0.13535 0.20512 0.0
H433 H 0.52917 0.13602 0.16005 0.0
H434 H 0.46498 0.15582 0.22858 0.0
H435 H 0.49811 0.1547 0.27318 0.0
H436 H 0.70502 0.1397 0.35839 0.0
H437 H 0.74346 0.15447 0.39258 0.0
H438 H 0.79886 0.10681 0.33316 0.0
H439 H 0.76029 0.09171 0.29955 0.0
Tb440 Tb 0.65668 0.85258 1.03628 0.0
Tb441 Tb 0.66628 0.91275 1.04707 0.0
C442 C 0.63823 0.80834 1.01245 0.0
C443 C 0.63952 0.79129 0.98227 0.0
C444 C 0.61526 0.78002 0.96948 0.0
C445 C 0.61601 0.76141 0.94332 0.0
C446 C 0.6411 0.75353 0.92927 0.0
C447 C 0.66529 0.7657 0.9413 0.0
C448 C 0.66453 0.78433 0.9674 0.0
C449 C 0.70715 0.86455 0.05856 0.0
C450 C 0.68464 0.88874 0.98015 0.0
C451 C 0.6811 0.95948 0.06554 0.0
C452 C 0.67019 0.98171 0.08602 0.0
C453 C 0.67202 1.00872 0.07456 0.0
C454 C 0.66226 0.03042 0.09341 0.0
C455 C 0.65069 0.02552 0.12426 0.0
C456 C 0.64802 0.99835 0.13528 0.0
C457 C 0.65766 0.97657 0.11629 0.0
C458 C 0.62013 0.90146 1.01651 0.0
C459 C 0.64278 0.87692 0.10651 0.0
O460 O 0.62556 0.83186 1.0105 0.0
O461 O 0.66021 0.80992 1.0306 0.0
O462 O 0.69239 0.87832 1.03947 0.0
O463 O 0.69379 0.84197 0.06409 0.0
O464 O 0.67051 0.86632 0.98741 0.0
O465 O 0.6897 0.90753 1.00254 0.0
O466 O 0.6887 0.93676 0.08008 0.0
O467 O 0.66757 0.95498 1.03861 0.0
O468 O 0.63065 0.88758 1.03956 0.0
O469 O 0.63393 0.92381 1.0133 0.0
O470 O 0.65214 0.9007 0.09583 0.0
O471 O 0.64106 0.8551 0.08709 0.0
H472 H 0.59569 0.78491 0.98051 0.0
H473 H 0.59704 0.75222 0.93515 0.0
H474 H 0.68499 0.76027 0.93099 0.0
H475 H 0.6836 0.79267 0.97651 0.0
H476 H 0.68126 1.01306 0.05105 0.0
H477 H 0.66417 0.05111 0.0841 0.0
H478 H 0.6393 0.99401 0.15906 0.0
H479 H 0.65567 0.95586 0.12547 0.0
Tb480 Tb 0.93123 0.12719 0.81229 0.0
Tb481 Tb 0.87061 0.11945 0.8099 0.0
C482 C 0.97772 0.14365 0.83151 0.0
C483 C 0.99409 0.14396 0.86235 0.0
C484 C 1.00325 0.16901 0.87527 0.0
C485 C 0.02034 0.16976 0.90286 0.0
C486 C 0.02876 0.14544 0.91841 0.0
C487 C 0.01927 0.12036 0.90564 0.0
C488 C 1.00213 0.11963 0.87812 0.0
C489 C 0.91606 0.07703 0.79334 0.0
C490 C 0.89854 0.10326 0.87445 0.0
C491 C 0.82225 0.1062 0.79588 0.0
C492 C 0.80066 0.11484 0.77275 0.0
C493 C 0.79539 0.09898 0.74494 0.0
C494 C 0.77432 0.10614 0.72361 0.0
C495 C 0.7578 0.12915 0.72978 0.0
C496 C 0.76301 0.14508 0.75757 0.0
C497 C 0.78424 0.13799 0.77888 0.0
C498 C 0.88604 0.16612 0.83559 0.0
C499 C 0.90229 0.13778 0.74433 0.0
O500 O 0.95591 0.15918 0.83045 0.0
O501 O 0.97349 0.12002 0.81739 0.0
O502 O 0.9046 0.09209 0.81431 0.0
O503 O 0.93795 0.0899 0.78367 0.0
O504 O 0.92081 0.11592 0.86345 0.0
O505 O 0.87764 0.09819 0.85507 0.0
O506 O 0.84389 0.09425 0.78347 0.0
O507 O 0.82861 0.12337 0.81911 0.0
O508 O 0.89716 0.15453 0.81129 0.0
O509 O 0.86407 0.1531 0.84361 0.0
O510 O 0.87952 0.13028 0.75938 0.0
O511 O 0.92572 0.1405 0.76072 0.0
H512 H 0.99754 0.18812 0.86365 0.0
H513 H 0.02716 0.18944 0.91189 0.0
H514 H 0.02581 0.10113 0.91623 0.0
H515 H 0.99568 0.09991 0.86884 0.0
H516 H 0.80745 0.08087 0.73976 0.0
H517 H 0.77091 0.0936 0.70221 0.0
H518 H 0.75033 0.16264 0.7632 0.0
H519 H 0.7875 0.15046 0.80035 0.0
Tb520 Tb 0.65624 0.18132 0.56626 0.0
Tb521 Tb 0.66368 0.1208 0.55946 0.0
C522 C 0.6399 0.22729 0.58737 0.0
C523 C 0.64026 0.24416 0.61784 0.0
C524 C 0.61565 0.24998 0.63451 0.0
C525 C 0.61506 0.26876 0.66056 0.0
C526 C 0.63903 0.28241 0.6703 0.0
C527 C 0.66382 0.2756 0.65466 0.0
C528 C 0.66445 0.2568 0.62881 0.0
C529 C 0.7059 0.1668 0.54477 0.0
C530 C 0.68121 0.1464 0.62552 0.0
C531 C 0.67824 0.07318 0.54402 0.0
C532 C 0.66895 0.05093 0.5228 0.0
C533 C 0.6792 0.02452 0.52806 0.0
C534 C 0.67106 1.00294 0.50804 0.0
C535 C 0.65246 1.00743 0.48245 0.0
C536 C 0.64163 0.03384 0.47777 0.0
C537 C 0.64976 0.05547 0.49791 0.0
C538 C 0.61743 0.13506 0.58757 0.0
C539 C 0.64229 0.15493 0.49743 0.0
O540 O 0.62482 0.20515 0.58733 0.0
O541 O 0.66303 0.22357 0.57184 0.0
O542 O 0.69121 0.1545 0.56546 0.0
O543 O 0.69278 0.18886 0.53626 0.0
O544 O 0.66857 0.16918 0.61631 0.0
O545 O 0.68559 0.12629 0.60471 0.0
O546 O 0.68762 0.09532 0.52971 0.0
O547 O 0.66216 0.07871 0.56864 0.0
O548 O 0.62884 0.14742 0.56399 0.0
O549 O 0.63014 0.11236 0.59305 0.0
O550 O 0.65026 0.13119 0.50981 0.0
O551 O 0.64147 0.17764 0.51539 0.0
H552 H 0.59662 0.24071 0.62664 0.0
H553 H 0.59566 0.27356 0.67205 0.0
H554 H 0.68273 0.28549 0.66186 0.0
H555 H 0.68383 0.25287 0.6168 0.0
H556 H 0.6938 0.02066 0.54742 0.0
H557 H 0.67972 0.9828 0.51213 0.0
H558 H 0.62772 0.03799 0.45779 0.0
H559 H 0.64147 0.07574 0.49372 0.0
Tb560 Tb 0.60311 0.90566 0.31701 0.0
Tb561 Tb 0.663 0.91769 0.3072 0.0
C562 C 0.55905 0.88614 0.34039 0.0
C563 C 0.54134 0.88778 0.37007 0.0
C564 C 0.53013 0.86363 0.38329 0.0
C565 C 0.51137 0.86458 0.40935 0.0
C566 C 0.50329 0.88978 0.42293 0.0
C567 C 0.51528 0.9139 0.41033 0.0
C568 C 0.53406 0.91293 0.3843 0.0
C569 C 0.61386 0.95653 0.29507 0.0
C570 C 0.63778 0.93404 0.37413 0.0
C571 C 0.70883 0.93552 0.28924 0.0
C572 C 0.73131 0.92665 0.26796 0.0
C573 C 0.75825 0.933 0.27691 0.0
C574 C 0.78016 0.92482 0.25732 0.0
C575 C 0.77541 0.91028 0.22835 0.0
C576 C 0.74842 0.90318 0.21992 0.0
C577 C 0.72648 0.9113 0.23961 0.0
C578 C 0.65339 0.87105 0.33735 0.0
C579 C 0.62928 0.89194 0.24748 0.0
O580 O 0.58304 0.87462 0.34372 0.0
O581 O 0.56016 0.90749 0.32111 0.0
O582 O 0.62756 0.94216 0.31454 0.0
O583 O 0.59169 0.94264 0.28921 0.0
O584 O 0.61579 0.91948 0.36628 0.0
O585 O 0.65664 0.94 0.3521 0.0
O586 O 0.68568 0.9425 0.27524 0.0
O587 O 0.70517 0.92051 0.31529 0.0
O588 O 0.63923 0.88094 0.31413 0.0
O589 O 0.67508 0.88585 0.34098 0.0
O590 O 0.65243 0.9024 0.25865 0.0
O591 O 0.60711 0.88966 0.2664 0.0
H592 H 0.5353 0.84395 0.37277 0.0
H593 H 0.50232 0.84564 0.41791 0.0
H594 H 0.50973 0.93368 0.42026 0.0
H595 H 0.54238 0.93192 0.37485 0.0
H596 H 0.76234 0.94446 0.299 0.0
H597 H 0.8008 0.9302 0.26457 0.0
H598 H 0.74425 0.89211 0.19759 0.0
H599 H 0.70583 0.9059 0.23251 0.0
Tb600 Tb 0.87814 0.85574 0.06695 0.0
Tb601 Tb 0.86744 0.91508 0.05553 0.0
C602 C 0.89692 0.81152 0.09071 0.0
C603 C 0.89525 0.79397 0.12042 0.0
C604 C 0.91923 0.78172 0.13268 0.0
C605 C 0.91808 0.76288 0.15863 0.0
C606 C 0.89286 0.75579 0.17296 0.0
C607 C 0.86899 0.76892 0.16143 0.0
C608 C 0.87016 0.78781 0.13556 0.0
C609 C 0.82733 0.86635 1.04496 0.0
C610 C 0.85073 0.89192 0.12319 0.0
C611 C 0.85149 0.96141 1.03682 0.0
C612 C 0.86236 0.98388 1.01676 0.0
C613 C 0.85709 1.0109 1.02631 0.0
C614 C 0.86721 0.03279 1.00801 0.0
C615 C 0.88281 0.02804 0.97975 0.0
C616 C 0.88863 1.00088 0.97061 0.0
C617 C 0.8786 0.97894 0.98909 0.0
C618 C 0.9141 0.90549 0.08584 0.0
C619 C 0.89192 0.87984 0.99654 0.0
O620 O 0.90877 0.83533 0.09382 0.0
O621 O 0.87542 0.8129 0.07176 0.0
O622 O 0.84163 0.88049 0.06412 0.0
O623 O 0.84151 0.84449 1.03855 0.0
O624 O 0.86462 0.86938 0.11598 0.0
O625 O 0.84484 0.91017 0.10048 0.0
O626 O 0.84489 0.93854 1.022 0.0
O627 O 0.86463 0.95716 0.06407 0.0
O628 O 0.90404 0.89098 0.06305 0.0
O629 O 0.89957 0.92739 0.08869 0.0
O630 O 0.88174 0.90335 1.00684 0.0
O631 O 0.89423 0.85829 1.01634 0.0
H632 H 0.93885 0.78608 0.12144 0.0
H633 H 0.93679 0.75293 0.16643 0.0
H634 H 0.84922 0.76409 0.172 0.0
H635 H 0.85134 0.79703 0.12689 0.0
H636 H 0.84489 1.01507 1.04786 0.0
H637 H 0.86238 0.05349 1.01556 0.0
H638 H 0.90003 0.99656 0.94852 0.0
H639 H 0.88319 0.95821 0.98149 0.0
Tb640 Tb 0.6638 0.61649 0.80522 0.0
Tb641 Tb 0.60416 0.62608 0.81446 0.0
C642 C 0.71038 0.60057 0.78716 0.0
C643 C 0.73267 0.61065 0.76627 0.0
C644 C 0.75954 0.60231 0.77291 0.0
C645 C 0.78121 0.61158 0.75357 0.0
C646 C 0.77635 0.62946 0.72731 0.0
C647 C 0.74941 0.63825 0.72111 0.0
C648 C 0.72772 0.62896 0.74053 0.0
C649 C 0.65326 0.66198 0.83723 0.0
C650 C 0.62937 0.64114 0.74524 0.0
C651 C 0.55822 0.64187 0.83647 0.0
C652 C 0.54245 0.64367 0.86764 0.0
C653 C 0.53242 0.66921 0.87804 0.0
C654 C 0.51456 0.67116 0.90482 0.0
C655 C 0.5061 0.64758 0.92189 0.0
C656 C 0.51719 0.62215 0.91244 0.0
C657 C 0.53503 0.62019 0.88559 0.0
C658 C 0.61666 0.57596 0.79144 0.0
C659 C 0.63925 0.59941 0.87171 0.0
O660 O 0.68755 0.59324 0.77274 0.0
O661 O 0.70602 0.61488 0.81355 0.0
O662 O 0.63919 0.65279 0.81345 0.0
O663 O 0.67509 0.64732 0.84029 0.0
O664 O 0.65308 0.63245 0.75691 0.0
O665 O 0.60688 0.64154 0.76366 0.0
O666 O 0.57942 0.65793 0.83295 0.0
O667 O 0.56276 0.61759 0.82427 0.0
O668 O 0.6295 0.59016 0.81189 0.0
O669 O 0.59499 0.59009 0.78399 0.0
O670 O 0.61759 0.61448 0.86415 0.0
O671 O 0.65765 0.59304 0.84937 0.0
H672 H 0.76374 0.5884 0.79292 0.0
H673 H 0.80175 0.60444 0.7588 0.0
H674 H 0.74498 0.6515 0.70056 0.0
H675 H 0.7071 0.63574 0.73518 0.0
H676 H 0.53775 0.68767 0.86477 0.0
H677 H 0.50688 0.69113 0.91174 0.0
H678 H 0.5111 0.60356 0.92493 0.0
H679 H 0.54226 0.60015 0.87829 0.0
Tb680 Tb 0.66498 0.41345 0.05805 0.0
Tb681 Tb 0.65474 0.35364 0.0677 0.0
C682 C 0.68159 0.45966 1.03975 0.0
C683 C 0.67174 0.48216 1.01921 0.0
C684 C 0.68119 0.50872 1.02531 0.0
C685 C 0.67265 0.53048 1.00572 0.0
C686 C 0.65448 0.52598 0.97972 0.0
C687 C 0.64443 0.4994 0.97422 0.0
C688 C 0.65293 0.47763 0.99393 0.0
C689 C 0.61914 0.40314 0.08963 0.0
C690 C 0.64029 0.37925 0.99816 0.0
C691 C 0.6369 0.30857 0.09003 0.0
C692 C 0.63636 0.29206 0.12069 0.0
C693 C 0.61123 0.2819 0.13236 0.0
C694 C 0.61024 0.264 0.1592 0.0
C695 C 0.63438 0.25578 0.17522 0.0
C696 C 0.65952 0.26648 0.16391 0.0
C697 C 0.6605 0.28441 0.13708 0.0
C698 C 0.70517 0.36532 1.0452 0.0
C699 C 0.68238 0.38879 0.12466 0.0
O700 O 0.688 0.43675 1.02493 0.0
O701 O 0.66766 0.45558 0.06655 0.0
O702 O 0.6287 0.38899 0.06614 0.0
O703 O 0.63359 0.42512 0.0925 0.0
O704 O 0.64925 0.40285 1.00971 0.0
O705 O 0.63943 0.35683 1.01675 0.0
O706 O 0.62263 0.3312 0.08951 0.0
O707 O 0.66032 0.31138 0.07492 0.0
O708 O 0.6908 0.37876 0.065 0.0
O709 O 0.69125 0.34338 1.03839 0.0
O710 O 0.66779 0.36674 0.11714 0.0
O711 O 0.68819 0.40743 0.10234 0.0
H712 H 0.69551 0.51256 1.04496 0.0
H713 H 0.68072 0.55076 1.01041 0.0
H714 H 0.6309 0.49524 0.95389 0.0
H715 H 0.64528 0.45724 0.98903 0.0
H716 H 0.5923 0.2873 0.12016 0.0
H717 H 0.59054 0.25627 0.16717 0.0
H718 H 0.67863 0.26018 0.175 0.0
H719 H 0.68024 0.29168 0.12867 0.0
Tb720 Tb 0.87118 0.41687 0.30663 0.0
Tb721 Tb 0.93125 0.4071 0.31446 0.0
C722 C 0.82443 0.43306 0.28977 0.0
C723 C 0.80191 0.4235 0.26904 0.0
C724 C 0.77531 0.43274 0.27554 0.0
C725 C 0.75341 0.42402 0.25633 0.0
C726 C 0.75775 0.40581 0.23033 0.0
C727 C 0.78441 0.39606 0.22431 0.0
C728 C 0.80634 0.40479 0.24362 0.0
C729 C 0.88263 0.37132 0.33807 0.0
C730 C 0.90455 0.39178 0.24611 0.0
C731 C 0.97704 0.39024 0.33568 0.0
C732 C 0.9936 0.38965 0.36625 0.0
C733 C 1.00632 0.36511 0.37586 0.0
C734 C 0.02419 0.3644 0.40269 0.0
C735 C 0.02977 0.38822 0.4208 0.0
C736 C 1.0165 0.4127 0.41159 0.0
C737 C 0.99866 0.41341 0.38469 0.0
C738 C 0.91861 0.45718 0.29175 0.0
C739 C 0.89683 0.43389 0.3726 0.0
O740 O 0.8471 0.4407 0.2751 0.0
O741 O 0.82905 0.41816 0.31566 0.0
O742 O 0.89611 0.38088 0.31403 0.0
O743 O 0.86061 0.38558 0.34184 0.0
O744 O 0.88111 0.40083 0.25815 0.0
O745 O 0.92731 0.39119 0.26401 0.0
O746 O 0.95492 0.37515 0.33477 0.0
O747 O 0.97334 0.41392 0.32143 0.0
O748 O 0.90584 0.44302 0.31248 0.0
O749 O 0.94013 0.44305 0.2836 0.0
O750 O 0.91889 0.41963 0.36431 0.0
O751 O 0.87768 0.43969 0.35098 0.0
H752 H 0.77151 0.44695 0.29532 0.0
H753 H 0.7331 0.43187 0.26144 0.0
H754 H 0.78845 0.3825 0.20398 0.0
H755 H 0.82674 0.39728 0.23842 0.0
H756 H 1.00294 0.34651 0.36206 0.0
H757 H 0.03396 0.3452 0.40902 0.0
H758 H 0.02071 0.43161 0.4244 0.0
H759 H 0.98942 0.43273 0.37783 0.0
Tb760 Tb 0.86821 0.62476 0.55422 0.0
Tb761 Tb 0.87522 0.68488 0.56285 0.0
C762 C 0.85388 0.57778 0.53619 0.0
C763 C 0.86368 0.55571 0.51453 0.0
C764 C 0.84991 0.55072 0.48514 0.0
C765 C 0.85753 0.52881 0.46539 0.0
C766 C 0.87895 0.51123 0.4747 0.0
C767 C 0.89304 0.51633 0.50388 0.0
C768 C 0.88545 0.53838 0.52369 0.0
C769 C 0.91404 0.63794 0.58388 0.0
C770 C 0.88962 0.66004 0.49325 0.0
C771 C 0.89031 0.73112 0.58429 0.0
C772 C 0.89208 0.74644 0.61571 0.0
C773 C 0.91744 0.75693 0.6261 0.0
C774 C 0.91922 0.77388 0.65369 0.0
C775 C 0.89565 0.78078 0.67174 0.0
C776 C 0.87034 0.76977 0.66169 0.0
C777 C 0.86858 0.7528 0.63414 0.0
C778 C 0.82559 0.67059 0.5408 0.0
C779 C 0.85072 0.64859 0.62093 0.0
O780 O 0.84534 0.60037 0.52215 0.0
O781 O 0.8682 0.58254 0.56252 0.0
O782 O 0.90318 0.65121 0.56055 0.0
O783 O 0.90131 0.61499 0.58757 0.0
O784 O 0.88232 0.63595 0.50517 0.0
O785 O 0.88956 0.68252 0.5116 0.0
O786 O 0.90692 0.7104 0.58017 0.0
O787 O 0.86595 0.72605 0.5726 0.0
O788 O 0.84038 0.65804 0.56109 0.0
O789 O 0.83873 0.69279 0.53289 0.0
O790 O 0.8643 0.67115 0.61284 0.0
O791 O 0.84548 0.62957 0.59901 0.0
H792 H 0.83294 0.56356 0.47762 0.0
H793 H 0.84651 0.52548 0.4428 0.0
H794 H 0.90942 0.50291 0.51175 0.0
H795 H 0.89632 0.54149 0.5464 0.0
H796 H 0.93589 0.75258 0.61233 0.0
H797 H 0.93903 0.78194 0.66064 0.0
H798 H 0.85161 0.77511 0.67434 0.0
H799 H 0.84864 0.74534 0.62678 0.0
Tb800 Tb 0.66128 0.41559 0.79669 0.0
Tb801 Tb 0.60108 0.40529 0.7865 0.0
C802 C 0.70744 0.43292 0.81389 0.0
C803 C 0.73008 0.42385 0.83471 0.0
C804 C 0.75683 0.4315 0.8263 0.0
C805 C 0.77889 0.42318 0.84549 0.0
C806 C 0.77448 0.4072 0.87352 0.0
C807 C 0.74772 0.39875 0.88129 0.0
C808 C 0.72562 0.40699 0.86195 0.0
C809 C 0.65069 0.36871 0.76764 0.0
C810 C 0.62611 0.3923 0.85679 0.0
C811 C 0.55666 0.38669 0.76342 0.0
C812 C 0.5397 0.38849 0.73326 0.0
C813 C 0.52712 0.36477 0.72089 0.0
C814 C 0.50893 0.36622 0.69435 0.0
C815 C 0.50285 0.3915 0.67952 0.0
C816 C 0.51629 0.41509 0.69123 0.0
C817 C 0.53448 0.41363 0.71771 0.0
C818 C 0.61315 0.45619 0.80693 0.0
C819 C 0.63701 0.43137 0.72886 0.0
O820 O 0.68451 0.44002 0.82836 0.0
O821 O 0.70337 0.41793 0.78798 0.0
O822 O 0.63635 0.37962 0.79006 0.0
O823 O 0.67323 0.38232 0.76486 0.0
O824 O 0.64977 0.40179 0.8458 0.0
O825 O 0.6042 0.39018 0.83752 0.0
O826 O 0.58021 0.37408 0.7611 0.0
O827 O 0.55832 0.4085 0.78182 0.0
O828 O 0.6266 0.44106 0.78799 0.0
O829 O 0.59081 0.44288 0.81386 0.0
O830 O 0.61436 0.41795 0.73698 0.0
O831 O 0.65602 0.43687 0.75079 0.0
H832 H 0.76063 0.44411 0.80499 0.0
H833 H 0.79937 0.42964 0.83879 0.0
H834 H 0.74381 0.38656 0.90291 0.0
H835 H 0.70512 0.40051 0.8685 0.0
H836 H 0.53071 0.34512 0.73244 0.0
H837 H 0.4987 0.34772 0.68641 0.0
H838 H 0.51225 0.4349 0.68031 0.0
H839 H 0.5439 0.43227 0.72652 0.0
Tb840 Tb 0.86603 0.41193 1.04658 0.0
Tb841 Tb 0.87547 0.3518 1.03554 0.0
C842 C 0.85014 0.45832 0.06481 0.0
C843 C 0.86095 0.4812 0.08395 0.0
C844 C 0.85319 0.5079 0.07557 0.0
C845 C 0.86263 0.53011 0.0937 0.0
C846 C 0.88001 0.52593 0.12054 0.0
C847 C 0.88844 0.49916 0.1283 0.0
C848 C 0.87908 0.47692 0.11001 0.0
C849 C 0.91193 0.40105 1.01525 0.0
C850 C 0.88976 0.3762 0.10567 0.0
C851 C 0.89321 0.30704 1.01253 0.0
C852 C 0.89398 0.29123 0.98144 0.0
C853 C 0.91928 0.28217 0.96905 0.0
C854 C 0.9205 0.26484 0.94177 0.0
C855 C 0.89642 0.2561 0.92607 0.0
C856 C 0.87111 0.26566 0.93813 0.0
C857 C 0.86989 0.28305 0.96536 0.0
C858 C 0.82528 0.3639 0.05841 0.0
C859 C 0.84869 0.3885 0.97952 0.0
O860 O 0.84446 0.43562 0.08061 0.0
O861 O 0.8627 0.45388 1.03717 0.0
O862 O 0.90158 0.38679 1.03811 0.0
O863 O 0.89844 0.42371 1.01321 0.0
O864 O 0.88095 0.40014 0.09492 0.0
O865 O 0.89071 0.35419 0.08647 0.0
O866 O 0.90776 0.32949 1.01398 0.0
O867 O 0.86958 0.30978 1.02724 0.0
O868 O 0.83988 0.37754 1.03897 0.0
O869 O 0.83875 0.34149 0.06444 0.0
O870 O 0.86298 0.36611 0.98637 0.0
O871 O 0.84256 0.40641 1.00248 0.0
H872 H 0.83945 0.51153 0.05526 0.0
H873 H 0.85581 0.55052 0.08727 0.0
H874 H 0.90131 0.49528 0.14931 0.0
H875 H 0.88552 0.45643 0.11663 0.0
H876 H 0.93818 0.28798 0.98102 0.0
H877 H 0.94034 0.25794 0.93323 0.0
H878 H 0.85206 0.25886 0.92733 0.0
H879 H 0.85001 0.28944 0.97431 0.0
Tb880 Tb 0.87029 0.61638 0.29317 0.0
Tb881 Tb 0.93002 0.62868 0.28373 0.0
C882 C 0.82469 0.59783 0.31108 0.0
C883 C 0.80231 0.6064 0.33266 0.0
C884 C 0.80678 0.62482 0.35834 0.0
C885 C 0.78496 0.6331 0.37811 0.0
C886 C 0.75836 0.62318 0.3723 0.0
C887 C 0.75398 0.60505 0.34626 0.0
C888 C 0.77579 0.59679 0.32655 0.0
C889 C 0.87941 0.66334 0.26356 0.0
C890 C 0.90333 0.64293 0.35277 0.0
C891 C 0.97428 0.64813 0.26092 0.0
C892 C 0.99432 0.64457 0.23371 0.0
C893 C 0.98624 0.64297 0.20075 0.0
C894 C 1.00594 0.64158 0.17562 0.0
C895 C 0.03416 0.64177 0.18285 0.0
C896 C 0.04204 0.64328 0.21585 0.0
C897 C 0.02244 0.64474 0.24083 0.0
C898 C 0.91947 0.57727 0.30452 0.0
C899 C 0.89575 0.601 0.22598 0.0
O900 O 0.84795 0.59104 0.32491 0.0
O901 O 0.82813 0.61316 0.28525 0.0
O902 O 0.89387 0.65351 0.28664 0.0
O903 O 0.85782 0.64839 0.26002 0.0
O904 O 0.88049 0.63173 0.34179 0.0
O905 O 0.92538 0.6456 0.33377 0.0
O906 O 0.94988 0.65722 0.25355 0.0
O907 O 0.97332 0.62924 0.28358 0.0
O908 O 0.90576 0.59201 0.28548 0.0
O909 O 0.94165 0.59108 0.31043 0.0
O910 O 0.91791 0.61502 0.23435 0.0
O911 O 0.87656 0.59503 0.24758 0.0
H912 H 0.82712 0.63257 0.36328 0.0
H913 H 0.78901 0.64658 0.3985 0.0
H914 H 0.73369 0.59705 0.34138 0.0
H915 H 0.77197 0.58279 0.30658 0.0
H916 H 0.96472 0.64286 0.19435 0.0
H917 H 0.99907 0.63987 0.1506 0.0
H918 H 0.06353 0.64352 0.2224 0.0
H919 H 0.02932 0.64629 0.26589 0.0
Tb920 Tb 0.66674 0.61885 0.5462 0.0
Tb921 Tb 0.65392 0.67798 0.5328 0.0
C922 C 0.68457 0.57352 0.56602 0.0
C923 C 0.67431 0.5506 0.58569 0.0
C924 C 0.68373 0.52412 0.57891 0.0
C925 C 0.67447 0.50189 0.59728 0.0
C926 C 0.65559 0.50579 0.62276 0.0
C927 C 0.64566 0.53233 0.62899 0.0
C928 C 0.65485 0.55457 0.61045 0.0
C929 C 0.61904 0.62653 0.51724 0.0
C930 C 0.6418 0.6546 0.60415 0.0
C931 C 0.6328 0.72068 0.50814 0.0
C932 C 0.63578 0.74146 0.48172 0.0
C933 C 0.64019 0.73429 0.44882 0.0
C934 C 0.6408 0.75455 0.4243 0.0
C935 C 0.63697 0.78238 0.43214 0.0
C936 C 0.63253 0.78933 0.46506 0.0
C937 C 0.63188 0.76918 0.48941 0.0
C938 C 0.70549 0.66947 0.55391 0.0
C939 C 0.6829 0.6416 0.47773 0.0
O940 O 0.68901 0.59673 0.58117 0.0
O941 O 0.67228 0.57695 0.53804 0.0
O942 O 0.62946 0.64201 0.53881 0.0
O943 O 0.63375 0.60469 0.51524 0.0
O944 O 0.65385 0.63169 0.59493 0.0
O945 O 0.63732 0.67506 0.58325 0.0
O946 O 0.62641 0.69571 0.49966 0.0
O947 O 0.65036 0.72111 0.53224 0.0
O948 O 0.69091 0.65426 0.53635 0.0
O949 O 0.69149 0.69185 0.55778 0.0
O950 O 0.66827 0.66383 0.48433 0.0
O951 O 0.68904 0.62376 0.50087 0.0
H952 H 0.69852 0.52069 0.55959 0.0
H953 H 0.68247 0.48168 0.59202 0.0
H954 H 0.63161 0.53605 0.64897 0.0
H955 H 0.64712 0.57487 0.61582 0.0
H956 H 0.64312 0.71307 0.44202 0.0
H957 H 0.6448 0.7485 0.39934 0.0
H958 H 0.62945 0.81049 0.47202 0.0
H959 H 0.62804 0.77528 0.51441 0.0
Tb960 Tb 0.42818 0.40564 0.2873 0.0
Tb961 Tb 0.36783 0.4157 0.2912 0.0
C962 C 0.47346 0.38634 0.26734 0.0
C963 C 0.49331 0.38774 0.23967 0.0
C964 C 0.4851 0.39103 0.20693 0.0
C965 C 0.50463 0.39098 0.18148 0.0
C966 C 0.53277 0.38758 0.18821 0.0
C967 C 0.54067 0.38407 0.22101 0.0
C968 C 0.52127 0.38414 0.24626 0.0
C969 C 0.41532 0.45569 0.30947 0.0
C970 C 0.39669 0.43542 0.22797 0.0
C971 C 0.31904 0.42934 0.30305 0.0
C972 C 0.29548 0.41898 0.32161 0.0
C973 C 0.27103 0.4339 0.32145 0.0
C974 C 0.24885 0.42537 0.34041 0.0
C975 C 0.25088 0.402 0.36045 0.0
C976 C 0.27499 0.38622 0.35904 0.0
C977 C 0.297 0.3945 0.33942 0.0
C978 C 0.38153 0.36926 0.26258 0.0
C979 C 0.39872 0.39249 0.35501 0.0
O980 O 0.44961 0.37515 0.26171 0.0
O981 O 0.47143 0.40761 0.28657 0.0
O982 O 0.40286 0.44175 0.28832 0.0
O983 O 0.43727 0.44196 0.31695 0.0
O984 O 0.41854 0.42121 0.23746 0.0
O985 O 0.37626 0.4401 0.24833 0.0
O986 O 0.34006 0.43803 0.31996 0.0
O987 O 0.32645 0.41448 0.27814 0.0
O988 O 0.39304 0.37962 0.28738 0.0
O989 O 0.36066 0.38404 0.25502 0.0
O990 O 0.37651 0.40315 0.34146 0.0
O991 O 0.42166 0.38934 0.33761 0.0
H992 H 0.46364 0.39371 0.20101 0.0
H993 H 0.49777 0.39426 0.15667 0.0
H994 H 0.56205 0.38129 0.22722 0.0
H995 H 0.52819 0.38122 0.27114 0.0
H996 H 0.2693 0.45253 0.30719 0.0
H997 H 0.23042 0.43772 0.3404 0.0
H998 H 0.2775 0.36832 0.37434 0.0
H999 H 0.31551 0.38229 0.33889 0.0
Tb1000 Tb 0.37681 0.68167 1.03787 0.0
Tb1001 Tb 0.36923 0.62102 1.04011 0.0
C1002 C 0.39395 0.72792 1.01841 0.0
C1003 C 0.39277 0.74592 0.98882 0.0
C1004 C 0.41631 0.74991 0.96937 0.0
C1005 C 0.41641 0.7691 0.94368 0.0
C1006 C 0.39309 0.78505 0.93705 0.0
C1007 C 0.36925 0.78021 0.95563 0.0
C1008 C 0.3691 0.76103 0.98117 0.0
C1009 C 0.32672 0.66668 0.05771 0.0
C1010 C 0.35069 0.64968 0.97656 0.0
C1011 C 0.35704 0.57217 0.05374 0.0
C1012 C 0.36698 0.55041 0.07555 0.0
C1013 C 0.35878 0.52336 0.06987 0.0
C1014 C 0.36716 0.50237 0.0908 0.0
C1015 C 0.38394 0.50808 0.11781 0.0
C1016 C 0.39278 0.53516 0.12291 0.0
C1017 C 0.38444 0.55617 0.10185 0.0
C1018 C 0.41538 0.63683 1.01264 0.0
C1019 C 0.3893 0.6523 0.10502 0.0
O1020 O 0.40806 0.70526 1.01616 0.0
O1021 O 0.37154 0.72443 1.03549 0.0
O1022 O 0.34166 0.655 1.03675 0.0
O1023 O 0.33985 0.68841 0.06735 0.0
O1024 O 0.36247 0.67232 0.98768 0.0
O1025 O 0.34691 0.62817 0.99552 0.0
O1026 O 0.3456 0.59345 0.0676 0.0
O1027 O 0.37364 0.57917 1.03016 0.0
O1028 O 0.4043 0.64763 1.03754 0.0
O1029 O 0.40201 0.61509 1.0048 0.0
O1030 O 0.38025 0.62983 0.09066 0.0
O1031 O 0.3921 0.67559 0.08837 0.0
H1032 H 0.43495 0.73871 0.97461 0.0
H1033 H 0.43508 0.77225 0.92986 0.0
H1034 H 0.35073 0.79173 0.95078 0.0
H1035 H 0.35056 0.75859 0.99542 0.0
H1036 H 0.3455 0.51852 1.04951 0.0
H1037 H 0.36003 0.48172 0.08629 0.0
H1038 H 0.40522 0.54029 0.14389 0.0
H1039 H 0.39117 0.57691 0.10648 0.0
Tb1040 Tb 0.10104 0.6241 0.78614 0.0
Tb1041 Tb 0.16049 0.61337 0.79958 0.0
C1042 C 0.05719 0.64274 0.76122 0.0
C1043 C 0.04055 0.64256 0.73061 0.0
C1044 C 0.03445 0.66746 0.71485 0.0
C1045 C 1.01652 0.66835 0.68804 0.0
C1046 C 1.0042 0.64431 0.6761 0.0
C1047 C 1.01061 0.61933 0.69167 0.0
C1048 C 0.02855 0.61844 0.71847 0.0
C1049 C 0.11122 0.57362 0.8097 0.0
C1050 C 0.13881 0.59618 0.73174 0.0
C1051 C 0.20575 0.59681 0.82091 0.0
C1052 C 0.22809 0.60774 0.84094 0.0
C1053 C 0.24427 0.58957 0.85893 0.0
C1054 C 0.26636 0.59928 0.87709 0.0
C1055 C 0.27286 0.62735 0.87723 0.0
C1056 C 0.25624 0.64563 0.85965 0.0
C1057 C 0.23397 0.6359 0.84161 0.0
C1058 C 0.15157 0.65965 0.7681 0.0
C1059 C 0.12406 0.63877 0.85693 0.0
O1060 O 0.08067 0.65557 0.76053 0.0
O1061 O 0.05857 0.62028 0.77854 0.0
O1062 O 0.12585 0.5878 0.79084 0.0
O1063 O 0.08884 0.58752 0.81423 0.0
O1064 O 0.11644 0.61084 0.73767 0.0
O1065 O 0.15594 0.5898 0.75545 0.0
O1066 O 0.18243 0.59228 0.83584 0.0
O1067 O 0.20252 0.60838 0.79239 0.0
O1068 O 0.1365 0.64965 0.79047 0.0
O1069 O 0.17376 0.64535 0.76643 0.0
O1070 O 0.14785 0.62884 0.84725 0.0
O1071 O 0.10264 0.64038 0.83681 0.0
H1072 H 0.04312 0.68645 0.72378 0.0
H1073 H 1.01212 0.68794 0.67679 0.0
H1074 H 1.00103 0.60046 0.68386 0.0
H1075 H 0.03245 0.59892 0.73014 0.0
H1076 H 0.23984 0.56782 0.8589 0.0
H1077 H 0.27815 0.58481 0.89138 0.0
H1078 H 0.26059 0.66738 0.85967 0.0
H1079 H 0.22152 0.65028 0.82801 0.0
Tb1080 Tb 0.15586 0.35236 0.53398 0.0
Tb1081 Tb 0.16625 0.41216 0.5406 0.0
C1082 C 0.13701 0.30763 0.51223 0.0
C1083 C 0.13872 0.29044 0.48228 0.0
C1084 C 0.11468 0.27921 0.46891 0.0
C1085 C 0.1159 0.26073 0.44266 0.0
C1086 C 0.14126 0.25299 0.42924 0.0
C1087 C 0.16522 0.2652 0.44177 0.0
C1088 C 0.16398 0.28372 0.46788 0.0
C1089 C 0.20669 0.36412 0.55397 0.0
C1090 C 0.1823 0.3868 0.47435 0.0
C1091 C 0.1808 0.45948 0.55732 0.0
C1092 C 0.1723 0.48041 0.58133 0.0
C1093 C 0.18279 0.48 0.61322 0.0
C1094 C 0.17605 0.50073 0.63518 0.0
C1095 C 0.15884 0.52236 0.62568 0.0
C1096 C 0.14776 0.52253 0.59415 0.0
C1097 C 0.15461 0.50184 0.57205 0.0
C1098 C 0.11865 0.39989 0.51411 0.0
C1099 C 0.14499 0.37896 0.60341 0.0
O1100 O 0.12442 0.33112 0.50953 0.0
O1101 O 0.15885 0.30949 0.53059 0.0
O1102 O 0.19222 0.37734 0.53393 0.0
O1103 O 0.19285 0.34243 0.56221 0.0
O1104 O 0.1687 0.36449 0.48364 0.0
O1105 O 0.18788 0.40636 0.49545 0.0
O1106 O 0.19203 0.43704 0.5687 0.0
O1107 O 0.1637 0.45453 0.53354 0.0
O1108 O 0.12998 0.38732 0.53756 0.0
O1109 O 0.13297 0.42122 0.50686 0.0
O1110 O 0.15583 0.4014 0.59079 0.0
O1111 O 0.14035 0.35701 0.58488 0.0
H1112 H 0.09493 0.28405 0.4795 0.0
H1113 H 0.09713 0.25148 0.43396 0.0
H1114 H 0.18508 0.25978 0.4319 0.0
H1115 H 0.18287 0.29217 0.47734 0.0
H1116 H 0.19652 0.4639 0.62116 0.0
H1117 H 0.18453 0.50002 0.65959 0.0
H1118 H 0.13447 0.53905 0.58637 0.0
H1119 H 0.14639 0.50286 0.54754 0.0
Tb1120 Tb 0.43209 0.62668 0.31614 0.0
Tb1121 Tb 0.37146 0.61764 0.31173 0.0
C1122 C 0.47768 0.64477 0.33631 0.0
C1123 C 0.49491 0.64328 0.36629 0.0
C1124 C 0.50847 0.66689 0.37748 0.0
C1125 C 0.52635 0.6657 0.40434 0.0
C1126 C 0.53117 0.6408 0.42067 0.0
C1127 C 0.51687 0.61736 0.41003 0.0
C1128 C 0.4989 0.61858 0.3833 0.0
C1129 C 0.41805 0.57577 0.29891 0.0
C1130 C 0.39825 0.60403 0.37822 0.0
C1131 C 0.32367 0.60316 0.29684 0.0
C1132 C 0.30277 0.61044 0.27223 0.0
C1133 C 0.3047 0.60093 0.23997 0.0
C1134 C 0.28396 0.60669 0.21757 0.0
C1135 C 0.26091 0.62202 0.22697 0.0
C1136 C 0.25924 0.63216 0.25887 0.0
C1137 C 0.2799 0.62622 0.2814 0.0
C1138 C 0.38546 0.66557 0.33543 0.0
C1139 C 0.40426 0.6367 0.24742 0.0
O1140 O 0.45461 0.6582 0.3387 0.0
O1141 O 0.47493 0.62248 0.31889 0.0
O1142 O 0.40588 0.59128 0.31877 0.0
O1143 O 0.43994 0.5886 0.28912 0.0
O1144 O 0.42116 0.61533 0.36704 0.0
O1145 O 0.37729 0.59905 0.35889 0.0
O1146 O 0.34574 0.59042 0.28672 0.0
O1147 O 0.3292 0.62195 0.31852 0.0
O1148 O 0.39748 0.65305 0.31245 0.0
O1149 O 0.36357 0.65243 0.34347 0.0
O1150 O 0.38177 0.62655 0.26085 0.0
O1151 O 0.42669 0.64125 0.26515 0.0
H1152 H 0.50575 0.68621 0.36488 0.0
H1153 H 0.53726 0.68405 0.41146 0.0
H1154 H 0.51997 0.59786 0.4221 0.0
H1155 H 0.48857 0.60007 0.37556 0.0
H1156 H 0.32201 0.58874 0.23207 0.0
H1157 H 0.28576 0.59892 0.19291 0.0
H1158 H 0.2416 0.64396 0.26659 0.0
H1159 H 0.27778 0.63365 0.30617 0.0
Tb1160 Tb 0.1555 0.67585 0.06748 0.0
Tb1161 Tb 0.1671 0.61663 0.05363 0.0
C1162 C 0.13526 0.71856 0.09313 0.0
C1163 C 0.13807 0.73789 0.12111 0.0
C1164 C 0.11602 0.74132 0.14296 0.0
C1165 C 0.11662 0.76177 0.16707 0.0
C1166 C 0.13918 0.77951 0.16969 0.0
C1167 C 0.16171 0.77529 0.14872 0.0
C1168 C 0.16115 0.75484 0.12469 0.0
C1169 C 0.20649 0.66678 1.04472 0.0
C1170 C 0.18497 0.63847 0.12153 0.0
C1171 C 0.18399 0.57169 1.03191 0.0
C1172 C 0.17266 0.54966 1.01178 0.0
C1173 C 0.19043 0.53349 0.99321 0.0
C1174 C 0.18017 0.5119 0.97464 0.0
C1175 C 0.15195 0.50607 0.97445 0.0
C1176 C 0.13414 0.52237 0.9931 0.0
C1177 C 0.14442 0.54412 1.01152 0.0
C1178 C 0.12045 0.62505 0.08463 0.0
C1179 C 0.14046 0.65263 0.99676 0.0
O1180 O 0.12702 0.6937 0.09968 0.0
O1181 O 0.1539 0.71888 0.07013 0.0
O1182 O 0.19209 0.65161 0.06266 0.0
O1183 O 0.19264 0.68931 1.04121 0.0
O1184 O 0.17053 0.66101 0.11557 0.0
O1185 O 0.19066 0.62102 0.09789 0.0
O1186 O 0.18839 0.59513 1.01718 0.0
O1187 O 0.17267 0.57468 0.06062 0.0
O1188 O 0.13051 0.64019 0.0624 0.0
O1189 O 0.135 0.60304 0.08655 0.0
O1190 O 0.1514 0.62916 1.00601 0.0
O1191 O 0.13819 0.67371 1.01728 0.0
H1192 H 0.09787 0.7287 0.14071 0.0
H1193 H 0.09897 0.76441 0.1828 0.0
H1194 H 0.17966 0.78822 0.15051 0.0
H1195 H 0.17852 0.7528 0.10843 0.0
H1196 H 0.21225 0.53755 0.9931 0.0
H1197 H 0.19431 0.49993 0.96009 0.0
H1198 H 0.11237 0.51818 0.99363 0.0
H1199 H 0.13037 0.55647 1.02574 0.0
Tb1200 Tb 0.09861 0.40201 0.81408 0.0
Tb1201 Tb 0.15901 0.41206 0.81135 0.0
C1202 C 0.05338 0.38279 0.83413 0.0
C1203 C 0.03515 0.3846 0.8634 0.0
C1204 C 0.02819 0.36066 0.88079 0.0
C1205 C 1.00922 0.36143 0.90667 0.0
C1206 C 0.9965 0.38614 0.91557 0.0
C1207 C 1.00431 0.41025 0.89901 0.0
C1208 C 0.02332 0.40951 0.87328 0.0
C1209 C 0.11158 0.45336 0.79668 0.0
C1210 C 0.13033 0.42726 0.87619 0.0
C1211 C 0.20708 0.42643 0.79727 0.0
C1212 C 0.22843 0.41873 0.77334 0.0
C1213 C 0.22701 0.42767 0.74078 0.0
C1214 C 0.24805 0.42146 0.71893 0.0
C1215 C 0.2709 0.40618 0.72911 0.0
C1216 C 0.27218 0.39682 0.76143 0.0
C1217 C 0.25118 0.40317 0.78341 0.0
C1218 C 0.14527 0.36447 0.83667 0.0
C1219 C 0.12805 0.39202 0.7462 0.0
O1220 O 0.07695 0.37055 0.83809 0.0
O1221 O 0.05554 0.40429 0.81515 0.0
O1222 O 0.12399 0.43802 0.81657 0.0
O1223 O 0.08999 0.44001 0.78703 0.0
O1224 O 0.10801 0.41505 0.86476 0.0
O1225 O 0.15163 0.43222 0.85726 0.0
O1226 O 0.18516 0.43882 0.78617 0.0
O1227 O 0.20117 0.4081 0.81945 0.0
O1228 O 0.13373 0.37607 0.81259 0.0
O1229 O 0.16637 0.37857 0.84524 0.0
O1230 O 0.15013 0.40216 0.76047 0.0
O1231 O 0.10516 0.38755 0.76318 0.0
H1232 H 0.03697 0.34115 0.87382 0.0
H1233 H 1.0037 0.34253 0.91887 0.0
H1234 H 0.99528 0.42973 0.90562 0.0
H1235 H 0.02832 0.42841 0.86075 0.0
H1236 H 0.20987 0.43977 0.73221 0.0
H1237 H 0.24659 0.42882 0.69404 0.0
H1238 H 0.28976 0.3853 0.76991 0.0
H1239 H 0.25295 0.39625 0.80844 0.0
Tb1240 Tb 0.37834 0.35518 0.56959 0.0
Tb1241 Tb 0.36551 0.4144 0.55669 0.0
C1242 C 0.39921 0.31268 0.59537 0.0
C1243 C 0.39664 0.29359 0.62379 0.0
C1244 C 0.41978 0.28811 0.64328 0.0
C1245 C 0.41902 0.26796 0.66787 0.0
C1246 C 0.39514 0.25254 0.67342 0.0
C1247 C 0.37163 0.2589 0.65487 0.0
C1248 C 0.37236 0.27908 0.63036 0.0
C1249 C 0.32722 0.36369 0.54735 0.0
C1250 C 0.34822 0.39141 0.62437 0.0
C1251 C 0.34833 0.45978 0.53614 0.0
C1252 C 0.3586 0.48298 0.51678 0.0
C1253 C 0.34098 0.49549 0.49437 0.0
C1254 C 0.34976 0.51801 0.47623 0.0
C1255 C 0.37628 0.5287 0.48045 0.0
C1256 C 0.39413 0.51585 0.50255 0.0
C1257 C 0.38535 0.49314 0.52064 0.0
C1258 C 0.41333 0.40633 0.58535 0.0
C1259 C 0.38901 0.37835 0.49797 0.0
O1260 O 0.40734 0.33764 0.60142 0.0
O1261 O 0.38038 0.31213 0.57265 0.0
O1262 O 0.34126 0.37887 0.56561 0.0
O1263 O 0.34128 0.34131 0.54367 0.0
O1264 O 0.36346 0.3695 0.61798 0.0
O1265 O 0.34211 0.40909 0.60106 0.0
O1266 O 0.34475 0.43672 0.52051 0.0
O1267 O 0.35939 0.45619 0.56485 0.0
O1268 O 0.40275 0.39119 0.56358 0.0
O1269 O 0.39859 0.42812 0.5879 0.0
O1270 O 0.37678 0.40095 0.50788 0.0
O1271 O 0.39461 0.35797 0.51871 0.0
H1272 H 0.43881 0.29891 0.6388 0.0
H1273 H 0.43745 0.26368 0.68164 0.0
H1274 H 0.3527 0.24784 0.65891 0.0
H1275 H 0.3541 0.28283 0.61607 0.0
H1276 H 0.32037 0.48779 0.49087 0.0
H1277 H 0.33587 0.52685 0.45851 0.0
H1278 H 0.41476 0.52348 0.50597 0.0
H1279 H 0.3994 0.48363 0.53766 0.0
C1280 C 0.31676 0.1399 0.20911 0.0
C1281 C 0.28896 0.13327 0.20458 0.0
C1282 C 0.33399 0.14485 0.18218 0.0
C1283 C 0.32389 0.14254 0.15023 0.0
H1284 H 0.32525 0.14077 0.23349 0.0
H1285 H 0.35548 0.14914 0.18631 0.0
S1286 S 0.25254 0.12605 0.12586 0.0
N1287 N 0.25206 0.12548 0.1661 0.0
N1288 N 0.28429 0.13392 0.1157 0.0
C1289 C 0.29599 0.13651 0.14564 0.0
C1290 C 0.27853 0.13205 0.17281 0.0
C1291 C 0.11862 0.06183 0.4142 0.0
C1292 C 0.13499 0.08523 0.41032 0.0
C1293 C 0.12449 0.04254 0.43861 0.0
C1294 C 0.14696 0.04614 0.45971 0.0
H1295 H 0.1028 0.0572 0.39652 0.0
H1296 H 0.11271 0.02375 0.43924 0.0
S1297 S 0.19284 0.10663 0.4626 0.0
N1298 N 0.1723 0.11268 0.43141 0.0
N1299 N 0.18289 0.077 0.47809 0.0
C1300 C 0.16177 0.07081 0.45784 0.0
C1301 C 0.15591 0.09022 0.43286 0.0
C1302 C 0.22089 0.91891 0.6912 0.0
C1303 C 0.23602 0.89729 0.70491 0.0
C1304 C 0.20228 0.91425 0.66597 0.0
C1305 C 0.19782 0.88777 0.65373 0.0
H1306 H 0.22458 0.93985 0.69872 0.0
H1307 H 0.19221 0.93172 0.65489 0.0
S1308 S 0.2298 0.82373 0.68378 0.0
N1309 N 0.24354 0.84807 0.70645 0.0
N1310 N 0.20825 0.8393 0.65883 0.0
C1311 C 0.21135 0.86568 0.66862 0.0
C1312 C 0.23063 0.87047 0.69419 0.0
C1313 C 0.40335 0.9464 0.92948 0.0
C1314 C 0.39796 0.95586 0.89774 0.0
C1315 C 0.40011 0.96391 0.95642 0.0
C1316 C 0.39234 0.99141 0.95198 0.0
H1317 H 0.40885 0.92519 0.93358 0.0
H1318 H 0.40314 0.95584 0.98078 0.0
S1319 S 0.37786 0.02641 0.87366 0.0
N1320 N 0.38575 0.99472 0.86338 0.0
N1321 N 0.38043 0.02748 0.91375 0.0
C1322 C 0.38824 1.00129 0.92028 0.0
C1323 C 0.39092 0.98353 0.89316 0.0
C1324 C 0.32409 0.91808 0.4431 0.0
C1325 C 0.33435 0.8918 0.45016 0.0
C1326 C 0.30503 0.92221 0.4183 0.0
C1327 C 0.29569 0.90029 0.39933 0.0
H1328 H 0.32989 0.93554 0.45784 0.0
H1329 H 0.29686 0.94262 0.41459 0.0
S1330 S 0.31821 0.82799 0.40519 0.0
N1331 N 0.3354 0.84381 0.43433 0.0
N1332 N 0.29954 0.85179 0.38703 0.0
C1333 C 0.30708 0.87421 0.40441 0.0
C1334 C 0.32651 0.86991 0.42998 0.0
C1335 C 0.36425 0.06559 0.65779 0.0
C1336 C 0.38437 0.04634 0.64903 0.0
C1337 C 0.36926 0.08511 0.68191 0.0
C1338 C 0.3947 0.08639 0.69771 0.0
H1339 H 0.34396 0.06459 0.64717 0.0
H1340 H 0.35256 0.09821 0.68966 0.0
S1341 S 0.45518 0.0427 0.68155 0.0
N1342 N 0.43146 0.03116 0.65635 0.0
N1343 N 0.441 0.06851 0.70134 0.0
C1344 C 0.41578 0.0689 0.68736 0.0
C1345 C 0.41058 0.04869 0.66302 0.0
C1346 C 0.1921 0.12642 0.92193 0.0
C1347 C 0.19452 0.14854 0.94353 0.0
C1348 C 0.21229 0.12122 0.89848 0.0
C1349 C 0.23594 0.13763 0.89629 0.0
H1350 H 0.17533 0.11203 0.92456 0.0
H1351 H 0.21005 0.10336 0.88305 0.0
S1352 S 0.25138 0.19859 0.947 0.0
N1353 N 0.22138 0.18777 0.96051 0.0
N1354 N 0.25991 0.17768 0.91702 0.0
C1355 C 0.23781 0.16077 0.91662 0.0
C1356 C 0.21694 0.16628 0.94017 0.0
C1357 C 0.16455 0.95274 0.18208 0.0
C1358 C 0.13855 0.94861 0.19601 0.0
C1359 C 0.16831 0.97075 0.15594 0.0
C1360 C 0.14624 0.98559 0.14281 0.0
H1361 H 0.1824 0.94273 0.19232 0.0
H1362 H 0.18895 0.97408 0.14703 0.0
S1363 S 0.0735 0.98013 0.1685 0.0
N1364 N 0.08998 0.9592 0.19338 0.0
N1365 N 0.09698 0.99324 0.14393 0.0
C1366 C 0.11983 0.98063 0.15542 0.0
C1367 C 0.11598 0.962 0.18201 0.0
C1368 C 0.7229 0.92117 0.91051 0.0
C1369 C 0.73761 0.8991 0.89721 0.0
C1370 C 0.70439 0.91721 0.9361 0.0
C1371 C 0.69964 0.89101 0.9491 0.0
H1372 H 0.72672 0.9419 0.90221 0.0
H1373 H 0.69447 0.93498 0.94665 0.0
S1374 S 0.73087 0.82605 0.92085 0.0
N1375 N 0.74468 0.84979 0.89722 0.0
N1376 N 0.70965 0.84235 0.94553 0.0
C1377 C 0.71295 0.8685 0.93487 0.0
C1378 C 0.7321 0.87257 0.90893 0.0
C1379 C 0.86372 0.96763 0.65634 0.0
C1380 C 0.88457 0.98491 0.64469 0.0
C1381 C 0.86874 0.94871 0.68122 0.0
C1382 C 0.89485 0.94618 0.69533 0.0
H1383 H 0.84305 0.96945 0.64697 0.0
H1384 H 0.85167 0.93689 0.69063 0.0
S1385 S 0.95703 0.98505 0.67193 0.0
N1386 N 0.93282 0.99711 0.6477 0.0
N1387 N 0.94229 0.96117 0.69452 0.0
C1388 C 0.91638 0.96196 0.68251 0.0
C1389 C 0.91122 0.98145 0.65716 0.0
C1390 C 0.81131 0.11494 0.40129 0.0
C1391 C 0.79667 0.13732 0.38865 0.0
C1392 C 0.82957 0.11824 0.42715 0.0
C1393 C 0.83406 0.14405 0.44127 0.0
H1394 H 0.80747 0.0944 0.39245 0.0
H1395 H 0.83929 0.10014 0.4372 0.0
S1396 S 0.80407 0.20985 0.41382 0.0
N1397 N 0.79014 0.18669 0.38962 0.0
N1398 N 0.82478 0.1929 0.4385 0.0
C1399 C 0.82123 0.16698 0.42732 0.0
C1400 C 0.80233 0.16358 0.40102 0.0
C1401 C 0.6184 0.04921 0.16286 0.0
C1402 C 0.64366 0.04865 0.14618 0.0
C1403 C 0.61323 0.06868 0.18733 0.0
C1404 C 0.63333 0.08789 0.19605 0.0
H1405 H 0.60301 0.0338 0.15787 0.0
H1406 H 0.59433 0.06733 0.20113 0.0
S1407 S 0.70187 0.09636 0.15852 0.0
N1408 N 0.68819 0.07021 0.13896 0.0
N1409 N 0.67843 0.10655 0.18491 0.0
C1410 C 0.65791 0.08856 0.17831 0.0
C1411 C 0.66312 0.06898 0.15337 0.0
C1412 C 0.71741 0.11471 0.69687 0.0
C1413 C 0.73493 0.13579 0.70728 0.0
C1414 C 0.69832 0.11909 0.67203 0.0
C1415 C 0.69579 0.14479 0.65688 0.0
H1416 H 0.71921 0.09432 0.70712 0.0
H1417 H 0.68634 0.10185 0.6635 0.0
S1418 S 0.73524 0.20737 0.67674 0.0
N1419 N 0.74742 0.18382 0.70182 0.0
N1420 N 0.71102 0.19213 0.65532 0.0
C1421 C 0.71178 0.16659 0.66849 0.0
C1422 C 0.7315 0.16207 0.69368 0.0
C1423 C 0.66961 0.97201 0.44405 0.0
C1424 C 0.64718 0.98545 0.45838 0.0
C1425 C 0.66597 0.95387 0.41813 0.0
C1426 C 0.63976 0.94825 0.4057 0.0
H1427 H 0.69032 0.97663 0.45176 0.0
H1428 H 0.68399 0.94504 0.40682 0.0
S1429 S 0.57401 0.97557 0.43711 0.0
N1430 N 0.59759 0.9901 0.46024 0.0
N1431 N 0.59075 0.95573 0.41125 0.0
C1432 C 0.61695 0.96013 0.42106 0.0
C1433 C 0.62068 0.97891 0.44739 0.0
C1434 C 0.82095 0.87335 0.16743 0.0
C1435 C 0.8367 0.89494 0.15467 0.0
C1436 C 0.80179 0.87815 0.19237 0.0
C1437 C 0.7982 0.90454 0.20551 0.0
H1438 H 0.82207 0.85315 0.15661 0.0
H1439 H 0.78904 0.86135 0.20064 0.0
S1440 S 0.83641 0.96721 0.18199 0.0
N1441 N 0.84898 0.94299 0.15824 0.0
N1442 N 0.81317 0.95205 0.20508 0.0
C1443 C 0.81509 0.92583 0.19418 0.0
C1444 C 0.83432 0.921 0.16875 0.0
C1445 C 0.87295 0.08819 0.92312 0.0
C1446 C 0.89808 0.08972 0.9065 0.0
C1447 C 0.86889 0.06934 0.94832 0.0
C1448 C 0.88976 0.05111 0.95764 0.0
H1449 H 0.85571 0.1005 0.91521 0.0
H1450 H 0.84864 0.06781 0.959 0.0
S1451 S 0.96056 0.0495 0.92468 0.0
N1452 N 0.94505 0.07356 0.90315 0.0
N1453 N 0.9375 0.03794 0.95086 0.0
C1454 C 0.91567 0.05382 0.94285 0.0
C1455 C 0.91986 0.07329 0.91726 0.0
C1456 C 0.81438 0.61475 0.69091 0.0
C1457 C 0.79877 0.63619 0.70422 0.0
C1458 C 0.83286 0.61952 0.66548 0.0
C1459 C 0.83669 0.64593 0.6526 0.0
H1460 H 0.81116 0.59384 0.69889 0.0
H1461 H 0.84327 0.60212 0.65473 0.0
S1462 S 0.80337 0.70962 0.68153 0.0
N1463 N 0.7902 0.68525 0.70478 0.0
N1464 N 0.82519 0.69421 0.65676 0.0
C1465 C 0.82269 0.66789 0.66711 0.0
C1466 C 0.80356 0.66299 0.6929 0.0
C1467 C 0.66741 0.58051 0.91631 0.0
C1468 C 0.64126 0.58536 0.90333 0.0
C1469 C 0.67118 0.56239 0.94229 0.0
C1470 C 0.64892 0.54817 0.956 0.0
H1471 H 0.68532 0.58991 0.90533 0.0
H1472 H 0.69189 0.55833 0.95043 0.0
S1473 S 0.57591 0.55556 0.93267 0.0
N1474 N 0.59245 0.57615 0.90742 0.0
N1475 N 0.5995 0.54181 0.9565 0.0
C1476 C 0.62242 0.55392 0.94439 0.0
C1477 C 0.61857 0.57269 0.91805 0.0
C1478 C 0.70163 0.41742 0.16857 0.0
C1479 C 0.69682 0.3911 0.15603 0.0
C1480 C 0.72033 0.42165 0.19381 0.0
C1481 C 0.73518 0.39974 0.20728 0.0
H1482 H 0.69178 0.43511 0.15772 0.0
H1483 H 0.72429 0.44248 0.20155 0.0
S1484 S 0.72796 0.32641 0.1854 0.0
N1485 N 0.70663 0.34246 0.16061 0.0
N1486 N 0.74205 0.3504 0.2083 0.0
C1487 C 0.72945 0.37306 0.19626 0.0
C1488 C 0.71009 0.36872 0.17065 0.0
C1489 C 0.86433 0.47067 0.44257 0.0
C1490 C 0.88571 0.48741 0.45389 0.0
C1491 C 0.86885 0.45137 0.41808 0.0
C1492 C 0.89493 0.44792 0.4042 0.0
H1493 H 0.84364 0.47349 0.45156 0.0
H1494 H 0.85144 0.44015 0.40859 0.0
S1495 S 0.95844 0.48421 0.42791 0.0
N1496 N 0.93447 0.49754 0.45155 0.0
N1497 N 0.94297 0.46078 0.40551 0.0
C1498 C 0.91699 0.46276 0.41715 0.0
C1499 C 0.91236 0.48268 0.44206 0.0
C1500 C 0.80192 0.37495 0.90828 0.0
C1501 C 0.79721 0.40163 0.89643 0.0
C1502 C 0.82077 0.37016 0.93352 0.0
C1503 C 0.835 0.39201 0.9479 0.0
H1504 H 0.79023 0.35788 0.89878 0.0
H1505 H 0.82276 0.34962 0.94327 0.0
S1506 S 0.83148 0.46521 0.92424 0.0
N1507 N 0.80964 0.44976 0.89968 0.0
N1508 N 0.84473 0.44077 0.94716 0.0
C1509 C 0.83155 0.41846 0.93508 0.0
C1510 C 0.8127 0.42328 0.90931 0.0
C1511 C 0.86825 0.58336 0.18022 0.0
C1512 C 0.89415 0.58696 0.1944 0.0
C1513 C 0.86433 0.56477 0.15483 0.0
C1514 C 0.88615 0.54886 0.14294 0.0
H1515 H 0.85055 0.59397 0.19 0.0
H1516 H 0.84369 0.5616 0.14591 0.0
S1517 S 0.95865 0.5529 0.16945 0.0
N1518 N 0.94248 0.57505 0.19304 0.0
N1519 N 0.93513 0.53983 0.14505 0.0
C1520 C 0.91255 0.55353 0.1555 0.0
C1521 C 0.91658 0.57276 0.18125 0.0
C1522 C 0.72117 0.6076 0.40944 0.0
C1523 C 0.73585 0.62939 0.39537 0.0
C1524 C 0.7025 0.61217 0.43469 0.0
C1525 C 0.69752 0.63869 0.44653 0.0
H1526 H 0.72525 0.58668 0.40212 0.0
H1527 H 0.69275 0.59462 0.44604 0.0
S1528 S 0.7284 0.70301 0.41561 0.0
N1529 N 0.74255 0.67871 0.3932 0.0
N1530 N 0.70712 0.68729 0.44081 0.0
C1531 C 0.71067 0.66088 0.43135 0.0
C1532 C 0.73002 0.6562 0.40579 0.0
C1533 C 0.66609 0.44939 0.68445 0.0
C1534 C 0.63966 0.44518 0.69708 0.0
C1535 C 0.67071 0.46783 0.65897 0.0
C1536 C 0.64907 0.48296 0.64533 0.0
H1537 H 0.6836 0.43937 0.69549 0.0
H1538 H 0.69165 0.47149 0.65135 0.0
S1539 S 0.57549 0.47674 0.66683 0.0
N1540 N 0.59115 0.45548 0.69205 0.0
N1541 N 0.5998 0.49032 0.64383 0.0
C1542 C 0.62224 0.47756 0.65619 0.0
C1543 C 0.61752 0.45852 0.68208 0.0
C1544 C 0.20297 0.41552 0.43115 0.0
C1545 C 0.19532 0.38923 0.44184 0.0
C1546 C 0.21987 0.41923 0.40408 0.0
C1547 C 0.22976 0.39683 0.38606 0.0
H1548 H 0.19682 0.43356 0.44469 0.0
H1549 H 0.22632 0.43991 0.39836 0.0
S1550 S 0.21267 0.32376 0.40111 0.0
N1551 N 0.19681 0.34039 0.43069 0.0
N1552 N 0.22821 0.34735 0.37882 0.0
C1553 C 0.22086 0.3704 0.39515 0.0
C1554 C 0.2036 0.36661 0.42311 0.0
C1555 C 0.37019 0.45359 0.18139 0.0
C1556 C 0.39582 0.44981 0.19632 0.0
C1557 C 0.36697 0.47146 0.15502 0.0
C1558 C 0.38923 0.48652 0.14266 0.0
H1559 H 0.35217 0.44342 0.19102 0.0
H1560 H 0.34655 0.47454 0.14535 0.0
S1561 S 0.46124 0.48191 0.17101 0.0
N1562 N 0.44433 0.46084 0.19536 0.0
N1563 N 0.43832 0.49472 0.14556 0.0
C1564 C 0.41531 0.48188 0.15625 0.0
C1565 C 0.41863 0.46335 0.18305 0.0
C1566 C 0.29181 0.65906 0.91952 0.0
C1567 C 0.29597 0.63741 0.8974 0.0
C1568 C 0.31143 0.66523 0.94338 0.0
C1569 C 0.33568 0.64992 0.94572 0.0
H1570 H 0.27248 0.66996 0.91999 0.0
H1571 H 0.30655 0.68042 0.96175 0.0
S1572 S 0.35856 0.59473 0.89035 0.0
N1573 N 0.32807 0.60357 0.87643 0.0
N1574 N 0.36439 0.61465 0.92213 0.0
C1575 C 0.34107 0.62985 0.92226 0.0
C1576 C 0.32134 0.62373 0.89781 0.0
C1577 C 0.12129 0.56998 0.68364 0.0
C1578 C 0.14314 0.58254 0.70018 0.0
C1579 C 0.12634 0.55141 0.65813 0.0
C1580 C 0.15332 0.54499 0.64866 0.0
H1581 H 0.10041 0.57307 0.69181 0.0
H1582 H 0.10919 0.54089 0.64705 0.0
S1583 S 0.21702 0.57631 0.68045 0.0
N1584 N 0.1923 0.59012 0.70248 0.0
N1585 N 0.20169 0.5554 0.65467 0.0
C1586 C 0.17506 0.55911 0.66334 0.0
C1587 C 0.16997 0.57788 0.68908 0.0
C1588 C 0.211 0.65702 0.16934 0.0
C1589 C 0.19966 0.63461 0.1526 0.0
C1590 C 0.23006 0.65291 0.1946 0.0
C1591 C 0.23826 0.62632 0.20362 0.0
H1592 H 0.20644 0.67776 0.16164 0.0
H1593 H 0.23943 0.67058 0.20598 0.0
S1594 S 0.21096 0.56108 0.17112 0.0
N1595 N 0.19533 0.58507 0.14968 0.0
N1596 N 0.2311 0.57748 0.19685 0.0
C1597 C 0.22558 0.60389 0.18862 0.0
C1598 C 0.20624 0.60802 0.16319 0.0
C1599 C 0.1493 0.43821 0.93029 0.0
C1600 C 0.12916 0.44282 0.90657 0.0
C1601 C 0.15515 0.45808 0.95383 0.0
C1602 C 0.14146 0.48346 0.95387 0.0
H1603 H 0.16182 0.41989 0.92931 0.0
H1604 H 0.17159 0.45419 0.97096 0.0
S1605 S 0.0866 0.50499 0.89674 0.0
N1606 N 0.09468 0.47367 0.88505 0.0
N1607 N 0.10615 0.51157 0.92865 0.0
C1608 C 0.12019 0.48764 0.93127 0.0
C1609 C 0.11396 0.46716 0.90767 0.0
C1610 C 0.32439 0.42046 0.66478 0.0
C1611 C 0.33307 0.39416 0.65538 0.0
C1612 C 0.30515 0.42408 0.68962 0.0
C1613 C 0.29384 0.40155 0.70612 0.0
H1614 H 0.33168 0.43843 0.65188 0.0
H1615 H 0.29841 0.44467 0.69528 0.0
S1616 S 0.3112 0.3285 0.69271 0.0
N1617 N 0.33025 0.34522 0.66594 0.0
N1618 N 0.2939 0.35209 0.71298 0.0
C1619 C 0.30351 0.37519 0.69844 0.0
C1620 C 0.32322 0.37147 0.67298 0.0
C1621 C 0.40989 0.55048 0.44208 0.0
C1622 C 0.38543 0.55222 0.46024 0.0
C1623 C 0.41584 0.56964 0.41749 0.0
C1624 C 0.39746 0.59095 0.41041 0.0
H1625 H 0.42343 0.5331 0.44513 0.0
H1626 H 0.43358 0.5663 0.40208 0.0
S1627 S 0.33364 0.60762 0.45497 0.0
N1628 N 0.34518 0.57961 0.47293 0.0
N1629 N 0.35599 0.61494 0.42595 0.0
C1630 C 0.37434 0.59432 0.43027 0.0
C1631 C 0.36841 0.57511 0.45544 0.0
C1632 C 0.16138 0.20823 0.41234 0.0
C1633 C 0.14337 0.22985 0.40536 0.0
C1634 C 0.1644 0.18603 0.39113 0.0
C1635 C 0.14973 0.18417 0.36155 0.0
H1636 H 0.1732 0.2083 0.4347 0.0
H1637 H 0.17863 0.17008 0.39821 0.0
S1638 S 0.10007 0.23565 0.3312 0.0
N1639 N 0.11032 0.24812 0.36664 0.0
N1640 N 0.11664 0.20643 0.32613 0.0
C1641 C 0.13147 0.20556 0.35409 0.0
C1642 C 0.12812 0.22831 0.37614 0.0
C1643 C 0.07388 0.88071 0.60097 0.0
C1644 C 0.09952 0.89249 0.6081 0.0
C1645 C 0.05302 0.87905 0.62504 0.0
C1646 C 0.05709 0.88919 0.65697 0.0
H1647 H 0.06943 0.87405 0.57634 0.0
H1648 H 0.03323 0.87083 0.61823 0.0
S1649 S 0.1221 0.91764 0.68926 0.0
N1650 N 0.12859 0.9116 0.65041 0.0
N1651 N 0.09005 0.90806 0.69511 0.0
C1652 C 0.08324 0.89931 0.66469 0.0
C1653 C 0.10423 0.90107 0.64043 0.0
C1654 C 0.4005 0.82457 0.85601 0.0
C1655 C 0.38968 0.85046 0.86394 0.0
C1656 C 0.40252 0.8036 0.87987 0.0
C1657 C 0.39374 0.80785 0.91238 0.0
H1658 H 0.40607 0.82004 0.83101 0.0
H1659 H 0.4099 0.78362 0.87253 0.0
S1660 S 0.36846 0.87349 0.94652 0.0
N1661 N 0.37318 0.87997 0.90739 0.0
N1662 N 0.37734 0.84118 0.95171 0.0
C1663 C 0.38468 0.83423 0.92079 0.0
C1664 C 0.38256 0.85533 0.89673 0.0
C1665 C 0.42915 0.12397 0.14715 0.0
C1666 C 0.4308 0.13621 0.11604 0.0
C1667 C 0.44957 0.12761 0.1707 0.0
C1668 C 0.47296 0.14358 0.16444 0.0
H1669 H 0.41186 0.11108 0.15348 0.0
H1670 H 0.44722 0.11725 0.19394 0.0
S1671 S 0.48713 0.18106 0.08728 0.0
N1672 N 0.45756 0.16563 0.0804 0.0
N1673 N 0.49621 0.17263 0.12484 0.0
C1674 C 0.47487 0.15635 0.13355 0.0
C1675 C 0.45373 0.15275 0.10941 0.0
C1676 C 0.13479 0.82193 0.24863 0.0
C1677 C 0.14319 0.84807 0.23808 0.0
C1678 C 0.13262 0.79989 0.22635 0.0
C1679 C 0.13885 0.80327 0.19288 0.0
H1680 H 0.13131 0.81815 0.27434 0.0
H1681 H 0.12717 0.77983 0.23561 0.0
S1682 S 0.15704 0.86886 0.15245 0.0
N1683 N 0.1546 0.87668 0.1915 0.0
N1684 N 0.15013 0.83584 0.15007 0.0
C1685 C 0.14545 0.82978 0.18199 0.0
C1686 C 0.14772 0.85198 0.20447 0.0
C1687 C 0.45937 0.91035 0.44333 0.0
C1688 C 0.48067 0.89136 0.44789 0.0
C1689 C 0.43773 0.9127 0.4657 0.0
C1690 C 0.43611 0.89627 0.494 0.0
H1691 H 0.45919 0.92345 0.42198 0.0
H1692 H 0.42198 0.92773 0.46057 0.0
S1693 S 0.48708 0.84385 0.51843 0.0
N1694 N 0.49898 0.85583 0.48342 0.0
N1695 N 0.45838 0.86071 0.5258 0.0
C1696 C 0.4572 0.87711 0.49908 0.0
C1697 C 0.47937 0.87454 0.47598 0.0
C1698 C 0.40412 0.23133 0.72948 0.0
C1699 C 0.395 0.22876 0.69685 0.0
C1700 C 0.40187 0.20935 0.75204 0.0
C1701 C 0.39053 0.18404 0.74267 0.0
H1702 H 0.41204 0.25076 0.73795 0.0
H1703 H 0.40775 0.21264 0.7772 0.0
S1704 S 0.36812 0.16524 0.65902 0.0
N1705 N 0.37758 0.19757 0.65577 0.0
N1706 N 0.37303 0.15695 0.69762 0.0
C1707 C 0.38297 0.18087 0.70971 0.0
C1708 C 0.38528 0.20299 0.68697 0.0
C1709 C 0.09326 0.16078 0.96857 0.0
C1710 C 0.09117 0.1426 0.99513 0.0
C1711 C 0.07238 0.16265 0.94487 0.0
C1712 C 0.04871 0.14606 0.94644 0.0
H1713 H 0.11193 0.17235 0.96484 0.0
H1714 H 0.07565 0.17601 0.92411 0.0
S1715 S 0.03237 0.09698 1.01302 0.0
N1716 N 0.06292 0.10897 1.02273 0.0
N1717 N 0.02353 0.11276 0.97894 0.0
C1718 C 0.04582 0.12889 0.97395 0.0
C1719 C 0.06708 0.12704 0.99798 0.0
C1720 C 0.91009 0.84686 0.7188 0.0
C1721 C 0.89441 0.84381 0.74739 0.0
C1722 C 0.91161 0.82582 0.69537 0.0
C1723 C 0.89707 0.80103 0.69928 0.0
H1724 H 0.91987 0.86625 0.71346 0.0
H1725 H 0.92293 0.82971 0.67309 0.0
S1726 S 0.85488 0.78223 0.77139 0.0
N1727 N 0.86535 0.8137 0.77925 0.0
N1728 N 0.86842 0.77403 0.73576 0.0
C1729 C 0.88241 0.79733 0.72863 0.0
C1730 C 0.88096 0.81875 0.75244 0.0
C1731 C 0.98191 0.15029 0.47238 0.0
C1732 C 0.97752 0.14626 0.43864 0.0
C1733 C 0.96029 0.14751 0.49524 0.0
C1734 C 0.93363 0.1407 0.485 0.0
H1735 H 1.00241 0.15424 0.48129 0.0
H1736 H 0.96481 0.14903 0.52103 0.0
S1737 S 0.91051 0.13276 0.39925 0.0
N1738 N 0.94367 0.13887 0.39622 0.0
N1739 N 0.90365 0.13304 0.43867 0.0
C1740 C 0.9288 0.1385 0.45126 0.0
C1741 C 0.95055 0.14145 0.42821 0.0
C1742 C 0.61793 0.21055 0.19813 0.0
C1743 C 0.63355 0.23467 0.20198 0.0
C1744 C 0.61953 0.18883 0.22075 0.0
C1745 C 0.63642 0.1905 0.24844 0.0
H1746 H 0.60557 0.20771 0.17647 0.0
H1747 H 0.60877 0.16997 0.21543 0.0
S1748 S 0.67926 0.24986 0.27202 0.0
N1749 N 0.66466 0.25955 0.23754 0.0
N1750 N 0.66789 0.2186 0.27946 0.0
C1751 C 0.65106 0.21488 0.25347 0.0
C1752 C 0.64951 0.23699 0.23049 0.0
C1753 C 0.55273 0.87942 0.97656 0.0
C1754 C 0.55647 0.88822 0.94395 0.0
C1755 C 0.57394 0.88177 1.00001 0.0
C1756 C 0.5996 0.8929 0.99155 0.0
H1757 H 0.53294 0.87177 0.98432 0.0
H1758 H 0.56975 0.87622 1.02512 0.0
S1759 S 0.62138 0.91438 0.90848 0.0
N1760 N 0.58912 0.90504 0.90394 0.0
N1761 N 0.62835 0.90981 0.94749 0.0
C1762 C 0.60398 0.90007 0.95864 0.0
C1763 C 0.58263 0.89764 0.935 0.0
C1764 C 0.91378 0.21173 0.90204 0.0
C1765 C 0.89751 0.23549 0.89891 0.0
C1766 C 0.91208 0.19015 0.87935 0.0
C1767 C 0.89444 0.19164 0.8523 0.0
H1768 H 0.92665 0.20898 0.92329 0.0
H1769 H 0.92329 0.17145 0.88425 0.0
S1770 S 0.84988 0.25026 0.83053 0.0
N1771 N 0.86512 0.26002 0.86455 0.0
N1772 N 0.86171 0.2193 0.8225 0.0
C1773 C 0.87927 0.21577 0.84786 0.0
C1774 C 0.88091 0.23774 0.87091 0.0
C1775 C 0.57355 0.16155 0.65679 0.0
C1776 C 0.54918 0.14623 0.65346 0.0
C1777 C 0.59484 0.15981 0.63363 0.0
C1778 C 0.59249 0.14306 0.60589 0.0
H1779 H 0.57692 0.17379 0.67843 0.0
H1780 H 0.61391 0.17034 0.63855 0.0
S1781 S 0.53222 0.10103 0.58354 0.0
N1782 N 0.52331 0.11558 0.61834 0.0
N1783 N 0.56348 0.11205 0.57541 0.0
C1784 C 0.56786 0.12871 0.6014 0.0
C1785 C 0.54618 0.13042 0.62493 0.0
C1786 C 0.66 0.84845 0.39107 0.0
C1787 C 0.64669 0.84843 0.36056 0.0
C1788 C 0.6565 0.82721 0.41367 0.0
C1789 C 0.63962 0.8046 0.40697 0.0
H1790 H 0.67353 0.86512 0.39768 0.0
H1791 H 0.66759 0.82832 0.43651 0.0
S1792 S 0.59944 0.79456 0.33097 0.0
N1793 N 0.61553 0.82392 0.32491 0.0
N1794 N 0.60872 0.78378 0.3676 0.0
C1795 C 0.62589 0.80426 0.37662 0.0
C1796 C 0.62938 0.82622 0.35347 0.0
C1797 C 0.93887 0.91541 0.13746 0.0
C1798 C 0.93718 0.89952 0.1088 0.0
C1799 C 0.96035 0.91239 0.15981 0.0
C1800 C 0.98141 0.89321 0.15491 0.0
H1801 H 0.92332 0.93057 0.14288 0.0
H1802 H 0.96028 0.92514 0.18142 0.0
S1803 S 0.98741 0.84668 0.08357 0.0
N1804 N 0.95901 0.86411 0.07638 0.0
N1805 N 0.99933 0.85793 0.11883 0.0
C1806 C 0.98 0.87683 0.12653 0.0
C1807 C 0.95799 0.88012 0.1034 0.0
C1808 C 0.66401 0.68751 0.88805 0.0
C1809 C 0.6478 0.68557 0.85966 0.0
C1810 C 0.66157 0.7094 0.90991 0.0
C1811 C 0.64265 0.73065 0.9048 0.0
H1812 H 0.67902 0.67185 0.89365 0.0
H1813 H 0.67457 0.70949 0.93132 0.0
S1814 S 0.59525 0.73603 0.83417 0.0
N1815 N 0.61224 0.70731 0.82737 0.0
N1816 N 0.60712 0.7484 0.86892 0.0
C1817 C 0.62589 0.72897 0.87674 0.0
C1818 C 0.62859 0.70653 0.8541 0.0
C1819 C 0.59796 0.40988 0.1442 0.0
C1820 C 0.59712 0.39638 0.11382 0.0
C1821 C 0.57726 0.40668 0.16763 0.0
C1822 C 0.55436 0.38988 0.16204 0.0
H1823 H 0.61484 0.4234 0.15007 0.0
H1824 H 0.57906 0.418 0.19024 0.0
S1825 S 0.5422 0.34919 0.08686 0.0
N1826 N 0.57147 0.36509 0.07952 0.0
N1827 N 0.53243 0.35877 0.12377 0.0
C1828 C 0.55322 0.37591 0.13186 0.0
C1829 C 0.57463 0.37912 0.10782 0.0
C1830 C 0.90148 0.32424 0.35281 0.0
C1831 C 0.8906 0.34978 0.36216 0.0
C1832 C 0.90334 0.3023 0.37544 0.0
C1833 C 0.89428 0.3052 0.40806 0.0
H1834 H 0.90721 0.32076 0.32762 0.0
H1835 H 0.91084 0.28267 0.36705 0.0
S1836 S 0.86863 0.36926 0.4458 0.0
N1837 N 0.87375 0.3774 0.40718 0.0
N1838 N 0.87742 0.33675 0.44911 0.0
C1839 C 0.88509 0.33116 0.41792 0.0
C1840 C 0.88322 0.35325 0.39515 0.0
C1841 C 0.94081 0.6641 0.62588 0.0
C1842 C 0.94001 0.64392 0.60143 0.0
C1843 C 0.96228 0.66493 0.64894 0.0
C1844 C 0.98363 0.64538 0.64875 0.0
H1845 H 0.92384 0.67817 0.62866 0.0
H1846 H 0.96127 0.68008 0.66818 0.0
S1847 S 0.99224 0.59007 0.5875 0.0
N1848 N 0.96324 0.60513 0.57707 0.0
N1849 N 1.00366 0.60691 0.61964 0.0
C1850 C 0.98367 0.62602 0.62328 0.0
C1851 C 0.96185 0.62521 0.59994 0.0
C1852 C 0.63021 0.32305 0.75017 0.0
C1853 C 0.64239 0.34838 0.74231 0.0
C1854 C 0.62811 0.30191 0.7266 0.0
C1855 C 0.63823 0.30542 0.69451 0.0
H1856 H 0.62365 0.31904 0.77497 0.0
H1857 H 0.61964 0.28234 0.73389 0.0
S1858 S 0.66768 0.36936 0.66042 0.0
N1859 N 0.66178 0.37654 0.69911 0.0
N1860 N 0.65756 0.3374 0.65544 0.0
C1861 C 0.64871 0.33125 0.68606 0.0
C1862 C 0.65086 0.35252 0.70978 0.0
C1863 C 0.9564 0.37879 0.99625 0.0
C1864 C 0.93181 0.39273 0.98933 0.0
C1865 C 0.97707 0.37585 0.97215 0.0
C1866 C 0.97386 0.38683 0.94042 0.0
H1867 H 0.96022 0.37131 1.02072 0.0
H1868 H 0.9961 0.3659 0.97876 0.0
S1869 S 0.9114 0.42085 0.9086 0.0
N1870 N 0.90439 0.41469 0.9473 0.0
N1871 N 0.94262 0.40891 0.90263 0.0
C1872 C 0.94866 0.39918 0.93289 0.0
C1873 C 0.92785 0.40219 0.95716 0.0
C1874 C 0.87111 0.71221 0.19213 0.0
C1875 C 0.89076 0.73277 0.19721 0.0
C1876 C 0.86828 0.69011 0.21369 0.0
C1877 C 0.88484 0.68729 0.24168 0.0
H1878 H 0.85788 0.71297 0.17094 0.0
H1879 H 0.85277 0.67497 0.20812 0.0
S1880 S 0.9391 0.73584 0.2671 0.0
N1881 N 0.92716 0.74905 0.23277 0.0
N1882 N 0.92139 0.70751 0.27372 0.0
C1883 C 0.90467 0.70762 0.24729 0.0
C1884 C 0.90776 0.73027 0.22498 0.0
C1885 C 0.59349 0.61433 0.4668 0.0
C1886 C 0.59608 0.63193 0.49391 0.0
C1887 C 0.57252 0.61743 0.44378 0.0
C1888 C 0.55294 0.6384 0.44641 0.0
H1889 H 0.60798 0.59783 0.46305 0.0
H1890 H 0.57189 0.60338 0.42337 0.0
S1891 S 0.54934 0.68948 0.51339 0.0
N1892 N 0.57633 0.6706 0.52274 0.0
N1893 N 0.5371 0.67695 0.47891 0.0
C1894 C 0.55513 0.65631 0.47336 0.0
C1895 C 0.57654 0.65293 0.49722 0.0
C1896 C 0.39443 0.298 0.22825 0.0
C1897 C 0.39491 0.30315 0.19432 0.0
C1898 C 0.3927 0.31968 0.25107 0.0
C1899 C 0.39158 0.34716 0.24067 0.0
H1900 H 0.39382 0.27711 0.23711 0.0
H1901 H 0.39038 0.31483 0.27672 0.0
S1902 S 0.39668 0.37167 0.15513 0.0
N1903 N 0.39775 0.33798 0.15209 0.0
N1904 N 0.39382 0.37819 0.19448 0.0
C1905 C 0.39392 0.35244 0.20705 0.0
C1906 C 0.39581 0.33061 0.18402 0.0
C1907 C 0.48715 0.63486 0.97754 0.0
C1908 C 0.48428 0.64906 0.94772 0.0
C1909 C 0.46544 0.63329 1.00027 0.0
C1910 C 0.44003 0.64592 0.99422 0.0
H1911 H 0.50602 0.62409 0.98287 0.0
H1912 H 0.46807 0.62079 1.02191 0.0
S1913 S 0.42148 0.68495 0.91972 0.0
N1914 N 0.45368 0.67599 0.91365 0.0
N1915 N 0.41321 0.67263 0.95593 0.0
C1916 C 0.43714 0.66068 0.96494 0.0
C1917 C 0.45918 0.66245 0.9419 0.0
C1918 C 0.15714 0.70211 0.69064 0.0
C1919 C 0.13933 0.72437 0.69546 0.0
C1920 C 0.16018 0.68145 0.71415 0.0
C1921 C 0.14546 0.6817 0.74378 0.0
H1922 H 0.16932 0.70079 0.66857 0.0
H1923 H 0.17445 0.66503 0.70894 0.0
S1924 S 0.09551 0.73492 0.76861 0.0
N1925 N 0.1061 0.74511 0.73223 0.0
N1926 N 0.11213 0.7062 0.77664 0.0
C1927 C 0.12728 0.70361 0.74903 0.0
C1928 C 0.12424 0.72495 0.72494 0.0
C1929 C 0.07665 0.37561 0.44209 0.0
C1930 C 0.05089 0.38793 0.4475 0.0
C1931 C 0.09797 0.3777 0.46508 0.0
C1932 C 0.09431 0.39156 0.49483 0.0
H1933 H 0.0809 0.36552 0.41913 0.0
H1934 H 0.11789 0.36953 0.45873 0.0
S1935 S 0.03055 0.42564 0.52233 0.0
N1936 N 0.02268 0.41317 0.48608 0.0
N1937 N 0.06279 0.417 0.52899 0.0
C1938 C 0.06845 0.40299 0.50118 0.0
C1939 C 0.04675 0.40113 0.47769 0.0
C1940 C 0.41142 0.7087 0.40514 0.0
C1941 C 0.39861 0.73418 0.39958 0.0
C1942 C 0.40919 0.6871 0.38263 0.0
C1943 C 0.39463 0.69024 0.35328 0.0
H1944 H 0.4219 0.70484 0.42797 0.0
H1945 H 0.41757 0.66733 0.38921 0.0
S1946 S 0.35933 0.7532 0.32544 0.0
N1947 N 0.3724 0.76168 0.36119 0.0
N1948 N 0.36822 0.72099 0.31915 0.0
C1949 C 0.38285 0.71587 0.34666 0.0
C1950 C 0.38489 0.73786 0.36966 0.0
C1951 C 0.09722 0.6156 0.13758 0.0
C1952 C 0.0981 0.63114 0.10856 0.0
C1953 C 0.07662 0.61931 0.16104 0.0
C1954 C 0.05558 0.63864 0.15671 0.0
H1955 H 0.11274 0.60028 0.14244 0.0
H1956 H 0.07704 0.60658 0.1827 0.0
S1957 S 0.04821 0.68488 0.08514 0.0
N1958 N 0.07589 0.66671 0.07672 0.0
N1959 N 0.03713 0.67398 0.12102 0.0
C1960 C 0.05607 0.65442 0.12776 0.0
C1961 C 0.07732 0.65067 0.10374 0.0
C1962 C 0.12311 0.34515 0.88646 0.0
C1963 C 0.13572 0.3406 0.85606 0.0
C1964 C 0.12112 0.32424 0.91005 0.0
C1965 C 0.13228 0.29799 0.90461 0.0
H1966 H 0.11607 0.36546 0.89285 0.0
H1967 H 0.1122 0.32924 0.93351 0.0
S1968 S 0.16606 0.27518 0.82806 0.0
N1969 N 0.15846 0.30765 0.82116 0.0
N1970 N 0.15471 0.26827 0.86517 0.0
C1971 C 0.14396 0.2929 0.87369 0.0
C1972 C 0.14574 0.3142 0.84959 0.0
C1973 C 0.46043 0.41425 0.6584 0.0
C1974 C 0.48059 0.394 0.6544 0.0
C1975 C 0.43904 0.41747 0.63597 0.0
C1976 C 0.43657 0.40067 0.60815 0.0
H1977 H 0.46094 0.42767 0.67943 0.0
H1978 H 0.42415 0.43342 0.64072 0.0
S1979 S 0.48452 0.34505 0.5852 0.0
N1980 N 0.49698 0.3569 0.61992 0.0
N1981 N 0.45688 0.36344 0.57726 0.0
C1982 C 0.45659 0.38033 0.60354 0.0
C1983 C 0.47848 0.37684 0.62676 0.0
C1984 C 0.13618 0.02977 0.31673 0.0
C1985 C 0.11566 0.04391 0.29917 0.0
C1986 C 0.13587 1.00098 0.31999 0.0
C1987 C 0.11478 0.98512 0.30631 0.0
H1988 H 0.15262 0.04104 0.32827 0.0
H1989 H 0.15215 0.99108 0.33352 0.0
S1990 S 0.05743 1.01133 0.25582 0.0
N1991 N 0.07454 0.03915 0.26627 0.0
N1992 N 0.07385 0.9854 0.27277 0.0
C1993 C 0.09451 0.99882 0.28814 0.0
C1994 C 0.09496 0.02807 0.28448 0.0
C1995 C 0.25304 0.83509 0.55134 0.0
C1996 C 0.23747 0.85932 0.54862 0.0
C1997 C 0.28169 0.83577 0.55622 0.0
C1998 C 0.29619 0.86072 0.55796 0.0
H1999 H 0.24298 0.81534 0.55023 0.0
H2000 H 0.29261 0.81652 0.55791 0.0
S2001 S 0.26532 0.92998 0.5521 0.0
N2002 N 0.23896 0.90899 0.54866 0.0
N2003 N 0.29257 0.91025 0.55627 0.0
C2004 C 0.2809 0.88503 0.55503 0.0
C2005 C 0.25169 0.88435 0.55079 0.0
C2006 C 0.40054 1.00178 0.77962 0.0
C2007 C 0.42096 0.98541 0.79399 0.0
C2008 C 0.39961 0.03041 0.78476 0.0
C2009 C 0.4188 0.0439 0.80498 0.0
H2010 H 0.38515 0.9924 0.76425 0.0
H2011 H 0.38373 0.04205 0.77263 0.0
S2012 S 0.47442 1.00965 0.8514 0.0
N2013 N 0.45959 0.98447 0.83118 0.0
N2014 N 0.45774 0.03779 0.84115 0.0
C2015 C 0.4388 0.02749 0.82024 0.0
C2016 C 0.4399 0.99845 0.81471 0.0
C2017 C 0.2495 0.14644 1.03071 0.0
C2018 C 0.23607 0.1644 0.05252 0.0
C2019 C 0.27823 0.14704 1.02639 0.0
C2020 C 0.29468 0.16593 1.04329 0.0
H2021 H 0.23774 0.13181 1.0167 0.0
H2022 H 0.28764 0.13261 1.00975 0.0
S2023 S 0.27048 0.21586 0.10503 0.0
N2024 N 0.2422 0.20059 0.09252 0.0
N2025 N 0.29574 0.20188 0.08402 0.0
C2026 C 0.28166 0.18373 0.06537 0.0
C2027 C 0.25254 0.18294 0.07006 0.0
C2028 C 0.93871 0.03289 0.80985 0.0
C2029 C 0.91584 0.04658 0.79667 0.0
C2030 C 0.93886 1.00424 0.81425 0.0
C2031 C 0.91624 0.98792 0.80532 0.0
H2032 H 0.95664 0.04446 0.81704 0.0
H2033 H 0.95714 0.99478 0.82408 0.0
S2034 S 0.85104 1.01393 0.7703 0.0
N2035 N 0.8698 0.04173 0.77545 0.0
N2036 N 0.87003 0.98811 0.78323 0.0
C2037 C 0.8931 1.0015 0.79252 0.0
C2038 C 0.8929 0.03071 0.78835 0.0
C2039 C 0.75034 0.14562 0.56449 0.0
C2040 C 0.73664 0.16519 0.54495 0.0
C2041 C 0.77919 0.14545 0.56751 0.0
C2042 C 0.79551 0.16503 0.55144 0.0
H2043 H 0.73868 0.13052 0.578 0.0
H2044 H 0.78876 0.1301 0.58282 0.0
S2045 S 0.7705 0.21929 0.4955 0.0
N2046 N 0.74233 0.20363 0.50778 0.0
N2047 N 0.79611 0.20343 0.51384 0.0
C2048 C 0.78224 0.1842 0.53125 0.0
C2049 C 0.75298 0.18425 0.52792 0.0
C2050 C 0.63375 0.03212 0.28761 0.0
C2051 C 0.61423 0.04558 0.30742 0.0
C2052 C 0.63347 1.00339 0.28345 0.0
C2053 C 0.61341 0.98696 0.29846 0.0
H2054 H 0.64923 0.04388 0.27485 0.0
H2055 H 0.64892 0.994 0.26812 0.0
S2056 S 0.5592 1.01122 0.35495 0.0
N2057 N 0.57538 0.03947 0.34391 0.0
N2058 N 0.57473 0.98592 0.33567 0.0
C2059 C 0.59426 0.99996 0.31893 0.0
C2060 C 0.5947 0.02909 0.32349 0.0
C2061 C 0.75345 0.88673 0.06683 0.0
C2062 C 0.7377 0.86475 0.05501 0.0
C2063 C 0.78222 0.88746 0.06273 0.0
C2064 C 0.79648 0.86647 1.04611 0.0
H2065 H 0.7435 0.90335 0.07969 0.0
H2066 H 0.79339 0.90453 0.07302 0.0
S2067 S 0.76414 0.80605 1.00692 0.0
N2068 N 0.73822 0.82258 1.02374 0.0
N2069 N 0.7918 0.82407 1.01562 0.0
C2070 C 0.78069 0.84495 1.03305 0.0
C2071 C 0.7515 0.84406 1.03759 0.0
C2072 C 0.6363 0.52866 0.78285 0.0
C2073 C 0.61539 0.54553 0.79525 0.0
C2074 C 0.6358 0.49998 0.78749 0.0
C2075 C 0.61458 0.48693 0.80517 0.0
H2076 H 0.65306 0.53767 0.76922 0.0
H2077 H 0.65211 0.48793 0.77682 0.0
S2078 S 0.55674 0.5225 0.84603 0.0
N2079 N 0.57405 0.54741 0.82813 0.0
N2080 N 0.5732 0.49391 0.83713 0.0
C2081 C 0.59414 0.50383 0.81872 0.0
C2082 C 0.59453 0.53295 0.81371 0.0
C2083 C 0.77931 0.34024 0.05374 0.0
C2084 C 0.79459 0.36465 0.05652 0.0
C2085 C 0.75067 0.34061 1.04888 0.0
C2086 C 0.73587 0.3654 1.04724 0.0
H2087 H 0.78961 0.32062 0.05466 0.0
H2088 H 0.73999 0.32124 1.04702 0.0
S2089 S 0.76593 0.43497 0.05367 0.0
N2090 N 0.79255 0.41428 0.05681 0.0
N2091 N 0.7389 0.41494 1.04949 0.0
C2092 C 0.75086 0.38987 1.05046 0.0
C2093 C 0.78009 0.38951 0.05457 0.0
C2094 C 0.89738 0.53092 0.31235 0.0
C2095 C 0.91957 0.54675 0.30112 0.0
C2096 C 0.8969 0.50215 0.30845 0.0
C2097 C 0.91833 0.48799 0.29252 0.0
H2098 H 0.8804 0.54079 0.32464 0.0
H2099 H 0.87966 0.49089 0.31832 0.0
S2100 S 0.97974 0.52052 0.25541 0.0
N2101 N 0.96262 0.54638 0.27144 0.0
N2102 N 0.96156 0.49281 0.26354 0.0
C2103 C 0.94012 0.50386 0.28008 0.0
C2104 C 0.94078 0.53304 0.28451 0.0
C2105 C 0.75077 0.6939 0.54683 0.0
C2106 C 0.73616 0.66931 0.55162 0.0
C2107 C 0.77943 0.69405 0.54212 0.0
C2108 C 0.79491 0.66966 0.54271 0.0
H2109 H 0.73995 0.71325 0.54611 0.0
H2110 H 0.78956 0.71357 0.53868 0.0
S2111 S 0.76673 0.59979 0.55465 0.0
N2112 N 0.73953 0.61988 0.55599 0.0
N2113 N 0.79325 0.62027 0.54894 0.0
C2114 C 0.78059 0.645 0.54781 0.0
C2115 C 0.75133 0.64479 0.55175 0.0
C2116 C 0.43837 0.52874 0.29007 0.0
C2117 C 0.41621 0.54508 0.30053 0.0
C2118 C 0.43813 0.50001 0.29376 0.0
C2119 C 0.41559 0.48625 0.30767 0.0
H2120 H 0.45632 0.53823 0.27938 0.0
H2121 H 0.45566 0.48843 0.28523 0.0
S2122 S 0.3521 0.5189 0.33834 0.0
N2123 N 0.37092 0.54483 0.32534 0.0
N2124 N 0.37033 0.49103 0.3313 0.0
C2125 C 0.39313 0.50214 0.31766 0.0
C2126 C 0.39349 0.53145 0.31438 0.0
C2127 C 0.28061 0.69039 0.05781 0.0
C2128 C 0.29601 0.66601 0.05544 0.0
C2129 C 0.25194 0.69063 0.05314 0.0
C2130 C 0.23721 0.66642 1.04657 0.0
H2131 H 0.29081 0.70963 0.06274 0.0
H2132 H 0.2412 0.70994 0.05538 0.0
S2133 S 0.2675 0.59711 1.03814 0.0
N2134 N 0.2941 0.6171 1.04537 0.0
N2135 N 0.24039 0.61735 1.03841 0.0
C2136 C 0.25229 0.64191 1.04453 0.0
C2137 C 0.28156 0.64177 1.04843 0.0
C2138 C 0.0882 0.49967 0.7941 0.0
C2139 C 0.11214 0.48408 0.79945 0.0
C2140 C 0.08779 0.52836 0.79865 0.0
C2141 C 0.11143 0.54291 0.80812 0.0
H2142 H 0.06944 0.48962 0.78674 0.0
H2143 H 0.06889 0.53928 0.79397 0.0
S2144 S 0.17928 0.51215 0.82565 0.0
N2145 N 0.15989 0.48571 0.81584 0.0
N2146 N 0.15938 0.53938 0.82268 0.0
C2147 C 0.13546 0.52765 0.81335 0.0
C2148 C 0.13573 0.49839 0.80952 0.0
C2149 C 0.25279 0.34084 0.5597 0.0
C2150 C 0.23746 0.36475 0.5533 0.0
C2151 C 0.28163 0.34043 0.55679 0.0
C2152 C 0.29652 0.36406 0.548 0.0
H2153 H 0.24243 0.32207 0.56651 0.0
H2154 H 0.29236 0.32152 0.56206 0.0
S2155 S 0.26657 0.43199 0.52891 0.0
N2156 N 0.23974 0.4126 0.53728 0.0
N2157 N 0.29363 0.41205 0.53331 0.0
C2158 C 0.28153 0.38812 0.54201 0.0
C2159 C 0.25215 0.38841 0.54423 0.0
C2160 C 0.1241 0.164 0.16065 0.0
C2161 C 0.14272 0.14831 0.14184 0.0
C2162 C 0.12094 0.1598 0.195 0.0
C2163 C 0.13657 0.14003 0.2122 0.0
H2164 H 0.11151 0.17925 0.14869 0.0
H2165 H 0.10635 0.1723 0.20818 0.0
S2166 S 0.18858 0.09384 0.17459 0.0
N2167 N 0.17743 0.11263 0.14396 0.0
N2168 N 0.17127 0.1045 0.20666 0.0
C2169 C 0.1553 0.12448 0.19344 0.0
C2170 C 0.15844 0.12869 0.15896 0.0
C2171 C 0.11311 0.87849 0.44518 0.0
C2172 C 0.13849 0.87072 0.45902 0.0
C2173 C 0.11001 0.88282 0.41096 0.0
C2174 C 0.13233 0.88013 0.38913 0.0
H2175 H 0.09585 0.88256 0.46106 0.0
H2176 H 0.09043 0.88987 0.40186 0.0
S2177 S 0.20274 0.85863 0.4129 0.0
N2178 N 0.18581 0.85939 0.44778 0.0
N2179 N 0.18037 0.86732 0.38453 0.0
C2180 C 0.15746 0.87131 0.40281 0.0
C2181 C 0.16045 0.86678 0.43733 0.0
C2182 C 0.42479 0.89001 0.68905 0.0
C2183 C 0.40587 0.87921 0.71172 0.0
C2184 C 0.42119 0.88656 0.65494 0.0
C2185 C 0.39903 0.87145 0.64203 0.0
H2186 H 0.44139 0.90284 0.69756 0.0
H2187 H 0.43519 0.89686 0.63847 0.0
S2188 S 0.34448 0.8379 0.69075 0.0
N2189 N 0.36456 0.85206 0.71841 0.0
N2190 N 0.35845 0.84502 0.65499 0.0
C2191 C 0.38083 0.85946 0.6645 0.0
C2192 C 0.38411 0.86345 0.69906 0.0
C2193 C 0.42204 0.13281 0.91564 0.0
C2194 C 0.40521 0.14664 0.89301 0.0
C2195 C 0.41812 0.13562 0.94982 0.0
C2196 C 0.39786 0.15313 0.96294 0.0
H2197 H 0.4372 0.11836 0.90693 0.0
H2198 H 0.43047 0.12328 0.96612 0.0
S2199 S 0.34868 0.19428 0.91445 0.0
N2200 N 0.36741 0.1785 0.88662 0.0
N2201 N 0.36105 0.18466 0.95018 0.0
C2202 C 0.3817 0.16786 0.94057 0.0
C2203 C 0.38513 0.1644 0.9059 0.0
C2204 C 0.92421 0.89773 0.91356 0.0
C2205 C 0.90643 0.88516 0.89098 0.0
C2206 C 0.92045 0.89467 0.94775 0.0
C2207 C 0.89935 0.87817 0.96092 0.0
H2208 H 0.94005 0.91145 0.90485 0.0
H2209 H 0.93358 0.90615 0.96406 0.0
S2210 S 0.84783 0.84003 0.91258 0.0
N2211 N 0.86715 0.8551 0.88471 0.0
N2212 N 0.86086 0.84875 0.94827 0.0
C2213 C 0.88225 0.8646 0.93859 0.0
C2214 C 0.88561 0.86822 0.90392 0.0
C2215 C 0.9165 0.15951 0.68899 0.0
C2216 C 0.9001 0.1413 0.70757 0.0
C2217 C 0.91244 0.16315 0.6547 0.0
C2218 C 0.89208 0.14842 0.63748 0.0
H2219 H 0.93229 0.1713 0.70104 0.0
H2220 H 0.92562 0.17719 0.64156 0.0
S2221 S 0.84373 0.09808 0.67438 0.0
N2222 N 0.86295 0.1081 0.70511 0.0
N2223 N 0.85504 0.11536 0.64257 0.0
C2224 C 0.87567 0.13032 0.65602 0.0
C2225 C 0.87976 0.12663 0.69036 0.0
C2226 C 0.61428 0.13856 0.44912 0.0
C2227 C 0.63527 0.15544 0.46169 0.0
C2228 C 0.61025 0.13522 0.41507 0.0
C2229 C 0.62766 0.14785 0.39204 0.0
H2230 H 0.60131 0.1272 0.4658 0.0
H2231 H 0.59438 0.12138 0.4068 0.0
S2232 S 0.68597 0.19374 0.412 0.0
N2233 N 0.67333 0.1852 0.44803 0.0
N2234 N 0.66661 0.17819 0.38466 0.0
C2235 C 0.64848 0.16502 0.40437 0.0
C2236 C 0.65207 0.16899 0.43891 0.0
C2237 C 0.61334 0.88948 0.15552 0.0
C2238 C 0.63597 0.87519 0.14232 0.0
C2239 C 0.60987 0.89291 0.18971 0.0
C2240 C 0.62936 0.88295 0.21222 0.0
H2241 H 0.59875 0.89904 0.1392 0.0
H2242 H 0.59275 0.90499 0.19841 0.0
S2243 S 0.69229 0.84419 0.19046 0.0
N2244 N 0.67775 0.85059 0.15487 0.0
N2245 N 0.67187 0.85763 0.21834 0.0
C2246 C 0.65171 0.86815 0.19924 0.0
C2247 C 0.65487 0.86416 0.16463 0.0
C2248 C 0.6097 0.63885 0.68772 0.0
C2249 C 0.62897 0.64974 0.70983 0.0
C2250 C 0.61281 0.64204 0.65345 0.0
C2251 C 0.63485 0.65695 0.6398 0.0
H2252 H 0.5931 0.62624 0.6968 0.0
H2253 H 0.59852 0.63171 0.63745 0.0
S2254 S 0.69006 0.69089 0.68678 0.0
N2255 N 0.67035 0.677 0.71511 0.0
N2256 N 0.67567 0.68335 0.65145 0.0
C2257 C 0.65343 0.66897 0.66169 0.0
C2258 C 0.6506 0.66533 0.69639 0.0
C2259 C 0.64052 0.36398 0.90601 0.0
C2260 C 0.62465 0.38546 0.89264 0.0
C2261 C 0.64367 0.36053 0.94024 0.0
C2262 C 0.63181 0.37897 0.96269 0.0
H2263 H 0.65144 0.35028 0.88981 0.0
H2264 H 0.65693 0.34437 0.94907 0.0
S2265 S 0.58855 0.43879 0.94053 0.0
N2266 N 0.5966 0.42504 0.90498 0.0
N2267 N 0.60315 0.41932 0.96856 0.0
C2268 C 0.61551 0.40019 0.94954 0.0
C2269 C 0.6118 0.40325 0.91485 0.0
C2270 C 0.91893 0.39052 0.15389 0.0
C2271 C 0.89716 0.37469 0.14125 0.0
C2272 C 0.92272 0.39412 0.18795 0.0
C2273 C 0.90433 0.38282 0.21089 0.0
H2274 H 0.93255 0.40111 0.13723 0.0
H2275 H 0.9391 0.40735 0.19623 0.0
S2276 S 0.84394 0.33978 0.19071 0.0
N2277 N 0.85743 0.34718 0.15477 0.0
N2278 N 0.86381 0.35459 0.2181 0.0
C2279 C 0.88287 0.36649 0.1985 0.0
C2280 C 0.87945 0.3623 0.16397 0.0
C2281 C 0.92252 0.64278 0.41052 0.0
C2282 C 0.90308 0.65242 0.38779 0.0
C2283 C 0.91896 0.64667 0.4446 0.0
C2284 C 0.8963 0.66114 0.45742 0.0
H2285 H 0.93967 0.63061 0.40211 0.0
H2286 H 0.93355 0.63738 0.46114 0.0
S2287 S 0.84014 0.69154 0.4085 0.0
N2288 N 0.86062 0.6777 0.38096 0.0
N2289 N 0.85458 0.68562 0.44427 0.0
C2290 C 0.87746 0.6719 0.43486 0.0
C2291 C 0.88071 0.66742 0.40036 0.0
C2292 C 0.42 0.37918 0.41078 0.0
C2293 C 0.39674 0.38466 0.39109 0.0
C2294 C 0.41781 0.37502 0.44524 0.0
C2295 C 0.39222 0.37586 0.46144 0.0
H2296 H 0.44018 0.37924 0.39979 0.0
H2297 H 0.43635 0.3725 0.45939 0.0
S2298 S 0.32486 0.38735 0.42213 0.0
N2299 N 0.34696 0.38897 0.39173 0.0
N2300 N 0.34332 0.38116 0.45492 0.0
C2301 C 0.36897 0.38008 0.44193 0.0
C2302 C 0.37106 0.38442 0.40735 0.0
C2303 C 0.38584 0.62453 0.19232 0.0
C2304 C 0.4031 0.64151 0.21098 0.0
C2305 C 0.38193 0.62852 0.15871 0.0
C2306 C 0.39474 0.65 0.14134 0.0
H2307 H 0.375 0.60772 0.20382 0.0
H2308 H 0.3682 0.61455 0.14634 0.0
S2309 S 0.44214 0.70077 0.1782 0.0
N2310 N 0.43349 0.68089 0.20926 0.0
N2311 N 0.42581 0.68871 0.14594 0.0
C2312 C 0.41216 0.66734 0.15953 0.0
C2313 C 0.4165 0.66296 0.19417 0.0
C2314 C 0.10897 0.63071 0.9152 0.0
C2315 C 0.12242 0.64741 0.89213 0.0
C2316 C 0.11342 0.63384 0.94917 0.0
C2317 C 0.13101 0.65424 0.9618 0.0
H2318 H 0.09644 0.6138 0.9069 0.0
H2319 H 0.10397 0.61929 0.96569 0.0
S2320 S 0.17077 0.70365 0.91192 0.0
N2321 N 0.15401 0.68525 0.88464 0.0
N2322 N 0.16142 0.69176 0.94803 0.0
C2323 C 0.14352 0.67188 0.93905 0.0
C2324 C 0.1395 0.66828 0.90445 0.0
C2325 C 0.15095 0.40152 0.69244 0.0
C2326 C 0.13042 0.38718 0.7097 0.0
C2327 C 0.15529 0.39805 0.65883 0.0
C2328 C 0.13959 0.37976 0.63987 0.0
H2329 H 0.16399 0.41608 0.70495 0.0
H2330 H 0.17143 0.41003 0.64763 0.0
S2331 S 0.08315 0.33651 0.67231 0.0
N2332 N 0.09398 0.3535 0.70472 0.0
N2333 N 0.10238 0.34671 0.64134 0.0
C2334 C 0.11905 0.3649 0.65657 0.0
C2335 C 0.11432 0.36871 0.69128 0.0
loop_
_geom_bond_atom_site_label_1
_geom_bond_atom_site_label_2
_geom_bond_distance
_geom_bond_site_symmetry_2
_ccdc_geom_bond_type
Tb0 C2 2.809 . S
Tb0 O20 2.484 . S
Tb0 O21 2.440 . S
Tb0 O22 2.658 . S
Tb0 O23 2.409 . S
Tb0 O24 2.378 . S
Tb0 O28 2.325 . S
Tb0 O31 2.341 . S
Tb1 C11 2.809 . S
Tb1 O22 2.325 . S
Tb1 O25 2.341 . S
Tb1 O26 2.484 . S
Tb1 O27 2.440 . S
Tb1 O28 2.658 . S
Tb1 O29 2.409 . S
Tb1 O30 2.378 . S
C2 Tb0 2.809 . S
C2 C3 1.514 . S
C2 O20 1.248 . S
C2 O21 1.266 . S
C3 C2 1.514 . S
C3 C4 1.359 . S
C3 C8 1.348 . S
C4 C3 1.359 . S
C4 C5 1.380 . S
C4 H32 0.929 . S
C5 C4 1.380 . S
C5 C6 1.347 . S
C5 H33 0.931 . S
C6 C5 1.347 . S
C6 C7 1.369 . S
C7 C6 1.369 . S
C7 C8 1.408 . S
C7 H34 0.930 . S
C8 C3 1.348 . S
C8 C7 1.408 . S
C8 H35 0.930 . S
C9 O22 1.281 . S
C9 O23 1.254 . S
C10 O24 1.236 . S
C10 O25 1.266 . S
C11 Tb1 2.809 . S
C11 C12 1.514 . S
C11 O26 1.248 . S
C11 O27 1.266 . S
C12 C11 1.514 . S
C12 C13 1.359 . S
C12 C17 1.348 . S
C13 C12 1.359 . S
C13 C14 1.380 . S
C13 H36 0.929 . S
C14 C13 1.380 . S
C14 C15 1.347 1_455 S
C14 H37 0.931 . S
C15 C14 1.347 1_655 S
C15 C16 1.369 . S
C16 C15 1.369 . S
C16 C17 1.408 1_655 S
C16 H38 0.930 . S
C17 C12 1.348 . S
C17 C16 1.408 1_455 S
C17 H39 0.930 . S
C18 O28 1.281 . S
C18 O29 1.254 . S
C19 O30 1.236 . S
C19 O31 1.266 . S
O20 Tb0 2.484 . S
O20 C2 1.248 . S
O21 Tb0 2.440 . S
O21 C2 1.266 . S
O22 Tb0 2.658 . S
O22 Tb1 2.325 . S
O22 C9 1.281 . S
O23 Tb0 2.409 . S
O23 C9 1.254 . S
O24 Tb0 2.378 . S
O24 C10 1.236 . S
O25 Tb1 2.341 . S
O25 C10 1.266 . S
O26 Tb1 2.484 . S
O26 C11 1.248 . S
O27 Tb1 2.440 . S
O27 C11 1.266 . S
O28 Tb0 2.325 . S
O28 Tb1 2.658 . S
O28 C18 1.281 . S
O29 Tb1 2.409 . S
O29 C18 1.254 . S
O30 Tb1 2.378 . S
O30 C19 1.236 . S
O31 Tb0 2.341 . S
O31 C19 1.266 . S
H32 C4 0.929 . S
H33 C5 0.931 . S
H34 C7 0.930 . S
H35 C8 0.930 . S
H36 C13 0.929 . S
H37 C14 0.931 . S
H38 C16 0.930 . S
H39 C17 0.930 . S
Tb40 C42 2.809 . S
Tb40 O60 2.484 . S
Tb40 O61 2.440 . S
Tb40 O62 2.658 . S
Tb40 O63 2.409 . S
Tb40 O64 2.378 . S
Tb40 O68 2.325 . S
Tb40 O71 2.341 . S
Tb41 C51 2.809 . S
Tb41 O62 2.325 . S
Tb41 O65 2.341 . S
Tb41 O66 2.484 . S
Tb41 O67 2.440 . S
Tb41 O68 2.658 . S
Tb41 O69 2.409 . S
Tb41 O70 2.378 . S
C42 Tb40 2.809 . S
C42 C43 1.514 . S
C42 O60 1.248 . S
C42 O61 1.266 . S
C43 C42 1.514 . S
C43 C44 1.359 . S
C43 C48 1.348 . S
C44 C43 1.359 . S
C44 C45 1.380 . S
C44 H72 0.929 . S
C45 C44 1.380 . S
C45 C46 1.347 1_565 S
C45 H73 0.931 . S
C46 C45 1.347 1_545 S
C46 C47 1.369 . S
C47 C46 1.369 . S
C47 C48 1.408 1_545 S
C47 H74 0.930 . S
C48 C43 1.348 . S
C48 C47 1.408 1_565 S
C48 H75 0.930 . S
C49 O62 1.281 . S
C49 O63 1.254 . S
C50 O64 1.236 . S
C50 O65 1.266 . S
C51 Tb41 2.809 . S
C51 C52 1.514 . S
C51 O66 1.248 . S
C51 O67 1.266 . S
C52 C51 1.514 . S
C52 C53 1.359 . S
C52 C57 1.348 . S
C53 C52 1.359 . S
C53 C54 1.380 . S
C53 H76 0.929 . S
C54 C53 1.380 . S
C54 C55 1.347 . S
C54 H77 0.931 . S
C55 C54 1.347 . S
C55 C56 1.369 . S
C56 C55 1.369 . S
C56 C57 1.408 . S
C56 H78 0.930 . S
C57 C52 1.348 . S
C57 C56 1.408 . S
C57 H79 0.930 . S
C58 O68 1.281 . S
C58 O69 1.254 . S
C59 O70 1.236 . S
C59 O71 1.266 . S
O60 Tb40 2.484 . S
O60 C42 1.248 . S
O61 Tb40 2.440 . S
O61 C42 1.266 . S
O62 Tb40 2.658 . S
O62 Tb41 2.325 . S
O62 C49 1.281 . S
O63 Tb40 2.409 . S
O63 C49 1.254 . S
O64 Tb40 2.378 . S
O64 C50 1.236 . S
O65 Tb41 2.341 . S
O65 C50 1.266 . S
O66 Tb41 2.484 . S
O66 C51 1.248 . S
O67 Tb41 2.440 . S
O67 C51 1.266 . S
O68 Tb40 2.325 . S
O68 Tb41 2.658 . S
O68 C58 1.281 . S
O69 Tb41 2.409 . S
O69 C58 1.254 . S
O70 Tb41 2.378 . S
O70 C59 1.236 . S
O71 Tb40 2.341 . S
O71 C59 1.266 . S
H72 C44 0.929 . S
H73 C45 0.931 . S
H74 C47 0.930 . S
H75 C48 0.930 . S
H76 C53 0.929 . S
H77 C54 0.931 . S
H78 C56 0.930 . S
H79 C57 0.930 . S
Tb80 C82 2.809 . S
Tb80 O100 2.484 . S
Tb80 O101 2.440 . S
Tb80 O102 2.658 . S
Tb80 O103 2.409 . S
Tb80 O104 2.378 . S
Tb80 O108 2.325 . S
Tb80 O111 2.341 . S
Tb81 C91 2.809 . S
Tb81 O102 2.325 . S
Tb81 O105 2.341 . S
Tb81 O106 2.484 . S
Tb81 O107 2.440 . S
Tb81 O108 2.658 . S
Tb81 O109 2.409 . S
Tb81 O110 2.378 . S
C82 Tb80 2.809 . S
C82 C83 1.514 . S
C82 O100 1.248 . S
C82 O101 1.266 . S
C83 C82 1.514 . S
C83 C84 1.359 . S
C83 C88 1.348 . S
C84 C83 1.359 . S
C84 C85 1.380 . S
C84 H112 0.929 . S
C85 C84 1.380 . S
C85 C86 1.347 . S
C85 H113 0.931 . S
C86 C85 1.347 . S
C86 C87 1.369 . S
C87 C86 1.369 . S
C87 C88 1.408 . S
C87 H114 0.930 . S
C88 C83 1.348 . S
C88 C87 1.408 . S
C88 H115 0.930 . S
C89 O102 1.281 . S
C89 O103 1.254 . S
C90 O104 1.236 . S
C90 O105 1.266 . S
C91 Tb81 2.809 . S
C91 C92 1.514 . S
C91 O106 1.248 . S
C91 O107 1.266 . S
C92 C91 1.514 . S
C92 C93 1.359 . S
C92 C97 1.348 . S
C93 C92 1.359 . S
C93 C94 1.380 . S
C93 H116 0.929 . S
C94 C93 1.380 . S
C94 C95 1.347 . S
C94 H117 0.931 . S
C95 C94 1.347 . S
C95 C96 1.369 . S
C96 C95 1.369 . S
C96 C97 1.408 . S
C96 H118 0.930 . S
C97 C92 1.348 . S
C97 C96 1.408 . S
C97 H119 0.930 . S
C98 O108 1.281 . S
C98 O109 1.254 . S
C99 O110 1.236 . S
C99 O111 1.266 . S
O100 Tb80 2.484 . S
O100 C82 1.248 . S
O101 Tb80 2.440 . S
O101 C82 1.266 . S
O102 Tb80 2.658 . S
O102 Tb81 2.325 . S
O102 C89 1.281 . S
O103 Tb80 2.409 . S
O103 C89 1.254 . S
O104 Tb80 2.378 . S
O104 C90 1.236 . S
O105 Tb81 2.341 . S
O105 C90 1.266 . S
O106 Tb81 2.484 . S
O106 C91 1.248 . S
O107 Tb81 2.440 . S
O107 C91 1.266 . S
O108 Tb80 2.325 . S
O108 Tb81 2.658 . S
O108 C98 1.281 . S
O109 Tb81 2.409 . S
O109 C98 1.254 . S
O110 Tb81 2.378 . S
O110 C99 1.236 . S
O111 Tb80 2.341 . S
O111 C99 1.266 . S
H112 C84 0.929 . S
H113 C85 0.931 . S
H114 C87 0.930 . S
H115 C88 0.930 . S
H116 C93 0.929 . S
H117 C94 0.931 . S
H118 C96 0.930 . S
H119 C97 0.930 . S
Tb120 C122 2.809 1_554 S
Tb120 O140 2.484 1_554 S
Tb120 O141 2.440 1_554 S
Tb120 O142 2.658 . S
Tb120 O143 2.409 . S
Tb120 O144 2.378 1_554 S
Tb120 O148 2.335 . S
Tb120 O151 2.341 . S
Tb121 C131 2.809 . S
Tb121 O142 2.325 . S
Tb121 O145 2.341 1_554 S
Tb121 O146 2.484 . S
Tb121 O147 2.440 . S
Tb121 O148 2.669 . S
Tb121 O149 2.409 . S
Tb121 O150 2.378 . S
C122 Tb120 2.809 1_556 S
C122 C123 1.514 . S
C122 O140 1.248 . S
C122 O141 1.266 . S
C123 C122 1.514 . S
C123 C124 1.359 . S
C123 C128 1.348 . S
C124 C123 1.359 . S
C124 C125 1.380 . S
C124 H152 0.929 . S
C125 C124 1.380 . S
C125 C126 1.347 1_545 S
C125 H153 0.931 . S
C126 C125 1.347 1_565 S
C126 C127 1.369 . S
C127 C126 1.369 . S
C127 C128 1.408 1_565 S
C127 H154 0.930 . S
C128 C123 1.348 . S
C128 C127 1.408 1_545 S
C128 H155 0.930 . S
C129 O142 1.281 . S
C129 O143 1.254 . S
C130 O144 1.236 . S
C130 O145 1.266 . S
C131 Tb121 2.809 . S
C131 C132 1.514 . S
C131 O146 1.248 . S
C131 O147 1.266 . S
C132 C131 1.514 . S
C132 C133 1.359 . S
C132 C137 1.348 . S
C133 C132 1.359 . S
C133 C134 1.380 . S
C133 H156 0.929 . S
C134 C133 1.380 . S
C134 C135 1.347 . S
C134 H157 0.931 . S
C135 C134 1.347 . S
C135 C136 1.369 . S
C136 C135 1.369 . S
C136 C137 1.408 . S
C136 H158 0.930 . S
C137 C132 1.348 . S
C137 C136 1.408 . S
C137 H159 0.930 . S
C138 O148 1.277 1_556 S
C138 O149 1.254 1_556 S
C139 O150 1.236 . S
C139 O151 1.266 . S
O140 Tb120 2.484 1_556 S
O140 C122 1.248 . S
O141 Tb120 2.440 1_556 S
O141 C122 1.266 . S
O142 Tb120 2.658 . S
O142 Tb121 2.325 . S
O142 C129 1.281 . S
O143 Tb120 2.409 . S
O143 C129 1.254 . S
O144 Tb120 2.378 1_556 S
O144 C130 1.236 . S
O145 Tb121 2.341 1_556 S
O145 C130 1.266 . S
O146 Tb121 2.484 . S
O146 C131 1.248 . S
O147 Tb121 2.440 . S
O147 C131 1.266 . S
O148 Tb120 2.335 . S
O148 Tb121 2.669 . S
O148 C138 1.277 1_554 S
O149 Tb121 2.409 . S
O149 C138 1.254 1_554 S
O150 Tb121 2.378 . S
O150 C139 1.236 . S
O151 Tb120 2.341 . S
O151 C139 1.266 . S
H152 C124 0.929 . S
H153 C125 0.931 . S
H154 C127 0.930 . S
H155 C128 0.930 . S
H156 C133 0.929 . S
H157 C134 0.931 . S
H158 C136 0.930 . S
H159 C137 0.930 . S
Tb160 C162 2.809 . S
Tb160 O180 2.484 . S
Tb160 O181 2.440 . S
Tb160 O182 2.658 . S
Tb160 O183 2.409 . S
Tb160 O184 2.378 . S
Tb160 O188 2.325 . S
Tb160 O191 2.341 . S
Tb161 C171 2.809 . S
Tb161 O182 2.325 . S
Tb161 O185 2.341 . S
Tb161 O186 2.484 . S
Tb161 O187 2.440 . S
Tb161 O188 2.658 . S
Tb161 O189 2.409 . S
Tb161 O190 2.378 . S
C162 Tb160 2.809 . S
C162 C163 1.514 . S
C162 O180 1.248 . S
C162 O181 1.266 . S
C163 C162 1.514 . S
C163 C164 1.359 . S
C163 C168 1.348 . S
C164 C163 1.359 . S
C164 C165 1.380 . S
C164 H192 0.929 . S
C165 C164 1.380 . S
C165 C166 1.347 . S
C165 H193 0.931 . S
C166 C165 1.347 . S
C166 C167 1.369 . S
C167 C166 1.369 . S
C167 C168 1.408 . S
C167 H194 0.930 . S
C168 C163 1.348 . S
C168 C167 1.408 . S
C168 H195 0.930 . S
C169 O182 1.281 . S
C169 O183 1.254 . S
C170 O184 1.236 . S
C170 O185 1.266 . S
C171 Tb161 2.809 . S
C171 C172 1.514 . S
C171 O186 1.248 . S
C171 O187 1.266 . S
C172 C171 1.514 . S
C172 C173 1.359 . S
C172 C177 1.348 . S
C173 C172 1.359 . S
C173 C174 1.380 . S
C173 H196 0.929 . S
C174 C173 1.380 . S
C174 C175 1.347 1_455 S
C174 H197 0.931 . S
C175 C174 1.347 1_655 S
C175 C176 1.369 . S
C176 C175 1.369 . S
C176 C177 1.408 1_655 S
C176 H198 0.930 . S
C177 C172 1.348 . S
C177 C176 1.408 1_455 S
C177 H199 0.930 . S
C178 O188 1.281 . S
C178 O189 1.254 . S
C179 O190 1.236 . S
C179 O191 1.266 . S
O180 Tb160 2.484 . S
O180 C162 1.248 . S
O181 Tb160 2.440 . S
O181 C162 1.266 . S
O182 Tb160 2.658 . S
O182 Tb161 2.325 . S
O182 C169 1.281 . S
O183 Tb160 2.409 . S
O183 C169 1.254 . S
O184 Tb160 2.378 . S
O184 C170 1.236 . S
O185 Tb161 2.341 . S
O185 C170 1.266 . S
O186 Tb161 2.484 . S
O186 C171 1.248 . S
O187 Tb161 2.440 . S
O187 C171 1.266 . S
O188 Tb160 2.325 . S
O188 Tb161 2.658 . S
O188 C178 1.281 . S
O189 Tb161 2.409 . S
O189 C178 1.254 . S
O190 Tb161 2.378 . S
O190 C179 1.236 . S
O191 Tb160 2.341 . S
O191 C179 1.266 . S
H192 C164 0.929 . S
H193 C165 0.931 . S
H194 C167 0.930 . S
H195 C168 0.930 . S
H196 C173 0.929 . S
H197 C174 0.931 . S
H198 C176 0.930 . S
H199 C177 0.930 . S
Tb200 C202 2.809 . S
Tb200 O220 2.484 . S
Tb200 O221 2.440 . S
Tb200 O222 2.658 . S
Tb200 O223 2.409 . S
Tb200 O224 2.378 . S
Tb200 O228 2.325 . S
Tb200 O231 2.341 . S
Tb201 C211 2.809 . S
Tb201 O222 2.325 . S
Tb201 O225 2.341 . S
Tb201 O226 2.484 . S
Tb201 O227 2.440 . S
Tb201 O228 2.658 . S
Tb201 O229 2.409 . S
Tb201 O230 2.378 . S
C202 Tb200 2.809 . S
C202 C203 1.514 . S
C202 O220 1.248 . S
C202 O221 1.266 . S
C203 C202 1.514 . S
C203 C204 1.359 . S
C203 C208 1.348 . S
C204 C203 1.359 . S
C204 C205 1.380 . S
C204 H232 0.929 . S
C205 C204 1.380 . S
C205 C206 1.347 1_565 S
C205 H233 0.931 . S
C206 C205 1.347 1_545 S
C206 C207 1.369 . S
C207 C206 1.369 . S
C207 C208 1.408 1_545 S
C207 H234 0.930 . S
C208 C203 1.348 . S
C208 C207 1.408 1_565 S
C208 H235 0.930 . S
C209 O222 1.281 . S
C209 O223 1.254 . S
C210 O224 1.236 . S
C210 O225 1.266 . S
C211 Tb201 2.809 . S
C211 C212 1.514 . S
C211 O226 1.248 . S
C211 O227 1.266 . S
C212 C211 1.514 . S
C212 C213 1.359 . S
C212 C217 1.348 . S
C213 C212 1.359 . S
C213 C214 1.380 . S
C213 H236 0.929 . S
C214 C213 1.380 . S
C214 C215 1.347 . S
C214 H237 0.931 . S
C215 C214 1.347 . S
C215 C216 1.369 . S
C216 C215 1.369 . S
C216 C217 1.408 . S
C216 H238 0.930 . S
C217 C212 1.348 . S
C217 C216 1.408 . S
C217 H239 0.930 . S
C218 O228 1.281 . S
C218 O229 1.254 . S
C219 O230 1.236 . S
C219 O231 1.266 . S
O220 Tb200 2.484 . S
O220 C202 1.248 . S
O221 Tb200 2.440 . S
O221 C202 1.266 . S
O222 Tb200 2.658 . S
O222 Tb201 2.325 . S
O222 C209 1.281 . S
O223 Tb200 2.409 . S
O223 C209 1.254 . S
O224 Tb200 2.378 . S
O224 C210 1.236 . S
O225 Tb201 2.341 . S
O225 C210 1.266 . S
O226 Tb201 2.484 . S
O226 C211 1.248 . S
O227 Tb201 2.440 . S
O227 C211 1.266 . S
O228 Tb200 2.325 . S
O228 Tb201 2.658 . S
O228 C218 1.281 . S
O229 Tb201 2.409 . S
O229 C218 1.254 . S
O230 Tb201 2.378 . S
O230 C219 1.236 . S
O231 Tb200 2.341 . S
O231 C219 1.266 . S
H232 C204 0.929 . S
H233 C205 0.931 . S
H234 C207 0.930 . S
H235 C208 0.930 . S
H236 C213 0.929 . S
H237 C214 0.931 . S
H238 C216 0.930 . S
H239 C217 0.930 . S
Tb240 C242 2.809 . S
Tb240 O260 2.484 . S
Tb240 O261 2.440 . S
Tb240 O262 2.658 . S
Tb240 O263 2.409 . S
Tb240 O264 2.378 . S
Tb240 O268 2.325 . S
Tb240 O271 2.341 . S
Tb241 C251 2.809 . S
Tb241 O262 2.325 . S
Tb241 O265 2.341 . S
Tb241 O266 2.484 . S
Tb241 O267 2.440 . S
Tb241 O268 2.658 . S
Tb241 O269 2.409 . S
Tb241 O270 2.378 . S
C242 Tb240 2.809 . S
C242 C243 1.514 . S
C242 O260 1.248 . S
C242 O261 1.266 . S
C243 C242 1.514 . S
C243 C244 1.359 . S
C243 C248 1.348 . S
C244 C243 1.359 . S
C244 C245 1.380 . S
C244 H272 0.929 . S
C245 C244 1.380 . S
C245 C246 1.347 . S
C245 H273 0.931 . S
C246 C245 1.347 . S
C246 C247 1.369 . S
C247 C246 1.369 . S
C247 C248 1.408 . S
C247 H274 0.930 . S
C248 C243 1.348 . S
C248 C247 1.408 . S
C248 H275 0.930 . S
C249 O262 1.281 . S
C249 O263 1.254 . S
C250 O264 1.236 . S
C250 O265 1.266 . S
C251 Tb241 2.809 . S
C251 C252 1.514 . S
C251 O266 1.248 . S
C251 O267 1.266 . S
C252 C251 1.514 . S
C252 C253 1.359 . S
C252 C257 1.348 . S
C253 C252 1.359 . S
C253 C254 1.380 . S
C253 H276 0.929 . S
C254 C253 1.380 . S
C254 C255 1.347 . S
C254 H277 0.931 . S
C255 C254 1.347 . S
C255 C256 1.369 . S
C256 C255 1.369 . S
C256 C257 1.408 . S
C256 H278 0.930 . S
C257 C252 1.348 . S
C257 C256 1.408 . S
C257 H279 0.930 . S
C258 O268 1.281 . S
C258 O269 1.254 . S
C259 O270 1.236 . S
C259 O271 1.266 . S
O260 Tb240 2.484 . S
O260 C242 1.248 . S
O261 Tb240 2.440 . S
O261 C242 1.266 . S
O262 Tb240 2.658 . S
O262 Tb241 2.325 . S
O262 C249 1.281 . S
O263 Tb240 2.409 . S
O263 C249 1.254 . S
O264 Tb240 2.378 . S
O264 C250 1.236 . S
O265 Tb241 2.341 . S
O265 C250 1.266 . S
O266 Tb241 2.484 . S
O266 C251 1.248 . S
O267 Tb241 2.440 . S
O267 C251 1.266 . S
O268 Tb240 2.325 . S
O268 Tb241 2.658 . S
O268 C258 1.281 . S
O269 Tb241 2.409 . S
O269 C258 1.254 . S
O270 Tb241 2.378 . S
O270 C259 1.236 . S
O271 Tb240 2.341 . S
O271 C259 1.266 . S
H272 C244 0.929 . S
H273 C245 0.931 . S
H274 C247 0.930 . S
H275 C248 0.930 . S
H276 C253 0.929 . S
H277 C254 0.931 . S
H278 C256 0.930 . S
H279 C257 0.930 . S
Tb280 C282 2.809 1_556 S
Tb280 O300 2.484 1_556 S
Tb280 O301 2.440 1_556 S
Tb280 O302 2.658 . S
Tb280 O303 2.409 . S
Tb280 O304 2.378 1_556 S
Tb280 O308 2.335 . S
Tb280 O311 2.341 . S
Tb281 C291 2.809 . S
Tb281 O302 2.325 . S
Tb281 O305 2.341 1_556 S
Tb281 O306 2.484 . S
Tb281 O307 2.440 . S
Tb281 O308 2.669 . S
Tb281 O309 2.409 . S
Tb281 O310 2.378 . S
C282 Tb280 2.809 1_554 S
C282 C283 1.514 . S
C282 O300 1.248 . S
C282 O301 1.266 . S
C283 C282 1.514 . S
C283 C284 1.359 . S
C283 C288 1.348 . S
C284 C283 1.359 . S
C284 C285 1.380 . S
C284 H312 0.929 . S
C285 C284 1.380 . S
C285 C286 1.347 1_545 S
C285 H313 0.931 . S
C286 C285 1.347 1_565 S
C286 C287 1.369 . S
C287 C286 1.369 . S
C287 C288 1.408 1_565 S
C287 H314 0.930 . S
C288 C283 1.348 . S
C288 C287 1.408 1_545 S
C288 H315 0.930 . S
C289 O302 1.281 . S
C289 O303 1.254 . S
C290 O304 1.236 . S
C290 O305 1.266 . S
C291 Tb281 2.809 . S
C291 C292 1.514 . S
C291 O306 1.248 . S
C291 O307 1.266 . S
C292 C291 1.514 . S
C292 C293 1.359 . S
C292 C297 1.348 . S
C293 C292 1.359 . S
C293 C294 1.380 . S
C293 H316 0.929 . S
C294 C293 1.380 . S
C294 C295 1.347 . S
C294 H317 0.931 . S
C295 C294 1.347 . S
C295 C296 1.369 . S
C296 C295 1.369 . S
C296 C297 1.408 . S
C296 H318 0.930 . S
C297 C292 1.348 . S
C297 C296 1.408 . S
C297 H319 0.930 . S
C298 O308 1.277 1_554 S
C298 O309 1.254 1_554 S
C299 O310 1.236 . S
C299 O311 1.266 . S
O300 Tb280 2.484 1_554 S
O300 C282 1.248 . S
O301 Tb280 2.440 1_554 S
O301 C282 1.266 . S
O302 Tb280 2.658 . S
O302 Tb281 2.325 . S
O302 C289 1.281 . S
O303 Tb280 2.409 . S
O303 C289 1.254 . S
O304 Tb280 2.378 1_554 S
O304 C290 1.236 . S
O305 Tb281 2.341 1_554 S
O305 C290 1.266 . S
O306 Tb281 2.484 . S
O306 C291 1.248 . S
O307 Tb281 2.440 . S
O307 C291 1.266 . S
O308 Tb280 2.335 . S
O308 Tb281 2.669 . S
O308 C298 1.277 1_556 S
O309 Tb281 2.409 . S
O309 C298 1.254 1_556 S
O310 Tb281 2.378 . S
O310 C299 1.236 . S
O311 Tb280 2.341 . S
O311 C299 1.266 . S
H312 C284 0.929 . S
H313 C285 0.931 . S
H314 C287 0.930 . S
H315 C288 0.930 . S
H316 C293 0.929 . S
H317 C294 0.931 . S
H318 C296 0.930 . S
H319 C297 0.930 . S
Tb320 C322 2.809 . S
Tb320 O340 2.484 . S
Tb320 O341 2.440 . S
Tb320 O342 2.658 . S
Tb320 O343 2.409 . S
Tb320 O344 2.378 . S
Tb320 O348 2.325 . S
Tb320 O351 2.341 . S
Tb321 C331 2.809 . S
Tb321 O342 2.325 . S
Tb321 O345 2.341 . S
Tb321 O346 2.484 . S
Tb321 O347 2.440 . S
Tb321 O348 2.658 . S
Tb321 O349 2.409 . S
Tb321 O350 2.378 . S
C322 Tb320 2.809 . S
C322 C323 1.514 . S
C322 O340 1.248 . S
C322 O341 1.266 . S
C323 C322 1.514 . S
C323 C324 1.359 . S
C323 C328 1.348 . S
C324 C323 1.359 . S
C324 C325 1.380 . S
C324 H352 0.929 . S
C325 C324 1.380 . S
C325 C326 1.347 1_655 S
C325 H353 0.931 . S
C326 C325 1.347 1_455 S
C326 C327 1.369 . S
C327 C326 1.369 . S
C327 C328 1.408 1_455 S
C327 H354 0.930 . S
C328 C323 1.348 . S
C328 C327 1.408 1_655 S
C328 H355 0.930 . S
C329 O342 1.281 . S
C329 O343 1.254 . S
C330 O344 1.236 . S
C330 O345 1.266 . S
C331 Tb321 2.809 . S
C331 C332 1.514 . S
C331 O346 1.248 . S
C331 O347 1.266 . S
C332 C331 1.514 . S
C332 C333 1.359 . S
C332 C337 1.348 . S
C333 C332 1.359 . S
C333 C334 1.380 . S
C333 H356 0.929 . S
C334 C333 1.380 . S
C334 C335 1.347 . S
C334 H357 0.931 . S
C335 C334 1.347 . S
C335 C336 1.369 . S
C336 C335 1.369 . S
C336 C337 1.408 . S
C336 H358 0.930 . S
C337 C332 1.348 . S
C337 C336 1.408 . S
C337 H359 0.930 . S
C338 O348 1.281 . S
C338 O349 1.254 . S
C339 O350 1.236 . S
C339 O351 1.266 . S
O340 Tb320 2.484 . S
O340 C322 1.248 . S
O341 Tb320 2.440 . S
O341 C322 1.266 . S
O342 Tb320 2.658 . S
O342 Tb321 2.325 . S
O342 C329 1.281 . S
O343 Tb320 2.409 . S
O343 C329 1.254 . S
O344 Tb320 2.378 . S
O344 C330 1.236 . S
O345 Tb321 2.341 . S
O345 C330 1.266 . S
O346 Tb321 2.484 . S
O346 C331 1.248 . S
O347 Tb321 2.440 . S
O347 C331 1.266 . S
O348 Tb320 2.325 . S
O348 Tb321 2.658 . S
O348 C338 1.281 . S
O349 Tb321 2.409 . S
O349 C338 1.254 . S
O350 Tb321 2.378 . S
O350 C339 1.236 . S
O351 Tb320 2.341 . S
O351 C339 1.266 . S
H352 C324 0.929 . S
H353 C325 0.931 . S
H354 C327 0.930 . S
H355 C328 0.930 . S
H356 C333 0.929 . S
H357 C334 0.931 . S
H358 C336 0.930 . S
H359 C337 0.930 . S
Tb360 C362 2.809 . S
Tb360 O380 2.484 . S
Tb360 O381 2.440 . S
Tb360 O382 2.658 . S
Tb360 O383 2.409 . S
Tb360 O384 2.378 . S
Tb360 O388 2.325 . S
Tb360 O391 2.341 . S
Tb361 C371 2.809 . S
Tb361 O382 2.325 . S
Tb361 O385 2.341 . S
Tb361 O386 2.484 . S
Tb361 O387 2.440 . S
Tb361 O388 2.658 . S
Tb361 O389 2.409 . S
Tb361 O390 2.378 . S
C362 Tb360 2.809 . S
C362 C363 1.514 . S
C362 O380 1.248 . S
C362 O381 1.266 . S
C363 C362 1.514 . S
C363 C364 1.359 . S
C363 C368 1.348 . S
C364 C363 1.359 . S
C364 C365 1.380 . S
C364 H392 0.929 . S
C365 C364 1.380 . S
C365 C366 1.347 . S
C365 H393 0.931 . S
C366 C365 1.347 . S
C366 C367 1.369 . S
C367 C366 1.369 . S
C367 C368 1.408 . S
C367 H394 0.930 . S
C368 C363 1.348 . S
C368 C367 1.408 . S
C368 H395 0.930 . S
C369 O382 1.281 . S
C369 O383 1.254 . S
C370 O384 1.236 . S
C370 O385 1.266 . S
C371 Tb361 2.809 . S
C371 C372 1.514 . S
C371 O386 1.248 . S
C371 O387 1.266 . S
C372 C371 1.514 . S
C372 C373 1.359 . S
C372 C377 1.348 . S
C373 C372 1.359 . S
C373 C374 1.380 . S
C373 H396 0.929 . S
C374 C373 1.380 . S
C374 C375 1.347 1_545 S
C374 H397 0.931 . S
C375 C374 1.347 1_565 S
C375 C376 1.369 . S
C376 C375 1.369 . S
C376 C377 1.408 1_565 S
C376 H398 0.930 . S
C377 C372 1.348 . S
C377 C376 1.408 1_545 S
C377 H399 0.930 . S
C378 O388 1.281 . S
C378 O389 1.254 . S
C379 O390 1.236 . S
C379 O391 1.266 . S
O380 Tb360 2.484 . S
O380 C362 1.248 . S
O381 Tb360 2.440 . S
O381 C362 1.266 . S
O382 Tb360 2.658 . S
O382 Tb361 2.325 . S
O382 C369 1.281 . S
O383 Tb360 2.409 . S
O383 C369 1.254 . S
O384 Tb360 2.378 . S
O384 C370 1.236 . S
O385 Tb361 2.341 . S
O385 C370 1.266 . S
O386 Tb361 2.484 . S
O386 C371 1.248 . S
O387 Tb361 2.440 . S
O387 C371 1.266 . S
O388 Tb360 2.325 . S
O388 Tb361 2.658 . S
O388 C378 1.281 . S
O389 Tb361 2.409 . S
O389 C378 1.254 . S
O390 Tb361 2.378 . S
O390 C379 1.236 . S
O391 Tb360 2.341 . S
O391 C379 1.266 . S
H392 C364 0.929 . S
H393 C365 0.931 . S
H394 C367 0.930 . S
H395 C368 0.930 . S
H396 C373 0.929 . S
H397 C374 0.931 . S
H398 C376 0.930 . S
H399 C377 0.930 . S
Tb400 C402 2.809 . S
Tb400 O420 2.484 . S
Tb400 O421 2.440 . S
Tb400 O422 2.658 . S
Tb400 O423 2.409 . S
Tb400 O424 2.378 . S
Tb400 O428 2.325 . S
Tb400 O431 2.341 . S
Tb401 C411 2.809 . S
Tb401 O422 2.325 . S
Tb401 O425 2.341 . S
Tb401 O426 2.484 . S
Tb401 O427 2.440 . S
Tb401 O428 2.658 . S
Tb401 O429 2.409 . S
Tb401 O430 2.378 . S
C402 Tb400 2.809 . S
C402 C403 1.514 . S
C402 O420 1.248 . S
C402 O421 1.266 . S
C403 C402 1.514 . S
C403 C404 1.359 . S
C403 C408 1.348 . S
C404 C403 1.359 . S
C404 C405 1.380 . S
C404 H432 0.929 . S
C405 C404 1.380 . S
C405 C406 1.347 . S
C405 H433 0.931 . S
C406 C405 1.347 . S
C406 C407 1.369 . S
C407 C406 1.369 . S
C407 C408 1.408 . S
C407 H434 0.930 . S
C408 C403 1.348 . S
C408 C407 1.408 . S
C408 H435 0.930 . S
C409 O422 1.281 . S
C409 O423 1.254 . S
C410 O424 1.236 . S
C410 O425 1.266 . S
C411 Tb401 2.809 . S
C411 C412 1.514 . S
C411 O426 1.248 . S
C411 O427 1.266 . S
C412 C411 1.514 . S
C412 C413 1.359 . S
C412 C417 1.348 . S
C413 C412 1.359 . S
C413 C414 1.380 . S
C413 H436 0.929 . S
C414 C413 1.380 . S
C414 C415 1.347 . S
C414 H437 0.931 . S
C415 C414 1.347 . S
C415 C416 1.369 . S
C416 C415 1.369 . S
C416 C417 1.408 . S
C416 H438 0.930 . S
C417 C412 1.348 . S
C417 C416 1.408 . S
C417 H439 0.930 . S
C418 O428 1.281 . S
C418 O429 1.254 . S
C419 O430 1.236 . S
C419 O431 1.266 . S
O420 Tb400 2.484 . S
O420 C402 1.248 . S
O421 Tb400 2.440 . S
O421 C402 1.266 . S
O422 Tb400 2.658 . S
O422 Tb401 2.325 . S
O422 C409 1.281 . S
O423 Tb400 2.409 . S
O423 C409 1.254 . S
O424 Tb400 2.378 . S
O424 C410 1.236 . S
O425 Tb401 2.341 . S
O425 C410 1.266 . S
O426 Tb401 2.484 . S
O426 C411 1.248 . S
O427 Tb401 2.440 . S
O427 C411 1.266 . S
O428 Tb400 2.325 . S
O428 Tb401 2.658 . S
O428 C418 1.281 . S
O429 Tb401 2.409 . S
O429 C418 1.254 . S
O430 Tb401 2.378 . S
O430 C419 1.236 . S
O431 Tb400 2.341 . S
O431 C419 1.266 . S
H432 C404 0.929 . S
H433 C405 0.931 . S
H434 C407 0.930 . S
H435 C408 0.930 . S
H436 C413 0.929 . S
H437 C414 0.931 . S
H438 C416 0.930 . S
H439 C417 0.930 . S
Tb440 C442 2.809 . S
Tb440 O460 2.484 . S
Tb440 O461 2.440 . S
Tb440 O462 2.669 . S
Tb440 O463 2.409 . S
Tb440 O464 2.378 . S
Tb440 O468 2.325 . S
Tb440 O471 2.341 1_556 S
Tb441 C451 2.809 1_556 S
Tb441 O462 2.335 . S
Tb441 O465 2.341 . S
Tb441 O466 2.484 1_556 S
Tb441 O467 2.440 1_556 S
Tb441 O468 2.658 . S
Tb441 O469 2.409 . S
Tb441 O470 2.378 1_556 S
C442 Tb440 2.809 . S
C442 C443 1.514 . S
C442 O460 1.248 . S
C442 O461 1.266 . S
C443 C442 1.514 . S
C443 C444 1.359 . S
C443 C448 1.348 . S
C444 C443 1.359 . S
C444 C445 1.380 . S
C444 H472 0.929 . S
C445 C444 1.380 . S
C445 C446 1.347 . S
C445 H473 0.931 . S
C446 C445 1.347 . S
C446 C447 1.369 . S
C447 C446 1.369 . S
C447 C448 1.408 . S
C447 H474 0.930 . S
C448 C443 1.348 . S
C448 C447 1.408 . S
C448 H475 0.930 . S
C449 O462 1.277 1_554 S
C449 O463 1.254 1_554 S
C450 O464 1.236 . S
C450 O465 1.266 . S
C451 Tb441 2.809 1_554 S
C451 C452 1.514 . S
C451 O466 1.248 . S
C451 O467 1.266 . S
C452 C451 1.514 . S
C452 C453 1.359 . S
C452 C457 1.348 . S
C453 C452 1.359 . S
C453 C454 1.380 . S
C453 H476 0.929 . S
C454 C453 1.380 . S
C454 C455 1.347 1_565 S
C454 H477 0.931 . S
C455 C454 1.347 1_545 S
C455 C456 1.369 . S
C456 C455 1.369 . S
C456 C457 1.408 1_545 S
C456 H478 0.930 . S
C457 C452 1.348 . S
C457 C456 1.408 1_565 S
C457 H479 0.930 . S
C458 O468 1.281 . S
C458 O469 1.254 . S
C459 O470 1.236 . S
C459 O471 1.266 . S
O460 Tb440 2.484 . S
O460 C442 1.248 . S
O461 Tb440 2.440 . S
O461 C442 1.266 . S
O462 Tb440 2.669 . S
O462 Tb441 2.335 . S
O462 C449 1.277 1_556 S
O463 Tb440 2.409 . S
O463 C449 1.254 1_556 S
O464 Tb440 2.378 . S
O464 C450 1.236 . S
O465 Tb441 2.341 . S
O465 C450 1.266 . S
O466 Tb441 2.484 1_554 S
O466 C451 1.248 . S
O467 Tb441 2.440 1_554 S
O467 C451 1.266 . S
O468 Tb440 2.325 . S
O468 Tb441 2.658 . S
O468 C458 1.281 . S
O469 Tb441 2.409 . S
O469 C458 1.254 . S
O470 Tb441 2.378 1_554 S
O470 C459 1.236 . S
O471 Tb440 2.341 1_554 S
O471 C459 1.266 . S
H472 C444 0.929 . S
H473 C445 0.931 . S
H474 C447 0.930 . S
H475 C448 0.930 . S
H476 C453 0.929 . S
H477 C454 0.931 . S
H478 C456 0.930 . S
H479 C457 0.930 . S
Tb480 C482 2.809 . S
Tb480 O500 2.484 . S
Tb480 O501 2.440 . S
Tb480 O502 2.658 . S
Tb480 O503 2.409 . S
Tb480 O504 2.378 . S
Tb480 O508 2.325 . S
Tb480 O511 2.341 . S
Tb481 C491 2.809 . S
Tb481 O502 2.325 . S
Tb481 O505 2.341 . S
Tb481 O506 2.484 . S
Tb481 O507 2.440 . S
Tb481 O508 2.658 . S
Tb481 O509 2.409 . S
Tb481 O510 2.378 . S
C482 Tb480 2.809 . S
C482 C483 1.514 . S
C482 O500 1.248 . S
C482 O501 1.266 . S
C483 C482 1.514 . S
C483 C484 1.359 . S
C483 C488 1.348 . S
C484 C483 1.359 . S
C484 C485 1.380 . S
C484 H512 0.929 . S
C485 C484 1.380 . S
C485 C486 1.347 1_655 S
C485 H513 0.931 . S
C486 C485 1.347 1_455 S
C486 C487 1.369 . S
C487 C486 1.369 . S
C487 C488 1.408 1_455 S
C487 H514 0.930 . S
C488 C483 1.348 . S
C488 C487 1.408 1_655 S
C488 H515 0.930 . S
C489 O502 1.281 . S
C489 O503 1.254 . S
C490 O504 1.236 . S
C490 O505 1.266 . S
C491 Tb481 2.809 . S
C491 C492 1.514 . S
C491 O506 1.248 . S
C491 O507 1.266 . S
C492 C491 1.514 . S
C492 C493 1.359 . S
C492 C497 1.348 . S
C493 C492 1.359 . S
C493 C494 1.380 . S
C493 H516 0.929 . S
C494 C493 1.380 . S
C494 C495 1.347 . S
C494 H517 0.931 . S
C495 C494 1.347 . S
C495 C496 1.369 . S
C496 C495 1.369 . S
C496 C497 1.408 . S
C496 H518 0.930 . S
C497 C492 1.348 . S
C497 C496 1.408 . S
C497 H519 0.930 . S
C498 O508 1.281 . S
C498 O509 1.254 . S
C499 O510 1.236 . S
C499 O511 1.266 . S
O500 Tb480 2.484 . S
O500 C482 1.248 . S
O501 Tb480 2.440 . S
O501 C482 1.266 . S
O502 Tb480 2.658 . S
O502 Tb481 2.325 . S
O502 C489 1.281 . S
O503 Tb480 2.409 . S
O503 C489 1.254 . S
O504 Tb480 2.378 . S
O504 C490 1.236 . S
O505 Tb481 2.341 . S
O505 C490 1.266 . S
O506 Tb481 2.484 . S
O506 C491 1.248 . S
O507 Tb481 2.440 . S
O507 C491 1.266 . S
O508 Tb480 2.325 . S
O508 Tb481 2.658 . S
O508 C498 1.281 . S
O509 Tb481 2.409 . S
O509 C498 1.254 . S
O510 Tb481 2.378 . S
O510 C499 1.236 . S
O511 Tb480 2.341 . S
O511 C499 1.266 . S
H512 C484 0.929 . S
H513 C485 0.931 . S
H514 C487 0.930 . S
H515 C488 0.930 . S
H516 C493 0.929 . S
H517 C494 0.931 . S
H518 C496 0.930 . S
H519 C497 0.930 . S
Tb520 C522 2.809 . S
Tb520 O540 2.484 . S
Tb520 O541 2.440 . S
Tb520 O542 2.658 . S
Tb520 O543 2.409 . S
Tb520 O544 2.378 . S
Tb520 O548 2.325 . S
Tb520 O551 2.341 . S
Tb521 C531 2.809 . S
Tb521 O542 2.325 . S
Tb521 O545 2.341 . S
Tb521 O546 2.484 . S
Tb521 O547 2.440 . S
Tb521 O548 2.658 . S
Tb521 O549 2.409 . S
Tb521 O550 2.378 . S
C522 Tb520 2.809 . S
C522 C523 1.514 . S
C522 O540 1.248 . S
C522 O541 1.266 . S
C523 C522 1.514 . S
C523 C524 1.359 . S
C523 C528 1.348 . S
C524 C523 1.359 . S
C524 C525 1.380 . S
C524 H552 0.929 . S
C525 C524 1.380 . S
C525 C526 1.347 . S
C525 H553 0.931 . S
C526 C525 1.347 . S
C526 C527 1.369 . S
C527 C526 1.369 . S
C527 C528 1.408 . S
C527 H554 0.930 . S
C528 C523 1.348 . S
C528 C527 1.408 . S
C528 H555 0.930 . S
C529 O542 1.281 . S
C529 O543 1.254 . S
C530 O544 1.236 . S
C530 O545 1.266 . S
C531 Tb521 2.809 . S
C531 C532 1.514 . S
C531 O546 1.248 . S
C531 O547 1.266 . S
C532 C531 1.514 . S
C532 C533 1.359 . S
C532 C537 1.348 . S
C533 C532 1.359 . S
C533 C534 1.380 . S
C533 H556 0.929 . S
C534 C533 1.380 . S
C534 C535 1.347 1_545 S
C534 H557 0.931 . S
C535 C534 1.347 1_565 S
C535 C536 1.369 . S
C536 C535 1.369 . S
C536 C537 1.408 1_565 S
C536 H558 0.930 . S
C537 C532 1.348 . S
C537 C536 1.408 1_545 S
C537 H559 0.930 . S
C538 O548 1.281 . S
C538 O549 1.254 . S
C539 O550 1.236 . S
C539 O551 1.266 . S
O540 Tb520 2.484 . S
O540 C522 1.248 . S
O541 Tb520 2.440 . S
O541 C522 1.266 . S
O542 Tb520 2.658 . S
O542 Tb521 2.325 . S
O542 C529 1.281 . S
O543 Tb520 2.409 . S
O543 C529 1.254 . S
O544 Tb520 2.378 . S
O544 C530 1.236 . S
O545 Tb521 2.341 . S
O545 C530 1.266 . S
O546 Tb521 2.484 . S
O546 C531 1.248 . S
O547 Tb521 2.440 . S
O547 C531 1.266 . S
O548 Tb520 2.325 . S
O548 Tb521 2.658 . S
O548 C538 1.281 . S
O549 Tb521 2.409 . S
O549 C538 1.254 . S
O550 Tb521 2.378 . S
O550 C539 1.236 . S
O551 Tb520 2.341 . S
O551 C539 1.266 . S
H552 C524 0.929 . S
H553 C525 0.931 . S
H554 C527 0.930 . S
H555 C528 0.930 . S
H556 C533 0.929 . S
H557 C534 0.931 . S
H558 C536 0.930 . S
H559 C537 0.930 . S
Tb560 C562 2.809 . S
Tb560 O580 2.484 . S
Tb560 O581 2.440 . S
Tb560 O582 2.658 . S
Tb560 O583 2.409 . S
Tb560 O584 2.378 . S
Tb560 O588 2.325 . S
Tb560 O591 2.341 . S
Tb561 C571 2.809 . S
Tb561 O582 2.325 . S
Tb561 O585 2.341 . S
Tb561 O586 2.484 . S
Tb561 O587 2.440 . S
Tb561 O588 2.658 . S
Tb561 O589 2.409 . S
Tb561 O590 2.378 . S
C562 Tb560 2.809 . S
C562 C563 1.514 . S
C562 O580 1.248 . S
C562 O581 1.266 . S
C563 C562 1.514 . S
C563 C564 1.359 . S
C563 C568 1.348 . S
C564 C563 1.359 . S
C564 C565 1.380 . S
C564 H592 0.929 . S
C565 C564 1.380 . S
C565 C566 1.347 . S
C565 H593 0.931 . S
C566 C565 1.347 . S
C566 C567 1.369 . S
C567 C566 1.369 . S
C567 C568 1.408 . S
C567 H594 0.930 . S
C568 C563 1.348 . S
C568 C567 1.408 . S
C568 H595 0.930 . S
C569 O582 1.281 . S
C569 O583 1.254 . S
C570 O584 1.236 . S
C570 O585 1.266 . S
C571 Tb561 2.809 . S
C571 C572 1.514 . S
C571 O586 1.248 . S
C571 O587 1.266 . S
C572 C571 1.514 . S
C572 C573 1.359 . S
C572 C577 1.348 . S
C573 C572 1.359 . S
C573 C574 1.380 . S
C573 H596 0.929 . S
C574 C573 1.380 . S
C574 C575 1.347 . S
C574 H597 0.931 . S
C575 C574 1.347 . S
C575 C576 1.369 . S
C576 C575 1.369 . S
C576 C577 1.408 . S
C576 H598 0.930 . S
C577 C572 1.348 . S
C577 C576 1.408 . S
C577 H599 0.930 . S
C578 O588 1.281 . S
C578 O589 1.254 . S
C579 O590 1.236 . S
C579 O591 1.266 . S
O580 Tb560 2.484 . S
O580 C562 1.248 . S
O581 Tb560 2.440 . S
O581 C562 1.266 . S
O582 Tb560 2.658 . S
O582 Tb561 2.325 . S
O582 C569 1.281 . S
O583 Tb560 2.409 . S
O583 C569 1.254 . S
O584 Tb560 2.378 . S
O584 C570 1.236 . S
O585 Tb561 2.341 . S
O585 C570 1.266 . S
O586 Tb561 2.484 . S
O586 C571 1.248 . S
O587 Tb561 2.440 . S
O587 C571 1.266 . S
O588 Tb560 2.325 . S
O588 Tb561 2.658 . S
O588 C578 1.281 . S
O589 Tb561 2.409 . S
O589 C578 1.254 . S
O590 Tb561 2.378 . S
O590 C579 1.236 . S
O591 Tb560 2.341 . S
O591 C579 1.266 . S
H592 C564 0.929 . S
H593 C565 0.931 . S
H594 C567 0.930 . S
H595 C568 0.930 . S
H596 C573 0.929 . S
H597 C574 0.931 . S
H598 C576 0.930 . S
H599 C577 0.930 . S
Tb600 C602 2.809 . S
Tb600 O620 2.484 . S
Tb600 O621 2.440 . S
Tb600 O622 2.669 . S
Tb600 O623 2.409 . S
Tb600 O624 2.378 . S
Tb600 O628 2.325 . S
Tb600 O631 2.341 1_554 S
Tb601 C611 2.809 1_554 S
Tb601 O622 2.335 . S
Tb601 O625 2.341 . S
Tb601 O626 2.484 1_554 S
Tb601 O627 2.440 1_554 S
Tb601 O628 2.658 . S
Tb601 O629 2.409 . S
Tb601 O630 2.378 1_554 S
C602 Tb600 2.809 . S
C602 C603 1.514 . S
C602 O620 1.248 . S
C602 O621 1.266 . S
C603 C602 1.514 . S
C603 C604 1.359 . S
C603 C608 1.348 . S
C604 C603 1.359 . S
C604 C605 1.380 . S
C604 H632 0.929 . S
C605 C604 1.380 . S
C605 C606 1.347 . S
C605 H633 0.931 . S
C606 C605 1.347 . S
C606 C607 1.369 . S
C607 C606 1.369 . S
C607 C608 1.408 . S
C607 H634 0.930 . S
C608 C603 1.348 . S
C608 C607 1.408 . S
C608 H635 0.930 . S
C609 O622 1.277 1_556 S
C609 O623 1.254 1_556 S
C610 O624 1.236 . S
C610 O625 1.266 . S
C611 Tb601 2.809 1_556 S
C611 C612 1.514 . S
C611 O626 1.248 . S
C611 O627 1.266 . S
C612 C611 1.514 . S
C612 C613 1.359 . S
C612 C617 1.348 . S
C613 C612 1.359 . S
C613 C614 1.380 . S
C613 H636 0.929 . S
C614 C613 1.380 . S
C614 C615 1.347 1_565 S
C614 H637 0.931 . S
C615 C614 1.347 1_545 S
C615 C616 1.369 . S
C616 C615 1.369 . S
C616 C617 1.408 1_545 S
C616 H638 0.930 . S
C617 C612 1.348 . S
C617 C616 1.408 1_565 S
C617 H639 0.930 . S
C618 O628 1.281 . S
C618 O629 1.254 . S
C619 O630 1.236 . S
C619 O631 1.266 . S
O620 Tb600 2.484 . S
O620 C602 1.248 . S
O621 Tb600 2.440 . S
O621 C602 1.266 . S
O622 Tb600 2.669 . S
O622 Tb601 2.335 . S
O622 C609 1.277 1_554 S
O623 Tb600 2.409 . S
O623 C609 1.254 1_554 S
O624 Tb600 2.378 . S
O624 C610 1.236 . S
O625 Tb601 2.341 . S
O625 C610 1.266 . S
O626 Tb601 2.484 1_556 S
O626 C611 1.248 . S
O627 Tb601 2.440 1_556 S
O627 C611 1.266 . S
O628 Tb600 2.325 . S
O628 Tb601 2.658 . S
O628 C618 1.281 . S
O629 Tb601 2.409 . S
O629 C618 1.254 . S
O630 Tb601 2.378 1_556 S
O630 C619 1.236 . S
O631 Tb600 2.341 1_556 S
O631 C619 1.266 . S
H632 C604 0.929 . S
H633 C605 0.931 . S
H634 C607 0.930 . S
H635 C608 0.930 . S
H636 C613 0.929 . S
H637 C614 0.931 . S
H638 C616 0.930 . S
H639 C617 0.930 . S
Tb640 C642 2.809 . S
Tb640 O660 2.484 . S
Tb640 O661 2.440 . S
Tb640 O662 2.658 . S
Tb640 O663 2.409 . S
Tb640 O664 2.378 . S
Tb640 O668 2.325 . S
Tb640 O671 2.341 . S
Tb641 C651 2.809 . S
Tb641 O662 2.325 . S
Tb641 O665 2.341 . S
Tb641 O666 2.484 . S
Tb641 O667 2.440 . S
Tb641 O668 2.658 . S
Tb641 O669 2.409 . S
Tb641 O670 2.378 . S
C642 Tb640 2.809 . S
C642 C643 1.514 . S
C642 O660 1.248 . S
C642 O661 1.266 . S
C643 C642 1.514 . S
C643 C644 1.359 . S
C643 C648 1.348 . S
C644 C643 1.359 . S
C644 C645 1.380 . S
C644 H672 0.929 . S
C645 C644 1.380 . S
C645 C646 1.347 . S
C645 H673 0.931 . S
C646 C645 1.347 . S
C646 C647 1.369 . S
C647 C646 1.369 . S
C647 C648 1.408 . S
C647 H674 0.930 . S
C648 C643 1.348 . S
C648 C647 1.408 . S
C648 H675 0.930 . S
C649 O662 1.281 . S
C649 O663 1.254 . S
C650 O664 1.236 . S
C650 O665 1.266 . S
C651 Tb641 2.809 . S
C651 C652 1.514 . S
C651 O666 1.248 . S
C651 O667 1.266 . S
C652 C651 1.514 . S
C652 C653 1.359 . S
C652 C657 1.348 . S
C653 C652 1.359 . S
C653 C654 1.380 . S
C653 H676 0.929 . S
C654 C653 1.380 . S
C654 C655 1.347 . S
C654 H677 0.931 . S
C655 C654 1.347 . S
C655 C656 1.369 . S
C656 C655 1.369 . S
C656 C657 1.408 . S
C656 H678 0.930 . S
C657 C652 1.348 . S
C657 C656 1.408 . S
C657 H679 0.930 . S
C658 O668 1.281 . S
C658 O669 1.254 . S
C659 O670 1.236 . S
C659 O671 1.266 . S
O660 Tb640 2.484 . S
O660 C642 1.248 . S
O661 Tb640 2.440 . S
O661 C642 1.266 . S
O662 Tb640 2.658 . S
O662 Tb641 2.325 . S
O662 C649 1.281 . S
O663 Tb640 2.409 . S
O663 C649 1.254 . S
O664 Tb640 2.378 . S
O664 C650 1.236 . S
O665 Tb641 2.341 . S
O665 C650 1.266 . S
O666 Tb641 2.484 . S
O666 C651 1.248 . S
O667 Tb641 2.440 . S
O667 C651 1.266 . S
O668 Tb640 2.325 . S
O668 Tb641 2.658 . S
O668 C658 1.281 . S
O669 Tb641 2.409 . S
O669 C658 1.254 . S
O670 Tb641 2.378 . S
O670 C659 1.236 . S
O671 Tb640 2.341 . S
O671 C659 1.266 . S
H672 C644 0.929 . S
H673 C645 0.931 . S
H674 C647 0.930 . S
H675 C648 0.930 . S
H676 C653 0.929 . S
H677 C654 0.931 . S
H678 C656 0.930 . S
H679 C657 0.930 . S
Tb680 C682 2.809 1_554 S
Tb680 O700 2.484 1_554 S
Tb680 O701 2.440 1_554 S
Tb680 O702 2.658 . S
Tb680 O703 2.409 . S
Tb680 O704 2.378 1_554 S
Tb680 O708 2.335 . S
Tb680 O711 2.341 . S
Tb681 C691 2.809 . S
Tb681 O702 2.325 . S
Tb681 O705 2.341 1_554 S
Tb681 O706 2.484 . S
Tb681 O707 2.440 . S
Tb681 O708 2.669 . S
Tb681 O709 2.409 . S
Tb681 O710 2.378 . S
C682 Tb680 2.809 1_556 S
C682 C683 1.514 . S
C682 O700 1.248 . S
C682 O701 1.266 . S
C683 C682 1.514 . S
C683 C684 1.359 . S
C683 C688 1.348 . S
C684 C683 1.359 . S
C684 C685 1.380 . S
C684 H712 0.929 . S
C685 C684 1.380 . S
C685 C686 1.347 . S
C685 H713 0.931 . S
C686 C685 1.347 . S
C686 C687 1.369 . S
C687 C686 1.369 . S
C687 C688 1.408 . S
C687 H714 0.930 . S
C688 C683 1.348 . S
C688 C687 1.408 . S
C688 H715 0.930 . S
C689 O702 1.281 . S
C689 O703 1.254 . S
C690 O704 1.236 . S
C690 O705 1.266 . S
C691 Tb681 2.809 . S
C691 C692 1.514 . S
C691 O706 1.248 . S
C691 O707 1.266 . S
C692 C691 1.514 . S
C692 C693 1.359 . S
C692 C697 1.348 . S
C693 C692 1.359 . S
C693 C694 1.380 . S
C693 H716 0.929 . S
C694 C693 1.380 . S
C694 C695 1.347 . S
C694 H717 0.931 . S
C695 C694 1.347 . S
C695 C696 1.369 . S
C696 C695 1.369 . S
C696 C697 1.408 . S
C696 H718 0.930 . S
C697 C692 1.348 . S
C697 C696 1.408 . S
C697 H719 0.930 . S
C698 O708 1.277 1_556 S
C698 O709 1.254 1_556 S
C699 O710 1.236 . S
C699 O711 1.266 . S
O700 Tb680 2.484 1_556 S
O700 C682 1.248 . S
O701 Tb680 2.440 1_556 S
O701 C682 1.266 . S
O702 Tb680 2.658 . S
O702 Tb681 2.325 . S
O702 C689 1.281 . S
O703 Tb680 2.409 . S
O703 C689 1.254 . S
O704 Tb680 2.378 1_556 S
O704 C690 1.236 . S
O705 Tb681 2.341 1_556 S
O705 C690 1.266 . S
O706 Tb681 2.484 . S
O706 C691 1.248 . S
O707 Tb681 2.440 . S
O707 C691 1.266 . S
O708 Tb680 2.335 . S
O708 Tb681 2.669 . S
O708 C698 1.277 1_554 S
O709 Tb681 2.409 . S
O709 C698 1.254 1_554 S
O710 Tb681 2.378 . S
O710 C699 1.236 . S
O711 Tb680 2.341 . S
O711 C699 1.266 . S
H712 C684 0.929 . S
H713 C685 0.931 . S
H714 C687 0.930 . S
H715 C688 0.930 . S
H716 C693 0.929 . S
H717 C694 0.931 . S
H718 C696 0.930 . S
H719 C697 0.930 . S
Tb720 C722 2.809 . S
Tb720 O740 2.484 . S
Tb720 O741 2.440 . S
Tb720 O742 2.658 . S
Tb720 O743 2.409 . S
Tb720 O744 2.378 . S
Tb720 O748 2.325 . S
Tb720 O751 2.341 . S
Tb721 C731 2.809 . S
Tb721 O742 2.325 . S
Tb721 O745 2.341 . S
Tb721 O746 2.484 . S
Tb721 O747 2.440 . S
Tb721 O748 2.658 . S
Tb721 O749 2.409 . S
Tb721 O750 2.378 . S
C722 Tb720 2.809 . S
C722 C723 1.514 . S
C722 O740 1.248 . S
C722 O741 1.266 . S
C723 C722 1.514 . S
C723 C724 1.359 . S
C723 C728 1.348 . S
C724 C723 1.359 . S
C724 C725 1.380 . S
C724 H752 0.929 . S
C725 C724 1.380 . S
C725 C726 1.347 . S
C725 H753 0.931 . S
C726 C725 1.347 . S
C726 C727 1.369 . S
C727 C726 1.369 . S
C727 C728 1.408 . S
C727 H754 0.930 . S
C728 C723 1.348 . S
C728 C727 1.408 . S
C728 H755 0.930 . S
C729 O742 1.281 . S
C729 O743 1.254 . S
C730 O744 1.236 . S
C730 O745 1.266 . S
C731 Tb721 2.809 . S
C731 C732 1.514 . S
C731 O746 1.248 . S
C731 O747 1.266 . S
C732 C731 1.514 . S
C732 C733 1.359 . S
C732 C737 1.348 . S
C733 C732 1.359 . S
C733 C734 1.380 . S
C733 H756 0.929 . S
C734 C733 1.380 . S
C734 C735 1.347 1_655 S
C734 H757 0.931 . S
C735 C734 1.347 1_455 S
C735 C736 1.369 . S
C736 C735 1.369 . S
C736 C737 1.408 1_455 S
C736 H758 0.930 . S
C737 C732 1.348 . S
C737 C736 1.408 1_655 S
C737 H759 0.930 . S
C738 O748 1.281 . S
C738 O749 1.254 . S
C739 O750 1.236 . S
C739 O751 1.266 . S
O740 Tb720 2.484 . S
O740 C722 1.248 . S
O741 Tb720 2.440 . S
O741 C722 1.266 . S
O742 Tb720 2.658 . S
O742 Tb721 2.325 . S
O742 C729 1.281 . S
O743 Tb720 2.409 . S
O743 C729 1.254 . S
O744 Tb720 2.378 . S
O744 C730 1.236 . S
O745 Tb721 2.341 . S
O745 C730 1.266 . S
O746 Tb721 2.484 . S
O746 C731 1.248 . S
O747 Tb721 2.440 . S
O747 C731 1.266 . S
O748 Tb720 2.325 . S
O748 Tb721 2.658 . S
O748 C738 1.281 . S
O749 Tb721 2.409 . S
O749 C738 1.254 . S
O750 Tb721 2.378 . S
O750 C739 1.236 . S
O751 Tb720 2.341 . S
O751 C739 1.266 . S
H752 C724 0.929 . S
H753 C725 0.931 . S
H754 C727 0.930 . S
H755 C728 0.930 . S
H756 C733 0.929 . S
H757 C734 0.931 . S
H758 C736 0.930 . S
H759 C737 0.930 . S
Tb760 C762 2.809 . S
Tb760 O780 2.484 . S
Tb760 O781 2.440 . S
Tb760 O782 2.658 . S
Tb760 O783 2.409 . S
Tb760 O784 2.378 . S
Tb760 O788 2.325 . S
Tb760 O791 2.341 . S
Tb761 C771 2.809 . S
Tb761 O782 2.325 . S
Tb761 O785 2.341 . S
Tb761 O786 2.484 . S
Tb761 O787 2.440 . S
Tb761 O788 2.658 . S
Tb761 O789 2.409 . S
Tb761 O790 2.378 . S
C762 Tb760 2.809 . S
C762 C763 1.514 . S
C762 O780 1.248 . S
C762 O781 1.266 . S
C763 C762 1.514 . S
C763 C764 1.359 . S
C763 C768 1.348 . S
C764 C763 1.359 . S
C764 C765 1.380 . S
C764 H792 0.929 . S
C765 C764 1.380 . S
C765 C766 1.347 . S
C765 H793 0.931 . S
C766 C765 1.347 . S
C766 C767 1.369 . S
C767 C766 1.369 . S
C767 C768 1.408 . S
C767 H794 0.930 . S
C768 C763 1.348 . S
C768 C767 1.408 . S
C768 H795 0.930 . S
C769 O782 1.281 . S
C769 O783 1.254 . S
C770 O784 1.236 . S
C770 O785 1.266 . S
C771 Tb761 2.809 . S
C771 C772 1.514 . S
C771 O786 1.248 . S
C771 O787 1.266 . S
C772 C771 1.514 . S
C772 C773 1.359 . S
C772 C777 1.348 . S
C773 C772 1.359 . S
C773 C774 1.380 . S
C773 H796 0.929 . S
C774 C773 1.380 . S
C774 C775 1.347 . S
C774 H797 0.931 . S
C775 C774 1.347 . S
C775 C776 1.369 . S
C776 C775 1.369 . S
C776 C777 1.408 . S
C776 H798 0.930 . S
C777 C772 1.348 . S
C777 C776 1.408 . S
C777 H799 0.930 . S
C778 O788 1.281 . S
C778 O789 1.254 . S
C779 O790 1.236 . S
C779 O791 1.266 . S
O780 Tb760 2.484 . S
O780 C762 1.248 . S
O781 Tb760 2.440 . S
O781 C762 1.266 . S
O782 Tb760 2.658 . S
O782 Tb761 2.325 . S
O782 C769 1.281 . S
O783 Tb760 2.409 . S
O783 C769 1.254 . S
O784 Tb760 2.378 . S
O784 C770 1.236 . S
O785 Tb761 2.341 . S
O785 C770 1.266 . S
O786 Tb761 2.484 . S
O786 C771 1.248 . S
O787 Tb761 2.440 . S
O787 C771 1.266 . S
O788 Tb760 2.325 . S
O788 Tb761 2.658 . S
O788 C778 1.281 . S
O789 Tb761 2.409 . S
O789 C778 1.254 . S
O790 Tb761 2.378 . S
O790 C779 1.236 . S
O791 Tb760 2.341 . S
O791 C779 1.266 . S
H792 C764 0.929 . S
H793 C765 0.931 . S
H794 C767 0.930 . S
H795 C768 0.930 . S
H796 C773 0.929 . S
H797 C774 0.931 . S
H798 C776 0.930 . S
H799 C777 0.930 . S
Tb800 C802 2.809 . S
Tb800 O820 2.484 . S
Tb800 O821 2.440 . S
Tb800 O822 2.658 . S
Tb800 O823 2.409 . S
Tb800 O824 2.378 . S
Tb800 O828 2.325 . S
Tb800 O831 2.341 . S
Tb801 C811 2.809 . S
Tb801 O822 2.325 . S
Tb801 O825 2.341 . S
Tb801 O826 2.484 . S
Tb801 O827 2.440 . S
Tb801 O828 2.658 . S
Tb801 O829 2.409 . S
Tb801 O830 2.378 . S
C802 Tb800 2.809 . S
C802 C803 1.514 . S
C802 O820 1.248 . S
C802 O821 1.266 . S
C803 C802 1.514 . S
C803 C804 1.359 . S
C803 C808 1.348 . S
C804 C803 1.359 . S
C804 C805 1.380 . S
C804 H832 0.929 . S
C805 C804 1.380 . S
C805 C806 1.347 . S
C805 H833 0.931 . S
C806 C805 1.347 . S
C806 C807 1.369 . S
C807 C806 1.369 . S
C807 C808 1.408 . S
C807 H834 0.930 . S
C808 C803 1.348 . S
C808 C807 1.408 . S
C808 H835 0.930 . S
C809 O822 1.281 . S
C809 O823 1.254 . S
C810 O824 1.236 . S
C810 O825 1.266 . S
C811 Tb801 2.809 . S
C811 C812 1.514 . S
C811 O826 1.248 . S
C811 O827 1.266 . S
C812 C811 1.514 . S
C812 C813 1.359 . S
C812 C817 1.348 . S
C813 C812 1.359 . S
C813 C814 1.380 . S
C813 H836 0.929 . S
C814 C813 1.380 . S
C814 C815 1.347 . S
C814 H837 0.931 . S
C815 C814 1.347 . S
C815 C816 1.369 . S
C816 C815 1.369 . S
C816 C817 1.408 . S
C816 H838 0.930 . S
C817 C812 1.348 . S
C817 C816 1.408 . S
C817 H839 0.930 . S
C818 O828 1.281 . S
C818 O829 1.254 . S
C819 O830 1.236 . S
C819 O831 1.266 . S
O820 Tb800 2.484 . S
O820 C802 1.248 . S
O821 Tb800 2.440 . S
O821 C802 1.266 . S
O822 Tb800 2.658 . S
O822 Tb801 2.325 . S
O822 C809 1.281 . S
O823 Tb800 2.409 . S
O823 C809 1.254 . S
O824 Tb800 2.378 . S
O824 C810 1.236 . S
O825 Tb801 2.341 . S
O825 C810 1.266 . S
O826 Tb801 2.484 . S
O826 C811 1.248 . S
O827 Tb801 2.440 . S
O827 C811 1.266 . S
O828 Tb800 2.325 . S
O828 Tb801 2.658 . S
O828 C818 1.281 . S
O829 Tb801 2.409 . S
O829 C818 1.254 . S
O830 Tb801 2.378 . S
O830 C819 1.236 . S
O831 Tb800 2.341 . S
O831 C819 1.266 . S
H832 C804 0.929 . S
H833 C805 0.931 . S
H834 C807 0.930 . S
H835 C808 0.930 . S
H836 C813 0.929 . S
H837 C814 0.931 . S
H838 C816 0.930 . S
H839 C817 0.930 . S
Tb840 C842 2.809 1_556 S
Tb840 O860 2.484 1_556 S
Tb840 O861 2.440 1_556 S
Tb840 O862 2.658 . S
Tb840 O863 2.409 . S
Tb840 O864 2.378 1_556 S
Tb840 O868 2.335 . S
Tb840 O871 2.341 . S
Tb841 C851 2.809 . S
Tb841 O862 2.325 . S
Tb841 O865 2.341 1_556 S
Tb841 O866 2.484 . S
Tb841 O867 2.440 . S
Tb841 O868 2.669 . S
Tb841 O869 2.409 . S
Tb841 O870 2.378 . S
C842 Tb840 2.809 1_554 S
C842 C843 1.514 . S
C842 O860 1.248 . S
C842 O861 1.266 . S
C843 C842 1.514 . S
C843 C844 1.359 . S
C843 C848 1.348 . S
C844 C843 1.359 . S
C844 C845 1.380 . S
C844 H872 0.929 . S
C845 C844 1.380 . S
C845 C846 1.347 . S
C845 H873 0.931 . S
C846 C845 1.347 . S
C846 C847 1.369 . S
C847 C846 1.369 . S
C847 C848 1.408 . S
C847 H874 0.930 . S
C848 C843 1.348 . S
C848 C847 1.408 . S
C848 H875 0.930 . S
C849 O862 1.281 . S
C849 O863 1.254 . S
C850 O864 1.236 . S
C850 O865 1.266 . S
C851 Tb841 2.809 . S
C851 C852 1.514 . S
C851 O866 1.248 . S
C851 O867 1.266 . S
C852 C851 1.514 . S
C852 C853 1.359 . S
C852 C857 1.348 . S
C853 C852 1.359 . S
C853 C854 1.380 . S
C853 H876 0.929 . S
C854 C853 1.380 . S
C854 C855 1.347 . S
C854 H877 0.931 . S
C855 C854 1.347 . S
C855 C856 1.369 . S
C856 C855 1.369 . S
C856 C857 1.408 . S
C856 H878 0.930 . S
C857 C852 1.348 . S
C857 C856 1.408 . S
C857 H879 0.930 . S
C858 O868 1.277 1_554 S
C858 O869 1.254 1_554 S
C859 O870 1.236 . S
C859 O871 1.266 . S
O860 Tb840 2.484 1_554 S
O860 C842 1.248 . S
O861 Tb840 2.440 1_554 S
O861 C842 1.266 . S
O862 Tb840 2.658 . S
O862 Tb841 2.325 . S
O862 C849 1.281 . S
O863 Tb840 2.409 . S
O863 C849 1.254 . S
O864 Tb840 2.378 1_554 S
O864 C850 1.236 . S
O865 Tb841 2.341 1_554 S
O865 C850 1.266 . S
O866 Tb841 2.484 . S
O866 C851 1.248 . S
O867 Tb841 2.440 . S
O867 C851 1.266 . S
O868 Tb840 2.335 . S
O868 Tb841 2.669 . S
O868 C858 1.277 1_556 S
O869 Tb841 2.409 . S
O869 C858 1.254 1_556 S
O870 Tb841 2.378 . S
O870 C859 1.236 . S
O871 Tb840 2.341 . S
O871 C859 1.266 . S
H872 C844 0.929 . S
H873 C845 0.931 . S
H874 C847 0.930 . S
H875 C848 0.930 . S
H876 C853 0.929 . S
H877 C854 0.931 . S
H878 C856 0.930 . S
H879 C857 0.930 . S
Tb880 C882 2.809 . S
Tb880 O900 2.484 . S
Tb880 O901 2.440 . S
Tb880 O902 2.658 . S
Tb880 O903 2.409 . S
Tb880 O904 2.378 . S
Tb880 O908 2.325 . S
Tb880 O911 2.341 . S
Tb881 C891 2.809 . S
Tb881 O902 2.325 . S
Tb881 O905 2.341 . S
Tb881 O906 2.484 . S
Tb881 O907 2.440 . S
Tb881 O908 2.658 . S
Tb881 O909 2.409 . S
Tb881 O910 2.378 . S
C882 Tb880 2.809 . S
C882 C883 1.514 . S
C882 O900 1.248 . S
C882 O901 1.266 . S
C883 C882 1.514 . S
C883 C884 1.359 . S
C883 C888 1.348 . S
C884 C883 1.359 . S
C884 C885 1.380 . S
C884 H912 0.929 . S
C885 C884 1.380 . S
C885 C886 1.347 . S
C885 H913 0.931 . S
C886 C885 1.347 . S
C886 C887 1.369 . S
C887 C886 1.369 . S
C887 C888 1.408 . S
C887 H914 0.930 . S
C888 C883 1.348 . S
C888 C887 1.408 . S
C888 H915 0.930 . S
C889 O902 1.281 . S
C889 O903 1.254 . S
C890 O904 1.236 . S
C890 O905 1.266 . S
C891 Tb881 2.809 . S
C891 C892 1.514 . S
C891 O906 1.248 . S
C891 O907 1.266 . S
C892 C891 1.514 . S
C892 C893 1.359 . S
C892 C897 1.348 . S
C893 C892 1.359 . S
C893 C894 1.380 . S
C893 H916 0.929 . S
C894 C893 1.380 . S
C894 C895 1.347 1_655 S
C894 H917 0.931 . S
C895 C894 1.347 1_455 S
C895 C896 1.369 . S
C896 C895 1.369 . S
C896 C897 1.408 1_455 S
C896 H918 0.930 . S
C897 C892 1.348 . S
C897 C896 1.408 1_655 S
C897 H919 0.930 . S
C898 O908 1.281 . S
C898 O909 1.254 . S
C899 O910 1.236 . S
C899 O911 1.266 . S
O900 Tb880 2.484 . S
O900 C882 1.248 . S
O901 Tb880 2.440 . S
O901 C882 1.266 . S
O902 Tb880 2.658 . S
O902 Tb881 2.325 . S
O902 C889 1.281 . S
O903 Tb880 2.409 . S
O903 C889 1.254 . S
O904 Tb880 2.378 . S
O904 C890 1.236 . S
O905 Tb881 2.341 . S
O905 C890 1.266 . S
O906 Tb881 2.484 . S
O906 C891 1.248 . S
O907 Tb881 2.440 . S
O907 C891 1.266 . S
O908 Tb880 2.325 . S
O908 Tb881 2.658 . S
O908 C898 1.281 . S
O909 Tb881 2.409 . S
O909 C898 1.254 . S
O910 Tb881 2.378 . S
O910 C899 1.236 . S
O911 Tb880 2.341 . S
O911 C899 1.266 . S
H912 C884 0.929 . S
H913 C885 0.931 . S
H914 C887 0.930 . S
H915 C888 0.930 . S
H916 C893 0.929 . S
H917 C894 0.931 . S
H918 C896 0.930 . S
H919 C897 0.930 . S
Tb920 C922 2.809 . S
Tb920 O940 2.484 . S
Tb920 O941 2.440 . S
Tb920 O942 2.658 . S
Tb920 O943 2.409 . S
Tb920 O944 2.378 . S
Tb920 O948 2.325 . S
Tb920 O951 2.341 . S
Tb921 C931 2.809 . S
Tb921 O942 2.325 . S
Tb921 O945 2.341 . S
Tb921 O946 2.484 . S
Tb921 O947 2.440 . S
Tb921 O948 2.658 . S
Tb921 O949 2.409 . S
Tb921 O950 2.378 . S
C922 Tb920 2.809 . S
C922 C923 1.514 . S
C922 O940 1.248 . S
C922 O941 1.266 . S
C923 C922 1.514 . S
C923 C924 1.359 . S
C923 C928 1.348 . S
C924 C923 1.359 . S
C924 C925 1.380 . S
C924 H952 0.929 . S
C925 C924 1.380 . S
C925 C926 1.347 . S
C925 H953 0.931 . S
C926 C925 1.347 . S
C926 C927 1.369 . S
C927 C926 1.369 . S
C927 C928 1.408 . S
C927 H954 0.930 . S
C928 C923 1.348 . S
C928 C927 1.408 . S
C928 H955 0.930 . S
C929 O942 1.281 . S
C929 O943 1.254 . S
C930 O944 1.236 . S
C930 O945 1.266 . S
C931 Tb921 2.809 . S
C931 C932 1.514 . S
C931 O946 1.248 . S
C931 O947 1.266 . S
C932 C931 1.514 . S
C932 C933 1.359 . S
C932 C937 1.348 . S
C933 C932 1.359 . S
C933 C934 1.380 . S
C933 H956 0.929 . S
C934 C933 1.380 . S
C934 C935 1.347 . S
C934 H957 0.931 . S
C935 C934 1.347 . S
C935 C936 1.369 . S
C936 C935 1.369 . S
C936 C937 1.408 . S
C936 H958 0.930 . S
C937 C932 1.348 . S
C937 C936 1.408 . S
C937 H959 0.930 . S
C938 O948 1.281 . S
C938 O949 1.254 . S
C939 O950 1.236 . S
C939 O951 1.266 . S
O940 Tb920 2.484 . S
O940 C922 1.248 . S
O941 Tb920 2.440 . S
O941 C922 1.266 . S
O942 Tb920 2.658 . S
O942 Tb921 2.325 . S
O942 C929 1.281 . S
O943 Tb920 2.409 . S
O943 C929 1.254 . S
O944 Tb920 2.378 . S
O944 C930 1.236 . S
O945 Tb921 2.341 . S
O945 C930 1.266 . S
O946 Tb921 2.484 . S
O946 C931 1.248 . S
O947 Tb921 2.440 . S
O947 C931 1.266 . S
O948 Tb920 2.325 . S
O948 Tb921 2.658 . S
O948 C938 1.281 . S
O949 Tb921 2.409 . S
O949 C938 1.254 . S
O950 Tb921 2.378 . S
O950 C939 1.236 . S
O951 Tb920 2.341 . S
O951 C939 1.266 . S
H952 C924 0.929 . S
H953 C925 0.931 . S
H954 C927 0.930 . S
H955 C928 0.930 . S
H956 C933 0.929 . S
H957 C934 0.931 . S
H958 C936 0.930 . S
H959 C937 0.930 . S
Tb960 C962 2.809 . S
Tb960 O980 2.484 . S
Tb960 O981 2.440 . S
Tb960 O982 2.658 . S
Tb960 O983 2.409 . S
Tb960 O984 2.378 . S
Tb960 O988 2.325 . S
Tb960 O991 2.341 . S
Tb961 C971 2.809 . S
Tb961 O982 2.325 . S
Tb961 O985 2.341 . S
Tb961 O986 2.484 . S
Tb961 O987 2.440 . S
Tb961 O988 2.658 . S
Tb961 O989 2.409 . S
Tb961 O990 2.378 . S
C962 Tb960 2.809 . S
C962 C963 1.514 . S
C962 O980 1.248 . S
C962 O981 1.266 . S
C963 C962 1.514 . S
C963 C964 1.359 . S
C963 C968 1.348 . S
C964 C963 1.359 . S
C964 C965 1.380 . S
C964 H992 0.929 . S
C965 C964 1.380 . S
C965 C966 1.347 . S
C965 H993 0.931 . S
C966 C965 1.347 . S
C966 C967 1.369 . S
C967 C966 1.369 . S
C967 C968 1.408 . S
C967 H994 0.930 . S
C968 C963 1.348 . S
C968 C967 1.408 . S
C968 H995 0.930 . S
C969 O982 1.281 . S
C969 O983 1.254 . S
C970 O984 1.236 . S
C970 O985 1.266 . S
C971 Tb961 2.809 . S
C971 C972 1.514 . S
C971 O986 1.248 . S
C971 O987 1.266 . S
C972 C971 1.514 . S
C972 C973 1.359 . S
C972 C977 1.348 . S
C973 C972 1.359 . S
C973 C974 1.380 . S
C973 H996 0.929 . S
C974 C973 1.380 . S
C974 C975 1.347 . S
C974 H997 0.931 . S
C975 C974 1.347 . S
C975 C976 1.369 . S
C976 C975 1.369 . S
C976 C977 1.408 . S
C976 H998 0.930 . S
C977 C972 1.348 . S
C977 C976 1.408 . S
C977 H999 0.930 . S
C978 O988 1.281 . S
C978 O989 1.254 . S
C979 O990 1.236 . S
C979 O991 1.266 . S
O980 Tb960 2.484 . S
O980 C962 1.248 . S
O981 Tb960 2.440 . S
O981 C962 1.266 . S
O982 Tb960 2.658 . S
O982 Tb961 2.325 . S
O982 C969 1.281 . S
O983 Tb960 2.409 . S
O983 C969 1.254 . S
O984 Tb960 2.378 . S
O984 C970 1.236 . S
O985 Tb961 2.341 . S
O985 C970 1.266 . S
O986 Tb961 2.484 . S
O986 C971 1.248 . S
O987 Tb961 2.440 . S
O987 C971 1.266 . S
O988 Tb960 2.325 . S
O988 Tb961 2.658 . S
O988 C978 1.281 . S
O989 Tb961 2.409 . S
O989 C978 1.254 . S
O990 Tb961 2.378 . S
O990 C979 1.236 . S
O991 Tb960 2.341 . S
O991 C979 1.266 . S
H992 C964 0.929 . S
H993 C965 0.931 . S
H994 C967 0.930 . S
H995 C968 0.930 . S
H996 C973 0.929 . S
H997 C974 0.931 . S
H998 C976 0.930 . S
H999 C977 0.930 . S
Tb1000 C1002 2.809 . S
Tb1000 O1020 2.484 . S
Tb1000 O1021 2.440 . S
Tb1000 O1022 2.669 . S
Tb1000 O1023 2.409 . S
Tb1000 O1024 2.378 . S
Tb1000 O1028 2.325 . S
Tb1000 O1031 2.341 1_556 S
Tb1001 C1011 2.809 1_556 S
Tb1001 O1022 2.335 . S
Tb1001 O1025 2.341 . S
Tb1001 O1026 2.484 1_556 S
Tb1001 O1027 2.440 1_556 S
Tb1001 O1028 2.658 . S
Tb1001 O1029 2.409 . S
Tb1001 O1030 2.378 1_556 S
C1002 Tb1000 2.809 . S
C1002 C1003 1.514 . S
C1002 O1020 1.248 . S
C1002 O1021 1.266 . S
C1003 C1002 1.514 . S
C1003 C1004 1.359 . S
C1003 C1008 1.348 . S
C1004 C1003 1.359 . S
C1004 C1005 1.380 . S
C1004 H1032 0.929 . S
C1005 C1004 1.380 . S
C1005 C1006 1.347 . S
C1005 H1033 0.931 . S
C1006 C1005 1.347 . S
C1006 C1007 1.369 . S
C1007 C1006 1.369 . S
C1007 C1008 1.408 . S
C1007 H1034 0.930 . S
C1008 C1003 1.348 . S
C1008 C1007 1.408 . S
C1008 H1035 0.930 . S
C1009 O1022 1.277 1_554 S
C1009 O1023 1.254 1_554 S
C1010 O1024 1.236 . S
C1010 O1025 1.266 . S
C1011 Tb1001 2.809 1_554 S
C1011 C1012 1.514 . S
C1011 O1026 1.248 . S
C1011 O1027 1.266 . S
C1012 C1011 1.514 . S
C1012 C1013 1.359 . S
C1012 C1017 1.348 . S
C1013 C1012 1.359 . S
C1013 C1014 1.380 . S
C1013 H1036 0.929 . S
C1014 C1013 1.380 . S
C1014 C1015 1.347 . S
C1014 H1037 0.931 . S
C1015 C1014 1.347 . S
C1015 C1016 1.369 . S
C1016 C1015 1.369 . S
C1016 C1017 1.408 . S
C1016 H1038 0.930 . S
C1017 C1012 1.348 . S
C1017 C1016 1.408 . S
C1017 H1039 0.930 . S
C1018 O1028 1.281 . S
C1018 O1029 1.254 . S
C1019 O1030 1.236 . S
C1019 O1031 1.266 . S
O1020 Tb1000 2.484 . S
O1020 C1002 1.248 . S
O1021 Tb1000 2.440 . S
O1021 C1002 1.266 . S
O1022 Tb1000 2.669 . S
O1022 Tb1001 2.335 . S
O1022 C1009 1.277 1_556 S
O1023 Tb1000 2.409 . S
O1023 C1009 1.254 1_556 S
O1024 Tb1000 2.378 . S
O1024 C1010 1.236 . S
O1025 Tb1001 2.341 . S
O1025 C1010 1.266 . S
O1026 Tb1001 2.484 1_554 S
O1026 C1011 1.248 . S
O1027 Tb1001 2.440 1_554 S
O1027 C1011 1.266 . S
O1028 Tb1000 2.325 . S
O1028 Tb1001 2.658 . S
O1028 C1018 1.281 . S
O1029 Tb1001 2.409 . S
O1029 C1018 1.254 . S
O1030 Tb1001 2.378 1_554 S
O1030 C1019 1.236 . S
O1031 Tb1000 2.341 1_554 S
O1031 C1019 1.266 . S
H1032 C1004 0.929 . S
H1033 C1005 0.931 . S
H1034 C1007 0.930 . S
H1035 C1008 0.930 . S
H1036 C1013 0.929 . S
H1037 C1014 0.931 . S
H1038 C1016 0.930 . S
H1039 C1017 0.930 . S
Tb1040 C1042 2.809 . S
Tb1040 O1060 2.484 . S
Tb1040 O1061 2.440 . S
Tb1040 O1062 2.658 . S
Tb1040 O1063 2.409 . S
Tb1040 O1064 2.378 . S
Tb1040 O1068 2.325 . S
Tb1040 O1071 2.341 . S
Tb1041 C1051 2.809 . S
Tb1041 O1062 2.325 . S
Tb1041 O1065 2.341 . S
Tb1041 O1066 2.484 . S
Tb1041 O1067 2.440 . S
Tb1041 O1068 2.658 . S
Tb1041 O1069 2.409 . S
Tb1041 O1070 2.378 . S
C1042 Tb1040 2.809 . S
C1042 C1043 1.514 . S
C1042 O1060 1.248 . S
C1042 O1061 1.266 . S
C1043 C1042 1.514 . S
C1043 C1044 1.359 . S
C1043 C1048 1.348 . S
C1044 C1043 1.359 . S
C1044 C1045 1.380 . S
C1044 H1072 0.929 . S
C1045 C1044 1.380 . S
C1045 C1046 1.347 1_455 S
C1045 H1073 0.931 . S
C1046 C1045 1.347 1_655 S
C1046 C1047 1.369 . S
C1047 C1046 1.369 . S
C1047 C1048 1.408 1_655 S
C1047 H1074 0.930 . S
C1048 C1043 1.348 . S
C1048 C1047 1.408 1_455 S
C1048 H1075 0.930 . S
C1049 O1062 1.281 . S
C1049 O1063 1.254 . S
C1050 O1064 1.236 . S
C1050 O1065 1.266 . S
C1051 Tb1041 2.809 . S
C1051 C1052 1.514 . S
C1051 O1066 1.248 . S
C1051 O1067 1.266 . S
C1052 C1051 1.514 . S
C1052 C1053 1.359 . S
C1052 C1057 1.348 . S
C1053 C1052 1.359 . S
C1053 C1054 1.380 . S
C1053 H1076 0.929 . S
C1054 C1053 1.380 . S
C1054 C1055 1.347 . S
C1054 H1077 0.931 . S
C1055 C1054 1.347 . S
C1055 C1056 1.369 . S
C1056 C1055 1.369 . S
C1056 C1057 1.408 . S
C1056 H1078 0.930 . S
C1057 C1052 1.348 . S
C1057 C1056 1.408 . S
C1057 H1079 0.930 . S
C1058 O1068 1.281 . S
C1058 O1069 1.254 . S
C1059 O1070 1.236 . S
C1059 O1071 1.266 . S
O1060 Tb1040 2.484 . S
O1060 C1042 1.248 . S
O1061 Tb1040 2.440 . S
O1061 C1042 1.266 . S
O1062 Tb1040 2.658 . S
O1062 Tb1041 2.325 . S
O1062 C1049 1.281 . S
O1063 Tb1040 2.409 . S
O1063 C1049 1.254 . S
O1064 Tb1040 2.378 . S
O1064 C1050 1.236 . S
O1065 Tb1041 2.341 . S
O1065 C1050 1.266 . S
O1066 Tb1041 2.484 . S
O1066 C1051 1.248 . S
O1067 Tb1041 2.440 . S
O1067 C1051 1.266 . S
O1068 Tb1040 2.325 . S
O1068 Tb1041 2.658 . S
O1068 C1058 1.281 . S
O1069 Tb1041 2.409 . S
O1069 C1058 1.254 . S
O1070 Tb1041 2.378 . S
O1070 C1059 1.236 . S
O1071 Tb1040 2.341 . S
O1071 C1059 1.266 . S
H1072 C1044 0.929 . S
H1073 C1045 0.931 . S
H1074 C1047 0.930 . S
H1075 C1048 0.930 . S
H1076 C1053 0.929 . S
H1077 C1054 0.931 . S
H1078 C1056 0.930 . S
H1079 C1057 0.930 . S
Tb1080 C1082 2.809 . S
Tb1080 O1100 2.484 . S
Tb1080 O1101 2.440 . S
Tb1080 O1102 2.658 . S
Tb1080 O1103 2.409 . S
Tb1080 O1104 2.378 . S
Tb1080 O1108 2.325 . S
Tb1080 O1111 2.341 . S
Tb1081 C1091 2.809 . S
Tb1081 O1102 2.325 . S
Tb1081 O1105 2.341 . S
Tb1081 O1106 2.484 . S
Tb1081 O1107 2.440 . S
Tb1081 O1108 2.658 . S
Tb1081 O1109 2.409 . S
Tb1081 O1110 2.378 . S
C1082 Tb1080 2.809 . S
C1082 C1083 1.514 . S
C1082 O1100 1.248 . S
C1082 O1101 1.266 . S
C1083 C1082 1.514 . S
C1083 C1084 1.359 . S
C1083 C1088 1.348 . S
C1084 C1083 1.359 . S
C1084 C1085 1.380 . S
C1084 H1112 0.929 . S
C1085 C1084 1.380 . S
C1085 C1086 1.347 . S
C1085 H1113 0.931 . S
C1086 C1085 1.347 . S
C1086 C1087 1.369 . S
C1087 C1086 1.369 . S
C1087 C1088 1.408 . S
C1087 H1114 0.930 . S
C1088 C1083 1.348 . S
C1088 C1087 1.408 . S
C1088 H1115 0.930 . S
C1089 O1102 1.281 . S
C1089 O1103 1.254 . S
C1090 O1104 1.236 . S
C1090 O1105 1.266 . S
C1091 Tb1081 2.809 . S
C1091 C1092 1.514 . S
C1091 O1106 1.248 . S
C1091 O1107 1.266 . S
C1092 C1091 1.514 . S
C1092 C1093 1.359 . S
C1092 C1097 1.348 . S
C1093 C1092 1.359 . S
C1093 C1094 1.380 . S
C1093 H1116 0.929 . S
C1094 C1093 1.380 . S
C1094 C1095 1.347 . S
C1094 H1117 0.931 . S
C1095 C1094 1.347 . S
C1095 C1096 1.369 . S
C1096 C1095 1.369 . S
C1096 C1097 1.408 . S
C1096 H1118 0.930 . S
C1097 C1092 1.348 . S
C1097 C1096 1.408 . S
C1097 H1119 0.930 . S
C1098 O1108 1.281 . S
C1098 O1109 1.254 . S
C1099 O1110 1.236 . S
C1099 O1111 1.266 . S
O1100 Tb1080 2.484 . S
O1100 C1082 1.248 . S
O1101 Tb1080 2.440 . S
O1101 C1082 1.266 . S
O1102 Tb1080 2.658 . S
O1102 Tb1081 2.325 . S
O1102 C1089 1.281 . S
O1103 Tb1080 2.409 . S
O1103 C1089 1.254 . S
O1104 Tb1080 2.378 . S
O1104 C1090 1.236 . S
O1105 Tb1081 2.341 . S
O1105 C1090 1.266 . S
O1106 Tb1081 2.484 . S
O1106 C1091 1.248 . S
O1107 Tb1081 2.440 . S
O1107 C1091 1.266 . S
O1108 Tb1080 2.325 . S
O1108 Tb1081 2.658 . S
O1108 C1098 1.281 . S
O1109 Tb1081 2.409 . S
O1109 C1098 1.254 . S
O1110 Tb1081 2.378 . S
O1110 C1099 1.236 . S
O1111 Tb1080 2.341 . S
O1111 C1099 1.266 . S
H1112 C1084 0.929 . S
H1113 C1085 0.931 . S
H1114 C1087 0.930 . S
H1115 C1088 0.930 . S
H1116 C1093 0.929 . S
H1117 C1094 0.931 . S
H1118 C1096 0.930 . S
H1119 C1097 0.930 . S
Tb1120 C1122 2.809 . S
Tb1120 O1140 2.484 . S
Tb1120 O1141 2.440 . S
Tb1120 O1142 2.658 . S
Tb1120 O1143 2.409 . S
Tb1120 O1144 2.378 . S
Tb1120 O1148 2.325 . S
Tb1120 O1151 2.341 . S
Tb1121 C1131 2.809 . S
Tb1121 O1142 2.325 . S
Tb1121 O1145 2.341 . S
Tb1121 O1146 2.484 . S
Tb1121 O1147 2.440 . S
Tb1121 O1148 2.658 . S
Tb1121 O1149 2.409 . S
Tb1121 O1150 2.378 . S
C1122 Tb1120 2.809 . S
C1122 C1123 1.514 . S
C1122 O1140 1.248 . S
C1122 O1141 1.266 . S
C1123 C1122 1.514 . S
C1123 C1124 1.359 . S
C1123 C1128 1.348 . S
C1124 C1123 1.359 . S
C1124 C1125 1.380 . S
C1124 H1152 0.929 . S
C1125 C1124 1.380 . S
C1125 C1126 1.347 . S
C1125 H1153 0.931 . S
C1126 C1125 1.347 . S
C1126 C1127 1.369 . S
C1127 C1126 1.369 . S
C1127 C1128 1.408 . S
C1127 H1154 0.930 . S
C1128 C1123 1.348 . S
C1128 C1127 1.408 . S
C1128 H1155 0.930 . S
C1129 O1142 1.281 . S
C1129 O1143 1.254 . S
C1130 O1144 1.236 . S
C1130 O1145 1.266 . S
C1131 Tb1121 2.809 . S
C1131 C1132 1.514 . S
C1131 O1146 1.248 . S
C1131 O1147 1.266 . S
C1132 C1131 1.514 . S
C1132 C1133 1.359 . S
C1132 C1137 1.348 . S
C1133 C1132 1.359 . S
C1133 C1134 1.380 . S
C1133 H1156 0.929 . S
C1134 C1133 1.380 . S
C1134 C1135 1.347 . S
C1134 H1157 0.931 . S
C1135 C1134 1.347 . S
C1135 C1136 1.369 . S
C1136 C1135 1.369 . S
C1136 C1137 1.408 . S
C1136 H1158 0.930 . S
C1137 C1132 1.348 . S
C1137 C1136 1.408 . S
C1137 H1159 0.930 . S
C1138 O1148 1.281 . S
C1138 O1149 1.254 . S
C1139 O1150 1.236 . S
C1139 O1151 1.266 . S
O1140 Tb1120 2.484 . S
O1140 C1122 1.248 . S
O1141 Tb1120 2.440 . S
O1141 C1122 1.266 . S
O1142 Tb1120 2.658 . S
O1142 Tb1121 2.325 . S
O1142 C1129 1.281 . S
O1143 Tb1120 2.409 . S
O1143 C1129 1.254 . S
O1144 Tb1120 2.378 . S
O1144 C1130 1.236 . S
O1145 Tb1121 2.341 . S
O1145 C1130 1.266 . S
O1146 Tb1121 2.484 . S
O1146 C1131 1.248 . S
O1147 Tb1121 2.440 . S
O1147 C1131 1.266 . S
O1148 Tb1120 2.325 . S
O1148 Tb1121 2.658 . S
O1148 C1138 1.281 . S
O1149 Tb1121 2.409 . S
O1149 C1138 1.254 . S
O1150 Tb1121 2.378 . S
O1150 C1139 1.236 . S
O1151 Tb1120 2.341 . S
O1151 C1139 1.266 . S
H1152 C1124 0.929 . S
H1153 C1125 0.931 . S
H1154 C1127 0.930 . S
H1155 C1128 0.930 . S
H1156 C1133 0.929 . S
H1157 C1134 0.931 . S
H1158 C1136 0.930 . S
H1159 C1137 0.930 . S
Tb1160 C1162 2.809 . S
Tb1160 O1180 2.484 . S
Tb1160 O1181 2.440 . S
Tb1160 O1182 2.669 . S
Tb1160 O1183 2.409 . S
Tb1160 O1184 2.378 . S
Tb1160 O1188 2.325 . S
Tb1160 O1191 2.341 1_554 S
Tb1161 C1171 2.809 1_554 S
Tb1161 O1182 2.335 . S
Tb1161 O1185 2.341 . S
Tb1161 O1186 2.484 1_554 S
Tb1161 O1187 2.440 1_554 S
Tb1161 O1188 2.658 . S
Tb1161 O1189 2.409 . S
Tb1161 O1190 2.378 1_554 S
C1162 Tb1160 2.809 . S
C1162 C1163 1.514 . S
C1162 O1180 1.248 . S
C1162 O1181 1.266 . S
C1163 C1162 1.514 . S
C1163 C1164 1.359 . S
C1163 C1168 1.348 . S
C1164 C1163 1.359 . S
C1164 C1165 1.380 . S
C1164 H1192 0.929 . S
C1165 C1164 1.380 . S
C1165 C1166 1.347 . S
C1165 H1193 0.931 . S
C1166 C1165 1.347 . S
C1166 C1167 1.369 . S
C1167 C1166 1.369 . S
C1167 C1168 1.408 . S
C1167 H1194 0.930 . S
C1168 C1163 1.348 . S
C1168 C1167 1.408 . S
C1168 H1195 0.930 . S
C1169 O1182 1.277 1_556 S
C1169 O1183 1.254 1_556 S
C1170 O1184 1.236 . S
C1170 O1185 1.266 . S
C1171 Tb1161 2.809 1_556 S
C1171 C1172 1.514 . S
C1171 O1186 1.248 . S
C1171 O1187 1.266 . S
C1172 C1171 1.514 . S
C1172 C1173 1.359 . S
C1172 C1177 1.348 . S
C1173 C1172 1.359 . S
C1173 C1174 1.380 . S
C1173 H1196 0.929 . S
C1174 C1173 1.380 . S
C1174 C1175 1.347 . S
C1174 H1197 0.931 . S
C1175 C1174 1.347 . S
C1175 C1176 1.369 . S
C1176 C1175 1.369 . S
C1176 C1177 1.408 . S
C1176 H1198 0.930 . S
C1177 C1172 1.348 . S
C1177 C1176 1.408 . S
C1177 H1199 0.930 . S
C1178 O1188 1.281 . S
C1178 O1189 1.254 . S
C1179 O1190 1.236 . S
C1179 O1191 1.266 . S
O1180 Tb1160 2.484 . S
O1180 C1162 1.248 . S
O1181 Tb1160 2.440 . S
O1181 C1162 1.266 . S
O1182 Tb1160 2.669 . S
O1182 Tb1161 2.335 . S
O1182 C1169 1.277 1_554 S
O1183 Tb1160 2.409 . S
O1183 C1169 1.254 1_554 S
O1184 Tb1160 2.378 . S
O1184 C1170 1.236 . S
O1185 Tb1161 2.341 . S
O1185 C1170 1.266 . S
O1186 Tb1161 2.484 1_556 S
O1186 C1171 1.248 . S
O1187 Tb1161 2.440 1_556 S
O1187 C1171 1.266 . S
O1188 Tb1160 2.325 . S
O1188 Tb1161 2.658 . S
O1188 C1178 1.281 . S
O1189 Tb1161 2.409 . S
O1189 C1178 1.254 . S
O1190 Tb1161 2.378 1_556 S
O1190 C1179 1.236 . S
O1191 Tb1160 2.341 1_556 S
O1191 C1179 1.266 . S
H1192 C1164 0.929 . S
H1193 C1165 0.931 . S
H1194 C1167 0.930 . S
H1195 C1168 0.930 . S
H1196 C1173 0.929 . S
H1197 C1174 0.931 . S
H1198 C1176 0.930 . S
H1199 C1177 0.930 . S
Tb1200 C1202 2.809 . S
Tb1200 O1220 2.484 . S
Tb1200 O1221 2.440 . S
Tb1200 O1222 2.658 . S
Tb1200 O1223 2.409 . S
Tb1200 O1224 2.378 . S
Tb1200 O1228 2.325 . S
Tb1200 O1231 2.341 . S
Tb1201 C1211 2.809 . S
Tb1201 O1222 2.325 . S
Tb1201 O1225 2.341 . S
Tb1201 O1226 2.484 . S
Tb1201 O1227 2.440 . S
Tb1201 O1228 2.658 . S
Tb1201 O1229 2.409 . S
Tb1201 O1230 2.378 . S
C1202 Tb1200 2.809 . S
C1202 C1203 1.514 . S
C1202 O1220 1.248 . S
C1202 O1221 1.266 . S
C1203 C1202 1.514 . S
C1203 C1204 1.359 . S
C1203 C1208 1.348 . S
C1204 C1203 1.359 . S
C1204 C1205 1.380 . S
C1204 H1232 0.929 . S
C1205 C1204 1.380 . S
C1205 C1206 1.347 1_455 S
C1205 H1233 0.931 . S
C1206 C1205 1.347 1_655 S
C1206 C1207 1.369 . S
C1207 C1206 1.369 . S
C1207 C1208 1.408 1_655 S
C1207 H1234 0.930 . S
C1208 C1203 1.348 . S
C1208 C1207 1.408 1_455 S
C1208 H1235 0.930 . S
C1209 O1222 1.281 . S
C1209 O1223 1.254 . S
C1210 O1224 1.236 . S
C1210 O1225 1.266 . S
C1211 Tb1201 2.809 . S
C1211 C1212 1.514 . S
C1211 O1226 1.248 . S
C1211 O1227 1.266 . S
C1212 C1211 1.514 . S
C1212 C1213 1.359 . S
C1212 C1217 1.348 . S
C1213 C1212 1.359 . S
C1213 C1214 1.380 . S
C1213 H1236 0.929 . S
C1214 C1213 1.380 . S
C1214 C1215 1.347 . S
C1214 H1237 0.931 . S
C1215 C1214 1.347 . S
C1215 C1216 1.369 . S
C1216 C1215 1.369 . S
C1216 C1217 1.408 . S
C1216 H1238 0.930 . S
C1217 C1212 1.348 . S
C1217 C1216 1.408 . S
C1217 H1239 0.930 . S
C1218 O1228 1.281 . S
C1218 O1229 1.254 . S
C1219 O1230 1.236 . S
C1219 O1231 1.266 . S
O1220 Tb1200 2.484 . S
O1220 C1202 1.248 . S
O1221 Tb1200 2.440 . S
O1221 C1202 1.266 . S
O1222 Tb1200 2.658 . S
O1222 Tb1201 2.325 . S
O1222 C1209 1.281 . S
O1223 Tb1200 2.409 . S
O1223 C1209 1.254 . S
O1224 Tb1200 2.378 . S
O1224 C1210 1.236 . S
O1225 Tb1201 2.341 . S
O1225 C1210 1.266 . S
O1226 Tb1201 2.484 . S
O1226 C1211 1.248 . S
O1227 Tb1201 2.440 . S
O1227 C1211 1.266 . S
O1228 Tb1200 2.325 . S
O1228 Tb1201 2.658 . S
O1228 C1218 1.281 . S
O1229 Tb1201 2.409 . S
O1229 C1218 1.254 . S
O1230 Tb1201 2.378 . S
O1230 C1219 1.236 . S
O1231 Tb1200 2.341 . S
O1231 C1219 1.266 . S
H1232 C1204 0.929 . S
H1233 C1205 0.931 . S
H1234 C1207 0.930 . S
H1235 C1208 0.930 . S
H1236 C1213 0.929 . S
H1237 C1214 0.931 . S
H1238 C1216 0.930 . S
H1239 C1217 0.930 . S
Tb1240 C1242 2.809 . S
Tb1240 O1260 2.484 . S
Tb1240 O1261 2.440 . S
Tb1240 O1262 2.658 . S
Tb1240 O1263 2.409 . S
Tb1240 O1264 2.378 . S
Tb1240 O1268 2.325 . S
Tb1240 O1271 2.341 . S
Tb1241 C1251 2.809 . S
Tb1241 O1262 2.325 . S
Tb1241 O1265 2.341 . S
Tb1241 O1266 2.484 . S
Tb1241 O1267 2.440 . S
Tb1241 O1268 2.658 . S
Tb1241 O1269 2.409 . S
Tb1241 O1270 2.378 . S
C1242 Tb1240 2.809 . S
C1242 C1243 1.514 . S
C1242 O1260 1.248 . S
C1242 O1261 1.266 . S
C1243 C1242 1.514 . S
C1243 C1244 1.359 . S
C1243 C1248 1.348 . S
C1244 C1243 1.359 . S
C1244 C1245 1.380 . S
C1244 H1272 0.929 . S
C1245 C1244 1.380 . S
C1245 C1246 1.347 . S
C1245 H1273 0.931 . S
C1246 C1245 1.347 . S
C1246 C1247 1.369 . S
C1247 C1246 1.369 . S
C1247 C1248 1.408 . S
C1247 H1274 0.930 . S
C1248 C1243 1.348 . S
C1248 C1247 1.408 . S
C1248 H1275 0.930 . S
C1249 O1262 1.281 . S
C1249 O1263 1.254 . S
C1250 O1264 1.236 . S
C1250 O1265 1.266 . S
C1251 Tb1241 2.809 . S
C1251 C1252 1.514 . S
C1251 O1266 1.248 . S
C1251 O1267 1.266 . S
C1252 C1251 1.514 . S
C1252 C1253 1.359 . S
C1252 C1257 1.348 . S
C1253 C1252 1.359 . S
C1253 C1254 1.380 . S
C1253 H1276 0.929 . S
C1254 C1253 1.380 . S
C1254 C1255 1.347 . S
C1254 H1277 0.931 . S
C1255 C1254 1.347 . S
C1255 C1256 1.369 . S
C1256 C1255 1.369 . S
C1256 C1257 1.408 . S
C1256 H1278 0.930 . S
C1257 C1252 1.348 . S
C1257 C1256 1.408 . S
C1257 H1279 0.930 . S
C1258 O1268 1.281 . S
C1258 O1269 1.254 . S
C1259 O1270 1.236 . S
C1259 O1271 1.266 . S
O1260 Tb1240 2.484 . S
O1260 C1242 1.248 . S
O1261 Tb1240 2.440 . S
O1261 C1242 1.266 . S
O1262 Tb1240 2.658 . S
O1262 Tb1241 2.325 . S
O1262 C1249 1.281 . S
O1263 Tb1240 2.409 . S
O1263 C1249 1.254 . S
O1264 Tb1240 2.378 . S
O1264 C1250 1.236 . S
O1265 Tb1241 2.341 . S
O1265 C1250 1.266 . S
O1266 Tb1241 2.484 . S
O1266 C1251 1.248 . S
O1267 Tb1241 2.440 . S
O1267 C1251 1.266 . S
O1268 Tb1240 2.325 . S
O1268 Tb1241 2.658 . S
O1268 C1258 1.281 . S
O1269 Tb1241 2.409 . S
O1269 C1258 1.254 . S
O1270 Tb1241 2.378 . S
O1270 C1259 1.236 . S
O1271 Tb1240 2.341 . S
O1271 C1259 1.266 . S
H1272 C1244 0.929 . S
H1273 C1245 0.931 . S
H1274 C1247 0.930 . S
H1275 C1248 0.930 . S
H1276 C1253 0.929 . S
H1277 C1254 0.931 . S
H1278 C1256 0.930 . S
H1279 C1257 0.930 . S
C1280 C1281 1.369 . S
C1280 C1282 1.419 . S
C1280 H1284 0.930 . S
C1281 C1280 1.369 . S
C1281 C1290 1.429 . S
C1282 C1280 1.419 . S
C1282 C1283 1.363 . S
C1282 H1285 0.929 . S
C1283 C1282 1.363 . S
C1283 C1289 1.428 . S
H1284 C1280 0.930 . S
H1285 C1282 0.929 . S
S1286 N1287 1.613 . S
S1286 N1288 1.610 . S
N1287 S1286 1.613 . S
N1287 C1290 1.350 . S
N1288 S1286 1.610 . S
N1288 C1289 1.351 . S
C1289 C1283 1.428 . S
C1289 N1288 1.351 . S
C1289 C1290 1.434 . S
C1290 C1281 1.429 . S
C1290 N1287 1.350 . S
C1290 C1289 1.434 . S
C1291 C1292 1.369 . S
C1291 C1293 1.419 . S
C1291 H1295 0.930 . S
C1292 C1291 1.369 . S
C1292 C1301 1.429 . S
C1293 C1291 1.419 . S
C1293 C1294 1.363 . S
C1293 H1296 0.929 . S
C1294 C1293 1.363 . S
C1294 C1300 1.428 . S
H1295 C1291 0.930 . S
H1296 C1293 0.929 . S
S1297 N1298 1.613 . S
S1297 N1299 1.610 . S
N1298 S1297 1.613 . S
N1298 C1301 1.350 . S
N1299 S1297 1.610 . S
N1299 C1300 1.351 . S
C1300 C1294 1.428 . S
C1300 N1299 1.351 . S
C1300 C1301 1.434 . S
C1301 C1292 1.429 . S
C1301 N1298 1.350 . S
C1301 C1300 1.434 . S
C1302 C1303 1.369 . S
C1302 C1304 1.419 . S
C1302 H1306 0.930 . S
C1303 C1302 1.369 . S
C1303 C1312 1.429 . S
C1304 C1302 1.419 . S
C1304 C1305 1.363 . S
C1304 H1307 0.929 . S
C1305 C1304 1.363 . S
C1305 C1311 1.428 . S
H1306 C1302 0.930 . S
H1307 C1304 0.929 . S
S1308 N1309 1.613 . S
S1308 N1310 1.610 . S
N1309 S1308 1.613 . S
N1309 C1312 1.350 . S
N1310 S1308 1.610 . S
N1310 C1311 1.351 . S
C1311 C1305 1.428 . S
C1311 N1310 1.351 . S
C1311 C1312 1.434 . S
C1312 C1303 1.429 . S
C1312 N1309 1.350 . S
C1312 C1311 1.434 . S
C1313 C1314 1.369 . S
C1313 C1315 1.419 . S
C1313 H1317 0.930 . S
C1314 C1313 1.369 . S
C1314 C1323 1.429 . S
C1315 C1313 1.419 . S
C1315 C1316 1.363 . S
C1315 H1318 0.929 . S
C1316 C1315 1.363 . S
C1316 C1322 1.428 . S
H1317 C1313 0.930 . S
H1318 C1315 0.929 . S
S1319 N1320 1.613 1_545 S
S1319 N1321 1.610 . S
N1320 S1319 1.613 1_565 S
N1320 C1323 1.350 . S
N1321 S1319 1.610 . S
N1321 C1322 1.351 1_545 S
C1322 C1316 1.428 . S
C1322 N1321 1.351 1_565 S
C1322 C1323 1.434 . S
C1323 C1314 1.429 . S
C1323 N1320 1.350 . S
C1323 C1322 1.434 . S
C1324 C1325 1.369 . S
C1324 C1326 1.419 . S
C1324 H1328 0.930 . S
C1325 C1324 1.369 . S
C1325 C1334 1.429 . S
C1326 C1324 1.419 . S
C1326 C1327 1.363 . S
C1326 H1329 0.929 . S
C1327 C1326 1.363 . S
C1327 C1333 1.428 . S
H1328 C1324 0.930 . S
H1329 C1326 0.929 . S
S1330 N1331 1.613 . S
S1330 N1332 1.610 . S
N1331 S1330 1.613 . S
N1331 C1334 1.350 . S
N1332 S1330 1.610 . S
N1332 C1333 1.351 . S
C1333 C1327 1.428 . S
C1333 N1332 1.351 . S
C1333 C1334 1.434 . S
C1334 C1325 1.429 . S
C1334 N1331 1.350 . S
C1334 C1333 1.434 . S
C1335 C1336 1.369 . S
C1335 C1337 1.419 . S
C1335 H1339 0.930 . S
C1336 C1335 1.369 . S
C1336 C1345 1.429 . S
C1337 C1335 1.419 . S
C1337 C1338 1.363 . S
C1337 H1340 0.929 . S
C1338 C1337 1.363 . S
C1338 C1344 1.428 . S
H1339 C1335 0.930 . S
H1340 C1337 0.929 . S
S1341 N1342 1.613 . S
S1341 N1343 1.610 1_565 S
N1342 S1341 1.613 . S
N1342 C1345 1.350 1_565 S
N1343 S1341 1.610 1_545 S
N1343 C1344 1.351 . S
C1344 C1338 1.428 . S
C1344 N1343 1.351 . S
C1344 C1345 1.434 . S
C1345 C1336 1.429 . S
C1345 N1342 1.350 1_545 S
C1345 C1344 1.434 . S
C1346 C1347 1.369 . S
C1346 C1348 1.419 . S
C1346 H1350 0.930 . S
C1347 C1346 1.369 . S
C1347 C1356 1.429 . S
C1348 C1346 1.419 . S
C1348 C1349 1.363 . S
C1348 H1351 0.929 . S
C1349 C1348 1.363 . S
C1349 C1355 1.428 . S
H1350 C1346 0.930 . S
H1351 C1348 0.929 . S
S1352 N1353 1.613 . S
S1352 N1354 1.610 . S
N1353 S1352 1.613 . S
N1353 C1356 1.350 . S
N1354 S1352 1.610 . S
N1354 C1355 1.351 . S
C1355 C1349 1.428 . S
C1355 N1354 1.351 . S
C1355 C1356 1.434 . S
C1356 C1347 1.429 . S
C1356 N1353 1.350 . S
C1356 C1355 1.434 . S
C1357 C1358 1.369 . S
C1357 C1359 1.419 . S
C1357 H1361 0.930 . S
C1358 C1357 1.369 . S
C1358 C1367 1.429 . S
C1359 C1357 1.419 . S
C1359 C1360 1.363 . S
C1359 H1362 0.929 . S
C1360 C1359 1.363 . S
C1360 C1366 1.428 . S
H1361 C1357 0.930 . S
H1362 C1359 0.929 . S
S1363 N1364 1.613 . S
S1363 N1365 1.610 . S
N1364 S1363 1.613 . S
N1364 C1367 1.350 . S
N1365 S1363 1.610 . S
N1365 C1366 1.351 . S
C1366 C1360 1.428 . S
C1366 N1365 1.351 . S
C1366 C1367 1.434 . S
C1367 C1358 1.429 . S
C1367 N1364 1.350 . S
C1367 C1366 1.434 . S
C1368 C1369 1.369 . S
C1368 C1370 1.419 . S
C1368 H1372 0.930 . S
C1369 C1368 1.369 . S
C1369 C1378 1.429 . S
C1370 C1368 1.419 . S
C1370 C1371 1.363 . S
C1370 H1373 0.929 . S
C1371 C1370 1.363 . S
C1371 C1377 1.428 . S
H1372 C1368 0.930 . S
H1373 C1370 0.929 . S
S1374 N1375 1.613 . S
S1374 N1376 1.610 . S
N1375 S1374 1.613 . S
N1375 C1378 1.350 . S
N1376 S1374 1.610 . S
N1376 C1377 1.351 . S
C1377 C1371 1.428 . S
C1377 N1376 1.351 . S
C1377 C1378 1.434 . S
C1378 C1369 1.429 . S
C1378 N1375 1.350 . S
C1378 C1377 1.434 . S
C1379 C1380 1.369 . S
C1379 C1381 1.419 . S
C1379 H1383 0.930 . S
C1380 C1379 1.369 . S
C1380 C1389 1.429 . S
C1381 C1379 1.419 . S
C1381 C1382 1.363 . S
C1381 H1384 0.929 . S
C1382 C1381 1.363 . S
C1382 C1388 1.428 . S
H1383 C1379 0.930 . S
H1384 C1381 0.929 . S
S1385 N1386 1.613 . S
S1385 N1387 1.610 . S
N1386 S1385 1.613 . S
N1386 C1389 1.350 . S
N1387 S1385 1.610 . S
N1387 C1388 1.351 . S
C1388 C1382 1.428 . S
C1388 N1387 1.351 . S
C1388 C1389 1.434 . S
C1389 C1380 1.429 . S
C1389 N1386 1.350 . S
C1389 C1388 1.434 . S
C1390 C1391 1.369 . S
C1390 C1392 1.419 . S
C1390 H1394 0.930 . S
C1391 C1390 1.369 . S
C1391 C1400 1.429 . S
C1392 C1390 1.419 . S
C1392 C1393 1.363 . S
C1392 H1395 0.929 . S
C1393 C1392 1.363 . S
C1393 C1399 1.428 . S
H1394 C1390 0.930 . S
H1395 C1392 0.929 . S
S1396 N1397 1.613 . S
S1396 N1398 1.610 . S
N1397 S1396 1.613 . S
N1397 C1400 1.350 . S
N1398 S1396 1.610 . S
N1398 C1399 1.351 . S
C1399 C1393 1.428 . S
C1399 N1398 1.351 . S
C1399 C1400 1.434 . S
C1400 C1391 1.429 . S
C1400 N1397 1.350 . S
C1400 C1399 1.434 . S
C1401 C1402 1.369 . S
C1401 C1403 1.419 . S
C1401 H1405 0.930 . S
C1402 C1401 1.369 . S
C1402 C1411 1.429 . S
C1403 C1401 1.419 . S
C1403 C1404 1.363 . S
C1403 H1406 0.929 . S
C1404 C1403 1.363 . S
C1404 C1410 1.428 . S
H1405 C1401 0.930 . S
H1406 C1403 0.929 . S
S1407 N1408 1.613 . S
S1407 N1409 1.610 . S
N1408 S1407 1.613 . S
N1408 C1411 1.350 . S
N1409 S1407 1.610 . S
N1409 C1410 1.351 . S
C1410 C1404 1.428 . S
C1410 N1409 1.351 . S
C1410 C1411 1.434 . S
C1411 C1402 1.429 . S
C1411 N1408 1.350 . S
C1411 C1410 1.434 . S
C1412 C1413 1.369 . S
C1412 C1414 1.419 . S
C1412 H1416 0.930 . S
C1413 C1412 1.369 . S
C1413 C1422 1.429 . S
C1414 C1412 1.419 . S
C1414 C1415 1.363 . S
C1414 H1417 0.929 . S
C1415 C1414 1.363 . S
C1415 C1421 1.428 . S
H1416 C1412 0.930 . S
H1417 C1414 0.929 . S
S1418 N1419 1.613 . S
S1418 N1420 1.610 . S
N1419 S1418 1.613 . S
N1419 C1422 1.350 . S
N1420 S1418 1.610 . S
N1420 C1421 1.351 . S
C1421 C1415 1.428 . S
C1421 N1420 1.351 . S
C1421 C1422 1.434 . S
C1422 C1413 1.429 . S
C1422 N1419 1.350 . S
C1422 C1421 1.434 . S
C1423 C1424 1.369 . S
C1423 C1425 1.419 . S
C1423 H1427 0.930 . S
C1424 C1423 1.369 . S
C1424 C1433 1.429 . S
C1425 C1423 1.419 . S
C1425 C1426 1.363 . S
C1425 H1428 0.929 . S
C1426 C1425 1.363 . S
C1426 C1432 1.428 . S
H1427 C1423 0.930 . S
H1428 C1425 0.929 . S
S1429 N1430 1.613 . S
S1429 N1431 1.610 . S
N1430 S1429 1.613 . S
N1430 C1433 1.350 . S
N1431 S1429 1.610 . S
N1431 C1432 1.351 . S
C1432 C1426 1.428 . S
C1432 N1431 1.351 . S
C1432 C1433 1.434 . S
C1433 C1424 1.429 . S
C1433 N1430 1.350 . S
C1433 C1432 1.434 . S
C1434 C1435 1.369 . S
C1434 C1436 1.419 . S
C1434 H1438 0.930 . S
C1435 C1434 1.369 . S
C1435 C1444 1.429 . S
C1436 C1434 1.419 . S
C1436 C1437 1.363 . S
C1436 H1439 0.929 . S
C1437 C1436 1.363 . S
C1437 C1443 1.428 . S
H1438 C1434 0.930 . S
H1439 C1436 0.929 . S
S1440 N1441 1.613 . S
S1440 N1442 1.610 . S
N1441 S1440 1.613 . S
N1441 C1444 1.350 . S
N1442 S1440 1.610 . S
N1442 C1443 1.351 . S
C1443 C1437 1.428 . S
C1443 N1442 1.351 . S
C1443 C1444 1.434 . S
C1444 C1435 1.429 . S
C1444 N1441 1.350 . S
C1444 C1443 1.434 . S
C1445 C1446 1.369 . S
C1445 C1447 1.419 . S
C1445 H1449 0.930 . S
C1446 C1445 1.369 . S
C1446 C1455 1.429 . S
C1447 C1445 1.419 . S
C1447 C1448 1.363 . S
C1447 H1450 0.929 . S
C1448 C1447 1.363 . S
C1448 C1454 1.428 . S
H1449 C1445 0.930 . S
H1450 C1447 0.929 . S
S1451 N1452 1.613 . S
S1451 N1453 1.610 . S
N1452 S1451 1.613 . S
N1452 C1455 1.350 . S
N1453 S1451 1.610 . S
N1453 C1454 1.351 . S
C1454 C1448 1.428 . S
C1454 N1453 1.351 . S
C1454 C1455 1.434 . S
C1455 C1446 1.429 . S
C1455 N1452 1.350 . S
C1455 C1454 1.434 . S
C1456 C1457 1.369 . S
C1456 C1458 1.419 . S
C1456 H1460 0.930 . S
C1457 C1456 1.369 . S
C1457 C1466 1.429 . S
C1458 C1456 1.419 . S
C1458 C1459 1.363 . S
C1458 H1461 0.929 . S
C1459 C1458 1.363 . S
C1459 C1465 1.428 . S
H1460 C1456 0.930 . S
H1461 C1458 0.929 . S
S1462 N1463 1.613 . S
S1462 N1464 1.610 . S
N1463 S1462 1.613 . S
N1463 C1466 1.350 . S
N1464 S1462 1.610 . S
N1464 C1465 1.351 . S
C1465 C1459 1.428 . S
C1465 N1464 1.351 . S
C1465 C1466 1.434 . S
C1466 C1457 1.429 . S
C1466 N1463 1.350 . S
C1466 C1465 1.434 . S
C1467 C1468 1.369 . S
C1467 C1469 1.419 . S
C1467 H1471 0.930 . S
C1468 C1467 1.369 . S
C1468 C1477 1.429 . S
C1469 C1467 1.419 . S
C1469 C1470 1.363 . S
C1469 H1472 0.929 . S
C1470 C1469 1.363 . S
C1470 C1476 1.428 . S
H1471 C1467 0.930 . S
H1472 C1469 0.929 . S
S1473 N1474 1.613 . S
S1473 N1475 1.610 . S
N1474 S1473 1.613 . S
N1474 C1477 1.350 . S
N1475 S1473 1.610 . S
N1475 C1476 1.351 . S
C1476 C1470 1.428 . S
C1476 N1475 1.351 . S
C1476 C1477 1.434 . S
C1477 C1468 1.429 . S
C1477 N1474 1.350 . S
C1477 C1476 1.434 . S
C1478 C1479 1.369 . S
C1478 C1480 1.419 . S
C1478 H1482 0.930 . S
C1479 C1478 1.369 . S
C1479 C1488 1.429 . S
C1480 C1478 1.419 . S
C1480 C1481 1.363 . S
C1480 H1483 0.929 . S
C1481 C1480 1.363 . S
C1481 C1487 1.428 . S
H1482 C1478 0.930 . S
H1483 C1480 0.929 . S
S1484 N1485 1.613 . S
S1484 N1486 1.610 . S
N1485 S1484 1.613 . S
N1485 C1488 1.350 . S
N1486 S1484 1.610 . S
N1486 C1487 1.351 . S
C1487 C1481 1.428 . S
C1487 N1486 1.351 . S
C1487 C1488 1.434 . S
C1488 C1479 1.429 . S
C1488 N1485 1.350 . S
C1488 C1487 1.434 . S
C1489 C1490 1.369 . S
C1489 C1491 1.419 . S
C1489 H1493 0.930 . S
C1490 C1489 1.369 . S
C1490 C1499 1.429 . S
C1491 C1489 1.419 . S
C1491 C1492 1.363 . S
C1491 H1494 0.929 . S
C1492 C1491 1.363 . S
C1492 C1498 1.428 . S
H1493 C1489 0.930 . S
H1494 C1491 0.929 . S
S1495 N1496 1.613 . S
S1495 N1497 1.610 . S
N1496 S1495 1.613 . S
N1496 C1499 1.350 . S
N1497 S1495 1.610 . S
N1497 C1498 1.351 . S
C1498 C1492 1.428 . S
C1498 N1497 1.351 . S
C1498 C1499 1.434 . S
C1499 C1490 1.429 . S
C1499 N1496 1.350 . S
C1499 C1498 1.434 . S
C1500 C1501 1.369 . S
C1500 C1502 1.419 . S
C1500 H1504 0.930 . S
C1501 C1500 1.369 . S
C1501 C1510 1.429 . S
C1502 C1500 1.419 . S
C1502 C1503 1.363 . S
C1502 H1505 0.929 . S
C1503 C1502 1.363 . S
C1503 C1509 1.428 . S
H1504 C1500 0.930 . S
H1505 C1502 0.929 . S
S1506 N1507 1.613 . S
S1506 N1508 1.610 . S
N1507 S1506 1.613 . S
N1507 C1510 1.350 . S
N1508 S1506 1.610 . S
N1508 C1509 1.351 . S
C1509 C1503 1.428 . S
C1509 N1508 1.351 . S
C1509 C1510 1.434 . S
C1510 C1501 1.429 . S
C1510 N1507 1.350 . S
C1510 C1509 1.434 . S
C1511 C1512 1.369 . S
C1511 C1513 1.419 . S
C1511 H1515 0.930 . S
C1512 C1511 1.369 . S
C1512 C1521 1.429 . S
C1513 C1511 1.419 . S
C1513 C1514 1.363 . S
C1513 H1516 0.929 . S
C1514 C1513 1.363 . S
C1514 C1520 1.428 . S
H1515 C1511 0.930 . S
H1516 C1513 0.929 . S
S1517 N1518 1.613 . S
S1517 N1519 1.610 . S
N1518 S1517 1.613 . S
N1518 C1521 1.350 . S
N1519 S1517 1.610 . S
N1519 C1520 1.351 . S
C1520 C1514 1.428 . S
C1520 N1519 1.351 . S
C1520 C1521 1.434 . S
C1521 C1512 1.429 . S
C1521 N1518 1.350 . S
C1521 C1520 1.434 . S
C1522 C1523 1.369 . S
C1522 C1524 1.419 . S
C1522 H1526 0.930 . S
C1523 C1522 1.369 . S
C1523 C1532 1.429 . S
C1524 C1522 1.419 . S
C1524 C1525 1.363 . S
C1524 H1527 0.929 . S
C1525 C1524 1.363 . S
C1525 C1531 1.428 . S
H1526 C1522 0.930 . S
H1527 C1524 0.929 . S
S1528 N1529 1.613 . S
S1528 N1530 1.610 . S
N1529 S1528 1.613 . S
N1529 C1532 1.350 . S
N1530 S1528 1.610 . S
N1530 C1531 1.351 . S
C1531 C1525 1.428 . S
C1531 N1530 1.351 . S
C1531 C1532 1.434 . S
C1532 C1523 1.429 . S
C1532 N1529 1.350 . S
C1532 C1531 1.434 . S
C1533 C1534 1.369 . S
C1533 C1535 1.419 . S
C1533 H1537 0.930 . S
C1534 C1533 1.369 . S
C1534 C1543 1.429 . S
C1535 C1533 1.419 . S
C1535 C1536 1.363 . S
C1535 H1538 0.929 . S
C1536 C1535 1.363 . S
C1536 C1542 1.428 . S
H1537 C1533 0.930 . S
H1538 C1535 0.929 . S
S1539 N1540 1.613 . S
S1539 N1541 1.610 . S
N1540 S1539 1.613 . S
N1540 C1543 1.350 . S
N1541 S1539 1.610 . S
N1541 C1542 1.351 . S
C1542 C1536 1.428 . S
C1542 N1541 1.351 . S
C1542 C1543 1.434 . S
C1543 C1534 1.429 . S
C1543 N1540 1.350 . S
C1543 C1542 1.434 . S
C1544 C1545 1.369 . S
C1544 C1546 1.419 . S
C1544 H1548 0.930 . S
C1545 C1544 1.369 . S
C1545 C1554 1.429 . S
C1546 C1544 1.419 . S
C1546 C1547 1.363 . S
C1546 H1549 0.929 . S
C1547 C1546 1.363 . S
C1547 C1553 1.428 . S
H1548 C1544 0.930 . S
H1549 C1546 0.929 . S
S1550 N1551 1.613 . S
S1550 N1552 1.610 . S
N1551 S1550 1.613 . S
N1551 C1554 1.350 . S
N1552 S1550 1.610 . S
N1552 C1553 1.351 . S
C1553 C1547 1.428 . S
C1553 N1552 1.351 . S
C1553 C1554 1.434 . S
C1554 C1545 1.429 . S
C1554 N1551 1.350 . S
C1554 C1553 1.434 . S
C1555 C1556 1.369 . S
C1555 C1557 1.419 . S
C1555 H1559 0.930 . S
C1556 C1555 1.369 . S
C1556 C1565 1.429 . S
C1557 C1555 1.419 . S
C1557 C1558 1.363 . S
C1557 H1560 0.929 . S
C1558 C1557 1.363 . S
C1558 C1564 1.428 . S
H1559 C1555 0.930 . S
H1560 C1557 0.929 . S
S1561 N1562 1.613 . S
S1561 N1563 1.610 . S
N1562 S1561 1.613 . S
N1562 C1565 1.350 . S
N1563 S1561 1.610 . S
N1563 C1564 1.351 . S
C1564 C1558 1.428 . S
C1564 N1563 1.351 . S
C1564 C1565 1.434 . S
C1565 C1556 1.429 . S
C1565 N1562 1.350 . S
C1565 C1564 1.434 . S
C1566 C1567 1.369 . S
C1566 C1568 1.419 . S
C1566 H1570 0.930 . S
C1567 C1566 1.369 . S
C1567 C1576 1.429 . S
C1568 C1566 1.419 . S
C1568 C1569 1.363 . S
C1568 H1571 0.929 . S
C1569 C1568 1.363 . S
C1569 C1575 1.428 . S
H1570 C1566 0.930 . S
H1571 C1568 0.929 . S
S1572 N1573 1.613 . S
S1572 N1574 1.610 . S
N1573 S1572 1.613 . S
N1573 C1576 1.350 . S
N1574 S1572 1.610 . S
N1574 C1575 1.351 . S
C1575 C1569 1.428 . S
C1575 N1574 1.351 . S
C1575 C1576 1.434 . S
C1576 C1567 1.429 . S
C1576 N1573 1.350 . S
C1576 C1575 1.434 . S
C1577 C1578 1.369 . S
C1577 C1579 1.419 . S
C1577 H1581 0.930 . S
C1578 C1577 1.369 . S
C1578 C1587 1.429 . S
C1579 C1577 1.419 . S
C1579 C1580 1.363 . S
C1579 H1582 0.929 . S
C1580 C1579 1.363 . S
C1580 C1586 1.428 . S
H1581 C1577 0.930 . S
H1582 C1579 0.929 . S
S1583 N1584 1.613 . S
S1583 N1585 1.610 . S
N1584 S1583 1.613 . S
N1584 C1587 1.350 . S
N1585 S1583 1.610 . S
N1585 C1586 1.351 . S
C1586 C1580 1.428 . S
C1586 N1585 1.351 . S
C1586 C1587 1.434 . S
C1587 C1578 1.429 . S
C1587 N1584 1.350 . S
C1587 C1586 1.434 . S
C1588 C1589 1.369 . S
C1588 C1590 1.419 . S
C1588 H1592 0.930 . S
C1589 C1588 1.369 . S
C1589 C1598 1.429 . S
C1590 C1588 1.419 . S
C1590 C1591 1.363 . S
C1590 H1593 0.929 . S
C1591 C1590 1.363 . S
C1591 C1597 1.428 . S
H1592 C1588 0.930 . S
H1593 C1590 0.929 . S
S1594 N1595 1.613 . S
S1594 N1596 1.610 . S
N1595 S1594 1.613 . S
N1595 C1598 1.350 . S
N1596 S1594 1.610 . S
N1596 C1597 1.351 . S
C1597 C1591 1.428 . S
C1597 N1596 1.351 . S
C1597 C1598 1.434 . S
C1598 C1589 1.429 . S
C1598 N1595 1.350 . S
C1598 C1597 1.434 . S
C1599 C1600 1.369 . S
C1599 C1601 1.419 . S
C1599 H1603 0.930 . S
C1600 C1599 1.369 . S
C1600 C1609 1.429 . S
C1601 C1599 1.419 . S
C1601 C1602 1.363 . S
C1601 H1604 0.929 . S
C1602 C1601 1.363 . S
C1602 C1608 1.428 . S
H1603 C1599 0.930 . S
H1604 C1601 0.929 . S
S1605 N1606 1.613 . S
S1605 N1607 1.610 . S
N1606 S1605 1.613 . S
N1606 C1609 1.350 . S
N1607 S1605 1.610 . S
N1607 C1608 1.351 . S
C1608 C1602 1.428 . S
C1608 N1607 1.351 . S
C1608 C1609 1.434 . S
C1609 C1600 1.429 . S
C1609 N1606 1.350 . S
C1609 C1608 1.434 . S
C1610 C1611 1.369 . S
C1610 C1612 1.419 . S
C1610 H1614 0.930 . S
C1611 C1610 1.369 . S
C1611 C1620 1.429 . S
C1612 C1610 1.419 . S
C1612 C1613 1.363 . S
C1612 H1615 0.929 . S
C1613 C1612 1.363 . S
C1613 C1619 1.428 . S
H1614 C1610 0.930 . S
H1615 C1612 0.929 . S
S1616 N1617 1.613 . S
S1616 N1618 1.610 . S
N1617 S1616 1.613 . S
N1617 C1620 1.350 . S
N1618 S1616 1.610 . S
N1618 C1619 1.351 . S
C1619 C1613 1.428 . S
C1619 N1618 1.351 . S
C1619 C1620 1.434 . S
C1620 C1611 1.429 . S
C1620 N1617 1.350 . S
C1620 C1619 1.434 . S
C1621 C1622 1.369 . S
C1621 C1623 1.419 . S
C1621 H1625 0.930 . S
C1622 C1621 1.369 . S
C1622 C1631 1.429 . S
C1623 C1621 1.419 . S
C1623 C1624 1.363 . S
C1623 H1626 0.929 . S
C1624 C1623 1.363 . S
C1624 C1630 1.428 . S
H1625 C1621 0.930 . S
H1626 C1623 0.929 . S
S1627 N1628 1.613 . S
S1627 N1629 1.610 . S
N1628 S1627 1.613 . S
N1628 C1631 1.350 . S
N1629 S1627 1.610 . S
N1629 C1630 1.351 . S
C1630 C1624 1.428 . S
C1630 N1629 1.351 . S
C1630 C1631 1.434 . S
C1631 C1622 1.429 . S
C1631 N1628 1.350 . S
C1631 C1630 1.434 . S
C1632 C1633 1.369 . S
C1632 C1634 1.419 . S
C1632 H1636 0.930 . S
C1633 C1632 1.369 . S
C1633 C1642 1.429 . S
C1634 C1632 1.419 . S
C1634 C1635 1.363 . S
C1634 H1637 0.929 . S
C1635 C1634 1.363 . S
C1635 C1641 1.428 . S
H1636 C1632 0.930 . S
H1637 C1634 0.929 . S
S1638 N1639 1.613 . S
S1638 N1640 1.610 . S
N1639 S1638 1.613 . S
N1639 C1642 1.350 . S
N1640 S1638 1.610 . S
N1640 C1641 1.351 . S
C1641 C1635 1.428 . S
C1641 N1640 1.351 . S
C1641 C1642 1.434 . S
C1642 C1633 1.429 . S
C1642 N1639 1.350 . S
C1642 C1641 1.434 . S
C1643 C1644 1.369 . S
C1643 C1645 1.419 . S
C1643 H1647 0.930 . S
C1644 C1643 1.369 . S
C1644 C1653 1.429 . S
C1645 C1643 1.419 . S
C1645 C1646 1.363 . S
C1645 H1648 0.929 . S
C1646 C1645 1.363 . S
C1646 C1652 1.428 . S
H1647 C1643 0.930 . S
H1648 C1645 0.929 . S
S1649 N1650 1.613 . S
S1649 N1651 1.610 . S
N1650 S1649 1.613 . S
N1650 C1653 1.350 . S
N1651 S1649 1.610 . S
N1651 C1652 1.351 . S
C1652 C1646 1.428 . S
C1652 N1651 1.351 . S
C1652 C1653 1.434 . S
C1653 C1644 1.429 . S
C1653 N1650 1.350 . S
C1653 C1652 1.434 . S
C1654 C1655 1.369 . S
C1654 C1656 1.419 . S
C1654 H1658 0.930 . S
C1655 C1654 1.369 . S
C1655 C1664 1.429 . S
C1656 C1654 1.419 . S
C1656 C1657 1.363 . S
C1656 H1659 0.929 . S
C1657 C1656 1.363 . S
C1657 C1663 1.428 . S
H1658 C1654 0.930 . S
H1659 C1656 0.929 . S
S1660 N1661 1.613 . S
S1660 N1662 1.610 . S
N1661 S1660 1.613 . S
N1661 C1664 1.350 . S
N1662 S1660 1.610 . S
N1662 C1663 1.351 . S
C1663 C1657 1.428 . S
C1663 N1662 1.351 . S
C1663 C1664 1.434 . S
C1664 C1655 1.429 . S
C1664 N1661 1.350 . S
C1664 C1663 1.434 . S
C1665 C1666 1.369 . S
C1665 C1667 1.419 . S
C1665 H1669 0.930 . S
C1666 C1665 1.369 . S
C1666 C1675 1.429 . S
C1667 C1665 1.419 . S
C1667 C1668 1.363 . S
C1667 H1670 0.929 . S
C1668 C1667 1.363 . S
C1668 C1674 1.428 . S
H1669 C1665 0.930 . S
H1670 C1667 0.929 . S
S1671 N1672 1.613 . S
S1671 N1673 1.610 . S
N1672 S1671 1.613 . S
N1672 C1675 1.350 . S
N1673 S1671 1.610 . S
N1673 C1674 1.351 . S
C1674 C1668 1.428 . S
C1674 N1673 1.351 . S
C1674 C1675 1.434 . S
C1675 C1666 1.429 . S
C1675 N1672 1.350 . S
C1675 C1674 1.434 . S
C1676 C1677 1.369 . S
C1676 C1678 1.419 . S
C1676 H1680 0.930 . S
C1677 C1676 1.369 . S
C1677 C1686 1.429 . S
C1678 C1676 1.419 . S
C1678 C1679 1.363 . S
C1678 H1681 0.929 . S
C1679 C1678 1.363 . S
C1679 C1685 1.428 . S
H1680 C1676 0.930 . S
H1681 C1678 0.929 . S
S1682 N1683 1.613 . S
S1682 N1684 1.610 . S
N1683 S1682 1.613 . S
N1683 C1686 1.350 . S
N1684 S1682 1.610 . S
N1684 C1685 1.351 . S
C1685 C1679 1.428 . S
C1685 N1684 1.351 . S
C1685 C1686 1.434 . S
C1686 C1677 1.429 . S
C1686 N1683 1.350 . S
C1686 C1685 1.434 . S
C1687 C1688 1.369 . S
C1687 C1689 1.419 . S
C1687 H1691 0.930 . S
C1688 C1687 1.369 . S
C1688 C1697 1.429 . S
C1689 C1687 1.419 . S
C1689 C1690 1.363 . S
C1689 H1692 0.929 . S
C1690 C1689 1.363 . S
C1690 C1696 1.428 . S
H1691 C1687 0.930 . S
H1692 C1689 0.929 . S
S1693 N1694 1.613 . S
S1693 N1695 1.610 . S
N1694 S1693 1.613 . S
N1694 C1697 1.350 . S
N1695 S1693 1.610 . S
N1695 C1696 1.351 . S
C1696 C1690 1.428 . S
C1696 N1695 1.351 . S
C1696 C1697 1.434 . S
C1697 C1688 1.429 . S
C1697 N1694 1.350 . S
C1697 C1696 1.434 . S
C1698 C1699 1.369 . S
C1698 C1700 1.419 . S
C1698 H1702 0.930 . S
C1699 C1698 1.369 . S
C1699 C1708 1.429 . S
C1700 C1698 1.419 . S
C1700 C1701 1.363 . S
C1700 H1703 0.929 . S
C1701 C1700 1.363 . S
C1701 C1707 1.428 . S
H1702 C1698 0.930 . S
H1703 C1700 0.929 . S
S1704 N1705 1.613 . S
S1704 N1706 1.610 . S
N1705 S1704 1.613 . S
N1705 C1708 1.350 . S
N1706 S1704 1.610 . S
N1706 C1707 1.351 . S
C1707 C1701 1.428 . S
C1707 N1706 1.351 . S
C1707 C1708 1.434 . S
C1708 C1699 1.429 . S
C1708 N1705 1.350 . S
C1708 C1707 1.434 . S
C1709 C1710 1.369 . S
C1709 C1711 1.419 . S
C1709 H1713 0.930 . S
C1710 C1709 1.369 . S
C1710 C1719 1.429 . S
C1711 C1709 1.419 . S
C1711 C1712 1.363 . S
C1711 H1714 0.929 . S
C1712 C1711 1.363 . S
C1712 C1718 1.428 . S
H1713 C1709 0.930 . S
H1714 C1711 0.929 . S
S1715 N1716 1.613 . S
S1715 N1717 1.610 . S
N1716 S1715 1.613 . S
N1716 C1719 1.350 . S
N1717 S1715 1.610 . S
N1717 C1718 1.351 . S
C1718 C1712 1.428 . S
C1718 N1717 1.351 . S
C1718 C1719 1.434 . S
C1719 C1710 1.429 . S
C1719 N1716 1.350 . S
C1719 C1718 1.434 . S
C1720 C1721 1.369 . S
C1720 C1722 1.419 . S
C1720 H1724 0.930 . S
C1721 C1720 1.369 . S
C1721 C1730 1.429 . S
C1722 C1720 1.419 . S
C1722 C1723 1.363 . S
C1722 H1725 0.929 . S
C1723 C1722 1.363 . S
C1723 C1729 1.428 . S
H1724 C1720 0.930 . S
H1725 C1722 0.929 . S
S1726 N1727 1.613 . S
S1726 N1728 1.610 . S
N1727 S1726 1.613 . S
N1727 C1730 1.350 . S
N1728 S1726 1.610 . S
N1728 C1729 1.351 . S
C1729 C1723 1.428 . S
C1729 N1728 1.351 . S
C1729 C1730 1.434 . S
C1730 C1721 1.429 . S
C1730 N1727 1.350 . S
C1730 C1729 1.434 . S
C1731 C1732 1.369 . S
C1731 C1733 1.419 . S
C1731 H1735 0.930 . S
C1732 C1731 1.369 . S
C1732 C1741 1.429 . S
C1733 C1731 1.419 . S
C1733 C1734 1.363 . S
C1733 H1736 0.929 . S
C1734 C1733 1.363 . S
C1734 C1740 1.428 . S
H1735 C1731 0.930 . S
H1736 C1733 0.929 . S
S1737 N1738 1.613 . S
S1737 N1739 1.610 . S
N1738 S1737 1.613 . S
N1738 C1741 1.350 . S
N1739 S1737 1.610 . S
N1739 C1740 1.351 . S
C1740 C1734 1.428 . S
C1740 N1739 1.351 . S
C1740 C1741 1.434 . S
C1741 C1732 1.429 . S
C1741 N1738 1.350 . S
C1741 C1740 1.434 . S
C1742 C1743 1.369 . S
C1742 C1744 1.419 . S
C1742 H1746 0.930 . S
C1743 C1742 1.369 . S
C1743 C1752 1.429 . S
C1744 C1742 1.419 . S
C1744 C1745 1.363 . S
C1744 H1747 0.929 . S
C1745 C1744 1.363 . S
C1745 C1751 1.428 . S
H1746 C1742 0.930 . S
H1747 C1744 0.929 . S
S1748 N1749 1.613 . S
S1748 N1750 1.610 . S
N1749 S1748 1.613 . S
N1749 C1752 1.350 . S
N1750 S1748 1.610 . S
N1750 C1751 1.351 . S
C1751 C1745 1.428 . S
C1751 N1750 1.351 . S
C1751 C1752 1.434 . S
C1752 C1743 1.429 . S
C1752 N1749 1.350 . S
C1752 C1751 1.434 . S
C1753 C1754 1.369 . S
C1753 C1755 1.419 . S
C1753 H1757 0.930 . S
C1754 C1753 1.369 . S
C1754 C1763 1.429 . S
C1755 C1753 1.419 . S
C1755 C1756 1.363 . S
C1755 H1758 0.929 . S
C1756 C1755 1.363 . S
C1756 C1762 1.428 . S
H1757 C1753 0.930 . S
H1758 C1755 0.929 . S
S1759 N1760 1.613 . S
S1759 N1761 1.610 . S
N1760 S1759 1.613 . S
N1760 C1763 1.350 . S
N1761 S1759 1.610 . S
N1761 C1762 1.351 . S
C1762 C1756 1.428 . S
C1762 N1761 1.351 . S
C1762 C1763 1.434 . S
C1763 C1754 1.429 . S
C1763 N1760 1.350 . S
C1763 C1762 1.434 . S
C1764 C1765 1.369 . S
C1764 C1766 1.419 . S
C1764 H1768 0.930 . S
C1765 C1764 1.369 . S
C1765 C1774 1.429 . S
C1766 C1764 1.419 . S
C1766 C1767 1.363 . S
C1766 H1769 0.929 . S
C1767 C1766 1.363 . S
C1767 C1773 1.428 . S
H1768 C1764 0.930 . S
H1769 C1766 0.929 . S
S1770 N1771 1.613 . S
S1770 N1772 1.610 . S
N1771 S1770 1.613 . S
N1771 C1774 1.350 . S
N1772 S1770 1.610 . S
N1772 C1773 1.351 . S
C1773 C1767 1.428 . S
C1773 N1772 1.351 . S
C1773 C1774 1.434 . S
C1774 C1765 1.429 . S
C1774 N1771 1.350 . S
C1774 C1773 1.434 . S
C1775 C1776 1.369 . S
C1775 C1777 1.419 . S
C1775 H1779 0.930 . S
C1776 C1775 1.369 . S
C1776 C1785 1.429 . S
C1777 C1775 1.419 . S
C1777 C1778 1.363 . S
C1777 H1780 0.929 . S
C1778 C1777 1.363 . S
C1778 C1784 1.428 . S
H1779 C1775 0.930 . S
H1780 C1777 0.929 . S
S1781 N1782 1.613 . S
S1781 N1783 1.610 . S
N1782 S1781 1.613 . S
N1782 C1785 1.350 . S
N1783 S1781 1.610 . S
N1783 C1784 1.351 . S
C1784 C1778 1.428 . S
C1784 N1783 1.351 . S
C1784 C1785 1.434 . S
C1785 C1776 1.429 . S
C1785 N1782 1.350 . S
C1785 C1784 1.434 . S
C1786 C1787 1.369 . S
C1786 C1788 1.419 . S
C1786 H1790 0.930 . S
C1787 C1786 1.369 . S
C1787 C1796 1.429 . S
C1788 C1786 1.419 . S
C1788 C1789 1.363 . S
C1788 H1791 0.929 . S
C1789 C1788 1.363 . S
C1789 C1795 1.428 . S
H1790 C1786 0.930 . S
H1791 C1788 0.929 . S
S1792 N1793 1.613 . S
S1792 N1794 1.610 . S
N1793 S1792 1.613 . S
N1793 C1796 1.350 . S
N1794 S1792 1.610 . S
N1794 C1795 1.351 . S
C1795 C1789 1.428 . S
C1795 N1794 1.351 . S
C1795 C1796 1.434 . S
C1796 C1787 1.429 . S
C1796 N1793 1.350 . S
C1796 C1795 1.434 . S
C1797 C1798 1.369 . S
C1797 C1799 1.419 . S
C1797 H1801 0.930 . S
C1798 C1797 1.369 . S
C1798 C1807 1.429 . S
C1799 C1797 1.419 . S
C1799 C1800 1.363 . S
C1799 H1802 0.929 . S
C1800 C1799 1.363 . S
C1800 C1806 1.428 . S
H1801 C1797 0.930 . S
H1802 C1799 0.929 . S
S1803 N1804 1.613 . S
S1803 N1805 1.610 . S
N1804 S1803 1.613 . S
N1804 C1807 1.350 . S
N1805 S1803 1.610 . S
N1805 C1806 1.351 . S
C1806 C1800 1.428 . S
C1806 N1805 1.351 . S
C1806 C1807 1.434 . S
C1807 C1798 1.429 . S
C1807 N1804 1.350 . S
C1807 C1806 1.434 . S
C1808 C1809 1.369 . S
C1808 C1810 1.419 . S
C1808 H1812 0.930 . S
C1809 C1808 1.369 . S
C1809 C1818 1.429 . S
C1810 C1808 1.419 . S
C1810 C1811 1.363 . S
C1810 H1813 0.929 . S
C1811 C1810 1.363 . S
C1811 C1817 1.428 . S
H1812 C1808 0.930 . S
H1813 C1810 0.929 . S
S1814 N1815 1.613 . S
S1814 N1816 1.610 . S
N1815 S1814 1.613 . S
N1815 C1818 1.350 . S
N1816 S1814 1.610 . S
N1816 C1817 1.351 . S
C1817 C1811 1.428 . S
C1817 N1816 1.351 . S
C1817 C1818 1.434 . S
C1818 C1809 1.429 . S
C1818 N1815 1.350 . S
C1818 C1817 1.434 . S
C1819 C1820 1.369 . S
C1819 C1821 1.419 . S
C1819 H1823 0.930 . S
C1820 C1819 1.369 . S
C1820 C1829 1.429 . S
C1821 C1819 1.419 . S
C1821 C1822 1.363 . S
C1821 H1824 0.929 . S
C1822 C1821 1.363 . S
C1822 C1828 1.428 . S
H1823 C1819 0.930 . S
H1824 C1821 0.929 . S
S1825 N1826 1.613 . S
S1825 N1827 1.610 . S
N1826 S1825 1.613 . S
N1826 C1829 1.350 . S
N1827 S1825 1.610 . S
N1827 C1828 1.351 . S
C1828 C1822 1.428 . S
C1828 N1827 1.351 . S
C1828 C1829 1.434 . S
C1829 C1820 1.429 . S
C1829 N1826 1.350 . S
C1829 C1828 1.434 . S
C1830 C1831 1.369 . S
C1830 C1832 1.419 . S
C1830 H1834 0.930 . S
C1831 C1830 1.369 . S
C1831 C1840 1.429 . S
C1832 C1830 1.419 . S
C1832 C1833 1.363 . S
C1832 H1835 0.929 . S
C1833 C1832 1.363 . S
C1833 C1839 1.428 . S
H1834 C1830 0.930 . S
H1835 C1832 0.929 . S
S1836 N1837 1.613 . S
S1836 N1838 1.610 . S
N1837 S1836 1.613 . S
N1837 C1840 1.350 . S
N1838 S1836 1.610 . S
N1838 C1839 1.351 . S
C1839 C1833 1.428 . S
C1839 N1838 1.351 . S
C1839 C1840 1.434 . S
C1840 C1831 1.429 . S
C1840 N1837 1.350 . S
C1840 C1839 1.434 . S
C1841 C1842 1.369 . S
C1841 C1843 1.419 . S
C1841 H1845 0.930 . S
C1842 C1841 1.369 . S
C1842 C1851 1.429 . S
C1843 C1841 1.419 . S
C1843 C1844 1.363 . S
C1843 H1846 0.929 . S
C1844 C1843 1.363 . S
C1844 C1850 1.428 . S
H1845 C1841 0.930 . S
H1846 C1843 0.929 . S
S1847 N1848 1.613 . S
S1847 N1849 1.610 . S
N1848 S1847 1.613 . S
N1848 C1851 1.350 . S
N1849 S1847 1.610 . S
N1849 C1850 1.351 . S
C1850 C1844 1.428 . S
C1850 N1849 1.351 . S
C1850 C1851 1.434 . S
C1851 C1842 1.429 . S
C1851 N1848 1.350 . S
C1851 C1850 1.434 . S
C1852 C1853 1.369 . S
C1852 C1854 1.419 . S
C1852 H1856 0.930 . S
C1853 C1852 1.369 . S
C1853 C1862 1.429 . S
C1854 C1852 1.419 . S
C1854 C1855 1.363 . S
C1854 H1857 0.929 . S
C1855 C1854 1.363 . S
C1855 C1861 1.428 . S
H1856 C1852 0.930 . S
H1857 C1854 0.929 . S
S1858 N1859 1.613 . S
S1858 N1860 1.610 . S
N1859 S1858 1.613 . S
N1859 C1862 1.350 . S
N1860 S1858 1.610 . S
N1860 C1861 1.351 . S
C1861 C1855 1.428 . S
C1861 N1860 1.351 . S
C1861 C1862 1.434 . S
C1862 C1853 1.429 . S
C1862 N1859 1.350 . S
C1862 C1861 1.434 . S
C1863 C1864 1.369 . S
C1863 C1865 1.419 . S
C1863 H1867 0.930 . S
C1864 C1863 1.369 . S
C1864 C1873 1.429 . S
C1865 C1863 1.419 . S
C1865 C1866 1.363 . S
C1865 H1868 0.929 . S
C1866 C1865 1.363 . S
C1866 C1872 1.428 . S
H1867 C1863 0.930 . S
H1868 C1865 0.929 . S
S1869 N1870 1.613 . S
S1869 N1871 1.610 . S
N1870 S1869 1.613 . S
N1870 C1873 1.350 . S
N1871 S1869 1.610 . S
N1871 C1872 1.351 . S
C1872 C1866 1.428 . S
C1872 N1871 1.351 . S
C1872 C1873 1.434 . S
C1873 C1864 1.429 . S
C1873 N1870 1.350 . S
C1873 C1872 1.434 . S
C1874 C1875 1.369 . S
C1874 C1876 1.419 . S
C1874 H1878 0.930 . S
C1875 C1874 1.369 . S
C1875 C1884 1.429 . S
C1876 C1874 1.419 . S
C1876 C1877 1.363 . S
C1876 H1879 0.929 . S
C1877 C1876 1.363 . S
C1877 C1883 1.428 . S
H1878 C1874 0.930 . S
H1879 C1876 0.929 . S
S1880 N1881 1.613 . S
S1880 N1882 1.610 . S
N1881 S1880 1.613 . S
N1881 C1884 1.350 . S
N1882 S1880 1.610 . S
N1882 C1883 1.351 . S
C1883 C1877 1.428 . S
C1883 N1882 1.351 . S
C1883 C1884 1.434 . S
C1884 C1875 1.429 . S
C1884 N1881 1.350 . S
C1884 C1883 1.434 . S
C1885 C1886 1.369 . S
C1885 C1887 1.419 . S
C1885 H1889 0.930 . S
C1886 C1885 1.369 . S
C1886 C1895 1.429 . S
C1887 C1885 1.419 . S
C1887 C1888 1.363 . S
C1887 H1890 0.929 . S
C1888 C1887 1.363 . S
C1888 C1894 1.428 . S
H1889 C1885 0.930 . S
H1890 C1887 0.929 . S
S1891 N1892 1.613 . S
S1891 N1893 1.610 . S
N1892 S1891 1.613 . S
N1892 C1895 1.350 . S
N1893 S1891 1.610 . S
N1893 C1894 1.351 . S
C1894 C1888 1.428 . S
C1894 N1893 1.351 . S
C1894 C1895 1.434 . S
C1895 C1886 1.429 . S
C1895 N1892 1.350 . S
C1895 C1894 1.434 . S
C1896 C1897 1.369 . S
C1896 C1898 1.419 . S
C1896 H1900 0.930 . S
C1897 C1896 1.369 . S
C1897 C1906 1.429 . S
C1898 C1896 1.419 . S
C1898 C1899 1.363 . S
C1898 H1901 0.929 . S
C1899 C1898 1.363 . S
C1899 C1905 1.428 . S
H1900 C1896 0.930 . S
H1901 C1898 0.929 . S
S1902 N1903 1.613 . S
S1902 N1904 1.610 . S
N1903 S1902 1.613 . S
N1903 C1906 1.350 . S
N1904 S1902 1.610 . S
N1904 C1905 1.351 . S
C1905 C1899 1.428 . S
C1905 N1904 1.351 . S
C1905 C1906 1.434 . S
C1906 C1897 1.429 . S
C1906 N1903 1.350 . S
C1906 C1905 1.434 . S
C1907 C1908 1.369 . S
C1907 C1909 1.419 . S
C1907 H1911 0.930 . S
C1908 C1907 1.369 . S
C1908 C1917 1.429 . S
C1909 C1907 1.419 . S
C1909 C1910 1.363 . S
C1909 H1912 0.929 . S
C1910 C1909 1.363 . S
C1910 C1916 1.428 . S
H1911 C1907 0.930 . S
H1912 C1909 0.929 . S
S1913 N1914 1.613 . S
S1913 N1915 1.610 . S
N1914 S1913 1.613 . S
N1914 C1917 1.350 . S
N1915 S1913 1.610 . S
N1915 C1916 1.351 . S
C1916 C1910 1.428 . S
C1916 N1915 1.351 . S
C1916 C1917 1.434 . S
C1917 C1908 1.429 . S
C1917 N1914 1.350 . S
C1917 C1916 1.434 . S
C1918 C1919 1.369 . S
C1918 C1920 1.419 . S
C1918 H1922 0.930 . S
C1919 C1918 1.369 . S
C1919 C1928 1.429 . S
C1920 C1918 1.419 . S
C1920 C1921 1.363 . S
C1920 H1923 0.929 . S
C1921 C1920 1.363 . S
C1921 C1927 1.428 . S
H1922 C1918 0.930 . S
H1923 C1920 0.929 . S
S1924 N1925 1.613 . S
S1924 N1926 1.610 . S
N1925 S1924 1.613 . S
N1925 C1928 1.350 . S
N1926 S1924 1.610 . S
N1926 C1927 1.351 . S
C1927 C1921 1.428 . S
C1927 N1926 1.351 . S
C1927 C1928 1.434 . S
C1928 C1919 1.429 . S
C1928 N1925 1.350 . S
C1928 C1927 1.434 . S
C1929 C1930 1.369 . S
C1929 C1931 1.419 . S
C1929 H1933 0.930 . S
C1930 C1929 1.369 . S
C1930 C1939 1.429 . S
C1931 C1929 1.419 . S
C1931 C1932 1.363 . S
C1931 H1934 0.929 . S
C1932 C1931 1.363 . S
C1932 C1938 1.428 . S
H1933 C1929 0.930 . S
H1934 C1931 0.929 . S
S1935 N1936 1.613 . S
S1935 N1937 1.610 . S
N1936 S1935 1.613 . S
N1936 C1939 1.350 . S
N1937 S1935 1.610 . S
N1937 C1938 1.351 . S
C1938 C1932 1.428 . S
C1938 N1937 1.351 . S
C1938 C1939 1.434 . S
C1939 C1930 1.429 . S
C1939 N1936 1.350 . S
C1939 C1938 1.434 . S
C1940 C1941 1.369 . S
C1940 C1942 1.419 . S
C1940 H1944 0.930 . S
C1941 C1940 1.369 . S
C1941 C1950 1.429 . S
C1942 C1940 1.419 . S
C1942 C1943 1.363 . S
C1942 H1945 0.929 . S
C1943 C1942 1.363 . S
C1943 C1949 1.428 . S
H1944 C1940 0.930 . S
H1945 C1942 0.929 . S
S1946 N1947 1.613 . S
S1946 N1948 1.610 . S
N1947 S1946 1.613 . S
N1947 C1950 1.350 . S
N1948 S1946 1.610 . S
N1948 C1949 1.351 . S
C1949 C1943 1.428 . S
C1949 N1948 1.351 . S
C1949 C1950 1.434 . S
C1950 C1941 1.429 . S
C1950 N1947 1.350 . S
C1950 C1949 1.434 . S
C1951 C1952 1.369 . S
C1951 C1953 1.419 . S
C1951 H1955 0.930 . S
C1952 C1951 1.369 . S
C1952 C1961 1.429 . S
C1953 C1951 1.419 . S
C1953 C1954 1.363 . S
C1953 H1956 0.929 . S
C1954 C1953 1.363 . S
C1954 C1960 1.428 . S
H1955 C1951 0.930 . S
H1956 C1953 0.929 . S
S1957 N1958 1.613 . S
S1957 N1959 1.610 . S
N1958 S1957 1.613 . S
N1958 C1961 1.350 . S
N1959 S1957 1.610 . S
N1959 C1960 1.351 . S
C1960 C1954 1.428 . S
C1960 N1959 1.351 . S
C1960 C1961 1.434 . S
C1961 C1952 1.429 . S
C1961 N1958 1.350 . S
C1961 C1960 1.434 . S
C1962 C1963 1.369 . S
C1962 C1964 1.419 . S
C1962 H1966 0.930 . S
C1963 C1962 1.369 . S
C1963 C1972 1.429 . S
C1964 C1962 1.419 . S
C1964 C1965 1.363 . S
C1964 H1967 0.929 . S
C1965 C1964 1.363 . S
C1965 C1971 1.428 . S
H1966 C1962 0.930 . S
H1967 C1964 0.929 . S
S1968 N1969 1.613 . S
S1968 N1970 1.610 . S
N1969 S1968 1.613 . S
N1969 C1972 1.350 . S
N1970 S1968 1.610 . S
N1970 C1971 1.351 . S
C1971 C1965 1.428 . S
C1971 N1970 1.351 . S
C1971 C1972 1.434 . S
C1972 C1963 1.429 . S
C1972 N1969 1.350 . S
C1972 C1971 1.434 . S
C1973 C1974 1.369 . S
C1973 C1975 1.419 . S
C1973 H1977 0.930 . S
C1974 C1973 1.369 . S
C1974 C1983 1.429 . S
C1975 C1973 1.419 . S
C1975 C1976 1.363 . S
C1975 H1978 0.929 . S
C1976 C1975 1.363 . S
C1976 C1982 1.428 . S
H1977 C1973 0.930 . S
H1978 C1975 0.929 . S
S1979 N1980 1.613 . S
S1979 N1981 1.610 . S
N1980 S1979 1.613 . S
N1980 C1983 1.350 . S
N1981 S1979 1.610 . S
N1981 C1982 1.351 . S
C1982 C1976 1.428 . S
C1982 N1981 1.351 . S
C1982 C1983 1.434 . S
C1983 C1974 1.429 . S
C1983 N1980 1.350 . S
C1983 C1982 1.434 . S
C1984 C1985 1.369 . S
C1984 C1986 1.419 1_545 S
C1984 H1988 0.930 . S
C1985 C1984 1.369 . S
C1985 C1994 1.429 . S
C1986 C1984 1.419 1_565 S
C1986 C1987 1.363 . S
C1986 H1989 0.929 . S
C1987 C1986 1.363 . S
C1987 C1993 1.428 . S
H1988 C1984 0.930 . S
H1989 C1986 0.929 . S
S1990 N1991 1.613 1_565 S
S1990 N1992 1.610 . S
N1991 S1990 1.613 1_545 S
N1991 C1994 1.350 . S
N1992 S1990 1.610 . S
N1992 C1993 1.351 . S
C1993 C1987 1.428 . S
C1993 N1992 1.351 . S
C1993 C1994 1.434 1_565 S
C1994 C1985 1.429 . S
C1994 N1991 1.350 . S
C1994 C1993 1.434 1_545 S
C1995 C1996 1.369 . S
C1995 C1997 1.419 . S
C1995 H1999 0.930 . S
C1996 C1995 1.369 . S
C1996 C2005 1.429 . S
C1997 C1995 1.419 . S
C1997 C1998 1.363 . S
C1997 H2000 0.929 . S
C1998 C1997 1.363 . S
C1998 C2004 1.428 . S
H1999 C1995 0.930 . S
H2000 C1997 0.929 . S
S2001 N2002 1.613 . S
S2001 N2003 1.610 . S
N2002 S2001 1.613 . S
N2002 C2005 1.350 . S
N2003 S2001 1.610 . S
N2003 C2004 1.351 . S
C2004 C1998 1.428 . S
C2004 N2003 1.351 . S
C2004 C2005 1.434 . S
C2005 C1996 1.429 . S
C2005 N2002 1.350 . S
C2005 C2004 1.434 . S
C2006 C2007 1.369 . S
C2006 C2008 1.419 1_565 S
C2006 H2010 0.930 . S
C2007 C2006 1.369 . S
C2007 C2016 1.429 . S
C2008 C2006 1.419 1_545 S
C2008 C2009 1.363 . S
C2008 H2011 0.929 . S
C2009 C2008 1.363 . S
C2009 C2015 1.428 . S
H2010 C2006 0.930 . S
H2011 C2008 0.929 . S
S2012 N2013 1.613 . S
S2012 N2014 1.610 1_565 S
N2013 S2012 1.613 . S
N2013 C2016 1.350 . S
N2014 S2012 1.610 1_545 S
N2014 C2015 1.351 . S
C2015 C2009 1.428 . S
C2015 N2014 1.351 . S
C2015 C2016 1.434 1_545 S
C2016 C2007 1.429 . S
C2016 N2013 1.350 . S
C2016 C2015 1.434 1_565 S
C2017 C2018 1.369 1_556 S
C2017 C2019 1.419 . S
C2017 H2021 0.930 . S
C2018 C2017 1.369 1_554 S
C2018 C2027 1.429 . S
C2019 C2017 1.419 . S
C2019 C2020 1.363 . S
C2019 H2022 0.929 . S
C2020 C2019 1.363 . S
C2020 C2026 1.428 1_556 S
H2021 C2017 0.930 . S
H2022 C2019 0.929 . S
S2023 N2024 1.613 . S
S2023 N2025 1.610 . S
N2024 S2023 1.613 . S
N2024 C2027 1.350 . S
N2025 S2023 1.610 . S
N2025 C2026 1.351 . S
C2026 C2020 1.428 1_554 S
C2026 N2025 1.351 . S
C2026 C2027 1.434 . S
C2027 C2018 1.429 . S
C2027 N2024 1.350 . S
C2027 C2026 1.434 . S
C2028 C2029 1.369 . S
C2028 C2030 1.419 1_545 S
C2028 H2032 0.930 . S
C2029 C2028 1.369 . S
C2029 C2038 1.429 . S
C2030 C2028 1.419 1_565 S
C2030 C2031 1.363 . S
C2030 H2033 0.929 . S
C2031 C2030 1.363 . S
C2031 C2037 1.428 . S
H2032 C2028 0.930 . S
H2033 C2030 0.929 . S
S2034 N2035 1.613 1_565 S
S2034 N2036 1.610 . S
N2035 S2034 1.613 1_545 S
N2035 C2038 1.350 . S
N2036 S2034 1.610 . S
N2036 C2037 1.351 . S
C2037 C2031 1.428 . S
C2037 N2036 1.351 . S
C2037 C2038 1.434 1_565 S
C2038 C2029 1.429 . S
C2038 N2035 1.350 . S
C2038 C2037 1.434 1_545 S
C2039 C2040 1.369 . S
C2039 C2041 1.419 . S
C2039 H2043 0.930 . S
C2040 C2039 1.369 . S
C2040 C2049 1.429 . S
C2041 C2039 1.419 . S
C2041 C2042 1.363 . S
C2041 H2044 0.929 . S
C2042 C2041 1.363 . S
C2042 C2048 1.428 . S
H2043 C2039 0.930 . S
H2044 C2041 0.929 . S
S2045 N2046 1.613 . S
S2045 N2047 1.610 . S
N2046 S2045 1.613 . S
N2046 C2049 1.350 . S
N2047 S2045 1.610 . S
N2047 C2048 1.351 . S
C2048 C2042 1.428 . S
C2048 N2047 1.351 . S
C2048 C2049 1.434 . S
C2049 C2040 1.429 . S
C2049 N2046 1.350 . S
C2049 C2048 1.434 . S
C2050 C2051 1.369 . S
C2050 C2052 1.419 1_545 S
C2050 H2054 0.930 . S
C2051 C2050 1.369 . S
C2051 C2060 1.429 . S
C2052 C2050 1.419 1_565 S
C2052 C2053 1.363 . S
C2052 H2055 0.929 . S
C2053 C2052 1.363 . S
C2053 C2059 1.428 . S
H2054 C2050 0.930 . S
H2055 C2052 0.929 . S
S2056 N2057 1.613 1_565 S
S2056 N2058 1.610 . S
N2057 S2056 1.613 1_545 S
N2057 C2060 1.350 . S
N2058 S2056 1.610 . S
N2058 C2059 1.351 . S
C2059 C2053 1.428 . S
C2059 N2058 1.351 . S
C2059 C2060 1.434 1_565 S
C2060 C2051 1.429 . S
C2060 N2057 1.350 . S
C2060 C2059 1.434 1_545 S
C2061 C2062 1.369 . S
C2061 C2063 1.419 . S
C2061 H2065 0.930 . S
C2062 C2061 1.369 . S
C2062 C2071 1.429 1_554 S
C2063 C2061 1.419 . S
C2063 C2064 1.363 1_554 S
C2063 H2066 0.929 . S
C2064 C2063 1.363 1_556 S
C2064 C2070 1.428 . S
H2065 C2061 0.930 . S
H2066 C2063 0.929 . S
S2067 N2068 1.613 . S
S2067 N2069 1.610 . S
N2068 S2067 1.613 . S
N2068 C2071 1.350 . S
N2069 S2067 1.610 . S
N2069 C2070 1.351 . S
C2070 C2064 1.428 . S
C2070 N2069 1.351 . S
C2070 C2071 1.434 . S
C2071 C2062 1.429 1_556 S
C2071 N2068 1.350 . S
C2071 C2070 1.434 . S
C2072 C2073 1.369 . S
C2072 C2074 1.419 . S
C2072 H2076 0.930 . S
C2073 C2072 1.369 . S
C2073 C2082 1.429 . S
C2074 C2072 1.419 . S
C2074 C2075 1.363 . S
C2074 H2077 0.929 . S
C2075 C2074 1.363 . S
C2075 C2081 1.428 . S
H2076 C2072 0.930 . S
H2077 C2074 0.929 . S
S2078 N2079 1.613 . S
S2078 N2080 1.610 . S
N2079 S2078 1.613 . S
N2079 C2082 1.350 . S
N2080 S2078 1.610 . S
N2080 C2081 1.351 . S
C2081 C2075 1.428 . S
C2081 N2080 1.351 . S
C2081 C2082 1.434 . S
C2082 C2073 1.429 . S
C2082 N2079 1.350 . S
C2082 C2081 1.434 . S
C2083 C2084 1.369 1_556 S
C2083 C2085 1.419 . S
C2083 H2087 0.930 . S
C2084 C2083 1.369 1_554 S
C2084 C2093 1.429 . S
C2085 C2083 1.419 . S
C2085 C2086 1.363 . S
C2085 H2088 0.929 . S
C2086 C2085 1.363 . S
C2086 C2092 1.428 1_556 S
H2087 C2083 0.930 . S
H2088 C2085 0.929 . S
S2089 N2090 1.613 . S
S2089 N2091 1.610 . S
N2090 S2089 1.613 . S
N2090 C2093 1.350 . S
N2091 S2089 1.610 . S
N2091 C2092 1.351 . S
C2092 C2086 1.428 1_554 S
C2092 N2091 1.351 . S
C2092 C2093 1.434 . S
C2093 C2084 1.429 . S
C2093 N2090 1.350 . S
C2093 C2092 1.434 . S
C2094 C2095 1.369 . S
C2094 C2096 1.419 . S
C2094 H2098 0.930 . S
C2095 C2094 1.369 . S
C2095 C2104 1.429 . S
C2096 C2094 1.419 . S
C2096 C2097 1.363 . S
C2096 H2099 0.929 . S
C2097 C2096 1.363 . S
C2097 C2103 1.428 . S
H2098 C2094 0.930 . S
H2099 C2096 0.929 . S
S2100 N2101 1.613 . S
S2100 N2102 1.610 . S
N2101 S2100 1.613 . S
N2101 C2104 1.350 . S
N2102 S2100 1.610 . S
N2102 C2103 1.351 . S
C2103 C2097 1.428 . S
C2103 N2102 1.351 . S
C2103 C2104 1.434 . S
C2104 C2095 1.429 . S
C2104 N2101 1.350 . S
C2104 C2103 1.434 . S
C2105 C2106 1.369 . S
C2105 C2107 1.419 . S
C2105 H2109 0.930 . S
C2106 C2105 1.369 . S
C2106 C2115 1.429 . S
C2107 C2105 1.419 . S
C2107 C2108 1.363 . S
C2107 H2110 0.929 . S
C2108 C2107 1.363 . S
C2108 C2114 1.428 . S
H2109 C2105 0.930 . S
H2110 C2107 0.929 . S
S2111 N2112 1.613 . S
S2111 N2113 1.610 . S
N2112 S2111 1.613 . S
N2112 C2115 1.350 . S
N2113 S2111 1.610 . S
N2113 C2114 1.351 . S
C2114 C2108 1.428 . S
C2114 N2113 1.351 . S
C2114 C2115 1.434 . S
C2115 C2106 1.429 . S
C2115 N2112 1.350 . S
C2115 C2114 1.434 . S
C2116 C2117 1.369 . S
C2116 C2118 1.419 . S
C2116 H2120 0.930 . S
C2117 C2116 1.369 . S
C2117 C2126 1.429 . S
C2118 C2116 1.419 . S
C2118 C2119 1.363 . S
C2118 H2121 0.929 . S
C2119 C2118 1.363 . S
C2119 C2125 1.428 . S
H2120 C2116 0.930 . S
H2121 C2118 0.929 . S
S2122 N2123 1.613 . S
S2122 N2124 1.610 . S
N2123 S2122 1.613 . S
N2123 C2126 1.350 . S
N2124 S2122 1.610 . S
N2124 C2125 1.351 . S
C2125 C2119 1.428 . S
C2125 N2124 1.351 . S
C2125 C2126 1.434 . S
C2126 C2117 1.429 . S
C2126 N2123 1.350 . S
C2126 C2125 1.434 . S
C2127 C2128 1.369 1_556 S
C2127 C2129 1.419 . S
C2127 H2131 0.930 . S
C2128 C2127 1.369 1_554 S
C2128 C2137 1.429 . S
C2129 C2127 1.419 . S
C2129 C2130 1.363 . S
C2129 H2132 0.929 . S
C2130 C2129 1.363 . S
C2130 C2136 1.428 1_556 S
H2131 C2127 0.930 . S
H2132 C2129 0.929 . S
S2133 N2134 1.613 . S
S2133 N2135 1.610 . S
N2134 S2133 1.613 . S
N2134 C2137 1.350 . S
N2135 S2133 1.610 . S
N2135 C2136 1.351 . S
C2136 C2130 1.428 1_554 S
C2136 N2135 1.351 . S
C2136 C2137 1.434 . S
C2137 C2128 1.429 . S
C2137 N2134 1.350 . S
C2137 C2136 1.434 . S
C2138 C2139 1.369 . S
C2138 C2140 1.419 . S
C2138 H2142 0.930 . S
C2139 C2138 1.369 . S
C2139 C2148 1.429 . S
C2140 C2138 1.419 . S
C2140 C2141 1.363 . S
C2140 H2143 0.929 . S
C2141 C2140 1.363 . S
C2141 C2147 1.428 . S
H2142 C2138 0.930 . S
H2143 C2140 0.929 . S
S2144 N2145 1.613 . S
S2144 N2146 1.610 . S
N2145 S2144 1.613 . S
N2145 C2148 1.350 . S
N2146 S2144 1.610 . S
N2146 C2147 1.351 . S
C2147 C2141 1.428 . S
C2147 N2146 1.351 . S
C2147 C2148 1.434 . S
C2148 C2139 1.429 . S
C2148 N2145 1.350 . S
C2148 C2147 1.434 . S
C2149 C2150 1.369 . S
C2149 C2151 1.419 . S
C2149 H2153 0.930 . S
C2150 C2149 1.369 . S
C2150 C2159 1.429 . S
C2151 C2149 1.419 . S
C2151 C2152 1.363 . S
C2151 H2154 0.929 . S
C2152 C2151 1.363 . S
C2152 C2158 1.428 . S
H2153 C2149 0.930 . S
H2154 C2151 0.929 . S
S2155 N2156 1.613 . S
S2155 N2157 1.610 . S
N2156 S2155 1.613 . S
N2156 C2159 1.350 . S
N2157 S2155 1.610 . S
N2157 C2158 1.351 . S
C2158 C2152 1.428 . S
C2158 N2157 1.351 . S
C2158 C2159 1.434 . S
C2159 C2150 1.429 . S
C2159 N2156 1.350 . S
C2159 C2158 1.434 . S
C2160 C2161 1.369 . S
C2160 C2162 1.419 . S
C2160 H2164 0.930 . S
C2161 C2160 1.369 . S
C2161 C2170 1.429 . S
C2162 C2160 1.419 . S
C2162 C2163 1.363 . S
C2162 H2165 0.929 . S
C2163 C2162 1.363 . S
C2163 C2169 1.428 . S
H2164 C2160 0.930 . S
H2165 C2162 0.929 . S
S2166 N2167 1.613 . S
S2166 N2168 1.610 . S
N2167 S2166 1.613 . S
N2167 C2170 1.350 . S
N2168 S2166 1.610 . S
N2168 C2169 1.351 . S
C2169 C2163 1.428 . S
C2169 N2168 1.351 . S
C2169 C2170 1.434 . S
C2170 C2161 1.429 . S
C2170 N2167 1.350 . S
C2170 C2169 1.434 . S
C2171 C2172 1.369 . S
C2171 C2173 1.419 . S
C2171 H2175 0.930 . S
C2172 C2171 1.369 . S
C2172 C2181 1.429 . S
C2173 C2171 1.419 . S
C2173 C2174 1.363 . S
C2173 H2176 0.929 . S
C2174 C2173 1.363 . S
C2174 C2180 1.428 . S
H2175 C2171 0.930 . S
H2176 C2173 0.929 . S
S2177 N2178 1.613 . S
S2177 N2179 1.610 . S
N2178 S2177 1.613 . S
N2178 C2181 1.350 . S
N2179 S2177 1.610 . S
N2179 C2180 1.351 . S
C2180 C2174 1.428 . S
C2180 N2179 1.351 . S
C2180 C2181 1.434 . S
C2181 C2172 1.429 . S
C2181 N2178 1.350 . S
C2181 C2180 1.434 . S
C2182 C2183 1.369 . S
C2182 C2184 1.419 . S
C2182 H2186 0.930 . S
C2183 C2182 1.369 . S
C2183 C2192 1.429 . S
C2184 C2182 1.419 . S
C2184 C2185 1.363 . S
C2184 H2187 0.929 . S
C2185 C2184 1.363 . S
C2185 C2191 1.428 . S
H2186 C2182 0.930 . S
H2187 C2184 0.929 . S
S2188 N2189 1.613 . S
S2188 N2190 1.610 . S
N2189 S2188 1.613 . S
N2189 C2192 1.350 . S
N2190 S2188 1.610 . S
N2190 C2191 1.351 . S
C2191 C2185 1.428 . S
C2191 N2190 1.351 . S
C2191 C2192 1.434 . S
C2192 C2183 1.429 . S
C2192 N2189 1.350 . S
C2192 C2191 1.434 . S
C2193 C2194 1.369 . S
C2193 C2195 1.419 . S
C2193 H2197 0.930 . S
C2194 C2193 1.369 . S
C2194 C2203 1.429 . S
C2195 C2193 1.419 . S
C2195 C2196 1.363 . S
C2195 H2198 0.929 . S
C2196 C2195 1.363 . S
C2196 C2202 1.428 . S
H2197 C2193 0.930 . S
H2198 C2195 0.929 . S
S2199 N2200 1.613 . S
S2199 N2201 1.610 . S
N2200 S2199 1.613 . S
N2200 C2203 1.350 . S
N2201 S2199 1.610 . S
N2201 C2202 1.351 . S
C2202 C2196 1.428 . S
C2202 N2201 1.351 . S
C2202 C2203 1.434 . S
C2203 C2194 1.429 . S
C2203 N2200 1.350 . S
C2203 C2202 1.434 . S
C2204 C2205 1.369 . S
C2204 C2206 1.419 . S
C2204 H2208 0.930 . S
C2205 C2204 1.369 . S
C2205 C2214 1.429 . S
C2206 C2204 1.419 . S
C2206 C2207 1.363 . S
C2206 H2209 0.929 . S
C2207 C2206 1.363 . S
C2207 C2213 1.428 . S
H2208 C2204 0.930 . S
H2209 C2206 0.929 . S
S2210 N2211 1.613 . S
S2210 N2212 1.610 . S
N2211 S2210 1.613 . S
N2211 C2214 1.350 . S
N2212 S2210 1.610 . S
N2212 C2213 1.351 . S
C2213 C2207 1.428 . S
C2213 N2212 1.351 . S
C2213 C2214 1.434 . S
C2214 C2205 1.429 . S
C2214 N2211 1.350 . S
C2214 C2213 1.434 . S
C2215 C2216 1.369 . S
C2215 C2217 1.419 . S
C2215 H2219 0.930 . S
C2216 C2215 1.369 . S
C2216 C2225 1.429 . S
C2217 C2215 1.419 . S
C2217 C2218 1.363 . S
C2217 H2220 0.929 . S
C2218 C2217 1.363 . S
C2218 C2224 1.428 . S
H2219 C2215 0.930 . S
H2220 C2217 0.929 . S
S2221 N2222 1.613 . S
S2221 N2223 1.610 . S
N2222 S2221 1.613 . S
N2222 C2225 1.350 . S
N2223 S2221 1.610 . S
N2223 C2224 1.351 . S
C2224 C2218 1.428 . S
C2224 N2223 1.351 . S
C2224 C2225 1.434 . S
C2225 C2216 1.429 . S
C2225 N2222 1.350 . S
C2225 C2224 1.434 . S
C2226 C2227 1.369 . S
C2226 C2228 1.419 . S
C2226 H2230 0.930 . S
C2227 C2226 1.369 . S
C2227 C2236 1.429 . S
C2228 C2226 1.419 . S
C2228 C2229 1.363 . S
C2228 H2231 0.929 . S
C2229 C2228 1.363 . S
C2229 C2235 1.428 . S
H2230 C2226 0.930 . S
H2231 C2228 0.929 . S
S2232 N2233 1.613 . S
S2232 N2234 1.610 . S
N2233 S2232 1.613 . S
N2233 C2236 1.350 . S
N2234 S2232 1.610 . S
N2234 C2235 1.351 . S
C2235 C2229 1.428 . S
C2235 N2234 1.351 . S
C2235 C2236 1.434 . S
C2236 C2227 1.429 . S
C2236 N2233 1.350 . S
C2236 C2235 1.434 . S
C2237 C2238 1.369 . S
C2237 C2239 1.419 . S
C2237 H2241 0.930 . S
C2238 C2237 1.369 . S
C2238 C2247 1.429 . S
C2239 C2237 1.419 . S
C2239 C2240 1.363 . S
C2239 H2242 0.929 . S
C2240 C2239 1.363 . S
C2240 C2246 1.428 . S
H2241 C2237 0.930 . S
H2242 C2239 0.929 . S
S2243 N2244 1.613 . S
S2243 N2245 1.610 . S
N2244 S2243 1.613 . S
N2244 C2247 1.350 . S
N2245 S2243 1.610 . S
N2245 C2246 1.351 . S
C2246 C2240 1.428 . S
C2246 N2245 1.351 . S
C2246 C2247 1.434 . S
C2247 C2238 1.429 . S
C2247 N2244 1.350 . S
C2247 C2246 1.434 . S
C2248 C2249 1.369 . S
C2248 C2250 1.419 . S
C2248 H2252 0.930 . S
C2249 C2248 1.369 . S
C2249 C2258 1.429 . S
C2250 C2248 1.419 . S
C2250 C2251 1.363 . S
C2250 H2253 0.929 . S
C2251 C2250 1.363 . S
C2251 C2257 1.428 . S
H2252 C2248 0.930 . S
H2253 C2250 0.929 . S
S2254 N2255 1.613 . S
S2254 N2256 1.610 . S
N2255 S2254 1.613 . S
N2255 C2258 1.350 . S
N2256 S2254 1.610 . S
N2256 C2257 1.351 . S
C2257 C2251 1.428 . S
C2257 N2256 1.351 . S
C2257 C2258 1.434 . S
C2258 C2249 1.429 . S
C2258 N2255 1.350 . S
C2258 C2257 1.434 . S
C2259 C2260 1.369 . S
C2259 C2261 1.419 . S
C2259 H2263 0.930 . S
C2260 C2259 1.369 . S
C2260 C2269 1.429 . S
C2261 C2259 1.419 . S
C2261 C2262 1.363 . S
C2261 H2264 0.929 . S
C2262 C2261 1.363 . S
C2262 C2268 1.428 . S
H2263 C2259 0.930 . S
H2264 C2261 0.929 . S
S2265 N2266 1.613 . S
S2265 N2267 1.610 . S
N2266 S2265 1.613 . S
N2266 C2269 1.350 . S
N2267 S2265 1.610 . S
N2267 C2268 1.351 . S
C2268 C2262 1.428 . S
C2268 N2267 1.351 . S
C2268 C2269 1.434 . S
C2269 C2260 1.429 . S
C2269 N2266 1.350 . S
C2269 C2268 1.434 . S
C2270 C2271 1.369 . S
C2270 C2272 1.419 . S
C2270 H2274 0.930 . S
C2271 C2270 1.369 . S
C2271 C2280 1.429 . S
C2272 C2270 1.419 . S
C2272 C2273 1.363 . S
C2272 H2275 0.929 . S
C2273 C2272 1.363 . S
C2273 C2279 1.428 . S
H2274 C2270 0.930 . S
H2275 C2272 0.929 . S
S2276 N2277 1.613 . S
S2276 N2278 1.610 . S
N2277 S2276 1.613 . S
N2277 C2280 1.350 . S
N2278 S2276 1.610 . S
N2278 C2279 1.351 . S
C2279 C2273 1.428 . S
C2279 N2278 1.351 . S
C2279 C2280 1.434 . S
C2280 C2271 1.429 . S
C2280 N2277 1.350 . S
C2280 C2279 1.434 . S
C2281 C2282 1.369 . S
C2281 C2283 1.419 . S
C2281 H2285 0.930 . S
C2282 C2281 1.369 . S
C2282 C2291 1.429 . S
C2283 C2281 1.419 . S
C2283 C2284 1.363 . S
C2283 H2286 0.929 . S
C2284 C2283 1.363 . S
C2284 C2290 1.428 . S
H2285 C2281 0.930 . S
H2286 C2283 0.929 . S
S2287 N2288 1.613 . S
S2287 N2289 1.610 . S
N2288 S2287 1.613 . S
N2288 C2291 1.350 . S
N2289 S2287 1.610 . S
N2289 C2290 1.351 . S
C2290 C2284 1.428 . S
C2290 N2289 1.351 . S
C2290 C2291 1.434 . S
C2291 C2282 1.429 . S
C2291 N2288 1.350 . S
C2291 C2290 1.434 . S
C2292 C2293 1.369 . S
C2292 C2294 1.419 . S
C2292 H2296 0.930 . S
C2293 C2292 1.369 . S
C2293 C2302 1.429 . S
C2294 C2292 1.419 . S
C2294 C2295 1.363 . S
C2294 H2297 0.929 . S
C2295 C2294 1.363 . S
C2295 C2301 1.428 . S
H2296 C2292 0.930 . S
H2297 C2294 0.929 . S
S2298 N2299 1.613 . S
S2298 N2300 1.610 . S
N2299 S2298 1.613 . S
N2299 C2302 1.350 . S
N2300 S2298 1.610 . S
N2300 C2301 1.351 . S
C2301 C2295 1.428 . S
C2301 N2300 1.351 . S
C2301 C2302 1.434 . S
C2302 C2293 1.429 . S
C2302 N2299 1.350 . S
C2302 C2301 1.434 . S
C2303 C2304 1.369 . S
C2303 C2305 1.419 . S
C2303 H2307 0.930 . S
C2304 C2303 1.369 . S
C2304 C2313 1.429 . S
C2305 C2303 1.419 . S
C2305 C2306 1.363 . S
C2305 H2308 0.929 . S
C2306 C2305 1.363 . S
C2306 C2312 1.428 . S
H2307 C2303 0.930 . S
H2308 C2305 0.929 . S
S2309 N2310 1.613 . S
S2309 N2311 1.610 . S
N2310 S2309 1.613 . S
N2310 C2313 1.350 . S
N2311 S2309 1.610 . S
N2311 C2312 1.351 . S
C2312 C2306 1.428 . S
C2312 N2311 1.351 . S
C2312 C2313 1.434 . S
C2313 C2304 1.429 . S
C2313 N2310 1.350 . S
C2313 C2312 1.434 . S
C2314 C2315 1.369 . S
C2314 C2316 1.419 . S
C2314 H2318 0.930 . S
C2315 C2314 1.369 . S
C2315 C2324 1.429 . S
C2316 C2314 1.419 . S
C2316 C2317 1.363 . S
C2316 H2319 0.929 . S
C2317 C2316 1.363 . S
C2317 C2323 1.428 . S
H2318 C2314 0.930 . S
H2319 C2316 0.929 . S
S2320 N2321 1.613 . S
S2320 N2322 1.610 . S
N2321 S2320 1.613 . S
N2321 C2324 1.350 . S
N2322 S2320 1.610 . S
N2322 C2323 1.351 . S
C2323 C2317 1.428 . S
C2323 N2322 1.351 . S
C2323 C2324 1.434 . S
C2324 C2315 1.429 . S
C2324 N2321 1.350 . S
C2324 C2323 1.434 . S
C2325 C2326 1.369 . S
C2325 C2327 1.419 . S
C2325 H2329 0.930 . S
C2326 C2325 1.369 . S
C2326 C2335 1.429 . S
C2327 C2325 1.419 . S
C2327 C2328 1.363 . S
C2327 H2330 0.929 . S
C2328 C2327 1.363 . S
C2328 C2334 1.428 . S
H2329 C2325 0.930 . S
H2330 C2327 0.929 . S
S2331 N2332 1.613 . S
S2331 N2333 1.610 . S
N2332 S2331 1.613 . S
N2332 C2335 1.350 . S
N2333 S2331 1.610 . S
N2333 C2334 1.351 . S
C2334 C2328 1.428 . S
C2334 N2333 1.351 . S
C2334 C2335 1.434 . S
C2335 C2326 1.429 . S
C2335 N2332 1.350 . S
C2335 C2334 1.434 . S
C1281 C6 1.087 . S
C1283 C139 1.027 . S
C1292 C19 1.028 . S
C1294 C46 1.087 . S
C1303 C86 1.086 . S
C1305 C59 1.040 . S
C1314 C99 1.029 . S
C1316 C126 1.086 . S
C1325 C219 1.030 . S
C1327 C166 1.086 . S
C1336 C206 1.086 . S
C1338 C259 1.027 . S
C1347 C299 1.034 . S
C1349 C246 1.086 . S
C1358 C179 1.041 . S
C1360 C286 1.086 . S
C1369 C335 1.087 . S
C1371 C450 1.037 . S
C1380 C375 1.085 . S
C1382 C330 1.037 . S
C1391 C415 1.085 . S
C1393 C370 1.034 . S
C1402 C455 1.087 . S
C1404 C410 1.028 . S
C1413 C495 1.085 . S
C1415 C530 1.035 . S
C1424 C535 1.086 . S
C1426 C570 1.039 . S
C1435 C610 1.028 . S
C1437 C575 1.087 . S
C1446 C490 1.041 . S
C1448 C615 1.086 . S
C1457 C646 1.085 . S
C1459 C779 1.038 . S
C1468 C659 1.040 . S
C1470 C686 1.087 . S
C1479 C699 1.039 . S
C1481 C726 1.087 . S
C1490 C766 1.086 . S
C1492 C739 1.028 . S
C1501 C806 1.087 . S
C1503 C859 1.028 . S
C1512 C899 1.039 . S
C1514 C846 1.087 . S
C1523 C886 1.086 . S
C1525 C939 1.030 . S
C1534 C819 1.041 . S
C1536 C926 1.086 . S
C1545 C1090 1.038 . S
C1547 C975 1.086 . S
C1556 C970 1.041 . S
C1558 C1015 1.086 . S
C1567 C1055 1.088 . S
C1569 C1010 1.034 . S
C1578 C1050 1.041 . S
C1580 C1095 1.087 . S
C1589 C1170 1.039 . S
C1591 C1135 1.087 . S
C1600 C1210 1.029 . S
C1602 C1175 1.086 . S
C1611 C1250 1.026 . S
C1613 C1215 1.086 . S
C1622 C1255 1.087 . S
C1624 C1130 1.027 . S
C1633 C1086 1.644 . S
C1635 C9 1.561 . S
C1644 C49 1.563 . S
C1646 C326 1.642 . S
C1655 C89 1.556 . S
C1657 C1006 1.643 . S
C1666 C129 1.565 . S
C1668 C406 1.642 . S
C1677 C169 1.555 . S
C1679 C1166 1.644 . S
C1688 C566 1.643 . S
C1690 C209 1.562 . S
C1699 C1246 1.644 . S
C1701 C249 1.556 . S
C1710 C289 1.554 . S
C1712 C486 1.647 . S
C1721 C338 1.554 . S
C1723 C775 1.646 . S
C1732 C15 1.643 . S
C1734 C378 1.557 . S
C1743 C695 1.647 . S
C1745 C418 1.554 . S
C1754 C95 1.643 . S
C1756 C458 1.557 . S
C1765 C855 1.647 . S
C1767 C498 1.554 . S
C1776 C255 1.647 . S
C1778 C538 1.555 . S
C1787 C578 1.562 . S
C1789 C935 1.641 . S
C1798 C618 1.562 . S
C1800 C175 1.645 . S
C1809 C649 1.561 . S
C1811 C446 1.644 . S
C1820 C689 1.565 . S
C1822 C966 1.642 . S
C1831 C729 1.556 . S
C1833 C366 1.643 . S
C1842 C769 1.553 . S
C1844 C1046 1.646 . S
C1853 C809 1.561 . S
C1855 C526 1.641 . S
C1864 C849 1.559 . S
C1866 C1206 1.643 . S
C1875 C606 1.642 . S
C1877 C889 1.563 . S
C1886 C929 1.557 . S
C1888 C1126 1.646 . S
C1897 C135 1.644 . S
C1899 C978 1.555 . S
C1908 C655 1.641 . S
C1910 C1018 1.563 . S
C1919 C55 1.641 . S
C1921 C1058 1.563 . S
C1930 C735 1.647 . S
C1932 C1098 1.556 . S
C1941 C215 1.647 . S
C1943 C1138 1.556 . S
C1952 C1178 1.565 . S
C1954 C895 1.642 . S
C1963 C1218 1.554 . S
C1965 C295 1.646 . S
C1974 C815 1.646 . S
C1976 C1258 1.559 . S
C1985 C18 1.346 . S
C1987 C178 1.339 . S
C1996 C58 1.348 . S
C1998 C218 1.340 . S
C2007 C98 1.339 . S
C2009 C258 1.346 . S
C2018 C298 1.339 . S
C2020 C138 1.340 . S
C2029 C489 1.348 . S
C2031 C329 1.343 . S
C2040 C529 1.345 . S
C2042 C369 1.339 . S
C2051 C409 1.348 . S
C2053 C569 1.340 . S
C2062 C449 1.337 . S
C2064 C609 1.344 . S
C2073 C658 1.338 . S
C2075 C818 1.346 . S
C2084 C858 1.349 . S
C2086 C698 1.343 . S
C2095 C898 1.337 . S
C2097 C738 1.344 . S
C2106 C938 1.341 . S
C2108 C778 1.348 . S
C2117 C1129 1.339 . S
C2119 C969 1.347 . S
C2128 C1009 1.349 . S
C2130 C1169 1.341 . S
C2139 C1209 1.348 . S
C2141 C1049 1.340 . S
C2150 C1089 1.348 . S
C2152 C1249 1.345 . S
C2161 C290 2.663 . S
C2163 C10 2.662 . S
C2172 C50 2.662 . S
C2174 C170 2.663 . S
C2183 C90 2.664 . S
C2185 C210 2.663 . S
C2194 C250 2.664 . S
C2196 C130 2.662 . S
C2205 C339 2.663 . S
C2207 C619 2.662 . S
C2216 C499 2.662 . S
C2218 C379 2.663 . S
C2227 C539 2.662 . S
C2229 C419 2.664 . S
C2238 C459 2.662 . S
C2240 C579 2.664 . S
C2249 C650 2.664 . S
C2251 C930 2.662 . S
C2260 C810 2.662 . S
C2262 C690 2.663 . S
C2271 C850 2.662 . S
C2273 C730 2.663 . S
C2282 C890 2.663 . S
C2284 C770 2.662 . S
C2293 C979 2.662 . S
C2295 C1259 2.663 . S
C2304 C1139 2.664 . S
C2306 C1019 2.663 . S
C2315 C1059 2.664 . S
C2317 C1179 2.662 . S
C2326 C1219 2.664 . S
C2328 C1099 2.663 . S
