# Generated by pormake.
# Topology cds-f, (5)-cn, num edge types: 1
# Building blocks:
#     Node 0, Type 0, BuildingBlock: XOMCOT_clean_sbu_1, # of connection points: 5
#     Node 1, Type 0, BuildingBlock: XOMCOT_clean_sbu_1, # of connection points: 5
#     Node 2, Type 0, BuildingBlock: XOMCOT_clean_sbu_1, # of connection points: 5
#     Node 3, Type 0, BuildingBlock: XOMCOT_clean_sbu_1, # of connection points: 5
#     Node 4, Type 0, BuildingBlock: XOMCOT_clean_sbu_1, # of connection points: 5
#     Node 5, Type 0, BuildingBlock: XOMCOT_clean_sbu_1, # of connection points: 5
#     Node 6, Type 0, BuildingBlock: XOMCOT_clean_sbu_1, # of connection points: 5
#     Node 7, Type 0, BuildingBlock: XOMCOT_clean_sbu_1, # of connection points: 5
#     Node 8, Type 0, BuildingBlock: XOMCOT_clean_sbu_1, # of connection points: 5
#     Node 9, Type 0, BuildingBlock: XOMCOT_clean_sbu_1, # of connection points: 5
#     Node 10, Type 0, BuildingBlock: XOMCOT_clean_sbu_1, # of connection points: 5
#     Node 11, Type 0, BuildingBlock: XOMCOT_clean_sbu_1, # of connection points: 5
#     Node 12, Type 0, BuildingBlock: XOMCOT_clean_sbu_1, # of connection points: 5
#     Node 13, Type 0, BuildingBlock: XOMCOT_clean_sbu_1, # of connection points: 5
#     Node 14, Type 0, BuildingBlock: XOMCOT_clean_sbu_1, # of connection points: 5
#     Node 15, Type 0, BuildingBlock: XOMCOT_clean_sbu_1, # of connection points: 5
#     Edge 16, Type (0, 0), BuildingBlock: CIFDUS_clean_linker_0, # of connection points: 2
#     Edge 17, Type (0, 0), BuildingBlock: CIFDUS_clean_linker_0, # of connection points: 2
#     Edge 18, Type (0, 0), BuildingBlock: CIFDUS_clean_linker_0, # of connection points: 2
#     Edge 19, Type (0, 0), BuildingBlock: CIFDUS_clean_linker_0, # of connection points: 2
#     Edge 20, Type (0, 0), BuildingBlock: CIFDUS_clean_linker_0, # of connection points: 2
#     Edge 21, Type (0, 0), BuildingBlock: CIFDUS_clean_linker_0, # of connection points: 2
#     Edge 22, Type (0, 0), BuildingBlock: CIFDUS_clean_linker_0, # of connection points: 2
#     Edge 23, Type (0, 0), BuildingBlock: CIFDUS_clean_linker_0, # of connection points: 2
#     Edge 24, Type (0, 0), BuildingBlock: CIFDUS_clean_linker_0, # of connection points: 2
#     Edge 25, Type (0, 0), BuildingBlock: CIFDUS_clean_linker_0, # of connection points: 2
#     Edge 26, Type (0, 0), BuildingBlock: CIFDUS_clean_linker_0, # of connection points: 2
#     Edge 27, Type (0, 0), BuildingBlock: CIFDUS_clean_linker_0, # of connection points: 2
#     Edge 28, Type (0, 0), BuildingBlock: CIFDUS_clean_linker_0, # of connection points: 2
#     Edge 29, Type (0, 0), BuildingBlock: CIFDUS_clean_linker_0, # of connection points: 2
#     Edge 30, Type (0, 0), BuildingBlock: CIFDUS_clean_linker_0, # of connection points: 2
#     Edge 31, Type (0, 0), BuildingBlock: CIFDUS_clean_linker_0, # of connection points: 2
#     Edge 32, Type (0, 0), BuildingBlock: CIFDUS_clean_linker_0, # of connection points: 2
#     Edge 33, Type (0, 0), BuildingBlock: CIFDUS_clean_linker_0, # of connection points: 2
#     Edge 34, Type (0, 0), BuildingBlock: CIFDUS_clean_linker_0, # of connection points: 2
#     Edge 35, Type (0, 0), BuildingBlock: CIFDUS_clean_linker_0, # of connection points: 2
#     Edge 36, Type (0, 0), BuildingBlock: CIFDUS_clean_linker_0, # of connection points: 2
#     Edge 37, Type (0, 0), BuildingBlock: CIFDUS_clean_linker_0, # of connection points: 2
#     Edge 38, Type (0, 0), BuildingBlock: CIFDUS_clean_linker_0, # of connection points: 2
#     Edge 39, Type (0, 0), BuildingBlock: CIFDUS_clean_linker_0, # of connection points: 2
#     Edge 40, Type (0, 0), BuildingBlock: CIFDUS_clean_linker_0, # of connection points: 2
#     Edge 41, Type (0, 0), BuildingBlock: CIFDUS_clean_linker_0, # of connection points: 2
#     Edge 42, Type (0, 0), BuildingBlock: CIFDUS_clean_linker_0, # of connection points: 2
#     Edge 43, Type (0, 0), BuildingBlock: CIFDUS_clean_linker_0, # of connection points: 2
#     Edge 44, Type (0, 0), BuildingBlock: CIFDUS_clean_linker_0, # of connection points: 2
#     Edge 45, Type (0, 0), BuildingBlock: CIFDUS_clean_linker_0, # of connection points: 2
#     Edge 46, Type (0, 0), BuildingBlock: CIFDUS_clean_linker_0, # of connection points: 2
#     Edge 47, Type (0, 0), BuildingBlock: CIFDUS_clean_linker_0, # of connection points: 2
#     Edge 48, Type (0, 0), BuildingBlock: CIFDUS_clean_linker_0, # of connection points: 2
#     Edge 49, Type (0, 0), BuildingBlock: CIFDUS_clean_linker_0, # of connection points: 2
#     Edge 50, Type (0, 0), BuildingBlock: CIFDUS_clean_linker_0, # of connection points: 2
#     Edge 51, Type (0, 0), BuildingBlock: CIFDUS_clean_linker_0, # of connection points: 2
#     Edge 52, Type (0, 0), BuildingBlock: CIFDUS_clean_linker_0, # of connection points: 2
#     Edge 53, Type (0, 0), BuildingBlock: CIFDUS_clean_linker_0, # of connection points: 2
#     Edge 54, Type (0, 0), BuildingBlock: CIFDUS_clean_linker_0, # of connection points: 2
#     Edge 55, Type (0, 0), BuildingBlock: CIFDUS_clean_linker_0, # of connection points: 2
# Relax obj value: 0.232
# Max RMSD: 0.183
# Mean RMSD: 0.175
data_MOF--net-cds-f--node1-XOMCOT_clean_sbu_1--edge1-CIFDUS_clean_linker_0
_symmetry_space_group_name_H-M    P1
_symmetry_Int_Tables_number       1
_symmetry_cell_setting            triclinic
loop_
_symmetry_equiv_pos_as_xyz
'x, y, z'
_cell_length_a     32.158803
_cell_length_b     32.082312
_cell_length_c     49.305792
_cell_angle_alpha  92.065283
_cell_angle_beta   89.458086
_cell_angle_gamma 91.215777
loop_
_atom_site_label
_atom_site_type_symbol
_atom_site_fract_x
_atom_site_fract_y
_atom_site_fract_z
_atom_type_partial_charge
C0 C 0.32938 0.17784 0.16412 0.0
C1 C 0.37217 0.17602 0.1645 0.0
N2 N 0.38834 0.21397 0.15916 0.0
N3 N 0.31763 0.21676 0.15839 0.0
C4 C 0.35456 0.2378 0.15544 0.0
H5 H 0.30818 0.15198 0.16771 0.0
Co6 Co 0.26094 0.23687 0.15764 0.0
C7 C 0.26712 0.18373 0.10485 0.0
O8 O 0.30204 0.16558 0.11036 0.0
N9 N 0.20479 0.25618 0.15661 0.0
C10 C 0.148 0.29482 0.15362 0.0
C11 C 0.19082 0.29538 0.15405 0.0
C12 C 0.16921 0.2325 0.15777 0.0
N13 N 0.13441 0.25529 0.15613 0.0
O14 O 0.24058 0.19126 0.17873 0.0
H15 H 0.21005 0.32323 0.1529 0.0
H16 H 0.1686 0.19912 0.16023 0.0
O17 O 0.25044 0.20876 0.12237 0.0
C18 C 0.251 0.19721 0.20359 0.0
O19 O 0.28304 0.22208 0.20897 0.0
N20 N 0.27959 0.28486 0.14117 0.0
C21 C 0.29293 0.36786 0.12897 0.0
C22 C 0.28239 0.33813 0.10839 0.0
C23 C 0.27595 0.29632 0.11491 0.0
C24 C 0.29154 0.31303 0.16104 0.0
C25 C 0.29898 0.35452 0.15533 0.0
H26 H 0.26534 0.27426 0.09933 0.0
H27 H 0.29308 0.30337 0.18179 0.0
H28 H 0.35686 0.27032 0.15093 0.0
H29 H 0.38969 0.1485 0.16836 0.0
H30 H 0.12828 0.32167 0.15271 0.0
H31 H 0.27716 0.3475 0.08783 0.0
H32 H 0.3061 0.37649 0.17193 0.0
C33 C 0.72134 0.33702 0.66633 0.0
C34 C 0.7256 0.3796 0.67 0.0
N35 N 0.76547 0.39059 0.66512 0.0
N36 N 0.75812 0.32059 0.6586 0.0
C37 C 0.78481 0.35407 0.65919 0.0
H38 H 0.69267 0.31916 0.66845 0.0
Co39 Co 0.7632 0.26198 0.65065 0.0
C40 C 0.81824 0.29561 0.60231 0.0
O41 O 0.81457 0.33572 0.60739 0.0
N42 N 0.76711 0.203 0.64339 0.0
C43 C 0.76846 0.14271 0.61936 0.0
C44 C 0.76651 0.18531 0.61811 0.0
C45 C 0.76818 0.16979 0.65981 0.0
N46 N 0.76945 0.13277 0.6456 0.0
O47 O 0.80664 0.26006 0.67751 0.0
H48 H 0.76269 0.20222 0.59978 0.0
H49 H 0.76742 0.17239 0.68173 0.0
O50 O 0.80155 0.26947 0.61858 0.0
C51 C 0.78561 0.25353 0.69927 0.0
O52 O 0.74495 0.24971 0.69724 0.0
N53 N 0.71724 0.26328 0.6277 0.0
C54 C 0.63958 0.27167 0.60423 0.0
C55 C 0.67433 0.294 0.59462 0.0
C56 C 0.71297 0.28955 0.60677 0.0
C57 C 0.68414 0.24016 0.63656 0.0
C58 C 0.64514 0.2436 0.62498 0.0
H59 H 0.73835 0.30949 0.6006 0.0
H60 H 0.6875 0.22069 0.65383 0.0
H61 H 0.81787 0.35193 0.65534 0.0
H62 H 0.70073 0.40106 0.67452 0.0
H63 H 0.76713 0.12056 0.60229 0.0
H64 H 0.6713 0.3162 0.57876 0.0
H65 H 0.61906 0.22652 0.63356 0.0
C66 C 0.84656 0.74926 0.10804 0.0
C67 C 0.88919 0.75173 0.10559 0.0
N68 N 0.90427 0.77581 0.12634 0.0
N69 N 0.83429 0.77167 0.13024 0.0
C70 C 0.87019 0.78799 0.14078 0.0
H71 H 0.82592 0.73068 0.09506 0.0
Co72 Co 0.77822 0.77386 0.14278 0.0
C73 C 0.80116 0.78691 0.2021 0.0
O74 O 0.79117 0.74796 0.20655 0.0
N75 N 0.72031 0.77723 0.15491 0.0
C76 C 0.66238 0.77606 0.18046 0.0
C77 C 0.7049 0.77349 0.18036 0.0
C78 C 0.68536 0.78212 0.13992 0.0
N79 N 0.64972 0.78152 0.15498 0.0
O80 O 0.77362 0.82557 0.12463 0.0
H81 H 0.72244 0.76789 0.19814 0.0
H82 H 0.68572 0.78558 0.11824 0.0
O83 O 0.79637 0.80191 0.17842 0.0
C84 C 0.76298 0.81076 0.10114 0.0
O85 O 0.75525 0.77039 0.09839 0.0
N86 N 0.78264 0.7192 0.15547 0.0
C87 C 0.78972 0.63438 0.16349 0.0
C88 C 0.82261 0.66173 0.17006 0.0
C89 C 0.81899 0.70386 0.16505 0.0
C90 C 0.75093 0.69223 0.14815 0.0
C91 C 0.75367 0.64969 0.15224 0.0
H92 H 0.84519 0.72431 0.16974 0.0
H93 H 0.72399 0.70316 0.13787 0.0
H94 H 0.87145 0.80702 0.15932 0.0
H95 H 0.90774 0.73497 0.09055 0.0
H96 H 0.6423 0.77239 0.19798 0.0
H97 H 0.8513 0.65042 0.17818 0.0
H98 H 0.72824 0.62881 0.14616 0.0
C99 C 0.33083 0.7288 0.65881 0.0
C100 C 0.33149 0.68719 0.66427 0.0
N101 N 0.29293 0.6707 0.66128 0.0
N102 N 0.29216 0.73969 0.65181 0.0
C103 C 0.26934 0.70344 0.65423 0.0
H104 H 0.35737 0.75005 0.65976 0.0
Co105 Co 0.28343 0.79759 0.64362 0.0
C106 C 0.22726 0.75581 0.59869 0.0
O107 O 0.23408 0.71648 0.60306 0.0
N108 N 0.27584 0.85563 0.63612 0.0
C109 C 0.27153 0.9129 0.61199 0.0
C110 C 0.27365 0.87016 0.61082 0.0
C111 C 0.2756 0.89092 0.65239 0.0
N112 N 0.2728 0.92633 0.63817 0.0
O113 O 0.24254 0.80174 0.67209 0.0
H114 H 0.27594 0.85103 0.59241 0.0
H115 H 0.27845 0.8909 0.6742 0.0
O116 O 0.24334 0.78438 0.61435 0.0
C117 C 0.26522 0.81283 0.69245 0.0
O118 O 0.30568 0.81571 0.68858 0.0
N119 N 0.32725 0.79543 0.61836 0.0
C120 C 0.40498 0.78684 0.59429 0.0
C121 C 0.3721 0.75994 0.58638 0.0
C122 C 0.33301 0.76491 0.59869 0.0
C123 C 0.35838 0.82345 0.6247 0.0
C124 C 0.39715 0.82036 0.61238 0.0
H125 H 0.30911 0.74166 0.59447 0.0
H126 H 0.35426 0.84638 0.64105 0.0
H127 H 0.23601 0.70117 0.6516 0.0
H128 H 0.35875 0.67012 0.66958 0.0
H129 H 0.27135 0.93264 0.59465 0.0
H130 H 0.37755 0.73306 0.57298 0.0
H131 H 0.42216 0.84118 0.61929 0.0
C132 C 0.32154 0.75491 0.86614 0.0
C133 C 0.36435 0.75438 0.86534 0.0
N134 N 0.37936 0.78169 0.88446 0.0
N135 N 0.30895 0.7822 0.88577 0.0
C136 C 0.34488 0.79815 0.89656 0.0
H137 H 0.30076 0.73644 0.85319 0.0
Co138 Co 0.25218 0.79301 0.89309 0.0
C139 C 0.24671 0.82259 0.95055 0.0
O140 O 0.21144 0.80132 0.9517 0.0
N141 N 0.19415 0.80487 0.89964 0.0
C142 C 0.13811 0.84393 0.90631 0.0
C143 C 0.18083 0.84393 0.90518 0.0
C144 C 0.15829 0.78176 0.89712 0.0
N145 N 0.12365 0.80478 0.90107 0.0
O146 O 0.25679 0.84121 0.87076 0.0
H147 H 0.2011 0.87105 0.90797 0.0
H148 H 0.15718 0.74901 0.89146 0.0
O149 O 0.26735 0.82316 0.92805 0.0
C150 C 0.23936 0.82716 0.84884 0.0
O151 O 0.22239 0.7896 0.84872 0.0
N152 N 0.24786 0.74215 0.90984 0.0
C153 C 0.25553 0.65671 0.91619 0.0
C154 C 0.27334 0.6855 0.93515 0.0
C155 C 0.26973 0.72847 0.93134 0.0
C156 C 0.23067 0.7144 0.89153 0.0
C157 C 0.2338 0.67201 0.89434 0.0
H158 H 0.28705 0.75016 0.94435 0.0
H159 H 0.21738 0.72509 0.87314 0.0
H160 H 0.3457 0.82186 0.91271 0.0
H161 H 0.38284 0.73479 0.85184 0.0
H162 H 0.11934 0.87099 0.91061 0.0
H163 H 0.2913 0.67504 0.95198 0.0
H164 H 0.22157 0.65156 0.87824 0.0
C165 C 0.29412 0.18595 0.42503 0.0
C166 C 0.29621 0.14296 0.42316 0.0
N167 N 0.26552 0.12828 0.40684 0.0
N168 N 0.2621 0.19852 0.41005 0.0
C169 C 0.24516 0.16247 0.39939 0.0
H170 H 0.31509 0.20678 0.43626 0.0
Co171 Co 0.24617 0.25451 0.40531 0.0
C172 C 0.20383 0.25118 0.35094 0.0
O173 O 0.20988 0.29137 0.34804 0.0
N174 N 0.22915 0.3113 0.40087 0.0
C175 C 0.18671 0.36548 0.39859 0.0
C176 C 0.189 0.32308 0.40176 0.0
C177 C 0.25059 0.34787 0.39744 0.0
N178 N 0.22555 0.38126 0.39592 0.0
O179 O 0.20032 0.24635 0.4303 0.0
H180 H 0.16267 0.30204 0.40438 0.0
H181 H 0.28396 0.35051 0.39594 0.0
O182 O 0.21447 0.2347 0.37304 0.0
C183 C 0.21671 0.25369 0.45359 0.0
O184 O 0.25646 0.2638 0.45465 0.0
N185 N 0.29441 0.26294 0.3846 0.0
C186 C 0.37489 0.27262 0.36422 0.0
C187 C 0.34485 0.24974 0.34924 0.0
C188 C 0.30456 0.24511 0.35989 0.0
C189 C 0.32402 0.28348 0.39979 0.0
C190 C 0.36406 0.28977 0.38971 0.0
H191 H 0.28269 0.22544 0.34889 0.0
H192 H 0.31641 0.29485 0.42011 0.0
H193 H 0.21808 0.16098 0.38657 0.0
H194 H 0.31941 0.12408 0.43231 0.0
H195 H 0.15855 0.38339 0.39897 0.0
H196 H 0.35276 0.23471 0.3299 0.0
H197 H 0.38695 0.3062 0.40231 0.0
C198 C 0.83525 0.31277 0.93936 0.0
C199 C 0.87779 0.31063 0.94127 0.0
N200 N 0.89044 0.27625 0.92732 0.0
N201 N 0.82051 0.28031 0.92382 0.0
C202 C 0.85494 0.25806 0.91746 0.0
H203 H 0.81669 0.33672 0.94903 0.0
Co204 Co 0.76424 0.26702 0.91464 0.0
C205 C 0.80962 0.26045 0.85963 0.0
O206 O 0.83721 0.28947 0.86681 0.0
N207 N 0.7078 0.25354 0.90579 0.0
C208 C 0.65171 0.22217 0.88749 0.0
C209 C 0.69454 0.22278 0.88842 0.0
C210 C 0.67212 0.27108 0.91526 0.0
N211 N 0.63724 0.25268 0.90439 0.0
O212 O 0.77275 0.21141 0.92782 0.0
H213 H 0.71466 0.20119 0.87764 0.0
H214 H 0.67183 0.29681 0.92998 0.0
O215 O 0.78102 0.24975 0.87663 0.0
C216 C 0.7513 0.19675 0.94751 0.0
O217 O 0.71065 0.19451 0.94529 0.0
N218 N 0.7554 0.32229 0.90534 0.0
C219 C 0.74943 0.40881 0.90313 0.0
C220 C 0.75763 0.3842 0.87954 0.0
C221 C 0.75918 0.34081 0.88094 0.0
C222 C 0.74407 0.34519 0.92787 0.0
C223 C 0.74073 0.38829 0.92725 0.0
H224 H 0.76369 0.32287 0.86238 0.0
H225 H 0.7392 0.3298 0.94685 0.0
H226 H 0.8538 0.22903 0.90562 0.0
H227 H 0.89779 0.33341 0.95166 0.0
H228 H 0.63286 0.19997 0.87574 0.0
H229 H 0.7637 0.39805 0.86018 0.0
H230 H 0.7319 0.4052 0.94572 0.0
C231 C 0.75783 0.83429 0.44384 0.0
C232 C 0.75548 0.87718 0.44484 0.0
N233 N 0.77522 0.89217 0.42285 0.0
N234 N 0.77888 0.82192 0.42133 0.0
C235 C 0.78928 0.85782 0.40905 0.0
H236 H 0.74443 0.8133 0.45838 0.0
Co237 Co 0.7879 0.76598 0.4108 0.0
C238 C 0.80416 0.76697 0.3517 0.0
O239 O 0.77916 0.73422 0.34892 0.0
N240 N 0.79746 0.70815 0.40055 0.0
C241 C 0.83159 0.65083 0.38722 0.0
C242 C 0.83335 0.6938 0.38962 0.0
C243 C 0.7746 0.67271 0.4048 0.0
N244 N 0.79455 0.63736 0.39687 0.0
O245 O 0.84132 0.77094 0.4279 0.0
H246 H 0.85968 0.71342 0.38419 0.0
H247 H 0.7446 0.67226 0.41467 0.0
O248 O 0.81111 0.7834 0.37534 0.0
C249 C 0.84482 0.75053 0.44954 0.0
O250 O 0.82108 0.71715 0.45244 0.0
N251 N 0.73364 0.76292 0.39801 0.0
C252 C 0.64776 0.76835 0.39329 0.0
C253 C 0.6744 0.78863 0.37509 0.0
C254 C 0.7174 0.78642 0.37825 0.0
C255 C 0.70807 0.74472 0.41648 0.0
C256 C 0.66514 0.74622 0.4142 0.0
H257 H 0.73713 0.8059 0.36602 0.0
H258 H 0.72119 0.73129 0.43419 0.0
H259 H 0.8067 0.85869 0.39023 0.0
H260 H 0.73931 0.89561 0.46024 0.0
H261 H 0.85595 0.63114 0.37908 0.0
H262 H 0.6622 0.8072 0.3592 0.0
H263 H 0.64581 0.73208 0.42961 0.0
C264 C 0.82035 0.73114 0.87953 0.0
C265 C 0.86322 0.73018 0.87873 0.0
N266 N 0.87844 0.76774 0.88745 0.0
N267 N 0.80829 0.76897 0.88906 0.0
C268 C 0.84438 0.79067 0.89335 0.0
H269 H 0.79926 0.70585 0.87352 0.0
Co270 Co 0.75288 0.78723 0.89404 0.0
C271 C 0.78526 0.84481 0.94429 0.0
O272 O 0.81274 0.87345 0.93734 0.0
N273 N 0.69647 0.80651 0.89887 0.0
C274 C 0.64096 0.83902 0.91633 0.0
C275 C 0.68344 0.8357 0.91733 0.0
C276 C 0.66067 0.7941 0.88602 0.0
N277 N 0.6262 0.81241 0.89684 0.0
O278 O 0.76526 0.83115 0.86982 0.0
H279 H 0.70313 0.85393 0.93098 0.0
H280 H 0.6597 0.77154 0.86923 0.0
O281 O 0.76984 0.81975 0.92615 0.0
C282 C 0.7608 0.81201 0.84682 0.0
O283 O 0.74511 0.77383 0.84629 0.0
N284 N 0.74126 0.74074 0.91495 0.0
C285 C 0.74223 0.65655 0.92685 0.0
C286 C 0.76819 0.68557 0.94096 0.0
C287 C 0.76681 0.72796 0.93493 0.0
C288 C 0.7138 0.71331 0.90286 0.0
C289 C 0.71243 0.67171 0.90942 0.0
H290 H 0.78986 0.74925 0.94375 0.0
H291 H 0.69627 0.72199 0.88565 0.0
H292 H 0.84563 0.82279 0.90066 0.0
H293 H 0.88167 0.70404 0.87172 0.0
H294 H 0.6225 0.85984 0.92903 0.0
H295 H 0.79173 0.6754 0.95466 0.0
H296 H 0.69072 0.65091 0.89872 0.0
C297 C 0.27272 0.68545 0.41364 0.0
C298 C 0.26968 0.64304 0.41473 0.0
N299 N 0.25017 0.62799 0.39237 0.0
N300 N 0.25509 0.69841 0.39071 0.0
C301 C 0.24119 0.66228 0.37809 0.0
H302 H 0.28834 0.70565 0.42851 0.0
Co303 Co 0.25874 0.75641 0.38212 0.0
C304 C 0.1884 0.76014 0.34706 0.0
O305 O 0.14801 0.76158 0.34358 0.0
N306 N 0.26299 0.81402 0.37389 0.0
C307 C 0.28981 0.87204 0.35647 0.0
C308 C 0.29166 0.8292 0.35644 0.0
C309 C 0.24311 0.84851 0.38358 0.0
N310 N 0.25963 0.88431 0.37385 0.0
O311 O 0.24201 0.76824 0.42071 0.0
H312 H 0.31405 0.81036 0.34536 0.0
H313 H 0.21739 0.84767 0.39782 0.0
O314 O 0.20187 0.75556 0.37116 0.0
C315 C 0.2394 0.79394 0.44118 0.0
O316 O 0.25311 0.83252 0.43927 0.0
N317 N 0.3155 0.75682 0.39039 0.0
C318 C 0.40092 0.75262 0.39688 0.0
C319 C 0.38033 0.72537 0.37856 0.0
C320 C 0.33776 0.72847 0.37531 0.0
C321 C 0.33514 0.78423 0.40806 0.0
C322 C 0.37816 0.78271 0.41158 0.0
H323 H 0.32243 0.70756 0.36078 0.0
H324 H 0.31806 0.80806 0.41888 0.0
H325 H 0.22619 0.661 0.35851 0.0
H326 H 0.28118 0.62458 0.43091 0.0
H327 H 0.31094 0.89276 0.34594 0.0
H328 H 0.39716 0.70237 0.36643 0.0
H329 H 0.39346 0.80472 0.42557 0.0
C330 C 0.3338 0.30883 0.93628 0.0
C331 C 0.37656 0.30905 0.93679 0.0
N332 N 0.39059 0.2803 0.91841 0.0
N333 N 0.32006 0.28037 0.91754 0.0
C334 C 0.35534 0.26325 0.90707 0.0
H335 H 0.31382 0.32887 0.94847 0.0
Co336 Co 0.26261 0.27134 0.90969 0.0
C337 C 0.28466 0.23433 0.84887 0.0
O338 O 0.30656 0.2003 0.84632 0.0
N339 N 0.2042 0.26146 0.90194 0.0
C340 C 0.14488 0.25197 0.87914 0.0
C341 C 0.18726 0.25557 0.87708 0.0
C342 C 0.17048 0.26111 0.9189 0.0
N343 N 0.13398 0.25562 0.90547 0.0
O344 O 0.26458 0.2184 0.92669 0.0
H345 H 0.20387 0.25525 0.85818 0.0
H346 H 0.17242 0.26618 0.94065 0.0
O347 O 0.27614 0.24868 0.8729 0.0
C348 C 0.25499 0.23001 0.95108 0.0
O349 O 0.24763 0.2697 0.95615 0.0
N350 N 0.25998 0.32557 0.89762 0.0
C351 C 0.25656 0.41128 0.89238 0.0
C352 C 0.28892 0.38884 0.87995 0.0
C353 C 0.29025 0.3456 0.88303 0.0
C354 C 0.22985 0.3478 0.91081 0.0
C355 C 0.22691 0.39028 0.90789 0.0
H356 H 0.31572 0.32827 0.87407 0.0
H357 H 0.20914 0.33319 0.92506 0.0
H358 H 0.35501 0.2388 0.89142 0.0
H359 H 0.39558 0.32972 0.94951 0.0
H360 H 0.12361 0.24901 0.86226 0.0
H361 H 0.31294 0.40453 0.86835 0.0
H362 H 0.20266 0.40699 0.91884 0.0
C363 C 0.70608 0.33838 0.4172 0.0
C364 C 0.7095 0.3812 0.41865 0.0
N365 N 0.74739 0.39284 0.4093 0.0
N366 N 0.74131 0.32232 0.40661 0.0
C367 C 0.76641 0.35628 0.40275 0.0
H368 H 0.67934 0.31999 0.42346 0.0
Co369 Co 0.74904 0.26399 0.40121 0.0
C370 C 0.78522 0.29236 0.34543 0.0
O371 O 0.77552 0.33193 0.34628 0.0
N372 N 0.75668 0.20513 0.39551 0.0
C373 C 0.75577 0.14427 0.37222 0.0
C374 C 0.7508 0.18632 0.37083 0.0
C375 C 0.76509 0.17296 0.41175 0.0
N376 N 0.76489 0.13545 0.39794 0.0
O377 O 0.79932 0.26943 0.42237 0.0
H378 H 0.74158 0.20198 0.35286 0.0
H379 H 0.77071 0.17673 0.43328 0.0
O380 O 0.77746 0.26988 0.36587 0.0
C381 C 0.78791 0.26213 0.44676 0.0
O382 O 0.74902 0.25065 0.4511 0.0
N383 N 0.69727 0.25849 0.38388 0.0
C384 C 0.61637 0.24789 0.36469 0.0
C385 C 0.64436 0.27559 0.35236 0.0
C386 C 0.68473 0.28059 0.36236 0.0
C387 C 0.67011 0.23206 0.39638 0.0
C388 C 0.62976 0.2258 0.38688 0.0
H389 H 0.70493 0.30352 0.35351 0.0
H390 H 0.67971 0.21614 0.41417 0.0
H391 H 0.79789 0.35415 0.39499 0.0
H392 H 0.68581 0.40201 0.4264 0.0
H393 H 0.75106 0.12178 0.3556 0.0
H394 H 0.63486 0.29386 0.33553 0.0
H395 H 0.60869 0.20515 0.39755 0.0
C396 C 0.83639 0.25437 0.19875 0.0
C397 C 0.8788 0.25035 0.19853 0.0
N398 N 0.8905 0.23462 0.17406 0.0
N399 N 0.82062 0.24044 0.17476 0.0
C400 C 0.85464 0.22874 0.15998 0.0
H401 H 0.81868 0.26955 0.2148 0.0
Co402 Co 0.76385 0.24689 0.16574 0.0
C403 C 0.77505 0.24273 0.10376 0.0
O404 O 0.77065 0.2829 0.10135 0.0
N405 N 0.70584 0.25337 0.15663 0.0
C406 C 0.64902 0.27713 0.13714 0.0
C407 C 0.69147 0.28 0.13843 0.0
C408 C 0.67047 0.23431 0.16602 0.0
N409 N 0.6353 0.24858 0.15462 0.0
O410 O 0.75236 0.19084 0.17575 0.0
H411 H 0.71021 0.30169 0.1272 0.0
H412 H 0.67043 0.21098 0.18132 0.0
O413 O 0.77364 0.22645 0.12723 0.0
C414 C 0.75188 0.17784 0.20003 0.0
O415 O 0.74701 0.13764 0.20354 0.0
N416 N 0.77595 0.30307 0.15914 0.0
C417 C 0.7914 0.38813 0.15596 0.0
C418 C 0.81712 0.35976 0.14214 0.0
C419 C 0.80965 0.31715 0.14475 0.0
C420 C 0.75274 0.33048 0.17431 0.0
C421 C 0.75948 0.37321 0.17268 0.0
H422 H 0.83027 0.29557 0.13446 0.0
H423 H 0.72828 0.31919 0.18747 0.0
H424 H 0.8535 0.2186 0.13882 0.0
H425 H 0.89981 0.2614 0.21438 0.0
H426 H 0.62984 0.29486 0.12404 0.0
H427 H 0.84284 0.37043 0.12966 0.0
H428 H 0.73943 0.39438 0.18402 0.0
C429 C 0.71813 0.83017 0.66355 0.0
C430 C 0.71763 0.87301 0.66691 0.0
N431 N 0.75648 0.88821 0.66297 0.0
N432 N 0.75699 0.81801 0.65698 0.0
C433 C 0.77988 0.85408 0.65785 0.0
H434 H 0.69152 0.80922 0.66529 0.0
Co435 Co 0.77358 0.7616 0.65067 0.0
C436 C 0.81665 0.80428 0.60191 0.0
O437 O 0.79751 0.83998 0.60384 0.0
N438 N 0.78988 0.70468 0.64476 0.0
C439 C 0.79948 0.64468 0.62153 0.0
C440 C 0.79552 0.68697 0.61977 0.0
C441 C 0.79006 0.67175 0.66146 0.0
N442 N 0.79581 0.63463 0.64774 0.0
O443 O 0.81789 0.77218 0.67582 0.0
H444 H 0.79298 0.7031 0.60103 0.0
H445 H 0.78358 0.67471 0.683 0.0
O446 O 0.80863 0.77593 0.61899 0.0
C447 C 0.79893 0.76911 0.69857 0.0
O448 O 0.76001 0.75573 0.69854 0.0
N449 N 0.72678 0.75055 0.629 0.0
C450 C 0.64426 0.74171 0.61315 0.0
C451 C 0.67098 0.77039 0.60049 0.0
C452 C 0.71261 0.77411 0.60862 0.0
C453 C 0.70183 0.72045 0.6398 0.0
C454 C 0.66111 0.71445 0.63143 0.0
H455 H 0.73169 0.79875 0.60059 0.0
H456 H 0.71229 0.70313 0.65672 0.0
H457 H 0.81312 0.85539 0.65421 0.0
H458 H 0.69037 0.89162 0.67072 0.0
H459 H 0.80144 0.62272 0.60441 0.0
H460 H 0.65907 0.79225 0.5864 0.0
H461 H 0.64178 0.69137 0.64134 0.0
C462 C 0.35227 0.72658 0.1187 0.0
C463 C 0.39464 0.73182 0.11792 0.0
N464 N 0.40536 0.7641 0.13476 0.0
N465 N 0.33541 0.75508 0.13611 0.0
C466 C 0.36876 0.77805 0.14535 0.0
H467 H 0.33476 0.70302 0.10719 0.0
Co468 Co 0.27647 0.75616 0.14148 0.0
C469 C 0.30115 0.78058 0.20172 0.0
O470 O 0.34021 0.76946 0.20183 0.0
N471 N 0.21773 0.75641 0.14699 0.0
C472 C 0.1578 0.74618 0.16902 0.0
C473 C 0.19996 0.74177 0.1698 0.0
C474 C 0.18501 0.76925 0.13237 0.0
N475 N 0.14805 0.76367 0.14557 0.0
O476 O 0.2752 0.81112 0.12657 0.0
H477 H 0.21666 0.72827 0.18615 0.0
H478 H 0.18819 0.78262 0.11262 0.0
O479 O 0.28016 0.77679 0.17978 0.0
C480 C 0.27716 0.80194 0.10103 0.0
O481 O 0.27814 0.76242 0.09321 0.0
N482 N 0.27696 0.70055 0.15103 0.0
C483 C 0.28677 0.6144 0.14913 0.0
C484 C 0.30127 0.63907 0.17142 0.0
C485 C 0.29654 0.68236 0.17182 0.0
C486 C 0.26049 0.67688 0.13019 0.0
C487 C 0.26545 0.63402 0.12862 0.0
H488 H 0.3102 0.7008 0.18812 0.0
H489 H 0.24589 0.69188 0.11356 0.0
H490 H 0.36633 0.8047 0.1593 0.0
H491 H 0.41604 0.71234 0.10641 0.0
H492 H 0.13588 0.73621 0.18438 0.0
H493 H 0.3172 0.62535 0.18804 0.0
H494 H 0.25448 0.61701 0.11065 0.0
C495 C 0.31745 0.23321 0.67522 0.0
C496 C 0.31814 0.19022 0.67618 0.0
N497 N 0.28638 0.17388 0.66128 0.0
N498 N 0.2854 0.24436 0.65985 0.0
C499 C 0.26692 0.20753 0.65183 0.0
H500 H 0.33947 0.255 0.6847 0.0
Co501 Co 0.27277 0.29978 0.65088 0.0
C502 C 0.20224 0.28372 0.61024 0.0
O503 O 0.17796 0.31337 0.61971 0.0
N504 N 0.26051 0.35651 0.64111 0.0
C505 C 0.25286 0.40825 0.6125 0.0
C506 C 0.25831 0.36629 0.61473 0.0
C507 C 0.25734 0.39447 0.65459 0.0
N508 N 0.2522 0.42651 0.63748 0.0
O509 O 0.22945 0.29825 0.67792 0.0
H510 H 0.26204 0.34438 0.59776 0.0
H511 H 0.2593 0.39883 0.67638 0.0
O512 O 0.23681 0.27746 0.6218 0.0
C513 C 0.24484 0.3109 0.70068 0.0
O514 O 0.27974 0.33288 0.70021 0.0
N515 N 0.31816 0.29994 0.62723 0.0
C516 C 0.39655 0.29076 0.60376 0.0
C517 C 0.36249 0.26685 0.59399 0.0
C518 C 0.32347 0.27169 0.60617 0.0
C519 C 0.35023 0.32512 0.63594 0.0
C520 C 0.38972 0.32122 0.6244 0.0
H521 H 0.29858 0.25058 0.59992 0.0
H522 H 0.34574 0.34634 0.65322 0.0
H523 H 0.23963 0.20534 0.63922 0.0
H524 H 0.34123 0.17246 0.6863 0.0
H525 H 0.25122 0.42441 0.59365 0.0
H526 H 0.36642 0.24304 0.57809 0.0
H527 H 0.4152 0.33975 0.63301 0.0
H528 H 0.95676 0.20686 0.20031 0.0
H529 H 0.92003 0.26207 0.12619 0.0
H530 H 0.99331 0.27198 0.11314 0.0
H531 H 0.06832 0.27051 0.12501 0.0
H532 H 0.10468 0.21175 0.19795 0.0
H533 H 0.03147 0.1976 0.20943 0.0
C534 C 0.96493 0.22037 0.18109 0.0
C535 C 0.93302 0.23374 0.16424 0.0
C536 C 1.00714 0.2257 0.17371 0.0
C537 C 0.94394 0.25112 0.13934 0.0
C538 C 0.98588 0.25714 0.13203 0.0
C539 C 0.06002 0.25401 0.14315 0.0
C540 C 0.09174 0.24215 0.16067 0.0
C541 C 0.01778 0.24538 0.14933 0.0
C542 C 0.0808 0.22074 0.1841 0.0
C543 C 0.03895 0.21291 0.19071 0.0
H544 H 0.81065 0.06653 0.62508 0.0
H545 H 0.72387 0.10414 0.68784 0.0
H546 H 0.71353 0.0311 0.70009 0.0
H547 H 0.72524 0.95566 0.69032 0.0
H548 H 0.81403 0.91918 0.62831 0.0
H549 H 0.82782 0.99225 0.61859 0.0
C550 C 0.78981 0.0587 0.64163 0.0
C551 C 0.76779 0.09073 0.65539 0.0
C552 C 0.78426 1.01669 0.64859 0.0
C553 C 0.74132 0.08019 0.67704 0.0
C554 C 0.73521 0.03836 0.68389 0.0
C555 C 0.74787 0.96378 0.67486 0.0
C556 C 0.76832 0.9317 0.65994 0.0
C557 C 0.75587 1.0062 0.66943 0.0
C558 C 0.798 0.94293 0.64023 0.0
C559 C 0.80571 0.98484 0.63452 0.0
H560 H 0.97138 0.77404 0.09249 0.0
H561 H 0.9358 0.78882 0.17686 0.0
H562 H 1.00873 0.79019 0.18985 0.0
H563 H 0.08223 0.78217 0.1778 0.0
H564 H 0.11889 0.76443 0.09392 0.0
H565 H 0.04616 0.76997 0.08017 0.0
C566 C 0.97955 0.77768 0.11372 0.0
C567 C 0.94773 0.7811 0.13363 0.0
C568 C 0.02185 0.77785 0.12115 0.0
C569 C 0.95922 0.78655 0.16101 0.0
C570 C 1.00108 0.78701 0.16851 0.0
C571 C 0.07445 0.77938 0.15647 0.0
C572 C 0.10615 0.77212 0.13696 0.0
C573 C 0.03257 0.78188 0.14882 0.0
C574 C 0.09535 0.76999 0.10938 0.0
C575 C 0.05364 0.77285 0.10155 0.0
H576 H 0.24322 0.99343 0.61322 0.0
H577 H 0.30672 0.95812 0.68528 0.0
H578 H 0.31498 0.03167 0.69952 0.0
H579 H 0.3074 0.10669 0.69031 0.0
H580 H 0.24554 0.14084 0.61727 0.0
H581 H 0.23365 0.06751 0.60479 0.0
C582 C 0.25909 1.00162 0.632 0.0
C583 C 0.27472 0.96974 0.6479 0.0
C584 C 0.26419 0.04413 0.63993 0.0
C585 C 0.29417 0.9815 0.67256 0.0
C586 C 0.29917 0.02378 0.68066 0.0
C587 C 0.2914 0.09821 0.67162 0.0
C588 C 0.27757 0.12992 0.65481 0.0
C589 C 0.28487 0.05547 0.66431 0.0
C590 C 0.25624 0.11775 0.63089 0.0
C591 C 0.24962 0.07555 0.62358 0.0
H592 H 0.94513 0.71883 0.89468 0.0
H593 H 0.91027 0.84651 0.88481 0.0
H594 H 0.98295 0.86908 0.88825 0.0
H595 H 0.05644 0.85284 0.89326 0.0
H596 H 0.09194 0.72548 0.90403 0.0
H597 H 0.01931 0.70264 0.90028 0.0
C598 C 0.95337 0.75156 0.89307 0.0
C599 C 0.92183 0.78084 0.88951 0.0
C600 C 0.99555 0.76447 0.89503 0.0
C601 C 0.93344 0.82323 0.8879 0.0
C602 C 0.97519 0.83619 0.8897 0.0
C603 C 0.04859 0.8201 0.89512 0.0
C604 C 0.08032 0.79112 0.89896 0.0
C605 C 1.00652 0.80713 0.89328 0.0
C606 C 0.06878 0.74868 0.90076 0.0
C607 C 0.027 0.73553 0.89877 0.0
H608 H 0.2501 0.95324 0.34494 0.0
H609 H 0.25953 0.91079 0.42639 0.0
H610 H 0.2618 0.98298 0.44421 0.0
H611 H 0.26554 0.05893 0.4363 0.0
H612 H 0.25133 0.10153 0.3552 0.0
H613 H 0.24616 0.02925 0.33755 0.0
C614 C 0.25189 0.95996 0.36661 0.0
C615 C 0.25438 0.92662 0.38434 0.0
C616 C 0.25265 1.00176 0.37673 0.0
C617 C 0.25685 0.93572 0.41238 0.0
C618 C 0.25857 0.9771 0.42255 0.0
C619 C 0.26098 0.05223 0.41482 0.0
C620 C 0.25903 0.08557 0.39705 0.0
C621 C 0.25717 1.01044 0.4049 0.0
C622 C 0.25266 0.0765 0.36927 0.0
C623 C 0.24992 0.03512 0.35917 0.0
H624 H 0.95945 0.30006 0.95605 0.0
H625 H 0.91875 0.22489 0.88643 0.0
H626 H 0.99059 0.20875 0.87529 0.0
H627 H 0.06521 0.21954 0.8832 0.0
H628 H 0.10686 0.29783 0.95094 0.0
H629 H 0.03457 0.3088 0.96496 0.0
C630 C 0.96608 0.28023 0.93838 0.0
C631 C 0.93311 0.26406 0.92207 0.0
C632 C 1.00786 0.27161 0.93167 0.0
C633 C 0.94289 0.23764 0.8996 0.0
C634 C 0.98422 0.22856 0.89304 0.0
C635 C 0.0586 0.23906 0.90104 0.0
C636 C 0.0917 0.25817 0.91578 0.0
C637 C 0.01695 0.24594 0.90863 0.0
C638 C 0.08228 0.28249 0.93925 0.0
C639 C 0.04082 0.28906 0.94715 0.0
H640 H 0.78747 0.06651 0.36876 0.0
H641 H 0.75388 0.10961 0.44976 0.0
H642 H 0.75617 0.03793 0.46511 0.0
H643 H 0.76408 0.96242 0.45481 0.0
H644 H 0.79271 0.92053 0.37256 0.0
H645 H 0.79555 0.99225 0.35856 0.0
C646 C 0.7802 0.06049 0.38976 0.0
C647 C 0.76987 0.09381 0.40791 0.0
C648 C 0.78053 0.01914 0.39826 0.0
C649 C 0.76203 0.08496 0.43526 0.0
C650 C 0.76303 0.04379 0.44401 0.0
C651 C 0.77073 0.96874 0.43378 0.0
C652 C 0.77816 0.93535 0.41489 0.0
C653 C 0.77158 1.01049 0.42557 0.0
C654 C 0.78739 0.94492 0.38781 0.0
C655 C 0.78878 0.9862 0.37965 0.0
H656 H 0.34806 0.42824 0.14614 0.0
H657 H 0.23236 0.40887 0.10348 0.0
H658 H 0.22013 0.48373 0.10614 0.0
H659 H 0.23823 0.55282 0.12518 0.0
H660 H 0.35558 0.57342 0.16611 0.0
H661 H 0.37 0.49933 0.16088 0.0
C662 C 0.32057 0.44062 0.137 0.0
C663 C 0.29109 0.41316 0.12472 0.0
C664 C 0.31326 0.48353 0.13918 0.0
C665 C 0.25575 0.42943 0.11275 0.0
C666 C 0.24842 0.47214 0.11465 0.0
C667 C 0.26745 0.54157 0.1325 0.0
C668 C 0.29549 0.56903 0.14628 0.0
C669 C 0.27635 0.49924 0.12854 0.0
C670 C 0.33272 0.55312 0.15611 0.0
C671 C 0.34136 0.51077 0.15276 0.0
H672 H 0.46148 0.34427 0.59414 0.0
H673 H 0.42871 0.2132 0.59578 0.0
H674 H 0.50174 0.1954 0.59131 0.0
H675 H 0.57515 0.21726 0.59389 0.0
H676 H 0.60796 0.34847 0.59625 0.0
H677 H 0.53502 0.36589 0.59175 0.0
C678 C 0.47033 0.31181 0.59316 0.0
C679 C 0.43969 0.28022 0.59555 0.0
C680 C 0.51253 0.30177 0.5915 0.0
C681 C 0.45154 0.23823 0.59375 0.0
C682 C 0.4934 0.22797 0.59149 0.0
C683 C 0.56634 0.24964 0.59303 0.0
C684 C 0.5969 0.28147 0.59569 0.0
C685 C 0.5242 0.25952 0.59139 0.0
C686 C 0.58515 0.32328 0.59404 0.0
C687 C 0.54335 0.33333 0.59177 0.0
H688 H 0.79895 0.44755 0.19574 0.0
H689 H 0.79549 0.42895 0.10875 0.0
H690 H 0.79581 0.5045 0.10329 0.0
H691 H 0.7922 0.57545 0.12363 0.0
H692 H 0.79745 0.5942 0.21049 0.0
H693 H 0.80112 0.51866 0.21591 0.0
C694 C 0.7986 0.46024 0.17564 0.0
C695 C 0.79687 0.43322 0.15267 0.0
C696 C 0.79869 0.50341 0.17274 0.0
C697 C 0.797 0.44952 0.12664 0.0
C698 C 0.79688 0.49253 0.12355 0.0
C699 C 0.79428 0.56272 0.14366 0.0
C700 C 0.79401 0.58954 0.16669 0.0
C701 C 0.7969 0.51967 0.14648 0.0
C702 C 0.79739 0.57353 0.19262 0.0
C703 C 0.79947 0.53059 0.19566 0.0
H704 H 0.59452 0.75322 0.5688 0.0
H705 H 0.59127 0.74079 0.65584 0.0
H706 H 0.51685 0.74925 0.65652 0.0
H707 H 0.45331 0.76391 0.6336 0.0
H708 H 0.45293 0.78121 0.54746 0.0
H709 H 0.52799 0.7666 0.545 0.0
C710 C 0.57734 0.75217 0.58779 0.0
C711 C 0.59846 0.74544 0.61211 0.0
C712 C 0.53401 0.75796 0.58823 0.0
C713 C 0.57583 0.74451 0.63667 0.0
C714 C 0.53321 0.74975 0.6372 0.0
C715 C 0.46974 0.76427 0.61425 0.0
C716 C 0.44836 0.77399 0.59082 0.0
C717 C 0.51219 0.75684 0.61324 0.0
C718 C 0.46927 0.77387 0.56574 0.0
C719 C 0.51202 0.76577 0.56443 0.0
H720 H 0.31449 0.46978 0.90842 0.0
H721 H 0.19113 0.45389 0.87553 0.0
H722 H 0.17828 0.52789 0.88374 0.0
H723 H 0.20021 0.59532 0.90245 0.0
H724 H 0.32592 0.61537 0.93073 0.0
H725 H 0.33893 0.5407 0.92397 0.0
C726 C 0.28534 0.48298 0.90241 0.0
C727 C 0.25376 0.45684 0.89132 0.0
C728 C 0.27803 0.52562 0.90741 0.0
C729 C 0.21579 0.47377 0.88398 0.0
C730 C 0.20828 0.51582 0.88897 0.0
C731 C 0.23075 0.58365 0.90684 0.0
C732 C 0.26212 0.61109 0.91678 0.0
C733 C 0.23883 0.54172 0.90117 0.0
C734 C 0.30096 0.59495 0.92333 0.0
C735 C 0.30868 0.55239 0.91899 0.0
H736 H 0.56518 0.31179 0.35604 0.0
H737 H 0.56849 0.1775 0.35612 0.0
H738 H 0.49291 0.17321 0.35107 0.0
H739 H 0.42551 0.20811 0.35343 0.0
H740 H 0.42237 0.34236 0.35699 0.0
H741 H 0.49827 0.34643 0.35309 0.0
C742 C 0.54944 0.28159 0.35417 0.0
C743 C 0.57218 0.24502 0.35661 0.0
C744 C 0.50599 0.27946 0.35206 0.0
C745 C 0.55143 0.20606 0.35456 0.0
C746 C 0.50829 0.20361 0.35168 0.0
C747 C 0.44153 0.23814 0.35247 0.0
C748 C 0.41878 0.27489 0.3554 0.0
C749 C 0.48514 0.24014 0.35138 0.0
C750 C 0.43957 0.31375 0.35468 0.0
C751 C 0.48285 0.31604 0.35264 0.0
H752 H 0.73606 0.60119 0.88414 0.0
H753 H 0.76597 0.60875 0.96942 0.0
H754 H 0.77481 0.53305 0.96874 0.0
H755 H 0.77039 0.46495 0.94437 0.0
H756 H 0.72921 0.4584 0.86095 0.0
H757 H 0.72862 0.53392 0.8606 0.0
C758 C 0.74344 0.58648 0.9029 0.0
C759 C 0.74906 0.61078 0.92704 0.0
C760 C 0.74664 0.54311 0.90264 0.0
C761 C 0.76111 0.59097 0.9506 0.0
C762 C 0.76594 0.54765 0.95024 0.0
C763 C 0.76041 0.47973 0.92619 0.0
C764 C 0.74961 0.45532 0.90277 0.0
C765 C 0.758 0.52338 0.92646 0.0
C766 C 0.7384 0.47575 0.87921 0.0
C767 C 0.7376 0.51915 0.87903 0.0
H768 H 0.45805 0.81469 0.39078 0.0
H769 H 0.44469 0.68419 0.4078 0.0
H770 H 0.52024 0.67728 0.40724 0.0
H771 H 0.58953 0.70777 0.40049 0.0
H772 H 0.60374 0.83843 0.38376 0.0
H773 H 0.52822 0.84571 0.38481 0.0
C774 C 0.4719 0.785 0.39477 0.0
C775 C 0.44629 0.75003 0.39948 0.0
C776 C 0.51524 0.78113 0.3939 0.0
C777 C 0.46415 0.71144 0.40416 0.0
C778 C 0.50717 0.70746 0.40373 0.0
C779 C 0.5761 0.7379 0.39724 0.0
C780 C 0.60211 0.77245 0.39205 0.0
C781 C 0.53293 0.74199 0.39833 0.0
C782 C 0.58431 0.81118 0.38739 0.0
C783 C 0.5412 0.81548 0.38829 0.0
H784 H 0.30497 0.15041 0.05908 0.0
H785 H 0.19586 0.2169 0.08618 0.0
H786 H 0.17829 0.22957 0.03931 0.0
H787 H 0.19973 0.23181 0.99174 0.0
H788 H 0.3105 0.16973 0.96399 0.0
H789 H 0.32087 0.14398 1.00977 0.0
C790 C 0.27681 0.16682 0.05473 0.0
C791 C 0.25217 0.18324 0.07632 0.0
C792 C 0.26723 0.17483 0.02755 0.0
C793 C 0.21569 0.20425 0.07015 0.0
C794 C 0.20561 0.21161 0.04329 0.0
C795 C 0.22545 0.2115 0.99553 0.0
C796 C 0.25438 0.20269 0.97461 0.0
C797 C 0.23198 0.19847 1.02198 0.0
C798 C 0.28757 0.17647 0.97968 0.0
C799 C 0.29379 0.16235 1.00598 0.0
H800 H 0.80884 0.21029 0.48612 0.0
H801 H 0.8196 0.33813 0.46284 0.0
H802 H 0.83598 0.36004 0.50975 0.0
H803 H 0.83402 0.34384 0.55834 0.0
H804 H 0.82736 0.21541 0.58135 0.0
H805 H 0.82302 0.19264 0.53364 0.0
C806 C 0.81667 0.2427 0.49113 0.0
C807 C 0.81347 0.27253 0.47099 0.0
C808 C 0.8255 0.25505 0.51825 0.0
C809 C 0.82282 0.31451 0.47781 0.0
C810 C 0.8315 0.32708 0.50477 0.0
C811 C 0.83261 0.31075 0.55304 0.0
C812 C 0.82853 0.28146 0.57375 0.0
C813 C 0.83097 0.29782 0.52537 0.0
C814 C 0.82804 0.2388 0.56612 0.0
C815 C 0.826 0.22571 0.53872 0.0
H816 H 0.81954 0.88303 0.99003 0.0
H817 H 0.72095 0.79776 0.96363 0.0
H818 H 0.70027 0.78772 1.01036 0.0
H819 H 0.71411 0.79668 0.05845 0.0
H820 H 0.81643 0.875 0.08657 0.0
H821 H 0.8306 0.89571 0.03972 0.0
C822 C 0.79327 0.86261 0.99453 0.0
C823 C 0.77199 0.84111 0.97312 0.0
C824 C 0.78193 0.85606 1.02183 0.0
C825 C 0.7381 0.81467 0.97944 0.0
C826 C 0.72609 0.80893 1.00627 0.0
C827 C 0.73895 0.81914 0.05444 0.0
C828 C 0.76417 0.83434 0.0759 0.0
C829 C 0.74826 0.82872 0.02756 0.0
C830 C 0.79616 0.86339 0.07046 0.0
C831 C 0.80469 0.87456 0.04359 0.0
H832 H 0.22005 0.84107 0.4866 0.0
H833 H 0.22799 0.71317 0.45731 0.0
H834 H 0.2203 0.68936 0.50349 0.0
H835 H 0.2203 0.7055 0.55278 0.0
H836 H 0.20518 0.83277 0.58183 0.0
H837 H 0.20578 0.85599 0.5352 0.0
C838 C 0.21963 0.80792 0.49021 0.0
C839 C 0.22659 0.77909 0.46843 0.0
C840 C 0.21406 0.7943 0.51689 0.0
C841 C 0.22446 0.73625 0.47358 0.0
C842 C 0.21973 0.72253 0.50009 0.0
C843 C 0.21609 0.73823 0.549 0.0
C844 C 0.21469 0.76761 0.57098 0.0
C845 C 0.21591 0.75136 0.52202 0.0
C846 C 0.20824 0.80968 0.56543 0.0
C847 C 0.20843 0.823 0.53871 0.0
H848 H 0.20616 0.85578 0.99427 0.0
H849 H 0.32794 0.81929 0.96638 0.0
H850 H 0.35231 0.82058 1.01332 0.0
H851 H 0.33369 0.81591 0.06187 0.0
H852 H 0.21136 0.85009 0.08961 0.0
H853 H 0.19273 0.86732 0.04336 0.0
C854 C 0.23847 0.84961 0.99843 0.0
C855 C 0.26511 0.83699 0.97688 0.0
C856 C 0.25198 0.84974 0.02554 0.0
C857 C 0.30689 0.82923 0.98252 0.0
C858 C 0.32068 0.82956 1.00943 0.0
C859 C 0.30376 0.82943 0.05799 0.0
C860 C 0.27398 0.83195 0.07916 0.0
C861 C 0.29288 0.83763 0.03112 0.0
C862 C 0.23502 0.84859 0.07384 0.0
C863 C 0.22414 0.85761 0.04723 0.0
H864 H 0.23061 0.20324 0.49433 0.0
H865 H 0.15549 0.30557 0.47179 0.0
H866 H 0.13886 0.32113 0.51977 0.0
H867 H 0.15681 0.31313 0.56823 0.0
H868 H 0.23394 0.21113 0.58972 0.0
H869 H 0.23827 0.18765 0.54233 0.0
C870 C 0.20906 0.22775 0.49992 0.0
C871 C 0.19372 0.25282 0.47962 0.0
C872 C 0.20088 0.23719 0.5275 0.0
C873 C 0.16676 0.2852 0.48704 0.0
C874 C 0.15789 0.2945 0.51453 0.0
C875 C 0.17352 0.28506 0.56265 0.0
C876 C 0.19573 0.26445 0.5826 0.0
C877 C 0.17635 0.27186 0.53502 0.0
C878 C 0.21723 0.22813 0.57487 0.0
C879 C 0.21972 0.2146 0.54768 0.0
H880 H 0.82738 0.24906 0.06094 0.0
H881 H 0.71891 0.18177 0.08892 0.0
H882 H 0.70401 0.15714 0.04228 0.0
H883 H 0.71589 0.16458 0.99303 0.0
H884 H 0.82655 0.22913 0.96555 0.0
H885 H 0.84688 0.24451 1.01233 0.0
C886 C 0.8014 0.22768 0.05689 0.0
C887 C 0.77438 0.21699 0.07828 0.0
C888 C 0.79293 0.21397 0.03001 0.0
C889 C 0.74053 0.18975 0.07284 0.0
C890 C 0.73171 0.17619 0.0461 0.0
C891 C 0.74489 0.18136 0.99722 0.0
C892 C 0.76877 0.19715 0.97553 0.0
C893 C 0.75675 0.18957 0.0244 0.0
C894 C 0.80677 0.21777 0.98154 0.0
C895 C 0.81853 0.2265 1.00844 0.0
H896 H 0.87358 0.71458 0.49412 0.0
H897 H 0.84555 0.83432 0.46262 0.0
H898 H 0.83984 0.86409 0.50876 0.0
H899 H 0.82816 0.85172 0.55735 0.0
H900 H 0.85815 0.73231 0.58885 0.0
H901 H 0.87803 0.70694 0.54347 0.0
C902 C 0.86787 0.74761 0.49736 0.0
C903 C 0.85904 0.77192 0.475 0.0
C904 C 0.86375 0.76427 0.52397 0.0
C905 C 0.85213 0.81476 0.47944 0.0
C906 C 0.84834 0.83171 0.50589 0.0
C907 C 0.83993 0.82043 0.55448 0.0
C908 C 0.83947 0.79321 0.57634 0.0
C909 C 0.85169 0.80609 0.52826 0.0
C910 C 0.85614 0.75328 0.57225 0.0
C911 C 0.86787 0.73881 0.54628 0.0
H912 H 0.5675 0.29476 0.14552 0.0
H913 H 0.60414 0.17592 0.17467 0.0
H914 H 0.53076 0.15497 0.17948 0.0
H915 H 0.45622 0.16951 0.17366 0.0
H916 H 0.42157 0.2878 0.14194 0.0
H917 H 0.49402 0.30921 0.13976 0.0
C918 C 0.5598 0.26401 0.15265 0.0
C919 C 0.59191 0.23683 0.15933 0.0
C920 C 0.51758 0.25187 0.15486 0.0
C921 C 0.58052 0.19768 0.16941 0.0
C922 C 0.5384 0.18556 0.17199 0.0
C923 C 0.46411 0.19991 0.16609 0.0
C924 C 0.43223 0.22663 0.15797 0.0
C925 C 0.50658 0.21222 0.16445 0.0
C926 C 0.44428 0.26617 0.1486 0.0
C927 C 0.48618 0.27862 0.14721 0.0
H928 H 0.74597 0.45994 0.69522 0.0
H929 H 0.81824 0.41709 0.62609 0.0
H930 H 0.83599 0.48917 0.61546 0.0
H931 H 0.82773 0.56448 0.62415 0.0
H932 H 0.7552 0.60821 0.69309 0.0
H933 H 0.74206 0.53613 0.70592 0.0
C934 C 0.7661 0.46646 0.67807 0.0
C935 C 0.78085 0.43291 0.66152 0.0
C936 C 0.77623 0.50829 0.67206 0.0
C937 C 0.80698 0.44199 0.6394 0.0
C938 C 0.81686 0.48335 0.63319 0.0
C939 C 0.80898 0.55846 0.642 0.0
C940 C 0.79204 0.59227 0.65734 0.0
C941 C 0.80114 0.51677 0.64911 0.0
C942 C 0.76878 0.58331 0.68083 0.0
C943 C 0.76096 0.54188 0.68808 0.0
H944 H 0.58152 0.8025 0.18517 0.0
H945 H 0.62005 0.76285 0.10433 0.0
H946 H 0.54752 0.75821 0.09033 0.0
H947 H 0.4729 0.75984 0.1018 0.0
H948 H 0.4339 0.79648 0.18291 0.0
H949 H 0.50671 0.80806 0.19594 0.0
C950 C 0.57426 0.79269 0.16448 0.0
C951 C 0.60679 0.78251 0.146 0.0
C952 C 0.53218 0.78944 0.1566 0.0
C953 C 0.59622 0.77103 0.11909 0.0
C954 C 0.55452 0.7681 0.11106 0.0
C955 C 0.48025 0.77051 0.12233 0.0
C956 C 0.44773 0.77684 0.14142 0.0
C957 C 0.52225 0.77639 0.12977 0.0
C958 C 0.45803 0.79159 0.16775 0.0
C959 C 0.49977 0.79785 0.17526 0.0
H960 H 0.29112 0.47574 0.67654 0.0
H961 H 0.2059 0.47952 0.60984 0.0
H962 H 0.20772 0.55557 0.61254 0.0
H963 H 0.23868 0.62222 0.63096 0.0
H964 H 0.32394 0.6187 0.69762 0.0
H965 H 0.31655 0.54282 0.69806 0.0
C966 C 0.27229 0.49319 0.663 0.0
C967 C 0.24875 0.47141 0.64279 0.0
C968 C 0.27374 0.53762 0.66447 0.0
C969 C 0.22484 0.49506 0.62534 0.0
C970 C 0.2258 0.53882 0.62687 0.0
C971 C 0.25488 0.60494 0.64596 0.0
C972 C 0.28213 0.62661 0.66409 0.0
C973 C 0.25091 0.56067 0.64591 0.0
C974 C 0.30315 0.60317 0.68317 0.0
C975 C 0.29896 0.55952 0.68345 0.0
H976 H 0.55864 0.82715 0.92919 0.0
H977 H 0.59424 0.77843 0.84978 0.0
H978 H 0.52111 0.76464 0.83898 0.0
H979 H 0.44682 0.76743 0.85169 0.0
H980 H 0.41161 0.81593 0.93126 0.0
H981 H 0.48463 0.82983 0.9419 0.0
C982 C 0.55069 0.814 0.90934 0.0
C983 C 0.5826 0.80421 0.8903 0.0
C984 C 0.50834 0.80632 0.90316 0.0
C985 C 0.57092 0.78617 0.86499 0.0
C986 C 0.52888 0.77843 0.85872 0.0
C987 C 0.45486 0.78073 0.87148 0.0
C988 C 0.423 0.79054 0.89058 0.0
C989 C 0.49727 0.7884 0.87763 0.0
C990 C 0.4348 0.80843 0.91592 0.0
C991 C 0.47681 0.81619 0.92212 0.0
H992 H 0.18089 0.44365 0.3749 0.0
H993 H 0.29775 0.41837 0.41276 0.0
H994 H 0.31703 0.49216 0.4124 0.0
H995 H 0.29942 0.56445 0.4041 0.0
H996 H 0.18257 0.59184 0.36742 0.0
H997 H 0.16491 0.51683 0.36406 0.0
C998 C 0.21058 0.45424 0.38308 0.0
C999 C 0.23769 0.425 0.39399 0.0
C1000 C 0.22154 0.49722 0.38295 0.0
C1001 C 0.27634 0.43959 0.40401 0.0
C1002 C 0.28735 0.48202 0.40396 0.0
C1003 C 0.27007 0.55409 0.39528 0.0
C1004 C 0.24209 0.58395 0.38634 0.0
C1005 C 0.26001 0.51115 0.39385 0.0
C1006 C 0.2047 0.5697 0.37437 0.0
C1007 C 0.1945 0.52678 0.3727 0.0
H1008 H 0.45971 0.30605 0.94686 0.0
H1009 H 0.42142 0.23351 0.87552 0.0
H1010 H 0.49394 0.2189 0.8649 0.0
H1011 H 0.56856 0.22723 0.87533 0.0
H1012 H 0.60616 0.30006 0.94671 0.0
H1013 H 0.53378 0.31493 0.95701 0.0
C1014 C 0.4667 0.28732 0.9288 0.0
C1015 C 0.43405 0.27113 0.91212 0.0
C1016 C 0.50882 0.27925 0.92255 0.0
C1017 C 0.44502 0.24635 0.88906 0.0
C1018 C 0.48684 0.23807 0.88282 0.0
C1019 C 0.56127 0.24608 0.89331 0.0
C1020 C 0.59376 0.2622 0.91017 0.0
C1021 C 0.51907 0.25435 0.89941 0.0
C1022 C 0.58268 0.28726 0.93306 0.0
C1023 C 0.54093 0.29566 0.93914 0.0
H1024 H 0.70204 0.46315 0.40659 0.0
H1025 H 0.82824 0.4199 0.40523 0.0
H1026 H 0.85405 0.49161 0.40085 0.0
H1027 H 0.84094 0.56716 0.39841 0.0
H1028 H 0.71433 0.60943 0.4 0.0
H1029 H 0.68894 0.53784 0.40404 0.0
C1030 C 0.73526 0.46911 0.40568 0.0
C1031 C 0.76298 0.43549 0.40646 0.0
C1032 C 0.74999 0.51061 0.40337 0.0
C1033 C 0.80592 0.44458 0.40453 0.0
C1034 C 0.82079 0.48582 0.40215 0.0
C1035 C 0.80776 0.56087 0.39941 0.0
C1036 C 0.77976 0.59434 0.399 0.0
C1037 C 0.79313 0.51918 0.40161 0.0
C1038 C 0.73686 0.58494 0.40068 0.0
C1039 C 0.7222 0.54375 0.40282 0.0
H1040 H 0.16587 0.27089 0.30417 0.0
H1041 H 0.23019 0.17122 0.34097 0.0
H1042 H 0.2429 0.13829 0.29661 0.0
H1043 H 0.25072 0.14797 0.24717 0.0
H1044 H 0.18552 0.24727 0.21084 0.0
H1045 H 0.15707 0.26911 0.25464 0.0
C1046 C 0.18134 0.24118 0.30256 0.0
C1047 C 0.19812 0.22435 0.32593 0.0
C1048 C 0.18867 0.22231 0.27679 0.0
C1049 C 0.21727 0.18531 0.32348 0.0
C1050 C 0.22497 0.16653 0.29793 0.0
C1051 C 0.22831 0.17278 0.24868 0.0
C1052 C 0.2197 0.1954 0.22557 0.0
C1053 C 0.21293 0.18609 0.27436 0.0
C1054 C 0.19151 0.22826 0.22794 0.0
C1055 C 0.17597 0.24152 0.25327 0.0
H1056 H 0.85754 0.28702 0.81687 0.0
H1057 H 0.75378 0.20516 0.83585 0.0
H1058 H 0.74118 0.19211 0.78761 0.0
H1059 H 0.75443 0.20966 0.74043 0.0
H1060 H 0.85637 0.29265 0.72036 0.0
H1061 H 0.87553 0.29879 0.76858 0.0
C1062 C 0.83249 0.26584 0.81052 0.0
C1063 C 0.80619 0.24763 0.83026 0.0
C1064 C 0.82506 0.25878 0.7825 0.0
C1065 C 0.77421 0.22004 0.82139 0.0
C1066 C 0.76695 0.21255 0.7937 0.0
C1067 C 0.7813 0.22867 0.7465 0.0
C1068 C 0.80374 0.25102 0.72682 0.0
C1069 C 0.79139 0.23265 0.77415 0.0
C1070 C 0.83872 0.275 0.73501 0.0
C1071 C 0.84935 0.2788 0.76264 0.0
H1072 H 0.86777 0.78331 0.23398 0.0
H1073 H 0.74985 0.8426 0.22695 0.0
H1074 H 0.74345 0.84849 0.2764 0.0
H1075 H 0.76275 0.81928 0.32022 0.0
H1076 H 0.87846 0.75544 0.32664 0.0
H1077 H 0.89483 0.76889 0.27908 0.0
C1078 C 0.84198 0.7999 0.24335 0.0
C1079 C 0.8094 0.81265 0.22686 0.0
C1080 C 0.83751 0.80083 0.27179 0.0
C1081 C 0.77568 0.83327 0.23916 0.0
C1082 C 0.77155 0.83563 0.26751 0.0
C1083 C 0.79232 0.80993 0.31146 0.0
C1084 C 0.81956 0.78659 0.32682 0.0
C1085 C 0.80091 0.81692 0.28388 0.0
C1086 C 0.85737 0.77385 0.31522 0.0
C1087 C 0.86652 0.78128 0.28798 0.0
H1088 H 0.18386 0.82122 0.80871 0.0
H1089 H 0.30532 0.87236 0.82847 0.0
H1090 H 0.32159 0.87737 0.77997 0.0
H1091 H 0.30609 0.85443 0.73306 0.0
H1092 H 0.18716 0.79651 0.71363 0.0
H1093 H 0.16493 0.80659 0.76112 0.0
C1094 C 0.21342 0.8348 0.80237 0.0
C1095 C 0.24352 0.84623 0.8221 0.0
C1096 C 0.22332 0.83501 0.7746 0.0
C1097 C 0.28155 0.86386 0.81374 0.0
C1098 C 0.29106 0.8659 0.786 0.0
C1099 C 0.27507 0.8443 0.73907 0.0
C1100 C 0.24855 0.82381 0.7199 0.0
C1101 C 0.26302 0.84943 0.7664 0.0
C1102 C 0.20824 0.81189 0.72797 0.0
C1103 C 0.19562 0.81765 0.75512 0.0
H1104 H 0.82672 0.77938 0.82126 0.0
H1105 H 0.73423 0.87347 0.81488 0.0
H1106 H 0.747 0.87554 0.76584 0.0
H1107 H 0.77144 0.83769 0.72456 0.0
H1108 H 0.85845 0.73846 0.73087 0.0
H1109 H 0.86203 0.75168 0.7801 0.0
C1110 C 0.8109 0.80176 0.80922 0.0
C1111 C 0.77982 0.82652 0.82151 0.0
C1112 C 0.81705 0.80112 0.78095 0.0
C1113 C 0.75877 0.85478 0.80587 0.0
C1114 C 0.76566 0.85541 0.77778 0.0
C1115 C 0.79273 0.82042 0.73666 0.0
C1116 C 0.81498 0.78741 0.72428 0.0
C1117 C 0.7929 0.82695 0.76499 0.0
C1118 C 0.84174 0.76447 0.73997 0.0
C1119 C 0.84321 0.77166 0.76815 0.0
H1120 H 0.32284 0.75378 0.2517 0.0
H1121 H 0.22619 0.81763 0.21081 0.0
H1122 H 0.18395 0.81872 0.25234 0.0
H1123 H 0.17264 0.79822 0.29969 0.0
H1124 H 0.26629 0.72916 0.33911 0.0
H1125 H 0.31169 0.73379 0.29922 0.0
C1126 C 0.29288 0.76866 0.25197 0.0
C1127 C 0.27802 0.78598 0.22804 0.0
C1128 C 0.26811 0.7681 0.2758 0.0
C1129 C 0.23863 0.80429 0.22882 0.0
C1130 C 0.21433 0.80475 0.2526 0.0
C1131 C 0.20312 0.7844 0.29964 0.0
C1132 C 0.2166 0.76426 0.32292 0.0
C1133 C 0.22843 0.78618 0.2761 0.0
C1134 C 0.25588 0.74607 0.3221 0.0
C1135 C 0.2816 0.74836 0.29905 0.0
H1136 H 0.23446 0.34538 0.75111 0.0
H1137 H 0.2387 0.22683 0.70752 0.0
H1138 H 0.25242 0.19195 0.74975 0.0
H1139 H 0.27213 0.19701 0.79847 0.0
H1140 H 0.25543 0.31356 0.84256 0.0
H1141 H 0.23815 0.34741 0.80118 0.0
C1142 C 0.23671 0.31168 0.75102 0.0
C1143 C 0.2359 0.28886 0.72612 0.0
C1144 C 0.24394 0.29172 0.77549 0.0
C1145 C 0.23912 0.24522 0.72634 0.0
C1146 C 0.2475 0.22529 0.75052 0.0
C1147 C 0.26463 0.22981 0.7991 0.0
C1148 C 0.26825 0.25343 0.82379 0.0
C1149 C 0.25166 0.24852 0.77511 0.0
C1150 C 0.25631 0.29531 0.82403 0.0
C1151 C 0.24533 0.31453 0.80022 0.0
H1152 H 0.75377 0.3138 0.29676 0.0
H1153 H 0.82501 0.21932 0.33405 0.0
H1154 H 0.82195 0.17617 0.29212 0.0
H1155 H 0.79494 0.1631 0.24576 0.0
H1156 H 0.72073 0.25596 0.2096 0.0
H1157 H 0.72882 0.30175 0.2499 0.0
C1158 C 0.76956 0.28425 0.29552 0.0
C1159 C 0.79004 0.27008 0.31854 0.0
C1160 C 0.76656 0.25899 0.27155 0.0
C1161 C 0.80937 0.23117 0.31665 0.0
C1162 C 0.80733 0.20632 0.2927 0.0
C1163 C 0.78072 0.19347 0.24666 0.0
C1164 C 0.75779 0.20636 0.22431 0.0
C1165 C 0.78528 0.2195 0.2702 0.0
C1166 C 0.73926 0.24562 0.22602 0.0
C1167 C 0.74375 0.27176 0.24925 0.0
loop_
_geom_bond_atom_site_label_1
_geom_bond_atom_site_label_2
_geom_bond_distance
_geom_bond_site_symmetry_2
_ccdc_geom_bond_type
C0 C1 1.351 . S
C0 N3 1.368 . S
C0 H5 0.931 . S
C1 C0 1.351 . S
C1 N2 1.373 . S
C1 H29 0.930 . S
N2 C1 1.373 . S
N2 C4 1.340 . S
N3 C0 1.368 . S
N3 C4 1.321 . S
N3 Co6 2.135 . S
C4 N2 1.340 . S
C4 N3 1.321 . S
C4 H28 0.930 . S
H5 C0 0.931 . S
Co6 N3 2.135 . S
Co6 N9 2.121 . S
Co6 O14 2.055 . S
Co6 O17 2.039 . S
Co6 N20 2.140 . S
C7 O8 1.227 . S
C7 O17 1.265 . S
O8 C7 1.227 . S
N9 Co6 2.121 . S
N9 C11 1.375 . S
N9 C12 1.313 . S
C10 C11 1.338 . S
C10 N13 1.377 . S
C10 H30 0.930 . S
C11 N9 1.375 . S
C11 C10 1.338 . S
C11 H15 0.931 . S
C12 N9 1.313 . S
C12 N13 1.344 . S
C12 H16 0.930 . S
N13 C10 1.377 . S
N13 C12 1.344 . S
O14 Co6 2.055 . S
O14 C18 1.253 . S
H15 C11 0.931 . S
H16 C12 0.930 . S
O17 Co6 2.039 . S
O17 C7 1.265 . S
C18 O14 1.253 . S
C18 O19 1.227 . S
O19 C18 1.227 . S
N20 Co6 2.140 . S
N20 C23 1.346 . S
N20 C24 1.345 . S
C21 C22 1.387 . S
C21 C25 1.391 . S
C22 C21 1.387 . S
C22 C23 1.369 . S
C22 H31 0.929 . S
C23 N20 1.346 . S
C23 C22 1.369 . S
C23 H26 0.928 . S
C24 N20 1.345 . S
C24 C25 1.371 . S
C24 H27 0.931 . S
C25 C21 1.391 . S
C25 C24 1.371 . S
C25 H32 0.930 . S
H26 C23 0.928 . S
H27 C24 0.931 . S
H28 C4 0.930 . S
H29 C1 0.930 . S
H30 C10 0.930 . S
H31 C22 0.929 . S
H32 C25 0.930 . S
C33 C34 1.351 . S
C33 N36 1.368 . S
C33 H38 0.931 . S
C34 C33 1.351 . S
C34 N35 1.373 . S
C34 H62 0.930 . S
N35 C34 1.373 . S
N35 C37 1.340 . S
N36 C33 1.368 . S
N36 C37 1.321 . S
N36 Co39 2.135 . S
C37 N35 1.340 . S
C37 N36 1.321 . S
C37 H61 0.930 . S
H38 C33 0.931 . S
Co39 N36 2.135 . S
Co39 N42 2.121 . S
Co39 O47 2.055 . S
Co39 O50 2.039 . S
Co39 N53 2.140 . S
C40 O41 1.227 . S
C40 O50 1.265 . S
O41 C40 1.227 . S
N42 Co39 2.121 . S
N42 C44 1.375 . S
N42 C45 1.313 . S
C43 C44 1.338 . S
C43 N46 1.377 . S
C43 H63 0.930 . S
C44 N42 1.375 . S
C44 C43 1.338 . S
C44 H48 0.931 . S
C45 N42 1.313 . S
C45 N46 1.344 . S
C45 H49 0.930 . S
N46 C43 1.377 . S
N46 C45 1.344 . S
O47 Co39 2.055 . S
O47 C51 1.253 . S
H48 C44 0.931 . S
H49 C45 0.930 . S
O50 Co39 2.039 . S
O50 C40 1.265 . S
C51 O47 1.253 . S
C51 O52 1.227 . S
O52 C51 1.227 . S
N53 Co39 2.140 . S
N53 C56 1.346 . S
N53 C57 1.345 . S
C54 C55 1.387 . S
C54 C58 1.391 . S
C55 C54 1.387 . S
C55 C56 1.369 . S
C55 H64 0.929 . S
C56 N53 1.346 . S
C56 C55 1.369 . S
C56 H59 0.928 . S
C57 N53 1.345 . S
C57 C58 1.371 . S
C57 H60 0.931 . S
C58 C54 1.391 . S
C58 C57 1.371 . S
C58 H65 0.930 . S
H59 C56 0.928 . S
H60 C57 0.931 . S
H61 C37 0.930 . S
H62 C34 0.930 . S
H63 C43 0.930 . S
H64 C55 0.929 . S
H65 C58 0.930 . S
C66 C67 1.351 . S
C66 N69 1.368 . S
C66 H71 0.931 . S
C67 C66 1.351 . S
C67 N68 1.373 . S
C67 H95 0.930 . S
N68 C67 1.373 . S
N68 C70 1.340 . S
N69 C66 1.368 . S
N69 C70 1.321 . S
N69 Co72 2.135 . S
C70 N68 1.340 . S
C70 N69 1.321 . S
C70 H94 0.930 . S
H71 C66 0.931 . S
Co72 N69 2.135 . S
Co72 N75 2.121 . S
Co72 O80 2.055 . S
Co72 O83 2.039 . S
Co72 N86 2.140 . S
C73 O74 1.227 . S
C73 O83 1.265 . S
O74 C73 1.227 . S
N75 Co72 2.121 . S
N75 C77 1.375 . S
N75 C78 1.313 . S
C76 C77 1.338 . S
C76 N79 1.377 . S
C76 H96 0.930 . S
C77 N75 1.375 . S
C77 C76 1.338 . S
C77 H81 0.931 . S
C78 N75 1.313 . S
C78 N79 1.344 . S
C78 H82 0.930 . S
N79 C76 1.377 . S
N79 C78 1.344 . S
O80 Co72 2.055 . S
O80 C84 1.253 . S
H81 C77 0.931 . S
H82 C78 0.930 . S
O83 Co72 2.039 . S
O83 C73 1.265 . S
C84 O80 1.253 . S
C84 O85 1.227 . S
O85 C84 1.227 . S
N86 Co72 2.140 . S
N86 C89 1.346 . S
N86 C90 1.345 . S
C87 C88 1.387 . S
C87 C91 1.391 . S
C88 C87 1.387 . S
C88 C89 1.369 . S
C88 H97 0.929 . S
C89 N86 1.346 . S
C89 C88 1.369 . S
C89 H92 0.928 . S
C90 N86 1.345 . S
C90 C91 1.371 . S
C90 H93 0.931 . S
C91 C87 1.391 . S
C91 C90 1.371 . S
C91 H98 0.930 . S
H92 C89 0.928 . S
H93 C90 0.931 . S
H94 C70 0.930 . S
H95 C67 0.930 . S
H96 C76 0.930 . S
H97 C88 0.929 . S
H98 C91 0.930 . S
C99 C100 1.351 . S
C99 N102 1.368 . S
C99 H104 0.931 . S
C100 C99 1.351 . S
C100 N101 1.373 . S
C100 H128 0.930 . S
N101 C100 1.373 . S
N101 C103 1.340 . S
N102 C99 1.368 . S
N102 C103 1.321 . S
N102 Co105 2.135 . S
C103 N101 1.340 . S
C103 N102 1.321 . S
C103 H127 0.930 . S
H104 C99 0.931 . S
Co105 N102 2.135 . S
Co105 N108 2.121 . S
Co105 O113 2.055 . S
Co105 O116 2.039 . S
Co105 N119 2.140 . S
C106 O107 1.227 . S
C106 O116 1.265 . S
O107 C106 1.227 . S
N108 Co105 2.121 . S
N108 C110 1.375 . S
N108 C111 1.313 . S
C109 C110 1.338 . S
C109 N112 1.377 . S
C109 H129 0.930 . S
C110 N108 1.375 . S
C110 C109 1.338 . S
C110 H114 0.931 . S
C111 N108 1.313 . S
C111 N112 1.344 . S
C111 H115 0.930 . S
N112 C109 1.377 . S
N112 C111 1.344 . S
O113 Co105 2.055 . S
O113 C117 1.253 . S
H114 C110 0.931 . S
H115 C111 0.930 . S
O116 Co105 2.039 . S
O116 C106 1.265 . S
C117 O113 1.253 . S
C117 O118 1.227 . S
O118 C117 1.227 . S
N119 Co105 2.140 . S
N119 C122 1.346 . S
N119 C123 1.345 . S
C120 C121 1.387 . S
C120 C124 1.391 . S
C121 C120 1.387 . S
C121 C122 1.369 . S
C121 H130 0.929 . S
C122 N119 1.346 . S
C122 C121 1.369 . S
C122 H125 0.928 . S
C123 N119 1.345 . S
C123 C124 1.371 . S
C123 H126 0.931 . S
C124 C120 1.391 . S
C124 C123 1.371 . S
C124 H131 0.930 . S
H125 C122 0.928 . S
H126 C123 0.931 . S
H127 C103 0.930 . S
H128 C100 0.930 . S
H129 C109 0.930 . S
H130 C121 0.929 . S
H131 C124 0.930 . S
C132 C133 1.351 . S
C132 N135 1.368 . S
C132 H137 0.931 . S
C133 C132 1.351 . S
C133 N134 1.373 . S
C133 H161 0.930 . S
N134 C133 1.373 . S
N134 C136 1.340 . S
N135 C132 1.368 . S
N135 C136 1.321 . S
N135 Co138 2.135 . S
C136 N134 1.340 . S
C136 N135 1.321 . S
C136 H160 0.930 . S
H137 C132 0.931 . S
Co138 N135 2.135 . S
Co138 N141 2.121 . S
Co138 O146 2.055 . S
Co138 O149 2.039 . S
Co138 N152 2.140 . S
C139 O140 1.227 . S
C139 O149 1.265 . S
O140 C139 1.227 . S
N141 Co138 2.121 . S
N141 C143 1.375 . S
N141 C144 1.313 . S
C142 C143 1.338 . S
C142 N145 1.377 . S
C142 H162 0.930 . S
C143 N141 1.375 . S
C143 C142 1.338 . S
C143 H147 0.931 . S
C144 N141 1.313 . S
C144 N145 1.344 . S
C144 H148 0.930 . S
N145 C142 1.377 . S
N145 C144 1.344 . S
O146 Co138 2.055 . S
O146 C150 1.253 . S
H147 C143 0.931 . S
H148 C144 0.930 . S
O149 Co138 2.039 . S
O149 C139 1.265 . S
C150 O146 1.253 . S
C150 O151 1.227 . S
O151 C150 1.227 . S
N152 Co138 2.140 . S
N152 C155 1.346 . S
N152 C156 1.345 . S
C153 C154 1.387 . S
C153 C157 1.391 . S
C154 C153 1.387 . S
C154 C155 1.369 . S
C154 H163 0.929 . S
C155 N152 1.346 . S
C155 C154 1.369 . S
C155 H158 0.928 . S
C156 N152 1.345 . S
C156 C157 1.371 . S
C156 H159 0.931 . S
C157 C153 1.391 . S
C157 C156 1.371 . S
C157 H164 0.930 . S
H158 C155 0.928 . S
H159 C156 0.931 . S
H160 C136 0.930 . S
H161 C133 0.930 . S
H162 C142 0.930 . S
H163 C154 0.929 . S
H164 C157 0.930 . S
C165 C166 1.351 . S
C165 N168 1.368 . S
C165 H170 0.931 . S
C166 C165 1.351 . S
C166 N167 1.373 . S
C166 H194 0.930 . S
N167 C166 1.373 . S
N167 C169 1.340 . S
N168 C165 1.368 . S
N168 C169 1.321 . S
N168 Co171 2.135 . S
C169 N167 1.340 . S
C169 N168 1.321 . S
C169 H193 0.930 . S
H170 C165 0.931 . S
Co171 N168 2.135 . S
Co171 N174 2.121 . S
Co171 O179 2.055 . S
Co171 O182 2.039 . S
Co171 N185 2.140 . S
C172 O173 1.227 . S
C172 O182 1.265 . S
O173 C172 1.227 . S
N174 Co171 2.121 . S
N174 C176 1.375 . S
N174 C177 1.313 . S
C175 C176 1.338 . S
C175 N178 1.377 . S
C175 H195 0.930 . S
C176 N174 1.375 . S
C176 C175 1.338 . S
C176 H180 0.931 . S
C177 N174 1.313 . S
C177 N178 1.344 . S
C177 H181 0.930 . S
N178 C175 1.377 . S
N178 C177 1.344 . S
O179 Co171 2.055 . S
O179 C183 1.253 . S
H180 C176 0.931 . S
H181 C177 0.930 . S
O182 Co171 2.039 . S
O182 C172 1.265 . S
C183 O179 1.253 . S
C183 O184 1.227 . S
O184 C183 1.227 . S
N185 Co171 2.140 . S
N185 C188 1.346 . S
N185 C189 1.345 . S
C186 C187 1.387 . S
C186 C190 1.391 . S
C187 C186 1.387 . S
C187 C188 1.369 . S
C187 H196 0.929 . S
C188 N185 1.346 . S
C188 C187 1.369 . S
C188 H191 0.928 . S
C189 N185 1.345 . S
C189 C190 1.371 . S
C189 H192 0.931 . S
C190 C186 1.391 . S
C190 C189 1.371 . S
C190 H197 0.930 . S
H191 C188 0.928 . S
H192 C189 0.931 . S
H193 C169 0.930 . S
H194 C166 0.930 . S
H195 C175 0.930 . S
H196 C187 0.929 . S
H197 C190 0.930 . S
C198 C199 1.351 . S
C198 N201 1.368 . S
C198 H203 0.931 . S
C199 C198 1.351 . S
C199 N200 1.373 . S
C199 H227 0.930 . S
N200 C199 1.373 . S
N200 C202 1.340 . S
N201 C198 1.368 . S
N201 C202 1.321 . S
N201 Co204 2.135 . S
C202 N200 1.340 . S
C202 N201 1.321 . S
C202 H226 0.930 . S
H203 C198 0.931 . S
Co204 N201 2.135 . S
Co204 N207 2.121 . S
Co204 O212 2.055 . S
Co204 O215 2.039 . S
Co204 N218 2.140 . S
C205 O206 1.227 . S
C205 O215 1.265 . S
O206 C205 1.227 . S
N207 Co204 2.121 . S
N207 C209 1.375 . S
N207 C210 1.313 . S
C208 C209 1.338 . S
C208 N211 1.377 . S
C208 H228 0.930 . S
C209 N207 1.375 . S
C209 C208 1.338 . S
C209 H213 0.931 . S
C210 N207 1.313 . S
C210 N211 1.344 . S
C210 H214 0.930 . S
N211 C208 1.377 . S
N211 C210 1.344 . S
O212 Co204 2.055 . S
O212 C216 1.253 . S
H213 C209 0.931 . S
H214 C210 0.930 . S
O215 Co204 2.039 . S
O215 C205 1.265 . S
C216 O212 1.253 . S
C216 O217 1.227 . S
O217 C216 1.227 . S
N218 Co204 2.140 . S
N218 C221 1.346 . S
N218 C222 1.345 . S
C219 C220 1.387 . S
C219 C223 1.391 . S
C220 C219 1.387 . S
C220 C221 1.369 . S
C220 H229 0.929 . S
C221 N218 1.346 . S
C221 C220 1.369 . S
C221 H224 0.928 . S
C222 N218 1.345 . S
C222 C223 1.371 . S
C222 H225 0.931 . S
C223 C219 1.391 . S
C223 C222 1.371 . S
C223 H230 0.930 . S
H224 C221 0.928 . S
H225 C222 0.931 . S
H226 C202 0.930 . S
H227 C199 0.930 . S
H228 C208 0.930 . S
H229 C220 0.929 . S
H230 C223 0.930 . S
C231 C232 1.351 . S
C231 N234 1.368 . S
C231 H236 0.931 . S
C232 C231 1.351 . S
C232 N233 1.373 . S
C232 H260 0.930 . S
N233 C232 1.373 . S
N233 C235 1.340 . S
N234 C231 1.368 . S
N234 C235 1.321 . S
N234 Co237 2.135 . S
C235 N233 1.340 . S
C235 N234 1.321 . S
C235 H259 0.930 . S
H236 C231 0.931 . S
Co237 N234 2.135 . S
Co237 N240 2.121 . S
Co237 O245 2.055 . S
Co237 O248 2.039 . S
Co237 N251 2.140 . S
C238 O239 1.227 . S
C238 O248 1.265 . S
O239 C238 1.227 . S
N240 Co237 2.121 . S
N240 C242 1.375 . S
N240 C243 1.313 . S
C241 C242 1.338 . S
C241 N244 1.377 . S
C241 H261 0.930 . S
C242 N240 1.375 . S
C242 C241 1.338 . S
C242 H246 0.931 . S
C243 N240 1.313 . S
C243 N244 1.344 . S
C243 H247 0.930 . S
N244 C241 1.377 . S
N244 C243 1.344 . S
O245 Co237 2.055 . S
O245 C249 1.253 . S
H246 C242 0.931 . S
H247 C243 0.930 . S
O248 Co237 2.039 . S
O248 C238 1.265 . S
C249 O245 1.253 . S
C249 O250 1.227 . S
O250 C249 1.227 . S
N251 Co237 2.140 . S
N251 C254 1.346 . S
N251 C255 1.345 . S
C252 C253 1.387 . S
C252 C256 1.391 . S
C253 C252 1.387 . S
C253 C254 1.369 . S
C253 H262 0.929 . S
C254 N251 1.346 . S
C254 C253 1.369 . S
C254 H257 0.928 . S
C255 N251 1.345 . S
C255 C256 1.371 . S
C255 H258 0.931 . S
C256 C252 1.391 . S
C256 C255 1.371 . S
C256 H263 0.930 . S
H257 C254 0.928 . S
H258 C255 0.931 . S
H259 C235 0.930 . S
H260 C232 0.930 . S
H261 C241 0.930 . S
H262 C253 0.929 . S
H263 C256 0.930 . S
C264 C265 1.351 . S
C264 N267 1.368 . S
C264 H269 0.931 . S
C265 C264 1.351 . S
C265 N266 1.373 . S
C265 H293 0.930 . S
N266 C265 1.373 . S
N266 C268 1.340 . S
N267 C264 1.368 . S
N267 C268 1.321 . S
N267 Co270 2.135 . S
C268 N266 1.340 . S
C268 N267 1.321 . S
C268 H292 0.930 . S
H269 C264 0.931 . S
Co270 N267 2.135 . S
Co270 N273 2.121 . S
Co270 O278 2.055 . S
Co270 O281 2.039 . S
Co270 N284 2.140 . S
C271 O272 1.227 . S
C271 O281 1.265 . S
O272 C271 1.227 . S
N273 Co270 2.121 . S
N273 C275 1.375 . S
N273 C276 1.313 . S
C274 C275 1.338 . S
C274 N277 1.377 . S
C274 H294 0.930 . S
C275 N273 1.375 . S
C275 C274 1.338 . S
C275 H279 0.931 . S
C276 N273 1.313 . S
C276 N277 1.344 . S
C276 H280 0.930 . S
N277 C274 1.377 . S
N277 C276 1.344 . S
O278 Co270 2.055 . S
O278 C282 1.253 . S
H279 C275 0.931 . S
H280 C276 0.930 . S
O281 Co270 2.039 . S
O281 C271 1.265 . S
C282 O278 1.253 . S
C282 O283 1.227 . S
O283 C282 1.227 . S
N284 Co270 2.140 . S
N284 C287 1.346 . S
N284 C288 1.345 . S
C285 C286 1.387 . S
C285 C289 1.391 . S
C286 C285 1.387 . S
C286 C287 1.369 . S
C286 H295 0.929 . S
C287 N284 1.346 . S
C287 C286 1.369 . S
C287 H290 0.928 . S
C288 N284 1.345 . S
C288 C289 1.371 . S
C288 H291 0.931 . S
C289 C285 1.391 . S
C289 C288 1.371 . S
C289 H296 0.930 . S
H290 C287 0.928 . S
H291 C288 0.931 . S
H292 C268 0.930 . S
H293 C265 0.930 . S
H294 C274 0.930 . S
H295 C286 0.929 . S
H296 C289 0.930 . S
C297 C298 1.351 . S
C297 N300 1.368 . S
C297 H302 0.931 . S
C298 C297 1.351 . S
C298 N299 1.373 . S
C298 H326 0.930 . S
N299 C298 1.373 . S
N299 C301 1.340 . S
N300 C297 1.368 . S
N300 C301 1.321 . S
N300 Co303 2.135 . S
C301 N299 1.340 . S
C301 N300 1.321 . S
C301 H325 0.930 . S
H302 C297 0.931 . S
Co303 N300 2.135 . S
Co303 N306 2.121 . S
Co303 O311 2.055 . S
Co303 O314 2.039 . S
Co303 N317 2.140 . S
C304 O305 1.227 . S
C304 O314 1.265 . S
O305 C304 1.227 . S
N306 Co303 2.121 . S
N306 C308 1.375 . S
N306 C309 1.313 . S
C307 C308 1.338 . S
C307 N310 1.377 . S
C307 H327 0.930 . S
C308 N306 1.375 . S
C308 C307 1.338 . S
C308 H312 0.931 . S
C309 N306 1.313 . S
C309 N310 1.344 . S
C309 H313 0.930 . S
N310 C307 1.377 . S
N310 C309 1.344 . S
O311 Co303 2.055 . S
O311 C315 1.253 . S
H312 C308 0.931 . S
H313 C309 0.930 . S
O314 Co303 2.039 . S
O314 C304 1.265 . S
C315 O311 1.253 . S
C315 O316 1.227 . S
O316 C315 1.227 . S
N317 Co303 2.140 . S
N317 C320 1.346 . S
N317 C321 1.345 . S
C318 C319 1.387 . S
C318 C322 1.391 . S
C319 C318 1.387 . S
C319 C320 1.369 . S
C319 H328 0.929 . S
C320 N317 1.346 . S
C320 C319 1.369 . S
C320 H323 0.928 . S
C321 N317 1.345 . S
C321 C322 1.371 . S
C321 H324 0.931 . S
C322 C318 1.391 . S
C322 C321 1.371 . S
C322 H329 0.930 . S
H323 C320 0.928 . S
H324 C321 0.931 . S
H325 C301 0.930 . S
H326 C298 0.930 . S
H327 C307 0.930 . S
H328 C319 0.929 . S
H329 C322 0.930 . S
C330 C331 1.351 . S
C330 N333 1.368 . S
C330 H335 0.931 . S
C331 C330 1.351 . S
C331 N332 1.373 . S
C331 H359 0.930 . S
N332 C331 1.373 . S
N332 C334 1.340 . S
N333 C330 1.368 . S
N333 C334 1.321 . S
N333 Co336 2.135 . S
C334 N332 1.340 . S
C334 N333 1.321 . S
C334 H358 0.930 . S
H335 C330 0.931 . S
Co336 N333 2.135 . S
Co336 N339 2.121 . S
Co336 O344 2.055 . S
Co336 O347 2.039 . S
Co336 N350 2.140 . S
C337 O338 1.227 . S
C337 O347 1.265 . S
O338 C337 1.227 . S
N339 Co336 2.121 . S
N339 C341 1.375 . S
N339 C342 1.313 . S
C340 C341 1.338 . S
C340 N343 1.377 . S
C340 H360 0.930 . S
C341 N339 1.375 . S
C341 C340 1.338 . S
C341 H345 0.931 . S
C342 N339 1.313 . S
C342 N343 1.344 . S
C342 H346 0.930 . S
N343 C340 1.377 . S
N343 C342 1.344 . S
O344 Co336 2.055 . S
O344 C348 1.253 . S
H345 C341 0.931 . S
H346 C342 0.930 . S
O347 Co336 2.039 . S
O347 C337 1.265 . S
C348 O344 1.253 . S
C348 O349 1.227 . S
O349 C348 1.227 . S
N350 Co336 2.140 . S
N350 C353 1.346 . S
N350 C354 1.345 . S
C351 C352 1.387 . S
C351 C355 1.391 . S
C352 C351 1.387 . S
C352 C353 1.369 . S
C352 H361 0.929 . S
C353 N350 1.346 . S
C353 C352 1.369 . S
C353 H356 0.928 . S
C354 N350 1.345 . S
C354 C355 1.371 . S
C354 H357 0.931 . S
C355 C351 1.391 . S
C355 C354 1.371 . S
C355 H362 0.930 . S
H356 C353 0.928 . S
H357 C354 0.931 . S
H358 C334 0.930 . S
H359 C331 0.930 . S
H360 C340 0.930 . S
H361 C352 0.929 . S
H362 C355 0.930 . S
C363 C364 1.351 . S
C363 N366 1.368 . S
C363 H368 0.931 . S
C364 C363 1.351 . S
C364 N365 1.373 . S
C364 H392 0.930 . S
N365 C364 1.373 . S
N365 C367 1.340 . S
N366 C363 1.368 . S
N366 C367 1.321 . S
N366 Co369 2.135 . S
C367 N365 1.340 . S
C367 N366 1.321 . S
C367 H391 0.930 . S
H368 C363 0.931 . S
Co369 N366 2.135 . S
Co369 N372 2.121 . S
Co369 O377 2.055 . S
Co369 O380 2.039 . S
Co369 N383 2.140 . S
C370 O371 1.227 . S
C370 O380 1.265 . S
O371 C370 1.227 . S
N372 Co369 2.121 . S
N372 C374 1.375 . S
N372 C375 1.313 . S
C373 C374 1.338 . S
C373 N376 1.377 . S
C373 H393 0.930 . S
C374 N372 1.375 . S
C374 C373 1.338 . S
C374 H378 0.931 . S
C375 N372 1.313 . S
C375 N376 1.344 . S
C375 H379 0.930 . S
N376 C373 1.377 . S
N376 C375 1.344 . S
O377 Co369 2.055 . S
O377 C381 1.253 . S
H378 C374 0.931 . S
H379 C375 0.930 . S
O380 Co369 2.039 . S
O380 C370 1.265 . S
C381 O377 1.253 . S
C381 O382 1.227 . S
O382 C381 1.227 . S
N383 Co369 2.140 . S
N383 C386 1.346 . S
N383 C387 1.345 . S
C384 C385 1.387 . S
C384 C388 1.391 . S
C385 C384 1.387 . S
C385 C386 1.369 . S
C385 H394 0.929 . S
C386 N383 1.346 . S
C386 C385 1.369 . S
C386 H389 0.928 . S
C387 N383 1.345 . S
C387 C388 1.371 . S
C387 H390 0.931 . S
C388 C384 1.391 . S
C388 C387 1.371 . S
C388 H395 0.930 . S
H389 C386 0.928 . S
H390 C387 0.931 . S
H391 C367 0.930 . S
H392 C364 0.930 . S
H393 C373 0.930 . S
H394 C385 0.929 . S
H395 C388 0.930 . S
C396 C397 1.351 . S
C396 N399 1.368 . S
C396 H401 0.931 . S
C397 C396 1.351 . S
C397 N398 1.373 . S
C397 H425 0.930 . S
N398 C397 1.373 . S
N398 C400 1.340 . S
N399 C396 1.368 . S
N399 C400 1.321 . S
N399 Co402 2.135 . S
C400 N398 1.340 . S
C400 N399 1.321 . S
C400 H424 0.930 . S
H401 C396 0.931 . S
Co402 N399 2.135 . S
Co402 N405 2.121 . S
Co402 O410 2.055 . S
Co402 O413 2.039 . S
Co402 N416 2.140 . S
C403 O404 1.227 . S
C403 O413 1.265 . S
O404 C403 1.227 . S
N405 Co402 2.121 . S
N405 C407 1.375 . S
N405 C408 1.313 . S
C406 C407 1.338 . S
C406 N409 1.377 . S
C406 H426 0.930 . S
C407 N405 1.375 . S
C407 C406 1.338 . S
C407 H411 0.931 . S
C408 N405 1.313 . S
C408 N409 1.344 . S
C408 H412 0.930 . S
N409 C406 1.377 . S
N409 C408 1.344 . S
O410 Co402 2.055 . S
O410 C414 1.253 . S
H411 C407 0.931 . S
H412 C408 0.930 . S
O413 Co402 2.039 . S
O413 C403 1.265 . S
C414 O410 1.253 . S
C414 O415 1.227 . S
O415 C414 1.227 . S
N416 Co402 2.140 . S
N416 C419 1.346 . S
N416 C420 1.345 . S
C417 C418 1.387 . S
C417 C421 1.391 . S
C418 C417 1.387 . S
C418 C419 1.369 . S
C418 H427 0.929 . S
C419 N416 1.346 . S
C419 C418 1.369 . S
C419 H422 0.928 . S
C420 N416 1.345 . S
C420 C421 1.371 . S
C420 H423 0.931 . S
C421 C417 1.391 . S
C421 C420 1.371 . S
C421 H428 0.930 . S
H422 C419 0.928 . S
H423 C420 0.931 . S
H424 C400 0.930 . S
H425 C397 0.930 . S
H426 C406 0.930 . S
H427 C418 0.929 . S
H428 C421 0.930 . S
C429 C430 1.351 . S
C429 N432 1.368 . S
C429 H434 0.931 . S
C430 C429 1.351 . S
C430 N431 1.373 . S
C430 H458 0.930 . S
N431 C430 1.373 . S
N431 C433 1.340 . S
N432 C429 1.368 . S
N432 C433 1.321 . S
N432 Co435 2.135 . S
C433 N431 1.340 . S
C433 N432 1.321 . S
C433 H457 0.930 . S
H434 C429 0.931 . S
Co435 N432 2.135 . S
Co435 N438 2.121 . S
Co435 O443 2.055 . S
Co435 O446 2.039 . S
Co435 N449 2.140 . S
C436 O437 1.227 . S
C436 O446 1.265 . S
O437 C436 1.227 . S
N438 Co435 2.121 . S
N438 C440 1.375 . S
N438 C441 1.313 . S
C439 C440 1.338 . S
C439 N442 1.377 . S
C439 H459 0.930 . S
C440 N438 1.375 . S
C440 C439 1.338 . S
C440 H444 0.931 . S
C441 N438 1.313 . S
C441 N442 1.344 . S
C441 H445 0.930 . S
N442 C439 1.377 . S
N442 C441 1.344 . S
O443 Co435 2.055 . S
O443 C447 1.253 . S
H444 C440 0.931 . S
H445 C441 0.930 . S
O446 Co435 2.039 . S
O446 C436 1.265 . S
C447 O443 1.253 . S
C447 O448 1.227 . S
O448 C447 1.227 . S
N449 Co435 2.140 . S
N449 C452 1.346 . S
N449 C453 1.345 . S
C450 C451 1.387 . S
C450 C454 1.391 . S
C451 C450 1.387 . S
C451 C452 1.369 . S
C451 H460 0.929 . S
C452 N449 1.346 . S
C452 C451 1.369 . S
C452 H455 0.928 . S
C453 N449 1.345 . S
C453 C454 1.371 . S
C453 H456 0.931 . S
C454 C450 1.391 . S
C454 C453 1.371 . S
C454 H461 0.930 . S
H455 C452 0.928 . S
H456 C453 0.931 . S
H457 C433 0.930 . S
H458 C430 0.930 . S
H459 C439 0.930 . S
H460 C451 0.929 . S
H461 C454 0.930 . S
C462 C463 1.351 . S
C462 N465 1.368 . S
C462 H467 0.931 . S
C463 C462 1.351 . S
C463 N464 1.373 . S
C463 H491 0.930 . S
N464 C463 1.373 . S
N464 C466 1.340 . S
N465 C462 1.368 . S
N465 C466 1.321 . S
N465 Co468 2.135 . S
C466 N464 1.340 . S
C466 N465 1.321 . S
C466 H490 0.930 . S
H467 C462 0.931 . S
Co468 N465 2.135 . S
Co468 N471 2.121 . S
Co468 O476 2.055 . S
Co468 O479 2.039 . S
Co468 N482 2.140 . S
C469 O470 1.227 . S
C469 O479 1.265 . S
O470 C469 1.227 . S
N471 Co468 2.121 . S
N471 C473 1.375 . S
N471 C474 1.313 . S
C472 C473 1.338 . S
C472 N475 1.377 . S
C472 H492 0.930 . S
C473 N471 1.375 . S
C473 C472 1.338 . S
C473 H477 0.931 . S
C474 N471 1.313 . S
C474 N475 1.344 . S
C474 H478 0.930 . S
N475 C472 1.377 . S
N475 C474 1.344 . S
O476 Co468 2.055 . S
O476 C480 1.253 . S
H477 C473 0.931 . S
H478 C474 0.930 . S
O479 Co468 2.039 . S
O479 C469 1.265 . S
C480 O476 1.253 . S
C480 O481 1.227 . S
O481 C480 1.227 . S
N482 Co468 2.140 . S
N482 C485 1.346 . S
N482 C486 1.345 . S
C483 C484 1.387 . S
C483 C487 1.391 . S
C484 C483 1.387 . S
C484 C485 1.369 . S
C484 H493 0.929 . S
C485 N482 1.346 . S
C485 C484 1.369 . S
C485 H488 0.928 . S
C486 N482 1.345 . S
C486 C487 1.371 . S
C486 H489 0.931 . S
C487 C483 1.391 . S
C487 C486 1.371 . S
C487 H494 0.930 . S
H488 C485 0.928 . S
H489 C486 0.931 . S
H490 C466 0.930 . S
H491 C463 0.930 . S
H492 C472 0.930 . S
H493 C484 0.929 . S
H494 C487 0.930 . S
C495 C496 1.351 . S
C495 N498 1.368 . S
C495 H500 0.931 . S
C496 C495 1.351 . S
C496 N497 1.373 . S
C496 H524 0.930 . S
N497 C496 1.373 . S
N497 C499 1.340 . S
N498 C495 1.368 . S
N498 C499 1.321 . S
N498 Co501 2.135 . S
C499 N497 1.340 . S
C499 N498 1.321 . S
C499 H523 0.930 . S
H500 C495 0.931 . S
Co501 N498 2.135 . S
Co501 N504 2.121 . S
Co501 O509 2.055 . S
Co501 O512 2.039 . S
Co501 N515 2.140 . S
C502 O503 1.227 . S
C502 O512 1.265 . S
O503 C502 1.227 . S
N504 Co501 2.121 . S
N504 C506 1.375 . S
N504 C507 1.313 . S
C505 C506 1.338 . S
C505 N508 1.377 . S
C505 H525 0.930 . S
C506 N504 1.375 . S
C506 C505 1.338 . S
C506 H510 0.931 . S
C507 N504 1.313 . S
C507 N508 1.344 . S
C507 H511 0.930 . S
N508 C505 1.377 . S
N508 C507 1.344 . S
O509 Co501 2.055 . S
O509 C513 1.253 . S
H510 C506 0.931 . S
H511 C507 0.930 . S
O512 Co501 2.039 . S
O512 C502 1.265 . S
C513 O509 1.253 . S
C513 O514 1.227 . S
O514 C513 1.227 . S
N515 Co501 2.140 . S
N515 C518 1.346 . S
N515 C519 1.345 . S
C516 C517 1.387 . S
C516 C520 1.391 . S
C517 C516 1.387 . S
C517 C518 1.369 . S
C517 H526 0.929 . S
C518 N515 1.346 . S
C518 C517 1.369 . S
C518 H521 0.928 . S
C519 N515 1.345 . S
C519 C520 1.371 . S
C519 H522 0.931 . S
C520 C516 1.391 . S
C520 C519 1.371 . S
C520 H527 0.930 . S
H521 C518 0.928 . S
H522 C519 0.931 . S
H523 C499 0.930 . S
H524 C496 0.930 . S
H525 C505 0.930 . S
H526 C517 0.929 . S
H527 C520 0.930 . S
H528 C534 0.930 . S
H529 C537 0.930 . S
H530 C538 0.930 . S
H531 C539 0.930 . S
H532 C542 0.930 . S
H533 C543 0.935 . S
C534 H528 0.930 . S
C534 C535 1.355 . S
C534 C536 1.415 . S
C535 C534 1.355 . S
C535 C537 1.419 . S
C536 C534 1.415 . S
C536 C541 1.425 . S
C536 C543 1.409 1_655 S
C537 H529 0.930 . S
C537 C535 1.419 . S
C537 C538 1.362 . S
C538 H530 0.930 . S
C538 C537 1.362 . S
C538 C541 1.409 . S
C539 H531 0.930 . S
C539 C540 1.355 . S
C539 C541 1.415 1_455 S
C540 C539 1.355 . S
C540 C542 1.419 . S
C541 C536 1.425 . S
C541 C538 1.409 . S
C541 C539 1.415 1_655 S
C542 H532 0.930 . S
C542 C540 1.419 . S
C542 C543 1.362 . S
C543 H533 0.935 . S
C543 C536 1.409 1_455 S
C543 C542 1.362 . S
H544 C550 0.930 . S
H545 C553 0.930 . S
H546 C554 0.930 . S
H547 C555 0.930 . S
H548 C558 0.930 . S
H549 C559 0.930 . S
C550 H544 0.930 . S
C550 C551 1.355 . S
C550 C552 1.432 . S
C551 C550 1.355 . S
C551 C553 1.419 . S
C552 C550 1.432 . S
C552 C557 1.422 1_545 S
C552 C559 1.395 1_545 S
C553 H545 0.930 . S
C553 C551 1.419 . S
C553 C554 1.362 . S
C554 H546 0.930 . S
C554 C553 1.362 . S
C554 C557 1.409 1_545 S
C555 H547 0.930 . S
C555 C556 1.355 . S
C555 C557 1.415 . S
C556 C555 1.355 . S
C556 C558 1.419 . S
C557 C552 1.422 1_565 S
C557 C554 1.409 1_565 S
C557 C555 1.415 . S
C558 H548 0.930 . S
C558 C556 1.419 . S
C558 C559 1.362 . S
C559 H549 0.930 . S
C559 C552 1.395 1_565 S
C559 C558 1.362 . S
H560 C566 0.930 . S
H561 C569 0.930 . S
H562 C570 0.930 . S
H563 C571 0.930 . S
H564 C574 0.930 . S
H565 C575 0.930 . S
C566 H560 0.930 . S
C566 C567 1.355 . S
C566 C568 1.415 1_655 S
C567 C566 1.355 . S
C567 C569 1.419 . S
C568 C566 1.415 1_455 S
C568 C573 1.425 . S
C568 C575 1.409 . S
C569 H561 0.930 . S
C569 C567 1.419 . S
C569 C570 1.362 . S
C570 H562 0.930 . S
C570 C569 1.362 . S
C570 C573 1.409 1_655 S
C571 H563 0.930 . S
C571 C572 1.355 . S
C571 C573 1.415 . S
C572 C571 1.355 . S
C572 C574 1.419 . S
C573 C568 1.425 . S
C573 C570 1.409 1_455 S
C573 C571 1.415 . S
C574 H564 0.930 . S
C574 C572 1.419 . S
C574 C575 1.362 . S
C575 H565 0.930 . S
C575 C568 1.409 . S
C575 C574 1.362 . S
H576 C582 0.930 . S
H577 C585 0.930 . S
H578 C586 0.924 1_545 S
H579 C587 0.930 . S
H580 C590 0.930 . S
H581 C591 0.930 . S
C582 H576 0.930 . S
C582 C583 1.355 . S
C582 C584 1.415 1_565 S
C583 C582 1.355 . S
C583 C585 1.419 . S
C584 C582 1.415 1_545 S
C584 C589 1.425 . S
C584 C591 1.409 . S
C585 H577 0.930 . S
C585 C583 1.419 . S
C585 C586 1.362 . S
C586 H578 0.924 1_565 S
C586 C585 1.362 . S
C586 C589 1.409 1_565 S
C587 H579 0.930 . S
C587 C588 1.355 . S
C587 C589 1.415 . S
C588 C587 1.355 . S
C588 C590 1.419 . S
C589 C584 1.425 . S
C589 C586 1.409 1_545 S
C589 C587 1.415 . S
C590 H580 0.930 . S
C590 C588 1.419 . S
C590 C591 1.362 . S
C591 H581 0.930 . S
C591 C584 1.409 . S
C591 C590 1.362 . S
H592 C598 0.930 . S
H593 C601 0.930 . S
H594 C602 0.930 . S
H595 C603 0.930 . S
H596 C606 0.930 . S
H597 C607 0.930 . S
C598 H592 0.930 . S
C598 C599 1.355 . S
C598 C600 1.415 . S
C599 C598 1.355 . S
C599 C601 1.419 . S
C600 C598 1.415 . S
C600 C605 1.425 1_655 S
C600 C607 1.409 1_655 S
C601 H593 0.930 . S
C601 C599 1.419 . S
C601 C602 1.362 . S
C602 H594 0.930 . S
C602 C601 1.362 . S
C602 C605 1.409 1_655 S
C603 H595 0.930 . S
C603 C604 1.355 . S
C603 C605 1.415 . S
C604 C603 1.355 . S
C604 C606 1.419 . S
C605 C600 1.425 1_455 S
C605 C602 1.409 1_455 S
C605 C603 1.415 . S
C606 H596 0.930 . S
C606 C604 1.419 . S
C606 C607 1.362 . S
C607 H597 0.930 . S
C607 C600 1.409 1_455 S
C607 C606 1.362 . S
H608 C614 0.930 . S
H609 C617 0.930 . S
H610 C618 0.930 . S
H611 C619 0.930 . S
H612 C622 0.930 . S
H613 C623 0.941 . S
C614 H608 0.930 . S
C614 C615 1.355 . S
C614 C616 1.415 . S
C615 C614 1.355 . S
C615 C617 1.419 . S
C616 C614 1.415 . S
C616 C621 1.426 . S
C616 C623 1.422 . S
C617 H609 0.930 . S
C617 C615 1.419 . S
C617 C618 1.362 . S
C618 H610 0.930 . S
C618 C617 1.362 . S
C618 C621 1.410 . S
C619 H611 0.930 . S
C619 C620 1.355 . S
C619 C621 1.413 1_545 S
C620 C619 1.355 . S
C620 C622 1.419 . S
C621 C616 1.426 . S
C621 C618 1.410 . S
C621 C619 1.413 1_565 S
C622 H612 0.930 . S
C622 C620 1.419 . S
C622 C623 1.339 1_545 S
C623 H613 0.941 . S
C623 C616 1.422 . S
C623 C622 1.339 1_565 S
H624 C630 0.930 . S
H625 C633 0.930 . S
H626 C634 0.930 1_455 S
H627 C635 0.930 . S
H628 C638 0.930 . S
H629 C639 0.930 . S
C630 H624 0.930 . S
C630 C631 1.355 . S
C630 C632 1.415 . S
C631 C630 1.355 . S
C631 C633 1.419 . S
C632 C630 1.415 . S
C632 C637 1.425 1_655 S
C632 C639 1.409 1_655 S
C633 H625 0.930 . S
C633 C631 1.419 . S
C633 C634 1.362 . S
C634 H626 0.930 1_655 S
C634 C633 1.362 . S
C634 C637 1.409 1_655 S
C635 H627 0.930 . S
C635 C636 1.355 . S
C635 C637 1.415 . S
C636 C635 1.355 . S
C636 C638 1.419 . S
C637 C632 1.425 1_455 S
C637 C634 1.409 1_455 S
C637 C635 1.415 . S
C638 H628 0.930 . S
C638 C636 1.419 . S
C638 C639 1.362 . S
C639 H629 0.930 . S
C639 C632 1.409 1_455 S
C639 C638 1.362 . S
H640 C646 0.930 . S
H641 C649 0.930 . S
H642 C650 0.930 . S
H643 C651 0.930 . S
H644 C654 0.930 . S
H645 C655 0.930 . S
C646 H640 0.930 . S
C646 C647 1.355 . S
C646 C648 1.415 . S
C647 C646 1.355 . S
C647 C649 1.419 . S
C648 C646 1.415 . S
C648 C653 1.425 1_545 S
C648 C655 1.409 1_545 S
C649 H641 0.930 . S
C649 C647 1.419 . S
C649 C650 1.362 . S
C650 H642 0.930 . S
C650 C649 1.362 . S
C650 C653 1.409 1_545 S
C651 H643 0.930 . S
C651 C652 1.355 . S
C651 C653 1.415 . S
C652 C651 1.355 . S
C652 C654 1.419 . S
C653 C648 1.425 1_565 S
C653 C650 1.409 1_565 S
C653 C651 1.415 . S
C654 H644 0.930 . S
C654 C652 1.419 . S
C654 C655 1.362 . S
C655 H645 0.930 . S
C655 C648 1.409 1_565 S
C655 C654 1.362 . S
H656 C662 0.930 . S
H657 C665 0.930 . S
H658 C666 0.930 . S
H659 C667 0.930 . S
H660 C670 0.930 . S
H661 C671 0.930 . S
C662 H656 0.930 . S
C662 C663 1.355 . S
C662 C664 1.415 . S
C663 C662 1.355 . S
C663 C665 1.419 . S
C664 C662 1.415 . S
C664 C669 1.425 . S
C664 C671 1.409 . S
C665 H657 0.930 . S
C665 C663 1.419 . S
C665 C666 1.362 . S
C666 H658 0.930 . S
C666 C665 1.362 . S
C666 C669 1.409 . S
C667 H659 0.930 . S
C667 C668 1.355 . S
C667 C669 1.415 . S
C668 C667 1.355 . S
C668 C670 1.419 . S
C669 C664 1.425 . S
C669 C666 1.409 . S
C669 C667 1.415 . S
C670 H660 0.930 . S
C670 C668 1.419 . S
C670 C671 1.362 . S
C671 H661 0.930 . S
C671 C664 1.409 . S
C671 C670 1.362 . S
H672 C678 0.930 . S
H673 C681 0.930 . S
H674 C682 0.930 . S
H675 C683 0.930 . S
H676 C686 0.930 . S
H677 C687 0.930 . S
C678 H672 0.930 . S
C678 C679 1.355 . S
C678 C680 1.415 . S
C679 C678 1.355 . S
C679 C681 1.419 . S
C680 C678 1.415 . S
C680 C685 1.425 . S
C680 C687 1.409 . S
C681 H673 0.930 . S
C681 C679 1.419 . S
C681 C682 1.362 . S
C682 H674 0.930 . S
C682 C681 1.362 . S
C682 C685 1.409 . S
C683 H675 0.930 . S
C683 C684 1.355 . S
C683 C685 1.415 . S
C684 C683 1.355 . S
C684 C686 1.419 . S
C685 C680 1.425 . S
C685 C682 1.409 . S
C685 C683 1.415 . S
C686 H676 0.930 . S
C686 C684 1.419 . S
C686 C687 1.362 . S
C687 H677 0.930 . S
C687 C680 1.409 . S
C687 C686 1.362 . S
H688 C694 0.930 . S
H689 C697 0.930 . S
H690 C698 0.930 . S
H691 C699 0.930 . S
H692 C702 0.930 . S
H693 C703 0.930 . S
C694 H688 0.930 . S
C694 C695 1.355 . S
C694 C696 1.415 . S
C695 C694 1.355 . S
C695 C697 1.419 . S
C696 C694 1.415 . S
C696 C701 1.425 . S
C696 C703 1.409 . S
C697 H689 0.930 . S
C697 C695 1.419 . S
C697 C698 1.362 . S
C698 H690 0.930 . S
C698 C697 1.362 . S
C698 C701 1.409 . S
C699 H691 0.930 . S
C699 C700 1.355 . S
C699 C701 1.415 . S
C700 C699 1.355 . S
C700 C702 1.419 . S
C701 C696 1.425 . S
C701 C698 1.409 . S
C701 C699 1.415 . S
C702 H692 0.930 . S
C702 C700 1.419 . S
C702 C703 1.362 . S
C703 H693 0.930 . S
C703 C696 1.409 . S
C703 C702 1.362 . S
H704 C710 0.930 . S
H705 C713 0.930 . S
H706 C714 0.930 . S
H707 C715 0.930 . S
H708 C718 0.930 . S
H709 C719 0.930 . S
C710 H704 0.930 . S
C710 C711 1.355 . S
C710 C712 1.415 . S
C711 C710 1.355 . S
C711 C713 1.419 . S
C712 C710 1.415 . S
C712 C717 1.425 . S
C712 C719 1.409 . S
C713 H705 0.930 . S
C713 C711 1.419 . S
C713 C714 1.362 . S
C714 H706 0.930 . S
C714 C713 1.362 . S
C714 C717 1.409 . S
C715 H707 0.930 . S
C715 C716 1.355 . S
C715 C717 1.415 . S
C716 C715 1.355 . S
C716 C718 1.419 . S
C717 C712 1.425 . S
C717 C714 1.409 . S
C717 C715 1.415 . S
C718 H708 0.930 . S
C718 C716 1.419 . S
C718 C719 1.362 . S
C719 H709 0.930 . S
C719 C712 1.409 . S
C719 C718 1.362 . S
H720 C726 0.930 . S
H721 C729 0.930 . S
H722 C730 0.930 . S
H723 C731 0.930 . S
H724 C734 0.930 . S
H725 C735 0.930 . S
C726 H720 0.930 . S
C726 C727 1.355 . S
C726 C728 1.415 . S
C727 C726 1.355 . S
C727 C729 1.419 . S
C728 C726 1.415 . S
C728 C733 1.425 . S
C728 C735 1.409 . S
C729 H721 0.930 . S
C729 C727 1.419 . S
C729 C730 1.362 . S
C730 H722 0.930 . S
C730 C729 1.362 . S
C730 C733 1.409 . S
C731 H723 0.930 . S
C731 C732 1.355 . S
C731 C733 1.415 . S
C732 C731 1.355 . S
C732 C734 1.419 . S
C733 C728 1.425 . S
C733 C730 1.409 . S
C733 C731 1.415 . S
C734 H724 0.930 . S
C734 C732 1.419 . S
C734 C735 1.362 . S
C735 H725 0.930 . S
C735 C728 1.409 . S
C735 C734 1.362 . S
H736 C742 0.930 . S
H737 C745 0.930 . S
H738 C746 0.930 . S
H739 C747 0.930 . S
H740 C750 0.930 . S
H741 C751 0.930 . S
C742 H736 0.930 . S
C742 C743 1.355 . S
C742 C744 1.415 . S
C743 C742 1.355 . S
C743 C745 1.419 . S
C744 C742 1.415 . S
C744 C749 1.425 . S
C744 C751 1.409 . S
C745 H737 0.930 . S
C745 C743 1.419 . S
C745 C746 1.362 . S
C746 H738 0.930 . S
C746 C745 1.362 . S
C746 C749 1.409 . S
C747 H739 0.930 . S
C747 C748 1.355 . S
C747 C749 1.415 . S
C748 C747 1.355 . S
C748 C750 1.419 . S
C749 C744 1.425 . S
C749 C746 1.409 . S
C749 C747 1.415 . S
C750 H740 0.930 . S
C750 C748 1.419 . S
C750 C751 1.362 . S
C751 H741 0.930 . S
C751 C744 1.409 . S
C751 C750 1.362 . S
H752 C758 0.930 . S
H753 C761 0.930 . S
H754 C762 0.930 . S
H755 C763 0.930 . S
H756 C766 0.930 . S
H757 C767 0.930 . S
C758 H752 0.930 . S
C758 C759 1.355 . S
C758 C760 1.415 . S
C759 C758 1.355 . S
C759 C761 1.419 . S
C760 C758 1.415 . S
C760 C765 1.425 . S
C760 C767 1.409 . S
C761 H753 0.930 . S
C761 C759 1.419 . S
C761 C762 1.362 . S
C762 H754 0.930 . S
C762 C761 1.362 . S
C762 C765 1.409 . S
C763 H755 0.930 . S
C763 C764 1.355 . S
C763 C765 1.415 . S
C764 C763 1.355 . S
C764 C766 1.419 . S
C765 C760 1.425 . S
C765 C762 1.409 . S
C765 C763 1.415 . S
C766 H756 0.930 . S
C766 C764 1.419 . S
C766 C767 1.362 . S
C767 H757 0.930 . S
C767 C760 1.409 . S
C767 C766 1.362 . S
H768 C774 0.930 . S
H769 C777 0.930 . S
H770 C778 0.930 . S
H771 C779 0.930 . S
H772 C782 0.930 . S
H773 C783 0.930 . S
C774 H768 0.930 . S
C774 C775 1.355 . S
C774 C776 1.415 . S
C775 C774 1.355 . S
C775 C777 1.419 . S
C776 C774 1.415 . S
C776 C781 1.425 . S
C776 C783 1.409 . S
C777 H769 0.930 . S
C777 C775 1.419 . S
C777 C778 1.362 . S
C778 H770 0.930 . S
C778 C777 1.362 . S
C778 C781 1.409 . S
C779 H771 0.930 . S
C779 C780 1.355 . S
C779 C781 1.415 . S
C780 C779 1.355 . S
C780 C782 1.419 . S
C781 C776 1.425 . S
C781 C778 1.409 . S
C781 C779 1.415 . S
C782 H772 0.930 . S
C782 C780 1.419 . S
C782 C783 1.362 . S
C783 H773 0.930 . S
C783 C776 1.409 . S
C783 C782 1.362 . S
H784 C790 0.930 . S
H785 C793 0.930 . S
H786 C794 0.930 . S
H787 C795 0.930 . S
H788 C798 0.930 . S
H789 C799 0.930 . S
C790 H784 0.930 . S
C790 C791 1.355 . S
C790 C792 1.415 . S
C791 C790 1.355 . S
C791 C793 1.419 . S
C792 C790 1.415 . S
C792 C797 1.425 1_554 S
C792 C799 1.409 1_554 S
C793 H785 0.930 . S
C793 C791 1.419 . S
C793 C794 1.362 . S
C794 H786 0.930 . S
C794 C793 1.362 . S
C794 C797 1.409 1_554 S
C795 H787 0.930 . S
C795 C796 1.355 . S
C795 C797 1.415 . S
C796 C795 1.355 . S
C796 C798 1.419 . S
C797 C792 1.425 1_556 S
C797 C794 1.409 1_556 S
C797 C795 1.415 . S
C798 H788 0.930 . S
C798 C796 1.419 . S
C798 C799 1.362 . S
C799 H789 0.930 . S
C799 C792 1.409 1_556 S
C799 C798 1.362 . S
H800 C806 0.930 . S
H801 C809 0.930 . S
H802 C810 0.930 . S
H803 C811 0.930 . S
H804 C814 0.930 . S
H805 C815 0.930 . S
C806 H800 0.930 . S
C806 C807 1.355 . S
C806 C808 1.415 . S
C807 C806 1.355 . S
C807 C809 1.419 . S
C808 C806 1.415 . S
C808 C813 1.425 . S
C808 C815 1.409 . S
C809 H801 0.930 . S
C809 C807 1.419 . S
C809 C810 1.362 . S
C810 H802 0.930 . S
C810 C809 1.362 . S
C810 C813 1.409 . S
C811 H803 0.930 . S
C811 C812 1.355 . S
C811 C813 1.415 . S
C812 C811 1.355 . S
C812 C814 1.419 . S
C813 C808 1.425 . S
C813 C810 1.409 . S
C813 C811 1.415 . S
C814 H804 0.930 . S
C814 C812 1.419 . S
C814 C815 1.362 . S
C815 H805 0.930 . S
C815 C808 1.409 . S
C815 C814 1.362 . S
H816 C822 0.930 . S
H817 C825 0.930 . S
H818 C826 0.930 . S
H819 C827 0.930 . S
H820 C830 0.930 . S
H821 C831 0.930 . S
C822 H816 0.930 . S
C822 C823 1.355 . S
C822 C824 1.415 . S
C823 C822 1.355 . S
C823 C825 1.419 . S
C824 C822 1.415 . S
C824 C829 1.425 1_556 S
C824 C831 1.409 1_556 S
C825 H817 0.930 . S
C825 C823 1.419 . S
C825 C826 1.362 . S
C826 H818 0.930 . S
C826 C825 1.362 . S
C826 C829 1.409 1_556 S
C827 H819 0.930 . S
C827 C828 1.355 . S
C827 C829 1.415 . S
C828 C827 1.355 . S
C828 C830 1.419 . S
C829 C824 1.425 1_554 S
C829 C826 1.409 1_554 S
C829 C827 1.415 . S
C830 H820 0.930 . S
C830 C828 1.419 . S
C830 C831 1.362 . S
C831 H821 0.930 . S
C831 C824 1.409 1_554 S
C831 C830 1.362 . S
H832 C838 0.930 . S
H833 C841 0.930 . S
H834 C842 0.930 . S
H835 C843 0.930 . S
H836 C846 0.930 . S
H837 C847 0.930 . S
C838 H832 0.930 . S
C838 C839 1.355 . S
C838 C840 1.415 . S
C839 C838 1.355 . S
C839 C841 1.419 . S
C840 C838 1.415 . S
C840 C845 1.425 . S
C840 C847 1.409 . S
C841 H833 0.930 . S
C841 C839 1.419 . S
C841 C842 1.362 . S
C842 H834 0.930 . S
C842 C841 1.362 . S
C842 C845 1.409 . S
C843 H835 0.930 . S
C843 C844 1.355 . S
C843 C845 1.415 . S
C844 C843 1.355 . S
C844 C846 1.419 . S
C845 C840 1.425 . S
C845 C842 1.409 . S
C845 C843 1.415 . S
C846 H836 0.930 . S
C846 C844 1.419 . S
C846 C847 1.362 . S
C847 H837 0.930 . S
C847 C840 1.409 . S
C847 C846 1.362 . S
H848 C854 0.930 . S
H849 C857 0.930 . S
H850 C858 0.930 . S
H851 C859 0.930 . S
H852 C862 0.930 . S
H853 C863 0.930 . S
C854 H848 0.930 . S
C854 C855 1.355 . S
C854 C856 1.415 . S
C855 C854 1.355 . S
C855 C857 1.419 . S
C856 C854 1.415 . S
C856 C861 1.425 1_556 S
C856 C863 1.409 1_556 S
C857 H849 0.930 . S
C857 C855 1.419 . S
C857 C858 1.362 . S
C858 H850 0.930 . S
C858 C857 1.362 . S
C858 C861 1.409 1_556 S
C859 H851 0.930 . S
C859 C860 1.355 . S
C859 C861 1.415 . S
C860 C859 1.355 . S
C860 C862 1.419 . S
C861 C856 1.425 1_554 S
C861 C858 1.409 1_554 S
C861 C859 1.415 . S
C862 H852 0.930 . S
C862 C860 1.419 . S
C862 C863 1.362 . S
C863 H853 0.930 . S
C863 C856 1.409 1_554 S
C863 C862 1.362 . S
H864 C870 0.930 . S
H865 C873 0.930 . S
H866 C874 0.930 . S
H867 C875 0.930 . S
H868 C878 0.930 . S
H869 C879 0.930 . S
C870 H864 0.930 . S
C870 C871 1.355 . S
C870 C872 1.415 . S
C871 C870 1.355 . S
C871 C873 1.419 . S
C872 C870 1.415 . S
C872 C877 1.425 . S
C872 C879 1.409 . S
C873 H865 0.930 . S
C873 C871 1.419 . S
C873 C874 1.362 . S
C874 H866 0.930 . S
C874 C873 1.362 . S
C874 C877 1.409 . S
C875 H867 0.930 . S
C875 C876 1.355 . S
C875 C877 1.415 . S
C876 C875 1.355 . S
C876 C878 1.419 . S
C877 C872 1.425 . S
C877 C874 1.409 . S
C877 C875 1.415 . S
C878 H868 0.930 . S
C878 C876 1.419 . S
C878 C879 1.362 . S
C879 H869 0.930 . S
C879 C872 1.409 . S
C879 C878 1.362 . S
H880 C886 0.930 . S
H881 C889 0.930 . S
H882 C890 0.930 . S
H883 C891 0.930 . S
H884 C894 0.930 . S
H885 C895 0.930 . S
C886 H880 0.930 . S
C886 C887 1.355 . S
C886 C888 1.415 . S
C887 C886 1.355 . S
C887 C889 1.419 . S
C888 C886 1.415 . S
C888 C893 1.416 1_554 S
C888 C895 1.409 1_554 S
C889 H881 0.930 . S
C889 C887 1.419 . S
C889 C890 1.362 . S
C890 H882 0.930 . S
C890 C889 1.362 . S
C890 C893 1.382 1_554 S
C891 H883 0.930 . S
C891 C892 1.355 . S
C891 C893 1.451 . S
C892 C891 1.355 . S
C892 C894 1.419 . S
C893 C888 1.416 1_556 S
C893 C890 1.382 1_556 S
C893 C891 1.451 . S
C894 H884 0.930 . S
C894 C892 1.419 . S
C894 C895 1.362 . S
C895 H885 0.930 . S
C895 C888 1.409 1_556 S
C895 C894 1.362 . S
H896 C902 0.930 . S
H897 C905 0.930 . S
H898 C906 0.930 . S
H899 C907 0.930 . S
H900 C910 0.930 . S
H901 C911 0.930 . S
C902 H896 0.930 . S
C902 C903 1.355 . S
C902 C904 1.415 . S
C903 C902 1.355 . S
C903 C905 1.419 . S
C904 C902 1.415 . S
C904 C909 1.425 . S
C904 C911 1.409 . S
C905 H897 0.930 . S
C905 C903 1.419 . S
C905 C906 1.362 . S
C906 H898 0.930 . S
C906 C905 1.362 . S
C906 C909 1.409 . S
C907 H899 0.930 . S
C907 C908 1.355 . S
C907 C909 1.415 . S
C908 C907 1.355 . S
C908 C910 1.419 . S
C909 C904 1.425 . S
C909 C906 1.409 . S
C909 C907 1.415 . S
C910 H900 0.930 . S
C910 C908 1.419 . S
C910 C911 1.362 . S
C911 H901 0.930 . S
C911 C904 1.409 . S
C911 C910 1.362 . S
H912 C918 0.930 . S
H913 C921 0.930 . S
H914 C922 0.930 . S
H915 C923 0.930 . S
H916 C926 0.930 . S
H917 C927 0.930 . S
C918 H912 0.930 . S
C918 C919 1.355 . S
C918 C920 1.415 . S
C919 C918 1.355 . S
C919 C921 1.419 . S
C920 C918 1.415 . S
C920 C925 1.425 . S
C920 C927 1.409 . S
C921 H913 0.930 . S
C921 C919 1.419 . S
C921 C922 1.362 . S
C922 H914 0.930 . S
C922 C921 1.362 . S
C922 C925 1.409 . S
C923 H915 0.930 . S
C923 C924 1.355 . S
C923 C925 1.415 . S
C924 C923 1.355 . S
C924 C926 1.419 . S
C925 C920 1.425 . S
C925 C922 1.409 . S
C925 C923 1.415 . S
C926 H916 0.930 . S
C926 C924 1.419 . S
C926 C927 1.362 . S
C927 H917 0.930 . S
C927 C920 1.409 . S
C927 C926 1.362 . S
H928 C934 0.930 . S
H929 C937 0.930 . S
H930 C938 0.930 . S
H931 C939 0.930 . S
H932 C942 0.930 . S
H933 C943 0.930 . S
C934 H928 0.930 . S
C934 C935 1.355 . S
C934 C936 1.415 . S
C935 C934 1.355 . S
C935 C937 1.419 . S
C936 C934 1.415 . S
C936 C941 1.425 . S
C936 C943 1.409 . S
C937 H929 0.930 . S
C937 C935 1.419 . S
C937 C938 1.362 . S
C938 H930 0.930 . S
C938 C937 1.362 . S
C938 C941 1.409 . S
C939 H931 0.930 . S
C939 C940 1.355 . S
C939 C941 1.415 . S
C940 C939 1.355 . S
C940 C942 1.419 . S
C941 C936 1.425 . S
C941 C938 1.409 . S
C941 C939 1.415 . S
C942 H932 0.930 . S
C942 C940 1.419 . S
C942 C943 1.362 . S
C943 H933 0.930 . S
C943 C936 1.409 . S
C943 C942 1.362 . S
H944 C950 0.930 . S
H945 C953 0.930 . S
H946 C954 0.930 . S
H947 C955 0.930 . S
H948 C958 0.930 . S
H949 C959 0.930 . S
C950 H944 0.930 . S
C950 C951 1.355 . S
C950 C952 1.415 . S
C951 C950 1.355 . S
C951 C953 1.419 . S
C952 C950 1.415 . S
C952 C957 1.425 . S
C952 C959 1.409 . S
C953 H945 0.930 . S
C953 C951 1.419 . S
C953 C954 1.362 . S
C954 H946 0.930 . S
C954 C953 1.362 . S
C954 C957 1.409 . S
C955 H947 0.930 . S
C955 C956 1.355 . S
C955 C957 1.415 . S
C956 C955 1.355 . S
C956 C958 1.419 . S
C957 C952 1.425 . S
C957 C954 1.409 . S
C957 C955 1.415 . S
C958 H948 0.930 . S
C958 C956 1.419 . S
C958 C959 1.362 . S
C959 H949 0.930 . S
C959 C952 1.409 . S
C959 C958 1.362 . S
H960 C966 0.930 . S
H961 C969 0.930 . S
H962 C970 0.930 . S
H963 C971 0.930 . S
H964 C974 0.930 . S
H965 C975 0.930 . S
C966 H960 0.930 . S
C966 C967 1.355 . S
C966 C968 1.415 . S
C967 C966 1.355 . S
C967 C969 1.419 . S
C968 C966 1.415 . S
C968 C973 1.425 . S
C968 C975 1.409 . S
C969 H961 0.930 . S
C969 C967 1.419 . S
C969 C970 1.362 . S
C970 H962 0.930 . S
C970 C969 1.362 . S
C970 C973 1.409 . S
C971 H963 0.930 . S
C971 C972 1.355 . S
C971 C973 1.415 . S
C972 C971 1.355 . S
C972 C974 1.419 . S
C973 C968 1.425 . S
C973 C970 1.409 . S
C973 C971 1.415 . S
C974 H964 0.930 . S
C974 C972 1.419 . S
C974 C975 1.362 . S
C975 H965 0.930 . S
C975 C968 1.409 . S
C975 C974 1.362 . S
H976 C982 0.930 . S
H977 C985 0.930 . S
H978 C986 0.930 . S
H979 C987 0.930 . S
H980 C990 0.930 . S
H981 C991 0.930 . S
C982 H976 0.930 . S
C982 C983 1.355 . S
C982 C984 1.415 . S
C983 C982 1.355 . S
C983 C985 1.419 . S
C984 C982 1.415 . S
C984 C989 1.425 . S
C984 C991 1.409 . S
C985 H977 0.930 . S
C985 C983 1.419 . S
C985 C986 1.362 . S
C986 H978 0.930 . S
C986 C985 1.362 . S
C986 C989 1.409 . S
C987 H979 0.930 . S
C987 C988 1.355 . S
C987 C989 1.415 . S
C988 C987 1.355 . S
C988 C990 1.419 . S
C989 C984 1.425 . S
C989 C986 1.409 . S
C989 C987 1.415 . S
C990 H980 0.930 . S
C990 C988 1.419 . S
C990 C991 1.362 . S
C991 H981 0.930 . S
C991 C984 1.409 . S
C991 C990 1.362 . S
H992 C998 0.930 . S
H993 C1001 0.930 . S
H994 C1002 0.930 . S
H995 C1003 0.930 . S
H996 C1006 0.930 . S
H997 C1007 0.930 . S
C998 H992 0.930 . S
C998 C999 1.355 . S
C998 C1000 1.415 . S
C999 C998 1.355 . S
C999 C1001 1.419 . S
C1000 C998 1.415 . S
C1000 C1005 1.425 . S
C1000 C1007 1.409 . S
C1001 H993 0.930 . S
C1001 C999 1.419 . S
C1001 C1002 1.362 . S
C1002 H994 0.930 . S
C1002 C1001 1.362 . S
C1002 C1005 1.409 . S
C1003 H995 0.930 . S
C1003 C1004 1.355 . S
C1003 C1005 1.415 . S
C1004 C1003 1.355 . S
C1004 C1006 1.419 . S
C1005 C1000 1.425 . S
C1005 C1002 1.409 . S
C1005 C1003 1.415 . S
C1006 H996 0.930 . S
C1006 C1004 1.419 . S
C1006 C1007 1.362 . S
C1007 H997 0.930 . S
C1007 C1000 1.409 . S
C1007 C1006 1.362 . S
H1008 C1014 0.930 . S
H1009 C1017 0.930 . S
H1010 C1018 0.930 . S
H1011 C1019 0.930 . S
H1012 C1022 0.930 . S
H1013 C1023 0.930 . S
C1014 H1008 0.930 . S
C1014 C1015 1.355 . S
C1014 C1016 1.415 . S
C1015 C1014 1.355 . S
C1015 C1017 1.419 . S
C1016 C1014 1.415 . S
C1016 C1021 1.425 . S
C1016 C1023 1.409 . S
C1017 H1009 0.930 . S
C1017 C1015 1.419 . S
C1017 C1018 1.362 . S
C1018 H1010 0.930 . S
C1018 C1017 1.362 . S
C1018 C1021 1.409 . S
C1019 H1011 0.930 . S
C1019 C1020 1.355 . S
C1019 C1021 1.415 . S
C1020 C1019 1.355 . S
C1020 C1022 1.419 . S
C1021 C1016 1.425 . S
C1021 C1018 1.409 . S
C1021 C1019 1.415 . S
C1022 H1012 0.930 . S
C1022 C1020 1.419 . S
C1022 C1023 1.362 . S
C1023 H1013 0.930 . S
C1023 C1016 1.409 . S
C1023 C1022 1.362 . S
H1024 C1030 0.930 . S
H1025 C1033 0.930 . S
H1026 C1034 0.930 . S
H1027 C1035 0.930 . S
H1028 C1038 0.930 . S
H1029 C1039 0.930 . S
C1030 H1024 0.930 . S
C1030 C1031 1.355 . S
C1030 C1032 1.415 . S
C1031 C1030 1.355 . S
C1031 C1033 1.419 . S
C1032 C1030 1.415 . S
C1032 C1037 1.425 . S
C1032 C1039 1.409 . S
C1033 H1025 0.930 . S
C1033 C1031 1.419 . S
C1033 C1034 1.362 . S
C1034 H1026 0.930 . S
C1034 C1033 1.362 . S
C1034 C1037 1.409 . S
C1035 H1027 0.930 . S
C1035 C1036 1.355 . S
C1035 C1037 1.415 . S
C1036 C1035 1.355 . S
C1036 C1038 1.419 . S
C1037 C1032 1.425 . S
C1037 C1034 1.409 . S
C1037 C1035 1.415 . S
C1038 H1028 0.930 . S
C1038 C1036 1.419 . S
C1038 C1039 1.362 . S
C1039 H1029 0.930 . S
C1039 C1032 1.409 . S
C1039 C1038 1.362 . S
H1040 C1046 0.930 . S
H1041 C1049 0.930 . S
H1042 C1050 0.930 . S
H1043 C1051 0.930 . S
H1044 C1054 0.930 . S
H1045 C1055 0.930 . S
C1046 H1040 0.930 . S
C1046 C1047 1.355 . S
C1046 C1048 1.415 . S
C1047 C1046 1.355 . S
C1047 C1049 1.419 . S
C1048 C1046 1.415 . S
C1048 C1053 1.425 . S
C1048 C1055 1.409 . S
C1049 H1041 0.930 . S
C1049 C1047 1.419 . S
C1049 C1050 1.362 . S
C1050 H1042 0.930 . S
C1050 C1049 1.362 . S
C1050 C1053 1.409 . S
C1051 H1043 0.930 . S
C1051 C1052 1.355 . S
C1051 C1053 1.415 . S
C1052 C1051 1.355 . S
C1052 C1054 1.419 . S
C1053 C1048 1.425 . S
C1053 C1050 1.409 . S
C1053 C1051 1.415 . S
C1054 H1044 0.930 . S
C1054 C1052 1.419 . S
C1054 C1055 1.362 . S
C1055 H1045 0.930 . S
C1055 C1048 1.409 . S
C1055 C1054 1.362 . S
H1056 C1062 0.930 . S
H1057 C1065 0.930 . S
H1058 C1066 0.930 . S
H1059 C1067 0.930 . S
H1060 C1070 0.930 . S
H1061 C1071 0.930 . S
C1062 H1056 0.930 . S
C1062 C1063 1.355 . S
C1062 C1064 1.415 . S
C1063 C1062 1.355 . S
C1063 C1065 1.419 . S
C1064 C1062 1.415 . S
C1064 C1069 1.425 . S
C1064 C1071 1.409 . S
C1065 H1057 0.930 . S
C1065 C1063 1.419 . S
C1065 C1066 1.362 . S
C1066 H1058 0.930 . S
C1066 C1065 1.362 . S
C1066 C1069 1.409 . S
C1067 H1059 0.930 . S
C1067 C1068 1.355 . S
C1067 C1069 1.415 . S
C1068 C1067 1.355 . S
C1068 C1070 1.419 . S
C1069 C1064 1.425 . S
C1069 C1066 1.409 . S
C1069 C1067 1.415 . S
C1070 H1060 0.930 . S
C1070 C1068 1.419 . S
C1070 C1071 1.362 . S
C1071 H1061 0.930 . S
C1071 C1064 1.409 . S
C1071 C1070 1.362 . S
H1072 C1078 0.930 . S
H1073 C1081 0.930 . S
H1074 C1082 0.930 . S
H1075 C1083 0.930 . S
H1076 C1086 0.930 . S
H1077 C1087 0.930 . S
C1078 H1072 0.930 . S
C1078 C1079 1.355 . S
C1078 C1080 1.415 . S
C1079 C1078 1.355 . S
C1079 C1081 1.419 . S
C1080 C1078 1.415 . S
C1080 C1085 1.425 . S
C1080 C1087 1.409 . S
C1081 H1073 0.930 . S
C1081 C1079 1.419 . S
C1081 C1082 1.362 . S
C1082 H1074 0.930 . S
C1082 C1081 1.362 . S
C1082 C1085 1.409 . S
C1083 H1075 0.930 . S
C1083 C1084 1.355 . S
C1083 C1085 1.415 . S
C1084 C1083 1.355 . S
C1084 C1086 1.419 . S
C1085 C1080 1.425 . S
C1085 C1082 1.409 . S
C1085 C1083 1.415 . S
C1086 H1076 0.930 . S
C1086 C1084 1.419 . S
C1086 C1087 1.362 . S
C1087 H1077 0.930 . S
C1087 C1080 1.409 . S
C1087 C1086 1.362 . S
H1088 C1094 0.930 . S
H1089 C1097 0.930 . S
H1090 C1098 0.930 . S
H1091 C1099 0.930 . S
H1092 C1102 0.930 . S
H1093 C1103 0.930 . S
C1094 H1088 0.930 . S
C1094 C1095 1.355 . S
C1094 C1096 1.415 . S
C1095 C1094 1.355 . S
C1095 C1097 1.419 . S
C1096 C1094 1.415 . S
C1096 C1101 1.425 . S
C1096 C1103 1.409 . S
C1097 H1089 0.930 . S
C1097 C1095 1.419 . S
C1097 C1098 1.362 . S
C1098 H1090 0.930 . S
C1098 C1097 1.362 . S
C1098 C1101 1.409 . S
C1099 H1091 0.930 . S
C1099 C1100 1.355 . S
C1099 C1101 1.415 . S
C1100 C1099 1.355 . S
C1100 C1102 1.419 . S
C1101 C1096 1.425 . S
C1101 C1098 1.409 . S
C1101 C1099 1.415 . S
C1102 H1092 0.930 . S
C1102 C1100 1.419 . S
C1102 C1103 1.362 . S
C1103 H1093 0.930 . S
C1103 C1096 1.409 . S
C1103 C1102 1.362 . S
H1104 C1110 0.930 . S
H1105 C1113 0.930 . S
H1106 C1114 0.930 . S
H1107 C1115 0.930 . S
H1108 C1118 0.930 . S
H1109 C1119 0.930 . S
C1110 H1104 0.930 . S
C1110 C1111 1.355 . S
C1110 C1112 1.415 . S
C1111 C1110 1.355 . S
C1111 C1113 1.419 . S
C1112 C1110 1.415 . S
C1112 C1117 1.425 . S
C1112 C1119 1.409 . S
C1113 H1105 0.930 . S
C1113 C1111 1.419 . S
C1113 C1114 1.362 . S
C1114 H1106 0.930 . S
C1114 C1113 1.362 . S
C1114 C1117 1.409 . S
C1115 H1107 0.930 . S
C1115 C1116 1.355 . S
C1115 C1117 1.415 . S
C1116 C1115 1.355 . S
C1116 C1118 1.419 . S
C1117 C1112 1.425 . S
C1117 C1114 1.409 . S
C1117 C1115 1.415 . S
C1118 H1108 0.930 . S
C1118 C1116 1.419 . S
C1118 C1119 1.362 . S
C1119 H1109 0.930 . S
C1119 C1112 1.409 . S
C1119 C1118 1.362 . S
H1120 C1126 0.930 . S
H1121 C1129 0.930 . S
H1122 C1130 0.930 . S
H1123 C1131 0.930 . S
H1124 C1134 0.930 . S
H1125 C1135 0.930 . S
C1126 H1120 0.930 . S
C1126 C1127 1.355 . S
C1126 C1128 1.415 . S
C1127 C1126 1.355 . S
C1127 C1129 1.419 . S
C1128 C1126 1.415 . S
C1128 C1133 1.425 . S
C1128 C1135 1.409 . S
C1129 H1121 0.930 . S
C1129 C1127 1.419 . S
C1129 C1130 1.362 . S
C1130 H1122 0.930 . S
C1130 C1129 1.362 . S
C1130 C1133 1.409 . S
C1131 H1123 0.930 . S
C1131 C1132 1.355 . S
C1131 C1133 1.415 . S
C1132 C1131 1.355 . S
C1132 C1134 1.419 . S
C1133 C1128 1.425 . S
C1133 C1130 1.409 . S
C1133 C1131 1.415 . S
C1134 H1124 0.930 . S
C1134 C1132 1.419 . S
C1134 C1135 1.362 . S
C1135 H1125 0.930 . S
C1135 C1128 1.409 . S
C1135 C1134 1.362 . S
H1136 C1142 0.930 . S
H1137 C1145 0.930 . S
H1138 C1146 0.930 . S
H1139 C1147 0.930 . S
H1140 C1150 0.930 . S
H1141 C1151 0.930 . S
C1142 H1136 0.930 . S
C1142 C1143 1.355 . S
C1142 C1144 1.415 . S
C1143 C1142 1.355 . S
C1143 C1145 1.419 . S
C1144 C1142 1.415 . S
C1144 C1149 1.425 . S
C1144 C1151 1.409 . S
C1145 H1137 0.930 . S
C1145 C1143 1.419 . S
C1145 C1146 1.362 . S
C1146 H1138 0.930 . S
C1146 C1145 1.362 . S
C1146 C1149 1.409 . S
C1147 H1139 0.930 . S
C1147 C1148 1.355 . S
C1147 C1149 1.415 . S
C1148 C1147 1.355 . S
C1148 C1150 1.419 . S
C1149 C1144 1.425 . S
C1149 C1146 1.409 . S
C1149 C1147 1.415 . S
C1150 H1140 0.930 . S
C1150 C1148 1.419 . S
C1150 C1151 1.362 . S
C1151 H1141 0.930 . S
C1151 C1144 1.409 . S
C1151 C1150 1.362 . S
H1152 C1158 0.930 . S
H1153 C1161 0.930 . S
H1154 C1162 0.930 . S
H1155 C1163 0.930 . S
H1156 C1166 0.930 . S
H1157 C1167 0.930 . S
C1158 H1152 0.930 . S
C1158 C1159 1.355 . S
C1158 C1160 1.415 . S
C1159 C1158 1.355 . S
C1159 C1161 1.419 . S
C1160 C1158 1.415 . S
C1160 C1165 1.425 . S
C1160 C1167 1.409 . S
C1161 H1153 0.930 . S
C1161 C1159 1.419 . S
C1161 C1162 1.362 . S
C1162 H1154 0.930 . S
C1162 C1161 1.362 . S
C1162 C1165 1.409 . S
C1163 H1155 0.930 . S
C1163 C1164 1.355 . S
C1163 C1165 1.415 . S
C1164 C1163 1.355 . S
C1164 C1166 1.419 . S
C1165 C1160 1.425 . S
C1165 C1162 1.409 . S
C1165 C1163 1.415 . S
C1166 H1156 0.930 . S
C1166 C1164 1.419 . S
C1166 C1167 1.362 . S
C1167 H1157 0.930 . S
C1167 C1160 1.409 . S
C1167 C1166 1.362 . S
C535 N398 1.481 . S
C540 N13 1.478 . S
C551 N46 1.380 . S
C556 N431 1.383 . S
C567 N68 1.412 . S
C572 N475 1.424 . S
C583 N112 1.429 . S
C588 N497 1.432 . S
C599 N266 1.382 . S
C604 N145 1.378 . S
C615 N310 1.450 . S
C620 N167 1.443 . S
C631 N200 1.448 . S
C636 N343 1.453 . S
C647 N376 1.476 . S
C652 N233 1.469 . S
C663 C21 1.183 . S
C668 C483 1.183 . S
C679 C516 1.209 . S
C684 C54 1.207 . S
C695 C417 1.187 . S
C700 C87 1.186 . S
C711 C450 1.206 . S
C716 C120 1.209 . S
C727 C351 1.165 . S
C732 C153 1.166 . S
C743 C384 1.144 . S
C748 C186 1.146 . S
C759 C285 1.184 . S
C764 C219 1.187 . S
C775 C318 1.158 . S
C780 C252 1.157 . S
C791 C7 1.270 . S
C796 C348 1.408 . S
C807 C381 1.346 . S
C812 C40 1.314 . S
C823 C271 1.322 . S
C828 C84 1.379 . S
C839 C315 1.367 . S
C844 C106 1.395 . S
C855 C139 1.345 . S
C860 C480 1.376 . S
C871 C183 1.394 . S
C876 C502 1.365 . S
C887 C403 1.379 . S
C892 C216 1.308 . S
C903 C249 1.311 . S
C908 C436 1.344 . S
C919 N409 1.672 . S
C924 N2 1.663 . S
C935 N35 1.698 . S
C940 N442 1.705 . S
C951 N79 1.719 . S
C956 N464 1.720 . S
C967 N508 1.687 . S
C972 N101 1.678 . S
C983 N277 1.771 . S
C988 N134 1.763 . S
C999 N178 1.747 . S
C1004 N299 1.743 . S
C1015 N332 1.757 . S
C1020 N211 1.762 . S
C1031 N365 1.719 . S
C1036 N244 1.723 . S
C1047 C172 1.437 . S
C1052 C18 1.424 . S
C1063 C205 1.563 . S
C1068 C51 1.544 . S
C1079 C73 1.453 . S
C1084 C238 1.496 . S
C1095 C150 1.503 . S
C1100 C117 1.541 . S
C1111 C282 1.444 . S
C1116 C447 1.465 . S
C1127 C469 1.379 . S
C1132 C304 1.329 . S
C1143 C513 1.383 . S
C1148 C337 1.414 . S
C1159 C370 1.329 . S
C1164 C414 1.298 . S
