# Generated by pormake.
# Topology smu, (6)-cn, num edge types: 1
# Building blocks:
#     Node 0, Type 0, BuildingBlock: OJICUG_clean_sbu_0, # of connection points: 6
#     Node 1, Type 0, BuildingBlock: OJICUG_clean_sbu_0, # of connection points: 6
#     Node 2, Type 0, BuildingBlock: OJICUG_clean_sbu_0, # of connection points: 6
#     Node 3, Type 0, BuildingBlock: OJICUG_clean_sbu_0, # of connection points: 6
#     Node 4, Type 0, BuildingBlock: OJICUG_clean_sbu_0, # of connection points: 6
#     Node 5, Type 0, BuildingBlock: OJICUG_clean_sbu_0, # of connection points: 6
#     Edge 6, Type (0, 0), BuildingBlock: XIVTED_clean_linker_0, # of connection points: 2
#     Edge 7, Type (0, 0), BuildingBlock: XIVTED_clean_linker_0, # of connection points: 2
#     Edge 8, Type (0, 0), BuildingBlock: XIVTED_clean_linker_0, # of connection points: 2
#     Edge 9, Type (0, 0), BuildingBlock: XIVTED_clean_linker_0, # of connection points: 2
#     Edge 10, Type (0, 0), BuildingBlock: XIVTED_clean_linker_0, # of connection points: 2
#     Edge 11, Type (0, 0), BuildingBlock: XIVTED_clean_linker_0, # of connection points: 2
#     Edge 12, Type (0, 0), BuildingBlock: XIVTED_clean_linker_0, # of connection points: 2
#     Edge 13, Type (0, 0), BuildingBlock: XIVTED_clean_linker_0, # of connection points: 2
#     Edge 14, Type (0, 0), BuildingBlock: XIVTED_clean_linker_0, # of connection points: 2
#     Edge 15, Type (0, 0), BuildingBlock: XIVTED_clean_linker_0, # of connection points: 2
#     Edge 16, Type (0, 0), BuildingBlock: XIVTED_clean_linker_0, # of connection points: 2
#     Edge 17, Type (0, 0), BuildingBlock: XIVTED_clean_linker_0, # of connection points: 2
#     Edge 18, Type (0, 0), BuildingBlock: XIVTED_clean_linker_0, # of connection points: 2
#     Edge 19, Type (0, 0), BuildingBlock: XIVTED_clean_linker_0, # of connection points: 2
#     Edge 20, Type (0, 0), BuildingBlock: XIVTED_clean_linker_0, # of connection points: 2
#     Edge 21, Type (0, 0), BuildingBlock: XIVTED_clean_linker_0, # of connection points: 2
#     Edge 22, Type (0, 0), BuildingBlock: XIVTED_clean_linker_0, # of connection points: 2
#     Edge 23, Type (0, 0), BuildingBlock: XIVTED_clean_linker_0, # of connection points: 2
# Relax obj value: 0.250
# Max RMSD: 0.294
# Mean RMSD: 0.265
data_MOF--net-smu--node1-OJICUG_clean_sbu_0--edge1-XIVTED_clean_linker_0
_symmetry_space_group_name_H-M    P1
_symmetry_Int_Tables_number       1
_symmetry_cell_setting            triclinic
loop_
_symmetry_equiv_pos_as_xyz
'x, y, z'
_cell_length_a     30.341523
_cell_length_b     30.140193
_cell_length_c     30.990518
_cell_angle_alpha  95.205225
_cell_angle_beta   95.777188
_cell_angle_gamma 119.61507
loop_
_atom_site_label
_atom_site_type_symbol
_atom_site_fract_x
_atom_site_fract_y
_atom_site_fract_z
_atom_type_partial_charge
Sc0 Sc 0.30938 0.09505 0.21319 0.0
Sc1 Sc 0.33793 0.01649 0.27093 0.0
Sc2 Sc 0.38668 0.14661 0.31671 0.0
O3 O 0.34459 0.08623 0.26755 0.0
C4 C 0.40912 0.20718 0.2363 0.0
C5 C 0.35578 0.03328 0.17281 0.0
C6 C 0.45696 0.09622 0.3013 0.0
C7 C 0.22703 0.98177 0.22652 0.0
C8 C 0.28148 0.14705 0.28983 0.0
C9 C 0.33917 0.0536 0.37122 0.0
O10 O 0.36686 0.17398 0.2124 0.0
O11 O 0.34355 0.00395 0.20198 0.0
O12 O 0.45113 0.13339 0.31703 0.0
O13 O 0.24398 0.01728 0.20304 0.0
O14 O 0.32399 0.16377 0.31598 0.0
O15 O 0.33187 0.01942 0.33971 0.0
O16 O 0.26945 0.11924 0.25243 0.0
O17 O 0.25578 0.97869 0.25734 0.0
O18 O 0.3571 0.10075 0.36732 0.0
O19 O 0.35036 0.07241 0.17402 0.0
O20 O 0.42356 0.20104 0.27388 0.0
O21 O 0.4196 0.05147 0.28459 0.0
Sc22 Sc 0.74885 0.661 0.18934 0.0
Sc23 Sc 0.66526 0.67516 0.25388 0.0
Sc24 Sc 0.79325 0.7172 0.30025 0.0
O25 O 0.73571 0.68459 0.24769 0.0
C26 C 0.8138 0.63198 0.25582 0.0
C27 C 0.63872 0.56763 0.19985 0.0
C28 C 0.69897 0.6519 0.34727 0.0
C29 C 0.67251 0.69846 0.15536 0.0
C30 C 0.85294 0.76731 0.22227 0.0
C31 C 0.74196 0.78821 0.30647 0.0
O32 O 0.79147 0.62946 0.21817 0.0
O33 O 0.62772 0.59485 0.22552 0.0
O34 O 0.74596 0.67216 0.34379 0.0
O35 O 0.70845 0.68927 0.15171 0.0
O36 O 0.84765 0.76546 0.26231 0.0
O37 O 0.69901 0.75552 0.28247 0.0
O38 O 0.81965 0.7332 0.19078 0.0
O39 O 0.65206 0.69459 0.18972 0.0
O40 O 0.77759 0.77836 0.31648 0.0
O41 O 0.68032 0.58601 0.18395 0.0
O42 O 0.81581 0.66009 0.28989 0.0
O43 O 0.66595 0.65226 0.31866 0.0
Sc44 Sc 0.89084 0.18421 0.19864 0.0
Sc45 Sc 0.979 0.31744 0.22505 0.0
Sc46 Sc 0.87911 0.25856 0.28296 0.0
O47 O 0.91637 0.25345 0.235 0.0
C48 C 0.78813 0.18809 0.20984 0.0
C49 C 0.92352 0.25662 0.12667 0.0
C50 C 0.91571 0.36648 0.24942 0.0
C51 C 0.01326 0.23438 0.21822 0.0
C52 C 0.86615 0.14796 0.28753 0.0
C53 C -0.01009 0.32801 0.3299 0.0
O54 O 0.80974 0.16303 0.19708 0.0
O55 O 0.95925 0.29497 0.15406 0.0
O56 O 0.89824 0.33646 0.27738 0.0
O57 O 0.96848 0.19742 0.20041 0.0
O58 O 0.85258 0.18079 0.29719 0.0
O59 O 0.00452 0.34722 0.29539 0.0
O60 O 0.88971 0.1494 0.25579 0.0
O61 O 0.0229 0.28004 0.23068 0.0
O62 O 0.94683 0.28774 0.32984 0.0
O63 O 0.89184 0.21422 0.13809 0.0
O64 O 0.8122 0.23096 0.23572 0.0
O65 O 0.93895 0.35909 0.22027 0.0
Sc66 Sc 0.07144 0.27044 0.70032 0.0
Sc67 Sc 0.97518 0.29951 0.71881 0.0
Sc68 Sc 0.0868 0.34675 0.79891 0.0
O69 O 0.04407 0.30508 0.73967 0.0
C70 C 0.09404 0.24369 0.79342 0.0
C71 C 0.95112 0.18763 0.67963 0.0
C72 C 0.9726 0.29442 0.82087 0.0
C73 C 0.03137 0.32116 0.63417 0.0
C74 C 0.17573 0.37273 0.74323 0.0
C75 C 0.0473 0.41858 0.76077 0.0
O76 O 0.08322 0.23361 0.75179 0.0
O77 O 0.93616 0.21724 0.69569 0.0
O78 O 0.02115 0.31766 0.83092 0.0
O79 O 0.06192 0.30608 0.64726 0.0
O80 O 0.15791 0.38354 0.77506 0.0
O81 O 0.00628 0.38109 0.73795 0.0
O82 O 0.1496 0.33236 0.71478 0.0
O83 O -0.00443 0.31773 0.65461 0.0
O84 O 0.0801 0.41246 0.78454 0.0
O85 O -0.00202 0.20283 0.67849 0.0
O86 O 0.09876 0.28391 0.81614 0.0
O87 O 0.94885 0.28274 0.78152 0.0
Sc88 Sc 0.16756 0.87926 0.71644 0.0
Sc89 Sc 0.29334 0.96774 0.76598 0.0
Sc90 Sc 0.23263 0.84226 0.78747 0.0
O91 O 0.23152 0.89696 0.75687 0.0
C92 C 0.1211 0.82454 0.79249 0.0
C93 C 0.20616 -0.00602 0.76383 0.0
C94 C 0.29151 0.93432 0.86185 0.0
C95 C 0.25061 0.94421 0.6622 0.0
C96 C 0.1708 0.77412 0.70204 0.0
C97 C 0.34746 0.90435 0.76724 0.0
O98 O 0.12609 0.85888 0.76944 0.0
O99 O 0.24841 0.0012 0.78378 0.0
O100 O 0.25302 0.88908 0.84943 0.0
O101 O 0.20972 0.90162 0.66303 0.0
O102 O 0.21493 0.79604 0.72535 0.0
O103 O 0.34217 0.93835 0.74981 0.0
O104 O 0.14547 0.7975 0.69825 0.0
O105 O 0.28029 0.975 0.6971 0.0
O106 O 0.31301 0.87087 0.78564 0.0
O107 O 0.17795 0.95621 0.73269 0.0
O108 O 0.15151 0.80675 0.79491 0.0
O109 O 0.31259 0.96584 0.83531 0.0
Sc110 Sc 0.61338 0.73057 0.68208 0.0
Sc111 Sc 0.64993 0.6619 0.74932 0.0
Sc112 Sc 0.70704 0.79705 0.77655 0.0
O113 O 0.65709 0.72992 0.73591 0.0
C114 C 0.72204 0.82785 0.68069 0.0
C115 C 0.63901 0.64451 0.64588 0.0
C116 C 0.77018 0.73829 0.78033 0.0
C117 C 0.5338 0.63115 0.71601 0.0
C118 C 0.61705 0.81891 0.74917 0.0
C119 C 0.65607 0.71962 0.84398 0.0
O120 O 0.67895 0.79079 0.66032 0.0
O121 O 0.65742 0.63958 0.68275 0.0
O122 O 0.76733 0.77906 0.78292 0.0
O123 O 0.54425 0.67191 0.70005 0.0
O124 O 0.65374 0.82477 0.77716 0.0
O125 O 0.64133 0.6782 0.81716 0.0
O126 O 0.59979 0.78731 0.71358 0.0
O127 O 0.56774 0.6213 0.73173 0.0
O128 O 0.68094 0.76442 0.83371 0.0
O129 O 0.62018 0.67356 0.64218 0.0
O130 O 0.73653 0.83497 0.72199 0.0
O131 O 0.73113 0.69331 0.76866 0.0
H132 H 0.2762 0.86913 0.92121 0.0
H133 H 0.41676 0.09712 0.12088 0.0
H134 H 0.36227 0.03056 0.90815 0.0
H135 H 0.32717 0.93601 0.13326 0.0
H136 H 0.41858 0.07197 0.04443 0.0
H137 H 0.3129 0.89161 -0.00138 0.0
C138 C 0.30274 0.90947 0.93468 0.0
C139 C 0.315 0.94833 0.90849 0.0
C140 C 0.3995 0.04204 0.06405 0.0
C141 C 0.35752 0.97418 0.99729 0.0
C142 C 0.39849 0.05635 0.10766 0.0
C143 C 0.37018 0.01844 0.13263 0.0
C144 C 0.37125 0.98957 0.0454 0.0
C145 C 0.34849 0.96634 0.11467 0.0
C146 C 0.32417 0.92216 0.97886 0.0
C147 C 0.35095 -0.00042 0.92741 0.0
N148 N 0.34829 0.95334 0.07157 0.0
N149 N 0.37036 0.01117 0.97098 0.0
H150 H 0.56121 0.59064 0.57765 0.0
H151 H 0.7579 0.63874 0.41193 0.0
H152 H 0.72148 0.64284 0.61848 0.0
H153 H 0.60608 0.61639 0.37645 0.0
H154 H 0.73812 0.6166 0.48392 0.0
H155 H 0.57014 0.57407 0.50139 0.0
C156 C 0.59795 0.59693 0.57055 0.0
C157 C 0.64083 0.61847 0.60416 0.0
C158 C 0.70889 0.61584 0.4602 0.0
C159 C 0.65175 0.60127 0.51693 0.0
C160 C 0.72009 0.6286 0.41898 0.0
C161 C 0.68394 0.63063 0.38822 0.0
C162 C 0.66118 0.60493 0.47097 0.0
C163 C 0.6354 0.61608 0.3992 0.0
C164 C 0.60313 0.58793 0.52701 0.0
C165 C 0.68754 0.62608 0.59343 0.0
N166 N 0.62569 0.60453 0.4399 0.0
N167 N 0.69208 0.6185 0.55048 0.0
H168 H 0.96525 0.34513 0.09036 0.0
H169 H 0.90893 0.2015 0.84594 0.0
H170 H 0.87253 0.17905 0.05507 0.0
H171 H 0.97726 0.36617 0.88213 0.0
H172 H 0.886 0.19044 0.91982 0.0
H173 H 0.96302 0.35241 0.01267 0.0
C174 C 0.94425 0.31013 0.06626 0.0
C175 C 0.91953 0.26139 0.07939 0.0
C176 C 0.90477 0.22887 0.91118 0.0
C177 C 0.91694 0.26939 0.98985 0.0
C178 C 0.91726 0.23503 0.86893 0.0
C179 C 0.94455 0.28474 0.85815 0.0
C180 C 0.92041 0.27288 0.94263 0.0
C181 C 0.95587 0.32719 0.88929 0.0
C182 C 0.94272 0.3143 0.02176 0.0
C183 C 0.89234 0.21744 0.04649 0.0
N184 N 0.94434 0.32038 0.93022 0.0
N185 N 0.89232 0.22243 0.00325 0.0
H186 H 0.36545 0.11601 0.45067 0.0
H187 H 0.20895 0.884 0.58066 0.0
H188 H 0.28373 0.95536 0.39022 0.0
H189 H 0.32201 0.03893 0.64508 0.0
H190 H 0.23047 0.91031 0.50977 0.0
H191 H 0.34424 0.08928 0.52142 0.0
C192 C 0.34298 0.07511 0.4522 0.0
C193 C 0.32642 0.03789 0.41434 0.0
C194 C 0.25063 0.93847 0.53946 0.0
C195 C 0.30189 0.00708 0.49537 0.0
C196 C 0.23827 0.92355 0.57996 0.0
C197 C 0.26369 0.95929 0.61899 0.0
C198 C 0.28829 0.98965 0.53784 0.0
C199 C 0.3015 0.00997 0.61594 0.0
C200 C 0.33105 0.05989 0.49268 0.0
C201 C 0.29753 0.98543 0.4185 0.0
N202 N 0.31247 0.02367 0.57608 0.0
N203 N 0.28603 0.97161 0.45824 0.0
H204 H 0.68191 0.80036 0.90864 0.0
H205 H 0.58955 0.62681 0.097 0.0
H206 H 0.60593 0.63351 0.88429 0.0
H207 H 0.70963 0.78685 0.12016 0.0
H208 H 0.57377 0.63175 0.01877 0.0
H209 H 0.67157 0.79764 0.98521 0.0
C210 C 0.6627 0.76295 0.91917 0.0
C211 C 0.6456 0.71701 0.88981 0.0
C212 C 0.60243 0.6662 0.04121 0.0
C213 C 0.63333 0.714 0.97809 0.0
C214 C 0.61083 0.66365 0.08586 0.0
C215 C 0.65027 0.70682 0.11489 0.0
C216 C 0.63378 0.71229 0.02578 0.0
C217 C 0.67822 0.75312 0.09881 0.0
C218 C 0.65676 0.76159 0.96306 0.0
C219 C 0.62034 0.66991 0.90572 0.0
N220 N 0.66974 0.75455 0.0552 0.0
N221 N 0.61534 0.66963 0.94894 0.0
H222 H 0.96955 0.38891 0.38236 0.0
H223 H 0.11078 0.34512 0.58899 0.0
H224 H 0.07155 0.32861 0.37562 0.0
H225 H 0.97 0.34901 0.58602 0.0
H226 H 0.11837 0.37177 0.51717 0.0
H227 H -0.00619 0.40897 0.4625 0.0
C228 C -0.00112 0.38213 0.39785 0.0
C229 C 0.0188 0.3572 0.37301 0.0
C230 C 0.08624 0.36748 0.53253 0.0
C231 C 0.04529 0.37836 0.46381 0.0
C232 C 0.0815 0.35187 0.57343 0.0
C233 C 0.03861 0.34311 0.59301 0.0
C234 C 0.04792 0.37444 0.5109 0.0
C235 C 0.003 0.35414 0.57173 0.0
C236 C 0.01223 0.39304 0.44341 0.0
C237 C 0.05581 0.34816 0.39403 0.0
N238 N 0.00803 0.3685 0.53136 0.0
N239 N 0.06732 0.35796 0.43858 0.0
H240 H 0.4914 0.02819 0.28809 0.0
H241 H 0.73102 0.23165 0.18943 0.0
H242 H 0.5381 0.18925 0.29237 0.0
H243 H 0.71929 0.09096 0.22299 0.0
H244 H 0.64842 0.20671 0.21247 0.0
H245 H 0.56733 0.04385 0.25584 0.0
C246 C 0.51821 0.06708 0.28318 0.0
C247 C 0.50845 0.10756 0.29317 0.0
C248 C 0.66329 0.18069 0.21396 0.0
C249 C 0.59404 0.12505 0.25471 0.0
C250 C 0.70986 0.19438 0.19991 0.0
C251 C 0.73185 0.16326 0.20431 0.0
C252 C 0.63855 0.13558 0.23262 0.0
C253 C 0.70329 0.11571 0.21865 0.0
C254 C 0.56115 0.07578 0.26433 0.0
C255 C 0.54426 0.15702 0.28574 0.0
N256 N 0.65835 0.10363 0.23311 0.0
N257 N 0.58508 0.16419 0.26647 0.0
H258 H 0.66357 0.49236 0.18883 0.0
H259 H 0.37912 0.25889 0.18397 0.0
H260 H 0.53433 0.51506 0.1939 0.0
H261 H 0.51377 0.26598 0.25318 0.0
H262 H 0.4344 0.34424 0.16428 0.0
H263 H 0.6064 0.39963 0.18847 0.0
C264 C 0.62296 0.47762 0.18877 0.0
C265 C 0.60354 0.51125 0.19178 0.0
C266 C 0.45168 0.32661 0.18327 0.0
C267 C 0.53847 0.40593 0.19105 0.0
C268 C 0.42035 0.27807 0.1944 0.0
C269 C 0.44204 0.25587 0.22063 0.0
C270 C 0.50495 0.35229 0.19765 0.0
C271 C 0.4956 0.28224 0.23341 0.0
C272 C 0.59059 0.42495 0.18886 0.0
C273 C 0.55077 0.49034 0.19201 0.0
N274 N 0.52534 0.3292 0.22179 0.0
N275 N 0.51996 0.43889 0.19182 0.0
H276 H 0.93018 0.43121 0.18874 0.0
H277 H 0.83843 0.59776 0.32855 0.0
H278 H 0.88828 0.40607 0.31729 0.0
H279 H 0.84628 0.5961 0.19006 0.0
H280 H 0.8731 0.53954 0.32993 0.0
H281 H 0.91553 0.50418 0.19376 0.0
C282 C 0.91816 0.44117 0.21805 0.0
C283 C 0.90956 0.41204 0.25228 0.0
C284 C 0.86751 0.55234 0.29938 0.0
C285 C 0.89306 0.49526 0.25834 0.0
C286 C 0.84791 0.58556 0.29864 0.0
C287 C 0.83865 0.60087 0.259 0.0
C288 C 0.87822 0.535 0.26032 0.0
C289 C 0.85184 0.58431 0.22116 0.0
C290 C 0.90982 0.48275 0.22092 0.0
C291 C 0.89443 0.42689 0.28973 0.0
N292 N 0.87068 0.55202 0.2227 0.0
N293 N 0.88638 0.46734 0.29166 0.0
H294 H 0.98249 0.4528 0.73172 0.0
H295 H 0.21389 0.7157 0.68407 0.0
H296 H 0.14316 0.50377 0.76999 0.0
H297 H 0.0691 0.70303 0.70169 0.0
H298 H 0.18023 0.62675 0.69667 0.0
H299 H 0.00729 0.53615 0.70734 0.0
C300 C 0.02291 0.48174 0.7356 0.0
C301 C 0.06082 0.47139 0.75327 0.0
C302 C 0.15547 0.6431 0.697 0.0
C303 C 0.08916 0.56561 0.7239 0.0
C304 C 0.17435 0.69358 0.68912 0.0
C305 C 0.14448 0.71705 0.69235 0.0
C306 C 0.10619 0.61557 0.70794 0.0
C307 C 0.09344 0.68647 0.69892 0.0
C308 C 0.03692 0.52903 0.72139 0.0
C309 C 0.11258 0.51016 0.75715 0.0
N310 N 0.07606 0.63738 0.70723 0.0
N311 N 0.12517 0.55523 0.74214 0.0
H312 H 0.41751 0.94234 0.71137 0.0
H313 H 0.59498 0.84562 0.82748 0.0
H314 H 0.38879 0.86843 0.82669 0.0
H315 H 0.58131 0.85915 0.69002 0.0
H316 H 0.53812 0.88083 0.83689 0.0
H317 H 0.4959 0.93728 0.7125 0.0
C318 C 0.42795 0.9255 0.73707 0.0
C319 C 0.3962 0.90471 0.76838 0.0
C320 C 0.54847 0.87692 0.8049 0.0
C321 C 0.48564 0.89979 0.77036 0.0
C322 C 0.58098 0.85718 0.79963 0.0
C323 C 0.59178 0.84877 0.75781 0.0
C324 C 0.52758 0.88877 0.76819 0.0
C325 C 0.57288 0.86425 0.72263 0.0
C326 C 0.47257 0.92273 0.73776 0.0
C327 C 0.41163 0.88378 0.8013 0.0
N328 N 0.54126 0.88313 0.72851 0.0
N329 N 0.45517 0.88161 0.80131 0.0
H330 H 0.24126 0.35318 0.70229 0.0
H331 H 0.45409 0.64884 0.71907 0.0
H332 H 0.22897 0.4766 0.77145 0.0
H333 H 0.49131 0.52764 0.71468 0.0
H334 H 0.36514 0.58501 0.72389 0.0
H335 H 0.32839 0.41662 0.69266 0.0
C336 C 0.25696 0.3936 0.7154 0.0
C337 C 0.22834 0.40984 0.73798 0.0
C338 C 0.39294 0.57262 0.72177 0.0
C339 C 0.32675 0.48201 0.72647 0.0
C340 C 0.44339 0.60878 0.71879 0.0
C341 C 0.47987 0.59333 0.71679 0.0
C342 C 0.37905 0.5208 0.72187 0.0
C343 C 0.46431 0.54108 0.71665 0.0
C344 C 0.30647 0.42958 0.70997 0.0
C345 C 0.25019 0.46256 0.75433 0.0
N346 N 0.41485 0.50651 0.71903 0.0
N347 N 0.29818 0.49697 0.74802 0.0
H348 H 0.18115 0.08414 0.29263 0.0
H349 H 0.11593 0.30342 0.24617 0.0
H350 H 0.29716 0.24476 0.30405 0.0
H351 H 0.00499 0.13965 0.21987 0.0
H352 H 0.18153 0.28468 0.2757 0.0
H353 H 0.1145 0.10659 0.27903 0.0
C354 C 0.19242 0.12451 0.29408 0.0
C355 C 0.24451 0.1628 0.29982 0.0
C356 C 0.14288 0.25287 0.26337 0.0
C357 C 0.16873 0.18854 0.28205 0.0
C358 C 0.1054 0.26344 0.24614 0.0
C359 C 0.05475 0.223 0.23017 0.0
C360 C 0.12971 0.20149 0.26496 0.0
C361 C 0.04352 0.17206 0.23129 0.0
C362 C 0.15444 0.13722 0.28551 0.0
C363 C 0.25733 0.21434 0.30045 0.0
N364 N 0.08065 0.16281 0.24852 0.0
N365 N 0.2196 0.2257 0.29083 0.0
H366 H 0.89696 0.77055 0.14792 0.0
H367 H 0.17146 0.93273 0.28819 0.0
H368 H 0.92552 0.85364 0.27836 0.0
H369 H 0.15517 0.95251 0.15234 0.0
H370 H 0.07797 0.88494 0.28171 0.0
H371 H 0.98908 0.82414 0.14438 0.0
C372 C 0.92214 0.80076 0.17526 0.0
C373 C 0.90369 0.8069 0.21387 0.0
C374 C 0.095 0.89953 0.25328 0.0
C375 C 0.00818 0.86638 0.21038 0.0
C376 C 0.14821 0.92622 0.25678 0.0
C377 C 0.17098 0.94668 0.22078 0.0
C378 C 0.06432 0.89237 0.21333 0.0
C379 C 0.13892 0.9375 0.18092 0.0
C380 C 0.97457 0.83092 0.17328 0.0
C381 C 0.93812 0.84666 0.24831 0.0
N382 N 0.08689 0.9107 0.17812 0.0
N383 N 0.98884 0.87405 0.24614 0.0
H384 H 0.92196 0.10638 0.31815 0.0
H385 H 0.68213 0.8312 0.28631 0.0
H386 H 0.76952 0.08481 0.30374 0.0
H387 H 0.82945 0.86837 0.35706 0.0
H388 H 0.71046 0.92346 0.29723 0.0
H389 H 0.88802 0.02016 0.33793 0.0
C390 C 0.88149 0.08379 0.32033 0.0
C391 C 0.84838 0.10233 0.30942 0.0
C392 C 0.73606 0.91116 0.31115 0.0
C393 C 0.80885 0.00316 0.3303 0.0
C394 C 0.71998 0.8585 0.30483 0.0
C395 C 0.75385 0.84196 0.31984 0.0
C396 C 0.78649 0.94736 0.33206 0.0
C397 C 0.80228 0.8792 0.34403 0.0
C398 C 0.86205 0.03461 0.33155 0.0
C399 C 0.79619 0.0717 0.3123 0.0
N400 N 0.81747 0.93014 0.3486 0.0
N401 N 0.77766 0.02289 0.32145 0.0
H402 H 0.02863 0.14199 0.79114 0.0
H403 H 0.2621 0.08883 0.81699 0.0
H404 H 0.18587 0.26257 0.83659 0.0
H405 H 0.11017 0.98157 0.74419 0.0
H406 H 0.23222 0.14786 0.84015 0.0
H407 H 0.05479 0.07743 0.79371 0.0
C408 C 0.06837 0.15464 0.80371 0.0
C409 C 0.10515 0.20751 0.81398 0.0
C410 C 0.20543 0.11125 0.81935 0.0
C411 C 0.1359 0.1342 0.81479 0.0
C412 C 0.22244 0.07757 0.80592 0.0
C413 C 0.18879 0.03036 0.77801 0.0
C414 C 0.15423 0.09746 0.8052 0.0
C415 C 0.13775 0.01781 0.7651 0.0
C416 C 0.08347 0.11788 0.80437 0.0
C417 C 0.15633 0.22208 0.82902 0.0
N418 N 0.12213 0.05117 0.7787 0.0
N419 N 0.17047 0.18561 0.82812 0.0
H420 H 0.09295 0.87316 0.85105 0.0
H421 H 0.79853 0.66541 0.7643 0.0
H422 H 0.04196 0.72473 0.77436 0.0
H423 H 0.85759 0.82301 0.82572 0.0
H424 H 0.88456 0.67739 0.78301 0.0
H425 H 0.00458 0.8444 0.8608 0.0
C426 C 0.06315 0.83371 0.83772 0.0
C427 C 0.07423 0.80118 0.81183 0.0
C428 C 0.8784 0.70906 0.79277 0.0
C429 C 0.97295 0.7689 0.82063 0.0
C430 C 0.82943 0.70237 0.78195 0.0
C431 C 0.82108 0.74363 0.79268 0.0
C432 C 0.91906 0.75718 0.81472 0.0
C433 C 0.86238 0.79045 0.81594 0.0
C434 C 0.01265 0.81747 0.84275 0.0
C435 C 0.03458 0.75069 0.7947 0.0
N436 N 0.90954 0.79599 0.82589 0.0
N437 N 0.9852 0.73637 0.79848 0.0
H438 H 0.84547 0.1362 0.67212 0.0
H439 H 0.82456 0.87293 0.68042 0.0
H440 H 0.97133 0.11274 0.64955 0.0
H441 H 0.69049 0.88046 0.63238 0.0
H442 H 0.8791 0.9594 0.66345 0.0
H443 H 0.78665 0.04255 0.65335 0.0
C444 C 0.86066 0.11158 0.66274 0.0
C445 C 0.91358 0.13232 0.66343 0.0
C446 C 0.83774 0.94159 0.65527 0.0
C447 C 0.84678 0.02569 0.642 0.0
C448 C 0.80676 0.89224 0.66476 0.0
C449 C 0.75333 0.87003 0.65765 0.0
C450 C 0.81491 0.96935 0.64029 0.0
C451 C 0.73174 0.89653 0.63794 0.0
C452 C 0.82704 0.05824 0.65167 0.0
C453 C 0.931 0.09858 0.65033 0.0
N454 N 0.76272 0.94569 0.63109 0.0
N455 N 0.89784 0.04689 0.64099 0.0
loop_
_geom_bond_atom_site_label_1
_geom_bond_atom_site_label_2
_geom_bond_distance
_geom_bond_site_symmetry_2
_ccdc_geom_bond_type
Sc0 O3 2.025 . S
Sc0 O10 2.105 . S
Sc0 O13 2.105 . S
Sc0 O16 2.105 . S
Sc0 O19 2.105 . S
Sc1 O3 2.025 . S
Sc1 O11 2.105 . S
Sc1 O15 2.105 . S
Sc1 O17 2.105 1_545 S
Sc1 O21 2.105 . S
Sc2 O3 2.025 . S
Sc2 O12 2.105 . S
Sc2 O14 2.105 . S
Sc2 O18 2.105 . S
Sc2 O20 2.105 . S
O3 Sc0 2.025 . S
O3 Sc1 2.025 . S
O3 Sc2 2.025 . S
C4 O10 1.268 . S
C4 O20 1.268 . S
C5 O11 1.268 . S
C5 O19 1.268 . S
C6 O12 1.268 . S
C6 O21 1.268 . S
C7 O13 1.268 1_565 S
C7 O17 1.268 . S
C8 O14 1.268 . S
C8 O16 1.268 . S
C9 O15 1.268 . S
C9 O18 1.268 . S
O10 Sc0 2.105 . S
O10 C4 1.268 . S
O11 Sc1 2.105 . S
O11 C5 1.268 . S
O12 Sc2 2.105 . S
O12 C6 1.268 . S
O13 Sc0 2.105 . S
O13 C7 1.268 1_545 S
O14 Sc2 2.105 . S
O14 C8 1.268 . S
O15 Sc1 2.105 . S
O15 C9 1.268 . S
O16 Sc0 2.105 . S
O16 C8 1.268 . S
O17 Sc1 2.105 1_565 S
O17 C7 1.268 . S
O18 Sc2 2.105 . S
O18 C9 1.268 . S
O19 Sc0 2.105 . S
O19 C5 1.268 . S
O20 Sc2 2.105 . S
O20 C4 1.268 . S
O21 Sc1 2.105 . S
O21 C6 1.268 . S
Sc22 O25 2.025 . S
Sc22 O32 2.105 . S
Sc22 O35 2.105 . S
Sc22 O38 2.105 . S
Sc22 O41 2.105 . S
Sc23 O25 2.025 . S
Sc23 O33 2.105 . S
Sc23 O37 2.105 . S
Sc23 O39 2.105 . S
Sc23 O43 2.105 . S
Sc24 O25 2.025 . S
Sc24 O34 2.105 . S
Sc24 O36 2.105 . S
Sc24 O40 2.105 . S
Sc24 O42 2.105 . S
O25 Sc22 2.025 . S
O25 Sc23 2.025 . S
O25 Sc24 2.025 . S
C26 O32 1.268 . S
C26 O42 1.268 . S
C27 O33 1.268 . S
C27 O41 1.268 . S
C28 O34 1.268 . S
C28 O43 1.268 . S
C29 O35 1.268 . S
C29 O39 1.268 . S
C30 O36 1.268 . S
C30 O38 1.268 . S
C31 O37 1.268 . S
C31 O40 1.268 . S
O32 Sc22 2.105 . S
O32 C26 1.268 . S
O33 Sc23 2.105 . S
O33 C27 1.268 . S
O34 Sc24 2.105 . S
O34 C28 1.268 . S
O35 Sc22 2.105 . S
O35 C29 1.268 . S
O36 Sc24 2.105 . S
O36 C30 1.268 . S
O37 Sc23 2.105 . S
O37 C31 1.268 . S
O38 Sc22 2.105 . S
O38 C30 1.268 . S
O39 Sc23 2.105 . S
O39 C29 1.268 . S
O40 Sc24 2.105 . S
O40 C31 1.268 . S
O41 Sc22 2.105 . S
O41 C27 1.268 . S
O42 Sc24 2.105 . S
O42 C26 1.268 . S
O43 Sc23 2.105 . S
O43 C28 1.268 . S
Sc44 O47 2.025 . S
Sc44 O54 2.105 . S
Sc44 O57 2.105 . S
Sc44 O60 2.105 . S
Sc44 O63 2.105 . S
Sc45 O47 2.025 . S
Sc45 O55 2.105 . S
Sc45 O59 2.105 1_655 S
Sc45 O61 2.105 1_655 S
Sc45 O65 2.105 . S
Sc46 O47 2.025 . S
Sc46 O56 2.105 . S
Sc46 O58 2.105 . S
Sc46 O62 2.105 . S
Sc46 O64 2.105 . S
O47 Sc44 2.025 . S
O47 Sc45 2.025 . S
O47 Sc46 2.025 . S
C48 O54 1.268 . S
C48 O64 1.268 . S
C49 O55 1.268 . S
C49 O63 1.268 . S
C50 O56 1.268 . S
C50 O65 1.268 . S
C51 O57 1.268 1_455 S
C51 O61 1.268 . S
C52 O58 1.268 . S
C52 O60 1.268 . S
C53 O59 1.268 1_655 S
C53 O62 1.268 . S
O54 Sc44 2.105 . S
O54 C48 1.268 . S
O55 Sc45 2.105 . S
O55 C49 1.268 . S
O56 Sc46 2.105 . S
O56 C50 1.268 . S
O57 Sc44 2.105 . S
O57 C51 1.268 1_655 S
O58 Sc46 2.105 . S
O58 C52 1.268 . S
O59 Sc45 2.105 1_455 S
O59 C53 1.268 1_455 S
O60 Sc44 2.105 . S
O60 C52 1.268 . S
O61 Sc45 2.105 1_455 S
O61 C51 1.268 . S
O62 Sc46 2.105 . S
O62 C53 1.268 . S
O63 Sc44 2.105 . S
O63 C49 1.268 . S
O64 Sc46 2.105 . S
O64 C48 1.268 . S
O65 Sc45 2.105 . S
O65 C50 1.268 . S
Sc66 O69 2.025 . S
Sc66 O76 2.105 . S
Sc66 O79 2.105 . S
Sc66 O82 2.105 . S
Sc66 O85 2.105 . S
Sc67 O69 2.025 . S
Sc67 O77 2.105 1_455 S
Sc67 O81 2.105 . S
Sc67 O83 2.105 . S
Sc67 O87 2.105 . S
Sc68 O69 2.025 . S
Sc68 O78 2.105 . S
Sc68 O80 2.105 . S
Sc68 O84 2.105 . S
Sc68 O86 2.105 . S
O69 Sc66 2.025 . S
O69 Sc67 2.025 . S
O69 Sc68 2.025 . S
C70 O76 1.268 . S
C70 O86 1.268 . S
C71 O77 1.268 . S
C71 O85 1.268 1_655 S
C72 O78 1.268 . S
C72 O87 1.268 . S
C73 O79 1.268 . S
C73 O83 1.268 . S
C74 O80 1.268 . S
C74 O82 1.268 . S
C75 O81 1.268 . S
C75 O84 1.268 . S
O76 Sc66 2.105 . S
O76 C70 1.268 . S
O77 Sc67 2.105 1_655 S
O77 C71 1.268 . S
O78 Sc68 2.105 . S
O78 C72 1.268 . S
O79 Sc66 2.105 . S
O79 C73 1.268 . S
O80 Sc68 2.105 . S
O80 C74 1.268 . S
O81 Sc67 2.105 . S
O81 C75 1.268 . S
O82 Sc66 2.105 . S
O82 C74 1.268 . S
O83 Sc67 2.105 . S
O83 C73 1.268 . S
O84 Sc68 2.105 . S
O84 C75 1.268 . S
O85 Sc66 2.105 . S
O85 C71 1.268 1_455 S
O86 Sc68 2.105 . S
O86 C70 1.268 . S
O87 Sc67 2.105 . S
O87 C72 1.268 . S
Sc88 O91 2.025 . S
Sc88 O98 2.105 . S
Sc88 O101 2.105 . S
Sc88 O104 2.105 . S
Sc88 O107 2.105 . S
Sc89 O91 2.025 . S
Sc89 O99 2.105 1_565 S
Sc89 O103 2.105 . S
Sc89 O105 2.105 . S
Sc89 O109 2.105 1_565 S
Sc90 O91 2.025 . S
Sc90 O100 2.105 . S
Sc90 O102 2.105 . S
Sc90 O106 2.105 . S
Sc90 O108 2.105 . S
O91 Sc88 2.025 . S
O91 Sc89 2.025 . S
O91 Sc90 2.025 . S
C92 O98 1.268 . S
C92 O108 1.268 . S
C93 O99 1.268 . S
C93 O107 1.268 1_545 S
C94 O100 1.268 . S
C94 O109 1.268 1_565 S
C95 O101 1.268 . S
C95 O105 1.268 . S
C96 O102 1.268 . S
C96 O104 1.268 . S
C97 O103 1.268 . S
C97 O106 1.268 . S
O98 Sc88 2.105 . S
O98 C92 1.268 . S
O99 Sc89 2.105 1_545 S
O99 C93 1.268 . S
O100 Sc90 2.105 . S
O100 C94 1.268 . S
O101 Sc88 2.105 . S
O101 C95 1.268 . S
O102 Sc90 2.105 . S
O102 C96 1.268 . S
O103 Sc89 2.105 . S
O103 C97 1.268 . S
O104 Sc88 2.105 . S
O104 C96 1.268 . S
O105 Sc89 2.105 . S
O105 C95 1.268 . S
O106 Sc90 2.105 . S
O106 C97 1.268 . S
O107 Sc88 2.105 . S
O107 C93 1.268 1_565 S
O108 Sc90 2.105 . S
O108 C92 1.268 . S
O109 Sc89 2.105 1_545 S
O109 C94 1.268 1_545 S
Sc110 O113 2.025 . S
Sc110 O120 2.105 . S
Sc110 O123 2.105 . S
Sc110 O126 2.105 . S
Sc110 O129 2.105 . S
Sc111 O113 2.025 . S
Sc111 O121 2.105 . S
Sc111 O125 2.105 . S
Sc111 O127 2.105 . S
Sc111 O131 2.105 . S
Sc112 O113 2.025 . S
Sc112 O122 2.105 . S
Sc112 O124 2.105 . S
Sc112 O128 2.105 . S
Sc112 O130 2.105 . S
O113 Sc110 2.025 . S
O113 Sc111 2.025 . S
O113 Sc112 2.025 . S
C114 O120 1.268 . S
C114 O130 1.268 . S
C115 O121 1.268 . S
C115 O129 1.268 . S
C116 O122 1.268 . S
C116 O131 1.268 . S
C117 O123 1.268 . S
C117 O127 1.268 . S
C118 O124 1.268 . S
C118 O126 1.268 . S
C119 O125 1.268 . S
C119 O128 1.268 . S
O120 Sc110 2.105 . S
O120 C114 1.268 . S
O121 Sc111 2.105 . S
O121 C115 1.268 . S
O122 Sc112 2.105 . S
O122 C116 1.268 . S
O123 Sc110 2.105 . S
O123 C117 1.268 . S
O124 Sc112 2.105 . S
O124 C118 1.268 . S
O125 Sc111 2.105 . S
O125 C119 1.268 . S
O126 Sc110 2.105 . S
O126 C118 1.268 . S
O127 Sc111 2.105 . S
O127 C117 1.268 . S
O128 Sc112 2.105 . S
O128 C119 1.268 . S
O129 Sc110 2.105 . S
O129 C115 1.268 . S
O130 Sc112 2.105 . S
O130 C114 1.268 . S
O131 Sc111 2.105 . S
O131 C116 1.268 . S
H132 C138 0.930 . S
H133 C142 0.930 . S
H134 C147 0.929 . S
H135 C145 0.929 . S
H136 C140 0.929 . S
H137 C146 0.929 . S
C138 H132 0.930 . S
C138 C139 1.367 . S
C138 C146 1.378 . S
C139 C138 1.367 . S
C139 C147 1.433 1_565 S
C140 H136 0.929 . S
C140 C142 1.378 . S
C140 C144 1.350 . S
C141 C144 1.463 1_556 S
C141 C146 1.350 1_545 S
C141 N149 1.427 . S
C142 H133 0.930 . S
C142 C140 1.378 . S
C142 C143 1.367 . S
C143 C142 1.367 . S
C143 C145 1.433 1_545 S
C144 C140 1.350 . S
C144 C141 1.463 1_554 S
C144 N148 1.427 1_545 S
C145 H135 0.929 . S
C145 C143 1.433 1_565 S
C145 N148 1.384 . S
C146 H137 0.929 . S
C146 C138 1.378 . S
C146 C141 1.350 1_565 S
C147 H134 0.929 . S
C147 C139 1.433 1_545 S
C147 N149 1.384 . S
N148 C144 1.427 1_565 S
N148 C145 1.384 . S
N149 C141 1.427 . S
N149 C147 1.384 . S
H150 C156 0.930 . S
H151 C160 0.930 . S
H152 C165 0.929 . S
H153 C163 0.929 . S
H154 C158 0.929 . S
H155 C164 0.929 . S
C156 H150 0.930 . S
C156 C157 1.367 . S
C156 C164 1.378 . S
C157 C156 1.367 . S
C157 C165 1.433 . S
C158 H154 0.929 . S
C158 C160 1.378 . S
C158 C162 1.350 . S
C159 C162 1.463 . S
C159 C164 1.350 . S
C159 N167 1.427 . S
C160 H151 0.930 . S
C160 C158 1.378 . S
C160 C161 1.367 . S
C161 C160 1.367 . S
C161 C163 1.433 . S
C162 C158 1.350 . S
C162 C159 1.463 . S
C162 N166 1.427 . S
C163 H153 0.929 . S
C163 C161 1.433 . S
C163 N166 1.384 . S
C164 H155 0.929 . S
C164 C156 1.378 . S
C164 C159 1.350 . S
C165 H152 0.929 . S
C165 C157 1.433 . S
C165 N167 1.384 . S
N166 C162 1.427 . S
N166 C163 1.384 . S
N167 C159 1.427 . S
N167 C165 1.384 . S
H168 C174 0.930 . S
H169 C178 0.930 . S
H170 C183 0.929 . S
H171 C181 0.929 . S
H172 C176 0.929 . S
H173 C182 0.929 1_455 S
C174 H168 0.930 . S
C174 C175 1.367 . S
C174 C182 1.378 . S
C175 C174 1.367 . S
C175 C183 1.433 . S
C176 H172 0.929 . S
C176 C178 1.378 . S
C176 C180 1.350 . S
C177 C180 1.463 1_554 S
C177 C182 1.350 . S
C177 N185 1.427 . S
C178 H169 0.930 . S
C178 C176 1.378 . S
C178 C179 1.367 1_655 S
C179 C178 1.367 1_455 S
C179 C181 1.433 . S
C180 C176 1.350 . S
C180 C177 1.463 1_556 S
C180 N184 1.427 1_655 S
C181 H171 0.929 . S
C181 C179 1.433 . S
C181 N184 1.384 . S
C182 H173 0.929 1_655 S
C182 C174 1.378 . S
C182 C177 1.350 . S
C183 H170 0.929 . S
C183 C175 1.433 . S
C183 N185 1.384 . S
N184 C180 1.427 1_455 S
N184 C181 1.384 . S
N185 C177 1.427 . S
N185 C183 1.384 . S
H186 C192 0.930 . S
H187 C196 0.930 . S
H188 C201 0.929 . S
H189 C199 0.929 . S
H190 C194 0.929 . S
H191 C200 0.929 . S
C192 H186 0.930 . S
C192 C193 1.367 . S
C192 C200 1.378 . S
C193 C192 1.367 . S
C193 C201 1.433 1_545 S
C194 H190 0.929 . S
C194 C196 1.378 . S
C194 C198 1.350 . S
C195 C198 1.463 . S
C195 C200 1.350 1_565 S
C195 N203 1.427 . S
C196 H187 0.930 . S
C196 C194 1.378 . S
C196 C197 1.367 . S
C197 C196 1.367 . S
C197 C199 1.433 1_565 S
C198 C194 1.350 . S
C198 C195 1.463 . S
C198 N202 1.427 1_565 S
C199 H189 0.929 . S
C199 C197 1.433 1_545 S
C199 N202 1.384 . S
C200 H191 0.929 . S
C200 C192 1.378 . S
C200 C195 1.350 1_545 S
C201 H188 0.929 . S
C201 C193 1.433 1_565 S
C201 N203 1.384 . S
N202 C198 1.427 1_545 S
N202 C199 1.384 . S
N203 C195 1.427 . S
N203 C201 1.384 . S
H204 C210 0.930 . S
H205 C214 0.930 . S
H206 C219 0.929 . S
H207 C217 0.929 . S
H208 C212 0.929 . S
H209 C218 0.929 . S
C210 H204 0.930 . S
C210 C211 1.367 . S
C210 C218 1.378 . S
C211 C210 1.367 . S
C211 C219 1.433 . S
C212 H208 0.929 . S
C212 C214 1.378 . S
C212 C216 1.350 . S
C213 C216 1.463 1_556 S
C213 C218 1.350 . S
C213 N221 1.427 . S
C214 H205 0.930 . S
C214 C212 1.378 . S
C214 C215 1.367 . S
C215 C214 1.367 . S
C215 C217 1.433 . S
C216 C212 1.350 . S
C216 C213 1.463 1_554 S
C216 N220 1.427 . S
C217 H207 0.929 . S
C217 C215 1.433 . S
C217 N220 1.384 . S
C218 H209 0.929 . S
C218 C210 1.378 . S
C218 C213 1.350 . S
C219 H206 0.929 . S
C219 C211 1.433 . S
C219 N221 1.384 . S
N220 C216 1.427 . S
N220 C217 1.384 . S
N221 C213 1.427 . S
N221 C219 1.384 . S
H222 C228 0.930 . S
H223 C232 0.930 . S
H224 C237 0.929 . S
H225 C235 0.929 1_655 S
H226 C230 0.929 . S
H227 C236 0.929 . S
C228 H222 0.930 . S
C228 C229 1.367 . S
C228 C236 1.378 . S
C229 C228 1.367 . S
C229 C237 1.433 1_655 S
C230 H226 0.929 . S
C230 C232 1.378 . S
C230 C234 1.350 . S
C231 C234 1.463 . S
C231 C236 1.350 1_455 S
C231 N239 1.427 . S
C232 H223 0.930 . S
C232 C230 1.378 . S
C232 C233 1.367 . S
C233 C232 1.367 . S
C233 C235 1.433 . S
C234 C230 1.350 . S
C234 C231 1.463 . S
C234 N238 1.427 1_455 S
C235 H225 0.929 1_455 S
C235 C233 1.433 . S
C235 N238 1.384 1_455 S
C236 H227 0.929 . S
C236 C228 1.378 . S
C236 C231 1.350 1_655 S
C237 H224 0.929 . S
C237 C229 1.433 1_455 S
C237 N239 1.384 . S
N238 C234 1.427 1_655 S
N238 C235 1.384 1_655 S
N239 C231 1.427 . S
N239 C237 1.384 . S
H240 C246 0.930 . S
H241 C250 0.930 . S
H242 C255 0.929 . S
H243 C253 0.929 . S
H244 C248 0.929 . S
H245 C254 0.929 . S
C246 H240 0.930 . S
C246 C247 1.367 . S
C246 C254 1.378 . S
C247 C246 1.367 . S
C247 C255 1.433 . S
C248 H244 0.929 . S
C248 C250 1.378 . S
C248 C252 1.350 . S
C249 C252 1.463 . S
C249 C254 1.350 . S
C249 N257 1.427 . S
C250 H241 0.930 . S
C250 C248 1.378 . S
C250 C251 1.367 . S
C251 C250 1.367 . S
C251 C253 1.433 . S
C252 C248 1.350 . S
C252 C249 1.463 . S
C252 N256 1.427 . S
C253 H243 0.929 . S
C253 C251 1.433 . S
C253 N256 1.384 . S
C254 H245 0.929 . S
C254 C246 1.378 . S
C254 C249 1.350 . S
C255 H242 0.929 . S
C255 C247 1.433 . S
C255 N257 1.384 . S
N256 C252 1.427 . S
N256 C253 1.384 . S
N257 C249 1.427 . S
N257 C255 1.384 . S
H258 C264 0.930 . S
H259 C268 0.930 . S
H260 C273 0.929 . S
H261 C271 0.929 . S
H262 C266 0.929 . S
H263 C272 0.929 . S
C264 H258 0.930 . S
C264 C265 1.367 . S
C264 C272 1.378 . S
C265 C264 1.367 . S
C265 C273 1.433 . S
C266 H262 0.929 . S
C266 C268 1.378 . S
C266 C270 1.350 . S
C267 C270 1.463 . S
C267 C272 1.350 . S
C267 N275 1.427 . S
C268 H259 0.930 . S
C268 C266 1.378 . S
C268 C269 1.367 . S
C269 C268 1.367 . S
C269 C271 1.433 . S
C270 C266 1.350 . S
C270 C267 1.463 . S
C270 N274 1.427 . S
C271 H261 0.929 . S
C271 C269 1.433 . S
C271 N274 1.384 . S
C272 H263 0.929 . S
C272 C264 1.378 . S
C272 C267 1.350 . S
C273 H260 0.929 . S
C273 C265 1.433 . S
C273 N275 1.384 . S
N274 C270 1.427 . S
N274 C271 1.384 . S
N275 C267 1.427 . S
N275 C273 1.384 . S
H276 C282 0.930 . S
H277 C286 0.930 . S
H278 C291 0.929 . S
H279 C289 0.929 . S
H280 C284 0.929 . S
H281 C290 0.929 . S
C282 H276 0.930 . S
C282 C283 1.367 . S
C282 C290 1.378 . S
C283 C282 1.367 . S
C283 C291 1.433 . S
C284 H280 0.929 . S
C284 C286 1.378 . S
C284 C288 1.350 . S
C285 C288 1.463 . S
C285 C290 1.350 . S
C285 N293 1.427 . S
C286 H277 0.930 . S
C286 C284 1.378 . S
C286 C287 1.367 . S
C287 C286 1.367 . S
C287 C289 1.433 . S
C288 C284 1.350 . S
C288 C285 1.463 . S
C288 N292 1.427 . S
C289 H279 0.929 . S
C289 C287 1.433 . S
C289 N292 1.384 . S
C290 H281 0.929 . S
C290 C282 1.378 . S
C290 C285 1.350 . S
C291 H278 0.929 . S
C291 C283 1.433 . S
C291 N293 1.384 . S
N292 C288 1.427 . S
N292 C289 1.384 . S
N293 C285 1.427 . S
N293 C291 1.384 . S
H294 C300 0.930 . S
H295 C304 0.930 . S
H296 C309 0.929 . S
H297 C307 0.929 . S
H298 C302 0.929 . S
H299 C308 0.929 . S
C300 H294 0.930 . S
C300 C301 1.367 . S
C300 C308 1.378 . S
C301 C300 1.367 . S
C301 C309 1.433 . S
C302 H298 0.929 . S
C302 C304 1.378 . S
C302 C306 1.350 . S
C303 C306 1.463 . S
C303 C308 1.350 . S
C303 N311 1.427 . S
C304 H295 0.930 . S
C304 C302 1.378 . S
C304 C305 1.367 . S
C305 C304 1.367 . S
C305 C307 1.433 . S
C306 C302 1.350 . S
C306 C303 1.463 . S
C306 N310 1.427 . S
C307 H297 0.929 . S
C307 C305 1.433 . S
C307 N310 1.384 . S
C308 H299 0.929 . S
C308 C300 1.378 . S
C308 C303 1.350 . S
C309 H296 0.929 . S
C309 C301 1.433 . S
C309 N311 1.384 . S
N310 C306 1.427 . S
N310 C307 1.384 . S
N311 C303 1.427 . S
N311 C309 1.384 . S
H312 C318 0.930 . S
H313 C322 0.930 . S
H314 C327 0.929 . S
H315 C325 0.929 . S
H316 C320 0.929 . S
H317 C326 0.929 . S
C318 H312 0.930 . S
C318 C319 1.367 . S
C318 C326 1.378 . S
C319 C318 1.367 . S
C319 C327 1.433 . S
C320 H316 0.929 . S
C320 C322 1.378 . S
C320 C324 1.350 . S
C321 C324 1.463 . S
C321 C326 1.350 . S
C321 N329 1.427 . S
C322 H313 0.930 . S
C322 C320 1.378 . S
C322 C323 1.367 . S
C323 C322 1.367 . S
C323 C325 1.433 . S
C324 C320 1.350 . S
C324 C321 1.463 . S
C324 N328 1.427 . S
C325 H315 0.929 . S
C325 C323 1.433 . S
C325 N328 1.384 . S
C326 H317 0.929 . S
C326 C318 1.378 . S
C326 C321 1.350 . S
C327 H314 0.929 . S
C327 C319 1.433 . S
C327 N329 1.384 . S
N328 C324 1.427 . S
N328 C325 1.384 . S
N329 C321 1.427 . S
N329 C327 1.384 . S
H330 C336 0.930 . S
H331 C340 0.930 . S
H332 C345 0.929 . S
H333 C343 0.929 . S
H334 C338 0.929 . S
H335 C344 0.929 . S
C336 H330 0.930 . S
C336 C337 1.367 . S
C336 C344 1.378 . S
C337 C336 1.367 . S
C337 C345 1.433 . S
C338 H334 0.929 . S
C338 C340 1.378 . S
C338 C342 1.350 . S
C339 C342 1.463 . S
C339 C344 1.350 . S
C339 N347 1.427 . S
C340 H331 0.930 . S
C340 C338 1.378 . S
C340 C341 1.367 . S
C341 C340 1.367 . S
C341 C343 1.433 . S
C342 C338 1.350 . S
C342 C339 1.463 . S
C342 N346 1.427 . S
C343 H333 0.929 . S
C343 C341 1.433 . S
C343 N346 1.384 . S
C344 H335 0.929 . S
C344 C336 1.378 . S
C344 C339 1.350 . S
C345 H332 0.929 . S
C345 C337 1.433 . S
C345 N347 1.384 . S
N346 C342 1.427 . S
N346 C343 1.384 . S
N347 C339 1.427 . S
N347 C345 1.384 . S
H348 C354 0.930 . S
H349 C358 0.930 . S
H350 C363 0.929 . S
H351 C361 0.929 . S
H352 C356 0.929 . S
H353 C362 0.929 . S
C354 H348 0.930 . S
C354 C355 1.367 . S
C354 C362 1.378 . S
C355 C354 1.367 . S
C355 C363 1.433 . S
C356 H352 0.929 . S
C356 C358 1.378 . S
C356 C360 1.350 . S
C357 C360 1.463 . S
C357 C362 1.350 . S
C357 N365 1.427 . S
C358 H349 0.930 . S
C358 C356 1.378 . S
C358 C359 1.367 . S
C359 C358 1.367 . S
C359 C361 1.433 . S
C360 C356 1.350 . S
C360 C357 1.463 . S
C360 N364 1.427 . S
C361 H351 0.929 . S
C361 C359 1.433 . S
C361 N364 1.384 . S
C362 H353 0.929 . S
C362 C354 1.378 . S
C362 C357 1.350 . S
C363 H350 0.929 . S
C363 C355 1.433 . S
C363 N365 1.384 . S
N364 C360 1.427 . S
N364 C361 1.384 . S
N365 C357 1.427 . S
N365 C363 1.384 . S
H366 C372 0.930 . S
H367 C376 0.930 . S
H368 C381 0.929 . S
H369 C379 0.929 . S
H370 C374 0.929 . S
H371 C380 0.929 . S
C372 H366 0.930 . S
C372 C373 1.367 . S
C372 C380 1.378 . S
C373 C372 1.367 . S
C373 C381 1.433 . S
C374 H370 0.929 . S
C374 C376 1.378 . S
C374 C378 1.350 . S
C375 C378 1.463 . S
C375 C380 1.350 1_455 S
C375 N383 1.427 1_455 S
C376 H367 0.930 . S
C376 C374 1.378 . S
C376 C377 1.367 . S
C377 C376 1.367 . S
C377 C379 1.433 . S
C378 C374 1.350 . S
C378 C375 1.463 . S
C378 N382 1.427 . S
C379 H369 0.929 . S
C379 C377 1.433 . S
C379 N382 1.384 . S
C380 H371 0.929 . S
C380 C372 1.378 . S
C380 C375 1.350 1_655 S
C381 H368 0.929 . S
C381 C373 1.433 . S
C381 N383 1.384 . S
N382 C378 1.427 . S
N382 C379 1.384 . S
N383 C375 1.427 1_655 S
N383 C381 1.384 . S
H384 C390 0.930 . S
H385 C394 0.930 . S
H386 C399 0.929 . S
H387 C397 0.929 . S
H388 C392 0.929 . S
H389 C398 0.929 . S
C390 H384 0.930 . S
C390 C391 1.367 . S
C390 C398 1.378 . S
C391 C390 1.367 . S
C391 C399 1.433 . S
C392 H388 0.929 . S
C392 C394 1.378 . S
C392 C396 1.350 . S
C393 C396 1.463 . S
C393 C398 1.350 1_565 S
C393 N401 1.427 1_565 S
C394 H385 0.930 . S
C394 C392 1.378 . S
C394 C395 1.367 . S
C395 C394 1.367 . S
C395 C397 1.433 . S
C396 C392 1.350 . S
C396 C393 1.463 . S
C396 N400 1.427 . S
C397 H387 0.929 . S
C397 C395 1.433 . S
C397 N400 1.384 . S
C398 H389 0.929 . S
C398 C390 1.378 . S
C398 C393 1.350 1_545 S
C399 H386 0.929 . S
C399 C391 1.433 . S
C399 N401 1.384 . S
N400 C396 1.427 . S
N400 C397 1.384 . S
N401 C393 1.427 1_545 S
N401 C399 1.384 . S
H402 C408 0.930 . S
H403 C412 0.930 . S
H404 C417 0.929 . S
H405 C415 0.929 . S
H406 C410 0.929 . S
H407 C416 0.929 . S
C408 H402 0.930 . S
C408 C409 1.367 . S
C408 C416 1.378 . S
C409 C408 1.367 . S
C409 C417 1.433 . S
C410 H406 0.929 . S
C410 C412 1.378 . S
C410 C414 1.350 . S
C411 C414 1.463 . S
C411 C416 1.350 . S
C411 N419 1.427 . S
C412 H403 0.930 . S
C412 C410 1.378 . S
C412 C413 1.367 . S
C413 C412 1.367 . S
C413 C415 1.433 . S
C414 C410 1.350 . S
C414 C411 1.463 . S
C414 N418 1.427 . S
C415 H405 0.929 . S
C415 C413 1.433 . S
C415 N418 1.384 . S
C416 H407 0.929 . S
C416 C408 1.378 . S
C416 C411 1.350 . S
C417 H404 0.929 . S
C417 C409 1.433 . S
C417 N419 1.384 . S
N418 C414 1.427 . S
N418 C415 1.384 . S
N419 C411 1.427 . S
N419 C417 1.384 . S
H420 C426 0.930 . S
H421 C430 0.930 . S
H422 C435 0.929 . S
H423 C433 0.929 . S
H424 C428 0.929 . S
H425 C434 0.929 1_655 S
C426 H420 0.930 . S
C426 C427 1.367 . S
C426 C434 1.378 . S
C427 C426 1.367 . S
C427 C435 1.433 . S
C428 H424 0.929 . S
C428 C430 1.378 . S
C428 C432 1.350 . S
C429 C432 1.463 . S
C429 C434 1.350 1_655 S
C429 N437 1.427 1_655 S
C430 H421 0.930 . S
C430 C428 1.378 . S
C430 C431 1.367 . S
C431 C430 1.367 . S
C431 C433 1.433 . S
C432 C428 1.350 . S
C432 C429 1.463 . S
C432 N436 1.427 . S
C433 H423 0.929 . S
C433 C431 1.433 . S
C433 N436 1.384 . S
C434 H425 0.929 1_455 S
C434 C426 1.378 . S
C434 C429 1.350 1_455 S
C435 H422 0.929 . S
C435 C427 1.433 . S
C435 N437 1.384 . S
N436 C432 1.427 . S
N436 C433 1.384 . S
N437 C429 1.427 1_455 S
N437 C435 1.384 . S
H438 C444 0.930 . S
H439 C448 0.930 . S
H440 C453 0.929 . S
H441 C451 0.929 . S
H442 C446 0.929 . S
H443 C452 0.929 . S
C444 H438 0.930 . S
C444 C445 1.367 . S
C444 C452 1.378 . S
C445 C444 1.367 . S
C445 C453 1.433 . S
C446 H442 0.929 . S
C446 C448 1.378 . S
C446 C450 1.350 1_565 S
C447 C450 1.463 . S
C447 C452 1.350 . S
C447 N455 1.427 . S
C448 H439 0.930 . S
C448 C446 1.378 . S
C448 C449 1.367 . S
C449 C448 1.367 . S
C449 C451 1.433 . S
C450 C446 1.350 1_545 S
C450 C447 1.463 . S
C450 N454 1.427 1_545 S
C451 H441 0.929 . S
C451 C449 1.433 . S
C451 N454 1.384 . S
C452 H443 0.929 . S
C452 C444 1.378 . S
C452 C447 1.350 . S
C453 H440 0.929 . S
C453 C445 1.433 . S
C453 N455 1.384 . S
N454 C450 1.427 1_565 S
N454 C451 1.384 . S
N455 C447 1.427 . S
N455 C453 1.384 . S
C139 C94 0.636 . S
C143 C5 0.653 . S
C157 C115 1.368 . S
C161 C28 1.340 . S
C175 C49 2.112 . S
C179 C72 2.183 . S
C193 C9 2.180 . S
C197 C95 2.113 . S
C211 C119 1.346 . S
C215 C29 1.368 . S
C229 C53 0.634 . S
C233 C73 0.636 . S
C247 C6 1.437 . S
C251 C48 1.323 . S
C265 C27 1.255 . S
C269 C4 1.216 . S
C283 C50 1.278 . S
C287 C26 1.234 . S
C301 C75 1.434 . S
C305 C96 1.300 . S
C319 C97 1.280 . S
C323 C118 1.239 . S
C337 C74 1.209 . S
C341 C117 1.253 . S
C355 C8 1.254 . S
C359 C51 1.326 . S
C373 C30 1.258 . S
C377 C7 1.289 . S
C391 C52 1.274 . S
C395 C31 1.330 . S
C409 C70 1.268 . S
C413 C93 1.324 . S
C427 C92 1.288 . S
C431 C116 1.337 . S
C445 C71 1.288 . S
C449 C114 1.256 . S
