# Generated by pormake.
# Topology wjh, (4)-cn, num edge types: 1
# Building blocks:
#     Node 0, Type 0, BuildingBlock: KUFVIS_clean_sbu_0, # of connection points: 4
#     Node 1, Type 0, BuildingBlock: KUFVIS_clean_sbu_0, # of connection points: 4
#     Node 2, Type 0, BuildingBlock: KUFVIS_clean_sbu_0, # of connection points: 4
#     Node 3, Type 0, BuildingBlock: KUFVIS_clean_sbu_0, # of connection points: 4
#     Node 4, Type 0, BuildingBlock: KUFVIS_clean_sbu_0, # of connection points: 4
#     Node 5, Type 0, BuildingBlock: KUFVIS_clean_sbu_0, # of connection points: 4
#     Node 6, Type 0, BuildingBlock: KUFVIS_clean_sbu_0, # of connection points: 4
#     Node 7, Type 0, BuildingBlock: KUFVIS_clean_sbu_0, # of connection points: 4
#     Node 8, Type 0, BuildingBlock: KUFVIS_clean_sbu_0, # of connection points: 4
#     Node 9, Type 0, BuildingBlock: KUFVIS_clean_sbu_0, # of connection points: 4
#     Node 10, Type 0, BuildingBlock: KUFVIS_clean_sbu_0, # of connection points: 4
#     Node 11, Type 0, BuildingBlock: KUFVIS_clean_sbu_0, # of connection points: 4
#     Edge 12, Type (0, 0), BuildingBlock: KIFKEQ_clean_linker_1, # of connection points: 2
#     Edge 13, Type (0, 0), BuildingBlock: KIFKEQ_clean_linker_1, # of connection points: 2
#     Edge 14, Type (0, 0), BuildingBlock: KIFKEQ_clean_linker_1, # of connection points: 2
#     Edge 15, Type (0, 0), BuildingBlock: KIFKEQ_clean_linker_1, # of connection points: 2
#     Edge 16, Type (0, 0), BuildingBlock: KIFKEQ_clean_linker_1, # of connection points: 2
#     Edge 17, Type (0, 0), BuildingBlock: KIFKEQ_clean_linker_1, # of connection points: 2
#     Edge 18, Type (0, 0), BuildingBlock: KIFKEQ_clean_linker_1, # of connection points: 2
#     Edge 19, Type (0, 0), BuildingBlock: KIFKEQ_clean_linker_1, # of connection points: 2
#     Edge 20, Type (0, 0), BuildingBlock: KIFKEQ_clean_linker_1, # of connection points: 2
#     Edge 21, Type (0, 0), BuildingBlock: KIFKEQ_clean_linker_1, # of connection points: 2
#     Edge 22, Type (0, 0), BuildingBlock: KIFKEQ_clean_linker_1, # of connection points: 2
#     Edge 23, Type (0, 0), BuildingBlock: KIFKEQ_clean_linker_1, # of connection points: 2
#     Edge 24, Type (0, 0), BuildingBlock: KIFKEQ_clean_linker_1, # of connection points: 2
#     Edge 25, Type (0, 0), BuildingBlock: KIFKEQ_clean_linker_1, # of connection points: 2
#     Edge 26, Type (0, 0), BuildingBlock: KIFKEQ_clean_linker_1, # of connection points: 2
#     Edge 27, Type (0, 0), BuildingBlock: KIFKEQ_clean_linker_1, # of connection points: 2
#     Edge 28, Type (0, 0), BuildingBlock: KIFKEQ_clean_linker_1, # of connection points: 2
#     Edge 29, Type (0, 0), BuildingBlock: KIFKEQ_clean_linker_1, # of connection points: 2
#     Edge 30, Type (0, 0), BuildingBlock: KIFKEQ_clean_linker_1, # of connection points: 2
#     Edge 31, Type (0, 0), BuildingBlock: KIFKEQ_clean_linker_1, # of connection points: 2
#     Edge 32, Type (0, 0), BuildingBlock: KIFKEQ_clean_linker_1, # of connection points: 2
#     Edge 33, Type (0, 0), BuildingBlock: KIFKEQ_clean_linker_1, # of connection points: 2
#     Edge 34, Type (0, 0), BuildingBlock: KIFKEQ_clean_linker_1, # of connection points: 2
#     Edge 35, Type (0, 0), BuildingBlock: KIFKEQ_clean_linker_1, # of connection points: 2
# Relax obj value: 0.090
# Max RMSD: 0.110
# Mean RMSD: 0.110
data_MOF--net-wjh--node1-KUFVIS_clean_sbu_0--edge1-KIFKEQ_clean_linker_1
_symmetry_space_group_name_H-M    P1
_symmetry_Int_Tables_number       1
_symmetry_cell_setting            triclinic
loop_
_symmetry_equiv_pos_as_xyz
'x, y, z'
_cell_length_a     62.518004
_cell_length_b     62.478502
_cell_length_c     26.456068
_cell_angle_alpha  90.015192
_cell_angle_beta   90.001777
_cell_angle_gamma 120.03334
loop_
_atom_site_label
_atom_site_type_symbol
_atom_site_fract_x
_atom_site_fract_y
_atom_site_fract_z
_atom_type_partial_charge
Mn0 Mn 0.53063 0.16531 0.06205 0.0
Mn1 Mn 0.56542 0.13791 0.05518 0.0
C2 C 0.54284 0.15404 0.13473 0.0
C3 C 0.5287 0.20174 0.06805 0.0
C4 C 0.51015 0.11114 0.03456 0.0
O5 O 0.54307 0.17149 0.98857 0.0
O6 O 0.57029 0.15776 -0.00617 0.0
C7 C 0.61478 0.18294 0.06072 0.0
N8 N 0.59815 0.16013 0.07861 0.0
C9 C 0.62665 0.16239 0.14241 0.0
C10 C 0.64425 0.18572 0.12405 0.0
C11 C 0.63823 0.1961 0.08323 0.0
C12 C 0.60356 0.1502 0.11856 0.0
H13 H 0.61011 0.1911 0.02982 0.0
C14 C 0.56053 0.16868 0.9705 0.0
O15 O 0.50982 0.1812 0.05258 0.0
O16 O 0.54891 0.2014 0.07673 0.0
N17 N 0.56281 0.11814 0.11275 0.0
C18 C 0.54353 0.09578 0.12687 0.0
C19 C 0.54641 0.08304 0.16761 0.0
C20 C 0.56915 0.09322 0.19298 0.0
C21 C 0.58884 0.11606 0.17735 0.0
C22 C 0.58494 0.12783 0.13625 0.0
H23 H 0.52608 0.08765 0.1072 0.0
O24 O 0.52464 0.15837 0.13617 0.0
O25 O 0.5537 0.15715 0.09155 0.0
O26 O 0.5063 0.12872 0.04687 0.0
O27 O 0.53165 0.11342 0.03227 0.0
C28 C 0.61215 0.12769 0.2011 0.0
C29 C 0.63097 0.15093 0.18391 0.0
H30 H 0.66234 0.19594 0.14136 0.0
H31 H 0.65161 0.21422 0.06922 0.0
H32 H 0.53114 0.06537 0.17933 0.0
H33 H 0.57126 0.08334 0.22446 0.0
H34 H 0.61572 0.11905 0.23297 0.0
H35 H 0.64867 0.15988 0.20302 0.0
Mn36 Mn 0.38123 0.53143 0.22937 0.0
Mn37 Mn 0.44334 0.56759 0.22396 0.0
C38 C 0.40442 0.54303 0.30253 0.0
C39 C 0.34243 0.52837 0.236 0.0
C40 C 0.41613 0.51254 0.20069 0.0
O41 O 0.3874 0.54486 0.1566 0.0
O42 O 0.42822 0.57226 0.16273 0.0
C43 C 0.44619 0.61627 0.23047 0.0
N44 N 0.45283 0.59996 0.24821 0.0
C45 C 0.47849 0.62855 0.31252 0.0
C46 C 0.4722 0.64579 0.2945 0.0
C47 C 0.45586 0.63956 0.25348 0.0
C48 C 0.46813 0.60557 0.28828 0.0
H49 H 0.43352 0.61148 0.19918 0.0
C50 C 0.40764 0.56262 0.13906 0.0
O51 O 0.34464 0.51 0.21921 0.0
O52 O 0.36269 0.54874 0.24565 0.0
N53 N 0.46071 0.56528 0.28138 0.0
C54 C 0.46457 0.5464 0.29476 0.0
C55 C 0.48043 0.5496 0.33524 0.0
C56 C 0.49245 0.57227 0.36106 0.0
C57 C 0.48846 0.59154 0.34625 0.0
C58 C 0.47258 0.58732 0.30541 0.0
H59 H 0.45571 0.52905 0.27464 0.0
O60 O 0.38207 0.52443 0.30296 0.0
O61 O 0.41216 0.55468 0.26007 0.0
O62 O 0.3944 0.508 0.2123 0.0
O63 O 0.4351 0.53427 0.20012 0.0
C64 C 0.49961 0.61477 0.37039 0.0
C65 C 0.49443 0.63317 0.35386 0.0
H66 H 0.47965 0.66378 0.31211 0.0
H67 H 0.45075 0.65268 0.23963 0.0
H68 H 0.48348 0.53467 0.34634 0.0
H69 H 0.50474 0.57467 0.39213 0.0
H70 H 0.51204 0.61862 0.40198 0.0
H71 H 0.50282 0.65081 0.37322 0.0
Mn72 Mn 0.86448 0.37639 0.39378 0.0
Mn73 Mn 0.89059 0.43852 0.38714 0.0
C74 C 0.87524 0.39984 0.46656 0.0
C75 C 0.82858 0.33759 0.39966 0.0
C76 C 0.9184 0.41108 0.36628 0.0
O77 O 0.85806 0.38247 0.32034 0.0
O78 O 0.87085 0.42325 0.3258 0.0
C79 C 0.84494 0.44168 0.39286 0.0
N80 N 0.86788 0.44834 0.41069 0.0
C81 C 0.86499 0.47421 0.47459 0.0
C82 C 0.84153 0.46798 0.45628 0.0
C83 C 0.8314 0.45152 0.41544 0.0
C84 C 0.87757 0.46375 0.45065 0.0
H85 H 0.83699 0.4288 0.36195 0.0
C86 C 0.86034 0.40256 0.30239 0.0
O87 O 0.8493 0.33972 0.38421 0.0
O88 O 0.82846 0.35792 0.40841 0.0
N89 N 0.91019 0.45594 0.44473 0.0
C90 C 0.93272 0.4595 0.45884 0.0
C91 C 0.94525 0.47523 0.49962 0.0
C92 C 0.93467 0.4874 0.52505 0.0
C93 C 0.91165 0.48375 0.50944 0.0
C94 C 0.90012 0.468 0.4683 0.0
H95 H 0.94115 0.45049 0.43914 0.0
O96 O 0.87146 0.37748 0.46793 0.0
O97 O 0.87193 0.40743 0.42339 0.0
O98 O 0.90119 0.38946 0.37862 0.0
O99 O 0.91559 0.43 0.36408 0.0
C100 C 0.89962 0.49499 0.53328 0.0
C101 C 0.87622 0.49007 0.51612 0.0
H102 H 0.83102 0.47551 0.47365 0.0
H103 H 0.81318 0.44639 0.40147 0.0
H104 H 0.96305 0.47802 0.51133 0.0
H105 H 0.94438 0.49947 0.55655 0.0
H106 H 0.90806 0.50724 0.56521 0.0
H107 H 0.86697 0.49849 0.5353 0.0
Mn108 Mn 0.49241 0.86274 0.57162 0.0
Mn109 Mn 0.45558 0.88788 0.56935 0.0
C110 C 0.48203 0.87483 0.64575 0.0
C111 C 0.49463 0.82639 0.57908 0.0
C112 C 0.51022 0.91625 0.54167 0.0
O113 O 0.47764 0.85468 0.5 0.0
O114 O 0.45015 0.86783 0.50815 0.0
C115 C 0.40732 0.84175 0.57859 0.0
N116 N 0.42375 0.86483 0.59564 0.0
C117 C 0.39603 0.86195 0.66179 0.0
C118 C 0.37869 0.83825 0.64461 0.0
C119 C 0.38443 0.82806 0.603 0.0
C120 C 0.41861 0.87462 0.6362 0.0
H121 H 0.41171 0.83383 0.54673 0.0
C122 C 0.45956 0.85691 0.48367 0.0
O123 O 0.51299 0.84645 0.56031 0.0
O124 O 0.47493 0.82726 0.58991 0.0
N125 N 0.45859 0.9078 0.62688 0.0
C126 C 0.47752 0.93067 0.63932 0.0
C127 C 0.47479 0.94343 0.68022 0.0
C128 C 0.45252 0.93274 0.7074 0.0
C129 C 0.43318 0.9093 0.69358 0.0
C130 C 0.43694 0.89752 0.65234 0.0
H131 H 0.49455 0.9392 0.61812 0.0
O132 O 0.50078 0.87136 0.64469 0.0
O133 O 0.46968 0.87049 0.60414 0.0
O134 O 0.51548 0.89937 0.55223 0.0
O135 O 0.48831 0.91296 0.54357 0.0
C136 C 0.41033 0.89717 0.71907 0.0
C137 C 0.39187 0.87341 0.70351 0.0
H138 H 0.36099 0.82766 0.66326 0.0
H139 H 0.37122 0.80972 0.58972 0.0
H140 H 0.48977 0.96154 0.69056 0.0
H141 H 0.45047 0.94271 0.73876 0.0
H142 H 0.40682 0.90585 0.75094 0.0
H143 H 0.37453 0.86412 0.7239 0.0
Mn144 Mn 0.65204 0.49966 0.73108 0.0
Mn145 Mn 0.58988 0.46379 0.72748 0.0
C146 C 0.62944 0.48785 0.80503 0.0
C147 C 0.69077 0.50242 0.73571 0.0
C148 C 0.61721 0.51889 0.70459 0.0
O149 O 0.64519 0.48639 0.65812 0.0
O150 O 0.60442 0.45897 0.66551 0.0
C151 C 0.58668 0.41493 0.73299 0.0
N152 N 0.58031 0.43134 0.75131 0.0
C153 C 0.55475 0.40273 0.81563 0.0
C154 C 0.56073 0.38536 0.79696 0.0
C155 C 0.5769 0.39156 0.75567 0.0
C156 C 0.56522 0.42578 0.79172 0.0
H157 H 0.59923 0.4197 0.70151 0.0
C158 C 0.6248 0.4686 0.64114 0.0
O159 O 0.68859 0.52094 0.71983 0.0
O160 O 0.6705 0.48212 0.74565 0.0
N161 N 0.57308 0.46626 0.78575 0.0
C162 C 0.56962 0.48529 0.79991 0.0
C163 C 0.55403 0.48217 0.84086 0.0
C164 C 0.54186 0.45942 0.86632 0.0
C165 C 0.54547 0.44 0.85076 0.0
C166 C 0.56112 0.44416 0.80954 0.0
H167 H 0.57857 0.5027 0.78004 0.0
O168 O 0.65181 0.5064 0.80505 0.0
O169 O 0.62131 0.47643 0.76245 0.0
O170 O 0.63896 0.52331 0.7156 0.0
O171 O 0.59818 0.4972 0.70407 0.0
C172 C 0.53415 0.41668 0.87449 0.0
C173 C 0.53899 0.39815 0.85728 0.0
H174 H 0.55319 0.36731 0.8143 0.0
H175 H 0.5818 0.37835 0.74134 0.0
H176 H 0.55129 0.49722 0.85256 0.0
H177 H 0.52976 0.45708 0.89772 0.0
H178 H 0.52184 0.41284 0.90628 0.0
H179 H 0.5305 0.38044 0.87637 0.0
Mn180 Mn 0.16536 0.6456 0.90349 0.0
Mn181 Mn 0.14405 0.58417 0.90234 0.0
C182 C 0.15571 0.62374 0.97832 0.0
C183 C 0.19984 0.68554 0.90755 0.0
C184 C 0.11245 0.60714 0.87596 0.0
O185 O 0.17288 0.63908 0.83125 0.0
O186 O 0.16345 0.59941 0.84075 0.0
C187 C 0.19182 0.58531 0.91105 0.0
N188 N 0.16854 0.5774 0.92844 0.0
C189 C 0.17336 0.5537 -0.00548 0.0
C190 C 0.19732 0.56142 0.97706 0.0
C191 C 0.20663 0.5774 0.93531 0.0
C192 C 0.15957 0.5624 0.96912 0.0
H193 H 0.19902 0.59761 0.879 0.0
C194 C 0.17244 0.61948 0.8154 0.0
O195 O 0.17867 0.68192 0.89113 0.0
O196 O 0.20117 0.66608 0.91857 0.0
N197 N 0.12486 0.56669 0.96018 0.0
C198 C 0.10147 0.56114 0.97254 0.0
C199 C 0.08933 0.54512 0.0131 0.0
C200 C 0.10119 0.53466 0.04005 0.0
C201 C 0.1252 0.54049 0.02649 0.0
C202 C 0.13629 0.55642 0.98546 0.0
H203 H 0.09202 0.5687 0.95144 0.0
O204 O 0.15777 0.64541 0.97712 0.0
O205 O 0.16015 0.61598 0.93647 0.0
O206 O 0.1282 0.62963 0.88682 0.0
O207 O 0.11746 0.58962 0.87673 0.0
C208 C 0.13852 0.53105 0.05192 0.0
C209 C 0.16268 0.53785 0.03628 0.0
H210 H 0.20877 0.55528 -0.00443 0.0
H211 H 0.22515 0.58354 0.92179 0.0
H212 H 0.07078 0.54065 0.02326 0.0
H213 H 0.09162 0.52208 0.07093 0.0
H214 H 0.13044 0.51868 0.08379 0.0
H215 H 0.17286 0.53074 0.05656 0.0
Mn216 Mn 0.87584 0.49582 0.86832 0.0
Mn217 Mn 0.89793 0.45645 0.86278 0.0
C218 C 0.88461 0.48451 0.79132 0.0
C219 C 0.84107 0.50076 0.86769 0.0
C220 C 0.92937 0.51085 0.89144 0.0
O221 O 0.86883 0.48055 0.93952 0.0
O222 O 0.8796 0.45147 0.92639 0.0
C223 C 0.85012 0.40967 0.85523 0.0
N224 N 0.87316 0.42522 0.83685 0.0
C225 C 0.86731 0.39727 0.76875 0.0
C226 C 0.84371 0.38073 0.78755 0.0
C227 C 0.83501 0.38705 0.83076 0.0
C228 C 0.88146 0.4196 0.79457 0.0
H229 H 0.84328 0.4146 0.88805 0.0
C230 C 0.87006 0.46154 0.95337 0.0
O231 O 0.86228 0.51833 0.88401 0.0
O232 O 0.83991 0.48026 0.85477 0.0
N233 N 0.91591 0.45891 0.80239 0.0
C234 C 0.93862 0.4774 0.78774 0.0
C235 C 0.94975 0.47426 0.74443 0.0
C236 C 0.93762 0.45203 0.71708 0.0
C237 C 0.91438 0.43317 0.73314 0.0
C238 C 0.90422 0.43734 0.77663 0.0
H239 H 0.94823 0.49439 0.80895 0.0
O240 O 0.88267 0.50415 0.79466 0.0
O241 O 0.88088 0.47202 0.83252 0.0
O242 O 0.91308 0.51722 0.88398 0.0
O243 O 0.92481 0.4885 0.88795 0.0
C244 C 0.90085 0.41044 0.7076 0.0
C245 C 0.87722 0.39262 0.72506 0.0
H246 H 0.83201 0.36326 0.76877 0.0
H247 H 0.8167 0.37453 0.84513 0.0
H248 H 0.9677 0.48888 0.73232 0.0
H249 H 0.9463 0.44968 0.68376 0.0
H250 H 0.90831 0.40656 0.67414 0.0
H251 H 0.86678 0.37543 0.70448 0.0
Mn252 Mn 0.386 0.87595 0.0457 0.0
Mn253 Mn 0.44852 0.9052 0.0456 0.0
C254 C 0.40774 0.88518 0.97089 0.0
C255 C 0.34777 0.83919 0.0437 0.0
C256 C 0.41961 0.93163 0.06277 0.0
O257 O 0.39396 0.87131 0.119 0.0
O258 O 0.43542 0.88972 0.11165 0.0
C259 C 0.454 0.86095 0.05473 0.0
N260 N 0.45873 0.88185 0.0294 0.0
C261 C 0.48275 0.8752 0.96685 0.0
C262 C 0.47825 0.85368 -0.00759 0.0
C263 C 0.46374 0.84649 0.03645 0.0
C264 C 0.47245 0.88879 0.98671 0.0
H265 H 0.44286 0.85536 0.08859 0.0
C266 C 0.41542 0.87783 0.13697 0.0
O267 O 0.34945 0.85991 0.05792 0.0
O268 O 0.36829 0.8396 0.03433 0.0
N269 N 0.46383 0.92094 0.98324 0.0
C270 C 0.46632 0.94212 0.96291 0.0
C271 C 0.48043 0.95192 0.91885 0.0
C272 C 0.49209 0.94004 0.89652 0.0
C273 C 0.48956 0.91846 0.9185 0.0
C274 C 0.47541 0.90967 0.96262 0.0
H275 H 0.45762 0.95149 0.98016 0.0
O276 O 0.38526 0.88101 0.97121 0.0
O277 O 0.41669 0.88357 0.01389 0.0
O278 O 0.39794 0.91291 0.05751 0.0
O279 O 0.43945 0.93052 0.06091 0.0
C280 C 0.50047 0.90532 0.89833 0.0
C281 C 0.49691 0.8836 0.92227 0.0
H282 H 0.48575 0.84248 0.97847 0.0
H283 H 0.46011 0.82985 0.0563 0.0
H284 H 0.48237 0.96862 0.9022 0.0
H285 H 0.50296 0.94767 0.86254 0.0
H286 H 0.51151 0.91165 0.86425 0.0
H287 H 0.50516 0.8735 0.90608 0.0
Mn288 Mn 0.53095 0.39173 0.20448 0.0
Mn289 Mn 0.56415 0.45429 0.20312 0.0
C290 C 0.54351 0.41313 0.12922 0.0
C291 C 0.52919 0.35337 0.20343 0.0
C292 C 0.50883 0.42537 0.2203 0.0
O293 O 0.5436 0.40006 0.27773 0.0
O294 O 0.56634 0.44154 0.2697 0.0
C295 C 0.61385 0.45987 0.21354 0.0
N296 N 0.59776 0.46447 0.18757 0.0
C297 C 0.62866 0.48836 0.12531 0.0
C298 C 0.6456 0.484 0.15152 0.0
C299 C 0.63813 0.46961 0.19573 0.0
C300 C 0.60467 0.47803 0.14469 0.0
H301 H 0.60818 0.44884 0.24755 0.0
C302 C 0.55831 0.42167 0.29542 0.0
O303 O 0.5103 0.35529 0.21748 0.0
O304 O 0.54941 0.37378 0.19372 0.0
N305 N 0.5639 0.4693 0.14024 0.0
C306 C 0.54527 0.4717 0.11934 0.0
C307 C 0.54976 0.48572 0.07509 0.0
C308 C 0.57339 0.49741 0.05319 0.0
C309 C 0.59235 0.49495 0.07574 0.0
C310 C 0.58683 0.48087 0.11999 0.0
H311 H 0.52714 0.46301 0.1363 0.0
O312 O 0.52513 0.39066 0.12993 0.0
O313 O 0.55406 0.4223 0.17214 0.0
O314 O 0.50596 0.4037 0.21584 0.0
O315 O 0.52972 0.44526 0.21779 0.0
C316 C 0.61652 0.50593 0.05609 0.0
C317 C 0.6346 0.50246 0.0806 0.0
H318 H 0.66436 0.49152 0.13796 0.0
H319 H 0.65107 0.46609 0.21607 0.0
H320 H 0.53505 0.4876 0.058 0.0
H321 H 0.57676 0.50825 0.01913 0.0
H322 H 0.62138 0.51697 0.02198 0.0
H323 H 0.65302 0.51075 0.0648 0.0
Mn324 Mn 0.1537 0.52591 0.37824 0.0
Mn325 Mn 0.12409 0.55881 0.37745 0.0
C326 C 0.14489 0.5386 0.30326 0.0
C327 C 0.19047 0.52458 0.37704 0.0
C328 C 0.09794 0.50341 0.3941 0.0
O329 O 0.15788 0.53834 0.45158 0.0
O330 O 0.13921 0.56115 0.44394 0.0
C331 C 0.16797 0.60876 0.38766 0.0
N332 N 0.14731 0.5925 0.36178 0.0
C333 C 0.15412 0.62323 0.2992 0.0
C334 C 0.1754 0.64033 0.32533 0.0
C335 C 0.18239 0.63304 0.36966 0.0
C336 C 0.14055 0.59926 0.31882 0.0
H337 H 0.17342 0.60322 0.42173 0.0
C338 C 0.15108 0.55308 0.46944 0.0
O339 O 0.16974 0.50548 0.39085 0.0
O340 O 0.19009 0.54473 0.36774 0.0
N341 N 0.10868 0.55835 0.31462 0.0
C342 C 0.08777 0.53955 0.29368 0.0
C343 C 0.0782 0.54383 0.24924 0.0
C344 C 0.09003 0.56744 0.22714 0.0
C345 C 0.11135 0.58657 0.2497 0.0
C346 C 0.11992 0.58126 0.2942 0.0
H347 H 0.07844 0.52143 0.31073 0.0
O348 O 0.1491 0.52031 0.30367 0.0
O349 O 0.14612 0.54898 0.34633 0.0
O350 O 0.11677 0.50066 0.38921 0.0
O351 O 0.09888 0.52429 0.39221 0.0
C352 C 0.12447 0.6107 0.22975 0.0
C353 C 0.14594 0.62896 0.25427 0.0
H354 H 0.18656 0.65908 0.31159 0.0
H355 H 0.19884 0.64611 0.38993 0.0
H356 H 0.0617 0.52899 0.23213 0.0
H357 H 0.08258 0.57064 0.19288 0.0
H358 H 0.11832 0.61537 0.19537 0.0
H359 H 0.15603 0.64735 0.23824 0.0
Mn360 Mn 0.63764 0.15213 0.53593 0.0
Mn361 Mn 0.57607 0.12945 0.5312 0.0
C362 C 0.6173 0.14316 0.45921 0.0
C363 C 0.67724 0.18718 0.53479 0.0
C364 C 0.59951 0.09842 0.55915 0.0
O365 O 0.62949 0.15906 0.60733 0.0
O366 O 0.58949 0.14784 0.59477 0.0
C367 C 0.57666 0.17704 0.52401 0.0
N368 N 0.56927 0.15403 0.50559 0.0
C369 C 0.54685 0.15962 0.43787 0.0
C370 C 0.55377 0.18318 0.45677 0.0
C371 C 0.56891 0.192 0.49981 0.0
C372 C 0.55526 0.14562 0.46344 0.0
H373 H 0.58856 0.18401 0.55663 0.0
C374 C 0.60918 0.15759 0.62149 0.0
O375 O 0.67381 0.16604 0.55105 0.0
O376 O 0.65774 0.18812 0.52228 0.0
N377 N 0.5605 0.1114 0.47085 0.0
C378 C 0.55649 0.08879 0.45594 0.0
C379 C 0.54224 0.07762 0.41262 0.0
C380 C 0.53193 0.08959 0.38552 0.0
C381 C 0.53606 0.11271 0.40186 0.0
C382 C 0.5504 0.12293 0.44533 0.0
H383 H 0.56405 0.0793 0.47695 0.0
O384 O 0.63896 0.14532 0.46219 0.0
O385 O 0.6086 0.14678 0.50059 0.0
O386 O 0.62211 0.1149 0.55152 0.0
O387 O 0.58158 0.10275 0.55602 0.0
C388 C 0.5266 0.12607 0.37662 0.0
C389 C 0.53222 0.14962 0.39427 0.0
H390 H 0.54782 0.19477 0.43819 0.0
H391 H 0.57462 0.2103 0.51423 0.0
H392 H 0.5391 0.05975 0.4003 0.0
H393 H 0.52094 0.0809 0.35214 0.0
H394 H 0.51522 0.11854 0.34324 0.0
H395 H 0.52528 0.15993 0.3739 0.0
Mn396 Mn 0.50079 0.63762 0.70256 0.0
Mn397 Mn 0.47018 0.57508 0.70163 0.0
C398 C 0.49028 0.61596 0.62746 0.0
C399 C 0.49967 0.67461 0.69856 0.0
C400 C 0.52514 0.60623 0.72193 0.0
O401 O 0.48705 0.62901 0.77494 0.0
O402 O 0.46645 0.58746 0.76756 0.0
C403 C 0.41939 0.56696 0.70915 0.0
N404 N 0.43644 0.56341 0.68427 0.0
C405 C 0.40679 0.53881 0.62052 0.0
C406 C 0.38889 0.54209 0.64561 0.0
C407 C 0.39524 0.5563 0.69003 0.0
C408 C 0.43058 0.54997 0.64125 0.0
H409 H 0.42418 0.57787 0.7433 0.0
C410 C 0.47301 0.60727 0.79271 0.0
O411 O 0.51915 0.6744 0.71517 0.0
O412 O 0.48063 0.65333 0.68833 0.0
N413 N 0.47195 0.56052 0.63922 0.0
C414 C 0.49147 0.55947 0.61912 0.0
C415 C 0.48822 0.54603 0.57443 0.0
C416 C 0.46489 0.53358 0.55122 0.0
C417 C 0.44499 0.53463 0.573 0.0
C418 C 0.44931 0.54822 0.61768 0.0
H419 H 0.5094 0.56883 0.63698 0.0
O420 O 0.50794 0.63878 0.62855 0.0
O421 O 0.47937 0.60662 0.66997 0.0
O422 O 0.52701 0.6275 0.71725 0.0
O423 O 0.50483 0.58577 0.71814 0.0
C424 C 0.42105 0.52279 0.55206 0.0
C425 C 0.40202 0.52504 0.57558 0.0
H426 H 0.37023 0.53388 0.63099 0.0
H427 H 0.38155 0.559 0.70951 0.0
H428 H 0.50366 0.54526 0.55792 0.0
H429 H 0.46249 0.52331 0.51666 0.0
H430 H 0.41708 0.51202 0.51772 0.0
H431 H 0.38377 0.51611 0.55876 0.0
H432 H 0.58783 0.18629 0.17017 0.0
H433 H 0.52202 0.11708 0.20386 0.0
H434 H 0.60691 0.18314 0.24853 0.0
H435 H 0.54169 0.11313 0.28098 0.0
H436 H 0.60221 0.10921 0.38331 0.0
H437 H 0.58345 0.11092 0.30269 0.0
H438 H 0.59292 0.18195 0.34472 0.0
H439 H 0.6107 0.17977 0.4255 0.0
C440 C 0.57761 0.17036 0.19444 0.0
C441 C 0.55378 0.15169 0.18136 0.0
C442 C 0.58844 0.16857 0.23893 0.0
C443 C 0.57564 0.14791 0.27037 0.0
C444 C 0.55175 0.12925 0.25724 0.0
C445 C 0.54058 0.13146 0.21346 0.0
C446 C 0.60022 0.12509 0.37487 0.0
C447 C 0.6072 0.14411 0.41027 0.0
C448 C 0.58958 0.12608 0.32917 0.0
C449 C 0.5869 0.14658 0.31797 0.0
C450 C 0.59494 0.16604 0.3527 0.0
C451 C 0.60494 0.16475 0.39869 0.0
H452 H 0.42016 0.521 0.3696 0.0
H453 H 0.41692 0.58736 0.34168 0.0
H454 H 0.44305 0.53917 0.44841 0.0
H455 H 0.43855 0.60493 0.42151 0.0
H456 H 0.44401 0.60277 0.60081 0.0
H457 H 0.42338 0.58452 0.52064 0.0
H458 H 0.48917 0.58566 0.46737 0.0
H459 H 0.51034 0.60519 0.54693 0.0
C460 C 0.42426 0.53936 0.38074 0.0
C461 C 0.4175 0.55318 0.3498 0.0
C462 C 0.43722 0.54966 0.42545 0.0
C463 C 0.44236 0.57329 0.44043 0.0
C464 C 0.43475 0.58668 0.41025 0.0
C465 C 0.42249 0.57672 0.36494 0.0
C466 C 0.45401 0.59916 0.57174 0.0
C467 C 0.47845 0.60481 0.57964 0.0
C468 C 0.4423 0.58883 0.52621 0.0
C469 C 0.45484 0.58382 0.48841 0.0
C470 C 0.47933 0.58954 0.4962 0.0
C471 C 0.49134 0.60059 0.54135 0.0
H472 H 0.91871 0.50357 0.71583 0.0
H473 H 0.84794 0.44149 0.75673 0.0
H474 H 0.91719 0.48333 0.63503 0.0
H475 H 0.84597 0.42171 0.67581 0.0
H476 H 0.91211 0.41663 0.53595 0.0
H477 H 0.91547 0.44007 0.61298 0.0
H478 H 0.84488 0.43374 0.58006 0.0
H479 H 0.84227 0.41162 0.50181 0.0
C480 C 0.90282 0.48575 0.70706 0.0
C481 C 0.8837 0.47364 0.74218 0.0
C482 C 0.90194 0.47424 0.66124 0.0
C483 C 0.88146 0.45108 0.64966 0.0
C484 C 0.86187 0.43962 0.68405 0.0
C485 C 0.86304 0.45081 0.73014 0.0
C486 C 0.89747 0.42042 0.54543 0.0
C487 C 0.87722 0.41299 0.51323 0.0
C488 C 0.89936 0.43372 0.58917 0.0
C489 C 0.88037 0.43849 0.60215 0.0
C490 C 0.8597 0.43021 0.57061 0.0
C491 C 0.85821 0.41765 0.52617 0.0
H492 H 0.43837 0.84184 0.68545 0.0
H493 H 0.50379 0.91218 0.71403 0.0
H494 H 0.42072 0.8449 0.76589 0.0
H495 H 0.48561 0.9158 0.7938 0.0
H496 H 0.42048 0.91707 0.89195 0.0
H497 H 0.4408 0.9158 0.8134 0.0
H498 H 0.43849 0.84902 0.86405 0.0
H499 H 0.41955 0.8511 0.94356 0.0
C500 C 0.44883 0.85798 0.7091 0.0
C501 C 0.47206 0.87705 0.69386 0.0
C502 C 0.43883 0.85968 0.75482 0.0
C503 C 0.4519 0.8806 0.78542 0.0
C504 C 0.47533 0.89956 0.77049 0.0
C505 C 0.48565 0.89752 0.72526 0.0
C506 C 0.42449 0.90227 0.88602 0.0
C507 C 0.41913 0.88449 0.92346 0.0
C508 C 0.43599 0.90152 0.84142 0.0
C509 C 0.44099 0.88228 0.83313 0.0
C510 C 0.43476 0.86401 0.86998 0.0
C511 C 0.42403 0.86521 0.91511 0.0
H512 H 0.58946 0.42497 0.10214 0.0
H513 H 0.52431 0.42535 0.04956 0.0
H514 H 0.61044 0.44353 0.02233 0.0
H515 H 0.54589 0.44534 0.97077 0.0
H516 H 0.61709 0.44322 0.84248 0.0
H517 H 0.59582 0.42511 0.92237 0.0
H518 H 0.59188 0.49088 0.9531 0.0
H519 H 0.61435 0.50954 0.87429 0.0
C520 C 0.57979 0.42924 0.07342 0.0
C521 C 0.5556 0.4243 0.0816 0.0
C522 C 0.5917 0.43974 0.02809 0.0
C523 C 0.57962 0.44572 0.9909 0.0
C524 C 0.55536 0.44067 -0.00099 0.0
C525 C 0.54313 0.42938 0.04378 0.0
C526 C 0.61174 0.45376 0.86665 0.0
C527 C 0.61674 0.47743 0.85254 0.0
C528 C 0.59971 0.4435 0.91203 0.0
C529 C 0.59231 0.45672 0.94329 0.0
C530 C 0.59753 0.48051 0.92936 0.0
C531 C 0.61026 0.49109 0.88462 0.0
H532 H 0.17896 0.58478 0.27715 0.0
H533 H 0.11383 0.51955 0.22313 0.0
H534 H 0.18154 0.60605 0.19768 0.0
H535 H 0.11561 0.54133 0.14466 0.0
H536 H 0.18977 0.61492 0.01944 0.0
H537 H 0.18694 0.59425 0.09992 0.0
H538 H 0.11447 0.58481 0.12489 0.0
H539 H 0.11781 0.6065 0.04522 0.0
C540 C 0.16515 0.57516 0.24817 0.0
C541 C 0.14593 0.55087 0.25586 0.0
C542 C 0.16665 0.58722 0.20302 0.0
C543 C 0.14874 0.57519 0.16551 0.0
C544 C 0.12961 0.55081 0.17315 0.0
C545 C 0.12856 0.53844 0.21774 0.0
C546 C 0.17335 0.60851 0.0425 0.0
C547 C 0.15375 0.61164 0.02643 0.0
C548 C 0.17178 0.59685 0.08826 0.0
C549 C 0.15046 0.588 0.11801 0.0
C550 C 0.13101 0.59152 0.10227 0.0
C551 C 0.13289 0.60382 0.05706 0.0
H552 H 0.56555 0.34151 0.2065 0.0
H553 H 0.48854 0.31132 0.16997 0.0
H554 H 0.56414 0.30444 0.17394 0.0
H555 H 0.48731 0.27485 0.13375 0.0
H556 H 0.48821 0.20306 0.10293 0.0
H557 H 0.48721 0.23823 0.14034 0.0
H558 H 0.56414 0.28545 0.10067 0.0
H559 H 0.56529 0.24987 0.06692 0.0
C560 C 0.54824 0.3268 0.19169 0.0
C561 C 0.52714 0.32927 0.19107 0.0
C562 C 0.54747 0.30561 0.17207 0.0
C563 C 0.52575 0.28657 0.14974 0.0
C564 C 0.50437 0.28879 0.15082 0.0
C565 C 0.50502 0.30976 0.1717 0.0
C566 C 0.50476 0.22108 0.10168 0.0
C567 C 0.52682 0.22373 0.08199 0.0
C568 C 0.50426 0.24136 0.12322 0.0
C569 C 0.52571 0.26494 0.12466 0.0
C570 C 0.5474 0.26762 0.10226 0.0
C571 C 0.54803 0.24726 0.08197 0.0
H572 H 0.32978 0.56411 0.23681 0.0
H573 H 0.30119 0.48695 0.27004 0.0
H574 H 0.29279 0.56176 0.27212 0.0
H575 H 0.26474 0.48474 0.30891 0.0
H576 H 0.19228 0.48447 0.34145 0.0
H577 H 0.2277 0.48415 0.30374 0.0
H578 H 0.27435 0.56071 0.34707 0.0
H579 H 0.23852 0.56123 0.38122 0.0
C580 C 0.31543 0.54656 0.25155 0.0
C581 C 0.31832 0.5257 0.25041 0.0
C582 C 0.29431 0.54525 0.27272 0.0
C583 C 0.27574 0.52319 0.29487 0.0
C584 C 0.27835 0.50205 0.2921 0.0
C585 C 0.29928 0.50326 0.26969 0.0
C586 C 0.21024 0.50107 0.34359 0.0
C587 C 0.21264 0.52288 0.36426 0.0
C588 C 0.23065 0.50095 0.32184 0.0
C589 C 0.25411 0.52255 0.32112 0.0
C590 C 0.2566 0.5439 0.34489 0.0
C591 C 0.2361 0.54416 0.36541 0.0
H592 H 0.69128 0.23563 0.54354 0.0
H593 H 0.71831 0.18706 0.49912 0.0
H594 H 0.72859 0.27092 0.51089 0.0
H595 H 0.75525 0.2222 0.46309 0.0
H596 H 0.8278 0.2956 0.4325 0.0
H597 H 0.79291 0.25909 0.47023 0.0
H598 H 0.74531 0.28877 0.43445 0.0
H599 H 0.78043 0.32563 0.39995 0.0
C600 C 0.70543 0.23259 0.52715 0.0
C601 C 0.70195 0.20864 0.52408 0.0
C602 C 0.72671 0.25279 0.5075 0.0
C603 C 0.74485 0.24955 0.4827 0.0
C604 C 0.74187 0.22562 0.48187 0.0
C605 C 0.72071 0.20541 0.50271 0.0
C606 C 0.80974 0.29404 0.43212 0.0
C607 C 0.80684 0.31349 0.4134 0.0
C608 C 0.78968 0.2731 0.45388 0.0
C609 C 0.76616 0.27099 0.4567 0.0
C610 C 0.76317 0.28994 0.435 0.0
C611 C 0.78327 0.311 0.41434 0.0
H612 H 0.4588 0.78449 0.62269 0.0
H613 H 0.53416 0.81822 0.56993 0.0
H614 H 0.46124 0.74959 0.65451 0.0
H615 H 0.53635 0.78219 0.6004 0.0
H616 H 0.53759 0.72314 0.70615 0.0
H617 H 0.53743 0.76022 0.6759 0.0
H618 H 0.46186 0.71456 0.62649 0.0
H619 H 0.46174 0.67823 0.65815 0.0
C620 C 0.47586 0.7843 0.61703 0.0
C621 C 0.49624 0.80418 0.59327 0.0
C622 C 0.47723 0.76408 0.63526 0.0
C623 C 0.49893 0.76279 0.62985 0.0
C624 C 0.51939 0.7826 0.60571 0.0
C625 C 0.51806 0.80312 0.58766 0.0
C626 C 0.52086 0.72119 0.68958 0.0
C627 C 0.4996 0.69771 0.68518 0.0
C628 C 0.52086 0.74239 0.6716 0.0
C629 C 0.4996 0.74053 0.64875 0.0
C630 C 0.47844 0.71697 0.6447 0.0
C631 C 0.47839 0.69599 0.66287 0.0
H632 H 0.73301 0.54368 0.76748 0.0
H633 H 0.70256 0.46613 0.73529 0.0
H634 H 0.76962 0.54522 0.80443 0.0
H635 H 0.73948 0.46777 0.76899 0.0
H636 H 0.79262 0.4667 0.87755 0.0
H637 H 0.75741 0.46898 0.84547 0.0
H638 H 0.80637 0.54416 0.79658 0.0
H639 H 0.84147 0.54212 0.83202 0.0
C640 C 0.7345 0.52714 0.76698 0.0
C641 C 0.71491 0.50476 0.74864 0.0
C642 C 0.75549 0.52797 0.7883 0.0
C643 C 0.75748 0.50648 0.79104 0.0
C644 C 0.7384 0.48453 0.76961 0.0
C645 C 0.7173 0.48362 0.7494 0.0
C646 C 0.79574 0.48391 0.86106 0.0
C647 C 0.81973 0.50424 0.85747 0.0
C648 C 0.77558 0.48513 0.84173 0.0
C649 C 0.7789 0.50652 0.81677 0.0
C650 C 0.8029 0.52736 0.81549 0.0
C651 C 0.82308 0.52627 0.836 0.0
H652 H 0.19853 0.72606 0.94323 0.0
H653 H 0.24857 0.70038 0.90192 0.0
H654 H 0.23286 0.7633 0.98034 0.0
H655 H 0.28307 0.73799 0.93567 0.0
H656 H 0.33685 0.7913 0.04582 0.0
H657 H 0.30046 0.75539 0.01196 0.0
H658 H 0.26919 0.80135 0.97357 0.0
H659 H 0.30519 0.83699 0.0107 0.0
C660 C 0.21703 0.72879 0.94065 0.0
C661 C 0.22089 0.71033 0.91975 0.0
C662 C 0.23678 0.75014 0.96209 0.0
C663 C 0.26091 0.75364 0.96235 0.0
C664 C 0.26478 0.73574 0.93824 0.0
C665 C 0.24503 0.71427 0.91796 0.0
C666 C 0.32194 0.79359 0.0311 0.0
C667 C 0.32386 0.81694 0.03108 0.0
C668 C 0.30116 0.77304 0.01078 0.0
C669 C 0.28192 0.77534 0.98844 0.0
C670 C 0.28343 0.79862 0.99043 0.0
C671 C 0.30408 0.81913 0.01187 0.0
H672 H 0.6324 0.1587 0.71056 0.0
H673 H 0.58094 0.17782 0.64493 0.0
H674 H 0.62255 0.16769 0.7946 0.0
H675 H 0.57195 0.18781 0.72782 0.0
H676 H 0.53372 0.16153 0.88439 0.0
H677 H 0.5488 0.16432 0.79814 0.0
H678 H 0.62359 0.19662 0.8544 0.0
H679 H 0.60826 0.1929 0.94028 0.0
C680 C 0.61958 0.16551 0.71396 0.0
C681 C 0.60727 0.16727 0.67126 0.0
C682 C 0.61392 0.17074 0.76205 0.0
C683 C 0.59612 0.17817 0.76812 0.0
C684 C 0.58522 0.18155 0.72483 0.0
C685 C 0.59057 0.176 0.67715 0.0
C686 C 0.55342 0.16998 0.87798 0.0
C687 C 0.56979 0.1769 0.91885 0.0
C688 C 0.56215 0.17153 0.82859 0.0
C689 C 0.58745 0.18031 0.81931 0.0
C690 C 0.60397 0.18917 0.86017 0.0
C691 C 0.59521 0.18733 0.90936 0.0
H692 H 0.45518 0.56597 0.84995 0.0
H693 H 0.46577 0.63985 0.85118 0.0
H694 H 0.43341 0.55707 0.92936 0.0
H695 H 0.44348 0.6307 0.93203 0.0
H696 H 0.43681 0.60958 0.10628 0.0
H697 H 0.44961 0.62253 0.01979 0.0
H698 H 0.39494 0.54994 0.96719 0.0
H699 H 0.38251 0.53673 0.05464 0.0
C700 C 0.45279 0.58039 0.86715 0.0
C701 C 0.46222 0.60367 0.84402 0.0
C702 C 0.43994 0.5751 0.91254 0.0
C703 C 0.43609 0.59291 0.93648 0.0
C704 C 0.44599 0.6165 0.91422 0.0
C705 C 0.45894 0.62184 0.86827 0.0
C706 C 0.42697 0.59657 0.07616 0.0
C707 C 0.40899 0.57197 0.08722 0.0
C708 C 0.43427 0.60408 0.02645 0.0
C709 C 0.42375 0.58711 0.9867 0.0
C710 C 0.40379 0.56328 -0.00272 0.0
C711 C 0.39643 0.55576 0.04724 0.0
H712 H 0.84987 0.41303 0.97685 0.0
H713 H 0.86913 0.48372 0.04246 0.0
H714 H 0.84022 0.39413 0.05987 0.0
H715 H 0.8604 0.46496 0.12655 0.0
H716 H 0.83565 0.4256 0.27234 0.0
H717 H 0.83151 0.43692 0.18649 0.0
H718 H 0.86422 0.39487 0.12994 0.0
H719 H 0.86747 0.38287 0.21621 0.0
C720 C 0.85179 0.42452 0.0091 0.0
C721 C 0.86048 0.44996 0.00318 0.0
C722 C 0.84642 0.41367 0.05682 0.0
C723 C 0.84992 0.42802 0.10009 0.0
C724 C 0.85727 0.45324 0.09401 0.0
C725 C 0.86235 0.46408 0.04588 0.0
C726 C 0.84123 0.41815 0.24139 0.0
C727 C 0.85193 0.40339 0.2508 0.0
C728 C 0.83914 0.4249 0.1922 0.0
C729 C 0.848 0.41729 0.15128 0.0
C730 C 0.85703 0.40097 0.16048 0.0
C731 C 0.85884 0.39396 0.20987 0.0
H732 H 0.48453 0.8567 0.39864 0.0
H733 H 0.41254 0.84005 0.452 0.0
H734 H 0.47104 0.85614 0.31156 0.0
H735 H 0.39932 0.84008 0.36568 0.0
H736 H 0.38209 0.83854 0.19569 0.0
H737 H 0.39071 0.82538 0.27719 0.0
H738 H 0.46462 0.88849 0.27516 0.0
H739 H 0.4562 0.90141 0.19526 0.0
C740 C 0.4656 0.85205 0.39171 0.0
C741 C 0.44977 0.8489 0.43206 0.0
C742 C 0.45793 0.85199 0.34195 0.0
C743 C 0.43431 0.84874 0.33192 0.0
C744 C 0.41761 0.84273 0.37201 0.0
C745 C 0.42528 0.84284 0.42157 0.0
C746 C 0.40002 0.84965 0.21315 0.0
C747 C 0.41846 0.87094 0.18891 0.0
C748 C 0.40506 0.84201 0.25943 0.0
C749 C 0.42861 0.85551 0.28189 0.0
C750 C 0.44662 0.87713 0.25813 0.0
C751 C 0.44162 0.88472 0.21248 0.0
H752 H 0.64809 0.49452 0.55553 0.0
H753 H 0.5964 0.42128 0.60965 0.0
H754 H 0.63464 0.48065 0.46874 0.0
H755 H 0.58267 0.40762 0.52377 0.0
H756 H 0.56671 0.38986 0.35374 0.0
H757 H 0.58893 0.39972 0.43489 0.0
H758 H 0.5946 0.47153 0.4339 0.0
H759 H 0.5728 0.46186 0.35424 0.0
C760 C 0.63457 0.47529 0.54875 0.0
C761 C 0.62303 0.45911 0.58929 0.0
C762 C 0.62662 0.46738 0.49921 0.0
C763 C 0.60711 0.44318 0.4896 0.0
C764 C 0.59764 0.42634 0.52976 0.0
C765 C 0.60549 0.43425 0.57908 0.0
C766 C 0.57244 0.40756 0.37143 0.0
C767 C 0.56808 0.42509 0.34753 0.0
C768 C 0.58539 0.41333 0.41747 0.0
C769 C 0.59419 0.43672 0.44003 0.0
C770 C 0.58896 0.45374 0.41674 0.0
C771 C 0.5761 0.44801 0.3713 0.0
H772 H 0.12556 0.56736 0.52927 0.0
H773 H 0.19165 0.56171 0.52649 0.0
H774 H 0.13809 0.58916 0.60893 0.0
H775 H 0.20449 0.58402 0.60748 0.0
H776 H 0.19221 0.59198 0.7827 0.0
H777 H 0.19152 0.57817 0.69658 0.0
H778 H 0.16878 0.62911 0.64338 0.0
H779 H 0.1688 0.64249 0.73031 0.0
C780 C 0.14284 0.57076 0.54585 0.0
C781 C 0.15767 0.56286 0.52148 0.0
C782 C 0.15021 0.58362 0.59127 0.0
C783 C 0.17265 0.58901 0.61387 0.0
C784 C 0.18718 0.58034 0.59066 0.0
C785 C 0.17975 0.56735 0.5447 0.0
C786 C 0.18778 0.6008 0.75244 0.0
C787 C 0.18003 0.61795 0.76327 0.0
C788 C 0.18749 0.59292 0.70299 0.0
C789 C 0.17945 0.60203 0.66335 0.0
C790 C 0.17448 0.6213 0.67347 0.0
C791 C 0.17478 0.62922 0.72312 0.0
H792 H 0.46957 0.08951 0.09499 0.0
H793 H 0.50398 0.0751 0.96822 0.0
H794 H 0.44056 0.04502 0.10359 0.0
H795 H 0.47435 0.03078 0.97567 0.0
H796 H 0.40537 0.95284 -0.00887 0.0
H797 H 0.42162 0.99739 0.9798 0.0
H798 H 0.45884 0.01154 0.12355 0.0
H799 H 0.4435 0.96718 0.13379 0.0
C800 C 0.47021 0.07695 0.0676 0.0
C801 C 0.4889 0.08573 0.03068 0.0
C802 C 0.45374 0.05154 0.07279 0.0
C803 C 0.45523 0.03461 0.04017 0.0
C804 C 0.47268 0.04353 0.00089 0.0
C805 C 0.48959 0.06884 -0.00339 0.0
C806 C 0.4162 0.96543 0.02116 0.0
C807 C 0.4229 0.95667 0.06374 0.0
C808 C 0.42563 0.99085 0.01446 0.0
C809 C 0.44132 1.00775 0.05095 0.0
C810 C 0.4465 0.9988 0.09525 0.0
C811 C 0.43768 0.97349 0.10122 0.0
H812 H 0.47334 0.41144 0.14879 0.0
H813 H 0.49689 0.44839 0.29272 0.0
H814 H 0.44425 0.42684 0.13956 0.0
H815 H 0.46712 0.46287 0.28455 0.0
H816 H 0.39851 0.47165 0.25992 0.0
H817 H 0.41519 0.44356 0.26618 0.0
H818 H 0.46203 0.47915 0.13751 0.0
H819 H 0.44613 0.50784 0.13244 0.0
C820 C 0.47141 0.42186 0.17946 0.0
C821 C 0.48698 0.42845 0.22185 0.0
C822 C 0.45496 0.43079 0.17399 0.0
C823 C 0.45341 0.44586 0.2115 0.0
C824 C 0.46776 0.45098 0.25548 0.0
C825 C 0.4847 0.44267 0.26024 0.0
C826 C 0.4117 0.47286 0.23187 0.0
C827 C 0.42091 0.49176 0.1954 0.0
C828 C 0.42134 0.45693 0.23573 0.0
C829 C 0.43977 0.4592 0.20221 0.0
C830 C 0.44761 0.47688 0.1634 0.0
C831 C 0.43852 0.49324 0.16046 0.0
H832 H 0.0772 0.46758 0.32293 0.0
H833 H 0.06217 0.49166 0.46453 0.0
H834 H 0.0328 0.43857 0.31168 0.0
H835 H 0.01799 0.46195 0.45439 0.0
H836 H 0.95401 0.44152 0.29987 0.0
H837 H 0.9985 0.45724 0.30717 0.0
H838 H 0.98549 0.40944 0.435 0.0
H839 H 0.94085 0.39295 0.42654 0.0
C840 C 0.06451 0.46577 0.35274 0.0
C841 C 0.07302 0.48149 0.395 0.0
C842 C 0.03918 0.44936 0.3461 0.0
C843 C 0.02213 0.448 0.38234 0.0
C844 C 0.03086 0.46246 0.42631 0.0
C845 C 0.05606 0.47935 0.4322 0.0
C846 C 0.9606 0.43367 0.32819 0.0
C847 C 0.944 0.41586 0.36229 0.0
C848 C 0.986 0.44265 0.33239 0.0
C849 C 0.99529 0.43447 0.3716 0.0
C850 C 0.97868 0.41584 0.40424 0.0
C851 C 0.95319 0.40632 0.39914 0.0
H852 H 0.55699 0.94013 0.58267 0.0
H853 H 0.50796 0.95131 0.48541 0.0
H854 H 0.58396 0.98523 0.58985 0.0
H855 H 0.53458 0.99589 0.49309 0.0
H856 H 0.62563 0.07539 0.53105 0.0
H857 H 0.60893 0.03052 0.52299 0.0
H858 H 0.54064 0.0172 0.59074 0.0
H859 H 0.55706 0.06145 0.59954 0.0
C860 C 0.5525 0.95212 0.56123 0.0
C861 C 0.53024 0.94215 0.53373 0.0
C862 C 0.56784 0.97789 0.56565 0.0
C863 C 0.56106 0.9939 0.54262 0.0
C864 C 0.54005 0.98389 0.51159 0.0
C865 C 0.52488 0.95836 0.50706 0.0
C866 C 0.60737 0.06286 0.54576 0.0
C867 C 0.59259 0.07206 0.56547 0.0
C868 C 0.59782 0.03723 0.54088 0.0
C869 C 0.5734 0.02056 0.55551 0.0
C870 C 0.55942 0.02973 0.57861 0.0
C871 C 0.5689 0.0551 0.58373 0.0
H872 H 0.63521 0.55987 0.76385 0.0
H873 H 0.58718 0.52381 0.6368 0.0
H874 H 0.61913 0.58848 0.76988 0.0
H875 H 0.57188 0.55298 0.64161 0.0
H876 H 0.53869 0.58581 0.79697 0.0
H877 H 0.5685 0.57135 0.78958 0.0
H878 H 0.58932 0.60429 0.6415 0.0
H879 H 0.56019 0.61964 0.64987 0.0
C880 C 0.62203 0.55876 0.73589 0.0
C881 C 0.61256 0.53978 0.69956 0.0
C882 C 0.61274 0.57499 0.7396 0.0
C883 C 0.59438 0.57294 0.70608 0.0
C884 C 0.58625 0.55511 0.66751 0.0
C885 C 0.59499 0.53846 0.66472 0.0
C886 C 0.55055 0.59099 0.76402 0.0
C887 C 0.54761 0.60426 0.72447 0.0
C888 C 0.56749 0.58265 0.75966 0.0
C889 C 0.58118 0.58677 0.71499 0.0
C890 C 0.57912 0.6011 0.67645 0.0
C891 C 0.56267 0.61004 0.68144 0.0
H892 H 0.08679 0.62906 0.91307 0.0
H893 H 0.07799 0.56706 0.82447 0.0
H894 H 0.04156 0.60949 0.91984 0.0
H895 H 0.03334 0.54772 0.83181 0.0
H896 H 0.96611 0.5046 0.93041 0.0
H897 H 1.01035 0.53237 0.92262 0.0
H898 H 0.99761 0.58849 0.8587 0.0
H899 H 0.95272 0.56036 0.86579 0.0
C900 C 0.07528 0.61175 0.89362 0.0
C901 C 0.08601 0.5995 0.86864 0.0
C902 C 0.04944 0.60052 0.89779 0.0
C903 C 0.03409 0.57691 0.87719 0.0
C904 C 0.0448 0.56576 0.84873 0.0
C905 C 0.07039 0.57692 0.84437 0.0
C906 C 0.97257 0.523 0.91556 0.0
C907 C 0.95576 0.53008 0.89813 0.0
C908 C 0.99796 0.53886 0.91095 0.0
C909 C 1.00732 0.56235 0.88916 0.0
C910 C 0.99078 0.5704 0.87545 0.0
C911 C 0.96513 0.55434 0.87979 0.0
loop_
_geom_bond_atom_site_label_1
_geom_bond_atom_site_label_2
_geom_bond_distance
_geom_bond_site_symmetry_2
_ccdc_geom_bond_type
Mn0 O5 2.095 1_554 S
Mn0 O15 2.162 . S
Mn0 O16 2.297 . S
Mn0 O24 2.385 . S
Mn0 O25 2.209 . S
Mn0 O26 2.094 . S
Mn1 O6 2.121 1_554 S
Mn1 N8 2.257 . S
Mn1 N17 2.282 . S
Mn1 O25 2.215 . S
Mn1 O27 2.117 . S
C2 O24 1.234 . S
C2 O25 1.283 . S
C3 O15 1.281 . S
C3 O16 1.236 . S
C4 O26 1.240 . S
C4 O27 1.264 . S
O5 Mn0 2.095 1_556 S
O5 C14 1.250 . S
O6 Mn1 2.121 1_556 S
O6 C14 1.258 . S
C7 N8 1.326 . S
C7 C11 1.460 . S
C7 H13 0.929 . S
N8 Mn1 2.257 . S
N8 C7 1.326 . S
N8 C12 1.362 . S
C9 C10 1.258 . S
C9 C12 1.431 . S
C9 C29 1.449 . S
C10 C9 1.258 . S
C10 C11 1.477 . S
C10 H30 0.931 . S
C11 C7 1.460 . S
C11 C10 1.477 . S
C11 H31 0.930 . S
C12 N8 1.362 . S
C12 C9 1.431 . S
C12 C22 1.476 . S
H13 C7 0.929 . S
C14 O5 1.250 . S
C14 O6 1.258 . S
O15 Mn0 2.162 . S
O15 C3 1.281 . S
O16 Mn0 2.297 . S
O16 C3 1.236 . S
N17 Mn1 2.282 . S
N17 C18 1.328 . S
N17 C22 1.318 . S
C18 N17 1.328 . S
C18 C19 1.457 . S
C18 H23 0.929 . S
C19 C18 1.457 . S
C19 C20 1.291 . S
C19 H32 0.931 . S
C20 C19 1.291 . S
C20 C21 1.373 . S
C20 H33 0.929 . S
C21 C20 1.373 . S
C21 C22 1.396 . S
C21 C28 1.403 . S
C22 C12 1.476 . S
C22 N17 1.318 . S
C22 C21 1.396 . S
H23 C18 0.929 . S
O24 Mn0 2.385 . S
O24 C2 1.234 . S
O25 Mn0 2.209 . S
O25 Mn1 2.215 . S
O25 C2 1.283 . S
O26 Mn0 2.094 . S
O26 C4 1.240 . S
O27 Mn1 2.117 . S
O27 C4 1.264 . S
C28 C21 1.403 . S
C28 C29 1.399 . S
C28 H34 0.929 . S
C29 C9 1.449 . S
C29 C28 1.399 . S
C29 H35 0.930 . S
H30 C10 0.931 . S
H31 C11 0.930 . S
H32 C19 0.931 . S
H33 C20 0.929 . S
H34 C28 0.929 . S
H35 C29 0.930 . S
Mn36 O41 2.095 . S
Mn36 O51 2.162 . S
Mn36 O52 2.297 . S
Mn36 O60 2.385 . S
Mn36 O61 2.209 . S
Mn36 O62 2.094 . S
Mn37 O42 2.121 . S
Mn37 N44 2.257 . S
Mn37 N53 2.282 . S
Mn37 O61 2.215 . S
Mn37 O63 2.117 . S
C38 O60 1.234 . S
C38 O61 1.283 . S
C39 O51 1.281 . S
C39 O52 1.236 . S
C40 O62 1.240 . S
C40 O63 1.264 . S
O41 Mn36 2.095 . S
O41 C50 1.250 . S
O42 Mn37 2.121 . S
O42 C50 1.258 . S
C43 N44 1.326 . S
C43 C47 1.460 . S
C43 H49 0.929 . S
N44 Mn37 2.257 . S
N44 C43 1.326 . S
N44 C48 1.362 . S
C45 C46 1.258 . S
C45 C48 1.431 . S
C45 C65 1.449 . S
C46 C45 1.258 . S
C46 C47 1.477 . S
C46 H66 0.931 . S
C47 C43 1.460 . S
C47 C46 1.477 . S
C47 H67 0.930 . S
C48 N44 1.362 . S
C48 C45 1.431 . S
C48 C58 1.476 . S
H49 C43 0.929 . S
C50 O41 1.250 . S
C50 O42 1.258 . S
O51 Mn36 2.162 . S
O51 C39 1.281 . S
O52 Mn36 2.297 . S
O52 C39 1.236 . S
N53 Mn37 2.282 . S
N53 C54 1.328 . S
N53 C58 1.318 . S
C54 N53 1.328 . S
C54 C55 1.457 . S
C54 H59 0.929 . S
C55 C54 1.457 . S
C55 C56 1.291 . S
C55 H68 0.931 . S
C56 C55 1.291 . S
C56 C57 1.373 . S
C56 H69 0.929 . S
C57 C56 1.373 . S
C57 C58 1.396 . S
C57 C64 1.403 . S
C58 C48 1.476 . S
C58 N53 1.318 . S
C58 C57 1.396 . S
H59 C54 0.929 . S
O60 Mn36 2.385 . S
O60 C38 1.234 . S
O61 Mn36 2.209 . S
O61 Mn37 2.215 . S
O61 C38 1.283 . S
O62 Mn36 2.094 . S
O62 C40 1.240 . S
O63 Mn37 2.117 . S
O63 C40 1.264 . S
C64 C57 1.403 . S
C64 C65 1.399 . S
C64 H70 0.929 . S
C65 C45 1.449 . S
C65 C64 1.399 . S
C65 H71 0.930 . S
H66 C46 0.931 . S
H67 C47 0.930 . S
H68 C55 0.931 . S
H69 C56 0.929 . S
H70 C64 0.929 . S
H71 C65 0.930 . S
Mn72 O77 2.095 . S
Mn72 O87 2.162 . S
Mn72 O88 2.297 . S
Mn72 O96 2.385 . S
Mn72 O97 2.209 . S
Mn72 O98 2.094 . S
Mn73 O78 2.121 . S
Mn73 N80 2.257 . S
Mn73 N89 2.282 . S
Mn73 O97 2.215 . S
Mn73 O99 2.117 . S
C74 O96 1.234 . S
C74 O97 1.283 . S
C75 O87 1.281 . S
C75 O88 1.236 . S
C76 O98 1.240 . S
C76 O99 1.264 . S
O77 Mn72 2.095 . S
O77 C86 1.250 . S
O78 Mn73 2.121 . S
O78 C86 1.258 . S
C79 N80 1.326 . S
C79 C83 1.460 . S
C79 H85 0.929 . S
N80 Mn73 2.257 . S
N80 C79 1.326 . S
N80 C84 1.362 . S
C81 C82 1.258 . S
C81 C84 1.431 . S
C81 C101 1.449 . S
C82 C81 1.258 . S
C82 C83 1.477 . S
C82 H102 0.931 . S
C83 C79 1.460 . S
C83 C82 1.477 . S
C83 H103 0.930 . S
C84 N80 1.362 . S
C84 C81 1.431 . S
C84 C94 1.476 . S
H85 C79 0.929 . S
C86 O77 1.250 . S
C86 O78 1.258 . S
O87 Mn72 2.162 . S
O87 C75 1.281 . S
O88 Mn72 2.297 . S
O88 C75 1.236 . S
N89 Mn73 2.282 . S
N89 C90 1.328 . S
N89 C94 1.318 . S
C90 N89 1.328 . S
C90 C91 1.457 . S
C90 H95 0.929 . S
C91 C90 1.457 . S
C91 C92 1.291 . S
C91 H104 0.931 . S
C92 C91 1.291 . S
C92 C93 1.373 . S
C92 H105 0.929 . S
C93 C92 1.373 . S
C93 C94 1.396 . S
C93 C100 1.403 . S
C94 C84 1.476 . S
C94 N89 1.318 . S
C94 C93 1.396 . S
H95 C90 0.929 . S
O96 Mn72 2.385 . S
O96 C74 1.234 . S
O97 Mn72 2.209 . S
O97 Mn73 2.215 . S
O97 C74 1.283 . S
O98 Mn72 2.094 . S
O98 C76 1.240 . S
O99 Mn73 2.117 . S
O99 C76 1.264 . S
C100 C93 1.403 . S
C100 C101 1.399 . S
C100 H106 0.929 . S
C101 C81 1.449 . S
C101 C100 1.399 . S
C101 H107 0.930 . S
H102 C82 0.931 . S
H103 C83 0.930 . S
H104 C91 0.931 . S
H105 C92 0.929 . S
H106 C100 0.929 . S
H107 C101 0.930 . S
Mn108 O113 2.095 . S
Mn108 O123 2.162 . S
Mn108 O124 2.297 . S
Mn108 O132 2.385 . S
Mn108 O133 2.209 . S
Mn108 O134 2.094 . S
Mn109 O114 2.121 . S
Mn109 N116 2.257 . S
Mn109 N125 2.282 . S
Mn109 O133 2.215 . S
Mn109 O135 2.117 . S
C110 O132 1.234 . S
C110 O133 1.283 . S
C111 O123 1.281 . S
C111 O124 1.236 . S
C112 O134 1.240 . S
C112 O135 1.264 . S
O113 Mn108 2.095 . S
O113 C122 1.250 . S
O114 Mn109 2.121 . S
O114 C122 1.258 . S
C115 N116 1.326 . S
C115 C119 1.460 . S
C115 H121 0.929 . S
N116 Mn109 2.257 . S
N116 C115 1.326 . S
N116 C120 1.362 . S
C117 C118 1.258 . S
C117 C120 1.431 . S
C117 C137 1.449 . S
C118 C117 1.258 . S
C118 C119 1.477 . S
C118 H138 0.931 . S
C119 C115 1.460 . S
C119 C118 1.477 . S
C119 H139 0.930 . S
C120 N116 1.362 . S
C120 C117 1.431 . S
C120 C130 1.476 . S
H121 C115 0.929 . S
C122 O113 1.250 . S
C122 O114 1.258 . S
O123 Mn108 2.162 . S
O123 C111 1.281 . S
O124 Mn108 2.297 . S
O124 C111 1.236 . S
N125 Mn109 2.282 . S
N125 C126 1.328 . S
N125 C130 1.318 . S
C126 N125 1.328 . S
C126 C127 1.457 . S
C126 H131 0.929 . S
C127 C126 1.457 . S
C127 C128 1.291 . S
C127 H140 0.931 . S
C128 C127 1.291 . S
C128 C129 1.373 . S
C128 H141 0.929 . S
C129 C128 1.373 . S
C129 C130 1.396 . S
C129 C136 1.403 . S
C130 C120 1.476 . S
C130 N125 1.318 . S
C130 C129 1.396 . S
H131 C126 0.929 . S
O132 Mn108 2.385 . S
O132 C110 1.234 . S
O133 Mn108 2.209 . S
O133 Mn109 2.215 . S
O133 C110 1.283 . S
O134 Mn108 2.094 . S
O134 C112 1.240 . S
O135 Mn109 2.117 . S
O135 C112 1.264 . S
C136 C129 1.403 . S
C136 C137 1.399 . S
C136 H142 0.929 . S
C137 C117 1.449 . S
C137 C136 1.399 . S
C137 H143 0.930 . S
H138 C118 0.931 . S
H139 C119 0.930 . S
H140 C127 0.931 . S
H141 C128 0.929 . S
H142 C136 0.929 . S
H143 C137 0.930 . S
Mn144 O149 2.095 . S
Mn144 O159 2.162 . S
Mn144 O160 2.297 . S
Mn144 O168 2.385 . S
Mn144 O169 2.209 . S
Mn144 O170 2.094 . S
Mn145 O150 2.121 . S
Mn145 N152 2.257 . S
Mn145 N161 2.282 . S
Mn145 O169 2.215 . S
Mn145 O171 2.117 . S
C146 O168 1.234 . S
C146 O169 1.283 . S
C147 O159 1.281 . S
C147 O160 1.236 . S
C148 O170 1.240 . S
C148 O171 1.264 . S
O149 Mn144 2.095 . S
O149 C158 1.250 . S
O150 Mn145 2.121 . S
O150 C158 1.258 . S
C151 N152 1.326 . S
C151 C155 1.460 . S
C151 H157 0.929 . S
N152 Mn145 2.257 . S
N152 C151 1.326 . S
N152 C156 1.362 . S
C153 C154 1.258 . S
C153 C156 1.431 . S
C153 C173 1.449 . S
C154 C153 1.258 . S
C154 C155 1.477 . S
C154 H174 0.931 . S
C155 C151 1.460 . S
C155 C154 1.477 . S
C155 H175 0.930 . S
C156 N152 1.362 . S
C156 C153 1.431 . S
C156 C166 1.476 . S
H157 C151 0.929 . S
C158 O149 1.250 . S
C158 O150 1.258 . S
O159 Mn144 2.162 . S
O159 C147 1.281 . S
O160 Mn144 2.297 . S
O160 C147 1.236 . S
N161 Mn145 2.282 . S
N161 C162 1.328 . S
N161 C166 1.318 . S
C162 N161 1.328 . S
C162 C163 1.457 . S
C162 H167 0.929 . S
C163 C162 1.457 . S
C163 C164 1.291 . S
C163 H176 0.931 . S
C164 C163 1.291 . S
C164 C165 1.373 . S
C164 H177 0.929 . S
C165 C164 1.373 . S
C165 C166 1.396 . S
C165 C172 1.403 . S
C166 C156 1.476 . S
C166 N161 1.318 . S
C166 C165 1.396 . S
H167 C162 0.929 . S
O168 Mn144 2.385 . S
O168 C146 1.234 . S
O169 Mn144 2.209 . S
O169 Mn145 2.215 . S
O169 C146 1.283 . S
O170 Mn144 2.094 . S
O170 C148 1.240 . S
O171 Mn145 2.117 . S
O171 C148 1.264 . S
C172 C165 1.403 . S
C172 C173 1.399 . S
C172 H178 0.929 . S
C173 C153 1.449 . S
C173 C172 1.399 . S
C173 H179 0.930 . S
H174 C154 0.931 . S
H175 C155 0.930 . S
H176 C163 0.931 . S
H177 C164 0.929 . S
H178 C172 0.929 . S
H179 C173 0.930 . S
Mn180 O185 2.095 . S
Mn180 O195 2.162 . S
Mn180 O196 2.297 . S
Mn180 O204 2.385 . S
Mn180 O205 2.209 . S
Mn180 O206 2.094 . S
Mn181 O186 2.121 . S
Mn181 N188 2.257 . S
Mn181 N197 2.282 . S
Mn181 O205 2.215 . S
Mn181 O207 2.117 . S
C182 O204 1.234 . S
C182 O205 1.283 . S
C183 O195 1.281 . S
C183 O196 1.236 . S
C184 O206 1.240 . S
C184 O207 1.264 . S
O185 Mn180 2.095 . S
O185 C194 1.250 . S
O186 Mn181 2.121 . S
O186 C194 1.258 . S
C187 N188 1.326 . S
C187 C191 1.460 . S
C187 H193 0.929 . S
N188 Mn181 2.257 . S
N188 C187 1.326 . S
N188 C192 1.362 . S
C189 C190 1.258 . S
C189 C192 1.431 . S
C189 C209 1.449 1_556 S
C190 C189 1.258 . S
C190 C191 1.477 . S
C190 H210 0.931 . S
C191 C187 1.460 . S
C191 C190 1.477 . S
C191 H211 0.930 . S
C192 N188 1.362 . S
C192 C189 1.431 . S
C192 C202 1.476 . S
H193 C187 0.929 . S
C194 O185 1.250 . S
C194 O186 1.258 . S
O195 Mn180 2.162 . S
O195 C183 1.281 . S
O196 Mn180 2.297 . S
O196 C183 1.236 . S
N197 Mn181 2.282 . S
N197 C198 1.328 1_556 S
N197 C202 1.318 . S
C198 N197 1.328 1_554 S
C198 C199 1.457 . S
C198 H203 0.929 1_554 S
C199 C198 1.457 . S
C199 C200 1.291 . S
C199 H212 0.931 . S
C200 C199 1.291 . S
C200 C201 1.373 . S
C200 H213 0.929 . S
C201 C200 1.373 . S
C201 C202 1.396 1_554 S
C201 C208 1.403 . S
C202 C192 1.476 . S
C202 N197 1.318 . S
C202 C201 1.396 1_556 S
H203 C198 0.929 1_556 S
O204 Mn180 2.385 . S
O204 C182 1.234 . S
O205 Mn180 2.209 . S
O205 Mn181 2.215 . S
O205 C182 1.283 . S
O206 Mn180 2.094 . S
O206 C184 1.240 . S
O207 Mn181 2.117 . S
O207 C184 1.264 . S
C208 C201 1.403 . S
C208 C209 1.399 . S
C208 H214 0.929 . S
C209 C189 1.449 1_554 S
C209 C208 1.399 . S
C209 H215 0.930 . S
H210 C190 0.931 . S
H211 C191 0.930 . S
H212 C199 0.931 . S
H213 C200 0.929 . S
H214 C208 0.929 . S
H215 C209 0.930 . S
Mn216 O221 2.095 . S
Mn216 O231 2.162 . S
Mn216 O232 2.297 . S
Mn216 O240 2.385 . S
Mn216 O241 2.209 . S
Mn216 O242 2.094 . S
Mn217 O222 2.121 . S
Mn217 N224 2.257 . S
Mn217 N233 2.282 . S
Mn217 O241 2.215 . S
Mn217 O243 2.117 . S
C218 O240 1.234 . S
C218 O241 1.283 . S
C219 O231 1.281 . S
C219 O232 1.236 . S
C220 O242 1.240 . S
C220 O243 1.264 . S
O221 Mn216 2.095 . S
O221 C230 1.250 . S
O222 Mn217 2.121 . S
O222 C230 1.258 . S
C223 N224 1.326 . S
C223 C227 1.460 . S
C223 H229 0.929 . S
N224 Mn217 2.257 . S
N224 C223 1.326 . S
N224 C228 1.362 . S
C225 C226 1.258 . S
C225 C228 1.431 . S
C225 C245 1.449 . S
C226 C225 1.258 . S
C226 C227 1.477 . S
C226 H246 0.931 . S
C227 C223 1.460 . S
C227 C226 1.477 . S
C227 H247 0.930 . S
C228 N224 1.362 . S
C228 C225 1.431 . S
C228 C238 1.476 . S
H229 C223 0.929 . S
C230 O221 1.250 . S
C230 O222 1.258 . S
O231 Mn216 2.162 . S
O231 C219 1.281 . S
O232 Mn216 2.297 . S
O232 C219 1.236 . S
N233 Mn217 2.282 . S
N233 C234 1.328 . S
N233 C238 1.318 . S
C234 N233 1.328 . S
C234 C235 1.457 . S
C234 H239 0.929 . S
C235 C234 1.457 . S
C235 C236 1.291 . S
C235 H248 0.931 . S
C236 C235 1.291 . S
C236 C237 1.373 . S
C236 H249 0.929 . S
C237 C236 1.373 . S
C237 C238 1.396 . S
C237 C244 1.403 . S
C238 C228 1.476 . S
C238 N233 1.318 . S
C238 C237 1.396 . S
H239 C234 0.929 . S
O240 Mn216 2.385 . S
O240 C218 1.234 . S
O241 Mn216 2.209 . S
O241 Mn217 2.215 . S
O241 C218 1.283 . S
O242 Mn216 2.094 . S
O242 C220 1.240 . S
O243 Mn217 2.117 . S
O243 C220 1.264 . S
C244 C237 1.403 . S
C244 C245 1.399 . S
C244 H250 0.929 . S
C245 C225 1.449 . S
C245 C244 1.399 . S
C245 H251 0.930 . S
H246 C226 0.931 . S
H247 C227 0.930 . S
H248 C235 0.931 . S
H249 C236 0.929 . S
H250 C244 0.929 . S
H251 C245 0.930 . S
Mn252 O257 2.095 . S
Mn252 O267 2.162 . S
Mn252 O268 2.297 . S
Mn252 O276 2.385 1_554 S
Mn252 O277 2.209 . S
Mn252 O278 2.094 . S
Mn253 O258 2.121 . S
Mn253 N260 2.257 . S
Mn253 N269 2.282 1_554 S
Mn253 O277 2.215 . S
Mn253 O279 2.117 . S
C254 O276 1.234 . S
C254 O277 1.283 1_556 S
C255 O267 1.281 . S
C255 O268 1.236 . S
C256 O278 1.240 . S
C256 O279 1.264 . S
O257 Mn252 2.095 . S
O257 C266 1.250 . S
O258 Mn253 2.121 . S
O258 C266 1.258 . S
C259 N260 1.326 . S
C259 C263 1.460 . S
C259 H265 0.929 . S
N260 Mn253 2.257 . S
N260 C259 1.326 . S
N260 C264 1.362 1_554 S
C261 C262 1.258 1_556 S
C261 C264 1.431 . S
C261 C281 1.449 . S
C262 C261 1.258 1_554 S
C262 C263 1.477 . S
C262 H282 0.931 1_554 S
C263 C259 1.460 . S
C263 C262 1.477 . S
C263 H283 0.930 . S
C264 N260 1.362 1_556 S
C264 C261 1.431 . S
C264 C274 1.476 . S
H265 C259 0.929 . S
C266 O257 1.250 . S
C266 O258 1.258 . S
O267 Mn252 2.162 . S
O267 C255 1.281 . S
O268 Mn252 2.297 . S
O268 C255 1.236 . S
N269 Mn253 2.282 1_556 S
N269 C270 1.328 . S
N269 C274 1.318 . S
C270 N269 1.328 . S
C270 C271 1.457 . S
C270 H275 0.929 . S
C271 C270 1.457 . S
C271 C272 1.291 . S
C271 H284 0.931 . S
C272 C271 1.291 . S
C272 C273 1.373 . S
C272 H285 0.929 . S
C273 C272 1.373 . S
C273 C274 1.396 . S
C273 C280 1.403 . S
C274 C264 1.476 . S
C274 N269 1.318 . S
C274 C273 1.396 . S
H275 C270 0.929 . S
O276 Mn252 2.385 1_556 S
O276 C254 1.234 . S
O277 Mn252 2.209 . S
O277 Mn253 2.215 . S
O277 C254 1.283 1_554 S
O278 Mn252 2.094 . S
O278 C256 1.240 . S
O279 Mn253 2.117 . S
O279 C256 1.264 . S
C280 C273 1.403 . S
C280 C281 1.399 . S
C280 H286 0.929 . S
C281 C261 1.449 . S
C281 C280 1.399 . S
C281 H287 0.930 . S
H282 C262 0.931 1_556 S
H283 C263 0.930 . S
H284 C271 0.931 . S
H285 C272 0.929 . S
H286 C280 0.929 . S
H287 C281 0.930 . S
Mn288 O293 2.095 . S
Mn288 O303 2.162 . S
Mn288 O304 2.297 . S
Mn288 O312 2.385 . S
Mn288 O313 2.209 . S
Mn288 O314 2.094 . S
Mn289 O294 2.121 . S
Mn289 N296 2.257 . S
Mn289 N305 2.282 . S
Mn289 O313 2.215 . S
Mn289 O315 2.117 . S
C290 O312 1.234 . S
C290 O313 1.283 . S
C291 O303 1.281 . S
C291 O304 1.236 . S
C292 O314 1.240 . S
C292 O315 1.264 . S
O293 Mn288 2.095 . S
O293 C302 1.250 . S
O294 Mn289 2.121 . S
O294 C302 1.258 . S
C295 N296 1.326 . S
C295 C299 1.460 . S
C295 H301 0.929 . S
N296 Mn289 2.257 . S
N296 C295 1.326 . S
N296 C300 1.362 . S
C297 C298 1.258 . S
C297 C300 1.431 . S
C297 C317 1.449 . S
C298 C297 1.258 . S
C298 C299 1.477 . S
C298 H318 0.931 . S
C299 C295 1.460 . S
C299 C298 1.477 . S
C299 H319 0.930 . S
C300 N296 1.362 . S
C300 C297 1.431 . S
C300 C310 1.476 . S
H301 C295 0.929 . S
C302 O293 1.250 . S
C302 O294 1.258 . S
O303 Mn288 2.162 . S
O303 C291 1.281 . S
O304 Mn288 2.297 . S
O304 C291 1.236 . S
N305 Mn289 2.282 . S
N305 C306 1.328 . S
N305 C310 1.318 . S
C306 N305 1.328 . S
C306 C307 1.457 . S
C306 H311 0.929 . S
C307 C306 1.457 . S
C307 C308 1.291 . S
C307 H320 0.931 . S
C308 C307 1.291 . S
C308 C309 1.373 . S
C308 H321 0.929 . S
C309 C308 1.373 . S
C309 C310 1.396 . S
C309 C316 1.403 . S
C310 C300 1.476 . S
C310 N305 1.318 . S
C310 C309 1.396 . S
H311 C306 0.929 . S
O312 Mn288 2.385 . S
O312 C290 1.234 . S
O313 Mn288 2.209 . S
O313 Mn289 2.215 . S
O313 C290 1.283 . S
O314 Mn288 2.094 . S
O314 C292 1.240 . S
O315 Mn289 2.117 . S
O315 C292 1.264 . S
C316 C309 1.403 . S
C316 C317 1.399 . S
C316 H322 0.929 . S
C317 C297 1.449 . S
C317 C316 1.399 . S
C317 H323 0.930 . S
H318 C298 0.931 . S
H319 C299 0.930 . S
H320 C307 0.931 . S
H321 C308 0.929 . S
H322 C316 0.929 . S
H323 C317 0.930 . S
Mn324 O329 2.095 . S
Mn324 O339 2.162 . S
Mn324 O340 2.297 . S
Mn324 O348 2.385 . S
Mn324 O349 2.209 . S
Mn324 O350 2.094 . S
Mn325 O330 2.121 . S
Mn325 N332 2.257 . S
Mn325 N341 2.282 . S
Mn325 O349 2.215 . S
Mn325 O351 2.117 . S
C326 O348 1.234 . S
C326 O349 1.283 . S
C327 O339 1.281 . S
C327 O340 1.236 . S
C328 O350 1.240 . S
C328 O351 1.264 . S
O329 Mn324 2.095 . S
O329 C338 1.250 . S
O330 Mn325 2.121 . S
O330 C338 1.258 . S
C331 N332 1.326 . S
C331 C335 1.460 . S
C331 H337 0.929 . S
N332 Mn325 2.257 . S
N332 C331 1.326 . S
N332 C336 1.362 . S
C333 C334 1.258 . S
C333 C336 1.431 . S
C333 C353 1.449 . S
C334 C333 1.258 . S
C334 C335 1.477 . S
C334 H354 0.931 . S
C335 C331 1.460 . S
C335 C334 1.477 . S
C335 H355 0.930 . S
C336 N332 1.362 . S
C336 C333 1.431 . S
C336 C346 1.476 . S
H337 C331 0.929 . S
C338 O329 1.250 . S
C338 O330 1.258 . S
O339 Mn324 2.162 . S
O339 C327 1.281 . S
O340 Mn324 2.297 . S
O340 C327 1.236 . S
N341 Mn325 2.282 . S
N341 C342 1.328 . S
N341 C346 1.318 . S
C342 N341 1.328 . S
C342 C343 1.457 . S
C342 H347 0.929 . S
C343 C342 1.457 . S
C343 C344 1.291 . S
C343 H356 0.931 . S
C344 C343 1.291 . S
C344 C345 1.373 . S
C344 H357 0.929 . S
C345 C344 1.373 . S
C345 C346 1.396 . S
C345 C352 1.403 . S
C346 C336 1.476 . S
C346 N341 1.318 . S
C346 C345 1.396 . S
H347 C342 0.929 . S
O348 Mn324 2.385 . S
O348 C326 1.234 . S
O349 Mn324 2.209 . S
O349 Mn325 2.215 . S
O349 C326 1.283 . S
O350 Mn324 2.094 . S
O350 C328 1.240 . S
O351 Mn325 2.117 . S
O351 C328 1.264 . S
C352 C345 1.403 . S
C352 C353 1.399 . S
C352 H358 0.929 . S
C353 C333 1.449 . S
C353 C352 1.399 . S
C353 H359 0.930 . S
H354 C334 0.931 . S
H355 C335 0.930 . S
H356 C343 0.931 . S
H357 C344 0.929 . S
H358 C352 0.929 . S
H359 C353 0.930 . S
Mn360 O365 2.095 . S
Mn360 O375 2.162 . S
Mn360 O376 2.297 . S
Mn360 O384 2.385 . S
Mn360 O385 2.209 . S
Mn360 O386 2.094 . S
Mn361 O366 2.121 . S
Mn361 N368 2.257 . S
Mn361 N377 2.282 . S
Mn361 O385 2.215 . S
Mn361 O387 2.117 . S
C362 O384 1.234 . S
C362 O385 1.283 . S
C363 O375 1.281 . S
C363 O376 1.236 . S
C364 O386 1.240 . S
C364 O387 1.264 . S
O365 Mn360 2.095 . S
O365 C374 1.250 . S
O366 Mn361 2.121 . S
O366 C374 1.258 . S
C367 N368 1.326 . S
C367 C371 1.460 . S
C367 H373 0.929 . S
N368 Mn361 2.257 . S
N368 C367 1.326 . S
N368 C372 1.362 . S
C369 C370 1.258 . S
C369 C372 1.431 . S
C369 C389 1.449 . S
C370 C369 1.258 . S
C370 C371 1.477 . S
C370 H390 0.931 . S
C371 C367 1.460 . S
C371 C370 1.477 . S
C371 H391 0.930 . S
C372 N368 1.362 . S
C372 C369 1.431 . S
C372 C382 1.476 . S
H373 C367 0.929 . S
C374 O365 1.250 . S
C374 O366 1.258 . S
O375 Mn360 2.162 . S
O375 C363 1.281 . S
O376 Mn360 2.297 . S
O376 C363 1.236 . S
N377 Mn361 2.282 . S
N377 C378 1.328 . S
N377 C382 1.318 . S
C378 N377 1.328 . S
C378 C379 1.457 . S
C378 H383 0.929 . S
C379 C378 1.457 . S
C379 C380 1.291 . S
C379 H392 0.931 . S
C380 C379 1.291 . S
C380 C381 1.373 . S
C380 H393 0.929 . S
C381 C380 1.373 . S
C381 C382 1.396 . S
C381 C388 1.403 . S
C382 C372 1.476 . S
C382 N377 1.318 . S
C382 C381 1.396 . S
H383 C378 0.929 . S
O384 Mn360 2.385 . S
O384 C362 1.234 . S
O385 Mn360 2.209 . S
O385 Mn361 2.215 . S
O385 C362 1.283 . S
O386 Mn360 2.094 . S
O386 C364 1.240 . S
O387 Mn361 2.117 . S
O387 C364 1.264 . S
C388 C381 1.403 . S
C388 C389 1.399 . S
C388 H394 0.929 . S
C389 C369 1.449 . S
C389 C388 1.399 . S
C389 H395 0.930 . S
H390 C370 0.931 . S
H391 C371 0.930 . S
H392 C379 0.931 . S
H393 C380 0.929 . S
H394 C388 0.929 . S
H395 C389 0.930 . S
Mn396 O401 2.095 . S
Mn396 O411 2.162 . S
Mn396 O412 2.297 . S
Mn396 O420 2.385 . S
Mn396 O421 2.209 . S
Mn396 O422 2.094 . S
Mn397 O402 2.121 . S
Mn397 N404 2.257 . S
Mn397 N413 2.282 . S
Mn397 O421 2.215 . S
Mn397 O423 2.117 . S
C398 O420 1.234 . S
C398 O421 1.283 . S
C399 O411 1.281 . S
C399 O412 1.236 . S
C400 O422 1.240 . S
C400 O423 1.264 . S
O401 Mn396 2.095 . S
O401 C410 1.250 . S
O402 Mn397 2.121 . S
O402 C410 1.258 . S
C403 N404 1.326 . S
C403 C407 1.460 . S
C403 H409 0.929 . S
N404 Mn397 2.257 . S
N404 C403 1.326 . S
N404 C408 1.362 . S
C405 C406 1.258 . S
C405 C408 1.431 . S
C405 C425 1.449 . S
C406 C405 1.258 . S
C406 C407 1.477 . S
C406 H426 0.931 . S
C407 C403 1.460 . S
C407 C406 1.477 . S
C407 H427 0.930 . S
C408 N404 1.362 . S
C408 C405 1.431 . S
C408 C418 1.476 . S
H409 C403 0.929 . S
C410 O401 1.250 . S
C410 O402 1.258 . S
O411 Mn396 2.162 . S
O411 C399 1.281 . S
O412 Mn396 2.297 . S
O412 C399 1.236 . S
N413 Mn397 2.282 . S
N413 C414 1.328 . S
N413 C418 1.318 . S
C414 N413 1.328 . S
C414 C415 1.457 . S
C414 H419 0.929 . S
C415 C414 1.457 . S
C415 C416 1.291 . S
C415 H428 0.931 . S
C416 C415 1.291 . S
C416 C417 1.373 . S
C416 H429 0.929 . S
C417 C416 1.373 . S
C417 C418 1.396 . S
C417 C424 1.403 . S
C418 C408 1.476 . S
C418 N413 1.318 . S
C418 C417 1.396 . S
H419 C414 0.929 . S
O420 Mn396 2.385 . S
O420 C398 1.234 . S
O421 Mn396 2.209 . S
O421 Mn397 2.215 . S
O421 C398 1.283 . S
O422 Mn396 2.094 . S
O422 C400 1.240 . S
O423 Mn397 2.117 . S
O423 C400 1.264 . S
C424 C417 1.403 . S
C424 C425 1.399 . S
C424 H430 0.929 . S
C425 C405 1.449 . S
C425 C424 1.399 . S
C425 H431 0.930 . S
H426 C406 0.931 . S
H427 C407 0.930 . S
H428 C415 0.931 . S
H429 C416 0.929 . S
H430 C424 0.929 . S
H431 C425 0.930 . S
H432 C440 0.950 . S
H433 C445 0.950 . S
H434 C442 0.950 . S
H435 C444 0.950 . S
H436 C446 0.950 . S
H437 C448 0.950 . S
H438 C450 0.950 . S
H439 C451 0.950 . S
C440 H432 0.950 . S
C440 C441 1.386 . S
C440 C442 1.391 . S
C441 C440 1.386 . S
C441 C445 1.393 . S
C442 H434 0.950 . S
C442 C440 1.391 . S
C442 C443 1.400 . S
C443 C442 1.400 . S
C443 C444 1.398 . S
C443 C449 1.491 . S
C444 H435 0.950 . S
C444 C443 1.398 . S
C444 C445 1.391 . S
C445 H433 0.950 . S
C445 C441 1.393 . S
C445 C444 1.391 . S
C446 H436 0.950 . S
C446 C447 1.386 . S
C446 C448 1.391 . S
C447 C446 1.386 . S
C447 C451 1.393 . S
C448 H437 0.950 . S
C448 C446 1.391 . S
C448 C449 1.400 . S
C449 C443 1.491 . S
C449 C448 1.400 . S
C449 C450 1.398 . S
C450 H438 0.950 . S
C450 C449 1.398 . S
C450 C451 1.391 . S
C451 H439 0.950 . S
C451 C447 1.393 . S
C451 C450 1.391 . S
H452 C460 0.950 . S
H453 C465 0.950 . S
H454 C462 0.950 . S
H455 C464 0.950 . S
H456 C466 0.950 . S
H457 C468 0.950 . S
H458 C470 0.950 . S
H459 C471 0.950 . S
C460 H452 0.950 . S
C460 C461 1.386 . S
C460 C462 1.391 . S
C461 C460 1.386 . S
C461 C465 1.393 . S
C462 H454 0.950 . S
C462 C460 1.391 . S
C462 C463 1.400 . S
C463 C462 1.400 . S
C463 C464 1.398 . S
C463 C469 1.491 . S
C464 H455 0.950 . S
C464 C463 1.398 . S
C464 C465 1.391 . S
C465 H453 0.950 . S
C465 C461 1.393 . S
C465 C464 1.391 . S
C466 H456 0.950 . S
C466 C467 1.386 . S
C466 C468 1.391 . S
C467 C466 1.386 . S
C467 C471 1.393 . S
C468 H457 0.950 . S
C468 C466 1.391 . S
C468 C469 1.400 . S
C469 C463 1.491 . S
C469 C468 1.400 . S
C469 C470 1.398 . S
C470 H458 0.950 . S
C470 C469 1.398 . S
C470 C471 1.391 . S
C471 H459 0.950 . S
C471 C467 1.393 . S
C471 C470 1.391 . S
H472 C480 0.950 . S
H473 C485 0.950 . S
H474 C482 0.950 . S
H475 C484 0.950 . S
H476 C486 0.950 . S
H477 C488 0.950 . S
H478 C490 0.950 . S
H479 C491 0.950 . S
C480 H472 0.950 . S
C480 C481 1.386 . S
C480 C482 1.391 . S
C481 C480 1.386 . S
C481 C485 1.393 . S
C482 H474 0.950 . S
C482 C480 1.391 . S
C482 C483 1.400 . S
C483 C482 1.400 . S
C483 C484 1.398 . S
C483 C489 1.491 . S
C484 H475 0.950 . S
C484 C483 1.398 . S
C484 C485 1.391 . S
C485 H473 0.950 . S
C485 C481 1.393 . S
C485 C484 1.391 . S
C486 H476 0.950 . S
C486 C487 1.386 . S
C486 C488 1.391 . S
C487 C486 1.386 . S
C487 C491 1.393 . S
C488 H477 0.950 . S
C488 C486 1.391 . S
C488 C489 1.400 . S
C489 C483 1.491 . S
C489 C488 1.400 . S
C489 C490 1.398 . S
C490 H478 0.950 . S
C490 C489 1.398 . S
C490 C491 1.391 . S
C491 H479 0.950 . S
C491 C487 1.393 . S
C491 C490 1.391 . S
H492 C500 0.950 . S
H493 C505 0.950 . S
H494 C502 0.950 . S
H495 C504 0.950 . S
H496 C506 0.950 . S
H497 C508 0.950 . S
H498 C510 0.950 . S
H499 C511 0.950 . S
C500 H492 0.950 . S
C500 C501 1.386 . S
C500 C502 1.391 . S
C501 C500 1.386 . S
C501 C505 1.393 . S
C502 H494 0.950 . S
C502 C500 1.391 . S
C502 C503 1.400 . S
C503 C502 1.400 . S
C503 C504 1.398 . S
C503 C509 1.491 . S
C504 H495 0.950 . S
C504 C503 1.398 . S
C504 C505 1.391 . S
C505 H493 0.950 . S
C505 C501 1.393 . S
C505 C504 1.391 . S
C506 H496 0.950 . S
C506 C507 1.386 . S
C506 C508 1.391 . S
C507 C506 1.386 . S
C507 C511 1.393 . S
C508 H497 0.950 . S
C508 C506 1.391 . S
C508 C509 1.400 . S
C509 C503 1.491 . S
C509 C508 1.400 . S
C509 C510 1.398 . S
C510 H498 0.950 . S
C510 C509 1.398 . S
C510 C511 1.391 . S
C511 H499 0.950 . S
C511 C507 1.393 . S
C511 C510 1.391 . S
H512 C520 0.950 . S
H513 C525 0.950 . S
H514 C522 0.950 . S
H515 C524 0.950 1_556 S
H516 C526 0.950 . S
H517 C528 0.950 . S
H518 C530 0.950 . S
H519 C531 0.950 . S
C520 H512 0.950 . S
C520 C521 1.386 . S
C520 C522 1.391 . S
C521 C520 1.386 . S
C521 C525 1.393 . S
C522 H514 0.950 . S
C522 C520 1.391 . S
C522 C523 1.410 . S
C523 C522 1.410 . S
C523 C524 1.399 . S
C523 C529 1.480 1_554 S
C524 H515 0.950 1_554 S
C524 C523 1.399 . S
C524 C525 1.391 . S
C525 H513 0.950 . S
C525 C521 1.393 . S
C525 C524 1.391 . S
C526 H516 0.950 . S
C526 C527 1.386 . S
C526 C528 1.391 . S
C527 C526 1.386 . S
C527 C531 1.393 . S
C528 H517 0.950 . S
C528 C526 1.391 . S
C528 C529 1.400 . S
C529 C523 1.480 1_556 S
C529 C528 1.400 . S
C529 C530 1.398 . S
C530 H518 0.950 . S
C530 C529 1.398 . S
C530 C531 1.391 . S
C531 H519 0.950 . S
C531 C527 1.393 . S
C531 C530 1.391 . S
H532 C540 0.950 . S
H533 C545 0.950 . S
H534 C542 0.950 . S
H535 C544 0.950 . S
H536 C546 0.950 1_556 S
H537 C548 0.950 . S
H538 C550 0.950 . S
H539 C551 0.950 . S
C540 H532 0.950 . S
C540 C541 1.386 . S
C540 C542 1.391 . S
C541 C540 1.386 . S
C541 C545 1.393 . S
C542 H534 0.950 . S
C542 C540 1.391 . S
C542 C543 1.400 . S
C543 C542 1.400 . S
C543 C544 1.398 . S
C543 C549 1.491 . S
C544 H535 0.950 . S
C544 C543 1.398 . S
C544 C545 1.391 . S
C545 H533 0.950 . S
C545 C541 1.393 . S
C545 C544 1.391 . S
C546 H536 0.950 1_554 S
C546 C547 1.386 . S
C546 C548 1.391 . S
C547 C546 1.386 . S
C547 C551 1.393 . S
C548 H537 0.950 . S
C548 C546 1.391 . S
C548 C549 1.400 . S
C549 C543 1.491 . S
C549 C548 1.400 . S
C549 C550 1.398 . S
C550 H538 0.950 . S
C550 C549 1.398 . S
C550 C551 1.391 . S
C551 H539 0.950 . S
C551 C547 1.393 . S
C551 C550 1.391 . S
H552 C560 0.950 . S
H553 C565 0.950 . S
H554 C562 0.950 . S
H555 C564 0.950 . S
H556 C566 0.950 . S
H557 C568 0.950 . S
H558 C570 0.950 . S
H559 C571 0.950 . S
C560 H552 0.950 . S
C560 C561 1.386 . S
C560 C562 1.391 . S
C561 C560 1.386 . S
C561 C565 1.393 . S
C562 H554 0.950 . S
C562 C560 1.391 . S
C562 C563 1.400 . S
C563 C562 1.400 . S
C563 C564 1.398 . S
C563 C569 1.491 . S
C564 H555 0.950 . S
C564 C563 1.398 . S
C564 C565 1.391 . S
C565 H553 0.950 . S
C565 C561 1.393 . S
C565 C564 1.391 . S
C566 H556 0.950 . S
C566 C567 1.386 . S
C566 C568 1.391 . S
C567 C566 1.386 . S
C567 C571 1.393 . S
C568 H557 0.950 . S
C568 C566 1.391 . S
C568 C569 1.400 . S
C569 C563 1.491 . S
C569 C568 1.400 . S
C569 C570 1.398 . S
C570 H558 0.950 . S
C570 C569 1.398 . S
C570 C571 1.391 . S
C571 H559 0.950 . S
C571 C567 1.393 . S
C571 C570 1.391 . S
H572 C580 0.950 . S
H573 C585 0.950 . S
H574 C582 0.950 . S
H575 C584 0.950 . S
H576 C586 0.950 . S
H577 C588 0.950 . S
H578 C590 0.950 . S
H579 C591 0.950 . S
C580 H572 0.950 . S
C580 C581 1.386 . S
C580 C582 1.391 . S
C581 C580 1.386 . S
C581 C585 1.393 . S
C582 H574 0.950 . S
C582 C580 1.391 . S
C582 C583 1.400 . S
C583 C582 1.400 . S
C583 C584 1.398 . S
C583 C589 1.491 . S
C584 H575 0.950 . S
C584 C583 1.398 . S
C584 C585 1.391 . S
C585 H573 0.950 . S
C585 C581 1.393 . S
C585 C584 1.391 . S
C586 H576 0.950 . S
C586 C587 1.386 . S
C586 C588 1.391 . S
C587 C586 1.386 . S
C587 C591 1.393 . S
C588 H577 0.950 . S
C588 C586 1.391 . S
C588 C589 1.400 . S
C589 C583 1.491 . S
C589 C588 1.400 . S
C589 C590 1.398 . S
C590 H578 0.950 . S
C590 C589 1.398 . S
C590 C591 1.391 . S
C591 H579 0.950 . S
C591 C587 1.393 . S
C591 C590 1.391 . S
H592 C600 0.950 . S
H593 C605 0.950 . S
H594 C602 0.950 . S
H595 C604 0.950 . S
H596 C606 0.950 . S
H597 C608 0.950 . S
H598 C610 0.950 . S
H599 C611 0.950 . S
C600 H592 0.950 . S
C600 C601 1.386 . S
C600 C602 1.391 . S
C601 C600 1.386 . S
C601 C605 1.393 . S
C602 H594 0.950 . S
C602 C600 1.391 . S
C602 C603 1.400 . S
C603 C602 1.400 . S
C603 C604 1.398 . S
C603 C609 1.491 . S
C604 H595 0.950 . S
C604 C603 1.398 . S
C604 C605 1.391 . S
C605 H593 0.950 . S
C605 C601 1.393 . S
C605 C604 1.391 . S
C606 H596 0.950 . S
C606 C607 1.386 . S
C606 C608 1.391 . S
C607 C606 1.386 . S
C607 C611 1.393 . S
C608 H597 0.950 . S
C608 C606 1.391 . S
C608 C609 1.400 . S
C609 C603 1.491 . S
C609 C608 1.400 . S
C609 C610 1.398 . S
C610 H598 0.950 . S
C610 C609 1.398 . S
C610 C611 1.391 . S
C611 H599 0.950 . S
C611 C607 1.393 . S
C611 C610 1.391 . S
H612 C620 0.950 . S
H613 C625 0.950 . S
H614 C622 0.950 . S
H615 C624 0.950 . S
H616 C626 0.950 . S
H617 C628 0.950 . S
H618 C630 0.950 . S
H619 C631 0.950 . S
C620 H612 0.950 . S
C620 C621 1.386 . S
C620 C622 1.391 . S
C621 C620 1.386 . S
C621 C625 1.393 . S
C622 H614 0.950 . S
C622 C620 1.391 . S
C622 C623 1.400 . S
C623 C622 1.400 . S
C623 C624 1.398 . S
C623 C629 1.491 . S
C624 H615 0.950 . S
C624 C623 1.398 . S
C624 C625 1.391 . S
C625 H613 0.950 . S
C625 C621 1.393 . S
C625 C624 1.391 . S
C626 H616 0.950 . S
C626 C627 1.386 . S
C626 C628 1.391 . S
C627 C626 1.386 . S
C627 C631 1.393 . S
C628 H617 0.950 . S
C628 C626 1.391 . S
C628 C629 1.400 . S
C629 C623 1.491 . S
C629 C628 1.400 . S
C629 C630 1.398 . S
C630 H618 0.950 . S
C630 C629 1.398 . S
C630 C631 1.391 . S
C631 H619 0.950 . S
C631 C627 1.393 . S
C631 C630 1.391 . S
H632 C640 0.950 . S
H633 C645 0.950 . S
H634 C642 0.950 . S
H635 C644 0.950 . S
H636 C646 0.950 . S
H637 C648 0.950 . S
H638 C650 0.950 . S
H639 C651 0.950 . S
C640 H632 0.950 . S
C640 C641 1.386 . S
C640 C642 1.391 . S
C641 C640 1.386 . S
C641 C645 1.393 . S
C642 H634 0.950 . S
C642 C640 1.391 . S
C642 C643 1.400 . S
C643 C642 1.400 . S
C643 C644 1.398 . S
C643 C649 1.491 . S
C644 H635 0.950 . S
C644 C643 1.398 . S
C644 C645 1.391 . S
C645 H633 0.950 . S
C645 C641 1.393 . S
C645 C644 1.391 . S
C646 H636 0.950 . S
C646 C647 1.386 . S
C646 C648 1.391 . S
C647 C646 1.386 . S
C647 C651 1.393 . S
C648 H637 0.950 . S
C648 C646 1.391 . S
C648 C649 1.400 . S
C649 C643 1.491 . S
C649 C648 1.400 . S
C649 C650 1.398 . S
C650 H638 0.950 . S
C650 C649 1.398 . S
C650 C651 1.391 . S
C651 H639 0.950 . S
C651 C647 1.393 . S
C651 C650 1.391 . S
H652 C660 0.950 . S
H653 C665 0.949 1_554 S
H654 C662 0.950 . S
H655 C664 0.950 1_554 S
H656 C666 0.950 . S
H657 C668 0.950 . S
H658 C670 0.950 . S
H659 C671 0.950 . S
C660 H652 0.950 . S
C660 C661 1.386 . S
C660 C662 1.391 . S
C661 C660 1.386 . S
C661 C665 1.393 . S
C662 H654 0.950 . S
C662 C660 1.391 . S
C662 C663 1.400 . S
C663 C662 1.400 . S
C663 C664 1.398 . S
C663 C669 1.491 . S
C664 H655 0.950 1_556 S
C664 C663 1.398 . S
C664 C665 1.391 . S
C665 H653 0.949 1_556 S
C665 C661 1.393 . S
C665 C664 1.391 . S
C666 H656 0.950 . S
C666 C667 1.386 . S
C666 C668 1.391 . S
C667 C666 1.386 . S
C667 C671 1.393 1_554 S
C668 H657 0.950 . S
C668 C666 1.391 . S
C668 C669 1.400 1_554 S
C669 C663 1.491 . S
C669 C668 1.400 1_556 S
C669 C670 1.398 . S
C670 H658 0.950 . S
C670 C669 1.398 . S
C670 C671 1.391 . S
C671 H659 0.950 . S
C671 C667 1.393 1_556 S
C671 C670 1.391 . S
H672 C680 0.950 . S
H673 C685 0.950 . S
H674 C682 0.950 . S
H675 C684 0.950 . S
H676 C686 0.950 . S
H677 C688 0.950 . S
H678 C690 0.950 . S
H679 C691 0.950 . S
C680 H672 0.950 . S
C680 C681 1.386 . S
C680 C682 1.391 . S
C681 C680 1.386 . S
C681 C685 1.393 . S
C682 H674 0.950 . S
C682 C680 1.391 . S
C682 C683 1.400 . S
C683 C682 1.400 . S
C683 C684 1.398 . S
C683 C689 1.491 . S
C684 H675 0.950 . S
C684 C683 1.398 . S
C684 C685 1.391 . S
C685 H673 0.950 . S
C685 C681 1.393 . S
C685 C684 1.391 . S
C686 H676 0.950 . S
C686 C687 1.386 . S
C686 C688 1.391 . S
C687 C686 1.386 . S
C687 C691 1.393 . S
C688 H677 0.950 . S
C688 C686 1.391 . S
C688 C689 1.400 . S
C689 C683 1.491 . S
C689 C688 1.400 . S
C689 C690 1.398 . S
C690 H678 0.950 . S
C690 C689 1.398 . S
C690 C691 1.391 . S
C691 H679 0.950 . S
C691 C687 1.393 . S
C691 C690 1.391 . S
H692 C700 0.950 . S
H693 C705 0.950 . S
H694 C702 0.950 . S
H695 C704 0.950 . S
H696 C706 0.950 . S
H697 C708 0.950 . S
H698 C710 0.950 1_556 S
H699 C711 0.950 . S
C700 H692 0.950 . S
C700 C701 1.386 . S
C700 C702 1.391 . S
C701 C700 1.386 . S
C701 C705 1.393 . S
C702 H694 0.950 . S
C702 C700 1.391 . S
C702 C703 1.400 . S
C703 C702 1.400 . S
C703 C704 1.398 . S
C703 C709 1.487 1_556 S
C704 H695 0.950 . S
C704 C703 1.398 . S
C704 C705 1.391 . S
C705 H693 0.950 . S
C705 C701 1.393 . S
C705 C704 1.391 . S
C706 H696 0.950 . S
C706 C707 1.386 . S
C706 C708 1.391 . S
C707 C706 1.386 . S
C707 C711 1.393 . S
C708 H697 0.950 . S
C708 C706 1.391 . S
C708 C709 1.403 . S
C709 C703 1.487 1_554 S
C709 C708 1.403 . S
C709 C710 1.399 . S
C710 H698 0.950 1_554 S
C710 C709 1.399 . S
C710 C711 1.391 . S
C711 H699 0.950 . S
C711 C707 1.393 . S
C711 C710 1.391 . S
H712 C720 0.950 1_556 S
H713 C725 0.950 . S
H714 C722 0.950 . S
H715 C724 0.950 . S
H716 C726 0.950 . S
H717 C728 0.950 . S
H718 C730 0.950 . S
H719 C731 0.950 . S
C720 H712 0.950 1_554 S
C720 C721 1.386 . S
C720 C722 1.391 . S
C721 C720 1.386 . S
C721 C725 1.393 . S
C722 H714 0.950 . S
C722 C720 1.391 . S
C722 C723 1.400 . S
C723 C722 1.400 . S
C723 C724 1.398 . S
C723 C729 1.491 . S
C724 H715 0.950 . S
C724 C723 1.398 . S
C724 C725 1.391 . S
C725 H713 0.950 . S
C725 C721 1.393 . S
C725 C724 1.391 . S
C726 H716 0.950 . S
C726 C727 1.386 . S
C726 C728 1.391 . S
C727 C726 1.386 . S
C727 C731 1.393 . S
C728 H717 0.950 . S
C728 C726 1.391 . S
C728 C729 1.400 . S
C729 C723 1.491 . S
C729 C728 1.400 . S
C729 C730 1.398 . S
C730 H718 0.950 . S
C730 C729 1.398 . S
C730 C731 1.391 . S
C731 H719 0.950 . S
C731 C727 1.393 . S
C731 C730 1.391 . S
H732 C740 0.950 . S
H733 C745 0.950 . S
H734 C742 0.950 . S
H735 C744 0.950 . S
H736 C746 0.950 . S
H737 C748 0.950 . S
H738 C750 0.950 . S
H739 C751 0.950 . S
C740 H732 0.950 . S
C740 C741 1.386 . S
C740 C742 1.391 . S
C741 C740 1.386 . S
C741 C745 1.393 . S
C742 H734 0.950 . S
C742 C740 1.391 . S
C742 C743 1.400 . S
C743 C742 1.400 . S
C743 C744 1.398 . S
C743 C749 1.491 . S
C744 H735 0.950 . S
C744 C743 1.398 . S
C744 C745 1.391 . S
C745 H733 0.950 . S
C745 C741 1.393 . S
C745 C744 1.391 . S
C746 H736 0.950 . S
C746 C747 1.386 . S
C746 C748 1.391 . S
C747 C746 1.386 . S
C747 C751 1.393 . S
C748 H737 0.950 . S
C748 C746 1.391 . S
C748 C749 1.400 . S
C749 C743 1.491 . S
C749 C748 1.400 . S
C749 C750 1.398 . S
C750 H738 0.950 . S
C750 C749 1.398 . S
C750 C751 1.391 . S
C751 H739 0.950 . S
C751 C747 1.393 . S
C751 C750 1.391 . S
H752 C760 0.950 . S
H753 C765 0.950 . S
H754 C762 0.950 . S
H755 C764 0.950 . S
H756 C766 0.950 . S
H757 C768 0.950 . S
H758 C770 0.950 . S
H759 C771 0.950 . S
C760 H752 0.950 . S
C760 C761 1.386 . S
C760 C762 1.391 . S
C761 C760 1.386 . S
C761 C765 1.393 . S
C762 H754 0.950 . S
C762 C760 1.391 . S
C762 C763 1.400 . S
C763 C762 1.400 . S
C763 C764 1.398 . S
C763 C769 1.491 . S
C764 H755 0.950 . S
C764 C763 1.398 . S
C764 C765 1.391 . S
C765 H753 0.950 . S
C765 C761 1.393 . S
C765 C764 1.391 . S
C766 H756 0.950 . S
C766 C767 1.386 . S
C766 C768 1.391 . S
C767 C766 1.386 . S
C767 C771 1.393 . S
C768 H757 0.950 . S
C768 C766 1.391 . S
C768 C769 1.400 . S
C769 C763 1.491 . S
C769 C768 1.400 . S
C769 C770 1.398 . S
C770 H758 0.950 . S
C770 C769 1.398 . S
C770 C771 1.391 . S
C771 H759 0.950 . S
C771 C767 1.393 . S
C771 C770 1.391 . S
H772 C780 0.950 . S
H773 C785 0.950 . S
H774 C782 0.950 . S
H775 C784 0.950 . S
H776 C786 0.950 . S
H777 C788 0.950 . S
H778 C790 0.950 . S
H779 C791 0.950 . S
C780 H772 0.950 . S
C780 C781 1.386 . S
C780 C782 1.391 . S
C781 C780 1.386 . S
C781 C785 1.393 . S
C782 H774 0.950 . S
C782 C780 1.391 . S
C782 C783 1.400 . S
C783 C782 1.400 . S
C783 C784 1.398 . S
C783 C789 1.491 . S
C784 H775 0.950 . S
C784 C783 1.398 . S
C784 C785 1.391 . S
C785 H773 0.950 . S
C785 C781 1.393 . S
C785 C784 1.391 . S
C786 H776 0.950 . S
C786 C787 1.386 . S
C786 C788 1.391 . S
C787 C786 1.386 . S
C787 C791 1.393 . S
C788 H777 0.950 . S
C788 C786 1.391 . S
C788 C789 1.400 . S
C789 C783 1.491 . S
C789 C788 1.400 . S
C789 C790 1.398 . S
C790 H778 0.950 . S
C790 C789 1.398 . S
C790 C791 1.391 . S
C791 H779 0.950 . S
C791 C787 1.393 . S
C791 C790 1.391 . S
H792 C800 0.950 . S
H793 C805 0.935 1_556 S
H794 C802 0.950 . S
H795 C804 0.950 1_556 S
H796 C806 0.950 1_556 S
H797 C808 0.950 1_556 S
H798 C810 0.950 . S
H799 C811 0.950 . S
C800 H792 0.950 . S
C800 C801 1.386 . S
C800 C802 1.391 . S
C801 C800 1.386 . S
C801 C805 1.393 . S
C802 H794 0.950 . S
C802 C800 1.391 . S
C802 C803 1.400 . S
C803 C802 1.400 . S
C803 C804 1.398 . S
C803 C809 1.491 1_545 S
C804 H795 0.950 1_554 S
C804 C803 1.398 . S
C804 C805 1.391 . S
C805 H793 0.935 1_554 S
C805 C801 1.393 . S
C805 C804 1.391 . S
C806 H796 0.950 1_554 S
C806 C807 1.386 . S
C806 C808 1.391 . S
C807 C806 1.386 . S
C807 C811 1.393 . S
C808 H797 0.950 1_554 S
C808 C806 1.391 . S
C808 C809 1.400 . S
C809 C803 1.491 1_565 S
C809 C808 1.400 . S
C809 C810 1.398 . S
C810 H798 0.950 . S
C810 C809 1.398 . S
C810 C811 1.391 . S
C811 H799 0.950 . S
C811 C807 1.393 . S
C811 C810 1.391 . S
H812 C820 0.950 . S
H813 C825 0.950 . S
H814 C822 0.950 . S
H815 C824 0.950 . S
H816 C826 0.950 . S
H817 C828 0.950 . S
H818 C830 0.950 . S
H819 C831 0.950 . S
C820 H812 0.950 . S
C820 C821 1.386 . S
C820 C822 1.391 . S
C821 C820 1.386 . S
C821 C825 1.393 . S
C822 H814 0.950 . S
C822 C820 1.391 . S
C822 C823 1.400 . S
C823 C822 1.400 . S
C823 C824 1.398 . S
C823 C829 1.491 . S
C824 H815 0.950 . S
C824 C823 1.398 . S
C824 C825 1.391 . S
C825 H813 0.950 . S
C825 C821 1.393 . S
C825 C824 1.391 . S
C826 H816 0.950 . S
C826 C827 1.386 . S
C826 C828 1.391 . S
C827 C826 1.386 . S
C827 C831 1.393 . S
C828 H817 0.950 . S
C828 C826 1.391 . S
C828 C829 1.400 . S
C829 C823 1.491 . S
C829 C828 1.400 . S
C829 C830 1.398 . S
C830 H818 0.950 . S
C830 C829 1.398 . S
C830 C831 1.391 . S
C831 H819 0.950 . S
C831 C827 1.393 . S
C831 C830 1.391 . S
H832 C840 0.950 . S
H833 C845 0.950 . S
H834 C842 0.950 . S
H835 C844 0.950 . S
H836 C846 0.950 . S
H837 C848 0.950 . S
H838 C850 0.950 . S
H839 C851 0.950 . S
C840 H832 0.950 . S
C840 C841 1.386 . S
C840 C842 1.391 . S
C841 C840 1.386 . S
C841 C845 1.393 . S
C842 H834 0.950 . S
C842 C840 1.391 . S
C842 C843 1.400 . S
C843 C842 1.400 . S
C843 C844 1.398 . S
C843 C849 1.491 1_455 S
C844 H835 0.950 . S
C844 C843 1.398 . S
C844 C845 1.391 . S
C845 H833 0.950 . S
C845 C841 1.393 . S
C845 C844 1.391 . S
C846 H836 0.950 . S
C846 C847 1.386 . S
C846 C848 1.391 . S
C847 C846 1.386 . S
C847 C851 1.393 . S
C848 H837 0.950 . S
C848 C846 1.391 . S
C848 C849 1.400 . S
C849 C843 1.491 1_655 S
C849 C848 1.400 . S
C849 C850 1.398 . S
C850 H838 0.950 . S
C850 C849 1.398 . S
C850 C851 1.391 . S
C851 H839 0.950 . S
C851 C847 1.393 . S
C851 C850 1.391 . S
H852 C860 0.950 . S
H853 C865 0.950 . S
H854 C862 0.950 . S
H855 C864 0.950 . S
H856 C866 0.950 . S
H857 C868 0.950 . S
H858 C870 0.950 . S
H859 C871 0.950 . S
C860 H852 0.950 . S
C860 C861 1.386 . S
C860 C862 1.391 . S
C861 C860 1.386 . S
C861 C865 1.393 . S
C862 H854 0.950 . S
C862 C860 1.391 . S
C862 C863 1.400 . S
C863 C862 1.400 . S
C863 C864 1.398 . S
C863 C869 1.491 1_565 S
C864 H855 0.950 . S
C864 C863 1.398 . S
C864 C865 1.391 . S
C865 H853 0.950 . S
C865 C861 1.393 . S
C865 C864 1.391 . S
C866 H856 0.950 . S
C866 C867 1.386 . S
C866 C868 1.391 . S
C867 C866 1.386 . S
C867 C871 1.393 . S
C868 H857 0.950 . S
C868 C866 1.391 . S
C868 C869 1.400 . S
C869 C863 1.491 1_545 S
C869 C868 1.400 . S
C869 C870 1.398 . S
C870 H858 0.950 . S
C870 C869 1.398 . S
C870 C871 1.391 . S
C871 H859 0.950 . S
C871 C867 1.393 . S
C871 C870 1.391 . S
H872 C880 0.950 . S
H873 C885 0.950 . S
H874 C882 0.950 . S
H875 C884 0.950 . S
H876 C886 0.950 . S
H877 C888 0.950 . S
H878 C890 0.950 . S
H879 C891 0.950 . S
C880 H872 0.950 . S
C880 C881 1.386 . S
C880 C882 1.391 . S
C881 C880 1.386 . S
C881 C885 1.393 . S
C882 H874 0.950 . S
C882 C880 1.391 . S
C882 C883 1.400 . S
C883 C882 1.400 . S
C883 C884 1.398 . S
C883 C889 1.491 . S
C884 H875 0.950 . S
C884 C883 1.398 . S
C884 C885 1.391 . S
C885 H873 0.950 . S
C885 C881 1.393 . S
C885 C884 1.391 . S
C886 H876 0.950 . S
C886 C887 1.386 . S
C886 C888 1.391 . S
C887 C886 1.386 . S
C887 C891 1.393 . S
C888 H877 0.950 . S
C888 C886 1.391 . S
C888 C889 1.400 . S
C889 C883 1.491 . S
C889 C888 1.400 . S
C889 C890 1.398 . S
C890 H878 0.950 . S
C890 C889 1.398 . S
C890 C891 1.391 . S
C891 H879 0.950 . S
C891 C887 1.393 . S
C891 C890 1.391 . S
H892 C900 0.950 . S
H893 C905 0.950 . S
H894 C902 0.950 . S
H895 C904 0.950 . S
H896 C906 0.950 . S
H897 C908 0.950 . S
H898 C910 0.950 . S
H899 C911 0.950 . S
C900 H892 0.950 . S
C900 C901 1.386 . S
C900 C902 1.391 . S
C901 C900 1.386 . S
C901 C905 1.393 . S
C902 H894 0.950 . S
C902 C900 1.391 . S
C902 C903 1.400 . S
C903 C902 1.400 . S
C903 C904 1.398 . S
C903 C909 1.491 1_455 S
C904 H895 0.950 . S
C904 C903 1.398 . S
C904 C905 1.391 . S
C905 H893 0.950 . S
C905 C901 1.393 . S
C905 C904 1.391 . S
C906 H896 0.950 . S
C906 C907 1.386 . S
C906 C908 1.391 . S
C907 C906 1.386 . S
C907 C911 1.393 . S
C908 H897 0.950 . S
C908 C906 1.391 . S
C908 C909 1.400 . S
C909 C903 1.491 1_655 S
C909 C908 1.400 . S
C909 C910 1.398 . S
C910 H898 0.950 . S
C910 C909 1.398 . S
C910 C911 1.391 . S
C911 H899 0.950 . S
C911 C907 1.393 . S
C911 C910 1.391 . S
C441 C2 1.193 . S
C447 C362 1.195 . S
C461 C38 1.209 . S
C467 C398 1.207 . S
C481 C218 1.206 . S
C487 C74 1.209 . S
C501 C110 1.194 . S
C507 C254 1.194 . S
C521 C290 1.200 . S
C527 C146 1.194 . S
C541 C326 1.205 . S
C547 C182 1.198 1_554 S
C561 C291 1.292 . S
C567 C3 1.292 . S
C581 C39 1.289 . S
C587 C327 1.292 . S
C601 C363 1.291 . S
C607 C75 1.287 . S
C621 C111 1.292 . S
C627 C399 1.287 . S
C641 C147 1.287 . S
C647 C219 1.282 . S
C661 C183 1.287 . S
C667 C255 1.282 . S
C681 C374 1.488 . S
C687 C14 1.463 . S
C701 C410 1.474 . S
C707 C50 1.494 . S
C721 C230 1.471 1_554 S
C727 C86 1.494 . S
C741 C122 1.494 . S
C747 C266 1.474 . S
C761 C158 1.479 . S
C767 C302 1.492 . S
C781 C338 1.473 . S
C787 C194 1.494 . S
C801 C4 1.314 . S
C807 C256 1.294 . S
C821 C292 1.314 . S
C827 C40 1.294 . S
C841 C328 1.313 . S
C847 C76 1.301 . S
C861 C112 1.313 . S
C867 C364 1.295 . S
C881 C148 1.303 . S
C887 C400 1.311 . S
C901 C184 1.312 . S
C907 C220 1.302 . S
