# Generated by pormake.
# Topology uoy, (4)-cn, num edge types: 1
# Building blocks:
#     Node 0, Type 0, BuildingBlock: NAHDIM_clean_sbu_0, # of connection points: 4
#     Node 1, Type 0, BuildingBlock: NAHDIM_clean_sbu_0, # of connection points: 4
#     Node 2, Type 0, BuildingBlock: NAHDIM_clean_sbu_0, # of connection points: 4
#     Node 3, Type 0, BuildingBlock: NAHDIM_clean_sbu_0, # of connection points: 4
#     Node 4, Type 0, BuildingBlock: NAHDIM_clean_sbu_0, # of connection points: 4
#     Node 5, Type 0, BuildingBlock: NAHDIM_clean_sbu_0, # of connection points: 4
#     Node 6, Type 0, BuildingBlock: NAHDIM_clean_sbu_0, # of connection points: 4
#     Node 7, Type 0, BuildingBlock: NAHDIM_clean_sbu_0, # of connection points: 4
#     Node 8, Type 0, BuildingBlock: NAHDIM_clean_sbu_0, # of connection points: 4
#     Node 9, Type 0, BuildingBlock: NAHDIM_clean_sbu_0, # of connection points: 4
#     Node 10, Type 0, BuildingBlock: NAHDIM_clean_sbu_0, # of connection points: 4
#     Node 11, Type 0, BuildingBlock: NAHDIM_clean_sbu_0, # of connection points: 4
#     Node 12, Type 0, BuildingBlock: NAHDIM_clean_sbu_0, # of connection points: 4
#     Node 13, Type 0, BuildingBlock: NAHDIM_clean_sbu_0, # of connection points: 4
#     Node 14, Type 0, BuildingBlock: NAHDIM_clean_sbu_0, # of connection points: 4
#     Node 15, Type 0, BuildingBlock: NAHDIM_clean_sbu_0, # of connection points: 4
#     Edge 16, Type (0, 0), BuildingBlock: XIVTED_clean_linker_0, # of connection points: 2
#     Edge 17, Type (0, 0), BuildingBlock: XIVTED_clean_linker_0, # of connection points: 2
#     Edge 18, Type (0, 0), BuildingBlock: XIVTED_clean_linker_0, # of connection points: 2
#     Edge 19, Type (0, 0), BuildingBlock: XIVTED_clean_linker_0, # of connection points: 2
#     Edge 20, Type (0, 0), BuildingBlock: XIVTED_clean_linker_0, # of connection points: 2
#     Edge 21, Type (0, 0), BuildingBlock: XIVTED_clean_linker_0, # of connection points: 2
#     Edge 22, Type (0, 0), BuildingBlock: XIVTED_clean_linker_0, # of connection points: 2
#     Edge 23, Type (0, 0), BuildingBlock: XIVTED_clean_linker_0, # of connection points: 2
#     Edge 24, Type (0, 0), BuildingBlock: XIVTED_clean_linker_0, # of connection points: 2
#     Edge 25, Type (0, 0), BuildingBlock: XIVTED_clean_linker_0, # of connection points: 2
#     Edge 26, Type (0, 0), BuildingBlock: XIVTED_clean_linker_0, # of connection points: 2
#     Edge 27, Type (0, 0), BuildingBlock: XIVTED_clean_linker_0, # of connection points: 2
#     Edge 28, Type (0, 0), BuildingBlock: XIVTED_clean_linker_0, # of connection points: 2
#     Edge 29, Type (0, 0), BuildingBlock: XIVTED_clean_linker_0, # of connection points: 2
#     Edge 30, Type (0, 0), BuildingBlock: XIVTED_clean_linker_0, # of connection points: 2
#     Edge 31, Type (0, 0), BuildingBlock: XIVTED_clean_linker_0, # of connection points: 2
#     Edge 32, Type (0, 0), BuildingBlock: XIVTED_clean_linker_0, # of connection points: 2
#     Edge 33, Type (0, 0), BuildingBlock: XIVTED_clean_linker_0, # of connection points: 2
#     Edge 34, Type (0, 0), BuildingBlock: XIVTED_clean_linker_0, # of connection points: 2
#     Edge 35, Type (0, 0), BuildingBlock: XIVTED_clean_linker_0, # of connection points: 2
#     Edge 36, Type (0, 0), BuildingBlock: XIVTED_clean_linker_0, # of connection points: 2
#     Edge 37, Type (0, 0), BuildingBlock: XIVTED_clean_linker_0, # of connection points: 2
#     Edge 38, Type (0, 0), BuildingBlock: XIVTED_clean_linker_0, # of connection points: 2
#     Edge 39, Type (0, 0), BuildingBlock: XIVTED_clean_linker_0, # of connection points: 2
#     Edge 40, Type (0, 0), BuildingBlock: XIVTED_clean_linker_0, # of connection points: 2
#     Edge 41, Type (0, 0), BuildingBlock: XIVTED_clean_linker_0, # of connection points: 2
#     Edge 42, Type (0, 0), BuildingBlock: XIVTED_clean_linker_0, # of connection points: 2
#     Edge 43, Type (0, 0), BuildingBlock: XIVTED_clean_linker_0, # of connection points: 2
#     Edge 44, Type (0, 0), BuildingBlock: XIVTED_clean_linker_0, # of connection points: 2
#     Edge 45, Type (0, 0), BuildingBlock: XIVTED_clean_linker_0, # of connection points: 2
#     Edge 46, Type (0, 0), BuildingBlock: XIVTED_clean_linker_0, # of connection points: 2
#     Edge 47, Type (0, 0), BuildingBlock: XIVTED_clean_linker_0, # of connection points: 2
# Relax obj value: 0.107
# Max RMSD: 0.148
# Mean RMSD: 0.148
data_MOF--net-uoy--node1-NAHDIM_clean_sbu_0--edge1-XIVTED_clean_linker_0
_symmetry_space_group_name_H-M    P1
_symmetry_Int_Tables_number       1
_symmetry_cell_setting            triclinic
loop_
_symmetry_equiv_pos_as_xyz
'x, y, z'
_cell_length_a     28.427947
_cell_length_b     28.476137
_cell_length_c     102.79193
_cell_angle_alpha  89.866911
_cell_angle_beta   89.980795
_cell_angle_gamma 89.733656
loop_
_atom_site_label
_atom_site_type_symbol
_atom_site_fract_x
_atom_site_fract_y
_atom_site_fract_z
_atom_type_partial_charge
C0 C 0.16486 0.07903 0.17459 0.0
O1 O 0.1655 0.12516 0.17417 0.0
O2 O 0.25622 0.14093 0.19029 0.0
Zn3 Zn 0.26033 0.09833 0.1749 0.0
O4 O 0.2596 0.13684 0.15859 0.0
C5 C 0.34007 0.05317 0.18704 0.0
O6 O 0.31724 0.06366 0.19777 0.0
O7 O 0.20371 0.05682 0.17495 0.0
C8 C 0.2854 0.12673 0.1489 0.0
O9 O 0.31362 0.09014 0.14953 0.0
C10 C 0.28089 0.17789 0.19094 0.0
O11 O 0.3079 0.18927 0.18106 0.0
O12 O 0.32136 0.06259 0.1761 0.0
C13 C 0.90211 0.63908 0.42648 0.0
O14 O 0.85595 0.6398 0.42582 0.0
O15 O 0.84172 0.72766 0.44484 0.0
Zn16 Zn 0.88337 0.73461 0.42923 0.0
O17 O 0.84548 0.73942 0.41286 0.0
C18 C 0.90039 0.83173 0.43212 0.0
O19 O 0.8542 0.83195 0.43171 0.0
O20 O 0.92392 0.67749 0.42799 0.0
C21 C 0.86165 0.76122 0.40305 0.0
O22 O 0.90306 0.78129 0.40381 0.0
C23 C 0.79909 0.7411 0.44521 0.0
O24 O 0.77981 0.75978 0.43479 0.0
O25 O 0.92218 0.79278 0.43132 0.0
C26 C 0.35099 0.40817 0.67467 0.0
O27 O 0.34852 0.3621 0.67479 0.0
O28 O 0.2703 0.35533 0.69735 0.0
Zn29 Zn 0.25819 0.39267 0.68119 0.0
O30 O 0.24821 0.35096 0.66587 0.0
C31 C 0.16197 0.40641 0.68448 0.0
O32 O 0.16512 0.36041 0.68389 0.0
O33 O 0.3144 0.43198 0.67738 0.0
C34 C 0.23154 0.36933 0.65558 0.0
O35 O 0.22126 0.41436 0.65548 0.0
C36 C 0.26336 0.31143 0.69826 0.0
O37 O 0.24856 0.28808 0.68805 0.0
O38 O 0.19936 0.43058 0.68374 0.0
C39 C 0.58351 0.83322 0.91585 0.0
O40 O 0.62907 0.83206 0.9137 0.0
O41 O 0.64234 0.73686 0.93554 0.0
Zn42 Zn 0.60217 0.73675 0.9194 0.0
O43 O 0.64197 0.73458 0.90334 0.0
C44 C 0.58545 0.6398 0.92027 0.0
O45 O 0.63165 0.64078 0.92045 0.0
O46 O 0.5624 0.79517 0.91856 0.0
C47 C 0.68617 0.72798 0.90335 0.0
O48 O 0.70831 0.72203 0.91445 0.0
C49 C 0.63785 0.7668 0.94462 0.0
O50 O 0.60655 0.8006 0.94346 0.0
O51 O 0.56284 0.6784 0.9198 0.0
C52 C 0.1354 0.41383 0.05439 0.0
O53 O 0.13619 0.36769 0.05418 0.0
O54 O 0.23141 0.36294 0.03506 0.0
Zn55 Zn 0.23286 0.39779 0.05198 0.0
O56 O 0.23703 0.35317 0.06701 0.0
C57 C 0.31572 0.44662 0.06151 0.0
O58 O 0.30261 0.43039 0.07292 0.0
O59 O 0.17396 0.43602 0.05361 0.0
C60 C 0.27207 0.32589 0.06856 0.0
O61 O 0.30627 0.32622 0.05995 0.0
C62 C 0.22703 0.31885 0.03363 0.0
O63 O 0.22121 0.29186 0.04388 0.0
O64 O 0.29038 0.43861 0.05159 0.0
C65 C 0.57895 0.63454 0.30758 0.0
O66 O 0.62489 0.63533 0.30617 0.0
O67 O 0.62437 0.72471 0.2867 0.0
Zn68 Zn 0.59638 0.72973 0.30457 0.0
O69 O 0.6453 0.72923 0.31856 0.0
C70 C 0.56969 0.82477 0.29901 0.0
O71 O 0.60343 0.8203 0.29037 0.0
O72 O 0.55627 0.67309 0.30731 0.0
C73 C 0.67124 0.76408 0.32123 0.0
O74 O 0.66823 0.80242 0.31414 0.0
C75 C 0.66793 0.72432 0.28394 0.0
O76 O 0.69917 0.72697 0.29331 0.0
O77 O 0.55908 0.78979 0.30613 0.0
C78 C 0.3371 0.08599 0.56111 0.0
O79 O 0.33602 0.132 0.56206 0.0
O80 O 0.24725 0.1449 0.54108 0.0
Zn81 Zn 0.24205 0.10531 0.5572 0.0
O82 O 0.23981 0.14646 0.57279 0.0
C83 C 0.15277 0.07123 0.54768 0.0
O84 O 0.16368 0.0959 0.53731 0.0
O85 O 0.29898 0.06422 0.55895 0.0
C86 C 0.21505 0.18358 0.57334 0.0
O87 O 0.19013 0.19654 0.56318 0.0
C88 C 0.27286 0.13268 0.53152 0.0
O89 O 0.29777 0.09382 0.53232 0.0
O90 O 0.18185 0.06855 0.55705 0.0
C91 C 0.89899 0.84392 0.79641 0.0
O92 O 0.85279 0.84296 0.79664 0.0
O93 O 0.8424 0.75594 0.77667 0.0
Zn94 Zn 0.88181 0.74872 0.79271 0.0
O95 O 0.84225 0.7433 0.80871 0.0
C96 C 0.89941 0.65148 0.79168 0.0
O97 O 0.85329 0.652 0.79251 0.0
O98 O 0.92151 0.80585 0.79465 0.0
C99 C 0.86423 0.73619 0.81929 0.0
O100 O 0.91033 0.73266 0.81905 0.0
C101 C 0.79972 0.74327 0.77591 0.0
O102 O 0.77906 0.72484 0.78614 0.0
O103 O 0.92127 0.69029 0.79135 0.0
C104 C 0.66219 0.56378 0.66362 0.0
O105 O 0.664 0.60973 0.66254 0.0
O106 O 0.74108 0.62001 0.6851 0.0
Zn107 Zn 0.75586 0.58142 0.66927 0.0
O108 O 0.76738 0.61982 0.65324 0.0
C109 C 0.84647 0.56182 0.67939 0.0
O110 O 0.84085 0.60496 0.68362 0.0
O111 O 0.6997 0.54124 0.66621 0.0
C112 C 0.79423 0.65526 0.65262 0.0
O113 O 0.81589 0.66994 0.66312 0.0
C114 C 0.7298 0.66308 0.68604 0.0
O115 O 0.72715 0.68955 0.67559 0.0
O116 O 0.81353 0.54271 0.67296 0.0
C117 C 0.40978 0.13976 0.92065 0.0
O118 O 0.36375 0.1416 0.91955 0.0
O119 O 0.35708 0.24015 0.94027 0.0
Zn120 Zn 0.39449 0.23709 0.92373 0.0
O121 O 0.3508 0.23951 0.90843 0.0
C122 C 0.41299 0.33335 0.92338 0.0
O123 O 0.36688 0.33278 0.92427 0.0
O124 O 0.43226 0.1775 0.92269 0.0
C125 C 0.30666 0.24543 0.90954 0.0
O126 O 0.28795 0.24991 0.92115 0.0
C127 C 0.35666 0.21026 0.94946 0.0
O128 O 0.38305 0.1724 0.94867 0.0
O129 O 0.43517 0.29451 0.92297 0.0
C130 C 0.85371 0.91491 0.17625 0.0
O131 O 0.85242 0.8688 0.17593 0.0
O132 O 0.76043 0.85489 0.19232 0.0
Zn133 Zn 0.75674 0.89898 0.17713 0.0
O134 O 0.75316 0.86242 0.16049 0.0
C135 C 0.67568 0.94366 0.18926 0.0
O136 O 0.69301 0.92573 0.20004 0.0
O137 O 0.81524 0.93772 0.17681 0.0
C138 C 0.71417 0.85647 0.15469 0.0
O139 O 0.67546 0.87363 0.15983 0.0
C140 C 0.73145 0.82142 0.19361 0.0
O141 O 0.69954 0.81468 0.18457 0.0
O142 O 0.69831 0.93884 0.17868 0.0
C143 C 0.07258 0.33075 0.42593 0.0
O144 O 0.1188 0.32987 0.4257 0.0
O145 O 0.13075 0.23943 0.44401 0.0
Zn146 Zn 0.08998 0.23453 0.42821 0.0
O147 O 0.1292 0.22963 0.41217 0.0
C148 C 0.07243 0.13779 0.43041 0.0
O149 O 0.1186 0.1377 0.42988 0.0
O150 O 0.05041 0.29232 0.42695 0.0
C151 C 0.11091 0.21587 0.40159 0.0
O152 O 0.06608 0.20485 0.40135 0.0
C153 C 0.1742 0.22884 0.44416 0.0
O154 O 0.19474 0.21466 0.4334 0.0
O155 O 0.05055 0.17675 0.42986 0.0
C156 C 0.64755 0.91995 0.55799 0.0
O157 O 0.6488 0.87383 0.55778 0.0
O158 O 0.73068 0.86775 0.53607 0.0
Zn159 Zn 0.74194 0.90263 0.55271 0.0
O160 O 0.75129 0.85983 0.56795 0.0
C161 C 0.82523 0.95118 0.56046 0.0
O162 O 0.81018 0.93938 0.5721 0.0
O163 O 0.68539 0.94254 0.55612 0.0
C164 C 0.78204 0.8274 0.56837 0.0
O165 O 0.80809 0.81861 0.55809 0.0
C166 C 0.721 0.82453 0.5347 0.0
O167 O 0.71787 0.79713 0.54495 0.0
O168 O 0.80046 0.94101 0.55058 0.0
C169 C 0.06612 0.15081 0.80499 0.0
O170 O 0.11229 0.15121 0.80558 0.0
O171 O 0.12655 0.23782 0.78725 0.0
Zn172 Zn 0.08495 0.24618 0.80277 0.0
O173 O 0.1237 0.25027 0.81888 0.0
C174 C 0.06928 0.34351 0.79945 0.0
O175 O 0.11547 0.34273 0.79984 0.0
O176 O 0.04412 0.18955 0.80395 0.0
C177 C 0.10406 0.25462 0.8299 0.0
O178 O 0.05795 0.25705 0.83056 0.0
C179 C 0.17037 0.24628 0.78717 0.0
O180 O 0.19075 0.26198 0.79776 0.0
O181 O 0.04698 0.30515 0.80059 0.0
C182 C 0.82685 0.58529 0.05511 0.0
O183 O 0.827 0.63136 0.05432 0.0
O184 O 0.73625 0.63841 0.03581 0.0
Zn185 Zn 0.73163 0.60638 0.0532 0.0
O186 O 0.73385 0.65289 0.06777 0.0
C187 C 0.63702 0.57997 0.04668 0.0
O188 O 0.64378 0.61063 0.03731 0.0
O189 O 0.78768 0.564 0.05494 0.0
C190 C 0.69713 0.67406 0.07172 0.0
O191 O 0.65689 0.66673 0.0658 0.0
C192 C 0.73426 0.68249 0.03395 0.0
O193 O 0.72977 0.71082 0.04393 0.0
O194 O 0.67042 0.57088 0.05453 0.0
C195 C 0.40741 0.32876 0.31037 0.0
O196 O 0.36121 0.3279 0.31075 0.0
O197 O 0.35419 0.24062 0.28912 0.0
Zn198 Zn 0.38979 0.23371 0.30587 0.0
O199 O 0.34502 0.23023 0.3208 0.0
C200 C 0.4262 0.14268 0.31356 0.0
O201 O 0.39997 0.1498 0.32389 0.0
O202 O 0.42974 0.29064 0.30847 0.0
C203 C 0.30449 0.21183 0.32024 0.0
O204 O 0.28973 0.1938 0.30923 0.0
C205 C 0.37169 0.26385 0.27974 0.0
O206 O 0.41273 0.2841 0.28126 0.0
O207 O 0.42853 0.17438 0.30485 0.0
H208 H 0.33883 0.25934 0.07443 0.0
H209 H 0.22556 0.19967 0.14369 0.0
H210 H 0.21091 0.32252 0.089 0.0
H211 H 0.34036 0.12011 0.12706 0.0
H212 H 0.2223 0.24742 0.12402 0.0
H213 H 0.34244 0.21 0.09394 0.0
C214 C 0.31149 0.2628 0.08171 0.0
C215 C 0.27454 0.29511 0.0801 0.0
C216 C 0.24818 0.21948 0.12465 0.0
C217 C 0.27855 0.23903 0.1024 0.0
C218 C 0.25013 0.19224 0.1359 0.0
C219 C 0.28329 0.15583 0.13701 0.0
C220 C 0.27975 0.21046 0.11444 0.0
C221 C 0.31418 0.14779 0.12659 0.0
C222 C 0.31355 0.2346 0.09283 0.0
C223 C 0.24004 0.29809 0.08983 0.0
N224 N 0.31173 0.17499 0.11573 0.0
N225 N 0.24298 0.27051 0.10057 0.0
H226 H 0.8778 0.81585 0.38156 0.0
H227 H 0.67528 0.69547 0.33976 0.0
H228 H 0.78454 0.70949 0.39661 0.0
H229 H 0.73684 0.82849 0.32908 0.0
H230 H 0.72274 0.6947 0.35948 0.0
H231 H 0.83319 0.8162 0.36117 0.0
C232 C 0.84798 0.79259 0.38057 0.0
C233 C 0.83479 0.76261 0.39079 0.0
C234 C 0.72591 0.72405 0.35282 0.0
C235 C 0.78411 0.76259 0.36753 0.0
C236 C 0.69899 0.72444 0.34152 0.0
C237 C 0.70196 0.76225 0.33278 0.0
C238 C 0.75636 0.76152 0.35538 0.0
C239 C 0.73332 0.79877 0.33559 0.0
C240 C 0.82254 0.7929 0.36896 0.0
C241 C 0.79583 0.73328 0.38901 0.0
N242 N 0.7594 0.79751 0.34667 0.0
N243 N 0.77199 0.73387 0.37758 0.0
H244 H 0.17306 0.26915 0.57771 0.0
H245 H 0.25499 0.27713 0.65213 0.0
H246 H 0.2552 0.16069 0.59657 0.0
H247 H 0.19432 0.39648 0.63216 0.0
H248 H 0.24793 0.23131 0.63225 0.0
H249 H 0.17367 0.31409 0.59802 0.0
C250 C 0.19112 0.25477 0.58611 0.0
C251 C 0.21427 0.21123 0.58544 0.0
C252 C 0.23609 0.26751 0.63221 0.0
C253 C 0.21492 0.26216 0.60862 0.0
C254 C 0.24002 0.29367 0.64357 0.0
C255 C 0.2255 0.34078 0.64377 0.0
C256 C 0.21738 0.28852 0.62096 0.0
C257 C 0.20621 0.36032 0.6324 0.0
C258 C 0.19148 0.28042 0.59768 0.0
C259 C 0.23707 0.1942 0.59662 0.0
N260 N 0.20279 0.3341 0.62142 0.0
N261 N 0.2368 0.2197 0.60773 0.0
H262 H 0.90064 0.72138 0.8436 0.0
H263 H 0.6504 0.73878 0.87887 0.0
H264 H 0.76934 0.7435 0.82332 0.0
H265 H 0.78096 0.71613 0.89947 0.0
H266 H 0.69357 0.73905 0.85841 0.0
H267 H 0.85755 0.71772 0.86413 0.0
C268 C 0.86274 0.72539 0.84346 0.0
C269 C 0.83854 0.73288 0.83173 0.0
C270 C 0.71283 0.73395 0.86739 0.0
C271 C 0.78907 0.72877 0.85519 0.0
C272 C 0.68819 0.7338 0.8791 0.0
C273 C 0.71214 0.72752 0.89092 0.0
C274 C 0.76184 0.72782 0.86747 0.0
C275 C 0.76109 0.72117 0.89059 0.0
C276 C 0.83817 0.72329 0.85519 0.0
C277 C 0.78944 0.73775 0.83213 0.0
N278 N 0.78437 0.72156 0.87904 0.0
N279 N 0.76635 0.73569 0.84368 0.0
H280 H 0.81455 0.73748 0.57153 0.0
H281 H 0.81637 0.74756 0.64893 0.0
H282 H 0.76659 0.85883 0.59292 0.0
H283 H 0.78347 0.62032 0.62817 0.0
H284 H 0.81884 0.78994 0.62812 0.0
H285 H 0.8234 0.69468 0.59221 0.0
C286 C 0.80626 0.75512 0.58058 0.0
C287 C 0.78939 0.80144 0.58058 0.0
C288 C 0.81145 0.75266 0.62817 0.0
C289 C 0.8003 0.75348 0.60405 0.0
C290 C 0.81022 0.72851 0.63999 0.0
C291 C 0.79929 0.68058 0.64022 0.0
C292 C 0.80271 0.72838 0.61656 0.0
C293 C 0.7915 0.65744 0.62838 0.0
C294 C 0.81119 0.73077 0.59231 0.0
C295 C 0.77913 0.82289 0.59253 0.0
N296 N 0.79346 0.68157 0.61699 0.0
N297 N 0.78493 0.79877 0.60381 0.0
H298 H 0.33464 0.2394 0.88417 0.0
H299 H 0.0743 0.26197 0.85519 0.0
H300 H 0.21097 0.25666 0.90814 0.0
H301 H 0.19969 0.24878 0.83172 0.0
H302 H 0.12331 0.26083 0.87475 0.0
H303 H 0.28519 0.24317 0.86486 0.0
C304 C 0.29704 0.24398 0.88538 0.0
C305 C 0.27689 0.24766 0.8978 0.0
C306 C 0.14004 0.25829 0.86531 0.0
C307 C 0.21998 0.25204 0.87568 0.0
C308 C 0.11211 0.25896 0.85415 0.0
C309 C 0.13294 0.25536 0.84181 0.0
C310 C 0.18909 0.25392 0.86411 0.0
C311 C 0.18208 0.25156 0.84103 0.0
C312 C 0.2688 0.24618 0.87433 0.0
C313 C 0.22798 0.25362 0.89875 0.0
N314 N 0.20844 0.25085 0.85202 0.0
N315 N 0.20114 0.25558 0.88783 0.0
H316 H 0.62486 0.72093 0.08371 0.0
H317 H 0.78736 0.81649 0.14135 0.0
H318 H 0.77458 0.69612 0.08618 0.0
H319 H 0.63711 0.8387 0.13957 0.0
H320 H 0.78365 0.77471 0.12069 0.0
H321 H 0.62903 0.76728 0.10365 0.0
C322 C 0.65864 0.72542 0.0884 0.0
C323 C 0.69939 0.70444 0.08331 0.0
C324 C 0.75149 0.78876 0.12481 0.0
C325 C 0.70438 0.75723 0.10614 0.0
C326 C 0.75357 0.81258 0.13662 0.0
C327 C 0.71245 0.83101 0.14221 0.0
C328 C 0.70797 0.78329 0.11854 0.0
C329 C 0.66968 0.82497 0.13563 0.0
C330 C 0.66098 0.75181 0.0998 0.0
C331 C 0.74223 0.7115 0.08979 0.0
N332 N 0.66855 0.80157 0.12414 0.0
N333 N 0.74356 0.73716 0.10089 0.0
H334 H 0.20352 0.23847 0.39883 0.0
H335 H 0.21432 0.17868 0.32284 0.0
H336 H 0.08402 0.18723 0.37725 0.0
H337 H 0.32762 0.24176 0.34455 0.0
H338 H 0.16668 0.17761 0.34272 0.0
H339 H 0.25043 0.23569 0.37905 0.0
C340 C 0.18713 0.22655 0.38992 0.0
C341 C 0.13971 0.21323 0.38968 0.0
C342 C 0.20199 0.19165 0.34309 0.0
C343 C 0.19333 0.20999 0.36694 0.0
C344 C 0.22917 0.19225 0.33177 0.0
C345 C 0.27495 0.21044 0.33203 0.0
C346 C 0.22088 0.20923 0.35473 0.0
C347 C 0.29247 0.22752 0.34386 0.0
C348 C 0.21395 0.22501 0.37861 0.0
C349 C 0.12043 0.19796 0.37786 0.0
N350 N 0.26542 0.22648 0.35471 0.0
N351 N 0.14733 0.19681 0.36693 0.0
H352 H 0.33946 0.25069 0.19712 0.0
H353 H 0.28861 0.22234 0.27293 0.0
H354 H 0.23062 0.16261 0.21321 0.0
H355 H 0.4029 0.30402 0.25714 0.0
H356 H 0.2575 0.21255 0.25099 0.0
H357 H 0.35342 0.28294 0.21878 0.0
C358 C 0.31801 0.23864 0.20516 0.0
C359 C 0.28446 0.20325 0.2034 0.0
C360 C 0.28909 0.23308 0.25234 0.0
C361 C 0.30045 0.23972 0.2282 0.0
C362 C 0.30688 0.23869 0.26487 0.0
C363 C 0.34893 0.26327 0.26684 0.0
C364 C 0.31365 0.25196 0.2417 0.0
C365 C 0.37076 0.28419 0.25605 0.0
C366 C 0.32606 0.25701 0.21753 0.0
C367 C 0.25739 0.1893 0.21415 0.0
N368 N 0.3532 0.27753 0.24391 0.0
N369 N 0.26641 0.20713 0.22612 0.0
H370 H 0.81883 0.68972 0.46699 0.0
H371 H 0.69489 0.8704 0.51262 0.0
H372 H 0.72389 0.79576 0.45218 0.0
H373 H 0.7405 0.73486 0.52673 0.0
H374 H 0.70117 0.84159 0.49034 0.0
H375 H 0.78701 0.70222 0.4888 0.0
C376 C 0.79074 0.71511 0.46831 0.0
C377 C 0.77444 0.7423 0.45782 0.0
C378 C 0.709 0.81782 0.4983 0.0
C379 C 0.73842 0.75718 0.48273 0.0
C380 C 0.70565 0.83432 0.51101 0.0
C381 C 0.71781 0.80508 0.52148 0.0
C382 C 0.72573 0.77212 0.49605 0.0
C383 C 0.73102 0.75853 0.5189 0.0
C384 C 0.77247 0.72209 0.48074 0.0
C385 C 0.73768 0.77431 0.46002 0.0
N386 N 0.73559 0.74371 0.50639 0.0
N387 N 0.72154 0.78158 0.4723 0.0
H388 H 0.22456 0.22767 0.70564 0.0
H389 H 0.25486 0.28651 0.78101 0.0
H390 H 0.30439 0.34466 0.72038 0.0
H391 H 0.14532 0.19895 0.76525 0.0
H392 H 0.29068 0.29083 0.75937 0.0
H393 H 0.21361 0.19977 0.72796 0.0
C394 C 0.24062 0.24694 0.71354 0.0
C395 C 0.2645 0.28911 0.71121 0.0
C396 C 0.25923 0.27007 0.76072 0.0
C397 C 0.25203 0.25752 0.73666 0.0
C398 C 0.23884 0.26752 0.77306 0.0
C399 C 0.19655 0.24317 0.77483 0.0
C400 C 0.23726 0.24783 0.75018 0.0
C401 C 0.17743 0.21892 0.76423 0.0
C402 C 0.23422 0.23109 0.72627 0.0
C403 C 0.28489 0.31248 0.72179 0.0
N404 N 0.19766 0.22228 0.75231 0.0
N405 N 0.27766 0.29671 0.73409 0.0
H406 H 0.71085 0.77148 0.02589 0.0
H407 H 0.69891 0.69599 0.95114 0.0
H408 H 0.75174 0.63506 0.0114 0.0
H409 H 0.63534 0.82261 0.96627 0.0
H410 H 0.73292 0.68044 0.97251 0.0
H411 H 0.69738 0.79757 0.00349 0.0
C412 C 0.71759 0.74722 0.018 0.0
C413 C 0.73175 0.70082 0.02052 0.0
C414 C 0.7119 0.71187 0.97113 0.0
C415 C 0.71638 0.73037 -0.00507 0.0
C416 C 0.69252 0.72082 0.95891 0.0
C417 C 0.66357 0.76027 0.95697 0.0
C418 C 0.70228 0.74254 0.98148 0.0
C419 C 0.65692 0.79144 0.96738 0.0
C420 C 0.70978 0.7621 0.00523 0.0
C421 C 0.74018 0.67095 0.00992 0.0
N422 N 0.67573 0.78165 0.97923 0.0
N423 N 0.73199 0.68613 -0.0024 0.0
H424 H 0.22033 0.3629 0.01018 0.0
H425 H 0.35089 0.15803 0.97191 0.0
H426 H 0.25135 0.2282 0.02758 0.0
H427 H 0.2988 0.28519 0.9539 0.0
H428 H 0.30983 0.17971 -0.00801 0.0
H429 H 0.24338 0.33186 0.98906 0.0
C430 C 0.23155 0.32657 0.00952 0.0
C431 C 0.23447 0.29822 0.02065 0.0
C432 C 0.30702 0.20255 0.98358 0.0
C433 C 0.26157 0.26251 -0.00349 0.0
C434 C 0.33052 0.19025 0.97214 0.0
C435 C 0.32884 0.22017 0.96128 0.0
C436 C 0.28196 0.24514 0.98416 0.0
C437 C 0.30161 0.2613 0.96208 0.0
C438 C 0.24468 0.30881 -0.00255 0.0
C439 C 0.24876 0.25128 0.01922 0.0
N440 N 0.27967 0.27275 0.97335 0.0
N441 N 0.2625 0.23503 0.00738 0.0
H442 H 0.61492 0.70406 0.2626 0.0
H443 H 0.79405 0.82394 0.21381 0.0
H444 H 0.7539 0.74857 0.27394 0.0
H445 H 0.66411 0.75948 0.20169 0.0
H446 H 0.78405 0.78939 0.23539 0.0
H447 H 0.63588 0.7167 0.23988 0.0
C448 C 0.65006 0.71607 0.26029 0.0
C449 C 0.68252 0.72595 0.27018 0.0
C450 C 0.75805 0.78225 0.22796 0.0
C451 C 0.70664 0.74092 0.24417 0.0
C452 C 0.7637 0.80202 0.21564 0.0
C453 C 0.72945 0.79518 0.206 0.0
C454 C 0.71763 0.75586 0.2307 0.0
C455 C 0.69114 0.76608 0.20887 0.0
C456 C 0.66206 0.72317 0.2473 0.0
C457 C 0.72771 0.74084 0.26662 0.0
N458 N 0.68592 0.74804 0.22102 0.0
N459 N 0.73823 0.74857 0.2539 0.0
H460 H 0.25896 0.18676 0.44954 0.0
H461 H 0.22002 0.2108 0.52608 0.0
H462 H 0.14636 0.26596 0.46737 0.0
H463 H 0.3176 0.11295 0.50856 0.0
H464 H 0.20551 0.24522 0.50471 0.0
H465 H 0.29312 0.17346 0.47109 0.0
C466 C 0.24184 0.20199 0.45795 0.0
C467 C 0.19929 0.22673 0.4567 0.0
C468 C 0.23052 0.21658 0.50556 0.0
C469 C 0.23803 0.21161 0.48131 0.0
C470 C 0.23888 0.19692 0.51777 0.0
C471 C 0.26937 0.15831 0.51906 0.0
C472 C 0.25268 0.19742 0.49456 0.0
C473 C 0.29326 0.14222 0.50797 0.0
C474 C 0.26129 0.19429 0.47025 0.0
C475 C 0.17879 0.24595 0.46792 0.0
N476 N 0.28393 0.16146 0.49614 0.0
N477 N 0.19808 0.23756 0.47977 0.0
H478 H 0.69775 0.61942 0.70776 0.0
H479 H 0.82326 0.79406 0.75433 0.0
H480 H 0.75048 0.75233 0.69399 0.0
H481 H 0.72326 0.69217 0.76834 0.0
H482 H 0.79284 0.78355 0.73231 0.0
H483 H 0.70171 0.64841 0.73005 0.0
C484 C 0.70948 0.65504 0.70945 0.0
C485 C 0.72439 0.6834 0.6991 0.0
C486 C 0.77691 0.76419 0.74024 0.0
C487 C 0.72986 0.71649 0.72454 0.0
C488 C 0.79439 0.77 0.75279 0.0
C489 C 0.77627 0.74331 0.76312 0.0
C490 C 0.74175 0.73076 0.73797 0.0
C491 C 0.73852 0.71312 0.76063 0.0
C492 C 0.71156 0.67165 0.72216 0.0
C493 C 0.73885 0.72938 0.70175 0.0
N494 N 0.72313 0.70692 0.74825 0.0
N495 N 0.74223 0.74423 0.71428 0.0
H496 H 0.14996 0.98391 0.17509 0.0
H497 H 0.86927 0.00977 0.17632 0.0
H498 H 0.0765 0.11697 0.17443 0.0
H499 H 0.94192 0.87629 0.17553 0.0
H500 H 0.94512 0.04962 0.17586 0.0
H501 H 0.07417 0.94363 0.17545 0.0
C502 C 0.11792 0.00464 0.17502 0.0
C503 C 0.11956 0.05387 0.17474 0.0
C504 C 0.94448 0.01161 0.17578 0.0
C505 C 0.0328 0.00808 0.17516 0.0
C506 C 0.90117 0.98883 0.17605 0.0
C507 C 0.89925 0.93962 0.17596 0.0
C508 C 0.98621 0.985 0.17543 0.0
C509 C 0.94172 0.9143 0.1756 0.0
C510 C 0.07467 0.98164 0.17522 0.0
C511 C 0.07694 0.07896 0.17465 0.0
N512 N 0.98346 0.93728 0.17536 0.0
N513 N 0.03534 0.05579 0.17487 0.0
H514 H 0.97733 0.34502 0.42537 0.0
H515 H -0.00253 0.62505 0.42685 0.0
H516 H 0.10949 0.41919 0.42511 0.0
H517 H 0.86566 0.5508 0.42443 0.0
H518 H 0.03926 0.54998 0.42611 0.0
H519 H 0.93578 0.42021 0.4249 0.0
C520 C -0.00238 0.37712 0.42519 0.0
C521 C 0.04695 0.37585 0.42532 0.0
C522 C 0.0012 0.55013 0.42571 0.0
C523 C -0.00036 0.462 0.42481 0.0
C524 C 0.97732 0.59297 0.42614 0.0
C525 C 0.928 0.59416 0.42574 0.0
C526 C 0.97557 0.50819 0.42491 0.0
C527 C 0.90371 0.55154 0.42479 0.0
C528 C 0.97387 0.42004 0.42491 0.0
C529 C 0.07142 0.41852 0.42504 0.0
N530 N 0.92774 0.51027 0.42444 0.0
N531 N 0.0475 0.45988 0.42484 0.0
H532 H 0.36764 0.50238 0.672 0.0
H533 H 0.64547 0.46927 0.66504 0.0
H534 H 0.4365 0.36702 0.6704 0.0
H535 H 0.57481 0.60322 0.66136 0.0
H536 H 0.56899 0.43086 0.66636 0.0
H537 H 0.4431 0.53999 0.66763 0.0
C538 C 0.3986 0.48058 0.6707 0.0
C539 C 0.39587 0.43153 0.67165 0.0
C540 C 0.57022 0.46862 0.66516 0.0
C541 C 0.48223 0.47425 0.66666 0.0
C542 C 0.61388 0.49056 0.66441 0.0
C543 C 0.6165 0.53954 0.66319 0.0
C544 C 0.52895 0.49591 0.66479 0.0
C545 C 0.57444 0.56537 0.66235 0.0
C546 C 0.44164 0.50204 0.66817 0.0
C547 C 0.43702 0.40497 0.6698 0.0
N548 N 0.53238 0.54327 0.66328 0.0
N549 N 0.47857 0.4267 0.66748 0.0
H550 H 0.37155 0.05208 0.91886 0.0
H551 H 0.62016 0.92124 0.9131 0.0
H552 H 0.50489 0.12392 0.92015 0.0
H553 H 0.48883 0.84845 0.91883 0.0
H554 H 0.5779 -0.00404 0.91396 0.0
H555 H 0.41345 0.97726 0.91725 0.0
C556 C 0.40965 0.05215 0.91879 0.0
C557 C 0.43478 0.09433 0.91966 0.0
C558 C 0.55832 0.96365 0.91502 0.0
C559 C 0.48291 0.00879 0.91778 0.0
C560 C 0.5824 0.92093 0.9145 0.0
C561 C 0.55799 0.87851 0.91593 0.0
C562 C 0.50942 0.964 0.91693 0.0
C563 C 0.50907 0.88031 0.91772 0.0
C564 C 0.43353 0.00939 0.91789 0.0
C565 C 0.4841 0.09225 0.91954 0.0
N566 N 0.48638 0.92238 0.91816 0.0
N567 N 0.50656 0.05018 0.91859 0.0
H568 H 0.12114 0.50892 0.05506 0.0
H569 H 0.84019 0.48984 0.05618 0.0
H570 H 0.0467 0.37709 0.05561 0.0
H571 H 0.91576 0.62103 0.05558 0.0
H572 H 0.91533 0.44766 0.05666 0.0
H573 H 0.04596 0.55048 0.05591 0.0
C574 C 0.08899 0.4887 0.05539 0.0
C575 C 0.09021 0.43945 0.05522 0.0
C576 C 0.91543 0.48568 0.05645 0.0
C577 C 0.00394 0.48683 0.05619 0.0
C578 C 0.87255 0.50977 0.05619 0.0
C579 C 0.8717 0.55903 0.0558 0.0
C580 C 0.95771 0.51105 0.05632 0.0
C581 C 0.9147 0.58304 0.05584 0.0
C582 C 0.04604 0.51246 0.05588 0.0
C583 C 0.04742 0.41509 0.05569 0.0
N584 N 0.95591 0.55882 0.05606 0.0
N585 N 0.00601 0.43904 0.05612 0.0
H586 H 0.61755 0.54656 0.30808 0.0
H587 H 0.36969 0.41638 0.31369 0.0
H588 H 0.48434 0.61952 0.31054 0.0
H589 H 0.50239 0.34388 0.30909 0.0
H590 H 0.41149 0.491 0.31403 0.0
H591 H 0.5763 0.47195 0.30986 0.0
C592 C 0.5796 0.54692 0.30904 0.0
C593 C 0.55431 0.58935 0.3091 0.0
C594 C 0.43149 0.45877 0.313 0.0
C595 C 0.50686 0.50396 0.31114 0.0
C596 C 0.40765 0.41611 0.31281 0.0
C597 C 0.43259 0.37383 0.31129 0.0
C598 C 0.48063 0.45919 0.31165 0.0
C599 C 0.48175 0.37564 0.31024 0.0
C600 C 0.55607 0.50426 0.31005 0.0
C601 C 0.50522 0.58764 0.3104 0.0
N602 N 0.50414 0.41766 0.31039 0.0
N603 N 0.48307 0.54559 0.31133 0.0
H604 H 0.63234 0.01478 0.55975 0.0
H605 H 0.35225 0.99099 0.56002 0.0
H606 H 0.55987 0.88184 0.56011 0.0
H607 H 0.42495 0.12307 0.56382 0.0
H608 H 0.42803 0.95018 0.56034 0.0
H609 H 0.55662 0.05512 0.56156 0.0
C610 C 0.60053 -0.00593 0.56026 0.0
C611 C 0.60239 0.94489 0.55971 0.0
C612 C 0.42737 0.98808 0.56116 0.0
C613 C 0.51567 0.99078 0.56174 0.0
C614 C 0.38413 0.01139 0.56097 0.0
C615 C 0.38231 0.06051 0.56184 0.0
C616 C 0.46907 0.01411 0.56216 0.0
C617 C 0.4247 0.08516 0.56309 0.0
C618 C 0.55731 0.01711 0.56131 0.0
C619 C 0.56008 0.91982 0.56046 0.0
N620 N 0.46636 0.06171 0.56315 0.0
N621 N 0.51843 0.94306 0.56137 0.0
H622 H 0.97089 0.13702 0.80404 0.0
H623 H 0.9941 0.85794 0.79768 0.0
H624 H 0.10329 0.06219 0.80533 0.0
H625 H 0.86114 0.93165 0.79933 0.0
H626 H 0.03477 0.93253 0.80057 0.0
H627 H 0.92989 0.06204 0.80253 0.0
C628 C 0.99133 0.10482 0.80406 0.0
C629 C 0.04059 0.10584 0.80476 0.0
C630 C -0.00331 0.93237 0.80033 0.0
C631 C 0.99396 0.01999 0.80298 0.0
C632 C 0.97346 0.8898 0.79865 0.0
C633 C 0.92416 0.88861 0.79823 0.0
C634 C 0.97044 0.97405 0.80154 0.0
C635 C 0.8992 0.93094 0.79958 0.0
C636 C 0.96791 0.06202 0.8032 0.0
C637 C 0.06528 0.06306 0.80478 0.0
N638 N 0.92263 0.97197 0.80114 0.0
N639 N 0.0417 0.02187 0.80384 0.0
H640 H 0.62637 0.97659 0.16826 0.0
H641 H 0.3914 0.02967 0.20868 0.0
H642 H 0.61504 0.95561 0.20976 0.0
H643 H 0.40036 0.03658 0.16678 0.0
H644 H 0.47387 0.00508 0.20947 0.0
H645 H 0.54466 0.00291 0.16779 0.0
C646 C 0.60684 0.97788 0.1773 0.0
C647 C 0.62762 0.96376 0.18907 0.0
C648 C 0.45772 0.01184 0.2001 0.0
C649 C 0.53372 -0.00648 0.18857 0.0
C650 C 0.41059 0.02576 0.19964 0.0
C651 C 0.3889 0.03519 0.18765 0.0
C652 C 0.48341 0.00753 0.18849 0.0
C653 C 0.41556 0.02962 0.17625 0.0
C654 C 0.56005 0.99271 0.17701 0.0
C655 C 0.60047 0.96612 0.20047 0.0
N656 N 0.46142 0.01632 0.17696 0.0
N657 N 0.55487 0.98058 0.19993 0.0
H658 H -0.00414 0.84444 0.43254 0.0
H659 H 0.97707 0.12503 0.43162 0.0
H660 H 0.86426 0.92075 0.43321 0.0
H661 H 0.10874 0.04881 0.43145 0.0
H662 H 0.93511 0.0505 0.43282 0.0
H663 H 0.03795 0.91902 0.43281 0.0
C664 C 0.97581 0.87686 0.43279 0.0
C665 C 0.92646 0.87637 0.4328 0.0
C666 C 0.97319 0.05008 0.43255 0.0
C667 C 0.97439 0.96183 0.43308 0.0
C668 C -0.00283 0.09264 0.43186 0.0
C669 C 0.04648 0.09314 0.43139 0.0
C670 C -0.0013 0.00772 0.43275 0.0
C671 C 0.07069 0.05009 0.43176 0.0
C672 C -0.00014 0.91944 0.43293 0.0
C673 C 0.90231 0.91945 0.43315 0.0
N674 N 0.04655 0.00912 0.43238 0.0
N675 N 0.92652 0.96044 0.43323 0.0
H676 H 0.142 0.49985 0.68791 0.0
H677 H 0.86769 0.46977 0.67426 0.0
H678 H 0.07585 0.36514 0.68243 0.0
H679 H 0.92821 0.59783 0.68902 0.0
H680 H 0.94416 0.4311 0.67663 0.0
H681 H 0.06427 0.53706 0.6878 0.0
C682 C 0.11114 0.47809 0.68674 0.0
C683 C 0.11539 0.42936 0.68513 0.0
C684 C 0.94061 0.46758 0.67943 0.0
C685 C 0.02654 0.47166 0.68491 0.0
C686 C 0.897 0.48969 0.67805 0.0
C687 C 0.89164 0.53713 0.6814 0.0
C688 C 0.9792 0.49325 0.68406 0.0
C689 C 0.93077 0.5612 0.68631 0.0
C690 C 0.0668 0.49932 0.68671 0.0
C691 C 0.07423 0.40284 0.68369 0.0
N692 N 0.973 0.53909 0.6874 0.0
N693 N 0.03155 0.42437 0.68352 0.0
H694 H 0.37506 0.42165 0.9235 0.0
H695 H 0.62383 0.5516 0.92075 0.0
H696 H 0.50822 0.34829 0.92206 0.0
H697 H 0.49028 0.62444 0.92064 0.0
H698 H 0.58225 0.47686 0.92144 0.0
H699 H 0.4168 0.4962 0.92267 0.0
C700 C 0.41312 0.42118 0.92301 0.0
C701 C 0.43819 0.37861 0.92286 0.0
C702 C 0.56202 0.50917 0.92125 0.0
C703 C 0.48626 0.46403 0.92191 0.0
C704 C 0.58574 0.55191 0.92087 0.0
C705 C 0.56049 0.59439 0.92064 0.0
C706 C 0.51264 0.50882 0.92144 0.0
C707 C 0.51118 0.59257 0.9208 0.0
C708 C 0.43694 0.46383 0.92253 0.0
C709 C 0.48747 0.38025 0.92221 0.0
N710 N 0.48888 0.55048 0.9212 0.0
N711 N 0.5099 0.42228 0.92176 0.0
H712 H 0.56098 0.58601 0.03053 0.0
H713 H 0.38635 0.45485 0.0795 0.0
H714 H 0.60536 0.52812 0.06742 0.0
H715 H 0.35065 0.48987 0.03981 0.0
H716 H 0.46484 0.4874 0.076 0.0
H717 H 0.48208 0.55571 0.0344 0.0
C718 C 0.5542 0.56675 0.03943 0.0
C719 C 0.58987 0.55951 0.04865 0.0
C720 C 0.43975 0.48805 0.06808 0.0
C721 C 0.49938 0.52506 0.0532 0.0
C722 C 0.39485 0.46973 0.07009 0.0
C723 C 0.36191 0.46953 0.05992 0.0
C724 C 0.45168 0.50655 0.05584 0.0
C725 C 0.37496 0.48913 0.04791 0.0
C726 C 0.50909 0.54949 0.04163 0.0
C727 C 0.57898 0.53433 0.06001 0.0
N728 N 0.41881 0.50679 0.04621 0.0
N729 N 0.53462 0.51814 0.06199 0.0
H730 H 0.48365 0.11596 0.29345 0.0
H731 H 0.50633 0.8497 0.31792 0.0
H732 H 0.42149 0.06457 0.32905 0.0
H733 H 0.58156 0.90516 0.28482 0.0
H734 H 0.47222 0.92745 0.32165 0.0
H735 H 0.51812 0.03839 0.28978 0.0
C736 C 0.47743 0.08845 0.30053 0.0
C737 C 0.44959 0.09679 0.31157 0.0
C738 C 0.49616 0.92258 0.31356 0.0
C739 C 0.48867 0.00779 0.30738 0.0
C740 C 0.5155 0.87815 0.3114 0.0
C741 C 0.54689 0.87091 0.30105 0.0
C742 C 0.50814 0.96002 0.30529 0.0
C743 C 0.55759 0.90912 0.29293 0.0
C744 C 0.49708 0.04413 0.29842 0.0
C745 C 0.44273 0.05977 0.32041 0.0
N746 N 0.53826 0.952 0.29523 0.0
N747 N 0.46198 0.01686 0.31809 0.0
H748 H 0.89221 0.9656 0.5791 0.0
H749 H 0.08267 0.06817 0.52944 0.0
H750 H 0.86644 0.98216 0.53794 0.0
H751 H 0.11418 0.02931 0.56914 0.0
H752 H 0.00229 0.04014 0.5325 0.0
H753 H 0.97232 -0.00624 0.57586 0.0
C754 C 0.90326 0.97547 0.56939 0.0
C755 C 0.87258 0.97144 0.55877 0.0
C756 C 0.02687 0.03756 0.54052 0.0
C757 C 0.96439 0.00343 0.55499 0.0
C758 C 0.0728 0.05348 0.53877 0.0
C759 C 0.1052 0.05113 0.54905 0.0
C760 C 0.01317 0.01946 0.55265 0.0
C761 C 0.09042 0.03177 0.56093 0.0
C762 C 0.94912 0.99131 0.56754 0.0
C763 C 0.88893 0.98463 0.54641 0.0
N764 N 0.04542 0.01691 0.56242 0.0
N765 N 0.93375 1e-05 0.54485 0.0
H766 H -0.00512 0.63717 0.79116 0.0
H767 H 0.97405 0.35784 0.79814 0.0
H768 H 0.86285 0.56298 0.79264 0.0
H769 H 0.1064 0.43148 0.79676 0.0
H770 H 0.93277 0.43263 0.79548 0.0
H771 H 0.03655 0.56201 0.79245 0.0
C772 C 0.97465 0.60509 0.7917 0.0
C773 C 0.9253 0.60638 0.79184 0.0
C774 C 0.97085 0.43244 0.79573 0.0
C775 C 0.97273 0.52029 0.79336 0.0
C776 C -0.00555 0.38973 0.79726 0.0
C777 C 0.04376 0.38841 0.79771 0.0
C778 C -0.00328 0.47419 0.79465 0.0
C779 C 0.06835 0.43084 0.7965 0.0
C780 C -0.00154 0.56219 0.79245 0.0
C781 C 0.90092 0.5637 0.79254 0.0
N782 N 0.04457 0.472 0.79505 0.0
N783 N 0.92488 0.52244 0.79332 0.0
loop_
_geom_bond_atom_site_label_1
_geom_bond_atom_site_label_2
_geom_bond_distance
_geom_bond_site_symmetry_2
_ccdc_geom_bond_type
C0 O1 1.160 . S
C0 O7 1.185 . S
O1 C0 1.160 . S
O2 Zn3 1.899 . S
O2 C10 1.284 . S
Zn3 O2 1.899 . S
Zn3 O4 2.032 . S
Zn3 O7 2.086 . S
Zn3 O12 1.977 . S
O4 Zn3 2.032 . S
O4 C8 1.278 . S
C5 O6 1.203 . S
C5 O12 1.267 . S
O6 C5 1.203 . S
O7 C0 1.185 . S
O7 Zn3 2.086 . S
C8 O4 1.278 . S
C8 O9 1.211 . S
O9 C8 1.211 . S
C10 O2 1.284 . S
C10 O11 1.273 . S
O11 C10 1.273 . S
O12 Zn3 1.977 . S
O12 C5 1.267 . S
C13 O14 1.160 . S
C13 O20 1.185 . S
O14 C13 1.160 . S
O15 Zn16 1.899 . S
O15 C23 1.284 . S
Zn16 O15 1.899 . S
Zn16 O17 2.032 . S
Zn16 O20 2.086 . S
Zn16 O25 1.977 . S
O17 Zn16 2.032 . S
O17 C21 1.278 . S
C18 O19 1.203 . S
C18 O25 1.267 . S
O19 C18 1.203 . S
O20 C13 1.185 . S
O20 Zn16 2.086 . S
C21 O17 1.278 . S
C21 O22 1.211 . S
O22 C21 1.211 . S
C23 O15 1.284 . S
C23 O24 1.273 . S
O24 C23 1.273 . S
O25 Zn16 1.977 . S
O25 C18 1.267 . S
C26 O27 1.160 . S
C26 O33 1.185 . S
O27 C26 1.160 . S
O28 Zn29 1.899 . S
O28 C36 1.284 . S
Zn29 O28 1.899 . S
Zn29 O30 2.032 . S
Zn29 O33 2.086 . S
Zn29 O38 1.977 . S
O30 Zn29 2.032 . S
O30 C34 1.278 . S
C31 O32 1.203 . S
C31 O38 1.267 . S
O32 C31 1.203 . S
O33 C26 1.185 . S
O33 Zn29 2.086 . S
C34 O30 1.278 . S
C34 O35 1.211 . S
O35 C34 1.211 . S
C36 O28 1.284 . S
C36 O37 1.273 . S
O37 C36 1.273 . S
O38 Zn29 1.977 . S
O38 C31 1.267 . S
C39 O40 1.160 . S
C39 O46 1.185 . S
O40 C39 1.160 . S
O41 Zn42 1.899 . S
O41 C49 1.284 . S
Zn42 O41 1.899 . S
Zn42 O43 2.032 . S
Zn42 O46 2.086 . S
Zn42 O51 1.977 . S
O43 Zn42 2.032 . S
O43 C47 1.278 . S
C44 O45 1.203 . S
C44 O51 1.267 . S
O45 C44 1.203 . S
O46 C39 1.185 . S
O46 Zn42 2.086 . S
C47 O43 1.278 . S
C47 O48 1.211 . S
O48 C47 1.211 . S
C49 O41 1.284 . S
C49 O50 1.273 . S
O50 C49 1.273 . S
O51 Zn42 1.977 . S
O51 C44 1.267 . S
C52 O53 1.160 . S
C52 O59 1.185 . S
O53 C52 1.160 . S
O54 Zn55 1.899 . S
O54 C62 1.284 . S
Zn55 O54 1.899 . S
Zn55 O56 2.032 . S
Zn55 O59 2.086 . S
Zn55 O64 1.977 . S
O56 Zn55 2.032 . S
O56 C60 1.278 . S
C57 O58 1.203 . S
C57 O64 1.267 . S
O58 C57 1.203 . S
O59 C52 1.185 . S
O59 Zn55 2.086 . S
C60 O56 1.278 . S
C60 O61 1.211 . S
O61 C60 1.211 . S
C62 O54 1.284 . S
C62 O63 1.273 . S
O63 C62 1.273 . S
O64 Zn55 1.977 . S
O64 C57 1.267 . S
C65 O66 1.160 . S
C65 O72 1.185 . S
O66 C65 1.160 . S
O67 Zn68 1.899 . S
O67 C75 1.284 . S
Zn68 O67 1.899 . S
Zn68 O69 2.032 . S
Zn68 O72 2.086 . S
Zn68 O77 1.977 . S
O69 Zn68 2.032 . S
O69 C73 1.278 . S
C70 O71 1.203 . S
C70 O77 1.267 . S
O71 C70 1.203 . S
O72 C65 1.185 . S
O72 Zn68 2.086 . S
C73 O69 1.278 . S
C73 O74 1.211 . S
O74 C73 1.211 . S
C75 O67 1.284 . S
C75 O76 1.273 . S
O76 C75 1.273 . S
O77 Zn68 1.977 . S
O77 C70 1.267 . S
C78 O79 1.160 . S
C78 O85 1.185 . S
O79 C78 1.160 . S
O80 Zn81 1.899 . S
O80 C88 1.284 . S
Zn81 O80 1.899 . S
Zn81 O82 2.032 . S
Zn81 O85 2.086 . S
Zn81 O90 1.977 . S
O82 Zn81 2.032 . S
O82 C86 1.278 . S
C83 O84 1.203 . S
C83 O90 1.267 . S
O84 C83 1.203 . S
O85 C78 1.185 . S
O85 Zn81 2.086 . S
C86 O82 1.278 . S
C86 O87 1.211 . S
O87 C86 1.211 . S
C88 O80 1.284 . S
C88 O89 1.273 . S
O89 C88 1.273 . S
O90 Zn81 1.977 . S
O90 C83 1.267 . S
C91 O92 1.160 . S
C91 O98 1.185 . S
O92 C91 1.160 . S
O93 Zn94 1.899 . S
O93 C101 1.284 . S
Zn94 O93 1.899 . S
Zn94 O95 2.032 . S
Zn94 O98 2.086 . S
Zn94 O103 1.977 . S
O95 Zn94 2.032 . S
O95 C99 1.278 . S
C96 O97 1.203 . S
C96 O103 1.267 . S
O97 C96 1.203 . S
O98 C91 1.185 . S
O98 Zn94 2.086 . S
C99 O95 1.278 . S
C99 O100 1.211 . S
O100 C99 1.211 . S
C101 O93 1.284 . S
C101 O102 1.273 . S
O102 C101 1.273 . S
O103 Zn94 1.977 . S
O103 C96 1.267 . S
C104 O105 1.160 . S
C104 O111 1.185 . S
O105 C104 1.160 . S
O106 Zn107 1.899 . S
O106 C114 1.284 . S
Zn107 O106 1.899 . S
Zn107 O108 2.032 . S
Zn107 O111 2.086 . S
Zn107 O116 1.977 . S
O108 Zn107 2.032 . S
O108 C112 1.278 . S
C109 O110 1.203 . S
C109 O116 1.267 . S
O110 C109 1.203 . S
O111 C104 1.185 . S
O111 Zn107 2.086 . S
C112 O108 1.278 . S
C112 O113 1.211 . S
O113 C112 1.211 . S
C114 O106 1.284 . S
C114 O115 1.273 . S
O115 C114 1.273 . S
O116 Zn107 1.977 . S
O116 C109 1.267 . S
C117 O118 1.160 . S
C117 O124 1.185 . S
O118 C117 1.160 . S
O119 Zn120 1.899 . S
O119 C127 1.284 . S
Zn120 O119 1.899 . S
Zn120 O121 2.032 . S
Zn120 O124 2.086 . S
Zn120 O129 1.977 . S
O121 Zn120 2.032 . S
O121 C125 1.278 . S
C122 O123 1.203 . S
C122 O129 1.267 . S
O123 C122 1.203 . S
O124 C117 1.185 . S
O124 Zn120 2.086 . S
C125 O121 1.278 . S
C125 O126 1.211 . S
O126 C125 1.211 . S
C127 O119 1.284 . S
C127 O128 1.273 . S
O128 C127 1.273 . S
O129 Zn120 1.977 . S
O129 C122 1.267 . S
C130 O131 1.160 . S
C130 O137 1.185 . S
O131 C130 1.160 . S
O132 Zn133 1.899 . S
O132 C140 1.284 . S
Zn133 O132 1.899 . S
Zn133 O134 2.032 . S
Zn133 O137 2.086 . S
Zn133 O142 1.977 . S
O134 Zn133 2.032 . S
O134 C138 1.278 . S
C135 O136 1.203 . S
C135 O142 1.267 . S
O136 C135 1.203 . S
O137 C130 1.185 . S
O137 Zn133 2.086 . S
C138 O134 1.278 . S
C138 O139 1.211 . S
O139 C138 1.211 . S
C140 O132 1.284 . S
C140 O141 1.273 . S
O141 C140 1.273 . S
O142 Zn133 1.977 . S
O142 C135 1.267 . S
C143 O144 1.160 . S
C143 O150 1.185 . S
O144 C143 1.160 . S
O145 Zn146 1.899 . S
O145 C153 1.284 . S
Zn146 O145 1.899 . S
Zn146 O147 2.032 . S
Zn146 O150 2.086 . S
Zn146 O155 1.977 . S
O147 Zn146 2.032 . S
O147 C151 1.278 . S
C148 O149 1.203 . S
C148 O155 1.267 . S
O149 C148 1.203 . S
O150 C143 1.185 . S
O150 Zn146 2.086 . S
C151 O147 1.278 . S
C151 O152 1.211 . S
O152 C151 1.211 . S
C153 O145 1.284 . S
C153 O154 1.273 . S
O154 C153 1.273 . S
O155 Zn146 1.977 . S
O155 C148 1.267 . S
C156 O157 1.160 . S
C156 O163 1.185 . S
O157 C156 1.160 . S
O158 Zn159 1.899 . S
O158 C166 1.284 . S
Zn159 O158 1.899 . S
Zn159 O160 2.032 . S
Zn159 O163 2.086 . S
Zn159 O168 1.977 . S
O160 Zn159 2.032 . S
O160 C164 1.278 . S
C161 O162 1.203 . S
C161 O168 1.267 . S
O162 C161 1.203 . S
O163 C156 1.185 . S
O163 Zn159 2.086 . S
C164 O160 1.278 . S
C164 O165 1.211 . S
O165 C164 1.211 . S
C166 O158 1.284 . S
C166 O167 1.273 . S
O167 C166 1.273 . S
O168 Zn159 1.977 . S
O168 C161 1.267 . S
C169 O170 1.160 . S
C169 O176 1.185 . S
O170 C169 1.160 . S
O171 Zn172 1.899 . S
O171 C179 1.284 . S
Zn172 O171 1.899 . S
Zn172 O173 2.032 . S
Zn172 O176 2.086 . S
Zn172 O181 1.977 . S
O173 Zn172 2.032 . S
O173 C177 1.278 . S
C174 O175 1.203 . S
C174 O181 1.267 . S
O175 C174 1.203 . S
O176 C169 1.185 . S
O176 Zn172 2.086 . S
C177 O173 1.278 . S
C177 O178 1.211 . S
O178 C177 1.211 . S
C179 O171 1.284 . S
C179 O180 1.273 . S
O180 C179 1.273 . S
O181 Zn172 1.977 . S
O181 C174 1.267 . S
C182 O183 1.160 . S
C182 O189 1.185 . S
O183 C182 1.160 . S
O184 Zn185 1.899 . S
O184 C192 1.284 . S
Zn185 O184 1.899 . S
Zn185 O186 2.032 . S
Zn185 O189 2.086 . S
Zn185 O194 1.977 . S
O186 Zn185 2.032 . S
O186 C190 1.278 . S
C187 O188 1.203 . S
C187 O194 1.267 . S
O188 C187 1.203 . S
O189 C182 1.185 . S
O189 Zn185 2.086 . S
C190 O186 1.278 . S
C190 O191 1.211 . S
O191 C190 1.211 . S
C192 O184 1.284 . S
C192 O193 1.273 . S
O193 C192 1.273 . S
O194 Zn185 1.977 . S
O194 C187 1.267 . S
C195 O196 1.160 . S
C195 O202 1.185 . S
O196 C195 1.160 . S
O197 Zn198 1.899 . S
O197 C205 1.284 . S
Zn198 O197 1.899 . S
Zn198 O199 2.032 . S
Zn198 O202 2.086 . S
Zn198 O207 1.977 . S
O199 Zn198 2.032 . S
O199 C203 1.278 . S
C200 O201 1.203 . S
C200 O207 1.267 . S
O201 C200 1.203 . S
O202 C195 1.185 . S
O202 Zn198 2.086 . S
C203 O199 1.278 . S
C203 O204 1.211 . S
O204 C203 1.211 . S
C205 O197 1.284 . S
C205 O206 1.273 . S
O206 C205 1.273 . S
O207 Zn198 1.977 . S
O207 C200 1.267 . S
H208 C214 0.930 . S
H209 C218 0.930 . S
H210 C223 0.929 . S
H211 C221 0.929 . S
H212 C216 0.929 . S
H213 C222 0.929 . S
C214 H208 0.930 . S
C214 C215 1.367 . S
C214 C222 1.378 . S
C215 C214 1.367 . S
C215 C223 1.433 . S
C216 H212 0.929 . S
C216 C218 1.378 . S
C216 C220 1.350 . S
C217 C220 1.463 . S
C217 C222 1.350 . S
C217 N225 1.427 . S
C218 H209 0.930 . S
C218 C216 1.378 . S
C218 C219 1.367 . S
C219 C218 1.367 . S
C219 C221 1.433 . S
C220 C216 1.350 . S
C220 C217 1.463 . S
C220 N224 1.427 . S
C221 H211 0.929 . S
C221 C219 1.433 . S
C221 N224 1.384 . S
C222 H213 0.929 . S
C222 C214 1.378 . S
C222 C217 1.350 . S
C223 H210 0.929 . S
C223 C215 1.433 . S
C223 N225 1.384 . S
N224 C220 1.427 . S
N224 C221 1.384 . S
N225 C217 1.427 . S
N225 C223 1.384 . S
H226 C232 0.930 . S
H227 C236 0.930 . S
H228 C241 0.929 . S
H229 C239 0.929 . S
H230 C234 0.929 . S
H231 C240 0.929 . S
C232 H226 0.930 . S
C232 C233 1.367 . S
C232 C240 1.378 . S
C233 C232 1.367 . S
C233 C241 1.433 . S
C234 H230 0.929 . S
C234 C236 1.378 . S
C234 C238 1.350 . S
C235 C238 1.463 . S
C235 C240 1.350 . S
C235 N243 1.427 . S
C236 H227 0.930 . S
C236 C234 1.378 . S
C236 C237 1.367 . S
C237 C236 1.367 . S
C237 C239 1.433 . S
C238 C234 1.350 . S
C238 C235 1.463 . S
C238 N242 1.427 . S
C239 H229 0.929 . S
C239 C237 1.433 . S
C239 N242 1.384 . S
C240 H231 0.929 . S
C240 C232 1.378 . S
C240 C235 1.350 . S
C241 H228 0.929 . S
C241 C233 1.433 . S
C241 N243 1.384 . S
N242 C238 1.427 . S
N242 C239 1.384 . S
N243 C235 1.427 . S
N243 C241 1.384 . S
H244 C250 0.930 . S
H245 C254 0.930 . S
H246 C259 0.929 . S
H247 C257 0.929 . S
H248 C252 0.929 . S
H249 C258 0.929 . S
C250 H244 0.930 . S
C250 C251 1.367 . S
C250 C258 1.378 . S
C251 C250 1.367 . S
C251 C259 1.433 . S
C252 H248 0.929 . S
C252 C254 1.378 . S
C252 C256 1.350 . S
C253 C256 1.463 . S
C253 C258 1.350 . S
C253 N261 1.427 . S
C254 H245 0.930 . S
C254 C252 1.378 . S
C254 C255 1.367 . S
C255 C254 1.367 . S
C255 C257 1.433 . S
C256 C252 1.350 . S
C256 C253 1.463 . S
C256 N260 1.427 . S
C257 H247 0.929 . S
C257 C255 1.433 . S
C257 N260 1.384 . S
C258 H249 0.929 . S
C258 C250 1.378 . S
C258 C253 1.350 . S
C259 H246 0.929 . S
C259 C251 1.433 . S
C259 N261 1.384 . S
N260 C256 1.427 . S
N260 C257 1.384 . S
N261 C253 1.427 . S
N261 C259 1.384 . S
H262 C268 0.930 . S
H263 C272 0.930 . S
H264 C277 0.929 . S
H265 C275 0.929 . S
H266 C270 0.929 . S
H267 C276 0.929 . S
C268 H262 0.930 . S
C268 C269 1.367 . S
C268 C276 1.378 . S
C269 C268 1.367 . S
C269 C277 1.433 . S
C270 H266 0.929 . S
C270 C272 1.378 . S
C270 C274 1.350 . S
C271 C274 1.463 . S
C271 C276 1.350 . S
C271 N279 1.427 . S
C272 H263 0.930 . S
C272 C270 1.378 . S
C272 C273 1.367 . S
C273 C272 1.367 . S
C273 C275 1.433 . S
C274 C270 1.350 . S
C274 C271 1.463 . S
C274 N278 1.427 . S
C275 H265 0.929 . S
C275 C273 1.433 . S
C275 N278 1.384 . S
C276 H267 0.929 . S
C276 C268 1.378 . S
C276 C271 1.350 . S
C277 H264 0.929 . S
C277 C269 1.433 . S
C277 N279 1.384 . S
N278 C274 1.427 . S
N278 C275 1.384 . S
N279 C271 1.427 . S
N279 C277 1.384 . S
H280 C286 0.930 . S
H281 C290 0.930 . S
H282 C295 0.929 . S
H283 C293 0.929 . S
H284 C288 0.929 . S
H285 C294 0.929 . S
C286 H280 0.930 . S
C286 C287 1.367 . S
C286 C294 1.378 . S
C287 C286 1.367 . S
C287 C295 1.433 . S
C288 H284 0.929 . S
C288 C290 1.378 . S
C288 C292 1.350 . S
C289 C292 1.463 . S
C289 C294 1.350 . S
C289 N297 1.427 . S
C290 H281 0.930 . S
C290 C288 1.378 . S
C290 C291 1.367 . S
C291 C290 1.367 . S
C291 C293 1.433 . S
C292 C288 1.350 . S
C292 C289 1.463 . S
C292 N296 1.427 . S
C293 H283 0.929 . S
C293 C291 1.433 . S
C293 N296 1.384 . S
C294 H285 0.929 . S
C294 C286 1.378 . S
C294 C289 1.350 . S
C295 H282 0.929 . S
C295 C287 1.433 . S
C295 N297 1.384 . S
N296 C292 1.427 . S
N296 C293 1.384 . S
N297 C289 1.427 . S
N297 C295 1.384 . S
H298 C304 0.930 . S
H299 C308 0.930 . S
H300 C313 0.929 . S
H301 C311 0.929 . S
H302 C306 0.929 . S
H303 C312 0.929 . S
C304 H298 0.930 . S
C304 C305 1.367 . S
C304 C312 1.378 . S
C305 C304 1.367 . S
C305 C313 1.433 . S
C306 H302 0.929 . S
C306 C308 1.378 . S
C306 C310 1.350 . S
C307 C310 1.463 . S
C307 C312 1.350 . S
C307 N315 1.427 . S
C308 H299 0.930 . S
C308 C306 1.378 . S
C308 C309 1.367 . S
C309 C308 1.367 . S
C309 C311 1.433 . S
C310 C306 1.350 . S
C310 C307 1.463 . S
C310 N314 1.427 . S
C311 H301 0.929 . S
C311 C309 1.433 . S
C311 N314 1.384 . S
C312 H303 0.929 . S
C312 C304 1.378 . S
C312 C307 1.350 . S
C313 H300 0.929 . S
C313 C305 1.433 . S
C313 N315 1.384 . S
N314 C310 1.427 . S
N314 C311 1.384 . S
N315 C307 1.427 . S
N315 C313 1.384 . S
H316 C322 0.930 . S
H317 C326 0.930 . S
H318 C331 0.929 . S
H319 C329 0.929 . S
H320 C324 0.929 . S
H321 C330 0.929 . S
C322 H316 0.930 . S
C322 C323 1.367 . S
C322 C330 1.378 . S
C323 C322 1.367 . S
C323 C331 1.433 . S
C324 H320 0.929 . S
C324 C326 1.378 . S
C324 C328 1.350 . S
C325 C328 1.463 . S
C325 C330 1.350 . S
C325 N333 1.427 . S
C326 H317 0.930 . S
C326 C324 1.378 . S
C326 C327 1.367 . S
C327 C326 1.367 . S
C327 C329 1.433 . S
C328 C324 1.350 . S
C328 C325 1.463 . S
C328 N332 1.427 . S
C329 H319 0.929 . S
C329 C327 1.433 . S
C329 N332 1.384 . S
C330 H321 0.929 . S
C330 C322 1.378 . S
C330 C325 1.350 . S
C331 H318 0.929 . S
C331 C323 1.433 . S
C331 N333 1.384 . S
N332 C328 1.427 . S
N332 C329 1.384 . S
N333 C325 1.427 . S
N333 C331 1.384 . S
H334 C340 0.930 . S
H335 C344 0.930 . S
H336 C349 0.929 . S
H337 C347 0.929 . S
H338 C342 0.929 . S
H339 C348 0.929 . S
C340 H334 0.930 . S
C340 C341 1.367 . S
C340 C348 1.378 . S
C341 C340 1.367 . S
C341 C349 1.433 . S
C342 H338 0.929 . S
C342 C344 1.378 . S
C342 C346 1.350 . S
C343 C346 1.463 . S
C343 C348 1.350 . S
C343 N351 1.427 . S
C344 H335 0.930 . S
C344 C342 1.378 . S
C344 C345 1.367 . S
C345 C344 1.367 . S
C345 C347 1.433 . S
C346 C342 1.350 . S
C346 C343 1.463 . S
C346 N350 1.427 . S
C347 H337 0.929 . S
C347 C345 1.433 . S
C347 N350 1.384 . S
C348 H339 0.929 . S
C348 C340 1.378 . S
C348 C343 1.350 . S
C349 H336 0.929 . S
C349 C341 1.433 . S
C349 N351 1.384 . S
N350 C346 1.427 . S
N350 C347 1.384 . S
N351 C343 1.427 . S
N351 C349 1.384 . S
H352 C358 0.930 . S
H353 C362 0.930 . S
H354 C367 0.929 . S
H355 C365 0.929 . S
H356 C360 0.929 . S
H357 C366 0.929 . S
C358 H352 0.930 . S
C358 C359 1.367 . S
C358 C366 1.378 . S
C359 C358 1.367 . S
C359 C367 1.433 . S
C360 H356 0.929 . S
C360 C362 1.378 . S
C360 C364 1.350 . S
C361 C364 1.463 . S
C361 C366 1.350 . S
C361 N369 1.427 . S
C362 H353 0.930 . S
C362 C360 1.378 . S
C362 C363 1.367 . S
C363 C362 1.367 . S
C363 C365 1.433 . S
C364 C360 1.350 . S
C364 C361 1.463 . S
C364 N368 1.427 . S
C365 H355 0.929 . S
C365 C363 1.433 . S
C365 N368 1.384 . S
C366 H357 0.929 . S
C366 C358 1.378 . S
C366 C361 1.350 . S
C367 H354 0.929 . S
C367 C359 1.433 . S
C367 N369 1.384 . S
N368 C364 1.427 . S
N368 C365 1.384 . S
N369 C361 1.427 . S
N369 C367 1.384 . S
H370 C376 0.930 . S
H371 C380 0.930 . S
H372 C385 0.929 . S
H373 C383 0.929 . S
H374 C378 0.929 . S
H375 C384 0.929 . S
C376 H370 0.930 . S
C376 C377 1.367 . S
C376 C384 1.378 . S
C377 C376 1.367 . S
C377 C385 1.433 . S
C378 H374 0.929 . S
C378 C380 1.378 . S
C378 C382 1.350 . S
C379 C382 1.463 . S
C379 C384 1.350 . S
C379 N387 1.427 . S
C380 H371 0.930 . S
C380 C378 1.378 . S
C380 C381 1.367 . S
C381 C380 1.367 . S
C381 C383 1.433 . S
C382 C378 1.350 . S
C382 C379 1.463 . S
C382 N386 1.427 . S
C383 H373 0.929 . S
C383 C381 1.433 . S
C383 N386 1.384 . S
C384 H375 0.929 . S
C384 C376 1.378 . S
C384 C379 1.350 . S
C385 H372 0.929 . S
C385 C377 1.433 . S
C385 N387 1.384 . S
N386 C382 1.427 . S
N386 C383 1.384 . S
N387 C379 1.427 . S
N387 C385 1.384 . S
H388 C394 0.930 . S
H389 C398 0.930 . S
H390 C403 0.929 . S
H391 C401 0.929 . S
H392 C396 0.929 . S
H393 C402 0.929 . S
C394 H388 0.930 . S
C394 C395 1.367 . S
C394 C402 1.378 . S
C395 C394 1.367 . S
C395 C403 1.433 . S
C396 H392 0.929 . S
C396 C398 1.378 . S
C396 C400 1.350 . S
C397 C400 1.463 . S
C397 C402 1.350 . S
C397 N405 1.427 . S
C398 H389 0.930 . S
C398 C396 1.378 . S
C398 C399 1.367 . S
C399 C398 1.367 . S
C399 C401 1.433 . S
C400 C396 1.350 . S
C400 C397 1.463 . S
C400 N404 1.427 . S
C401 H391 0.929 . S
C401 C399 1.433 . S
C401 N404 1.384 . S
C402 H393 0.929 . S
C402 C394 1.378 . S
C402 C397 1.350 . S
C403 H390 0.929 . S
C403 C395 1.433 . S
C403 N405 1.384 . S
N404 C400 1.427 . S
N404 C401 1.384 . S
N405 C397 1.427 . S
N405 C403 1.384 . S
H406 C412 0.930 . S
H407 C416 0.930 . S
H408 C421 0.929 . S
H409 C419 0.929 . S
H410 C414 0.929 . S
H411 C420 0.929 . S
C412 H406 0.930 . S
C412 C413 1.367 . S
C412 C420 1.378 . S
C413 C412 1.367 . S
C413 C421 1.433 . S
C414 H410 0.929 . S
C414 C416 1.378 . S
C414 C418 1.350 . S
C415 C418 1.463 1_554 S
C415 C420 1.350 . S
C415 N423 1.427 . S
C416 H407 0.930 . S
C416 C414 1.378 . S
C416 C417 1.367 . S
C417 C416 1.367 . S
C417 C419 1.433 . S
C418 C414 1.350 . S
C418 C415 1.463 1_556 S
C418 N422 1.427 . S
C419 H409 0.929 . S
C419 C417 1.433 . S
C419 N422 1.384 . S
C420 H411 0.929 . S
C420 C412 1.378 . S
C420 C415 1.350 . S
C421 H408 0.929 . S
C421 C413 1.433 . S
C421 N423 1.384 . S
N422 C418 1.427 . S
N422 C419 1.384 . S
N423 C415 1.427 . S
N423 C421 1.384 . S
H424 C430 0.930 . S
H425 C434 0.930 . S
H426 C439 0.929 . S
H427 C437 0.929 . S
H428 C432 0.929 . S
H429 C438 0.929 . S
C430 H424 0.930 . S
C430 C431 1.367 . S
C430 C438 1.378 . S
C431 C430 1.367 . S
C431 C439 1.433 . S
C432 H428 0.929 . S
C432 C434 1.378 . S
C432 C436 1.350 . S
C433 C436 1.463 1_554 S
C433 C438 1.350 . S
C433 N441 1.427 . S
C434 H425 0.930 . S
C434 C432 1.378 . S
C434 C435 1.367 . S
C435 C434 1.367 . S
C435 C437 1.433 . S
C436 C432 1.350 . S
C436 C433 1.463 1_556 S
C436 N440 1.427 . S
C437 H427 0.929 . S
C437 C435 1.433 . S
C437 N440 1.384 . S
C438 H429 0.929 . S
C438 C430 1.378 . S
C438 C433 1.350 . S
C439 H426 0.929 . S
C439 C431 1.433 . S
C439 N441 1.384 . S
N440 C436 1.427 . S
N440 C437 1.384 . S
N441 C433 1.427 . S
N441 C439 1.384 . S
H442 C448 0.930 . S
H443 C452 0.930 . S
H444 C457 0.929 . S
H445 C455 0.929 . S
H446 C450 0.929 . S
H447 C456 0.929 . S
C448 H442 0.930 . S
C448 C449 1.367 . S
C448 C456 1.378 . S
C449 C448 1.367 . S
C449 C457 1.433 . S
C450 H446 0.929 . S
C450 C452 1.378 . S
C450 C454 1.350 . S
C451 C454 1.463 . S
C451 C456 1.350 . S
C451 N459 1.427 . S
C452 H443 0.930 . S
C452 C450 1.378 . S
C452 C453 1.367 . S
C453 C452 1.367 . S
C453 C455 1.433 . S
C454 C450 1.350 . S
C454 C451 1.463 . S
C454 N458 1.427 . S
C455 H445 0.929 . S
C455 C453 1.433 . S
C455 N458 1.384 . S
C456 H447 0.929 . S
C456 C448 1.378 . S
C456 C451 1.350 . S
C457 H444 0.929 . S
C457 C449 1.433 . S
C457 N459 1.384 . S
N458 C454 1.427 . S
N458 C455 1.384 . S
N459 C451 1.427 . S
N459 C457 1.384 . S
H460 C466 0.930 . S
H461 C470 0.930 . S
H462 C475 0.929 . S
H463 C473 0.929 . S
H464 C468 0.929 . S
H465 C474 0.929 . S
C466 H460 0.930 . S
C466 C467 1.367 . S
C466 C474 1.378 . S
C467 C466 1.367 . S
C467 C475 1.433 . S
C468 H464 0.929 . S
C468 C470 1.378 . S
C468 C472 1.350 . S
C469 C472 1.463 . S
C469 C474 1.350 . S
C469 N477 1.427 . S
C470 H461 0.930 . S
C470 C468 1.378 . S
C470 C471 1.367 . S
C471 C470 1.367 . S
C471 C473 1.433 . S
C472 C468 1.350 . S
C472 C469 1.463 . S
C472 N476 1.427 . S
C473 H463 0.929 . S
C473 C471 1.433 . S
C473 N476 1.384 . S
C474 H465 0.929 . S
C474 C466 1.378 . S
C474 C469 1.350 . S
C475 H462 0.929 . S
C475 C467 1.433 . S
C475 N477 1.384 . S
N476 C472 1.427 . S
N476 C473 1.384 . S
N477 C469 1.427 . S
N477 C475 1.384 . S
H478 C484 0.930 . S
H479 C488 0.930 . S
H480 C493 0.929 . S
H481 C491 0.929 . S
H482 C486 0.929 . S
H483 C492 0.929 . S
C484 H478 0.930 . S
C484 C485 1.367 . S
C484 C492 1.378 . S
C485 C484 1.367 . S
C485 C493 1.433 . S
C486 H482 0.929 . S
C486 C488 1.378 . S
C486 C490 1.350 . S
C487 C490 1.463 . S
C487 C492 1.350 . S
C487 N495 1.427 . S
C488 H479 0.930 . S
C488 C486 1.378 . S
C488 C489 1.367 . S
C489 C488 1.367 . S
C489 C491 1.433 . S
C490 C486 1.350 . S
C490 C487 1.463 . S
C490 N494 1.427 . S
C491 H481 0.929 . S
C491 C489 1.433 . S
C491 N494 1.384 . S
C492 H483 0.929 . S
C492 C484 1.378 . S
C492 C487 1.350 . S
C493 H480 0.929 . S
C493 C485 1.433 . S
C493 N495 1.384 . S
N494 C490 1.427 . S
N494 C491 1.384 . S
N495 C487 1.427 . S
N495 C493 1.384 . S
H496 C502 0.930 1_565 S
H497 C506 0.930 1_545 S
H498 C511 0.929 . S
H499 C509 0.929 . S
H500 C504 0.929 . S
H501 C510 0.929 . S
C502 H496 0.930 1_545 S
C502 C503 1.367 . S
C502 C510 1.378 1_545 S
C503 C502 1.367 . S
C503 C511 1.433 . S
C504 H500 0.929 . S
C504 C506 1.378 1_545 S
C504 C508 1.350 1_545 S
C505 C508 1.463 1_445 S
C505 C510 1.350 1_545 S
C505 N513 1.427 . S
C506 H497 0.930 1_565 S
C506 C504 1.378 1_565 S
C506 C507 1.367 . S
C507 C506 1.367 . S
C507 C509 1.433 . S
C508 C504 1.350 1_565 S
C508 C505 1.463 1_665 S
C508 N512 1.427 . S
C509 H499 0.929 . S
C509 C507 1.433 . S
C509 N512 1.384 . S
C510 H501 0.929 . S
C510 C502 1.378 1_565 S
C510 C505 1.350 1_565 S
C511 H498 0.929 . S
C511 C503 1.433 . S
C511 N513 1.384 . S
N512 C508 1.427 . S
N512 C509 1.384 . S
N513 C505 1.427 . S
N513 C511 1.384 . S
H514 C520 0.930 1_655 S
H515 C524 0.930 1_455 S
H516 C529 0.929 . S
H517 C527 0.929 . S
H518 C522 0.929 . S
H519 C528 0.929 . S
C520 H514 0.930 1_455 S
C520 C521 1.367 . S
C520 C528 1.378 1_455 S
C521 C520 1.367 . S
C521 C529 1.433 . S
C522 H518 0.929 . S
C522 C524 1.378 1_455 S
C522 C526 1.350 1_455 S
C523 C526 1.463 1_455 S
C523 C528 1.350 1_455 S
C523 N531 1.427 . S
C524 H515 0.930 1_655 S
C524 C522 1.378 1_655 S
C524 C525 1.367 . S
C525 C524 1.367 . S
C525 C527 1.433 . S
C526 C522 1.350 1_655 S
C526 C523 1.463 1_655 S
C526 N530 1.427 . S
C527 H517 0.929 . S
C527 C525 1.433 . S
C527 N530 1.384 . S
C528 H519 0.929 . S
C528 C520 1.378 1_655 S
C528 C523 1.350 1_655 S
C529 H516 0.929 . S
C529 C521 1.433 . S
C529 N531 1.384 . S
N530 C526 1.427 . S
N530 C527 1.384 . S
N531 C523 1.427 . S
N531 C529 1.384 . S
H532 C538 0.930 . S
H533 C542 0.930 . S
H534 C547 0.929 . S
H535 C545 0.929 . S
H536 C540 0.929 . S
H537 C546 0.929 . S
C538 H532 0.930 . S
C538 C539 1.367 . S
C538 C546 1.378 . S
C539 C538 1.367 . S
C539 C547 1.433 . S
C540 H536 0.929 . S
C540 C542 1.378 . S
C540 C544 1.350 . S
C541 C544 1.463 . S
C541 C546 1.350 . S
C541 N549 1.427 . S
C542 H533 0.930 . S
C542 C540 1.378 . S
C542 C543 1.367 . S
C543 C542 1.367 . S
C543 C545 1.433 . S
C544 C540 1.350 . S
C544 C541 1.463 . S
C544 N548 1.427 . S
C545 H535 0.929 . S
C545 C543 1.433 . S
C545 N548 1.384 . S
C546 H537 0.929 . S
C546 C538 1.378 . S
C546 C541 1.350 . S
C547 H534 0.929 . S
C547 C539 1.433 . S
C547 N549 1.384 . S
N548 C544 1.427 . S
N548 C545 1.384 . S
N549 C541 1.427 . S
N549 C547 1.384 . S
H550 C556 0.930 . S
H551 C560 0.930 . S
H552 C565 0.929 . S
H553 C563 0.929 . S
H554 C558 0.929 . S
H555 C564 0.929 . S
C556 H550 0.930 . S
C556 C557 1.367 . S
C556 C564 1.378 . S
C557 C556 1.367 . S
C557 C565 1.433 . S
C558 H554 0.929 . S
C558 C560 1.378 . S
C558 C562 1.350 . S
C559 C562 1.463 1_545 S
C559 C564 1.350 . S
C559 N567 1.427 . S
C560 H551 0.930 . S
C560 C558 1.378 . S
C560 C561 1.367 . S
C561 C560 1.367 . S
C561 C563 1.433 . S
C562 C558 1.350 . S
C562 C559 1.463 1_565 S
C562 N566 1.427 . S
C563 H553 0.929 . S
C563 C561 1.433 . S
C563 N566 1.384 . S
C564 H555 0.929 . S
C564 C556 1.378 . S
C564 C559 1.350 . S
C565 H552 0.929 . S
C565 C557 1.433 . S
C565 N567 1.384 . S
N566 C562 1.427 . S
N566 C563 1.384 . S
N567 C559 1.427 . S
N567 C565 1.384 . S
H568 C574 0.930 . S
H569 C578 0.930 . S
H570 C583 0.929 . S
H571 C581 0.929 . S
H572 C576 0.929 . S
H573 C582 0.929 . S
C574 H568 0.930 . S
C574 C575 1.367 . S
C574 C582 1.378 . S
C575 C574 1.367 . S
C575 C583 1.433 . S
C576 H572 0.929 . S
C576 C578 1.378 . S
C576 C580 1.350 . S
C577 C580 1.463 1_455 S
C577 C582 1.350 . S
C577 N585 1.427 . S
C578 H569 0.930 . S
C578 C576 1.378 . S
C578 C579 1.367 . S
C579 C578 1.367 . S
C579 C581 1.433 . S
C580 C576 1.350 . S
C580 C577 1.463 1_655 S
C580 N584 1.427 . S
C581 H571 0.929 . S
C581 C579 1.433 . S
C581 N584 1.384 . S
C582 H573 0.929 . S
C582 C574 1.378 . S
C582 C577 1.350 . S
C583 H570 0.929 . S
C583 C575 1.433 . S
C583 N585 1.384 . S
N584 C580 1.427 . S
N584 C581 1.384 . S
N585 C577 1.427 . S
N585 C583 1.384 . S
H586 C592 0.930 . S
H587 C596 0.930 . S
H588 C601 0.929 . S
H589 C599 0.929 . S
H590 C594 0.929 . S
H591 C600 0.929 . S
C592 H586 0.930 . S
C592 C593 1.367 . S
C592 C600 1.378 . S
C593 C592 1.367 . S
C593 C601 1.433 . S
C594 H590 0.929 . S
C594 C596 1.378 . S
C594 C598 1.350 . S
C595 C598 1.463 . S
C595 C600 1.350 . S
C595 N603 1.427 . S
C596 H587 0.930 . S
C596 C594 1.378 . S
C596 C597 1.367 . S
C597 C596 1.367 . S
C597 C599 1.433 . S
C598 C594 1.350 . S
C598 C595 1.463 . S
C598 N602 1.427 . S
C599 H589 0.929 . S
C599 C597 1.433 . S
C599 N602 1.384 . S
C600 H591 0.929 . S
C600 C592 1.378 . S
C600 C595 1.350 . S
C601 H588 0.929 . S
C601 C593 1.433 . S
C601 N603 1.384 . S
N602 C598 1.427 . S
N602 C599 1.384 . S
N603 C595 1.427 . S
N603 C601 1.384 . S
H604 C610 0.930 1_545 S
H605 C614 0.930 1_565 S
H606 C619 0.929 . S
H607 C617 0.929 . S
H608 C612 0.929 . S
H609 C618 0.929 . S
C610 H604 0.930 1_565 S
C610 C611 1.367 . S
C610 C618 1.378 1_565 S
C611 C610 1.367 . S
C611 C619 1.433 . S
C612 H608 0.929 . S
C612 C614 1.378 1_565 S
C612 C616 1.350 1_565 S
C613 C616 1.463 1_565 S
C613 C618 1.350 1_565 S
C613 N621 1.427 . S
C614 H605 0.930 1_545 S
C614 C612 1.378 1_545 S
C614 C615 1.367 . S
C615 C614 1.367 . S
C615 C617 1.433 . S
C616 C612 1.350 1_545 S
C616 C613 1.463 1_545 S
C616 N620 1.427 . S
C617 H607 0.929 . S
C617 C615 1.433 . S
C617 N620 1.384 . S
C618 H609 0.929 . S
C618 C610 1.378 1_545 S
C618 C613 1.350 1_545 S
C619 H606 0.929 . S
C619 C611 1.433 . S
C619 N621 1.384 . S
N620 C616 1.427 . S
N620 C617 1.384 . S
N621 C613 1.427 . S
N621 C619 1.384 . S
H622 C628 0.930 . S
H623 C632 0.930 . S
H624 C637 0.929 . S
H625 C635 0.929 . S
H626 C630 0.929 . S
H627 C636 0.929 . S
C628 H622 0.930 . S
C628 C629 1.367 1_655 S
C628 C636 1.378 . S
C629 C628 1.367 1_455 S
C629 C637 1.433 . S
C630 H626 0.929 . S
C630 C632 1.378 . S
C630 C634 1.350 1_455 S
C631 C634 1.463 1_445 S
C631 C636 1.350 1_455 S
C631 N639 1.427 . S
C632 H623 0.930 . S
C632 C630 1.378 . S
C632 C633 1.367 1_455 S
C633 C632 1.367 1_655 S
C633 C635 1.433 . S
C634 C630 1.350 1_655 S
C634 C631 1.463 1_665 S
C634 N638 1.427 . S
C635 H625 0.929 . S
C635 C633 1.433 . S
C635 N638 1.384 . S
C636 H627 0.929 . S
C636 C628 1.378 . S
C636 C631 1.350 1_655 S
C637 H624 0.929 . S
C637 C629 1.433 . S
C637 N639 1.384 . S
N638 C634 1.427 . S
N638 C635 1.384 . S
N639 C631 1.427 . S
N639 C637 1.384 . S
H640 C646 0.930 . S
H641 C650 0.930 . S
H642 C655 0.929 . S
H643 C653 0.929 . S
H644 C648 0.929 1_565 S
H645 C654 0.929 1_545 S
C646 H640 0.930 . S
C646 C647 1.367 . S
C646 C654 1.378 . S
C647 C646 1.367 . S
C647 C655 1.433 . S
C648 H644 0.929 1_545 S
C648 C650 1.378 . S
C648 C652 1.350 . S
C649 C652 1.463 1_565 S
C649 C654 1.350 . S
C649 N657 1.427 . S
C650 H641 0.930 . S
C650 C648 1.378 . S
C650 C651 1.367 . S
C651 C650 1.367 . S
C651 C653 1.433 . S
C652 C648 1.350 . S
C652 C649 1.463 1_545 S
C652 N656 1.427 . S
C653 H643 0.929 . S
C653 C651 1.433 . S
C653 N656 1.384 . S
C654 H645 0.929 1_565 S
C654 C646 1.378 . S
C654 C649 1.350 . S
C655 H642 0.929 . S
C655 C647 1.433 . S
C655 N657 1.384 . S
N656 C652 1.427 . S
N656 C653 1.384 . S
N657 C649 1.427 . S
N657 C655 1.384 . S
H658 C664 0.930 . S
H659 C668 0.930 . S
H660 C673 0.929 . S
H661 C671 0.929 . S
H662 C666 0.929 . S
H663 C672 0.929 . S
C664 H658 0.930 . S
C664 C665 1.367 1_455 S
C664 C672 1.378 . S
C665 C664 1.367 1_655 S
C665 C673 1.433 . S
C666 H662 0.929 . S
C666 C668 1.378 . S
C666 C670 1.350 1_655 S
C667 C670 1.463 1_665 S
C667 C672 1.350 1_655 S
C667 N675 1.427 . S
C668 H659 0.930 . S
C668 C666 1.378 . S
C668 C669 1.367 1_655 S
C669 C668 1.367 1_455 S
C669 C671 1.433 . S
C670 C666 1.350 1_455 S
C670 C667 1.463 1_445 S
C670 N674 1.427 . S
C671 H661 0.929 . S
C671 C669 1.433 . S
C671 N674 1.384 . S
C672 H663 0.929 . S
C672 C664 1.378 . S
C672 C667 1.350 1_455 S
C673 H660 0.929 . S
C673 C665 1.433 . S
C673 N675 1.384 . S
N674 C670 1.427 . S
N674 C671 1.384 . S
N675 C667 1.427 . S
N675 C673 1.384 . S
H676 C682 0.930 . S
H677 C686 0.930 . S
H678 C691 0.929 . S
H679 C689 0.929 . S
H680 C684 0.929 . S
H681 C690 0.929 . S
C682 H676 0.930 . S
C682 C683 1.367 . S
C682 C690 1.378 . S
C683 C682 1.367 . S
C683 C691 1.433 . S
C684 H680 0.929 . S
C684 C686 1.378 . S
C684 C688 1.350 . S
C685 C688 1.463 1_455 S
C685 C690 1.350 . S
C685 N693 1.427 . S
C686 H677 0.930 . S
C686 C684 1.378 . S
C686 C687 1.367 . S
C687 C686 1.367 . S
C687 C689 1.433 . S
C688 C684 1.350 . S
C688 C685 1.463 1_655 S
C688 N692 1.427 . S
C689 H679 0.929 . S
C689 C687 1.433 . S
C689 N692 1.384 . S
C690 H681 0.929 . S
C690 C682 1.378 . S
C690 C685 1.350 . S
C691 H678 0.929 . S
C691 C683 1.433 . S
C691 N693 1.384 . S
N692 C688 1.427 . S
N692 C689 1.384 . S
N693 C685 1.427 . S
N693 C691 1.384 . S
H694 C700 0.930 . S
H695 C704 0.930 . S
H696 C709 0.929 . S
H697 C707 0.929 . S
H698 C702 0.929 . S
H699 C708 0.929 . S
C700 H694 0.930 . S
C700 C701 1.367 . S
C700 C708 1.378 . S
C701 C700 1.367 . S
C701 C709 1.433 . S
C702 H698 0.929 . S
C702 C704 1.378 . S
C702 C706 1.350 . S
C703 C706 1.463 . S
C703 C708 1.350 . S
C703 N711 1.427 . S
C704 H695 0.930 . S
C704 C702 1.378 . S
C704 C705 1.367 . S
C705 C704 1.367 . S
C705 C707 1.433 . S
C706 C702 1.350 . S
C706 C703 1.463 . S
C706 N710 1.427 . S
C707 H697 0.929 . S
C707 C705 1.433 . S
C707 N710 1.384 . S
C708 H699 0.929 . S
C708 C700 1.378 . S
C708 C703 1.350 . S
C709 H696 0.929 . S
C709 C701 1.433 . S
C709 N711 1.384 . S
N710 C706 1.427 . S
N710 C707 1.384 . S
N711 C703 1.427 . S
N711 C709 1.384 . S
H712 C718 0.930 . S
H713 C722 0.930 . S
H714 C727 0.929 . S
H715 C725 0.929 . S
H716 C720 0.929 . S
H717 C726 0.929 . S
C718 H712 0.930 . S
C718 C719 1.367 . S
C718 C726 1.378 . S
C719 C718 1.367 . S
C719 C727 1.433 . S
C720 H716 0.929 . S
C720 C722 1.378 . S
C720 C724 1.350 . S
C721 C724 1.463 . S
C721 C726 1.350 . S
C721 N729 1.427 . S
C722 H713 0.930 . S
C722 C720 1.378 . S
C722 C723 1.367 . S
C723 C722 1.367 . S
C723 C725 1.433 . S
C724 C720 1.350 . S
C724 C721 1.463 . S
C724 N728 1.427 . S
C725 H715 0.929 . S
C725 C723 1.433 . S
C725 N728 1.384 . S
C726 H717 0.929 . S
C726 C718 1.378 . S
C726 C721 1.350 . S
C727 H714 0.929 . S
C727 C719 1.433 . S
C727 N729 1.384 . S
N728 C724 1.427 . S
N728 C725 1.384 . S
N729 C721 1.427 . S
N729 C727 1.384 . S
H730 C736 0.930 . S
H731 C740 0.930 . S
H732 C745 0.929 . S
H733 C743 0.929 . S
H734 C738 0.929 . S
H735 C744 0.929 . S
C736 H730 0.930 . S
C736 C737 1.367 . S
C736 C744 1.378 . S
C737 C736 1.367 . S
C737 C745 1.433 . S
C738 H734 0.929 . S
C738 C740 1.378 . S
C738 C742 1.350 . S
C739 C742 1.463 1_545 S
C739 C744 1.350 . S
C739 N747 1.427 . S
C740 H731 0.930 . S
C740 C738 1.378 . S
C740 C741 1.367 . S
C741 C740 1.367 . S
C741 C743 1.433 . S
C742 C738 1.350 . S
C742 C739 1.463 1_565 S
C742 N746 1.427 . S
C743 H733 0.929 . S
C743 C741 1.433 . S
C743 N746 1.384 . S
C744 H735 0.929 . S
C744 C736 1.378 . S
C744 C739 1.350 . S
C745 H732 0.929 . S
C745 C737 1.433 . S
C745 N747 1.384 . S
N746 C742 1.427 . S
N746 C743 1.384 . S
N747 C739 1.427 . S
N747 C745 1.384 . S
H748 C754 0.930 . S
H749 C758 0.930 . S
H750 C763 0.929 1_545 S
H751 C761 0.929 1_565 S
H752 C756 0.929 . S
H753 C762 0.929 . S
C754 H748 0.930 . S
C754 C755 1.367 . S
C754 C762 1.378 . S
C755 C754 1.367 . S
C755 C763 1.433 . S
C756 H752 0.929 . S
C756 C758 1.378 . S
C756 C760 1.350 . S
C757 C760 1.463 1_665 S
C757 C762 1.350 . S
C757 N765 1.427 1_565 S
C758 H749 0.930 . S
C758 C756 1.378 . S
C758 C759 1.367 . S
C759 C758 1.367 . S
C759 C761 1.433 . S
C760 C756 1.350 . S
C760 C757 1.463 1_445 S
C760 N764 1.427 1_545 S
C761 H751 0.929 1_545 S
C761 C759 1.433 . S
C761 N764 1.384 1_545 S
C762 H753 0.929 . S
C762 C754 1.378 . S
C762 C757 1.350 . S
C763 H750 0.929 1_565 S
C763 C755 1.433 . S
C763 N765 1.384 1_565 S
N764 C760 1.427 1_565 S
N764 C761 1.384 1_565 S
N765 C757 1.427 1_545 S
N765 C763 1.384 1_545 S
H766 C772 0.930 1_455 S
H767 C776 0.930 1_655 S
H768 C781 0.929 . S
H769 C779 0.929 . S
H770 C774 0.929 . S
H771 C780 0.929 . S
C772 H766 0.930 1_655 S
C772 C773 1.367 . S
C772 C780 1.378 1_655 S
C773 C772 1.367 . S
C773 C781 1.433 . S
C774 H770 0.929 . S
C774 C776 1.378 1_655 S
C774 C778 1.350 1_655 S
C775 C778 1.463 1_655 S
C775 C780 1.350 1_655 S
C775 N783 1.427 . S
C776 H767 0.930 1_455 S
C776 C774 1.378 1_455 S
C776 C777 1.367 . S
C777 C776 1.367 . S
C777 C779 1.433 . S
C778 C774 1.350 1_455 S
C778 C775 1.463 1_455 S
C778 N782 1.427 . S
C779 H769 0.929 . S
C779 C777 1.433 . S
C779 N782 1.384 . S
C780 H771 0.929 . S
C780 C772 1.378 1_455 S
C780 C775 1.350 1_455 S
C781 H768 0.929 . S
C781 C773 1.433 . S
C781 N783 1.384 . S
N782 C778 1.427 . S
N782 C779 1.384 . S
N783 C775 1.427 . S
N783 C781 1.384 . S
C215 C60 1.037 . S
C219 C8 1.046 . S
C233 C21 1.025 . S
C237 C73 1.039 . S
C251 C86 1.035 . S
C255 C34 1.047 . S
C269 C99 1.024 . S
C273 C47 1.034 . S
C287 C164 1.043 . S
C291 C112 1.044 . S
C305 C125 1.030 . S
C309 C177 1.025 . S
C323 C190 1.033 . S
C327 C138 1.046 . S
C341 C151 1.046 . S
C345 C203 1.032 . S
C359 C10 1.223 . S
C363 C205 1.220 . S
C377 C23 1.223 . S
C381 C166 1.221 . S
C395 C36 1.221 . S
C399 C179 1.220 . S
C413 C192 1.222 . S
C417 C49 1.220 . S
C431 C62 1.220 . S
C435 C127 1.223 . S
C449 C75 1.222 . S
C453 C140 1.222 . S
C467 C153 1.223 . S
C471 C88 1.220 . S
C485 C114 1.222 . S
C489 C101 1.222 . S
C503 C0 1.480 . S
C507 C130 1.476 . S
C521 C143 1.474 . S
C525 C13 1.481 . S
C539 C26 1.478 . S
C543 C104 1.478 . S
C557 C117 1.469 . S
C561 C39 1.477 . S
C575 C52 1.481 . S
C579 C182 1.472 . S
C593 C65 1.469 . S
C597 C195 1.479 . S
C611 C156 1.480 . S
C615 C78 1.475 . S
C629 C169 1.478 . S
C633 C91 1.478 . S
C647 C135 1.435 . S
C651 C5 1.427 . S
C665 C18 1.436 . S
C669 C148 1.434 . S
C683 C31 1.432 . S
C687 C109 1.437 . S
C701 C122 1.421 . S
C705 C44 1.421 . S
C719 C187 1.421 . S
C723 C57 1.429 . S
C737 C200 1.426 . S
C741 C70 1.434 . S
C755 C161 1.426 . S
C759 C83 1.420 . S
C773 C96 1.436 . S
C777 C174 1.430 . S
