# Generated by pormake.
# Topology srs-a, (3)-cn, num edge types: 1
# Building blocks:
#     Node 0, Type 0, BuildingBlock: OLANEW_clean_sbu_2, # of connection points: 3
#     Node 1, Type 0, BuildingBlock: OLANEW_clean_sbu_2, # of connection points: 3
#     Node 2, Type 0, BuildingBlock: OLANEW_clean_sbu_2, # of connection points: 3
#     Node 3, Type 0, BuildingBlock: OLANEW_clean_sbu_2, # of connection points: 3
#     Node 4, Type 0, BuildingBlock: OLANEW_clean_sbu_2, # of connection points: 3
#     Node 5, Type 0, BuildingBlock: OLANEW_clean_sbu_2, # of connection points: 3
#     Node 6, Type 0, BuildingBlock: OLANEW_clean_sbu_2, # of connection points: 3
#     Node 7, Type 0, BuildingBlock: OLANEW_clean_sbu_2, # of connection points: 3
#     Node 8, Type 0, BuildingBlock: OLANEW_clean_sbu_2, # of connection points: 3
#     Node 9, Type 0, BuildingBlock: OLANEW_clean_sbu_2, # of connection points: 3
#     Node 10, Type 0, BuildingBlock: OLANEW_clean_sbu_2, # of connection points: 3
#     Node 11, Type 0, BuildingBlock: OLANEW_clean_sbu_2, # of connection points: 3
#     Node 12, Type 0, BuildingBlock: OLANEW_clean_sbu_2, # of connection points: 3
#     Node 13, Type 0, BuildingBlock: OLANEW_clean_sbu_2, # of connection points: 3
#     Node 14, Type 0, BuildingBlock: OLANEW_clean_sbu_2, # of connection points: 3
#     Node 15, Type 0, BuildingBlock: OLANEW_clean_sbu_2, # of connection points: 3
#     Node 16, Type 0, BuildingBlock: OLANEW_clean_sbu_2, # of connection points: 3
#     Node 17, Type 0, BuildingBlock: OLANEW_clean_sbu_2, # of connection points: 3
#     Node 18, Type 0, BuildingBlock: OLANEW_clean_sbu_2, # of connection points: 3
#     Node 19, Type 0, BuildingBlock: OLANEW_clean_sbu_2, # of connection points: 3
#     Node 20, Type 0, BuildingBlock: OLANEW_clean_sbu_2, # of connection points: 3
#     Node 21, Type 0, BuildingBlock: OLANEW_clean_sbu_2, # of connection points: 3
#     Node 22, Type 0, BuildingBlock: OLANEW_clean_sbu_2, # of connection points: 3
#     Node 23, Type 0, BuildingBlock: OLANEW_clean_sbu_2, # of connection points: 3
#     Edge 24, Type (0, 0), BuildingBlock: XUDNAN_clean_linker_2, # of connection points: 2
#     Edge 25, Type (0, 0), BuildingBlock: XUDNAN_clean_linker_2, # of connection points: 2
#     Edge 26, Type (0, 0), BuildingBlock: XUDNAN_clean_linker_2, # of connection points: 2
#     Edge 27, Type (0, 0), BuildingBlock: XUDNAN_clean_linker_2, # of connection points: 2
#     Edge 28, Type (0, 0), BuildingBlock: XUDNAN_clean_linker_2, # of connection points: 2
#     Edge 29, Type (0, 0), BuildingBlock: XUDNAN_clean_linker_2, # of connection points: 2
#     Edge 30, Type (0, 0), BuildingBlock: XUDNAN_clean_linker_2, # of connection points: 2
#     Edge 31, Type (0, 0), BuildingBlock: XUDNAN_clean_linker_2, # of connection points: 2
#     Edge 32, Type (0, 0), BuildingBlock: XUDNAN_clean_linker_2, # of connection points: 2
#     Edge 33, Type (0, 0), BuildingBlock: XUDNAN_clean_linker_2, # of connection points: 2
#     Edge 34, Type (0, 0), BuildingBlock: XUDNAN_clean_linker_2, # of connection points: 2
#     Edge 35, Type (0, 0), BuildingBlock: XUDNAN_clean_linker_2, # of connection points: 2
#     Edge 36, Type (0, 0), BuildingBlock: XUDNAN_clean_linker_2, # of connection points: 2
#     Edge 37, Type (0, 0), BuildingBlock: XUDNAN_clean_linker_2, # of connection points: 2
#     Edge 38, Type (0, 0), BuildingBlock: XUDNAN_clean_linker_2, # of connection points: 2
#     Edge 39, Type (0, 0), BuildingBlock: XUDNAN_clean_linker_2, # of connection points: 2
#     Edge 40, Type (0, 0), BuildingBlock: XUDNAN_clean_linker_2, # of connection points: 2
#     Edge 41, Type (0, 0), BuildingBlock: XUDNAN_clean_linker_2, # of connection points: 2
#     Edge 42, Type (0, 0), BuildingBlock: XUDNAN_clean_linker_2, # of connection points: 2
#     Edge 43, Type (0, 0), BuildingBlock: XUDNAN_clean_linker_2, # of connection points: 2
#     Edge 44, Type (0, 0), BuildingBlock: XUDNAN_clean_linker_2, # of connection points: 2
#     Edge 45, Type (0, 0), BuildingBlock: XUDNAN_clean_linker_2, # of connection points: 2
#     Edge 46, Type (0, 0), BuildingBlock: XUDNAN_clean_linker_2, # of connection points: 2
#     Edge 47, Type (0, 0), BuildingBlock: XUDNAN_clean_linker_2, # of connection points: 2
#     Edge 48, Type (0, 0), BuildingBlock: XUDNAN_clean_linker_2, # of connection points: 2
#     Edge 49, Type (0, 0), BuildingBlock: XUDNAN_clean_linker_2, # of connection points: 2
#     Edge 50, Type (0, 0), BuildingBlock: XUDNAN_clean_linker_2, # of connection points: 2
#     Edge 51, Type (0, 0), BuildingBlock: XUDNAN_clean_linker_2, # of connection points: 2
#     Edge 52, Type (0, 0), BuildingBlock: XUDNAN_clean_linker_2, # of connection points: 2
#     Edge 53, Type (0, 0), BuildingBlock: XUDNAN_clean_linker_2, # of connection points: 2
#     Edge 54, Type (0, 0), BuildingBlock: XUDNAN_clean_linker_2, # of connection points: 2
#     Edge 55, Type (0, 0), BuildingBlock: XUDNAN_clean_linker_2, # of connection points: 2
#     Edge 56, Type (0, 0), BuildingBlock: XUDNAN_clean_linker_2, # of connection points: 2
#     Edge 57, Type (0, 0), BuildingBlock: XUDNAN_clean_linker_2, # of connection points: 2
#     Edge 58, Type (0, 0), BuildingBlock: XUDNAN_clean_linker_2, # of connection points: 2
#     Edge 59, Type (0, 0), BuildingBlock: XUDNAN_clean_linker_2, # of connection points: 2
# Relax obj value: 0.149
# Max RMSD: 0.208
# Mean RMSD: 0.180
data_MOF--net-srs-a--node1-OLANEW_clean_sbu_2--edge1-XUDNAN_clean_linker_2
_symmetry_space_group_name_H-M    P1
_symmetry_Int_Tables_number       1
_symmetry_cell_setting            triclinic
loop_
_symmetry_equiv_pos_as_xyz
'x, y, z'
_cell_length_a     88.348249
_cell_length_b     84.598317
_cell_length_c     83.998601
_cell_angle_alpha  89.452126
_cell_angle_beta   89.81665
_cell_angle_gamma 94.543669
loop_
_atom_site_label
_atom_site_type_symbol
_atom_site_fract_x
_atom_site_fract_y
_atom_site_fract_z
_atom_type_partial_charge
O0 O 0.14695 0.30074 0.13923 0.0
Cd1 Cd 0.13987 0.32584 0.15011 0.0
O2 O 0.15464 0.29507 0.16324 0.0
Cd3 Cd 0.16209 0.27853 0.18123 0.0
O4 O 0.16688 0.25809 0.19588 0.0
C5 C 0.16102 0.24462 0.19155 0.0
O6 O 0.15255 0.24377 0.17871 0.0
C7 C 0.1527 0.29115 0.14876 0.0
C8 C 0.11668 0.33865 0.13304 0.0
O9 O 0.13064 0.34309 0.13017 0.0
O10 O 0.1137 0.32811 0.14389 0.0
O11 O 0.1033 0.75581 0.3905 0.0
Cd12 Cd 0.09688 0.73689 0.36933 0.0
O13 O 0.08692 0.77101 0.38004 0.0
Cd14 Cd 0.07306 0.79134 0.37997 0.0
O15 O 0.06124 0.81267 0.38384 0.0
C16 C 0.06057 0.82338 0.3732 0.0
O17 O 0.06662 0.82131 0.35914 0.0
C18 C 0.0966 0.76855 0.3908 0.0
C19 C 0.07396 0.71438 0.37928 0.0
O20 O 0.088 0.71183 0.38084 0.0
O21 O 0.07078 0.72752 0.37289 0.0
O22 O 0.51675 0.93817 0.59137 0.0
Cd23 Cd 0.54129 0.93916 0.57779 0.0
O24 O 0.50556 0.92845 0.56987 0.0
Cd25 Cd 0.4848 0.92241 0.55634 0.0
O26 O 0.46347 0.92225 0.54321 0.0
C27 C 0.45319 0.93063 0.54833 0.0
O28 O 0.45565 0.9387 0.56149 0.0
C29 C 0.50473 0.93313 0.58416 0.0
C30 C 0.55428 0.91016 0.57773 0.0
O31 O 0.5568 0.92 0.58911 0.0
O32 O 0.54545 0.91395 0.56648 0.0
O33 O 0.44313 0.08787 0.92614 0.0
Cd34 Cd 0.45485 0.10246 0.94848 0.0
O35 O 0.42581 0.10501 0.9254 0.0
Cd36 Cd 0.40508 0.11476 0.91673 0.0
O37 O 0.38649 0.1273 0.90678 0.0
C38 C 0.37334 0.12763 0.91291 0.0
O39 O 0.36367 0.13672 0.90634 0.0
C40 C 0.43146 0.09292 0.91963 0.0
C41 C 0.47862 0.12354 0.93763 0.0
O42 O 0.48102 0.10946 0.9422 0.0
O43 O 0.465 0.12771 0.93838 0.0
O44 O 0.14125 0.09149 0.23203 0.0
Cd45 Cd 0.1475 0.09715 0.25982 0.0
O46 O 0.16522 0.09176 0.22494 0.0
Cd47 Cd 0.1723 0.10539 0.24589 0.0
O48 O 0.17376 0.1313 0.24634 0.0
C49 C 0.16654 0.13706 0.23485 0.0
O50 O 0.15906 0.12724 0.22511 0.0
C51 C 0.15123 0.08923 0.22153 0.0
C52 C 0.12477 0.08401 0.2801 0.0
O53 O 0.13554 0.07587 0.2754 0.0
O54 O 0.1248 0.09844 0.27529 0.0
O55 O 0.1151 0.90384 0.45223 0.0
Cd56 Cd 0.13281 0.88677 0.46481 0.0
O57 O 0.10338 0.90778 0.4749 0.0
Cd58 Cd 0.11188 0.88603 0.48432 0.0
O59 O 0.11263 0.86143 0.47668 0.0
C60 C 0.10771 0.85935 0.46259 0.0
O61 O 0.1027 0.87145 0.45488 0.0
C62 C 0.1056 0.9111 0.46023 0.0
C63 C 0.16112 0.9031 0.46908 0.0
O64 O 0.15892 0.8933 0.45762 0.0
O65 O 0.15003 0.90507 0.47852 0.0
O66 O 0.39744 0.94792 0.63836 0.0
Cd67 Cd 0.37278 0.95624 0.64683 0.0
O68 O 0.40862 0.97172 0.63382 0.0
Cd69 Cd 0.38703 0.98248 0.63513 0.0
O70 O 0.36765 0.98806 0.62069 0.0
C71 C 0.35387 0.9835 0.62369 0.0
O72 O 0.35044 0.97589 0.63708 0.0
C73 C 0.40922 0.95677 0.6345 0.0
C74 C 0.37238 0.97051 0.67668 0.0
O75 O 0.37124 0.95538 0.67541 0.0
O76 O 0.374 0.97886 0.66391 0.0
O77 O 0.32781 0.0926 0.02241 0.0
Cd78 Cd 0.31482 0.08548 0.0475 0.0
O79 O 0.3218 0.06839 0.01419 0.0
Cd80 Cd 0.32047 0.05042 0.99563 0.0
O81 O 0.32073 0.03737 0.97341 0.0
C82 C 0.31865 0.02236 0.97263 0.0
O83 O 0.31609 0.01402 0.98578 0.0
C84 C 0.32837 0.08213 0.01173 0.0
C85 C 0.29081 0.10394 0.05411 0.0
O86 O 0.30434 0.10817 0.05871 0.0
O87 O 0.28867 0.09106 0.04623 0.0
O88 O 0.04718 0.98296 0.38204 0.0
Cd89 Cd 0.03335 0.99293 0.35943 0.0
O90 O 0.03103 0.96185 0.38359 0.0
Cd91 Cd 0.0223 0.94072 0.39692 0.0
O92 O 0.0109 0.9268 0.41622 0.0
C93 C 0.01143 0.91218 0.41967 0.0
O94 O 0.0043 0.90656 0.43253 0.0
C95 C 0.04285 0.96978 0.3886 0.0
C96 C 0.05095 0.01693 0.3435 0.0
O97 O 0.04146 0.02023 0.35431 0.0
O98 O 0.05201 0.00231 0.34016 0.0
O99 O 0.30145 0.95599 0.51664 0.0
Cd100 Cd 0.29851 0.94804 0.48886 0.0
O101 O 0.31871 0.97509 0.51012 0.0
Cd102 Cd 0.32629 0.96272 0.48931 0.0
O103 O 0.34819 0.95232 0.49089 0.0
C104 C 0.35541 0.95631 0.50351 0.0
O105 O 0.34931 0.96592 0.51344 0.0
C106 C 0.30973 0.96835 0.5204 0.0
C107 C 0.26762 0.94272 0.48235 0.0
O108 O 0.27566 0.9311 0.48535 0.0
O109 O 0.27423 0.95676 0.48207 0.0
O110 O 0.37294 0.02201 0.8332 0.0
Cd111 Cd 0.35539 0.00175 0.82124 0.0
O112 O 0.38611 0.00521 0.84636 0.0
Cd113 Cd 0.36917 0.98557 0.84201 0.0
O114 O 0.35204 0.98081 0.86053 0.0
C115 C 0.34649 0.99336 0.86526 0.0
O116 O 0.35013 0.00667 0.85748 0.0
C117 C 0.384 0.01937 0.84225 0.0
C118 C 0.35986 -0.0003 0.78848 0.0
O119 O 0.35188 0.01024 0.79436 0.0
O120 O 0.36576 0.99008 0.79809 0.0
O121 O 0.15577 0.12813 0.11001 0.0
Cd122 Cd 0.16276 0.14742 0.08889 0.0
O123 O 0.13142 0.13178 0.11053 0.0
Cd124 Cd 0.13567 0.15389 0.09713 0.0
O125 O 0.14192 0.17911 0.10069 0.0
C126 C 0.15319 0.18244 0.10976 0.0
O127 O 0.16072 0.17081 0.11535 0.0
C128 C 0.14247 0.12423 0.11527 0.0
C129 C 0.19291 0.14445 0.08031 0.0
O130 O 0.18949 0.1545 0.0908 0.0
O131 O 0.18204 0.13608 0.07363 0.0
O132 O 0.61812 0.40149 0.94201 0.0
Cd133 Cd 0.63348 0.37915 0.94714 0.0
O134 O 0.60475 0.39645 0.96388 0.0
Cd135 Cd 0.61079 0.37195 0.96364 0.0
O136 O 0.60793 0.35127 0.94825 0.0
C137 C 0.60613 0.35481 0.93367 0.0
O138 O 0.6066 0.36986 0.92953 0.0
C139 C 0.60843 0.40555 0.95211 0.0
C140 C 0.65913 0.3904 0.96405 0.0
O141 O 0.65987 0.38816 0.949 0.0
O142 O 0.64642 0.38695 0.97112 0.0
O143 O 0.91065 0.46507 0.13522 0.0
Cd144 Cd 0.88541 0.46726 0.1467 0.0
O145 O 0.91665 0.49073 0.13269 0.0
Cd146 Cd 0.89311 0.49586 0.13653 0.0
O147 O 0.8709 0.49715 0.12548 0.0
C148 C 0.85853 0.49003 0.13041 0.0
O149 O 0.85836 0.48199 0.14387 0.0
C150 C 0.92028 0.47653 0.1316 0.0
C151 C 0.88557 0.4779 0.17813 0.0
O152 O 0.88609 0.46314 0.17507 0.0
O153 O 0.8852 0.48761 0.16637 0.0
O154 O 0.79359 0.54916 0.48403 0.0
Cd155 Cd 0.76602 0.54532 0.48106 0.0
O156 O 0.79545 0.56538 0.46337 0.0
Cd157 Cd 0.77243 0.55874 0.45518 0.0
O158 O 0.76704 0.54133 0.43668 0.0
C159 C 0.77119 0.52758 0.43969 0.0
O160 O 0.77607 0.52457 0.45408 0.0
C161 C 0.80164 0.55862 0.47497 0.0
C162 C 0.751 0.5645 0.50166 0.0
O163 O 0.75235 0.54988 0.5051 0.0
O164 O 0.75672 0.57002 0.48851 0.0
O165 O 0.89834 0.50625 0.33964 0.0
Cd166 Cd 0.87656 0.49218 0.32667 0.0
O167 O 0.88956 0.50035 0.36368 0.0
Cd168 Cd 0.86803 0.48857 0.35578 0.0
O169 O 0.84345 0.48668 0.35905 0.0
C170 C 0.83822 0.47964 0.37156 0.0
O171 O 0.84761 0.47251 0.38079 0.0
C172 C 0.89982 0.507 0.35467 0.0
C173 C 0.87884 0.49387 0.29356 0.0
O174 O 0.87319 0.50487 0.30149 0.0
O175 O 0.88344 0.48203 0.30129 0.0
O176 O 0.55742 0.51146 0.92051 0.0
Cd177 Cd 0.54378 0.53286 0.90904 0.0
O178 O 0.55162 0.49508 0.9009 0.0
Cd179 Cd 0.55013 0.47115 0.89097 0.0
O180 O 0.54856 0.44582 0.88571 0.0
C181 C 0.53767 0.43701 0.89175 0.0
O182 O 0.52761 0.44349 0.90062 0.0
C183 C 0.55804 0.49793 0.91422 0.0
C184 C 0.55362 0.54362 0.87899 0.0
O185 O 0.56001 0.54921 0.89165 0.0
O186 O 0.54282 0.53266 0.88055 0.0
O187 O 0.64675 0.78251 0.59832 0.0
Cd188 Cd 0.65016 0.81061 0.59097 0.0
O189 O 0.64145 0.78771 0.62323 0.0
Cd190 Cd 0.63536 0.78018 0.64769 0.0
O191 O 0.63082 0.7664 0.66964 0.0
C192 C 0.64181 0.76038 0.67655 0.0
O193 O 0.65558 0.76323 0.67071 0.0
C194 C 0.64381 0.77769 0.61245 0.0
C195 C 0.62383 0.82618 0.58649 0.0
O196 O 0.62932 0.81819 0.57526 0.0
O197 O 0.63055 0.82642 0.6 0.0
O198 O 0.57024 0.25098 0.87332 0.0
Cd199 Cd 0.55675 0.2282 0.8605 0.0
O200 O 0.55381 0.26606 0.86254 0.0
Cd201 Cd 0.54511 0.28958 0.86066 0.0
O202 O 0.53828 0.31317 0.86651 0.0
C203 C 0.54678 0.32563 0.86329 0.0
O204 O 0.55959 0.32434 0.85562 0.0
C205 C 0.56562 0.26463 0.87088 0.0
C206 C 0.54436 0.20482 0.88142 0.0
O207 O 0.55804 0.20465 0.87632 0.0
O208 O 0.53663 0.21622 0.87685 0.0
O209 O 0.01796 0.43999 0.07187 0.0
Cd210 Cd 0.03425 0.42541 0.0547 0.0
O211 O -0.00114 0.43106 0.05703 0.0
Cd212 Cd 0.97525 0.43002 0.04904 0.0
O213 O 0.95259 0.43079 0.03885 0.0
C214 C 0.94567 0.44331 0.04021 0.0
O215 O 0.95232 0.45546 0.04779 0.0
C216 C 0.00383 0.4391 0.06891 0.0
C217 C 0.04893 0.40279 0.07187 0.0
O218 O 0.05545 0.41663 0.06915 0.0
O219 O 0.0355 0.39964 0.06643 0.0
O220 O 0.98385 0.57914 0.41781 0.0
Cd221 Cd 0.9966 0.59653 0.43752 0.0
O222 O 0.96302 0.57998 0.43183 0.0
Cd223 Cd 0.93874 0.57625 0.43745 0.0
O224 O 0.91512 0.57355 0.44557 0.0
C225 C 0.91201 0.56769 0.45929 0.0
O226 O 0.92312 0.56321 0.46822 0.0
C227 C 0.96982 0.57498 0.41971 0.0
C228 C 0.00959 0.62449 0.42364 0.0
O229 O 0.01733 0.61243 0.42558 0.0
O230 O 0.99571 0.62331 0.42828 0.0
O231 O 0.61778 0.61466 0.74305 0.0
Cd232 Cd 0.60631 0.62826 0.76503 0.0
O233 O 0.64142 0.62077 0.75012 0.0
Cd234 Cd 0.63402 0.63944 0.76535 0.0
O235 O 0.62998 0.66401 0.75962 0.0
C236 C 0.64059 0.67143 0.75164 0.0
O237 O 0.65303 0.66433 0.74888 0.0
C238 C 0.6319 0.61333 0.74103 0.0
C239 C 0.59247 0.60657 0.78682 0.0
O240 O 0.60601 0.61273 0.78911 0.0
O241 O 0.58549 0.61073 0.77429 0.0
O242 O 0.79244 0.4588 0.03155 0.0
Cd243 Cd 0.7865 0.4532 0.00365 0.0
O244 O 0.80657 0.48011 0.024 0.0
Cd245 Cd 0.81132 0.47059 0.00071 0.0
O246 O 0.83362 0.46133 -0.00173 0.0
C247 C 0.84352 0.46809 0.00745 0.0
O248 O 0.83966 0.47995 0.01619 0.0
C249 C 0.80007 0.47168 0.03503 0.0
C250 C 0.7569 0.43984 -0.00015 0.0
O251 O 0.76815 0.43121 -0.00098 0.0
O252 O 0.75961 0.45469 0.00244 0.0
O253 O 0.66097 0.61213 0.6227 0.0
Cd254 Cd 0.66033 0.62296 0.59562 0.0
O255 O 0.63617 0.61223 0.62484 0.0
Cd256 Cd 0.6348 0.62922 0.60531 0.0
O257 O 0.63646 0.65512 0.60416 0.0
C258 C 0.64158 0.66139 0.61696 0.0
O259 O 0.6454 0.65203 0.62861 0.0
C260 C 0.64877 0.60847 0.63044 0.0
C261 C 0.68376 0.61407 0.57617 0.0
O262 O 0.67175 0.6048 0.57847 0.0
O263 O 0.68479 0.62748 0.58321 0.0
H264 H 0.15272 0.15209 0.21071 0.0
H265 H 0.18172 0.16111 0.25178 0.0
H266 H 0.18326 0.18987 0.24549 0.0
H267 H 0.17183 0.18051 0.18485 0.0
H268 H 0.15473 0.18606 0.17539 0.0
H269 H 0.15551 0.16639 0.18354 0.0
H270 H 0.13179 0.17016 0.20093 0.0
H271 H 0.13089 0.18983 0.19279 0.0
H272 H 0.13186 0.18692 0.21403 0.0
H273 H 0.18203 0.21769 0.23405 0.0
H274 H 0.17793 0.2421 0.21875 0.0
H275 H 0.14986 0.21426 0.18527 0.0
C276 C 0.15933 0.16008 0.21848 0.0
C277 C 0.16709 0.15435 0.23176 0.0
C278 C 0.17565 0.16524 0.24157 0.0
C279 C 0.1766 0.18158 0.23807 0.0
C280 C 0.1689 0.18678 0.22477 0.0
C281 C 0.16041 0.17632 0.21517 0.0
C282 C 0.15339 0.18479 0.20144 0.0
C283 C 0.15922 0.1791 0.18536 0.0
C284 C 0.13595 0.18281 0.20236 0.0
C285 C 0.15934 0.20168 0.20471 0.0
C286 C 0.16823 0.20264 0.21823 0.0
C287 C 0.17504 0.21707 0.22348 0.0
C288 C 0.17266 0.23086 0.2147 0.0
C289 C 0.16356 0.2301 0.20082 0.0
C290 C 0.15686 0.21528 0.19583 0.0
H291 H 0.10419 0.85355 0.43099 0.0
H292 H 0.11127 0.83016 0.47625 0.0
H293 H 0.11012 0.80422 0.46262 0.0
H294 H 0.0778 0.82465 0.41425 0.0
H295 H 0.08592 0.82772 0.3946 0.0
H296 H 0.08736 0.84354 0.4087 0.0
H297 H 0.11669 0.84527 0.40378 0.0
H298 H 0.11465 0.82867 0.39048 0.0
H299 H 0.12695 0.82803 0.40751 0.0
H300 H 0.10722 0.78078 0.44389 0.0
H301 H 0.10276 0.76181 0.4218 0.0
H302 H 0.09798 0.80101 0.38904 0.0
C303 C 0.10554 0.84299 0.43807 0.0
C304 C 0.10772 0.84382 0.45469 0.0
C305 C 0.1096 0.82976 0.46349 0.0
C306 C 0.10896 0.815 0.45585 0.0
C307 C 0.10662 0.81461 0.43943 0.0
C308 C 0.10508 0.82828 0.43065 0.0
C309 C 0.10263 0.82477 0.4132 0.0
C310 C 0.0875 0.8305 0.40738 0.0
C311 C 0.11603 0.83212 0.40316 0.0
C312 C 0.10233 0.80687 0.41356 0.0
C313 C 0.1049 0.80123 0.42874 0.0
C314 C 0.1052 0.78507 0.43196 0.0
C315 C 0.10267 0.77441 0.41937 0.0
C316 C 0.09968 0.77995 0.40382 0.0
C317 C 0.09972 0.79641 0.40089 0.0
H318 H 0.4939 0.95726 0.60096 0.0
H319 H 0.48221 0.90928 0.58503 0.0
H320 H 0.45714 0.90939 0.59827 0.0
H321 H 0.47435 0.95445 0.63921 0.0
H322 H 0.46782 0.97406 0.63768 0.0
H323 H 0.48529 0.96975 0.62811 0.0
H324 H 0.47519 0.97938 0.60105 0.0
H325 H 0.45774 0.9838 0.61054 0.0
H326 H 0.45729 0.97071 0.5937 0.0
H327 H 0.43349 0.91479 0.61315 0.0
H328 H 0.41155 0.92605 0.62571 0.0
H329 H 0.43795 0.97128 0.63037 0.0
C330 C 0.48608 0.94674 0.60047 0.0
C331 C 0.4899 0.93321 0.59214 0.0
C332 C 0.47938 0.91975 0.59137 0.0
C333 C 0.46521 0.91968 0.59893 0.0
C334 C 0.46172 0.93324 0.60702 0.0
C335 C 0.47176 0.94661 0.60764 0.0
C336 C 0.46474 0.96007 0.61598 0.0
C337 C 0.47358 0.96486 0.63115 0.0
C338 C 0.46367 0.97433 0.60464 0.0
C339 C 0.44918 0.95218 0.61994 0.0
C340 C 0.44778 0.93662 0.61492 0.0
C341 C 0.43444 0.92695 0.61714 0.0
C342 C 0.42206 0.93345 0.62436 0.0
C343 C 0.42302 0.94956 0.62902 0.0
C344 C 0.43687 0.95893 0.62696 0.0
H345 H 0.3549 0.13614 0.93686 0.0
H346 H 0.38131 0.09803 0.92129 0.0
H347 H 0.3728 0.08216 0.94504 0.0
H348 H 0.36225 0.13173 0.97902 0.0
H349 H 0.34346 0.13635 0.98484 0.0
H350 H 0.35183 0.14465 0.96673 0.0
H351 H 0.32857 0.13291 0.95081 0.0
H352 H 0.32016 0.1245 0.96885 0.0
H353 H 0.32316 0.11193 0.95211 0.0
H354 H 0.36041 0.07008 0.96998 0.0
H355 H 0.34653 0.06342 0.99509 0.0
H356 H 0.32877 0.10975 0.99461 0.0
C357 C 0.35894 0.12448 0.93851 0.0
C358 C 0.36891 0.11836 0.92739 0.0
C359 C 0.37397 0.10308 0.92989 0.0
C360 C 0.36908 0.09393 0.94325 0.0
C361 C 0.35922 0.10032 0.95401 0.0
C362 C 0.35433 0.11531 0.95186 0.0
C363 C 0.34388 0.11951 0.96522 0.0
C364 C 0.35077 0.13391 0.9745 0.0
C365 C 0.32801 0.12238 0.95886 0.0
C366 C 0.34352 0.1045 0.97519 0.0
C367 C 0.35235 0.09351 0.96847 0.0
C368 C 0.35349 0.0786 0.97535 0.0
C369 C 0.34545 0.07486 0.98951 0.0
C370 C 0.33645 0.086 0.99662 0.0
C371 C 0.3356 0.10103 0.98941 0.0
H372 H 0.05139 0.8332 0.40239 0.0
H373 H 0.05463 0.84753 0.35265 0.0
H374 H 0.04348 0.8726 0.3592 0.0
H375 H 0.01605 0.84841 0.41074 0.0
H376 H 0.02131 0.85483 0.4305 0.0
H377 H 0.02994 0.83836 0.42182 0.0
H378 H 0.05649 0.85253 0.42667 0.0
H379 H 0.04814 0.86935 0.43505 0.0
H380 H 0.06111 0.87206 0.41846 0.0
H381 H 0.03074 0.89556 0.37117 0.0
H382 H 0.01758 0.9144 0.38752 0.0
H383 H 0.02373 0.88527 0.42942 0.0
C384 C 0.04978 0.84159 0.39284 0.0
C385 C 0.05383 0.83837 0.37699 0.0
C386 C 0.0516 0.84973 0.36489 0.0
C387 C 0.04531 0.86401 0.3685 0.0
C388 C 0.04144 0.86679 0.38427 0.0
C389 C 0.04365 0.8559 0.39624 0.0
C390 C 0.03841 0.86159 0.4122 0.0
C391 C 0.02567 0.85012 0.41922 0.0
C392 C 0.05183 0.86403 0.42378 0.0
C393 C 0.03254 0.87723 0.4073 0.0
C394 C 0.03448 0.8801 0.39117 0.0
C395 C 0.02938 0.89355 0.38386 0.0
C396 C 0.02205 0.90429 0.39327 0.0
C397 C 0.01993 0.9015 0.4098 0.0
C398 C 0.02529 0.88779 0.41683 0.0
H399 H 0.373 0.96329 0.52954 0.0
H400 H 0.37141 0.93563 0.48622 0.0
H401 H 0.39615 0.92557 0.49315 0.0
H402 H 0.41286 0.97457 0.5286 0.0
H403 H 0.41497 0.97324 0.54989 0.0
H404 H 0.39714 0.97801 0.54152 0.0
H405 H 0.38334 0.95439 0.55691 0.0
H406 H 0.40112 0.94949 0.56532 0.0
H407 H 0.38956 0.93476 0.5545 0.0
H408 H 0.42126 0.91871 0.50497 0.0
H409 H 0.44472 0.91592 0.52037 0.0
H410 H 0.42945 0.94819 0.55582 0.0
C411 C 0.37781 0.95511 0.52147 0.0
C412 C 0.37026 0.95024 0.50732 0.0
C413 C 0.37699 0.93953 0.49712 0.0
C414 C 0.39102 0.93375 0.50097 0.0
C415 C 0.39813 0.9388 0.51505 0.0
C416 C 0.39174 0.94926 0.52511 0.0
C417 C 0.40167 0.953 0.53945 0.0
C418 C 0.40697 0.97076 0.53988 0.0
C419 C 0.39343 0.94758 0.55496 0.0
C420 C 0.41471 0.94301 0.5359 0.0
C421 C 0.41248 0.93488 0.5218 0.0
C422 C 0.42311 0.92501 0.51604 0.0
C423 C 0.43639 0.92349 0.52488 0.0
C424 C 0.43894 0.93182 0.53931 0.0
C425 C 0.42786 0.94163 0.54486 0.0
H426 H 0.42978 0.06119 0.91361 0.0
H427 H 0.41838 0.10623 0.89378 0.0
H428 H 0.40681 0.09241 0.8705 0.0
H429 H 0.43899 0.04299 0.87594 0.0
H430 H 0.43077 0.02365 0.88188 0.0
H431 H 0.43875 0.03716 0.89664 0.0
H432 H 0.41324 0.03485 0.91216 0.0
H433 H 0.40525 0.02123 0.89755 0.0
H434 H 0.39602 0.03893 0.90198 0.0
H435 H 0.39548 0.07353 0.85002 0.0
H436 H 0.38408 0.05095 0.83459 0.0
H437 H 0.40342 0.01827 0.86753 0.0
C438 C 0.42493 0.06814 0.9043 0.0
C439 C 0.42466 0.08473 0.90563 0.0
C440 C 0.41822 0.09345 0.89325 0.0
C441 C 0.41184 0.08572 0.87987 0.0
C442 C 0.41214 0.06931 0.879 0.0
C443 C 0.41849 0.06061 0.8909 0.0
C444 C 0.41668 0.04303 0.88747 0.0
C445 C 0.43223 0.03632 0.88535 0.0
C446 C 0.40723 0.03399 0.90056 0.0
C447 C 0.40814 0.04317 0.87188 0.0
C448 C 0.40575 0.05845 0.86712 0.0
C449 C 0.39741 0.06152 0.85354 0.0
C450 C 0.391 0.04861 0.84483 0.0
C451 C 0.39293 0.03283 0.84977 0.0
C452 C 0.40194 0.03017 0.86327 0.0
H453 H 0.13722 0.2086 0.10445 0.0
H454 H 0.17728 0.19329 0.12805 0.0
H455 H 0.18232 0.21998 0.13936 0.0
H456 H 0.15259 0.2493 0.09534 0.0
H457 H 0.13476 0.25753 0.09925 0.0
H458 H 0.13496 0.23758 0.09197 0.0
H459 H 0.11862 0.22719 0.11612 0.0
H460 H 0.11841 0.24707 0.1235 0.0
H461 H 0.12514 0.2317 0.136 0.0
H462 H 0.1822 0.24776 0.14942 0.0
H463 H 0.17694 0.27485 0.15734 0.0
H464 H 0.13685 0.27204 0.12754 0.0
C465 C 0.14721 0.21093 0.11176 0.0
C466 C 0.1569 0.19886 0.1153 0.0
C467 C 0.16972 0.20234 0.12512 0.0
C468 C 0.17269 0.21748 0.1316 0.0
C469 C 0.16278 0.22902 0.1281 0.0
C470 C 0.15033 0.22597 0.11836 0.0
C471 C 0.14105 0.24024 0.11712 0.0
C472 C 0.14083 0.24653 0.09989 0.0
C473 C 0.12485 0.23631 0.12357 0.0
C474 C 0.15011 0.25171 0.12785 0.0
C475 C 0.16264 0.24502 0.13401 0.0
C476 C 0.17244 0.25313 0.14464 0.0
C477 C 0.16928 0.26843 0.14921 0.0
C478 C 0.15636 0.27538 0.14326 0.0
C479 C 0.14683 0.267 0.13223 0.0
H480 H 0.16975 0.08961 0.19543 0.0
H481 H 0.12237 0.08415 0.20966 0.0
H482 H 0.11478 0.08691 0.18163 0.0
H483 H 0.1667 0.11982 0.17099 0.0
H484 H 0.18 0.11462 0.15596 0.0
H485 H 0.18181 0.10754 0.17599 0.0
H486 H 0.18045 0.07854 0.16612 0.0
H487 H 0.1788 0.08555 0.14591 0.0
H488 H 0.1647 0.07109 0.15401 0.0
H489 H 0.11242 0.0967 0.15377 0.0
H490 H 0.11559 0.11185 0.12856 0.0
H491 H 0.16446 0.11083 0.13229 0.0
C492 C 0.15777 0.08825 0.19259 0.0
C493 C 0.14667 0.08662 0.20475 0.0
C494 C 0.1311 0.0853 0.20055 0.0
C495 C 0.12667 0.08682 0.18462 0.0
C496 C 0.13793 0.08943 0.17301 0.0
C497 C 0.15319 0.08986 0.17678 0.0
C498 C 0.16306 0.09527 0.16267 0.0
C499 C 0.17348 0.11019 0.16665 0.0
C500 C 0.1723 0.0818 0.15683 0.0
C501 C 0.15098 0.0989 0.15075 0.0
C502 C 0.13655 0.09509 0.15676 0.0
C503 C 0.12365 0.09929 0.14873 0.0
C504 C 0.12555 0.10797 0.13444 0.0
C505 C 0.14027 0.11245 0.1284 0.0
C506 C 0.15305 0.10732 0.13641 0.0
H507 H 0.05327 0.94058 0.39092 0.0
H508 H 0.05259 0.98533 0.41545 0.0
H509 H 0.06796 0.9749 0.43729 0.0
H510 H 0.05212 0.9145 0.42507 0.0
H511 H 0.06548 0.90166 0.41696 0.0
H512 H 0.05364 0.91214 0.40382 0.0
H513 H 0.07712 0.92464 0.38876 0.0
H514 H 0.08922 0.91409 0.40158 0.0
H515 H 0.09212 0.93536 0.39966 0.0
H516 H 0.08279 0.95896 0.45677 0.0
H517 H 0.09838 0.94005 0.47079 0.0
H518 H 0.09165 0.90721 0.4317 0.0
C519 C 0.05622 0.94807 0.40101 0.0
C520 C 0.0516 0.96361 0.40178 0.0
C521 C 0.05597 0.97332 0.41485 0.0
C522 C 0.06464 0.96749 0.42726 0.0
C523 C 0.06909 0.95208 0.42615 0.0
C524 C 0.06522 0.94261 0.41322 0.0
C525 C 0.07238 0.92697 0.41423 0.0
C526 C 0.06017 0.91299 0.41509 0.0
C527 C 0.08337 0.92517 0.40023 0.0
C528 C 0.0808 0.92905 0.4298 0.0
C529 C 0.07856 0.94347 0.43666 0.0
C530 C 0.08476 0.94772 0.45142 0.0
C531 C 0.09356 0.93696 0.45929 0.0
C532 C 0.09634 0.9224 0.45214 0.0
C533 C 0.08989 0.91844 0.43723 0.0
H534 H 0.35801 0.99698 0.59418 0.0
H535 H 0.32415 0.97115 0.62406 0.0
H536 H 0.30683 0.96834 0.60105 0.0
H537 H 0.33099 0.01683 0.56746 0.0
H538 H 0.34295 0.01443 0.55036 0.0
H539 H 0.35129 0.01719 0.5698 0.0
H540 H 0.36472 0.99122 0.56656 0.0
H541 H 0.3564 0.98835 0.54724 0.0
H542 H 0.35352 0.97304 0.56224 0.0
H543 H 0.29539 0.96395 0.57391 0.0
H544 H 0.29066 0.95909 0.5453 0.0
H545 H 0.33179 0.98838 0.53352 0.0
C546 C 0.34676 0.99118 0.59605 0.0
C547 C 0.34243 0.98432 0.61094 0.0
C548 C 0.3277 0.9766 0.61279 0.0
C549 C 0.31776 0.97496 0.59979 0.0
C550 C 0.32267 0.98129 0.58509 0.0
C551 C 0.33677 0.98944 0.58323 0.0
C552 C 0.34012 0.99352 0.56594 0.0
C553 C 0.34141 0.01157 0.56324 0.0
C554 C 0.35453 0.98608 0.56017 0.0
C555 C 0.32599 0.98581 0.55826 0.0
C556 C 0.31595 0.97898 0.56947 0.0
C557 C 0.30296 0.96961 0.56504 0.0
C558 C 0.30038 0.96688 0.54877 0.0
C559 C 0.31076 0.97349 0.53716 0.0
C560 C 0.32344 0.98346 0.54205 0.0
H561 H 0.32294 0.03649 0.94341 0.0
H562 H 0.31724 0.99037 0.96671 0.0
H563 H 0.32094 0.97745 0.94084 0.0
H564 H 0.30429 0.02475 0.90573 0.0
H565 H 0.31755 0.03742 0.8941 0.0
H566 H 0.31289 0.04282 0.91412 0.0
H567 H 0.34145 0.04474 0.92151 0.0
H568 H 0.34619 0.0394 0.90155 0.0
H569 H 0.35236 0.02794 0.91816 0.0
H570 H 0.32789 0.96983 0.91278 0.0
H571 H 0.33764 0.96828 0.88523 0.0
H572 H 0.33805 0.01946 0.88067 0.0
C573 C 0.32222 0.02365 0.94308 0.0
C574 C 0.31978 0.01444 0.95709 0.0
C575 C 0.31905 0.99768 0.95612 0.0
C576 C 0.3211 0.99024 0.94147 0.0
C577 C 0.32371 -0.00028 0.92792 0.0
C578 C 0.32418 0.01607 0.92862 0.0
C579 C 0.32812 0.02367 0.91262 0.0
C580 C 0.31492 0.03269 0.90627 0.0
C581 C 0.34291 0.03457 0.91352 0.0
C582 C 0.33021 0.00908 0.90288 0.0
C583 C 0.3275 0.99534 0.91182 0.0
C584 C 0.32981 0.98049 0.9056 0.0
C585 C 0.33534 0.97972 0.88994 0.0
C586 C 0.33852 0.99373 0.88075 0.0
C587 C 0.33554 0.0085 0.88726 0.0
H588 H 0.59898 0.32282 0.93853 0.0
H589 H 0.60492 0.35903 0.90153 0.0
H590 H 0.59725 0.33914 0.88132 0.0
H591 H 0.61179 0.28973 0.91477 0.0
H592 H 0.59771 0.27553 0.92333 0.0
H593 H 0.60519 0.29222 0.93485 0.0
H594 H 0.57788 0.30032 0.93963 0.0
H595 H 0.57033 0.28372 0.9281 0.0
H596 H 0.56585 0.3035 0.92279 0.0
H597 H 0.5874 0.31618 0.86539 0.0
H598 H 0.5747 0.29147 0.85468 0.0
H599 H 0.57517 0.26971 0.90158 0.0
C600 C 0.59896 0.32648 0.92614 0.0
C601 C 0.60266 0.34246 0.9216 0.0
C602 C 0.60221 0.34685 0.9053 0.0
C603 C 0.59792 0.33563 0.8937 0.0
C604 C 0.59416 0.32004 0.89857 0.0
C605 C 0.59464 0.31541 0.91437 0.0
C606 C 0.58898 0.29811 0.91646 0.0
C607 C 0.60168 0.28832 0.92272 0.0
C608 C 0.57492 0.29632 0.92739 0.0
C609 C 0.58494 0.29388 0.89942 0.0
C610 C 0.58818 0.3067 0.88931 0.0
C611 C 0.58481 0.30605 0.87315 0.0
C612 C 0.57759 0.29203 0.8672 0.0
C613 C 0.57397 0.27884 0.87736 0.0
C614 C 0.57796 0.27965 0.8936 0.0
H615 H 0.97523 0.42848 0.07856 0.0
H616 H 0.00929 0.46799 0.08281 0.0
H617 H 0.99198 0.48172 0.10027 0.0
H618 H 0.942 0.45111 0.07801 0.0
H619 H 0.93093 0.43626 0.08947 0.0
H620 H 0.94609 0.43059 0.0769 0.0
H621 H 0.95757 0.41726 0.10178 0.0
H622 H 0.94269 0.42379 0.11425 0.0
H623 H 0.96229 0.4291 0.11907 0.0
H624 H 0.97025 0.49164 0.11607 0.0
H625 H 0.94633 0.49641 0.13003 0.0
H626 H 0.92735 0.44955 0.11669 0.0
C627 C 0.97893 0.44014 0.08295 0.0
C628 C 0.99343 0.44737 0.07911 0.0
C629 C -0.00185 0.46234 0.08556 0.0
C630 C 0.9884 0.47021 0.09545 0.0
C631 C 0.97412 0.46277 0.09897 0.0
C632 C 0.96944 0.44802 0.093 0.0
C633 C 0.95372 0.4424 0.09892 0.0
C634 C 0.94254 0.43995 0.08498 0.0
C635 C 0.9541 0.42724 0.10911 0.0
C636 C 0.95015 0.45641 0.10894 0.0
C637 C 0.96201 0.46809 0.10877 0.0
C638 C 0.96096 0.4825 0.11645 0.0
C639 C 0.94736 0.48511 0.12433 0.0
C640 C 0.93508 0.47328 0.12462 0.0
C641 C 0.93664 0.45869 0.11698 0.0
H642 H 0.88653 0.57678 0.44422 0.0
H643 H 0.90154 0.55465 0.48763 0.0
H644 H 0.87503 0.55145 0.49727 0.0
H645 H 0.85694 0.59817 0.46242 0.0
H646 H 0.84423 0.59505 0.44581 0.0
H647 H 0.86446 0.59617 0.44263 0.0
H648 H 0.86195 0.5687 0.42904 0.0
H649 H 0.84173 0.56754 0.4321 0.0
H650 H 0.85263 0.55195 0.43953 0.0
H651 H 0.84662 0.54942 0.50153 0.0
H652 H 0.81862 0.54855 0.4999 0.0
H653 H 0.82248 0.57258 0.454 0.0
C654 C 0.88428 0.57135 0.4558 0.0
C655 C 0.89614 0.56598 0.46517 0.0
C656 C 0.89267 0.55888 0.48024 0.0
C657 C 0.87764 0.55704 0.48584 0.0
C658 C 0.86622 0.56244 0.47628 0.0
C659 C 0.86938 0.56947 0.4616 0.0
C660 C 0.85503 0.57384 0.45342 0.0
C661 C 0.85518 0.59188 0.45093 0.0
C662 C 0.8527 0.56497 0.43759 0.0
C663 C 0.84328 0.56797 0.4657 0.0
C664 C 0.84994 0.56147 0.47883 0.0
C665 C 0.84128 0.55462 0.49138 0.0
C666 C 0.82539 0.55419 0.49035 0.0
C667 C 0.81834 0.5606 0.47689 0.0
C668 C 0.82749 0.56778 0.46456 0.0
H669 H 0.90458 0.51378 0.38621 0.0
H670 H 0.92439 0.52206 0.33919 0.0
H671 H 0.94501 0.53962 0.35091 0.0
H672 H 0.91159 0.5529 0.40003 0.0
H673 H 0.91594 0.54723 0.42014 0.0
H674 H 0.90333 0.53443 0.40829 0.0
H675 H 0.92035 0.51123 0.4129 0.0
H676 H 0.93293 0.52394 0.4249 0.0
H677 H 0.94029 0.51393 0.40804 0.0
H678 H 0.96279 0.55725 0.36761 0.0
H679 H 0.97645 0.57355 0.38808 0.0
H680 H 0.94516 0.55335 0.42411 0.0
C681 C 0.91335 0.51908 0.37837 0.0
C682 C 0.91288 0.51648 0.36176 0.0
C683 C 0.92452 0.52382 0.35194 0.0
C684 C 0.93628 0.53382 0.35849 0.0
C685 C 0.93624 0.53633 0.37486 0.0
C686 C 0.92512 0.52912 0.38468 0.0
C687 C 0.92738 0.5342 0.40182 0.0
C688 C 0.91375 0.54269 0.40792 0.0
C689 C 0.93042 0.51998 0.41254 0.0
C690 C 0.94139 0.54558 0.40006 0.0
C691 C 0.94637 0.54659 0.38444 0.0
C692 C 0.95901 0.55652 0.37988 0.0
C693 C 0.9667 0.56571 0.39159 0.0
C694 C 0.96165 0.56501 0.40763 0.0
C695 C 0.94896 0.55463 0.41189 0.0
H696 H 0.55865 0.41902 0.87794 0.0
H697 H 0.51363 0.41586 0.89919 0.0
H698 H 0.51111 0.38706 0.89429 0.0
H699 H 0.55065 0.39082 0.84706 0.0
H700 H 0.56876 0.38247 0.84838 0.0
H701 H 0.56714 0.40283 0.85374 0.0
H702 H 0.57838 0.3974 0.88156 0.0
H703 H 0.58007 0.37702 0.87626 0.0
H704 H 0.56961 0.38163 0.89385 0.0
H705 H 0.5133 0.3587 0.88678 0.0
H706 H 0.52021 0.33262 0.87752 0.0
H707 H 0.56386 0.35417 0.86127 0.0
C708 C 0.54825 0.41228 0.88154 0.0
C709 C 0.5363 0.41971 0.88888 0.0
C710 C 0.52293 0.41044 0.89354 0.0
C711 C 0.52139 0.39407 0.8908 0.0
C712 C 0.53335 0.38712 0.88349 0.0
C713 C 0.54655 0.3959 0.87898 0.0
C714 C 0.55772 0.3855 0.87141 0.0
C715 C 0.56127 0.39072 0.85412 0.0
C716 C 0.5723 0.38538 0.88136 0.0
C717 C 0.54862 0.36955 0.87213 0.0
C718 C 0.53463 0.37075 0.87921 0.0
C719 C 0.52423 0.35761 0.88123 0.0
C720 C 0.52826 0.34284 0.87592 0.0
C721 C 0.54255 0.34133 0.86861 0.0
C722 C 0.55282 0.35492 0.86672 0.0
H723 H 0.66128 0.68977 0.73389 0.0
H724 H 0.61482 0.68768 0.75123 0.0
H725 H 0.61052 0.71171 0.73541 0.0
H726 H 0.66786 0.73336 0.73249 0.0
H727 H 0.67905 0.733 0.71454 0.0
H728 H 0.67882 0.71673 0.72856 0.0
H729 H 0.67038 0.69714 0.70613 0.0
H730 H 0.67049 0.71333 0.69208 0.0
H731 H 0.65352 0.7003 0.69487 0.0
H732 H 0.61063 0.73433 0.71536 0.0
H733 H 0.61543 0.75412 0.69369 0.0
H734 H 0.66191 0.74131 0.69001 0.0
C735 C 0.65027 0.69451 0.73464 0.0
C736 C 0.63839 0.68685 0.74384 0.0
C737 C 0.62412 0.69339 0.74434 0.0
C738 C 0.62157 0.70703 0.73538 0.0
C739 C 0.63344 0.71405 0.72611 0.0
C740 C 0.64756 0.70808 0.72583 0.0
C741 C 0.65818 0.71721 0.71424 0.0
C742 C 0.67178 0.72557 0.72299 0.0
C743 C 0.66344 0.70635 0.70106 0.0
C744 C 0.64775 0.72903 0.70774 0.0
C745 C 0.63355 0.7271 0.71477 0.0
C746 C 0.62178 0.73609 0.70996 0.0
C747 C 0.6246 0.74727 0.69761 0.0
C748 C 0.63908 0.74935 0.69023 0.0
C749 C 0.65079 0.74019 0.69555 0.0
H750 H 0.92594 0.46617 0.04524 0.0
H751 H 0.93086 0.42264 0.01944 0.0
H752 H 0.90552 0.42458 0.00751 0.0
H753 H 0.88628 0.45833 0.0542 0.0
H754 H 0.88213 0.47875 0.05195 0.0
H755 H 0.90075 0.47403 0.05815 0.0
H756 H 0.91275 0.49074 0.03463 0.0
H757 H 0.89415 0.49546 0.02832 0.0
H758 H 0.90653 0.48642 0.0146 0.0
H759 H 0.87954 0.43143 -0.00171 0.0
H760 H 0.85458 0.44198 0.99359 0.0
H761 H 0.86682 0.4807 0.02582 0.0
C762 C 0.92173 0.45706 0.03704 0.0
C763 C 0.93041 0.44429 0.03321 0.0
C764 C 0.9244 0.43254 0.02255 0.0
C765 C 0.91005 0.43355 0.01568 0.0
C766 C 0.90181 0.44634 0.01966 0.0
C767 C 0.9074 0.45783 0.03018 0.0
C768 C 0.89616 0.47017 0.03279 0.0
C769 C 0.89103 0.47032 0.05031 0.0
C770 C 0.9028 0.48667 0.02725 0.0
C771 C 0.88339 0.46386 0.02207 0.0
C772 C 0.88686 0.45015 0.01453 0.0
C773 C 0.87671 0.44216 0.00413 0.0
C774 C 0.86258 0.44826 0.0015 0.0
C775 C 0.85874 0.46217 0.00931 0.0
C776 C 0.86939 0.47006 0.01962 0.0
H777 H 0.63401 0.75251 0.59381 0.0
H778 H 0.65503 0.76447 0.63911 0.0
H779 H 0.65579 0.73603 0.6456 0.0
H780 H 0.61123 0.71709 0.60705 0.0
H781 H 0.61433 0.70634 0.58906 0.0
H782 H 0.61451 0.72765 0.58845 0.0
H783 H 0.64135 0.7294 0.57571 0.0
H784 H 0.64128 0.70811 0.57633 0.0
H785 H 0.65645 0.72014 0.58565 0.0
H786 H 0.65501 0.70653 0.6468 0.0
H787 H 0.65292 0.67765 0.64274 0.0
H788 H 0.63328 0.68453 0.59607 0.0
C789 C 0.63861 0.74909 0.60516 0.0
C790 C 0.64385 0.76064 0.61632 0.0
C791 C 0.65015 0.75578 0.63085 0.0
C792 C 0.65086 0.73967 0.6345 0.0
C793 C 0.64544 0.72856 0.62334 0.0
C794 C 0.63947 0.73302 0.60894 0.0
C795 C 0.63491 0.71867 0.59885 0.0
C796 C 0.61773 0.71736 0.59567 0.0
C797 C 0.64405 0.71911 0.58321 0.0
C798 C 0.63933 0.70547 0.6098 0.0
C799 C 0.64534 0.71147 0.62387 0.0
C800 C 0.65031 0.70167 0.63584 0.0
C801 C 0.64908 0.68527 0.6334 0.0
C802 C 0.64295 0.6788 0.61908 0.0
C803 C 0.63804 0.6891 0.60713 0.0
H804 H 0.61477 0.60233 0.71596 0.0
H805 H 0.66113 0.60753 0.7331 0.0
H806 H 0.67032 0.60041 0.70655 0.0
H807 H 0.62038 0.57033 0.68489 0.0
H808 H 0.60776 0.57947 0.67143 0.0
H809 H 0.6046 0.58019 0.69262 0.0
H810 H 0.60502 0.61082 0.69087 0.0
H811 H 0.60829 0.61023 0.66983 0.0
H812 H 0.62133 0.62196 0.68227 0.0
H813 H 0.67475 0.59885 0.67728 0.0
H814 H 0.674 0.6035 0.64827 0.0
H815 H 0.62477 0.59985 0.65006 0.0
C816 C 0.62681 0.60127 0.71435 0.0
C817 C 0.63722 0.6054 0.72664 0.0
C818 C 0.65292 0.6043 0.7239 0.0
C819 C 0.65825 0.60021 0.70885 0.0
C820 C 0.64772 0.59711 0.69671 0.0
C821 C 0.63228 0.5974 0.69937 0.0
C822 C 0.62349 0.59631 0.68393 0.0
C823 C 0.61347 0.58064 0.68318 0.0
C824 C 0.614 0.61069 0.6816 0.0
C825 C 0.63643 0.59651 0.67208 0.0
C826 C 0.6503 0.59646 0.67966 0.0
C827 C 0.66394 0.59847 0.67121 0.0
C828 C 0.66341 0.60114 0.6547 0.0
C829 C 0.64932 0.60203 0.64687 0.0
C830 C 0.63571 0.59904 0.65565 0.0
H831 H 0.6056 0.42217 0.92434 0.0
H832 H 0.59407 0.42221 0.9746 0.0
H833 H 0.58069 0.4465 0.97048 0.0
H834 H 0.61129 0.46481 0.9187 0.0
H835 H 0.60274 0.4644 0.89923 0.0
H836 H 0.61217 0.4476 0.90633 0.0
H837 H 0.58766 0.42916 0.90162 0.0
H838 H 0.57845 0.44597 0.89427 0.0
H839 H 0.57004 0.43411 0.91045 0.0
H840 H 0.56854 0.47068 0.96086 0.0
H841 H 0.55709 0.49218 0.94611 0.0
H842 H 0.57577 0.47572 0.90201 0.0
C843 C 0.60043 0.42741 0.93452 0.0
C844 C 0.60098 0.42042 0.94982 0.0
C845 C 0.59381 0.42742 0.96278 0.0
C846 C 0.58622 0.44122 0.96057 0.0
C847 C 0.58578 0.44773 0.94529 0.0
C848 C 0.59261 0.44102 0.93247 0.0
C849 C 0.58987 0.44991 0.91715 0.0
C850 C 0.60491 0.45711 0.90993 0.0
C851 C 0.58097 0.43914 0.90518 0.0
C852 C 0.58036 0.46266 0.92336 0.0
C853 C 0.57827 0.46129 0.93964 0.0
C854 C 0.57004 0.47183 0.9481 0.0
C855 C 0.56363 0.48401 0.93965 0.0
C856 C 0.56532 0.48537 0.92292 0.0
C857 C 0.57394 0.47466 0.91473 0.0
H858 H 0.82117 0.49418 0.04584 0.0
H859 H 0.78707 0.45782 0.0621 0.0
H860 H 0.79598 0.4618 0.08977 0.0
H861 H 0.8497 0.48174 0.06844 0.0
H862 H 0.85877 0.50112 0.07244 0.0
H863 H 0.84767 0.49794 0.05472 0.0
H864 H 0.83096 0.52048 0.06271 0.0
H865 H 0.84211 0.52383 0.08047 0.0
H866 H 0.8218 0.51985 0.08194 0.0
H867 H 0.81116 0.46692 0.11487 0.0
H868 H 0.83144 0.47215 0.13477 0.0
H869 H 0.85577 0.50464 0.10156 0.0
C870 C 0.81518 0.48743 0.05526 0.0
C871 C 0.80331 0.4758 0.05182 0.0
C872 C 0.7961 0.46691 0.06447 0.0
C873 C 0.80106 0.46912 0.08023 0.0
C874 C 0.8132 0.48029 0.08311 0.0
C875 C 0.8201 0.48935 0.07094 0.0
C876 C 0.83414 0.49901 0.07664 0.0
C877 C 0.84839 0.49468 0.06753 0.0
C878 C 0.83212 0.51685 0.07537 0.0
C879 C 0.8344 0.49357 0.09382 0.0
C880 C 0.82211 0.483 0.09744 0.0
C881 C 0.82067 0.47541 0.11225 0.0
C882 C 0.83226 0.47845 0.12348 0.0
C883 C 0.84519 0.48883 0.11975 0.0
C884 C 0.84598 0.49677 0.10487 0.0
H885 H 0.82609 0.47204 0.4008 0.0
H886 H 0.81597 0.49434 0.35579 0.0
H887 H 0.79301 0.5042 0.36769 0.0
H888 H 0.78485 0.46358 0.41512 0.0
H889 H 0.79047 0.46835 0.43523 0.0
H890 H 0.80335 0.45921 0.42213 0.0
H891 H 0.82386 0.4822 0.42727 0.0
H892 H 0.8111 0.4914 0.44024 0.0
H893 H 0.81946 0.50234 0.42345 0.0
H894 H 0.77515 0.51676 0.38568 0.0
H895 H 0.76432 0.53091 0.40802 0.0
H896 H 0.78588 0.50047 0.44143 0.0
C897 C 0.8187 0.47841 0.39324 0.0
C898 C 0.82281 0.48238 0.37736 0.0
C899 C 0.81302 0.49108 0.36797 0.0
C900 C 0.7999 0.49667 0.37462 0.0
C901 C 0.79662 0.49331 0.39061 0.0
C902 C 0.80565 0.48417 0.39975 0.0
C903 C 0.80119 0.48437 0.41716 0.0
C904 C 0.79457 0.4679 0.42273 0.0
C905 C 0.8147 0.49045 0.42762 0.0
C906 C 0.78903 0.496 0.41657 0.0
C907 C 0.78622 0.50067 0.40111 0.0
C908 C 0.77693 0.51287 0.39779 0.0
C909 C 0.77085 0.52088 0.41057 0.0
C910 C 0.77423 0.51678 0.42648 0.0
C911 C 0.78287 0.50371 0.42942 0.0
H912 H 0.11859 0.3659 0.115 0.0
H913 H 0.08687 0.32729 0.13132 0.0
H914 H 0.06616 0.33916 0.11688 0.0
H915 H 0.09307 0.39638 0.11912 0.0
H916 H 0.10003 0.40733 0.10173 0.0
H917 H 0.11247 0.39541 0.11273 0.0
H918 H 0.11813 0.38015 0.08705 0.0
H919 H 0.10571 0.39203 0.07596 0.0
H920 H 0.1026 0.37072 0.07587 0.0
H921 H 0.04896 0.3552 0.10056 0.0
H922 H 0.03623 0.37493 0.08464 0.0
H923 H 0.07902 0.40361 0.07998 0.0
C924 C 0.10731 0.35988 0.11544 0.0
C925 C 0.10434 0.34563 0.1242 0.0
C926 C 0.08939 0.33822 0.12467 0.0
C927 C 0.07757 0.34484 0.11648 0.0
C928 C 0.08087 0.35894 0.108 0.0
C929 C 0.09535 0.36643 0.10751 0.0
C930 C 0.09577 0.38177 0.09802 0.0
C931 C 0.10062 0.39606 0.10853 0.0
C932 C 0.10617 0.38112 0.08336 0.0
C933 C 0.07926 0.38175 0.09326 0.0
C934 C 0.07088 0.36841 0.09902 0.0
C935 C 0.0554 0.3657 0.09602 0.0
C936 C 0.04828 0.37697 0.08695 0.0
C937 C 0.05662 0.39083 0.08112 0.0
C938 C 0.07232 0.39318 0.08434 0.0
H939 H 0.07705 0.68435 0.39074 0.0
H940 H 0.0434 0.71774 0.38054 0.0
H941 H 0.02319 0.69827 0.39052 0.0
H942 H 0.054 0.64914 0.37918 0.0
H943 H 0.06121 0.63699 0.39473 0.0
H944 H 0.07297 0.65352 0.38663 0.0
H945 H 0.07674 0.66503 0.41496 0.0
H946 H 0.06497 0.64856 0.42313 0.0
H947 H 0.06035 0.66857 0.42685 0.0
H948 H 0.00676 0.67544 0.4024 0.0
H949 H 0.99521 0.65059 0.4145 0.0
H950 H 0.03959 0.632 0.41634 0.0
C951 C 0.06543 0.68757 0.39056 0.0
C952 C 0.06181 0.70258 0.38488 0.0
C953 C 0.04645 0.7063 0.38482 0.0
C954 C 0.03489 0.69533 0.39048 0.0
C955 C 0.03887 0.68067 0.39606 0.0
C956 C 0.05376 0.67674 0.39607 0.0
C957 C 0.05502 0.6602 0.40271 0.0
C958 C 0.06116 0.64932 0.39006 0.0
C959 C 0.06485 0.66063 0.41781 0.0
C960 C 0.03852 0.65547 0.40656 0.0
C961 C 0.02939 0.66745 0.40266 0.0
C962 C 0.01378 0.66594 0.40542 0.0
C963 C 0.00733 0.6518 0.41232 0.0
C964 C 0.01648 0.63934 0.41632 0.0
C965 C 0.03227 0.64125 0.41334 0.0
H966 H 0.6138 0.84955 0.60522 0.0
H967 H 0.60455 0.82454 0.561 0.0
H968 H 0.58414 0.84202 0.55502 0.0
H969 H 0.57429 0.85773 0.61442 0.0
H970 H 0.57994 0.87715 0.62204 0.0
H971 H 0.59257 0.8615 0.6237 0.0
H972 H 0.61365 0.87923 0.60917 0.0
H973 H 0.60109 0.89488 0.6074 0.0
H974 H 0.60982 0.88745 0.58985 0.0
H975 H 0.56613 0.86349 0.55287 0.0
H976 H 0.55218 0.88759 0.55449 0.0
H977 H 0.57363 0.8989 0.59985 0.0
C978 C 0.60726 0.84752 0.59445 0.0
C979 C 0.61068 0.83561 0.58363 0.0
C980 C 0.60208 0.83355 0.56949 0.0
C981 C 0.59044 0.84339 0.56601 0.0
C982 C 0.58757 0.85523 0.57678 0.0
C983 C 0.59571 0.85731 0.59073 0.0
C984 C 0.59115 0.87164 0.59972 0.0
C985 C 0.58406 0.86671 0.61593 0.0
C986 C 0.60474 0.88403 0.60164 0.0
C987 C 0.57941 0.8775 0.58848 0.0
C988 C 0.57737 0.86776 0.57542 0.0
C989 C 0.56753 0.87111 0.56312 0.0
C990 C 0.55967 0.88485 0.56414 0.0
C991 C 0.56179 0.89513 0.5773 0.0
C992 C 0.57169 0.89125 0.58968 0.0
H993 H 0.47663 0.15321 0.92476 0.0
H994 H 0.50884 0.11856 0.93587 0.0
H995 H 0.5295 0.13632 0.92407 0.0
H996 H 0.49207 0.16472 0.88722 0.0
H997 H 0.48868 0.18535 0.88912 0.0
H998 H 0.47664 0.17042 0.89946 0.0
H999 H 0.4826 0.18453 0.92623 0.0
H1000 H 0.49466 0.19953 0.91596 0.0
H1001 H 0.50209 0.18854 0.93226 0.0
H1002 H 0.54638 0.15723 0.90977 0.0
H1003 H 0.55821 0.17965 0.89388 0.0
H1004 H 0.51493 0.2006 0.89212 0.0
C1005 C 0.48806 0.14943 0.92489 0.0
C1006 C 0.49113 0.13451 0.93129 0.0
C1007 C 0.50622 0.12994 0.93107 0.0
C1008 C 0.51803 0.13996 0.92442 0.0
C1009 C 0.51458 0.15452 0.91807 0.0
C1010 C 0.49997 0.15926 0.91828 0.0
C1011 C 0.49917 0.17519 0.91008 0.0
C1012 C 0.48851 0.17383 0.89561 0.0
C1013 C 0.49435 0.18769 0.92184 0.0
C1014 C 0.51557 0.17856 0.905 0.0
C1015 C 0.5243 0.16654 0.90981 0.0
C1016 C 0.53969 0.16677 0.90604 0.0
C1017 C 0.54629 0.17955 0.897 0.0
C1018 C 0.53751 0.1919 0.89179 0.0
C1019 C 0.52198 0.19141 0.89601 0.0
H1020 H 0.07543 0.01356 0.3241 0.0
H1021 H 0.04809 0.04893 0.34418 0.0
H1022 H 0.06405 0.07006 0.3302 0.0
H1023 H 0.11129 0.03659 0.32724 0.0
H1024 H 0.11862 0.02941 0.30885 0.0
H1025 H 0.10491 0.01711 0.32028 0.0
H1026 H 0.08731 0.01436 0.29566 0.0
H1027 H 0.10097 0.02664 0.28416 0.0
H1028 H 0.08168 0.03197 0.28579 0.0
H1029 H 0.0827 0.08724 0.31348 0.0
H1030 H 0.10319 0.09927 0.29607 0.0
H1031 H 0.11872 0.05261 0.28778 0.0
C1032 C 0.07276 0.02574 0.32553 0.0
C1033 C 0.06048 0.0296 0.33517 0.0
C1034 C 0.05745 0.0457 0.33685 0.0
C1035 C 0.06643 0.05778 0.32895 0.0
C1036 C 0.07846 0.05355 0.31953 0.0
C1037 C 0.08168 0.03793 0.31787 0.0
C1038 C 0.09537 0.03655 0.30725 0.0
C1039 C 0.10831 0.0295 0.31646 0.0
C1040 C 0.09107 0.02681 0.29233 0.0
C1041 C 0.0993 0.05383 0.3031 0.0
C1042 C 0.08939 0.06345 0.31024 0.0
C1043 C 0.09058 0.07983 0.30789 0.0
C1044 C 0.10223 0.08654 0.29797 0.0
C1045 C 0.11258 0.07689 0.29063 0.0
C1046 C 0.11106 0.06033 0.29331 0.0
H1047 H 0.18923 0.89315 0.4628 0.0
H1048 H 0.16641 0.93294 0.48069 0.0
H1049 H 0.19126 0.94801 0.48454 0.0
H1050 H 0.2194 0.89658 0.49113 0.0
H1051 H 0.23364 0.8907 0.47745 0.0
H1052 H 0.21406 0.88357 0.47486 0.0
H1053 H 0.21476 0.89479 0.44603 0.0
H1054 H 0.23434 0.902 0.44854 0.0
H1055 H 0.22054 0.91546 0.44258 0.0
H1056 H 0.21849 0.95883 0.48602 0.0
H1057 H 0.24637 0.96363 0.48806 0.0
H1058 H 0.25154 0.91592 0.47154 0.0
C1059 C 0.18951 0.9051 0.46737 0.0
C1060 C 0.17597 0.912 0.4713 0.0
C1061 C 0.1767 0.9275 0.47759 0.0
C1062 C 0.19073 0.93615 0.47974 0.0
C1063 C 0.2039 0.92901 0.4758 0.0
C1064 C 0.20344 0.91375 0.46997 0.0
C1065 C 0.21928 0.90842 0.46778 0.0
C1066 C 0.22174 0.89397 0.47844 0.0
C1067 C 0.22241 0.90497 0.45018 0.0
C1068 C 0.22872 0.92306 0.4733 0.0
C1069 C 0.21962 0.9349 0.47758 0.0
C1070 C 0.22573 0.94963 0.48278 0.0
C1071 C 0.24156 0.95227 0.48384 0.0
C1072 C 0.25106 0.94012 0.48004 0.0
C1073 C 0.24452 0.92537 0.47463 0.0
H1074 H 0.36776 0.97405 0.77155 0.0
H1075 H 0.35673 0.0229 0.76619 0.0
H1076 H 0.36004 0.02111 0.73706 0.0
H1077 H 0.39589 0.97421 0.73988 0.0
H1078 H 0.38982 0.95444 0.73351 0.0
H1079 H 0.38756 0.95986 0.75402 0.0
H1080 H 0.35879 0.95129 0.75251 0.0
H1081 H 0.36096 0.94583 0.73201 0.0
H1082 H 0.34744 0.95978 0.73733 0.0
H1083 H 0.36441 0.01398 0.70857 0.0
H1084 H 0.36768 0.00146 0.68249 0.0
H1085 H 0.37451 0.95681 0.70628 0.0
C1086 C 0.3662 0.98442 0.76425 0.0
C1087 C 0.36211 -0.00134 0.7711 0.0
C1088 C 0.35989 0.01188 0.76116 0.0
C1089 C 0.36179 0.011 0.74462 0.0
C1090 C 0.36577 0.99676 0.73822 0.0
C1091 C 0.36782 0.98366 0.7477 0.0
C1092 C 0.37121 0.96951 0.73774 0.0
C1093 C 0.38706 0.9642 0.74151 0.0
C1094 C 0.35886 0.9558 0.74004 0.0
C1095 C 0.37067 0.97669 0.72119 0.0
C1096 C 0.36772 0.99247 0.72175 0.0
C1097 C 0.36671 0.00163 0.70798 0.0
C1098 C 0.36862 0.99441 0.69323 0.0
C1099 C 0.37131 0.97815 0.69236 0.0
C1100 C 0.37242 0.96924 0.70656 0.0
H1101 H 0.20373 0.12125 0.06189 0.0
H1102 H 0.21833 0.16209 0.09049 0.0
H1103 H 0.24511 0.15707 0.08557 0.0
H1104 H 0.2313 0.09664 0.0757 0.0
H1105 H 0.23401 0.08732 0.0568 0.0
H1106 H 0.21607 0.09489 0.06144 0.0
H1107 H 0.21794 0.11224 0.0358 0.0
H1108 H 0.23589 0.10467 0.03105 0.0
H1109 H 0.23449 0.12575 0.03247 0.0
H1110 H 0.27023 0.14671 0.07877 0.0
H1111 H 0.29182 0.13168 0.07079 0.0
H1112 H 0.26071 0.09747 0.04687 0.0
C1113 C 0.21255 0.12929 0.06692 0.0
C1114 C 0.20894 0.14211 0.07651 0.0
C1115 C 0.22083 0.15222 0.08307 0.0
C1116 C 0.23607 0.14948 0.08032 0.0
C1117 C 0.23923 0.1366 0.07099 0.0
C1118 C 0.2278 0.12669 0.06436 0.0
C1119 C 0.2342 0.11322 0.05547 0.0
C1120 C 0.22856 0.09706 0.0628 0.0
C1121 C 0.23041 0.11403 0.03764 0.0
C1122 C 0.25101 0.11696 0.05832 0.0
C1123 C 0.25368 0.13056 0.06719 0.0
C1124 C 0.26829 0.13611 0.07172 0.0
C1125 C 0.28047 0.12748 0.06714 0.0
C1126 C 0.27797 0.11341 0.05818 0.0
C1127 C 0.26302 0.10821 0.05364 0.0
H1128 H 0.68929 0.38925 0.95674 0.0
H1129 H 0.65869 0.40794 0.99103 0.0
H1130 H 0.68055 0.42196 0.00458 0.0
H1131 H 0.71958 0.38299 0.98558 0.0
H1132 H 0.7345 0.38828 0.97138 0.0
H1133 H 0.71647 0.37936 0.96469 0.0
H1134 H 0.71394 0.40309 0.9454 0.0
H1135 H 0.73191 0.41212 0.95208 0.0
H1136 H 0.71517 0.42295 0.95315 0.0
H1137 H 0.70534 0.43627 0.01243 0.0
H1138 H 0.73186 0.44732 0.01617 0.0
H1139 H 0.74664 0.4173 0.97856 0.0
C1140 C 0.68723 0.39617 0.9672 0.0
C1141 C 0.67233 0.39759 0.97283 0.0
C1142 C 0.67005 0.40666 0.98659 0.0
C1143 C 0.68237 0.4147 0.99432 0.0
C1144 C 0.69692 0.41324 0.98834 0.0
C1145 C 0.69944 0.40395 0.97529 0.0
C1146 C 0.71622 0.4043 0.97136 0.0
C1147 C 0.72203 0.38775 0.97338 0.0
C1148 C 0.7195 0.41102 0.9545 0.0
C1149 C 0.72268 0.41556 0.98398 0.0
C1150 C 0.71133 0.4207 0.99355 0.0
C1151 C 0.71436 0.43209 0.00524 0.0
C1152 C 0.7294 0.43834 0.00723 0.0
C1153 C 0.74121 0.43295 0.99781 0.0
C1154 C 0.73782 0.42133 0.98614 0.0
H1155 H 0.88887 0.46083 0.20572 0.0
H1156 H 0.8808 0.50781 0.18803 0.0
H1157 H 0.87873 0.51713 0.21563 0.0
H1158 H 0.86306 0.46005 0.23837 0.0
H1159 H 0.87498 0.44978 0.2517 0.0
H1160 H 0.87627 0.44688 0.23054 0.0
H1161 H 0.90512 0.45523 0.23134 0.0
H1162 H 0.90392 0.45812 0.25251 0.0
H1163 H 0.91164 0.47406 0.23978 0.0
H1164 H 0.87632 0.52103 0.24508 0.0
H1165 H 0.87481 0.51952 0.27442 0.0
H1166 H 0.88518 0.47023 0.27299 0.0
C1167 C 0.88675 0.4731 0.20765 0.0
C1168 C 0.88498 0.48359 0.19471 0.0
C1169 C 0.88223 0.49956 0.19774 0.0
C1170 C 0.88102 0.50497 0.21338 0.0
C1171 C 0.8827 0.4943 0.22586 0.0
C1172 C 0.88562 0.47873 0.22319 0.0
C1173 C 0.88686 0.46967 0.23871 0.0
C1174 C 0.87456 0.45578 0.23989 0.0
C1175 C 0.90284 0.46394 0.2407 0.0
C1176 C 0.884 0.48253 0.25052 0.0
C1177 C 0.88161 0.49664 0.24286 0.0
C1178 C 0.87829 0.51008 0.25122 0.0
C1179 C 0.87742 0.5091 0.26788 0.0
C1180 C 0.87994 0.49479 0.27599 0.0
C1181 C 0.88333 0.48138 0.26714 0.0
H1182 H 0.68926 0.58423 0.56647 0.0
H1183 H 0.70553 0.63378 0.56135 0.0
H1184 H 0.7249 0.62646 0.54204 0.0
H1185 H 0.72662 0.56883 0.56435 0.0
H1186 H 0.71975 0.55139 0.55358 0.0
H1187 H 0.70734 0.56057 0.56714 0.0
H1188 H 0.68782 0.5631 0.54447 0.0
H1189 H 0.70018 0.554 0.53084 0.0
H1190 H 0.69373 0.5732 0.52623 0.0
H1191 H 0.74116 0.6139 0.52182 0.0
H1192 H 0.75472 0.59674 0.50388 0.0
H1193 H 0.72901 0.55525 0.5236 0.0
C1194 C 0.69695 0.59353 0.56134 0.0
C1195 C 0.69587 0.60958 0.56533 0.0
C1196 C 0.7062 0.6214 0.55848 0.0
C1197 C 0.7172 0.61737 0.54748 0.0
C1198 C 0.71787 0.60144 0.54368 0.0
C1199 C 0.70817 0.58968 0.55058 0.0
C1200 C 0.71137 0.57344 0.54458 0.0
C1201 C 0.71658 0.56294 0.55823 0.0
C1202 C 0.69745 0.56547 0.53602 0.0
C1203 C 0.7242 0.57793 0.53301 0.0
C1204 C 0.72772 0.59414 0.53259 0.0
C1205 C 0.73865 0.60117 0.5222 0.0
C1206 C 0.74625 0.59135 0.51203 0.0
C1207 C 0.743 0.5747 0.51249 0.0
C1208 C 0.73189 0.56794 0.52319 0.0
H1209 H 0.60074 0.6011 0.8177 0.0
H1210 H 0.56735 0.58622 0.78196 0.0
H1211 H 0.55469 0.56725 0.80124 0.0
H1212 H 0.60316 0.5626 0.83683 0.0
H1213 H 0.60473 0.57077 0.85655 0.0
H1214 H 0.61177 0.58242 0.83964 0.0
H1215 H 0.59489 0.60482 0.84751 0.0
H1216 H 0.58784 0.59327 0.86445 0.0
H1217 H 0.57474 0.6003 0.85011 0.0
H1218 H 0.54541 0.55027 0.82452 0.0
H1219 H 0.53914 0.53777 0.85065 0.0
H1220 H 0.57802 0.56449 0.87148 0.0
C1221 C 0.59086 0.59373 0.81388 0.0
C1222 C 0.58507 0.59505 0.7983 0.0
C1223 C 0.57198 0.58539 0.79383 0.0
C1224 C 0.56475 0.57454 0.80467 0.0
C1225 C 0.5707 0.57358 0.81996 0.0
C1226 C 0.58339 0.58298 0.82461 0.0
C1227 C 0.58698 0.58027 0.84199 0.0
C1228 C 0.60259 0.57361 0.84386 0.0
C1229 C 0.58605 0.59557 0.85158 0.0
C1230 C 0.57425 0.56797 0.84643 0.0
C1231 C 0.56509 0.56412 0.83351 0.0
C1232 C 0.55251 0.55316 0.83473 0.0
C1233 C 0.54906 0.5461 0.84961 0.0
C1234 C 0.55807 0.55016 0.86311 0.0
C1235 C 0.57091 0.56113 0.86139 0.0
loop_
_geom_bond_atom_site_label_1
_geom_bond_atom_site_label_2
_geom_bond_distance
_geom_bond_site_symmetry_2
_ccdc_geom_bond_type
O0 Cd1 2.300 . S
O0 C7 1.275 . S
Cd1 O0 2.300 . S
Cd1 O9 2.381 . S
Cd1 O10 2.378 . S
O2 Cd3 2.385 . S
O2 C7 1.255 . S
Cd3 O2 2.385 . S
Cd3 O4 2.317 . S
O4 Cd3 2.317 . S
O4 C5 1.232 . S
C5 O4 1.232 . S
C5 O6 1.218 . S
O6 C5 1.218 . S
C7 O0 1.275 . S
C7 O2 1.255 . S
C8 O9 1.258 . S
C8 O10 1.256 . S
O9 Cd1 2.381 . S
O9 C8 1.258 . S
O10 Cd1 2.378 . S
O10 C8 1.256 . S
O11 Cd12 2.300 . S
O11 C18 1.275 . S
Cd12 O11 2.300 . S
Cd12 O20 2.381 . S
Cd12 O21 2.378 . S
O13 Cd14 2.385 . S
O13 C18 1.255 . S
Cd14 O13 2.385 . S
Cd14 O15 2.317 . S
O15 Cd14 2.317 . S
O15 C16 1.232 . S
C16 O15 1.232 . S
C16 O17 1.218 . S
O17 C16 1.218 . S
C18 O11 1.275 . S
C18 O13 1.255 . S
C19 O20 1.258 . S
C19 O21 1.256 . S
O20 Cd12 2.381 . S
O20 C19 1.258 . S
O21 Cd12 2.378 . S
O21 C19 1.256 . S
O22 Cd23 2.300 . S
O22 C29 1.275 . S
Cd23 O22 2.300 . S
Cd23 O31 2.381 . S
Cd23 O32 2.378 . S
O24 Cd25 2.385 . S
O24 C29 1.255 . S
Cd25 O24 2.385 . S
Cd25 O26 2.317 . S
O26 Cd25 2.317 . S
O26 C27 1.232 . S
C27 O26 1.232 . S
C27 O28 1.218 . S
O28 C27 1.218 . S
C29 O22 1.275 . S
C29 O24 1.255 . S
C30 O31 1.258 . S
C30 O32 1.256 . S
O31 Cd23 2.381 . S
O31 C30 1.258 . S
O32 Cd23 2.378 . S
O32 C30 1.256 . S
O33 Cd34 2.300 . S
O33 C40 1.275 . S
Cd34 O33 2.300 . S
Cd34 O42 2.381 . S
Cd34 O43 2.378 . S
O35 Cd36 2.385 . S
O35 C40 1.255 . S
Cd36 O35 2.385 . S
Cd36 O37 2.317 . S
O37 Cd36 2.317 . S
O37 C38 1.232 . S
C38 O37 1.232 . S
C38 O39 1.218 . S
O39 C38 1.218 . S
C40 O33 1.275 . S
C40 O35 1.255 . S
C41 O42 1.258 . S
C41 O43 1.256 . S
O42 Cd34 2.381 . S
O42 C41 1.258 . S
O43 Cd34 2.378 . S
O43 C41 1.256 . S
O44 Cd45 2.300 . S
O44 C51 1.275 . S
Cd45 O44 2.300 . S
Cd45 O53 2.381 . S
Cd45 O54 2.378 . S
O46 Cd47 2.385 . S
O46 C51 1.255 . S
Cd47 O46 2.385 . S
Cd47 O48 2.317 . S
O48 Cd47 2.317 . S
O48 C49 1.232 . S
C49 O48 1.232 . S
C49 O50 1.218 . S
O50 C49 1.218 . S
C51 O44 1.275 . S
C51 O46 1.255 . S
C52 O53 1.258 . S
C52 O54 1.256 . S
O53 Cd45 2.381 . S
O53 C52 1.258 . S
O54 Cd45 2.378 . S
O54 C52 1.256 . S
O55 Cd56 2.300 . S
O55 C62 1.275 . S
Cd56 O55 2.300 . S
Cd56 O64 2.381 . S
Cd56 O65 2.378 . S
O57 Cd58 2.385 . S
O57 C62 1.255 . S
Cd58 O57 2.385 . S
Cd58 O59 2.317 . S
O59 Cd58 2.317 . S
O59 C60 1.232 . S
C60 O59 1.232 . S
C60 O61 1.218 . S
O61 C60 1.218 . S
C62 O55 1.275 . S
C62 O57 1.255 . S
C63 O64 1.258 . S
C63 O65 1.256 . S
O64 Cd56 2.381 . S
O64 C63 1.258 . S
O65 Cd56 2.378 . S
O65 C63 1.256 . S
O66 Cd67 2.300 1_565 S
O66 C73 1.275 . S
Cd67 O66 2.300 1_545 S
Cd67 O75 2.371 1_545 S
Cd67 O76 2.378 . S
O68 Cd69 2.385 . S
O68 C73 1.255 1_545 S
Cd69 O68 2.385 . S
Cd69 O70 2.317 . S
O70 Cd69 2.317 . S
O70 C71 1.232 . S
C71 O70 1.232 . S
C71 O72 1.218 . S
O72 C71 1.218 . S
C73 O66 1.275 . S
C73 O68 1.255 1_565 S
C74 O75 1.237 1_545 S
C74 O76 1.256 . S
O75 Cd67 2.371 1_565 S
O75 C74 1.237 1_565 S
O76 Cd67 2.378 . S
O76 C74 1.256 . S
O77 Cd78 2.300 . S
O77 C84 1.275 . S
Cd78 O77 2.300 . S
Cd78 O86 2.381 . S
Cd78 O87 2.378 . S
O79 Cd80 2.385 . S
O79 C84 1.255 1_556 S
Cd80 O79 2.385 . S
Cd80 O81 2.317 . S
O81 Cd80 2.317 . S
O81 C82 1.232 . S
C82 O81 1.232 . S
C82 O83 1.218 . S
O83 C82 1.218 . S
C84 O77 1.275 . S
C84 O79 1.255 1_554 S
C85 O86 1.258 . S
C85 O87 1.256 . S
O86 Cd78 2.381 . S
O86 C85 1.258 . S
O87 Cd78 2.378 . S
O87 C85 1.256 . S
O88 Cd89 2.300 . S
O88 C95 1.275 . S
Cd89 O88 2.300 . S
Cd89 O97 2.381 1_565 S
Cd89 O98 2.378 . S
O90 Cd91 2.385 . S
O90 C95 1.255 . S
Cd91 O90 2.385 . S
Cd91 O92 2.317 . S
O92 Cd91 2.317 . S
O92 C93 1.232 . S
C93 O92 1.232 . S
C93 O94 1.218 . S
O94 C93 1.218 . S
C95 O88 1.275 . S
C95 O90 1.255 . S
C96 O97 1.258 . S
C96 O98 1.256 1_545 S
O97 Cd89 2.381 1_545 S
O97 C96 1.258 . S
O98 Cd89 2.378 . S
O98 C96 1.256 1_565 S
O99 Cd100 2.300 . S
O99 C106 1.275 . S
Cd100 O99 2.300 . S
Cd100 O108 2.381 . S
Cd100 O109 2.378 . S
O101 Cd102 2.385 . S
O101 C106 1.255 . S
Cd102 O101 2.385 . S
Cd102 O103 2.317 . S
O103 Cd102 2.317 . S
O103 C104 1.232 . S
C104 O103 1.232 . S
C104 O105 1.218 . S
O105 C104 1.218 . S
C106 O99 1.275 . S
C106 O101 1.255 . S
C107 O108 1.258 . S
C107 O109 1.256 . S
O108 Cd100 2.381 . S
O108 C107 1.258 . S
O109 Cd100 2.378 . S
O109 C107 1.256 . S
O110 Cd111 2.300 1_545 S
O110 C117 1.275 . S
Cd111 O110 2.300 1_565 S
Cd111 O119 2.381 1_565 S
Cd111 O120 2.378 . S
O112 Cd113 2.394 . S
O112 C117 1.245 1_565 S
Cd113 O112 2.394 . S
Cd113 O114 2.317 . S
O114 Cd113 2.317 . S
O114 C115 1.232 . S
C115 O114 1.232 . S
C115 O116 1.218 . S
O116 C115 1.218 . S
C117 O110 1.275 . S
C117 O112 1.245 1_545 S
C118 O119 1.258 1_565 S
C118 O120 1.256 . S
O119 Cd111 2.381 1_545 S
O119 C118 1.258 1_545 S
O120 Cd111 2.378 . S
O120 C118 1.256 . S
O121 Cd122 2.300 . S
O121 C128 1.275 . S
Cd122 O121 2.300 . S
Cd122 O130 2.381 . S
Cd122 O131 2.378 . S
O123 Cd124 2.385 . S
O123 C128 1.255 . S
Cd124 O123 2.385 . S
Cd124 O125 2.317 . S
O125 Cd124 2.317 . S
O125 C126 1.232 . S
C126 O125 1.232 . S
C126 O127 1.218 . S
O127 C126 1.218 . S
C128 O121 1.275 . S
C128 O123 1.255 . S
C129 O130 1.258 . S
C129 O131 1.256 . S
O130 Cd122 2.381 . S
O130 C129 1.258 . S
O131 Cd122 2.378 . S
O131 C129 1.256 . S
O132 Cd133 2.300 . S
O132 C139 1.275 . S
Cd133 O132 2.300 . S
Cd133 O141 2.381 . S
Cd133 O142 2.378 . S
O134 Cd135 2.385 . S
O134 C139 1.255 . S
Cd135 O134 2.385 . S
Cd135 O136 2.317 . S
O136 Cd135 2.317 . S
O136 C137 1.232 . S
C137 O136 1.232 . S
C137 O138 1.218 . S
O138 C137 1.218 . S
C139 O132 1.275 . S
C139 O134 1.255 . S
C140 O141 1.258 . S
C140 O142 1.256 . S
O141 Cd133 2.381 . S
O141 C140 1.258 . S
O142 Cd133 2.378 . S
O142 C140 1.256 . S
O143 Cd144 2.300 . S
O143 C150 1.275 . S
Cd144 O143 2.300 . S
Cd144 O152 2.381 . S
Cd144 O153 2.378 . S
O145 Cd146 2.385 . S
O145 C150 1.255 . S
Cd146 O145 2.385 . S
Cd146 O147 2.317 . S
O147 Cd146 2.317 . S
O147 C148 1.232 . S
C148 O147 1.232 . S
C148 O149 1.218 . S
O149 C148 1.218 . S
C150 O143 1.275 . S
C150 O145 1.255 . S
C151 O152 1.258 . S
C151 O153 1.256 . S
O152 Cd144 2.381 . S
O152 C151 1.258 . S
O153 Cd144 2.378 . S
O153 C151 1.256 . S
O154 Cd155 2.300 . S
O154 C161 1.275 . S
Cd155 O154 2.300 . S
Cd155 O163 2.381 . S
Cd155 O164 2.378 . S
O156 Cd157 2.385 . S
O156 C161 1.255 . S
Cd157 O156 2.385 . S
Cd157 O158 2.317 . S
O158 Cd157 2.317 . S
O158 C159 1.232 . S
C159 O158 1.232 . S
C159 O160 1.218 . S
O160 C159 1.218 . S
C161 O154 1.275 . S
C161 O156 1.255 . S
C162 O163 1.258 . S
C162 O164 1.256 . S
O163 Cd155 2.381 . S
O163 C162 1.258 . S
O164 Cd155 2.378 . S
O164 C162 1.256 . S
O165 Cd166 2.300 . S
O165 C172 1.275 . S
Cd166 O165 2.300 . S
Cd166 O174 2.381 . S
Cd166 O175 2.378 . S
O167 Cd168 2.385 . S
O167 C172 1.255 . S
Cd168 O167 2.385 . S
Cd168 O169 2.317 . S
O169 Cd168 2.317 . S
O169 C170 1.232 . S
C170 O169 1.232 . S
C170 O171 1.218 . S
O171 C170 1.218 . S
C172 O165 1.275 . S
C172 O167 1.255 . S
C173 O174 1.258 . S
C173 O175 1.256 . S
O174 Cd166 2.381 . S
O174 C173 1.258 . S
O175 Cd166 2.378 . S
O175 C173 1.256 . S
O176 Cd177 2.300 . S
O176 C183 1.275 . S
Cd177 O176 2.300 . S
Cd177 O185 2.381 . S
Cd177 O186 2.378 . S
O178 Cd179 2.385 . S
O178 C183 1.255 . S
Cd179 O178 2.385 . S
Cd179 O180 2.317 . S
O180 Cd179 2.317 . S
O180 C181 1.232 . S
C181 O180 1.232 . S
C181 O182 1.218 . S
O182 C181 1.218 . S
C183 O176 1.275 . S
C183 O178 1.255 . S
C184 O185 1.258 . S
C184 O186 1.256 . S
O185 Cd177 2.381 . S
O185 C184 1.258 . S
O186 Cd177 2.378 . S
O186 C184 1.256 . S
O187 Cd188 2.300 . S
O187 C194 1.275 . S
Cd188 O187 2.300 . S
Cd188 O196 2.381 . S
Cd188 O197 2.378 . S
O189 Cd190 2.385 . S
O189 C194 1.255 . S
Cd190 O189 2.385 . S
Cd190 O191 2.317 . S
O191 Cd190 2.317 . S
O191 C192 1.232 . S
C192 O191 1.232 . S
C192 O193 1.218 . S
O193 C192 1.218 . S
C194 O187 1.275 . S
C194 O189 1.255 . S
C195 O196 1.258 . S
C195 O197 1.256 . S
O196 Cd188 2.381 . S
O196 C195 1.258 . S
O197 Cd188 2.378 . S
O197 C195 1.256 . S
O198 Cd199 2.300 . S
O198 C205 1.275 . S
Cd199 O198 2.300 . S
Cd199 O207 2.381 . S
Cd199 O208 2.378 . S
O200 Cd201 2.385 . S
O200 C205 1.255 . S
Cd201 O200 2.385 . S
Cd201 O202 2.317 . S
O202 Cd201 2.317 . S
O202 C203 1.232 . S
C203 O202 1.232 . S
C203 O204 1.218 . S
O204 C203 1.218 . S
C205 O198 1.275 . S
C205 O200 1.255 . S
C206 O207 1.258 . S
C206 O208 1.256 . S
O207 Cd199 2.381 . S
O207 C206 1.258 . S
O208 Cd199 2.378 . S
O208 C206 1.256 . S
O209 Cd210 2.300 . S
O209 C216 1.275 . S
Cd210 O209 2.300 . S
Cd210 O218 2.381 1_655 S
Cd210 O219 2.378 1_655 S
O211 Cd212 2.385 . S
O211 C216 1.255 . S
Cd212 O211 2.385 . S
Cd212 O213 2.317 . S
O213 Cd212 2.317 . S
O213 C214 1.232 . S
C214 O213 1.232 . S
C214 O215 1.218 . S
O215 C214 1.218 . S
C216 O209 1.275 . S
C216 O211 1.255 . S
C217 O218 1.258 . S
C217 O219 1.256 . S
O218 Cd210 2.381 1_455 S
O218 C217 1.258 . S
O219 Cd210 2.378 1_455 S
O219 C217 1.256 . S
O220 Cd221 2.300 . S
O220 C227 1.275 . S
Cd221 O220 2.300 . S
Cd221 O229 2.381 . S
Cd221 O230 2.378 . S
O222 Cd223 2.385 . S
O222 C227 1.255 . S
Cd223 O222 2.385 . S
Cd223 O224 2.317 . S
O224 Cd223 2.317 . S
O224 C225 1.232 . S
C225 O224 1.232 . S
C225 O226 1.218 . S
O226 C225 1.218 . S
C227 O220 1.275 . S
C227 O222 1.255 . S
C228 O229 1.258 . S
C228 O230 1.256 . S
O229 Cd221 2.381 . S
O229 C228 1.258 . S
O230 Cd221 2.378 . S
O230 C228 1.256 . S
O231 Cd232 2.300 . S
O231 C238 1.275 . S
Cd232 O231 2.300 . S
Cd232 O240 2.381 . S
Cd232 O241 2.378 . S
O233 Cd234 2.385 . S
O233 C238 1.255 . S
Cd234 O233 2.385 . S
Cd234 O235 2.317 . S
O235 Cd234 2.317 . S
O235 C236 1.232 . S
C236 O235 1.232 . S
C236 O237 1.218 . S
O237 C236 1.218 . S
C238 O231 1.275 . S
C238 O233 1.255 . S
C239 O240 1.258 . S
C239 O241 1.256 . S
O240 Cd232 2.381 . S
O240 C239 1.258 . S
O241 Cd232 2.378 . S
O241 C239 1.256 . S
O242 Cd243 2.300 1_554 S
O242 C249 1.275 . S
Cd243 O242 2.300 1_556 S
Cd243 O251 2.381 . S
Cd243 O252 2.378 . S
O244 Cd245 2.385 1_554 S
O244 C249 1.255 . S
Cd245 O244 2.385 1_556 S
Cd245 O246 2.317 . S
O246 Cd245 2.317 . S
O246 C247 1.232 . S
C247 O246 1.232 . S
C247 O248 1.218 . S
O248 C247 1.218 . S
C249 O242 1.275 . S
C249 O244 1.255 . S
C250 O251 1.258 . S
C250 O252 1.256 . S
O251 Cd243 2.381 . S
O251 C250 1.258 . S
O252 Cd243 2.378 . S
O252 C250 1.256 . S
O253 Cd254 2.300 . S
O253 C260 1.275 . S
Cd254 O253 2.300 . S
Cd254 O262 2.381 . S
Cd254 O263 2.378 . S
O255 Cd256 2.385 . S
O255 C260 1.255 . S
Cd256 O255 2.385 . S
Cd256 O257 2.317 . S
O257 Cd256 2.317 . S
O257 C258 1.232 . S
C258 O257 1.232 . S
C258 O259 1.218 . S
O259 C258 1.218 . S
C260 O253 1.275 . S
C260 O255 1.255 . S
C261 O262 1.258 . S
C261 O263 1.256 . S
O262 Cd254 2.381 . S
O262 C261 1.258 . S
O263 Cd254 2.378 . S
O263 C261 1.256 . S
H264 C276 0.930 . S
H265 C278 0.930 . S
H266 C279 0.930 . S
H267 C283 0.959 . S
H268 C283 0.959 . S
H269 C283 0.961 . S
H270 C284 0.960 . S
H271 C284 0.961 . S
H272 C284 0.959 . S
H273 C287 0.929 . S
H274 C288 0.931 . S
H275 C290 0.930 . S
C276 H264 0.930 . S
C276 C277 1.399 . S
C276 C281 1.399 . S
C277 C276 1.399 . S
C277 C278 1.376 . S
C278 H265 0.930 . S
C278 C277 1.376 . S
C278 C279 1.388 . S
C279 H266 0.930 . S
C279 C278 1.388 . S
C279 C280 1.390 . S
C280 C279 1.390 . S
C280 C281 1.394 . S
C280 C286 1.465 . S
C281 C276 1.399 . S
C281 C280 1.394 . S
C281 C282 1.516 . S
C282 C281 1.516 . S
C282 C283 1.502 . S
C282 C284 1.561 . S
C282 C285 1.526 . S
C283 H267 0.959 . S
C283 H268 0.959 . S
C283 H269 0.961 . S
C283 C282 1.502 . S
C284 H270 0.960 . S
C284 H271 0.961 . S
C284 H272 0.959 . S
C284 C282 1.561 . S
C285 C282 1.526 . S
C285 C286 1.396 . S
C285 C290 1.390 . S
C286 C280 1.465 . S
C286 C285 1.396 . S
C286 C287 1.399 . S
C287 H273 0.929 . S
C287 C286 1.399 . S
C287 C288 1.385 . S
C288 H274 0.931 . S
C288 C287 1.385 . S
C288 C289 1.389 . S
C289 C288 1.389 . S
C289 C290 1.387 . S
C290 H275 0.930 . S
C290 C285 1.390 . S
C290 C289 1.387 . S
H291 C303 0.930 . S
H292 C305 0.930 . S
H293 C306 0.930 . S
H294 C310 0.959 . S
H295 C310 0.959 . S
H296 C310 0.961 . S
H297 C311 0.960 . S
H298 C311 0.961 . S
H299 C311 0.959 . S
H300 C314 0.929 . S
H301 C315 0.931 . S
H302 C317 0.930 . S
C303 H291 0.930 . S
C303 C304 1.399 . S
C303 C308 1.399 . S
C304 C303 1.399 . S
C304 C305 1.376 . S
C305 H292 0.930 . S
C305 C304 1.376 . S
C305 C306 1.388 . S
C306 H293 0.930 . S
C306 C305 1.388 . S
C306 C307 1.390 . S
C307 C306 1.390 . S
C307 C308 1.394 . S
C307 C313 1.465 . S
C308 C303 1.399 . S
C308 C307 1.394 . S
C308 C309 1.516 . S
C309 C308 1.516 . S
C309 C310 1.502 . S
C309 C311 1.561 . S
C309 C312 1.526 . S
C310 H294 0.959 . S
C310 H295 0.959 . S
C310 H296 0.961 . S
C310 C309 1.502 . S
C311 H297 0.960 . S
C311 H298 0.961 . S
C311 H299 0.959 . S
C311 C309 1.561 . S
C312 C309 1.526 . S
C312 C313 1.396 . S
C312 C317 1.390 . S
C313 C307 1.465 . S
C313 C312 1.396 . S
C313 C314 1.399 . S
C314 H300 0.929 . S
C314 C313 1.399 . S
C314 C315 1.385 . S
C315 H301 0.931 . S
C315 C314 1.385 . S
C315 C316 1.389 . S
C316 C315 1.389 . S
C316 C317 1.387 . S
C317 H302 0.930 . S
C317 C312 1.390 . S
C317 C316 1.387 . S
H318 C330 0.930 . S
H319 C332 0.930 . S
H320 C333 0.930 . S
H321 C337 0.959 . S
H322 C337 0.959 . S
H323 C337 0.961 . S
H324 C338 0.960 . S
H325 C338 0.961 . S
H326 C338 0.959 . S
H327 C341 0.929 . S
H328 C342 0.931 . S
H329 C344 0.930 . S
C330 H318 0.930 . S
C330 C331 1.399 . S
C330 C335 1.399 . S
C331 C330 1.399 . S
C331 C332 1.376 . S
C332 H319 0.930 . S
C332 C331 1.376 . S
C332 C333 1.388 . S
C333 H320 0.930 . S
C333 C332 1.388 . S
C333 C334 1.390 . S
C334 C333 1.390 . S
C334 C335 1.394 . S
C334 C340 1.465 . S
C335 C330 1.399 . S
C335 C334 1.394 . S
C335 C336 1.516 . S
C336 C335 1.516 . S
C336 C337 1.502 . S
C336 C338 1.561 . S
C336 C339 1.526 . S
C337 H321 0.959 . S
C337 H322 0.959 . S
C337 H323 0.961 . S
C337 C336 1.502 . S
C338 H324 0.960 . S
C338 H325 0.961 . S
C338 H326 0.959 . S
C338 C336 1.561 . S
C339 C336 1.526 . S
C339 C340 1.396 . S
C339 C344 1.390 . S
C340 C334 1.465 . S
C340 C339 1.396 . S
C340 C341 1.399 . S
C341 H327 0.929 . S
C341 C340 1.399 . S
C341 C342 1.385 . S
C342 H328 0.931 . S
C342 C341 1.385 . S
C342 C343 1.389 . S
C343 C342 1.389 . S
C343 C344 1.387 . S
C344 H329 0.930 . S
C344 C339 1.390 . S
C344 C343 1.387 . S
H345 C357 0.878 1_554 S
H346 C359 0.930 . S
H347 C360 0.930 . S
H348 C364 0.959 . S
H349 C364 0.959 . S
H350 C364 0.961 . S
H351 C365 0.960 . S
H352 C365 0.961 . S
H353 C365 0.959 . S
H354 C368 0.929 . S
H355 C369 0.931 . S
H356 C371 0.930 . S
C357 H345 0.878 1_556 S
C357 C358 1.399 . S
C357 C362 1.399 . S
C358 C357 1.399 . S
C358 C359 1.376 . S
C359 H346 0.930 . S
C359 C358 1.376 . S
C359 C360 1.388 . S
C360 H347 0.930 . S
C360 C359 1.388 . S
C360 C361 1.390 . S
C361 C360 1.390 . S
C361 C362 1.394 . S
C361 C367 1.465 . S
C362 C357 1.399 . S
C362 C361 1.394 . S
C362 C363 1.516 1_556 S
C363 C362 1.516 1_554 S
C363 C364 1.502 . S
C363 C365 1.561 . S
C363 C366 1.546 . S
C364 H348 0.959 . S
C364 H349 0.959 . S
C364 H350 0.961 . S
C364 C363 1.502 . S
C365 H351 0.960 . S
C365 H352 0.961 . S
C365 H353 0.959 . S
C365 C363 1.561 . S
C366 C363 1.546 . S
C366 C367 1.351 1_554 S
C366 C371 1.410 . S
C367 C361 1.465 . S
C367 C366 1.351 1_556 S
C367 C368 1.399 . S
C368 H354 0.929 . S
C368 C367 1.399 . S
C368 C369 1.385 . S
C369 H355 0.931 . S
C369 C368 1.385 . S
C369 C370 1.389 . S
C370 C369 1.389 . S
C370 C371 1.387 1_556 S
C371 H356 0.930 . S
C371 C366 1.410 . S
C371 C370 1.387 1_554 S
H372 C384 0.930 . S
H373 C386 0.930 . S
H374 C387 0.930 . S
H375 C391 0.959 . S
H376 C391 0.959 . S
H377 C391 0.961 . S
H378 C392 0.960 . S
H379 C392 0.961 . S
H380 C392 0.959 . S
H381 C395 0.929 . S
H382 C396 0.931 . S
H383 C398 0.930 . S
C384 H372 0.930 . S
C384 C385 1.399 . S
C384 C389 1.399 . S
C385 C384 1.399 . S
C385 C386 1.376 . S
C386 H373 0.930 . S
C386 C385 1.376 . S
C386 C387 1.388 . S
C387 H374 0.930 . S
C387 C386 1.388 . S
C387 C388 1.390 . S
C388 C387 1.390 . S
C388 C389 1.394 . S
C388 C394 1.465 . S
C389 C384 1.399 . S
C389 C388 1.394 . S
C389 C390 1.516 . S
C390 C389 1.516 . S
C390 C391 1.502 . S
C390 C392 1.561 . S
C390 C393 1.526 . S
C391 H375 0.959 . S
C391 H376 0.959 . S
C391 H377 0.961 . S
C391 C390 1.502 . S
C392 H378 0.960 . S
C392 H379 0.961 . S
C392 H380 0.959 . S
C392 C390 1.561 . S
C393 C390 1.526 . S
C393 C394 1.396 . S
C393 C398 1.390 . S
C394 C388 1.465 . S
C394 C393 1.396 . S
C394 C395 1.399 . S
C395 H381 0.929 . S
C395 C394 1.399 . S
C395 C396 1.385 . S
C396 H382 0.931 . S
C396 C395 1.385 . S
C396 C397 1.389 . S
C397 C396 1.389 . S
C397 C398 1.387 . S
C398 H383 0.930 . S
C398 C393 1.390 . S
C398 C397 1.387 . S
H399 C411 0.930 . S
H400 C413 0.930 . S
H401 C414 0.930 . S
H402 C418 0.959 . S
H403 C418 0.959 . S
H404 C418 0.961 . S
H405 C419 0.960 . S
H406 C419 0.961 . S
H407 C419 0.959 . S
H408 C422 0.929 . S
H409 C423 0.931 . S
H410 C425 0.930 . S
C411 H399 0.930 . S
C411 C412 1.399 . S
C411 C416 1.399 . S
C412 C411 1.399 . S
C412 C413 1.376 . S
C413 H400 0.930 . S
C413 C412 1.376 . S
C413 C414 1.388 . S
C414 H401 0.930 . S
C414 C413 1.388 . S
C414 C415 1.390 . S
C415 C414 1.390 . S
C415 C416 1.394 . S
C415 C421 1.465 . S
C416 C411 1.399 . S
C416 C415 1.394 . S
C416 C417 1.516 . S
C417 C416 1.516 . S
C417 C418 1.502 . S
C417 C419 1.561 . S
C417 C420 1.526 . S
C418 H402 0.959 . S
C418 H403 0.959 . S
C418 H404 0.961 . S
C418 C417 1.502 . S
C419 H405 0.960 . S
C419 H406 0.961 . S
C419 H407 0.959 . S
C419 C417 1.561 . S
C420 C417 1.526 . S
C420 C421 1.396 . S
C420 C425 1.390 . S
C421 C415 1.465 . S
C421 C420 1.396 . S
C421 C422 1.399 . S
C422 H408 0.929 . S
C422 C421 1.399 . S
C422 C423 1.385 . S
C423 H409 0.931 . S
C423 C422 1.385 . S
C423 C424 1.389 . S
C424 C423 1.389 . S
C424 C425 1.387 . S
C425 H410 0.930 . S
C425 C420 1.390 . S
C425 C424 1.387 . S
H426 C438 0.930 . S
H427 C440 0.930 . S
H428 C441 0.930 . S
H429 C445 0.959 . S
H430 C445 0.959 . S
H431 C445 0.961 . S
H432 C446 0.960 . S
H433 C446 0.961 . S
H434 C446 0.959 . S
H435 C449 0.929 . S
H436 C450 0.931 . S
H437 C452 0.930 . S
C438 H426 0.930 . S
C438 C439 1.399 . S
C438 C443 1.399 . S
C439 C438 1.399 . S
C439 C440 1.376 . S
C440 H427 0.930 . S
C440 C439 1.376 . S
C440 C441 1.388 . S
C441 H428 0.930 . S
C441 C440 1.388 . S
C441 C442 1.390 . S
C442 C441 1.390 . S
C442 C443 1.394 . S
C442 C448 1.465 . S
C443 C438 1.399 . S
C443 C442 1.394 . S
C443 C444 1.516 . S
C444 C443 1.516 . S
C444 C445 1.502 . S
C444 C446 1.561 . S
C444 C447 1.526 . S
C445 H429 0.959 . S
C445 H430 0.959 . S
C445 H431 0.961 . S
C445 C444 1.502 . S
C446 H432 0.960 . S
C446 H433 0.961 . S
C446 H434 0.959 . S
C446 C444 1.561 . S
C447 C444 1.526 . S
C447 C448 1.396 . S
C447 C452 1.390 . S
C448 C442 1.465 . S
C448 C447 1.396 . S
C448 C449 1.399 . S
C449 H435 0.929 . S
C449 C448 1.399 . S
C449 C450 1.385 . S
C450 H436 0.931 . S
C450 C449 1.385 . S
C450 C451 1.389 . S
C451 C450 1.389 . S
C451 C452 1.387 . S
C452 H437 0.930 . S
C452 C447 1.390 . S
C452 C451 1.387 . S
H453 C465 0.930 . S
H454 C467 0.930 . S
H455 C468 0.930 . S
H456 C472 0.959 . S
H457 C472 0.959 . S
H458 C472 0.961 . S
H459 C473 0.960 . S
H460 C473 0.961 . S
H461 C473 0.959 . S
H462 C476 0.929 . S
H463 C477 0.931 . S
H464 C479 0.930 . S
C465 H453 0.930 . S
C465 C466 1.399 . S
C465 C470 1.399 . S
C466 C465 1.399 . S
C466 C467 1.376 . S
C467 H454 0.930 . S
C467 C466 1.376 . S
C467 C468 1.388 . S
C468 H455 0.930 . S
C468 C467 1.388 . S
C468 C469 1.390 . S
C469 C468 1.390 . S
C469 C470 1.394 . S
C469 C475 1.465 . S
C470 C465 1.399 . S
C470 C469 1.394 . S
C470 C471 1.516 . S
C471 C470 1.516 . S
C471 C472 1.502 . S
C471 C473 1.561 . S
C471 C474 1.526 . S
C472 H456 0.959 . S
C472 H457 0.959 . S
C472 H458 0.961 . S
C472 C471 1.502 . S
C473 H459 0.960 . S
C473 H460 0.961 . S
C473 H461 0.959 . S
C473 C471 1.561 . S
C474 C471 1.526 . S
C474 C475 1.396 . S
C474 C479 1.390 . S
C475 C469 1.465 . S
C475 C474 1.396 . S
C475 C476 1.399 . S
C476 H462 0.929 . S
C476 C475 1.399 . S
C476 C477 1.385 . S
C477 H463 0.931 . S
C477 C476 1.385 . S
C477 C478 1.389 . S
C478 C477 1.389 . S
C478 C479 1.387 . S
C479 H464 0.930 . S
C479 C474 1.390 . S
C479 C478 1.387 . S
H480 C492 0.930 . S
H481 C494 0.930 . S
H482 C495 0.930 . S
H483 C499 0.959 . S
H484 C499 0.959 . S
H485 C499 0.961 . S
H486 C500 0.960 . S
H487 C500 0.961 . S
H488 C500 0.959 . S
H489 C503 0.929 . S
H490 C504 0.931 . S
H491 C506 0.930 . S
C492 H480 0.930 . S
C492 C493 1.399 . S
C492 C497 1.399 . S
C493 C492 1.399 . S
C493 C494 1.376 . S
C494 H481 0.930 . S
C494 C493 1.376 . S
C494 C495 1.388 . S
C495 H482 0.930 . S
C495 C494 1.388 . S
C495 C496 1.390 . S
C496 C495 1.390 . S
C496 C497 1.394 . S
C496 C502 1.465 . S
C497 C492 1.399 . S
C497 C496 1.394 . S
C497 C498 1.516 . S
C498 C497 1.516 . S
C498 C499 1.502 . S
C498 C500 1.561 . S
C498 C501 1.526 . S
C499 H483 0.959 . S
C499 H484 0.959 . S
C499 H485 0.961 . S
C499 C498 1.502 . S
C500 H486 0.960 . S
C500 H487 0.961 . S
C500 H488 0.959 . S
C500 C498 1.561 . S
C501 C498 1.526 . S
C501 C502 1.396 . S
C501 C506 1.390 . S
C502 C496 1.465 . S
C502 C501 1.396 . S
C502 C503 1.399 . S
C503 H489 0.929 . S
C503 C502 1.399 . S
C503 C504 1.385 . S
C504 H490 0.931 . S
C504 C503 1.385 . S
C504 C505 1.389 . S
C505 C504 1.389 . S
C505 C506 1.387 . S
C506 H491 0.930 . S
C506 C501 1.390 . S
C506 C505 1.387 . S
H507 C519 0.930 . S
H508 C521 0.930 . S
H509 C522 0.930 . S
H510 C526 0.959 . S
H511 C526 0.959 . S
H512 C526 0.961 . S
H513 C527 0.960 . S
H514 C527 0.961 . S
H515 C527 0.959 . S
H516 C530 0.929 . S
H517 C531 0.931 . S
H518 C533 0.930 . S
C519 H507 0.930 . S
C519 C520 1.399 . S
C519 C524 1.399 . S
C520 C519 1.399 . S
C520 C521 1.376 . S
C521 H508 0.930 . S
C521 C520 1.376 . S
C521 C522 1.388 . S
C522 H509 0.930 . S
C522 C521 1.388 . S
C522 C523 1.390 . S
C523 C522 1.390 . S
C523 C524 1.394 . S
C523 C529 1.465 . S
C524 C519 1.399 . S
C524 C523 1.394 . S
C524 C525 1.516 . S
C525 C524 1.516 . S
C525 C526 1.502 . S
C525 C527 1.561 . S
C525 C528 1.526 . S
C526 H510 0.959 . S
C526 H511 0.959 . S
C526 H512 0.961 . S
C526 C525 1.502 . S
C527 H513 0.960 . S
C527 H514 0.961 . S
C527 H515 0.959 . S
C527 C525 1.561 . S
C528 C525 1.526 . S
C528 C529 1.396 . S
C528 C533 1.390 . S
C529 C523 1.465 . S
C529 C528 1.396 . S
C529 C530 1.399 . S
C530 H516 0.929 . S
C530 C529 1.399 . S
C530 C531 1.385 . S
C531 H517 0.931 . S
C531 C530 1.385 . S
C531 C532 1.389 . S
C532 C531 1.389 . S
C532 C533 1.387 . S
C533 H518 0.930 . S
C533 C528 1.390 . S
C533 C532 1.387 . S
H534 C546 0.930 . S
H535 C548 0.930 . S
H536 C549 0.930 . S
H537 C553 0.959 . S
H538 C553 0.959 . S
H539 C553 0.961 . S
H540 C554 0.960 . S
H541 C554 0.961 . S
H542 C554 0.959 1_565 S
H543 C557 0.929 . S
H544 C558 0.931 . S
H545 C560 0.930 . S
C546 H534 0.930 . S
C546 C547 1.399 1_545 S
C546 C551 1.399 1_545 S
C547 C546 1.399 1_565 S
C547 C548 1.376 . S
C548 H535 0.930 . S
C548 C547 1.376 . S
C548 C549 1.388 . S
C549 H536 0.930 . S
C549 C548 1.388 . S
C549 C550 1.390 . S
C550 C549 1.390 . S
C550 C551 1.394 . S
C550 C556 1.465 . S
C551 C546 1.399 1_565 S
C551 C550 1.394 . S
C551 C552 1.516 . S
C552 C551 1.516 . S
C552 C553 1.502 1_565 S
C552 C554 1.561 1_565 S
C552 C555 1.526 . S
C553 H537 0.959 . S
C553 H538 0.959 . S
C553 H539 0.961 . S
C553 C552 1.502 1_545 S
C554 H540 0.960 . S
C554 H541 0.961 . S
C554 H542 0.959 1_545 S
C554 C552 1.561 1_545 S
C555 C552 1.526 . S
C555 C556 1.396 . S
C555 C560 1.390 . S
C556 C550 1.465 . S
C556 C555 1.396 . S
C556 C557 1.399 . S
C557 H543 0.929 . S
C557 C556 1.399 . S
C557 C558 1.385 . S
C558 H544 0.931 . S
C558 C557 1.385 . S
C558 C559 1.389 . S
C559 C558 1.389 . S
C559 C560 1.387 . S
C560 H545 0.930 . S
C560 C555 1.390 . S
C560 C559 1.387 . S
H561 C573 0.930 . S
H562 C575 0.930 . S
H563 C576 0.916 1_565 S
H564 C580 1.021 . S
H565 C580 0.956 1_545 S
H566 C580 0.938 1_545 S
H567 C581 0.960 . S
H568 C581 0.961 . S
H569 C581 0.959 . S
H570 C584 0.929 . S
H571 C585 0.931 . S
H572 C587 0.931 1_545 S
C573 H561 0.930 . S
C573 C574 1.399 . S
C573 C578 1.399 . S
C574 C573 1.399 . S
C574 C575 1.376 . S
C575 H562 0.930 . S
C575 C574 1.376 . S
C575 C576 1.388 . S
C576 H563 0.916 1_545 S
C576 C575 1.388 . S
C576 C577 1.390 . S
C577 C576 1.390 . S
C577 C578 1.394 . S
C577 C583 1.465 1_545 S
C578 C573 1.399 . S
C578 C577 1.394 . S
C578 C579 1.516 . S
C579 C578 1.516 . S
C579 C580 1.474 1_545 S
C579 C581 1.561 . S
C579 C582 1.526 . S
C580 H564 1.021 . S
C580 H565 0.956 1_565 S
C580 H566 0.938 1_565 S
C580 C579 1.474 1_565 S
C581 H567 0.960 . S
C581 H568 0.961 . S
C581 H569 0.959 . S
C581 C579 1.561 . S
C582 C579 1.526 . S
C582 C583 1.396 1_545 S
C582 C587 1.390 1_545 S
C583 C577 1.465 1_565 S
C583 C582 1.396 1_565 S
C583 C584 1.399 . S
C584 H570 0.929 . S
C584 C583 1.399 . S
C584 C585 1.385 . S
C585 H571 0.931 . S
C585 C584 1.385 . S
C585 C586 1.389 . S
C586 C585 1.389 . S
C586 C587 1.387 . S
C587 H572 0.931 1_565 S
C587 C582 1.390 1_565 S
C587 C586 1.387 . S
H588 C600 0.930 . S
H589 C602 0.930 . S
H590 C603 0.930 . S
H591 C607 0.959 . S
H592 C607 0.959 . S
H593 C607 0.961 . S
H594 C608 0.960 . S
H595 C608 0.961 . S
H596 C608 0.959 . S
H597 C611 0.929 . S
H598 C612 0.931 . S
H599 C614 0.930 . S
C600 H588 0.930 . S
C600 C601 1.399 . S
C600 C605 1.399 . S
C601 C600 1.399 . S
C601 C602 1.376 . S
C602 H589 0.930 . S
C602 C601 1.376 . S
C602 C603 1.388 . S
C603 H590 0.930 . S
C603 C602 1.388 . S
C603 C604 1.390 . S
C604 C603 1.390 . S
C604 C605 1.394 . S
C604 C610 1.465 . S
C605 C600 1.399 . S
C605 C604 1.394 . S
C605 C606 1.516 . S
C606 C605 1.516 . S
C606 C607 1.502 . S
C606 C608 1.561 . S
C606 C609 1.526 . S
C607 H591 0.959 . S
C607 H592 0.959 . S
C607 H593 0.961 . S
C607 C606 1.502 . S
C608 H594 0.960 . S
C608 H595 0.961 . S
C608 H596 0.959 . S
C608 C606 1.561 . S
C609 C606 1.526 . S
C609 C610 1.396 . S
C609 C614 1.390 . S
C610 C604 1.465 . S
C610 C609 1.396 . S
C610 C611 1.399 . S
C611 H597 0.929 . S
C611 C610 1.399 . S
C611 C612 1.385 . S
C612 H598 0.931 . S
C612 C611 1.385 . S
C612 C613 1.389 . S
C613 C612 1.389 . S
C613 C614 1.387 . S
C614 H599 0.930 . S
C614 C609 1.390 . S
C614 C613 1.387 . S
H615 C627 0.930 . S
H616 C629 0.930 . S
H617 C630 0.930 . S
H618 C634 0.959 . S
H619 C634 0.959 . S
H620 C634 0.961 . S
H621 C635 0.960 . S
H622 C635 0.961 . S
H623 C635 0.959 . S
H624 C638 0.929 . S
H625 C639 0.931 . S
H626 C641 0.930 . S
C627 H615 0.930 . S
C627 C628 1.399 . S
C627 C632 1.399 . S
C628 C627 1.399 . S
C628 C629 1.376 . S
C629 H616 0.930 . S
C629 C628 1.376 . S
C629 C630 1.388 . S
C630 H617 0.930 . S
C630 C629 1.388 . S
C630 C631 1.390 . S
C631 C630 1.390 . S
C631 C632 1.394 . S
C631 C637 1.465 . S
C632 C627 1.399 . S
C632 C631 1.394 . S
C632 C633 1.516 . S
C633 C632 1.516 . S
C633 C634 1.502 . S
C633 C635 1.561 . S
C633 C636 1.526 . S
C634 H618 0.959 . S
C634 H619 0.959 . S
C634 H620 0.961 . S
C634 C633 1.502 . S
C635 H621 0.960 . S
C635 H622 0.961 . S
C635 H623 0.959 . S
C635 C633 1.561 . S
C636 C633 1.526 . S
C636 C637 1.396 . S
C636 C641 1.390 . S
C637 C631 1.465 . S
C637 C636 1.396 . S
C637 C638 1.399 . S
C638 H624 0.929 . S
C638 C637 1.399 . S
C638 C639 1.385 . S
C639 H625 0.931 . S
C639 C638 1.385 . S
C639 C640 1.389 . S
C640 C639 1.389 . S
C640 C641 1.387 . S
C641 H626 0.930 . S
C641 C636 1.390 . S
C641 C640 1.387 . S
H642 C654 0.930 . S
H643 C656 0.930 . S
H644 C657 0.930 . S
H645 C661 0.959 . S
H646 C661 0.959 . S
H647 C661 0.961 . S
H648 C662 0.960 . S
H649 C662 0.961 . S
H650 C662 0.959 . S
H651 C665 0.929 . S
H652 C666 0.931 . S
H653 C668 0.930 . S
C654 H642 0.930 . S
C654 C655 1.399 . S
C654 C659 1.399 . S
C655 C654 1.399 . S
C655 C656 1.376 . S
C656 H643 0.930 . S
C656 C655 1.376 . S
C656 C657 1.388 . S
C657 H644 0.930 . S
C657 C656 1.388 . S
C657 C658 1.390 . S
C658 C657 1.390 . S
C658 C659 1.394 . S
C658 C664 1.465 . S
C659 C654 1.399 . S
C659 C658 1.394 . S
C659 C660 1.516 . S
C660 C659 1.516 . S
C660 C661 1.502 . S
C660 C662 1.561 . S
C660 C663 1.526 . S
C661 H645 0.959 . S
C661 H646 0.959 . S
C661 H647 0.961 . S
C661 C660 1.502 . S
C662 H648 0.960 . S
C662 H649 0.961 . S
C662 H650 0.959 . S
C662 C660 1.561 . S
C663 C660 1.526 . S
C663 C664 1.396 . S
C663 C668 1.390 . S
C664 C658 1.465 . S
C664 C663 1.396 . S
C664 C665 1.399 . S
C665 H651 0.929 . S
C665 C664 1.399 . S
C665 C666 1.385 . S
C666 H652 0.931 . S
C666 C665 1.385 . S
C666 C667 1.389 . S
C667 C666 1.389 . S
C667 C668 1.387 . S
C668 H653 0.930 . S
C668 C663 1.390 . S
C668 C667 1.387 . S
H669 C681 0.930 . S
H670 C683 0.930 . S
H671 C684 0.930 . S
H672 C688 0.959 . S
H673 C688 0.959 . S
H674 C688 0.961 . S
H675 C689 0.960 . S
H676 C689 0.961 . S
H677 C689 0.959 . S
H678 C692 0.929 . S
H679 C693 0.931 . S
H680 C695 0.930 . S
C681 H669 0.930 . S
C681 C682 1.399 . S
C681 C686 1.399 . S
C682 C681 1.399 . S
C682 C683 1.376 . S
C683 H670 0.930 . S
C683 C682 1.376 . S
C683 C684 1.388 . S
C684 H671 0.930 . S
C684 C683 1.388 . S
C684 C685 1.390 . S
C685 C684 1.390 . S
C685 C686 1.394 . S
C685 C691 1.465 . S
C686 C681 1.399 . S
C686 C685 1.394 . S
C686 C687 1.516 . S
C687 C686 1.516 . S
C687 C688 1.502 . S
C687 C689 1.561 . S
C687 C690 1.526 . S
C688 H672 0.959 . S
C688 H673 0.959 . S
C688 H674 0.961 . S
C688 C687 1.502 . S
C689 H675 0.960 . S
C689 H676 0.961 . S
C689 H677 0.959 . S
C689 C687 1.561 . S
C690 C687 1.526 . S
C690 C691 1.396 . S
C690 C695 1.390 . S
C691 C685 1.465 . S
C691 C690 1.396 . S
C691 C692 1.399 . S
C692 H678 0.929 . S
C692 C691 1.399 . S
C692 C693 1.385 . S
C693 H679 0.931 . S
C693 C692 1.385 . S
C693 C694 1.389 . S
C694 C693 1.389 . S
C694 C695 1.387 . S
C695 H680 0.930 . S
C695 C690 1.390 . S
C695 C694 1.387 . S
H696 C708 0.930 . S
H697 C710 0.930 . S
H698 C711 0.930 . S
H699 C715 0.959 . S
H700 C715 0.959 . S
H701 C715 0.961 . S
H702 C716 0.960 . S
H703 C716 0.961 . S
H704 C716 0.959 . S
H705 C719 0.929 . S
H706 C720 0.931 . S
H707 C722 0.930 . S
C708 H696 0.930 . S
C708 C709 1.399 . S
C708 C713 1.399 . S
C709 C708 1.399 . S
C709 C710 1.376 . S
C710 H697 0.930 . S
C710 C709 1.376 . S
C710 C711 1.388 . S
C711 H698 0.930 . S
C711 C710 1.388 . S
C711 C712 1.390 . S
C712 C711 1.390 . S
C712 C713 1.394 . S
C712 C718 1.465 . S
C713 C708 1.399 . S
C713 C712 1.394 . S
C713 C714 1.516 . S
C714 C713 1.516 . S
C714 C715 1.502 . S
C714 C716 1.561 . S
C714 C717 1.526 . S
C715 H699 0.959 . S
C715 H700 0.959 . S
C715 H701 0.961 . S
C715 C714 1.502 . S
C716 H702 0.960 . S
C716 H703 0.961 . S
C716 H704 0.959 . S
C716 C714 1.561 . S
C717 C714 1.526 . S
C717 C718 1.396 . S
C717 C722 1.390 . S
C718 C712 1.465 . S
C718 C717 1.396 . S
C718 C719 1.399 . S
C719 H705 0.929 . S
C719 C718 1.399 . S
C719 C720 1.385 . S
C720 H706 0.931 . S
C720 C719 1.385 . S
C720 C721 1.389 . S
C721 C720 1.389 . S
C721 C722 1.387 . S
C722 H707 0.930 . S
C722 C717 1.390 . S
C722 C721 1.387 . S
H723 C735 0.930 . S
H724 C737 0.930 . S
H725 C738 0.930 . S
H726 C742 0.959 . S
H727 C742 0.959 . S
H728 C742 0.961 . S
H729 C743 0.960 . S
H730 C743 0.961 . S
H731 C743 0.959 . S
H732 C746 0.929 . S
H733 C747 0.931 . S
H734 C749 0.930 . S
C735 H723 0.930 . S
C735 C736 1.399 . S
C735 C740 1.399 . S
C736 C735 1.399 . S
C736 C737 1.376 . S
C737 H724 0.930 . S
C737 C736 1.376 . S
C737 C738 1.388 . S
C738 H725 0.930 . S
C738 C737 1.388 . S
C738 C739 1.390 . S
C739 C738 1.390 . S
C739 C740 1.394 . S
C739 C745 1.465 . S
C740 C735 1.399 . S
C740 C739 1.394 . S
C740 C741 1.516 . S
C741 C740 1.516 . S
C741 C742 1.502 . S
C741 C743 1.561 . S
C741 C744 1.526 . S
C742 H726 0.959 . S
C742 H727 0.959 . S
C742 H728 0.961 . S
C742 C741 1.502 . S
C743 H729 0.960 . S
C743 H730 0.961 . S
C743 H731 0.959 . S
C743 C741 1.561 . S
C744 C741 1.526 . S
C744 C745 1.396 . S
C744 C749 1.390 . S
C745 C739 1.465 . S
C745 C744 1.396 . S
C745 C746 1.399 . S
C746 H732 0.929 . S
C746 C745 1.399 . S
C746 C747 1.385 . S
C747 H733 0.931 . S
C747 C746 1.385 . S
C747 C748 1.389 . S
C748 C747 1.389 . S
C748 C749 1.387 . S
C749 H734 0.930 . S
C749 C744 1.390 . S
C749 C748 1.387 . S
H750 C762 0.930 . S
H751 C764 0.930 . S
H752 C765 0.930 . S
H753 C769 0.959 . S
H754 C769 0.959 . S
H755 C769 0.961 . S
H756 C770 0.967 . S
H757 C770 0.961 . S
H758 C770 0.959 . S
H759 C773 0.929 . S
H760 C774 0.931 . S
H761 C776 0.925 1_556 S
C762 H750 0.930 . S
C762 C763 1.399 . S
C762 C767 1.399 . S
C763 C762 1.399 . S
C763 C764 1.376 . S
C764 H751 0.930 . S
C764 C763 1.376 . S
C764 C765 1.388 . S
C765 H752 0.930 . S
C765 C764 1.388 . S
C765 C766 1.390 . S
C766 C765 1.390 . S
C766 C767 1.394 . S
C766 C772 1.465 . S
C767 C762 1.399 . S
C767 C766 1.394 . S
C767 C768 1.516 . S
C768 C767 1.516 . S
C768 C769 1.502 . S
C768 C770 1.561 1_554 S
C768 C771 1.526 . S
C769 H753 0.959 . S
C769 H754 0.959 . S
C769 H755 0.961 . S
C769 C768 1.502 . S
C770 H756 0.967 . S
C770 H757 0.961 . S
C770 H758 0.959 . S
C770 C768 1.561 1_556 S
C771 C768 1.526 . S
C771 C772 1.396 . S
C771 C776 1.415 . S
C772 C766 1.465 . S
C772 C771 1.396 . S
C772 C773 1.399 . S
C773 H759 0.929 . S
C773 C772 1.399 . S
C773 C774 1.385 1_554 S
C774 H760 0.931 . S
C774 C773 1.385 1_556 S
C774 C775 1.389 . S
C775 C774 1.389 . S
C775 C776 1.371 1_556 S
C776 H761 0.925 1_554 S
C776 C771 1.415 . S
C776 C775 1.371 1_554 S
H777 C789 0.930 . S
H778 C791 0.930 . S
H779 C792 0.930 . S
H780 C796 0.959 . S
H781 C796 0.959 . S
H782 C796 0.961 . S
H783 C797 0.960 . S
H784 C797 0.961 . S
H785 C797 0.959 . S
H786 C800 0.929 . S
H787 C801 0.931 . S
H788 C803 0.930 . S
C789 H777 0.930 . S
C789 C790 1.399 . S
C789 C794 1.399 . S
C790 C789 1.399 . S
C790 C791 1.376 . S
C791 H778 0.930 . S
C791 C790 1.376 . S
C791 C792 1.388 . S
C792 H779 0.930 . S
C792 C791 1.388 . S
C792 C793 1.390 . S
C793 C792 1.390 . S
C793 C794 1.394 . S
C793 C799 1.465 . S
C794 C789 1.399 . S
C794 C793 1.394 . S
C794 C795 1.516 . S
C795 C794 1.516 . S
C795 C796 1.502 . S
C795 C797 1.561 . S
C795 C798 1.526 . S
C796 H780 0.959 . S
C796 H781 0.959 . S
C796 H782 0.961 . S
C796 C795 1.502 . S
C797 H783 0.960 . S
C797 H784 0.961 . S
C797 H785 0.959 . S
C797 C795 1.561 . S
C798 C795 1.526 . S
C798 C799 1.396 . S
C798 C803 1.390 . S
C799 C793 1.465 . S
C799 C798 1.396 . S
C799 C800 1.399 . S
C800 H786 0.929 . S
C800 C799 1.399 . S
C800 C801 1.385 . S
C801 H787 0.931 . S
C801 C800 1.385 . S
C801 C802 1.389 . S
C802 C801 1.389 . S
C802 C803 1.387 . S
C803 H788 0.930 . S
C803 C798 1.390 . S
C803 C802 1.387 . S
H804 C816 0.930 . S
H805 C818 0.930 . S
H806 C819 0.930 . S
H807 C823 0.959 . S
H808 C823 0.959 . S
H809 C823 0.961 . S
H810 C824 0.960 . S
H811 C824 0.961 . S
H812 C824 0.959 . S
H813 C827 0.929 . S
H814 C828 0.931 . S
H815 C830 0.930 . S
C816 H804 0.930 . S
C816 C817 1.399 . S
C816 C821 1.399 . S
C817 C816 1.399 . S
C817 C818 1.376 . S
C818 H805 0.930 . S
C818 C817 1.376 . S
C818 C819 1.388 . S
C819 H806 0.930 . S
C819 C818 1.388 . S
C819 C820 1.390 . S
C820 C819 1.390 . S
C820 C821 1.394 . S
C820 C826 1.465 . S
C821 C816 1.399 . S
C821 C820 1.394 . S
C821 C822 1.516 . S
C822 C821 1.516 . S
C822 C823 1.502 . S
C822 C824 1.561 . S
C822 C825 1.526 . S
C823 H807 0.959 . S
C823 H808 0.959 . S
C823 H809 0.961 . S
C823 C822 1.502 . S
C824 H810 0.960 . S
C824 H811 0.961 . S
C824 H812 0.959 . S
C824 C822 1.561 . S
C825 C822 1.526 . S
C825 C826 1.396 . S
C825 C830 1.390 . S
C826 C820 1.465 . S
C826 C825 1.396 . S
C826 C827 1.399 . S
C827 H813 0.929 . S
C827 C826 1.399 . S
C827 C828 1.385 . S
C828 H814 0.931 . S
C828 C827 1.385 . S
C828 C829 1.389 . S
C829 C828 1.389 . S
C829 C830 1.387 . S
C830 H815 0.930 . S
C830 C825 1.390 . S
C830 C829 1.387 . S
H831 C843 0.930 . S
H832 C845 0.930 . S
H833 C846 0.930 . S
H834 C850 0.959 . S
H835 C850 0.959 . S
H836 C850 0.961 . S
H837 C851 0.960 . S
H838 C851 0.961 . S
H839 C851 0.959 . S
H840 C854 0.929 . S
H841 C855 0.931 . S
H842 C857 0.930 . S
C843 H831 0.930 . S
C843 C844 1.399 . S
C843 C848 1.399 . S
C844 C843 1.399 . S
C844 C845 1.376 . S
C845 H832 0.930 . S
C845 C844 1.376 . S
C845 C846 1.388 . S
C846 H833 0.930 . S
C846 C845 1.388 . S
C846 C847 1.390 . S
C847 C846 1.390 . S
C847 C848 1.394 . S
C847 C853 1.465 . S
C848 C843 1.399 . S
C848 C847 1.394 . S
C848 C849 1.516 . S
C849 C848 1.516 . S
C849 C850 1.502 . S
C849 C851 1.561 . S
C849 C852 1.526 . S
C850 H834 0.959 . S
C850 H835 0.959 . S
C850 H836 0.961 . S
C850 C849 1.502 . S
C851 H837 0.960 . S
C851 H838 0.961 . S
C851 H839 0.959 . S
C851 C849 1.561 . S
C852 C849 1.526 . S
C852 C853 1.396 . S
C852 C857 1.390 . S
C853 C847 1.465 . S
C853 C852 1.396 . S
C853 C854 1.399 . S
C854 H840 0.929 . S
C854 C853 1.399 . S
C854 C855 1.385 . S
C855 H841 0.931 . S
C855 C854 1.385 . S
C855 C856 1.389 . S
C856 C855 1.389 . S
C856 C857 1.387 . S
C857 H842 0.930 . S
C857 C852 1.390 . S
C857 C856 1.387 . S
H858 C870 0.930 . S
H859 C872 0.930 . S
H860 C873 0.930 . S
H861 C877 0.959 . S
H862 C877 0.959 . S
H863 C877 0.961 . S
H864 C878 0.960 . S
H865 C878 0.961 . S
H866 C878 0.959 . S
H867 C881 0.929 . S
H868 C882 0.931 . S
H869 C884 0.930 . S
C870 H858 0.930 . S
C870 C871 1.399 . S
C870 C875 1.399 . S
C871 C870 1.399 . S
C871 C872 1.376 . S
C872 H859 0.930 . S
C872 C871 1.376 . S
C872 C873 1.388 . S
C873 H860 0.930 . S
C873 C872 1.388 . S
C873 C874 1.390 . S
C874 C873 1.390 . S
C874 C875 1.394 . S
C874 C880 1.465 . S
C875 C870 1.399 . S
C875 C874 1.394 . S
C875 C876 1.516 . S
C876 C875 1.516 . S
C876 C877 1.502 . S
C876 C878 1.561 . S
C876 C879 1.526 . S
C877 H861 0.959 . S
C877 H862 0.959 . S
C877 H863 0.961 . S
C877 C876 1.502 . S
C878 H864 0.960 . S
C878 H865 0.961 . S
C878 H866 0.959 . S
C878 C876 1.561 . S
C879 C876 1.526 . S
C879 C880 1.396 . S
C879 C884 1.390 . S
C880 C874 1.465 . S
C880 C879 1.396 . S
C880 C881 1.399 . S
C881 H867 0.929 . S
C881 C880 1.399 . S
C881 C882 1.385 . S
C882 H868 0.931 . S
C882 C881 1.385 . S
C882 C883 1.389 . S
C883 C882 1.389 . S
C883 C884 1.387 . S
C884 H869 0.930 . S
C884 C879 1.390 . S
C884 C883 1.387 . S
H885 C897 0.930 . S
H886 C899 0.930 . S
H887 C900 0.930 . S
H888 C904 0.959 . S
H889 C904 0.959 . S
H890 C904 0.961 . S
H891 C905 0.960 . S
H892 C905 0.961 . S
H893 C905 0.959 . S
H894 C908 0.929 . S
H895 C909 0.931 . S
H896 C911 0.930 . S
C897 H885 0.930 . S
C897 C898 1.399 . S
C897 C902 1.399 . S
C898 C897 1.399 . S
C898 C899 1.376 . S
C899 H886 0.930 . S
C899 C898 1.376 . S
C899 C900 1.388 . S
C900 H887 0.930 . S
C900 C899 1.388 . S
C900 C901 1.390 . S
C901 C900 1.390 . S
C901 C902 1.394 . S
C901 C907 1.465 . S
C902 C897 1.399 . S
C902 C901 1.394 . S
C902 C903 1.516 . S
C903 C902 1.516 . S
C903 C904 1.502 . S
C903 C905 1.561 . S
C903 C906 1.526 . S
C904 H888 0.959 . S
C904 H889 0.959 . S
C904 H890 0.961 . S
C904 C903 1.502 . S
C905 H891 0.960 . S
C905 H892 0.961 . S
C905 H893 0.959 . S
C905 C903 1.561 . S
C906 C903 1.526 . S
C906 C907 1.396 . S
C906 C911 1.390 . S
C907 C901 1.465 . S
C907 C906 1.396 . S
C907 C908 1.399 . S
C908 H894 0.929 . S
C908 C907 1.399 . S
C908 C909 1.385 . S
C909 H895 0.931 . S
C909 C908 1.385 . S
C909 C910 1.389 . S
C910 C909 1.389 . S
C910 C911 1.387 . S
C911 H896 0.930 . S
C911 C906 1.390 . S
C911 C910 1.387 . S
H912 C924 0.930 . S
H913 C926 0.930 . S
H914 C927 0.930 . S
H915 C931 0.959 . S
H916 C931 0.959 . S
H917 C931 0.961 . S
H918 C932 0.960 . S
H919 C932 0.961 . S
H920 C932 0.959 . S
H921 C935 0.929 . S
H922 C936 0.931 . S
H923 C938 0.930 . S
C924 H912 0.930 . S
C924 C925 1.399 . S
C924 C929 1.399 . S
C925 C924 1.399 . S
C925 C926 1.376 . S
C926 H913 0.930 . S
C926 C925 1.376 . S
C926 C927 1.388 . S
C927 H914 0.930 . S
C927 C926 1.388 . S
C927 C928 1.390 . S
C928 C927 1.390 . S
C928 C929 1.394 . S
C928 C934 1.465 . S
C929 C924 1.399 . S
C929 C928 1.394 . S
C929 C930 1.516 . S
C930 C929 1.516 . S
C930 C931 1.502 . S
C930 C932 1.561 . S
C930 C933 1.526 . S
C931 H915 0.959 . S
C931 H916 0.959 . S
C931 H917 0.961 . S
C931 C930 1.502 . S
C932 H918 0.960 . S
C932 H919 0.961 . S
C932 H920 0.959 . S
C932 C930 1.561 . S
C933 C930 1.526 . S
C933 C934 1.396 . S
C933 C938 1.390 . S
C934 C928 1.465 . S
C934 C933 1.396 . S
C934 C935 1.399 . S
C935 H921 0.929 . S
C935 C934 1.399 . S
C935 C936 1.385 . S
C936 H922 0.931 . S
C936 C935 1.385 . S
C936 C937 1.389 . S
C937 C936 1.389 . S
C937 C938 1.387 . S
C938 H923 0.930 . S
C938 C933 1.390 . S
C938 C937 1.387 . S
H939 C951 0.930 . S
H940 C953 0.930 . S
H941 C954 0.930 . S
H942 C958 0.959 . S
H943 C958 0.959 . S
H944 C958 0.961 . S
H945 C959 0.960 . S
H946 C959 0.961 . S
H947 C959 0.959 . S
H948 C962 0.929 . S
H949 C963 0.931 . S
H950 C965 0.930 . S
C951 H939 0.930 . S
C951 C952 1.399 . S
C951 C956 1.399 . S
C952 C951 1.399 . S
C952 C953 1.376 . S
C953 H940 0.930 . S
C953 C952 1.376 . S
C953 C954 1.388 1_455 S
C954 H941 0.930 . S
C954 C953 1.388 1_655 S
C954 C955 1.390 . S
C955 C954 1.390 . S
C955 C956 1.394 1_655 S
C955 C961 1.465 . S
C956 C951 1.399 . S
C956 C955 1.394 1_455 S
C956 C957 1.504 1_455 S
C957 C956 1.504 1_655 S
C957 C958 1.443 1_655 S
C957 C959 1.614 . S
C957 C960 1.556 . S
C958 H942 0.959 . S
C958 H943 0.959 . S
C958 H944 0.961 . S
C958 C957 1.443 1_455 S
C959 H945 0.960 . S
C959 H946 0.961 . S
C959 H947 0.959 . S
C959 C957 1.614 . S
C960 C957 1.556 . S
C960 C961 1.396 . S
C960 C965 1.390 . S
C961 C955 1.465 . S
C961 C960 1.396 . S
C961 C962 1.399 . S
C962 H948 0.929 . S
C962 C961 1.399 . S
C962 C963 1.385 . S
C963 H949 0.931 . S
C963 C962 1.385 . S
C963 C964 1.389 . S
C964 C963 1.389 . S
C964 C965 1.387 . S
C965 H950 0.930 . S
C965 C960 1.390 . S
C965 C964 1.387 . S
H966 C978 0.930 . S
H967 C980 0.930 . S
H968 C981 0.930 . S
H969 C985 0.959 . S
H970 C985 0.959 . S
H971 C985 0.961 . S
H972 C986 0.960 . S
H973 C986 0.961 . S
H974 C986 0.959 . S
H975 C989 0.929 . S
H976 C990 0.931 . S
H977 C992 0.930 . S
C978 H966 0.930 . S
C978 C979 1.399 . S
C978 C983 1.399 . S
C979 C978 1.399 . S
C979 C980 1.376 . S
C980 H967 0.930 . S
C980 C979 1.376 . S
C980 C981 1.388 . S
C981 H968 0.930 . S
C981 C980 1.388 . S
C981 C982 1.390 . S
C982 C981 1.390 . S
C982 C983 1.394 . S
C982 C988 1.465 . S
C983 C978 1.399 . S
C983 C982 1.394 . S
C983 C984 1.516 . S
C984 C983 1.516 . S
C984 C985 1.502 . S
C984 C986 1.561 . S
C984 C987 1.526 . S
C985 H969 0.959 . S
C985 H970 0.959 . S
C985 H971 0.961 . S
C985 C984 1.502 . S
C986 H972 0.960 . S
C986 H973 0.961 . S
C986 H974 0.959 . S
C986 C984 1.561 . S
C987 C984 1.526 . S
C987 C988 1.396 . S
C987 C992 1.390 . S
C988 C982 1.465 . S
C988 C987 1.396 . S
C988 C989 1.399 . S
C989 H975 0.929 . S
C989 C988 1.399 . S
C989 C990 1.385 . S
C990 H976 0.931 . S
C990 C989 1.385 . S
C990 C991 1.389 . S
C991 C990 1.389 . S
C991 C992 1.387 . S
C992 H977 0.930 . S
C992 C987 1.390 . S
C992 C991 1.387 . S
H993 C1005 0.930 . S
H994 C1007 0.930 . S
H995 C1008 0.930 . S
H996 C1012 0.959 . S
H997 C1012 0.959 . S
H998 C1012 0.961 . S
H999 C1013 0.960 . S
H1000 C1013 0.961 . S
H1001 C1013 0.959 . S
H1002 C1016 0.929 . S
H1003 C1017 0.931 . S
H1004 C1019 0.930 . S
C1005 H993 0.930 . S
C1005 C1006 1.399 . S
C1005 C1010 1.399 . S
C1006 C1005 1.399 . S
C1006 C1007 1.376 . S
C1007 H994 0.930 . S
C1007 C1006 1.376 . S
C1007 C1008 1.388 . S
C1008 H995 0.930 . S
C1008 C1007 1.388 . S
C1008 C1009 1.390 . S
C1009 C1008 1.390 . S
C1009 C1010 1.394 . S
C1009 C1015 1.465 . S
C1010 C1005 1.399 . S
C1010 C1009 1.394 . S
C1010 C1011 1.516 . S
C1011 C1010 1.516 . S
C1011 C1012 1.502 . S
C1011 C1013 1.561 . S
C1011 C1014 1.526 . S
C1012 H996 0.959 . S
C1012 H997 0.959 . S
C1012 H998 0.961 . S
C1012 C1011 1.502 . S
C1013 H999 0.960 . S
C1013 H1000 0.961 . S
C1013 H1001 0.959 . S
C1013 C1011 1.561 . S
C1014 C1011 1.526 . S
C1014 C1015 1.396 . S
C1014 C1019 1.390 . S
C1015 C1009 1.465 . S
C1015 C1014 1.396 . S
C1015 C1016 1.399 . S
C1016 H1002 0.929 . S
C1016 C1015 1.399 . S
C1016 C1017 1.385 . S
C1017 H1003 0.931 . S
C1017 C1016 1.385 . S
C1017 C1018 1.389 . S
C1018 C1017 1.389 . S
C1018 C1019 1.387 . S
C1019 H1004 0.930 . S
C1019 C1014 1.390 . S
C1019 C1018 1.387 . S
H1020 C1032 0.930 . S
H1021 C1034 0.930 . S
H1022 C1035 0.930 . S
H1023 C1039 0.959 . S
H1024 C1039 0.959 . S
H1025 C1039 0.961 . S
H1026 C1040 0.960 . S
H1027 C1040 0.961 . S
H1028 C1040 0.959 . S
H1029 C1043 0.929 . S
H1030 C1044 0.931 . S
H1031 C1046 0.930 . S
C1032 H1020 0.930 . S
C1032 C1033 1.399 . S
C1032 C1037 1.399 . S
C1033 C1032 1.399 . S
C1033 C1034 1.376 . S
C1034 H1021 0.930 . S
C1034 C1033 1.376 . S
C1034 C1035 1.388 . S
C1035 H1022 0.930 . S
C1035 C1034 1.388 . S
C1035 C1036 1.390 . S
C1036 C1035 1.390 . S
C1036 C1037 1.394 . S
C1036 C1042 1.465 . S
C1037 C1032 1.399 . S
C1037 C1036 1.394 . S
C1037 C1038 1.516 . S
C1038 C1037 1.516 . S
C1038 C1039 1.502 . S
C1038 C1040 1.561 . S
C1038 C1041 1.526 . S
C1039 H1023 0.959 . S
C1039 H1024 0.959 . S
C1039 H1025 0.961 . S
C1039 C1038 1.502 . S
C1040 H1026 0.960 . S
C1040 H1027 0.961 . S
C1040 H1028 0.959 . S
C1040 C1038 1.561 . S
C1041 C1038 1.526 . S
C1041 C1042 1.396 . S
C1041 C1046 1.390 . S
C1042 C1036 1.465 . S
C1042 C1041 1.396 . S
C1042 C1043 1.399 . S
C1043 H1029 0.929 . S
C1043 C1042 1.399 . S
C1043 C1044 1.385 . S
C1044 H1030 0.931 . S
C1044 C1043 1.385 . S
C1044 C1045 1.389 . S
C1045 C1044 1.389 . S
C1045 C1046 1.387 . S
C1046 H1031 0.930 . S
C1046 C1041 1.390 . S
C1046 C1045 1.387 . S
H1047 C1059 0.930 . S
H1048 C1061 0.930 . S
H1049 C1062 0.930 . S
H1050 C1066 0.959 . S
H1051 C1066 0.959 . S
H1052 C1066 0.961 . S
H1053 C1067 0.960 . S
H1054 C1067 0.961 . S
H1055 C1067 0.959 . S
H1056 C1070 0.929 . S
H1057 C1071 0.931 . S
H1058 C1073 0.930 . S
C1059 H1047 0.930 . S
C1059 C1060 1.399 . S
C1059 C1064 1.399 . S
C1060 C1059 1.399 . S
C1060 C1061 1.376 . S
C1061 H1048 0.930 . S
C1061 C1060 1.376 . S
C1061 C1062 1.388 . S
C1062 H1049 0.930 . S
C1062 C1061 1.388 . S
C1062 C1063 1.390 . S
C1063 C1062 1.390 . S
C1063 C1064 1.394 . S
C1063 C1069 1.465 . S
C1064 C1059 1.399 . S
C1064 C1063 1.394 . S
C1064 C1065 1.516 . S
C1065 C1064 1.516 . S
C1065 C1066 1.502 . S
C1065 C1067 1.561 . S
C1065 C1068 1.526 . S
C1066 H1050 0.959 . S
C1066 H1051 0.959 . S
C1066 H1052 0.961 . S
C1066 C1065 1.502 . S
C1067 H1053 0.960 . S
C1067 H1054 0.961 . S
C1067 H1055 0.959 . S
C1067 C1065 1.561 . S
C1068 C1065 1.526 . S
C1068 C1069 1.396 . S
C1068 C1073 1.390 . S
C1069 C1063 1.465 . S
C1069 C1068 1.396 . S
C1069 C1070 1.399 . S
C1070 H1056 0.929 . S
C1070 C1069 1.399 . S
C1070 C1071 1.385 . S
C1071 H1057 0.931 . S
C1071 C1070 1.385 . S
C1071 C1072 1.389 . S
C1072 C1071 1.389 . S
C1072 C1073 1.387 . S
C1073 H1058 0.930 . S
C1073 C1068 1.390 . S
C1073 C1072 1.387 . S
H1074 C1086 0.930 . S
H1075 C1088 0.930 . S
H1076 C1089 0.930 . S
H1077 C1093 0.959 . S
H1078 C1093 0.959 . S
H1079 C1093 0.961 . S
H1080 C1094 0.960 . S
H1081 C1094 0.961 . S
H1082 C1094 0.959 . S
H1083 C1097 0.929 . S
H1084 C1098 0.931 . S
H1085 C1100 0.930 . S
C1086 H1074 0.930 . S
C1086 C1087 1.399 . S
C1086 C1091 1.399 . S
C1087 C1086 1.399 . S
C1087 C1088 1.376 1_565 S
C1088 H1075 0.930 . S
C1088 C1087 1.376 1_545 S
C1088 C1089 1.388 . S
C1089 H1076 0.930 . S
C1089 C1088 1.388 . S
C1089 C1090 1.390 . S
C1090 C1089 1.390 . S
C1090 C1091 1.394 1_545 S
C1090 C1096 1.465 . S
C1091 C1086 1.399 . S
C1091 C1090 1.394 1_565 S
C1091 C1092 1.516 . S
C1092 C1091 1.516 . S
C1092 C1093 1.502 . S
C1092 C1094 1.561 . S
C1092 C1095 1.526 . S
C1093 H1077 0.959 . S
C1093 H1078 0.959 . S
C1093 H1079 0.961 . S
C1093 C1092 1.502 . S
C1094 H1080 0.960 . S
C1094 H1081 0.961 . S
C1094 H1082 0.959 . S
C1094 C1092 1.561 . S
C1095 C1092 1.526 . S
C1095 C1096 1.396 1_565 S
C1095 C1100 1.390 . S
C1096 C1090 1.465 . S
C1096 C1095 1.396 1_545 S
C1096 C1097 1.399 . S
C1097 H1083 0.929 . S
C1097 C1096 1.399 . S
C1097 C1098 1.385 . S
C1098 H1084 0.931 . S
C1098 C1097 1.385 . S
C1098 C1099 1.389 . S
C1099 C1098 1.389 . S
C1099 C1100 1.387 1_545 S
C1100 H1085 0.930 . S
C1100 C1095 1.390 . S
C1100 C1099 1.387 1_565 S
H1101 C1113 0.930 . S
H1102 C1115 0.930 . S
H1103 C1116 0.930 . S
H1104 C1120 0.959 . S
H1105 C1120 0.959 . S
H1106 C1120 0.961 . S
H1107 C1121 0.960 . S
H1108 C1121 0.961 . S
H1109 C1121 0.959 . S
H1110 C1124 0.929 . S
H1111 C1125 0.931 . S
H1112 C1127 0.930 . S
C1113 H1101 0.930 . S
C1113 C1114 1.399 . S
C1113 C1118 1.399 . S
C1114 C1113 1.399 . S
C1114 C1115 1.376 . S
C1115 H1102 0.930 . S
C1115 C1114 1.376 . S
C1115 C1116 1.388 . S
C1116 H1103 0.930 . S
C1116 C1115 1.388 . S
C1116 C1117 1.390 . S
C1117 C1116 1.390 . S
C1117 C1118 1.394 . S
C1117 C1123 1.465 . S
C1118 C1113 1.399 . S
C1118 C1117 1.394 . S
C1118 C1119 1.516 . S
C1119 C1118 1.516 . S
C1119 C1120 1.502 . S
C1119 C1121 1.561 . S
C1119 C1122 1.526 . S
C1120 H1104 0.959 . S
C1120 H1105 0.959 . S
C1120 H1106 0.961 . S
C1120 C1119 1.502 . S
C1121 H1107 0.960 . S
C1121 H1108 0.961 . S
C1121 H1109 0.959 . S
C1121 C1119 1.561 . S
C1122 C1119 1.526 . S
C1122 C1123 1.396 . S
C1122 C1127 1.390 . S
C1123 C1117 1.465 . S
C1123 C1122 1.396 . S
C1123 C1124 1.399 . S
C1124 H1110 0.929 . S
C1124 C1123 1.399 . S
C1124 C1125 1.385 . S
C1125 H1111 0.931 . S
C1125 C1124 1.385 . S
C1125 C1126 1.389 . S
C1126 C1125 1.389 . S
C1126 C1127 1.387 . S
C1127 H1112 0.930 . S
C1127 C1122 1.390 . S
C1127 C1126 1.387 . S
H1128 C1140 0.930 . S
H1129 C1142 0.930 1_554 S
H1130 C1143 0.966 . S
H1131 C1147 0.959 . S
H1132 C1147 0.959 . S
H1133 C1147 0.961 . S
H1134 C1148 0.960 . S
H1135 C1148 0.961 . S
H1136 C1148 0.959 . S
H1137 C1151 0.887 1_554 S
H1138 C1152 0.931 1_554 S
H1139 C1154 0.930 . S
C1140 H1128 0.930 . S
C1140 C1141 1.399 . S
C1140 C1145 1.399 . S
C1141 C1140 1.399 . S
C1141 C1142 1.376 . S
C1142 H1129 0.930 1_556 S
C1142 C1141 1.376 . S
C1142 C1143 1.383 1_556 S
C1143 H1130 0.966 . S
C1143 C1142 1.383 1_554 S
C1143 C1144 1.360 1_554 S
C1144 C1143 1.360 1_556 S
C1144 C1145 1.394 . S
C1144 C1150 1.465 . S
C1145 C1140 1.399 . S
C1145 C1144 1.394 . S
C1145 C1146 1.516 . S
C1146 C1145 1.516 . S
C1146 C1147 1.502 . S
C1146 C1148 1.561 . S
C1146 C1149 1.526 . S
C1147 H1131 0.959 . S
C1147 H1132 0.959 . S
C1147 H1133 0.961 . S
C1147 C1146 1.502 . S
C1148 H1134 0.960 . S
C1148 H1135 0.961 . S
C1148 H1136 0.959 . S
C1148 C1146 1.561 . S
C1149 C1146 1.526 . S
C1149 C1150 1.396 . S
C1149 C1154 1.390 . S
C1150 C1144 1.465 . S
C1150 C1149 1.396 . S
C1150 C1151 1.433 . S
C1151 H1137 0.887 1_556 S
C1151 C1150 1.433 . S
C1151 C1152 1.397 . S
C1152 H1138 0.931 1_556 S
C1152 C1151 1.397 . S
C1152 C1153 1.389 . S
C1153 C1152 1.389 . S
C1153 C1154 1.387 . S
C1154 H1139 0.930 . S
C1154 C1149 1.390 . S
C1154 C1153 1.387 . S
H1155 C1167 0.930 . S
H1156 C1169 0.930 . S
H1157 C1170 0.930 . S
H1158 C1174 0.959 . S
H1159 C1174 0.959 . S
H1160 C1174 0.961 . S
H1161 C1175 0.960 . S
H1162 C1175 0.961 . S
H1163 C1175 0.959 . S
H1164 C1178 0.929 . S
H1165 C1179 0.931 . S
H1166 C1181 0.930 . S
C1167 H1155 0.930 . S
C1167 C1168 1.399 . S
C1167 C1172 1.399 . S
C1168 C1167 1.399 . S
C1168 C1169 1.376 . S
C1169 H1156 0.930 . S
C1169 C1168 1.376 . S
C1169 C1170 1.388 . S
C1170 H1157 0.930 . S
C1170 C1169 1.388 . S
C1170 C1171 1.390 . S
C1171 C1170 1.390 . S
C1171 C1172 1.394 . S
C1171 C1177 1.465 . S
C1172 C1167 1.399 . S
C1172 C1171 1.394 . S
C1172 C1173 1.516 . S
C1173 C1172 1.516 . S
C1173 C1174 1.502 . S
C1173 C1175 1.561 . S
C1173 C1176 1.526 . S
C1174 H1158 0.959 . S
C1174 H1159 0.959 . S
C1174 H1160 0.961 . S
C1174 C1173 1.502 . S
C1175 H1161 0.960 . S
C1175 H1162 0.961 . S
C1175 H1163 0.959 . S
C1175 C1173 1.561 . S
C1176 C1173 1.526 . S
C1176 C1177 1.396 . S
C1176 C1181 1.390 . S
C1177 C1171 1.465 . S
C1177 C1176 1.396 . S
C1177 C1178 1.399 . S
C1178 H1164 0.929 . S
C1178 C1177 1.399 . S
C1178 C1179 1.385 . S
C1179 H1165 0.931 . S
C1179 C1178 1.385 . S
C1179 C1180 1.389 . S
C1180 C1179 1.389 . S
C1180 C1181 1.387 . S
C1181 H1166 0.930 . S
C1181 C1176 1.390 . S
C1181 C1180 1.387 . S
H1182 C1194 0.930 . S
H1183 C1196 0.930 . S
H1184 C1197 0.930 . S
H1185 C1201 0.959 . S
H1186 C1201 0.959 . S
H1187 C1201 0.961 . S
H1188 C1202 0.960 . S
H1189 C1202 0.961 . S
H1190 C1202 0.959 . S
H1191 C1205 0.929 . S
H1192 C1206 0.931 . S
H1193 C1208 0.930 . S
C1194 H1182 0.930 . S
C1194 C1195 1.399 . S
C1194 C1199 1.399 . S
C1195 C1194 1.399 . S
C1195 C1196 1.376 . S
C1196 H1183 0.930 . S
C1196 C1195 1.376 . S
C1196 C1197 1.388 . S
C1197 H1184 0.930 . S
C1197 C1196 1.388 . S
C1197 C1198 1.390 . S
C1198 C1197 1.390 . S
C1198 C1199 1.394 . S
C1198 C1204 1.465 . S
C1199 C1194 1.399 . S
C1199 C1198 1.394 . S
C1199 C1200 1.516 . S
C1200 C1199 1.516 . S
C1200 C1201 1.502 . S
C1200 C1202 1.561 . S
C1200 C1203 1.526 . S
C1201 H1185 0.959 . S
C1201 H1186 0.959 . S
C1201 H1187 0.961 . S
C1201 C1200 1.502 . S
C1202 H1188 0.960 . S
C1202 H1189 0.961 . S
C1202 H1190 0.959 . S
C1202 C1200 1.561 . S
C1203 C1200 1.526 . S
C1203 C1204 1.396 . S
C1203 C1208 1.390 . S
C1204 C1198 1.465 . S
C1204 C1203 1.396 . S
C1204 C1205 1.399 . S
C1205 H1191 0.929 . S
C1205 C1204 1.399 . S
C1205 C1206 1.385 . S
C1206 H1192 0.931 . S
C1206 C1205 1.385 . S
C1206 C1207 1.389 . S
C1207 C1206 1.389 . S
C1207 C1208 1.387 . S
C1208 H1193 0.930 . S
C1208 C1203 1.390 . S
C1208 C1207 1.387 . S
H1209 C1221 0.930 . S
H1210 C1223 0.930 . S
H1211 C1224 0.930 . S
H1212 C1228 0.959 . S
H1213 C1228 0.959 . S
H1214 C1228 0.961 . S
H1215 C1229 0.960 . S
H1216 C1229 0.961 . S
H1217 C1229 0.959 . S
H1218 C1232 0.929 . S
H1219 C1233 0.931 . S
H1220 C1235 0.930 . S
C1221 H1209 0.930 . S
C1221 C1222 1.399 . S
C1221 C1226 1.399 . S
C1222 C1221 1.399 . S
C1222 C1223 1.376 . S
C1223 H1210 0.930 . S
C1223 C1222 1.376 . S
C1223 C1224 1.388 . S
C1224 H1211 0.930 . S
C1224 C1223 1.388 . S
C1224 C1225 1.390 . S
C1225 C1224 1.390 . S
C1225 C1226 1.394 . S
C1225 C1231 1.465 . S
C1226 C1221 1.399 . S
C1226 C1225 1.394 . S
C1226 C1227 1.516 . S
C1227 C1226 1.516 . S
C1227 C1228 1.502 . S
C1227 C1229 1.561 . S
C1227 C1230 1.526 . S
C1228 H1212 0.959 . S
C1228 H1213 0.959 . S
C1228 H1214 0.961 . S
C1228 C1227 1.502 . S
C1229 H1215 0.960 . S
C1229 H1216 0.961 . S
C1229 H1217 0.959 . S
C1229 C1227 1.561 . S
C1230 C1227 1.526 . S
C1230 C1231 1.396 . S
C1230 C1235 1.390 . S
C1231 C1225 1.465 . S
C1231 C1230 1.396 . S
C1231 C1232 1.399 . S
C1232 H1218 0.929 . S
C1232 C1231 1.399 . S
C1232 C1233 1.385 . S
C1233 H1219 0.931 . S
C1233 C1232 1.385 . S
C1233 C1234 1.389 . S
C1234 C1233 1.389 . S
C1234 C1235 1.387 . S
C1235 H1220 0.930 . S
C1235 C1230 1.390 . S
C1235 C1234 1.387 . S
C277 C49 1.009 . S
C289 C5 0.863 . S
C304 C60 1.234 . S
C316 C18 1.184 . S
C331 C29 1.220 . S
C343 C73 1.283 . S
C358 C38 0.813 . S
C370 C84 1.116 1_556 S
C385 C16 0.940 . S
C397 C93 0.826 . S
C412 C104 1.027 . S
C424 C27 0.861 . S
C439 C40 1.163 . S
C451 C117 1.266 . S
C466 C126 1.117 . S
C478 C7 1.176 . S
C493 C51 1.327 . S
C505 C128 1.338 . S
C520 C95 1.292 . S
C532 C62 1.301 . S
C547 C71 1.110 1_565 S
C559 C106 1.217 . S
C574 C82 0.915 . S
C586 C115 0.985 . S
C601 C137 1.141 . S
C613 C205 1.198 . S
C628 C216 1.264 . S
C640 C150 1.272 . S
C655 C225 1.033 . S
C667 C161 1.206 . S
C682 C172 1.279 . S
C694 C227 1.203 . S
C709 C181 0.977 . S
C721 C203 0.800 . S
C736 C236 1.020 . S
C748 C192 0.854 . S
C763 C214 0.955 . S
C775 C247 1.150 . S
C790 C194 1.235 . S
C802 C258 1.174 . S
C817 C238 1.345 . S
C829 C260 1.321 . S
C844 C139 1.299 . S
C856 C183 1.284 . S
C871 C249 1.212 . S
C883 C148 1.140 . S
C898 C170 1.160 . S
C910 C159 0.974 . S
C925 C8 1.540 . S
C937 C217 1.585 . S
C952 C19 1.639 . S
C964 C228 1.580 . S
C979 C195 1.571 . S
C991 C30 1.609 . S
C1006 C41 1.613 . S
C1018 C206 1.628 . S
C1033 C96 1.644 . S
C1045 C52 1.685 . S
C1060 C63 1.698 . S
C1072 C107 1.674 . S
C1087 C118 1.662 . S
C1099 C74 1.693 . S
C1114 C129 1.639 . S
C1126 C85 1.613 . S
C1141 C140 1.701 . S
C1153 C250 1.674 . S
C1168 C151 1.692 . S
C1180 C173 1.667 . S
C1195 C261 1.671 . S
C1207 C162 1.558 . S
C1222 C239 1.675 . S
C1234 C184 1.629 . S
