# Generated by pormake.
# Topology lcs, (4)-cn, num edge types: 1
# Building blocks:
#     Node 0, Type 0, BuildingBlock: QUQFOY_clean_sbu_1, # of connection points: 4
#     Node 1, Type 0, BuildingBlock: QUQFOY_clean_sbu_1, # of connection points: 4
#     Node 2, Type 0, BuildingBlock: QUQFOY_clean_sbu_1, # of connection points: 4
#     Node 3, Type 0, BuildingBlock: QUQFOY_clean_sbu_1, # of connection points: 4
#     Node 4, Type 0, BuildingBlock: QUQFOY_clean_sbu_1, # of connection points: 4
#     Node 5, Type 0, BuildingBlock: QUQFOY_clean_sbu_1, # of connection points: 4
#     Node 6, Type 0, BuildingBlock: QUQFOY_clean_sbu_1, # of connection points: 4
#     Node 7, Type 0, BuildingBlock: QUQFOY_clean_sbu_1, # of connection points: 4
#     Node 8, Type 0, BuildingBlock: QUQFOY_clean_sbu_1, # of connection points: 4
#     Node 9, Type 0, BuildingBlock: QUQFOY_clean_sbu_1, # of connection points: 4
#     Node 10, Type 0, BuildingBlock: QUQFOY_clean_sbu_1, # of connection points: 4
#     Node 11, Type 0, BuildingBlock: QUQFOY_clean_sbu_1, # of connection points: 4
#     Node 12, Type 0, BuildingBlock: QUQFOY_clean_sbu_1, # of connection points: 4
#     Node 13, Type 0, BuildingBlock: QUQFOY_clean_sbu_1, # of connection points: 4
#     Node 14, Type 0, BuildingBlock: QUQFOY_clean_sbu_1, # of connection points: 4
#     Node 15, Type 0, BuildingBlock: QUQFOY_clean_sbu_1, # of connection points: 4
#     Node 16, Type 0, BuildingBlock: QUQFOY_clean_sbu_1, # of connection points: 4
#     Node 17, Type 0, BuildingBlock: QUQFOY_clean_sbu_1, # of connection points: 4
#     Node 18, Type 0, BuildingBlock: QUQFOY_clean_sbu_1, # of connection points: 4
#     Node 19, Type 0, BuildingBlock: QUQFOY_clean_sbu_1, # of connection points: 4
#     Node 20, Type 0, BuildingBlock: QUQFOY_clean_sbu_1, # of connection points: 4
#     Node 21, Type 0, BuildingBlock: QUQFOY_clean_sbu_1, # of connection points: 4
#     Node 22, Type 0, BuildingBlock: QUQFOY_clean_sbu_1, # of connection points: 4
#     Node 23, Type 0, BuildingBlock: QUQFOY_clean_sbu_1, # of connection points: 4
#     Edge 24, Type (0, 0), BuildingBlock: ZUJKAS_clean_linker_0, # of connection points: 2
#     Edge 25, Type (0, 0), BuildingBlock: ZUJKAS_clean_linker_0, # of connection points: 2
#     Edge 26, Type (0, 0), BuildingBlock: ZUJKAS_clean_linker_0, # of connection points: 2
#     Edge 27, Type (0, 0), BuildingBlock: ZUJKAS_clean_linker_0, # of connection points: 2
#     Edge 28, Type (0, 0), BuildingBlock: ZUJKAS_clean_linker_0, # of connection points: 2
#     Edge 29, Type (0, 0), BuildingBlock: ZUJKAS_clean_linker_0, # of connection points: 2
#     Edge 30, Type (0, 0), BuildingBlock: ZUJKAS_clean_linker_0, # of connection points: 2
#     Edge 31, Type (0, 0), BuildingBlock: ZUJKAS_clean_linker_0, # of connection points: 2
#     Edge 32, Type (0, 0), BuildingBlock: ZUJKAS_clean_linker_0, # of connection points: 2
#     Edge 33, Type (0, 0), BuildingBlock: ZUJKAS_clean_linker_0, # of connection points: 2
#     Edge 34, Type (0, 0), BuildingBlock: ZUJKAS_clean_linker_0, # of connection points: 2
#     Edge 35, Type (0, 0), BuildingBlock: ZUJKAS_clean_linker_0, # of connection points: 2
#     Edge 36, Type (0, 0), BuildingBlock: ZUJKAS_clean_linker_0, # of connection points: 2
#     Edge 37, Type (0, 0), BuildingBlock: ZUJKAS_clean_linker_0, # of connection points: 2
#     Edge 38, Type (0, 0), BuildingBlock: ZUJKAS_clean_linker_0, # of connection points: 2
#     Edge 39, Type (0, 0), BuildingBlock: ZUJKAS_clean_linker_0, # of connection points: 2
#     Edge 40, Type (0, 0), BuildingBlock: ZUJKAS_clean_linker_0, # of connection points: 2
#     Edge 41, Type (0, 0), BuildingBlock: ZUJKAS_clean_linker_0, # of connection points: 2
#     Edge 42, Type (0, 0), BuildingBlock: ZUJKAS_clean_linker_0, # of connection points: 2
#     Edge 43, Type (0, 0), BuildingBlock: ZUJKAS_clean_linker_0, # of connection points: 2
#     Edge 44, Type (0, 0), BuildingBlock: ZUJKAS_clean_linker_0, # of connection points: 2
#     Edge 45, Type (0, 0), BuildingBlock: ZUJKAS_clean_linker_0, # of connection points: 2
#     Edge 46, Type (0, 0), BuildingBlock: ZUJKAS_clean_linker_0, # of connection points: 2
#     Edge 47, Type (0, 0), BuildingBlock: ZUJKAS_clean_linker_0, # of connection points: 2
#     Edge 48, Type (0, 0), BuildingBlock: ZUJKAS_clean_linker_0, # of connection points: 2
#     Edge 49, Type (0, 0), BuildingBlock: ZUJKAS_clean_linker_0, # of connection points: 2
#     Edge 50, Type (0, 0), BuildingBlock: ZUJKAS_clean_linker_0, # of connection points: 2
#     Edge 51, Type (0, 0), BuildingBlock: ZUJKAS_clean_linker_0, # of connection points: 2
#     Edge 52, Type (0, 0), BuildingBlock: ZUJKAS_clean_linker_0, # of connection points: 2
#     Edge 53, Type (0, 0), BuildingBlock: ZUJKAS_clean_linker_0, # of connection points: 2
#     Edge 54, Type (0, 0), BuildingBlock: ZUJKAS_clean_linker_0, # of connection points: 2
#     Edge 55, Type (0, 0), BuildingBlock: ZUJKAS_clean_linker_0, # of connection points: 2
#     Edge 56, Type (0, 0), BuildingBlock: ZUJKAS_clean_linker_0, # of connection points: 2
#     Edge 57, Type (0, 0), BuildingBlock: ZUJKAS_clean_linker_0, # of connection points: 2
#     Edge 58, Type (0, 0), BuildingBlock: ZUJKAS_clean_linker_0, # of connection points: 2
#     Edge 59, Type (0, 0), BuildingBlock: ZUJKAS_clean_linker_0, # of connection points: 2
#     Edge 60, Type (0, 0), BuildingBlock: ZUJKAS_clean_linker_0, # of connection points: 2
#     Edge 61, Type (0, 0), BuildingBlock: ZUJKAS_clean_linker_0, # of connection points: 2
#     Edge 62, Type (0, 0), BuildingBlock: ZUJKAS_clean_linker_0, # of connection points: 2
#     Edge 63, Type (0, 0), BuildingBlock: ZUJKAS_clean_linker_0, # of connection points: 2
#     Edge 64, Type (0, 0), BuildingBlock: ZUJKAS_clean_linker_0, # of connection points: 2
#     Edge 65, Type (0, 0), BuildingBlock: ZUJKAS_clean_linker_0, # of connection points: 2
#     Edge 66, Type (0, 0), BuildingBlock: ZUJKAS_clean_linker_0, # of connection points: 2
#     Edge 67, Type (0, 0), BuildingBlock: ZUJKAS_clean_linker_0, # of connection points: 2
#     Edge 68, Type (0, 0), BuildingBlock: ZUJKAS_clean_linker_0, # of connection points: 2
#     Edge 69, Type (0, 0), BuildingBlock: ZUJKAS_clean_linker_0, # of connection points: 2
#     Edge 70, Type (0, 0), BuildingBlock: ZUJKAS_clean_linker_0, # of connection points: 2
#     Edge 71, Type (0, 0), BuildingBlock: ZUJKAS_clean_linker_0, # of connection points: 2
# Relax obj value: 0.051
# Max RMSD: 0.116
# Mean RMSD: 0.114
data_MOF--net-lcs--node1-QUQFOY_clean_sbu_1--edge1-ZUJKAS_clean_linker_0
_symmetry_space_group_name_H-M    P1
_symmetry_Int_Tables_number       1
_symmetry_cell_setting            triclinic
loop_
_symmetry_equiv_pos_as_xyz
'x, y, z'
_cell_length_a     65.984936
_cell_length_b     65.960058
_cell_length_c     65.980207
_cell_angle_alpha  94.249468
_cell_angle_beta   94.281855
_cell_angle_gamma 94.277991
loop_
_atom_site_label
_atom_site_type_symbol
_atom_site_fract_x
_atom_site_fract_y
_atom_site_fract_z
_atom_type_partial_charge
O0 O 0.04858 0.26439 0.39025 0.0
Cd1 Cd 0.02541 0.27032 0.36929 0.0
Cd2 Cd 1.00247 0.26333 0.40139 0.0
O3 O 0.0307 0.26114 0.41696 0.0
O4 O 0.03944 0.28341 0.34727 0.0
O5 O 0.01817 0.29916 0.36613 0.0
C6 C 0.03043 0.29964 0.35175 0.0
C7 C 0.97714 0.28191 0.4153 0.0
C8 C 0.04766 0.26115 0.40894 0.0
C9 C 0.99515 0.23392 0.3637 0.0
O10 O 0.99126 0.23842 0.38199 0.0
O11 O 0.00791 0.24521 0.3552 0.0
O12 O 0.98208 0.26504 0.42224 0.0
O13 O 0.98736 0.28888 0.40099 0.0
O14 O 0.04555 0.73159 0.63703 0.0
Cd15 Cd 0.0237 0.74259 0.65488 0.0
Cd16 Cd 0.01426 0.76187 0.61956 0.0
O17 O 0.03596 0.74406 0.608 0.0
O18 O 0.02392 0.72525 0.67843 0.0
O19 O 0.99709 0.72577 0.6564 0.0
C20 C 0.00545 0.71855 0.67238 0.0
C21 C 0.98365 0.76594 0.60047 0.0
C22 C 0.04773 0.73348 0.61825 0.0
C23 C 0.0291 0.78827 0.65809 0.0
O24 O 0.02458 0.78706 0.63896 0.0
O25 O 0.02878 0.77226 0.66772 0.0
O26 O 1.00086 0.774 0.59571 0.0
O27 O 0.98387 0.7546 0.61563 0.0
O28 O 0.55 0.76496 0.89165 0.0
Cd29 Cd 0.52615 0.7706 0.87104 0.0
Cd30 Cd 0.50466 0.7633 0.90397 0.0
O31 O 0.53306 0.76217 0.91908 0.0
O32 O 0.53981 0.78273 0.84823 0.0
O33 O 0.51947 0.79957 0.86726 0.0
C34 C 0.53133 0.79932 0.85253 0.0
C35 C 0.47923 0.78218 0.9172 0.0
C36 C 0.5497 0.76214 0.9105 0.0
C37 C 0.4968 0.73335 0.86711 0.0
O38 O 0.49432 0.73738 0.88584 0.0
O39 O 0.50784 0.74548 0.85762 0.0
O40 O 0.48449 0.76579 0.92496 0.0
O41 O 0.48909 0.78844 0.90232 0.0
O42 O 0.54575 0.23296 0.13779 0.0
Cd43 Cd 0.52376 0.24337 0.15578 0.0
Cd44 Cd 0.51355 0.26231 0.12021 0.0
O45 O 0.53535 0.24465 0.1086 0.0
O46 O 0.52463 0.22591 0.17924 0.0
O47 O 0.49756 0.2259 0.15742 0.0
C48 C 0.50628 0.21874 0.17326 0.0
C49 C 0.48307 0.26635 0.10084 0.0
C50 C 0.54757 0.23457 0.11891 0.0
C51 C 0.52833 0.28902 0.15873 0.0
O52 O 0.52372 0.28759 0.1396 0.0
O53 O 0.52829 0.27312 0.16852 0.0
O54 O 0.50034 0.2745 0.0963 0.0
O55 O 0.48316 0.25497 0.11596 0.0
O56 O 0.04014 0.72728 0.13414 0.0
Cd57 Cd 0.03011 0.74978 0.11642 0.0
Cd58 Cd 0.00978 0.7581 0.15118 0.0
O59 O 0.02684 0.73606 0.16293 0.0
O60 O 0.04803 0.74913 0.09333 0.0
O61 O 0.0479 0.77593 0.11544 0.0
C62 C 0.05525 0.76738 0.09964 0.0
C63 C 0.00615 0.78907 0.16972 0.0
C64 C 0.03763 0.72452 0.1527 0.0
C65 C 0.98435 0.74467 0.11192 0.0
O66 O 0.98507 0.748 0.13118 0.0
O67 O 1.00061 0.74586 0.10272 0.0
O68 O 0.99744 0.77214 0.17452 0.0
O69 O 0.01785 0.78831 0.15486 0.0
O70 O 0.50807 0.72315 0.38254 0.0
Cd71 Cd 0.50245 0.74612 0.40386 0.0
Cd72 Cd 0.50956 0.76964 0.37215 0.0
O73 O 0.51172 0.74157 0.35626 0.0
O74 O 0.48926 0.7319 0.4257 0.0
O75 O 0.47378 0.7537 0.40726 0.0
C76 C 0.47318 0.74123 0.42146 0.0
C77 C 0.49088 0.79499 0.35834 0.0
C78 C 0.51144 0.7244 0.36393 0.0
C79 C 0.539 0.77623 0.40987 0.0
O80 O 0.53444 0.78059 0.39173 0.0
O81 O 0.52773 0.76323 0.41809 0.0
O82 O 0.50783 0.79024 0.35147 0.0
O83 O 0.48397 0.78468 0.37262 0.0
O84 O 0.53991 0.22822 0.63583 0.0
Cd85 Cd 0.52959 0.25098 0.61861 0.0
Cd86 Cd 0.51033 0.25921 0.65389 0.0
O87 O 0.52832 0.23768 0.66532 0.0
O88 O 0.54682 0.25055 0.59498 0.0
O89 O 0.54741 0.2771 0.61753 0.0
C90 C 0.55424 0.26872 0.60135 0.0
C91 C 0.50665 0.29033 0.67216 0.0
C92 C 0.53842 0.22582 0.65464 0.0
C93 C 0.48392 0.24569 0.61529 0.0
O94 O 0.48518 0.24858 0.63461 0.0
O95 O 0.49985 0.24735 0.60563 0.0
O96 O 0.49849 0.27337 0.67749 0.0
O97 O 0.5179 0.28954 0.65694 0.0
O98 O 0.00733 0.22341 0.88273 0.0
Cd99 Cd 1.00146 0.24714 0.90317 0.0
Cd100 Cd 0.00787 0.26897 0.8704 0.0
O101 O 0.00925 0.24045 0.85531 0.0
O102 O 0.98852 0.23381 0.9257 0.0
O103 O 0.97257 0.25431 0.90606 0.0
C104 C 0.97219 0.24253 0.92086 0.0
C105 C 0.98905 0.2941 0.8564 0.0
C106 C 0.00979 0.22378 0.86382 0.0
C107 C 0.03808 0.27707 0.90733 0.0
O108 O 0.0335 0.28006 0.8888 0.0
O109 O 0.02656 0.2652 0.91661 0.0
O110 O 0.00564 0.28885 0.84908 0.0
O111 O 0.98256 0.2844 0.87127 0.0
O112 O 0.3914 0.04888 0.26621 0.0
Cd113 Cd 0.3704 0.02566 0.27194 0.0
Cd114 Cd 0.40286 1.00283 0.26529 0.0
O115 O 0.41828 0.03118 0.26329 0.0
O116 O 0.34796 0.03987 0.28405 0.0
O117 O 0.36639 0.01897 0.30083 0.0
C118 C 0.35198 0.03121 0.3006 0.0
C119 C 0.41682 0.97752 0.28391 0.0
C120 C 0.41014 0.04809 0.26319 0.0
C121 C 0.36548 0.99538 0.23548 0.0
O122 O 0.38377 0.9916 0.24016 0.0
O123 O 0.35676 0.00802 0.2467 0.0
O124 O 0.42389 0.98262 0.26716 0.0
O125 O 0.40232 0.98754 0.29074 0.0
O126 O 0.23376 0.13815 0.54657 0.0
Cd127 Cd 0.2436 0.15559 0.52379 0.0
Cd128 Cd 0.26304 0.1205 0.51506 0.0
O129 O 0.24545 0.10881 0.53676 0.0
O130 O 0.2259 0.17886 0.52437 0.0
O131 O 0.2256 0.15641 0.49777 0.0
C132 C 0.21847 0.17239 0.50624 0.0
C133 C 0.26668 0.10208 0.48402 0.0
C134 C 0.23544 0.11935 0.54883 0.0
C135 C 0.28924 0.15931 0.52861 0.0
O136 O 0.28809 0.14 0.52549 0.0
O137 O 0.27322 0.16888 0.52727 0.0
O138 O 0.27507 0.09698 0.50097 0.0
O139 O 0.25527 0.11718 0.48478 0.0
O140 O 0.13564 0.04009 0.72762 0.0
Cd141 Cd 0.11795 0.02962 0.7498 0.0
Cd142 Cd 0.15365 0.01104 0.75989 0.0
O143 O 0.16494 0.02851 0.73779 0.0
O144 O 0.09432 0.04684 0.74911 0.0
O145 O 0.11646 0.04714 0.77599 0.0
C146 C 0.10044 0.05411 0.7674 0.0
C147 C 0.17315 0.00737 0.79037 0.0
C148 C 0.15449 0.03851 0.72561 0.0
C149 C 0.11527 0.98398 0.74566 0.0
O150 O 0.13442 0.98556 0.75015 0.0
O151 O 0.10539 0.9998 0.74555 0.0
O152 O 0.17775 0.9992 0.77314 0.0
O153 O 0.15794 0.01863 0.79022 0.0
O154 O 0.22573 0.88307 0.00825 0.0
Cd155 Cd 0.24904 0.90396 1.00253 0.0
Cd156 Cd 0.27178 0.87156 0.00937 0.0
O157 O 0.24343 0.85622 0.01144 0.0
O158 O 0.23517 0.92628 0.98978 0.0
O159 O 0.25624 0.90743 0.97373 0.0
C160 C 0.24411 0.92193 0.97348 0.0
C161 C 0.297 0.85738 0.99083 0.0
C162 C 0.22651 0.86435 0.01141 0.0
C163 C 0.27927 0.9091 0.03899 0.0
O164 O 0.28309 0.8908 0.03438 0.0
O165 O 0.26658 0.91773 0.02776 0.0
O166 O 0.29193 0.85047 0.00766 0.0
O167 O 0.28701 0.87186 0.98388 0.0
O168 O 0.26503 0.38989 0.0472 0.0
Cd169 Cd 0.27083 0.36916 0.02371 0.0
Cd170 Cd 0.26429 0.40175 1.00153 0.0
O171 O 0.26299 0.41714 0.0299 0.0
O172 O 0.28363 0.3468 0.03747 0.0
O173 O 0.29972 0.36595 0.01665 0.0
C174 C 0.3 0.35139 0.02872 0.0
C175 C 0.2829 0.41545 0.9761 0.0
C176 C 0.26253 0.40878 0.04666 0.0
C177 C 0.23412 0.3647 0.9939 0.0
O178 O 0.23866 0.3832 0.99073 0.0
O179 O 0.2457 0.35554 0.00583 0.0
O180 O 0.26634 0.4228 0.98136 0.0
O181 O 0.28952 0.40074 0.98598 0.0
O182 O 0.72623 0.13514 0.03874 0.0
Cd183 Cd 0.74891 0.1176 0.02888 0.0
Cd184 Cd 0.75731 0.15271 0.00873 0.0
O185 O 0.73548 0.16425 0.02625 0.0
O186 O 0.74803 0.09435 0.04662 0.0
O187 O 0.77485 0.11653 0.04698 0.0
C188 C 0.76619 0.10064 0.05411 0.0
C189 C 0.7878 0.17188 0.00442 0.0
C190 C 0.7237 0.15383 0.03666 0.0
C191 C 0.74393 0.11342 0.98317 0.0
O192 O 0.74705 0.13272 0.98401 0.0
O193 O 0.74528 0.10409 0.99935 0.0
O194 O 0.77055 0.17637 0.99617 0.0
O195 O 0.78766 0.15695 0.01605 0.0
O196 O 0.13544 0.54428 0.22959 0.0
Cd197 Cd 0.15407 0.52298 0.24042 0.0
Cd198 Cd 0.11925 0.51334 0.26096 0.0
O199 O 0.1072 0.53522 0.24375 0.0
O200 O 0.17725 0.52403 0.22264 0.0
O201 O 0.15616 0.49653 0.22347 0.0
C202 C 0.17168 0.50545 0.21595 0.0
C203 C 0.10009 0.48287 0.26543 0.0
C204 C 0.11687 0.54664 0.2324 0.0
C205 C 0.15845 0.52844 0.2862 0.0
O206 O 0.13942 0.52348 0.28557 0.0
O207 O 0.16753 0.52848 0.26986 0.0
O208 O 0.0958 0.50011 0.27384 0.0
O209 O 0.11483 0.48298 0.25358 0.0
O210 O 0.76603 0.89255 0.54891 0.0
Cd211 Cd 0.77141 0.87063 0.52636 0.0
Cd212 Cd 0.76372 0.90166 0.50192 0.0
O213 O 0.76051 0.91783 0.52956 0.0
O214 O 0.78466 0.84913 0.54109 0.0
O215 O 0.80003 0.86689 0.51872 0.0
C216 C 0.80068 0.85304 0.53157 0.0
C217 C 0.78215 0.91556 0.47646 0.0
C218 C 0.76161 0.91079 0.54702 0.0
C219 C 0.73484 0.86358 0.49612 0.0
O220 O 0.73942 0.88145 0.49102 0.0
O221 O 0.74596 0.85597 0.50971 0.0
O222 O 0.76495 0.922 0.48097 0.0
O223 O 0.78949 0.90174 0.48712 0.0
O224 O 0.8821 0.0074 0.22286 0.0
Cd225 Cd 0.90324 1.00167 0.24595 0.0
Cd226 Cd 0.87106 0.00813 0.26909 0.0
O227 O 0.85546 0.01029 0.24089 0.0
O228 O 0.92558 0.98942 0.2317 0.0
O229 O 0.90716 0.97279 0.25271 0.0
C230 C 0.92153 0.97292 0.24043 0.0
C231 C 0.85717 0.98916 0.29417 0.0
C232 C 0.86338 0.01043 0.22388 0.0
C233 C 0.90839 0.03798 0.27642 0.0
O234 O 0.89018 0.03321 0.28041 0.0
O235 O 0.91696 0.02689 0.26356 0.0
O236 O 0.8501 0.006 0.28933 0.0
O237 O 0.87169 0.9825 0.28406 0.0
O238 O 0.22609 0.63358 0.53723 0.0
Cd239 Cd 0.24926 0.61705 0.527 0.0
Cd240 Cd 0.25887 0.65302 0.5095 0.0
O241 O 0.2364 0.66348 0.52698 0.0
O242 O 0.24991 0.59291 0.54351 0.0
O243 O 0.27523 0.61708 0.5452 0.0
C244 C 0.26765 0.60021 0.5514 0.0
C245 C 0.28949 0.67265 0.50692 0.0
C246 C 0.22399 0.65251 0.53625 0.0
C247 C 0.24591 0.61526 0.48141 0.0
O248 O 0.24962 0.63451 0.48341 0.0
O249 O 0.24613 0.60503 0.49699 0.0
O250 O 0.27241 0.67758 0.49871 0.0
O251 O 0.28909 0.65704 0.51767 0.0
O252 O 0.38106 0.50784 0.72278 0.0
Cd253 Cd 0.4018 0.50246 0.74662 0.0
Cd254 Cd 0.36896 0.50942 0.76817 0.0
O255 O 0.35368 0.51032 0.73983 0.0
O256 O 0.42463 0.49043 0.73295 0.0
O257 O 0.40578 0.47359 0.75346 0.0
C258 C 0.42045 0.47386 0.74153 0.0
C259 C 0.35583 0.49053 0.79367 0.0
C260 C 0.36218 0.51045 0.72315 0.0
C261 C 0.40547 0.53986 0.77565 0.0
O262 O 0.38681 0.53559 0.77828 0.0
O263 O 0.41508 0.5278 0.76467 0.0
O264 O 0.34799 0.50686 0.78836 0.0
O265 O 0.37078 0.48437 0.78388 0.0
O266 O 0.63723 0.04572 0.73395 0.0
Cd267 Cd 0.65371 0.02211 0.74349 0.0
Cd268 Cd 0.61834 0.01402 0.76236 0.0
O269 O 0.60735 0.03587 0.74449 0.0
O270 O 0.67754 0.02215 0.72651 0.0
O271 O 0.65362 0.99662 0.72452 0.0
C272 C 0.67027 0.00456 0.71821 0.0
C273 C 0.59988 0.98292 0.76575 0.0
C274 C 0.61837 0.0481 0.73507 0.0
C275 C 0.65684 0.02642 0.78914 0.0
O276 O 0.63748 0.02427 0.78772 0.0
O277 O 0.66656 0.02447 0.77328 0.0
O278 O 0.59454 0.99987 0.77392 0.0
O279 O 0.61517 0.98373 0.75459 0.0
O280 O 0.73474 0.63579 0.04367 0.0
Cd281 Cd 0.74508 0.65254 0.02053 0.0
Cd282 Cd 0.7648 0.61708 0.01304 0.0
O283 O 0.74716 0.60643 0.03516 0.0
O284 O 0.72846 0.67664 0.02047 0.0
O285 O 0.72674 0.65307 0.99466 0.0
C286 C 0.72058 0.66979 1.0026 0.0
C287 C 0.76853 0.59752 0.98267 0.0
C288 C 0.73672 0.61716 0.04663 0.0
C289 C 0.79097 0.65597 0.02535 0.0
O290 O 0.78992 0.63663 0.02289 0.0
O291 O 0.7749 0.66542 0.02366 0.0
O292 O 0.77669 0.59295 0.99993 0.0
O293 O 0.75725 0.61272 0.98274 0.0
O294 O 0.89069 0.54754 0.76406 0.0
Cd295 Cd 0.87114 0.52297 0.76993 0.0
Cd296 Cd 0.90481 0.50333 0.76375 0.0
O297 O 0.91929 0.53225 0.76402 0.0
O298 O 0.84789 0.5354 0.78246 0.0
O299 O 0.86832 0.51594 0.79888 0.0
C300 C 0.85301 0.52708 0.79896 0.0
C301 C 0.9176 0.47767 0.7826 0.0
C302 C 0.90986 0.5483 0.76271 0.0
C303 C 0.86897 0.49436 0.73266 0.0
O304 O 0.88791 0.49314 0.73695 0.0
O305 O 0.85856 0.50423 0.74487 0.0
O306 O 0.92612 0.48357 0.76684 0.0
O307 O 0.90223 0.48708 0.78831 0.0
O308 O 0.72452 0.38286 0.50801 0.0
Cd309 Cd 0.74874 0.40255 0.50152 0.0
Cd310 Cd 0.76885 0.36877 0.50745 0.0
O311 O 0.73999 0.35434 0.50791 0.0
O312 O 0.73568 0.42592 0.48984 0.0
O313 O 0.75457 0.40586 0.47227 0.0
C314 C 0.74336 0.42112 0.47291 0.0
C315 C 0.79404 0.35542 0.48832 0.0
C316 C 0.72393 0.3637 0.50948 0.0
C317 C 0.77852 0.40491 0.53806 0.0
O318 O 0.77973 0.38595 0.53386 0.0
O319 O 0.76818 0.41517 0.52606 0.0
O320 O 0.78837 0.34722 0.50433 0.0
O321 O 0.78467 0.37079 0.48252 0.0
O322 O 0.63803 0.54153 0.2274 0.0
Cd323 Cd 0.6197 0.5307 0.24896 0.0
Cd324 Cd 0.65504 0.51119 0.25888 0.0
O325 O 0.66675 0.52835 0.23674 0.0
O326 O 0.59627 0.54819 0.24793 0.0
O327 O 0.61773 0.54795 0.27524 0.0
C328 C 0.60203 0.55521 0.26637 0.0
C329 C 0.67382 0.50776 0.28983 0.0
C330 C 0.65671 0.53922 0.2251 0.0
C331 C 0.61631 0.48489 0.24434 0.0
O332 O 0.6354 0.48606 0.24913 0.0
O333 O 0.6068 0.50095 0.2441 0.0
O334 O 0.67864 0.49916 0.27287 0.0
O335 O 0.65882 0.51929 0.28912 0.0
H336 H 0.10831 0.4436 0.25421 0.0
H337 H 0.09326 0.4122 0.26655 0.0
H338 H 0.05293 0.44713 0.30099 0.0
H339 H 0.06799 0.47853 0.28895 0.0
H340 H 0.07434 0.42136 0.3241 0.0
H341 H 0.03815 0.37941 0.253 0.0
H342 H 0.06444 0.38808 0.2517 0.0
H343 H 0.04581 0.40639 0.25469 0.0
C344 C 0.09598 0.44456 0.2641 0.0
C345 C 0.08938 0.46358 0.27061 0.0
C346 C 0.08733 0.42658 0.27109 0.0
C347 C 0.07183 0.42729 0.28456 0.0
C348 C 0.06482 0.44621 0.29056 0.0
H349 H 0.01448 0.3367 0.35766 0.0
H350 H 0.02306 0.36785 0.34096 0.0
C351 C 0.07345 0.46415 0.28362 0.0
C352 C 0.06409 0.40863 0.29375 0.0
H353 H 0.04086 0.36067 0.28246 0.0
C354 C 0.06685 0.40815 0.31502 0.0
C355 C 0.0544 0.3914 0.28187 0.0
C356 C 0.05033 0.39132 0.25907 0.0
C357 C 0.06066 0.39073 0.32469 0.0
C358 C 0.05107 0.37343 0.31281 0.0
C359 C 0.04815 0.37396 0.29155 0.0
C360 C 0.04478 0.35435 0.32212 0.0
C361 C 0.06507 0.39078 0.34748 0.0
C362 C 0.05361 0.33627 0.31658 0.0
C363 C 0.04864 0.31845 0.32597 0.0
C364 C 0.03467 0.31832 0.34107 0.0
C365 C 0.02539 0.33632 0.3462 0.0
C366 C 0.03036 0.35416 0.33674 0.0
H367 H 0.07674 0.40319 0.35356 0.0
H368 H 0.05088 0.39316 0.35504 0.0
H369 H 0.07048 0.37598 0.35166 0.0
H370 H 0.06471 0.33604 0.30528 0.0
H371 H 0.05603 0.30486 0.32159 0.0
H372 H 0.94451 0.75558 0.60966 0.0
H373 H 0.9131 0.76798 0.59475 0.0
H374 H 0.9476 0.80052 0.55268 0.0
H375 H 0.97902 0.78842 0.56759 0.0
H376 H 0.92271 0.82473 0.57391 0.0
H377 H 0.87905 0.75341 0.54055 0.0
H378 H 0.88818 0.75275 0.56681 0.0
H379 H 0.90611 0.75479 0.5477 0.0
C380 C 0.94536 0.76505 0.59698 0.0
C381 C 0.96429 0.77103 0.58985 0.0
C382 C 0.92737 0.77207 0.58841 0.0
C383 C 0.92797 0.78505 0.57247 0.0
C384 C 0.94677 0.79048 0.56492 0.0
H385 H 0.83734 0.85785 0.51464 0.0
H386 H 0.86838 0.84095 0.52311 0.0
C387 C 0.96472 0.78351 0.57347 0.0
C388 C 0.90934 0.79435 0.5648 0.0
H389 H 0.86084 0.78325 0.54288 0.0
C390 C 0.90924 0.81568 0.56694 0.0
C391 C 0.89177 0.78251 0.5558 0.0
C392 C 0.89126 0.7596 0.55238 0.0
C393 C 0.89188 0.82548 0.56083 0.0
C394 C 0.87424 0.81364 0.55196 0.0
C395 C 0.87439 0.79231 0.54964 0.0
C396 C 0.85522 0.82309 0.54581 0.0
C397 C 0.89237 0.84837 0.56458 0.0
C398 C 0.83734 0.81819 0.55525 0.0
C399 C 0.81959 0.8277 0.55036 0.0
C400 C 0.8193 0.84229 0.53584 0.0
C401 C 0.83708 0.84679 0.52598 0.0
C402 C 0.85486 0.83722 0.53088 0.0
H403 H 0.90512 0.85458 0.57581 0.0
H404 H 0.89448 0.85542 0.55005 0.0
H405 H 0.87783 0.853 0.57024 0.0
H406 H 0.83724 0.80729 0.56675 0.0
H407 H 0.80616 0.8238 0.5582 0.0
H408 H 0.38739 0.5748 0.78386 0.0
H409 H 0.40347 0.608 0.79729 0.0
H410 H 0.46204 0.5828 0.80181 0.0
H411 H 0.44604 0.54971 0.78708 0.0
H412 H 0.4213 0.62016 0.83167 0.0
H413 H 0.47775 0.63257 0.77502 0.0
H414 H 0.45803 0.6119 0.77153 0.0
H415 H 0.48117 0.60955 0.78722 0.0
C416 C 0.40372 0.57635 0.78762 0.0
C417 C 0.41549 0.55969 0.7844 0.0
C418 C 0.41292 0.59537 0.79529 0.0
C419 C 0.43407 0.59811 0.80029 0.0
C420 C 0.44582 0.58133 0.79747 0.0
H421 H 0.48699 0.69835 0.88459 0.0
H422 H 0.47225 0.66583 0.86793 0.0
C423 C 0.43665 0.56236 0.78926 0.0
C424 C 0.44341 0.61833 0.80927 0.0
H425 H 0.48202 0.65501 0.80545 0.0
C426 C 0.43449 0.62781 0.82577 0.0
C427 C 0.4604 0.6286 0.80143 0.0
C428 C 0.46974 0.62023 0.78269 0.0
C429 C 0.44209 0.64708 0.83474 0.0
C430 C 0.45981 0.65678 0.82772 0.0
C431 C 0.46861 0.64747 0.81104 0.0
C432 C 0.46955 0.67645 0.83763 0.0
C433 C 0.43062 0.65697 0.85128 0.0
C434 C 0.47398 0.69305 0.82605 0.0
C435 C 0.48301 0.71158 0.83552 0.0
C436 C 0.48749 0.71388 0.85676 0.0
C437 C 0.48331 0.69717 0.86824 0.0
C438 C 0.47475 0.67858 0.85874 0.0
H439 H 0.41425 0.6513 0.84972 0.0
H440 H 0.43712 0.65308 0.86637 0.0
H441 H 0.43165 0.67382 0.851 0.0
H442 H 0.47026 0.69174 0.80971 0.0
H443 H 0.48618 0.72418 0.82629 0.0
H444 H 0.57851 0.2155 0.13738 0.0
H445 H 0.60816 0.20274 0.12215 0.0
H446 H 0.58577 0.2205 0.06356 0.0
H447 H 0.55592 0.23341 0.07866 0.0
H448 H 0.60044 0.17971 0.06388 0.0
H449 H 0.65568 0.24043 0.10291 0.0
H450 H 0.63918 0.22773 0.11931 0.0
H451 H 0.62855 0.24288 0.10029 0.0
C452 C 0.57977 0.21664 0.12122 0.0
C453 C 0.56483 0.2256 0.10927 0.0
C454 C 0.59681 0.20943 0.11258 0.0
C455 C 0.59929 0.21097 0.09182 0.0
C456 C 0.58418 0.21932 0.07966 0.0
H457 H 0.71171 0.19249 0.03326 0.0
H458 H 0.68135 0.2067 0.04588 0.0
C459 C 0.56713 0.22667 0.08832 0.0
C460 C 0.61772 0.20384 0.08291 0.0
H461 H 0.66959 0.21236 0.08577 0.0
C462 C 0.61555 0.18689 0.06855 0.0
C463 C 0.63737 0.21343 0.08886 0.0
C464 C 0.64043 0.23224 0.10355 0.0
C465 C 0.63263 0.17889 0.06042 0.0
C466 C 0.65238 0.18796 0.06702 0.0
C467 C 0.65447 0.2053 0.0809 0.0
C468 C 0.67105 0.17952 0.05984 0.0
C469 C 0.62939 0.16085 0.04474 0.0
C470 C 0.6756 0.15972 0.06395 0.0
C471 C 0.69292 0.15156 0.0568 0.0
C472 C 0.70615 0.16309 0.04547 0.0
C473 C 0.70186 0.18317 0.04189 0.0
C474 C 0.68449 0.19131 0.04907 0.0
H475 H 0.61358 0.15922 0.0374 0.0
H476 H 0.64021 0.16226 0.03272 0.0
H477 H 0.63204 0.14671 0.05232 0.0
H478 H 0.66568 0.15053 0.07264 0.0
H479 H 0.69579 0.13611 0.05996 0.0
H480 H 0.13118 0.57086 0.20385 0.0
H481 H 0.11614 0.60061 0.19084 0.0
H482 H 0.06542 0.5912 0.2275 0.0
H483 H 0.08022 0.56125 0.24058 0.0
H484 H 0.0687 0.60112 0.17275 0.0
H485 H 0.09756 0.65318 0.2409 0.0
H486 H 0.11083 0.6313 0.23302 0.0
H487 H 0.08703 0.62769 0.24418 0.0
C488 C 0.11674 0.57498 0.20906 0.0
C489 C 0.10693 0.56367 0.22331 0.0
C490 C 0.10819 0.59198 0.20159 0.0
C491 C 0.08979 0.59809 0.20834 0.0
C492 C 0.07969 0.58668 0.2222 0.0
H493 H 0.02966 0.70928 0.1891 0.0
H494 H 0.0417 0.6784 0.20271 0.0
C495 C 0.08815 0.56956 0.22959 0.0
C496 C 0.08144 0.61671 0.20114 0.0
H497 H 0.0795 0.66754 0.21416 0.0
C498 C 0.07097 0.61565 0.18178 0.0
C499 C 0.08434 0.63551 0.21308 0.0
C500 C 0.09558 0.63721 0.23397 0.0
C501 C 0.06331 0.63305 0.17396 0.0
C502 C 0.06677 0.65209 0.18563 0.0
C503 C 0.07696 0.653 0.20518 0.0
C504 C 0.06009 0.67124 0.17772 0.0
C505 C 0.05131 0.63076 0.15342 0.0
C506 C 0.06688 0.67781 0.15946 0.0
C507 C 0.05995 0.69536 0.15158 0.0
C508 C 0.04628 0.70691 0.16196 0.0
C509 C 0.04015 0.70075 0.18069 0.0
C510 C 0.04699 0.68308 0.18849 0.0
H511 H 0.04482 0.6148 0.14948 0.0
H512 H 0.03865 0.64096 0.15302 0.0
H513 H 0.06157 0.63485 0.14152 0.0
H514 H 0.07747 0.66927 0.15119 0.0
H515 H 0.06515 0.69976 0.13722 0.0
H516 H 0.5576 0.76567 0.44571 0.0
H517 H 0.59062 0.77967 0.46246 0.0
H518 H 0.5969 0.82153 0.41574 0.0
H519 H 0.56404 0.80772 0.39888 0.0
H520 H 0.62926 0.78102 0.44301 0.0
H521 H 0.60805 0.85752 0.4708 0.0
H522 H 0.58942 0.83613 0.46409 0.0
H523 H 0.60019 0.84996 0.44448 0.0
C524 C 0.56589 0.77802 0.43913 0.0
C525 C 0.55816 0.7856 0.42096 0.0
C526 C 0.58477 0.78593 0.44868 0.0
C527 C 0.59607 0.80171 0.4404 0.0
C528 C 0.58827 0.80952 0.42249 0.0
H529 H 0.71044 0.87309 0.46354 0.0
H530 H 0.67728 0.8565 0.45046 0.0
C531 C 0.56951 0.80155 0.41285 0.0
C532 C 0.61643 0.80955 0.4499 0.0
H533 H 0.64342 0.85275 0.47179 0.0
C534 C 0.63238 0.79663 0.44952 0.0
C535 C 0.62036 0.82991 0.45828 0.0
C536 C 0.60359 0.84419 0.45964 0.0
C537 C 0.65242 0.80381 0.45664 0.0
C538 C 0.65644 0.82432 0.46471 0.0
C539 C 0.64033 0.83706 0.46551 0.0
C540 C 0.67728 0.83319 0.47187 0.0
C541 C 0.66921 0.78963 0.45473 0.0
C542 C 0.68842 0.82545 0.48813 0.0
C543 C 0.70753 0.83482 0.49557 0.0
C544 C 0.71568 0.85227 0.48703 0.0
C545 C 0.70461 0.85972 0.4705 0.0
C546 C 0.68562 0.85027 0.46302 0.0
H547 H 0.66452 0.77627 0.44366 0.0
H548 H 0.68316 0.79771 0.44983 0.0
H549 H 0.67309 0.78385 0.46979 0.0
H550 H 0.6821 0.81251 0.49545 0.0
H551 H 0.71558 0.8288 0.50842 0.0
H552 H 0.48246 0.2963 0.70354 0.0
H553 H 0.47071 0.32844 0.71711 0.0
H554 H 0.50784 0.36123 0.67731 0.0
H555 H 0.51943 0.32902 0.66332 0.0
H556 H 0.49034 0.36434 0.73623 0.0
H557 H 0.45075 0.37795 0.66176 0.0
H558 H 0.4605 0.35381 0.66674 0.0
H559 H 0.47748 0.37481 0.66096 0.0
C560 C 0.48831 0.31035 0.69778 0.0
C561 C 0.50174 0.31006 0.68218 0.0
C562 C 0.48157 0.32872 0.70559 0.0
C563 C 0.48807 0.34719 0.69795 0.0
C564 C 0.50228 0.3471 0.68311 0.0
H565 H 0.45179 0.47051 0.71706 0.0
H566 H 0.46917 0.44014 0.70792 0.0
C567 C 0.50901 0.32869 0.67523 0.0
C568 C 0.47927 0.36634 0.70497 0.0
H569 H 0.45063 0.40384 0.68843 0.0
C570 C 0.48167 0.37301 0.72579 0.0
C571 C 0.46782 0.37755 0.69135 0.0
C572 C 0.46378 0.37062 0.66899 0.0
C573 C 0.47319 0.39073 0.73331 0.0
C574 C 0.46177 0.40191 0.71967 0.0
C575 C 0.45944 0.39528 0.69885 0.0
C576 C 0.45205 0.42055 0.72653 0.0
C577 C 0.47678 0.39753 0.75571 0.0
C578 C 0.43663 0.41967 0.7401 0.0
C579 C 0.42661 0.43707 0.74538 0.0
C580 C 0.43177 0.45564 0.7371 0.0
C581 C 0.44742 0.45649 0.72375 0.0
C582 C 0.45739 0.43913 0.71848 0.0
H583 H 0.48985 0.39037 0.76306 0.0
H584 H 0.47971 0.41437 0.75808 0.0
H585 H 0.46298 0.39302 0.76346 0.0
H586 H 0.43198 0.40541 0.7462 0.0
H587 H 0.41456 0.43587 0.75562 0.0
H588 H 0.93465 0.25706 0.91347 0.0
H589 H 0.90347 0.24852 0.93013 0.0
H590 H 0.9362 0.2098 0.9686 0.0
H591 H 0.96736 0.21843 0.95231 0.0
H592 H 0.88389 0.21018 0.93084 0.0
H593 H 0.90652 0.24283 0.00981 0.0
H594 H 0.92049 0.24946 0.9884 0.0
H595 H 0.92427 0.22603 0.99998 0.0
C596 C 0.93526 0.24694 0.92566 0.0
C597 C 0.95351 0.23847 0.93158 0.0
C598 C 0.91743 0.24206 0.93515 0.0
C599 C 0.91756 0.22877 0.95084 0.0
C600 C 0.93581 0.22046 0.95689 0.0
H601 H 0.82703 0.16338 0.01543 0.0
H602 H 0.85847 0.17847 0.00311 0.0
C603 C 0.95361 0.22532 0.94743 0.0
C604 C 0.89838 0.22242 0.95994 0.0
H605 H 0.87654 0.21975 0.00517 0.0
C606 C 0.8822 0.21248 0.94706 0.0
C607 C 0.89624 0.22531 0.98113 0.0
C608 C 0.91273 0.23666 0.99562 0.0
C609 C 0.86416 0.20487 0.95483 0.0
C610 C 0.86209 0.20757 0.97604 0.0
C611 C 0.87818 0.21767 0.98893 0.0
C612 C 0.84334 0.19981 0.98503 0.0
C613 C 0.8477 0.19345 0.94033 0.0
C614 C 0.82453 0.20728 0.97951 0.0
C615 C 0.80659 0.19871 0.98649 0.0
C616 C 0.8071 0.18256 0.99926 0.0
C617 C 0.8261 0.17577 0.00559 0.0
C618 C 0.84407 0.18436 0.99856 0.0
H619 H 0.85355 0.18848 0.92556 0.0
H620 H 0.84101 0.17981 0.9471 0.0
H621 H 0.83534 0.20357 0.93718 0.0
H622 H 0.82367 0.21946 0.96941 0.0
H623 H 0.79225 0.20442 0.98143 0.0
H624 H 0.29088 0.07068 0.47814 0.0
H625 H 0.30242 0.05686 0.44602 0.0
H626 H 0.26507 0.0964 0.41312 0.0
H627 H 0.25366 0.11064 0.44531 0.0
H628 H 0.28242 0.0375 0.41025 0.0
H629 H 0.32218 0.11176 0.39612 0.0
H630 H 0.3126 0.10692 0.42035 0.0
H631 H 0.29549 0.11265 0.39943 0.0
C632 C 0.28493 0.07634 0.46408 0.0
C633 C 0.27149 0.09193 0.46432 0.0
C634 C 0.29155 0.06838 0.44571 0.0
C635 C 0.28493 0.07587 0.42721 0.0
C636 C 0.27071 0.09071 0.42727 0.0
H637 H 0.32093 0.05603 0.30392 0.0
H638 H 0.30365 0.06543 0.33428 0.0
C639 C 0.2641 0.09873 0.44567 0.0
C640 C 0.29361 0.06871 0.40806 0.0
H641 H 0.32222 0.08491 0.37041 0.0
C642 C 0.2911 0.04785 0.40151 0.0
C643 C 0.30507 0.08222 0.39676 0.0
C644 C 0.3092 0.1046 0.40356 0.0
C645 C 0.2995 0.0402 0.38379 0.0
C646 C 0.31095 0.05373 0.37252 0.0
C647 C 0.31338 0.07457 0.37904 0.0
C648 C 0.3206 0.04671 0.35389 0.0
C649 C 0.29578 0.01778 0.3771 0.0
C650 C 0.33589 0.033 0.3548 0.0
C651 C 0.34585 0.02756 0.33741 0.0
C652 C 0.34075 0.03584 0.31883 0.0
C653 C 0.32525 0.04935 0.31796 0.0
C654 C 0.31534 0.05477 0.33531 0.0
H655 H 0.28265 0.01055 0.38427 0.0
H656 H 0.29286 0.01532 0.36027 0.0
H657 H 0.30952 0.00995 0.38169 0.0
H658 H 0.34049 0.0269 0.36908 0.0
H659 H 0.35778 0.0172 0.33862 0.0
H660 H 0.13616 0.05935 0.69593 0.0
H661 H 0.15094 0.07203 0.66602 0.0
H662 H 0.20877 0.05049 0.6855 0.0
H663 H 0.19415 0.03777 0.71566 0.0
H664 H 0.2113 0.09064 0.67205 0.0
H665 H 0.1651 0.03532 0.61634 0.0
H666 H 0.15041 0.0493 0.63359 0.0
H667 H 0.16782 0.03198 0.6433 0.0
C668 C 0.15206 0.05734 0.69397 0.0
C669 C 0.16393 0.04741 0.70819 0.0
C670 C 0.16043 0.0645 0.67676 0.0
C671 C 0.18083 0.06185 0.67336 0.0
C672 C 0.19294 0.05252 0.68778 0.0
H673 H 0.23626 0.07979 0.55905 0.0
H674 H 0.22367 0.06534 0.58934 0.0
C675 C 0.18455 0.04529 0.70502 0.0
C676 C 0.18946 0.06894 0.65475 0.0
H677 H 0.18368 0.06278 0.60271 0.0
C678 C 0.20536 0.08449 0.65689 0.0
C679 C 0.18186 0.06068 0.635 0.0
C680 C 0.16549 0.04326 0.63183 0.0
C681 C 0.21345 0.09243 0.63975 0.0
C682 C 0.20525 0.08477 0.62 0.0
C683 C 0.18979 0.06878 0.61787 0.0
C684 C 0.21235 0.09335 0.60137 0.0
C685 C 0.23078 0.1089 0.64293 0.0
C686 C 0.2097 0.11374 0.59787 0.0
C687 C 0.21679 0.12202 0.58058 0.0
C688 C 0.22665 0.11006 0.56638 0.0
C689 C 0.22879 0.08946 0.56968 0.0
C690 C 0.22163 0.08117 0.58698 0.0
H691 H 0.2387 0.10934 0.65844 0.0
H692 H 0.24209 0.10661 0.63149 0.0
H693 H 0.22467 0.12394 0.64112 0.0
H694 H 0.2022 0.12329 0.60858 0.0
H695 H 0.21478 0.13791 0.57852 0.0
H696 H 0.20652 0.98554 0.79479 0.0
H697 H 0.22167 0.97342 0.82611 0.0
H698 H 0.17936 0.00517 0.86094 0.0
H699 H 0.16415 0.0176 0.8296 0.0
H700 H 0.22057 0.00787 0.87952 0.0
H701 H 0.19111 0.92809 0.85461 0.0
H702 H 0.20616 0.94051 0.83685 0.0
H703 H 0.18209 0.94973 0.84247 0.0
C704 C 0.20055 0.99018 0.80912 0.0
C705 C 0.18398 1.00241 0.80967 0.0
C706 C 0.20919 0.98314 0.827 0.0
C707 C 0.20137 0.98805 0.84577 0.0
C708 C 0.18552 1.0011 0.84656 0.0
H709 H 0.21929 0.95286 0.96897 0.0
H710 H 0.21065 0.96966 0.93812 0.0
C711 C 0.17687 0.0082 0.82865 0.0
C712 C 0.20912 0.97881 0.86438 0.0
H713 H 0.21239 0.93316 0.88522 0.0
C714 C 0.2188 0.99155 0.8808 0.0
C715 C 0.2068 0.9575 0.86598 0.0
C716 C 0.19583 0.94313 0.84914 0.0
C717 C 0.22641 0.9835 0.89873 0.0
C718 C 0.22392 0.96219 0.9004 0.0
C719 C 0.21439 0.94947 0.88389 0.0
C720 C 0.23023 0.95278 0.91941 0.0
C721 C 0.23731 0.99785 0.91561 0.0
C722 C 0.24387 0.93741 0.91912 0.0
C723 C 0.24875 0.92761 0.93676 0.0
C724 C 0.23996 0.93292 0.95499 0.0
C725 C 0.22644 0.94845 0.95524 0.0
C726 C 0.22158 0.95821 0.93763 0.0
H727 H 0.24327 0.01232 0.90978 0.0
H728 H 0.22644 1.00169 0.92708 0.0
H729 H 0.25019 0.99074 0.92335 0.0
H730 H 0.2506 0.93287 0.90517 0.0
H731 H 0.25916 0.91568 0.93603 0.0
H732 H 0.26914 0.94481 0.05817 0.0
H733 H 0.28336 0.96096 0.09137 0.0
H734 H 0.32494 0.91387 0.09658 0.0
H735 H 0.31085 0.89756 0.06355 0.0
H736 H 0.28498 0.93955 0.12976 0.0
H737 H 0.36073 0.96974 0.10843 0.0
H738 H 0.33907 0.96377 0.08998 0.0
H739 H 0.35296 0.94366 0.09962 0.0
C740 C 0.28148 0.93801 0.06626 0.0
C741 C 0.28887 0.91989 0.0582 0.0
C742 C 0.28952 0.94722 0.08524 0.0
C743 C 0.30525 0.93864 0.09629 0.0
C744 C 0.31293 0.92081 0.08815 0.0
H745 H 0.37729 0.96409 0.21076 0.0
H746 H 0.36134 0.9503 0.17753 0.0
C747 C 0.30481 0.9115 0.06929 0.0
C748 C 0.31312 0.94774 0.11678 0.0
H749 H 0.3559 0.97071 0.14368 0.0
C750 C 0.30042 0.94654 0.13285 0.0
C751 C 0.33329 0.95668 0.12066 0.0
C752 C 0.34733 0.95874 0.10378 0.0
C753 C 0.30758 0.95353 0.15292 0.0
C754 C 0.32783 0.9624 0.15685 0.0
C755 C 0.3404 0.96386 0.14066 0.0
C756 C 0.33651 0.96996 0.17766 0.0
C757 C 0.29363 0.95071 0.16978 0.0
C758 C 0.32776 0.9855 0.18888 0.0
C759 C 0.33674 0.99329 0.20803 0.0
C760 C 0.35483 0.9859 0.21615 0.0
C761 C 0.36339 0.97016 0.20496 0.0
C762 C 0.35431 0.96228 0.18593 0.0
H763 H 0.28097 0.93882 0.16517 0.0
H764 H 0.30214 0.9464 0.18376 0.0
H765 H 0.28681 0.96526 0.17354 0.0
H766 H 0.31428 0.99198 0.18262 0.0
H767 H 0.32986 0.00554 0.21615 0.0
H768 H 0.30494 0.32112 0.05428 0.0
H769 H 0.33609 0.30498 0.06343 0.0
H770 H 0.36837 0.34085 0.02221 0.0
H771 H 0.33726 0.3574 0.0132 0.0
H772 H 0.36119 0.28229 0.04032 0.0
H773 H 0.40298 0.35379 0.07615 0.0
H774 H 0.37585 0.35174 0.06944 0.0
H775 H 0.39337 0.35509 0.05013 0.0
C776 C 0.31863 0.32557 0.04708 0.0
C777 C 0.31864 0.3407 0.03312 0.0
C778 C 0.33643 0.31627 0.05232 0.0
C779 C 0.35465 0.32193 0.04377 0.0
C780 C 0.35458 0.33655 0.02932 0.0
H781 H 0.47879 0.28936 0.06831 0.0
H782 H 0.44742 0.30113 0.05292 0.0
C783 C 0.33676 0.34592 0.0241 0.0
C784 C 0.37371 0.31277 0.05039 0.0
H785 H 0.42139 0.32447 0.07411 0.0
C786 C 0.37437 0.2915 0.04768 0.0
C787 C 0.39087 0.3248 0.06009 0.0
C788 C 0.39077 0.3476 0.06432 0.0
C789 C 0.3918 0.28197 0.05424 0.0
C790 C 0.40889 0.29401 0.064 0.0
C791 C 0.40828 0.31527 0.06655 0.0
C792 C 0.42755 0.28498 0.072 0.0
C793 C 0.39187 0.25915 0.05041 0.0
C794 C 0.4268 0.27174 0.08771 0.0
C795 C 0.44477 0.26492 0.09657 0.0
C796 C 0.46381 0.27134 0.08995 0.0
C797 C 0.4644 0.2841 0.0738 0.0
C798 C 0.44648 0.29089 0.06498 0.0
H799 H 0.38 0.25289 0.03827 0.0
H800 H 0.40697 0.25483 0.04598 0.0
H801 H 0.38867 0.25191 0.06461 0.0
H802 H 0.41241 0.26727 0.09364 0.0
H803 H 0.44378 0.25522 0.10906 0.0
H804 H 0.98161 0.79495 0.20082 0.0
H805 H 0.97021 0.82713 0.2147 0.0
H806 H 0.00837 0.86001 0.17585 0.0
H807 H 0.01966 0.82777 0.16158 0.0
H808 H 0.99045 0.86279 0.23442 0.0
H809 H 0.95144 0.87741 0.15997 0.0
H810 H 0.96073 0.85305 0.16484 0.0
H811 H 0.9781 0.87385 0.15931 0.0
C812 C 0.98777 0.80902 0.19534 0.0
C813 C 1.00141 0.80876 0.17992 0.0
C814 C 0.98123 0.82742 0.20332 0.0
C815 C 0.98812 0.84593 0.19603 0.0
C816 C 1.00252 0.84585 0.18139 0.0
H817 H 0.95267 0.96946 0.21575 0.0
H818 H 0.96984 0.93901 0.20643 0.0
C819 C 0.00907 0.82742 0.17335 0.0
C820 C 0.97952 0.86513 0.20318 0.0
H821 H 0.9513 0.90303 0.18687 0.0
C822 C 0.9819 0.87162 0.22404 0.0
C823 C 0.96825 0.87655 0.18962 0.0
C824 C 0.96427 0.86982 0.16722 0.0
C825 C 0.97357 0.88939 0.23167 0.0
C826 C 0.96231 0.90077 0.2181 0.0
C827 C 0.95999 0.89431 0.19724 0.0
C828 C 0.95272 0.91946 0.22507 0.0
C829 C 0.97718 0.89601 0.2541 0.0
C830 C 0.93737 0.91862 0.23871 0.0
C831 C 0.92747 0.93607 0.24411 0.0
C832 C 0.93269 0.95463 0.23585 0.0
C833 C 0.94825 0.95543 0.22241 0.0
C834 C 0.95811 0.93803 0.21704 0.0
H835 H 0.99024 0.88877 0.26138 0.0
H836 H 0.98014 0.91283 0.25662 0.0
H837 H 0.96338 0.89143 0.26183 0.0
H838 H 0.93267 0.90435 0.24479 0.0
H839 H 0.91548 0.93491 0.25442 0.0
H840 H 0.19342 0.63308 0.55514 0.0
H841 H 0.16336 0.64746 0.56799 0.0
H842 H 0.18413 0.70656 0.55015 0.0
H843 H 0.2144 0.69236 0.5373 0.0
H844 H 0.17018 0.70712 0.58981 0.0
H845 H 0.11439 0.66426 0.5321 0.0
H846 H 0.13116 0.64859 0.54543 0.0
H847 H 0.14143 0.66676 0.52913 0.0
C848 C 0.19168 0.64916 0.55397 0.0
C849 C 0.20632 0.66153 0.54508 0.0
C850 C 0.17439 0.65732 0.56121 0.0
C851 C 0.17134 0.67798 0.55968 0.0
C852 C 0.18614 0.69052 0.55132 0.0
H853 H 0.05835 0.73533 0.57891 0.0
H854 H 0.08832 0.72229 0.56424 0.0
C855 C 0.20343 0.68237 0.54401 0.0
C856 C 0.15278 0.68651 0.56703 0.0
H857 H 0.10075 0.68195 0.56009 0.0
C858 C 0.155 0.7017 0.58326 0.0
C859 C 0.13301 0.67961 0.55826 0.0
C860 C 0.12977 0.66404 0.54014 0.0
C861 C 0.13794 0.70978 0.59134 0.0
C862 C 0.11814 0.70227 0.58312 0.0
C863 C 0.11594 0.68751 0.5665 0.0
C864 C 0.09956 0.70945 0.59174 0.0
C865 C 0.14124 0.72638 0.60853 0.0
C866 C 0.09568 0.70608 0.61188 0.0
C867 C 0.07858 0.71344 0.62029 0.0
C868 C 0.06493 0.72429 0.6087 0.0
C869 C 0.06854 0.72709 0.58829 0.0
C870 C 0.08567 0.71967 0.57988 0.0
H871 H 0.15692 0.73401 0.60951 0.0
H872 H 0.13013 0.73807 0.60664 0.0
H873 H 0.13904 0.7196 0.62319 0.0
H874 H 0.10598 0.69786 0.62116 0.0
H875 H 0.07625 0.71088 0.636 0.0
H876 H 0.9676 0.69875 0.66202 0.0
H877 H 0.95068 0.67139 0.6794 0.0
H878 H 1.002 0.67482 0.72432 0.0
H879 H 0.01891 0.70216 0.70722 0.0
H880 H 0.96547 0.63342 0.68643 0.0
H881 H 0.95306 0.67667 0.75923 0.0
H882 H 0.95891 0.68901 0.73659 0.0
H883 H 0.97886 0.67927 0.75223 0.0
C884 C 0.97519 0.69382 0.67571 0.0
C885 C 0.99459 0.70268 0.68325 0.0
C886 C 0.96551 0.67817 0.68561 0.0
C887 C 0.97496 0.67125 0.70331 0.0
C888 C 0.99425 0.68018 0.71092 0.0
H889 H 0.94953 0.55446 0.75321 0.0
H890 H 0.96568 0.58472 0.73978 0.0
C891 C 1.00394 0.69575 0.70103 0.0
C892 C 0.96519 0.65402 0.71326 0.0
H893 H 0.94772 0.64048 0.75825 0.0
C894 C 0.96151 0.63498 0.7021 0.0
C895 C 0.95989 0.65612 0.73367 0.0
C896 C 0.96269 0.6764 0.74611 0.0
C897 C 0.95301 0.61789 0.7109 0.0
C898 C 0.94832 0.61984 0.7315 0.0
C899 C 0.9516 0.63896 0.74255 0.0
C900 C 0.93935 0.60226 0.74155 0.0
C901 C 0.94886 0.59795 0.69797 0.0
C902 C 0.91952 0.60242 0.74783 0.0
C903 C 0.91027 0.5852 0.7556 0.0
C904 C 0.92072 0.56748 0.75735 0.0
C905 C 0.941 0.56778 0.75202 0.0
C906 C 0.95021 0.58502 0.7442 0.0
H907 H 0.94896 0.60011 0.68144 0.0
H908 H 0.96087 0.58768 0.70199 0.0
H909 H 0.9339 0.59027 0.70081 0.0
H910 H 0.91092 0.61563 0.74605 0.0
H911 H 0.89467 0.58557 0.75962 0.0
H912 H 0.1985 0.16219 0.46842 0.0
H913 H 0.17042 0.17904 0.4521 0.0
H914 H 0.1726 0.22252 0.5045 0.0
H915 H 0.20073 0.20602 0.52076 0.0
H916 H 0.1323 0.18449 0.46606 0.0
H917 H 0.17382 0.25919 0.45735 0.0
H918 H 0.18675 0.23684 0.46294 0.0
H919 H 0.17593 0.25149 0.4829 0.0
C920 C 0.19312 0.17545 0.47639 0.0
C921 C 0.20194 0.18281 0.49586 0.0
C922 C 0.17705 0.18504 0.46706 0.0
C923 C 0.1696 0.20222 0.47696 0.0
C924 C 0.17836 0.20956 0.49639 0.0
H925 H 0.05106 0.24856 0.44776 0.0
H926 H 0.08075 0.23515 0.4651 0.0
C927 C 0.1944 0.20001 0.50571 0.0
C928 C 0.15216 0.21204 0.46735 0.0
H929 H 0.13771 0.25725 0.45119 0.0
C930 C 0.13349 0.20038 0.46275 0.0
C931 C 0.15379 0.23273 0.46289 0.0
C932 C 0.17369 0.24577 0.46658 0.0
C933 C 0.11632 0.2089 0.45404 0.0
C934 C 0.11778 0.22976 0.45013 0.0
C935 C 0.13654 0.24135 0.45447 0.0
C936 C 0.10028 0.23951 0.44058 0.0
C937 C 0.0969 0.19538 0.4487 0.0
C938 C 0.10167 0.24727 0.42147 0.0
C939 C 0.08482 0.25509 0.4116 0.0
C940 C 0.06618 0.2554 0.42068 0.0
C941 C 0.06512 0.24849 0.44028 0.0
C942 C 0.08203 0.24066 0.45015 0.0
H943 H 0.09967 0.17895 0.44814 0.0
H944 H 0.08607 0.19834 0.46045 0.0
H945 H 0.08956 0.19864 0.43372 0.0
H946 H 0.11564 0.24668 0.41387 0.0
H947 H 0.08626 0.26034 0.39657 0.0
H948 H 0.57632 0.47612 0.22957 0.0
H949 H 0.55942 0.44264 0.21742 0.0
H950 H 0.61463 0.41438 0.2334 0.0
H951 H 0.63171 0.44765 0.2453 0.0
H952 H 0.59866 0.40332 0.19405 0.0
H953 H 0.53899 0.39446 0.2485 0.0
H954 H 0.53941 0.41789 0.23622 0.0
H955 H 0.5607 0.41301 0.25327 0.0
C956 C 0.5848 0.46275 0.23072 0.0
C957 C 0.6054 0.4646 0.23835 0.0
C958 C 0.57507 0.44361 0.22388 0.0
C959 C 0.58572 0.426 0.22471 0.0
C960 C 0.60613 0.42777 0.23269 0.0
H961 H 0.54214 0.29816 0.19893 0.0
H962 H 0.55523 0.33158 0.21541 0.0
C963 C 0.61586 0.44684 0.23947 0.0
C964 C 0.57618 0.40589 0.21594 0.0
H965 H 0.53686 0.36999 0.21987 0.0
C966 C 0.58518 0.39602 0.19973 0.0
C967 C 0.55871 0.39631 0.22352 0.0
C968 C 0.54895 0.40583 0.24146 0.0
C969 C 0.57707 0.37694 0.19072 0.0
C970 C 0.55927 0.36762 0.19789 0.0
C971 C 0.5504 0.3773 0.2143 0.0
C972 C 0.54979 0.34777 0.18845 0.0
C973 C 0.5878 0.36678 0.17377 0.0
C974 C 0.54192 0.34595 0.16801 0.0
C975 C 0.53449 0.32695 0.15854 0.0
C976 C 0.53469 0.30935 0.16937 0.0
C977 C 0.54184 0.31137 0.19011 0.0
C978 C 0.5493 0.33044 0.19958 0.0
H979 H 0.60372 0.37347 0.17347 0.0
H980 H 0.58806 0.35016 0.17535 0.0
H981 H 0.57949 0.36886 0.15891 0.0
H982 H 0.54186 0.35922 0.15926 0.0
H983 H 0.52893 0.32602 0.14261 0.0
H984 H 0.31972 0.8264 1.00164 0.0
H985 H 0.35082 0.81601 0.98749 0.0
H986 H 0.346 0.86087 0.94344 0.0
H987 H 0.31458 0.87132 0.95744 0.0
H988 H 0.357 0.8224 0.92716 0.0
H989 H 0.40572 0.85028 0.99721 0.0
H990 H 0.38447 0.8331 1.00184 0.0
H991 H 0.38001 0.85741 0.99243 0.0
C992 C 0.32514 0.834 0.98884 0.0
C993 C 0.3147 0.84981 0.98077 0.0
C994 C 0.34303 0.82811 0.98086 0.0
C995 C 0.351 0.83796 0.96471 0.0
C996 C 0.34022 0.85319 0.95603 0.0
H997 H 0.4614 0.81473 0.9017 0.0
H998 H 0.43077 0.83003 0.91248 0.0
C999 C 0.32224 0.85911 0.96402 0.0
C1000 C 0.37071 0.83242 0.95719 0.0
H1001 H 0.42078 0.82884 0.97284 0.0
C1002 C 0.37101 0.82402 0.93704 0.0
C1003 C 0.389 0.83463 0.97009 0.0
C1004 C 0.38991 0.84453 0.99154 0.0
C1005 C 0.38893 0.81692 0.92974 0.0
C1006 C 0.40707 0.81859 0.94286 0.0
C1007 C 0.40686 0.82751 0.96282 0.0
C1008 C 0.42612 0.81009 0.93662 0.0
C1009 C 0.38809 0.80694 0.90834 0.0
C1010 C 0.43407 0.79426 0.94701 0.0
C1011 C 0.45158 0.7856 0.94098 0.0
C1012 C 0.46165 0.79265 0.92448 0.0
C1013 C 0.45401 0.80892 0.91444 0.0
C1014 C 0.43641 0.81757 0.92047 0.0
H1015 H 0.37217 0.80311 0.90172 0.0
H1016 H 0.39575 0.81753 0.89847 0.0
H1017 H 0.39621 0.79278 0.90805 0.0
H1018 H 0.42647 0.78832 0.95958 0.0
H1019 H 0.45704 0.77313 0.94909 0.0
H1020 H 0.90122 0.45921 0.81435 0.0
H1021 H 0.91083 0.42764 0.82859 0.0
H1022 H 0.95884 0.4239 0.78792 0.0
H1023 H 0.9493 0.45521 0.77353 0.0
H1024 H 0.93306 0.38769 0.7874 0.0
H1025 H 0.9609 0.41708 0.86656 0.0
H1026 H 0.93602 0.42376 0.85771 0.0
H1027 H 0.95804 0.4336 0.84608 0.0
C1028 C 0.91401 0.45182 0.80865 0.0
C1029 C 0.9245 0.45977 0.7928 0.0
C1030 C 0.91952 0.4338 0.81684 0.0
C1031 C 0.93565 0.42348 0.80941 0.0
C1032 C 0.94636 0.43161 0.7939 0.0
H1033 H 0.9989 0.31614 0.82465 0.0
H1034 H 0.9839 0.34653 0.8135 0.0
C1035 C 0.9409 0.44958 0.78573 0.0
C1036 C 0.94085 0.40366 0.81693 0.0
H1037 H 0.96028 0.38155 0.85862 0.0
C1038 C 0.93895 0.38634 0.803 0.0
C1039 C 0.94834 0.40186 0.83732 0.0
C1040 C 0.95113 0.42005 0.85282 0.0
C1041 C 0.94458 0.36735 0.8088 0.0
C1042 C 0.95271 0.36567 0.82902 0.0
C1043 C 0.95406 0.38285 0.84313 0.0
C1044 C 0.96109 0.34661 0.83542 0.0
C1045 C 0.94171 0.34923 0.79322 0.0
C1046 C 0.95346 0.33662 0.85168 0.0
C1047 C 0.96209 0.31916 0.85817 0.0
C1048 C 0.97864 0.31151 0.84864 0.0
C1049 C 0.9861 0.3215 0.83226 0.0
C1050 C 0.97746 0.33887 0.82579 0.0
H1051 H 0.92981 0.35137 0.7809 0.0
H1052 H 0.95623 0.34735 0.78608 0.0
H1053 H 0.93738 0.33498 0.80038 0.0
H1054 H 0.94091 0.3424 0.85942 0.0
H1055 H 0.95607 0.31193 0.87091 0.0
H1056 H 0.29956 0.20042 0.52884 0.0
H1057 H 0.33292 0.21863 0.53905 0.0
H1058 H 0.3573 0.16183 0.55269 0.0
H1059 H 0.32442 0.14354 0.54181 0.0
H1060 H 0.354 0.22318 0.57438 0.0
H1061 H 0.40082 0.18433 0.52015 0.0
H1062 H 0.37332 0.18137 0.51739 0.0
H1063 H 0.38743 0.16597 0.534 0.0
C1064 C 0.31212 0.19181 0.5338 0.0
C1065 C 0.30938 0.17051 0.53437 0.0
C1066 C 0.33117 0.20223 0.53962 0.0
C1067 C 0.34779 0.19156 0.54621 0.0
C1068 C 0.34496 0.17034 0.547 0.0
H1069 H 0.44898 0.23168 0.63102 0.0
H1070 H 0.41605 0.22091 0.61277 0.0
C1071 C 0.32606 0.1599 0.54093 0.0
C1072 C 0.36774 0.20261 0.55354 0.0
H1073 H 0.41905 0.20078 0.55093 0.0
C1074 C 0.3682 0.21849 0.56901 0.0
C1075 C 0.38631 0.19692 0.54624 0.0
C1076 C 0.38693 0.18137 0.52837 0.0
C1077 C 0.38672 0.22802 0.57813 0.0
C1078 C 0.40531 0.22099 0.57212 0.0
C1079 C 0.40484 0.20593 0.55586 0.0
C1080 C 0.42529 0.22821 0.58317 0.0
C1081 C 0.3861 0.24549 0.59413 0.0
C1082 C 0.44177 0.23521 0.57255 0.0
C1083 C 0.46086 0.24097 0.58293 0.0
C1084 C 0.46376 0.23992 0.60415 0.0
C1085 C 0.44721 0.23294 0.61472 0.0
C1086 C 0.42828 0.22693 0.60431 0.0
H1087 H 0.37214 0.25368 0.59152 0.0
H1088 H 0.38574 0.23942 0.60935 0.0
H1089 H 0.39963 0.25659 0.59432 0.0
H1090 H 0.43989 0.23617 0.5562 0.0
H1091 H 0.4733 0.24627 0.57435 0.0
H1092 H 0.52455 0.72179 0.32533 0.0
H1093 H 0.53756 0.69223 0.3074 0.0
H1094 H 0.52481 0.65614 0.3575 0.0
H1095 H 0.51158 0.6854 0.3754 0.0
H1096 H 0.57056 0.67201 0.32137 0.0
H1097 H 0.50113 0.61852 0.30823 0.0
H1098 H 0.50015 0.64544 0.31497 0.0
H1099 H 0.50631 0.62855 0.3343 0.0
C1100 C 0.52414 0.70746 0.33238 0.0
C1101 C 0.51698 0.70601 0.35183 0.0
C1102 C 0.53167 0.6906 0.32213 0.0
C1103 C 0.532 0.67191 0.33102 0.0
C1104 C 0.52437 0.67027 0.35016 0.0
H1105 H 0.61111 0.57477 0.30453 0.0
H1106 H 0.594 0.6029 0.32038 0.0
C1107 C 0.51688 0.68709 0.36043 0.0
C1108 C 0.54161 0.65455 0.321 0.0
H1109 H 0.53282 0.60443 0.30324 0.0
C1110 C 0.56228 0.65726 0.31729 0.0
C1111 C 0.53076 0.63536 0.31556 0.0
C1112 C 0.50831 0.63179 0.31827 0.0
C1113 C 0.57249 0.64122 0.30864 0.0
C1114 C 0.56183 0.62183 0.30385 0.0
C1115 C 0.54105 0.61922 0.30718 0.0
C1116 C 0.5718 0.60426 0.29474 0.0
C1117 C 0.59453 0.64526 0.30441 0.0
C1118 C 0.56462 0.59526 0.27536 0.0
C1119 C 0.57427 0.57914 0.26635 0.0
C1120 C 0.59126 0.57158 0.27657 0.0
C1121 C 0.59813 0.58028 0.29621 0.0
C1122 C 0.58845 0.59645 0.30523 0.0
H1123 H 0.59893 0.66183 0.30422 0.0
H1124 H 0.6044 0.63926 0.31657 0.0
H1125 H 0.59757 0.63748 0.28957 0.0
H1126 H 0.55175 0.60096 0.26703 0.0
H1127 H 0.56852 0.57277 0.25123 0.0
H1128 H 0.07499 0.80533 0.10969 0.0
H1129 H 0.10311 0.82167 0.0929 0.0
H1130 H 0.10135 0.76905 0.04975 0.0
H1131 H 0.0732 0.75277 0.06619 0.0
H1132 H 0.14136 0.8077 0.08777 0.0
H1133 H 0.10017 0.81608 0.01283 0.0
H1134 H 0.08713 0.8106 0.03514 0.0
H1135 H 0.09803 0.79057 0.02067 0.0
C1136 C 0.08047 0.79732 0.09651 0.0
C1137 C 0.07178 0.77778 0.08924 0.0
C1138 C 0.09656 0.80666 0.08696 0.0
C1139 C 0.10414 0.7967 0.06989 0.0
C1140 C 0.09548 0.77721 0.06262 0.0
H1141 H 0.22288 0.82551 0.02398 0.0
H1142 H 0.19307 0.80831 0.03728 0.0
C1143 C 0.07944 0.76788 0.07213 0.0
C1144 C 0.12162 0.8063 0.06013 0.0
H1145 H 0.13628 0.82228 0.01494 0.0
C1146 C 0.14024 0.81095 0.07186 0.0
C1147 C 0.12009 0.81068 0.03942 0.0
C1148 C 0.10024 0.80692 0.0263 0.0
C1149 C 0.15745 0.81962 0.06339 0.0
C1150 C 0.15609 0.82344 0.04252 0.0
C1151 C 0.13738 0.81906 0.03085 0.0
C1152 C 0.17366 0.83291 0.03281 0.0
C1153 C 0.17683 0.825 0.07697 0.0
C1154 C 0.17238 0.85203 0.02502 0.0
C1155 C 0.18931 0.86183 0.01728 0.0
C1156 C 0.20791 0.85267 0.01706 0.0
C1157 C 0.20886 0.83306 0.02398 0.0
C1158 C 0.19187 0.82326 0.03175 0.0
H1159 H 0.17399 0.8256 0.09338 0.0
H1160 H 0.18767 0.81323 0.0741 0.0
H1161 H 0.18418 0.83997 0.07369 0.0
H1162 H 0.15844 0.85969 0.02555 0.0
H1163 H 0.18795 0.87687 0.01201 0.0
H1164 H 0.77147 0.90605 0.58729 0.0
H1165 H 0.75755 0.92295 0.61681 0.0
H1166 H 0.72277 0.95885 0.57697 0.0
H1167 H 0.7374 0.94268 0.54748 0.0
H1168 H 0.73632 0.98133 0.61002 0.0
H1169 H 0.70187 0.90846 0.63332 0.0
H1170 H 0.72902 0.90853 0.63305 0.0
H1171 H 0.71356 0.91016 0.60961 0.0
C1172 C 0.76106 0.91774 0.58485 0.0
C1173 C 0.75543 0.92293 0.56503 0.0
C1174 C 0.75292 0.92724 0.60173 0.0
C1175 C 0.73855 0.9417 0.59912 0.0
C1176 C 0.73367 0.9476 0.57941 0.0
H1177 H 0.65405 0.97442 0.68953 0.0
H1178 H 0.67049 0.95962 0.66043 0.0
C1179 C 0.7421 0.93839 0.56255 0.0
C1180 C 0.72834 0.95044 0.61679 0.0
H1181 H 0.70127 0.93754 0.65678 0.0
C1182 C 0.72859 0.97173 0.62019 0.0
C1183 C 0.71781 0.93798 0.62985 0.0
C1184 C 0.71533 0.91503 0.62616 0.0
C1185 C 0.71891 0.98089 0.63637 0.0
C1186 C 0.70934 0.96843 0.65007 0.0
C1187 C 0.70883 0.94714 0.6465 0.0
C1188 C 0.69952 0.97712 0.66803 0.0
C1189 C 0.71859 0.00381 0.63817 0.0
C1190 C 0.71043 0.99152 0.68231 0.0
C1191 C 0.70096 1.00023 0.69871 0.0
C1192 C 0.68051 0.99433 0.70153 0.0
C1193 C 0.66983 0.97927 0.68777 0.0
C1194 C 0.67921 0.97082 0.67112 0.0
H1195 H 0.72041 0.01025 0.62326 0.0
H1196 H 0.70415 0.00858 0.64394 0.0
H1197 H 0.73149 0.01053 0.64892 0.0
H1198 H 0.7263 0.99612 0.68075 0.0
H1199 H 0.70968 0.01161 0.70921 0.0
H1200 H 0.82524 0.99852 0.31615 0.0
H1201 H 0.81439 0.98339 0.34664 0.0
H1202 H 0.86091 0.94106 0.34247 0.0
H1203 H 0.87202 0.95625 0.31188 0.0
H1204 H 0.80082 0.94247 0.35224 0.0
H1205 H 0.87168 0.96866 0.40112 0.0
H1206 H 0.86532 0.97905 0.37711 0.0
H1207 H 0.87494 0.95431 0.3775 0.0
C1208 C 0.83313 0.98591 0.32161 0.0
C1209 C 0.84957 0.97866 0.3116 0.0
C1210 C 0.8269 0.97728 0.33907 0.0
C1211 C 0.83704 0.96132 0.34703 0.0
C1212 C 0.8531 0.95362 0.33679 0.0
H1213 H 0.81601 0.90191 0.4596 0.0
H1214 H 0.83012 0.9119 0.42806 0.0
C1215 C 0.85933 0.96221 0.31922 0.0
C1216 C 0.83068 0.95295 0.3661 0.0
H1217 H 0.846 0.9498 0.41637 0.0
C1218 C 0.81073 0.94397 0.36623 0.0
C1219 C 0.84366 0.95485 0.38433 0.0
C1220 C 0.86506 0.96486 0.38519 0.0
C1221 C 0.80334 0.93703 0.38412 0.0
C1222 C 0.81609 0.93953 0.40252 0.0
C1223 C 0.83623 0.94797 0.40228 0.0
C1224 C 0.80842 0.93422 0.42225 0.0
C1225 C 0.78193 0.927 0.38312 0.0
C1226 C 0.792 0.94392 0.42981 0.0
C1227 C 0.78393 0.93827 0.44775 0.0
C1228 C 0.79223 0.92289 0.45867 0.0
C1229 C 0.80925 0.91378 0.45155 0.0
C1230 C 0.81731 0.91944 0.43351 0.0
H1231 H 0.77651 0.92089 0.36734 0.0
H1232 H 0.78097 0.91435 0.3933 0.0
H1233 H 0.77147 0.93846 0.3881 0.0
H1234 H 0.78521 0.95572 0.42166 0.0
H1235 H 0.77093 0.94573 0.45284 0.0
H1236 H 0.75135 0.06693 0.07153 0.0
H1237 H 0.76713 0.05038 0.0999 0.0
H1238 H 0.81977 0.09366 0.10268 0.0
H1239 H 0.80393 0.11055 0.07436 0.0
H1240 H 0.80365 0.03216 0.10362 0.0
H1241 H 0.80306 0.09772 0.16136 0.0
H1242 H 0.78863 0.09635 0.13689 0.0
H1243 H 0.81555 0.1036 0.139 0.0
C1244 C 0.7663 0.07296 0.07813 0.0
C1245 C 0.77633 0.09016 0.07073 0.0
C1246 C 0.7753 0.06345 0.09435 0.0
C1247 C 0.79448 0.07095 0.10362 0.0
C1248 C 0.80477 0.08785 0.09602 0.0
H1249 H 0.87538 0.01129 0.18513 0.0
H1250 H 0.85763 0.02461 0.15583 0.0
C1251 C 0.79576 0.09741 0.07975 0.0
C1252 C 0.80363 0.061 0.12119 0.0
H1253 H 0.82056 0.06955 0.17153 0.0
C1254 C 0.80732 0.04031 0.11849 0.0
C1255 C 0.80808 0.07156 0.14067 0.0
C1256 C 0.80347 0.09348 0.14479 0.0
C1257 C 0.81571 0.03002 0.13462 0.0
C1258 C 0.8208 0.04077 0.1539 0.0
C1259 C 0.81675 0.06134 0.15671 0.0
C1260 C 0.83079 0.03115 0.17128 0.0
C1261 C 0.81881 0.00765 0.13093 0.0
C1262 C 0.82165 0.03043 0.18979 0.0
C1263 C 0.83181 0.02285 0.20668 0.0
C1264 C 0.85142 0.01603 0.20543 0.0
C1265 C 0.86028 0.01632 0.18667 0.0
C1266 C 0.8501 0.02386 0.16982 0.0
H1267 H 0.80903 1.00044 0.1175 0.0
H1268 H 0.83494 0.00595 0.12791 0.0
H1269 H 0.81545 0.99931 0.14445 0.0
H1270 H 0.80677 0.03605 0.19127 0.0
H1271 H 0.82456 0.02295 0.22088 0.0
H1272 H 0.69761 0.0247 0.79996 0.0
H1273 H 0.71579 0.03452 0.8334 0.0
H1274 H 0.65957 0.0512 0.85701 0.0
H1275 H 0.64126 0.04072 0.82405 0.0
H1276 H 0.72173 0.07002 0.85388 0.0
H1277 H 0.68003 0.01858 0.90139 0.0
H1278 H 0.67721 0.01537 0.8739 0.0
H1279 H 0.66252 0.03303 0.88759 0.0
C1280 C 0.6891 0.03024 0.81237 0.0
C1281 C 0.66797 0.0318 0.80938 0.0
C1282 C 0.69951 0.03583 0.83147 0.0
C1283 C 0.689 0.04318 0.84789 0.0
C1284 C 0.66793 0.04491 0.84484 0.0
H1285 H 0.73113 0.12871 0.94758 0.0
H1286 H 0.72019 0.10997 0.91495 0.0
C1287 C 0.65749 0.03907 0.82588 0.0
C1288 C 0.70013 0.05042 0.86783 0.0
H1289 H 0.69759 0.04909 0.9192 0.0
C1290 C 0.71666 0.06517 0.86815 0.0
C1291 C 0.69391 0.0438 0.8865 0.0
C1292 C 0.6776 0.02665 0.88731 0.0
C1293 C 0.72634 0.0743 0.8866 0.0
C1294 C 0.71884 0.06905 0.90524 0.0
C1295 C 0.70311 0.05344 0.90494 0.0
C1296 C 0.72621 0.08034 0.92505 0.0
C1297 C 0.74447 0.08951 0.88584 0.0
C1298 C 0.73257 0.0699 0.94191 0.0
C1299 C 0.73845 0.08059 0.96082 0.0
C1300 C 0.73814 0.10193 0.96318 0.0
C1301 C 0.73181 0.11231 0.94625 0.0
C1302 C 0.7257 0.10162 0.92749 0.0
H1303 H 0.7527 0.08618 0.87204 0.0
H1304 H 0.73911 0.10501 0.88506 0.0
H1305 H 0.75535 0.08955 0.89952 0.0
H1306 H 0.73293 0.05346 0.94045 0.0
H1307 H 0.74323 0.07214 0.97356 0.0
H1308 H 0.55247 0.74067 0.94427 0.0
H1309 H 0.58281 0.72729 0.95998 0.0
H1310 H 0.61982 0.75769 0.91834 0.0
H1311 H 0.58927 0.77024 0.90185 0.0
H1312 H 0.62982 0.72097 0.91971 0.0
H1313 H 0.62732 0.75172 0.9995 0.0
H1314 H 0.60404 0.73688 0.99082 0.0
H1315 H 0.61106 0.75993 0.97903 0.0
C1316 C 0.56712 0.74484 0.93871 0.0
C1317 C 0.56847 0.75661 0.92187 0.0
C1318 C 0.58453 0.73724 0.94779 0.0
C1319 C 0.60377 0.74173 0.94064 0.0
C1320 C 0.6052 0.75401 0.92419 0.0
H1321 H 0.71381 0.70989 0.0087 0.0
H1322 H 0.68676 0.72786 0.99241 0.0
C1323 C 0.58773 0.76126 0.91483 0.0
C1324 C 0.62211 0.73248 0.94935 0.0
H1325 H 0.64821 0.72383 0.99414 0.0
C1326 C 0.63397 0.72182 0.93599 0.0
C1327 C 0.62783 0.73378 0.97056 0.0
C1328 C 0.61701 0.7464 0.98575 0.0
C1329 C 0.65103 0.71212 0.94321 0.0
C1330 C 0.65595 0.71233 0.9645 0.0
C1331 C 0.64435 0.72335 0.97783 0.0
C1332 C 0.67314 0.70147 0.97336 0.0
C1333 C 0.66378 0.70217 0.92784 0.0
C1334 C 0.67469 0.68061 0.96808 0.0
C1335 C 0.69051 0.67041 0.97705 0.0
C1336 C 0.7047 0.68072 0.99194 0.0
C1337 C 0.70308 0.70152 0.9973 0.0
C1338 C 0.68757 0.71181 0.98802 0.0
H1339 H 0.66234 0.70923 0.91307 0.0
H1340 H 0.68015 0.70332 0.93344 0.0
H1341 H 0.65837 0.68581 0.92488 0.0
H1342 H 0.66344 0.67206 0.95735 0.0
H1343 H 0.69122 0.65431 0.97283 0.0
H1344 H 0.06601 0.07066 0.7531 0.0
H1345 H 0.04916 0.09871 0.76911 0.0
H1346 H 0.09332 0.10246 0.82109 0.0
H1347 H 0.11047 0.07445 0.80506 0.0
H1348 H 0.03172 0.10245 0.80649 0.0
H1349 H 0.09617 0.16095 0.80312 0.0
H1350 H 0.09466 0.13636 0.7889 0.0
H1351 H 0.10272 0.13879 0.81565 0.0
C1352 C 0.07215 0.07739 0.76796 0.0
C1353 C 0.08968 0.07038 0.77775 0.0
C1354 C 0.06247 0.09342 0.7771 0.0
C1355 C 0.07015 0.10287 0.79614 0.0
C1356 C 0.08736 0.09562 0.80621 0.0
H1357 H 0.01174 0.18559 0.87713 0.0
H1358 H 0.02494 0.15596 0.85981 0.0
C1359 C 0.09707 0.07954 0.79708 0.0
C1360 C 0.06017 0.1204 0.80531 0.0
H1361 H 0.06828 0.17107 0.821 0.0
C1362 C 0.03969 0.11746 0.80965 0.0
C1363 C 0.07049 0.14005 0.8091 0.0
C1364 C 0.09217 0.14437 0.8038 0.0
C1365 C 0.02937 0.13358 0.81804 0.0
C1366 C 0.03989 0.15308 0.8224 0.0
C1367 C 0.06026 0.15609 0.81773 0.0
C1368 C 0.03025 0.17054 0.83217 0.0
C1369 C 0.00723 0.12965 0.82189 0.0
C1370 C 0.02884 0.18865 0.82241 0.0
C1371 C 0.02133 0.20571 0.8323 0.0
C1372 C 0.01525 0.20504 0.85226 0.0
C1373 C 0.01619 0.18667 0.86175 0.0
C1374 C 0.02366 0.16963 0.85184 0.0
H1375 H 1.00001 0.11582 0.81274 0.0
H1376 H 0.00609 0.12722 0.83824 0.0
H1377 H 0.99851 0.14287 0.81827 0.0
H1378 H 0.0339 0.1897 0.80724 0.0
H1379 H 0.02091 0.2196 0.82455 0.0
H1380 H 0.95369 0.27078 0.44561 0.0
H1381 H 0.92242 0.28494 0.45552 0.0
H1382 H 0.92849 0.32964 0.41144 0.0
H1383 H 0.96007 0.31562 0.40146 0.0
H1384 H 0.91685 0.34538 0.45007 0.0
H1385 H 0.86812 0.27603 0.41986 0.0
H1386 H 0.88904 0.27097 0.43726 0.0
H1387 H 0.89402 0.28089 0.4133 0.0
C1388 C 0.94851 0.28372 0.43808 0.0
C1389 C 0.95934 0.29197 0.42262 0.0
C1390 C 0.93053 0.29171 0.44369 0.0
C1391 C 0.92287 0.30805 0.43391 0.0
C1392 C 0.93404 0.3169 0.41906 0.0
H1393 H 0.81264 0.37162 0.45656 0.0
H1394 H 0.8434 0.36087 0.44149 0.0
C1395 C 0.9521 0.30889 0.4134 0.0
C1396 C 0.90309 0.3156 0.43915 0.0
H1397 H 0.85275 0.30014 0.44132 0.0
C1398 C 0.90277 0.3356 0.44795 0.0
C1399 C 0.88472 0.30283 0.43629 0.0
C1400 C 0.88387 0.28155 0.42598 0.0
C1401 C 0.88475 0.34287 0.45481 0.0
C1402 C 0.8665 0.32987 0.45248 0.0
C1403 C 0.86674 0.31007 0.44315 0.0
C1404 C 0.84731 0.33603 0.46072 0.0
C1405 C 0.88556 0.36408 0.46526 0.0
C1406 C 0.83887 0.32522 0.47602 0.0
C1407 C 0.82127 0.33121 0.48453 0.0
C1408 C 0.81161 0.34812 0.47786 0.0
C1409 C 0.81971 0.35857 0.46207 0.0
C1410 C 0.83739 0.35255 0.45356 0.0
H1411 H 0.90147 0.37049 0.4696 0.0
H1412 H 0.87829 0.37429 0.45476 0.0
H1413 H 0.87707 0.3641 0.47917 0.0
H1414 H 0.84617 0.31236 0.4817 0.0
H1415 H 0.81545 0.32278 0.49663 0.0
H1416 H 0.56842 0.9769 0.78985 0.0
H1417 H 0.55498 0.94476 0.80174 0.0
H1418 H 0.59493 0.91204 0.76475 0.0
H1419 H 0.60879 0.94424 0.75303 0.0
H1420 H 0.53602 0.90868 0.78238 0.0
H1421 H 0.61068 0.89568 0.82192 0.0
H1422 H 0.60555 0.91971 0.81203 0.0
H1423 H 0.61141 0.89866 0.79515 0.0
C1424 C 0.57423 0.96286 0.78405 0.0
C1425 C 0.58985 0.96318 0.77063 0.0
C1426 C 0.5665 0.94448 0.79087 0.0
C1427 C 0.57423 0.92604 0.78447 0.0
C1428 C 0.58906 0.92615 0.77025 0.0
H1429 H 0.55579 0.80279 0.8212 0.0
H1430 H 0.5648 0.83318 0.80378 0.0
C1431 C 0.59686 0.94456 0.76344 0.0
C1432 C 0.56734 0.9069 0.7934 0.0
H1433 H 0.58417 0.86963 0.82219 0.0
C1434 C 0.54654 0.90012 0.79108 0.0
C1435 C 0.58106 0.89583 0.80488 0.0
C1436 C 0.60339 0.90289 0.80885 0.0
C1437 C 0.53915 0.8824 0.79967 0.0
C1438 C 0.55289 0.87135 0.81111 0.0
C1439 C 0.57367 0.8781 0.81336 0.0
C1440 C 0.54615 0.8527 0.82091 0.0
C1441 C 0.51677 0.87548 0.79616 0.0
C1442 C 0.53262 0.85353 0.83637 0.0
C1443 C 0.52742 0.83612 0.84642 0.0
C1444 C 0.53574 0.81758 0.84125 0.0
C1445 C 0.54908 0.81679 0.82558 0.0
C1446 C 0.55427 0.83416 0.81558 0.0
H1447 H 0.50932 0.88256 0.78308 0.0
H1448 H 0.51449 0.85863 0.79327 0.0
H1449 H 0.50904 0.87996 0.80998 0.0
H1450 H 0.52647 0.86777 0.841 0.0
H1451 H 0.51719 0.83728 0.85848 0.0
H1452 H 0.00534 0.21496 0.32791 0.0
H1453 H 0.99104 0.1819 0.31148 0.0
H1454 H 0.94931 0.17643 0.35839 0.0
H1455 H 0.96347 0.20933 0.37496 0.0
H1456 H 0.98929 0.14335 0.33238 0.0
H1457 H 0.91355 0.16505 0.30259 0.0
H1458 H 0.93522 0.18346 0.3088 0.0
H1459 H 0.92127 0.17358 0.32875 0.0
C1460 C 0.99295 0.20685 0.3346 0.0
C1461 C 0.98554 0.21479 0.35274 0.0
C1462 C 0.98487 0.18795 0.32523 0.0
C1463 C 0.96907 0.17686 0.33368 0.0
C1464 C 0.96137 0.1849 0.35154 0.0
H1465 H 0.89683 0.06257 0.30795 0.0
H1466 H 0.9129 0.09574 0.3218 0.0
C1467 C 0.96953 0.20367 0.361 0.0
C1468 C 0.96114 0.15644 0.32443 0.0
H1469 H 0.91825 0.12974 0.30148 0.0
C1470 C 0.97382 0.14033 0.32545 0.0
C1471 C 0.94095 0.15265 0.31555 0.0
C1472 C 0.92694 0.16959 0.31366 0.0
C1473 C 0.9666 0.12031 0.31835 0.0
C1474 C 0.94631 0.11646 0.30957 0.0
C1475 C 0.93377 0.13269 0.30827 0.0
C1476 C 0.93756 0.09569 0.30194 0.0
C1477 C 0.98052 0.10339 0.32098 0.0
C1478 C 0.94618 0.08454 0.28627 0.0
C1479 C 0.93712 0.06544 0.27843 0.0
C1480 C 0.91911 0.05728 0.28593 0.0
C1481 C 0.91068 0.06839 0.3018 0.0
C1482 C 0.91982 0.08739 0.30972 0.0
H1483 H 0.99327 0.10791 0.33279 0.0
H1484 H 0.97201 0.08939 0.32528 0.0
H1485 H 0.98722 0.09966 0.30636 0.0
H1486 H 0.9596 0.09083 0.27972 0.0
H1487 H 0.9439 0.05737 0.26608 0.0
H1488 H 0.63788 0.07803 0.71538 0.0
H1489 H 0.62385 0.10827 0.70251 0.0
H1490 H 0.565 0.08901 0.72191 0.0
H1491 H 0.57884 0.05855 0.73476 0.0
H1492 H 0.56365 0.10261 0.68221 0.0
H1493 H 0.60911 0.15806 0.73837 0.0
H1494 H 0.624 0.14082 0.72462 0.0
H1495 H 0.60624 0.13107 0.74159 0.0
C1496 C 0.62193 0.08014 0.71689 0.0
C1497 C 0.60952 0.06586 0.72622 0.0
C1498 C 0.61397 0.09753 0.70963 0.0
C1499 C 0.59349 0.10107 0.71159 0.0
C1500 C 0.5809 0.08663 0.72039 0.0
H1501 H 0.5378 0.21515 0.69406 0.0
H1502 H 0.55082 0.1849 0.70818 0.0
C1503 C 0.58885 0.06922 0.72771 0.0
C1504 C 0.58519 0.11977 0.70429 0.0
H1505 H 0.59086 0.17183 0.71082 0.0
C1506 C 0.56953 0.11774 0.68851 0.0
C1507 C 0.5927 0.1395 0.71274 0.0
C1508 C 0.60881 0.14258 0.7304 0.0
C1509 C 0.56153 0.13493 0.68058 0.0
C1510 C 0.56959 0.15466 0.68849 0.0
C1511 C 0.58487 0.15669 0.70464 0.0
C1512 C 0.56237 0.17336 0.68011 0.0
C1513 C 0.54438 0.13183 0.66391 0.0
C1514 C 0.565 0.17715 0.6598 0.0
C1515 C 0.55765 0.19443 0.65169 0.0
C1516 C 0.54754 0.20833 0.66376 0.0
C1517 C 0.54545 0.20477 0.6843 0.0
C1518 C 0.55286 0.18747 0.69241 0.0
H1519 H 0.53655 0.11626 0.6632 0.0
H1520 H 0.53296 0.14315 0.6662 0.0
H1521 H 0.55066 0.13388 0.64899 0.0
H1522 H 0.57266 0.16667 0.65016 0.0
H1523 H 0.55964 0.1967 0.63585 0.0
H1524 H 0.21916 0.32507 0.99661 0.0
H1525 H 0.18583 0.30891 0.9828 0.0
H1526 H 0.17153 0.36458 0.95659 0.0
H1527 H 0.20466 0.38088 0.97024 0.0
H1528 H 0.14077 0.34638 0.98079 0.0
H1529 H 0.1667 0.29198 0.92137 0.0
H1530 H 0.17911 0.29233 0.94664 0.0
H1531 H 0.18248 0.31424 0.93231 0.0
C1532 C 0.209 0.33383 0.98775 0.0
C1533 C 0.21462 0.35428 0.98452 0.0
C1534 C 0.18999 0.32455 0.97986 0.0
C1535 C 0.17631 0.33556 0.96864 0.0
C1536 C 0.18192 0.35586 0.96523 0.0
H1537 H 0.06741 0.30069 0.89092 0.0
H1538 H 0.10053 0.31455 0.90706 0.0
C1539 C 0.2009 0.36511 0.97299 0.0
C1540 C 0.15588 0.32621 0.96082 0.0
H1541 H 0.1314 0.29058 0.9254 0.0
C1542 C 0.13867 0.3341 0.96876 0.0
C1543 C 0.1533 0.31031 0.94505 0.0
C1544 C 0.17132 0.30173 0.93567 0.0
C1545 C 0.11887 0.32655 0.96124 0.0
C1546 C 0.11629 0.31066 0.94546 0.0
C1547 C 0.1335 0.3027 0.93759 0.0
C1548 C 0.09586 0.30274 0.9362 0.0
C1549 C 0.10085 0.33595 0.96979 0.0
C1550 C 0.08224 0.29157 0.94733 0.0
C1551 C 0.06323 0.28356 0.93813 0.0
C1552 C 0.05757 0.28661 0.91766 0.0
C1553 C 0.07121 0.29808 0.90671 0.0
C1554 C 0.09019 0.30597 0.91588 0.0
H1555 H 0.10546 0.35033 0.97942 0.0
H1556 H 0.08964 0.33919 0.95728 0.0
H1557 H 0.09312 0.32504 0.9793 0.0
H1558 H 0.08645 0.28876 0.96299 0.0
H1559 H 0.05313 0.27475 0.94698 0.0
H1560 H 0.46752 0.71483 0.45087 0.0
H1561 H 0.43636 0.70649 0.46732 0.0
H1562 H 0.40552 0.75011 0.43334 0.0
H1563 H 0.43662 0.75832 0.41647 0.0
H1564 H 0.4128 0.73023 0.49116 0.0
H1565 H 0.36857 0.69774 0.41967 0.0
H1566 H 0.39586 0.70329 0.4213 0.0
H1567 H 0.37922 0.7235 0.4189 0.0
C1568 C 0.45414 0.72271 0.44689 0.0
C1569 C 0.45452 0.73713 0.4322 0.0
C1570 C 0.43634 0.71794 0.45636 0.0
C1571 C 0.41852 0.72743 0.45134 0.0
C1572 C 0.41899 0.74229 0.43715 0.0
H1573 H 0.2945 0.70625 0.4855 0.0
H1574 H 0.32611 0.72131 0.47392 0.0
C1575 C 0.4368 0.74705 0.42759 0.0
C1576 C 0.39943 0.72137 0.46072 0.0
H1577 H 0.35085 0.69979 0.44942 0.0
C1578 C 0.39923 0.72361 0.48205 0.0
C1579 C 0.38176 0.71265 0.44881 0.0
C1580 C 0.38132 0.70895 0.42592 0.0
C1581 C 0.38178 0.7175 0.49177 0.0
C1582 C 0.36418 0.70869 0.47985 0.0
C1583 C 0.36434 0.70663 0.45853 0.0
C1584 C 0.34549 0.70106 0.48905 0.0
C1585 C 0.38225 0.72075 0.51467 0.0
C1586 C 0.3459 0.68485 0.50171 0.0
C1587 C 0.3278 0.67619 0.50842 0.0
C1588 C 0.30896 0.68351 0.50246 0.0
C1589 C 0.30873 0.70023 0.49039 0.0
C1590 C 0.32679 0.70885 0.48371 0.0
H1591 H 0.39459 0.73238 0.52099 0.0
H1592 H 0.36745 0.72561 0.51947 0.0
H1593 H 0.38507 0.7062 0.52141 0.0
H1594 H 0.36011 0.67834 0.50572 0.0
H1595 H 0.3285 0.66326 0.51758 0.0
H1596 H 0.86051 0.51289 0.83665 0.0
H1597 H 0.84353 0.52122 0.86765 0.0
H1598 H 0.80432 0.55887 0.83439 0.0
H1599 H 0.82091 0.5504 0.80338 0.0
H1600 H 0.84214 0.55932 0.88695 0.0
H1601 H 0.76354 0.5257 0.86421 0.0
H1602 H 0.78504 0.51939 0.85026 0.0
H1603 H 0.77311 0.5426 0.84642 0.0
C1604 C 0.84809 0.52271 0.83588 0.0
C1605 C 0.84205 0.53093 0.81752 0.0
C1606 C 0.83841 0.52748 0.85361 0.0
C1607 C 0.82242 0.54042 0.85329 0.0
C1608 C 0.81625 0.54846 0.83492 0.0
H1609 H 0.75759 0.60598 0.9434 0.0
H1610 H 0.76988 0.59075 0.91201 0.0
C1611 C 0.82589 0.5437 0.81722 0.0
C1612 C 0.81318 0.54673 0.8724 0.0
H1613 H 0.76781 0.54903 0.89403 0.0
C1614 C 0.82592 0.55686 0.88858 0.0
C1615 C 0.79199 0.54363 0.87447 0.0
C1616 C 0.77764 0.53206 0.85799 0.0
C1617 C 0.81801 0.56443 0.90655 0.0
C1618 C 0.7968 0.56153 0.90854 0.0
C1619 C 0.78405 0.55127 0.89245 0.0
C1620 C 0.7877 0.56927 0.92722 0.0
C1621 C 0.83236 0.57601 0.92305 0.0
C1622 C 0.79308 0.56175 0.94604 0.0
C1623 C 0.7861 0.57038 0.96395 0.0
C1624 C 0.77351 0.58667 0.96339 0.0
C1625 C 0.76729 0.59348 0.94437 0.0
C1626 C 0.7743 0.58481 0.92643 0.0
H1627 H 0.84719 0.58096 0.9173 0.0
H1628 H 0.82549 0.58967 0.92954 0.0
H1629 H 0.83541 0.566 0.93554 0.0
H1630 H 0.8031 0.54951 0.94694 0.0
H1631 H 0.79109 0.56466 0.97831 0.0
H1632 H 0.69342 0.53161 0.21028 0.0
H1633 H 0.70782 0.54494 0.18023 0.0
H1634 H 0.65636 0.58069 0.17103 0.0
H1635 H 0.64171 0.56742 0.20085 0.0
H1636 H 0.67931 0.54372 0.13667 0.0
H1637 H 0.71587 0.61816 0.17197 0.0
H1638 H 0.71339 0.59591 0.18631 0.0
H1639 H 0.69133 0.60895 0.17948 0.0
C1640 C 0.68525 0.54246 0.202 0.0
C1641 C 0.66638 0.54841 0.20797 0.0
C1642 C 0.69348 0.54999 0.18482 0.0
C1643 C 0.68312 0.56376 0.1735 0.0
C1644 C 0.66456 0.57009 0.17964 0.0
H1645 H 0.70963 0.63364 0.07135 0.0
H1646 H 0.69627 0.6198 0.10149 0.0
C1647 C 0.65624 0.56247 0.19668 0.0
C1648 C 0.69123 0.57103 0.1548 0.0
H1649 H 0.71669 0.61181 0.13645 0.0
C1650 C 0.68759 0.55854 0.13655 0.0
C1651 C 0.70177 0.59043 0.1548 0.0
C1652 C 0.70597 0.60425 0.17414 0.0
C1653 C 0.694 0.56513 0.11812 0.0
C1654 C 0.70478 0.58453 0.11809 0.0
C1655 C 0.70845 0.59695 0.13645 0.0
C1656 C 0.71227 0.59235 0.0992 0.0
C1657 C 0.6886 0.55149 0.09878 0.0
C1658 C 0.72572 0.58154 0.08783 0.0
C1659 C 0.73321 0.58931 0.07044 0.0
C1660 C 0.72768 0.60824 0.06424 0.0
C1661 C 0.7142 0.61902 0.07566 0.0
C1662 C 0.70658 0.61115 0.09293 0.0
H1663 H 0.67547 0.54031 0.10038 0.0
H1664 H 0.68478 0.56053 0.08568 0.0
H1665 H 0.70183 0.54278 0.09529 0.0
H1666 H 0.73075 0.56726 0.09262 0.0
H1667 H 0.74373 0.5807 0.06216 0.0
H1668 H 0.72052 0.4538 0.47033 0.0
H1669 H 0.71095 0.47119 0.44006 0.0
H1670 H 0.74571 0.43151 0.40393 0.0
H1671 H 0.75557 0.41403 0.43428 0.0
H1672 H 0.75074 0.47406 0.39623 0.0
H1673 H 0.66924 0.44522 0.39395 0.0
H1674 H 0.67961 0.4579 0.41793 0.0
H1675 H 0.68911 0.43433 0.40889 0.0
C1676 C 0.72624 0.44879 0.45598 0.0
C1677 C 0.7387 0.4324 0.4547 0.0
C1678 C 0.72067 0.45872 0.43867 0.0
C1679 C 0.72734 0.45243 0.41969 0.0
C1680 C 0.74031 0.43653 0.41843 0.0
H1681 H 0.70546 0.48385 0.29553 0.0
H1682 H 0.71958 0.47238 0.32754 0.0
C1683 C 0.74591 0.42654 0.43578 0.0
C1684 C 0.72037 0.46221 0.40113 0.0
H1685 H 0.67775 0.46943 0.3707 0.0
C1686 C 0.7348 0.47304 0.3906 0.0
C1687 C 0.69955 0.46091 0.39387 0.0
C1688 C 0.68346 0.44883 0.40411 0.0
C1689 C 0.72891 0.48283 0.37312 0.0
C1690 C 0.70809 0.48141 0.36577 0.0
C1691 C 0.69368 0.47065 0.3764 0.0
C1692 C 0.70092 0.49006 0.34658 0.0
C1693 C 0.745 0.49488 0.36288 0.0
C1694 C 0.6856 0.50377 0.34654 0.0
C1695 C 0.67735 0.51029 0.32817 0.0
C1696 C 0.68417 0.50308 0.30948 0.0
C1697 C 0.69991 0.4898 0.30964 0.0
C1698 C 0.70812 0.4833 0.32798 0.0
H1699 H 0.75862 0.49968 0.37356 0.0
H1700 H 0.75 0.48518 0.35001 0.0
H1701 H 0.73897 0.50866 0.35673 0.0
H1702 H 0.67973 0.50909 0.36071 0.0
H1703 H 0.6652 0.52044 0.32859 0.0
H1704 H 0.88779 0.4864 0.69804 0.0
H1705 H 0.8723 0.47277 0.66465 0.0
H1706 H 0.8134 0.46702 0.68901 0.0
H1707 H 0.82874 0.48183 0.72229 0.0
H1708 H 0.85464 0.43811 0.65181 0.0
H1709 H 0.79833 0.49498 0.63967 0.0
H1710 H 0.81791 0.49821 0.66048 0.0
H1711 H 0.79473 0.48246 0.66247 0.0
C1712 C 0.87151 0.48229 0.69628 0.0
C1713 C 0.85945 0.48525 0.71275 0.0
C1714 C 0.86266 0.47451 0.67715 0.0
C1715 C 0.84159 0.4692 0.67412 0.0
C1716 C 0.82957 0.47163 0.69073 0.0
H1717 H 0.78864 0.38653 0.57252 0.0
H1718 H 0.80385 0.40247 0.60516 0.0
C1719 C 0.83837 0.47989 0.7098 0.0
C1720 C 0.83252 0.46049 0.65372 0.0
H1721 H 0.79429 0.46487 0.61683 0.0
C1722 C 0.84153 0.4441 0.64412 0.0
C1723 C 0.81565 0.4685 0.64342 0.0
C1724 C 0.80625 0.48714 0.65195 0.0
C1725 C 0.83408 0.43537 0.62472 0.0
C1726 C 0.81647 0.44257 0.61496 0.0
C1727 C 0.80762 0.45916 0.62439 0.0
C1728 C 0.80689 0.433 0.5951 0.0
C1729 C 0.84555 0.41887 0.61476 0.0
C1730 C 0.80263 0.44493 0.57875 0.0
C1731 C 0.79337 0.43589 0.56015 0.0
C1732 C 0.78845 0.41471 0.55753 0.0
C1733 C 0.79261 0.40284 0.57394 0.0
C1734 C 0.80144 0.41193 0.59261 0.0
H1735 H 0.86187 0.42027 0.6206 0.0
H1736 H 0.83887 0.40375 0.61836 0.0
H1737 H 0.8447 0.41939 0.59794 0.0
H1738 H 0.80656 0.46125 0.58033 0.0
H1739 H 0.79026 0.44542 0.54779 0.0
H1740 H 0.39771 0.0867 0.26263 0.0
H1741 H 0.41484 0.11616 0.24892 0.0
H1742 H 0.46605 0.08139 0.23699 0.0
H1743 H 0.4489 0.05163 0.25046 0.0
H1744 H 0.45239 0.1383 0.25922 0.0
H1745 H 0.44826 0.10028 0.18086 0.0
H1746 H 0.43405 0.09022 0.20073 0.0
H1747 H 0.46074 0.08664 0.20013 0.0
C1748 C 0.41271 0.0853 0.25729 0.0
C1749 C 0.42183 0.06668 0.25749 0.0
C1750 C 0.42248 0.10221 0.24945 0.0
C1751 C 0.44153 0.10086 0.24156 0.0
C1752 C 0.45115 0.08263 0.24262 0.0
H1753 H 0.52122 0.20112 0.20682 0.0
H1754 H 0.50516 0.17313 0.22367 0.0
C1755 C 0.44139 0.06568 0.25048 0.0
C1756 C 0.45093 0.11838 0.2317 0.0
H1757 H 0.46616 0.13292 0.18619 0.0
C1758 C 0.45544 0.13713 0.24326 0.0
C1759 C 0.45452 0.11694 0.21077 0.0
C1760 C 0.44899 0.09751 0.1973 0.0
C1761 C 0.46373 0.15439 0.23454 0.0
C1762 C 0.46786 0.15277 0.21376 0.0
C1763 C 0.46309 0.1341 0.20214 0.0
C1764 C 0.47731 0.17021 0.20381 0.0
C1765 C 0.46763 0.17428 0.24757 0.0
C1766 C 0.46716 0.17769 0.18678 0.0
C1767 C 0.47637 0.19368 0.17699 0.0
C1768 C 0.49598 0.2024 0.184 0.0
C1769 C 0.50606 0.19487 0.20108 0.0
C1770 C 0.49685 0.17891 0.21083 0.0
H1771 H 0.45865 0.17441 0.26116 0.0
H1772 H 0.48403 0.1765 0.25301 0.0
H1773 H 0.46384 0.18736 0.23871 0.0
H1774 H 0.45211 0.17111 0.18103 0.0
H1775 H 0.46822 0.19906 0.16384 0.0
H1776 H 0.03033 0.82547 0.64236 0.0
H1777 H 0.04321 0.85846 0.65953 0.0
H1778 H 0.0556 0.83006 0.71543 0.0
H1779 H 0.04253 0.79686 0.69844 0.0
H1780 H 0.03729 0.86827 0.72016 0.0
H1781 H 0.10481 0.87275 0.67476 0.0
H1782 H 0.08079 0.86835 0.6598 0.0
H1783 H 0.08909 0.84935 0.67602 0.0
C1784 C 0.03567 0.82619 0.65834 0.0
C1785 C 0.03558 0.80845 0.66897 0.0
C1786 C 0.04308 0.84507 0.6681 0.0
C1787 C 0.05065 0.84661 0.68863 0.0
C1788 C 0.0499 0.82913 0.69953 0.0
H1789 H 0.13134 0.94706 0.74671 0.0
H1790 H 0.11482 0.91356 0.73472 0.0
C1791 C 0.04246 0.81019 0.68978 0.0
C1792 C 0.05998 0.86636 0.69844 0.0
H1793 H 0.09926 0.90241 0.69545 0.0
C1794 C 0.05087 0.87575 0.71485 0.0
C1795 C 0.07786 0.87589 0.69162 0.0
C1796 C 0.08886 0.86602 0.67471 0.0
C1797 C 0.05898 0.8947 0.72436 0.0
C1798 C 0.07647 0.90452 0.71707 0.0
C1799 C 0.08575 0.89492 0.70091 0.0
C1800 C 0.08566 0.9247 0.72601 0.0
C1801 C 0.04893 0.9039 0.74227 0.0
C1802 C 0.0747 0.9421 0.72522 0.0
C1803 C 0.0841 0.96135 0.73211 0.0
C1804 C 0.1047 0.96354 0.73975 0.0
C1805 C 0.11548 0.94598 0.74087 0.0
C1806 C 0.10607 0.92679 0.73403 0.0
H1807 H 0.03916 0.89229 0.7492 0.0
H1808 H 0.0605 0.91125 0.75417 0.0
H1809 H 0.03914 0.91576 0.73703 0.0
H1810 H 0.05905 0.94089 0.71871 0.0
H1811 H 0.07538 0.97455 0.73096 0.0
H1812 H 0.50104 0.81773 0.32716 0.0
H1813 H 0.48597 0.84827 0.31637 0.0
H1814 H 0.44228 0.84282 0.36148 0.0
H1815 H 0.45743 0.81219 0.37255 0.0
H1816 H 0.44555 0.85363 0.30166 0.0
H1817 H 0.46873 0.90164 0.37377 0.0
H1818 H 0.47954 0.87782 0.36754 0.0
H1819 H 0.45441 0.8778 0.37626 0.0
C1820 C 0.48816 0.82292 0.33476 0.0
C1821 C 0.48051 0.81253 0.3508 0.0
C1822 C 0.47956 0.84041 0.32856 0.0
C1823 C 0.46321 0.84803 0.33832 0.0
C1824 C 0.45514 0.83742 0.35398 0.0
H1825 H 0.40224 0.9596 0.31684 0.0
H1826 H 0.41246 0.92806 0.3308 0.0
C1827 C 0.46371 0.81983 0.36018 0.0
C1828 C 0.45481 0.86709 0.33196 0.0
H1829 H 0.45029 0.91699 0.34785 0.0
C1830 C 0.44651 0.86746 0.31179 0.0
C1831 C 0.45598 0.88511 0.34522 0.0
C1832 C 0.46527 0.88576 0.36688 0.0
C1833 C 0.43951 0.88536 0.30446 0.0
C1834 C 0.44125 0.90354 0.31751 0.0
C1835 C 0.44903 0.90307 0.33785 0.0
C1836 C 0.43581 0.92331 0.31 0.0
C1837 C 0.43024 0.88459 0.28277 0.0
C1838 C 0.44599 0.93147 0.29415 0.0
C1839 C 0.44023 0.94943 0.28618 0.0
C1840 C 0.42423 0.95975 0.29399 0.0
C1841 C 0.41461 0.95203 0.31046 0.0
C1842 C 0.42039 0.93398 0.31843 0.0
H1843 H 0.42463 0.8688 0.27688 0.0
H1844 H 0.41736 0.89447 0.28153 0.0
H1845 H 0.442 0.89012 0.27287 0.0
H1846 H 0.45827 0.92378 0.28773 0.0
H1847 H 0.44809 0.95499 0.2736 0.0
H1848 H 0.80112 0.69689 0.02373 0.0
H1849 H 0.83438 0.71553 0.03334 0.0
H1850 H 0.85898 0.65966 0.04979 0.0
H1851 H 0.82621 0.64091 0.0395 0.0
H1852 H 0.85515 0.72179 0.06857 0.0
H1853 H 0.90277 0.68068 0.01687 0.0
H1854 H 0.87529 0.67749 0.01387 0.0
H1855 H 0.88936 0.66298 0.03141 0.0
C1856 C 0.8137 0.68856 0.02918 0.0
C1857 C 0.81106 0.66739 0.03072 0.0
C1858 C 0.8327 0.69923 0.03464 0.0
C1859 C 0.84936 0.68895 0.04186 0.0
C1860 C 0.84663 0.66785 0.0436 0.0
H1861 H 0.94878 0.73177 0.1271 0.0
H1862 H 0.91621 0.72075 0.10831 0.0
C1863 C 0.82778 0.65716 0.03787 0.0
C1864 C 0.86922 0.70033 0.04894 0.0
H1865 H 0.92062 0.69828 0.04738 0.0
C1866 C 0.86945 0.71686 0.06366 0.0
C1867 C 0.88792 0.69432 0.04221 0.0
C1868 C 0.8888 0.67805 0.02504 0.0
C1869 C 0.88785 0.72672 0.0727 0.0
C1870 C 0.90654 0.71938 0.0674 0.0
C1871 C 0.90632 0.70368 0.05178 0.0
C1872 C 0.92633 0.72682 0.07871 0.0
C1873 C 0.88699 0.74484 0.08789 0.0
C1874 C 0.9432 0.73322 0.0683 0.0
C1875 C 0.96209 0.73913 0.07903 0.0
C1876 C 0.96441 0.73883 0.10036 0.0
C1877 C 0.94748 0.73245 0.1107 0.0
C1878 C 0.92874 0.7263 0.09998 0.0
H1879 H 0.87315 0.753 0.08451 0.0
H1880 H 0.8862 0.73947 0.10338 0.0
H1881 H 0.90063 0.75578 0.08795 0.0
H1882 H 0.94177 0.73358 0.05187 0.0
H1883 H 0.97485 0.74394 0.07062 0.0
H1884 H 0.56995 0.25517 0.56619 0.0
H1885 H 0.59779 0.2714 0.54923 0.0
H1886 H 0.60314 0.32216 0.5949 0.0
H1887 H 0.5753 0.30593 0.61214 0.0
H1888 H 0.60163 0.30985 0.53307 0.0
H1889 H 0.66126 0.30277 0.59564 0.0
H1890 H 0.63651 0.28883 0.59409 0.0
H1891 H 0.63944 0.31532 0.60318 0.0
C1892 C 0.57699 0.26982 0.57265 0.0
C1893 C 0.57046 0.2792 0.59062 0.0
C1894 C 0.59289 0.27908 0.56289 0.0
C1895 C 0.60272 0.29784 0.57094 0.0
C1896 C 0.59598 0.30751 0.58861 0.0
H1897 H 0.68675 0.37879 0.51345 0.0
H1898 H 0.65687 0.36218 0.52694 0.0
C1899 C 0.58 0.29826 0.59839 0.0
C1900 C 0.62014 0.30709 0.56086 0.0
H1901 H 0.67121 0.3211 0.56803 0.0
C1902 C 0.61685 0.31233 0.5407 0.0
C1903 C 0.64004 0.31 0.57074 0.0
C1904 C 0.64467 0.3038 0.59204 0.0
C1905 C 0.63288 0.32069 0.53025 0.0
C1906 C 0.65268 0.32407 0.54031 0.0
C1907 C 0.65601 0.31857 0.56037 0.0
C1908 C 0.67016 0.33351 0.53045 0.0
C1909 C 0.62858 0.32554 0.50843 0.0
C1910 C 0.68759 0.32292 0.5279 0.0
C1911 C 0.70477 0.33239 0.52019 0.0
C1912 C 0.70491 0.35273 0.51507 0.0
C1913 C 0.68718 0.36309 0.51715 0.0
C1914 C 0.67002 0.35359 0.5248 0.0
H1915 H 0.61419 0.31729 0.50135 0.0
H1916 H 0.62701 0.34215 0.50803 0.0
H1917 H 0.64127 0.32156 0.49913 0.0
H1918 H 0.68804 0.30742 0.53223 0.0
H1919 H 0.71814 0.32396 0.51889 0.0
H1920 H 0.25077 0.44785 0.05043 0.0
H1921 H 0.23775 0.46527 0.08026 0.0
H1922 H 0.24811 0.41341 0.11466 0.0
H1923 H 0.26131 0.39598 0.0851 0.0
H1924 H 0.20374 0.45093 0.09939 0.0
H1925 H 0.27254 0.4615 0.15396 0.0
H1926 H 0.27385 0.45575 0.12693 0.0
H1927 H 0.26696 0.43581 0.14288 0.0
C1928 C 0.25065 0.44029 0.06445 0.0
C1929 C 0.25711 0.42049 0.06533 0.0
C1930 C 0.24313 0.45024 0.08146 0.0
C1931 C 0.2421 0.4407 0.09973 0.0
C1932 C 0.24908 0.42121 0.10084 0.0
H1933 H 0.16248 0.46725 0.19648 0.0
H1934 H 0.17969 0.45121 0.16852 0.0
C1935 C 0.25655 0.41123 0.08386 0.0
C1936 C 0.23241 0.45048 0.11715 0.0
H1937 H 0.24082 0.46728 0.16753 0.0
C1938 C 0.21187 0.4546 0.11427 0.0
C1939 C 0.24307 0.45535 0.13651 0.0
C1940 C 0.26538 0.45207 0.14028 0.0
C1941 C 0.20161 0.46318 0.1303 0.0
C1942 C 0.2121 0.46751 0.14981 0.0
C1943 C 0.23274 0.46371 0.15262 0.0
C1944 C 0.2021 0.4767 0.16731 0.0
C1945 C 0.17972 0.46786 0.12612 0.0
C1946 C 0.20934 0.49607 0.17628 0.0
C1947 C 0.19961 0.50521 0.19226 0.0
C1948 C 0.18249 0.49512 0.19971 0.0
C1949 C 0.17556 0.47547 0.19104 0.0
C1950 C 0.18531 0.46633 0.17499 0.0
H1951 H 0.17544 0.4681 0.10954 0.0
H1952 H 0.16956 0.45593 0.13211 0.0
H1953 H 0.17696 0.48282 0.13386 0.0
H1954 H 0.22232 0.50429 0.17065 0.0
H1955 H 0.20541 0.52033 0.19862 0.0
H1956 H 0.37149 0.45816 0.81168 0.0
H1957 H 0.3604 0.44259 0.8421 0.0
H1958 H 0.31299 0.48396 0.84597 0.0
H1959 H 0.32377 0.4994 0.81566 0.0
H1960 H 0.3586 0.46194 0.88141 0.0
H1961 H 0.28217 0.42854 0.85008 0.0
H1962 H 0.30167 0.43681 0.83402 0.0
H1963 H 0.28654 0.45508 0.84606 0.0
C1964 C 0.35853 0.46375 0.81886 0.0
C1965 C 0.34845 0.47997 0.81115 0.0
C1966 C 0.35227 0.45489 0.83628 0.0
C1967 C 0.3357 0.46193 0.84616 0.0
C1968 C 0.32555 0.47799 0.83839 0.0
H1969 H 0.27246 0.44649 0.95331 0.0
H1970 H 0.28692 0.45685 0.92233 0.0
C1971 C 0.33181 0.48687 0.82107 0.0
C1972 C 0.32941 0.45321 0.8651 0.0
H1973 H 0.28823 0.43165 0.88639 0.0
C1974 C 0.34331 0.45506 0.88246 0.0
C1975 C 0.30945 0.44422 0.86644 0.0
C1976 C 0.29415 0.44084 0.8481 0.0
C1977 C 0.33749 0.449 0.90135 0.0
C1978 C 0.31733 0.44061 0.90281 0.0
C1979 C 0.30364 0.43822 0.88529 0.0
C1980 C 0.30975 0.43497 0.92247 0.0
C1981 C 0.3527 0.45238 0.91975 0.0
C1982 C 0.31791 0.41931 0.93302 0.0
C1983 C 0.30968 0.41335 0.95087 0.0
C1984 C 0.29307 0.42288 0.95841 0.0
C1985 C 0.28525 0.43882 0.94799 0.0
C1986 C 0.29346 0.44474 0.93021 0.0
H1987 H 0.36603 0.46285 0.91704 0.0
H1988 H 0.34544 0.45876 0.93321 0.0
H1989 H 0.35835 0.43755 0.92344 0.0
H1990 H 0.33026 0.41132 0.92716 0.0
H1991 H 0.31597 0.40093 0.95843 0.0
H1992 H 0.26278 0.56007 0.55852 0.0
H1993 H 0.27904 0.54307 0.58634 0.0
H1994 H 0.31232 0.59994 0.60931 0.0
H1995 H 0.29689 0.61676 0.58078 0.0
H1996 H 0.33602 0.5707 0.61277 0.0
H1997 H 0.26324 0.54544 0.64309 0.0
H1998 H 0.26438 0.53537 0.61727 0.0
H1999 H 0.26445 0.56252 0.62306 0.0
C2000 C 0.27365 0.56892 0.56946 0.0
C2001 C 0.27846 0.58978 0.56757 0.0
C2002 C 0.28279 0.55922 0.58549 0.0
C2003 C 0.29645 0.57031 0.60036 0.0
C2004 C 0.30171 0.59105 0.59815 0.0
H2005 H 0.32831 0.53178 0.72071 0.0
H2006 H 0.31262 0.54561 0.69057 0.0
C2007 C 0.2929 0.60067 0.58184 0.0
C2008 C 0.30531 0.56031 0.61814 0.0
H2009 H 0.2929 0.53125 0.65687 0.0
C2010 C 0.32657 0.56216 0.62247 0.0
C2011 C 0.29301 0.54944 0.63108 0.0
C2012 C 0.27001 0.54826 0.62854 0.0
C2013 C 0.33585 0.55342 0.63922 0.0
C2014 C 0.32361 0.54169 0.65156 0.0
C2015 C 0.30235 0.53993 0.64728 0.0
C2016 C 0.33242 0.532 0.66957 0.0
C2017 C 0.3586 0.55753 0.64387 0.0
C2018 C 0.34834 0.51911 0.66782 0.0
C2019 C 0.35761 0.51149 0.68514 0.0
C2020 C 0.35072 0.51608 0.70449 0.0
C2021 C 0.33394 0.52788 0.70602 0.0
C2022 C 0.32498 0.53586 0.68878 0.0
H2023 H 0.3645 0.57153 0.63715 0.0
H2024 H 0.36279 0.5593 0.66055 0.0
H2025 H 0.36635 0.54457 0.63715 0.0
H2026 H 0.35387 0.51523 0.65311 0.0
H2027 H 0.37038 0.50227 0.68344 0.0
H2028 H 0.14395 0.52883 0.32391 0.0
H2029 H 0.16166 0.54218 0.35648 0.0
H2030 H 0.21615 0.55665 0.3265 0.0
H2031 H 0.19859 0.54313 0.29368 0.0
H2032 H 0.22262 0.5384 0.36481 0.0
H2033 H 0.17504 0.60427 0.37023 0.0
H2034 H 0.16076 0.57985 0.36606 0.0
H2035 H 0.17633 0.58867 0.34677 0.0
C2036 C 0.15973 0.53472 0.32418 0.0
C2037 C 0.16978 0.5351 0.30611 0.0
C2038 C 0.16981 0.5424 0.34283 0.0
C2039 C 0.19007 0.55069 0.3438 0.0
C2040 C 0.20045 0.55039 0.326 0.0
H2041 H 0.24635 0.63217 0.44486 0.0
H2042 H 0.235 0.61591 0.41109 0.0
C2043 C 0.19038 0.54269 0.30728 0.0
C2044 C 0.20009 0.56034 0.36333 0.0
H2045 H 0.19633 0.59914 0.39967 0.0
C2046 C 0.21699 0.55174 0.37243 0.0
C2047 C 0.19284 0.5779 0.37304 0.0
C2048 C 0.17536 0.58837 0.36347 0.0
C2049 C 0.22653 0.55999 0.39131 0.0
C2050 C 0.21877 0.5771 0.40137 0.0
C2051 C 0.20216 0.58593 0.392 0.0
C2052 C 0.22749 0.5862 0.42165 0.0
C2053 C 0.24492 0.55047 0.40023 0.0
C2054 C 0.22718 0.57484 0.43881 0.0
C2055 C 0.23371 0.58409 0.45821 0.0
C2056 C 0.24049 0.60493 0.46078 0.0
C2057 C 0.24117 0.61612 0.44347 0.0
C2058 C 0.2347 0.60685 0.42413 0.0
H2059 H 0.25215 0.54127 0.38839 0.0
H2060 H 0.25646 0.56231 0.40775 0.0
H2061 H 0.24012 0.54019 0.41187 0.0
H2062 H 0.22128 0.55899 0.43731 0.0
H2063 H 0.23291 0.57505 0.47121 0.0
loop_
_geom_bond_atom_site_label_1
_geom_bond_atom_site_label_2
_geom_bond_distance
_geom_bond_site_symmetry_2
_ccdc_geom_bond_type
O0 Cd1 2.223 . S
O0 C8 1.315 . S
Cd1 O0 2.223 . S
Cd1 O4 2.297 . S
Cd1 O5 2.439 . S
Cd1 O11 2.240 1_455 S
Cd2 O3 2.240 1_655 S
Cd2 O10 2.223 . S
Cd2 O12 2.297 . S
Cd2 O13 2.439 . S
O3 Cd2 2.240 1_455 S
O3 C8 1.279 . S
O4 Cd1 2.297 . S
O4 C6 1.247 . S
O5 Cd1 2.439 . S
O5 C6 1.208 . S
C6 O4 1.247 . S
C6 O5 1.208 . S
C7 O12 1.247 . S
C7 O13 1.208 . S
C8 O0 1.315 . S
C8 O3 1.279 . S
C9 O10 1.315 . S
C9 O11 1.279 . S
O10 Cd2 2.223 . S
O10 C9 1.315 . S
O11 Cd1 2.240 1_655 S
O11 C9 1.279 . S
O12 Cd2 2.297 . S
O12 C7 1.247 . S
O13 Cd2 2.439 . S
O13 C7 1.208 . S
O14 Cd15 2.223 . S
O14 C22 1.315 . S
Cd15 O14 2.223 . S
Cd15 O18 2.297 . S
Cd15 O19 2.439 1_455 S
Cd15 O25 2.240 . S
Cd16 O17 2.240 . S
Cd16 O24 2.223 . S
Cd16 O26 2.297 1_455 S
Cd16 O27 2.439 1_455 S
O17 Cd16 2.240 . S
O17 C22 1.279 . S
O18 Cd15 2.297 . S
O18 C20 1.247 1_455 S
O19 Cd15 2.439 1_655 S
O19 C20 1.208 . S
C20 O18 1.247 1_655 S
C20 O19 1.208 . S
C21 O26 1.247 . S
C21 O27 1.208 . S
C22 O14 1.315 . S
C22 O17 1.279 . S
C23 O24 1.315 . S
C23 O25 1.279 . S
O24 Cd16 2.223 . S
O24 C23 1.315 . S
O25 Cd15 2.240 . S
O25 C23 1.279 . S
O26 Cd16 2.297 1_655 S
O26 C21 1.247 . S
O27 Cd16 2.439 1_655 S
O27 C21 1.208 . S
O28 Cd29 2.223 . S
O28 C36 1.315 . S
Cd29 O28 2.223 . S
Cd29 O32 2.297 . S
Cd29 O33 2.439 . S
Cd29 O39 2.240 . S
Cd30 O31 2.240 . S
Cd30 O38 2.223 . S
Cd30 O40 2.297 . S
Cd30 O41 2.439 . S
O31 Cd30 2.240 . S
O31 C36 1.279 . S
O32 Cd29 2.297 . S
O32 C34 1.247 . S
O33 Cd29 2.439 . S
O33 C34 1.208 . S
C34 O32 1.247 . S
C34 O33 1.208 . S
C35 O40 1.247 . S
C35 O41 1.208 . S
C36 O28 1.315 . S
C36 O31 1.279 . S
C37 O38 1.315 . S
C37 O39 1.279 . S
O38 Cd30 2.223 . S
O38 C37 1.315 . S
O39 Cd29 2.240 . S
O39 C37 1.279 . S
O40 Cd30 2.297 . S
O40 C35 1.247 . S
O41 Cd30 2.439 . S
O41 C35 1.208 . S
O42 Cd43 2.223 . S
O42 C50 1.315 . S
Cd43 O42 2.223 . S
Cd43 O46 2.297 . S
Cd43 O47 2.439 . S
Cd43 O53 2.240 . S
Cd44 O45 2.240 . S
Cd44 O52 2.223 . S
Cd44 O54 2.297 . S
Cd44 O55 2.439 . S
O45 Cd44 2.240 . S
O45 C50 1.279 . S
O46 Cd43 2.297 . S
O46 C48 1.247 . S
O47 Cd43 2.439 . S
O47 C48 1.208 . S
C48 O46 1.247 . S
C48 O47 1.208 . S
C49 O54 1.247 . S
C49 O55 1.208 . S
C50 O42 1.315 . S
C50 O45 1.279 . S
C51 O52 1.315 . S
C51 O53 1.279 . S
O52 Cd44 2.223 . S
O52 C51 1.315 . S
O53 Cd43 2.240 . S
O53 C51 1.279 . S
O54 Cd44 2.297 . S
O54 C49 1.247 . S
O55 Cd44 2.439 . S
O55 C49 1.208 . S
O56 Cd57 2.223 . S
O56 C64 1.315 . S
Cd57 O56 2.223 . S
Cd57 O60 2.297 . S
Cd57 O61 2.439 . S
Cd57 O67 2.240 1_455 S
Cd58 O59 2.240 . S
Cd58 O66 2.223 1_455 S
Cd58 O68 2.297 1_455 S
Cd58 O69 2.439 . S
O59 Cd58 2.240 . S
O59 C64 1.279 . S
O60 Cd57 2.297 . S
O60 C62 1.247 . S
O61 Cd57 2.439 . S
O61 C62 1.208 . S
C62 O60 1.247 . S
C62 O61 1.208 . S
C63 O68 1.247 . S
C63 O69 1.208 1_655 S
C64 O56 1.315 . S
C64 O59 1.279 . S
C65 O66 1.315 . S
C65 O67 1.279 . S
O66 Cd58 2.223 1_655 S
O66 C65 1.315 . S
O67 Cd57 2.240 1_655 S
O67 C65 1.279 . S
O68 Cd58 2.297 1_655 S
O68 C63 1.247 . S
O69 Cd58 2.439 . S
O69 C63 1.208 1_455 S
O70 Cd71 2.223 . S
O70 C78 1.315 . S
Cd71 O70 2.223 . S
Cd71 O74 2.297 . S
Cd71 O75 2.439 . S
Cd71 O81 2.240 . S
Cd72 O73 2.240 . S
Cd72 O80 2.223 . S
Cd72 O82 2.297 . S
Cd72 O83 2.439 . S
O73 Cd72 2.240 . S
O73 C78 1.279 . S
O74 Cd71 2.297 . S
O74 C76 1.247 . S
O75 Cd71 2.439 . S
O75 C76 1.208 . S
C76 O74 1.247 . S
C76 O75 1.208 . S
C77 O82 1.247 . S
C77 O83 1.208 . S
C78 O70 1.315 . S
C78 O73 1.279 . S
C79 O80 1.315 . S
C79 O81 1.279 . S
O80 Cd72 2.223 . S
O80 C79 1.315 . S
O81 Cd71 2.240 . S
O81 C79 1.279 . S
O82 Cd72 2.297 . S
O82 C77 1.247 . S
O83 Cd72 2.439 . S
O83 C77 1.208 . S
O84 Cd85 2.223 . S
O84 C92 1.315 . S
Cd85 O84 2.223 . S
Cd85 O88 2.297 . S
Cd85 O89 2.439 . S
Cd85 O95 2.240 . S
Cd86 O87 2.240 . S
Cd86 O94 2.223 . S
Cd86 O96 2.297 . S
Cd86 O97 2.439 . S
O87 Cd86 2.240 . S
O87 C92 1.279 . S
O88 Cd85 2.297 . S
O88 C90 1.247 . S
O89 Cd85 2.439 . S
O89 C90 1.208 . S
C90 O88 1.247 . S
C90 O89 1.208 . S
C91 O96 1.247 . S
C91 O97 1.208 . S
C92 O84 1.315 . S
C92 O87 1.279 . S
C93 O94 1.315 . S
C93 O95 1.279 . S
O94 Cd86 2.223 . S
O94 C93 1.315 . S
O95 Cd85 2.240 . S
O95 C93 1.279 . S
O96 Cd86 2.297 . S
O96 C91 1.247 . S
O97 Cd86 2.439 . S
O97 C91 1.208 . S
O98 Cd99 2.223 . S
O98 C106 1.315 . S
Cd99 O98 2.223 . S
Cd99 O102 2.297 1_455 S
Cd99 O103 2.439 1_455 S
Cd99 O109 2.240 . S
Cd100 O101 2.240 . S
Cd100 O108 2.223 . S
Cd100 O110 2.297 . S
Cd100 O111 2.439 1_455 S
O101 Cd100 2.240 . S
O101 C106 1.279 . S
O102 Cd99 2.297 1_655 S
O102 C104 1.247 . S
O103 Cd99 2.439 1_655 S
O103 C104 1.208 . S
C104 O102 1.247 . S
C104 O103 1.208 . S
C105 O110 1.247 1_655 S
C105 O111 1.208 . S
C106 O98 1.315 . S
C106 O101 1.279 . S
C107 O108 1.315 . S
C107 O109 1.279 . S
O108 Cd100 2.223 . S
O108 C107 1.315 . S
O109 Cd99 2.240 . S
O109 C107 1.279 . S
O110 Cd100 2.297 . S
O110 C105 1.247 1_455 S
O111 Cd100 2.439 1_655 S
O111 C105 1.208 . S
O112 Cd113 2.223 . S
O112 C120 1.315 . S
Cd113 O112 2.223 . S
Cd113 O116 2.297 . S
Cd113 O117 2.439 . S
Cd113 O123 2.240 1_545 S
Cd114 O115 2.240 1_565 S
Cd114 O122 2.223 . S
Cd114 O124 2.297 . S
Cd114 O125 2.439 . S
O115 Cd114 2.240 1_545 S
O115 C120 1.279 . S
O116 Cd113 2.297 . S
O116 C118 1.247 . S
O117 Cd113 2.439 . S
O117 C118 1.208 . S
C118 O116 1.247 . S
C118 O117 1.208 . S
C119 O124 1.247 . S
C119 O125 1.208 . S
C120 O112 1.315 . S
C120 O115 1.279 . S
C121 O122 1.315 . S
C121 O123 1.279 . S
O122 Cd114 2.223 . S
O122 C121 1.315 . S
O123 Cd113 2.240 1_565 S
O123 C121 1.279 . S
O124 Cd114 2.297 . S
O124 C119 1.247 . S
O125 Cd114 2.439 . S
O125 C119 1.208 . S
O126 Cd127 2.223 . S
O126 C134 1.315 . S
Cd127 O126 2.223 . S
Cd127 O130 2.297 . S
Cd127 O131 2.439 . S
Cd127 O137 2.240 . S
Cd128 O129 2.240 . S
Cd128 O136 2.223 . S
Cd128 O138 2.297 . S
Cd128 O139 2.439 . S
O129 Cd128 2.240 . S
O129 C134 1.279 . S
O130 Cd127 2.297 . S
O130 C132 1.247 . S
O131 Cd127 2.439 . S
O131 C132 1.208 . S
C132 O130 1.247 . S
C132 O131 1.208 . S
C133 O138 1.247 . S
C133 O139 1.208 . S
C134 O126 1.315 . S
C134 O129 1.279 . S
C135 O136 1.315 . S
C135 O137 1.279 . S
O136 Cd128 2.223 . S
O136 C135 1.315 . S
O137 Cd127 2.240 . S
O137 C135 1.279 . S
O138 Cd128 2.297 . S
O138 C133 1.247 . S
O139 Cd128 2.439 . S
O139 C133 1.208 . S
O140 Cd141 2.223 . S
O140 C148 1.315 . S
Cd141 O140 2.223 . S
Cd141 O144 2.297 . S
Cd141 O145 2.439 . S
Cd141 O151 2.240 1_545 S
Cd142 O143 2.240 . S
Cd142 O150 2.223 1_545 S
Cd142 O152 2.297 1_545 S
Cd142 O153 2.439 . S
O143 Cd142 2.240 . S
O143 C148 1.279 . S
O144 Cd141 2.297 . S
O144 C146 1.247 . S
O145 Cd141 2.439 . S
O145 C146 1.208 . S
C146 O144 1.247 . S
C146 O145 1.208 . S
C147 O152 1.247 . S
C147 O153 1.208 1_565 S
C148 O140 1.315 . S
C148 O143 1.279 . S
C149 O150 1.315 . S
C149 O151 1.279 . S
O150 Cd142 2.223 1_565 S
O150 C149 1.315 . S
O151 Cd141 2.240 1_565 S
O151 C149 1.279 . S
O152 Cd142 2.297 1_565 S
O152 C147 1.247 . S
O153 Cd142 2.439 . S
O153 C147 1.208 1_545 S
O154 Cd155 2.223 . S
O154 C162 1.315 . S
Cd155 O154 2.223 . S
Cd155 O158 2.297 1_554 S
Cd155 O159 2.439 1_554 S
Cd155 O165 2.240 . S
Cd156 O157 2.240 . S
Cd156 O164 2.223 . S
Cd156 O166 2.297 . S
Cd156 O167 2.439 1_554 S
O157 Cd156 2.240 . S
O157 C162 1.279 . S
O158 Cd155 2.297 1_556 S
O158 C160 1.247 . S
O159 Cd155 2.439 1_556 S
O159 C160 1.208 . S
C160 O158 1.247 . S
C160 O159 1.208 . S
C161 O166 1.247 1_556 S
C161 O167 1.208 . S
C162 O154 1.315 . S
C162 O157 1.279 . S
C163 O164 1.315 . S
C163 O165 1.279 . S
O164 Cd156 2.223 . S
O164 C163 1.315 . S
O165 Cd155 2.240 . S
O165 C163 1.279 . S
O166 Cd156 2.297 . S
O166 C161 1.247 1_554 S
O167 Cd156 2.439 1_556 S
O167 C161 1.208 . S
O168 Cd169 2.223 . S
O168 C176 1.315 . S
Cd169 O168 2.223 . S
Cd169 O172 2.297 . S
Cd169 O173 2.439 . S
Cd169 O179 2.240 1_554 S
Cd170 O171 2.240 1_556 S
Cd170 O178 2.223 . S
Cd170 O180 2.297 . S
Cd170 O181 2.439 . S
O171 Cd170 2.240 1_554 S
O171 C176 1.279 . S
O172 Cd169 2.297 . S
O172 C174 1.247 . S
O173 Cd169 2.439 . S
O173 C174 1.208 . S
C174 O172 1.247 . S
C174 O173 1.208 . S
C175 O180 1.247 . S
C175 O181 1.208 . S
C176 O168 1.315 . S
C176 O171 1.279 . S
C177 O178 1.315 . S
C177 O179 1.279 . S
O178 Cd170 2.223 . S
O178 C177 1.315 . S
O179 Cd169 2.240 1_556 S
O179 C177 1.279 . S
O180 Cd170 2.297 . S
O180 C175 1.247 . S
O181 Cd170 2.439 . S
O181 C175 1.208 . S
O182 Cd183 2.223 . S
O182 C190 1.315 . S
Cd183 O182 2.223 . S
Cd183 O186 2.297 . S
Cd183 O187 2.439 . S
Cd183 O193 2.240 1_554 S
Cd184 O185 2.240 . S
Cd184 O192 2.223 1_554 S
Cd184 O194 2.297 1_554 S
Cd184 O195 2.439 . S
O185 Cd184 2.240 . S
O185 C190 1.279 . S
O186 Cd183 2.297 . S
O186 C188 1.247 . S
O187 Cd183 2.439 . S
O187 C188 1.208 . S
C188 O186 1.247 . S
C188 O187 1.208 . S
C189 O194 1.247 . S
C189 O195 1.208 1_556 S
C190 O182 1.315 . S
C190 O185 1.279 . S
C191 O192 1.315 . S
C191 O193 1.279 . S
O192 Cd184 2.223 1_556 S
O192 C191 1.315 . S
O193 Cd183 2.240 1_556 S
O193 C191 1.279 . S
O194 Cd184 2.297 1_556 S
O194 C189 1.247 . S
O195 Cd184 2.439 . S
O195 C189 1.208 1_554 S
O196 Cd197 2.223 . S
O196 C204 1.315 . S
Cd197 O196 2.223 . S
Cd197 O200 2.297 . S
Cd197 O201 2.439 . S
Cd197 O207 2.240 . S
Cd198 O199 2.240 . S
Cd198 O206 2.223 . S
Cd198 O208 2.297 . S
Cd198 O209 2.439 . S
O199 Cd198 2.240 . S
O199 C204 1.279 . S
O200 Cd197 2.297 . S
O200 C202 1.247 . S
O201 Cd197 2.439 . S
O201 C202 1.208 . S
C202 O200 1.247 . S
C202 O201 1.208 . S
C203 O208 1.247 . S
C203 O209 1.208 . S
C204 O196 1.315 . S
C204 O199 1.279 . S
C205 O206 1.315 . S
C205 O207 1.279 . S
O206 Cd198 2.223 . S
O206 C205 1.315 . S
O207 Cd197 2.240 . S
O207 C205 1.279 . S
O208 Cd198 2.297 . S
O208 C203 1.247 . S
O209 Cd198 2.439 . S
O209 C203 1.208 . S
O210 Cd211 2.223 . S
O210 C218 1.315 . S
Cd211 O210 2.223 . S
Cd211 O214 2.297 . S
Cd211 O215 2.439 . S
Cd211 O221 2.240 . S
Cd212 O213 2.240 . S
Cd212 O220 2.223 . S
Cd212 O222 2.297 . S
Cd212 O223 2.439 . S
O213 Cd212 2.240 . S
O213 C218 1.279 . S
O214 Cd211 2.297 . S
O214 C216 1.247 . S
O215 Cd211 2.439 . S
O215 C216 1.208 . S
C216 O214 1.247 . S
C216 O215 1.208 . S
C217 O222 1.247 . S
C217 O223 1.208 . S
C218 O210 1.315 . S
C218 O213 1.279 . S
C219 O220 1.315 . S
C219 O221 1.279 . S
O220 Cd212 2.223 . S
O220 C219 1.315 . S
O221 Cd211 2.240 . S
O221 C219 1.279 . S
O222 Cd212 2.297 . S
O222 C217 1.247 . S
O223 Cd212 2.439 . S
O223 C217 1.208 . S
O224 Cd225 2.223 . S
O224 C232 1.315 . S
Cd225 O224 2.223 . S
Cd225 O228 2.297 1_545 S
Cd225 O229 2.439 1_545 S
Cd225 O235 2.240 . S
Cd226 O227 2.240 . S
Cd226 O234 2.223 . S
Cd226 O236 2.297 . S
Cd226 O237 2.439 1_545 S
O227 Cd226 2.240 . S
O227 C232 1.279 . S
O228 Cd225 2.297 1_565 S
O228 C230 1.247 . S
O229 Cd225 2.439 1_565 S
O229 C230 1.208 . S
C230 O228 1.247 . S
C230 O229 1.208 . S
C231 O236 1.247 1_565 S
C231 O237 1.208 . S
C232 O224 1.315 . S
C232 O227 1.279 . S
C233 O234 1.315 . S
C233 O235 1.279 . S
O234 Cd226 2.223 . S
O234 C233 1.315 . S
O235 Cd225 2.240 . S
O235 C233 1.279 . S
O236 Cd226 2.297 . S
O236 C231 1.247 1_545 S
O237 Cd226 2.439 1_565 S
O237 C231 1.208 . S
O238 Cd239 2.223 . S
O238 C246 1.315 . S
Cd239 O238 2.223 . S
Cd239 O242 2.297 . S
Cd239 O243 2.439 . S
Cd239 O249 2.240 . S
Cd240 O241 2.240 . S
Cd240 O248 2.223 . S
Cd240 O250 2.297 . S
Cd240 O251 2.439 . S
O241 Cd240 2.240 . S
O241 C246 1.279 . S
O242 Cd239 2.297 . S
O242 C244 1.247 . S
O243 Cd239 2.439 . S
O243 C244 1.208 . S
C244 O242 1.247 . S
C244 O243 1.208 . S
C245 O250 1.247 . S
C245 O251 1.208 . S
C246 O238 1.315 . S
C246 O241 1.279 . S
C247 O248 1.315 . S
C247 O249 1.279 . S
O248 Cd240 2.223 . S
O248 C247 1.315 . S
O249 Cd239 2.240 . S
O249 C247 1.279 . S
O250 Cd240 2.297 . S
O250 C245 1.247 . S
O251 Cd240 2.439 . S
O251 C245 1.208 . S
O252 Cd253 2.223 . S
O252 C260 1.315 . S
Cd253 O252 2.223 . S
Cd253 O256 2.297 . S
Cd253 O257 2.439 . S
Cd253 O263 2.240 . S
Cd254 O255 2.240 . S
Cd254 O262 2.223 . S
Cd254 O264 2.297 . S
Cd254 O265 2.439 . S
O255 Cd254 2.240 . S
O255 C260 1.279 . S
O256 Cd253 2.297 . S
O256 C258 1.247 . S
O257 Cd253 2.439 . S
O257 C258 1.208 . S
C258 O256 1.247 . S
C258 O257 1.208 . S
C259 O264 1.247 . S
C259 O265 1.208 . S
C260 O252 1.315 . S
C260 O255 1.279 . S
C261 O262 1.315 . S
C261 O263 1.279 . S
O262 Cd254 2.223 . S
O262 C261 1.315 . S
O263 Cd253 2.240 . S
O263 C261 1.279 . S
O264 Cd254 2.297 . S
O264 C259 1.247 . S
O265 Cd254 2.439 . S
O265 C259 1.208 . S
O266 Cd267 2.223 . S
O266 C274 1.315 . S
Cd267 O266 2.223 . S
Cd267 O270 2.297 . S
Cd267 O271 2.439 1_545 S
Cd267 O277 2.240 . S
Cd268 O269 2.240 . S
Cd268 O276 2.223 . S
Cd268 O278 2.297 1_545 S
Cd268 O279 2.439 1_545 S
O269 Cd268 2.240 . S
O269 C274 1.279 . S
O270 Cd267 2.297 . S
O270 C272 1.247 1_545 S
O271 Cd267 2.439 1_565 S
O271 C272 1.208 . S
C272 O270 1.247 1_565 S
C272 O271 1.208 . S
C273 O278 1.247 . S
C273 O279 1.208 . S
C274 O266 1.315 . S
C274 O269 1.279 . S
C275 O276 1.315 . S
C275 O277 1.279 . S
O276 Cd268 2.223 . S
O276 C275 1.315 . S
O277 Cd267 2.240 . S
O277 C275 1.279 . S
O278 Cd268 2.297 1_565 S
O278 C273 1.247 . S
O279 Cd268 2.439 1_565 S
O279 C273 1.208 . S
O280 Cd281 2.223 . S
O280 C288 1.315 . S
Cd281 O280 2.223 . S
Cd281 O284 2.297 . S
Cd281 O285 2.439 1_554 S
Cd281 O291 2.240 . S
Cd282 O283 2.240 . S
Cd282 O290 2.223 . S
Cd282 O292 2.297 1_554 S
Cd282 O293 2.439 1_554 S
O283 Cd282 2.240 . S
O283 C288 1.279 . S
O284 Cd281 2.297 . S
O284 C286 1.247 1_554 S
O285 Cd281 2.439 1_556 S
O285 C286 1.208 . S
C286 O284 1.247 1_556 S
C286 O285 1.208 . S
C287 O292 1.247 . S
C287 O293 1.208 . S
C288 O280 1.315 . S
C288 O283 1.279 . S
C289 O290 1.315 . S
C289 O291 1.279 . S
O290 Cd282 2.223 . S
O290 C289 1.315 . S
O291 Cd281 2.240 . S
O291 C289 1.279 . S
O292 Cd282 2.297 1_556 S
O292 C287 1.247 . S
O293 Cd282 2.439 1_556 S
O293 C287 1.208 . S
O294 Cd295 2.223 . S
O294 C302 1.315 . S
Cd295 O294 2.223 . S
Cd295 O298 2.297 . S
Cd295 O299 2.439 . S
Cd295 O305 2.240 . S
Cd296 O297 2.240 . S
Cd296 O304 2.223 . S
Cd296 O306 2.297 . S
Cd296 O307 2.439 . S
O297 Cd296 2.240 . S
O297 C302 1.279 . S
O298 Cd295 2.297 . S
O298 C300 1.247 . S
O299 Cd295 2.439 . S
O299 C300 1.208 . S
C300 O298 1.247 . S
C300 O299 1.208 . S
C301 O306 1.247 . S
C301 O307 1.208 . S
C302 O294 1.315 . S
C302 O297 1.279 . S
C303 O304 1.315 . S
C303 O305 1.279 . S
O304 Cd296 2.223 . S
O304 C303 1.315 . S
O305 Cd295 2.240 . S
O305 C303 1.279 . S
O306 Cd296 2.297 . S
O306 C301 1.247 . S
O307 Cd296 2.439 . S
O307 C301 1.208 . S
O308 Cd309 2.223 . S
O308 C316 1.315 . S
Cd309 O308 2.223 . S
Cd309 O312 2.297 . S
Cd309 O313 2.439 . S
Cd309 O319 2.240 . S
Cd310 O311 2.240 . S
Cd310 O318 2.223 . S
Cd310 O320 2.297 . S
Cd310 O321 2.439 . S
O311 Cd310 2.240 . S
O311 C316 1.279 . S
O312 Cd309 2.297 . S
O312 C314 1.247 . S
O313 Cd309 2.439 . S
O313 C314 1.208 . S
C314 O312 1.247 . S
C314 O313 1.208 . S
C315 O320 1.247 . S
C315 O321 1.208 . S
C316 O308 1.315 . S
C316 O311 1.279 . S
C317 O318 1.315 . S
C317 O319 1.279 . S
O318 Cd310 2.223 . S
O318 C317 1.315 . S
O319 Cd309 2.240 . S
O319 C317 1.279 . S
O320 Cd310 2.297 . S
O320 C315 1.247 . S
O321 Cd310 2.439 . S
O321 C315 1.208 . S
O322 Cd323 2.223 . S
O322 C330 1.315 . S
Cd323 O322 2.223 . S
Cd323 O326 2.297 . S
Cd323 O327 2.439 . S
Cd323 O333 2.240 . S
Cd324 O325 2.240 . S
Cd324 O332 2.223 . S
Cd324 O334 2.297 . S
Cd324 O335 2.439 . S
O325 Cd324 2.240 . S
O325 C330 1.279 . S
O326 Cd323 2.297 . S
O326 C328 1.247 . S
O327 Cd323 2.439 . S
O327 C328 1.208 . S
C328 O326 1.247 . S
C328 O327 1.208 . S
C329 O334 1.247 . S
C329 O335 1.208 . S
C330 O322 1.315 . S
C330 O325 1.279 . S
C331 O332 1.315 . S
C331 O333 1.279 . S
O332 Cd324 2.223 . S
O332 C331 1.315 . S
O333 Cd323 2.240 . S
O333 C331 1.279 . S
O334 Cd324 2.297 . S
O334 C329 1.247 . S
O335 Cd324 2.439 . S
O335 C329 1.208 . S
H336 C344 0.929 . S
H337 C346 0.930 . S
H338 C348 0.930 . S
H339 C351 0.929 . S
H340 C354 0.930 . S
H341 C356 0.960 . S
H342 C356 0.960 . S
H343 C356 0.960 . S
C344 H336 0.929 . S
C344 C345 1.377 . S
C344 C346 1.384 . S
C345 C344 1.377 . S
C345 C351 1.390 . S
C346 H337 0.930 . S
C346 C344 1.384 . S
C346 C347 1.372 . S
C347 C346 1.372 . S
C347 C348 1.400 . S
C347 C352 1.490 . S
C348 H338 0.930 . S
C348 C347 1.400 . S
C348 C351 1.386 . S
H349 C365 0.930 . S
H350 C366 0.931 . S
C351 H339 0.929 . S
C351 C345 1.390 . S
C351 C348 1.386 . S
C352 C347 1.490 . S
C352 C354 1.395 . S
C352 C355 1.403 . S
H353 C359 0.930 . S
C354 H340 0.930 . S
C354 C352 1.395 . S
C354 C357 1.403 . S
C355 C352 1.403 . S
C355 C356 1.524 . S
C355 C359 1.400 . S
C356 H341 0.960 . S
C356 H342 0.960 . S
C356 H343 0.960 . S
C356 C355 1.524 . S
C357 C354 1.403 . S
C357 C358 1.392 . S
C357 C361 1.495 . S
C358 C357 1.392 . S
C358 C359 1.385 . S
C358 C360 1.478 . S
C359 H353 0.930 . S
C359 C355 1.400 . S
C359 C358 1.385 . S
C360 C358 1.478 . S
C360 C362 1.381 . S
C360 C366 1.383 . S
C361 C357 1.495 . S
C361 H367 0.959 . S
C361 H368 0.961 . S
C361 H369 0.960 . S
C362 C360 1.381 . S
C362 C363 1.394 . S
C362 H370 0.930 . S
C363 C362 1.394 . S
C363 C364 1.383 . S
C363 H371 0.929 . S
C364 C363 1.383 . S
C364 C365 1.377 . S
C365 H349 0.930 . S
C365 C364 1.377 . S
C365 C366 1.379 . S
C366 H350 0.931 . S
C366 C360 1.383 . S
C366 C365 1.379 . S
H367 C361 0.959 . S
H368 C361 0.961 . S
H369 C361 0.960 . S
H370 C362 0.930 . S
H371 C363 0.929 . S
H372 C380 0.929 . S
H373 C382 0.930 . S
H374 C384 0.930 . S
H375 C387 0.929 . S
H376 C390 0.930 . S
H377 C392 0.960 . S
H378 C392 0.960 . S
H379 C392 0.960 . S
C380 H372 0.929 . S
C380 C381 1.377 . S
C380 C382 1.384 . S
C381 C380 1.377 . S
C381 C387 1.390 . S
C382 H373 0.930 . S
C382 C380 1.384 . S
C382 C383 1.372 . S
C383 C382 1.372 . S
C383 C384 1.400 . S
C383 C388 1.490 . S
C384 H374 0.930 . S
C384 C383 1.400 . S
C384 C387 1.386 . S
H385 C401 0.930 . S
H386 C402 0.931 . S
C387 H375 0.929 . S
C387 C381 1.390 . S
C387 C384 1.386 . S
C388 C383 1.490 . S
C388 C390 1.395 . S
C388 C391 1.403 . S
H389 C395 0.930 . S
C390 H376 0.930 . S
C390 C388 1.395 . S
C390 C393 1.403 . S
C391 C388 1.403 . S
C391 C392 1.524 . S
C391 C395 1.400 . S
C392 H377 0.960 . S
C392 H378 0.960 . S
C392 H379 0.960 . S
C392 C391 1.524 . S
C393 C390 1.403 . S
C393 C394 1.392 . S
C393 C397 1.495 . S
C394 C393 1.392 . S
C394 C395 1.385 . S
C394 C396 1.478 . S
C395 H389 0.930 . S
C395 C391 1.400 . S
C395 C394 1.385 . S
C396 C394 1.478 . S
C396 C398 1.381 . S
C396 C402 1.383 . S
C397 C393 1.495 . S
C397 H403 0.959 . S
C397 H404 0.961 . S
C397 H405 0.960 . S
C398 C396 1.381 . S
C398 C399 1.394 . S
C398 H406 0.930 . S
C399 C398 1.394 . S
C399 C400 1.383 . S
C399 H407 0.929 . S
C400 C399 1.383 . S
C400 C401 1.377 . S
C401 H385 0.930 . S
C401 C400 1.377 . S
C401 C402 1.379 . S
C402 H386 0.931 . S
C402 C396 1.383 . S
C402 C401 1.379 . S
H403 C397 0.959 . S
H404 C397 0.961 . S
H405 C397 0.960 . S
H406 C398 0.930 . S
H407 C399 0.929 . S
H408 C416 0.929 . S
H409 C418 0.930 . S
H410 C420 0.930 . S
H411 C423 0.929 . S
H412 C426 0.930 . S
H413 C428 0.960 . S
H414 C428 0.960 . S
H415 C428 0.960 . S
C416 H408 0.929 . S
C416 C417 1.377 . S
C416 C418 1.384 . S
C417 C416 1.377 . S
C417 C423 1.390 . S
C418 H409 0.930 . S
C418 C416 1.384 . S
C418 C419 1.372 . S
C419 C418 1.372 . S
C419 C420 1.400 . S
C419 C424 1.490 . S
C420 H410 0.930 . S
C420 C419 1.400 . S
C420 C423 1.386 . S
H421 C437 0.930 . S
H422 C438 0.931 . S
C423 H411 0.929 . S
C423 C417 1.390 . S
C423 C420 1.386 . S
C424 C419 1.490 . S
C424 C426 1.395 . S
C424 C427 1.403 . S
H425 C431 0.930 . S
C426 H412 0.930 . S
C426 C424 1.395 . S
C426 C429 1.403 . S
C427 C424 1.403 . S
C427 C428 1.524 . S
C427 C431 1.400 . S
C428 H413 0.960 . S
C428 H414 0.960 . S
C428 H415 0.960 . S
C428 C427 1.524 . S
C429 C426 1.403 . S
C429 C430 1.392 . S
C429 C433 1.495 . S
C430 C429 1.392 . S
C430 C431 1.385 . S
C430 C432 1.478 . S
C431 H425 0.930 . S
C431 C427 1.400 . S
C431 C430 1.385 . S
C432 C430 1.478 . S
C432 C434 1.381 . S
C432 C438 1.383 . S
C433 C429 1.495 . S
C433 H439 0.959 . S
C433 H440 0.961 . S
C433 H441 0.960 . S
C434 C432 1.381 . S
C434 C435 1.394 . S
C434 H442 0.930 . S
C435 C434 1.394 . S
C435 C436 1.383 . S
C435 H443 0.929 . S
C436 C435 1.383 . S
C436 C437 1.377 . S
C437 H421 0.930 . S
C437 C436 1.377 . S
C437 C438 1.379 . S
C438 H422 0.931 . S
C438 C432 1.383 . S
C438 C437 1.379 . S
H439 C433 0.959 . S
H440 C433 0.961 . S
H441 C433 0.960 . S
H442 C434 0.930 . S
H443 C435 0.929 . S
H444 C452 0.929 . S
H445 C454 0.930 . S
H446 C456 0.930 . S
H447 C459 0.929 . S
H448 C462 0.930 . S
H449 C464 0.960 . S
H450 C464 0.960 . S
H451 C464 0.960 . S
C452 H444 0.929 . S
C452 C453 1.377 . S
C452 C454 1.384 . S
C453 C452 1.377 . S
C453 C459 1.390 . S
C454 H445 0.930 . S
C454 C452 1.384 . S
C454 C455 1.372 . S
C455 C454 1.372 . S
C455 C456 1.400 . S
C455 C460 1.490 . S
C456 H446 0.930 . S
C456 C455 1.400 . S
C456 C459 1.386 . S
H457 C473 0.930 . S
H458 C474 0.931 . S
C459 H447 0.929 . S
C459 C453 1.390 . S
C459 C456 1.386 . S
C460 C455 1.490 . S
C460 C462 1.395 . S
C460 C463 1.403 . S
H461 C467 0.930 . S
C462 H448 0.930 . S
C462 C460 1.395 . S
C462 C465 1.403 . S
C463 C460 1.403 . S
C463 C464 1.524 . S
C463 C467 1.400 . S
C464 H449 0.960 . S
C464 H450 0.960 . S
C464 H451 0.960 . S
C464 C463 1.524 . S
C465 C462 1.403 . S
C465 C466 1.392 . S
C465 C469 1.495 . S
C466 C465 1.392 . S
C466 C467 1.385 . S
C466 C468 1.478 . S
C467 H461 0.930 . S
C467 C463 1.400 . S
C467 C466 1.385 . S
C468 C466 1.478 . S
C468 C470 1.381 . S
C468 C474 1.383 . S
C469 C465 1.495 . S
C469 H475 0.959 . S
C469 H476 0.961 . S
C469 H477 0.960 . S
C470 C468 1.381 . S
C470 C471 1.394 . S
C470 H478 0.930 . S
C471 C470 1.394 . S
C471 C472 1.383 . S
C471 H479 0.929 . S
C472 C471 1.383 . S
C472 C473 1.377 . S
C473 H457 0.930 . S
C473 C472 1.377 . S
C473 C474 1.379 . S
C474 H458 0.931 . S
C474 C468 1.383 . S
C474 C473 1.379 . S
H475 C469 0.959 . S
H476 C469 0.961 . S
H477 C469 0.960 . S
H478 C470 0.930 . S
H479 C471 0.929 . S
H480 C488 0.929 . S
H481 C490 0.930 . S
H482 C492 0.930 . S
H483 C495 0.929 . S
H484 C498 0.930 . S
H485 C500 0.960 . S
H486 C500 0.960 . S
H487 C500 0.960 . S
C488 H480 0.929 . S
C488 C489 1.377 . S
C488 C490 1.384 . S
C489 C488 1.377 . S
C489 C495 1.390 . S
C490 H481 0.930 . S
C490 C488 1.384 . S
C490 C491 1.372 . S
C491 C490 1.372 . S
C491 C492 1.400 . S
C491 C496 1.490 . S
C492 H482 0.930 . S
C492 C491 1.400 . S
C492 C495 1.386 . S
H493 C509 0.930 . S
H494 C510 0.931 . S
C495 H483 0.929 . S
C495 C489 1.390 . S
C495 C492 1.386 . S
C496 C491 1.490 . S
C496 C498 1.395 . S
C496 C499 1.403 . S
H497 C503 0.930 . S
C498 H484 0.930 . S
C498 C496 1.395 . S
C498 C501 1.403 . S
C499 C496 1.403 . S
C499 C500 1.524 . S
C499 C503 1.400 . S
C500 H485 0.960 . S
C500 H486 0.960 . S
C500 H487 0.960 . S
C500 C499 1.524 . S
C501 C498 1.403 . S
C501 C502 1.392 . S
C501 C505 1.495 . S
C502 C501 1.392 . S
C502 C503 1.385 . S
C502 C504 1.478 . S
C503 H497 0.930 . S
C503 C499 1.400 . S
C503 C502 1.385 . S
C504 C502 1.478 . S
C504 C506 1.381 . S
C504 C510 1.383 . S
C505 C501 1.495 . S
C505 H511 0.959 . S
C505 H512 0.961 . S
C505 H513 0.960 . S
C506 C504 1.381 . S
C506 C507 1.394 . S
C506 H514 0.930 . S
C507 C506 1.394 . S
C507 C508 1.383 . S
C507 H515 0.929 . S
C508 C507 1.383 . S
C508 C509 1.377 . S
C509 H493 0.930 . S
C509 C508 1.377 . S
C509 C510 1.379 . S
C510 H494 0.931 . S
C510 C504 1.383 . S
C510 C509 1.379 . S
H511 C505 0.959 . S
H512 C505 0.961 . S
H513 C505 0.960 . S
H514 C506 0.930 . S
H515 C507 0.929 . S
H516 C524 0.929 . S
H517 C526 0.930 . S
H518 C528 0.930 . S
H519 C531 0.929 . S
H520 C534 0.930 . S
H521 C536 0.960 . S
H522 C536 0.960 . S
H523 C536 0.960 . S
C524 H516 0.929 . S
C524 C525 1.377 . S
C524 C526 1.384 . S
C525 C524 1.377 . S
C525 C531 1.390 . S
C526 H517 0.930 . S
C526 C524 1.384 . S
C526 C527 1.372 . S
C527 C526 1.372 . S
C527 C528 1.400 . S
C527 C532 1.490 . S
C528 H518 0.930 . S
C528 C527 1.400 . S
C528 C531 1.386 . S
H529 C545 0.930 . S
H530 C546 0.931 . S
C531 H519 0.929 . S
C531 C525 1.390 . S
C531 C528 1.386 . S
C532 C527 1.490 . S
C532 C534 1.395 . S
C532 C535 1.403 . S
H533 C539 0.930 . S
C534 H520 0.930 . S
C534 C532 1.395 . S
C534 C537 1.403 . S
C535 C532 1.403 . S
C535 C536 1.524 . S
C535 C539 1.400 . S
C536 H521 0.960 . S
C536 H522 0.960 . S
C536 H523 0.960 . S
C536 C535 1.524 . S
C537 C534 1.403 . S
C537 C538 1.392 . S
C537 C541 1.495 . S
C538 C537 1.392 . S
C538 C539 1.385 . S
C538 C540 1.478 . S
C539 H533 0.930 . S
C539 C535 1.400 . S
C539 C538 1.385 . S
C540 C538 1.478 . S
C540 C542 1.381 . S
C540 C546 1.383 . S
C541 C537 1.495 . S
C541 H547 0.959 . S
C541 H548 0.961 . S
C541 H549 0.960 . S
C542 C540 1.381 . S
C542 C543 1.394 . S
C542 H550 0.930 . S
C543 C542 1.394 . S
C543 C544 1.383 . S
C543 H551 0.929 . S
C544 C543 1.383 . S
C544 C545 1.377 . S
C545 H529 0.930 . S
C545 C544 1.377 . S
C545 C546 1.379 . S
C546 H530 0.931 . S
C546 C540 1.383 . S
C546 C545 1.379 . S
H547 C541 0.959 . S
H548 C541 0.961 . S
H549 C541 0.960 . S
H550 C542 0.930 . S
H551 C543 0.929 . S
H552 C560 0.929 . S
H553 C562 0.930 . S
H554 C564 0.930 . S
H555 C567 0.929 . S
H556 C570 0.930 . S
H557 C572 0.960 . S
H558 C572 0.960 . S
H559 C572 0.960 . S
C560 H552 0.929 . S
C560 C561 1.377 . S
C560 C562 1.384 . S
C561 C560 1.377 . S
C561 C567 1.390 . S
C562 H553 0.930 . S
C562 C560 1.384 . S
C562 C563 1.372 . S
C563 C562 1.372 . S
C563 C564 1.400 . S
C563 C568 1.490 . S
C564 H554 0.930 . S
C564 C563 1.400 . S
C564 C567 1.386 . S
H565 C581 0.930 . S
H566 C582 0.931 . S
C567 H555 0.929 . S
C567 C561 1.390 . S
C567 C564 1.386 . S
C568 C563 1.490 . S
C568 C570 1.395 . S
C568 C571 1.403 . S
H569 C575 0.930 . S
C570 H556 0.930 . S
C570 C568 1.395 . S
C570 C573 1.403 . S
C571 C568 1.403 . S
C571 C572 1.524 . S
C571 C575 1.400 . S
C572 H557 0.960 . S
C572 H558 0.960 . S
C572 H559 0.960 . S
C572 C571 1.524 . S
C573 C570 1.403 . S
C573 C574 1.392 . S
C573 C577 1.495 . S
C574 C573 1.392 . S
C574 C575 1.385 . S
C574 C576 1.478 . S
C575 H569 0.930 . S
C575 C571 1.400 . S
C575 C574 1.385 . S
C576 C574 1.478 . S
C576 C578 1.381 . S
C576 C582 1.383 . S
C577 C573 1.495 . S
C577 H583 0.959 . S
C577 H584 0.961 . S
C577 H585 0.960 . S
C578 C576 1.381 . S
C578 C579 1.394 . S
C578 H586 0.930 . S
C579 C578 1.394 . S
C579 C580 1.383 . S
C579 H587 0.929 . S
C580 C579 1.383 . S
C580 C581 1.377 . S
C581 H565 0.930 . S
C581 C580 1.377 . S
C581 C582 1.379 . S
C582 H566 0.931 . S
C582 C576 1.383 . S
C582 C581 1.379 . S
H583 C577 0.959 . S
H584 C577 0.961 . S
H585 C577 0.960 . S
H586 C578 0.930 . S
H587 C579 0.929 . S
H588 C596 0.929 . S
H589 C598 0.930 . S
H590 C600 0.930 . S
H591 C603 0.929 . S
H592 C606 0.930 . S
H593 C608 0.960 . S
H594 C608 0.960 . S
H595 C608 0.960 . S
C596 H588 0.929 . S
C596 C597 1.377 . S
C596 C598 1.384 . S
C597 C596 1.377 . S
C597 C603 1.390 . S
C598 H589 0.930 . S
C598 C596 1.384 . S
C598 C599 1.372 . S
C599 C598 1.372 . S
C599 C600 1.400 . S
C599 C604 1.490 . S
C600 H590 0.930 . S
C600 C599 1.400 . S
C600 C603 1.386 . S
H601 C617 0.930 . S
H602 C618 0.931 . S
C603 H591 0.929 . S
C603 C597 1.390 . S
C603 C600 1.386 . S
C604 C599 1.490 . S
C604 C606 1.395 . S
C604 C607 1.403 . S
H605 C611 0.930 . S
C606 H592 0.930 . S
C606 C604 1.395 . S
C606 C609 1.403 . S
C607 C604 1.403 . S
C607 C608 1.524 . S
C607 C611 1.400 . S
C608 H593 0.960 . S
C608 H594 0.960 . S
C608 H595 0.960 . S
C608 C607 1.524 . S
C609 C606 1.403 . S
C609 C610 1.392 . S
C609 C613 1.495 . S
C610 C609 1.392 . S
C610 C611 1.385 . S
C610 C612 1.478 . S
C611 H605 0.930 . S
C611 C607 1.400 . S
C611 C610 1.385 . S
C612 C610 1.478 . S
C612 C614 1.381 . S
C612 C618 1.383 . S
C613 C609 1.495 . S
C613 H619 0.959 . S
C613 H620 0.961 . S
C613 H621 0.960 . S
C614 C612 1.381 . S
C614 C615 1.394 . S
C614 H622 0.930 . S
C615 C614 1.394 . S
C615 C616 1.383 . S
C615 H623 0.929 . S
C616 C615 1.383 . S
C616 C617 1.377 . S
C617 H601 0.930 . S
C617 C616 1.377 . S
C617 C618 1.379 . S
C618 H602 0.931 . S
C618 C612 1.383 . S
C618 C617 1.379 . S
H619 C613 0.959 . S
H620 C613 0.961 . S
H621 C613 0.960 . S
H622 C614 0.930 . S
H623 C615 0.929 . S
H624 C632 0.929 . S
H625 C634 0.930 . S
H626 C636 0.930 . S
H627 C639 0.929 . S
H628 C642 0.930 . S
H629 C644 0.960 . S
H630 C644 0.960 . S
H631 C644 0.960 . S
C632 H624 0.929 . S
C632 C633 1.377 . S
C632 C634 1.384 . S
C633 C632 1.377 . S
C633 C639 1.390 . S
C634 H625 0.930 . S
C634 C632 1.384 . S
C634 C635 1.372 . S
C635 C634 1.372 . S
C635 C636 1.400 . S
C635 C640 1.490 . S
C636 H626 0.930 . S
C636 C635 1.400 . S
C636 C639 1.386 . S
H637 C653 0.930 . S
H638 C654 0.931 . S
C639 H627 0.929 . S
C639 C633 1.390 . S
C639 C636 1.386 . S
C640 C635 1.490 . S
C640 C642 1.395 . S
C640 C643 1.403 . S
H641 C647 0.930 . S
C642 H628 0.930 . S
C642 C640 1.395 . S
C642 C645 1.403 . S
C643 C640 1.403 . S
C643 C644 1.524 . S
C643 C647 1.400 . S
C644 H629 0.960 . S
C644 H630 0.960 . S
C644 H631 0.960 . S
C644 C643 1.524 . S
C645 C642 1.403 . S
C645 C646 1.392 . S
C645 C649 1.495 . S
C646 C645 1.392 . S
C646 C647 1.385 . S
C646 C648 1.478 . S
C647 H641 0.930 . S
C647 C643 1.400 . S
C647 C646 1.385 . S
C648 C646 1.478 . S
C648 C650 1.381 . S
C648 C654 1.383 . S
C649 C645 1.495 . S
C649 H655 0.959 . S
C649 H656 0.961 . S
C649 H657 0.960 . S
C650 C648 1.381 . S
C650 C651 1.394 . S
C650 H658 0.930 . S
C651 C650 1.394 . S
C651 C652 1.383 . S
C651 H659 0.929 . S
C652 C651 1.383 . S
C652 C653 1.377 . S
C653 H637 0.930 . S
C653 C652 1.377 . S
C653 C654 1.379 . S
C654 H638 0.931 . S
C654 C648 1.383 . S
C654 C653 1.379 . S
H655 C649 0.959 . S
H656 C649 0.961 . S
H657 C649 0.960 . S
H658 C650 0.930 . S
H659 C651 0.929 . S
H660 C668 0.929 . S
H661 C670 0.930 . S
H662 C672 0.930 . S
H663 C675 0.929 . S
H664 C678 0.930 . S
H665 C680 0.960 . S
H666 C680 0.960 . S
H667 C680 0.960 . S
C668 H660 0.929 . S
C668 C669 1.377 . S
C668 C670 1.384 . S
C669 C668 1.377 . S
C669 C675 1.390 . S
C670 H661 0.930 . S
C670 C668 1.384 . S
C670 C671 1.372 . S
C671 C670 1.372 . S
C671 C672 1.400 . S
C671 C676 1.490 . S
C672 H662 0.930 . S
C672 C671 1.400 . S
C672 C675 1.386 . S
H673 C689 0.930 . S
H674 C690 0.931 . S
C675 H663 0.929 . S
C675 C669 1.390 . S
C675 C672 1.386 . S
C676 C671 1.490 . S
C676 C678 1.395 . S
C676 C679 1.403 . S
H677 C683 0.930 . S
C678 H664 0.930 . S
C678 C676 1.395 . S
C678 C681 1.403 . S
C679 C676 1.403 . S
C679 C680 1.524 . S
C679 C683 1.400 . S
C680 H665 0.960 . S
C680 H666 0.960 . S
C680 H667 0.960 . S
C680 C679 1.524 . S
C681 C678 1.403 . S
C681 C682 1.392 . S
C681 C685 1.495 . S
C682 C681 1.392 . S
C682 C683 1.385 . S
C682 C684 1.478 . S
C683 H677 0.930 . S
C683 C679 1.400 . S
C683 C682 1.385 . S
C684 C682 1.478 . S
C684 C686 1.381 . S
C684 C690 1.383 . S
C685 C681 1.495 . S
C685 H691 0.959 . S
C685 H692 0.961 . S
C685 H693 0.960 . S
C686 C684 1.381 . S
C686 C687 1.394 . S
C686 H694 0.930 . S
C687 C686 1.394 . S
C687 C688 1.383 . S
C687 H695 0.929 . S
C688 C687 1.383 . S
C688 C689 1.377 . S
C689 H673 0.930 . S
C689 C688 1.377 . S
C689 C690 1.379 . S
C690 H674 0.931 . S
C690 C684 1.383 . S
C690 C689 1.379 . S
H691 C685 0.959 . S
H692 C685 0.961 . S
H693 C685 0.960 . S
H694 C686 0.930 . S
H695 C687 0.929 . S
H696 C704 0.929 . S
H697 C706 0.930 . S
H698 C708 0.930 . S
H699 C711 0.929 . S
H700 C714 0.930 . S
H701 C716 0.960 . S
H702 C716 0.960 . S
H703 C716 0.960 . S
C704 H696 0.929 . S
C704 C705 1.377 . S
C704 C706 1.384 . S
C705 C704 1.377 . S
C705 C711 1.390 . S
C706 H697 0.930 . S
C706 C704 1.384 . S
C706 C707 1.372 . S
C707 C706 1.372 . S
C707 C708 1.400 . S
C707 C712 1.490 . S
C708 H698 0.930 . S
C708 C707 1.400 . S
C708 C711 1.386 . S
H709 C725 0.930 . S
H710 C726 0.931 . S
C711 H699 0.929 . S
C711 C705 1.390 . S
C711 C708 1.386 . S
C712 C707 1.490 . S
C712 C714 1.395 . S
C712 C715 1.403 . S
H713 C719 0.930 . S
C714 H700 0.930 . S
C714 C712 1.395 . S
C714 C717 1.403 . S
C715 C712 1.403 . S
C715 C716 1.524 . S
C715 C719 1.400 . S
C716 H701 0.960 . S
C716 H702 0.960 . S
C716 H703 0.960 . S
C716 C715 1.524 . S
C717 C714 1.403 . S
C717 C718 1.392 . S
C717 C721 1.495 . S
C718 C717 1.392 . S
C718 C719 1.385 . S
C718 C720 1.478 . S
C719 H713 0.930 . S
C719 C715 1.400 . S
C719 C718 1.385 . S
C720 C718 1.478 . S
C720 C722 1.381 . S
C720 C726 1.383 . S
C721 C717 1.495 . S
C721 H727 0.959 . S
C721 H728 0.961 . S
C721 H729 0.960 . S
C722 C720 1.381 . S
C722 C723 1.394 . S
C722 H730 0.930 . S
C723 C722 1.394 . S
C723 C724 1.383 . S
C723 H731 0.929 . S
C724 C723 1.383 . S
C724 C725 1.377 . S
C725 H709 0.930 . S
C725 C724 1.377 . S
C725 C726 1.379 . S
C726 H710 0.931 . S
C726 C720 1.383 . S
C726 C725 1.379 . S
H727 C721 0.959 . S
H728 C721 0.961 . S
H729 C721 0.960 . S
H730 C722 0.930 . S
H731 C723 0.929 . S
H732 C740 0.929 . S
H733 C742 0.930 . S
H734 C744 0.930 . S
H735 C747 0.929 . S
H736 C750 0.930 . S
H737 C752 0.960 . S
H738 C752 0.960 . S
H739 C752 0.960 . S
C740 H732 0.929 . S
C740 C741 1.377 . S
C740 C742 1.384 . S
C741 C740 1.377 . S
C741 C747 1.390 . S
C742 H733 0.930 . S
C742 C740 1.384 . S
C742 C743 1.372 . S
C743 C742 1.372 . S
C743 C744 1.400 . S
C743 C748 1.490 . S
C744 H734 0.930 . S
C744 C743 1.400 . S
C744 C747 1.386 . S
H745 C761 0.930 . S
H746 C762 0.931 . S
C747 H735 0.929 . S
C747 C741 1.390 . S
C747 C744 1.386 . S
C748 C743 1.490 . S
C748 C750 1.395 . S
C748 C751 1.403 . S
H749 C755 0.930 . S
C750 H736 0.930 . S
C750 C748 1.395 . S
C750 C753 1.403 . S
C751 C748 1.403 . S
C751 C752 1.524 . S
C751 C755 1.400 . S
C752 H737 0.960 . S
C752 H738 0.960 . S
C752 H739 0.960 . S
C752 C751 1.524 . S
C753 C750 1.403 . S
C753 C754 1.392 . S
C753 C757 1.495 . S
C754 C753 1.392 . S
C754 C755 1.385 . S
C754 C756 1.478 . S
C755 H749 0.930 . S
C755 C751 1.400 . S
C755 C754 1.385 . S
C756 C754 1.478 . S
C756 C758 1.381 . S
C756 C762 1.383 . S
C757 C753 1.495 . S
C757 H763 0.959 . S
C757 H764 0.961 . S
C757 H765 0.960 . S
C758 C756 1.381 . S
C758 C759 1.394 . S
C758 H766 0.930 . S
C759 C758 1.394 . S
C759 C760 1.383 . S
C759 H767 0.929 . S
C760 C759 1.383 . S
C760 C761 1.377 . S
C761 H745 0.930 . S
C761 C760 1.377 . S
C761 C762 1.379 . S
C762 H746 0.931 . S
C762 C756 1.383 . S
C762 C761 1.379 . S
H763 C757 0.959 . S
H764 C757 0.961 . S
H765 C757 0.960 . S
H766 C758 0.930 . S
H767 C759 0.929 . S
H768 C776 0.929 . S
H769 C778 0.930 . S
H770 C780 0.930 . S
H771 C783 0.929 . S
H772 C786 0.930 . S
H773 C788 0.960 . S
H774 C788 0.960 . S
H775 C788 0.960 . S
C776 H768 0.929 . S
C776 C777 1.377 . S
C776 C778 1.384 . S
C777 C776 1.377 . S
C777 C783 1.390 . S
C778 H769 0.930 . S
C778 C776 1.384 . S
C778 C779 1.372 . S
C779 C778 1.372 . S
C779 C780 1.400 . S
C779 C784 1.490 . S
C780 H770 0.930 . S
C780 C779 1.400 . S
C780 C783 1.386 . S
H781 C797 0.930 . S
H782 C798 0.931 . S
C783 H771 0.929 . S
C783 C777 1.390 . S
C783 C780 1.386 . S
C784 C779 1.490 . S
C784 C786 1.395 . S
C784 C787 1.403 . S
H785 C791 0.930 . S
C786 H772 0.930 . S
C786 C784 1.395 . S
C786 C789 1.403 . S
C787 C784 1.403 . S
C787 C788 1.524 . S
C787 C791 1.400 . S
C788 H773 0.960 . S
C788 H774 0.960 . S
C788 H775 0.960 . S
C788 C787 1.524 . S
C789 C786 1.403 . S
C789 C790 1.392 . S
C789 C793 1.495 . S
C790 C789 1.392 . S
C790 C791 1.385 . S
C790 C792 1.478 . S
C791 H785 0.930 . S
C791 C787 1.400 . S
C791 C790 1.385 . S
C792 C790 1.478 . S
C792 C794 1.381 . S
C792 C798 1.383 . S
C793 C789 1.495 . S
C793 H799 0.959 . S
C793 H800 0.961 . S
C793 H801 0.960 . S
C794 C792 1.381 . S
C794 C795 1.394 . S
C794 H802 0.930 . S
C795 C794 1.394 . S
C795 C796 1.383 . S
C795 H803 0.929 . S
C796 C795 1.383 . S
C796 C797 1.377 . S
C797 H781 0.930 . S
C797 C796 1.377 . S
C797 C798 1.379 . S
C798 H782 0.931 . S
C798 C792 1.383 . S
C798 C797 1.379 . S
H799 C793 0.959 . S
H800 C793 0.961 . S
H801 C793 0.960 . S
H802 C794 0.930 . S
H803 C795 0.929 . S
H804 C812 0.929 . S
H805 C814 0.930 . S
H806 C816 0.930 . S
H807 C819 0.929 1_455 S
H808 C822 0.930 . S
H809 C824 0.960 . S
H810 C824 0.960 . S
H811 C824 0.960 . S
C812 H804 0.929 . S
C812 C813 1.377 . S
C812 C814 1.384 . S
C813 C812 1.377 . S
C813 C819 1.390 . S
C814 H805 0.930 . S
C814 C812 1.384 . S
C814 C815 1.372 . S
C815 C814 1.372 . S
C815 C816 1.400 . S
C815 C820 1.490 . S
C816 H806 0.930 . S
C816 C815 1.400 . S
C816 C819 1.386 . S
H817 C833 0.930 . S
H818 C834 0.931 . S
C819 H807 0.929 1_655 S
C819 C813 1.390 . S
C819 C816 1.386 . S
C820 C815 1.490 . S
C820 C822 1.395 . S
C820 C823 1.403 . S
H821 C827 0.930 . S
C822 H808 0.930 . S
C822 C820 1.395 . S
C822 C825 1.403 . S
C823 C820 1.403 . S
C823 C824 1.524 . S
C823 C827 1.400 . S
C824 H809 0.960 . S
C824 H810 0.960 . S
C824 H811 0.960 . S
C824 C823 1.524 . S
C825 C822 1.403 . S
C825 C826 1.392 . S
C825 C829 1.495 . S
C826 C825 1.392 . S
C826 C827 1.385 . S
C826 C828 1.478 . S
C827 H821 0.930 . S
C827 C823 1.400 . S
C827 C826 1.385 . S
C828 C826 1.478 . S
C828 C830 1.381 . S
C828 C834 1.383 . S
C829 C825 1.495 . S
C829 H835 0.959 . S
C829 H836 0.961 . S
C829 H837 0.960 . S
C830 C828 1.381 . S
C830 C831 1.394 . S
C830 H838 0.930 . S
C831 C830 1.394 . S
C831 C832 1.383 . S
C831 H839 0.929 . S
C832 C831 1.383 . S
C832 C833 1.377 . S
C833 H817 0.930 . S
C833 C832 1.377 . S
C833 C834 1.379 . S
C834 H818 0.931 . S
C834 C828 1.383 . S
C834 C833 1.379 . S
H835 C829 0.959 . S
H836 C829 0.961 . S
H837 C829 0.960 . S
H838 C830 0.930 . S
H839 C831 0.929 . S
H840 C848 0.929 . S
H841 C850 0.930 . S
H842 C852 0.930 . S
H843 C855 0.929 . S
H844 C858 0.930 . S
H845 C860 0.960 . S
H846 C860 0.960 . S
H847 C860 0.960 . S
C848 H840 0.929 . S
C848 C849 1.377 . S
C848 C850 1.384 . S
C849 C848 1.377 . S
C849 C855 1.390 . S
C850 H841 0.930 . S
C850 C848 1.384 . S
C850 C851 1.372 . S
C851 C850 1.372 . S
C851 C852 1.400 . S
C851 C856 1.490 . S
C852 H842 0.930 . S
C852 C851 1.400 . S
C852 C855 1.386 . S
H853 C869 0.930 . S
H854 C870 0.931 . S
C855 H843 0.929 . S
C855 C849 1.390 . S
C855 C852 1.386 . S
C856 C851 1.490 . S
C856 C858 1.395 . S
C856 C859 1.403 . S
H857 C863 0.930 . S
C858 H844 0.930 . S
C858 C856 1.395 . S
C858 C861 1.403 . S
C859 C856 1.403 . S
C859 C860 1.524 . S
C859 C863 1.400 . S
C860 H845 0.960 . S
C860 H846 0.960 . S
C860 H847 0.960 . S
C860 C859 1.524 . S
C861 C858 1.403 . S
C861 C862 1.392 . S
C861 C865 1.495 . S
C862 C861 1.392 . S
C862 C863 1.385 . S
C862 C864 1.478 . S
C863 H857 0.930 . S
C863 C859 1.400 . S
C863 C862 1.385 . S
C864 C862 1.478 . S
C864 C866 1.381 . S
C864 C870 1.383 . S
C865 C861 1.495 . S
C865 H871 0.959 . S
C865 H872 0.961 . S
C865 H873 0.960 . S
C866 C864 1.381 . S
C866 C867 1.394 . S
C866 H874 0.930 . S
C867 C866 1.394 . S
C867 C868 1.383 . S
C867 H875 0.929 . S
C868 C867 1.383 . S
C868 C869 1.377 . S
C869 H853 0.930 . S
C869 C868 1.377 . S
C869 C870 1.379 . S
C870 H854 0.931 . S
C870 C864 1.383 . S
C870 C869 1.379 . S
H871 C865 0.959 . S
H872 C865 0.961 . S
H873 C865 0.960 . S
H874 C866 0.930 . S
H875 C867 0.929 . S
H876 C884 0.929 . S
H877 C886 0.930 . S
H878 C888 0.930 . S
H879 C891 0.929 1_455 S
H880 C894 0.930 . S
H881 C896 0.960 . S
H882 C896 0.960 . S
H883 C896 0.960 . S
C884 H876 0.929 . S
C884 C885 1.377 . S
C884 C886 1.384 . S
C885 C884 1.377 . S
C885 C891 1.390 . S
C886 H877 0.930 . S
C886 C884 1.384 . S
C886 C887 1.372 . S
C887 C886 1.372 . S
C887 C888 1.400 . S
C887 C892 1.490 . S
C888 H878 0.930 . S
C888 C887 1.400 . S
C888 C891 1.386 . S
H889 C905 0.930 . S
H890 C906 0.931 . S
C891 H879 0.929 1_655 S
C891 C885 1.390 . S
C891 C888 1.386 . S
C892 C887 1.490 . S
C892 C894 1.395 . S
C892 C895 1.403 . S
H893 C899 0.930 . S
C894 H880 0.930 . S
C894 C892 1.395 . S
C894 C897 1.403 . S
C895 C892 1.403 . S
C895 C896 1.524 . S
C895 C899 1.400 . S
C896 H881 0.960 . S
C896 H882 0.960 . S
C896 H883 0.960 . S
C896 C895 1.524 . S
C897 C894 1.403 . S
C897 C898 1.392 . S
C897 C901 1.495 . S
C898 C897 1.392 . S
C898 C899 1.385 . S
C898 C900 1.478 . S
C899 H893 0.930 . S
C899 C895 1.400 . S
C899 C898 1.385 . S
C900 C898 1.478 . S
C900 C902 1.381 . S
C900 C906 1.383 . S
C901 C897 1.495 . S
C901 H907 0.959 . S
C901 H908 0.961 . S
C901 H909 0.960 . S
C902 C900 1.381 . S
C902 C903 1.394 . S
C902 H910 0.930 . S
C903 C902 1.394 . S
C903 C904 1.383 . S
C903 H911 0.929 . S
C904 C903 1.383 . S
C904 C905 1.377 . S
C905 H889 0.930 . S
C905 C904 1.377 . S
C905 C906 1.379 . S
C906 H890 0.931 . S
C906 C900 1.383 . S
C906 C905 1.379 . S
H907 C901 0.959 . S
H908 C901 0.961 . S
H909 C901 0.960 . S
H910 C902 0.930 . S
H911 C903 0.929 . S
H912 C920 0.929 . S
H913 C922 0.930 . S
H914 C924 0.930 . S
H915 C927 0.929 . S
H916 C930 0.930 . S
H917 C932 0.960 . S
H918 C932 0.960 . S
H919 C932 0.960 . S
C920 H912 0.929 . S
C920 C921 1.377 . S
C920 C922 1.384 . S
C921 C920 1.377 . S
C921 C927 1.390 . S
C922 H913 0.930 . S
C922 C920 1.384 . S
C922 C923 1.372 . S
C923 C922 1.372 . S
C923 C924 1.400 . S
C923 C928 1.490 . S
C924 H914 0.930 . S
C924 C923 1.400 . S
C924 C927 1.386 . S
H925 C941 0.930 . S
H926 C942 0.931 . S
C927 H915 0.929 . S
C927 C921 1.390 . S
C927 C924 1.386 . S
C928 C923 1.490 . S
C928 C930 1.395 . S
C928 C931 1.403 . S
H929 C935 0.930 . S
C930 H916 0.930 . S
C930 C928 1.395 . S
C930 C933 1.403 . S
C931 C928 1.403 . S
C931 C932 1.524 . S
C931 C935 1.400 . S
C932 H917 0.960 . S
C932 H918 0.960 . S
C932 H919 0.960 . S
C932 C931 1.524 . S
C933 C930 1.403 . S
C933 C934 1.392 . S
C933 C937 1.495 . S
C934 C933 1.392 . S
C934 C935 1.385 . S
C934 C936 1.478 . S
C935 H929 0.930 . S
C935 C931 1.400 . S
C935 C934 1.385 . S
C936 C934 1.478 . S
C936 C938 1.381 . S
C936 C942 1.383 . S
C937 C933 1.495 . S
C937 H943 0.959 . S
C937 H944 0.961 . S
C937 H945 0.960 . S
C938 C936 1.381 . S
C938 C939 1.394 . S
C938 H946 0.930 . S
C939 C938 1.394 . S
C939 C940 1.383 . S
C939 H947 0.929 . S
C940 C939 1.383 . S
C940 C941 1.377 . S
C941 H925 0.930 . S
C941 C940 1.377 . S
C941 C942 1.379 . S
C942 H926 0.931 . S
C942 C936 1.383 . S
C942 C941 1.379 . S
H943 C937 0.959 . S
H944 C937 0.961 . S
H945 C937 0.960 . S
H946 C938 0.930 . S
H947 C939 0.929 . S
H948 C956 0.929 . S
H949 C958 0.930 . S
H950 C960 0.930 . S
H951 C963 0.929 . S
H952 C966 0.930 . S
H953 C968 0.960 . S
H954 C968 0.960 . S
H955 C968 0.960 . S
C956 H948 0.929 . S
C956 C957 1.377 . S
C956 C958 1.384 . S
C957 C956 1.377 . S
C957 C963 1.390 . S
C958 H949 0.930 . S
C958 C956 1.384 . S
C958 C959 1.372 . S
C959 C958 1.372 . S
C959 C960 1.400 . S
C959 C964 1.490 . S
C960 H950 0.930 . S
C960 C959 1.400 . S
C960 C963 1.386 . S
H961 C977 0.930 . S
H962 C978 0.931 . S
C963 H951 0.929 . S
C963 C957 1.390 . S
C963 C960 1.386 . S
C964 C959 1.490 . S
C964 C966 1.395 . S
C964 C967 1.403 . S
H965 C971 0.930 . S
C966 H952 0.930 . S
C966 C964 1.395 . S
C966 C969 1.403 . S
C967 C964 1.403 . S
C967 C968 1.524 . S
C967 C971 1.400 . S
C968 H953 0.960 . S
C968 H954 0.960 . S
C968 H955 0.960 . S
C968 C967 1.524 . S
C969 C966 1.403 . S
C969 C970 1.392 . S
C969 C973 1.495 . S
C970 C969 1.392 . S
C970 C971 1.385 . S
C970 C972 1.478 . S
C971 H965 0.930 . S
C971 C967 1.400 . S
C971 C970 1.385 . S
C972 C970 1.478 . S
C972 C974 1.381 . S
C972 C978 1.383 . S
C973 C969 1.495 . S
C973 H979 0.959 . S
C973 H980 0.961 . S
C973 H981 0.960 . S
C974 C972 1.381 . S
C974 C975 1.394 . S
C974 H982 0.930 . S
C975 C974 1.394 . S
C975 C976 1.383 . S
C975 H983 0.929 . S
C976 C975 1.383 . S
C976 C977 1.377 . S
C977 H961 0.930 . S
C977 C976 1.377 . S
C977 C978 1.379 . S
C978 H962 0.931 . S
C978 C972 1.383 . S
C978 C977 1.379 . S
H979 C973 0.959 . S
H980 C973 0.961 . S
H981 C973 0.960 . S
H982 C974 0.930 . S
H983 C975 0.929 . S
H984 C992 0.929 . S
H985 C994 0.930 . S
H986 C996 0.930 . S
H987 C999 0.932 . S
H988 C1002 0.930 . S
H989 C1004 0.965 . S
H990 C1004 0.960 . S
H991 C1004 0.948 1_554 S
C992 H984 0.929 . S
C992 C993 1.377 . S
C992 C994 1.384 . S
C993 C992 1.377 . S
C993 C999 1.390 . S
C994 H985 0.930 . S
C994 C992 1.384 . S
C994 C995 1.372 . S
C995 C994 1.372 . S
C995 C996 1.400 . S
C995 C1000 1.490 . S
C996 H986 0.930 . S
C996 C995 1.400 . S
C996 C999 1.386 . S
H997 C1013 0.930 . S
H998 C1014 0.931 . S
C999 H987 0.932 . S
C999 C993 1.390 . S
C999 C996 1.386 . S
C1000 C995 1.490 . S
C1000 C1002 1.395 . S
C1000 C1003 1.403 . S
H1001 C1007 0.930 . S
C1002 H988 0.930 . S
C1002 C1000 1.395 . S
C1002 C1005 1.403 . S
C1003 C1000 1.403 . S
C1003 C1004 1.524 . S
C1003 C1007 1.400 . S
C1004 H989 0.965 . S
C1004 H990 0.960 . S
C1004 H991 0.948 1_556 S
C1004 C1003 1.524 . S
C1005 C1002 1.403 . S
C1005 C1006 1.392 . S
C1005 C1009 1.495 . S
C1006 C1005 1.392 . S
C1006 C1007 1.385 . S
C1006 C1008 1.478 . S
C1007 H1001 0.930 . S
C1007 C1003 1.400 . S
C1007 C1006 1.385 . S
C1008 C1006 1.478 . S
C1008 C1010 1.381 . S
C1008 C1014 1.383 . S
C1009 C1005 1.495 . S
C1009 H1015 0.959 . S
C1009 H1016 0.961 . S
C1009 H1017 0.960 . S
C1010 C1008 1.381 . S
C1010 C1011 1.394 . S
C1010 H1018 0.930 . S
C1011 C1010 1.394 . S
C1011 C1012 1.383 . S
C1011 H1019 0.929 . S
C1012 C1011 1.383 . S
C1012 C1013 1.377 . S
C1013 H997 0.930 . S
C1013 C1012 1.377 . S
C1013 C1014 1.379 . S
C1014 H998 0.931 . S
C1014 C1008 1.383 . S
C1014 C1013 1.379 . S
H1015 C1009 0.959 . S
H1016 C1009 0.961 . S
H1017 C1009 0.960 . S
H1018 C1010 0.930 . S
H1019 C1011 0.929 . S
H1020 C1028 0.929 . S
H1021 C1030 0.930 . S
H1022 C1032 0.930 . S
H1023 C1035 0.929 . S
H1024 C1038 0.930 . S
H1025 C1040 0.960 . S
H1026 C1040 0.960 . S
H1027 C1040 0.960 . S
C1028 H1020 0.929 . S
C1028 C1029 1.377 . S
C1028 C1030 1.384 . S
C1029 C1028 1.377 . S
C1029 C1035 1.390 . S
C1030 H1021 0.930 . S
C1030 C1028 1.384 . S
C1030 C1031 1.372 . S
C1031 C1030 1.372 . S
C1031 C1032 1.400 . S
C1031 C1036 1.490 . S
C1032 H1022 0.930 . S
C1032 C1031 1.400 . S
C1032 C1035 1.386 . S
H1033 C1049 0.930 1_455 S
H1034 C1050 0.931 . S
C1035 H1023 0.929 . S
C1035 C1029 1.390 . S
C1035 C1032 1.386 . S
C1036 C1031 1.490 . S
C1036 C1038 1.395 . S
C1036 C1039 1.403 . S
H1037 C1043 0.930 . S
C1038 H1024 0.930 . S
C1038 C1036 1.395 . S
C1038 C1041 1.403 . S
C1039 C1036 1.403 . S
C1039 C1040 1.524 . S
C1039 C1043 1.400 . S
C1040 H1025 0.960 . S
C1040 H1026 0.960 . S
C1040 H1027 0.960 . S
C1040 C1039 1.524 . S
C1041 C1038 1.403 . S
C1041 C1042 1.392 . S
C1041 C1045 1.495 . S
C1042 C1041 1.392 . S
C1042 C1043 1.385 . S
C1042 C1044 1.478 . S
C1043 H1037 0.930 . S
C1043 C1039 1.400 . S
C1043 C1042 1.385 . S
C1044 C1042 1.478 . S
C1044 C1046 1.381 . S
C1044 C1050 1.383 . S
C1045 C1041 1.495 . S
C1045 H1051 0.959 . S
C1045 H1052 0.961 . S
C1045 H1053 0.960 . S
C1046 C1044 1.381 . S
C1046 C1047 1.394 . S
C1046 H1054 0.930 . S
C1047 C1046 1.394 . S
C1047 C1048 1.383 . S
C1047 H1055 0.929 . S
C1048 C1047 1.383 . S
C1048 C1049 1.377 . S
C1049 H1033 0.930 1_655 S
C1049 C1048 1.377 . S
C1049 C1050 1.379 . S
C1050 H1034 0.931 . S
C1050 C1044 1.383 . S
C1050 C1049 1.379 . S
H1051 C1045 0.959 . S
H1052 C1045 0.961 . S
H1053 C1045 0.960 . S
H1054 C1046 0.930 . S
H1055 C1047 0.929 . S
H1056 C1064 0.929 . S
H1057 C1066 0.930 . S
H1058 C1068 0.930 . S
H1059 C1071 0.929 . S
H1060 C1074 0.930 . S
H1061 C1076 0.960 . S
H1062 C1076 0.960 . S
H1063 C1076 0.960 . S
C1064 H1056 0.929 . S
C1064 C1065 1.377 . S
C1064 C1066 1.384 . S
C1065 C1064 1.377 . S
C1065 C1071 1.390 . S
C1066 H1057 0.930 . S
C1066 C1064 1.384 . S
C1066 C1067 1.372 . S
C1067 C1066 1.372 . S
C1067 C1068 1.400 . S
C1067 C1072 1.490 . S
C1068 H1058 0.930 . S
C1068 C1067 1.400 . S
C1068 C1071 1.386 . S
H1069 C1085 0.930 . S
H1070 C1086 0.931 . S
C1071 H1059 0.929 . S
C1071 C1065 1.390 . S
C1071 C1068 1.386 . S
C1072 C1067 1.490 . S
C1072 C1074 1.395 . S
C1072 C1075 1.403 . S
H1073 C1079 0.930 . S
C1074 H1060 0.930 . S
C1074 C1072 1.395 . S
C1074 C1077 1.403 . S
C1075 C1072 1.403 . S
C1075 C1076 1.524 . S
C1075 C1079 1.400 . S
C1076 H1061 0.960 . S
C1076 H1062 0.960 . S
C1076 H1063 0.960 . S
C1076 C1075 1.524 . S
C1077 C1074 1.403 . S
C1077 C1078 1.392 . S
C1077 C1081 1.495 . S
C1078 C1077 1.392 . S
C1078 C1079 1.385 . S
C1078 C1080 1.478 . S
C1079 H1073 0.930 . S
C1079 C1075 1.400 . S
C1079 C1078 1.385 . S
C1080 C1078 1.478 . S
C1080 C1082 1.381 . S
C1080 C1086 1.383 . S
C1081 C1077 1.495 . S
C1081 H1087 0.959 . S
C1081 H1088 0.961 . S
C1081 H1089 0.960 . S
C1082 C1080 1.381 . S
C1082 C1083 1.394 . S
C1082 H1090 0.930 . S
C1083 C1082 1.394 . S
C1083 C1084 1.383 . S
C1083 H1091 0.929 . S
C1084 C1083 1.383 . S
C1084 C1085 1.377 . S
C1085 H1069 0.930 . S
C1085 C1084 1.377 . S
C1085 C1086 1.379 . S
C1086 H1070 0.931 . S
C1086 C1080 1.383 . S
C1086 C1085 1.379 . S
H1087 C1081 0.959 . S
H1088 C1081 0.961 . S
H1089 C1081 0.960 . S
H1090 C1082 0.930 . S
H1091 C1083 0.929 . S
H1092 C1100 0.929 . S
H1093 C1102 0.930 . S
H1094 C1104 0.930 . S
H1095 C1107 0.929 . S
H1096 C1110 0.930 . S
H1097 C1112 0.960 . S
H1098 C1112 0.960 . S
H1099 C1112 0.960 . S
C1100 H1092 0.929 . S
C1100 C1101 1.377 . S
C1100 C1102 1.384 . S
C1101 C1100 1.377 . S
C1101 C1107 1.390 . S
C1102 H1093 0.930 . S
C1102 C1100 1.384 . S
C1102 C1103 1.372 . S
C1103 C1102 1.372 . S
C1103 C1104 1.400 . S
C1103 C1108 1.490 . S
C1104 H1094 0.930 . S
C1104 C1103 1.400 . S
C1104 C1107 1.386 . S
H1105 C1121 0.930 . S
H1106 C1122 0.931 . S
C1107 H1095 0.929 . S
C1107 C1101 1.390 . S
C1107 C1104 1.386 . S
C1108 C1103 1.490 . S
C1108 C1110 1.395 . S
C1108 C1111 1.403 . S
H1109 C1115 0.930 . S
C1110 H1096 0.930 . S
C1110 C1108 1.395 . S
C1110 C1113 1.403 . S
C1111 C1108 1.403 . S
C1111 C1112 1.524 . S
C1111 C1115 1.400 . S
C1112 H1097 0.960 . S
C1112 H1098 0.960 . S
C1112 H1099 0.960 . S
C1112 C1111 1.524 . S
C1113 C1110 1.403 . S
C1113 C1114 1.392 . S
C1113 C1117 1.495 . S
C1114 C1113 1.392 . S
C1114 C1115 1.385 . S
C1114 C1116 1.478 . S
C1115 H1109 0.930 . S
C1115 C1111 1.400 . S
C1115 C1114 1.385 . S
C1116 C1114 1.478 . S
C1116 C1118 1.381 . S
C1116 C1122 1.383 . S
C1117 C1113 1.495 . S
C1117 H1123 0.959 . S
C1117 H1124 0.961 . S
C1117 H1125 0.960 . S
C1118 C1116 1.381 . S
C1118 C1119 1.394 . S
C1118 H1126 0.930 . S
C1119 C1118 1.394 . S
C1119 C1120 1.383 . S
C1119 H1127 0.929 . S
C1120 C1119 1.383 . S
C1120 C1121 1.377 . S
C1121 H1105 0.930 . S
C1121 C1120 1.377 . S
C1121 C1122 1.379 . S
C1122 H1106 0.931 . S
C1122 C1116 1.383 . S
C1122 C1121 1.379 . S
H1123 C1117 0.959 . S
H1124 C1117 0.961 . S
H1125 C1117 0.960 . S
H1126 C1118 0.930 . S
H1127 C1119 0.929 . S
H1128 C1136 0.929 . S
H1129 C1138 0.930 . S
H1130 C1140 0.930 . S
H1131 C1143 0.929 . S
H1132 C1146 0.930 . S
H1133 C1148 0.960 . S
H1134 C1148 0.960 . S
H1135 C1148 0.960 . S
C1136 H1128 0.929 . S
C1136 C1137 1.377 . S
C1136 C1138 1.384 . S
C1137 C1136 1.377 . S
C1137 C1143 1.390 . S
C1138 H1129 0.930 . S
C1138 C1136 1.384 . S
C1138 C1139 1.372 . S
C1139 C1138 1.372 . S
C1139 C1140 1.400 . S
C1139 C1144 1.490 . S
C1140 H1130 0.930 . S
C1140 C1139 1.400 . S
C1140 C1143 1.386 . S
H1141 C1157 0.930 . S
H1142 C1158 0.931 . S
C1143 H1131 0.929 . S
C1143 C1137 1.390 . S
C1143 C1140 1.386 . S
C1144 C1139 1.490 . S
C1144 C1146 1.395 . S
C1144 C1147 1.403 . S
H1145 C1151 0.930 . S
C1146 H1132 0.930 . S
C1146 C1144 1.395 . S
C1146 C1149 1.403 . S
C1147 C1144 1.403 . S
C1147 C1148 1.524 . S
C1147 C1151 1.400 . S
C1148 H1133 0.960 . S
C1148 H1134 0.960 . S
C1148 H1135 0.960 . S
C1148 C1147 1.524 . S
C1149 C1146 1.403 . S
C1149 C1150 1.392 . S
C1149 C1153 1.495 . S
C1150 C1149 1.392 . S
C1150 C1151 1.385 . S
C1150 C1152 1.478 . S
C1151 H1145 0.930 . S
C1151 C1147 1.400 . S
C1151 C1150 1.385 . S
C1152 C1150 1.478 . S
C1152 C1154 1.381 . S
C1152 C1158 1.383 . S
C1153 C1149 1.495 . S
C1153 H1159 0.959 . S
C1153 H1160 0.961 . S
C1153 H1161 0.960 . S
C1154 C1152 1.381 . S
C1154 C1155 1.394 . S
C1154 H1162 0.930 . S
C1155 C1154 1.394 . S
C1155 C1156 1.383 . S
C1155 H1163 0.929 . S
C1156 C1155 1.383 . S
C1156 C1157 1.377 . S
C1157 H1141 0.930 . S
C1157 C1156 1.377 . S
C1157 C1158 1.379 . S
C1158 H1142 0.931 . S
C1158 C1152 1.383 . S
C1158 C1157 1.379 . S
H1159 C1153 0.959 . S
H1160 C1153 0.961 . S
H1161 C1153 0.960 . S
H1162 C1154 0.930 . S
H1163 C1155 0.929 . S
H1164 C1172 0.929 . S
H1165 C1174 0.930 . S
H1166 C1176 0.930 . S
H1167 C1179 0.929 . S
H1168 C1182 0.930 . S
H1169 C1184 0.960 . S
H1170 C1184 0.960 . S
H1171 C1184 0.960 . S
C1172 H1164 0.929 . S
C1172 C1173 1.377 . S
C1172 C1174 1.384 . S
C1173 C1172 1.377 . S
C1173 C1179 1.390 . S
C1174 H1165 0.930 . S
C1174 C1172 1.384 . S
C1174 C1175 1.372 . S
C1175 C1174 1.372 . S
C1175 C1176 1.400 . S
C1175 C1180 1.490 . S
C1176 H1166 0.930 . S
C1176 C1175 1.400 . S
C1176 C1179 1.386 . S
H1177 C1193 0.930 . S
H1178 C1194 0.931 . S
C1179 H1167 0.929 . S
C1179 C1173 1.390 . S
C1179 C1176 1.386 . S
C1180 C1175 1.490 . S
C1180 C1182 1.395 . S
C1180 C1183 1.403 . S
H1181 C1187 0.930 . S
C1182 H1168 0.930 . S
C1182 C1180 1.395 . S
C1182 C1185 1.403 . S
C1183 C1180 1.403 . S
C1183 C1184 1.524 . S
C1183 C1187 1.400 . S
C1184 H1169 0.960 . S
C1184 H1170 0.960 . S
C1184 H1171 0.960 . S
C1184 C1183 1.524 . S
C1185 C1182 1.403 . S
C1185 C1186 1.392 . S
C1185 C1189 1.495 . S
C1186 C1185 1.392 . S
C1186 C1187 1.385 . S
C1186 C1188 1.478 . S
C1187 H1181 0.930 . S
C1187 C1183 1.400 . S
C1187 C1186 1.385 . S
C1188 C1186 1.478 . S
C1188 C1190 1.381 . S
C1188 C1194 1.383 . S
C1189 C1185 1.495 . S
C1189 H1195 0.959 . S
C1189 H1196 0.961 . S
C1189 H1197 0.960 . S
C1190 C1188 1.381 . S
C1190 C1191 1.394 . S
C1190 H1198 0.930 . S
C1191 C1190 1.394 . S
C1191 C1192 1.383 . S
C1191 H1199 0.929 . S
C1192 C1191 1.383 . S
C1192 C1193 1.377 . S
C1193 H1177 0.930 . S
C1193 C1192 1.377 . S
C1193 C1194 1.379 . S
C1194 H1178 0.931 . S
C1194 C1188 1.383 . S
C1194 C1193 1.379 . S
H1195 C1189 0.959 . S
H1196 C1189 0.961 . S
H1197 C1189 0.960 . S
H1198 C1190 0.930 . S
H1199 C1191 0.929 . S
H1200 C1208 0.929 . S
H1201 C1210 0.930 . S
H1202 C1212 0.930 . S
H1203 C1215 0.929 . S
H1204 C1218 0.930 . S
H1205 C1220 0.960 . S
H1206 C1220 0.960 . S
H1207 C1220 0.960 . S
C1208 H1200 0.929 . S
C1208 C1209 1.377 . S
C1208 C1210 1.384 . S
C1209 C1208 1.377 . S
C1209 C1215 1.390 . S
C1210 H1201 0.930 . S
C1210 C1208 1.384 . S
C1210 C1211 1.372 . S
C1211 C1210 1.372 . S
C1211 C1212 1.400 . S
C1211 C1216 1.490 . S
C1212 H1202 0.930 . S
C1212 C1211 1.400 . S
C1212 C1215 1.386 . S
H1213 C1229 0.930 . S
H1214 C1230 0.931 . S
C1215 H1203 0.929 . S
C1215 C1209 1.390 . S
C1215 C1212 1.386 . S
C1216 C1211 1.490 . S
C1216 C1218 1.395 . S
C1216 C1219 1.403 . S
H1217 C1223 0.930 . S
C1218 H1204 0.930 . S
C1218 C1216 1.395 . S
C1218 C1221 1.403 . S
C1219 C1216 1.403 . S
C1219 C1220 1.524 . S
C1219 C1223 1.400 . S
C1220 H1205 0.960 . S
C1220 H1206 0.960 . S
C1220 H1207 0.960 . S
C1220 C1219 1.524 . S
C1221 C1218 1.403 . S
C1221 C1222 1.392 . S
C1221 C1225 1.495 . S
C1222 C1221 1.392 . S
C1222 C1223 1.385 . S
C1222 C1224 1.478 . S
C1223 H1217 0.930 . S
C1223 C1219 1.400 . S
C1223 C1222 1.385 . S
C1224 C1222 1.478 . S
C1224 C1226 1.381 . S
C1224 C1230 1.383 . S
C1225 C1221 1.495 . S
C1225 H1231 0.959 . S
C1225 H1232 0.961 . S
C1225 H1233 0.960 . S
C1226 C1224 1.381 . S
C1226 C1227 1.394 . S
C1226 H1234 0.930 . S
C1227 C1226 1.394 . S
C1227 C1228 1.383 . S
C1227 H1235 0.929 . S
C1228 C1227 1.383 . S
C1228 C1229 1.377 . S
C1229 H1213 0.930 . S
C1229 C1228 1.377 . S
C1229 C1230 1.379 . S
C1230 H1214 0.931 . S
C1230 C1224 1.383 . S
C1230 C1229 1.379 . S
H1231 C1225 0.959 . S
H1232 C1225 0.961 . S
H1233 C1225 0.960 . S
H1234 C1226 0.930 . S
H1235 C1227 0.929 . S
H1236 C1244 0.929 . S
H1237 C1246 0.930 . S
H1238 C1248 0.930 . S
H1239 C1251 0.929 . S
H1240 C1254 0.930 . S
H1241 C1256 0.960 . S
H1242 C1256 0.960 . S
H1243 C1256 0.960 . S
C1244 H1236 0.929 . S
C1244 C1245 1.377 . S
C1244 C1246 1.384 . S
C1245 C1244 1.377 . S
C1245 C1251 1.390 . S
C1246 H1237 0.930 . S
C1246 C1244 1.384 . S
C1246 C1247 1.372 . S
C1247 C1246 1.372 . S
C1247 C1248 1.400 . S
C1247 C1252 1.490 . S
C1248 H1238 0.930 . S
C1248 C1247 1.400 . S
C1248 C1251 1.386 . S
H1249 C1265 0.930 . S
H1250 C1266 0.931 . S
C1251 H1239 0.929 . S
C1251 C1245 1.390 . S
C1251 C1248 1.386 . S
C1252 C1247 1.490 . S
C1252 C1254 1.395 . S
C1252 C1255 1.403 . S
H1253 C1259 0.930 . S
C1254 H1240 0.930 . S
C1254 C1252 1.395 . S
C1254 C1257 1.403 . S
C1255 C1252 1.403 . S
C1255 C1256 1.524 . S
C1255 C1259 1.400 . S
C1256 H1241 0.960 . S
C1256 H1242 0.960 . S
C1256 H1243 0.960 . S
C1256 C1255 1.524 . S
C1257 C1254 1.403 . S
C1257 C1258 1.392 . S
C1257 C1261 1.495 . S
C1258 C1257 1.392 . S
C1258 C1259 1.385 . S
C1258 C1260 1.478 . S
C1259 H1253 0.930 . S
C1259 C1255 1.400 . S
C1259 C1258 1.385 . S
C1260 C1258 1.478 . S
C1260 C1262 1.381 . S
C1260 C1266 1.383 . S
C1261 C1257 1.495 . S
C1261 H1267 0.959 . S
C1261 H1268 0.961 . S
C1261 H1269 0.960 . S
C1262 C1260 1.381 . S
C1262 C1263 1.394 . S
C1262 H1270 0.930 . S
C1263 C1262 1.394 . S
C1263 C1264 1.383 . S
C1263 H1271 0.929 . S
C1264 C1263 1.383 . S
C1264 C1265 1.377 . S
C1265 H1249 0.930 . S
C1265 C1264 1.377 . S
C1265 C1266 1.379 . S
C1266 H1250 0.931 . S
C1266 C1260 1.383 . S
C1266 C1265 1.379 . S
H1267 C1261 0.959 . S
H1268 C1261 0.961 . S
H1269 C1261 0.960 . S
H1270 C1262 0.930 . S
H1271 C1263 0.929 . S
H1272 C1280 0.929 . S
H1273 C1282 0.930 . S
H1274 C1284 0.930 . S
H1275 C1287 0.929 . S
H1276 C1290 0.930 . S
H1277 C1292 0.960 . S
H1278 C1292 0.960 . S
H1279 C1292 0.960 . S
C1280 H1272 0.929 . S
C1280 C1281 1.377 . S
C1280 C1282 1.384 . S
C1281 C1280 1.377 . S
C1281 C1287 1.390 . S
C1282 H1273 0.930 . S
C1282 C1280 1.384 . S
C1282 C1283 1.372 . S
C1283 C1282 1.372 . S
C1283 C1284 1.400 . S
C1283 C1288 1.490 . S
C1284 H1274 0.930 . S
C1284 C1283 1.400 . S
C1284 C1287 1.386 . S
H1285 C1301 0.930 . S
H1286 C1302 0.931 . S
C1287 H1275 0.929 . S
C1287 C1281 1.390 . S
C1287 C1284 1.386 . S
C1288 C1283 1.490 . S
C1288 C1290 1.395 . S
C1288 C1291 1.403 . S
H1289 C1295 0.930 . S
C1290 H1276 0.930 . S
C1290 C1288 1.395 . S
C1290 C1293 1.403 . S
C1291 C1288 1.403 . S
C1291 C1292 1.524 . S
C1291 C1295 1.400 . S
C1292 H1277 0.960 . S
C1292 H1278 0.960 . S
C1292 H1279 0.960 . S
C1292 C1291 1.524 . S
C1293 C1290 1.403 . S
C1293 C1294 1.392 . S
C1293 C1297 1.495 . S
C1294 C1293 1.392 . S
C1294 C1295 1.385 . S
C1294 C1296 1.478 . S
C1295 H1289 0.930 . S
C1295 C1291 1.400 . S
C1295 C1294 1.385 . S
C1296 C1294 1.478 . S
C1296 C1298 1.381 . S
C1296 C1302 1.383 . S
C1297 C1293 1.495 . S
C1297 H1303 0.959 . S
C1297 H1304 0.961 . S
C1297 H1305 0.960 . S
C1298 C1296 1.381 . S
C1298 C1299 1.394 . S
C1298 H1306 0.930 . S
C1299 C1298 1.394 . S
C1299 C1300 1.383 . S
C1299 H1307 0.929 . S
C1300 C1299 1.383 . S
C1300 C1301 1.377 . S
C1301 H1285 0.930 . S
C1301 C1300 1.377 . S
C1301 C1302 1.379 . S
C1302 H1286 0.931 . S
C1302 C1296 1.383 . S
C1302 C1301 1.379 . S
H1303 C1297 0.959 . S
H1304 C1297 0.961 . S
H1305 C1297 0.960 . S
H1306 C1298 0.930 . S
H1307 C1299 0.929 . S
H1308 C1316 0.929 . S
H1309 C1318 0.930 . S
H1310 C1320 0.930 . S
H1311 C1323 0.929 . S
H1312 C1326 0.930 . S
H1313 C1328 0.960 . S
H1314 C1328 0.960 . S
H1315 C1328 0.960 . S
C1316 H1308 0.929 . S
C1316 C1317 1.377 . S
C1316 C1318 1.384 . S
C1317 C1316 1.377 . S
C1317 C1323 1.390 . S
C1318 H1309 0.930 . S
C1318 C1316 1.384 . S
C1318 C1319 1.372 . S
C1319 C1318 1.372 . S
C1319 C1320 1.400 . S
C1319 C1324 1.490 . S
C1320 H1310 0.930 . S
C1320 C1319 1.400 . S
C1320 C1323 1.386 . S
H1321 C1337 0.930 . S
H1322 C1338 0.931 . S
C1323 H1311 0.929 . S
C1323 C1317 1.390 . S
C1323 C1320 1.386 . S
C1324 C1319 1.490 . S
C1324 C1326 1.395 . S
C1324 C1327 1.403 . S
H1325 C1331 0.930 . S
C1326 H1312 0.930 . S
C1326 C1324 1.395 . S
C1326 C1329 1.403 . S
C1327 C1324 1.403 . S
C1327 C1328 1.524 . S
C1327 C1331 1.400 . S
C1328 H1313 0.960 . S
C1328 H1314 0.960 . S
C1328 H1315 0.960 . S
C1328 C1327 1.524 . S
C1329 C1326 1.403 . S
C1329 C1330 1.392 . S
C1329 C1333 1.495 . S
C1330 C1329 1.392 . S
C1330 C1331 1.385 . S
C1330 C1332 1.478 . S
C1331 H1325 0.930 . S
C1331 C1327 1.400 . S
C1331 C1330 1.385 . S
C1332 C1330 1.478 . S
C1332 C1334 1.381 . S
C1332 C1338 1.383 . S
C1333 C1329 1.495 . S
C1333 H1339 0.959 . S
C1333 H1340 0.961 . S
C1333 H1341 0.960 . S
C1334 C1332 1.381 . S
C1334 C1335 1.394 . S
C1334 H1342 0.930 . S
C1335 C1334 1.394 . S
C1335 C1336 1.383 . S
C1335 H1343 0.929 . S
C1336 C1335 1.383 . S
C1336 C1337 1.377 . S
C1337 H1321 0.930 . S
C1337 C1336 1.377 . S
C1337 C1338 1.379 . S
C1338 H1322 0.931 . S
C1338 C1332 1.383 . S
C1338 C1337 1.379 . S
H1339 C1333 0.959 . S
H1340 C1333 0.961 . S
H1341 C1333 0.960 . S
H1342 C1334 0.930 . S
H1343 C1335 0.929 . S
H1344 C1352 0.929 . S
H1345 C1354 0.930 . S
H1346 C1356 0.930 . S
H1347 C1359 0.929 . S
H1348 C1362 0.930 . S
H1349 C1364 0.960 . S
H1350 C1364 0.960 . S
H1351 C1364 0.960 . S
C1352 H1344 0.929 . S
C1352 C1353 1.377 . S
C1352 C1354 1.384 . S
C1353 C1352 1.377 . S
C1353 C1359 1.390 . S
C1354 H1345 0.930 . S
C1354 C1352 1.384 . S
C1354 C1355 1.372 . S
C1355 C1354 1.372 . S
C1355 C1356 1.400 . S
C1355 C1360 1.490 . S
C1356 H1346 0.930 . S
C1356 C1355 1.400 . S
C1356 C1359 1.386 . S
H1357 C1373 0.930 . S
H1358 C1374 0.931 . S
C1359 H1347 0.929 . S
C1359 C1353 1.390 . S
C1359 C1356 1.386 . S
C1360 C1355 1.490 . S
C1360 C1362 1.395 . S
C1360 C1363 1.403 . S
H1361 C1367 0.930 . S
C1362 H1348 0.930 . S
C1362 C1360 1.395 . S
C1362 C1365 1.403 . S
C1363 C1360 1.403 . S
C1363 C1364 1.524 . S
C1363 C1367 1.400 . S
C1364 H1349 0.960 . S
C1364 H1350 0.960 . S
C1364 H1351 0.960 . S
C1364 C1363 1.524 . S
C1365 C1362 1.403 . S
C1365 C1366 1.392 . S
C1365 C1369 1.495 . S
C1366 C1365 1.392 . S
C1366 C1367 1.385 . S
C1366 C1368 1.478 . S
C1367 H1361 0.930 . S
C1367 C1363 1.400 . S
C1367 C1366 1.385 . S
C1368 C1366 1.478 . S
C1368 C1370 1.381 . S
C1368 C1374 1.383 . S
C1369 C1365 1.495 . S
C1369 H1375 0.959 . S
C1369 H1376 0.961 . S
C1369 H1377 0.960 . S
C1370 C1368 1.381 . S
C1370 C1371 1.394 . S
C1370 H1378 0.930 . S
C1371 C1370 1.394 . S
C1371 C1372 1.383 . S
C1371 H1379 0.929 . S
C1372 C1371 1.383 . S
C1372 C1373 1.377 . S
C1373 H1357 0.930 . S
C1373 C1372 1.377 . S
C1373 C1374 1.379 . S
C1374 H1358 0.931 . S
C1374 C1368 1.383 . S
C1374 C1373 1.379 . S
H1375 C1369 0.959 . S
H1376 C1369 0.961 . S
H1377 C1369 0.960 . S
H1378 C1370 0.930 . S
H1379 C1371 0.929 . S
H1380 C1388 0.929 . S
H1381 C1390 0.930 . S
H1382 C1392 0.930 . S
H1383 C1395 0.929 . S
H1384 C1398 0.930 . S
H1385 C1400 0.960 . S
H1386 C1400 0.960 . S
H1387 C1400 0.960 . S
C1388 H1380 0.929 . S
C1388 C1389 1.377 . S
C1388 C1390 1.384 . S
C1389 C1388 1.377 . S
C1389 C1395 1.390 . S
C1390 H1381 0.930 . S
C1390 C1388 1.384 . S
C1390 C1391 1.372 . S
C1391 C1390 1.372 . S
C1391 C1392 1.400 . S
C1391 C1396 1.490 . S
C1392 H1382 0.930 . S
C1392 C1391 1.400 . S
C1392 C1395 1.386 . S
H1393 C1409 0.930 . S
H1394 C1410 0.931 . S
C1395 H1383 0.929 . S
C1395 C1389 1.390 . S
C1395 C1392 1.386 . S
C1396 C1391 1.490 . S
C1396 C1398 1.395 . S
C1396 C1399 1.403 . S
H1397 C1403 0.930 . S
C1398 H1384 0.930 . S
C1398 C1396 1.395 . S
C1398 C1401 1.403 . S
C1399 C1396 1.403 . S
C1399 C1400 1.524 . S
C1399 C1403 1.400 . S
C1400 H1385 0.960 . S
C1400 H1386 0.960 . S
C1400 H1387 0.960 . S
C1400 C1399 1.524 . S
C1401 C1398 1.403 . S
C1401 C1402 1.392 . S
C1401 C1405 1.495 . S
C1402 C1401 1.392 . S
C1402 C1403 1.385 . S
C1402 C1404 1.478 . S
C1403 H1397 0.930 . S
C1403 C1399 1.400 . S
C1403 C1402 1.385 . S
C1404 C1402 1.478 . S
C1404 C1406 1.381 . S
C1404 C1410 1.383 . S
C1405 C1401 1.495 . S
C1405 H1411 0.959 . S
C1405 H1412 0.961 . S
C1405 H1413 0.960 . S
C1406 C1404 1.381 . S
C1406 C1407 1.394 . S
C1406 H1414 0.930 . S
C1407 C1406 1.394 . S
C1407 C1408 1.383 . S
C1407 H1415 0.929 . S
C1408 C1407 1.383 . S
C1408 C1409 1.377 . S
C1409 H1393 0.930 . S
C1409 C1408 1.377 . S
C1409 C1410 1.379 . S
C1410 H1394 0.931 . S
C1410 C1404 1.383 . S
C1410 C1409 1.379 . S
H1411 C1405 0.959 . S
H1412 C1405 0.961 . S
H1413 C1405 0.960 . S
H1414 C1406 0.930 . S
H1415 C1407 0.929 . S
H1416 C1424 0.929 . S
H1417 C1426 0.930 . S
H1418 C1428 0.930 . S
H1419 C1431 0.929 . S
H1420 C1434 0.930 . S
H1421 C1436 0.960 . S
H1422 C1436 0.960 . S
H1423 C1436 0.960 . S
C1424 H1416 0.929 . S
C1424 C1425 1.377 . S
C1424 C1426 1.384 . S
C1425 C1424 1.377 . S
C1425 C1431 1.390 . S
C1426 H1417 0.930 . S
C1426 C1424 1.384 . S
C1426 C1427 1.372 . S
C1427 C1426 1.372 . S
C1427 C1428 1.400 . S
C1427 C1432 1.490 . S
C1428 H1418 0.930 . S
C1428 C1427 1.400 . S
C1428 C1431 1.386 . S
H1429 C1445 0.930 . S
H1430 C1446 0.931 . S
C1431 H1419 0.929 . S
C1431 C1425 1.390 . S
C1431 C1428 1.386 . S
C1432 C1427 1.490 . S
C1432 C1434 1.395 . S
C1432 C1435 1.403 . S
H1433 C1439 0.930 . S
C1434 H1420 0.930 . S
C1434 C1432 1.395 . S
C1434 C1437 1.403 . S
C1435 C1432 1.403 . S
C1435 C1436 1.524 . S
C1435 C1439 1.400 . S
C1436 H1421 0.960 . S
C1436 H1422 0.960 . S
C1436 H1423 0.960 . S
C1436 C1435 1.524 . S
C1437 C1434 1.403 . S
C1437 C1438 1.392 . S
C1437 C1441 1.495 . S
C1438 C1437 1.392 . S
C1438 C1439 1.385 . S
C1438 C1440 1.478 . S
C1439 H1433 0.930 . S
C1439 C1435 1.400 . S
C1439 C1438 1.385 . S
C1440 C1438 1.478 . S
C1440 C1442 1.381 . S
C1440 C1446 1.383 . S
C1441 C1437 1.495 . S
C1441 H1447 0.959 . S
C1441 H1448 0.961 . S
C1441 H1449 0.960 . S
C1442 C1440 1.381 . S
C1442 C1443 1.394 . S
C1442 H1450 0.930 . S
C1443 C1442 1.394 . S
C1443 C1444 1.383 . S
C1443 H1451 0.929 . S
C1444 C1443 1.383 . S
C1444 C1445 1.377 . S
C1445 H1429 0.930 . S
C1445 C1444 1.377 . S
C1445 C1446 1.379 . S
C1446 H1430 0.931 . S
C1446 C1440 1.383 . S
C1446 C1445 1.379 . S
H1447 C1441 0.959 . S
H1448 C1441 0.961 . S
H1449 C1441 0.960 . S
H1450 C1442 0.930 . S
H1451 C1443 0.929 . S
H1452 C1460 0.929 . S
H1453 C1462 0.930 . S
H1454 C1464 0.930 . S
H1455 C1467 0.929 . S
H1456 C1470 0.930 . S
H1457 C1472 0.960 . S
H1458 C1472 0.960 . S
H1459 C1472 0.960 . S
C1460 H1452 0.929 . S
C1460 C1461 1.377 . S
C1460 C1462 1.384 . S
C1461 C1460 1.377 . S
C1461 C1467 1.390 . S
C1462 H1453 0.930 . S
C1462 C1460 1.384 . S
C1462 C1463 1.372 . S
C1463 C1462 1.372 . S
C1463 C1464 1.400 . S
C1463 C1468 1.490 . S
C1464 H1454 0.930 . S
C1464 C1463 1.400 . S
C1464 C1467 1.386 . S
H1465 C1481 0.930 . S
H1466 C1482 0.931 . S
C1467 H1455 0.929 . S
C1467 C1461 1.390 . S
C1467 C1464 1.386 . S
C1468 C1463 1.490 . S
C1468 C1470 1.395 . S
C1468 C1471 1.403 . S
H1469 C1475 0.930 . S
C1470 H1456 0.930 . S
C1470 C1468 1.395 . S
C1470 C1473 1.403 . S
C1471 C1468 1.403 . S
C1471 C1472 1.524 . S
C1471 C1475 1.400 . S
C1472 H1457 0.960 . S
C1472 H1458 0.960 . S
C1472 H1459 0.960 . S
C1472 C1471 1.524 . S
C1473 C1470 1.403 . S
C1473 C1474 1.392 . S
C1473 C1477 1.495 . S
C1474 C1473 1.392 . S
C1474 C1475 1.385 . S
C1474 C1476 1.478 . S
C1475 H1469 0.930 . S
C1475 C1471 1.400 . S
C1475 C1474 1.385 . S
C1476 C1474 1.478 . S
C1476 C1478 1.381 . S
C1476 C1482 1.383 . S
C1477 C1473 1.495 . S
C1477 H1483 0.959 . S
C1477 H1484 0.961 . S
C1477 H1485 0.960 . S
C1478 C1476 1.381 . S
C1478 C1479 1.394 . S
C1478 H1486 0.930 . S
C1479 C1478 1.394 . S
C1479 C1480 1.383 . S
C1479 H1487 0.929 . S
C1480 C1479 1.383 . S
C1480 C1481 1.377 . S
C1481 H1465 0.930 . S
C1481 C1480 1.377 . S
C1481 C1482 1.379 . S
C1482 H1466 0.931 . S
C1482 C1476 1.383 . S
C1482 C1481 1.379 . S
H1483 C1477 0.959 . S
H1484 C1477 0.961 . S
H1485 C1477 0.960 . S
H1486 C1478 0.930 . S
H1487 C1479 0.929 . S
H1488 C1496 0.929 . S
H1489 C1498 0.930 . S
H1490 C1500 0.930 . S
H1491 C1503 0.929 . S
H1492 C1506 0.930 . S
H1493 C1508 0.960 . S
H1494 C1508 0.960 . S
H1495 C1508 0.960 . S
C1496 H1488 0.929 . S
C1496 C1497 1.377 . S
C1496 C1498 1.384 . S
C1497 C1496 1.377 . S
C1497 C1503 1.390 . S
C1498 H1489 0.930 . S
C1498 C1496 1.384 . S
C1498 C1499 1.372 . S
C1499 C1498 1.372 . S
C1499 C1500 1.400 . S
C1499 C1504 1.490 . S
C1500 H1490 0.930 . S
C1500 C1499 1.400 . S
C1500 C1503 1.386 . S
H1501 C1517 0.930 . S
H1502 C1518 0.931 . S
C1503 H1491 0.929 . S
C1503 C1497 1.390 . S
C1503 C1500 1.386 . S
C1504 C1499 1.490 . S
C1504 C1506 1.395 . S
C1504 C1507 1.403 . S
H1505 C1511 0.930 . S
C1506 H1492 0.930 . S
C1506 C1504 1.395 . S
C1506 C1509 1.403 . S
C1507 C1504 1.403 . S
C1507 C1508 1.524 . S
C1507 C1511 1.400 . S
C1508 H1493 0.960 . S
C1508 H1494 0.960 . S
C1508 H1495 0.960 . S
C1508 C1507 1.524 . S
C1509 C1506 1.403 . S
C1509 C1510 1.392 . S
C1509 C1513 1.495 . S
C1510 C1509 1.392 . S
C1510 C1511 1.385 . S
C1510 C1512 1.478 . S
C1511 H1505 0.930 . S
C1511 C1507 1.400 . S
C1511 C1510 1.385 . S
C1512 C1510 1.478 . S
C1512 C1514 1.381 . S
C1512 C1518 1.383 . S
C1513 C1509 1.495 . S
C1513 H1519 0.959 . S
C1513 H1520 0.961 . S
C1513 H1521 0.960 . S
C1514 C1512 1.381 . S
C1514 C1515 1.394 . S
C1514 H1522 0.930 . S
C1515 C1514 1.394 . S
C1515 C1516 1.383 . S
C1515 H1523 0.929 . S
C1516 C1515 1.383 . S
C1516 C1517 1.377 . S
C1517 H1501 0.930 . S
C1517 C1516 1.377 . S
C1517 C1518 1.379 . S
C1518 H1502 0.931 . S
C1518 C1512 1.383 . S
C1518 C1517 1.379 . S
H1519 C1513 0.959 . S
H1520 C1513 0.961 . S
H1521 C1513 0.960 . S
H1522 C1514 0.930 . S
H1523 C1515 0.929 . S
H1524 C1532 0.929 1_554 S
H1525 C1534 0.930 . S
H1526 C1536 0.930 . S
H1527 C1539 0.929 . S
H1528 C1542 0.930 . S
H1529 C1544 0.960 . S
H1530 C1544 0.960 . S
H1531 C1544 0.960 . S
C1532 H1524 0.929 1_556 S
C1532 C1533 1.377 . S
C1532 C1534 1.384 . S
C1533 C1532 1.377 . S
C1533 C1539 1.390 . S
C1534 H1525 0.930 . S
C1534 C1532 1.384 . S
C1534 C1535 1.372 . S
C1535 C1534 1.372 . S
C1535 C1536 1.400 . S
C1535 C1540 1.490 . S
C1536 H1526 0.930 . S
C1536 C1535 1.400 . S
C1536 C1539 1.386 . S
H1537 C1553 0.930 . S
H1538 C1554 0.931 . S
C1539 H1527 0.929 . S
C1539 C1533 1.390 . S
C1539 C1536 1.386 . S
C1540 C1535 1.490 . S
C1540 C1542 1.395 . S
C1540 C1543 1.403 . S
H1541 C1547 0.930 . S
C1542 H1528 0.930 . S
C1542 C1540 1.395 . S
C1542 C1545 1.403 . S
C1543 C1540 1.403 . S
C1543 C1544 1.524 . S
C1543 C1547 1.400 . S
C1544 H1529 0.960 . S
C1544 H1530 0.960 . S
C1544 H1531 0.960 . S
C1544 C1543 1.524 . S
C1545 C1542 1.403 . S
C1545 C1546 1.392 . S
C1545 C1549 1.495 . S
C1546 C1545 1.392 . S
C1546 C1547 1.385 . S
C1546 C1548 1.478 . S
C1547 H1541 0.930 . S
C1547 C1543 1.400 . S
C1547 C1546 1.385 . S
C1548 C1546 1.478 . S
C1548 C1550 1.381 . S
C1548 C1554 1.383 . S
C1549 C1545 1.495 . S
C1549 H1555 0.959 . S
C1549 H1556 0.961 . S
C1549 H1557 0.960 . S
C1550 C1548 1.381 . S
C1550 C1551 1.394 . S
C1550 H1558 0.930 . S
C1551 C1550 1.394 . S
C1551 C1552 1.383 . S
C1551 H1559 0.929 . S
C1552 C1551 1.383 . S
C1552 C1553 1.377 . S
C1553 H1537 0.930 . S
C1553 C1552 1.377 . S
C1553 C1554 1.379 . S
C1554 H1538 0.931 . S
C1554 C1548 1.383 . S
C1554 C1553 1.379 . S
H1555 C1549 0.959 . S
H1556 C1549 0.961 . S
H1557 C1549 0.960 . S
H1558 C1550 0.930 . S
H1559 C1551 0.929 . S
H1560 C1568 0.929 . S
H1561 C1570 0.930 . S
H1562 C1572 0.930 . S
H1563 C1575 0.929 . S
H1564 C1578 0.930 . S
H1565 C1580 0.960 . S
H1566 C1580 0.960 . S
H1567 C1580 0.960 . S
C1568 H1560 0.929 . S
C1568 C1569 1.377 . S
C1568 C1570 1.384 . S
C1569 C1568 1.377 . S
C1569 C1575 1.390 . S
C1570 H1561 0.930 . S
C1570 C1568 1.384 . S
C1570 C1571 1.372 . S
C1571 C1570 1.372 . S
C1571 C1572 1.400 . S
C1571 C1576 1.490 . S
C1572 H1562 0.930 . S
C1572 C1571 1.400 . S
C1572 C1575 1.386 . S
H1573 C1589 0.930 . S
H1574 C1590 0.931 . S
C1575 H1563 0.929 . S
C1575 C1569 1.390 . S
C1575 C1572 1.386 . S
C1576 C1571 1.490 . S
C1576 C1578 1.395 . S
C1576 C1579 1.403 . S
H1577 C1583 0.930 . S
C1578 H1564 0.930 . S
C1578 C1576 1.395 . S
C1578 C1581 1.403 . S
C1579 C1576 1.403 . S
C1579 C1580 1.524 . S
C1579 C1583 1.400 . S
C1580 H1565 0.960 . S
C1580 H1566 0.960 . S
C1580 H1567 0.960 . S
C1580 C1579 1.524 . S
C1581 C1578 1.403 . S
C1581 C1582 1.392 . S
C1581 C1585 1.495 . S
C1582 C1581 1.392 . S
C1582 C1583 1.385 . S
C1582 C1584 1.478 . S
C1583 H1577 0.930 . S
C1583 C1579 1.400 . S
C1583 C1582 1.385 . S
C1584 C1582 1.478 . S
C1584 C1586 1.381 . S
C1584 C1590 1.383 . S
C1585 C1581 1.495 . S
C1585 H1591 0.959 . S
C1585 H1592 0.961 . S
C1585 H1593 0.960 . S
C1586 C1584 1.381 . S
C1586 C1587 1.394 . S
C1586 H1594 0.930 . S
C1587 C1586 1.394 . S
C1587 C1588 1.383 . S
C1587 H1595 0.929 . S
C1588 C1587 1.383 . S
C1588 C1589 1.377 . S
C1589 H1573 0.930 . S
C1589 C1588 1.377 . S
C1589 C1590 1.379 . S
C1590 H1574 0.931 . S
C1590 C1584 1.383 . S
C1590 C1589 1.379 . S
H1591 C1585 0.959 . S
H1592 C1585 0.961 . S
H1593 C1585 0.960 . S
H1594 C1586 0.930 . S
H1595 C1587 0.929 . S
H1596 C1604 0.929 . S
H1597 C1606 0.930 . S
H1598 C1608 0.930 . S
H1599 C1611 0.929 . S
H1600 C1614 0.930 . S
H1601 C1616 0.960 . S
H1602 C1616 0.960 . S
H1603 C1616 0.960 . S
C1604 H1596 0.929 . S
C1604 C1605 1.377 . S
C1604 C1606 1.384 . S
C1605 C1604 1.377 . S
C1605 C1611 1.390 . S
C1606 H1597 0.930 . S
C1606 C1604 1.384 . S
C1606 C1607 1.372 . S
C1607 C1606 1.372 . S
C1607 C1608 1.400 . S
C1607 C1612 1.490 . S
C1608 H1598 0.930 . S
C1608 C1607 1.400 . S
C1608 C1611 1.386 . S
H1609 C1625 0.930 . S
H1610 C1626 0.931 . S
C1611 H1599 0.929 . S
C1611 C1605 1.390 . S
C1611 C1608 1.386 . S
C1612 C1607 1.490 . S
C1612 C1614 1.395 . S
C1612 C1615 1.403 . S
H1613 C1619 0.930 . S
C1614 H1600 0.930 . S
C1614 C1612 1.395 . S
C1614 C1617 1.403 . S
C1615 C1612 1.403 . S
C1615 C1616 1.524 . S
C1615 C1619 1.400 . S
C1616 H1601 0.960 . S
C1616 H1602 0.960 . S
C1616 H1603 0.960 . S
C1616 C1615 1.524 . S
C1617 C1614 1.403 . S
C1617 C1618 1.392 . S
C1617 C1621 1.495 . S
C1618 C1617 1.392 . S
C1618 C1619 1.385 . S
C1618 C1620 1.478 . S
C1619 H1613 0.930 . S
C1619 C1615 1.400 . S
C1619 C1618 1.385 . S
C1620 C1618 1.478 . S
C1620 C1622 1.381 . S
C1620 C1626 1.383 . S
C1621 C1617 1.495 . S
C1621 H1627 0.959 . S
C1621 H1628 0.961 . S
C1621 H1629 0.960 . S
C1622 C1620 1.381 . S
C1622 C1623 1.394 . S
C1622 H1630 0.930 . S
C1623 C1622 1.394 . S
C1623 C1624 1.383 . S
C1623 H1631 0.929 . S
C1624 C1623 1.383 . S
C1624 C1625 1.377 . S
C1625 H1609 0.930 . S
C1625 C1624 1.377 . S
C1625 C1626 1.379 . S
C1626 H1610 0.931 . S
C1626 C1620 1.383 . S
C1626 C1625 1.379 . S
H1627 C1621 0.959 . S
H1628 C1621 0.961 . S
H1629 C1621 0.960 . S
H1630 C1622 0.930 . S
H1631 C1623 0.929 . S
H1632 C1640 0.929 . S
H1633 C1642 0.930 . S
H1634 C1644 0.930 . S
H1635 C1647 0.929 . S
H1636 C1650 0.930 . S
H1637 C1652 0.960 . S
H1638 C1652 0.960 . S
H1639 C1652 0.960 . S
C1640 H1632 0.929 . S
C1640 C1641 1.377 . S
C1640 C1642 1.384 . S
C1641 C1640 1.377 . S
C1641 C1647 1.390 . S
C1642 H1633 0.930 . S
C1642 C1640 1.384 . S
C1642 C1643 1.372 . S
C1643 C1642 1.372 . S
C1643 C1644 1.400 . S
C1643 C1648 1.490 . S
C1644 H1634 0.930 . S
C1644 C1643 1.400 . S
C1644 C1647 1.386 . S
H1645 C1661 0.930 . S
H1646 C1662 0.931 . S
C1647 H1635 0.929 . S
C1647 C1641 1.390 . S
C1647 C1644 1.386 . S
C1648 C1643 1.490 . S
C1648 C1650 1.395 . S
C1648 C1651 1.403 . S
H1649 C1655 0.930 . S
C1650 H1636 0.930 . S
C1650 C1648 1.395 . S
C1650 C1653 1.403 . S
C1651 C1648 1.403 . S
C1651 C1652 1.524 . S
C1651 C1655 1.400 . S
C1652 H1637 0.960 . S
C1652 H1638 0.960 . S
C1652 H1639 0.960 . S
C1652 C1651 1.524 . S
C1653 C1650 1.403 . S
C1653 C1654 1.392 . S
C1653 C1657 1.495 . S
C1654 C1653 1.392 . S
C1654 C1655 1.385 . S
C1654 C1656 1.478 . S
C1655 H1649 0.930 . S
C1655 C1651 1.400 . S
C1655 C1654 1.385 . S
C1656 C1654 1.478 . S
C1656 C1658 1.381 . S
C1656 C1662 1.383 . S
C1657 C1653 1.495 . S
C1657 H1663 0.959 . S
C1657 H1664 0.961 . S
C1657 H1665 0.960 . S
C1658 C1656 1.381 . S
C1658 C1659 1.394 . S
C1658 H1666 0.930 . S
C1659 C1658 1.394 . S
C1659 C1660 1.383 . S
C1659 H1667 0.929 . S
C1660 C1659 1.383 . S
C1660 C1661 1.377 . S
C1661 H1645 0.930 . S
C1661 C1660 1.377 . S
C1661 C1662 1.379 . S
C1662 H1646 0.931 . S
C1662 C1656 1.383 . S
C1662 C1661 1.379 . S
H1663 C1657 0.959 . S
H1664 C1657 0.961 . S
H1665 C1657 0.960 . S
H1666 C1658 0.930 . S
H1667 C1659 0.929 . S
H1668 C1676 0.929 . S
H1669 C1678 0.930 . S
H1670 C1680 0.930 . S
H1671 C1683 0.929 . S
H1672 C1686 0.930 . S
H1673 C1688 0.960 . S
H1674 C1688 0.960 . S
H1675 C1688 0.960 . S
C1676 H1668 0.929 . S
C1676 C1677 1.377 . S
C1676 C1678 1.384 . S
C1677 C1676 1.377 . S
C1677 C1683 1.390 . S
C1678 H1669 0.930 . S
C1678 C1676 1.384 . S
C1678 C1679 1.372 . S
C1679 C1678 1.372 . S
C1679 C1680 1.400 . S
C1679 C1684 1.490 . S
C1680 H1670 0.930 . S
C1680 C1679 1.400 . S
C1680 C1683 1.386 . S
H1681 C1697 0.930 . S
H1682 C1698 0.931 . S
C1683 H1671 0.929 . S
C1683 C1677 1.390 . S
C1683 C1680 1.386 . S
C1684 C1679 1.490 . S
C1684 C1686 1.395 . S
C1684 C1687 1.403 . S
H1685 C1691 0.930 . S
C1686 H1672 0.930 . S
C1686 C1684 1.395 . S
C1686 C1689 1.403 . S
C1687 C1684 1.403 . S
C1687 C1688 1.524 . S
C1687 C1691 1.400 . S
C1688 H1673 0.960 . S
C1688 H1674 0.960 . S
C1688 H1675 0.960 . S
C1688 C1687 1.524 . S
C1689 C1686 1.403 . S
C1689 C1690 1.392 . S
C1689 C1693 1.495 . S
C1690 C1689 1.392 . S
C1690 C1691 1.385 . S
C1690 C1692 1.478 . S
C1691 H1685 0.930 . S
C1691 C1687 1.400 . S
C1691 C1690 1.385 . S
C1692 C1690 1.478 . S
C1692 C1694 1.381 . S
C1692 C1698 1.383 . S
C1693 C1689 1.495 . S
C1693 H1699 0.959 . S
C1693 H1700 0.961 . S
C1693 H1701 0.960 . S
C1694 C1692 1.381 . S
C1694 C1695 1.394 . S
C1694 H1702 0.930 . S
C1695 C1694 1.394 . S
C1695 C1696 1.383 . S
C1695 H1703 0.929 . S
C1696 C1695 1.383 . S
C1696 C1697 1.377 . S
C1697 H1681 0.930 . S
C1697 C1696 1.377 . S
C1697 C1698 1.379 . S
C1698 H1682 0.931 . S
C1698 C1692 1.383 . S
C1698 C1697 1.379 . S
H1699 C1693 0.959 . S
H1700 C1693 0.961 . S
H1701 C1693 0.960 . S
H1702 C1694 0.930 . S
H1703 C1695 0.929 . S
H1704 C1712 0.929 . S
H1705 C1714 0.930 . S
H1706 C1716 0.930 . S
H1707 C1719 0.929 . S
H1708 C1722 0.930 . S
H1709 C1724 0.960 . S
H1710 C1724 0.960 . S
H1711 C1724 0.960 . S
C1712 H1704 0.929 . S
C1712 C1713 1.377 . S
C1712 C1714 1.384 . S
C1713 C1712 1.377 . S
C1713 C1719 1.390 . S
C1714 H1705 0.930 . S
C1714 C1712 1.384 . S
C1714 C1715 1.372 . S
C1715 C1714 1.372 . S
C1715 C1716 1.400 . S
C1715 C1720 1.490 . S
C1716 H1706 0.930 . S
C1716 C1715 1.400 . S
C1716 C1719 1.386 . S
H1717 C1733 0.930 . S
H1718 C1734 0.931 . S
C1719 H1707 0.929 . S
C1719 C1713 1.390 . S
C1719 C1716 1.386 . S
C1720 C1715 1.490 . S
C1720 C1722 1.395 . S
C1720 C1723 1.403 . S
H1721 C1727 0.930 . S
C1722 H1708 0.930 . S
C1722 C1720 1.395 . S
C1722 C1725 1.403 . S
C1723 C1720 1.403 . S
C1723 C1724 1.524 . S
C1723 C1727 1.400 . S
C1724 H1709 0.960 . S
C1724 H1710 0.960 . S
C1724 H1711 0.960 . S
C1724 C1723 1.524 . S
C1725 C1722 1.403 . S
C1725 C1726 1.392 . S
C1725 C1729 1.495 . S
C1726 C1725 1.392 . S
C1726 C1727 1.385 . S
C1726 C1728 1.478 . S
C1727 H1721 0.930 . S
C1727 C1723 1.400 . S
C1727 C1726 1.385 . S
C1728 C1726 1.478 . S
C1728 C1730 1.381 . S
C1728 C1734 1.383 . S
C1729 C1725 1.495 . S
C1729 H1735 0.959 . S
C1729 H1736 0.961 . S
C1729 H1737 0.960 . S
C1730 C1728 1.381 . S
C1730 C1731 1.394 . S
C1730 H1738 0.930 . S
C1731 C1730 1.394 . S
C1731 C1732 1.383 . S
C1731 H1739 0.929 . S
C1732 C1731 1.383 . S
C1732 C1733 1.377 . S
C1733 H1717 0.930 . S
C1733 C1732 1.377 . S
C1733 C1734 1.379 . S
C1734 H1718 0.931 . S
C1734 C1728 1.383 . S
C1734 C1733 1.379 . S
H1735 C1729 0.959 . S
H1736 C1729 0.961 . S
H1737 C1729 0.960 . S
H1738 C1730 0.930 . S
H1739 C1731 0.929 . S
H1740 C1748 0.929 . S
H1741 C1750 0.930 . S
H1742 C1752 0.930 . S
H1743 C1755 0.929 . S
H1744 C1758 0.930 . S
H1745 C1760 0.960 . S
H1746 C1760 0.960 . S
H1747 C1760 0.960 . S
C1748 H1740 0.929 . S
C1748 C1749 1.377 . S
C1748 C1750 1.384 . S
C1749 C1748 1.377 . S
C1749 C1755 1.390 . S
C1750 H1741 0.930 . S
C1750 C1748 1.384 . S
C1750 C1751 1.372 . S
C1751 C1750 1.372 . S
C1751 C1752 1.400 . S
C1751 C1756 1.490 . S
C1752 H1742 0.930 . S
C1752 C1751 1.400 . S
C1752 C1755 1.386 . S
H1753 C1769 0.930 . S
H1754 C1770 0.931 . S
C1755 H1743 0.929 . S
C1755 C1749 1.390 . S
C1755 C1752 1.386 . S
C1756 C1751 1.490 . S
C1756 C1758 1.395 . S
C1756 C1759 1.403 . S
H1757 C1763 0.930 . S
C1758 H1744 0.930 . S
C1758 C1756 1.395 . S
C1758 C1761 1.403 . S
C1759 C1756 1.403 . S
C1759 C1760 1.524 . S
C1759 C1763 1.400 . S
C1760 H1745 0.960 . S
C1760 H1746 0.960 . S
C1760 H1747 0.960 . S
C1760 C1759 1.524 . S
C1761 C1758 1.403 . S
C1761 C1762 1.392 . S
C1761 C1765 1.495 . S
C1762 C1761 1.392 . S
C1762 C1763 1.385 . S
C1762 C1764 1.478 . S
C1763 H1757 0.930 . S
C1763 C1759 1.400 . S
C1763 C1762 1.385 . S
C1764 C1762 1.478 . S
C1764 C1766 1.381 . S
C1764 C1770 1.383 . S
C1765 C1761 1.495 . S
C1765 H1771 0.959 . S
C1765 H1772 0.961 . S
C1765 H1773 0.960 . S
C1766 C1764 1.381 . S
C1766 C1767 1.394 . S
C1766 H1774 0.930 . S
C1767 C1766 1.394 . S
C1767 C1768 1.383 . S
C1767 H1775 0.929 . S
C1768 C1767 1.383 . S
C1768 C1769 1.377 . S
C1769 H1753 0.930 . S
C1769 C1768 1.377 . S
C1769 C1770 1.379 . S
C1770 H1754 0.931 . S
C1770 C1764 1.383 . S
C1770 C1769 1.379 . S
H1771 C1765 0.959 . S
H1772 C1765 0.961 . S
H1773 C1765 0.960 . S
H1774 C1766 0.930 . S
H1775 C1767 0.929 . S
H1776 C1784 0.929 . S
H1777 C1786 0.930 . S
H1778 C1788 0.930 . S
H1779 C1791 0.929 . S
H1780 C1794 0.930 . S
H1781 C1796 0.960 . S
H1782 C1796 0.960 . S
H1783 C1796 0.960 . S
C1784 H1776 0.929 . S
C1784 C1785 1.377 . S
C1784 C1786 1.384 . S
C1785 C1784 1.377 . S
C1785 C1791 1.390 . S
C1786 H1777 0.930 . S
C1786 C1784 1.384 . S
C1786 C1787 1.372 . S
C1787 C1786 1.372 . S
C1787 C1788 1.400 . S
C1787 C1792 1.490 . S
C1788 H1778 0.930 . S
C1788 C1787 1.400 . S
C1788 C1791 1.386 . S
H1789 C1805 0.930 . S
H1790 C1806 0.931 . S
C1791 H1779 0.929 . S
C1791 C1785 1.390 . S
C1791 C1788 1.386 . S
C1792 C1787 1.490 . S
C1792 C1794 1.395 . S
C1792 C1795 1.403 . S
H1793 C1799 0.930 . S
C1794 H1780 0.930 . S
C1794 C1792 1.395 . S
C1794 C1797 1.403 . S
C1795 C1792 1.403 . S
C1795 C1796 1.524 . S
C1795 C1799 1.400 . S
C1796 H1781 0.960 . S
C1796 H1782 0.960 . S
C1796 H1783 0.960 . S
C1796 C1795 1.524 . S
C1797 C1794 1.403 . S
C1797 C1798 1.392 . S
C1797 C1801 1.495 . S
C1798 C1797 1.392 . S
C1798 C1799 1.385 . S
C1798 C1800 1.478 . S
C1799 H1793 0.930 . S
C1799 C1795 1.400 . S
C1799 C1798 1.385 . S
C1800 C1798 1.478 . S
C1800 C1802 1.381 . S
C1800 C1806 1.383 . S
C1801 C1797 1.495 . S
C1801 H1807 0.959 . S
C1801 H1808 0.961 . S
C1801 H1809 0.960 . S
C1802 C1800 1.381 . S
C1802 C1803 1.394 . S
C1802 H1810 0.930 . S
C1803 C1802 1.394 . S
C1803 C1804 1.383 . S
C1803 H1811 0.929 . S
C1804 C1803 1.383 . S
C1804 C1805 1.377 . S
C1805 H1789 0.930 . S
C1805 C1804 1.377 . S
C1805 C1806 1.379 . S
C1806 H1790 0.931 . S
C1806 C1800 1.383 . S
C1806 C1805 1.379 . S
H1807 C1801 0.959 . S
H1808 C1801 0.961 . S
H1809 C1801 0.960 . S
H1810 C1802 0.930 . S
H1811 C1803 0.929 . S
H1812 C1820 0.929 . S
H1813 C1822 0.930 . S
H1814 C1824 0.930 . S
H1815 C1827 0.929 . S
H1816 C1830 0.930 . S
H1817 C1832 0.960 . S
H1818 C1832 0.960 . S
H1819 C1832 0.960 . S
C1820 H1812 0.929 . S
C1820 C1821 1.377 . S
C1820 C1822 1.384 . S
C1821 C1820 1.377 . S
C1821 C1827 1.390 . S
C1822 H1813 0.930 . S
C1822 C1820 1.384 . S
C1822 C1823 1.372 . S
C1823 C1822 1.372 . S
C1823 C1824 1.400 . S
C1823 C1828 1.490 . S
C1824 H1814 0.930 . S
C1824 C1823 1.400 . S
C1824 C1827 1.386 . S
H1825 C1841 0.930 . S
H1826 C1842 0.931 . S
C1827 H1815 0.929 . S
C1827 C1821 1.390 . S
C1827 C1824 1.386 . S
C1828 C1823 1.490 . S
C1828 C1830 1.395 . S
C1828 C1831 1.403 . S
H1829 C1835 0.930 . S
C1830 H1816 0.930 . S
C1830 C1828 1.395 . S
C1830 C1833 1.403 . S
C1831 C1828 1.403 . S
C1831 C1832 1.524 . S
C1831 C1835 1.400 . S
C1832 H1817 0.960 . S
C1832 H1818 0.960 . S
C1832 H1819 0.960 . S
C1832 C1831 1.524 . S
C1833 C1830 1.403 . S
C1833 C1834 1.392 . S
C1833 C1837 1.495 . S
C1834 C1833 1.392 . S
C1834 C1835 1.385 . S
C1834 C1836 1.478 . S
C1835 H1829 0.930 . S
C1835 C1831 1.400 . S
C1835 C1834 1.385 . S
C1836 C1834 1.478 . S
C1836 C1838 1.381 . S
C1836 C1842 1.383 . S
C1837 C1833 1.495 . S
C1837 H1843 0.959 . S
C1837 H1844 0.961 . S
C1837 H1845 0.960 . S
C1838 C1836 1.381 . S
C1838 C1839 1.394 . S
C1838 H1846 0.930 . S
C1839 C1838 1.394 . S
C1839 C1840 1.383 . S
C1839 H1847 0.929 . S
C1840 C1839 1.383 . S
C1840 C1841 1.377 . S
C1841 H1825 0.930 . S
C1841 C1840 1.377 . S
C1841 C1842 1.379 . S
C1842 H1826 0.931 . S
C1842 C1836 1.383 . S
C1842 C1841 1.379 . S
H1843 C1837 0.959 . S
H1844 C1837 0.961 . S
H1845 C1837 0.960 . S
H1846 C1838 0.930 . S
H1847 C1839 0.929 . S
H1848 C1856 0.929 . S
H1849 C1858 0.930 . S
H1850 C1860 0.930 . S
H1851 C1863 0.929 . S
H1852 C1866 0.930 . S
H1853 C1868 0.960 . S
H1854 C1868 0.960 . S
H1855 C1868 0.960 . S
C1856 H1848 0.929 . S
C1856 C1857 1.377 . S
C1856 C1858 1.384 . S
C1857 C1856 1.377 . S
C1857 C1863 1.390 . S
C1858 H1849 0.930 . S
C1858 C1856 1.384 . S
C1858 C1859 1.372 . S
C1859 C1858 1.372 . S
C1859 C1860 1.400 . S
C1859 C1864 1.490 . S
C1860 H1850 0.930 . S
C1860 C1859 1.400 . S
C1860 C1863 1.386 . S
H1861 C1877 0.930 . S
H1862 C1878 0.931 . S
C1863 H1851 0.929 . S
C1863 C1857 1.390 . S
C1863 C1860 1.386 . S
C1864 C1859 1.490 . S
C1864 C1866 1.395 . S
C1864 C1867 1.403 . S
H1865 C1871 0.930 . S
C1866 H1852 0.930 . S
C1866 C1864 1.395 . S
C1866 C1869 1.403 . S
C1867 C1864 1.403 . S
C1867 C1868 1.524 . S
C1867 C1871 1.400 . S
C1868 H1853 0.960 . S
C1868 H1854 0.960 . S
C1868 H1855 0.960 . S
C1868 C1867 1.524 . S
C1869 C1866 1.403 . S
C1869 C1870 1.392 . S
C1869 C1873 1.495 . S
C1870 C1869 1.392 . S
C1870 C1871 1.385 . S
C1870 C1872 1.478 . S
C1871 H1865 0.930 . S
C1871 C1867 1.400 . S
C1871 C1870 1.385 . S
C1872 C1870 1.478 . S
C1872 C1874 1.381 . S
C1872 C1878 1.383 . S
C1873 C1869 1.495 . S
C1873 H1879 0.959 . S
C1873 H1880 0.961 . S
C1873 H1881 0.960 . S
C1874 C1872 1.381 . S
C1874 C1875 1.394 . S
C1874 H1882 0.930 . S
C1875 C1874 1.394 . S
C1875 C1876 1.383 . S
C1875 H1883 0.929 . S
C1876 C1875 1.383 . S
C1876 C1877 1.377 . S
C1877 H1861 0.930 . S
C1877 C1876 1.377 . S
C1877 C1878 1.379 . S
C1878 H1862 0.931 . S
C1878 C1872 1.383 . S
C1878 C1877 1.379 . S
H1879 C1873 0.959 . S
H1880 C1873 0.961 . S
H1881 C1873 0.960 . S
H1882 C1874 0.930 . S
H1883 C1875 0.929 . S
H1884 C1892 0.929 . S
H1885 C1894 0.930 . S
H1886 C1896 0.930 . S
H1887 C1899 0.929 . S
H1888 C1902 0.930 . S
H1889 C1904 0.960 . S
H1890 C1904 0.960 . S
H1891 C1904 0.960 . S
C1892 H1884 0.929 . S
C1892 C1893 1.377 . S
C1892 C1894 1.384 . S
C1893 C1892 1.377 . S
C1893 C1899 1.390 . S
C1894 H1885 0.930 . S
C1894 C1892 1.384 . S
C1894 C1895 1.372 . S
C1895 C1894 1.372 . S
C1895 C1896 1.400 . S
C1895 C1900 1.490 . S
C1896 H1886 0.930 . S
C1896 C1895 1.400 . S
C1896 C1899 1.386 . S
H1897 C1913 0.930 . S
H1898 C1914 0.931 . S
C1899 H1887 0.929 . S
C1899 C1893 1.390 . S
C1899 C1896 1.386 . S
C1900 C1895 1.490 . S
C1900 C1902 1.395 . S
C1900 C1903 1.403 . S
H1901 C1907 0.930 . S
C1902 H1888 0.930 . S
C1902 C1900 1.395 . S
C1902 C1905 1.403 . S
C1903 C1900 1.403 . S
C1903 C1904 1.524 . S
C1903 C1907 1.400 . S
C1904 H1889 0.960 . S
C1904 H1890 0.960 . S
C1904 H1891 0.960 . S
C1904 C1903 1.524 . S
C1905 C1902 1.403 . S
C1905 C1906 1.392 . S
C1905 C1909 1.495 . S
C1906 C1905 1.392 . S
C1906 C1907 1.385 . S
C1906 C1908 1.478 . S
C1907 H1901 0.930 . S
C1907 C1903 1.400 . S
C1907 C1906 1.385 . S
C1908 C1906 1.478 . S
C1908 C1910 1.381 . S
C1908 C1914 1.383 . S
C1909 C1905 1.495 . S
C1909 H1915 0.959 . S
C1909 H1916 0.961 . S
C1909 H1917 0.960 . S
C1910 C1908 1.381 . S
C1910 C1911 1.394 . S
C1910 H1918 0.930 . S
C1911 C1910 1.394 . S
C1911 C1912 1.383 . S
C1911 H1919 0.929 . S
C1912 C1911 1.383 . S
C1912 C1913 1.377 . S
C1913 H1897 0.930 . S
C1913 C1912 1.377 . S
C1913 C1914 1.379 . S
C1914 H1898 0.931 . S
C1914 C1908 1.383 . S
C1914 C1913 1.379 . S
H1915 C1909 0.959 . S
H1916 C1909 0.961 . S
H1917 C1909 0.960 . S
H1918 C1910 0.930 . S
H1919 C1911 0.929 . S
H1920 C1928 0.929 . S
H1921 C1930 0.930 . S
H1922 C1932 0.930 . S
H1923 C1935 0.929 . S
H1924 C1938 0.930 . S
H1925 C1940 0.960 . S
H1926 C1940 0.960 . S
H1927 C1940 0.960 . S
C1928 H1920 0.929 . S
C1928 C1929 1.377 . S
C1928 C1930 1.384 . S
C1929 C1928 1.377 . S
C1929 C1935 1.390 . S
C1930 H1921 0.930 . S
C1930 C1928 1.384 . S
C1930 C1931 1.372 . S
C1931 C1930 1.372 . S
C1931 C1932 1.400 . S
C1931 C1936 1.490 . S
C1932 H1922 0.930 . S
C1932 C1931 1.400 . S
C1932 C1935 1.386 . S
H1933 C1949 0.930 . S
H1934 C1950 0.931 . S
C1935 H1923 0.929 . S
C1935 C1929 1.390 . S
C1935 C1932 1.386 . S
C1936 C1931 1.490 . S
C1936 C1938 1.395 . S
C1936 C1939 1.403 . S
H1937 C1943 0.930 . S
C1938 H1924 0.930 . S
C1938 C1936 1.395 . S
C1938 C1941 1.403 . S
C1939 C1936 1.403 . S
C1939 C1940 1.524 . S
C1939 C1943 1.400 . S
C1940 H1925 0.960 . S
C1940 H1926 0.960 . S
C1940 H1927 0.960 . S
C1940 C1939 1.524 . S
C1941 C1938 1.403 . S
C1941 C1942 1.392 . S
C1941 C1945 1.495 . S
C1942 C1941 1.392 . S
C1942 C1943 1.385 . S
C1942 C1944 1.478 . S
C1943 H1937 0.930 . S
C1943 C1939 1.400 . S
C1943 C1942 1.385 . S
C1944 C1942 1.478 . S
C1944 C1946 1.381 . S
C1944 C1950 1.383 . S
C1945 C1941 1.495 . S
C1945 H1951 0.959 . S
C1945 H1952 0.961 . S
C1945 H1953 0.960 . S
C1946 C1944 1.381 . S
C1946 C1947 1.394 . S
C1946 H1954 0.930 . S
C1947 C1946 1.394 . S
C1947 C1948 1.383 . S
C1947 H1955 0.929 . S
C1948 C1947 1.383 . S
C1948 C1949 1.377 . S
C1949 H1933 0.930 . S
C1949 C1948 1.377 . S
C1949 C1950 1.379 . S
C1950 H1934 0.931 . S
C1950 C1944 1.383 . S
C1950 C1949 1.379 . S
H1951 C1945 0.959 . S
H1952 C1945 0.961 . S
H1953 C1945 0.960 . S
H1954 C1946 0.930 . S
H1955 C1947 0.929 . S
H1956 C1964 0.929 . S
H1957 C1966 0.930 . S
H1958 C1968 0.930 . S
H1959 C1971 0.929 . S
H1960 C1974 0.930 . S
H1961 C1976 0.960 . S
H1962 C1976 0.960 . S
H1963 C1976 0.960 . S
C1964 H1956 0.929 . S
C1964 C1965 1.377 . S
C1964 C1966 1.384 . S
C1965 C1964 1.377 . S
C1965 C1971 1.390 . S
C1966 H1957 0.930 . S
C1966 C1964 1.384 . S
C1966 C1967 1.372 . S
C1967 C1966 1.372 . S
C1967 C1968 1.400 . S
C1967 C1972 1.490 . S
C1968 H1958 0.930 . S
C1968 C1967 1.400 . S
C1968 C1971 1.386 . S
H1969 C1985 0.930 . S
H1970 C1986 0.931 . S
C1971 H1959 0.929 . S
C1971 C1965 1.390 . S
C1971 C1968 1.386 . S
C1972 C1967 1.490 . S
C1972 C1974 1.395 . S
C1972 C1975 1.403 . S
H1973 C1979 0.930 . S
C1974 H1960 0.930 . S
C1974 C1972 1.395 . S
C1974 C1977 1.403 . S
C1975 C1972 1.403 . S
C1975 C1976 1.524 . S
C1975 C1979 1.400 . S
C1976 H1961 0.960 . S
C1976 H1962 0.960 . S
C1976 H1963 0.960 . S
C1976 C1975 1.524 . S
C1977 C1974 1.403 . S
C1977 C1978 1.392 . S
C1977 C1981 1.495 . S
C1978 C1977 1.392 . S
C1978 C1979 1.385 . S
C1978 C1980 1.478 . S
C1979 H1973 0.930 . S
C1979 C1975 1.400 . S
C1979 C1978 1.385 . S
C1980 C1978 1.478 . S
C1980 C1982 1.381 . S
C1980 C1986 1.383 . S
C1981 C1977 1.495 . S
C1981 H1987 0.959 . S
C1981 H1988 0.961 . S
C1981 H1989 0.960 . S
C1982 C1980 1.381 . S
C1982 C1983 1.394 . S
C1982 H1990 0.930 . S
C1983 C1982 1.394 . S
C1983 C1984 1.383 . S
C1983 H1991 0.929 . S
C1984 C1983 1.383 . S
C1984 C1985 1.377 . S
C1985 H1969 0.930 . S
C1985 C1984 1.377 . S
C1985 C1986 1.379 . S
C1986 H1970 0.931 . S
C1986 C1980 1.383 . S
C1986 C1985 1.379 . S
H1987 C1981 0.959 . S
H1988 C1981 0.961 . S
H1989 C1981 0.960 . S
H1990 C1982 0.930 . S
H1991 C1983 0.929 . S
H1992 C2000 0.929 . S
H1993 C2002 0.930 . S
H1994 C2004 0.930 . S
H1995 C2007 0.929 . S
H1996 C2010 0.930 . S
H1997 C2012 0.960 . S
H1998 C2012 0.960 . S
H1999 C2012 0.960 . S
C2000 H1992 0.929 . S
C2000 C2001 1.377 . S
C2000 C2002 1.384 . S
C2001 C2000 1.377 . S
C2001 C2007 1.390 . S
C2002 H1993 0.930 . S
C2002 C2000 1.384 . S
C2002 C2003 1.372 . S
C2003 C2002 1.372 . S
C2003 C2004 1.400 . S
C2003 C2008 1.490 . S
C2004 H1994 0.930 . S
C2004 C2003 1.400 . S
C2004 C2007 1.386 . S
H2005 C2021 0.930 . S
H2006 C2022 0.931 . S
C2007 H1995 0.929 . S
C2007 C2001 1.390 . S
C2007 C2004 1.386 . S
C2008 C2003 1.490 . S
C2008 C2010 1.395 . S
C2008 C2011 1.403 . S
H2009 C2015 0.930 . S
C2010 H1996 0.930 . S
C2010 C2008 1.395 . S
C2010 C2013 1.403 . S
C2011 C2008 1.403 . S
C2011 C2012 1.524 . S
C2011 C2015 1.400 . S
C2012 H1997 0.960 . S
C2012 H1998 0.960 . S
C2012 H1999 0.960 . S
C2012 C2011 1.524 . S
C2013 C2010 1.403 . S
C2013 C2014 1.392 . S
C2013 C2017 1.495 . S
C2014 C2013 1.392 . S
C2014 C2015 1.385 . S
C2014 C2016 1.478 . S
C2015 H2009 0.930 . S
C2015 C2011 1.400 . S
C2015 C2014 1.385 . S
C2016 C2014 1.478 . S
C2016 C2018 1.381 . S
C2016 C2022 1.383 . S
C2017 C2013 1.495 . S
C2017 H2023 0.959 . S
C2017 H2024 0.961 . S
C2017 H2025 0.960 . S
C2018 C2016 1.381 . S
C2018 C2019 1.394 . S
C2018 H2026 0.930 . S
C2019 C2018 1.394 . S
C2019 C2020 1.383 . S
C2019 H2027 0.929 . S
C2020 C2019 1.383 . S
C2020 C2021 1.377 . S
C2021 H2005 0.930 . S
C2021 C2020 1.377 . S
C2021 C2022 1.379 . S
C2022 H2006 0.931 . S
C2022 C2016 1.383 . S
C2022 C2021 1.379 . S
H2023 C2017 0.959 . S
H2024 C2017 0.961 . S
H2025 C2017 0.960 . S
H2026 C2018 0.930 . S
H2027 C2019 0.929 . S
H2028 C2036 0.929 . S
H2029 C2038 0.930 . S
H2030 C2040 0.930 . S
H2031 C2043 0.929 . S
H2032 C2046 0.930 . S
H2033 C2048 0.960 . S
H2034 C2048 0.960 . S
H2035 C2048 0.960 . S
C2036 H2028 0.929 . S
C2036 C2037 1.377 . S
C2036 C2038 1.384 . S
C2037 C2036 1.377 . S
C2037 C2043 1.390 . S
C2038 H2029 0.930 . S
C2038 C2036 1.384 . S
C2038 C2039 1.372 . S
C2039 C2038 1.372 . S
C2039 C2040 1.400 . S
C2039 C2044 1.490 . S
C2040 H2030 0.930 . S
C2040 C2039 1.400 . S
C2040 C2043 1.386 . S
H2041 C2057 0.930 . S
H2042 C2058 0.931 . S
C2043 H2031 0.929 . S
C2043 C2037 1.390 . S
C2043 C2040 1.386 . S
C2044 C2039 1.490 . S
C2044 C2046 1.395 . S
C2044 C2047 1.403 . S
H2045 C2051 0.930 . S
C2046 H2032 0.930 . S
C2046 C2044 1.395 . S
C2046 C2049 1.403 . S
C2047 C2044 1.403 . S
C2047 C2048 1.524 . S
C2047 C2051 1.400 . S
C2048 H2033 0.960 . S
C2048 H2034 0.960 . S
C2048 H2035 0.960 . S
C2048 C2047 1.524 . S
C2049 C2046 1.403 . S
C2049 C2050 1.392 . S
C2049 C2053 1.495 . S
C2050 C2049 1.392 . S
C2050 C2051 1.385 . S
C2050 C2052 1.478 . S
C2051 H2045 0.930 . S
C2051 C2047 1.400 . S
C2051 C2050 1.385 . S
C2052 C2050 1.478 . S
C2052 C2054 1.381 . S
C2052 C2058 1.383 . S
C2053 C2049 1.495 . S
C2053 H2059 0.959 . S
C2053 H2060 0.961 . S
C2053 H2061 0.960 . S
C2054 C2052 1.381 . S
C2054 C2055 1.394 . S
C2054 H2062 0.930 . S
C2055 C2054 1.394 . S
C2055 C2056 1.383 . S
C2055 H2063 0.929 . S
C2056 C2055 1.383 . S
C2056 C2057 1.377 . S
C2057 H2041 0.930 . S
C2057 C2056 1.377 . S
C2057 C2058 1.379 . S
C2058 H2042 0.931 . S
C2058 C2052 1.383 . S
C2058 C2057 1.379 . S
H2059 C2053 0.959 . S
H2060 C2053 0.961 . S
H2061 C2053 0.960 . S
H2062 C2054 0.930 . S
H2063 C2055 0.929 . S
C345 C203 1.456 . S
C364 C6 1.457 . S
C381 C21 1.456 . S
C400 C216 1.457 . S
C417 C261 1.713 . S
C436 C37 1.695 . S
C453 C50 2.195 . S
C472 C190 2.191 . S
C489 C204 2.196 . S
C508 C64 2.185 . S
C525 C79 1.710 . S
C544 C219 1.719 . S
C561 C91 1.451 . S
C580 C258 1.425 . S
C597 C104 1.437 . S
C616 C189 1.436 . S
C633 C133 1.456 . S
C652 C118 1.456 . S
C669 C148 2.195 . S
C688 C134 2.197 . S
C705 C147 1.450 . S
C724 C160 1.416 . S
C741 C163 1.713 . S
C760 C121 1.708 . S
C777 C174 1.441 . S
C796 C49 1.453 . S
C813 C63 1.454 . S
C832 C230 1.441 . S
C849 C246 2.196 . S
C868 C22 2.186 . S
C885 C20 1.581 . S
C904 C302 1.599 . S
C921 C132 1.584 . S
C940 C8 1.609 . S
C957 C331 1.800 . S
C976 C51 1.791 . S
C993 C161 0.806 . S
C1012 C35 0.841 . S
C1029 C301 0.818 . S
C1048 C105 0.791 . S
C1065 C135 1.797 . S
C1084 C93 1.779 . S
C1101 C78 1.600 . S
C1120 C328 1.582 . S
C1137 C62 1.584 . S
C1156 C162 1.608 . S
C1173 C218 1.598 . S
C1192 C272 1.562 . S
C1209 C231 0.808 . S
C1228 C217 0.827 . S
C1245 C188 1.586 . S
C1264 C232 1.606 . S
C1281 C275 1.797 . S
C1300 C191 1.778 . S
C1317 C36 1.604 . S
C1336 C286 1.596 . S
C1353 C146 1.580 . S
C1372 C106 1.587 . S
C1389 C7 0.806 . S
C1408 C315 0.839 . S
C1425 C273 1.454 . S
C1444 C34 1.446 . S
C1461 C9 1.711 . S
C1480 C233 1.718 . S
C1497 C274 2.195 . S
C1516 C92 2.197 . S
C1533 C177 1.714 . S
C1552 C107 1.701 . S
C1569 C76 1.445 . S
C1588 C245 1.467 . S
C1605 C300 1.441 . S
C1624 C287 1.449 . S
C1641 C330 2.197 . S
C1660 C288 2.202 . S
C1677 C314 1.437 . S
C1696 C329 1.438 . S
C1713 C303 1.714 . S
C1732 C317 1.695 . S
C1749 C120 1.603 . S
C1768 C48 1.586 . S
C1785 C23 1.794 . S
C1804 C149 1.794 . S
C1821 C77 0.813 . S
C1840 C119 0.798 . S
C1857 C289 1.797 . S
C1876 C65 1.779 . S
C1893 C90 1.579 . S
C1912 C316 1.585 . S
C1929 C176 1.603 . S
C1948 C202 1.598 . S
C1965 C259 0.816 . S
C1984 C175 0.801 . S
C2001 C244 1.578 . S
C2020 C260 1.585 . S
C2037 C205 1.795 . S
C2056 C247 1.797 . S
