# Generated by pormake.
# Topology vby, (6)-cn, num edge types: 1
# Building blocks:
#     Node 0, Type 0, BuildingBlock: PAMTUU_clean_sbu_0, # of connection points: 6
#     Node 1, Type 0, BuildingBlock: PAMTUU_clean_sbu_0, # of connection points: 6
#     Node 2, Type 0, BuildingBlock: PAMTUU_clean_sbu_0, # of connection points: 6
#     Node 3, Type 0, BuildingBlock: PAMTUU_clean_sbu_0, # of connection points: 6
#     Node 4, Type 0, BuildingBlock: PAMTUU_clean_sbu_0, # of connection points: 6
#     Node 5, Type 0, BuildingBlock: PAMTUU_clean_sbu_0, # of connection points: 6
#     Node 6, Type 0, BuildingBlock: PAMTUU_clean_sbu_0, # of connection points: 6
#     Node 7, Type 0, BuildingBlock: PAMTUU_clean_sbu_0, # of connection points: 6
#     Edge 8, Type (0, 0), BuildingBlock: KIFKEQ_clean_linker_1, # of connection points: 2
#     Edge 9, Type (0, 0), BuildingBlock: KIFKEQ_clean_linker_1, # of connection points: 2
#     Edge 10, Type (0, 0), BuildingBlock: KIFKEQ_clean_linker_1, # of connection points: 2
#     Edge 11, Type (0, 0), BuildingBlock: KIFKEQ_clean_linker_1, # of connection points: 2
#     Edge 12, Type (0, 0), BuildingBlock: KIFKEQ_clean_linker_1, # of connection points: 2
#     Edge 13, Type (0, 0), BuildingBlock: KIFKEQ_clean_linker_1, # of connection points: 2
#     Edge 14, Type (0, 0), BuildingBlock: KIFKEQ_clean_linker_1, # of connection points: 2
#     Edge 15, Type (0, 0), BuildingBlock: KIFKEQ_clean_linker_1, # of connection points: 2
#     Edge 16, Type (0, 0), BuildingBlock: KIFKEQ_clean_linker_1, # of connection points: 2
#     Edge 17, Type (0, 0), BuildingBlock: KIFKEQ_clean_linker_1, # of connection points: 2
#     Edge 18, Type (0, 0), BuildingBlock: KIFKEQ_clean_linker_1, # of connection points: 2
#     Edge 19, Type (0, 0), BuildingBlock: KIFKEQ_clean_linker_1, # of connection points: 2
#     Edge 20, Type (0, 0), BuildingBlock: KIFKEQ_clean_linker_1, # of connection points: 2
#     Edge 21, Type (0, 0), BuildingBlock: KIFKEQ_clean_linker_1, # of connection points: 2
#     Edge 22, Type (0, 0), BuildingBlock: KIFKEQ_clean_linker_1, # of connection points: 2
#     Edge 23, Type (0, 0), BuildingBlock: KIFKEQ_clean_linker_1, # of connection points: 2
#     Edge 24, Type (0, 0), BuildingBlock: KIFKEQ_clean_linker_1, # of connection points: 2
#     Edge 25, Type (0, 0), BuildingBlock: KIFKEQ_clean_linker_1, # of connection points: 2
#     Edge 26, Type (0, 0), BuildingBlock: KIFKEQ_clean_linker_1, # of connection points: 2
#     Edge 27, Type (0, 0), BuildingBlock: KIFKEQ_clean_linker_1, # of connection points: 2
#     Edge 28, Type (0, 0), BuildingBlock: KIFKEQ_clean_linker_1, # of connection points: 2
#     Edge 29, Type (0, 0), BuildingBlock: KIFKEQ_clean_linker_1, # of connection points: 2
#     Edge 30, Type (0, 0), BuildingBlock: KIFKEQ_clean_linker_1, # of connection points: 2
#     Edge 31, Type (0, 0), BuildingBlock: KIFKEQ_clean_linker_1, # of connection points: 2
# Relax obj value: 0.142
# Max RMSD: 0.181
# Mean RMSD: 0.181
data_MOF--net-vby--node1-PAMTUU_clean_sbu_0--edge1-KIFKEQ_clean_linker_1
_symmetry_space_group_name_H-M    P1
_symmetry_Int_Tables_number       1
_symmetry_cell_setting            triclinic
loop_
_symmetry_equiv_pos_as_xyz
'x, y, z'
_cell_length_a     15.510891
_cell_length_b     104.90521
_cell_length_c     30.557932
_cell_angle_alpha  89.854287
_cell_angle_beta   82.289086
_cell_angle_gamma 90.10403
loop_
_atom_site_label
_atom_site_type_symbol
_atom_site_fract_x
_atom_site_fract_y
_atom_site_fract_z
_atom_type_partial_charge
Tb0 Tb 0.07986 0.37541 0.02668 0.0
Tb1 Tb 0.08811 0.40726 0.02736 0.0
C2 C 0.08148 0.39188 0.94063 0.0
C3 C 0.12396 0.33958 0.01296 0.0
C4 C 0.19448 0.31492 -0.00399 0.0
C5 C 0.13553 0.32007 0.96954 0.0
C6 C 0.10045 0.33223 0.97805 0.0
C7 C 0.18589 0.33469 0.03817 0.0
C8 C 0.22087 0.32252 0.02972 0.0
C9 C 0.07427 0.35129 0.02671 0.0
O10 O 0.21406 0.38006 0.03374 0.0
O11 O 0.22031 0.40075 0.00816 0.0
O12 O 0.11203 0.40008 0.09122 0.0
O13 O 1.03141 0.38185 0.09289 0.0
O14 O 0.14292 0.42415 -0.00108 0.0
O15 O 0.05728 0.42442 0.06115 0.0
O16 O 0.94897 0.40319 0.03557 0.0
O17 O 0.9463 0.38125 0.02534 0.0
O18 O 0.11519 0.382 0.95886 0.0
O19 O 0.05297 0.40191 0.96374 0.0
C20 C 0.25801 0.39038 0.02026 0.0
O21 O 0.09954 0.3581 0.05831 0.0
O22 O 0.04783 0.3584 -0.00393 0.0
C23 C 0.06705 0.39102 0.11333 0.0
C24 C 0.07347 0.44394 0.01956 0.0
C25 C 0.0398 0.4702 0.0099 0.0
C26 C 0.9843 0.46264 0.03967 0.0
C27 C 1.00115 0.44964 0.04459 0.0
C28 C 0.12605 0.45134 0.9882 0.0
C29 C 0.10941 0.4643 0.98335 0.0
C30 C 0.10439 0.43118 0.03086 0.0
C31 C 0.90743 0.39237 0.03128 0.0
H32 H 0.11477 0.31457 0.94287 0.0
H33 H 0.05221 0.33567 0.95833 0.0
H34 H 0.20471 0.34001 0.06571 0.0
H35 H 0.26533 0.31883 0.0511 0.0
H36 H 0.92931 0.46684 0.06014 0.0
H37 H 0.95977 0.44423 0.06935 0.0
H38 H 0.18318 0.44727 0.96902 0.0
H39 H 0.15427 0.46982 0.96052 0.0
Tb40 Tb 0.98564 0.63001 0.00186 0.0
Tb41 Tb 0.99525 0.66173 0.00292 0.0
C42 C 1.00518 0.64627 0.9171 0.0
C43 C 1.00486 0.59321 0.00099 0.0
C44 C 1.0319 0.56665 0.0056 0.0
C45 C 0.05567 0.57332 0.96588 0.0
C46 C 0.04215 0.58644 0.96359 0.0
C47 C 0.98607 0.58669 0.04143 0.0
C48 C 0.99996 0.57354 0.04376 0.0
C49 C 0.97051 0.60616 -0.00485 0.0
O50 O 0.12512 0.63406 -0.0076 0.0
O51 O 0.12785 0.6558 0.00631 0.0
O52 O 0.961 0.65527 0.07094 0.0
O53 O 1.0204 0.63514 0.06581 0.0
O54 O 0.97914 0.67882 0.96939 0.0
O55 O 1.02566 0.67893 0.03306 0.0
O56 O 0.86006 0.65714 -0.00289 0.0
O57 O 0.85386 0.63643 0.02274 0.0
O58 O 0.95583 0.63782 0.93984 0.0
O59 O 0.04591 0.65488 0.93748 0.0
C60 C 0.16677 0.64475 -0.00134 0.0
O61 O 0.9382 0.61264 0.02994 0.0
O62 O 1.01102 0.61342 0.96419 0.0
C63 C 0.99318 0.64522 0.08903 0.0
C64 C 0.95619 0.69787 0.01187 0.0
C65 C 0.88834 0.72288 0.02018 0.0
C66 C 0.96157 0.71947 0.04016 0.0
C67 C 0.99515 0.70711 0.03594 0.0
C68 C 0.88021 0.70103 -0.00617 0.0
C69 C 0.84651 0.71342 -0.00195 0.0
C70 C 1.00332 0.68582 0.00081 0.0
C71 C 0.81599 0.64684 0.01101 0.0
H72 H 0.08164 0.5683 0.93608 0.0
H73 H 0.05634 0.59115 0.93183 0.0
H74 H 0.95614 0.59159 0.07074 0.0
H75 H 0.98067 0.56865 0.0748 0.0
H76 H 0.99442 0.72645 0.05812 0.0
H77 H 0.05402 0.70493 0.04996 0.0
H78 H 0.84891 0.69412 0.97487 0.0
H79 H 0.79026 0.71573 0.98208 0.0
Tb80 Tb 0.08201 0.63024 0.49451 0.0
Tb81 Tb 0.07566 0.66191 0.49845 0.0
C82 C 0.06465 0.64513 0.58353 0.0
C83 C 0.06556 0.59328 0.50116 0.0
C84 C 1.03577 0.56673 0.51283 0.0
C85 C 0.09058 0.5733 0.53827 0.0
C86 C 0.10535 0.58638 0.53245 0.0
C87 C 1.00758 0.58688 0.47713 0.0
C88 C 0.99253 0.57377 0.48306 0.0
C89 C 0.09774 0.60625 0.48815 0.0
O90 O 0.94571 0.63481 0.49247 0.0
O91 O 0.94083 0.65591 0.51465 0.0
O92 O 1.03586 0.65553 0.43694 0.0
O93 O 0.1223 0.63802 0.42873 0.0
O94 O 0.03905 0.6789 0.53227 0.0
O95 O 0.10104 0.6792 0.46447 0.0
O96 O 0.21329 0.65728 0.48165 0.0
O97 O 0.21016 0.63649 0.50578 0.0
O98 O 1.0354 0.63542 0.56255 0.0
O99 O 0.10204 0.65502 0.56226 0.0
C100 C 0.90241 0.64529 0.50478 0.0
O101 O 0.05594 0.61317 0.46239 0.0
O102 O 0.13048 0.61315 0.5173 0.0
C103 C 0.07697 0.64683 0.41167 0.0
C104 C 0.12009 0.69764 0.50739 0.0
C105 C 0.1924 0.72184 0.52147 0.0
C106 C 0.19166 0.71714 0.47845 0.0
C107 C 0.15579 0.70522 0.47155 0.0
C108 C 0.12293 0.70212 0.55053 0.0
C109 C 0.15889 0.71409 0.55747 0.0
C110 C 0.07085 0.686 0.4988 0.0
C111 C 0.25277 0.64697 0.49333 0.0
H112 H 0.12603 0.56823 0.56106 0.0
H113 H 0.15182 0.59094 0.55085 0.0
H114 H 0.97671 0.59185 0.45232 0.0
H115 H 0.94878 0.56908 0.4634 0.0
H116 H 0.21542 0.72291 0.44991 0.0
H117 H 0.15308 0.70214 0.43793 0.0
H118 H 0.09521 0.69657 0.57891 0.0
H119 H 0.15924 0.71736 0.59104 0.0
Tb120 Tb 0.99475 0.37468 0.53179 0.0
Tb121 Tb 0.98935 0.40626 0.53605 0.0
C122 C 0.99371 0.38963 0.61857 0.0
C123 C 0.94616 0.33894 0.52717 0.0
C124 C 0.87016 0.3146 0.51984 0.0
C125 C 0.87019 0.32035 0.56134 0.0
C126 C 0.90791 0.33233 0.56495 0.0
C127 C 0.94376 0.33341 0.48548 0.0
C128 C 0.90591 0.32138 0.48185 0.0
C129 C 0.99808 0.35057 0.53245 0.0
O130 O 0.85746 0.37943 0.54922 0.0
O131 O 0.86099 0.40016 0.52439 0.0
O132 O 0.03805 0.40095 0.46835 0.0
O133 O 0.96707 0.38173 0.46827 0.0
O134 O 1.00741 0.42299 0.57171 0.0
O135 O 0.95114 0.42369 0.51064 0.0
O136 O 0.12511 0.40155 0.539 0.0
O137 O 0.12973 0.38064 0.51478 0.0
O138 O 1.03544 0.38104 0.59312 0.0
O139 O 0.94777 0.39836 0.60153 0.0
C140 C 0.81811 0.38971 0.53716 0.0
O141 O 1.02489 0.35749 0.49764 0.0
O142 O 0.974 0.35758 0.5671 0.0
C143 C 1.00606 0.39152 0.44712 0.0
C144 C 1.00896 0.44332 0.53523 0.0
C145 C 1.0336 0.47002 0.52721 0.0
C146 C 1.02002 0.46266 0.49031 0.0
C147 C 1.0073 0.44944 0.49432 0.0
C148 C 1.02789 0.45059 0.57131 0.0
C149 C 0.04017 0.46376 0.56736 0.0
C150 C 0.97462 0.43021 0.54335 0.0
C151 C 0.16839 0.39115 0.52569 0.0
H152 H 0.84466 0.31534 0.59135 0.0
H153 H 0.91018 0.33619 0.59762 0.0
H154 H 0.9735 0.33817 0.45573 0.0
H155 H 0.90612 0.31729 0.44934 0.0
H156 H 1.01419 0.46719 0.45896 0.0
H157 H 0.99168 0.44417 0.46599 0.0
H158 H 1.02847 0.44619 0.60339 0.0
H159 H 0.05191 0.46913 0.59623 0.0
Tb160 Tb 0.57676 0.87569 0.00967 0.0
Tb161 Tb 0.5832 0.90736 0.01257 0.0
C162 C 0.57891 0.8925 0.92468 0.0
C163 C 0.62308 0.83973 0.00684 0.0
C164 C 0.69626 0.81499 0.00598 0.0
C165 C 0.66297 0.81981 0.96864 0.0
C166 C 0.62649 0.83201 0.96915 0.0
C167 C 0.65965 0.83514 0.04352 0.0
C168 C 0.69592 0.82293 0.04305 0.0
C169 C 0.57015 0.85153 0.00991 0.0
O170 O 0.70896 0.88036 0.02027 0.0
O171 O 0.71576 0.90082 -0.0072 0.0
O172 O 0.61095 0.89981 0.07531 0.0
O173 O 0.52609 0.88213 0.07563 0.0
O174 O 0.63364 0.92455 0.98463 0.0
O175 O 0.5529 0.92427 0.04825 0.0
O176 O 0.44443 0.90263 0.02416 0.0
O177 O 0.44678 0.88166 0.00067 0.0
O178 O 0.61426 0.88268 0.94246 0.0
O179 O 0.54828 0.90229 0.94855 0.0
C180 C 0.75355 0.89057 0.00609 0.0
O181 O 0.56982 0.85851 0.04508 0.0
O182 O 0.56988 0.85849 0.97456 0.0
C183 C 0.56525 0.89074 0.0969 0.0
C184 C 0.56429 0.94421 0.00911 0.0
C185 C 0.53686 0.97066 -0.00195 0.0
C186 C 0.51491 0.96478 0.03951 0.0
C187 C 0.52867 0.95174 0.04495 0.0
C188 C 0.58216 0.94991 0.96715 0.0
C189 C 0.56833 0.96298 0.96167 0.0
C190 C 0.5971 0.93131 0.01781 0.0
C191 C 0.40483 0.89224 0.01275 0.0
H192 H 0.66343 0.81406 0.93925 0.0
H193 H 0.59798 0.83522 0.94058 0.0
H194 H 0.65712 0.84074 0.07338 0.0
H195 H 0.72001 0.81951 0.07259 0.0
H196 H 0.49164 0.97037 0.06841 0.0
H197 H 0.51586 0.94769 0.07784 0.0
H198 H 0.61049 0.94442 0.93887 0.0
H199 H 0.58469 0.96715 0.92915 0.0
Tb200 Tb 0.48698 0.13056 0.02119 0.0
Tb201 Tb 0.49077 0.16228 0.02239 0.0
C202 C 0.50957 0.1468 0.93508 0.0
C203 C 0.50995 0.09373 0.01055 0.0
C204 C 0.54071 0.06724 -0.00039 0.0
C205 C 0.50286 0.07424 0.96783 0.0
C206 C 0.48732 0.08731 0.97334 0.0
C207 C 0.55272 0.08689 0.04087 0.0
C208 C 0.56816 0.07381 0.03539 0.0
C209 C 0.47324 0.10651 0.02222 0.0
O210 O 0.62144 0.13511 0.02766 0.0
O211 O 0.62644 0.15653 0.00894 0.0
O212 O 0.52316 0.1554 0.08509 0.0
O213 O 0.44386 0.13702 0.08819 0.0
O214 O 0.53123 0.17954 0.99092 0.0
O215 O 0.45988 0.17931 0.05676 0.0
O216 O 0.35381 0.15724 0.03781 0.0
O217 O 0.35858 0.13685 0.01018 0.0
O218 O 0.54093 0.13715 0.95553 0.0
O219 O 0.46683 0.15605 0.95726 0.0
C220 C 0.66458 0.1458 0.01789 0.0
O221 O 0.5042 0.1131 0.05276 0.0
O222 O 0.4502 0.11376 0.99109 0.0
C223 C 0.48393 0.14594 0.10776 0.0
C224 C 0.44689 0.19806 0.0136 0.0
C225 C 0.37837 0.2225 -0.00076 0.0
C226 C 0.35706 0.21622 0.03999 0.0
C227 C 0.39113 0.20417 0.04712 0.0
C228 C 0.46584 0.20413 0.97234 0.0
C229 C 0.43174 0.21619 0.9652 0.0
C230 C 0.49441 0.18639 0.0238 0.0
C231 C 0.31518 0.14707 0.02453 0.0
H232 H 0.48024 0.06948 0.94007 0.0
H233 H 0.45285 0.09223 0.94976 0.0
H234 H 0.57011 0.09147 0.0702 0.0
H235 H 0.59877 0.06875 0.06012 0.0
H236 H 0.31723 0.22085 0.06717 0.0
H237 H 0.37647 0.19989 0.07956 0.0
H238 H 0.50943 0.19977 0.94596 0.0
H239 H 0.4486 0.22068 0.93324 0.0
Tb240 Tb 0.5914 0.12905 0.51902 0.0
Tb241 Tb 0.59121 0.16039 0.50748 0.0
C242 C 0.58483 0.14736 0.60065 0.0
C243 C 0.56753 0.09236 0.52554 0.0
C244 C 0.53349 0.06598 0.51966 0.0
C245 C 0.52954 0.07197 0.561 0.0
C246 C 0.54638 0.08499 0.56384 0.0
C247 C 0.56756 0.08658 0.4841 0.0
C248 C 0.55038 0.07351 0.48121 0.0
C249 C 0.60298 0.10528 0.53016 0.0
O250 O 0.45436 0.1345 0.5325 0.0
O251 O 0.46096 0.1542 0.49845 0.0
O252 O 0.6205 0.1515 0.44266 0.0
O253 O 0.5506 0.13234 0.45477 0.0
O254 O 0.53769 0.17857 0.52229 0.0
O255 O 0.64647 0.17602 0.47111 0.0
O256 O 0.71792 0.15567 0.52587 0.0
O257 O 0.72465 0.13545 0.49777 0.0
O258 O 0.61872 0.13708 0.58098 0.0
O259 O 0.55866 0.157 0.57825 0.0
C260 C 0.41633 0.1444 0.51654 0.0
O261 O 0.6385 0.11132 0.49487 0.0
O262 O 0.56099 0.11292 0.55914 0.0
C263 C 0.58156 0.14154 0.42806 0.0
C264 C 0.63243 0.19651 0.50488 0.0
C265 C 0.6888 0.22186 0.51573 0.0
C266 C 0.73676 0.21366 0.48534 0.0
C267 C 0.70879 0.20116 0.47988 0.0
C268 C 0.58616 0.20454 0.53645 0.0
C269 C 0.61421 0.21706 0.54193 0.0
C270 C 0.59457 0.18419 0.4932 0.0
C271 C 0.76291 0.14553 0.51203 0.0
H272 H 0.5181 0.06649 0.59131 0.0
H273 H 0.54739 0.08917 0.59618 0.0
H274 H 0.58418 0.09201 0.45395 0.0
H275 H 0.55261 0.06925 0.44885 0.0
H276 H 0.7938 0.21707 0.46417 0.0
H277 H 0.74516 0.19533 0.45466 0.0
H278 H 0.52646 0.20132 0.55584 0.0
H279 H 0.57638 0.22306 0.56607 0.0
Tb280 Tb 0.49727 0.87442 0.51786 0.0
Tb281 Tb 0.4913 0.90598 0.51345 0.0
C282 C 0.49485 0.89144 0.60202 0.0
C283 C 0.44942 0.83866 0.52946 0.0
C284 C 0.37242 0.81419 0.53774 0.0
C285 C 0.43507 0.81778 0.56463 0.0
C286 C 0.47338 0.82988 0.56037 0.0
C287 C 0.38329 0.83535 0.50428 0.0
C288 C 0.34524 0.82322 0.50839 0.0
C289 C 0.50251 0.85031 0.51983 0.0
O290 O 0.36477 0.87902 0.50778 0.0
O291 O 0.35885 0.8995 0.53425 0.0
O292 O 0.46384 0.89819 0.45124 0.0
O293 O 0.54869 0.88057 0.45138 0.0
O294 O 0.43797 0.92308 0.53992 0.0
O295 O 0.52292 0.92287 0.47751 0.0
O296 O 0.63034 0.90155 0.50277 0.0
O297 O 0.62848 0.88038 0.52442 0.0
O298 O 0.45901 0.88158 0.58473 0.0
O299 O 0.52647 0.90111 0.57755 0.0
C300 C 0.32058 0.88925 0.5215 0.0
O301 O 0.49013 0.857 0.48525 0.0
O302 O 0.51634 0.85752 0.55286 0.0
C303 C 0.5107 0.88927 0.42983 0.0
C304 C 0.50627 0.94285 0.51613 0.0
C305 C 0.52878 0.96949 0.52264 0.0
C306 C 0.5748 0.96264 0.48754 0.0
C307 C 0.56325 0.94946 0.48417 0.0
C308 C 0.46487 0.9496 0.55273 0.0
C309 C 0.47611 0.96276 0.55597 0.0
C310 C 0.47613 0.92986 0.507 0.0
C311 C 0.67011 0.89108 0.51321 0.0
H312 H 0.458 0.81102 0.58728 0.0
H313 H 0.52482 0.83215 0.57983 0.0
H314 H 0.36329 0.8419 0.48014 0.0
H315 H 0.2962 0.8208 0.48768 0.0
H316 H 0.61547 0.96757 0.46121 0.0
H317 H 0.59501 0.9446 0.4552 0.0
H318 H 0.41971 0.94485 0.57767 0.0
H319 H 0.4408 0.96776 0.58375 0.0
H320 H 0.35897 0.41114 0.02969 0.0
H321 H 0.37216 0.37035 0.01201 0.0
H322 H 0.51386 0.41184 0.03429 0.0
H323 H 0.52881 0.37106 0.01357 0.0
H324 H 0.79182 0.37369 0.06028 0.0
H325 H 0.63584 0.37334 0.0581 0.0
H326 H 0.65256 0.41076 -0.00249 0.0
H327 H 0.80798 0.41134 0.00259 0.0
C328 C 0.39551 0.40232 0.02598 0.0
C329 C 0.35338 0.39068 0.02048 0.0
C330 C 0.48482 0.40272 0.02835 0.0
C331 C 0.53501 0.39152 0.02431 0.0
C332 C 0.49267 0.37988 0.01791 0.0
C333 C 0.40279 0.37945 0.01658 0.0
C334 C 0.76181 0.38188 0.04685 0.0
C335 C 0.81196 0.39257 0.03176 0.0
C336 C 0.67225 0.38164 0.04511 0.0
C337 C 0.63059 0.39196 0.02722 0.0
C338 C 0.68127 0.40269 0.01227 0.0
C339 C 0.77068 0.40304 0.015 0.0
H340 H 0.28219 0.66352 0.97087 0.0
H341 H 0.26631 0.6256 0.02626 0.0
H342 H 0.438 0.6639 0.97346 0.0
H343 H 0.42158 0.62619 0.03188 0.0
H344 H 0.71547 0.62608 0.00105 0.0
H345 H 0.56079 0.62532 -0.0039 0.0
H346 H 0.54468 0.66605 0.01798 0.0
H347 H 0.70126 0.66681 0.01981 0.0
C348 C 0.31228 0.65527 0.98388 0.0
C349 C 0.26224 0.64451 -0.0018 0.0
C350 C 0.40174 0.65553 0.98589 0.0
C351 C 0.44346 0.64514 0.00335 0.0
C352 C 0.39289 0.63432 0.01748 0.0
C353 C 0.30356 0.63396 0.01444 0.0
C354 C 0.67872 0.63487 0.00497 0.0
C355 C 0.72056 0.64651 0.01086 0.0
C356 C 0.58948 0.63444 0.00239 0.0
C357 C 0.53897 0.64561 0.00661 0.0
C358 C 0.58101 0.65725 0.01347 0.0
C359 C 0.67086 0.65771 0.01498 0.0
H360 H 0.79859 0.62626 0.47947 0.0
H361 H 0.78885 0.66479 0.5297 0.0
H362 H 0.64321 0.62703 0.4752 0.0
H363 H 0.63286 0.66543 0.52633 0.0
H364 H 0.37052 0.66644 0.47104 0.0
H365 H 0.52747 0.6661 0.47394 0.0
H366 H 0.50674 0.62733 0.52226 0.0
H367 H 0.35192 0.62753 0.51841 0.0
C368 C 0.7633 0.63485 0.49008 0.0
C369 C 0.80655 0.64544 0.50504 0.0
C370 C 0.67394 0.63529 0.48771 0.0
C371 C 0.62533 0.64631 0.50037 0.0
C372 C 0.66841 0.65686 0.51568 0.0
C373 C 0.75787 0.65644 0.518 0.0
C374 C 0.39963 0.65784 0.48208 0.0
C375 C 0.34833 0.64702 0.49428 0.0
C376 C 0.4895 0.65766 0.48404 0.0
C377 C 0.52991 0.64666 0.49821 0.0
C378 C 0.47834 0.63589 0.51045 0.0
C379 C 0.38904 0.63605 0.50845 0.0
H380 H 0.71866 0.40911 0.51194 0.0
H381 H 0.70078 0.3702 0.55931 0.0
H382 H 0.56382 0.40922 0.50789 0.0
H383 H 0.54393 0.37044 0.55617 0.0
H384 H 0.28213 0.37166 0.50052 0.0
H385 H 0.43831 0.37107 0.50369 0.0
H386 H 0.42749 0.40943 0.55522 0.0
H387 H 0.2721 0.41015 0.55117 0.0
C388 C 0.68169 0.40057 0.52185 0.0
C389 C 0.72258 0.38964 0.53611 0.0
C390 C 0.59241 0.40068 0.51972 0.0
C391 C 0.54107 0.38988 0.53191 0.0
C392 C 0.5817 0.3789 0.54613 0.0
C393 C 0.67151 0.37878 0.54823 0.0
C394 C 0.31307 0.38001 0.51226 0.0
C395 C 0.26426 0.39098 0.5254 0.0
C396 C 0.40262 0.37962 0.51446 0.0
C397 C 0.44562 0.39018 0.5298 0.0
C398 C 0.39684 0.40117 0.54267 0.0
C399 C 0.30745 0.40157 0.54044 0.0
H400 H 0.85652 0.87177 0.03372 0.0
H401 H 0.86766 0.90995 0.97961 0.0
H402 H 1.01253 0.87251 0.03685 0.0
H403 H 1.02398 0.91056 0.98195 0.0
H404 H 0.30356 0.8727 0.98979 0.0
H405 H 0.14791 0.87248 0.98791 0.0
H406 H 0.13117 0.91145 0.03353 0.0
H407 H 0.28858 0.91179 0.03461 0.0
C408 C 0.8922 0.88029 0.02216 0.0
C409 C 0.84928 0.89078 0.00629 0.0
C410 C 0.98186 0.8807 0.02384 0.0
C411 C 1.03097 0.8916 0.00965 0.0
C412 C 0.98807 0.90208 -0.00629 0.0
C413 C 0.8984 0.90167 -0.00798 0.0
C414 C 0.26713 0.88126 -0.00047 0.0
C415 C 0.30907 0.89228 0.01243 0.0
C416 C 0.17741 0.88109 -0.00131 0.0
C417 C 0.12673 0.89192 0.01076 0.0
C418 C 0.1684 0.90297 0.02361 0.0
C419 C 0.25859 0.90315 0.02448 0.0
H420 H 0.21552 0.12802 -0.00323 0.0
H421 H 0.19779 0.16603 0.0516 0.0
H422 H 0.05972 0.12785 -0.00512 0.0
H423 H 0.04054 0.16571 0.05058 0.0
H424 H 0.7779 0.16562 -0.00338 0.0
H425 H 0.93415 0.16604 -0.0011 0.0
H426 H 0.92414 0.12688 0.04344 0.0
H427 H 0.76818 0.12635 0.04028 0.0
C428 C 0.17842 0.13634 0.00872 0.0
C429 C 0.21953 0.14705 0.02437 0.0
C430 C 0.0887 0.13619 0.00786 0.0
C431 C 0.0374 0.14674 0.0227 0.0
C432 C 0.07829 0.15748 0.03843 0.0
C433 C 0.16838 0.15763 0.03926 0.0
C434 C 0.80891 0.15707 0.00676 0.0
C435 C 0.76022 0.14593 0.01811 0.0
C436 C 0.89855 0.15735 0.00841 0.0
C437 C 0.94179 0.14651 0.02144 0.0
C438 C 0.89315 0.13536 0.0327 0.0
C439 C 0.80353 0.13507 0.031 0.0
H440 H 0.29866 0.12537 0.54401 0.0
H441 H 0.3154 0.16354 0.48997 0.0
H442 H 0.14112 0.1256 0.54377 0.0
H443 H 0.15897 0.16367 0.48914 0.0
H444 H 0.86679 0.16479 0.53605 0.0
H445 H 1.02315 0.16432 0.53868 0.0
H446 H 1.03299 0.12543 0.49236 0.0
H447 H 0.87636 0.1258 0.49035 0.0
C448 C 0.26898 0.1338 0.53208 0.0
C449 C 0.32014 0.14443 0.51706 0.0
C450 C 0.17861 0.13391 0.53168 0.0
C451 C 0.1371 0.14467 0.51647 0.0
C452 C 0.18834 0.15529 0.50165 0.0
C453 C 0.27845 0.15517 0.50189 0.0
C454 C 0.90216 0.15613 0.52638 0.0
C455 C 0.85867 0.14535 0.51287 0.0
C456 C 0.99207 0.15588 0.52771 0.0
C457 C 0.04096 0.14484 0.5157 0.0
C458 C 0.99739 0.13404 0.50236 0.0
C459 C 0.9075 0.1343 0.50088 0.0
H460 H 0.78681 0.91073 0.49194 0.0
H461 H 0.77083 0.87146 0.53576 0.0
H462 H 0.94417 0.91037 0.49338 0.0
H463 H 0.92618 0.87124 0.53806 0.0
H464 H 0.21733 0.87056 0.49345 0.0
H465 H 0.06165 0.87139 0.48967 0.0
H466 H 0.05096 0.90929 0.54508 0.0
H467 H 0.20708 0.9086 0.54799 0.0
C468 C 0.81656 0.90205 0.50192 0.0
C469 C 0.76584 0.89113 0.51356 0.0
C470 C 0.90669 0.90186 0.50299 0.0
C471 C 0.94798 0.89075 0.51568 0.0
C472 C 0.89703 0.87989 0.52737 0.0
C473 C 0.80744 0.88006 0.52628 0.0
C474 C 0.18188 0.87906 0.505 0.0
C475 C 0.22495 0.88948 0.52117 0.0
C476 C 0.09241 0.87952 0.50294 0.0
C477 C 0.04361 0.89041 0.51708 0.0
C478 C 0.08665 0.90083 0.53334 0.0
C479 C 0.17618 0.90037 0.53538 0.0
H480 H 0.97436 0.55058 0.94594 0.0
H481 H 0.08971 0.55076 0.0669 0.0
H482 H 0.97049 0.52741 0.94727 0.0
H483 H 0.08773 0.52746 0.06787 0.0
H484 H 0.9966 0.48633 0.07977 0.0
H485 H 0.99152 0.50952 0.07884 0.0
H486 H 0.06254 0.5093 0.93717 0.0
H487 H 0.06276 0.48611 0.93783 0.0
C488 C 1.00021 0.54564 0.97249 0.0
C489 C 1.03306 0.55249 0.00613 0.0
C490 C 0.99796 0.53234 0.97327 0.0
C491 C 1.02897 0.52552 0.0076 0.0
C492 C 0.06202 0.53239 0.04127 0.0
C493 C 0.06365 0.54573 0.04065 0.0
C494 C 1.00922 0.49121 0.04828 0.0
C495 C 1.03 0.48432 0.00885 0.0
C496 C 1.00777 0.50454 0.04785 0.0
C497 C 1.02739 0.51132 0.008 0.0
C498 C 0.04636 0.50442 0.96846 0.0
C499 C 0.04737 0.4911 0.96887 0.0
H500 H 0.11689 0.48553 0.46214 0.0
H501 H 0.94948 0.48661 0.58688 0.0
H502 H 0.11491 0.5088 0.45872 0.0
H503 H 0.94578 0.50975 0.58318 0.0
H504 H 1.02974 0.55134 0.58612 0.0
H505 H 1.03167 0.52817 0.58905 0.0
H506 H 1.02475 0.52666 0.44827 0.0
H507 H 1.02791 0.54984 0.44496 0.0
C508 C 0.07934 0.49074 0.4887 0.0
C509 C 1.03408 0.48421 0.52497 0.0
C510 C 0.07778 0.50409 0.4867 0.0
C511 C 1.03026 0.51123 0.52073 0.0
C512 C 0.98456 0.50464 0.55679 0.0
C513 C 0.98666 0.49134 0.55893 0.0
C514 C 1.02914 0.54608 0.55571 0.0
C515 C 1.02887 0.55253 0.5153 0.0
C516 C 1.02926 0.53275 0.55745 0.0
C517 C 1.02856 0.52546 0.51887 0.0
C518 C 1.02662 0.53191 0.47858 0.0
C519 C 1.02694 0.54525 0.4768 0.0
H520 H 0.41216 0.98701 0.03772 0.0
H521 H 0.65422 0.98647 0.94939 0.0
H522 H 0.41407 1.01025 0.03648 0.0
H523 H 0.65555 1.00971 0.94788 0.0
H524 H 0.58479 0.05194 0.92704 0.0
H525 H 0.58026 0.02865 0.92387 0.0
H526 H 0.49999 0.02719 0.06469 0.0
H527 H 0.50208 0.05036 0.06767 0.0
C528 C 0.46571 0.99183 0.01796 0.0
C529 C 0.53318 0.98482 -0.00618 0.0
C530 C 0.46687 1.00516 0.0173 0.0
C531 C 0.5354 1.01186 -0.00761 0.0
C532 C 0.6014 1.00487 0.96709 0.0
C533 C 0.60041 0.99152 0.96786 0.0
C534 C 0.56608 0.04663 0.95728 0.0
C535 C 0.54412 0.05304 -0.00238 0.0
C536 C 0.56402 0.03329 0.95551 0.0
C537 C 0.53922 0.02604 -0.00601 0.0
C538 C 0.51818 0.03246 0.03433 0.0
C539 C 0.52067 0.04577 0.03613 0.0
H540 H 0.42457 0.05002 0.57274 0.0
H541 H 0.62804 0.04984 0.4613 0.0
H542 H 0.42514 0.02685 0.5739 0.0
H543 H 0.62494 0.02664 0.46077 0.0
H544 H 0.6685 0.98564 0.50457 0.0
H545 H 0.66698 1.00892 0.50234 0.0
H546 H 0.38721 1.00848 0.53591 0.0
H547 H 0.38934 0.98532 0.5391 0.0
C548 C 0.46891 0.04504 0.5482 0.0
C549 C 0.52655 0.05184 0.51708 0.0
C550 C 0.4686 0.03172 0.54855 0.0
C551 C 0.52542 0.02482 0.51755 0.0
C552 C 0.58131 0.03162 0.48562 0.0
C553 C 0.58201 0.04495 0.48544 0.0
C554 C 0.60685 0.99055 0.51152 0.0
C555 C 0.52921 0.98365 0.52245 0.0
C556 C 0.60578 1.00389 0.51 0.0
C557 C 0.52691 1.01062 0.51895 0.0
C558 C 0.44933 1.00367 0.52966 0.0
C559 C 0.45053 0.99037 0.53153 0.0
H560 H 0.35649 0.30502 0.00177 0.0
H561 H 0.09757 0.29412 0.97888 0.0
H562 H 0.39953 0.28266 -0.00053 0.0
H563 H 0.14166 0.27185 0.97464 0.0
H564 H 0.21958 0.23312 0.02849 0.0
H565 H 0.17684 0.25538 0.02444 0.0
H566 H 0.42797 0.2644 0.95166 0.0
H567 H 0.47203 0.24223 0.95735 0.0
C568 C 0.30893 0.29787 -0.00411 0.0
C569 C 0.22348 0.3014 0.99064 0.0
C570 C 0.33388 0.28505 -0.00592 0.0
C571 C 0.274 0.27542 0.987 0.0
C572 C 0.18917 0.27899 0.98071 0.0
C573 C 0.16423 0.2918 0.98254 0.0
C574 C 0.26576 0.23985 0.01169 0.0
C575 C 0.34936 0.23586 -0.00661 0.0
C576 C 0.24092 0.25261 0.00893 0.0
C577 C 0.29901 0.26172 0.98778 0.0
C578 C 0.38194 0.25768 0.96864 0.0
C579 C 0.40678 0.24492 0.9714 0.0
H580 H 0.83576 0.80561 0.04256 0.0
H581 H 0.62443 0.79378 0.97302 0.0
H582 H 0.8799 0.78345 0.04812 0.0
H583 H 0.67104 0.77171 0.97673 0.0
H584 H 0.72151 0.73226 0.03176 0.0
H585 H 0.67572 0.75447 0.02865 0.0
H586 H 0.94487 0.76628 0.00357 0.0
H587 H 0.99038 0.74416 0.00701 0.0
C588 C 0.79886 0.7983 0.02831 0.0
C589 C 0.72655 0.80153 0.00729 0.0
C590 C 0.82471 0.78558 0.03111 0.0
C591 C 0.77902 0.77575 0.01292 0.0
C592 C 0.70712 0.77899 -0.00838 0.0
C593 C 0.68119 0.7917 0.98889 0.0
C594 C 0.77081 0.73961 0.02552 0.0
C595 C 0.8596 0.73642 0.01988 0.0
C596 C 0.74462 0.75234 0.02362 0.0
C597 C 0.80659 0.7622 0.01584 0.0
C598 C 0.89533 0.75899 0.0104 0.0
C599 C 0.92146 0.74628 0.01242 0.0
H600 H 0.12128 0.73957 0.58162 0.0
H601 H 0.33316 0.73413 0.47624 0.0
H602 H 0.16401 0.76184 0.58769 0.0
H603 H 0.37492 0.7564 0.48198 0.0
H604 H 0.35301 0.79947 0.46627 0.0
H605 H 0.31097 0.77711 0.46509 0.0
H606 H 0.28305 0.7759 0.60757 0.0
H607 H 0.32353 0.79845 0.60881 0.0
C608 C 0.17782 0.74304 0.56024 0.0
C609 C 0.2234 0.73505 0.5282 0.0
C610 C 0.20208 0.75583 0.56365 0.0
C611 C 0.27216 0.76092 0.53496 0.0
C612 C 0.31946 0.75283 0.50395 0.0
C613 C 0.29553 0.74006 0.50068 0.0
C614 C 0.33663 0.79451 0.49741 0.0
C615 C 0.34131 0.80076 0.53765 0.0
C616 C 0.31369 0.78164 0.4967 0.0
C617 C 0.29448 0.7747 0.53622 0.0
C618 C 0.29726 0.781 0.57657 0.0
C619 C 0.3209 0.79388 0.57727 0.0
H620 H 0.72673 0.30346 0.56725 0.0
H621 H 0.94205 0.29547 0.46609 0.0
H622 H 0.68289 0.28113 0.5673 0.0
H623 H 0.89607 0.27327 0.46484 0.0
H624 H 0.85257 0.23208 0.51231 0.0
H625 H 0.89338 0.25454 0.51187 0.0
H626 H 0.62228 0.26511 0.52316 0.0
H627 H 0.58148 0.24267 0.52355 0.0
C628 C 0.76438 0.29696 0.54479 0.0
C629 C 0.83816 0.30127 0.5168 0.0
C630 C 0.73875 0.28418 0.54453 0.0
C631 C 0.78627 0.27537 0.51628 0.0
C632 C 0.85877 0.27974 0.48752 0.0
C633 C 0.88439 0.29253 0.48777 0.0
C634 C 0.80167 0.23919 0.51457 0.0
C635 C 0.71372 0.23554 0.51803 0.0
C636 C 0.82507 0.25208 0.51418 0.0
C637 C 0.76114 0.26165 0.51724 0.0
C638 C 0.67316 0.258 0.52128 0.0
C639 C 0.64975 0.24511 0.52165 0.0
H640 H 1.02265 0.3712 0.17019 0.0
H641 H 0.08974 0.41119 0.16679 0.0
H642 H 1.00972 0.37139 0.25048 0.0
H643 H 0.07266 0.4116 0.24707 0.0
H644 H 0.11918 0.40555 0.38954 0.0
H645 H 0.1352 0.40528 0.3091 0.0
H646 H 0.92301 0.37827 0.3143 0.0
H647 H 0.91027 0.3781 0.39442 0.0
C648 C 1.03374 0.38007 0.18666 0.0
C649 C 0.0574 0.39116 0.16216 0.0
C650 C 1.0258 0.38022 0.2328 0.0
C651 C 0.03991 0.39153 0.2556 0.0
C652 C 0.0629 0.40265 0.23087 0.0
C653 C 0.07216 0.40244 0.18474 0.0
C654 C 0.07598 0.39958 0.3734 0.0
C655 C 1.01375 0.39182 0.39832 0.0
C656 C 0.08476 0.39946 0.32722 0.0
C657 C 1.03055 0.39173 0.30487 0.0
C658 C 0.96732 0.38414 0.33007 0.0
C659 C 0.95952 0.38411 0.37615 0.0
H660 H 1.02668 0.6251 0.14121 0.0
H661 H 0.98158 0.66574 0.14459 0.0
H662 H 0.04735 0.62546 0.21876 0.0
H663 H 1.0054 0.6662 0.22169 0.0
H664 H 0.96411 0.66082 0.37028 0.0
H665 H 0.94208 0.6602 0.29325 0.0
H666 H 0.1458 0.63207 0.26767 0.0
H667 H 0.1656 0.63234 0.34564 0.0
C668 C 1.02138 0.63413 0.15848 0.0
C669 C 1.00208 0.64539 0.13671 0.0
C670 C 1.03402 0.63435 0.20292 0.0
C671 C 1.02846 0.64586 0.22663 0.0
C672 C 1.00886 0.65712 0.20479 0.0
C673 C 0.99538 0.65687 0.16046 0.0
C674 C 1.00456 0.65452 0.34828 0.0
C675 C 0.06683 0.64664 0.36416 0.0
C676 C 0.99217 0.65422 0.3039 0.0
C677 C 0.04228 0.64613 0.27399 0.0
C678 C 0.10509 0.63829 0.28983 0.0
C679 C 0.11696 0.6385 0.33447 0.0
H680 H 0.90871 0.63262 0.8651 0.0
H681 H 0.12221 0.65936 0.85869 0.0
H682 H 0.92261 0.63228 0.78485 0.0
H683 H 0.13845 0.65867 0.77833 0.0
H684 H 0.08512 0.66522 0.63764 0.0
H685 H 0.06999 0.66542 0.71773 0.0
H686 H 1.01192 0.62508 0.72048 0.0
H687 H 1.02398 0.625 0.64004 0.0
C688 C 0.95908 0.63836 0.84653 0.0
C689 C 1.01416 0.64606 0.86828 0.0
C690 C 0.96748 0.6381 0.80043 0.0
C691 C 1.03171 0.64543 0.77492 0.0
C692 C 0.08722 0.65306 0.79681 0.0
C693 C 0.07825 0.65342 0.84293 0.0
C694 C 0.06921 0.65637 0.65526 0.0
C695 C 0.05581 0.64508 0.63239 0.0
C696 C 0.06105 0.65647 0.70131 0.0
C697 C 0.04013 0.64526 0.72576 0.0
C698 C 1.02688 0.63394 0.70284 0.0
C699 C 1.03422 0.63387 0.65667 0.0
H700 H 0.90494 0.40406 0.68471 0.0
H701 H 0.10775 0.3758 0.6597 0.0
H702 H 0.92579 0.40445 0.76252 0.0
H703 H 0.13089 0.37654 0.73656 0.0
H704 H 0.09433 0.37127 0.88543 0.0
H705 H 0.06951 0.37062 0.80847 0.0
H706 H 1.02453 0.41128 0.81081 0.0
H707 H 0.04615 0.41183 0.8882 0.0
C708 C 0.95408 0.39797 0.69577 0.0
C709 C 1.00431 0.38986 0.66602 0.0
C710 C 0.96657 0.39825 0.74032 0.0
C711 C 1.03014 0.39052 0.75601 0.0
C712 C 0.08026 0.38245 0.72605 0.0
C713 C 0.06723 0.38208 0.68176 0.0
C714 C 0.07967 0.38008 0.86944 0.0
C715 C 0.07234 0.3916 0.89299 0.0
C716 C 0.0656 0.37972 0.8252 0.0
C717 C 0.04477 0.3909 0.80325 0.0
C718 C 0.03874 0.40245 0.82674 0.0
C719 C 0.05194 0.40278 0.87109 0.0
H720 H 0.50218 0.87124 0.15203 0.0
H721 H 0.61376 0.90903 0.15211 0.0
H722 H 0.49099 0.87056 0.23262 0.0
H723 H 0.60256 0.9083 0.2324 0.0
H724 H 0.4665 0.9081 0.37553 0.0
H725 H 0.48076 0.9081 0.29523 0.0
H726 H 0.59 0.87025 0.29275 0.0
H727 H 0.57574 0.8702 0.37357 0.0
C728 C 0.52428 0.87939 0.16919 0.0
C729 C 0.55855 0.89021 0.14566 0.0
C730 C 0.51841 0.87896 0.21528 0.0
C731 C 0.54574 0.88938 0.23876 0.0
C732 C 0.58021 0.90017 0.21521 0.0
C733 C 0.58693 0.90056 0.16919 0.0
C734 C 0.49355 0.89975 0.35798 0.0
C735 C 0.52006 0.88914 0.38097 0.0
C736 C 0.50214 0.8998 0.31193 0.0
C737 C 0.5367 0.8892 0.28773 0.0
C738 C 0.56262 0.87852 0.31062 0.0
C739 C 0.55491 0.87853 0.35682 0.0
H740 H 0.46194 0.12479 0.16105 0.0
H741 H 0.52176 0.16499 0.16248 0.0
H742 H 0.4871 0.12303 0.23804 0.0
H743 H 0.54316 0.16341 0.23959 0.0
H744 H 0.66978 0.1551 0.36004 0.0
H745 H 0.64414 0.15562 0.28337 0.0
H746 H 0.43681 0.12804 0.31266 0.0
H747 H 0.46538 0.12714 0.38924 0.0
C748 C 0.47902 0.13329 0.17804 0.0
C749 C 0.4904 0.14501 0.15559 0.0
C750 C 0.4933 0.1323 0.22226 0.0
C751 C 0.51835 0.14304 0.24514 0.0
C752 C 0.52646 0.15484 0.2229 0.0
C753 C 0.51337 0.15578 0.17867 0.0
C754 C 0.61914 0.14907 0.35007 0.0
C755 C 0.56955 0.1411 0.38078 0.0
C756 C 0.60378 0.14945 0.30608 0.0
C757 C 0.53738 0.14202 0.29168 0.0
C758 C 0.48897 0.13382 0.32229 0.0
C759 C 0.5052 0.13332 0.36629 0.0
H760 H 0.42617 0.16198 0.88114 0.0
H761 H 0.62305 0.13282 0.87823 0.0
H762 H 0.44564 0.16249 0.80071 0.0
H763 H 0.6454 0.1337 0.79796 0.0
H764 H 0.59671 0.12752 0.65702 0.0
H765 H 0.57884 0.12773 0.73694 0.0
H766 H 0.53804 0.16849 0.73583 0.0
H767 H 0.55248 0.16816 0.65517 0.0
C768 C 0.4742 0.15575 0.86332 0.0
C769 C 0.52259 0.14728 0.88613 0.0
C770 C 0.48589 0.15611 0.8171 0.0
C771 C 0.54696 0.14811 0.79252 0.0
C772 C 0.5964 0.13982 0.81555 0.0
C773 C 0.58393 0.13934 0.8617 0.0
C774 C 0.58434 0.13657 0.67368 0.0
C775 C 0.57637 0.14784 0.64957 0.0
C776 C 0.57457 0.1367 0.71974 0.0
C777 C 0.5576 0.14814 0.74319 0.0
C778 C 0.54998 0.15946 0.71904 0.0
C779 C 0.55879 0.1593 0.67275 0.0
H780 H 0.45564 0.8723 0.66313 0.0
H781 H 0.55492 0.91083 0.64911 0.0
H782 H 0.47668 0.87244 0.74103 0.0
H783 H 0.5771 0.91086 0.72628 0.0
H784 H 0.51677 0.91149 0.87631 0.0
H785 H 0.49335 0.91099 0.79927 0.0
H786 H 0.5955 0.8727 0.78747 0.0
H787 H 0.61778 0.87309 0.86513 0.0
C788 C 0.48157 0.88081 0.67662 0.0
C789 C 0.50327 0.89157 0.64982 0.0
C790 C 0.49435 0.88084 0.72116 0.0
C791 C 0.52866 0.89166 0.73989 0.0
C792 C 0.54956 0.90243 0.71311 0.0
C793 C 0.53711 0.90238 0.66871 0.0
C794 C 0.53468 0.90296 0.85737 0.0
C795 C 0.56947 0.89234 0.87699 0.0
C796 C 0.52146 0.9027 0.81306 0.0
C797 C 0.54253 0.89181 0.78716 0.0
C798 C 0.57763 0.88118 0.80666 0.0
C799 C 0.59116 0.88146 0.85107 0.0
loop_
_geom_bond_atom_site_label_1
_geom_bond_atom_site_label_2
_geom_bond_distance
_geom_bond_site_symmetry_2
_ccdc_geom_bond_type
Tb0 C9 2.764 . S
Tb0 O10 2.325 . S
Tb0 O13 2.303 . S
Tb0 O17 2.322 1_455 S
Tb0 O18 2.349 1_554 S
Tb0 O21 2.415 . S
Tb0 O22 2.399 1_554 S
Tb1 O11 2.322 . S
Tb1 O12 2.349 . S
Tb1 O14 2.415 1_554 S
Tb1 O15 2.399 . S
Tb1 O16 2.325 1_455 S
Tb1 O19 2.303 1_554 S
Tb1 C30 2.765 . S
C2 O18 1.261 . S
C2 O19 1.257 . S
C3 C6 1.358 1_554 S
C3 C7 1.332 . S
C3 C9 1.504 . S
C4 C5 1.373 . S
C4 C8 1.308 . S
C5 C4 1.373 . S
C5 C6 1.429 1_554 S
C5 H32 0.932 1_554 S
C6 C3 1.358 1_556 S
C6 C5 1.429 1_556 S
C6 H33 0.930 . S
C7 C3 1.332 . S
C7 C8 1.394 . S
C7 H34 0.932 . S
C8 C4 1.308 . S
C8 C7 1.394 . S
C8 H35 0.929 . S
C9 Tb0 2.764 . S
C9 C3 1.504 . S
C9 O21 1.239 . S
C9 O22 1.263 1_554 S
O10 Tb0 2.325 . S
O10 C20 1.236 . S
O11 Tb1 2.322 . S
O11 C20 1.257 . S
O12 Tb1 2.349 . S
O12 C23 1.261 . S
O13 Tb0 2.303 . S
O13 C23 1.257 . S
O14 Tb1 2.415 1_556 S
O14 C30 1.239 1_556 S
O15 Tb1 2.399 . S
O15 C30 1.264 . S
O16 Tb1 2.325 1_655 S
O16 C31 1.236 . S
O17 Tb0 2.322 1_655 S
O17 C31 1.257 . S
O18 Tb0 2.349 1_556 S
O18 C2 1.261 . S
O19 Tb1 2.303 1_556 S
O19 C2 1.257 . S
C20 O10 1.236 . S
C20 O11 1.257 . S
O21 Tb0 2.415 . S
O21 C9 1.239 . S
O22 Tb0 2.399 1_556 S
O22 C9 1.263 1_556 S
C23 O12 1.261 . S
C23 O13 1.257 . S
C24 C27 1.358 . S
C24 C28 1.332 1_554 S
C24 C30 1.502 1_655 S
C25 C26 1.373 . S
C25 C29 1.308 1_554 S
C26 C25 1.373 . S
C26 C27 1.429 . S
C26 H36 0.932 . S
C27 C24 1.358 . S
C27 C26 1.429 . S
C27 H37 0.930 . S
C28 C24 1.332 1_556 S
C28 C29 1.394 . S
C28 H38 0.932 . S
C29 C25 1.308 1_556 S
C29 C28 1.394 . S
C29 H39 0.929 . S
C30 Tb1 2.765 . S
C30 O14 1.239 1_554 S
C30 O15 1.264 . S
C30 C24 1.502 1_455 S
C31 O16 1.236 . S
C31 O17 1.257 . S
H32 C5 0.932 1_556 S
H33 C6 0.930 . S
H34 C7 0.932 . S
H35 C8 0.929 . S
H36 C26 0.932 . S
H37 C27 0.930 . S
H38 C28 0.932 . S
H39 C29 0.929 . S
Tb40 C49 2.764 . S
Tb40 O50 2.325 1_655 S
Tb40 O53 2.303 . S
Tb40 O57 2.322 . S
Tb40 O58 2.349 1_554 S
Tb40 O61 2.415 . S
Tb40 O62 2.399 1_554 S
Tb41 O51 2.322 1_655 S
Tb41 O52 2.349 . S
Tb41 O54 2.415 1_554 S
Tb41 O55 2.399 . S
Tb41 O56 2.325 . S
Tb41 O59 2.303 1_554 S
Tb41 C70 2.764 . S
C42 O58 1.261 . S
C42 O59 1.257 . S
C43 C46 1.358 1_554 S
C43 C47 1.332 . S
C43 C49 1.504 1_455 S
C44 C45 1.373 . S
C44 C48 1.308 . S
C45 C44 1.373 . S
C45 C46 1.429 1_554 S
C45 H72 0.932 1_554 S
C46 C43 1.358 1_556 S
C46 C45 1.429 1_556 S
C46 H73 0.930 . S
C47 C43 1.332 . S
C47 C48 1.394 . S
C47 H74 0.932 . S
C48 C44 1.308 . S
C48 C47 1.394 . S
C48 H75 0.929 . S
C49 Tb40 2.764 . S
C49 C43 1.504 1_655 S
C49 O61 1.239 . S
C49 O62 1.263 1_554 S
O50 Tb40 2.325 1_455 S
O50 C60 1.236 . S
O51 Tb41 2.322 1_455 S
O51 C60 1.257 . S
O52 Tb41 2.349 . S
O52 C63 1.261 . S
O53 Tb40 2.303 . S
O53 C63 1.257 . S
O54 Tb41 2.415 1_556 S
O54 C70 1.239 1_556 S
O55 Tb41 2.399 . S
O55 C70 1.263 . S
O56 Tb41 2.325 . S
O56 C71 1.236 . S
O57 Tb40 2.322 . S
O57 C71 1.257 . S
O58 Tb40 2.349 1_556 S
O58 C42 1.261 . S
O59 Tb41 2.303 1_556 S
O59 C42 1.257 . S
C60 O50 1.236 . S
C60 O51 1.257 . S
O61 Tb40 2.415 . S
O61 C49 1.239 . S
O62 Tb40 2.399 1_556 S
O62 C49 1.263 1_556 S
C63 O52 1.261 . S
C63 O53 1.257 . S
C64 C67 1.358 . S
C64 C68 1.332 1_554 S
C64 C70 1.504 . S
C65 C66 1.373 . S
C65 C69 1.308 1_554 S
C66 C65 1.373 . S
C66 C67 1.429 . S
C66 H76 0.932 . S
C67 C64 1.358 . S
C67 C66 1.429 . S
C67 H77 0.930 . S
C68 C64 1.332 1_556 S
C68 C69 1.394 . S
C68 H78 0.932 . S
C69 C65 1.308 1_556 S
C69 C68 1.394 . S
C69 H79 0.929 . S
C70 Tb41 2.764 . S
C70 O54 1.239 1_554 S
C70 O55 1.263 . S
C70 C64 1.504 . S
C71 O56 1.236 . S
C71 O57 1.257 . S
H72 C45 0.932 1_556 S
H73 C46 0.930 . S
H74 C47 0.932 . S
H75 C48 0.929 . S
H76 C66 0.932 . S
H77 C67 0.930 . S
H78 C68 0.932 . S
H79 C69 0.929 . S
Tb80 C89 2.766 . S
Tb80 O90 2.325 1_455 S
Tb80 O93 2.303 . S
Tb80 O97 2.322 . S
Tb80 O98 2.349 . S
Tb80 O101 2.415 . S
Tb80 O102 2.399 . S
Tb81 O91 2.322 1_455 S
Tb81 O92 2.349 . S
Tb81 O94 2.415 . S
Tb81 O95 2.399 . S
Tb81 O96 2.325 . S
Tb81 O99 2.303 . S
Tb81 C110 2.764 . S
C82 O98 1.261 . S
C82 O99 1.257 . S
C83 C86 1.358 . S
C83 C87 1.332 . S
C83 C89 1.502 1_655 S
C84 C85 1.373 . S
C84 C88 1.308 . S
C85 C84 1.373 . S
C85 C86 1.429 . S
C85 H112 0.932 . S
C86 C83 1.358 . S
C86 C85 1.429 . S
C86 H113 0.930 . S
C87 C83 1.332 . S
C87 C88 1.394 . S
C87 H114 0.932 . S
C88 C84 1.308 . S
C88 C87 1.394 . S
C88 H115 0.929 . S
C89 Tb80 2.766 . S
C89 C83 1.502 1_455 S
C89 O101 1.239 . S
C89 O102 1.265 . S
O90 Tb80 2.325 1_655 S
O90 C100 1.236 . S
O91 Tb81 2.322 1_655 S
O91 C100 1.257 . S
O92 Tb81 2.349 . S
O92 C103 1.261 . S
O93 Tb80 2.303 . S
O93 C103 1.257 . S
O94 Tb81 2.415 . S
O94 C110 1.239 . S
O95 Tb81 2.399 . S
O95 C110 1.263 . S
O96 Tb81 2.325 . S
O96 C111 1.236 . S
O97 Tb80 2.322 . S
O97 C111 1.257 . S
O98 Tb80 2.349 . S
O98 C82 1.261 . S
O99 Tb81 2.303 . S
O99 C82 1.257 . S
C100 O90 1.236 . S
C100 O91 1.257 . S
O101 Tb80 2.415 . S
O101 C89 1.239 . S
O102 Tb80 2.399 . S
O102 C89 1.265 . S
C103 O92 1.261 . S
C103 O93 1.257 . S
C104 C107 1.358 . S
C104 C108 1.332 . S
C104 C110 1.504 . S
C105 C106 1.373 . S
C105 C109 1.308 . S
C106 C105 1.373 . S
C106 C107 1.429 . S
C106 H116 0.932 . S
C107 C104 1.358 . S
C107 C106 1.429 . S
C107 H117 0.930 . S
C108 C104 1.332 . S
C108 C109 1.394 . S
C108 H118 0.932 . S
C109 C105 1.308 . S
C109 C108 1.394 . S
C109 H119 0.929 . S
C110 Tb81 2.764 . S
C110 O94 1.239 . S
C110 O95 1.263 . S
C110 C104 1.504 . S
C111 O96 1.236 . S
C111 O97 1.257 . S
H112 C85 0.932 . S
H113 C86 0.930 . S
H114 C87 0.932 . S
H115 C88 0.929 . S
H116 C106 0.932 . S
H117 C107 0.930 . S
H118 C108 0.932 . S
H119 C109 0.929 . S
Tb120 C129 2.764 . S
Tb120 O130 2.325 . S
Tb120 O133 2.303 . S
Tb120 O137 2.322 1_655 S
Tb120 O138 2.349 . S
Tb120 O141 2.415 . S
Tb120 O142 2.399 . S
Tb121 O131 2.322 . S
Tb121 O132 2.349 . S
Tb121 O134 2.415 . S
Tb121 O135 2.399 . S
Tb121 O136 2.325 1_655 S
Tb121 O139 2.303 . S
Tb121 C150 2.768 . S
C122 O138 1.261 . S
C122 O139 1.257 . S
C123 C126 1.358 . S
C123 C127 1.332 . S
C123 C129 1.504 . S
C124 C125 1.373 . S
C124 C128 1.308 . S
C125 C124 1.373 . S
C125 C126 1.429 . S
C125 H152 0.932 . S
C126 C123 1.358 . S
C126 C125 1.429 . S
C126 H153 0.930 . S
C127 C123 1.332 . S
C127 C128 1.394 . S
C127 H154 0.932 . S
C128 C124 1.308 . S
C128 C127 1.394 . S
C128 H155 0.929 . S
C129 Tb120 2.764 . S
C129 C123 1.504 . S
C129 O141 1.239 . S
C129 O142 1.263 . S
O130 Tb120 2.325 . S
O130 C140 1.236 . S
O131 Tb121 2.322 . S
O131 C140 1.257 . S
O132 Tb121 2.349 . S
O132 C143 1.261 . S
O133 Tb120 2.303 . S
O133 C143 1.257 . S
O134 Tb121 2.415 . S
O134 C150 1.239 . S
O135 Tb121 2.399 . S
O135 C150 1.266 . S
O136 Tb121 2.325 1_455 S
O136 C151 1.236 . S
O137 Tb120 2.322 1_455 S
O137 C151 1.257 . S
O138 Tb120 2.349 . S
O138 C122 1.261 . S
O139 Tb121 2.303 . S
O139 C122 1.257 . S
C140 O130 1.236 . S
C140 O131 1.257 . S
O141 Tb120 2.415 . S
O141 C129 1.239 . S
O142 Tb120 2.399 . S
O142 C129 1.263 . S
C143 O132 1.261 . S
C143 O133 1.257 . S
C144 C147 1.358 . S
C144 C148 1.332 . S
C144 C150 1.500 1_455 S
C145 C146 1.373 . S
C145 C149 1.308 . S
C146 C145 1.373 . S
C146 C147 1.429 . S
C146 H156 0.932 . S
C147 C144 1.358 . S
C147 C146 1.429 . S
C147 H157 0.930 . S
C148 C144 1.332 . S
C148 C149 1.394 . S
C148 H158 0.932 . S
C149 C145 1.308 . S
C149 C148 1.394 . S
C149 H159 0.929 . S
C150 Tb121 2.768 . S
C150 O134 1.239 . S
C150 O135 1.266 . S
C150 C144 1.500 1_655 S
C151 O136 1.236 . S
C151 O137 1.257 . S
H152 C125 0.932 . S
H153 C126 0.930 . S
H154 C127 0.932 . S
H155 C128 0.929 . S
H156 C146 0.932 . S
H157 C147 0.930 . S
H158 C148 0.932 . S
H159 C149 0.929 . S
Tb160 C169 2.764 . S
Tb160 O170 2.325 . S
Tb160 O173 2.303 . S
Tb160 O177 2.322 . S
Tb160 O178 2.349 1_554 S
Tb160 O181 2.415 . S
Tb160 O182 2.399 1_554 S
Tb161 O171 2.322 . S
Tb161 O172 2.349 . S
Tb161 O174 2.415 1_554 S
Tb161 O175 2.399 . S
Tb161 O176 2.325 . S
Tb161 O179 2.303 1_554 S
Tb161 C190 2.764 . S
C162 O178 1.261 . S
C162 O179 1.257 . S
C163 C166 1.358 1_554 S
C163 C167 1.332 . S
C163 C169 1.504 . S
C164 C165 1.397 . S
C164 C168 1.308 . S
C165 C164 1.397 . S
C165 C166 1.425 1_554 S
C165 H192 0.914 1_554 S
C166 C163 1.358 1_556 S
C166 C165 1.425 1_556 S
C166 H193 0.930 . S
C167 C163 1.332 . S
C167 C168 1.394 . S
C167 H194 0.932 . S
C168 C164 1.308 . S
C168 C167 1.394 . S
C168 H195 0.929 . S
C169 Tb160 2.764 . S
C169 C163 1.504 . S
C169 O181 1.239 . S
C169 O182 1.263 1_554 S
O170 Tb160 2.325 . S
O170 C180 1.236 . S
O171 Tb161 2.322 . S
O171 C180 1.257 . S
O172 Tb161 2.349 . S
O172 C183 1.261 . S
O173 Tb160 2.303 . S
O173 C183 1.257 . S
O174 Tb161 2.415 1_556 S
O174 C190 1.239 1_556 S
O175 Tb161 2.399 . S
O175 C190 1.263 . S
O176 Tb161 2.325 . S
O176 C191 1.236 . S
O177 Tb160 2.322 . S
O177 C191 1.257 . S
O178 Tb160 2.349 1_556 S
O178 C162 1.261 . S
O179 Tb161 2.303 1_556 S
O179 C162 1.257 . S
C180 O170 1.236 . S
C180 O171 1.257 . S
O181 Tb160 2.415 . S
O181 C169 1.239 . S
O182 Tb160 2.399 1_556 S
O182 C169 1.263 1_556 S
C183 O172 1.261 . S
C183 O173 1.257 . S
C184 C187 1.358 . S
C184 C188 1.332 1_554 S
C184 C190 1.504 . S
C185 C186 1.373 . S
C185 C189 1.308 1_554 S
C186 C185 1.373 . S
C186 C187 1.429 . S
C186 H196 0.932 . S
C187 C184 1.358 . S
C187 C186 1.429 . S
C187 H197 0.930 . S
C188 C184 1.332 1_556 S
C188 C189 1.394 . S
C188 H198 0.932 . S
C189 C185 1.308 1_556 S
C189 C188 1.394 . S
C189 H199 0.929 . S
C190 Tb161 2.764 . S
C190 O174 1.239 1_554 S
C190 O175 1.263 . S
C190 C184 1.504 . S
C191 O176 1.236 . S
C191 O177 1.257 . S
H192 C165 0.914 1_556 S
H193 C166 0.930 . S
H194 C167 0.932 . S
H195 C168 0.929 . S
H196 C186 0.932 . S
H197 C187 0.930 . S
H198 C188 0.932 . S
H199 C189 0.929 . S
Tb200 C209 2.764 . S
Tb200 O210 2.325 . S
Tb200 O213 2.303 . S
Tb200 O217 2.322 . S
Tb200 O218 2.349 1_554 S
Tb200 O221 2.415 . S
Tb200 O222 2.399 1_554 S
Tb201 O211 2.322 . S
Tb201 O212 2.349 . S
Tb201 O214 2.415 1_554 S
Tb201 O215 2.399 . S
Tb201 O216 2.325 . S
Tb201 O219 2.303 1_554 S
Tb201 C230 2.764 . S
C202 O218 1.261 . S
C202 O219 1.257 . S
C203 C206 1.358 1_554 S
C203 C207 1.332 . S
C203 C209 1.504 . S
C204 C205 1.373 . S
C204 C208 1.308 . S
C205 C204 1.373 . S
C205 C206 1.429 1_554 S
C205 H232 0.932 1_554 S
C206 C203 1.358 1_556 S
C206 C205 1.429 1_556 S
C206 H233 0.930 . S
C207 C203 1.332 . S
C207 C208 1.394 . S
C207 H234 0.932 . S
C208 C204 1.308 . S
C208 C207 1.394 . S
C208 H235 0.929 . S
C209 Tb200 2.764 . S
C209 C203 1.504 . S
C209 O221 1.239 . S
C209 O222 1.263 1_554 S
O210 Tb200 2.325 . S
O210 C220 1.236 . S
O211 Tb201 2.322 . S
O211 C220 1.257 . S
O212 Tb201 2.349 . S
O212 C223 1.261 . S
O213 Tb200 2.303 . S
O213 C223 1.257 . S
O214 Tb201 2.415 1_556 S
O214 C230 1.239 1_556 S
O215 Tb201 2.399 . S
O215 C230 1.263 . S
O216 Tb201 2.325 . S
O216 C231 1.236 . S
O217 Tb200 2.322 . S
O217 C231 1.257 . S
O218 Tb200 2.349 1_556 S
O218 C202 1.261 . S
O219 Tb201 2.303 1_556 S
O219 C202 1.257 . S
C220 O210 1.236 . S
C220 O211 1.257 . S
O221 Tb200 2.415 . S
O221 C209 1.239 . S
O222 Tb200 2.399 1_556 S
O222 C209 1.263 1_556 S
C223 O212 1.261 . S
C223 O213 1.257 . S
C224 C227 1.358 . S
C224 C228 1.332 1_554 S
C224 C230 1.504 . S
C225 C226 1.373 . S
C225 C229 1.308 1_554 S
C226 C225 1.373 . S
C226 C227 1.429 . S
C226 H236 0.932 . S
C227 C224 1.358 . S
C227 C226 1.429 . S
C227 H237 0.930 . S
C228 C224 1.332 1_556 S
C228 C229 1.394 . S
C228 H238 0.932 . S
C229 C225 1.308 1_556 S
C229 C228 1.394 . S
C229 H239 0.929 . S
C230 Tb201 2.764 . S
C230 O214 1.239 1_554 S
C230 O215 1.263 . S
C230 C224 1.504 . S
C231 O216 1.236 . S
C231 O217 1.257 . S
H232 C205 0.932 1_556 S
H233 C206 0.930 . S
H234 C207 0.932 . S
H235 C208 0.929 . S
H236 C226 0.932 . S
H237 C227 0.930 . S
H238 C228 0.932 . S
H239 C229 0.929 . S
Tb240 C249 2.764 . S
Tb240 O250 2.325 . S
Tb240 O253 2.303 . S
Tb240 O257 2.322 . S
Tb240 O258 2.349 . S
Tb240 O261 2.415 . S
Tb240 O262 2.399 . S
Tb241 O251 2.322 . S
Tb241 O252 2.349 . S
Tb241 O254 2.415 . S
Tb241 O255 2.399 . S
Tb241 O256 2.325 . S
Tb241 O259 2.303 . S
Tb241 C270 2.764 . S
C242 O258 1.261 . S
C242 O259 1.257 . S
C243 C246 1.358 . S
C243 C247 1.332 . S
C243 C249 1.504 . S
C244 C245 1.373 . S
C244 C248 1.308 . S
C245 C244 1.373 . S
C245 C246 1.429 . S
C245 H272 0.932 . S
C246 C243 1.358 . S
C246 C245 1.429 . S
C246 H273 0.930 . S
C247 C243 1.332 . S
C247 C248 1.394 . S
C247 H274 0.932 . S
C248 C244 1.308 . S
C248 C247 1.394 . S
C248 H275 0.929 . S
C249 Tb240 2.764 . S
C249 C243 1.504 . S
C249 O261 1.239 . S
C249 O262 1.263 . S
O250 Tb240 2.325 . S
O250 C260 1.236 . S
O251 Tb241 2.322 . S
O251 C260 1.257 . S
O252 Tb241 2.349 . S
O252 C263 1.261 . S
O253 Tb240 2.303 . S
O253 C263 1.257 . S
O254 Tb241 2.415 . S
O254 C270 1.239 . S
O255 Tb241 2.399 . S
O255 C270 1.263 . S
O256 Tb241 2.325 . S
O256 C271 1.236 . S
O257 Tb240 2.322 . S
O257 C271 1.257 . S
O258 Tb240 2.349 . S
O258 C242 1.261 . S
O259 Tb241 2.303 . S
O259 C242 1.257 . S
C260 O250 1.236 . S
C260 O251 1.257 . S
O261 Tb240 2.415 . S
O261 C249 1.239 . S
O262 Tb240 2.399 . S
O262 C249 1.263 . S
C263 O252 1.261 . S
C263 O253 1.257 . S
C264 C267 1.358 . S
C264 C268 1.332 . S
C264 C270 1.504 . S
C265 C266 1.373 . S
C265 C269 1.308 . S
C266 C265 1.373 . S
C266 C267 1.429 . S
C266 H276 0.932 . S
C267 C264 1.358 . S
C267 C266 1.429 . S
C267 H277 0.930 . S
C268 C264 1.332 . S
C268 C269 1.394 . S
C268 H278 0.932 . S
C269 C265 1.308 . S
C269 C268 1.394 . S
C269 H279 0.929 . S
C270 Tb241 2.764 . S
C270 O254 1.239 . S
C270 O255 1.263 . S
C270 C264 1.504 . S
C271 O256 1.236 . S
C271 O257 1.257 . S
H272 C245 0.932 . S
H273 C246 0.930 . S
H274 C247 0.932 . S
H275 C248 0.929 . S
H276 C266 0.932 . S
H277 C267 0.930 . S
H278 C268 0.932 . S
H279 C269 0.929 . S
Tb280 C289 2.764 . S
Tb280 O290 2.325 . S
Tb280 O293 2.303 . S
Tb280 O297 2.322 . S
Tb280 O298 2.349 . S
Tb280 O301 2.415 . S
Tb280 O302 2.399 . S
Tb281 O291 2.322 . S
Tb281 O292 2.349 . S
Tb281 O294 2.415 . S
Tb281 O295 2.399 . S
Tb281 O296 2.325 . S
Tb281 O299 2.303 . S
Tb281 C310 2.764 . S
C282 O298 1.261 . S
C282 O299 1.257 . S
C283 C286 1.358 . S
C283 C287 1.332 . S
C283 C289 1.504 . S
C284 C285 1.373 . S
C284 C288 1.308 . S
C285 C284 1.373 . S
C285 C286 1.429 . S
C285 H312 0.932 . S
C286 C283 1.358 . S
C286 C285 1.429 . S
C286 H313 0.930 . S
C287 C283 1.332 . S
C287 C288 1.394 . S
C287 H314 0.932 . S
C288 C284 1.308 . S
C288 C287 1.394 . S
C288 H315 0.929 . S
C289 Tb280 2.764 . S
C289 C283 1.504 . S
C289 O301 1.239 . S
C289 O302 1.263 . S
O290 Tb280 2.325 . S
O290 C300 1.236 . S
O291 Tb281 2.322 . S
O291 C300 1.257 . S
O292 Tb281 2.349 . S
O292 C303 1.261 . S
O293 Tb280 2.303 . S
O293 C303 1.257 . S
O294 Tb281 2.415 . S
O294 C310 1.239 . S
O295 Tb281 2.399 . S
O295 C310 1.263 . S
O296 Tb281 2.325 . S
O296 C311 1.236 . S
O297 Tb280 2.322 . S
O297 C311 1.257 . S
O298 Tb280 2.349 . S
O298 C282 1.261 . S
O299 Tb281 2.303 . S
O299 C282 1.257 . S
C300 O290 1.236 . S
C300 O291 1.257 . S
O301 Tb280 2.415 . S
O301 C289 1.239 . S
O302 Tb280 2.399 . S
O302 C289 1.263 . S
C303 O292 1.261 . S
C303 O293 1.257 . S
C304 C307 1.358 . S
C304 C308 1.332 . S
C304 C310 1.504 . S
C305 C306 1.373 . S
C305 C309 1.308 . S
C306 C305 1.373 . S
C306 C307 1.429 . S
C306 H316 0.932 . S
C307 C304 1.358 . S
C307 C306 1.429 . S
C307 H317 0.930 . S
C308 C304 1.332 . S
C308 C309 1.394 . S
C308 H318 0.932 . S
C309 C305 1.308 . S
C309 C308 1.394 . S
C309 H319 0.929 . S
C310 Tb281 2.764 . S
C310 O294 1.239 . S
C310 O295 1.263 . S
C310 C304 1.504 . S
C311 O296 1.236 . S
C311 O297 1.257 . S
H312 C285 0.932 . S
H313 C286 0.930 . S
H314 C287 0.932 . S
H315 C288 0.929 . S
H316 C306 0.932 . S
H317 C307 0.930 . S
H318 C308 0.932 . S
H319 C309 0.929 . S
H320 C328 0.950 . S
H321 C333 0.950 . S
H322 C330 0.950 . S
H323 C332 0.950 . S
H324 C334 0.950 . S
H325 C336 0.950 . S
H326 C338 0.950 . S
H327 C339 0.950 . S
C328 H320 0.950 . S
C328 C329 1.386 1_556 S
C328 C330 1.391 . S
C329 C328 1.386 1_554 S
C329 C333 1.393 . S
C330 H322 0.950 . S
C330 C328 1.391 . S
C330 C331 1.400 1_556 S
C331 C330 1.400 1_554 S
C331 C332 1.398 . S
C331 C337 1.491 . S
C332 H323 0.950 . S
C332 C331 1.398 . S
C332 C333 1.391 . S
C333 H321 0.950 . S
C333 C329 1.393 . S
C333 C332 1.391 . S
C334 H324 0.950 . S
C334 C335 1.386 . S
C334 C336 1.391 . S
C335 C334 1.386 . S
C335 C339 1.393 1_554 S
C336 H325 0.950 . S
C336 C334 1.391 . S
C336 C337 1.400 . S
C337 C331 1.491 . S
C337 C336 1.400 . S
C337 C338 1.398 1_554 S
C338 H326 0.950 . S
C338 C337 1.398 1_556 S
C338 C339 1.391 . S
C339 H327 0.950 . S
C339 C335 1.393 1_556 S
C339 C338 1.391 . S
H340 C348 0.950 . S
H341 C353 0.950 . S
H342 C350 0.950 . S
H343 C352 0.950 . S
H344 C354 0.950 . S
H345 C356 0.950 . S
H346 C358 0.950 . S
H347 C359 0.950 . S
C348 H340 0.950 . S
C348 C349 1.386 . S
C348 C350 1.391 . S
C349 C348 1.386 . S
C349 C353 1.393 1_554 S
C350 H342 0.950 . S
C350 C348 1.391 . S
C350 C351 1.400 . S
C351 C350 1.400 . S
C351 C352 1.398 1_554 S
C351 C357 1.491 . S
C352 H343 0.950 . S
C352 C351 1.398 1_556 S
C352 C353 1.391 . S
C353 H341 0.950 . S
C353 C349 1.393 1_556 S
C353 C352 1.391 . S
C354 H344 0.950 . S
C354 C355 1.386 1_556 S
C354 C356 1.391 . S
C355 C354 1.386 1_554 S
C355 C359 1.393 . S
C356 H345 0.950 . S
C356 C354 1.391 . S
C356 C357 1.400 1_556 S
C357 C351 1.491 . S
C357 C356 1.400 1_554 S
C357 C358 1.398 . S
C358 H346 0.950 . S
C358 C357 1.398 . S
C358 C359 1.391 . S
C359 H347 0.950 . S
C359 C355 1.393 . S
C359 C358 1.391 . S
H360 C368 0.950 . S
H361 C373 0.950 . S
H362 C370 0.950 . S
H363 C372 0.950 . S
H364 C374 0.950 . S
H365 C376 0.950 . S
H366 C378 0.950 . S
H367 C379 0.950 . S
C368 H360 0.950 . S
C368 C369 1.386 . S
C368 C370 1.391 . S
C369 C368 1.386 . S
C369 C373 1.393 . S
C370 H362 0.950 . S
C370 C368 1.391 . S
C370 C371 1.400 . S
C371 C370 1.400 . S
C371 C372 1.398 . S
C371 C377 1.491 . S
C372 H363 0.950 . S
C372 C371 1.398 . S
C372 C373 1.391 . S
C373 H361 0.950 . S
C373 C369 1.393 . S
C373 C372 1.391 . S
C374 H364 0.950 . S
C374 C375 1.386 . S
C374 C376 1.391 . S
C375 C374 1.386 . S
C375 C379 1.393 . S
C376 H365 0.950 . S
C376 C374 1.391 . S
C376 C377 1.400 . S
C377 C371 1.491 . S
C377 C376 1.400 . S
C377 C378 1.398 . S
C378 H366 0.950 . S
C378 C377 1.398 . S
C378 C379 1.391 . S
C379 H367 0.950 . S
C379 C375 1.393 . S
C379 C378 1.391 . S
H380 C388 0.950 . S
H381 C393 0.950 . S
H382 C390 0.950 . S
H383 C392 0.950 . S
H384 C394 0.950 . S
H385 C396 0.950 . S
H386 C398 0.950 . S
H387 C399 0.950 . S
C388 H380 0.950 . S
C388 C389 1.386 . S
C388 C390 1.391 . S
C389 C388 1.386 . S
C389 C393 1.393 . S
C390 H382 0.950 . S
C390 C388 1.391 . S
C390 C391 1.400 . S
C391 C390 1.400 . S
C391 C392 1.398 . S
C391 C397 1.491 . S
C392 H383 0.950 . S
C392 C391 1.398 . S
C392 C393 1.391 . S
C393 H381 0.950 . S
C393 C389 1.393 . S
C393 C392 1.391 . S
C394 H384 0.950 . S
C394 C395 1.386 . S
C394 C396 1.391 . S
C395 C394 1.386 . S
C395 C399 1.393 . S
C396 H385 0.950 . S
C396 C394 1.391 . S
C396 C397 1.400 . S
C397 C391 1.491 . S
C397 C396 1.400 . S
C397 C398 1.398 . S
C398 H386 0.950 . S
C398 C397 1.398 . S
C398 C399 1.391 . S
C399 H387 0.950 . S
C399 C395 1.393 . S
C399 C398 1.391 . S
H400 C408 0.950 . S
H401 C413 0.950 . S
H402 C410 0.950 . S
H403 C412 0.950 1_455 S
H404 C414 0.950 . S
H405 C416 0.950 . S
H406 C418 0.950 . S
H407 C419 0.950 . S
C408 H400 0.950 . S
C408 C409 1.386 . S
C408 C410 1.391 . S
C409 C408 1.386 . S
C409 C413 1.393 1_554 S
C410 H402 0.950 . S
C410 C408 1.391 . S
C410 C411 1.400 1_655 S
C411 C410 1.400 1_455 S
C411 C412 1.398 1_454 S
C411 C417 1.491 . S
C412 H403 0.950 1_655 S
C412 C411 1.398 1_656 S
C412 C413 1.391 . S
C413 H401 0.950 . S
C413 C409 1.393 1_556 S
C413 C412 1.391 . S
C414 H404 0.950 . S
C414 C415 1.386 1_556 S
C414 C416 1.391 . S
C415 C414 1.386 1_554 S
C415 C419 1.393 . S
C416 H405 0.950 . S
C416 C414 1.391 . S
C416 C417 1.400 1_556 S
C417 C411 1.491 . S
C417 C416 1.400 1_554 S
C417 C418 1.398 . S
C418 H406 0.950 . S
C418 C417 1.398 . S
C418 C419 1.391 . S
C419 H407 0.950 . S
C419 C415 1.393 . S
C419 C418 1.391 . S
H420 C428 0.950 1_556 S
H421 C433 0.950 . S
H422 C430 0.953 . S
H423 C432 0.950 1_655 S
H424 C434 0.950 . S
H425 C436 0.950 . S
H426 C438 0.950 . S
H427 C439 0.950 . S
C428 H420 0.950 1_554 S
C428 C429 1.386 . S
C428 C430 1.390 1_554 S
C429 C428 1.386 . S
C429 C433 1.393 . S
C430 H422 0.953 . S
C430 C428 1.390 1_556 S
C430 C431 1.398 1_456 S
C431 C430 1.398 1_654 S
C431 C432 1.398 1_655 S
C431 C437 1.491 . S
C432 H423 0.950 1_455 S
C432 C431 1.398 1_455 S
C432 C433 1.391 . S
C433 H421 0.950 . S
C433 C429 1.393 . S
C433 C432 1.391 . S
C434 H424 0.950 . S
C434 C435 1.386 . S
C434 C436 1.391 . S
C435 C434 1.386 . S
C435 C439 1.393 1_554 S
C436 H425 0.950 . S
C436 C434 1.391 . S
C436 C437 1.400 . S
C437 C431 1.491 . S
C437 C436 1.400 . S
C437 C438 1.398 1_554 S
C438 H426 0.950 . S
C438 C437 1.398 1_556 S
C438 C439 1.391 . S
C439 H427 0.950 . S
C439 C435 1.393 1_556 S
C439 C438 1.391 . S
H440 C448 0.950 . S
H441 C453 0.950 . S
H442 C450 0.950 . S
H443 C452 0.950 . S
H444 C454 0.950 . S
H445 C456 0.950 1_455 S
H446 C458 0.950 . S
H447 C459 0.950 . S
C448 H440 0.950 . S
C448 C449 1.386 . S
C448 C450 1.391 . S
C449 C448 1.386 . S
C449 C453 1.393 . S
C450 H442 0.950 . S
C450 C448 1.391 . S
C450 C451 1.400 . S
C451 C450 1.400 . S
C451 C452 1.398 . S
C451 C457 1.491 . S
C452 H443 0.950 . S
C452 C451 1.398 . S
C452 C453 1.391 . S
C453 H441 0.950 . S
C453 C449 1.393 . S
C453 C452 1.391 . S
C454 H444 0.950 . S
C454 C455 1.386 . S
C454 C456 1.391 . S
C455 C454 1.386 . S
C455 C459 1.393 . S
C456 H445 0.950 1_655 S
C456 C454 1.391 . S
C456 C457 1.400 1_655 S
C457 C451 1.491 . S
C457 C456 1.400 1_455 S
C457 C458 1.398 1_455 S
C458 H446 0.950 . S
C458 C457 1.398 1_655 S
C458 C459 1.391 . S
C459 H447 0.950 . S
C459 C455 1.393 . S
C459 C458 1.391 . S
H460 C468 0.950 . S
H461 C473 0.950 . S
H462 C470 0.950 . S
H463 C472 0.950 . S
H464 C474 0.950 . S
H465 C476 0.950 1_655 S
H466 C478 0.950 . S
H467 C479 0.950 . S
C468 H460 0.950 . S
C468 C469 1.386 . S
C468 C470 1.391 . S
C469 C468 1.386 . S
C469 C473 1.393 . S
C470 H462 0.950 . S
C470 C468 1.391 . S
C470 C471 1.400 . S
C471 C470 1.400 . S
C471 C472 1.398 . S
C471 C477 1.491 . S
C472 H463 0.950 . S
C472 C471 1.398 . S
C472 C473 1.391 . S
C473 H461 0.950 . S
C473 C469 1.393 . S
C473 C472 1.391 . S
C474 H464 0.950 . S
C474 C475 1.386 . S
C474 C476 1.391 . S
C475 C474 1.386 . S
C475 C479 1.393 . S
C476 H465 0.950 1_455 S
C476 C474 1.391 . S
C476 C477 1.400 1_455 S
C477 C471 1.491 . S
C477 C476 1.400 1_655 S
C477 C478 1.398 1_655 S
C478 H466 0.950 . S
C478 C477 1.398 1_455 S
C478 C479 1.391 . S
C479 H467 0.950 . S
C479 C475 1.393 . S
C479 C478 1.391 . S
H480 C488 0.950 1_556 S
H481 C493 0.950 . S
H482 C490 0.950 1_655 S
H483 C492 0.950 . S
H484 C494 0.950 . S
H485 C496 0.950 1_455 S
H486 C498 0.950 . S
H487 C499 0.950 . S
C488 H480 0.950 1_554 S
C488 C489 1.386 . S
C488 C490 1.391 1_554 S
C489 C488 1.386 . S
C489 C493 1.393 . S
C490 H482 0.950 1_455 S
C490 C488 1.391 1_556 S
C490 C491 1.400 1_556 S
C491 C490 1.400 1_554 S
C491 C492 1.398 . S
C491 C497 1.491 1_455 S
C492 H483 0.950 . S
C492 C491 1.398 . S
C492 C493 1.391 . S
C493 H481 0.950 . S
C493 C489 1.393 . S
C493 C492 1.391 . S
C494 H484 0.950 . S
C494 C495 1.386 . S
C494 C496 1.391 . S
C495 C494 1.386 . S
C495 C499 1.393 1_554 S
C496 H485 0.950 1_655 S
C496 C494 1.391 . S
C496 C497 1.400 . S
C497 C491 1.491 1_655 S
C497 C496 1.400 . S
C497 C498 1.398 1_554 S
C498 H486 0.950 . S
C498 C497 1.398 1_556 S
C498 C499 1.391 . S
C499 H487 0.950 . S
C499 C495 1.393 1_556 S
C499 C498 1.391 . S
H500 C508 0.950 . S
H501 C513 0.950 1_655 S
H502 C510 0.950 . S
H503 C512 0.950 . S
H504 C514 0.950 . S
H505 C516 0.950 . S
H506 C518 0.950 . S
H507 C519 0.950 1_455 S
C508 H500 0.950 . S
C508 C509 1.386 . S
C508 C510 1.391 . S
C509 C508 1.386 . S
C509 C513 1.393 . S
C510 H502 0.950 . S
C510 C508 1.391 . S
C510 C511 1.400 . S
C511 C510 1.400 . S
C511 C512 1.398 1_455 S
C511 C517 1.491 1_455 S
C512 H503 0.950 . S
C512 C511 1.398 1_655 S
C512 C513 1.391 1_655 S
C513 H501 0.950 1_455 S
C513 C509 1.393 . S
C513 C512 1.391 1_455 S
C514 H504 0.950 . S
C514 C515 1.386 . S
C514 C516 1.391 . S
C515 C514 1.386 . S
C515 C519 1.393 . S
C516 H505 0.950 . S
C516 C514 1.391 . S
C516 C517 1.400 . S
C517 C511 1.491 1_655 S
C517 C516 1.400 . S
C517 C518 1.398 1_655 S
C518 H506 0.950 . S
C518 C517 1.398 1_455 S
C518 C519 1.391 1_455 S
C519 H507 0.950 1_655 S
C519 C515 1.393 . S
C519 C518 1.391 1_655 S
H520 C528 0.950 . S
H521 C533 0.950 . S
H522 C530 0.950 . S
H523 C532 0.950 . S
H524 C534 0.950 . S
H525 C536 0.950 . S
H526 C538 0.950 . S
H527 C539 0.950 . S
C528 H520 0.950 . S
C528 C529 1.386 . S
C528 C530 1.391 . S
C529 C528 1.386 . S
C529 C533 1.393 1_554 S
C530 H522 0.950 . S
C530 C528 1.391 . S
C530 C531 1.400 . S
C531 C530 1.400 . S
C531 C532 1.398 1_554 S
C531 C537 1.491 1_565 S
C532 H523 0.950 . S
C532 C531 1.398 1_556 S
C532 C533 1.391 . S
C533 H521 0.950 . S
C533 C529 1.393 1_556 S
C533 C532 1.391 . S
C534 H524 0.950 . S
C534 C535 1.386 1_556 S
C534 C536 1.391 . S
C535 C534 1.386 1_554 S
C535 C539 1.393 . S
C536 H525 0.950 . S
C536 C534 1.391 . S
C536 C537 1.400 1_556 S
C537 C531 1.491 1_545 S
C537 C536 1.400 1_554 S
C537 C538 1.398 . S
C538 H526 0.950 . S
C538 C537 1.398 . S
C538 C539 1.391 . S
C539 H527 0.950 . S
C539 C535 1.393 . S
C539 C538 1.391 . S
H540 C548 0.950 . S
H541 C553 0.950 . S
H542 C550 0.950 . S
H543 C552 0.950 . S
H544 C554 0.950 . S
H545 C556 0.950 . S
H546 C558 0.950 . S
H547 C559 0.950 . S
C548 H540 0.950 . S
C548 C549 1.386 . S
C548 C550 1.391 . S
C549 C548 1.386 . S
C549 C553 1.393 . S
C550 H542 0.950 . S
C550 C548 1.391 . S
C550 C551 1.400 . S
C551 C550 1.400 . S
C551 C552 1.398 . S
C551 C557 1.491 1_545 S
C552 H543 0.950 . S
C552 C551 1.398 . S
C552 C553 1.391 . S
C553 H541 0.950 . S
C553 C549 1.393 . S
C553 C552 1.391 . S
C554 H544 0.950 . S
C554 C555 1.386 . S
C554 C556 1.391 . S
C555 C554 1.386 . S
C555 C559 1.393 . S
C556 H545 0.950 . S
C556 C554 1.391 . S
C556 C557 1.400 . S
C557 C551 1.491 1_565 S
C557 C556 1.400 . S
C557 C558 1.398 . S
C558 H546 0.950 . S
C558 C557 1.398 . S
C558 C559 1.391 . S
C559 H547 0.950 . S
C559 C555 1.393 . S
C559 C558 1.391 . S
H560 C568 0.950 . S
H561 C573 0.950 . S
H562 C570 0.950 . S
H563 C572 0.950 . S
H564 C574 0.950 . S
H565 C576 0.950 . S
H566 C578 0.950 . S
H567 C579 0.950 1_556 S
C568 H560 0.950 . S
C568 C569 1.386 . S
C568 C570 1.391 . S
C569 C568 1.386 . S
C569 C573 1.393 . S
C570 H562 0.950 . S
C570 C568 1.391 . S
C570 C571 1.400 . S
C571 C570 1.400 . S
C571 C572 1.398 . S
C571 C577 1.491 . S
C572 H563 0.950 . S
C572 C571 1.398 . S
C572 C573 1.391 . S
C573 H561 0.950 . S
C573 C569 1.393 . S
C573 C572 1.391 . S
C574 H564 0.950 . S
C574 C575 1.386 . S
C574 C576 1.391 . S
C575 C574 1.386 . S
C575 C579 1.393 . S
C576 H565 0.950 . S
C576 C574 1.391 . S
C576 C577 1.400 . S
C577 C571 1.491 . S
C577 C576 1.400 . S
C577 C578 1.398 . S
C578 H566 0.950 . S
C578 C577 1.398 . S
C578 C579 1.391 . S
C579 H567 0.950 1_554 S
C579 C575 1.393 . S
C579 C578 1.391 . S
H580 C588 0.950 . S
H581 C593 0.950 . S
H582 C590 0.950 . S
H583 C592 0.950 . S
H584 C594 0.950 . S
H585 C596 0.950 . S
H586 C598 0.950 . S
H587 C599 0.950 . S
C588 H580 0.950 . S
C588 C589 1.386 . S
C588 C590 1.391 . S
C589 C588 1.386 . S
C589 C593 1.393 . S
C590 H582 0.950 . S
C590 C588 1.391 . S
C590 C591 1.400 . S
C591 C590 1.400 . S
C591 C592 1.398 . S
C591 C597 1.491 . S
C592 H583 0.950 . S
C592 C591 1.398 . S
C592 C593 1.391 . S
C593 H581 0.950 . S
C593 C589 1.393 . S
C593 C592 1.391 . S
C594 H584 0.950 . S
C594 C595 1.386 . S
C594 C596 1.391 . S
C595 C594 1.386 . S
C595 C599 1.393 . S
C596 H585 0.950 . S
C596 C594 1.391 . S
C596 C597 1.400 . S
C597 C591 1.491 . S
C597 C596 1.400 . S
C597 C598 1.398 . S
C598 H586 0.950 . S
C598 C597 1.398 . S
C598 C599 1.391 . S
C599 H587 0.950 . S
C599 C595 1.393 . S
C599 C598 1.391 . S
H600 C608 0.950 . S
H601 C613 0.950 . S
H602 C610 0.950 . S
H603 C612 0.950 . S
H604 C614 0.950 . S
H605 C616 0.950 . S
H606 C618 0.950 . S
H607 C619 0.950 . S
C608 H600 0.950 . S
C608 C609 1.386 . S
C608 C610 1.391 . S
C609 C608 1.386 . S
C609 C613 1.393 . S
C610 H602 0.950 . S
C610 C608 1.391 . S
C610 C611 1.400 . S
C611 C610 1.400 . S
C611 C612 1.398 . S
C611 C617 1.491 . S
C612 H603 0.950 . S
C612 C611 1.398 . S
C612 C613 1.391 . S
C613 H601 0.950 . S
C613 C609 1.393 . S
C613 C612 1.391 . S
C614 H604 0.950 . S
C614 C615 1.386 . S
C614 C616 1.391 . S
C615 C614 1.386 . S
C615 C619 1.393 . S
C616 H605 0.950 . S
C616 C614 1.391 . S
C616 C617 1.400 . S
C617 C611 1.491 . S
C617 C616 1.400 . S
C617 C618 1.398 . S
C618 H606 0.950 . S
C618 C617 1.398 . S
C618 C619 1.391 . S
C619 H607 0.950 . S
C619 C615 1.393 . S
C619 C618 1.391 . S
H620 C628 0.950 . S
H621 C633 0.950 . S
H622 C630 0.950 . S
H623 C632 0.950 . S
H624 C634 0.950 . S
H625 C636 0.950 . S
H626 C638 0.950 . S
H627 C639 0.950 . S
C628 H620 0.950 . S
C628 C629 1.386 . S
C628 C630 1.391 . S
C629 C628 1.386 . S
C629 C633 1.393 . S
C630 H622 0.950 . S
C630 C628 1.391 . S
C630 C631 1.400 . S
C631 C630 1.400 . S
C631 C632 1.398 . S
C631 C637 1.491 . S
C632 H623 0.950 . S
C632 C631 1.398 . S
C632 C633 1.391 . S
C633 H621 0.950 . S
C633 C629 1.393 . S
C633 C632 1.391 . S
C634 H624 0.950 . S
C634 C635 1.386 . S
C634 C636 1.391 . S
C635 C634 1.386 . S
C635 C639 1.393 . S
C636 H625 0.950 . S
C636 C634 1.391 . S
C636 C637 1.400 . S
C637 C631 1.491 . S
C637 C636 1.400 . S
C637 C638 1.398 . S
C638 H626 0.950 . S
C638 C637 1.398 . S
C638 C639 1.391 . S
C639 H627 0.950 . S
C639 C635 1.393 . S
C639 C638 1.391 . S
H640 C648 0.950 . S
H641 C653 0.950 . S
H642 C650 0.950 . S
H643 C652 0.950 . S
H644 C654 0.950 . S
H645 C656 0.950 . S
H646 C658 0.950 . S
H647 C659 0.950 . S
C648 H640 0.950 . S
C648 C649 1.386 1_655 S
C648 C650 1.391 . S
C649 C648 1.386 1_455 S
C649 C653 1.393 . S
C650 H642 0.950 . S
C650 C648 1.391 . S
C650 C651 1.400 1_655 S
C651 C650 1.400 1_455 S
C651 C652 1.398 . S
C651 C657 1.491 1_455 S
C652 H643 0.950 . S
C652 C651 1.398 . S
C652 C653 1.391 . S
C653 H641 0.950 . S
C653 C649 1.393 . S
C653 C652 1.391 . S
C654 H644 0.950 . S
C654 C655 1.386 1_455 S
C654 C656 1.391 . S
C655 C654 1.386 1_655 S
C655 C659 1.393 . S
C656 H645 0.950 . S
C656 C654 1.391 . S
C656 C657 1.400 1_455 S
C657 C651 1.491 1_655 S
C657 C656 1.400 1_655 S
C657 C658 1.398 . S
C658 H646 0.950 . S
C658 C657 1.398 . S
C658 C659 1.391 . S
C659 H647 0.950 . S
C659 C655 1.393 . S
C659 C658 1.391 . S
H660 C668 0.950 . S
H661 C673 0.950 . S
H662 C670 0.950 . S
H663 C672 0.950 . S
H664 C674 0.950 . S
H665 C676 0.950 . S
H666 C678 0.950 . S
H667 C679 0.950 . S
C668 H660 0.950 . S
C668 C669 1.386 1_455 S
C668 C670 1.391 . S
C669 C668 1.386 1_655 S
C669 C673 1.393 . S
C670 H662 0.950 . S
C670 C668 1.391 . S
C670 C671 1.400 1_455 S
C671 C670 1.400 1_655 S
C671 C672 1.398 . S
C671 C677 1.491 1_655 S
C672 H663 0.950 . S
C672 C671 1.398 . S
C672 C673 1.391 . S
C673 H661 0.950 . S
C673 C669 1.393 . S
C673 C672 1.391 . S
C674 H664 0.950 . S
C674 C675 1.386 1_655 S
C674 C676 1.391 . S
C675 C674 1.386 1_455 S
C675 C679 1.393 . S
C676 H665 0.950 . S
C676 C674 1.391 . S
C676 C677 1.400 1_655 S
C677 C671 1.491 1_455 S
C677 C676 1.400 1_455 S
C677 C678 1.398 . S
C678 H666 0.950 . S
C678 C677 1.398 . S
C678 C679 1.391 . S
C679 H667 0.950 . S
C679 C675 1.393 . S
C679 C678 1.391 . S
H680 C688 0.950 . S
H681 C693 0.950 . S
H682 C690 0.950 . S
H683 C692 0.950 . S
H684 C694 0.950 . S
H685 C696 0.950 . S
H686 C698 0.950 . S
H687 C699 0.950 . S
C688 H680 0.950 . S
C688 C689 1.386 . S
C688 C690 1.391 . S
C689 C688 1.386 . S
C689 C693 1.393 1_655 S
C690 H682 0.950 . S
C690 C688 1.391 . S
C690 C691 1.400 . S
C691 C690 1.400 . S
C691 C692 1.398 1_655 S
C691 C697 1.491 1_655 S
C692 H683 0.950 . S
C692 C691 1.398 1_455 S
C692 C693 1.391 . S
C693 H681 0.950 . S
C693 C689 1.393 1_455 S
C693 C692 1.391 . S
C694 H684 0.950 . S
C694 C695 1.386 . S
C694 C696 1.391 . S
C695 C694 1.386 . S
C695 C699 1.393 1_455 S
C696 H685 0.950 . S
C696 C694 1.391 . S
C696 C697 1.400 . S
C697 C691 1.491 1_455 S
C697 C696 1.400 . S
C697 C698 1.398 1_455 S
C698 H686 0.950 . S
C698 C697 1.398 1_655 S
C698 C699 1.391 . S
C699 H687 0.950 . S
C699 C695 1.393 1_655 S
C699 C698 1.391 . S
H700 C708 0.950 . S
H701 C713 0.950 . S
H702 C710 0.950 . S
H703 C712 0.950 . S
H704 C714 0.950 . S
H705 C716 0.950 . S
H706 C718 0.950 . S
H707 C719 0.950 . S
C708 H700 0.950 . S
C708 C709 1.386 . S
C708 C710 1.391 . S
C709 C708 1.386 . S
C709 C713 1.393 1_655 S
C710 H702 0.950 . S
C710 C708 1.391 . S
C710 C711 1.400 . S
C711 C710 1.400 . S
C711 C712 1.398 1_655 S
C711 C717 1.491 1_655 S
C712 H703 0.950 . S
C712 C711 1.398 1_455 S
C712 C713 1.391 . S
C713 H701 0.950 . S
C713 C709 1.393 1_455 S
C713 C712 1.391 . S
C714 H704 0.950 . S
C714 C715 1.386 . S
C714 C716 1.391 . S
C715 C714 1.386 . S
C715 C719 1.393 1_455 S
C716 H705 0.950 . S
C716 C714 1.391 . S
C716 C717 1.400 . S
C717 C711 1.491 1_455 S
C717 C716 1.400 . S
C717 C718 1.398 1_455 S
C718 H706 0.950 . S
C718 C717 1.398 1_655 S
C718 C719 1.391 . S
C719 H707 0.950 . S
C719 C715 1.393 1_655 S
C719 C718 1.391 . S
H720 C728 0.950 . S
H721 C733 0.950 . S
H722 C730 0.950 . S
H723 C732 0.950 . S
H724 C734 0.950 . S
H725 C736 0.950 . S
H726 C738 0.950 . S
H727 C739 0.950 . S
C728 H720 0.950 . S
C728 C729 1.386 . S
C728 C730 1.391 . S
C729 C728 1.386 . S
C729 C733 1.393 . S
C730 H722 0.950 . S
C730 C728 1.391 . S
C730 C731 1.400 . S
C731 C730 1.400 . S
C731 C732 1.398 . S
C731 C737 1.491 . S
C732 H723 0.950 . S
C732 C731 1.398 . S
C732 C733 1.391 . S
C733 H721 0.950 . S
C733 C729 1.393 . S
C733 C732 1.391 . S
C734 H724 0.950 . S
C734 C735 1.386 . S
C734 C736 1.391 . S
C735 C734 1.386 . S
C735 C739 1.393 . S
C736 H725 0.950 . S
C736 C734 1.391 . S
C736 C737 1.400 . S
C737 C731 1.491 . S
C737 C736 1.400 . S
C737 C738 1.398 . S
C738 H726 0.950 . S
C738 C737 1.398 . S
C738 C739 1.391 . S
C739 H727 0.950 . S
C739 C735 1.393 . S
C739 C738 1.391 . S
H740 C748 0.950 . S
H741 C753 0.950 . S
H742 C750 0.950 . S
H743 C752 0.950 . S
H744 C754 0.950 . S
H745 C756 0.950 . S
H746 C758 0.950 . S
H747 C759 0.950 . S
C748 H740 0.950 . S
C748 C749 1.386 . S
C748 C750 1.391 . S
C749 C748 1.386 . S
C749 C753 1.393 . S
C750 H742 0.950 . S
C750 C748 1.391 . S
C750 C751 1.400 . S
C751 C750 1.400 . S
C751 C752 1.398 . S
C751 C757 1.491 . S
C752 H743 0.950 . S
C752 C751 1.398 . S
C752 C753 1.391 . S
C753 H741 0.950 . S
C753 C749 1.393 . S
C753 C752 1.391 . S
C754 H744 0.950 . S
C754 C755 1.386 . S
C754 C756 1.391 . S
C755 C754 1.386 . S
C755 C759 1.393 . S
C756 H745 0.950 . S
C756 C754 1.391 . S
C756 C757 1.400 . S
C757 C751 1.491 . S
C757 C756 1.400 . S
C757 C758 1.398 . S
C758 H746 0.950 . S
C758 C757 1.398 . S
C758 C759 1.391 . S
C759 H747 0.950 . S
C759 C755 1.393 . S
C759 C758 1.391 . S
H760 C768 0.950 . S
H761 C773 0.950 . S
H762 C770 0.950 . S
H763 C772 0.950 . S
H764 C774 0.950 . S
H765 C776 0.950 . S
H766 C778 0.950 . S
H767 C779 0.950 . S
C768 H760 0.950 . S
C768 C769 1.386 . S
C768 C770 1.391 . S
C769 C768 1.386 . S
C769 C773 1.393 . S
C770 H762 0.950 . S
C770 C768 1.391 . S
C770 C771 1.400 . S
C771 C770 1.400 . S
C771 C772 1.398 . S
C771 C777 1.491 . S
C772 H763 0.950 . S
C772 C771 1.398 . S
C772 C773 1.391 . S
C773 H761 0.950 . S
C773 C769 1.393 . S
C773 C772 1.391 . S
C774 H764 0.950 . S
C774 C775 1.386 . S
C774 C776 1.391 . S
C775 C774 1.386 . S
C775 C779 1.393 . S
C776 H765 0.950 . S
C776 C774 1.391 . S
C776 C777 1.400 . S
C777 C771 1.491 . S
C777 C776 1.400 . S
C777 C778 1.398 . S
C778 H766 0.950 . S
C778 C777 1.398 . S
C778 C779 1.391 . S
C779 H767 0.950 . S
C779 C775 1.393 . S
C779 C778 1.391 . S
H780 C788 0.950 . S
H781 C793 0.950 . S
H782 C790 0.950 . S
H783 C792 0.950 . S
H784 C794 0.950 . S
H785 C796 0.950 . S
H786 C798 0.950 . S
H787 C799 0.950 . S
C788 H780 0.950 . S
C788 C789 1.386 . S
C788 C790 1.391 . S
C789 C788 1.386 . S
C789 C793 1.393 . S
C790 H782 0.950 . S
C790 C788 1.391 . S
C790 C791 1.400 . S
C791 C790 1.400 . S
C791 C792 1.398 . S
C791 C797 1.491 . S
C792 H783 0.950 . S
C792 C791 1.398 . S
C792 C793 1.391 . S
C793 H781 0.950 . S
C793 C789 1.393 . S
C793 C792 1.391 . S
C794 H784 0.950 . S
C794 C795 1.386 . S
C794 C796 1.391 . S
C795 C794 1.386 . S
C795 C799 1.393 . S
C796 H785 0.950 . S
C796 C794 1.391 . S
C796 C797 1.400 . S
C797 C791 1.491 . S
C797 C796 1.400 . S
C797 C798 1.398 . S
C798 H786 0.950 . S
C798 C797 1.398 . S
C798 C799 1.391 . S
C799 H787 0.950 . S
C799 C795 1.393 . S
C799 C798 1.391 . S
C329 C20 2.108 . S
C335 C31 2.108 . S
C349 C60 2.118 . S
C355 C71 2.118 . S
C369 C100 2.108 . S
C375 C111 2.108 . S
C389 C140 2.109 . S
C395 C151 2.109 . S
C409 C180 2.118 . S
C415 C191 2.118 . S
C429 C231 2.108 . S
C435 C220 2.108 . S
C449 C260 2.111 . S
C455 C271 2.111 . S
C469 C311 2.116 . S
C475 C300 2.116 . S
C489 C44 2.398 . S
C495 C25 2.398 . S
C509 C145 2.380 . S
C515 C84 2.380 . S
C529 C185 2.380 . S
C535 C204 2.380 . S
C549 C244 2.397 . S
C555 C305 2.397 . S
C569 C4 1.727 . S
C575 C225 1.727 . S
C589 C164 1.726 . S
C595 C65 1.726 . S
C609 C105 1.730 . S
C615 C284 1.730 . S
C629 C124 1.728 . S
C635 C265 1.728 . S
C649 C23 1.430 . S
C655 C143 1.411 . S
C669 C63 1.658 . S
C675 C103 1.676 . S
C689 C42 1.428 . S
C695 C82 1.411 . S
C709 C122 1.660 . S
C715 C2 1.679 . S
C729 C183 1.413 . S
C735 C303 1.428 . S
C749 C223 1.665 . S
C755 C263 1.664 . S
C769 C202 1.421 . S
C775 C242 1.403 . S
C789 C282 1.662 . S
C795 C162 1.668 . S
