# Generated by pormake.
# Topology fcr, (5)-cn, num edge types: 1
# Building blocks:
#     Node 0, Type 0, BuildingBlock: XOMCOT_clean_sbu_0, # of connection points: 5
#     Node 1, Type 0, BuildingBlock: XOMCOT_clean_sbu_0, # of connection points: 5
#     Node 2, Type 0, BuildingBlock: XOMCOT_clean_sbu_0, # of connection points: 5
#     Node 3, Type 0, BuildingBlock: XOMCOT_clean_sbu_0, # of connection points: 5
#     Node 4, Type 0, BuildingBlock: XOMCOT_clean_sbu_0, # of connection points: 5
#     Node 5, Type 0, BuildingBlock: XOMCOT_clean_sbu_0, # of connection points: 5
#     Node 6, Type 0, BuildingBlock: XOMCOT_clean_sbu_0, # of connection points: 5
#     Node 7, Type 0, BuildingBlock: XOMCOT_clean_sbu_0, # of connection points: 5
#     Node 8, Type 0, BuildingBlock: XOMCOT_clean_sbu_0, # of connection points: 5
#     Node 9, Type 0, BuildingBlock: XOMCOT_clean_sbu_0, # of connection points: 5
#     Node 10, Type 0, BuildingBlock: XOMCOT_clean_sbu_0, # of connection points: 5
#     Node 11, Type 0, BuildingBlock: XOMCOT_clean_sbu_0, # of connection points: 5
#     Node 12, Type 0, BuildingBlock: XOMCOT_clean_sbu_0, # of connection points: 5
#     Node 13, Type 0, BuildingBlock: XOMCOT_clean_sbu_0, # of connection points: 5
#     Node 14, Type 0, BuildingBlock: XOMCOT_clean_sbu_0, # of connection points: 5
#     Node 15, Type 0, BuildingBlock: XOMCOT_clean_sbu_0, # of connection points: 5
#     Node 16, Type 0, BuildingBlock: XOMCOT_clean_sbu_0, # of connection points: 5
#     Node 17, Type 0, BuildingBlock: XOMCOT_clean_sbu_0, # of connection points: 5
#     Node 18, Type 0, BuildingBlock: XOMCOT_clean_sbu_0, # of connection points: 5
#     Node 19, Type 0, BuildingBlock: XOMCOT_clean_sbu_0, # of connection points: 5
#     Node 20, Type 0, BuildingBlock: XOMCOT_clean_sbu_0, # of connection points: 5
#     Node 21, Type 0, BuildingBlock: XOMCOT_clean_sbu_0, # of connection points: 5
#     Node 22, Type 0, BuildingBlock: XOMCOT_clean_sbu_0, # of connection points: 5
#     Node 23, Type 0, BuildingBlock: XOMCOT_clean_sbu_0, # of connection points: 5
#     Node 24, Type 0, BuildingBlock: XOMCOT_clean_sbu_0, # of connection points: 5
#     Node 25, Type 0, BuildingBlock: XOMCOT_clean_sbu_0, # of connection points: 5
#     Node 26, Type 0, BuildingBlock: XOMCOT_clean_sbu_0, # of connection points: 5
#     Node 27, Type 0, BuildingBlock: XOMCOT_clean_sbu_0, # of connection points: 5
#     Node 28, Type 0, BuildingBlock: XOMCOT_clean_sbu_0, # of connection points: 5
#     Node 29, Type 0, BuildingBlock: XOMCOT_clean_sbu_0, # of connection points: 5
#     Node 30, Type 0, BuildingBlock: XOMCOT_clean_sbu_0, # of connection points: 5
#     Node 31, Type 0, BuildingBlock: XOMCOT_clean_sbu_0, # of connection points: 5
#     Node 32, Type 0, BuildingBlock: XOMCOT_clean_sbu_0, # of connection points: 5
#     Node 33, Type 0, BuildingBlock: XOMCOT_clean_sbu_0, # of connection points: 5
#     Node 34, Type 0, BuildingBlock: XOMCOT_clean_sbu_0, # of connection points: 5
#     Node 35, Type 0, BuildingBlock: XOMCOT_clean_sbu_0, # of connection points: 5
#     Node 36, Type 0, BuildingBlock: XOMCOT_clean_sbu_0, # of connection points: 5
#     Node 37, Type 0, BuildingBlock: XOMCOT_clean_sbu_0, # of connection points: 5
#     Node 38, Type 0, BuildingBlock: XOMCOT_clean_sbu_0, # of connection points: 5
#     Node 39, Type 0, BuildingBlock: XOMCOT_clean_sbu_0, # of connection points: 5
#     Node 40, Type 0, BuildingBlock: XOMCOT_clean_sbu_0, # of connection points: 5
#     Node 41, Type 0, BuildingBlock: XOMCOT_clean_sbu_0, # of connection points: 5
#     Node 42, Type 0, BuildingBlock: XOMCOT_clean_sbu_0, # of connection points: 5
#     Node 43, Type 0, BuildingBlock: XOMCOT_clean_sbu_0, # of connection points: 5
#     Node 44, Type 0, BuildingBlock: XOMCOT_clean_sbu_0, # of connection points: 5
#     Node 45, Type 0, BuildingBlock: XOMCOT_clean_sbu_0, # of connection points: 5
#     Node 46, Type 0, BuildingBlock: XOMCOT_clean_sbu_0, # of connection points: 5
#     Node 47, Type 0, BuildingBlock: XOMCOT_clean_sbu_0, # of connection points: 5
#     Edge 48, Type (0, 0), BuildingBlock: XIVTED_clean_linker_0, # of connection points: 2
#     Edge 49, Type (0, 0), BuildingBlock: XIVTED_clean_linker_0, # of connection points: 2
#     Edge 50, Type (0, 0), BuildingBlock: XIVTED_clean_linker_0, # of connection points: 2
#     Edge 51, Type (0, 0), BuildingBlock: XIVTED_clean_linker_0, # of connection points: 2
#     Edge 52, Type (0, 0), BuildingBlock: XIVTED_clean_linker_0, # of connection points: 2
#     Edge 53, Type (0, 0), BuildingBlock: XIVTED_clean_linker_0, # of connection points: 2
#     Edge 54, Type (0, 0), BuildingBlock: XIVTED_clean_linker_0, # of connection points: 2
#     Edge 55, Type (0, 0), BuildingBlock: XIVTED_clean_linker_0, # of connection points: 2
#     Edge 56, Type (0, 0), BuildingBlock: XIVTED_clean_linker_0, # of connection points: 2
#     Edge 57, Type (0, 0), BuildingBlock: XIVTED_clean_linker_0, # of connection points: 2
#     Edge 58, Type (0, 0), BuildingBlock: XIVTED_clean_linker_0, # of connection points: 2
#     Edge 59, Type (0, 0), BuildingBlock: XIVTED_clean_linker_0, # of connection points: 2
#     Edge 60, Type (0, 0), BuildingBlock: XIVTED_clean_linker_0, # of connection points: 2
#     Edge 61, Type (0, 0), BuildingBlock: XIVTED_clean_linker_0, # of connection points: 2
#     Edge 62, Type (0, 0), BuildingBlock: XIVTED_clean_linker_0, # of connection points: 2
#     Edge 63, Type (0, 0), BuildingBlock: XIVTED_clean_linker_0, # of connection points: 2
#     Edge 64, Type (0, 0), BuildingBlock: XIVTED_clean_linker_0, # of connection points: 2
#     Edge 65, Type (0, 0), BuildingBlock: XIVTED_clean_linker_0, # of connection points: 2
#     Edge 66, Type (0, 0), BuildingBlock: XIVTED_clean_linker_0, # of connection points: 2
#     Edge 67, Type (0, 0), BuildingBlock: XIVTED_clean_linker_0, # of connection points: 2
#     Edge 68, Type (0, 0), BuildingBlock: XIVTED_clean_linker_0, # of connection points: 2
#     Edge 69, Type (0, 0), BuildingBlock: XIVTED_clean_linker_0, # of connection points: 2
#     Edge 70, Type (0, 0), BuildingBlock: XIVTED_clean_linker_0, # of connection points: 2
#     Edge 71, Type (0, 0), BuildingBlock: XIVTED_clean_linker_0, # of connection points: 2
#     Edge 72, Type (0, 0), BuildingBlock: XIVTED_clean_linker_0, # of connection points: 2
#     Edge 73, Type (0, 0), BuildingBlock: XIVTED_clean_linker_0, # of connection points: 2
#     Edge 74, Type (0, 0), BuildingBlock: XIVTED_clean_linker_0, # of connection points: 2
#     Edge 75, Type (0, 0), BuildingBlock: XIVTED_clean_linker_0, # of connection points: 2
#     Edge 76, Type (0, 0), BuildingBlock: XIVTED_clean_linker_0, # of connection points: 2
#     Edge 77, Type (0, 0), BuildingBlock: XIVTED_clean_linker_0, # of connection points: 2
#     Edge 78, Type (0, 0), BuildingBlock: XIVTED_clean_linker_0, # of connection points: 2
#     Edge 79, Type (0, 0), BuildingBlock: XIVTED_clean_linker_0, # of connection points: 2
#     Edge 80, Type (0, 0), BuildingBlock: XIVTED_clean_linker_0, # of connection points: 2
#     Edge 81, Type (0, 0), BuildingBlock: XIVTED_clean_linker_0, # of connection points: 2
#     Edge 82, Type (0, 0), BuildingBlock: XIVTED_clean_linker_0, # of connection points: 2
#     Edge 83, Type (0, 0), BuildingBlock: XIVTED_clean_linker_0, # of connection points: 2
#     Edge 84, Type (0, 0), BuildingBlock: XIVTED_clean_linker_0, # of connection points: 2
#     Edge 85, Type (0, 0), BuildingBlock: XIVTED_clean_linker_0, # of connection points: 2
#     Edge 86, Type (0, 0), BuildingBlock: XIVTED_clean_linker_0, # of connection points: 2
#     Edge 87, Type (0, 0), BuildingBlock: XIVTED_clean_linker_0, # of connection points: 2
#     Edge 88, Type (0, 0), BuildingBlock: XIVTED_clean_linker_0, # of connection points: 2
#     Edge 89, Type (0, 0), BuildingBlock: XIVTED_clean_linker_0, # of connection points: 2
#     Edge 90, Type (0, 0), BuildingBlock: XIVTED_clean_linker_0, # of connection points: 2
#     Edge 91, Type (0, 0), BuildingBlock: XIVTED_clean_linker_0, # of connection points: 2
#     Edge 92, Type (0, 0), BuildingBlock: XIVTED_clean_linker_0, # of connection points: 2
#     Edge 93, Type (0, 0), BuildingBlock: XIVTED_clean_linker_0, # of connection points: 2
#     Edge 94, Type (0, 0), BuildingBlock: XIVTED_clean_linker_0, # of connection points: 2
#     Edge 95, Type (0, 0), BuildingBlock: XIVTED_clean_linker_0, # of connection points: 2
#     Edge 96, Type (0, 0), BuildingBlock: XIVTED_clean_linker_0, # of connection points: 2
#     Edge 97, Type (0, 0), BuildingBlock: XIVTED_clean_linker_0, # of connection points: 2
#     Edge 98, Type (0, 0), BuildingBlock: XIVTED_clean_linker_0, # of connection points: 2
#     Edge 99, Type (0, 0), BuildingBlock: XIVTED_clean_linker_0, # of connection points: 2
#     Edge 100, Type (0, 0), BuildingBlock: XIVTED_clean_linker_0, # of connection points: 2
#     Edge 101, Type (0, 0), BuildingBlock: XIVTED_clean_linker_0, # of connection points: 2
#     Edge 102, Type (0, 0), BuildingBlock: XIVTED_clean_linker_0, # of connection points: 2
#     Edge 103, Type (0, 0), BuildingBlock: XIVTED_clean_linker_0, # of connection points: 2
#     Edge 104, Type (0, 0), BuildingBlock: XIVTED_clean_linker_0, # of connection points: 2
#     Edge 105, Type (0, 0), BuildingBlock: XIVTED_clean_linker_0, # of connection points: 2
#     Edge 106, Type (0, 0), BuildingBlock: XIVTED_clean_linker_0, # of connection points: 2
#     Edge 107, Type (0, 0), BuildingBlock: XIVTED_clean_linker_0, # of connection points: 2
#     Edge 108, Type (0, 0), BuildingBlock: XIVTED_clean_linker_0, # of connection points: 2
#     Edge 109, Type (0, 0), BuildingBlock: XIVTED_clean_linker_0, # of connection points: 2
#     Edge 110, Type (0, 0), BuildingBlock: XIVTED_clean_linker_0, # of connection points: 2
#     Edge 111, Type (0, 0), BuildingBlock: XIVTED_clean_linker_0, # of connection points: 2
#     Edge 112, Type (0, 0), BuildingBlock: XIVTED_clean_linker_0, # of connection points: 2
#     Edge 113, Type (0, 0), BuildingBlock: XIVTED_clean_linker_0, # of connection points: 2
#     Edge 114, Type (0, 0), BuildingBlock: XIVTED_clean_linker_0, # of connection points: 2
#     Edge 115, Type (0, 0), BuildingBlock: XIVTED_clean_linker_0, # of connection points: 2
#     Edge 116, Type (0, 0), BuildingBlock: XIVTED_clean_linker_0, # of connection points: 2
#     Edge 117, Type (0, 0), BuildingBlock: XIVTED_clean_linker_0, # of connection points: 2
#     Edge 118, Type (0, 0), BuildingBlock: XIVTED_clean_linker_0, # of connection points: 2
#     Edge 119, Type (0, 0), BuildingBlock: XIVTED_clean_linker_0, # of connection points: 2
#     Edge 120, Type (0, 0), BuildingBlock: XIVTED_clean_linker_0, # of connection points: 2
#     Edge 121, Type (0, 0), BuildingBlock: XIVTED_clean_linker_0, # of connection points: 2
#     Edge 122, Type (0, 0), BuildingBlock: XIVTED_clean_linker_0, # of connection points: 2
#     Edge 123, Type (0, 0), BuildingBlock: XIVTED_clean_linker_0, # of connection points: 2
#     Edge 124, Type (0, 0), BuildingBlock: XIVTED_clean_linker_0, # of connection points: 2
#     Edge 125, Type (0, 0), BuildingBlock: XIVTED_clean_linker_0, # of connection points: 2
#     Edge 126, Type (0, 0), BuildingBlock: XIVTED_clean_linker_0, # of connection points: 2
#     Edge 127, Type (0, 0), BuildingBlock: XIVTED_clean_linker_0, # of connection points: 2
#     Edge 128, Type (0, 0), BuildingBlock: XIVTED_clean_linker_0, # of connection points: 2
#     Edge 129, Type (0, 0), BuildingBlock: XIVTED_clean_linker_0, # of connection points: 2
#     Edge 130, Type (0, 0), BuildingBlock: XIVTED_clean_linker_0, # of connection points: 2
#     Edge 131, Type (0, 0), BuildingBlock: XIVTED_clean_linker_0, # of connection points: 2
#     Edge 132, Type (0, 0), BuildingBlock: XIVTED_clean_linker_0, # of connection points: 2
#     Edge 133, Type (0, 0), BuildingBlock: XIVTED_clean_linker_0, # of connection points: 2
#     Edge 134, Type (0, 0), BuildingBlock: XIVTED_clean_linker_0, # of connection points: 2
#     Edge 135, Type (0, 0), BuildingBlock: XIVTED_clean_linker_0, # of connection points: 2
#     Edge 136, Type (0, 0), BuildingBlock: XIVTED_clean_linker_0, # of connection points: 2
#     Edge 137, Type (0, 0), BuildingBlock: XIVTED_clean_linker_0, # of connection points: 2
#     Edge 138, Type (0, 0), BuildingBlock: XIVTED_clean_linker_0, # of connection points: 2
#     Edge 139, Type (0, 0), BuildingBlock: XIVTED_clean_linker_0, # of connection points: 2
#     Edge 140, Type (0, 0), BuildingBlock: XIVTED_clean_linker_0, # of connection points: 2
#     Edge 141, Type (0, 0), BuildingBlock: XIVTED_clean_linker_0, # of connection points: 2
#     Edge 142, Type (0, 0), BuildingBlock: XIVTED_clean_linker_0, # of connection points: 2
#     Edge 143, Type (0, 0), BuildingBlock: XIVTED_clean_linker_0, # of connection points: 2
#     Edge 144, Type (0, 0), BuildingBlock: XIVTED_clean_linker_0, # of connection points: 2
#     Edge 145, Type (0, 0), BuildingBlock: XIVTED_clean_linker_0, # of connection points: 2
#     Edge 146, Type (0, 0), BuildingBlock: XIVTED_clean_linker_0, # of connection points: 2
#     Edge 147, Type (0, 0), BuildingBlock: XIVTED_clean_linker_0, # of connection points: 2
#     Edge 148, Type (0, 0), BuildingBlock: XIVTED_clean_linker_0, # of connection points: 2
#     Edge 149, Type (0, 0), BuildingBlock: XIVTED_clean_linker_0, # of connection points: 2
#     Edge 150, Type (0, 0), BuildingBlock: XIVTED_clean_linker_0, # of connection points: 2
#     Edge 151, Type (0, 0), BuildingBlock: XIVTED_clean_linker_0, # of connection points: 2
#     Edge 152, Type (0, 0), BuildingBlock: XIVTED_clean_linker_0, # of connection points: 2
#     Edge 153, Type (0, 0), BuildingBlock: XIVTED_clean_linker_0, # of connection points: 2
#     Edge 154, Type (0, 0), BuildingBlock: XIVTED_clean_linker_0, # of connection points: 2
#     Edge 155, Type (0, 0), BuildingBlock: XIVTED_clean_linker_0, # of connection points: 2
#     Edge 156, Type (0, 0), BuildingBlock: XIVTED_clean_linker_0, # of connection points: 2
#     Edge 157, Type (0, 0), BuildingBlock: XIVTED_clean_linker_0, # of connection points: 2
#     Edge 158, Type (0, 0), BuildingBlock: XIVTED_clean_linker_0, # of connection points: 2
#     Edge 159, Type (0, 0), BuildingBlock: XIVTED_clean_linker_0, # of connection points: 2
#     Edge 160, Type (0, 0), BuildingBlock: XIVTED_clean_linker_0, # of connection points: 2
#     Edge 161, Type (0, 0), BuildingBlock: XIVTED_clean_linker_0, # of connection points: 2
#     Edge 162, Type (0, 0), BuildingBlock: XIVTED_clean_linker_0, # of connection points: 2
#     Edge 163, Type (0, 0), BuildingBlock: XIVTED_clean_linker_0, # of connection points: 2
#     Edge 164, Type (0, 0), BuildingBlock: XIVTED_clean_linker_0, # of connection points: 2
#     Edge 165, Type (0, 0), BuildingBlock: XIVTED_clean_linker_0, # of connection points: 2
#     Edge 166, Type (0, 0), BuildingBlock: XIVTED_clean_linker_0, # of connection points: 2
#     Edge 167, Type (0, 0), BuildingBlock: XIVTED_clean_linker_0, # of connection points: 2
# Relax obj value: 0.111
# Max RMSD: 0.155
# Mean RMSD: 0.155
data_MOF--net-fcr--node1-XOMCOT_clean_sbu_0--edge1-XIVTED_clean_linker_0
_symmetry_space_group_name_H-M    P1
_symmetry_Int_Tables_number       1
_symmetry_cell_setting            triclinic
loop_
_symmetry_equiv_pos_as_xyz
'x, y, z'
_cell_length_a     66.305359
_cell_length_b     66.367443
_cell_length_c     66.377433
_cell_angle_alpha  90.008662
_cell_angle_beta   89.993246
_cell_angle_gamma 89.99272
loop_
_atom_site_label
_atom_site_type_symbol
_atom_site_fract_x
_atom_site_fract_y
_atom_site_fract_z
_atom_type_partial_charge
Co0 Co 0.13311 0.32795 0.25245 0.0
C1 C 0.14843 0.29197 0.27402 0.0
C2 C 0.15395 0.31935 0.29035 0.0
C3 C 0.16257 0.30364 0.30072 0.0
N4 N 0.14505 0.31202 0.27367 0.0
N5 N 0.15919 0.2864 0.29045 0.0
H6 H 0.14355 0.28182 0.26223 0.0
H7 H 0.15491 0.33512 0.29429 0.0
C8 C 0.1313 0.36716 0.27192 0.0
O9 O 0.14154 0.3733 0.25615 0.0
N10 N 0.12107 0.34445 0.23136 0.0
C11 C 0.10188 0.35116 0.2312 0.0
C12 C 0.09972 0.36512 0.21604 0.0
C13 C 0.13035 0.35463 0.2163 0.0
N14 N 0.11767 0.36743 0.20676 0.0
C15 C 0.10051 0.30301 0.23998 0.0
C16 C 0.08014 0.30225 0.27635 0.0
C17 C 0.07237 0.29121 0.26005 0.0
C18 C 0.08282 0.29174 0.24168 0.0
C19 C 0.09803 0.31326 0.27404 0.0
N20 N 0.10784 0.31364 0.25596 0.0
H21 H 0.10834 0.30335 0.2257 0.0
H22 H 0.10414 0.32123 0.28686 0.0
H23 H 0.09047 0.34713 0.24212 0.0
H24 H 0.14624 0.35347 0.21293 0.0
O25 O 0.1454 0.31053 0.2326 0.0
O26 O 0.15977 0.33768 0.24573 0.0
O27 O 0.12538 0.34889 0.27289 0.0
C28 C 0.16112 0.32217 0.23378 0.0
H29 H 0.17154 0.30505 0.31427 0.0
H30 H 0.08626 0.37382 0.21298 0.0
H31 H 0.07271 0.30204 0.29088 0.0
H32 H 0.07727 0.28369 0.22862 0.0
Co33 Co 0.58025 0.62343 0.00563 0.0
C34 C 0.54412 0.6069 0.98484 0.0
C35 C 0.57118 0.60259 0.9677 0.0
C36 C 0.55547 0.59358 0.95763 0.0
N37 N 0.56404 0.61118 0.98465 0.0
N38 N 0.53842 0.59626 0.96841 0.0
H39 H 0.53412 0.6109 0.99703 0.0
H40 H 0.58687 0.60196 0.96338 0.0
C41 C 0.61794 0.63933 0.98423 0.0
O42 O 0.62468 0.64829 1.0005 0.0
N43 N 0.59642 0.63515 0.02706 0.0
C44 C 0.59175 0.65121 0.0386 0.0
C45 C 0.60622 0.65334 0.05328 0.0
C46 C 0.6134 0.6274 0.03533 0.0
N47 N 0.61989 0.63842 0.0512 0.0
C48 C 0.54651 0.65005 0.01035 0.0
C49 C 0.56319 0.68356 0.99216 0.0
C50 C 0.54376 0.685 1.00033 0.0
C51 C 0.53537 0.66788 0.00934 0.0
C52 C 0.57373 0.66531 0.99318 0.0
N53 N 0.56545 0.64877 1.00229 0.0
H54 H 0.53997 0.6374 0.01813 0.0
H55 H 0.58868 0.66496 0.98704 0.0
H56 H 0.5785 0.66051 0.037 0.0
H57 H 0.62101 0.61417 0.02961 0.0
O58 O 0.56374 0.61077 0.02609 0.0
O59 O 0.59076 0.59706 0.01206 0.0
O60 O 0.60071 0.63064 0.9841 0.0
C61 C 0.5759 0.59545 0.02474 0.0
H62 H 0.55679 0.58486 0.94391 0.0
H63 H 0.60626 0.66471 0.06495 0.0
H64 H 0.57022 0.69646 0.98505 0.0
H65 H 0.52053 0.66843 0.01616 0.0
Co66 Co 0.87827 0.1815 0.25386 0.0
C67 C 0.85935 0.2168 0.27413 0.0
C68 C 0.86197 0.1916 0.2941 0.0
C69 C 0.85226 0.2069 0.30408 0.0
N70 N 0.86665 0.19778 0.27533 0.0
N71 N 0.85048 0.22274 0.2915 0.0
H72 H 0.85962 0.22578 0.26056 0.0
H73 H 0.86451 0.17675 0.30009 0.0
C74 C 0.89173 0.14203 0.27383 0.0
O75 O 0.89913 0.13487 0.25698 0.0
N76 N 0.88938 0.16558 0.23188 0.0
C77 C 0.90551 0.17014 0.22036 0.0
C78 C 0.90663 0.15665 0.20466 0.0
C79 C 0.88058 0.1497 0.22256 0.0
N80 N 0.89095 0.14378 0.20605 0.0
C81 C 0.90563 0.21477 0.2535 0.0
C82 C 0.93943 0.19451 0.267 0.0
C83 C 0.94106 0.21509 0.26242 0.0
C84 C 0.92379 0.22521 0.25568 0.0
C85 C 0.92089 0.18464 0.26479 0.0
N86 N 0.90423 0.19476 0.25808 0.0
H87 H 0.8927 0.22281 0.2478 0.0
H88 H 0.92028 0.16877 0.26794 0.0
H89 H 0.91547 0.18282 0.22262 0.0
H90 H 0.86666 0.14284 0.22759 0.0
O91 O 0.86695 0.19926 0.23369 0.0
O92 O 0.85133 0.1728 0.24686 0.0
O93 O 0.88451 0.15991 0.27471 0.0
C94 C 0.85088 0.18806 0.23455 0.0
H95 H 0.8466 0.20616 0.31936 0.0
H96 H 0.91807 0.15648 0.19304 0.0
H97 H 0.95238 0.18607 0.27227 0.0
H98 H 0.92438 0.241 0.25158 0.0
Co99 Co 0.43543 0.88005 0.01178 0.0
C100 C 0.46671 0.90353 0.98953 0.0
C101 C 0.45104 0.88283 0.97031 0.0
C102 C 0.46549 0.8926 0.95907 0.0
N103 N 0.45166 0.8898 0.9894 0.0
N104 N 0.47536 0.90554 0.97122 0.0
H105 H 0.47156 0.91171 1.00274 0.0
H106 H 0.44127 0.87093 0.965 0.0
C107 C 0.39648 0.86491 0.99158 0.0
O108 O 0.38949 0.85626 0.00793 0.0
N109 N 0.41949 0.87055 0.03434 0.0
C110 C 0.42605 0.8582 0.0491 0.0
C111 C 0.41225 0.85835 0.06459 0.0
C112 C 0.40205 0.87844 0.04133 0.0
N113 N 0.39718 0.87103 0.05963 0.0
C114 C 0.46892 0.85339 0.00994 0.0
C115 C 0.44772 0.8178 0.00571 0.0
C116 C 0.46891 0.81701 0.00646 0.0
C117 C 0.47945 0.83525 0.00843 0.0
C118 C 0.43777 0.83637 0.00697 0.0
N119 N 0.44838 0.85387 0.0091 0.0
H120 H 0.47733 0.86722 0.01178 0.0
H121 H 0.42156 0.83652 0.00683 0.0
H122 H 0.44035 0.85038 0.04907 0.0
H123 H 0.39345 0.88989 0.03349 0.0
O124 O 0.45354 0.89224 0.03114 0.0
O125 O 0.42691 0.90723 0.01756 0.0
O126 O 0.41384 0.87327 0.99137 0.0
C127 C 0.44211 0.90817 0.02992 0.0
H128 H 0.46901 0.88978 0.9434 0.0
H129 H 0.41334 0.85 0.07856 0.0
H130 H 0.43881 0.80418 1.00462 0.0
H131 H 0.49577 0.83564 0.00871 0.0
Co132 Co 0.12953 0.68157 0.25987 0.0
C133 C 0.15165 0.71492 0.23955 0.0
C134 C 0.13388 0.69783 0.21868 0.0
C135 C 0.14298 0.71339 0.20841 0.0
N136 N 0.13947 0.69863 0.23821 0.0
N137 N 0.15409 0.72415 0.22158 0.0
H138 H 0.15844 0.72019 0.25338 0.0
H139 H 0.12333 0.68718 0.21235 0.0
C140 C 0.11526 0.64269 0.24005 0.0
O141 O 0.10867 0.63558 0.25725 0.0
N142 N 0.11973 0.66494 0.28204 0.0
C143 C 0.10287 0.66759 0.29317 0.0
C144 C 0.10223 0.65315 0.30804 0.0
C145 C 0.12953 0.64942 0.291 0.0
N146 N 0.11901 0.64181 0.30664 0.0
C147 C 0.10327 0.71535 0.26175 0.0
C148 C 0.06822 0.69623 0.24978 0.0
C149 C 0.06763 0.71694 0.25406 0.0
C150 C 0.0855 0.72649 0.26001 0.0
C151 C 0.08645 0.68567 0.2514 0.0
N152 N 0.10364 0.69523 0.25755 0.0
H153 H 0.11689 0.72299 0.26637 0.0
H154 H 0.08649 0.66977 0.24822 0.0
H155 H 0.09192 0.67946 0.29119 0.0
H156 H 0.14385 0.64346 0.28594 0.0
O157 O 0.14235 0.69855 0.27993 0.0
O158 O 0.15664 0.67236 0.26488 0.0
O159 O 0.12218 0.66064 0.23873 0.0
C160 C 0.15812 0.68701 0.27781 0.0
H161 H 0.14095 0.71693 0.19263 0.0
H162 H 0.09063 0.65146 0.3194 0.0
H163 H 0.05475 0.68829 0.24507 0.0
H164 H 0.0857 0.7424 0.26363 0.0
Co165 Co 0.93053 0.62944 1.00348 0.0
C166 C 0.96618 0.61495 0.02607 0.0
C167 C 0.93861 0.61031 0.04241 0.0
C168 C 0.95421 0.60205 0.05326 0.0
N169 N 0.94613 0.61842 0.02542 0.0
N170 N 0.97156 0.60487 0.04297 0.0
H171 H 0.97644 0.61926 0.01416 0.0
H172 H 0.92279 0.60962 0.04626 0.0
C173 C 0.89093 0.63216 0.0224 0.0
O174 O 0.8849 0.62085 0.00733 0.0
N175 N 0.91435 0.64055 0.98162 0.0
C176 C 0.90859 0.65997 0.97966 0.0
C177 C 0.89495 0.66146 0.96411 0.0
C178 C 0.90378 0.63049 0.96737 0.0
N179 N 0.89182 0.6429 0.95654 0.0
C180 C 0.95552 0.66166 0.9902 0.0
C181 C 0.95524 0.68357 0.02567 0.0
C182 C 0.966 0.69112 0.00906 0.0
C183 C 0.96616 0.67976 0.99123 0.0
C184 C 0.94472 0.66533 0.02399 0.0
N185 N 0.94473 0.65484 0.0063 0.0
H186 H 0.95568 0.65318 0.97631 0.0
H187 H 0.93667 0.65962 0.03694 0.0
H188 H 0.91308 0.67212 0.98953 0.0
H189 H 0.90403 0.61433 0.96544 0.0
O190 O 0.94836 0.61659 0.98444 0.0
O191 O 0.92106 0.60245 0.99752 0.0
O192 O 0.90924 0.63803 0.02318 0.0
C193 C 0.93679 0.60085 0.98586 0.0
H194 H 0.95264 0.59368 0.06715 0.0
H195 H 0.88697 0.67496 0.95959 0.0
H196 H 0.95468 0.6918 0.03974 0.0
H197 H 0.97458 0.6847 0.97815 0.0
Co198 Co 0.8764 0.83237 0.25916 0.0
C199 C 0.85261 0.79983 0.23914 0.0
C200 C 0.87153 0.81572 0.21833 0.0
C201 C 0.8619 0.80046 0.20814 0.0
N202 N 0.86559 0.8155 0.23777 0.0
N203 N 0.85008 0.79044 0.22126 0.0
H204 H 0.84547 0.795 0.25295 0.0
H205 H 0.88281 0.82567 0.21208 0.0
C206 C 0.89155 0.87042 0.23766 0.0
O207 O 0.9007 0.87732 0.25376 0.0
N208 N 0.88706 0.84893 0.28081 0.0
C209 C 0.9018 0.84376 0.2938 0.0
C210 C 0.90315 0.85825 0.30852 0.0
C211 C 0.87912 0.86616 0.28833 0.0
N212 N 0.88893 0.87238 0.30508 0.0
C213 C 0.90217 0.79831 0.25876 0.0
C214 C 0.93808 0.81778 0.25065 0.0
C215 C 0.93835 0.79682 0.25386 0.0
C216 C 0.91993 0.78714 0.25761 0.0
C217 C 0.91982 0.82841 0.25166 0.0
N218 N 0.90219 0.81866 0.25594 0.0
H219 H 0.88824 0.79053 0.26203 0.0
H220 H 0.9201 0.84449 0.24972 0.0
H221 H 0.91046 0.82997 0.2932 0.0
H222 H 0.86647 0.87398 0.28162 0.0
O223 O 0.86468 0.81514 0.27951 0.0
O224 O 0.8495 0.84152 0.26568 0.0
O225 O 0.88285 0.85322 0.23781 0.0
C226 C 0.84881 0.82665 0.27846 0.0
H227 H 0.86416 0.79648 0.19248 0.0
H228 H 0.91335 0.85796 0.32125 0.0
H229 H 0.9519 0.82603 0.24795 0.0
H230 H 0.91912 0.77098 0.25968 0.0
Co231 Co 0.07951 0.88379 1.00471 0.0
C232 C 0.04333 0.89976 0.02584 0.0
C233 C 0.07054 0.90438 0.04268 0.0
C234 C 0.05489 0.91326 0.05291 0.0
N235 N 0.0633 0.89571 0.02583 0.0
N236 N 0.03775 0.91041 0.04232 0.0
H237 H 0.03324 0.8956 0.01376 0.0
H238 H 0.08628 0.9052 0.0468 0.0
C239 C 0.11716 0.86777 0.02594 0.0
O240 O 0.12388 0.85875 0.0097 0.0
N241 N 0.09582 0.87241 0.98322 0.0
C242 C 0.0915 0.85642 0.97147 0.0
C243 C 0.106 0.85486 0.95671 0.0
C244 C 0.11266 0.88058 0.97511 0.0
N245 N 0.11935 0.87005 0.95901 0.0
C246 C 0.04631 0.85689 0.99881 0.0
C247 C 0.0617 0.82401 0.01915 0.0
C248 C 0.04288 0.8222 0.00967 0.0
C249 C 0.03516 0.83908 0.9996 0.0
C250 C 0.0724 0.84218 0.01805 0.0
N251 N 0.06478 0.85838 0.00782 0.0
H252 H 0.04004 0.86942 0.99062 0.0
H253 H 0.0869 0.84276 0.0252 0.0
H254 H 0.07847 0.84678 0.97298 0.0
H255 H 0.11997 0.89386 0.98109 0.0
O256 O 0.06291 0.89655 0.98441 0.0
O257 O 0.08984 0.91031 0.99852 0.0
O258 O 0.09998 0.87653 0.02609 0.0
C259 C 0.07497 0.91192 0.98585 0.0
H260 H 0.05628 0.92209 0.06654 0.0
H261 H 0.10624 0.84369 0.94484 0.0
H262 H 0.06839 0.81133 0.02695 0.0
H263 H 0.02055 0.83859 0.99232 0.0
Co264 Co 0.25124 0.13112 0.32948 0.0
C265 C 0.27192 0.15425 0.29688 0.0
C266 C 0.29234 0.13527 0.31322 0.0
C267 C 0.30286 0.14468 0.29803 0.0
N268 N 0.27295 0.1414 0.31267 0.0
N269 N 0.28998 0.15654 0.28774 0.0
H270 H 0.25824 0.16152 0.29184 0.0
H271 H 0.29835 0.12406 0.32337 0.0
C272 C 0.27205 0.1165 0.36813 0.0
O273 O 0.25566 0.1078 0.37497 0.0
N274 N 0.22929 0.121 0.34598 0.0
C275 C 0.21593 0.10655 0.34089 0.0
C276 C 0.20068 0.10621 0.35496 0.0
C277 C 0.22162 0.12962 0.36278 0.0
N278 N 0.20427 0.12074 0.36871 0.0
C279 C 0.25164 0.10477 0.2959 0.0
C280 C 0.25997 0.06929 0.31602 0.0
C281 C 0.25703 0.06867 0.29504 0.0
C282 C 0.25305 0.08685 0.28503 0.0
C283 C 0.25861 0.08768 0.32635 0.0
N284 N 0.25432 0.1051 0.31627 0.0
H285 H 0.24837 0.11854 0.28787 0.0
H286 H 0.26041 0.08769 0.34245 0.0
H287 H 0.21664 0.09743 0.32741 0.0
H288 H 0.2283 0.14255 0.37014 0.0
O289 O 0.23113 0.14282 0.31184 0.0
O290 O 0.24491 0.15822 0.3381 0.0
O291 O 0.27231 0.12479 0.35072 0.0
C292 C 0.2322 0.15881 0.32315 0.0
H293 H 0.31857 0.14229 0.29431 0.0
H294 H 0.18777 0.09624 0.35483 0.0
H295 H 0.26282 0.05565 0.32449 0.0
H296 H 0.25112 0.08734 0.26884 0.0
Co297 Co 0.38067 0.50658 0.93419 0.0
C298 C 0.40457 0.48671 0.9667 0.0
C299 C 0.3861 0.46565 0.95059 0.0
C300 C 0.39605 0.4555 0.9657 0.0
N301 N 0.39158 0.48522 0.95105 0.0
N302 N 0.40761 0.46878 0.97585 0.0
H303 H 0.41152 0.5006 0.97157 0.0
H304 H 0.37507 0.45924 0.94047 0.0
C305 C 0.36656 0.48574 0.89552 0.0
O306 O 0.35753 0.50203 0.88891 0.0
N307 N 0.3699 0.52827 0.91772 0.0
C308 C 0.35451 0.54068 0.92249 0.0
C309 C 0.35365 0.556 0.90856 0.0
C310 C 0.37852 0.53662 0.90123 0.0
N311 N 0.36878 0.55347 0.8952 0.0
C312 C 0.35413 0.50647 0.96776 0.0
C313 C 0.31922 0.49544 0.94785 0.0
C314 C 0.31826 0.4995 0.9686 0.0
C315 C 0.33614 0.50485 0.97855 0.0
C316 C 0.33761 0.49723 0.93759 0.0
N317 N 0.35474 0.5029 0.94753 0.0
H318 H 0.3677 0.5107 0.97571 0.0
H319 H 0.33779 0.49463 0.92161 0.0
H320 H 0.34502 0.5393 0.93565 0.0
H321 H 0.392 0.53077 0.89415 0.0
O322 O 0.39221 0.527 0.95162 0.0
O323 O 0.40754 0.51332 0.92527 0.0
O324 O 0.37472 0.48536 0.913 0.0
C325 C 0.40812 0.52608 0.94014 0.0
H326 H 0.3943 0.43971 0.9694 0.0
H327 H 0.34286 0.56823 0.90851 0.0
H328 H 0.30578 0.49149 0.93948 0.0
H329 H 0.33629 0.50774 0.9946 0.0
Co330 Co 0.75594 0.37845 0.32362 0.0
C331 C 0.73626 0.35568 0.29026 0.0
C332 C 0.71504 0.37344 0.30696 0.0
C333 C 0.70498 0.36406 0.29144 0.0
N334 N 0.73465 0.36803 0.3064 0.0
N335 N 0.71837 0.35297 0.28093 0.0
H336 H 0.75023 0.34901 0.28517 0.0
H337 H 0.70852 0.3841 0.3174 0.0
C338 C 0.73443 0.39281 0.36194 0.0
O339 O 0.75048 0.40215 0.36876 0.0
N340 N 0.77758 0.3888 0.34033 0.0
C341 C 0.79147 0.40249 0.33456 0.0
C342 C 0.80677 0.40291 0.34855 0.0
C343 C 0.78489 0.38076 0.35757 0.0
N344 N 0.80255 0.3893 0.363 0.0
C345 C 0.75718 0.40523 0.29029 0.0
C346 C 0.74514 0.43987 0.31005 0.0
C347 C 0.74978 0.44093 0.28946 0.0
C348 C 0.7558 0.42327 0.27958 0.0
C349 C 0.74692 0.4215 0.32028 0.0
N350 N 0.7529 0.40446 0.31039 0.0
H351 H 0.76173 0.39176 0.28238 0.0
H352 H 0.74384 0.42125 0.33616 0.0
H353 H 0.79108 0.41091 0.32062 0.0
H354 H 0.77778 0.36848 0.36563 0.0
O355 O 0.77648 0.3667 0.30645 0.0
O356 O 0.76213 0.35147 0.33248 0.0
O357 O 0.73449 0.3845 0.34455 0.0
C358 C 0.77511 0.35075 0.3178 0.0
H359 H 0.6892 0.36591 0.2877 0.0
H360 H 0.82012 0.41228 0.34802 0.0
H361 H 0.74066 0.45322 0.3183 0.0
H362 H 0.7593 0.42335 0.26364 0.0
Co363 Co 0.62685 1.00372 0.93165 0.0
C364 C 0.61007 0.02446 0.96758 0.0
C365 C 0.60993 0.04344 0.9414 0.0
C366 C 0.60106 0.05371 0.95701 0.0
N367 N 0.61563 0.02512 0.94801 0.0
N368 N 0.60094 0.04175 0.97345 0.0
H369 H 0.6119 0.01131 0.97702 0.0
H370 H 0.61148 0.04888 0.92615 0.0
C371 C 0.62909 0.02387 0.89269 0.0
O372 O 0.61778 0.00897 0.88623 0.0
N373 N 0.63814 0.98255 0.91469 0.0
C374 C 0.65753 0.98124 0.90862 0.0
C375 C 0.65921 0.9662 0.89446 0.0
C376 C 0.62824 0.96845 0.90374 0.0
N377 N 0.64076 0.95831 0.8913 0.0
C378 C 0.65972 0.99012 0.95566 0.0
C379 C 0.68049 0.02625 0.95715 0.0
C380 C 0.68859 0.00937 0.96704 0.0
C381 C 0.67785 0.99118 0.96626 0.0
C382 C 0.6623 0.02451 0.94655 0.0
N383 N 0.65235 0.00652 0.94571 0.0
H384 H 0.65164 0.97599 0.95517 0.0
H385 H 0.65618 0.03764 0.93913 0.0
H386 H 0.66953 0.99123 0.91329 0.0
H387 H 0.61212 0.96612 0.90414 0.0
O388 O 0.61459 0.98395 0.94898 0.0
O389 O 0.5998 0.99755 0.9223 0.0
O390 O 0.63509 0.02408 0.91093 0.0
C391 C 0.59866 0.9854 0.93769 0.0
H392 H 0.59489 0.06877 0.95609 0.0
H393 H 0.67273 0.9622 0.88625 0.0
H394 H 0.68827 0.0406 0.95736 0.0
H395 H 0.6833 0.97786 0.97396 0.0
Co396 Co 0.25287 0.87593 0.18362 0.0
C397 C 0.27398 0.85249 0.21538 0.0
C398 C 0.29476 0.86909 0.19707 0.0
C399 C 0.30543 0.85946 0.21202 0.0
N400 N 0.27502 0.86462 0.19907 0.0
N401 N 0.2923 0.84913 0.22357 0.0
H402 H 0.26011 0.84654 0.22151 0.0
H403 H 0.301 0.87932 0.18607 0.0
C404 C 0.27568 0.87289 0.14571 0.0
O405 O 0.26531 0.85637 0.14253 0.0
N406 N 0.23074 0.88727 0.16832 0.0
C407 C 0.21717 0.90086 0.17497 0.0
C408 C 0.20208 0.90273 0.16085 0.0
C409 C 0.22354 0.88084 0.15043 0.0
N410 N 0.20607 0.89005 0.14546 0.0
C411 C 0.25568 0.90214 0.21743 0.0
C412 C 0.2627 0.93737 0.19631 0.0
C413 C 0.26105 0.93822 0.2174 0.0
C414 C 0.25768 0.92023 0.22795 0.0
C415 C 0.26085 0.91885 0.18635 0.0
N416 N 0.25721 0.90159 0.19695 0.0
H417 H 0.25259 0.88849 0.22574 0.0
H418 H 0.26173 0.91847 0.1701 0.0
H419 H 0.2177 0.90829 0.18946 0.0
H420 H 0.23014 0.86872 0.14185 0.0
O421 O 0.23324 0.86427 0.20198 0.0
O422 O 0.24525 0.84923 0.17481 0.0
O423 O 0.27254 0.88333 0.16157 0.0
C424 C 0.23332 0.84853 0.19029 0.0
H425 H 0.32148 0.86072 0.21472 0.0
H426 H 0.18896 0.91234 0.16211 0.0
H427 H 0.26534 0.95091 0.18759 0.0
H428 H 0.25599 0.92019 0.24418 0.0
Co429 Co 0.12492 0.50943 0.07986 0.0
C430 C 0.1108 0.4896 0.04212 0.0
C431 C 0.10214 0.47353 0.06885 0.0
C432 C 0.09451 0.46353 0.05248 0.0
N433 N 0.1125 0.48974 0.06241 0.0
N434 N 0.09991 0.47359 0.03567 0.0
H435 H 0.11715 0.50104 0.0324 0.0
H436 H 0.09965 0.46958 0.08443 0.0
C437 C 0.14433 0.48051 0.11031 0.0
O438 O 0.16247 0.48803 0.10797 0.0
N439 N 0.13707 0.52911 0.09824 0.0
C440 C 0.1568 0.5314 0.10293 0.0
C441 C 0.15866 0.54512 0.11834 0.0
C442 C 0.12729 0.54179 0.11095 0.0
N443 N 0.14012 0.55165 0.12326 0.0
C444 C 0.15915 0.5217 0.0573 0.0
C445 C 0.17705 0.48432 0.05295 0.0
C446 C 0.18678 0.50133 0.0449 0.0
C447 C 0.17734 0.52012 0.04692 0.0
C448 C 0.15878 0.4866 0.0634 0.0
N449 N 0.15052 0.50527 0.06613 0.0
H450 H 0.15216 0.53634 0.05873 0.0
H451 H 0.15128 0.4734 0.06929 0.0
H452 H 0.16919 0.52327 0.09622 0.0
H453 H 0.11109 0.54321 0.11199 0.0
O454 O 0.11463 0.53088 0.063 0.0
O455 O 0.09829 0.51723 0.08875 0.0
O456 O 0.12941 0.48737 0.10028 0.0
C457 C 0.0984 0.53016 0.07399 0.0
H458 H 0.08492 0.45034 0.053 0.0
H459 H 0.17252 0.54969 0.12564 0.0
H460 H 0.18364 0.46946 0.05148 0.0
H461 H 0.18391 0.53358 0.04042 0.0
Co462 Co 0.75592 0.63617 0.18204 0.0
C463 C 0.73409 0.65446 0.21647 0.0
C464 C 0.71393 0.6473 0.19226 0.0
C465 C 0.70299 0.65605 0.20752 0.0
N466 N 0.73349 0.64642 0.19778 0.0
N467 N 0.71569 0.66063 0.22271 0.0
H468 H 0.74776 0.6562 0.22516 0.0
H469 H 0.70778 0.64206 0.17814 0.0
C470 C 0.73612 0.61719 0.14515 0.0
O471 O 0.74949 0.60264 0.14393 0.0
N472 N 0.77844 0.62616 0.16621 0.0
C473 C 0.79366 0.61413 0.17238 0.0
C474 C 0.80832 0.6137 0.15778 0.0
C475 C 0.78422 0.63295 0.14787 0.0
N476 N 0.80242 0.62558 0.14245 0.0
C477 C 0.76498 0.60562 0.21101 0.0
C478 C 0.73503 0.57863 0.20068 0.0
C479 C 0.74904 0.57319 0.21553 0.0
C480 C 0.76388 0.58715 0.22093 0.0
C481 C 0.73687 0.59727 0.19086 0.0
N482 N 0.7524 0.6101 0.19534 0.0
H483 H 0.77649 0.61609 0.21568 0.0
H484 H 0.72555 0.60131 0.17996 0.0
H485 H 0.79487 0.60685 0.1868 0.0
H486 H 0.77578 0.64387 0.13919 0.0
O487 O 0.77497 0.64862 0.20043 0.0
O488 O 0.76218 0.66324 0.17334 0.0
O489 O 0.7367 0.62994 0.15952 0.0
C490 C 0.77394 0.66446 0.18895 0.0
H491 H 0.6869 0.65874 0.20742 0.0
H492 H 0.8225 0.60565 0.15861 0.0
H493 H 0.72297 0.56847 0.19646 0.0
H494 H 0.77458 0.58385 0.23282 0.0
Co495 Co 0.88262 1.00411 0.07719 0.0
C496 C 0.9068 0.02438 0.04502 0.0
C497 C 0.88803 0.04513 0.06118 0.0
C498 C 0.89808 0.05554 0.04635 0.0
N499 N 0.89362 0.02559 0.06054 0.0
N500 N 0.90984 0.04247 0.03616 0.0
H501 H 0.91387 0.01058 0.04003 0.0
H502 H 0.87683 0.05135 0.07124 0.0
C503 C 0.86842 0.02498 0.11586 0.0
O504 O 0.8592 0.0088 0.12247 0.0
N505 N 0.87171 0.98237 0.09352 0.0
C506 C 0.85637 0.96999 0.08854 0.0
C507 C 0.85522 0.95474 0.10252 0.0
C508 C 0.88003 0.97406 0.11018 0.0
N509 N 0.87012 0.95727 0.11613 0.0
C510 C 0.85618 1.00439 0.04364 0.0
C511 C 0.82111 0.0149 0.06357 0.0
C512 C 0.82021 0.0106 0.04287 0.0
C513 C 0.83815 1.00558 0.0329 0.0
C514 C 0.83955 0.01349 0.07381 0.0
N515 N 0.85674 0.008 0.06387 0.0
H516 H 0.8698 1.00035 0.03568 0.0
H517 H 0.8397 0.01613 0.08978 0.0
H518 H 0.84708 0.97137 0.07524 0.0
H519 H 0.89339 0.97992 0.11749 0.0
O520 O 0.89391 0.98379 0.05956 0.0
O521 O 0.90946 0.99704 0.08601 0.0
O522 O 0.87679 0.02521 0.0985 0.0
C523 C 0.90984 0.9844 0.07102 0.0
H524 H 0.89625 0.07136 0.04283 0.0
H525 H 0.84434 0.94259 0.10246 0.0
H526 H 0.8076 0.01867 0.07192 0.0
H527 H 0.83829 1.00253 0.01687 0.0
Co528 Co 0.33108 0.25188 0.13479 0.0
C529 C 0.29593 0.27163 0.15465 0.0
C530 C 0.31656 0.29325 0.14237 0.0
C531 C 0.30084 0.30345 0.15117 0.0
N532 N 0.31364 0.27326 0.14468 0.0
N533 N 0.2879 0.28986 0.15893 0.0
H534 H 0.28908 0.25748 0.1589 0.0
H535 H 0.32903 0.30019 0.13454 0.0
C536 C 0.36816 0.27345 0.11832 0.0
O537 O 0.37201 0.2592 0.10515 0.0
N538 N 0.34865 0.23048 0.12491 0.0
C539 C 0.34666 0.21931 0.108 0.0
C540 C 0.36133 0.20469 0.10776 0.0
C541 C 0.3648 0.22252 0.13455 0.0
N542 N 0.37266 0.20667 0.12447 0.0
C543 C 0.3033 0.24159 0.10359 0.0
C544 C 0.31182 0.27293 0.07757 0.0
C545 C 0.29714 0.25874 0.07204 0.0
C546 C 0.29286 0.24303 0.08542 0.0
C547 C 0.32218 0.27078 0.09588 0.0
N548 N 0.31825 0.25491 0.10844 0.0
H549 H 0.29963 0.22928 0.11352 0.0
H550 H 0.333 0.28218 0.09992 0.0
H551 H 0.33545 0.2213 0.09644 0.0
H552 H 0.37037 0.22783 0.14892 0.0
O553 O 0.31351 0.23161 0.14643 0.0
O554 O 0.33921 0.24591 0.16212 0.0
O555 O 0.35252 0.27259 0.12948 0.0
C556 C 0.32434 0.23318 0.16268 0.0
H557 H 0.29892 0.31964 0.15147 0.0
H558 H 0.3635 0.19346 0.09614 0.0
H559 H 0.3154 0.28546 0.06776 0.0
H560 H 0.28134 0.23198 0.08199 0.0
Co561 Co 0.32716 0.75448 0.37812 0.0
C562 C 0.29265 0.7319 0.36032 0.0
C563 C 0.32046 0.71603 0.35673 0.0
C564 C 0.30561 0.7056 0.34673 0.0
N565 N 0.31227 0.73223 0.36592 0.0
N566 N 0.28807 0.71564 0.34893 0.0
H567 H 0.28231 0.74418 0.36276 0.0
H568 H 0.33637 0.71259 0.35611 0.0
C569 C 0.34873 0.71815 0.39387 0.0
O570 O 0.33125 0.7113 0.4002 0.0
N571 N 0.34204 0.77687 0.3893 0.0
C572 C 0.33423 0.79191 0.40043 0.0
C573 C 0.34858 0.80669 0.40258 0.0
C574 C 0.36095 0.78277 0.38461 0.0
N575 N 0.36539 0.80105 0.39256 0.0
C576 C 0.29325 0.75342 0.40524 0.0
C577 C 0.31511 0.7477 0.4402 0.0
C578 C 0.29405 0.74925 0.44147 0.0
C579 C 0.28314 0.75222 0.42365 0.0
C580 C 0.32462 0.74882 0.4214 0.0
N581 N 0.31365 0.75095 0.40408 0.0
H582 H 0.28465 0.75733 0.39212 0.0
H583 H 0.3409 0.74843 0.42085 0.0
H584 H 0.31882 0.79256 0.40573 0.0
H585 H 0.37087 0.77417 0.37493 0.0
O586 O 0.3088 0.77343 0.36578 0.0
O587 O 0.33672 0.76157 0.35164 0.0
O588 O 0.34983 0.73554 0.38562 0.0
C589 C 0.32087 0.77305 0.3503 0.0
H590 H 0.30785 0.69211 0.33787 0.0
H591 H 0.34627 0.82102 0.41002 0.0
H592 H 0.32421 0.74576 0.45361 0.0
H593 H 0.26696 0.75443 0.42399 0.0
Co594 Co 0.00942 0.43612 0.88022 0.0
C595 C 0.98891 0.46815 0.9043 0.0
C596 C 0.96825 0.4518 0.88561 0.0
C597 C 0.95771 0.46655 0.89568 0.0
N598 N 0.98781 0.45266 0.89112 0.0
N599 N 0.97074 0.47685 0.90737 0.0
H600 H 1.00269 0.47324 0.91134 0.0
H601 H 0.96206 0.44161 0.87451 0.0
C602 C 0.98838 0.39751 0.86598 0.0
O603 O 1.0043 0.39099 0.85622 0.0
N604 N 0.03118 0.41973 0.8695 0.0
C605 C 0.04417 0.42483 0.85474 0.0
C606 C 0.05939 0.41074 0.854 0.0
C607 C 0.03902 0.40289 0.87789 0.0
N608 N 0.05617 0.39695 0.8686 0.0
C609 C 0.00785 0.4696 0.85388 0.0
C610 C 0.99985 0.44926 0.81846 0.0
C611 C 1.00276 0.47023 0.81777 0.0
C612 C 0.00645 0.48038 0.83592 0.0
C613 C 1.00119 0.43902 0.83689 0.0
N614 N 1.00544 0.4492 0.85427 0.0
H615 H 0.01106 0.47772 0.86762 0.0
H616 H 0.99955 0.42293 0.83691 0.0
H617 H 0.04324 0.43833 0.84568 0.0
H618 H 0.03265 0.39555 0.89097 0.0
O619 O 0.02967 0.45406 0.89111 0.0
O620 O 0.01671 0.42771 0.90711 0.0
O621 O 0.98844 0.41468 0.87471 0.0
C622 C 0.02927 0.4428 0.90717 0.0
H623 H 0.94184 0.46992 0.89391 0.0
H624 H 0.07204 0.41091 0.8437 0.0
H625 H 0.99717 0.4407 0.80483 0.0
H626 H 0.00832 0.49658 0.83633 0.0
Co627 Co 0.68095 0.75381 0.37837 0.0
C628 C 0.71624 0.77592 0.36168 0.0
C629 C 0.68893 0.79301 0.35938 0.0
C630 C 0.70415 0.80362 0.35016 0.0
N631 N 0.69653 0.77573 0.36687 0.0
N632 N 0.72136 0.79286 0.35155 0.0
H633 H 0.72643 0.76358 0.36451 0.0
H634 H 0.6732 0.79719 0.35948 0.0
C635 C 0.64257 0.77373 0.39485 0.0
O636 O 0.63614 0.7571 0.40339 0.0
N637 N 0.66542 0.73154 0.38918 0.0
C638 C 0.67133 0.71815 0.40329 0.0
C639 C 0.65752 0.70264 0.40402 0.0
C640 C 0.64836 0.72373 0.38124 0.0
N641 N 0.64308 0.70625 0.39018 0.0
C642 C 0.7149 0.75021 0.40459 0.0
C643 C 0.69733 0.76533 0.43912 0.0
C644 C 0.71744 0.75873 0.43998 0.0
C645 C 0.72618 0.75127 0.42227 0.0
C646 C 0.68659 0.76425 0.42097 0.0
N647 N 0.6954 0.7568 0.40389 0.0
H648 H 0.72194 0.74371 0.39151 0.0
H649 H 0.67111 0.76897 0.42105 0.0
H650 H 0.6851 0.71905 0.41195 0.0
H651 H 0.6402 0.73047 0.36882 0.0
O652 O 0.69834 0.73434 0.36553 0.0
O653 O 0.67106 0.74764 0.35161 0.0
O654 O 0.65976 0.77443 0.38613 0.0
C655 C 0.68642 0.73552 0.35005 0.0
H656 H 0.70232 0.81766 0.34209 0.0
H657 H 0.65815 0.68962 0.41382 0.0
H658 H 0.68972 0.77086 0.45246 0.0
H659 H 0.74171 0.74622 0.42195 0.0
Co660 Co 0.5029 0.57881 0.38095 0.0
C661 C 0.52423 0.54386 0.39916 0.0
C662 C 0.54211 0.57081 0.3997 0.0
C663 C 0.55264 0.55578 0.40921 0.0
N664 N 0.52434 0.56336 0.3933 0.0
N665 N 0.54136 0.53885 0.4091 0.0
H666 H 0.51154 0.53388 0.39693 0.0
H667 H 0.54696 0.58626 0.39822 0.0
C668 C 0.52253 0.61801 0.37791 0.0
O669 O 0.50688 0.6246 0.3881 0.0
N670 N 0.48173 0.59489 0.36851 0.0
C671 C 0.48196 0.60174 0.34937 0.0
C672 C 0.46689 0.6158 0.34703 0.0
C673 C 0.46645 0.60499 0.37753 0.0
N674 N 0.45724 0.61792 0.36478 0.0
C675 C 0.49028 0.55346 0.34873 0.0
C676 C 0.52694 0.55143 0.32891 0.0
C677 C 0.51043 0.54071 0.32102 0.0
C678 C 0.49192 0.54191 0.33122 0.0
C679 C 0.52464 0.56283 0.34655 0.0
N680 N 0.50643 0.56382 0.35609 0.0
H681 H 0.47591 0.55427 0.35636 0.0
H682 H 0.53757 0.57064 0.35266 0.0
H683 H 0.49309 0.59771 0.33816 0.0
H684 H 0.46303 0.60416 0.39342 0.0
O685 O 0.48308 0.56164 0.39364 0.0
O686 O 0.49601 0.5892 0.40736 0.0
O687 O 0.52324 0.59958 0.37247 0.0
C688 C 0.48406 0.5737 0.40904 0.0
H689 H 0.56738 0.55744 0.41598 0.0
H690 H 0.46379 0.62435 0.3335 0.0
H691 H 0.54159 0.55073 0.32175 0.0
H692 H 0.47868 0.53419 0.3256 0.0
Co693 Co 0.18539 0.76007 0.63589 0.0
C694 C 0.21795 0.73899 0.65843 0.0
C695 C 0.19907 0.71822 0.64245 0.0
C696 C 0.21421 0.70754 0.65179 0.0
N697 N 0.2013 0.73797 0.64672 0.0
N698 N 0.22611 0.72065 0.66175 0.0
H699 H 0.22426 0.75285 0.66418 0.0
H700 H 0.18771 0.71195 0.63264 0.0
C701 C 0.14778 0.73694 0.63969 0.0
O702 O 0.14508 0.74697 0.6565 0.0
N703 N 0.16963 0.78215 0.62508 0.0
C704 C 0.17589 0.79579 0.6114 0.0
C705 C 0.1614 0.81052 0.60954 0.0
C706 C 0.15162 0.78902 0.63166 0.0
N707 N 0.14618 0.80629 0.62236 0.0
C708 C 0.21871 0.75791 0.60911 0.0
C709 C 0.19716 0.75054 0.5742 0.0
C710 C 0.21823 0.75267 0.57298 0.0
C711 C 0.22898 0.75613 0.59087 0.0
C712 C 0.18744 0.75226 0.59288 0.0
N713 N 0.19826 0.75606 0.60996 0.0
H714 H 0.22722 0.76094 0.62264 0.0
H715 H 0.17119 0.75118 0.59351 0.0
H716 H 0.19035 0.79555 0.60387 0.0
H717 H 0.14296 0.78194 0.64345 0.0
O718 O 0.20386 0.77974 0.64733 0.0
O719 O 0.17705 0.76733 0.66275 0.0
O720 O 0.1633 0.74036 0.62879 0.0
C721 C 0.19245 0.77937 0.66327 0.0
H722 H 0.21671 0.69146 0.65067 0.0
H723 H 0.16246 0.82382 0.60017 0.0
H724 H 0.18817 0.74813 0.5608 0.0
H725 H 0.24525 0.75746 0.59086 0.0
Co726 Co 0.01087 0.58035 0.62446 0.0
C727 C 0.9893 0.54867 0.6013 0.0
C728 C 0.96871 0.56758 0.61747 0.0
C729 C 0.95789 0.55253 0.60813 0.0
N730 N 0.98844 0.56525 0.61311 0.0
N731 N 0.97091 0.54058 0.59808 0.0
H732 H 1.00312 0.54224 0.59556 0.0
H733 H 0.96257 0.57884 0.62748 0.0
C734 C 0.98825 0.6184 0.62162 0.0
O735 O 0.99815 0.62129 0.60476 0.0
N736 N 0.03334 0.59506 0.6358 0.0
C737 C 0.04833 0.58685 0.6468 0.0
C738 C 0.06361 0.60075 0.64878 0.0
C739 C 0.0397 0.61382 0.63119 0.0
N740 N 0.05814 0.61764 0.63893 0.0
C741 C 0.00742 0.54646 0.65055 0.0
C742 C 1.00158 0.56779 0.68588 0.0
C743 C 1.00241 0.54666 0.68667 0.0
C744 C 1.00524 0.536 0.66865 0.0
C745 C 1.00363 0.57769 0.66736 0.0
N746 N 0.00655 0.56698 0.65005 0.0
H747 H 0.01011 0.53806 0.63687 0.0
H748 H 1.00336 0.59397 0.66701 0.0
H749 H 0.04859 0.57145 0.65212 0.0
H750 H 0.03177 0.62401 0.62132 0.0
O751 O 0.03012 0.56177 0.61254 0.0
O752 O 0.0185 0.58933 0.59787 0.0
O753 O 0.99158 0.60264 0.63217 0.0
C754 C 0.03018 0.57368 0.59697 0.0
H755 H 0.94181 0.55003 0.60945 0.0
H756 H 0.07785 0.59845 0.65641 0.0
H757 H 0.99939 0.57661 0.69943 0.0
H758 H 0.00634 0.51972 0.66859 0.0
Co759 Co 1.00526 0.93381 0.62757 0.0
C760 C 0.02576 0.97089 0.61305 0.0
C761 C 0.04208 0.94394 0.60566 0.0
C762 C 0.0522 0.96008 0.59767 0.0
N763 N 0.02561 0.95068 0.61542 0.0
N764 N 0.04196 0.97704 0.60225 0.0
H765 H 0.01408 0.98076 0.61874 0.0
H766 H 0.04609 0.9283 0.6037 0.0
C767 C 0.02963 0.89947 0.64582 0.0
O768 O 0.01828 0.89865 0.662 0.0
N769 N 0.98482 0.91616 0.63942 0.0
C770 C 0.97754 0.91574 0.65845 0.0
C771 C 0.96324 0.90082 0.65995 0.0
C772 C 0.97497 0.90107 0.62983 0.0
N773 N 0.96161 0.89163 0.64194 0.0
C774 C 0.99491 0.95994 0.65997 0.0
C775 C 0.03032 0.95667 0.68167 0.0
C776 C 0.01453 0.96841 0.68949 0.0
C777 C 0.99683 0.97025 0.67813 0.0
C778 C 0.02771 0.94641 0.66334 0.0
N779 N 0.00981 0.94746 0.65318 0.0
H780 H 0.98095 0.96135 0.65173 0.0
H781 H 0.04014 0.9378 0.65733 0.0
H782 H 0.98257 0.92494 0.67084 0.0
H783 H 0.97734 0.89709 0.61422 0.0
O784 O 0.98434 0.95118 0.61694 0.0
O785 O 0.99746 0.92502 0.60092 0.0
O786 O 0.02655 0.91278 0.63232 0.0
C787 C 0.98479 0.93998 0.60089 0.0
H788 H 0.06554 0.95925 0.58831 0.0
H789 H 0.95503 0.89672 0.67344 0.0
H790 H 0.04441 0.95514 0.68977 0.0
H791 H 0.98446 0.97961 0.68325 0.0
Co792 Co 0.63608 0.82819 0.75364 0.0
C793 C 0.6511 0.7922 0.77528 0.0
C794 C 0.66079 0.81983 0.78906 0.0
C795 C 0.66926 0.80402 0.79939 0.0
N796 N 0.64927 0.81241 0.77412 0.0
N797 N 0.66322 0.78665 0.79071 0.0
H798 H 0.64416 0.78186 0.76476 0.0
H799 H 0.66369 0.83563 0.79162 0.0
C800 C 0.61763 0.86351 0.77666 0.0
O801 O 0.60354 0.86642 0.76307 0.0
N802 N 0.62335 0.84434 0.73277 0.0
C803 C 0.60976 0.83828 0.71888 0.0
C804 C 0.60817 0.85277 0.70418 0.0
C805 C 0.62979 0.86255 0.72622 0.0
N806 N 0.6208 0.86795 0.70878 0.0
C807 C 0.6066 0.79755 0.74624 0.0
C808 C 0.58132 0.80578 0.77823 0.0
C809 C 0.57603 0.7903 0.76482 0.0
C810 C 0.58912 0.78615 0.7488 0.0
C811 C 0.59904 0.81687 0.77511 0.0
N812 N 0.61108 0.81328 0.75875 0.0
H813 H 0.61628 0.79392 0.73371 0.0
H814 H 0.60306 0.82795 0.78623 0.0
H815 H 0.6022 0.82394 0.71851 0.0
H816 H 0.64171 0.8711 0.73339 0.0
O817 O 0.64776 0.81114 0.73308 0.0
O818 O 0.6621 0.83857 0.7455 0.0
O819 O 0.63025 0.84909 0.77483 0.0
C820 C 0.66312 0.82329 0.73328 0.0
H821 H 0.67994 0.8053 0.81165 0.0
H822 H 0.59892 0.85193 0.69077 0.0
H823 H 0.57204 0.80909 0.79124 0.0
H824 H 0.58577 0.77441 0.73798 0.0
Co825 Co 0.07697 0.13176 0.50905 0.0
C826 C 0.04121 0.11479 0.48774 0.0
C827 C 0.06846 0.11133 0.47074 0.0
C828 C 0.05306 0.10213 0.46042 0.0
N829 N 0.06103 0.11957 0.48775 0.0
N830 N 0.03589 0.10427 0.47109 0.0
H831 H 0.03102 0.11826 0.49994 0.0
H832 H 0.08418 0.11093 0.46655 0.0
C833 C 0.11604 0.14541 0.48833 0.0
O834 O 0.12339 0.15338 0.50484 0.0
N835 N 0.09297 0.14329 0.53072 0.0
C836 C 0.08873 0.15957 0.54213 0.0
C837 C 0.10273 0.16087 0.55743 0.0
C838 C 0.10918 0.13468 0.5396 0.0
N839 N 0.11561 0.14521 0.55579 0.0
C840 C 0.04375 0.15913 0.51096 0.0
C841 C 0.06261 0.19234 0.49445 0.0
C842 C 0.04245 0.19417 0.50071 0.0
C843 C 0.03305 0.17709 0.50887 0.0
C844 C 0.07274 0.17391 0.49654 0.0
N845 N 0.0633 0.15751 0.50469 0.0
H846 H 0.03624 0.14657 0.51795 0.0
H847 H 0.08831 0.17327 0.49212 0.0
H848 H 0.07605 0.16957 0.53999 0.0
H849 H 0.11597 0.12078 0.53445 0.0
O850 O 0.05924 0.1204 0.5292 0.0
O851 O 0.08612 0.10513 0.51656 0.0
O852 O 0.09827 0.13791 0.48798 0.0
C853 C 0.07078 0.10458 0.52878 0.0
H854 H 0.05469 0.09357 0.44663 0.0
H855 H 0.10327 0.17243 0.56892 0.0
H856 H 0.07075 0.20514 0.48845 0.0
H857 H 0.01745 0.17748 0.51368 0.0
Co858 Co 0.38027 0.68379 0.75689 0.0
C859 C 0.35775 0.7169 0.77747 0.0
C860 C 0.37584 0.6998 0.79806 0.0
C861 C 0.3667 0.71518 0.80853 0.0
N862 N 0.37008 0.70068 0.77859 0.0
N863 N 0.35539 0.72596 0.79555 0.0
H864 H 0.35088 0.72228 0.76373 0.0
H865 H 0.38664 0.68925 0.80418 0.0
C866 C 0.3935 0.64457 0.77754 0.0
O867 O 0.40214 0.63748 0.76124 0.0
N868 N 0.39041 0.66741 0.73485 0.0
C869 C 0.40468 0.67303 0.72149 0.0
C870 C 0.40506 0.65941 0.70588 0.0
C871 C 0.38195 0.65066 0.72684 0.0
N872 N 0.3908 0.64535 0.70929 0.0
C873 C 0.40779 0.71666 0.75742 0.0
C874 C 0.44203 0.69533 0.76785 0.0
C875 C 0.44359 0.71622 0.76485 0.0
C876 C 0.42608 0.72686 0.75956 0.0
C877 C 0.4234 0.68568 0.76552 0.0
N878 N 0.40656 0.69636 0.7604 0.0
H879 H 0.39449 0.72511 0.75331 0.0
H880 H 0.42275 0.66964 0.76753 0.0
H881 H 0.41361 0.68662 0.72246 0.0
H882 H 0.3692 0.64288 0.73341 0.0
O883 O 0.36891 0.70171 0.73684 0.0
O884 O 0.35316 0.67554 0.75042 0.0
O885 O 0.38591 0.66229 0.77783 0.0
C886 C 0.35275 0.69057 0.73786 0.0
H887 H 0.3689 0.71867 0.82431 0.0
H888 H 0.4149 0.65994 0.69287 0.0
H889 H 0.45506 0.68645 0.77209 0.0
H890 H 0.42651 0.74292 0.75672 0.0
Co891 Co 0.93131 0.38691 0.50324 0.0
C892 C 0.96389 0.40927 0.48233 0.0
C893 C 0.94296 0.39675 0.46118 0.0
C894 C 0.95827 0.40607 0.45066 0.0
N895 N 0.94644 0.39881 0.4811 0.0
N896 N 0.97147 0.41382 0.46402 0.0
H897 H 0.9712 0.4132 0.49633 0.0
H898 H 0.9306 0.3885 0.45457 0.0
C899 C 0.89255 0.38887 0.48161 0.0
O900 O 0.88865 0.40464 0.49286 0.0
N901 N 0.91664 0.37502 0.52556 0.0
C902 C 0.92436 0.36155 0.53869 0.0
C903 C 0.91153 0.35975 0.55484 0.0
C904 C 0.89925 0.38141 0.5341 0.0
N905 N 0.89582 0.37229 0.55196 0.0
C906 C 0.96539 0.36077 0.49999 0.0
C907 C 0.94403 0.32563 0.4931 0.0
C908 C 0.9651 0.32464 0.49492 0.0
C909 C 0.9758 0.34257 0.4981 0.0
C910 C 0.9342 0.34421 0.49477 0.0
N911 N 0.94488 0.36143 0.49842 0.0
H912 H 0.97378 0.37432 0.50324 0.0
H913 H 0.91793 0.34461 0.49396 0.0
H914 H 0.93899 0.35448 0.53735 0.0
H915 H 0.89021 0.39368 0.52842 0.0
O916 O 0.94971 0.39872 0.52272 0.0
O917 O 0.92211 0.41338 0.5111 0.0
O918 O 0.90912 0.37931 0.48384 0.0
C919 C 0.9378 0.41431 0.52275 0.0
H920 H 0.95994 0.40638 0.43444 0.0
H921 H 0.91404 0.35066 0.56814 0.0
H922 H 0.93521 0.31212 0.49063 0.0
H923 H 0.99204 0.34245 0.49989 0.0
Co924 Co 0.63465 0.1833 0.7581 0.0
C925 C 0.65814 0.21453 0.73597 0.0
C926 C 0.63772 0.19864 0.71662 0.0
C927 C 0.6473 0.21328 0.70548 0.0
N928 N 0.64464 0.19928 0.73572 0.0
N929 N 0.66005 0.22329 0.71771 0.0
H930 H 0.66613 0.21949 0.74924 0.0
H931 H 0.62587 0.18883 0.71126 0.0
C932 C 0.61932 0.14432 0.73826 0.0
O933 O 0.61067 0.13765 0.75474 0.0
N934 N 0.62478 0.16767 0.78067 0.0
C935 C 0.61174 0.17409 0.79489 0.0
C936 C 0.61133 0.16028 0.81034 0.0
C937 C 0.63257 0.15034 0.78798 0.0
N938 N 0.62437 0.14536 0.8059 0.0
C939 C 0.60831 0.21702 0.75651 0.0
C940 C 0.57269 0.19619 0.75065 0.0
C941 C 0.57211 0.2173 0.75188 0.0
C942 C 0.59027 0.22771 0.75477 0.0
C943 C 0.59114 0.18608 0.75224 0.0
N944 N 0.60864 0.19651 0.75516 0.0
H945 H 0.62214 0.22526 0.75903 0.0
H946 H 0.59116 0.16991 0.75161 0.0
H947 H 0.60369 0.18826 0.7945 0.0
H948 H 0.64435 0.14182 0.78056 0.0
O949 O 0.64696 0.20136 0.77747 0.0
O950 O 0.66173 0.17453 0.76404 0.0
O951 O 0.62775 0.16164 0.73777 0.0
C952 C 0.66281 0.18978 0.77633 0.0
H953 H 0.64439 0.21689 0.68984 0.0
H954 H 0.60227 0.16122 0.82388 0.0
H955 H 0.55901 0.18756 0.74841 0.0
H956 H 0.5905 0.24397 0.75612 0.0
Co957 Co 0.43145 0.12964 0.50386 0.0
C958 C 0.46363 0.10608 0.52487 0.0
C959 C 0.4508 0.12914 0.54356 0.0
C960 C 0.46703 0.12087 0.55351 0.0
N961 N 0.4487 0.11999 0.52552 0.0
N962 N 0.47496 0.10639 0.54174 0.0
H963 H 0.46714 0.09684 0.51193 0.0
H964 H 0.44198 0.14188 0.54863 0.0
C965 C 0.39301 0.14417 0.5249 0.0
O966 O 0.38548 0.15161 0.50822 0.0
N967 N 0.41467 0.13935 0.48182 0.0
C968 C 0.41966 0.15403 0.46867 0.0
C969 C 0.40582 0.15433 0.45329 0.0
C970 C 0.3981 0.1305 0.47378 0.0
N971 N 0.39227 0.1395 0.45642 0.0
C972 C 0.46511 0.1562 0.50324 0.0
C973 C 0.44474 0.19151 0.51189 0.0
C974 C 0.46573 0.19217 0.50917 0.0
C975 C 0.4759 0.17418 0.50488 0.0
C976 C 0.43453 0.17308 0.51047 0.0
N977 N 0.44473 0.15573 0.5061 0.0
H978 H 0.47318 0.14248 0.49979 0.0
H979 H 0.41842 0.17294 0.51242 0.0
H980 H 0.43299 0.16335 0.46954 0.0
H981 H 0.39086 0.11736 0.48016 0.0
O982 O 0.44867 0.1172 0.48383 0.0
O983 O 0.4225 0.10249 0.49856 0.0
O984 O 0.41075 0.13659 0.52524 0.0
C985 C 0.4372 0.10135 0.48563 0.0
H986 H 0.47298 0.12557 0.56795 0.0
H987 H 0.40599 0.16452 0.44056 0.0
H988 H 0.43631 0.20508 0.51523 0.0
H989 H 0.49205 0.17404 0.50243 0.0
Co990 Co 0.3793 0.32946 0.7573 0.0
C991 C 0.35591 0.29639 0.73777 0.0
C992 C 0.37298 0.31347 0.71632 0.0
C993 C 0.3634 0.29804 0.70633 0.0
N994 N 0.36816 0.3126 0.73605 0.0
N995 N 0.35274 0.28727 0.71985 0.0
H996 H 0.3497 0.29104 0.75184 0.0
H997 H 0.3834 0.32404 0.70962 0.0
C998 C 0.394 0.36752 0.73568 0.0
O999 O 0.40326 0.37458 0.75166 0.0
N1000 N 0.39037 0.34596 0.77885 0.0
C1001 C 0.40542 0.34067 0.79145 0.0
C1002 C 0.40646 0.35444 0.80688 0.0
C1003 C 0.38212 0.36266 0.78718 0.0
N1004 N 0.39174 0.36823 0.80427 0.0
C1005 C 0.40518 0.29546 0.75709 0.0
C1006 C 0.44071 0.31503 0.74757 0.0
C1007 C 0.44123 0.29421 0.75139 0.0
C1008 C 0.42302 0.28443 0.75586 0.0
C1009 C 0.4224 0.32551 0.74875 0.0
N1010 N 0.40498 0.31573 0.75375 0.0
H1011 H 0.3914 0.28767 0.7609 0.0
H1012 H 0.42252 0.34153 0.74641 0.0
H1013 H 0.41444 0.32717 0.79024 0.0
H1014 H 0.36883 0.37006 0.7813 0.0
O1015 O 0.36762 0.31235 0.7778 0.0
O1016 O 0.35257 0.33879 0.76394 0.0
O1017 O 0.3855 0.35025 0.73595 0.0
C1018 C 0.35181 0.32395 0.77672 0.0
H1019 H 0.36487 0.29452 0.69047 0.0
H1020 H 0.41699 0.35399 0.81932 0.0
H1021 H 0.45438 0.32332 0.74431 0.0
H1022 H 0.42248 0.26834 0.75846 0.0
Co1023 Co 0.58004 0.38411 0.50248 0.0
C1024 C 0.54559 0.40209 0.52505 0.0
C1025 C 0.57311 0.40316 0.5419 0.0
C1026 C 0.55841 0.41297 0.55269 0.0
N1027 N 0.56507 0.39606 0.52465 0.0
N1028 N 0.54106 0.41236 0.5421 0.0
H1029 H 0.53518 0.39975 0.51279 0.0
H1030 H 0.58886 0.40243 0.54596 0.0
C1031 C 0.61944 0.36907 0.52149 0.0
O1032 O 0.62638 0.36211 0.50436 0.0
N1033 N 0.59503 0.37283 0.47992 0.0
C1034 C 0.59006 0.35688 0.46835 0.0
C1035 C 0.60347 0.35559 0.45255 0.0
C1036 C 0.61106 0.38132 0.47058 0.0
N1037 N 0.61671 0.37096 0.45399 0.0
C1038 C 0.54586 0.358 0.50075 0.0
C1039 C 0.56431 0.32331 0.51444 0.0
C1040 C 0.54394 0.32239 0.50865 0.0
C1041 C 0.53473 0.34022 0.50203 0.0
C1042 C 0.57488 0.34158 0.51322 0.0
N1043 N 0.56566 0.35868 0.50633 0.0
H1044 H 0.53848 0.37117 0.49481 0.0
H1045 H 0.59063 0.34158 0.5171 0.0
H1046 H 0.57727 0.34709 0.47072 0.0
H1047 H 0.61832 0.39497 0.47575 0.0
O1048 O 0.5622 0.39669 0.48319 0.0
O1049 O 0.58979 0.41074 0.4957 0.0
O1050 O 0.60167 0.37651 0.52273 0.0
C1051 C 0.57416 0.41218 0.4839 0.0
H1052 H 0.56072 0.4209 0.56674 0.0
H1053 H 0.60339 0.3442 0.44088 0.0
H1054 H 0.57227 0.30993 0.51931 0.0
H1055 H 0.519 0.34055 0.49771 0.0
Co1056 Co 0.75404 0.63073 0.82582 0.0
C1057 C 0.77358 0.65478 0.7932 0.0
C1058 C 0.79488 0.63686 0.80961 0.0
C1059 C 0.80498 0.64684 0.79453 0.0
N1060 N 0.77519 0.64196 0.80894 0.0
N1061 N 0.79156 0.65805 0.7842 0.0
H1062 H 0.75957 0.6614 0.78815 0.0
H1063 H 0.80146 0.62604 0.81985 0.0
C1064 C 0.77599 0.61706 0.86414 0.0
O1065 O 0.76027 0.60743 0.87131 0.0
N1066 N 0.73269 0.61958 0.84243 0.0
C1067 C 0.7199 0.60467 0.83724 0.0
C1068 C 0.70471 0.60361 0.85132 0.0
C1069 C 0.72475 0.62774 0.85933 0.0
N1070 N 0.70774 0.61816 0.86519 0.0
C1071 C 0.75542 0.60426 0.79227 0.0
C1072 C 0.76493 0.56932 0.81283 0.0
C1073 C 0.76194 0.5684 0.79192 0.0
C1074 C 0.75732 0.58624 0.78162 0.0
C1075 C 0.76309 0.58776 0.8229 0.0
N1076 N 0.75818 0.60489 0.81263 0.0
H1077 H 0.75148 0.6178 0.78414 0.0
H1078 H 0.76498 0.58798 0.83897 0.0
H1079 H 0.72089 0.59574 0.82365 0.0
H1080 H 0.7309 0.6409 0.86675 0.0
O1081 O 0.73333 0.64162 0.80837 0.0
O1082 O 0.74672 0.65741 0.83463 0.0
O1083 O 0.77546 0.62539 0.8468 0.0
C1084 C 0.73388 0.65757 0.81981 0.0
H1085 H 0.82083 0.64532 0.79095 0.0
H1086 H 0.69218 0.59317 0.85109 0.0
H1087 H 0.7686 0.5559 0.82136 0.0
H1088 H 0.75463 0.58621 0.76553 0.0
Co1089 Co 0.88132 0.01007 0.43452 0.0
C1090 C 0.89688 0.98865 0.4705 0.0
C1091 C 0.90336 0.97285 0.44303 0.0
C1092 C 0.91197 0.9625 0.45872 0.0
N1093 N 0.89382 0.98916 0.4504 0.0
N1094 N 0.90797 0.97243 0.47601 0.0
H1095 H 0.89152 1.00016 0.48074 0.0
H1096 H 0.90481 0.96915 0.42727 0.0
C1097 C 0.86313 0.98794 0.39871 0.0
O1098 O 0.84776 1.00037 0.3976 0.0
N1099 N 0.86924 0.03114 0.41804 0.0
C1100 C 0.85291 0.04273 0.42172 0.0
C1101 C 0.85137 0.05712 0.40688 0.0
C1102 C 0.87721 0.0386 0.40082 0.0
N1103 N 0.86671 0.05456 0.39381 0.0
C1104 C 0.85054 0.01785 0.46361 0.0
C1105 C 0.82692 0.98435 0.45644 0.0
C1106 C 0.82081 0.9981 0.47135 0.0
C1107 C 0.83303 0.01495 0.47488 0.0
C1108 C 0.84468 0.98784 0.44545 0.0
N1109 N 0.85589 1.00486 0.44857 0.0
H1110 H 0.85949 0.03106 0.46669 0.0
H1111 H 0.8495 0.97652 0.43486 0.0
H1112 H 0.84278 0.04136 0.4343 0.0
H1113 H 0.89087 0.03292 0.39395 0.0
O1114 O 0.89249 0.03035 0.45235 0.0
O1115 O 0.90776 0.01825 0.4253 0.0
O1116 O 0.87614 0.9896 0.41278 0.0
C1117 C 0.90826 0.0303 0.44073 0.0
H1118 H 0.92138 0.94925 0.45732 0.0
H1119 H 0.83992 0.0687 0.4059 0.0
H1120 H 0.81831 0.97079 0.45358 0.0
H1121 H 0.82898 0.02611 0.48608 0.0
Co1122 Co 0.26046 0.88035 0.83292 0.0
C1123 C 0.24156 0.86092 0.79715 0.0
C1124 C 0.21945 0.8707 0.81861 0.0
C1125 C 0.20964 0.8619 0.80269 0.0
N1126 N 0.23951 0.86999 0.81528 0.0
N1127 N 0.22353 0.85567 0.78924 0.0
H1128 H 0.25588 0.85791 0.78999 0.0
H1129 H 0.21215 0.8773 0.83157 0.0
C1130 C 0.23744 0.89756 0.86878 0.0
O1131 O 0.2504 0.91226 0.87151 0.0
N1132 N 0.28137 0.89072 0.85085 0.0
C1133 C 0.29046 0.90894 0.85055 0.0
C1134 C 0.30491 0.90957 0.86536 0.0
C1135 C 0.29035 0.88069 0.86618 0.0
N1136 N 0.3049 0.89179 0.87513 0.0
C1137 C 0.27123 0.91219 0.80612 0.0
C1138 C 0.23752 0.93601 0.81169 0.0
C1139 C 0.25211 0.94211 0.79762 0.0
C1140 C 0.26916 0.92991 0.79501 0.0
C1141 C 0.24017 0.91807 0.82255 0.0
N1142 N 0.25709 0.90657 0.82 0.0
H1143 H 0.28454 0.90314 0.80378 0.0
H1144 H 0.22824 0.91328 0.83247 0.0
H1145 H 0.28684 0.9213 0.84067 0.0
H1146 H 0.28664 0.86543 0.87051 0.0
O1147 O 0.28119 0.86907 0.8156 0.0
O1148 O 0.26681 0.85311 0.84108 0.0
O1149 O 0.23942 0.8853 0.85412 0.0
C1150 C 0.27971 0.85275 0.82635 0.0
H1151 H 0.19346 0.86043 0.80108 0.0
H1152 H 0.31452 0.92228 0.86884 0.0
H1153 H 0.22386 0.94469 0.81388 0.0
H1154 H 0.28098 0.93405 0.78454 0.0
Co1155 Co 0.13147 0.50079 0.43117 0.0
C1156 C 0.11549 0.52483 0.46544 0.0
C1157 C 0.10912 0.53855 0.437 0.0
C1158 C 0.09939 0.54933 0.45178 0.0
N1159 N 0.11967 0.52342 0.44557 0.0
N1160 N 0.10331 0.54059 0.46968 0.0
H1161 H 0.12 0.51387 0.47647 0.0
H1162 H 0.10742 0.5408 0.42096 0.0
C1163 C 0.14739 0.53706 0.40962 0.0
O1164 O 0.15311 0.54435 0.42712 0.0
N1165 N 0.14236 0.47807 0.4167 0.0
C1166 C 0.153 0.46276 0.42474 0.0
C1167 C 0.15433 0.44753 0.41074 0.0
C1168 C 0.13729 0.47198 0.39799 0.0
N1169 N 0.14434 0.4533 0.394 0.0
C1170 C 0.15806 0.49909 0.46533 0.0
C1171 C 0.19326 0.50885 0.44535 0.0
C1172 C 0.19403 0.50538 0.46618 0.0
C1173 C 0.1761 0.50023 0.47609 0.0
C1174 C 0.17482 0.50742 0.43512 0.0
N1175 N 0.15726 0.50364 0.44529 0.0
H1176 H 0.1449 0.4937 0.4731 0.0
H1177 H 0.17481 0.50892 0.41893 0.0
H1178 H 0.15844 0.46221 0.44008 0.0
H1179 H 0.12747 0.48045 0.38809 0.0
O1180 O 0.11798 0.48232 0.44935 0.0
O1181 O 0.10492 0.49441 0.4211 0.0
O1182 O 0.13973 0.5194 0.40852 0.0
C1183 C 0.10277 0.48314 0.43698 0.0
H1184 H 0.08905 0.56171 0.44933 0.0
H1185 H 0.16152 0.43306 0.41297 0.0
H1186 H 0.20688 0.51202 0.43691 0.0
H1187 H 0.17596 0.49693 0.49207 0.0
Co1188 Co 0.75574 0.37614 0.67865 0.0
C1189 C 0.77971 0.3581 0.71228 0.0
C1190 C 0.79445 0.35484 0.68385 0.0
C1191 C 0.80561 0.34486 0.69816 0.0
N1192 N 0.77852 0.36387 0.69275 0.0
N1193 N 0.7963 0.34688 0.71609 0.0
H1194 H 0.76784 0.36033 0.72313 0.0
H1195 H 0.79728 0.35445 0.66783 0.0
C1196 C 0.79149 0.3931 0.65769 0.0
O1197 O 0.79798 0.39844 0.67563 0.0
N1198 N 0.7329 0.38727 0.66439 0.0
C1199 C 0.71814 0.39869 0.67238 0.0
C1200 C 0.70277 0.40033 0.65858 0.0
C1201 C 0.72624 0.38192 0.64593 0.0
N1202 N 0.70776 0.38962 0.642 0.0
C1203 C 0.75701 0.40239 0.7131 0.0
C1204 C 0.7619 0.43807 0.69227 0.0
C1205 C 0.76067 0.43869 0.71337 0.0
C1206 C 0.75818 0.42046 0.72373 0.0
C1207 C 0.7608 0.41955 0.6822 0.0
N1208 N 0.75913 0.40186 0.69267 0.0
H1209 H 0.75349 0.38897 0.72138 0.0
H1210 H 0.76081 0.4195 0.66592 0.0
H1211 H 0.71809 0.4046 0.68756 0.0
H1212 H 0.73418 0.37151 0.6362 0.0
O1213 O 0.73742 0.36343 0.69721 0.0
O1214 O 0.74867 0.34961 0.66891 0.0
O1215 O 0.77427 0.38457 0.6559 0.0
C1216 C 0.73763 0.34805 0.68508 0.0
H1217 H 0.81913 0.33621 0.69532 0.0
H1218 H 0.68872 0.40829 0.66089 0.0
H1219 H 0.76309 0.45179 0.68352 0.0
H1220 H 0.75691 0.42006 0.73999 0.0
Co1221 Co 0.62655 0.00834 0.58003 0.0
C1222 C 0.60473 0.98739 0.54699 0.0
C1223 C 0.61887 0.96641 0.56706 0.0
C1224 C 0.60962 0.95577 0.55185 0.0
N1225 N 0.61568 0.98627 0.56413 0.0
N1226 N 0.6008 0.969 0.53921 0.0
H1227 H 0.59985 1.00132 0.54015 0.0
H1228 H 0.6278 0.95997 0.57904 0.0
C1229 C 0.62257 0.98645 0.61843 0.0
O1230 O 0.60647 0.99753 0.62139 0.0
N1231 N 0.63754 0.03047 0.59569 0.0
C1232 C 0.65255 0.04291 0.58996 0.0
C1233 C 0.65436 0.05814 0.60389 0.0
C1234 C 0.63017 0.03858 0.61285 0.0
N1235 N 0.64023 0.05545 0.61826 0.0
C1236 C 0.65419 0.00629 0.54723 0.0
C1237 C 0.688 0.99562 0.56916 0.0
C1238 C 0.68987 0.99824 0.54821 0.0
C1239 C 0.67256 1.00361 0.53728 0.0
C1240 C 0.66928 0.99846 0.57855 0.0
N1241 N 0.6527 1.00377 0.56756 0.0
H1242 H 0.64108 0.01057 0.53856 0.0
H1243 H 0.66827 0.99682 0.59471 0.0
H1244 H 0.66117 0.04154 0.5762 0.0
H1245 H 0.61699 0.03304 0.6206 0.0
O1246 O 0.61553 0.02813 0.56138 0.0
O1247 O 0.59946 0.01578 0.58783 0.0
O1248 O 0.63303 0.98873 0.60242 0.0
C1249 C 0.59928 0.02771 0.57236 0.0
H1250 H 0.60995 0.93958 0.54989 0.0
H1251 H 0.66508 0.07041 0.60325 0.0
H1252 H 0.70086 0.99136 0.57826 0.0
H1253 H 0.67322 0.00619 0.52119 0.0
Co1254 Co 0.25643 0.13373 0.68378 0.0
C1255 C 0.23697 0.15677 0.71721 0.0
C1256 C 0.21573 0.13866 0.70093 0.0
C1257 C 0.20575 0.14814 0.71644 0.0
N1258 N 0.2353 0.14422 0.70123 0.0
N1259 N 0.21914 0.15947 0.72668 0.0
H1260 H 0.25093 0.1636 0.72209 0.0
H1261 H 0.2092 0.12782 0.69068 0.0
C1262 C 0.23466 0.12048 0.64532 0.0
O1263 O 0.25085 0.11197 0.6378 0.0
N1264 N 0.27791 0.12328 0.66673 0.0
C1265 C 0.29041 0.10788 0.67119 0.0
C1266 C 0.30563 0.10721 0.65714 0.0
C1267 C 0.28611 0.1321 0.65025 0.0
N1268 N 0.30297 0.12247 0.64398 0.0
C1269 C 0.25712 0.1067 0.71699 0.0
C1270 C 0.24526 0.07227 0.69677 0.0
C1271 C 0.24937 0.071 0.7175 0.0
C1272 C 0.25532 0.08861 0.72757 0.0
C1273 C 0.2472 0.09074 0.68673 0.0
N1274 N 0.25316 0.10765 0.69684 0.0
H1275 H 0.26177 0.12006 0.72503 0.0
H1276 H 0.24431 0.09121 0.67079 0.0
H1277 H 0.2892 0.09825 0.68426 0.0
H1278 H 0.28021 0.14565 0.64338 0.0
O1279 O 0.27711 0.14522 0.70093 0.0
O1280 O 0.26272 0.1607 0.67505 0.0
O1281 O 0.23477 0.12798 0.66306 0.0
C1282 C 0.27574 0.16126 0.68969 0.0
H1283 H 0.19002 0.1462 0.72035 0.0
H1284 H 0.3179 0.09646 0.65687 0.0
H1285 H 0.24049 0.05914 0.68835 0.0
H1286 H 0.25897 0.08839 0.74347 0.0
Co1287 Co 0.38602 0.50614 0.57982 0.0
C1288 C 0.40094 0.52723 0.54339 0.0
C1289 C 0.40606 0.54426 0.57041 0.0
C1290 C 0.41453 0.55445 0.55451 0.0
N1291 N 0.3975 0.52726 0.56344 0.0
N1292 N 0.41141 0.54373 0.5375 0.0
H1293 H 0.39633 0.51512 0.53351 0.0
H1294 H 0.40692 0.54856 0.5861 0.0
C1295 C 0.3835 0.5265 0.61867 0.0
O1296 O 0.39421 0.51123 0.62526 0.0
N1297 N 0.37446 0.48514 0.59681 0.0
C1298 C 0.35505 0.48405 0.60288 0.0
C1299 C 0.35314 0.46881 0.61679 0.0
C1300 C 0.38413 0.47071 0.60752 0.0
N1301 N 0.37146 0.46057 0.6198 0.0
C1302 C 0.35352 0.4921 0.55579 0.0
C1303 C 0.33229 0.52792 0.55354 0.0
C1304 C 0.32443 0.51072 0.54401 0.0
C1305 C 0.33543 0.49271 0.54513 0.0
C1306 C 0.3505 0.52661 0.56426 0.0
N1307 N 0.36065 0.50875 0.56548 0.0
H1308 H 0.36173 0.47806 0.55659 0.0
H1309 H 0.35645 0.53994 0.5715 0.0
H1310 H 0.34321 0.49427 0.5983 0.0
H1311 H 0.40021 0.46812 0.60707 0.0
O1312 O 0.39842 0.48619 0.56271 0.0
O1313 O 0.41298 0.49988 0.58945 0.0
O1314 O 0.37782 0.5269 0.6003 0.0
C1315 C 0.41424 0.48763 0.57414 0.0
H1316 H 0.42325 0.56818 0.55565 0.0
H1317 H 0.33956 0.4649 0.62497 0.0
H1318 H 0.32432 0.54215 0.55301 0.0
H1319 H 0.33019 0.47917 0.53769 0.0
Co1320 Co 0.83057 0.7547 0.6318 0.0
C1321 C 0.79836 0.77628 0.65449 0.0
C1322 C 0.81528 0.79626 0.63558 0.0
C1323 C 0.80011 0.80709 0.6447 0.0
N1324 N 0.81432 0.77693 0.64183 0.0
N1325 N 0.78944 0.79445 0.65648 0.0
H1326 H 0.79296 0.76275 0.66175 0.0
H1327 H 0.82567 0.80201 0.62443 0.0
C1328 C 0.86952 0.77499 0.61687 0.0
O1329 O 0.87639 0.75876 0.60791 0.0
N1330 N 0.84643 0.73224 0.62194 0.0
C1331 C 0.83978 0.71774 0.60934 0.0
C1332 C 0.85343 0.70212 0.60925 0.0
C1333 C 0.86382 0.72498 0.62973 0.0
N1334 N 0.86851 0.70674 0.62203 0.0
C1335 C 0.79696 0.75652 0.60536 0.0
C1336 C 0.81793 0.76192 0.56978 0.0
C1337 C 0.7968 0.76093 0.5692 0.0
C1338 C 0.78632 0.75829 0.58732 0.0
C1339 C 0.82801 0.7604 0.58825 0.0
N1340 N 0.8175 0.75772 0.60574 0.0
H1341 H 0.78865 0.75406 0.61914 0.0
H1342 H 0.84421 0.76088 0.58832 0.0
H1343 H 0.82548 0.718 0.60151 0.0
H1344 H 0.87246 0.73254 0.64132 0.0
O1345 O 0.81246 0.73525 0.64378 0.0
O1346 O 0.83917 0.74861 0.65887 0.0
O1347 O 0.85217 0.77515 0.62525 0.0
C1348 C 0.82387 0.73635 0.65972 0.0
H1349 H 0.79661 0.8228 0.6421 0.0
H1350 H 0.85221 0.68828 0.60069 0.0
H1351 H 0.82659 0.7639 0.55608 0.0
H1352 H 0.77003 0.7571 0.58753 0.0
Co1353 Co 0.83394 0.25786 0.87343 0.0
C1354 C 0.79864 0.23671 0.85594 0.0
C1355 C 0.82551 0.21871 0.85475 0.0
C1356 C 0.81018 0.2083 0.84553 0.0
N1357 N 0.81828 0.23647 0.86133 0.0
N1358 N 0.79329 0.21966 0.84608 0.0
H1359 H 0.78877 0.24944 0.85845 0.0
H1360 H 0.841 0.21381 0.85594 0.0
C1361 C 0.87301 0.23803 0.87757 0.0
O1362 O 0.87999 0.25344 0.86732 0.0
N1363 N 0.85008 0.27916 0.88567 0.0
C1364 C 0.85485 0.28081 0.90537 0.0
C1365 C 0.86845 0.2963 0.90779 0.0
C1366 C 0.8612 0.29353 0.87637 0.0
N1367 N 0.87253 0.30415 0.88953 0.0
C1368 C 0.80747 0.27076 0.9048 0.0
C1369 C 0.80692 0.23489 0.92603 0.0
C1370 C 0.7956 0.25124 0.93329 0.0
C1371 C 0.79591 0.26932 0.92233 0.0
C1372 C 0.8182 0.23693 0.90832 0.0
N1373 N 0.81861 0.25481 0.89816 0.0
H1374 H 0.80776 0.28485 0.89664 0.0
H1375 H 0.82643 0.22405 0.90271 0.0
H1376 H 0.84961 0.27085 0.91714 0.0
H1377 H 0.8617 0.29577 0.86026 0.0
O1378 O 0.81721 0.27767 0.86018 0.0
O1379 O 0.84472 0.264 0.84702 0.0
O1380 O 0.85442 0.23747 0.88246 0.0
C1381 C 0.82942 0.27614 0.84493 0.0
H1382 H 0.81159 0.19358 0.83868 0.0
H1383 H 0.87567 0.30066 0.92175 0.0
H1384 H 0.80682 0.22054 0.93379 0.0
H1385 H 0.78758 0.2824 0.92744 0.0
Co1386 Co 0.50476 0.931 0.38603 0.0
C1387 C 0.48483 0.96433 0.40862 0.0
C1388 C 0.4635 0.94673 0.39191 0.0
C1389 C 0.45338 0.96231 0.40115 0.0
N1390 N 0.48324 0.94786 0.39671 0.0
N1391 N 0.46683 0.97341 0.41156 0.0
H1392 H 0.49886 0.9699 0.41473 0.0
H1393 H 0.45689 0.93587 0.38174 0.0
C1394 C 0.48383 0.89248 0.37145 0.0
O1395 O 0.49994 0.88585 0.36207 0.0
N1396 N 0.52659 0.91457 0.37552 0.0
C1397 C 0.53981 0.91998 0.36106 0.0
C1398 C 0.55516 0.90608 0.3604 0.0
C1399 C 0.53446 0.89771 0.38384 0.0
N1400 N 0.55183 0.8921 0.37476 0.0
C1401 C 0.5045 0.96472 0.35979 0.0
C1402 C 0.49656 0.94459 0.32423 0.0
C1403 C 0.50002 0.96548 0.32357 0.0
C1404 C 0.50366 0.97553 0.34181 0.0
C1405 C 0.49727 0.93434 0.34268 0.0
N1406 N 0.50151 0.94439 0.36013 0.0
H1407 H 0.50781 0.97272 0.37357 0.0
H1408 H 0.49519 0.91828 0.34268 0.0
H1409 H 0.53898 0.93362 0.3522 0.0
H1410 H 0.52799 0.89013 0.39675 0.0
O1411 O 0.52504 0.9484 0.39775 0.0
O1412 O 0.51115 0.92207 0.41294 0.0
O1413 O 0.48367 0.90984 0.37983 0.0
C1414 C 0.52387 0.93697 0.41367 0.0
H1415 H 0.43748 0.9657 0.39959 0.0
H1416 H 0.56802 0.90651 0.35036 0.0
H1417 H 0.49394 0.93606 0.31058 0.0
H1418 H 0.50592 0.99167 0.34229 0.0
Co1419 Co 0.18371 0.25646 0.88008 0.0
C1420 C 0.21696 0.27621 0.85718 0.0
C1421 C 0.20099 0.29708 0.87597 0.0
C1422 C 0.21654 0.30717 0.86667 0.0
N1423 N 0.20107 0.27769 0.86986 0.0
N1424 N 0.22659 0.294 0.85493 0.0
H1425 H 0.2217 0.2624 0.84997 0.0
H1426 H 0.19092 0.30338 0.88711 0.0
C1427 C 0.14544 0.27802 0.89428 0.0
O1428 O 0.13806 0.26175 0.90273 0.0
N1429 N 0.16673 0.23491 0.89032 0.0
C1430 C 0.17136 0.22205 0.90536 0.0
C1431 C 0.15733 0.2068 0.90574 0.0
C1432 C 0.15014 0.22697 0.88147 0.0
N1433 N 0.14402 0.20987 0.89069 0.0
C1434 C 0.21716 0.25421 0.90653 0.0
C1435 C 0.19812 0.26642 0.94151 0.0
C1436 C 0.21854 0.26086 0.94233 0.0
C1437 C 0.22806 0.25489 0.92447 0.0
C1438 C 0.18766 0.26535 0.92317 0.0
N1439 N 0.19719 0.25911 0.90601 0.0
H1440 H 0.22484 0.24963 0.89293 0.0
H1441 H 0.17186 0.26905 0.92303 0.0
H1442 H 0.18454 0.22302 0.91487 0.0
H1443 H 0.14313 0.23317 0.86812 0.0
O1444 O 0.20066 0.23595 0.86804 0.0
O1445 O 0.17469 0.25062 0.853 0.0
O1446 O 0.16307 0.27801 0.88649 0.0
C1447 C 0.18932 0.23758 0.85212 0.0
H1448 H 0.22065 0.32277 0.86906 0.0
H1449 H 0.15721 0.19418 0.91606 0.0
H1450 H 0.19017 0.27099 0.95502 0.0
H1451 H 0.24387 0.2508 0.92432 0.0
Co1452 Co 0.00773 0.07911 0.8834 0.0
C1453 C 0.02969 0.04445 0.90116 0.0
C1454 C 0.04783 0.07114 0.90095 0.0
C1455 C 0.05848 0.05605 0.91031 0.0
N1456 N 0.02983 0.06384 0.89498 0.0
N1457 N 0.04703 0.03926 0.91054 0.0
H1458 H 0.01675 0.03464 0.89986 0.0
H1459 H 0.05268 0.08659 0.89958 0.0
C1460 C 0.02698 0.11818 0.86765 0.0
O1461 O 0.01024 0.12448 0.85923 0.0
N1462 N 0.98524 0.09416 0.87236 0.0
C1463 C 0.97247 0.08819 0.8577 0.0
C1464 C 0.9567 0.10166 0.85662 0.0
C1465 C 0.97677 0.11091 0.88029 0.0
N1466 N 0.9595 0.11595 0.87078 0.0
C1467 C 1.00561 0.04529 0.85684 0.0
C1468 C 0.02085 0.06357 0.82269 0.0
C1469 C 0.01455 0.04342 0.8215 0.0
C1470 C 0.00702 0.03429 0.83898 0.0
C1471 C 0.01914 0.0741 0.84093 0.0
N1472 N 0.01155 0.06497 0.85778 0.0
H1473 H 0.99934 0.03791 0.86986 0.0
H1474 H 0.0235 0.08968 0.84108 0.0
H1475 H 0.97403 0.07464 0.84882 0.0
H1476 H 0.98296 0.11907 0.89298 0.0
O1477 O 0.98842 0.06117 0.89585 0.0
O1478 O 1.00089 0.08858 0.91019 0.0
O1479 O 0.02796 0.10087 0.8761 0.0
C1480 C 0.98915 0.07291 0.91151 0.0
H1481 H 0.07335 0.05757 0.91684 0.0
H1482 H 0.94411 0.10096 0.84627 0.0
H1483 H 0.0265 0.07134 0.8095 0.0
H1484 H 1.00217 0.01871 0.83891 0.0
Co1485 Co 0.68574 0.25569 0.12728 0.0
C1486 C 0.71843 0.23545 0.15099 0.0
C1487 C 0.70656 0.21681 0.12737 0.0
C1488 C 0.7226 0.20696 0.13607 0.0
N1489 N 0.70398 0.23476 0.1366 0.0
N1490 N 0.72992 0.21867 0.1509 0.0
H1491 H 0.72131 0.24824 0.16065 0.0
H1492 H 0.69797 0.21163 0.11453 0.0
C1493 C 0.64739 0.2335 0.11494 0.0
O1494 O 0.63941 0.24984 0.10721 0.0
N1495 N 0.66775 0.27691 0.1178 0.0
C1496 C 0.66971 0.28807 0.10089 0.0
C1497 C 0.65461 0.30226 0.10036 0.0
C1498 C 0.6519 0.28515 0.12772 0.0
N1499 N 0.64349 0.30042 0.11722 0.0
C1500 C 0.71795 0.25827 0.09913 0.0
C1501 C 0.69739 0.24497 0.06543 0.0
C1502 C 0.71784 0.25014 0.06355 0.0
C1503 C 0.72811 0.25681 0.08077 0.0
C1504 C 0.68781 0.24649 0.08417 0.0
N1505 N 0.69806 0.25326 0.10071 0.0
H1506 H 0.72617 0.26333 0.11224 0.0
H1507 H 0.67208 0.24265 0.08513 0.0
H1508 H 0.68159 0.28663 0.08987 0.0
H1509 H 0.64644 0.27997 0.14219 0.0
O1510 O 0.70277 0.27653 0.13862 0.0
O1511 O 0.67772 0.26126 0.15465 0.0
O1512 O 0.66542 0.23359 0.12178 0.0
C1513 C 0.69197 0.27473 0.15492 0.0
H1514 H 0.72872 0.19251 0.13158 0.0
H1515 H 0.65237 0.31356 0.08881 0.0
H1516 H 0.68889 0.23962 0.05256 0.0
H1517 H 0.74383 0.26116 0.08004 0.0
Co1518 Co 0.51009 0.07719 0.13055 0.0
C1519 C 0.48898 0.04234 0.1118 0.0
C1520 C 0.46918 0.06755 0.11552 0.0
C1521 C 0.45878 0.05241 0.10596 0.0
N1522 N 0.4881 0.06123 0.11943 0.0
N1523 N 0.47126 0.03655 0.10354 0.0
H1524 H 0.50254 0.03332 0.11141 0.0
H1525 H 0.46334 0.08239 0.1185 0.0
C1526 C 0.49061 0.11623 0.14603 0.0
O1527 O 0.50775 0.12326 0.15291 0.0
N1528 N 0.53253 0.09286 0.14103 0.0
C1529 C 0.54512 0.08789 0.15619 0.0
C1530 C 0.56079 0.10152 0.1567 0.0
C1531 C 0.54111 0.10909 0.13218 0.0
N1532 N 0.55823 0.11486 0.14159 0.0
C1533 C 0.51112 0.04314 0.15691 0.0
C1534 C 0.49956 0.06277 0.19176 0.0
C1535 C 0.50341 0.04201 0.19254 0.0
C1536 C 0.50922 0.0322 0.17478 0.0
C1537 C 0.50136 0.07312 0.17347 0.0
N1538 N 0.507 0.06328 0.15627 0.0
H1539 H 0.51618 0.03536 0.14358 0.0
H1540 H 0.49873 0.08909 0.17346 0.0
H1541 H 0.54359 0.07485 0.16582 0.0
H1542 H 0.53512 0.1163 0.11885 0.0
O1543 O 0.52969 0.05968 0.11785 0.0
O1544 O 0.51601 0.08666 0.10371 0.0
O1545 O 0.48951 0.09858 0.13829 0.0
C1546 C 0.52827 0.07142 0.10222 0.0
H1547 H 0.4433 0.05323 0.1009 0.0
H1548 H 0.57319 0.10143 0.16729 0.0
H1549 H 0.49511 0.07096 0.20516 0.0
H1550 H 0.51276 0.01626 0.17478 0.0
Co1551 Co 0.5065 0.42973 0.12722 0.0
C1552 C 0.53035 0.46364 0.11012 0.0
C1553 C 0.54619 0.4357 0.10783 0.0
C1554 C 0.55724 0.4503 0.09813 0.0
N1555 N 0.52956 0.44414 0.11599 0.0
N1556 N 0.54721 0.46791 0.09951 0.0
H1557 H 0.51803 0.47411 0.11183 0.0
H1558 H 0.54954 0.41979 0.10758 0.0
C1559 C 0.54133 0.40621 0.14416 0.0
O1560 O 0.5487 0.42306 0.1515 0.0
N1561 N 0.48348 0.41522 0.13743 0.0
C1562 C 0.46817 0.42293 0.14827 0.0
C1563 C 0.45342 0.40847 0.1501 0.0
C1564 C 0.47781 0.39631 0.13257 0.0
N1565 N 0.45943 0.39175 0.14015 0.0
C1566 C 0.50836 0.46315 0.15487 0.0
C1567 C 0.51226 0.44077 0.18973 0.0
C1568 C 0.51196 0.46188 0.19119 0.0
C1569 C 0.50977 0.47302 0.17339 0.0
C1570 C 0.51084 0.43148 0.17082 0.0
N1571 N 0.50972 0.44267 0.15354 0.0
H1572 H 0.50535 0.47206 0.14171 0.0
H1573 H 0.51039 0.41522 0.1701 0.0
H1574 H 0.46741 0.43827 0.15373 0.0
H1575 H 0.48672 0.38639 0.12318 0.0
O1576 O 0.48835 0.44886 0.11472 0.0
O1577 O 0.49977 0.42095 0.10032 0.0
O1578 O 0.52448 0.40629 0.13478 0.0
C1579 C 0.4887 0.4371 0.09902 0.0
H1580 H 0.57114 0.44782 0.08997 0.0
H1581 H 0.43895 0.41053 0.15735 0.0
H1582 H 0.51358 0.43146 0.20306 0.0
H1583 H 0.50849 0.48929 0.17377 0.0
H1584 H 0.22684 0.1918 0.34716 0.0
H1585 H 0.16598 0.25495 0.26477 0.0
H1586 H 0.20996 0.16718 0.28941 0.0
H1587 H 0.17124 0.27275 0.32712 0.0
H1588 H 0.18235 0.22298 0.27299 0.0
H1589 H 0.20736 0.22211 0.33952 0.0
C1590 C 0.219 0.19277 0.33287 0.0
C1591 C 0.22004 0.17698 0.31888 0.0
C1592 C 0.1798 0.23387 0.28487 0.0
C1593 C 0.19775 0.21168 0.30998 0.0
C1594 C 0.17034 0.25213 0.28021 0.0
C1595 C 0.16735 0.26677 0.29521 0.0
C1596 C 0.18645 0.23026 0.30464 0.0
C1597 C 0.17358 0.26219 0.31493 0.0
C1598 C 0.20782 0.21005 0.32854 0.0
C1599 C 0.20952 0.17901 0.30064 0.0
N1600 N 0.18293 0.24446 0.31902 0.0
N1601 N 0.19891 0.1961 0.29665 0.0
H1602 H 0.4171 0.54807 0.97394 0.0
H1603 H 0.52416 0.58459 0.93183 0.0
H1604 H 0.44069 0.5316 0.91564 0.0
H1605 H 0.50738 0.58904 0.99454 0.0
H1606 H 0.49182 0.56876 0.9247 0.0
H1607 H 0.44826 0.56679 0.98077 0.0
C1608 C 0.42877 0.54851 0.96253 0.0
C1609 C 0.42635 0.53822 0.94422 0.0
C1610 C 0.4952 0.57323 0.94003 0.0
C1611 C 0.46193 0.55959 0.95189 0.0
C1612 C 0.51376 0.58221 0.94415 0.0
C1613 C 0.51875 0.58802 0.96389 0.0
C1614 C 0.48135 0.57007 0.9557 0.0
C1615 C 0.50427 0.58497 0.97908 0.0
C1616 C 0.44656 0.55912 0.96646 0.0
C1617 C 0.44197 0.53922 0.93 0.0
N1618 N 0.48628 0.57614 0.97468 0.0
N1619 N 0.45907 0.54971 0.93413 0.0
H1620 H 0.82117 0.22936 0.31938 0.0
H1621 H 0.80317 0.3444 0.28806 0.0
H1622 H 0.85531 0.25887 0.27251 0.0
H1623 H 0.77423 0.31525 0.33847 0.0
H1624 H 0.8221 0.31334 0.28149 0.0
H1625 H 0.80359 0.26075 0.32597 0.0
C1626 C 0.82515 0.24245 0.31055 0.0
C1627 C 0.83992 0.24137 0.29541 0.0
C1628 C 0.81164 0.31378 0.29401 0.0
C1629 C 0.81941 0.27759 0.30274 0.0
C1630 C 0.80084 0.33149 0.29777 0.0
C1631 C 0.7871 0.3324 0.31383 0.0
C1632 C 0.8086 0.29686 0.30636 0.0
C1633 C 0.78465 0.31524 0.32592 0.0
C1634 C 0.81496 0.26043 0.31426 0.0
C1635 C 0.84395 0.25889 0.28419 0.0
N1636 N 0.79525 0.2982 0.32191 0.0
N1637 N 0.83376 0.27627 0.28808 0.0
H1638 H 0.48411 0.92203 0.93481 0.0
H1639 H 0.59086 0.964 0.97173 0.0
H1640 H 0.50602 0.91688 0.99578 0.0
H1641 H 0.56458 0.98054 0.9146 0.0
H1642 H 0.56049 0.94502 0.97986 0.0
H1643 H 0.51403 0.94193 0.92619 0.0
C1644 C 0.49521 0.92507 0.94637 0.0
C1645 C 0.49254 0.91779 0.96605 0.0
C1646 C 0.5613 0.95281 0.96555 0.0
C1647 C 0.52676 0.94051 0.95632 0.0
C1648 C 0.57868 0.9636 0.96085 0.0
C1649 C 0.58024 0.97384 0.94244 0.0
C1650 C 0.54533 0.95208 0.95168 0.0
C1651 C 0.56396 0.97287 0.92898 0.0
C1652 C 0.51221 0.93651 0.94147 0.0
C1653 C 0.50729 0.92238 0.9805 0.0
N1654 N 0.54717 0.9621 0.93384 0.0
N1655 N 0.52379 0.93334 0.97532 0.0
H1656 H 0.16219 0.75497 0.24736 0.0
H1657 H 0.22787 0.81559 0.16635 0.0
H1658 H 0.17181 0.73478 0.18632 0.0
H1659 H 0.21117 0.84018 0.22418 0.0
H1660 H 0.20844 0.7853 0.17399 0.0
H1661 H 0.18132 0.78556 0.23985 0.0
C1662 C 0.16843 0.75689 0.23241 0.0
C1663 C 0.16541 0.74224 0.21745 0.0
C1664 C 0.20896 0.79732 0.18501 0.0
C1665 C 0.1872 0.77733 0.20871 0.0
C1666 C 0.22008 0.81462 0.18066 0.0
C1667 C 0.22113 0.83043 0.19466 0.0
C1668 C 0.19889 0.79571 0.20355 0.0
C1669 C 0.2107 0.82837 0.21294 0.0
C1670 C 0.17923 0.77444 0.2281 0.0
C1671 C 0.17358 0.74574 0.19825 0.0
N1672 N 0.20007 0.81128 0.2169 0.0
N1673 N 0.18413 0.76287 0.19446 0.0
H1674 H 0.09138 0.5532 0.04053 0.0
H1675 H 0.98494 0.59393 0.0801 0.0
H1676 H 0.0654 0.53666 0.09778 0.0
H1677 H 1.00313 0.59703 0.01771 0.0
H1678 H 0.01664 0.57719 0.0881 0.0
H1679 H 0.06137 0.57349 0.03324 0.0
C1680 C 0.07942 0.55394 0.05162 0.0
C1681 C 0.08082 0.54316 0.06975 0.0
C1682 C 0.01371 0.5816 0.07267 0.0
C1683 C 0.04655 0.56638 0.06155 0.0
C1684 C 0.99554 0.59112 0.06805 0.0
C1685 C 0.9911 0.59671 0.04812 0.0
C1686 C 0.02772 0.57771 0.05731 0.0
C1687 C 1.00581 0.5931 0.03328 0.0
C1688 C 0.06229 0.56547 0.04742 0.0
C1689 C 0.06488 0.54463 0.08356 0.0
N1690 N 0.02341 0.58374 0.03817 0.0
N1691 N 0.04841 0.55601 0.07918 0.0
H1692 H 0.77779 0.69803 0.16549 0.0
H1693 H 0.84127 0.76002 0.24726 0.0
H1694 H 0.79547 0.67342 0.22301 0.0
H1695 H 0.83249 0.7798 0.18598 0.0
H1696 H 0.82242 0.72927 0.23963 0.0
H1697 H 0.79593 0.72903 0.17358 0.0
C1698 C 0.78551 0.69915 0.17983 0.0
C1699 C 0.78516 0.68312 0.19359 0.0
C1700 C 0.82461 0.74035 0.22786 0.0
C1701 C 0.80588 0.71862 0.20301 0.0
C1702 C 0.83523 0.75799 0.23225 0.0
C1703 C 0.83847 0.77252 0.21722 0.0
C1704 C 0.81703 0.73727 0.20834 0.0
C1705 C 0.83055 0.76891 0.19794 0.0
C1706 C 0.79588 0.71685 0.18443 0.0
C1707 C 0.79543 0.68539 0.21194 0.0
N1708 N 0.82018 0.75168 0.19407 0.0
N1709 N 0.80533 0.70284 0.21614 0.0
H1710 H 0.02367 0.92175 0.07902 0.0
H1711 H 0.91802 0.96224 0.03719 0.0
H1712 H 0.00687 0.9184 0.01626 0.0
H1713 H 0.94242 0.97805 0.09534 0.0
H1714 H 0.94844 0.94239 0.03029 0.0
H1715 H 0.99184 0.93856 0.08627 0.0
C1716 C 0.01335 0.92455 0.06672 0.0
C1717 C 0.0182 0.91884 0.04693 0.0
C1718 C 0.94709 0.95017 0.04457 0.0
C1719 C 0.98143 0.93793 0.05524 0.0
C1720 C 0.92973 0.96144 0.04854 0.0
C1721 C 0.92775 0.97185 0.06684 0.0
C1722 C 0.96246 0.94915 0.05909 0.0
C1723 C 0.94338 0.97035 0.08099 0.0
C1724 C 0.9951 0.93411 0.07091 0.0
C1725 C 1.00385 0.92242 0.03175 0.0
N1726 N 0.96006 0.95921 0.07683 0.0
N1727 N 0.98616 0.93182 0.03621 0.0
H1728 H 0.2646 0.16527 0.25679 0.0
H1729 H 0.34703 0.2298 0.19685 0.0
H1730 H 0.32553 0.17403 0.27778 0.0
H1731 H 0.29072 0.21058 0.17055 0.0
H1732 H 0.33851 0.2114 0.2276 0.0
H1733 H 0.27284 0.18408 0.22619 0.0
C1734 C 0.27966 0.17129 0.25505 0.0
C1735 C 0.29441 0.16807 0.26988 0.0
C1736 C 0.32804 0.21116 0.21509 0.0
C1737 C 0.304 0.18948 0.23482 0.0
C1738 C 0.33288 0.22168 0.19754 0.0
C1739 C 0.31957 0.22168 0.18112 0.0
C1740 C 0.30966 0.20069 0.21631 0.0
C1741 C 0.30145 0.21089 0.18283 0.0
C1742 C 0.28441 0.18189 0.2375 0.0
C1743 C 0.31378 0.17597 0.26665 0.0
N1744 N 0.29699 0.20089 0.20015 0.0
N1745 N 0.318 0.18634 0.24951 0.0
H1746 H 0.41714 0.49475 0.0061 0.0
H1747 H 0.48366 0.41348 0.06567 0.0
H1748 H 0.42595 0.43361 0.98583 0.0
H1749 H 0.46742 0.47141 0.09035 0.0
H1750 H 0.46431 0.42139 0.03534 0.0
H1751 H 0.43739 0.48736 0.03598 0.0
C1752 C 0.42344 0.47981 0.00784 0.0
C1753 C 0.41981 0.46477 0.9934 0.0
C1754 C 0.46496 0.43238 0.04738 0.0
C1755 C 0.44291 0.45615 0.0277 0.0
C1756 C 0.47604 0.42789 0.0647 0.0
C1757 C 0.47712 0.4418 0.08058 0.0
C1758 C 0.45496 0.45098 0.04585 0.0
C1759 C 0.46693 0.46022 0.07849 0.0
C1760 C 0.43489 0.47556 0.02499 0.0
C1761 C 0.42815 0.44559 0.99665 0.0
N1762 N 0.4563 0.46429 0.06144 0.0
N1763 N 0.43932 0.44185 0.01341 0.0
H1764 H 0.6836 0.33422 0.27057 0.0
H1765 H 0.72438 0.29916 0.16258 0.0
H1766 H 0.74422 0.34571 0.24998 0.0
H1767 H 0.66885 0.2777 0.1888 0.0
H1768 H 0.73104 0.31838 0.19339 0.0
H1769 H 0.677 0.31546 0.23957 0.0
C1770 C 0.6955 0.33284 0.25949 0.0
C1771 C 0.71449 0.34153 0.26289 0.0
C1772 C 0.7174 0.30945 0.19239 0.0
C1773 C 0.70708 0.32004 0.22735 0.0
C1774 C 0.71356 0.29855 0.17479 0.0
C1775 C 0.69605 0.28681 0.17316 0.0
C1776 C 0.70353 0.30873 0.20839 0.0
C1777 C 0.68258 0.2865 0.18946 0.0
C1778 C 0.69177 0.32204 0.24185 0.0
C1779 C 0.72945 0.33905 0.24811 0.0
N1780 N 0.68657 0.29733 0.20636 0.0
N1781 N 0.7254 0.32861 0.23095 0.0
H1782 H 0.60777 0.02354 0.00973 0.0
H1783 H 0.52708 0.09272 0.06709 0.0
H1784 H 0.57185 0.06966 0.98109 0.0
H1785 H 0.55556 0.04124 0.09482 0.0
H1786 H 0.54547 0.08572 0.03606 0.0
H1787 H 0.59064 0.03078 0.04159 0.0
C1788 C 0.59632 0.03514 0.01005 0.0
C1789 C 0.59137 0.04601 0.99256 0.0
C1790 C 0.54774 0.07593 0.04891 0.0
C1791 C 0.57185 0.05451 0.02908 0.0
C1792 C 0.53725 0.07995 0.06666 0.0
C1793 C 0.53975 0.06752 0.08354 0.0
C1794 C 0.56091 0.05936 0.04799 0.0
C1795 C 0.55316 0.05119 0.08212 0.0
C1796 C 0.58659 0.03932 0.02829 0.0
C1797 C 0.57652 0.06106 0.99408 0.0
N1798 N 0.56324 0.04757 0.06463 0.0
N1799 N 0.56734 0.06483 0.01196 0.0
H1800 H 0.28743 0.79563 0.34181 0.0
H1801 H 0.32714 0.82992 0.2331 0.0
H1802 H 0.3446 0.77704 0.31688 0.0
H1803 H 0.26759 0.84325 0.25568 0.0
H1804 H 0.33444 0.81166 0.26426 0.0
H1805 H 0.28045 0.81436 0.31088 0.0
C1806 C 0.29853 0.79553 0.32984 0.0
C1807 C 0.31661 0.78476 0.33189 0.0
C1808 C 0.31975 0.81854 0.26237 0.0
C1809 C 0.30874 0.80613 0.29646 0.0
C1810 C 0.31562 0.82905 0.24463 0.0
C1811 C 0.29671 0.83807 0.24173 0.0
C1812 C 0.3049 0.81714 0.2774 0.0
C1813 C 0.28226 0.83628 0.2571 0.0
C1814 C 0.29453 0.80619 0.31217 0.0
C1815 C 0.33045 0.78512 0.3159 0.0
N1816 N 0.28667 0.82607 0.27427 0.0
N1817 N 0.32623 0.79564 0.29886 0.0
H1818 H 0.05081 0.47715 0.91493 0.0
H1819 H 0.09161 0.43658 0.02084 0.0
H1820 H 0.03662 0.41871 0.93964 0.0
H1821 H 0.09337 0.49943 1.00441 0.0
H1822 H 0.07633 0.42879 0.9884 0.0
H1823 H 0.07085 0.48461 0.9451 0.0
C1824 C 0.05202 0.46585 0.92665 0.0
C1825 C 0.04198 0.44731 0.92486 0.0
C1826 C 0.08012 0.44429 0.99181 0.0
C1827 C 0.06491 0.4557 0.95922 0.0
C1828 C 0.08883 0.44876 0.01036 0.0
C1829 C 0.09346 0.46874 0.0155 0.0
C1830 C 0.07601 0.45989 0.97817 0.0
C1831 C 0.09004 0.48383 1.00108 0.0
C1832 C 0.0634 0.47014 0.94384 0.0
C1833 C 0.044 0.43324 0.94047 0.0
N1834 N 0.08133 0.47912 0.98309 0.0
N1835 N 0.05523 0.43772 0.95697 0.0
H1836 H 0.68389 0.68553 0.22975 0.0
H1837 H 0.7176 0.70966 0.34293 0.0
H1838 H 0.73624 0.6593 0.25818 0.0
H1839 H 0.66436 0.73473 0.31515 0.0
H1840 H 0.72442 0.69079 0.31211 0.0
H1841 H 0.67615 0.70315 0.26101 0.0
C1842 C 0.6937 0.68332 0.24258 0.0
C1843 C 0.71077 0.67085 0.24125 0.0
C1844 C 0.71122 0.70038 0.31274 0.0
C1845 C 0.7021 0.69129 0.27713 0.0
C1846 C 0.70731 0.71116 0.33034 0.0
C1847 C 0.69039 0.7238 0.33158 0.0
C1848 C 0.69814 0.70225 0.29622 0.0
C1849 C 0.67759 0.72517 0.31482 0.0
C1850 C 0.68932 0.69351 0.26043 0.0
C1851 C 0.72308 0.66892 0.25836 0.0
N1852 N 0.68175 0.71454 0.29781 0.0
N1853 N 0.7185 0.67903 0.27557 0.0
H1854 H 0.92816 0.07785 0.02696 0.0
H1855 H 0.96741 0.03897 0.91976 0.0
H1856 H 0.91939 0.01718 1.00536 0.0
H1857 H 0.98453 0.09626 0.9453 0.0
H1858 H 0.94857 0.03129 0.95044 0.0
H1859 H 0.94773 0.08543 0.99667 0.0
C1860 C 0.93032 0.06613 0.01584 0.0
C1861 C 0.92207 0.04686 0.01872 0.0
C1862 C 0.95645 0.04554 0.94937 0.0
C1863 C 0.94452 0.05541 0.98397 0.0
C1864 C 0.96716 0.04997 0.93182 0.0
C1865 C 0.97753 0.06831 0.92996 0.0
C1866 C 0.95597 0.0596 0.96518 0.0
C1867 C 0.97676 0.08194 0.9461 0.0
C1868 C 0.94159 0.07043 0.99859 0.0
C1869 C 0.92562 0.03217 1.00391 0.0
N1870 N 0.96611 0.07734 0.96302 0.0
N1871 N 0.93647 0.03678 0.98714 0.0
H1872 H 0.25461 0.26606 0.1619 0.0
H1873 H 0.19532 0.34503 0.23144 0.0
H1874 H 0.27898 0.32341 0.1805 0.0
H1875 H 0.16919 0.28943 0.2101 0.0
H1876 H 0.22627 0.33711 0.21309 0.0
H1877 H 0.22345 0.27389 0.17999 0.0
C1878 C 0.25347 0.28024 0.16986 0.0
C1879 C 0.26945 0.29411 0.16962 0.0
C1880 C 0.21376 0.32664 0.21237 0.0
C1881 C 0.23376 0.30326 0.19023 0.0
C1882 C 0.19609 0.33117 0.22285 0.0
C1883 C 0.17968 0.31787 0.22228 0.0
C1884 C 0.21507 0.30864 0.2013 0.0
C1885 C 0.18148 0.30013 0.21091 0.0
C1886 C 0.23562 0.28477 0.18008 0.0
C1887 C 0.26698 0.31239 0.18 0.0
N1888 N 0.19889 0.296 0.2009 0.0
N1889 N 0.24951 0.31641 0.18988 0.0
H1890 H 0.19387 0.6671 0.27377 0.0
H1891 H 0.2509 0.72974 0.35947 0.0
H1892 H 0.1655 0.71512 0.30724 0.0
H1893 H 0.28114 0.69121 0.31657 0.0
H1894 H 0.21894 0.72268 0.34264 0.0
H1895 H 0.22535 0.67365 0.29164 0.0
C1896 C 0.19425 0.679 0.28493 0.0
C1897 C 0.17705 0.69062 0.28899 0.0
C1898 C 0.23261 0.7158 0.33694 0.0
C1899 C 0.21309 0.69819 0.30956 0.0
C1900 C 0.25093 0.71989 0.34649 0.0
C1901 C 0.26894 0.71118 0.33945 0.0
C1902 C 0.23219 0.70277 0.32029 0.0
C1903 C 0.26779 0.69817 0.32277 0.0
C1904 C 0.21225 0.68276 0.2951 0.0
C1905 C 0.17842 0.70583 0.30362 0.0
N1906 N 0.24977 0.69438 0.3138 0.0
N1907 N 0.19615 0.70918 0.3134 0.0
H1908 H 0.99603 0.50762 0.91685 0.0
H1909 H 0.9134 0.56701 0.98193 0.0
H1910 H 0.93527 0.48606 0.92561 0.0
H1911 H 0.97085 0.59214 0.96456 0.0
H1912 H 0.92178 0.53619 0.96338 0.0
H1913 H 0.98786 0.53754 0.93663 0.0
C1914 C 0.98102 0.50908 0.92307 0.0
C1915 C 0.96631 0.4943 0.91953 0.0
C1916 C 0.93254 0.54846 0.96363 0.0
C1917 C 0.95676 0.52867 0.94207 0.0
C1918 C 0.92777 0.56603 0.97423 0.0
C1919 C 0.94143 0.58215 0.97473 0.0
C1920 C 0.95116 0.54699 0.95361 0.0
C1921 C 0.95983 0.5801 0.96449 0.0
C1922 C 0.97631 0.52626 0.93425 0.0
C1923 C 0.947 0.49719 0.92775 0.0
N1924 N 0.96417 0.56284 0.95439 0.0
N1925 N 0.94279 0.51402 0.93864 0.0
H1926 H 0.81576 0.85074 0.28375 0.0
H1927 H 0.75249 0.76727 0.34282 0.0
H1928 H 0.84027 0.79285 0.30039 0.0
H1929 H 0.73456 0.82977 0.33938 0.0
H1930 H 0.78414 0.77588 0.32629 0.0
H1931 H 0.78515 0.84283 0.30276 0.0
C1932 C 0.81471 0.83638 0.29145 0.0
C1933 C 0.83055 0.82242 0.29049 0.0
C1934 C 0.77329 0.78771 0.32925 0.0
C1935 C 0.79555 0.81321 0.31215 0.0
C1936 C 0.75517 0.78282 0.3388 0.0
C1937 C 0.74059 0.79776 0.3425 0.0
C1938 C 0.77688 0.80764 0.32316 0.0
C1939 C 0.74505 0.81762 0.33658 0.0
C1940 C 0.79726 0.8319 0.30234 0.0
C1941 C 0.82843 0.80407 0.30079 0.0
N1942 N 0.7627 0.82194 0.32712 0.0
N1943 N 0.81119 0.79994 0.31109 0.0
H1944 H 0.52475 0.50178 0.40235 0.0
H1945 H 0.59496 0.44772 0.48437 0.0
H1946 H 0.56879 0.53272 0.43901 0.0
H1947 H 0.54384 0.41853 0.45666 0.0
H1948 H 0.58723 0.47833 0.46545 0.0
H1949 H 0.53291 0.47045 0.42 0.0
C1950 C 0.53608 0.50208 0.41407 0.0
C1951 C 0.54611 0.52006 0.41905 0.0
C1952 C 0.5777 0.46523 0.46348 0.0
C1953 C 0.55567 0.48415 0.43916 0.0
C1954 C 0.58214 0.44774 0.47425 0.0
C1955 C 0.56999 0.43059 0.47212 0.0
C1956 C 0.56103 0.46557 0.45039 0.0
C1957 C 0.55357 0.43145 0.45879 0.0
C1958 C 0.54078 0.48414 0.42409 0.0
C1959 C 0.56085 0.51933 0.43427 0.0
N1960 N 0.54956 0.44866 0.44841 0.0
N1961 N 0.56515 0.50173 0.44372 0.0
H1962 H 0.23533 0.68593 0.68122 0.0
H1963 H 0.34537 0.72352 0.7141 0.0
H1964 H 0.25869 0.74495 0.66716 0.0
H1965 H 0.31855 0.66793 0.73457 0.0
H1966 H 0.3145 0.73095 0.69524 0.0
H1967 H 0.26652 0.67833 0.69928 0.0
C1968 C 0.24704 0.69726 0.68187 0.0
C1969 C 0.24434 0.71611 0.67269 0.0
C1970 C 0.31539 0.71712 0.70385 0.0
C1971 C 0.28011 0.70757 0.69343 0.0
C1972 C 0.33302 0.71285 0.71456 0.0
C1973 C 0.3345 0.6951 0.72593 0.0
C1974 C 0.29918 0.70348 0.70443 0.0
C1975 C 0.31803 0.68183 0.72604 0.0
C1976 C 0.26482 0.69296 0.69228 0.0
C1977 C 0.25997 0.73033 0.67424 0.0
N1978 N 0.30107 0.68628 0.71545 0.0
N1979 N 0.27719 0.72574 0.68436 0.0
H1980 H 0.99544 0.50817 0.59268 0.0
H1981 H 0.91398 0.44749 0.5276 0.0
H1982 H 0.93585 0.5307 0.57942 0.0
H1983 H 0.97163 0.42279 0.54494 0.0
H1984 H 0.92188 0.47818 0.54627 0.0
H1985 H 0.98731 0.47711 0.57476 0.0
C1986 C 0.98069 0.50668 0.58587 0.0
C1987 C 0.96633 0.52217 0.58748 0.0
C1988 C 0.9328 0.46604 0.54606 0.0
C1989 C 0.95683 0.48643 0.56712 0.0
C1990 C 0.9283 0.4485 0.53539 0.0
C1991 C 0.94219 0.43257 0.5347 0.0
C1992 C 0.95138 0.46775 0.55606 0.0
C1993 C 0.96048 0.4347 0.54511 0.0
C1994 C 0.976 0.48884 0.57577 0.0
C1995 C 0.94731 0.51913 0.5787 0.0
N1996 N 0.96458 0.45201 0.55531 0.0
N1997 N 0.94314 0.50165 0.56886 0.0
H1998 H 0.07881 0.99175 0.59268 0.0
H1999 H 0.0367 0.09653 0.55058 0.0
H2000 H 0.01583 0.00793 0.59504 0.0
H2001 H 0.09532 0.07232 0.53599 0.0
H2002 H 0.0298 0.06653 0.57098 0.0
H2003 H 0.08615 0.02378 0.57635 0.0
C2004 C 0.0665 1.00206 0.5898 0.0
C2005 C 0.04661 0.99697 0.59496 0.0
C2006 C 0.04418 0.06784 0.56336 0.0
C2007 C 0.05497 0.03386 0.57635 0.0
C2008 C 0.04815 0.08494 0.55175 0.0
C2009 C 0.06658 0.08684 0.54152 0.0
C2010 C 0.05884 0.05264 0.56488 0.0
C2011 C 0.08086 0.0714 0.54352 0.0
C2012 C 0.07072 0.02039 0.5805 0.0
C2013 C 0.03137 0.01122 0.59136 0.0
N2014 N 0.07669 0.05496 0.55498 0.0
N2015 N 0.03584 0.02898 0.58212 0.0
H2016 H 0.7105 0.66531 0.78662 0.0
H2017 H 0.67591 0.77356 0.82719 0.0
H2018 H 0.72821 0.69027 0.84399 0.0
H2019 H 0.66673 0.75415 0.76583 0.0
H2020 H 0.69119 0.74107 0.83485 0.0
H2021 H 0.69069 0.6958 0.77994 0.0
C2022 C 0.71011 0.67714 0.79785 0.0
C2023 C 0.72109 0.67534 0.81584 0.0
C2024 C 0.68576 0.74385 0.81971 0.0
C2025 C 0.69848 0.71012 0.80834 0.0
C2026 C 0.67708 0.76245 0.81532 0.0
C2027 C 0.67026 0.76673 0.79577 0.0
C2028 C 0.68769 0.72932 0.80447 0.0
C2029 C 0.67172 0.75152 0.78111 0.0
C2030 C 0.69885 0.69453 0.79402 0.0
C2031 C 0.72008 0.6911 0.82986 0.0
N2032 N 0.68042 0.73352 0.78573 0.0
N2033 N 0.70902 0.70782 0.8258 0.0
H2034 H 0.91645 0.05172 0.47503 0.0
H2035 H 0.02212 0.09317 0.43418 0.0
H2036 H 0.94073 0.03741 0.41644 0.0
H2037 H 1.00506 0.09536 0.49693 0.0
H2038 H 0.99041 0.07633 0.42654 0.0
H2039 H 0.94687 0.07135 0.48238 0.0
C2040 C 0.92813 0.05281 0.46367 0.0
C2041 C 0.92611 0.04288 0.44512 0.0
C2042 C 0.99359 0.08053 0.44198 0.0
C2043 C 0.96086 0.06532 0.4534 0.0
C2044 C 0.01178 0.09009 0.4464 0.0
C2045 C 0.01651 0.09554 0.4663 0.0
C2046 C 0.97985 0.07643 0.45752 0.0
C2047 C 1.00213 0.09158 0.48137 0.0
C2048 C 0.9455 0.06396 0.46791 0.0
C2049 C 0.94171 0.04475 0.43097 0.0
N2050 N 0.9845 0.0822 0.47668 0.0
N2051 N 0.95842 0.05575 0.4354 0.0
H2052 H 0.30291 0.84516 0.79303 0.0
H2053 H 0.33757 0.73595 0.83091 0.0
H2054 H 0.28317 0.81855 0.84897 0.0
H2055 H 0.3477 0.75741 0.77042 0.0
H2056 H 0.31947 0.76709 0.83856 0.0
H2057 H 0.32138 0.81413 0.78525 0.0
C2058 C 0.30254 0.83283 0.80371 0.0
C2059 C 0.2915 0.83442 0.82168 0.0
C2060 C 0.3256 0.76498 0.82359 0.0
C2061 C 0.31255 0.79892 0.81287 0.0
C2062 C 0.33603 0.74724 0.81925 0.0
C2063 C 0.34417 0.74405 0.79999 0.0
C2064 C 0.32341 0.77979 0.80863 0.0
C2065 C 0.34148 0.75912 0.78538 0.0
C2066 C 0.31301 0.8151 0.79922 0.0
C2067 C 0.29145 0.81795 0.83492 0.0
N2068 N 0.33141 0.77637 0.79003 0.0
N2069 N 0.30184 0.80092 0.83028 0.0
H2070 H 0.98148 0.43498 0.43042 0.0
H2071 H 0.09301 0.46013 0.46981 0.0
H2072 H 1.0049 0.41516 0.48774 0.0
H2073 H 0.06915 0.48144 0.41321 0.0
H2074 H 0.06104 0.44294 0.47633 0.0
H2075 H 0.01372 0.45143 0.42344 0.0
C2076 C 0.9934 0.43402 0.44151 0.0
C2077 C 0.99038 0.42372 0.45973 0.0
C2078 C 0.0628 0.45135 0.46246 0.0
C2079 C 0.02736 0.44264 0.45191 0.0
C2080 C 0.08107 0.46114 0.45873 0.0
C2081 C 0.08374 0.47223 0.44094 0.0
C2082 C 0.04708 0.45263 0.44831 0.0
C2083 C 0.06773 0.47306 0.42713 0.0
C2084 C 0.01179 0.4435 0.43756 0.0
C2085 C 0.00635 0.42319 0.47365 0.0
N2086 N 0.0501 0.46341 0.4311 0.0
N2087 N 0.02411 0.43248 0.46944 0.0
H2088 H 0.71733 0.33939 0.71968 0.0
H2089 H 0.67623 0.23278 0.68139 0.0
H2090 H 0.73203 0.31469 0.66134 0.0
H2091 H 0.67068 0.25392 0.7426 0.0
H2092 H 0.69538 0.2632 0.67304 0.0
H2093 H 0.69876 0.3087 0.72765 0.0
C2094 C 0.71661 0.32751 0.70852 0.0
C2095 C 0.72621 0.32958 0.68981 0.0
C2096 C 0.69003 0.26112 0.68832 0.0
C2097 C 0.70497 0.29436 0.69885 0.0
C2098 C 0.67903 0.24382 0.69306 0.0
C2099 C 0.67187 0.24079 0.71273 0.0
C2100 C 0.69375 0.27557 0.70332 0.0
C2101 C 0.67612 0.25548 0.72733 0.0
C2102 C 0.70606 0.30995 0.71311 0.0
C2103 C 0.72484 0.31368 0.67596 0.0
N2104 N 0.68669 0.27226 0.7223 0.0
N2105 N 0.71436 0.29673 0.68073 0.0
H2106 H 0.56032 0.01685 0.57875 0.0
H2107 H 0.51068 0.12135 0.55424 0.0
H2108 H 0.5968 0.06454 0.55388 0.0
H2109 H 0.48066 0.06637 0.53729 0.0
H2110 H 0.54178 0.10206 0.56055 0.0
H2111 H 0.52989 0.036 0.57002 0.0
C2112 C 0.56189 0.0314 0.57152 0.0
C2113 C 0.58102 0.0392 0.56702 0.0
C2114 C 0.52838 0.09428 0.5554 0.0
C2115 C 0.54644 0.0612 0.55741 0.0
C2116 C 0.5107 0.10519 0.55195 0.0
C2117 C 0.49322 0.09531 0.54534 0.0
C2118 C 0.52832 0.07331 0.55277 0.0
C2119 C 0.49392 0.07442 0.54236 0.0
C2120 C 0.54457 0.04221 0.56646 0.0
C2121 C 0.58227 0.05803 0.55751 0.0
N2122 N 0.51114 0.06401 0.54638 0.0
N2123 N 0.56517 0.06857 0.55325 0.0
H2124 H 0.3461 0.2561 0.74561 0.0
H2125 H 0.279 0.19486 0.66625 0.0
H2126 H 0.33367 0.27683 0.68529 0.0
H2127 H 0.29932 0.16957 0.7226 0.0
H2128 H 0.29769 0.22565 0.67372 0.0
H2129 H 0.32748 0.22511 0.73839 0.0
C2130 C 0.33933 0.25421 0.7309 0.0
C2131 C 0.34145 0.26911 0.71603 0.0
C2132 C 0.29813 0.21336 0.68444 0.0
C2133 C 0.32026 0.23359 0.70759 0.0
C2134 C 0.28744 0.19577 0.68019 0.0
C2135 C 0.28763 0.17963 0.69382 0.0
C2136 C 0.30899 0.21492 0.70255 0.0
C2137 C 0.29884 0.18164 0.71164 0.0
C2138 C 0.32884 0.23644 0.72673 0.0
C2139 C 0.33261 0.26568 0.69712 0.0
N2140 N 0.30902 0.19901 0.71553 0.0
N2141 N 0.32238 0.24832 0.69347 0.0
H2142 H 0.52884 0.42504 0.57921 0.0
H2143 H 0.42257 0.46614 0.54018 0.0
H2144 H 0.50999 0.42242 0.51695 0.0
H2145 H 0.44777 0.48239 0.59788 0.0
H2146 H 0.4531 0.44705 0.53258 0.0
H2147 H 0.49791 0.44314 0.58736 0.0
C2148 C 0.51832 0.42828 0.56719 0.0
C2149 C 0.5223 0.42222 0.54727 0.0
C2150 C 0.45198 0.45478 0.54691 0.0
C2151 C 0.48652 0.44275 0.5567 0.0
C2152 C 0.43452 0.46564 0.5513 0.0
C2153 C 0.43265 0.47589 0.5697 0.0
C2154 C 0.46766 0.45399 0.56108 0.0
C2155 C 0.44864 0.47476 0.58349 0.0
C2156 C 0.50058 0.43858 0.57192 0.0
C2157 C 0.50769 0.42654 0.53253 0.0
N2158 N 0.46548 0.46396 0.57892 0.0
N2159 N 0.49051 0.43653 0.53755 0.0
H2160 H 0.76592 0.66616 0.75329 0.0
H2161 H 0.8469 0.73287 0.69365 0.0
H2162 H 0.82638 0.67714 0.77462 0.0
H2163 H 0.79027 0.71384 0.66788 0.0
H2164 H 0.83875 0.71425 0.72434 0.0
H2165 H 0.77353 0.6856 0.72292 0.0
C2166 C 0.78073 0.67279 0.75167 0.0
C2167 C 0.79555 0.66999 0.76651 0.0
C2168 C 0.82811 0.71411 0.71197 0.0
C2169 C 0.80443 0.69211 0.73172 0.0
C2170 C 0.83275 0.72475 0.69445 0.0
C2171 C 0.81925 0.72485 0.67819 0.0
C2172 C 0.80978 0.70359 0.71331 0.0
C2173 C 0.80114 0.71408 0.68004 0.0
C2174 C 0.78512 0.68376 0.73426 0.0
C2175 C 0.8146 0.6787 0.76346 0.0
N2176 N 0.7969 0.70391 0.69731 0.0
N2177 N 0.81848 0.68938 0.74644 0.0
H2178 H 0.97778 0.91577 0.56842 0.0
H2179 H 0.91501 0.9981 0.50734 0.0
H2180 H 0.96203 0.97362 0.59358 0.0
H2181 H 0.91952 0.93569 0.48962 0.0
H2182 H 0.93198 0.98985 0.53903 0.0
H2183 H 0.95685 0.92324 0.53909 0.0
C2184 C 0.96988 0.93004 0.56778 0.0
C2185 C 0.97168 0.94413 0.5834 0.0
C2186 C 0.9291 0.97795 0.52824 0.0
C2187 C 0.94773 0.95284 0.54984 0.0
C2188 C 0.9193 0.98263 0.51018 0.0
C2189 C 0.91603 0.96762 0.49562 0.0
C2190 C 0.93576 0.95815 0.53171 0.0
C2191 C 0.92212 0.94785 0.50013 0.0
C2192 C 0.95786 0.93428 0.55106 0.0
C2193 C 0.96103 0.96234 0.58184 0.0
N2194 N 0.93183 0.94375 0.51766 0.0
N2195 N 0.94961 0.96625 0.56527 0.0
H2196 H 0.16986 0.78234 0.69731 0.0
H2197 H 0.24703 0.85457 0.75555 0.0
H2198 H 0.22535 0.80344 0.67065 0.0
H2199 H 0.19127 0.83219 0.78054 0.0
H2200 H 0.2398 0.83629 0.72429 0.0
H2201 H 0.17767 0.80116 0.72776 0.0
C2202 C 0.18371 0.79099 0.69785 0.0
C2203 C 0.19699 0.79132 0.68144 0.0
C2204 C 0.22916 0.83545 0.73663 0.0
C2205 C 0.20611 0.81294 0.71639 0.0
C2206 C 0.23333 0.84578 0.75452 0.0
C2207 C 0.21969 0.84501 0.7707 0.0
C2208 C 0.21126 0.82423 0.73498 0.0
C2209 C 0.20206 0.83355 0.76841 0.0
C2210 C 0.18818 0.80175 0.71528 0.0
C2211 C 0.21469 0.80282 0.68298 0.0
N2212 N 0.19839 0.82364 0.75093 0.0
N2213 N 0.21878 0.81317 0.70021 0.0
H2214 H 0.09725 0.51557 0.50176 0.0
H2215 H 0.03587 0.59799 0.56438 0.0
H2216 H 0.08838 0.57679 0.48157 0.0
H2217 H 0.05195 0.53968 0.58825 0.0
H2218 H 0.05492 0.59037 0.53385 0.0
H2219 H 0.08087 0.52404 0.53346 0.0
C2220 C 0.0921 0.53087 0.504 0.0
C2221 C 0.09426 0.5455 0.48884 0.0
C2222 C 0.05437 0.57926 0.54578 0.0
C2223 C 0.07507 0.55518 0.52517 0.0
C2224 C 0.04347 0.58358 0.56321 0.0
C2225 C 0.0423 0.56941 0.57883 0.0
C2226 C 0.06408 0.56055 0.54388 0.0
C2227 C 0.05249 0.55103 0.57655 0.0
C2228 C 0.0826 0.53565 0.52214 0.0
C2229 C 0.08683 0.56495 0.49264 0.0
N2230 N 0.06288 0.54708 0.55934 0.0
N2231 N 0.07752 0.56919 0.51038 0.0
H2232 H 0.78378 0.35739 0.75375 0.0
H2233 H 0.84943 0.27264 0.80902 0.0
H2234 H 0.82166 0.31497 0.72202 0.0
H2235 H 0.80121 0.30532 0.83799 0.0
H2236 H 0.84217 0.2906 0.77762 0.0
H2237 H 0.79252 0.34085 0.78536 0.0
C2238 C 0.79384 0.34457 0.75332 0.0
C2239 C 0.80181 0.33755 0.735 0.0
C2240 C 0.83321 0.29386 0.79087 0.0
C2241 C 0.8122 0.31872 0.77137 0.0
C2242 C 0.83739 0.28367 0.8088 0.0
C2243 C 0.82586 0.28746 0.82611 0.0
C2244 C 0.8175 0.30806 0.79029 0.0
C2245 C 0.81043 0.30188 0.82497 0.0
C2246 C 0.79891 0.33519 0.77145 0.0
C2247 C 0.81519 0.32111 0.73564 0.0
N2248 N 0.8067 0.31166 0.80738 0.0
N2249 N 0.81993 0.31227 0.75349 0.0
H2250 H 0.59712 0.99275 0.50605 0.0
H2251 H 0.52647 0.91415 0.44782 0.0
H2252 H 0.57999 0.93492 0.53033 0.0
H2253 H 0.54832 0.96933 0.42124 0.0
H2254 H 0.54554 0.92176 0.47839 0.0
H2255 H 0.57868 0.98485 0.47521 0.0
C2256 C 0.58938 0.97844 0.50496 0.0
C2257 C 0.59006 0.9645 0.52087 0.0
C2258 C 0.54622 0.93219 0.46586 0.0
C2259 C 0.56905 0.95526 0.48545 0.0
C2260 C 0.53532 0.92786 0.4484 0.0
C2261 C 0.53582 0.94114 0.43197 0.0
C2262 C 0.55762 0.94999 0.46695 0.0
C2263 C 0.54756 0.95866 0.43355 0.0
C2264 C 0.57897 0.97387 0.48727 0.0
C2265 C 0.58004 0.94603 0.51841 0.0
N2266 N 0.55795 0.96261 0.45076 0.0
N2267 N 0.56991 0.94198 0.50107 0.0
H2268 H 0.16569 0.2344 0.81852 0.0
H2269 H 0.24528 0.16753 0.75719 0.0
H2270 H 0.22224 0.21422 0.84356 0.0
H2271 H 0.18419 0.17782 0.73734 0.0
H2272 H 0.2381 0.18666 0.78787 0.0
H2273 H 0.17305 0.21555 0.78772 0.0
C2274 C 0.17965 0.22598 0.81755 0.0
C2275 C 0.19336 0.22584 0.83363 0.0
C2276 C 0.22627 0.18472 0.7768 0.0
C2277 C 0.20195 0.20434 0.79838 0.0
C2278 C 0.2304 0.17394 0.7592 0.0
C2279 C 0.2153 0.17106 0.74466 0.0
C2280 C 0.20694 0.19286 0.77983 0.0
C2281 C 0.1962 0.17947 0.74824 0.0
C2282 C 0.18383 0.2152 0.79997 0.0
C2283 C 0.21121 0.21466 0.83155 0.0
N2284 N 0.19258 0.19002 0.76542 0.0
N2285 N 0.21503 0.20441 0.81422 0.0
H2286 H 0.4186 0.51742 0.50669 0.0
H2287 H 0.47842 0.59886 0.44123 0.0
H2288 H 0.4232 0.58022 0.52307 0.0
H2289 H 0.46246 0.54 0.4187 0.0
H2290 H 0.45906 0.59194 0.47184 0.0
H2291 H 0.43496 0.52506 0.47462 0.0
C2292 C 0.42281 0.53284 0.50353 0.0
C2293 C 0.41962 0.54815 0.51781 0.0
C2294 C 0.45971 0.58056 0.46017 0.0
C2295 C 0.43873 0.55693 0.48115 0.0
C2296 C 0.47082 0.58449 0.44272 0.0
C2297 C 0.47208 0.56997 0.42743 0.0
C2298 C 0.44995 0.56189 0.46243 0.0
C2299 C 0.46186 0.55163 0.43011 0.0
C2300 C 0.43228 0.53718 0.48522 0.0
C2301 C 0.42569 0.56783 0.51281 0.0
N2302 N 0.45133 0.54807 0.44732 0.0
N2303 N 0.43505 0.5716 0.495 0.0
H2304 H 0.67126 0.79023 0.71018 0.0
H2305 H 0.77908 0.83018 0.67341 0.0
H2306 H 0.69622 0.84744 0.72843 0.0
H2307 H 0.75818 0.76928 0.66447 0.0
H2308 H 0.74783 0.83781 0.69151 0.0
H2309 H 0.702 0.78334 0.69108 0.0
C2310 C 0.68317 0.80139 0.71007 0.0
C2311 C 0.68121 0.81942 0.72092 0.0
C2312 C 0.75012 0.82277 0.68562 0.0
C2313 C 0.71646 0.81162 0.69914 0.0
C2314 C 0.7679 0.81844 0.67522 0.0
C2315 C 0.77129 0.79905 0.66749 0.0
C2316 C 0.73552 0.80764 0.68816 0.0
C2317 C 0.75637 0.78433 0.67044 0.0
C2318 C 0.70075 0.79742 0.69923 0.0
C2319 C 0.69714 0.83333 0.72031 0.0
N2320 N 0.73912 0.78895 0.68048 0.0
N2321 N 0.7141 0.82914 0.70959 0.0
H2322 H 0.78625 0.19253 0.81612 0.0
H2323 H 0.66954 0.21994 0.80385 0.0
H2324 H 0.75642 0.23641 0.85386 0.0
H2325 H 0.69862 0.16966 0.77458 0.0
H2326 H 0.70114 0.22726 0.82164 0.0
H2327 H 0.75428 0.18501 0.80015 0.0
C2328 C 0.773 0.2005 0.82127 0.0
C2329 C 0.7742 0.21509 0.83657 0.0
C2330 C 0.70055 0.21459 0.81138 0.0
C2331 C 0.73723 0.20668 0.81783 0.0
C2332 C 0.68254 0.21041 0.80121 0.0
C2333 C 0.68147 0.19417 0.78769 0.0
C2334 C 0.7176 0.20252 0.80787 0.0
C2335 C 0.69875 0.18233 0.78485 0.0
C2336 C 0.75467 0.19624 0.81198 0.0
C2337 C 0.75636 0.22518 0.84206 0.0
N2338 N 0.71608 0.18678 0.79478 0.0
N2339 N 0.73862 0.22081 0.83268 0.0
H2340 H 0.49257 1.00477 0.41739 0.0
H2341 H 0.41362 0.06768 0.4835 0.0
H2342 H 0.43219 0.98433 0.43035 0.0
H2343 H 0.46993 0.09226 0.46213 0.0
H2344 H 0.42086 0.03639 0.46549 0.0
H2345 H 0.48541 0.03612 0.43535 0.0
C2346 C 0.47785 0.00679 0.42414 0.0
C2347 C 0.46296 0.99185 0.42239 0.0
C2348 C 0.43162 0.04863 0.46469 0.0
C2349 C 0.45459 0.02783 0.44283 0.0
C2350 C 0.4275 0.0665 0.47498 0.0
C2351 C 0.44119 0.0826 0.4743 0.0
C2352 C 0.44964 0.04675 0.45372 0.0
C2353 C 0.45893 0.08024 0.463 0.0
C2354 C 0.47372 0.02478 0.43426 0.0
C2355 C 0.44404 0.9955 0.43116 0.0
N2356 N 0.46268 0.06262 0.45322 0.0
N2357 N 0.44042 0.01307 0.44104 0.0
H2358 H 0.31869 0.34803 0.78098 0.0
H2359 H 0.25684 0.26776 0.84629 0.0
H2360 H 0.34319 0.29071 0.79953 0.0
H2361 H 0.23758 0.32922 0.83746 0.0
H2362 H 0.28759 0.27503 0.82729 0.0
H2363 H 0.288 0.34069 0.80001 0.0
C2364 C 0.31762 0.33391 0.7891 0.0
C2365 C 0.3335 0.31996 0.78871 0.0
C2366 C 0.27664 0.28693 0.82952 0.0
C2367 C 0.29838 0.3114 0.8104 0.0
C2368 C 0.259 0.28274 0.84023 0.0
C2369 C 0.24461 0.29791 0.84345 0.0
C2370 C 0.27984 0.30638 0.82184 0.0
C2371 C 0.24837 0.31715 0.83551 0.0
C2372 C 0.30011 0.32974 0.79998 0.0
C2373 C 0.33133 0.30192 0.79951 0.0
N2374 N 0.26558 0.32082 0.82503 0.0
N2375 N 0.31404 0.29811 0.80985 0.0
H2376 H 0.03009 1.00256 0.90333 0.0
H2377 H 0.09662 0.94691 0.98721 0.0
H2378 H 0.07447 0.03255 0.94033 0.0
H2379 H 0.04601 0.91898 0.95734 0.0
H2380 H 0.09047 0.9777 0.96801 0.0
H2381 H 0.03729 0.9711 0.92101 0.0
C2382 C 0.04129 1.00261 0.91517 0.0
C2383 C 0.0516 0.02038 0.92033 0.0
C2384 C 0.08071 0.96483 0.96562 0.0
C2385 C 0.06012 0.98427 0.94047 0.0
C2386 C 0.08424 0.94724 0.97656 0.0
C2387 C 0.07176 0.9304 0.97391 0.0
C2388 C 0.06463 0.96558 0.95187 0.0
C2389 C 0.05596 0.93165 0.95989 0.0
C2390 C 0.04547 0.98459 0.9252 0.0
C2391 C 0.06626 0.01932 0.93559 0.0
N2392 N 0.05283 0.94896 0.9494 0.0
N2393 N 0.07003 1.00161 0.94511 0.0
H2394 H 0.76623 0.20628 0.13753 0.0
H2395 H 0.81156 0.1806 0.24401 0.0
H2396 H 0.73356 0.2223 0.19127 0.0
H2397 H 0.84934 0.20605 0.19765 0.0
H2398 H 0.78167 0.18896 0.22371 0.0
H2399 H 0.79623 0.19929 0.15819 0.0
C2400 C 0.76544 0.20823 0.15371 0.0
C2401 C 0.74756 0.21483 0.16283 0.0
C2402 C 0.79654 0.1927 0.21806 0.0
C2403 C 0.78139 0.20655 0.1864 0.0
C2404 C 0.81353 0.18784 0.22951 0.0
C2405 C 0.83286 0.19267 0.22242 0.0
C2406 C 0.799 0.20187 0.19919 0.0
C2407 C 0.83466 0.20216 0.20364 0.0
C2408 C 0.78248 0.20436 0.16542 0.0
C2409 C 0.74719 0.21731 0.18379 0.0
N2410 N 0.81793 0.20625 0.19251 0.0
N2411 N 0.76382 0.21291 0.19498 0.0
H2412 H 0.4728 0.91479 0.05681 0.0
H2413 H 0.44225 0.03001 0.07531 0.0
H2414 H 0.42158 0.94382 0.02913 0.0
H2415 H 0.49032 1.00039 0.10767 0.0
H2416 H 0.435 0.99859 0.05794 0.0
H2417 H 0.48006 0.94599 0.07517 0.0
C2418 C 0.46307 0.92771 0.05463 0.0
C2419 C 0.44656 0.92672 0.04142 0.0
C2420 C 0.44713 0.99892 0.06887 0.0
C2421 C 0.4548 0.96244 0.0623 0.0
C2422 C 0.45122 0.0169 0.07893 0.0
C2423 C 0.4669 0.01795 0.09311 0.0
C2424 C 0.4588 0.98174 0.07291 0.0
C2425 C 0.47823 1.00041 0.09674 0.0
C2426 C 0.46721 0.9455 0.06511 0.0
C2427 C 0.43446 0.9439 0.03915 0.0
N2428 N 0.47396 0.98304 0.08671 0.0
N2429 N 0.43885 0.96104 0.04945 0.0
H2430 H 0.59684 0.56008 0.02241 0.0
H2431 H 0.53307 0.5053 0.10884 0.0
H2432 H 0.54779 0.58868 0.05419 0.0
H2433 H 0.57283 0.47395 0.06789 0.0
H2434 H 0.54058 0.53674 0.09133 0.0
H2435 H 0.59069 0.52919 0.04147 0.0
C2436 C 0.58482 0.55988 0.03346 0.0
C2437 C 0.57276 0.57694 0.03668 0.0
C2438 C 0.54766 0.52296 0.08622 0.0
C2439 C 0.56565 0.54165 0.05857 0.0
C2440 C 0.54331 0.50493 0.09615 0.0
C2441 C 0.55217 0.48676 0.08981 0.0
C2442 C 0.5611 0.52292 0.06988 0.0
C2443 C 0.56571 0.48746 0.07352 0.0
C2444 C 0.58128 0.54223 0.0443 0.0
C2445 C 0.55741 0.57584 0.05119 0.0
N2446 N 0.56972 0.5052 0.06413 0.0
N2447 N 0.55428 0.55848 0.06161 0.0
H2448 H 0.06487 0.25324 0.2456 0.0
H2449 H 0.94833 0.25309 0.27713 0.0
H2450 H 0.03693 0.30158 0.27893 0.0
H2451 H 0.97862 0.20174 0.25115 0.0
H2452 H 0.98048 0.27117 0.27787 0.0
H2453 H 0.03336 0.23426 0.24742 0.0
C2454 C 0.05209 0.25989 0.25329 0.0
C2455 C 0.05354 0.27912 0.26202 0.0
C2456 C 0.98013 0.25591 0.27211 0.0
C2457 C 0.01732 0.25736 0.26423 0.0
C2458 C 0.96175 0.24561 0.27158 0.0
C2459 C 0.96072 0.22586 0.264 0.0
C2460 C 0.99766 0.24651 0.26484 0.0
C2461 C 0.97868 0.21685 0.25729 0.0
C2462 C 0.03411 0.24898 0.25442 0.0
C2463 C 0.03655 0.28678 0.27209 0.0
N2464 N 0.99635 0.22727 0.25775 0.0
N2465 N 0.01912 0.27595 0.2728 0.0
H2466 H 0.50422 0.69168 0.99016 0.0
H2467 H 0.50419 0.80638 0.02565 0.0
H2468 H 0.55778 0.72243 0.01049 0.0
H2469 H 0.45899 0.78253 0.98526 0.0
H2470 H 0.5225 0.77465 0.02327 0.0
H2471 H 0.48581 0.72374 0.99133 0.0
C2472 C 0.51209 0.70519 0.99486 0.0
C2473 C 0.53257 0.70441 1.0002 0.0
C2474 C 0.5086 0.77641 0.01489 0.0
C2475 C 0.51159 0.74104 1.00175 0.0
C2476 C 0.49813 0.79461 0.01612 0.0
C2477 C 0.47998 0.79739 1.00549 0.0
C2478 C 0.50082 0.76062 1.00319 0.0
C2479 C 0.47273 0.78115 0.99393 0.0
C2480 C 0.50162 0.72347 0.99544 0.0
C2481 C 0.54207 0.72238 0.00606 0.0
N2482 N 0.48313 0.76347 0.99314 0.0
N2483 N 0.53148 0.73992 0.00682 0.0
H2484 H 0.94857 0.76424 0.27736 0.0
H2485 H 0.06138 0.75404 0.23697 0.0
H2486 H 0.97237 0.80253 0.23041 0.0
H2487 H 0.03035 0.70637 0.26841 0.0
H2488 H 0.03003 0.77362 0.23652 0.0
H2489 H 0.97949 0.7445 0.27641 0.0
C2490 C 0.96017 0.76846 0.26668 0.0
C2491 C 0.95759 0.78506 0.25376 0.0
C2492 C 0.03006 0.75884 0.24342 0.0
C2493 C 0.99349 0.7626 0.25302 0.0
C2494 C 0.04796 0.7477 0.24377 0.0
C2495 C 0.04848 0.72854 0.25277 0.0
C2496 C 0.01261 0.75091 0.2524 0.0
C2497 C 0.03059 0.72098 0.26117 0.0
C2498 C 0.97792 0.75718 0.26626 0.0
C2499 C 0.97362 0.79003 0.24078 0.0
N2500 N 0.01345 0.73223 0.26092 0.0
N2501 N 0.99087 0.77888 0.24077 0.0
H2502 H 0.98829 0.70675 0.04048 0.0
H2503 H 0.02126 0.80524 0.97883 0.0
H2504 H 0.96868 0.7203 0.97997 0.0
H2505 H 0.03865 0.79475 0.04061 0.0
H2506 H 1.00221 0.77389 0.97919 0.0
H2507 H 0.00686 0.73868 0.04114 0.0
C2508 C 0.98776 0.71647 0.02739 0.0
C2509 C 0.97696 0.71071 0.0101 0.0
C2510 C 0.01015 0.77841 0.99271 0.0
C2511 C 0.99838 0.7472 0.01068 0.0
C2512 C 0.02097 0.79643 0.99255 0.0
C2513 C 0.03151 0.80281 0.00977 0.0
C2514 C 0.00981 0.7665 0.01019 0.0
C2515 C 0.03091 0.7904 0.02693 0.0
C2516 C 0.99847 0.73464 0.02773 0.0
C2517 C 0.97706 0.72386 0.99351 0.0
N2518 N 0.02023 0.77287 0.02672 0.0
N2519 N 0.98759 0.7414 0.99421 0.0
H2520 H 0.28083 0.94679 0.25272 0.0
H2521 H 0.23373 0.05719 0.26278 0.0
H2522 H 0.24307 0.97404 0.20734 0.0
H2523 H 0.2818 0.03575 0.30109 0.0
H2524 H 0.23574 0.02608 0.24344 0.0
H2525 H 0.28023 0.97844 0.27169 0.0
C2526 C 0.27244 0.95945 0.24673 0.0
C2527 C 0.26196 0.95774 0.22841 0.0
C2528 C 0.2459 0.02819 0.25604 0.0
C2529 C 0.26115 0.99401 0.2501 0.0
C2530 C 0.24485 0.04604 0.26708 0.0
C2531 C 0.25775 0.04931 0.28357 0.0
C2532 C 0.25982 0.01324 0.26154 0.0
C2533 C 0.27141 0.03391 0.28866 0.0
C2534 C 0.27217 0.97753 0.25753 0.0
C2535 C 0.25153 0.97471 0.22128 0.0
N2536 N 0.27208 0.01657 0.2777 0.0
N2537 N 0.25127 0.99206 0.23219 0.0
H2538 H 0.28701 0.47223 0.96483 0.0
H2539 H 0.21908 0.52655 0.04878 0.0
H2540 H 0.30486 0.52531 0.9979 0.0
H2541 H 0.19992 0.47288 0.0175 0.0
H2542 H 0.25085 0.5256 0.03042 0.0
H2543 H 0.25522 0.4717 0.98374 0.0
C2544 C 0.28425 0.4838 0.976 0.0
C2545 C 0.29875 0.49879 0.97981 0.0
C2546 C 0.23977 0.51397 0.02754 0.0
C2547 C 0.26243 0.49816 1.00161 0.0
C2548 C 0.22154 0.51455 0.03798 0.0
C2549 C 0.20668 0.49988 0.03456 0.0
C2550 C 0.24332 0.4986 0.01342 0.0
C2551 C 0.21096 0.48446 0.02068 0.0
C2552 C 0.26614 0.48341 0.98687 0.0
C2553 C 0.29437 0.51325 0.99463 0.0
N2554 N 0.22884 0.48428 0.01053 0.0
N2555 N 0.27667 0.51258 1.00492 0.0
H2556 H 0.78053 0.54752 0.22141 0.0
H2557 H 0.72 0.46976 0.29044 0.0
H2558 H 0.71665 0.55326 0.23215 0.0
H2559 H 0.77755 0.45636 0.26324 0.0
H2560 H 0.71908 0.50169 0.27173 0.0
H2561 H 0.78032 0.51524 0.23907 0.0
C2562 C 0.76644 0.54195 0.22751 0.0
C2563 C 0.74859 0.5531 0.22538 0.0
C2564 C 0.73185 0.4917 0.26982 0.0
C2565 C 0.74824 0.51614 0.24573 0.0
C2566 C 0.73245 0.47357 0.28058 0.0
C2567 C 0.74886 0.46037 0.27836 0.0
C2568 C 0.74792 0.49679 0.257 0.0
C2569 C 0.76451 0.46597 0.26526 0.0
C2570 C 0.76631 0.52348 0.23751 0.0
C2571 C 0.73071 0.54506 0.23338 0.0
N2572 N 0.7637 0.48377 0.25519 0.0
N2573 N 0.73101 0.52713 0.24338 0.0
H2574 H 0.80709 0.98335 0.0149 0.0
H2575 H 0.70251 0.03948 0.99199 0.0
H2576 H 0.78877 0.03768 0.04556 0.0
H2577 H 0.71927 0.9818 0.9671 0.0
H2578 H 0.73451 0.04026 0.01053 0.0
H2579 H 0.77547 0.98361 0.99622 0.0
C2580 C 0.79646 0.99543 0.01762 0.0
C2581 C 0.8007 0.0106 0.03176 0.0
C2582 C 0.73116 0.02744 1.00101 0.0
C2583 C 0.76417 0.01089 0.01044 0.0
C2584 C 0.71296 0.02705 0.99032 0.0
C2585 C 0.70814 0.0105 0.97802 0.0
C2586 C 0.74471 0.01125 0.99927 0.0
C2587 C 0.72218 0.99472 0.97661 0.0
C2588 C 0.77831 0.99551 0.00702 0.0
C2589 C 0.7861 0.02563 0.03491 0.0
N2590 N 0.73977 0.9955 0.98707 0.0
N2591 N 0.76852 0.02544 0.02429 0.0
H2592 H 0.2435 0.23141 0.9565 0.0
H2593 H 0.27966 0.29196 0.05437 0.0
H2594 H 0.21952 0.28978 0.9721 0.0
H2595 H 0.28971 0.22839 0.04531 0.0
H2596 H 0.26031 0.29295 0.02279 0.0
H2597 H 0.26308 0.23144 0.98762 0.0
C2598 C 0.24241 0.24428 0.96647 0.0
C2599 C 0.2299 0.26065 0.96165 0.0
C2600 C 0.26677 0.27881 0.02775 0.0
C2601 C 0.25235 0.2608 0.99744 0.0
C2602 C 0.27792 0.27827 0.04566 0.0
C2603 C 0.28623 0.26005 0.05251 0.0
C2604 C 0.26415 0.26105 0.01649 0.0
C2605 C 0.28338 0.24272 0.04073 0.0
C2606 C 0.25353 0.24425 0.9843 0.0
C2607 C 0.22888 0.2768 0.97531 0.0
N2608 N 0.27265 0.24366 0.02332 0.0
N2609 N 0.24005 0.27653 0.99254 0.0
H2610 H 0.30527 0.76774 0.47669 0.0
H2611 H 0.21039 0.72827 0.54023 0.0
H2612 H 0.25865 0.73017 0.45128 0.0
H2613 H 0.2508 0.77505 0.56061 0.0
H2614 H 0.22888 0.72691 0.50833 0.0
H2615 H 0.28694 0.76817 0.50864 0.0
C2616 C 0.29127 0.75941 0.47788 0.0
C2617 C 0.2835 0.7489 0.46126 0.0
C2618 C 0.23368 0.73745 0.51982 0.0
C2619 C 0.26228 0.74949 0.4978 0.0
C2620 C 0.22305 0.73833 0.53801 0.0
C2621 C 0.22905 0.75173 0.55328 0.0
C2622 C 0.25049 0.74999 0.51685 0.0
C2623 C 0.2458 0.76418 0.54954 0.0
C2624 C 0.28072 0.7598 0.49609 0.0
C2625 C 0.26511 0.73864 0.46364 0.0
N2626 N 0.25592 0.76297 0.53178 0.0
N2627 N 0.25514 0.73916 0.48155 0.0
H2628 H 0.02671 0.50201 0.8065 0.0
H2629 H 0.98151 0.51199 0.6953 0.0
H2630 H 0.97851 0.46419 0.78447 0.0
H2631 H 0.02067 0.55623 0.72246 0.0
H2632 H 0.98123 0.49327 0.72709 0.0
H2633 H 0.02572 0.52097 0.77513 0.0
C2634 C 0.01577 0.49776 0.79516 0.0
C2635 C 1.00252 0.48152 0.79833 0.0
C2636 C 0.9898 0.50712 0.72612 0.0
C2637 C 1.00162 0.5031 0.76199 0.0
C2638 C 0.99004 0.51778 0.70795 0.0
C2639 C 1.00115 0.53571 0.70619 0.0
C2640 C 1.00092 0.51433 0.74262 0.0
C2641 C 0.01173 0.54261 0.72317 0.0
C2642 C 0.0153 0.50857 0.77716 0.0
C2643 C 0.98912 0.47645 0.78272 0.0
N2644 N 0.01144 0.53185 0.7406 0.0
N2645 N 0.98902 0.4872 0.76524 0.0
H2646 H 0.74566 0.73148 0.45341 0.0
H2647 H 0.76301 0.78302 0.56043 0.0
H2648 H 0.71606 0.78687 0.47062 0.0
H2649 H 0.80501 0.74097 0.53405 0.0
H2650 H 0.74368 0.78294 0.52895 0.0
H2651 H 0.76557 0.73297 0.48419 0.0
C2652 C 0.74342 0.74408 0.46352 0.0
C2653 C 0.7292 0.7592 0.45916 0.0
C2654 C 0.75719 0.77383 0.53002 0.0
C2655 C 0.75178 0.76066 0.49488 0.0
C2656 C 0.76817 0.77381 0.54798 0.0
C2657 C 0.78563 0.76197 0.54984 0.0
C2658 C 0.76353 0.76169 0.51389 0.0
C2659 C 0.79174 0.75044 0.5332 0.0
C2660 C 0.75477 0.74483 0.48119 0.0
C2661 C 0.72664 0.77476 0.47333 0.0
N2662 N 0.78062 0.75046 0.51599 0.0
N2663 N 0.73779 0.77506 0.49055 0.0
H2664 H 0.49442 0.4509 0.22717 0.0
H2665 H 0.53155 0.54955 0.28643 0.0
H2666 H 0.53204 0.49685 0.20063 0.0
H2667 H 0.49362 0.50375 0.31278 0.0
H2668 H 0.53328 0.52968 0.25543 0.0
H2669 H 0.49534 0.46919 0.25913 0.0
C2670 C 0.50305 0.46472 0.22808 0.0
C2671 C 0.51311 0.47233 0.21108 0.0
C2672 C 0.52462 0.52395 0.26802 0.0
C2673 C 0.51402 0.49357 0.2477 0.0
C2674 C 0.52372 0.53525 0.28579 0.0
C2675 C 0.51233 0.52842 0.30228 0.0
C2676 C 0.51409 0.50561 0.26665 0.0
C2677 C 0.50231 0.50984 0.30039 0.0
C2678 C 0.50346 0.47525 0.24634 0.0
C2679 C 0.52379 0.49052 0.2132 0.0
N2680 N 0.50339 0.49914 0.28294 0.0
N2681 N 0.52392 0.50051 0.2311 0.0
H2682 H 0.98589 0.01792 0.8064 0.0
H2683 H 0.04642 0.98983 0.70554 0.0
H2684 H 0.04417 0.04316 0.79225 0.0
H2685 H 0.98591 0.97009 0.71898 0.0
H2686 H 0.04719 0.0079 0.73788 0.0
H2687 H 0.98682 0.99897 0.77502 0.0
C2688 C 0.99898 0.01938 0.79675 0.0
C2689 C 0.01503 0.03209 0.8021 0.0
C2690 C 0.03377 0.99958 0.73372 0.0
C2691 C 0.01611 0.01045 0.76578 0.0
C2692 C 0.03338 0.98916 0.71534 0.0
C2693 C 0.01601 0.97857 0.70945 0.0
C2694 C 0.01674 0.99924 0.74635 0.0
C2695 C 0.9995 0.97833 0.7227 0.0
C2696 C 0.99945 0.00861 0.77872 0.0
C2697 C 0.03139 0.03365 0.7887 0.0
N2698 N 1.00027 0.9885 0.74043 0.0
N2699 N 0.03155 0.02292 0.77118 0.0
H2700 H 0.4511 0.75394 0.78045 0.0
H2701 H 0.56986 0.74982 0.75857 0.0
H2702 H 0.48126 0.70284 0.75372 0.0
H2703 H 0.53864 0.804 0.77656 0.0
H2704 H 0.538 0.73149 0.75989 0.0
H2705 H 0.48339 0.7716 0.78207 0.0
C2706 C 0.46447 0.74641 0.77486 0.0
C2707 C 0.46333 0.72684 0.76682 0.0
C2708 C 0.53811 0.74737 0.76361 0.0
C2709 C 0.50052 0.74697 0.76892 0.0
C2710 C 0.55631 0.75791 0.76278 0.0
C2711 C 0.55697 0.7786 0.76724 0.0
C2712 C 0.52032 0.75752 0.76901 0.0
C2713 C 0.53894 0.78807 0.7731 0.0
C2714 C 0.48295 0.75649 0.77591 0.0
C2715 C 0.48133 0.71777 0.76025 0.0
N2716 N 0.52136 0.77749 0.77371 0.0
N2717 N 0.49912 0.72792 0.76139 0.0
H2718 H 0.95487 0.29004 0.51477 0.0
H2719 H 0.04558 0.22369 0.47149 0.0
H2720 H 0.99984 0.31458 0.47474 0.0
H2721 H 0.01387 0.20956 0.52658 0.0
H2722 H 0.02675 0.25536 0.46942 0.0
H2723 H 0.97359 0.25828 0.51569 0.0
C2724 C 0.96858 0.28866 0.506 0.0
C2725 C 0.97581 0.30497 0.49466 0.0
C2726 C 0.02396 0.24526 0.48193 0.0
C2727 C 0.99738 0.26869 0.49571 0.0
C2728 C 0.03479 0.2272 0.48321 0.0
C2729 C 0.03133 0.21371 0.49919 0.0
C2730 C 0.00937 0.24981 0.49658 0.0
C2731 C 0.01683 0.21911 0.51371 0.0
C2732 C 0.97935 0.2706 0.50667 0.0
C2733 C 0.99382 0.30242 0.4838 0.0
N2734 N 0.00636 0.23662 0.51199 0.0
N2735 N 1.00397 0.2846 0.48453 0.0
H2736 H 0.45264 0.26318 0.77626 0.0
H2737 H 0.56375 0.25201 0.73106 0.0
H2738 H 0.47422 0.29912 0.72648 0.0
H2739 H 0.53632 0.20802 0.77029 0.0
H2740 H 0.53196 0.27081 0.73058 0.0
H2741 H 0.48401 0.24412 0.77561 0.0
C2742 C 0.46387 0.26699 0.76504 0.0
C2743 C 0.46059 0.28275 0.75127 0.0
C2744 C 0.53288 0.257 0.73922 0.0
C2745 C 0.49692 0.2611 0.75077 0.0
C2746 C 0.55103 0.24632 0.73958 0.0
C2747 C 0.55269 0.22842 0.75075 0.0
C2748 C 0.5163 0.24987 0.75028 0.0
C2749 C 0.53567 0.22163 0.76132 0.0
C2750 C 0.48187 0.25613 0.76478 0.0
C2751 C 0.47607 0.28727 0.73752 0.0
N2752 N 0.51824 0.23241 0.76092 0.0
N2753 N 0.49355 0.27651 0.73763 0.0
H2754 H 0.51449 0.30971 0.4823 0.0
H2755 H 0.50113 0.19997 0.52904 0.0
H2756 H 0.54705 0.29046 0.53529 0.0
H2757 H 0.45608 0.22831 0.49171 0.0
H2758 H 0.52025 0.23161 0.52939 0.0
H2759 H 0.49505 0.27863 0.48338 0.0
C2760 C 0.51749 0.2991 0.49432 0.0
C2761 C 0.5324 0.30301 0.50889 0.0
C2762 C 0.50613 0.23092 0.52121 0.0
C2763 C 0.51034 0.26688 0.5098 0.0
C2764 C 0.49527 0.21287 0.52093 0.0
C2765 C 0.47699 0.21151 0.51032 0.0
C2766 C 0.49885 0.24767 0.51053 0.0
C2767 C 0.47 0.22873 0.50022 0.0
C2768 C 0.5064 0.28125 0.49482 0.0
C2769 C 0.53591 0.28817 0.52362 0.0
N2770 N 0.48101 0.24603 0.50043 0.0
N2771 N 0.52501 0.27076 0.52366 0.0
H2772 H 0.74598 0.53211 0.80333 0.0
H2773 H 0.78356 0.47242 0.70542 0.0
H2774 H 0.77964 0.56035 0.7554 0.0
H2775 H 0.73894 0.44954 0.74693 0.0
H2776 H 0.78452 0.50392 0.72458 0.0
H2777 H 0.74609 0.50057 0.78432 0.0
C2778 C 0.75357 0.53162 0.78889 0.0
C2779 C 0.76281 0.5489 0.78094 0.0
C2780 C 0.77454 0.49197 0.72947 0.0
C2781 C 0.76282 0.51287 0.75897 0.0
C2782 C 0.77389 0.47401 0.71847 0.0
C2783 C 0.76124 0.45815 0.72458 0.0
C2784 C 0.76253 0.4941 0.74678 0.0
C2785 C 0.74926 0.46108 0.74182 0.0
C2786 C 0.75349 0.51365 0.77796 0.0
C2787 C 0.77216 0.54744 0.762 0.0
N2788 N 0.75025 0.47862 0.75231 0.0
N2789 N 0.77196 0.52974 0.75167 0.0
H2790 H 0.72749 0.00928 0.56186 0.0
H2791 H 0.784 0.98405 0.45818 0.0
H2792 H 0.69776 0.98221 0.51072 0.0
H2793 H 0.81428 1.00562 0.51155 0.0
H2794 H 0.75251 0.98206 0.47737 0.0
H2795 H 0.75955 0.00698 0.54395 0.0
C2796 C 0.72768 1.00264 0.54696 0.0
C2797 C 0.70975 0.996 0.53783 0.0
C2798 C 0.76608 0.98713 0.4849 0.0
C2799 C 0.74659 0.99363 0.51698 0.0
C2800 C 0.78411 0.98816 0.47397 0.0
C2801 C 0.80185 0.99521 0.48315 0.0
C2802 C 0.76572 0.99322 0.50519 0.0
C2803 C 0.80094 1.0005 0.50365 0.0
C2804 C 0.74603 1.00145 0.53666 0.0
C2805 C 0.71105 0.98786 0.51829 0.0
N2806 N 0.78321 0.99951 0.5139 0.0
N2807 N 0.72909 0.98699 0.50852 0.0
H2808 H 0.23729 0.97891 0.80983 0.0
H2809 H 0.26044 0.03327 0.70441 0.0
H2810 H 0.26131 0.94824 0.75775 0.0
H2811 H 0.23522 0.06406 0.75586 0.0
H2812 H 0.25943 1.00171 0.7233 0.0
H2813 H 0.23497 0.0099 0.78997 0.0
C2814 C 0.24192 0.97862 0.79419 0.0
C2815 C 0.24966 0.96091 0.78554 0.0
C2816 C 0.25404 0.01535 0.73045 0.0
C2817 C 0.24722 0.99647 0.76272 0.0
C2818 C 0.25449 0.0334 0.7196 0.0
C2819 C 0.24798 0.05145 0.72853 0.0
C2820 C 0.24703 0.01526 0.75044 0.0
C2821 C 0.24072 0.05062 0.74843 0.0
C2822 C 0.2407 0.99637 0.78287 0.0
C2823 C 0.25561 0.96158 0.76521 0.0
N2824 N 0.2405 0.03288 0.7587 0.0
N2825 N 0.25433 0.97902 0.75456 0.0
H2826 H 0.30996 0.53971 0.51799 0.0
H2827 H 0.20763 0.47939 0.49521 0.0
H2828 H 0.29421 0.48271 0.54499 0.0
H2829 H 0.2247 0.53319 0.46295 0.0
H2830 H 0.2388 0.48146 0.51452 0.0
H2831 H 0.27823 0.53889 0.49891 0.0
C2832 C 0.29978 0.52712 0.52002 0.0
C2833 C 0.30484 0.51119 0.53302 0.0
C2834 C 0.23579 0.49285 0.50323 0.0
C2835 C 0.26861 0.51009 0.51116 0.0
C2836 C 0.21789 0.49173 0.49224 0.0
C2837 C 0.21342 0.50622 0.47749 0.0
C2838 C 0.24944 0.50862 0.49957 0.0
C2839 C 0.22757 0.52162 0.47408 0.0
C2840 C 0.28175 0.52659 0.50903 0.0
C2841 C 0.29113 0.49517 0.53492 0.0
N2842 N 0.24491 0.52247 0.48508 0.0
N2843 N 0.27372 0.49504 0.52414 0.0
H2844 H 0.70382 0.26129 0.02623 0.0
H2845 H 0.80651 0.23314 0.96883 0.0
H2846 H 0.75604 0.2362 0.05584 0.0
H2847 H 0.75751 0.26563 0.94099 0.0
H2848 H 0.78711 0.23154 1.00012 0.0
H2849 H 0.7221 0.26036 0.9942 0.0
C2850 C 0.71907 0.25542 0.02598 0.0
C2851 C 0.72842 0.24889 0.0438 0.0
C2852 C 0.78057 0.23899 0.98716 0.0
C2853 C 0.74951 0.24793 0.00716 0.0
C2854 C 0.7916 0.2398 0.96924 0.0
C2855 C 0.78368 0.24959 0.95224 0.0
C2856 C 0.76138 0.24793 0.98813 0.0
C2857 C 0.76435 0.25816 0.95378 0.0
C2858 C 0.72954 0.25502 0.0077 0.0
C2859 C 0.74831 0.24166 0.04255 0.0
N2860 N 0.75389 0.25713 0.97138 0.0
N2861 N 0.75817 0.24138 0.02459 0.0
H2862 H 0.52426 0.99739 0.31297 0.0
H2863 H 0.48587 1.0052 0.19933 0.0
H2864 H 0.47699 0.95929 0.28939 0.0
H2865 H 0.5179 0.053 0.22958 0.0
H2866 H 0.48472 0.98638 0.23111 0.0
H2867 H 0.52432 0.01619 0.28149 0.0
C2868 C 0.51372 0.99303 0.3013 0.0
C2869 C 0.50043 0.97675 0.30408 0.0
C2870 C 0.49192 1.00102 0.23079 0.0
C2871 C 0.50085 0.9981 0.26758 0.0
C2872 C 0.49267 0.01172 0.21266 0.0
C2873 C 0.50199 0.03071 0.21182 0.0
C2874 C 0.50081 0.00924 0.24815 0.0
C2875 C 0.51039 0.03852 0.22959 0.0
C2876 C 0.51388 1.00376 0.28323 0.0
C2877 C 0.48765 0.97155 0.28798 0.0
N2878 N 0.50972 0.0277 0.24697 0.0
N2879 N 0.4882 0.98217 0.27043 0.0
H2880 H 0.10851 0.46225 0.11933 0.0
H2881 H 0.15436 0.38465 0.19933 0.0
H2882 H 0.17208 0.45952 0.13318 0.0
H2883 H 0.09228 0.38473 0.17977 0.0
H2884 H 0.16157 0.41159 0.17524 0.0
H2885 H 0.10267 0.43391 0.1417 0.0
C2886 C 0.12131 0.45566 0.127 0.0
C2887 C 0.14087 0.46331 0.12421 0.0
C2888 C 0.1464 0.40563 0.17617 0.0
C2889 C 0.13417 0.43065 0.1502 0.0
C2890 C 0.14228 0.39012 0.18985 0.0
C2891 C 0.12261 0.38239 0.19171 0.0
C2892 C 0.13077 0.41353 0.16428 0.0
C2893 C 0.10757 0.39038 0.17915 0.0
C2894 C 0.11793 0.43941 0.13984 0.0
C2895 C 0.15675 0.45415 0.13483 0.0
N2896 N 0.11194 0.40551 0.16608 0.0
N2897 N 0.15306 0.43832 0.14739 0.0
H2898 H 0.72329 0.58991 0.11622 0.0
H2899 H 0.63998 0.6662 0.07341 0.0
H2900 H 0.71168 0.64955 0.13952 0.0
H2901 H 0.64061 0.60324 0.05708 0.0
H2902 H 0.66876 0.66052 0.09523 0.0
H2903 H 0.69545 0.59461 0.09206 0.0
C2904 C 0.71496 0.60395 0.11625 0.0
C2905 C 0.71977 0.61928 0.13003 0.0
C2906 C 0.66264 0.64789 0.08692 0.0
C2907 C 0.68816 0.62478 0.10248 0.0
C2908 C 0.64606 0.65112 0.07447 0.0
C2909 C 0.63757 0.63515 0.06351 0.0
C2910 C 0.67103 0.62852 0.0885 0.0
C2911 C 0.64664 0.61603 0.06517 0.0
C2912 C 0.69907 0.6066 0.10251 0.0
C2913 C 0.70847 0.63718 0.12937 0.0
N2914 N 0.66284 0.61322 0.07751 0.0
N2915 N 0.69331 0.6394 0.11588 0.0
H2916 H 0.90137 0.14037 0.1666 0.0
H2917 H 0.85325 0.03034 0.15405 0.0
H2918 H 0.86965 0.10969 0.21435 0.0
H2919 H 0.88659 0.06112 0.1074 0.0
H2920 H 0.85734 0.05983 0.17581 0.0
H2921 H 0.89454 0.11203 0.1443 0.0
C2922 C 0.89302 0.12765 0.17246 0.0
C2923 C 0.88622 0.12742 0.19249 0.0
C2924 C 0.86366 0.06015 0.16077 0.0
C2925 C 0.87813 0.09481 0.16683 0.0
C2926 C 0.86131 0.04332 0.1483 0.0
C2927 C 0.86961 0.04318 0.12882 0.0
C2928 C 0.87442 0.07699 0.15374 0.0
C2929 C 0.87991 0.06047 0.12226 0.0
C2930 C 0.88901 0.11148 0.15964 0.0
C2931 C 0.87508 0.11063 0.19902 0.0
N2932 N 0.88207 0.0766 0.1347 0.0
N2933 N 0.87146 0.09497 0.18626 0.0
H2934 H 0.39554 0.87586 0.10006 0.0
H2935 H 0.27817 0.86357 0.1059 0.0
H2936 H 0.359 0.87654 0.0464 0.0
H2937 H 0.31099 0.89318 0.15356 0.0
H2938 H 0.30758 0.86709 0.08395 0.0
H2939 H 0.36507 0.88085 0.12044 0.0
C2940 C 0.38108 0.87719 0.0926 0.0
C2941 C 0.37968 0.87567 0.07157 0.0
C2942 C 0.30825 0.87307 0.09912 0.0
C2943 C 0.34487 0.88115 0.0947 0.0
C2944 C 0.29151 0.87103 0.11167 0.0
C2945 C 0.29223 0.8779 0.13165 0.0
C2946 C 0.32604 0.88159 0.10674 0.0
C2947 C 0.30983 0.88757 0.1383 0.0
C2948 C 0.36376 0.88017 0.10419 0.0
C2949 C 0.36066 0.8777 0.06257 0.0
N2950 N 0.32622 0.88878 0.12599 0.0
N2951 N 0.34392 0.88 0.07421 0.0
H2952 H 0.09444 0.61247 0.32022 0.0
H2953 H 0.16909 0.57153 0.40269 0.0
H2954 H 0.15586 0.63349 0.32221 0.0
H2955 H 0.12309 0.5337 0.37655 0.0
H2956 H 0.16382 0.596 0.37545 0.0
H2957 H 0.10341 0.58506 0.34334 0.0
C2958 C 0.10982 0.61122 0.32555 0.0
C2959 C 0.12444 0.62518 0.31941 0.0
C2960 C 0.15511 0.58219 0.37557 0.0
C2961 C 0.13477 0.59416 0.34596 0.0
C2962 C 0.15809 0.56825 0.39109 0.0
C2963 C 0.1465 0.55057 0.3919 0.0
C2964 C 0.14009 0.57863 0.36109 0.0
C2965 C 0.13242 0.54708 0.37648 0.0
C2966 C 0.11497 0.59557 0.33859 0.0
C2967 C 0.14423 0.62291 0.32657 0.0
N2968 N 0.12938 0.56114 0.36191 0.0
N2969 N 0.14878 0.60784 0.33973 0.0
H2970 H 0.80854 0.64135 0.85706 0.0
H2971 H 0.86913 0.60884 0.95602 0.0
H2972 H 0.78569 0.5976 0.89945 0.0
H2973 H 0.87976 0.66439 0.92409 0.0
H2974 H 0.84181 0.6009 0.93241 0.0
H2975 H 0.83799 0.64628 0.87851 0.0
C2976 C 0.80976 0.63263 0.8708 0.0
C2977 C 0.79451 0.61908 0.87649 0.0
C2978 C 0.85021 0.61477 0.93053 0.0
C2979 C 0.82833 0.62471 0.90114 0.0
C2980 C 0.86589 0.61922 0.94387 0.0
C2981 C 0.8767 0.63732 0.94198 0.0
C2982 C 0.84548 0.62839 0.91504 0.0
C2983 C 0.87168 0.65038 0.92616 0.0
C2984 C 0.82657 0.63554 0.88308 0.0
C2985 C 0.797 0.60827 0.89451 0.0
N2986 N 0.85645 0.64566 0.91328 0.0
N2987 N 0.81359 0.61132 0.90622 0.0
H2988 H 0.83583 0.9728 0.37095 0.0
H2989 H 0.91564 0.89249 0.32839 0.0
H2990 H 0.89709 0.96604 0.39186 0.0
H2991 H 0.85339 0.89283 0.3095 0.0
H2992 H 0.9089 0.92109 0.35018 0.0
H2993 H 0.84167 0.94519 0.34682 0.0
C2994 C 0.85046 0.96556 0.37049 0.0
C2995 C 0.86591 0.97162 0.38366 0.0
C2996 C 0.89664 0.91498 0.3413 0.0
C2997 C 0.8727 0.94023 0.35611 0.0
C2998 C 0.90049 0.89852 0.32889 0.0
C2999 C 0.88504 0.89002 0.31722 0.0
C3000 C 0.87713 0.9232 0.3422 0.0
C3001 C 0.86579 0.89891 0.31816 0.0
C3002 C 0.85377 0.9498 0.35675 0.0
C3003 C 0.88459 0.96173 0.38233 0.0
N3004 N 0.86234 0.91497 0.33053 0.0
N3005 N 0.88741 0.94662 0.36889 0.0
H3006 H 0.13911 0.84396 0.93436 0.0
H3007 H 0.22374 0.92253 0.89926 0.0
H3008 H 0.13997 0.90559 0.95525 0.0
H3009 H 0.21176 0.86559 0.87013 0.0
H3010 H 0.19508 0.91625 0.92198 0.0
H3011 H 0.16783 0.85122 0.91286 0.0
C3012 C 0.1452 0.85907 0.93439 0.0
C3013 C 0.13683 0.87418 0.94662 0.0
C3014 C 0.19877 0.90521 0.91056 0.0
C3015 C 0.17023 0.88258 0.92203 0.0
C3016 C 0.21512 0.90876 0.89761 0.0
C3017 C 0.22017 0.89461 0.88269 0.0
C3018 C 0.18759 0.8873 0.90866 0.0
C3019 C 0.20845 0.87702 0.88128 0.0
C3020 C 0.16174 0.8632 0.92212 0.0
C3021 C 0.1459 0.89337 0.94625 0.0
N3022 N 0.19284 0.87388 0.89408 0.0
N3023 N 0.16209 0.89703 0.93415 0.0
H3024 H 0.21593 0.13816 0.40393 0.0
H3025 H 0.10415 0.13625 0.44986 0.0
H3026 H 0.16375 0.11585 0.37215 0.0
H3027 H 0.15668 0.15259 0.48461 0.0
H3028 H 0.12554 0.13169 0.42035 0.0
H3029 H 0.1943 0.14645 0.43269 0.0
C3030 C 0.19992 0.13513 0.40293 0.0
C3031 C 0.19169 0.12617 0.38561 0.0
C3032 C 0.13241 0.13632 0.4344 0.0
C3033 C 0.16684 0.13554 0.41851 0.0
C3034 C 0.12019 0.13888 0.45132 0.0
C3035 C 0.12863 0.14451 0.46988 0.0
C3036 C 0.15331 0.13945 0.43595 0.0
C3037 C 0.1495 0.14816 0.47065 0.0
C3038 C 0.18759 0.13978 0.4194 0.0
C3039 C 0.17085 0.12241 0.38527 0.0
N3040 N 0.16114 0.14544 0.45397 0.0
N3041 N 0.15919 0.12709 0.40144 0.0
H3042 H 0.37658 0.65419 0.81396 0.0
H3043 H 0.38913 0.5437 0.86091 0.0
H3044 H 0.40629 0.60546 0.78269 0.0
H3045 H 0.36028 0.59336 0.89143 0.0
H3046 H 0.39695 0.56616 0.8327 0.0
H3047 H 0.37194 0.63229 0.843 0.0
C3048 C 0.3823 0.63893 0.81321 0.0
C3049 C 0.39186 0.63171 0.79577 0.0
C3050 C 0.38894 0.57213 0.8456 0.0
C3051 C 0.38636 0.60634 0.82911 0.0
C3052 C 0.38455 0.55933 0.86177 0.0
C3053 C 0.37391 0.56657 0.87859 0.0
C3054 C 0.38269 0.59235 0.84624 0.0
C3055 C 0.36818 0.58695 0.8787 0.0
C3056 C 0.37957 0.62637 0.82984 0.0
C3057 C 0.39884 0.61171 0.79578 0.0
N3058 N 0.3726 0.59907 0.86281 0.0
N3059 N 0.39587 0.5997 0.81215 0.0
H3060 H 0.90053 0.3687 0.4463 0.0
H3061 H 0.78961 0.38269 0.40105 0.0
H3062 H 0.85244 0.39752 0.4793 0.0
H3063 H 0.84314 0.38589 0.36441 0.0
H3064 H 0.81098 0.37845 0.4311 0.0
H3065 H 0.87782 0.36518 0.41729 0.0
C3066 C 0.88514 0.374 0.44757 0.0
C3067 C 0.87845 0.38372 0.46511 0.0
C3068 C 0.81799 0.37984 0.41643 0.0
C3069 C 0.85242 0.37941 0.43223 0.0
C3070 C 0.80585 0.38216 0.39936 0.0
C3071 C 0.81471 0.38481 0.38037 0.0
C3072 C 0.83907 0.37973 0.41435 0.0
C3073 C 0.83581 0.38415 0.37887 0.0
C3074 C 0.87224 0.37204 0.43101 0.0
C3075 C 0.85829 0.39018 0.46596 0.0
N3076 N 0.8473 0.38166 0.39565 0.0
N3077 N 0.84599 0.38795 0.44973 0.0
H3078 H 0.60641 0.95682 0.8689 0.0
H3079 H 0.64294 0.8591 0.80874 0.0
H3080 H 0.6632 0.92678 0.87876 0.0
H3081 H 0.5957 0.89773 0.78615 0.0
H3082 H 0.64713 0.88132 0.83741 0.0
H3083 H 0.599 0.93298 0.84152 0.0
C3084 C 0.61719 0.94506 0.86546 0.0
C3085 C 0.63548 0.94374 0.87609 0.0
C3086 C 0.63583 0.88499 0.82622 0.0
C3087 C 0.62714 0.91659 0.84487 0.0
C3088 C 0.63341 0.87227 0.80974 0.0
C3089 C 0.61911 0.87662 0.79474 0.0
C3090 C 0.62381 0.90228 0.82797 0.0
C3091 C 0.60699 0.89383 0.79725 0.0
C3092 C 0.61303 0.9316 0.84975 0.0
C3093 C 0.64904 0.92842 0.87083 0.0
N3094 N 0.60965 0.90609 0.81354 0.0
N3095 N 0.64459 0.91545 0.85565 0.0
H3096 H 0.21766 0.8751 0.10911 0.0
H3097 H 0.10572 0.87858 0.06405 0.0
H3098 H 0.16548 0.89509 0.14245 0.0
H3099 H 0.15741 0.8588 0.02979 0.0
H3100 H 0.12731 0.88305 0.09339 0.0
H3101 H 0.19586 0.86761 0.08035 0.0
C3102 C 0.20163 0.87784 0.11044 0.0
C3103 C 0.19344 0.88581 0.12827 0.0
C3104 C 0.13396 0.87766 0.0795 0.0
C3105 C 0.16839 0.87736 0.09532 0.0
C3106 C 0.12162 0.87512 0.06269 0.0
C3107 C 0.12978 0.86851 0.04433 0.0
C3108 C 0.1547 0.87361 0.07801 0.0
C3109 C 0.15046 0.86395 0.04362 0.0
C3110 C 0.18919 0.87361 0.09398 0.0
C3111 C 0.17256 0.88928 0.12898 0.0
N3112 N 0.16223 0.86672 0.06018 0.0
N3113 N 0.16079 0.88504 0.11278 0.0
H3114 H 0.11406 0.58305 0.12262 0.0
H3115 H 0.11867 0.60186 0.2404 0.0
H3116 H 0.15456 0.55007 0.16115 0.0
H3117 H 0.11473 0.65242 0.19972 0.0
H3118 H 0.12357 0.57947 0.21152 0.0
H3119 H 0.10628 0.60586 0.151 0.0
C3120 C 0.12117 0.58061 0.1371 0.0
C3121 C 0.13502 0.56484 0.13967 0.0
C3122 C 0.12148 0.59545 0.20896 0.0
C3123 C 0.12596 0.59028 0.17196 0.0
C3124 C 0.11855 0.60823 0.22538 0.0
C3125 C 0.11637 0.62905 0.22245 0.0
C3126 C 0.12175 0.60346 0.18942 0.0
C3127 C 0.1165 0.63647 0.20263 0.0
C3128 C 0.11684 0.59359 0.15316 0.0
C3129 C 0.14395 0.5622 0.15862 0.0
N3130 N 0.11906 0.62365 0.18679 0.0
N3131 N 0.13913 0.57468 0.17411 0.0
H3132 H 0.9004 0.64598 0.06013 0.0
H3133 H 0.78883 0.63132 0.10434 0.0
H3134 H 0.85004 0.62666 0.02372 0.0
H3135 H 0.84273 0.63095 0.14059 0.0
H3136 H 0.80975 0.63676 0.07417 0.0
H3137 H 0.87795 0.64793 0.08931 0.0
C3138 C 0.88457 0.64243 0.05819 0.0
C3139 C 0.87713 0.63593 0.0395 0.0
C3140 C 0.81694 0.63563 0.08877 0.0
C3141 C 0.85138 0.63811 0.07284 0.0
C3142 C 0.80502 0.63263 0.10593 0.0
C3143 C 0.81413 0.63043 0.12486 0.0
C3144 C 0.83803 0.63676 0.09071 0.0
C3145 C 0.83518 0.63218 0.12619 0.0
C3146 C 0.87179 0.64345 0.07488 0.0
C3147 C 0.85646 0.63152 0.0379 0.0
N3148 N 0.84641 0.63521 0.10937 0.0
N3149 N 0.84432 0.63259 0.05438 0.0
H3150 H 0.86107 0.91752 0.12014 0.0
H3151 H 0.9066 0.9086 0.23162 0.0
H3152 H 0.88987 0.96713 0.15078 0.0
H3153 H 0.87401 0.86104 0.20145 0.0
H3154 H 0.9028 0.92964 0.20155 0.0
H3155 H 0.86769 0.89615 0.14918 0.0
C3156 C 0.86872 0.924 0.133 0.0
C3157 C 0.87474 0.94429 0.133 0.0
C3158 C 0.89659 0.91456 0.2015 0.0
C3159 C 0.88262 0.91965 0.16645 0.0
C3160 C 0.89878 0.90249 0.21866 0.0
C3161 C 0.8906 0.88297 0.21915 0.0
C3162 C 0.88615 0.90706 0.18467 0.0
C3163 C 0.8806 0.87594 0.20186 0.0
C3164 C 0.87261 0.9117 0.14959 0.0
C3165 C 0.88504 0.95159 0.15002 0.0
N3166 N 0.87863 0.88797 0.18541 0.0
N3167 N 0.88857 0.93931 0.16608 0.0
H3168 H 0.45105 0.10495 0.14162 0.0
H3169 H 0.40666 0.2172 0.1448 0.0
H3170 H 0.48845 0.15711 0.15206 0.0
H3171 H 0.37604 0.16665 0.11786 0.0
H3172 H 0.43518 0.19495 0.15309 0.0
H3173 H 0.42176 0.12694 0.13853 0.0
C3174 C 0.45315 0.12102 0.14316 0.0
C3175 C 0.47237 0.12918 0.14654 0.0
C3176 C 0.42215 0.18876 0.14543 0.0
C3177 C 0.43871 0.15453 0.14346 0.0
C3178 C 0.40589 0.2014 0.14081 0.0
C3179 C 0.38908 0.19377 0.13046 0.0
C3180 C 0.42142 0.16831 0.13993 0.0
C3181 C 0.38884 0.17321 0.12553 0.0
C3182 C 0.43637 0.13359 0.14153 0.0
C3183 C 0.47396 0.15014 0.14926 0.0
N3184 N 0.40473 0.16123 0.1303 0.0
N3185 N 0.45737 0.16211 0.14752 0.0
H3186 H 0.39381 0.79726 0.36284 0.0
H3187 H 0.45028 0.8988 0.39457 0.0
H3188 H 0.37817 0.83285 0.41504 0.0
H3189 H 0.47643 0.85596 0.35315 0.0
H3190 H 0.42182 0.87614 0.39953 0.0
H3191 H 0.42273 0.81939 0.35702 0.0
C3192 C 0.39644 0.80956 0.37319 0.0
C3193 C 0.38327 0.81318 0.38941 0.0
C3194 C 0.43375 0.87168 0.38932 0.0
C3195 C 0.41624 0.83883 0.38253 0.0
C3196 C 0.44999 0.8847 0.38637 0.0
C3197 C 0.46585 0.87932 0.37341 0.0
C3198 C 0.43317 0.85312 0.37918 0.0
C3199 C 0.46459 0.86073 0.36331 0.0
C3200 C 0.41294 0.82228 0.36976 0.0
C3201 C 0.38752 0.8296 0.40211 0.0
N3202 N 0.44853 0.8483 0.36639 0.0
N3203 N 0.40351 0.84181 0.39833 0.0
H3204 H 0.15597 0.31461 0.87833 0.0
H3205 H 0.04546 0.36239 0.88799 0.0
H3206 H 0.10611 0.28356 0.90638 0.0
H3207 H 0.09634 0.39294 0.86132 0.0
H3208 H 0.06746 0.33393 0.8962 0.0
H3209 H 0.13449 0.34395 0.87347 0.0
C3210 C 0.14055 0.31398 0.88365 0.0
C3211 C 0.13289 0.29649 0.89278 0.0
C3212 C 0.0738 0.3469 0.88859 0.0
C3213 C 0.10799 0.33018 0.887 0.0
C3214 C 0.06125 0.36321 0.88396 0.0
C3215 C 0.06898 0.38012 0.87383 0.0
C3216 C 0.09425 0.34748 0.88307 0.0
C3217 C 0.08957 0.38016 0.8688 0.0
C3218 C 0.12824 0.33078 0.8808 0.0
C3219 C 0.1127 0.29667 0.89927 0.0
N3220 N 0.10143 0.36412 0.87344 0.0
N3221 N 0.10093 0.3132 0.89616 0.0
H3222 H 0.60588 0.7188 0.379 0.0
H3223 H 0.56143 0.60717 0.3688 0.0
H3224 H 0.64098 0.66547 0.39103 0.0
H3225 H 0.52423 0.65901 0.38155 0.0
H3226 H 0.59128 0.62894 0.36944 0.0
H3227 H 0.57629 0.69747 0.37271 0.0
C3228 C 0.60738 0.70259 0.38012 0.0
C3229 C 0.62583 0.69386 0.38567 0.0
C3230 C 0.57654 0.63553 0.37192 0.0
C3231 C 0.59221 0.66944 0.37837 0.0
C3232 C 0.55949 0.62316 0.37144 0.0
C3233 C 0.54032 0.63125 0.37535 0.0
C3234 C 0.57436 0.65619 0.37598 0.0
C3235 C 0.53873 0.65209 0.37865 0.0
C3236 C 0.59051 0.69046 0.37663 0.0
C3237 C 0.62695 0.67279 0.38706 0.0
N3238 N 0.55553 0.66384 0.37894 0.0
N3239 N 0.61039 0.66128 0.3834 0.0
H3240 H 0.35248 0.68038 0.41025 0.0
H3241 H 0.45244 0.65498 0.34819 0.0
H3242 H 0.38475 0.7241 0.37448 0.0
H3243 H 0.4279 0.61505 0.39321 0.0
H3244 H 0.42714 0.68012 0.35716 0.0
H3245 H 0.37969 0.65616 0.40439 0.0
C3246 C 0.36538 0.68498 0.40136 0.0
C3247 C 0.36625 0.7043 0.39276 0.0
C3248 C 0.42728 0.66589 0.36513 0.0
C3249 C 0.39731 0.67652 0.38576 0.0
C3250 C 0.44162 0.65143 0.35986 0.0
C3251 C 0.4422 0.63279 0.36985 0.0
C3252 C 0.41323 0.66169 0.3804 0.0
C3253 C 0.42804 0.62924 0.38518 0.0
C3254 C 0.38089 0.67112 0.39799 0.0
C3255 C 0.38337 0.7094 0.3814 0.0
N3256 N 0.41405 0.64349 0.3899 0.0
N3257 N 0.3981 0.69554 0.37807 0.0
H3258 H 0.12409 0.80866 0.65701 0.0
H3259 H 0.05129 0.89336 0.6115 0.0
H3260 H 0.12793 0.83203 0.59647 0.0
H3261 H 0.04594 0.87208 0.67271 0.0
H3262 H 0.07893 0.87014 0.60603 0.0
H3263 H 0.09497 0.83055 0.66318 0.0
C3264 C 0.11874 0.81824 0.64495 0.0
C3265 C 0.12857 0.81853 0.62617 0.0
C3266 C 0.0718 0.87049 0.6207 0.0
C3267 C 0.09536 0.84376 0.63324 0.0
C3268 C 0.056 0.8839 0.6239 0.0
C3269 C 0.04635 0.88493 0.64271 0.0
C3270 C 0.07819 0.85784 0.63638 0.0
C3271 C 0.05297 0.87187 0.658 0.0
C3272 C 0.10218 0.83083 0.64854 0.0
C3273 C 0.12108 0.83149 0.61125 0.0
N3274 N 0.06855 0.85889 0.65453 0.0
N3275 N 0.105 0.84355 0.61511 0.0
H3276 H 0.04515 0.65625 0.63771 0.0
H3277 H 0.15481 0.70245 0.61782 0.0
H3278 H 0.09851 0.61945 0.63305 0.0
H3279 H 0.10838 0.73408 0.65062 0.0
H3280 H 0.13207 0.67336 0.61472 0.0
H3281 H 0.06623 0.68649 0.63409 0.0
C3282 C 0.06127 0.65458 0.63574 0.0
C3283 C 0.07018 0.63542 0.63591 0.0
C3284 C 0.12686 0.6868 0.62238 0.0
C3285 C 0.09423 0.66972 0.63149 0.0
C3286 C 0.13975 0.7034 0.62406 0.0
C3287 C 0.13354 0.72056 0.63473 0.0
C3288 C 0.10754 0.68761 0.63105 0.0
C3289 C 0.11384 0.72103 0.64249 0.0
C3290 C 0.07327 0.67177 0.63373 0.0
C3291 C 0.09114 0.634 0.63334 0.0
N3292 N 0.10155 0.70478 0.64053 0.0
N3293 N 0.10249 0.65093 0.63121 0.0
H3294 H 0.86122 0.80997 0.637 0.0
H3295 H 0.96758 0.86224 0.61394 0.0
H3296 H 0.90728 0.7816 0.60076 0.0
H3297 H 0.92498 0.88369 0.65813 0.0
H3298 H 0.94465 0.83433 0.60603 0.0
H3299 H 0.88323 0.83888 0.64175 0.0
C3300 C 0.87591 0.80985 0.62986 0.0
C3301 C 0.88238 0.79322 0.61847 0.0
C3302 C 0.94034 0.84518 0.61744 0.0
C3303 C 0.90787 0.82644 0.62406 0.0
C3304 C 0.95337 0.86116 0.62188 0.0
C3305 C 0.94824 0.87528 0.6368 0.0
C3306 C 0.92198 0.84342 0.62785 0.0
C3307 C 0.9297 0.87301 0.64675 0.0
C3308 C 0.88854 0.82638 0.63268 0.0
C3309 C 0.90165 0.79403 0.6097 0.0
N3310 N 0.91727 0.85744 0.64209 0.0
N3311 N 0.91375 0.81035 0.61272 0.0
H3312 H 0.61285 0.9854 0.65825 0.0
H3313 H 0.62558 0.86839 0.66843 0.0
H3314 H 0.64253 0.95069 0.61197 0.0
H3315 H 0.62579 0.9066 0.72087 0.0
H3316 H 0.6303 0.89813 0.64705 0.0
H3317 H 0.61621 0.95688 0.68134 0.0
C3318 C 0.62027 0.97183 0.65301 0.0
C3319 C 0.62723 0.97033 0.63309 0.0
C3320 C 0.62956 0.90001 0.66324 0.0
C3321 C 0.63078 0.93754 0.65934 0.0
C3322 C 0.62671 0.8831 0.6754 0.0
C3323 C 0.62514 0.88517 0.69637 0.0
C3324 C 0.63034 0.9192 0.67209 0.0
C3325 C 0.62695 0.90447 0.70475 0.0
C3326 C 0.62224 0.9556 0.66622 0.0
C3327 C 0.63686 0.95246 0.62716 0.0
N3328 N 0.62912 0.92083 0.69255 0.0
N3329 N 0.63801 0.93659 0.64012 0.0
H3330 H 0.19874 0.13831 0.65542 0.0
H3331 H 0.14916 0.12354 0.54637 0.0
H3332 H 0.22837 0.10709 0.60661 0.0
H3333 H 0.12068 0.15597 0.59502 0.0
H3334 H 0.17755 0.11589 0.56856 0.0
H3335 H 0.16933 0.14328 0.63398 0.0
C3336 C 0.19904 0.13233 0.64025 0.0
C3337 C 0.21615 0.12226 0.63285 0.0
C3338 C 0.16507 0.12465 0.5744 0.0
C3339 C 0.1824 0.12812 0.60804 0.0
C3340 C 0.14877 0.12894 0.56175 0.0
C3341 C 0.13243 0.14046 0.56878 0.0
C3342 C 0.16508 0.13188 0.59429 0.0
C3343 C 0.133 0.14729 0.58881 0.0
C3344 C 0.18221 0.13525 0.62796 0.0
C3345 C 0.21557 0.11495 0.61299 0.0
N3346 N 0.14902 0.14291 0.60082 0.0
N3347 N 0.19902 0.1181 0.60127 0.0
H3348 H 0.37923 0.60796 0.72093 0.0
H3349 H 0.37424 0.56536 0.60803 0.0
H3350 H 0.39156 0.64425 0.66852 0.0
H3351 H 0.38534 0.5276 0.65977 0.0
H3352 H 0.37289 0.59479 0.63036 0.0
H3353 H 0.37387 0.57868 0.69888 0.0
C3354 C 0.38054 0.60979 0.70478 0.0
C3355 C 0.38602 0.62846 0.69652 0.0
C3356 C 0.37542 0.58001 0.63681 0.0
C3357 C 0.37984 0.59522 0.67127 0.0
C3358 C 0.37608 0.56321 0.6241 0.0
C3359 C 0.38008 0.54403 0.63205 0.0
C3360 C 0.37849 0.57756 0.65761 0.0
C3361 C 0.38241 0.54214 0.65299 0.0
C3362 C 0.37761 0.59311 0.69223 0.0
C3363 C 0.38766 0.63004 0.67549 0.0
N3364 N 0.38163 0.5587 0.66505 0.0
N3365 N 0.3846 0.61365 0.66359 0.0
H3366 H 0.90059 0.37566 0.59216 0.0
H3367 H 0.78424 0.38341 0.61794 0.0
H3368 H 0.85633 0.3804 0.54487 0.0
H3369 H 0.83122 0.40368 0.65818 0.0
H3370 H 0.80944 0.38036 0.59096 0.0
H3371 H 0.87452 0.38334 0.61695 0.0
C3372 C 0.8853 0.37824 0.58704 0.0
C3373 C 0.88051 0.37724 0.5665 0.0
C3374 C 0.8141 0.38571 0.60565 0.0
C3375 C 0.85054 0.38607 0.59477 0.0
C3376 C 0.79976 0.38745 0.62105 0.0
C3377 C 0.80564 0.39366 0.64042 0.0
C3378 C 0.83444 0.38989 0.6098 0.0
C3379 C 0.82595 0.39874 0.64356 0.0
C3380 C 0.87046 0.3828 0.60115 0.0
C3381 C 0.86054 0.38107 0.5606 0.0
N3382 N 0.83962 0.39649 0.62852 0.0
N3383 N 0.84617 0.38511 0.57472 0.0
H3384 H 0.64192 0.06159 0.90351 0.0
H3385 H 0.63252 0.1077 0.79254 0.0
H3386 H 0.62445 0.02618 0.85181 0.0
H3387 H 0.62572 0.14307 0.84658 0.0
H3388 H 0.63723 0.07748 0.81337 0.0
H3389 H 0.64384 0.09143 0.8819 0.0
C3390 C 0.63875 0.06002 0.88757 0.0
C3391 C 0.63279 0.04142 0.87947 0.0
C3392 C 0.63485 0.09189 0.82063 0.0
C3393 C 0.63506 0.07543 0.85473 0.0
C3394 C 0.63228 0.1091 0.80879 0.0
C3395 C 0.62857 0.12781 0.8179 0.0
C3396 C 0.63402 0.09352 0.84172 0.0
C3397 C 0.62824 0.12885 0.839 0.0
C3398 C 0.63976 0.07707 0.87529 0.0
C3399 C 0.6289 0.04028 0.85871 0.0
N3400 N 0.63093 0.11194 0.85022 0.0
N3401 N 0.63004 0.05707 0.84705 0.0
H3402 H 0.38953 0.14578 0.4161 0.0
H3403 H 0.27695 0.10289 0.407 0.0
H3404 H 0.35711 0.12075 0.46659 0.0
H3405 H 0.30898 0.13256 0.35876 0.0
H3406 H 0.30674 0.10672 0.42849 0.0
H3407 H 0.36084 0.13855 0.39447 0.0
C3408 C 0.37634 0.13883 0.42271 0.0
C3409 C 0.37571 0.13412 0.44333 0.0
C3410 C 0.30726 0.11227 0.41316 0.0
C3411 C 0.34262 0.12553 0.41839 0.0
C3412 C 0.29026 0.11006 0.40084 0.0
C3413 C 0.29038 0.11743 0.38098 0.0
C3414 C 0.32454 0.1219 0.40558 0.0
C3415 C 0.3081 0.12662 0.37391 0.0
C3416 C 0.35994 0.13458 0.41027 0.0
C3417 C 0.35831 0.1246 0.45081 0.0
N3418 N 0.32438 0.12862 0.38619 0.0
N3419 N 0.34241 0.12072 0.43837 0.0
H3420 H 0.39951 0.3706 0.84441 0.0
H3421 H 0.35291 0.48127 0.85667 0.0
H3422 H 0.37211 0.40319 0.79527 0.0
H3423 H 0.38377 0.44914 0.90409 0.0
H3424 H 0.35765 0.4522 0.83448 0.0
H3425 H 0.39196 0.3986 0.86681 0.0
C3426 C 0.392 0.38368 0.83825 0.0
C3427 C 0.38665 0.38455 0.81778 0.0
C3428 C 0.36328 0.45149 0.84978 0.0
C3429 C 0.37766 0.41679 0.84362 0.0
C3430 C 0.36054 0.46807 0.8625 0.0
C3431 C 0.36798 0.46773 0.88233 0.0
C3432 C 0.37353 0.43439 0.85691 0.0
C3433 C 0.37777 0.45017 0.88897 0.0
C3434 C 0.38756 0.39967 0.85113 0.0
C3435 C 0.37645 0.40179 0.81091 0.0
N3436 N 0.3803 0.43429 0.87629 0.0
N3437 N 0.37237 0.41727 0.82377 0.0
H3438 H 0.65086 0.39211 0.4625 0.0
H3439 H 0.6985 0.37435 0.35303 0.0
H3440 H 0.62063 0.3601 0.41463 0.0
H3441 H 0.72861 0.40754 0.40021 0.0
H3442 H 0.66937 0.37014 0.37504 0.0
H3443 H 0.67891 0.39901 0.43966 0.0
C3444 C 0.65 0.38665 0.44717 0.0
C3445 C 0.63327 0.37545 0.44056 0.0
C3446 C 0.6823 0.37844 0.38057 0.0
C3447 C 0.66556 0.38315 0.41431 0.0
C3448 C 0.69897 0.38091 0.36796 0.0
C3449 C 0.71612 0.39133 0.37473 0.0
C3450 C 0.68271 0.38637 0.40019 0.0
C3451 C 0.71577 0.3994 0.3943 0.0
C3452 C 0.66611 0.39052 0.43414 0.0
C3453 C 0.63326 0.36853 0.42055 0.0
N3454 N 0.69938 0.39667 0.40636 0.0
N3455 N 0.64913 0.37247 0.40818 0.0
H3456 H 0.71835 0.63638 0.90035 0.0
H3457 H 0.60688 0.62773 0.9462 0.0
H3458 H 0.66748 0.61139 0.86843 0.0
H3459 H 0.65778 0.64987 0.98014 0.0
H3460 H 0.62855 0.6241 0.91677 0.0
H3461 H 0.69616 0.64382 0.92891 0.0
C3462 C 0.70251 0.63257 0.89928 0.0
C3463 C 0.69483 0.6231 0.88198 0.0
C3464 C 0.635 0.62982 0.93062 0.0
C3465 C 0.66936 0.63148 0.91466 0.0
C3466 C 0.62261 0.63187 0.94748 0.0
C3467 C 0.63054 0.63888 0.96579 0.0
C3468 C 0.65555 0.6348 0.93199 0.0
C3469 C 0.65101 0.64434 0.96637 0.0
C3470 C 0.68987 0.63675 0.91563 0.0
C3471 C 0.67419 0.61835 0.88154 0.0
N3472 N 0.66284 0.64207 0.94977 0.0
N3473 N 0.66222 0.62256 0.89761 0.0
H3474 H 0.85974 0.09459 0.39018 0.0
H3475 H 0.89646 0.101 0.27591 0.0
H3476 H 0.88514 0.04362 0.35888 0.0
H3477 H 0.88568 0.15313 0.31323 0.0
H3478 H 0.89189 0.07943 0.30549 0.0
H3479 H 0.8678 0.11594 0.36137 0.0
C3480 C 0.86693 0.08787 0.37718 0.0
C3481 C 0.87165 0.06726 0.37689 0.0
C3482 C 0.89058 0.0956 0.30719 0.0
C3483 C 0.88108 0.09169 0.34378 0.0
C3484 C 0.89324 0.10795 0.29032 0.0
C3485 C 0.891 0.12894 0.29195 0.0
C3486 C 0.88555 0.10429 0.32582 0.0
C3487 C 0.88689 0.13705 0.31105 0.0
C3488 C 0.87169 0.1001 0.36078 0.0
C3489 C 0.88133 0.05945 0.35976 0.0
N3490 N 0.88412 0.12472 0.32716 0.0
N3491 N 0.88559 0.07164 0.34381 0.0
H3492 H 0.29717 0.86543 0.90562 0.0
H3493 H 0.40576 0.88273 0.95562 0.0
H3494 H 0.34311 0.90458 0.88149 0.0
H3495 H 0.35788 0.85054 0.98578 0.0
H3496 H 0.38388 0.88745 0.92664 0.0
H3497 H 0.31995 0.85664 0.93344 0.0
C3498 C 0.31207 0.87206 0.9061 0.0
C3499 C 0.31818 0.88589 0.89129 0.0
C3500 C 0.37814 0.87927 0.93954 0.0
C3501 C 0.34427 0.87594 0.923 0.0
C3502 C 0.39069 0.87647 0.95613 0.0
C3503 C 0.38368 0.86627 0.97329 0.0
C3504 C 0.35831 0.87185 0.93997 0.0
C3505 C 0.36394 0.85856 0.97293 0.0
C3506 C 0.32502 0.86712 0.92202 0.0
C3507 C 0.33762 0.89414 0.89274 0.0
N3508 N 0.3519 0.86158 0.95657 0.0
N3509 N 0.34992 0.88905 0.90826 0.0
H3510 H 0.13968 0.41274 0.39269 0.0
H3511 H 0.1365 0.40797 0.27298 0.0
H3512 H 0.13921 0.46598 0.35547 0.0
H3513 H 0.12174 0.35725 0.3109 0.0
H3514 H 0.13738 0.42957 0.30278 0.0
H3515 H 0.1335 0.39215 0.36284 0.0
C3516 C 0.13836 0.42009 0.3782 0.0
C3517 C 0.14018 0.4411 0.37652 0.0
C3518 C 0.13372 0.41376 0.30457 0.0
C3519 C 0.13295 0.4176 0.34224 0.0
C3520 C 0.13322 0.40141 0.28756 0.0
C3521 C 0.12916 0.38074 0.28947 0.0
C3522 C 0.13043 0.40535 0.32369 0.0
C3523 C 0.12494 0.37309 0.30872 0.0
C3524 C 0.13464 0.40834 0.36118 0.0
C3525 C 0.13788 0.44985 0.35741 0.0
N3526 N 0.12593 0.38535 0.32512 0.0
N3527 N 0.13458 0.43805 0.34098 0.0
H3528 H 0.6604 0.36324 0.52331 0.0
H3529 H 0.66678 0.39038 0.6407 0.0
H3530 H 0.60869 0.37554 0.56084 0.0
H3531 H 0.71934 0.37896 0.60407 0.0
H3532 H 0.64542 0.38367 0.61171 0.0
H3533 H 0.68223 0.36695 0.55283 0.0
C3534 C 0.6536 0.36655 0.53777 0.0
C3535 C 0.63266 0.36932 0.53951 0.0
C3536 C 0.66162 0.38261 0.60995 0.0
C3537 C 0.6576 0.37373 0.57336 0.0
C3538 C 0.6739 0.38662 0.62653 0.0
C3539 C 0.69499 0.38546 0.62485 0.0
C3540 C 0.67039 0.37739 0.59142 0.0
C3541 C 0.70318 0.37997 0.60611 0.0
C3542 C 0.66609 0.36876 0.55461 0.0
C3543 C 0.62474 0.37362 0.55865 0.0
N3544 N 0.69088 0.37622 0.59011 0.0
N3545 N 0.6372 0.37578 0.57476 0.0
H3546 H 0.60538 0.10554 0.73359 0.0
H3547 H 0.64867 0.0954 0.62135 0.0
H3548 H 0.63555 0.1534 0.70144 0.0
H3549 H 0.62192 0.04572 0.65369 0.0
H3550 H 0.64218 0.1172 0.6501 0.0
H3551 H 0.60921 0.08387 0.70396 0.0
C3552 C 0.61265 0.11157 0.72028 0.0
C3553 C 0.62016 0.13136 0.72007 0.0
C3554 C 0.63769 0.10153 0.65095 0.0
C3555 C 0.62467 0.10658 0.68614 0.0
C3556 C 0.64153 0.089 0.63453 0.0
C3557 C 0.636 0.06859 0.63509 0.0
C3558 C 0.62824 0.09369 0.66818 0.0
C3559 C 0.62634 0.06136 0.6525 0.0
C3560 C 0.61488 0.09915 0.70339 0.0
C3561 C 0.62949 0.13829 0.70238 0.0
N3562 N 0.62284 0.07387 0.66838 0.0
N3563 N 0.63152 0.12592 0.68621 0.0
H3564 H 0.2929 0.14237 0.60953 0.0
H3565 H 0.40365 0.13037 0.56236 0.0
H3566 H 0.34304 0.11467 0.64033 0.0
H3567 H 0.3536 0.15623 0.52974 0.0
H3568 H 0.38204 0.12683 0.59188 0.0
H3569 H 0.3152 0.14984 0.58102 0.0
C3570 C 0.3086 0.13799 0.61038 0.0
C3571 C 0.31602 0.12771 0.62733 0.0
C3572 C 0.37578 0.13338 0.57831 0.0
C3573 C 0.34163 0.13612 0.5947 0.0
C3574 C 0.38815 0.13545 0.56141 0.0
C3575 C 0.38045 0.14354 0.54344 0.0
C3576 C 0.35547 0.13937 0.57732 0.0
C3577 C 0.36022 0.14987 0.54323 0.0
C3578 C 0.32131 0.14217 0.59405 0.0
C3579 C 0.3365 0.12225 0.62748 0.0
N3580 N 0.34841 0.14756 0.55986 0.0
N3581 N 0.34852 0.12648 0.61145 0.0
H3582 H 0.40558 0.45896 0.64237 0.0
H3583 H 0.36998 0.36103 0.70285 0.0
H3584 H 0.3489 0.42892 0.63199 0.0
H3585 H 0.41444 0.4024 0.72627 0.0
H3586 H 0.36591 0.3826 0.6734 0.0
H3587 H 0.41276 0.43518 0.66977 0.0
C3588 C 0.39479 0.44719 0.64569 0.0
C3589 C 0.3766 0.44589 0.63494 0.0
C3590 C 0.37662 0.38692 0.68494 0.0
C3591 C 0.38467 0.41874 0.66619 0.0
C3592 C 0.37905 0.37456 0.70174 0.0
C3593 C 0.39254 0.37993 0.71716 0.0
C3594 C 0.38788 0.40474 0.68333 0.0
C3595 C 0.40379 0.39771 0.71483 0.0
C3596 C 0.39881 0.43375 0.66141 0.0
C3597 C 0.363 0.43053 0.64003 0.0
N3598 N 0.40121 0.4095 0.69824 0.0
N3599 N 0.36731 0.41754 0.65526 0.0
H3600 H 0.98635 0.65827 0.61246 0.0
H3601 H 0.86947 0.66629 0.62672 0.0
H3602 H 0.95326 0.61117 0.64267 0.0
H3603 H 0.90695 0.7193 0.62736 0.0
H3604 H 0.89962 0.64534 0.63126 0.0
H3605 H 0.95747 0.68079 0.6167 0.0
C3606 C 0.97307 0.65275 0.62021 0.0
C3607 C 0.9721 0.63276 0.62705 0.0
C3608 C 0.90122 0.66157 0.63069 0.0
C3609 C 0.93889 0.65833 0.63155 0.0
C3610 C 0.88408 0.67348 0.62795 0.0
C3611 C 0.88583 0.69449 0.62654 0.0
C3612 C 0.92028 0.67072 0.6315 0.0
C3613 C 0.90503 0.70315 0.62844 0.0
C3614 C 0.95663 0.66563 0.62267 0.0
C3615 C 0.95459 0.62643 0.63709 0.0
N3616 N 0.92158 0.6912 0.63047 0.0
N3617 N 0.93848 0.63906 0.63869 0.0
H3618 H 0.8832 0.33634 0.91213 0.0
H3619 H 0.97998 0.36236 0.84573 0.0
H3620 H 0.89687 0.30547 0.85665 0.0
H3621 H 0.95533 0.40309 0.89008 0.0
H3622 H 0.95062 0.34042 0.85026 0.0
H3623 H 0.9106 0.36011 0.90523 0.0
C3624 C 0.89195 0.33464 0.89847 0.0
C3625 C 0.88776 0.31895 0.88495 0.0
C3626 C 0.95159 0.35424 0.85888 0.0
C3627 C 0.91923 0.34594 0.87699 0.0
C3628 C 0.96837 0.36676 0.85634 0.0
C3629 C 0.97018 0.3846 0.86757 0.0
C3630 C 0.93664 0.35945 0.87295 0.0
C3631 C 0.95461 0.38952 0.88107 0.0
C3632 C 0.90751 0.34823 0.89448 0.0
C3633 C 0.89945 0.31748 0.86736 0.0
N3634 N 0.93861 0.37695 0.88349 0.0
N3635 N 0.91478 0.33069 0.86398 0.0
H3636 H 0.65348 0.81252 0.38608 0.0
H3637 H 0.541 0.85637 0.39171 0.0
H3638 H 0.60221 0.77661 0.40382 0.0
H3639 H 0.59236 0.88967 0.36974 0.0
H3640 H 0.5633 0.82784 0.39915 0.0
H3641 H 0.6315 0.84175 0.38299 0.0
C3642 C 0.63759 0.81075 0.38934 0.0
C3643 C 0.62966 0.79197 0.39492 0.0
C3644 C 0.56967 0.84143 0.39275 0.0
C3645 C 0.60428 0.82556 0.39151 0.0
C3646 C 0.55696 0.85775 0.38859 0.0
C3647 C 0.56478 0.8754 0.37991 0.0
C3648 C 0.59035 0.84282 0.38832 0.0
C3649 C 0.58558 0.87627 0.37604 0.0
C3650 C 0.62502 0.82751 0.38762 0.0
C3651 C 0.60898 0.79077 0.3994 0.0
N3652 N 0.59759 0.86024 0.38023 0.0
N3653 N 0.59697 0.8073 0.39745 0.0
H3654 H 0.10868 0.22057 0.87286 0.0
H3655 H 0.06627 0.10748 0.87444 0.0
H3656 H 0.14173 0.16938 0.8955 0.0
H3657 H 0.02892 0.15898 0.86098 0.0
H3658 H 0.09519 0.1298 0.87826 0.0
H3659 H 0.08043 0.19813 0.86459 0.0
C3660 C 0.11005 0.20461 0.87595 0.0
C3661 C 0.12753 0.19687 0.88505 0.0
C3662 C 0.08069 0.13626 0.87444 0.0
C3663 C 0.09534 0.17115 0.87565 0.0
C3664 C 0.06412 0.1235 0.87234 0.0
C3665 C 0.04502 0.13138 0.8678 0.0
C3666 C 0.07826 0.15713 0.87192 0.0
C3667 C 0.04334 0.15224 0.8646 0.0
C3668 C 0.0939 0.19184 0.87132 0.0
C3669 C 0.12844 0.17608 0.88885 0.0
N3670 N 0.05971 0.16442 0.86687 0.0
N3671 N 0.1126 0.16399 0.88416 0.0
H3672 H 0.91417 0.23653 0.87656 0.0
H3673 H 0.91879 0.1177 0.86785 0.0
H3674 H 0.86175 0.19915 0.88589 0.0
H3675 H 0.97114 0.15319 0.88275 0.0
H3676 H 0.89754 0.14748 0.87291 0.0
H3677 H 0.93543 0.20642 0.87779 0.0
C3678 C 0.90715 0.222 0.87907 0.0
C3679 C 0.88614 0.22033 0.88097 0.0
C3680 C 0.91366 0.14871 0.87526 0.0
C3681 C 0.91035 0.1858 0.88204 0.0
C3682 C 0.92578 0.13177 0.87222 0.0
C3683 C 0.94674 0.13304 0.87479 0.0
C3684 C 0.9226 0.16715 0.88053 0.0
C3685 C 0.95503 0.15157 0.88073 0.0
C3686 C 0.9193 0.20484 0.8798 0.0
C3687 C 0.87787 0.20114 0.88431 0.0
N3688 N 0.94297 0.16798 0.88315 0.0
N3689 N 0.88997 0.18458 0.88443 0.0
H3690 H 0.57494 0.39773 0.16676 0.0
H3691 H 0.61333 0.3129 0.09312 0.0
H3692 H 0.53728 0.37328 0.1197 0.0
H3693 H 0.63565 0.31656 0.15394 0.0
H3694 H 0.58631 0.3365 0.10189 0.0
H3695 H 0.59834 0.36946 0.16214 0.0
C3696 C 0.57147 0.38631 0.15564 0.0
C3697 C 0.55418 0.38795 0.14352 0.0
C3698 C 0.59696 0.33199 0.1134 0.0
C3699 C 0.58102 0.35584 0.13795 0.0
C3700 C 0.61239 0.31863 0.10837 0.0
C3701 C 0.62666 0.31288 0.12284 0.0
C3702 C 0.59607 0.34007 0.13294 0.0
C3703 C 0.62481 0.32059 0.14243 0.0
C3704 C 0.5848 0.37017 0.15305 0.0
C3705 C 0.55041 0.37266 0.12938 0.0
N3706 N 0.60996 0.33408 0.14687 0.0
N3707 N 0.56387 0.35744 0.12676 0.0
H3708 H 0.65862 0.19682 0.13036 0.0
H3709 H 0.54796 0.14914 0.12161 0.0
H3710 H 0.60796 0.22782 0.1037 0.0
H3711 H 0.59832 0.11879 0.14946 0.0
H3712 H 0.57012 0.1773 0.11321 0.0
H3713 H 0.63725 0.16733 0.13563 0.0
C3714 C 0.64305 0.19741 0.12547 0.0
C3715 C 0.63508 0.21492 0.11664 0.0
C3716 C 0.57634 0.16445 0.12111 0.0
C3717 C 0.61044 0.18114 0.12278 0.0
C3718 C 0.5637 0.14829 0.12583 0.0
C3719 C 0.57123 0.13151 0.13631 0.0
C3720 C 0.59672 0.16389 0.12688 0.0
C3721 C 0.59174 0.13148 0.14165 0.0
C3722 C 0.63083 0.18054 0.12853 0.0
C3723 C 0.61478 0.21471 0.1106 0.0
N3724 N 0.60373 0.1474 0.13689 0.0
N3725 N 0.60315 0.19814 0.11387 0.0
H3726 H 0.46249 0.3647 0.10923 0.0
H3727 H 0.36585 0.30312 0.14659 0.0
H3728 H 0.42936 0.37733 0.16377 0.0
H3729 H 0.4023 0.28332 0.09642 0.0
H3730 H 0.38871 0.33109 0.15184 0.0
H3731 H 0.44091 0.33527 0.10349 0.0
C3732 C 0.45085 0.36123 0.12011 0.0
C3733 C 0.4477 0.37368 0.13698 0.0
C3734 C 0.3918 0.32069 0.13966 0.0
C3735 C 0.42277 0.34017 0.1303 0.0
C3736 C 0.37863 0.30467 0.13655 0.0
C3737 C 0.38206 0.29079 0.12095 0.0
C3738 C 0.40864 0.32306 0.12708 0.0
C3739 C 0.39905 0.29365 0.10861 0.0
C3740 C 0.43845 0.34448 0.11673 0.0
C3741 C 0.43217 0.36848 0.15038 0.0
N3742 N 0.41171 0.30951 0.11192 0.0
N3743 N 0.42031 0.35224 0.14671 0.0
loop_
_geom_bond_atom_site_label_1
_geom_bond_atom_site_label_2
_geom_bond_distance
_geom_bond_site_symmetry_2
_ccdc_geom_bond_type
Co0 N4 2.148 . S
Co0 N10 2.128 . S
Co0 N20 2.194 . S
Co0 O25 2.351 . S
Co0 O26 2.155 . S
Co0 O27 2.096 . S
C1 N4 1.301 . S
C1 N5 1.328 . S
C1 H6 0.930 . S
C2 C3 1.333 . S
C2 N4 1.317 . S
C2 H7 0.930 . S
C3 C2 1.333 . S
C3 N5 1.350 . S
C3 H29 0.931 . S
N4 Co0 2.148 . S
N4 C1 1.301 . S
N4 C2 1.317 . S
N5 C1 1.328 . S
N5 C3 1.350 . S
H6 C1 0.930 . S
H7 C2 0.930 . S
C8 O9 1.224 . S
C8 O27 1.247 . S
O9 C8 1.224 . S
N10 Co0 2.128 . S
N10 C11 1.355 . S
N10 C13 1.311 . S
C11 N10 1.355 . S
C11 C12 1.363 . S
C11 H23 0.929 . S
C12 C11 1.363 . S
C12 N14 1.375 . S
C12 H30 0.931 . S
C13 N10 1.311 . S
C13 N14 1.347 . S
C13 H24 0.929 . S
N14 C12 1.375 . S
N14 C13 1.347 . S
C15 C18 1.365 . S
C15 N20 1.328 . S
C15 H21 0.929 . S
C16 C17 1.362 . S
C16 C19 1.378 . S
C16 H31 0.929 . S
C17 C16 1.362 . S
C17 C18 1.366 . S
C18 C15 1.365 . S
C18 C17 1.366 . S
C18 H32 0.930 . S
C19 C16 1.378 . S
C19 N20 1.315 . S
C19 H22 0.930 . S
N20 Co0 2.194 . S
N20 C15 1.328 . S
N20 C19 1.315 . S
H21 C15 0.929 . S
H22 C19 0.930 . S
H23 C11 0.929 . S
H24 C13 0.929 . S
O25 Co0 2.351 . S
O25 C28 1.244 . S
O26 Co0 2.155 . S
O26 C28 1.240 . S
O27 Co0 2.096 . S
O27 C8 1.247 . S
C28 O25 1.244 . S
C28 O26 1.240 . S
H29 C3 0.931 . S
H30 C12 0.931 . S
H31 C16 0.929 . S
H32 C18 0.930 . S
Co33 N37 2.117 1_554 S
Co33 N43 2.128 . S
Co33 N53 2.194 . S
Co33 O58 2.351 . S
Co33 O59 2.155 . S
Co33 O60 2.096 . S
C34 N37 1.297 1_554 S
C34 N38 1.328 1_554 S
C34 H39 0.930 . S
C35 C36 1.333 . S
C35 N37 1.361 . S
C35 H40 0.930 . S
C36 C35 1.333 . S
C36 N38 1.350 . S
C36 H62 0.931 . S
N37 Co33 2.117 1_556 S
N37 C34 1.297 1_556 S
N37 C35 1.361 . S
N38 C34 1.328 1_556 S
N38 C36 1.350 . S
H39 C34 0.930 . S
H40 C35 0.930 . S
C41 O42 1.224 . S
C41 O60 1.247 1_556 S
O42 C41 1.224 . S
N43 Co33 2.128 . S
N43 C44 1.355 . S
N43 C46 1.311 . S
C44 N43 1.355 . S
C44 C45 1.363 . S
C44 H56 0.929 . S
C45 C44 1.363 . S
C45 N47 1.375 . S
C45 H63 0.931 . S
C46 N43 1.311 . S
C46 N47 1.347 . S
C46 H57 0.929 . S
N47 C45 1.375 . S
N47 C46 1.347 . S
C48 C51 1.365 . S
C48 N53 1.328 . S
C48 H54 0.929 . S
C49 C50 1.362 . S
C49 C52 1.378 . S
C49 H64 0.929 . S
C50 C49 1.362 . S
C50 C51 1.366 . S
C51 C48 1.365 . S
C51 C50 1.366 . S
C51 H65 0.930 . S
C52 C49 1.378 . S
C52 N53 1.315 . S
C52 H55 0.930 . S
N53 Co33 2.194 . S
N53 C48 1.328 . S
N53 C52 1.315 . S
H54 C48 0.929 . S
H55 C52 0.930 . S
H56 C44 0.929 . S
H57 C46 0.929 . S
O58 Co33 2.351 . S
O58 C61 1.244 . S
O59 Co33 2.155 . S
O59 C61 1.240 . S
O60 Co33 2.096 . S
O60 C41 1.247 1_554 S
C61 O58 1.244 . S
C61 O59 1.240 . S
H62 C36 0.931 . S
H63 C45 0.931 . S
H64 C49 0.929 . S
H65 C51 0.930 . S
Co66 N70 2.148 . S
Co66 N76 2.128 . S
Co66 N86 2.194 . S
Co66 O91 2.351 . S
Co66 O92 2.155 . S
Co66 O93 2.096 . S
C67 N70 1.301 . S
C67 N71 1.328 . S
C67 H72 0.930 . S
C68 C69 1.333 . S
C68 N70 1.317 . S
C68 H73 0.930 . S
C69 C68 1.333 . S
C69 N71 1.350 . S
C69 H95 0.931 . S
N70 Co66 2.148 . S
N70 C67 1.301 . S
N70 C68 1.317 . S
N71 C67 1.328 . S
N71 C69 1.350 . S
H72 C67 0.930 . S
H73 C68 0.930 . S
C74 O75 1.224 . S
C74 O93 1.247 . S
O75 C74 1.224 . S
N76 Co66 2.128 . S
N76 C77 1.355 . S
N76 C79 1.311 . S
C77 N76 1.355 . S
C77 C78 1.363 . S
C77 H89 0.929 . S
C78 C77 1.363 . S
C78 N80 1.375 . S
C78 H96 0.931 . S
C79 N76 1.311 . S
C79 N80 1.347 . S
C79 H90 0.929 . S
N80 C78 1.375 . S
N80 C79 1.347 . S
C81 C84 1.365 . S
C81 N86 1.328 . S
C81 H87 0.929 . S
C82 C83 1.362 . S
C82 C85 1.378 . S
C82 H97 0.929 . S
C83 C82 1.362 . S
C83 C84 1.366 . S
C84 C81 1.365 . S
C84 C83 1.366 . S
C84 H98 0.930 . S
C85 C82 1.378 . S
C85 N86 1.315 . S
C85 H88 0.930 . S
N86 Co66 2.194 . S
N86 C81 1.328 . S
N86 C85 1.315 . S
H87 C81 0.929 . S
H88 C85 0.930 . S
H89 C77 0.929 . S
H90 C79 0.929 . S
O91 Co66 2.351 . S
O91 C94 1.244 . S
O92 Co66 2.155 . S
O92 C94 1.240 . S
O93 Co66 2.096 . S
O93 C74 1.247 . S
C94 O91 1.244 . S
C94 O92 1.240 . S
H95 C69 0.931 . S
H96 C78 0.931 . S
H97 C82 0.929 . S
H98 C84 0.930 . S
Co99 N103 2.117 1_554 S
Co99 N109 2.128 . S
Co99 N119 2.194 . S
Co99 O124 2.351 . S
Co99 O125 2.155 . S
Co99 O126 2.096 . S
C100 N103 1.297 1_554 S
C100 N104 1.328 1_554 S
C100 H105 0.930 . S
C101 C102 1.333 . S
C101 N103 1.361 . S
C101 H106 0.930 . S
C102 C101 1.333 . S
C102 N104 1.350 . S
C102 H128 0.931 . S
N103 Co99 2.117 1_556 S
N103 C100 1.297 1_556 S
N103 C101 1.361 . S
N104 C100 1.328 1_556 S
N104 C102 1.350 . S
H105 C100 0.930 . S
H106 C101 0.930 . S
C107 O108 1.224 . S
C107 O126 1.247 1_556 S
O108 C107 1.224 . S
N109 Co99 2.128 . S
N109 C110 1.355 . S
N109 C112 1.311 . S
C110 N109 1.355 . S
C110 C111 1.363 . S
C110 H122 0.929 . S
C111 C110 1.363 . S
C111 N113 1.375 . S
C111 H129 0.931 . S
C112 N109 1.311 . S
C112 N113 1.347 . S
C112 H123 0.929 . S
N113 C111 1.375 . S
N113 C112 1.347 . S
C114 C117 1.365 . S
C114 N119 1.328 . S
C114 H120 0.929 . S
C115 C116 1.362 . S
C115 C118 1.378 . S
C115 H130 0.929 . S
C116 C115 1.362 . S
C116 C117 1.366 . S
C117 C114 1.365 . S
C117 C116 1.366 . S
C117 H131 0.930 . S
C118 C115 1.378 . S
C118 N119 1.315 . S
C118 H121 0.930 . S
N119 Co99 2.194 . S
N119 C114 1.328 . S
N119 C118 1.315 . S
H120 C114 0.929 . S
H121 C118 0.930 . S
H122 C110 0.929 . S
H123 C112 0.929 . S
O124 Co99 2.351 . S
O124 C127 1.244 . S
O125 Co99 2.155 . S
O125 C127 1.240 . S
O126 Co99 2.096 . S
O126 C107 1.247 1_554 S
C127 O124 1.244 . S
C127 O125 1.240 . S
H128 C102 0.931 . S
H129 C111 0.931 . S
H130 C115 0.929 . S
H131 C117 0.930 . S
Co132 N136 2.148 . S
Co132 N142 2.128 . S
Co132 N152 2.194 . S
Co132 O157 2.351 . S
Co132 O158 2.155 . S
Co132 O159 2.096 . S
C133 N136 1.301 . S
C133 N137 1.328 . S
C133 H138 0.930 . S
C134 C135 1.333 . S
C134 N136 1.317 . S
C134 H139 0.930 . S
C135 C134 1.333 . S
C135 N137 1.350 . S
C135 H161 0.931 . S
N136 Co132 2.148 . S
N136 C133 1.301 . S
N136 C134 1.317 . S
N137 C133 1.328 . S
N137 C135 1.350 . S
H138 C133 0.930 . S
H139 C134 0.930 . S
C140 O141 1.224 . S
C140 O159 1.247 . S
O141 C140 1.224 . S
N142 Co132 2.128 . S
N142 C143 1.355 . S
N142 C145 1.311 . S
C143 N142 1.355 . S
C143 C144 1.363 . S
C143 H155 0.929 . S
C144 C143 1.363 . S
C144 N146 1.375 . S
C144 H162 0.931 . S
C145 N142 1.311 . S
C145 N146 1.347 . S
C145 H156 0.929 . S
N146 C144 1.375 . S
N146 C145 1.347 . S
C147 C150 1.365 . S
C147 N152 1.328 . S
C147 H153 0.929 . S
C148 C149 1.362 . S
C148 C151 1.378 . S
C148 H163 0.929 . S
C149 C148 1.362 . S
C149 C150 1.366 . S
C150 C147 1.365 . S
C150 C149 1.366 . S
C150 H164 0.930 . S
C151 C148 1.378 . S
C151 N152 1.315 . S
C151 H154 0.930 . S
N152 Co132 2.194 . S
N152 C147 1.328 . S
N152 C151 1.315 . S
H153 C147 0.929 . S
H154 C151 0.930 . S
H155 C143 0.929 . S
H156 C145 0.929 . S
O157 Co132 2.351 . S
O157 C160 1.244 . S
O158 Co132 2.155 . S
O158 C160 1.240 . S
O159 Co132 2.096 . S
O159 C140 1.247 . S
C160 O157 1.244 . S
C160 O158 1.240 . S
H161 C135 0.931 . S
H162 C144 0.931 . S
H163 C148 0.929 . S
H164 C150 0.930 . S
Co165 N169 2.117 1_556 S
Co165 N175 2.128 . S
Co165 N185 2.194 . S
Co165 O190 2.351 . S
Co165 O191 2.155 . S
Co165 O192 2.096 . S
C166 N169 1.297 1_556 S
C166 N170 1.328 1_556 S
C166 H171 0.930 . S
C167 C168 1.333 . S
C167 N169 1.361 . S
C167 H172 0.930 . S
C168 C167 1.333 . S
C168 N170 1.350 . S
C168 H194 0.931 . S
N169 Co165 2.117 1_554 S
N169 C166 1.297 1_554 S
N169 C167 1.361 . S
N170 C166 1.328 1_554 S
N170 C168 1.350 . S
H171 C166 0.930 . S
H172 C167 0.930 . S
C173 O174 1.224 . S
C173 O192 1.247 1_554 S
O174 C173 1.224 . S
N175 Co165 2.128 . S
N175 C176 1.355 . S
N175 C178 1.311 . S
C176 N175 1.355 . S
C176 C177 1.363 . S
C176 H188 0.929 . S
C177 C176 1.363 . S
C177 N179 1.375 . S
C177 H195 0.931 . S
C178 N175 1.311 . S
C178 N179 1.347 . S
C178 H189 0.929 . S
N179 C177 1.375 . S
N179 C178 1.347 . S
C180 C183 1.365 . S
C180 N185 1.328 . S
C180 H186 0.929 . S
C181 C182 1.362 . S
C181 C184 1.378 . S
C181 H196 0.929 . S
C182 C181 1.362 . S
C182 C183 1.366 . S
C183 C180 1.365 . S
C183 C182 1.366 . S
C183 H197 0.930 . S
C184 C181 1.378 . S
C184 N185 1.315 . S
C184 H187 0.930 . S
N185 Co165 2.194 . S
N185 C180 1.328 . S
N185 C184 1.315 . S
H186 C180 0.929 . S
H187 C184 0.930 . S
H188 C176 0.929 . S
H189 C178 0.929 . S
O190 Co165 2.351 . S
O190 C193 1.244 . S
O191 Co165 2.155 . S
O191 C193 1.240 . S
O192 Co165 2.096 . S
O192 C173 1.247 1_556 S
C193 O190 1.244 . S
C193 O191 1.240 . S
H194 C168 0.931 . S
H195 C177 0.931 . S
H196 C181 0.929 . S
H197 C183 0.930 . S
Co198 N202 2.148 . S
Co198 N208 2.128 . S
Co198 N218 2.194 . S
Co198 O223 2.351 . S
Co198 O224 2.155 . S
Co198 O225 2.096 . S
C199 N202 1.301 . S
C199 N203 1.328 . S
C199 H204 0.930 . S
C200 C201 1.333 . S
C200 N202 1.317 . S
C200 H205 0.930 . S
C201 C200 1.333 . S
C201 N203 1.350 . S
C201 H227 0.931 . S
N202 Co198 2.148 . S
N202 C199 1.301 . S
N202 C200 1.317 . S
N203 C199 1.328 . S
N203 C201 1.350 . S
H204 C199 0.930 . S
H205 C200 0.930 . S
C206 O207 1.224 . S
C206 O225 1.247 . S
O207 C206 1.224 . S
N208 Co198 2.128 . S
N208 C209 1.355 . S
N208 C211 1.311 . S
C209 N208 1.355 . S
C209 C210 1.363 . S
C209 H221 0.929 . S
C210 C209 1.363 . S
C210 N212 1.375 . S
C210 H228 0.931 . S
C211 N208 1.311 . S
C211 N212 1.347 . S
C211 H222 0.929 . S
N212 C210 1.375 . S
N212 C211 1.347 . S
C213 C216 1.365 . S
C213 N218 1.328 . S
C213 H219 0.929 . S
C214 C215 1.362 . S
C214 C217 1.378 . S
C214 H229 0.929 . S
C215 C214 1.362 . S
C215 C216 1.366 . S
C216 C213 1.365 . S
C216 C215 1.366 . S
C216 H230 0.930 . S
C217 C214 1.378 . S
C217 N218 1.315 . S
C217 H220 0.930 . S
N218 Co198 2.194 . S
N218 C213 1.328 . S
N218 C217 1.315 . S
H219 C213 0.929 . S
H220 C217 0.930 . S
H221 C209 0.929 . S
H222 C211 0.929 . S
O223 Co198 2.351 . S
O223 C226 1.244 . S
O224 Co198 2.155 . S
O224 C226 1.240 . S
O225 Co198 2.096 . S
O225 C206 1.247 . S
C226 O223 1.244 . S
C226 O224 1.240 . S
H227 C201 0.931 . S
H228 C210 0.931 . S
H229 C214 0.929 . S
H230 C216 0.930 . S
Co231 N235 2.117 1_556 S
Co231 N241 2.128 . S
Co231 N251 2.194 . S
Co231 O256 2.351 . S
Co231 O257 2.155 . S
Co231 O258 2.096 . S
C232 N235 1.297 1_556 S
C232 N236 1.328 1_556 S
C232 H237 0.930 . S
C233 C234 1.333 . S
C233 N235 1.361 . S
C233 H238 0.930 . S
C234 C233 1.333 . S
C234 N236 1.350 . S
C234 H260 0.931 . S
N235 Co231 2.117 1_554 S
N235 C232 1.297 1_554 S
N235 C233 1.361 . S
N236 C232 1.328 1_554 S
N236 C234 1.350 . S
H237 C232 0.930 . S
H238 C233 0.930 . S
C239 O240 1.224 . S
C239 O258 1.247 1_554 S
O240 C239 1.224 . S
N241 Co231 2.128 . S
N241 C242 1.355 . S
N241 C244 1.311 . S
C242 N241 1.355 . S
C242 C243 1.363 . S
C242 H254 0.929 . S
C243 C242 1.363 . S
C243 N245 1.375 . S
C243 H261 0.931 . S
C244 N241 1.311 . S
C244 N245 1.347 . S
C244 H255 0.929 . S
N245 C243 1.375 . S
N245 C244 1.347 . S
C246 C249 1.365 . S
C246 N251 1.328 . S
C246 H252 0.929 . S
C247 C248 1.362 . S
C247 C250 1.378 . S
C247 H262 0.929 . S
C248 C247 1.362 . S
C248 C249 1.366 . S
C249 C246 1.365 . S
C249 C248 1.366 . S
C249 H263 0.930 . S
C250 C247 1.378 . S
C250 N251 1.315 . S
C250 H253 0.930 . S
N251 Co231 2.194 . S
N251 C246 1.328 . S
N251 C250 1.315 . S
H252 C246 0.929 . S
H253 C250 0.930 . S
H254 C242 0.929 . S
H255 C244 0.929 . S
O256 Co231 2.351 . S
O256 C259 1.244 . S
O257 Co231 2.155 . S
O257 C259 1.240 . S
O258 Co231 2.096 . S
O258 C239 1.247 1_556 S
C259 O256 1.244 . S
C259 O257 1.240 . S
H260 C234 0.931 . S
H261 C243 0.931 . S
H262 C247 0.929 . S
H263 C249 0.930 . S
Co264 N268 2.148 . S
Co264 N274 2.128 . S
Co264 N284 2.194 . S
Co264 O289 2.351 . S
Co264 O290 2.155 . S
Co264 O291 2.096 . S
C265 N268 1.301 . S
C265 N269 1.328 . S
C265 H270 0.930 . S
C266 C267 1.333 . S
C266 N268 1.317 . S
C266 H271 0.930 . S
C267 C266 1.333 . S
C267 N269 1.350 . S
C267 H293 0.931 . S
N268 Co264 2.148 . S
N268 C265 1.301 . S
N268 C266 1.317 . S
N269 C265 1.328 . S
N269 C267 1.350 . S
H270 C265 0.930 . S
H271 C266 0.930 . S
C272 O273 1.224 . S
C272 O291 1.247 . S
O273 C272 1.224 . S
N274 Co264 2.128 . S
N274 C275 1.355 . S
N274 C277 1.311 . S
C275 N274 1.355 . S
C275 C276 1.363 . S
C275 H287 0.929 . S
C276 C275 1.363 . S
C276 N278 1.375 . S
C276 H294 0.931 . S
C277 N274 1.311 . S
C277 N278 1.347 . S
C277 H288 0.929 . S
N278 C276 1.375 . S
N278 C277 1.347 . S
C279 C282 1.365 . S
C279 N284 1.328 . S
C279 H285 0.929 . S
C280 C281 1.362 . S
C280 C283 1.378 . S
C280 H295 0.929 . S
C281 C280 1.362 . S
C281 C282 1.366 . S
C282 C279 1.365 . S
C282 C281 1.366 . S
C282 H296 0.930 . S
C283 C280 1.378 . S
C283 N284 1.315 . S
C283 H286 0.930 . S
N284 Co264 2.194 . S
N284 C279 1.328 . S
N284 C283 1.315 . S
H285 C279 0.929 . S
H286 C283 0.930 . S
H287 C275 0.929 . S
H288 C277 0.929 . S
O289 Co264 2.351 . S
O289 C292 1.244 . S
O290 Co264 2.155 . S
O290 C292 1.240 . S
O291 Co264 2.096 . S
O291 C272 1.247 . S
C292 O289 1.244 . S
C292 O290 1.240 . S
H293 C267 0.931 . S
H294 C276 0.931 . S
H295 C280 0.929 . S
H296 C282 0.930 . S
Co297 N301 2.148 . S
Co297 N307 2.128 . S
Co297 N317 2.194 . S
Co297 O322 2.351 . S
Co297 O323 2.155 . S
Co297 O324 2.096 . S
C298 N301 1.301 . S
C298 N302 1.328 . S
C298 H303 0.930 . S
C299 C300 1.333 . S
C299 N301 1.317 . S
C299 H304 0.930 . S
C300 C299 1.333 . S
C300 N302 1.350 . S
C300 H326 0.931 . S
N301 Co297 2.148 . S
N301 C298 1.301 . S
N301 C299 1.317 . S
N302 C298 1.328 . S
N302 C300 1.350 . S
H303 C298 0.930 . S
H304 C299 0.930 . S
C305 O306 1.224 . S
C305 O324 1.247 . S
O306 C305 1.224 . S
N307 Co297 2.128 . S
N307 C308 1.355 . S
N307 C310 1.311 . S
C308 N307 1.355 . S
C308 C309 1.363 . S
C308 H320 0.929 . S
C309 C308 1.363 . S
C309 N311 1.375 . S
C309 H327 0.931 . S
C310 N307 1.311 . S
C310 N311 1.347 . S
C310 H321 0.929 . S
N311 C309 1.375 . S
N311 C310 1.347 . S
C312 C315 1.365 . S
C312 N317 1.328 . S
C312 H318 0.929 . S
C313 C314 1.362 . S
C313 C316 1.378 . S
C313 H328 0.929 . S
C314 C313 1.362 . S
C314 C315 1.366 . S
C315 C312 1.365 . S
C315 C314 1.366 . S
C315 H329 0.930 . S
C316 C313 1.378 . S
C316 N317 1.315 . S
C316 H319 0.930 . S
N317 Co297 2.194 . S
N317 C312 1.328 . S
N317 C316 1.315 . S
H318 C312 0.929 . S
H319 C316 0.930 . S
H320 C308 0.929 . S
H321 C310 0.929 . S
O322 Co297 2.351 . S
O322 C325 1.244 . S
O323 Co297 2.155 . S
O323 C325 1.240 . S
O324 Co297 2.096 . S
O324 C305 1.247 . S
C325 O322 1.244 . S
C325 O323 1.240 . S
H326 C300 0.931 . S
H327 C309 0.931 . S
H328 C313 0.929 . S
H329 C315 0.930 . S
Co330 N334 2.148 . S
Co330 N340 2.128 . S
Co330 N350 2.194 . S
Co330 O355 2.351 . S
Co330 O356 2.155 . S
Co330 O357 2.096 . S
C331 N334 1.301 . S
C331 N335 1.328 . S
C331 H336 0.930 . S
C332 C333 1.333 . S
C332 N334 1.317 . S
C332 H337 0.930 . S
C333 C332 1.333 . S
C333 N335 1.350 . S
C333 H359 0.931 . S
N334 Co330 2.148 . S
N334 C331 1.301 . S
N334 C332 1.317 . S
N335 C331 1.328 . S
N335 C333 1.350 . S
H336 C331 0.930 . S
H337 C332 0.930 . S
C338 O339 1.224 . S
C338 O357 1.247 . S
O339 C338 1.224 . S
N340 Co330 2.128 . S
N340 C341 1.355 . S
N340 C343 1.311 . S
C341 N340 1.355 . S
C341 C342 1.363 . S
C341 H353 0.929 . S
C342 C341 1.363 . S
C342 N344 1.375 . S
C342 H360 0.931 . S
C343 N340 1.311 . S
C343 N344 1.347 . S
C343 H354 0.929 . S
N344 C342 1.375 . S
N344 C343 1.347 . S
C345 C348 1.365 . S
C345 N350 1.328 . S
C345 H351 0.929 . S
C346 C347 1.362 . S
C346 C349 1.378 . S
C346 H361 0.929 . S
C347 C346 1.362 . S
C347 C348 1.366 . S
C348 C345 1.365 . S
C348 C347 1.366 . S
C348 H362 0.930 . S
C349 C346 1.378 . S
C349 N350 1.315 . S
C349 H352 0.930 . S
N350 Co330 2.194 . S
N350 C345 1.328 . S
N350 C349 1.315 . S
H351 C345 0.929 . S
H352 C349 0.930 . S
H353 C341 0.929 . S
H354 C343 0.929 . S
O355 Co330 2.351 . S
O355 C358 1.244 . S
O356 Co330 2.155 . S
O356 C358 1.240 . S
O357 Co330 2.096 . S
O357 C338 1.247 . S
C358 O355 1.244 . S
C358 O356 1.240 . S
H359 C333 0.931 . S
H360 C342 0.931 . S
H361 C346 0.929 . S
H362 C348 0.930 . S
Co363 N367 2.117 1_565 S
Co363 N373 2.128 . S
Co363 N383 2.194 . S
Co363 O388 2.351 . S
Co363 O389 2.155 . S
Co363 O390 2.096 . S
C364 N367 1.297 1_565 S
C364 N368 1.328 1_565 S
C364 H369 0.930 . S
C365 C366 1.333 . S
C365 N367 1.361 . S
C365 H370 0.930 . S
C366 C365 1.333 . S
C366 N368 1.350 . S
C366 H392 0.931 . S
N367 Co363 2.117 1_545 S
N367 C364 1.297 1_545 S
N367 C365 1.361 . S
N368 C364 1.328 1_545 S
N368 C366 1.350 . S
H369 C364 0.930 . S
H370 C365 0.930 . S
C371 O372 1.224 . S
C371 O390 1.247 1_545 S
O372 C371 1.224 . S
N373 Co363 2.128 . S
N373 C374 1.355 . S
N373 C376 1.311 . S
C374 N373 1.355 . S
C374 C375 1.363 . S
C374 H386 0.929 . S
C375 C374 1.363 . S
C375 N377 1.375 . S
C375 H393 0.931 . S
C376 N373 1.311 . S
C376 N377 1.347 . S
C376 H387 0.929 . S
N377 C375 1.375 . S
N377 C376 1.347 . S
C378 C381 1.365 . S
C378 N383 1.328 . S
C378 H384 0.929 . S
C379 C380 1.362 . S
C379 C382 1.378 . S
C379 H394 0.929 . S
C380 C379 1.362 . S
C380 C381 1.366 . S
C381 C378 1.365 . S
C381 C380 1.366 . S
C381 H395 0.930 . S
C382 C379 1.378 . S
C382 N383 1.315 . S
C382 H385 0.930 . S
N383 Co363 2.194 . S
N383 C378 1.328 . S
N383 C382 1.315 . S
H384 C378 0.929 . S
H385 C382 0.930 . S
H386 C374 0.929 . S
H387 C376 0.929 . S
O388 Co363 2.351 . S
O388 C391 1.244 . S
O389 Co363 2.155 . S
O389 C391 1.240 . S
O390 Co363 2.096 . S
O390 C371 1.247 1_565 S
C391 O388 1.244 . S
C391 O389 1.240 . S
H392 C366 0.931 . S
H393 C375 0.931 . S
H394 C379 0.929 . S
H395 C381 0.930 . S
Co396 N400 2.148 . S
Co396 N406 2.128 . S
Co396 N416 2.194 . S
Co396 O421 2.351 . S
Co396 O422 2.155 . S
Co396 O423 2.096 . S
C397 N400 1.301 . S
C397 N401 1.328 . S
C397 H402 0.930 . S
C398 C399 1.333 . S
C398 N400 1.317 . S
C398 H403 0.930 . S
C399 C398 1.333 . S
C399 N401 1.350 . S
C399 H425 0.931 . S
N400 Co396 2.148 . S
N400 C397 1.301 . S
N400 C398 1.317 . S
N401 C397 1.328 . S
N401 C399 1.350 . S
H402 C397 0.930 . S
H403 C398 0.930 . S
C404 O405 1.224 . S
C404 O423 1.247 . S
O405 C404 1.224 . S
N406 Co396 2.128 . S
N406 C407 1.355 . S
N406 C409 1.311 . S
C407 N406 1.355 . S
C407 C408 1.363 . S
C407 H419 0.929 . S
C408 C407 1.363 . S
C408 N410 1.375 . S
C408 H426 0.931 . S
C409 N406 1.311 . S
C409 N410 1.347 . S
C409 H420 0.929 . S
N410 C408 1.375 . S
N410 C409 1.347 . S
C411 C414 1.365 . S
C411 N416 1.328 . S
C411 H417 0.929 . S
C412 C413 1.362 . S
C412 C415 1.378 . S
C412 H427 0.929 . S
C413 C412 1.362 . S
C413 C414 1.366 . S
C414 C411 1.365 . S
C414 C413 1.366 . S
C414 H428 0.930 . S
C415 C412 1.378 . S
C415 N416 1.315 . S
C415 H418 0.930 . S
N416 Co396 2.194 . S
N416 C411 1.328 . S
N416 C415 1.315 . S
H417 C411 0.929 . S
H418 C415 0.930 . S
H419 C407 0.929 . S
H420 C409 0.929 . S
O421 Co396 2.351 . S
O421 C424 1.244 . S
O422 Co396 2.155 . S
O422 C424 1.240 . S
O423 Co396 2.096 . S
O423 C404 1.247 . S
C424 O421 1.244 . S
C424 O422 1.240 . S
H425 C399 0.931 . S
H426 C408 0.931 . S
H427 C412 0.929 . S
H428 C414 0.930 . S
Co429 N433 2.148 . S
Co429 N439 2.128 . S
Co429 N449 2.194 . S
Co429 O454 2.351 . S
Co429 O455 2.155 . S
Co429 O456 2.096 . S
C430 N433 1.301 . S
C430 N434 1.328 . S
C430 H435 0.930 . S
C431 C432 1.333 . S
C431 N433 1.317 . S
C431 H436 0.930 . S
C432 C431 1.333 . S
C432 N434 1.350 . S
C432 H458 0.931 . S
N433 Co429 2.148 . S
N433 C430 1.301 . S
N433 C431 1.317 . S
N434 C430 1.328 . S
N434 C432 1.350 . S
H435 C430 0.930 . S
H436 C431 0.930 . S
C437 O438 1.224 . S
C437 O456 1.247 . S
O438 C437 1.224 . S
N439 Co429 2.128 . S
N439 C440 1.355 . S
N439 C442 1.311 . S
C440 N439 1.355 . S
C440 C441 1.363 . S
C440 H452 0.929 . S
C441 C440 1.363 . S
C441 N443 1.375 . S
C441 H459 0.931 . S
C442 N439 1.311 . S
C442 N443 1.347 . S
C442 H453 0.929 . S
N443 C441 1.375 . S
N443 C442 1.347 . S
C444 C447 1.365 . S
C444 N449 1.328 . S
C444 H450 0.929 . S
C445 C446 1.362 . S
C445 C448 1.378 . S
C445 H460 0.929 . S
C446 C445 1.362 . S
C446 C447 1.366 . S
C447 C444 1.365 . S
C447 C446 1.366 . S
C447 H461 0.930 . S
C448 C445 1.378 . S
C448 N449 1.315 . S
C448 H451 0.930 . S
N449 Co429 2.194 . S
N449 C444 1.328 . S
N449 C448 1.315 . S
H450 C444 0.929 . S
H451 C448 0.930 . S
H452 C440 0.929 . S
H453 C442 0.929 . S
O454 Co429 2.351 . S
O454 C457 1.244 . S
O455 Co429 2.155 . S
O455 C457 1.240 . S
O456 Co429 2.096 . S
O456 C437 1.247 . S
C457 O454 1.244 . S
C457 O455 1.240 . S
H458 C432 0.931 . S
H459 C441 0.931 . S
H460 C445 0.929 . S
H461 C447 0.930 . S
Co462 N466 2.148 . S
Co462 N472 2.128 . S
Co462 N482 2.194 . S
Co462 O487 2.351 . S
Co462 O488 2.155 . S
Co462 O489 2.096 . S
C463 N466 1.301 . S
C463 N467 1.328 . S
C463 H468 0.930 . S
C464 C465 1.333 . S
C464 N466 1.317 . S
C464 H469 0.930 . S
C465 C464 1.333 . S
C465 N467 1.350 . S
C465 H491 0.931 . S
N466 Co462 2.148 . S
N466 C463 1.301 . S
N466 C464 1.317 . S
N467 C463 1.328 . S
N467 C465 1.350 . S
H468 C463 0.930 . S
H469 C464 0.930 . S
C470 O471 1.224 . S
C470 O489 1.247 . S
O471 C470 1.224 . S
N472 Co462 2.128 . S
N472 C473 1.355 . S
N472 C475 1.311 . S
C473 N472 1.355 . S
C473 C474 1.363 . S
C473 H485 0.929 . S
C474 C473 1.363 . S
C474 N476 1.375 . S
C474 H492 0.931 . S
C475 N472 1.311 . S
C475 N476 1.347 . S
C475 H486 0.929 . S
N476 C474 1.375 . S
N476 C475 1.347 . S
C477 C480 1.365 . S
C477 N482 1.328 . S
C477 H483 0.929 . S
C478 C479 1.362 . S
C478 C481 1.378 . S
C478 H493 0.929 . S
C479 C478 1.362 . S
C479 C480 1.366 . S
C480 C477 1.365 . S
C480 C479 1.366 . S
C480 H494 0.930 . S
C481 C478 1.378 . S
C481 N482 1.315 . S
C481 H484 0.930 . S
N482 Co462 2.194 . S
N482 C477 1.328 . S
N482 C481 1.315 . S
H483 C477 0.929 . S
H484 C481 0.930 . S
H485 C473 0.929 . S
H486 C475 0.929 . S
O487 Co462 2.351 . S
O487 C490 1.244 . S
O488 Co462 2.155 . S
O488 C490 1.240 . S
O489 Co462 2.096 . S
O489 C470 1.247 . S
C490 O487 1.244 . S
C490 O488 1.240 . S
H491 C465 0.931 . S
H492 C474 0.931 . S
H493 C478 0.929 . S
H494 C480 0.930 . S
Co495 N499 2.117 1_565 S
Co495 N505 2.128 . S
Co495 N515 2.194 . S
Co495 O520 2.351 . S
Co495 O521 2.155 . S
Co495 O522 2.096 . S
C496 N499 1.297 1_565 S
C496 N500 1.328 1_565 S
C496 H501 0.930 . S
C497 C498 1.333 . S
C497 N499 1.361 . S
C497 H502 0.930 . S
C498 C497 1.333 . S
C498 N500 1.350 . S
C498 H524 0.931 . S
N499 Co495 2.117 1_545 S
N499 C496 1.297 1_545 S
N499 C497 1.361 . S
N500 C496 1.328 1_545 S
N500 C498 1.350 . S
H501 C496 0.930 . S
H502 C497 0.930 . S
C503 O504 1.224 . S
C503 O522 1.247 1_545 S
O504 C503 1.224 . S
N505 Co495 2.128 . S
N505 C506 1.355 . S
N505 C508 1.311 . S
C506 N505 1.355 . S
C506 C507 1.363 . S
C506 H518 0.929 . S
C507 C506 1.363 . S
C507 N509 1.375 . S
C507 H525 0.931 . S
C508 N505 1.311 . S
C508 N509 1.347 . S
C508 H519 0.929 . S
N509 C507 1.375 . S
N509 C508 1.347 . S
C510 C513 1.365 . S
C510 N515 1.328 . S
C510 H516 0.929 . S
C511 C512 1.362 . S
C511 C514 1.378 . S
C511 H526 0.929 . S
C512 C511 1.362 . S
C512 C513 1.366 . S
C513 C510 1.365 . S
C513 C512 1.366 . S
C513 H527 0.930 . S
C514 C511 1.378 . S
C514 N515 1.315 . S
C514 H517 0.930 . S
N515 Co495 2.194 . S
N515 C510 1.328 . S
N515 C514 1.315 . S
H516 C510 0.929 . S
H517 C514 0.930 . S
H518 C506 0.929 . S
H519 C508 0.929 . S
O520 Co495 2.351 . S
O520 C523 1.244 . S
O521 Co495 2.155 . S
O521 C523 1.240 . S
O522 Co495 2.096 . S
O522 C503 1.247 1_565 S
C523 O520 1.244 . S
C523 O521 1.240 . S
H524 C498 0.931 . S
H525 C507 0.931 . S
H526 C511 0.929 . S
H527 C513 0.930 . S
Co528 N532 2.148 . S
Co528 N538 2.128 . S
Co528 N548 2.194 . S
Co528 O553 2.351 . S
Co528 O554 2.155 . S
Co528 O555 2.096 . S
C529 N532 1.301 . S
C529 N533 1.328 . S
C529 H534 0.930 . S
C530 C531 1.333 . S
C530 N532 1.317 . S
C530 H535 0.930 . S
C531 C530 1.333 . S
C531 N533 1.350 . S
C531 H557 0.931 . S
N532 Co528 2.148 . S
N532 C529 1.301 . S
N532 C530 1.317 . S
N533 C529 1.328 . S
N533 C531 1.350 . S
H534 C529 0.930 . S
H535 C530 0.930 . S
C536 O537 1.224 . S
C536 O555 1.247 . S
O537 C536 1.224 . S
N538 Co528 2.128 . S
N538 C539 1.355 . S
N538 C541 1.311 . S
C539 N538 1.355 . S
C539 C540 1.363 . S
C539 H551 0.929 . S
C540 C539 1.363 . S
C540 N542 1.375 . S
C540 H558 0.931 . S
C541 N538 1.311 . S
C541 N542 1.347 . S
C541 H552 0.929 . S
N542 C540 1.375 . S
N542 C541 1.347 . S
C543 C546 1.365 . S
C543 N548 1.328 . S
C543 H549 0.929 . S
C544 C545 1.362 . S
C544 C547 1.378 . S
C544 H559 0.929 . S
C545 C544 1.362 . S
C545 C546 1.366 . S
C546 C543 1.365 . S
C546 C545 1.366 . S
C546 H560 0.930 . S
C547 C544 1.378 . S
C547 N548 1.315 . S
C547 H550 0.930 . S
N548 Co528 2.194 . S
N548 C543 1.328 . S
N548 C547 1.315 . S
H549 C543 0.929 . S
H550 C547 0.930 . S
H551 C539 0.929 . S
H552 C541 0.929 . S
O553 Co528 2.351 . S
O553 C556 1.244 . S
O554 Co528 2.155 . S
O554 C556 1.240 . S
O555 Co528 2.096 . S
O555 C536 1.247 . S
C556 O553 1.244 . S
C556 O554 1.240 . S
H557 C531 0.931 . S
H558 C540 0.931 . S
H559 C544 0.929 . S
H560 C546 0.930 . S
Co561 N565 2.148 . S
Co561 N571 2.128 . S
Co561 N581 2.194 . S
Co561 O586 2.351 . S
Co561 O587 2.155 . S
Co561 O588 2.096 . S
C562 N565 1.301 . S
C562 N566 1.328 . S
C562 H567 0.930 . S
C563 C564 1.333 . S
C563 N565 1.317 . S
C563 H568 0.930 . S
C564 C563 1.333 . S
C564 N566 1.350 . S
C564 H590 0.931 . S
N565 Co561 2.148 . S
N565 C562 1.301 . S
N565 C563 1.317 . S
N566 C562 1.328 . S
N566 C564 1.350 . S
H567 C562 0.930 . S
H568 C563 0.930 . S
C569 O570 1.224 . S
C569 O588 1.247 . S
O570 C569 1.224 . S
N571 Co561 2.128 . S
N571 C572 1.355 . S
N571 C574 1.311 . S
C572 N571 1.355 . S
C572 C573 1.363 . S
C572 H584 0.929 . S
C573 C572 1.363 . S
C573 N575 1.375 . S
C573 H591 0.931 . S
C574 N571 1.311 . S
C574 N575 1.347 . S
C574 H585 0.929 . S
N575 C573 1.375 . S
N575 C574 1.347 . S
C576 C579 1.365 . S
C576 N581 1.328 . S
C576 H582 0.929 . S
C577 C578 1.362 . S
C577 C580 1.378 . S
C577 H592 0.929 . S
C578 C577 1.362 . S
C578 C579 1.366 . S
C579 C576 1.365 . S
C579 C578 1.366 . S
C579 H593 0.930 . S
C580 C577 1.378 . S
C580 N581 1.315 . S
C580 H583 0.930 . S
N581 Co561 2.194 . S
N581 C576 1.328 . S
N581 C580 1.315 . S
H582 C576 0.929 . S
H583 C580 0.930 . S
H584 C572 0.929 . S
H585 C574 0.929 . S
O586 Co561 2.351 . S
O586 C589 1.244 . S
O587 Co561 2.155 . S
O587 C589 1.240 . S
O588 Co561 2.096 . S
O588 C569 1.247 . S
C589 O586 1.244 . S
C589 O587 1.240 . S
H590 C564 0.931 . S
H591 C573 0.931 . S
H592 C577 0.929 . S
H593 C579 0.930 . S
Co594 N598 2.117 1_455 S
Co594 N604 2.128 . S
Co594 N614 2.194 . S
Co594 O619 2.351 . S
Co594 O620 2.155 . S
Co594 O621 2.096 . S
C595 N598 1.297 1_455 S
C595 N599 1.328 1_455 S
C595 H600 0.930 . S
C596 C597 1.333 . S
C596 N598 1.361 . S
C596 H601 0.930 . S
C597 C596 1.333 . S
C597 N599 1.350 . S
C597 H623 0.931 . S
N598 Co594 2.117 1_655 S
N598 C595 1.297 1_655 S
N598 C596 1.361 . S
N599 C595 1.328 1_655 S
N599 C597 1.350 . S
H600 C595 0.930 . S
H601 C596 0.930 . S
C602 O603 1.224 . S
C602 O621 1.247 1_655 S
O603 C602 1.224 . S
N604 Co594 2.128 . S
N604 C605 1.355 . S
N604 C607 1.311 . S
C605 N604 1.355 . S
C605 C606 1.363 . S
C605 H617 0.929 . S
C606 C605 1.363 . S
C606 N608 1.375 . S
C606 H624 0.931 . S
C607 N604 1.311 . S
C607 N608 1.347 . S
C607 H618 0.929 . S
N608 C606 1.375 . S
N608 C607 1.347 . S
C609 C612 1.365 . S
C609 N614 1.328 . S
C609 H615 0.929 . S
C610 C611 1.362 . S
C610 C613 1.378 . S
C610 H625 0.929 . S
C611 C610 1.362 . S
C611 C612 1.366 . S
C612 C609 1.365 . S
C612 C611 1.366 . S
C612 H626 0.930 . S
C613 C610 1.378 . S
C613 N614 1.315 . S
C613 H616 0.930 . S
N614 Co594 2.194 . S
N614 C609 1.328 . S
N614 C613 1.315 . S
H615 C609 0.929 . S
H616 C613 0.930 . S
H617 C605 0.929 . S
H618 C607 0.929 . S
O619 Co594 2.351 . S
O619 C622 1.244 . S
O620 Co594 2.155 . S
O620 C622 1.240 . S
O621 Co594 2.096 . S
O621 C602 1.247 1_455 S
C622 O619 1.244 . S
C622 O620 1.240 . S
H623 C597 0.931 . S
H624 C606 0.931 . S
H625 C610 0.929 . S
H626 C612 0.930 . S
Co627 N631 2.148 . S
Co627 N637 2.128 . S
Co627 N647 2.194 . S
Co627 O652 2.351 . S
Co627 O653 2.155 . S
Co627 O654 2.096 . S
C628 N631 1.301 . S
C628 N632 1.328 . S
C628 H633 0.930 . S
C629 C630 1.333 . S
C629 N631 1.317 . S
C629 H634 0.930 . S
C630 C629 1.333 . S
C630 N632 1.350 . S
C630 H656 0.931 . S
N631 Co627 2.148 . S
N631 C628 1.301 . S
N631 C629 1.317 . S
N632 C628 1.328 . S
N632 C630 1.350 . S
H633 C628 0.930 . S
H634 C629 0.930 . S
C635 O636 1.224 . S
C635 O654 1.247 . S
O636 C635 1.224 . S
N637 Co627 2.128 . S
N637 C638 1.355 . S
N637 C640 1.311 . S
C638 N637 1.355 . S
C638 C639 1.363 . S
C638 H650 0.929 . S
C639 C638 1.363 . S
C639 N641 1.375 . S
C639 H657 0.931 . S
C640 N637 1.311 . S
C640 N641 1.347 . S
C640 H651 0.929 . S
N641 C639 1.375 . S
N641 C640 1.347 . S
C642 C645 1.365 . S
C642 N647 1.328 . S
C642 H648 0.929 . S
C643 C644 1.362 . S
C643 C646 1.378 . S
C643 H658 0.929 . S
C644 C643 1.362 . S
C644 C645 1.366 . S
C645 C642 1.365 . S
C645 C644 1.366 . S
C645 H659 0.930 . S
C646 C643 1.378 . S
C646 N647 1.315 . S
C646 H649 0.930 . S
N647 Co627 2.194 . S
N647 C642 1.328 . S
N647 C646 1.315 . S
H648 C642 0.929 . S
H649 C646 0.930 . S
H650 C638 0.929 . S
H651 C640 0.929 . S
O652 Co627 2.351 . S
O652 C655 1.244 . S
O653 Co627 2.155 . S
O653 C655 1.240 . S
O654 Co627 2.096 . S
O654 C635 1.247 . S
C655 O652 1.244 . S
C655 O653 1.240 . S
H656 C630 0.931 . S
H657 C639 0.931 . S
H658 C643 0.929 . S
H659 C645 0.930 . S
Co660 N664 2.148 . S
Co660 N670 2.128 . S
Co660 N680 2.194 . S
Co660 O685 2.351 . S
Co660 O686 2.155 . S
Co660 O687 2.096 . S
C661 N664 1.301 . S
C661 N665 1.328 . S
C661 H666 0.930 . S
C662 C663 1.333 . S
C662 N664 1.317 . S
C662 H667 0.930 . S
C663 C662 1.333 . S
C663 N665 1.350 . S
C663 H689 0.931 . S
N664 Co660 2.148 . S
N664 C661 1.301 . S
N664 C662 1.317 . S
N665 C661 1.328 . S
N665 C663 1.350 . S
H666 C661 0.930 . S
H667 C662 0.930 . S
C668 O669 1.224 . S
C668 O687 1.247 . S
O669 C668 1.224 . S
N670 Co660 2.128 . S
N670 C671 1.355 . S
N670 C673 1.311 . S
C671 N670 1.355 . S
C671 C672 1.363 . S
C671 H683 0.929 . S
C672 C671 1.363 . S
C672 N674 1.375 . S
C672 H690 0.931 . S
C673 N670 1.311 . S
C673 N674 1.347 . S
C673 H684 0.929 . S
N674 C672 1.375 . S
N674 C673 1.347 . S
C675 C678 1.365 . S
C675 N680 1.328 . S
C675 H681 0.929 . S
C676 C677 1.362 . S
C676 C679 1.378 . S
C676 H691 0.929 . S
C677 C676 1.362 . S
C677 C678 1.366 . S
C678 C675 1.365 . S
C678 C677 1.366 . S
C678 H692 0.930 . S
C679 C676 1.378 . S
C679 N680 1.315 . S
C679 H682 0.930 . S
N680 Co660 2.194 . S
N680 C675 1.328 . S
N680 C679 1.315 . S
H681 C675 0.929 . S
H682 C679 0.930 . S
H683 C671 0.929 . S
H684 C673 0.929 . S
O685 Co660 2.351 . S
O685 C688 1.244 . S
O686 Co660 2.155 . S
O686 C688 1.240 . S
O687 Co660 2.096 . S
O687 C668 1.247 . S
C688 O685 1.244 . S
C688 O686 1.240 . S
H689 C663 0.931 . S
H690 C672 0.931 . S
H691 C676 0.929 . S
H692 C678 0.930 . S
Co693 N697 2.148 . S
Co693 N703 2.128 . S
Co693 N713 2.194 . S
Co693 O718 2.351 . S
Co693 O719 2.155 . S
Co693 O720 2.096 . S
C694 N697 1.301 . S
C694 N698 1.328 . S
C694 H699 0.930 . S
C695 C696 1.333 . S
C695 N697 1.317 . S
C695 H700 0.930 . S
C696 C695 1.333 . S
C696 N698 1.350 . S
C696 H722 0.931 . S
N697 Co693 2.148 . S
N697 C694 1.301 . S
N697 C695 1.317 . S
N698 C694 1.328 . S
N698 C696 1.350 . S
H699 C694 0.930 . S
H700 C695 0.930 . S
C701 O702 1.224 . S
C701 O720 1.247 . S
O702 C701 1.224 . S
N703 Co693 2.128 . S
N703 C704 1.355 . S
N703 C706 1.311 . S
C704 N703 1.355 . S
C704 C705 1.363 . S
C704 H716 0.929 . S
C705 C704 1.363 . S
C705 N707 1.375 . S
C705 H723 0.931 . S
C706 N703 1.311 . S
C706 N707 1.347 . S
C706 H717 0.929 . S
N707 C705 1.375 . S
N707 C706 1.347 . S
C708 C711 1.365 . S
C708 N713 1.328 . S
C708 H714 0.929 . S
C709 C710 1.362 . S
C709 C712 1.378 . S
C709 H724 0.929 . S
C710 C709 1.362 . S
C710 C711 1.366 . S
C711 C708 1.365 . S
C711 C710 1.366 . S
C711 H725 0.930 . S
C712 C709 1.378 . S
C712 N713 1.315 . S
C712 H715 0.930 . S
N713 Co693 2.194 . S
N713 C708 1.328 . S
N713 C712 1.315 . S
H714 C708 0.929 . S
H715 C712 0.930 . S
H716 C704 0.929 . S
H717 C706 0.929 . S
O718 Co693 2.351 . S
O718 C721 1.244 . S
O719 Co693 2.155 . S
O719 C721 1.240 . S
O720 Co693 2.096 . S
O720 C701 1.247 . S
C721 O718 1.244 . S
C721 O719 1.240 . S
H722 C696 0.931 . S
H723 C705 0.931 . S
H724 C709 0.929 . S
H725 C711 0.930 . S
Co726 N730 2.117 1_455 S
Co726 N736 2.128 . S
Co726 N746 2.194 . S
Co726 O751 2.351 . S
Co726 O752 2.155 . S
Co726 O753 2.096 . S
C727 N730 1.297 1_455 S
C727 N731 1.328 1_455 S
C727 H732 0.930 . S
C728 C729 1.333 . S
C728 N730 1.361 . S
C728 H733 0.930 . S
C729 C728 1.333 . S
C729 N731 1.350 . S
C729 H755 0.931 . S
N730 Co726 2.117 1_655 S
N730 C727 1.297 1_655 S
N730 C728 1.361 . S
N731 C727 1.328 1_655 S
N731 C729 1.350 . S
H732 C727 0.930 . S
H733 C728 0.930 . S
C734 O735 1.224 . S
C734 O753 1.247 1_655 S
O735 C734 1.224 . S
N736 Co726 2.128 . S
N736 C737 1.355 . S
N736 C739 1.311 . S
C737 N736 1.355 . S
C737 C738 1.363 . S
C737 H749 0.929 . S
C738 C737 1.363 . S
C738 N740 1.375 . S
C738 H756 0.931 . S
C739 N736 1.311 . S
C739 N740 1.347 . S
C739 H750 0.929 . S
N740 C738 1.375 . S
N740 C739 1.347 . S
C741 C744 1.365 . S
C741 N746 1.328 . S
C741 H747 0.929 . S
C742 C743 1.362 . S
C742 C745 1.378 . S
C742 H757 0.929 . S
C743 C742 1.362 . S
C743 C744 1.366 . S
C744 C741 1.365 . S
C744 C743 1.366 . S
C744 H758 0.930 . S
C745 C742 1.378 . S
C745 N746 1.315 . S
C745 H748 0.930 . S
N746 Co726 2.194 . S
N746 C741 1.328 . S
N746 C745 1.315 . S
H747 C741 0.929 . S
H748 C745 0.930 . S
H749 C737 0.929 . S
H750 C739 0.929 . S
O751 Co726 2.351 . S
O751 C754 1.244 . S
O752 Co726 2.155 . S
O752 C754 1.240 . S
O753 Co726 2.096 . S
O753 C734 1.247 1_455 S
C754 O751 1.244 . S
C754 O752 1.240 . S
H755 C729 0.931 . S
H756 C738 0.931 . S
H757 C742 0.929 . S
H758 C744 0.930 . S
Co759 N763 2.117 1_655 S
Co759 N769 2.128 . S
Co759 N779 2.194 . S
Co759 O784 2.351 . S
Co759 O785 2.155 . S
Co759 O786 2.096 . S
C760 N763 1.297 1_655 S
C760 N764 1.328 1_655 S
C760 H765 0.930 . S
C761 C762 1.333 . S
C761 N763 1.361 . S
C761 H766 0.930 . S
C762 C761 1.333 . S
C762 N764 1.350 . S
C762 H788 0.931 . S
N763 Co759 2.117 1_455 S
N763 C760 1.297 1_455 S
N763 C761 1.361 . S
N764 C760 1.328 1_455 S
N764 C762 1.350 . S
H765 C760 0.930 . S
H766 C761 0.930 . S
C767 O768 1.224 . S
C767 O786 1.247 1_455 S
O768 C767 1.224 . S
N769 Co759 2.128 . S
N769 C770 1.355 . S
N769 C772 1.311 . S
C770 N769 1.355 . S
C770 C771 1.363 . S
C770 H782 0.929 . S
C771 C770 1.363 . S
C771 N773 1.375 . S
C771 H789 0.931 . S
C772 N769 1.311 . S
C772 N773 1.347 . S
C772 H783 0.929 . S
N773 C771 1.375 . S
N773 C772 1.347 . S
C774 C777 1.365 . S
C774 N779 1.328 . S
C774 H780 0.929 . S
C775 C776 1.362 . S
C775 C778 1.378 . S
C775 H790 0.929 . S
C776 C775 1.362 . S
C776 C777 1.366 . S
C777 C774 1.365 . S
C777 C776 1.366 . S
C777 H791 0.930 . S
C778 C775 1.378 . S
C778 N779 1.315 . S
C778 H781 0.930 . S
N779 Co759 2.194 . S
N779 C774 1.328 . S
N779 C778 1.315 . S
H780 C774 0.929 . S
H781 C778 0.930 . S
H782 C770 0.929 . S
H783 C772 0.929 . S
O784 Co759 2.351 . S
O784 C787 1.244 . S
O785 Co759 2.155 . S
O785 C787 1.240 . S
O786 Co759 2.096 . S
O786 C767 1.247 1_655 S
C787 O784 1.244 . S
C787 O785 1.240 . S
H788 C762 0.931 . S
H789 C771 0.931 . S
H790 C775 0.929 . S
H791 C777 0.930 . S
Co792 N796 2.148 . S
Co792 N802 2.128 . S
Co792 N812 2.194 . S
Co792 O817 2.351 . S
Co792 O818 2.155 . S
Co792 O819 2.096 . S
C793 N796 1.301 . S
C793 N797 1.328 . S
C793 H798 0.930 . S
C794 C795 1.333 . S
C794 N796 1.317 . S
C794 H799 0.930 . S
C795 C794 1.333 . S
C795 N797 1.350 . S
C795 H821 0.931 . S
N796 Co792 2.148 . S
N796 C793 1.301 . S
N796 C794 1.317 . S
N797 C793 1.328 . S
N797 C795 1.350 . S
H798 C793 0.930 . S
H799 C794 0.930 . S
C800 O801 1.224 . S
C800 O819 1.247 . S
O801 C800 1.224 . S
N802 Co792 2.128 . S
N802 C803 1.355 . S
N802 C805 1.311 . S
C803 N802 1.355 . S
C803 C804 1.363 . S
C803 H815 0.929 . S
C804 C803 1.363 . S
C804 N806 1.375 . S
C804 H822 0.931 . S
C805 N802 1.311 . S
C805 N806 1.347 . S
C805 H816 0.929 . S
N806 C804 1.375 . S
N806 C805 1.347 . S
C807 C810 1.365 . S
C807 N812 1.328 . S
C807 H813 0.929 . S
C808 C809 1.362 . S
C808 C811 1.378 . S
C808 H823 0.929 . S
C809 C808 1.362 . S
C809 C810 1.366 . S
C810 C807 1.365 . S
C810 C809 1.366 . S
C810 H824 0.930 . S
C811 C808 1.378 . S
C811 N812 1.315 . S
C811 H814 0.930 . S
N812 Co792 2.194 . S
N812 C807 1.328 . S
N812 C811 1.315 . S
H813 C807 0.929 . S
H814 C811 0.930 . S
H815 C803 0.929 . S
H816 C805 0.929 . S
O817 Co792 2.351 . S
O817 C820 1.244 . S
O818 Co792 2.155 . S
O818 C820 1.240 . S
O819 Co792 2.096 . S
O819 C800 1.247 . S
C820 O817 1.244 . S
C820 O818 1.240 . S
H821 C795 0.931 . S
H822 C804 0.931 . S
H823 C808 0.929 . S
H824 C810 0.930 . S
Co825 N829 2.148 . S
Co825 N835 2.128 . S
Co825 N845 2.194 . S
Co825 O850 2.351 . S
Co825 O851 2.155 . S
Co825 O852 2.096 . S
C826 N829 1.301 . S
C826 N830 1.328 . S
C826 H831 0.930 . S
C827 C828 1.333 . S
C827 N829 1.317 . S
C827 H832 0.930 . S
C828 C827 1.333 . S
C828 N830 1.350 . S
C828 H854 0.931 . S
N829 Co825 2.148 . S
N829 C826 1.301 . S
N829 C827 1.317 . S
N830 C826 1.328 . S
N830 C828 1.350 . S
H831 C826 0.930 . S
H832 C827 0.930 . S
C833 O834 1.224 . S
C833 O852 1.247 . S
O834 C833 1.224 . S
N835 Co825 2.128 . S
N835 C836 1.355 . S
N835 C838 1.311 . S
C836 N835 1.355 . S
C836 C837 1.363 . S
C836 H848 0.929 . S
C837 C836 1.363 . S
C837 N839 1.375 . S
C837 H855 0.931 . S
C838 N835 1.311 . S
C838 N839 1.347 . S
C838 H849 0.929 . S
N839 C837 1.375 . S
N839 C838 1.347 . S
C840 C843 1.365 . S
C840 N845 1.328 . S
C840 H846 0.929 . S
C841 C842 1.362 . S
C841 C844 1.378 . S
C841 H856 0.929 . S
C842 C841 1.362 . S
C842 C843 1.366 . S
C843 C840 1.365 . S
C843 C842 1.366 . S
C843 H857 0.930 . S
C844 C841 1.378 . S
C844 N845 1.315 . S
C844 H847 0.930 . S
N845 Co825 2.194 . S
N845 C840 1.328 . S
N845 C844 1.315 . S
H846 C840 0.929 . S
H847 C844 0.930 . S
H848 C836 0.929 . S
H849 C838 0.929 . S
O850 Co825 2.351 . S
O850 C853 1.244 . S
O851 Co825 2.155 . S
O851 C853 1.240 . S
O852 Co825 2.096 . S
O852 C833 1.247 . S
C853 O850 1.244 . S
C853 O851 1.240 . S
H854 C828 0.931 . S
H855 C837 0.931 . S
H856 C841 0.929 . S
H857 C843 0.930 . S
Co858 N862 2.148 . S
Co858 N868 2.128 . S
Co858 N878 2.194 . S
Co858 O883 2.351 . S
Co858 O884 2.155 . S
Co858 O885 2.096 . S
C859 N862 1.301 . S
C859 N863 1.328 . S
C859 H864 0.930 . S
C860 C861 1.333 . S
C860 N862 1.317 . S
C860 H865 0.930 . S
C861 C860 1.333 . S
C861 N863 1.350 . S
C861 H887 0.931 . S
N862 Co858 2.148 . S
N862 C859 1.301 . S
N862 C860 1.317 . S
N863 C859 1.328 . S
N863 C861 1.350 . S
H864 C859 0.930 . S
H865 C860 0.930 . S
C866 O867 1.224 . S
C866 O885 1.247 . S
O867 C866 1.224 . S
N868 Co858 2.128 . S
N868 C869 1.355 . S
N868 C871 1.311 . S
C869 N868 1.355 . S
C869 C870 1.363 . S
C869 H881 0.929 . S
C870 C869 1.363 . S
C870 N872 1.375 . S
C870 H888 0.931 . S
C871 N868 1.311 . S
C871 N872 1.347 . S
C871 H882 0.929 . S
N872 C870 1.375 . S
N872 C871 1.347 . S
C873 C876 1.365 . S
C873 N878 1.328 . S
C873 H879 0.929 . S
C874 C875 1.362 . S
C874 C877 1.378 . S
C874 H889 0.929 . S
C875 C874 1.362 . S
C875 C876 1.366 . S
C876 C873 1.365 . S
C876 C875 1.366 . S
C876 H890 0.930 . S
C877 C874 1.378 . S
C877 N878 1.315 . S
C877 H880 0.930 . S
N878 Co858 2.194 . S
N878 C873 1.328 . S
N878 C877 1.315 . S
H879 C873 0.929 . S
H880 C877 0.930 . S
H881 C869 0.929 . S
H882 C871 0.929 . S
O883 Co858 2.351 . S
O883 C886 1.244 . S
O884 Co858 2.155 . S
O884 C886 1.240 . S
O885 Co858 2.096 . S
O885 C866 1.247 . S
C886 O883 1.244 . S
C886 O884 1.240 . S
H887 C861 0.931 . S
H888 C870 0.931 . S
H889 C874 0.929 . S
H890 C876 0.930 . S
Co891 N895 2.148 . S
Co891 N901 2.128 . S
Co891 N911 2.194 . S
Co891 O916 2.351 . S
Co891 O917 2.155 . S
Co891 O918 2.096 . S
C892 N895 1.301 . S
C892 N896 1.328 . S
C892 H897 0.930 . S
C893 C894 1.333 . S
C893 N895 1.317 . S
C893 H898 0.930 . S
C894 C893 1.333 . S
C894 N896 1.350 . S
C894 H920 0.931 . S
N895 Co891 2.148 . S
N895 C892 1.301 . S
N895 C893 1.317 . S
N896 C892 1.328 . S
N896 C894 1.350 . S
H897 C892 0.930 . S
H898 C893 0.930 . S
C899 O900 1.224 . S
C899 O918 1.247 . S
O900 C899 1.224 . S
N901 Co891 2.128 . S
N901 C902 1.355 . S
N901 C904 1.311 . S
C902 N901 1.355 . S
C902 C903 1.363 . S
C902 H914 0.929 . S
C903 C902 1.363 . S
C903 N905 1.375 . S
C903 H921 0.931 . S
C904 N901 1.311 . S
C904 N905 1.347 . S
C904 H915 0.929 . S
N905 C903 1.375 . S
N905 C904 1.347 . S
C906 C909 1.365 . S
C906 N911 1.328 . S
C906 H912 0.929 . S
C907 C908 1.362 . S
C907 C910 1.378 . S
C907 H922 0.929 . S
C908 C907 1.362 . S
C908 C909 1.366 . S
C909 C906 1.365 . S
C909 C908 1.366 . S
C909 H923 0.930 . S
C910 C907 1.378 . S
C910 N911 1.315 . S
C910 H913 0.930 . S
N911 Co891 2.194 . S
N911 C906 1.328 . S
N911 C910 1.315 . S
H912 C906 0.929 . S
H913 C910 0.930 . S
H914 C902 0.929 . S
H915 C904 0.929 . S
O916 Co891 2.351 . S
O916 C919 1.244 . S
O917 Co891 2.155 . S
O917 C919 1.240 . S
O918 Co891 2.096 . S
O918 C899 1.247 . S
C919 O916 1.244 . S
C919 O917 1.240 . S
H920 C894 0.931 . S
H921 C903 0.931 . S
H922 C907 0.929 . S
H923 C909 0.930 . S
Co924 N928 2.148 . S
Co924 N934 2.128 . S
Co924 N944 2.194 . S
Co924 O949 2.351 . S
Co924 O950 2.155 . S
Co924 O951 2.096 . S
C925 N928 1.301 . S
C925 N929 1.328 . S
C925 H930 0.930 . S
C926 C927 1.333 . S
C926 N928 1.317 . S
C926 H931 0.930 . S
C927 C926 1.333 . S
C927 N929 1.350 . S
C927 H953 0.931 . S
N928 Co924 2.148 . S
N928 C925 1.301 . S
N928 C926 1.317 . S
N929 C925 1.328 . S
N929 C927 1.350 . S
H930 C925 0.930 . S
H931 C926 0.930 . S
C932 O933 1.224 . S
C932 O951 1.247 . S
O933 C932 1.224 . S
N934 Co924 2.128 . S
N934 C935 1.355 . S
N934 C937 1.311 . S
C935 N934 1.355 . S
C935 C936 1.363 . S
C935 H947 0.929 . S
C936 C935 1.363 . S
C936 N938 1.375 . S
C936 H954 0.931 . S
C937 N934 1.311 . S
C937 N938 1.347 . S
C937 H948 0.929 . S
N938 C936 1.375 . S
N938 C937 1.347 . S
C939 C942 1.365 . S
C939 N944 1.328 . S
C939 H945 0.929 . S
C940 C941 1.362 . S
C940 C943 1.378 . S
C940 H955 0.929 . S
C941 C940 1.362 . S
C941 C942 1.366 . S
C942 C939 1.365 . S
C942 C941 1.366 . S
C942 H956 0.930 . S
C943 C940 1.378 . S
C943 N944 1.315 . S
C943 H946 0.930 . S
N944 Co924 2.194 . S
N944 C939 1.328 . S
N944 C943 1.315 . S
H945 C939 0.929 . S
H946 C943 0.930 . S
H947 C935 0.929 . S
H948 C937 0.929 . S
O949 Co924 2.351 . S
O949 C952 1.244 . S
O950 Co924 2.155 . S
O950 C952 1.240 . S
O951 Co924 2.096 . S
O951 C932 1.247 . S
C952 O949 1.244 . S
C952 O950 1.240 . S
H953 C927 0.931 . S
H954 C936 0.931 . S
H955 C940 0.929 . S
H956 C942 0.930 . S
Co957 N961 2.148 . S
Co957 N967 2.128 . S
Co957 N977 2.194 . S
Co957 O982 2.351 . S
Co957 O983 2.155 . S
Co957 O984 2.096 . S
C958 N961 1.301 . S
C958 N962 1.328 . S
C958 H963 0.930 . S
C959 C960 1.333 . S
C959 N961 1.317 . S
C959 H964 0.930 . S
C960 C959 1.333 . S
C960 N962 1.350 . S
C960 H986 0.931 . S
N961 Co957 2.148 . S
N961 C958 1.301 . S
N961 C959 1.317 . S
N962 C958 1.328 . S
N962 C960 1.350 . S
H963 C958 0.930 . S
H964 C959 0.930 . S
C965 O966 1.224 . S
C965 O984 1.247 . S
O966 C965 1.224 . S
N967 Co957 2.128 . S
N967 C968 1.355 . S
N967 C970 1.311 . S
C968 N967 1.355 . S
C968 C969 1.363 . S
C968 H980 0.929 . S
C969 C968 1.363 . S
C969 N971 1.375 . S
C969 H987 0.931 . S
C970 N967 1.311 . S
C970 N971 1.347 . S
C970 H981 0.929 . S
N971 C969 1.375 . S
N971 C970 1.347 . S
C972 C975 1.365 . S
C972 N977 1.328 . S
C972 H978 0.929 . S
C973 C974 1.362 . S
C973 C976 1.378 . S
C973 H988 0.929 . S
C974 C973 1.362 . S
C974 C975 1.366 . S
C975 C972 1.365 . S
C975 C974 1.366 . S
C975 H989 0.930 . S
C976 C973 1.378 . S
C976 N977 1.315 . S
C976 H979 0.930 . S
N977 Co957 2.194 . S
N977 C972 1.328 . S
N977 C976 1.315 . S
H978 C972 0.929 . S
H979 C976 0.930 . S
H980 C968 0.929 . S
H981 C970 0.929 . S
O982 Co957 2.351 . S
O982 C985 1.244 . S
O983 Co957 2.155 . S
O983 C985 1.240 . S
O984 Co957 2.096 . S
O984 C965 1.247 . S
C985 O982 1.244 . S
C985 O983 1.240 . S
H986 C960 0.931 . S
H987 C969 0.931 . S
H988 C973 0.929 . S
H989 C975 0.930 . S
Co990 N994 2.148 . S
Co990 N1000 2.128 . S
Co990 N1010 2.194 . S
Co990 O1015 2.351 . S
Co990 O1016 2.155 . S
Co990 O1017 2.096 . S
C991 N994 1.301 . S
C991 N995 1.328 . S
C991 H996 0.930 . S
C992 C993 1.333 . S
C992 N994 1.317 . S
C992 H997 0.930 . S
C993 C992 1.333 . S
C993 N995 1.350 . S
C993 H1019 0.931 . S
N994 Co990 2.148 . S
N994 C991 1.301 . S
N994 C992 1.317 . S
N995 C991 1.328 . S
N995 C993 1.350 . S
H996 C991 0.930 . S
H997 C992 0.930 . S
C998 O999 1.224 . S
C998 O1017 1.247 . S
O999 C998 1.224 . S
N1000 Co990 2.128 . S
N1000 C1001 1.355 . S
N1000 C1003 1.311 . S
C1001 N1000 1.355 . S
C1001 C1002 1.363 . S
C1001 H1013 0.929 . S
C1002 C1001 1.363 . S
C1002 N1004 1.375 . S
C1002 H1020 0.931 . S
C1003 N1000 1.311 . S
C1003 N1004 1.347 . S
C1003 H1014 0.929 . S
N1004 C1002 1.375 . S
N1004 C1003 1.347 . S
C1005 C1008 1.365 . S
C1005 N1010 1.328 . S
C1005 H1011 0.929 . S
C1006 C1007 1.362 . S
C1006 C1009 1.378 . S
C1006 H1021 0.929 . S
C1007 C1006 1.362 . S
C1007 C1008 1.366 . S
C1008 C1005 1.365 . S
C1008 C1007 1.366 . S
C1008 H1022 0.930 . S
C1009 C1006 1.378 . S
C1009 N1010 1.315 . S
C1009 H1012 0.930 . S
N1010 Co990 2.194 . S
N1010 C1005 1.328 . S
N1010 C1009 1.315 . S
H1011 C1005 0.929 . S
H1012 C1009 0.930 . S
H1013 C1001 0.929 . S
H1014 C1003 0.929 . S
O1015 Co990 2.351 . S
O1015 C1018 1.244 . S
O1016 Co990 2.155 . S
O1016 C1018 1.240 . S
O1017 Co990 2.096 . S
O1017 C998 1.247 . S
C1018 O1015 1.244 . S
C1018 O1016 1.240 . S
H1019 C993 0.931 . S
H1020 C1002 0.931 . S
H1021 C1006 0.929 . S
H1022 C1008 0.930 . S
Co1023 N1027 2.148 . S
Co1023 N1033 2.128 . S
Co1023 N1043 2.194 . S
Co1023 O1048 2.351 . S
Co1023 O1049 2.155 . S
Co1023 O1050 2.096 . S
C1024 N1027 1.301 . S
C1024 N1028 1.328 . S
C1024 H1029 0.930 . S
C1025 C1026 1.333 . S
C1025 N1027 1.317 . S
C1025 H1030 0.930 . S
C1026 C1025 1.333 . S
C1026 N1028 1.350 . S
C1026 H1052 0.931 . S
N1027 Co1023 2.148 . S
N1027 C1024 1.301 . S
N1027 C1025 1.317 . S
N1028 C1024 1.328 . S
N1028 C1026 1.350 . S
H1029 C1024 0.930 . S
H1030 C1025 0.930 . S
C1031 O1032 1.224 . S
C1031 O1050 1.247 . S
O1032 C1031 1.224 . S
N1033 Co1023 2.128 . S
N1033 C1034 1.355 . S
N1033 C1036 1.311 . S
C1034 N1033 1.355 . S
C1034 C1035 1.363 . S
C1034 H1046 0.929 . S
C1035 C1034 1.363 . S
C1035 N1037 1.375 . S
C1035 H1053 0.931 . S
C1036 N1033 1.311 . S
C1036 N1037 1.347 . S
C1036 H1047 0.929 . S
N1037 C1035 1.375 . S
N1037 C1036 1.347 . S
C1038 C1041 1.365 . S
C1038 N1043 1.328 . S
C1038 H1044 0.929 . S
C1039 C1040 1.362 . S
C1039 C1042 1.378 . S
C1039 H1054 0.929 . S
C1040 C1039 1.362 . S
C1040 C1041 1.366 . S
C1041 C1038 1.365 . S
C1041 C1040 1.366 . S
C1041 H1055 0.930 . S
C1042 C1039 1.378 . S
C1042 N1043 1.315 . S
C1042 H1045 0.930 . S
N1043 Co1023 2.194 . S
N1043 C1038 1.328 . S
N1043 C1042 1.315 . S
H1044 C1038 0.929 . S
H1045 C1042 0.930 . S
H1046 C1034 0.929 . S
H1047 C1036 0.929 . S
O1048 Co1023 2.351 . S
O1048 C1051 1.244 . S
O1049 Co1023 2.155 . S
O1049 C1051 1.240 . S
O1050 Co1023 2.096 . S
O1050 C1031 1.247 . S
C1051 O1048 1.244 . S
C1051 O1049 1.240 . S
H1052 C1026 0.931 . S
H1053 C1035 0.931 . S
H1054 C1039 0.929 . S
H1055 C1041 0.930 . S
Co1056 N1060 2.148 . S
Co1056 N1066 2.128 . S
Co1056 N1076 2.194 . S
Co1056 O1081 2.351 . S
Co1056 O1082 2.155 . S
Co1056 O1083 2.096 . S
C1057 N1060 1.301 . S
C1057 N1061 1.328 . S
C1057 H1062 0.930 . S
C1058 C1059 1.333 . S
C1058 N1060 1.317 . S
C1058 H1063 0.930 . S
C1059 C1058 1.333 . S
C1059 N1061 1.350 . S
C1059 H1085 0.931 . S
N1060 Co1056 2.148 . S
N1060 C1057 1.301 . S
N1060 C1058 1.317 . S
N1061 C1057 1.328 . S
N1061 C1059 1.350 . S
H1062 C1057 0.930 . S
H1063 C1058 0.930 . S
C1064 O1065 1.224 . S
C1064 O1083 1.247 . S
O1065 C1064 1.224 . S
N1066 Co1056 2.128 . S
N1066 C1067 1.355 . S
N1066 C1069 1.311 . S
C1067 N1066 1.355 . S
C1067 C1068 1.363 . S
C1067 H1079 0.929 . S
C1068 C1067 1.363 . S
C1068 N1070 1.375 . S
C1068 H1086 0.931 . S
C1069 N1066 1.311 . S
C1069 N1070 1.347 . S
C1069 H1080 0.929 . S
N1070 C1068 1.375 . S
N1070 C1069 1.347 . S
C1071 C1074 1.365 . S
C1071 N1076 1.328 . S
C1071 H1077 0.929 . S
C1072 C1073 1.362 . S
C1072 C1075 1.378 . S
C1072 H1087 0.929 . S
C1073 C1072 1.362 . S
C1073 C1074 1.366 . S
C1074 C1071 1.365 . S
C1074 C1073 1.366 . S
C1074 H1088 0.930 . S
C1075 C1072 1.378 . S
C1075 N1076 1.315 . S
C1075 H1078 0.930 . S
N1076 Co1056 2.194 . S
N1076 C1071 1.328 . S
N1076 C1075 1.315 . S
H1077 C1071 0.929 . S
H1078 C1075 0.930 . S
H1079 C1067 0.929 . S
H1080 C1069 0.929 . S
O1081 Co1056 2.351 . S
O1081 C1084 1.244 . S
O1082 Co1056 2.155 . S
O1082 C1084 1.240 . S
O1083 Co1056 2.096 . S
O1083 C1064 1.247 . S
C1084 O1081 1.244 . S
C1084 O1082 1.240 . S
H1085 C1059 0.931 . S
H1086 C1068 0.931 . S
H1087 C1072 0.929 . S
H1088 C1074 0.930 . S
Co1089 N1093 2.117 1_545 S
Co1089 N1099 2.128 . S
Co1089 N1109 2.194 . S
Co1089 O1114 2.351 . S
Co1089 O1115 2.155 . S
Co1089 O1116 2.096 . S
C1090 N1093 1.297 1_545 S
C1090 N1094 1.328 1_545 S
C1090 H1095 0.930 . S
C1091 C1092 1.333 . S
C1091 N1093 1.361 . S
C1091 H1096 0.930 . S
C1092 C1091 1.333 . S
C1092 N1094 1.350 . S
C1092 H1118 0.931 . S
N1093 Co1089 2.117 1_565 S
N1093 C1090 1.297 1_565 S
N1093 C1091 1.361 . S
N1094 C1090 1.328 1_565 S
N1094 C1092 1.350 . S
H1095 C1090 0.930 . S
H1096 C1091 0.930 . S
C1097 O1098 1.224 . S
C1097 O1116 1.247 1_565 S
O1098 C1097 1.224 . S
N1099 Co1089 2.128 . S
N1099 C1100 1.355 . S
N1099 C1102 1.311 . S
C1100 N1099 1.355 . S
C1100 C1101 1.363 . S
C1100 H1112 0.929 . S
C1101 C1100 1.363 . S
C1101 N1103 1.375 . S
C1101 H1119 0.931 . S
C1102 N1099 1.311 . S
C1102 N1103 1.347 . S
C1102 H1113 0.929 . S
N1103 C1101 1.375 . S
N1103 C1102 1.347 . S
C1104 C1107 1.365 . S
C1104 N1109 1.328 . S
C1104 H1110 0.929 . S
C1105 C1106 1.362 . S
C1105 C1108 1.378 . S
C1105 H1120 0.929 . S
C1106 C1105 1.362 . S
C1106 C1107 1.366 . S
C1107 C1104 1.365 . S
C1107 C1106 1.366 . S
C1107 H1121 0.930 . S
C1108 C1105 1.378 . S
C1108 N1109 1.315 . S
C1108 H1111 0.930 . S
N1109 Co1089 2.194 . S
N1109 C1104 1.328 . S
N1109 C1108 1.315 . S
H1110 C1104 0.929 . S
H1111 C1108 0.930 . S
H1112 C1100 0.929 . S
H1113 C1102 0.929 . S
O1114 Co1089 2.351 . S
O1114 C1117 1.244 . S
O1115 Co1089 2.155 . S
O1115 C1117 1.240 . S
O1116 Co1089 2.096 . S
O1116 C1097 1.247 1_545 S
C1117 O1114 1.244 . S
C1117 O1115 1.240 . S
H1118 C1092 0.931 . S
H1119 C1101 0.931 . S
H1120 C1105 0.929 . S
H1121 C1107 0.930 . S
Co1122 N1126 2.148 . S
Co1122 N1132 2.128 . S
Co1122 N1142 2.194 . S
Co1122 O1147 2.351 . S
Co1122 O1148 2.155 . S
Co1122 O1149 2.096 . S
C1123 N1126 1.301 . S
C1123 N1127 1.328 . S
C1123 H1128 0.930 . S
C1124 C1125 1.333 . S
C1124 N1126 1.317 . S
C1124 H1129 0.930 . S
C1125 C1124 1.333 . S
C1125 N1127 1.350 . S
C1125 H1151 0.931 . S
N1126 Co1122 2.148 . S
N1126 C1123 1.301 . S
N1126 C1124 1.317 . S
N1127 C1123 1.328 . S
N1127 C1125 1.350 . S
H1128 C1123 0.930 . S
H1129 C1124 0.930 . S
C1130 O1131 1.224 . S
C1130 O1149 1.247 . S
O1131 C1130 1.224 . S
N1132 Co1122 2.128 . S
N1132 C1133 1.355 . S
N1132 C1135 1.311 . S
C1133 N1132 1.355 . S
C1133 C1134 1.363 . S
C1133 H1145 0.929 . S
C1134 C1133 1.363 . S
C1134 N1136 1.375 . S
C1134 H1152 0.931 . S
C1135 N1132 1.311 . S
C1135 N1136 1.347 . S
C1135 H1146 0.929 . S
N1136 C1134 1.375 . S
N1136 C1135 1.347 . S
C1137 C1140 1.365 . S
C1137 N1142 1.328 . S
C1137 H1143 0.929 . S
C1138 C1139 1.362 . S
C1138 C1141 1.378 . S
C1138 H1153 0.929 . S
C1139 C1138 1.362 . S
C1139 C1140 1.366 . S
C1140 C1137 1.365 . S
C1140 C1139 1.366 . S
C1140 H1154 0.930 . S
C1141 C1138 1.378 . S
C1141 N1142 1.315 . S
C1141 H1144 0.930 . S
N1142 Co1122 2.194 . S
N1142 C1137 1.328 . S
N1142 C1141 1.315 . S
H1143 C1137 0.929 . S
H1144 C1141 0.930 . S
H1145 C1133 0.929 . S
H1146 C1135 0.929 . S
O1147 Co1122 2.351 . S
O1147 C1150 1.244 . S
O1148 Co1122 2.155 . S
O1148 C1150 1.240 . S
O1149 Co1122 2.096 . S
O1149 C1130 1.247 . S
C1150 O1147 1.244 . S
C1150 O1148 1.240 . S
H1151 C1125 0.931 . S
H1152 C1134 0.931 . S
H1153 C1138 0.929 . S
H1154 C1140 0.930 . S
Co1155 N1159 2.148 . S
Co1155 N1165 2.128 . S
Co1155 N1175 2.194 . S
Co1155 O1180 2.351 . S
Co1155 O1181 2.155 . S
Co1155 O1182 2.096 . S
C1156 N1159 1.301 . S
C1156 N1160 1.328 . S
C1156 H1161 0.930 . S
C1157 C1158 1.333 . S
C1157 N1159 1.317 . S
C1157 H1162 0.930 . S
C1158 C1157 1.333 . S
C1158 N1160 1.350 . S
C1158 H1184 0.931 . S
N1159 Co1155 2.148 . S
N1159 C1156 1.301 . S
N1159 C1157 1.317 . S
N1160 C1156 1.328 . S
N1160 C1158 1.350 . S
H1161 C1156 0.930 . S
H1162 C1157 0.930 . S
C1163 O1164 1.224 . S
C1163 O1182 1.247 . S
O1164 C1163 1.224 . S
N1165 Co1155 2.128 . S
N1165 C1166 1.355 . S
N1165 C1168 1.311 . S
C1166 N1165 1.355 . S
C1166 C1167 1.363 . S
C1166 H1178 0.929 . S
C1167 C1166 1.363 . S
C1167 N1169 1.375 . S
C1167 H1185 0.931 . S
C1168 N1165 1.311 . S
C1168 N1169 1.347 . S
C1168 H1179 0.929 . S
N1169 C1167 1.375 . S
N1169 C1168 1.347 . S
C1170 C1173 1.365 . S
C1170 N1175 1.328 . S
C1170 H1176 0.929 . S
C1171 C1172 1.362 . S
C1171 C1174 1.378 . S
C1171 H1186 0.929 . S
C1172 C1171 1.362 . S
C1172 C1173 1.366 . S
C1173 C1170 1.365 . S
C1173 C1172 1.366 . S
C1173 H1187 0.930 . S
C1174 C1171 1.378 . S
C1174 N1175 1.315 . S
C1174 H1177 0.930 . S
N1175 Co1155 2.194 . S
N1175 C1170 1.328 . S
N1175 C1174 1.315 . S
H1176 C1170 0.929 . S
H1177 C1174 0.930 . S
H1178 C1166 0.929 . S
H1179 C1168 0.929 . S
O1180 Co1155 2.351 . S
O1180 C1183 1.244 . S
O1181 Co1155 2.155 . S
O1181 C1183 1.240 . S
O1182 Co1155 2.096 . S
O1182 C1163 1.247 . S
C1183 O1180 1.244 . S
C1183 O1181 1.240 . S
H1184 C1158 0.931 . S
H1185 C1167 0.931 . S
H1186 C1171 0.929 . S
H1187 C1173 0.930 . S
Co1188 N1192 2.148 . S
Co1188 N1198 2.128 . S
Co1188 N1208 2.194 . S
Co1188 O1213 2.351 . S
Co1188 O1214 2.155 . S
Co1188 O1215 2.096 . S
C1189 N1192 1.301 . S
C1189 N1193 1.328 . S
C1189 H1194 0.930 . S
C1190 C1191 1.333 . S
C1190 N1192 1.317 . S
C1190 H1195 0.930 . S
C1191 C1190 1.333 . S
C1191 N1193 1.350 . S
C1191 H1217 0.931 . S
N1192 Co1188 2.148 . S
N1192 C1189 1.301 . S
N1192 C1190 1.317 . S
N1193 C1189 1.328 . S
N1193 C1191 1.350 . S
H1194 C1189 0.930 . S
H1195 C1190 0.930 . S
C1196 O1197 1.224 . S
C1196 O1215 1.247 . S
O1197 C1196 1.224 . S
N1198 Co1188 2.128 . S
N1198 C1199 1.355 . S
N1198 C1201 1.311 . S
C1199 N1198 1.355 . S
C1199 C1200 1.363 . S
C1199 H1211 0.929 . S
C1200 C1199 1.363 . S
C1200 N1202 1.375 . S
C1200 H1218 0.931 . S
C1201 N1198 1.311 . S
C1201 N1202 1.347 . S
C1201 H1212 0.929 . S
N1202 C1200 1.375 . S
N1202 C1201 1.347 . S
C1203 C1206 1.365 . S
C1203 N1208 1.328 . S
C1203 H1209 0.929 . S
C1204 C1205 1.362 . S
C1204 C1207 1.378 . S
C1204 H1219 0.929 . S
C1205 C1204 1.362 . S
C1205 C1206 1.366 . S
C1206 C1203 1.365 . S
C1206 C1205 1.366 . S
C1206 H1220 0.930 . S
C1207 C1204 1.378 . S
C1207 N1208 1.315 . S
C1207 H1210 0.930 . S
N1208 Co1188 2.194 . S
N1208 C1203 1.328 . S
N1208 C1207 1.315 . S
H1209 C1203 0.929 . S
H1210 C1207 0.930 . S
H1211 C1199 0.929 . S
H1212 C1201 0.929 . S
O1213 Co1188 2.351 . S
O1213 C1216 1.244 . S
O1214 Co1188 2.155 . S
O1214 C1216 1.240 . S
O1215 Co1188 2.096 . S
O1215 C1196 1.247 . S
C1216 O1213 1.244 . S
C1216 O1214 1.240 . S
H1217 C1191 0.931 . S
H1218 C1200 0.931 . S
H1219 C1204 0.929 . S
H1220 C1206 0.930 . S
Co1221 N1225 2.117 1_545 S
Co1221 N1231 2.128 . S
Co1221 N1241 2.194 . S
Co1221 O1246 2.351 . S
Co1221 O1247 2.155 . S
Co1221 O1248 2.096 . S
C1222 N1225 1.297 1_545 S
C1222 N1226 1.328 1_545 S
C1222 H1227 0.930 . S
C1223 C1224 1.333 . S
C1223 N1225 1.361 . S
C1223 H1228 0.930 . S
C1224 C1223 1.333 . S
C1224 N1226 1.350 . S
C1224 H1250 0.931 . S
N1225 Co1221 2.117 1_565 S
N1225 C1222 1.297 1_565 S
N1225 C1223 1.361 . S
N1226 C1222 1.328 1_565 S
N1226 C1224 1.350 . S
H1227 C1222 0.930 . S
H1228 C1223 0.930 . S
C1229 O1230 1.224 . S
C1229 O1248 1.247 1_565 S
O1230 C1229 1.224 . S
N1231 Co1221 2.128 . S
N1231 C1232 1.355 . S
N1231 C1234 1.311 . S
C1232 N1231 1.355 . S
C1232 C1233 1.363 . S
C1232 H1244 0.929 . S
C1233 C1232 1.363 . S
C1233 N1235 1.375 . S
C1233 H1251 0.931 . S
C1234 N1231 1.311 . S
C1234 N1235 1.347 . S
C1234 H1245 0.929 . S
N1235 C1233 1.375 . S
N1235 C1234 1.347 . S
C1236 C1239 1.365 . S
C1236 N1241 1.328 . S
C1236 H1242 0.929 . S
C1237 C1238 1.362 . S
C1237 C1240 1.378 . S
C1237 H1252 0.929 . S
C1238 C1237 1.362 . S
C1238 C1239 1.366 . S
C1239 C1236 1.365 . S
C1239 C1238 1.366 . S
C1239 H1253 0.930 . S
C1240 C1237 1.378 . S
C1240 N1241 1.315 . S
C1240 H1243 0.930 . S
N1241 Co1221 2.194 . S
N1241 C1236 1.328 . S
N1241 C1240 1.315 . S
H1242 C1236 0.929 . S
H1243 C1240 0.930 . S
H1244 C1232 0.929 . S
H1245 C1234 0.929 . S
O1246 Co1221 2.351 . S
O1246 C1249 1.244 . S
O1247 Co1221 2.155 . S
O1247 C1249 1.240 . S
O1248 Co1221 2.096 . S
O1248 C1229 1.247 1_545 S
C1249 O1246 1.244 . S
C1249 O1247 1.240 . S
H1250 C1224 0.931 . S
H1251 C1233 0.931 . S
H1252 C1237 0.929 . S
H1253 C1239 0.930 . S
Co1254 N1258 2.148 . S
Co1254 N1264 2.128 . S
Co1254 N1274 2.194 . S
Co1254 O1279 2.351 . S
Co1254 O1280 2.155 . S
Co1254 O1281 2.096 . S
C1255 N1258 1.301 . S
C1255 N1259 1.328 . S
C1255 H1260 0.930 . S
C1256 C1257 1.333 . S
C1256 N1258 1.317 . S
C1256 H1261 0.930 . S
C1257 C1256 1.333 . S
C1257 N1259 1.350 . S
C1257 H1283 0.931 . S
N1258 Co1254 2.148 . S
N1258 C1255 1.301 . S
N1258 C1256 1.317 . S
N1259 C1255 1.328 . S
N1259 C1257 1.350 . S
H1260 C1255 0.930 . S
H1261 C1256 0.930 . S
C1262 O1263 1.224 . S
C1262 O1281 1.247 . S
O1263 C1262 1.224 . S
N1264 Co1254 2.128 . S
N1264 C1265 1.355 . S
N1264 C1267 1.311 . S
C1265 N1264 1.355 . S
C1265 C1266 1.363 . S
C1265 H1277 0.929 . S
C1266 C1265 1.363 . S
C1266 N1268 1.375 . S
C1266 H1284 0.931 . S
C1267 N1264 1.311 . S
C1267 N1268 1.347 . S
C1267 H1278 0.929 . S
N1268 C1266 1.375 . S
N1268 C1267 1.347 . S
C1269 C1272 1.365 . S
C1269 N1274 1.328 . S
C1269 H1275 0.929 . S
C1270 C1271 1.362 . S
C1270 C1273 1.378 . S
C1270 H1285 0.929 . S
C1271 C1270 1.362 . S
C1271 C1272 1.366 . S
C1272 C1269 1.365 . S
C1272 C1271 1.366 . S
C1272 H1286 0.930 . S
C1273 C1270 1.378 . S
C1273 N1274 1.315 . S
C1273 H1276 0.930 . S
N1274 Co1254 2.194 . S
N1274 C1269 1.328 . S
N1274 C1273 1.315 . S
H1275 C1269 0.929 . S
H1276 C1273 0.930 . S
H1277 C1265 0.929 . S
H1278 C1267 0.929 . S
O1279 Co1254 2.351 . S
O1279 C1282 1.244 . S
O1280 Co1254 2.155 . S
O1280 C1282 1.240 . S
O1281 Co1254 2.096 . S
O1281 C1262 1.247 . S
C1282 O1279 1.244 . S
C1282 O1280 1.240 . S
H1283 C1257 0.931 . S
H1284 C1266 0.931 . S
H1285 C1270 0.929 . S
H1286 C1272 0.930 . S
Co1287 N1291 2.148 . S
Co1287 N1297 2.128 . S
Co1287 N1307 2.194 . S
Co1287 O1312 2.351 . S
Co1287 O1313 2.155 . S
Co1287 O1314 2.096 . S
C1288 N1291 1.301 . S
C1288 N1292 1.328 . S
C1288 H1293 0.930 . S
C1289 C1290 1.333 . S
C1289 N1291 1.317 . S
C1289 H1294 0.930 . S
C1290 C1289 1.333 . S
C1290 N1292 1.350 . S
C1290 H1316 0.931 . S
N1291 Co1287 2.148 . S
N1291 C1288 1.301 . S
N1291 C1289 1.317 . S
N1292 C1288 1.328 . S
N1292 C1290 1.350 . S
H1293 C1288 0.930 . S
H1294 C1289 0.930 . S
C1295 O1296 1.224 . S
C1295 O1314 1.247 . S
O1296 C1295 1.224 . S
N1297 Co1287 2.128 . S
N1297 C1298 1.355 . S
N1297 C1300 1.311 . S
C1298 N1297 1.355 . S
C1298 C1299 1.363 . S
C1298 H1310 0.929 . S
C1299 C1298 1.363 . S
C1299 N1301 1.375 . S
C1299 H1317 0.931 . S
C1300 N1297 1.311 . S
C1300 N1301 1.347 . S
C1300 H1311 0.929 . S
N1301 C1299 1.375 . S
N1301 C1300 1.347 . S
C1302 C1305 1.365 . S
C1302 N1307 1.328 . S
C1302 H1308 0.929 . S
C1303 C1304 1.362 . S
C1303 C1306 1.378 . S
C1303 H1318 0.929 . S
C1304 C1303 1.362 . S
C1304 C1305 1.366 . S
C1305 C1302 1.365 . S
C1305 C1304 1.366 . S
C1305 H1319 0.930 . S
C1306 C1303 1.378 . S
C1306 N1307 1.315 . S
C1306 H1309 0.930 . S
N1307 Co1287 2.194 . S
N1307 C1302 1.328 . S
N1307 C1306 1.315 . S
H1308 C1302 0.929 . S
H1309 C1306 0.930 . S
H1310 C1298 0.929 . S
H1311 C1300 0.929 . S
O1312 Co1287 2.351 . S
O1312 C1315 1.244 . S
O1313 Co1287 2.155 . S
O1313 C1315 1.240 . S
O1314 Co1287 2.096 . S
O1314 C1295 1.247 . S
C1315 O1312 1.244 . S
C1315 O1313 1.240 . S
H1316 C1290 0.931 . S
H1317 C1299 0.931 . S
H1318 C1303 0.929 . S
H1319 C1305 0.930 . S
Co1320 N1324 2.148 . S
Co1320 N1330 2.128 . S
Co1320 N1340 2.194 . S
Co1320 O1345 2.351 . S
Co1320 O1346 2.155 . S
Co1320 O1347 2.096 . S
C1321 N1324 1.301 . S
C1321 N1325 1.328 . S
C1321 H1326 0.930 . S
C1322 C1323 1.333 . S
C1322 N1324 1.317 . S
C1322 H1327 0.930 . S
C1323 C1322 1.333 . S
C1323 N1325 1.350 . S
C1323 H1349 0.931 . S
N1324 Co1320 2.148 . S
N1324 C1321 1.301 . S
N1324 C1322 1.317 . S
N1325 C1321 1.328 . S
N1325 C1323 1.350 . S
H1326 C1321 0.930 . S
H1327 C1322 0.930 . S
C1328 O1329 1.224 . S
C1328 O1347 1.247 . S
O1329 C1328 1.224 . S
N1330 Co1320 2.128 . S
N1330 C1331 1.355 . S
N1330 C1333 1.311 . S
C1331 N1330 1.355 . S
C1331 C1332 1.363 . S
C1331 H1343 0.929 . S
C1332 C1331 1.363 . S
C1332 N1334 1.375 . S
C1332 H1350 0.931 . S
C1333 N1330 1.311 . S
C1333 N1334 1.347 . S
C1333 H1344 0.929 . S
N1334 C1332 1.375 . S
N1334 C1333 1.347 . S
C1335 C1338 1.365 . S
C1335 N1340 1.328 . S
C1335 H1341 0.929 . S
C1336 C1337 1.362 . S
C1336 C1339 1.378 . S
C1336 H1351 0.929 . S
C1337 C1336 1.362 . S
C1337 C1338 1.366 . S
C1338 C1335 1.365 . S
C1338 C1337 1.366 . S
C1338 H1352 0.930 . S
C1339 C1336 1.378 . S
C1339 N1340 1.315 . S
C1339 H1342 0.930 . S
N1340 Co1320 2.194 . S
N1340 C1335 1.328 . S
N1340 C1339 1.315 . S
H1341 C1335 0.929 . S
H1342 C1339 0.930 . S
H1343 C1331 0.929 . S
H1344 C1333 0.929 . S
O1345 Co1320 2.351 . S
O1345 C1348 1.244 . S
O1346 Co1320 2.155 . S
O1346 C1348 1.240 . S
O1347 Co1320 2.096 . S
O1347 C1328 1.247 . S
C1348 O1345 1.244 . S
C1348 O1346 1.240 . S
H1349 C1323 0.931 . S
H1350 C1332 0.931 . S
H1351 C1336 0.929 . S
H1352 C1338 0.930 . S
Co1353 N1357 2.148 . S
Co1353 N1363 2.128 . S
Co1353 N1373 2.194 . S
Co1353 O1378 2.351 . S
Co1353 O1379 2.155 . S
Co1353 O1380 2.096 . S
C1354 N1357 1.301 . S
C1354 N1358 1.328 . S
C1354 H1359 0.930 . S
C1355 C1356 1.333 . S
C1355 N1357 1.317 . S
C1355 H1360 0.930 . S
C1356 C1355 1.333 . S
C1356 N1358 1.350 . S
C1356 H1382 0.931 . S
N1357 Co1353 2.148 . S
N1357 C1354 1.301 . S
N1357 C1355 1.317 . S
N1358 C1354 1.328 . S
N1358 C1356 1.350 . S
H1359 C1354 0.930 . S
H1360 C1355 0.930 . S
C1361 O1362 1.224 . S
C1361 O1380 1.247 . S
O1362 C1361 1.224 . S
N1363 Co1353 2.128 . S
N1363 C1364 1.355 . S
N1363 C1366 1.311 . S
C1364 N1363 1.355 . S
C1364 C1365 1.363 . S
C1364 H1376 0.929 . S
C1365 C1364 1.363 . S
C1365 N1367 1.375 . S
C1365 H1383 0.931 . S
C1366 N1363 1.311 . S
C1366 N1367 1.347 . S
C1366 H1377 0.929 . S
N1367 C1365 1.375 . S
N1367 C1366 1.347 . S
C1368 C1371 1.365 . S
C1368 N1373 1.328 . S
C1368 H1374 0.929 . S
C1369 C1370 1.362 . S
C1369 C1372 1.378 . S
C1369 H1384 0.929 . S
C1370 C1369 1.362 . S
C1370 C1371 1.366 . S
C1371 C1368 1.365 . S
C1371 C1370 1.366 . S
C1371 H1385 0.930 . S
C1372 C1369 1.378 . S
C1372 N1373 1.315 . S
C1372 H1375 0.930 . S
N1373 Co1353 2.194 . S
N1373 C1368 1.328 . S
N1373 C1372 1.315 . S
H1374 C1368 0.929 . S
H1375 C1372 0.930 . S
H1376 C1364 0.929 . S
H1377 C1366 0.929 . S
O1378 Co1353 2.351 . S
O1378 C1381 1.244 . S
O1379 Co1353 2.155 . S
O1379 C1381 1.240 . S
O1380 Co1353 2.096 . S
O1380 C1361 1.247 . S
C1381 O1378 1.244 . S
C1381 O1379 1.240 . S
H1382 C1356 0.931 . S
H1383 C1365 0.931 . S
H1384 C1369 0.929 . S
H1385 C1371 0.930 . S
Co1386 N1390 2.148 . S
Co1386 N1396 2.128 . S
Co1386 N1406 2.194 . S
Co1386 O1411 2.351 . S
Co1386 O1412 2.155 . S
Co1386 O1413 2.096 . S
C1387 N1390 1.301 . S
C1387 N1391 1.328 . S
C1387 H1392 0.930 . S
C1388 C1389 1.333 . S
C1388 N1390 1.317 . S
C1388 H1393 0.930 . S
C1389 C1388 1.333 . S
C1389 N1391 1.350 . S
C1389 H1415 0.931 . S
N1390 Co1386 2.148 . S
N1390 C1387 1.301 . S
N1390 C1388 1.317 . S
N1391 C1387 1.328 . S
N1391 C1389 1.350 . S
H1392 C1387 0.930 . S
H1393 C1388 0.930 . S
C1394 O1395 1.224 . S
C1394 O1413 1.247 . S
O1395 C1394 1.224 . S
N1396 Co1386 2.128 . S
N1396 C1397 1.355 . S
N1396 C1399 1.311 . S
C1397 N1396 1.355 . S
C1397 C1398 1.363 . S
C1397 H1409 0.929 . S
C1398 C1397 1.363 . S
C1398 N1400 1.375 . S
C1398 H1416 0.931 . S
C1399 N1396 1.311 . S
C1399 N1400 1.347 . S
C1399 H1410 0.929 . S
N1400 C1398 1.375 . S
N1400 C1399 1.347 . S
C1401 C1404 1.365 . S
C1401 N1406 1.328 . S
C1401 H1407 0.929 . S
C1402 C1403 1.362 . S
C1402 C1405 1.378 . S
C1402 H1417 0.929 . S
C1403 C1402 1.362 . S
C1403 C1404 1.366 . S
C1404 C1401 1.365 . S
C1404 C1403 1.366 . S
C1404 H1418 0.930 . S
C1405 C1402 1.378 . S
C1405 N1406 1.315 . S
C1405 H1408 0.930 . S
N1406 Co1386 2.194 . S
N1406 C1401 1.328 . S
N1406 C1405 1.315 . S
H1407 C1401 0.929 . S
H1408 C1405 0.930 . S
H1409 C1397 0.929 . S
H1410 C1399 0.929 . S
O1411 Co1386 2.351 . S
O1411 C1414 1.244 . S
O1412 Co1386 2.155 . S
O1412 C1414 1.240 . S
O1413 Co1386 2.096 . S
O1413 C1394 1.247 . S
C1414 O1411 1.244 . S
C1414 O1412 1.240 . S
H1415 C1389 0.931 . S
H1416 C1398 0.931 . S
H1417 C1402 0.929 . S
H1418 C1404 0.930 . S
Co1419 N1423 2.148 . S
Co1419 N1429 2.128 . S
Co1419 N1439 2.194 . S
Co1419 O1444 2.351 . S
Co1419 O1445 2.155 . S
Co1419 O1446 2.096 . S
C1420 N1423 1.301 . S
C1420 N1424 1.328 . S
C1420 H1425 0.930 . S
C1421 C1422 1.333 . S
C1421 N1423 1.317 . S
C1421 H1426 0.930 . S
C1422 C1421 1.333 . S
C1422 N1424 1.350 . S
C1422 H1448 0.931 . S
N1423 Co1419 2.148 . S
N1423 C1420 1.301 . S
N1423 C1421 1.317 . S
N1424 C1420 1.328 . S
N1424 C1422 1.350 . S
H1425 C1420 0.930 . S
H1426 C1421 0.930 . S
C1427 O1428 1.224 . S
C1427 O1446 1.247 . S
O1428 C1427 1.224 . S
N1429 Co1419 2.128 . S
N1429 C1430 1.355 . S
N1429 C1432 1.311 . S
C1430 N1429 1.355 . S
C1430 C1431 1.363 . S
C1430 H1442 0.929 . S
C1431 C1430 1.363 . S
C1431 N1433 1.375 . S
C1431 H1449 0.931 . S
C1432 N1429 1.311 . S
C1432 N1433 1.347 . S
C1432 H1443 0.929 . S
N1433 C1431 1.375 . S
N1433 C1432 1.347 . S
C1434 C1437 1.365 . S
C1434 N1439 1.328 . S
C1434 H1440 0.929 . S
C1435 C1436 1.362 . S
C1435 C1438 1.378 . S
C1435 H1450 0.929 . S
C1436 C1435 1.362 . S
C1436 C1437 1.366 . S
C1437 C1434 1.365 . S
C1437 C1436 1.366 . S
C1437 H1451 0.930 . S
C1438 C1435 1.378 . S
C1438 N1439 1.315 . S
C1438 H1441 0.930 . S
N1439 Co1419 2.194 . S
N1439 C1434 1.328 . S
N1439 C1438 1.315 . S
H1440 C1434 0.929 . S
H1441 C1438 0.930 . S
H1442 C1430 0.929 . S
H1443 C1432 0.929 . S
O1444 Co1419 2.351 . S
O1444 C1447 1.244 . S
O1445 Co1419 2.155 . S
O1445 C1447 1.240 . S
O1446 Co1419 2.096 . S
O1446 C1427 1.247 . S
C1447 O1444 1.244 . S
C1447 O1445 1.240 . S
H1448 C1422 0.931 . S
H1449 C1431 0.931 . S
H1450 C1435 0.929 . S
H1451 C1437 0.930 . S
Co1452 N1456 2.117 1_655 S
Co1452 N1462 2.128 . S
Co1452 N1472 2.194 . S
Co1452 O1477 2.351 . S
Co1452 O1478 2.155 . S
Co1452 O1479 2.096 . S
C1453 N1456 1.297 1_655 S
C1453 N1457 1.328 1_655 S
C1453 H1458 0.930 . S
C1454 C1455 1.333 . S
C1454 N1456 1.361 . S
C1454 H1459 0.930 . S
C1455 C1454 1.333 . S
C1455 N1457 1.350 . S
C1455 H1481 0.931 . S
N1456 Co1452 2.117 1_455 S
N1456 C1453 1.297 1_455 S
N1456 C1454 1.361 . S
N1457 C1453 1.328 1_455 S
N1457 C1455 1.350 . S
H1458 C1453 0.930 . S
H1459 C1454 0.930 . S
C1460 O1461 1.224 . S
C1460 O1479 1.247 1_455 S
O1461 C1460 1.224 . S
N1462 Co1452 2.128 . S
N1462 C1463 1.355 . S
N1462 C1465 1.311 . S
C1463 N1462 1.355 . S
C1463 C1464 1.363 . S
C1463 H1475 0.929 . S
C1464 C1463 1.363 . S
C1464 N1466 1.375 . S
C1464 H1482 0.931 . S
C1465 N1462 1.311 . S
C1465 N1466 1.347 . S
C1465 H1476 0.929 . S
N1466 C1464 1.375 . S
N1466 C1465 1.347 . S
C1467 C1470 1.365 . S
C1467 N1472 1.328 . S
C1467 H1473 0.929 . S
C1468 C1469 1.362 . S
C1468 C1471 1.378 . S
C1468 H1483 0.929 . S
C1469 C1468 1.362 . S
C1469 C1470 1.366 . S
C1470 C1467 1.365 . S
C1470 C1469 1.366 . S
C1470 H1484 0.930 . S
C1471 C1468 1.378 . S
C1471 N1472 1.315 . S
C1471 H1474 0.930 . S
N1472 Co1452 2.194 . S
N1472 C1467 1.328 . S
N1472 C1471 1.315 . S
H1473 C1467 0.929 . S
H1474 C1471 0.930 . S
H1475 C1463 0.929 . S
H1476 C1465 0.929 . S
O1477 Co1452 2.351 . S
O1477 C1480 1.244 . S
O1478 Co1452 2.155 . S
O1478 C1480 1.240 . S
O1479 Co1452 2.096 . S
O1479 C1460 1.247 1_655 S
C1480 O1477 1.244 . S
C1480 O1478 1.240 . S
H1481 C1455 0.931 . S
H1482 C1464 0.931 . S
H1483 C1468 0.929 . S
H1484 C1470 0.930 . S
Co1485 N1489 2.148 . S
Co1485 N1495 2.128 . S
Co1485 N1505 2.194 . S
Co1485 O1510 2.351 . S
Co1485 O1511 2.155 . S
Co1485 O1512 2.096 . S
C1486 N1489 1.301 . S
C1486 N1490 1.328 . S
C1486 H1491 0.930 . S
C1487 C1488 1.333 . S
C1487 N1489 1.317 . S
C1487 H1492 0.930 . S
C1488 C1487 1.333 . S
C1488 N1490 1.350 . S
C1488 H1514 0.931 . S
N1489 Co1485 2.148 . S
N1489 C1486 1.301 . S
N1489 C1487 1.317 . S
N1490 C1486 1.328 . S
N1490 C1488 1.350 . S
H1491 C1486 0.930 . S
H1492 C1487 0.930 . S
C1493 O1494 1.224 . S
C1493 O1512 1.247 . S
O1494 C1493 1.224 . S
N1495 Co1485 2.128 . S
N1495 C1496 1.355 . S
N1495 C1498 1.311 . S
C1496 N1495 1.355 . S
C1496 C1497 1.363 . S
C1496 H1508 0.929 . S
C1497 C1496 1.363 . S
C1497 N1499 1.375 . S
C1497 H1515 0.931 . S
C1498 N1495 1.311 . S
C1498 N1499 1.347 . S
C1498 H1509 0.929 . S
N1499 C1497 1.375 . S
N1499 C1498 1.347 . S
C1500 C1503 1.365 . S
C1500 N1505 1.328 . S
C1500 H1506 0.929 . S
C1501 C1502 1.362 . S
C1501 C1504 1.378 . S
C1501 H1516 0.929 . S
C1502 C1501 1.362 . S
C1502 C1503 1.366 . S
C1503 C1500 1.365 . S
C1503 C1502 1.366 . S
C1503 H1517 0.930 . S
C1504 C1501 1.378 . S
C1504 N1505 1.315 . S
C1504 H1507 0.930 . S
N1505 Co1485 2.194 . S
N1505 C1500 1.328 . S
N1505 C1504 1.315 . S
H1506 C1500 0.929 . S
H1507 C1504 0.930 . S
H1508 C1496 0.929 . S
H1509 C1498 0.929 . S
O1510 Co1485 2.351 . S
O1510 C1513 1.244 . S
O1511 Co1485 2.155 . S
O1511 C1513 1.240 . S
O1512 Co1485 2.096 . S
O1512 C1493 1.247 . S
C1513 O1510 1.244 . S
C1513 O1511 1.240 . S
H1514 C1488 0.931 . S
H1515 C1497 0.931 . S
H1516 C1501 0.929 . S
H1517 C1503 0.930 . S
Co1518 N1522 2.148 . S
Co1518 N1528 2.128 . S
Co1518 N1538 2.194 . S
Co1518 O1543 2.351 . S
Co1518 O1544 2.155 . S
Co1518 O1545 2.096 . S
C1519 N1522 1.301 . S
C1519 N1523 1.328 . S
C1519 H1524 0.930 . S
C1520 C1521 1.333 . S
C1520 N1522 1.317 . S
C1520 H1525 0.930 . S
C1521 C1520 1.333 . S
C1521 N1523 1.350 . S
C1521 H1547 0.931 . S
N1522 Co1518 2.148 . S
N1522 C1519 1.301 . S
N1522 C1520 1.317 . S
N1523 C1519 1.328 . S
N1523 C1521 1.350 . S
H1524 C1519 0.930 . S
H1525 C1520 0.930 . S
C1526 O1527 1.224 . S
C1526 O1545 1.247 . S
O1527 C1526 1.224 . S
N1528 Co1518 2.128 . S
N1528 C1529 1.355 . S
N1528 C1531 1.311 . S
C1529 N1528 1.355 . S
C1529 C1530 1.363 . S
C1529 H1541 0.929 . S
C1530 C1529 1.363 . S
C1530 N1532 1.375 . S
C1530 H1548 0.931 . S
C1531 N1528 1.311 . S
C1531 N1532 1.347 . S
C1531 H1542 0.929 . S
N1532 C1530 1.375 . S
N1532 C1531 1.347 . S
C1533 C1536 1.365 . S
C1533 N1538 1.328 . S
C1533 H1539 0.929 . S
C1534 C1535 1.362 . S
C1534 C1537 1.378 . S
C1534 H1549 0.929 . S
C1535 C1534 1.362 . S
C1535 C1536 1.366 . S
C1536 C1533 1.365 . S
C1536 C1535 1.366 . S
C1536 H1550 0.930 . S
C1537 C1534 1.378 . S
C1537 N1538 1.315 . S
C1537 H1540 0.930 . S
N1538 Co1518 2.194 . S
N1538 C1533 1.328 . S
N1538 C1537 1.315 . S
H1539 C1533 0.929 . S
H1540 C1537 0.930 . S
H1541 C1529 0.929 . S
H1542 C1531 0.929 . S
O1543 Co1518 2.351 . S
O1543 C1546 1.244 . S
O1544 Co1518 2.155 . S
O1544 C1546 1.240 . S
O1545 Co1518 2.096 . S
O1545 C1526 1.247 . S
C1546 O1543 1.244 . S
C1546 O1544 1.240 . S
H1547 C1521 0.931 . S
H1548 C1530 0.931 . S
H1549 C1534 0.929 . S
H1550 C1536 0.930 . S
Co1551 N1555 2.148 . S
Co1551 N1561 2.128 . S
Co1551 N1571 2.194 . S
Co1551 O1576 2.351 . S
Co1551 O1577 2.155 . S
Co1551 O1578 2.096 . S
C1552 N1555 1.301 . S
C1552 N1556 1.328 . S
C1552 H1557 0.930 . S
C1553 C1554 1.333 . S
C1553 N1555 1.317 . S
C1553 H1558 0.930 . S
C1554 C1553 1.333 . S
C1554 N1556 1.350 . S
C1554 H1580 0.931 . S
N1555 Co1551 2.148 . S
N1555 C1552 1.301 . S
N1555 C1553 1.317 . S
N1556 C1552 1.328 . S
N1556 C1554 1.350 . S
H1557 C1552 0.930 . S
H1558 C1553 0.930 . S
C1559 O1560 1.224 . S
C1559 O1578 1.247 . S
O1560 C1559 1.224 . S
N1561 Co1551 2.128 . S
N1561 C1562 1.355 . S
N1561 C1564 1.311 . S
C1562 N1561 1.355 . S
C1562 C1563 1.363 . S
C1562 H1574 0.929 . S
C1563 C1562 1.363 . S
C1563 N1565 1.375 . S
C1563 H1581 0.931 . S
C1564 N1561 1.311 . S
C1564 N1565 1.347 . S
C1564 H1575 0.929 . S
N1565 C1563 1.375 . S
N1565 C1564 1.347 . S
C1566 C1569 1.365 . S
C1566 N1571 1.328 . S
C1566 H1572 0.929 . S
C1567 C1568 1.362 . S
C1567 C1570 1.378 . S
C1567 H1582 0.929 . S
C1568 C1567 1.362 . S
C1568 C1569 1.366 . S
C1569 C1566 1.365 . S
C1569 C1568 1.366 . S
C1569 H1583 0.930 . S
C1570 C1567 1.378 . S
C1570 N1571 1.315 . S
C1570 H1573 0.930 . S
N1571 Co1551 2.194 . S
N1571 C1566 1.328 . S
N1571 C1570 1.315 . S
H1572 C1566 0.929 . S
H1573 C1570 0.930 . S
H1574 C1562 0.929 . S
H1575 C1564 0.929 . S
O1576 Co1551 2.351 . S
O1576 C1579 1.244 . S
O1577 Co1551 2.155 . S
O1577 C1579 1.240 . S
O1578 Co1551 2.096 . S
O1578 C1559 1.247 . S
C1579 O1576 1.244 . S
C1579 O1577 1.240 . S
H1580 C1554 0.931 . S
H1581 C1563 0.931 . S
H1582 C1567 0.929 . S
H1583 C1569 0.930 . S
H1584 C1590 0.930 . S
H1585 C1594 0.930 . S
H1586 C1599 0.929 . S
H1587 C1597 0.929 . S
H1588 C1592 0.929 . S
H1589 C1598 0.929 . S
C1590 H1584 0.930 . S
C1590 C1591 1.367 . S
C1590 C1598 1.378 . S
C1591 C1590 1.367 . S
C1591 C1599 1.433 . S
C1592 H1588 0.929 . S
C1592 C1594 1.378 . S
C1592 C1596 1.350 . S
C1593 C1596 1.463 . S
C1593 C1598 1.350 . S
C1593 N1601 1.427 . S
C1594 H1585 0.930 . S
C1594 C1592 1.378 . S
C1594 C1595 1.367 . S
C1595 C1594 1.367 . S
C1595 C1597 1.433 . S
C1596 C1592 1.350 . S
C1596 C1593 1.463 . S
C1596 N1600 1.427 . S
C1597 H1587 0.929 . S
C1597 C1595 1.433 . S
C1597 N1600 1.384 . S
C1598 H1589 0.929 . S
C1598 C1590 1.378 . S
C1598 C1593 1.350 . S
C1599 H1586 0.929 . S
C1599 C1591 1.433 . S
C1599 N1601 1.384 . S
N1600 C1596 1.427 . S
N1600 C1597 1.384 . S
N1601 C1593 1.427 . S
N1601 C1599 1.384 . S
H1602 C1608 0.930 . S
H1603 C1612 0.930 . S
H1604 C1617 0.929 . S
H1605 C1615 0.929 1_554 S
H1606 C1610 0.929 . S
H1607 C1616 0.929 . S
C1608 H1602 0.930 . S
C1608 C1609 1.367 . S
C1608 C1616 1.378 . S
C1609 C1608 1.367 . S
C1609 C1617 1.433 . S
C1610 H1606 0.929 . S
C1610 C1612 1.378 . S
C1610 C1614 1.350 . S
C1611 C1614 1.463 . S
C1611 C1616 1.350 . S
C1611 N1619 1.427 . S
C1612 H1603 0.930 . S
C1612 C1610 1.378 . S
C1612 C1613 1.367 . S
C1613 C1612 1.367 . S
C1613 C1615 1.433 . S
C1614 C1610 1.350 . S
C1614 C1611 1.463 . S
C1614 N1618 1.427 . S
C1615 H1605 0.929 1_556 S
C1615 C1613 1.433 . S
C1615 N1618 1.384 . S
C1616 H1607 0.929 . S
C1616 C1608 1.378 . S
C1616 C1611 1.350 . S
C1617 H1604 0.929 . S
C1617 C1609 1.433 . S
C1617 N1619 1.384 . S
N1618 C1614 1.427 . S
N1618 C1615 1.384 . S
N1619 C1611 1.427 . S
N1619 C1617 1.384 . S
H1620 C1626 0.930 . S
H1621 C1630 0.930 . S
H1622 C1635 0.929 . S
H1623 C1633 0.929 . S
H1624 C1628 0.929 . S
H1625 C1634 0.929 . S
C1626 H1620 0.930 . S
C1626 C1627 1.367 . S
C1626 C1634 1.378 . S
C1627 C1626 1.367 . S
C1627 C1635 1.433 . S
C1628 H1624 0.929 . S
C1628 C1630 1.378 . S
C1628 C1632 1.350 . S
C1629 C1632 1.463 . S
C1629 C1634 1.350 . S
C1629 N1637 1.427 . S
C1630 H1621 0.930 . S
C1630 C1628 1.378 . S
C1630 C1631 1.367 . S
C1631 C1630 1.367 . S
C1631 C1633 1.433 . S
C1632 C1628 1.350 . S
C1632 C1629 1.463 . S
C1632 N1636 1.427 . S
C1633 H1623 0.929 . S
C1633 C1631 1.433 . S
C1633 N1636 1.384 . S
C1634 H1625 0.929 . S
C1634 C1626 1.378 . S
C1634 C1629 1.350 . S
C1635 H1622 0.929 . S
C1635 C1627 1.433 . S
C1635 N1637 1.384 . S
N1636 C1632 1.427 . S
N1636 C1633 1.384 . S
N1637 C1629 1.427 . S
N1637 C1635 1.384 . S
H1638 C1644 0.930 . S
H1639 C1648 0.930 . S
H1640 C1653 0.929 . S
H1641 C1651 0.929 . S
H1642 C1646 0.929 . S
H1643 C1652 0.929 . S
C1644 H1638 0.930 . S
C1644 C1645 1.367 . S
C1644 C1652 1.378 . S
C1645 C1644 1.367 . S
C1645 C1653 1.433 . S
C1646 H1642 0.929 . S
C1646 C1648 1.378 . S
C1646 C1650 1.350 . S
C1647 C1650 1.463 . S
C1647 C1652 1.350 . S
C1647 N1655 1.427 . S
C1648 H1639 0.930 . S
C1648 C1646 1.378 . S
C1648 C1649 1.367 . S
C1649 C1648 1.367 . S
C1649 C1651 1.433 . S
C1650 C1646 1.350 . S
C1650 C1647 1.463 . S
C1650 N1654 1.427 . S
C1651 H1641 0.929 . S
C1651 C1649 1.433 . S
C1651 N1654 1.384 . S
C1652 H1643 0.929 . S
C1652 C1644 1.378 . S
C1652 C1647 1.350 . S
C1653 H1640 0.929 . S
C1653 C1645 1.433 . S
C1653 N1655 1.384 . S
N1654 C1650 1.427 . S
N1654 C1651 1.384 . S
N1655 C1647 1.427 . S
N1655 C1653 1.384 . S
H1656 C1662 0.930 . S
H1657 C1666 0.930 . S
H1658 C1671 0.929 . S
H1659 C1669 0.929 . S
H1660 C1664 0.929 . S
H1661 C1670 0.929 . S
C1662 H1656 0.930 . S
C1662 C1663 1.367 . S
C1662 C1670 1.378 . S
C1663 C1662 1.367 . S
C1663 C1671 1.433 . S
C1664 H1660 0.929 . S
C1664 C1666 1.378 . S
C1664 C1668 1.350 . S
C1665 C1668 1.463 . S
C1665 C1670 1.350 . S
C1665 N1673 1.427 . S
C1666 H1657 0.930 . S
C1666 C1664 1.378 . S
C1666 C1667 1.367 . S
C1667 C1666 1.367 . S
C1667 C1669 1.433 . S
C1668 C1664 1.350 . S
C1668 C1665 1.463 . S
C1668 N1672 1.427 . S
C1669 H1659 0.929 . S
C1669 C1667 1.433 . S
C1669 N1672 1.384 . S
C1670 H1661 0.929 . S
C1670 C1662 1.378 . S
C1670 C1665 1.350 . S
C1671 H1658 0.929 . S
C1671 C1663 1.433 . S
C1671 N1673 1.384 . S
N1672 C1668 1.427 . S
N1672 C1669 1.384 . S
N1673 C1665 1.427 . S
N1673 C1671 1.384 . S
H1674 C1680 0.930 . S
H1675 C1684 0.930 . S
H1676 C1689 0.929 . S
H1677 C1687 0.929 1_556 S
H1678 C1682 0.929 . S
H1679 C1688 0.929 . S
C1680 H1674 0.930 . S
C1680 C1681 1.367 . S
C1680 C1688 1.378 . S
C1681 C1680 1.367 . S
C1681 C1689 1.433 . S
C1682 H1678 0.929 . S
C1682 C1684 1.378 1_455 S
C1682 C1686 1.350 . S
C1683 C1686 1.463 . S
C1683 C1688 1.350 . S
C1683 N1691 1.427 . S
C1684 H1675 0.930 . S
C1684 C1682 1.378 1_655 S
C1684 C1685 1.367 . S
C1685 C1684 1.367 . S
C1685 C1687 1.433 1_655 S
C1686 C1682 1.350 . S
C1686 C1683 1.463 . S
C1686 N1690 1.427 . S
C1687 H1677 0.929 1_554 S
C1687 C1685 1.433 1_455 S
C1687 N1690 1.384 . S
C1688 H1679 0.929 . S
C1688 C1680 1.378 . S
C1688 C1683 1.350 . S
C1689 H1676 0.929 . S
C1689 C1681 1.433 . S
C1689 N1691 1.384 . S
N1690 C1686 1.427 . S
N1690 C1687 1.384 . S
N1691 C1683 1.427 . S
N1691 C1689 1.384 . S
H1692 C1698 0.930 . S
H1693 C1702 0.930 . S
H1694 C1707 0.929 . S
H1695 C1705 0.929 . S
H1696 C1700 0.929 . S
H1697 C1706 0.929 . S
C1698 H1692 0.930 . S
C1698 C1699 1.367 . S
C1698 C1706 1.378 . S
C1699 C1698 1.367 . S
C1699 C1707 1.433 . S
C1700 H1696 0.929 . S
C1700 C1702 1.378 . S
C1700 C1704 1.350 . S
C1701 C1704 1.463 . S
C1701 C1706 1.350 . S
C1701 N1709 1.427 . S
C1702 H1693 0.930 . S
C1702 C1700 1.378 . S
C1702 C1703 1.367 . S
C1703 C1702 1.367 . S
C1703 C1705 1.433 . S
C1704 C1700 1.350 . S
C1704 C1701 1.463 . S
C1704 N1708 1.427 . S
C1705 H1695 0.929 . S
C1705 C1703 1.433 . S
C1705 N1708 1.384 . S
C1706 H1697 0.929 . S
C1706 C1698 1.378 . S
C1706 C1701 1.350 . S
C1707 H1694 0.929 . S
C1707 C1699 1.433 . S
C1707 N1709 1.384 . S
N1708 C1704 1.427 . S
N1708 C1705 1.384 . S
N1709 C1701 1.427 . S
N1709 C1707 1.384 . S
H1710 C1716 0.911 1_455 S
H1711 C1720 0.930 . S
H1712 C1725 0.929 1_456 S
H1713 C1723 0.929 . S
H1714 C1718 0.929 . S
H1715 C1724 0.929 . S
C1716 H1710 0.911 1_655 S
C1716 C1717 1.348 1_655 S
C1716 C1724 1.419 . S
C1717 C1716 1.348 1_455 S
C1717 C1725 1.433 1_455 S
C1718 H1714 0.929 . S
C1718 C1720 1.378 . S
C1718 C1722 1.350 . S
C1719 C1722 1.463 . S
C1719 C1724 1.350 . S
C1719 N1727 1.427 . S
C1720 H1711 0.930 . S
C1720 C1718 1.378 . S
C1720 C1721 1.367 . S
C1721 C1720 1.367 . S
C1721 C1723 1.433 . S
C1722 C1718 1.350 . S
C1722 C1719 1.463 . S
C1722 N1726 1.427 . S
C1723 H1713 0.929 . S
C1723 C1721 1.433 . S
C1723 N1726 1.384 . S
C1724 H1715 0.929 . S
C1724 C1716 1.419 . S
C1724 C1719 1.350 . S
C1725 H1712 0.929 1_654 S
C1725 C1717 1.433 1_655 S
C1725 N1727 1.384 . S
N1726 C1722 1.427 . S
N1726 C1723 1.384 . S
N1727 C1719 1.427 . S
N1727 C1725 1.384 . S
H1728 C1734 0.930 . S
H1729 C1738 0.930 . S
H1730 C1743 0.929 . S
H1731 C1741 0.929 . S
H1732 C1736 0.929 . S
H1733 C1742 0.929 . S
C1734 H1728 0.930 . S
C1734 C1735 1.367 . S
C1734 C1742 1.378 . S
C1735 C1734 1.367 . S
C1735 C1743 1.433 . S
C1736 H1732 0.929 . S
C1736 C1738 1.378 . S
C1736 C1740 1.350 . S
C1737 C1740 1.463 . S
C1737 C1742 1.350 . S
C1737 N1745 1.427 . S
C1738 H1729 0.930 . S
C1738 C1736 1.378 . S
C1738 C1739 1.367 . S
C1739 C1738 1.367 . S
C1739 C1741 1.433 . S
C1740 C1736 1.350 . S
C1740 C1737 1.463 . S
C1740 N1744 1.427 . S
C1741 H1731 0.929 . S
C1741 C1739 1.433 . S
C1741 N1744 1.384 . S
C1742 H1733 0.929 . S
C1742 C1734 1.378 . S
C1742 C1737 1.350 . S
C1743 H1730 0.929 . S
C1743 C1735 1.433 . S
C1743 N1745 1.384 . S
N1744 C1740 1.427 . S
N1744 C1741 1.384 . S
N1745 C1737 1.427 . S
N1745 C1743 1.384 . S
H1746 C1752 0.930 . S
H1747 C1756 0.930 . S
H1748 C1761 0.929 . S
H1749 C1759 0.929 . S
H1750 C1754 0.929 . S
H1751 C1760 0.929 . S
C1752 H1746 0.930 . S
C1752 C1753 1.367 1_554 S
C1752 C1760 1.378 . S
C1753 C1752 1.367 1_556 S
C1753 C1761 1.433 . S
C1754 H1750 0.929 . S
C1754 C1756 1.378 . S
C1754 C1758 1.350 . S
C1755 C1758 1.463 . S
C1755 C1760 1.350 . S
C1755 N1763 1.427 . S
C1756 H1747 0.930 . S
C1756 C1754 1.378 . S
C1756 C1757 1.367 . S
C1757 C1756 1.367 . S
C1757 C1759 1.433 . S
C1758 C1754 1.350 . S
C1758 C1755 1.463 . S
C1758 N1762 1.427 . S
C1759 H1749 0.929 . S
C1759 C1757 1.433 . S
C1759 N1762 1.384 . S
C1760 H1751 0.929 . S
C1760 C1752 1.378 . S
C1760 C1755 1.350 . S
C1761 H1748 0.929 . S
C1761 C1753 1.433 . S
C1761 N1763 1.384 1_556 S
N1762 C1758 1.427 . S
N1762 C1759 1.384 . S
N1763 C1755 1.427 . S
N1763 C1761 1.384 1_554 S
H1764 C1770 0.930 . S
H1765 C1774 0.930 . S
H1766 C1779 0.929 . S
H1767 C1777 0.929 . S
H1768 C1772 0.929 . S
H1769 C1778 0.929 . S
C1770 H1764 0.930 . S
C1770 C1771 1.367 . S
C1770 C1778 1.378 . S
C1771 C1770 1.367 . S
C1771 C1779 1.433 . S
C1772 H1768 0.929 . S
C1772 C1774 1.378 . S
C1772 C1776 1.350 . S
C1773 C1776 1.463 . S
C1773 C1778 1.350 . S
C1773 N1781 1.427 . S
C1774 H1765 0.930 . S
C1774 C1772 1.378 . S
C1774 C1775 1.367 . S
C1775 C1774 1.367 . S
C1775 C1777 1.433 . S
C1776 C1772 1.350 . S
C1776 C1773 1.463 . S
C1776 N1780 1.427 . S
C1777 H1767 0.929 . S
C1777 C1775 1.433 . S
C1777 N1780 1.384 . S
C1778 H1769 0.929 . S
C1778 C1770 1.378 . S
C1778 C1773 1.350 . S
C1779 H1766 0.929 . S
C1779 C1771 1.433 . S
C1779 N1781 1.384 . S
N1780 C1776 1.427 . S
N1780 C1777 1.384 . S
N1781 C1773 1.427 . S
N1781 C1779 1.384 . S
H1782 C1788 0.930 . S
H1783 C1792 0.930 . S
H1784 C1797 0.929 . S
H1785 C1795 0.929 . S
H1786 C1790 0.929 . S
H1787 C1796 0.929 . S
C1788 H1782 0.930 . S
C1788 C1789 1.367 1_554 S
C1788 C1796 1.378 . S
C1789 C1788 1.367 1_556 S
C1789 C1797 1.433 . S
C1790 H1786 0.929 . S
C1790 C1792 1.378 . S
C1790 C1794 1.350 . S
C1791 C1794 1.463 . S
C1791 C1796 1.350 . S
C1791 N1799 1.427 . S
C1792 H1783 0.930 . S
C1792 C1790 1.378 . S
C1792 C1793 1.367 . S
C1793 C1792 1.367 . S
C1793 C1795 1.433 . S
C1794 C1790 1.350 . S
C1794 C1791 1.463 . S
C1794 N1798 1.427 . S
C1795 H1785 0.929 . S
C1795 C1793 1.433 . S
C1795 N1798 1.384 . S
C1796 H1787 0.929 . S
C1796 C1788 1.378 . S
C1796 C1791 1.350 . S
C1797 H1784 0.929 . S
C1797 C1789 1.433 . S
C1797 N1799 1.384 1_556 S
N1798 C1794 1.427 . S
N1798 C1795 1.384 . S
N1799 C1791 1.427 . S
N1799 C1797 1.384 1_554 S
H1800 C1806 0.930 . S
H1801 C1810 0.930 . S
H1802 C1815 0.929 . S
H1803 C1813 0.929 . S
H1804 C1808 0.929 . S
H1805 C1814 0.929 . S
C1806 H1800 0.930 . S
C1806 C1807 1.367 . S
C1806 C1814 1.378 . S
C1807 C1806 1.367 . S
C1807 C1815 1.433 . S
C1808 H1804 0.929 . S
C1808 C1810 1.378 . S
C1808 C1812 1.350 . S
C1809 C1812 1.463 . S
C1809 C1814 1.350 . S
C1809 N1817 1.427 . S
C1810 H1801 0.930 . S
C1810 C1808 1.378 . S
C1810 C1811 1.367 . S
C1811 C1810 1.367 . S
C1811 C1813 1.433 . S
C1812 C1808 1.350 . S
C1812 C1809 1.463 . S
C1812 N1816 1.427 . S
C1813 H1803 0.929 . S
C1813 C1811 1.433 . S
C1813 N1816 1.384 . S
C1814 H1805 0.929 . S
C1814 C1806 1.378 . S
C1814 C1809 1.350 . S
C1815 H1802 0.929 . S
C1815 C1807 1.433 . S
C1815 N1817 1.384 . S
N1816 C1812 1.427 . S
N1816 C1813 1.384 . S
N1817 C1809 1.427 . S
N1817 C1815 1.384 . S
H1818 C1824 0.930 . S
H1819 C1828 0.930 . S
H1820 C1833 0.929 . S
H1821 C1831 0.929 . S
H1822 C1826 0.929 . S
H1823 C1832 0.929 . S
C1824 H1818 0.930 . S
C1824 C1825 1.367 . S
C1824 C1832 1.378 . S
C1825 C1824 1.367 . S
C1825 C1833 1.433 . S
C1826 H1822 0.929 . S
C1826 C1828 1.378 1_556 S
C1826 C1830 1.350 . S
C1827 C1830 1.463 . S
C1827 C1832 1.350 . S
C1827 N1835 1.427 . S
C1828 H1819 0.930 . S
C1828 C1826 1.378 1_554 S
C1828 C1829 1.367 . S
C1829 C1828 1.367 . S
C1829 C1831 1.433 1_554 S
C1830 C1826 1.350 . S
C1830 C1827 1.463 . S
C1830 N1834 1.427 . S
C1831 H1821 0.929 . S
C1831 C1829 1.433 1_556 S
C1831 N1834 1.384 . S
C1832 H1823 0.929 . S
C1832 C1824 1.378 . S
C1832 C1827 1.350 . S
C1833 H1820 0.929 . S
C1833 C1825 1.433 . S
C1833 N1835 1.384 . S
N1834 C1830 1.427 . S
N1834 C1831 1.384 . S
N1835 C1827 1.427 . S
N1835 C1833 1.384 . S
H1836 C1842 0.930 . S
H1837 C1846 0.930 . S
H1838 C1851 0.929 . S
H1839 C1849 0.929 . S
H1840 C1844 0.929 . S
H1841 C1850 0.929 . S
C1842 H1836 0.930 . S
C1842 C1843 1.367 . S
C1842 C1850 1.378 . S
C1843 C1842 1.367 . S
C1843 C1851 1.433 . S
C1844 H1840 0.929 . S
C1844 C1846 1.378 . S
C1844 C1848 1.350 . S
C1845 C1848 1.463 . S
C1845 C1850 1.350 . S
C1845 N1853 1.427 . S
C1846 H1837 0.930 . S
C1846 C1844 1.378 . S
C1846 C1847 1.367 . S
C1847 C1846 1.367 . S
C1847 C1849 1.433 . S
C1848 C1844 1.350 . S
C1848 C1845 1.463 . S
C1848 N1852 1.427 . S
C1849 H1839 0.929 . S
C1849 C1847 1.433 . S
C1849 N1852 1.384 . S
C1850 H1841 0.929 . S
C1850 C1842 1.378 . S
C1850 C1845 1.350 . S
C1851 H1838 0.929 . S
C1851 C1843 1.433 . S
C1851 N1853 1.384 . S
N1852 C1848 1.427 . S
N1852 C1849 1.384 . S
N1853 C1845 1.427 . S
N1853 C1851 1.384 . S
H1854 C1860 0.930 . S
H1855 C1864 0.930 . S
H1856 C1869 0.929 1_565 S
H1857 C1867 0.929 . S
H1858 C1862 0.929 . S
H1859 C1868 0.929 . S
C1860 H1854 0.930 . S
C1860 C1861 1.367 . S
C1860 C1868 1.378 1_554 S
C1861 C1860 1.367 . S
C1861 C1869 1.433 1_554 S
C1862 H1858 0.929 . S
C1862 C1864 1.378 . S
C1862 C1866 1.350 . S
C1863 C1866 1.463 . S
C1863 C1868 1.350 . S
C1863 N1871 1.427 . S
C1864 H1855 0.930 . S
C1864 C1862 1.378 . S
C1864 C1865 1.367 . S
C1865 C1864 1.367 . S
C1865 C1867 1.433 . S
C1866 C1862 1.350 . S
C1866 C1863 1.463 . S
C1866 N1870 1.427 . S
C1867 H1857 0.929 . S
C1867 C1865 1.433 . S
C1867 N1870 1.384 . S
C1868 H1859 0.929 . S
C1868 C1860 1.378 1_556 S
C1868 C1863 1.350 . S
C1869 H1856 0.929 1_545 S
C1869 C1861 1.433 1_556 S
C1869 N1871 1.384 . S
N1870 C1866 1.427 . S
N1870 C1867 1.384 . S
N1871 C1863 1.427 . S
N1871 C1869 1.384 . S
H1872 C1878 0.930 . S
H1873 C1882 0.930 . S
H1874 C1887 0.929 . S
H1875 C1885 0.929 . S
H1876 C1880 0.929 . S
H1877 C1886 0.929 . S
C1878 H1872 0.930 . S
C1878 C1879 1.367 . S
C1878 C1886 1.378 . S
C1879 C1878 1.367 . S
C1879 C1887 1.433 . S
C1880 H1876 0.929 . S
C1880 C1882 1.378 . S
C1880 C1884 1.350 . S
C1881 C1884 1.463 . S
C1881 C1886 1.350 . S
C1881 N1889 1.427 . S
C1882 H1873 0.930 . S
C1882 C1880 1.378 . S
C1882 C1883 1.367 . S
C1883 C1882 1.367 . S
C1883 C1885 1.433 . S
C1884 C1880 1.350 . S
C1884 C1881 1.463 . S
C1884 N1888 1.427 . S
C1885 H1875 0.929 . S
C1885 C1883 1.433 . S
C1885 N1888 1.384 . S
C1886 H1877 0.929 . S
C1886 C1878 1.378 . S
C1886 C1881 1.350 . S
C1887 H1874 0.929 . S
C1887 C1879 1.433 . S
C1887 N1889 1.384 . S
N1888 C1884 1.427 . S
N1888 C1885 1.384 . S
N1889 C1881 1.427 . S
N1889 C1887 1.384 . S
H1890 C1896 0.930 . S
H1891 C1900 0.930 . S
H1892 C1905 0.929 . S
H1893 C1903 0.929 . S
H1894 C1898 0.929 . S
H1895 C1904 0.929 . S
C1896 H1890 0.930 . S
C1896 C1897 1.367 . S
C1896 C1904 1.378 . S
C1897 C1896 1.367 . S
C1897 C1905 1.433 . S
C1898 H1894 0.929 . S
C1898 C1900 1.378 . S
C1898 C1902 1.350 . S
C1899 C1902 1.463 . S
C1899 C1904 1.350 . S
C1899 N1907 1.427 . S
C1900 H1891 0.930 . S
C1900 C1898 1.378 . S
C1900 C1901 1.367 . S
C1901 C1900 1.367 . S
C1901 C1903 1.433 . S
C1902 C1898 1.350 . S
C1902 C1899 1.463 . S
C1902 N1906 1.427 . S
C1903 H1893 0.929 . S
C1903 C1901 1.433 . S
C1903 N1906 1.384 . S
C1904 H1895 0.929 . S
C1904 C1896 1.378 . S
C1904 C1899 1.350 . S
C1905 H1892 0.929 . S
C1905 C1897 1.433 . S
C1905 N1907 1.384 . S
N1906 C1902 1.427 . S
N1906 C1903 1.384 . S
N1907 C1899 1.427 . S
N1907 C1905 1.384 . S
H1908 C1914 0.930 . S
H1909 C1918 0.930 . S
H1910 C1923 0.929 . S
H1911 C1921 0.929 . S
H1912 C1916 0.929 . S
H1913 C1922 0.929 . S
C1914 H1908 0.930 . S
C1914 C1915 1.367 . S
C1914 C1922 1.378 . S
C1915 C1914 1.367 . S
C1915 C1923 1.433 . S
C1916 H1912 0.929 . S
C1916 C1918 1.378 . S
C1916 C1920 1.350 . S
C1917 C1920 1.463 . S
C1917 C1922 1.350 . S
C1917 N1925 1.427 . S
C1918 H1909 0.930 . S
C1918 C1916 1.378 . S
C1918 C1919 1.367 . S
C1919 C1918 1.367 . S
C1919 C1921 1.433 . S
C1920 C1916 1.350 . S
C1920 C1917 1.463 . S
C1920 N1924 1.427 . S
C1921 H1911 0.929 . S
C1921 C1919 1.433 . S
C1921 N1924 1.384 . S
C1922 H1913 0.929 . S
C1922 C1914 1.378 . S
C1922 C1917 1.350 . S
C1923 H1910 0.929 . S
C1923 C1915 1.433 . S
C1923 N1925 1.384 . S
N1924 C1920 1.427 . S
N1924 C1921 1.384 . S
N1925 C1917 1.427 . S
N1925 C1923 1.384 . S
H1926 C1932 0.930 . S
H1927 C1936 0.930 . S
H1928 C1941 0.929 . S
H1929 C1939 0.929 . S
H1930 C1934 0.929 . S
H1931 C1940 0.929 . S
C1932 H1926 0.930 . S
C1932 C1933 1.367 . S
C1932 C1940 1.378 . S
C1933 C1932 1.367 . S
C1933 C1941 1.433 . S
C1934 H1930 0.929 . S
C1934 C1936 1.378 . S
C1934 C1938 1.350 . S
C1935 C1938 1.463 . S
C1935 C1940 1.350 . S
C1935 N1943 1.427 . S
C1936 H1927 0.930 . S
C1936 C1934 1.378 . S
C1936 C1937 1.367 . S
C1937 C1936 1.367 . S
C1937 C1939 1.433 . S
C1938 C1934 1.350 . S
C1938 C1935 1.463 . S
C1938 N1942 1.427 . S
C1939 H1929 0.929 . S
C1939 C1937 1.433 . S
C1939 N1942 1.384 . S
C1940 H1931 0.929 . S
C1940 C1932 1.378 . S
C1940 C1935 1.350 . S
C1941 H1928 0.929 . S
C1941 C1933 1.433 . S
C1941 N1943 1.384 . S
N1942 C1938 1.427 . S
N1942 C1939 1.384 . S
N1943 C1935 1.427 . S
N1943 C1941 1.384 . S
H1944 C1950 0.930 . S
H1945 C1954 0.930 . S
H1946 C1959 0.929 . S
H1947 C1957 0.929 . S
H1948 C1952 0.929 . S
H1949 C1958 0.929 . S
C1950 H1944 0.930 . S
C1950 C1951 1.367 . S
C1950 C1958 1.378 . S
C1951 C1950 1.367 . S
C1951 C1959 1.433 . S
C1952 H1948 0.929 . S
C1952 C1954 1.378 . S
C1952 C1956 1.350 . S
C1953 C1956 1.463 . S
C1953 C1958 1.350 . S
C1953 N1961 1.427 . S
C1954 H1945 0.930 . S
C1954 C1952 1.378 . S
C1954 C1955 1.367 . S
C1955 C1954 1.367 . S
C1955 C1957 1.433 . S
C1956 C1952 1.350 . S
C1956 C1953 1.463 . S
C1956 N1960 1.427 . S
C1957 H1947 0.929 . S
C1957 C1955 1.433 . S
C1957 N1960 1.384 . S
C1958 H1949 0.929 . S
C1958 C1950 1.378 . S
C1958 C1953 1.350 . S
C1959 H1946 0.929 . S
C1959 C1951 1.433 . S
C1959 N1961 1.384 . S
N1960 C1956 1.427 . S
N1960 C1957 1.384 . S
N1961 C1953 1.427 . S
N1961 C1959 1.384 . S
H1962 C1968 0.930 . S
H1963 C1972 0.930 . S
H1964 C1977 0.929 . S
H1965 C1975 0.929 . S
H1966 C1970 0.929 . S
H1967 C1976 0.929 . S
C1968 H1962 0.930 . S
C1968 C1969 1.367 . S
C1968 C1976 1.378 . S
C1969 C1968 1.367 . S
C1969 C1977 1.433 . S
C1970 H1966 0.929 . S
C1970 C1972 1.378 . S
C1970 C1974 1.350 . S
C1971 C1974 1.463 . S
C1971 C1976 1.350 . S
C1971 N1979 1.427 . S
C1972 H1963 0.930 . S
C1972 C1970 1.378 . S
C1972 C1973 1.367 . S
C1973 C1972 1.367 . S
C1973 C1975 1.433 . S
C1974 C1970 1.350 . S
C1974 C1971 1.463 . S
C1974 N1978 1.427 . S
C1975 H1965 0.929 . S
C1975 C1973 1.433 . S
C1975 N1978 1.384 . S
C1976 H1967 0.929 . S
C1976 C1968 1.378 . S
C1976 C1971 1.350 . S
C1977 H1964 0.929 . S
C1977 C1969 1.433 . S
C1977 N1979 1.384 . S
N1978 C1974 1.427 . S
N1978 C1975 1.384 . S
N1979 C1971 1.427 . S
N1979 C1977 1.384 . S
H1980 C1986 0.930 . S
H1981 C1990 0.930 . S
H1982 C1995 0.929 . S
H1983 C1993 0.929 . S
H1984 C1988 0.929 . S
H1985 C1994 0.929 . S
C1986 H1980 0.930 . S
C1986 C1987 1.367 . S
C1986 C1994 1.378 . S
C1987 C1986 1.367 . S
C1987 C1995 1.433 . S
C1988 H1984 0.929 . S
C1988 C1990 1.378 . S
C1988 C1992 1.350 . S
C1989 C1992 1.463 . S
C1989 C1994 1.350 . S
C1989 N1997 1.427 . S
C1990 H1981 0.930 . S
C1990 C1988 1.378 . S
C1990 C1991 1.367 . S
C1991 C1990 1.367 . S
C1991 C1993 1.433 . S
C1992 C1988 1.350 . S
C1992 C1989 1.463 . S
C1992 N1996 1.427 . S
C1993 H1983 0.929 . S
C1993 C1991 1.433 . S
C1993 N1996 1.384 . S
C1994 H1985 0.929 . S
C1994 C1986 1.378 . S
C1994 C1989 1.350 . S
C1995 H1982 0.929 . S
C1995 C1987 1.433 . S
C1995 N1997 1.384 . S
N1996 C1992 1.427 . S
N1996 C1993 1.384 . S
N1997 C1989 1.427 . S
N1997 C1995 1.384 . S
H1998 C2004 0.930 . S
H1999 C2008 0.930 . S
H2000 C2013 0.929 1_655 S
H2001 C2011 0.929 . S
H2002 C2006 0.929 . S
H2003 C2012 0.929 . S
C2004 H1998 0.930 . S
C2004 C2005 1.367 . S
C2004 C2012 1.378 1_565 S
C2005 C2004 1.367 . S
C2005 C2013 1.433 1_565 S
C2006 H2002 0.929 . S
C2006 C2008 1.378 . S
C2006 C2010 1.350 . S
C2007 C2010 1.463 . S
C2007 C2012 1.350 . S
C2007 N2015 1.427 . S
C2008 H1999 0.930 . S
C2008 C2006 1.378 . S
C2008 C2009 1.367 . S
C2009 C2008 1.367 . S
C2009 C2011 1.433 . S
C2010 C2006 1.350 . S
C2010 C2007 1.463 . S
C2010 N2014 1.427 . S
C2011 H2001 0.929 . S
C2011 C2009 1.433 . S
C2011 N2014 1.384 . S
C2012 H2003 0.929 . S
C2012 C2004 1.378 1_545 S
C2012 C2007 1.350 . S
C2013 H2000 0.929 1_455 S
C2013 C2005 1.433 1_545 S
C2013 N2015 1.384 . S
N2014 C2010 1.427 . S
N2014 C2011 1.384 . S
N2015 C2007 1.427 . S
N2015 C2013 1.384 . S
H2016 C2022 0.930 . S
H2017 C2026 0.930 . S
H2018 C2031 0.929 . S
H2019 C2029 0.929 . S
H2020 C2024 0.929 . S
H2021 C2030 0.929 . S
C2022 H2016 0.930 . S
C2022 C2023 1.367 . S
C2022 C2030 1.378 . S
C2023 C2022 1.367 . S
C2023 C2031 1.433 . S
C2024 H2020 0.929 . S
C2024 C2026 1.378 . S
C2024 C2028 1.350 . S
C2025 C2028 1.463 . S
C2025 C2030 1.350 . S
C2025 N2033 1.427 . S
C2026 H2017 0.930 . S
C2026 C2024 1.378 . S
C2026 C2027 1.367 . S
C2027 C2026 1.367 . S
C2027 C2029 1.433 . S
C2028 C2024 1.350 . S
C2028 C2025 1.463 . S
C2028 N2032 1.427 . S
C2029 H2019 0.929 . S
C2029 C2027 1.433 . S
C2029 N2032 1.384 . S
C2030 H2021 0.929 . S
C2030 C2022 1.378 . S
C2030 C2025 1.350 . S
C2031 H2018 0.929 . S
C2031 C2023 1.433 . S
C2031 N2033 1.384 . S
N2032 C2028 1.427 . S
N2032 C2029 1.384 . S
N2033 C2025 1.427 . S
N2033 C2031 1.384 . S
H2034 C2040 0.930 . S
H2035 C2044 0.930 . S
H2036 C2049 0.929 . S
H2037 C2047 0.929 . S
H2038 C2042 0.929 . S
H2039 C2048 0.929 . S
C2040 H2034 0.930 . S
C2040 C2041 1.367 . S
C2040 C2048 1.378 . S
C2041 C2040 1.367 . S
C2041 C2049 1.433 . S
C2042 H2038 0.929 . S
C2042 C2044 1.378 1_655 S
C2042 C2046 1.350 . S
C2043 C2046 1.463 . S
C2043 C2048 1.350 . S
C2043 N2051 1.427 . S
C2044 H2035 0.930 . S
C2044 C2042 1.378 1_455 S
C2044 C2045 1.367 . S
C2045 C2044 1.367 . S
C2045 C2047 1.433 1_455 S
C2046 C2042 1.350 . S
C2046 C2043 1.463 . S
C2046 N2050 1.427 . S
C2047 H2037 0.929 . S
C2047 C2045 1.433 1_655 S
C2047 N2050 1.384 . S
C2048 H2039 0.929 . S
C2048 C2040 1.378 . S
C2048 C2043 1.350 . S
C2049 H2036 0.929 . S
C2049 C2041 1.433 . S
C2049 N2051 1.384 . S
N2050 C2046 1.427 . S
N2050 C2047 1.384 . S
N2051 C2043 1.427 . S
N2051 C2049 1.384 . S
H2052 C2058 0.930 . S
H2053 C2062 0.930 . S
H2054 C2067 0.929 . S
H2055 C2065 0.929 . S
H2056 C2060 0.929 . S
H2057 C2066 0.929 . S
C2058 H2052 0.930 . S
C2058 C2059 1.367 . S
C2058 C2066 1.378 . S
C2059 C2058 1.367 . S
C2059 C2067 1.433 . S
C2060 H2056 0.929 . S
C2060 C2062 1.378 . S
C2060 C2064 1.350 . S
C2061 C2064 1.463 . S
C2061 C2066 1.350 . S
C2061 N2069 1.427 . S
C2062 H2053 0.930 . S
C2062 C2060 1.378 . S
C2062 C2063 1.367 . S
C2063 C2062 1.367 . S
C2063 C2065 1.433 . S
C2064 C2060 1.350 . S
C2064 C2061 1.463 . S
C2064 N2068 1.427 . S
C2065 H2055 0.929 . S
C2065 C2063 1.433 . S
C2065 N2068 1.384 . S
C2066 H2057 0.929 . S
C2066 C2058 1.378 . S
C2066 C2061 1.350 . S
C2067 H2054 0.929 . S
C2067 C2059 1.433 . S
C2067 N2069 1.384 . S
N2068 C2064 1.427 . S
N2068 C2065 1.384 . S
N2069 C2061 1.427 . S
N2069 C2067 1.384 . S
H2070 C2076 0.930 . S
H2071 C2080 0.930 . S
H2072 C2085 0.929 . S
H2073 C2083 0.929 . S
H2074 C2078 0.929 . S
H2075 C2084 0.929 . S
C2076 H2070 0.930 . S
C2076 C2077 1.367 . S
C2076 C2084 1.378 1_655 S
C2077 C2076 1.367 . S
C2077 C2085 1.433 1_655 S
C2078 H2074 0.929 . S
C2078 C2080 1.378 . S
C2078 C2082 1.350 . S
C2079 C2082 1.463 . S
C2079 C2084 1.350 . S
C2079 N2087 1.427 . S
C2080 H2071 0.930 . S
C2080 C2078 1.378 . S
C2080 C2081 1.367 . S
C2081 C2080 1.367 . S
C2081 C2083 1.433 . S
C2082 C2078 1.350 . S
C2082 C2079 1.463 . S
C2082 N2086 1.427 . S
C2083 H2073 0.929 . S
C2083 C2081 1.433 . S
C2083 N2086 1.384 . S
C2084 H2075 0.929 . S
C2084 C2076 1.378 1_455 S
C2084 C2079 1.350 . S
C2085 H2072 0.929 . S
C2085 C2077 1.433 1_455 S
C2085 N2087 1.384 . S
N2086 C2082 1.427 . S
N2086 C2083 1.384 . S
N2087 C2079 1.427 . S
N2087 C2085 1.384 . S
H2088 C2094 0.930 . S
H2089 C2098 0.930 . S
H2090 C2103 0.929 . S
H2091 C2101 0.929 . S
H2092 C2096 0.929 . S
H2093 C2102 0.929 . S
C2094 H2088 0.930 . S
C2094 C2095 1.367 . S
C2094 C2102 1.378 . S
C2095 C2094 1.367 . S
C2095 C2103 1.433 . S
C2096 H2092 0.929 . S
C2096 C2098 1.378 . S
C2096 C2100 1.350 . S
C2097 C2100 1.463 . S
C2097 C2102 1.350 . S
C2097 N2105 1.427 . S
C2098 H2089 0.930 . S
C2098 C2096 1.378 . S
C2098 C2099 1.367 . S
C2099 C2098 1.367 . S
C2099 C2101 1.433 . S
C2100 C2096 1.350 . S
C2100 C2097 1.463 . S
C2100 N2104 1.427 . S
C2101 H2091 0.929 . S
C2101 C2099 1.433 . S
C2101 N2104 1.384 . S
C2102 H2093 0.929 . S
C2102 C2094 1.378 . S
C2102 C2097 1.350 . S
C2103 H2090 0.929 . S
C2103 C2095 1.433 . S
C2103 N2105 1.384 . S
N2104 C2100 1.427 . S
N2104 C2101 1.384 . S
N2105 C2097 1.427 . S
N2105 C2103 1.384 . S
H2106 C2112 0.930 . S
H2107 C2116 0.930 . S
H2108 C2121 0.929 . S
H2109 C2119 0.929 . S
H2110 C2114 0.929 . S
H2111 C2120 0.929 . S
C2112 H2106 0.930 . S
C2112 C2113 1.367 . S
C2112 C2120 1.378 . S
C2113 C2112 1.367 . S
C2113 C2121 1.433 . S
C2114 H2110 0.929 . S
C2114 C2116 1.378 . S
C2114 C2118 1.350 . S
C2115 C2118 1.463 . S
C2115 C2120 1.350 . S
C2115 N2123 1.427 . S
C2116 H2107 0.930 . S
C2116 C2114 1.378 . S
C2116 C2117 1.367 . S
C2117 C2116 1.367 . S
C2117 C2119 1.433 . S
C2118 C2114 1.350 . S
C2118 C2115 1.463 . S
C2118 N2122 1.427 . S
C2119 H2109 0.929 . S
C2119 C2117 1.433 . S
C2119 N2122 1.384 . S
C2120 H2111 0.929 . S
C2120 C2112 1.378 . S
C2120 C2115 1.350 . S
C2121 H2108 0.929 . S
C2121 C2113 1.433 . S
C2121 N2123 1.384 . S
N2122 C2118 1.427 . S
N2122 C2119 1.384 . S
N2123 C2115 1.427 . S
N2123 C2121 1.384 . S
H2124 C2130 0.930 . S
H2125 C2134 0.930 . S
H2126 C2139 0.929 . S
H2127 C2137 0.929 . S
H2128 C2132 0.929 . S
H2129 C2138 0.929 . S
C2130 H2124 0.930 . S
C2130 C2131 1.367 . S
C2130 C2138 1.378 . S
C2131 C2130 1.367 . S
C2131 C2139 1.433 . S
C2132 H2128 0.929 . S
C2132 C2134 1.378 . S
C2132 C2136 1.350 . S
C2133 C2136 1.463 . S
C2133 C2138 1.350 . S
C2133 N2141 1.427 . S
C2134 H2125 0.930 . S
C2134 C2132 1.378 . S
C2134 C2135 1.367 . S
C2135 C2134 1.367 . S
C2135 C2137 1.433 . S
C2136 C2132 1.350 . S
C2136 C2133 1.463 . S
C2136 N2140 1.427 . S
C2137 H2127 0.929 . S
C2137 C2135 1.433 . S
C2137 N2140 1.384 . S
C2138 H2129 0.929 . S
C2138 C2130 1.378 . S
C2138 C2133 1.350 . S
C2139 H2126 0.929 . S
C2139 C2131 1.433 . S
C2139 N2141 1.384 . S
N2140 C2136 1.427 . S
N2140 C2137 1.384 . S
N2141 C2133 1.427 . S
N2141 C2139 1.384 . S
H2142 C2148 0.930 . S
H2143 C2152 0.930 . S
H2144 C2157 0.929 . S
H2145 C2155 0.929 . S
H2146 C2150 0.929 . S
H2147 C2156 0.929 . S
C2148 H2142 0.930 . S
C2148 C2149 1.367 . S
C2148 C2156 1.378 . S
C2149 C2148 1.367 . S
C2149 C2157 1.433 . S
C2150 H2146 0.929 . S
C2150 C2152 1.378 . S
C2150 C2154 1.350 . S
C2151 C2154 1.463 . S
C2151 C2156 1.350 . S
C2151 N2159 1.427 . S
C2152 H2143 0.930 . S
C2152 C2150 1.378 . S
C2152 C2153 1.367 . S
C2153 C2152 1.367 . S
C2153 C2155 1.433 . S
C2154 C2150 1.350 . S
C2154 C2151 1.463 . S
C2154 N2158 1.427 . S
C2155 H2145 0.929 . S
C2155 C2153 1.433 . S
C2155 N2158 1.384 . S
C2156 H2147 0.929 . S
C2156 C2148 1.378 . S
C2156 C2151 1.350 . S
C2157 H2144 0.929 . S
C2157 C2149 1.433 . S
C2157 N2159 1.384 . S
N2158 C2154 1.427 . S
N2158 C2155 1.384 . S
N2159 C2151 1.427 . S
N2159 C2157 1.384 . S
H2160 C2166 0.930 . S
H2161 C2170 0.930 . S
H2162 C2175 0.929 . S
H2163 C2173 0.929 . S
H2164 C2168 0.929 . S
H2165 C2174 0.929 . S
C2166 H2160 0.930 . S
C2166 C2167 1.367 . S
C2166 C2174 1.378 . S
C2167 C2166 1.367 . S
C2167 C2175 1.433 . S
C2168 H2164 0.929 . S
C2168 C2170 1.378 . S
C2168 C2172 1.350 . S
C2169 C2172 1.463 . S
C2169 C2174 1.350 . S
C2169 N2177 1.427 . S
C2170 H2161 0.930 . S
C2170 C2168 1.378 . S
C2170 C2171 1.367 . S
C2171 C2170 1.367 . S
C2171 C2173 1.433 . S
C2172 C2168 1.350 . S
C2172 C2169 1.463 . S
C2172 N2176 1.427 . S
C2173 H2163 0.929 . S
C2173 C2171 1.433 . S
C2173 N2176 1.384 . S
C2174 H2165 0.929 . S
C2174 C2166 1.378 . S
C2174 C2169 1.350 . S
C2175 H2162 0.929 . S
C2175 C2167 1.433 . S
C2175 N2177 1.384 . S
N2176 C2172 1.427 . S
N2176 C2173 1.384 . S
N2177 C2169 1.427 . S
N2177 C2175 1.384 . S
H2178 C2184 0.930 . S
H2179 C2188 0.930 1_545 S
H2180 C2193 0.929 . S
H2181 C2191 0.929 . S
H2182 C2186 0.929 . S
H2183 C2192 0.929 . S
C2184 H2178 0.930 . S
C2184 C2185 1.367 . S
C2184 C2192 1.378 . S
C2185 C2184 1.367 . S
C2185 C2193 1.433 . S
C2186 H2182 0.929 . S
C2186 C2188 1.378 . S
C2186 C2190 1.350 . S
C2187 C2190 1.463 . S
C2187 C2192 1.350 . S
C2187 N2195 1.427 . S
C2188 H2179 0.930 1_565 S
C2188 C2186 1.378 . S
C2188 C2189 1.367 . S
C2189 C2188 1.367 . S
C2189 C2191 1.433 . S
C2190 C2186 1.350 . S
C2190 C2187 1.463 . S
C2190 N2194 1.427 . S
C2191 H2181 0.929 . S
C2191 C2189 1.433 . S
C2191 N2194 1.384 . S
C2192 H2183 0.929 . S
C2192 C2184 1.378 . S
C2192 C2187 1.350 . S
C2193 H2180 0.929 . S
C2193 C2185 1.433 . S
C2193 N2195 1.384 . S
N2194 C2190 1.427 . S
N2194 C2191 1.384 . S
N2195 C2187 1.427 . S
N2195 C2193 1.384 . S
H2196 C2202 0.930 . S
H2197 C2206 0.930 . S
H2198 C2211 0.929 . S
H2199 C2209 0.929 . S
H2200 C2204 0.929 . S
H2201 C2210 0.929 . S
C2202 H2196 0.930 . S
C2202 C2203 1.367 . S
C2202 C2210 1.378 . S
C2203 C2202 1.367 . S
C2203 C2211 1.433 . S
C2204 H2200 0.929 . S
C2204 C2206 1.378 . S
C2204 C2208 1.350 . S
C2205 C2208 1.463 . S
C2205 C2210 1.350 . S
C2205 N2213 1.427 . S
C2206 H2197 0.930 . S
C2206 C2204 1.378 . S
C2206 C2207 1.367 . S
C2207 C2206 1.367 . S
C2207 C2209 1.433 . S
C2208 C2204 1.350 . S
C2208 C2205 1.463 . S
C2208 N2212 1.427 . S
C2209 H2199 0.929 . S
C2209 C2207 1.433 . S
C2209 N2212 1.384 . S
C2210 H2201 0.929 . S
C2210 C2202 1.378 . S
C2210 C2205 1.350 . S
C2211 H2198 0.929 . S
C2211 C2203 1.433 . S
C2211 N2213 1.384 . S
N2212 C2208 1.427 . S
N2212 C2209 1.384 . S
N2213 C2205 1.427 . S
N2213 C2211 1.384 . S
H2214 C2220 0.930 . S
H2215 C2224 0.930 . S
H2216 C2229 0.929 . S
H2217 C2227 0.929 . S
H2218 C2222 0.929 . S
H2219 C2228 0.929 . S
C2220 H2214 0.930 . S
C2220 C2221 1.367 . S
C2220 C2228 1.378 . S
C2221 C2220 1.367 . S
C2221 C2229 1.433 . S
C2222 H2218 0.929 . S
C2222 C2224 1.378 . S
C2222 C2226 1.350 . S
C2223 C2226 1.463 . S
C2223 C2228 1.350 . S
C2223 N2231 1.427 . S
C2224 H2215 0.930 . S
C2224 C2222 1.378 . S
C2224 C2225 1.367 . S
C2225 C2224 1.367 . S
C2225 C2227 1.433 . S
C2226 C2222 1.350 . S
C2226 C2223 1.463 . S
C2226 N2230 1.427 . S
C2227 H2217 0.929 . S
C2227 C2225 1.433 . S
C2227 N2230 1.384 . S
C2228 H2219 0.929 . S
C2228 C2220 1.378 . S
C2228 C2223 1.350 . S
C2229 H2216 0.929 . S
C2229 C2221 1.433 . S
C2229 N2231 1.384 . S
N2230 C2226 1.427 . S
N2230 C2227 1.384 . S
N2231 C2223 1.427 . S
N2231 C2229 1.384 . S
H2232 C2238 0.930 . S
H2233 C2242 0.930 . S
H2234 C2247 0.929 . S
H2235 C2245 0.929 . S
H2236 C2240 0.929 . S
H2237 C2246 0.929 . S
C2238 H2232 0.930 . S
C2238 C2239 1.367 . S
C2238 C2246 1.378 . S
C2239 C2238 1.367 . S
C2239 C2247 1.433 . S
C2240 H2236 0.929 . S
C2240 C2242 1.378 . S
C2240 C2244 1.350 . S
C2241 C2244 1.463 . S
C2241 C2246 1.350 . S
C2241 N2249 1.427 . S
C2242 H2233 0.930 . S
C2242 C2240 1.378 . S
C2242 C2243 1.367 . S
C2243 C2242 1.367 . S
C2243 C2245 1.433 . S
C2244 C2240 1.350 . S
C2244 C2241 1.463 . S
C2244 N2248 1.427 . S
C2245 H2235 0.929 . S
C2245 C2243 1.433 . S
C2245 N2248 1.384 . S
C2246 H2237 0.929 . S
C2246 C2238 1.378 . S
C2246 C2241 1.350 . S
C2247 H2234 0.929 . S
C2247 C2239 1.433 . S
C2247 N2249 1.384 . S
N2248 C2244 1.427 . S
N2248 C2245 1.384 . S
N2249 C2241 1.427 . S
N2249 C2247 1.384 . S
H2250 C2256 0.930 . S
H2251 C2260 0.930 . S
H2252 C2265 0.929 . S
H2253 C2263 0.929 . S
H2254 C2258 0.929 . S
H2255 C2264 0.929 . S
C2256 H2250 0.930 . S
C2256 C2257 1.367 . S
C2256 C2264 1.378 . S
C2257 C2256 1.367 . S
C2257 C2265 1.433 . S
C2258 H2254 0.929 . S
C2258 C2260 1.378 . S
C2258 C2262 1.350 . S
C2259 C2262 1.463 . S
C2259 C2264 1.350 . S
C2259 N2267 1.427 . S
C2260 H2251 0.930 . S
C2260 C2258 1.378 . S
C2260 C2261 1.367 . S
C2261 C2260 1.367 . S
C2261 C2263 1.433 . S
C2262 C2258 1.350 . S
C2262 C2259 1.463 . S
C2262 N2266 1.427 . S
C2263 H2253 0.929 . S
C2263 C2261 1.433 . S
C2263 N2266 1.384 . S
C2264 H2255 0.929 . S
C2264 C2256 1.378 . S
C2264 C2259 1.350 . S
C2265 H2252 0.929 . S
C2265 C2257 1.433 . S
C2265 N2267 1.384 . S
N2266 C2262 1.427 . S
N2266 C2263 1.384 . S
N2267 C2259 1.427 . S
N2267 C2265 1.384 . S
H2268 C2274 0.930 . S
H2269 C2278 0.930 . S
H2270 C2283 0.929 . S
H2271 C2281 0.929 . S
H2272 C2276 0.929 . S
H2273 C2282 0.929 . S
C2274 H2268 0.930 . S
C2274 C2275 1.367 . S
C2274 C2282 1.378 . S
C2275 C2274 1.367 . S
C2275 C2283 1.433 . S
C2276 H2272 0.929 . S
C2276 C2278 1.378 . S
C2276 C2280 1.350 . S
C2277 C2280 1.463 . S
C2277 C2282 1.350 . S
C2277 N2285 1.427 . S
C2278 H2269 0.930 . S
C2278 C2276 1.378 . S
C2278 C2279 1.367 . S
C2279 C2278 1.367 . S
C2279 C2281 1.433 . S
C2280 C2276 1.350 . S
C2280 C2277 1.463 . S
C2280 N2284 1.427 . S
C2281 H2271 0.929 . S
C2281 C2279 1.433 . S
C2281 N2284 1.384 . S
C2282 H2273 0.929 . S
C2282 C2274 1.378 . S
C2282 C2277 1.350 . S
C2283 H2270 0.929 . S
C2283 C2275 1.433 . S
C2283 N2285 1.384 . S
N2284 C2280 1.427 . S
N2284 C2281 1.384 . S
N2285 C2277 1.427 . S
N2285 C2283 1.384 . S
H2286 C2292 0.930 . S
H2287 C2296 0.930 . S
H2288 C2301 0.929 . S
H2289 C2299 0.929 . S
H2290 C2294 0.929 . S
H2291 C2300 0.929 . S
C2292 H2286 0.930 . S
C2292 C2293 1.367 . S
C2292 C2300 1.378 . S
C2293 C2292 1.367 . S
C2293 C2301 1.433 . S
C2294 H2290 0.929 . S
C2294 C2296 1.378 . S
C2294 C2298 1.350 . S
C2295 C2298 1.463 . S
C2295 C2300 1.350 . S
C2295 N2303 1.427 . S
C2296 H2287 0.930 . S
C2296 C2294 1.378 . S
C2296 C2297 1.367 . S
C2297 C2296 1.367 . S
C2297 C2299 1.433 . S
C2298 C2294 1.350 . S
C2298 C2295 1.463 . S
C2298 N2302 1.427 . S
C2299 H2289 0.929 . S
C2299 C2297 1.433 . S
C2299 N2302 1.384 . S
C2300 H2291 0.929 . S
C2300 C2292 1.378 . S
C2300 C2295 1.350 . S
C2301 H2288 0.929 . S
C2301 C2293 1.433 . S
C2301 N2303 1.384 . S
N2302 C2298 1.427 . S
N2302 C2299 1.384 . S
N2303 C2295 1.427 . S
N2303 C2301 1.384 . S
H2304 C2310 0.930 . S
H2305 C2314 0.930 . S
H2306 C2319 0.929 . S
H2307 C2317 0.929 . S
H2308 C2312 0.929 . S
H2309 C2318 0.929 . S
C2310 H2304 0.930 . S
C2310 C2311 1.367 . S
C2310 C2318 1.378 . S
C2311 C2310 1.367 . S
C2311 C2319 1.433 . S
C2312 H2308 0.929 . S
C2312 C2314 1.378 . S
C2312 C2316 1.350 . S
C2313 C2316 1.463 . S
C2313 C2318 1.350 . S
C2313 N2321 1.427 . S
C2314 H2305 0.930 . S
C2314 C2312 1.378 . S
C2314 C2315 1.367 . S
C2315 C2314 1.367 . S
C2315 C2317 1.433 . S
C2316 C2312 1.350 . S
C2316 C2313 1.463 . S
C2316 N2320 1.427 . S
C2317 H2307 0.929 . S
C2317 C2315 1.433 . S
C2317 N2320 1.384 . S
C2318 H2309 0.929 . S
C2318 C2310 1.378 . S
C2318 C2313 1.350 . S
C2319 H2306 0.929 . S
C2319 C2311 1.433 . S
C2319 N2321 1.384 . S
N2320 C2316 1.427 . S
N2320 C2317 1.384 . S
N2321 C2313 1.427 . S
N2321 C2319 1.384 . S
H2322 C2328 0.930 . S
H2323 C2332 0.930 . S
H2324 C2337 0.929 . S
H2325 C2335 0.929 . S
H2326 C2330 0.929 . S
H2327 C2336 0.929 . S
C2328 H2322 0.930 . S
C2328 C2329 1.367 . S
C2328 C2336 1.378 . S
C2329 C2328 1.367 . S
C2329 C2337 1.433 . S
C2330 H2326 0.929 . S
C2330 C2332 1.378 . S
C2330 C2334 1.350 . S
C2331 C2334 1.463 . S
C2331 C2336 1.350 . S
C2331 N2339 1.427 . S
C2332 H2323 0.930 . S
C2332 C2330 1.378 . S
C2332 C2333 1.367 . S
C2333 C2332 1.367 . S
C2333 C2335 1.433 . S
C2334 C2330 1.350 . S
C2334 C2331 1.463 . S
C2334 N2338 1.427 . S
C2335 H2325 0.929 . S
C2335 C2333 1.433 . S
C2335 N2338 1.384 . S
C2336 H2327 0.929 . S
C2336 C2328 1.378 . S
C2336 C2331 1.350 . S
C2337 H2324 0.929 . S
C2337 C2329 1.433 . S
C2337 N2339 1.384 . S
N2338 C2334 1.427 . S
N2338 C2335 1.384 . S
N2339 C2331 1.427 . S
N2339 C2337 1.384 . S
H2340 C2346 0.930 . S
H2341 C2350 0.930 . S
H2342 C2355 0.929 . S
H2343 C2353 0.929 . S
H2344 C2348 0.929 . S
H2345 C2354 0.929 . S
C2346 H2340 0.930 . S
C2346 C2347 1.367 1_545 S
C2346 C2354 1.378 . S
C2347 C2346 1.367 1_565 S
C2347 C2355 1.433 . S
C2348 H2344 0.929 . S
C2348 C2350 1.378 . S
C2348 C2352 1.350 . S
C2349 C2352 1.463 . S
C2349 C2354 1.350 . S
C2349 N2357 1.427 . S
C2350 H2341 0.930 . S
C2350 C2348 1.378 . S
C2350 C2351 1.367 . S
C2351 C2350 1.367 . S
C2351 C2353 1.433 . S
C2352 C2348 1.350 . S
C2352 C2349 1.463 . S
C2352 N2356 1.427 . S
C2353 H2343 0.929 . S
C2353 C2351 1.433 . S
C2353 N2356 1.384 . S
C2354 H2345 0.929 . S
C2354 C2346 1.378 . S
C2354 C2349 1.350 . S
C2355 H2342 0.929 . S
C2355 C2347 1.433 . S
C2355 N2357 1.384 1_565 S
N2356 C2352 1.427 . S
N2356 C2353 1.384 . S
N2357 C2349 1.427 . S
N2357 C2355 1.384 1_545 S
H2358 C2364 0.930 . S
H2359 C2368 0.930 . S
H2360 C2373 0.929 . S
H2361 C2371 0.929 . S
H2362 C2366 0.929 . S
H2363 C2372 0.929 . S
C2364 H2358 0.930 . S
C2364 C2365 1.367 . S
C2364 C2372 1.378 . S
C2365 C2364 1.367 . S
C2365 C2373 1.433 . S
C2366 H2362 0.929 . S
C2366 C2368 1.378 . S
C2366 C2370 1.350 . S
C2367 C2370 1.463 . S
C2367 C2372 1.350 . S
C2367 N2375 1.427 . S
C2368 H2359 0.930 . S
C2368 C2366 1.378 . S
C2368 C2369 1.367 . S
C2369 C2368 1.367 . S
C2369 C2371 1.433 . S
C2370 C2366 1.350 . S
C2370 C2367 1.463 . S
C2370 N2374 1.427 . S
C2371 H2361 0.929 . S
C2371 C2369 1.433 . S
C2371 N2374 1.384 . S
C2372 H2363 0.929 . S
C2372 C2364 1.378 . S
C2372 C2367 1.350 . S
C2373 H2360 0.929 . S
C2373 C2365 1.433 . S
C2373 N2375 1.384 . S
N2374 C2370 1.427 . S
N2374 C2371 1.384 . S
N2375 C2367 1.427 . S
N2375 C2373 1.384 . S
H2376 C2382 0.930 . S
H2377 C2386 0.930 . S
H2378 C2391 0.929 . S
H2379 C2389 0.929 . S
H2380 C2384 0.929 . S
H2381 C2390 0.929 . S
C2382 H2376 0.930 . S
C2382 C2383 1.367 1_565 S
C2382 C2390 1.378 . S
C2383 C2382 1.367 1_545 S
C2383 C2391 1.433 . S
C2384 H2380 0.929 . S
C2384 C2386 1.378 . S
C2384 C2388 1.350 . S
C2385 C2388 1.463 . S
C2385 C2390 1.350 . S
C2385 N2393 1.427 . S
C2386 H2377 0.930 . S
C2386 C2384 1.378 . S
C2386 C2387 1.367 . S
C2387 C2386 1.367 . S
C2387 C2389 1.433 . S
C2388 C2384 1.350 . S
C2388 C2385 1.463 . S
C2388 N2392 1.427 . S
C2389 H2379 0.929 . S
C2389 C2387 1.433 . S
C2389 N2392 1.384 . S
C2390 H2381 0.929 . S
C2390 C2382 1.378 . S
C2390 C2385 1.350 . S
C2391 H2378 0.929 . S
C2391 C2383 1.433 . S
C2391 N2393 1.384 1_545 S
N2392 C2388 1.427 . S
N2392 C2389 1.384 . S
N2393 C2385 1.427 . S
N2393 C2391 1.384 1_565 S
H2394 C2400 0.930 . S
H2395 C2404 0.930 . S
H2396 C2409 0.929 . S
H2397 C2407 0.929 . S
H2398 C2402 0.929 . S
H2399 C2408 0.929 . S
C2400 H2394 0.930 . S
C2400 C2401 1.367 . S
C2400 C2408 1.378 . S
C2401 C2400 1.367 . S
C2401 C2409 1.433 . S
C2402 H2398 0.929 . S
C2402 C2404 1.378 . S
C2402 C2406 1.350 . S
C2403 C2406 1.463 . S
C2403 C2408 1.350 . S
C2403 N2411 1.427 . S
C2404 H2395 0.930 . S
C2404 C2402 1.378 . S
C2404 C2405 1.367 . S
C2405 C2404 1.367 . S
C2405 C2407 1.433 . S
C2406 C2402 1.350 . S
C2406 C2403 1.463 . S
C2406 N2410 1.427 . S
C2407 H2397 0.929 . S
C2407 C2405 1.433 . S
C2407 N2410 1.384 . S
C2408 H2399 0.929 . S
C2408 C2400 1.378 . S
C2408 C2403 1.350 . S
C2409 H2396 0.929 . S
C2409 C2401 1.433 . S
C2409 N2411 1.384 . S
N2410 C2406 1.427 . S
N2410 C2407 1.384 . S
N2411 C2403 1.427 . S
N2411 C2409 1.384 . S
H2412 C2418 0.930 . S
H2413 C2422 0.930 . S
H2414 C2427 0.929 . S
H2415 C2425 0.929 . S
H2416 C2420 0.929 . S
H2417 C2426 0.929 . S
C2418 H2412 0.930 . S
C2418 C2419 1.367 . S
C2418 C2426 1.378 . S
C2419 C2418 1.367 . S
C2419 C2427 1.433 . S
C2420 H2416 0.929 . S
C2420 C2422 1.378 1_565 S
C2420 C2424 1.350 . S
C2421 C2424 1.463 . S
C2421 C2426 1.350 . S
C2421 N2429 1.427 . S
C2422 H2413 0.930 . S
C2422 C2420 1.378 1_545 S
C2422 C2423 1.367 . S
C2423 C2422 1.367 . S
C2423 C2425 1.433 1_545 S
C2424 C2420 1.350 . S
C2424 C2421 1.463 . S
C2424 N2428 1.427 . S
C2425 H2415 0.929 . S
C2425 C2423 1.433 1_565 S
C2425 N2428 1.384 . S
C2426 H2417 0.929 . S
C2426 C2418 1.378 . S
C2426 C2421 1.350 . S
C2427 H2414 0.929 . S
C2427 C2419 1.433 . S
C2427 N2429 1.384 . S
N2428 C2424 1.427 . S
N2428 C2425 1.384 . S
N2429 C2421 1.427 . S
N2429 C2427 1.384 . S
H2430 C2436 0.930 . S
H2431 C2440 0.930 . S
H2432 C2445 0.929 . S
H2433 C2443 0.929 . S
H2434 C2438 0.929 . S
H2435 C2444 0.929 . S
C2436 H2430 0.930 . S
C2436 C2437 1.367 . S
C2436 C2444 1.378 . S
C2437 C2436 1.367 . S
C2437 C2445 1.433 . S
C2438 H2434 0.929 . S
C2438 C2440 1.378 . S
C2438 C2442 1.350 . S
C2439 C2442 1.463 . S
C2439 C2444 1.350 . S
C2439 N2447 1.427 . S
C2440 H2431 0.930 . S
C2440 C2438 1.378 . S
C2440 C2441 1.367 . S
C2441 C2440 1.367 . S
C2441 C2443 1.433 . S
C2442 C2438 1.350 . S
C2442 C2439 1.463 . S
C2442 N2446 1.427 . S
C2443 H2433 0.929 . S
C2443 C2441 1.433 . S
C2443 N2446 1.384 . S
C2444 H2435 0.929 . S
C2444 C2436 1.378 . S
C2444 C2439 1.350 . S
C2445 H2432 0.929 . S
C2445 C2437 1.433 . S
C2445 N2447 1.384 . S
N2446 C2442 1.427 . S
N2446 C2443 1.384 . S
N2447 C2439 1.427 . S
N2447 C2445 1.384 . S
H2448 C2454 0.930 . S
H2449 C2458 0.930 . S
H2450 C2463 0.929 . S
H2451 C2461 0.929 . S
H2452 C2456 0.929 . S
H2453 C2462 0.929 . S
C2454 H2448 0.930 . S
C2454 C2455 1.367 . S
C2454 C2462 1.378 . S
C2455 C2454 1.367 . S
C2455 C2463 1.433 . S
C2456 H2452 0.929 . S
C2456 C2458 1.378 . S
C2456 C2460 1.350 . S
C2457 C2460 1.463 1_455 S
C2457 C2462 1.350 . S
C2457 N2465 1.427 . S
C2458 H2449 0.930 . S
C2458 C2456 1.378 . S
C2458 C2459 1.367 . S
C2459 C2458 1.367 . S
C2459 C2461 1.433 . S
C2460 C2456 1.350 . S
C2460 C2457 1.463 1_655 S
C2460 N2464 1.427 . S
C2461 H2451 0.929 . S
C2461 C2459 1.433 . S
C2461 N2464 1.384 . S
C2462 H2453 0.929 . S
C2462 C2454 1.378 . S
C2462 C2457 1.350 . S
C2463 H2450 0.929 . S
C2463 C2455 1.433 . S
C2463 N2465 1.384 . S
N2464 C2460 1.427 . S
N2464 C2461 1.384 . S
N2465 C2457 1.427 . S
N2465 C2463 1.384 . S
H2466 C2472 0.930 . S
H2467 C2476 0.930 . S
H2468 C2481 0.929 . S
H2469 C2479 0.929 . S
H2470 C2474 0.929 . S
H2471 C2480 0.929 . S
C2472 H2466 0.930 . S
C2472 C2473 1.367 . S
C2472 C2480 1.378 . S
C2473 C2472 1.367 . S
C2473 C2481 1.433 . S
C2474 H2470 0.929 . S
C2474 C2476 1.378 . S
C2474 C2478 1.350 . S
C2475 C2478 1.463 . S
C2475 C2480 1.350 . S
C2475 N2483 1.427 . S
C2476 H2467 0.930 . S
C2476 C2474 1.378 . S
C2476 C2477 1.367 . S
C2477 C2476 1.367 . S
C2477 C2479 1.433 . S
C2478 C2474 1.350 . S
C2478 C2475 1.463 . S
C2478 N2482 1.427 . S
C2479 H2469 0.929 . S
C2479 C2477 1.433 . S
C2479 N2482 1.384 . S
C2480 H2471 0.929 . S
C2480 C2472 1.378 . S
C2480 C2475 1.350 . S
C2481 H2468 0.929 . S
C2481 C2473 1.433 . S
C2481 N2483 1.384 . S
N2482 C2478 1.427 . S
N2482 C2479 1.384 . S
N2483 C2475 1.427 . S
N2483 C2481 1.384 . S
H2484 C2490 0.930 . S
H2485 C2494 0.930 . S
H2486 C2499 0.929 . S
H2487 C2497 0.929 . S
H2488 C2492 0.929 . S
H2489 C2498 0.929 . S
C2490 H2484 0.930 . S
C2490 C2491 1.367 . S
C2490 C2498 1.378 . S
C2491 C2490 1.367 . S
C2491 C2499 1.433 . S
C2492 H2488 0.929 . S
C2492 C2494 1.378 . S
C2492 C2496 1.350 . S
C2493 C2496 1.463 1_655 S
C2493 C2498 1.350 . S
C2493 N2501 1.427 . S
C2494 H2485 0.930 . S
C2494 C2492 1.378 . S
C2494 C2495 1.367 . S
C2495 C2494 1.367 . S
C2495 C2497 1.433 . S
C2496 C2492 1.350 . S
C2496 C2493 1.463 1_455 S
C2496 N2500 1.427 . S
C2497 H2487 0.929 . S
C2497 C2495 1.433 . S
C2497 N2500 1.384 . S
C2498 H2489 0.929 . S
C2498 C2490 1.378 . S
C2498 C2493 1.350 . S
C2499 H2486 0.929 . S
C2499 C2491 1.433 . S
C2499 N2501 1.384 . S
N2500 C2496 1.427 . S
N2500 C2497 1.384 . S
N2501 C2493 1.427 . S
N2501 C2499 1.384 . S
H2502 C2508 0.930 . S
H2503 C2512 0.930 . S
H2504 C2517 0.929 . S
H2505 C2515 0.929 . S
H2506 C2510 0.929 1_655 S
H2507 C2516 0.929 1_455 S
C2508 H2502 0.930 . S
C2508 C2509 1.367 . S
C2508 C2516 1.378 . S
C2509 C2508 1.367 . S
C2509 C2517 1.433 . S
C2510 H2506 0.929 1_455 S
C2510 C2512 1.378 . S
C2510 C2514 1.350 . S
C2511 C2514 1.463 1_655 S
C2511 C2516 1.350 . S
C2511 N2519 1.427 . S
C2512 H2503 0.930 . S
C2512 C2510 1.378 . S
C2512 C2513 1.367 . S
C2513 C2512 1.367 . S
C2513 C2515 1.433 . S
C2514 C2510 1.350 . S
C2514 C2511 1.463 1_455 S
C2514 N2518 1.427 . S
C2515 H2505 0.929 . S
C2515 C2513 1.433 . S
C2515 N2518 1.384 . S
C2516 H2507 0.929 1_655 S
C2516 C2508 1.378 . S
C2516 C2511 1.350 . S
C2517 H2504 0.929 . S
C2517 C2509 1.433 . S
C2517 N2519 1.384 . S
N2518 C2514 1.427 . S
N2518 C2515 1.384 . S
N2519 C2511 1.427 . S
N2519 C2517 1.384 . S
H2520 C2526 0.930 . S
H2521 C2530 0.930 . S
H2522 C2535 0.929 . S
H2523 C2533 0.929 . S
H2524 C2528 0.929 . S
H2525 C2534 0.929 . S
C2526 H2520 0.930 . S
C2526 C2527 1.367 . S
C2526 C2534 1.378 . S
C2527 C2526 1.367 . S
C2527 C2535 1.433 . S
C2528 H2524 0.929 . S
C2528 C2530 1.378 . S
C2528 C2532 1.350 . S
C2529 C2532 1.463 1_565 S
C2529 C2534 1.350 . S
C2529 N2537 1.427 . S
C2530 H2521 0.930 . S
C2530 C2528 1.378 . S
C2530 C2531 1.367 . S
C2531 C2530 1.367 . S
C2531 C2533 1.433 . S
C2532 C2528 1.350 . S
C2532 C2529 1.463 1_545 S
C2532 N2536 1.427 . S
C2533 H2523 0.929 . S
C2533 C2531 1.433 . S
C2533 N2536 1.384 . S
C2534 H2525 0.929 . S
C2534 C2526 1.378 . S
C2534 C2529 1.350 . S
C2535 H2522 0.929 . S
C2535 C2527 1.433 . S
C2535 N2537 1.384 . S
N2536 C2532 1.427 . S
N2536 C2533 1.384 . S
N2537 C2529 1.427 . S
N2537 C2535 1.384 . S
H2538 C2544 0.930 . S
H2539 C2548 0.930 . S
H2540 C2553 0.929 . S
H2541 C2551 0.929 . S
H2542 C2546 0.929 . S
H2543 C2552 0.929 . S
C2544 H2538 0.930 . S
C2544 C2545 1.367 . S
C2544 C2552 1.378 . S
C2545 C2544 1.367 . S
C2545 C2553 1.433 . S
C2546 H2542 0.929 . S
C2546 C2548 1.378 . S
C2546 C2550 1.350 . S
C2547 C2550 1.463 1_556 S
C2547 C2552 1.350 . S
C2547 N2555 1.427 . S
C2548 H2539 0.930 . S
C2548 C2546 1.378 . S
C2548 C2549 1.367 . S
C2549 C2548 1.367 . S
C2549 C2551 1.433 . S
C2550 C2546 1.350 . S
C2550 C2547 1.463 1_554 S
C2550 N2554 1.427 . S
C2551 H2541 0.929 . S
C2551 C2549 1.433 . S
C2551 N2554 1.384 . S
C2552 H2543 0.929 . S
C2552 C2544 1.378 . S
C2552 C2547 1.350 . S
C2553 H2540 0.929 . S
C2553 C2545 1.433 . S
C2553 N2555 1.384 . S
N2554 C2550 1.427 . S
N2554 C2551 1.384 . S
N2555 C2547 1.427 . S
N2555 C2553 1.384 . S
H2556 C2562 0.930 . S
H2557 C2566 0.930 . S
H2558 C2571 0.929 . S
H2559 C2569 0.929 . S
H2560 C2564 0.929 . S
H2561 C2570 0.929 . S
C2562 H2556 0.930 . S
C2562 C2563 1.367 . S
C2562 C2570 1.378 . S
C2563 C2562 1.367 . S
C2563 C2571 1.433 . S
C2564 H2560 0.929 . S
C2564 C2566 1.378 . S
C2564 C2568 1.350 . S
C2565 C2568 1.463 . S
C2565 C2570 1.350 . S
C2565 N2573 1.427 . S
C2566 H2557 0.930 . S
C2566 C2564 1.378 . S
C2566 C2567 1.367 . S
C2567 C2566 1.367 . S
C2567 C2569 1.433 . S
C2568 C2564 1.350 . S
C2568 C2565 1.463 . S
C2568 N2572 1.427 . S
C2569 H2559 0.929 . S
C2569 C2567 1.433 . S
C2569 N2572 1.384 . S
C2570 H2561 0.929 . S
C2570 C2562 1.378 . S
C2570 C2565 1.350 . S
C2571 H2558 0.929 . S
C2571 C2563 1.433 . S
C2571 N2573 1.384 . S
N2572 C2568 1.427 . S
N2572 C2569 1.384 . S
N2573 C2565 1.427 . S
N2573 C2571 1.384 . S
H2574 C2580 0.930 . S
H2575 C2584 0.930 . S
H2576 C2589 0.929 . S
H2577 C2587 0.929 . S
H2578 C2582 0.929 . S
H2579 C2588 0.929 . S
C2580 H2574 0.930 . S
C2580 C2581 1.367 . S
C2580 C2588 1.378 . S
C2581 C2580 1.367 . S
C2581 C2589 1.433 . S
C2582 H2578 0.929 . S
C2582 C2584 1.378 . S
C2582 C2586 1.350 . S
C2583 C2586 1.463 1_554 S
C2583 C2588 1.350 . S
C2583 N2591 1.427 . S
C2584 H2575 0.930 . S
C2584 C2582 1.378 . S
C2584 C2585 1.367 . S
C2585 C2584 1.367 . S
C2585 C2587 1.433 . S
C2586 C2582 1.350 . S
C2586 C2583 1.463 1_556 S
C2586 N2590 1.427 . S
C2587 H2577 0.929 . S
C2587 C2585 1.433 . S
C2587 N2590 1.384 . S
C2588 H2579 0.929 . S
C2588 C2580 1.378 . S
C2588 C2583 1.350 . S
C2589 H2576 0.929 . S
C2589 C2581 1.433 . S
C2589 N2591 1.384 . S
N2590 C2586 1.427 . S
N2590 C2587 1.384 . S
N2591 C2583 1.427 . S
N2591 C2589 1.384 . S
H2592 C2598 0.930 . S
H2593 C2602 0.930 . S
H2594 C2607 0.929 . S
H2595 C2605 0.929 . S
H2596 C2600 0.929 . S
H2597 C2606 0.929 . S
C2598 H2592 0.930 . S
C2598 C2599 1.367 . S
C2598 C2606 1.378 . S
C2599 C2598 1.367 . S
C2599 C2607 1.433 . S
C2600 H2596 0.929 . S
C2600 C2602 1.378 . S
C2600 C2604 1.350 . S
C2601 C2604 1.463 1_556 S
C2601 C2606 1.350 . S
C2601 N2609 1.427 . S
C2602 H2593 0.930 . S
C2602 C2600 1.378 . S
C2602 C2603 1.367 . S
C2603 C2602 1.367 . S
C2603 C2605 1.433 . S
C2604 C2600 1.350 . S
C2604 C2601 1.463 1_554 S
C2604 N2608 1.427 . S
C2605 H2595 0.929 . S
C2605 C2603 1.433 . S
C2605 N2608 1.384 . S
C2606 H2597 0.929 . S
C2606 C2598 1.378 . S
C2606 C2601 1.350 . S
C2607 H2594 0.929 . S
C2607 C2599 1.433 . S
C2607 N2609 1.384 . S
N2608 C2604 1.427 . S
N2608 C2605 1.384 . S
N2609 C2601 1.427 . S
N2609 C2607 1.384 . S
H2610 C2616 0.930 . S
H2611 C2620 0.930 . S
H2612 C2625 0.929 . S
H2613 C2623 0.929 . S
H2614 C2618 0.929 . S
H2615 C2624 0.929 . S
C2616 H2610 0.930 . S
C2616 C2617 1.367 . S
C2616 C2624 1.378 . S
C2617 C2616 1.367 . S
C2617 C2625 1.433 . S
C2618 H2614 0.929 . S
C2618 C2620 1.378 . S
C2618 C2622 1.350 . S
C2619 C2622 1.463 . S
C2619 C2624 1.350 . S
C2619 N2627 1.427 . S
C2620 H2611 0.930 . S
C2620 C2618 1.378 . S
C2620 C2621 1.367 . S
C2621 C2620 1.367 . S
C2621 C2623 1.433 . S
C2622 C2618 1.350 . S
C2622 C2619 1.463 . S
C2622 N2626 1.427 . S
C2623 H2613 0.929 . S
C2623 C2621 1.433 . S
C2623 N2626 1.384 . S
C2624 H2615 0.929 . S
C2624 C2616 1.378 . S
C2624 C2619 1.350 . S
C2625 H2612 0.929 . S
C2625 C2617 1.433 . S
C2625 N2627 1.384 . S
N2626 C2622 1.427 . S
N2626 C2623 1.384 . S
N2627 C2619 1.427 . S
N2627 C2625 1.384 . S
H2628 C2634 0.930 . S
H2629 C2638 0.930 . S
H2630 C2643 0.929 . S
H2631 C2641 0.929 . S
H2632 C2636 0.929 . S
H2633 C2642 0.929 . S
C2634 H2628 0.930 . S
C2634 C2635 1.367 . S
C2634 C2642 1.378 . S
C2635 C2634 1.367 . S
C2635 C2643 1.433 . S
C2636 H2632 0.929 . S
C2636 C2638 1.378 . S
C2636 C2640 1.350 . S
C2637 C2640 1.463 . S
C2637 C2642 1.350 . S
C2637 N2645 1.427 . S
C2638 H2629 0.930 . S
C2638 C2636 1.378 . S
C2638 C2639 1.367 . S
C2639 C2638 1.367 . S
C2639 C2641 1.433 . S
C2640 C2636 1.350 . S
C2640 C2637 1.463 . S
C2640 N2644 1.427 . S
C2641 H2631 0.929 . S
C2641 C2639 1.433 . S
C2641 N2644 1.384 . S
C2642 H2633 0.929 . S
C2642 C2634 1.378 . S
C2642 C2637 1.350 . S
C2643 H2630 0.929 . S
C2643 C2635 1.433 . S
C2643 N2645 1.384 . S
N2644 C2640 1.427 . S
N2644 C2641 1.384 . S
N2645 C2637 1.427 . S
N2645 C2643 1.384 . S
H2646 C2652 0.930 . S
H2647 C2656 0.930 . S
H2648 C2661 0.929 . S
H2649 C2659 0.929 . S
H2650 C2654 0.929 . S
H2651 C2660 0.929 . S
C2652 H2646 0.930 . S
C2652 C2653 1.367 . S
C2652 C2660 1.378 . S
C2653 C2652 1.367 . S
C2653 C2661 1.433 . S
C2654 H2650 0.929 . S
C2654 C2656 1.378 . S
C2654 C2658 1.350 . S
C2655 C2658 1.463 . S
C2655 C2660 1.350 . S
C2655 N2663 1.427 . S
C2656 H2647 0.930 . S
C2656 C2654 1.378 . S
C2656 C2657 1.367 . S
C2657 C2656 1.367 . S
C2657 C2659 1.433 . S
C2658 C2654 1.350 . S
C2658 C2655 1.463 . S
C2658 N2662 1.427 . S
C2659 H2649 0.929 . S
C2659 C2657 1.433 . S
C2659 N2662 1.384 . S
C2660 H2651 0.929 . S
C2660 C2652 1.378 . S
C2660 C2655 1.350 . S
C2661 H2648 0.929 . S
C2661 C2653 1.433 . S
C2661 N2663 1.384 . S
N2662 C2658 1.427 . S
N2662 C2659 1.384 . S
N2663 C2655 1.427 . S
N2663 C2661 1.384 . S
H2664 C2670 0.930 . S
H2665 C2674 0.930 . S
H2666 C2679 0.929 . S
H2667 C2677 0.929 . S
H2668 C2672 0.929 . S
H2669 C2678 0.929 . S
C2670 H2664 0.930 . S
C2670 C2671 1.367 . S
C2670 C2678 1.378 . S
C2671 C2670 1.367 . S
C2671 C2679 1.433 . S
C2672 H2668 0.929 . S
C2672 C2674 1.378 . S
C2672 C2676 1.350 . S
C2673 C2676 1.463 . S
C2673 C2678 1.350 . S
C2673 N2681 1.427 . S
C2674 H2665 0.930 . S
C2674 C2672 1.378 . S
C2674 C2675 1.367 . S
C2675 C2674 1.367 . S
C2675 C2677 1.433 . S
C2676 C2672 1.350 . S
C2676 C2673 1.463 . S
C2676 N2680 1.427 . S
C2677 H2667 0.929 . S
C2677 C2675 1.433 . S
C2677 N2680 1.384 . S
C2678 H2669 0.929 . S
C2678 C2670 1.378 . S
C2678 C2673 1.350 . S
C2679 H2666 0.929 . S
C2679 C2671 1.433 . S
C2679 N2681 1.384 . S
N2680 C2676 1.427 . S
N2680 C2677 1.384 . S
N2681 C2673 1.427 . S
N2681 C2679 1.384 . S
H2682 C2688 0.930 . S
H2683 C2692 0.930 . S
H2684 C2697 0.929 . S
H2685 C2695 0.929 . S
H2686 C2690 0.929 1_545 S
H2687 C2696 0.929 1_565 S
C2688 H2682 0.930 . S
C2688 C2689 1.367 . S
C2688 C2696 1.378 . S
C2689 C2688 1.367 . S
C2689 C2697 1.433 . S
C2690 H2686 0.929 1_565 S
C2690 C2692 1.378 . S
C2690 C2694 1.350 . S
C2691 C2694 1.463 1_545 S
C2691 C2696 1.350 . S
C2691 N2699 1.427 . S
C2692 H2683 0.930 . S
C2692 C2690 1.378 . S
C2692 C2693 1.367 . S
C2693 C2692 1.367 . S
C2693 C2695 1.433 . S
C2694 C2690 1.350 . S
C2694 C2691 1.463 1_565 S
C2694 N2698 1.427 . S
C2695 H2685 0.929 . S
C2695 C2693 1.433 . S
C2695 N2698 1.384 . S
C2696 H2687 0.929 1_545 S
C2696 C2688 1.378 . S
C2696 C2691 1.350 . S
C2697 H2684 0.929 . S
C2697 C2689 1.433 . S
C2697 N2699 1.384 . S
N2698 C2694 1.427 . S
N2698 C2695 1.384 . S
N2699 C2691 1.427 . S
N2699 C2697 1.384 . S
H2700 C2706 0.930 . S
H2701 C2710 0.930 . S
H2702 C2715 0.929 . S
H2703 C2713 0.929 . S
H2704 C2708 0.929 . S
H2705 C2714 0.929 . S
C2706 H2700 0.930 . S
C2706 C2707 1.367 . S
C2706 C2714 1.378 . S
C2707 C2706 1.367 . S
C2707 C2715 1.433 . S
C2708 H2704 0.929 . S
C2708 C2710 1.378 . S
C2708 C2712 1.350 . S
C2709 C2712 1.463 . S
C2709 C2714 1.350 . S
C2709 N2717 1.427 . S
C2710 H2701 0.930 . S
C2710 C2708 1.378 . S
C2710 C2711 1.367 . S
C2711 C2710 1.367 . S
C2711 C2713 1.433 . S
C2712 C2708 1.350 . S
C2712 C2709 1.463 . S
C2712 N2716 1.427 . S
C2713 H2703 0.929 . S
C2713 C2711 1.433 . S
C2713 N2716 1.384 . S
C2714 H2705 0.929 . S
C2714 C2706 1.378 . S
C2714 C2709 1.350 . S
C2715 H2702 0.929 . S
C2715 C2707 1.433 . S
C2715 N2717 1.384 . S
N2716 C2712 1.427 . S
N2716 C2713 1.384 . S
N2717 C2709 1.427 . S
N2717 C2715 1.384 . S
H2718 C2724 0.930 . S
H2719 C2728 0.930 . S
H2720 C2733 0.929 . S
H2721 C2731 0.929 . S
H2722 C2726 0.929 . S
H2723 C2732 0.929 . S
C2724 H2718 0.930 . S
C2724 C2725 1.367 . S
C2724 C2732 1.378 . S
C2725 C2724 1.367 . S
C2725 C2733 1.433 . S
C2726 H2722 0.929 . S
C2726 C2728 1.378 . S
C2726 C2730 1.350 . S
C2727 C2730 1.463 1_655 S
C2727 C2732 1.350 . S
C2727 N2735 1.427 . S
C2728 H2719 0.930 . S
C2728 C2726 1.378 . S
C2728 C2729 1.367 . S
C2729 C2728 1.367 . S
C2729 C2731 1.433 . S
C2730 C2726 1.350 . S
C2730 C2727 1.463 1_455 S
C2730 N2734 1.427 . S
C2731 H2721 0.929 . S
C2731 C2729 1.433 . S
C2731 N2734 1.384 . S
C2732 H2723 0.929 . S
C2732 C2724 1.378 . S
C2732 C2727 1.350 . S
C2733 H2720 0.929 . S
C2733 C2725 1.433 . S
C2733 N2735 1.384 . S
N2734 C2730 1.427 . S
N2734 C2731 1.384 . S
N2735 C2727 1.427 . S
N2735 C2733 1.384 . S
H2736 C2742 0.930 . S
H2737 C2746 0.930 . S
H2738 C2751 0.929 . S
H2739 C2749 0.929 . S
H2740 C2744 0.929 . S
H2741 C2750 0.929 . S
C2742 H2736 0.930 . S
C2742 C2743 1.367 . S
C2742 C2750 1.378 . S
C2743 C2742 1.367 . S
C2743 C2751 1.433 . S
C2744 H2740 0.929 . S
C2744 C2746 1.378 . S
C2744 C2748 1.350 . S
C2745 C2748 1.463 . S
C2745 C2750 1.350 . S
C2745 N2753 1.427 . S
C2746 H2737 0.930 . S
C2746 C2744 1.378 . S
C2746 C2747 1.367 . S
C2747 C2746 1.367 . S
C2747 C2749 1.433 . S
C2748 C2744 1.350 . S
C2748 C2745 1.463 . S
C2748 N2752 1.427 . S
C2749 H2739 0.929 . S
C2749 C2747 1.433 . S
C2749 N2752 1.384 . S
C2750 H2741 0.929 . S
C2750 C2742 1.378 . S
C2750 C2745 1.350 . S
C2751 H2738 0.929 . S
C2751 C2743 1.433 . S
C2751 N2753 1.384 . S
N2752 C2748 1.427 . S
N2752 C2749 1.384 . S
N2753 C2745 1.427 . S
N2753 C2751 1.384 . S
H2754 C2760 0.930 . S
H2755 C2764 0.930 . S
H2756 C2769 0.929 . S
H2757 C2767 0.929 . S
H2758 C2762 0.929 . S
H2759 C2768 0.929 . S
C2760 H2754 0.930 . S
C2760 C2761 1.367 . S
C2760 C2768 1.378 . S
C2761 C2760 1.367 . S
C2761 C2769 1.433 . S
C2762 H2758 0.929 . S
C2762 C2764 1.378 . S
C2762 C2766 1.350 . S
C2763 C2766 1.463 . S
C2763 C2768 1.350 . S
C2763 N2771 1.427 . S
C2764 H2755 0.930 . S
C2764 C2762 1.378 . S
C2764 C2765 1.367 . S
C2765 C2764 1.367 . S
C2765 C2767 1.433 . S
C2766 C2762 1.350 . S
C2766 C2763 1.463 . S
C2766 N2770 1.427 . S
C2767 H2757 0.929 . S
C2767 C2765 1.433 . S
C2767 N2770 1.384 . S
C2768 H2759 0.929 . S
C2768 C2760 1.378 . S
C2768 C2763 1.350 . S
C2769 H2756 0.929 . S
C2769 C2761 1.433 . S
C2769 N2771 1.384 . S
N2770 C2766 1.427 . S
N2770 C2767 1.384 . S
N2771 C2763 1.427 . S
N2771 C2769 1.384 . S
H2772 C2778 0.930 . S
H2773 C2782 0.930 . S
H2774 C2787 0.929 . S
H2775 C2785 0.929 . S
H2776 C2780 0.929 . S
H2777 C2786 0.929 . S
C2778 H2772 0.930 . S
C2778 C2779 1.367 . S
C2778 C2786 1.378 . S
C2779 C2778 1.367 . S
C2779 C2787 1.433 . S
C2780 H2776 0.929 . S
C2780 C2782 1.378 . S
C2780 C2784 1.350 . S
C2781 C2784 1.463 . S
C2781 C2786 1.350 . S
C2781 N2789 1.427 . S
C2782 H2773 0.930 . S
C2782 C2780 1.378 . S
C2782 C2783 1.367 . S
C2783 C2782 1.367 . S
C2783 C2785 1.433 . S
C2784 C2780 1.350 . S
C2784 C2781 1.463 . S
C2784 N2788 1.427 . S
C2785 H2775 0.929 . S
C2785 C2783 1.433 . S
C2785 N2788 1.384 . S
C2786 H2777 0.929 . S
C2786 C2778 1.378 . S
C2786 C2781 1.350 . S
C2787 H2774 0.929 . S
C2787 C2779 1.433 . S
C2787 N2789 1.384 . S
N2788 C2784 1.427 . S
N2788 C2785 1.384 . S
N2789 C2781 1.427 . S
N2789 C2787 1.384 . S
H2790 C2796 0.930 . S
H2791 C2800 0.930 . S
H2792 C2805 0.929 . S
H2793 C2803 0.929 . S
H2794 C2798 0.929 . S
H2795 C2804 0.929 . S
C2796 H2790 0.930 . S
C2796 C2797 1.367 . S
C2796 C2804 1.378 . S
C2797 C2796 1.367 . S
C2797 C2805 1.433 . S
C2798 H2794 0.929 . S
C2798 C2800 1.378 . S
C2798 C2802 1.350 . S
C2799 C2802 1.463 . S
C2799 C2804 1.350 . S
C2799 N2807 1.427 . S
C2800 H2791 0.930 . S
C2800 C2798 1.378 . S
C2800 C2801 1.367 . S
C2801 C2800 1.367 . S
C2801 C2803 1.433 . S
C2802 C2798 1.350 . S
C2802 C2799 1.463 . S
C2802 N2806 1.427 . S
C2803 H2793 0.929 . S
C2803 C2801 1.433 . S
C2803 N2806 1.384 . S
C2804 H2795 0.929 . S
C2804 C2796 1.378 . S
C2804 C2799 1.350 . S
C2805 H2792 0.929 . S
C2805 C2797 1.433 . S
C2805 N2807 1.384 . S
N2806 C2802 1.427 . S
N2806 C2803 1.384 . S
N2807 C2799 1.427 . S
N2807 C2805 1.384 . S
H2808 C2814 0.930 . S
H2809 C2818 0.930 . S
H2810 C2823 0.929 . S
H2811 C2821 0.929 . S
H2812 C2816 0.929 1_565 S
H2813 C2822 0.929 1_545 S
C2814 H2808 0.930 . S
C2814 C2815 1.367 . S
C2814 C2822 1.378 . S
C2815 C2814 1.367 . S
C2815 C2823 1.433 . S
C2816 H2812 0.929 1_545 S
C2816 C2818 1.378 . S
C2816 C2820 1.350 . S
C2817 C2820 1.463 1_565 S
C2817 C2822 1.350 . S
C2817 N2825 1.427 . S
C2818 H2809 0.930 . S
C2818 C2816 1.378 . S
C2818 C2819 1.367 . S
C2819 C2818 1.367 . S
C2819 C2821 1.433 . S
C2820 C2816 1.350 . S
C2820 C2817 1.463 1_545 S
C2820 N2824 1.427 . S
C2821 H2811 0.929 . S
C2821 C2819 1.433 . S
C2821 N2824 1.384 . S
C2822 H2813 0.929 1_565 S
C2822 C2814 1.378 . S
C2822 C2817 1.350 . S
C2823 H2810 0.929 . S
C2823 C2815 1.433 . S
C2823 N2825 1.384 . S
N2824 C2820 1.427 . S
N2824 C2821 1.384 . S
N2825 C2817 1.427 . S
N2825 C2823 1.384 . S
H2826 C2832 0.930 . S
H2827 C2836 0.930 . S
H2828 C2841 0.929 . S
H2829 C2839 0.929 . S
H2830 C2834 0.929 . S
H2831 C2840 0.929 . S
C2832 H2826 0.930 . S
C2832 C2833 1.367 . S
C2832 C2840 1.378 . S
C2833 C2832 1.367 . S
C2833 C2841 1.433 . S
C2834 H2830 0.929 . S
C2834 C2836 1.378 . S
C2834 C2838 1.350 . S
C2835 C2838 1.463 . S
C2835 C2840 1.350 . S
C2835 N2843 1.427 . S
C2836 H2827 0.930 . S
C2836 C2834 1.378 . S
C2836 C2837 1.367 . S
C2837 C2836 1.367 . S
C2837 C2839 1.433 . S
C2838 C2834 1.350 . S
C2838 C2835 1.463 . S
C2838 N2842 1.427 . S
C2839 H2829 0.929 . S
C2839 C2837 1.433 . S
C2839 N2842 1.384 . S
C2840 H2831 0.929 . S
C2840 C2832 1.378 . S
C2840 C2835 1.350 . S
C2841 H2828 0.929 . S
C2841 C2833 1.433 . S
C2841 N2843 1.384 . S
N2842 C2838 1.427 . S
N2842 C2839 1.384 . S
N2843 C2835 1.427 . S
N2843 C2841 1.384 . S
H2844 C2850 0.930 . S
H2845 C2854 0.930 . S
H2846 C2859 0.929 . S
H2847 C2857 0.929 . S
H2848 C2852 0.929 1_554 S
H2849 C2858 0.929 1_556 S
C2850 H2844 0.930 . S
C2850 C2851 1.367 . S
C2850 C2858 1.378 . S
C2851 C2850 1.367 . S
C2851 C2859 1.433 . S
C2852 H2848 0.929 1_556 S
C2852 C2854 1.378 . S
C2852 C2856 1.350 . S
C2853 C2856 1.463 1_554 S
C2853 C2858 1.350 . S
C2853 N2861 1.427 . S
C2854 H2845 0.930 . S
C2854 C2852 1.378 . S
C2854 C2855 1.367 . S
C2855 C2854 1.367 . S
C2855 C2857 1.433 . S
C2856 C2852 1.350 . S
C2856 C2853 1.463 1_556 S
C2856 N2860 1.427 . S
C2857 H2847 0.929 . S
C2857 C2855 1.433 . S
C2857 N2860 1.384 . S
C2858 H2849 0.929 1_554 S
C2858 C2850 1.378 . S
C2858 C2853 1.350 . S
C2859 H2846 0.929 . S
C2859 C2851 1.433 . S
C2859 N2861 1.384 . S
N2860 C2856 1.427 . S
N2860 C2857 1.384 . S
N2861 C2853 1.427 . S
N2861 C2859 1.384 . S
H2862 C2868 0.930 . S
H2863 C2872 0.930 . S
H2864 C2877 0.929 . S
H2865 C2875 0.929 . S
H2866 C2870 0.932 . S
H2867 C2876 0.932 . S
C2868 H2862 0.930 . S
C2868 C2869 1.367 . S
C2868 C2876 1.375 1_565 S
C2869 C2868 1.367 . S
C2869 C2877 1.433 . S
C2870 H2866 0.932 . S
C2870 C2872 1.375 1_565 S
C2870 C2874 1.349 1_565 S
C2871 C2874 1.463 1_565 S
C2871 C2876 1.349 1_565 S
C2871 N2879 1.427 . S
C2872 H2863 0.930 . S
C2872 C2870 1.375 1_545 S
C2872 C2873 1.367 . S
C2873 C2872 1.367 . S
C2873 C2875 1.433 . S
C2874 C2870 1.349 1_545 S
C2874 C2871 1.463 1_545 S
C2874 N2878 1.427 . S
C2875 H2865 0.929 . S
C2875 C2873 1.433 . S
C2875 N2878 1.384 . S
C2876 H2867 0.932 . S
C2876 C2868 1.375 1_545 S
C2876 C2871 1.349 1_545 S
C2877 H2864 0.929 . S
C2877 C2869 1.433 . S
C2877 N2879 1.384 . S
N2878 C2874 1.427 . S
N2878 C2875 1.384 . S
N2879 C2871 1.427 . S
N2879 C2877 1.384 . S
H2880 C2886 0.930 . S
H2881 C2890 0.930 . S
H2882 C2895 0.929 . S
H2883 C2893 0.929 . S
H2884 C2888 0.929 . S
H2885 C2894 0.929 . S
C2886 H2880 0.930 . S
C2886 C2887 1.367 . S
C2886 C2894 1.378 . S
C2887 C2886 1.367 . S
C2887 C2895 1.433 . S
C2888 H2884 0.929 . S
C2888 C2890 1.378 . S
C2888 C2892 1.350 . S
C2889 C2892 1.463 . S
C2889 C2894 1.350 . S
C2889 N2897 1.427 . S
C2890 H2881 0.930 . S
C2890 C2888 1.378 . S
C2890 C2891 1.367 . S
C2891 C2890 1.367 . S
C2891 C2893 1.433 . S
C2892 C2888 1.350 . S
C2892 C2889 1.463 . S
C2892 N2896 1.427 . S
C2893 H2883 0.929 . S
C2893 C2891 1.433 . S
C2893 N2896 1.384 . S
C2894 H2885 0.929 . S
C2894 C2886 1.378 . S
C2894 C2889 1.350 . S
C2895 H2882 0.929 . S
C2895 C2887 1.433 . S
C2895 N2897 1.384 . S
N2896 C2892 1.427 . S
N2896 C2893 1.384 . S
N2897 C2889 1.427 . S
N2897 C2895 1.384 . S
H2898 C2904 0.930 . S
H2899 C2908 0.930 . S
H2900 C2913 0.929 . S
H2901 C2911 0.929 . S
H2902 C2906 0.929 . S
H2903 C2912 0.929 . S
C2904 H2898 0.930 . S
C2904 C2905 1.367 . S
C2904 C2912 1.378 . S
C2905 C2904 1.367 . S
C2905 C2913 1.433 . S
C2906 H2902 0.929 . S
C2906 C2908 1.378 . S
C2906 C2910 1.350 . S
C2907 C2910 1.463 . S
C2907 C2912 1.350 . S
C2907 N2915 1.427 . S
C2908 H2899 0.930 . S
C2908 C2906 1.378 . S
C2908 C2909 1.367 . S
C2909 C2908 1.367 . S
C2909 C2911 1.433 . S
C2910 C2906 1.350 . S
C2910 C2907 1.463 . S
C2910 N2914 1.427 . S
C2911 H2901 0.929 . S
C2911 C2909 1.433 . S
C2911 N2914 1.384 . S
C2912 H2903 0.929 . S
C2912 C2904 1.378 . S
C2912 C2907 1.350 . S
C2913 H2900 0.929 . S
C2913 C2905 1.433 . S
C2913 N2915 1.384 . S
N2914 C2910 1.427 . S
N2914 C2911 1.384 . S
N2915 C2907 1.427 . S
N2915 C2913 1.384 . S
H2916 C2922 0.930 . S
H2917 C2926 0.930 . S
H2918 C2931 0.929 . S
H2919 C2929 0.929 . S
H2920 C2924 0.929 . S
H2921 C2930 0.929 . S
C2922 H2916 0.930 . S
C2922 C2923 1.367 . S
C2922 C2930 1.378 . S
C2923 C2922 1.367 . S
C2923 C2931 1.433 . S
C2924 H2920 0.929 . S
C2924 C2926 1.378 . S
C2924 C2928 1.350 . S
C2925 C2928 1.463 . S
C2925 C2930 1.350 . S
C2925 N2933 1.427 . S
C2926 H2917 0.930 . S
C2926 C2924 1.378 . S
C2926 C2927 1.367 . S
C2927 C2926 1.367 . S
C2927 C2929 1.433 . S
C2928 C2924 1.350 . S
C2928 C2925 1.463 . S
C2928 N2932 1.427 . S
C2929 H2919 0.929 . S
C2929 C2927 1.433 . S
C2929 N2932 1.384 . S
C2930 H2921 0.929 . S
C2930 C2922 1.378 . S
C2930 C2925 1.350 . S
C2931 H2918 0.929 . S
C2931 C2923 1.433 . S
C2931 N2933 1.384 . S
N2932 C2928 1.427 . S
N2932 C2929 1.384 . S
N2933 C2925 1.427 . S
N2933 C2931 1.384 . S
H2934 C2940 0.930 . S
H2935 C2944 0.930 . S
H2936 C2949 0.929 . S
H2937 C2947 0.929 . S
H2938 C2942 0.929 . S
H2939 C2948 0.929 . S
C2940 H2934 0.930 . S
C2940 C2941 1.367 . S
C2940 C2948 1.378 . S
C2941 C2940 1.367 . S
C2941 C2949 1.433 . S
C2942 H2938 0.929 . S
C2942 C2944 1.378 . S
C2942 C2946 1.350 . S
C2943 C2946 1.463 . S
C2943 C2948 1.350 . S
C2943 N2951 1.427 . S
C2944 H2935 0.930 . S
C2944 C2942 1.378 . S
C2944 C2945 1.367 . S
C2945 C2944 1.367 . S
C2945 C2947 1.433 . S
C2946 C2942 1.350 . S
C2946 C2943 1.463 . S
C2946 N2950 1.427 . S
C2947 H2937 0.929 . S
C2947 C2945 1.433 . S
C2947 N2950 1.384 . S
C2948 H2939 0.929 . S
C2948 C2940 1.378 . S
C2948 C2943 1.350 . S
C2949 H2936 0.929 . S
C2949 C2941 1.433 . S
C2949 N2951 1.384 . S
N2950 C2946 1.427 . S
N2950 C2947 1.384 . S
N2951 C2943 1.427 . S
N2951 C2949 1.384 . S
H2952 C2958 0.930 . S
H2953 C2962 0.930 . S
H2954 C2967 0.929 . S
H2955 C2965 0.929 . S
H2956 C2960 0.929 . S
H2957 C2966 0.929 . S
C2958 H2952 0.930 . S
C2958 C2959 1.367 . S
C2958 C2966 1.378 . S
C2959 C2958 1.367 . S
C2959 C2967 1.433 . S
C2960 H2956 0.929 . S
C2960 C2962 1.378 . S
C2960 C2964 1.350 . S
C2961 C2964 1.463 . S
C2961 C2966 1.350 . S
C2961 N2969 1.427 . S
C2962 H2953 0.930 . S
C2962 C2960 1.378 . S
C2962 C2963 1.367 . S
C2963 C2962 1.367 . S
C2963 C2965 1.433 . S
C2964 C2960 1.350 . S
C2964 C2961 1.463 . S
C2964 N2968 1.427 . S
C2965 H2955 0.929 . S
C2965 C2963 1.433 . S
C2965 N2968 1.384 . S
C2966 H2957 0.929 . S
C2966 C2958 1.378 . S
C2966 C2961 1.350 . S
C2967 H2954 0.929 . S
C2967 C2959 1.433 . S
C2967 N2969 1.384 . S
N2968 C2964 1.427 . S
N2968 C2965 1.384 . S
N2969 C2961 1.427 . S
N2969 C2967 1.384 . S
H2970 C2976 0.930 . S
H2971 C2980 0.930 . S
H2972 C2985 0.929 . S
H2973 C2983 0.929 . S
H2974 C2978 0.929 . S
H2975 C2984 0.929 . S
C2976 H2970 0.930 . S
C2976 C2977 1.367 . S
C2976 C2984 1.378 . S
C2977 C2976 1.367 . S
C2977 C2985 1.433 . S
C2978 H2974 0.929 . S
C2978 C2980 1.378 . S
C2978 C2982 1.350 . S
C2979 C2982 1.463 . S
C2979 C2984 1.350 . S
C2979 N2987 1.427 . S
C2980 H2971 0.930 . S
C2980 C2978 1.378 . S
C2980 C2981 1.367 . S
C2981 C2980 1.367 . S
C2981 C2983 1.433 . S
C2982 C2978 1.350 . S
C2982 C2979 1.463 . S
C2982 N2986 1.427 . S
C2983 H2973 0.929 . S
C2983 C2981 1.433 . S
C2983 N2986 1.384 . S
C2984 H2975 0.929 . S
C2984 C2976 1.378 . S
C2984 C2979 1.350 . S
C2985 H2972 0.929 . S
C2985 C2977 1.433 . S
C2985 N2987 1.384 . S
N2986 C2982 1.427 . S
N2986 C2983 1.384 . S
N2987 C2979 1.427 . S
N2987 C2985 1.384 . S
H2988 C2994 0.930 . S
H2989 C2998 0.930 . S
H2990 C3003 0.929 . S
H2991 C3001 0.929 . S
H2992 C2996 0.929 . S
H2993 C3002 0.929 . S
C2994 H2988 0.930 . S
C2994 C2995 1.367 . S
C2994 C3002 1.378 . S
C2995 C2994 1.367 . S
C2995 C3003 1.433 . S
C2996 H2992 0.929 . S
C2996 C2998 1.378 . S
C2996 C3000 1.350 . S
C2997 C3000 1.463 . S
C2997 C3002 1.350 . S
C2997 N3005 1.427 . S
C2998 H2989 0.930 . S
C2998 C2996 1.378 . S
C2998 C2999 1.367 . S
C2999 C2998 1.367 . S
C2999 C3001 1.433 . S
C3000 C2996 1.350 . S
C3000 C2997 1.463 . S
C3000 N3004 1.427 . S
C3001 H2991 0.929 . S
C3001 C2999 1.433 . S
C3001 N3004 1.384 . S
C3002 H2993 0.929 . S
C3002 C2994 1.378 . S
C3002 C2997 1.350 . S
C3003 H2990 0.929 . S
C3003 C2995 1.433 . S
C3003 N3005 1.384 . S
N3004 C3000 1.427 . S
N3004 C3001 1.384 . S
N3005 C2997 1.427 . S
N3005 C3003 1.384 . S
H3006 C3012 0.930 . S
H3007 C3016 0.930 . S
H3008 C3021 0.929 . S
H3009 C3019 0.929 . S
H3010 C3014 0.929 . S
H3011 C3020 0.929 . S
C3012 H3006 0.930 . S
C3012 C3013 1.367 . S
C3012 C3020 1.378 . S
C3013 C3012 1.367 . S
C3013 C3021 1.433 . S
C3014 H3010 0.929 . S
C3014 C3016 1.378 . S
C3014 C3018 1.350 . S
C3015 C3018 1.463 . S
C3015 C3020 1.350 . S
C3015 N3023 1.427 . S
C3016 H3007 0.930 . S
C3016 C3014 1.378 . S
C3016 C3017 1.367 . S
C3017 C3016 1.367 . S
C3017 C3019 1.433 . S
C3018 C3014 1.350 . S
C3018 C3015 1.463 . S
C3018 N3022 1.427 . S
C3019 H3009 0.929 . S
C3019 C3017 1.433 . S
C3019 N3022 1.384 . S
C3020 H3011 0.929 . S
C3020 C3012 1.378 . S
C3020 C3015 1.350 . S
C3021 H3008 0.929 . S
C3021 C3013 1.433 . S
C3021 N3023 1.384 . S
N3022 C3018 1.427 . S
N3022 C3019 1.384 . S
N3023 C3015 1.427 . S
N3023 C3021 1.384 . S
H3024 C3030 0.930 . S
H3025 C3034 0.930 . S
H3026 C3039 0.929 . S
H3027 C3037 0.929 . S
H3028 C3032 0.929 . S
H3029 C3038 0.929 . S
C3030 H3024 0.930 . S
C3030 C3031 1.367 . S
C3030 C3038 1.378 . S
C3031 C3030 1.367 . S
C3031 C3039 1.433 . S
C3032 H3028 0.929 . S
C3032 C3034 1.378 . S
C3032 C3036 1.350 . S
C3033 C3036 1.463 . S
C3033 C3038 1.350 . S
C3033 N3041 1.427 . S
C3034 H3025 0.930 . S
C3034 C3032 1.378 . S
C3034 C3035 1.367 . S
C3035 C3034 1.367 . S
C3035 C3037 1.433 . S
C3036 C3032 1.350 . S
C3036 C3033 1.463 . S
C3036 N3040 1.427 . S
C3037 H3027 0.929 . S
C3037 C3035 1.433 . S
C3037 N3040 1.384 . S
C3038 H3029 0.929 . S
C3038 C3030 1.378 . S
C3038 C3033 1.350 . S
C3039 H3026 0.929 . S
C3039 C3031 1.433 . S
C3039 N3041 1.384 . S
N3040 C3036 1.427 . S
N3040 C3037 1.384 . S
N3041 C3033 1.427 . S
N3041 C3039 1.384 . S
H3042 C3048 0.930 . S
H3043 C3052 0.930 . S
H3044 C3057 0.929 . S
H3045 C3055 0.929 . S
H3046 C3050 0.929 . S
H3047 C3056 0.929 . S
C3048 H3042 0.930 . S
C3048 C3049 1.367 . S
C3048 C3056 1.378 . S
C3049 C3048 1.367 . S
C3049 C3057 1.433 . S
C3050 H3046 0.929 . S
C3050 C3052 1.378 . S
C3050 C3054 1.350 . S
C3051 C3054 1.463 . S
C3051 C3056 1.350 . S
C3051 N3059 1.427 . S
C3052 H3043 0.930 . S
C3052 C3050 1.378 . S
C3052 C3053 1.367 . S
C3053 C3052 1.367 . S
C3053 C3055 1.433 . S
C3054 C3050 1.350 . S
C3054 C3051 1.463 . S
C3054 N3058 1.427 . S
C3055 H3045 0.929 . S
C3055 C3053 1.433 . S
C3055 N3058 1.384 . S
C3056 H3047 0.929 . S
C3056 C3048 1.378 . S
C3056 C3051 1.350 . S
C3057 H3044 0.929 . S
C3057 C3049 1.433 . S
C3057 N3059 1.384 . S
N3058 C3054 1.427 . S
N3058 C3055 1.384 . S
N3059 C3051 1.427 . S
N3059 C3057 1.384 . S
H3060 C3066 0.930 . S
H3061 C3070 0.930 . S
H3062 C3075 0.929 . S
H3063 C3073 0.929 . S
H3064 C3068 0.929 . S
H3065 C3074 0.929 . S
C3066 H3060 0.930 . S
C3066 C3067 1.367 . S
C3066 C3074 1.378 . S
C3067 C3066 1.367 . S
C3067 C3075 1.433 . S
C3068 H3064 0.929 . S
C3068 C3070 1.378 . S
C3068 C3072 1.350 . S
C3069 C3072 1.463 . S
C3069 C3074 1.350 . S
C3069 N3077 1.427 . S
C3070 H3061 0.930 . S
C3070 C3068 1.378 . S
C3070 C3071 1.367 . S
C3071 C3070 1.367 . S
C3071 C3073 1.433 . S
C3072 C3068 1.350 . S
C3072 C3069 1.463 . S
C3072 N3076 1.427 . S
C3073 H3063 0.929 . S
C3073 C3071 1.433 . S
C3073 N3076 1.384 . S
C3074 H3065 0.929 . S
C3074 C3066 1.378 . S
C3074 C3069 1.350 . S
C3075 H3062 0.929 . S
C3075 C3067 1.433 . S
C3075 N3077 1.384 . S
N3076 C3072 1.427 . S
N3076 C3073 1.384 . S
N3077 C3069 1.427 . S
N3077 C3075 1.384 . S
H3078 C3084 0.930 . S
H3079 C3088 0.930 . S
H3080 C3093 0.929 . S
H3081 C3091 0.929 . S
H3082 C3086 0.929 . S
H3083 C3092 0.929 . S
C3084 H3078 0.930 . S
C3084 C3085 1.367 . S
C3084 C3092 1.378 . S
C3085 C3084 1.367 . S
C3085 C3093 1.433 . S
C3086 H3082 0.929 . S
C3086 C3088 1.378 . S
C3086 C3090 1.350 . S
C3087 C3090 1.463 . S
C3087 C3092 1.350 . S
C3087 N3095 1.427 . S
C3088 H3079 0.930 . S
C3088 C3086 1.378 . S
C3088 C3089 1.367 . S
C3089 C3088 1.367 . S
C3089 C3091 1.433 . S
C3090 C3086 1.350 . S
C3090 C3087 1.463 . S
C3090 N3094 1.427 . S
C3091 H3081 0.929 . S
C3091 C3089 1.433 . S
C3091 N3094 1.384 . S
C3092 H3083 0.929 . S
C3092 C3084 1.378 . S
C3092 C3087 1.350 . S
C3093 H3080 0.929 . S
C3093 C3085 1.433 . S
C3093 N3095 1.384 . S
N3094 C3090 1.427 . S
N3094 C3091 1.384 . S
N3095 C3087 1.427 . S
N3095 C3093 1.384 . S
H3096 C3102 0.930 . S
H3097 C3106 0.930 . S
H3098 C3111 0.929 . S
H3099 C3109 0.929 . S
H3100 C3104 0.929 . S
H3101 C3110 0.929 . S
C3102 H3096 0.930 . S
C3102 C3103 1.367 . S
C3102 C3110 1.378 . S
C3103 C3102 1.367 . S
C3103 C3111 1.433 . S
C3104 H3100 0.929 . S
C3104 C3106 1.378 . S
C3104 C3108 1.350 . S
C3105 C3108 1.463 . S
C3105 C3110 1.350 . S
C3105 N3113 1.427 . S
C3106 H3097 0.930 . S
C3106 C3104 1.378 . S
C3106 C3107 1.367 . S
C3107 C3106 1.367 . S
C3107 C3109 1.433 . S
C3108 C3104 1.350 . S
C3108 C3105 1.463 . S
C3108 N3112 1.427 . S
C3109 H3099 0.929 . S
C3109 C3107 1.433 . S
C3109 N3112 1.384 . S
C3110 H3101 0.929 . S
C3110 C3102 1.378 . S
C3110 C3105 1.350 . S
C3111 H3098 0.929 . S
C3111 C3103 1.433 . S
C3111 N3113 1.384 . S
N3112 C3108 1.427 . S
N3112 C3109 1.384 . S
N3113 C3105 1.427 . S
N3113 C3111 1.384 . S
H3114 C3120 0.930 . S
H3115 C3124 0.930 . S
H3116 C3129 0.929 . S
H3117 C3127 0.929 . S
H3118 C3122 0.929 . S
H3119 C3128 0.929 . S
C3120 H3114 0.930 . S
C3120 C3121 1.367 . S
C3120 C3128 1.378 . S
C3121 C3120 1.367 . S
C3121 C3129 1.433 . S
C3122 H3118 0.929 . S
C3122 C3124 1.378 . S
C3122 C3126 1.350 . S
C3123 C3126 1.463 . S
C3123 C3128 1.350 . S
C3123 N3131 1.427 . S
C3124 H3115 0.930 . S
C3124 C3122 1.378 . S
C3124 C3125 1.367 . S
C3125 C3124 1.367 . S
C3125 C3127 1.433 . S
C3126 C3122 1.350 . S
C3126 C3123 1.463 . S
C3126 N3130 1.427 . S
C3127 H3117 0.929 . S
C3127 C3125 1.433 . S
C3127 N3130 1.384 . S
C3128 H3119 0.929 . S
C3128 C3120 1.378 . S
C3128 C3123 1.350 . S
C3129 H3116 0.929 . S
C3129 C3121 1.433 . S
C3129 N3131 1.384 . S
N3130 C3126 1.427 . S
N3130 C3127 1.384 . S
N3131 C3123 1.427 . S
N3131 C3129 1.384 . S
H3132 C3138 0.930 . S
H3133 C3142 0.930 . S
H3134 C3147 0.929 . S
H3135 C3145 0.929 . S
H3136 C3140 0.929 . S
H3137 C3146 0.929 . S
C3138 H3132 0.930 . S
C3138 C3139 1.367 . S
C3138 C3146 1.378 . S
C3139 C3138 1.367 . S
C3139 C3147 1.433 . S
C3140 H3136 0.929 . S
C3140 C3142 1.378 . S
C3140 C3144 1.350 . S
C3141 C3144 1.463 . S
C3141 C3146 1.350 . S
C3141 N3149 1.427 . S
C3142 H3133 0.930 . S
C3142 C3140 1.378 . S
C3142 C3143 1.367 . S
C3143 C3142 1.367 . S
C3143 C3145 1.433 . S
C3144 C3140 1.350 . S
C3144 C3141 1.463 . S
C3144 N3148 1.427 . S
C3145 H3135 0.929 . S
C3145 C3143 1.433 . S
C3145 N3148 1.384 . S
C3146 H3137 0.929 . S
C3146 C3138 1.378 . S
C3146 C3141 1.350 . S
C3147 H3134 0.929 . S
C3147 C3139 1.433 . S
C3147 N3149 1.384 . S
N3148 C3144 1.427 . S
N3148 C3145 1.384 . S
N3149 C3141 1.427 . S
N3149 C3147 1.384 . S
H3150 C3156 0.930 . S
H3151 C3160 0.930 . S
H3152 C3165 0.929 . S
H3153 C3163 0.929 . S
H3154 C3158 0.929 . S
H3155 C3164 0.929 . S
C3156 H3150 0.930 . S
C3156 C3157 1.367 . S
C3156 C3164 1.378 . S
C3157 C3156 1.367 . S
C3157 C3165 1.433 . S
C3158 H3154 0.929 . S
C3158 C3160 1.378 . S
C3158 C3162 1.350 . S
C3159 C3162 1.463 . S
C3159 C3164 1.350 . S
C3159 N3167 1.427 . S
C3160 H3151 0.930 . S
C3160 C3158 1.378 . S
C3160 C3161 1.367 . S
C3161 C3160 1.367 . S
C3161 C3163 1.433 . S
C3162 C3158 1.350 . S
C3162 C3159 1.463 . S
C3162 N3166 1.427 . S
C3163 H3153 0.929 . S
C3163 C3161 1.433 . S
C3163 N3166 1.384 . S
C3164 H3155 0.929 . S
C3164 C3156 1.378 . S
C3164 C3159 1.350 . S
C3165 H3152 0.929 . S
C3165 C3157 1.433 . S
C3165 N3167 1.384 . S
N3166 C3162 1.427 . S
N3166 C3163 1.384 . S
N3167 C3159 1.427 . S
N3167 C3165 1.384 . S
H3168 C3174 0.930 . S
H3169 C3178 0.930 . S
H3170 C3183 0.929 . S
H3171 C3181 0.929 . S
H3172 C3176 0.929 . S
H3173 C3182 0.929 . S
C3174 H3168 0.930 . S
C3174 C3175 1.367 . S
C3174 C3182 1.378 . S
C3175 C3174 1.367 . S
C3175 C3183 1.433 . S
C3176 H3172 0.929 . S
C3176 C3178 1.378 . S
C3176 C3180 1.350 . S
C3177 C3180 1.463 . S
C3177 C3182 1.350 . S
C3177 N3185 1.427 . S
C3178 H3169 0.930 . S
C3178 C3176 1.378 . S
C3178 C3179 1.367 . S
C3179 C3178 1.367 . S
C3179 C3181 1.433 . S
C3180 C3176 1.350 . S
C3180 C3177 1.463 . S
C3180 N3184 1.427 . S
C3181 H3171 0.929 . S
C3181 C3179 1.433 . S
C3181 N3184 1.384 . S
C3182 H3173 0.929 . S
C3182 C3174 1.378 . S
C3182 C3177 1.350 . S
C3183 H3170 0.929 . S
C3183 C3175 1.433 . S
C3183 N3185 1.384 . S
N3184 C3180 1.427 . S
N3184 C3181 1.384 . S
N3185 C3177 1.427 . S
N3185 C3183 1.384 . S
H3186 C3192 0.930 . S
H3187 C3196 0.930 . S
H3188 C3201 0.929 . S
H3189 C3199 0.929 . S
H3190 C3194 0.929 . S
H3191 C3200 0.929 . S
C3192 H3186 0.930 . S
C3192 C3193 1.367 . S
C3192 C3200 1.378 . S
C3193 C3192 1.367 . S
C3193 C3201 1.433 . S
C3194 H3190 0.929 . S
C3194 C3196 1.378 . S
C3194 C3198 1.350 . S
C3195 C3198 1.463 . S
C3195 C3200 1.350 . S
C3195 N3203 1.427 . S
C3196 H3187 0.930 . S
C3196 C3194 1.378 . S
C3196 C3197 1.367 . S
C3197 C3196 1.367 . S
C3197 C3199 1.433 . S
C3198 C3194 1.350 . S
C3198 C3195 1.463 . S
C3198 N3202 1.427 . S
C3199 H3189 0.929 . S
C3199 C3197 1.433 . S
C3199 N3202 1.384 . S
C3200 H3191 0.929 . S
C3200 C3192 1.378 . S
C3200 C3195 1.350 . S
C3201 H3188 0.929 . S
C3201 C3193 1.433 . S
C3201 N3203 1.384 . S
N3202 C3198 1.427 . S
N3202 C3199 1.384 . S
N3203 C3195 1.427 . S
N3203 C3201 1.384 . S
H3204 C3210 0.930 . S
H3205 C3214 0.930 . S
H3206 C3219 0.929 . S
H3207 C3217 0.929 . S
H3208 C3212 0.929 . S
H3209 C3218 0.929 . S
C3210 H3204 0.930 . S
C3210 C3211 1.367 . S
C3210 C3218 1.378 . S
C3211 C3210 1.367 . S
C3211 C3219 1.433 . S
C3212 H3208 0.929 . S
C3212 C3214 1.378 . S
C3212 C3216 1.350 . S
C3213 C3216 1.463 . S
C3213 C3218 1.350 . S
C3213 N3221 1.427 . S
C3214 H3205 0.930 . S
C3214 C3212 1.378 . S
C3214 C3215 1.367 . S
C3215 C3214 1.367 . S
C3215 C3217 1.433 . S
C3216 C3212 1.350 . S
C3216 C3213 1.463 . S
C3216 N3220 1.427 . S
C3217 H3207 0.929 . S
C3217 C3215 1.433 . S
C3217 N3220 1.384 . S
C3218 H3209 0.929 . S
C3218 C3210 1.378 . S
C3218 C3213 1.350 . S
C3219 H3206 0.929 . S
C3219 C3211 1.433 . S
C3219 N3221 1.384 . S
N3220 C3216 1.427 . S
N3220 C3217 1.384 . S
N3221 C3213 1.427 . S
N3221 C3219 1.384 . S
H3222 C3228 0.930 . S
H3223 C3232 0.930 . S
H3224 C3237 0.929 . S
H3225 C3235 0.929 . S
H3226 C3230 0.929 . S
H3227 C3236 0.929 . S
C3228 H3222 0.930 . S
C3228 C3229 1.367 . S
C3228 C3236 1.378 . S
C3229 C3228 1.367 . S
C3229 C3237 1.433 . S
C3230 H3226 0.929 . S
C3230 C3232 1.378 . S
C3230 C3234 1.350 . S
C3231 C3234 1.463 . S
C3231 C3236 1.350 . S
C3231 N3239 1.427 . S
C3232 H3223 0.930 . S
C3232 C3230 1.378 . S
C3232 C3233 1.367 . S
C3233 C3232 1.367 . S
C3233 C3235 1.433 . S
C3234 C3230 1.350 . S
C3234 C3231 1.463 . S
C3234 N3238 1.427 . S
C3235 H3225 0.929 . S
C3235 C3233 1.433 . S
C3235 N3238 1.384 . S
C3236 H3227 0.929 . S
C3236 C3228 1.378 . S
C3236 C3231 1.350 . S
C3237 H3224 0.929 . S
C3237 C3229 1.433 . S
C3237 N3239 1.384 . S
N3238 C3234 1.427 . S
N3238 C3235 1.384 . S
N3239 C3231 1.427 . S
N3239 C3237 1.384 . S
H3240 C3246 0.930 . S
H3241 C3250 0.930 . S
H3242 C3255 0.929 . S
H3243 C3253 0.929 . S
H3244 C3248 0.929 . S
H3245 C3254 0.929 . S
C3246 H3240 0.930 . S
C3246 C3247 1.367 . S
C3246 C3254 1.378 . S
C3247 C3246 1.367 . S
C3247 C3255 1.433 . S
C3248 H3244 0.929 . S
C3248 C3250 1.378 . S
C3248 C3252 1.350 . S
C3249 C3252 1.463 . S
C3249 C3254 1.350 . S
C3249 N3257 1.427 . S
C3250 H3241 0.930 . S
C3250 C3248 1.378 . S
C3250 C3251 1.367 . S
C3251 C3250 1.367 . S
C3251 C3253 1.433 . S
C3252 C3248 1.350 . S
C3252 C3249 1.463 . S
C3252 N3256 1.427 . S
C3253 H3243 0.929 . S
C3253 C3251 1.433 . S
C3253 N3256 1.384 . S
C3254 H3245 0.929 . S
C3254 C3246 1.378 . S
C3254 C3249 1.350 . S
C3255 H3242 0.929 . S
C3255 C3247 1.433 . S
C3255 N3257 1.384 . S
N3256 C3252 1.427 . S
N3256 C3253 1.384 . S
N3257 C3249 1.427 . S
N3257 C3255 1.384 . S
H3258 C3264 0.930 . S
H3259 C3268 0.930 . S
H3260 C3273 0.929 . S
H3261 C3271 0.929 . S
H3262 C3266 0.929 . S
H3263 C3272 0.929 . S
C3264 H3258 0.930 . S
C3264 C3265 1.367 . S
C3264 C3272 1.378 . S
C3265 C3264 1.367 . S
C3265 C3273 1.433 . S
C3266 H3262 0.929 . S
C3266 C3268 1.378 . S
C3266 C3270 1.350 . S
C3267 C3270 1.463 . S
C3267 C3272 1.350 . S
C3267 N3275 1.427 . S
C3268 H3259 0.930 . S
C3268 C3266 1.378 . S
C3268 C3269 1.367 . S
C3269 C3268 1.367 . S
C3269 C3271 1.433 . S
C3270 C3266 1.350 . S
C3270 C3267 1.463 . S
C3270 N3274 1.427 . S
C3271 H3261 0.929 . S
C3271 C3269 1.433 . S
C3271 N3274 1.384 . S
C3272 H3263 0.929 . S
C3272 C3264 1.378 . S
C3272 C3267 1.350 . S
C3273 H3260 0.929 . S
C3273 C3265 1.433 . S
C3273 N3275 1.384 . S
N3274 C3270 1.427 . S
N3274 C3271 1.384 . S
N3275 C3267 1.427 . S
N3275 C3273 1.384 . S
H3276 C3282 0.930 . S
H3277 C3286 0.930 . S
H3278 C3291 0.929 . S
H3279 C3289 0.929 . S
H3280 C3284 0.929 . S
H3281 C3290 0.929 . S
C3282 H3276 0.930 . S
C3282 C3283 1.367 . S
C3282 C3290 1.378 . S
C3283 C3282 1.367 . S
C3283 C3291 1.433 . S
C3284 H3280 0.929 . S
C3284 C3286 1.378 . S
C3284 C3288 1.350 . S
C3285 C3288 1.463 . S
C3285 C3290 1.350 . S
C3285 N3293 1.427 . S
C3286 H3277 0.930 . S
C3286 C3284 1.378 . S
C3286 C3287 1.367 . S
C3287 C3286 1.367 . S
C3287 C3289 1.433 . S
C3288 C3284 1.350 . S
C3288 C3285 1.463 . S
C3288 N3292 1.427 . S
C3289 H3279 0.929 . S
C3289 C3287 1.433 . S
C3289 N3292 1.384 . S
C3290 H3281 0.929 . S
C3290 C3282 1.378 . S
C3290 C3285 1.350 . S
C3291 H3278 0.929 . S
C3291 C3283 1.433 . S
C3291 N3293 1.384 . S
N3292 C3288 1.427 . S
N3292 C3289 1.384 . S
N3293 C3285 1.427 . S
N3293 C3291 1.384 . S
H3294 C3300 0.930 . S
H3295 C3304 0.930 . S
H3296 C3309 0.929 . S
H3297 C3307 0.929 . S
H3298 C3302 0.929 . S
H3299 C3308 0.929 . S
C3300 H3294 0.930 . S
C3300 C3301 1.367 . S
C3300 C3308 1.378 . S
C3301 C3300 1.367 . S
C3301 C3309 1.433 . S
C3302 H3298 0.929 . S
C3302 C3304 1.378 . S
C3302 C3306 1.350 . S
C3303 C3306 1.463 . S
C3303 C3308 1.350 . S
C3303 N3311 1.427 . S
C3304 H3295 0.930 . S
C3304 C3302 1.378 . S
C3304 C3305 1.367 . S
C3305 C3304 1.367 . S
C3305 C3307 1.433 . S
C3306 C3302 1.350 . S
C3306 C3303 1.463 . S
C3306 N3310 1.427 . S
C3307 H3297 0.929 . S
C3307 C3305 1.433 . S
C3307 N3310 1.384 . S
C3308 H3299 0.929 . S
C3308 C3300 1.378 . S
C3308 C3303 1.350 . S
C3309 H3296 0.929 . S
C3309 C3301 1.433 . S
C3309 N3311 1.384 . S
N3310 C3306 1.427 . S
N3310 C3307 1.384 . S
N3311 C3303 1.427 . S
N3311 C3309 1.384 . S
H3312 C3318 0.930 . S
H3313 C3322 0.930 . S
H3314 C3327 0.929 . S
H3315 C3325 0.929 . S
H3316 C3320 0.929 . S
H3317 C3326 0.929 . S
C3318 H3312 0.930 . S
C3318 C3319 1.367 . S
C3318 C3326 1.378 . S
C3319 C3318 1.367 . S
C3319 C3327 1.433 . S
C3320 H3316 0.929 . S
C3320 C3322 1.378 . S
C3320 C3324 1.350 . S
C3321 C3324 1.463 . S
C3321 C3326 1.350 . S
C3321 N3329 1.427 . S
C3322 H3313 0.930 . S
C3322 C3320 1.378 . S
C3322 C3323 1.367 . S
C3323 C3322 1.367 . S
C3323 C3325 1.433 . S
C3324 C3320 1.350 . S
C3324 C3321 1.463 . S
C3324 N3328 1.427 . S
C3325 H3315 0.929 . S
C3325 C3323 1.433 . S
C3325 N3328 1.384 . S
C3326 H3317 0.929 . S
C3326 C3318 1.378 . S
C3326 C3321 1.350 . S
C3327 H3314 0.929 . S
C3327 C3319 1.433 . S
C3327 N3329 1.384 . S
N3328 C3324 1.427 . S
N3328 C3325 1.384 . S
N3329 C3321 1.427 . S
N3329 C3327 1.384 . S
H3330 C3336 0.930 . S
H3331 C3340 0.930 . S
H3332 C3345 0.929 . S
H3333 C3343 0.929 . S
H3334 C3338 0.929 . S
H3335 C3344 0.929 . S
C3336 H3330 0.930 . S
C3336 C3337 1.367 . S
C3336 C3344 1.378 . S
C3337 C3336 1.367 . S
C3337 C3345 1.433 . S
C3338 H3334 0.929 . S
C3338 C3340 1.378 . S
C3338 C3342 1.350 . S
C3339 C3342 1.463 . S
C3339 C3344 1.350 . S
C3339 N3347 1.427 . S
C3340 H3331 0.930 . S
C3340 C3338 1.378 . S
C3340 C3341 1.367 . S
C3341 C3340 1.367 . S
C3341 C3343 1.433 . S
C3342 C3338 1.350 . S
C3342 C3339 1.463 . S
C3342 N3346 1.427 . S
C3343 H3333 0.929 . S
C3343 C3341 1.433 . S
C3343 N3346 1.384 . S
C3344 H3335 0.929 . S
C3344 C3336 1.378 . S
C3344 C3339 1.350 . S
C3345 H3332 0.929 . S
C3345 C3337 1.433 . S
C3345 N3347 1.384 . S
N3346 C3342 1.427 . S
N3346 C3343 1.384 . S
N3347 C3339 1.427 . S
N3347 C3345 1.384 . S
H3348 C3354 0.930 . S
H3349 C3358 0.930 . S
H3350 C3363 0.929 . S
H3351 C3361 0.929 . S
H3352 C3356 0.929 . S
H3353 C3362 0.929 . S
C3354 H3348 0.930 . S
C3354 C3355 1.367 . S
C3354 C3362 1.378 . S
C3355 C3354 1.367 . S
C3355 C3363 1.433 . S
C3356 H3352 0.929 . S
C3356 C3358 1.378 . S
C3356 C3360 1.350 . S
C3357 C3360 1.463 . S
C3357 C3362 1.350 . S
C3357 N3365 1.427 . S
C3358 H3349 0.930 . S
C3358 C3356 1.378 . S
C3358 C3359 1.367 . S
C3359 C3358 1.367 . S
C3359 C3361 1.433 . S
C3360 C3356 1.350 . S
C3360 C3357 1.463 . S
C3360 N3364 1.427 . S
C3361 H3351 0.929 . S
C3361 C3359 1.433 . S
C3361 N3364 1.384 . S
C3362 H3353 0.929 . S
C3362 C3354 1.378 . S
C3362 C3357 1.350 . S
C3363 H3350 0.929 . S
C3363 C3355 1.433 . S
C3363 N3365 1.384 . S
N3364 C3360 1.427 . S
N3364 C3361 1.384 . S
N3365 C3357 1.427 . S
N3365 C3363 1.384 . S
H3366 C3372 0.930 . S
H3367 C3376 0.930 . S
H3368 C3381 0.929 . S
H3369 C3379 0.929 . S
H3370 C3374 0.929 . S
H3371 C3380 0.929 . S
C3372 H3366 0.930 . S
C3372 C3373 1.367 . S
C3372 C3380 1.378 . S
C3373 C3372 1.367 . S
C3373 C3381 1.433 . S
C3374 H3370 0.929 . S
C3374 C3376 1.378 . S
C3374 C3378 1.350 . S
C3375 C3378 1.463 . S
C3375 C3380 1.350 . S
C3375 N3383 1.427 . S
C3376 H3367 0.930 . S
C3376 C3374 1.378 . S
C3376 C3377 1.367 . S
C3377 C3376 1.367 . S
C3377 C3379 1.433 . S
C3378 C3374 1.350 . S
C3378 C3375 1.463 . S
C3378 N3382 1.427 . S
C3379 H3369 0.929 . S
C3379 C3377 1.433 . S
C3379 N3382 1.384 . S
C3380 H3371 0.929 . S
C3380 C3372 1.378 . S
C3380 C3375 1.350 . S
C3381 H3368 0.929 . S
C3381 C3373 1.433 . S
C3381 N3383 1.384 . S
N3382 C3378 1.427 . S
N3382 C3379 1.384 . S
N3383 C3375 1.427 . S
N3383 C3381 1.384 . S
H3384 C3390 0.930 . S
H3385 C3394 0.930 . S
H3386 C3399 0.929 . S
H3387 C3397 0.929 . S
H3388 C3392 0.929 . S
H3389 C3398 0.929 . S
C3390 H3384 0.930 . S
C3390 C3391 1.367 . S
C3390 C3398 1.378 . S
C3391 C3390 1.367 . S
C3391 C3399 1.433 . S
C3392 H3388 0.929 . S
C3392 C3394 1.378 . S
C3392 C3396 1.350 . S
C3393 C3396 1.463 . S
C3393 C3398 1.350 . S
C3393 N3401 1.427 . S
C3394 H3385 0.930 . S
C3394 C3392 1.378 . S
C3394 C3395 1.367 . S
C3395 C3394 1.367 . S
C3395 C3397 1.433 . S
C3396 C3392 1.350 . S
C3396 C3393 1.463 . S
C3396 N3400 1.427 . S
C3397 H3387 0.929 . S
C3397 C3395 1.433 . S
C3397 N3400 1.384 . S
C3398 H3389 0.929 . S
C3398 C3390 1.378 . S
C3398 C3393 1.350 . S
C3399 H3386 0.929 . S
C3399 C3391 1.433 . S
C3399 N3401 1.384 . S
N3400 C3396 1.427 . S
N3400 C3397 1.384 . S
N3401 C3393 1.427 . S
N3401 C3399 1.384 . S
H3402 C3408 0.930 . S
H3403 C3412 0.930 . S
H3404 C3417 0.929 . S
H3405 C3415 0.929 . S
H3406 C3410 0.929 . S
H3407 C3416 0.929 . S
C3408 H3402 0.930 . S
C3408 C3409 1.367 . S
C3408 C3416 1.378 . S
C3409 C3408 1.367 . S
C3409 C3417 1.433 . S
C3410 H3406 0.929 . S
C3410 C3412 1.378 . S
C3410 C3414 1.350 . S
C3411 C3414 1.463 . S
C3411 C3416 1.350 . S
C3411 N3419 1.427 . S
C3412 H3403 0.930 . S
C3412 C3410 1.378 . S
C3412 C3413 1.367 . S
C3413 C3412 1.367 . S
C3413 C3415 1.433 . S
C3414 C3410 1.350 . S
C3414 C3411 1.463 . S
C3414 N3418 1.427 . S
C3415 H3405 0.929 . S
C3415 C3413 1.433 . S
C3415 N3418 1.384 . S
C3416 H3407 0.929 . S
C3416 C3408 1.378 . S
C3416 C3411 1.350 . S
C3417 H3404 0.929 . S
C3417 C3409 1.433 . S
C3417 N3419 1.384 . S
N3418 C3414 1.427 . S
N3418 C3415 1.384 . S
N3419 C3411 1.427 . S
N3419 C3417 1.384 . S
H3420 C3426 0.930 . S
H3421 C3430 0.930 . S
H3422 C3435 0.929 . S
H3423 C3433 0.929 . S
H3424 C3428 0.929 . S
H3425 C3434 0.929 . S
C3426 H3420 0.930 . S
C3426 C3427 1.367 . S
C3426 C3434 1.378 . S
C3427 C3426 1.367 . S
C3427 C3435 1.433 . S
C3428 H3424 0.929 . S
C3428 C3430 1.378 . S
C3428 C3432 1.350 . S
C3429 C3432 1.463 . S
C3429 C3434 1.350 . S
C3429 N3437 1.427 . S
C3430 H3421 0.930 . S
C3430 C3428 1.378 . S
C3430 C3431 1.367 . S
C3431 C3430 1.367 . S
C3431 C3433 1.433 . S
C3432 C3428 1.350 . S
C3432 C3429 1.463 . S
C3432 N3436 1.427 . S
C3433 H3423 0.929 . S
C3433 C3431 1.433 . S
C3433 N3436 1.384 . S
C3434 H3425 0.929 . S
C3434 C3426 1.378 . S
C3434 C3429 1.350 . S
C3435 H3422 0.929 . S
C3435 C3427 1.433 . S
C3435 N3437 1.384 . S
N3436 C3432 1.427 . S
N3436 C3433 1.384 . S
N3437 C3429 1.427 . S
N3437 C3435 1.384 . S
H3438 C3444 0.930 . S
H3439 C3448 0.930 . S
H3440 C3453 0.929 . S
H3441 C3451 0.929 . S
H3442 C3446 0.929 . S
H3443 C3452 0.929 . S
C3444 H3438 0.930 . S
C3444 C3445 1.367 . S
C3444 C3452 1.378 . S
C3445 C3444 1.367 . S
C3445 C3453 1.433 . S
C3446 H3442 0.929 . S
C3446 C3448 1.378 . S
C3446 C3450 1.350 . S
C3447 C3450 1.463 . S
C3447 C3452 1.350 . S
C3447 N3455 1.427 . S
C3448 H3439 0.930 . S
C3448 C3446 1.378 . S
C3448 C3449 1.367 . S
C3449 C3448 1.367 . S
C3449 C3451 1.433 . S
C3450 C3446 1.350 . S
C3450 C3447 1.463 . S
C3450 N3454 1.427 . S
C3451 H3441 0.929 . S
C3451 C3449 1.433 . S
C3451 N3454 1.384 . S
C3452 H3443 0.929 . S
C3452 C3444 1.378 . S
C3452 C3447 1.350 . S
C3453 H3440 0.929 . S
C3453 C3445 1.433 . S
C3453 N3455 1.384 . S
N3454 C3450 1.427 . S
N3454 C3451 1.384 . S
N3455 C3447 1.427 . S
N3455 C3453 1.384 . S
H3456 C3462 0.930 . S
H3457 C3466 0.930 . S
H3458 C3471 0.929 . S
H3459 C3469 0.929 . S
H3460 C3464 0.929 . S
H3461 C3470 0.929 . S
C3462 H3456 0.930 . S
C3462 C3463 1.367 . S
C3462 C3470 1.378 . S
C3463 C3462 1.367 . S
C3463 C3471 1.433 . S
C3464 H3460 0.929 . S
C3464 C3466 1.378 . S
C3464 C3468 1.350 . S
C3465 C3468 1.463 . S
C3465 C3470 1.350 . S
C3465 N3473 1.427 . S
C3466 H3457 0.930 . S
C3466 C3464 1.378 . S
C3466 C3467 1.367 . S
C3467 C3466 1.367 . S
C3467 C3469 1.433 . S
C3468 C3464 1.350 . S
C3468 C3465 1.463 . S
C3468 N3472 1.427 . S
C3469 H3459 0.929 . S
C3469 C3467 1.433 . S
C3469 N3472 1.384 . S
C3470 H3461 0.929 . S
C3470 C3462 1.378 . S
C3470 C3465 1.350 . S
C3471 H3458 0.929 . S
C3471 C3463 1.433 . S
C3471 N3473 1.384 . S
N3472 C3468 1.427 . S
N3472 C3469 1.384 . S
N3473 C3465 1.427 . S
N3473 C3471 1.384 . S
H3474 C3480 0.930 . S
H3475 C3484 0.930 . S
H3476 C3489 0.929 . S
H3477 C3487 0.929 . S
H3478 C3482 0.929 . S
H3479 C3488 0.929 . S
C3480 H3474 0.930 . S
C3480 C3481 1.367 . S
C3480 C3488 1.378 . S
C3481 C3480 1.367 . S
C3481 C3489 1.433 . S
C3482 H3478 0.929 . S
C3482 C3484 1.378 . S
C3482 C3486 1.350 . S
C3483 C3486 1.463 . S
C3483 C3488 1.350 . S
C3483 N3491 1.427 . S
C3484 H3475 0.930 . S
C3484 C3482 1.378 . S
C3484 C3485 1.367 . S
C3485 C3484 1.367 . S
C3485 C3487 1.433 . S
C3486 C3482 1.350 . S
C3486 C3483 1.463 . S
C3486 N3490 1.427 . S
C3487 H3477 0.929 . S
C3487 C3485 1.433 . S
C3487 N3490 1.384 . S
C3488 H3479 0.929 . S
C3488 C3480 1.378 . S
C3488 C3483 1.350 . S
C3489 H3476 0.929 . S
C3489 C3481 1.433 . S
C3489 N3491 1.384 . S
N3490 C3486 1.427 . S
N3490 C3487 1.384 . S
N3491 C3483 1.427 . S
N3491 C3489 1.384 . S
H3492 C3498 0.930 . S
H3493 C3502 0.930 . S
H3494 C3507 0.929 . S
H3495 C3505 0.929 . S
H3496 C3500 0.929 . S
H3497 C3506 0.929 . S
C3498 H3492 0.930 . S
C3498 C3499 1.367 . S
C3498 C3506 1.378 . S
C3499 C3498 1.367 . S
C3499 C3507 1.433 . S
C3500 H3496 0.929 . S
C3500 C3502 1.378 . S
C3500 C3504 1.350 . S
C3501 C3504 1.463 . S
C3501 C3506 1.350 . S
C3501 N3509 1.427 . S
C3502 H3493 0.930 . S
C3502 C3500 1.378 . S
C3502 C3503 1.367 . S
C3503 C3502 1.367 . S
C3503 C3505 1.433 . S
C3504 C3500 1.350 . S
C3504 C3501 1.463 . S
C3504 N3508 1.427 . S
C3505 H3495 0.929 . S
C3505 C3503 1.433 . S
C3505 N3508 1.384 . S
C3506 H3497 0.929 . S
C3506 C3498 1.378 . S
C3506 C3501 1.350 . S
C3507 H3494 0.929 . S
C3507 C3499 1.433 . S
C3507 N3509 1.384 . S
N3508 C3504 1.427 . S
N3508 C3505 1.384 . S
N3509 C3501 1.427 . S
N3509 C3507 1.384 . S
H3510 C3516 0.930 . S
H3511 C3520 0.930 . S
H3512 C3525 0.929 . S
H3513 C3523 0.929 . S
H3514 C3518 0.929 . S
H3515 C3524 0.929 . S
C3516 H3510 0.930 . S
C3516 C3517 1.367 . S
C3516 C3524 1.378 . S
C3517 C3516 1.367 . S
C3517 C3525 1.433 . S
C3518 H3514 0.929 . S
C3518 C3520 1.378 . S
C3518 C3522 1.350 . S
C3519 C3522 1.463 . S
C3519 C3524 1.350 . S
C3519 N3527 1.427 . S
C3520 H3511 0.930 . S
C3520 C3518 1.378 . S
C3520 C3521 1.367 . S
C3521 C3520 1.367 . S
C3521 C3523 1.433 . S
C3522 C3518 1.350 . S
C3522 C3519 1.463 . S
C3522 N3526 1.427 . S
C3523 H3513 0.929 . S
C3523 C3521 1.433 . S
C3523 N3526 1.384 . S
C3524 H3515 0.929 . S
C3524 C3516 1.378 . S
C3524 C3519 1.350 . S
C3525 H3512 0.929 . S
C3525 C3517 1.433 . S
C3525 N3527 1.384 . S
N3526 C3522 1.427 . S
N3526 C3523 1.384 . S
N3527 C3519 1.427 . S
N3527 C3525 1.384 . S
H3528 C3534 0.930 . S
H3529 C3538 0.930 . S
H3530 C3543 0.929 . S
H3531 C3541 0.929 . S
H3532 C3536 0.929 . S
H3533 C3542 0.929 . S
C3534 H3528 0.930 . S
C3534 C3535 1.367 . S
C3534 C3542 1.378 . S
C3535 C3534 1.367 . S
C3535 C3543 1.433 . S
C3536 H3532 0.929 . S
C3536 C3538 1.378 . S
C3536 C3540 1.350 . S
C3537 C3540 1.463 . S
C3537 C3542 1.350 . S
C3537 N3545 1.427 . S
C3538 H3529 0.930 . S
C3538 C3536 1.378 . S
C3538 C3539 1.367 . S
C3539 C3538 1.367 . S
C3539 C3541 1.433 . S
C3540 C3536 1.350 . S
C3540 C3537 1.463 . S
C3540 N3544 1.427 . S
C3541 H3531 0.929 . S
C3541 C3539 1.433 . S
C3541 N3544 1.384 . S
C3542 H3533 0.929 . S
C3542 C3534 1.378 . S
C3542 C3537 1.350 . S
C3543 H3530 0.929 . S
C3543 C3535 1.433 . S
C3543 N3545 1.384 . S
N3544 C3540 1.427 . S
N3544 C3541 1.384 . S
N3545 C3537 1.427 . S
N3545 C3543 1.384 . S
H3546 C3552 0.930 . S
H3547 C3556 0.930 . S
H3548 C3561 0.929 . S
H3549 C3559 0.929 . S
H3550 C3554 0.929 . S
H3551 C3560 0.929 . S
C3552 H3546 0.930 . S
C3552 C3553 1.367 . S
C3552 C3560 1.378 . S
C3553 C3552 1.367 . S
C3553 C3561 1.433 . S
C3554 H3550 0.929 . S
C3554 C3556 1.378 . S
C3554 C3558 1.350 . S
C3555 C3558 1.463 . S
C3555 C3560 1.350 . S
C3555 N3563 1.427 . S
C3556 H3547 0.930 . S
C3556 C3554 1.378 . S
C3556 C3557 1.367 . S
C3557 C3556 1.367 . S
C3557 C3559 1.433 . S
C3558 C3554 1.350 . S
C3558 C3555 1.463 . S
C3558 N3562 1.427 . S
C3559 H3549 0.929 . S
C3559 C3557 1.433 . S
C3559 N3562 1.384 . S
C3560 H3551 0.929 . S
C3560 C3552 1.378 . S
C3560 C3555 1.350 . S
C3561 H3548 0.929 . S
C3561 C3553 1.433 . S
C3561 N3563 1.384 . S
N3562 C3558 1.427 . S
N3562 C3559 1.384 . S
N3563 C3555 1.427 . S
N3563 C3561 1.384 . S
H3564 C3570 0.930 . S
H3565 C3574 0.930 . S
H3566 C3579 0.929 . S
H3567 C3577 0.929 . S
H3568 C3572 0.929 . S
H3569 C3578 0.929 . S
C3570 H3564 0.930 . S
C3570 C3571 1.367 . S
C3570 C3578 1.378 . S
C3571 C3570 1.367 . S
C3571 C3579 1.433 . S
C3572 H3568 0.929 . S
C3572 C3574 1.378 . S
C3572 C3576 1.350 . S
C3573 C3576 1.463 . S
C3573 C3578 1.350 . S
C3573 N3581 1.427 . S
C3574 H3565 0.930 . S
C3574 C3572 1.378 . S
C3574 C3575 1.367 . S
C3575 C3574 1.367 . S
C3575 C3577 1.433 . S
C3576 C3572 1.350 . S
C3576 C3573 1.463 . S
C3576 N3580 1.427 . S
C3577 H3567 0.929 . S
C3577 C3575 1.433 . S
C3577 N3580 1.384 . S
C3578 H3569 0.929 . S
C3578 C3570 1.378 . S
C3578 C3573 1.350 . S
C3579 H3566 0.929 . S
C3579 C3571 1.433 . S
C3579 N3581 1.384 . S
N3580 C3576 1.427 . S
N3580 C3577 1.384 . S
N3581 C3573 1.427 . S
N3581 C3579 1.384 . S
H3582 C3588 0.930 . S
H3583 C3592 0.930 . S
H3584 C3597 0.929 . S
H3585 C3595 0.929 . S
H3586 C3590 0.929 . S
H3587 C3596 0.929 . S
C3588 H3582 0.930 . S
C3588 C3589 1.367 . S
C3588 C3596 1.378 . S
C3589 C3588 1.367 . S
C3589 C3597 1.433 . S
C3590 H3586 0.929 . S
C3590 C3592 1.378 . S
C3590 C3594 1.350 . S
C3591 C3594 1.463 . S
C3591 C3596 1.350 . S
C3591 N3599 1.427 . S
C3592 H3583 0.930 . S
C3592 C3590 1.378 . S
C3592 C3593 1.367 . S
C3593 C3592 1.367 . S
C3593 C3595 1.433 . S
C3594 C3590 1.350 . S
C3594 C3591 1.463 . S
C3594 N3598 1.427 . S
C3595 H3585 0.929 . S
C3595 C3593 1.433 . S
C3595 N3598 1.384 . S
C3596 H3587 0.929 . S
C3596 C3588 1.378 . S
C3596 C3591 1.350 . S
C3597 H3584 0.929 . S
C3597 C3589 1.433 . S
C3597 N3599 1.384 . S
N3598 C3594 1.427 . S
N3598 C3595 1.384 . S
N3599 C3591 1.427 . S
N3599 C3597 1.384 . S
H3600 C3606 0.930 . S
H3601 C3610 0.930 . S
H3602 C3615 0.929 . S
H3603 C3613 0.929 . S
H3604 C3608 0.929 . S
H3605 C3614 0.929 . S
C3606 H3600 0.930 . S
C3606 C3607 1.367 . S
C3606 C3614 1.378 . S
C3607 C3606 1.367 . S
C3607 C3615 1.433 . S
C3608 H3604 0.929 . S
C3608 C3610 1.378 . S
C3608 C3612 1.350 . S
C3609 C3612 1.463 . S
C3609 C3614 1.350 . S
C3609 N3617 1.427 . S
C3610 H3601 0.930 . S
C3610 C3608 1.378 . S
C3610 C3611 1.367 . S
C3611 C3610 1.367 . S
C3611 C3613 1.433 . S
C3612 C3608 1.350 . S
C3612 C3609 1.463 . S
C3612 N3616 1.427 . S
C3613 H3603 0.929 . S
C3613 C3611 1.433 . S
C3613 N3616 1.384 . S
C3614 H3605 0.929 . S
C3614 C3606 1.378 . S
C3614 C3609 1.350 . S
C3615 H3602 0.929 . S
C3615 C3607 1.433 . S
C3615 N3617 1.384 . S
N3616 C3612 1.427 . S
N3616 C3613 1.384 . S
N3617 C3609 1.427 . S
N3617 C3615 1.384 . S
H3618 C3624 0.930 . S
H3619 C3628 0.930 . S
H3620 C3633 0.929 . S
H3621 C3631 0.929 . S
H3622 C3626 0.929 . S
H3623 C3632 0.929 . S
C3624 H3618 0.930 . S
C3624 C3625 1.367 . S
C3624 C3632 1.378 . S
C3625 C3624 1.367 . S
C3625 C3633 1.433 . S
C3626 H3622 0.929 . S
C3626 C3628 1.378 . S
C3626 C3630 1.350 . S
C3627 C3630 1.463 . S
C3627 C3632 1.350 . S
C3627 N3635 1.427 . S
C3628 H3619 0.930 . S
C3628 C3626 1.378 . S
C3628 C3629 1.367 . S
C3629 C3628 1.367 . S
C3629 C3631 1.433 . S
C3630 C3626 1.350 . S
C3630 C3627 1.463 . S
C3630 N3634 1.427 . S
C3631 H3621 0.929 . S
C3631 C3629 1.433 . S
C3631 N3634 1.384 . S
C3632 H3623 0.929 . S
C3632 C3624 1.378 . S
C3632 C3627 1.350 . S
C3633 H3620 0.929 . S
C3633 C3625 1.433 . S
C3633 N3635 1.384 . S
N3634 C3630 1.427 . S
N3634 C3631 1.384 . S
N3635 C3627 1.427 . S
N3635 C3633 1.384 . S
H3636 C3642 0.930 . S
H3637 C3646 0.930 . S
H3638 C3651 0.929 . S
H3639 C3649 0.929 . S
H3640 C3644 0.929 . S
H3641 C3650 0.929 . S
C3642 H3636 0.930 . S
C3642 C3643 1.367 . S
C3642 C3650 1.378 . S
C3643 C3642 1.367 . S
C3643 C3651 1.433 . S
C3644 H3640 0.929 . S
C3644 C3646 1.378 . S
C3644 C3648 1.350 . S
C3645 C3648 1.463 . S
C3645 C3650 1.350 . S
C3645 N3653 1.427 . S
C3646 H3637 0.930 . S
C3646 C3644 1.378 . S
C3646 C3647 1.367 . S
C3647 C3646 1.367 . S
C3647 C3649 1.433 . S
C3648 C3644 1.350 . S
C3648 C3645 1.463 . S
C3648 N3652 1.427 . S
C3649 H3639 0.929 . S
C3649 C3647 1.433 . S
C3649 N3652 1.384 . S
C3650 H3641 0.929 . S
C3650 C3642 1.378 . S
C3650 C3645 1.350 . S
C3651 H3638 0.929 . S
C3651 C3643 1.433 . S
C3651 N3653 1.384 . S
N3652 C3648 1.427 . S
N3652 C3649 1.384 . S
N3653 C3645 1.427 . S
N3653 C3651 1.384 . S
H3654 C3660 0.930 . S
H3655 C3664 0.930 . S
H3656 C3669 0.929 . S
H3657 C3667 0.929 . S
H3658 C3662 0.929 . S
H3659 C3668 0.929 . S
C3660 H3654 0.930 . S
C3660 C3661 1.367 . S
C3660 C3668 1.378 . S
C3661 C3660 1.367 . S
C3661 C3669 1.433 . S
C3662 H3658 0.929 . S
C3662 C3664 1.378 . S
C3662 C3666 1.350 . S
C3663 C3666 1.463 . S
C3663 C3668 1.350 . S
C3663 N3671 1.427 . S
C3664 H3655 0.930 . S
C3664 C3662 1.378 . S
C3664 C3665 1.367 . S
C3665 C3664 1.367 . S
C3665 C3667 1.433 . S
C3666 C3662 1.350 . S
C3666 C3663 1.463 . S
C3666 N3670 1.427 . S
C3667 H3657 0.929 . S
C3667 C3665 1.433 . S
C3667 N3670 1.384 . S
C3668 H3659 0.929 . S
C3668 C3660 1.378 . S
C3668 C3663 1.350 . S
C3669 H3656 0.929 . S
C3669 C3661 1.433 . S
C3669 N3671 1.384 . S
N3670 C3666 1.427 . S
N3670 C3667 1.384 . S
N3671 C3663 1.427 . S
N3671 C3669 1.384 . S
H3672 C3678 0.930 . S
H3673 C3682 0.930 . S
H3674 C3687 0.929 . S
H3675 C3685 0.929 . S
H3676 C3680 0.929 . S
H3677 C3686 0.929 . S
C3678 H3672 0.930 . S
C3678 C3679 1.367 . S
C3678 C3686 1.378 . S
C3679 C3678 1.367 . S
C3679 C3687 1.433 . S
C3680 H3676 0.929 . S
C3680 C3682 1.378 . S
C3680 C3684 1.350 . S
C3681 C3684 1.463 . S
C3681 C3686 1.350 . S
C3681 N3689 1.427 . S
C3682 H3673 0.930 . S
C3682 C3680 1.378 . S
C3682 C3683 1.367 . S
C3683 C3682 1.367 . S
C3683 C3685 1.433 . S
C3684 C3680 1.350 . S
C3684 C3681 1.463 . S
C3684 N3688 1.427 . S
C3685 H3675 0.929 . S
C3685 C3683 1.433 . S
C3685 N3688 1.384 . S
C3686 H3677 0.929 . S
C3686 C3678 1.378 . S
C3686 C3681 1.350 . S
C3687 H3674 0.929 . S
C3687 C3679 1.433 . S
C3687 N3689 1.384 . S
N3688 C3684 1.427 . S
N3688 C3685 1.384 . S
N3689 C3681 1.427 . S
N3689 C3687 1.384 . S
H3690 C3696 0.930 . S
H3691 C3700 0.930 . S
H3692 C3705 0.929 . S
H3693 C3703 0.929 . S
H3694 C3698 0.929 . S
H3695 C3704 0.929 . S
C3696 H3690 0.930 . S
C3696 C3697 1.367 . S
C3696 C3704 1.378 . S
C3697 C3696 1.367 . S
C3697 C3705 1.433 . S
C3698 H3694 0.929 . S
C3698 C3700 1.378 . S
C3698 C3702 1.350 . S
C3699 C3702 1.463 . S
C3699 C3704 1.350 . S
C3699 N3707 1.427 . S
C3700 H3691 0.930 . S
C3700 C3698 1.378 . S
C3700 C3701 1.367 . S
C3701 C3700 1.367 . S
C3701 C3703 1.433 . S
C3702 C3698 1.350 . S
C3702 C3699 1.463 . S
C3702 N3706 1.427 . S
C3703 H3693 0.929 . S
C3703 C3701 1.433 . S
C3703 N3706 1.384 . S
C3704 H3695 0.929 . S
C3704 C3696 1.378 . S
C3704 C3699 1.350 . S
C3705 H3692 0.929 . S
C3705 C3697 1.433 . S
C3705 N3707 1.384 . S
N3706 C3702 1.427 . S
N3706 C3703 1.384 . S
N3707 C3699 1.427 . S
N3707 C3705 1.384 . S
H3708 C3714 0.930 . S
H3709 C3718 0.930 . S
H3710 C3723 0.929 . S
H3711 C3721 0.929 . S
H3712 C3716 0.929 . S
H3713 C3722 0.929 . S
C3714 H3708 0.930 . S
C3714 C3715 1.367 . S
C3714 C3722 1.378 . S
C3715 C3714 1.367 . S
C3715 C3723 1.433 . S
C3716 H3712 0.929 . S
C3716 C3718 1.378 . S
C3716 C3720 1.350 . S
C3717 C3720 1.463 . S
C3717 C3722 1.350 . S
C3717 N3725 1.427 . S
C3718 H3709 0.930 . S
C3718 C3716 1.378 . S
C3718 C3719 1.367 . S
C3719 C3718 1.367 . S
C3719 C3721 1.433 . S
C3720 C3716 1.350 . S
C3720 C3717 1.463 . S
C3720 N3724 1.427 . S
C3721 H3711 0.929 . S
C3721 C3719 1.433 . S
C3721 N3724 1.384 . S
C3722 H3713 0.929 . S
C3722 C3714 1.378 . S
C3722 C3717 1.350 . S
C3723 H3710 0.929 . S
C3723 C3715 1.433 . S
C3723 N3725 1.384 . S
N3724 C3720 1.427 . S
N3724 C3721 1.384 . S
N3725 C3717 1.427 . S
N3725 C3723 1.384 . S
H3726 C3732 0.930 . S
H3727 C3736 0.930 . S
H3728 C3741 0.929 . S
H3729 C3739 0.929 . S
H3730 C3734 0.929 . S
H3731 C3740 0.929 . S
C3732 H3726 0.930 . S
C3732 C3733 1.367 . S
C3732 C3740 1.378 . S
C3733 C3732 1.367 . S
C3733 C3741 1.433 . S
C3734 H3730 0.929 . S
C3734 C3736 1.378 . S
C3734 C3738 1.350 . S
C3735 C3738 1.463 . S
C3735 C3740 1.350 . S
C3735 N3743 1.427 . S
C3736 H3727 0.930 . S
C3736 C3734 1.378 . S
C3736 C3737 1.367 . S
C3737 C3736 1.367 . S
C3737 C3739 1.433 . S
C3738 C3734 1.350 . S
C3738 C3735 1.463 . S
C3738 N3742 1.427 . S
C3739 H3729 0.929 . S
C3739 C3737 1.433 . S
C3739 N3742 1.384 . S
C3740 H3731 0.929 . S
C3740 C3732 1.378 . S
C3740 C3735 1.350 . S
C3741 H3728 0.929 . S
C3741 C3733 1.433 . S
C3741 N3743 1.384 . S
N3742 C3738 1.427 . S
N3742 C3739 1.384 . S
N3743 C3735 1.427 . S
N3743 C3741 1.384 . S
C1591 C292 1.094 . S
C1595 N5 1.081 . S
C1609 C325 1.094 . S
C1613 N38 1.082 . S
C1627 N71 1.078 . S
C1631 C358 1.095 . S
C1645 N104 1.076 . S
C1649 C391 1.096 . S
C1663 N137 1.089 . S
C1667 C424 1.091 . S
C1681 C457 1.095 . S
C1685 N170 1.078 . S
C1699 C490 1.092 . S
C1703 N203 1.088 . S
C1717 N236 1.083 . S
C1721 C523 1.093 . S
C1735 N269 1.088 . S
C1739 C556 1.092 . S
C1753 N302 1.089 . S
C1757 C1579 1.091 . S
C1771 N335 1.077 . S
C1775 C1513 1.096 . S
C1789 N368 1.089 . S
C1793 C1546 1.091 . S
C1807 C589 1.093 . S
C1811 N401 1.083 . S
C1825 C622 1.095 . S
C1829 N434 1.078 . S
C1843 N467 1.076 . S
C1847 C655 1.096 . S
C1861 N500 1.077 . S
C1865 C1480 1.095 . S
C1879 N533 1.088 . S
C1883 C28 1.091 . S
C1897 C160 1.092 . S
C1901 N566 1.087 . S
C1915 N599 1.088 . S
C1919 C193 1.091 . S
C1933 C226 1.092 . S
C1937 N632 1.086 . S
C1951 N665 1.083 . S
C1955 C1051 1.093 . S
C1969 N698 1.081 . S
C1973 C886 1.094 . S
C1987 N731 1.080 . S
C1991 C919 1.094 . S
C2005 N764 1.080 . S
C2009 C853 1.094 . S
C2023 C1084 1.095 . S
C2027 N797 1.079 . S
C2041 C1117 1.095 . S
C2045 N830 1.079 . S
C2059 C1150 1.096 . S
C2063 N863 1.077 . S
C2077 N896 1.078 . S
C2081 C1183 1.095 . S
C2095 C1216 1.095 . S
C2099 N929 1.077 . S
C2113 C1249 1.092 . S
C2117 N962 1.086 . S
C2131 N995 1.083 . S
C2135 C1282 1.094 . S
C2149 N1028 1.082 . S
C2153 C1315 1.093 . S
C2167 N1061 1.088 . S
C2171 C1348 1.091 . S
C2185 C787 1.092 . S
C2189 N1094 1.087 . S
C2203 C721 1.092 . S
C2207 N1127 1.087 . S
C2221 N1160 1.084 . S
C2225 C754 1.093 . S
C2239 N1193 1.088 . S
C2243 C1381 1.091 . S
C2257 N1226 1.089 . S
C2261 C1414 1.091 . S
C2275 C1447 1.091 . S
C2279 N1259 1.089 . S
C2293 N1292 1.087 . S
C2297 C688 1.092 . S
C2311 C820 1.095 . S
C2315 N1325 1.077 . S
C2329 N1358 1.076 . S
C2333 C952 1.096 . S
C2347 N1391 1.088 . S
C2351 C985 1.092 . S
C2365 C1018 1.092 . S
C2369 N1424 1.088 . S
C2383 N1457 1.086 . S
C2387 C259 1.092 . S
C2401 N1490 1.085 . S
C2405 C94 1.092 . S
C2419 C127 1.096 . S
C2423 N1523 1.076 . S
C2437 C61 1.092 . S
C2441 N1556 1.088 . S
C2455 C17 1.748 . S
C2459 C83 1.750 . S
C2473 C50 1.748 . S
C2477 C116 1.751 . S
C2491 C215 1.752 . S
C2495 C149 1.748 . S
C2509 C182 1.748 . S
C2513 C248 1.753 . S
C2527 C413 1.748 . S
C2531 C281 1.751 . S
C2545 C314 1.751 . S
C2549 C446 1.756 . S
C2563 C479 1.754 . S
C2567 C347 1.749 . S
C2581 C512 1.756 . S
C2585 C380 1.751 . S
C2599 C1436 1.754 . S
C2603 C545 1.749 . S
C2617 C578 1.756 . S
C2621 C710 1.751 . S
C2635 C611 1.751 . S
C2639 C743 1.748 . S
C2653 C644 1.752 . S
C2657 C1337 1.748 . S
C2671 C1568 1.754 . S
C2675 C677 1.756 . S
C2689 C1469 1.753 . S
C2693 C776 1.748 . S
C2707 C875 1.750 . S
C2711 C809 1.748 . S
C2725 C908 1.756 . S
C2729 C842 1.752 . S
C2743 C1007 1.751 . S
C2747 C941 1.748 . S
C2761 C1040 1.751 . S
C2765 C974 1.748 . S
C2779 C1073 1.756 . S
C2783 C1205 1.752 . S
C2797 C1238 1.756 . S
C2801 C1106 1.755 . S
C2815 C1139 1.754 . S
C2819 C1271 1.756 . S
C2833 C1304 1.750 . S
C2837 C1172 1.755 . S
C2851 C1502 1.755 . S
C2855 C1370 1.756 . S
C2869 C1403 1.751 . S
C2873 C1535 1.748 . S
C2887 C437 1.717 . S
C2891 N14 1.638 . S
C2905 C470 1.714 . S
C2909 N47 1.649 . S
C2923 N80 1.641 . S
C2927 C503 1.716 . S
C2941 N113 1.637 . S
C2945 C404 1.717 . S
C2959 N146 1.644 . S
C2963 C1163 1.716 . S
C2977 C1064 1.715 . S
C2981 N179 1.650 . S
C2995 C1097 1.715 . S
C2999 N212 1.648 . S
C3013 N245 1.647 . S
C3017 C1130 1.715 . S
C3031 N278 1.651 . S
C3035 C833 1.714 . S
C3049 C866 1.715 . S
C3053 N311 1.648 . S
C3067 C899 1.714 . S
C3071 N344 1.652 . S
C3085 N377 1.648 . S
C3089 C800 1.715 . S
C3103 N410 1.639 . S
C3107 C239 1.717 . S
C3121 N443 1.638 . S
C3125 C140 1.717 . S
C3139 C173 1.714 . S
C3143 N476 1.652 . S
C3157 N509 1.647 . S
C3161 C206 1.715 . S
C3175 C1526 1.715 . S
C3179 N542 1.650 . S
C3193 N575 1.639 . S
C3197 C1394 1.717 . S
C3211 C1427 1.715 . S
C3215 N608 1.650 . S
C3229 N641 1.642 . S
C3233 C668 1.716 . S
C3247 C569 1.715 . S
C3251 N674 1.646 . S
C3265 N707 1.639 . S
C3269 C767 1.717 . S
C3283 N740 1.651 . S
C3287 C701 1.714 . S
C3301 C1328 1.716 . S
C3305 N773 1.646 . S
C3319 C1229 1.717 . S
C3323 N806 1.637 . S
C3337 C1262 1.717 . S
C3341 N839 1.640 . S
C3355 N872 1.652 . S
C3359 C1295 1.714 . S
C3373 N905 1.638 . S
C3377 C1196 1.717 . S
C3391 C371 1.714 . S
C3395 N938 1.652 . S
C3409 N971 1.643 . S
C3413 C272 1.716 . S
C3427 N1004 1.641 . S
C3431 C305 1.716 . S
C3445 N1037 1.645 . S
C3449 C338 1.716 . S
C3463 N1070 1.649 . S
C3467 C41 1.715 . S
C3481 N1103 1.637 . S
C3485 C74 1.717 . S
C3499 N1136 1.652 . S
C3503 C107 1.714 . S
C3517 N1169 1.637 . S
C3521 C8 1.717 . S
C3535 C1031 1.717 . S
C3539 N1202 1.637 . S
C3553 C932 1.717 . S
C3557 N1235 1.639 . S
C3571 N1268 1.639 . S
C3575 C965 1.717 . S
C3589 N1301 1.638 . S
C3593 C998 1.717 . S
C3607 C734 1.717 . S
C3611 N1334 1.638 . S
C3625 N1367 1.642 . S
C3629 C602 1.716 . S
C3643 C635 1.715 . S
C3647 N1400 1.650 . S
C3661 N1433 1.651 . S
C3665 C1460 1.714 . S
C3679 C1361 1.717 . S
C3683 N1466 1.637 . S
C3697 C1559 1.715 . S
C3701 N1499 1.644 . S
C3715 C1493 1.717 . S
C3719 N1532 1.641 . S
C3733 N1565 1.645 . S
C3737 C536 1.716 . S
