# Generated by pormake.
# Topology whk, (6)-cn, num edge types: 1
# Building blocks:
#     Node 0, Type 0, BuildingBlock: OJICUG_clean_sbu_0, # of connection points: 6
#     Node 1, Type 0, BuildingBlock: OJICUG_clean_sbu_0, # of connection points: 6
#     Node 2, Type 0, BuildingBlock: OJICUG_clean_sbu_0, # of connection points: 6
#     Node 3, Type 0, BuildingBlock: OJICUG_clean_sbu_0, # of connection points: 6
#     Node 4, Type 0, BuildingBlock: OJICUG_clean_sbu_0, # of connection points: 6
#     Node 5, Type 0, BuildingBlock: OJICUG_clean_sbu_0, # of connection points: 6
#     Node 6, Type 0, BuildingBlock: OJICUG_clean_sbu_0, # of connection points: 6
#     Node 7, Type 0, BuildingBlock: OJICUG_clean_sbu_0, # of connection points: 6
#     Node 8, Type 0, BuildingBlock: OJICUG_clean_sbu_0, # of connection points: 6
#     Node 9, Type 0, BuildingBlock: OJICUG_clean_sbu_0, # of connection points: 6
#     Node 10, Type 0, BuildingBlock: OJICUG_clean_sbu_0, # of connection points: 6
#     Node 11, Type 0, BuildingBlock: OJICUG_clean_sbu_0, # of connection points: 6
#     Node 12, Type 0, BuildingBlock: OJICUG_clean_sbu_0, # of connection points: 6
#     Node 13, Type 0, BuildingBlock: OJICUG_clean_sbu_0, # of connection points: 6
#     Node 14, Type 0, BuildingBlock: OJICUG_clean_sbu_0, # of connection points: 6
#     Node 15, Type 0, BuildingBlock: OJICUG_clean_sbu_0, # of connection points: 6
#     Edge 16, Type (0, 0), BuildingBlock: XIVTED_clean_linker_0, # of connection points: 2
#     Edge 17, Type (0, 0), BuildingBlock: XIVTED_clean_linker_0, # of connection points: 2
#     Edge 18, Type (0, 0), BuildingBlock: XIVTED_clean_linker_0, # of connection points: 2
#     Edge 19, Type (0, 0), BuildingBlock: XIVTED_clean_linker_0, # of connection points: 2
#     Edge 20, Type (0, 0), BuildingBlock: XIVTED_clean_linker_0, # of connection points: 2
#     Edge 21, Type (0, 0), BuildingBlock: XIVTED_clean_linker_0, # of connection points: 2
#     Edge 22, Type (0, 0), BuildingBlock: XIVTED_clean_linker_0, # of connection points: 2
#     Edge 23, Type (0, 0), BuildingBlock: XIVTED_clean_linker_0, # of connection points: 2
#     Edge 24, Type (0, 0), BuildingBlock: XIVTED_clean_linker_0, # of connection points: 2
#     Edge 25, Type (0, 0), BuildingBlock: XIVTED_clean_linker_0, # of connection points: 2
#     Edge 26, Type (0, 0), BuildingBlock: XIVTED_clean_linker_0, # of connection points: 2
#     Edge 27, Type (0, 0), BuildingBlock: XIVTED_clean_linker_0, # of connection points: 2
#     Edge 28, Type (0, 0), BuildingBlock: XIVTED_clean_linker_0, # of connection points: 2
#     Edge 29, Type (0, 0), BuildingBlock: XIVTED_clean_linker_0, # of connection points: 2
#     Edge 30, Type (0, 0), BuildingBlock: XIVTED_clean_linker_0, # of connection points: 2
#     Edge 31, Type (0, 0), BuildingBlock: XIVTED_clean_linker_0, # of connection points: 2
#     Edge 32, Type (0, 0), BuildingBlock: XIVTED_clean_linker_0, # of connection points: 2
#     Edge 33, Type (0, 0), BuildingBlock: XIVTED_clean_linker_0, # of connection points: 2
#     Edge 34, Type (0, 0), BuildingBlock: XIVTED_clean_linker_0, # of connection points: 2
#     Edge 35, Type (0, 0), BuildingBlock: XIVTED_clean_linker_0, # of connection points: 2
#     Edge 36, Type (0, 0), BuildingBlock: XIVTED_clean_linker_0, # of connection points: 2
#     Edge 37, Type (0, 0), BuildingBlock: XIVTED_clean_linker_0, # of connection points: 2
#     Edge 38, Type (0, 0), BuildingBlock: XIVTED_clean_linker_0, # of connection points: 2
#     Edge 39, Type (0, 0), BuildingBlock: XIVTED_clean_linker_0, # of connection points: 2
#     Edge 40, Type (0, 0), BuildingBlock: XIVTED_clean_linker_0, # of connection points: 2
#     Edge 41, Type (0, 0), BuildingBlock: XIVTED_clean_linker_0, # of connection points: 2
#     Edge 42, Type (0, 0), BuildingBlock: XIVTED_clean_linker_0, # of connection points: 2
#     Edge 43, Type (0, 0), BuildingBlock: XIVTED_clean_linker_0, # of connection points: 2
#     Edge 44, Type (0, 0), BuildingBlock: XIVTED_clean_linker_0, # of connection points: 2
#     Edge 45, Type (0, 0), BuildingBlock: XIVTED_clean_linker_0, # of connection points: 2
#     Edge 46, Type (0, 0), BuildingBlock: XIVTED_clean_linker_0, # of connection points: 2
#     Edge 47, Type (0, 0), BuildingBlock: XIVTED_clean_linker_0, # of connection points: 2
#     Edge 48, Type (0, 0), BuildingBlock: XIVTED_clean_linker_0, # of connection points: 2
#     Edge 49, Type (0, 0), BuildingBlock: XIVTED_clean_linker_0, # of connection points: 2
#     Edge 50, Type (0, 0), BuildingBlock: XIVTED_clean_linker_0, # of connection points: 2
#     Edge 51, Type (0, 0), BuildingBlock: XIVTED_clean_linker_0, # of connection points: 2
#     Edge 52, Type (0, 0), BuildingBlock: XIVTED_clean_linker_0, # of connection points: 2
#     Edge 53, Type (0, 0), BuildingBlock: XIVTED_clean_linker_0, # of connection points: 2
#     Edge 54, Type (0, 0), BuildingBlock: XIVTED_clean_linker_0, # of connection points: 2
#     Edge 55, Type (0, 0), BuildingBlock: XIVTED_clean_linker_0, # of connection points: 2
#     Edge 56, Type (0, 0), BuildingBlock: XIVTED_clean_linker_0, # of connection points: 2
#     Edge 57, Type (0, 0), BuildingBlock: XIVTED_clean_linker_0, # of connection points: 2
#     Edge 58, Type (0, 0), BuildingBlock: XIVTED_clean_linker_0, # of connection points: 2
#     Edge 59, Type (0, 0), BuildingBlock: XIVTED_clean_linker_0, # of connection points: 2
#     Edge 60, Type (0, 0), BuildingBlock: XIVTED_clean_linker_0, # of connection points: 2
#     Edge 61, Type (0, 0), BuildingBlock: XIVTED_clean_linker_0, # of connection points: 2
#     Edge 62, Type (0, 0), BuildingBlock: XIVTED_clean_linker_0, # of connection points: 2
#     Edge 63, Type (0, 0), BuildingBlock: XIVTED_clean_linker_0, # of connection points: 2
# Relax obj value: 0.277
# Max RMSD: 0.215
# Mean RMSD: 0.215
data_MOF--net-whk--node1-OJICUG_clean_sbu_0--edge1-XIVTED_clean_linker_0
_symmetry_space_group_name_H-M    P1
_symmetry_Int_Tables_number       1
_symmetry_cell_setting            triclinic
loop_
_symmetry_equiv_pos_as_xyz
'x, y, z'
_cell_length_a     36.825415
_cell_length_b     36.892215
_cell_length_c     54.291
_cell_angle_alpha  89.953016
_cell_angle_beta   90.058448
_cell_angle_gamma 89.85207
loop_
_atom_site_label
_atom_site_type_symbol
_atom_site_fract_x
_atom_site_fract_y
_atom_site_fract_z
_atom_type_partial_charge
Sc0 Sc 0.55803 0.13516 0.39767 0.0
Sc1 Sc 0.57705 0.22623 0.38245 0.0
Sc2 Sc 0.50669 0.20506 0.42343 0.0
O3 O 0.5471 0.18899 0.40085 0.0
C4 C 0.47307 0.13642 0.39523 0.0
C5 C 0.57765 0.16262 0.34319 0.0
C6 C 0.49653 0.25761 0.37739 0.0
C7 C 0.63499 0.17021 0.4045 0.0
C8 C 0.54024 0.14139 0.45465 0.0
C9 C 0.56483 0.26744 0.43356 0.0
O10 O 0.50293 0.12425 0.38676 0.0
O11 O 0.57696 0.19634 0.34807 0.0
O12 O 0.48396 0.23925 0.39533 0.0
O13 O 0.61363 0.14391 0.4088 0.0
O14 O 0.5281 0.17357 0.45359 0.0
O15 O 0.58347 0.26116 0.41432 0.0
O16 O 0.54617 0.1226 0.43551 0.0
O17 O 0.62572 0.1994 0.39368 0.0
O18 O 0.53617 0.24995 0.43862 0.0
O19 O 0.57245 0.13844 0.35942 0.0
O20 O 0.47143 0.1624 0.41063 0.0
O21 O 0.5297 0.25639 0.3707 0.0
Sc22 Sc 0.35209 0.56485 0.38671 0.0
Sc23 Sc 0.2584 0.57637 0.37496 0.0
Sc24 Sc 0.28844 0.51106 0.41745 0.0
O25 O 0.2995 0.5505 0.39275 0.0
C26 C 0.35633 0.47965 0.38709 0.0
C27 C 0.3176 0.57538 0.33264 0.0
C28 C 0.22909 0.49494 0.37635 0.0
C29 C 0.31277 0.63987 0.39011 0.0
C30 C 0.35303 0.55124 0.4446 0.0
C31 C 0.2249 0.56775 0.42903 0.0
O32 O 0.36682 0.5098 0.37824 0.0
O33 O 0.28444 0.5729 0.33913 0.0
O34 O 0.25121 0.48456 0.39296 0.0
O35 O 0.34027 0.62053 0.39533 0.0
O36 O 0.32267 0.5351 0.4452 0.0
O37 O 0.2276 0.58493 0.40874 0.0
O38 O 0.36872 0.55922 0.42453 0.0
O39 O 0.28348 0.62757 0.38104 0.0
O40 O 0.24445 0.54033 0.4341 0.0
O41 O 0.34368 0.57414 0.34796 0.0
O42 O 0.33082 0.47696 0.40282 0.0
O43 O 0.22843 0.52719 0.36796 0.0
Sc44 Sc 0.91743 0.35107 0.40039 0.0
Sc45 Sc 0.914 0.26322 0.37744 0.0
Sc46 Sc 0.97306 0.28489 0.42546 0.0
O47 O 0.93555 0.29967 0.40075 0.0
C48 C 0.00142 0.36053 0.40367 0.0
C49 C 0.91513 0.32958 0.34284 0.0
C50 C -0.00332 0.23637 0.38115 0.0
C51 C 0.84654 0.30729 0.39605 0.0
C52 C 0.92797 0.33901 0.45782 0.0
C53 C 0.91813 0.21759 0.42647 0.0
O54 O 0.9717 0.36994 0.39337 0.0
O55 O 0.92524 0.29679 0.34581 0.0
O56 O 0.0056 0.25879 0.39787 0.0
O57 O 0.86378 0.33095 0.40836 0.0
O58 O 0.94256 0.30801 0.45558 0.0
O59 O 0.89983 0.22719 0.40758 0.0
O60 O 0.92362 0.36012 0.43955 0.0
O61 O 0.86133 0.28803 0.37946 0.0
O62 O 0.94648 0.23431 0.43358 0.0
O63 O 0.90777 0.35042 0.36088 0.0
O64 O 0.00379 0.33392 0.41868 0.0
O65 O 0.9644 0.23392 0.37293 0.0
Sc66 Sc 0.20324 0.97823 0.43091 0.0
Sc67 Sc 0.22242 0.91763 0.38339 0.0
Sc68 Sc 0.13479 0.92413 0.40733 0.0
O69 O 0.18706 0.94029 0.40695 0.0
C70 C 0.14951 0.93496 0.46424 0.0
C71 C 0.27144 0.92423 0.43119 0.0
C72 C 0.17621 0.85168 0.40468 0.0
C73 C 0.24785 0.00062 0.38389 0.0
C74 C 0.12825 0.00807 0.40924 0.0
C75 C 0.15402 0.91593 0.34978 0.0
O76 O 0.18105 0.94802 0.46139 0.0
O77 O 0.26156 0.9061 0.41239 0.0
O78 O 0.1521 0.87 0.4159 0.0
O79 O 0.22856 0.00964 0.40236 0.0
O80 O 0.11831 0.97871 0.39889 0.0
O81 O 0.18689 0.926 0.35207 0.0
O82 O 0.15413 0.00943 0.42488 0.0
O83 O 0.24942 0.96828 0.37572 0.0
O84 O 0.13354 0.911 0.36835 0.0
O85 O 0.25414 0.95193 0.43875 0.0
O86 O 0.12706 0.93295 0.44649 0.0
O87 O 0.19907 0.86517 0.38967 0.0
Sc88 Sc 0.07805 0.85219 0.12294 0.0
Sc89 Sc 0.07964 0.7656 0.14727 0.0
Sc90 Sc 0.023 0.78651 0.09796 0.0
O91 O 0.05883 0.80138 0.12325 0.0
C92 C 0.99443 0.86227 0.11928 0.0
C93 C 0.07827 0.83209 0.18078 0.0
C94 C -0.00226 0.73836 0.1419 0.0
C95 C 0.14466 0.80358 0.12633 0.0
C96 C 0.06837 0.84015 0.06589 0.0
C97 C 0.07825 0.71933 0.09843 0.0
O98 O 0.02364 0.87157 0.13039 0.0
O99 O 0.06511 0.80031 0.17802 0.0
O100 O 0.98929 0.76149 0.12542 0.0
O101 O 0.13051 0.82882 0.11354 0.0
O102 O 0.05527 0.80856 0.06822 0.0
O103 O 0.0964 0.72955 0.1173 0.0
O104 O 0.07033 0.86178 0.08401 0.0
O105 O 0.12995 0.7944 0.14637 0.0
O106 O 0.04958 0.73555 0.09121 0.0
O107 O 0.08876 0.85103 0.16241 0.0
O108 O 0.99322 0.83643 0.10361 0.0
O109 O 0.02988 0.73513 0.15034 0.0
Sc110 Sc 0.70115 0.0025 0.09835 0.0
Sc111 Sc 0.7323 0.06852 0.13988 0.0
Sc112 Sc 0.63832 0.06021 0.12748 0.0
O113 O 0.69065 0.04356 0.12213 0.0
C114 C 0.63771 0.04404 0.06983 0.0
C115 C 0.76617 0.05608 0.08604 0.0
C116 C 0.68117 0.1337 0.12294 0.0
C117 C 0.75974 0.987 0.14089 0.0
C118 C 0.63179 0.9745 0.12842 0.0
C119 C 0.67125 0.07085 0.1816 0.0
O120 O 0.66614 0.02449 0.06994 0.0
O121 O 0.76529 0.07217 0.10678 0.0
O122 O 0.65186 0.1161 0.12016 0.0
O123 O 0.73964 0.97725 0.12298 0.0
O124 O 0.62076 0.00572 0.13504 0.0
O125 O 0.70454 0.07009 0.17522 0.0
O126 O 0.65915 0.96967 0.11447 0.0
O127 O 0.75891 0.01876 0.14995 0.0
O128 O 0.64538 0.06763 0.16632 0.0
O129 O 0.74435 0.03082 0.08043 0.0
O130 O 0.62365 0.05643 0.08938 0.0
O131 O 0.71068 0.12005 0.13066 0.0
Sc132 Sc 0.47936 0.70697 0.089 0.0
Sc133 Sc 0.40664 0.72785 0.12817 0.0
Sc134 Sc 0.42772 0.63657 0.11392 0.0
O135 O 0.43802 0.69061 0.1107 0.0
C136 C 0.4479 0.64304 0.05707 0.0
C137 C 0.42302 0.77054 0.07798 0.0
C138 C 0.35129 0.67245 0.10303 0.0
C139 C 0.48647 0.75797 0.13644 0.0
C140 C 0.51275 0.63889 0.11804 0.0
C141 C 0.40379 0.66331 0.16761 0.0
O142 O 0.46046 0.67498 0.05836 0.0
O143 O 0.40444 0.76516 0.09732 0.0
O144 O 0.37218 0.64491 0.10218 0.0
O145 O 0.49946 0.74149 0.11777 0.0
O146 O 0.48273 0.62583 0.12548 0.0
O147 O 0.4017 0.69674 0.16203 0.0
O148 O 0.51464 0.66518 0.10293 0.0
O149 O 0.45326 0.75592 0.143 0.0
O150 O 0.41279 0.63923 0.15211 0.0
O151 O 0.45048 0.75137 0.07261 0.0
O152 O 0.44024 0.62453 0.07607 0.0
O153 O 0.35965 0.70258 0.11292 0.0
Sc154 Sc 0.78816 0.48166 0.09482 0.0
Sc155 Sc 0.76162 0.42238 0.14214 0.0
Sc156 Sc 0.85341 0.42696 0.12377 0.0
O157 O 0.80096 0.44383 0.12046 0.0
C158 C 0.84614 0.43526 0.06535 0.0
C159 C 0.71964 0.4294 0.09074 0.0
C160 C 0.80947 0.35423 0.12618 0.0
C161 C 0.73783 0.50541 0.13984 0.0
C162 C 0.86141 0.51178 0.11905 0.0
C163 C 0.82719 0.42266 0.18014 0.0
O164 O 0.81661 0.45308 0.06589 0.0
O165 O 0.72449 0.41414 0.11152 0.0
O166 O 0.83761 0.37111 0.119 0.0
O167 O 0.7565 0.51262 0.12072 0.0
O168 O 0.87156 0.48197 0.12871 0.0
O169 O 0.79341 0.42586 0.17563 0.0
O170 O 0.83425 0.5143 0.10464 0.0
O171 O 0.73716 0.47415 0.14976 0.0
O172 O 0.8511 0.42186 0.16331 0.0
O173 O 0.74025 0.45425 0.08272 0.0
O174 O 0.86408 0.42797 0.08472 0.0
O175 O 0.78196 0.36926 0.13589 0.0
Sc176 Sc 0.48502 0.78519 0.58899 0.0
Sc177 Sc 0.41444 0.75934 0.62863 0.0
Sc178 Sc 0.42874 0.85211 0.61497 0.0
O179 O 0.44295 0.79882 0.61117 0.0
C180 C 0.51461 0.85477 0.61823 0.0
C181 C 0.49505 0.73045 0.63465 0.0
C182 C 0.41024 0.823 0.66893 0.0
C183 C 0.43146 0.7202 0.57711 0.0
C184 C 0.44793 0.84831 0.55775 0.0
C185 C 0.35407 0.81181 0.60603 0.0
O186 O 0.51868 0.82695 0.60466 0.0
O187 O 0.46257 0.73292 0.64261 0.0
O188 O 0.41805 0.84783 0.65368 0.0
O189 O 0.457 0.74154 0.57132 0.0
O190 O 0.43614 0.86457 0.5767 0.0
O191 O 0.36539 0.78165 0.61438 0.0
O192 O 0.46553 0.81871 0.55897 0.0
O193 O 0.4141 0.72301 0.59725 0.0
O194 O 0.37274 0.84077 0.60583 0.0
O195 O 0.50665 0.74811 0.61605 0.0
O196 O 0.4836 0.86731 0.62415 0.0
O197 O 0.40849 0.78971 0.66283 0.0
Sc198 Sc 0.64016 0.41798 0.6266 0.0
Sc199 Sc 0.72839 0.41375 0.64828 0.0
Sc200 Sc 0.70569 0.47304 0.6009 0.0
O201 O 0.69145 0.43647 0.62584 0.0
C202 C 0.64863 0.42977 0.56956 0.0
C203 C 0.6875 0.35046 0.62781 0.0
C204 C 0.77074 0.41536 0.59782 0.0
C205 C 0.66455 0.41515 0.68375 0.0
C206 C 0.63103 0.5019 0.62485 0.0
C207 C 0.7586 0.4945 0.64335 0.0
O208 O 0.62813 0.42683 0.58819 0.0
O209 O 0.69809 0.36446 0.64773 0.0
O210 O 0.75504 0.44481 0.5916 0.0
O211 O 0.64394 0.40606 0.66584 0.0
O212 O 0.65731 0.50412 0.60949 0.0
O213 O 0.76096 0.46205 0.65119 0.0
O214 O 0.62143 0.47216 0.6351 0.0
O215 O 0.69626 0.42813 0.68023 0.0
O216 O 0.7345 0.50454 0.62792 0.0
O217 O 0.66198 0.36551 0.61578 0.0
O218 O 0.68027 0.44308 0.57123 0.0
O219 O 0.7615 0.3971 0.61685 0.0
Sc220 Sc 0.07332 0.63767 0.62693 0.0
Sc221 Sc 0.07344 0.72568 0.64914 0.0
Sc222 Sc 0.01862 0.70228 0.59943 0.0
O223 O 0.0537 0.68848 0.62567 0.0
C224 C 0.06648 0.64764 0.56923 0.0
C225 C 0.13991 0.68621 0.63169 0.0
C226 C 0.07411 0.7691 0.59928 0.0
C227 C 0.06902 0.66086 0.68423 0.0
C228 C 0.9899 0.62661 0.62101 0.0
C229 C 0.99167 0.7527 0.64164 0.0
O230 O 0.06944 0.62708 0.58789 0.0
O231 O 0.12376 0.69695 0.6508 0.0
O232 O 0.04555 0.75285 0.59202 0.0
O233 O 0.07994 0.64026 0.66683 0.0
O234 O 0.98847 0.65289 0.60567 0.0
O235 O 0.02358 0.75651 0.6503 0.0
O236 O 0.01887 0.61772 0.63257 0.0
O237 O 0.05774 0.69317 0.68045 0.0
O238 O 0.98383 0.72866 0.6257 0.0
O239 O 0.1264 0.66057 0.61908 0.0
O240 O 0.05168 0.67868 0.57063 0.0
O241 O 0.09171 0.75958 0.61856 0.0
Sc242 Sc 0.85195 0.06281 0.61286 0.0
Sc243 Sc 0.76092 0.07811 0.63059 0.0
Sc244 Sc 0.78242 0.00912 0.58875 0.0
O245 O 0.7983 0.04978 0.61113 0.0
C246 C 0.84276 0.04515 0.55586 0.0
C247 C 0.81175 0.13739 0.60499 0.0
C248 C 0.71591 0.0633 0.58137 0.0
C249 C 0.82758 0.08284 0.66791 0.0
C250 C 0.85406 0.978 0.61523 0.0
C251 C 0.73356 -0.00321 0.63669 0.0
O252 O 0.86248 0.05187 0.57448 0.0
O253 O 0.78326 0.12729 0.61635 0.0
O254 O 0.73542 0.03675 0.57461 0.0
O255 O 0.85116 0.07709 0.65134 0.0
O256 O 0.82718 0.97541 0.60055 0.0
O257 O 0.73497 0.02951 0.64429 0.0
O258 O 0.8657 0.00823 0.62327 0.0
O259 O 0.79367 0.08169 0.66361 0.0
O260 O 0.75033 0.98552 0.61762 0.0
O261 O 0.8399 0.11779 0.60206 0.0
O262 O 0.81129 0.03157 0.55779 0.0
O263 O 0.7222 0.081 0.60091 0.0
Sc264 Sc 0.91394 0.13875 0.88648 0.0
Sc265 Sc 0.90882 0.23294 0.87405 0.0
Sc266 Sc 0.9673 0.19977 0.92023 0.0
O267 O 0.93005 0.19058 0.89344 0.0
C268 C 0.92057 0.13754 0.94523 0.0
C269 C 0.84005 0.18254 0.88399 0.0
C270 C 0.9137 0.26678 0.92848 0.0
C271 C 0.91305 0.17256 0.83204 0.0
C272 C -0.00061 0.13029 0.89241 0.0
C273 C 0.9914 0.25707 0.87939 0.0
O274 O 0.91142 0.12366 0.92476 0.0
O275 O 0.85533 0.21191 0.8777 0.0
O276 O 0.93794 0.2445 0.93546 0.0
O277 O 0.91288 0.14647 0.84729 0.0
O278 O 0.00156 0.15677 0.90729 0.0
O279 O 0.96066 0.25866 0.86872 0.0
O280 O 0.96954 0.12021 0.88275 0.0
O281 O 0.91364 0.20571 0.83866 0.0
O282 O -0.00207 0.23607 0.89745 0.0
O283 O 0.85714 0.15356 0.88937 0.0
O284 O 0.93994 0.16586 0.94667 0.0
O285 O 0.8996 0.26574 0.90702 0.0
Sc286 Sc 0.35285 0.92846 0.88683 0.0
Sc287 Sc 0.26046 0.91473 0.87249 0.0
Sc288 Sc 0.28599 0.98079 0.91554 0.0
O289 O 0.29963 0.94164 0.89128 0.0
C290 C 0.34929 0.94139 0.94466 0.0
C291 C 0.31574 0.85255 0.88905 0.0
C292 C 0.22325 0.92271 0.92527 0.0
C293 C 0.32185 0.91682 0.83187 0.0
C294 C 0.35543 0.01356 0.88756 0.0
C295 C 0.22909 -0.00421 0.87284 0.0
O296 O 0.36704 0.93509 0.92509 0.0
O297 O 0.28692 0.86415 0.87884 0.0
O298 O 0.24096 0.95121 0.93043 0.0
O299 O 0.34694 0.91831 0.84794 0.0
O300 O 0.32928 0.0155 0.90286 0.0
O301 O 0.22924 0.96322 0.86505 0.0
O302 O 0.36646 0.98376 0.8784 0.0
O303 O 0.28828 0.91933 0.83737 0.0
O304 O 0.25055 0.0071 0.88955 0.0
O305 O 0.34202 0.87261 0.89551 0.0
O306 O 0.31817 0.95625 0.94436 0.0
O307 O 0.22847 0.90482 0.90553 0.0
Sc308 Sc 0.56386 0.35462 0.9053 0.0
Sc309 Sc 0.58207 0.25757 0.88731 0.0
Sc310 Sc 0.51387 0.28356 0.9304 0.0
O311 O 0.55359 0.29827 0.90687 0.0
C312 C 0.54826 0.34557 0.96162 0.0
C313 C 0.61723 0.3119 0.91945 0.0
C314 C 0.56699 0.21471 0.93715 0.0
C315 C 0.58699 0.32718 0.8512 0.0
C316 C 0.48017 0.35275 0.90233 0.0
C317 C 0.49771 0.23484 0.88363 0.0
O318 O 0.54788 0.36617 0.94287 0.0
O319 O 0.586 0.29882 0.91417 0.0
O320 O 0.54186 0.23619 0.94386 0.0
O321 O 0.58218 0.35109 0.86775 0.0
O322 O 0.47951 0.32875 0.9193 0.0
O323 O 0.53041 0.23502 0.87591 0.0
O324 O 0.50953 0.36371 0.89252 0.0
O325 O 0.58418 0.29316 0.85519 0.0
O326 O 0.48733 0.25191 0.90273 0.0
O327 O 0.6186 0.34584 0.91834 0.0
O328 O 0.5395 0.31246 0.96009 0.0
O329 O 0.58438 0.21875 0.91713 0.0
Sc330 Sc 0.20533 0.50915 0.92995 0.0
Sc331 Sc 0.22866 0.56789 0.88168 0.0
Sc332 Sc 0.13894 0.56507 0.90375 0.0
O333 O 0.1911 0.54714 0.9049 0.0
C334 C 0.1301 0.48062 0.90748 0.0
C335 C 0.2523 0.48454 0.88376 0.0
C336 C 0.16071 0.56976 0.84638 0.0
C337 C 0.27452 0.56115 0.93132 0.0
C338 C 0.15015 0.55513 0.96167 0.0
C339 C 0.18337 0.63662 0.90015 0.0
O340 O 0.15749 0.47754 0.92173 0.0
O341 O 0.25309 0.51591 0.87395 0.0
O342 O 0.13862 0.5727 0.86424 0.0
O343 O 0.25496 0.53585 0.93999 0.0
O344 O 0.13027 0.56177 0.94307 0.0
O345 O 0.20866 0.62139 0.88802 0.0
O346 O 0.18014 0.53837 0.95989 0.0
O347 O 0.26758 0.5768 0.91096 0.0
O348 O 0.1565 0.62 0.90948 0.0
O349 O 0.23397 0.47741 0.90302 0.0
O350 O 0.12021 0.51066 0.89802 0.0
O351 O 0.19437 0.56333 0.84947 0.0
H352 H 0.55793 0.10008 0.32001 0.0
H353 H 0.70673 0.11578 0.21381 0.0
H354 H 0.62342 0.19581 0.31032 0.0
H355 H 0.61176 0.04831 0.20716 0.0
H356 H 0.68307 0.13914 0.25307 0.0
H357 H 0.58257 0.0756 0.28162 0.0
C358 C 0.57719 0.11614 0.30963 0.0
C359 C 0.58842 0.15018 0.31829 0.0
C360 C 0.66765 0.11897 0.24308 0.0
C361 C 0.61756 0.12178 0.2747 0.0
C362 C 0.68137 0.10526 0.22089 0.0
C363 C 0.66122 0.07998 0.20727 0.0
C364 C 0.6339 0.10682 0.25184 0.0
C365 C 0.62815 0.06778 0.21708 0.0
C366 C 0.59134 0.10208 0.28779 0.0
C367 C 0.61365 0.16969 0.30416 0.0
N368 N 0.61556 0.08126 0.23875 0.0
N369 N 0.6277 0.15504 0.28318 0.0
H370 H 0.42698 0.603 0.19236 0.0
H371 H 0.27843 0.61538 0.29912 0.0
H372 H 0.35458 0.69453 0.19929 0.0
H373 H 0.37894 0.55636 0.30751 0.0
H374 H 0.29961 0.63746 0.25887 0.0
H375 H 0.4043 0.57941 0.23157 0.0
C376 C 0.40648 0.61829 0.20222 0.0
C377 C 0.39285 0.65096 0.19258 0.0
C378 C 0.31682 0.61941 0.26948 0.0
C379 C 0.36606 0.62351 0.23723 0.0
C380 C 0.30457 0.60643 0.29227 0.0
C381 C 0.3269 0.58388 0.30666 0.0
C382 C 0.35135 0.60925 0.26084 0.0
C383 C 0.36083 0.57369 0.29704 0.0
C384 C 0.39351 0.60475 0.22458 0.0
C385 C 0.36617 0.66949 0.20617 0.0
N386 N 0.37196 0.58635 0.27476 0.0
N387 N 0.35339 0.65534 0.22769 0.0
H388 H 0.88423 0.29227 0.30485 0.0
H389 H 0.88888 0.44543 0.20374 0.0
H390 H 0.92525 0.39783 0.32429 0.0
H391 H 0.79387 0.37894 0.21361 0.0
H392 H 0.91242 0.42337 0.24352 0.0
H393 H 0.86182 0.31746 0.26575 0.0
C394 C 0.88923 0.32053 0.30064 0.0
C395 C 0.90677 0.34299 0.31774 0.0
C396 C 0.88626 0.414 0.23702 0.0
C397 C 0.88132 0.37178 0.2732 0.0
C398 C 0.87278 0.42663 0.21446 0.0
C399 C 0.83917 0.41433 0.20557 0.0
C400 C 0.86663 0.38789 0.25024 0.0
C401 C 0.81959 0.38957 0.22 0.0
C402 C 0.87607 0.33492 0.27852 0.0
C403 C 0.91192 0.37962 0.31155 0.0
N404 N 0.83388 0.37669 0.24142 0.0
N405 N 0.89948 0.39287 0.28968 0.0
H406 H 0.0936 0.87587 0.33848 0.0
H407 H 0.11792 0.89207 0.19278 0.0
H408 H 0.18209 0.93349 0.30425 0.0
H409 H 0.05676 0.80536 0.2263 0.0
H410 H 0.13431 0.91396 0.23353 0.0
H411 H 0.07292 0.85645 0.29773 0.0
C412 C 0.10852 0.88482 0.32241 0.0
C413 C 0.13973 0.90648 0.32491 0.0
C414 C 0.11722 0.89022 0.23202 0.0
C415 C 0.11595 0.88419 0.27809 0.0
C416 C 0.1076 0.87767 0.20868 0.0
C417 C 0.08588 0.84658 0.20591 0.0
C418 C 0.10481 0.87198 0.25303 0.0
C419 C 0.0736 0.82931 0.22744 0.0
C420 C 0.09675 0.87346 0.29916 0.0
C421 C 0.15798 0.91683 0.30332 0.0
N422 N 0.08319 0.84227 0.25008 0.0
N423 N 0.14577 0.90569 0.28087 0.0
H424 H 0.38422 0.93584 0.80804 0.0
H425 H 0.3619 0.79049 0.70053 0.0
H426 H 0.28551 0.87489 0.7982 0.0
H427 H 0.43313 0.88268 0.69428 0.0
H428 H 0.33863 0.81523 0.7395 0.0
H429 H 0.40664 0.91223 0.76875 0.0
C430 C 0.36703 0.9179 0.79741 0.0
C431 C 0.33279 0.90759 0.80632 0.0
C432 C 0.35949 0.82988 0.72961 0.0
C433 C 0.35886 0.87946 0.76169 0.0
C434 C 0.37311 0.81556 0.70756 0.0
C435 C 0.39959 0.83449 0.69414 0.0
C436 C 0.37291 0.86301 0.73854 0.0
C437 C 0.4127 0.86718 0.70397 0.0
C438 C 0.37992 0.90431 0.77505 0.0
C439 C 0.31183 0.88397 0.79186 0.0
N440 N 0.39936 0.8803 0.72556 0.0
N441 N 0.32538 0.87032 0.77041 0.0
H442 H 0.57933 0.29263 0.80654 0.0
H443 H 0.69165 0.43788 0.72875 0.0
H444 H 0.62015 0.39104 0.83927 0.0
H445 H 0.61067 0.3681 0.69637 0.0
H446 H 0.67271 0.41677 0.7698 0.0
H447 H 0.5981 0.31518 0.76596 0.0
C448 C 0.59225 0.3189 0.80522 0.0
C449 C 0.59789 0.34004 0.82634 0.0
C450 C 0.65907 0.40632 0.75362 0.0
C451 C 0.61992 0.36576 0.78006 0.0
C452 C 0.66987 0.41834 0.73023 0.0
C453 C 0.65268 0.40496 0.70901 0.0
C454 C 0.63149 0.38017 0.75574 0.0
C455 C 0.62462 0.3795 0.71211 0.0
C456 C 0.60285 0.33181 0.78207 0.0
C457 C 0.61486 0.37395 0.82347 0.0
N458 N 0.61518 0.36776 0.73493 0.0
N459 N 0.62546 0.38564 0.80083 0.0
H460 H 0.05236 0.59511 0.70438 0.0
H461 H 0.19579 0.60827 0.8108 0.0
H462 H 0.10351 0.69709 0.72114 0.0
H463 H 0.0944 0.55437 0.82578 0.0
H464 H 0.17001 0.63167 0.77218 0.0
H465 H 0.0735 0.57112 0.74429 0.0
C466 C 0.06746 0.6126 0.71669 0.0
C467 C 0.07575 0.64829 0.70971 0.0
C468 C 0.15361 0.61443 0.78387 0.0
C469 C 0.10141 0.62055 0.7545 0.0
C470 C 0.1684 0.6007 0.8057 0.0
C471 C 0.14726 0.57914 0.82142 0.0
C472 C 0.11778 0.60577 0.77737 0.0
C473 C 0.11162 0.5708 0.81411 0.0
C474 C 0.0796 0.59888 0.7393 0.0
C475 C 0.09598 0.66968 0.72606 0.0
N476 N 0.09804 0.58386 0.79248 0.0
N477 N 0.10871 0.65528 0.74752 0.0
H478 H 0.79197 0.12563 0.70135 0.0
H479 H 0.94012 0.11443 0.80685 0.0
H480 H 0.89301 0.06852 0.69019 0.0
H481 H 0.87076 0.20791 0.7982 0.0
H482 H 0.92048 0.09267 0.7663 0.0
H483 H 0.81619 0.15038 0.7399 0.0
C484 C 0.81904 0.11787 0.70716 0.0
C485 C 0.84042 0.0948 0.69254 0.0
C486 C 0.91 0.11821 0.77312 0.0
C487 C 0.8683 0.1232 0.73658 0.0
C488 C 0.92131 0.13073 0.79618 0.0
C489 C 0.90729 0.1632 0.80579 0.0
C490 C 0.88364 0.13772 0.7599 0.0
C491 C 0.88264 0.18303 0.79132 0.0
C492 C 0.83298 0.13237 0.729 0.0
C493 C 0.87556 0.08616 0.70087 0.0
N494 N 0.87112 0.16968 0.76927 0.0
N495 N 0.88831 0.10014 0.72241 0.0
H496 H 0.46273 0.07598 0.36633 0.0
H497 H 0.25075 0.07365 0.39299 0.0
H498 H 0.40426 0.16044 0.40469 0.0
H499 H 0.30751 0.98772 0.35501 0.0
H500 H 0.30439 0.11169 0.38904 0.0
H501 H 0.40469 0.04839 0.35505 0.0
C502 C 0.43776 0.08885 0.37226 0.0
C503 C 0.43846 0.12017 0.38693 0.0
C504 C 0.30493 0.08473 0.38116 0.0
C505 C 0.37202 0.08895 0.37391 0.0
C506 C 0.27417 0.06304 0.38329 0.0
C507 C 0.27493 0.02706 0.37493 0.0
C508 C 0.33678 0.07021 0.37085 0.0
C509 C 0.30586 0.01507 0.36213 0.0
C510 C 0.40463 0.07318 0.36572 0.0
C511 C 0.40519 0.1359 0.39379 0.0
N512 N 0.33588 0.03631 0.36099 0.0
N513 N 0.37342 0.11994 0.38742 0.0
H514 H 0.32997 0.41094 0.39075 0.0
H515 H 0.51637 0.31955 0.35295 0.0
H516 H 0.42174 0.47133 0.3633 0.0
H517 H 0.42248 0.261 0.37884 0.0
H518 H 0.47854 0.37351 0.34777 0.0
H519 H 0.35997 0.3549 0.37889 0.0
C520 C 0.3565 0.41243 0.3822 0.0
C521 C 0.37376 0.44586 0.37853 0.0
C522 C 0.46606 0.34863 0.35406 0.0
C523 C 0.40836 0.38153 0.36481 0.0
C524 C 0.48759 0.31769 0.35684 0.0
C525 C 0.47272 0.28601 0.36698 0.0
C526 C 0.42957 0.34773 0.36152 0.0
C527 C 0.43525 0.28513 0.37154 0.0
C528 C 0.37353 0.38036 0.37524 0.0
C529 C 0.4077 0.44611 0.36678 0.0
N530 N 0.41512 0.31575 0.36923 0.0
N531 N 0.42418 0.41434 0.36067 0.0
H532 H 0.07075 0.34099 0.41572 0.0
H533 H 0.16424 0.51207 0.35406 0.0
H534 H 0.01016 0.42168 0.375 0.0
H535 H 0.22295 0.42259 0.38669 0.0
H536 H 0.10831 0.4769 0.35694 0.0
H537 H 0.12686 0.36921 0.40253 0.0
C538 C 0.06914 0.36485 0.40412 0.0
C539 C 0.03549 0.37918 0.39671 0.0
C540 C 0.13356 0.46473 0.36302 0.0
C541 C 0.10021 0.41159 0.38122 0.0
C542 C 0.16565 0.48466 0.36117 0.0
C543 C 0.19831 0.47059 0.37066 0.0
C544 C 0.13421 0.43061 0.37449 0.0
C545 C 0.19834 0.43487 0.37958 0.0
C546 C 0.10136 0.38077 0.39637 0.0
C547 C 0.03543 0.40986 0.38135 0.0
N548 N 0.1667 0.4164 0.38168 0.0
N549 N 0.06732 0.42521 0.37424 0.0
H550 H 0.14898 0.07648 0.42209 0.0
H551 H 0.98406 0.17412 0.35483 0.0
H552 H 0.06943 0.01899 0.37864 0.0
H553 H 0.06795 0.23019 0.39525 0.0
H554 H 0.01969 0.11847 0.35754 0.0
H555 H 0.12297 0.13351 0.40839 0.0
C556 C 0.12583 0.07576 0.40978 0.0
C557 C 0.11107 0.04272 0.40181 0.0
C558 C 0.0306 0.14311 0.3654 0.0
C559 C 0.08128 0.10844 0.38574 0.0
C560 C 0.01041 0.17508 0.36368 0.0
C561 C 0.02253 0.20677 0.37544 0.0
C562 C 0.06305 0.14289 0.37897 0.0
C563 C 0.05708 0.20629 0.38638 0.0
C564 C 0.11119 0.10849 0.40175 0.0
C565 C 0.08146 0.04376 0.38549 0.0
N566 N 0.07578 0.17467 0.3883 0.0
N567 N 0.06735 0.07612 0.37813 0.0
H568 H 0.92701 0.84173 0.10431 0.0
H569 H 0.82107 0.00429 0.16724 0.0
H570 H 0.9812 0.92118 0.14971 0.0
H571 H 0.76989 0.91568 0.12869 0.0
H572 H 0.87866 0.97138 0.16599 0.0
H573 H 0.86907 0.86683 0.11626 0.0
C574 C 0.92687 0.86473 0.1167 0.0
C575 C 0.95934 0.87961 0.12575 0.0
C576 C 0.85465 0.95885 0.15826 0.0
C577 C 0.89213 0.90853 0.13981 0.0
C578 C 0.82158 0.97746 0.15916 0.0
C579 C 0.79064 0.96311 0.14751 0.0
C580 C 0.85671 0.92574 0.14564 0.0
C581 C 0.7931 0.92818 0.13747 0.0
C582 C 0.8935 0.87887 0.12373 0.0
C583 C 0.95694 0.90906 0.14206 0.0
N584 N 0.82568 0.91103 0.13638 0.0
N585 N 0.92385 0.92279 0.14844 0.0
H586 H 0.56021 0.75668 0.1403 0.0
H587 H 0.56537 0.97116 0.15145 0.0
H588 H 0.46642 0.82194 0.15799 0.0
H589 H 0.6543 0.90399 0.12658 0.0
H590 H 0.53251 0.91643 0.16366 0.0
H591 H 0.59886 0.80936 0.14674 0.0
C592 C 0.54788 0.78192 0.1462 0.0
C593 C 0.51005 0.78524 0.14807 0.0
C594 C 0.5594 0.91378 0.1558 0.0
C595 C 0.5539 0.84586 0.15472 0.0
C596 C 0.57812 0.94498 0.14873 0.0
C597 C 0.61231 0.94213 0.13745 0.0
C598 C 0.57508 0.87959 0.15164 0.0
C599 C 0.62768 0.90753 0.13468 0.0
C600 C 0.56991 0.81206 0.14973 0.0
C601 C 0.49548 0.81836 0.15611 0.0
N602 N 0.60882 0.87767 0.14151 0.0
N603 N 0.51738 0.84773 0.15854 0.0
H604 H 0.5807 0.66702 0.11246 0.0
H605 H 0.67899 0.49464 0.16988 0.0
H606 H 0.52381 0.57739 0.14599 0.0
H607 H 0.73269 0.57702 0.12674 0.0
H608 H 0.62461 0.53245 0.17109 0.0
H609 H 0.63793 0.64124 0.12631 0.0
C610 C 0.58016 0.64185 0.12274 0.0
C611 C 0.54732 0.62389 0.12755 0.0
C612 C 0.64856 0.54255 0.16181 0.0
C613 C 0.61315 0.59433 0.14367 0.0
C614 C 0.67982 0.52112 0.16127 0.0
C615 C 0.71019 0.53222 0.14756 0.0
C616 C 0.6478 0.57527 0.14864 0.0
C617 C 0.70964 0.56696 0.13703 0.0
C618 C 0.61295 0.62729 0.1308 0.0
C619 C 0.54847 0.59187 0.14152 0.0
N620 N 0.67868 0.58695 0.13739 0.0
N621 N 0.58094 0.57784 0.14883 0.0
H622 H 0.92618 0.7345 0.12814 0.0
H623 H 0.92086 0.52051 0.14931 0.0
H624 H 0.00932 0.67533 0.16758 0.0
H625 H 0.84358 0.58086 0.10542 0.0
H626 H 0.94911 0.57774 0.16154 0.0
H627 H 0.88954 0.67968 0.12684 0.0
C628 C 0.93644 0.71023 0.13702 0.0
C629 C 0.97132 0.70936 0.14744 0.0
C630 C 0.92586 0.57835 0.14931 0.0
C631 C 0.92979 0.64625 0.14552 0.0
C632 C 0.90989 0.54568 0.14218 0.0
C633 C 0.88007 0.54574 0.12604 0.0
C634 C 0.91182 0.61125 0.1403 0.0
C635 C 0.86676 0.57928 0.11765 0.0
C636 C 0.91558 0.67881 0.1361 0.0
C637 C 0.98285 0.67719 0.15898 0.0
N638 N 0.8828 0.61057 0.12481 0.0
N639 N 0.96244 0.64669 0.15728 0.0
H640 H 0.67039 0.01533 0.66017 0.0
H641 H 0.58411 0.82871 0.61786 0.0
H642 H 0.73212 0.92282 0.63521 0.0
H643 H 0.52055 0.92101 0.64125 0.0
H644 H 0.63877 0.85904 0.63204 0.0
H645 H 0.61645 0.97709 0.66281 0.0
C646 C 0.67296 0.98669 0.65611 0.0
C647 C 0.70561 0.97239 0.6469 0.0
C648 C 0.61289 0.87263 0.63428 0.0
C649 C 0.64387 0.9288 0.64932 0.0
C650 C 0.58159 0.8554 0.62599 0.0
C651 C 0.54766 0.87263 0.62788 0.0
C652 C 0.6105 0.9076 0.64433 0.0
C653 C 0.54615 0.90689 0.63911 0.0
C654 C 0.642 0.96495 0.65734 0.0
C655 C 0.70729 0.93512 0.64191 0.0
N656 N 0.57721 0.92347 0.64662 0.0
N657 N 0.67668 0.91479 0.6427 0.0
H658 H 0.65629 0.57027 0.6178 0.0
H659 H 0.47424 0.66873 0.65908 0.0
H660 H 0.56489 0.51226 0.64808 0.0
H661 H 0.56865 0.7233 0.63024 0.0
H662 H 0.50971 0.61278 0.66222 0.0
H663 H 0.62693 0.62708 0.62796 0.0
C664 C 0.62986 0.56941 0.62652 0.0
C665 C 0.61273 0.53628 0.63164 0.0
C666 C 0.52284 0.6372 0.65571 0.0
C667 C 0.57877 0.60194 0.64355 0.0
C668 C 0.50272 0.66932 0.65415 0.0
C669 C 0.51833 0.70066 0.64393 0.0
C670 C 0.55875 0.63654 0.64704 0.0
C671 C 0.55531 0.69968 0.63782 0.0
C672 C 0.61319 0.60204 0.63253 0.0
C673 C 0.57889 0.53715 0.64354 0.0
N674 N 0.57404 0.66802 0.63909 0.0
N675 N 0.56276 0.56952 0.64883 0.0
H676 H 0.92244 0.64365 0.60373 0.0
H677 H 0.82103 0.48045 0.66946 0.0
H678 H 0.97779 0.56818 0.65185 0.0
H679 H 0.76714 0.56466 0.62774 0.0
H680 H 0.87743 0.51487 0.66722 0.0
H681 H 0.86504 0.6164 0.61476 0.0
C682 C 0.92267 0.62112 0.61653 0.0
C683 C 0.95528 0.60802 0.62668 0.0
C684 C 0.8531 0.52607 0.65893 0.0
C685 C 0.88886 0.57669 0.63964 0.0
C686 C 0.82074 0.50657 0.66033 0.0
C687 C 0.78934 0.51927 0.64828 0.0
C688 C 0.85407 0.55841 0.64534 0.0
C689 C 0.79071 0.55343 0.63695 0.0
C690 C 0.88964 0.60574 0.623 0.0
C691 C 0.95343 0.57899 0.6434 0.0
N692 N 0.82267 0.57148 0.63542 0.0
N693 N 0.92074 0.56413 0.64926 0.0
H694 H 0.91331 0.96985 0.6457 0.0
H695 H 0.92054 0.75591 0.62665 0.0
H696 H 0.83388 0.90845 0.60469 0.0
H697 H 0.0015 0.81606 0.66711 0.0
H698 H 0.88278 0.81017 0.62507 0.0
H699 H 0.94143 0.91296 0.65894 0.0
C700 C 0.90174 0.94449 0.63949 0.0
C701 C 0.8715 0.94403 0.62372 0.0
C702 C 0.90857 0.81137 0.63463 0.0
C703 C 0.9033 0.87886 0.63903 0.0
C704 C 0.93009 0.78028 0.63567 0.0
C705 C 0.96469 0.78159 0.6465 0.0
C706 C 0.92185 0.84406 0.64432 0.0
C707 C 0.9753 0.81386 0.65819 0.0
C708 C 0.91769 0.91201 0.64718 0.0
C709 C 0.85745 0.91027 0.61654 0.0
N710 N 0.95428 0.84403 0.65637 0.0
N711 N 0.8736 0.87913 0.62411 0.0
H712 H 0.06823 0.15395 0.90111 0.0
H713 H 0.16543 0.97699 0.84975 0.0
H714 H 0.00939 0.06649 0.86655 0.0
H715 H 0.2216 0.06862 0.88116 0.0
H716 H 0.10919 0.01227 0.84979 0.0
H717 H 0.12492 0.12537 0.88939 0.0
C718 C 0.06714 0.12856 0.89112 0.0
C719 C 0.0338 0.11233 0.88517 0.0
C720 C 0.13398 0.02485 0.85623 0.0
C721 C 0.09928 0.07935 0.87146 0.0
C722 C 0.16625 0.00484 0.85602 0.0
C723 C 0.19825 0.0196 0.86595 0.0
C724 C 0.13376 0.0598 0.86645 0.0
C725 C 0.19752 0.05585 0.87374 0.0
C726 C 0.0997 0.11236 0.88424 0.0
C727 C 0.03441 0.07979 0.87176 0.0
N728 N 0.1657 0.07445 0.87419 0.0
N729 N 0.06668 0.06414 0.86556 0.0
H730 H 0.41814 0.02234 0.86066 0.0
H731 H 0.42369 0.23412 0.88761 0.0
H732 H 0.33314 0.08287 0.89702 0.0
H733 H 0.51339 0.17437 0.8563 0.0
H734 H 0.38485 0.1815 0.88156 0.0
H735 H 0.44855 0.07947 0.85085 0.0
C736 C 0.40573 0.04758 0.86645 0.0
C737 C 0.37339 0.04771 0.88013 0.0
C738 C 0.41286 0.18007 0.87558 0.0
C739 C 0.40785 0.1131 0.86875 0.0
C740 C 0.43502 0.21022 0.87889 0.0
C741 C 0.47207 0.20835 0.87302 0.0
C742 C 0.42797 0.14768 0.86659 0.0
C743 C 0.48509 0.17689 0.8614 0.0
C744 C 0.42305 0.08019 0.86075 0.0
C745 C 0.35838 0.0813 0.88687 0.0
N746 N 0.46325 0.14744 0.85909 0.0
N747 N 0.37588 0.11254 0.8813 0.0
H748 H 0.46858 0.40909 0.86997 0.0
H749 H 0.25604 0.41256 0.89608 0.0
H750 H 0.41169 0.3309 0.9148 0.0
H751 H 0.31206 0.49509 0.85451 0.0
H752 H 0.31059 0.37511 0.89477 0.0
H753 H 0.41012 0.4348 0.85742 0.0
C754 C 0.44386 0.39723 0.87712 0.0
C755 C 0.44515 0.3682 0.89386 0.0
C756 C 0.31077 0.40113 0.88553 0.0
C757 C 0.37816 0.39724 0.87933 0.0
C758 C 0.27948 0.42245 0.88611 0.0
C759 C 0.27971 0.45747 0.87597 0.0
C760 C 0.3426 0.41504 0.87492 0.0
C761 C 0.31074 0.46853 0.86294 0.0
C762 C 0.41048 0.41182 0.86984 0.0
C763 C 0.41216 0.35369 0.90223 0.0
N764 N 0.34125 0.44774 0.86329 0.0
N765 N 0.38012 0.36853 0.89504 0.0
H766 H 0.07065 0.47383 0.87714 0.0
H767 H 0.06286 0.25911 0.89319 0.0
H768 H 0.14672 0.41076 0.92023 0.0
H769 H 0.98086 0.32112 0.85474 0.0
H770 H 0.10011 0.3134 0.89604 0.0
H771 H 0.042 0.4176 0.86352 0.0
C772 C 0.08124 0.44825 0.88385 0.0
C773 C 0.11091 0.44714 0.90012 0.0
C774 C 0.07421 0.31503 0.88663 0.0
C775 C 0.07864 0.38271 0.88422 0.0
C776 C 0.05303 0.28394 0.88481 0.0
C777 C 0.01829 0.28574 0.87423 0.0
C778 C 0.06045 0.3482 0.87796 0.0
C779 C 0.00727 0.31854 0.86335 0.0
C780 C 0.06504 0.41615 0.87589 0.0
C781 C 0.12369 0.41311 0.90792 0.0
N782 N 0.02797 0.34871 0.86595 0.0
N783 N 0.10743 0.38233 0.89995 0.0
H784 H 0.65823 0.19272 0.44902 0.0
H785 H 0.78951 0.29623 0.36615 0.0
H786 H 0.69489 0.15182 0.37909 0.0
H787 H 0.82371 0.28829 0.44195 0.0
H788 H 0.74214 0.25177 0.37426 0.0
H789 H 0.71304 0.23019 0.45174 0.0
C790 C 0.67906 0.18976 0.43507 0.0
C791 C 0.67212 0.16974 0.4136 0.0
C792 C 0.75965 0.26025 0.38923 0.0
C793 C 0.73297 0.2133 0.41602 0.0
C794 C 0.78593 0.28622 0.38477 0.0
C795 C 0.81031 0.29571 0.40342 0.0
C796 C 0.75767 0.24394 0.4125 0.0
C797 C 0.80501 0.28173 0.42722 0.0
C798 C 0.70985 0.21168 0.43642 0.0
C799 C 0.69937 0.16715 0.39583 0.0
N800 N 0.7793 0.25591 0.43113 0.0
N801 N 0.7281 0.1899 0.39693 0.0
H802 H 0.30663 0.66443 0.43675 0.0
H803 H 0.16573 0.7937 0.37581 0.0
H804 H 0.30936 0.69845 0.36087 0.0
H805 H 0.20629 0.8267 0.44676 0.0
H806 H 0.20801 0.74267 0.37618 0.0
H807 H 0.26609 0.71563 0.44617 0.0
C808 C 0.30051 0.68401 0.42243 0.0
C809 C 0.31085 0.67741 0.39797 0.0
C810 C 0.2069 0.76053 0.392 0.0
C811 C 0.26355 0.73361 0.4082 0.0
C812 C 0.18215 0.7889 0.39208 0.0
C813 C 0.18292 0.81414 0.41121 0.0
C814 C 0.23228 0.75771 0.41118 0.0
C815 C 0.20507 0.80739 0.43177 0.0
C816 C 0.27676 0.71252 0.4277 0.0
C817 C 0.30176 0.70283 0.37992 0.0
N818 N 0.22983 0.78004 0.43102 0.0
N819 N 0.27754 0.72928 0.38522 0.0
H820 H 0.29298 0.63339 0.11809 0.0
H821 H 0.17626 0.80455 0.08005 0.0
H822 H 0.32814 0.71112 0.06399 0.0
H823 H 0.1723 0.74347 0.14799 0.0
H824 H 0.21774 0.75833 0.0631 0.0
H825 H 0.23124 0.65745 0.11469 0.0
C826 C 0.28721 0.65416 0.1045 0.0
C827 C 0.31537 0.67115 0.0918 0.0
C828 C 0.20717 0.75509 0.08157 0.0
C829 C 0.2462 0.70002 0.08891 0.0
C830 C 0.18411 0.78164 0.09137 0.0
C831 C 0.17141 0.77831 0.11564 0.0
C832 C 0.21691 0.72502 0.09609 0.0
C833 C 0.18175 0.74765 0.12933 0.0
C834 C 0.25218 0.66831 0.1028 0.0
C835 C 0.30682 0.69801 0.07444 0.0
N836 N 0.20389 0.72241 0.1194 0.0
N837 N 0.27306 0.7127 0.0741 0.0
H838 H 0.80865 0.30057 0.15942 0.0
H839 H 0.69917 0.16244 0.07896 0.0
H840 H 0.79519 0.3234 0.08212 0.0
H841 H 0.67326 0.18946 0.15406 0.0
H842 H 0.73803 0.21629 0.07657 0.0
H843 H 0.76903 0.24807 0.15506 0.0
C844 C 0.79884 0.29326 0.14126 0.0
C845 C 0.80505 0.31591 0.12108 0.0
C846 C 0.72277 0.21107 0.09324 0.0
C847 C 0.75834 0.25775 0.11622 0.0
C848 C 0.69995 0.181 0.09442 0.0
C849 C 0.68318 0.17188 0.11676 0.0
C850 C 0.72887 0.2312 0.1147 0.0
C851 C 0.68567 0.19594 0.13652 0.0
C852 C 0.77542 0.26409 0.13891 0.0
C853 C 0.79115 0.30606 0.09799 0.0
N854 N 0.70913 0.22405 0.1353 0.0
N855 N 0.76767 0.27784 0.09619 0.0
H856 H 0.17406 0.68259 0.58642 0.0
H857 H 0.29649 0.8503 0.62327 0.0
H858 H 0.16857 0.74566 0.65339 0.0
H859 H 0.3278 0.77108 0.56901 0.0
H860 H 0.2343 0.82727 0.62159 0.0
H861 H 0.21795 0.72657 0.56993 0.0
C862 C 0.18215 0.70544 0.59765 0.0
C863 C 0.16826 0.70999 0.62151 0.0
C864 C 0.25448 0.8158 0.60935 0.0
C865 C 0.2167 0.76079 0.60247 0.0
C866 C 0.28976 0.82933 0.61008 0.0
C867 C 0.31697 0.81182 0.59669 0.0
C868 C 0.2472 0.78435 0.59554 0.0
C869 C 0.30724 0.78465 0.57992 0.0
C870 C 0.20661 0.73076 0.5881 0.0
C871 C 0.1789 0.7406 0.63505 0.0
N872 N 0.27321 0.77084 0.58033 0.0
N873 N 0.2025 0.76465 0.62538 0.0
H874 H 0.8526 0.1967 0.61579 0.0
H875 H 0.68012 0.31551 0.58295 0.0
H876 H 0.76506 0.15903 0.56985 0.0
H877 H 0.75059 0.32451 0.64639 0.0
H878 H 0.72292 0.27115 0.56522 0.0
H879 H 0.83005 0.25881 0.6109 0.0
C880 C 0.8297 0.20183 0.60372 0.0
C881 C 0.80989 0.17319 0.59374 0.0
C882 C 0.72901 0.28352 0.58282 0.0
C883 C 0.78318 0.24291 0.58904 0.0
C884 C 0.70443 0.30827 0.59308 0.0
C885 C 0.71128 0.32302 0.61644 0.0
C886 C 0.76063 0.2742 0.59594 0.0
C887 C 0.74361 0.31337 0.62857 0.0
C888 C 0.81658 0.23709 0.6011 0.0
C889 C 0.78038 0.18082 0.57824 0.0
N890 N 0.76685 0.28952 0.61824 0.0
N891 N 0.76708 0.21502 0.57693 0.0
H892 H 0.79252 0.20365 0.84925 0.0
H893 H 0.63949 0.25481 0.94688 0.0
H894 H 0.79951 0.16914 0.92496 0.0
H895 H 0.66559 0.3171 0.88213 0.0
H896 H 0.68851 0.21196 0.93657 0.0
H897 H 0.73322 0.23057 0.85764 0.0
C898 C 0.78073 0.20053 0.86742 0.0
C899 C 0.80064 0.18448 0.88652 0.0
C900 C 0.68353 0.2351 0.92473 0.0
C901 C 0.73399 0.21634 0.89648 0.0
C902 C 0.656 0.25958 0.93069 0.0
C903 C 0.64943 0.28962 0.91553 0.0
C904 C 0.70375 0.24054 0.90318 0.0
C905 C 0.67065 0.29461 0.89451 0.0
C906 C 0.74727 0.21632 0.87229 0.0
C907 C 0.78465 0.18123 0.9098 0.0
N908 N 0.69687 0.27015 0.88888 0.0
N909 N 0.75233 0.19783 0.91434 0.0
H910 H 0.30616 0.82701 0.93518 0.0
H911 H 0.17697 0.69168 0.86824 0.0
H912 H 0.31704 0.79442 0.85939 0.0
H913 H 0.20819 0.66537 0.94264 0.0
H914 H 0.21817 0.74334 0.86914 0.0
H915 H 0.26672 0.77449 0.94258 0.0
C916 C 0.30206 0.80751 0.92052 0.0
C917 C 0.31439 0.81484 0.8966 0.0
C918 C 0.2153 0.72678 0.88551 0.0
C919 C 0.26826 0.75704 0.90448 0.0
C920 C 0.19107 0.69808 0.88522 0.0
C921 C 0.18941 0.67465 0.90539 0.0
C922 C 0.23777 0.73178 0.9061 0.0
C923 C 0.20875 0.68334 0.92685 0.0
C924 C 0.2789 0.77822 0.92461 0.0
C925 C 0.30787 0.78948 0.87804 0.0
N926 N 0.23297 0.71105 0.92655 0.0
N927 N 0.28418 0.76221 0.88216 0.0
H928 H 0.55604 0.07102 0.46621 0.0
H929 H 0.67503 0.1257 0.58352 0.0
H930 H 0.55762 0.1791 0.49663 0.0
H931 H 0.6846 0.02446 0.54413 0.0
H932 H 0.62413 0.14264 0.55678 0.0
H933 H 0.59345 0.05015 0.50045 0.0
C934 C 0.56361 0.09024 0.48038 0.0
C935 C 0.55412 0.127 0.47832 0.0
C936 C 0.63724 0.11663 0.55415 0.0
C937 C 0.59767 0.10336 0.51738 0.0
C938 C 0.66632 0.10693 0.56938 0.0
C939 C 0.6844 0.07373 0.56592 0.0
C940 C 0.62599 0.09284 0.53547 0.0
C941 C 0.67185 0.05051 0.54732 0.0
C942 C 0.5852 0.07834 0.49986 0.0
C943 C 0.56442 0.15055 0.4974 0.0
N944 N 0.64355 0.06056 0.53278 0.0
N945 N 0.5862 0.13845 0.51594 0.0
H946 H 0.46936 0.69876 0.53638 0.0
H947 H 0.31996 0.55818 0.48981 0.0
H948 H 0.37257 0.67406 0.57793 0.0
H949 H 0.4204 0.58056 0.45181 0.0
H950 H 0.34101 0.59515 0.52439 0.0
H951 H 0.45353 0.6516 0.50709 0.0
C952 C 0.44472 0.68341 0.5394 0.0
C953 C 0.42212 0.69072 0.55963 0.0
C954 C 0.35863 0.5915 0.50863 0.0
C955 C 0.40376 0.63624 0.52589 0.0
C956 C 0.34676 0.57014 0.48893 0.0
C957 C 0.36826 0.56651 0.46768 0.0
C958 C 0.39219 0.60938 0.50706 0.0
C959 C 0.40267 0.58285 0.46763 0.0
C960 C 0.43577 0.65628 0.52265 0.0
C961 C 0.39075 0.66951 0.56258 0.0
N962 N 0.41333 0.60383 0.48684 0.0
N963 N 0.38235 0.64342 0.54579 0.0
H964 H 0.91282 0.40764 0.47348 0.0
H965 H 0.79739 0.34571 0.59095 0.0
H966 H 0.90748 0.29599 0.49692 0.0
H967 H 0.81192 0.4563 0.56719 0.0
H968 H 0.84153 0.32621 0.55953 0.0
H969 H 0.88023 0.42549 0.51049 0.0
C970 C 0.90511 0.38686 0.48657 0.0
C971 C 0.91277 0.35025 0.48197 0.0
C972 C 0.83527 0.35477 0.56144 0.0
C973 C 0.8746 0.37048 0.52451 0.0
C974 C 0.81016 0.36586 0.57941 0.0
C975 C 0.80046 0.40258 0.58148 0.0
C976 C 0.85085 0.3807 0.54562 0.0
C977 C 0.81795 0.42761 0.56604 0.0
C978 C 0.88639 0.39706 0.50777 0.0
C979 C 0.90222 0.32457 0.49975 0.0
N980 N 0.84195 0.4162 0.54877 0.0
N981 N 0.88323 0.33511 0.5201 0.0
H982 H 0.0315 0.81397 0.57238 0.0
H983 H 0.19434 0.91299 0.50211 0.0
H984 H 0.14376 0.79522 0.59135 0.0
H985 H 0.08149 0.91832 0.48085 0.0
H986 H 0.17707 0.87758 0.53858 0.0
H987 H 0.0501 0.85997 0.54307 0.0
C988 C 0.0602 0.81972 0.57047 0.0
C989 C 0.08616 0.8003 0.58412 0.0
C990 C 0.15612 0.88693 0.52607 0.0
C991 C 0.10786 0.85317 0.55009 0.0
C992 C 0.16588 0.90735 0.50532 0.0
C993 C 0.13932 0.91854 0.48826 0.0
C994 C 0.11951 0.87789 0.52987 0.0
C995 C 0.10296 0.91013 0.49332 0.0
C996 C 0.07083 0.84609 0.55366 0.0
C997 C 0.12289 0.80947 0.58113 0.0
N998 N 0.09424 0.89024 0.51352 0.0
N999 N 0.13275 0.83498 0.56416 0.0
H1000 H 0.19139 0.96295 0.96126 0.0
H1001 H 0.08745 0.79815 0.02582 0.0
H1002 H 0.19202 0.8549 0.93081 0.0
H1003 H 0.08669 0.90872 0.05176 0.0
H1004 H 0.12136 0.81787 0.98923 0.0
H1005 H 0.14928 0.9431 0.99278 0.0
C1006 C 0.18262 0.93494 0.96115 0.0
C1007 C 0.19562 0.91051 0.94339 0.0
C1008 C 0.11338 0.8378 1.00283 0.0
C1009 C 0.14698 0.88733 0.97989 0.0
C1010 C 0.09386 0.82662 0.02367 0.0
C1011 C 0.08435 0.85177 0.04204 0.0
C1012 C 0.12339 0.87437 1.00036 0.0
C1013 C 0.09363 0.88824 0.03828 0.0
C1014 C 0.15837 0.9236 0.97921 0.0
C1015 C 0.18274 0.87467 0.94413 0.0
N1016 N 0.11272 0.8983 0.01804 0.0
N1017 N 0.15936 0.86404 0.96224 0.0
H1018 H 0.56926 0.06876 0.06038 0.0
H1019 H 0.62682 0.16946 0.93589 0.0
H1020 H 0.67353 0.05282 0.02582 0.0
H1021 H 0.52744 0.18913 0.97592 0.0
H1022 H 0.64149 0.12039 0.96485 0.0
H1023 H 0.54994 0.10496 0.0252 0.0
C1024 C 0.58787 0.07228 0.04513 0.0
C1025 C 0.62318 0.058 0.04618 0.0
C1026 C 0.61636 0.13532 0.96712 0.0
C1027 C 0.60152 0.10038 1.00593 0.0
C1028 C 0.60798 0.16336 0.95062 0.0
C1029 C 0.57601 0.18379 0.95359 0.0
C1030 C 0.59248 0.12753 0.9866 0.0
C1031 C 0.5526 0.17453 0.973 0.0
C1032 C 0.5769 0.09319 0.02507 0.0
C1033 C 0.64604 0.0633 0.02578 0.0
N1034 N 0.56137 0.14728 0.98873 0.0
N1035 N 0.63503 0.08459 1.00664 0.0
H1036 H 0.31346 0.62475 0.92821 0.0
H1037 H 0.43605 0.57241 0.04458 0.0
H1038 H 0.30945 0.52275 0.96714 0.0
H1039 H 0.42973 0.68103 0.01529 0.0
H1040 H 0.40023 0.55083 0.00986 0.0
H1041 H 0.36471 0.64312 0.95433 0.0
C1042 C 0.32353 0.60611 0.94206 0.0
C1043 C 0.30681 0.57234 0.94571 0.0
C1044 C 0.40711 0.57932 0.01077 0.0
C1045 C 0.3655 0.59299 0.97537 0.0
C1046 C 0.42781 0.59163 0.03053 0.0
C1047 C 0.43547 0.62867 0.03306 0.0
C1048 C 0.39355 0.60424 0.99346 0.0
C1049 C 0.42435 0.65225 0.01413 0.0
C1050 C 0.35276 0.6166 0.95694 0.0
C1051 C 0.32105 0.54925 0.96389 0.0
N1052 N 0.40332 0.63975 0.99534 0.0
N1053 N 0.34938 0.56006 0.97805 0.0
H1054 H 0.913 0.40717 0.05479 0.0
H1055 H 0.85383 0.31286 0.92781 0.0
H1056 H 0.80699 0.42379 0.02265 0.0
H1057 H 0.9503 0.28723 0.9697 0.0
H1058 H 0.83836 0.35937 0.9587 0.0
H1059 H 0.92989 0.37032 0.0195 0.0
C1060 C 0.89335 0.40347 0.04015 0.0
C1061 C 0.85838 0.41842 0.04189 0.0
C1062 C 0.86294 0.34355 0.96096 0.0
C1063 C 0.87746 0.37539 1.00129 0.0
C1064 C 0.87178 0.31703 0.94336 0.0
C1065 C 0.90324 0.29574 0.94621 0.0
C1066 C 0.88599 0.34904 0.98131 0.0
C1067 C 0.92553 0.30248 0.96674 0.0
C1068 C 0.90298 0.3822 0.01998 0.0
C1069 C 0.83426 0.4128 0.02212 0.0
N1070 N 0.91647 0.32835 0.98336 0.0
N1071 N 0.8441 0.39137 1.00275 0.0
H1072 H 0.43255 0.918 0.54469 0.0
H1073 H 0.30729 0.85817 0.4316 0.0
H1074 H 0.4311 0.80875 0.51651 0.0
H1075 H 0.31075 0.96562 0.46294 0.0
H1076 H 0.3588 0.84078 0.45801 0.0
H1077 H 0.39581 0.93754 0.50976 0.0
C1078 C 0.42519 0.89826 0.53079 0.0
C1079 C 0.43473 0.86168 0.53361 0.0
C1080 C 0.34845 0.86825 0.45886 0.0
C1081 C 0.39143 0.88361 0.49382 0.0
C1082 C 0.31907 0.87818 0.44379 0.0
C1083 C 0.30429 0.91327 0.44528 0.0
C1084 C 0.36321 0.89367 0.47536 0.0
C1085 C 0.32073 0.93808 0.4614 0.0
C1086 C 0.40394 0.90936 0.5109 0.0
C1087 C 0.42445 0.83727 0.515 0.0
N1088 N 0.34901 0.92775 0.47582 0.0
N1089 N 0.40274 0.84853 0.49612 0.0
H1090 H 0.68911 0.41102 0.52874 0.0
H1091 H 0.52478 0.29905 0.46995 0.0
H1092 H 0.57954 0.41045 0.55689 0.0
H1093 H 0.63163 0.30115 0.43734 0.0
H1094 H 0.54438 0.34346 0.50013 0.0
H1095 H 0.66859 0.3753 0.49323 0.0
C1096 C 0.66065 0.40402 0.52725 0.0
C1097 C 0.63608 0.41361 0.54598 0.0
C1098 C 0.56363 0.33444 0.48635 0.0
C1099 C 0.61256 0.37236 0.50557 0.0
C1100 C 0.55244 0.30889 0.46908 0.0
C1101 C 0.57663 0.29602 0.45111 0.0
C1102 C 0.59949 0.34728 0.48598 0.0
C1103 C 0.61204 0.31024 0.45086 0.0
C1104 C 0.64901 0.38342 0.50705 0.0
C1105 C 0.59958 0.40349 0.5431 0.0
N1106 N 0.62251 0.33489 0.46818 0.0
N1107 N 0.58908 0.38327 0.52347 0.0
H1108 H 0.20094 0.52905 0.46852 0.0
H1109 H 0.08095 0.68784 0.52741 0.0
H1110 H 0.18686 0.63256 0.43252 0.0
H1111 H 0.0919 0.58012 0.55769 0.0
H1112 H 0.11637 0.66848 0.4914 0.0
H1113 H 0.15863 0.54776 0.50024 0.0
C1114 C 0.18895 0.55583 0.46723 0.0
C1115 C 0.19781 0.57932 0.44779 0.0
C1116 C 0.11065 0.64906 0.50584 0.0
C1117 C 0.14879 0.60115 0.48451 0.0
C1118 C 0.09028 0.66002 0.52637 0.0
C1119 C 0.08355 0.63566 0.54577 0.0
C1120 C 0.12438 0.6135 0.50474 0.0
C1121 C 0.09655 0.60002 0.54339 0.0
C1122 C 0.16455 0.56649 0.48542 0.0
C1123 C 0.18088 0.61354 0.44715 0.0
N1124 N 0.11643 0.59019 0.52343 0.0
N1125 N 0.15736 0.62355 0.46536 0.0
H1126 H 0.91232 0.05852 0.54115 0.0
H1127 H 0.85074 0.18475 0.42875 0.0
H1128 H 0.80132 0.06519 0.51598 0.0
H1129 H 0.95978 0.17743 0.45766 0.0
H1130 H 0.83284 0.13475 0.45616 0.0
H1131 H 0.93116 0.0944 0.50576 0.0
C1132 C 0.89197 0.06696 0.5279 0.0
C1133 C 0.85516 0.05911 0.5317 0.0
C1134 C 0.86075 0.14393 0.45626 0.0
C1135 C 0.87642 0.10121 0.49129 0.0
C1136 C 0.87097 0.17242 0.44062 0.0
C1137 C 0.9067 0.18567 0.44115 0.0
C1138 C 0.88653 0.12853 0.47234 0.0
C1139 C 0.93178 0.16863 0.45688 0.0
C1140 C 0.9027 0.08767 0.50771 0.0
C1141 C 0.83001 0.07062 0.51379 0.0
N1142 N 0.92118 0.14122 0.47186 0.0
N1143 N 0.84102 0.09166 0.49457 0.0
H1144 H 0.88677 0.07212 0.95081 0.0
H1145 H 0.8125 0.11493 0.08632 0.0
H1146 H 0.91752 0.16773 0.99156 0.0
H1147 H 0.78227 0.02169 0.04289 0.0
H1148 H 0.85526 0.1326 0.05382 0.0
H1149 H 0.85335 0.05065 0.98656 0.0
C1150 C 0.88684 0.08847 0.96737 0.0
C1151 C 0.9048 0.12197 0.96804 0.0
C1152 C 0.83937 0.10817 0.05154 0.0
C1153 C 0.86595 0.09764 0.00918 0.0
C1154 C 0.81495 0.09806 0.07008 0.0
C1155 C 0.79346 0.0669 0.06732 0.0
C1156 C 0.84237 0.0869 0.03015 0.0
C1157 C 0.7979 0.04611 0.04584 0.0
C1158 C 0.86762 0.07621 0.98783 0.0
C1159 C 0.90406 0.14176 0.99017 0.0
N1160 N 0.82166 0.05655 0.02815 0.0
N1161 N 0.88459 0.12949 0.00978 0.0
H1162 H 0.41811 0.91718 0.95449 0.0
H1163 H 0.36082 0.81256 0.07775 0.0
H1164 H 0.31221 0.9282 0.98773 0.0
H1165 H 0.46221 0.79702 0.03923 0.0
H1166 H 0.34473 0.86042 0.04824 0.0
H1167 H 0.43736 0.87998 0.98922 0.0
C1168 C 0.39904 0.91231 0.9693 0.0
C1169 C 0.36334 0.92564 0.96799 0.0
C1170 C 0.37057 0.84663 0.04639 0.0
C1171 C 0.38512 0.88224 1.0078 0.0
C1172 C 0.37977 0.81927 0.06322 0.0
C1173 C 0.41282 0.80042 0.06091 0.0
C1174 C 0.39466 0.85533 0.02721 0.0
C1175 C 0.43629 0.81043 0.04169 0.0
C1176 C 0.41001 0.89084 0.98911 0.0
C1177 C 0.33998 0.91852 0.9879 0.0
N1178 N 0.42671 0.83702 0.02563 0.0
N1179 N 0.35112 0.89689 1.00682 0.0
H1180 H 0.68818 0.46879 0.05409 0.0
H1181 H 0.56597 0.30745 1.00354 0.0
H1182 H 0.68027 0.36573 0.09139 0.0
H1183 H 0.56767 0.41532 0.97262 0.0
H1184 H 0.60264 0.32904 0.03814 0.0
H1185 H 0.64003 0.45038 0.02626 0.0
C1186 C 0.67625 0.44221 0.05647 0.0
C1187 C 0.68865 0.4186 0.07496 0.0
C1188 C 0.59449 0.34807 0.02397 0.0
C1189 C 0.63314 0.39716 0.04286 0.0
C1190 C 0.57338 0.33583 1.00423 0.0
C1191 C 0.56401 0.3595 0.98491 0.0
C1192 C 0.60642 0.38419 0.02434 0.0
C1193 C 0.57449 0.39594 0.98688 0.0
C1194 C 0.64853 0.43175 0.04059 0.0
C1195 C 0.67164 0.38473 0.07734 0.0
N1196 N 0.59543 0.407 1.00603 0.0
N1197 N 0.645 0.37482 0.06126 0.0
H1198 H 0.14728 0.69024 0.09243 0.0
H1199 H 0.08186 0.5733 0.97678 0.0
H1200 H 0.03592 0.67666 0.06974 0.0
H1201 H 0.19342 0.57371 1.00111 0.0
H1202 H 0.06489 0.60716 0.01345 0.0
H1203 H 0.16548 0.644 0.06205 0.0
C1204 C 0.12669 0.67724 0.08136 0.0
C1205 C 0.09018 0.6879 0.08333 0.0
C1206 C 0.09309 0.59959 0.01103 0.0
C1207 C 0.11052 0.63512 0.04867 0.0
C1208 C 0.10277 0.58015 0.99002 0.0
C1209 C 0.13913 0.57074 0.98575 0.0
C1210 C 0.11998 0.61044 0.02789 0.0
C1211 C 0.16502 0.58029 1.0037 0.0
C1212 C 0.13703 0.65091 0.06399 0.0
C1213 C 0.06451 0.66995 0.06859 0.0
N1214 N 0.15504 0.60008 0.02382 0.0
N1215 N 0.07519 0.64485 0.05186 0.0
loop_
_geom_bond_atom_site_label_1
_geom_bond_atom_site_label_2
_geom_bond_distance
_geom_bond_site_symmetry_2
_ccdc_geom_bond_type
Sc0 O3 2.025 . S
Sc0 O10 2.105 . S
Sc0 O13 2.105 . S
Sc0 O16 2.105 . S
Sc0 O19 2.105 . S
Sc1 O3 2.025 . S
Sc1 O11 2.105 . S
Sc1 O15 2.105 . S
Sc1 O17 2.105 . S
Sc1 O21 2.105 . S
Sc2 O3 2.025 . S
Sc2 O12 2.105 . S
Sc2 O14 2.105 . S
Sc2 O18 2.105 . S
Sc2 O20 2.105 . S
O3 Sc0 2.025 . S
O3 Sc1 2.025 . S
O3 Sc2 2.025 . S
C4 O10 1.268 . S
C4 O20 1.268 . S
C5 O11 1.268 . S
C5 O19 1.268 . S
C6 O12 1.268 . S
C6 O21 1.268 . S
C7 O13 1.268 . S
C7 O17 1.268 . S
C8 O14 1.268 . S
C8 O16 1.268 . S
C9 O15 1.268 . S
C9 O18 1.268 . S
O10 Sc0 2.105 . S
O10 C4 1.268 . S
O11 Sc1 2.105 . S
O11 C5 1.268 . S
O12 Sc2 2.105 . S
O12 C6 1.268 . S
O13 Sc0 2.105 . S
O13 C7 1.268 . S
O14 Sc2 2.105 . S
O14 C8 1.268 . S
O15 Sc1 2.105 . S
O15 C9 1.268 . S
O16 Sc0 2.105 . S
O16 C8 1.268 . S
O17 Sc1 2.105 . S
O17 C7 1.268 . S
O18 Sc2 2.105 . S
O18 C9 1.268 . S
O19 Sc0 2.105 . S
O19 C5 1.268 . S
O20 Sc2 2.105 . S
O20 C4 1.268 . S
O21 Sc1 2.105 . S
O21 C6 1.268 . S
Sc22 O25 2.025 . S
Sc22 O32 2.105 . S
Sc22 O35 2.105 . S
Sc22 O38 2.105 . S
Sc22 O41 2.105 . S
Sc23 O25 2.025 . S
Sc23 O33 2.105 . S
Sc23 O37 2.105 . S
Sc23 O39 2.105 . S
Sc23 O43 2.105 . S
Sc24 O25 2.025 . S
Sc24 O34 2.105 . S
Sc24 O36 2.105 . S
Sc24 O40 2.105 . S
Sc24 O42 2.105 . S
O25 Sc22 2.025 . S
O25 Sc23 2.025 . S
O25 Sc24 2.025 . S
C26 O32 1.268 . S
C26 O42 1.268 . S
C27 O33 1.268 . S
C27 O41 1.268 . S
C28 O34 1.268 . S
C28 O43 1.268 . S
C29 O35 1.268 . S
C29 O39 1.268 . S
C30 O36 1.268 . S
C30 O38 1.268 . S
C31 O37 1.268 . S
C31 O40 1.268 . S
O32 Sc22 2.105 . S
O32 C26 1.268 . S
O33 Sc23 2.105 . S
O33 C27 1.268 . S
O34 Sc24 2.105 . S
O34 C28 1.268 . S
O35 Sc22 2.105 . S
O35 C29 1.268 . S
O36 Sc24 2.105 . S
O36 C30 1.268 . S
O37 Sc23 2.105 . S
O37 C31 1.268 . S
O38 Sc22 2.105 . S
O38 C30 1.268 . S
O39 Sc23 2.105 . S
O39 C29 1.268 . S
O40 Sc24 2.105 . S
O40 C31 1.268 . S
O41 Sc22 2.105 . S
O41 C27 1.268 . S
O42 Sc24 2.105 . S
O42 C26 1.268 . S
O43 Sc23 2.105 . S
O43 C28 1.268 . S
Sc44 O47 2.025 . S
Sc44 O54 2.105 . S
Sc44 O57 2.105 . S
Sc44 O60 2.105 . S
Sc44 O63 2.105 . S
Sc45 O47 2.025 . S
Sc45 O55 2.105 . S
Sc45 O59 2.105 . S
Sc45 O61 2.105 . S
Sc45 O65 2.105 . S
Sc46 O47 2.025 . S
Sc46 O56 2.105 1_655 S
Sc46 O58 2.105 . S
Sc46 O62 2.105 . S
Sc46 O64 2.105 1_655 S
O47 Sc44 2.025 . S
O47 Sc45 2.025 . S
O47 Sc46 2.025 . S
C48 O54 1.268 . S
C48 O64 1.268 1_655 S
C49 O55 1.268 . S
C49 O63 1.268 . S
C50 O56 1.267 1_655 S
C50 O65 1.279 . S
C51 O57 1.268 . S
C51 O61 1.268 . S
C52 O58 1.268 . S
C52 O60 1.268 . S
C53 O59 1.268 . S
C53 O62 1.268 . S
O54 Sc44 2.105 . S
O54 C48 1.268 . S
O55 Sc45 2.105 . S
O55 C49 1.268 . S
O56 Sc46 2.105 1_455 S
O56 C50 1.267 1_455 S
O57 Sc44 2.105 . S
O57 C51 1.268 . S
O58 Sc46 2.105 . S
O58 C52 1.268 . S
O59 Sc45 2.105 . S
O59 C53 1.268 . S
O60 Sc44 2.105 . S
O60 C52 1.268 . S
O61 Sc45 2.105 . S
O61 C51 1.268 . S
O62 Sc46 2.105 . S
O62 C53 1.268 . S
O63 Sc44 2.105 . S
O63 C49 1.268 . S
O64 Sc46 2.105 1_455 S
O64 C48 1.268 1_455 S
O65 Sc45 2.105 . S
O65 C50 1.279 . S
Sc66 O69 2.025 . S
Sc66 O76 2.105 . S
Sc66 O79 2.105 1_565 S
Sc66 O82 2.105 1_565 S
Sc66 O85 2.105 . S
Sc67 O69 2.025 . S
Sc67 O77 2.105 . S
Sc67 O81 2.105 . S
Sc67 O83 2.105 . S
Sc67 O87 2.105 . S
Sc68 O69 2.025 . S
Sc68 O78 2.105 . S
Sc68 O80 2.105 . S
Sc68 O84 2.105 . S
Sc68 O86 2.105 . S
O69 Sc66 2.025 . S
O69 Sc67 2.025 . S
O69 Sc68 2.025 . S
C70 O76 1.268 . S
C70 O86 1.268 . S
C71 O77 1.268 . S
C71 O85 1.268 . S
C72 O78 1.268 . S
C72 O87 1.268 . S
C73 O79 1.267 1_565 S
C73 O83 1.279 . S
C74 O80 1.268 . S
C74 O82 1.268 1_565 S
C75 O81 1.268 . S
C75 O84 1.268 . S
O76 Sc66 2.105 . S
O76 C70 1.268 . S
O77 Sc67 2.105 . S
O77 C71 1.268 . S
O78 Sc68 2.105 . S
O78 C72 1.268 . S
O79 Sc66 2.105 1_545 S
O79 C73 1.267 1_545 S
O80 Sc68 2.105 . S
O80 C74 1.268 . S
O81 Sc67 2.105 . S
O81 C75 1.268 . S
O82 Sc66 2.105 1_545 S
O82 C74 1.268 1_545 S
O83 Sc67 2.105 . S
O83 C73 1.279 . S
O84 Sc68 2.105 . S
O84 C75 1.268 . S
O85 Sc66 2.105 . S
O85 C71 1.268 . S
O86 Sc68 2.105 . S
O86 C70 1.268 . S
O87 Sc67 2.105 . S
O87 C72 1.268 . S
Sc88 O91 2.025 . S
Sc88 O98 2.105 . S
Sc88 O101 2.105 . S
Sc88 O104 2.105 . S
Sc88 O107 2.105 . S
Sc89 O91 2.025 . S
Sc89 O99 2.105 . S
Sc89 O103 2.105 . S
Sc89 O105 2.105 . S
Sc89 O109 2.105 . S
Sc90 O91 2.025 . S
Sc90 O100 2.105 1_455 S
Sc90 O102 2.105 . S
Sc90 O106 2.105 . S
Sc90 O108 2.105 1_455 S
O91 Sc88 2.025 . S
O91 Sc89 2.025 . S
O91 Sc90 2.025 . S
C92 O98 1.268 . S
C92 O108 1.268 1_455 S
C93 O99 1.268 . S
C93 O107 1.268 . S
C94 O100 1.267 1_455 S
C94 O109 1.279 . S
C95 O101 1.268 . S
C95 O105 1.268 . S
C96 O102 1.268 . S
C96 O104 1.268 . S
C97 O103 1.268 . S
C97 O106 1.268 . S
O98 Sc88 2.105 . S
O98 C92 1.268 . S
O99 Sc89 2.105 . S
O99 C93 1.268 . S
O100 Sc90 2.105 1_655 S
O100 C94 1.267 1_655 S
O101 Sc88 2.105 . S
O101 C95 1.268 . S
O102 Sc90 2.105 . S
O102 C96 1.268 . S
O103 Sc89 2.105 . S
O103 C97 1.268 . S
O104 Sc88 2.105 . S
O104 C96 1.268 . S
O105 Sc89 2.105 . S
O105 C95 1.268 . S
O106 Sc90 2.105 . S
O106 C97 1.268 . S
O107 Sc88 2.105 . S
O107 C93 1.268 . S
O108 Sc90 2.105 1_655 S
O108 C92 1.268 1_655 S
O109 Sc89 2.105 . S
O109 C94 1.279 . S
Sc110 O113 2.025 . S
Sc110 O120 2.105 . S
Sc110 O123 2.105 1_545 S
Sc110 O126 2.105 1_545 S
Sc110 O129 2.105 . S
Sc111 O113 2.025 . S
Sc111 O121 2.105 . S
Sc111 O125 2.105 . S
Sc111 O127 2.105 . S
Sc111 O131 2.105 . S
Sc112 O113 2.025 . S
Sc112 O122 2.105 . S
Sc112 O124 2.105 . S
Sc112 O128 2.105 . S
Sc112 O130 2.105 . S
O113 Sc110 2.025 . S
O113 Sc111 2.025 . S
O113 Sc112 2.025 . S
C114 O120 1.268 . S
C114 O130 1.268 . S
C115 O121 1.268 . S
C115 O129 1.268 . S
C116 O122 1.268 . S
C116 O131 1.268 . S
C117 O123 1.267 1_545 S
C117 O127 1.279 . S
C118 O124 1.268 . S
C118 O126 1.268 1_545 S
C119 O125 1.268 . S
C119 O128 1.268 . S
O120 Sc110 2.105 . S
O120 C114 1.268 . S
O121 Sc111 2.105 . S
O121 C115 1.268 . S
O122 Sc112 2.105 . S
O122 C116 1.268 . S
O123 Sc110 2.105 1_565 S
O123 C117 1.267 1_565 S
O124 Sc112 2.105 . S
O124 C118 1.268 . S
O125 Sc111 2.105 . S
O125 C119 1.268 . S
O126 Sc110 2.105 1_565 S
O126 C118 1.268 1_565 S
O127 Sc111 2.105 . S
O127 C117 1.279 . S
O128 Sc112 2.105 . S
O128 C119 1.268 . S
O129 Sc110 2.105 . S
O129 C115 1.268 . S
O130 Sc112 2.105 . S
O130 C114 1.268 . S
O131 Sc111 2.105 . S
O131 C116 1.268 . S
Sc132 O135 2.025 . S
Sc132 O142 2.105 . S
Sc132 O145 2.105 . S
Sc132 O148 2.105 . S
Sc132 O151 2.105 . S
Sc133 O135 2.025 . S
Sc133 O143 2.105 . S
Sc133 O147 2.105 . S
Sc133 O149 2.105 . S
Sc133 O153 2.105 . S
Sc134 O135 2.025 . S
Sc134 O144 2.105 . S
Sc134 O146 2.105 . S
Sc134 O150 2.105 . S
Sc134 O152 2.105 . S
O135 Sc132 2.025 . S
O135 Sc133 2.025 . S
O135 Sc134 2.025 . S
C136 O142 1.268 . S
C136 O152 1.268 . S
C137 O143 1.268 . S
C137 O151 1.268 . S
C138 O144 1.268 . S
C138 O153 1.268 . S
C139 O145 1.268 . S
C139 O149 1.268 . S
C140 O146 1.268 . S
C140 O148 1.268 . S
C141 O147 1.268 . S
C141 O150 1.268 . S
O142 Sc132 2.105 . S
O142 C136 1.268 . S
O143 Sc133 2.105 . S
O143 C137 1.268 . S
O144 Sc134 2.105 . S
O144 C138 1.268 . S
O145 Sc132 2.105 . S
O145 C139 1.268 . S
O146 Sc134 2.105 . S
O146 C140 1.268 . S
O147 Sc133 2.105 . S
O147 C141 1.268 . S
O148 Sc132 2.105 . S
O148 C140 1.268 . S
O149 Sc133 2.105 . S
O149 C139 1.268 . S
O150 Sc134 2.105 . S
O150 C141 1.268 . S
O151 Sc132 2.105 . S
O151 C137 1.268 . S
O152 Sc134 2.105 . S
O152 C136 1.268 . S
O153 Sc133 2.105 . S
O153 C138 1.268 . S
Sc154 O157 2.025 . S
Sc154 O164 2.105 . S
Sc154 O167 2.105 . S
Sc154 O170 2.105 . S
Sc154 O173 2.105 . S
Sc155 O157 2.025 . S
Sc155 O165 2.105 . S
Sc155 O169 2.105 . S
Sc155 O171 2.105 . S
Sc155 O175 2.105 . S
Sc156 O157 2.025 . S
Sc156 O166 2.105 . S
Sc156 O168 2.105 . S
Sc156 O172 2.105 . S
Sc156 O174 2.105 . S
O157 Sc154 2.025 . S
O157 Sc155 2.025 . S
O157 Sc156 2.025 . S
C158 O164 1.268 . S
C158 O174 1.268 . S
C159 O165 1.268 . S
C159 O173 1.268 . S
C160 O166 1.268 . S
C160 O175 1.268 . S
C161 O167 1.268 . S
C161 O171 1.268 . S
C162 O168 1.268 . S
C162 O170 1.268 . S
C163 O169 1.268 . S
C163 O172 1.268 . S
O164 Sc154 2.105 . S
O164 C158 1.268 . S
O165 Sc155 2.105 . S
O165 C159 1.268 . S
O166 Sc156 2.105 . S
O166 C160 1.268 . S
O167 Sc154 2.105 . S
O167 C161 1.268 . S
O168 Sc156 2.105 . S
O168 C162 1.268 . S
O169 Sc155 2.105 . S
O169 C163 1.268 . S
O170 Sc154 2.105 . S
O170 C162 1.268 . S
O171 Sc155 2.105 . S
O171 C161 1.268 . S
O172 Sc156 2.105 . S
O172 C163 1.268 . S
O173 Sc154 2.105 . S
O173 C159 1.268 . S
O174 Sc156 2.105 . S
O174 C158 1.268 . S
O175 Sc155 2.105 . S
O175 C160 1.268 . S
Sc176 O179 2.025 . S
Sc176 O186 2.105 . S
Sc176 O189 2.105 . S
Sc176 O192 2.105 . S
Sc176 O195 2.105 . S
Sc177 O179 2.025 . S
Sc177 O187 2.105 . S
Sc177 O191 2.105 . S
Sc177 O193 2.105 . S
Sc177 O197 2.105 . S
Sc178 O179 2.025 . S
Sc178 O188 2.105 . S
Sc178 O190 2.105 . S
Sc178 O194 2.105 . S
Sc178 O196 2.105 . S
O179 Sc176 2.025 . S
O179 Sc177 2.025 . S
O179 Sc178 2.025 . S
C180 O186 1.268 . S
C180 O196 1.268 . S
C181 O187 1.268 . S
C181 O195 1.268 . S
C182 O188 1.268 . S
C182 O197 1.268 . S
C183 O189 1.268 . S
C183 O193 1.268 . S
C184 O190 1.268 . S
C184 O192 1.268 . S
C185 O191 1.268 . S
C185 O194 1.268 . S
O186 Sc176 2.105 . S
O186 C180 1.268 . S
O187 Sc177 2.105 . S
O187 C181 1.268 . S
O188 Sc178 2.105 . S
O188 C182 1.268 . S
O189 Sc176 2.105 . S
O189 C183 1.268 . S
O190 Sc178 2.105 . S
O190 C184 1.268 . S
O191 Sc177 2.105 . S
O191 C185 1.268 . S
O192 Sc176 2.105 . S
O192 C184 1.268 . S
O193 Sc177 2.105 . S
O193 C183 1.268 . S
O194 Sc178 2.105 . S
O194 C185 1.268 . S
O195 Sc176 2.105 . S
O195 C181 1.268 . S
O196 Sc178 2.105 . S
O196 C180 1.268 . S
O197 Sc177 2.105 . S
O197 C182 1.268 . S
Sc198 O201 2.025 . S
Sc198 O208 2.105 . S
Sc198 O211 2.105 . S
Sc198 O214 2.105 . S
Sc198 O217 2.105 . S
Sc199 O201 2.025 . S
Sc199 O209 2.105 . S
Sc199 O213 2.105 . S
Sc199 O215 2.105 . S
Sc199 O219 2.105 . S
Sc200 O201 2.025 . S
Sc200 O210 2.105 . S
Sc200 O212 2.105 . S
Sc200 O216 2.105 . S
Sc200 O218 2.105 . S
O201 Sc198 2.025 . S
O201 Sc199 2.025 . S
O201 Sc200 2.025 . S
C202 O208 1.268 . S
C202 O218 1.268 . S
C203 O209 1.268 . S
C203 O217 1.268 . S
C204 O210 1.268 . S
C204 O219 1.268 . S
C205 O211 1.268 . S
C205 O215 1.268 . S
C206 O212 1.268 . S
C206 O214 1.268 . S
C207 O213 1.268 . S
C207 O216 1.268 . S
O208 Sc198 2.105 . S
O208 C202 1.268 . S
O209 Sc199 2.105 . S
O209 C203 1.268 . S
O210 Sc200 2.105 . S
O210 C204 1.268 . S
O211 Sc198 2.105 . S
O211 C205 1.268 . S
O212 Sc200 2.105 . S
O212 C206 1.268 . S
O213 Sc199 2.105 . S
O213 C207 1.268 . S
O214 Sc198 2.105 . S
O214 C206 1.268 . S
O215 Sc199 2.105 . S
O215 C205 1.268 . S
O216 Sc200 2.105 . S
O216 C207 1.268 . S
O217 Sc198 2.105 . S
O217 C203 1.268 . S
O218 Sc200 2.105 . S
O218 C202 1.268 . S
O219 Sc199 2.105 . S
O219 C204 1.268 . S
Sc220 O223 2.025 . S
Sc220 O230 2.105 . S
Sc220 O233 2.105 . S
Sc220 O236 2.105 . S
Sc220 O239 2.105 . S
Sc221 O223 2.025 . S
Sc221 O231 2.105 . S
Sc221 O235 2.105 . S
Sc221 O237 2.105 . S
Sc221 O241 2.105 . S
Sc222 O223 2.025 . S
Sc222 O232 2.105 . S
Sc222 O234 2.105 1_455 S
Sc222 O238 2.105 1_455 S
Sc222 O240 2.105 . S
O223 Sc220 2.025 . S
O223 Sc221 2.025 . S
O223 Sc222 2.025 . S
C224 O230 1.268 . S
C224 O240 1.268 . S
C225 O231 1.268 . S
C225 O239 1.268 . S
C226 O232 1.268 . S
C226 O241 1.268 . S
C227 O233 1.268 . S
C227 O237 1.268 . S
C228 O234 1.268 1_455 S
C228 O236 1.268 . S
C229 O235 1.279 . S
C229 O238 1.267 1_455 S
O230 Sc220 2.105 . S
O230 C224 1.268 . S
O231 Sc221 2.105 . S
O231 C225 1.268 . S
O232 Sc222 2.105 . S
O232 C226 1.268 . S
O233 Sc220 2.105 . S
O233 C227 1.268 . S
O234 Sc222 2.105 1_655 S
O234 C228 1.268 1_655 S
O235 Sc221 2.105 . S
O235 C229 1.279 . S
O236 Sc220 2.105 . S
O236 C228 1.268 . S
O237 Sc221 2.105 . S
O237 C227 1.268 . S
O238 Sc222 2.105 1_655 S
O238 C229 1.267 1_655 S
O239 Sc220 2.105 . S
O239 C225 1.268 . S
O240 Sc222 2.105 . S
O240 C224 1.268 . S
O241 Sc221 2.105 . S
O241 C226 1.268 . S
Sc242 O245 2.025 . S
Sc242 O252 2.105 . S
Sc242 O255 2.105 . S
Sc242 O258 2.105 . S
Sc242 O261 2.105 . S
Sc243 O245 2.025 . S
Sc243 O253 2.105 . S
Sc243 O257 2.105 . S
Sc243 O259 2.105 . S
Sc243 O263 2.105 . S
Sc244 O245 2.025 . S
Sc244 O254 2.105 . S
Sc244 O256 2.105 1_545 S
Sc244 O260 2.105 1_545 S
Sc244 O262 2.105 . S
O245 Sc242 2.025 . S
O245 Sc243 2.025 . S
O245 Sc244 2.025 . S
C246 O252 1.268 . S
C246 O262 1.268 . S
C247 O253 1.268 . S
C247 O261 1.268 . S
C248 O254 1.268 . S
C248 O263 1.268 . S
C249 O255 1.268 . S
C249 O259 1.268 . S
C250 O256 1.268 1_545 S
C250 O258 1.268 . S
C251 O257 1.279 . S
C251 O260 1.267 1_545 S
O252 Sc242 2.105 . S
O252 C246 1.268 . S
O253 Sc243 2.105 . S
O253 C247 1.268 . S
O254 Sc244 2.105 . S
O254 C248 1.268 . S
O255 Sc242 2.105 . S
O255 C249 1.268 . S
O256 Sc244 2.105 1_565 S
O256 C250 1.268 1_565 S
O257 Sc243 2.105 . S
O257 C251 1.279 . S
O258 Sc242 2.105 . S
O258 C250 1.268 . S
O259 Sc243 2.105 . S
O259 C249 1.268 . S
O260 Sc244 2.105 1_565 S
O260 C251 1.267 1_565 S
O261 Sc242 2.105 . S
O261 C247 1.268 . S
O262 Sc244 2.105 . S
O262 C246 1.268 . S
O263 Sc243 2.105 . S
O263 C248 1.268 . S
Sc264 O267 2.025 . S
Sc264 O274 2.105 . S
Sc264 O277 2.105 . S
Sc264 O280 2.105 . S
Sc264 O283 2.105 . S
Sc265 O267 2.025 . S
Sc265 O275 2.105 . S
Sc265 O279 2.105 . S
Sc265 O281 2.105 . S
Sc265 O285 2.105 . S
Sc266 O267 2.025 . S
Sc266 O276 2.105 . S
Sc266 O278 2.105 1_655 S
Sc266 O282 2.105 1_655 S
Sc266 O284 2.105 . S
O267 Sc264 2.025 . S
O267 Sc265 2.025 . S
O267 Sc266 2.025 . S
C268 O274 1.268 . S
C268 O284 1.268 . S
C269 O275 1.268 . S
C269 O283 1.268 . S
C270 O276 1.268 . S
C270 O285 1.268 . S
C271 O277 1.268 . S
C271 O281 1.268 . S
C272 O278 1.268 1_655 S
C272 O280 1.268 . S
C273 O279 1.279 . S
C273 O282 1.267 1_655 S
O274 Sc264 2.105 . S
O274 C268 1.268 . S
O275 Sc265 2.105 . S
O275 C269 1.268 . S
O276 Sc266 2.105 . S
O276 C270 1.268 . S
O277 Sc264 2.105 . S
O277 C271 1.268 . S
O278 Sc266 2.105 1_455 S
O278 C272 1.268 1_455 S
O279 Sc265 2.105 . S
O279 C273 1.279 . S
O280 Sc264 2.105 . S
O280 C272 1.268 . S
O281 Sc265 2.105 . S
O281 C271 1.268 . S
O282 Sc266 2.105 1_455 S
O282 C273 1.267 1_455 S
O283 Sc264 2.105 . S
O283 C269 1.268 . S
O284 Sc266 2.105 . S
O284 C268 1.268 . S
O285 Sc265 2.105 . S
O285 C270 1.268 . S
Sc286 O289 2.025 . S
Sc286 O296 2.105 . S
Sc286 O299 2.105 . S
Sc286 O302 2.105 . S
Sc286 O305 2.105 . S
Sc287 O289 2.025 . S
Sc287 O297 2.105 . S
Sc287 O301 2.105 . S
Sc287 O303 2.105 . S
Sc287 O307 2.105 . S
Sc288 O289 2.025 . S
Sc288 O298 2.105 . S
Sc288 O300 2.105 1_565 S
Sc288 O304 2.105 1_565 S
Sc288 O306 2.105 . S
O289 Sc286 2.025 . S
O289 Sc287 2.025 . S
O289 Sc288 2.025 . S
C290 O296 1.268 . S
C290 O306 1.268 . S
C291 O297 1.268 . S
C291 O305 1.268 . S
C292 O298 1.268 . S
C292 O307 1.268 . S
C293 O299 1.268 . S
C293 O303 1.268 . S
C294 O300 1.268 1_565 S
C294 O302 1.268 . S
C295 O301 1.279 . S
C295 O304 1.267 1_565 S
O296 Sc286 2.105 . S
O296 C290 1.268 . S
O297 Sc287 2.105 . S
O297 C291 1.268 . S
O298 Sc288 2.105 . S
O298 C292 1.268 . S
O299 Sc286 2.105 . S
O299 C293 1.268 . S
O300 Sc288 2.105 1_545 S
O300 C294 1.268 1_545 S
O301 Sc287 2.105 . S
O301 C295 1.279 . S
O302 Sc286 2.105 . S
O302 C294 1.268 . S
O303 Sc287 2.105 . S
O303 C293 1.268 . S
O304 Sc288 2.105 1_545 S
O304 C295 1.267 1_545 S
O305 Sc286 2.105 . S
O305 C291 1.268 . S
O306 Sc288 2.105 . S
O306 C290 1.268 . S
O307 Sc287 2.105 . S
O307 C292 1.268 . S
Sc308 O311 2.025 . S
Sc308 O318 2.105 . S
Sc308 O321 2.105 . S
Sc308 O324 2.105 . S
Sc308 O327 2.105 . S
Sc309 O311 2.025 . S
Sc309 O319 2.105 . S
Sc309 O323 2.105 . S
Sc309 O325 2.105 . S
Sc309 O329 2.105 . S
Sc310 O311 2.025 . S
Sc310 O320 2.105 . S
Sc310 O322 2.105 . S
Sc310 O326 2.105 . S
Sc310 O328 2.105 . S
O311 Sc308 2.025 . S
O311 Sc309 2.025 . S
O311 Sc310 2.025 . S
C312 O318 1.268 . S
C312 O328 1.268 . S
C313 O319 1.268 . S
C313 O327 1.268 . S
C314 O320 1.268 . S
C314 O329 1.268 . S
C315 O321 1.268 . S
C315 O325 1.268 . S
C316 O322 1.268 . S
C316 O324 1.268 . S
C317 O323 1.268 . S
C317 O326 1.268 . S
O318 Sc308 2.105 . S
O318 C312 1.268 . S
O319 Sc309 2.105 . S
O319 C313 1.268 . S
O320 Sc310 2.105 . S
O320 C314 1.268 . S
O321 Sc308 2.105 . S
O321 C315 1.268 . S
O322 Sc310 2.105 . S
O322 C316 1.268 . S
O323 Sc309 2.105 . S
O323 C317 1.268 . S
O324 Sc308 2.105 . S
O324 C316 1.268 . S
O325 Sc309 2.105 . S
O325 C315 1.268 . S
O326 Sc310 2.105 . S
O326 C317 1.268 . S
O327 Sc308 2.105 . S
O327 C313 1.268 . S
O328 Sc310 2.105 . S
O328 C312 1.268 . S
O329 Sc309 2.105 . S
O329 C314 1.268 . S
Sc330 O333 2.025 . S
Sc330 O340 2.105 . S
Sc330 O343 2.105 . S
Sc330 O346 2.105 . S
Sc330 O349 2.105 . S
Sc331 O333 2.025 . S
Sc331 O341 2.105 . S
Sc331 O345 2.105 . S
Sc331 O347 2.105 . S
Sc331 O351 2.105 . S
Sc332 O333 2.025 . S
Sc332 O342 2.105 . S
Sc332 O344 2.105 . S
Sc332 O348 2.105 . S
Sc332 O350 2.105 . S
O333 Sc330 2.025 . S
O333 Sc331 2.025 . S
O333 Sc332 2.025 . S
C334 O340 1.268 . S
C334 O350 1.268 . S
C335 O341 1.268 . S
C335 O349 1.268 . S
C336 O342 1.268 . S
C336 O351 1.268 . S
C337 O343 1.268 . S
C337 O347 1.268 . S
C338 O344 1.268 . S
C338 O346 1.268 . S
C339 O345 1.268 . S
C339 O348 1.268 . S
O340 Sc330 2.105 . S
O340 C334 1.268 . S
O341 Sc331 2.105 . S
O341 C335 1.268 . S
O342 Sc332 2.105 . S
O342 C336 1.268 . S
O343 Sc330 2.105 . S
O343 C337 1.268 . S
O344 Sc332 2.105 . S
O344 C338 1.268 . S
O345 Sc331 2.105 . S
O345 C339 1.268 . S
O346 Sc330 2.105 . S
O346 C338 1.268 . S
O347 Sc331 2.105 . S
O347 C337 1.268 . S
O348 Sc332 2.105 . S
O348 C339 1.268 . S
O349 Sc330 2.105 . S
O349 C335 1.268 . S
O350 Sc332 2.105 . S
O350 C334 1.268 . S
O351 Sc331 2.105 . S
O351 C336 1.268 . S
H352 C358 0.930 . S
H353 C362 0.930 . S
H354 C367 0.929 . S
H355 C365 0.929 . S
H356 C360 0.929 . S
H357 C366 0.929 . S
C358 H352 0.930 . S
C358 C359 1.367 . S
C358 C366 1.378 . S
C359 C358 1.367 . S
C359 C367 1.433 . S
C360 H356 0.929 . S
C360 C362 1.378 . S
C360 C364 1.350 . S
C361 C364 1.463 . S
C361 C366 1.350 . S
C361 N369 1.427 . S
C362 H353 0.930 . S
C362 C360 1.378 . S
C362 C363 1.367 . S
C363 C362 1.367 . S
C363 C365 1.433 . S
C364 C360 1.350 . S
C364 C361 1.463 . S
C364 N368 1.427 . S
C365 H355 0.929 . S
C365 C363 1.433 . S
C365 N368 1.384 . S
C366 H357 0.929 . S
C366 C358 1.378 . S
C366 C361 1.350 . S
C367 H354 0.929 . S
C367 C359 1.433 . S
C367 N369 1.384 . S
N368 C364 1.427 . S
N368 C365 1.384 . S
N369 C361 1.427 . S
N369 C367 1.384 . S
H370 C376 0.930 . S
H371 C380 0.930 . S
H372 C385 0.929 . S
H373 C383 0.929 . S
H374 C378 0.929 . S
H375 C384 0.929 . S
C376 H370 0.930 . S
C376 C377 1.367 . S
C376 C384 1.378 . S
C377 C376 1.367 . S
C377 C385 1.433 . S
C378 H374 0.929 . S
C378 C380 1.378 . S
C378 C382 1.350 . S
C379 C382 1.463 . S
C379 C384 1.350 . S
C379 N387 1.427 . S
C380 H371 0.930 . S
C380 C378 1.378 . S
C380 C381 1.367 . S
C381 C380 1.367 . S
C381 C383 1.433 . S
C382 C378 1.350 . S
C382 C379 1.463 . S
C382 N386 1.427 . S
C383 H373 0.929 . S
C383 C381 1.433 . S
C383 N386 1.384 . S
C384 H375 0.929 . S
C384 C376 1.378 . S
C384 C379 1.350 . S
C385 H372 0.929 . S
C385 C377 1.433 . S
C385 N387 1.384 . S
N386 C382 1.427 . S
N386 C383 1.384 . S
N387 C379 1.427 . S
N387 C385 1.384 . S
H388 C394 0.930 . S
H389 C398 0.930 . S
H390 C403 0.929 . S
H391 C401 0.929 . S
H392 C396 0.929 . S
H393 C402 0.929 . S
C394 H388 0.930 . S
C394 C395 1.367 . S
C394 C402 1.378 . S
C395 C394 1.367 . S
C395 C403 1.433 . S
C396 H392 0.929 . S
C396 C398 1.378 . S
C396 C400 1.350 . S
C397 C400 1.463 . S
C397 C402 1.350 . S
C397 N405 1.427 . S
C398 H389 0.930 . S
C398 C396 1.378 . S
C398 C399 1.367 . S
C399 C398 1.367 . S
C399 C401 1.433 . S
C400 C396 1.350 . S
C400 C397 1.463 . S
C400 N404 1.427 . S
C401 H391 0.929 . S
C401 C399 1.433 . S
C401 N404 1.384 . S
C402 H393 0.929 . S
C402 C394 1.378 . S
C402 C397 1.350 . S
C403 H390 0.929 . S
C403 C395 1.433 . S
C403 N405 1.384 . S
N404 C400 1.427 . S
N404 C401 1.384 . S
N405 C397 1.427 . S
N405 C403 1.384 . S
H406 C412 0.930 . S
H407 C416 0.930 . S
H408 C421 0.929 . S
H409 C419 0.929 . S
H410 C414 0.929 . S
H411 C420 0.929 . S
C412 H406 0.930 . S
C412 C413 1.367 . S
C412 C420 1.378 . S
C413 C412 1.367 . S
C413 C421 1.433 . S
C414 H410 0.929 . S
C414 C416 1.378 . S
C414 C418 1.350 . S
C415 C418 1.463 . S
C415 C420 1.350 . S
C415 N423 1.427 . S
C416 H407 0.930 . S
C416 C414 1.378 . S
C416 C417 1.367 . S
C417 C416 1.367 . S
C417 C419 1.433 . S
C418 C414 1.350 . S
C418 C415 1.463 . S
C418 N422 1.427 . S
C419 H409 0.929 . S
C419 C417 1.433 . S
C419 N422 1.384 . S
C420 H411 0.929 . S
C420 C412 1.378 . S
C420 C415 1.350 . S
C421 H408 0.929 . S
C421 C413 1.433 . S
C421 N423 1.384 . S
N422 C418 1.427 . S
N422 C419 1.384 . S
N423 C415 1.427 . S
N423 C421 1.384 . S
H424 C430 0.930 . S
H425 C434 0.930 . S
H426 C439 0.929 . S
H427 C437 0.929 . S
H428 C432 0.929 . S
H429 C438 0.929 . S
C430 H424 0.930 . S
C430 C431 1.367 . S
C430 C438 1.378 . S
C431 C430 1.367 . S
C431 C439 1.433 . S
C432 H428 0.929 . S
C432 C434 1.378 . S
C432 C436 1.350 . S
C433 C436 1.463 . S
C433 C438 1.350 . S
C433 N441 1.427 . S
C434 H425 0.930 . S
C434 C432 1.378 . S
C434 C435 1.367 . S
C435 C434 1.367 . S
C435 C437 1.433 . S
C436 C432 1.350 . S
C436 C433 1.463 . S
C436 N440 1.427 . S
C437 H427 0.929 . S
C437 C435 1.433 . S
C437 N440 1.384 . S
C438 H429 0.929 . S
C438 C430 1.378 . S
C438 C433 1.350 . S
C439 H426 0.929 . S
C439 C431 1.433 . S
C439 N441 1.384 . S
N440 C436 1.427 . S
N440 C437 1.384 . S
N441 C433 1.427 . S
N441 C439 1.384 . S
H442 C448 0.930 . S
H443 C452 0.930 . S
H444 C457 0.929 . S
H445 C455 0.929 . S
H446 C450 0.929 . S
H447 C456 0.929 . S
C448 H442 0.930 . S
C448 C449 1.367 . S
C448 C456 1.378 . S
C449 C448 1.367 . S
C449 C457 1.433 . S
C450 H446 0.929 . S
C450 C452 1.378 . S
C450 C454 1.350 . S
C451 C454 1.463 . S
C451 C456 1.350 . S
C451 N459 1.427 . S
C452 H443 0.930 . S
C452 C450 1.378 . S
C452 C453 1.367 . S
C453 C452 1.367 . S
C453 C455 1.433 . S
C454 C450 1.350 . S
C454 C451 1.463 . S
C454 N458 1.427 . S
C455 H445 0.929 . S
C455 C453 1.433 . S
C455 N458 1.384 . S
C456 H447 0.929 . S
C456 C448 1.378 . S
C456 C451 1.350 . S
C457 H444 0.929 . S
C457 C449 1.433 . S
C457 N459 1.384 . S
N458 C454 1.427 . S
N458 C455 1.384 . S
N459 C451 1.427 . S
N459 C457 1.384 . S
H460 C466 0.930 . S
H461 C470 0.930 . S
H462 C475 0.929 . S
H463 C473 0.929 . S
H464 C468 0.929 . S
H465 C474 0.929 . S
C466 H460 0.930 . S
C466 C467 1.367 . S
C466 C474 1.378 . S
C467 C466 1.367 . S
C467 C475 1.433 . S
C468 H464 0.929 . S
C468 C470 1.378 . S
C468 C472 1.350 . S
C469 C472 1.463 . S
C469 C474 1.350 . S
C469 N477 1.427 . S
C470 H461 0.930 . S
C470 C468 1.378 . S
C470 C471 1.367 . S
C471 C470 1.367 . S
C471 C473 1.433 . S
C472 C468 1.350 . S
C472 C469 1.463 . S
C472 N476 1.427 . S
C473 H463 0.929 . S
C473 C471 1.433 . S
C473 N476 1.384 . S
C474 H465 0.929 . S
C474 C466 1.378 . S
C474 C469 1.350 . S
C475 H462 0.929 . S
C475 C467 1.433 . S
C475 N477 1.384 . S
N476 C472 1.427 . S
N476 C473 1.384 . S
N477 C469 1.427 . S
N477 C475 1.384 . S
H478 C484 0.930 . S
H479 C488 0.930 . S
H480 C493 0.929 . S
H481 C491 0.929 . S
H482 C486 0.929 . S
H483 C492 0.929 . S
C484 H478 0.930 . S
C484 C485 1.367 . S
C484 C492 1.378 . S
C485 C484 1.367 . S
C485 C493 1.433 . S
C486 H482 0.929 . S
C486 C488 1.378 . S
C486 C490 1.350 . S
C487 C490 1.463 . S
C487 C492 1.350 . S
C487 N495 1.427 . S
C488 H479 0.930 . S
C488 C486 1.378 . S
C488 C489 1.367 . S
C489 C488 1.367 . S
C489 C491 1.433 . S
C490 C486 1.350 . S
C490 C487 1.463 . S
C490 N494 1.427 . S
C491 H481 0.929 . S
C491 C489 1.433 . S
C491 N494 1.384 . S
C492 H483 0.929 . S
C492 C484 1.378 . S
C492 C487 1.350 . S
C493 H480 0.929 . S
C493 C485 1.433 . S
C493 N495 1.384 . S
N494 C490 1.427 . S
N494 C491 1.384 . S
N495 C487 1.427 . S
N495 C493 1.384 . S
H496 C502 0.930 . S
H497 C506 0.930 . S
H498 C511 0.929 . S
H499 C509 0.929 . S
H500 C504 0.929 . S
H501 C510 0.929 . S
C502 H496 0.930 . S
C502 C503 1.367 . S
C502 C510 1.378 . S
C503 C502 1.367 . S
C503 C511 1.433 . S
C504 H500 0.929 . S
C504 C506 1.378 . S
C504 C508 1.350 . S
C505 C508 1.463 . S
C505 C510 1.350 . S
C505 N513 1.427 . S
C506 H497 0.930 . S
C506 C504 1.378 . S
C506 C507 1.367 . S
C507 C506 1.367 . S
C507 C509 1.433 . S
C508 C504 1.350 . S
C508 C505 1.463 . S
C508 N512 1.427 . S
C509 H499 0.929 . S
C509 C507 1.433 . S
C509 N512 1.384 . S
C510 H501 0.929 . S
C510 C502 1.378 . S
C510 C505 1.350 . S
C511 H498 0.929 . S
C511 C503 1.433 . S
C511 N513 1.384 . S
N512 C508 1.427 . S
N512 C509 1.384 . S
N513 C505 1.427 . S
N513 C511 1.384 . S
H514 C520 0.930 . S
H515 C524 0.930 . S
H516 C529 0.929 . S
H517 C527 0.929 . S
H518 C522 0.929 . S
H519 C528 0.929 . S
C520 H514 0.930 . S
C520 C521 1.367 . S
C520 C528 1.378 . S
C521 C520 1.367 . S
C521 C529 1.433 . S
C522 H518 0.929 . S
C522 C524 1.378 . S
C522 C526 1.350 . S
C523 C526 1.463 . S
C523 C528 1.350 . S
C523 N531 1.427 . S
C524 H515 0.930 . S
C524 C522 1.378 . S
C524 C525 1.367 . S
C525 C524 1.367 . S
C525 C527 1.433 . S
C526 C522 1.350 . S
C526 C523 1.463 . S
C526 N530 1.427 . S
C527 H517 0.929 . S
C527 C525 1.433 . S
C527 N530 1.384 . S
C528 H519 0.929 . S
C528 C520 1.378 . S
C528 C523 1.350 . S
C529 H516 0.929 . S
C529 C521 1.433 . S
C529 N531 1.384 . S
N530 C526 1.427 . S
N530 C527 1.384 . S
N531 C523 1.427 . S
N531 C529 1.384 . S
H532 C538 0.930 . S
H533 C542 0.930 . S
H534 C547 0.929 . S
H535 C545 0.929 . S
H536 C540 0.929 . S
H537 C546 0.929 . S
C538 H532 0.930 . S
C538 C539 1.367 . S
C538 C546 1.378 . S
C539 C538 1.367 . S
C539 C547 1.433 . S
C540 H536 0.929 . S
C540 C542 1.378 . S
C540 C544 1.350 . S
C541 C544 1.463 . S
C541 C546 1.350 . S
C541 N549 1.427 . S
C542 H533 0.930 . S
C542 C540 1.378 . S
C542 C543 1.367 . S
C543 C542 1.367 . S
C543 C545 1.433 . S
C544 C540 1.350 . S
C544 C541 1.463 . S
C544 N548 1.427 . S
C545 H535 0.929 . S
C545 C543 1.433 . S
C545 N548 1.384 . S
C546 H537 0.929 . S
C546 C538 1.378 . S
C546 C541 1.350 . S
C547 H534 0.929 . S
C547 C539 1.433 . S
C547 N549 1.384 . S
N548 C544 1.427 . S
N548 C545 1.384 . S
N549 C541 1.427 . S
N549 C547 1.384 . S
H550 C556 0.930 . S
H551 C560 0.906 1_655 S
H552 C565 0.929 . S
H553 C563 0.929 . S
H554 C558 0.929 . S
H555 C564 0.929 . S
C556 H550 0.930 . S
C556 C557 1.367 . S
C556 C564 1.378 . S
C557 C556 1.367 . S
C557 C565 1.433 . S
C558 H554 0.929 . S
C558 C560 1.378 . S
C558 C562 1.350 . S
C559 C562 1.463 . S
C559 C564 1.350 . S
C559 N567 1.427 . S
C560 H551 0.906 1_455 S
C560 C558 1.378 . S
C560 C561 1.367 . S
C561 C560 1.367 . S
C561 C563 1.433 . S
C562 C558 1.350 . S
C562 C559 1.463 . S
C562 N566 1.427 . S
C563 H553 0.929 . S
C563 C561 1.433 . S
C563 N566 1.384 . S
C564 H555 0.929 . S
C564 C556 1.378 . S
C564 C559 1.350 . S
C565 H552 0.929 . S
C565 C557 1.433 . S
C565 N567 1.384 . S
N566 C562 1.427 . S
N566 C563 1.384 . S
N567 C559 1.427 . S
N567 C565 1.384 . S
H568 C574 0.930 . S
H569 C578 0.930 . S
H570 C583 0.929 . S
H571 C581 0.929 . S
H572 C576 0.929 . S
H573 C582 0.929 . S
C574 H568 0.930 . S
C574 C575 1.367 . S
C574 C582 1.378 . S
C575 C574 1.367 . S
C575 C583 1.433 . S
C576 H572 0.929 . S
C576 C578 1.378 . S
C576 C580 1.350 . S
C577 C580 1.463 . S
C577 C582 1.350 . S
C577 N585 1.427 . S
C578 H569 0.930 . S
C578 C576 1.378 . S
C578 C579 1.367 . S
C579 C578 1.367 . S
C579 C581 1.433 . S
C580 C576 1.350 . S
C580 C577 1.463 . S
C580 N584 1.427 . S
C581 H571 0.929 . S
C581 C579 1.433 . S
C581 N584 1.384 . S
C582 H573 0.929 . S
C582 C574 1.378 . S
C582 C577 1.350 . S
C583 H570 0.929 . S
C583 C575 1.433 . S
C583 N585 1.384 . S
N584 C580 1.427 . S
N584 C581 1.384 . S
N585 C577 1.427 . S
N585 C583 1.384 . S
H586 C592 0.930 . S
H587 C596 0.930 . S
H588 C601 0.929 . S
H589 C599 0.929 . S
H590 C594 0.929 . S
H591 C600 0.929 . S
C592 H586 0.930 . S
C592 C593 1.367 . S
C592 C600 1.378 . S
C593 C592 1.367 . S
C593 C601 1.433 . S
C594 H590 0.929 . S
C594 C596 1.378 . S
C594 C598 1.350 . S
C595 C598 1.463 . S
C595 C600 1.350 . S
C595 N603 1.427 . S
C596 H587 0.930 . S
C596 C594 1.378 . S
C596 C597 1.367 . S
C597 C596 1.367 . S
C597 C599 1.433 . S
C598 C594 1.350 . S
C598 C595 1.463 . S
C598 N602 1.427 . S
C599 H589 0.929 . S
C599 C597 1.433 . S
C599 N602 1.384 . S
C600 H591 0.929 . S
C600 C592 1.378 . S
C600 C595 1.350 . S
C601 H588 0.929 . S
C601 C593 1.433 . S
C601 N603 1.384 . S
N602 C598 1.427 . S
N602 C599 1.384 . S
N603 C595 1.427 . S
N603 C601 1.384 . S
H604 C610 0.930 . S
H605 C614 0.930 . S
H606 C619 0.929 . S
H607 C617 0.929 . S
H608 C612 0.929 . S
H609 C618 0.929 . S
C610 H604 0.930 . S
C610 C611 1.367 . S
C610 C618 1.378 . S
C611 C610 1.367 . S
C611 C619 1.433 . S
C612 H608 0.929 . S
C612 C614 1.378 . S
C612 C616 1.350 . S
C613 C616 1.463 . S
C613 C618 1.350 . S
C613 N621 1.427 . S
C614 H605 0.930 . S
C614 C612 1.378 . S
C614 C615 1.367 . S
C615 C614 1.367 . S
C615 C617 1.433 . S
C616 C612 1.350 . S
C616 C613 1.463 . S
C616 N620 1.427 . S
C617 H607 0.929 . S
C617 C615 1.433 . S
C617 N620 1.384 . S
C618 H609 0.929 . S
C618 C610 1.378 . S
C618 C613 1.350 . S
C619 H606 0.929 . S
C619 C611 1.433 . S
C619 N621 1.384 . S
N620 C616 1.427 . S
N620 C617 1.384 . S
N621 C613 1.427 . S
N621 C619 1.384 . S
H622 C628 0.930 . S
H623 C632 0.930 . S
H624 C637 0.929 . S
H625 C635 0.929 . S
H626 C630 0.929 . S
H627 C636 0.929 . S
C628 H622 0.930 . S
C628 C629 1.367 . S
C628 C636 1.378 . S
C629 C628 1.367 . S
C629 C637 1.433 . S
C630 H626 0.929 . S
C630 C632 1.378 . S
C630 C634 1.350 . S
C631 C634 1.463 . S
C631 C636 1.350 . S
C631 N639 1.427 . S
C632 H623 0.930 . S
C632 C630 1.378 . S
C632 C633 1.367 . S
C633 C632 1.367 . S
C633 C635 1.433 . S
C634 C630 1.350 . S
C634 C631 1.463 . S
C634 N638 1.427 . S
C635 H625 0.929 . S
C635 C633 1.433 . S
C635 N638 1.384 . S
C636 H627 0.929 . S
C636 C628 1.378 . S
C636 C631 1.350 . S
C637 H624 0.929 . S
C637 C629 1.433 . S
C637 N639 1.384 . S
N638 C634 1.427 . S
N638 C635 1.384 . S
N639 C631 1.427 . S
N639 C637 1.384 . S
H640 C646 0.930 . S
H641 C650 0.930 . S
H642 C655 0.929 . S
H643 C653 0.929 . S
H644 C648 0.929 . S
H645 C654 0.929 . S
C646 H640 0.930 . S
C646 C647 1.367 . S
C646 C654 1.378 . S
C647 C646 1.367 . S
C647 C655 1.433 . S
C648 H644 0.929 . S
C648 C650 1.378 . S
C648 C652 1.350 . S
C649 C652 1.463 . S
C649 C654 1.350 . S
C649 N657 1.427 . S
C650 H641 0.930 . S
C650 C648 1.378 . S
C650 C651 1.367 . S
C651 C650 1.367 . S
C651 C653 1.433 . S
C652 C648 1.350 . S
C652 C649 1.463 . S
C652 N656 1.427 . S
C653 H643 0.929 . S
C653 C651 1.433 . S
C653 N656 1.384 . S
C654 H645 0.929 . S
C654 C646 1.378 . S
C654 C649 1.350 . S
C655 H642 0.929 . S
C655 C647 1.433 . S
C655 N657 1.384 . S
N656 C652 1.427 . S
N656 C653 1.384 . S
N657 C649 1.427 . S
N657 C655 1.384 . S
H658 C664 0.930 . S
H659 C668 0.930 . S
H660 C673 0.929 . S
H661 C671 0.929 . S
H662 C666 0.929 . S
H663 C672 0.929 . S
C664 H658 0.930 . S
C664 C665 1.367 . S
C664 C672 1.378 . S
C665 C664 1.367 . S
C665 C673 1.433 . S
C666 H662 0.929 . S
C666 C668 1.378 . S
C666 C670 1.350 . S
C667 C670 1.463 . S
C667 C672 1.350 . S
C667 N675 1.427 . S
C668 H659 0.930 . S
C668 C666 1.378 . S
C668 C669 1.367 . S
C669 C668 1.367 . S
C669 C671 1.433 . S
C670 C666 1.350 . S
C670 C667 1.463 . S
C670 N674 1.427 . S
C671 H661 0.929 . S
C671 C669 1.433 . S
C671 N674 1.384 . S
C672 H663 0.929 . S
C672 C664 1.378 . S
C672 C667 1.350 . S
C673 H660 0.929 . S
C673 C665 1.433 . S
C673 N675 1.384 . S
N674 C670 1.427 . S
N674 C671 1.384 . S
N675 C667 1.427 . S
N675 C673 1.384 . S
H676 C682 0.930 . S
H677 C686 0.930 . S
H678 C691 0.929 . S
H679 C689 0.929 . S
H680 C684 0.929 . S
H681 C690 0.929 . S
C682 H676 0.930 . S
C682 C683 1.367 . S
C682 C690 1.378 . S
C683 C682 1.367 . S
C683 C691 1.433 . S
C684 H680 0.929 . S
C684 C686 1.378 . S
C684 C688 1.350 . S
C685 C688 1.463 . S
C685 C690 1.350 . S
C685 N693 1.427 . S
C686 H677 0.930 . S
C686 C684 1.378 . S
C686 C687 1.367 . S
C687 C686 1.367 . S
C687 C689 1.433 . S
C688 C684 1.350 . S
C688 C685 1.463 . S
C688 N692 1.427 . S
C689 H679 0.929 . S
C689 C687 1.433 . S
C689 N692 1.384 . S
C690 H681 0.929 . S
C690 C682 1.378 . S
C690 C685 1.350 . S
C691 H678 0.929 . S
C691 C683 1.433 . S
C691 N693 1.384 . S
N692 C688 1.427 . S
N692 C689 1.384 . S
N693 C685 1.427 . S
N693 C691 1.384 . S
H694 C700 0.930 . S
H695 C704 0.930 . S
H696 C709 0.929 . S
H697 C707 0.940 . S
H698 C702 0.929 . S
H699 C708 0.929 . S
C700 H694 0.930 . S
C700 C701 1.367 . S
C700 C708 1.378 . S
C701 C700 1.367 . S
C701 C709 1.433 . S
C702 H698 0.929 . S
C702 C704 1.378 . S
C702 C706 1.350 . S
C703 C706 1.463 . S
C703 C708 1.350 . S
C703 N711 1.427 . S
C704 H695 0.930 . S
C704 C702 1.378 . S
C704 C705 1.367 . S
C705 C704 1.367 . S
C705 C707 1.433 . S
C706 C702 1.350 . S
C706 C703 1.463 . S
C706 N710 1.427 . S
C707 H697 0.940 . S
C707 C705 1.433 . S
C707 N710 1.384 . S
C708 H699 0.929 . S
C708 C700 1.378 . S
C708 C703 1.350 . S
C709 H696 0.929 . S
C709 C701 1.433 . S
C709 N711 1.384 . S
N710 C706 1.427 . S
N710 C707 1.384 . S
N711 C703 1.427 . S
N711 C709 1.384 . S
H712 C718 0.930 . S
H713 C722 0.930 1_565 S
H714 C727 0.929 . S
H715 C725 0.929 . S
H716 C720 0.929 . S
H717 C726 0.929 . S
C718 H712 0.930 . S
C718 C719 1.367 . S
C718 C726 1.378 . S
C719 C718 1.367 . S
C719 C727 1.433 . S
C720 H716 0.929 . S
C720 C722 1.378 . S
C720 C724 1.350 . S
C721 C724 1.463 . S
C721 C726 1.350 . S
C721 N729 1.427 . S
C722 H713 0.930 1_545 S
C722 C720 1.378 . S
C722 C723 1.367 . S
C723 C722 1.367 . S
C723 C725 1.433 . S
C724 C720 1.350 . S
C724 C721 1.463 . S
C724 N728 1.427 . S
C725 H715 0.929 . S
C725 C723 1.433 . S
C725 N728 1.384 . S
C726 H717 0.929 . S
C726 C718 1.378 . S
C726 C721 1.350 . S
C727 H714 0.929 . S
C727 C719 1.433 . S
C727 N729 1.384 . S
N728 C724 1.427 . S
N728 C725 1.384 . S
N729 C721 1.427 . S
N729 C727 1.384 . S
H730 C736 0.930 . S
H731 C740 0.930 . S
H732 C745 0.929 . S
H733 C743 0.929 . S
H734 C738 0.929 . S
H735 C744 0.929 . S
C736 H730 0.930 . S
C736 C737 1.367 . S
C736 C744 1.378 . S
C737 C736 1.367 . S
C737 C745 1.433 . S
C738 H734 0.929 . S
C738 C740 1.378 . S
C738 C742 1.350 . S
C739 C742 1.463 . S
C739 C744 1.350 . S
C739 N747 1.427 . S
C740 H731 0.930 . S
C740 C738 1.378 . S
C740 C741 1.367 . S
C741 C740 1.367 . S
C741 C743 1.433 . S
C742 C738 1.350 . S
C742 C739 1.463 . S
C742 N746 1.427 . S
C743 H733 0.929 . S
C743 C741 1.433 . S
C743 N746 1.384 . S
C744 H735 0.929 . S
C744 C736 1.378 . S
C744 C739 1.350 . S
C745 H732 0.929 . S
C745 C737 1.433 . S
C745 N747 1.384 . S
N746 C742 1.427 . S
N746 C743 1.384 . S
N747 C739 1.427 . S
N747 C745 1.384 . S
H748 C754 0.930 . S
H749 C758 0.930 . S
H750 C763 0.929 . S
H751 C761 0.929 . S
H752 C756 0.929 . S
H753 C762 0.929 . S
C754 H748 0.930 . S
C754 C755 1.367 . S
C754 C762 1.378 . S
C755 C754 1.367 . S
C755 C763 1.433 . S
C756 H752 0.929 . S
C756 C758 1.378 . S
C756 C760 1.350 . S
C757 C760 1.463 . S
C757 C762 1.350 . S
C757 N765 1.427 . S
C758 H749 0.930 . S
C758 C756 1.378 . S
C758 C759 1.367 . S
C759 C758 1.367 . S
C759 C761 1.433 . S
C760 C756 1.350 . S
C760 C757 1.463 . S
C760 N764 1.427 . S
C761 H751 0.929 . S
C761 C759 1.433 . S
C761 N764 1.384 . S
C762 H753 0.929 . S
C762 C754 1.378 . S
C762 C757 1.350 . S
C763 H750 0.929 . S
C763 C755 1.433 . S
C763 N765 1.384 . S
N764 C760 1.427 . S
N764 C761 1.384 . S
N765 C757 1.427 . S
N765 C763 1.384 . S
H766 C772 0.930 . S
H767 C776 0.930 . S
H768 C781 0.929 . S
H769 C779 0.929 1_655 S
H770 C774 0.929 . S
H771 C780 0.929 . S
C772 H766 0.930 . S
C772 C773 1.367 . S
C772 C780 1.378 . S
C773 C772 1.367 . S
C773 C781 1.433 . S
C774 H770 0.929 . S
C774 C776 1.378 . S
C774 C778 1.350 . S
C775 C778 1.463 . S
C775 C780 1.350 . S
C775 N783 1.427 . S
C776 H767 0.930 . S
C776 C774 1.378 . S
C776 C777 1.367 . S
C777 C776 1.367 . S
C777 C779 1.433 . S
C778 C774 1.350 . S
C778 C775 1.463 . S
C778 N782 1.427 . S
C779 H769 0.929 1_455 S
C779 C777 1.433 . S
C779 N782 1.384 . S
C780 H771 0.929 . S
C780 C772 1.378 . S
C780 C775 1.350 . S
C781 H768 0.929 . S
C781 C773 1.433 . S
C781 N783 1.384 . S
N782 C778 1.427 . S
N782 C779 1.384 . S
N783 C775 1.427 . S
N783 C781 1.384 . S
H784 C790 0.930 . S
H785 C794 0.930 . S
H786 C799 0.929 . S
H787 C797 0.929 . S
H788 C792 0.929 . S
H789 C798 0.929 . S
C790 H784 0.930 . S
C790 C791 1.367 . S
C790 C798 1.378 . S
C791 C790 1.367 . S
C791 C799 1.433 . S
C792 H788 0.929 . S
C792 C794 1.378 . S
C792 C796 1.350 . S
C793 C796 1.463 . S
C793 C798 1.350 . S
C793 N801 1.427 . S
C794 H785 0.930 . S
C794 C792 1.378 . S
C794 C795 1.367 . S
C795 C794 1.367 . S
C795 C797 1.433 . S
C796 C792 1.350 . S
C796 C793 1.463 . S
C796 N800 1.427 . S
C797 H787 0.929 . S
C797 C795 1.433 . S
C797 N800 1.384 . S
C798 H789 0.929 . S
C798 C790 1.378 . S
C798 C793 1.350 . S
C799 H786 0.929 . S
C799 C791 1.433 . S
C799 N801 1.384 . S
N800 C796 1.427 . S
N800 C797 1.384 . S
N801 C793 1.427 . S
N801 C799 1.384 . S
H802 C808 0.930 . S
H803 C812 0.930 . S
H804 C817 0.929 . S
H805 C815 0.929 . S
H806 C810 0.929 . S
H807 C816 0.929 . S
C808 H802 0.930 . S
C808 C809 1.367 . S
C808 C816 1.378 . S
C809 C808 1.367 . S
C809 C817 1.433 . S
C810 H806 0.929 . S
C810 C812 1.378 . S
C810 C814 1.350 . S
C811 C814 1.463 . S
C811 C816 1.350 . S
C811 N819 1.427 . S
C812 H803 0.930 . S
C812 C810 1.378 . S
C812 C813 1.367 . S
C813 C812 1.367 . S
C813 C815 1.433 . S
C814 C810 1.350 . S
C814 C811 1.463 . S
C814 N818 1.427 . S
C815 H805 0.929 . S
C815 C813 1.433 . S
C815 N818 1.384 . S
C816 H807 0.929 . S
C816 C808 1.378 . S
C816 C811 1.350 . S
C817 H804 0.929 . S
C817 C809 1.433 . S
C817 N819 1.384 . S
N818 C814 1.427 . S
N818 C815 1.384 . S
N819 C811 1.427 . S
N819 C817 1.384 . S
H820 C826 0.930 . S
H821 C830 0.930 . S
H822 C835 0.929 . S
H823 C833 0.929 . S
H824 C828 0.929 . S
H825 C834 0.929 . S
C826 H820 0.930 . S
C826 C827 1.367 . S
C826 C834 1.378 . S
C827 C826 1.367 . S
C827 C835 1.433 . S
C828 H824 0.929 . S
C828 C830 1.378 . S
C828 C832 1.350 . S
C829 C832 1.463 . S
C829 C834 1.350 . S
C829 N837 1.427 . S
C830 H821 0.930 . S
C830 C828 1.378 . S
C830 C831 1.367 . S
C831 C830 1.367 . S
C831 C833 1.433 . S
C832 C828 1.350 . S
C832 C829 1.463 . S
C832 N836 1.427 . S
C833 H823 0.929 . S
C833 C831 1.433 . S
C833 N836 1.384 . S
C834 H825 0.929 . S
C834 C826 1.378 . S
C834 C829 1.350 . S
C835 H822 0.929 . S
C835 C827 1.433 . S
C835 N837 1.384 . S
N836 C832 1.427 . S
N836 C833 1.384 . S
N837 C829 1.427 . S
N837 C835 1.384 . S
H838 C844 0.930 . S
H839 C848 0.930 . S
H840 C853 0.929 . S
H841 C851 0.929 . S
H842 C846 0.929 . S
H843 C852 0.929 . S
C844 H838 0.930 . S
C844 C845 1.367 . S
C844 C852 1.378 . S
C845 C844 1.367 . S
C845 C853 1.433 . S
C846 H842 0.929 . S
C846 C848 1.378 . S
C846 C850 1.350 . S
C847 C850 1.463 . S
C847 C852 1.350 . S
C847 N855 1.427 . S
C848 H839 0.930 . S
C848 C846 1.378 . S
C848 C849 1.367 . S
C849 C848 1.367 . S
C849 C851 1.433 . S
C850 C846 1.350 . S
C850 C847 1.463 . S
C850 N854 1.427 . S
C851 H841 0.929 . S
C851 C849 1.433 . S
C851 N854 1.384 . S
C852 H843 0.929 . S
C852 C844 1.378 . S
C852 C847 1.350 . S
C853 H840 0.929 . S
C853 C845 1.433 . S
C853 N855 1.384 . S
N854 C850 1.427 . S
N854 C851 1.384 . S
N855 C847 1.427 . S
N855 C853 1.384 . S
H856 C862 0.930 . S
H857 C866 0.930 . S
H858 C871 0.929 . S
H859 C869 0.929 . S
H860 C864 0.929 . S
H861 C870 0.929 . S
C862 H856 0.930 . S
C862 C863 1.367 . S
C862 C870 1.378 . S
C863 C862 1.367 . S
C863 C871 1.433 . S
C864 H860 0.929 . S
C864 C866 1.378 . S
C864 C868 1.350 . S
C865 C868 1.463 . S
C865 C870 1.350 . S
C865 N873 1.427 . S
C866 H857 0.930 . S
C866 C864 1.378 . S
C866 C867 1.367 . S
C867 C866 1.367 . S
C867 C869 1.433 . S
C868 C864 1.350 . S
C868 C865 1.463 . S
C868 N872 1.427 . S
C869 H859 0.929 . S
C869 C867 1.433 . S
C869 N872 1.384 . S
C870 H861 0.929 . S
C870 C862 1.378 . S
C870 C865 1.350 . S
C871 H858 0.929 . S
C871 C863 1.433 . S
C871 N873 1.384 . S
N872 C868 1.427 . S
N872 C869 1.384 . S
N873 C865 1.427 . S
N873 C871 1.384 . S
H874 C880 0.930 . S
H875 C884 0.930 . S
H876 C889 0.929 . S
H877 C887 0.929 . S
H878 C882 0.929 . S
H879 C888 0.929 . S
C880 H874 0.930 . S
C880 C881 1.367 . S
C880 C888 1.378 . S
C881 C880 1.367 . S
C881 C889 1.433 . S
C882 H878 0.929 . S
C882 C884 1.378 . S
C882 C886 1.350 . S
C883 C886 1.463 . S
C883 C888 1.350 . S
C883 N891 1.427 . S
C884 H875 0.930 . S
C884 C882 1.378 . S
C884 C885 1.367 . S
C885 C884 1.367 . S
C885 C887 1.433 . S
C886 C882 1.350 . S
C886 C883 1.463 . S
C886 N890 1.427 . S
C887 H877 0.929 . S
C887 C885 1.433 . S
C887 N890 1.384 . S
C888 H879 0.929 . S
C888 C880 1.378 . S
C888 C883 1.350 . S
C889 H876 0.929 . S
C889 C881 1.433 . S
C889 N891 1.384 . S
N890 C886 1.427 . S
N890 C887 1.384 . S
N891 C883 1.427 . S
N891 C889 1.384 . S
H892 C898 0.930 . S
H893 C902 0.930 . S
H894 C907 0.929 . S
H895 C905 0.929 . S
H896 C900 0.929 . S
H897 C906 0.929 . S
C898 H892 0.930 . S
C898 C899 1.367 . S
C898 C906 1.378 . S
C899 C898 1.367 . S
C899 C907 1.433 . S
C900 H896 0.929 . S
C900 C902 1.378 . S
C900 C904 1.350 . S
C901 C904 1.463 . S
C901 C906 1.350 . S
C901 N909 1.427 . S
C902 H893 0.930 . S
C902 C900 1.378 . S
C902 C903 1.367 . S
C903 C902 1.367 . S
C903 C905 1.433 . S
C904 C900 1.350 . S
C904 C901 1.463 . S
C904 N908 1.427 . S
C905 H895 0.929 . S
C905 C903 1.433 . S
C905 N908 1.384 . S
C906 H897 0.929 . S
C906 C898 1.378 . S
C906 C901 1.350 . S
C907 H894 0.929 . S
C907 C899 1.433 . S
C907 N909 1.384 . S
N908 C904 1.427 . S
N908 C905 1.384 . S
N909 C901 1.427 . S
N909 C907 1.384 . S
H910 C916 0.930 . S
H911 C920 0.930 . S
H912 C925 0.929 . S
H913 C923 0.929 . S
H914 C918 0.929 . S
H915 C924 0.929 . S
C916 H910 0.930 . S
C916 C917 1.367 . S
C916 C924 1.378 . S
C917 C916 1.367 . S
C917 C925 1.433 . S
C918 H914 0.929 . S
C918 C920 1.378 . S
C918 C922 1.350 . S
C919 C922 1.463 . S
C919 C924 1.350 . S
C919 N927 1.427 . S
C920 H911 0.930 . S
C920 C918 1.378 . S
C920 C921 1.367 . S
C921 C920 1.367 . S
C921 C923 1.433 . S
C922 C918 1.350 . S
C922 C919 1.463 . S
C922 N926 1.427 . S
C923 H913 0.929 . S
C923 C921 1.433 . S
C923 N926 1.384 . S
C924 H915 0.929 . S
C924 C916 1.378 . S
C924 C919 1.350 . S
C925 H912 0.929 . S
C925 C917 1.433 . S
C925 N927 1.384 . S
N926 C922 1.427 . S
N926 C923 1.384 . S
N927 C919 1.427 . S
N927 C925 1.384 . S
H928 C934 0.930 . S
H929 C938 0.930 . S
H930 C943 0.929 . S
H931 C941 0.929 . S
H932 C936 0.929 . S
H933 C942 0.929 . S
C934 H928 0.930 . S
C934 C935 1.367 . S
C934 C942 1.378 . S
C935 C934 1.367 . S
C935 C943 1.433 . S
C936 H932 0.929 . S
C936 C938 1.378 . S
C936 C940 1.350 . S
C937 C940 1.463 . S
C937 C942 1.350 . S
C937 N945 1.427 . S
C938 H929 0.930 . S
C938 C936 1.378 . S
C938 C939 1.367 . S
C939 C938 1.367 . S
C939 C941 1.433 . S
C940 C936 1.350 . S
C940 C937 1.463 . S
C940 N944 1.427 . S
C941 H931 0.929 . S
C941 C939 1.433 . S
C941 N944 1.384 . S
C942 H933 0.929 . S
C942 C934 1.378 . S
C942 C937 1.350 . S
C943 H930 0.929 . S
C943 C935 1.433 . S
C943 N945 1.384 . S
N944 C940 1.427 . S
N944 C941 1.384 . S
N945 C937 1.427 . S
N945 C943 1.384 . S
H946 C952 0.930 . S
H947 C956 0.930 . S
H948 C961 0.929 . S
H949 C959 0.929 . S
H950 C954 0.929 . S
H951 C960 0.929 . S
C952 H946 0.930 . S
C952 C953 1.367 . S
C952 C960 1.378 . S
C953 C952 1.367 . S
C953 C961 1.433 . S
C954 H950 0.929 . S
C954 C956 1.378 . S
C954 C958 1.350 . S
C955 C958 1.463 . S
C955 C960 1.350 . S
C955 N963 1.427 . S
C956 H947 0.930 . S
C956 C954 1.378 . S
C956 C957 1.367 . S
C957 C956 1.367 . S
C957 C959 1.433 . S
C958 C954 1.350 . S
C958 C955 1.463 . S
C958 N962 1.427 . S
C959 H949 0.929 . S
C959 C957 1.433 . S
C959 N962 1.384 . S
C960 H951 0.929 . S
C960 C952 1.378 . S
C960 C955 1.350 . S
C961 H948 0.929 . S
C961 C953 1.433 . S
C961 N963 1.384 . S
N962 C958 1.427 . S
N962 C959 1.384 . S
N963 C955 1.427 . S
N963 C961 1.384 . S
H964 C970 0.930 . S
H965 C974 0.930 . S
H966 C979 0.929 . S
H967 C977 0.929 . S
H968 C972 0.929 . S
H969 C978 0.929 . S
C970 H964 0.930 . S
C970 C971 1.367 . S
C970 C978 1.378 . S
C971 C970 1.367 . S
C971 C979 1.433 . S
C972 H968 0.929 . S
C972 C974 1.378 . S
C972 C976 1.350 . S
C973 C976 1.463 . S
C973 C978 1.350 . S
C973 N981 1.427 . S
C974 H965 0.930 . S
C974 C972 1.378 . S
C974 C975 1.367 . S
C975 C974 1.367 . S
C975 C977 1.433 . S
C976 C972 1.350 . S
C976 C973 1.463 . S
C976 N980 1.427 . S
C977 H967 0.929 . S
C977 C975 1.433 . S
C977 N980 1.384 . S
C978 H969 0.929 . S
C978 C970 1.378 . S
C978 C973 1.350 . S
C979 H966 0.929 . S
C979 C971 1.433 . S
C979 N981 1.384 . S
N980 C976 1.427 . S
N980 C977 1.384 . S
N981 C973 1.427 . S
N981 C979 1.384 . S
H982 C988 0.930 . S
H983 C992 0.930 . S
H984 C997 0.929 . S
H985 C995 0.929 . S
H986 C990 0.929 . S
H987 C996 0.929 . S
C988 H982 0.930 . S
C988 C989 1.367 . S
C988 C996 1.378 . S
C989 C988 1.367 . S
C989 C997 1.433 . S
C990 H986 0.929 . S
C990 C992 1.378 . S
C990 C994 1.350 . S
C991 C994 1.463 . S
C991 C996 1.350 . S
C991 N999 1.427 . S
C992 H983 0.930 . S
C992 C990 1.378 . S
C992 C993 1.367 . S
C993 C992 1.367 . S
C993 C995 1.433 . S
C994 C990 1.350 . S
C994 C991 1.463 . S
C994 N998 1.427 . S
C995 H985 0.929 . S
C995 C993 1.433 . S
C995 N998 1.384 . S
C996 H987 0.929 . S
C996 C988 1.378 . S
C996 C991 1.350 . S
C997 H984 0.929 . S
C997 C989 1.433 . S
C997 N999 1.384 . S
N998 C994 1.427 . S
N998 C995 1.384 . S
N999 C991 1.427 . S
N999 C997 1.384 . S
H1000 C1006 0.930 . S
H1001 C1010 0.930 . S
H1002 C1015 0.929 . S
H1003 C1013 0.929 . S
H1004 C1008 0.929 . S
H1005 C1014 0.929 . S
C1006 H1000 0.930 . S
C1006 C1007 1.367 . S
C1006 C1014 1.378 . S
C1007 C1006 1.367 . S
C1007 C1015 1.433 . S
C1008 H1004 0.929 . S
C1008 C1010 1.378 . S
C1008 C1012 1.350 . S
C1009 C1012 1.463 1_556 S
C1009 C1014 1.350 . S
C1009 N1017 1.427 . S
C1010 H1001 0.930 . S
C1010 C1008 1.378 . S
C1010 C1011 1.367 . S
C1011 C1010 1.367 . S
C1011 C1013 1.433 . S
C1012 C1008 1.350 . S
C1012 C1009 1.463 1_554 S
C1012 N1016 1.427 . S
C1013 H1003 0.929 . S
C1013 C1011 1.433 . S
C1013 N1016 1.384 . S
C1014 H1005 0.929 . S
C1014 C1006 1.378 . S
C1014 C1009 1.350 . S
C1015 H1002 0.929 . S
C1015 C1007 1.433 . S
C1015 N1017 1.384 . S
N1016 C1012 1.427 . S
N1016 C1013 1.384 . S
N1017 C1009 1.427 . S
N1017 C1015 1.384 . S
H1018 C1024 0.930 . S
H1019 C1028 0.930 . S
H1020 C1033 0.929 . S
H1021 C1031 0.929 . S
H1022 C1026 0.929 . S
H1023 C1032 0.929 . S
C1024 H1018 0.930 . S
C1024 C1025 1.367 . S
C1024 C1032 1.378 . S
C1025 C1024 1.367 . S
C1025 C1033 1.433 . S
C1026 H1022 0.929 . S
C1026 C1028 1.378 . S
C1026 C1030 1.350 . S
C1027 C1030 1.463 1_554 S
C1027 C1032 1.350 . S
C1027 N1035 1.427 . S
C1028 H1019 0.930 . S
C1028 C1026 1.378 . S
C1028 C1029 1.367 . S
C1029 C1028 1.367 . S
C1029 C1031 1.433 . S
C1030 C1026 1.350 . S
C1030 C1027 1.463 1_556 S
C1030 N1034 1.427 . S
C1031 H1021 0.929 . S
C1031 C1029 1.433 . S
C1031 N1034 1.384 . S
C1032 H1023 0.929 . S
C1032 C1024 1.378 . S
C1032 C1027 1.350 . S
C1033 H1020 0.929 . S
C1033 C1025 1.433 . S
C1033 N1035 1.384 . S
N1034 C1030 1.427 . S
N1034 C1031 1.384 . S
N1035 C1027 1.427 . S
N1035 C1033 1.384 . S
H1036 C1042 0.930 . S
H1037 C1046 0.930 . S
H1038 C1051 0.929 . S
H1039 C1049 0.929 . S
H1040 C1044 0.929 . S
H1041 C1050 0.929 . S
C1042 H1036 0.930 . S
C1042 C1043 1.367 . S
C1042 C1050 1.378 . S
C1043 C1042 1.367 . S
C1043 C1051 1.433 . S
C1044 H1040 0.929 . S
C1044 C1046 1.378 . S
C1044 C1048 1.350 . S
C1045 C1048 1.463 1_556 S
C1045 C1050 1.350 . S
C1045 N1053 1.427 . S
C1046 H1037 0.930 . S
C1046 C1044 1.378 . S
C1046 C1047 1.367 . S
C1047 C1046 1.367 . S
C1047 C1049 1.433 . S
C1048 C1044 1.350 . S
C1048 C1045 1.463 1_554 S
C1048 N1052 1.427 . S
C1049 H1039 0.929 . S
C1049 C1047 1.433 . S
C1049 N1052 1.384 . S
C1050 H1041 0.929 . S
C1050 C1042 1.378 . S
C1050 C1045 1.350 . S
C1051 H1038 0.929 . S
C1051 C1043 1.433 . S
C1051 N1053 1.384 . S
N1052 C1048 1.427 . S
N1052 C1049 1.384 . S
N1053 C1045 1.427 . S
N1053 C1051 1.384 . S
H1054 C1060 0.930 . S
H1055 C1064 0.930 . S
H1056 C1069 0.929 . S
H1057 C1067 0.929 . S
H1058 C1062 0.929 . S
H1059 C1068 0.929 . S
C1060 H1054 0.930 . S
C1060 C1061 1.367 . S
C1060 C1068 1.378 . S
C1061 C1060 1.367 . S
C1061 C1069 1.433 . S
C1062 H1058 0.929 . S
C1062 C1064 1.378 . S
C1062 C1066 1.350 . S
C1063 C1066 1.463 1_554 S
C1063 C1068 1.350 . S
C1063 N1071 1.427 . S
C1064 H1055 0.930 . S
C1064 C1062 1.378 . S
C1064 C1065 1.367 . S
C1065 C1064 1.367 . S
C1065 C1067 1.433 . S
C1066 C1062 1.350 . S
C1066 C1063 1.463 1_556 S
C1066 N1070 1.427 . S
C1067 H1057 0.929 . S
C1067 C1065 1.433 . S
C1067 N1070 1.384 . S
C1068 H1059 0.929 . S
C1068 C1060 1.378 . S
C1068 C1063 1.350 . S
C1069 H1056 0.929 . S
C1069 C1061 1.433 . S
C1069 N1071 1.384 . S
N1070 C1066 1.427 . S
N1070 C1067 1.384 . S
N1071 C1063 1.427 . S
N1071 C1069 1.384 . S
H1072 C1078 0.930 . S
H1073 C1082 0.930 . S
H1074 C1087 0.929 . S
H1075 C1085 0.929 . S
H1076 C1080 0.929 . S
H1077 C1086 0.929 . S
C1078 H1072 0.930 . S
C1078 C1079 1.367 . S
C1078 C1086 1.378 . S
C1079 C1078 1.367 . S
C1079 C1087 1.433 . S
C1080 H1076 0.929 . S
C1080 C1082 1.378 . S
C1080 C1084 1.350 . S
C1081 C1084 1.463 . S
C1081 C1086 1.350 . S
C1081 N1089 1.427 . S
C1082 H1073 0.930 . S
C1082 C1080 1.378 . S
C1082 C1083 1.367 . S
C1083 C1082 1.367 . S
C1083 C1085 1.433 . S
C1084 C1080 1.350 . S
C1084 C1081 1.463 . S
C1084 N1088 1.427 . S
C1085 H1075 0.929 . S
C1085 C1083 1.433 . S
C1085 N1088 1.384 . S
C1086 H1077 0.929 . S
C1086 C1078 1.378 . S
C1086 C1081 1.350 . S
C1087 H1074 0.929 . S
C1087 C1079 1.433 . S
C1087 N1089 1.384 . S
N1088 C1084 1.427 . S
N1088 C1085 1.384 . S
N1089 C1081 1.427 . S
N1089 C1087 1.384 . S
H1090 C1096 0.930 . S
H1091 C1100 0.930 . S
H1092 C1105 0.929 . S
H1093 C1103 0.929 . S
H1094 C1098 0.929 . S
H1095 C1104 0.929 . S
C1096 H1090 0.930 . S
C1096 C1097 1.367 . S
C1096 C1104 1.378 . S
C1097 C1096 1.367 . S
C1097 C1105 1.433 . S
C1098 H1094 0.929 . S
C1098 C1100 1.378 . S
C1098 C1102 1.350 . S
C1099 C1102 1.463 . S
C1099 C1104 1.350 . S
C1099 N1107 1.427 . S
C1100 H1091 0.930 . S
C1100 C1098 1.378 . S
C1100 C1101 1.367 . S
C1101 C1100 1.367 . S
C1101 C1103 1.433 . S
C1102 C1098 1.350 . S
C1102 C1099 1.463 . S
C1102 N1106 1.427 . S
C1103 H1093 0.929 . S
C1103 C1101 1.433 . S
C1103 N1106 1.384 . S
C1104 H1095 0.929 . S
C1104 C1096 1.378 . S
C1104 C1099 1.350 . S
C1105 H1092 0.929 . S
C1105 C1097 1.433 . S
C1105 N1107 1.384 . S
N1106 C1102 1.427 . S
N1106 C1103 1.384 . S
N1107 C1099 1.427 . S
N1107 C1105 1.384 . S
H1108 C1114 0.930 . S
H1109 C1118 0.930 . S
H1110 C1123 0.929 . S
H1111 C1121 0.929 . S
H1112 C1116 0.929 . S
H1113 C1122 0.929 . S
C1114 H1108 0.930 . S
C1114 C1115 1.367 . S
C1114 C1122 1.378 . S
C1115 C1114 1.367 . S
C1115 C1123 1.433 . S
C1116 H1112 0.929 . S
C1116 C1118 1.378 . S
C1116 C1120 1.350 . S
C1117 C1120 1.463 . S
C1117 C1122 1.350 . S
C1117 N1125 1.427 . S
C1118 H1109 0.930 . S
C1118 C1116 1.378 . S
C1118 C1119 1.367 . S
C1119 C1118 1.367 . S
C1119 C1121 1.433 . S
C1120 C1116 1.350 . S
C1120 C1117 1.463 . S
C1120 N1124 1.427 . S
C1121 H1111 0.929 . S
C1121 C1119 1.433 . S
C1121 N1124 1.384 . S
C1122 H1113 0.929 . S
C1122 C1114 1.378 . S
C1122 C1117 1.350 . S
C1123 H1110 0.929 . S
C1123 C1115 1.433 . S
C1123 N1125 1.384 . S
N1124 C1120 1.427 . S
N1124 C1121 1.384 . S
N1125 C1117 1.427 . S
N1125 C1123 1.384 . S
H1126 C1132 0.930 . S
H1127 C1136 0.930 . S
H1128 C1141 0.929 . S
H1129 C1139 0.929 . S
H1130 C1134 0.929 . S
H1131 C1140 0.929 . S
C1132 H1126 0.930 . S
C1132 C1133 1.367 . S
C1132 C1140 1.378 . S
C1133 C1132 1.367 . S
C1133 C1141 1.433 . S
C1134 H1130 0.929 . S
C1134 C1136 1.378 . S
C1134 C1138 1.350 . S
C1135 C1138 1.463 . S
C1135 C1140 1.350 . S
C1135 N1143 1.427 . S
C1136 H1127 0.930 . S
C1136 C1134 1.378 . S
C1136 C1137 1.367 . S
C1137 C1136 1.367 . S
C1137 C1139 1.433 . S
C1138 C1134 1.350 . S
C1138 C1135 1.463 . S
C1138 N1142 1.427 . S
C1139 H1129 0.929 . S
C1139 C1137 1.433 . S
C1139 N1142 1.384 . S
C1140 H1131 0.929 . S
C1140 C1132 1.378 . S
C1140 C1135 1.350 . S
C1141 H1128 0.929 . S
C1141 C1133 1.433 . S
C1141 N1143 1.384 . S
N1142 C1138 1.427 . S
N1142 C1139 1.384 . S
N1143 C1135 1.427 . S
N1143 C1141 1.384 . S
H1144 C1150 0.930 . S
H1145 C1154 0.930 . S
H1146 C1159 0.929 . S
H1147 C1157 0.929 . S
H1148 C1152 0.929 . S
H1149 C1158 0.929 . S
C1150 H1144 0.930 . S
C1150 C1151 1.367 . S
C1150 C1158 1.378 . S
C1151 C1150 1.367 . S
C1151 C1159 1.433 . S
C1152 H1148 0.929 . S
C1152 C1154 1.378 . S
C1152 C1156 1.350 . S
C1153 C1156 1.463 1_556 S
C1153 C1158 1.350 . S
C1153 N1161 1.427 . S
C1154 H1145 0.930 . S
C1154 C1152 1.378 . S
C1154 C1155 1.367 . S
C1155 C1154 1.367 . S
C1155 C1157 1.433 . S
C1156 C1152 1.350 . S
C1156 C1153 1.463 1_554 S
C1156 N1160 1.427 . S
C1157 H1147 0.929 . S
C1157 C1155 1.433 . S
C1157 N1160 1.384 . S
C1158 H1149 0.929 . S
C1158 C1150 1.378 . S
C1158 C1153 1.350 . S
C1159 H1146 0.929 . S
C1159 C1151 1.433 . S
C1159 N1161 1.384 . S
N1160 C1156 1.427 . S
N1160 C1157 1.384 . S
N1161 C1153 1.427 . S
N1161 C1159 1.384 . S
H1162 C1168 0.930 . S
H1163 C1172 0.930 . S
H1164 C1177 0.929 . S
H1165 C1175 0.929 . S
H1166 C1170 0.929 . S
H1167 C1176 0.929 . S
C1168 H1162 0.930 . S
C1168 C1169 1.367 . S
C1168 C1176 1.378 . S
C1169 C1168 1.367 . S
C1169 C1177 1.433 . S
C1170 H1166 0.929 . S
C1170 C1172 1.378 . S
C1170 C1174 1.350 . S
C1171 C1174 1.463 1_556 S
C1171 C1176 1.350 . S
C1171 N1179 1.427 . S
C1172 H1163 0.930 . S
C1172 C1170 1.378 . S
C1172 C1173 1.367 . S
C1173 C1172 1.367 . S
C1173 C1175 1.433 . S
C1174 C1170 1.350 . S
C1174 C1171 1.463 1_554 S
C1174 N1178 1.427 . S
C1175 H1165 0.929 . S
C1175 C1173 1.433 . S
C1175 N1178 1.384 . S
C1176 H1167 0.929 . S
C1176 C1168 1.378 . S
C1176 C1171 1.350 . S
C1177 H1164 0.929 . S
C1177 C1169 1.433 . S
C1177 N1179 1.384 . S
N1178 C1174 1.427 . S
N1178 C1175 1.384 . S
N1179 C1171 1.427 . S
N1179 C1177 1.384 . S
H1180 C1186 0.930 . S
H1181 C1190 0.930 . S
H1182 C1195 0.929 . S
H1183 C1193 0.929 . S
H1184 C1188 0.929 . S
H1185 C1194 0.929 . S
C1186 H1180 0.930 . S
C1186 C1187 1.367 . S
C1186 C1194 1.378 . S
C1187 C1186 1.367 . S
C1187 C1195 1.433 . S
C1188 H1184 0.929 . S
C1188 C1190 1.378 . S
C1188 C1192 1.350 . S
C1189 C1192 1.463 1_554 S
C1189 C1194 1.350 . S
C1189 N1197 1.427 . S
C1190 H1181 0.930 . S
C1190 C1188 1.378 . S
C1190 C1191 1.367 . S
C1191 C1190 1.367 . S
C1191 C1193 1.433 . S
C1192 C1188 1.350 . S
C1192 C1189 1.463 1_556 S
C1192 N1196 1.427 . S
C1193 H1183 0.929 . S
C1193 C1191 1.433 . S
C1193 N1196 1.384 . S
C1194 H1185 0.929 . S
C1194 C1186 1.378 . S
C1194 C1189 1.350 . S
C1195 H1182 0.929 . S
C1195 C1187 1.433 . S
C1195 N1197 1.384 . S
N1196 C1192 1.427 . S
N1196 C1193 1.384 . S
N1197 C1189 1.427 . S
N1197 C1195 1.384 . S
H1198 C1204 0.930 . S
H1199 C1208 0.930 . S
H1200 C1213 0.929 . S
H1201 C1211 0.929 . S
H1202 C1206 0.929 . S
H1203 C1212 0.929 . S
C1204 H1198 0.930 . S
C1204 C1205 1.367 . S
C1204 C1212 1.378 . S
C1205 C1204 1.367 . S
C1205 C1213 1.433 . S
C1206 H1202 0.929 . S
C1206 C1208 1.378 . S
C1206 C1210 1.350 . S
C1207 C1210 1.463 1_554 S
C1207 C1212 1.350 . S
C1207 N1215 1.427 . S
C1208 H1199 0.930 . S
C1208 C1206 1.378 . S
C1208 C1209 1.367 . S
C1209 C1208 1.367 . S
C1209 C1211 1.433 . S
C1210 C1206 1.350 . S
C1210 C1207 1.463 1_556 S
C1210 N1214 1.427 . S
C1211 H1201 0.929 . S
C1211 C1209 1.433 . S
C1211 N1214 1.384 . S
C1212 H1203 0.929 . S
C1212 C1204 1.378 . S
C1212 C1207 1.350 . S
C1213 H1200 0.929 . S
C1213 C1205 1.433 . S
C1213 N1215 1.384 . S
N1214 C1210 1.427 . S
N1214 C1211 1.384 . S
N1215 C1207 1.427 . S
N1215 C1213 1.384 . S
C359 C5 2.282 . S
C363 C119 2.276 . S
C377 C141 2.285 . S
C381 C27 2.282 . S
C395 C49 2.279 . S
C399 C163 2.284 . S
C413 C75 2.271 . S
C417 C93 2.269 . S
C431 C293 2.273 . S
C435 C182 2.270 . S
C449 C315 2.285 . S
C453 C205 2.283 . S
C467 C227 2.272 . S
C471 C336 2.269 . S
C485 C249 2.270 . S
C489 C271 2.274 . S
C503 C4 1.627 . S
C507 C73 1.512 1_545 S
C521 C26 1.620 . S
C525 C6 1.528 . S
C539 C48 1.619 1_455 S
C543 C28 1.533 . S
C557 C74 1.621 1_545 S
C561 C50 1.517 1_455 S
C575 C92 1.620 1_655 S
C579 C117 1.521 1_565 S
C593 C139 1.519 . S
C597 C118 1.627 1_565 S
C611 C140 1.623 . S
C615 C161 1.519 . S
C629 C94 1.515 1_655 S
C633 C162 1.626 . S
C647 C251 1.520 1_565 S
C651 C180 1.620 . S
C665 C206 1.626 . S
C669 C181 1.517 . S
C683 C228 1.623 1_655 S
C687 C207 1.519 . S
C701 C250 1.620 1_565 S
C705 C229 1.527 1_655 S
C719 C272 1.624 1_455 S
C723 C295 1.509 1_545 S
C737 C294 1.627 1_545 S
C741 C317 1.519 . S
C755 C316 1.626 . S
C759 C335 1.521 . S
C773 C334 1.621 . S
C777 C273 1.527 1_455 S
C791 C7 0.314 . S
C795 C51 0.294 . S
C809 C29 0.297 . S
C813 C72 0.269 . S
C827 C138 0.281 . S
C831 C95 0.308 . S
C845 C160 0.292 . S
C849 C116 0.314 . S
C863 C225 0.303 . S
C867 C185 0.275 . S
C881 C247 0.289 . S
C885 C203 0.312 . S
C899 C269 0.309 . S
C903 C313 0.313 . S
C917 C291 0.307 . S
C921 C339 0.280 . S
C935 C8 1.223 . S
C939 C248 1.219 . S
C953 C183 1.213 . S
C957 C30 1.221 . S
C971 C52 1.223 . S
C975 C204 1.219 . S
C989 C226 1.213 . S
C993 C70 1.222 . S
C1007 C292 1.213 . S
C1011 C96 1.222 . S
C1025 C114 1.223 . S
C1029 C314 1.219 . S
C1043 C337 1.219 . S
C1047 C136 1.223 . S
C1061 C158 1.223 . S
C1065 C270 1.215 . S
C1079 C184 1.223 . S
C1083 C71 1.218 . S
C1097 C202 1.221 . S
C1101 C9 1.212 . S
C1115 C31 1.215 . S
C1119 C224 1.222 . S
C1133 C246 1.223 . S
C1137 C53 1.219 . S
C1151 C268 1.223 . S
C1155 C115 1.217 . S
C1169 C290 1.223 . S
C1173 C137 1.219 . S
C1187 C159 1.213 . S
C1191 C312 1.222 . S
C1205 C97 1.218 . S
C1209 C338 1.223 . S
