# Generated by pormake.
# Topology wjy, (5)-cn, num edge types: 1
# Building blocks:
#     Node 0, Type 0, BuildingBlock: XOMCOT_clean_sbu_1, # of connection points: 5
#     Node 1, Type 0, BuildingBlock: XOMCOT_clean_sbu_1, # of connection points: 5
#     Node 2, Type 0, BuildingBlock: XOMCOT_clean_sbu_1, # of connection points: 5
#     Node 3, Type 0, BuildingBlock: XOMCOT_clean_sbu_1, # of connection points: 5
#     Node 4, Type 0, BuildingBlock: XOMCOT_clean_sbu_1, # of connection points: 5
#     Node 5, Type 0, BuildingBlock: XOMCOT_clean_sbu_1, # of connection points: 5
#     Node 6, Type 0, BuildingBlock: XOMCOT_clean_sbu_1, # of connection points: 5
#     Node 7, Type 0, BuildingBlock: XOMCOT_clean_sbu_1, # of connection points: 5
#     Node 8, Type 0, BuildingBlock: XOMCOT_clean_sbu_1, # of connection points: 5
#     Node 9, Type 0, BuildingBlock: XOMCOT_clean_sbu_1, # of connection points: 5
#     Node 10, Type 0, BuildingBlock: XOMCOT_clean_sbu_1, # of connection points: 5
#     Node 11, Type 0, BuildingBlock: XOMCOT_clean_sbu_1, # of connection points: 5
#     Edge 12, Type (0, 0), BuildingBlock: TEMPAE_clean_linker_10, # of connection points: 2
#     Edge 13, Type (0, 0), BuildingBlock: TEMPAE_clean_linker_10, # of connection points: 2
#     Edge 14, Type (0, 0), BuildingBlock: TEMPAE_clean_linker_10, # of connection points: 2
#     Edge 15, Type (0, 0), BuildingBlock: TEMPAE_clean_linker_10, # of connection points: 2
#     Edge 16, Type (0, 0), BuildingBlock: TEMPAE_clean_linker_10, # of connection points: 2
#     Edge 17, Type (0, 0), BuildingBlock: TEMPAE_clean_linker_10, # of connection points: 2
#     Edge 18, Type (0, 0), BuildingBlock: TEMPAE_clean_linker_10, # of connection points: 2
#     Edge 19, Type (0, 0), BuildingBlock: TEMPAE_clean_linker_10, # of connection points: 2
#     Edge 20, Type (0, 0), BuildingBlock: TEMPAE_clean_linker_10, # of connection points: 2
#     Edge 21, Type (0, 0), BuildingBlock: TEMPAE_clean_linker_10, # of connection points: 2
#     Edge 22, Type (0, 0), BuildingBlock: TEMPAE_clean_linker_10, # of connection points: 2
#     Edge 23, Type (0, 0), BuildingBlock: TEMPAE_clean_linker_10, # of connection points: 2
#     Edge 24, Type (0, 0), BuildingBlock: TEMPAE_clean_linker_10, # of connection points: 2
#     Edge 25, Type (0, 0), BuildingBlock: TEMPAE_clean_linker_10, # of connection points: 2
#     Edge 26, Type (0, 0), BuildingBlock: TEMPAE_clean_linker_10, # of connection points: 2
#     Edge 27, Type (0, 0), BuildingBlock: TEMPAE_clean_linker_10, # of connection points: 2
#     Edge 28, Type (0, 0), BuildingBlock: TEMPAE_clean_linker_10, # of connection points: 2
#     Edge 29, Type (0, 0), BuildingBlock: TEMPAE_clean_linker_10, # of connection points: 2
#     Edge 30, Type (0, 0), BuildingBlock: TEMPAE_clean_linker_10, # of connection points: 2
#     Edge 31, Type (0, 0), BuildingBlock: TEMPAE_clean_linker_10, # of connection points: 2
#     Edge 32, Type (0, 0), BuildingBlock: TEMPAE_clean_linker_10, # of connection points: 2
#     Edge 33, Type (0, 0), BuildingBlock: TEMPAE_clean_linker_10, # of connection points: 2
#     Edge 34, Type (0, 0), BuildingBlock: TEMPAE_clean_linker_10, # of connection points: 2
#     Edge 35, Type (0, 0), BuildingBlock: TEMPAE_clean_linker_10, # of connection points: 2
#     Edge 36, Type (0, 0), BuildingBlock: TEMPAE_clean_linker_10, # of connection points: 2
#     Edge 37, Type (0, 0), BuildingBlock: TEMPAE_clean_linker_10, # of connection points: 2
#     Edge 38, Type (0, 0), BuildingBlock: TEMPAE_clean_linker_10, # of connection points: 2
#     Edge 39, Type (0, 0), BuildingBlock: TEMPAE_clean_linker_10, # of connection points: 2
#     Edge 40, Type (0, 0), BuildingBlock: TEMPAE_clean_linker_10, # of connection points: 2
#     Edge 41, Type (0, 0), BuildingBlock: TEMPAE_clean_linker_10, # of connection points: 2
# Relax obj value: 0.189
# Max RMSD: 0.171
# Mean RMSD: 0.171
data_MOF--net-wjy--node1-XOMCOT_clean_sbu_1--edge1-TEMPAE_clean_linker_10
_symmetry_space_group_name_H-M    P1
_symmetry_Int_Tables_number       1
_symmetry_cell_setting            triclinic
loop_
_symmetry_equiv_pos_as_xyz
'x, y, z'
_cell_length_a     72.549915
_cell_length_b     72.526388
_cell_length_c     17.691832
_cell_angle_alpha  90.033266
_cell_angle_beta   90.004289
_cell_angle_gamma 119.9359
loop_
_atom_site_label
_atom_site_type_symbol
_atom_site_fract_x
_atom_site_fract_y
_atom_site_fract_z
_atom_type_partial_charge
C0 C 0.42291 0.08929 0.19385 0.0
C1 C 0.41949 0.08899 0.27011 0.0
N2 N 0.43066 0.10904 0.29677 0.0
N3 N 0.43604 0.10945 0.17128 0.0
C4 C 0.44053 0.12118 0.23535 0.0
H5 H 0.41716 0.0754 0.15825 0.0
Co6 Co 0.4479 0.11662 0.07427 0.0
C7 C 0.45199 0.15877 0.0345 0.0
O8 O 0.46767 0.16263 0.98825 0.0
N9 N 0.45986 0.12296 0.97559 0.0
C10 C 0.48066 0.12685 0.87724 0.0
C11 C 0.47877 0.12517 0.9545 0.0
C12 C 0.45052 0.12326 0.90942 0.0
N13 N 0.46289 0.12564 0.84889 0.0
O14 O 0.41994 0.09809 0.03156 0.0
H15 H 0.4903 0.12483 0.99214 0.0
H16 H 0.43463 0.121 0.90551 0.0
O17 O 0.44326 0.14148 0.07313 0.0
C18 C 0.41917 0.08118 1.00645 0.0
O19 O 0.43673 0.0801 1.00756 0.0
N20 N 0.4751 0.13193 0.11834 0.0
C21 C 0.51493 0.14523 0.18331 0.0
C22 C 0.5088 0.16014 0.16283 0.0
C23 C 0.48858 0.15312 0.1312 0.0
C24 C 0.48071 0.11735 0.1396 0.0
C25 C 0.50044 0.1236 0.17188 0.0
H26 H 0.48403 0.16476 0.11784 0.0
H27 H 0.4698 0.10063 0.12962 0.0
H28 H 0.45156 0.13813 0.23728 0.0
H29 H 0.41064 0.07481 0.30398 0.0
H30 H 0.49394 0.12842 0.84424 0.0
H31 H 0.51945 0.17699 0.17174 0.0
H32 H 0.50451 0.11153 0.18588 0.0
C33 C 0.3592 0.43909 0.33968 0.0
C34 C 0.35887 0.43527 0.41577 0.0
N35 N 0.33998 0.43135 0.44404 0.0
N36 N 0.34064 0.43761 0.31932 0.0
C37 C 0.32914 0.43269 0.38387 0.0
H38 H 0.37257 0.44373 0.30216 0.0
Co39 Co 0.33599 0.44466 0.22266 0.0
C40 C 0.29762 0.44924 0.24867 0.0
O41 O 0.3085 0.46948 0.23145 0.0
N42 N 0.33151 0.4519 0.12205 0.0
C43 C 0.33074 0.47037 0.02212 0.0
C44 C 0.33283 0.47036 0.09905 0.0
C45 C 0.32812 0.44082 0.05656 0.0
N46 N 0.32789 0.45183 0.9953 0.0
O47 O 0.32587 0.41551 0.19323 0.0
H48 H 0.33616 0.48374 0.13474 0.0
H49 H 0.32676 0.42534 0.05257 0.0
O50 O 0.30661 0.43786 0.24936 0.0
C51 C 0.34216 0.41492 0.16872 0.0
O52 O 0.35977 0.43314 0.15804 0.0
N53 N 0.34934 0.47341 0.25388 0.0
C54 C 0.37933 0.51375 0.3082 0.0
C55 C 0.35985 0.50144 0.34576 0.0
C56 C 0.34518 0.48113 0.31833 0.0
C57 C 0.36821 0.48522 0.21715 0.0
C58 C 0.38307 0.50553 0.24191 0.0
H59 H 0.33106 0.47126 0.35112 0.0
H60 H 0.3721 0.47846 0.16943 0.0
H61 H 0.3135 0.43103 0.38714 0.0
H62 H 0.37213 0.43663 0.44827 0.0
H63 H 0.33188 0.48332 0.98817 0.0
H64 H 0.3565 0.50686 0.3983 0.0
H65 H 0.39778 0.51437 0.2107 0.0
C66 C 0.92717 0.353 0.51474 0.0
C67 C 0.92978 0.35093 0.59046 0.0
N68 N 0.91184 0.33416 0.6173 0.0
N69 N 0.90771 0.33762 0.49308 0.0
C70 C 0.89875 0.32625 0.55664 0.0
H71 H 0.9384 0.3656 0.47845 0.0
Co72 Co 0.89728 0.33707 0.39632 0.0
C73 C 0.85377 0.3001 0.39264 0.0
O74 O 0.84786 0.31308 0.3646 0.0
N75 N 0.8872 0.33708 0.29474 0.0
C76 C 0.87367 0.34424 0.19266 0.0
C77 C 0.87562 0.34586 0.26967 0.0
C78 C 0.89158 0.32976 0.23019 0.0
N79 N 0.88388 0.33429 0.1676 0.0
O80 O 0.91577 0.327 0.35921 0.0
H81 H 0.86851 0.35288 0.30426 0.0
H82 H 0.90096 0.32196 0.22816 0.0
O83 O 0.87331 0.30747 0.41126 0.0
C84 C 0.93246 0.34314 0.33314 0.0
O85 O 0.93227 0.3611 0.3263 0.0
N86 N 0.88246 0.35009 0.43655 0.0
C87 C 0.8714 0.37802 0.50743 0.0
C88 C 0.86185 0.35642 0.52892 0.0
C89 C 0.86751 0.34272 0.49263 0.0
C90 C 0.89244 0.37104 0.41721 0.0
C91 C 0.88645 0.38487 0.4486 0.0
H92 H 0.86069 0.32656 0.51259 0.0
H93 H 0.90514 0.37705 0.37598 0.0
H94 H 0.88269 0.31293 0.55896 0.0
H95 H 0.94338 0.36184 0.62395 0.0
H96 H 0.8655 0.35013 0.15757 0.0
H97 H 0.85072 0.35014 0.57536 0.0
H98 H 0.89404 0.40091 0.42678 0.0
C99 C 0.60016 0.92306 0.70498 0.0
C100 C 0.6036 0.92327 0.78118 0.0
N101 N 0.59252 0.90317 0.80738 0.0
N102 N 0.58709 0.90291 0.68199 0.0
C103 C 0.58265 0.89109 0.74578 0.0
H104 H 0.60585 0.937 0.66974 0.0
Co105 Co 0.57536 0.89585 0.58477 0.0
C106 C 0.57109 0.85362 0.54467 0.0
O107 O 0.55559 0.84998 0.49786 0.0
N108 N 0.56353 0.88965 0.48587 0.0
C109 C 0.54282 0.88583 0.38725 0.0
C110 C 0.54466 0.88749 0.46453 0.0
C111 C 0.57292 0.88936 0.41983 0.0
N112 N 0.5606 0.88701 0.35916 0.0
O113 O 0.60339 0.91453 0.54266 0.0
H114 H 0.53309 0.88783 0.50199 0.0
H115 H 0.58879 0.89157 0.41612 0.0
O116 O 0.57994 0.87091 0.58342 0.0
C117 C 0.60406 0.93146 0.51817 0.0
O118 O 0.5864 0.93235 0.51918 0.0
N119 N 0.54811 0.88047 0.62824 0.0
C120 C 0.50792 0.86697 0.69024 0.0
C121 C 0.51424 0.85215 0.67069 0.0
C122 C 0.53463 0.85926 0.64057 0.0
C123 C 0.54238 0.89499 0.64919 0.0
C124 C 0.52246 0.88864 0.67991 0.0
H125 H 0.53927 0.84766 0.62777 0.0
H126 H 0.55331 0.91173 0.63976 0.0
H127 H 0.57167 0.87413 0.74739 0.0
H128 H 0.61242 0.9374 0.81537 0.0
H129 H 0.52958 0.88428 0.35407 0.0
H130 H 0.50358 0.83527 0.67893 0.0
H131 H 0.51827 0.90066 0.69324 0.0
C132 C 0.65708 0.56745 0.84972 0.0
C133 C 0.6555 0.57024 0.92568 0.0
N134 N 0.67441 0.57602 0.95844 0.0
N135 N 0.67691 0.57153 0.83376 0.0
C136 C 0.6873 0.57725 0.90086 0.0
H137 H 0.64424 0.56183 0.80917 0.0
Co138 Co 0.68485 0.5671 0.73734 0.0
C139 C 0.7221 0.56262 0.79333 0.0
O140 O 0.71013 0.5419 0.79767 0.0
N141 N 0.693 0.56338 0.63842 0.0
C142 C 0.70632 0.55388 0.54209 0.0
C143 C 0.70375 0.55329 0.6191 0.0
C144 C 0.6892 0.56987 0.5712 0.0
N145 N 0.69713 0.56431 0.51174 0.0
O146 O 0.69498 0.59685 0.71638 0.0
H147 H 0.70892 0.54531 0.65761 0.0
H148 H 0.68026 0.57801 0.56516 0.0
O149 O 0.71385 0.57396 0.77321 0.0
C150 C 0.67886 0.59776 0.69198 0.0
O151 O 0.66112 0.57972 0.68036 0.0
N152 N 0.67141 0.53692 0.75763 0.0
C153 C 0.64175 0.49389 0.79069 0.0
C154 C 0.65488 0.50802 0.84703 0.0
C155 C 0.66951 0.52912 0.82945 0.0
C156 C 0.65885 0.52339 0.70188 0.0
C157 C 0.6446 0.50185 0.7165 0.0
H158 H 0.679 0.53922 0.87505 0.0
H159 H 0.65881 0.5293 0.64595 0.0
H160 H 0.70344 0.58048 0.90829 0.0
H161 H 0.6412 0.56744 0.95469 0.0
H162 H 0.71431 0.54704 0.51103 0.0
H163 H 0.65336 0.50341 0.90578 0.0
H164 H 0.63535 0.49191 0.66983 0.0
C165 C 0.09315 0.67341 0.98726 0.0
C166 C 0.09217 0.67641 0.06339 0.0
N167 N 0.11217 0.68776 0.09046 0.0
N168 N 0.11365 0.68291 0.96545 0.0
C169 C 0.12492 0.69156 0.02955 0.0
H170 H 0.07971 0.66391 0.95093 0.0
Co171 Co 0.12208 0.67992 0.86867 0.0
C172 C 0.16517 0.7171 0.84195 0.0
O173 O 0.16956 0.70475 0.80058 0.0
N174 N 0.12989 0.67613 0.76881 0.0
C175 C 0.13691 0.66215 0.66815 0.0
C176 C 0.13482 0.66135 0.74525 0.0
C177 C 0.12939 0.6859 0.7039 0.0
N178 N 0.13335 0.67747 0.64199 0.0
O179 O 0.10408 0.69011 0.82705 0.0
H180 H 0.13644 0.65016 0.78061 0.0
H181 H 0.12522 0.69828 0.70158 0.0
O182 O 0.1469 0.70923 0.87392 0.0
C183 C 0.08743 0.67447 0.79838 0.0
O184 O 0.08639 0.65586 0.79505 0.0
N185 N 0.13675 0.66729 0.91208 0.0
C186 C 0.1497 0.64013 0.973 0.0
C187 C 0.16348 0.66224 0.97353 0.0
C188 C 0.15665 0.67568 0.94277 0.0
C189 C 0.1228 0.64599 0.91664 0.0
C190 C 0.12906 0.6321 0.94518 0.0
H191 H 0.16721 0.69263 0.94534 0.0
H192 H 0.10679 0.63971 0.89533 0.0
H193 H 0.1421 0.6998 0.03186 0.0
H194 H 0.07778 0.66953 0.09686 0.0
H195 H 0.14032 0.65187 0.63369 0.0
H196 H 0.17935 0.66898 0.99685 0.0
H197 H 0.11777 0.61518 0.9459 0.0
C198 C 0.9126 0.55615 0.66275 0.0
C199 C 0.91671 0.55697 0.5868 0.0
N200 N 0.91372 0.57222 0.55577 0.0
N201 N 0.90643 0.57039 0.67985 0.0
C202 C 0.90836 0.58073 0.61402 0.0
H203 H 0.91296 0.54503 0.70262 0.0
Co204 Co 0.8967 0.57156 0.77748 0.0
C205 C 0.86493 0.58114 0.68786 0.0
O206 O 0.86682 0.57551 0.61907 0.0
N207 N 0.88759 0.5727 0.87631 0.0
C208 C 0.86664 0.56809 0.97454 0.0
C209 C 0.86738 0.56608 0.89758 0.0
C210 C 0.89882 0.57867 0.94163 0.0
N211 N 0.88647 0.57605 1.00277 0.0
O212 O 0.91919 0.60079 0.78501 0.0
H213 H 0.85385 0.55946 0.85984 0.0
H214 H 0.9157 0.58448 0.94431 0.0
O215 O 0.87593 0.5798 0.74201 0.0
C216 C 0.9356 0.60001 0.80642 0.0
O217 O 0.93338 0.58119 0.82024 0.0
N218 N 0.8762 0.54207 0.77122 0.0
C219 C 0.85936 0.49831 0.7435 0.0
C220 C 0.85661 0.5115 0.69156 0.0
C221 C 0.86471 0.53309 0.70718 0.0
C222 C 0.87753 0.52939 0.82529 0.0
C223 C 0.86865 0.50748 0.81369 0.0
H224 H 0.86406 0.54289 0.66306 0.0
H225 H 0.8869 0.53641 0.87563 0.0
H226 H 0.90513 0.59368 0.60806 0.0
H227 H 0.9207 0.54651 0.55613 0.0
H228 H 0.85231 0.56319 1.007 0.0
H229 H 0.84991 0.50602 0.63608 0.0
H230 H 0.87038 0.49833 0.85839 0.0
C231 C 0.33893 0.92295 0.81141 0.0
C232 C 0.33572 0.9232 0.73519 0.0
N233 N 0.32684 0.90313 0.70871 0.0
N234 N 0.33196 0.9028 0.83409 0.0
C235 C 0.32467 0.89102 0.77014 0.0
H236 H 0.34706 0.93686 0.8469 0.0
Co237 Co 0.33652 0.8956 0.93123 0.0
C238 C 0.29821 0.85353 0.97054 0.0
O239 O 0.30951 0.84986 0.01988 0.0
N240 N 0.34202 0.88924 0.03006 0.0
C241 C 0.35891 0.8854 0.1286 0.0
C242 C 0.35869 0.887 0.0513 0.0
C243 C 0.33243 0.88909 0.09616 0.0
N244 N 0.34239 0.88671 0.15677 0.0
O245 O 0.32702 0.91414 0.97356 0.0
H246 H 0.37055 0.88729 0.01373 0.0
H247 H 0.31884 0.89142 0.09996 0.0
O248 O 0.3071 0.87071 0.93133 0.0
C249 C 0.34319 0.93103 0.99854 0.0
O250 O 0.36178 0.93201 0.99725 0.0
N251 N 0.34846 0.88026 0.88773 0.0
C252 C 0.37513 0.8666 0.82644 0.0
C253 C 0.35421 0.8518 0.84801 0.0
C254 C 0.34094 0.85898 0.87785 0.0
C255 C 0.36851 0.89473 0.86516 0.0
C256 C 0.38206 0.88831 0.83459 0.0
H257 H 0.32491 0.84737 0.89285 0.0
H258 H 0.37421 0.91152 0.87315 0.0
H259 H 0.31878 0.87407 0.76832 0.0
H260 H 0.34095 0.93735 0.7012 0.0
H261 H 0.3706 0.88382 0.16174 0.0
H262 H 0.34818 0.83488 0.84175 0.0
H263 H 0.39813 0.90033 0.81978 0.0
C264 C 0.42698 0.3436 0.01131 0.0
C265 C 0.42243 0.34116 0.93547 0.0
N266 N 0.42592 0.32578 0.90848 0.0
N267 N 0.43327 0.32981 0.03293 0.0
C268 C 0.43233 0.31901 0.96918 0.0
H269 H 0.42675 0.35546 0.0477 0.0
Co270 Co 0.4439 0.33054 0.12956 0.0
C271 C 0.45153 0.29434 0.14012 0.0
O272 O 0.46985 0.30771 0.17112 0.0
N273 N 0.45472 0.33192 0.2308 0.0
C274 C 0.47576 0.34146 0.33262 0.0
C275 C 0.47513 0.34291 0.25561 0.0
C276 C 0.44338 0.32353 0.29537 0.0
N277 N 0.45578 0.32945 0.35787 0.0
O278 O 0.41549 0.32014 0.16851 0.0
H279 H 0.4891 0.35139 0.22097 0.0
H280 H 0.42623 0.31396 0.29732 0.0
O281 O 0.43922 0.3012 0.11744 0.0
C282 C 0.41477 0.33608 0.19602 0.0
O283 O 0.43272 0.35421 0.20255 0.0
N284 N 0.4714 0.34377 0.08759 0.0
C285 C 0.50944 0.3719 0.01301 0.0
C286 C 0.49875 0.34986 0.99759 0.0
C287 C 0.47979 0.33605 0.03566 0.0
C288 C 0.48108 0.36506 0.10101 0.0
C289 C 0.50044 0.37913 0.0677 0.0
H290 H 0.47139 0.31944 0.0201 0.0
H291 H 0.47371 0.37115 0.13912 0.0
H292 H 0.43698 0.307 0.96679 0.0
H293 H 0.41821 0.351 0.90202 0.0
H294 H 0.48989 0.34889 0.36758 0.0
H295 H 0.50436 0.34328 0.95449 0.0
H296 H 0.50795 0.39562 0.08478 0.0
C297 C 0.08854 0.43154 0.17645 0.0
C298 C 0.08573 0.4285 0.09975 0.0
N299 N 0.10334 0.42958 0.0701 0.0
N300 N 0.10784 0.43457 0.19543 0.0
C301 C 0.11645 0.43305 0.12941 0.0
H302 H 0.07762 0.43256 0.21549 0.0
Co303 Co 0.1191 0.44313 0.29213 0.0
C304 C 0.16227 0.44848 0.28409 0.0
O305 O 0.16969 0.46754 0.31298 0.0
N306 N 0.13028 0.45197 0.39318 0.0
C307 C 0.14626 0.47172 0.49517 0.0
C308 C 0.1432 0.472 0.41896 0.0
C309 C 0.12604 0.43982 0.4564 0.0
N310 N 0.13537 0.45147 0.51925 0.0
O311 O 0.10042 0.41432 0.32592 0.0
H312 H 0.1503 0.48631 0.38535 0.0
H313 H 0.11609 0.42271 0.45692 0.0
O314 O 0.14233 0.43688 0.27036 0.0
C315 C 0.0842 0.4139 0.3561 0.0
O316 O 0.085 0.43216 0.36869 0.0
N317 N 0.13399 0.47132 0.25607 0.0
C318 C 0.14464 0.51111 0.19556 0.0
C319 C 0.15488 0.50009 0.17041 0.0
C320 C 0.14908 0.48 0.2006 0.0
C321 C 0.12368 0.48166 0.27969 0.0
C322 C 0.12914 0.5017 0.25208 0.0
H323 H 0.156 0.47114 0.17672 0.0
H324 H 0.1109 0.47411 0.3203 0.0
H325 H 0.13251 0.43588 0.12401 0.0
H326 H 0.07212 0.42649 0.06778 0.0
H327 H 0.1552 0.48559 0.53048 0.0
H328 H 0.16649 0.50642 0.12527 0.0
H329 H 0.12086 0.50952 0.27397 0.0
C330 C 0.68267 0.08927 0.33156 0.0
C331 C 0.6844 0.08832 0.25473 0.0
N332 N 0.69223 0.10806 0.22658 0.0
N333 N 0.68955 0.10957 0.35261 0.0
C334 C 0.69548 0.12075 0.28711 0.0
H335 H 0.67538 0.07567 0.36864 0.0
Co336 Co 0.68529 0.11722 0.44948 0.0
C337 C 0.7234 0.15951 0.48758 0.0
O338 O 0.71166 0.16343 0.53405 0.0
N339 N 0.68009 0.12401 0.54793 0.0
C340 C 0.66465 0.12995 0.64625 0.0
C341 C 0.66399 0.12714 0.56938 0.0
C342 C 0.69007 0.12464 0.61353 0.0
N343 N 0.68111 0.12844 0.6743 0.0
O344 O 0.69487 0.09877 0.49257 0.0
H345 H 0.65201 0.12681 0.53232 0.0
H346 H 0.70374 0.12242 0.6163 0.0
O347 O 0.71483 0.1422 0.44885 0.0
C348 C 0.67886 0.08201 0.51905 0.0
O349 O 0.6603 0.08109 0.51946 0.0
N350 N 0.67321 0.13238 0.40536 0.0
C351 C 0.64649 0.14555 0.34108 0.0
C352 C 0.66752 0.1605 0.36099 0.0
C353 C 0.68082 0.15355 0.39225 0.0
C354 C 0.65299 0.11776 0.38488 0.0
C355 C 0.63942 0.12394 0.35283 0.0
H356 H 0.69702 0.16522 0.40513 0.0
H357 H 0.64724 0.10106 0.39518 0.0
H358 H 0.70035 0.13746 0.28311 0.0
H359 H 0.67913 0.074 0.22156 0.0
H360 H 0.65326 0.13208 0.67907 0.0
H361 H 0.67364 0.17734 0.35187 0.0
H362 H 0.62327 0.11186 0.33921 0.0
C363 C 0.59703 0.6725 0.51825 0.0
C364 C 0.60006 0.67412 0.44149 0.0
N365 N 0.59071 0.68463 0.41297 0.0
N366 N 0.58591 0.68204 0.53876 0.0
C367 C 0.58241 0.68947 0.47321 0.0
H368 H 0.60161 0.66376 0.55596 0.0
Co369 Co 0.57469 0.67956 0.63572 0.0
C370 C 0.56901 0.71702 0.66119 0.0
O371 O 0.55217 0.70468 0.70202 0.0
N372 N 0.56332 0.67627 0.73542 0.0
C373 C 0.54238 0.66341 0.83645 0.0
C374 C 0.54384 0.66138 0.76001 0.0
C375 C 0.5734 0.68709 0.79909 0.0
N376 N 0.56098 0.67958 0.86145 0.0
O377 O 0.60291 0.68955 0.67729 0.0
H378 H 0.53136 0.64932 0.72583 0.0
H379 H 0.58964 0.70012 0.79966 0.0
O380 O 0.57938 0.70907 0.62932 0.0
C381 C 0.60359 0.67377 0.70653 0.0
O382 O 0.58578 0.65544 0.71068 0.0
N383 N 0.5473 0.66694 0.59279 0.0
C384 C 0.50701 0.63952 0.53335 0.0
C385 C 0.51514 0.66163 0.53355 0.0
C386 C 0.53551 0.6752 0.56334 0.0
C387 C 0.54013 0.64569 0.5877 0.0
C388 C 0.51998 0.63169 0.55963 0.0
H389 H 0.54171 0.69212 0.56101 0.0
H390 H 0.55006 0.63951 0.608 0.0
H391 H 0.57268 0.69688 0.46895 0.0
H392 H 0.60773 0.66724 0.40868 0.0
H393 H 0.52888 0.65305 0.87131 0.0
H394 H 0.5058 0.66831 0.51157 0.0
H395 H 0.51462 0.61482 0.55813 0.0
C396 C 0.45941 0.26508 0.16375 0.0
C397 C 0.4465 0.27194 0.12867 0.0
C398 C 0.45679 0.24489 0.14968 0.0
C399 C 0.44071 0.23087 0.09941 0.0
C400 C 0.42686 0.23719 0.06653 0.0
C401 C 0.42994 0.2577 0.08138 0.0
C402 C 0.47204 0.23903 0.1859 0.0
C403 C 0.40934 0.22262 0.0134 0.0
C404 C 0.45609 0.19408 1.00071 0.0
C405 C 0.44646 0.1758 0.04634 0.0
C406 C 0.45325 0.21155 0.0147 0.0
C407 C 0.44028 0.21084 0.07567 0.0
C408 C 0.42946 0.19196 0.1193 0.0
C409 C 0.43274 0.17467 0.10436 0.0
C410 C 0.46526 0.2313 0.96687 0.0
C411 C 0.41523 0.19039 0.18405 0.0
H412 H 0.47208 0.27576 0.20129 0.0
H413 H 0.41981 0.26277 0.05427 0.0
H414 H 0.46315 0.2235 0.2152 0.0
H415 H 0.48193 0.23735 0.14159 0.0
H416 H 0.4828 0.25115 0.22737 0.0
H417 H 0.3981 0.22846 1.00138 0.0
H418 H 0.41636 0.22144 0.95917 0.0
H419 H 0.40033 0.20634 0.0374 0.0
H420 H 0.46651 0.19511 0.95501 0.0
H421 H 0.42509 0.1606 0.13963 0.0
H422 H 0.47763 0.24432 1.00179 0.0
H423 H 0.45439 0.23677 0.94593 0.0
H424 H 0.47315 0.22866 0.91757 0.0
H425 H 0.42511 0.20034 0.2318 0.0
H426 H 0.40537 0.17377 0.20439 0.0
H427 H 0.40457 0.19654 0.16699 0.0
C428 C 0.19632 0.45568 0.22651 0.0
C429 C 0.17778 0.44158 0.26556 0.0
C430 C 0.21366 0.45221 0.2218 0.0
C431 C 0.21273 0.43443 0.25883 0.0
C432 C 0.19354 0.41946 0.29486 0.0
C433 C 0.17618 0.42314 0.29736 0.0
C434 C 0.23352 0.4684 0.18128 0.0
C435 C 0.19186 0.4004 0.33542 0.0
C436 C 0.25971 0.42691 0.20944 0.0
C437 C 0.27467 0.44012 0.26327 0.0
C438 C 0.23877 0.42344 0.21032 0.0
C439 C 0.23271 0.43329 0.26674 0.0
C440 C 0.24734 0.44509 0.32493 0.0
C441 C 0.26821 0.44861 0.32178 0.0
C442 C 0.22383 0.41086 0.14698 0.0
C443 C 0.24157 0.45556 0.38711 0.0
H444 H 0.19757 0.46998 0.20209 0.0
H445 H 0.16196 0.4124 0.32861 0.0
H446 H 0.24631 0.47744 0.22314 0.0
H447 H 0.23928 0.46036 0.14235 0.0
H448 H 0.23085 0.47989 0.14825 0.0
H449 H 0.17511 0.38853 0.34933 0.0
H450 H 0.19875 0.39257 0.30082 0.0
H451 H 0.20106 0.40569 0.38887 0.0
H452 H 0.26484 0.4207 0.16324 0.0
H453 H 0.27988 0.45904 0.36286 0.0
H454 H 0.22295 0.422 0.1061 0.0
H455 H 0.20752 0.40029 0.16873 0.0
H456 H 0.22928 0.40107 0.11632 0.0
H457 H 0.24071 0.4693 0.36362 0.0
H458 H 0.25345 0.46141 0.43364 0.0
H459 H 0.22571 0.44428 0.41088 0.0
C460 C 0.75702 0.1783 0.40935 0.0
C461 C 0.74586 0.1766 0.47615 0.0
C462 C 0.77697 0.19651 0.39495 0.0
C463 C 0.78589 0.21335 0.44852 0.0
C464 C 0.77533 0.21089 0.51821 0.0
C465 C 0.75556 0.19263 0.53106 0.0
C466 C 0.78781 0.19832 0.32036 0.0
C467 C 0.78407 0.2283 0.57715 0.0
C468 C 0.84169 0.26234 0.4357 0.0
C469 C 0.83715 0.27736 0.40387 0.0
C470 C 0.82538 0.24108 0.44759 0.0
C471 C 0.80407 0.23479 0.42777 0.0
C472 C 0.79961 0.2498 0.39392 0.0
C473 C 0.8161 0.27072 0.38229 0.0
C474 C 0.83084 0.2255 0.48303 0.0
C475 C 0.77719 0.24402 0.37236 0.0
H476 H 0.74972 0.16597 0.36674 0.0
H477 H 0.74726 0.19133 0.58349 0.0
H478 H 0.7858 0.20949 0.28307 0.0
H479 H 0.80513 0.20484 0.32861 0.0
H480 H 0.78105 0.18272 0.29111 0.0
H481 H 0.77535 0.22295 0.6316 0.0
H482 H 0.80114 0.23399 0.58774 0.0
H483 H 0.7828 0.24205 0.55625 0.0
H484 H 0.85788 0.26722 0.45214 0.0
H485 H 0.81228 0.28202 0.35711 0.0
H486 H 0.82365 0.21047 0.45012 0.0
H487 H 0.82413 0.2215 0.54093 0.0
H488 H 0.8483 0.232 0.48661 0.0
H489 H 0.7701 0.22991 0.33469 0.0
H490 H 0.77653 0.25724 0.34318 0.0
H491 H 0.76714 0.23979 0.42383 0.0
C492 C 0.56176 0.74685 0.68315 0.0
C493 C 0.57405 0.73935 0.6473 0.0
C494 C 0.56456 0.76704 0.66737 0.0
C495 C 0.58025 0.78044 0.6148 0.0
C496 C 0.59346 0.77346 0.5809 0.0
C497 C 0.59013 0.75294 0.59721 0.0
C498 C 0.54992 0.77358 0.70442 0.0
C499 C 0.61059 0.78737 0.52547 0.0
C500 C 0.56555 0.81752 0.51431 0.0
C501 C 0.57599 0.83619 0.55788 0.0
C502 C 0.56775 0.79975 0.52981 0.0
C503 C 0.58096 0.80054 0.59005 0.0
C504 C 0.59256 0.81973 0.63162 0.0
C505 C 0.58986 0.8373 0.61536 0.0
C506 C 0.55488 0.77965 0.48431 0.0
C507 C 0.60711 0.82139 0.69541 0.0
H508 H 0.5494 0.73668 0.72254 0.0
H509 H 0.5998 0.74741 0.5695 0.0
H510 H 0.5593 0.78929 0.73228 0.0
H511 H 0.53983 0.77521 0.66078 0.0
H512 H 0.53936 0.76187 0.74726 0.0
H513 H 0.62135 0.78103 0.51221 0.0
H514 H 0.60318 0.78847 0.47209 0.0
H515 H 0.62019 0.80375 0.54816 0.0
H516 H 0.55497 0.81644 0.46913 0.0
H517 H 0.59812 0.85165 0.64907 0.0
H518 H 0.54272 0.76709 0.52116 0.0
H519 H 0.56524 0.77365 0.46253 0.0
H520 H 0.54664 0.78211 0.43571 0.0
H521 H 0.59746 0.81185 0.74419 0.0
H522 H 0.61737 0.83809 0.7144 0.0
H523 H 0.61737 0.81482 0.67791 0.0
C524 C 0.7534 0.55834 0.82145 0.0
C525 C 0.74557 0.57144 0.79565 0.0
C526 C 0.77455 0.56357 0.80905 0.0
C527 C 0.78861 0.58275 0.77145 0.0
C528 C 0.78139 0.59704 0.75145 0.0
C529 C 0.75987 0.59114 0.76312 0.0
C530 C 0.78132 0.54768 0.83098 0.0
C531 C 0.79606 0.61801 0.71383 0.0
C532 C 0.84578 0.59367 0.77458 0.0
C533 C 0.84694 0.58483 0.7053 0.0
C534 C 0.82751 0.59471 0.79469 0.0
C535 C 0.80974 0.58618 0.74533 0.0
C536 C 0.81125 0.57816 0.67393 0.0
C537 C 0.82986 0.57783 0.65454 0.0
C538 C 0.8269 0.60403 0.87026 0.0
C539 C 0.79264 0.56852 0.61989 0.0
H540 H 0.74263 0.54322 0.8478 0.0
H541 H 0.75407 0.60146 0.74326 0.0
H542 H 0.78481 0.54131 0.77924 0.0
H543 H 0.79609 0.55548 0.8652 0.0
H544 H 0.76889 0.53411 0.86381 0.0
H545 H 0.78956 0.629 0.71593 0.0
H546 H 0.81196 0.62582 0.74107 0.0
H547 H 0.79825 0.61521 0.65369 0.0
H548 H 0.85897 0.59936 0.81388 0.0
H549 H 0.83052 0.57096 0.60087 0.0
H550 H 0.81721 0.591 0.91042 0.0
H551 H 0.81937 0.61406 0.86503 0.0
H552 H 0.84307 0.61378 0.89467 0.0
H553 H 0.77935 0.55396 0.64537 0.0
H554 H 0.79679 0.56418 0.56478 0.0
H555 H 0.78678 0.57978 0.60934 0.0
C556 C 0.267 0.81793 1.0007 0.0
C557 C 0.27605 0.8362 0.95495 0.0
C558 C 0.24726 0.80013 0.98314 0.0
C559 C 0.23599 0.8005 0.91842 0.0
C560 C 0.24438 0.81934 0.8744 0.0
C561 C 0.26437 0.83695 0.89295 0.0
C562 C 0.23913 0.78042 0.03153 0.0
C563 C 0.23271 0.82053 0.80569 0.0
C564 C 0.20285 0.74627 0.82714 0.0
C565 C 0.18249 0.73929 0.85724 0.0
C566 C 0.22008 0.76642 0.84436 0.0
C567 C 0.21702 0.78029 0.89232 0.0
C568 C 0.19634 0.77379 0.92044 0.0
C569 C 0.17934 0.7533 0.90302 0.0
C570 C 0.24183 0.77245 0.81376 0.0
C571 C 0.19233 0.78821 0.97075 0.0
H572 H 0.27568 0.81719 0.04935 0.0
H573 H 0.27112 0.851 0.85747 0.0
H574 H 0.22243 0.77466 0.04872 0.0
H575 H 0.23933 0.76753 0.99837 0.0
H576 H 0.24888 0.78326 0.08326 0.0
H577 H 0.23958 0.83707 0.78433 0.0
H578 H 0.23358 0.81053 0.75992 0.0
H579 H 0.21564 0.81422 0.81883 0.0
H580 H 0.20557 0.73573 0.79137 0.0
H581 H 0.16368 0.74815 0.92622 0.0
H582 H 0.25264 0.77436 0.86122 0.0
H583 H 0.24879 0.78793 0.78385 0.0
H584 H 0.24135 0.76034 0.77413 0.0
H585 H 0.2 0.7898 0.02647 0.0
H586 H 0.17508 0.78204 0.97997 0.0
H587 H 0.19949 0.80438 0.94584 0.0
C588 C 0.44678 0.13521 0.7437 0.0
C589 C 0.45767 0.12504 0.76996 0.0
C590 C 0.44212 0.13504 0.6663 0.0
C591 C 0.44806 0.12401 0.61443 0.0
C592 C 0.45892 0.1136 0.64105 0.0
C593 C 0.46374 0.11441 0.7182 0.0
C594 C 0.43092 0.14669 0.63998 0.0
C595 C 0.46514 0.10125 0.58823 0.0
C596 C 0.41859 0.1019 0.42961 0.0
C597 C 0.43376 0.11499 0.37588 0.0
C598 C 0.42266 0.10522 0.50744 0.0
C599 C 0.44222 0.1224 0.53275 0.0
C600 C 0.45698 0.13663 0.47913 0.0
C601 C 0.45265 0.13269 0.40134 0.0
C602 C 0.40652 0.08953 0.56237 0.0
C603 C 0.47785 0.1554 0.50378 0.0
H604 H 0.44228 0.1436 0.78362 0.0
H605 H 0.47191 0.10632 0.73852 0.0
H606 H 0.44045 0.15834 0.5954 0.0
H607 H 0.41534 0.1353 0.61457 0.0
H608 H 0.4282 0.15527 0.68683 0.0
H609 H 0.47352 0.09407 0.61794 0.0
H610 H 0.45074 0.08833 0.56053 0.0
H611 H 0.47566 0.11183 0.54292 0.0
H612 H 0.40371 0.08853 0.41081 0.0
H613 H 0.46453 0.14293 0.36076 0.0
H614 H 0.40286 0.09799 0.60691 0.0
H615 H 0.41321 0.08054 0.59088 0.0
H616 H 0.39144 0.07798 0.53405 0.0
H617 H 0.47527 0.16418 0.55011 0.0
H618 H 0.48615 0.16658 0.45646 0.0
H619 H 0.48841 0.14967 0.52594 0.0
C620 C 0.3451 0.42394 0.5766 0.0
C621 C 0.33436 0.42954 0.52335 0.0
C622 C 0.34227 0.42517 0.65456 0.0
C623 C 0.32797 0.43172 0.68038 0.0
C624 C 0.31591 0.4359 0.62722 0.0
C625 C 0.31936 0.43493 0.54944 0.0
C626 C 0.35558 0.42072 0.70916 0.0
C627 C 0.30021 0.44255 0.65241 0.0
C628 C 0.31427 0.42572 0.89061 0.0
C629 C 0.32774 0.44646 0.9168 0.0
C630 C 0.31383 0.42065 0.8135 0.0
C631 C 0.32755 0.43662 0.76205 0.0
C632 C 0.34138 0.45749 0.78875 0.0
C633 C 0.34116 0.46217 0.8655 0.0
C634 C 0.29859 0.39833 0.78694 0.0
C635 C 0.35662 0.4749 0.73637 0.0
H636 H 0.35627 0.41917 0.55747 0.0
H637 H 0.31094 0.43934 0.50948 0.0
H638 H 0.36717 0.43573 0.73764 0.0
H639 H 0.34544 0.4095 0.75376 0.0
H640 H 0.36451 0.41396 0.68052 0.0
H641 H 0.28997 0.44226 0.60517 0.0
H642 H 0.2899 0.43197 0.69816 0.0
H643 H 0.30893 0.45895 0.67554 0.0
H644 H 0.30382 0.41362 0.93026 0.0
H645 H 0.35183 0.47812 0.88589 0.0
H646 H 0.3075 0.39125 0.76067 0.0
H647 H 0.28788 0.39871 0.74296 0.0
H648 H 0.28875 0.38785 0.8338 0.0
H649 H 0.36729 0.47007 0.70882 0.0
H650 H 0.36655 0.49021 0.7664 0.0
H651 H 0.34765 0.47755 0.69093 0.0
C652 C 0.88591 0.3192 0.7227 0.0
C653 C 0.90693 0.32865 0.69625 0.0
C654 C 0.88141 0.31693 0.80062 0.0
C655 C 0.89834 0.32451 0.85345 0.0
C656 C 0.91942 0.33277 0.82708 0.0
C657 C 0.92342 0.33455 0.74902 0.0
C658 C 0.85866 0.30768 0.82631 0.0
C659 C 0.93798 0.34115 0.88119 0.0
C660 C 0.89116 0.34742 0.03672 0.0
C661 C 0.8877 0.33159 0.08946 0.0
C662 C 0.89464 0.34523 0.96016 0.0
C663 C 0.8944 0.32658 0.93502 0.0
C664 C 0.89089 0.31046 0.98791 0.0
C665 C 0.88779 0.31325 0.06482 0.0
C666 C 0.89874 0.36304 0.90624 0.0
C667 C 0.89021 0.29022 0.9631 0.0
H668 H 0.873 0.31458 0.68289 0.0
H669 H 0.93965 0.34133 0.72935 0.0
H670 H 0.85509 0.29618 0.87302 0.0
H671 H 0.85617 0.32061 0.84821 0.0
H672 H 0.84719 0.29952 0.77955 0.0
H673 H 0.95304 0.34485 0.85233 0.0
H674 H 0.94017 0.35591 0.90835 0.0
H675 H 0.93486 0.32947 0.92681 0.0
H676 H 0.89147 0.36177 0.05577 0.0
H677 H 0.88499 0.30095 0.10545 0.0
H678 H 0.88647 0.35705 0.86116 0.0
H679 H 0.9144 0.369 0.87837 0.0
H680 H 0.89862 0.37659 0.93506 0.0
H681 H 0.87756 0.28201 0.92003 0.0
H682 H 0.88713 0.27915 0.01099 0.0
H683 H 0.9055 0.29397 0.9362 0.0
C684 C 0.60477 0.9101 0.94 0.0
C685 C 0.58947 0.89714 0.88634 0.0
C686 C 0.60077 0.90679 0.01782 0.0
C687 C 0.58111 0.88977 0.04317 0.0
C688 C 0.56622 0.87565 0.98958 0.0
C689 C 0.5705 0.87957 0.91179 0.0
C690 C 0.61706 0.92236 0.07272 0.0
C691 C 0.54524 0.85706 0.01428 0.0
C692 C 0.57647 0.8771 0.25415 0.0
C693 C 0.56583 0.88753 0.28031 0.0
C694 C 0.58107 0.87713 0.17676 0.0
C695 C 0.57532 0.8883 0.12483 0.0
C696 C 0.56473 0.89899 0.15138 0.0
C697 C 0.55995 0.89829 0.22851 0.0
C698 C 0.59198 0.86519 0.1505 0.0
C699 C 0.55873 0.91149 0.09849 0.0
H700 H 0.61971 0.92337 0.92111 0.0
H701 H 0.55853 0.86944 0.87121 0.0
H702 H 0.6106 0.93158 0.10115 0.0
H703 H 0.62054 0.9138 0.11732 0.0
H704 H 0.6322 0.93372 0.04437 0.0
H705 H 0.53684 0.84588 0.96699 0.0
H706 H 0.54769 0.84821 0.06067 0.0
H707 H 0.53484 0.86298 0.03638 0.0
H708 H 0.58082 0.8686 0.29413 0.0
H709 H 0.55196 0.90658 0.24879 0.0
H710 H 0.6076 0.8764 0.12495 0.0
H711 H 0.58231 0.85356 0.10604 0.0
H712 H 0.59458 0.85657 0.19742 0.0
H713 H 0.5732 0.92425 0.0707 0.0
H714 H 0.55054 0.91889 0.12817 0.0
H715 H 0.5481 0.90096 0.05325 0.0
C716 C 0.6995 0.5881 0.0669 0.0
C717 C 0.67863 0.57688 0.03878 0.0
C718 C 0.70375 0.58781 0.14446 0.0
C719 C 0.68673 0.57604 0.19521 0.0
C720 C 0.66562 0.56512 0.1675 0.0
C721 C 0.66186 0.56562 0.08997 0.0
C722 C 0.72647 0.5997 0.17186 0.0
C723 C 0.64699 0.55231 0.21948 0.0
C724 C 0.6958 0.55404 0.37762 0.0
C725 C 0.69535 0.56786 0.43225 0.0
C726 C 0.69364 0.55691 0.30032 0.0
C727 C 0.69088 0.57402 0.27659 0.0
C728 C 0.69074 0.58826 0.33113 0.0
C729 C 0.69297 0.58501 0.40824 0.0
C730 C 0.69375 0.54127 0.24416 0.0
C731 C 0.68785 0.60669 0.30815 0.0
H732 H 0.71255 0.59702 0.02824 0.0
H733 H 0.6457 0.55654 0.06938 0.0
H734 H 0.72813 0.61064 0.21853 0.0
H735 H 0.73099 0.58826 0.19474 0.0
H736 H 0.73779 0.60906 0.12612 0.0
H737 H 0.63147 0.54572 0.18982 0.0
H738 H 0.64826 0.53891 0.24402 0.0
H739 H 0.64717 0.56234 0.26716 0.0
H740 H 0.69732 0.54057 0.39531 0.0
H741 H 0.69292 0.59597 0.44971 0.0
H742 H 0.70581 0.54983 0.19961 0.0
H743 H 0.67804 0.53251 0.21583 0.0
H744 H 0.69722 0.52952 0.27128 0.0
H745 H 0.6999 0.61657 0.2652 0.0
H746 H 0.6892 0.61696 0.35691 0.0
H747 H 0.67197 0.60062 0.28183 0.0
C748 C 0.13719 0.69372 0.19576 0.0
C749 C 0.11802 0.69176 0.16953 0.0
C750 C 0.14147 0.69447 0.27367 0.0
C751 C 0.12615 0.69298 0.32672 0.0
C752 C 0.10738 0.69229 0.30058 0.0
C753 C 0.10366 0.69188 0.22256 0.0
C754 C 0.16186 0.69557 0.29913 0.0
C755 C 0.09053 0.69055 0.35492 0.0
C756 C 0.12233 0.66482 0.51182 0.0
C757 C 0.13147 0.6817 0.56356 0.0
C758 C 0.12055 0.66835 0.43497 0.0
C759 C 0.12838 0.68939 0.40852 0.0
C760 C 0.13771 0.70658 0.46042 0.0
C761 C 0.13894 0.7025 0.53763 0.0
C762 C 0.11008 0.64948 0.38217 0.0
C763 C 0.14653 0.72924 0.43425 0.0
H764 H 0.14842 0.69361 0.15576 0.0
H765 H 0.08907 0.69096 0.20311 0.0
H766 H 0.1694 0.70744 0.34513 0.0
H767 H 0.15829 0.67989 0.32197 0.0
H768 H 0.17342 0.69982 0.25206 0.0
H769 H 0.07787 0.69227 0.32608 0.0
H770 H 0.08305 0.67479 0.38317 0.0
H771 H 0.0977 0.70284 0.39971 0.0
H772 H 0.11622 0.64869 0.53189 0.0
H773 H 0.14613 0.71557 0.57754 0.0
H774 H 0.12135 0.65102 0.33697 0.0
H775 H 0.09614 0.64901 0.35436 0.0
H776 H 0.10466 0.63414 0.41192 0.0
H777 H 0.15894 0.73311 0.39068 0.0
H778 H 0.15357 0.74084 0.4814 0.0
H779 H 0.13377 0.73119 0.40757 0.0
C780 C 0.87855 0.57913 0.13731 0.0
C781 C 0.89258 0.57932 0.082 0.0
C782 C 0.88324 0.58014 0.21477 0.0
C783 C 0.9027 0.58189 0.23821 0.0
C784 C 0.91751 0.58337 0.18302 0.0
C785 C 0.91223 0.58189 0.10584 0.0
C786 C 0.86687 0.57829 0.27162 0.0
C787 C 0.93861 0.58561 0.20556 0.0
C788 C 0.91824 0.59532 0.4459 0.0
C789 C 0.91185 0.57514 0.47601 0.0
C790 C 0.9159 0.59794 0.36817 0.0
C791 C 0.90648 0.57988 0.32004 0.0
C792 C 0.89993 0.55949 0.35054 0.0
C793 C 0.90283 0.55741 0.42775 0.0
C794 C 0.92343 0.61998 0.33756 0.0
C795 C 0.88941 0.53973 0.30191 0.0
H796 H 0.8636 0.57778 0.12054 0.0
H797 H 0.92335 0.58211 0.0647 0.0
H798 H 0.86082 0.56321 0.30363 0.0
H799 H 0.87416 0.5915 0.31312 0.0
H800 H 0.85315 0.57848 0.24446 0.0
H801 H 0.94946 0.58934 0.15649 0.0
H802 H 0.94656 0.59834 0.24857 0.0
H803 H 0.93595 0.57055 0.23141 0.0
H804 H 0.92525 0.60902 0.48307 0.0
H805 H 0.89744 0.54172 0.45098 0.0
H806 H 0.90976 0.62098 0.31425 0.0
H807 H 0.93479 0.62337 0.29048 0.0
H808 H 0.9313 0.63246 0.38155 0.0
H809 H 0.87464 0.53801 0.27654 0.0
H810 H 0.88528 0.52506 0.33437 0.0
H811 H 0.90009 0.5411 0.25475 0.0
C812 C 0.32532 0.87956 0.60407 0.0
C813 C 0.32388 0.89713 0.62968 0.0
C814 C 0.32567 0.87564 0.52626 0.0
C815 C 0.32484 0.88976 0.47278 0.0
C816 C 0.32217 0.90677 0.49828 0.0
C817 C 0.32149 0.91009 0.57614 0.0
C818 C 0.32809 0.85705 0.5014 0.0
C819 C 0.32137 0.92233 0.4435 0.0
C820 C 0.35438 0.89814 0.28729 0.0
C821 C 0.33774 0.88732 0.23562 0.0
C822 C 0.35035 0.89892 0.36442 0.0
C823 C 0.3291 0.88826 0.39109 0.0
C824 C 0.31219 0.87705 0.33926 0.0
C825 C 0.3167 0.87694 0.26187 0.0
C826 C 0.36885 0.91148 0.4172 0.0
C827 C 0.28938 0.86513 0.36564 0.0
H828 H 0.3272 0.86943 0.64455 0.0
H829 H 0.31979 0.92335 0.59514 0.0
H830 H 0.31677 0.84818 0.45511 0.0
H831 H 0.34439 0.86299 0.47912 0.0
H832 H 0.32541 0.8459 0.54865 0.0
H833 H 0.31756 0.93368 0.47196 0.0
H834 H 0.33701 0.93155 0.41501 0.0
H835 H 0.30932 0.91375 0.39893 0.0
H836 H 0.37063 0.90639 0.26691 0.0
H837 H 0.30386 0.8684 0.22196 0.0
H838 H 0.36902 0.90098 0.46241 0.0
H839 H 0.3671 0.92424 0.44502 0.0
H840 H 0.3844 0.91889 0.38741 0.0
H841 H 0.28746 0.8535 0.41004 0.0
H842 H 0.27814 0.8565 0.31877 0.0
H843 H 0.28498 0.87636 0.39131 0.0
C844 C 0.43224 0.30673 0.4609 0.0
C845 C 0.4493 0.32613 0.43611 0.0
C846 C 0.42641 0.30343 0.53785 0.0
C847 C 0.43766 0.32008 0.59068 0.0
C848 C 0.45469 0.33976 0.56542 0.0
C849 C 0.46034 0.34247 0.48881 0.0
C850 C 0.40838 0.28213 0.56276 0.0
C851 C 0.46688 0.35811 0.61925 0.0
C852 C 0.41426 0.32484 0.77649 0.0
C853 C 0.42615 0.32068 0.82945 0.0
C854 C 0.41691 0.3235 0.69845 0.0
C855 C 0.43157 0.31745 0.67226 0.0
C856 C 0.44241 0.31162 0.72526 0.0
C857 C 0.43967 0.31341 0.80316 0.0
C858 C 0.40509 0.32998 0.64417 0.0
C859 C 0.45793 0.30476 0.69978 0.0
H860 H 0.42378 0.29405 0.42033 0.0
H861 H 0.47328 0.35761 0.4697 0.0
H862 H 0.41415 0.27513 0.60607 0.0
H863 H 0.39566 0.28414 0.58941 0.0
H864 H 0.40141 0.27075 0.51498 0.0
H865 H 0.47959 0.37242 0.59039 0.0
H866 H 0.45586 0.36246 0.64697 0.0
H867 H 0.47428 0.35337 0.66444 0.0
H868 H 0.40335 0.32993 0.79601 0.0
H869 H 0.44899 0.31016 0.84311 0.0
H870 H 0.39753 0.31797 0.59867 0.0
H871 H 0.4165 0.34526 0.61687 0.0
H872 H 0.39263 0.33204 0.67291 0.0
H873 H 0.45106 0.29301 0.65313 0.0
H874 H 0.46251 0.29765 0.74665 0.0
H875 H 0.47255 0.31875 0.67786 0.0
C876 C 0.11373 0.42644 0.62106 0.0
C877 C 0.13244 0.44463 0.59735 0.0
C878 C 0.10945 0.42158 0.69837 0.0
C879 C 0.12406 0.43535 0.75334 0.0
C880 C 0.1435 0.453 0.72959 0.0
C881 C 0.14752 0.45727 0.65212 0.0
C882 C 0.08872 0.40236 0.72126 0.0
C883 C 0.1595 0.46822 0.786 0.0
C884 C 0.10204 0.44134 0.94075 0.0
C885 C 0.10829 0.43049 0.99078 0.0
C886 C 0.10695 0.44284 0.86353 0.0
C887 C 0.11807 0.4329 0.83499 0.0
C888 C 0.12415 0.42161 0.88504 0.0
C889 C 0.11942 0.42077 0.96266 0.0
C890 C 0.1006 0.45549 0.81278 0.0
C891 C 0.13564 0.41044 0.85658 0.0
H892 H 0.10193 0.41655 0.5796 0.0
H893 H 0.16227 0.47102 0.63455 0.0
H894 H 0.09144 0.39325 0.76595 0.0
H895 H 0.07793 0.4076 0.74499 0.0
H896 H 0.0806 0.39161 0.67266 0.0
H897 H 0.17459 0.4801 0.75864 0.0
H898 H 0.15267 0.47686 0.81614 0.0
H899 H 0.16317 0.45942 0.82908 0.0
H900 H 0.09374 0.44915 0.96256 0.0
H901 H 0.12413 0.41228 1.0013 0.0
H902 H 0.09027 0.44527 0.76636 0.0
H903 H 0.11497 0.4688 0.78644 0.0
H904 H 0.09197 0.4622 0.84384 0.0
H905 H 0.12634 0.39924 0.81053 0.0
H906 H 0.13832 0.40147 0.902 0.0
H907 H 0.15125 0.42222 0.83246 0.0
C908 C 0.69764 0.11902 0.77904 0.0
C909 C 0.68665 0.12918 0.75327 0.0
C910 C 0.70117 0.11786 0.85662 0.0
C911 C 0.69331 0.12684 0.90991 0.0
C912 C 0.68313 0.13798 0.88417 0.0
C913 C 0.6801 0.13916 0.80636 0.0
C914 C 0.71233 0.10606 0.88171 0.0
C915 C 0.67437 0.14766 0.93896 0.0
C916 C 0.67615 0.09929 0.10001 0.0
C917 C 0.69265 0.11328 0.14782 0.0
C918 C 0.6762 0.10363 0.02287 0.0
C919 C 0.69336 0.12236 0.99215 0.0
C920 C 0.71011 0.13664 0.04012 0.0
C921 C 0.70943 0.13203 0.11779 0.0
C922 C 0.65778 0.08818 0.97433 0.0
C923 C 0.7288 0.15661 0.00922 0.0
H924 H 0.70276 0.1112 0.739 0.0
H925 H 0.67212 0.14754 0.78728 0.0
H926 H 0.72467 0.11545 0.92456 0.0
H927 H 0.70068 0.09081 0.90856 0.0
H928 H 0.71994 0.1025 0.83371 0.0
H929 H 0.66865 0.15746 0.90996 0.0
H930 H 0.66087 0.1348 0.97062 0.0
H931 H 0.68664 0.15775 0.98096 0.0
H932 H 0.66295 0.08499 0.12342 0.0
H933 H 0.72221 0.14279 0.15481 0.0
H934 H 0.66359 0.08193 0.92852 0.0
H935 H 0.65014 0.09645 0.94713 0.0
H936 H 0.64553 0.07451 1.00729 0.0
H937 H 0.73691 0.1524 0.96497 0.0
H938 H 0.74054 0.16604 0.05385 0.0
H939 H 0.72324 0.16674 0.98209 0.0
C940 C 0.5832 0.67003 0.2839 0.0
C941 C 0.58723 0.68664 0.33387 0.0
C942 C 0.57977 0.67144 0.20669 0.0
C943 C 0.58067 0.6901 0.17803 0.0
C944 C 0.58488 0.70705 0.22804 0.0
C945 C 0.58788 0.70502 0.30569 0.0
C946 C 0.57485 0.65276 0.15597 0.0
C947 C 0.5863 0.72732 0.19945 0.0
C948 C 0.58774 0.69452 0.96447 0.0
C949 C 0.5666 0.68554 0.93975 0.0
C950 C 0.5928 0.69752 0.04199 0.0
C951 C 0.57633 0.69118 0.09612 0.0
C952 C 0.55516 0.68331 0.07129 0.0
C953 C 0.55061 0.68079 0.99363 0.0
C954 C 0.61564 0.70632 0.06604 0.0
C955 C 0.53705 0.67621 0.1268 0.0
H956 H 0.5823 0.65565 0.30567 0.0
H957 H 0.5911 0.7179 0.34424 0.0
H958 H 0.55907 0.64682 0.129 0.0
H959 H 0.5868 0.65781 0.11003 0.0
H960 H 0.57473 0.63942 0.1872 0.0
H961 H 0.59032 0.73925 0.24512 0.0
H962 H 0.59858 0.73439 0.15457 0.0
H963 H 0.57095 0.72381 0.17373 0.0
H964 H 0.60024 0.69825 0.92367 0.0
H965 H 0.53432 0.67442 0.97523 0.0
H966 H 0.61767 0.69335 0.0904 0.0
H967 H 0.61997 0.71859 0.11055 0.0
H968 H 0.62684 0.71342 0.01789 0.0
H969 H 0.5347 0.66178 0.15697 0.0
H970 H 0.52187 0.67241 0.09861 0.0
H971 H 0.5408 0.68868 0.16996 0.0
C972 C 0.53846 0.14033 0.27455 0.0
C973 C 0.53641 0.15169 0.21412 0.0
C974 C 0.55838 0.14328 0.29583 0.0
C975 C 0.57683 0.15807 0.25602 0.0
C976 C 0.57508 0.17075 0.19867 0.0
C977 C 0.55485 0.1674 0.17828 0.0
C978 C 0.55945 0.1295 0.35773 0.0
C979 C 0.59436 0.1869 0.15558 0.0
C980 C 0.62843 0.16746 0.34693 0.0
C981 C 0.63139 0.15195 0.31047 0.0
C982 C 0.61148 0.17071 0.32666 0.0
C983 C 0.59722 0.15814 0.26871 0.0
C984 C 0.60112 0.14357 0.22829 0.0
C985 C 0.61814 0.14068 0.24959 0.0
C986 C 0.60806 0.1866 0.3705 0.0
C987 C 0.58649 0.12994 0.16568 0.0
H988 H 0.5243 0.12844 0.30337 0.0
H989 H 0.55339 0.17621 0.13146 0.0
H990 H 0.56396 0.11823 0.33308 0.0
H991 H 0.57182 0.13942 0.39973 0.0
H992 H 0.54402 0.12018 0.38758 0.0
H993 H 0.59098 0.19787 0.12238 0.0
H994 H 0.60779 0.1964 0.19465 0.0
H995 H 0.59956 0.17853 0.11595 0.0
H996 H 0.63859 0.17618 0.39413 0.0
H997 H 0.62059 0.12893 0.22039 0.0
H998 H 0.59445 0.17801 0.40969 0.0
H999 H 0.60409 0.19616 0.33188 0.0
H1000 H 0.6223 0.19754 0.40427 0.0
H1001 H 0.57073 0.11848 0.18974 0.0
H1002 H 0.59281 0.12084 0.13537 0.0
H1003 H 0.58398 0.13993 0.12418 0.0
C1004 C 0.39206 0.54887 0.37532 0.0
C1005 C 0.39655 0.53409 0.34092 0.0
C1006 C 0.40841 0.56784 0.40721 0.0
C1007 C 0.42971 0.57209 0.40473 0.0
C1008 C 0.4343 0.55731 0.36958 0.0
C1009 C 0.41773 0.53853 0.33866 0.0
C1010 C 0.40288 0.58318 0.4444 0.0
C1011 C 0.45674 0.56109 0.36596 0.0
C1012 C 0.47887 0.62651 0.43248 0.0
C1013 C 0.48536 0.62428 0.50488 0.0
C1014 C 0.45996 0.61015 0.40054 0.0
C1015 C 0.44725 0.59127 0.44232 0.0
C1016 C 0.45303 0.5897 0.51748 0.0
C1017 C 0.47203 0.60617 0.54765 0.0
C1018 C 0.45438 0.61247 0.32029 0.0
C1019 C 0.43991 0.57 0.56441 0.0
H1020 H 0.37579 0.54566 0.37701 0.0
H1021 H 0.42138 0.52704 0.31401 0.0
H1022 H 0.40695 0.58464 0.50537 0.0
H1023 H 0.41239 0.59924 0.41914 0.0
H1024 H 0.38573 0.57804 0.43875 0.0
H1025 H 0.45778 0.54851 0.33352 0.0
H1026 H 0.46743 0.57669 0.33923 0.0
H1027 H 0.46277 0.56157 0.42399 0.0
H1028 H 0.48918 0.64046 0.39919 0.0
H1029 H 0.47689 0.60455 0.60406 0.0
H1030 H 0.43729 0.60756 0.31569 0.0
H1031 H 0.45724 0.60188 0.28281 0.0
H1032 H 0.46404 0.62906 0.29942 0.0
H1033 H 0.42284 0.56528 0.56212 0.0
H1034 H 0.44507 0.57234 0.62447 0.0
H1035 H 0.44143 0.55661 0.54112 0.0
C1036 C 0.8476 0.38682 0.58798 0.0
C1037 C 0.86665 0.39359 0.54742 0.0
C1038 C 0.84354 0.40141 0.62681 0.0
C1039 C 0.85822 0.42349 0.62161 0.0
C1040 C 0.87716 0.43051 0.57971 0.0
C1041 C 0.88145 0.41558 0.54583 0.0
C1042 C 0.82369 0.39317 0.67432 0.0
C1043 C 0.8931 0.45393 0.57073 0.0
C1044 C 0.84299 0.46594 0.65644 0.0
C1045 C 0.85527 0.47644 0.72081 0.0
C1046 C 0.84305 0.44816 0.62489 0.0
C1047 C 0.85443 0.43952 0.66114 0.0
C1048 C 0.86469 0.4483 0.73065 0.0
C1049 C 0.86552 0.46686 0.75836 0.0
C1050 C 0.83241 0.43978 0.54937 0.0
C1051 C 0.87604 0.4389 0.77368 0.0
H1052 H 0.83573 0.37011 0.58983 0.0
H1053 H 0.89671 0.42146 0.51874 0.0
H1054 H 0.82786 0.39997 0.73215 0.0
H1055 H 0.81287 0.39822 0.64965 0.0
H1056 H 0.81495 0.37553 0.67861 0.0
H1057 H 0.90569 0.45685 0.5289 0.0
H1058 H 0.88497 0.4627 0.55231 0.0
H1059 H 0.90085 0.46071 0.62575 0.0
H1060 H 0.83392 0.47199 0.62804 0.0
H1061 H 0.87521 0.47419 0.8077 0.0
H1062 H 0.8223 0.42223 0.55059 0.0
H1063 H 0.84479 0.44372 0.50559 0.0
H1064 H 0.82247 0.44675 0.53203 0.0
H1065 H 0.86671 0.42125 0.77268 0.0
H1066 H 0.87895 0.44431 0.83347 0.0
H1067 H 0.89164 0.44386 0.7468 0.0
C1068 C 0.39304 0.84465 0.83774 0.0
C1069 C 0.39033 0.85998 0.79874 0.0
C1070 C 0.41009 0.84129 0.82052 0.0
C1071 C 0.42477 0.85361 0.7633 0.0
C1072 C 0.42114 0.86795 0.72022 0.0
C1073 C 0.40395 0.87089 0.73828 0.0
C1074 C 0.41316 0.82557 0.86687 0.0
C1075 C 0.43625 0.88134 0.65836 0.0
C1076 C 0.48348 0.87177 0.77734 0.0
C1077 C 0.48616 0.86037 0.7184 0.0
C1078 C 0.46334 0.86873 0.79555 0.0
C1079 C 0.4453 0.85376 0.75425 0.0
C1080 C 0.44764 0.84099 0.6987 0.0
C1081 C 0.46809 0.84449 0.68124 0.0
C1082 C 0.46163 0.88262 0.85559 0.0
C1083 C 0.42879 0.82461 0.65434 0.0
H1084 H 0.3826 0.83618 0.8846 0.0
H1085 H 0.40168 0.88245 0.70697 0.0
H1086 H 0.41763 0.816 0.83022 0.0
H1087 H 0.42633 0.83431 0.90768 0.0
H1088 H 0.3986 0.81464 0.89909 0.0
H1089 H 0.43017 0.89031 0.62588 0.0
H1090 H 0.45182 0.89291 0.68355 0.0
H1091 H 0.43909 0.8712 0.61857 0.0
H1092 H 0.49734 0.88377 0.8073 0.0
H1093 H 0.47003 0.83563 0.63557 0.0
H1094 H 0.44896 0.87276 0.89672 0.0
H1095 H 0.45718 0.8937 0.8289 0.0
H1096 H 0.47679 0.89215 0.88684 0.0
H1097 H 0.41502 0.81524 0.69217 0.0
H1098 H 0.43253 0.81353 0.62347 0.0
H1099 H 0.42392 0.83276 0.61249 0.0
C1100 C 0.53465 0.40895 0.96479 0.0
C1101 C 0.52928 0.38749 0.97138 0.0
C1102 C 0.55381 0.42421 0.93184 0.0
C1103 C 0.56746 0.41782 0.89852 0.0
C1104 C 0.56169 0.39606 0.90035 0.0
C1105 C 0.54306 0.38131 0.9386 0.0
C1106 C 0.55959 0.44734 0.93429 0.0
C1107 C 0.57515 0.38811 0.86325 0.0
C1108 C 0.60543 0.46152 0.76693 0.0
C1109 C 0.62404 0.47196 0.8111 0.0
C1110 C 0.58765 0.4425 0.79126 0.0
C1111 C 0.5878 0.4343 0.8636 0.0
C1112 C 0.60679 0.44385 0.90646 0.0
C1113 C 0.62482 0.46204 0.87856 0.0
C1114 C 0.5683 0.43174 0.74083 0.0
C1115 C 0.60773 0.43562 0.9839 0.0
H1116 H 0.52399 0.41416 0.98559 0.0
H1117 H 0.53957 0.365 0.94305 0.0
H1118 H 0.57595 0.45728 0.9568 0.0
H1119 H 0.55931 0.45304 0.87644 0.0
H1120 H 0.5485 0.44993 0.97004 0.0
H1121 H 0.56501 0.37173 0.84097 0.0
H1122 H 0.5849 0.39852 0.81619 0.0
H1123 H 0.58596 0.38739 0.906 0.0
H1124 H 0.60412 0.46848 0.71462 0.0
H1125 H 0.63928 0.46887 0.91168 0.0
H1126 H 0.55605 0.43549 0.76071 0.0
H1127 H 0.56126 0.41419 0.74279 0.0
H1128 H 0.57222 0.4371 0.68122 0.0
H1129 H 0.59523 0.43538 0.02076 0.0
H1130 H 0.62342 0.44544 0.01165 0.0
H1131 H 0.6046 0.41906 0.97941 0.0
C1132 C 0.16949 0.5474 0.14023 0.0
C1133 C 0.14884 0.53158 0.1605 0.0
C1134 C 0.1733 0.56686 0.1088 0.0
C1135 C 0.1561 0.57062 0.09788 0.0
C1136 C 0.13527 0.55467 0.11785 0.0
C1137 C 0.13189 0.53537 0.14801 0.0
C1138 C 0.19568 0.58337 0.08722 0.0
C1139 C 0.11641 0.55792 0.10709 0.0
C1140 C 0.16094 0.62506 0.07894 0.0
C1141 C 0.15609 0.62501 1.00232 0.0
C1142 C 0.1625 0.60806 0.1103 0.0
C1143 C 0.15938 0.59083 0.06354 0.0
C1144 C 0.15619 0.59167 0.98493 0.0
C1145 C 0.15437 0.60865 0.95545 0.0
C1146 C 0.16577 0.60774 0.19441 0.0
C1147 C 0.15308 0.57386 0.93275 0.0
H1148 H 0.1827 0.5447 0.14987 0.0
H1149 H 0.1158 0.5231 0.1613 0.0
H1150 H 0.19634 0.5872 0.02623 0.0
H1151 H 0.2006 0.5983 0.11902 0.0
H1152 H 0.2073 0.57796 0.09869 0.0
H1153 H 0.10136 0.54426 0.1282 0.0
H1154 H 0.11915 0.5725 0.13721 0.0
H1155 H 0.11442 0.56019 0.04624 0.0
H1156 H 0.16209 0.63765 0.11521 0.0
H1157 H 0.15067 0.60869 0.89607 0.0
H1158 H 0.17782 0.603 0.20673 0.0
H1159 H 0.15063 0.59577 0.2211 0.0
H1160 H 0.1709 0.62346 0.22094 0.0
H1161 H 0.16517 0.56909 0.94404 0.0
H1162 H 0.15407 0.5784 0.8723 0.0
H1163 H 0.13721 0.55974 0.94296 0.0
C1164 C 0.38104 0.05452 0.03589 0.0
C1165 C 0.39905 0.06129 0.99004 0.0
C1166 C 0.36501 0.03288 0.03758 0.0
C1167 C 0.36732 0.01784 0.99321 0.0
C1168 C 0.38424 0.02522 0.94045 0.0
C1169 C 0.39979 0.04682 0.93943 0.0
C1170 C 0.34673 0.02594 0.09194 0.0
C1171 C 0.38741 0.01 0.89114 0.0
C1172 C 0.35812 0.96521 0.06659 0.0
C1173 C 0.34305 0.95097 0.01514 0.0
C1174 C 0.3645 0.98691 0.0656 0.0
C1175 C 0.35547 0.99462 0.01197 0.0
C1176 C 0.33822 0.97984 0.96674 0.0
C1177 C 0.33226 0.95809 0.96844 0.0
C1178 C 0.38276 1.00184 0.11583 0.0
C1179 C 0.3274 0.98716 0.91145 0.0
H1180 H 0.38034 0.06564 0.07516 0.0
H1181 H 0.41359 0.05208 0.90324 0.0
H1182 H 0.33212 0.01189 0.07017 0.0
H1183 H 0.35091 0.02149 0.14664 0.0
H1184 H 0.34332 0.03903 0.10289 0.0
H1185 H 0.40008 0.01843 0.84827 0.0
H1186 H 0.3919 1.0003 0.92695 0.0
H1187 H 0.37245 0.99894 0.86141 0.0
H1188 H 0.36632 0.95968 0.10337 0.0
H1189 H 0.32057 0.94715 0.9285 0.0
H1190 H 0.37904 0.01314 0.14479 0.0
H1191 H 0.39717 0.0113 0.08082 0.0
H1192 H 0.38653 0.99318 0.15937 0.0
H1193 H 0.32697 1.00132 0.93299 0.0
H1194 H 0.31089 0.97429 0.89948 0.0
H1195 H 0.33631 0.99158 0.85734 0.0
C1196 C 0.37782 0.32665 0.15604 0.0
C1197 C 0.39475 0.33651 0.20736 0.0
C1198 C 0.36254 0.33324 0.15048 0.0
C1199 C 0.36459 0.35025 0.19626 0.0
C1200 C 0.38018 0.3583 0.25413 0.0
C1201 C 0.39494 0.35123 0.25913 0.0
C1202 C 0.3455 0.32338 0.0908 0.0
C1203 C 0.38302 0.37628 0.30496 0.0
C1204 C 0.35939 0.39564 0.11608 0.0
C1205 C 0.34312 0.39504 0.16064 0.0
C1206 C 0.36527 0.38001 0.12245 0.0
C1207 C 0.35436 0.36298 0.17393 0.0
C1208 C 0.33628 0.36093 0.21263 0.0
C1209 C 0.33096 0.37714 0.20612 0.0
C1210 C 0.38461 0.38303 0.07953 0.0
C1211 C 0.32352 0.34255 0.26526 0.0
H1212 H 0.37755 0.31523 0.11584 0.0
H1213 H 0.40787 0.3587 0.29952 0.0
H1214 H 0.33065 0.3229 0.10942 0.0
H1215 H 0.35105 0.33303 0.03843 0.0
H1216 H 0.34191 0.30698 0.07686 0.0
H1217 H 0.39438 0.37923 0.35175 0.0
H1218 H 0.38912 0.39111 0.27126 0.0
H1219 H 0.36758 0.3728 0.32973 0.0
H1220 H 0.36862 0.40924 0.07975 0.0
H1221 H 0.31828 0.37649 0.24054 0.0
H1222 H 0.38097 0.36828 0.04873 0.0
H1223 H 0.39768 0.38653 0.11989 0.0
H1224 H 0.39041 0.39628 0.03813 0.0
H1225 H 0.32333 0.32789 0.24589 0.0
H1226 H 0.30688 0.33927 0.27007 0.0
H1227 H 0.33072 0.34655 0.32248 0.0
C1228 C 0.04889 0.3944 0.41725 0.0
C1229 C 0.06332 0.39421 0.36501 0.0
C1230 C 0.02702 0.37999 0.41169 0.0
C1231 C 0.01929 0.36469 0.35285 0.0
C1232 C 0.03407 0.36263 0.30608 0.0
C1233 C 0.05599 0.37759 0.31219 0.0
C1234 C 0.01208 0.38285 0.46352 0.0
C1235 C 0.02667 0.34587 0.24524 0.0
C1236 C 0.95889 0.33133 0.36563 0.0
C1237 C 0.95304 0.34374 0.32195 0.0
C1238 C 0.98039 0.33646 0.37024 0.0
C1239 C 0.99628 0.3546 0.33152 0.0
C1240 C 0.99 0.36574 0.28158 0.0
C1241 C 0.96852 0.36004 0.27702 0.0
C1242 C 0.98616 0.32345 0.42115 0.0
C1243 C 1.00617 0.38514 0.23871 0.0
H1244 H 0.05454 0.40705 0.45892 0.0
H1245 H 0.06704 0.37728 0.27166 0.0
H1246 H 1.00335 0.38911 0.43065 0.0
H1247 H 1.00014 0.36739 0.48808 0.0
H1248 H 0.02063 0.3941 0.51049 0.0
H1249 H 0.0393 0.34209 0.23045 0.0
H1250 H 0.01219 0.33105 0.26312 0.0
H1251 H 0.02271 0.35182 0.19352 0.0
H1252 H 0.94703 0.31864 0.40035 0.0
H1253 H 0.96405 0.36947 0.24212 0.0
H1254 H 0.98988 0.33062 0.47845 0.0
H1255 H 1.00034 0.32306 0.39984 0.0
H1256 H 0.97271 0.30689 0.42646 0.0
H1257 H 0.01588 0.39812 0.2792 0.0
H1258 H 0.9986 0.39105 0.19823 0.0
H1259 H 0.01715 0.38153 0.20689 0.0
C1260 C 0.62331 0.96609 0.4529 0.0
C1261 C 0.62411 0.95155 0.50298 0.0
C1262 C 0.63859 0.98778 0.45527 0.0
C1263 C 0.65533 0.99519 0.50884 0.0
C1264 C 0.65775 0.98016 0.55278 0.0
C1265 C 0.64198 0.95843 0.54975 0.0
C1266 C 0.6353 1.00298 0.40643 0.0
C1267 C 0.67584 0.98716 0.60803 0.0
C1268 C 0.69004 0.05515 0.48755 0.0
C1269 C 0.67899 0.06197 0.53432 0.0
C1270 C 0.68423 0.03344 0.48459 0.0
C1271 C 0.66686 0.01838 0.52865 0.0
C1272 C 0.65751 0.02575 0.58233 0.0
C1273 C 0.66377 0.04741 0.58463 0.0
C1274 C 0.69536 0.02649 0.42926 0.0
C1275 C 0.63912 0.0105 0.63133 0.0
H1276 H 0.60962 0.96077 0.41606 0.0
H1277 H 0.64272 0.94727 0.58867 0.0
H1278 H 0.63045 0.01237 0.44246 0.0
H1279 H 0.6503 0.01435 0.37765 0.0
H1280 H 0.62284 0.99457 0.36281 0.0
H1281 H 0.67942 0.97418 0.61895 0.0
H1282 H 0.69045 1.00136 0.58707 0.0
H1283 H 0.67138 0.99139 0.66259 0.0
H1284 H 0.70187 0.06632 0.44855 0.0
H1285 H 0.65538 0.05269 0.62157 0.0
H1286 H 0.6866 0.02215 0.37484 0.0
H1287 H 0.69592 0.01237 0.45033 0.0
H1288 H 0.71184 0.03953 0.41807 0.0
H1289 H 0.62488 1.00107 0.59544 0.0
H1290 H 0.63504 0.01889 0.67502 0.0
H1291 H 0.64287 0.99919 0.66003 0.0
C1292 C 0.6415 0.68456 0.67443 0.0
C1293 C 0.62367 0.67368 0.72141 0.0
C1294 C 0.65732 0.67862 0.67186 0.0
C1295 C 0.6549 0.6612 0.716 0.0
C1296 C 0.63825 0.65205 0.76984 0.0
C1297 C 0.623 0.65853 0.77219 0.0
C1298 C 0.67548 0.68972 0.61694 0.0
C1299 C 0.63494 0.63358 0.81879 0.0
C1300 C 0.66288 0.61761 0.63474 0.0
C1301 C 0.67815 0.61777 0.68369 0.0
C1302 C 0.65658 0.63294 0.64015 0.0
C1303 C 0.66608 0.64926 0.69517 0.0
C1304 C 0.68339 0.65103 0.73847 0.0
C1305 C 0.68912 0.63508 0.73284 0.0
C1306 C 0.63812 0.63023 0.59222 0.0
C1307 C 0.6948 0.66876 0.79488 0.0
H1308 H 0.6422 0.69637 0.63518 0.0
H1309 H 0.60941 0.65031 0.80948 0.0
H1310 H 0.69005 0.69007 0.63826 0.0
H1311 H 0.67109 0.68106 0.56228 0.0
H1312 H 0.67907 0.70627 0.60609 0.0
H1313 H 0.62244 0.62953 0.86223 0.0
H1314 H 0.63015 0.61934 0.78283 0.0
H1315 H 0.64993 0.63723 0.84782 0.0
H1316 H 0.65461 0.60446 0.59562 0.0
H1317 H 0.70103 0.63539 0.77066 0.0
H1318 H 0.6422 0.6453 0.56303 0.0
H1319 H 0.62416 0.62602 0.62891 0.0
H1320 H 0.63343 0.61756 0.54891 0.0
H1321 H 0.69489 0.68346 0.77682 0.0
H1322 H 0.71147 0.6724 0.803 0.0
H1323 H 0.68664 0.66381 0.85033 0.0
C1324 C 0.05395 0.66118 0.72681 0.0
C1325 C 0.06773 0.67506 0.78204 0.0
C1326 C 0.03225 0.65481 0.72684 0.0
C1327 C 0.0241 0.66258 0.78356 0.0
C1328 C 0.0385 0.67888 0.83283 0.0
C1329 C 0.06024 0.68488 0.8319 0.0
C1330 C 0.01773 0.63766 0.67224 0.0
C1331 C 0.03066 0.68836 0.89174 0.0
C1332 C 0.96375 0.63718 0.76789 0.0
C1333 C 0.95722 0.61892 0.8122 0.0
C1334 C 0.9855 0.65284 0.76282 0.0
C1335 C 1.00091 0.64989 0.8021 0.0
C1336 C 0.99403 0.63234 0.85169 0.0
C1337 C 0.97237 0.61725 0.85637 0.0
C1338 C 0.99196 0.6717 0.71168 0.0
C1339 C 1.00967 0.62839 0.89525 0.0
H1340 H 0.05978 0.65375 0.6876 0.0
H1341 H 0.07083 0.69566 0.87475 0.0
H1342 H 1.00859 0.62238 0.70307 0.0
H1343 H 1.00613 0.64159 0.64701 0.0
H1344 H 0.0267 0.63533 0.62588 0.0
H1345 H 0.04355 0.70427 0.91019 0.0
H1346 H 0.01712 0.68986 0.86996 0.0
H1347 H 0.02505 0.67782 0.94198 0.0
H1348 H 0.95212 0.63867 0.73393 0.0
H1349 H 0.96739 0.6034 0.89203 0.0
H1350 H 0.99541 0.66792 0.65446 0.0
H1351 H 1.00649 0.68597 0.73275 0.0
H1352 H 0.97897 0.67551 0.70623 0.0
H1353 H 0.01946 0.62511 0.85518 0.0
H1354 H 1.00165 0.61469 0.93459 0.0
H1355 H 0.02063 0.64268 0.9285 0.0
loop_
_geom_bond_atom_site_label_1
_geom_bond_atom_site_label_2
_geom_bond_distance
_geom_bond_site_symmetry_2
_ccdc_geom_bond_type
C0 C1 1.351 . S
C0 N3 1.368 . S
C0 H5 0.931 . S
C1 C0 1.351 . S
C1 N2 1.373 . S
C1 H29 0.930 . S
N2 C1 1.373 . S
N2 C4 1.340 . S
N3 C0 1.368 . S
N3 C4 1.321 . S
N3 Co6 2.135 . S
C4 N2 1.340 . S
C4 N3 1.321 . S
C4 H28 0.930 . S
H5 C0 0.931 . S
Co6 N3 2.135 . S
Co6 N9 2.121 1_554 S
Co6 O14 2.055 . S
Co6 O17 2.039 . S
Co6 N20 2.140 . S
C7 O8 1.227 . S
C7 O17 1.265 . S
O8 C7 1.227 . S
N9 Co6 2.121 1_556 S
N9 C11 1.375 . S
N9 C12 1.313 . S
C10 C11 1.338 . S
C10 N13 1.377 . S
C10 H30 0.930 . S
C11 N9 1.375 . S
C11 C10 1.338 . S
C11 H15 0.931 . S
C12 N9 1.313 . S
C12 N13 1.344 . S
C12 H16 0.930 . S
N13 C10 1.377 . S
N13 C12 1.344 . S
O14 Co6 2.055 . S
O14 C18 1.253 . S
H15 C11 0.931 . S
H16 C12 0.930 . S
O17 Co6 2.039 . S
O17 C7 1.265 . S
C18 O14 1.253 . S
C18 O19 1.227 . S
O19 C18 1.227 . S
N20 Co6 2.140 . S
N20 C23 1.346 . S
N20 C24 1.345 . S
C21 C22 1.387 . S
C21 C25 1.391 . S
C22 C21 1.387 . S
C22 C23 1.369 . S
C22 H31 0.929 . S
C23 N20 1.346 . S
C23 C22 1.369 . S
C23 H26 0.928 . S
C24 N20 1.345 . S
C24 C25 1.371 . S
C24 H27 0.931 . S
C25 C21 1.391 . S
C25 C24 1.371 . S
C25 H32 0.930 . S
H26 C23 0.928 . S
H27 C24 0.931 . S
H28 C4 0.930 . S
H29 C1 0.930 . S
H30 C10 0.930 . S
H31 C22 0.929 . S
H32 C25 0.930 . S
C33 C34 1.351 . S
C33 N36 1.368 . S
C33 H38 0.931 . S
C34 C33 1.351 . S
C34 N35 1.373 . S
C34 H62 0.930 . S
N35 C34 1.373 . S
N35 C37 1.340 . S
N36 C33 1.368 . S
N36 C37 1.321 . S
N36 Co39 2.135 . S
C37 N35 1.340 . S
C37 N36 1.321 . S
C37 H61 0.930 . S
H38 C33 0.931 . S
Co39 N36 2.135 . S
Co39 N42 2.121 . S
Co39 O47 2.055 . S
Co39 O50 2.039 . S
Co39 N53 2.140 . S
C40 O41 1.227 . S
C40 O50 1.265 . S
O41 C40 1.227 . S
N42 Co39 2.121 . S
N42 C44 1.375 . S
N42 C45 1.313 . S
C43 C44 1.338 . S
C43 N46 1.377 . S
C43 H63 0.930 . S
C44 N42 1.375 . S
C44 C43 1.338 . S
C44 H48 0.931 . S
C45 N42 1.313 . S
C45 N46 1.344 . S
C45 H49 0.930 . S
N46 C43 1.377 . S
N46 C45 1.344 . S
O47 Co39 2.055 . S
O47 C51 1.253 . S
H48 C44 0.931 . S
H49 C45 0.930 . S
O50 Co39 2.039 . S
O50 C40 1.265 . S
C51 O47 1.253 . S
C51 O52 1.227 . S
O52 C51 1.227 . S
N53 Co39 2.140 . S
N53 C56 1.346 . S
N53 C57 1.345 . S
C54 C55 1.387 . S
C54 C58 1.391 . S
C55 C54 1.387 . S
C55 C56 1.369 . S
C55 H64 0.929 . S
C56 N53 1.346 . S
C56 C55 1.369 . S
C56 H59 0.928 . S
C57 N53 1.345 . S
C57 C58 1.371 . S
C57 H60 0.931 . S
C58 C54 1.391 . S
C58 C57 1.371 . S
C58 H65 0.930 . S
H59 C56 0.928 . S
H60 C57 0.931 . S
H61 C37 0.930 . S
H62 C34 0.930 . S
H63 C43 0.930 . S
H64 C55 0.929 . S
H65 C58 0.930 . S
C66 C67 1.351 . S
C66 N69 1.368 . S
C66 H71 0.931 . S
C67 C66 1.351 . S
C67 N68 1.373 . S
C67 H95 0.930 . S
N68 C67 1.373 . S
N68 C70 1.340 . S
N69 C66 1.368 . S
N69 C70 1.321 . S
N69 Co72 2.135 . S
C70 N68 1.340 . S
C70 N69 1.321 . S
C70 H94 0.930 . S
H71 C66 0.931 . S
Co72 N69 2.135 . S
Co72 N75 2.121 . S
Co72 O80 2.055 . S
Co72 O83 2.039 . S
Co72 N86 2.140 . S
C73 O74 1.227 . S
C73 O83 1.265 . S
O74 C73 1.227 . S
N75 Co72 2.121 . S
N75 C77 1.375 . S
N75 C78 1.313 . S
C76 C77 1.338 . S
C76 N79 1.377 . S
C76 H96 0.930 . S
C77 N75 1.375 . S
C77 C76 1.338 . S
C77 H81 0.931 . S
C78 N75 1.313 . S
C78 N79 1.344 . S
C78 H82 0.930 . S
N79 C76 1.377 . S
N79 C78 1.344 . S
O80 Co72 2.055 . S
O80 C84 1.253 . S
H81 C77 0.931 . S
H82 C78 0.930 . S
O83 Co72 2.039 . S
O83 C73 1.265 . S
C84 O80 1.253 . S
C84 O85 1.227 . S
O85 C84 1.227 . S
N86 Co72 2.140 . S
N86 C89 1.346 . S
N86 C90 1.345 . S
C87 C88 1.387 . S
C87 C91 1.391 . S
C88 C87 1.387 . S
C88 C89 1.369 . S
C88 H97 0.929 . S
C89 N86 1.346 . S
C89 C88 1.369 . S
C89 H92 0.928 . S
C90 N86 1.345 . S
C90 C91 1.371 . S
C90 H93 0.931 . S
C91 C87 1.391 . S
C91 C90 1.371 . S
C91 H98 0.930 . S
H92 C89 0.928 . S
H93 C90 0.931 . S
H94 C70 0.930 . S
H95 C67 0.930 . S
H96 C76 0.930 . S
H97 C88 0.929 . S
H98 C91 0.930 . S
C99 C100 1.351 . S
C99 N102 1.368 . S
C99 H104 0.931 . S
C100 C99 1.351 . S
C100 N101 1.373 . S
C100 H128 0.930 . S
N101 C100 1.373 . S
N101 C103 1.340 . S
N102 C99 1.368 . S
N102 C103 1.321 . S
N102 Co105 2.135 . S
C103 N101 1.340 . S
C103 N102 1.321 . S
C103 H127 0.930 . S
H104 C99 0.931 . S
Co105 N102 2.135 . S
Co105 N108 2.121 . S
Co105 O113 2.055 . S
Co105 O116 2.039 . S
Co105 N119 2.140 . S
C106 O107 1.227 . S
C106 O116 1.265 . S
O107 C106 1.227 . S
N108 Co105 2.121 . S
N108 C110 1.375 . S
N108 C111 1.313 . S
C109 C110 1.338 . S
C109 N112 1.377 . S
C109 H129 0.930 . S
C110 N108 1.375 . S
C110 C109 1.338 . S
C110 H114 0.931 . S
C111 N108 1.313 . S
C111 N112 1.344 . S
C111 H115 0.930 . S
N112 C109 1.377 . S
N112 C111 1.344 . S
O113 Co105 2.055 . S
O113 C117 1.253 . S
H114 C110 0.931 . S
H115 C111 0.930 . S
O116 Co105 2.039 . S
O116 C106 1.265 . S
C117 O113 1.253 . S
C117 O118 1.227 . S
O118 C117 1.227 . S
N119 Co105 2.140 . S
N119 C122 1.346 . S
N119 C123 1.345 . S
C120 C121 1.387 . S
C120 C124 1.391 . S
C121 C120 1.387 . S
C121 C122 1.369 . S
C121 H130 0.929 . S
C122 N119 1.346 . S
C122 C121 1.369 . S
C122 H125 0.928 . S
C123 N119 1.345 . S
C123 C124 1.371 . S
C123 H126 0.931 . S
C124 C120 1.391 . S
C124 C123 1.371 . S
C124 H131 0.930 . S
H125 C122 0.928 . S
H126 C123 0.931 . S
H127 C103 0.930 . S
H128 C100 0.930 . S
H129 C109 0.930 . S
H130 C121 0.929 . S
H131 C124 0.930 . S
C132 C133 1.351 1_556 S
C132 N135 1.368 . S
C132 H137 0.931 . S
C133 C132 1.351 1_554 S
C133 N134 1.373 . S
C133 H161 0.930 . S
N134 C133 1.373 . S
N134 C136 1.340 1_554 S
N135 C132 1.368 . S
N135 C136 1.321 . S
N135 Co138 2.135 . S
C136 N134 1.340 1_556 S
C136 N135 1.321 . S
C136 H160 0.930 . S
H137 C132 0.931 . S
Co138 N135 2.135 . S
Co138 N141 2.121 . S
Co138 O146 2.055 . S
Co138 O149 2.039 . S
Co138 N152 2.140 . S
C139 O140 1.227 . S
C139 O149 1.265 . S
O140 C139 1.227 . S
N141 Co138 2.121 . S
N141 C143 1.375 . S
N141 C144 1.313 . S
C142 C143 1.338 . S
C142 N145 1.377 . S
C142 H162 0.930 . S
C143 N141 1.375 . S
C143 C142 1.338 . S
C143 H147 0.931 . S
C144 N141 1.313 . S
C144 N145 1.344 . S
C144 H148 0.930 . S
N145 C142 1.377 . S
N145 C144 1.344 . S
O146 Co138 2.055 . S
O146 C150 1.253 . S
H147 C143 0.931 . S
H148 C144 0.930 . S
O149 Co138 2.039 . S
O149 C139 1.265 . S
C150 O146 1.253 . S
C150 O151 1.227 . S
O151 C150 1.227 . S
N152 Co138 2.140 . S
N152 C155 1.346 . S
N152 C156 1.345 . S
C153 C154 1.387 . S
C153 C157 1.391 . S
C154 C153 1.387 . S
C154 C155 1.369 . S
C154 H163 0.929 . S
C155 N152 1.346 . S
C155 C154 1.369 . S
C155 H158 0.928 . S
C156 N152 1.345 . S
C156 C157 1.371 . S
C156 H159 0.931 . S
C157 C153 1.391 . S
C157 C156 1.371 . S
C157 H164 0.930 . S
H158 C155 0.928 . S
H159 C156 0.931 . S
H160 C136 0.930 . S
H161 C133 0.930 . S
H162 C142 0.930 . S
H163 C154 0.929 . S
H164 C157 0.930 . S
C165 C166 1.351 . S
C165 N168 1.368 . S
C165 H170 0.931 . S
C166 C165 1.351 . S
C166 N167 1.373 . S
C166 H194 0.930 . S
N167 C166 1.373 . S
N167 C169 1.340 . S
N168 C165 1.368 . S
N168 C169 1.321 . S
N168 Co171 2.135 1_554 S
C169 N167 1.340 . S
C169 N168 1.321 . S
C169 H193 0.930 . S
H170 C165 0.931 . S
Co171 N168 2.135 1_556 S
Co171 N174 2.121 . S
Co171 O179 2.055 . S
Co171 O182 2.039 . S
Co171 N185 2.140 . S
C172 O173 1.227 . S
C172 O182 1.265 . S
O173 C172 1.227 . S
N174 Co171 2.121 . S
N174 C176 1.375 . S
N174 C177 1.313 . S
C175 C176 1.338 . S
C175 N178 1.377 . S
C175 H195 0.930 . S
C176 N174 1.375 . S
C176 C175 1.338 . S
C176 H180 0.931 . S
C177 N174 1.313 . S
C177 N178 1.344 . S
C177 H181 0.930 . S
N178 C175 1.377 . S
N178 C177 1.344 . S
O179 Co171 2.055 . S
O179 C183 1.253 . S
H180 C176 0.931 . S
H181 C177 0.930 . S
O182 Co171 2.039 . S
O182 C172 1.265 . S
C183 O179 1.253 . S
C183 O184 1.227 . S
O184 C183 1.227 . S
N185 Co171 2.140 . S
N185 C188 1.346 1_556 S
N185 C189 1.345 . S
C186 C187 1.387 1_556 S
C186 C190 1.391 . S
C187 C186 1.387 1_554 S
C187 C188 1.369 . S
C187 H196 0.929 . S
C188 N185 1.346 1_554 S
C188 C187 1.369 . S
C188 H191 0.928 . S
C189 N185 1.345 . S
C189 C190 1.371 . S
C189 H192 0.931 . S
C190 C186 1.391 . S
C190 C189 1.371 . S
C190 H197 0.930 . S
H191 C188 0.928 . S
H192 C189 0.931 . S
H193 C169 0.930 . S
H194 C166 0.930 . S
H195 C175 0.930 . S
H196 C187 0.929 . S
H197 C190 0.930 . S
C198 C199 1.351 . S
C198 N201 1.368 . S
C198 H203 0.931 . S
C199 C198 1.351 . S
C199 N200 1.373 . S
C199 H227 0.930 . S
N200 C199 1.373 . S
N200 C202 1.340 . S
N201 C198 1.368 . S
N201 C202 1.321 . S
N201 Co204 2.135 . S
C202 N200 1.340 . S
C202 N201 1.321 . S
C202 H226 0.930 . S
H203 C198 0.931 . S
Co204 N201 2.135 . S
Co204 N207 2.121 . S
Co204 O212 2.055 . S
Co204 O215 2.039 . S
Co204 N218 2.140 . S
C205 O206 1.227 . S
C205 O215 1.265 . S
O206 C205 1.227 . S
N207 Co204 2.121 . S
N207 C209 1.375 . S
N207 C210 1.313 . S
C208 C209 1.338 . S
C208 N211 1.377 . S
C208 H228 0.930 . S
C209 N207 1.375 . S
C209 C208 1.338 . S
C209 H213 0.931 . S
C210 N207 1.313 . S
C210 N211 1.344 . S
C210 H214 0.930 . S
N211 C208 1.377 . S
N211 C210 1.344 . S
O212 Co204 2.055 . S
O212 C216 1.253 . S
H213 C209 0.931 . S
H214 C210 0.930 . S
O215 Co204 2.039 . S
O215 C205 1.265 . S
C216 O212 1.253 . S
C216 O217 1.227 . S
O217 C216 1.227 . S
N218 Co204 2.140 . S
N218 C221 1.346 . S
N218 C222 1.345 . S
C219 C220 1.387 . S
C219 C223 1.391 . S
C220 C219 1.387 . S
C220 C221 1.369 . S
C220 H229 0.929 . S
C221 N218 1.346 . S
C221 C220 1.369 . S
C221 H224 0.928 . S
C222 N218 1.345 . S
C222 C223 1.371 . S
C222 H225 0.931 . S
C223 C219 1.391 . S
C223 C222 1.371 . S
C223 H230 0.930 . S
H224 C221 0.928 . S
H225 C222 0.931 . S
H226 C202 0.930 . S
H227 C199 0.930 . S
H228 C208 0.930 . S
H229 C220 0.929 . S
H230 C223 0.930 . S
C231 C232 1.351 . S
C231 N234 1.368 . S
C231 H236 0.931 . S
C232 C231 1.351 . S
C232 N233 1.373 . S
C232 H260 0.930 . S
N233 C232 1.373 . S
N233 C235 1.340 . S
N234 C231 1.368 . S
N234 C235 1.321 . S
N234 Co237 2.135 . S
C235 N233 1.340 . S
C235 N234 1.321 . S
C235 H259 0.930 . S
H236 C231 0.931 . S
Co237 N234 2.135 . S
Co237 N240 2.121 1_556 S
Co237 O245 2.055 . S
Co237 O248 2.039 . S
Co237 N251 2.140 . S
C238 O239 1.227 . S
C238 O248 1.265 . S
O239 C238 1.227 . S
N240 Co237 2.121 1_554 S
N240 C242 1.375 . S
N240 C243 1.313 . S
C241 C242 1.338 . S
C241 N244 1.377 . S
C241 H261 0.930 . S
C242 N240 1.375 . S
C242 C241 1.338 . S
C242 H246 0.931 . S
C243 N240 1.313 . S
C243 N244 1.344 . S
C243 H247 0.930 . S
N244 C241 1.377 . S
N244 C243 1.344 . S
O245 Co237 2.055 . S
O245 C249 1.253 . S
H246 C242 0.931 . S
H247 C243 0.930 . S
O248 Co237 2.039 . S
O248 C238 1.265 . S
C249 O245 1.253 . S
C249 O250 1.227 . S
O250 C249 1.227 . S
N251 Co237 2.140 . S
N251 C254 1.346 . S
N251 C255 1.345 . S
C252 C253 1.387 . S
C252 C256 1.391 . S
C253 C252 1.387 . S
C253 C254 1.369 . S
C253 H262 0.929 . S
C254 N251 1.346 . S
C254 C253 1.369 . S
C254 H257 0.928 . S
C255 N251 1.345 . S
C255 C256 1.371 . S
C255 H258 0.931 . S
C256 C252 1.391 . S
C256 C255 1.371 . S
C256 H263 0.930 . S
H257 C254 0.928 . S
H258 C255 0.931 . S
H259 C235 0.930 . S
H260 C232 0.930 . S
H261 C241 0.930 . S
H262 C253 0.929 . S
H263 C256 0.930 . S
C264 C265 1.351 . S
C264 N267 1.368 . S
C264 H269 0.931 . S
C265 C264 1.351 . S
C265 N266 1.373 . S
C265 H293 0.930 . S
N266 C265 1.373 . S
N266 C268 1.340 . S
N267 C264 1.368 . S
N267 C268 1.321 . S
N267 Co270 2.135 1_556 S
C268 N266 1.340 . S
C268 N267 1.321 . S
C268 H292 0.930 . S
H269 C264 0.931 . S
Co270 N267 2.135 1_554 S
Co270 N273 2.121 . S
Co270 O278 2.055 . S
Co270 O281 2.039 . S
Co270 N284 2.140 . S
C271 O272 1.227 . S
C271 O281 1.265 . S
O272 C271 1.227 . S
N273 Co270 2.121 . S
N273 C275 1.375 . S
N273 C276 1.313 . S
C274 C275 1.338 . S
C274 N277 1.377 . S
C274 H294 0.930 . S
C275 N273 1.375 . S
C275 C274 1.338 . S
C275 H279 0.931 . S
C276 N273 1.313 . S
C276 N277 1.344 . S
C276 H280 0.930 . S
N277 C274 1.377 . S
N277 C276 1.344 . S
O278 Co270 2.055 . S
O278 C282 1.253 . S
H279 C275 0.931 . S
H280 C276 0.930 . S
O281 Co270 2.039 . S
O281 C271 1.265 . S
C282 O278 1.253 . S
C282 O283 1.227 . S
O283 C282 1.227 . S
N284 Co270 2.140 . S
N284 C287 1.346 1_554 S
N284 C288 1.345 . S
C285 C286 1.387 1_554 S
C285 C289 1.391 . S
C286 C285 1.387 1_556 S
C286 C287 1.369 . S
C286 H295 0.929 . S
C287 N284 1.346 1_556 S
C287 C286 1.369 . S
C287 H290 0.928 . S
C288 N284 1.345 . S
C288 C289 1.371 . S
C288 H291 0.931 . S
C289 C285 1.391 . S
C289 C288 1.371 . S
C289 H296 0.930 . S
H290 C287 0.928 . S
H291 C288 0.931 . S
H292 C268 0.930 . S
H293 C265 0.930 . S
H294 C274 0.930 . S
H295 C286 0.929 . S
H296 C289 0.930 . S
C297 C298 1.351 1_554 S
C297 N300 1.368 . S
C297 H302 0.931 . S
C298 C297 1.351 1_556 S
C298 N299 1.373 . S
C298 H326 0.930 . S
N299 C298 1.373 . S
N299 C301 1.340 1_556 S
N300 C297 1.368 . S
N300 C301 1.321 . S
N300 Co303 2.135 . S
C301 N299 1.340 1_554 S
C301 N300 1.321 . S
C301 H325 0.930 . S
H302 C297 0.931 . S
Co303 N300 2.135 . S
Co303 N306 2.121 . S
Co303 O311 2.055 . S
Co303 O314 2.039 . S
Co303 N317 2.140 . S
C304 O305 1.227 . S
C304 O314 1.265 . S
O305 C304 1.227 . S
N306 Co303 2.121 . S
N306 C308 1.375 . S
N306 C309 1.313 . S
C307 C308 1.338 . S
C307 N310 1.377 . S
C307 H327 0.930 . S
C308 N306 1.375 . S
C308 C307 1.338 . S
C308 H312 0.931 . S
C309 N306 1.313 . S
C309 N310 1.344 . S
C309 H313 0.930 . S
N310 C307 1.377 . S
N310 C309 1.344 . S
O311 Co303 2.055 . S
O311 C315 1.253 . S
H312 C308 0.931 . S
H313 C309 0.930 . S
O314 Co303 2.039 . S
O314 C304 1.265 . S
C315 O311 1.253 . S
C315 O316 1.227 . S
O316 C315 1.227 . S
N317 Co303 2.140 . S
N317 C320 1.346 . S
N317 C321 1.345 . S
C318 C319 1.387 . S
C318 C322 1.391 . S
C319 C318 1.387 . S
C319 C320 1.369 . S
C319 H328 0.929 . S
C320 N317 1.346 . S
C320 C319 1.369 . S
C320 H323 0.928 . S
C321 N317 1.345 . S
C321 C322 1.371 . S
C321 H324 0.931 . S
C322 C318 1.391 . S
C322 C321 1.371 . S
C322 H329 0.930 . S
H323 C320 0.928 . S
H324 C321 0.931 . S
H325 C301 0.930 . S
H326 C298 0.930 . S
H327 C307 0.930 . S
H328 C319 0.929 . S
H329 C322 0.930 . S
C330 C331 1.351 . S
C330 N333 1.368 . S
C330 H335 0.931 . S
C331 C330 1.351 . S
C331 N332 1.373 . S
C331 H359 0.930 . S
N332 C331 1.373 . S
N332 C334 1.340 . S
N333 C330 1.368 . S
N333 C334 1.321 . S
N333 Co336 2.135 . S
C334 N332 1.340 . S
C334 N333 1.321 . S
C334 H358 0.930 . S
H335 C330 0.931 . S
Co336 N333 2.135 . S
Co336 N339 2.121 . S
Co336 O344 2.055 . S
Co336 O347 2.039 . S
Co336 N350 2.140 . S
C337 O338 1.227 . S
C337 O347 1.265 . S
O338 C337 1.227 . S
N339 Co336 2.121 . S
N339 C341 1.375 . S
N339 C342 1.313 . S
C340 C341 1.338 . S
C340 N343 1.377 . S
C340 H360 0.930 . S
C341 N339 1.375 . S
C341 C340 1.338 . S
C341 H345 0.931 . S
C342 N339 1.313 . S
C342 N343 1.344 . S
C342 H346 0.930 . S
N343 C340 1.377 . S
N343 C342 1.344 . S
O344 Co336 2.055 . S
O344 C348 1.253 . S
H345 C341 0.931 . S
H346 C342 0.930 . S
O347 Co336 2.039 . S
O347 C337 1.265 . S
C348 O344 1.253 . S
C348 O349 1.227 . S
O349 C348 1.227 . S
N350 Co336 2.140 . S
N350 C353 1.346 . S
N350 C354 1.345 . S
C351 C352 1.387 . S
C351 C355 1.391 . S
C352 C351 1.387 . S
C352 C353 1.369 . S
C352 H361 0.929 . S
C353 N350 1.346 . S
C353 C352 1.369 . S
C353 H356 0.928 . S
C354 N350 1.345 . S
C354 C355 1.371 . S
C354 H357 0.931 . S
C355 C351 1.391 . S
C355 C354 1.371 . S
C355 H362 0.930 . S
H356 C353 0.928 . S
H357 C354 0.931 . S
H358 C334 0.930 . S
H359 C331 0.930 . S
H360 C340 0.930 . S
H361 C352 0.929 . S
H362 C355 0.930 . S
C363 C364 1.351 . S
C363 N366 1.368 . S
C363 H368 0.931 . S
C364 C363 1.351 . S
C364 N365 1.373 . S
C364 H392 0.930 . S
N365 C364 1.373 . S
N365 C367 1.340 . S
N366 C363 1.368 . S
N366 C367 1.321 . S
N366 Co369 2.135 . S
C367 N365 1.340 . S
C367 N366 1.321 . S
C367 H391 0.930 . S
H368 C363 0.931 . S
Co369 N366 2.135 . S
Co369 N372 2.121 . S
Co369 O377 2.055 . S
Co369 O380 2.039 . S
Co369 N383 2.140 . S
C370 O371 1.227 . S
C370 O380 1.265 . S
O371 C370 1.227 . S
N372 Co369 2.121 . S
N372 C374 1.375 . S
N372 C375 1.313 . S
C373 C374 1.338 . S
C373 N376 1.377 . S
C373 H393 0.930 . S
C374 N372 1.375 . S
C374 C373 1.338 . S
C374 H378 0.931 . S
C375 N372 1.313 . S
C375 N376 1.344 . S
C375 H379 0.930 . S
N376 C373 1.377 . S
N376 C375 1.344 . S
O377 Co369 2.055 . S
O377 C381 1.253 . S
H378 C374 0.931 . S
H379 C375 0.930 . S
O380 Co369 2.039 . S
O380 C370 1.265 . S
C381 O377 1.253 . S
C381 O382 1.227 . S
O382 C381 1.227 . S
N383 Co369 2.140 . S
N383 C386 1.346 . S
N383 C387 1.345 . S
C384 C385 1.387 . S
C384 C388 1.391 . S
C385 C384 1.387 . S
C385 C386 1.369 . S
C385 H394 0.929 . S
C386 N383 1.346 . S
C386 C385 1.369 . S
C386 H389 0.928 . S
C387 N383 1.345 . S
C387 C388 1.371 . S
C387 H390 0.931 . S
C388 C384 1.391 . S
C388 C387 1.371 . S
C388 H395 0.930 . S
H389 C386 0.928 . S
H390 C387 0.931 . S
H391 C367 0.930 . S
H392 C364 0.930 . S
H393 C373 0.930 . S
H394 C385 0.929 . S
H395 C388 0.930 . S
C396 C397 1.391 . S
C396 C398 1.394 . S
C396 H412 0.931 . S
C397 C396 1.391 . S
C397 C401 1.376 . S
C398 C396 1.394 . S
C398 C399 1.369 . S
C398 C402 1.531 . S
C399 C398 1.369 . S
C399 C400 1.410 . S
C399 C407 1.503 . S
C400 C399 1.410 . S
C400 C401 1.392 . S
C400 C403 1.511 1_554 S
C401 C397 1.376 . S
C401 C400 1.392 . S
C401 H413 0.929 1_554 S
C402 C398 1.531 . S
C402 H414 0.960 . S
C402 H415 0.962 . S
C402 H416 0.960 . S
C403 C400 1.511 1_556 S
C403 H417 0.961 . S
C403 H418 0.961 . S
C403 H419 0.961 . S
C404 C405 1.370 . S
C404 C406 1.363 . S
C404 H420 0.931 . S
C405 C404 1.370 . S
C405 C409 1.408 . S
C406 C404 1.363 . S
C406 C407 1.370 . S
C406 C410 1.524 . S
C407 C399 1.503 . S
C407 C406 1.370 . S
C407 C408 1.403 . S
C408 C407 1.403 . S
C408 C409 1.404 . S
C408 C411 1.539 . S
C409 C405 1.408 . S
C409 C408 1.404 . S
C409 H421 0.930 . S
C410 C406 1.524 . S
C410 H422 0.956 . S
C410 H423 0.961 1_554 S
C410 H424 0.961 . S
C411 C408 1.539 . S
C411 H425 0.958 . S
C411 H426 0.961 . S
C411 H427 0.960 . S
H412 C396 0.931 . S
H413 C401 0.929 1_556 S
H414 C402 0.960 . S
H415 C402 0.962 . S
H416 C402 0.960 . S
H417 C403 0.961 . S
H418 C403 0.961 . S
H419 C403 0.961 . S
H420 C404 0.931 . S
H421 C409 0.930 . S
H422 C410 0.956 . S
H423 C410 0.961 1_556 S
H424 C410 0.961 . S
H425 C411 0.958 . S
H426 C411 0.961 . S
H427 C411 0.960 . S
C428 C429 1.391 . S
C428 C430 1.394 . S
C428 H444 0.931 . S
C429 C428 1.391 . S
C429 C433 1.376 . S
C430 C428 1.394 . S
C430 C431 1.369 . S
C430 C434 1.531 . S
C431 C430 1.369 . S
C431 C432 1.410 . S
C431 C439 1.503 . S
C432 C431 1.410 . S
C432 C433 1.392 . S
C432 C435 1.511 . S
C433 C429 1.376 . S
C433 C432 1.392 . S
C433 H445 0.929 . S
C434 C430 1.531 . S
C434 H446 0.960 . S
C434 H447 0.962 . S
C434 H448 0.960 . S
C435 C432 1.511 . S
C435 H449 0.961 . S
C435 H450 0.961 . S
C435 H451 0.961 . S
C436 C437 1.370 . S
C436 C438 1.363 . S
C436 H452 0.931 . S
C437 C436 1.370 . S
C437 C441 1.408 . S
C438 C436 1.363 . S
C438 C439 1.370 . S
C438 C442 1.524 . S
C439 C431 1.503 . S
C439 C438 1.370 . S
C439 C440 1.403 . S
C440 C439 1.403 . S
C440 C441 1.404 . S
C440 C443 1.539 . S
C441 C437 1.408 . S
C441 C440 1.404 . S
C441 H453 0.930 . S
C442 C438 1.524 . S
C442 H454 0.956 . S
C442 H455 0.961 . S
C442 H456 0.961 . S
C443 C440 1.539 . S
C443 H457 0.958 . S
C443 H458 0.961 . S
C443 H459 0.960 . S
H444 C428 0.931 . S
H445 C433 0.929 . S
H446 C434 0.960 . S
H447 C434 0.962 . S
H448 C434 0.960 . S
H449 C435 0.961 . S
H450 C435 0.961 . S
H451 C435 0.961 . S
H452 C436 0.931 . S
H453 C441 0.930 . S
H454 C442 0.956 . S
H455 C442 0.961 . S
H456 C442 0.961 . S
H457 C443 0.958 . S
H458 C443 0.961 . S
H459 C443 0.960 . S
C460 C461 1.391 . S
C460 C462 1.394 . S
C460 H476 0.931 . S
C461 C460 1.391 . S
C461 C465 1.376 . S
C462 C460 1.394 . S
C462 C463 1.369 . S
C462 C466 1.531 . S
C463 C462 1.369 . S
C463 C464 1.410 . S
C463 C471 1.503 . S
C464 C463 1.410 . S
C464 C465 1.392 . S
C464 C467 1.511 . S
C465 C461 1.376 . S
C465 C464 1.392 . S
C465 H477 0.929 . S
C466 C462 1.531 . S
C466 H478 0.960 . S
C466 H479 0.962 . S
C466 H480 0.960 . S
C467 C464 1.511 . S
C467 H481 0.961 . S
C467 H482 0.961 . S
C467 H483 0.961 . S
C468 C469 1.370 . S
C468 C470 1.363 . S
C468 H484 0.931 . S
C469 C468 1.370 . S
C469 C473 1.408 . S
C470 C468 1.363 . S
C470 C471 1.370 . S
C470 C474 1.524 . S
C471 C463 1.503 . S
C471 C470 1.370 . S
C471 C472 1.403 . S
C472 C471 1.403 . S
C472 C473 1.404 . S
C472 C475 1.539 . S
C473 C469 1.408 . S
C473 C472 1.404 . S
C473 H485 0.930 . S
C474 C470 1.524 . S
C474 H486 0.956 . S
C474 H487 0.961 . S
C474 H488 0.961 . S
C475 C472 1.539 . S
C475 H489 0.958 . S
C475 H490 0.961 . S
C475 H491 0.960 . S
H476 C460 0.931 . S
H477 C465 0.929 . S
H478 C466 0.960 . S
H479 C466 0.962 . S
H480 C466 0.960 . S
H481 C467 0.961 . S
H482 C467 0.961 . S
H483 C467 0.961 . S
H484 C468 0.931 . S
H485 C473 0.930 . S
H486 C474 0.956 . S
H487 C474 0.961 . S
H488 C474 0.961 . S
H489 C475 0.958 . S
H490 C475 0.961 . S
H491 C475 0.960 . S
C492 C493 1.391 . S
C492 C494 1.394 . S
C492 H508 0.931 . S
C493 C492 1.391 . S
C493 C497 1.376 . S
C494 C492 1.394 . S
C494 C495 1.369 . S
C494 C498 1.531 . S
C495 C494 1.369 . S
C495 C496 1.410 . S
C495 C503 1.503 . S
C496 C495 1.410 . S
C496 C497 1.392 . S
C496 C499 1.511 . S
C497 C493 1.376 . S
C497 C496 1.392 . S
C497 H509 0.929 . S
C498 C494 1.531 . S
C498 H510 0.960 . S
C498 H511 0.962 . S
C498 H512 0.960 . S
C499 C496 1.511 . S
C499 H513 0.961 . S
C499 H514 0.961 . S
C499 H515 0.961 . S
C500 C501 1.370 . S
C500 C502 1.363 . S
C500 H516 0.931 . S
C501 C500 1.370 . S
C501 C505 1.408 . S
C502 C500 1.363 . S
C502 C503 1.370 . S
C502 C506 1.524 . S
C503 C495 1.503 . S
C503 C502 1.370 . S
C503 C504 1.403 . S
C504 C503 1.403 . S
C504 C505 1.404 . S
C504 C507 1.539 . S
C505 C501 1.408 . S
C505 C504 1.404 . S
C505 H517 0.930 . S
C506 C502 1.524 . S
C506 H518 0.956 . S
C506 H519 0.961 . S
C506 H520 0.961 . S
C507 C504 1.539 . S
C507 H521 0.958 . S
C507 H522 0.961 . S
C507 H523 0.960 . S
H508 C492 0.931 . S
H509 C497 0.929 . S
H510 C498 0.960 . S
H511 C498 0.962 . S
H512 C498 0.960 . S
H513 C499 0.961 . S
H514 C499 0.961 . S
H515 C499 0.961 . S
H516 C500 0.931 . S
H517 C505 0.930 . S
H518 C506 0.956 . S
H519 C506 0.961 . S
H520 C506 0.961 . S
H521 C507 0.958 . S
H522 C507 0.961 . S
H523 C507 0.960 . S
C524 C525 1.391 . S
C524 C526 1.394 . S
C524 H540 0.931 . S
C525 C524 1.391 . S
C525 C529 1.376 . S
C526 C524 1.394 . S
C526 C527 1.369 . S
C526 C530 1.531 . S
C527 C526 1.369 . S
C527 C528 1.410 . S
C527 C535 1.503 . S
C528 C527 1.410 . S
C528 C529 1.392 . S
C528 C531 1.511 . S
C529 C525 1.376 . S
C529 C528 1.392 . S
C529 H541 0.929 . S
C530 C526 1.531 . S
C530 H542 0.960 . S
C530 H543 0.962 . S
C530 H544 0.960 . S
C531 C528 1.511 . S
C531 H545 0.961 . S
C531 H546 0.961 . S
C531 H547 0.961 . S
C532 C533 1.370 . S
C532 C534 1.363 . S
C532 H548 0.931 . S
C533 C532 1.370 . S
C533 C537 1.408 . S
C534 C532 1.363 . S
C534 C535 1.370 . S
C534 C538 1.524 . S
C535 C527 1.503 . S
C535 C534 1.370 . S
C535 C536 1.403 . S
C536 C535 1.403 . S
C536 C537 1.404 . S
C536 C539 1.539 . S
C537 C533 1.408 . S
C537 C536 1.404 . S
C537 H549 0.930 . S
C538 C534 1.524 . S
C538 H550 0.956 . S
C538 H551 0.961 . S
C538 H552 0.961 . S
C539 C536 1.539 . S
C539 H553 0.958 . S
C539 H554 0.961 . S
C539 H555 0.960 . S
H540 C524 0.931 . S
H541 C529 0.929 . S
H542 C530 0.960 . S
H543 C530 0.962 . S
H544 C530 0.960 . S
H545 C531 0.961 . S
H546 C531 0.961 . S
H547 C531 0.961 . S
H548 C532 0.931 . S
H549 C537 0.930 . S
H550 C538 0.956 . S
H551 C538 0.961 . S
H552 C538 0.961 . S
H553 C539 0.958 . S
H554 C539 0.961 . S
H555 C539 0.960 . S
C556 C557 1.391 . S
C556 C558 1.394 . S
C556 H572 0.931 . S
C557 C556 1.391 . S
C557 C561 1.376 . S
C558 C556 1.394 . S
C558 C559 1.369 . S
C558 C562 1.531 1_556 S
C559 C558 1.369 . S
C559 C560 1.410 . S
C559 C567 1.503 . S
C560 C559 1.410 . S
C560 C561 1.392 . S
C560 C563 1.511 . S
C561 C557 1.376 . S
C561 C560 1.392 . S
C561 H573 0.929 . S
C562 C558 1.531 1_554 S
C562 H574 0.960 . S
C562 H575 0.962 . S
C562 H576 0.960 . S
C563 C560 1.511 . S
C563 H577 0.961 . S
C563 H578 0.961 . S
C563 H579 0.961 . S
C564 C565 1.370 . S
C564 C566 1.363 . S
C564 H580 0.931 . S
C565 C564 1.370 . S
C565 C569 1.408 . S
C566 C564 1.363 . S
C566 C567 1.370 . S
C566 C570 1.524 . S
C567 C559 1.503 . S
C567 C566 1.370 . S
C567 C568 1.403 . S
C568 C567 1.403 . S
C568 C569 1.404 . S
C568 C571 1.539 1_556 S
C569 C565 1.408 . S
C569 C568 1.404 . S
C569 H581 0.930 1_556 S
C570 C566 1.524 . S
C570 H582 0.956 . S
C570 H583 0.961 . S
C570 H584 0.961 . S
C571 C568 1.539 1_554 S
C571 H585 0.958 . S
C571 H586 0.961 . S
C571 H587 0.960 1_554 S
H572 C556 0.931 . S
H573 C561 0.929 . S
H574 C562 0.960 . S
H575 C562 0.962 . S
H576 C562 0.960 . S
H577 C563 0.961 . S
H578 C563 0.961 . S
H579 C563 0.961 . S
H580 C564 0.931 . S
H581 C569 0.930 1_554 S
H582 C570 0.956 . S
H583 C570 0.961 . S
H584 C570 0.961 . S
H585 C571 0.958 . S
H586 C571 0.961 . S
H587 C571 0.960 1_556 S
C588 C589 1.391 . S
C588 C590 1.394 . S
C588 H604 0.931 . S
C589 C588 1.391 . S
C589 C593 1.376 . S
C590 C588 1.394 . S
C590 C591 1.369 . S
C590 C594 1.531 . S
C591 C590 1.369 . S
C591 C592 1.410 . S
C591 C599 1.503 . S
C592 C591 1.410 . S
C592 C593 1.392 . S
C592 C595 1.511 . S
C593 C589 1.376 . S
C593 C592 1.392 . S
C593 H605 0.929 . S
C594 C590 1.531 . S
C594 H606 0.960 . S
C594 H607 0.962 . S
C594 H608 0.960 . S
C595 C592 1.511 . S
C595 H609 0.961 . S
C595 H610 0.961 . S
C595 H611 0.961 . S
C596 C597 1.370 . S
C596 C598 1.363 . S
C596 H612 0.931 . S
C597 C596 1.370 . S
C597 C601 1.408 . S
C598 C596 1.363 . S
C598 C599 1.370 . S
C598 C602 1.524 . S
C599 C591 1.503 . S
C599 C598 1.370 . S
C599 C600 1.403 . S
C600 C599 1.403 . S
C600 C601 1.404 . S
C600 C603 1.539 . S
C601 C597 1.408 . S
C601 C600 1.404 . S
C601 H613 0.930 . S
C602 C598 1.524 . S
C602 H614 0.956 . S
C602 H615 0.961 . S
C602 H616 0.961 . S
C603 C600 1.539 . S
C603 H617 0.958 . S
C603 H618 0.961 . S
C603 H619 0.960 . S
H604 C588 0.931 . S
H605 C593 0.929 . S
H606 C594 0.960 . S
H607 C594 0.962 . S
H608 C594 0.960 . S
H609 C595 0.961 . S
H610 C595 0.961 . S
H611 C595 0.961 . S
H612 C596 0.931 . S
H613 C601 0.930 . S
H614 C602 0.956 . S
H615 C602 0.961 . S
H616 C602 0.961 . S
H617 C603 0.958 . S
H618 C603 0.961 . S
H619 C603 0.960 . S
C620 C621 1.391 . S
C620 C622 1.394 . S
C620 H636 0.931 . S
C621 C620 1.391 . S
C621 C625 1.376 . S
C622 C620 1.394 . S
C622 C623 1.369 . S
C622 C626 1.531 . S
C623 C622 1.369 . S
C623 C624 1.410 . S
C623 C631 1.503 . S
C624 C623 1.410 . S
C624 C625 1.392 . S
C624 C627 1.511 . S
C625 C621 1.376 . S
C625 C624 1.392 . S
C625 H637 0.929 . S
C626 C622 1.531 . S
C626 H638 0.960 . S
C626 H639 0.962 . S
C626 H640 0.960 . S
C627 C624 1.511 . S
C627 H641 0.961 . S
C627 H642 0.961 . S
C627 H643 0.961 . S
C628 C629 1.370 . S
C628 C630 1.363 . S
C628 H644 0.931 . S
C629 C628 1.370 . S
C629 C633 1.408 . S
C630 C628 1.363 . S
C630 C631 1.370 . S
C630 C634 1.524 . S
C631 C623 1.503 . S
C631 C630 1.370 . S
C631 C632 1.403 . S
C632 C631 1.403 . S
C632 C633 1.404 . S
C632 C635 1.539 . S
C633 C629 1.408 . S
C633 C632 1.404 . S
C633 H645 0.930 . S
C634 C630 1.524 . S
C634 H646 0.956 . S
C634 H647 0.961 . S
C634 H648 0.961 . S
C635 C632 1.539 . S
C635 H649 0.958 . S
C635 H650 0.961 . S
C635 H651 0.960 . S
H636 C620 0.931 . S
H637 C625 0.929 . S
H638 C626 0.960 . S
H639 C626 0.962 . S
H640 C626 0.960 . S
H641 C627 0.961 . S
H642 C627 0.961 . S
H643 C627 0.961 . S
H644 C628 0.931 . S
H645 C633 0.930 . S
H646 C634 0.956 . S
H647 C634 0.961 . S
H648 C634 0.961 . S
H649 C635 0.958 . S
H650 C635 0.961 . S
H651 C635 0.960 . S
C652 C653 1.391 . S
C652 C654 1.394 . S
C652 H668 0.931 . S
C653 C652 1.391 . S
C653 C657 1.376 . S
C654 C652 1.394 . S
C654 C655 1.369 . S
C654 C658 1.531 . S
C655 C654 1.369 . S
C655 C656 1.410 . S
C655 C663 1.503 . S
C656 C655 1.410 . S
C656 C657 1.392 . S
C656 C659 1.511 . S
C657 C653 1.376 . S
C657 C656 1.392 . S
C657 H669 0.929 . S
C658 C654 1.531 . S
C658 H670 0.960 . S
C658 H671 0.962 . S
C658 H672 0.960 . S
C659 C656 1.511 . S
C659 H673 0.961 . S
C659 H674 0.961 . S
C659 H675 0.961 . S
C660 C661 1.370 . S
C660 C662 1.363 . S
C660 H676 0.931 . S
C661 C660 1.370 . S
C661 C665 1.408 . S
C662 C660 1.363 . S
C662 C663 1.370 1_554 S
C662 C666 1.524 1_554 S
C663 C655 1.503 . S
C663 C662 1.370 1_556 S
C663 C664 1.403 1_556 S
C664 C663 1.403 1_554 S
C664 C665 1.404 . S
C664 C667 1.539 . S
C665 C661 1.408 . S
C665 C664 1.404 . S
C665 H677 0.930 . S
C666 C662 1.524 1_556 S
C666 H678 0.956 . S
C666 H679 0.961 . S
C666 H680 0.961 . S
C667 C664 1.539 . S
C667 H681 0.958 . S
C667 H682 0.961 . S
C667 H683 0.960 1_554 S
H668 C652 0.931 . S
H669 C657 0.929 . S
H670 C658 0.960 . S
H671 C658 0.962 . S
H672 C658 0.960 . S
H673 C659 0.961 . S
H674 C659 0.961 . S
H675 C659 0.961 . S
H676 C660 0.931 . S
H677 C665 0.930 . S
H678 C666 0.956 . S
H679 C666 0.961 . S
H680 C666 0.961 . S
H681 C667 0.958 . S
H682 C667 0.961 . S
H683 C667 0.960 1_556 S
C684 C685 1.391 . S
C684 C686 1.394 1_556 S
C684 H700 0.931 . S
C685 C684 1.391 . S
C685 C689 1.376 . S
C686 C684 1.394 1_554 S
C686 C687 1.369 . S
C686 C690 1.531 . S
C687 C686 1.369 . S
C687 C688 1.410 . S
C687 C695 1.503 . S
C688 C687 1.410 . S
C688 C689 1.392 1_554 S
C688 C691 1.511 . S
C689 C685 1.376 . S
C689 C688 1.392 1_556 S
C689 H701 0.929 . S
C690 C686 1.531 . S
C690 H702 0.960 . S
C690 H703 0.962 . S
C690 H704 0.960 . S
C691 C688 1.511 . S
C691 H705 0.961 . S
C691 H706 0.961 . S
C691 H707 0.961 . S
C692 C693 1.370 . S
C692 C694 1.363 . S
C692 H708 0.931 . S
C693 C692 1.370 . S
C693 C697 1.408 . S
C694 C692 1.363 . S
C694 C695 1.370 . S
C694 C698 1.524 . S
C695 C687 1.503 . S
C695 C694 1.370 . S
C695 C696 1.403 . S
C696 C695 1.403 . S
C696 C697 1.404 . S
C696 C699 1.539 . S
C697 C693 1.408 . S
C697 C696 1.404 . S
C697 H709 0.930 . S
C698 C694 1.524 . S
C698 H710 0.956 . S
C698 H711 0.961 . S
C698 H712 0.961 . S
C699 C696 1.539 . S
C699 H713 0.958 . S
C699 H714 0.961 . S
C699 H715 0.960 . S
H700 C684 0.931 . S
H701 C689 0.929 . S
H702 C690 0.960 . S
H703 C690 0.962 . S
H704 C690 0.960 . S
H705 C691 0.961 . S
H706 C691 0.961 . S
H707 C691 0.961 . S
H708 C692 0.931 . S
H709 C697 0.930 . S
H710 C698 0.956 . S
H711 C698 0.961 . S
H712 C698 0.961 . S
H713 C699 0.958 . S
H714 C699 0.961 . S
H715 C699 0.960 . S
C716 C717 1.391 . S
C716 C718 1.394 . S
C716 H732 0.931 . S
C717 C716 1.391 . S
C717 C721 1.376 . S
C718 C716 1.394 . S
C718 C719 1.369 . S
C718 C722 1.531 . S
C719 C718 1.369 . S
C719 C720 1.410 . S
C719 C727 1.503 . S
C720 C719 1.410 . S
C720 C721 1.392 . S
C720 C723 1.511 . S
C721 C717 1.376 . S
C721 C720 1.392 . S
C721 H733 0.929 . S
C722 C718 1.531 . S
C722 H734 0.960 . S
C722 H735 0.962 . S
C722 H736 0.960 . S
C723 C720 1.511 . S
C723 H737 0.961 . S
C723 H738 0.961 . S
C723 H739 0.961 . S
C724 C725 1.370 . S
C724 C726 1.363 . S
C724 H740 0.931 . S
C725 C724 1.370 . S
C725 C729 1.408 . S
C726 C724 1.363 . S
C726 C727 1.370 . S
C726 C730 1.524 . S
C727 C719 1.503 . S
C727 C726 1.370 . S
C727 C728 1.403 . S
C728 C727 1.403 . S
C728 C729 1.404 . S
C728 C731 1.539 . S
C729 C725 1.408 . S
C729 C728 1.404 . S
C729 H741 0.930 . S
C730 C726 1.524 . S
C730 H742 0.956 . S
C730 H743 0.961 . S
C730 H744 0.961 . S
C731 C728 1.539 . S
C731 H745 0.958 . S
C731 H746 0.961 . S
C731 H747 0.960 . S
H732 C716 0.931 . S
H733 C721 0.929 . S
H734 C722 0.960 . S
H735 C722 0.962 . S
H736 C722 0.960 . S
H737 C723 0.961 . S
H738 C723 0.961 . S
H739 C723 0.961 . S
H740 C724 0.931 . S
H741 C729 0.930 . S
H742 C730 0.956 . S
H743 C730 0.961 . S
H744 C730 0.961 . S
H745 C731 0.958 . S
H746 C731 0.961 . S
H747 C731 0.960 . S
C748 C749 1.391 . S
C748 C750 1.394 . S
C748 H764 0.931 . S
C749 C748 1.391 . S
C749 C753 1.376 . S
C750 C748 1.394 . S
C750 C751 1.369 . S
C750 C754 1.531 . S
C751 C750 1.369 . S
C751 C752 1.410 . S
C751 C759 1.503 . S
C752 C751 1.410 . S
C752 C753 1.392 . S
C752 C755 1.511 . S
C753 C749 1.376 . S
C753 C752 1.392 . S
C753 H765 0.929 . S
C754 C750 1.531 . S
C754 H766 0.960 . S
C754 H767 0.962 . S
C754 H768 0.960 . S
C755 C752 1.511 . S
C755 H769 0.961 . S
C755 H770 0.961 . S
C755 H771 0.961 . S
C756 C757 1.370 . S
C756 C758 1.363 . S
C756 H772 0.931 . S
C757 C756 1.370 . S
C757 C761 1.408 . S
C758 C756 1.363 . S
C758 C759 1.370 . S
C758 C762 1.524 . S
C759 C751 1.503 . S
C759 C758 1.370 . S
C759 C760 1.403 . S
C760 C759 1.403 . S
C760 C761 1.404 . S
C760 C763 1.539 . S
C761 C757 1.408 . S
C761 C760 1.404 . S
C761 H773 0.930 . S
C762 C758 1.524 . S
C762 H774 0.956 . S
C762 H775 0.961 . S
C762 H776 0.961 . S
C763 C760 1.539 . S
C763 H777 0.958 . S
C763 H778 0.961 . S
C763 H779 0.960 . S
H764 C748 0.931 . S
H765 C753 0.929 . S
H766 C754 0.960 . S
H767 C754 0.962 . S
H768 C754 0.960 . S
H769 C755 0.961 . S
H770 C755 0.961 . S
H771 C755 0.961 . S
H772 C756 0.931 . S
H773 C761 0.930 . S
H774 C762 0.956 . S
H775 C762 0.961 . S
H776 C762 0.961 . S
H777 C763 0.958 . S
H778 C763 0.961 . S
H779 C763 0.960 . S
C780 C781 1.391 . S
C780 C782 1.394 . S
C780 H796 0.931 . S
C781 C780 1.391 . S
C781 C785 1.376 . S
C782 C780 1.394 . S
C782 C783 1.369 . S
C782 C786 1.531 . S
C783 C782 1.369 . S
C783 C784 1.410 . S
C783 C791 1.503 . S
C784 C783 1.410 . S
C784 C785 1.392 . S
C784 C787 1.511 . S
C785 C781 1.376 . S
C785 C784 1.392 . S
C785 H797 0.929 . S
C786 C782 1.531 . S
C786 H798 0.960 . S
C786 H799 0.962 . S
C786 H800 0.960 . S
C787 C784 1.511 . S
C787 H801 0.961 . S
C787 H802 0.961 . S
C787 H803 0.961 . S
C788 C789 1.370 . S
C788 C790 1.363 . S
C788 H804 0.931 . S
C789 C788 1.370 . S
C789 C793 1.408 . S
C790 C788 1.363 . S
C790 C791 1.370 . S
C790 C794 1.524 . S
C791 C783 1.503 . S
C791 C790 1.370 . S
C791 C792 1.403 . S
C792 C791 1.403 . S
C792 C793 1.404 . S
C792 C795 1.539 . S
C793 C789 1.408 . S
C793 C792 1.404 . S
C793 H805 0.930 . S
C794 C790 1.524 . S
C794 H806 0.956 . S
C794 H807 0.961 . S
C794 H808 0.961 . S
C795 C792 1.539 . S
C795 H809 0.958 . S
C795 H810 0.961 . S
C795 H811 0.960 . S
H796 C780 0.931 . S
H797 C785 0.929 . S
H798 C786 0.960 . S
H799 C786 0.962 . S
H800 C786 0.960 . S
H801 C787 0.961 . S
H802 C787 0.961 . S
H803 C787 0.961 . S
H804 C788 0.931 . S
H805 C793 0.930 . S
H806 C794 0.956 . S
H807 C794 0.961 . S
H808 C794 0.961 . S
H809 C795 0.958 . S
H810 C795 0.961 . S
H811 C795 0.960 . S
C812 C813 1.391 . S
C812 C814 1.394 . S
C812 H828 0.931 . S
C813 C812 1.391 . S
C813 C817 1.376 . S
C814 C812 1.394 . S
C814 C815 1.369 . S
C814 C818 1.531 . S
C815 C814 1.369 . S
C815 C816 1.410 . S
C815 C823 1.503 . S
C816 C815 1.410 . S
C816 C817 1.392 . S
C816 C819 1.511 . S
C817 C813 1.376 . S
C817 C816 1.392 . S
C817 H829 0.929 . S
C818 C814 1.531 . S
C818 H830 0.960 . S
C818 H831 0.962 . S
C818 H832 0.960 . S
C819 C816 1.511 . S
C819 H833 0.961 . S
C819 H834 0.961 . S
C819 H835 0.961 . S
C820 C821 1.370 . S
C820 C822 1.363 . S
C820 H836 0.931 . S
C821 C820 1.370 . S
C821 C825 1.408 . S
C822 C820 1.363 . S
C822 C823 1.370 . S
C822 C826 1.524 . S
C823 C815 1.503 . S
C823 C822 1.370 . S
C823 C824 1.403 . S
C824 C823 1.403 . S
C824 C825 1.404 . S
C824 C827 1.539 . S
C825 C821 1.408 . S
C825 C824 1.404 . S
C825 H837 0.930 . S
C826 C822 1.524 . S
C826 H838 0.956 . S
C826 H839 0.961 . S
C826 H840 0.961 . S
C827 C824 1.539 . S
C827 H841 0.958 . S
C827 H842 0.961 . S
C827 H843 0.960 . S
H828 C812 0.931 . S
H829 C817 0.929 . S
H830 C818 0.960 . S
H831 C818 0.962 . S
H832 C818 0.960 . S
H833 C819 0.961 . S
H834 C819 0.961 . S
H835 C819 0.961 . S
H836 C820 0.931 . S
H837 C825 0.930 . S
H838 C826 0.956 . S
H839 C826 0.961 . S
H840 C826 0.961 . S
H841 C827 0.958 . S
H842 C827 0.961 . S
H843 C827 0.960 . S
C844 C845 1.391 . S
C844 C846 1.394 . S
C844 H860 0.931 . S
C845 C844 1.391 . S
C845 C849 1.376 . S
C846 C844 1.394 . S
C846 C847 1.369 . S
C846 C850 1.531 . S
C847 C846 1.369 . S
C847 C848 1.410 . S
C847 C855 1.503 . S
C848 C847 1.410 . S
C848 C849 1.392 . S
C848 C851 1.511 . S
C849 C845 1.376 . S
C849 C848 1.392 . S
C849 H861 0.929 . S
C850 C846 1.531 . S
C850 H862 0.960 . S
C850 H863 0.962 . S
C850 H864 0.960 . S
C851 C848 1.511 . S
C851 H865 0.961 . S
C851 H866 0.961 . S
C851 H867 0.961 . S
C852 C853 1.370 . S
C852 C854 1.363 . S
C852 H868 0.931 . S
C853 C852 1.370 . S
C853 C857 1.408 . S
C854 C852 1.363 . S
C854 C855 1.370 . S
C854 C858 1.524 . S
C855 C847 1.503 . S
C855 C854 1.370 . S
C855 C856 1.403 . S
C856 C855 1.403 . S
C856 C857 1.404 . S
C856 C859 1.539 . S
C857 C853 1.408 . S
C857 C856 1.404 . S
C857 H869 0.930 . S
C858 C854 1.524 . S
C858 H870 0.956 . S
C858 H871 0.961 . S
C858 H872 0.961 . S
C859 C856 1.539 . S
C859 H873 0.958 . S
C859 H874 0.961 . S
C859 H875 0.960 . S
H860 C844 0.931 . S
H861 C849 0.929 . S
H862 C850 0.960 . S
H863 C850 0.962 . S
H864 C850 0.960 . S
H865 C851 0.961 . S
H866 C851 0.961 . S
H867 C851 0.961 . S
H868 C852 0.931 . S
H869 C857 0.930 . S
H870 C858 0.956 . S
H871 C858 0.961 . S
H872 C858 0.961 . S
H873 C859 0.958 . S
H874 C859 0.961 . S
H875 C859 0.960 . S
C876 C877 1.391 . S
C876 C878 1.394 . S
C876 H892 0.931 . S
C877 C876 1.391 . S
C877 C881 1.376 . S
C878 C876 1.394 . S
C878 C879 1.369 . S
C878 C882 1.531 . S
C879 C878 1.369 . S
C879 C880 1.410 . S
C879 C887 1.503 . S
C880 C879 1.410 . S
C880 C881 1.392 . S
C880 C883 1.511 . S
C881 C877 1.376 . S
C881 C880 1.392 . S
C881 H893 0.929 . S
C882 C878 1.531 . S
C882 H894 0.960 . S
C882 H895 0.962 . S
C882 H896 0.960 . S
C883 C880 1.511 . S
C883 H897 0.961 . S
C883 H898 0.961 . S
C883 H899 0.961 . S
C884 C885 1.370 . S
C884 C886 1.363 . S
C884 H900 0.931 . S
C885 C884 1.370 . S
C885 C889 1.408 . S
C886 C884 1.363 . S
C886 C887 1.370 . S
C886 C890 1.524 . S
C887 C879 1.503 . S
C887 C886 1.370 . S
C887 C888 1.403 . S
C888 C887 1.403 . S
C888 C889 1.404 . S
C888 C891 1.539 . S
C889 C885 1.408 . S
C889 C888 1.404 . S
C889 H901 0.930 . S
C890 C886 1.524 . S
C890 H902 0.956 . S
C890 H903 0.961 . S
C890 H904 0.961 . S
C891 C888 1.539 . S
C891 H905 0.958 . S
C891 H906 0.961 . S
C891 H907 0.960 . S
H892 C876 0.931 . S
H893 C881 0.929 . S
H894 C882 0.960 . S
H895 C882 0.962 . S
H896 C882 0.960 . S
H897 C883 0.961 . S
H898 C883 0.961 . S
H899 C883 0.961 . S
H900 C884 0.931 . S
H901 C889 0.930 . S
H902 C890 0.956 . S
H903 C890 0.961 . S
H904 C890 0.961 . S
H905 C891 0.958 . S
H906 C891 0.961 . S
H907 C891 0.960 . S
C908 C909 1.391 . S
C908 C910 1.394 . S
C908 H924 0.931 . S
C909 C908 1.391 . S
C909 C913 1.376 . S
C910 C908 1.394 . S
C910 C911 1.369 . S
C910 C914 1.531 . S
C911 C910 1.369 . S
C911 C912 1.410 . S
C911 C919 1.503 . S
C912 C911 1.410 . S
C912 C913 1.392 . S
C912 C915 1.511 . S
C913 C909 1.376 . S
C913 C912 1.392 . S
C913 H925 0.929 . S
C914 C910 1.531 . S
C914 H926 0.960 . S
C914 H927 0.962 . S
C914 H928 0.960 . S
C915 C912 1.511 . S
C915 H929 0.961 . S
C915 H930 0.961 . S
C915 H931 0.961 . S
C916 C917 1.370 . S
C916 C918 1.363 1_554 S
C916 H932 0.931 . S
C917 C916 1.370 . S
C917 C921 1.408 . S
C918 C916 1.363 1_556 S
C918 C919 1.370 . S
C918 C922 1.524 . S
C919 C911 1.503 . S
C919 C918 1.370 . S
C919 C920 1.403 . S
C920 C919 1.403 . S
C920 C921 1.404 1_556 S
C920 C923 1.539 . S
C921 C917 1.408 . S
C921 C920 1.404 1_554 S
C921 H933 0.930 . S
C922 C918 1.524 . S
C922 H934 0.956 . S
C922 H935 0.961 . S
C922 H936 0.961 . S
C923 C920 1.539 . S
C923 H937 0.958 . S
C923 H938 0.961 . S
C923 H939 0.960 . S
H924 C908 0.931 . S
H925 C913 0.929 . S
H926 C914 0.960 . S
H927 C914 0.962 . S
H928 C914 0.960 . S
H929 C915 0.961 . S
H930 C915 0.961 . S
H931 C915 0.961 . S
H932 C916 0.931 . S
H933 C921 0.930 . S
H934 C922 0.956 . S
H935 C922 0.961 . S
H936 C922 0.961 . S
H937 C923 0.958 . S
H938 C923 0.961 . S
H939 C923 0.960 . S
C940 C941 1.391 . S
C940 C942 1.394 . S
C940 H956 0.931 . S
C941 C940 1.391 . S
C941 C945 1.376 . S
C942 C940 1.394 . S
C942 C943 1.369 . S
C942 C946 1.531 . S
C943 C942 1.369 . S
C943 C944 1.410 . S
C943 C951 1.503 . S
C944 C943 1.410 . S
C944 C945 1.392 . S
C944 C947 1.511 . S
C945 C941 1.376 . S
C945 C944 1.392 . S
C945 H957 0.929 . S
C946 C942 1.531 . S
C946 H958 0.960 . S
C946 H959 0.962 . S
C946 H960 0.960 . S
C947 C944 1.511 . S
C947 H961 0.961 . S
C947 H962 0.961 . S
C947 H963 0.961 . S
C948 C949 1.370 . S
C948 C950 1.363 . S
C948 H964 0.931 . S
C949 C948 1.370 . S
C949 C953 1.408 . S
C950 C948 1.363 . S
C950 C951 1.370 1_556 S
C950 C954 1.524 1_556 S
C951 C943 1.503 . S
C951 C950 1.370 1_554 S
C951 C952 1.403 1_554 S
C952 C951 1.403 1_556 S
C952 C953 1.404 . S
C952 C955 1.539 1_556 S
C953 C949 1.408 . S
C953 C952 1.404 . S
C953 H965 0.930 . S
C954 C950 1.524 1_554 S
C954 H966 0.956 . S
C954 H967 0.961 . S
C954 H968 0.961 1_554 S
C955 C952 1.539 1_554 S
C955 H969 0.958 . S
C955 H970 0.963 . S
C955 H971 0.960 . S
H956 C940 0.931 . S
H957 C945 0.929 . S
H958 C946 0.960 . S
H959 C946 0.962 . S
H960 C946 0.960 . S
H961 C947 0.961 . S
H962 C947 0.961 . S
H963 C947 0.961 . S
H964 C948 0.931 . S
H965 C953 0.930 . S
H966 C954 0.956 . S
H967 C954 0.961 . S
H968 C954 0.961 1_556 S
H969 C955 0.958 . S
H970 C955 0.963 . S
H971 C955 0.960 . S
C972 C973 1.391 . S
C972 C974 1.394 . S
C972 H988 0.931 . S
C973 C972 1.391 . S
C973 C977 1.376 . S
C974 C972 1.394 . S
C974 C975 1.369 . S
C974 C978 1.531 . S
C975 C974 1.369 . S
C975 C976 1.410 . S
C975 C983 1.503 . S
C976 C975 1.410 . S
C976 C977 1.392 . S
C976 C979 1.511 . S
C977 C973 1.376 . S
C977 C976 1.392 . S
C977 H989 0.929 . S
C978 C974 1.531 . S
C978 H990 0.960 . S
C978 H991 0.962 . S
C978 H992 0.960 . S
C979 C976 1.511 . S
C979 H993 0.961 . S
C979 H994 0.961 . S
C979 H995 0.961 . S
C980 C981 1.370 . S
C980 C982 1.363 . S
C980 H996 0.931 . S
C981 C980 1.370 . S
C981 C985 1.408 . S
C982 C980 1.363 . S
C982 C983 1.370 . S
C982 C986 1.524 . S
C983 C975 1.503 . S
C983 C982 1.370 . S
C983 C984 1.403 . S
C984 C983 1.403 . S
C984 C985 1.404 . S
C984 C987 1.539 . S
C985 C981 1.408 . S
C985 C984 1.404 . S
C985 H997 0.930 . S
C986 C982 1.524 . S
C986 H998 0.956 . S
C986 H999 0.961 . S
C986 H1000 0.961 . S
C987 C984 1.539 . S
C987 H1001 0.958 . S
C987 H1002 0.961 . S
C987 H1003 0.960 . S
H988 C972 0.931 . S
H989 C977 0.929 . S
H990 C978 0.960 . S
H991 C978 0.962 . S
H992 C978 0.960 . S
H993 C979 0.961 . S
H994 C979 0.961 . S
H995 C979 0.961 . S
H996 C980 0.931 . S
H997 C985 0.930 . S
H998 C986 0.956 . S
H999 C986 0.961 . S
H1000 C986 0.961 . S
H1001 C987 0.958 . S
H1002 C987 0.961 . S
H1003 C987 0.960 . S
C1004 C1005 1.391 . S
C1004 C1006 1.394 . S
C1004 H1020 0.931 . S
C1005 C1004 1.391 . S
C1005 C1009 1.376 . S
C1006 C1004 1.394 . S
C1006 C1007 1.369 . S
C1006 C1010 1.531 . S
C1007 C1006 1.369 . S
C1007 C1008 1.410 . S
C1007 C1015 1.503 . S
C1008 C1007 1.410 . S
C1008 C1009 1.392 . S
C1008 C1011 1.511 . S
C1009 C1005 1.376 . S
C1009 C1008 1.392 . S
C1009 H1021 0.929 . S
C1010 C1006 1.531 . S
C1010 H1022 0.960 . S
C1010 H1023 0.962 . S
C1010 H1024 0.960 . S
C1011 C1008 1.511 . S
C1011 H1025 0.961 . S
C1011 H1026 0.961 . S
C1011 H1027 0.961 . S
C1012 C1013 1.370 . S
C1012 C1014 1.363 . S
C1012 H1028 0.931 . S
C1013 C1012 1.370 . S
C1013 C1017 1.408 . S
C1014 C1012 1.363 . S
C1014 C1015 1.370 . S
C1014 C1018 1.524 . S
C1015 C1007 1.503 . S
C1015 C1014 1.370 . S
C1015 C1016 1.403 . S
C1016 C1015 1.403 . S
C1016 C1017 1.404 . S
C1016 C1019 1.539 . S
C1017 C1013 1.408 . S
C1017 C1016 1.404 . S
C1017 H1029 0.930 . S
C1018 C1014 1.524 . S
C1018 H1030 0.956 . S
C1018 H1031 0.961 . S
C1018 H1032 0.961 . S
C1019 C1016 1.539 . S
C1019 H1033 0.958 . S
C1019 H1034 0.961 . S
C1019 H1035 0.960 . S
H1020 C1004 0.931 . S
H1021 C1009 0.929 . S
H1022 C1010 0.960 . S
H1023 C1010 0.962 . S
H1024 C1010 0.960 . S
H1025 C1011 0.961 . S
H1026 C1011 0.961 . S
H1027 C1011 0.961 . S
H1028 C1012 0.931 . S
H1029 C1017 0.930 . S
H1030 C1018 0.956 . S
H1031 C1018 0.961 . S
H1032 C1018 0.961 . S
H1033 C1019 0.958 . S
H1034 C1019 0.961 . S
H1035 C1019 0.960 . S
C1036 C1037 1.391 . S
C1036 C1038 1.394 . S
C1036 H1052 0.931 . S
C1037 C1036 1.391 . S
C1037 C1041 1.376 . S
C1038 C1036 1.394 . S
C1038 C1039 1.369 . S
C1038 C1042 1.531 . S
C1039 C1038 1.369 . S
C1039 C1040 1.410 . S
C1039 C1047 1.503 . S
C1040 C1039 1.410 . S
C1040 C1041 1.392 . S
C1040 C1043 1.511 . S
C1041 C1037 1.376 . S
C1041 C1040 1.392 . S
C1041 H1053 0.929 . S
C1042 C1038 1.531 . S
C1042 H1054 0.960 . S
C1042 H1055 0.962 . S
C1042 H1056 0.960 . S
C1043 C1040 1.511 . S
C1043 H1057 0.961 . S
C1043 H1058 0.961 . S
C1043 H1059 0.961 . S
C1044 C1045 1.370 . S
C1044 C1046 1.363 . S
C1044 H1060 0.931 . S
C1045 C1044 1.370 . S
C1045 C1049 1.408 . S
C1046 C1044 1.363 . S
C1046 C1047 1.370 . S
C1046 C1050 1.524 . S
C1047 C1039 1.503 . S
C1047 C1046 1.370 . S
C1047 C1048 1.403 . S
C1048 C1047 1.403 . S
C1048 C1049 1.404 . S
C1048 C1051 1.539 . S
C1049 C1045 1.408 . S
C1049 C1048 1.404 . S
C1049 H1061 0.930 . S
C1050 C1046 1.524 . S
C1050 H1062 0.956 . S
C1050 H1063 0.961 . S
C1050 H1064 0.961 . S
C1051 C1048 1.539 . S
C1051 H1065 0.958 . S
C1051 H1066 0.961 . S
C1051 H1067 0.960 . S
H1052 C1036 0.931 . S
H1053 C1041 0.929 . S
H1054 C1042 0.960 . S
H1055 C1042 0.962 . S
H1056 C1042 0.960 . S
H1057 C1043 0.961 . S
H1058 C1043 0.961 . S
H1059 C1043 0.961 . S
H1060 C1044 0.931 . S
H1061 C1049 0.930 . S
H1062 C1050 0.956 . S
H1063 C1050 0.961 . S
H1064 C1050 0.961 . S
H1065 C1051 0.958 . S
H1066 C1051 0.961 . S
H1067 C1051 0.960 . S
C1068 C1069 1.391 . S
C1068 C1070 1.394 . S
C1068 H1084 0.931 . S
C1069 C1068 1.391 . S
C1069 C1073 1.376 . S
C1070 C1068 1.394 . S
C1070 C1071 1.369 . S
C1070 C1074 1.531 . S
C1071 C1070 1.369 . S
C1071 C1072 1.410 . S
C1071 C1079 1.503 . S
C1072 C1071 1.410 . S
C1072 C1073 1.392 . S
C1072 C1075 1.511 . S
C1073 C1069 1.376 . S
C1073 C1072 1.392 . S
C1073 H1085 0.929 . S
C1074 C1070 1.531 . S
C1074 H1086 0.960 . S
C1074 H1087 0.962 . S
C1074 H1088 0.960 . S
C1075 C1072 1.511 . S
C1075 H1089 0.961 . S
C1075 H1090 0.961 . S
C1075 H1091 0.961 . S
C1076 C1077 1.370 . S
C1076 C1078 1.363 . S
C1076 H1092 0.931 . S
C1077 C1076 1.370 . S
C1077 C1081 1.408 . S
C1078 C1076 1.363 . S
C1078 C1079 1.370 . S
C1078 C1082 1.524 . S
C1079 C1071 1.503 . S
C1079 C1078 1.370 . S
C1079 C1080 1.403 . S
C1080 C1079 1.403 . S
C1080 C1081 1.404 . S
C1080 C1083 1.539 . S
C1081 C1077 1.408 . S
C1081 C1080 1.404 . S
C1081 H1093 0.930 . S
C1082 C1078 1.524 . S
C1082 H1094 0.956 . S
C1082 H1095 0.961 . S
C1082 H1096 0.961 . S
C1083 C1080 1.539 . S
C1083 H1097 0.958 . S
C1083 H1098 0.961 . S
C1083 H1099 0.960 . S
H1084 C1068 0.931 . S
H1085 C1073 0.929 . S
H1086 C1074 0.960 . S
H1087 C1074 0.962 . S
H1088 C1074 0.960 . S
H1089 C1075 0.961 . S
H1090 C1075 0.961 . S
H1091 C1075 0.961 . S
H1092 C1076 0.931 . S
H1093 C1081 0.930 . S
H1094 C1082 0.956 . S
H1095 C1082 0.961 . S
H1096 C1082 0.961 . S
H1097 C1083 0.958 . S
H1098 C1083 0.961 . S
H1099 C1083 0.960 . S
C1100 C1101 1.391 1_554 S
C1100 C1102 1.394 1_554 S
C1100 H1116 0.931 . S
C1101 C1100 1.391 1_556 S
C1101 C1105 1.376 . S
C1102 C1100 1.394 1_556 S
C1102 C1103 1.369 . S
C1102 C1106 1.531 1_556 S
C1103 C1102 1.369 . S
C1103 C1104 1.410 . S
C1103 C1111 1.503 . S
C1104 C1103 1.410 . S
C1104 C1105 1.392 . S
C1104 C1107 1.511 . S
C1105 C1101 1.376 . S
C1105 C1104 1.392 . S
C1105 H1117 0.929 . S
C1106 C1102 1.531 1_554 S
C1106 H1118 0.960 . S
C1106 H1119 0.962 1_554 S
C1106 H1120 0.960 . S
C1107 C1104 1.511 . S
C1107 H1121 0.961 . S
C1107 H1122 0.961 . S
C1107 H1123 0.961 . S
C1108 C1109 1.370 . S
C1108 C1110 1.363 . S
C1108 H1124 0.931 . S
C1109 C1108 1.370 . S
C1109 C1113 1.408 . S
C1110 C1108 1.363 . S
C1110 C1111 1.370 . S
C1110 C1114 1.524 . S
C1111 C1103 1.503 . S
C1111 C1110 1.370 . S
C1111 C1112 1.403 . S
C1112 C1111 1.403 . S
C1112 C1113 1.404 . S
C1112 C1115 1.539 1_556 S
C1113 C1109 1.408 . S
C1113 C1112 1.404 . S
C1113 H1125 0.930 . S
C1114 C1110 1.524 . S
C1114 H1126 0.956 . S
C1114 H1127 0.961 . S
C1114 H1128 0.961 . S
C1115 C1112 1.539 1_554 S
C1115 H1129 0.958 . S
C1115 H1130 0.961 . S
C1115 H1131 0.960 . S
H1116 C1100 0.931 . S
H1117 C1105 0.929 . S
H1118 C1106 0.960 . S
H1119 C1106 0.962 1_556 S
H1120 C1106 0.960 . S
H1121 C1107 0.961 . S
H1122 C1107 0.961 . S
H1123 C1107 0.961 . S
H1124 C1108 0.931 . S
H1125 C1113 0.930 . S
H1126 C1114 0.956 . S
H1127 C1114 0.961 . S
H1128 C1114 0.961 . S
H1129 C1115 0.958 . S
H1130 C1115 0.961 . S
H1131 C1115 0.960 . S
C1132 C1133 1.391 . S
C1132 C1134 1.394 . S
C1132 H1148 0.931 . S
C1133 C1132 1.391 . S
C1133 C1137 1.376 . S
C1134 C1132 1.394 . S
C1134 C1135 1.369 . S
C1134 C1138 1.531 . S
C1135 C1134 1.369 . S
C1135 C1136 1.410 . S
C1135 C1143 1.503 . S
C1136 C1135 1.410 . S
C1136 C1137 1.392 . S
C1136 C1139 1.511 . S
C1137 C1133 1.376 . S
C1137 C1136 1.392 . S
C1137 H1149 0.929 . S
C1138 C1134 1.531 . S
C1138 H1150 0.960 . S
C1138 H1151 0.962 . S
C1138 H1152 0.960 . S
C1139 C1136 1.511 . S
C1139 H1153 0.961 . S
C1139 H1154 0.961 . S
C1139 H1155 0.961 . S
C1140 C1141 1.370 . S
C1140 C1142 1.363 . S
C1140 H1156 0.931 . S
C1141 C1140 1.370 . S
C1141 C1145 1.408 1_554 S
C1142 C1140 1.363 . S
C1142 C1143 1.370 . S
C1142 C1146 1.524 . S
C1143 C1135 1.503 . S
C1143 C1142 1.370 . S
C1143 C1144 1.403 1_554 S
C1144 C1143 1.403 1_556 S
C1144 C1145 1.404 . S
C1144 C1147 1.539 . S
C1145 C1141 1.408 1_556 S
C1145 C1144 1.404 . S
C1145 H1157 0.930 . S
C1146 C1142 1.524 . S
C1146 H1158 0.956 . S
C1146 H1159 0.961 . S
C1146 H1160 0.961 . S
C1147 C1144 1.539 . S
C1147 H1161 0.958 . S
C1147 H1162 0.961 . S
C1147 H1163 0.960 . S
H1148 C1132 0.931 . S
H1149 C1137 0.929 . S
H1150 C1138 0.960 . S
H1151 C1138 0.962 . S
H1152 C1138 0.960 . S
H1153 C1139 0.961 . S
H1154 C1139 0.961 . S
H1155 C1139 0.961 . S
H1156 C1140 0.931 . S
H1157 C1145 0.930 . S
H1158 C1146 0.956 . S
H1159 C1146 0.961 . S
H1160 C1146 0.961 . S
H1161 C1147 0.958 . S
H1162 C1147 0.961 . S
H1163 C1147 0.960 . S
C1164 C1165 1.391 . S
C1164 C1166 1.394 . S
C1164 H1180 0.931 . S
C1165 C1164 1.391 . S
C1165 C1169 1.376 . S
C1166 C1164 1.394 . S
C1166 C1167 1.369 1_554 S
C1166 C1170 1.531 1_554 S
C1167 C1166 1.369 1_556 S
C1167 C1168 1.410 1_556 S
C1167 C1175 1.503 1_545 S
C1168 C1167 1.410 1_554 S
C1168 C1169 1.392 . S
C1168 C1171 1.511 1_554 S
C1169 C1165 1.376 . S
C1169 C1168 1.392 . S
C1169 H1181 0.929 . S
C1170 C1166 1.531 1_556 S
C1170 H1182 0.960 . S
C1170 H1183 0.962 1_556 S
C1170 H1184 0.960 . S
C1171 C1168 1.511 1_556 S
C1171 H1185 0.961 1_556 S
C1171 H1186 0.963 1_545 S
C1171 H1187 0.961 . S
C1172 C1173 1.370 1_554 S
C1172 C1174 1.363 . S
C1172 H1188 0.931 . S
C1173 C1172 1.370 1_556 S
C1173 C1177 1.408 . S
C1174 C1172 1.363 . S
C1174 C1175 1.370 1_554 S
C1174 C1178 1.524 . S
C1175 C1167 1.503 1_565 S
C1175 C1174 1.370 1_556 S
C1175 C1176 1.403 . S
C1176 C1175 1.403 . S
C1176 C1177 1.404 . S
C1176 C1179 1.505 1_565 S
C1177 C1173 1.408 . S
C1177 C1176 1.404 . S
C1177 H1189 0.930 . S
C1178 C1174 1.524 . S
C1178 H1190 0.956 . S
C1178 H1191 0.961 . S
C1178 H1192 0.961 . S
C1179 C1176 1.505 1_545 S
C1179 H1193 1.000 . S
C1179 H1194 0.927 1_545 S
C1179 H1195 0.990 . S
H1180 C1164 0.931 . S
H1181 C1169 0.929 . S
H1182 C1170 0.960 . S
H1183 C1170 0.962 1_554 S
H1184 C1170 0.960 . S
H1185 C1171 0.961 1_554 S
H1186 C1171 0.963 1_565 S
H1187 C1171 0.961 . S
H1188 C1172 0.931 . S
H1189 C1177 0.930 . S
H1190 C1178 0.956 . S
H1191 C1178 0.961 . S
H1192 C1178 0.961 . S
H1193 C1179 1.000 . S
H1194 C1179 0.927 1_565 S
H1195 C1179 0.990 . S
C1196 C1197 1.391 . S
C1196 C1198 1.394 . S
C1196 H1212 0.931 . S
C1197 C1196 1.391 . S
C1197 C1201 1.376 . S
C1198 C1196 1.394 . S
C1198 C1199 1.369 . S
C1198 C1202 1.531 . S
C1199 C1198 1.369 . S
C1199 C1200 1.410 . S
C1199 C1207 1.503 . S
C1200 C1199 1.410 . S
C1200 C1201 1.392 . S
C1200 C1203 1.511 . S
C1201 C1197 1.376 . S
C1201 C1200 1.392 . S
C1201 H1213 0.929 . S
C1202 C1198 1.531 . S
C1202 H1214 0.960 . S
C1202 H1215 0.962 . S
C1202 H1216 0.960 1_554 S
C1203 C1200 1.511 . S
C1203 H1217 0.961 . S
C1203 H1218 0.961 . S
C1203 H1219 0.961 . S
C1204 C1205 1.370 . S
C1204 C1206 1.363 . S
C1204 H1220 0.931 . S
C1205 C1204 1.370 . S
C1205 C1209 1.408 . S
C1206 C1204 1.363 . S
C1206 C1207 1.370 . S
C1206 C1210 1.524 . S
C1207 C1199 1.503 . S
C1207 C1206 1.370 . S
C1207 C1208 1.403 . S
C1208 C1207 1.403 . S
C1208 C1209 1.404 . S
C1208 C1211 1.539 . S
C1209 C1205 1.408 . S
C1209 C1208 1.404 . S
C1209 H1221 0.930 . S
C1210 C1206 1.524 . S
C1210 H1222 0.956 . S
C1210 H1223 0.961 . S
C1210 H1224 0.961 . S
C1211 C1208 1.539 . S
C1211 H1225 0.958 . S
C1211 H1226 0.961 . S
C1211 H1227 0.960 . S
H1212 C1196 0.931 . S
H1213 C1201 0.929 . S
H1214 C1202 0.960 . S
H1215 C1202 0.962 . S
H1216 C1202 0.960 1_556 S
H1217 C1203 0.961 . S
H1218 C1203 0.961 . S
H1219 C1203 0.961 . S
H1220 C1204 0.931 . S
H1221 C1209 0.930 . S
H1222 C1210 0.956 . S
H1223 C1210 0.961 . S
H1224 C1210 0.961 . S
H1225 C1211 0.958 . S
H1226 C1211 0.961 . S
H1227 C1211 0.960 . S
C1228 C1229 1.391 . S
C1228 C1230 1.394 . S
C1228 H1244 0.931 . S
C1229 C1228 1.391 . S
C1229 C1233 1.376 . S
C1230 C1228 1.394 . S
C1230 C1231 1.369 . S
C1230 C1234 1.531 . S
C1231 C1230 1.369 . S
C1231 C1232 1.410 . S
C1231 C1239 1.503 1_455 S
C1232 C1231 1.410 . S
C1232 C1233 1.392 . S
C1232 C1235 1.508 . S
C1233 C1229 1.376 . S
C1233 C1232 1.392 . S
C1233 H1245 0.929 . S
C1234 C1230 1.531 . S
C1234 H1246 0.960 . S
C1234 H1247 0.962 . S
C1234 H1248 0.960 . S
C1235 C1232 1.508 . S
C1235 H1249 0.960 . S
C1235 H1250 0.963 1_455 S
C1235 H1251 0.963 1_455 S
C1236 C1237 1.370 . S
C1236 C1238 1.363 . S
C1236 H1252 0.931 . S
C1237 C1236 1.370 . S
C1237 C1241 1.408 . S
C1238 C1236 1.363 . S
C1238 C1239 1.370 . S
C1238 C1242 1.524 . S
C1239 C1231 1.503 1_655 S
C1239 C1238 1.370 . S
C1239 C1240 1.403 . S
C1240 C1239 1.403 . S
C1240 C1241 1.404 . S
C1240 C1243 1.539 . S
C1241 C1237 1.408 . S
C1241 C1240 1.404 . S
C1241 H1253 0.930 . S
C1242 C1238 1.524 . S
C1242 H1254 0.956 . S
C1242 H1255 0.961 . S
C1242 H1256 0.961 . S
C1243 C1240 1.539 . S
C1243 H1257 0.979 . S
C1243 H1258 0.961 . S
C1243 H1259 0.960 1_655 S
H1244 C1228 0.931 . S
H1245 C1233 0.929 . S
H1246 C1234 0.960 . S
H1247 C1234 0.962 . S
H1248 C1234 0.960 . S
H1249 C1235 0.960 . S
H1250 C1235 0.963 1_655 S
H1251 C1235 0.963 1_655 S
H1252 C1236 0.931 . S
H1253 C1241 0.930 . S
H1254 C1242 0.956 . S
H1255 C1242 0.961 . S
H1256 C1242 0.961 . S
H1257 C1243 0.979 . S
H1258 C1243 0.961 . S
H1259 C1243 0.960 1_455 S
C1260 C1261 1.391 . S
C1260 C1262 1.394 . S
C1260 H1276 0.931 . S
C1261 C1260 1.391 . S
C1261 C1265 1.376 . S
C1262 C1260 1.394 . S
C1262 C1263 1.369 . S
C1262 C1266 1.531 . S
C1263 C1262 1.369 . S
C1263 C1264 1.410 . S
C1263 C1271 1.503 1_565 S
C1264 C1263 1.410 . S
C1264 C1265 1.392 . S
C1264 C1267 1.511 . S
C1265 C1261 1.376 . S
C1265 C1264 1.392 . S
C1265 H1277 0.929 . S
C1266 C1262 1.531 . S
C1266 H1278 0.960 1_565 S
C1266 H1279 0.962 . S
C1266 H1280 0.960 . S
C1267 C1264 1.511 . S
C1267 H1281 0.961 . S
C1267 H1282 0.961 1_565 S
C1267 H1283 0.961 . S
C1268 C1269 1.370 . S
C1268 C1270 1.363 . S
C1268 H1284 0.931 . S
C1269 C1268 1.370 . S
C1269 C1273 1.408 . S
C1270 C1268 1.363 . S
C1270 C1271 1.370 . S
C1270 C1274 1.524 1_545 S
C1271 C1263 1.503 1_545 S
C1271 C1270 1.370 . S
C1271 C1272 1.403 . S
C1272 C1271 1.403 . S
C1272 C1273 1.404 . S
C1272 C1275 1.539 . S
C1273 C1269 1.408 . S
C1273 C1272 1.404 . S
C1273 H1285 0.930 . S
C1274 C1270 1.524 1_565 S
C1274 H1286 0.956 . S
C1274 H1287 0.961 . S
C1274 H1288 0.961 1_565 S
C1275 C1272 1.539 . S
C1275 H1289 0.958 . S
C1275 H1290 0.961 . S
C1275 H1291 0.960 . S
H1276 C1260 0.931 . S
H1277 C1265 0.929 . S
H1278 C1266 0.960 1_545 S
H1279 C1266 0.962 . S
H1280 C1266 0.960 . S
H1281 C1267 0.961 . S
H1282 C1267 0.961 1_545 S
H1283 C1267 0.961 . S
H1284 C1268 0.931 . S
H1285 C1273 0.930 . S
H1286 C1274 0.956 . S
H1287 C1274 0.961 . S
H1288 C1274 0.961 1_545 S
H1289 C1275 0.958 . S
H1290 C1275 0.961 . S
H1291 C1275 0.960 . S
C1292 C1293 1.391 . S
C1292 C1294 1.394 . S
C1292 H1308 0.931 . S
C1293 C1292 1.391 . S
C1293 C1297 1.376 . S
C1294 C1292 1.394 . S
C1294 C1295 1.369 . S
C1294 C1298 1.531 . S
C1295 C1294 1.369 . S
C1295 C1296 1.410 . S
C1295 C1303 1.503 . S
C1296 C1295 1.410 . S
C1296 C1297 1.392 . S
C1296 C1299 1.511 . S
C1297 C1293 1.376 . S
C1297 C1296 1.392 . S
C1297 H1309 0.929 . S
C1298 C1294 1.531 . S
C1298 H1310 0.960 . S
C1298 H1311 0.962 . S
C1298 H1312 0.960 . S
C1299 C1296 1.511 . S
C1299 H1313 0.961 . S
C1299 H1314 0.961 . S
C1299 H1315 0.961 . S
C1300 C1301 1.370 . S
C1300 C1302 1.363 . S
C1300 H1316 0.931 . S
C1301 C1300 1.370 . S
C1301 C1305 1.408 . S
C1302 C1300 1.363 . S
C1302 C1303 1.370 . S
C1302 C1306 1.524 . S
C1303 C1295 1.503 . S
C1303 C1302 1.370 . S
C1303 C1304 1.403 . S
C1304 C1303 1.403 . S
C1304 C1305 1.404 . S
C1304 C1307 1.539 . S
C1305 C1301 1.408 . S
C1305 C1304 1.404 . S
C1305 H1317 0.930 . S
C1306 C1302 1.524 . S
C1306 H1318 0.956 . S
C1306 H1319 0.961 . S
C1306 H1320 0.961 . S
C1307 C1304 1.539 . S
C1307 H1321 0.958 . S
C1307 H1322 0.961 . S
C1307 H1323 0.960 . S
H1308 C1292 0.931 . S
H1309 C1297 0.929 . S
H1310 C1298 0.960 . S
H1311 C1298 0.962 . S
H1312 C1298 0.960 . S
H1313 C1299 0.961 . S
H1314 C1299 0.961 . S
H1315 C1299 0.961 . S
H1316 C1300 0.931 . S
H1317 C1305 0.930 . S
H1318 C1306 0.956 . S
H1319 C1306 0.961 . S
H1320 C1306 0.961 . S
H1321 C1307 0.958 . S
H1322 C1307 0.961 . S
H1323 C1307 0.960 . S
C1324 C1325 1.391 . S
C1324 C1326 1.394 . S
C1324 H1340 0.931 . S
C1325 C1324 1.391 . S
C1325 C1329 1.376 . S
C1326 C1324 1.394 . S
C1326 C1327 1.369 . S
C1326 C1330 1.531 . S
C1327 C1326 1.369 . S
C1327 C1328 1.410 . S
C1327 C1335 1.503 1_455 S
C1328 C1327 1.410 . S
C1328 C1329 1.392 . S
C1328 C1331 1.511 1_455 S
C1329 C1325 1.376 . S
C1329 C1328 1.392 . S
C1329 H1341 0.929 . S
C1330 C1326 1.531 . S
C1330 H1342 0.960 . S
C1330 H1343 0.962 . S
C1330 H1344 0.960 . S
C1331 C1328 1.511 1_655 S
C1331 H1345 0.961 1_656 S
C1331 H1346 0.961 . S
C1331 H1347 0.961 . S
C1332 C1333 1.370 . S
C1332 C1334 1.363 . S
C1332 H1348 0.931 . S
C1333 C1332 1.370 . S
C1333 C1337 1.408 . S
C1334 C1332 1.363 . S
C1334 C1335 1.370 . S
C1334 C1338 1.524 . S
C1335 C1327 1.503 1_655 S
C1335 C1334 1.370 . S
C1335 C1336 1.403 . S
C1336 C1335 1.403 . S
C1336 C1337 1.404 . S
C1336 C1339 1.539 . S
C1337 C1333 1.408 . S
C1337 C1336 1.404 . S
C1337 H1349 0.930 . S
C1338 C1334 1.524 . S
C1338 H1350 0.956 1_655 S
C1338 H1351 0.961 . S
C1338 H1352 0.961 . S
C1339 C1336 1.539 . S
C1339 H1353 0.958 . S
C1339 H1354 0.961 . S
C1339 H1355 0.984 . S
H1340 C1324 0.931 . S
H1341 C1329 0.929 . S
H1342 C1330 0.960 . S
H1343 C1330 0.962 . S
H1344 C1330 0.960 . S
H1345 C1331 0.961 1_454 S
H1346 C1331 0.961 . S
H1347 C1331 0.961 . S
H1348 C1332 0.931 . S
H1349 C1337 0.930 . S
H1350 C1338 0.956 1_455 S
H1351 C1338 0.961 . S
H1352 C1338 0.961 . S
H1353 C1339 0.958 . S
H1354 C1339 0.961 . S
H1355 C1339 0.984 . S
C397 C271 1.193 . S
C405 C7 1.195 . S
C429 C304 1.175 . S
C437 C40 1.191 . S
C461 C337 1.177 . S
C469 C73 1.183 . S
C493 C370 1.189 . S
C501 C106 1.195 . S
C525 C139 1.175 . S
C533 C205 1.191 . S
C557 C238 1.193 . S
C565 C172 1.195 . S
C589 N13 1.302 . S
C597 N2 1.319 . S
C621 N35 1.299 . S
C629 N46 1.321 1_556 S
C653 N68 1.324 . S
C661 N79 1.314 . S
C685 N101 1.293 . S
C693 N112 1.324 . S
C717 N134 1.291 . S
C725 N145 1.328 . S
C749 N167 1.326 . S
C757 N178 1.314 . S
C781 N211 1.318 1_554 S
C789 N200 1.312 . S
C813 N233 1.342 . S
C821 N244 1.306 . S
C845 N277 1.287 . S
C853 N266 1.326 . S
C877 N310 1.296 . S
C885 N299 1.325 . S
C909 N343 1.296 . S
C917 N332 1.325 . S
C941 N365 1.307 . S
C949 N376 1.317 . S
C973 C21 1.586 . S
C981 C351 1.574 . S
C1005 C54 1.560 . S
C1013 C384 1.580 . S
C1037 C87 1.558 . S
C1045 C219 1.577 . S
C1069 C252 1.581 . S
C1077 C120 1.582 . S
C1101 C285 1.587 1_556 S
C1109 C153 1.576 . S
C1133 C318 1.563 . S
C1141 C186 1.581 1_554 S
C1165 C18 1.341 . S
C1173 C249 1.355 . S
C1197 C282 1.372 . S
C1205 C51 1.363 . S
C1229 C315 1.325 . S
C1237 C84 1.344 . S
C1261 C117 1.356 . S
C1269 C348 1.350 . S
C1293 C381 1.374 . S
C1301 C150 1.362 . S
C1325 C183 1.325 . S
C1333 C216 1.343 . S
