# Generated by pormake.
# Topology wmi, (6)-cn, num edge types: 1
# Building blocks:
#     Node 0, Type 0, BuildingBlock: KUMBOL_clean_sbu_1, # of connection points: 6
#     Node 1, Type 0, BuildingBlock: KUMBOL_clean_sbu_1, # of connection points: 6
#     Node 2, Type 0, BuildingBlock: KUMBOL_clean_sbu_1, # of connection points: 6
#     Node 3, Type 0, BuildingBlock: KUMBOL_clean_sbu_1, # of connection points: 6
#     Node 4, Type 0, BuildingBlock: KUMBOL_clean_sbu_1, # of connection points: 6
#     Node 5, Type 0, BuildingBlock: KUMBOL_clean_sbu_1, # of connection points: 6
#     Node 6, Type 0, BuildingBlock: KUMBOL_clean_sbu_1, # of connection points: 6
#     Node 7, Type 0, BuildingBlock: KUMBOL_clean_sbu_1, # of connection points: 6
#     Node 8, Type 0, BuildingBlock: KUMBOL_clean_sbu_1, # of connection points: 6
#     Node 9, Type 0, BuildingBlock: KUMBOL_clean_sbu_1, # of connection points: 6
#     Node 10, Type 0, BuildingBlock: KUMBOL_clean_sbu_1, # of connection points: 6
#     Node 11, Type 0, BuildingBlock: KUMBOL_clean_sbu_1, # of connection points: 6
#     Node 12, Type 0, BuildingBlock: KUMBOL_clean_sbu_1, # of connection points: 6
#     Node 13, Type 0, BuildingBlock: KUMBOL_clean_sbu_1, # of connection points: 6
#     Node 14, Type 0, BuildingBlock: KUMBOL_clean_sbu_1, # of connection points: 6
#     Node 15, Type 0, BuildingBlock: KUMBOL_clean_sbu_1, # of connection points: 6
#     Node 16, Type 0, BuildingBlock: KUMBOL_clean_sbu_1, # of connection points: 6
#     Node 17, Type 0, BuildingBlock: KUMBOL_clean_sbu_1, # of connection points: 6
#     Edge 18, Type (0, 0), BuildingBlock: MIFKUJ_clean_linker_0, # of connection points: 2
#     Edge 19, Type (0, 0), BuildingBlock: MIFKUJ_clean_linker_0, # of connection points: 2
#     Edge 20, Type (0, 0), BuildingBlock: MIFKUJ_clean_linker_0, # of connection points: 2
#     Edge 21, Type (0, 0), BuildingBlock: MIFKUJ_clean_linker_0, # of connection points: 2
#     Edge 22, Type (0, 0), BuildingBlock: MIFKUJ_clean_linker_0, # of connection points: 2
#     Edge 23, Type (0, 0), BuildingBlock: MIFKUJ_clean_linker_0, # of connection points: 2
#     Edge 24, Type (0, 0), BuildingBlock: MIFKUJ_clean_linker_0, # of connection points: 2
#     Edge 25, Type (0, 0), BuildingBlock: MIFKUJ_clean_linker_0, # of connection points: 2
#     Edge 26, Type (0, 0), BuildingBlock: MIFKUJ_clean_linker_0, # of connection points: 2
#     Edge 27, Type (0, 0), BuildingBlock: MIFKUJ_clean_linker_0, # of connection points: 2
#     Edge 28, Type (0, 0), BuildingBlock: MIFKUJ_clean_linker_0, # of connection points: 2
#     Edge 29, Type (0, 0), BuildingBlock: MIFKUJ_clean_linker_0, # of connection points: 2
#     Edge 30, Type (0, 0), BuildingBlock: MIFKUJ_clean_linker_0, # of connection points: 2
#     Edge 31, Type (0, 0), BuildingBlock: MIFKUJ_clean_linker_0, # of connection points: 2
#     Edge 32, Type (0, 0), BuildingBlock: MIFKUJ_clean_linker_0, # of connection points: 2
#     Edge 33, Type (0, 0), BuildingBlock: MIFKUJ_clean_linker_0, # of connection points: 2
#     Edge 34, Type (0, 0), BuildingBlock: MIFKUJ_clean_linker_0, # of connection points: 2
#     Edge 35, Type (0, 0), BuildingBlock: MIFKUJ_clean_linker_0, # of connection points: 2
#     Edge 36, Type (0, 0), BuildingBlock: MIFKUJ_clean_linker_0, # of connection points: 2
#     Edge 37, Type (0, 0), BuildingBlock: MIFKUJ_clean_linker_0, # of connection points: 2
#     Edge 38, Type (0, 0), BuildingBlock: MIFKUJ_clean_linker_0, # of connection points: 2
#     Edge 39, Type (0, 0), BuildingBlock: MIFKUJ_clean_linker_0, # of connection points: 2
#     Edge 40, Type (0, 0), BuildingBlock: MIFKUJ_clean_linker_0, # of connection points: 2
#     Edge 41, Type (0, 0), BuildingBlock: MIFKUJ_clean_linker_0, # of connection points: 2
#     Edge 42, Type (0, 0), BuildingBlock: MIFKUJ_clean_linker_0, # of connection points: 2
#     Edge 43, Type (0, 0), BuildingBlock: MIFKUJ_clean_linker_0, # of connection points: 2
#     Edge 44, Type (0, 0), BuildingBlock: MIFKUJ_clean_linker_0, # of connection points: 2
#     Edge 45, Type (0, 0), BuildingBlock: MIFKUJ_clean_linker_0, # of connection points: 2
#     Edge 46, Type (0, 0), BuildingBlock: MIFKUJ_clean_linker_0, # of connection points: 2
#     Edge 47, Type (0, 0), BuildingBlock: MIFKUJ_clean_linker_0, # of connection points: 2
#     Edge 48, Type (0, 0), BuildingBlock: MIFKUJ_clean_linker_0, # of connection points: 2
#     Edge 49, Type (0, 0), BuildingBlock: MIFKUJ_clean_linker_0, # of connection points: 2
#     Edge 50, Type (0, 0), BuildingBlock: MIFKUJ_clean_linker_0, # of connection points: 2
#     Edge 51, Type (0, 0), BuildingBlock: MIFKUJ_clean_linker_0, # of connection points: 2
#     Edge 52, Type (0, 0), BuildingBlock: MIFKUJ_clean_linker_0, # of connection points: 2
#     Edge 53, Type (0, 0), BuildingBlock: MIFKUJ_clean_linker_0, # of connection points: 2
#     Edge 54, Type (0, 0), BuildingBlock: MIFKUJ_clean_linker_0, # of connection points: 2
#     Edge 55, Type (0, 0), BuildingBlock: MIFKUJ_clean_linker_0, # of connection points: 2
#     Edge 56, Type (0, 0), BuildingBlock: MIFKUJ_clean_linker_0, # of connection points: 2
#     Edge 57, Type (0, 0), BuildingBlock: MIFKUJ_clean_linker_0, # of connection points: 2
#     Edge 58, Type (0, 0), BuildingBlock: MIFKUJ_clean_linker_0, # of connection points: 2
#     Edge 59, Type (0, 0), BuildingBlock: MIFKUJ_clean_linker_0, # of connection points: 2
#     Edge 60, Type (0, 0), BuildingBlock: MIFKUJ_clean_linker_0, # of connection points: 2
#     Edge 61, Type (0, 0), BuildingBlock: MIFKUJ_clean_linker_0, # of connection points: 2
#     Edge 62, Type (0, 0), BuildingBlock: MIFKUJ_clean_linker_0, # of connection points: 2
#     Edge 63, Type (0, 0), BuildingBlock: MIFKUJ_clean_linker_0, # of connection points: 2
#     Edge 64, Type (0, 0), BuildingBlock: MIFKUJ_clean_linker_0, # of connection points: 2
#     Edge 65, Type (0, 0), BuildingBlock: MIFKUJ_clean_linker_0, # of connection points: 2
#     Edge 66, Type (0, 0), BuildingBlock: MIFKUJ_clean_linker_0, # of connection points: 2
#     Edge 67, Type (0, 0), BuildingBlock: MIFKUJ_clean_linker_0, # of connection points: 2
#     Edge 68, Type (0, 0), BuildingBlock: MIFKUJ_clean_linker_0, # of connection points: 2
#     Edge 69, Type (0, 0), BuildingBlock: MIFKUJ_clean_linker_0, # of connection points: 2
#     Edge 70, Type (0, 0), BuildingBlock: MIFKUJ_clean_linker_0, # of connection points: 2
#     Edge 71, Type (0, 0), BuildingBlock: MIFKUJ_clean_linker_0, # of connection points: 2
# Relax obj value: 0.064
# Max RMSD: 0.170
# Mean RMSD: 0.170
data_MOF--net-wmi--node1-KUMBOL_clean_sbu_1--edge1-MIFKUJ_clean_linker_0
_symmetry_space_group_name_H-M    P1
_symmetry_Int_Tables_number       1
_symmetry_cell_setting            triclinic
loop_
_symmetry_equiv_pos_as_xyz
'x, y, z'
_cell_length_a     48.598012
_cell_length_b     48.594014
_cell_length_c     105.93541
_cell_angle_alpha  90.014307
_cell_angle_beta   90.014861
_cell_angle_gamma 119.95527
loop_
_atom_site_label
_atom_site_type_symbol
_atom_site_fract_x
_atom_site_fract_y
_atom_site_fract_z
_atom_type_partial_charge
C0 C 0.56521 0.00727 0.11982 0.0
C1 C 0.58861 0.98902 0.10408 0.0
C2 C 0.57297 0.0059 0.10732 0.0
C3 C 0.59527 0.97277 0.11348 0.0
C4 C 0.57304 0.99213 0.12937 0.0
C5 C 0.5876 0.97441 0.1261 0.0
N6 N 0.55061 0.02406 0.1227 0.0
C7 C 0.5458 0.02918 0.13494 0.0
C8 C 0.56651 0.99576 0.14194 0.0
C9 C 0.55327 0.01479 0.14474 0.0
Gd10 Gd 0.44609 0.99763 0.09313 0.0
Gd11 Gd 0.53698 0.04579 0.10581 0.0
N12 N 0.56612 0.02187 0.09843 0.0
C13 C 0.59772 0.98951 0.09154 0.0
C14 C 0.57703 0.02418 0.08637 0.0
C15 C 0.59238 0.00761 0.0827 0.0
H16 H 0.57479 0.03924 0.0795 0.0
H17 H 0.60043 0.00911 0.07306 0.0
H18 H 0.41032 0.01522 0.11629 0.0
H19 H 0.53653 0.04467 0.13716 0.0
H20 H 0.38053 0.04343 0.1191 0.0
H21 H 0.60974 0.97682 0.08866 0.0
H22 H 0.60697 0.95943 0.11112 0.0
H23 H 0.4455 0.98712 0.06181 0.0
H24 H 0.57231 0.98464 0.14955 0.0
H25 H 0.549 0.01854 0.15445 0.0
H26 H 0.38225 0.0856 0.07799 0.0
H27 H 0.59351 0.96233 0.13328 0.0
H28 H 0.42142 0.05074 0.04373 0.0
H29 H 0.43942 0.01135 0.04234 0.0
N30 N 0.43757 0.01689 0.07405 0.0
C31 C 0.42497 0.03625 0.07501 0.0
C32 C 0.44073 0.00639 0.06251 0.0
C33 C 0.42576 0.04134 0.0523 0.0
C34 C 0.43605 0.01923 0.05147 0.0
C35 C 0.41889 0.04917 0.06414 0.0
H36 H 0.39992 0.07824 0.05714 0.0
N37 N 0.41986 0.02648 0.09694 0.0
C38 C 0.41511 0.04055 0.08675 0.0
C39 C 0.38649 0.05888 0.09973 0.0
C40 C 0.39879 0.05765 0.08793 0.0
C41 C 0.40677 0.02655 0.10834 0.0
C42 C 0.39015 0.04289 0.10995 0.0
O43 O 0.50667 0.99323 0.10913 0.0
O44 O 0.47683 0.97477 0.09109 0.0
O45 O 0.4112 0.95477 0.10277 0.0
O46 O 0.40244 0.96389 0.08375 0.0
O47 O 0.53146 0.04605 0.08402 0.0
O48 O 0.48314 1.00102 0.07927 0.0
O49 O 0.46746 0.04753 0.10139 0.0
O50 O 0.51667 0.06818 0.09333 0.0
O51 O 0.58801 0.08147 0.10486 0.0
O52 O 0.5556 0.08924 0.11669 0.0
O53 O 0.45327 0.98985 0.1133 0.0
O54 O 0.49692 0.03562 0.12081 0.0
C55 C 0.49404 0.97215 0.10011 0.0
C56 C 0.51159 0.02406 0.07593 0.0
C57 C 0.38499 0.91099 0.08922 0.0
C58 C 0.34884 0.85391 0.09003 0.0
C59 C 0.39515 0.87569 0.07639 0.0
C60 C 0.40394 0.90624 0.08049 0.0
C61 C 0.36768 0.84959 0.08109 0.0
C62 C 0.35767 0.88472 0.09416 0.0
C63 C 0.39324 0.94334 0.09287 0.0
C64 C 0.39437 0.07205 0.07724 0.0
C65 C 0.40451 0.06793 0.06538 0.0
H66 H 0.37373 0.07167 0.101 0.0
C67 C 0.49388 0.0723 0.09753 0.0
C68 C 0.46796 0.01008 0.12245 0.0
C69 C 0.61122 0.1315 0.11708 0.0
C70 C 0.66582 0.17718 0.11596 0.0
C71 C 0.63017 0.17342 0.13285 0.0
C72 C 0.60623 0.14482 0.128 0.0
C73 C 0.65961 0.18939 0.12694 0.0
C74 C 0.64131 0.148 0.11094 0.0
C75 C 0.58466 0.10025 0.11268 0.0
H76 H 0.40941 0.87244 0.06937 0.0
H77 H 0.4252 0.92622 0.07664 0.0
H78 H 0.36098 0.82603 0.0777 0.0
H79 H 0.34289 0.88828 0.10086 0.0
H80 H 0.6259 0.18324 0.14131 0.0
H81 H 0.58373 0.1329 0.13295 0.0
H82 H 0.67774 0.21163 0.13097 0.0
H83 H 0.64574 0.13814 0.10253 0.0
C84 C 0.03929 0.5804 0.1213 0.0
C85 C 0.05249 0.62063 0.10525 0.0
C86 C 0.03832 0.58839 0.10879 0.0
C87 C 0.06842 0.6445 0.11434 0.0
C88 C 0.05496 0.60426 0.13048 0.0
C89 C 0.06962 0.63633 0.12692 0.0
N90 N 0.02596 0.54918 0.12439 0.0
C91 C 0.02649 0.54011 0.13654 0.0
C92 C 0.05582 0.59514 0.14295 0.0
C93 C 0.0414 0.56292 0.14599 0.0
Gd94 Gd 0.05594 0.4812 0.09171 0.0
Gd95 Gd 1.00227 0.5124 0.10796 0.0
N96 N 0.02344 0.5647 0.10012 0.0
C97 C 0.04981 0.62794 0.09271 0.0
C98 C 0.01831 0.57184 0.0882 0.0
C99 C 0.03208 0.60342 0.08422 0.0
H100 H 1.00275 0.55352 0.08178 0.0
H101 H 0.02848 0.60884 0.07466 0.0
H102 H 0.0596 0.43653 0.11512 0.0
H103 H 0.01525 0.51523 0.13896 0.0
H104 H 0.0356 0.37973 0.12048 0.0
H105 H 0.06035 0.65239 0.08961 0.0
H106 H 0.07966 0.66936 0.11175 0.0
H107 H 0.05366 0.48587 0.06021 0.0
H108 H 0.06758 0.61277 0.15028 0.0
H109 H 0.04184 0.55564 0.15561 0.0
H110 H 0.98457 0.32638 0.08204 0.0
H111 H 0.08193 0.65501 0.13383 0.0
H112 H 1.00244 0.39125 0.04545 0.0
H113 H 0.03152 0.44934 0.042 0.0
N114 N 0.03702 0.44874 0.07374 0.0
C115 C 0.02299 0.41695 0.07575 0.0
C116 C 0.0409 0.46051 0.06179 0.0
C117 C 0.0122 0.40713 0.05345 0.0
C118 C 0.02853 0.43991 0.05147 0.0
C119 C 0.00964 0.39524 0.06569 0.0
H120 H 0.98429 0.34543 0.06053 0.0
N121 N 0.0373 0.42798 0.09724 0.0
C122 C 0.02297 0.40623 0.08788 0.0
C123 C 0.01324 0.36386 0.10231 0.0
C124 C 0.00987 0.3735 0.09024 0.0
C125 C 0.04379 0.41898 0.1085 0.0
C126 C 0.03109 0.38679 0.11137 0.0
O127 O 0.05535 0.53903 0.11122 0.0
O128 O 0.07289 0.53372 0.09201 0.0
O129 O 0.10222 0.48827 0.09834 0.0
O130 O 0.09206 0.48891 0.07827 0.0
O131 O 0.99678 0.50234 0.08636 0.0
O132 O 0.04705 0.5148 0.08013 0.0
O133 O 1.00153 0.44976 0.09029 0.0
O134 O 0.98392 0.46003 0.1088 0.0
O135 O 0.95751 0.51072 0.10229 0.0
O136 O 0.9677 0.5068 0.12202 0.0
O137 O 0.06016 0.48668 0.11317 0.0
O138 O 0.01243 0.4803 0.1209 0.0
C139 C 0.07683 0.55005 0.10234 0.0
C140 C 0.01868 0.51012 0.07745 0.0
C141 C 0.14407 0.4972 0.08293 0.0
C142 C 0.19747 0.50762 0.0877 0.0
C143 C 0.18079 0.50465 0.06593 0.0
C144 C 0.1511 0.49876 0.06997 0.0
C145 C 0.20385 0.50903 0.07473 0.0
C146 C 0.16751 0.50173 0.09186 0.0
C147 C 0.11241 0.49142 0.08674 0.0
C148 C 0.9951 0.35165 0.08037 0.0
C149 C 0.995 0.36251 0.06812 0.0
H150 H 1.00362 0.33895 0.10451 0.0
C151 C 0.9798 0.44156 0.09917 0.0
C152 C 0.0392 0.47943 0.12235 0.0
C153 C 0.91749 0.50475 0.11822 0.0
C154 C 0.87015 0.51006 0.11533 0.0
C155 C 0.87932 0.4914 0.13528 0.0
C156 C 0.90731 0.49408 0.1306 0.0
C157 C 0.86083 0.49919 0.12771 0.0
C158 C 0.89866 0.51286 0.11051 0.0
C159 C 0.94819 0.50801 0.11398 0.0
H160 H 0.18594 0.50582 0.05594 0.0
H161 H 0.13365 0.49547 0.06288 0.0
H162 H 0.22682 0.51354 0.07143 0.0
H163 H 0.16263 0.5008 0.10188 0.0
H164 H 0.87188 0.48318 0.14483 0.0
H165 H 0.92103 0.48768 0.13676 0.0
H166 H 0.83912 0.49689 0.13158 0.0
H167 H 0.90615 0.52143 0.10098 0.0
C168 C 0.47714 0.47345 0.12176 0.0
C169 C 0.43462 0.43949 0.10742 0.0
C170 C 0.46672 0.46259 0.10958 0.0
C171 C 0.41323 0.42793 0.11758 0.0
C172 C 0.45571 0.46156 0.132 0.0
C173 C 0.42373 0.43897 0.12982 0.0
N174 N 0.50818 0.49564 0.12361 0.0
C175 C 0.51964 0.50519 0.13556 0.0
C176 C 0.46709 0.4725 0.14416 0.0
C177 C 0.49926 0.49413 0.14595 0.0
Gd178 Gd 0.57536 0.60424 0.09473 0.0
Gd179 Gd 0.54031 0.51238 0.10545 0.0
N180 N 0.4877 0.47496 0.09984 0.0
C181 C 0.42481 0.429 0.09508 0.0
C182 C 0.47833 0.46401 0.08782 0.0
C183 C 0.4468 0.44118 0.08526 0.0
H184 H 0.49503 0.47201 0.08014 0.0
H185 H 0.43954 0.43279 0.0757 0.0
H186 H 0.61743 0.64476 0.11954 0.0
H187 H 0.54462 0.52051 0.13729 0.0
H188 H 0.67392 0.67772 0.12569 0.0
H189 H 0.40038 0.41136 0.09304 0.0
H190 H 0.38848 0.41043 0.11606 0.0
H191 H 0.57496 0.59663 0.06266 0.0
H192 H 0.45138 0.46391 0.15225 0.0
H193 H 0.50849 0.50199 0.15537 0.0
H194 H 0.73099 0.68447 0.0877 0.0
H195 H 0.40695 0.42974 0.13757 0.0
H196 H 0.67062 0.63402 0.05054 0.0
H197 H 0.6131 0.60591 0.04582 0.0
N198 N 0.60943 0.61417 0.07734 0.0
C199 C 0.64106 0.6318 0.07995 0.0
C200 C 0.59948 0.60645 0.06514 0.0
C201 C 0.65372 0.62879 0.05812 0.0
C202 C 0.6213 0.61274 0.05543 0.0
C203 C 0.66401 0.63937 0.07042 0.0
H204 H 0.71429 0.66435 0.06612 0.0
N205 N 0.62802 0.63602 0.10108 0.0
C206 C 0.6506 0.64369 0.09208 0.0
C207 C 0.69144 0.67496 0.10731 0.0
C208 C 0.68304 0.663 0.09501 0.0
C209 C 0.63585 0.64904 0.11284 0.0
C210 C 0.6677 0.66814 0.11623 0.0
O211 O 0.50705 0.53175 0.10829 0.0
O212 O 0.52196 0.5724 0.09361 0.0
O213 O 0.5709 0.64167 0.10396 0.0
O214 O 0.5779 0.64311 0.08378 0.0
O215 O 0.54212 0.52035 0.08389 0.0
O216 O 0.54328 0.56823 0.0801 0.0
O217 O 0.60853 0.58697 0.10172 0.0
O218 O 0.58134 0.53949 0.09255 0.0
O219 O 0.53589 0.46708 0.10026 0.0
O220 O 0.56606 0.49353 0.11587 0.0
O221 O 0.55748 0.59072 0.1146 0.0
O222 O 0.57074 0.55284 0.11985 0.0
C223 C 0.50138 0.55104 0.10149 0.0
C224 C 0.53789 0.53994 0.07642 0.0
C225 C 0.54593 0.66283 0.09171 0.0
C226 C 0.5246 0.69785 0.09569 0.0
C227 C 0.49246 0.64742 0.08496 0.0
C228 C 0.51744 0.64111 0.08574 0.0
C229 C 0.49591 0.67558 0.08994 0.0
C230 C 0.54951 0.69121 0.09659 0.0
C231 C 0.57158 0.65564 0.0934 0.0
C232 C 0.70591 0.6698 0.08562 0.0
C233 C 0.69641 0.6581 0.07336 0.0
H234 H 0.71613 0.68983 0.10995 0.0
C235 C 0.60781 0.56149 0.09733 0.0
C236 C 0.56778 0.57793 0.12286 0.0
C237 C 0.54077 0.43669 0.11647 0.0
C238 C 0.52572 0.38031 0.11714 0.0
C239 C 0.51526 0.40506 0.13509 0.0
C240 C 0.52859 0.43395 0.1287 0.0
C241 C 0.51373 0.37848 0.12938 0.0
C242 C 0.53955 0.40975 0.11073 0.0
C243 C 0.55353 0.46702 0.10945 0.0
H244 H 0.47039 0.63048 0.08047 0.0
H245 H 0.51431 0.61906 0.08191 0.0
H246 H 0.47646 0.68031 0.089 0.0
H247 H 0.57161 0.70802 0.10115 0.0
H248 H 0.50596 0.40323 0.14453 0.0
H249 H 0.52928 0.45407 0.13334 0.0
H250 H 0.50335 0.3564 0.13462 0.0
H251 H 0.54865 0.41153 0.10124 0.0
C252 C 0.02916 0.57763 0.89482 0.0
C253 C 0.02399 0.61302 0.90956 0.0
C254 C 0.03046 0.58823 0.90711 0.0
C255 C 0.01612 0.62676 0.89955 0.0
C256 C 0.02122 0.59137 0.88475 0.0
C257 C 0.01468 0.61593 0.88719 0.0
N258 N 0.03587 0.554 0.89269 0.0
C259 C 0.03575 0.5435 0.88073 0.0
C260 C 0.02036 0.58021 0.8725 0.0
C261 C 0.02773 0.55623 0.87048 0.0
Gd262 Gd 0.99263 0.45033 0.92563 0.0
Gd263 Gd 0.05113 0.53587 0.91036 0.0
N264 N 0.03712 0.57374 0.91668 0.0
C265 C 0.02514 0.62296 0.92203 0.0
C266 C 0.03966 0.58446 0.92878 0.0
C267 C 0.03317 0.60872 0.93166 0.0
H268 H 0.04774 0.57541 0.93627 0.0
H269 H 0.03495 0.61682 0.9413 0.0
H270 H 0.99284 0.40812 0.90025 0.0
H271 H 0.04257 0.52587 0.87897 0.0
H272 H 0.01498 0.37422 0.89435 0.0
H273 H 0.02021 0.64182 0.9243 0.0
H274 H 0.01098 0.64571 0.90128 0.0
H275 H 1.00048 0.45984 0.9569 0.0
H276 H 0.01439 0.59018 0.86452 0.0
H277 H 0.02765 0.54782 0.86102 0.0
H278 H 0.05716 0.35997 0.93318 0.0
H279 H 0.00857 0.62677 0.87957 0.0
H280 H 0.04549 0.40912 0.9705 0.0
H281 H 0.0229 0.44406 0.97453 0.0
N282 N 0.01154 0.43529 0.94305 0.0
C283 C 0.02283 0.41524 0.94066 0.0
C284 C 0.01095 0.44523 0.95503 0.0
C285 C 0.03584 0.41614 0.96273 0.0
C286 C 0.02324 0.43597 0.96504 0.0
C287 C 0.03566 0.40543 0.95043 0.0
H288 H 0.05826 0.37791 0.95499 0.0
N289 N 0.01035 0.41569 0.91901 0.0
C290 C 0.02247 0.40538 0.92828 0.0
C291 C 0.03268 0.37457 0.91304 0.0
C292 C 0.03451 0.38502 0.92548 0.0
C293 C 0.00617 0.40349 0.90713 0.0
C294 C 0.01788 0.38337 0.90387 0.0
O295 O 0.99879 0.51988 0.90836 0.0
O296 O 0.97584 0.48603 0.92522 0.0
O297 O 0.94696 0.40999 0.91935 0.0
O298 O 0.95605 0.42442 0.93924 0.0
O299 O 0.05292 0.52964 0.93212 0.0
O300 O 1.00138 0.49271 0.93707 0.0
O301 O 0.04647 0.47149 0.9281 0.0
O302 O 0.06144 0.49618 0.9093 0.0
O303 O 0.09657 0.57364 0.9177 0.0
O304 O 0.09148 0.56215 0.89792 0.0
O305 O 0.98649 0.45532 0.90467 0.0
O306 O 0.03582 0.49269 0.897 0.0
C307 C 0.97432 0.50247 0.91569 0.0
C308 C 0.02948 0.51558 0.94045 0.0
C309 C 0.90364 0.38171 0.93466 0.0
C310 C 0.85105 0.33824 0.92954 0.0
C311 C 0.86115 0.36323 0.95012 0.0
C312 C 0.8926 0.38369 0.94671 0.0
C313 C 0.84039 0.34067 0.94157 0.0
C314 C 0.88275 0.35867 0.92607 0.0
C315 C 0.93589 0.40579 0.93084 0.0
C316 C 0.0476 0.37544 0.93518 0.0
C317 C 0.04815 0.38558 0.94762 0.0
H318 H 0.04169 0.35894 0.9105 0.0
C319 C 0.06834 0.48576 0.9194 0.0
C320 C 0.00703 0.4675 0.89535 0.0
C321 C 0.12419 0.61657 0.9033 0.0
C322 C 0.16519 0.67232 0.90645 0.0
C323 C 0.12404 0.65839 0.89069 0.0
C324 C 0.11105 0.62638 0.89368 0.0
C325 C 0.15081 0.68122 0.89705 0.0
C326 C 0.15181 0.63982 0.9096 0.0
C327 C 0.10928 0.58225 0.90654 0.0
H328 H 0.85278 0.36503 0.95939 0.0
H329 H 0.90807 0.40151 0.95345 0.0
H330 H 0.81598 0.32489 0.94435 0.0
H331 H 0.89082 0.35699 0.91671 0.0
H332 H 0.1135 0.6655 0.8833 0.0
H333 H 0.09088 0.60935 0.88827 0.0
H334 H 0.1608 0.70595 0.89443 0.0
H335 H 0.16272 0.63273 0.91687 0.0
C336 C 0.47586 0.46393 0.89687 0.0
C337 C 0.44562 0.42487 0.91294 0.0
C338 C 0.46648 0.45667 0.90941 0.0
C339 C 0.4353 0.40065 0.90385 0.0
C340 C 0.46568 0.43964 0.88775 0.0
C341 C 0.44546 0.40798 0.89132 0.0
N342 N 0.49584 0.49474 0.89368 0.0
C343 C 0.50599 0.50302 0.88153 0.0
C344 C 0.4763 0.4479 0.8753 0.0
C345 C 0.49651 0.47973 0.87218 0.0
Gd346 Gd 0.59545 0.56448 0.92511 0.0
Gd347 Gd 0.5096 0.53225 0.90983 0.0
N348 N 0.4771 0.48067 0.91805 0.0
C349 C 0.43501 0.41843 0.92543 0.0
C350 C 0.46491 0.47453 0.93 0.0
C351 C 0.44447 0.44339 0.93395 0.0
H352 H 0.46938 0.49336 0.93645 0.0
H353 H 0.43523 0.43875 0.94348 0.0
H354 H 0.64437 0.59949 0.90027 0.0
H355 H 0.52109 0.52763 0.879 0.0
H356 H 0.67954 0.65362 0.89233 0.0
H357 H 0.41851 0.39448 0.92847 0.0
H358 H 0.41914 0.37617 0.90635 0.0
H359 H 0.58276 0.57189 0.95553 0.0
H360 H 0.46901 0.4299 0.86803 0.0
H361 H 0.50465 0.48636 0.86257 0.0
H362 H 0.68252 0.72096 0.92608 0.0
H363 H 0.43734 0.389 0.88444 0.0
H364 H 0.62477 0.67093 0.9639 0.0
H365 H 0.59016 0.61476 0.97008 0.0
N366 N 0.60805 0.60335 0.94057 0.0
C367 C 0.62741 0.63397 0.93697 0.0
C368 C 0.59626 0.59625 0.95252 0.0
C369 C 0.62062 0.65218 0.95732 0.0
C370 C 0.6013 0.62052 0.9609 0.0
C371 C 0.63431 0.65925 0.94527 0.0
H372 H 0.65942 0.71042 0.94742 0.0
N373 N 0.63137 0.61484 0.91687 0.0
C374 C 0.63927 0.63986 0.92474 0.0
C375 C 0.67369 0.67624 0.90879 0.0
C376 C 0.65997 0.67129 0.92078 0.0
C377 C 0.64705 0.6194 0.90571 0.0
C378 C 0.66778 0.65013 0.90135 0.0
O379 O 0.53402 0.5036 0.90679 0.0
O380 O 0.56077 0.51168 0.92534 0.0
O381 O 0.63451 0.55629 0.92011 0.0
O382 O 0.62351 0.55974 0.9399 0.0
O383 O 0.51532 0.54222 0.9315 0.0
O384 O 0.55423 0.53064 0.93706 0.0
O385 O 0.57084 0.59431 0.92689 0.0
O386 O 0.5439 0.58416 0.90831 0.0
O387 O 0.46738 0.53597 0.91547 0.0
O388 O 0.47978 0.53592 0.89575 0.0
O389 O 0.59127 0.55448 0.90403 0.0
O390 O 0.55186 0.56397 0.89667 0.0
C391 C 0.54611 0.49388 0.91554 0.0
C392 C 0.53008 0.53425 0.9401 0.0
C393 C 0.66666 0.54923 0.93619 0.0
C394 C 0.70827 0.53645 0.93176 0.0
C395 C 0.69207 0.53714 0.95337 0.0
C396 C 0.67003 0.54543 0.94915 0.0
C397 C 0.71096 0.53248 0.94474 0.0
C398 C 0.68622 0.54505 0.92747 0.0
C399 C 0.64095 0.5548 0.93194 0.0
C400 C 0.66692 0.69664 0.92901 0.0
C401 C 0.65395 0.69064 0.9412 0.0
H402 H 0.68981 0.70001 0.90541 0.0
C403 C 0.55764 0.60266 0.91796 0.0
C404 C 0.57874 0.5634 0.89502 0.0
C405 C 0.43184 0.53845 0.89909 0.0
C406 C 0.3796 0.53462 0.90156 0.0
C407 C 0.40435 0.54389 0.88088 0.0
C408 C 0.43043 0.5436 0.88609 0.0
C409 C 0.37915 0.53931 0.88849 0.0
C410 C 0.40605 0.53383 0.90691 0.0
C411 C 0.45959 0.53605 0.90371 0.0
H412 H 0.69434 0.53407 0.96336 0.0
H413 H 0.65519 0.54828 0.95606 0.0
H414 H 0.72798 0.52604 0.94819 0.0
H415 H 0.68392 0.54779 0.91743 0.0
H416 H 0.40363 0.54764 0.87084 0.0
H417 H 0.44947 0.5471 0.8798 0.0
H418 H 0.35916 0.53965 0.88412 0.0
H419 H 0.40658 0.52983 0.91694 0.0
C420 C 0.57941 0.03025 0.89573 0.0
C421 C 0.61975 0.04004 0.91136 0.0
C422 C 0.58776 0.02935 0.9082 0.0
C423 C 0.64319 0.05279 0.90195 0.0
C424 C 0.60278 0.0425 0.88621 0.0
C425 C 0.63473 0.05406 0.88941 0.0
N426 N 0.54825 0.01863 0.89289 0.0
C427 C 0.53872 0.01788 0.88072 0.0
C428 C 0.59325 0.0424 0.87373 0.0
C429 C 0.56107 0.0299 0.87098 0.0
Gd430 Gd 0.4798 0.05301 0.92484 0.0
Gd431 Gd 0.51241 0.99884 0.90976 0.0
N432 N 0.56453 0.01724 0.91714 0.0
C433 C 0.62716 0.03703 0.92386 0.0
C434 C 0.57145 0.0122 0.92912 0.0
C435 C 0.60282 0.0226 0.93272 0.0
H436 H 0.55296 0.9992 0.9359 0.0
H437 H 0.60814 0.01898 0.9423 0.0
H438 H 0.43215 0.04115 0.8999 0.0
H439 H 0.51385 0.00761 0.87846 0.0
H440 H 0.37501 0.01657 0.89552 0.0
H441 H 0.65142 0.04491 0.92666 0.0
H442 H 0.66789 0.06132 0.90424 0.0
H443 H 0.48735 0.05132 0.95625 0.0
H444 H 0.61048 0.05155 0.86615 0.0
H445 H 0.55344 0.02933 0.86133 0.0
H446 H 0.32623 0.98281 0.93624 0.0
H447 H 0.65304 0.06364 0.88223 0.0
H448 H 0.39395 0.004 0.97216 0.0
H449 H 0.45219 0.03011 0.97483 0.0
N450 N 0.44922 0.03546 0.94318 0.0
C451 C 0.41731 0.02194 0.94149 0.0
C452 C 0.46192 0.03906 0.95495 0.0
C453 C 0.40923 0.01287 0.96395 0.0
C454 C 0.44212 0.02753 0.9655 0.0
C455 C 0.39644 0.01013 0.95186 0.0
H456 H 0.34715 0.98664 0.95771 0.0
N457 N 0.42609 0.02986 0.9194 0.0
C458 C 0.40544 0.01935 0.9293 0.0
C459 C 0.36148 0.00397 0.91495 0.0
C460 C 0.37249 0.00548 0.92729 0.0
C461 C 0.41564 0.02999 0.90748 0.0
C462 C 0.3832 0.01666 0.90503 0.0
O463 O 0.54336 0.05193 0.90719 0.0
O464 O 0.53272 0.07219 0.92493 0.0
O465 O 0.48178 0.09511 0.91681 0.0
O466 O 0.48374 0.09054 0.93706 0.0
O467 O 0.50324 0.9968 0.93135 0.0
O468 O 0.51514 0.04757 0.93663 0.0
O469 O 0.44891 0.99886 0.92661 0.0
O470 O 0.46131 0.98426 0.90816 0.0
O471 O 0.50643 0.95413 0.91718 0.0
O472 O 0.504 0.96006 0.89717 0.0
O473 O 0.48993 0.05875 0.90381 0.0
O474 O 0.48262 0.0108 0.89612 0.0
C475 C 0.55048 0.07519 0.91514 0.0
C476 C 0.5123 0.02013 0.9397 0.0
C477 C 0.51441 0.14143 0.92835 0.0
C478 C 0.53717 0.19843 0.92582 0.0
C479 C 0.56963 0.17717 0.93371 0.0
C480 C 0.54384 0.14644 0.93275 0.0
C481 C 0.56634 0.20311 0.93035 0.0
C482 C 0.51127 0.16746 0.9247 0.0
C483 C 0.48687 0.10924 0.92771 0.0
C484 C 0.35165 0.99369 0.93761 0.0
C485 C 0.36357 0.99591 0.94985 0.0
H486 H 0.33634 0.99363 0.91302 0.0
C487 C 0.44321 0.97707 0.91805 0.0
C488 C 0.48404 0.03866 0.89448 0.0
C489 C 0.52665 0.92898 0.90381 0.0
C490 C 0.5393 0.88613 0.90573 0.0
C491 C 0.57414 0.93392 0.89395 0.0
C492 C 0.55421 0.94614 0.89649 0.0
C493 C 0.56671 0.9041 0.89847 0.0
C494 C 0.51934 0.89879 0.90855 0.0
C495 C 0.50532 0.94224 0.90605 0.0
H496 H 0.59205 0.18092 0.93725 0.0
H497 H 0.5468 0.12669 0.93562 0.0
H498 H 0.58651 0.22687 0.93133 0.0
H499 H 0.48855 0.16371 0.92136 0.0
H500 H 0.59523 0.94744 0.88827 0.0
H501 H 0.56017 0.96884 0.89251 0.0
H502 H 0.58232 0.89487 0.89621 0.0
H503 H 0.49799 0.885 0.91407 0.0
C504 C 0.24324 0.35248 0.4553 0.0
C505 C 0.27526 0.34396 0.43994 0.0
C506 C 0.25252 0.35301 0.44284 0.0
C507 C 0.28836 0.33447 0.44964 0.0
C508 C 0.25612 0.34261 0.46504 0.0
C509 C 0.27894 0.33397 0.46216 0.0
N510 N 0.22189 0.362 0.45791 0.0
C511 C 0.21254 0.36232 0.47003 0.0
C512 C 0.24615 0.34228 0.47746 0.0
C513 C 0.22422 0.35216 0.47996 0.0
Gd514 Gd 0.12044 0.32945 0.42453 0.0
Gd515 Gd 0.20569 0.38114 0.44084 0.0
N516 N 0.24014 0.36329 0.43365 0.0
C517 C 0.28509 0.3458 0.42742 0.0
C518 C 0.25174 0.36749 0.42162 0.0
C519 C 0.27353 0.35796 0.41826 0.0
H520 H 0.2457 0.37946 0.4146 0.0
H521 H 0.28212 0.36089 0.40865 0.0
H522 H 0.08814 0.3454 0.44998 0.0
H523 H 0.19692 0.37144 0.47215 0.0
H524 H 0.05884 0.37288 0.45476 0.0
H525 H 0.30242 0.33896 0.42483 0.0
H526 H 0.30629 0.3281 0.44757 0.0
H527 H 0.13244 0.33576 0.39338 0.0
H528 H 0.25549 0.3348 0.48519 0.0
H529 H 0.21676 0.35252 0.48955 0.0
H530 H 0.0458 0.40971 0.41446 0.0
H531 H 0.28975 0.32726 0.46959 0.0
H532 H 0.0942 0.39147 0.37851 0.0
H533 H 0.12575 0.36486 0.37568 0.0
N534 N 0.11028 0.35108 0.40667 0.0
C535 C 0.09326 0.36602 0.40856 0.0
C536 C 0.12051 0.34914 0.39492 0.0
C537 C 0.09823 0.37993 0.38647 0.0
C538 C 0.11577 0.36463 0.38478 0.0
C539 C 0.08643 0.38049 0.39845 0.0
H540 H 0.06285 0.40642 0.39293 0.0
N541 N 0.09245 0.35547 0.43045 0.0
C542 C 0.08383 0.36802 0.42076 0.0
C543 C 0.0579 0.3859 0.43541 0.0
C544 C 0.06671 0.38395 0.42302 0.0
C545 C 0.08303 0.35656 0.44246 0.0
C546 C 0.06594 0.37195 0.44516 0.0
O547 O 0.185 0.3283 0.44256 0.0
O548 O 0.15186 0.30711 0.42522 0.0
O549 O 0.07576 0.28972 0.43091 0.0
O550 O 0.08944 0.29272 0.41133 0.0
O551 O 0.20044 0.38416 0.41901 0.0
O552 O 0.16127 0.33394 0.41321 0.0
O553 O 0.14696 0.38377 0.42317 0.0
O554 O 0.17014 0.39733 0.4425 0.0
O555 O 0.24624 0.42688 0.43418 0.0
O556 O 0.23548 0.41741 0.45419 0.0
O557 O 0.12367 0.31985 0.44513 0.0
O558 O 0.16273 0.36591 0.45446 0.0
C559 C 0.16898 0.30534 0.4345 0.0
C560 C 0.18629 0.3612 0.41042 0.0
C561 C 0.06282 0.24187 0.42075 0.0
C562 C 0.02642 0.18638 0.42595 0.0
C563 C 0.08095 0.20344 0.42017 0.0
C564 C 0.08695 0.23448 0.4186 0.0
C565 C 0.05089 0.17951 0.4239 0.0
C566 C 0.03242 0.21762 0.42432 0.0
C567 C 0.06978 0.27503 0.42011 0.0
C568 C 0.05905 0.39752 0.4129 0.0
C569 C 0.06881 0.39572 0.40065 0.0
H570 H 0.04474 0.39791 0.43753 0.0
C571 C 0.15931 0.40421 0.43248 0.0
C572 C 0.13559 0.33819 0.45508 0.0
C573 C 0.28147 0.46854 0.44947 0.0
C574 C 0.33473 0.51535 0.4467 0.0
C575 C 0.30452 0.50909 0.46581 0.0
C576 C 0.27966 0.48055 0.46133 0.0
C577 C 0.33175 0.52633 0.45859 0.0
C578 C 0.30939 0.48616 0.44207 0.0
C579 C 0.25465 0.43679 0.44573 0.0
H580 H 0.09969 0.19797 0.41854 0.0
H581 H 0.11051 0.25268 0.4158 0.0
H582 H 0.04659 0.15552 0.42505 0.0
H583 H 0.01369 0.2231 0.42606 0.0
H584 H 0.30271 0.51787 0.47499 0.0
H585 H 0.25889 0.46772 0.46726 0.0
H586 H 0.35079 0.54844 0.46234 0.0
H587 H 0.3115 0.47723 0.43297 0.0
C588 C 0.69475 0.91328 0.45584 0.0
C589 C 0.70395 0.9552 0.44109 0.0
C590 C 0.69397 0.92302 0.44355 0.0
C591 C 0.7151 0.97729 0.45103 0.0
C592 C 0.70591 0.93543 0.46583 0.0
C593 C 0.71625 0.96748 0.46334 0.0
N594 N 0.68498 0.88216 0.458 0.0
C595 C 0.68405 0.87128 0.46995 0.0
C596 C 0.70617 0.92464 0.47806 0.0
C597 C 0.69499 0.89239 0.48013 0.0
Gd598 Gd 0.72417 0.82037 0.42647 0.0
Gd599 Gd 0.66575 0.84842 0.44054 0.0
N600 N 0.68288 0.90102 0.43409 0.0
C601 C 0.70178 0.96415 0.42876 0.0
C602 C 0.67957 0.9096 0.42214 0.0
C603 C 0.68947 0.94126 0.41927 0.0
H604 H 0.66826 0.89228 0.4148 0.0
H605 H 0.6869 0.94786 0.40977 0.0
H606 H 0.7371 0.78215 0.44952 0.0
H607 H 0.6745 0.84629 0.47172 0.0
H608 H 0.72281 0.72706 0.45496 0.0
H609 H 0.70864 0.98846 0.42652 0.0
H610 H 0.72245 1.00197 0.44933 0.0
H611 H 0.7105 0.81983 0.39491 0.0
H612 H 0.71454 0.94093 0.48598 0.0
H613 H 0.6945 0.88373 0.48958 0.0
H614 H 0.66539 0.66632 0.41857 0.0
H615 H 0.72484 0.98483 0.4709 0.0
H616 H 0.65728 0.72313 0.38309 0.0
H617 H 0.67918 0.78029 0.37872 0.0
N618 N 0.70069 0.78556 0.40927 0.0
C619 C 0.69063 0.75442 0.41163 0.0
C620 C 0.69872 0.79506 0.39736 0.0
C621 C 0.66968 0.7404 0.39047 0.0
C622 C 0.68205 0.77264 0.38796 0.0
C623 C 0.67477 0.73099 0.40231 0.0
H624 H 0.65292 0.68082 0.39796 0.0
N625 N 0.71281 0.76927 0.43199 0.0
C626 C 0.69751 0.74612 0.42324 0.0
C627 C 0.6978 0.7075 0.43749 0.0
C628 C 0.68903 0.71444 0.42584 0.0
C629 C 0.7229 0.76307 0.44306 0.0
C630 C 0.71521 0.73202 0.44607 0.0
O631 O 0.71847 0.87852 0.44438 0.0
O632 O 0.73691 0.87179 0.42566 0.0
O633 O 0.77162 0.83633 0.43368 0.0
O634 O 0.76123 0.82508 0.41384 0.0
O635 O 0.66396 0.84258 0.4188 0.0
O636 O 0.71353 0.85049 0.41314 0.0
O637 O 0.67499 0.78226 0.43352 0.0
O638 O 0.64883 0.80725 0.42738 0.0
O639 O 0.62624 0.85756 0.43921 0.0
O640 O 0.62357 0.82116 0.45216 0.0
O641 O 0.72781 0.83015 0.44747 0.0
O642 O 0.67686 0.81667 0.45361 0.0
C643 C 0.74029 0.88918 0.4356 0.0
C644 C 0.68659 0.84939 0.41031 0.0
C645 C 0.80024 0.81628 0.42303 0.0
C646 C 0.84913 0.81665 0.4281 0.0
C647 C 0.80425 0.76914 0.41941 0.0
C648 C 0.78668 0.78466 0.41893 0.0
C649 C 0.83528 0.78496 0.42403 0.0
C650 C 0.83158 0.83233 0.4275 0.0
C651 C 0.7821 0.83288 0.42283 0.0
C652 C 0.67241 0.69089 0.41672 0.0
C653 C 0.66521 0.69914 0.40499 0.0
H654 H 0.69181 0.68344 0.43984 0.0
C655 C 0.6481 0.78125 0.43084 0.0
C656 C 0.70466 0.81829 0.45581 0.0
C657 C 0.57765 0.82924 0.45161 0.0
C658 C 0.53112 0.83597 0.44952 0.0
C659 C 0.53351 0.80307 0.46625 0.0
C660 C 0.56332 0.80944 0.46207 0.0
C661 C 0.51752 0.81624 0.46004 0.0
C662 C 0.56134 0.84256 0.44529 0.0
C663 C 0.60971 0.83614 0.44762 0.0
H664 H 0.79379 0.74481 0.41621 0.0
H665 H 0.76263 0.772 0.41535 0.0
H666 H 0.84864 0.77259 0.4243 0.0
H667 H 0.84213 0.85677 0.43066 0.0
H668 H 0.52278 0.78793 0.47437 0.0
H669 H 0.57528 0.79904 0.46712 0.0
H670 H 0.49442 0.81107 0.46348 0.0
H671 H 0.57202 0.85799 0.43722 0.0
C672 C 0.13648 0.80979 0.45523 0.0
C673 C 0.09632 0.77723 0.43987 0.0
C674 C 0.12812 0.79956 0.44286 0.0
C675 C 0.07302 0.76652 0.44934 0.0
C676 C 0.11315 0.799 0.46477 0.0
C677 C 0.08135 0.77759 0.46173 0.0
N678 N 0.16748 0.83026 0.45794 0.0
C679 C 0.17688 0.8403 0.47002 0.0
C680 C 0.12254 0.8098 0.47713 0.0
C681 C 0.15458 0.83043 0.47977 0.0
Gd682 Gd 0.23555 0.92939 0.42414 0.0
Gd683 Gd 0.20327 0.84514 0.44105 0.0
N684 N 0.15125 0.81033 0.43388 0.0
C685 C 0.08908 0.76538 0.42756 0.0
C686 C 0.1445 0.79709 0.42212 0.0
C687 C 0.11332 0.77516 0.41868 0.0
H688 H 0.16305 0.80194 0.41547 0.0
H689 H 0.10816 0.76503 0.40929 0.0
H690 H 0.28741 0.95902 0.4485 0.0
H691 H 0.20166 0.85534 0.47224 0.0
H692 H 0.3451 0.98751 0.45166 0.0
H693 H 0.06519 0.74761 0.42495 0.0
H694 H 0.04859 0.74913 0.44725 0.0
H695 H 0.22383 0.9241 0.39288 0.0
H696 H 0.10533 0.80203 0.48472 0.0
H697 H 0.16217 0.83849 0.48933 0.0
H698 H 0.38784 0.00606 0.40975 0.0
H699 H 0.06311 0.76897 0.46894 0.0
H700 H 0.31501 0.96864 0.37498 0.0
H701 H 0.25638 0.93997 0.37345 0.0
N702 N 0.26373 0.94307 0.40516 0.0
C703 C 0.29591 0.9596 0.40625 0.0
C704 C 0.24944 0.93634 0.3936 0.0
C705 C 0.30087 0.9617 0.38352 0.0
C706 C 0.26778 0.94549 0.38261 0.0
C707 C 0.31535 0.96911 0.39543 0.0
H708 H 0.36384 0.9932 0.38859 0.0
N709 N 0.29016 0.95716 0.42855 0.0
C710 C 0.30951 0.96705 0.41825 0.0
C711 C 0.35565 0.99106 0.43181 0.0
C712 C 0.34281 0.98393 0.41963 0.0
C713 C 0.30256 0.96528 0.44041 0.0
C714 C 0.33541 0.9819 0.44222 0.0
O715 O 0.17251 0.86766 0.44242 0.0
O716 O 0.18232 0.89603 0.42395 0.0
O717 O 0.23543 0.9701 0.43262 0.0
O718 O 0.23248 0.9642 0.41238 0.0
O719 O 0.21205 0.8493 0.41935 0.0
O720 O 0.2011 0.88793 0.41244 0.0
O721 O 0.26549 0.90505 0.42317 0.0
O722 O 0.25479 0.88098 0.44235 0.0
O723 O 0.20949 0.80517 0.43467 0.0
O724 O 0.20975 0.81588 0.45471 0.0
O725 O 0.22527 0.92727 0.44506 0.0
O726 O 0.23212 0.88801 0.45433 0.0
C727 C 0.16392 0.88077 0.4336 0.0
C728 C 0.20372 0.86273 0.41031 0.0
C729 C 0.20426 0.98661 0.42155 0.0
C730 C 0.18289 0.02121 0.42644 0.0
C731 C 0.14956 0.9702 0.41633 0.0
C732 C 0.1749 0.9644 0.41632 0.0
C733 C 0.15343 0.99841 0.4214 0.0
C734 C 0.20827 0.01511 0.42653 0.0
C735 C 0.23067 0.9801 0.42188 0.0
C736 C 0.3622 0.99313 0.40886 0.0
C737 C 0.34853 0.98578 0.3968 0.0
H738 H 0.38112 0.00389 0.43328 0.0
C739 C 0.27234 0.89116 0.43228 0.0
C740 C 0.23174 0.9152 0.45497 0.0
C741 C 0.21693 0.77108 0.45004 0.0
C742 C 0.2104 0.7179 0.4475 0.0
C743 C 0.23794 0.75005 0.46579 0.0
C744 C 0.23287 0.77421 0.46147 0.0
C745 C 0.22676 0.72211 0.4589 0.0
C746 C 0.20574 0.7427 0.44294 0.0
C747 C 0.21117 0.79722 0.44627 0.0
H748 H 0.12697 0.95297 0.41228 0.0
H749 H 0.17177 0.94274 0.41213 0.0
H750 H 0.13366 1.00279 0.42107 0.0
H751 H 0.23103 0.03245 0.43048 0.0
H752 H 0.25036 0.75288 0.47461 0.0
H753 H 0.24148 0.79551 0.46714 0.0
H754 H 0.23059 0.70345 0.46255 0.0
H755 H 0.19281 0.73955 0.43422 0.0
C756 C 0.69306 0.90803 0.22916 0.0
C757 C 0.67661 0.93581 0.24367 0.0
C758 C 0.6891 0.9155 0.24148 0.0
C759 C 0.66819 0.94837 0.2334 0.0
C760 C 0.68494 0.92094 0.21885 0.0
C761 C 0.6724 0.94101 0.22104 0.0
N762 N 0.70456 0.88797 0.22726 0.0
C763 C 0.71016 0.88125 0.21535 0.0
C764 C 0.68969 0.91333 0.2066 0.0
C765 C 0.7026 0.89361 0.20486 0.0
Gd766 Gd 0.66264 0.77821 0.25669 0.0
Gd767 Gd 0.71688 0.869 0.24542 0.0
N768 N 0.697 0.90262 0.25127 0.0
C769 C 0.67291 0.94295 0.25611 0.0
C770 C 0.69465 0.91069 0.26343 0.0
C771 C 0.68221 0.93053 0.26602 0.0
H772 H 0.70289 0.90271 0.27124 0.0
H773 H 0.68014 0.93653 0.27568 0.0
H774 H 0.66698 0.7384 0.23199 0.0
H775 H 0.72124 0.86704 0.21384 0.0
H776 H 0.69343 0.70784 0.22619 0.0
H777 H 0.66334 0.95838 0.25817 0.0
H778 H 0.6585 0.96392 0.23493 0.0
H779 H 0.66875 0.78587 0.28873 0.0
H780 H 0.68384 0.92286 0.19844 0.0
H781 H 0.707 0.88814 0.19543 0.0
H782 H 0.74815 0.7083 0.26404 0.0
H783 H 0.66593 0.95103 0.21322 0.0
H784 H 0.73339 0.75618 0.30102 0.0
H785 H 0.69981 0.77991 0.30565 0.0
N786 N 0.68828 0.77069 0.27414 0.0
C787 C 0.70439 0.75505 0.2716 0.0
C788 C 0.68507 0.77784 0.28632 0.0
C789 C 0.72067 0.75989 0.29342 0.0
C790 C 0.7019 0.77346 0.29606 0.0
C791 C 0.72135 0.74962 0.28115 0.0
H792 H 0.751 0.72918 0.28545 0.0
N793 N 0.68625 0.74864 0.25049 0.0
C794 C 0.70267 0.74298 0.25954 0.0
C795 C 0.71487 0.7132 0.24451 0.0
C796 C 0.718 0.72563 0.2567 0.0
C797 C 0.68172 0.73528 0.2388 0.0
C798 C 0.69641 0.71781 0.23556 0.0
O799 O 0.664 0.84742 0.24222 0.0
O800 O 0.64117 0.81028 0.25818 0.0
O801 O 0.61968 0.74085 0.24797 0.0
O802 O 0.62915 0.73779 0.26769 0.0
O803 O 0.71319 0.86119 0.26702 0.0
O804 O 0.66592 0.81436 0.27104 0.0
O805 O 0.71202 0.79653 0.2485 0.0
O806 O 0.73302 0.84341 0.25813 0.0
O807 O 0.75562 0.91639 0.24991 0.0
O808 O 0.76281 0.88778 0.2361 0.0
O809 O 0.6558 0.78967 0.23689 0.0
O810 O 0.70536 0.82878 0.23044 0.0
C811 C 0.64001 0.82964 0.24972 0.0
C812 C 0.68967 0.84212 0.27468 0.0
C813 C 0.57626 0.71943 0.26177 0.0
C814 C 0.51949 0.68974 0.25765 0.0
C815 C 0.54067 0.73107 0.2737 0.0
C816 C 0.57125 0.73685 0.27117 0.0
C817 C 0.5149 0.70764 0.267 0.0
C818 C 0.55039 0.69595 0.25503 0.0
C819 C 0.6084 0.72623 0.25862 0.0
C820 C 0.73588 0.72127 0.26607 0.0
C821 C 0.7376 0.73328 0.27825 0.0
H822 H 0.72632 0.69974 0.24196 0.0
C823 C 0.7369 0.82121 0.25321 0.0
C824 C 0.67753 0.80251 0.22811 0.0
C825 C 0.7963 0.94452 0.23479 0.0
C826 C 0.84218 0.99876 0.2341 0.0
C827 C 0.81309 0.97318 0.21492 0.0
C828 C 0.79255 0.94593 0.22171 0.0
C829 C 0.83778 0.9993 0.22103 0.0
C830 C 0.82117 0.97128 0.241 0.0
C831 C 0.77535 0.9151 0.24197 0.0
H832 H 0.53692 0.74468 0.28089 0.0
H833 H 0.59099 0.75531 0.27642 0.0
H834 H 0.49129 0.70301 0.26939 0.0
H835 H 0.55437 0.68265 0.24774 0.0
H836 H 0.80999 0.97396 0.20484 0.0
H837 H 0.774 0.92588 0.21669 0.0
H838 H 0.85353 0.02011 0.21554 0.0
H839 H 0.82449 0.9705 0.25109 0.0
C840 C 0.14261 0.80009 0.22886 0.0
C841 C 0.11422 0.75779 0.24404 0.0
C842 C 0.13425 0.79031 0.24129 0.0
C843 C 0.10329 0.73539 0.23421 0.0
C844 C 0.13161 0.77765 0.21897 0.0
C845 C 0.11193 0.7453 0.22172 0.0
N846 N 0.16244 0.83143 0.22649 0.0
C847 C 0.17171 0.84203 0.21445 0.0
C848 C 0.14112 0.78836 0.20661 0.0
C849 C 0.16122 0.8207 0.20435 0.0
Gd850 Gd 0.26254 0.89722 0.26075 0.0
Gd851 Gd 0.17834 0.86559 0.24394 0.0
N852 N 0.14569 0.81252 0.25065 0.0
C853 C 0.10538 0.74874 0.25657 0.0
C854 C 0.13498 0.8039 0.26273 0.0
C855 C 0.11542 0.77197 0.26592 0.0
H856 H 0.14011 0.82132 0.26992 0.0
H857 H 0.10753 0.76536 0.27557 0.0
H858 H 0.29961 0.94607 0.23599 0.0
H859 H 0.1867 0.86706 0.21258 0.0
H860 H 0.32957 0.00318 0.23164 0.0
H861 H 0.09003 0.72403 0.25907 0.0
H862 H 0.08799 0.71034 0.23618 0.0
H863 H 0.25098 0.88994 0.292 0.0
H864 H 0.13315 0.77186 0.19876 0.0
H865 H 0.16857 0.82923 0.19482 0.0
H866 H 0.33961 0.0514 0.27213 0.0
H867 H 0.10333 0.72772 0.21424 0.0
H868 H 0.2921 0.98329 0.30779 0.0
H869 H 0.2611 0.9251 0.31037 0.0
N870 N 0.27337 0.92809 0.27898 0.0
C871 C 0.29094 0.96008 0.27734 0.0
C872 C 0.26351 0.91537 0.2907 0.0
C873 C 0.28723 0.96806 0.29965 0.0
C874 C 0.26981 0.93516 0.30116 0.0
C875 C 0.2982 0.98093 0.28765 0.0
H876 H 0.32157 0.03023 0.29348 0.0
N877 N 0.29283 0.95132 0.2554 0.0
C878 C 0.30105 0.97203 0.26524 0.0
C879 C 0.32863 0.01635 0.25097 0.0
C880 C 0.31877 0.00512 0.26324 0.0
C881 C 0.30375 0.96219 0.24355 0.0
C882 C 0.32135 0.99476 0.24111 0.0
O883 O 0.20058 0.83469 0.24171 0.0
O884 O 0.22915 0.84403 0.26003 0.0
O885 O 0.30512 0.89648 0.25423 0.0
O886 O 0.29172 0.89029 0.27424 0.0
O887 O 0.18251 0.87467 0.26566 0.0
O888 O 0.22011 0.86169 0.2715 0.0
O889 O 0.23812 0.92722 0.26161 0.0
O890 O 0.21392 0.91735 0.24242 0.0
O891 O 0.13657 0.86864 0.25056 0.0
O892 O 0.14963 0.87385 0.23066 0.0
O893 O 0.2609 0.88717 0.23994 0.0
O894 O 0.22163 0.89428 0.23075 0.0
C895 C 0.21546 0.82667 0.24996 0.0
C896 C 0.19661 0.86635 0.2744 0.0
C897 C 0.33946 0.88901 0.26919 0.0
C898 C 0.38051 0.87586 0.26425 0.0
C899 C 0.37478 0.89011 0.28565 0.0
C900 C 0.34962 0.89413 0.28182 0.0
C901 C 0.3901 0.88094 0.27694 0.0
C902 C 0.35521 0.88007 0.26031 0.0
C903 C 0.31159 0.89173 0.2657 0.0
C904 C 0.32606 0.02592 0.2735 0.0
C905 C 0.31581 0.01386 0.28567 0.0
H906 H 0.34227 0.0416 0.24905 0.0
C907 C 0.2262 0.93568 0.25223 0.0
C908 C 0.24868 0.89359 0.23007 0.0
C909 C 0.10293 0.87765 0.23538 0.0
C910 C 0.04939 0.87022 0.238 0.0
C911 C 0.08101 0.8978 0.21962 0.0
C912 C 0.10563 0.89348 0.22394 0.0
C913 C 0.05313 0.88625 0.22656 0.0
C914 C 0.07453 0.86602 0.24251 0.0
C915 C 0.12954 0.87243 0.23905 0.0
H916 H 0.38233 0.89397 0.29542 0.0
H917 H 0.33802 0.90119 0.28879 0.0
H918 H 0.40952 0.87773 0.28011 0.0
H919 H 0.34748 0.87575 0.25055 0.0
H920 H 0.08352 0.91011 0.21081 0.0
H921 H 0.12696 0.90267 0.21826 0.0
H922 H 0.03423 0.88979 0.22297 0.0
H923 H 0.0718 0.85348 0.2513 0.0
C924 C 0.24728 0.36224 0.2286 0.0
C925 C 0.28992 0.37028 0.24286 0.0
C926 C 0.25781 0.36116 0.24071 0.0
C927 C 0.3114 0.38093 0.23274 0.0
C928 C 0.26881 0.37243 0.21839 0.0
C929 C 0.30089 0.38205 0.22055 0.0
N930 N 0.21589 0.35217 0.22673 0.0
C931 C 0.2044 0.34983 0.21475 0.0
C932 C 0.25736 0.37195 0.20624 0.0
C933 C 0.22499 0.36033 0.20441 0.0
Gd934 Gd 0.14638 0.38505 0.25931 0.0
Gd935 Gd 0.1838 0.33352 0.24493 0.0
N936 N 0.23675 0.35155 0.25043 0.0
C937 C 0.29956 0.36865 0.25517 0.0
C938 C 0.24566 0.34838 0.26233 0.0
C939 C 0.27729 0.35752 0.26493 0.0
H940 H 0.22844 0.33867 0.26983 0.0
H941 H 0.28438 0.35563 0.27442 0.0
H942 H 0.10359 0.37743 0.23302 0.0
H943 H 0.17929 0.33887 0.21294 0.0
H944 H 0.04752 0.353 0.22693 0.0
H945 H 0.32404 0.37564 0.25721 0.0
H946 H 0.33617 0.38822 0.23424 0.0
H947 H 0.14738 0.3744 0.29053 0.0
H948 H 0.27316 0.37962 0.19817 0.0
H949 H 0.21575 0.35876 0.19497 0.0
H950 H 0.99101 0.31122 0.2657 0.0
H951 H 0.3177 0.39 0.21282 0.0
H952 H 0.05111 0.32444 0.30332 0.0
H953 H 0.10864 0.34939 0.30779 0.0
N954 N 0.11218 0.36168 0.27636 0.0
C955 C 0.08076 0.34902 0.27371 0.0
C956 C 0.12238 0.36252 0.28841 0.0
C957 C 0.06803 0.33496 0.29568 0.0
C958 C 0.10047 0.34887 0.29823 0.0
C959 C 0.0578 0.33506 0.28332 0.0
H960 H 0.0075 0.31063 0.28759 0.0
N961 N 0.09402 0.36231 0.25206 0.0
C962 C 0.07144 0.34921 0.26125 0.0
C963 C 0.03032 0.33653 0.24573 0.0
C964 C 0.03893 0.33564 0.25826 0.0
C965 C 0.08579 0.36456 0.23998 0.0
C966 C 0.05389 0.35132 0.23657 0.0
O967 O 0.22005 0.3832 0.25124 0.0
O968 O 0.1957 0.4138 0.25125 0.0
O969 O 0.13742 0.42363 0.25478 0.0
O970 O 0.15701 0.42186 0.2733 0.0
O971 O 0.17441 0.3318 0.26644 0.0
O972 O 0.18235 0.38159 0.27144 0.0
O973 O 0.11895 0.33057 0.26068 0.0
O974 O 0.13228 0.31716 0.24206 0.0
O975 O 0.17037 0.2867 0.25309 0.0
O976 O 0.18843 0.29841 0.23404 0.0
O977 O 0.16052 0.39379 0.23893 0.0
O978 O 0.15643 0.3478 0.2307 0.0
C979 C 0.22107 0.41073 0.25077 0.0
C980 C 0.18264 0.35557 0.27454 0.0
C981 C 0.14919 0.46673 0.26934 0.0
C982 C 0.16533 0.52218 0.26536 0.0
C983 C 0.14286 0.49811 0.28565 0.0
C984 C 0.13986 0.46949 0.28157 0.0
C985 C 0.15573 0.52437 0.27765 0.0
C986 C 0.1614 0.49301 0.26109 0.0
C987 C 0.14818 0.4371 0.2657 0.0
C988 C 0.01607 0.32177 0.26784 0.0
C989 C 0.02546 0.32148 0.28032 0.0
H990 H 0.00561 0.32641 0.24306 0.0
C991 C 0.11295 0.3097 0.25165 0.0
C992 C 0.15636 0.37504 0.22935 0.0
C993 C 0.16577 0.24406 0.23966 0.0
C994 C 0.1694 0.19545 0.23956 0.0
C995 C 0.13146 0.19993 0.22601 0.0
C996 C 0.14209 0.23074 0.23036 0.0
C997 C 0.14512 0.18248 0.23049 0.0
C998 C 0.17936 0.22619 0.2443 0.0
C999 C 0.17992 0.27794 0.24316 0.0
H1000 H 0.13559 0.50009 0.2951 0.0
H1001 H 0.13043 0.44949 0.28801 0.0
H1002 H 0.15822 0.54654 0.28106 0.0
H1003 H 0.16903 0.49118 0.25166 0.0
H1004 H 0.11312 0.18984 0.21885 0.0
H1005 H 0.13257 0.24449 0.22615 0.0
H1006 H 0.13701 0.15889 0.22676 0.0
H1007 H 0.19854 0.23667 0.25111 0.0
C1008 C 0.90939 0.68972 0.78981 0.0
C1009 C 0.94003 0.67721 0.77524 0.0
C1010 C 0.91778 0.68723 0.77751 0.0
C1011 C 0.953 0.66899 0.78542 0.0
C1012 C 0.92254 0.68171 0.80007 0.0
C1013 C 0.9442 0.67114 0.7978 0.0
N1014 N 0.88859 0.7003 0.79175 0.0
C1015 C 0.88031 0.70391 0.80368 0.0
C1016 C 0.91371 0.68483 0.81233 0.0
C1017 C 0.89257 0.69605 0.81413 0.0
Gd1018 Gd 0.78319 0.65852 0.75942 0.0
Gd1019 Gd 0.87038 0.71427 0.77373 0.0
N1020 N 0.90437 0.6948 0.76781 0.0
C1021 C 0.94909 0.67632 0.76282 0.0
C1022 C 0.91385 0.69467 0.75568 0.0
C1023 C 0.93591 0.68501 0.75299 0.0
H1024 H 0.90571 0.70312 0.74801 0.0
H1025 H 0.94333 0.68503 0.74336 0.0
H1026 H 0.7397 0.65008 0.78568 0.0
H1027 H 0.86479 0.71352 0.80521 0.0
H1028 H 0.70818 0.67235 0.7944 0.0
H1029 H 0.96695 0.6699 0.76076 0.0
H1030 H 0.96999 0.66109 0.78382 0.0
H1031 H 0.79089 0.67459 0.72865 0.0
H1032 H 0.92331 0.67895 0.82046 0.0
H1033 H 0.88595 0.69897 0.82358 0.0
H1034 H 0.69726 0.72932 0.75962 0.0
H1035 H 0.95452 0.66486 0.80557 0.0
H1036 H 0.74342 0.72638 0.72003 0.0
H1037 H 0.77573 0.70266 0.71317 0.0
N1038 N 0.76862 0.68337 0.74404 0.0
C1039 C 0.74991 0.69517 0.74794 0.0
C1040 C 0.77739 0.68536 0.73171 0.0
C1041 C 0.7502 0.71421 0.72685 0.0
C1042 C 0.76852 0.70096 0.72294 0.0
C1043 C 0.74053 0.71129 0.73947 0.0
H1044 H 0.71453 0.73652 0.73747 0.0
N1045 N 0.7501 0.67571 0.76847 0.0
C1046 C 0.74085 0.6917 0.76056 0.0
C1047 C 0.7106 0.69762 0.77736 0.0
C1048 C 0.72131 0.70356 0.76486 0.0
C1049 C 0.73691 0.66706 0.78018 0.0
C1050 C 0.71789 0.6787 0.78497 0.0
O1051 O 0.85119 0.66176 0.77662 0.0
O1052 O 0.81725 0.63952 0.75979 0.0
O1053 O 0.74168 0.61263 0.76436 0.0
O1054 O 0.75677 0.62498 0.7447 0.0
O1055 O 0.86404 0.71463 0.75181 0.0
O1056 O 0.82377 0.66402 0.7477 0.0
O1057 O 0.80824 0.71245 0.75632 0.0
O1058 O 0.83202 0.72639 0.77527 0.0
O1059 O 0.90907 0.75795 0.76554 0.0
O1060 O 0.89878 0.75593 0.78534 0.0
O1061 O 0.78935 0.65177 0.78019 0.0
O1062 O 0.8283 0.70083 0.78748 0.0
C1063 C 0.83372 0.63753 0.76923 0.0
C1064 C 0.84764 0.69087 0.74376 0.0
C1065 C 0.71165 0.57272 0.74812 0.0
C1066 C 0.66687 0.51991 0.75211 0.0
C1067 C 0.68691 0.53551 0.73081 0.0
C1068 C 0.70986 0.56523 0.73521 0.0
C1069 C 0.66543 0.51298 0.73919 0.0
C1070 C 0.69016 0.54976 0.75662 0.0
C1071 C 0.7373 0.60369 0.75258 0.0
C1072 C 0.71225 0.72003 0.75648 0.0
C1073 C 0.7219 0.72396 0.74383 0.0
H1074 H 0.69552 0.70629 0.78103 0.0
C1075 C 0.82156 0.73368 0.76529 0.0
C1076 C 0.80286 0.67235 0.78943 0.0
C1077 C 0.95296 0.78713 0.77942 0.0
C1078 C 0.00839 0.82971 0.77699 0.0
C1079 C 0.99528 0.7856 0.79115 0.0
C1080 C 0.96324 0.77252 0.78822 0.0
C1081 C 0.01772 0.81387 0.78555 0.0
C1082 C 0.97581 0.81625 0.7739 0.0
C1083 C 0.91851 0.77229 0.77639 0.0
H1084 H 0.68582 0.52989 0.72087 0.0
H1085 H 0.72644 0.58223 0.7285 0.0
H1086 H 0.64773 0.48995 0.7356 0.0
H1087 H 0.69145 0.55497 0.76663 0.0
H1088 H 1.00272 0.77393 0.79793 0.0
H1089 H 0.94653 0.7512 0.79306 0.0
H1090 H 0.04249 0.82383 0.78811 0.0
H1091 H 0.96837 0.82829 0.76729 0.0
C1092 C 0.36992 0.25055 0.78746 0.0
C1093 C 0.38193 0.29061 0.77141 0.0
C1094 C 0.36981 0.25852 0.77484 0.0
C1095 C 0.39531 0.31444 0.78067 0.0
C1096 C 0.38316 0.27442 0.79678 0.0
C1097 C 0.39601 0.30638 0.7933 0.0
N1098 N 0.35751 0.21943 0.79059 0.0
C1099 C 0.35697 0.21048 0.80284 0.0
C1100 C 0.38308 0.26544 0.80934 0.0
C1101 C 0.36986 0.23333 0.81238 0.0
Gd1102 Gd 0.38731 0.14675 0.75946 0.0
Gd1103 Gd 0.33605 0.18294 0.77399 0.0
N1104 N 0.35736 0.23496 0.766 0.0
C1105 C 0.37971 0.2978 0.75881 0.0
C1106 C 0.35292 0.2418 0.75391 0.0
C1107 C 0.36465 0.27323 0.75008 0.0
H1108 H 0.33919 0.22334 0.74723 0.0
H1109 H 0.36145 0.27843 0.74043 0.0
H1110 H 0.38753 0.10656 0.78564 0.0
H1111 H 0.3461 0.18567 0.80532 0.0
H1112 H 0.36271 0.05121 0.79277 0.0
H1113 H 0.38861 0.32212 0.75581 0.0
H1114 H 0.40492 0.33919 0.77816 0.0
H1115 H 0.37314 0.14401 0.72849 0.0
H1116 H 0.393 0.28308 0.81677 0.0
H1117 H 0.3694 0.22615 0.82208 0.0
H1118 H 0.31384 0.99044 0.7555 0.0
H1119 H 0.40631 0.32504 0.80033 0.0
H1120 H 0.32019 0.04651 0.71741 0.0
H1121 H 0.34328 0.10352 0.71231 0.0
N1122 N 0.36308 0.11037 0.74305 0.0
C1123 C 0.35085 0.07925 0.74611 0.0
C1124 C 0.3616 0.11926 0.731 0.0
C1125 C 0.33246 0.06421 0.72467 0.0
C1126 C 0.34555 0.09634 0.72171 0.0
C1127 C 0.33518 0.05529 0.73697 0.0
H1128 H 0.30973 0.00455 0.73356 0.0
N1129 N 0.36729 0.09496 0.76729 0.0
C1130 C 0.35273 0.07132 0.75859 0.0
C1131 C 0.34251 0.03195 0.7746 0.0
C1132 C 0.33959 0.03916 0.76207 0.0
C1133 C 0.3724 0.08806 0.77924 0.0
C1134 C 0.35928 0.05654 0.78318 0.0
O1135 O 0.38901 0.21175 0.77682 0.0
O1136 O 0.40865 0.20011 0.7592 0.0
O1137 O 0.43228 0.14987 0.76515 0.0
O1138 O 0.4206 0.15052 0.74519 0.0
O1139 O 0.33314 0.17303 0.75233 0.0
O1140 O 0.38309 0.18232 0.74748 0.0
O1141 O 0.33285 0.11807 0.75786 0.0
O1142 O 0.3182 0.13124 0.77628 0.0
O1143 O 0.29092 0.17668 0.76657 0.0
O1144 O 0.30158 0.18448 0.7865 0.0
O1145 O 0.3942 0.15869 0.78027 0.0
O1146 O 0.34665 0.15243 0.78797 0.0
C1147 C 0.41201 0.21829 0.76889 0.0
C1148 C 0.35623 0.18012 0.74403 0.0
C1149 C 0.4714 0.15488 0.74934 0.0
C1150 C 0.52711 0.17202 0.75312 0.0
C1151 C 0.5047 0.15554 0.73213 0.0
C1152 C 0.47534 0.14972 0.73658 0.0
C1153 C 0.5305 0.16683 0.7403 0.0
C1154 C 0.49731 0.16553 0.7577 0.0
C1155 C 0.4412 0.15215 0.7534 0.0
C1156 C 0.32415 0.01526 0.75296 0.0
C1157 C 0.32193 0.02329 0.74046 0.0
H1158 H 0.33265 0.00755 0.77767 0.0
C1159 C 0.31135 0.11239 0.76659 0.0
C1160 C 0.37418 0.15297 0.78962 0.0
C1161 C 0.24803 0.16814 0.78067 0.0
C1162 C 0.19895 0.17082 0.77917 0.0
C1163 C 0.20321 0.1355 0.7943 0.0
C1164 C 0.23413 0.14542 0.79029 0.0
C1165 C 0.18577 0.1481 0.78882 0.0
C1166 C 0.23024 0.18085 0.77509 0.0
C1167 C 0.2821 0.18168 0.77754 0.0
H1168 H 0.50757 0.15165 0.72227 0.0
H1169 H 0.45582 0.14163 0.72996 0.0
H1170 H 0.5532 0.17137 0.73663 0.0
H1171 H 0.49472 0.16998 0.76754 0.0
H1172 H 0.19284 0.11826 0.80184 0.0
H1173 H 0.24745 0.13589 0.79492 0.0
H1174 H 0.16197 0.14037 0.79222 0.0
H1175 H 0.24094 0.19897 0.76787 0.0
C1176 C 0.80123 0.13962 0.79042 0.0
C1177 C 0.75711 0.11398 0.77576 0.0
C1178 C 0.79001 0.13273 0.77806 0.0
C1179 C 0.73575 0.10299 0.78592 0.0
C1180 C 0.7798 0.12871 0.80064 0.0
C1181 C 0.74705 0.11041 0.79832 0.0
N1182 N 0.83302 0.15794 0.79241 0.0
C1183 C 0.84499 0.1657 0.80436 0.0
C1184 C 0.7919 0.13685 0.81291 0.0
C1185 C 0.82463 0.15537 0.81477 0.0
Gd1186 Gd 0.89754 0.26076 0.76049 0.0
Gd1187 Gd 0.86509 0.17395 0.77436 0.0
N1188 N 0.81118 0.14469 0.76833 0.0
C1189 C 0.74659 0.10654 0.76329 0.0
C1190 C 0.80101 0.13606 0.7562 0.0
C1191 C 0.76865 0.11741 0.75348 0.0
H1192 H 0.81748 0.14222 0.74855 0.0
H1193 H 0.76079 0.1109 0.74382 0.0
H1194 H 0.93493 0.30512 0.78626 0.0
H1195 H 0.87031 0.17936 0.80591 0.0
H1196 H 0.98942 0.33376 0.79465 0.0
H1197 H 0.72157 0.09172 0.7612 0.0
H1198 H 0.71041 0.08872 0.78429 0.0
H1199 H 0.90312 0.25225 0.72945 0.0
H1200 H 0.77618 0.12895 0.82101 0.0
H1201 H 0.8342 0.16158 0.82423 0.0
H1202 H 0.05419 0.3428 0.75898 0.0
H1203 H 0.73024 0.10187 0.80607 0.0
H1204 H 1.00171 0.29545 0.72 0.0
H1205 H 0.94533 0.26401 0.71379 0.0
N1206 N 0.93549 0.27501 0.74451 0.0
C1207 C 0.96637 0.29297 0.74807 0.0
C1208 C 0.92768 0.26534 0.73231 0.0
C1209 C 0.98335 0.2901 0.72694 0.0
C1210 C 0.95148 0.27234 0.72339 0.0
C1211 C 0.99116 0.3008 0.7394 0.0
H1212 H 0.04221 0.32478 0.73693 0.0
N1213 N 0.94854 0.29432 0.76873 0.0
C1214 C 0.97307 0.30261 0.76058 0.0
C1215 C 0.01069 0.33162 0.77713 0.0
C1216 C 1.00484 0.32114 0.76461 0.0
C1217 C 0.95416 0.30748 0.78047 0.0
C1218 C 0.98519 0.32502 0.78506 0.0
O1219 O 0.83528 0.19709 0.77786 0.0
O1220 O 0.84505 0.22622 0.75995 0.0
O1221 O 0.88799 0.29759 0.76686 0.0
O1222 O 0.89269 0.29128 0.74685 0.0
O1223 O 0.87281 0.18064 0.75252 0.0
O1224 O 0.86347 0.22154 0.74796 0.0
O1225 O 0.926 0.23509 0.75796 0.0
O1226 O 0.91764 0.20645 0.7761 0.0
O1227 O 0.86776 0.1348 0.76537 0.0
O1228 O 0.86595 0.13706 0.78565 0.0
O1229 O 0.88725 0.25443 0.78152 0.0
O1230 O 0.89724 0.21484 0.78809 0.0
C1231 C 0.82741 0.2124 0.76982 0.0
C1232 C 0.86607 0.19719 0.74432 0.0
C1233 C 0.90289 0.34193 0.75374 0.0
C1234 C 0.90163 0.39054 0.75767 0.0
C1235 C 0.94361 0.39165 0.74484 0.0
C1236 C 0.93058 0.35898 0.74652 0.0
C1237 C 0.92935 0.40743 0.75043 0.0
C1238 C 0.88833 0.35774 0.75921 0.0
C1239 C 0.88793 0.30757 0.75546 0.0
C1240 C 0.02965 0.32881 0.75602 0.0
C1241 C 0.02282 0.31864 0.74345 0.0
H1242 H 0.03473 0.34562 0.78066 0.0
C1243 C 0.93603 0.22321 0.7668 0.0
C1244 C 0.89606 0.24124 0.79029 0.0
C1245 C 0.88531 0.10462 0.77727 0.0
C1246 C 0.88746 0.05517 0.77705 0.0
C1247 C 0.93265 0.10452 0.78441 0.0
C1248 C 0.91632 0.12085 0.78207 0.0
C1249 C 0.91834 0.072 0.78201 0.0
C1250 C 0.87106 0.07176 0.77457 0.0
C1251 C 0.86657 0.12083 0.77601 0.0
H1252 H 0.96484 0.40478 0.7392 0.0
H1253 H 0.942 0.3471 0.74217 0.0
H1254 H 0.93979 0.4328 0.74905 0.0
H1255 H 0.86685 0.34459 0.76476 0.0
H1256 H 0.95638 0.1169 0.78827 0.0
H1257 H 0.92763 0.14598 0.78423 0.0
H1258 H 0.93153 0.05993 0.78399 0.0
H1259 H 0.84696 0.05897 0.77098 0.0
C1260 C 0.35412 0.24294 0.56308 0.0
C1261 C 0.34391 0.27345 0.5786 0.0
C1262 C 0.35429 0.25178 0.57557 0.0
C1263 C 0.33275 0.28535 0.56902 0.0
C1264 C 0.34297 0.25493 0.55343 0.0
C1265 C 0.33224 0.27608 0.55647 0.0
N1266 N 0.36376 0.22175 0.56041 0.0
C1267 C 0.36413 0.21255 0.54827 0.0
C1268 C 0.34259 0.245 0.541 0.0
C1269 C 0.35339 0.22384 0.53841 0.0
Gd1270 Gd 0.32919 0.119 0.59443 0.0
Gd1271 Gd 0.38167 0.20424 0.57746 0.0
N1272 N 0.36439 0.23916 0.58473 0.0
C1273 C 0.34531 0.2828 0.59117 0.0
C1274 C 0.36816 0.25036 0.59681 0.0
C1275 C 0.35797 0.27159 0.60027 0.0
H1276 H 0.38028 0.24445 0.60382 0.0
H1277 H 0.36058 0.27986 0.60992 0.0
H1278 H 0.35034 0.08771 0.57017 0.0
H1279 H 0.37351 0.19716 0.54614 0.0
H1280 H 0.37088 0.05129 0.56727 0.0
H1281 H 0.33761 0.2994 0.59387 0.0
H1282 H 0.32456 0.30186 0.57121 0.0
H1283 H 0.33164 0.1326 0.62552 0.0
H1284 H 0.33419 0.25365 0.53333 0.0
H1285 H 0.35368 0.21639 0.5288 0.0
H1286 H 0.39372 0.03196 0.60929 0.0
H1287 H 0.3235 0.28543 0.54919 0.0
H1288 H 0.37449 0.08459 0.64352 0.0
H1289 H 0.35107 0.11951 0.64485 0.0
N1290 N 0.34696 0.10832 0.61332 0.0
C1291 C 0.35905 0.0885 0.61238 0.0
C1292 C 0.34351 0.11897 0.62479 0.0
C1293 C 0.36679 0.09103 0.63498 0.0
C1294 C 0.35375 0.11088 0.63577 0.0
C1295 C 0.3693 0.07932 0.62322 0.0
H1296 H 0.3896 0.05145 0.63023 0.0
N1297 N 0.35321 0.08838 0.59012 0.0
C1298 C 0.36169 0.07775 0.6005 0.0
C1299 C 0.37711 0.04729 0.58718 0.0
C1300 C 0.37419 0.05718 0.59927 0.0
C1301 C 0.35654 0.07919 0.57834 0.0
C1302 C 0.36837 0.05848 0.57667 0.0
O1303 O 0.32859 0.18242 0.57504 0.0
O1304 O 0.30914 0.15206 0.59297 0.0
O1305 O 0.286 0.07607 0.58794 0.0
O1306 O 0.29262 0.09081 0.6078 0.0
O1307 O 0.38592 0.19963 0.59919 0.0
O1308 O 0.3351 0.16211 0.60437 0.0
O1309 O 0.38333 0.14212 0.59564 0.0
O1310 O 0.3975 0.16839 0.57689 0.0
O1311 O 0.42683 0.24633 0.58342 0.0
O1312 O 0.41873 0.23032 0.56386 0.0
O1313 O 0.32187 0.11878 0.57349 0.0
O1314 O 0.3655 0.1612 0.5638 0.0
C1315 C 0.30511 0.16514 0.5828 0.0
C1316 C 0.36284 0.18559 0.60766 0.0
C1317 C 0.24392 0.04294 0.60304 0.0
C1318 C 0.18931 1.00294 0.59835 0.0
C1319 C 0.20897 0.01023 0.61987 0.0
C1320 C 0.23855 0.03422 0.61584 0.0
C1321 C 0.1844 0.99486 0.61121 0.0
C1322 C 0.21931 0.02679 0.5942 0.0
C1323 C 0.27448 0.07041 0.59937 0.0
C1324 C 0.38399 0.04767 0.61007 0.0
C1325 C 0.38169 0.05881 0.622 0.0
H1326 H 0.38657 0.03148 0.58585 0.0
C1327 C 0.40487 0.15826 0.587 0.0
C1328 C 0.33925 0.13261 0.56344 0.0
C1329 C 0.46927 0.2777 0.56792 0.0
C1330 C 0.51731 0.3296 0.57089 0.0
C1331 C 0.50827 0.3013 0.55108 0.0
C1332 C 0.47986 0.27651 0.55568 0.0
C1333 C 0.52702 0.32745 0.55864 0.0
C1334 C 0.48816 0.30466 0.57557 0.0
C1335 C 0.43756 0.25156 0.57189 0.0
H1336 H 0.20497 0.00379 0.62975 0.0
H1337 H 0.25714 0.04623 0.6228 0.0
H1338 H 0.16143 0.97654 0.61455 0.0
H1339 H 0.22303 0.03344 0.58432 0.0
H1340 H 0.51574 0.30034 0.54155 0.0
H1341 H 0.46593 0.2565 0.54951 0.0
H1342 H 0.54905 0.34645 0.55483 0.0
H1343 H 0.48018 0.30643 0.58493 0.0
C1344 C 0.81242 0.12939 0.56417 0.0
C1345 C 0.78761 0.08939 0.58045 0.0
C1346 C 0.80483 0.12159 0.57678 0.0
C1347 C 0.77923 0.0654 0.57138 0.0
C1348 C 0.80354 0.1054 0.55499 0.0
C1349 C 0.78712 0.07339 0.55867 0.0
N1350 N 0.8292 0.16057 0.56092 0.0
C1351 C 0.83686 0.16942 0.54862 0.0
C1352 C 0.81162 0.11432 0.54237 0.0
C1353 C 0.82818 0.14648 0.53917 0.0
Gd1354 Gd 0.92955 0.2301 0.59368 0.0
Gd1355 Gd 0.84425 0.1978 0.57732 0.0
N1356 N 0.81383 0.14543 0.58539 0.0
C1357 C 0.77877 0.0822 0.5931 0.0
C1358 C 0.80241 0.13829 0.59745 0.0
C1359 C 0.78561 0.10676 0.60157 0.0
H1360 H 0.80491 0.15644 0.6039 0.0
H1361 H 0.77737 0.10141 0.61123 0.0
H1362 H 0.96102 0.28423 0.57009 0.0
H1363 H 0.84949 0.19423 0.54606 0.0
H1364 H 0.99628 0.34149 0.56782 0.0
H1365 H 0.76557 0.05779 0.5963 0.0
H1366 H 0.76626 0.04058 0.57406 0.0
H1367 H 0.92172 0.21586 0.62461 0.0
H1368 H 0.8051 0.09659 0.53503 0.0
H1369 H 0.83434 0.15363 0.52943 0.0
H1370 H 0.02051 0.37989 0.61037 0.0
H1371 H 0.78027 0.05462 0.55177 0.0
H1372 H 0.97281 0.30464 0.64399 0.0
H1373 H 0.938 0.24622 0.64456 0.0
N1374 N 0.9443 0.25666 0.61301 0.0
C1375 C 0.96384 0.28861 0.61244 0.0
C1376 C 0.93539 0.24136 0.62432 0.0
C1377 C 0.96497 0.29143 0.63523 0.0
C1378 C 0.94523 0.25848 0.6356 0.0
C1379 C 0.9748 0.30688 0.62356 0.0
H1380 H 1.00397 0.35425 0.63116 0.0
N1381 N 0.96122 0.28494 0.59013 0.0
C1382 C 0.97304 0.3031 0.60069 0.0
C1383 C 1.00209 0.35006 0.58783 0.0
C1384 C 0.99364 0.33619 0.59981 0.0
C1385 C 0.96966 0.29836 0.57845 0.0
C1386 C 0.98997 0.33104 0.57712 0.0
O1387 O 0.87067 0.17129 0.57382 0.0
O1388 O 0.8935 0.17773 0.59309 0.0
O1389 O 0.96686 0.22475 0.58481 0.0
O1390 O 0.96014 0.21965 0.60508 0.0
O1391 O 0.84881 0.20754 0.5991 0.0
O1392 O 0.88671 0.19473 0.60423 0.0
O1393 O 0.90829 0.26285 0.59507 0.0
O1394 O 0.8787 0.24991 0.577 0.0
O1395 O 0.80034 0.19791 0.58297 0.0
O1396 O 0.81687 0.20659 0.56352 0.0
O1397 O 0.92897 0.22558 0.57255 0.0
O1398 O 0.88607 0.22686 0.56341 0.0
C1399 C 0.88265 0.16159 0.58261 0.0
C1400 C 0.86377 0.19975 0.60768 0.0
C1401 C 0.01172 0.23719 0.5973 0.0
C1402 C 0.06217 0.23931 0.59356 0.0
C1403 C 0.05975 0.27868 0.607 0.0
C1404 C 0.02707 0.26421 0.605 0.0
C1405 C 0.07724 0.26631 0.60136 0.0
C1406 C 0.02929 0.22497 0.59154 0.0
C1407 C 0.97727 0.22037 0.59552 0.0
C1408 C 1.00473 0.35443 0.61087 0.0
C1409 C 0.99527 0.33983 0.62271 0.0
H1410 H 0.01778 0.37541 0.58675 0.0
C1411 C 0.89071 0.26785 0.58694 0.0
C1412 C 0.91482 0.22961 0.56272 0.0
C1413 C 0.76802 0.20733 0.5673 0.0
C1414 C 0.71609 0.20354 0.57037 0.0
C1415 C 0.74412 0.22256 0.55048 0.0
C1416 C 0.76891 0.2188 0.55502 0.0
C1417 C 0.71796 0.21502 0.55807 0.0
C1418 C 0.74125 0.19959 0.57504 0.0
C1419 C 0.79514 0.20339 0.57145 0.0
H1420 H 0.0715 0.2993 0.61307 0.0
H1421 H 0.01383 0.27385 0.60959 0.0
H1422 H 0.10241 0.27745 0.60335 0.0
H1423 H 0.01725 0.20412 0.58557 0.0
H1424 H 0.74523 0.23141 0.54101 0.0
H1425 H 0.78891 0.22496 0.54884 0.0
H1426 H 0.69898 0.21821 0.55432 0.0
H1427 H 0.74001 0.19071 0.58453 0.0
C1428 C 0.91533 0.70076 0.5626 0.0
C1429 C 0.95662 0.71474 0.57828 0.0
C1430 C 0.92423 0.70169 0.57514 0.0
C1431 C 0.97976 0.72729 0.56875 0.0
C1432 C 0.93854 0.71329 0.553 0.0
C1433 C 0.97075 0.72654 0.55615 0.0
N1434 N 0.88409 0.68883 0.55984 0.0
C1435 C 0.87435 0.68805 0.54769 0.0
C1436 C 0.92872 0.71273 0.54054 0.0
C1437 C 0.89649 0.70001 0.53788 0.0
Gd1438 Gd 0.81306 0.71934 0.59222 0.0
Gd1439 Gd 0.84863 0.66826 0.57683 0.0
N1440 N 0.9013 0.6898 0.58422 0.0
C1441 C 0.96482 0.7144 0.59091 0.0
C1442 C 0.90916 0.6871 0.59636 0.0
C1443 C 0.94094 0.70007 0.59994 0.0
H1444 H 0.89128 0.67387 0.60329 0.0
H1445 H 0.94694 0.69832 0.60964 0.0
H1446 H 0.76727 0.71036 0.56679 0.0
H1447 H 0.84943 0.67762 0.54548 0.0
H1448 H 0.71079 0.68789 0.56189 0.0
H1449 H 0.98941 0.72419 0.5937 0.0
H1450 H 1.00472 0.73749 0.57103 0.0
H1451 H 0.81753 0.7118 0.62355 0.0
H1452 H 0.94583 0.72213 0.53291 0.0
H1453 H 0.88865 0.6993 0.52826 0.0
H1454 H 0.65877 0.6504 0.60178 0.0
H1455 H 0.9889 0.73637 0.54891 0.0
H1456 H 0.72283 0.6631 0.63806 0.0
H1457 H 0.78052 0.68733 0.64143 0.0
N1458 N 0.78075 0.69799 0.60998 0.0
C1459 C 0.74907 0.68544 0.60793 0.0
C1460 C 0.79229 0.69964 0.62185 0.0
C1461 C 0.73884 0.67293 0.63011 0.0
C1462 C 0.77148 0.68659 0.63205 0.0
C1463 C 0.72727 0.67257 0.61798 0.0
H1464 H 0.67763 0.64986 0.62326 0.0
N1465 N 0.75977 0.69658 0.58605 0.0
C1466 C 0.73836 0.68518 0.59569 0.0
C1467 C 0.6957 0.67345 0.58105 0.0
C1468 C 0.70567 0.6729 0.59339 0.0
C1469 C 0.75028 0.69852 0.57414 0.0
C1470 C 0.71815 0.68652 0.5714 0.0
O1471 O 0.8773 0.72145 0.57421 0.0
O1472 O 0.86673 0.74167 0.59203 0.0
O1473 O 0.81172 0.76086 0.58547 0.0
O1474 O 0.81561 0.7545 0.60547 0.0
O1475 O 0.83905 0.66486 0.5985 0.0
O1476 O 0.84911 0.71498 0.60387 0.0
O1477 O 0.78339 0.66507 0.5934 0.0
O1478 O 0.79638 0.64842 0.57531 0.0
O1479 O 0.84743 0.62403 0.5834 0.0
O1480 O 0.84369 0.6328 0.56351 0.0
O1481 O 0.8242 0.7267 0.57138 0.0
O1482 O 0.81808 0.67973 0.56323 0.0
C1483 C 0.88529 0.74425 0.5825 0.0
C1484 C 0.84694 0.68787 0.60696 0.0
C1485 C 0.84154 0.8068 0.59761 0.0
C1486 C 0.86114 0.86237 0.59268 0.0
C1487 C 0.89527 0.84662 0.6034 0.0
C1488 C 0.87078 0.81506 0.60328 0.0
C1489 C 0.8906 0.87021 0.59805 0.0
C1490 C 0.83665 0.8306 0.59247 0.0
C1491 C 0.81631 0.77349 0.59667 0.0
C1492 C 0.68397 0.66016 0.60341 0.0
C1493 C 0.69471 0.65984 0.61564 0.0
H1494 H 0.67082 0.6642 0.5789 0.0
C1495 C 0.7778 0.64296 0.58498 0.0
C1496 C 0.81822 0.70708 0.56187 0.0
C1497 C 0.84334 0.58371 0.56773 0.0
C1498 C 0.8474 0.53568 0.57108 0.0
C1499 C 0.83657 0.54847 0.55017 0.0
C1500 C 0.83743 0.57559 0.55486 0.0
C1501 C 0.84148 0.5287 0.55817 0.0
C1502 C 0.84849 0.5635 0.57593 0.0
C1503 C 0.84548 0.61417 0.57182 0.0
H1504 H 0.91785 0.85283 0.6077 0.0
H1505 H 0.87461 0.79708 0.6076 0.0
H1506 H 0.90971 0.89466 0.59835 0.0
H1507 H 0.81398 0.82438 0.58819 0.0
H1508 H 0.83212 0.54275 0.54023 0.0
H1509 H 0.83361 0.5904 0.54827 0.0
H1510 H 0.84069 0.50771 0.55425 0.0
H1511 H 0.85331 0.56928 0.58586 0.0
H1512 H 0.51687 0.95137 0.08124 0.0
H1513 H 0.53025 0.90915 0.08244 0.0
H1514 H 0.49434 0.88853 0.12066 0.0
H1515 H 0.48447 0.93309 0.11981 0.0
H1516 H 0.53843 0.87957 0.12104 0.0
H1517 H 0.4521 0.83849 0.09102 0.0
H1518 H 0.42043 0.8315 0.07187 0.0
H1519 H 0.49825 0.8438 0.04871 0.0
H1520 H 0.53025 0.85071 0.06769 0.0
H1521 H 0.48425 0.7086 0.11005 0.0
H1522 H 0.48768 0.75996 0.11403 0.0
H1523 H 0.57762 0.80772 0.09467 0.0
H1524 H 0.57462 0.75662 0.0908 0.0
H1525 H 0.51192 0.80438 0.08539 0.0
H1526 H 0.59103 0.8329 0.11824 0.0
H1527 H 0.60997 0.82306 0.1384 0.0
H1528 H 0.53185 0.82191 0.15784 0.0
H1529 H 0.51208 0.83107 0.13773 0.0
C1530 C 0.51165 0.93749 0.08982 0.0
C1531 C 0.49911 0.94482 0.10035 0.0
C1532 C 0.51907 0.91319 0.0905 0.0
C1533 C 0.51247 0.89466 0.10152 0.0
C1534 C 0.49978 0.90221 0.11203 0.0
C1535 C 0.49372 0.92741 0.11152 0.0
C1536 C 0.51883 0.86763 0.10217 0.0
C1537 C 0.53224 0.86307 0.11323 0.0
C1538 C 0.5114 0.84593 0.09206 0.0
C1539 C 0.49373 0.84584 0.08072 0.0
C1540 C 0.46269 0.84059 0.08182 0.0
C1541 C 0.4447 0.83668 0.07098 0.0
C1542 C 0.45765 0.83835 0.05904 0.0
C1543 C 0.4885 0.84347 0.05791 0.0
C1544 C 0.50654 0.84728 0.06869 0.0
C1545 C 0.50512 0.73016 0.10695 0.0
C1546 C 0.52903 0.72872 0.10002 0.0
C1547 C 0.50721 0.7594 0.10934 0.0
C1548 C 0.5331 0.78747 0.10478 0.0
C1549 C 0.5578 0.78626 0.09846 0.0
C1550 C 0.55597 0.7571 0.09623 0.0
C1551 C 0.53086 0.81654 0.10412 0.0
C1552 C 0.51824 0.8213 0.09307 0.0
C1553 C 0.5378 0.83741 0.11439 0.0
C1554 C 0.54992 0.83235 0.12647 0.0
C1555 C 0.5777 0.83019 0.12679 0.0
C1556 C 0.58862 0.82481 0.13821 0.0
C1557 C 0.57208 0.82178 0.14939 0.0
C1558 C 0.54463 0.82422 0.14917 0.0
C1559 C 0.53357 0.82952 0.13777 0.0
H1560 H 0.58059 0.81763 0.15823 0.0
H1561 H 0.44359 0.83513 0.05066 0.0
H1562 H 0.29658 0.818 0.076 0.0
H1563 H 0.24814 0.76966 0.08237 0.0
H1564 H 0.28594 0.77843 0.11995 0.0
H1565 H 0.33445 0.82751 0.11359 0.0
H1566 H 0.26243 0.71761 0.10928 0.0
H1567 H 0.22678 0.78889 0.11779 0.0
H1568 H 0.218 0.83417 0.11473 0.0
H1569 H 0.15966 0.78826 0.08237 0.0
H1570 H 0.16855 0.7429 0.0851 0.0
H1571 H 0.10693 0.5821 0.12373 0.0
H1572 H 0.15143 0.63686 0.12535 0.0
H1573 H 0.14976 0.64725 0.08499 0.0
H1574 H 0.10593 0.59234 0.08326 0.0
H1575 H 0.15399 0.70057 0.10223 0.0
H1576 H 0.19983 0.63277 0.09333 0.0
H1577 H 0.20825 0.58796 0.09823 0.0
H1578 H 0.24756 0.6294 0.1343 0.0
H1579 H 0.23849 0.67405 0.12972 0.0
C1580 C 0.29428 0.80978 0.08566 0.0
C1581 C 0.31895 0.82626 0.09433 0.0
C1582 C 0.26667 0.7823 0.0893 0.0
C1583 C 0.2634 0.77059 0.10165 0.0
C1584 C 0.288 0.78719 0.1104 0.0
C1585 C 0.31552 0.81513 0.10679 0.0
C1586 C 0.23488 0.74 0.10497 0.0
C1587 C 0.2387 0.71404 0.10803 0.0
C1588 C 0.20394 0.73535 0.10338 0.0
C1589 C 0.19855 0.76258 0.10159 0.0
C1590 C 0.21233 0.78857 0.10994 0.0
C1591 C 0.20729 0.81424 0.10828 0.0
C1592 C 0.18833 0.81412 0.09834 0.0
C1593 C 0.17436 0.78832 0.09006 0.0
C1594 C 0.17937 0.7626 0.09166 0.0
C1595 C 0.11617 0.59611 0.11521 0.0
C1596 C 0.10342 0.58296 0.10334 0.0
C1597 C 0.14142 0.62732 0.11617 0.0
C1598 C 0.15379 0.64594 0.10529 0.0
C1599 C 0.14044 0.63316 0.09348 0.0
C1600 C 0.11569 0.60177 0.09249 0.0
C1601 C 0.18177 0.67823 0.10602 0.0
C1602 C 0.17774 0.70439 0.10372 0.0
C1603 C 0.21247 0.68317 0.10857 0.0
C1604 C 0.21801 0.65644 0.11127 0.0
C1605 C 0.20986 0.6321 0.10237 0.0
C1606 C 0.21484 0.60677 0.10508 0.0
C1607 C 0.22838 0.60578 0.11658 0.0
C1608 C 0.23699 0.63014 0.1254 0.0
C1609 C 0.23189 0.65543 0.12277 0.0
H1610 H 0.23228 0.58618 0.11866 0.0
H1611 H 0.18443 0.83401 0.09708 0.0
H1612 H 0.24344 0.56352 0.09712 0.0
H1613 H 0.2952 0.5739 0.1049 0.0
H1614 H 0.26241 0.47342 0.10407 0.0
H1615 H 0.21037 0.4631 0.09657 0.0
H1616 H 0.30837 0.50422 0.1226 0.0
H1617 H 0.29463 0.51282 0.07824 0.0
H1618 H 0.27855 0.53141 0.05948 0.0
H1619 H 0.34462 0.62821 0.06938 0.0
H1620 H 0.36108 0.61009 0.08822 0.0
H1621 H 0.44333 0.49774 0.1007 0.0
H1622 H 0.39139 0.49329 0.10334 0.0
H1623 H 0.43659 0.59518 0.10685 0.0
H1624 H 0.4889 0.59912 0.10512 0.0
H1625 H 0.38598 0.56781 0.08919 0.0
H1626 H 0.4063 0.55253 0.13217 0.0
H1627 H 0.42201 0.52762 0.1488 0.0
H1628 H 0.34197 0.43649 0.13982 0.0
H1629 H 0.3261 0.46078 0.12296 0.0
C1630 C 0.24679 0.54363 0.09931 0.0
C1631 C 0.22301 0.51254 0.09646 0.0
C1632 C 0.27642 0.54954 0.10362 0.0
C1633 C 0.28279 0.52445 0.10486 0.0
C1634 C 0.25798 0.4931 0.10322 0.0
C1635 C 0.22826 0.48719 0.09898 0.0
C1636 C 0.31607 0.53115 0.10554 0.0
C1637 C 0.32538 0.51817 0.11534 0.0
C1638 C 0.33824 0.54916 0.09601 0.0
C1639 C 0.32881 0.56017 0.08466 0.0
C1640 C 0.3056 0.53807 0.07643 0.0
C1641 C 0.29645 0.5485 0.06579 0.0
C1642 C 0.31042 0.58098 0.06328 0.0
C1643 C 0.33376 0.60307 0.07136 0.0
C1644 C 0.34307 0.59274 0.082 0.0
C1645 C 0.44224 0.51896 0.10243 0.0
C1646 C 0.47006 0.54865 0.10279 0.0
C1647 C 0.41255 0.51652 0.1038 0.0
C1648 C 0.41017 0.54389 0.10542 0.0
C1649 C 0.43794 0.57375 0.10564 0.0
C1650 C 0.46771 0.57605 0.10447 0.0
C1651 C 0.37851 0.54122 0.10632 0.0
C1652 C 0.36933 0.55463 0.09668 0.0
C1653 C 0.35639 0.52294 0.11583 0.0
C1654 C 0.36514 0.50845 0.12626 0.0
C1655 C 0.39212 0.52716 0.13371 0.0
C1656 C 0.40106 0.51315 0.14317 0.0
C1657 C 0.38302 0.48049 0.14535 0.0
C1658 C 0.35591 0.46179 0.13811 0.0
C1659 C 0.34692 0.47567 0.12861 0.0
H1660 H 0.39005 0.46967 0.15266 0.0
H1661 H 0.30324 0.58902 0.05505 0.0
H1662 H 0.97036 0.55582 0.91173 0.0
H1663 H 0.92302 0.56064 0.91043 0.0
H1664 H 0.86467 0.45949 0.91569 0.0
H1665 H 0.91276 0.45483 0.91715 0.0
H1666 H 0.84311 0.48739 0.89594 0.0
H1667 H 0.87368 0.49997 0.93947 0.0
H1668 H 0.90925 0.52211 0.95784 0.0
H1669 H 0.92451 0.61504 0.94915 0.0
H1670 H 0.88954 0.59353 0.93055 0.0
H1671 H 0.70497 0.4811 0.92493 0.0
H1672 H 0.74876 0.47538 0.9164 0.0
H1673 H 0.80467 0.57697 0.91179 0.0
H1674 H 0.76061 0.5826 0.92011 0.0
H1675 H 0.82787 0.54975 0.9295 0.0
H1676 H 0.79375 0.53657 0.88693 0.0
H1677 H 0.75813 0.5146 0.86857 0.0
H1678 H 0.74821 0.42299 0.8755 0.0
H1679 H 0.78341 0.44431 0.89403 0.0
C1680 C 0.94768 0.53462 0.91237 0.0
C1681 C 0.94542 0.50506 0.91441 0.0
C1682 C 0.9205 0.53736 0.9117 0.0
C1683 C 0.89035 0.51041 0.91292 0.0
C1684 C 0.88778 0.48056 0.91466 0.0
C1685 C 0.91518 0.47797 0.91557 0.0
C1686 C 0.86183 0.51398 0.91311 0.0
C1687 C 0.83944 0.50065 0.90335 0.0
C1688 C 0.85768 0.53208 0.92257 0.0
C1689 C 0.87941 0.54523 0.93352 0.0
C1690 C 0.88502 0.52521 0.94136 0.0
C1691 C 0.90498 0.53762 0.95184 0.0
C1692 C 0.91923 0.56999 0.95463 0.0
C1693 C 0.91355 0.59 0.94695 0.0
C1694 C 0.8937 0.57772 0.93643 0.0
C1695 C 0.72607 0.50197 0.9215 0.0
C1696 C 0.72958 0.53226 0.92308 0.0
C1697 C 0.75103 0.49872 0.91663 0.0
C1698 C 0.77994 0.52577 0.91349 0.0
C1699 C 0.78245 0.55582 0.91409 0.0
C1700 C 0.75731 0.55903 0.91879 0.0
C1701 C 0.80897 0.52326 0.91231 0.0
C1702 C 0.8315 0.53668 0.92199 0.0
C1703 C 0.81302 0.50518 0.9028 0.0
C1704 C 0.7909 0.49196 0.89197 0.0
C1705 C 0.78359 0.51162 0.88466 0.0
C1706 C 0.76358 0.49932 0.87418 0.0
C1707 C 0.75083 0.46739 0.87089 0.0
C1708 C 0.75805 0.4477 0.87807 0.0
C1709 C 0.77804 0.45989 0.88856 0.0
H1710 H 0.73542 0.45793 0.86275 0.0
H1711 H 0.93458 0.57953 0.96278 0.0
H1712 H 0.52017 0.21378 0.90346 0.0
H1713 H 0.51622 0.26147 0.89896 0.0
H1714 H 0.54134 0.292 0.93758 0.0
H1715 H 0.5459 0.245 0.942 0.0
H1716 H 0.48751 0.29442 0.92829 0.0
H1717 H 0.59569 0.32511 0.91694 0.0
H1718 H 0.63645 0.31989 0.90506 0.0
H1719 H 0.59821 0.33128 0.87017 0.0
H1720 H 0.55684 0.33602 0.88187 0.0
H1721 H 0.54728 0.45785 0.935 0.0
H1722 H 0.5383 0.40379 0.93402 0.0
H1723 H 0.52252 0.40137 0.89386 0.0
H1724 H 0.53238 0.45598 0.89472 0.0
H1725 H 0.56433 0.38067 0.90037 0.0
H1726 H 0.45108 0.33976 0.91119 0.0
H1727 H 0.40656 0.33858 0.92293 0.0
H1728 H 0.45474 0.34739 0.95796 0.0
H1729 H 0.49864 0.34677 0.94645 0.0
C1730 C 0.52471 0.23075 0.91094 0.0
C1731 C 0.53346 0.22608 0.92304 0.0
C1732 C 0.52256 0.25786 0.90837 0.0
C1733 C 0.52858 0.28014 0.91795 0.0
C1734 C 0.53661 0.27501 0.93009 0.0
C1735 C 0.53932 0.24834 0.93259 0.0
C1736 C 0.52683 0.30912 0.91551 0.0
C1737 C 0.5043 0.31325 0.92217 0.0
C1738 C 0.54813 0.33327 0.90727 0.0
C1739 C 0.57294 0.33046 0.90025 0.0
C1740 C 0.59577 0.32614 0.90673 0.0
C1741 C 0.61901 0.32334 0.90003 0.0
C1742 C 0.61985 0.32513 0.88686 0.0
C1743 C 0.59748 0.32981 0.88037 0.0
C1744 C 0.57412 0.33254 0.88702 0.0
C1745 C 0.54186 0.44582 0.92596 0.0
C1746 C 0.54038 0.46107 0.91494 0.0
C1747 C 0.53631 0.41477 0.92544 0.0
C1748 C 0.52911 0.39834 0.91391 0.0
C1749 C 0.5277 0.41352 0.90287 0.0
C1750 C 0.53321 0.44463 0.90339 0.0
C1751 C 0.52547 0.36624 0.91342 0.0
C1752 C 0.54703 0.36152 0.90623 0.0
C1753 C 0.50326 0.34138 0.92113 0.0
C1754 C 0.47815 0.3437 0.928 0.0
C1755 C 0.45219 0.34168 0.92139 0.0
C1756 C 0.427 0.34105 0.92799 0.0
C1757 C 0.42804 0.3434 0.94115 0.0
C1758 C 0.45403 0.34577 0.94776 0.0
C1759 C 0.47889 0.34554 0.94123 0.0
H1760 H 0.40862 0.34319 0.94623 0.0
H1761 H 0.6379 0.323 0.88169 0.0
H1762 H 0.60236 0.08105 0.92675 0.0
H1763 H 0.65702 0.12438 0.92472 0.0
H1764 H 0.62484 0.17595 0.90153 0.0
H1765 H 0.57034 0.13054 0.90252 0.0
H1766 H 0.67832 0.18624 0.89267 0.0
H1767 H 0.64438 0.19293 0.93425 0.0
H1768 H 0.62099 0.17359 0.95538 0.0
H1769 H 0.69393 0.151 0.96374 0.0
H1770 H 0.71719 0.16959 0.9426 0.0
H1771 H 0.8056 0.33979 0.91528 0.0
H1772 H 0.7574 0.29297 0.90749 0.0
H1773 H 0.7962 0.23358 0.91819 0.0
H1774 H 0.84456 0.28045 0.92577 0.0
H1775 H 0.74098 0.22739 0.93207 0.0
H1776 H 0.77866 0.22952 0.89019 0.0
H1777 H 0.80138 0.25365 0.86958 0.0
H1778 H 0.72164 0.26663 0.86234 0.0
H1779 H 0.69872 0.24314 0.88303 0.0
C1780 C 0.60722 0.10135 0.92101 0.0
C1781 C 0.58265 0.10248 0.91461 0.0
C1782 C 0.63832 0.12637 0.92 0.0
C1783 C 0.64512 0.15383 0.91315 0.0
C1784 C 0.62028 0.15504 0.90683 0.0
C1785 C 0.58922 0.12936 0.90748 0.0
C1786 C 0.67797 0.18142 0.91292 0.0
C1787 C 0.69189 0.19545 0.9013 0.0
C1788 C 0.69596 0.19337 0.92414 0.0
C1789 C 0.68211 0.18216 0.93683 0.0
C1790 C 0.65507 0.18346 0.94058 0.0
C1791 C 0.64192 0.1727 0.95254 0.0
C1792 C 0.65588 0.16093 0.96086 0.0
C1793 C 0.68307 0.16001 0.95726 0.0
C1794 C 0.69623 0.17064 0.9453 0.0
C1795 C 0.80439 0.31692 0.91531 0.0
C1796 C 0.8285 0.3134 0.92102 0.0
C1797 C 0.77695 0.29026 0.91089 0.0
C1798 C 0.77337 0.25995 0.91231 0.0
C1799 C 0.79877 0.25688 0.91693 0.0
C1800 C 0.82632 0.28355 0.92122 0.0
C1801 C 0.74132 0.23178 0.91186 0.0
C1802 C 0.72747 0.21791 0.92342 0.0
C1803 C 0.7234 0.22071 0.90065 0.0
C1804 C 0.73713 0.23485 0.88822 0.0
C1805 C 0.76613 0.23785 0.88427 0.0
C1806 C 0.77902 0.25136 0.87256 0.0
C1807 C 0.76301 0.26176 0.86467 0.0
C1808 C 0.73404 0.25862 0.86847 0.0
C1809 C 0.72108 0.24519 0.88019 0.0
H1810 H 0.77301 0.27218 0.8556 0.0
H1811 H 0.6457 0.15264 0.97012 0.0
H1812 H 0.14508 0.03075 0.44269 0.0
H1813 H 0.14717 0.08106 0.44734 0.0
H1814 H 0.23173 0.13088 0.42459 0.0
H1815 H 0.2302 0.08063 0.42022 0.0
H1816 H 0.23365 0.16662 0.44434 0.0
H1817 H 0.15941 0.1068 0.41164 0.0
H1818 H 0.11499 0.05742 0.403 0.0
H1819 H 0.05355 0.05754 0.43203 0.0
H1820 H 0.09768 0.10682 0.44096 0.0
H1821 H 0.21471 0.2967 0.42379 0.0
H1822 H 0.22192 0.2504 0.42594 0.0
H1823 H 0.13817 0.20453 0.44936 0.0
H1824 H 0.13143 0.25122 0.44734 0.0
H1825 H 0.13613 0.1667 0.43046 0.0
H1826 H 0.21149 0.22563 0.46352 0.0
H1827 H 0.25847 0.2675 0.47457 0.0
H1828 H 0.31883 0.26811 0.44483 0.0
H1829 H 0.27219 0.22575 0.43374 0.0
C1830 C 0.16441 0.05255 0.43888 0.0
C1831 C 0.18719 0.05188 0.43095 0.0
C1832 C 0.1656 0.08122 0.44153 0.0
C1833 C 0.18912 0.10955 0.43602 0.0
C1834 C 0.21327 0.10925 0.42886 0.0
C1835 C 0.21236 0.08057 0.42636 0.0
C1836 C 0.18668 0.13871 0.43666 0.0
C1837 C 0.2125 0.1668 0.44117 0.0
C1838 C 0.15889 0.13876 0.43271 0.0
C1839 C 0.13183 0.11034 0.42698 0.0
C1840 C 0.13637 0.09631 0.41616 0.0
C1841 C 0.11127 0.06834 0.41124 0.0
C1842 C 0.08143 0.05439 0.41698 0.0
C1843 C 0.07662 0.06849 0.4276 0.0
C1844 C 0.10164 0.09645 0.43259 0.0
C1845 C 0.19817 0.27682 0.4295 0.0
C1846 C 0.17256 0.27721 0.4354 0.0
C1847 C 0.20238 0.25053 0.4308 0.0
C1848 C 0.18083 0.22417 0.43796 0.0
C1849 C 0.1552 0.2247 0.44387 0.0
C1850 C 0.15121 0.25114 0.44266 0.0
C1851 C 0.18318 0.1949 0.43822 0.0
C1852 C 0.1573 0.16667 0.43371 0.0
C1853 C 0.21108 0.19488 0.44203 0.0
C1854 C 0.23841 0.22288 0.44777 0.0
C1855 C 0.23474 0.23508 0.45926 0.0
C1856 C 0.26133 0.25858 0.4656 0.0
C1857 C 0.29164 0.27032 0.46044 0.0
C1858 C 0.29538 0.25887 0.44885 0.0
C1859 C 0.26889 0.23507 0.44255 0.0
H1860 H 0.31222 0.28847 0.46538 0.0
H1861 H 0.06203 0.03264 0.41319 0.0
H1862 H 0.0095 0.1535 0.448 0.0
H1863 H 0.95835 0.10647 0.45311 0.0
H1864 H 0.92185 0.1129 0.41673 0.0
H1865 H 0.97245 0.16088 0.41197 0.0
H1866 H 0.87657 0.09426 0.43392 0.0
H1867 H 0.95677 0.06368 0.42334 0.0
H1868 H 0.00863 0.06795 0.42772 0.0
H1869 H 0.9785 0.03389 0.46546 0.0
H1870 H 0.92663 0.02987 0.46133 0.0
H1871 H 0.78278 0.92291 0.41702 0.0
H1872 H 0.82901 0.97629 0.41836 0.0
H1873 H 0.80648 0.98352 0.45712 0.0
H1874 H 0.7605 0.92957 0.45601 0.0
H1875 H 0.88004 0.99553 0.44224 0.0
H1876 H 0.82055 0.06326 0.45327 0.0
H1877 H 0.77234 0.06715 0.44984 0.0
H1878 H 0.76275 0.0288 0.41251 0.0
H1879 H 0.81094 0.02472 0.41578 0.0
C1880 C 0.99023 0.14508 0.44125 0.0
C1881 C 0.99466 0.16053 0.42961 0.0
C1882 C 0.96114 0.11815 0.44411 0.0
C1883 C 0.93641 0.10564 0.43518 0.0
C1884 C 0.94053 0.122 0.42376 0.0
C1885 C 0.96938 0.14934 0.42103 0.0
C1886 C 0.907 0.07456 0.43725 0.0
C1887 C 0.87747 0.07278 0.4358 0.0
C1888 C 0.90782 0.04639 0.43996 0.0
C1889 C 0.93802 0.04667 0.44206 0.0
C1890 C 0.96122 0.057 0.43255 0.0
C1891 C 0.99063 0.05947 0.435 0.0
C1892 C 0.99691 0.05137 0.44689 0.0
C1893 C 0.97363 0.04029 0.45628 0.0
C1894 C 0.94423 0.03785 0.45388 0.0
C1895 C 0.78757 0.93574 0.42585 0.0
C1896 C 0.76781 0.92194 0.4364 0.0
C1897 C 0.81395 0.96629 0.42658 0.0
C1898 C 0.82101 0.98377 0.43781 0.0
C1899 C 0.80124 0.9704 0.44834 0.0
C1900 C 0.77491 0.93965 0.44766 0.0
C1901 C 0.84998 0.01541 0.43853 0.0
C1902 C 0.87932 0.01718 0.44054 0.0
C1903 C 0.84907 0.0436 0.43649 0.0
C1904 C 0.81895 0.04346 0.4348 0.0
C1905 C 0.80794 0.05547 0.44438 0.0
C1906 C 0.78078 0.05786 0.44244 0.0
C1907 C 0.76462 0.04841 0.43093 0.0
C1908 C 0.77535 0.03616 0.4214 0.0
C1909 C 0.80246 0.03365 0.42331 0.0
H1910 H 0.74365 0.05041 0.42943 0.0
H1911 H 0.01978 0.05365 0.44887 0.0
H1912 H 0.12379 0.86079 0.45389 0.0
H1913 H 0.07068 0.8543 0.45522 0.0
H1914 H 0.07942 0.88876 0.41712 0.0
H1915 H 0.13123 0.89225 0.41523 0.0
H1916 H 0.0575 0.91717 0.44065 0.0
H1917 H 0.03828 0.82504 0.41557 0.0
H1918 H 0.03501 0.77422 0.41008 0.0
H1919 H 0.98307 0.73232 0.44418 0.0
H1920 H 0.98691 0.78322 0.45006 0.0
H1921 H 0.89978 0.87079 0.41902 0.0
H1922 H 0.95589 0.89031 0.42395 0.0
H1923 H 0.92791 0.81882 0.45295 0.0
H1924 H 0.87211 0.79879 0.44773 0.0
H1925 H 0.96128 0.81134 0.43575 0.0
H1926 H 0.97201 0.8978 0.45976 0.0
H1927 H 0.96972 0.94576 0.46545 0.0
H1928 H 0.03404 0.99725 0.43531 0.0
H1929 H 0.03628 0.94943 0.42925 0.0
C1930 C 0.1143 0.86652 0.44571 0.0
C1931 C 0.132 0.87741 0.43447 0.0
C1932 C 0.0841 0.86313 0.44655 0.0
C1933 C 0.07149 0.87139 0.43631 0.0
C1934 C 0.08909 0.88263 0.42516 0.0
C1935 C 0.11883 0.88497 0.42415 0.0
C1936 C 0.03947 0.86745 0.43716 0.0
C1937 C 0.0363 0.89415 0.43948 0.0
C1938 C 0.01213 0.83725 0.43611 0.0
C1939 C 0.01347 0.8081 0.43337 0.0
C1940 C 0.02701 0.80529 0.42208 0.0
C1941 C 0.02474 0.77636 0.41883 0.0
C1942 C 0.00867 0.75002 0.42674 0.0
C1943 C 0.9954 0.75271 0.43804 0.0
C1944 C 0.99782 0.78163 0.44137 0.0
C1945 C 0.90577 0.85998 0.42669 0.0
C1946 C 0.88197 0.83299 0.43287 0.0
C1947 C 0.93775 0.87125 0.42957 0.0
C1948 C 0.94607 0.85587 0.43877 0.0
C1949 C 0.92201 0.83092 0.44577 0.0
C1950 C 0.89022 0.81939 0.44277 0.0
C1951 C 0.97875 0.86103 0.43928 0.0
C1952 C 0.98223 0.83448 0.43714 0.0
C1953 C 0.00613 0.8913 0.44068 0.0
C1954 C 1.004 0.91985 0.44396 0.0
C1955 C 0.98529 0.91919 0.45421 0.0
C1956 C 0.98409 0.9464 0.45753 0.0
C1957 C 1.00167 0.9745 0.45073 0.0
C1958 C 0.0204 0.97545 0.44055 0.0
C1959 C 0.02164 0.94828 0.43717 0.0
H1960 H 1.00088 0.99554 0.4534 0.0
H1961 H 0.00657 0.72752 0.42413 0.0
H1962 H 0.42999 0.91302 0.24889 0.0
H1963 H 0.46973 0.89977 0.24133 0.0
H1964 H 0.41034 0.80318 0.25385 0.0
H1965 H 0.37069 0.81643 0.26134 0.0
H1966 H 0.46978 0.84007 0.26669 0.0
H1967 H 0.4287 0.81437 0.22424 0.0
H1968 H 0.41206 0.82525 0.20374 0.0
H1969 H 0.50569 0.90471 0.19795 0.0
H1970 H 0.52274 0.89463 0.21852 0.0
H1971 H 0.58339 0.79303 0.26166 0.0
H1972 H 0.53476 0.79536 0.2599 0.0
H1973 H 0.58176 0.87502 0.23444 0.0
H1974 H 0.62885 0.86962 0.2349 0.0
H1975 H 0.52659 0.84548 0.22709 0.0
H1976 H 0.5678 0.88032 0.26847 0.0
H1977 H 0.58803 0.87849 0.28963 0.0
H1978 H 0.49972 0.79452 0.29843 0.0
H1979 H 0.47916 0.79563 0.27726 0.0
C1980 C 0.42477 0.88861 0.24937 0.0
C1981 C 0.39738 0.86563 0.25559 0.0
C1982 C 0.44748 0.88107 0.2451 0.0
C1983 C 0.44301 0.85054 0.2471 0.0
C1984 C 0.41416 0.82683 0.25219 0.0
C1985 C 0.39146 0.83433 0.25639 0.0
C1986 C 0.47049 0.84526 0.24652 0.0
C1987 C 0.48186 0.84058 0.258 0.0
C1988 C 0.48723 0.84782 0.23529 0.0
C1989 C 0.47691 0.85388 0.22296 0.0
C1990 C 0.44565 0.83435 0.21865 0.0
C1991 C 0.43616 0.84034 0.20701 0.0
C1992 C 0.45778 0.86569 0.19956 0.0
C1993 C 0.48895 0.88509 0.20373 0.0
C1994 C 0.49854 0.87924 0.21537 0.0
C1995 C 0.58328 0.81074 0.25558 0.0
C1996 C 0.61048 0.83156 0.24868 0.0
C1997 C 0.55548 0.81243 0.25469 0.0
C1998 C 0.55464 0.83616 0.24738 0.0
C1999 C 0.58161 0.85663 0.24026 0.0
C2000 C 0.60894 0.85394 0.24073 0.0
C2001 C 0.52592 0.8399 0.24733 0.0
C2002 C 0.51445 0.84462 0.2358 0.0
C2003 C 0.50968 0.83875 0.2586 0.0
C2004 C 0.52211 0.83787 0.27126 0.0
C2005 C 0.55282 0.86134 0.2749 0.0
C2006 C 0.56432 0.86045 0.28689 0.0
C2007 C 0.54521 0.83634 0.29535 0.0
C2008 C 0.51453 0.81313 0.29186 0.0
C2009 C 0.50294 0.81388 0.27987 0.0
H2010 H 0.55413 0.83564 0.30463 0.0
H2011 H 0.4504 0.87027 0.19053 0.0
H2012 H 0.24015 0.79927 0.26554 0.0
H2013 H 0.23628 0.7473 0.26304 0.0
H2014 H 0.183 0.73156 0.22867 0.0
H2015 H 0.18865 0.78411 0.23056 0.0
H2016 H 0.15683 0.68107 0.25053 0.0
H2017 H 0.24393 0.74176 0.22228 0.0
H2018 H 0.2956 0.78801 0.21671 0.0
H2019 H 0.34086 0.7639 0.24605 0.0
H2020 H 0.28924 0.71791 0.25201 0.0
H2021 H 0.14185 0.53274 0.2436 0.0
H2022 H 0.15655 0.58515 0.23488 0.0
H2023 H 0.23459 0.62915 0.26119 0.0
H2024 H 0.22014 0.57696 0.26975 0.0
H2025 H 0.24751 0.66534 0.23975 0.0
H2026 H 0.16394 0.61366 0.27047 0.0
H2027 H 0.11393 0.56858 0.27829 0.0
H2028 H 0.06375 0.57772 0.24665 0.0
H2029 H 0.11373 0.62245 0.23849 0.0
C2030 C 0.22778 0.78489 0.2574 0.0
C2031 C 0.21397 0.79562 0.24842 0.0
C2032 C 0.22562 0.75524 0.256 0.0
C2033 C 0.20925 0.73569 0.2457 0.0
C2034 C 0.19558 0.7463 0.23671 0.0
C2035 C 0.19851 0.77625 0.23791 0.0
C2036 C 0.20563 0.70374 0.24458 0.0
C2037 C 0.17639 0.6775 0.24787 0.0
C2038 C 0.23145 0.69939 0.24142 0.0
C2039 C 0.26264 0.72659 0.23769 0.0
C2040 C 0.26483 0.7465 0.22764 0.0
C2041 C 0.29412 0.77267 0.2244 0.0
C2042 C 0.32149 0.77898 0.23106 0.0
C2043 C 0.31962 0.75905 0.24093 0.0
C2044 C 0.29034 0.73292 0.24424 0.0
C2045 C 0.16298 0.55351 0.24708 0.0
C2046 C 0.17968 0.55106 0.25742 0.0
C2047 C 0.17132 0.58342 0.24214 0.0
C2048 C 0.19626 0.61112 0.24759 0.0
C2049 C 0.21523 0.6082 0.25687 0.0
C2050 C 0.20689 0.57839 0.2618 0.0
C2051 C 0.19858 0.6425 0.24566 0.0
C2052 C 0.22764 0.66875 0.24201 0.0
C2053 C 0.17275 0.64709 0.24871 0.0
C2054 C 0.14254 0.62107 0.2538 0.0
C2055 C 0.14225 0.60594 0.26516 0.0
C2056 C 0.11395 0.58044 0.26964 0.0
C2057 C 0.08569 0.57023 0.26295 0.0
C2058 C 0.08568 0.5856 0.2518 0.0
C2059 C 0.11399 0.611 0.24723 0.0
H2060 H 0.06379 0.55047 0.26643 0.0
H2061 H 0.34417 0.79925 0.22854 0.0
H2062 H 0.50954 0.6303 0.25254 0.0
H2063 H 0.45935 0.58383 0.24645 0.0
H2064 H 0.41645 0.64261 0.24272 0.0
H2065 H 0.46671 0.68933 0.2486 0.0
H2066 H 0.38958 0.59631 0.26113 0.0
H2067 H 0.42118 0.60436 0.21787 0.0
H2068 H 0.45613 0.60847 0.20025 0.0
H2069 H 0.44646 0.51854 0.21047 0.0
H2070 H 0.41201 0.5142 0.22833 0.0
H2071 H 0.23347 0.4721 0.24833 0.0
H2072 H 0.28519 0.52027 0.24636 0.0
H2073 H 0.33171 0.46477 0.2494 0.0
H2074 H 0.28039 0.41702 0.2522 0.0
H2075 H 0.35637 0.5097 0.22971 0.0
H2076 H 0.33428 0.50389 0.27359 0.0
H2077 H 0.30381 0.49854 0.29293 0.0
H2078 H 0.30058 0.58267 0.28316 0.0
H2079 H 0.33066 0.58822 0.26365 0.0
C2080 C 0.48976 0.63355 0.24998 0.0
C2081 C 0.49175 0.66329 0.25132 0.0
C2082 C 0.46113 0.60696 0.24647 0.0
C2083 C 0.43425 0.60987 0.24424 0.0
C2084 C 0.43699 0.63998 0.24447 0.0
C2085 C 0.46558 0.66654 0.24793 0.0
C2086 C 0.40244 0.5813 0.24408 0.0
C2087 C 0.38201 0.57774 0.25405 0.0
C2088 C 0.39342 0.55647 0.23524 0.0
C2089 C 0.41421 0.55909 0.22452 0.0
C2090 C 0.42677 0.58561 0.21645 0.0
C2091 C 0.44647 0.58796 0.2064 0.0
C2092 C 0.45357 0.56382 0.20425 0.0
C2093 C 0.44097 0.53725 0.21215 0.0
C2094 C 0.42136 0.53484 0.22224 0.0
C2095 C 0.25463 0.47001 0.24857 0.0
C2096 C 0.25254 0.44021 0.24996 0.0
C2097 C 0.28417 0.4976 0.2474 0.0
C2098 C 0.31217 0.49593 0.24751 0.0
C2099 C 0.31031 0.46644 0.24901 0.0
C2100 C 0.28083 0.439 0.25047 0.0
C2101 C 0.34346 0.52518 0.24662 0.0
C2102 C 0.36383 0.52864 0.23659 0.0
C2103 C 0.35296 0.5498 0.25557 0.0
C2104 C 0.33421 0.54615 0.26708 0.0
C2105 C 0.32667 0.52099 0.27548 0.0
C2106 C 0.30959 0.51799 0.28649 0.0
C2107 C 0.30015 0.54018 0.28925 0.0
C2108 C 0.30781 0.56544 0.28099 0.0
C2109 C 0.32487 0.56852 0.26996 0.0
H2110 H 0.28698 0.53786 0.29779 0.0
H2111 H 0.46878 0.56566 0.19646 0.0
H2112 H 0.87027 0.62609 0.78582 0.0
H2113 H 0.87698 0.57971 0.7867 0.0
H2114 H 0.80696 0.53491 0.75736 0.0
H2115 H 0.80128 0.5821 0.75588 0.0
H2116 H 0.80204 0.49486 0.77982 0.0
H2117 H 0.8732 0.56159 0.74739 0.0
H2118 H 0.91685 0.60837 0.73696 0.0
H2119 H 0.98227 0.61189 0.76505 0.0
H2120 H 0.93884 0.56542 0.77578 0.0
H2121 H 0.84297 0.38302 0.75315 0.0
H2122 H 0.82397 0.41905 0.75987 0.0
H2123 H 0.90847 0.4716 0.78247 0.0
H2124 H 0.92778 0.43634 0.77543 0.0
H2125 H 0.90435 0.5072 0.76501 0.0
H2126 H 0.83394 0.43457 0.79555 0.0
H2127 H 0.79092 0.38477 0.80447 0.0
H2128 H 0.72365 0.38989 0.77971 0.0
H2129 H 0.76636 0.4394 0.77045 0.0
C2130 C 0.85662 0.60673 0.7794 0.0
C2131 C 0.83599 0.60837 0.77051 0.0
C2132 C 0.86022 0.58003 0.78004 0.0
C2133 C 0.84253 0.55406 0.77207 0.0
C2134 C 0.82078 0.55483 0.76359 0.0
C2135 C 0.81773 0.58188 0.76273 0.0
C2136 C 0.84812 0.52689 0.77211 0.0
C2137 C 0.82425 0.49726 0.77651 0.0
C2138 C 0.87738 0.5305 0.76809 0.0
C2139 C 0.90272 0.56033 0.76247 0.0
C2140 C 0.89675 0.57276 0.7515 0.0
C2141 C 0.9215 0.59903 0.74547 0.0
C2142 C 0.95235 0.61285 0.75027 0.0
C2143 C 0.9584 0.60098 0.76129 0.0
C2144 C 0.93372 0.57476 0.76737 0.0
C2145 C 0.85693 0.4018 0.75982 0.0
C2146 C 0.88703 0.40753 0.76363 0.0
C2147 C 0.84599 0.42217 0.76374 0.0
C2148 C 0.86488 0.4481 0.77163 0.0
C2149 C 0.89358 0.45182 0.77634 0.0
C2150 C 0.90469 0.43186 0.77228 0.0
C2151 C 0.85844 0.47473 0.77286 0.0
C2152 C 0.8822 0.50451 0.76858 0.0
C2153 C 0.82904 0.47099 0.77697 0.0
C2154 C 0.8035 0.44055 0.78219 0.0
C2155 C 0.81008 0.42484 0.79186 0.0
C2156 C 0.78571 0.3967 0.79701 0.0
C2157 C 0.75459 0.38411 0.79263 0.0
C2158 C 0.74778 0.39962 0.78308 0.0
C2159 C 0.77207 0.42772 0.77787 0.0
H2160 H 0.73573 0.36239 0.79667 0.0
H2161 H 0.97156 0.63292 0.74548 0.0
H2162 H 0.60409 0.49876 0.75289 0.0
H2163 H 0.56337 0.44931 0.76234 0.0
H2164 H 0.6362 0.43497 0.77916 0.0
H2165 H 0.67717 0.48476 0.76952 0.0
H2166 H 0.59775 0.3861 0.76492 0.0
H2167 H 0.5816 0.44116 0.79805 0.0
H2168 H 0.5746 0.48262 0.80843 0.0
H2169 H 0.48814 0.45253 0.78777 0.0
H2170 H 0.49483 0.41115 0.77712 0.0
H2171 H 0.46321 0.23491 0.78375 0.0
H2172 H 0.50966 0.28846 0.78635 0.0
H2173 H 0.46919 0.3253 0.7596 0.0
H2174 H 0.42397 0.27157 0.75644 0.0
H2175 H 0.49495 0.36127 0.78433 0.0
H2176 H 0.5201 0.31759 0.74786 0.0
H2177 H 0.52681 0.27679 0.73673 0.0
H2178 H 0.59687 0.28678 0.76389 0.0
H2179 H 0.59012 0.32739 0.77532 0.0
C2180 C 0.61129 0.48561 0.75902 0.0
C2181 C 0.64351 0.49537 0.76057 0.0
C2182 C 0.58807 0.45742 0.76446 0.0
C2183 C 0.59669 0.43846 0.77154 0.0
C2184 C 0.62904 0.44933 0.77379 0.0
C2185 C 0.65236 0.47776 0.76837 0.0
C2186 C 0.57211 0.4054 0.77462 0.0
C2187 C 0.57572 0.38068 0.76957 0.0
C2188 C 0.54303 0.39824 0.78041 0.0
C2189 C 0.5388 0.4231 0.78675 0.0
C2190 C 0.56121 0.44352 0.79565 0.0
C2191 C 0.55727 0.46699 0.8016 0.0
C2192 C 0.53095 0.47023 0.79876 0.0
C2193 C 0.5085 0.44997 0.78997 0.0
C2194 C 0.51232 0.42646 0.78399 0.0
C2195 C 0.46462 0.25453 0.77837 0.0
C2196 C 0.44042 0.24957 0.76989 0.0
C2197 C 0.49081 0.28496 0.77993 0.0
C2198 C 0.49251 0.31071 0.77327 0.0
C2199 C 0.46804 0.3057 0.76491 0.0
C2200 C 0.4424 0.27517 0.76307 0.0
C2201 C 0.52068 0.34267 0.77437 0.0
C2202 C 0.51753 0.36689 0.78013 0.0
C2203 C 0.55022 0.34948 0.76926 0.0
C2204 C 0.55426 0.32508 0.76253 0.0
C2205 C 0.53663 0.31079 0.75154 0.0
C2206 C 0.5405 0.28779 0.74517 0.0
C2207 C 0.56217 0.27915 0.74962 0.0
C2208 C 0.58003 0.29347 0.76048 0.0
C2209 C 0.57619 0.31647 0.76691 0.0
H2210 H 0.5652 0.26151 0.74459 0.0
H2211 H 0.52794 0.48841 0.80338 0.0
H2212 H 0.53507 0.1437 0.77395 0.0
H2213 H 0.58649 0.15529 0.78283 0.0
H2214 H 0.63387 0.23818 0.75913 0.0
H2215 H 0.58298 0.22642 0.75017 0.0
H2216 H 0.63596 0.17399 0.75502 0.0
H2217 H 0.65316 0.26035 0.78297 0.0
H2218 H 0.64145 0.2843 0.80122 0.0
H2219 H 0.64921 0.21873 0.82611 0.0
H2220 H 0.66046 0.19406 0.80796 0.0
H2221 H 0.79902 0.2325 0.75286 0.0
H2222 H 0.74677 0.2276 0.75435 0.0
H2223 H 0.73199 0.18165 0.79056 0.0
H2224 H 0.78518 0.1882 0.78948 0.0
H2225 H 0.71024 0.22204 0.791 0.0
H2226 H 0.69568 0.13735 0.76298 0.0
H2227 H 0.70496 0.11207 0.74446 0.0
H2228 H 0.69117 0.17383 0.71965 0.0
H2229 H 0.68148 0.19929 0.73791 0.0
C2230 C 0.55633 0.16525 0.77116 0.0
C2231 C 0.55525 0.18417 0.76137 0.0
C2232 C 0.58563 0.1719 0.77625 0.0
C2233 C 0.61383 0.19769 0.77167 0.0
C2234 C 0.61229 0.21848 0.76291 0.0
C2235 C 0.58322 0.21173 0.75778 0.0
C2236 C 0.64406 0.19777 0.77289 0.0
C2237 C 0.65232 0.18462 0.76286 0.0
C2238 C 0.66472 0.2108 0.78329 0.0
C2239 C 0.65707 0.22502 0.7941 0.0
C2240 C 0.65182 0.25068 0.79231 0.0
C2241 C 0.64543 0.2645 0.80264 0.0
C2242 C 0.64443 0.25295 0.81481 0.0
C2243 C 0.64987 0.22758 0.81668 0.0
C2244 C 0.65625 0.21368 0.80637 0.0
C2245 C 0.78477 0.22146 0.76118 0.0
C2246 C 0.79603 0.21012 0.77094 0.0
C2247 C 0.75476 0.21845 0.76197 0.0
C2248 C 0.73513 0.20353 0.77242 0.0
C2249 C 0.7466 0.19295 0.78235 0.0
C2250 C 0.77688 0.19639 0.78165 0.0
C2251 C 0.70268 0.19909 0.77288 0.0
C2252 C 0.6938 0.21108 0.78322 0.0
C2253 C 0.68124 0.185 0.76272 0.0
C2254 C 0.68809 0.17035 0.7518 0.0
C2255 C 0.69491 0.1457 0.75358 0.0
C2256 C 0.70019 0.13133 0.74314 0.0
C2257 C 0.69894 0.14151 0.73094 0.0
C2258 C 0.69223 0.16601 0.72911 0.0
C2259 C 0.68671 0.18034 0.73948 0.0
H2260 H 0.70302 0.13029 0.72289 0.0
H2261 H 0.63957 0.26373 0.8228 0.0
H2262 H 0.04442 0.17655 0.59196 0.0
H2263 H 0.07716 0.15372 0.58556 0.0
H2264 H 0.15445 0.24754 0.57707 0.0
H2265 H 0.12138 0.27031 0.58298 0.0
H2266 H 0.15049 0.19911 0.56048 0.0
H2267 H 0.14994 0.22043 0.60589 0.0
H2268 H 0.1196 0.21311 0.62549 0.0
H2269 H 0.07891 0.11197 0.62252 0.0
H2270 H 0.10874 0.11878 0.60279 0.0
H2271 H 0.29509 0.20828 0.57014 0.0
H2272 H 0.24819 0.21284 0.56969 0.0
H2273 H 0.197 0.1241 0.58992 0.0
H2274 H 0.24633 0.12231 0.59201 0.0
H2275 H 0.17823 0.15824 0.59849 0.0
H2276 H 0.18872 0.13723 0.55547 0.0
H2277 H 0.21694 0.14381 0.53538 0.0
H2278 H 0.23504 0.23957 0.53233 0.0
H2279 H 0.20741 0.23376 0.5525 0.0
C2280 C 0.06799 0.19215 0.58833 0.0
C2281 C 0.08047 0.22522 0.58812 0.0
C2282 C 0.08669 0.17911 0.58472 0.0
C2283 C 0.11829 0.19903 0.58098 0.0
C2284 C 0.13009 0.2318 0.57992 0.0
C2285 C 0.11134 0.24481 0.58347 0.0
C2286 C 0.14057 0.18673 0.58007 0.0
C2287 C 0.15662 0.19001 0.56872 0.0
C2288 C 0.14771 0.174 0.59073 0.0
C2289 C 0.1314 0.17008 0.60292 0.0
C2290 C 0.13456 0.19667 0.60946 0.0
C2291 C 0.11741 0.19261 0.62056 0.0
C2292 C 0.09733 0.16209 0.62524 0.0
C2293 C 0.09449 0.13559 0.61888 0.0
C2294 C 0.11153 0.13952 0.60776 0.0
C2295 C 0.27431 0.19007 0.5747 0.0
C2296 C 0.27498 0.16551 0.58137 0.0
C2297 C 0.24685 0.19216 0.57414 0.0
C2298 C 0.21836 0.16825 0.57937 0.0
C2299 C 0.21855 0.1429 0.58574 0.0
C2300 C 0.24672 0.14181 0.58689 0.0
C2301 C 0.18923 0.17113 0.57886 0.0
C2302 C 0.1718 0.16627 0.59002 0.0
C2303 C 0.18051 0.18187 0.5679 0.0
C2304 C 0.19601 0.18503 0.55551 0.0
C2305 C 0.19872 0.15968 0.55051 0.0
C2306 C 0.21468 0.16331 0.53912 0.0
C2307 C 0.22779 0.19209 0.53258 0.0
C2308 C 0.22485 0.21728 0.53739 0.0
C2309 C 0.20897 0.2138 0.54879 0.0
H2310 H 0.24022 0.19488 0.52378 0.0
H2311 H 0.08397 0.15898 0.63382 0.0
H2312 H 0.8166 0.87709 0.60019 0.0
H2313 H 0.81424 0.92479 0.5947 0.0
H2314 H 0.89122 0.95174 0.56827 0.0
H2315 H 0.89452 0.90485 0.57427 0.0
H2316 H 0.9057 0.99727 0.58316 0.0
H2317 H 0.81244 0.93168 0.55943 0.0
H2318 H 0.75898 0.88676 0.55495 0.0
H2319 H 0.71972 0.91844 0.58404 0.0
H2320 H 0.77302 0.96325 0.58884 0.0
H2321 H 0.88713 0.13139 0.56183 0.0
H2322 H 0.8789 0.07722 0.56068 0.0
H2323 H 0.85463 0.06378 0.60021 0.0
H2324 H 0.86428 0.11832 0.60156 0.0
H2325 H 0.81309 0.01217 0.57608 0.0
H2326 H 0.90988 0.06929 0.60233 0.0
H2327 H 0.9646 0.1113 0.60712 0.0
H2328 H 0.99691 0.0926 0.57215 0.0
H2329 H 0.94211 0.05099 0.56701 0.0
C2330 C 0.83246 0.89293 0.593 0.0
C2331 C 0.85594 0.88772 0.58771 0.0
C2332 C 0.83097 0.92004 0.58979 0.0
C2333 C 0.85248 0.94188 0.58102 0.0
C2334 C 0.87447 0.93534 0.5751 0.0
C2335 C 0.87639 0.90864 0.57851 0.0
C2336 C 0.85533 0.97356 0.57945 0.0
C2337 C 0.88541 1.0003 0.58131 0.0
C2338 C 0.82887 0.97778 0.57735 0.0
C2339 C 0.7968 0.9507 0.57456 0.0
C2340 C 0.79246 0.92891 0.56495 0.0
C2341 C 0.76217 0.90348 0.56234 0.0
C2342 C 0.73598 0.89971 0.56922 0.0
C2343 C 0.74002 0.92137 0.57872 0.0
C2344 C 0.77027 0.9468 0.58139 0.0
C2345 C 0.88023 0.11684 0.57026 0.0
C2346 C 0.87701 0.12901 0.58184 0.0
C2347 C 0.87542 0.08603 0.56958 0.0
C2348 C 0.86651 0.06688 0.58039 0.0
C2349 C 0.86188 0.07851 0.59183 0.0
C2350 C 0.86761 0.1096 0.5926 0.0
C2351 C 0.86317 0.03508 0.57991 0.0
C2352 C 0.83317 0.00863 0.57767 0.0
C2353 C 0.88961 0.0309 0.58159 0.0
C2354 C 0.92183 0.0577 0.58414 0.0
C2355 C 0.92848 0.07479 0.5955 0.0
C2356 C 0.95954 0.09835 0.59832 0.0
C2357 C 0.98417 0.10467 0.58992 0.0
C2358 C 0.97776 0.08777 0.57861 0.0
C2359 C 0.9467 0.0643 0.57572 0.0
H2360 H 0.00828 0.12234 0.59226 0.0
H2361 H 0.71253 0.88003 0.56718 0.0
H2362 H 0.13467 0.00455 0.59837 0.0
H2363 H 0.08389 0.96306 0.59004 0.0
H2364 H 0.13151 0.91987 0.57122 0.0
H2365 H 0.18266 0.96163 0.5796 0.0
H2366 H 0.06552 0.91428 0.55992 0.0
H2367 H 0.11525 0.88818 0.59482 0.0
H2368 H 0.1469 0.90372 0.61443 0.0
H2369 H 0.07925 0.92387 0.63202 0.0
H2370 H 0.04745 0.90877 0.61242 0.0
H2371 H 0.9277 0.76111 0.56299 0.0
H2372 H 0.982 0.80461 0.56225 0.0
H2373 H 0.96753 0.83992 0.59762 0.0
H2374 H 0.91564 0.79254 0.59958 0.0
H2375 H 0.02107 0.84886 0.59853 0.0
H2376 H 0.96774 0.86923 0.56319 0.0
H2377 H 0.93769 0.85315 0.54315 0.0
H2378 H 0.01262 0.84422 0.5257 0.0
H2379 H 0.04284 0.85981 0.54563 0.0
C2380 C 0.13445 0.98711 0.59193 0.0
C2381 C 0.16229 0.98595 0.58967 0.0
C2382 C 0.1055 0.9635 0.58716 0.0
C2383 C 0.10405 0.93838 0.58012 0.0
C2384 C 0.13231 0.93926 0.57656 0.0
C2385 C 0.16144 0.96304 0.58135 0.0
C2386 C 0.07344 0.90837 0.57942 0.0
C2387 C 0.05571 0.89968 0.56828 0.0
C2388 C 0.06082 0.88956 0.59033 0.0
C2389 C 0.07914 0.89748 0.60221 0.0
C2390 C 0.10721 0.89597 0.60288 0.0
C2391 C 0.12513 0.90466 0.61398 0.0
C2392 C 0.11504 0.91468 0.62448 0.0
C2393 C 0.08698 0.916 0.6239 0.0
C2394 C 0.06898 0.90734 0.61281 0.0
C2395 C 0.93642 0.77744 0.57083 0.0
C2396 C 0.91724 0.77288 0.58145 0.0
C2397 C 0.96734 0.80315 0.57019 0.0
C2398 C 0.97897 0.82653 0.57966 0.0
C2399 C 0.9594 0.82246 0.59011 0.0
C2400 C 0.92927 0.7956 0.59113 0.0
C2401 C 0.01171 0.85464 0.57906 0.0
C2402 C 0.03027 0.86313 0.59006 0.0
C2403 C 0.02492 0.87307 0.56795 0.0
C2404 C 0.00739 0.86547 0.55588 0.0
C2405 C 0.97778 0.8639 0.55505 0.0
C2406 C 0.9607 0.8548 0.54373 0.0
C2407 C 0.97324 0.84757 0.53319 0.0
C2408 C 1.00296 0.84977 0.53388 0.0
C2409 C 0.02006 0.85877 0.54517 0.0
H2410 H 0.95997 0.84017 0.52448 0.0
H2411 H 0.12902 0.92154 0.63305 0.0
H2412 H 0.4839 0.97445 0.05953 0.0
H2413 H 0.48726 0.97533 0.03699 0.0
H2414 H 0.56849 0.07016 0.03846 0.0
H2415 H 0.55986 0.0718 0.06126 0.0
H2416 H 0.54578 0.07116 0.01911 0.0
H2417 H 0.56328 0.98623 0.03085 0.0
H2418 H 0.55323 0.93668 0.04132 0.0
H2419 H 0.46372 0.88514 0.02213 0.0
H2420 H 0.47301 0.93436 0.01168 0.0
H2421 H 0.56552 0.05852 0.95311 0.0
H2422 H 0.57359 0.05886 0.97592 0.0
H2423 H 0.48039 0.9763 0.97976 0.0
H2424 H 0.4735 0.97467 0.95674 0.0
H2425 H 0.51682 0.97171 0.99595 0.0
H2426 H 0.5046 0.06367 0.98475 0.0
H2427 H 0.52283 0.11371 0.97301 0.0
H2428 H 0.61436 0.1534 0.99072 0.0
H2429 H 0.59678 0.10338 1.00236 0.0
C2430 C 0.50198 0.99606 0.05512 0.0
C2431 C 0.52048 0.02362 0.06234 0.0
C2432 C 0.50483 0.99604 0.04201 0.0
C2433 C 0.52901 0.02227 0.03555 0.0
C2434 C 0.54933 0.04934 0.0429 0.0
C2435 C 0.54479 0.0502 0.05607 0.0
C2436 C 0.5317 0.02166 0.02124 0.0
C2437 C 0.53997 0.04935 0.0142 0.0
C2438 C 0.52426 0.99357 0.01432 0.0
C2439 C 0.51883 0.96397 0.02052 0.0
C2440 C 0.54144 0.96433 0.0289 0.0
C2441 C 0.53585 0.93633 0.03483 0.0
C2442 C 0.50788 0.90785 0.03237 0.0
C2443 C 0.48538 0.90724 0.024 0.0
C2444 C 0.49082 0.93514 0.01805 0.0
C2445 C 0.54711 0.03995 0.95882 0.0
C2446 C 0.51901 0.01635 0.95312 0.0
C2447 C 0.55147 0.04049 0.97194 0.0
C2448 C 0.52716 0.01836 0.97984 0.0
C2449 C 0.49956 0.99391 0.97403 0.0
C2450 C 0.49565 0.99277 0.96083 0.0
C2451 C 0.52999 0.02073 0.99406 0.0
C2452 C 0.52281 0.9934 1.00101 0.0
C2453 C 0.53963 0.04935 1.00085 0.0
C2454 C 0.54942 0.0798 0.99435 0.0
C2455 C 0.52856 0.08311 0.98613 0.0
C2456 C 0.53883 0.11142 0.97947 0.0
C2457 C 0.56977 0.1367 0.9811 0.0
C2458 C 0.59043 0.1338 0.98945 0.0
C2459 C 0.58033 0.10549 0.99608 0.0
H2460 H 0.57772 0.15856 0.9759 0.0
H2461 H 0.50368 0.88623 0.03689 0.0
H2462 H 0.9884 0.52443 0.95486 0.0
H2463 H 0.98706 0.52792 0.97787 0.0
H2464 H 0.07515 0.52718 0.98035 0.0
H2465 H 0.07711 0.52482 0.95717 0.0
H2466 H 0.98465 0.48109 0.99419 0.0
H2467 H 0.10784 0.5678 0.99495 0.0
H2468 H 0.14741 0.62009 0.98637 0.0
H2469 H 0.08366 0.65564 0.99319 0.0
H2470 H 0.04345 0.60325 1.00144 0.0
H2471 H 0.98393 0.46268 0.06076 0.0
H2472 H 0.98917 0.46569 0.03812 0.0
H2473 H 0.03933 0.56838 0.04037 0.0
H2474 H 0.04129 0.56422 0.06317 0.0
H2475 H 0.06101 0.56557 0.02263 0.0
H2476 H 0.94641 0.49692 0.02591 0.0
H2477 H 0.89648 0.45038 0.03309 0.0
H2478 H 0.92648 0.38787 0.01763 0.0
H2479 H 0.97655 0.43402 0.01042 0.0
C2480 C 0.00813 0.52617 0.96027 0.0
C2481 C 0.03323 0.52503 0.95409 0.0
C2482 C 0.00721 0.52796 0.97349 0.0
C2483 C 0.03124 0.52842 0.98102 0.0
C2484 C 0.05684 0.52808 0.97487 0.0
C2485 C 0.05802 0.52677 0.96155 0.0
C2486 C 0.02762 0.52609 0.9952 0.0
C2487 C 1.00141 0.49944 1.00049 0.0
C2488 C 0.0483 0.55046 1.00349 0.0
C2489 C 0.07259 0.58162 0.99857 0.0
C2490 C 0.10218 0.58667 0.99444 0.0
C2491 C 0.1247 0.61631 0.98965 0.0
C2492 C 0.118 0.64113 0.98917 0.0
C2493 C 0.08877 0.63637 0.99349 0.0
C2494 C 0.06608 0.6067 0.99816 0.0
C2495 C 0.99581 0.4859 0.05636 0.0
C2496 C 0.01206 0.51312 0.06387 0.0
C2497 C 0.99823 0.48784 0.0431 0.0
C2498 C 0.0138 0.5174 0.03668 0.0
C2499 C 0.02766 0.54486 0.04445 0.0
C2500 C 0.02793 0.54267 0.05772 0.0
C2501 C 0.01732 0.51993 0.02222 0.0
C2502 C 0.04364 0.54679 0.0167 0.0
C2503 C 0.99547 0.4964 0.01363 0.0
C2504 C 0.96518 0.46883 0.01772 0.0
C2505 C 0.94226 0.47323 0.02405 0.0
C2506 C 0.91399 0.44693 0.02813 0.0
C2507 C 0.90835 0.4162 0.02584 0.0
C2508 C 0.93087 0.41167 0.0194 0.0
C2509 C 0.95914 0.43786 0.01529 0.0
H2510 H 0.88649 0.39588 0.02903 0.0
H2511 H 0.13551 0.66409 0.98551 0.0
H2512 H 0.52034 0.57298 0.9564 0.0
H2513 H 0.51805 0.56969 0.97964 0.0
H2514 H 0.51746 0.48082 0.97794 0.0
H2515 H 0.5211 0.48476 0.95486 0.0
H2516 H 0.47491 0.47959 0.99622 0.0
H2517 H 0.58217 0.538 0.9859 0.0
H2518 H 0.63508 0.57771 0.97809 0.0
H2519 H 0.62782 0.65152 0.99744 0.0
H2520 H 0.57458 0.61223 1.00522 0.0
H2521 H 0.54081 0.49421 0.06152 0.0
H2522 H 0.53242 0.48668 0.03852 0.0
H2523 H 0.50737 0.56002 0.03731 0.0
H2524 H 0.51426 0.56674 0.06012 0.0
H2525 H 0.56285 0.56556 0.02065 0.0
H2526 H 0.45203 0.49628 0.03234 0.0
H2527 H 0.40852 0.44941 0.04278 0.0
H2528 H 0.4318 0.38826 0.02172 0.0
H2529 H 0.47588 0.43486 0.01134 0.0
C2530 C 0.51872 0.55229 0.96097 0.0
C2531 C 0.52042 0.52891 0.95372 0.0
C2532 C 0.51791 0.55063 0.97429 0.0
C2533 C 0.51779 0.52506 0.98067 0.0
C2534 C 0.51754 0.5008 0.97337 0.0
C2535 C 0.51938 0.50297 0.96012 0.0
C2536 C 0.51887 0.52403 0.99489 0.0
C2537 C 0.49424 0.49844 1.00151 0.0
C2538 C 0.54432 0.54799 1.00199 0.0
C2539 C 0.57414 0.57225 0.99596 0.0
C2540 C 0.5915 0.56279 0.98824 0.0
C2541 C 0.62175 0.58517 0.98396 0.0
C2542 C 0.63493 0.61709 0.98736 0.0
C2543 C 0.61766 0.62677 0.99488 0.0
C2544 C 0.5874 0.60447 0.99918 0.0
C2545 C 0.53281 0.50823 0.05641 0.0
C2546 C 0.52874 0.53147 0.06278 0.0
C2547 C 0.52809 0.50394 0.04323 0.0
C2548 C 0.5194 0.52291 0.0361 0.0
C2549 C 0.51412 0.54512 0.04252 0.0
C2550 C 0.51817 0.54894 0.05563 0.0
C2551 C 0.51843 0.52198 0.02192 0.0
C2552 C 0.54328 0.54709 0.01531 0.0
C2553 C 0.49386 0.49698 0.01488 0.0
C2554 C 0.46752 0.46909 0.0212 0.0
C2555 C 0.44816 0.47289 0.03006 0.0
C2556 C 0.42332 0.44635 0.03594 0.0
C2557 C 0.41747 0.41588 0.03295 0.0
C2558 C 0.43641 0.41188 0.02406 0.0
C2559 C 0.46132 0.43834 0.01817 0.0
H2560 H 0.39819 0.39536 0.0375 0.0
H2561 H 0.65837 0.63438 0.98405 0.0
H2562 H 0.19352 0.40747 0.39343 0.0
H2563 H 0.19569 0.40447 0.37021 0.0
H2564 H 0.20298 0.32002 0.37355 0.0
H2565 H 0.19919 0.32205 0.39659 0.0
H2566 H 0.24839 0.37613 0.35455 0.0
H2567 H 0.14237 0.29901 0.36677 0.0
H2568 H 0.08844 0.27566 0.37558 0.0
H2569 H 0.0702 0.33742 0.35247 0.0
H2570 H 0.12451 0.36198 0.34386 0.0
H2571 H 0.15922 0.30248 0.28996 0.0
H2572 H 0.16542 0.30183 0.31305 0.0
H2573 H 0.22839 0.40316 0.31278 0.0
H2574 H 0.22247 0.40389 0.28995 0.0
H2575 H 0.14808 0.33411 0.33026 0.0
H2576 H 0.27492 0.42273 0.32899 0.0
H2577 H 0.32538 0.43459 0.31876 0.0
H2578 H 0.29693 0.33549 0.31951 0.0
H2579 H 0.24609 0.32314 0.32951 0.0
C2580 C 0.1966 0.38888 0.38922 0.0
C2581 C 0.19666 0.36527 0.39691 0.0
C2582 C 0.19732 0.38685 0.37592 0.0
C2583 C 0.199 0.3617 0.37004 0.0
C2584 C 0.20135 0.33947 0.37777 0.0
C2585 C 0.19955 0.34087 0.39098 0.0
C2586 C 0.19803 0.35824 0.3559 0.0
C2587 C 0.2264 0.36726 0.3493 0.0
C2588 C 0.16934 0.34555 0.34886 0.0
C2589 C 0.13789 0.33298 0.35494 0.0
C2590 C 0.12727 0.30832 0.36385 0.0
C2591 C 0.09646 0.29459 0.3687 0.0
C2592 C 0.07588 0.30503 0.36459 0.0
C2593 C 0.08612 0.32932 0.35565 0.0
C2594 C 0.11698 0.34327 0.35083 0.0
C2595 C 0.17511 0.32443 0.29479 0.0
C2596 C 0.19039 0.3532 0.28805 0.0
C2597 C 0.17851 0.32411 0.30802 0.0
C2598 C 0.19776 0.35242 0.31477 0.0
C2599 C 0.21403 0.38085 0.30791 0.0
C2600 C 0.21042 0.38124 0.29479 0.0
C2601 C 0.19842 0.35311 0.32897 0.0
C2602 C 0.17004 0.34347 0.33557 0.0
C2603 C 0.22681 0.36466 0.33603 0.0
C2604 C 0.25686 0.37207 0.32985 0.0
C2605 C 0.27948 0.40355 0.3269 0.0
C2606 C 0.30806 0.41032 0.32113 0.0
C2607 C 0.31434 0.3858 0.31846 0.0
C2608 C 0.29198 0.35443 0.32152 0.0
C2609 C 0.26324 0.34752 0.32716 0.0
H2610 H 0.33654 0.3911 0.31406 0.0
H2611 H 0.05204 0.29435 0.36835 0.0
H2612 H 0.6402 0.8093 0.39391 0.0
H2613 H 0.64145 0.81336 0.3707 0.0
H2614 H 0.72466 0.90623 0.373 0.0
H2615 H 0.72465 0.90133 0.3961 0.0
H2616 H 0.66221 0.88783 0.3537 0.0
H2617 H 0.75019 0.87343 0.36644 0.0
H2618 H 0.77552 0.84728 0.37748 0.0
H2619 H 0.71519 0.76037 0.35772 0.0
H2620 H 0.68841 0.78567 0.34701 0.0
H2621 H 0.74078 0.88111 0.28991 0.0
H2622 H 0.74037 0.8889 0.31288 0.0
H2623 H 0.63852 0.82978 0.31321 0.0
H2624 H 0.6387 0.82217 0.29043 0.0
H2625 H 0.71381 0.83595 0.3312 0.0
H2626 H 0.61455 0.85528 0.32696 0.0
H2627 H 0.59441 0.88617 0.31566 0.0
H2628 H 0.68663 0.96967 0.3179 0.0
H2629 H 0.70728 0.93909 0.32907 0.0
C2630 C 0.65819 0.83094 0.38946 0.0
C2631 C 0.68213 0.85516 0.39683 0.0
C2632 C 0.65911 0.83311 0.37619 0.0
C2633 C 0.68339 0.85996 0.37005 0.0
C2634 C 0.70586 0.88516 0.37747 0.0
C2635 C 0.70568 0.88247 0.39068 0.0
C2636 C 0.68628 0.86105 0.35593 0.0
C2637 C 0.67338 0.87631 0.34883 0.0
C2638 C 0.70144 0.84675 0.34942 0.0
C2639 C 0.71665 0.8312 0.35622 0.0
C2640 C 0.74166 0.8485 0.36473 0.0
C2641 C 0.75645 0.83389 0.37086 0.0
C2642 C 0.74691 0.80215 0.36834 0.0
C2643 C 0.72253 0.78495 0.35968 0.0
C2644 C 0.70738 0.79935 0.35365 0.0
C2645 C 0.71826 0.87037 0.29484 0.0
C2646 C 0.68981 0.85094 0.28827 0.0
C2647 C 0.71805 0.87471 0.308 0.0
C2648 C 0.68936 0.86023 0.31485 0.0
C2649 C 0.66092 0.84178 0.3082 0.0
C2650 C 0.66112 0.83728 0.29513 0.0
C2651 C 0.68909 0.86201 0.32899 0.0
C2652 C 0.70249 0.84727 0.3361 0.0
C2653 C 0.67471 0.87696 0.33552 0.0
C2654 C 0.66243 0.89496 0.32867 0.0
C2655 C 0.63049 0.88018 0.32494 0.0
C2656 C 0.61902 0.89758 0.31856 0.0
C2657 C 0.63926 0.9298 0.316 0.0
C2658 C 0.67102 0.94468 0.31982 0.0
C2659 C 0.68264 0.92732 0.32613 0.0
H2660 H 0.63029 0.94325 0.3111 0.0
H2661 H 0.75842 0.79089 0.37308 0.0
H2662 H 0.19192 0.90689 0.2914 0.0
H2663 H 0.18931 0.90135 0.3146 0.0
H2664 H 0.17521 0.80689 0.31094 0.0
H2665 H 0.17988 0.81313 0.28799 0.0
H2666 H 0.14162 0.85127 0.33207 0.0
H2667 H 0.21813 0.80722 0.32103 0.0
H2668 H 0.26492 0.81639 0.3086 0.0
H2669 H 0.31474 0.91392 0.32049 0.0
H2670 H 0.26776 0.90542 0.33264 0.0
H2671 H 0.14879 0.82423 0.39732 0.0
H2672 H 0.14247 0.8156 0.37461 0.0
H2673 H 0.24382 0.87654 0.36998 0.0
H2674 H 0.25021 0.87876 0.39281 0.0
H2675 H 0.23218 0.84778 0.35193 0.0
H2676 H 0.167 0.89323 0.36673 0.0
H2677 H 0.12324 0.89193 0.37908 0.0
H2678 H 0.05657 0.80428 0.36117 0.0
H2679 H 0.09995 0.80496 0.34882 0.0
C2680 C 0.1874 0.88465 0.29556 0.0
C2681 C 0.18591 0.86037 0.28784 0.0
C2682 C 0.18632 0.88162 0.30885 0.0
C2683 C 0.18331 0.85411 0.31463 0.0
C2684 C 0.17906 0.82892 0.30683 0.0
C2685 C 0.18101 0.83224 0.29366 0.0
C2686 C 0.18542 0.85181 0.32873 0.0
C2687 C 0.1614 0.85051 0.33647 0.0
C2688 C 0.21127 0.85121 0.33461 0.0
C2689 C 0.23917 0.85599 0.32732 0.0
C2690 C 0.23881 0.83076 0.32074 0.0
C2691 C 0.2654 0.8358 0.3138 0.0
C2692 C 0.29269 0.86579 0.31366 0.0
C2693 C 0.29352 0.89076 0.32052 0.0
C2694 C 0.26689 0.88586 0.32738 0.0
C2695 C 0.16981 0.83439 0.39144 0.0
C2696 C 0.20008 0.852 0.39692 0.0
C2697 C 0.16612 0.83064 0.37827 0.0
C2698 C 0.19228 0.84708 0.37005 0.0
C2699 C 0.22272 0.86352 0.37569 0.0
C2700 C 0.22654 0.86506 0.38889 0.0
C2701 C 0.18849 0.84783 0.35577 0.0
C2702 C 0.21226 0.84878 0.34784 0.0
C2703 C 0.16264 0.84887 0.34978 0.0
C2704 C 0.13667 0.84905 0.35696 0.0
C2705 C 0.14298 0.87374 0.36544 0.0
C2706 C 0.11827 0.87307 0.37245 0.0
C2707 C 0.08716 0.84801 0.37093 0.0
C2708 C 0.08066 0.82365 0.36235 0.0
C2709 C 0.10527 0.82418 0.35534 0.0
H2710 H 0.06809 0.84749 0.37638 0.0
H2711 H 0.31331 0.86958 0.30835 0.0
H2712 H 0.82014 0.64268 0.72669 0.0
H2713 H 0.82559 0.64378 0.70418 0.0
H2714 H 0.90052 0.74164 0.70593 0.0
H2715 H 0.8924 0.74165 0.72894 0.0
H2716 H 0.87212 0.73833 0.68641 0.0
H2717 H 0.90885 0.66883 0.69881 0.0
H2718 H 0.90921 0.62437 0.70988 0.0
H2719 H 0.82339 0.558 0.69079 0.0
H2720 H 0.82223 0.60208 0.67976 0.0
H2721 H 0.89701 0.73089 0.62081 0.0
H2722 H 0.90485 0.73194 0.64362 0.0
H2723 H 0.81958 0.6407 0.6469 0.0
H2724 H 0.81282 0.63891 0.62381 0.0
H2725 H 0.86047 0.64381 0.6637 0.0
H2726 H 0.82629 0.71986 0.65251 0.0
H2727 H 0.83298 0.7664 0.64052 0.0
H2728 H 0.92498 0.82389 0.65726 0.0
H2729 H 0.91889 0.77743 0.6691 0.0
C2730 C 0.83801 0.66471 0.72246 0.0
C2731 C 0.85558 0.69226 0.72989 0.0
C2732 C 0.84149 0.66508 0.70936 0.0
C2733 C 0.86427 0.6924 0.70301 0.0
C2734 C 0.88275 0.71996 0.7104 0.0
C2735 C 0.87833 0.71995 0.72365 0.0
C2736 C 0.86722 0.69203 0.68872 0.0
C2737 C 0.87018 0.71778 0.68156 0.0
C2738 C 0.86464 0.66541 0.68199 0.0
C2739 C 0.86537 0.63879 0.68852 0.0
C2740 C 0.88998 0.64476 0.69702 0.0
C2741 C 0.89032 0.61963 0.70329 0.0
C2742 C 0.86632 0.58839 0.70105 0.0
C2743 C 0.84196 0.5822 0.69252 0.0
C2744 C 0.84147 0.60725 0.68625 0.0
C2745 C 0.88032 0.71065 0.62636 0.0
C2746 C 0.85439 0.6847 0.62043 0.0
C2747 C 0.88454 0.71149 0.6395 0.0
C2748 C 0.86224 0.68698 0.64727 0.0
C2749 C 0.83712 0.66019 0.64128 0.0
C2750 C 0.83334 0.65899 0.62802 0.0
C2751 C 0.86455 0.68964 0.66154 0.0
C2752 C 0.8626 0.66433 0.66865 0.0
C2753 C 0.86914 0.71704 0.66821 0.0
C2754 C 0.87218 0.74518 0.66156 0.0
C2755 C 0.84789 0.74243 0.65356 0.0
C2756 C 0.85161 0.76876 0.6468 0.0
C2757 C 0.87943 0.79809 0.64811 0.0
C2758 C 0.90347 0.80116 0.65624 0.0
C2759 C 0.89987 0.77484 0.66297 0.0
H2760 H 0.88233 0.81845 0.64284 0.0
H2761 H 0.86662 0.56896 0.70592 0.0
H2762 H 0.31809 0.18704 0.62243 0.0
H2763 H 0.31731 0.19059 0.64533 0.0
H2764 H 0.41393 0.20957 0.64692 0.0
H2765 H 0.41425 0.20478 0.62376 0.0
H2766 H 0.38141 0.16707 0.66365 0.0
H2767 H 0.38816 0.26684 0.65407 0.0
H2768 H 0.3725 0.30263 0.64393 0.0
H2769 H 0.28063 0.25185 0.66137 0.0
H2770 H 0.29556 0.21543 0.67145 0.0
H2771 H 0.40258 0.2247 0.72927 0.0
H2772 H 0.40372 0.22966 0.70628 0.0
H2773 H 0.30676 0.15344 0.7043 0.0
H2774 H 0.30517 0.14891 0.72758 0.0
H2775 H 0.34025 0.22587 0.68814 0.0
H2776 H 0.34203 0.11316 0.67915 0.0
H2777 H 0.35999 0.07761 0.68782 0.0
H2778 H 0.43713 0.15661 0.70679 0.0
H2779 H 0.42028 0.19269 0.69784 0.0
C2780 C 0.33953 0.19278 0.62761 0.0
C2781 C 0.36634 0.19582 0.62119 0.0
C2782 C 0.33907 0.19489 0.6408 0.0
C2783 C 0.36563 0.20069 0.64809 0.0
C2784 C 0.39303 0.20514 0.64164 0.0
C2785 C 0.39345 0.20288 0.62835 0.0
C2786 C 0.36387 0.19983 0.66235 0.0
C2787 C 0.37267 0.18029 0.66893 0.0
C2788 C 0.35188 0.21638 0.66949 0.0
C2789 C 0.34291 0.23827 0.66343 0.0
C2790 C 0.36454 0.26317 0.65567 0.0
C2791 C 0.3558 0.28358 0.64994 0.0
C2792 C 0.32558 0.27948 0.65199 0.0
C2793 C 0.30403 0.25498 0.65978 0.0
C2794 C 0.31262 0.23446 0.66551 0.0
C2795 C 0.38117 0.20938 0.724 0.0
C2796 C 0.35366 0.18656 0.73035 0.0
C2797 C 0.382 0.21205 0.7108 0.0
C2798 C 0.35565 0.19146 0.70345 0.0
C2799 C 0.32759 0.16941 0.70973 0.0
C2800 C 0.32653 0.16709 0.72306 0.0
C2801 C 0.3579 0.19329 0.68928 0.0
C2802 C 0.349 0.2128 0.68277 0.0
C2803 C 0.36992 0.17689 0.68217 0.0
C2804 C 0.37932 0.15539 0.68817 0.0
C2805 C 0.3627 0.12284 0.68524 0.0
C2806 C 0.3729 0.10268 0.69008 0.0
C2807 C 0.39962 0.11482 0.69789 0.0
C2808 C 0.41629 0.14719 0.70082 0.0
C2809 C 0.40639 0.16751 0.69589 0.0
H2810 H 0.40738 0.09915 0.70169 0.0
H2811 H 0.31887 0.29533 0.64755 0.0
H2812 H 0.87239 0.16049 0.62325 0.0
H2813 H 0.86884 0.15699 0.64589 0.0
H2814 H 0.82527 0.21567 0.64619 0.0
H2815 H 0.83305 0.22279 0.62318 0.0
H2816 H 0.85847 0.23285 0.66455 0.0
H2817 H 0.78685 0.12578 0.65376 0.0
H2818 H 0.7669 0.07406 0.64316 0.0
H2819 H 0.84074 0.06302 0.66046 0.0
H2820 H 0.86145 0.1149 0.671 0.0
H2821 H 0.82408 0.20381 0.72961 0.0
H2822 H 0.81792 0.19935 0.70678 0.0
H2823 H 0.88628 0.16764 0.70463 0.0
H2824 H 0.89229 0.17176 0.72783 0.0
H2825 H 0.83679 0.13539 0.68774 0.0
H2826 H 0.90781 0.24856 0.69703 0.0
H2827 H 0.92117 0.29883 0.70793 0.0
H2828 H 0.83556 0.29287 0.69384 0.0
H2829 H 0.8219 0.24284 0.68286 0.0
C2830 C 0.86184 0.17268 0.62804 0.0
C2831 C 0.85359 0.1925 0.62126 0.0
C2832 C 0.85924 0.1701 0.64118 0.0
C2833 C 0.84597 0.18526 0.64814 0.0
C2834 C 0.83574 0.2036 0.64128 0.0
C2835 C 0.8397 0.20736 0.62802 0.0
C2836 C 0.84494 0.18353 0.66248 0.0
C2837 C 0.85301 0.21115 0.66948 0.0
C2838 C 0.8383 0.15562 0.66935 0.0
C2839 C 0.82581 0.12432 0.6631 0.0
C2840 C 0.79893 0.11239 0.65525 0.0
C2841 C 0.78749 0.08305 0.64925 0.0
C2842 C 0.80257 0.06529 0.65112 0.0
C2843 C 0.82909 0.07681 0.65901 0.0
C2844 C 0.84067 0.10616 0.66501 0.0
C2845 C 0.83759 0.19544 0.72435 0.0
C2846 C 0.8588 0.18821 0.73065 0.0
C2847 C 0.83423 0.19319 0.7112 0.0
C2848 C 0.85225 0.18405 0.70377 0.0
C2849 C 0.87224 0.17509 0.71006 0.0
C2850 C 0.87552 0.17717 0.72336 0.0
C2851 C 0.8505 0.18458 0.68954 0.0
C2852 C 0.84197 0.1568 0.68264 0.0
C2853 C 0.85544 0.2119 0.68277 0.0
C2854 C 0.86379 0.24198 0.68927 0.0
C2855 C 0.89185 0.25799 0.69636 0.0
C2856 C 0.89946 0.28638 0.70252 0.0
C2857 C 0.87912 0.29886 0.70166 0.0
C2858 C 0.85126 0.28314 0.69454 0.0
C2859 C 0.84364 0.25486 0.6883 0.0
H2860 H 0.88503 0.32079 0.70646 0.0
H2861 H 0.79368 0.04258 0.64647 0.0
H2862 H 0.24031 0.91473 0.20639 0.0
H2863 H 0.27793 0.93338 0.18844 0.0
H2864 H 0.34176 0.9136 0.20955 0.0
H2865 H 0.30455 0.89371 0.22691 0.0
H2866 H 0.36987 0.97902 0.19806 0.0
H2867 H 0.30946 0.8668 0.18941 0.0
H2868 H 0.2612 0.81575 0.18486 0.0
H2869 H 0.24459 0.85563 0.15152 0.0
H2870 H 0.29238 0.90718 0.15605 0.0
H2871 H 0.48768 0.02309 0.14816 0.0
H2872 H 0.45403 1.0009 0.16688 0.0
H2873 H 0.37102 0.95733 0.14286 0.0
H2874 H 0.40422 0.97216 0.12493 0.0
H2875 H 0.35371 0.92073 0.15798 0.0
H2876 H 0.41042 0.03722 0.16834 0.0
H2877 H 0.45922 0.08773 0.17327 0.0
H2878 H 0.48214 0.04155 0.20265 0.0
H2879 H 0.43364 0.99083 0.19781 0.0
C2880 C 0.26207 0.91385 0.20713 0.0
C2881 C 0.269 0.90269 0.21829 0.0
C2882 C 0.28374 0.92474 0.19688 0.0
C2883 C 0.31307 0.92536 0.19767 0.0
C2884 C 0.31964 0.91378 0.20867 0.0
C2885 C 0.29791 0.90221 0.21866 0.0
C2886 C 0.3374 0.93817 0.18724 0.0
C2887 C 0.36617 0.9666 0.18916 0.0
C2888 C 0.33324 0.92182 0.17575 0.0
C2889 C 0.30419 0.89101 0.17319 0.0
C2890 C 0.29523 0.86486 0.18123 0.0
C2891 C 0.26802 0.83579 0.17862 0.0
C2892 C 0.24975 0.83249 0.16794 0.0
C2893 C 0.25868 0.85825 0.15982 0.0
C2894 C 0.2858 0.8874 0.16241 0.0
C2895 C 0.46227 0.00878 0.14693 0.0
C2896 C 0.44918 1.00114 0.13469 0.0
C2897 C 0.44253 0.99631 0.15779 0.0
C2898 C 0.40884 0.97769 0.15678 0.0
C2899 C 0.39637 0.97091 0.14449 0.0
C2900 C 0.41594 0.98084 0.1339 0.0
C2901 C 0.38575 0.96414 0.16794 0.0
C2902 C 0.35731 0.9346 0.16646 0.0
C2903 C 0.38998 0.97989 0.17973 0.0
C2904 C 0.41867 0.01037 0.18267 0.0
C2905 C 0.42592 0.03795 0.17584 0.0
C2906 C 0.45352 0.06655 0.17861 0.0
C2907 C 0.47379 0.06783 0.18825 0.0
C2908 C 0.46646 0.04053 0.19518 0.0
C2909 C 0.43894 0.01189 0.19244 0.0
H2910 H 0.49515 0.08999 0.19037 0.0
H2911 H 0.22875 0.80993 0.16592 0.0
H2912 H 0.0149 0.41879 0.13116 0.0
H2913 H 0.03737 0.4005 0.14728 0.0
H2914 H 0.09885 0.49766 0.15916 0.0
H2915 H 0.08108 0.51569 0.14096 0.0
H2916 H 0.13028 0.47702 0.16432 0.0
H2917 H 0.01899 0.42162 0.17582 0.0
H2918 H 0.96148 0.38677 0.17222 0.0
H2919 H 0.97709 0.31028 0.16169 0.0
H2920 H 0.03465 0.34474 0.16515 0.0
H2921 H 0.16556 0.4337 0.22357 0.0
H2922 H 0.14514 0.44998 0.20611 0.0
H2923 H 0.10833 0.35757 0.18909 0.0
H2924 H 0.12704 0.34004 0.20741 0.0
H2925 H 0.06612 0.37473 0.18657 0.0
H2926 H 0.18027 0.43528 0.17843 0.0
H2927 H 0.23574 0.47296 0.18444 0.0
H2928 H 0.21085 0.54454 0.19223 0.0
H2929 H 0.15524 0.50722 0.18639 0.0
C2930 C 0.03335 0.43623 0.1372 0.0
C2931 C 0.04634 0.46872 0.13461 0.0
C2932 C 0.04586 0.42566 0.14683 0.0
C2933 C 0.06957 0.44711 0.15523 0.0
C2934 C 0.08101 0.47987 0.15304 0.0
C2935 C 0.07029 0.49043 0.14271 0.0
C2936 C 0.08335 0.43588 0.1658 0.0
C2937 C 0.11561 0.45488 0.16925 0.0
C2938 C 0.06557 0.40657 0.17244 0.0
C2939 C 0.03102 0.38576 0.17066 0.0
C2940 C 0.01008 0.39736 0.17274 0.0
C2941 C 0.97752 0.3777 0.17071 0.0
C2942 C 0.96565 0.34636 0.1667 0.0
C2943 C 0.9863 0.33455 0.16479 0.0
C2944 C 0.01887 0.35409 0.1668 0.0
C2945 C 0.1535 0.41662 0.2161 0.0
C2946 C 0.14832 0.38532 0.21705 0.0
C2947 C 0.14195 0.42629 0.2059 0.0
C2948 C 0.12567 0.40559 0.19586 0.0
C2949 C 0.12099 0.37441 0.19657 0.0
C2950 C 0.1321 0.36439 0.20701 0.0
C2951 C 0.11235 0.41614 0.18508 0.0
C2952 C 0.08035 0.39696 0.1816 0.0
C2953 C 0.12999 0.44587 0.17881 0.0
C2954 C 0.16361 0.46842 0.18201 0.0
C2955 C 0.18665 0.45904 0.18144 0.0
C2956 C 0.2181 0.48033 0.18483 0.0
C2957 C 0.22681 0.51111 0.18872 0.0
C2958 C 0.2041 0.52071 0.1892 0.0
C2959 C 0.17264 0.49952 0.18583 0.0
H2960 H 0.25115 0.52753 0.19136 0.0
H2961 H 0.94044 0.3312 0.1651 0.0
H2962 H 0.61822 0.76599 0.21851 0.0
H2963 H 0.60056 0.72835 0.20113 0.0
H2964 H 0.69778 0.75789 0.19203 0.0
H2965 H 0.71593 0.79629 0.20973 0.0
H2966 H 0.65823 0.74564 0.16994 0.0
H2967 H 0.64938 0.68834 0.20959 0.0
H2968 H 0.62905 0.67195 0.2313 0.0
H2969 H 0.53341 0.63357 0.21797 0.0
H2970 H 0.55308 0.64963 0.19622 0.0
H2971 H 0.62469 0.60104 0.13584 0.0
H2972 H 0.64357 0.63958 0.15342 0.0
H2973 H 0.55154 0.63184 0.15579 0.0
H2974 H 0.53329 0.59495 0.13785 0.0
H2975 H 0.58766 0.63236 0.1812 0.0
H2976 H 0.58492 0.68937 0.14614 0.0
H2977 H 0.59188 0.70546 0.1238 0.0
H2978 H 0.69289 0.74663 0.12755 0.0
H2979 H 0.68633 0.72986 0.14989 0.0
C2980 C 0.63617 0.76506 0.21276 0.0
C2981 C 0.66875 0.78457 0.21569 0.0
C2982 C 0.62584 0.74307 0.20277 0.0
C2983 C 0.64754 0.73927 0.19527 0.0
C2984 C 0.68028 0.7599 0.19766 0.0
C2985 C 0.69077 0.78218 0.20776 0.0
C2986 C 0.63569 0.71311 0.18534 0.0
C2987 C 0.64353 0.72088 0.17253 0.0
C2988 C 0.61441 0.68059 0.18831 0.0
C2989 C 0.60273 0.67035 0.20133 0.0
C2990 C 0.62404 0.67649 0.21132 0.0
C2991 C 0.61265 0.6673 0.22361 0.0
C2992 C 0.58004 0.65196 0.22601 0.0
C2993 C 0.55868 0.64551 0.2161 0.0
C2994 C 0.56992 0.65454 0.20379 0.0
C2995 C 0.6082 0.60679 0.14036 0.0
C2996 C 0.57723 0.59433 0.13549 0.0
C2997 C 0.61914 0.62922 0.15034 0.0
C2998 C 0.59913 0.63899 0.15602 0.0
C2999 C 0.56762 0.62496 0.15168 0.0
C3000 C 0.55709 0.60355 0.14144 0.0
C3001 C 0.61143 0.66488 0.16598 0.0
C3002 C 0.60319 0.65708 0.17871 0.0
C3003 C 0.63072 0.69746 0.16289 0.0
C3004 C 0.63512 0.70779 0.14957 0.0
C3005 C 0.60858 0.70139 0.14214 0.0
C3006 C 0.61243 0.71071 0.1295 0.0
C3007 C 0.64281 0.72693 0.12423 0.0
C3008 C 0.66937 0.734 0.13164 0.0
C3009 C 0.6656 0.72449 0.14428 0.0
H3010 H 0.64577 0.7341 0.11443 0.0
H3011 H 0.57131 0.64497 0.23554 0.0
H3012 H 0.94739 0.43391 0.8854 0.0
H3013 H 0.92869 0.39653 0.86782 0.0
H3014 H 0.02476 0.4185 0.8604 0.0
H3015 H 0.04379 0.45736 0.87781 0.0
H3016 H 0.99512 0.40817 0.83869 0.0
H3017 H 0.96331 0.34859 0.87801 0.0
H3018 H 0.93611 0.3346 0.89863 0.0
H3019 H 0.84712 0.30714 0.8804 0.0
H3020 H 0.87388 0.3215 0.85969 0.0
H3021 H 0.95166 0.2627 0.80404 0.0
H3022 H 0.97089 0.30206 0.82132 0.0
H3023 H 0.88109 0.29956 0.82181 0.0
H3024 H 0.86253 0.26166 0.8042 0.0
H3025 H 0.90664 0.29912 0.847 0.0
H3026 H 0.93135 0.35859 0.80971 0.0
H3027 H 0.95272 0.38011 0.78865 0.0
H3028 H 0.04743 0.41207 0.80198 0.0
H3029 H 0.0265 0.39024 0.8231 0.0
C3030 C 0.96475 0.43132 0.8799 0.0
C3031 C 0.99726 0.44901 0.8831 0.0
C3032 C 0.95388 0.40937 0.86987 0.0
C3033 C 0.97491 0.40331 0.86284 0.0
C3034 C 0.00767 0.42209 0.86563 0.0
C3035 C 0.01869 0.44464 0.87558 0.0
C3036 C 0.96269 0.37725 0.85282 0.0
C3037 C 0.97631 0.38417 0.84068 0.0
C3038 C 0.93683 0.34595 0.85493 0.0
C3039 C 0.92063 0.33628 0.86732 0.0
C3040 C 0.93795 0.3396 0.87841 0.0
C3041 C 0.92261 0.33165 0.89011 0.0
C3042 C 0.8899 0.31995 0.89082 0.0
C3043 C 0.87244 0.31615 0.87983 0.0
C3044 C 0.88767 0.32418 0.86811 0.0
C3045 C 0.93567 0.26978 0.80809 0.0
C3046 C 0.9052 0.2583 0.80283 0.0
C3047 C 0.94687 0.29276 0.81788 0.0
C3048 C 0.92762 0.30421 0.82298 0.0
C3049 C 0.8966 0.29139 0.81817 0.0
C3050 C 0.88585 0.26935 0.80813 0.0
C3051 C 0.93985 0.3299 0.83305 0.0
C3052 C 0.92599 0.32295 0.84513 0.0
C3053 C 0.9648 0.36138 0.83079 0.0
C3054 C 0.97732 0.37226 0.81792 0.0
C3055 C 0.95667 0.36964 0.80809 0.0
C3056 C 0.96873 0.38219 0.79618 0.0
C3057 C 1.00144 0.39759 0.79399 0.0
C3058 C 0.02212 0.40023 0.8037 0.0
C3059 C 0.01017 0.38771 0.81563 0.0
H3060 H 0.01073 0.40725 0.78475 0.0
H3061 H 0.87806 0.31378 0.89988 0.0
H3062 H 0.60468 0.62137 0.88312 0.0
H3063 H 0.64463 0.64135 0.86638 0.0
H3064 H 0.63362 0.54793 0.86229 0.0
H3065 H 0.59651 0.52932 0.88003 0.0
H3066 H 0.68844 0.58076 0.85893 0.0
H3067 H 0.60743 0.59376 0.83923 0.0
H3068 H 0.56818 0.6115 0.83691 0.0
H3069 H 0.64239 0.70874 0.8404 0.0
H3070 H 0.68202 0.69151 0.84288 0.0
H3071 H 0.76638 0.61259 0.79884 0.0
H3072 H 0.72971 0.59515 0.8166 0.0
H3073 H 0.7614 0.69271 0.82615 0.0
H3074 H 0.79796 0.71038 0.80798 0.0
H3075 H 0.69819 0.65923 0.82683 0.0
H3076 H 0.77917 0.63912 0.84404 0.0
H3077 H 0.81355 0.61518 0.84434 0.0
H3078 H 0.73144 0.52192 0.84246 0.0
H3079 H 0.69661 0.5453 0.84191 0.0
C3080 C 0.6102 0.60493 0.8784 0.0
C3081 C 0.59674 0.5735 0.88278 0.0
C3082 C 0.63324 0.61638 0.86869 0.0
C3083 C 0.64243 0.59634 0.86252 0.0
C3084 C 0.62778 0.56448 0.86668 0.0
C3085 C 0.6059 0.5535 0.87676 0.0
C3086 C 0.66796 0.60851 0.85223 0.0
C3087 C 0.68989 0.5975 0.85183 0.0
C3088 C 0.67126 0.63094 0.84284 0.0
C3089 C 0.64757 0.64135 0.84136 0.0
C3090 C 0.61531 0.61891 0.83957 0.0
C3091 C 0.59302 0.62887 0.83822 0.0
C3092 C 0.60277 0.66122 0.83854 0.0
C3093 C 0.63486 0.68369 0.84018 0.0
C3094 C 0.65725 0.67385 0.84155 0.0
C3095 C 0.76619 0.63053 0.80485 0.0
C3096 C 0.78562 0.66306 0.80193 0.0
C3097 C 0.74502 0.6204 0.81512 0.0
C3098 C 0.74259 0.64237 0.82302 0.0
C3099 C 0.76262 0.67501 0.82034 0.0
C3100 C 0.78395 0.68522 0.81 0.0
C3101 C 0.7181 0.63119 0.83355 0.0
C3102 C 0.69646 0.64244 0.83397 0.0
C3103 C 0.71425 0.60794 0.84262 0.0
C3104 C 0.73531 0.59401 0.84285 0.0
C3105 C 0.76847 0.61353 0.84359 0.0
C3106 C 0.78803 0.60004 0.84381 0.0
C3107 C 0.77469 0.56705 0.8434 0.0
C3108 C 0.74175 0.54747 0.84276 0.0
C3109 C 0.7221 0.56083 0.84249 0.0
H3110 H 0.78987 0.55666 0.84361 0.0
H3111 H 0.58547 0.66889 0.83749 0.0
H3112 H 0.43421 0.17681 0.79863 0.0
H3113 H 0.45281 0.15812 0.8162 0.0
H3114 H 0.356 0.09135 0.82629 0.0
H3115 H 0.33705 0.11062 0.80858 0.0
H3116 H 0.39275 0.11525 0.84769 0.0
H3117 H 0.40494 0.06907 0.80866 0.0
H3118 H 0.42443 0.07203 0.78686 0.0
H3119 H 0.52031 0.13229 0.7994 0.0
H3120 H 0.5014 0.12971 0.82122 0.0
H3121 H 0.43232 0.00368 0.87894 0.0
H3122 H 0.41404 0.02391 0.86137 0.0
H3123 H 0.49872 0.11534 0.86469 0.0
H3124 H 0.5162 0.09574 0.88257 0.0
H3125 H 0.46826 0.07821 0.83671 0.0
H3126 H 0.46086 0.13378 0.87322 0.0
H3127 H 0.44794 0.1347 0.89567 0.0
H3128 H 0.35084 0.06399 0.88849 0.0
H3129 H 0.3635 0.06224 0.86601 0.0
C3130 C 0.41666 0.15853 0.8047 0.0
C3131 C 0.38396 0.14538 0.80209 0.0
C3132 C 0.42746 0.14753 0.81475 0.0
C3133 C 0.40606 0.12251 0.82254 0.0
C3134 C 0.37325 0.11047 0.82044 0.0
C3135 C 0.36232 0.1217 0.81035 0.0
C3136 C 0.41818 0.10852 0.83244 0.0
C3137 C 0.40884 0.10676 0.84515 0.0
C3138 C 0.44033 0.09832 0.82953 0.0
C3139 C 0.45172 0.0994 0.8165 0.0
C3140 C 0.43013 0.08305 0.80672 0.0
C3141 C 0.44106 0.08466 0.79439 0.0
C3142 C 0.4735 0.10249 0.79174 0.0
C3143 C 0.49516 0.11856 0.80145 0.0
C3144 C 0.48437 0.11694 0.8138 0.0
C3145 C 0.44743 0.02781 0.87569 0.0
C3146 C 0.47599 0.0479 0.88208 0.0
C3147 C 0.43681 0.0395 0.86571 0.0
C3148 C 0.45486 0.07131 0.86166 0.0
C3149 C 0.48421 0.0908 0.86759 0.0
C3150 C 0.49432 0.07946 0.87778 0.0
C3151 C 0.44243 0.08467 0.85175 0.0
C3152 C 0.45186 0.08641 0.83913 0.0
C3153 C 0.42128 0.09579 0.85476 0.0
C3154 C 0.41316 0.09756 0.86804 0.0
C3155 C 0.43682 0.11826 0.87647 0.0
C3156 C 0.42956 0.11896 0.88918 0.0
C3157 C 0.3986 0.09932 0.89352 0.0
C3158 C 0.37482 0.07913 0.88512 0.0
C3159 C 0.38202 0.07825 0.8724 0.0
H3160 H 0.39301 0.09981 0.90337 0.0
H3161 H 0.48183 0.10372 0.78218 0.0
H3162 H 0.97593 0.2417 0.56012 0.0
H3163 H 0.01038 0.25867 0.54193 0.0
H3164 H 0.93579 0.2562 0.51922 0.0
H3165 H 0.90033 0.23963 0.53786 0.0
H3166 H 0.98124 0.22407 0.51042 0.0
H3167 H 0.98145 0.32167 0.52343 0.0
H3168 H 0.98716 0.35993 0.53997 0.0
H3169 H 0.07973 0.375 0.54924 0.0
H3170 H 0.07429 0.33642 0.53289 0.0
H3171 H 0.07442 0.28931 0.45657 0.0
H3172 H 0.03741 0.27243 0.47364 0.0
H3173 H 0.11077 0.33965 0.49838 0.0
H3174 H 0.14744 0.36047 0.48035 0.0
H3175 H 0.06478 0.33733 0.50699 0.0
H3176 H 0.07139 0.24584 0.49712 0.0
H3177 H 0.07147 0.20371 0.48415 0.0
H3178 H 0.97495 0.17086 0.47311 0.0
H3179 H 0.97438 0.213 0.48592 0.0
C3180 C 0.96619 0.24452 0.55136 0.0
C3181 C 0.9347 0.23912 0.55073 0.0
C3182 C 0.98637 0.25435 0.54085 0.0
C3183 C 0.97604 0.25886 0.52911 0.0
C3184 C 0.94448 0.25289 0.52817 0.0
C3185 C 0.92413 0.24341 0.53888 0.0
C3186 C 0.99906 0.2707 0.51816 0.0
C3187 C 0.99904 0.24895 0.50944 0.0
C3188 C 0.024 0.30264 0.51738 0.0
C3189 C 0.02741 0.32616 0.527 0.0
C3190 C 1.00292 0.33303 0.52905 0.0
C3191 C 0.00613 0.3548 0.53837 0.0
C3192 C 0.03384 0.36997 0.54562 0.0
C3193 C 0.05834 0.36333 0.54359 0.0
C3194 C 0.05522 0.34155 0.5343 0.0
C3195 C 0.08326 0.30087 0.46558 0.0
C3196 C 0.11469 0.3266 0.46681 0.0
C3197 C 0.06166 0.29043 0.47562 0.0
C3198 C 0.07077 0.30325 0.4878 0.0
C3199 C 0.10243 0.3287 0.48924 0.0
C3200 C 0.12385 0.34053 0.47887 0.0
C3201 C 0.0468 0.29093 0.49866 0.0
C3202 C 0.04689 0.31243 0.50762 0.0
C3203 C 0.02281 0.25828 0.50001 0.0
C3204 C 0.02295 0.23275 0.49239 0.0
C3205 C 0.05023 0.22972 0.49188 0.0
C3206 C 0.05036 0.20583 0.48456 0.0
C3207 C 0.02325 0.18467 0.47779 0.0
C3208 C 0.99592 0.18728 0.47836 0.0
C3209 C 0.99567 0.21113 0.48566 0.0
H3210 H 0.02341 0.16621 0.47213 0.0
H3211 H 0.0363 0.38684 0.55282 0.0
H3212 H 0.67717 0.75701 0.46475 0.0
H3213 H 0.69685 0.73683 0.48156 0.0
H3214 H 0.7675 0.833 0.49125 0.0
H3215 H 0.74973 0.85251 0.47354 0.0
H3216 H 0.79557 0.80568 0.49447 0.0
H3217 H 0.69223 0.77329 0.5102 0.0
H3218 H 0.63381 0.7478 0.51007 0.0
H3219 H 0.62611 0.65706 0.50329 0.0
H3220 H 0.68452 0.68211 0.50324 0.0
H3221 H 0.83398 0.76712 0.55465 0.0
H3222 H 0.81482 0.78441 0.5369 0.0
H3223 H 0.76352 0.68825 0.52305 0.0
H3224 H 0.78224 0.67041 0.54129 0.0
H3225 H 0.72638 0.71398 0.52168 0.0
H3226 H 0.83643 0.75443 0.50887 0.0
H3227 H 0.89478 0.78646 0.5108 0.0
H3228 H 0.88859 0.87091 0.51571 0.0
H3229 H 0.83029 0.83942 0.514 0.0
C3230 C 0.69637 0.77385 0.47069 0.0
C3231 C 0.71129 0.80651 0.46793 0.0
C3232 C 0.70777 0.76227 0.48045 0.0
C3233 C 0.73364 0.78304 0.48822 0.0
C3234 C 0.74775 0.81588 0.48561 0.0
C3235 C 0.73717 0.82727 0.47554 0.0
C3236 C 0.74695 0.77089 0.49859 0.0
C3237 C 0.78007 0.78593 0.5005 0.0
C3238 C 0.72765 0.74469 0.50661 0.0
C3239 C 0.69266 0.72959 0.50659 0.0
C3240 C 0.67804 0.74793 0.5086 0.0
C3241 C 0.64496 0.73356 0.50857 0.0
C3242 C 0.62626 0.70084 0.50664 0.0
C3243 C 0.64062 0.6824 0.50476 0.0
C3244 C 0.6737 0.69666 0.50477 0.0
C3245 C 0.81899 0.74944 0.54777 0.0
C3246 C 0.80997 0.71715 0.54953 0.0
C3247 C 0.80808 0.75958 0.53746 0.0
C3248 C 0.78786 0.73801 0.52829 0.0
C3249 C 0.77919 0.70571 0.52985 0.0
C3250 C 0.79021 0.69545 0.54026 0.0
C3251 C 0.77472 0.74903 0.51757 0.0
C3252 C 0.74167 0.73373 0.5156 0.0
C3253 C 0.79402 0.77596 0.5099 0.0
C3254 C 0.82899 0.79452 0.51135 0.0
C3255 C 0.84751 0.77977 0.51048 0.0
C3256 C 0.88057 0.79785 0.51152 0.0
C3257 C 0.89533 0.83069 0.51334 0.0
C3258 C 0.87711 0.84549 0.51427 0.0
C3259 C 0.84409 0.82755 0.51327 0.0
H3260 H 0.92089 0.84478 0.51393 0.0
H3261 H 0.60064 0.68976 0.50662 0.0
H3262 H 0.23793 0.97409 0.45782 0.0
H3263 H 0.25515 0.00914 0.47598 0.0
H3264 H 0.26341 0.93891 0.49778 0.0
H3265 H 0.24722 0.90345 0.47922 0.0
H3266 H 0.22697 0.97826 0.50836 0.0
H3267 H 0.32702 0.98797 0.49277 0.0
H3268 H 0.364 0.99629 0.47533 0.0
H3269 H 0.36833 0.08442 0.46603 0.0
H3270 H 0.33119 0.07643 0.48339 0.0
H3271 H 0.29723 0.06887 0.56218 0.0
H3272 H 0.28056 0.03333 0.54457 0.0
H3273 H 0.33571 0.11184 0.51948 0.0
H3274 H 0.35637 0.14775 0.53775 0.0
H3275 H 0.33783 0.06813 0.50961 0.0
H3276 H 0.2439 0.06512 0.52391 0.0
H3277 H 0.20338 0.06057 0.53911 0.0
H3278 H 0.18071 0.96535 0.5481 0.0
H3279 H 0.22131 0.96944 0.53303 0.0
C3280 C 0.24323 0.96559 0.4664 0.0
C3281 C 0.24088 0.93535 0.46684 0.0
C3282 C 0.25312 0.98598 0.47687 0.0
C3283 C 0.26059 0.97691 0.48834 0.0
C3284 C 0.25768 0.94655 0.48905 0.0
C3285 C 0.2483 0.92616 0.4784 0.0
C3286 C 0.27245 0.99995 0.49926 0.0
C3287 C 0.25137 0.99754 0.50881 0.0
C3288 C 0.30361 0.02645 0.4995 0.0
C3289 C 0.32632 0.03154 0.48929 0.0
C3290 C 0.33579 0.00903 0.48696 0.0
C3291 C 0.35681 0.01373 0.47712 0.0
C3292 C 0.3685 0.04087 0.46957 0.0
C3293 C 0.35928 0.06343 0.47188 0.0
C3294 C 0.33833 0.05888 0.48174 0.0
C3295 C 0.3063 0.07916 0.553 0.0
C3296 C 0.32852 0.11193 0.55167 0.0
C3297 C 0.29593 0.05836 0.5427 0.0
C3298 C 0.30529 0.06936 0.53032 0.0
C3299 C 0.32747 0.10217 0.52882 0.0
C3300 C 0.33924 0.12304 0.53934 0.0
C3301 C 0.29269 0.04625 0.51924 0.0
C3302 C 0.31343 0.04883 0.50944 0.0
C3303 C 0.2607 0.02049 0.51855 0.0
C3304 C 0.23581 0.0177 0.52742 0.0
C3305 C 0.23033 0.04325 0.52916 0.0
C3306 C 0.20735 0.04075 0.53775 0.0
C3307 C 0.18954 0.01271 0.54459 0.0
C3308 C 0.19454 0.98705 0.5428 0.0
C3309 C 0.21748 0.98943 0.53422 0.0
H3310 H 0.17183 0.01085 0.55127 0.0
H3311 H 0.3847 0.04441 0.46192 0.0
H3312 H 0.57262 0.37223 0.10609 0.0
H3313 H 0.56951 0.32154 0.10058 0.0
H3314 H 0.46982 0.27167 0.10996 0.0
H3315 H 0.47302 0.32186 0.1156 0.0
H3316 H 0.49836 0.24653 0.12215 0.0
H3317 H 0.49893 0.27807 0.07903 0.0
H3318 H 0.51925 0.31162 0.06003 0.0
H3319 H 0.60419 0.30519 0.06147 0.0
H3320 H 0.58456 0.27198 0.08059 0.0
H3321 H 0.45187 0.0904 0.10566 0.0
H3322 H 0.45847 0.14322 0.10631 0.0
H3323 H 0.5556 0.18269 0.094 0.0
H3324 H 0.54775 0.12899 0.09212 0.0
H3325 H 0.53268 0.2148 0.0834 0.0
H3326 H 0.5327 0.18361 0.12635 0.0
H3327 H 0.51147 0.14753 0.14463 0.0
H3328 H 0.42609 0.1532 0.14338 0.0
H3329 H 0.44668 0.18901 0.125 0.0
C3330 C 0.54993 0.35048 0.10667 0.0
C3331 C 0.52314 0.35101 0.11141 0.0
C3332 C 0.54814 0.32147 0.10352 0.0
C3333 C 0.51943 0.29255 0.10493 0.0
C3334 C 0.49233 0.29347 0.10891 0.0
C3335 C 0.49416 0.32223 0.11212 0.0
C3336 C 0.51781 0.2611 0.10348 0.0
C3337 C 0.50557 0.23958 0.11359 0.0
C3338 C 0.52825 0.25213 0.09255 0.0
C3339 C 0.54047 0.27294 0.08133 0.0
C3340 C 0.52213 0.28418 0.07539 0.0
C3341 C 0.53347 0.30304 0.06458 0.0
C3342 C 0.56304 0.31063 0.05957 0.0
C3343 C 0.58133 0.29938 0.06538 0.0
C3344 C 0.57011 0.28055 0.0762 0.0
C3345 C 0.4743 0.11005 0.10278 0.0
C3346 C 0.49883 0.10506 0.09859 0.0
C3347 C 0.47838 0.14059 0.1034 0.0
C3348 C 0.50782 0.16736 0.10047 0.0
C3349 C 0.53261 0.16258 0.09632 0.0
C3350 C 0.52813 0.13178 0.09533 0.0
C3351 C 0.51264 0.20015 0.10197 0.0
C3352 C 0.52565 0.22191 0.09197 0.0
C3353 C 0.50314 0.20958 0.11303 0.0
C3354 C 0.49117 0.18887 0.1243 0.0
C3355 C 0.50939 0.17712 0.12998 0.0
C3356 C 0.49745 0.15669 0.14034 0.0
C3357 C 0.46744 0.14805 0.14516 0.0
C3358 C 0.44934 0.15992 0.13965 0.0
C3359 C 0.46115 0.18033 0.12928 0.0
H3360 H 0.45821 0.13218 0.15317 0.0
H3361 H 0.57174 0.32515 0.05117 0.0
H3362 H 0.68375 0.2069 0.09275 0.0
H3363 H 0.73749 0.2493 0.08674 0.0
H3364 H 0.77476 0.23437 0.12135 0.0
H3365 H 0.72165 0.19211 0.12724 0.0
H3366 H 0.78559 0.29807 0.11742 0.0
H3367 H 0.79502 0.21555 0.09467 0.0
H3368 H 0.78077 0.17494 0.07811 0.0
H3369 H 0.79602 0.24397 0.0496 0.0
H3370 H 0.8099 0.28484 0.066 0.0
H3371 H 0.94807 0.40306 0.11879 0.0
H3372 H 0.89536 0.35615 0.1189 0.0
H3373 H 0.88821 0.36503 0.07864 0.0
H3374 H 0.94239 0.41116 0.07847 0.0
H3375 H 0.85866 0.3069 0.08301 0.0
H3376 H 0.84887 0.38877 0.10239 0.0
H3377 H 0.85959 0.43294 0.11675 0.0
H3378 H 0.83952 0.37147 0.14873 0.0
H3379 H 0.82893 0.32698 0.13455 0.0
C3380 C 0.70367 0.21182 0.0988 0.0
C3381 C 0.69844 0.1959 0.11043 0.0
C3382 C 0.73436 0.23626 0.09541 0.0
C3383 C 0.7603 0.24528 0.10363 0.0
C3384 C 0.75528 0.22803 0.11485 0.0
C3385 C 0.72488 0.20365 0.11817 0.0
C3386 C 0.79186 0.27455 0.10144 0.0
C3387 C 0.8017 0.29986 0.10997 0.0
C3388 C 0.81229 0.27792 0.0913 0.0
C3389 C 0.80306 0.25308 0.08156 0.0
C3390 C 0.79489 0.22193 0.08488 0.0
C3391 C 0.787 0.1989 0.07552 0.0
C3392 C 0.78738 0.20684 0.06281 0.0
C3393 C 0.79565 0.23782 0.05944 0.0
C3394 C 0.80352 0.26091 0.06876 0.0
C3395 C 0.93542 0.39478 0.10992 0.0
C3396 C 0.94934 0.4109 0.09863 0.0
C3397 C 0.90495 0.36809 0.11 0.0
C3398 C 0.88682 0.35735 0.09886 0.0
C3399 C 0.90127 0.37275 0.08744 0.0
C3400 C 0.93232 0.39912 0.08731 0.0
C3401 C 0.85305 0.33018 0.09931 0.0
C3402 C 0.84264 0.30538 0.09045 0.0
C3403 C 0.83141 0.3278 0.10884 0.0
C3404 C 0.83835 0.35462 0.11741 0.0
C3405 C 0.84701 0.38475 0.11249 0.0
C3406 C 0.85302 0.40984 0.1206 0.0
C3407 C 0.85033 0.40503 0.13365 0.0
C3408 C 0.84162 0.37515 0.13862 0.0
C3409 C 0.83556 0.34999 0.13055 0.0
H3410 H 0.85488 0.42438 0.13993 0.0
H3411 H 0.78136 0.189 0.05557 0.0
H3412 H 0.6683 0.60341 0.10555 0.0
H3413 H 0.71431 0.59554 0.10604 0.0
H3414 H 0.6557 0.49948 0.09282 0.0
H3415 H 0.61003 0.50766 0.09173 0.0
H3416 H 0.69552 0.50502 0.11344 0.0
H3417 H 0.70187 0.54817 0.07279 0.0
H3418 H 0.70262 0.58593 0.05709 0.0
H3419 H 0.78759 0.66098 0.0738 0.0
H3420 H 0.78696 0.62374 0.0898 0.0
H3421 H 0.81659 0.46989 0.1025 0.0
H3422 H 0.77333 0.47967 0.09676 0.0
H3423 H 0.83114 0.57782 0.10768 0.0
H3424 H 0.8746 0.56803 0.11324 0.0
H3425 H 0.79119 0.57068 0.0873 0.0
H3426 H 0.78212 0.52494 0.12862 0.0
H3427 H 0.78061 0.4848 0.14327 0.0
H3428 H 0.69849 0.41186 0.12416 0.0
H3429 H 0.6999 0.45156 0.10925 0.0
C3430 C 0.66526 0.58078 0.10259 0.0
C3431 C 0.63553 0.55643 0.09839 0.0
C3432 C 0.69157 0.57622 0.10294 0.0
C3433 C 0.68854 0.54696 0.09939 0.0
C3434 C 0.65867 0.52227 0.09559 0.0
C3435 C 0.63255 0.52705 0.09496 0.0
C3436 C 0.71657 0.54216 0.09956 0.0
C3437 C 0.71626 0.51914 0.10761 0.0
C3438 C 0.7438 0.56069 0.09205 0.0
C3439 C 0.74425 0.58325 0.08255 0.0
C3440 C 0.72054 0.57281 0.0732 0.0
C3441 C 0.72097 0.59408 0.06424 0.0
C3442 C 0.74523 0.62579 0.06442 0.0
C3443 C 0.7689 0.63637 0.07365 0.0
C3444 C 0.76851 0.6152 0.08268 0.0
C3445 C 0.82055 0.49386 0.1031 0.0
C3446 C 0.84918 0.51835 0.10805 0.0
C3447 C 0.79567 0.49938 0.09998 0.0
C3448 C 0.79869 0.52941 0.10197 0.0
C3449 C 0.82817 0.55449 0.10602 0.0
C3450 C 0.85312 0.54896 0.10911 0.0
C3451 C 0.77024 0.53362 0.10126 0.0
C3452 C 0.77046 0.55657 0.09313 0.0
C3453 C 0.74271 0.51481 0.10862 0.0
C3454 C 0.74129 0.49112 0.11777 0.0
C3455 C 0.76384 0.50031 0.12751 0.0
C3456 C 0.76301 0.47765 0.13585 0.0
C3457 C 0.7395 0.44578 0.13463 0.0
C3458 C 0.7167 0.43654 0.12509 0.0
C3459 C 0.7175 0.45911 0.11669 0.0
H3460 H 0.73892 0.42826 0.14109 0.0
H3461 H 0.74573 0.64215 0.05737 0.0
H3462 H 0.35882 0.5769 0.90265 0.0
H3463 H 0.30712 0.56738 0.90948 0.0
H3464 H 0.28479 0.47527 0.92365 0.0
H3465 H 0.3368 0.48451 0.91624 0.0
H3466 H 0.23678 0.46845 0.91067 0.0
H3467 H 0.29592 0.5406 0.94358 0.0
H3468 H 0.33868 0.58918 0.95343 0.0
H3469 H 0.30949 0.64589 0.93247 0.0
H3470 H 0.26683 0.59769 0.92236 0.0
H3471 H 0.08961 0.45412 0.93471 0.0
H3472 H 0.14341 0.46132 0.93548 0.0
H3473 H 0.17517 0.53728 0.90838 0.0
H3474 H 0.12156 0.52927 0.90712 0.0
H3475 H 0.21685 0.54854 0.9313 0.0
H3476 H 0.16433 0.47693 0.89618 0.0
H3477 H 0.11885 0.42868 0.88734 0.0
H3478 H 0.13454 0.37117 0.91391 0.0
H3479 H 0.17987 0.41925 0.92304 0.0
C3480 C 0.34336 0.555 0.90758 0.0
C3481 C 0.35215 0.53162 0.90902 0.0
C3482 C 0.3136 0.54952 0.91153 0.0
C3483 C 0.29176 0.52068 0.91727 0.0
C3484 C 0.30108 0.49779 0.91929 0.0
C3485 C 0.33101 0.50323 0.91523 0.0
C3486 C 0.25864 0.51389 0.92013 0.0
C3487 C 0.23262 0.48574 0.91548 0.0
C3488 C 0.25259 0.53645 0.92618 0.0
C3489 C 0.2783 0.56553 0.93217 0.0
C3490 C 0.29877 0.56345 0.94101 0.0
C3491 C 0.32297 0.59092 0.94665 0.0
C3492 C 0.32683 0.62061 0.94357 0.0
C3493 C 0.30648 0.62289 0.93485 0.0
C3494 C 0.28226 0.59549 0.92918 0.0
C3495 C 0.10803 0.47235 0.92895 0.0
C3496 C 0.1011 0.49095 0.92081 0.0
C3497 C 0.13881 0.47652 0.92942 0.0
C3498 C 0.16337 0.49994 0.92202 0.0
C3499 C 0.1567 0.5192 0.91423 0.0
C3500 C 0.12591 0.51449 0.91351 0.0
C3501 C 0.19569 0.50356 0.92178 0.0
C3502 C 0.22134 0.53112 0.92679 0.0
C3503 C 0.20141 0.48053 0.91615 0.0
C3504 C 0.17523 0.4516 0.91034 0.0
C3505 C 0.15797 0.45398 0.90016 0.0
C3506 C 0.13224 0.42669 0.8951 0.0
C3507 C 0.12375 0.39687 0.90009 0.0
C3508 C 0.14113 0.39429 0.91008 0.0
C3509 C 0.16685 0.42154 0.91519 0.0
H3510 H 0.10376 0.37576 0.89619 0.0
H3511 H 0.34556 0.64185 0.94795 0.0
H3512 H 0.544 0.86563 0.92933 0.0
H3513 H 0.54337 0.81591 0.93451 0.0
H3514 H 0.52044 0.7856 0.89576 0.0
H3515 H 0.52079 0.83488 0.8907 0.0
H3516 H 0.48904 0.73649 0.9106 0.0
H3517 H 0.59734 0.82133 0.90756 0.0
H3518 H 0.64447 0.8725 0.91307 0.0
H3519 H 0.64096 0.84008 0.95107 0.0
H3520 H 0.59348 0.78888 0.94581 0.0
H3521 H 0.545 0.6319 0.89886 0.0
H3522 H 0.53835 0.67816 0.89982 0.0
H3523 H 0.55955 0.68759 0.93965 0.0
H3524 H 0.5666 0.64085 0.93872 0.0
H3525 H 0.58789 0.74514 0.92795 0.0
H3526 H 0.48218 0.65532 0.92868 0.0
H3527 H 0.43793 0.6042 0.92115 0.0
H3528 H 0.4391 0.64655 0.88545 0.0
H3529 H 0.48366 0.69771 0.89265 0.0
C3530 C 0.53787 0.84783 0.92206 0.0
C3531 C 0.53199 0.85382 0.90966 0.0
C3532 C 0.53793 0.81962 0.92496 0.0
C3533 C 0.5323 0.79703 0.91549 0.0
C3534 C 0.52483 0.80247 0.90326 0.0
C3535 C 0.52488 0.83058 0.90037 0.0
C3536 C 0.53556 0.76845 0.91797 0.0
C3537 C 0.51071 0.73847 0.91438 0.0
C3538 C 0.56353 0.77064 0.92314 0.0
C3539 C 0.59163 0.80154 0.92635 0.0
C3540 C 0.60642 0.82528 0.91712 0.0
C3541 C 0.63323 0.85425 0.92019 0.0
C3542 C 0.64563 0.85959 0.93242 0.0
C3543 C 0.63127 0.83596 0.94161 0.0
C3544 C 0.6044 0.80698 0.9386 0.0
C3545 C 0.54836 0.64374 0.90786 0.0
C3546 C 0.55622 0.63249 0.91874 0.0
C3547 C 0.54435 0.67021 0.9084 0.0
C3548 C 0.54761 0.68603 0.91987 0.0
C3549 C 0.55659 0.67563 0.93071 0.0
C3550 C 0.56078 0.64901 0.93016 0.0
C3551 C 0.54164 0.71337 0.92031 0.0
C3552 C 0.56596 0.74307 0.92444 0.0
C3553 C 0.51335 0.71103 0.91545 0.0
C3554 C 0.48632 0.68032 0.9112 0.0
C3555 C 0.4731 0.65368 0.91921 0.0
C3556 C 0.44799 0.62471 0.915 0.0
C3557 C 0.4358 0.62225 0.90284 0.0
C3558 C 0.44861 0.6486 0.89487 0.0
C3559 C 0.47375 0.67756 0.899 0.0
H3560 H 0.4164 0.59999 0.89959 0.0
H3561 H 0.66644 0.88201 0.93477 0.0
H3562 H 0.38965 0.95487 0.93297 0.0
H3563 H 0.34342 0.90131 0.93315 0.0
H3564 H 0.38998 0.87085 0.90647 0.0
H3565 H 0.4349 0.92462 0.90559 0.0
H3566 H 0.33392 0.84684 0.8994 0.0
H3567 H 0.37927 0.85068 0.9398 0.0
H3568 H 0.40098 0.87363 0.9607 0.0
H3569 H 0.31123 0.86379 0.97137 0.0
H3570 H 0.28914 0.84118 0.95045 0.0
H3571 H 0.22542 0.68238 0.90399 0.0
H3572 H 0.2749 0.7319 0.90876 0.0
H3573 H 0.22087 0.77018 0.92604 0.0
H3574 H 0.17151 0.72094 0.92115 0.0
H3575 H 0.28085 0.78852 0.93857 0.0
H3576 H 0.23801 0.78586 0.89687 0.0
H3577 H 0.21841 0.76201 0.8759 0.0
H3578 H 0.30801 0.76824 0.86791 0.0
H3579 H 0.32789 0.79159 0.88895 0.0
C3580 C 0.38994 0.93681 0.92711 0.0
C3581 C 0.41584 0.94425 0.91914 0.0
C3582 C 0.36357 0.90596 0.92732 0.0
C3583 C 0.36307 0.8816 0.91991 0.0
C3584 C 0.3894 0.889 0.91221 0.0
C3585 C 0.41526 0.91989 0.91176 0.0
C3586 C 0.33492 0.84867 0.91974 0.0
C3587 C 0.32283 0.83407 0.90802 0.0
C3588 C 0.31975 0.83171 0.9309 0.0
C3589 C 0.33265 0.84447 0.94356 0.0
C3590 C 0.36422 0.85352 0.9466 0.0
C3591 C 0.37659 0.86648 0.95843 0.0
C3592 C 0.35752 0.87022 0.96735 0.0
C3593 C 0.32598 0.86089 0.96445 0.0
C3594 C 0.31351 0.84797 0.95262 0.0
C3595 C 0.22427 0.70092 0.90924 0.0
C3596 C 0.19473 0.69776 0.91233 0.0
C3597 C 0.25249 0.72928 0.91187 0.0
C3598 C 0.25159 0.75486 0.9177 0.0
C3599 C 0.2222 0.75077 0.92162 0.0
C3600 C 0.19402 0.72262 0.91885 0.0
C3601 C 0.28052 0.78696 0.91828 0.0
C3602 C 0.29243 0.80139 0.93003 0.0
C3603 C 0.29603 0.80362 0.90717 0.0
C3604 C 0.28427 0.79011 0.89449 0.0
C3605 C 0.25342 0.78191 0.89066 0.0
C3606 C 0.24227 0.76851 0.87877 0.0
C3607 C 0.26193 0.76355 0.87058 0.0
C3608 C 0.2928 0.77205 0.87426 0.0
C3609 C 0.30401 0.78535 0.88617 0.0
H3610 H 0.25326 0.75317 0.86137 0.0
H3611 H 0.36715 0.88031 0.9765 0.0
H3612 H 0.15816 0.66287 0.45413 0.0
H3613 H 0.14649 0.60913 0.44863 0.0
H3614 H 0.22426 0.64805 0.42219 0.0
H3615 H 0.23593 0.70206 0.42771 0.0
H3616 H 0.1699 0.58754 0.41429 0.0
H3617 H 0.24013 0.63431 0.44962 0.0
H3618 H 0.25586 0.66247 0.47002 0.0
H3619 H 0.1733 0.58627 0.4876 0.0
H3620 H 0.15676 0.55797 0.46723 0.0
H3621 H 0.18708 0.44943 0.41425 0.0
H3622 H 0.19503 0.50334 0.41447 0.0
H3623 H 0.14144 0.48203 0.44917 0.0
H3624 H 0.1364 0.42937 0.44948 0.0
H3625 H 0.1863 0.53608 0.45174 0.0
H3626 H 0.11376 0.49028 0.41627 0.0
H3627 H 0.09715 0.46271 0.39578 0.0
H3628 H 0.18285 0.53525 0.37862 0.0
H3629 H 0.19979 0.56354 0.39899 0.0
C3630 C 0.17185 0.65987 0.44674 0.0
C3631 C 0.19758 0.68658 0.44118 0.0
C3632 C 0.16537 0.62917 0.44368 0.0
C3633 C 0.18468 0.62448 0.43508 0.0
C3634 C 0.20893 0.65102 0.42879 0.0
C3635 C 0.21547 0.68186 0.43188 0.0
C3636 C 0.18202 0.59257 0.434 0.0
C3637 C 0.17369 0.57633 0.42244 0.0
C3638 C 0.18675 0.57771 0.44461 0.0
C3639 C 0.1971 0.5942 0.45691 0.0
C3640 C 0.22526 0.62367 0.45783 0.0
C3641 C 0.23431 0.63965 0.46938 0.0
C3642 C 0.21556 0.6262 0.4801 0.0
C3643 C 0.18778 0.59668 0.47929 0.0
C3644 C 0.17856 0.58066 0.46775 0.0
C3645 C 0.17682 0.45635 0.42183 0.0
C3646 C 0.16094 0.43534 0.4318 0.0
C3647 C 0.1811 0.48714 0.42193 0.0
C3648 C 0.16826 0.49703 0.43169 0.0
C3649 C 0.15174 0.47542 0.4415 0.0
C3650 C 0.14859 0.44517 0.44165 0.0
C3651 C 0.17292 0.53003 0.43209 0.0
C3652 C 0.18208 0.54685 0.44355 0.0
C3653 C 0.16874 0.54522 0.4214 0.0
C3654 C 0.15806 0.52887 0.40912 0.0
C3655 C 0.12901 0.50032 0.40811 0.0
C3656 C 0.11958 0.48454 0.39654 0.0
C3657 C 0.13903 0.49701 0.38593 0.0
C3658 C 0.16782 0.52556 0.38684 0.0
C3659 C 0.17727 0.54158 0.39838 0.0
H3660 H 0.13172 0.48462 0.37699 0.0
H3661 H 0.22259 0.63862 0.48903 0.0
H3662 H 0.63482 0.7194 0.43462 0.0
H3663 H 0.58231 0.67121 0.43558 0.0
H3664 H 0.53761 0.72806 0.43087 0.0
H3665 H 0.58956 0.77584 0.42975 0.0
H3666 H 0.50792 0.68437 0.44888 0.0
H3667 H 0.54171 0.68605 0.40659 0.0
H3668 H 0.58001 0.6901 0.39042 0.0
H3669 H 0.57359 0.60384 0.40403 0.0
H3670 H 0.5357 0.59966 0.42048 0.0
H3671 H 0.35191 0.57105 0.4349 0.0
H3672 H 0.40607 0.61302 0.43007 0.0
H3673 H 0.44115 0.54976 0.43942 0.0
H3674 H 0.38661 0.50752 0.44424 0.0
H3675 H 0.47669 0.5947 0.41907 0.0
H3676 H 0.44112 0.59456 0.46162 0.0
H3677 H 0.40304 0.59308 0.47735 0.0
H3678 H 0.41288 0.67959 0.46227 0.0
H3679 H 0.45061 0.68124 0.44629 0.0
C3680 C 0.61384 0.7216 0.43375 0.0
C3681 C 0.61662 0.75158 0.43196 0.0
C3682 C 0.58375 0.694 0.43429 0.0
C3683 C 0.55578 0.69582 0.4332 0.0
C3684 C 0.55863 0.72584 0.43173 0.0
C3685 C 0.58854 0.75324 0.43104 0.0
C3686 C 0.52348 0.66667 0.43346 0.0
C3687 C 0.50115 0.66494 0.44229 0.0
C3688 C 0.51439 0.641 0.42496 0.0
C3689 C 0.53608 0.64265 0.41481 0.0
C3690 C 0.54856 0.668 0.40616 0.0
C3691 C 0.57021 0.67035 0.39695 0.0
C3692 C 0.57921 0.64723 0.39619 0.0
C3693 C 0.56656 0.62171 0.40463 0.0
C3694 C 0.54499 0.61933 0.4139 0.0
C3695 C 0.37096 0.56561 0.43535 0.0
C3696 C 0.36485 0.53575 0.4397 0.0
C3697 C 0.40204 0.58976 0.43271 0.0
C3698 C 0.42793 0.58482 0.4345 0.0
C3699 C 0.42167 0.55422 0.4379 0.0
C3700 C 0.39043 0.52996 0.44056 0.0
C3701 C 0.4612 0.61256 0.43448 0.0
C3702 C 0.48363 0.61405 0.42571 0.0
C3703 C 0.47041 0.63834 0.44293 0.0
C3704 C 0.44844 0.63787 0.45272 0.0
C3705 C 0.43502 0.61317 0.46162 0.0
C3706 C 0.4135 0.6123 0.47058 0.0
C3707 C 0.40549 0.63619 0.47079 0.0
C3708 C 0.41908 0.66108 0.46208 0.0
C3709 C 0.44054 0.662 0.45308 0.0
H3710 H 0.38879 0.63546 0.47773 0.0
H3711 H 0.59595 0.64906 0.38905 0.0
H3712 H 0.49002 0.81195 0.42971 0.0
H3713 H 0.44961 0.82597 0.4238 0.0
H3714 H 0.48942 0.90288 0.4507 0.0
H3715 H 0.52954 0.88871 0.45661 0.0
H3716 H 0.42686 0.86058 0.45499 0.0
H3717 H 0.49134 0.91681 0.41862 0.0
H3718 H 0.51962 0.9221 0.39864 0.0
H3719 H 0.43345 0.84888 0.38191 0.0
H3720 H 0.40478 0.84289 0.40184 0.0
H3721 H 0.32013 0.91617 0.44934 0.0
H3722 H 0.36809 0.91196 0.44962 0.0
H3723 H 0.33709 0.8555 0.41556 0.0
H3724 H 0.29077 0.863 0.4146 0.0
H3725 H 0.395 0.88565 0.41406 0.0
H3726 H 0.33049 0.82353 0.44838 0.0
H3727 H 0.29851 0.81087 0.46779 0.0
H3728 H 0.37845 0.88392 0.4878 0.0
H3729 H 0.41103 0.89705 0.4685 0.0
C3730 C 0.49083 0.83263 0.43395 0.0
C3731 C 0.5131 0.8496 0.44346 0.0
C3732 C 0.4677 0.84058 0.43061 0.0
C3733 C 0.46645 0.86555 0.43679 0.0
C3734 C 0.48994 0.88361 0.44577 0.0
C3735 C 0.51301 0.87569 0.44908 0.0
C3736 C 0.43846 0.87011 0.43531 0.0
C3737 C 0.42021 0.86659 0.44607 0.0
C3738 C 0.42857 0.87609 0.42357 0.0
C3739 C 0.44604 0.8792 0.41174 0.0
C3740 C 0.47854 0.9016 0.41072 0.0
C3741 C 0.4946 0.90478 0.39939 0.0
C3742 C 0.47836 0.88579 0.38902 0.0
C3743 C 0.44602 0.86355 0.38995 0.0
C3744 C 0.42986 0.86027 0.40125 0.0
C3745 C 0.324 0.90343 0.44179 0.0
C3746 C 0.30206 0.89009 0.43191 0.0
C3747 C 0.35115 0.90048 0.44206 0.0
C3748 C 0.35599 0.88236 0.43287 0.0
C3749 C 0.33414 0.8695 0.42282 0.0
C3750 C 0.30763 0.87371 0.42226 0.0
C3751 C 0.38356 0.87671 0.43384 0.0
C3752 C 0.40158 0.87972 0.42301 0.0
C3753 C 0.39265 0.86901 0.44545 0.0
C3754 C 0.37306 0.86145 0.45699 0.0
C3755 C 0.34116 0.83703 0.4569 0.0
C3756 C 0.32294 0.82975 0.46788 0.0
C3757 C 0.33632 0.84667 0.479 0.0
C3758 C 0.36807 0.87086 0.47918 0.0
C3759 C 0.38646 0.87819 0.46824 0.0
H3760 H 0.32211 0.84095 0.48748 0.0
H3761 H 0.49083 0.88835 0.38025 0.0
H3762 H 0.79196 0.86896 0.26317 0.0
H3763 H 0.84489 0.87484 0.26244 0.0
H3764 H 0.80795 0.78809 0.24099 0.0
H3765 H 0.75503 0.78256 0.24136 0.0
H3766 H 0.84775 0.79181 0.26098 0.0
H3767 H 0.84876 0.85718 0.22661 0.0
H3768 H 0.84145 0.89957 0.21728 0.0
H3769 H 0.91365 0.96826 0.24169 0.0
H3770 H 0.92092 0.92613 0.25137 0.0
H3771 H 0.995 0.81335 0.235 0.0
H3772 H 0.94105 0.80189 0.24028 0.0
H3773 H 0.98015 0.89139 0.25989 0.0
H3774 H 0.03372 0.90281 0.25452 0.0
H3775 H 0.93896 0.88635 0.24172 0.0
H3776 H 0.93969 0.82489 0.27603 0.0
H3777 H 0.94402 0.78418 0.28831 0.0
H3778 H 0.86833 0.71058 0.26665 0.0
H3779 H 0.86396 0.75088 0.25405 0.0
C3780 C 0.79505 0.85113 0.25826 0.0
C3781 C 0.76909 0.82497 0.25247 0.0
C3782 C 0.82537 0.85456 0.25786 0.0
C3783 C 0.83043 0.83191 0.25167 0.0
C3784 C 0.80458 0.80575 0.24589 0.0
C3785 C 0.77429 0.80252 0.24616 0.0
C3786 C 0.86275 0.8357 0.25114 0.0
C3787 C 0.86764 0.81217 0.25657 0.0
C3788 C 0.8889 0.86294 0.24585 0.0
C3789 C 0.88516 0.88843 0.2398 0.0
C3790 C 0.86293 0.88128 0.23005 0.0
C3791 C 0.85879 0.90527 0.2247 0.0
C3792 C 0.87701 0.93658 0.22891 0.0
C3793 C 0.89951 0.94398 0.23845 0.0
C3794 C 0.90366 0.92006 0.24388 0.0
C3795 C 0.99204 0.82979 0.24097 0.0
C3796 C 0.01868 0.85858 0.24469 0.0
C3797 C 0.96119 0.82337 0.2439 0.0
C3798 C 0.95644 0.84581 0.25049 0.0
C3799 C 0.98313 0.87368 0.25483 0.0
C3800 C 0.01386 0.88 0.25194 0.0
C3801 C 0.92412 0.84218 0.25146 0.0
C3802 C 0.91916 0.86582 0.24609 0.0
C3803 C 0.89801 0.81521 0.25696 0.0
C3804 C 0.9019 0.79096 0.26394 0.0
C3805 C 0.9244 0.80005 0.2737 0.0
C3806 C 0.92674 0.77704 0.28077 0.0
C3807 C 0.90656 0.74482 0.27823 0.0
C3808 C 0.88404 0.73555 0.26858 0.0
C3809 C 0.88166 0.75847 0.26146 0.0
H3810 H 0.90829 0.72703 0.28377 0.0
H3811 H 0.87373 0.9551 0.22477 0.0
H3812 H 0.22254 0.96809 0.27281 0.0
H3813 H 0.21805 0.01642 0.27268 0.0
H3814 H 0.22757 0.02139 0.23218 0.0
H3815 H 0.23074 0.97264 0.23219 0.0
H3816 H 0.26727 0.08327 0.24916 0.0
H3817 H 0.16244 0.99701 0.23739 0.0
H3818 H 0.11584 0.9441 0.24095 0.0
H3819 H 0.10057 0.97423 0.27707 0.0
H3820 H 0.14748 0.02731 0.27381 0.0
H3821 H 0.20876 0.18268 0.22569 0.0
H3822 H 0.22565 0.1439 0.23036 0.0
H3823 H 0.17907 0.12529 0.26656 0.0
H3824 H 0.16238 0.16439 0.26187 0.0
H3825 H 0.16028 0.07132 0.25397 0.0
H3826 H 0.25991 0.16025 0.26449 0.0
H3827 H 0.30928 0.2118 0.26255 0.0
H3828 H 0.33649 0.17771 0.23018 0.0
H3829 H 0.28701 0.12611 0.23178 0.0
C3830 C 0.22393 0.97969 0.26391 0.0
C3831 C 0.22677 0.96649 0.2525 0.0
C3832 C 0.22132 0.00722 0.26384 0.0
C3833 C 0.22243 0.02246 0.25241 0.0
C3834 C 0.22667 0.01005 0.2411 0.0
C3835 C 0.22837 0.98213 0.24112 0.0
C3836 C 0.2177 0.05047 0.25211 0.0
C3837 C 0.2439 0.08078 0.2501 0.0
C3838 C 0.18736 0.04726 0.25367 0.0
C3839 C 0.15878 0.0158 0.25548 0.0
C3840 C 0.14935 0.99222 0.24615 0.0
C3841 C 0.12285 0.96225 0.2481 0.0
C3842 C 0.10552 0.95569 0.25929 0.0
C3843 C 0.11422 0.97929 0.26846 0.0
C3844 C 0.14074 0.00932 0.26657 0.0
C3845 C 0.20294 0.17093 0.23478 0.0
C3846 C 0.18456 0.17672 0.24348 0.0
C3847 C 0.21262 0.14877 0.23746 0.0
C3848 C 0.20379 0.13161 0.24885 0.0
C3849 C 0.18631 0.13823 0.25773 0.0
C3850 C 0.17694 0.16071 0.2551 0.0
C3851 C 0.20992 0.10463 0.25085 0.0
C3852 C 0.18385 0.07425 0.25313 0.0
C3853 C 0.2405 0.10794 0.24955 0.0
C3854 C 0.26952 0.13943 0.24816 0.0
C3855 C 0.27617 0.1639 0.25683 0.0
C3856 C 0.30425 0.1931 0.25583 0.0
C3857 C 0.32596 0.19807 0.24623 0.0
C3858 C 0.31961 0.17386 0.2376 0.0
C3859 C 0.29155 0.14464 0.23855 0.0
H3860 H 0.34776 0.22065 0.2455 0.0
H3861 H 0.08545 0.93229 0.2609 0.0
H3862 H 0.8402 0.04539 0.24783 0.0
H3863 H 0.88536 0.09732 0.25379 0.0
H3864 H 0.95016 0.0691 0.23889 0.0
H3865 H 0.90501 0.01731 0.23295 0.0
H3866 H 0.97501 0.10492 0.26002 0.0
H3867 H 0.92796 0.11234 0.22149 0.0
H3868 H 0.88499 0.10698 0.20752 0.0
H3869 H 0.87105 0.17083 0.23114 0.0
H3870 H 0.91355 0.17604 0.24541 0.0
H3871 H 0.10268 0.25753 0.23836 0.0
H3872 H 0.05652 0.20389 0.23873 0.0
H3873 H 0.0118 0.23407 0.26625 0.0
H3874 H 0.05905 0.28713 0.26655 0.0
H3875 H 0.97598 0.19832 0.24057 0.0
H3876 H 0.02612 0.19223 0.2787 0.0
H3877 H 0.07161 0.19899 0.29137 0.0
H3878 H 0.08201 0.13382 0.26718 0.0
H3879 H 0.03688 0.12716 0.2542 0.0
C3880 C 0.86414 0.05002 0.24618 0.0
C3881 C 0.86915 0.02721 0.24008 0.0
C3882 C 0.88997 0.07981 0.24947 0.0
C3883 C 0.92136 0.08747 0.24668 0.0
C3884 C 0.92633 0.06395 0.24119 0.0
C3885 C 0.90052 0.03429 0.23782 0.0
C3886 C 0.94873 0.12052 0.24857 0.0
C3887 C 0.97513 0.12525 0.25573 0.0
C3888 C 0.94919 0.14741 0.2431 0.0
C3889 C 0.92357 0.14421 0.2346 0.0
C3890 C 0.91549 0.12496 0.22377 0.0
C3891 C 0.89126 0.12198 0.21579 0.0
C3892 C 0.87522 0.13846 0.21846 0.0
C3893 C 0.88342 0.158 0.22911 0.0
C3894 C 0.90755 0.16094 0.23715 0.0
C3895 C 0.08324 0.25271 0.24458 0.0
C3896 C 0.08468 0.27697 0.2523 0.0
C3897 C 0.05678 0.222 0.24478 0.0
C3898 C 0.03057 0.21492 0.25247 0.0
C3899 C 0.03172 0.23898 0.2602 0.0
C3900 C 0.05876 0.26947 0.26031 0.0
C3901 C 1.00184 0.18257 0.25209 0.0
C3902 C 0.97545 0.17799 0.24506 0.0
C3903 C 1.00152 0.15588 0.25758 0.0
C3904 C 0.02841 0.15953 0.26539 0.0
C3905 C 0.03834 0.17963 0.27599 0.0
C3906 C 0.064 0.18338 0.28325 0.0
C3907 C 0.07975 0.16692 0.28006 0.0
C3908 C 0.06981 0.1466 0.26962 0.0
C3909 C 0.04418 0.14282 0.26231 0.0
H3910 H 0.09961 0.16984 0.2857 0.0
H3911 H 0.8565 0.13618 0.21226 0.0
H3912 H 0.83967 0.77705 0.78419 0.0
H3913 H 0.84516 0.82953 0.78379 0.0
H3914 H 0.81586 0.81629 0.7448 0.0
H3915 H 0.81022 0.76294 0.7451 0.0
H3916 H 0.87163 0.87851 0.7511 0.0
H3917 H 0.7641 0.81135 0.76442 0.0
H3918 H 0.72245 0.76812 0.77711 0.0
H3919 H 0.76628 0.8192 0.81115 0.0
H3920 H 0.80838 0.86274 0.79868 0.0
H3921 H 0.86366 0.02198 0.75495 0.0
H3922 H 0.84691 0.96584 0.75094 0.0
H3923 H 0.86245 0.95397 0.79015 0.0
H3924 H 0.87947 0.00989 0.79411 0.0
H3925 H 0.80819 0.90242 0.78126 0.0
H3926 H 0.9172 0.96567 0.76906 0.0
H3927 H 0.96275 0.00779 0.75747 0.0
H3928 H 0.91961 0.96334 0.72226 0.0
H3929 H 0.87348 0.92124 0.73365 0.0
C3930 C 0.83431 0.78507 0.77547 0.0
C3931 C 0.8243 0.76556 0.76467 0.0
C3932 C 0.83748 0.81522 0.77529 0.0
C3933 C 0.83077 0.82688 0.7643 0.0
C3934 C 0.82116 0.80778 0.75339 0.0
C3935 C 0.81774 0.77724 0.7536 0.0
C3936 C 0.83346 0.85884 0.76457 0.0
C3937 C 0.85718 0.88361 0.75742 0.0
C3938 C 0.81532 0.86575 0.77311 0.0
C3939 C 0.78941 0.84026 0.78062 0.0
C3940 C 0.76489 0.81334 0.77462 0.0
C3941 C 0.74123 0.78876 0.78176 0.0
C3942 C 0.74178 0.79083 0.79492 0.0
C3943 C 0.76589 0.81763 0.80096 0.0
C3944 C 0.7896 0.84232 0.79386 0.0
C3945 C 0.86292 0.00717 0.76273 0.0
C3946 C 0.87289 0.02031 0.77483 0.0
C3947 C 0.85355 0.97517 0.76043 0.0
C3948 C 0.85362 0.95561 0.77022 0.0
C3949 C 0.86215 0.96843 0.78243 0.0
C3950 C 0.87193 1.00043 0.78468 0.0
C3951 C 0.84641 0.92232 0.76776 0.0
C3952 C 0.82206 0.8973 0.77464 0.0
C3953 C 0.86417 0.91526 0.75904 0.0
C3954 C 0.8917 0.94062 0.75219 0.0
C3955 C 0.91726 0.9651 0.75884 0.0
C3956 C 0.94321 0.98892 0.75231 0.0
C3957 C 0.94402 0.98832 0.73913 0.0
C3958 C 0.9189 0.96384 0.73246 0.0
C3959 C 0.89284 0.94001 0.73895 0.0
H3960 H 0.96416 0.00676 0.73409 0.0
H3961 H 0.72348 0.7717 0.80043 0.0
H3962 H 0.25904 0.10426 0.77914 0.0
H3963 H 0.20546 0.05893 0.77869 0.0
H3964 H 0.23526 0.01202 0.75193 0.0
H3965 H 0.28855 0.05862 0.75171 0.0
H3966 H 0.17888 0.99875 0.74604 0.0
H3967 H 0.22547 0.99456 0.78516 0.0
H3968 H 0.25342 0.01546 0.80537 0.0
H3969 H 0.17769 0.02963 0.81837 0.0
H3970 H 0.14953 0.00926 0.79815 0.0
H3971 H 0.05624 0.83986 0.76104 0.0
H3972 H 0.10504 0.89031 0.75707 0.0
H3973 H 0.06784 0.93961 0.77873 0.0
H3974 H 0.01878 0.88896 0.78262 0.0
H3975 H 0.12679 0.95222 0.78696 0.0
H3976 H 0.07911 0.95186 0.74729 0.0
H3977 H 0.05311 0.93023 0.72682 0.0
H3978 H 0.13301 0.92177 0.71486 0.0
H3979 H 0.15924 0.94286 0.73534 0.0
C3980 C 0.25427 0.08437 0.77312 0.0
C3981 C 0.2785 0.08488 0.76567 0.0
C3982 C 0.22351 0.05825 0.77293 0.0
C3983 C 0.21628 0.03136 0.7656 0.0
C3984 C 0.24014 0.03222 0.75779 0.0
C3985 C 0.27083 0.05884 0.75774 0.0
C3986 C 0.18403 1.00237 0.76625 0.0
C3987 C 0.16773 0.98838 0.755 0.0
C3988 C 0.16894 0.9889 0.7779 0.0
C3989 C 0.18553 1.00061 0.79013 0.0
C3990 C 0.21486 1.00226 0.79232 0.0
C3991 C 0.23074 0.01403 0.80377 0.0
C3992 C 0.21736 0.02391 0.81314 0.0
C3993 C 0.18803 0.02199 0.8111 0.0
C3994 C 0.17209 0.01032 0.79965 0.0
C3995 C 0.05804 0.86166 0.76453 0.0
C3996 C 0.03352 0.86063 0.77192 0.0
C3997 C 0.086 0.89048 0.76232 0.0
C3998 C 0.09019 0.91888 0.76757 0.0
C3999 C 0.06515 0.91806 0.77454 0.0
C4000 C 0.03698 0.88921 0.77664 0.0
C4001 C 0.12168 0.94867 0.76675 0.0
C4002 C 0.13791 0.9627 0.778 0.0
C4003 C 0.1369 0.96175 0.7551 0.0
C4004 C 0.12097 0.94863 0.74288 0.0
C4005 C 0.09096 0.94506 0.74034 0.0
C4006 C 0.07622 0.93296 0.72873 0.0
C4007 C 0.09136 0.92455 0.71955 0.0
C4008 C 0.12128 0.92824 0.72197 0.0
C4009 C 0.1361 0.94026 0.73358 0.0
H4010 H 0.07993 0.91525 0.71055 0.0
H4011 H 0.22969 0.03302 0.82201 0.0
H4012 H 0.15351 0.14569 0.76089 0.0
H4013 H 0.11307 0.16041 0.75611 0.0
H4014 H 0.15862 0.23929 0.78195 0.0
H4015 H 0.19898 0.22444 0.7867 0.0
H4016 H 0.0971 0.20221 0.78753 0.0
H4017 H 0.1556 0.25062 0.74951 0.0
H4018 H 0.18141 0.2535 0.72913 0.0
H4019 H 0.09335 0.17836 0.71447 0.0
H4020 H 0.06712 0.1748 0.73481 0.0
H4021 H 0.98954 0.25829 0.78048 0.0
H4022 H 0.03842 0.25528 0.78019 0.0
H4023 H 0.99888 0.18442 0.75076 0.0
H4024 H 0.95079 0.18906 0.75059 0.0
H4025 H 0.05831 0.21832 0.74645 0.0
H4026 H 0.99932 0.16837 0.78337 0.0
H4027 H 0.97118 0.16262 0.80347 0.0
H4028 H 0.05756 0.23532 0.8202 0.0
H4029 H 0.08597 0.24192 0.80015 0.0
C4030 C 0.15545 0.16682 0.76518 0.0
C4031 C 0.17962 0.18422 0.77401 0.0
C4032 C 0.13229 0.17522 0.76248 0.0
C4033 C 0.13266 0.20107 0.76864 0.0
C4034 C 0.15774 0.21931 0.77704 0.0
C4035 C 0.18098 0.211 0.77968 0.0
C4036 C 0.1052 0.20686 0.7675 0.0
C4037 C 0.08906 0.20639 0.77855 0.0
C4038 C 0.09355 0.2108 0.75577 0.0
C4039 C 0.10953 0.21222 0.74371 0.0
C4040 C 0.14186 0.23446 0.74198 0.0
C4041 C 0.15653 0.23628 0.73043 0.0
C4042 C 0.13906 0.21607 0.72052 0.0
C4043 C 0.10687 0.19397 0.72215 0.0
C4044 C 0.0921 0.19205 0.73369 0.0
C4045 C 0.99173 0.24266 0.77377 0.0
C4046 C 0.96674 0.22418 0.76546 0.0
C4047 C 0.0195 0.24061 0.77369 0.0
C4048 C 0.02233 0.21904 0.76565 0.0
C4049 C 0.99752 0.20124 0.75707 0.0
C4050 C 0.97003 0.20388 0.75695 0.0
C4051 C 0.05047 0.21417 0.76653 0.0
C4052 C 0.06652 0.21447 0.75545 0.0
C4053 C 0.06175 0.20944 0.77823 0.0
C4054 C 0.04465 0.20576 0.79024 0.0
C4055 C 0.0122 0.18322 0.79133 0.0
C4056 C 0.99622 0.17982 0.80269 0.0
C4057 C 0.01257 0.19858 0.81309 0.0
C4058 C 0.04491 0.22082 0.81214 0.0
C4059 C 0.06094 0.22442 0.80077 0.0
H4060 H 1.00018 0.19587 0.8219 0.0
H4061 H 0.15044 0.21759 0.71156 0.0
H4062 H 0.46059 0.21428 0.58734 0.0
H4063 H 0.51454 0.22257 0.58781 0.0
H4064 H 0.47615 0.12094 0.58805 0.0
H4065 H 0.42257 0.1132 0.58858 0.0
H4066 H 0.52336 0.14212 0.60137 0.0
H4067 H 0.51119 0.17545 0.56017 0.0
H4068 H 0.50192 0.20583 0.54372 0.0
H4069 H 0.57723 0.29302 0.55891 0.0
H4070 H 0.5868 0.26314 0.57552 0.0
H4071 H 0.66248 0.14619 0.57431 0.0
H4072 H 0.61017 0.13797 0.58052 0.0
H4073 H 0.65222 0.23819 0.58813 0.0
H4074 H 0.70423 0.24628 0.58184 0.0
H4075 H 0.60451 0.21897 0.57192 0.0
H4076 H 0.61908 0.18088 0.61178 0.0
H4077 H 0.62875 0.14704 0.62634 0.0
H4078 H 0.54716 0.06403 0.61162 0.0
H4079 H 0.53733 0.09732 0.59682 0.0
C4080 C 0.46381 0.19379 0.58764 0.0
C4081 C 0.43736 0.16302 0.58802 0.0
C4082 C 0.49473 0.19849 0.58775 0.0
C4083 C 0.49993 0.17242 0.58763 0.0
C4084 C 0.47325 0.14163 0.58817 0.0
C4085 C 0.44241 0.13707 0.58848 0.0
C4086 C 0.53286 0.17698 0.58693 0.0
C4087 C 0.54086 0.15865 0.59477 0.0
C4088 C 0.55642 0.199 0.57859 0.0
C4089 C 0.54957 0.2171 0.5691 0.0
C4090 C 0.52552 0.20112 0.56008 0.0
C4091 C 0.52029 0.21823 0.55071 0.0
C4092 C 0.53913 0.25126 0.55023 0.0
C4093 C 0.5628 0.26739 0.55926 0.0
C4094 C 0.56814 0.2504 0.56865 0.0
C4095 C 0.6607 0.16614 0.57787 0.0
C4096 C 0.68753 0.19677 0.57787 0.0
C4097 C 0.63074 0.1615 0.58134 0.0
C4098 C 0.62706 0.18746 0.58482 0.0
C4099 C 0.65429 0.21774 0.58551 0.0
C4100 C 0.68412 0.22234 0.58206 0.0
C4101 C 0.59478 0.18394 0.58625 0.0
C4102 C 0.58696 0.20252 0.57853 0.0
C4103 C 0.57124 0.16162 0.59447 0.0
C4104 C 0.57771 0.14156 0.6031 0.0
C4105 C 0.60345 0.15537 0.61153 0.0
C4106 C 0.6089 0.13629 0.61986 0.0
C4107 C 0.58864 0.1034 0.61988 0.0
C4108 C 0.56289 0.0895 0.61158 0.0
C4109 C 0.55737 0.10846 0.60322 0.0
H4110 H 0.59284 0.08868 0.62637 0.0
H4111 H 0.53556 0.2643 0.54276 0.0
H4112 H 0.83659 0.26959 0.58285 0.0
H4113 H 0.82871 0.31533 0.58346 0.0
H4114 H 0.9275 0.37577 0.59319 0.0
H4115 H 0.93432 0.32917 0.59377 0.0
H4116 H 0.8987 0.39837 0.60435 0.0
H4117 H 0.89106 0.36647 0.56094 0.0
H4118 H 0.87026 0.32874 0.54313 0.0
H4119 H 0.77645 0.31314 0.55006 0.0
H4120 H 0.79667 0.35056 0.56798 0.0
H4121 H 0.90296 0.54072 0.57966 0.0
H4122 H 0.91082 0.49611 0.58551 0.0
H4123 H 0.80958 0.43263 0.58411 0.0
H4124 H 0.80186 0.47706 0.57832 0.0
H4125 H 0.84054 0.41275 0.56888 0.0
H4126 H 0.85105 0.44851 0.61178 0.0
H4127 H 0.8733 0.48566 0.62969 0.0
H4128 H 0.96498 0.4956 0.62295 0.0
H4129 H 0.94339 0.45895 0.60485 0.0
C4130 C 0.85654 0.29262 0.58525 0.0
C4131 C 0.88621 0.29581 0.58817 0.0
C4132 C 0.85215 0.31899 0.58543 0.0
C4133 C 0.87776 0.34966 0.58787 0.0
C4134 C 0.90726 0.35265 0.59116 0.0
C4135 C 0.91129 0.32595 0.59146 0.0
C4136 C 0.87384 0.37844 0.58691 0.0
C4137 C 0.88643 0.40166 0.59645 0.0
C4138 C 0.85733 0.38294 0.57679 0.0
C4139 C 0.84533 0.3611 0.56583 0.0
C4140 C 0.86599 0.35493 0.55866 0.0
C4141 C 0.8543 0.3336 0.54856 0.0
C4142 C 0.82204 0.31851 0.54548 0.0
C4143 C 0.80143 0.32484 0.55246 0.0
C4144 C 0.81299 0.34614 0.56257 0.0
C4145 C 0.88237 0.51752 0.58123 0.0
C4146 C 0.85172 0.51253 0.57883 0.0
C4147 C 0.88686 0.49191 0.58445 0.0
C4148 C 0.8608 0.46079 0.58522 0.0
C4149 C 0.83011 0.45628 0.58358 0.0
C4150 C 0.82564 0.48179 0.58044 0.0
C4151 C 0.86538 0.43255 0.58631 0.0
C4152 C 0.85295 0.40948 0.57674 0.0
C4153 C 0.88253 0.42856 0.59626 0.0
C4154 C 0.8957 0.45134 0.60687 0.0
C4155 C 0.87605 0.45898 0.61401 0.0
C4156 C 0.88853 0.47986 0.62422 0.0
C4157 C 0.92056 0.49307 0.62743 0.0
C4158 C 0.9402 0.48543 0.62043 0.0
C4159 C 0.92786 0.46463 0.61019 0.0
H4160 H 0.93015 0.50915 0.63537 0.0
H4161 H 0.81302 0.30192 0.53768 0.0
H4162 H 0.57348 0.34573 0.58211 0.0
H4163 H 0.61528 0.39943 0.58772 0.0
H4164 H 0.55139 0.43481 0.57993 0.0
H4165 H 0.50958 0.38089 0.57425 0.0
H4166 H 0.60493 0.46782 0.56717 0.0
H4167 H 0.58019 0.43698 0.61016 0.0
H4168 H 0.56998 0.4044 0.62929 0.0
H4169 H 0.66367 0.41659 0.62699 0.0
H4170 H 0.67427 0.44888 0.60774 0.0
H4171 H 0.7154 0.62646 0.58463 0.0
H4172 H 0.66891 0.57311 0.58529 0.0
H4173 H 0.73052 0.53316 0.58765 0.0
H4174 H 0.77713 0.58695 0.58714 0.0
H4175 H 0.67699 0.50372 0.60423 0.0
H4176 H 0.70016 0.53151 0.56059 0.0
H4177 H 0.71146 0.56604 0.54201 0.0
H4178 H 0.62072 0.56018 0.54595 0.0
H4179 H 0.60911 0.52598 0.5647 0.0
C4180 C 0.56799 0.36477 0.58216 0.0
C4181 C 0.53809 0.35906 0.57806 0.0
C4182 C 0.59196 0.39555 0.58529 0.0
C4183 C 0.58662 0.42138 0.58429 0.0
C4184 C 0.55615 0.41537 0.58081 0.0
C4185 C 0.5321 0.3845 0.57774 0.0
C4186 C 0.61363 0.4547 0.58555 0.0
C4187 C 0.62022 0.47574 0.57541 0.0
C4188 C 0.63441 0.46507 0.59609 0.0
C4189 C 0.62788 0.44505 0.60745 0.0
C4190 C 0.59848 0.4324 0.61366 0.0
C4191 C 0.59266 0.41406 0.62454 0.0
C4192 C 0.61613 0.40836 0.62933 0.0
C4193 C 0.64549 0.42098 0.62326 0.0
C4194 C 0.65142 0.43932 0.61237 0.0
C4195 C 0.71896 0.60645 0.58573 0.0
C4196 C 0.74973 0.6109 0.58622 0.0
C4197 C 0.69241 0.57587 0.58591 0.0
C4198 C 0.69618 0.54906 0.58656 0.0
C4199 C 0.727 0.55347 0.58725 0.0
C4200 C 0.75356 0.58413 0.58693 0.0
C4201 C 0.668 0.51649 0.58591 0.0
C4202 C 0.66139 0.49568 0.59608 0.0
C4203 C 0.6472 0.50627 0.57542 0.0
C4204 C 0.65391 0.52648 0.5641 0.0
C4205 C 0.68273 0.53779 0.55755 0.0
C4206 C 0.68917 0.55727 0.54698 0.0
C4207 C 0.66685 0.56536 0.54281 0.0
C4208 C 0.638 0.55392 0.54919 0.0
C4209 C 0.63147 0.53448 0.55979 0.0
H4210 H 0.67188 0.58045 0.53462 0.0
H4211 H 0.61161 0.39421 0.63778 0.0
loop_
_geom_bond_atom_site_label_1
_geom_bond_atom_site_label_2
_geom_bond_distance
_geom_bond_site_symmetry_2
_ccdc_geom_bond_type
C0 C2 1.422 . S
C0 C4 1.415 1_545 S
C0 N6 1.369 . S
C1 C2 1.421 1_565 S
C1 C3 1.417 . S
C1 C13 1.422 . S
C2 C0 1.422 . S
C2 C1 1.421 1_545 S
C2 N12 1.359 . S
C3 C1 1.417 . S
C3 C5 1.329 . S
C3 H22 0.930 . S
C4 C0 1.415 1_565 S
C4 C5 1.437 . S
C4 C8 1.413 . S
C5 C3 1.329 . S
C5 C4 1.437 . S
C5 H27 0.929 . S
N6 C0 1.369 . S
N6 C7 1.338 . S
N6 Gd11 2.622 . S
C7 N6 1.338 . S
C7 C9 1.378 . S
C7 H19 0.929 . S
C8 C4 1.413 . S
C8 C9 1.348 1_565 S
C8 H24 0.931 . S
C9 C7 1.378 . S
C9 C8 1.348 1_545 S
C9 H25 0.930 . S
Gd10 N30 2.627 . S
Gd10 N37 2.570 . S
Gd10 O44 2.353 . S
Gd10 O45 2.468 . S
Gd10 O46 2.427 . S
Gd10 O48 2.388 . S
Gd10 O49 2.386 1_565 S
Gd10 O53 2.307 . S
Gd10 C63 2.805 . S
Gd11 N6 2.622 . S
Gd11 N12 2.570 . S
Gd11 O43 2.386 1_545 S
Gd11 O47 2.307 . S
Gd11 O50 2.353 . S
Gd11 O51 2.468 . S
Gd11 O52 2.427 . S
Gd11 O54 2.388 . S
Gd11 C75 2.805 . S
N12 C2 1.359 . S
N12 Gd11 2.570 . S
N12 C14 1.343 . S
C13 C1 1.422 . S
C13 C15 1.321 1_565 S
C13 H21 0.931 . S
C14 N12 1.343 . S
C14 C15 1.390 . S
C14 H16 0.931 . S
C15 C13 1.321 1_545 S
C15 C14 1.390 . S
C15 H17 0.930 . S
H16 C14 0.931 . S
H17 C15 0.930 . S
H18 C41 0.931 . S
H19 C7 0.929 . S
H20 C42 0.930 . S
H21 C13 0.931 . S
H22 C3 0.930 . S
H23 C32 0.914 1_565 S
H24 C8 0.931 . S
H25 C9 0.930 . S
H26 C64 0.930 . S
H27 C5 0.929 . S
H28 C33 0.931 . S
H29 C34 0.930 . S
N30 Gd10 2.627 . S
N30 C31 1.362 1_565 S
N30 C32 1.342 1_565 S
C31 N30 1.362 1_545 S
C31 C35 1.415 . S
C31 C38 1.422 . S
C32 H23 0.914 1_545 S
C32 N30 1.342 1_545 S
C32 C34 1.390 . S
C33 H28 0.931 . S
C33 C34 1.348 . S
C33 C35 1.413 . S
C34 H29 0.930 . S
C34 C32 1.390 . S
C34 C33 1.348 . S
C35 C31 1.415 . S
C35 C33 1.413 . S
C35 C65 1.437 . S
H36 C65 0.929 . S
N37 Gd10 2.570 . S
N37 C38 1.359 1_565 S
N37 C41 1.343 . S
C38 C31 1.422 . S
C38 N37 1.359 1_545 S
C38 C40 1.421 . S
C39 C40 1.422 . S
C39 C42 1.321 . S
C39 H66 0.931 . S
C40 C38 1.421 . S
C40 C39 1.422 . S
C40 C64 1.417 . S
C41 H18 0.931 . S
C41 N37 1.343 . S
C41 C42 1.390 1_565 S
C42 H20 0.930 . S
C42 C39 1.321 . S
C42 C41 1.390 1_545 S
O43 Gd11 2.386 1_565 S
O43 C55 1.265 . S
O44 Gd10 2.353 . S
O44 C55 1.242 . S
O45 Gd10 2.468 . S
O45 C63 1.263 . S
O46 Gd10 2.427 . S
O46 C63 1.252 . S
O47 Gd11 2.307 . S
O47 C56 1.261 . S
O48 Gd10 2.388 . S
O48 C56 1.252 1_565 S
O49 Gd10 2.386 1_545 S
O49 C67 1.265 . S
O50 Gd11 2.353 . S
O50 C67 1.242 . S
O51 Gd11 2.468 . S
O51 C75 1.263 . S
O52 Gd11 2.427 . S
O52 C75 1.252 . S
O53 Gd10 2.307 . S
O53 C68 1.261 . S
O54 Gd11 2.388 . S
O54 C68 1.252 1_545 S
C55 O43 1.265 . S
C55 O44 1.242 . S
C56 O47 1.261 . S
C56 O48 1.252 1_545 S
C57 C60 1.394 . S
C57 C62 1.370 . S
C57 C63 1.500 . S
C58 C61 1.383 . S
C58 C62 1.395 . S
C59 C60 1.396 . S
C59 C61 1.365 . S
C59 H76 0.929 . S
C60 C57 1.394 . S
C60 C59 1.396 . S
C60 H77 0.930 . S
C61 C58 1.383 . S
C61 C59 1.365 . S
C61 H78 0.931 . S
C62 C57 1.370 . S
C62 C58 1.395 . S
C62 H79 0.930 . S
C63 Gd10 2.805 . S
C63 O45 1.263 . S
C63 O46 1.252 . S
C63 C57 1.500 . S
C64 H26 0.930 . S
C64 C40 1.417 . S
C64 C65 1.329 . S
C65 C35 1.437 . S
C65 H36 0.929 . S
C65 C64 1.329 . S
H66 C39 0.931 . S
C67 O49 1.265 . S
C67 O50 1.242 . S
C68 O53 1.261 . S
C68 O54 1.252 1_565 S
C69 C72 1.394 . S
C69 C74 1.370 . S
C69 C75 1.500 . S
C70 C73 1.383 . S
C70 C74 1.395 . S
C71 C72 1.396 . S
C71 C73 1.365 . S
C71 H80 0.929 . S
C72 C69 1.394 . S
C72 C71 1.396 . S
C72 H81 0.930 . S
C73 C70 1.383 . S
C73 C71 1.365 . S
C73 H82 0.931 . S
C74 C69 1.370 . S
C74 C70 1.395 . S
C74 H83 0.930 . S
C75 Gd11 2.805 . S
C75 O51 1.263 . S
C75 O52 1.252 . S
C75 C69 1.500 . S
H76 C59 0.929 . S
H77 C60 0.930 . S
H78 C61 0.931 . S
H79 C62 0.930 . S
H80 C71 0.929 . S
H81 C72 0.930 . S
H82 C73 0.931 . S
H83 C74 0.930 . S
C84 C86 1.422 . S
C84 C88 1.415 . S
C84 N90 1.369 . S
C85 C86 1.421 . S
C85 C87 1.417 . S
C85 C97 1.422 . S
C86 C84 1.422 . S
C86 C85 1.421 . S
C86 N96 1.359 . S
C87 C85 1.417 . S
C87 C89 1.329 . S
C87 H106 0.930 . S
C88 C84 1.415 . S
C88 C89 1.437 . S
C88 C92 1.413 . S
C89 C87 1.329 . S
C89 C88 1.437 . S
C89 H111 0.929 . S
N90 C84 1.369 . S
N90 C91 1.338 . S
N90 Gd95 2.622 . S
C91 N90 1.338 . S
C91 C93 1.378 . S
C91 H103 0.929 . S
C92 C88 1.413 . S
C92 C93 1.348 . S
C92 H108 0.931 . S
C93 C91 1.378 . S
C93 C92 1.348 . S
C93 H109 0.930 . S
Gd94 N114 2.622 . S
Gd94 N121 2.570 . S
Gd94 O128 2.353 . S
Gd94 O129 2.468 . S
Gd94 O130 2.427 . S
Gd94 O132 2.388 . S
Gd94 O133 2.386 . S
Gd94 O137 2.307 . S
Gd94 C147 2.805 . S
Gd95 N90 2.622 . S
Gd95 N96 2.570 . S
Gd95 O127 2.386 . S
Gd95 O131 2.307 . S
Gd95 O134 2.353 1_455 S
Gd95 O135 2.468 1_455 S
Gd95 O136 2.427 1_455 S
Gd95 O138 2.388 . S
Gd95 C159 2.805 1_455 S
N96 C86 1.359 . S
N96 Gd95 2.570 . S
N96 C98 1.343 . S
C97 C85 1.422 . S
C97 C99 1.321 . S
C97 H105 0.931 . S
C98 N96 1.343 . S
C98 C99 1.390 . S
C98 H100 0.931 . S
C99 C97 1.321 . S
C99 C98 1.390 . S
C99 H101 0.930 . S
H100 C98 0.931 . S
H101 C99 0.930 . S
H102 C125 0.931 . S
H103 C91 0.929 . S
H104 C126 0.930 . S
H105 C97 0.931 . S
H106 C87 0.930 . S
H107 C116 0.929 . S
H108 C92 0.931 . S
H109 C93 0.930 . S
H110 C148 0.930 1_655 S
H111 C89 0.929 . S
H112 C117 0.931 . S
H113 C118 0.930 . S
N114 Gd94 2.622 . S
N114 C115 1.369 . S
N114 C116 1.338 . S
C115 N114 1.369 . S
C115 C119 1.415 . S
C115 C122 1.422 . S
C116 H107 0.929 . S
C116 N114 1.338 . S
C116 C118 1.378 . S
C117 H112 0.931 . S
C117 C118 1.348 . S
C117 C119 1.413 . S
C118 H113 0.930 . S
C118 C116 1.378 . S
C118 C117 1.348 . S
C119 C115 1.415 . S
C119 C117 1.413 . S
C119 C149 1.437 . S
H120 C149 0.929 1_655 S
N121 Gd94 2.570 . S
N121 C122 1.359 . S
N121 C125 1.343 . S
C122 C115 1.422 . S
C122 N121 1.359 . S
C122 C124 1.421 . S
C123 C124 1.422 . S
C123 C126 1.321 . S
C123 H150 0.931 . S
C124 C122 1.421 . S
C124 C123 1.422 . S
C124 C148 1.417 . S
C125 H102 0.931 . S
C125 N121 1.343 . S
C125 C126 1.390 . S
C126 H104 0.930 . S
C126 C123 1.321 . S
C126 C125 1.390 . S
O127 Gd95 2.386 . S
O127 C139 1.265 . S
O128 Gd94 2.353 . S
O128 C139 1.242 . S
O129 Gd94 2.468 . S
O129 C147 1.263 . S
O130 Gd94 2.427 . S
O130 C147 1.252 . S
O131 Gd95 2.307 . S
O131 C140 1.261 . S
O132 Gd94 2.388 . S
O132 C140 1.252 . S
O133 Gd94 2.386 . S
O133 C151 1.265 1_455 S
O134 Gd95 2.353 1_655 S
O134 C151 1.242 . S
O135 Gd95 2.468 1_655 S
O135 C159 1.263 . S
O136 Gd95 2.427 1_655 S
O136 C159 1.252 . S
O137 Gd94 2.307 . S
O137 C152 1.261 . S
O138 Gd95 2.388 . S
O138 C152 1.252 . S
C139 O127 1.265 . S
C139 O128 1.242 . S
C140 O131 1.261 . S
C140 O132 1.252 . S
C141 C144 1.394 . S
C141 C146 1.370 . S
C141 C147 1.500 . S
C142 C145 1.383 . S
C142 C146 1.395 . S
C143 C144 1.396 . S
C143 C145 1.365 . S
C143 H160 0.929 . S
C144 C141 1.394 . S
C144 C143 1.396 . S
C144 H161 0.930 . S
C145 C142 1.383 . S
C145 C143 1.365 . S
C145 H162 0.931 . S
C146 C141 1.370 . S
C146 C142 1.395 . S
C146 H163 0.930 . S
C147 Gd94 2.805 . S
C147 O129 1.263 . S
C147 O130 1.252 . S
C147 C141 1.500 . S
C148 H110 0.930 1_455 S
C148 C124 1.417 . S
C148 C149 1.329 . S
C149 C119 1.437 . S
C149 H120 0.929 1_455 S
C149 C148 1.329 . S
H150 C123 0.931 . S
C151 O133 1.265 1_655 S
C151 O134 1.242 . S
C152 O137 1.261 . S
C152 O138 1.252 . S
C153 C156 1.394 . S
C153 C158 1.370 . S
C153 C159 1.500 . S
C154 C157 1.383 . S
C154 C158 1.395 . S
C155 C156 1.396 . S
C155 C157 1.365 . S
C155 H164 0.929 . S
C156 C153 1.394 . S
C156 C155 1.396 . S
C156 H165 0.930 . S
C157 C154 1.383 . S
C157 C155 1.365 . S
C157 H166 0.931 . S
C158 C153 1.370 . S
C158 C154 1.395 . S
C158 H167 0.930 . S
C159 Gd95 2.805 1_655 S
C159 O135 1.263 . S
C159 O136 1.252 . S
C159 C153 1.500 . S
H160 C143 0.929 . S
H161 C144 0.930 . S
H162 C145 0.931 . S
H163 C146 0.930 . S
H164 C155 0.929 . S
H165 C156 0.930 . S
H166 C157 0.931 . S
H167 C158 0.930 . S
C168 C170 1.422 . S
C168 C172 1.415 . S
C168 N174 1.369 . S
C169 C170 1.421 . S
C169 C171 1.417 . S
C169 C181 1.422 . S
C170 C168 1.422 . S
C170 C169 1.421 . S
C170 N180 1.359 . S
C171 C169 1.417 . S
C171 C173 1.329 . S
C171 H190 0.930 . S
C172 C168 1.415 . S
C172 C173 1.437 . S
C172 C176 1.413 . S
C173 C171 1.329 . S
C173 C172 1.437 . S
C173 H195 0.929 . S
N174 C168 1.369 . S
N174 C175 1.338 . S
N174 Gd179 2.622 . S
C175 N174 1.338 . S
C175 C177 1.378 . S
C175 H187 0.929 . S
C176 C172 1.413 . S
C176 C177 1.348 . S
C176 H192 0.931 . S
C177 C175 1.378 . S
C177 C176 1.348 . S
C177 H193 0.930 . S
Gd178 N198 2.622 . S
Gd178 N205 2.570 . S
Gd178 O212 2.353 . S
Gd178 O213 2.468 . S
Gd178 O214 2.427 . S
Gd178 O216 2.388 . S
Gd178 O217 2.386 . S
Gd178 O221 2.307 . S
Gd178 C231 2.805 . S
Gd179 N174 2.622 . S
Gd179 N180 2.570 . S
Gd179 O211 2.386 . S
Gd179 O215 2.307 . S
Gd179 O218 2.353 . S
Gd179 O219 2.468 . S
Gd179 O220 2.427 . S
Gd179 O222 2.388 . S
Gd179 C243 2.805 . S
N180 C170 1.359 . S
N180 Gd179 2.570 . S
N180 C182 1.343 . S
C181 C169 1.422 . S
C181 C183 1.321 . S
C181 H189 0.931 . S
C182 N180 1.343 . S
C182 C183 1.390 . S
C182 H184 0.931 . S
C183 C181 1.321 . S
C183 C182 1.390 . S
C183 H185 0.930 . S
H184 C182 0.931 . S
H185 C183 0.930 . S
H186 C209 0.931 . S
H187 C175 0.929 . S
H188 C210 0.930 . S
H189 C181 0.931 . S
H190 C171 0.930 . S
H191 C200 0.929 . S
H192 C176 0.931 . S
H193 C177 0.930 . S
H194 C232 0.930 . S
H195 C173 0.929 . S
H196 C201 0.931 . S
H197 C202 0.930 . S
N198 Gd178 2.622 . S
N198 C199 1.369 . S
N198 C200 1.338 . S
C199 N198 1.369 . S
C199 C203 1.415 . S
C199 C206 1.422 . S
C200 H191 0.929 . S
C200 N198 1.338 . S
C200 C202 1.378 . S
C201 H196 0.931 . S
C201 C202 1.348 . S
C201 C203 1.413 . S
C202 H197 0.930 . S
C202 C200 1.378 . S
C202 C201 1.348 . S
C203 C199 1.415 . S
C203 C201 1.413 . S
C203 C233 1.437 . S
H204 C233 0.929 . S
N205 Gd178 2.570 . S
N205 C206 1.359 . S
N205 C209 1.343 . S
C206 C199 1.422 . S
C206 N205 1.359 . S
C206 C208 1.421 . S
C207 C208 1.422 . S
C207 C210 1.321 . S
C207 H234 0.931 . S
C208 C206 1.421 . S
C208 C207 1.422 . S
C208 C232 1.417 . S
C209 H186 0.931 . S
C209 N205 1.343 . S
C209 C210 1.390 . S
C210 H188 0.930 . S
C210 C207 1.321 . S
C210 C209 1.390 . S
O211 Gd179 2.386 . S
O211 C223 1.265 . S
O212 Gd178 2.353 . S
O212 C223 1.242 . S
O213 Gd178 2.468 . S
O213 C231 1.263 . S
O214 Gd178 2.427 . S
O214 C231 1.252 . S
O215 Gd179 2.307 . S
O215 C224 1.261 . S
O216 Gd178 2.388 . S
O216 C224 1.252 . S
O217 Gd178 2.386 . S
O217 C235 1.265 . S
O218 Gd179 2.353 . S
O218 C235 1.242 . S
O219 Gd179 2.468 . S
O219 C243 1.263 . S
O220 Gd179 2.427 . S
O220 C243 1.252 . S
O221 Gd178 2.307 . S
O221 C236 1.261 . S
O222 Gd179 2.388 . S
O222 C236 1.252 . S
C223 O211 1.265 . S
C223 O212 1.242 . S
C224 O215 1.261 . S
C224 O216 1.252 . S
C225 C228 1.394 . S
C225 C230 1.370 . S
C225 C231 1.500 . S
C226 C229 1.383 . S
C226 C230 1.395 . S
C227 C228 1.396 . S
C227 C229 1.365 . S
C227 H244 0.929 . S
C228 C225 1.394 . S
C228 C227 1.396 . S
C228 H245 0.930 . S
C229 C226 1.383 . S
C229 C227 1.365 . S
C229 H246 0.931 . S
C230 C225 1.370 . S
C230 C226 1.395 . S
C230 H247 0.930 . S
C231 Gd178 2.805 . S
C231 O213 1.263 . S
C231 O214 1.252 . S
C231 C225 1.500 . S
C232 H194 0.930 . S
C232 C208 1.417 . S
C232 C233 1.329 . S
C233 C203 1.437 . S
C233 H204 0.929 . S
C233 C232 1.329 . S
H234 C207 0.931 . S
C235 O217 1.265 . S
C235 O218 1.242 . S
C236 O221 1.261 . S
C236 O222 1.252 . S
C237 C240 1.394 . S
C237 C242 1.370 . S
C237 C243 1.500 . S
C238 C241 1.383 . S
C238 C242 1.395 . S
C239 C240 1.396 . S
C239 C241 1.365 . S
C239 H248 0.929 . S
C240 C237 1.394 . S
C240 C239 1.396 . S
C240 H249 0.930 . S
C241 C238 1.383 . S
C241 C239 1.365 . S
C241 H250 0.931 . S
C242 C237 1.370 . S
C242 C238 1.395 . S
C242 H251 0.930 . S
C243 Gd179 2.805 . S
C243 O219 1.263 . S
C243 O220 1.252 . S
C243 C237 1.500 . S
H244 C227 0.929 . S
H245 C228 0.930 . S
H246 C229 0.931 . S
H247 C230 0.930 . S
H248 C239 0.929 . S
H249 C240 0.930 . S
H250 C241 0.931 . S
H251 C242 0.930 . S
C252 C254 1.422 . S
C252 C256 1.415 1_455 S
C252 N258 1.369 . S
C253 C254 1.421 1_655 S
C253 C255 1.417 . S
C253 C265 1.422 . S
C254 C252 1.422 . S
C254 C253 1.421 1_455 S
C254 N264 1.359 . S
C255 C253 1.417 . S
C255 C257 1.329 . S
C255 H274 0.930 . S
C256 C252 1.415 1_655 S
C256 C257 1.437 . S
C256 C260 1.413 . S
C257 C255 1.329 . S
C257 C256 1.437 . S
C257 H279 0.929 . S
N258 C252 1.369 . S
N258 C259 1.338 . S
N258 Gd263 2.622 . S
C259 N258 1.338 . S
C259 C261 1.378 . S
C259 H271 0.929 . S
C260 C256 1.413 . S
C260 C261 1.348 1_655 S
C260 H276 0.931 . S
C261 C259 1.378 . S
C261 C260 1.348 1_455 S
C261 H277 0.930 . S
Gd262 N282 2.627 . S
Gd262 N289 2.570 . S
Gd262 O296 2.353 . S
Gd262 O297 2.468 . S
Gd262 O298 2.427 . S
Gd262 O300 2.388 . S
Gd262 O301 2.386 1_655 S
Gd262 O305 2.307 . S
Gd262 C315 2.805 . S
Gd263 N258 2.622 . S
Gd263 N264 2.570 . S
Gd263 O295 2.386 1_455 S
Gd263 O299 2.307 . S
Gd263 O302 2.353 . S
Gd263 O303 2.468 . S
Gd263 O304 2.427 . S
Gd263 O306 2.388 . S
Gd263 C327 2.805 . S
N264 C254 1.359 . S
N264 Gd263 2.570 . S
N264 C266 1.343 . S
C265 C253 1.422 . S
C265 C267 1.321 1_655 S
C265 H273 0.931 . S
C266 N264 1.343 . S
C266 C267 1.390 . S
C266 H268 0.931 . S
C267 C265 1.321 1_455 S
C267 C266 1.390 . S
C267 H269 0.930 . S
H268 C266 0.931 . S
H269 C267 0.930 . S
H270 C293 0.931 . S
H271 C259 0.929 . S
H272 C294 0.930 . S
H273 C265 0.931 . S
H274 C255 0.930 . S
H275 C284 0.914 1_655 S
H276 C260 0.931 . S
H277 C261 0.930 . S
H278 C316 0.930 . S
H279 C257 0.929 . S
H280 C285 0.931 . S
H281 C286 0.930 . S
N282 Gd262 2.627 . S
N282 C283 1.362 1_655 S
N282 C284 1.342 1_655 S
C283 N282 1.362 1_455 S
C283 C287 1.415 . S
C283 C290 1.422 . S
C284 H275 0.914 1_455 S
C284 N282 1.342 1_455 S
C284 C286 1.390 . S
C285 H280 0.931 . S
C285 C286 1.348 . S
C285 C287 1.413 . S
C286 H281 0.930 . S
C286 C284 1.390 . S
C286 C285 1.348 . S
C287 C283 1.415 . S
C287 C285 1.413 . S
C287 C317 1.437 . S
H288 C317 0.929 . S
N289 Gd262 2.570 . S
N289 C290 1.359 1_655 S
N289 C293 1.343 . S
C290 C283 1.422 . S
C290 N289 1.359 1_455 S
C290 C292 1.421 . S
C291 C292 1.422 . S
C291 C294 1.321 . S
C291 H318 0.931 . S
C292 C290 1.421 . S
C292 C291 1.422 . S
C292 C316 1.417 . S
C293 H270 0.931 . S
C293 N289 1.343 . S
C293 C294 1.390 1_655 S
C294 H272 0.930 . S
C294 C291 1.321 . S
C294 C293 1.390 1_455 S
O295 Gd263 2.386 1_655 S
O295 C307 1.265 . S
O296 Gd262 2.353 . S
O296 C307 1.242 . S
O297 Gd262 2.468 . S
O297 C315 1.263 . S
O298 Gd262 2.427 . S
O298 C315 1.252 . S
O299 Gd263 2.307 . S
O299 C308 1.261 . S
O300 Gd262 2.388 . S
O300 C308 1.252 1_655 S
O301 Gd262 2.386 1_455 S
O301 C319 1.265 . S
O302 Gd263 2.353 . S
O302 C319 1.242 . S
O303 Gd263 2.468 . S
O303 C327 1.263 . S
O304 Gd263 2.427 . S
O304 C327 1.252 . S
O305 Gd262 2.307 . S
O305 C320 1.261 . S
O306 Gd263 2.388 . S
O306 C320 1.252 1_455 S
C307 O295 1.265 . S
C307 O296 1.242 . S
C308 O299 1.261 . S
C308 O300 1.252 1_455 S
C309 C312 1.394 . S
C309 C314 1.370 . S
C309 C315 1.500 . S
C310 C313 1.383 . S
C310 C314 1.395 . S
C311 C312 1.396 . S
C311 C313 1.365 . S
C311 H328 0.929 . S
C312 C309 1.394 . S
C312 C311 1.396 . S
C312 H329 0.930 . S
C313 C310 1.383 . S
C313 C311 1.365 . S
C313 H330 0.931 . S
C314 C309 1.370 . S
C314 C310 1.395 . S
C314 H331 0.930 . S
C315 Gd262 2.805 . S
C315 O297 1.263 . S
C315 O298 1.252 . S
C315 C309 1.500 . S
C316 H278 0.930 . S
C316 C292 1.417 . S
C316 C317 1.329 . S
C317 C287 1.437 . S
C317 H288 0.929 . S
C317 C316 1.329 . S
H318 C291 0.931 . S
C319 O301 1.265 . S
C319 O302 1.242 . S
C320 O305 1.261 . S
C320 O306 1.252 1_655 S
C321 C324 1.394 . S
C321 C326 1.370 . S
C321 C327 1.500 . S
C322 C325 1.383 . S
C322 C326 1.395 . S
C323 C324 1.396 . S
C323 C325 1.365 . S
C323 H332 0.929 . S
C324 C321 1.394 . S
C324 C323 1.396 . S
C324 H333 0.930 . S
C325 C322 1.383 . S
C325 C323 1.365 . S
C325 H334 0.931 . S
C326 C321 1.370 . S
C326 C322 1.395 . S
C326 H335 0.930 . S
C327 Gd263 2.805 . S
C327 O303 1.263 . S
C327 O304 1.252 . S
C327 C321 1.500 . S
H328 C311 0.929 . S
H329 C312 0.930 . S
H330 C313 0.931 . S
H331 C314 0.930 . S
H332 C323 0.929 . S
H333 C324 0.930 . S
H334 C325 0.931 . S
H335 C326 0.930 . S
C336 C338 1.422 . S
C336 C340 1.415 . S
C336 N342 1.369 . S
C337 C338 1.421 . S
C337 C339 1.417 . S
C337 C349 1.422 . S
C338 C336 1.422 . S
C338 C337 1.421 . S
C338 N348 1.359 . S
C339 C337 1.417 . S
C339 C341 1.329 . S
C339 H358 0.930 . S
C340 C336 1.415 . S
C340 C341 1.437 . S
C340 C344 1.413 . S
C341 C339 1.329 . S
C341 C340 1.437 . S
C341 H363 0.929 . S
N342 C336 1.369 . S
N342 C343 1.338 . S
N342 Gd347 2.622 . S
C343 N342 1.338 . S
C343 C345 1.378 . S
C343 H355 0.929 . S
C344 C340 1.413 . S
C344 C345 1.348 . S
C344 H360 0.931 . S
C345 C343 1.378 . S
C345 C344 1.348 . S
C345 H361 0.930 . S
Gd346 N366 2.622 . S
Gd346 N373 2.570 . S
Gd346 O380 2.353 . S
Gd346 O381 2.468 . S
Gd346 O382 2.427 . S
Gd346 O384 2.388 . S
Gd346 O385 2.386 . S
Gd346 O389 2.307 . S
Gd346 C399 2.805 . S
Gd347 N342 2.622 . S
Gd347 N348 2.570 . S
Gd347 O379 2.386 . S
Gd347 O383 2.307 . S
Gd347 O386 2.353 . S
Gd347 O387 2.468 . S
Gd347 O388 2.427 . S
Gd347 O390 2.388 . S
Gd347 C411 2.805 . S
N348 C338 1.359 . S
N348 Gd347 2.570 . S
N348 C350 1.343 . S
C349 C337 1.422 . S
C349 C351 1.321 . S
C349 H357 0.931 . S
C350 N348 1.343 . S
C350 C351 1.390 . S
C350 H352 0.931 . S
C351 C349 1.321 . S
C351 C350 1.390 . S
C351 H353 0.930 . S
H352 C350 0.931 . S
H353 C351 0.930 . S
H354 C377 0.931 . S
H355 C343 0.929 . S
H356 C378 0.930 . S
H357 C349 0.931 . S
H358 C339 0.930 . S
H359 C368 0.929 . S
H360 C344 0.931 . S
H361 C345 0.930 . S
H362 C400 0.930 . S
H363 C341 0.929 . S
H364 C369 0.931 . S
H365 C370 0.930 . S
N366 Gd346 2.622 . S
N366 C367 1.369 . S
N366 C368 1.338 . S
C367 N366 1.369 . S
C367 C371 1.415 . S
C367 C374 1.422 . S
C368 H359 0.929 . S
C368 N366 1.338 . S
C368 C370 1.378 . S
C369 H364 0.931 . S
C369 C370 1.348 . S
C369 C371 1.413 . S
C370 H365 0.930 . S
C370 C368 1.378 . S
C370 C369 1.348 . S
C371 C367 1.415 . S
C371 C369 1.413 . S
C371 C401 1.437 . S
H372 C401 0.929 . S
N373 Gd346 2.570 . S
N373 C374 1.359 . S
N373 C377 1.343 . S
C374 C367 1.422 . S
C374 N373 1.359 . S
C374 C376 1.421 . S
C375 C376 1.422 . S
C375 C378 1.321 . S
C375 H402 0.931 . S
C376 C374 1.421 . S
C376 C375 1.422 . S
C376 C400 1.417 . S
C377 H354 0.931 . S
C377 N373 1.343 . S
C377 C378 1.390 . S
C378 H356 0.930 . S
C378 C375 1.321 . S
C378 C377 1.390 . S
O379 Gd347 2.386 . S
O379 C391 1.265 . S
O380 Gd346 2.353 . S
O380 C391 1.242 . S
O381 Gd346 2.468 . S
O381 C399 1.263 . S
O382 Gd346 2.427 . S
O382 C399 1.252 . S
O383 Gd347 2.307 . S
O383 C392 1.261 . S
O384 Gd346 2.388 . S
O384 C392 1.252 . S
O385 Gd346 2.386 . S
O385 C403 1.265 . S
O386 Gd347 2.353 . S
O386 C403 1.242 . S
O387 Gd347 2.468 . S
O387 C411 1.263 . S
O388 Gd347 2.427 . S
O388 C411 1.252 . S
O389 Gd346 2.307 . S
O389 C404 1.261 . S
O390 Gd347 2.388 . S
O390 C404 1.252 . S
C391 O379 1.265 . S
C391 O380 1.242 . S
C392 O383 1.261 . S
C392 O384 1.252 . S
C393 C396 1.394 . S
C393 C398 1.370 . S
C393 C399 1.500 . S
C394 C397 1.383 . S
C394 C398 1.395 . S
C395 C396 1.396 . S
C395 C397 1.365 . S
C395 H412 0.929 . S
C396 C393 1.394 . S
C396 C395 1.396 . S
C396 H413 0.930 . S
C397 C394 1.383 . S
C397 C395 1.365 . S
C397 H414 0.931 . S
C398 C393 1.370 . S
C398 C394 1.395 . S
C398 H415 0.930 . S
C399 Gd346 2.805 . S
C399 O381 1.263 . S
C399 O382 1.252 . S
C399 C393 1.500 . S
C400 H362 0.930 . S
C400 C376 1.417 . S
C400 C401 1.329 . S
C401 C371 1.437 . S
C401 H372 0.929 . S
C401 C400 1.329 . S
H402 C375 0.931 . S
C403 O385 1.265 . S
C403 O386 1.242 . S
C404 O389 1.261 . S
C404 O390 1.252 . S
C405 C408 1.394 . S
C405 C410 1.370 . S
C405 C411 1.500 . S
C406 C409 1.383 . S
C406 C410 1.395 . S
C407 C408 1.396 . S
C407 C409 1.365 . S
C407 H416 0.929 . S
C408 C405 1.394 . S
C408 C407 1.396 . S
C408 H417 0.930 . S
C409 C406 1.383 . S
C409 C407 1.365 . S
C409 H418 0.931 . S
C410 C405 1.370 . S
C410 C406 1.395 . S
C410 H419 0.930 . S
C411 Gd347 2.805 . S
C411 O387 1.263 . S
C411 O388 1.252 . S
C411 C405 1.500 . S
H412 C395 0.929 . S
H413 C396 0.930 . S
H414 C397 0.931 . S
H415 C398 0.930 . S
H416 C407 0.929 . S
H417 C408 0.930 . S
H418 C409 0.931 . S
H419 C410 0.930 . S
C420 C422 1.422 . S
C420 C424 1.415 . S
C420 N426 1.369 . S
C421 C422 1.421 . S
C421 C423 1.417 . S
C421 C433 1.422 . S
C422 C420 1.422 . S
C422 C421 1.421 . S
C422 N432 1.359 . S
C423 C421 1.417 . S
C423 C425 1.329 . S
C423 H442 0.930 . S
C424 C420 1.415 . S
C424 C425 1.437 . S
C424 C428 1.413 . S
C425 C423 1.329 . S
C425 C424 1.437 . S
C425 H447 0.929 . S
N426 C420 1.369 . S
N426 C427 1.338 . S
N426 Gd431 2.622 . S
C427 N426 1.338 . S
C427 C429 1.378 . S
C427 H439 0.929 . S
C428 C424 1.413 . S
C428 C429 1.348 . S
C428 H444 0.931 . S
C429 C427 1.378 . S
C429 C428 1.348 . S
C429 H445 0.930 . S
Gd430 N450 2.622 . S
Gd430 N457 2.570 . S
Gd430 O464 2.353 . S
Gd430 O465 2.468 . S
Gd430 O466 2.427 . S
Gd430 O468 2.388 . S
Gd430 O469 2.386 . S
Gd430 O473 2.307 . S
Gd430 C483 2.805 . S
Gd431 N426 2.622 . S
Gd431 N432 2.570 . S
Gd431 O463 2.386 . S
Gd431 O467 2.307 . S
Gd431 O470 2.353 1_545 S
Gd431 O471 2.468 1_545 S
Gd431 O472 2.427 1_545 S
Gd431 O474 2.388 . S
Gd431 C495 2.805 1_545 S
N432 C422 1.359 . S
N432 Gd431 2.570 . S
N432 C434 1.343 . S
C433 C421 1.422 . S
C433 C435 1.321 . S
C433 H441 0.931 . S
C434 N432 1.343 . S
C434 C435 1.390 . S
C434 H436 0.931 . S
C435 C433 1.321 . S
C435 C434 1.390 . S
C435 H437 0.930 . S
H436 C434 0.931 . S
H437 C435 0.930 . S
H438 C461 0.931 . S
H439 C427 0.929 . S
H440 C462 0.930 . S
H441 C433 0.931 . S
H442 C423 0.930 . S
H443 C452 0.929 . S
H444 C428 0.931 . S
H445 C429 0.930 . S
H446 C484 0.930 1_565 S
H447 C425 0.929 . S
H448 C453 0.931 . S
H449 C454 0.930 . S
N450 Gd430 2.622 . S
N450 C451 1.369 . S
N450 C452 1.338 . S
C451 N450 1.369 . S
C451 C455 1.415 . S
C451 C458 1.422 . S
C452 H443 0.929 . S
C452 N450 1.338 . S
C452 C454 1.378 . S
C453 H448 0.931 . S
C453 C454 1.348 . S
C453 C455 1.413 . S
C454 H449 0.930 . S
C454 C452 1.378 . S
C454 C453 1.348 . S
C455 C451 1.415 . S
C455 C453 1.413 . S
C455 C485 1.437 . S
H456 C485 0.929 1_565 S
N457 Gd430 2.570 . S
N457 C458 1.359 . S
N457 C461 1.343 . S
C458 C451 1.422 . S
C458 N457 1.359 . S
C458 C460 1.421 . S
C459 C460 1.422 . S
C459 C462 1.321 . S
C459 H486 0.931 . S
C460 C458 1.421 . S
C460 C459 1.422 . S
C460 C484 1.417 . S
C461 H438 0.931 . S
C461 N457 1.343 . S
C461 C462 1.390 . S
C462 H440 0.930 . S
C462 C459 1.321 . S
C462 C461 1.390 . S
O463 Gd431 2.386 . S
O463 C475 1.265 . S
O464 Gd430 2.353 . S
O464 C475 1.242 . S
O465 Gd430 2.468 . S
O465 C483 1.263 . S
O466 Gd430 2.427 . S
O466 C483 1.252 . S
O467 Gd431 2.307 . S
O467 C476 1.261 . S
O468 Gd430 2.388 . S
O468 C476 1.252 . S
O469 Gd430 2.386 . S
O469 C487 1.265 1_545 S
O470 Gd431 2.353 1_565 S
O470 C487 1.242 . S
O471 Gd431 2.468 1_565 S
O471 C495 1.263 . S
O472 Gd431 2.427 1_565 S
O472 C495 1.252 . S
O473 Gd430 2.307 . S
O473 C488 1.261 . S
O474 Gd431 2.388 . S
O474 C488 1.252 . S
C475 O463 1.265 . S
C475 O464 1.242 . S
C476 O467 1.261 . S
C476 O468 1.252 . S
C477 C480 1.394 . S
C477 C482 1.370 . S
C477 C483 1.500 . S
C478 C481 1.383 . S
C478 C482 1.395 . S
C479 C480 1.396 . S
C479 C481 1.365 . S
C479 H496 0.929 . S
C480 C477 1.394 . S
C480 C479 1.396 . S
C480 H497 0.930 . S
C481 C478 1.383 . S
C481 C479 1.365 . S
C481 H498 0.931 . S
C482 C477 1.370 . S
C482 C478 1.395 . S
C482 H499 0.930 . S
C483 Gd430 2.805 . S
C483 O465 1.263 . S
C483 O466 1.252 . S
C483 C477 1.500 . S
C484 H446 0.930 1_545 S
C484 C460 1.417 . S
C484 C485 1.329 . S
C485 C455 1.437 . S
C485 H456 0.929 1_545 S
C485 C484 1.329 . S
H486 C459 0.931 . S
C487 O469 1.265 1_565 S
C487 O470 1.242 . S
C488 O473 1.261 . S
C488 O474 1.252 . S
C489 C492 1.394 . S
C489 C494 1.370 . S
C489 C495 1.500 . S
C490 C493 1.383 . S
C490 C494 1.395 . S
C491 C492 1.396 . S
C491 C493 1.365 . S
C491 H500 0.929 . S
C492 C489 1.394 . S
C492 C491 1.396 . S
C492 H501 0.930 . S
C493 C490 1.383 . S
C493 C491 1.365 . S
C493 H502 0.931 . S
C494 C489 1.370 . S
C494 C490 1.395 . S
C494 H503 0.930 . S
C495 Gd431 2.805 1_565 S
C495 O471 1.263 . S
C495 O472 1.252 . S
C495 C489 1.500 . S
H496 C479 0.929 . S
H497 C480 0.930 . S
H498 C481 0.931 . S
H499 C482 0.930 . S
H500 C491 0.929 . S
H501 C492 0.930 . S
H502 C493 0.931 . S
H503 C494 0.930 . S
C504 C506 1.422 . S
C504 C508 1.415 . S
C504 N510 1.369 . S
C505 C506 1.421 . S
C505 C507 1.417 . S
C505 C517 1.422 . S
C506 C504 1.422 . S
C506 C505 1.421 . S
C506 N516 1.359 . S
C507 C505 1.417 . S
C507 C509 1.329 . S
C507 H526 0.930 . S
C508 C504 1.415 . S
C508 C509 1.437 . S
C508 C512 1.413 . S
C509 C507 1.329 . S
C509 C508 1.437 . S
C509 H531 0.929 . S
N510 C504 1.369 . S
N510 C511 1.338 . S
N510 Gd515 2.622 . S
C511 N510 1.338 . S
C511 C513 1.378 . S
C511 H523 0.929 . S
C512 C508 1.413 . S
C512 C513 1.348 . S
C512 H528 0.931 . S
C513 C511 1.378 . S
C513 C512 1.348 . S
C513 H529 0.930 . S
Gd514 N534 2.622 . S
Gd514 N541 2.570 . S
Gd514 O548 2.353 . S
Gd514 O549 2.468 . S
Gd514 O550 2.427 . S
Gd514 O552 2.388 . S
Gd514 O553 2.386 . S
Gd514 O557 2.307 . S
Gd514 C567 2.805 . S
Gd515 N510 2.622 . S
Gd515 N516 2.570 . S
Gd515 O547 2.386 . S
Gd515 O551 2.307 . S
Gd515 O554 2.353 . S
Gd515 O555 2.468 . S
Gd515 O556 2.427 . S
Gd515 O558 2.388 . S
Gd515 C579 2.805 . S
N516 C506 1.359 . S
N516 Gd515 2.570 . S
N516 C518 1.343 . S
C517 C505 1.422 . S
C517 C519 1.321 . S
C517 H525 0.931 . S
C518 N516 1.343 . S
C518 C519 1.390 . S
C518 H520 0.931 . S
C519 C517 1.321 . S
C519 C518 1.390 . S
C519 H521 0.930 . S
H520 C518 0.931 . S
H521 C519 0.930 . S
H522 C545 0.931 . S
H523 C511 0.929 . S
H524 C546 0.930 . S
H525 C517 0.931 . S
H526 C507 0.930 . S
H527 C536 0.929 . S
H528 C512 0.931 . S
H529 C513 0.930 . S
H530 C568 0.930 . S
H531 C509 0.929 . S
H532 C537 0.931 . S
H533 C538 0.930 . S
N534 Gd514 2.622 . S
N534 C535 1.369 . S
N534 C536 1.338 . S
C535 N534 1.369 . S
C535 C539 1.415 . S
C535 C542 1.422 . S
C536 H527 0.929 . S
C536 N534 1.338 . S
C536 C538 1.378 . S
C537 H532 0.931 . S
C537 C538 1.348 . S
C537 C539 1.413 . S
C538 H533 0.930 . S
C538 C536 1.378 . S
C538 C537 1.348 . S
C539 C535 1.415 . S
C539 C537 1.413 . S
C539 C569 1.437 . S
H540 C569 0.929 . S
N541 Gd514 2.570 . S
N541 C542 1.359 . S
N541 C545 1.343 . S
C542 C535 1.422 . S
C542 N541 1.359 . S
C542 C544 1.421 . S
C543 C544 1.422 . S
C543 C546 1.321 . S
C543 H570 0.931 . S
C544 C542 1.421 . S
C544 C543 1.422 . S
C544 C568 1.417 . S
C545 H522 0.931 . S
C545 N541 1.343 . S
C545 C546 1.390 . S
C546 H524 0.930 . S
C546 C543 1.321 . S
C546 C545 1.390 . S
O547 Gd515 2.386 . S
O547 C559 1.265 . S
O548 Gd514 2.353 . S
O548 C559 1.242 . S
O549 Gd514 2.468 . S
O549 C567 1.263 . S
O550 Gd514 2.427 . S
O550 C567 1.252 . S
O551 Gd515 2.307 . S
O551 C560 1.261 . S
O552 Gd514 2.388 . S
O552 C560 1.252 . S
O553 Gd514 2.386 . S
O553 C571 1.265 . S
O554 Gd515 2.353 . S
O554 C571 1.242 . S
O555 Gd515 2.468 . S
O555 C579 1.263 . S
O556 Gd515 2.427 . S
O556 C579 1.252 . S
O557 Gd514 2.307 . S
O557 C572 1.261 . S
O558 Gd515 2.388 . S
O558 C572 1.252 . S
C559 O547 1.265 . S
C559 O548 1.242 . S
C560 O551 1.261 . S
C560 O552 1.252 . S
C561 C564 1.394 . S
C561 C566 1.370 . S
C561 C567 1.500 . S
C562 C565 1.380 1_455 S
C562 C566 1.408 . S
C563 C564 1.396 . S
C563 C565 1.365 1_455 S
C563 H580 0.928 1_455 S
C564 C561 1.394 . S
C564 C563 1.396 . S
C564 H581 0.930 . S
C565 C562 1.380 1_655 S
C565 C563 1.365 1_655 S
C565 H582 0.931 . S
C566 C561 1.370 . S
C566 C562 1.408 . S
C566 H583 0.930 . S
C567 Gd514 2.805 . S
C567 O549 1.263 . S
C567 O550 1.252 . S
C567 C561 1.500 . S
C568 H530 0.930 . S
C568 C544 1.417 . S
C568 C569 1.329 . S
C569 C539 1.437 . S
C569 H540 0.929 . S
C569 C568 1.329 . S
H570 C543 0.931 . S
C571 O553 1.265 . S
C571 O554 1.242 . S
C572 O557 1.261 . S
C572 O558 1.252 . S
C573 C576 1.394 . S
C573 C578 1.370 . S
C573 C579 1.500 . S
C574 C577 1.383 . S
C574 C578 1.395 . S
C575 C576 1.396 . S
C575 C577 1.365 . S
C575 H584 0.929 . S
C576 C573 1.394 . S
C576 C575 1.396 . S
C576 H585 0.930 . S
C577 C574 1.383 . S
C577 C575 1.365 . S
C577 H586 0.931 . S
C578 C573 1.370 . S
C578 C574 1.395 . S
C578 H587 0.930 . S
C579 Gd515 2.805 . S
C579 O555 1.263 . S
C579 O556 1.252 . S
C579 C573 1.500 . S
H580 C563 0.928 1_655 S
H581 C564 0.930 . S
H582 C565 0.931 . S
H583 C566 0.930 . S
H584 C575 0.929 . S
H585 C576 0.930 . S
H586 C577 0.931 . S
H587 C578 0.930 . S
C588 C590 1.422 . S
C588 C592 1.415 . S
C588 N594 1.369 . S
C589 C590 1.421 . S
C589 C591 1.417 1_565 S
C589 C601 1.422 . S
C590 C588 1.422 . S
C590 C589 1.421 . S
C590 N600 1.359 . S
C591 C589 1.417 1_545 S
C591 C593 1.329 1_545 S
C591 H610 0.930 . S
C592 C588 1.415 . S
C592 C593 1.437 . S
C592 C596 1.413 . S
C593 C591 1.329 1_565 S
C593 C592 1.437 . S
C593 H615 0.929 1_565 S
N594 C588 1.369 . S
N594 C595 1.338 . S
N594 Gd599 2.622 . S
C595 N594 1.338 . S
C595 C597 1.378 . S
C595 H607 0.929 . S
C596 C592 1.413 . S
C596 C597 1.348 . S
C596 H612 0.931 . S
C597 C595 1.378 . S
C597 C596 1.348 . S
C597 H613 0.930 . S
Gd598 N618 2.622 . S
Gd598 N625 2.570 . S
Gd598 O632 2.353 . S
Gd598 O633 2.468 . S
Gd598 O634 2.427 . S
Gd598 O636 2.388 . S
Gd598 O637 2.386 . S
Gd598 O641 2.307 . S
Gd598 C651 2.805 . S
Gd599 N594 2.622 . S
Gd599 N600 2.570 . S
Gd599 O631 2.386 . S
Gd599 O635 2.307 . S
Gd599 O638 2.353 . S
Gd599 O639 2.468 . S
Gd599 O640 2.427 . S
Gd599 O642 2.388 . S
Gd599 C663 2.805 . S
N600 C590 1.359 . S
N600 Gd599 2.570 . S
N600 C602 1.343 . S
C601 C589 1.422 . S
C601 C603 1.321 . S
C601 H609 0.931 1_565 S
C602 N600 1.343 . S
C602 C603 1.390 . S
C602 H604 0.931 . S
C603 C601 1.321 . S
C603 C602 1.390 . S
C603 H605 0.930 . S
H604 C602 0.931 . S
H605 C603 0.930 . S
H606 C629 0.931 . S
H607 C595 0.929 . S
H608 C630 0.930 . S
H609 C601 0.931 1_545 S
H610 C591 0.930 . S
H611 C620 0.929 . S
H612 C596 0.931 . S
H613 C597 0.930 . S
H614 C652 0.930 . S
H615 C593 0.929 1_545 S
H616 C621 0.931 . S
H617 C622 0.930 . S
N618 Gd598 2.622 . S
N618 C619 1.369 . S
N618 C620 1.338 . S
C619 N618 1.369 . S
C619 C623 1.415 . S
C619 C626 1.422 . S
C620 H611 0.929 . S
C620 N618 1.338 . S
C620 C622 1.378 . S
C621 H616 0.931 . S
C621 C622 1.348 . S
C621 C623 1.413 . S
C622 H617 0.930 . S
C622 C620 1.378 . S
C622 C621 1.348 . S
C623 C619 1.415 . S
C623 C621 1.413 . S
C623 C653 1.437 . S
H624 C653 0.929 . S
N625 Gd598 2.570 . S
N625 C626 1.359 . S
N625 C629 1.343 . S
C626 C619 1.422 . S
C626 N625 1.359 . S
C626 C628 1.421 . S
C627 C628 1.422 . S
C627 C630 1.321 . S
C627 H654 0.931 . S
C628 C626 1.421 . S
C628 C627 1.422 . S
C628 C652 1.417 . S
C629 H606 0.931 . S
C629 N625 1.343 . S
C629 C630 1.390 . S
C630 H608 0.930 . S
C630 C627 1.321 . S
C630 C629 1.390 . S
O631 Gd599 2.386 . S
O631 C643 1.265 . S
O632 Gd598 2.353 . S
O632 C643 1.242 . S
O633 Gd598 2.468 . S
O633 C651 1.263 . S
O634 Gd598 2.427 . S
O634 C651 1.252 . S
O635 Gd599 2.307 . S
O635 C644 1.261 . S
O636 Gd598 2.388 . S
O636 C644 1.252 . S
O637 Gd598 2.386 . S
O637 C655 1.265 . S
O638 Gd599 2.353 . S
O638 C655 1.242 . S
O639 Gd599 2.468 . S
O639 C663 1.263 . S
O640 Gd599 2.427 . S
O640 C663 1.252 . S
O641 Gd598 2.307 . S
O641 C656 1.261 . S
O642 Gd599 2.388 . S
O642 C656 1.252 . S
C643 O631 1.265 . S
C643 O632 1.242 . S
C644 O635 1.261 . S
C644 O636 1.252 . S
C645 C648 1.394 . S
C645 C650 1.370 . S
C645 C651 1.500 . S
C646 C649 1.383 . S
C646 C650 1.395 . S
C647 C648 1.396 . S
C647 C649 1.365 . S
C647 H664 0.929 . S
C648 C645 1.394 . S
C648 C647 1.396 . S
C648 H665 0.930 . S
C649 C646 1.383 . S
C649 C647 1.365 . S
C649 H666 0.931 . S
C650 C645 1.370 . S
C650 C646 1.395 . S
C650 H667 0.930 . S
C651 Gd598 2.805 . S
C651 O633 1.263 . S
C651 O634 1.252 . S
C651 C645 1.500 . S
C652 H614 0.930 . S
C652 C628 1.417 . S
C652 C653 1.329 . S
C653 C623 1.437 . S
C653 H624 0.929 . S
C653 C652 1.329 . S
H654 C627 0.931 . S
C655 O637 1.265 . S
C655 O638 1.242 . S
C656 O641 1.261 . S
C656 O642 1.252 . S
C657 C660 1.394 . S
C657 C662 1.370 . S
C657 C663 1.500 . S
C658 C661 1.383 . S
C658 C662 1.395 . S
C659 C660 1.396 . S
C659 C661 1.365 . S
C659 H668 0.929 . S
C660 C657 1.394 . S
C660 C659 1.396 . S
C660 H669 0.930 . S
C661 C658 1.383 . S
C661 C659 1.365 . S
C661 H670 0.931 . S
C662 C657 1.370 . S
C662 C658 1.395 . S
C662 H671 0.930 . S
C663 Gd599 2.805 . S
C663 O639 1.263 . S
C663 O640 1.252 . S
C663 C657 1.500 . S
H664 C647 0.929 . S
H665 C648 0.930 . S
H666 C649 0.931 . S
H667 C650 0.930 . S
H668 C659 0.929 . S
H669 C660 0.930 . S
H670 C661 0.931 . S
H671 C662 0.930 . S
C672 C674 1.422 . S
C672 C676 1.415 . S
C672 N678 1.369 . S
C673 C674 1.421 . S
C673 C675 1.417 . S
C673 C685 1.422 . S
C674 C672 1.422 . S
C674 C673 1.421 . S
C674 N684 1.359 . S
C675 C673 1.417 . S
C675 C677 1.329 . S
C675 H694 0.930 . S
C676 C672 1.415 . S
C676 C677 1.437 . S
C676 C680 1.413 . S
C677 C675 1.329 . S
C677 C676 1.437 . S
C677 H699 0.929 . S
N678 C672 1.369 . S
N678 C679 1.338 . S
N678 Gd683 2.622 . S
C679 N678 1.338 . S
C679 C681 1.378 . S
C679 H691 0.929 . S
C680 C676 1.413 . S
C680 C681 1.348 . S
C680 H696 0.931 . S
C681 C679 1.378 . S
C681 C680 1.348 . S
C681 H697 0.930 . S
Gd682 N702 2.622 . S
Gd682 N709 2.570 . S
Gd682 O716 2.353 . S
Gd682 O717 2.468 . S
Gd682 O718 2.427 . S
Gd682 O720 2.388 . S
Gd682 O721 2.386 . S
Gd682 O725 2.307 . S
Gd682 C735 2.805 . S
Gd683 N678 2.622 . S
Gd683 N684 2.570 . S
Gd683 O715 2.386 . S
Gd683 O719 2.307 . S
Gd683 O722 2.353 . S
Gd683 O723 2.468 . S
Gd683 O724 2.427 . S
Gd683 O726 2.388 . S
Gd683 C747 2.805 . S
N684 C674 1.359 . S
N684 Gd683 2.570 . S
N684 C686 1.343 . S
C685 C673 1.422 . S
C685 C687 1.321 . S
C685 H693 0.931 . S
C686 N684 1.343 . S
C686 C687 1.390 . S
C686 H688 0.931 . S
C687 C685 1.321 . S
C687 C686 1.390 . S
C687 H689 0.930 . S
H688 C686 0.931 . S
H689 C687 0.930 . S
H690 C713 0.931 . S
H691 C679 0.929 . S
H692 C714 0.930 . S
H693 C685 0.931 . S
H694 C675 0.930 . S
H695 C704 0.929 . S
H696 C680 0.931 . S
H697 C681 0.930 . S
H698 C736 0.926 1_545 S
H699 C677 0.929 . S
H700 C705 0.931 . S
H701 C706 0.930 . S
N702 Gd682 2.622 . S
N702 C703 1.369 . S
N702 C704 1.338 . S
C703 N702 1.369 . S
C703 C707 1.415 . S
C703 C710 1.422 . S
C704 H695 0.929 . S
C704 N702 1.338 . S
C704 C706 1.378 . S
C705 H700 0.931 . S
C705 C706 1.348 . S
C705 C707 1.413 . S
C706 H701 0.930 . S
C706 C704 1.378 . S
C706 C705 1.348 . S
C707 C703 1.415 . S
C707 C705 1.413 . S
C707 C737 1.437 . S
H708 C737 0.929 . S
N709 Gd682 2.570 . S
N709 C710 1.359 . S
N709 C713 1.343 . S
C710 C703 1.422 . S
C710 N709 1.359 . S
C710 C712 1.421 . S
C711 C712 1.422 . S
C711 C714 1.321 . S
C711 H738 0.931 1_565 S
C712 C710 1.421 . S
C712 C711 1.422 . S
C712 C736 1.417 . S
C713 H690 0.931 . S
C713 N709 1.343 . S
C713 C714 1.390 . S
C714 H692 0.930 . S
C714 C711 1.321 . S
C714 C713 1.390 . S
O715 Gd683 2.386 . S
O715 C727 1.265 . S
O716 Gd682 2.353 . S
O716 C727 1.242 . S
O717 Gd682 2.468 . S
O717 C735 1.263 . S
O718 Gd682 2.427 . S
O718 C735 1.252 . S
O719 Gd683 2.307 . S
O719 C728 1.261 . S
O720 Gd682 2.388 . S
O720 C728 1.252 . S
O721 Gd682 2.386 . S
O721 C739 1.265 . S
O722 Gd683 2.353 . S
O722 C739 1.242 . S
O723 Gd683 2.468 . S
O723 C747 1.263 . S
O724 Gd683 2.427 . S
O724 C747 1.252 . S
O725 Gd682 2.307 . S
O725 C740 1.261 . S
O726 Gd683 2.388 . S
O726 C740 1.252 . S
C727 O715 1.265 . S
C727 O716 1.242 . S
C728 O719 1.261 . S
C728 O720 1.252 . S
C729 C732 1.394 1_565 S
C729 C734 1.370 1_565 S
C729 C735 1.500 . S
C730 C733 1.383 . S
C730 C734 1.395 . S
C731 C732 1.396 . S
C731 C733 1.365 . S
C731 H748 0.929 . S
C732 C729 1.394 1_545 S
C732 C731 1.396 . S
C732 H749 0.930 1_545 S
C733 C730 1.383 . S
C733 C731 1.365 . S
C733 H750 0.931 . S
C734 C729 1.370 1_545 S
C734 C730 1.395 . S
C734 H751 0.930 . S
C735 Gd682 2.805 . S
C735 O717 1.263 . S
C735 O718 1.252 . S
C735 C729 1.500 . S
C736 H698 0.926 1_565 S
C736 C712 1.417 . S
C736 C737 1.334 . S
C737 C707 1.437 . S
C737 H708 0.929 . S
C737 C736 1.334 . S
H738 C711 0.931 1_545 S
C739 O721 1.265 . S
C739 O722 1.242 . S
C740 O725 1.261 . S
C740 O726 1.252 . S
C741 C744 1.394 . S
C741 C746 1.370 . S
C741 C747 1.500 . S
C742 C745 1.383 . S
C742 C746 1.395 . S
C743 C744 1.396 . S
C743 C745 1.365 . S
C743 H752 0.929 . S
C744 C741 1.394 . S
C744 C743 1.396 . S
C744 H753 0.930 . S
C745 C742 1.383 . S
C745 C743 1.365 . S
C745 H754 0.931 . S
C746 C741 1.370 . S
C746 C742 1.395 . S
C746 H755 0.930 . S
C747 Gd683 2.805 . S
C747 O723 1.263 . S
C747 O724 1.252 . S
C747 C741 1.500 . S
H748 C731 0.929 . S
H749 C732 0.930 1_565 S
H750 C733 0.931 . S
H751 C734 0.930 . S
H752 C743 0.929 . S
H753 C744 0.930 . S
H754 C745 0.931 . S
H755 C746 0.930 . S
C756 C758 1.422 . S
C756 C760 1.415 . S
C756 N762 1.369 . S
C757 C758 1.421 . S
C757 C759 1.417 . S
C757 C769 1.422 . S
C758 C756 1.422 . S
C758 C757 1.421 . S
C758 N768 1.359 . S
C759 C757 1.417 . S
C759 C761 1.329 . S
C759 H778 0.930 . S
C760 C756 1.415 . S
C760 C761 1.437 . S
C760 C764 1.413 . S
C761 C759 1.329 . S
C761 C760 1.437 . S
C761 H783 0.929 . S
N762 C756 1.369 . S
N762 C763 1.338 . S
N762 Gd767 2.622 . S
C763 N762 1.338 . S
C763 C765 1.378 . S
C763 H775 0.929 . S
C764 C760 1.413 . S
C764 C765 1.348 . S
C764 H780 0.931 . S
C765 C763 1.378 . S
C765 C764 1.348 . S
C765 H781 0.930 . S
Gd766 N786 2.622 . S
Gd766 N793 2.570 . S
Gd766 O800 2.353 . S
Gd766 O801 2.468 . S
Gd766 O802 2.427 . S
Gd766 O804 2.388 . S
Gd766 O805 2.386 . S
Gd766 O809 2.307 . S
Gd766 C819 2.805 . S
Gd767 N762 2.622 . S
Gd767 N768 2.570 . S
Gd767 O799 2.386 . S
Gd767 O803 2.307 . S
Gd767 O806 2.353 . S
Gd767 O807 2.468 . S
Gd767 O808 2.427 . S
Gd767 O810 2.388 . S
Gd767 C831 2.805 . S
N768 C758 1.359 . S
N768 Gd767 2.570 . S
N768 C770 1.343 . S
C769 C757 1.422 . S
C769 C771 1.321 . S
C769 H777 0.931 . S
C770 N768 1.343 . S
C770 C771 1.390 . S
C770 H772 0.931 . S
C771 C769 1.321 . S
C771 C770 1.390 . S
C771 H773 0.930 . S
H772 C770 0.931 . S
H773 C771 0.930 . S
H774 C797 0.931 . S
H775 C763 0.929 . S
H776 C798 0.930 . S
H777 C769 0.931 . S
H778 C759 0.930 . S
H779 C788 0.929 . S
H780 C764 0.931 . S
H781 C765 0.930 . S
H782 C820 0.930 . S
H783 C761 0.929 . S
H784 C789 0.931 . S
H785 C790 0.930 . S
N786 Gd766 2.622 . S
N786 C787 1.369 . S
N786 C788 1.338 . S
C787 N786 1.369 . S
C787 C791 1.415 . S
C787 C794 1.422 . S
C788 H779 0.929 . S
C788 N786 1.338 . S
C788 C790 1.378 . S
C789 H784 0.931 . S
C789 C790 1.348 . S
C789 C791 1.413 . S
C790 H785 0.930 . S
C790 C788 1.378 . S
C790 C789 1.348 . S
C791 C787 1.415 . S
C791 C789 1.413 . S
C791 C821 1.437 . S
H792 C821 0.929 . S
N793 Gd766 2.570 . S
N793 C794 1.359 . S
N793 C797 1.343 . S
C794 C787 1.422 . S
C794 N793 1.359 . S
C794 C796 1.421 . S
C795 C796 1.422 . S
C795 C798 1.321 . S
C795 H822 0.931 . S
C796 C794 1.421 . S
C796 C795 1.422 . S
C796 C820 1.417 . S
C797 H774 0.931 . S
C797 N793 1.343 . S
C797 C798 1.390 . S
C798 H776 0.930 . S
C798 C795 1.321 . S
C798 C797 1.390 . S
O799 Gd767 2.386 . S
O799 C811 1.265 . S
O800 Gd766 2.353 . S
O800 C811 1.242 . S
O801 Gd766 2.468 . S
O801 C819 1.263 . S
O802 Gd766 2.427 . S
O802 C819 1.252 . S
O803 Gd767 2.307 . S
O803 C812 1.261 . S
O804 Gd766 2.388 . S
O804 C812 1.252 . S
O805 Gd766 2.386 . S
O805 C823 1.265 . S
O806 Gd767 2.353 . S
O806 C823 1.242 . S
O807 Gd767 2.468 . S
O807 C831 1.263 . S
O808 Gd767 2.427 . S
O808 C831 1.252 . S
O809 Gd766 2.307 . S
O809 C824 1.261 . S
O810 Gd767 2.388 . S
O810 C824 1.252 . S
C811 O799 1.265 . S
C811 O800 1.242 . S
C812 O803 1.261 . S
C812 O804 1.252 . S
C813 C816 1.394 . S
C813 C818 1.370 . S
C813 C819 1.500 . S
C814 C817 1.383 . S
C814 C818 1.395 . S
C815 C816 1.396 . S
C815 C817 1.365 . S
C815 H832 0.929 . S
C816 C813 1.394 . S
C816 C815 1.396 . S
C816 H833 0.930 . S
C817 C814 1.383 . S
C817 C815 1.365 . S
C817 H834 0.931 . S
C818 C813 1.370 . S
C818 C814 1.395 . S
C818 H835 0.930 . S
C819 Gd766 2.805 . S
C819 O801 1.263 . S
C819 O802 1.252 . S
C819 C813 1.500 . S
C820 H782 0.930 . S
C820 C796 1.417 . S
C820 C821 1.329 . S
C821 C791 1.437 . S
C821 H792 0.929 . S
C821 C820 1.329 . S
H822 C795 0.931 . S
C823 O805 1.265 . S
C823 O806 1.242 . S
C824 O809 1.261 . S
C824 O810 1.252 . S
C825 C828 1.394 . S
C825 C830 1.370 . S
C825 C831 1.500 . S
C826 C829 1.383 . S
C826 C830 1.395 1_545 S
C827 C828 1.396 . S
C827 C829 1.365 1_565 S
C827 H836 0.929 1_565 S
C828 C825 1.394 . S
C828 C827 1.396 . S
C828 H837 0.930 . S
C829 C826 1.383 . S
C829 C827 1.365 1_545 S
C829 H838 0.931 . S
C830 C825 1.370 . S
C830 C826 1.395 1_565 S
C830 H839 0.930 . S
C831 Gd767 2.805 . S
C831 O807 1.263 . S
C831 O808 1.252 . S
C831 C825 1.500 . S
H832 C815 0.929 . S
H833 C816 0.930 . S
H834 C817 0.931 . S
H835 C818 0.930 . S
H836 C827 0.929 1_545 S
H837 C828 0.930 . S
H838 C829 0.931 . S
H839 C830 0.930 . S
C840 C842 1.422 . S
C840 C844 1.415 . S
C840 N846 1.369 . S
C841 C842 1.421 . S
C841 C843 1.417 . S
C841 C853 1.422 . S
C842 C840 1.422 . S
C842 C841 1.421 . S
C842 N852 1.359 . S
C843 C841 1.417 . S
C843 C845 1.329 . S
C843 H862 0.930 . S
C844 C840 1.415 . S
C844 C845 1.437 . S
C844 C848 1.413 . S
C845 C843 1.329 . S
C845 C844 1.437 . S
C845 H867 0.929 . S
N846 C840 1.369 . S
N846 C847 1.338 . S
N846 Gd851 2.622 . S
C847 N846 1.338 . S
C847 C849 1.378 . S
C847 H859 0.929 . S
C848 C844 1.413 . S
C848 C849 1.348 . S
C848 H864 0.931 . S
C849 C847 1.378 . S
C849 C848 1.348 . S
C849 H865 0.930 . S
Gd850 N870 2.622 . S
Gd850 N877 2.570 . S
Gd850 O884 2.353 . S
Gd850 O885 2.468 . S
Gd850 O886 2.427 . S
Gd850 O888 2.388 . S
Gd850 O889 2.386 . S
Gd850 O893 2.307 . S
Gd850 C903 2.805 . S
Gd851 N846 2.622 . S
Gd851 N852 2.570 . S
Gd851 O883 2.386 . S
Gd851 O887 2.307 . S
Gd851 O890 2.353 . S
Gd851 O891 2.468 . S
Gd851 O892 2.427 . S
Gd851 O894 2.388 . S
Gd851 C915 2.805 . S
N852 C842 1.359 . S
N852 Gd851 2.570 . S
N852 C854 1.343 . S
C853 C841 1.422 . S
C853 C855 1.321 . S
C853 H861 0.931 . S
C854 N852 1.343 . S
C854 C855 1.390 . S
C854 H856 0.931 . S
C855 C853 1.321 . S
C855 C854 1.390 . S
C855 H857 0.930 . S
H856 C854 0.931 . S
H857 C855 0.930 . S
H858 C881 0.931 . S
H859 C847 0.929 . S
H860 C882 0.930 . S
H861 C853 0.931 . S
H862 C843 0.930 . S
H863 C872 0.929 . S
H864 C848 0.931 . S
H865 C849 0.930 . S
H866 C904 0.930 . S
H867 C845 0.929 . S
H868 C873 0.931 . S
H869 C874 0.930 . S
N870 Gd850 2.622 . S
N870 C871 1.369 . S
N870 C872 1.338 . S
C871 N870 1.369 . S
C871 C875 1.415 . S
C871 C878 1.422 . S
C872 H863 0.929 . S
C872 N870 1.338 . S
C872 C874 1.378 . S
C873 H868 0.931 . S
C873 C874 1.348 . S
C873 C875 1.413 . S
C874 H869 0.930 . S
C874 C872 1.378 . S
C874 C873 1.348 . S
C875 C871 1.415 . S
C875 C873 1.413 . S
C875 C905 1.437 1_565 S
H876 C905 0.929 . S
N877 Gd850 2.570 . S
N877 C878 1.359 . S
N877 C881 1.343 . S
C878 C871 1.422 . S
C878 N877 1.359 . S
C878 C880 1.421 . S
C879 C880 1.422 . S
C879 C882 1.320 . S
C879 H906 0.932 1_565 S
C880 C878 1.421 . S
C880 C879 1.422 . S
C880 C904 1.417 1_565 S
C881 H858 0.931 . S
C881 N877 1.343 . S
C881 C882 1.390 . S
C882 H860 0.930 . S
C882 C879 1.320 . S
C882 C881 1.390 . S
O883 Gd851 2.386 . S
O883 C895 1.265 . S
O884 Gd850 2.353 . S
O884 C895 1.242 . S
O885 Gd850 2.468 . S
O885 C903 1.263 . S
O886 Gd850 2.427 . S
O886 C903 1.252 . S
O887 Gd851 2.307 . S
O887 C896 1.261 . S
O888 Gd850 2.388 . S
O888 C896 1.252 . S
O889 Gd850 2.386 . S
O889 C907 1.265 . S
O890 Gd851 2.353 . S
O890 C907 1.242 . S
O891 Gd851 2.468 . S
O891 C915 1.263 . S
O892 Gd851 2.427 . S
O892 C915 1.252 . S
O893 Gd850 2.307 . S
O893 C908 1.261 . S
O894 Gd851 2.388 . S
O894 C908 1.252 . S
C895 O883 1.265 . S
C895 O884 1.242 . S
C896 O887 1.261 . S
C896 O888 1.252 . S
C897 C900 1.394 . S
C897 C902 1.370 . S
C897 C903 1.500 . S
C898 C901 1.383 . S
C898 C902 1.395 . S
C899 C900 1.396 . S
C899 C901 1.365 . S
C899 H916 0.929 . S
C900 C897 1.394 . S
C900 C899 1.396 . S
C900 H917 0.930 . S
C901 C898 1.383 . S
C901 C899 1.365 . S
C901 H918 0.931 . S
C902 C897 1.370 . S
C902 C898 1.395 . S
C902 H919 0.930 . S
C903 Gd850 2.805 . S
C903 O885 1.263 . S
C903 O886 1.252 . S
C903 C897 1.500 . S
C904 H866 0.930 . S
C904 C880 1.417 1_545 S
C904 C905 1.329 . S
C905 C875 1.437 1_545 S
C905 H876 0.929 . S
C905 C904 1.329 . S
H906 C879 0.932 1_545 S
C907 O889 1.265 . S
C907 O890 1.242 . S
C908 O893 1.261 . S
C908 O894 1.252 . S
C909 C912 1.394 . S
C909 C914 1.370 . S
C909 C915 1.500 . S
C910 C913 1.383 . S
C910 C914 1.395 . S
C911 C912 1.396 . S
C911 C913 1.365 . S
C911 H920 0.929 . S
C912 C909 1.394 . S
C912 C911 1.396 . S
C912 H921 0.930 . S
C913 C910 1.383 . S
C913 C911 1.365 . S
C913 H922 0.931 . S
C914 C909 1.370 . S
C914 C910 1.395 . S
C914 H923 0.930 . S
C915 Gd851 2.805 . S
C915 O891 1.263 . S
C915 O892 1.252 . S
C915 C909 1.500 . S
H916 C899 0.929 . S
H917 C900 0.930 . S
H918 C901 0.931 . S
H919 C902 0.930 . S
H920 C911 0.929 . S
H921 C912 0.930 . S
H922 C913 0.931 . S
H923 C914 0.930 . S
C924 C926 1.422 . S
C924 C928 1.415 . S
C924 N930 1.369 . S
C925 C926 1.421 . S
C925 C927 1.417 . S
C925 C937 1.422 . S
C926 C924 1.422 . S
C926 C925 1.421 . S
C926 N936 1.359 . S
C927 C925 1.417 . S
C927 C929 1.329 . S
C927 H946 0.930 . S
C928 C924 1.415 . S
C928 C929 1.437 . S
C928 C932 1.413 . S
C929 C927 1.329 . S
C929 C928 1.437 . S
C929 H951 0.929 . S
N930 C924 1.369 . S
N930 C931 1.338 . S
N930 Gd935 2.622 . S
C931 N930 1.338 . S
C931 C933 1.378 . S
C931 H943 0.929 . S
C932 C928 1.413 . S
C932 C933 1.348 . S
C932 H948 0.931 . S
C933 C931 1.378 . S
C933 C932 1.348 . S
C933 H949 0.930 . S
Gd934 N954 2.622 . S
Gd934 N961 2.570 . S
Gd934 O968 2.353 . S
Gd934 O969 2.468 . S
Gd934 O970 2.427 . S
Gd934 O972 2.388 . S
Gd934 O973 2.386 . S
Gd934 O977 2.307 . S
Gd934 C987 2.805 . S
Gd935 N930 2.622 . S
Gd935 N936 2.570 . S
Gd935 O967 2.386 . S
Gd935 O971 2.307 . S
Gd935 O974 2.353 . S
Gd935 O975 2.468 . S
Gd935 O976 2.427 . S
Gd935 O978 2.388 . S
Gd935 C999 2.805 . S
N936 C926 1.359 . S
N936 Gd935 2.570 . S
N936 C938 1.343 . S
C937 C925 1.422 . S
C937 C939 1.321 . S
C937 H945 0.931 . S
C938 N936 1.343 . S
C938 C939 1.390 . S
C938 H940 0.931 . S
C939 C937 1.321 . S
C939 C938 1.390 . S
C939 H941 0.930 . S
H940 C938 0.931 . S
H941 C939 0.930 . S
H942 C965 0.931 . S
H943 C931 0.929 . S
H944 C966 0.930 . S
H945 C937 0.931 . S
H946 C927 0.930 . S
H947 C956 0.929 . S
H948 C932 0.931 . S
H949 C933 0.930 . S
H950 C988 0.930 . S
H951 C929 0.929 . S
H952 C957 0.931 . S
H953 C958 0.930 . S
N954 Gd934 2.622 . S
N954 C955 1.369 . S
N954 C956 1.338 . S
C955 N954 1.369 . S
C955 C959 1.415 . S
C955 C962 1.422 . S
C956 H947 0.929 . S
C956 N954 1.338 . S
C956 C958 1.378 . S
C957 H952 0.931 . S
C957 C958 1.348 . S
C957 C959 1.413 . S
C958 H953 0.930 . S
C958 C956 1.378 . S
C958 C957 1.348 . S
C959 C955 1.415 . S
C959 C957 1.413 . S
C959 C989 1.437 . S
H960 C989 0.929 . S
N961 Gd934 2.570 . S
N961 C962 1.359 . S
N961 C965 1.343 . S
C962 C955 1.422 . S
C962 N961 1.359 . S
C962 C964 1.421 . S
C963 C964 1.422 . S
C963 C966 1.321 . S
C963 H990 0.931 . S
C964 C962 1.421 . S
C964 C963 1.422 . S
C964 C988 1.417 . S
C965 H942 0.931 . S
C965 N961 1.343 . S
C965 C966 1.390 . S
C966 H944 0.930 . S
C966 C963 1.321 . S
C966 C965 1.390 . S
O967 Gd935 2.386 . S
O967 C979 1.265 . S
O968 Gd934 2.353 . S
O968 C979 1.242 . S
O969 Gd934 2.468 . S
O969 C987 1.263 . S
O970 Gd934 2.427 . S
O970 C987 1.252 . S
O971 Gd935 2.307 . S
O971 C980 1.261 . S
O972 Gd934 2.388 . S
O972 C980 1.252 . S
O973 Gd934 2.386 . S
O973 C991 1.265 . S
O974 Gd935 2.353 . S
O974 C991 1.242 . S
O975 Gd935 2.468 . S
O975 C999 1.263 . S
O976 Gd935 2.427 . S
O976 C999 1.252 . S
O977 Gd934 2.307 . S
O977 C992 1.261 . S
O978 Gd935 2.388 . S
O978 C992 1.252 . S
C979 O967 1.265 . S
C979 O968 1.242 . S
C980 O971 1.261 . S
C980 O972 1.252 . S
C981 C984 1.394 . S
C981 C986 1.370 . S
C981 C987 1.500 . S
C982 C985 1.383 . S
C982 C986 1.395 . S
C983 C984 1.396 . S
C983 C985 1.365 . S
C983 H1000 0.929 . S
C984 C981 1.394 . S
C984 C983 1.396 . S
C984 H1001 0.930 . S
C985 C982 1.383 . S
C985 C983 1.365 . S
C985 H1002 0.931 . S
C986 C981 1.370 . S
C986 C982 1.395 . S
C986 H1003 0.930 . S
C987 Gd934 2.805 . S
C987 O969 1.263 . S
C987 O970 1.252 . S
C987 C981 1.500 . S
C988 H950 0.930 . S
C988 C964 1.417 . S
C988 C989 1.329 . S
C989 C959 1.437 . S
C989 H960 0.929 . S
C989 C988 1.329 . S
H990 C963 0.931 . S
C991 O973 1.265 . S
C991 O974 1.242 . S
C992 O977 1.261 . S
C992 O978 1.252 . S
C993 C996 1.394 . S
C993 C998 1.370 . S
C993 C999 1.500 . S
C994 C997 1.383 . S
C994 C998 1.395 . S
C995 C996 1.396 . S
C995 C997 1.365 . S
C995 H1004 0.929 . S
C996 C993 1.394 . S
C996 C995 1.396 . S
C996 H1005 0.930 . S
C997 C994 1.383 . S
C997 C995 1.365 . S
C997 H1006 0.931 . S
C998 C993 1.370 . S
C998 C994 1.395 . S
C998 H1007 0.930 . S
C999 Gd935 2.805 . S
C999 O975 1.263 . S
C999 O976 1.252 . S
C999 C993 1.500 . S
H1000 C983 0.929 . S
H1001 C984 0.930 . S
H1002 C985 0.931 . S
H1003 C986 0.930 . S
H1004 C995 0.929 . S
H1005 C996 0.930 . S
H1006 C997 0.931 . S
H1007 C998 0.930 . S
C1008 C1010 1.422 . S
C1008 C1012 1.415 . S
C1008 N1014 1.369 . S
C1009 C1010 1.421 . S
C1009 C1011 1.417 . S
C1009 C1021 1.422 . S
C1010 C1008 1.422 . S
C1010 C1009 1.421 . S
C1010 N1020 1.359 . S
C1011 C1009 1.417 . S
C1011 C1013 1.329 . S
C1011 H1030 0.930 . S
C1012 C1008 1.415 . S
C1012 C1013 1.437 . S
C1012 C1016 1.413 . S
C1013 C1011 1.329 . S
C1013 C1012 1.437 . S
C1013 H1035 0.929 . S
N1014 C1008 1.369 . S
N1014 C1015 1.338 . S
N1014 Gd1019 2.622 . S
C1015 N1014 1.338 . S
C1015 C1017 1.378 . S
C1015 H1027 0.929 . S
C1016 C1012 1.413 . S
C1016 C1017 1.348 . S
C1016 H1032 0.931 . S
C1017 C1015 1.378 . S
C1017 C1016 1.348 . S
C1017 H1033 0.930 . S
Gd1018 N1038 2.622 . S
Gd1018 N1045 2.570 . S
Gd1018 O1052 2.353 . S
Gd1018 O1053 2.468 . S
Gd1018 O1054 2.427 . S
Gd1018 O1056 2.388 . S
Gd1018 O1057 2.386 . S
Gd1018 O1061 2.307 . S
Gd1018 C1071 2.805 . S
Gd1019 N1014 2.622 . S
Gd1019 N1020 2.570 . S
Gd1019 O1051 2.386 . S
Gd1019 O1055 2.307 . S
Gd1019 O1058 2.353 . S
Gd1019 O1059 2.468 . S
Gd1019 O1060 2.427 . S
Gd1019 O1062 2.388 . S
Gd1019 C1083 2.805 . S
N1020 C1010 1.359 . S
N1020 Gd1019 2.570 . S
N1020 C1022 1.343 . S
C1021 C1009 1.422 . S
C1021 C1023 1.321 . S
C1021 H1029 0.931 . S
C1022 N1020 1.343 . S
C1022 C1023 1.390 . S
C1022 H1024 0.931 . S
C1023 C1021 1.321 . S
C1023 C1022 1.390 . S
C1023 H1025 0.930 . S
H1024 C1022 0.931 . S
H1025 C1023 0.930 . S
H1026 C1049 0.931 . S
H1027 C1015 0.929 . S
H1028 C1050 0.930 . S
H1029 C1021 0.931 . S
H1030 C1011 0.930 . S
H1031 C1040 0.929 . S
H1032 C1016 0.931 . S
H1033 C1017 0.930 . S
H1034 C1072 0.930 . S
H1035 C1013 0.929 . S
H1036 C1041 0.931 . S
H1037 C1042 0.930 . S
N1038 Gd1018 2.622 . S
N1038 C1039 1.369 . S
N1038 C1040 1.338 . S
C1039 N1038 1.369 . S
C1039 C1043 1.415 . S
C1039 C1046 1.422 . S
C1040 H1031 0.929 . S
C1040 N1038 1.338 . S
C1040 C1042 1.378 . S
C1041 H1036 0.931 . S
C1041 C1042 1.348 . S
C1041 C1043 1.413 . S
C1042 H1037 0.930 . S
C1042 C1040 1.378 . S
C1042 C1041 1.348 . S
C1043 C1039 1.415 . S
C1043 C1041 1.413 . S
C1043 C1073 1.437 . S
H1044 C1073 0.929 . S
N1045 Gd1018 2.570 . S
N1045 C1046 1.359 . S
N1045 C1049 1.343 . S
C1046 C1039 1.422 . S
C1046 N1045 1.359 . S
C1046 C1048 1.421 . S
C1047 C1048 1.422 . S
C1047 C1050 1.321 . S
C1047 H1074 0.931 . S
C1048 C1046 1.421 . S
C1048 C1047 1.422 . S
C1048 C1072 1.417 . S
C1049 H1026 0.931 . S
C1049 N1045 1.343 . S
C1049 C1050 1.390 . S
C1050 H1028 0.930 . S
C1050 C1047 1.321 . S
C1050 C1049 1.390 . S
O1051 Gd1019 2.386 . S
O1051 C1063 1.265 . S
O1052 Gd1018 2.353 . S
O1052 C1063 1.242 . S
O1053 Gd1018 2.468 . S
O1053 C1071 1.263 . S
O1054 Gd1018 2.427 . S
O1054 C1071 1.252 . S
O1055 Gd1019 2.307 . S
O1055 C1064 1.261 . S
O1056 Gd1018 2.388 . S
O1056 C1064 1.252 . S
O1057 Gd1018 2.386 . S
O1057 C1075 1.265 . S
O1058 Gd1019 2.353 . S
O1058 C1075 1.242 . S
O1059 Gd1019 2.468 . S
O1059 C1083 1.263 . S
O1060 Gd1019 2.427 . S
O1060 C1083 1.252 . S
O1061 Gd1018 2.307 . S
O1061 C1076 1.261 . S
O1062 Gd1019 2.388 . S
O1062 C1076 1.252 . S
C1063 O1051 1.265 . S
C1063 O1052 1.242 . S
C1064 O1055 1.261 . S
C1064 O1056 1.252 . S
C1065 C1068 1.394 . S
C1065 C1070 1.370 . S
C1065 C1071 1.500 . S
C1066 C1069 1.383 . S
C1066 C1070 1.395 . S
C1067 C1068 1.396 . S
C1067 C1069 1.365 . S
C1067 H1084 0.929 . S
C1068 C1065 1.394 . S
C1068 C1067 1.396 . S
C1068 H1085 0.930 . S
C1069 C1066 1.383 . S
C1069 C1067 1.365 . S
C1069 H1086 0.931 . S
C1070 C1065 1.370 . S
C1070 C1066 1.395 . S
C1070 H1087 0.930 . S
C1071 Gd1018 2.805 . S
C1071 O1053 1.263 . S
C1071 O1054 1.252 . S
C1071 C1065 1.500 . S
C1072 H1034 0.930 . S
C1072 C1048 1.417 . S
C1072 C1073 1.329 . S
C1073 C1043 1.437 . S
C1073 H1044 0.929 . S
C1073 C1072 1.329 . S
H1074 C1047 0.931 . S
C1075 O1057 1.265 . S
C1075 O1058 1.242 . S
C1076 O1061 1.261 . S
C1076 O1062 1.252 . S
C1077 C1080 1.394 . S
C1077 C1082 1.370 . S
C1077 C1083 1.500 . S
C1078 C1081 1.383 . S
C1078 C1082 1.395 1_455 S
C1079 C1080 1.396 . S
C1079 C1081 1.365 1_655 S
C1079 H1088 0.929 1_655 S
C1080 C1077 1.394 . S
C1080 C1079 1.396 . S
C1080 H1089 0.930 . S
C1081 C1078 1.383 . S
C1081 C1079 1.365 1_455 S
C1081 H1090 0.931 . S
C1082 C1077 1.370 . S
C1082 C1078 1.395 1_655 S
C1082 H1091 0.930 . S
C1083 Gd1019 2.805 . S
C1083 O1059 1.263 . S
C1083 O1060 1.252 . S
C1083 C1077 1.500 . S
H1084 C1067 0.929 . S
H1085 C1068 0.930 . S
H1086 C1069 0.931 . S
H1087 C1070 0.930 . S
H1088 C1079 0.929 1_455 S
H1089 C1080 0.930 . S
H1090 C1081 0.931 . S
H1091 C1082 0.930 . S
C1092 C1094 1.422 . S
C1092 C1096 1.415 . S
C1092 N1098 1.369 . S
C1093 C1094 1.421 . S
C1093 C1095 1.417 . S
C1093 C1105 1.422 . S
C1094 C1092 1.422 . S
C1094 C1093 1.421 . S
C1094 N1104 1.359 . S
C1095 C1093 1.417 . S
C1095 C1097 1.329 . S
C1095 H1114 0.930 . S
C1096 C1092 1.415 . S
C1096 C1097 1.437 . S
C1096 C1100 1.413 . S
C1097 C1095 1.329 . S
C1097 C1096 1.437 . S
C1097 H1119 0.929 . S
N1098 C1092 1.369 . S
N1098 C1099 1.338 . S
N1098 Gd1103 2.622 . S
C1099 N1098 1.338 . S
C1099 C1101 1.378 . S
C1099 H1111 0.929 . S
C1100 C1096 1.413 . S
C1100 C1101 1.348 . S
C1100 H1116 0.931 . S
C1101 C1099 1.378 . S
C1101 C1100 1.348 . S
C1101 H1117 0.930 . S
Gd1102 N1122 2.622 . S
Gd1102 N1129 2.570 . S
Gd1102 O1136 2.353 . S
Gd1102 O1137 2.468 . S
Gd1102 O1138 2.427 . S
Gd1102 O1140 2.388 . S
Gd1102 O1141 2.386 . S
Gd1102 O1145 2.307 . S
Gd1102 C1155 2.805 . S
Gd1103 N1098 2.622 . S
Gd1103 N1104 2.570 . S
Gd1103 O1135 2.386 . S
Gd1103 O1139 2.307 . S
Gd1103 O1142 2.353 . S
Gd1103 O1143 2.468 . S
Gd1103 O1144 2.427 . S
Gd1103 O1146 2.388 . S
Gd1103 C1167 2.805 . S
N1104 C1094 1.359 . S
N1104 Gd1103 2.570 . S
N1104 C1106 1.343 . S
C1105 C1093 1.422 . S
C1105 C1107 1.321 . S
C1105 H1113 0.931 . S
C1106 N1104 1.343 . S
C1106 C1107 1.390 . S
C1106 H1108 0.931 . S
C1107 C1105 1.321 . S
C1107 C1106 1.390 . S
C1107 H1109 0.930 . S
H1108 C1106 0.931 . S
H1109 C1107 0.930 . S
H1110 C1133 0.931 . S
H1111 C1099 0.929 . S
H1112 C1134 0.930 . S
H1113 C1105 0.931 . S
H1114 C1095 0.930 . S
H1115 C1124 0.929 . S
H1116 C1100 0.931 . S
H1117 C1101 0.930 . S
H1118 C1156 0.930 . S
H1119 C1097 0.929 . S
H1120 C1125 0.931 . S
H1121 C1126 0.930 . S
N1122 Gd1102 2.622 . S
N1122 C1123 1.369 . S
N1122 C1124 1.338 . S
C1123 N1122 1.369 . S
C1123 C1127 1.415 . S
C1123 C1130 1.422 . S
C1124 H1115 0.929 . S
C1124 N1122 1.338 . S
C1124 C1126 1.378 . S
C1125 H1120 0.931 . S
C1125 C1126 1.348 . S
C1125 C1127 1.413 . S
C1126 H1121 0.930 . S
C1126 C1124 1.378 . S
C1126 C1125 1.348 . S
C1127 C1123 1.415 . S
C1127 C1125 1.413 . S
C1127 C1157 1.437 . S
H1128 C1157 0.929 . S
N1129 Gd1102 2.570 . S
N1129 C1130 1.359 . S
N1129 C1133 1.343 . S
C1130 C1123 1.422 . S
C1130 N1129 1.359 . S
C1130 C1132 1.421 . S
C1131 C1132 1.422 . S
C1131 C1134 1.321 . S
C1131 H1158 0.931 . S
C1132 C1130 1.421 . S
C1132 C1131 1.422 . S
C1132 C1156 1.417 . S
C1133 H1110 0.931 . S
C1133 N1129 1.343 . S
C1133 C1134 1.390 . S
C1134 H1112 0.930 . S
C1134 C1131 1.321 . S
C1134 C1133 1.390 . S
O1135 Gd1103 2.386 . S
O1135 C1147 1.265 . S
O1136 Gd1102 2.353 . S
O1136 C1147 1.242 . S
O1137 Gd1102 2.468 . S
O1137 C1155 1.263 . S
O1138 Gd1102 2.427 . S
O1138 C1155 1.252 . S
O1139 Gd1103 2.307 . S
O1139 C1148 1.261 . S
O1140 Gd1102 2.388 . S
O1140 C1148 1.252 . S
O1141 Gd1102 2.386 . S
O1141 C1159 1.265 . S
O1142 Gd1103 2.353 . S
O1142 C1159 1.242 . S
O1143 Gd1103 2.468 . S
O1143 C1167 1.263 . S
O1144 Gd1103 2.427 . S
O1144 C1167 1.252 . S
O1145 Gd1102 2.307 . S
O1145 C1160 1.261 . S
O1146 Gd1103 2.388 . S
O1146 C1160 1.252 . S
C1147 O1135 1.265 . S
C1147 O1136 1.242 . S
C1148 O1139 1.261 . S
C1148 O1140 1.252 . S
C1149 C1152 1.394 . S
C1149 C1154 1.370 . S
C1149 C1155 1.500 . S
C1150 C1153 1.383 . S
C1150 C1154 1.395 . S
C1151 C1152 1.396 . S
C1151 C1153 1.365 . S
C1151 H1168 0.929 . S
C1152 C1149 1.394 . S
C1152 C1151 1.396 . S
C1152 H1169 0.930 . S
C1153 C1150 1.383 . S
C1153 C1151 1.365 . S
C1153 H1170 0.931 . S
C1154 C1149 1.370 . S
C1154 C1150 1.395 . S
C1154 H1171 0.930 . S
C1155 Gd1102 2.805 . S
C1155 O1137 1.263 . S
C1155 O1138 1.252 . S
C1155 C1149 1.500 . S
C1156 H1118 0.930 . S
C1156 C1132 1.417 . S
C1156 C1157 1.329 . S
C1157 C1127 1.437 . S
C1157 H1128 0.929 . S
C1157 C1156 1.329 . S
H1158 C1131 0.931 . S
C1159 O1141 1.265 . S
C1159 O1142 1.242 . S
C1160 O1145 1.261 . S
C1160 O1146 1.252 . S
C1161 C1164 1.394 . S
C1161 C1166 1.370 . S
C1161 C1167 1.500 . S
C1162 C1165 1.383 . S
C1162 C1166 1.395 . S
C1163 C1164 1.396 . S
C1163 C1165 1.365 . S
C1163 H1172 0.929 . S
C1164 C1161 1.394 . S
C1164 C1163 1.396 . S
C1164 H1173 0.930 . S
C1165 C1162 1.383 . S
C1165 C1163 1.365 . S
C1165 H1174 0.931 . S
C1166 C1161 1.370 . S
C1166 C1162 1.395 . S
C1166 H1175 0.930 . S
C1167 Gd1103 2.805 . S
C1167 O1143 1.263 . S
C1167 O1144 1.252 . S
C1167 C1161 1.500 . S
H1168 C1151 0.929 . S
H1169 C1152 0.930 . S
H1170 C1153 0.931 . S
H1171 C1154 0.930 . S
H1172 C1163 0.929 . S
H1173 C1164 0.930 . S
H1174 C1165 0.931 . S
H1175 C1166 0.930 . S
C1176 C1178 1.422 . S
C1176 C1180 1.415 . S
C1176 N1182 1.369 . S
C1177 C1178 1.421 . S
C1177 C1179 1.417 . S
C1177 C1189 1.422 . S
C1178 C1176 1.422 . S
C1178 C1177 1.421 . S
C1178 N1188 1.359 . S
C1179 C1177 1.417 . S
C1179 C1181 1.329 . S
C1179 H1198 0.930 . S
C1180 C1176 1.415 . S
C1180 C1181 1.437 . S
C1180 C1184 1.413 . S
C1181 C1179 1.329 . S
C1181 C1180 1.437 . S
C1181 H1203 0.929 . S
N1182 C1176 1.369 . S
N1182 C1183 1.338 . S
N1182 Gd1187 2.622 . S
C1183 N1182 1.338 . S
C1183 C1185 1.378 . S
C1183 H1195 0.929 . S
C1184 C1180 1.413 . S
C1184 C1185 1.348 . S
C1184 H1200 0.931 . S
C1185 C1183 1.378 . S
C1185 C1184 1.348 . S
C1185 H1201 0.930 . S
Gd1186 N1206 2.622 . S
Gd1186 N1213 2.570 . S
Gd1186 O1220 2.353 . S
Gd1186 O1221 2.468 . S
Gd1186 O1222 2.427 . S
Gd1186 O1224 2.388 . S
Gd1186 O1225 2.386 . S
Gd1186 O1229 2.307 . S
Gd1186 C1239 2.805 . S
Gd1187 N1182 2.622 . S
Gd1187 N1188 2.570 . S
Gd1187 O1219 2.386 . S
Gd1187 O1223 2.307 . S
Gd1187 O1226 2.353 . S
Gd1187 O1227 2.468 . S
Gd1187 O1228 2.427 . S
Gd1187 O1230 2.388 . S
Gd1187 C1251 2.805 . S
N1188 C1178 1.359 . S
N1188 Gd1187 2.570 . S
N1188 C1190 1.343 . S
C1189 C1177 1.422 . S
C1189 C1191 1.321 . S
C1189 H1197 0.931 . S
C1190 N1188 1.343 . S
C1190 C1191 1.390 . S
C1190 H1192 0.931 . S
C1191 C1189 1.321 . S
C1191 C1190 1.390 . S
C1191 H1193 0.930 . S
H1192 C1190 0.931 . S
H1193 C1191 0.930 . S
H1194 C1217 0.931 . S
H1195 C1183 0.929 . S
H1196 C1218 0.930 . S
H1197 C1189 0.931 . S
H1198 C1179 0.930 . S
H1199 C1208 0.929 . S
H1200 C1184 0.931 . S
H1201 C1185 0.930 . S
H1202 C1240 0.930 . S
H1203 C1181 0.929 . S
H1204 C1209 0.931 . S
H1205 C1210 0.930 . S
N1206 Gd1186 2.622 . S
N1206 C1207 1.369 . S
N1206 C1208 1.338 . S
C1207 N1206 1.369 . S
C1207 C1211 1.415 . S
C1207 C1214 1.422 . S
C1208 H1199 0.929 . S
C1208 N1206 1.338 . S
C1208 C1210 1.378 . S
C1209 H1204 0.931 . S
C1209 C1210 1.348 . S
C1209 C1211 1.413 . S
C1210 H1205 0.930 . S
C1210 C1208 1.378 . S
C1210 C1209 1.348 . S
C1211 C1207 1.415 . S
C1211 C1209 1.413 . S
C1211 C1241 1.437 1_655 S
H1212 C1241 0.929 . S
N1213 Gd1186 2.570 . S
N1213 C1214 1.359 . S
N1213 C1217 1.343 . S
C1214 C1207 1.422 . S
C1214 N1213 1.359 . S
C1214 C1216 1.421 . S
C1215 C1216 1.422 . S
C1215 C1218 1.320 . S
C1215 H1242 0.932 1_655 S
C1216 C1214 1.421 . S
C1216 C1215 1.422 . S
C1216 C1240 1.417 1_655 S
C1217 H1194 0.931 . S
C1217 N1213 1.343 . S
C1217 C1218 1.390 . S
C1218 H1196 0.930 . S
C1218 C1215 1.320 . S
C1218 C1217 1.390 . S
O1219 Gd1187 2.386 . S
O1219 C1231 1.265 . S
O1220 Gd1186 2.353 . S
O1220 C1231 1.242 . S
O1221 Gd1186 2.468 . S
O1221 C1239 1.263 . S
O1222 Gd1186 2.427 . S
O1222 C1239 1.252 . S
O1223 Gd1187 2.307 . S
O1223 C1232 1.261 . S
O1224 Gd1186 2.388 . S
O1224 C1232 1.252 . S
O1225 Gd1186 2.386 . S
O1225 C1243 1.265 . S
O1226 Gd1187 2.353 . S
O1226 C1243 1.242 . S
O1227 Gd1187 2.468 . S
O1227 C1251 1.263 . S
O1228 Gd1187 2.427 . S
O1228 C1251 1.252 . S
O1229 Gd1186 2.307 . S
O1229 C1244 1.261 . S
O1230 Gd1187 2.388 . S
O1230 C1244 1.252 . S
C1231 O1219 1.265 . S
C1231 O1220 1.242 . S
C1232 O1223 1.261 . S
C1232 O1224 1.252 . S
C1233 C1236 1.394 . S
C1233 C1238 1.370 . S
C1233 C1239 1.500 . S
C1234 C1237 1.383 . S
C1234 C1238 1.395 . S
C1235 C1236 1.396 . S
C1235 C1237 1.365 . S
C1235 H1252 0.929 . S
C1236 C1233 1.394 . S
C1236 C1235 1.396 . S
C1236 H1253 0.930 . S
C1237 C1234 1.383 . S
C1237 C1235 1.365 . S
C1237 H1254 0.931 . S
C1238 C1233 1.370 . S
C1238 C1234 1.395 . S
C1238 H1255 0.930 . S
C1239 Gd1186 2.805 . S
C1239 O1221 1.263 . S
C1239 O1222 1.252 . S
C1239 C1233 1.500 . S
C1240 H1202 0.930 . S
C1240 C1216 1.417 1_455 S
C1240 C1241 1.329 . S
C1241 C1211 1.437 1_455 S
C1241 H1212 0.929 . S
C1241 C1240 1.329 . S
H1242 C1215 0.932 1_455 S
C1243 O1225 1.265 . S
C1243 O1226 1.242 . S
C1244 O1229 1.261 . S
C1244 O1230 1.252 . S
C1245 C1248 1.394 . S
C1245 C1250 1.370 . S
C1245 C1251 1.500 . S
C1246 C1249 1.383 . S
C1246 C1250 1.395 . S
C1247 C1248 1.396 . S
C1247 C1249 1.365 . S
C1247 H1256 0.929 . S
C1248 C1245 1.394 . S
C1248 C1247 1.396 . S
C1248 H1257 0.930 . S
C1249 C1246 1.383 . S
C1249 C1247 1.365 . S
C1249 H1258 0.931 . S
C1250 C1245 1.370 . S
C1250 C1246 1.395 . S
C1250 H1259 0.930 . S
C1251 Gd1187 2.805 . S
C1251 O1227 1.263 . S
C1251 O1228 1.252 . S
C1251 C1245 1.500 . S
H1252 C1235 0.929 . S
H1253 C1236 0.930 . S
H1254 C1237 0.931 . S
H1255 C1238 0.930 . S
H1256 C1247 0.929 . S
H1257 C1248 0.930 . S
H1258 C1249 0.931 . S
H1259 C1250 0.930 . S
C1260 C1262 1.422 . S
C1260 C1264 1.415 . S
C1260 N1266 1.369 . S
C1261 C1262 1.421 . S
C1261 C1263 1.417 . S
C1261 C1273 1.422 . S
C1262 C1260 1.422 . S
C1262 C1261 1.421 . S
C1262 N1272 1.359 . S
C1263 C1261 1.417 . S
C1263 C1265 1.329 . S
C1263 H1282 0.930 . S
C1264 C1260 1.415 . S
C1264 C1265 1.437 . S
C1264 C1268 1.413 . S
C1265 C1263 1.329 . S
C1265 C1264 1.437 . S
C1265 H1287 0.929 . S
N1266 C1260 1.369 . S
N1266 C1267 1.338 . S
N1266 Gd1271 2.622 . S
C1267 N1266 1.338 . S
C1267 C1269 1.378 . S
C1267 H1279 0.929 . S
C1268 C1264 1.413 . S
C1268 C1269 1.348 . S
C1268 H1284 0.931 . S
C1269 C1267 1.378 . S
C1269 C1268 1.348 . S
C1269 H1285 0.930 . S
Gd1270 N1290 2.622 . S
Gd1270 N1297 2.570 . S
Gd1270 O1304 2.353 . S
Gd1270 O1305 2.468 . S
Gd1270 O1306 2.427 . S
Gd1270 O1308 2.388 . S
Gd1270 O1309 2.386 . S
Gd1270 O1313 2.307 . S
Gd1270 C1323 2.805 . S
Gd1271 N1266 2.622 . S
Gd1271 N1272 2.570 . S
Gd1271 O1303 2.386 . S
Gd1271 O1307 2.307 . S
Gd1271 O1310 2.353 . S
Gd1271 O1311 2.468 . S
Gd1271 O1312 2.427 . S
Gd1271 O1314 2.388 . S
Gd1271 C1335 2.805 . S
N1272 C1262 1.359 . S
N1272 Gd1271 2.570 . S
N1272 C1274 1.343 . S
C1273 C1261 1.422 . S
C1273 C1275 1.321 . S
C1273 H1281 0.931 . S
C1274 N1272 1.343 . S
C1274 C1275 1.390 . S
C1274 H1276 0.931 . S
C1275 C1273 1.321 . S
C1275 C1274 1.390 . S
C1275 H1277 0.930 . S
H1276 C1274 0.931 . S
H1277 C1275 0.930 . S
H1278 C1301 0.931 . S
H1279 C1267 0.929 . S
H1280 C1302 0.930 . S
H1281 C1273 0.931 . S
H1282 C1263 0.930 . S
H1283 C1292 0.929 . S
H1284 C1268 0.931 . S
H1285 C1269 0.930 . S
H1286 C1324 0.930 . S
H1287 C1265 0.929 . S
H1288 C1293 0.931 . S
H1289 C1294 0.930 . S
N1290 Gd1270 2.622 . S
N1290 C1291 1.369 . S
N1290 C1292 1.338 . S
C1291 N1290 1.369 . S
C1291 C1295 1.415 . S
C1291 C1298 1.422 . S
C1292 H1283 0.929 . S
C1292 N1290 1.338 . S
C1292 C1294 1.378 . S
C1293 H1288 0.931 . S
C1293 C1294 1.348 . S
C1293 C1295 1.413 . S
C1294 H1289 0.930 . S
C1294 C1292 1.378 . S
C1294 C1293 1.348 . S
C1295 C1291 1.415 . S
C1295 C1293 1.413 . S
C1295 C1325 1.437 . S
H1296 C1325 0.929 . S
N1297 Gd1270 2.570 . S
N1297 C1298 1.359 . S
N1297 C1301 1.343 . S
C1298 C1291 1.422 . S
C1298 N1297 1.359 . S
C1298 C1300 1.421 . S
C1299 C1300 1.422 . S
C1299 C1302 1.321 . S
C1299 H1326 0.931 . S
C1300 C1298 1.421 . S
C1300 C1299 1.422 . S
C1300 C1324 1.417 . S
C1301 H1278 0.931 . S
C1301 N1297 1.343 . S
C1301 C1302 1.390 . S
C1302 H1280 0.930 . S
C1302 C1299 1.321 . S
C1302 C1301 1.390 . S
O1303 Gd1271 2.386 . S
O1303 C1315 1.265 . S
O1304 Gd1270 2.353 . S
O1304 C1315 1.242 . S
O1305 Gd1270 2.468 . S
O1305 C1323 1.263 . S
O1306 Gd1270 2.427 . S
O1306 C1323 1.252 . S
O1307 Gd1271 2.307 . S
O1307 C1316 1.261 . S
O1308 Gd1270 2.388 . S
O1308 C1316 1.252 . S
O1309 Gd1270 2.386 . S
O1309 C1327 1.265 . S
O1310 Gd1271 2.353 . S
O1310 C1327 1.242 . S
O1311 Gd1271 2.468 . S
O1311 C1335 1.263 . S
O1312 Gd1271 2.427 . S
O1312 C1335 1.252 . S
O1313 Gd1270 2.307 . S
O1313 C1328 1.261 . S
O1314 Gd1271 2.388 . S
O1314 C1328 1.252 . S
C1315 O1303 1.265 . S
C1315 O1304 1.242 . S
C1316 O1307 1.261 . S
C1316 O1308 1.252 . S
C1317 C1320 1.394 . S
C1317 C1322 1.370 . S
C1317 C1323 1.500 . S
C1318 C1321 1.380 1_545 S
C1318 C1322 1.408 . S
C1319 C1320 1.396 . S
C1319 C1321 1.365 1_545 S
C1319 H1336 0.928 1_545 S
C1320 C1317 1.394 . S
C1320 C1319 1.396 . S
C1320 H1337 0.930 . S
C1321 C1318 1.380 1_565 S
C1321 C1319 1.365 1_565 S
C1321 H1338 0.931 . S
C1322 C1317 1.370 . S
C1322 C1318 1.408 . S
C1322 H1339 0.930 . S
C1323 Gd1270 2.805 . S
C1323 O1305 1.263 . S
C1323 O1306 1.252 . S
C1323 C1317 1.500 . S
C1324 H1286 0.930 . S
C1324 C1300 1.417 . S
C1324 C1325 1.329 . S
C1325 C1295 1.437 . S
C1325 H1296 0.929 . S
C1325 C1324 1.329 . S
H1326 C1299 0.931 . S
C1327 O1309 1.265 . S
C1327 O1310 1.242 . S
C1328 O1313 1.261 . S
C1328 O1314 1.252 . S
C1329 C1332 1.394 . S
C1329 C1334 1.370 . S
C1329 C1335 1.500 . S
C1330 C1333 1.383 . S
C1330 C1334 1.395 . S
C1331 C1332 1.396 . S
C1331 C1333 1.365 . S
C1331 H1340 0.929 . S
C1332 C1329 1.394 . S
C1332 C1331 1.396 . S
C1332 H1341 0.930 . S
C1333 C1330 1.383 . S
C1333 C1331 1.365 . S
C1333 H1342 0.931 . S
C1334 C1329 1.370 . S
C1334 C1330 1.395 . S
C1334 H1343 0.930 . S
C1335 Gd1271 2.805 . S
C1335 O1311 1.263 . S
C1335 O1312 1.252 . S
C1335 C1329 1.500 . S
H1336 C1319 0.928 1_565 S
H1337 C1320 0.930 . S
H1338 C1321 0.931 . S
H1339 C1322 0.930 . S
H1340 C1331 0.929 . S
H1341 C1332 0.930 . S
H1342 C1333 0.931 . S
H1343 C1334 0.930 . S
C1344 C1346 1.422 . S
C1344 C1348 1.415 . S
C1344 N1350 1.369 . S
C1345 C1346 1.421 . S
C1345 C1347 1.417 . S
C1345 C1357 1.422 . S
C1346 C1344 1.422 . S
C1346 C1345 1.421 . S
C1346 N1356 1.359 . S
C1347 C1345 1.417 . S
C1347 C1349 1.329 . S
C1347 H1366 0.930 . S
C1348 C1344 1.415 . S
C1348 C1349 1.437 . S
C1348 C1352 1.413 . S
C1349 C1347 1.329 . S
C1349 C1348 1.437 . S
C1349 H1371 0.929 . S
N1350 C1344 1.369 . S
N1350 C1351 1.338 . S
N1350 Gd1355 2.622 . S
C1351 N1350 1.338 . S
C1351 C1353 1.378 . S
C1351 H1363 0.929 . S
C1352 C1348 1.413 . S
C1352 C1353 1.348 . S
C1352 H1368 0.931 . S
C1353 C1351 1.378 . S
C1353 C1352 1.348 . S
C1353 H1369 0.930 . S
Gd1354 N1374 2.622 . S
Gd1354 N1381 2.570 . S
Gd1354 O1388 2.353 . S
Gd1354 O1389 2.468 . S
Gd1354 O1390 2.427 . S
Gd1354 O1392 2.388 . S
Gd1354 O1393 2.386 . S
Gd1354 O1397 2.307 . S
Gd1354 C1407 2.805 . S
Gd1355 N1350 2.622 . S
Gd1355 N1356 2.570 . S
Gd1355 O1387 2.386 . S
Gd1355 O1391 2.307 . S
Gd1355 O1394 2.353 . S
Gd1355 O1395 2.468 . S
Gd1355 O1396 2.427 . S
Gd1355 O1398 2.388 . S
Gd1355 C1419 2.805 . S
N1356 C1346 1.359 . S
N1356 Gd1355 2.570 . S
N1356 C1358 1.343 . S
C1357 C1345 1.422 . S
C1357 C1359 1.321 . S
C1357 H1365 0.931 . S
C1358 N1356 1.343 . S
C1358 C1359 1.390 . S
C1358 H1360 0.931 . S
C1359 C1357 1.321 . S
C1359 C1358 1.390 . S
C1359 H1361 0.930 . S
H1360 C1358 0.931 . S
H1361 C1359 0.930 . S
H1362 C1385 0.931 . S
H1363 C1351 0.929 . S
H1364 C1386 0.930 . S
H1365 C1357 0.931 . S
H1366 C1347 0.930 . S
H1367 C1376 0.929 . S
H1368 C1352 0.931 . S
H1369 C1353 0.930 . S
H1370 C1408 0.926 1_455 S
H1371 C1349 0.929 . S
H1372 C1377 0.931 . S
H1373 C1378 0.930 . S
N1374 Gd1354 2.622 . S
N1374 C1375 1.369 . S
N1374 C1376 1.338 . S
C1375 N1374 1.369 . S
C1375 C1379 1.415 . S
C1375 C1382 1.422 . S
C1376 H1367 0.929 . S
C1376 N1374 1.338 . S
C1376 C1378 1.378 . S
C1377 H1372 0.931 . S
C1377 C1378 1.348 . S
C1377 C1379 1.413 . S
C1378 H1373 0.930 . S
C1378 C1376 1.378 . S
C1378 C1377 1.348 . S
C1379 C1375 1.415 . S
C1379 C1377 1.413 . S
C1379 C1409 1.437 . S
H1380 C1409 0.929 . S
N1381 Gd1354 2.570 . S
N1381 C1382 1.359 . S
N1381 C1385 1.343 . S
C1382 C1375 1.422 . S
C1382 N1381 1.359 . S
C1382 C1384 1.421 . S
C1383 C1384 1.422 . S
C1383 C1386 1.321 . S
C1383 H1410 0.931 1_655 S
C1384 C1382 1.421 . S
C1384 C1383 1.422 . S
C1384 C1408 1.417 . S
C1385 H1362 0.931 . S
C1385 N1381 1.343 . S
C1385 C1386 1.390 . S
C1386 H1364 0.930 . S
C1386 C1383 1.321 . S
C1386 C1385 1.390 . S
O1387 Gd1355 2.386 . S
O1387 C1399 1.265 . S
O1388 Gd1354 2.353 . S
O1388 C1399 1.242 . S
O1389 Gd1354 2.468 . S
O1389 C1407 1.263 . S
O1390 Gd1354 2.427 . S
O1390 C1407 1.252 . S
O1391 Gd1355 2.307 . S
O1391 C1400 1.261 . S
O1392 Gd1354 2.388 . S
O1392 C1400 1.252 . S
O1393 Gd1354 2.386 . S
O1393 C1411 1.265 . S
O1394 Gd1355 2.353 . S
O1394 C1411 1.242 . S
O1395 Gd1355 2.468 . S
O1395 C1419 1.263 . S
O1396 Gd1355 2.427 . S
O1396 C1419 1.252 . S
O1397 Gd1354 2.307 . S
O1397 C1412 1.261 . S
O1398 Gd1355 2.388 . S
O1398 C1412 1.252 . S
C1399 O1387 1.265 . S
C1399 O1388 1.242 . S
C1400 O1391 1.261 . S
C1400 O1392 1.252 . S
C1401 C1404 1.394 1_655 S
C1401 C1406 1.370 1_655 S
C1401 C1407 1.500 . S
C1402 C1405 1.383 . S
C1402 C1406 1.395 . S
C1403 C1404 1.396 . S
C1403 C1405 1.365 . S
C1403 H1420 0.929 . S
C1404 C1401 1.394 1_455 S
C1404 C1403 1.396 . S
C1404 H1421 0.930 1_455 S
C1405 C1402 1.383 . S
C1405 C1403 1.365 . S
C1405 H1422 0.931 . S
C1406 C1401 1.370 1_455 S
C1406 C1402 1.395 . S
C1406 H1423 0.930 . S
C1407 Gd1354 2.805 . S
C1407 O1389 1.263 . S
C1407 O1390 1.252 . S
C1407 C1401 1.500 . S
C1408 H1370 0.926 1_655 S
C1408 C1384 1.417 . S
C1408 C1409 1.334 . S
C1409 C1379 1.437 . S
C1409 H1380 0.929 . S
C1409 C1408 1.334 . S
H1410 C1383 0.931 1_455 S
C1411 O1393 1.265 . S
C1411 O1394 1.242 . S
C1412 O1397 1.261 . S
C1412 O1398 1.252 . S
C1413 C1416 1.394 . S
C1413 C1418 1.370 . S
C1413 C1419 1.500 . S
C1414 C1417 1.383 . S
C1414 C1418 1.395 . S
C1415 C1416 1.396 . S
C1415 C1417 1.365 . S
C1415 H1424 0.929 . S
C1416 C1413 1.394 . S
C1416 C1415 1.396 . S
C1416 H1425 0.930 . S
C1417 C1414 1.383 . S
C1417 C1415 1.365 . S
C1417 H1426 0.931 . S
C1418 C1413 1.370 . S
C1418 C1414 1.395 . S
C1418 H1427 0.930 . S
C1419 Gd1355 2.805 . S
C1419 O1395 1.263 . S
C1419 O1396 1.252 . S
C1419 C1413 1.500 . S
H1420 C1403 0.929 . S
H1421 C1404 0.930 1_655 S
H1422 C1405 0.931 . S
H1423 C1406 0.930 . S
H1424 C1415 0.929 . S
H1425 C1416 0.930 . S
H1426 C1417 0.931 . S
H1427 C1418 0.930 . S
C1428 C1430 1.422 . S
C1428 C1432 1.415 . S
C1428 N1434 1.369 . S
C1429 C1430 1.421 . S
C1429 C1431 1.417 1_655 S
C1429 C1441 1.422 . S
C1430 C1428 1.422 . S
C1430 C1429 1.421 . S
C1430 N1440 1.359 . S
C1431 C1429 1.417 1_455 S
C1431 C1433 1.329 1_455 S
C1431 H1450 0.930 . S
C1432 C1428 1.415 . S
C1432 C1433 1.437 . S
C1432 C1436 1.413 . S
C1433 C1431 1.329 1_655 S
C1433 C1432 1.437 . S
C1433 H1455 0.929 1_655 S
N1434 C1428 1.369 . S
N1434 C1435 1.338 . S
N1434 Gd1439 2.622 . S
C1435 N1434 1.338 . S
C1435 C1437 1.378 . S
C1435 H1447 0.929 . S
C1436 C1432 1.413 . S
C1436 C1437 1.348 . S
C1436 H1452 0.931 . S
C1437 C1435 1.378 . S
C1437 C1436 1.348 . S
C1437 H1453 0.930 . S
Gd1438 N1458 2.622 . S
Gd1438 N1465 2.570 . S
Gd1438 O1472 2.353 . S
Gd1438 O1473 2.468 . S
Gd1438 O1474 2.427 . S
Gd1438 O1476 2.388 . S
Gd1438 O1477 2.386 . S
Gd1438 O1481 2.307 . S
Gd1438 C1491 2.805 . S
Gd1439 N1434 2.622 . S
Gd1439 N1440 2.570 . S
Gd1439 O1471 2.386 . S
Gd1439 O1475 2.307 . S
Gd1439 O1478 2.353 . S
Gd1439 O1479 2.468 . S
Gd1439 O1480 2.427 . S
Gd1439 O1482 2.388 . S
Gd1439 C1503 2.805 . S
N1440 C1430 1.359 . S
N1440 Gd1439 2.570 . S
N1440 C1442 1.343 . S
C1441 C1429 1.422 . S
C1441 C1443 1.321 . S
C1441 H1449 0.931 1_655 S
C1442 N1440 1.343 . S
C1442 C1443 1.390 . S
C1442 H1444 0.931 . S
C1443 C1441 1.321 . S
C1443 C1442 1.390 . S
C1443 H1445 0.930 . S
H1444 C1442 0.931 . S
H1445 C1443 0.930 . S
H1446 C1469 0.931 . S
H1447 C1435 0.929 . S
H1448 C1470 0.930 . S
H1449 C1441 0.931 1_455 S
H1450 C1431 0.930 . S
H1451 C1460 0.929 . S
H1452 C1436 0.931 . S
H1453 C1437 0.930 . S
H1454 C1492 0.930 . S
H1455 C1433 0.929 1_455 S
H1456 C1461 0.931 . S
H1457 C1462 0.930 . S
N1458 Gd1438 2.622 . S
N1458 C1459 1.369 . S
N1458 C1460 1.338 . S
C1459 N1458 1.369 . S
C1459 C1463 1.415 . S
C1459 C1466 1.422 . S
C1460 H1451 0.929 . S
C1460 N1458 1.338 . S
C1460 C1462 1.378 . S
C1461 H1456 0.931 . S
C1461 C1462 1.348 . S
C1461 C1463 1.413 . S
C1462 H1457 0.930 . S
C1462 C1460 1.378 . S
C1462 C1461 1.348 . S
C1463 C1459 1.415 . S
C1463 C1461 1.413 . S
C1463 C1493 1.437 . S
H1464 C1493 0.929 . S
N1465 Gd1438 2.570 . S
N1465 C1466 1.359 . S
N1465 C1469 1.343 . S
C1466 C1459 1.422 . S
C1466 N1465 1.359 . S
C1466 C1468 1.421 . S
C1467 C1468 1.422 . S
C1467 C1470 1.321 . S
C1467 H1494 0.931 . S
C1468 C1466 1.421 . S
C1468 C1467 1.422 . S
C1468 C1492 1.417 . S
C1469 H1446 0.931 . S
C1469 N1465 1.343 . S
C1469 C1470 1.390 . S
C1470 H1448 0.930 . S
C1470 C1467 1.321 . S
C1470 C1469 1.390 . S
O1471 Gd1439 2.386 . S
O1471 C1483 1.265 . S
O1472 Gd1438 2.353 . S
O1472 C1483 1.242 . S
O1473 Gd1438 2.468 . S
O1473 C1491 1.263 . S
O1474 Gd1438 2.427 . S
O1474 C1491 1.252 . S
O1475 Gd1439 2.307 . S
O1475 C1484 1.261 . S
O1476 Gd1438 2.388 . S
O1476 C1484 1.252 . S
O1477 Gd1438 2.386 . S
O1477 C1495 1.265 . S
O1478 Gd1439 2.353 . S
O1478 C1495 1.242 . S
O1479 Gd1439 2.468 . S
O1479 C1503 1.263 . S
O1480 Gd1439 2.427 . S
O1480 C1503 1.252 . S
O1481 Gd1438 2.307 . S
O1481 C1496 1.261 . S
O1482 Gd1439 2.388 . S
O1482 C1496 1.252 . S
C1483 O1471 1.265 . S
C1483 O1472 1.242 . S
C1484 O1475 1.261 . S
C1484 O1476 1.252 . S
C1485 C1488 1.394 . S
C1485 C1490 1.370 . S
C1485 C1491 1.500 . S
C1486 C1489 1.383 . S
C1486 C1490 1.395 . S
C1487 C1488 1.396 . S
C1487 C1489 1.365 . S
C1487 H1504 0.929 . S
C1488 C1485 1.394 . S
C1488 C1487 1.396 . S
C1488 H1505 0.930 . S
C1489 C1486 1.383 . S
C1489 C1487 1.365 . S
C1489 H1506 0.931 . S
C1490 C1485 1.370 . S
C1490 C1486 1.395 . S
C1490 H1507 0.930 . S
C1491 Gd1438 2.805 . S
C1491 O1473 1.263 . S
C1491 O1474 1.252 . S
C1491 C1485 1.500 . S
C1492 H1454 0.930 . S
C1492 C1468 1.417 . S
C1492 C1493 1.329 . S
C1493 C1463 1.437 . S
C1493 H1464 0.929 . S
C1493 C1492 1.329 . S
H1494 C1467 0.931 . S
C1495 O1477 1.265 . S
C1495 O1478 1.242 . S
C1496 O1481 1.261 . S
C1496 O1482 1.252 . S
C1497 C1500 1.394 . S
C1497 C1502 1.370 . S
C1497 C1503 1.500 . S
C1498 C1501 1.383 . S
C1498 C1502 1.395 . S
C1499 C1500 1.396 . S
C1499 C1501 1.365 . S
C1499 H1508 0.929 . S
C1500 C1497 1.394 . S
C1500 C1499 1.396 . S
C1500 H1509 0.930 . S
C1501 C1498 1.383 . S
C1501 C1499 1.365 . S
C1501 H1510 0.931 . S
C1502 C1497 1.370 . S
C1502 C1498 1.395 . S
C1502 H1511 0.930 . S
C1503 Gd1439 2.805 . S
C1503 O1479 1.263 . S
C1503 O1480 1.252 . S
C1503 C1497 1.500 . S
H1504 C1487 0.929 . S
H1505 C1488 0.930 . S
H1506 C1489 0.931 . S
H1507 C1490 0.930 . S
H1508 C1499 0.929 . S
H1509 C1500 0.930 . S
H1510 C1501 0.931 . S
H1511 C1502 0.930 . S
H1512 C1530 0.951 . S
H1513 C1532 0.951 . S
H1514 C1534 0.950 . S
H1515 C1535 0.950 . S
H1516 C1537 0.950 . S
H1517 C1540 0.950 . S
H1518 C1541 0.950 . S
H1519 C1543 0.950 . S
H1520 C1544 0.950 . S
H1521 C1545 0.951 . S
H1522 C1547 0.951 . S
H1523 C1549 0.950 . S
H1524 C1550 0.950 . S
H1525 C1552 0.950 . S
H1526 C1555 0.950 . S
H1527 C1556 0.950 . S
H1528 C1558 0.950 . S
H1529 C1559 0.950 . S
C1530 H1512 0.951 . S
C1530 C1531 1.366 . S
C1530 C1532 1.388 . S
C1531 C1530 1.366 . S
C1531 C1535 1.385 . S
C1532 H1513 0.951 . S
C1532 C1530 1.388 . S
C1532 C1533 1.366 . S
C1533 C1532 1.366 . S
C1533 C1534 1.414 . S
C1533 C1536 1.499 . S
C1534 H1514 0.950 . S
C1534 C1533 1.414 . S
C1534 C1535 1.374 . S
C1535 H1515 0.950 . S
C1535 C1531 1.385 . S
C1535 C1534 1.374 . S
C1536 C1533 1.499 . S
C1536 C1537 1.373 . S
C1536 C1538 1.389 . S
C1537 H1516 0.950 . S
C1537 C1536 1.373 . S
C1537 C1553 1.377 . S
C1538 C1536 1.389 . S
C1538 C1539 1.524 . S
C1538 C1552 1.377 . S
C1539 C1538 1.524 . S
C1539 C1540 1.397 . S
C1539 C1544 1.363 . S
C1540 H1517 0.950 . S
C1540 C1539 1.397 . S
C1540 C1541 1.334 . S
C1541 H1518 0.950 . S
C1541 C1540 1.334 . S
C1541 C1542 1.287 . S
C1542 C1541 1.287 . S
C1542 C1543 1.524 . S
C1542 H1561 0.913 . S
C1543 H1519 0.950 . S
C1543 C1542 1.524 . S
C1543 C1544 1.415 . S
C1544 H1520 0.950 . S
C1544 C1539 1.363 . S
C1544 C1543 1.415 . S
C1545 H1521 0.951 . S
C1545 C1546 1.366 . S
C1545 C1547 1.388 . S
C1546 C1545 1.366 . S
C1546 C1550 1.385 . S
C1547 H1522 0.951 . S
C1547 C1545 1.388 . S
C1547 C1548 1.366 . S
C1548 C1547 1.366 . S
C1548 C1549 1.414 . S
C1548 C1551 1.499 . S
C1549 H1523 0.950 . S
C1549 C1548 1.414 . S
C1549 C1550 1.374 . S
C1550 H1524 0.950 . S
C1550 C1546 1.385 . S
C1550 C1549 1.374 . S
C1551 C1548 1.499 . S
C1551 C1552 1.373 . S
C1551 C1553 1.389 . S
C1552 H1525 0.950 . S
C1552 C1538 1.377 . S
C1552 C1551 1.373 . S
C1553 C1537 1.377 . S
C1553 C1551 1.389 . S
C1553 C1554 1.524 . S
C1554 C1553 1.524 . S
C1554 C1555 1.397 . S
C1554 C1559 1.363 . S
C1555 H1526 0.950 . S
C1555 C1554 1.397 . S
C1555 C1556 1.334 . S
C1556 H1527 0.950 . S
C1556 C1555 1.334 . S
C1556 C1557 1.287 . S
C1557 C1556 1.287 . S
C1557 C1558 1.524 . S
C1557 H1560 0.999 . S
C1558 H1528 0.950 . S
C1558 C1557 1.524 . S
C1558 C1559 1.415 . S
C1559 H1529 0.950 . S
C1559 C1554 1.363 . S
C1559 C1558 1.415 . S
H1560 C1557 0.999 . S
H1561 C1542 0.913 . S
H1562 C1580 0.951 . S
H1563 C1582 0.951 . S
H1564 C1584 0.950 . S
H1565 C1585 0.950 . S
H1566 C1587 0.950 . S
H1567 C1590 0.950 . S
H1568 C1591 0.950 . S
H1569 C1593 0.950 . S
H1570 C1594 0.950 . S
H1571 C1595 0.951 . S
H1572 C1597 0.951 . S
H1573 C1599 0.950 . S
H1574 C1600 0.950 . S
H1575 C1602 0.950 . S
H1576 C1605 0.950 . S
H1577 C1606 0.950 . S
H1578 C1608 0.950 . S
H1579 C1609 0.950 . S
C1580 H1562 0.951 . S
C1580 C1581 1.366 . S
C1580 C1582 1.388 . S
C1581 C1580 1.366 . S
C1581 C1585 1.385 . S
C1582 H1563 0.951 . S
C1582 C1580 1.388 . S
C1582 C1583 1.366 . S
C1583 C1582 1.366 . S
C1583 C1584 1.414 . S
C1583 C1586 1.499 . S
C1584 H1564 0.950 . S
C1584 C1583 1.414 . S
C1584 C1585 1.374 . S
C1585 H1565 0.950 . S
C1585 C1581 1.385 . S
C1585 C1584 1.374 . S
C1586 C1583 1.499 . S
C1586 C1587 1.373 . S
C1586 C1588 1.389 . S
C1587 H1566 0.950 . S
C1587 C1586 1.373 . S
C1587 C1603 1.377 . S
C1588 C1586 1.389 . S
C1588 C1589 1.524 . S
C1588 C1602 1.377 . S
C1589 C1588 1.524 . S
C1589 C1590 1.397 . S
C1589 C1594 1.363 . S
C1590 H1567 0.950 . S
C1590 C1589 1.397 . S
C1590 C1591 1.334 . S
C1591 H1568 0.950 . S
C1591 C1590 1.334 . S
C1591 C1592 1.287 . S
C1592 C1591 1.287 . S
C1592 C1593 1.524 . S
C1592 H1611 0.913 . S
C1593 H1569 0.950 . S
C1593 C1592 1.524 . S
C1593 C1594 1.415 . S
C1594 H1570 0.950 . S
C1594 C1589 1.363 . S
C1594 C1593 1.415 . S
C1595 H1571 0.951 . S
C1595 C1596 1.366 . S
C1595 C1597 1.388 . S
C1596 C1595 1.366 . S
C1596 C1600 1.385 . S
C1597 H1572 0.951 . S
C1597 C1595 1.388 . S
C1597 C1598 1.366 . S
C1598 C1597 1.366 . S
C1598 C1599 1.414 . S
C1598 C1601 1.499 . S
C1599 H1573 0.950 . S
C1599 C1598 1.414 . S
C1599 C1600 1.374 . S
C1600 H1574 0.950 . S
C1600 C1596 1.385 . S
C1600 C1599 1.374 . S
C1601 C1598 1.499 . S
C1601 C1602 1.373 . S
C1601 C1603 1.389 . S
C1602 H1575 0.950 . S
C1602 C1588 1.377 . S
C1602 C1601 1.373 . S
C1603 C1587 1.377 . S
C1603 C1601 1.389 . S
C1603 C1604 1.524 . S
C1604 C1603 1.524 . S
C1604 C1605 1.397 . S
C1604 C1609 1.363 . S
C1605 H1576 0.950 . S
C1605 C1604 1.397 . S
C1605 C1606 1.334 . S
C1606 H1577 0.950 . S
C1606 C1605 1.334 . S
C1606 C1607 1.287 . S
C1607 C1606 1.287 . S
C1607 C1608 1.524 . S
C1607 H1610 0.999 . S
C1608 H1578 0.950 . S
C1608 C1607 1.524 . S
C1608 C1609 1.415 . S
C1609 H1579 0.950 . S
C1609 C1604 1.363 . S
C1609 C1608 1.415 . S
H1610 C1607 0.999 . S
H1611 C1592 0.913 . S
H1612 C1630 0.951 . S
H1613 C1632 0.951 . S
H1614 C1634 0.950 . S
H1615 C1635 0.950 . S
H1616 C1637 0.950 . S
H1617 C1640 0.950 . S
H1618 C1641 0.950 . S
H1619 C1643 0.950 . S
H1620 C1644 0.950 . S
H1621 C1645 0.951 . S
H1622 C1647 0.951 . S
H1623 C1649 0.950 . S
H1624 C1650 0.950 . S
H1625 C1652 0.950 . S
H1626 C1655 0.950 . S
H1627 C1656 0.950 . S
H1628 C1658 0.950 . S
H1629 C1659 0.950 . S
C1630 H1612 0.951 . S
C1630 C1631 1.366 . S
C1630 C1632 1.388 . S
C1631 C1630 1.366 . S
C1631 C1635 1.385 . S
C1632 H1613 0.951 . S
C1632 C1630 1.388 . S
C1632 C1633 1.366 . S
C1633 C1632 1.366 . S
C1633 C1634 1.414 . S
C1633 C1636 1.499 . S
C1634 H1614 0.950 . S
C1634 C1633 1.414 . S
C1634 C1635 1.374 . S
C1635 H1615 0.950 . S
C1635 C1631 1.385 . S
C1635 C1634 1.374 . S
C1636 C1633 1.499 . S
C1636 C1637 1.373 . S
C1636 C1638 1.389 . S
C1637 H1616 0.950 . S
C1637 C1636 1.373 . S
C1637 C1653 1.377 . S
C1638 C1636 1.389 . S
C1638 C1639 1.524 . S
C1638 C1652 1.377 . S
C1639 C1638 1.524 . S
C1639 C1640 1.397 . S
C1639 C1644 1.363 . S
C1640 H1617 0.950 . S
C1640 C1639 1.397 . S
C1640 C1641 1.334 . S
C1641 H1618 0.950 . S
C1641 C1640 1.334 . S
C1641 C1642 1.287 . S
C1642 C1641 1.287 . S
C1642 C1643 1.524 . S
C1642 H1661 0.913 . S
C1643 H1619 0.950 . S
C1643 C1642 1.524 . S
C1643 C1644 1.415 . S
C1644 H1620 0.950 . S
C1644 C1639 1.363 . S
C1644 C1643 1.415 . S
C1645 H1621 0.951 . S
C1645 C1646 1.366 . S
C1645 C1647 1.388 . S
C1646 C1645 1.366 . S
C1646 C1650 1.385 . S
C1647 H1622 0.951 . S
C1647 C1645 1.388 . S
C1647 C1648 1.366 . S
C1648 C1647 1.366 . S
C1648 C1649 1.414 . S
C1648 C1651 1.499 . S
C1649 H1623 0.950 . S
C1649 C1648 1.414 . S
C1649 C1650 1.374 . S
C1650 H1624 0.950 . S
C1650 C1646 1.385 . S
C1650 C1649 1.374 . S
C1651 C1648 1.499 . S
C1651 C1652 1.373 . S
C1651 C1653 1.389 . S
C1652 H1625 0.950 . S
C1652 C1638 1.377 . S
C1652 C1651 1.373 . S
C1653 C1637 1.377 . S
C1653 C1651 1.389 . S
C1653 C1654 1.524 . S
C1654 C1653 1.524 . S
C1654 C1655 1.397 . S
C1654 C1659 1.363 . S
C1655 H1626 0.950 . S
C1655 C1654 1.397 . S
C1655 C1656 1.334 . S
C1656 H1627 0.950 . S
C1656 C1655 1.334 . S
C1656 C1657 1.287 . S
C1657 C1656 1.287 . S
C1657 C1658 1.524 . S
C1657 H1660 0.999 . S
C1658 H1628 0.950 . S
C1658 C1657 1.524 . S
C1658 C1659 1.415 . S
C1659 H1629 0.950 . S
C1659 C1654 1.363 . S
C1659 C1658 1.415 . S
H1660 C1657 0.999 . S
H1661 C1642 0.913 . S
H1662 C1680 0.951 . S
H1663 C1682 0.951 . S
H1664 C1684 0.950 . S
H1665 C1685 0.950 . S
H1666 C1687 0.950 . S
H1667 C1690 0.950 . S
H1668 C1691 0.950 . S
H1669 C1693 0.950 . S
H1670 C1694 0.950 . S
H1671 C1695 0.951 . S
H1672 C1697 0.951 . S
H1673 C1699 0.950 . S
H1674 C1700 0.950 . S
H1675 C1702 0.950 . S
H1676 C1705 0.950 . S
H1677 C1706 0.950 . S
H1678 C1708 0.950 . S
H1679 C1709 0.950 . S
C1680 H1662 0.951 . S
C1680 C1681 1.366 . S
C1680 C1682 1.388 . S
C1681 C1680 1.366 . S
C1681 C1685 1.385 . S
C1682 H1663 0.951 . S
C1682 C1680 1.388 . S
C1682 C1683 1.366 . S
C1683 C1682 1.366 . S
C1683 C1684 1.414 . S
C1683 C1686 1.499 . S
C1684 H1664 0.950 . S
C1684 C1683 1.414 . S
C1684 C1685 1.374 . S
C1685 H1665 0.950 . S
C1685 C1681 1.385 . S
C1685 C1684 1.374 . S
C1686 C1683 1.499 . S
C1686 C1687 1.373 . S
C1686 C1688 1.389 . S
C1687 H1666 0.950 . S
C1687 C1686 1.373 . S
C1687 C1703 1.377 . S
C1688 C1686 1.389 . S
C1688 C1689 1.524 . S
C1688 C1702 1.377 . S
C1689 C1688 1.524 . S
C1689 C1690 1.397 . S
C1689 C1694 1.363 . S
C1690 H1667 0.950 . S
C1690 C1689 1.397 . S
C1690 C1691 1.334 . S
C1691 H1668 0.950 . S
C1691 C1690 1.334 . S
C1691 C1692 1.287 . S
C1692 C1691 1.287 . S
C1692 C1693 1.524 . S
C1692 H1711 0.913 . S
C1693 H1669 0.950 . S
C1693 C1692 1.524 . S
C1693 C1694 1.415 . S
C1694 H1670 0.950 . S
C1694 C1689 1.363 . S
C1694 C1693 1.415 . S
C1695 H1671 0.951 . S
C1695 C1696 1.366 . S
C1695 C1697 1.388 . S
C1696 C1695 1.366 . S
C1696 C1700 1.385 . S
C1697 H1672 0.951 . S
C1697 C1695 1.388 . S
C1697 C1698 1.366 . S
C1698 C1697 1.366 . S
C1698 C1699 1.414 . S
C1698 C1701 1.499 . S
C1699 H1673 0.950 . S
C1699 C1698 1.414 . S
C1699 C1700 1.374 . S
C1700 H1674 0.950 . S
C1700 C1696 1.385 . S
C1700 C1699 1.374 . S
C1701 C1698 1.499 . S
C1701 C1702 1.373 . S
C1701 C1703 1.389 . S
C1702 H1675 0.950 . S
C1702 C1688 1.377 . S
C1702 C1701 1.373 . S
C1703 C1687 1.377 . S
C1703 C1701 1.389 . S
C1703 C1704 1.524 . S
C1704 C1703 1.524 . S
C1704 C1705 1.397 . S
C1704 C1709 1.363 . S
C1705 H1676 0.950 . S
C1705 C1704 1.397 . S
C1705 C1706 1.334 . S
C1706 H1677 0.950 . S
C1706 C1705 1.334 . S
C1706 C1707 1.287 . S
C1707 C1706 1.287 . S
C1707 C1708 1.524 . S
C1707 H1710 0.999 . S
C1708 H1678 0.950 . S
C1708 C1707 1.524 . S
C1708 C1709 1.415 . S
C1709 H1679 0.950 . S
C1709 C1704 1.363 . S
C1709 C1708 1.415 . S
H1710 C1707 0.999 . S
H1711 C1692 0.913 . S
H1712 C1730 0.951 . S
H1713 C1732 0.951 . S
H1714 C1734 0.950 . S
H1715 C1735 0.950 . S
H1716 C1737 0.950 . S
H1717 C1740 0.950 . S
H1718 C1741 0.950 . S
H1719 C1743 0.950 . S
H1720 C1744 0.950 . S
H1721 C1745 0.951 . S
H1722 C1747 0.951 . S
H1723 C1749 0.950 . S
H1724 C1750 0.950 . S
H1725 C1752 0.950 . S
H1726 C1755 0.950 . S
H1727 C1756 0.950 . S
H1728 C1758 0.950 . S
H1729 C1759 0.950 . S
C1730 H1712 0.951 . S
C1730 C1731 1.366 . S
C1730 C1732 1.388 . S
C1731 C1730 1.366 . S
C1731 C1735 1.385 . S
C1732 H1713 0.951 . S
C1732 C1730 1.388 . S
C1732 C1733 1.366 . S
C1733 C1732 1.366 . S
C1733 C1734 1.414 . S
C1733 C1736 1.499 . S
C1734 H1714 0.950 . S
C1734 C1733 1.414 . S
C1734 C1735 1.374 . S
C1735 H1715 0.950 . S
C1735 C1731 1.385 . S
C1735 C1734 1.374 . S
C1736 C1733 1.499 . S
C1736 C1737 1.373 . S
C1736 C1738 1.389 . S
C1737 H1716 0.950 . S
C1737 C1736 1.373 . S
C1737 C1753 1.377 . S
C1738 C1736 1.389 . S
C1738 C1739 1.524 . S
C1738 C1752 1.377 . S
C1739 C1738 1.524 . S
C1739 C1740 1.397 . S
C1739 C1744 1.363 . S
C1740 H1717 0.950 . S
C1740 C1739 1.397 . S
C1740 C1741 1.334 . S
C1741 H1718 0.950 . S
C1741 C1740 1.334 . S
C1741 C1742 1.287 . S
C1742 C1741 1.287 . S
C1742 C1743 1.524 . S
C1742 H1761 0.913 . S
C1743 H1719 0.950 . S
C1743 C1742 1.524 . S
C1743 C1744 1.415 . S
C1744 H1720 0.950 . S
C1744 C1739 1.363 . S
C1744 C1743 1.415 . S
C1745 H1721 0.951 . S
C1745 C1746 1.366 . S
C1745 C1747 1.388 . S
C1746 C1745 1.366 . S
C1746 C1750 1.385 . S
C1747 H1722 0.951 . S
C1747 C1745 1.388 . S
C1747 C1748 1.366 . S
C1748 C1747 1.366 . S
C1748 C1749 1.414 . S
C1748 C1751 1.499 . S
C1749 H1723 0.950 . S
C1749 C1748 1.414 . S
C1749 C1750 1.374 . S
C1750 H1724 0.950 . S
C1750 C1746 1.385 . S
C1750 C1749 1.374 . S
C1751 C1748 1.499 . S
C1751 C1752 1.373 . S
C1751 C1753 1.389 . S
C1752 H1725 0.950 . S
C1752 C1738 1.377 . S
C1752 C1751 1.373 . S
C1753 C1737 1.377 . S
C1753 C1751 1.389 . S
C1753 C1754 1.524 . S
C1754 C1753 1.524 . S
C1754 C1755 1.397 . S
C1754 C1759 1.363 . S
C1755 H1726 0.950 . S
C1755 C1754 1.397 . S
C1755 C1756 1.334 . S
C1756 H1727 0.950 . S
C1756 C1755 1.334 . S
C1756 C1757 1.287 . S
C1757 C1756 1.287 . S
C1757 C1758 1.524 . S
C1757 H1760 0.999 . S
C1758 H1728 0.950 . S
C1758 C1757 1.524 . S
C1758 C1759 1.415 . S
C1759 H1729 0.950 . S
C1759 C1754 1.363 . S
C1759 C1758 1.415 . S
H1760 C1757 0.999 . S
H1761 C1742 0.913 . S
H1762 C1780 0.951 . S
H1763 C1782 0.951 . S
H1764 C1784 0.950 . S
H1765 C1785 0.950 . S
H1766 C1787 0.950 . S
H1767 C1790 0.950 . S
H1768 C1791 0.950 . S
H1769 C1793 0.950 . S
H1770 C1794 0.950 . S
H1771 C1795 0.951 . S
H1772 C1797 0.951 . S
H1773 C1799 0.950 . S
H1774 C1800 0.950 . S
H1775 C1802 0.950 . S
H1776 C1805 0.950 . S
H1777 C1806 0.950 . S
H1778 C1808 0.950 . S
H1779 C1809 0.950 . S
C1780 H1762 0.951 . S
C1780 C1781 1.366 . S
C1780 C1782 1.388 . S
C1781 C1780 1.366 . S
C1781 C1785 1.385 . S
C1782 H1763 0.951 . S
C1782 C1780 1.388 . S
C1782 C1783 1.366 . S
C1783 C1782 1.366 . S
C1783 C1784 1.414 . S
C1783 C1786 1.499 . S
C1784 H1764 0.950 . S
C1784 C1783 1.414 . S
C1784 C1785 1.374 . S
C1785 H1765 0.950 . S
C1785 C1781 1.385 . S
C1785 C1784 1.374 . S
C1786 C1783 1.499 . S
C1786 C1787 1.373 . S
C1786 C1788 1.389 . S
C1787 H1766 0.950 . S
C1787 C1786 1.373 . S
C1787 C1803 1.377 . S
C1788 C1786 1.389 . S
C1788 C1789 1.524 . S
C1788 C1802 1.377 . S
C1789 C1788 1.524 . S
C1789 C1790 1.397 . S
C1789 C1794 1.363 . S
C1790 H1767 0.950 . S
C1790 C1789 1.397 . S
C1790 C1791 1.334 . S
C1791 H1768 0.950 . S
C1791 C1790 1.334 . S
C1791 C1792 1.287 . S
C1792 C1791 1.287 . S
C1792 C1793 1.524 . S
C1792 H1811 0.913 . S
C1793 H1769 0.950 . S
C1793 C1792 1.524 . S
C1793 C1794 1.415 . S
C1794 H1770 0.950 . S
C1794 C1789 1.363 . S
C1794 C1793 1.415 . S
C1795 H1771 0.951 . S
C1795 C1796 1.366 . S
C1795 C1797 1.388 . S
C1796 C1795 1.366 . S
C1796 C1800 1.385 . S
C1797 H1772 0.951 . S
C1797 C1795 1.388 . S
C1797 C1798 1.366 . S
C1798 C1797 1.366 . S
C1798 C1799 1.414 . S
C1798 C1801 1.499 . S
C1799 H1773 0.950 . S
C1799 C1798 1.414 . S
C1799 C1800 1.374 . S
C1800 H1774 0.950 . S
C1800 C1796 1.385 . S
C1800 C1799 1.374 . S
C1801 C1798 1.499 . S
C1801 C1802 1.373 . S
C1801 C1803 1.389 . S
C1802 H1775 0.950 . S
C1802 C1788 1.377 . S
C1802 C1801 1.373 . S
C1803 C1787 1.377 . S
C1803 C1801 1.389 . S
C1803 C1804 1.524 . S
C1804 C1803 1.524 . S
C1804 C1805 1.397 . S
C1804 C1809 1.363 . S
C1805 H1776 0.950 . S
C1805 C1804 1.397 . S
C1805 C1806 1.334 . S
C1806 H1777 0.950 . S
C1806 C1805 1.334 . S
C1806 C1807 1.287 . S
C1807 C1806 1.287 . S
C1807 C1808 1.524 . S
C1807 H1810 0.999 . S
C1808 H1778 0.950 . S
C1808 C1807 1.524 . S
C1808 C1809 1.415 . S
C1809 H1779 0.950 . S
C1809 C1804 1.363 . S
C1809 C1808 1.415 . S
H1810 C1807 0.999 . S
H1811 C1792 0.913 . S
H1812 C1830 0.951 . S
H1813 C1832 0.951 . S
H1814 C1834 0.950 . S
H1815 C1835 0.950 . S
H1816 C1837 0.950 . S
H1817 C1840 0.950 . S
H1818 C1841 0.950 . S
H1819 C1843 0.950 . S
H1820 C1844 0.950 . S
H1821 C1845 0.951 . S
H1822 C1847 0.951 . S
H1823 C1849 0.950 . S
H1824 C1850 0.950 . S
H1825 C1852 0.950 . S
H1826 C1855 0.950 . S
H1827 C1856 0.950 . S
H1828 C1858 0.950 . S
H1829 C1859 0.950 . S
C1830 H1812 0.951 . S
C1830 C1831 1.366 . S
C1830 C1832 1.388 . S
C1831 C1830 1.366 . S
C1831 C1835 1.385 . S
C1832 H1813 0.951 . S
C1832 C1830 1.388 . S
C1832 C1833 1.366 . S
C1833 C1832 1.366 . S
C1833 C1834 1.414 . S
C1833 C1836 1.499 . S
C1834 H1814 0.950 . S
C1834 C1833 1.414 . S
C1834 C1835 1.374 . S
C1835 H1815 0.950 . S
C1835 C1831 1.385 . S
C1835 C1834 1.374 . S
C1836 C1833 1.499 . S
C1836 C1837 1.373 . S
C1836 C1838 1.389 . S
C1837 H1816 0.950 . S
C1837 C1836 1.373 . S
C1837 C1853 1.377 . S
C1838 C1836 1.389 . S
C1838 C1839 1.524 . S
C1838 C1852 1.377 . S
C1839 C1838 1.524 . S
C1839 C1840 1.397 . S
C1839 C1844 1.363 . S
C1840 H1817 0.950 . S
C1840 C1839 1.397 . S
C1840 C1841 1.334 . S
C1841 H1818 0.950 . S
C1841 C1840 1.334 . S
C1841 C1842 1.287 . S
C1842 C1841 1.287 . S
C1842 C1843 1.524 . S
C1842 H1861 0.913 . S
C1843 H1819 0.950 . S
C1843 C1842 1.524 . S
C1843 C1844 1.415 . S
C1844 H1820 0.950 . S
C1844 C1839 1.363 . S
C1844 C1843 1.415 . S
C1845 H1821 0.951 . S
C1845 C1846 1.366 . S
C1845 C1847 1.388 . S
C1846 C1845 1.366 . S
C1846 C1850 1.385 . S
C1847 H1822 0.951 . S
C1847 C1845 1.388 . S
C1847 C1848 1.366 . S
C1848 C1847 1.366 . S
C1848 C1849 1.414 . S
C1848 C1851 1.499 . S
C1849 H1823 0.950 . S
C1849 C1848 1.414 . S
C1849 C1850 1.374 . S
C1850 H1824 0.950 . S
C1850 C1846 1.385 . S
C1850 C1849 1.374 . S
C1851 C1848 1.499 . S
C1851 C1852 1.373 . S
C1851 C1853 1.389 . S
C1852 H1825 0.950 . S
C1852 C1838 1.377 . S
C1852 C1851 1.373 . S
C1853 C1837 1.377 . S
C1853 C1851 1.389 . S
C1853 C1854 1.524 . S
C1854 C1853 1.524 . S
C1854 C1855 1.397 . S
C1854 C1859 1.363 . S
C1855 H1826 0.950 . S
C1855 C1854 1.397 . S
C1855 C1856 1.334 . S
C1856 H1827 0.950 . S
C1856 C1855 1.334 . S
C1856 C1857 1.287 . S
C1857 C1856 1.287 . S
C1857 C1858 1.524 . S
C1857 H1860 0.999 . S
C1858 H1828 0.950 . S
C1858 C1857 1.524 . S
C1858 C1859 1.415 . S
C1859 H1829 0.950 . S
C1859 C1854 1.363 . S
C1859 C1858 1.415 . S
H1860 C1857 0.999 . S
H1861 C1842 0.913 . S
H1862 C1880 0.951 . S
H1863 C1882 0.951 . S
H1864 C1884 0.950 . S
H1865 C1885 0.950 . S
H1866 C1887 0.950 . S
H1867 C1890 0.950 . S
H1868 C1891 0.950 1_455 S
H1869 C1893 0.950 . S
H1870 C1894 0.950 . S
H1871 C1895 0.951 . S
H1872 C1897 0.951 . S
H1873 C1899 0.950 . S
H1874 C1900 0.950 . S
H1875 C1902 0.950 1_565 S
H1876 C1905 0.950 . S
H1877 C1906 0.950 . S
H1878 C1908 0.950 . S
H1879 C1909 0.950 . S
C1880 H1862 0.951 . S
C1880 C1881 1.366 . S
C1880 C1882 1.388 . S
C1881 C1880 1.366 . S
C1881 C1885 1.385 . S
C1882 H1863 0.951 . S
C1882 C1880 1.388 . S
C1882 C1883 1.366 . S
C1883 C1882 1.366 . S
C1883 C1884 1.414 . S
C1883 C1886 1.499 . S
C1884 H1864 0.950 . S
C1884 C1883 1.414 . S
C1884 C1885 1.374 . S
C1885 H1865 0.950 . S
C1885 C1881 1.385 . S
C1885 C1884 1.374 . S
C1886 C1883 1.499 . S
C1886 C1887 1.373 . S
C1886 C1888 1.389 . S
C1887 H1866 0.950 . S
C1887 C1886 1.373 . S
C1887 C1903 1.377 . S
C1888 C1886 1.389 . S
C1888 C1889 1.524 . S
C1888 C1902 1.377 . S
C1889 C1888 1.524 . S
C1889 C1890 1.397 . S
C1889 C1894 1.363 . S
C1890 H1867 0.950 . S
C1890 C1889 1.397 . S
C1890 C1891 1.334 . S
C1891 H1868 0.950 1_655 S
C1891 C1890 1.334 . S
C1891 C1892 1.287 . S
C1892 C1891 1.287 . S
C1892 C1893 1.524 . S
C1892 H1911 0.913 1_655 S
C1893 H1869 0.950 . S
C1893 C1892 1.524 . S
C1893 C1894 1.415 . S
C1894 H1870 0.950 . S
C1894 C1889 1.363 . S
C1894 C1893 1.415 . S
C1895 H1871 0.951 . S
C1895 C1896 1.366 . S
C1895 C1897 1.388 . S
C1896 C1895 1.366 . S
C1896 C1900 1.385 . S
C1897 H1872 0.951 . S
C1897 C1895 1.388 . S
C1897 C1898 1.366 . S
C1898 C1897 1.366 . S
C1898 C1899 1.414 . S
C1898 C1901 1.499 1_565 S
C1899 H1873 0.950 . S
C1899 C1898 1.414 . S
C1899 C1900 1.374 . S
C1900 H1874 0.950 . S
C1900 C1896 1.385 . S
C1900 C1899 1.374 . S
C1901 C1898 1.499 1_545 S
C1901 C1902 1.373 . S
C1901 C1903 1.389 . S
C1902 H1875 0.950 1_545 S
C1902 C1888 1.377 . S
C1902 C1901 1.373 . S
C1903 C1887 1.377 . S
C1903 C1901 1.389 . S
C1903 C1904 1.524 . S
C1904 C1903 1.524 . S
C1904 C1905 1.397 . S
C1904 C1909 1.363 . S
C1905 H1876 0.950 . S
C1905 C1904 1.397 . S
C1905 C1906 1.334 . S
C1906 H1877 0.950 . S
C1906 C1905 1.334 . S
C1906 C1907 1.287 . S
C1907 C1906 1.287 . S
C1907 C1908 1.524 . S
C1907 H1910 0.999 . S
C1908 H1878 0.950 . S
C1908 C1907 1.524 . S
C1908 C1909 1.415 . S
C1909 H1879 0.950 . S
C1909 C1904 1.363 . S
C1909 C1908 1.415 . S
H1910 C1907 0.999 . S
H1911 C1892 0.913 1_455 S
H1912 C1930 0.951 . S
H1913 C1932 0.951 . S
H1914 C1934 0.950 . S
H1915 C1935 0.950 . S
H1916 C1937 0.950 . S
H1917 C1940 0.950 . S
H1918 C1941 0.950 . S
H1919 C1943 0.950 . S
H1920 C1944 0.950 . S
H1921 C1945 0.951 . S
H1922 C1947 0.951 . S
H1923 C1949 0.950 . S
H1924 C1950 0.950 . S
H1925 C1952 0.950 . S
H1926 C1955 0.950 . S
H1927 C1956 0.950 . S
H1928 C1958 0.950 . S
H1929 C1959 0.950 . S
C1930 H1912 0.951 . S
C1930 C1931 1.366 . S
C1930 C1932 1.388 . S
C1931 C1930 1.366 . S
C1931 C1935 1.385 . S
C1932 H1913 0.951 . S
C1932 C1930 1.388 . S
C1932 C1933 1.366 . S
C1933 C1932 1.366 . S
C1933 C1934 1.414 . S
C1933 C1936 1.499 . S
C1934 H1914 0.950 . S
C1934 C1933 1.414 . S
C1934 C1935 1.374 . S
C1935 H1915 0.950 . S
C1935 C1931 1.385 . S
C1935 C1934 1.374 . S
C1936 C1933 1.499 . S
C1936 C1937 1.373 . S
C1936 C1938 1.389 1_455 S
C1937 H1916 0.950 . S
C1937 C1936 1.373 . S
C1937 C1953 1.377 1_455 S
C1938 C1936 1.389 1_655 S
C1938 C1939 1.524 . S
C1938 C1952 1.377 . S
C1939 C1938 1.524 . S
C1939 C1940 1.397 1_655 S
C1939 C1944 1.363 . S
C1940 H1917 0.950 . S
C1940 C1939 1.397 1_455 S
C1940 C1941 1.334 . S
C1941 H1918 0.950 . S
C1941 C1940 1.334 . S
C1941 C1942 1.287 1_455 S
C1942 C1941 1.287 1_655 S
C1942 C1943 1.524 . S
C1942 H1961 0.913 . S
C1943 H1919 0.950 . S
C1943 C1942 1.524 . S
C1943 C1944 1.415 . S
C1944 H1920 0.950 . S
C1944 C1939 1.363 . S
C1944 C1943 1.415 . S
C1945 H1921 0.951 . S
C1945 C1946 1.366 . S
C1945 C1947 1.388 . S
C1946 C1945 1.366 . S
C1946 C1950 1.385 . S
C1947 H1922 0.951 . S
C1947 C1945 1.388 . S
C1947 C1948 1.366 . S
C1948 C1947 1.366 . S
C1948 C1949 1.414 . S
C1948 C1951 1.499 . S
C1949 H1923 0.950 . S
C1949 C1948 1.414 . S
C1949 C1950 1.374 . S
C1950 H1924 0.950 . S
C1950 C1946 1.385 . S
C1950 C1949 1.374 . S
C1951 C1948 1.499 . S
C1951 C1952 1.373 . S
C1951 C1953 1.389 . S
C1952 H1925 0.950 . S
C1952 C1938 1.377 . S
C1952 C1951 1.373 . S
C1953 C1937 1.377 1_655 S
C1953 C1951 1.389 . S
C1953 C1954 1.524 . S
C1954 C1953 1.524 . S
C1954 C1955 1.397 . S
C1954 C1959 1.363 1_655 S
C1955 H1926 0.950 . S
C1955 C1954 1.397 . S
C1955 C1956 1.334 . S
C1956 H1927 0.950 . S
C1956 C1955 1.334 . S
C1956 C1957 1.287 . S
C1957 C1956 1.287 . S
C1957 C1958 1.524 1_655 S
C1957 H1960 0.999 . S
C1958 H1928 0.950 . S
C1958 C1957 1.524 1_455 S
C1958 C1959 1.415 . S
C1959 H1929 0.950 . S
C1959 C1954 1.363 1_455 S
C1959 C1958 1.415 . S
H1960 C1957 0.999 . S
H1961 C1942 0.913 . S
H1962 C1980 0.951 . S
H1963 C1982 0.951 . S
H1964 C1984 0.950 . S
H1965 C1985 0.950 . S
H1966 C1987 0.950 . S
H1967 C1990 0.950 . S
H1968 C1991 0.950 . S
H1969 C1993 0.950 . S
H1970 C1994 0.950 . S
H1971 C1995 0.951 . S
H1972 C1997 0.951 . S
H1973 C1999 0.950 . S
H1974 C2000 0.950 . S
H1975 C2002 0.950 . S
H1976 C2005 0.950 . S
H1977 C2006 0.950 . S
H1978 C2008 0.950 . S
H1979 C2009 0.950 . S
C1980 H1962 0.951 . S
C1980 C1981 1.366 . S
C1980 C1982 1.388 . S
C1981 C1980 1.366 . S
C1981 C1985 1.385 . S
C1982 H1963 0.951 . S
C1982 C1980 1.388 . S
C1982 C1983 1.366 . S
C1983 C1982 1.366 . S
C1983 C1984 1.414 . S
C1983 C1986 1.499 . S
C1984 H1964 0.950 . S
C1984 C1983 1.414 . S
C1984 C1985 1.374 . S
C1985 H1965 0.950 . S
C1985 C1981 1.385 . S
C1985 C1984 1.374 . S
C1986 C1983 1.499 . S
C1986 C1987 1.373 . S
C1986 C1988 1.389 . S
C1987 H1966 0.950 . S
C1987 C1986 1.373 . S
C1987 C2003 1.377 . S
C1988 C1986 1.389 . S
C1988 C1989 1.524 . S
C1988 C2002 1.377 . S
C1989 C1988 1.524 . S
C1989 C1990 1.397 . S
C1989 C1994 1.363 . S
C1990 H1967 0.950 . S
C1990 C1989 1.397 . S
C1990 C1991 1.334 . S
C1991 H1968 0.950 . S
C1991 C1990 1.334 . S
C1991 C1992 1.287 . S
C1992 C1991 1.287 . S
C1992 C1993 1.524 . S
C1992 H2011 0.913 . S
C1993 H1969 0.950 . S
C1993 C1992 1.524 . S
C1993 C1994 1.415 . S
C1994 H1970 0.950 . S
C1994 C1989 1.363 . S
C1994 C1993 1.415 . S
C1995 H1971 0.951 . S
C1995 C1996 1.366 . S
C1995 C1997 1.388 . S
C1996 C1995 1.366 . S
C1996 C2000 1.385 . S
C1997 H1972 0.951 . S
C1997 C1995 1.388 . S
C1997 C1998 1.366 . S
C1998 C1997 1.366 . S
C1998 C1999 1.414 . S
C1998 C2001 1.499 . S
C1999 H1973 0.950 . S
C1999 C1998 1.414 . S
C1999 C2000 1.374 . S
C2000 H1974 0.950 . S
C2000 C1996 1.385 . S
C2000 C1999 1.374 . S
C2001 C1998 1.499 . S
C2001 C2002 1.373 . S
C2001 C2003 1.389 . S
C2002 H1975 0.950 . S
C2002 C1988 1.377 . S
C2002 C2001 1.373 . S
C2003 C1987 1.377 . S
C2003 C2001 1.389 . S
C2003 C2004 1.524 . S
C2004 C2003 1.524 . S
C2004 C2005 1.397 . S
C2004 C2009 1.363 . S
C2005 H1976 0.950 . S
C2005 C2004 1.397 . S
C2005 C2006 1.334 . S
C2006 H1977 0.950 . S
C2006 C2005 1.334 . S
C2006 C2007 1.287 . S
C2007 C2006 1.287 . S
C2007 C2008 1.524 . S
C2007 H2010 0.999 . S
C2008 H1978 0.950 . S
C2008 C2007 1.524 . S
C2008 C2009 1.415 . S
C2009 H1979 0.950 . S
C2009 C2004 1.363 . S
C2009 C2008 1.415 . S
H2010 C2007 0.999 . S
H2011 C1992 0.913 . S
H2012 C2030 0.951 . S
H2013 C2032 0.951 . S
H2014 C2034 0.950 . S
H2015 C2035 0.950 . S
H2016 C2037 0.950 . S
H2017 C2040 0.950 . S
H2018 C2041 0.950 . S
H2019 C2043 0.950 . S
H2020 C2044 0.950 . S
H2021 C2045 0.951 . S
H2022 C2047 0.951 . S
H2023 C2049 0.950 . S
H2024 C2050 0.950 . S
H2025 C2052 0.950 . S
H2026 C2055 0.950 . S
H2027 C2056 0.950 . S
H2028 C2058 0.950 . S
H2029 C2059 0.950 . S
C2030 H2012 0.951 . S
C2030 C2031 1.366 . S
C2030 C2032 1.388 . S
C2031 C2030 1.366 . S
C2031 C2035 1.385 . S
C2032 H2013 0.951 . S
C2032 C2030 1.388 . S
C2032 C2033 1.366 . S
C2033 C2032 1.366 . S
C2033 C2034 1.414 . S
C2033 C2036 1.499 . S
C2034 H2014 0.950 . S
C2034 C2033 1.414 . S
C2034 C2035 1.374 . S
C2035 H2015 0.950 . S
C2035 C2031 1.385 . S
C2035 C2034 1.374 . S
C2036 C2033 1.499 . S
C2036 C2037 1.373 . S
C2036 C2038 1.389 . S
C2037 H2016 0.950 . S
C2037 C2036 1.373 . S
C2037 C2053 1.377 . S
C2038 C2036 1.389 . S
C2038 C2039 1.524 . S
C2038 C2052 1.377 . S
C2039 C2038 1.524 . S
C2039 C2040 1.397 . S
C2039 C2044 1.363 . S
C2040 H2017 0.950 . S
C2040 C2039 1.397 . S
C2040 C2041 1.334 . S
C2041 H2018 0.950 . S
C2041 C2040 1.334 . S
C2041 C2042 1.287 . S
C2042 C2041 1.287 . S
C2042 C2043 1.524 . S
C2042 H2061 0.913 . S
C2043 H2019 0.950 . S
C2043 C2042 1.524 . S
C2043 C2044 1.415 . S
C2044 H2020 0.950 . S
C2044 C2039 1.363 . S
C2044 C2043 1.415 . S
C2045 H2021 0.951 . S
C2045 C2046 1.366 . S
C2045 C2047 1.388 . S
C2046 C2045 1.366 . S
C2046 C2050 1.385 . S
C2047 H2022 0.951 . S
C2047 C2045 1.388 . S
C2047 C2048 1.366 . S
C2048 C2047 1.366 . S
C2048 C2049 1.414 . S
C2048 C2051 1.499 . S
C2049 H2023 0.950 . S
C2049 C2048 1.414 . S
C2049 C2050 1.374 . S
C2050 H2024 0.950 . S
C2050 C2046 1.385 . S
C2050 C2049 1.374 . S
C2051 C2048 1.499 . S
C2051 C2052 1.373 . S
C2051 C2053 1.389 . S
C2052 H2025 0.950 . S
C2052 C2038 1.377 . S
C2052 C2051 1.373 . S
C2053 C2037 1.377 . S
C2053 C2051 1.389 . S
C2053 C2054 1.524 . S
C2054 C2053 1.524 . S
C2054 C2055 1.397 . S
C2054 C2059 1.363 . S
C2055 H2026 0.950 . S
C2055 C2054 1.397 . S
C2055 C2056 1.334 . S
C2056 H2027 0.950 . S
C2056 C2055 1.334 . S
C2056 C2057 1.287 . S
C2057 C2056 1.287 . S
C2057 C2058 1.524 . S
C2057 H2060 0.999 . S
C2058 H2028 0.950 . S
C2058 C2057 1.524 . S
C2058 C2059 1.415 . S
C2059 H2029 0.950 . S
C2059 C2054 1.363 . S
C2059 C2058 1.415 . S
H2060 C2057 0.999 . S
H2061 C2042 0.913 . S
H2062 C2080 0.951 . S
H2063 C2082 0.951 . S
H2064 C2084 0.950 . S
H2065 C2085 0.950 . S
H2066 C2087 0.950 . S
H2067 C2090 0.950 . S
H2068 C2091 0.950 . S
H2069 C2093 0.950 . S
H2070 C2094 0.950 . S
H2071 C2095 0.951 . S
H2072 C2097 0.951 . S
H2073 C2099 0.950 . S
H2074 C2100 0.950 . S
H2075 C2102 0.950 . S
H2076 C2105 0.950 . S
H2077 C2106 0.950 . S
H2078 C2108 0.950 . S
H2079 C2109 0.950 . S
C2080 H2062 0.951 . S
C2080 C2081 1.366 . S
C2080 C2082 1.388 . S
C2081 C2080 1.366 . S
C2081 C2085 1.385 . S
C2082 H2063 0.951 . S
C2082 C2080 1.388 . S
C2082 C2083 1.366 . S
C2083 C2082 1.366 . S
C2083 C2084 1.414 . S
C2083 C2086 1.499 . S
C2084 H2064 0.950 . S
C2084 C2083 1.414 . S
C2084 C2085 1.374 . S
C2085 H2065 0.950 . S
C2085 C2081 1.385 . S
C2085 C2084 1.374 . S
C2086 C2083 1.499 . S
C2086 C2087 1.373 . S
C2086 C2088 1.389 . S
C2087 H2066 0.950 . S
C2087 C2086 1.373 . S
C2087 C2103 1.377 . S
C2088 C2086 1.389 . S
C2088 C2089 1.524 . S
C2088 C2102 1.377 . S
C2089 C2088 1.524 . S
C2089 C2090 1.397 . S
C2089 C2094 1.363 . S
C2090 H2067 0.950 . S
C2090 C2089 1.397 . S
C2090 C2091 1.334 . S
C2091 H2068 0.950 . S
C2091 C2090 1.334 . S
C2091 C2092 1.287 . S
C2092 C2091 1.287 . S
C2092 C2093 1.524 . S
C2092 H2111 0.913 . S
C2093 H2069 0.950 . S
C2093 C2092 1.524 . S
C2093 C2094 1.415 . S
C2094 H2070 0.950 . S
C2094 C2089 1.363 . S
C2094 C2093 1.415 . S
C2095 H2071 0.951 . S
C2095 C2096 1.366 . S
C2095 C2097 1.388 . S
C2096 C2095 1.366 . S
C2096 C2100 1.385 . S
C2097 H2072 0.951 . S
C2097 C2095 1.388 . S
C2097 C2098 1.366 . S
C2098 C2097 1.366 . S
C2098 C2099 1.414 . S
C2098 C2101 1.499 . S
C2099 H2073 0.950 . S
C2099 C2098 1.414 . S
C2099 C2100 1.374 . S
C2100 H2074 0.950 . S
C2100 C2096 1.385 . S
C2100 C2099 1.374 . S
C2101 C2098 1.499 . S
C2101 C2102 1.373 . S
C2101 C2103 1.389 . S
C2102 H2075 0.950 . S
C2102 C2088 1.377 . S
C2102 C2101 1.373 . S
C2103 C2087 1.377 . S
C2103 C2101 1.389 . S
C2103 C2104 1.524 . S
C2104 C2103 1.524 . S
C2104 C2105 1.397 . S
C2104 C2109 1.363 . S
C2105 H2076 0.950 . S
C2105 C2104 1.397 . S
C2105 C2106 1.334 . S
C2106 H2077 0.950 . S
C2106 C2105 1.334 . S
C2106 C2107 1.287 . S
C2107 C2106 1.287 . S
C2107 C2108 1.524 . S
C2107 H2110 0.999 . S
C2108 H2078 0.950 . S
C2108 C2107 1.524 . S
C2108 C2109 1.415 . S
C2109 H2079 0.950 . S
C2109 C2104 1.363 . S
C2109 C2108 1.415 . S
H2110 C2107 0.999 . S
H2111 C2092 0.913 . S
H2112 C2130 0.951 . S
H2113 C2132 0.951 . S
H2114 C2134 0.950 . S
H2115 C2135 0.950 . S
H2116 C2137 0.950 . S
H2117 C2140 0.950 . S
H2118 C2141 0.950 . S
H2119 C2143 0.950 . S
H2120 C2144 0.950 . S
H2121 C2145 0.951 . S
H2122 C2147 0.951 . S
H2123 C2149 0.950 . S
H2124 C2150 0.950 . S
H2125 C2152 0.950 . S
H2126 C2155 0.950 . S
H2127 C2156 0.950 . S
H2128 C2158 0.950 . S
H2129 C2159 0.950 . S
C2130 H2112 0.951 . S
C2130 C2131 1.366 . S
C2130 C2132 1.388 . S
C2131 C2130 1.366 . S
C2131 C2135 1.385 . S
C2132 H2113 0.951 . S
C2132 C2130 1.388 . S
C2132 C2133 1.366 . S
C2133 C2132 1.366 . S
C2133 C2134 1.414 . S
C2133 C2136 1.499 . S
C2134 H2114 0.950 . S
C2134 C2133 1.414 . S
C2134 C2135 1.374 . S
C2135 H2115 0.950 . S
C2135 C2131 1.385 . S
C2135 C2134 1.374 . S
C2136 C2133 1.499 . S
C2136 C2137 1.373 . S
C2136 C2138 1.389 . S
C2137 H2116 0.950 . S
C2137 C2136 1.373 . S
C2137 C2153 1.377 . S
C2138 C2136 1.389 . S
C2138 C2139 1.524 . S
C2138 C2152 1.377 . S
C2139 C2138 1.524 . S
C2139 C2140 1.397 . S
C2139 C2144 1.363 . S
C2140 H2117 0.950 . S
C2140 C2139 1.397 . S
C2140 C2141 1.334 . S
C2141 H2118 0.950 . S
C2141 C2140 1.334 . S
C2141 C2142 1.287 . S
C2142 C2141 1.287 . S
C2142 C2143 1.524 . S
C2142 H2161 0.913 . S
C2143 H2119 0.950 . S
C2143 C2142 1.524 . S
C2143 C2144 1.415 . S
C2144 H2120 0.950 . S
C2144 C2139 1.363 . S
C2144 C2143 1.415 . S
C2145 H2121 0.951 . S
C2145 C2146 1.366 . S
C2145 C2147 1.388 . S
C2146 C2145 1.366 . S
C2146 C2150 1.385 . S
C2147 H2122 0.951 . S
C2147 C2145 1.388 . S
C2147 C2148 1.366 . S
C2148 C2147 1.366 . S
C2148 C2149 1.414 . S
C2148 C2151 1.499 . S
C2149 H2123 0.950 . S
C2149 C2148 1.414 . S
C2149 C2150 1.374 . S
C2150 H2124 0.950 . S
C2150 C2146 1.385 . S
C2150 C2149 1.374 . S
C2151 C2148 1.499 . S
C2151 C2152 1.373 . S
C2151 C2153 1.389 . S
C2152 H2125 0.950 . S
C2152 C2138 1.377 . S
C2152 C2151 1.373 . S
C2153 C2137 1.377 . S
C2153 C2151 1.389 . S
C2153 C2154 1.524 . S
C2154 C2153 1.524 . S
C2154 C2155 1.397 . S
C2154 C2159 1.363 . S
C2155 H2126 0.950 . S
C2155 C2154 1.397 . S
C2155 C2156 1.334 . S
C2156 H2127 0.950 . S
C2156 C2155 1.334 . S
C2156 C2157 1.287 . S
C2157 C2156 1.287 . S
C2157 C2158 1.524 . S
C2157 H2160 0.999 . S
C2158 H2128 0.950 . S
C2158 C2157 1.524 . S
C2158 C2159 1.415 . S
C2159 H2129 0.950 . S
C2159 C2154 1.363 . S
C2159 C2158 1.415 . S
H2160 C2157 0.999 . S
H2161 C2142 0.913 . S
H2162 C2180 0.951 . S
H2163 C2182 0.951 . S
H2164 C2184 0.950 . S
H2165 C2185 0.950 . S
H2166 C2187 0.950 . S
H2167 C2190 0.950 . S
H2168 C2191 0.950 . S
H2169 C2193 0.950 . S
H2170 C2194 0.950 . S
H2171 C2195 0.951 . S
H2172 C2197 0.951 . S
H2173 C2199 0.950 . S
H2174 C2200 0.950 . S
H2175 C2202 0.950 . S
H2176 C2205 0.950 . S
H2177 C2206 0.950 . S
H2178 C2208 0.950 . S
H2179 C2209 0.950 . S
C2180 H2162 0.951 . S
C2180 C2181 1.366 . S
C2180 C2182 1.388 . S
C2181 C2180 1.366 . S
C2181 C2185 1.385 . S
C2182 H2163 0.951 . S
C2182 C2180 1.388 . S
C2182 C2183 1.366 . S
C2183 C2182 1.366 . S
C2183 C2184 1.414 . S
C2183 C2186 1.499 . S
C2184 H2164 0.950 . S
C2184 C2183 1.414 . S
C2184 C2185 1.374 . S
C2185 H2165 0.950 . S
C2185 C2181 1.385 . S
C2185 C2184 1.374 . S
C2186 C2183 1.499 . S
C2186 C2187 1.373 . S
C2186 C2188 1.389 . S
C2187 H2166 0.950 . S
C2187 C2186 1.373 . S
C2187 C2203 1.377 . S
C2188 C2186 1.389 . S
C2188 C2189 1.524 . S
C2188 C2202 1.377 . S
C2189 C2188 1.524 . S
C2189 C2190 1.397 . S
C2189 C2194 1.363 . S
C2190 H2167 0.950 . S
C2190 C2189 1.397 . S
C2190 C2191 1.334 . S
C2191 H2168 0.950 . S
C2191 C2190 1.334 . S
C2191 C2192 1.287 . S
C2192 C2191 1.287 . S
C2192 C2193 1.524 . S
C2192 H2211 0.913 . S
C2193 H2169 0.950 . S
C2193 C2192 1.524 . S
C2193 C2194 1.415 . S
C2194 H2170 0.950 . S
C2194 C2189 1.363 . S
C2194 C2193 1.415 . S
C2195 H2171 0.951 . S
C2195 C2196 1.366 . S
C2195 C2197 1.388 . S
C2196 C2195 1.366 . S
C2196 C2200 1.385 . S
C2197 H2172 0.951 . S
C2197 C2195 1.388 . S
C2197 C2198 1.366 . S
C2198 C2197 1.366 . S
C2198 C2199 1.414 . S
C2198 C2201 1.499 . S
C2199 H2173 0.950 . S
C2199 C2198 1.414 . S
C2199 C2200 1.374 . S
C2200 H2174 0.950 . S
C2200 C2196 1.385 . S
C2200 C2199 1.374 . S
C2201 C2198 1.499 . S
C2201 C2202 1.373 . S
C2201 C2203 1.389 . S
C2202 H2175 0.950 . S
C2202 C2188 1.377 . S
C2202 C2201 1.373 . S
C2203 C2187 1.377 . S
C2203 C2201 1.389 . S
C2203 C2204 1.524 . S
C2204 C2203 1.524 . S
C2204 C2205 1.397 . S
C2204 C2209 1.363 . S
C2205 H2176 0.950 . S
C2205 C2204 1.397 . S
C2205 C2206 1.334 . S
C2206 H2177 0.950 . S
C2206 C2205 1.334 . S
C2206 C2207 1.287 . S
C2207 C2206 1.287 . S
C2207 C2208 1.524 . S
C2207 H2210 0.999 . S
C2208 H2178 0.950 . S
C2208 C2207 1.524 . S
C2208 C2209 1.415 . S
C2209 H2179 0.950 . S
C2209 C2204 1.363 . S
C2209 C2208 1.415 . S
H2210 C2207 0.999 . S
H2211 C2192 0.913 . S
H2212 C2230 0.951 . S
H2213 C2232 0.951 . S
H2214 C2234 0.950 . S
H2215 C2235 0.950 . S
H2216 C2237 0.950 . S
H2217 C2240 0.950 . S
H2218 C2241 0.950 . S
H2219 C2243 0.950 . S
H2220 C2244 0.950 . S
H2221 C2245 0.951 . S
H2222 C2247 0.951 . S
H2223 C2249 0.950 . S
H2224 C2250 0.950 . S
H2225 C2252 0.950 . S
H2226 C2255 0.950 . S
H2227 C2256 0.950 . S
H2228 C2258 0.950 . S
H2229 C2259 0.950 . S
C2230 H2212 0.951 . S
C2230 C2231 1.366 . S
C2230 C2232 1.388 . S
C2231 C2230 1.366 . S
C2231 C2235 1.385 . S
C2232 H2213 0.951 . S
C2232 C2230 1.388 . S
C2232 C2233 1.366 . S
C2233 C2232 1.366 . S
C2233 C2234 1.414 . S
C2233 C2236 1.499 . S
C2234 H2214 0.950 . S
C2234 C2233 1.414 . S
C2234 C2235 1.374 . S
C2235 H2215 0.950 . S
C2235 C2231 1.385 . S
C2235 C2234 1.374 . S
C2236 C2233 1.499 . S
C2236 C2237 1.373 . S
C2236 C2238 1.389 . S
C2237 H2216 0.950 . S
C2237 C2236 1.373 . S
C2237 C2253 1.377 . S
C2238 C2236 1.389 . S
C2238 C2239 1.524 . S
C2238 C2252 1.377 . S
C2239 C2238 1.524 . S
C2239 C2240 1.397 . S
C2239 C2244 1.363 . S
C2240 H2217 0.950 . S
C2240 C2239 1.397 . S
C2240 C2241 1.334 . S
C2241 H2218 0.950 . S
C2241 C2240 1.334 . S
C2241 C2242 1.287 . S
C2242 C2241 1.287 . S
C2242 C2243 1.524 . S
C2242 H2261 0.913 . S
C2243 H2219 0.950 . S
C2243 C2242 1.524 . S
C2243 C2244 1.415 . S
C2244 H2220 0.950 . S
C2244 C2239 1.363 . S
C2244 C2243 1.415 . S
C2245 H2221 0.951 . S
C2245 C2246 1.366 . S
C2245 C2247 1.388 . S
C2246 C2245 1.366 . S
C2246 C2250 1.385 . S
C2247 H2222 0.951 . S
C2247 C2245 1.388 . S
C2247 C2248 1.366 . S
C2248 C2247 1.366 . S
C2248 C2249 1.414 . S
C2248 C2251 1.499 . S
C2249 H2223 0.950 . S
C2249 C2248 1.414 . S
C2249 C2250 1.374 . S
C2250 H2224 0.950 . S
C2250 C2246 1.385 . S
C2250 C2249 1.374 . S
C2251 C2248 1.499 . S
C2251 C2252 1.373 . S
C2251 C2253 1.389 . S
C2252 H2225 0.950 . S
C2252 C2238 1.377 . S
C2252 C2251 1.373 . S
C2253 C2237 1.377 . S
C2253 C2251 1.389 . S
C2253 C2254 1.524 . S
C2254 C2253 1.524 . S
C2254 C2255 1.397 . S
C2254 C2259 1.363 . S
C2255 H2226 0.950 . S
C2255 C2254 1.397 . S
C2255 C2256 1.334 . S
C2256 H2227 0.950 . S
C2256 C2255 1.334 . S
C2256 C2257 1.287 . S
C2257 C2256 1.287 . S
C2257 C2258 1.524 . S
C2257 H2260 0.999 . S
C2258 H2228 0.950 . S
C2258 C2257 1.524 . S
C2258 C2259 1.415 . S
C2259 H2229 0.950 . S
C2259 C2254 1.363 . S
C2259 C2258 1.415 . S
H2260 C2257 0.999 . S
H2261 C2242 0.913 . S
H2262 C2280 0.951 . S
H2263 C2282 0.951 . S
H2264 C2284 0.950 . S
H2265 C2285 0.950 . S
H2266 C2287 0.950 . S
H2267 C2290 0.950 . S
H2268 C2291 0.950 . S
H2269 C2293 0.950 . S
H2270 C2294 0.950 . S
H2271 C2295 0.951 . S
H2272 C2297 0.951 . S
H2273 C2299 0.950 . S
H2274 C2300 0.950 . S
H2275 C2302 0.950 . S
H2276 C2305 0.950 . S
H2277 C2306 0.950 . S
H2278 C2308 0.950 . S
H2279 C2309 0.950 . S
C2280 H2262 0.951 . S
C2280 C2281 1.366 . S
C2280 C2282 1.388 . S
C2281 C2280 1.366 . S
C2281 C2285 1.385 . S
C2282 H2263 0.951 . S
C2282 C2280 1.388 . S
C2282 C2283 1.366 . S
C2283 C2282 1.366 . S
C2283 C2284 1.414 . S
C2283 C2286 1.499 . S
C2284 H2264 0.950 . S
C2284 C2283 1.414 . S
C2284 C2285 1.374 . S
C2285 H2265 0.950 . S
C2285 C2281 1.385 . S
C2285 C2284 1.374 . S
C2286 C2283 1.499 . S
C2286 C2287 1.373 . S
C2286 C2288 1.389 . S
C2287 H2266 0.950 . S
C2287 C2286 1.373 . S
C2287 C2303 1.377 . S
C2288 C2286 1.389 . S
C2288 C2289 1.524 . S
C2288 C2302 1.377 . S
C2289 C2288 1.524 . S
C2289 C2290 1.397 . S
C2289 C2294 1.363 . S
C2290 H2267 0.950 . S
C2290 C2289 1.397 . S
C2290 C2291 1.334 . S
C2291 H2268 0.950 . S
C2291 C2290 1.334 . S
C2291 C2292 1.287 . S
C2292 C2291 1.287 . S
C2292 C2293 1.524 . S
C2292 H2311 0.913 . S
C2293 H2269 0.950 . S
C2293 C2292 1.524 . S
C2293 C2294 1.415 . S
C2294 H2270 0.950 . S
C2294 C2289 1.363 . S
C2294 C2293 1.415 . S
C2295 H2271 0.951 . S
C2295 C2296 1.366 . S
C2295 C2297 1.388 . S
C2296 C2295 1.366 . S
C2296 C2300 1.385 . S
C2297 H2272 0.951 . S
C2297 C2295 1.388 . S
C2297 C2298 1.366 . S
C2298 C2297 1.366 . S
C2298 C2299 1.414 . S
C2298 C2301 1.499 . S
C2299 H2273 0.950 . S
C2299 C2298 1.414 . S
C2299 C2300 1.374 . S
C2300 H2274 0.950 . S
C2300 C2296 1.385 . S
C2300 C2299 1.374 . S
C2301 C2298 1.499 . S
C2301 C2302 1.373 . S
C2301 C2303 1.389 . S
C2302 H2275 0.950 . S
C2302 C2288 1.377 . S
C2302 C2301 1.373 . S
C2303 C2287 1.377 . S
C2303 C2301 1.389 . S
C2303 C2304 1.524 . S
C2304 C2303 1.524 . S
C2304 C2305 1.397 . S
C2304 C2309 1.363 . S
C2305 H2276 0.950 . S
C2305 C2304 1.397 . S
C2305 C2306 1.334 . S
C2306 H2277 0.950 . S
C2306 C2305 1.334 . S
C2306 C2307 1.287 . S
C2307 C2306 1.287 . S
C2307 C2308 1.524 . S
C2307 H2310 0.999 . S
C2308 H2278 0.950 . S
C2308 C2307 1.524 . S
C2308 C2309 1.415 . S
C2309 H2279 0.950 . S
C2309 C2304 1.363 . S
C2309 C2308 1.415 . S
H2310 C2307 0.999 . S
H2311 C2292 0.913 . S
H2312 C2330 0.951 . S
H2313 C2332 0.951 . S
H2314 C2334 0.950 . S
H2315 C2335 0.950 . S
H2316 C2337 0.950 . S
H2317 C2340 0.950 . S
H2318 C2341 0.950 . S
H2319 C2343 0.950 . S
H2320 C2344 0.950 . S
H2321 C2345 0.951 . S
H2322 C2347 0.951 . S
H2323 C2349 0.950 . S
H2324 C2350 0.950 . S
H2325 C2352 0.956 . S
H2326 C2355 0.950 . S
H2327 C2356 0.950 . S
H2328 C2358 0.950 . S
H2329 C2359 0.950 . S
C2330 H2312 0.951 . S
C2330 C2331 1.366 . S
C2330 C2332 1.388 . S
C2331 C2330 1.366 . S
C2331 C2335 1.385 . S
C2332 H2313 0.951 . S
C2332 C2330 1.388 . S
C2332 C2333 1.366 . S
C2333 C2332 1.366 . S
C2333 C2334 1.414 . S
C2333 C2336 1.499 . S
C2334 H2314 0.950 . S
C2334 C2333 1.414 . S
C2334 C2335 1.374 . S
C2335 H2315 0.950 . S
C2335 C2331 1.385 . S
C2335 C2334 1.374 . S
C2336 C2333 1.499 . S
C2336 C2337 1.373 . S
C2336 C2338 1.389 . S
C2337 H2316 0.950 . S
C2337 C2336 1.373 . S
C2337 C2353 1.377 1_565 S
C2338 C2336 1.389 . S
C2338 C2339 1.524 . S
C2338 C2352 1.367 1_565 S
C2339 C2338 1.524 . S
C2339 C2340 1.397 . S
C2339 C2344 1.363 . S
C2340 H2317 0.950 . S
C2340 C2339 1.397 . S
C2340 C2341 1.334 . S
C2341 H2318 0.950 . S
C2341 C2340 1.334 . S
C2341 C2342 1.287 . S
C2342 C2341 1.287 . S
C2342 C2343 1.524 . S
C2342 H2361 0.913 . S
C2343 H2319 0.950 . S
C2343 C2342 1.524 . S
C2343 C2344 1.415 . S
C2344 H2320 0.950 . S
C2344 C2339 1.363 . S
C2344 C2343 1.415 . S
C2345 H2321 0.951 . S
C2345 C2346 1.366 . S
C2345 C2347 1.388 . S
C2346 C2345 1.366 . S
C2346 C2350 1.385 . S
C2347 H2322 0.951 . S
C2347 C2345 1.388 . S
C2347 C2348 1.366 . S
C2348 C2347 1.366 . S
C2348 C2349 1.414 . S
C2348 C2351 1.499 . S
C2349 H2323 0.950 . S
C2349 C2348 1.414 . S
C2349 C2350 1.374 . S
C2350 H2324 0.950 . S
C2350 C2346 1.385 . S
C2350 C2349 1.374 . S
C2351 C2348 1.499 . S
C2351 C2352 1.377 . S
C2351 C2353 1.389 . S
C2352 H2325 0.956 . S
C2352 C2338 1.367 1_545 S
C2352 C2351 1.377 . S
C2353 C2337 1.377 1_545 S
C2353 C2351 1.389 . S
C2353 C2354 1.524 . S
C2354 C2353 1.524 . S
C2354 C2355 1.397 . S
C2354 C2359 1.363 . S
C2355 H2326 0.950 . S
C2355 C2354 1.397 . S
C2355 C2356 1.334 . S
C2356 H2327 0.950 . S
C2356 C2355 1.334 . S
C2356 C2357 1.287 . S
C2357 C2356 1.287 . S
C2357 C2358 1.524 . S
C2357 H2360 1.009 . S
C2358 H2328 0.950 . S
C2358 C2357 1.524 . S
C2358 C2359 1.415 . S
C2359 H2329 0.950 . S
C2359 C2354 1.363 . S
C2359 C2358 1.415 . S
H2360 C2357 1.009 . S
H2361 C2342 0.913 . S
H2362 C2380 0.951 1_545 S
H2363 C2382 0.951 . S
H2364 C2384 0.950 . S
H2365 C2385 0.950 . S
H2366 C2387 0.950 . S
H2367 C2390 0.950 . S
H2368 C2391 0.950 . S
H2369 C2393 0.950 . S
H2370 C2394 0.950 . S
H2371 C2395 0.951 . S
H2372 C2397 0.951 . S
H2373 C2399 0.950 . S
H2374 C2400 0.950 . S
H2375 C2402 0.950 . S
H2376 C2405 0.950 . S
H2377 C2406 0.950 . S
H2378 C2408 0.950 . S
H2379 C2409 0.950 . S
C2380 H2362 0.951 1_565 S
C2380 C2381 1.366 . S
C2380 C2382 1.388 . S
C2381 C2380 1.366 . S
C2381 C2385 1.385 . S
C2382 H2363 0.951 . S
C2382 C2380 1.388 . S
C2382 C2383 1.366 . S
C2383 C2382 1.366 . S
C2383 C2384 1.414 . S
C2383 C2386 1.499 . S
C2384 H2364 0.950 . S
C2384 C2383 1.414 . S
C2384 C2385 1.374 . S
C2385 H2365 0.950 . S
C2385 C2381 1.385 . S
C2385 C2384 1.374 . S
C2386 C2383 1.499 . S
C2386 C2387 1.373 . S
C2386 C2388 1.389 . S
C2387 H2366 0.950 . S
C2387 C2386 1.373 . S
C2387 C2403 1.377 . S
C2388 C2386 1.389 . S
C2388 C2389 1.524 . S
C2388 C2402 1.377 . S
C2389 C2388 1.524 . S
C2389 C2390 1.397 . S
C2389 C2394 1.363 . S
C2390 H2367 0.950 . S
C2390 C2389 1.397 . S
C2390 C2391 1.334 . S
C2391 H2368 0.950 . S
C2391 C2390 1.334 . S
C2391 C2392 1.287 . S
C2392 C2391 1.287 . S
C2392 C2393 1.524 . S
C2392 H2411 0.913 . S
C2393 H2369 0.950 . S
C2393 C2392 1.524 . S
C2393 C2394 1.415 . S
C2394 H2370 0.950 . S
C2394 C2389 1.363 . S
C2394 C2393 1.415 . S
C2395 H2371 0.951 . S
C2395 C2396 1.366 . S
C2395 C2397 1.388 . S
C2396 C2395 1.366 . S
C2396 C2400 1.385 . S
C2397 H2372 0.951 . S
C2397 C2395 1.388 . S
C2397 C2398 1.366 . S
C2398 C2397 1.366 . S
C2398 C2399 1.414 . S
C2398 C2401 1.499 1_655 S
C2399 H2373 0.950 . S
C2399 C2398 1.414 . S
C2399 C2400 1.374 . S
C2400 H2374 0.950 . S
C2400 C2396 1.385 . S
C2400 C2399 1.374 . S
C2401 C2398 1.499 1_455 S
C2401 C2402 1.373 . S
C2401 C2403 1.389 . S
C2402 H2375 0.950 . S
C2402 C2388 1.377 . S
C2402 C2401 1.373 . S
C2403 C2387 1.377 . S
C2403 C2401 1.389 . S
C2403 C2404 1.524 . S
C2404 C2403 1.524 . S
C2404 C2405 1.397 1_455 S
C2404 C2409 1.363 . S
C2405 H2376 0.950 . S
C2405 C2404 1.397 1_655 S
C2405 C2406 1.334 . S
C2406 H2377 0.950 . S
C2406 C2405 1.334 . S
C2406 C2407 1.287 . S
C2407 C2406 1.287 . S
C2407 C2408 1.524 1_655 S
C2407 H2410 0.999 . S
C2408 H2378 0.950 . S
C2408 C2407 1.524 1_455 S
C2408 C2409 1.415 . S
C2409 H2379 0.950 . S
C2409 C2404 1.363 . S
C2409 C2408 1.415 . S
H2410 C2407 0.999 . S
H2411 C2392 0.913 . S
H2412 C2430 0.951 1_565 S
H2413 C2432 0.951 1_565 S
H2414 C2434 0.950 . S
H2415 C2435 0.950 . S
H2416 C2437 0.950 . S
H2417 C2440 0.950 . S
H2418 C2441 0.950 . S
H2419 C2443 0.950 . S
H2420 C2444 0.950 . S
H2421 C2445 0.951 . S
H2422 C2447 0.951 . S
H2423 C2449 0.947 1_565 S
H2424 C2450 0.953 . S
H2425 C2452 0.950 . S
H2426 C2455 0.950 . S
H2427 C2456 0.950 . S
H2428 C2458 0.950 . S
H2429 C2459 0.950 . S
C2430 H2412 0.951 1_545 S
C2430 C2431 1.366 . S
C2430 C2432 1.388 . S
C2431 C2430 1.366 . S
C2431 C2435 1.385 . S
C2432 H2413 0.951 1_545 S
C2432 C2430 1.388 . S
C2432 C2433 1.366 . S
C2433 C2432 1.366 . S
C2433 C2434 1.414 . S
C2433 C2436 1.499 . S
C2434 H2414 0.950 . S
C2434 C2433 1.414 . S
C2434 C2435 1.374 . S
C2435 H2415 0.950 . S
C2435 C2431 1.385 . S
C2435 C2434 1.374 . S
C2436 C2433 1.499 . S
C2436 C2437 1.373 . S
C2436 C2438 1.389 1_545 S
C2437 H2416 0.950 . S
C2437 C2436 1.373 . S
C2437 C2453 1.377 1_554 S
C2438 C2436 1.389 1_565 S
C2438 C2439 1.524 . S
C2438 C2452 1.377 1_554 S
C2439 C2438 1.524 . S
C2439 C2440 1.397 . S
C2439 C2444 1.363 . S
C2440 H2417 0.950 . S
C2440 C2439 1.397 . S
C2440 C2441 1.334 . S
C2441 H2418 0.950 . S
C2441 C2440 1.334 . S
C2441 C2442 1.287 . S
C2442 C2441 1.287 . S
C2442 C2443 1.524 . S
C2442 H2461 0.913 . S
C2443 H2419 0.950 . S
C2443 C2442 1.524 . S
C2443 C2444 1.415 . S
C2444 H2420 0.950 . S
C2444 C2439 1.363 . S
C2444 C2443 1.415 . S
C2445 H2421 0.951 . S
C2445 C2446 1.366 . S
C2445 C2447 1.388 . S
C2446 C2445 1.366 . S
C2446 C2450 1.383 1_545 S
C2447 H2422 0.951 . S
C2447 C2445 1.388 . S
C2447 C2448 1.366 . S
C2448 C2447 1.366 . S
C2448 C2449 1.419 . S
C2448 C2451 1.499 . S
C2449 H2423 0.947 1_545 S
C2449 C2448 1.419 . S
C2449 C2450 1.373 1_545 S
C2450 H2424 0.953 . S
C2450 C2446 1.383 1_565 S
C2450 C2449 1.373 1_565 S
C2451 C2448 1.499 . S
C2451 C2452 1.373 1_545 S
C2451 C2453 1.389 . S
C2452 H2425 0.950 . S
C2452 C2438 1.377 1_556 S
C2452 C2451 1.373 1_565 S
C2453 C2437 1.377 1_556 S
C2453 C2451 1.389 . S
C2453 C2454 1.524 . S
C2454 C2453 1.524 . S
C2454 C2455 1.397 . S
C2454 C2459 1.363 . S
C2455 H2426 0.950 . S
C2455 C2454 1.397 . S
C2455 C2456 1.334 . S
C2456 H2427 0.950 . S
C2456 C2455 1.334 . S
C2456 C2457 1.287 . S
C2457 C2456 1.287 . S
C2457 C2458 1.524 . S
C2457 H2460 0.999 . S
C2458 H2428 0.950 . S
C2458 C2457 1.524 . S
C2458 C2459 1.415 . S
C2459 H2429 0.950 . S
C2459 C2454 1.363 . S
C2459 C2458 1.415 . S
H2460 C2457 0.999 . S
H2461 C2442 0.913 . S
H2462 C2480 0.951 . S
H2463 C2482 0.951 . S
H2464 C2484 0.950 . S
H2465 C2485 0.950 . S
H2466 C2487 0.950 1_655 S
H2467 C2490 0.950 . S
H2468 C2491 0.950 . S
H2469 C2493 0.950 . S
H2470 C2494 0.950 . S
H2471 C2495 0.951 . S
H2472 C2497 0.951 . S
H2473 C2499 0.950 . S
H2474 C2500 0.950 . S
H2475 C2502 0.950 . S
H2476 C2505 0.950 . S
H2477 C2506 0.950 . S
H2478 C2508 0.950 . S
H2479 C2509 0.950 . S
C2480 H2462 0.951 . S
C2480 C2481 1.366 . S
C2480 C2482 1.388 . S
C2481 C2480 1.366 . S
C2481 C2485 1.385 . S
C2482 H2463 0.951 . S
C2482 C2480 1.388 . S
C2482 C2483 1.366 . S
C2483 C2482 1.366 . S
C2483 C2484 1.414 . S
C2483 C2486 1.499 . S
C2484 H2464 0.950 . S
C2484 C2483 1.414 . S
C2484 C2485 1.374 . S
C2485 H2465 0.950 . S
C2485 C2481 1.385 . S
C2485 C2484 1.374 . S
C2486 C2483 1.499 . S
C2486 C2487 1.373 . S
C2486 C2488 1.389 . S
C2487 H2466 0.950 1_455 S
C2487 C2486 1.373 . S
C2487 C2503 1.380 1_556 S
C2488 C2486 1.389 . S
C2488 C2489 1.524 . S
C2488 C2502 1.377 1_556 S
C2489 C2488 1.524 . S
C2489 C2490 1.397 . S
C2489 C2494 1.363 . S
C2490 H2467 0.950 . S
C2490 C2489 1.397 . S
C2490 C2491 1.334 . S
C2491 H2468 0.950 . S
C2491 C2490 1.334 . S
C2491 C2492 1.287 . S
C2492 C2491 1.287 . S
C2492 C2493 1.524 . S
C2492 H2511 0.913 . S
C2493 H2469 0.950 . S
C2493 C2492 1.524 . S
C2493 C2494 1.415 . S
C2494 H2470 0.950 . S
C2494 C2489 1.363 . S
C2494 C2493 1.415 . S
C2495 H2471 0.951 . S
C2495 C2496 1.366 . S
C2495 C2497 1.388 . S
C2496 C2495 1.366 . S
C2496 C2500 1.385 . S
C2497 H2472 0.951 . S
C2497 C2495 1.388 . S
C2497 C2498 1.366 . S
C2498 C2497 1.366 . S
C2498 C2499 1.414 . S
C2498 C2501 1.499 . S
C2499 H2473 0.950 . S
C2499 C2498 1.414 . S
C2499 C2500 1.374 . S
C2500 H2474 0.950 . S
C2500 C2496 1.385 . S
C2500 C2499 1.374 . S
C2501 C2498 1.499 . S
C2501 C2502 1.373 . S
C2501 C2503 1.393 . S
C2502 H2475 0.950 . S
C2502 C2488 1.377 1_554 S
C2502 C2501 1.373 . S
C2503 C2487 1.380 1_554 S
C2503 C2501 1.393 . S
C2503 C2504 1.516 1_455 S
C2504 C2503 1.516 1_655 S
C2504 C2505 1.397 . S
C2504 C2509 1.363 . S
C2505 H2476 0.950 . S
C2505 C2504 1.397 . S
C2505 C2506 1.334 . S
C2506 H2477 0.950 . S
C2506 C2505 1.334 . S
C2506 C2507 1.287 . S
C2507 C2506 1.287 . S
C2507 C2508 1.524 . S
C2507 H2510 0.999 . S
C2508 H2478 0.950 . S
C2508 C2507 1.524 . S
C2508 C2509 1.415 . S
C2509 H2479 0.950 . S
C2509 C2504 1.363 . S
C2509 C2508 1.415 . S
H2510 C2507 0.999 . S
H2511 C2492 0.913 . S
H2512 C2530 0.951 . S
H2513 C2532 0.951 . S
H2514 C2534 0.950 . S
H2515 C2535 0.950 . S
H2516 C2537 0.950 . S
H2517 C2540 0.950 . S
H2518 C2541 0.950 . S
H2519 C2543 0.950 . S
H2520 C2544 0.950 . S
H2521 C2545 0.951 . S
H2522 C2547 0.951 . S
H2523 C2549 0.950 . S
H2524 C2550 0.950 . S
H2525 C2552 0.950 . S
H2526 C2555 0.950 . S
H2527 C2556 0.950 . S
H2528 C2558 0.950 . S
H2529 C2559 0.950 . S
C2530 H2512 0.951 . S
C2530 C2531 1.366 . S
C2530 C2532 1.388 . S
C2531 C2530 1.366 . S
C2531 C2535 1.385 . S
C2532 H2513 0.951 . S
C2532 C2530 1.388 . S
C2532 C2533 1.366 . S
C2533 C2532 1.366 . S
C2533 C2534 1.414 . S
C2533 C2536 1.499 . S
C2534 H2514 0.950 . S
C2534 C2533 1.414 . S
C2534 C2535 1.374 . S
C2535 H2515 0.950 . S
C2535 C2531 1.385 . S
C2535 C2534 1.374 . S
C2536 C2533 1.499 . S
C2536 C2537 1.373 . S
C2536 C2538 1.389 . S
C2537 H2516 0.950 . S
C2537 C2536 1.373 . S
C2537 C2553 1.377 1_556 S
C2538 C2536 1.389 . S
C2538 C2539 1.524 . S
C2538 C2552 1.377 1_556 S
C2539 C2538 1.524 . S
C2539 C2540 1.397 . S
C2539 C2544 1.363 . S
C2540 H2517 0.950 . S
C2540 C2539 1.397 . S
C2540 C2541 1.334 . S
C2541 H2518 0.950 . S
C2541 C2540 1.334 . S
C2541 C2542 1.287 . S
C2542 C2541 1.287 . S
C2542 C2543 1.524 . S
C2542 H2561 0.913 . S
C2543 H2519 0.950 . S
C2543 C2542 1.524 . S
C2543 C2544 1.415 . S
C2544 H2520 0.950 . S
C2544 C2539 1.363 . S
C2544 C2543 1.415 . S
C2545 H2521 0.951 . S
C2545 C2546 1.366 . S
C2545 C2547 1.388 . S
C2546 C2545 1.366 . S
C2546 C2550 1.385 . S
C2547 H2522 0.951 . S
C2547 C2545 1.388 . S
C2547 C2548 1.366 . S
C2548 C2547 1.366 . S
C2548 C2549 1.414 . S
C2548 C2551 1.499 . S
C2549 H2523 0.950 . S
C2549 C2548 1.414 . S
C2549 C2550 1.374 . S
C2550 H2524 0.950 . S
C2550 C2546 1.385 . S
C2550 C2549 1.374 . S
C2551 C2548 1.499 . S
C2551 C2552 1.373 . S
C2551 C2553 1.389 . S
C2552 H2525 0.950 . S
C2552 C2538 1.377 1_554 S
C2552 C2551 1.373 . S
C2553 C2537 1.377 1_554 S
C2553 C2551 1.389 . S
C2553 C2554 1.524 . S
C2554 C2553 1.524 . S
C2554 C2555 1.397 . S
C2554 C2559 1.363 . S
C2555 H2526 0.950 . S
C2555 C2554 1.397 . S
C2555 C2556 1.334 . S
C2556 H2527 0.950 . S
C2556 C2555 1.334 . S
C2556 C2557 1.287 . S
C2557 C2556 1.287 . S
C2557 C2558 1.524 . S
C2557 H2560 0.999 . S
C2558 H2528 0.950 . S
C2558 C2557 1.524 . S
C2558 C2559 1.415 . S
C2559 H2529 0.950 . S
C2559 C2554 1.363 . S
C2559 C2558 1.415 . S
H2560 C2557 0.999 . S
H2561 C2542 0.913 . S
H2562 C2580 0.951 . S
H2563 C2582 0.951 . S
H2564 C2584 0.950 . S
H2565 C2585 0.950 . S
H2566 C2587 0.950 . S
H2567 C2590 0.950 . S
H2568 C2591 0.950 . S
H2569 C2593 0.950 . S
H2570 C2594 0.950 . S
H2571 C2595 0.951 . S
H2572 C2597 0.951 . S
H2573 C2599 0.950 . S
H2574 C2600 0.950 . S
H2575 C2602 0.950 . S
H2576 C2605 0.950 . S
H2577 C2606 0.950 . S
H2578 C2608 0.950 . S
H2579 C2609 0.950 . S
C2580 H2562 0.951 . S
C2580 C2581 1.366 . S
C2580 C2582 1.388 . S
C2581 C2580 1.366 . S
C2581 C2585 1.385 . S
C2582 H2563 0.951 . S
C2582 C2580 1.388 . S
C2582 C2583 1.366 . S
C2583 C2582 1.366 . S
C2583 C2584 1.414 . S
C2583 C2586 1.499 . S
C2584 H2564 0.950 . S
C2584 C2583 1.414 . S
C2584 C2585 1.374 . S
C2585 H2565 0.950 . S
C2585 C2581 1.385 . S
C2585 C2584 1.374 . S
C2586 C2583 1.499 . S
C2586 C2587 1.373 . S
C2586 C2588 1.389 . S
C2587 H2566 0.950 . S
C2587 C2586 1.373 . S
C2587 C2603 1.377 . S
C2588 C2586 1.389 . S
C2588 C2589 1.524 . S
C2588 C2602 1.377 . S
C2589 C2588 1.524 . S
C2589 C2590 1.397 . S
C2589 C2594 1.363 . S
C2590 H2567 0.950 . S
C2590 C2589 1.397 . S
C2590 C2591 1.334 . S
C2591 H2568 0.950 . S
C2591 C2590 1.334 . S
C2591 C2592 1.287 . S
C2592 C2591 1.287 . S
C2592 C2593 1.524 . S
C2592 H2611 0.913 . S
C2593 H2569 0.950 . S
C2593 C2592 1.524 . S
C2593 C2594 1.415 . S
C2594 H2570 0.950 . S
C2594 C2589 1.363 . S
C2594 C2593 1.415 . S
C2595 H2571 0.951 . S
C2595 C2596 1.366 . S
C2595 C2597 1.388 . S
C2596 C2595 1.366 . S
C2596 C2600 1.385 . S
C2597 H2572 0.951 . S
C2597 C2595 1.388 . S
C2597 C2598 1.366 . S
C2598 C2597 1.366 . S
C2598 C2599 1.414 . S
C2598 C2601 1.499 . S
C2599 H2573 0.950 . S
C2599 C2598 1.414 . S
C2599 C2600 1.374 . S
C2600 H2574 0.950 . S
C2600 C2596 1.385 . S
C2600 C2599 1.374 . S
C2601 C2598 1.499 . S
C2601 C2602 1.373 . S
C2601 C2603 1.389 . S
C2602 H2575 0.950 . S
C2602 C2588 1.377 . S
C2602 C2601 1.373 . S
C2603 C2587 1.377 . S
C2603 C2601 1.389 . S
C2603 C2604 1.524 . S
C2604 C2603 1.524 . S
C2604 C2605 1.397 . S
C2604 C2609 1.363 . S
C2605 H2576 0.950 . S
C2605 C2604 1.397 . S
C2605 C2606 1.334 . S
C2606 H2577 0.950 . S
C2606 C2605 1.334 . S
C2606 C2607 1.287 . S
C2607 C2606 1.287 . S
C2607 C2608 1.524 . S
C2607 H2610 0.999 . S
C2608 H2578 0.950 . S
C2608 C2607 1.524 . S
C2608 C2609 1.415 . S
C2609 H2579 0.950 . S
C2609 C2604 1.363 . S
C2609 C2608 1.415 . S
H2610 C2607 0.999 . S
H2611 C2592 0.913 . S
H2612 C2630 0.951 . S
H2613 C2632 0.951 . S
H2614 C2634 0.950 . S
H2615 C2635 0.950 . S
H2616 C2637 0.950 . S
H2617 C2640 0.950 . S
H2618 C2641 0.950 . S
H2619 C2643 0.950 . S
H2620 C2644 0.950 . S
H2621 C2645 0.951 . S
H2622 C2647 0.951 . S
H2623 C2649 0.950 . S
H2624 C2650 0.950 . S
H2625 C2652 0.950 . S
H2626 C2655 0.950 . S
H2627 C2656 0.950 . S
H2628 C2658 0.950 . S
H2629 C2659 0.950 . S
C2630 H2612 0.951 . S
C2630 C2631 1.366 . S
C2630 C2632 1.388 . S
C2631 C2630 1.366 . S
C2631 C2635 1.385 . S
C2632 H2613 0.951 . S
C2632 C2630 1.388 . S
C2632 C2633 1.366 . S
C2633 C2632 1.366 . S
C2633 C2634 1.414 . S
C2633 C2636 1.499 . S
C2634 H2614 0.950 . S
C2634 C2633 1.414 . S
C2634 C2635 1.374 . S
C2635 H2615 0.950 . S
C2635 C2631 1.385 . S
C2635 C2634 1.374 . S
C2636 C2633 1.499 . S
C2636 C2637 1.373 . S
C2636 C2638 1.389 . S
C2637 H2616 0.950 . S
C2637 C2636 1.373 . S
C2637 C2653 1.377 . S
C2638 C2636 1.389 . S
C2638 C2639 1.524 . S
C2638 C2652 1.377 . S
C2639 C2638 1.524 . S
C2639 C2640 1.397 . S
C2639 C2644 1.363 . S
C2640 H2617 0.950 . S
C2640 C2639 1.397 . S
C2640 C2641 1.334 . S
C2641 H2618 0.950 . S
C2641 C2640 1.334 . S
C2641 C2642 1.287 . S
C2642 C2641 1.287 . S
C2642 C2643 1.524 . S
C2642 H2661 0.913 . S
C2643 H2619 0.950 . S
C2643 C2642 1.524 . S
C2643 C2644 1.415 . S
C2644 H2620 0.950 . S
C2644 C2639 1.363 . S
C2644 C2643 1.415 . S
C2645 H2621 0.951 . S
C2645 C2646 1.366 . S
C2645 C2647 1.388 . S
C2646 C2645 1.366 . S
C2646 C2650 1.385 . S
C2647 H2622 0.951 . S
C2647 C2645 1.388 . S
C2647 C2648 1.366 . S
C2648 C2647 1.366 . S
C2648 C2649 1.414 . S
C2648 C2651 1.499 . S
C2649 H2623 0.950 . S
C2649 C2648 1.414 . S
C2649 C2650 1.374 . S
C2650 H2624 0.950 . S
C2650 C2646 1.385 . S
C2650 C2649 1.374 . S
C2651 C2648 1.499 . S
C2651 C2652 1.373 . S
C2651 C2653 1.389 . S
C2652 H2625 0.950 . S
C2652 C2638 1.377 . S
C2652 C2651 1.373 . S
C2653 C2637 1.377 . S
C2653 C2651 1.389 . S
C2653 C2654 1.524 . S
C2654 C2653 1.524 . S
C2654 C2655 1.397 . S
C2654 C2659 1.363 . S
C2655 H2626 0.950 . S
C2655 C2654 1.397 . S
C2655 C2656 1.334 . S
C2656 H2627 0.950 . S
C2656 C2655 1.334 . S
C2656 C2657 1.287 . S
C2657 C2656 1.287 . S
C2657 C2658 1.524 . S
C2657 H2660 0.999 . S
C2658 H2628 0.950 . S
C2658 C2657 1.524 . S
C2658 C2659 1.415 . S
C2659 H2629 0.950 . S
C2659 C2654 1.363 . S
C2659 C2658 1.415 . S
H2660 C2657 0.999 . S
H2661 C2642 0.913 . S
H2662 C2680 0.951 . S
H2663 C2682 0.951 . S
H2664 C2684 0.950 . S
H2665 C2685 0.950 . S
H2666 C2687 0.950 . S
H2667 C2690 0.950 . S
H2668 C2691 0.950 . S
H2669 C2693 0.950 . S
H2670 C2694 0.950 . S
H2671 C2695 0.951 . S
H2672 C2697 0.951 . S
H2673 C2699 0.950 . S
H2674 C2700 0.950 . S
H2675 C2702 0.950 . S
H2676 C2705 0.950 . S
H2677 C2706 0.950 . S
H2678 C2708 0.950 . S
H2679 C2709 0.950 . S
C2680 H2662 0.951 . S
C2680 C2681 1.366 . S
C2680 C2682 1.388 . S
C2681 C2680 1.366 . S
C2681 C2685 1.385 . S
C2682 H2663 0.951 . S
C2682 C2680 1.388 . S
C2682 C2683 1.366 . S
C2683 C2682 1.366 . S
C2683 C2684 1.414 . S
C2683 C2686 1.499 . S
C2684 H2664 0.950 . S
C2684 C2683 1.414 . S
C2684 C2685 1.374 . S
C2685 H2665 0.950 . S
C2685 C2681 1.385 . S
C2685 C2684 1.374 . S
C2686 C2683 1.499 . S
C2686 C2687 1.373 . S
C2686 C2688 1.389 . S
C2687 H2666 0.950 . S
C2687 C2686 1.373 . S
C2687 C2703 1.377 . S
C2688 C2686 1.389 . S
C2688 C2689 1.524 . S
C2688 C2702 1.377 . S
C2689 C2688 1.524 . S
C2689 C2690 1.397 . S
C2689 C2694 1.363 . S
C2690 H2667 0.950 . S
C2690 C2689 1.397 . S
C2690 C2691 1.334 . S
C2691 H2668 0.950 . S
C2691 C2690 1.334 . S
C2691 C2692 1.287 . S
C2692 C2691 1.287 . S
C2692 C2693 1.524 . S
C2692 H2711 0.913 . S
C2693 H2669 0.950 . S
C2693 C2692 1.524 . S
C2693 C2694 1.415 . S
C2694 H2670 0.950 . S
C2694 C2689 1.363 . S
C2694 C2693 1.415 . S
C2695 H2671 0.951 . S
C2695 C2696 1.366 . S
C2695 C2697 1.388 . S
C2696 C2695 1.366 . S
C2696 C2700 1.385 . S
C2697 H2672 0.951 . S
C2697 C2695 1.388 . S
C2697 C2698 1.366 . S
C2698 C2697 1.366 . S
C2698 C2699 1.414 . S
C2698 C2701 1.499 . S
C2699 H2673 0.950 . S
C2699 C2698 1.414 . S
C2699 C2700 1.374 . S
C2700 H2674 0.950 . S
C2700 C2696 1.385 . S
C2700 C2699 1.374 . S
C2701 C2698 1.499 . S
C2701 C2702 1.373 . S
C2701 C2703 1.389 . S
C2702 H2675 0.950 . S
C2702 C2688 1.377 . S
C2702 C2701 1.373 . S
C2703 C2687 1.377 . S
C2703 C2701 1.389 . S
C2703 C2704 1.524 . S
C2704 C2703 1.524 . S
C2704 C2705 1.397 . S
C2704 C2709 1.363 . S
C2705 H2676 0.950 . S
C2705 C2704 1.397 . S
C2705 C2706 1.334 . S
C2706 H2677 0.950 . S
C2706 C2705 1.334 . S
C2706 C2707 1.287 . S
C2707 C2706 1.287 . S
C2707 C2708 1.524 . S
C2707 H2710 0.999 . S
C2708 H2678 0.950 . S
C2708 C2707 1.524 . S
C2708 C2709 1.415 . S
C2709 H2679 0.950 . S
C2709 C2704 1.363 . S
C2709 C2708 1.415 . S
H2710 C2707 0.999 . S
H2711 C2692 0.913 . S
H2712 C2730 0.951 . S
H2713 C2732 0.951 . S
H2714 C2734 0.950 . S
H2715 C2735 0.950 . S
H2716 C2737 0.950 . S
H2717 C2740 0.950 . S
H2718 C2741 0.950 . S
H2719 C2743 0.950 . S
H2720 C2744 0.950 . S
H2721 C2745 0.951 . S
H2722 C2747 0.951 . S
H2723 C2749 0.950 . S
H2724 C2750 0.950 . S
H2725 C2752 0.950 . S
H2726 C2755 0.950 . S
H2727 C2756 0.950 . S
H2728 C2758 0.950 . S
H2729 C2759 0.950 . S
C2730 H2712 0.951 . S
C2730 C2731 1.366 . S
C2730 C2732 1.388 . S
C2731 C2730 1.366 . S
C2731 C2735 1.385 . S
C2732 H2713 0.951 . S
C2732 C2730 1.388 . S
C2732 C2733 1.366 . S
C2733 C2732 1.366 . S
C2733 C2734 1.414 . S
C2733 C2736 1.499 . S
C2734 H2714 0.950 . S
C2734 C2733 1.414 . S
C2734 C2735 1.374 . S
C2735 H2715 0.950 . S
C2735 C2731 1.385 . S
C2735 C2734 1.374 . S
C2736 C2733 1.499 . S
C2736 C2737 1.373 . S
C2736 C2738 1.389 . S
C2737 H2716 0.950 . S
C2737 C2736 1.373 . S
C2737 C2753 1.377 . S
C2738 C2736 1.389 . S
C2738 C2739 1.524 . S
C2738 C2752 1.377 . S
C2739 C2738 1.524 . S
C2739 C2740 1.397 . S
C2739 C2744 1.363 . S
C2740 H2717 0.950 . S
C2740 C2739 1.397 . S
C2740 C2741 1.334 . S
C2741 H2718 0.950 . S
C2741 C2740 1.334 . S
C2741 C2742 1.287 . S
C2742 C2741 1.287 . S
C2742 C2743 1.524 . S
C2742 H2761 0.913 . S
C2743 H2719 0.950 . S
C2743 C2742 1.524 . S
C2743 C2744 1.415 . S
C2744 H2720 0.950 . S
C2744 C2739 1.363 . S
C2744 C2743 1.415 . S
C2745 H2721 0.951 . S
C2745 C2746 1.366 . S
C2745 C2747 1.388 . S
C2746 C2745 1.366 . S
C2746 C2750 1.385 . S
C2747 H2722 0.951 . S
C2747 C2745 1.388 . S
C2747 C2748 1.366 . S
C2748 C2747 1.366 . S
C2748 C2749 1.414 . S
C2748 C2751 1.499 . S
C2749 H2723 0.950 . S
C2749 C2748 1.414 . S
C2749 C2750 1.374 . S
C2750 H2724 0.950 . S
C2750 C2746 1.385 . S
C2750 C2749 1.374 . S
C2751 C2748 1.499 . S
C2751 C2752 1.373 . S
C2751 C2753 1.389 . S
C2752 H2725 0.950 . S
C2752 C2738 1.377 . S
C2752 C2751 1.373 . S
C2753 C2737 1.377 . S
C2753 C2751 1.389 . S
C2753 C2754 1.524 . S
C2754 C2753 1.524 . S
C2754 C2755 1.397 . S
C2754 C2759 1.363 . S
C2755 H2726 0.950 . S
C2755 C2754 1.397 . S
C2755 C2756 1.334 . S
C2756 H2727 0.950 . S
C2756 C2755 1.334 . S
C2756 C2757 1.287 . S
C2757 C2756 1.287 . S
C2757 C2758 1.524 . S
C2757 H2760 0.999 . S
C2758 H2728 0.950 . S
C2758 C2757 1.524 . S
C2758 C2759 1.415 . S
C2759 H2729 0.950 . S
C2759 C2754 1.363 . S
C2759 C2758 1.415 . S
H2760 C2757 0.999 . S
H2761 C2742 0.913 . S
H2762 C2780 0.951 . S
H2763 C2782 0.951 . S
H2764 C2784 0.950 . S
H2765 C2785 0.950 . S
H2766 C2787 0.950 . S
H2767 C2790 0.950 . S
H2768 C2791 0.950 . S
H2769 C2793 0.950 . S
H2770 C2794 0.950 . S
H2771 C2795 0.951 . S
H2772 C2797 0.951 . S
H2773 C2799 0.950 . S
H2774 C2800 0.950 . S
H2775 C2802 0.950 . S
H2776 C2805 0.950 . S
H2777 C2806 0.950 . S
H2778 C2808 0.950 . S
H2779 C2809 0.950 . S
C2780 H2762 0.951 . S
C2780 C2781 1.366 . S
C2780 C2782 1.388 . S
C2781 C2780 1.366 . S
C2781 C2785 1.385 . S
C2782 H2763 0.951 . S
C2782 C2780 1.388 . S
C2782 C2783 1.366 . S
C2783 C2782 1.366 . S
C2783 C2784 1.414 . S
C2783 C2786 1.499 . S
C2784 H2764 0.950 . S
C2784 C2783 1.414 . S
C2784 C2785 1.374 . S
C2785 H2765 0.950 . S
C2785 C2781 1.385 . S
C2785 C2784 1.374 . S
C2786 C2783 1.499 . S
C2786 C2787 1.373 . S
C2786 C2788 1.389 . S
C2787 H2766 0.950 . S
C2787 C2786 1.373 . S
C2787 C2803 1.377 . S
C2788 C2786 1.389 . S
C2788 C2789 1.524 . S
C2788 C2802 1.377 . S
C2789 C2788 1.524 . S
C2789 C2790 1.397 . S
C2789 C2794 1.363 . S
C2790 H2767 0.950 . S
C2790 C2789 1.397 . S
C2790 C2791 1.334 . S
C2791 H2768 0.950 . S
C2791 C2790 1.334 . S
C2791 C2792 1.287 . S
C2792 C2791 1.287 . S
C2792 C2793 1.524 . S
C2792 H2811 0.913 . S
C2793 H2769 0.950 . S
C2793 C2792 1.524 . S
C2793 C2794 1.415 . S
C2794 H2770 0.950 . S
C2794 C2789 1.363 . S
C2794 C2793 1.415 . S
C2795 H2771 0.951 . S
C2795 C2796 1.366 . S
C2795 C2797 1.388 . S
C2796 C2795 1.366 . S
C2796 C2800 1.385 . S
C2797 H2772 0.951 . S
C2797 C2795 1.388 . S
C2797 C2798 1.366 . S
C2798 C2797 1.366 . S
C2798 C2799 1.414 . S
C2798 C2801 1.499 . S
C2799 H2773 0.950 . S
C2799 C2798 1.414 . S
C2799 C2800 1.374 . S
C2800 H2774 0.950 . S
C2800 C2796 1.385 . S
C2800 C2799 1.374 . S
C2801 C2798 1.499 . S
C2801 C2802 1.373 . S
C2801 C2803 1.389 . S
C2802 H2775 0.950 . S
C2802 C2788 1.377 . S
C2802 C2801 1.373 . S
C2803 C2787 1.377 . S
C2803 C2801 1.389 . S
C2803 C2804 1.524 . S
C2804 C2803 1.524 . S
C2804 C2805 1.397 . S
C2804 C2809 1.363 . S
C2805 H2776 0.950 . S
C2805 C2804 1.397 . S
C2805 C2806 1.334 . S
C2806 H2777 0.950 . S
C2806 C2805 1.334 . S
C2806 C2807 1.287 . S
C2807 C2806 1.287 . S
C2807 C2808 1.524 . S
C2807 H2810 0.999 . S
C2808 H2778 0.950 . S
C2808 C2807 1.524 . S
C2808 C2809 1.415 . S
C2809 H2779 0.950 . S
C2809 C2804 1.363 . S
C2809 C2808 1.415 . S
H2810 C2807 0.999 . S
H2811 C2792 0.913 . S
H2812 C2830 0.951 . S
H2813 C2832 0.951 . S
H2814 C2834 0.950 . S
H2815 C2835 0.950 . S
H2816 C2837 0.950 . S
H2817 C2840 0.950 . S
H2818 C2841 0.950 . S
H2819 C2843 0.950 . S
H2820 C2844 0.950 . S
H2821 C2845 0.951 . S
H2822 C2847 0.951 . S
H2823 C2849 0.950 . S
H2824 C2850 0.950 . S
H2825 C2852 0.950 . S
H2826 C2855 0.950 . S
H2827 C2856 0.950 . S
H2828 C2858 0.950 . S
H2829 C2859 0.950 . S
C2830 H2812 0.951 . S
C2830 C2831 1.366 . S
C2830 C2832 1.388 . S
C2831 C2830 1.366 . S
C2831 C2835 1.385 . S
C2832 H2813 0.951 . S
C2832 C2830 1.388 . S
C2832 C2833 1.366 . S
C2833 C2832 1.366 . S
C2833 C2834 1.414 . S
C2833 C2836 1.499 . S
C2834 H2814 0.950 . S
C2834 C2833 1.414 . S
C2834 C2835 1.374 . S
C2835 H2815 0.950 . S
C2835 C2831 1.385 . S
C2835 C2834 1.374 . S
C2836 C2833 1.499 . S
C2836 C2837 1.373 . S
C2836 C2838 1.389 . S
C2837 H2816 0.950 . S
C2837 C2836 1.373 . S
C2837 C2853 1.377 . S
C2838 C2836 1.389 . S
C2838 C2839 1.524 . S
C2838 C2852 1.377 . S
C2839 C2838 1.524 . S
C2839 C2840 1.397 . S
C2839 C2844 1.363 . S
C2840 H2817 0.950 . S
C2840 C2839 1.397 . S
C2840 C2841 1.334 . S
C2841 H2818 0.950 . S
C2841 C2840 1.334 . S
C2841 C2842 1.287 . S
C2842 C2841 1.287 . S
C2842 C2843 1.524 . S
C2842 H2861 0.913 . S
C2843 H2819 0.950 . S
C2843 C2842 1.524 . S
C2843 C2844 1.415 . S
C2844 H2820 0.950 . S
C2844 C2839 1.363 . S
C2844 C2843 1.415 . S
C2845 H2821 0.951 . S
C2845 C2846 1.366 . S
C2845 C2847 1.388 . S
C2846 C2845 1.366 . S
C2846 C2850 1.385 . S
C2847 H2822 0.951 . S
C2847 C2845 1.388 . S
C2847 C2848 1.366 . S
C2848 C2847 1.366 . S
C2848 C2849 1.414 . S
C2848 C2851 1.499 . S
C2849 H2823 0.950 . S
C2849 C2848 1.414 . S
C2849 C2850 1.374 . S
C2850 H2824 0.950 . S
C2850 C2846 1.385 . S
C2850 C2849 1.374 . S
C2851 C2848 1.499 . S
C2851 C2852 1.373 . S
C2851 C2853 1.389 . S
C2852 H2825 0.950 . S
C2852 C2838 1.377 . S
C2852 C2851 1.373 . S
C2853 C2837 1.377 . S
C2853 C2851 1.389 . S
C2853 C2854 1.524 . S
C2854 C2853 1.524 . S
C2854 C2855 1.397 . S
C2854 C2859 1.363 . S
C2855 H2826 0.950 . S
C2855 C2854 1.397 . S
C2855 C2856 1.334 . S
C2856 H2827 0.950 . S
C2856 C2855 1.334 . S
C2856 C2857 1.287 . S
C2857 C2856 1.287 . S
C2857 C2858 1.524 . S
C2857 H2860 0.999 . S
C2858 H2828 0.950 . S
C2858 C2857 1.524 . S
C2858 C2859 1.415 . S
C2859 H2829 0.950 . S
C2859 C2854 1.363 . S
C2859 C2858 1.415 . S
H2860 C2857 0.999 . S
H2861 C2842 0.913 . S
H2862 C2880 0.951 . S
H2863 C2882 0.951 . S
H2864 C2884 0.950 . S
H2865 C2885 0.950 . S
H2866 C2887 0.950 . S
H2867 C2890 0.950 . S
H2868 C2891 0.950 . S
H2869 C2893 0.950 . S
H2870 C2894 0.950 . S
H2871 C2895 0.951 . S
H2872 C2897 0.951 . S
H2873 C2899 0.950 . S
H2874 C2900 0.950 . S
H2875 C2902 0.950 . S
H2876 C2905 0.950 . S
H2877 C2906 0.950 . S
H2878 C2908 0.950 . S
H2879 C2909 0.950 . S
C2880 H2862 0.951 . S
C2880 C2881 1.366 . S
C2880 C2882 1.388 . S
C2881 C2880 1.366 . S
C2881 C2885 1.385 . S
C2882 H2863 0.951 . S
C2882 C2880 1.388 . S
C2882 C2883 1.366 . S
C2883 C2882 1.366 . S
C2883 C2884 1.414 . S
C2883 C2886 1.499 . S
C2884 H2864 0.950 . S
C2884 C2883 1.414 . S
C2884 C2885 1.374 . S
C2885 H2865 0.950 . S
C2885 C2881 1.385 . S
C2885 C2884 1.374 . S
C2886 C2883 1.499 . S
C2886 C2887 1.373 . S
C2886 C2888 1.389 . S
C2887 H2866 0.950 . S
C2887 C2886 1.373 . S
C2887 C2903 1.377 . S
C2888 C2886 1.389 . S
C2888 C2889 1.524 . S
C2888 C2902 1.377 . S
C2889 C2888 1.524 . S
C2889 C2890 1.397 . S
C2889 C2894 1.363 . S
C2890 H2867 0.950 . S
C2890 C2889 1.397 . S
C2890 C2891 1.334 . S
C2891 H2868 0.950 . S
C2891 C2890 1.334 . S
C2891 C2892 1.287 . S
C2892 C2891 1.287 . S
C2892 C2893 1.524 . S
C2892 H2911 0.913 . S
C2893 H2869 0.950 . S
C2893 C2892 1.524 . S
C2893 C2894 1.415 . S
C2894 H2870 0.950 . S
C2894 C2889 1.363 . S
C2894 C2893 1.415 . S
C2895 H2871 0.951 . S
C2895 C2896 1.366 . S
C2895 C2897 1.388 . S
C2896 C2895 1.366 . S
C2896 C2900 1.385 . S
C2897 H2872 0.951 . S
C2897 C2895 1.388 . S
C2897 C2898 1.366 . S
C2898 C2897 1.366 . S
C2898 C2899 1.414 . S
C2898 C2901 1.499 . S
C2899 H2873 0.950 . S
C2899 C2898 1.414 . S
C2899 C2900 1.374 . S
C2900 H2874 0.950 . S
C2900 C2896 1.385 . S
C2900 C2899 1.374 . S
C2901 C2898 1.499 . S
C2901 C2902 1.373 . S
C2901 C2903 1.389 . S
C2902 H2875 0.950 . S
C2902 C2888 1.377 . S
C2902 C2901 1.373 . S
C2903 C2887 1.377 . S
C2903 C2901 1.389 . S
C2903 C2904 1.524 . S
C2904 C2903 1.524 . S
C2904 C2905 1.397 1_565 S
C2904 C2909 1.363 . S
C2905 H2876 0.950 . S
C2905 C2904 1.397 1_545 S
C2905 C2906 1.334 . S
C2906 H2877 0.950 . S
C2906 C2905 1.334 . S
C2906 C2907 1.287 . S
C2907 C2906 1.287 . S
C2907 C2908 1.524 . S
C2907 H2910 0.999 . S
C2908 H2878 0.950 . S
C2908 C2907 1.524 . S
C2908 C2909 1.415 1_545 S
C2909 H2879 0.950 . S
C2909 C2904 1.363 . S
C2909 C2908 1.415 1_565 S
H2910 C2907 0.999 . S
H2911 C2892 0.913 . S
H2912 C2930 0.951 . S
H2913 C2932 0.951 . S
H2914 C2934 0.950 . S
H2915 C2935 0.950 . S
H2916 C2937 0.950 . S
H2917 C2940 0.950 . S
H2918 C2941 0.950 . S
H2919 C2943 0.950 . S
H2920 C2944 0.950 . S
H2921 C2945 0.951 . S
H2922 C2947 0.951 . S
H2923 C2949 0.950 . S
H2924 C2950 0.950 . S
H2925 C2952 0.950 . S
H2926 C2955 0.950 . S
H2927 C2956 0.950 . S
H2928 C2958 0.950 . S
H2929 C2959 0.950 . S
C2930 H2912 0.951 . S
C2930 C2931 1.366 . S
C2930 C2932 1.388 . S
C2931 C2930 1.366 . S
C2931 C2935 1.385 . S
C2932 H2913 0.951 . S
C2932 C2930 1.388 . S
C2932 C2933 1.366 . S
C2933 C2932 1.366 . S
C2933 C2934 1.414 . S
C2933 C2936 1.499 . S
C2934 H2914 0.950 . S
C2934 C2933 1.414 . S
C2934 C2935 1.374 . S
C2935 H2915 0.950 . S
C2935 C2931 1.385 . S
C2935 C2934 1.374 . S
C2936 C2933 1.499 . S
C2936 C2937 1.373 . S
C2936 C2938 1.389 . S
C2937 H2916 0.950 . S
C2937 C2936 1.373 . S
C2937 C2953 1.377 . S
C2938 C2936 1.389 . S
C2938 C2939 1.524 . S
C2938 C2952 1.377 . S
C2939 C2938 1.524 . S
C2939 C2940 1.397 . S
C2939 C2944 1.363 . S
C2940 H2917 0.950 . S
C2940 C2939 1.397 . S
C2940 C2941 1.334 1_455 S
C2941 H2918 0.950 . S
C2941 C2940 1.334 1_655 S
C2941 C2942 1.287 . S
C2942 C2941 1.287 . S
C2942 C2943 1.524 1_655 S
C2942 H2961 0.913 . S
C2943 H2919 0.950 . S
C2943 C2942 1.524 1_455 S
C2943 C2944 1.415 . S
C2944 H2920 0.950 . S
C2944 C2939 1.363 . S
C2944 C2943 1.415 . S
C2945 H2921 0.951 . S
C2945 C2946 1.366 . S
C2945 C2947 1.388 . S
C2946 C2945 1.366 . S
C2946 C2950 1.385 . S
C2947 H2922 0.951 . S
C2947 C2945 1.388 . S
C2947 C2948 1.366 . S
C2948 C2947 1.366 . S
C2948 C2949 1.414 . S
C2948 C2951 1.499 . S
C2949 H2923 0.950 . S
C2949 C2948 1.414 . S
C2949 C2950 1.374 . S
C2950 H2924 0.950 . S
C2950 C2946 1.385 . S
C2950 C2949 1.374 . S
C2951 C2948 1.499 . S
C2951 C2952 1.373 . S
C2951 C2953 1.389 . S
C2952 H2925 0.950 . S
C2952 C2938 1.377 . S
C2952 C2951 1.373 . S
C2953 C2937 1.377 . S
C2953 C2951 1.389 . S
C2953 C2954 1.524 . S
C2954 C2953 1.524 . S
C2954 C2955 1.397 . S
C2954 C2959 1.363 . S
C2955 H2926 0.950 . S
C2955 C2954 1.397 . S
C2955 C2956 1.334 . S
C2956 H2927 0.950 . S
C2956 C2955 1.334 . S
C2956 C2957 1.287 . S
C2957 C2956 1.287 . S
C2957 C2958 1.524 . S
C2957 H2960 0.999 . S
C2958 H2928 0.950 . S
C2958 C2957 1.524 . S
C2958 C2959 1.415 . S
C2959 H2929 0.950 . S
C2959 C2954 1.363 . S
C2959 C2958 1.415 . S
H2960 C2957 0.999 . S
H2961 C2942 0.913 . S
H2962 C2980 0.951 . S
H2963 C2982 0.951 . S
H2964 C2984 0.950 . S
H2965 C2985 0.950 . S
H2966 C2987 0.950 . S
H2967 C2990 0.950 . S
H2968 C2991 0.950 . S
H2969 C2993 0.950 . S
H2970 C2994 0.950 . S
H2971 C2995 0.951 . S
H2972 C2997 0.951 . S
H2973 C2999 0.950 . S
H2974 C3000 0.950 . S
H2975 C3002 0.950 . S
H2976 C3005 0.950 . S
H2977 C3006 0.950 . S
H2978 C3008 0.950 . S
H2979 C3009 0.950 . S
C2980 H2962 0.951 . S
C2980 C2981 1.366 . S
C2980 C2982 1.388 . S
C2981 C2980 1.366 . S
C2981 C2985 1.385 . S
C2982 H2963 0.951 . S
C2982 C2980 1.388 . S
C2982 C2983 1.366 . S
C2983 C2982 1.366 . S
C2983 C2984 1.414 . S
C2983 C2986 1.499 . S
C2984 H2964 0.950 . S
C2984 C2983 1.414 . S
C2984 C2985 1.374 . S
C2985 H2965 0.950 . S
C2985 C2981 1.385 . S
C2985 C2984 1.374 . S
C2986 C2983 1.499 . S
C2986 C2987 1.373 . S
C2986 C2988 1.389 . S
C2987 H2966 0.950 . S
C2987 C2986 1.373 . S
C2987 C3003 1.377 . S
C2988 C2986 1.389 . S
C2988 C2989 1.524 . S
C2988 C3002 1.377 . S
C2989 C2988 1.524 . S
C2989 C2990 1.397 . S
C2989 C2994 1.363 . S
C2990 H2967 0.950 . S
C2990 C2989 1.397 . S
C2990 C2991 1.334 . S
C2991 H2968 0.950 . S
C2991 C2990 1.334 . S
C2991 C2992 1.287 . S
C2992 C2991 1.287 . S
C2992 C2993 1.524 . S
C2992 H3011 0.913 . S
C2993 H2969 0.950 . S
C2993 C2992 1.524 . S
C2993 C2994 1.415 . S
C2994 H2970 0.950 . S
C2994 C2989 1.363 . S
C2994 C2993 1.415 . S
C2995 H2971 0.951 . S
C2995 C2996 1.366 . S
C2995 C2997 1.388 . S
C2996 C2995 1.366 . S
C2996 C3000 1.385 . S
C2997 H2972 0.951 . S
C2997 C2995 1.388 . S
C2997 C2998 1.366 . S
C2998 C2997 1.366 . S
C2998 C2999 1.414 . S
C2998 C3001 1.499 . S
C2999 H2973 0.950 . S
C2999 C2998 1.414 . S
C2999 C3000 1.374 . S
C3000 H2974 0.950 . S
C3000 C2996 1.385 . S
C3000 C2999 1.374 . S
C3001 C2998 1.499 . S
C3001 C3002 1.373 . S
C3001 C3003 1.389 . S
C3002 H2975 0.950 . S
C3002 C2988 1.377 . S
C3002 C3001 1.373 . S
C3003 C2987 1.377 . S
C3003 C3001 1.389 . S
C3003 C3004 1.524 . S
C3004 C3003 1.524 . S
C3004 C3005 1.397 . S
C3004 C3009 1.363 . S
C3005 H2976 0.950 . S
C3005 C3004 1.397 . S
C3005 C3006 1.334 . S
C3006 H2977 0.950 . S
C3006 C3005 1.334 . S
C3006 C3007 1.287 . S
C3007 C3006 1.287 . S
C3007 C3008 1.524 . S
C3007 H3010 0.999 . S
C3008 H2978 0.950 . S
C3008 C3007 1.524 . S
C3008 C3009 1.415 . S
C3009 H2979 0.950 . S
C3009 C3004 1.363 . S
C3009 C3008 1.415 . S
H3010 C3007 0.999 . S
H3011 C2992 0.913 . S
H3012 C3030 0.951 . S
H3013 C3032 0.951 . S
H3014 C3034 0.948 . S
H3015 C3035 0.950 1_455 S
H3016 C3037 0.950 . S
H3017 C3040 0.950 . S
H3018 C3041 0.950 . S
H3019 C3043 0.950 . S
H3020 C3044 0.950 . S
H3021 C3045 0.951 . S
H3022 C3047 0.951 . S
H3023 C3049 0.950 . S
H3024 C3050 0.950 . S
H3025 C3052 0.950 . S
H3026 C3055 0.950 . S
H3027 C3056 0.950 . S
H3028 C3058 0.950 . S
H3029 C3059 0.950 1_455 S
C3030 H3012 0.951 . S
C3030 C3031 1.366 . S
C3030 C3032 1.388 . S
C3031 C3030 1.366 . S
C3031 C3035 1.385 . S
C3032 H3013 0.951 . S
C3032 C3030 1.388 . S
C3032 C3033 1.366 . S
C3033 C3032 1.366 . S
C3033 C3034 1.414 . S
C3033 C3036 1.499 . S
C3034 H3014 0.948 . S
C3034 C3033 1.414 . S
C3034 C3035 1.374 . S
C3035 H3015 0.950 1_655 S
C3035 C3031 1.385 . S
C3035 C3034 1.374 . S
C3036 C3033 1.499 . S
C3036 C3037 1.373 . S
C3036 C3038 1.389 . S
C3037 H3016 0.950 . S
C3037 C3036 1.373 . S
C3037 C3053 1.377 . S
C3038 C3036 1.389 . S
C3038 C3039 1.524 . S
C3038 C3052 1.377 . S
C3039 C3038 1.524 . S
C3039 C3040 1.397 . S
C3039 C3044 1.363 . S
C3040 H3017 0.950 . S
C3040 C3039 1.397 . S
C3040 C3041 1.334 . S
C3041 H3018 0.950 . S
C3041 C3040 1.334 . S
C3041 C3042 1.287 . S
C3042 C3041 1.287 . S
C3042 C3043 1.524 . S
C3042 H3061 0.913 . S
C3043 H3019 0.950 . S
C3043 C3042 1.524 . S
C3043 C3044 1.415 . S
C3044 H3020 0.950 . S
C3044 C3039 1.363 . S
C3044 C3043 1.415 . S
C3045 H3021 0.951 . S
C3045 C3046 1.366 . S
C3045 C3047 1.388 . S
C3046 C3045 1.366 . S
C3046 C3050 1.385 . S
C3047 H3022 0.951 . S
C3047 C3045 1.388 . S
C3047 C3048 1.366 . S
C3048 C3047 1.366 . S
C3048 C3049 1.414 . S
C3048 C3051 1.499 . S
C3049 H3023 0.950 . S
C3049 C3048 1.414 . S
C3049 C3050 1.374 . S
C3050 H3024 0.950 . S
C3050 C3046 1.385 . S
C3050 C3049 1.374 . S
C3051 C3048 1.499 . S
C3051 C3052 1.373 . S
C3051 C3053 1.389 . S
C3052 H3025 0.950 . S
C3052 C3038 1.377 . S
C3052 C3051 1.373 . S
C3053 C3037 1.377 . S
C3053 C3051 1.389 . S
C3053 C3054 1.524 . S
C3054 C3053 1.524 . S
C3054 C3055 1.397 . S
C3054 C3059 1.363 . S
C3055 H3026 0.950 . S
C3055 C3054 1.397 . S
C3055 C3056 1.334 . S
C3056 H3027 0.950 . S
C3056 C3055 1.334 . S
C3056 C3057 1.287 . S
C3057 C3056 1.287 . S
C3057 C3058 1.524 1_655 S
C3057 H3060 0.999 . S
C3058 H3028 0.950 . S
C3058 C3057 1.524 1_455 S
C3058 C3059 1.415 1_455 S
C3059 H3029 0.950 1_655 S
C3059 C3054 1.363 . S
C3059 C3058 1.415 1_655 S
H3060 C3057 0.999 . S
H3061 C3042 0.913 . S
H3062 C3080 0.951 . S
H3063 C3082 0.951 . S
H3064 C3084 0.950 . S
H3065 C3085 0.950 . S
H3066 C3087 0.950 . S
H3067 C3090 0.950 . S
H3068 C3091 0.950 . S
H3069 C3093 0.950 . S
H3070 C3094 0.950 . S
H3071 C3095 0.951 . S
H3072 C3097 0.951 . S
H3073 C3099 0.950 . S
H3074 C3100 0.950 . S
H3075 C3102 0.950 . S
H3076 C3105 0.950 . S
H3077 C3106 0.950 . S
H3078 C3108 0.950 . S
H3079 C3109 0.950 . S
C3080 H3062 0.951 . S
C3080 C3081 1.366 . S
C3080 C3082 1.388 . S
C3081 C3080 1.366 . S
C3081 C3085 1.385 . S
C3082 H3063 0.951 . S
C3082 C3080 1.388 . S
C3082 C3083 1.366 . S
C3083 C3082 1.366 . S
C3083 C3084 1.414 . S
C3083 C3086 1.499 . S
C3084 H3064 0.950 . S
C3084 C3083 1.414 . S
C3084 C3085 1.374 . S
C3085 H3065 0.950 . S
C3085 C3081 1.385 . S
C3085 C3084 1.374 . S
C3086 C3083 1.499 . S
C3086 C3087 1.373 . S
C3086 C3088 1.389 . S
C3087 H3066 0.950 . S
C3087 C3086 1.373 . S
C3087 C3103 1.377 . S
C3088 C3086 1.389 . S
C3088 C3089 1.524 . S
C3088 C3102 1.377 . S
C3089 C3088 1.524 . S
C3089 C3090 1.397 . S
C3089 C3094 1.363 . S
C3090 H3067 0.950 . S
C3090 C3089 1.397 . S
C3090 C3091 1.334 . S
C3091 H3068 0.950 . S
C3091 C3090 1.334 . S
C3091 C3092 1.287 . S
C3092 C3091 1.287 . S
C3092 C3093 1.524 . S
C3092 H3111 0.913 . S
C3093 H3069 0.950 . S
C3093 C3092 1.524 . S
C3093 C3094 1.415 . S
C3094 H3070 0.950 . S
C3094 C3089 1.363 . S
C3094 C3093 1.415 . S
C3095 H3071 0.951 . S
C3095 C3096 1.366 . S
C3095 C3097 1.388 . S
C3096 C3095 1.366 . S
C3096 C3100 1.385 . S
C3097 H3072 0.951 . S
C3097 C3095 1.388 . S
C3097 C3098 1.366 . S
C3098 C3097 1.366 . S
C3098 C3099 1.414 . S
C3098 C3101 1.499 . S
C3099 H3073 0.950 . S
C3099 C3098 1.414 . S
C3099 C3100 1.374 . S
C3100 H3074 0.950 . S
C3100 C3096 1.385 . S
C3100 C3099 1.374 . S
C3101 C3098 1.499 . S
C3101 C3102 1.373 . S
C3101 C3103 1.389 . S
C3102 H3075 0.950 . S
C3102 C3088 1.377 . S
C3102 C3101 1.373 . S
C3103 C3087 1.377 . S
C3103 C3101 1.389 . S
C3103 C3104 1.524 . S
C3104 C3103 1.524 . S
C3104 C3105 1.397 . S
C3104 C3109 1.363 . S
C3105 H3076 0.950 . S
C3105 C3104 1.397 . S
C3105 C3106 1.334 . S
C3106 H3077 0.950 . S
C3106 C3105 1.334 . S
C3106 C3107 1.287 . S
C3107 C3106 1.287 . S
C3107 C3108 1.524 . S
C3107 H3110 0.999 . S
C3108 H3078 0.950 . S
C3108 C3107 1.524 . S
C3108 C3109 1.415 . S
C3109 H3079 0.950 . S
C3109 C3104 1.363 . S
C3109 C3108 1.415 . S
H3110 C3107 0.999 . S
H3111 C3092 0.913 . S
H3112 C3130 0.951 . S
H3113 C3132 0.951 . S
H3114 C3134 0.950 . S
H3115 C3135 0.950 . S
H3116 C3137 0.950 . S
H3117 C3140 0.950 . S
H3118 C3141 0.950 . S
H3119 C3143 0.950 . S
H3120 C3144 0.950 . S
H3121 C3145 0.951 . S
H3122 C3147 0.951 . S
H3123 C3149 0.950 . S
H3124 C3150 0.950 . S
H3125 C3152 0.950 . S
H3126 C3155 0.950 . S
H3127 C3156 0.950 . S
H3128 C3158 0.950 . S
H3129 C3159 0.950 . S
C3130 H3112 0.951 . S
C3130 C3131 1.366 . S
C3130 C3132 1.388 . S
C3131 C3130 1.366 . S
C3131 C3135 1.385 . S
C3132 H3113 0.951 . S
C3132 C3130 1.388 . S
C3132 C3133 1.366 . S
C3133 C3132 1.366 . S
C3133 C3134 1.414 . S
C3133 C3136 1.499 . S
C3134 H3114 0.950 . S
C3134 C3133 1.414 . S
C3134 C3135 1.374 . S
C3135 H3115 0.950 . S
C3135 C3131 1.385 . S
C3135 C3134 1.374 . S
C3136 C3133 1.499 . S
C3136 C3137 1.373 . S
C3136 C3138 1.389 . S
C3137 H3116 0.950 . S
C3137 C3136 1.373 . S
C3137 C3153 1.377 . S
C3138 C3136 1.389 . S
C3138 C3139 1.524 . S
C3138 C3152 1.377 . S
C3139 C3138 1.524 . S
C3139 C3140 1.397 . S
C3139 C3144 1.363 . S
C3140 H3117 0.950 . S
C3140 C3139 1.397 . S
C3140 C3141 1.334 . S
C3141 H3118 0.950 . S
C3141 C3140 1.334 . S
C3141 C3142 1.287 . S
C3142 C3141 1.287 . S
C3142 C3143 1.524 . S
C3142 H3161 0.913 . S
C3143 H3119 0.950 . S
C3143 C3142 1.524 . S
C3143 C3144 1.415 . S
C3144 H3120 0.950 . S
C3144 C3139 1.363 . S
C3144 C3143 1.415 . S
C3145 H3121 0.951 . S
C3145 C3146 1.366 . S
C3145 C3147 1.388 . S
C3146 C3145 1.366 . S
C3146 C3150 1.385 . S
C3147 H3122 0.951 . S
C3147 C3145 1.388 . S
C3147 C3148 1.366 . S
C3148 C3147 1.366 . S
C3148 C3149 1.414 . S
C3148 C3151 1.499 . S
C3149 H3123 0.950 . S
C3149 C3148 1.414 . S
C3149 C3150 1.374 . S
C3150 H3124 0.950 . S
C3150 C3146 1.385 . S
C3150 C3149 1.374 . S
C3151 C3148 1.499 . S
C3151 C3152 1.373 . S
C3151 C3153 1.389 . S
C3152 H3125 0.950 . S
C3152 C3138 1.377 . S
C3152 C3151 1.373 . S
C3153 C3137 1.377 . S
C3153 C3151 1.389 . S
C3153 C3154 1.524 . S
C3154 C3153 1.524 . S
C3154 C3155 1.397 . S
C3154 C3159 1.363 . S
C3155 H3126 0.950 . S
C3155 C3154 1.397 . S
C3155 C3156 1.334 . S
C3156 H3127 0.950 . S
C3156 C3155 1.334 . S
C3156 C3157 1.287 . S
C3157 C3156 1.287 . S
C3157 C3158 1.524 . S
C3157 H3160 0.999 . S
C3158 H3128 0.950 . S
C3158 C3157 1.524 . S
C3158 C3159 1.415 . S
C3159 H3129 0.950 . S
C3159 C3154 1.363 . S
C3159 C3158 1.415 . S
H3160 C3157 0.999 . S
H3161 C3142 0.913 . S
H3162 C3180 0.951 . S
H3163 C3182 0.935 1_455 S
H3164 C3184 0.950 . S
H3165 C3185 0.950 . S
H3166 C3187 0.950 . S
H3167 C3190 0.937 1_655 S
H3168 C3191 0.950 1_655 S
H3169 C3193 0.950 . S
H3170 C3194 0.950 . S
H3171 C3195 0.951 . S
H3172 C3197 0.951 . S
H3173 C3199 0.950 . S
H3174 C3200 0.950 . S
H3175 C3202 0.950 . S
H3176 C3205 0.950 . S
H3177 C3206 0.950 . S
H3178 C3208 0.950 . S
H3179 C3209 0.950 . S
C3180 H3162 0.951 . S
C3180 C3181 1.366 . S
C3180 C3182 1.388 . S
C3181 C3180 1.366 . S
C3181 C3185 1.385 . S
C3182 H3163 0.935 1_655 S
C3182 C3180 1.388 . S
C3182 C3183 1.366 . S
C3183 C3182 1.366 . S
C3183 C3184 1.414 . S
C3183 C3186 1.499 . S
C3184 H3164 0.950 . S
C3184 C3183 1.414 . S
C3184 C3185 1.374 . S
C3185 H3165 0.950 . S
C3185 C3181 1.385 . S
C3185 C3184 1.374 . S
C3186 C3183 1.499 . S
C3186 C3187 1.373 . S
C3186 C3188 1.389 1_655 S
C3187 H3166 0.950 . S
C3187 C3186 1.373 . S
C3187 C3203 1.377 1_655 S
C3188 C3186 1.389 1_455 S
C3188 C3189 1.524 . S
C3188 C3202 1.377 . S
C3189 C3188 1.524 . S
C3189 C3190 1.416 . S
C3189 C3194 1.363 . S
C3190 H3167 0.937 1_455 S
C3190 C3189 1.416 . S
C3190 C3191 1.327 . S
C3191 H3168 0.950 1_455 S
C3191 C3190 1.327 . S
C3191 C3192 1.287 . S
C3192 C3191 1.287 . S
C3192 C3193 1.524 . S
C3192 H3211 0.913 . S
C3193 H3169 0.950 . S
C3193 C3192 1.524 . S
C3193 C3194 1.415 . S
C3194 H3170 0.950 . S
C3194 C3189 1.363 . S
C3194 C3193 1.415 . S
C3195 H3171 0.951 . S
C3195 C3196 1.366 . S
C3195 C3197 1.388 . S
C3196 C3195 1.366 . S
C3196 C3200 1.385 . S
C3197 H3172 0.951 . S
C3197 C3195 1.388 . S
C3197 C3198 1.366 . S
C3198 C3197 1.366 . S
C3198 C3199 1.414 . S
C3198 C3201 1.499 . S
C3199 H3173 0.950 . S
C3199 C3198 1.414 . S
C3199 C3200 1.374 . S
C3200 H3174 0.950 . S
C3200 C3196 1.385 . S
C3200 C3199 1.374 . S
C3201 C3198 1.499 . S
C3201 C3202 1.373 . S
C3201 C3203 1.389 . S
C3202 H3175 0.950 . S
C3202 C3188 1.377 . S
C3202 C3201 1.373 . S
C3203 C3187 1.377 1_455 S
C3203 C3201 1.389 . S
C3203 C3204 1.524 . S
C3204 C3203 1.524 . S
C3204 C3205 1.397 . S
C3204 C3209 1.363 1_455 S
C3205 H3176 0.950 . S
C3205 C3204 1.397 . S
C3205 C3206 1.334 . S
C3206 H3177 0.950 . S
C3206 C3205 1.334 . S
C3206 C3207 1.287 . S
C3207 C3206 1.287 . S
C3207 C3208 1.524 1_455 S
C3207 H3210 0.999 . S
C3208 H3178 0.950 . S
C3208 C3207 1.524 1_655 S
C3208 C3209 1.415 . S
C3209 H3179 0.950 . S
C3209 C3204 1.363 1_655 S
C3209 C3208 1.415 . S
H3210 C3207 0.999 . S
H3211 C3192 0.913 . S
H3212 C3230 0.951 . S
H3213 C3232 0.951 . S
H3214 C3234 0.950 . S
H3215 C3235 0.950 . S
H3216 C3237 0.950 . S
H3217 C3240 0.950 . S
H3218 C3241 0.950 . S
H3219 C3243 0.950 . S
H3220 C3244 0.950 . S
H3221 C3245 0.951 . S
H3222 C3247 0.951 . S
H3223 C3249 0.950 . S
H3224 C3250 0.950 . S
H3225 C3252 0.950 . S
H3226 C3255 0.950 . S
H3227 C3256 0.950 . S
H3228 C3258 0.950 . S
H3229 C3259 0.950 . S
C3230 H3212 0.951 . S
C3230 C3231 1.366 . S
C3230 C3232 1.388 . S
C3231 C3230 1.366 . S
C3231 C3235 1.385 . S
C3232 H3213 0.951 . S
C3232 C3230 1.388 . S
C3232 C3233 1.366 . S
C3233 C3232 1.366 . S
C3233 C3234 1.414 . S
C3233 C3236 1.499 . S
C3234 H3214 0.950 . S
C3234 C3233 1.414 . S
C3234 C3235 1.374 . S
C3235 H3215 0.950 . S
C3235 C3231 1.385 . S
C3235 C3234 1.374 . S
C3236 C3233 1.499 . S
C3236 C3237 1.373 . S
C3236 C3238 1.389 . S
C3237 H3216 0.950 . S
C3237 C3236 1.373 . S
C3237 C3253 1.377 . S
C3238 C3236 1.389 . S
C3238 C3239 1.524 . S
C3238 C3252 1.377 . S
C3239 C3238 1.524 . S
C3239 C3240 1.397 . S
C3239 C3244 1.363 . S
C3240 H3217 0.950 . S
C3240 C3239 1.397 . S
C3240 C3241 1.334 . S
C3241 H3218 0.950 . S
C3241 C3240 1.334 . S
C3241 C3242 1.287 . S
C3242 C3241 1.287 . S
C3242 C3243 1.524 . S
C3242 H3261 0.913 . S
C3243 H3219 0.950 . S
C3243 C3242 1.524 . S
C3243 C3244 1.415 . S
C3244 H3220 0.950 . S
C3244 C3239 1.363 . S
C3244 C3243 1.415 . S
C3245 H3221 0.951 . S
C3245 C3246 1.366 . S
C3245 C3247 1.388 . S
C3246 C3245 1.366 . S
C3246 C3250 1.385 . S
C3247 H3222 0.951 . S
C3247 C3245 1.388 . S
C3247 C3248 1.366 . S
C3248 C3247 1.366 . S
C3248 C3249 1.414 . S
C3248 C3251 1.499 . S
C3249 H3223 0.950 . S
C3249 C3248 1.414 . S
C3249 C3250 1.374 . S
C3250 H3224 0.950 . S
C3250 C3246 1.385 . S
C3250 C3249 1.374 . S
C3251 C3248 1.499 . S
C3251 C3252 1.373 . S
C3251 C3253 1.389 . S
C3252 H3225 0.950 . S
C3252 C3238 1.377 . S
C3252 C3251 1.373 . S
C3253 C3237 1.377 . S
C3253 C3251 1.389 . S
C3253 C3254 1.524 . S
C3254 C3253 1.524 . S
C3254 C3255 1.397 . S
C3254 C3259 1.363 . S
C3255 H3226 0.950 . S
C3255 C3254 1.397 . S
C3255 C3256 1.334 . S
C3256 H3227 0.950 . S
C3256 C3255 1.334 . S
C3256 C3257 1.287 . S
C3257 C3256 1.287 . S
C3257 C3258 1.524 . S
C3257 H3260 0.999 . S
C3258 H3228 0.950 . S
C3258 C3257 1.524 . S
C3258 C3259 1.415 . S
C3259 H3229 0.950 . S
C3259 C3254 1.363 . S
C3259 C3258 1.415 . S
H3260 C3257 0.999 . S
H3261 C3242 0.913 . S
H3262 C3280 0.951 . S
H3263 C3282 0.942 1_545 S
H3264 C3284 0.950 . S
H3265 C3285 0.950 . S
H3266 C3287 0.950 . S
H3267 C3290 0.950 1_565 S
H3268 C3291 0.950 1_565 S
H3269 C3293 0.950 . S
H3270 C3294 0.950 . S
H3271 C3295 0.951 . S
H3272 C3297 0.951 . S
H3273 C3299 0.950 . S
H3274 C3300 0.950 . S
H3275 C3302 0.950 . S
H3276 C3305 0.950 . S
H3277 C3306 0.950 . S
H3278 C3308 0.950 . S
H3279 C3309 0.950 . S
C3280 H3262 0.951 . S
C3280 C3281 1.366 . S
C3280 C3282 1.388 . S
C3281 C3280 1.366 . S
C3281 C3285 1.385 . S
C3282 H3263 0.942 1_565 S
C3282 C3280 1.388 . S
C3282 C3283 1.366 . S
C3283 C3282 1.366 . S
C3283 C3284 1.414 . S
C3283 C3286 1.499 . S
C3284 H3264 0.950 . S
C3284 C3283 1.414 . S
C3284 C3285 1.374 . S
C3285 H3265 0.950 . S
C3285 C3281 1.385 . S
C3285 C3284 1.374 . S
C3286 C3283 1.499 . S
C3286 C3287 1.373 . S
C3286 C3288 1.389 1_565 S
C3287 H3266 0.950 . S
C3287 C3286 1.373 . S
C3287 C3303 1.377 1_565 S
C3288 C3286 1.389 1_545 S
C3288 C3289 1.524 . S
C3288 C3302 1.377 . S
C3289 C3288 1.524 . S
C3289 C3290 1.397 . S
C3289 C3294 1.363 . S
C3290 H3267 0.950 1_545 S
C3290 C3289 1.397 . S
C3290 C3291 1.334 . S
C3291 H3268 0.950 1_545 S
C3291 C3290 1.334 . S
C3291 C3292 1.287 . S
C3292 C3291 1.287 . S
C3292 C3293 1.524 . S
C3292 H3311 0.913 . S
C3293 H3269 0.950 . S
C3293 C3292 1.524 . S
C3293 C3294 1.415 . S
C3294 H3270 0.950 . S
C3294 C3289 1.363 . S
C3294 C3293 1.415 . S
C3295 H3271 0.951 . S
C3295 C3296 1.366 . S
C3295 C3297 1.388 . S
C3296 C3295 1.366 . S
C3296 C3300 1.385 . S
C3297 H3272 0.951 . S
C3297 C3295 1.388 . S
C3297 C3298 1.366 . S
C3298 C3297 1.366 . S
C3298 C3299 1.414 . S
C3298 C3301 1.499 . S
C3299 H3273 0.950 . S
C3299 C3298 1.414 . S
C3299 C3300 1.374 . S
C3300 H3274 0.950 . S
C3300 C3296 1.385 . S
C3300 C3299 1.374 . S
C3301 C3298 1.499 . S
C3301 C3302 1.373 . S
C3301 C3303 1.389 . S
C3302 H3275 0.950 . S
C3302 C3288 1.377 . S
C3302 C3301 1.373 . S
C3303 C3287 1.377 1_545 S
C3303 C3301 1.389 . S
C3303 C3304 1.524 . S
C3304 C3303 1.524 . S
C3304 C3305 1.397 . S
C3304 C3309 1.363 1_545 S
C3305 H3276 0.950 . S
C3305 C3304 1.397 . S
C3305 C3306 1.334 . S
C3306 H3277 0.950 . S
C3306 C3305 1.334 . S
C3306 C3307 1.287 . S
C3307 C3306 1.287 . S
C3307 C3308 1.524 1_545 S
C3307 H3310 0.999 . S
C3308 H3278 0.950 . S
C3308 C3307 1.524 1_565 S
C3308 C3309 1.415 . S
C3309 H3279 0.950 . S
C3309 C3304 1.363 1_565 S
C3309 C3308 1.415 . S
H3310 C3307 0.999 . S
H3311 C3292 0.913 . S
H3312 C3330 0.951 . S
H3313 C3332 0.951 . S
H3314 C3334 0.950 . S
H3315 C3335 0.950 . S
H3316 C3337 0.950 . S
H3317 C3340 0.950 . S
H3318 C3341 0.950 . S
H3319 C3343 0.950 . S
H3320 C3344 0.950 . S
H3321 C3345 0.951 . S
H3322 C3347 0.951 . S
H3323 C3349 0.950 . S
H3324 C3350 0.950 . S
H3325 C3352 0.950 . S
H3326 C3355 0.950 . S
H3327 C3356 0.950 . S
H3328 C3358 0.950 . S
H3329 C3359 0.950 . S
C3330 H3312 0.951 . S
C3330 C3331 1.366 . S
C3330 C3332 1.388 . S
C3331 C3330 1.366 . S
C3331 C3335 1.385 . S
C3332 H3313 0.951 . S
C3332 C3330 1.388 . S
C3332 C3333 1.366 . S
C3333 C3332 1.366 . S
C3333 C3334 1.414 . S
C3333 C3336 1.499 . S
C3334 H3314 0.950 . S
C3334 C3333 1.414 . S
C3334 C3335 1.374 . S
C3335 H3315 0.950 . S
C3335 C3331 1.385 . S
C3335 C3334 1.374 . S
C3336 C3333 1.499 . S
C3336 C3337 1.373 . S
C3336 C3338 1.389 . S
C3337 H3316 0.950 . S
C3337 C3336 1.373 . S
C3337 C3353 1.377 . S
C3338 C3336 1.389 . S
C3338 C3339 1.524 . S
C3338 C3352 1.377 . S
C3339 C3338 1.524 . S
C3339 C3340 1.397 . S
C3339 C3344 1.363 . S
C3340 H3317 0.950 . S
C3340 C3339 1.397 . S
C3340 C3341 1.334 . S
C3341 H3318 0.950 . S
C3341 C3340 1.334 . S
C3341 C3342 1.287 . S
C3342 C3341 1.287 . S
C3342 C3343 1.524 . S
C3342 H3361 0.913 . S
C3343 H3319 0.950 . S
C3343 C3342 1.524 . S
C3343 C3344 1.415 . S
C3344 H3320 0.950 . S
C3344 C3339 1.363 . S
C3344 C3343 1.415 . S
C3345 H3321 0.951 . S
C3345 C3346 1.366 . S
C3345 C3347 1.388 . S
C3346 C3345 1.366 . S
C3346 C3350 1.385 . S
C3347 H3322 0.951 . S
C3347 C3345 1.388 . S
C3347 C3348 1.366 . S
C3348 C3347 1.366 . S
C3348 C3349 1.414 . S
C3348 C3351 1.499 . S
C3349 H3323 0.950 . S
C3349 C3348 1.414 . S
C3349 C3350 1.374 . S
C3350 H3324 0.950 . S
C3350 C3346 1.385 . S
C3350 C3349 1.374 . S
C3351 C3348 1.499 . S
C3351 C3352 1.373 . S
C3351 C3353 1.389 . S
C3352 H3325 0.950 . S
C3352 C3338 1.377 . S
C3352 C3351 1.373 . S
C3353 C3337 1.377 . S
C3353 C3351 1.389 . S
C3353 C3354 1.524 . S
C3354 C3353 1.524 . S
C3354 C3355 1.397 . S
C3354 C3359 1.363 . S
C3355 H3326 0.950 . S
C3355 C3354 1.397 . S
C3355 C3356 1.334 . S
C3356 H3327 0.950 . S
C3356 C3355 1.334 . S
C3356 C3357 1.287 . S
C3357 C3356 1.287 . S
C3357 C3358 1.524 . S
C3357 H3360 0.999 . S
C3358 H3328 0.950 . S
C3358 C3357 1.524 . S
C3358 C3359 1.415 . S
C3359 H3329 0.950 . S
C3359 C3354 1.363 . S
C3359 C3358 1.415 . S
H3360 C3357 0.999 . S
H3361 C3342 0.913 . S
H3362 C3380 0.951 . S
H3363 C3382 0.951 . S
H3364 C3384 0.950 . S
H3365 C3385 0.950 . S
H3366 C3387 0.950 . S
H3367 C3390 0.950 . S
H3368 C3391 0.950 . S
H3369 C3393 0.950 . S
H3370 C3394 0.950 . S
H3371 C3395 0.951 . S
H3372 C3397 0.951 . S
H3373 C3399 0.950 . S
H3374 C3400 0.950 . S
H3375 C3402 0.950 . S
H3376 C3405 0.950 . S
H3377 C3406 0.950 . S
H3378 C3408 0.950 . S
H3379 C3409 0.950 . S
C3380 H3362 0.951 . S
C3380 C3381 1.366 . S
C3380 C3382 1.388 . S
C3381 C3380 1.366 . S
C3381 C3385 1.385 . S
C3382 H3363 0.951 . S
C3382 C3380 1.388 . S
C3382 C3383 1.366 . S
C3383 C3382 1.366 . S
C3383 C3384 1.414 . S
C3383 C3386 1.499 . S
C3384 H3364 0.950 . S
C3384 C3383 1.414 . S
C3384 C3385 1.374 . S
C3385 H3365 0.950 . S
C3385 C3381 1.385 . S
C3385 C3384 1.374 . S
C3386 C3383 1.499 . S
C3386 C3387 1.373 . S
C3386 C3388 1.389 . S
C3387 H3366 0.950 . S
C3387 C3386 1.373 . S
C3387 C3403 1.377 . S
C3388 C3386 1.389 . S
C3388 C3389 1.524 . S
C3388 C3402 1.377 . S
C3389 C3388 1.524 . S
C3389 C3390 1.397 . S
C3389 C3394 1.363 . S
C3390 H3367 0.950 . S
C3390 C3389 1.397 . S
C3390 C3391 1.334 . S
C3391 H3368 0.950 . S
C3391 C3390 1.334 . S
C3391 C3392 1.287 . S
C3392 C3391 1.287 . S
C3392 C3393 1.524 . S
C3392 H3411 0.913 . S
C3393 H3369 0.950 . S
C3393 C3392 1.524 . S
C3393 C3394 1.415 . S
C3394 H3370 0.950 . S
C3394 C3389 1.363 . S
C3394 C3393 1.415 . S
C3395 H3371 0.951 . S
C3395 C3396 1.366 . S
C3395 C3397 1.388 . S
C3396 C3395 1.366 . S
C3396 C3400 1.385 . S
C3397 H3372 0.951 . S
C3397 C3395 1.388 . S
C3397 C3398 1.366 . S
C3398 C3397 1.366 . S
C3398 C3399 1.414 . S
C3398 C3401 1.499 . S
C3399 H3373 0.950 . S
C3399 C3398 1.414 . S
C3399 C3400 1.374 . S
C3400 H3374 0.950 . S
C3400 C3396 1.385 . S
C3400 C3399 1.374 . S
C3401 C3398 1.499 . S
C3401 C3402 1.373 . S
C3401 C3403 1.389 . S
C3402 H3375 0.950 . S
C3402 C3388 1.377 . S
C3402 C3401 1.373 . S
C3403 C3387 1.377 . S
C3403 C3401 1.389 . S
C3403 C3404 1.524 . S
C3404 C3403 1.524 . S
C3404 C3405 1.397 . S
C3404 C3409 1.363 . S
C3405 H3376 0.950 . S
C3405 C3404 1.397 . S
C3405 C3406 1.334 . S
C3406 H3377 0.950 . S
C3406 C3405 1.334 . S
C3406 C3407 1.287 . S
C3407 C3406 1.287 . S
C3407 C3408 1.524 . S
C3407 H3410 0.999 . S
C3408 H3378 0.950 . S
C3408 C3407 1.524 . S
C3408 C3409 1.415 . S
C3409 H3379 0.950 . S
C3409 C3404 1.363 . S
C3409 C3408 1.415 . S
H3410 C3407 0.999 . S
H3411 C3392 0.913 . S
H3412 C3430 0.951 . S
H3413 C3432 0.951 . S
H3414 C3434 0.950 . S
H3415 C3435 0.950 . S
H3416 C3437 0.950 . S
H3417 C3440 0.950 . S
H3418 C3441 0.950 . S
H3419 C3443 0.950 . S
H3420 C3444 0.950 . S
H3421 C3445 0.951 . S
H3422 C3447 0.951 . S
H3423 C3449 0.950 . S
H3424 C3450 0.950 . S
H3425 C3452 0.950 . S
H3426 C3455 0.950 . S
H3427 C3456 0.950 . S
H3428 C3458 0.950 . S
H3429 C3459 0.950 . S
C3430 H3412 0.951 . S
C3430 C3431 1.366 . S
C3430 C3432 1.388 . S
C3431 C3430 1.366 . S
C3431 C3435 1.385 . S
C3432 H3413 0.951 . S
C3432 C3430 1.388 . S
C3432 C3433 1.366 . S
C3433 C3432 1.366 . S
C3433 C3434 1.414 . S
C3433 C3436 1.499 . S
C3434 H3414 0.950 . S
C3434 C3433 1.414 . S
C3434 C3435 1.374 . S
C3435 H3415 0.950 . S
C3435 C3431 1.385 . S
C3435 C3434 1.374 . S
C3436 C3433 1.499 . S
C3436 C3437 1.373 . S
C3436 C3438 1.389 . S
C3437 H3416 0.950 . S
C3437 C3436 1.373 . S
C3437 C3453 1.377 . S
C3438 C3436 1.389 . S
C3438 C3439 1.524 . S
C3438 C3452 1.377 . S
C3439 C3438 1.524 . S
C3439 C3440 1.397 . S
C3439 C3444 1.363 . S
C3440 H3417 0.950 . S
C3440 C3439 1.397 . S
C3440 C3441 1.334 . S
C3441 H3418 0.950 . S
C3441 C3440 1.334 . S
C3441 C3442 1.287 . S
C3442 C3441 1.287 . S
C3442 C3443 1.524 . S
C3442 H3461 0.913 . S
C3443 H3419 0.950 . S
C3443 C3442 1.524 . S
C3443 C3444 1.415 . S
C3444 H3420 0.950 . S
C3444 C3439 1.363 . S
C3444 C3443 1.415 . S
C3445 H3421 0.951 . S
C3445 C3446 1.366 . S
C3445 C3447 1.388 . S
C3446 C3445 1.366 . S
C3446 C3450 1.385 . S
C3447 H3422 0.951 . S
C3447 C3445 1.388 . S
C3447 C3448 1.366 . S
C3448 C3447 1.366 . S
C3448 C3449 1.414 . S
C3448 C3451 1.499 . S
C3449 H3423 0.950 . S
C3449 C3448 1.414 . S
C3449 C3450 1.374 . S
C3450 H3424 0.950 . S
C3450 C3446 1.385 . S
C3450 C3449 1.374 . S
C3451 C3448 1.499 . S
C3451 C3452 1.373 . S
C3451 C3453 1.389 . S
C3452 H3425 0.950 . S
C3452 C3438 1.377 . S
C3452 C3451 1.373 . S
C3453 C3437 1.377 . S
C3453 C3451 1.389 . S
C3453 C3454 1.524 . S
C3454 C3453 1.524 . S
C3454 C3455 1.397 . S
C3454 C3459 1.363 . S
C3455 H3426 0.950 . S
C3455 C3454 1.397 . S
C3455 C3456 1.334 . S
C3456 H3427 0.950 . S
C3456 C3455 1.334 . S
C3456 C3457 1.287 . S
C3457 C3456 1.287 . S
C3457 C3458 1.524 . S
C3457 H3460 0.999 . S
C3458 H3428 0.950 . S
C3458 C3457 1.524 . S
C3458 C3459 1.415 . S
C3459 H3429 0.950 . S
C3459 C3454 1.363 . S
C3459 C3458 1.415 . S
H3460 C3457 0.999 . S
H3461 C3442 0.913 . S
H3462 C3480 0.951 . S
H3463 C3482 0.951 . S
H3464 C3484 0.950 . S
H3465 C3485 0.950 . S
H3466 C3487 0.950 . S
H3467 C3490 0.950 . S
H3468 C3491 0.950 . S
H3469 C3493 0.950 . S
H3470 C3494 0.950 . S
H3471 C3495 0.951 . S
H3472 C3497 0.951 . S
H3473 C3499 0.950 . S
H3474 C3500 0.950 . S
H3475 C3502 0.950 . S
H3476 C3505 0.950 . S
H3477 C3506 0.950 . S
H3478 C3508 0.950 . S
H3479 C3509 0.950 . S
C3480 H3462 0.951 . S
C3480 C3481 1.366 . S
C3480 C3482 1.388 . S
C3481 C3480 1.366 . S
C3481 C3485 1.385 . S
C3482 H3463 0.951 . S
C3482 C3480 1.388 . S
C3482 C3483 1.366 . S
C3483 C3482 1.366 . S
C3483 C3484 1.414 . S
C3483 C3486 1.499 . S
C3484 H3464 0.950 . S
C3484 C3483 1.414 . S
C3484 C3485 1.374 . S
C3485 H3465 0.950 . S
C3485 C3481 1.385 . S
C3485 C3484 1.374 . S
C3486 C3483 1.499 . S
C3486 C3487 1.373 . S
C3486 C3488 1.389 . S
C3487 H3466 0.950 . S
C3487 C3486 1.373 . S
C3487 C3503 1.377 . S
C3488 C3486 1.389 . S
C3488 C3489 1.524 . S
C3488 C3502 1.377 . S
C3489 C3488 1.524 . S
C3489 C3490 1.397 . S
C3489 C3494 1.363 . S
C3490 H3467 0.950 . S
C3490 C3489 1.397 . S
C3490 C3491 1.334 . S
C3491 H3468 0.950 . S
C3491 C3490 1.334 . S
C3491 C3492 1.287 . S
C3492 C3491 1.287 . S
C3492 C3493 1.524 . S
C3492 H3511 0.913 . S
C3493 H3469 0.950 . S
C3493 C3492 1.524 . S
C3493 C3494 1.415 . S
C3494 H3470 0.950 . S
C3494 C3489 1.363 . S
C3494 C3493 1.415 . S
C3495 H3471 0.951 . S
C3495 C3496 1.366 . S
C3495 C3497 1.388 . S
C3496 C3495 1.366 . S
C3496 C3500 1.385 . S
C3497 H3472 0.951 . S
C3497 C3495 1.388 . S
C3497 C3498 1.366 . S
C3498 C3497 1.366 . S
C3498 C3499 1.414 . S
C3498 C3501 1.499 . S
C3499 H3473 0.950 . S
C3499 C3498 1.414 . S
C3499 C3500 1.374 . S
C3500 H3474 0.950 . S
C3500 C3496 1.385 . S
C3500 C3499 1.374 . S
C3501 C3498 1.499 . S
C3501 C3502 1.373 . S
C3501 C3503 1.389 . S
C3502 H3475 0.950 . S
C3502 C3488 1.377 . S
C3502 C3501 1.373 . S
C3503 C3487 1.377 . S
C3503 C3501 1.389 . S
C3503 C3504 1.524 . S
C3504 C3503 1.524 . S
C3504 C3505 1.397 . S
C3504 C3509 1.363 . S
C3505 H3476 0.950 . S
C3505 C3504 1.397 . S
C3505 C3506 1.334 . S
C3506 H3477 0.950 . S
C3506 C3505 1.334 . S
C3506 C3507 1.287 . S
C3507 C3506 1.287 . S
C3507 C3508 1.524 . S
C3507 H3510 0.999 . S
C3508 H3478 0.950 . S
C3508 C3507 1.524 . S
C3508 C3509 1.415 . S
C3509 H3479 0.950 . S
C3509 C3504 1.363 . S
C3509 C3508 1.415 . S
H3510 C3507 0.999 . S
H3511 C3492 0.913 . S
H3512 C3530 0.951 . S
H3513 C3532 0.951 . S
H3514 C3534 0.950 . S
H3515 C3535 0.950 . S
H3516 C3537 0.950 . S
H3517 C3540 0.950 . S
H3518 C3541 0.950 . S
H3519 C3543 0.950 . S
H3520 C3544 0.950 . S
H3521 C3545 0.951 . S
H3522 C3547 0.951 . S
H3523 C3549 0.950 . S
H3524 C3550 0.950 . S
H3525 C3552 0.950 . S
H3526 C3555 0.950 . S
H3527 C3556 0.950 . S
H3528 C3558 0.950 . S
H3529 C3559 0.950 . S
C3530 H3512 0.951 . S
C3530 C3531 1.366 . S
C3530 C3532 1.388 . S
C3531 C3530 1.366 . S
C3531 C3535 1.385 . S
C3532 H3513 0.951 . S
C3532 C3530 1.388 . S
C3532 C3533 1.366 . S
C3533 C3532 1.366 . S
C3533 C3534 1.414 . S
C3533 C3536 1.499 . S
C3534 H3514 0.950 . S
C3534 C3533 1.414 . S
C3534 C3535 1.374 . S
C3535 H3515 0.950 . S
C3535 C3531 1.385 . S
C3535 C3534 1.374 . S
C3536 C3533 1.499 . S
C3536 C3537 1.373 . S
C3536 C3538 1.389 . S
C3537 H3516 0.950 . S
C3537 C3536 1.373 . S
C3537 C3553 1.377 . S
C3538 C3536 1.389 . S
C3538 C3539 1.524 . S
C3538 C3552 1.377 . S
C3539 C3538 1.524 . S
C3539 C3540 1.397 . S
C3539 C3544 1.363 . S
C3540 H3517 0.950 . S
C3540 C3539 1.397 . S
C3540 C3541 1.334 . S
C3541 H3518 0.950 . S
C3541 C3540 1.334 . S
C3541 C3542 1.287 . S
C3542 C3541 1.287 . S
C3542 C3543 1.524 . S
C3542 H3561 0.913 . S
C3543 H3519 0.950 . S
C3543 C3542 1.524 . S
C3543 C3544 1.415 . S
C3544 H3520 0.950 . S
C3544 C3539 1.363 . S
C3544 C3543 1.415 . S
C3545 H3521 0.951 . S
C3545 C3546 1.366 . S
C3545 C3547 1.388 . S
C3546 C3545 1.366 . S
C3546 C3550 1.385 . S
C3547 H3522 0.951 . S
C3547 C3545 1.388 . S
C3547 C3548 1.366 . S
C3548 C3547 1.366 . S
C3548 C3549 1.414 . S
C3548 C3551 1.499 . S
C3549 H3523 0.950 . S
C3549 C3548 1.414 . S
C3549 C3550 1.374 . S
C3550 H3524 0.950 . S
C3550 C3546 1.385 . S
C3550 C3549 1.374 . S
C3551 C3548 1.499 . S
C3551 C3552 1.373 . S
C3551 C3553 1.389 . S
C3552 H3525 0.950 . S
C3552 C3538 1.377 . S
C3552 C3551 1.373 . S
C3553 C3537 1.377 . S
C3553 C3551 1.389 . S
C3553 C3554 1.524 . S
C3554 C3553 1.524 . S
C3554 C3555 1.397 . S
C3554 C3559 1.363 . S
C3555 H3526 0.950 . S
C3555 C3554 1.397 . S
C3555 C3556 1.334 . S
C3556 H3527 0.950 . S
C3556 C3555 1.334 . S
C3556 C3557 1.287 . S
C3557 C3556 1.287 . S
C3557 C3558 1.524 . S
C3557 H3560 0.999 . S
C3558 H3528 0.950 . S
C3558 C3557 1.524 . S
C3558 C3559 1.415 . S
C3559 H3529 0.950 . S
C3559 C3554 1.363 . S
C3559 C3558 1.415 . S
H3560 C3557 0.999 . S
H3561 C3542 0.913 . S
H3562 C3580 0.951 . S
H3563 C3582 0.951 . S
H3564 C3584 0.950 . S
H3565 C3585 0.950 . S
H3566 C3587 0.950 . S
H3567 C3590 0.950 . S
H3568 C3591 0.950 . S
H3569 C3593 0.950 . S
H3570 C3594 0.950 . S
H3571 C3595 0.951 . S
H3572 C3597 0.951 . S
H3573 C3599 0.950 . S
H3574 C3600 0.950 . S
H3575 C3602 0.950 . S
H3576 C3605 0.950 . S
H3577 C3606 0.950 . S
H3578 C3608 0.950 . S
H3579 C3609 0.950 . S
C3580 H3562 0.951 . S
C3580 C3581 1.366 . S
C3580 C3582 1.388 . S
C3581 C3580 1.366 . S
C3581 C3585 1.385 . S
C3582 H3563 0.951 . S
C3582 C3580 1.388 . S
C3582 C3583 1.366 . S
C3583 C3582 1.366 . S
C3583 C3584 1.414 . S
C3583 C3586 1.499 . S
C3584 H3564 0.950 . S
C3584 C3583 1.414 . S
C3584 C3585 1.374 . S
C3585 H3565 0.950 . S
C3585 C3581 1.385 . S
C3585 C3584 1.374 . S
C3586 C3583 1.499 . S
C3586 C3587 1.373 . S
C3586 C3588 1.389 . S
C3587 H3566 0.950 . S
C3587 C3586 1.373 . S
C3587 C3603 1.377 . S
C3588 C3586 1.389 . S
C3588 C3589 1.524 . S
C3588 C3602 1.377 . S
C3589 C3588 1.524 . S
C3589 C3590 1.397 . S
C3589 C3594 1.363 . S
C3590 H3567 0.950 . S
C3590 C3589 1.397 . S
C3590 C3591 1.334 . S
C3591 H3568 0.950 . S
C3591 C3590 1.334 . S
C3591 C3592 1.287 . S
C3592 C3591 1.287 . S
C3592 C3593 1.524 . S
C3592 H3611 0.913 . S
C3593 H3569 0.950 . S
C3593 C3592 1.524 . S
C3593 C3594 1.415 . S
C3594 H3570 0.950 . S
C3594 C3589 1.363 . S
C3594 C3593 1.415 . S
C3595 H3571 0.951 . S
C3595 C3596 1.366 . S
C3595 C3597 1.388 . S
C3596 C3595 1.366 . S
C3596 C3600 1.385 . S
C3597 H3572 0.951 . S
C3597 C3595 1.388 . S
C3597 C3598 1.366 . S
C3598 C3597 1.366 . S
C3598 C3599 1.414 . S
C3598 C3601 1.499 . S
C3599 H3573 0.950 . S
C3599 C3598 1.414 . S
C3599 C3600 1.374 . S
C3600 H3574 0.950 . S
C3600 C3596 1.385 . S
C3600 C3599 1.374 . S
C3601 C3598 1.499 . S
C3601 C3602 1.373 . S
C3601 C3603 1.389 . S
C3602 H3575 0.950 . S
C3602 C3588 1.377 . S
C3602 C3601 1.373 . S
C3603 C3587 1.377 . S
C3603 C3601 1.389 . S
C3603 C3604 1.524 . S
C3604 C3603 1.524 . S
C3604 C3605 1.397 . S
C3604 C3609 1.363 . S
C3605 H3576 0.950 . S
C3605 C3604 1.397 . S
C3605 C3606 1.334 . S
C3606 H3577 0.950 . S
C3606 C3605 1.334 . S
C3606 C3607 1.287 . S
C3607 C3606 1.287 . S
C3607 C3608 1.524 . S
C3607 H3610 0.999 . S
C3608 H3578 0.950 . S
C3608 C3607 1.524 . S
C3608 C3609 1.415 . S
C3609 H3579 0.950 . S
C3609 C3604 1.363 . S
C3609 C3608 1.415 . S
H3610 C3607 0.999 . S
H3611 C3592 0.913 . S
H3612 C3630 0.951 . S
H3613 C3632 0.951 . S
H3614 C3634 0.950 . S
H3615 C3635 0.950 . S
H3616 C3637 0.950 . S
H3617 C3640 0.950 . S
H3618 C3641 0.950 . S
H3619 C3643 0.950 . S
H3620 C3644 0.950 . S
H3621 C3645 0.951 . S
H3622 C3647 0.951 . S
H3623 C3649 0.950 . S
H3624 C3650 0.950 . S
H3625 C3652 0.950 . S
H3626 C3655 0.950 . S
H3627 C3656 0.950 . S
H3628 C3658 0.950 . S
H3629 C3659 0.950 . S
C3630 H3612 0.951 . S
C3630 C3631 1.366 . S
C3630 C3632 1.388 . S
C3631 C3630 1.366 . S
C3631 C3635 1.385 . S
C3632 H3613 0.951 . S
C3632 C3630 1.388 . S
C3632 C3633 1.366 . S
C3633 C3632 1.366 . S
C3633 C3634 1.414 . S
C3633 C3636 1.499 . S
C3634 H3614 0.950 . S
C3634 C3633 1.414 . S
C3634 C3635 1.374 . S
C3635 H3615 0.950 . S
C3635 C3631 1.385 . S
C3635 C3634 1.374 . S
C3636 C3633 1.499 . S
C3636 C3637 1.373 . S
C3636 C3638 1.389 . S
C3637 H3616 0.950 . S
C3637 C3636 1.373 . S
C3637 C3653 1.377 . S
C3638 C3636 1.389 . S
C3638 C3639 1.524 . S
C3638 C3652 1.377 . S
C3639 C3638 1.524 . S
C3639 C3640 1.397 . S
C3639 C3644 1.363 . S
C3640 H3617 0.950 . S
C3640 C3639 1.397 . S
C3640 C3641 1.334 . S
C3641 H3618 0.950 . S
C3641 C3640 1.334 . S
C3641 C3642 1.287 . S
C3642 C3641 1.287 . S
C3642 C3643 1.524 . S
C3642 H3661 0.913 . S
C3643 H3619 0.950 . S
C3643 C3642 1.524 . S
C3643 C3644 1.415 . S
C3644 H3620 0.950 . S
C3644 C3639 1.363 . S
C3644 C3643 1.415 . S
C3645 H3621 0.951 . S
C3645 C3646 1.366 . S
C3645 C3647 1.388 . S
C3646 C3645 1.366 . S
C3646 C3650 1.385 . S
C3647 H3622 0.951 . S
C3647 C3645 1.388 . S
C3647 C3648 1.366 . S
C3648 C3647 1.366 . S
C3648 C3649 1.414 . S
C3648 C3651 1.499 . S
C3649 H3623 0.950 . S
C3649 C3648 1.414 . S
C3649 C3650 1.374 . S
C3650 H3624 0.950 . S
C3650 C3646 1.385 . S
C3650 C3649 1.374 . S
C3651 C3648 1.499 . S
C3651 C3652 1.373 . S
C3651 C3653 1.389 . S
C3652 H3625 0.950 . S
C3652 C3638 1.377 . S
C3652 C3651 1.373 . S
C3653 C3637 1.377 . S
C3653 C3651 1.389 . S
C3653 C3654 1.524 . S
C3654 C3653 1.524 . S
C3654 C3655 1.397 . S
C3654 C3659 1.363 . S
C3655 H3626 0.950 . S
C3655 C3654 1.397 . S
C3655 C3656 1.334 . S
C3656 H3627 0.950 . S
C3656 C3655 1.334 . S
C3656 C3657 1.287 . S
C3657 C3656 1.287 . S
C3657 C3658 1.524 . S
C3657 H3660 0.999 . S
C3658 H3628 0.950 . S
C3658 C3657 1.524 . S
C3658 C3659 1.415 . S
C3659 H3629 0.950 . S
C3659 C3654 1.363 . S
C3659 C3658 1.415 . S
H3660 C3657 0.999 . S
H3661 C3642 0.913 . S
H3662 C3680 0.951 . S
H3663 C3682 0.951 . S
H3664 C3684 0.950 . S
H3665 C3685 0.950 . S
H3666 C3687 0.950 . S
H3667 C3690 0.950 . S
H3668 C3691 0.950 . S
H3669 C3693 0.950 . S
H3670 C3694 0.950 . S
H3671 C3695 0.951 . S
H3672 C3697 0.951 . S
H3673 C3699 0.950 . S
H3674 C3700 0.950 . S
H3675 C3702 0.950 . S
H3676 C3705 0.950 . S
H3677 C3706 0.950 . S
H3678 C3708 0.950 . S
H3679 C3709 0.950 . S
C3680 H3662 0.951 . S
C3680 C3681 1.366 . S
C3680 C3682 1.388 . S
C3681 C3680 1.366 . S
C3681 C3685 1.385 . S
C3682 H3663 0.951 . S
C3682 C3680 1.388 . S
C3682 C3683 1.366 . S
C3683 C3682 1.366 . S
C3683 C3684 1.414 . S
C3683 C3686 1.499 . S
C3684 H3664 0.950 . S
C3684 C3683 1.414 . S
C3684 C3685 1.374 . S
C3685 H3665 0.950 . S
C3685 C3681 1.385 . S
C3685 C3684 1.374 . S
C3686 C3683 1.499 . S
C3686 C3687 1.373 . S
C3686 C3688 1.389 . S
C3687 H3666 0.950 . S
C3687 C3686 1.373 . S
C3687 C3703 1.377 . S
C3688 C3686 1.389 . S
C3688 C3689 1.524 . S
C3688 C3702 1.377 . S
C3689 C3688 1.524 . S
C3689 C3690 1.397 . S
C3689 C3694 1.363 . S
C3690 H3667 0.950 . S
C3690 C3689 1.397 . S
C3690 C3691 1.334 . S
C3691 H3668 0.950 . S
C3691 C3690 1.334 . S
C3691 C3692 1.287 . S
C3692 C3691 1.287 . S
C3692 C3693 1.524 . S
C3692 H3711 0.913 . S
C3693 H3669 0.950 . S
C3693 C3692 1.524 . S
C3693 C3694 1.415 . S
C3694 H3670 0.950 . S
C3694 C3689 1.363 . S
C3694 C3693 1.415 . S
C3695 H3671 0.951 . S
C3695 C3696 1.366 . S
C3695 C3697 1.388 . S
C3696 C3695 1.366 . S
C3696 C3700 1.385 . S
C3697 H3672 0.951 . S
C3697 C3695 1.388 . S
C3697 C3698 1.366 . S
C3698 C3697 1.366 . S
C3698 C3699 1.414 . S
C3698 C3701 1.499 . S
C3699 H3673 0.950 . S
C3699 C3698 1.414 . S
C3699 C3700 1.374 . S
C3700 H3674 0.950 . S
C3700 C3696 1.385 . S
C3700 C3699 1.374 . S
C3701 C3698 1.499 . S
C3701 C3702 1.373 . S
C3701 C3703 1.389 . S
C3702 H3675 0.950 . S
C3702 C3688 1.377 . S
C3702 C3701 1.373 . S
C3703 C3687 1.377 . S
C3703 C3701 1.389 . S
C3703 C3704 1.524 . S
C3704 C3703 1.524 . S
C3704 C3705 1.397 . S
C3704 C3709 1.363 . S
C3705 H3676 0.950 . S
C3705 C3704 1.397 . S
C3705 C3706 1.334 . S
C3706 H3677 0.950 . S
C3706 C3705 1.334 . S
C3706 C3707 1.287 . S
C3707 C3706 1.287 . S
C3707 C3708 1.524 . S
C3707 H3710 0.999 . S
C3708 H3678 0.950 . S
C3708 C3707 1.524 . S
C3708 C3709 1.415 . S
C3709 H3679 0.950 . S
C3709 C3704 1.363 . S
C3709 C3708 1.415 . S
H3710 C3707 0.999 . S
H3711 C3692 0.913 . S
H3712 C3730 0.951 . S
H3713 C3732 0.951 . S
H3714 C3734 0.950 . S
H3715 C3735 0.950 . S
H3716 C3737 0.950 . S
H3717 C3740 0.950 . S
H3718 C3741 0.950 . S
H3719 C3743 0.950 . S
H3720 C3744 0.950 . S
H3721 C3745 0.951 . S
H3722 C3747 0.951 . S
H3723 C3749 0.950 . S
H3724 C3750 0.950 . S
H3725 C3752 0.950 . S
H3726 C3755 0.950 . S
H3727 C3756 0.950 . S
H3728 C3758 0.950 . S
H3729 C3759 0.950 . S
C3730 H3712 0.951 . S
C3730 C3731 1.366 . S
C3730 C3732 1.388 . S
C3731 C3730 1.366 . S
C3731 C3735 1.385 . S
C3732 H3713 0.951 . S
C3732 C3730 1.388 . S
C3732 C3733 1.366 . S
C3733 C3732 1.366 . S
C3733 C3734 1.414 . S
C3733 C3736 1.499 . S
C3734 H3714 0.950 . S
C3734 C3733 1.414 . S
C3734 C3735 1.374 . S
C3735 H3715 0.950 . S
C3735 C3731 1.385 . S
C3735 C3734 1.374 . S
C3736 C3733 1.499 . S
C3736 C3737 1.373 . S
C3736 C3738 1.389 . S
C3737 H3716 0.950 . S
C3737 C3736 1.373 . S
C3737 C3753 1.377 . S
C3738 C3736 1.389 . S
C3738 C3739 1.524 . S
C3738 C3752 1.377 . S
C3739 C3738 1.524 . S
C3739 C3740 1.397 . S
C3739 C3744 1.363 . S
C3740 H3717 0.950 . S
C3740 C3739 1.397 . S
C3740 C3741 1.334 . S
C3741 H3718 0.950 . S
C3741 C3740 1.334 . S
C3741 C3742 1.287 . S
C3742 C3741 1.287 . S
C3742 C3743 1.524 . S
C3742 H3761 0.913 . S
C3743 H3719 0.950 . S
C3743 C3742 1.524 . S
C3743 C3744 1.415 . S
C3744 H3720 0.950 . S
C3744 C3739 1.363 . S
C3744 C3743 1.415 . S
C3745 H3721 0.951 . S
C3745 C3746 1.366 . S
C3745 C3747 1.388 . S
C3746 C3745 1.366 . S
C3746 C3750 1.385 . S
C3747 H3722 0.951 . S
C3747 C3745 1.388 . S
C3747 C3748 1.366 . S
C3748 C3747 1.366 . S
C3748 C3749 1.414 . S
C3748 C3751 1.499 . S
C3749 H3723 0.950 . S
C3749 C3748 1.414 . S
C3749 C3750 1.374 . S
C3750 H3724 0.950 . S
C3750 C3746 1.385 . S
C3750 C3749 1.374 . S
C3751 C3748 1.499 . S
C3751 C3752 1.373 . S
C3751 C3753 1.389 . S
C3752 H3725 0.950 . S
C3752 C3738 1.377 . S
C3752 C3751 1.373 . S
C3753 C3737 1.377 . S
C3753 C3751 1.389 . S
C3753 C3754 1.524 . S
C3754 C3753 1.524 . S
C3754 C3755 1.397 . S
C3754 C3759 1.363 . S
C3755 H3726 0.950 . S
C3755 C3754 1.397 . S
C3755 C3756 1.334 . S
C3756 H3727 0.950 . S
C3756 C3755 1.334 . S
C3756 C3757 1.287 . S
C3757 C3756 1.287 . S
C3757 C3758 1.524 . S
C3757 H3760 0.999 . S
C3758 H3728 0.950 . S
C3758 C3757 1.524 . S
C3758 C3759 1.415 . S
C3759 H3729 0.950 . S
C3759 C3754 1.363 . S
C3759 C3758 1.415 . S
H3760 C3757 0.999 . S
H3761 C3742 0.913 . S
H3762 C3780 0.951 . S
H3763 C3782 0.951 . S
H3764 C3784 0.950 . S
H3765 C3785 0.950 . S
H3766 C3787 0.950 . S
H3767 C3790 0.950 . S
H3768 C3791 0.950 . S
H3769 C3793 0.950 . S
H3770 C3794 0.950 . S
H3771 C3795 0.951 . S
H3772 C3797 0.951 . S
H3773 C3799 0.950 . S
H3774 C3800 0.950 . S
H3775 C3802 0.950 . S
H3776 C3805 0.950 . S
H3777 C3806 0.950 . S
H3778 C3808 0.950 . S
H3779 C3809 0.950 . S
C3780 H3762 0.951 . S
C3780 C3781 1.366 . S
C3780 C3782 1.388 . S
C3781 C3780 1.366 . S
C3781 C3785 1.385 . S
C3782 H3763 0.951 . S
C3782 C3780 1.388 . S
C3782 C3783 1.366 . S
C3783 C3782 1.366 . S
C3783 C3784 1.414 . S
C3783 C3786 1.499 . S
C3784 H3764 0.950 . S
C3784 C3783 1.414 . S
C3784 C3785 1.374 . S
C3785 H3765 0.950 . S
C3785 C3781 1.385 . S
C3785 C3784 1.374 . S
C3786 C3783 1.499 . S
C3786 C3787 1.373 . S
C3786 C3788 1.389 . S
C3787 H3766 0.950 . S
C3787 C3786 1.373 . S
C3787 C3803 1.377 . S
C3788 C3786 1.389 . S
C3788 C3789 1.524 . S
C3788 C3802 1.377 . S
C3789 C3788 1.524 . S
C3789 C3790 1.397 . S
C3789 C3794 1.363 . S
C3790 H3767 0.950 . S
C3790 C3789 1.397 . S
C3790 C3791 1.334 . S
C3791 H3768 0.950 . S
C3791 C3790 1.334 . S
C3791 C3792 1.287 . S
C3792 C3791 1.287 . S
C3792 C3793 1.524 . S
C3792 H3811 0.913 . S
C3793 H3769 0.950 . S
C3793 C3792 1.524 . S
C3793 C3794 1.415 . S
C3794 H3770 0.950 . S
C3794 C3789 1.363 . S
C3794 C3793 1.415 . S
C3795 H3771 0.951 . S
C3795 C3796 1.366 1_655 S
C3795 C3797 1.388 . S
C3796 C3795 1.366 1_455 S
C3796 C3800 1.385 . S
C3797 H3772 0.951 . S
C3797 C3795 1.388 . S
C3797 C3798 1.366 . S
C3798 C3797 1.366 . S
C3798 C3799 1.414 . S
C3798 C3801 1.499 . S
C3799 H3773 0.950 . S
C3799 C3798 1.414 . S
C3799 C3800 1.374 1_655 S
C3800 H3774 0.950 . S
C3800 C3796 1.385 . S
C3800 C3799 1.374 1_455 S
C3801 C3798 1.499 . S
C3801 C3802 1.373 . S
C3801 C3803 1.389 . S
C3802 H3775 0.950 . S
C3802 C3788 1.377 . S
C3802 C3801 1.373 . S
C3803 C3787 1.377 . S
C3803 C3801 1.389 . S
C3803 C3804 1.524 . S
C3804 C3803 1.524 . S
C3804 C3805 1.397 . S
C3804 C3809 1.363 . S
C3805 H3776 0.950 . S
C3805 C3804 1.397 . S
C3805 C3806 1.334 . S
C3806 H3777 0.950 . S
C3806 C3805 1.334 . S
C3806 C3807 1.287 . S
C3807 C3806 1.287 . S
C3807 C3808 1.524 . S
C3807 H3810 0.999 . S
C3808 H3778 0.950 . S
C3808 C3807 1.524 . S
C3808 C3809 1.415 . S
C3809 H3779 0.950 . S
C3809 C3804 1.363 . S
C3809 C3808 1.415 . S
H3810 C3807 0.999 . S
H3811 C3792 0.913 . S
H3812 C3830 0.951 . S
H3813 C3832 0.951 . S
H3814 C3834 0.950 1_545 S
H3815 C3835 0.950 . S
H3816 C3837 0.950 . S
H3817 C3840 0.950 . S
H3818 C3841 0.950 . S
H3819 C3843 0.950 . S
H3820 C3844 0.930 1_545 S
H3821 C3845 0.951 . S
H3822 C3847 0.951 . S
H3823 C3849 0.950 . S
H3824 C3850 0.950 . S
H3825 C3852 0.950 . S
H3826 C3855 0.950 . S
H3827 C3856 0.950 . S
H3828 C3858 0.950 . S
H3829 C3859 0.950 . S
C3830 H3812 0.951 . S
C3830 C3831 1.366 . S
C3830 C3832 1.388 . S
C3831 C3830 1.366 . S
C3831 C3835 1.385 . S
C3832 H3813 0.951 . S
C3832 C3830 1.388 . S
C3832 C3833 1.366 1_565 S
C3833 C3832 1.366 1_545 S
C3833 C3834 1.414 1_545 S
C3833 C3836 1.499 . S
C3834 H3814 0.950 1_565 S
C3834 C3833 1.414 1_565 S
C3834 C3835 1.374 . S
C3835 H3815 0.950 . S
C3835 C3831 1.385 . S
C3835 C3834 1.374 . S
C3836 C3833 1.499 . S
C3836 C3837 1.373 . S
C3836 C3838 1.389 . S
C3837 H3816 0.950 . S
C3837 C3836 1.373 . S
C3837 C3853 1.377 . S
C3838 C3836 1.389 . S
C3838 C3839 1.524 . S
C3838 C3852 1.377 . S
C3839 C3838 1.524 . S
C3839 C3840 1.397 1_545 S
C3839 C3844 1.369 1_545 S
C3840 H3817 0.950 . S
C3840 C3839 1.397 1_565 S
C3840 C3841 1.334 . S
C3841 H3818 0.950 . S
C3841 C3840 1.334 . S
C3841 C3842 1.287 . S
C3842 C3841 1.287 . S
C3842 C3843 1.524 . S
C3842 H3861 0.913 . S
C3843 H3819 0.950 . S
C3843 C3842 1.524 . S
C3843 C3844 1.429 . S
C3844 H3820 0.930 1_565 S
C3844 C3839 1.369 1_565 S
C3844 C3843 1.429 . S
C3845 H3821 0.951 . S
C3845 C3846 1.366 . S
C3845 C3847 1.388 . S
C3846 C3845 1.366 . S
C3846 C3850 1.385 . S
C3847 H3822 0.951 . S
C3847 C3845 1.388 . S
C3847 C3848 1.366 . S
C3848 C3847 1.366 . S
C3848 C3849 1.414 . S
C3848 C3851 1.499 . S
C3849 H3823 0.950 . S
C3849 C3848 1.414 . S
C3849 C3850 1.374 . S
C3850 H3824 0.950 . S
C3850 C3846 1.385 . S
C3850 C3849 1.374 . S
C3851 C3848 1.499 . S
C3851 C3852 1.373 . S
C3851 C3853 1.389 . S
C3852 H3825 0.950 . S
C3852 C3838 1.377 . S
C3852 C3851 1.373 . S
C3853 C3837 1.377 . S
C3853 C3851 1.389 . S
C3853 C3854 1.524 . S
C3854 C3853 1.524 . S
C3854 C3855 1.397 . S
C3854 C3859 1.363 . S
C3855 H3826 0.950 . S
C3855 C3854 1.397 . S
C3855 C3856 1.334 . S
C3856 H3827 0.950 . S
C3856 C3855 1.334 . S
C3856 C3857 1.287 . S
C3857 C3856 1.287 . S
C3857 C3858 1.524 . S
C3857 H3860 0.999 . S
C3858 H3828 0.950 . S
C3858 C3857 1.524 . S
C3858 C3859 1.415 . S
C3859 H3829 0.950 . S
C3859 C3854 1.363 . S
C3859 C3858 1.415 . S
H3860 C3857 0.999 . S
H3861 C3842 0.913 . S
H3862 C3880 0.951 . S
H3863 C3882 0.951 . S
H3864 C3884 0.950 . S
H3865 C3885 0.950 . S
H3866 C3887 0.950 . S
H3867 C3890 0.950 . S
H3868 C3891 0.950 . S
H3869 C3893 0.950 . S
H3870 C3894 0.950 . S
H3871 C3895 0.951 . S
H3872 C3897 0.951 . S
H3873 C3899 0.950 . S
H3874 C3900 0.950 . S
H3875 C3902 0.950 . S
H3876 C3905 0.950 . S
H3877 C3906 0.950 . S
H3878 C3908 0.950 . S
H3879 C3909 0.950 . S
C3880 H3862 0.951 . S
C3880 C3881 1.366 . S
C3880 C3882 1.388 . S
C3881 C3880 1.366 . S
C3881 C3885 1.385 . S
C3882 H3863 0.951 . S
C3882 C3880 1.388 . S
C3882 C3883 1.366 . S
C3883 C3882 1.366 . S
C3883 C3884 1.414 . S
C3883 C3886 1.499 . S
C3884 H3864 0.950 . S
C3884 C3883 1.414 . S
C3884 C3885 1.374 . S
C3885 H3865 0.950 . S
C3885 C3881 1.385 . S
C3885 C3884 1.374 . S
C3886 C3883 1.499 . S
C3886 C3887 1.373 . S
C3886 C3888 1.389 . S
C3887 H3866 0.950 . S
C3887 C3886 1.373 . S
C3887 C3903 1.377 1_655 S
C3888 C3886 1.389 . S
C3888 C3889 1.524 . S
C3888 C3902 1.377 . S
C3889 C3888 1.524 . S
C3889 C3890 1.397 . S
C3889 C3894 1.363 . S
C3890 H3867 0.950 . S
C3890 C3889 1.397 . S
C3890 C3891 1.334 . S
C3891 H3868 0.950 . S
C3891 C3890 1.334 . S
C3891 C3892 1.287 . S
C3892 C3891 1.287 . S
C3892 C3893 1.524 . S
C3892 H3911 0.913 . S
C3893 H3869 0.950 . S
C3893 C3892 1.524 . S
C3893 C3894 1.415 . S
C3894 H3870 0.950 . S
C3894 C3889 1.363 . S
C3894 C3893 1.415 . S
C3895 H3871 0.951 . S
C3895 C3896 1.366 . S
C3895 C3897 1.388 . S
C3896 C3895 1.366 . S
C3896 C3900 1.385 . S
C3897 H3872 0.951 . S
C3897 C3895 1.388 . S
C3897 C3898 1.366 . S
C3898 C3897 1.366 . S
C3898 C3899 1.414 . S
C3898 C3901 1.499 . S
C3899 H3873 0.950 . S
C3899 C3898 1.414 . S
C3899 C3900 1.374 . S
C3900 H3874 0.950 . S
C3900 C3896 1.385 . S
C3900 C3899 1.374 . S
C3901 C3898 1.499 . S
C3901 C3902 1.373 1_455 S
C3901 C3903 1.389 . S
C3902 H3875 0.950 . S
C3902 C3888 1.377 . S
C3902 C3901 1.373 1_655 S
C3903 C3887 1.377 1_455 S
C3903 C3901 1.389 . S
C3903 C3904 1.524 . S
C3904 C3903 1.524 . S
C3904 C3905 1.397 . S
C3904 C3909 1.363 . S
C3905 H3876 0.950 . S
C3905 C3904 1.397 . S
C3905 C3906 1.334 . S
C3906 H3877 0.950 . S
C3906 C3905 1.334 . S
C3906 C3907 1.287 . S
C3907 C3906 1.287 . S
C3907 C3908 1.524 . S
C3907 H3910 0.999 . S
C3908 H3878 0.950 . S
C3908 C3907 1.524 . S
C3908 C3909 1.415 . S
C3909 H3879 0.950 . S
C3909 C3904 1.363 . S
C3909 C3908 1.415 . S
H3910 C3907 0.999 . S
H3911 C3892 0.913 . S
H3912 C3930 0.951 . S
H3913 C3932 0.951 . S
H3914 C3934 0.950 . S
H3915 C3935 0.950 . S
H3916 C3937 0.950 . S
H3917 C3940 0.950 . S
H3918 C3941 0.950 . S
H3919 C3943 0.950 . S
H3920 C3944 0.950 . S
H3921 C3945 0.951 . S
H3922 C3947 0.951 . S
H3923 C3949 0.950 . S
H3924 C3950 0.950 1_545 S
H3925 C3952 0.950 . S
H3926 C3955 0.950 . S
H3927 C3956 0.962 . S
H3928 C3958 0.950 . S
H3929 C3959 0.950 . S
C3930 H3912 0.951 . S
C3930 C3931 1.366 . S
C3930 C3932 1.388 . S
C3931 C3930 1.366 . S
C3931 C3935 1.385 . S
C3932 H3913 0.951 . S
C3932 C3930 1.388 . S
C3932 C3933 1.366 . S
C3933 C3932 1.366 . S
C3933 C3934 1.414 . S
C3933 C3936 1.499 . S
C3934 H3914 0.950 . S
C3934 C3933 1.414 . S
C3934 C3935 1.374 . S
C3935 H3915 0.950 . S
C3935 C3931 1.385 . S
C3935 C3934 1.374 . S
C3936 C3933 1.499 . S
C3936 C3937 1.373 . S
C3936 C3938 1.389 . S
C3937 H3916 0.950 . S
C3937 C3936 1.373 . S
C3937 C3953 1.377 . S
C3938 C3936 1.389 . S
C3938 C3939 1.524 . S
C3938 C3952 1.377 . S
C3939 C3938 1.524 . S
C3939 C3940 1.397 . S
C3939 C3944 1.363 . S
C3940 H3917 0.950 . S
C3940 C3939 1.397 . S
C3940 C3941 1.334 . S
C3941 H3918 0.950 . S
C3941 C3940 1.334 . S
C3941 C3942 1.287 . S
C3942 C3941 1.287 . S
C3942 C3943 1.524 . S
C3942 H3961 0.913 . S
C3943 H3919 0.950 . S
C3943 C3942 1.524 . S
C3943 C3944 1.415 . S
C3944 H3920 0.950 . S
C3944 C3939 1.363 . S
C3944 C3943 1.415 . S
C3945 H3921 0.951 . S
C3945 C3946 1.366 1_565 S
C3945 C3947 1.388 . S
C3946 C3945 1.366 1_545 S
C3946 C3950 1.385 1_545 S
C3947 H3922 0.951 . S
C3947 C3945 1.388 . S
C3947 C3948 1.366 . S
C3948 C3947 1.366 . S
C3948 C3949 1.414 . S
C3948 C3951 1.499 . S
C3949 H3923 0.950 . S
C3949 C3948 1.414 . S
C3949 C3950 1.374 . S
C3950 H3924 0.950 1_565 S
C3950 C3946 1.385 1_565 S
C3950 C3949 1.374 . S
C3951 C3948 1.499 . S
C3951 C3952 1.373 . S
C3951 C3953 1.389 . S
C3952 H3925 0.950 . S
C3952 C3938 1.377 . S
C3952 C3951 1.373 . S
C3953 C3937 1.377 . S
C3953 C3951 1.389 . S
C3953 C3954 1.524 . S
C3954 C3953 1.524 . S
C3954 C3955 1.397 . S
C3954 C3959 1.363 . S
C3955 H3926 0.950 . S
C3955 C3954 1.397 . S
C3955 C3956 1.334 . S
C3956 H3927 0.962 . S
C3956 C3955 1.334 . S
C3956 C3957 1.287 . S
C3957 C3956 1.287 . S
C3957 C3958 1.524 . S
C3957 H3960 0.999 . S
C3958 H3928 0.950 . S
C3958 C3957 1.524 . S
C3958 C3959 1.415 . S
C3959 H3929 0.950 . S
C3959 C3954 1.363 . S
C3959 C3958 1.415 . S
H3960 C3957 0.999 . S
H3961 C3942 0.913 . S
H3962 C3980 0.951 . S
H3963 C3982 0.951 . S
H3964 C3984 0.950 . S
H3965 C3985 0.950 . S
H3966 C3987 0.950 1_545 S
H3967 C3990 0.950 1_565 S
H3968 C3991 0.950 . S
H3969 C3993 0.950 . S
H3970 C3994 0.950 . S
H3971 C3995 0.951 . S
H3972 C3997 0.951 . S
H3973 C3999 0.950 . S
H3974 C4000 0.950 . S
H3975 C4002 0.950 . S
H3976 C4005 0.950 . S
H3977 C4006 0.950 . S
H3978 C4008 0.950 . S
H3979 C4009 0.950 . S
C3980 H3962 0.951 . S
C3980 C3981 1.366 . S
C3980 C3982 1.388 . S
C3981 C3980 1.366 . S
C3981 C3985 1.385 . S
C3982 H3963 0.951 . S
C3982 C3980 1.388 . S
C3982 C3983 1.366 . S
C3983 C3982 1.366 . S
C3983 C3984 1.414 . S
C3983 C3986 1.499 . S
C3984 H3964 0.950 . S
C3984 C3983 1.414 . S
C3984 C3985 1.374 . S
C3985 H3965 0.950 . S
C3985 C3981 1.385 . S
C3985 C3984 1.374 . S
C3986 C3983 1.499 . S
C3986 C3987 1.373 1_545 S
C3986 C3988 1.389 1_545 S
C3987 H3966 0.950 1_565 S
C3987 C3986 1.373 1_565 S
C3987 C4003 1.377 . S
C3988 C3986 1.389 1_565 S
C3988 C3989 1.524 1_565 S
C3988 C4002 1.377 . S
C3989 C3988 1.524 1_545 S
C3989 C3990 1.397 . S
C3989 C3994 1.363 . S
C3990 H3967 0.950 1_545 S
C3990 C3989 1.397 . S
C3990 C3991 1.334 . S
C3991 H3968 0.950 . S
C3991 C3990 1.334 . S
C3991 C3992 1.287 . S
C3992 C3991 1.287 . S
C3992 C3993 1.524 . S
C3992 H4011 0.913 . S
C3993 H3969 0.950 . S
C3993 C3992 1.524 . S
C3993 C3994 1.415 . S
C3994 H3970 0.950 . S
C3994 C3989 1.363 . S
C3994 C3993 1.415 . S
C3995 H3971 0.951 . S
C3995 C3996 1.366 . S
C3995 C3997 1.388 . S
C3996 C3995 1.366 . S
C3996 C4000 1.385 . S
C3997 H3972 0.951 . S
C3997 C3995 1.388 . S
C3997 C3998 1.366 . S
C3998 C3997 1.366 . S
C3998 C3999 1.414 . S
C3998 C4001 1.499 . S
C3999 H3973 0.950 . S
C3999 C3998 1.414 . S
C3999 C4000 1.374 . S
C4000 H3974 0.950 . S
C4000 C3996 1.385 . S
C4000 C3999 1.374 . S
C4001 C3998 1.499 . S
C4001 C4002 1.373 . S
C4001 C4003 1.389 . S
C4002 H3975 0.950 . S
C4002 C3988 1.377 . S
C4002 C4001 1.373 . S
C4003 C3987 1.377 . S
C4003 C4001 1.389 . S
C4003 C4004 1.524 . S
C4004 C4003 1.524 . S
C4004 C4005 1.397 . S
C4004 C4009 1.363 . S
C4005 H3976 0.950 . S
C4005 C4004 1.397 . S
C4005 C4006 1.334 . S
C4006 H3977 0.950 . S
C4006 C4005 1.334 . S
C4006 C4007 1.287 . S
C4007 C4006 1.287 . S
C4007 C4008 1.524 . S
C4007 H4010 0.999 . S
C4008 H3978 0.950 . S
C4008 C4007 1.524 . S
C4008 C4009 1.415 . S
C4009 H3979 0.950 . S
C4009 C4004 1.363 . S
C4009 C4008 1.415 . S
H4010 C4007 0.999 . S
H4011 C3992 0.913 . S
H4012 C4030 0.951 . S
H4013 C4032 0.951 . S
H4014 C4034 0.950 . S
H4015 C4035 0.950 . S
H4016 C4037 0.950 . S
H4017 C4040 0.950 . S
H4018 C4041 0.950 . S
H4019 C4043 0.950 . S
H4020 C4044 0.950 . S
H4021 C4045 0.951 . S
H4022 C4047 0.951 . S
H4023 C4049 0.950 . S
H4024 C4050 0.950 . S
H4025 C4052 0.950 . S
H4026 C4055 0.950 1_655 S
H4027 C4056 0.950 . S
H4028 C4058 0.950 . S
H4029 C4059 0.950 . S
C4030 H4012 0.951 . S
C4030 C4031 1.366 . S
C4030 C4032 1.388 . S
C4031 C4030 1.366 . S
C4031 C4035 1.385 . S
C4032 H4013 0.951 . S
C4032 C4030 1.388 . S
C4032 C4033 1.366 . S
C4033 C4032 1.366 . S
C4033 C4034 1.414 . S
C4033 C4036 1.499 . S
C4034 H4014 0.950 . S
C4034 C4033 1.414 . S
C4034 C4035 1.374 . S
C4035 H4015 0.950 . S
C4035 C4031 1.385 . S
C4035 C4034 1.374 . S
C4036 C4033 1.499 . S
C4036 C4037 1.373 . S
C4036 C4038 1.389 . S
C4037 H4016 0.950 . S
C4037 C4036 1.373 . S
C4037 C4053 1.377 . S
C4038 C4036 1.389 . S
C4038 C4039 1.524 . S
C4038 C4052 1.377 . S
C4039 C4038 1.524 . S
C4039 C4040 1.397 . S
C4039 C4044 1.363 . S
C4040 H4017 0.950 . S
C4040 C4039 1.397 . S
C4040 C4041 1.334 . S
C4041 H4018 0.950 . S
C4041 C4040 1.334 . S
C4041 C4042 1.287 . S
C4042 C4041 1.287 . S
C4042 C4043 1.524 . S
C4042 H4061 0.913 . S
C4043 H4019 0.950 . S
C4043 C4042 1.524 . S
C4043 C4044 1.415 . S
C4044 H4020 0.950 . S
C4044 C4039 1.363 . S
C4044 C4043 1.415 . S
C4045 H4021 0.951 . S
C4045 C4046 1.366 . S
C4045 C4047 1.388 1_655 S
C4046 C4045 1.366 . S
C4046 C4050 1.385 . S
C4047 H4022 0.951 . S
C4047 C4045 1.388 1_455 S
C4047 C4048 1.366 . S
C4048 C4047 1.366 . S
C4048 C4049 1.414 1_455 S
C4048 C4051 1.499 . S
C4049 H4023 0.950 . S
C4049 C4048 1.414 1_655 S
C4049 C4050 1.374 . S
C4050 H4024 0.950 . S
C4050 C4046 1.385 . S
C4050 C4049 1.374 . S
C4051 C4048 1.499 . S
C4051 C4052 1.373 . S
C4051 C4053 1.389 . S
C4052 H4025 0.950 . S
C4052 C4038 1.377 . S
C4052 C4051 1.373 . S
C4053 C4037 1.377 . S
C4053 C4051 1.389 . S
C4053 C4054 1.524 . S
C4054 C4053 1.524 . S
C4054 C4055 1.397 . S
C4054 C4059 1.363 . S
C4055 H4026 0.950 1_455 S
C4055 C4054 1.397 . S
C4055 C4056 1.334 1_455 S
C4056 H4027 0.950 . S
C4056 C4055 1.334 1_655 S
C4056 C4057 1.287 1_655 S
C4057 C4056 1.287 1_455 S
C4057 C4058 1.524 . S
C4057 H4060 0.999 1_455 S
C4058 H4028 0.950 . S
C4058 C4057 1.524 . S
C4058 C4059 1.415 . S
C4059 H4029 0.950 . S
C4059 C4054 1.363 . S
C4059 C4058 1.415 . S
H4060 C4057 0.999 1_655 S
H4061 C4042 0.913 . S
H4062 C4080 0.951 . S
H4063 C4082 0.951 . S
H4064 C4084 0.950 . S
H4065 C4085 0.950 . S
H4066 C4087 0.950 . S
H4067 C4090 0.950 . S
H4068 C4091 0.950 . S
H4069 C4093 0.950 . S
H4070 C4094 0.950 . S
H4071 C4095 0.951 . S
H4072 C4097 0.951 . S
H4073 C4099 0.950 . S
H4074 C4100 0.950 . S
H4075 C4102 0.950 . S
H4076 C4105 0.950 . S
H4077 C4106 0.950 . S
H4078 C4108 0.950 . S
H4079 C4109 0.950 . S
C4080 H4062 0.951 . S
C4080 C4081 1.366 . S
C4080 C4082 1.388 . S
C4081 C4080 1.366 . S
C4081 C4085 1.385 . S
C4082 H4063 0.951 . S
C4082 C4080 1.388 . S
C4082 C4083 1.366 . S
C4083 C4082 1.366 . S
C4083 C4084 1.414 . S
C4083 C4086 1.499 . S
C4084 H4064 0.950 . S
C4084 C4083 1.414 . S
C4084 C4085 1.374 . S
C4085 H4065 0.950 . S
C4085 C4081 1.385 . S
C4085 C4084 1.374 . S
C4086 C4083 1.499 . S
C4086 C4087 1.373 . S
C4086 C4088 1.389 . S
C4087 H4066 0.950 . S
C4087 C4086 1.373 . S
C4087 C4103 1.377 . S
C4088 C4086 1.389 . S
C4088 C4089 1.524 . S
C4088 C4102 1.377 . S
C4089 C4088 1.524 . S
C4089 C4090 1.397 . S
C4089 C4094 1.363 . S
C4090 H4067 0.950 . S
C4090 C4089 1.397 . S
C4090 C4091 1.334 . S
C4091 H4068 0.950 . S
C4091 C4090 1.334 . S
C4091 C4092 1.287 . S
C4092 C4091 1.287 . S
C4092 C4093 1.524 . S
C4092 H4111 0.913 . S
C4093 H4069 0.950 . S
C4093 C4092 1.524 . S
C4093 C4094 1.415 . S
C4094 H4070 0.950 . S
C4094 C4089 1.363 . S
C4094 C4093 1.415 . S
C4095 H4071 0.951 . S
C4095 C4096 1.366 . S
C4095 C4097 1.388 . S
C4096 C4095 1.366 . S
C4096 C4100 1.385 . S
C4097 H4072 0.951 . S
C4097 C4095 1.388 . S
C4097 C4098 1.366 . S
C4098 C4097 1.366 . S
C4098 C4099 1.414 . S
C4098 C4101 1.499 . S
C4099 H4073 0.950 . S
C4099 C4098 1.414 . S
C4099 C4100 1.374 . S
C4100 H4074 0.950 . S
C4100 C4096 1.385 . S
C4100 C4099 1.374 . S
C4101 C4098 1.499 . S
C4101 C4102 1.373 . S
C4101 C4103 1.389 . S
C4102 H4075 0.950 . S
C4102 C4088 1.377 . S
C4102 C4101 1.373 . S
C4103 C4087 1.377 . S
C4103 C4101 1.389 . S
C4103 C4104 1.524 . S
C4104 C4103 1.524 . S
C4104 C4105 1.397 . S
C4104 C4109 1.363 . S
C4105 H4076 0.950 . S
C4105 C4104 1.397 . S
C4105 C4106 1.334 . S
C4106 H4077 0.950 . S
C4106 C4105 1.334 . S
C4106 C4107 1.287 . S
C4107 C4106 1.287 . S
C4107 C4108 1.524 . S
C4107 H4110 0.999 . S
C4108 H4078 0.950 . S
C4108 C4107 1.524 . S
C4108 C4109 1.415 . S
C4109 H4079 0.950 . S
C4109 C4104 1.363 . S
C4109 C4108 1.415 . S
H4110 C4107 0.999 . S
H4111 C4092 0.913 . S
H4112 C4130 0.951 . S
H4113 C4132 0.951 . S
H4114 C4134 0.950 . S
H4115 C4135 0.950 . S
H4116 C4137 0.950 . S
H4117 C4140 0.950 . S
H4118 C4141 0.950 . S
H4119 C4143 0.950 . S
H4120 C4144 0.950 . S
H4121 C4145 0.951 . S
H4122 C4147 0.951 . S
H4123 C4149 0.950 . S
H4124 C4150 0.950 . S
H4125 C4152 0.950 . S
H4126 C4155 0.950 . S
H4127 C4156 0.950 . S
H4128 C4158 0.950 . S
H4129 C4159 0.950 . S
C4130 H4112 0.951 . S
C4130 C4131 1.366 . S
C4130 C4132 1.388 . S
C4131 C4130 1.366 . S
C4131 C4135 1.385 . S
C4132 H4113 0.951 . S
C4132 C4130 1.388 . S
C4132 C4133 1.366 . S
C4133 C4132 1.366 . S
C4133 C4134 1.414 . S
C4133 C4136 1.499 . S
C4134 H4114 0.950 . S
C4134 C4133 1.414 . S
C4134 C4135 1.374 . S
C4135 H4115 0.950 . S
C4135 C4131 1.385 . S
C4135 C4134 1.374 . S
C4136 C4133 1.499 . S
C4136 C4137 1.373 . S
C4136 C4138 1.389 . S
C4137 H4116 0.950 . S
C4137 C4136 1.373 . S
C4137 C4153 1.377 . S
C4138 C4136 1.389 . S
C4138 C4139 1.524 . S
C4138 C4152 1.377 . S
C4139 C4138 1.524 . S
C4139 C4140 1.397 . S
C4139 C4144 1.363 . S
C4140 H4117 0.950 . S
C4140 C4139 1.397 . S
C4140 C4141 1.334 . S
C4141 H4118 0.950 . S
C4141 C4140 1.334 . S
C4141 C4142 1.287 . S
C4142 C4141 1.287 . S
C4142 C4143 1.524 . S
C4142 H4161 0.913 . S
C4143 H4119 0.950 . S
C4143 C4142 1.524 . S
C4143 C4144 1.415 . S
C4144 H4120 0.950 . S
C4144 C4139 1.363 . S
C4144 C4143 1.415 . S
C4145 H4121 0.951 . S
C4145 C4146 1.366 . S
C4145 C4147 1.388 . S
C4146 C4145 1.366 . S
C4146 C4150 1.385 . S
C4147 H4122 0.951 . S
C4147 C4145 1.388 . S
C4147 C4148 1.366 . S
C4148 C4147 1.366 . S
C4148 C4149 1.414 . S
C4148 C4151 1.499 . S
C4149 H4123 0.950 . S
C4149 C4148 1.414 . S
C4149 C4150 1.374 . S
C4150 H4124 0.950 . S
C4150 C4146 1.385 . S
C4150 C4149 1.374 . S
C4151 C4148 1.499 . S
C4151 C4152 1.373 . S
C4151 C4153 1.389 . S
C4152 H4125 0.950 . S
C4152 C4138 1.377 . S
C4152 C4151 1.373 . S
C4153 C4137 1.377 . S
C4153 C4151 1.389 . S
C4153 C4154 1.524 . S
C4154 C4153 1.524 . S
C4154 C4155 1.397 . S
C4154 C4159 1.363 . S
C4155 H4126 0.950 . S
C4155 C4154 1.397 . S
C4155 C4156 1.334 . S
C4156 H4127 0.950 . S
C4156 C4155 1.334 . S
C4156 C4157 1.287 . S
C4157 C4156 1.287 . S
C4157 C4158 1.524 . S
C4157 H4160 0.999 . S
C4158 H4128 0.950 . S
C4158 C4157 1.524 . S
C4158 C4159 1.415 . S
C4159 H4129 0.950 . S
C4159 C4154 1.363 . S
C4159 C4158 1.415 . S
H4160 C4157 0.999 . S
H4161 C4142 0.913 . S
H4162 C4180 0.951 . S
H4163 C4182 0.951 . S
H4164 C4184 0.950 . S
H4165 C4185 0.950 . S
H4166 C4187 0.950 . S
H4167 C4190 0.950 . S
H4168 C4191 0.950 . S
H4169 C4193 0.950 . S
H4170 C4194 0.950 . S
H4171 C4195 0.951 . S
H4172 C4197 0.951 . S
H4173 C4199 0.950 . S
H4174 C4200 0.950 . S
H4175 C4202 0.950 . S
H4176 C4205 0.950 . S
H4177 C4206 0.950 . S
H4178 C4208 0.950 . S
H4179 C4209 0.950 . S
C4180 H4162 0.951 . S
C4180 C4181 1.366 . S
C4180 C4182 1.388 . S
C4181 C4180 1.366 . S
C4181 C4185 1.385 . S
C4182 H4163 0.951 . S
C4182 C4180 1.388 . S
C4182 C4183 1.366 . S
C4183 C4182 1.366 . S
C4183 C4184 1.414 . S
C4183 C4186 1.499 . S
C4184 H4164 0.950 . S
C4184 C4183 1.414 . S
C4184 C4185 1.374 . S
C4185 H4165 0.950 . S
C4185 C4181 1.385 . S
C4185 C4184 1.374 . S
C4186 C4183 1.499 . S
C4186 C4187 1.373 . S
C4186 C4188 1.389 . S
C4187 H4166 0.950 . S
C4187 C4186 1.373 . S
C4187 C4203 1.377 . S
C4188 C4186 1.389 . S
C4188 C4189 1.524 . S
C4188 C4202 1.377 . S
C4189 C4188 1.524 . S
C4189 C4190 1.397 . S
C4189 C4194 1.363 . S
C4190 H4167 0.950 . S
C4190 C4189 1.397 . S
C4190 C4191 1.334 . S
C4191 H4168 0.950 . S
C4191 C4190 1.334 . S
C4191 C4192 1.287 . S
C4192 C4191 1.287 . S
C4192 C4193 1.524 . S
C4192 H4211 0.913 . S
C4193 H4169 0.950 . S
C4193 C4192 1.524 . S
C4193 C4194 1.415 . S
C4194 H4170 0.950 . S
C4194 C4189 1.363 . S
C4194 C4193 1.415 . S
C4195 H4171 0.951 . S
C4195 C4196 1.366 . S
C4195 C4197 1.388 . S
C4196 C4195 1.366 . S
C4196 C4200 1.385 . S
C4197 H4172 0.951 . S
C4197 C4195 1.388 . S
C4197 C4198 1.366 . S
C4198 C4197 1.366 . S
C4198 C4199 1.414 . S
C4198 C4201 1.499 . S
C4199 H4173 0.950 . S
C4199 C4198 1.414 . S
C4199 C4200 1.374 . S
C4200 H4174 0.950 . S
C4200 C4196 1.385 . S
C4200 C4199 1.374 . S
C4201 C4198 1.499 . S
C4201 C4202 1.373 . S
C4201 C4203 1.389 . S
C4202 H4175 0.950 . S
C4202 C4188 1.377 . S
C4202 C4201 1.373 . S
C4203 C4187 1.377 . S
C4203 C4201 1.389 . S
C4203 C4204 1.524 . S
C4204 C4203 1.524 . S
C4204 C4205 1.397 . S
C4204 C4209 1.363 . S
C4205 H4176 0.950 . S
C4205 C4204 1.397 . S
C4205 C4206 1.334 . S
C4206 H4177 0.950 . S
C4206 C4205 1.334 . S
C4206 C4207 1.287 . S
C4207 C4206 1.287 . S
C4207 C4208 1.524 . S
C4207 H4210 0.999 . S
C4208 H4178 0.950 . S
C4208 C4207 1.524 . S
C4208 C4209 1.415 . S
C4209 H4179 0.950 . S
C4209 C4204 1.363 . S
C4209 C4208 1.415 . S
H4210 C4207 0.999 . S
H4211 C4192 0.913 . S
C1531 C55 0.846 . S
C1546 C226 0.806 . S
C1581 C58 0.808 . S
C1596 C139 0.847 . S
C1631 C142 0.810 . S
C1646 C223 0.847 . S
C1681 C307 0.846 . S
C1696 C394 0.806 . S
C1731 C478 0.807 . S
C1746 C391 0.847 . S
C1781 C475 0.847 . S
C1796 C310 0.806 . S
C1831 C730 0.809 . S
C1846 C559 0.847 . S
C1881 C562 0.799 1_655 S
C1896 C643 0.847 . S
C1931 C727 0.847 . S
C1946 C646 0.807 . S
C1981 C898 0.806 . S
C1996 C811 0.846 . S
C2031 C895 0.847 . S
C2046 C982 0.809 . S
C2081 C814 0.806 . S
C2096 C979 0.847 . S
C2131 C1063 0.846 . S
C2146 C1234 0.807 . S
C2181 C1066 0.807 . S
C2196 C1147 0.847 . S
C2231 C1150 0.807 . S
C2246 C1231 0.847 . S
C2281 C1402 0.810 . S
C2296 C1315 0.847 . S
C2331 C1486 0.807 . S
C2346 C1399 0.847 . S
C2381 C1318 0.800 1_565 S
C2396 C1483 0.847 . S
C2431 C56 1.911 . S
C2446 C476 1.911 . S
C2481 C308 1.910 . S
C2496 C140 1.910 . S
C2531 C392 1.912 . S
C2546 C224 1.911 . S
C2581 C560 1.911 . S
C2596 C980 1.911 . S
C2631 C644 1.911 . S
C2646 C812 1.911 . S
C2681 C896 1.912 . S
C2696 C728 1.912 . S
C2731 C1064 1.911 . S
C2746 C1484 1.911 . S
C2781 C1316 1.911 . S
C2796 C1148 1.911 . S
C2831 C1400 1.911 . S
C2846 C1232 1.912 . S
C2881 C908 2.083 . S
C2896 C68 2.084 . S
C2931 C152 2.084 . S
C2946 C992 2.084 . S
C2981 C824 2.084 . S
C2996 C236 2.084 . S
C3031 C320 2.084 . S
C3046 C1244 2.084 . S
C3081 C404 2.084 . S
C3096 C1076 2.084 . S
C3131 C1160 2.084 . S
C3146 C488 2.084 . S
C3181 C1412 2.084 . S
C3196 C572 2.084 . S
C3231 C656 2.084 . S
C3246 C1496 2.084 . S
C3281 C740 2.084 . S
C3296 C1328 2.084 . S
C3331 C238 1.590 . S
C3346 C67 1.785 . S
C3381 C70 1.590 . S
C3396 C151 1.785 . S
C3431 C235 1.785 . S
C3446 C154 1.591 . S
C3481 C406 1.590 . S
C3496 C319 1.785 . S
C3531 C490 1.590 . S
C3546 C403 1.785 . S
C3581 C487 1.785 . S
C3596 C322 1.591 . S
C3631 C742 1.591 . S
C3646 C571 1.785 . S
C3681 C655 1.785 . S
C3696 C574 1.591 . S
C3731 C658 1.590 . S
C3746 C739 1.785 . S
C3781 C823 1.785 . S
C3796 C910 1.590 . S
C3831 C907 1.785 . S
C3846 C994 1.590 . S
C3881 C826 1.591 . S
C3896 C991 1.785 . S
C3931 C1075 1.785 . S
C3946 C1246 1.590 . S
C3981 C1159 1.785 . S
C3996 C1078 1.590 . S
C4031 C1162 1.590 . S
C4046 C1243 1.785 . S
C4081 C1327 1.785 . S
C4096 C1414 1.590 . S
C4131 C1411 1.785 . S
C4146 C1498 1.590 . S
C4181 C1330 1.590 . S
C4196 C1495 1.785 . S
