# Generated by pormake.
# Topology whp, (6)-cn, num edge types: 1
# Building blocks:
#     Node 0, Type 0, BuildingBlock: OJICUG_clean_sbu_0, # of connection points: 6
#     Node 1, Type 0, BuildingBlock: OJICUG_clean_sbu_0, # of connection points: 6
#     Node 2, Type 0, BuildingBlock: OJICUG_clean_sbu_0, # of connection points: 6
#     Node 3, Type 0, BuildingBlock: OJICUG_clean_sbu_0, # of connection points: 6
#     Node 4, Type 0, BuildingBlock: OJICUG_clean_sbu_0, # of connection points: 6
#     Node 5, Type 0, BuildingBlock: OJICUG_clean_sbu_0, # of connection points: 6
#     Node 6, Type 0, BuildingBlock: OJICUG_clean_sbu_0, # of connection points: 6
#     Node 7, Type 0, BuildingBlock: OJICUG_clean_sbu_0, # of connection points: 6
#     Node 8, Type 0, BuildingBlock: OJICUG_clean_sbu_0, # of connection points: 6
#     Node 9, Type 0, BuildingBlock: OJICUG_clean_sbu_0, # of connection points: 6
#     Node 10, Type 0, BuildingBlock: OJICUG_clean_sbu_0, # of connection points: 6
#     Node 11, Type 0, BuildingBlock: OJICUG_clean_sbu_0, # of connection points: 6
#     Node 12, Type 0, BuildingBlock: OJICUG_clean_sbu_0, # of connection points: 6
#     Node 13, Type 0, BuildingBlock: OJICUG_clean_sbu_0, # of connection points: 6
#     Node 14, Type 0, BuildingBlock: OJICUG_clean_sbu_0, # of connection points: 6
#     Node 15, Type 0, BuildingBlock: OJICUG_clean_sbu_0, # of connection points: 6
#     Edge 16, Type (0, 0), BuildingBlock: OJICUG_clean_linker_0, # of connection points: 2
#     Edge 17, Type (0, 0), BuildingBlock: OJICUG_clean_linker_0, # of connection points: 2
#     Edge 18, Type (0, 0), BuildingBlock: OJICUG_clean_linker_0, # of connection points: 2
#     Edge 19, Type (0, 0), BuildingBlock: OJICUG_clean_linker_0, # of connection points: 2
#     Edge 20, Type (0, 0), BuildingBlock: OJICUG_clean_linker_0, # of connection points: 2
#     Edge 21, Type (0, 0), BuildingBlock: OJICUG_clean_linker_0, # of connection points: 2
#     Edge 22, Type (0, 0), BuildingBlock: OJICUG_clean_linker_0, # of connection points: 2
#     Edge 23, Type (0, 0), BuildingBlock: OJICUG_clean_linker_0, # of connection points: 2
#     Edge 24, Type (0, 0), BuildingBlock: OJICUG_clean_linker_0, # of connection points: 2
#     Edge 25, Type (0, 0), BuildingBlock: OJICUG_clean_linker_0, # of connection points: 2
#     Edge 26, Type (0, 0), BuildingBlock: OJICUG_clean_linker_0, # of connection points: 2
#     Edge 27, Type (0, 0), BuildingBlock: OJICUG_clean_linker_0, # of connection points: 2
#     Edge 28, Type (0, 0), BuildingBlock: OJICUG_clean_linker_0, # of connection points: 2
#     Edge 29, Type (0, 0), BuildingBlock: OJICUG_clean_linker_0, # of connection points: 2
#     Edge 30, Type (0, 0), BuildingBlock: OJICUG_clean_linker_0, # of connection points: 2
#     Edge 31, Type (0, 0), BuildingBlock: OJICUG_clean_linker_0, # of connection points: 2
#     Edge 32, Type (0, 0), BuildingBlock: OJICUG_clean_linker_0, # of connection points: 2
#     Edge 33, Type (0, 0), BuildingBlock: OJICUG_clean_linker_0, # of connection points: 2
#     Edge 34, Type (0, 0), BuildingBlock: OJICUG_clean_linker_0, # of connection points: 2
#     Edge 35, Type (0, 0), BuildingBlock: OJICUG_clean_linker_0, # of connection points: 2
#     Edge 36, Type (0, 0), BuildingBlock: OJICUG_clean_linker_0, # of connection points: 2
#     Edge 37, Type (0, 0), BuildingBlock: OJICUG_clean_linker_0, # of connection points: 2
#     Edge 38, Type (0, 0), BuildingBlock: OJICUG_clean_linker_0, # of connection points: 2
#     Edge 39, Type (0, 0), BuildingBlock: OJICUG_clean_linker_0, # of connection points: 2
#     Edge 40, Type (0, 0), BuildingBlock: OJICUG_clean_linker_0, # of connection points: 2
#     Edge 41, Type (0, 0), BuildingBlock: OJICUG_clean_linker_0, # of connection points: 2
#     Edge 42, Type (0, 0), BuildingBlock: OJICUG_clean_linker_0, # of connection points: 2
#     Edge 43, Type (0, 0), BuildingBlock: OJICUG_clean_linker_0, # of connection points: 2
#     Edge 44, Type (0, 0), BuildingBlock: OJICUG_clean_linker_0, # of connection points: 2
#     Edge 45, Type (0, 0), BuildingBlock: OJICUG_clean_linker_0, # of connection points: 2
#     Edge 46, Type (0, 0), BuildingBlock: OJICUG_clean_linker_0, # of connection points: 2
#     Edge 47, Type (0, 0), BuildingBlock: OJICUG_clean_linker_0, # of connection points: 2
#     Edge 48, Type (0, 0), BuildingBlock: OJICUG_clean_linker_0, # of connection points: 2
#     Edge 49, Type (0, 0), BuildingBlock: OJICUG_clean_linker_0, # of connection points: 2
#     Edge 50, Type (0, 0), BuildingBlock: OJICUG_clean_linker_0, # of connection points: 2
#     Edge 51, Type (0, 0), BuildingBlock: OJICUG_clean_linker_0, # of connection points: 2
#     Edge 52, Type (0, 0), BuildingBlock: OJICUG_clean_linker_0, # of connection points: 2
#     Edge 53, Type (0, 0), BuildingBlock: OJICUG_clean_linker_0, # of connection points: 2
#     Edge 54, Type (0, 0), BuildingBlock: OJICUG_clean_linker_0, # of connection points: 2
#     Edge 55, Type (0, 0), BuildingBlock: OJICUG_clean_linker_0, # of connection points: 2
#     Edge 56, Type (0, 0), BuildingBlock: OJICUG_clean_linker_0, # of connection points: 2
#     Edge 57, Type (0, 0), BuildingBlock: OJICUG_clean_linker_0, # of connection points: 2
#     Edge 58, Type (0, 0), BuildingBlock: OJICUG_clean_linker_0, # of connection points: 2
#     Edge 59, Type (0, 0), BuildingBlock: OJICUG_clean_linker_0, # of connection points: 2
#     Edge 60, Type (0, 0), BuildingBlock: OJICUG_clean_linker_0, # of connection points: 2
#     Edge 61, Type (0, 0), BuildingBlock: OJICUG_clean_linker_0, # of connection points: 2
#     Edge 62, Type (0, 0), BuildingBlock: OJICUG_clean_linker_0, # of connection points: 2
#     Edge 63, Type (0, 0), BuildingBlock: OJICUG_clean_linker_0, # of connection points: 2
# Relax obj value: 0.276
# Max RMSD: 0.243
# Mean RMSD: 0.243
data_MOF--net-whp--node1-OJICUG_clean_sbu_0--edge1-OJICUG_clean_linker_0
_symmetry_space_group_name_H-M    P1
_symmetry_Int_Tables_number       1
_symmetry_cell_setting            triclinic
loop_
_symmetry_equiv_pos_as_xyz
'x, y, z'
_cell_length_a     36.319504
_cell_length_b     36.306257
_cell_length_c     22.894825
_cell_angle_alpha  89.971598
_cell_angle_beta   89.972152
_cell_angle_gamma 90.014384
loop_
_atom_site_label
_atom_site_type_symbol
_atom_site_fract_x
_atom_site_fract_y
_atom_site_fract_z
_atom_type_partial_charge
Sc0 Sc 0.29716 0.56818 0.38232 0.0
Sc1 Sc 0.35165 0.51023 0.29593 0.0
Sc2 Sc 0.25891 0.48653 0.32384 0.0
O3 O 0.30258 0.52152 0.33438 0.0
C4 C 0.25212 0.5097 0.45804 0.0
C5 C 0.37737 0.53939 0.41914 0.0
C6 C 0.32445 0.42988 0.33502 0.0
C7 C 0.34919 0.59775 0.28142 0.0
C8 C 0.22078 0.56543 0.31458 0.0
C9 C 0.29391 0.49103 0.19586 0.0
O10 O 0.27192 0.53834 0.45256 0.0
O11 O 0.38272 0.51819 0.37569 0.0
O12 O 0.29079 0.43771 0.3435 0.0
O13 O 0.32301 0.60321 0.31736 0.0
O14 O 0.2227 0.53141 0.30185 0.0
O15 O 0.32489 0.5035 0.21267 0.0
O16 O 0.24465 0.58211 0.34518 0.0
O17 O 0.36241 0.56604 0.27162 0.0
O18 O 0.26873 0.48083 0.23102 0.0
O19 O 0.3489 0.55936 0.42502 0.0
O20 O 0.24358 0.48884 0.41548 0.0
O21 O 0.34795 0.45279 0.31602 0.0
Sc22 Sc 0.92663 0.29803 0.88299 0.0
Sc23 Sc 0.98505 0.352 0.79651 0.0
Sc24 Sc 0.00818 0.25918 0.8254 0.0
O25 O 0.97341 0.30309 0.83532 0.0
C26 C 0.98449 0.2528 0.9596 0.0
C27 C 0.95568 0.3784 0.91911 0.0
C28 C 0.06504 0.32457 0.83654 0.0
C29 C 0.89765 0.35027 0.78214 0.0
C30 C 0.92899 0.22154 0.8149 0.0
C31 C 0.00438 0.29396 0.69713 0.0
O32 O 0.956 0.27273 0.95359 0.0
O33 O 0.97712 0.38337 0.87584 0.0
O34 O 0.05705 0.29097 0.84552 0.0
O35 O 0.89204 0.32405 0.81794 0.0
O36 O 0.96312 0.22317 0.80277 0.0
O37 O 0.99184 0.32497 0.71358 0.0
O38 O 0.91243 0.24551 0.8456 0.0
O39 O 0.92942 0.36325 0.77208 0.0
O40 O 0.01442 0.26886 0.73258 0.0
O41 O 0.93558 0.35001 0.92534 0.0
O42 O 0.00543 0.24398 0.91723 0.0
O43 O 0.04234 0.34801 0.81688 0.0
Sc44 Sc 0.23764 0.00924 0.32267 0.0
Sc45 Sc 0.14494 0.9851 0.29549 0.0
Sc46 Sc 0.19984 0.92746 0.38171 0.0
O47 O 0.19414 0.97405 0.33361 0.0
C48 C 0.27608 0.93047 0.31352 0.0
C49 C 0.20236 0.00463 0.19498 0.0
C50 C 0.14784 0.89764 0.28108 0.0
C51 C 0.1718 0.06555 0.33422 0.0
C52 C 0.2447 0.98624 0.45688 0.0
C53 C 0.11959 0.95584 0.41899 0.0
O54 O 0.27403 0.96448 0.30069 0.0
O55 O 0.17145 0.99212 0.21204 0.0
O56 O 0.17399 0.89227 0.31707 0.0
O57 O 0.20555 0.05796 0.34227 0.0
O58 O 0.22507 0.95748 0.45164 0.0
O59 O 0.11402 0.97689 0.37541 0.0
O60 O 0.25307 0.00712 0.41422 0.0
O61 O 0.14835 0.04247 0.31568 0.0
O62 O 0.1482 0.93607 0.42482 0.0
O63 O 0.22764 0.01479 0.22992 0.0
O64 O 0.25229 0.91373 0.34427 0.0
O65 O 0.13454 0.9293 0.27117 0.0
Sc66 Sc 0.48794 0.23704 0.83277 0.0
Sc67 Sc 0.51186 0.14647 0.79347 0.0
Sc68 Sc 0.56919 0.19807 0.88408 0.0
O69 O 0.52288 0.19372 0.83651 0.0
C70 C 0.56822 0.27395 0.82205 0.0
C71 C 0.49062 0.20982 0.70155 0.0
C72 C 0.59707 0.14679 0.77841 0.0
C73 C 0.43275 0.16901 0.83873 0.0
C74 C 0.5115 0.24303 0.96253 0.0
C75 C 0.54191 0.1193 0.91821 0.0
O76 O 0.53328 0.27636 0.82729 0.0
O77 O 0.49517 0.17593 0.71466 0.0
O78 O 0.602 0.16409 0.82607 0.0
O79 O 0.43837 0.20355 0.837 0.0
O80 O 0.54411 0.23283 0.95024 0.0
O81 O 0.5294 0.1126 0.86717 0.0
O82 O 0.48522 0.24145 0.92618 0.0
O83 O 0.45732 0.14526 0.82762 0.0
O84 O 0.55366 0.15076 0.93404 0.0
O85 O 0.48879 0.23524 0.73959 0.0
O86 O 0.58613 0.24504 0.83492 0.0
O87 O 0.56552 0.14214 0.75604 0.0
Sc88 Sc 0.79781 0.4277 0.12018 0.0
Sc89 Sc 0.8515 0.48434 0.20945 0.0
Sc90 Sc 0.76 0.5095 0.17612 0.0
O91 O 0.80316 0.47392 0.16869 0.0
C92 C 0.75211 0.48652 0.04445 0.0
C93 C 0.87696 0.45541 0.08356 0.0
C94 C 0.82794 0.56443 0.16755 0.0
C95 C 0.85047 0.3984 0.22302 0.0
C96 C 0.72211 0.42935 0.18535 0.0
C97 C 0.79079 0.50533 0.30616 0.0
O98 O 0.76448 0.45432 0.05405 0.0
O99 O 0.88408 0.46969 0.13318 0.0
O100 O 0.79344 0.55876 0.16765 0.0
O101 O 0.83042 0.39347 0.17817 0.0
O102 O 0.72086 0.4645 0.1855 0.0
O103 O 0.82357 0.49763 0.2904 0.0
O104 O 0.74988 0.41126 0.16769 0.0
O105 O 0.85786 0.43004 0.24294 0.0
O106 O 0.76456 0.51026 0.27012 0.0
O107 O 0.84585 0.44159 0.07037 0.0
O108 O 0.75193 0.51177 0.08281 0.0
O109 O 0.85152 0.53992 0.17977 0.0
Sc110 Sc 0.98915 0.75915 0.67062 0.0
Sc111 Sc 0.016 0.84838 0.70995 0.0
Sc112 Sc 0.06923 0.79732 0.61475 0.0
O113 O 0.02452 0.80158 0.66551 0.0
C114 C 0.06992 0.7222 0.67864 0.0
C115 C 0.99233 0.78602 0.80143 0.0
C116 C 0.10001 0.84711 0.7189 0.0
C117 C 0.93605 0.82914 0.66629 0.0
C118 C 0.01066 0.75174 0.54084 0.0
C119 C 0.04314 0.87557 0.58334 0.0
O120 O 0.03483 0.71966 0.67402 0.0
O121 O 0.99718 0.81976 0.78796 0.0
O122 O 0.10253 0.83416 0.6675 0.0
O123 O 0.94047 0.79435 0.66876 0.0
O124 O 0.04373 0.76044 0.55245 0.0
O125 O 0.03521 0.88219 0.63674 0.0
O126 O 0.98469 0.75525 0.57734 0.0
O127 O 0.96162 0.85221 0.67576 0.0
O128 O 0.0506 0.84342 0.56459 0.0
O129 O 0.99109 0.76042 0.76372 0.0
O130 O 0.08769 0.75126 0.66532 0.0
O131 O 0.07003 0.84748 0.74711 0.0
Sc132 Sc 0.73675 0.98644 0.17733 0.0
Sc133 Sc 0.64489 0.01167 0.20837 0.0
Sc134 Sc 0.70003 0.06902 0.12235 0.0
O135 O 0.69384 0.02233 0.16953 0.0
C136 C 0.77522 0.0662 0.18882 0.0
C137 C 0.70434 0.9896 0.3064 0.0
C138 C 0.64641 0.09766 0.22429 0.0
C139 C 0.66866 0.93176 0.1662 0.0
C140 C 0.74542 0.01034 0.04616 0.0
C141 C 0.62126 0.04176 0.08244 0.0
O142 O 0.77638 0.03105 0.18811 0.0
O143 O 0.67179 0.99757 0.28978 0.0
O144 O 0.6674 0.10299 0.18063 0.0
O145 O 0.70318 0.93731 0.16757 0.0
O146 O 0.73345 0.04262 0.05621 0.0
O147 O 0.61345 0.02677 0.13128 0.0
O148 O 0.74534 0.98483 0.08412 0.0
O149 O 0.64503 0.95632 0.17783 0.0
O150 O 0.65238 0.05615 0.07103 0.0
O151 O 0.73109 0.98506 0.27115 0.0
O152 O 0.74763 0.08455 0.17124 0.0
O153 O 0.63806 0.06582 0.24252 0.0
Sc154 Sc 0.42669 0.69772 0.61418 0.0
Sc155 Sc 0.48121 0.64735 0.70876 0.0
Sc156 Sc 0.50623 0.73716 0.66959 0.0
O157 O 0.47159 0.6941 0.66462 0.0
C158 C 0.48473 0.74386 0.53974 0.0
C159 C 0.45392 0.61976 0.58258 0.0
C160 C 0.56072 0.66848 0.6649 0.0
C161 C 0.39696 0.64731 0.71873 0.0
C162 C 0.4251 0.773 0.67736 0.0
C163 C 0.50372 0.71011 0.80029 0.0
O164 O 0.45176 0.73472 0.55137 0.0
O165 O 0.46245 0.61324 0.63576 0.0
O166 O 0.55552 0.7031 0.66804 0.0
O167 O 0.39399 0.66066 0.66761 0.0
O168 O 0.46012 0.77592 0.67256 0.0
O169 O 0.49966 0.67629 0.7867 0.0
O170 O 0.40766 0.74368 0.66453 0.0
O171 O 0.42717 0.64687 0.74638 0.0
O172 O 0.5042 0.73584 0.76267 0.0
O173 O 0.44567 0.65177 0.56402 0.0
O174 O 0.51069 0.74093 0.57636 0.0
O175 O 0.53567 0.64475 0.67396 0.0
Sc176 Sc 0.73593 0.50921 0.67623 0.0
Sc177 Sc 0.64434 0.48436 0.7099 0.0
Sc178 Sc 0.69777 0.42747 0.62041 0.0
O179 O 0.69262 0.47376 0.66892 0.0
C180 C 0.7437 0.48605 0.54437 0.0
C181 C 0.66819 0.56438 0.66782 0.0
C182 C 0.61863 0.45557 0.58419 0.0
C183 C 0.70506 0.50536 0.80634 0.0
C184 C 0.77346 0.42888 0.68583 0.0
C185 C 0.64529 0.39837 0.72372 0.0
O186 O 0.74429 0.51119 0.5829 0.0
O187 O 0.64457 0.54 0.68057 0.0
O188 O 0.64958 0.44139 0.57101 0.0
O189 O 0.73124 0.51037 0.77021 0.0
O190 O 0.7458 0.41089 0.6675 0.0
O191 O 0.63774 0.43006 0.74327 0.0
O192 O 0.77475 0.46402 0.68632 0.0
O193 O 0.67232 0.49747 0.79074 0.0
O194 O 0.66537 0.39334 0.67891 0.0
O195 O 0.70266 0.55854 0.6672 0.0
O196 O 0.73091 0.45399 0.55385 0.0
O197 O 0.61166 0.47002 0.63373 0.0
Sc198 Sc 0.98951 0.73736 0.17414 0.0
Sc199 Sc 0.01496 0.64575 0.20729 0.0
Sc200 Sc 0.06969 0.69818 0.11447 0.0
O201 O 0.02455 0.69383 0.16541 0.0
C202 C 0.01058 0.74464 0.04156 0.0
C203 C 0.9349 0.66895 0.16505 0.0
C204 C 0.04237 0.61917 0.08105 0.0
C205 C 0.99272 0.70589 0.30327 0.0
C206 C 0.07027 0.77386 0.18112 0.0
C207 C 0.10042 0.64743 0.21793 0.0
O208 O 0.98645 0.74705 0.08145 0.0
O209 O 0.95953 0.64514 0.17622 0.0
O210 O 0.0539 0.65068 0.06528 0.0
O211 O 0.98898 0.73247 0.26768 0.0
O212 O 0.08775 0.74618 0.16134 0.0
O213 O 0.06952 0.64223 0.24219 0.0
O214 O 0.03517 0.77545 0.18328 0.0
O215 O 4e-05 0.67316 0.28734 0.0
O216 O 0.10412 0.66449 0.16985 0.0
O217 O 0.94043 0.70355 0.1663 0.0
O218 O 0.04216 0.73062 0.04951 0.0
O219 O 0.0308 0.61228 0.13248 0.0
Sc220 Sc 0.79559 0.06838 0.61578 0.0
Sc221 Sc 0.84885 0.01684 0.71029 0.0
Sc222 Sc 0.75912 0.98801 0.67634 0.0
O223 O 0.80109 0.02416 0.66781 0.0
C224 C 0.72128 0.06835 0.68282 0.0
C225 C 0.84624 0.10136 0.71756 0.0
C226 C 0.78884 0.99336 0.80618 0.0
C227 C 0.87399 0.04299 0.58215 0.0
C228 C 0.74942 0.00831 0.54503 0.0
C229 C 0.82958 0.93586 0.66952 0.0
O230 O 0.74957 0.08637 0.66662 0.0
O231 O 0.84854 0.07137 0.7455 0.0
O232 O 0.76233 0.98969 0.77035 0.0
O233 O 0.84163 0.0506 0.56462 0.0
O234 O 0.75266 0.98301 0.58294 0.0
O235 O 0.85242 0.96173 0.67847 0.0
O236 O 0.75902 0.0414 0.55463 0.0
O237 O 0.88134 0.03481 0.63516 0.0
O238 O 0.79479 0.93987 0.67254 0.0
O239 O 0.83189 0.10341 0.66702 0.0
O240 O 0.71933 0.03314 0.68124 0.0
O241 O 0.82174 0.00012 0.79016 0.0
Sc242 Sc 0.42698 0.79718 0.11384 0.0
Sc243 Sc 0.48169 0.84989 0.20612 0.0
Sc244 Sc 0.50737 0.75832 0.17322 0.0
O245 O 0.47219 0.80174 0.16449 0.0
C246 C 0.42672 0.72155 0.18075 0.0
C247 C 0.39623 0.84813 0.21698 0.0
C248 C 0.50384 0.78982 0.30227 0.0
C249 C 0.45418 0.87619 0.07979 0.0
C250 C 0.48617 0.7509 0.04079 0.0
C251 C 0.56186 0.82691 0.16393 0.0
O252 O 0.40913 0.74922 0.16113 0.0
O253 O 0.42715 0.85344 0.24106 0.0
O254 O 0.50779 0.76325 0.26675 0.0
O255 O 0.4426 0.84465 0.06431 0.0
O256 O 0.51043 0.74871 0.08048 0.0
O257 O 0.53715 0.85063 0.17508 0.0
O258 O 0.4545 0.76468 0.04897 0.0
O259 O 0.46585 0.88319 0.1311 0.0
O260 O 0.55641 0.79228 0.16523 0.0
O261 O 0.39251 0.83092 0.16908 0.0
O262 O 0.46183 0.72003 0.18254 0.0
O263 O 0.49651 0.82254 0.28627 0.0
Sc264 Sc 0.23748 0.48638 0.82748 0.0
Sc265 Sc 0.14601 0.51076 0.79202 0.0
Sc266 Sc 0.19955 0.5689 0.88109 0.0
O267 O 0.19428 0.522 0.83351 0.0
C268 C 0.24496 0.51108 0.9591 0.0
C269 C 0.16996 0.43095 0.83656 0.0
C270 C 0.11985 0.54073 0.91672 0.0
C271 C 0.20697 0.48888 0.69689 0.0
C272 C 0.27586 0.5661 0.81617 0.0
C273 C 0.14759 0.59737 0.77647 0.0
O274 O 0.24714 0.48617 0.92037 0.0
O275 O 0.14649 0.45476 0.82071 0.0
O276 O 0.15024 0.55648 0.92843 0.0
O277 O 0.23214 0.48362 0.73451 0.0
O278 O 0.24937 0.58447 0.83758 0.0
O279 O 0.13866 0.56542 0.7593 0.0
O280 O 0.27602 0.53107 0.81256 0.0
O281 O 0.17408 0.49756 0.71069 0.0
O282 O 0.16893 0.60281 0.81973 0.0
O283 O 0.20426 0.43739 0.83999 0.0
O284 O 0.2307 0.5425 0.94973 0.0
O285 O 0.11324 0.52453 0.86844 0.0
Sc286 Sc 0.92818 0.19904 0.38324 0.0
Sc287 Sc 0.98531 0.14642 0.29362 0.0
Sc288 Sc 0.00924 0.23752 0.33024 0.0
O289 O 0.97436 0.19417 0.33539 0.0
C290 C 0.92879 0.27412 0.31905 0.0
C291 C 0.89996 0.14589 0.2802 0.0
C292 C 0.00611 0.20884 0.19946 0.0
C293 C 0.95586 0.12088 0.41984 0.0
C294 C 0.98579 0.24517 0.45996 0.0
C295 C 0.06475 0.16978 0.33707 0.0
O296 O 0.91096 0.2453 0.33271 0.0
O297 O 0.93139 0.14102 0.25747 0.0
O298 O 0.00843 0.23453 0.23701 0.0
O299 O 0.94403 0.15252 0.43461 0.0
O300 O 0.01208 0.24313 0.42361 0.0
O301 O 0.04026 0.14584 0.32645 0.0
O302 O 0.95321 0.23477 0.44799 0.0
O303 O 0.9684 0.11354 0.36898 0.0
O304 O 0.05889 0.20427 0.3352 0.0
O305 O 0.89525 0.16411 0.32702 0.0
O306 O 0.96375 0.27663 0.32385 0.0
O307 O 0.00116 0.17511 0.21342 0.0
Sc308 Sc 0.29659 0.92656 0.88075 0.0
Sc309 Sc 0.35 0.9843 0.79083 0.0
Sc310 Sc 0.25861 0.00892 0.82636 0.0
O311 O 0.30178 0.97328 0.83263 0.0
C312 C 0.22043 0.92917 0.81559 0.0
C313 C 0.34797 0.89779 0.77563 0.0
C314 C 0.28922 0.00661 0.69581 0.0
C315 C 0.37638 0.95448 0.91558 0.0
C316 C 0.25105 0.98447 0.95821 0.0
C317 C 0.32627 0.06405 0.83557 0.0
O318 O 0.24683 0.91093 0.83752 0.0
O319 O 0.35678 0.92968 0.75797 0.0
O320 O 0.26401 0.0118 0.73339 0.0
O321 O 0.3459 0.93909 0.92787 0.0
O322 O 0.24873 0.00921 0.91919 0.0
O323 O 0.34967 0.04015 0.81975 0.0
O324 O 0.26551 0.95312 0.94923 0.0
O325 O 0.38295 0.97029 0.86694 0.0
O326 O 0.29193 0.0578 0.83899 0.0
O327 O 0.32709 0.89248 0.81951 0.0
O328 O 0.22021 0.96417 0.81144 0.0
O329 O 0.32205 0.9978 0.70967 0.0
Sc330 Sc 0.48765 0.25913 0.32894 0.0
Sc331 Sc 0.51046 0.35201 0.29662 0.0
Sc332 Sc 0.56943 0.29906 0.38358 0.0
O333 O 0.52238 0.30344 0.33661 0.0
C334 C 0.51139 0.25402 0.46197 0.0
C335 C 0.43057 0.32511 0.33723 0.0
C336 C 0.53994 0.37885 0.41986 0.0
C337 C 0.49165 0.29169 0.19937 0.0
C338 C 0.56748 0.22171 0.31942 0.0
C339 C 0.59749 0.35129 0.28103 0.0
O340 O 0.48832 0.24751 0.42153 0.0
O341 O 0.45374 0.349 0.32061 0.0
O342 O 0.55862 0.34974 0.42841 0.0
O343 O 0.48419 0.266 0.23536 0.0
O344 O 0.58497 0.24832 0.34227 0.0
O345 O 0.5655 0.36248 0.26809 0.0
O346 O 0.53262 0.22132 0.31393 0.0
O347 O 0.5015 0.32388 0.21494 0.0
O348 O 0.6034 0.32725 0.32026 0.0
O349 O 0.43807 0.29115 0.34291 0.0
O350 O 0.5414 0.2713 0.45371 0.0
O351 O 0.52056 0.38445 0.37439 0.0
C352 C 0.43585 0.57001 0.44269 0.0
C353 C 0.40722 0.54665 0.46058 0.0
H354 H 0.47363 0.61229 0.46869 0.0
C355 C 0.40087 0.54123 0.52044 0.0
H356 H 0.44059 0.57515 0.39666 0.0
C357 C 0.42038 0.56182 0.56173 0.0
C358 C 0.44547 0.58886 0.54329 0.0
H359 H 0.37834 0.52392 0.53496 0.0
H360 H 0.41257 0.55974 0.6073 0.0
C361 C 0.45455 0.59141 0.48381 0.0
C362 C 0.90229 0.45502 0.98297 0.0
C363 C 0.90719 0.44786 0.04269 0.0
H364 H 0.91627 0.43912 0.89566 0.0
C365 C 0.93573 0.42434 0.06057 0.0
H366 H 0.88008 0.47268 0.96835 0.0
C367 C 0.95571 0.40439 0.01903 0.0
C368 C 0.94815 0.40881 0.95936 0.0
H369 H 0.93947 0.41792 0.10642 0.0
H370 H 0.97435 0.38298 0.03361 0.0
C371 C 0.92307 0.43594 0.94149 0.0
C372 C 0.07706 0.93329 0.56204 0.0
C373 C 0.0518 0.90636 0.54386 0.0
H374 H 0.11911 0.97108 0.53486 0.0
C375 C 0.04251 0.90389 0.48446 0.0
H376 H 0.08501 0.93533 0.60754 0.0
C377 C 0.06114 0.92526 0.44315 0.0
C378 C 0.0899 0.94852 0.46075 0.0
H379 H 0.02327 0.88311 0.46954 0.0
H380 H 0.05621 0.92017 0.39717 0.0
C381 C 0.09648 0.95385 0.52055 0.0
C382 C 0.5419 0.09125 0.01695 0.0
C383 C 0.55077 0.0886 0.95743 0.0
H384 H 0.55694 0.07631 0.10425 0.0
C385 C 0.57713 0.0628 0.93922 0.0
H386 H 0.52198 0.1114 0.03183 0.0
C387 C 0.59793 0.04367 0.98064 0.0
C388 C 0.59166 0.04929 0.04047 0.0
H389 H 0.58482 0.06082 0.89358 0.0
H390 H 0.62106 0.02719 0.96612 0.0
C391 C 0.56187 0.07117 0.05828 0.0
C392 C 0.57209 0.43666 0.44237 0.0
C393 C 0.54728 0.40925 0.46023 0.0
H394 H 0.61503 0.47348 0.46919 0.0
C395 C 0.53992 0.40457 0.51993 0.0
H396 H 0.57871 0.44007 0.39651 0.0
C397 C 0.55992 0.42447 0.56146 0.0
C398 C 0.58829 0.44819 0.54352 0.0
H399 H 0.52145 0.38299 0.53449 0.0
H400 H 0.55637 0.41783 0.60728 0.0
C401 C 0.59294 0.45565 0.48385 0.0
C402 C 0.0948 0.54123 0.01734 0.0
C403 C 0.08962 0.54808 0.95757 0.0
H404 H 0.08177 0.55794 0.10463 0.0
C405 C 0.06139 0.57193 0.93976 0.0
H406 H 0.11686 0.52334 0.03186 0.0
C407 C 0.04215 0.59257 0.98125 0.0
C408 C 0.05019 0.58863 0.0409 0.0
H409 H 0.05745 0.57809 0.89385 0.0
H410 H 0.02362 0.61404 0.96652 0.0
C411 C 0.07471 0.561 0.05889 0.0
C412 C 0.92216 0.0634 0.44125 0.0
C413 C 0.9468 0.09071 0.46008 0.0
H414 H 0.8789 0.02647 0.46643 0.0
C415 C 0.95331 0.09515 0.5201 0.0
H416 H 0.9163 0.05995 0.39517 0.0
C417 C 0.93257 0.07536 0.56085 0.0
C418 C 0.90433 0.05182 0.54188 0.0
H419 H 0.97189 0.1164 0.53546 0.0
H420 H 0.9357 0.08178 0.6068 0.0
C421 C 0.90061 0.04445 0.48196 0.0
C422 C 0.43482 0.92315 0.93832 0.0
C423 C 0.40669 0.9471 0.95623 0.0
H424 H 0.47259 0.88102 0.96503 0.0
C425 C 0.40171 0.95409 0.016 0.0
H426 H 0.43862 0.9169 0.89243 0.0
C427 C 0.42188 0.93436 0.0575 0.0
C428 C 0.44629 0.90664 0.03948 0.0
H429 H 0.37973 0.97206 0.03061 0.0
H430 H 0.41497 0.93754 0.10328 0.0
C431 C 0.45415 0.90256 0.97978 0.0
C432 C 0.361 0.38869 0.39726 0.0
C433 C 0.33849 0.39299 0.34798 0.0
H434 H 0.40832 0.36174 0.43303 0.0
C435 C 0.34048 0.3671 0.30262 0.0
H436 H 0.3604 0.40892 0.43205 0.0
C437 C 0.36788 0.34002 0.30324 0.0
C438 C 0.39342 0.33883 0.34915 0.0
H439 H 0.32393 0.37057 0.26362 0.0
H440 H 0.37189 0.32317 0.2647 0.0
C441 C 0.38839 0.36172 0.39781 0.0
C442 C 0.12836 0.33979 0.80571 0.0
C443 C 0.10175 0.33881 0.85015 0.0
H444 H 0.17278 0.37048 0.76753 0.0
C445 C 0.10512 0.36268 0.89799 0.0
H446 H 0.12562 0.3222 0.76773 0.0
C447 C 0.13179 0.39034 0.89767 0.0
C448 C 0.15547 0.39421 0.84968 0.0
H449 H 0.08434 0.36286 0.93199 0.0
H450 H 0.13112 0.41117 0.93155 0.0
C451 C 0.15526 0.36742 0.80554 0.0
C452 C 0.15582 0.12878 0.3036 0.0
C453 C 0.15738 0.10216 0.34801 0.0
H454 H 0.12455 0.17309 0.26634 0.0
C455 C 0.13405 0.10538 0.39652 0.0
H456 H 0.17304 0.12615 0.26517 0.0
C457 C 0.10624 0.13187 0.39694 0.0
C458 C 0.10171 0.15551 0.34904 0.0
H459 H 0.13436 0.08463 0.43056 0.0
H460 H 0.0858 0.13108 0.43143 0.0
C461 C 0.12808 0.15555 0.30423 0.0
C462 C 0.36517 0.10288 0.89767 0.0
C463 C 0.34109 0.10038 0.85003 0.0
H464 H 0.41353 0.12853 0.93202 0.0
C465 C 0.34148 0.12799 0.8071 0.0
H466 H 0.36562 0.08145 0.93066 0.0
C467 C 0.36894 0.15507 0.80793 0.0
C468 C 0.39605 0.1544 0.85157 0.0
H469 H 0.32357 0.126 0.7694 0.0
H470 H 0.37166 0.17343 0.77084 0.0
C471 C 0.39255 0.12976 0.89842 0.0
C472 C 0.89448 0.63007 0.10527 0.0
C473 C 0.89819 0.65439 0.15242 0.0
H474 H 0.86713 0.58224 0.07243 0.0
C475 C 0.8711 0.65504 0.19615 0.0
H476 H 0.91542 0.6289 0.07157 0.0
C477 C 0.8434 0.62819 0.19672 0.0
C478 C 0.84281 0.60082 0.15346 0.0
H479 H 0.87397 0.6732 0.23342 0.0
H480 H 0.82552 0.62611 0.23448 0.0
C481 C 0.86686 0.60345 0.10573 0.0
C482 C 0.87236 0.8443 0.69731 0.0
C483 C 0.89976 0.84496 0.65404 0.0
H484 H 0.82687 0.87348 0.73556 0.0
C485 C 0.89703 0.87021 0.60791 0.0
H486 H 0.87448 0.82544 0.73385 0.0
C487 C 0.8701 0.89749 0.60896 0.0
C488 C 0.84557 0.89979 0.6561 0.0
H489 H 0.91819 0.87139 0.57455 0.0
H490 H 0.87098 0.91911 0.5763 0.0
C491 C 0.84522 0.87175 0.69833 0.0
C492 C 0.60202 0.86614 0.10412 0.0
C493 C 0.59852 0.84163 0.15111 0.0
H494 H 0.62915 0.91416 0.07135 0.0
C495 C 0.62576 0.8409 0.19457 0.0
H496 H 0.58098 0.86737 0.07062 0.0
C497 C 0.65342 0.86782 0.19504 0.0
C498 C 0.65381 0.89536 0.15199 0.0
H499 H 0.62306 0.82261 0.23173 0.0
H500 H 0.67143 0.86979 0.23262 0.0
C501 C 0.62958 0.89283 0.1045 0.0
C502 C 0.60163 0.62976 0.6055 0.0
C503 C 0.5975 0.65383 0.65289 0.0
H504 H 0.62957 0.58237 0.57232 0.0
C505 C 0.62437 0.65452 0.69691 0.0
H506 H 0.58088 0.62861 0.57152 0.0
C507 C 0.65229 0.62791 0.69744 0.0
C508 C 0.65335 0.60078 0.65382 0.0
H509 H 0.6212 0.67251 0.73432 0.0
H510 H 0.66999 0.62579 0.73538 0.0
C511 C 0.6295 0.60343 0.60588 0.0
C512 C 0.24985 0.47202 0.04884 0.0
C513 C 0.26005 0.50373 0.01763 0.0
H514 H 0.25219 0.4433 0.13088 0.0
C515 C 0.28357 0.52952 0.04381 0.0
H516 H 0.23158 0.45187 0.02942 0.0
C517 C 0.29632 0.52404 0.10067 0.0
C518 C 0.2848 0.49325 0.13311 0.0
H519 H 0.29182 0.55413 0.02039 0.0
H520 H 0.31378 0.54485 0.12025 0.0
C521 C 0.26161 0.46714 0.10663 0.0
C522 C 0.02833 0.26076 0.60875 0.0
C523 C 0.00265 0.2848 0.63435 0.0
H524 H 0.04362 0.2301 0.53221 0.0
C525 C 0.97274 0.29733 0.60087 0.0
H526 H 0.05152 0.2506 0.63376 0.0
C527 C 0.96763 0.28474 0.54386 0.0
C528 C 0.99293 0.26029 0.51857 0.0
H529 H 0.95227 0.31551 0.6197 0.0
H530 H 0.94365 0.29382 0.51965 0.0
C531 C 0.02384 0.2491 0.55086 0.0
C532 C 0.24645 0.02352 0.04789 0.0
C533 C 0.23591 0.99197 0.01663 0.0
H534 H 0.24445 0.0521 0.13 0.0
C535 C 0.21208 0.96641 0.04273 0.0
H536 H 0.26497 0.04348 0.0285 0.0
C537 C 0.1994 0.97192 0.09962 0.0
C538 C 0.21129 0.0025 0.13215 0.0
H539 H 0.20358 0.94193 0.01925 0.0
H540 H 0.18172 0.95126 0.11916 0.0
C541 C 0.23475 0.02842 0.1057 0.0
C542 C 0.51087 0.26718 0.56805 0.0
C543 C 0.50272 0.24287 0.52232 0.0
H544 H 0.51261 0.27604 0.65994 0.0
C545 C 0.48809 0.20797 0.53535 0.0
H546 H 0.52195 0.29433 0.55909 0.0
C547 C 0.48335 0.19701 0.59371 0.0
C548 C 0.49211 0.22128 0.63952 0.0
H549 H 0.4817 0.18876 0.50061 0.0
H550 H 0.47324 0.16955 0.60298 0.0
C551 C 0.50524 0.25671 0.62584 0.0
C552 C 0.79838 0.4772 0.40488 0.0
C553 C 0.78178 0.50399 0.36919 0.0
H554 H 0.79853 0.45007 0.4882 0.0
C555 C 0.75411 0.52655 0.39299 0.0
H556 H 0.81941 0.45909 0.38753 0.0
C557 C 0.74293 0.522 0.45118 0.0
C558 C 0.75837 0.49402 0.4857 0.0
H559 H 0.74076 0.54727 0.36634 0.0
H560 H 0.72111 0.53922 0.4684 0.0
C561 C 0.78634 0.47187 0.46228 0.0
C562 C 0.98515 0.80083 0.90847 0.0
C563 C 0.9922 0.7752 0.8637 0.0
H564 H 0.9846 0.81086 0.00118 0.0
C565 C 0.00224 0.73903 0.87883 0.0
H566 H 0.97733 0.82886 0.89807 0.0
C567 C 0.00704 0.7292 0.93701 0.0
C568 C 0.0011 0.75496 0.9815 0.0
H569 H 0.00808 0.7186 0.84562 0.0
H570 H 0.01618 0.70151 0.94727 0.0
C571 C 0.98915 0.79059 0.96722 0.0
C572 C 0.69458 0.01586 0.40583 0.0
C573 C 0.71241 0.99012 0.36973 0.0
H574 H 0.693 0.04215 0.48967 0.0
C575 C 0.74043 0.96801 0.39357 0.0
H576 H 0.67319 0.03357 0.38853 0.0
C577 C 0.75101 0.97226 0.45206 0.0
C578 C 0.73453 -0.00052 0.48688 0.0
H579 H 0.75468 0.94806 0.36663 0.0
H580 H 0.77335 0.95568 0.46914 0.0
C581 C 0.70596 0.02091 0.46356 0.0
C582 C 0.48929 0.76657 0.93629 0.0
C583 C 0.49555 0.74075 0.98062 0.0
H584 H 0.48777 0.77736 0.84498 0.0
C585 C 0.50761 0.7052 0.96606 0.0
H586 H 0.48006 0.79419 0.94676 0.0
C587 C 0.5114 0.69511 0.90721 0.0
C588 C 0.504 0.72079 0.86262 0.0
H589 H 0.5124 0.68489 0.99989 0.0
H590 H 0.51932 0.66714 0.89662 0.0
C591 C 0.49386 0.75688 0.87802 0.0
C592 C 0.69729 0.47764 0.90529 0.0
C593 C 0.71408 0.50419 0.86934 0.0
H594 H 0.69696 0.4508 0.98882 0.0
C595 C 0.74189 0.52668 0.89289 0.0
H596 H 0.67613 0.4596 0.88814 0.0
C597 C 0.75305 0.52226 0.95109 0.0
C598 C 0.73742 0.49449 0.98585 0.0
H599 H 0.75538 0.54722 0.86604 0.0
H600 H 0.77499 0.53938 0.96812 0.0
C601 C 0.70929 0.47243 0.9627 0.0
C602 C 0.97077 0.74202 0.38965 0.0
C603 C 0.99334 0.7143 0.36616 0.0
H604 H 0.95792 0.7749 0.46495 0.0
C605 C 0.01959 0.69714 0.40205 0.0
H606 H 0.95044 0.75571 0.36268 0.0
C607 C 0.0246 0.70886 0.45949 0.0
C608 C 0.00263 0.73707 0.48253 0.0
H609 H 0.03763 0.676 0.38479 0.0
H610 H 0.04608 0.69634 0.48567 0.0
C611 C 0.97497 0.7529 0.44789 0.0
C612 C 0.78833 0.02335 0.96411 0.0
C613 C 0.75929 0.00246 0.98711 0.0
H614 H 0.8212 0.03588 0.88906 0.0
C615 C 0.74157 0.97644 0.95155 0.0
H616 H 0.80217 0.04372 0.99084 0.0
C617 C 0.7517 0.97262 0.89279 0.0
C618 C 0.78046 0.99398 0.86939 0.0
H619 H 0.71882 0.96034 0.96847 0.0
H620 H 0.73671 0.95346 0.86543 0.0
C621 C 0.79924 0.01873 0.90605 0.0
C622 C 0.47577 0.79796 0.40033 0.0
C623 C 0.50275 0.78135 0.36513 0.0
H624 H 0.44846 0.79826 0.48334 0.0
C625 C 0.52559 0.75406 0.38916 0.0
H626 H 0.45749 0.81873 0.38259 0.0
C627 C 0.52103 0.74311 0.44732 0.0
C628 C 0.49274 0.75841 0.4813 0.0
H629 H 0.54645 0.74078 0.36269 0.0
H630 H 0.53838 0.7215 0.46486 0.0
C631 C 0.47041 0.78614 0.45768 0.0
C632 C 0.25531 0.49631 0.62066 0.0
C633 C 0.2182 0.48947 0.63463 0.0
H634 H 0.29469 0.50845 0.55395 0.0
C635 C 0.19243 0.48648 0.58896 0.0
H636 H 0.27594 0.49905 0.65455 0.0
C637 C 0.20357 0.49114 0.53065 0.0
C638 C 0.24036 0.49986 0.51761 0.0
H639 H 0.16366 0.48126 0.59836 0.0
H640 H 0.18323 0.48962 0.49615 0.0
C641 C 0.26612 0.50189 0.56301 0.0
C642 C 0.99544 0.2564 0.12285 0.0
C643 C 0.00488 0.21988 0.13702 0.0
H644 H 0.98138 0.29495 0.05596 0.0
C645 C 0.01013 0.19443 0.09136 0.0
H646 H 0.99091 0.2768 0.15662 0.0
C647 C 0.00526 0.20528 0.03289 0.0
C648 C 0.99409 0.2414 0.01959 0.0
H649 H 0.0174 0.16613 0.10084 0.0
H650 H 0.00867 0.18515 0.99842 0.0
C651 C 0.98974 0.26686 0.06507 0.0
C652 C 0.2933 0.00397 0.52968 0.0
C653 C 0.25635 0.99626 0.51634 0.0
H654 H 0.33313 0.01289 0.5977 0.0
C655 C 0.23029 0.99519 0.56143 0.0
H656 H 0.31386 0.00471 0.4954 0.0
C657 C 0.24096 0.00064 0.61915 0.0
C658 C 0.2782 0.00639 0.63347 0.0
H659 H 0.20161 0.9894 0.55207 0.0
H660 H 0.22009 -0.0014 0.65282 0.0
C661 C 0.30427 0.00852 0.58805 0.0
C662 C 0.47385 0.2454 0.05389 0.0
C663 C 0.50426 0.25768 0.02135 0.0
H664 H 0.44624 0.24618 0.13691 0.0
C665 C 0.52871 0.28311 0.04624 0.0
H666 H 0.45474 0.22567 0.03546 0.0
C667 C 0.52317 0.29575 0.10314 0.0
C668 C 0.49375 0.28227 0.1368 0.0
H669 H 0.55226 0.29302 0.02177 0.0
H670 H 0.54292 0.3148 0.12172 0.0
C671 C 0.469 0.2571 0.11167 0.0
C672 C 0.18236 0.5848 0.23047 0.0
C673 C 0.19034 0.58706 0.29027 0.0
H674 H 0.14806 0.60354 0.16041 0.0
C675 C 0.16957 0.61057 0.3261 0.0
H676 H 0.19831 0.567 0.20212 0.0
C677 C 0.14029 0.63071 0.3026 0.0
C678 C 0.13256 0.62864 0.24266 0.0
H679 H 0.17544 0.61264 0.37238 0.0
H680 H 0.12377 0.6479 0.33105 0.0
C681 C 0.15402 0.6059 0.20665 0.0
C682 C 0.8899 0.15363 0.70673 0.0
C683 C 0.86515 0.13373 0.74173 0.0
H684 H 0.93049 0.1965 0.70339 0.0
C685 C 0.86124 0.14301 0.80092 0.0
H686 H 0.89373 0.14652 0.66116 0.0
C687 C 0.88157 0.1721 0.82466 0.0
C688 C 0.90712 0.19126 0.79006 0.0
H689 H 0.8425 0.12775 0.8287 0.0
H690 H 0.87802 0.17904 0.87034 0.0
C691 C 0.91116 0.18182 0.73095 0.0
C692 C 0.32706 0.8851 0.32499 0.0
C693 C 0.30656 0.90888 0.28922 0.0
H694 H 0.37257 0.84742 0.32991 0.0
C695 C 0.31472 0.9113 0.22948 0.0
H696 H 0.32104 0.88288 0.37121 0.0
C697 C 0.34297 0.89006 0.20566 0.0
C698 C 0.36415 0.86703 0.24162 0.0
H699 H 0.29897 0.92929 0.20116 0.0
H700 H 0.34909 0.89254 0.15948 0.0
C701 C 0.35625 0.86483 0.3015 0.0
C702 C 0.62252 0.30072 0.7697 0.0
C703 C 0.58887 0.30585 0.79914 0.0
H704 H 0.66672 0.32598 0.7221 0.0
C705 C 0.57483 0.34159 0.80535 0.0
H706 H 0.63391 0.27337 0.76402 0.0
C707 C 0.59391 0.37163 0.78237 0.0
C708 C 0.62709 0.3665 0.75163 0.0
H709 H 0.54908 0.34638 0.82801 0.0
H710 H 0.58207 0.39883 0.78737 0.0
C711 C 0.64126 0.33074 0.74558 0.0
C712 C 0.65489 0.42456 0.20709 0.0
C713 C 0.69003 0.40855 0.20733 0.0
H714 H 0.59808 0.41869 0.22905 0.0
C715 C 0.69433 0.37266 0.22954 0.0
H716 H 0.65068 0.45205 0.18992 0.0
C717 C 0.66421 0.35358 0.25266 0.0
C718 C 0.62912 0.36978 0.25288 0.0
H719 H 0.72117 0.35964 0.23039 0.0
H720 H 0.66844 0.32632 0.2707 0.0
C721 C 0.62471 0.40527 0.22911 0.0
C722 C 0.12506 0.6951 0.72895 0.0
C723 C 0.09087 0.69016 0.70102 0.0
H724 H 0.16977 0.66975 0.77523 0.0
C725 C 0.07653 0.65442 0.69593 0.0
H726 H 0.13677 0.72237 0.73376 0.0
C727 C 0.09574 0.62431 0.71862 0.0
C728 C 0.12943 0.62927 0.74804 0.0
H729 H 0.05039 0.64968 0.67444 0.0
H730 H 0.08355 0.5972 0.71457 0.0
C731 C 0.14395 0.66501 0.75279 0.0
C732 C 0.80224 0.12122 0.23845 0.0
C733 C 0.80724 0.08688 0.21114 0.0
H734 H 0.82772 0.16675 0.28234 0.0
C735 C 0.843 0.07279 0.20502 0.0
H736 H 0.77491 0.13268 0.24389 0.0
C737 C 0.87321 0.09272 0.22566 0.0
C738 C 0.86815 0.12669 0.2541 0.0
H739 H 0.84764 0.04652 0.18383 0.0
H740 H 0.90048 0.08103 0.22078 0.0
C741 C 0.83238 0.14071 0.26044 0.0
C742 C 0.39897 0.87084 0.71609 0.0
C743 C 0.36579 0.86584 0.74692 0.0
H744 H 0.44382 0.84553 0.67068 0.0
C745 C 0.3515 0.83005 0.75271 0.0
H746 H 0.41096 0.89799 0.71115 0.0
C747 C 0.37023 0.79993 0.72863 0.0
C748 C 0.40399 0.80495 0.69945 0.0
H749 H 0.32605 0.8253 0.77621 0.0
H750 H 0.35881 0.7726 0.73434 0.0
C751 C 0.41801 0.84075 0.69317 0.0
C752 C 0.87027 0.40504 0.7327 0.0
C753 C 0.86599 0.369 0.75443 0.0
H754 H 0.84447 0.45224 0.69471 0.0
C755 C 0.8311 0.3524 0.75201 0.0
H756 H 0.89671 0.41883 0.73428 0.0
C757 C 0.80112 0.37159 0.72861 0.0
C758 C 0.80536 0.40796 0.70825 0.0
H759 H 0.82693 0.32473 0.76843 0.0
H760 H 0.77445 0.35824 0.7277 0.0
C761 C 0.84027 0.42438 0.71034 0.0
C762 C 0.09413 0.87038 0.22893 0.0
C763 C 0.12967 0.86593 0.2524 0.0
H764 H 0.04764 0.84493 0.18855 0.0
C765 C 0.14625 0.83099 0.25021 0.0
H766 H 0.08035 0.89682 0.23008 0.0
C767 C 0.12742 0.80111 0.22549 0.0
C768 C 0.09146 0.80557 0.20365 0.0
H769 H 0.17357 0.82669 0.26787 0.0
H770 H 0.14059 0.77435 0.22495 0.0
C771 C 0.07519 0.84055 0.20532 0.0
C772 C 0.65354 0.07563 0.69798 0.0
C773 C 0.6894 0.08928 0.70503 0.0
H774 H 0.59615 0.08373 0.71447 0.0
C775 C 0.69465 0.12293 0.73429 0.0
H776 H 0.64872 0.04987 0.67535 0.0
C777 C 0.66463 0.14203 0.75761 0.0
C778 C 0.62877 0.1283 0.75069 0.0
H779 H 0.72207 0.134 0.74051 0.0
H780 H 0.66946 0.16744 0.78117 0.0
C781 C 0.62348 0.09518 0.71996 0.0
C782 C 0.36958 0.6942 0.22519 0.0
C783 C 0.40561 0.68981 0.20357 0.0
H784 H 0.32337 0.6686 0.2675 0.0
C785 C 0.42199 0.65487 0.20569 0.0
H786 H 0.35631 0.72091 0.22433 0.0
C787 C 0.40305 0.62504 0.22944 0.0
C788 C 0.36742 0.62944 0.25264 0.0
H789 H 0.44959 0.65053 0.18911 0.0
H790 H 0.4169 0.59863 0.23093 0.0
C791 C 0.35076 0.66433 0.25005 0.0
C792 C 0.35464 0.63337 0.80184 0.0
C793 C 0.36542 0.62749 0.74374 0.0
H794 H 0.31673 0.6188 0.8701 0.0
C795 C 0.34698 0.60101 0.70999 0.0
H796 H 0.36871 0.65356 0.82859 0.0
C797 C 0.31844 0.58027 0.73425 0.0
C798 C 0.30719 0.58659 0.79198 0.0
H799 H 0.35522 0.59579 0.66524 0.0
H800 H 0.30467 0.5598 0.70762 0.0
C801 C 0.32515 0.61353 0.82547 0.0
C802 C 0.85504 0.3307 0.24403 0.0
C803 C 0.86901 0.36653 0.25027 0.0
H804 H 0.86286 0.2733 0.26178 0.0
C805 C 0.90239 0.37174 0.28039 0.0
H806 H 0.82945 0.32587 0.22098 0.0
C807 C 0.92182 0.34174 0.30264 0.0
C808 C 0.90794 0.30593 0.29634 0.0
H809 H 0.91409 0.399 0.28546 0.0
H810 H 0.94768 0.3466 0.32492 0.0
C811 C 0.87414 0.3007 0.26747 0.0
C812 C 0.14235 0.86126 0.80162 0.0
C813 C 0.13161 0.86692 0.74347 0.0
H814 H 0.17999 0.87634 0.86985 0.0
C815 C 0.14985 0.89347 0.70952 0.0
H816 H 0.12839 0.84104 0.82852 0.0
C817 C 0.17814 0.91454 0.73368 0.0
C818 C 0.1893 0.90846 0.7915 0.0
H819 H 0.14159 0.89855 0.66474 0.0
H820 H 0.19177 0.93507 0.70694 0.0
C821 C 0.17158 0.88142 0.82516 0.0
C822 C 0.59255 0.1246 0.2763 0.0
C823 C 0.62773 0.12938 0.25167 0.0
H824 H 0.54577 0.15017 0.31609 0.0
C825 C 0.64345 0.16471 0.25091 0.0
H826 H 0.57953 0.09775 0.27699 0.0
C827 C 0.62426 0.19468 0.27441 0.0
C828 C 0.58867 0.18993 0.29749 0.0
H829 H 0.67047 0.16914 0.23213 0.0
H830 H 0.63684 0.22173 0.27305 0.0
C831 C 0.57306 0.15461 0.29831 0.0
loop_
_geom_bond_atom_site_label_1
_geom_bond_atom_site_label_2
_geom_bond_distance
_geom_bond_site_symmetry_2
_ccdc_geom_bond_type
Sc0 O3 2.025 . S
Sc0 O10 2.105 . S
Sc0 O13 2.105 . S
Sc0 O16 2.105 . S
Sc0 O19 2.105 . S
Sc1 O3 2.025 . S
Sc1 O11 2.105 . S
Sc1 O15 2.105 . S
Sc1 O17 2.105 . S
Sc1 O21 2.105 . S
Sc2 O3 2.025 . S
Sc2 O12 2.105 . S
Sc2 O14 2.105 . S
Sc2 O18 2.105 . S
Sc2 O20 2.105 . S
O3 Sc0 2.025 . S
O3 Sc1 2.025 . S
O3 Sc2 2.025 . S
C4 O10 1.268 . S
C4 O20 1.268 . S
C5 O11 1.268 . S
C5 O19 1.268 . S
C6 O12 1.268 . S
C6 O21 1.268 . S
C7 O13 1.268 . S
C7 O17 1.268 . S
C8 O14 1.268 . S
C8 O16 1.268 . S
C9 O15 1.268 . S
C9 O18 1.268 . S
O10 Sc0 2.105 . S
O10 C4 1.268 . S
O11 Sc1 2.105 . S
O11 C5 1.268 . S
O12 Sc2 2.105 . S
O12 C6 1.268 . S
O13 Sc0 2.105 . S
O13 C7 1.268 . S
O14 Sc2 2.105 . S
O14 C8 1.268 . S
O15 Sc1 2.105 . S
O15 C9 1.268 . S
O16 Sc0 2.105 . S
O16 C8 1.268 . S
O17 Sc1 2.105 . S
O17 C7 1.268 . S
O18 Sc2 2.105 . S
O18 C9 1.268 . S
O19 Sc0 2.105 . S
O19 C5 1.268 . S
O20 Sc2 2.105 . S
O20 C4 1.268 . S
O21 Sc1 2.105 . S
O21 C6 1.268 . S
Sc22 O25 2.025 . S
Sc22 O32 2.105 . S
Sc22 O35 2.105 . S
Sc22 O38 2.105 . S
Sc22 O41 2.105 . S
Sc23 O25 2.025 . S
Sc23 O33 2.105 . S
Sc23 O37 2.105 . S
Sc23 O39 2.105 . S
Sc23 O43 2.105 1_655 S
Sc24 O25 2.025 1_455 S
Sc24 O34 2.105 . S
Sc24 O36 2.105 1_455 S
Sc24 O40 2.105 . S
Sc24 O42 2.105 . S
O25 Sc22 2.025 . S
O25 Sc23 2.025 . S
O25 Sc24 2.025 1_655 S
C26 O32 1.268 . S
C26 O42 1.268 1_655 S
C27 O33 1.268 . S
C27 O41 1.268 . S
C28 O34 1.268 . S
C28 O43 1.268 . S
C29 O35 1.268 . S
C29 O39 1.268 . S
C30 O36 1.268 . S
C30 O38 1.268 . S
C31 O37 1.268 . S
C31 O40 1.268 1_655 S
O32 Sc22 2.105 . S
O32 C26 1.268 . S
O33 Sc23 2.105 . S
O33 C27 1.268 . S
O34 Sc24 2.105 . S
O34 C28 1.268 . S
O35 Sc22 2.105 . S
O35 C29 1.268 . S
O36 Sc24 2.105 1_655 S
O36 C30 1.268 . S
O37 Sc23 2.105 . S
O37 C31 1.268 . S
O38 Sc22 2.105 . S
O38 C30 1.268 . S
O39 Sc23 2.105 . S
O39 C29 1.268 . S
O40 Sc24 2.105 . S
O40 C31 1.268 1_455 S
O41 Sc22 2.105 . S
O41 C27 1.268 . S
O42 Sc24 2.105 . S
O42 C26 1.268 1_455 S
O43 Sc23 2.105 1_455 S
O43 C28 1.268 . S
Sc44 O47 2.025 1_545 S
Sc44 O54 2.105 1_545 S
Sc44 O57 2.105 . S
Sc44 O60 2.105 . S
Sc44 O63 2.105 . S
Sc45 O47 2.025 . S
Sc45 O55 2.105 . S
Sc45 O59 2.105 . S
Sc45 O61 2.105 1_565 S
Sc45 O65 2.105 . S
Sc46 O47 2.025 . S
Sc46 O56 2.105 . S
Sc46 O58 2.105 . S
Sc46 O62 2.105 . S
Sc46 O64 2.105 . S
O47 Sc44 2.025 1_565 S
O47 Sc45 2.025 . S
O47 Sc46 2.025 . S
C48 O54 1.268 . S
C48 O64 1.268 . S
C49 O55 1.268 . S
C49 O63 1.268 1_565 S
C50 O56 1.268 . S
C50 O65 1.268 . S
C51 O57 1.268 . S
C51 O61 1.268 . S
C52 O58 1.268 . S
C52 O60 1.268 1_565 S
C53 O59 1.268 . S
C53 O62 1.268 . S
O54 Sc44 2.105 1_565 S
O54 C48 1.268 . S
O55 Sc45 2.105 . S
O55 C49 1.268 . S
O56 Sc46 2.105 . S
O56 C50 1.268 . S
O57 Sc44 2.105 . S
O57 C51 1.268 . S
O58 Sc46 2.105 . S
O58 C52 1.268 . S
O59 Sc45 2.105 . S
O59 C53 1.268 . S
O60 Sc44 2.105 . S
O60 C52 1.268 1_545 S
O61 Sc45 2.105 1_545 S
O61 C51 1.268 . S
O62 Sc46 2.105 . S
O62 C53 1.268 . S
O63 Sc44 2.105 . S
O63 C49 1.268 1_545 S
O64 Sc46 2.105 . S
O64 C48 1.268 . S
O65 Sc45 2.105 . S
O65 C50 1.268 . S
Sc66 O69 2.025 . S
Sc66 O76 2.105 . S
Sc66 O79 2.105 . S
Sc66 O82 2.105 . S
Sc66 O85 2.105 . S
Sc67 O69 2.025 . S
Sc67 O77 2.105 . S
Sc67 O81 2.105 . S
Sc67 O83 2.105 . S
Sc67 O87 2.105 . S
Sc68 O69 2.025 . S
Sc68 O78 2.105 . S
Sc68 O80 2.105 . S
Sc68 O84 2.105 . S
Sc68 O86 2.105 . S
O69 Sc66 2.025 . S
O69 Sc67 2.025 . S
O69 Sc68 2.025 . S
C70 O76 1.268 . S
C70 O86 1.268 . S
C71 O77 1.268 . S
C71 O85 1.268 . S
C72 O78 1.268 . S
C72 O87 1.268 . S
C73 O79 1.268 . S
C73 O83 1.268 . S
C74 O80 1.268 . S
C74 O82 1.268 . S
C75 O81 1.268 . S
C75 O84 1.268 . S
O76 Sc66 2.105 . S
O76 C70 1.268 . S
O77 Sc67 2.105 . S
O77 C71 1.268 . S
O78 Sc68 2.105 . S
O78 C72 1.268 . S
O79 Sc66 2.105 . S
O79 C73 1.268 . S
O80 Sc68 2.105 . S
O80 C74 1.268 . S
O81 Sc67 2.105 . S
O81 C75 1.268 . S
O82 Sc66 2.105 . S
O82 C74 1.268 . S
O83 Sc67 2.105 . S
O83 C73 1.268 . S
O84 Sc68 2.105 . S
O84 C75 1.268 . S
O85 Sc66 2.105 . S
O85 C71 1.268 . S
O86 Sc68 2.105 . S
O86 C70 1.268 . S
O87 Sc67 2.105 . S
O87 C72 1.268 . S
Sc88 O91 2.025 . S
Sc88 O98 2.105 . S
Sc88 O101 2.105 . S
Sc88 O104 2.105 . S
Sc88 O107 2.105 . S
Sc89 O91 2.025 . S
Sc89 O99 2.105 . S
Sc89 O103 2.105 . S
Sc89 O105 2.105 . S
Sc89 O109 2.105 . S
Sc90 O91 2.025 . S
Sc90 O100 2.105 . S
Sc90 O102 2.105 . S
Sc90 O106 2.105 . S
Sc90 O108 2.105 . S
O91 Sc88 2.025 . S
O91 Sc89 2.025 . S
O91 Sc90 2.025 . S
C92 O98 1.268 . S
C92 O108 1.268 . S
C93 O99 1.268 . S
C93 O107 1.268 . S
C94 O100 1.268 . S
C94 O109 1.268 . S
C95 O101 1.268 . S
C95 O105 1.268 . S
C96 O102 1.268 . S
C96 O104 1.268 . S
C97 O103 1.268 . S
C97 O106 1.268 . S
O98 Sc88 2.105 . S
O98 C92 1.268 . S
O99 Sc89 2.105 . S
O99 C93 1.268 . S
O100 Sc90 2.105 . S
O100 C94 1.268 . S
O101 Sc88 2.105 . S
O101 C95 1.268 . S
O102 Sc90 2.105 . S
O102 C96 1.268 . S
O103 Sc89 2.105 . S
O103 C97 1.268 . S
O104 Sc88 2.105 . S
O104 C96 1.268 . S
O105 Sc89 2.105 . S
O105 C95 1.268 . S
O106 Sc90 2.105 . S
O106 C97 1.268 . S
O107 Sc88 2.105 . S
O107 C93 1.268 . S
O108 Sc90 2.105 . S
O108 C92 1.268 . S
O109 Sc89 2.105 . S
O109 C94 1.268 . S
Sc110 O113 2.025 1_655 S
Sc110 O120 2.105 1_655 S
Sc110 O123 2.105 . S
Sc110 O126 2.105 . S
Sc110 O129 2.105 . S
Sc111 O113 2.025 . S
Sc111 O121 2.105 . S
Sc111 O125 2.105 . S
Sc111 O127 2.105 1_455 S
Sc111 O131 2.105 . S
Sc112 O113 2.025 . S
Sc112 O122 2.105 . S
Sc112 O124 2.105 . S
Sc112 O128 2.105 . S
Sc112 O130 2.105 . S
O113 Sc110 2.025 1_455 S
O113 Sc111 2.025 . S
O113 Sc112 2.025 . S
C114 O120 1.268 . S
C114 O130 1.268 . S
C115 O121 1.268 . S
C115 O129 1.268 1_455 S
C116 O122 1.268 . S
C116 O131 1.268 . S
C117 O123 1.268 . S
C117 O127 1.268 . S
C118 O124 1.268 . S
C118 O126 1.268 1_455 S
C119 O125 1.268 . S
C119 O128 1.268 . S
O120 Sc110 2.105 1_455 S
O120 C114 1.268 . S
O121 Sc111 2.105 . S
O121 C115 1.268 . S
O122 Sc112 2.105 . S
O122 C116 1.268 . S
O123 Sc110 2.105 . S
O123 C117 1.268 . S
O124 Sc112 2.105 . S
O124 C118 1.268 . S
O125 Sc111 2.105 . S
O125 C119 1.268 . S
O126 Sc110 2.105 . S
O126 C118 1.268 1_655 S
O127 Sc111 2.105 1_655 S
O127 C117 1.268 . S
O128 Sc112 2.105 . S
O128 C119 1.268 . S
O129 Sc110 2.105 . S
O129 C115 1.268 1_655 S
O130 Sc112 2.105 . S
O130 C114 1.268 . S
O131 Sc111 2.105 . S
O131 C116 1.268 . S
Sc132 O135 2.025 1_565 S
Sc132 O142 2.105 1_565 S
Sc132 O145 2.105 . S
Sc132 O148 2.105 . S
Sc132 O151 2.105 . S
Sc133 O135 2.025 . S
Sc133 O143 2.105 . S
Sc133 O147 2.105 . S
Sc133 O149 2.105 1_545 S
Sc133 O153 2.105 . S
Sc134 O135 2.025 . S
Sc134 O144 2.105 . S
Sc134 O146 2.105 . S
Sc134 O150 2.105 . S
Sc134 O152 2.105 . S
O135 Sc132 2.025 1_545 S
O135 Sc133 2.025 . S
O135 Sc134 2.025 . S
C136 O142 1.268 . S
C136 O152 1.268 . S
C137 O143 1.268 . S
C137 O151 1.268 1_545 S
C138 O144 1.268 . S
C138 O153 1.268 . S
C139 O145 1.268 . S
C139 O149 1.268 . S
C140 O146 1.268 . S
C140 O148 1.268 1_545 S
C141 O147 1.268 . S
C141 O150 1.268 . S
O142 Sc132 2.105 1_545 S
O142 C136 1.268 . S
O143 Sc133 2.105 . S
O143 C137 1.268 . S
O144 Sc134 2.105 . S
O144 C138 1.268 . S
O145 Sc132 2.105 . S
O145 C139 1.268 . S
O146 Sc134 2.105 . S
O146 C140 1.268 . S
O147 Sc133 2.105 . S
O147 C141 1.268 . S
O148 Sc132 2.105 . S
O148 C140 1.268 1_565 S
O149 Sc133 2.105 1_565 S
O149 C139 1.268 . S
O150 Sc134 2.105 . S
O150 C141 1.268 . S
O151 Sc132 2.105 . S
O151 C137 1.268 1_565 S
O152 Sc134 2.105 . S
O152 C136 1.268 . S
O153 Sc133 2.105 . S
O153 C138 1.268 . S
Sc154 O157 2.025 . S
Sc154 O164 2.105 . S
Sc154 O167 2.105 . S
Sc154 O170 2.105 . S
Sc154 O173 2.105 . S
Sc155 O157 2.025 . S
Sc155 O165 2.105 . S
Sc155 O169 2.105 . S
Sc155 O171 2.105 . S
Sc155 O175 2.105 . S
Sc156 O157 2.025 . S
Sc156 O166 2.105 . S
Sc156 O168 2.105 . S
Sc156 O172 2.105 . S
Sc156 O174 2.105 . S
O157 Sc154 2.025 . S
O157 Sc155 2.025 . S
O157 Sc156 2.025 . S
C158 O164 1.268 . S
C158 O174 1.268 . S
C159 O165 1.268 . S
C159 O173 1.268 . S
C160 O166 1.268 . S
C160 O175 1.268 . S
C161 O167 1.268 . S
C161 O171 1.268 . S
C162 O168 1.268 . S
C162 O170 1.268 . S
C163 O169 1.268 . S
C163 O172 1.268 . S
O164 Sc154 2.105 . S
O164 C158 1.268 . S
O165 Sc155 2.105 . S
O165 C159 1.268 . S
O166 Sc156 2.105 . S
O166 C160 1.268 . S
O167 Sc154 2.105 . S
O167 C161 1.268 . S
O168 Sc156 2.105 . S
O168 C162 1.268 . S
O169 Sc155 2.105 . S
O169 C163 1.268 . S
O170 Sc154 2.105 . S
O170 C162 1.268 . S
O171 Sc155 2.105 . S
O171 C161 1.268 . S
O172 Sc156 2.105 . S
O172 C163 1.268 . S
O173 Sc154 2.105 . S
O173 C159 1.268 . S
O174 Sc156 2.105 . S
O174 C158 1.268 . S
O175 Sc155 2.105 . S
O175 C160 1.268 . S
Sc176 O179 2.025 . S
Sc176 O186 2.105 . S
Sc176 O189 2.105 . S
Sc176 O192 2.105 . S
Sc176 O195 2.105 . S
Sc177 O179 2.025 . S
Sc177 O187 2.105 . S
Sc177 O191 2.105 . S
Sc177 O193 2.105 . S
Sc177 O197 2.105 . S
Sc178 O179 2.025 . S
Sc178 O188 2.105 . S
Sc178 O190 2.105 . S
Sc178 O194 2.105 . S
Sc178 O196 2.105 . S
O179 Sc176 2.025 . S
O179 Sc177 2.025 . S
O179 Sc178 2.025 . S
C180 O186 1.268 . S
C180 O196 1.268 . S
C181 O187 1.268 . S
C181 O195 1.268 . S
C182 O188 1.268 . S
C182 O197 1.268 . S
C183 O189 1.268 . S
C183 O193 1.268 . S
C184 O190 1.268 . S
C184 O192 1.268 . S
C185 O191 1.268 . S
C185 O194 1.268 . S
O186 Sc176 2.105 . S
O186 C180 1.268 . S
O187 Sc177 2.105 . S
O187 C181 1.268 . S
O188 Sc178 2.105 . S
O188 C182 1.268 . S
O189 Sc176 2.105 . S
O189 C183 1.268 . S
O190 Sc178 2.105 . S
O190 C184 1.268 . S
O191 Sc177 2.105 . S
O191 C185 1.268 . S
O192 Sc176 2.105 . S
O192 C184 1.268 . S
O193 Sc177 2.105 . S
O193 C183 1.268 . S
O194 Sc178 2.105 . S
O194 C185 1.268 . S
O195 Sc176 2.105 . S
O195 C181 1.268 . S
O196 Sc178 2.105 . S
O196 C180 1.268 . S
O197 Sc177 2.105 . S
O197 C182 1.268 . S
Sc198 O201 2.025 1_655 S
Sc198 O208 2.105 . S
Sc198 O211 2.105 . S
Sc198 O214 2.105 1_655 S
Sc198 O217 2.105 . S
Sc199 O201 2.025 . S
Sc199 O209 2.105 1_455 S
Sc199 O213 2.105 . S
Sc199 O215 2.105 . S
Sc199 O219 2.105 . S
Sc200 O201 2.025 . S
Sc200 O210 2.105 . S
Sc200 O212 2.105 . S
Sc200 O216 2.105 . S
Sc200 O218 2.105 . S
O201 Sc198 2.025 1_455 S
O201 Sc199 2.025 . S
O201 Sc200 2.025 . S
C202 O208 1.268 1_455 S
C202 O218 1.268 . S
C203 O209 1.268 . S
C203 O217 1.268 . S
C204 O210 1.268 . S
C204 O219 1.268 . S
C205 O211 1.268 1_455 S
C205 O215 1.268 . S
C206 O212 1.268 . S
C206 O214 1.268 . S
C207 O213 1.268 . S
C207 O216 1.268 . S
O208 Sc198 2.105 . S
O208 C202 1.268 1_655 S
O209 Sc199 2.105 1_655 S
O209 C203 1.268 . S
O210 Sc200 2.105 . S
O210 C204 1.268 . S
O211 Sc198 2.105 . S
O211 C205 1.268 1_655 S
O212 Sc200 2.105 . S
O212 C206 1.268 . S
O213 Sc199 2.105 . S
O213 C207 1.268 . S
O214 Sc198 2.105 1_455 S
O214 C206 1.268 . S
O215 Sc199 2.105 . S
O215 C205 1.268 . S
O216 Sc200 2.105 . S
O216 C207 1.268 . S
O217 Sc198 2.105 . S
O217 C203 1.268 . S
O218 Sc200 2.105 . S
O218 C202 1.268 . S
O219 Sc199 2.105 . S
O219 C204 1.268 . S
Sc220 O223 2.025 . S
Sc220 O230 2.105 . S
Sc220 O233 2.105 . S
Sc220 O236 2.105 . S
Sc220 O239 2.105 . S
Sc221 O223 2.025 . S
Sc221 O231 2.105 . S
Sc221 O235 2.105 1_545 S
Sc221 O237 2.105 . S
Sc221 O241 2.105 . S
Sc222 O223 2.025 1_565 S
Sc222 O232 2.105 . S
Sc222 O234 2.105 . S
Sc222 O238 2.105 . S
Sc222 O240 2.105 1_565 S
O223 Sc220 2.025 . S
O223 Sc221 2.025 . S
O223 Sc222 2.025 1_545 S
C224 O230 1.268 . S
C224 O240 1.268 . S
C225 O231 1.268 . S
C225 O239 1.268 . S
C226 O232 1.268 1_545 S
C226 O241 1.268 . S
C227 O233 1.268 . S
C227 O237 1.268 . S
C228 O234 1.268 1_545 S
C228 O236 1.268 . S
C229 O235 1.268 . S
C229 O238 1.268 . S
O230 Sc220 2.105 . S
O230 C224 1.268 . S
O231 Sc221 2.105 . S
O231 C225 1.268 . S
O232 Sc222 2.105 . S
O232 C226 1.268 1_565 S
O233 Sc220 2.105 . S
O233 C227 1.268 . S
O234 Sc222 2.105 . S
O234 C228 1.268 1_565 S
O235 Sc221 2.105 1_565 S
O235 C229 1.268 . S
O236 Sc220 2.105 . S
O236 C228 1.268 . S
O237 Sc221 2.105 . S
O237 C227 1.268 . S
O238 Sc222 2.105 . S
O238 C229 1.268 . S
O239 Sc220 2.105 . S
O239 C225 1.268 . S
O240 Sc222 2.105 1_545 S
O240 C224 1.268 . S
O241 Sc221 2.105 . S
O241 C226 1.268 . S
Sc242 O245 2.025 . S
Sc242 O252 2.105 . S
Sc242 O255 2.105 . S
Sc242 O258 2.105 . S
Sc242 O261 2.105 . S
Sc243 O245 2.025 . S
Sc243 O253 2.105 . S
Sc243 O257 2.105 . S
Sc243 O259 2.105 . S
Sc243 O263 2.105 . S
Sc244 O245 2.025 . S
Sc244 O254 2.105 . S
Sc244 O256 2.105 . S
Sc244 O260 2.105 . S
Sc244 O262 2.105 . S
O245 Sc242 2.025 . S
O245 Sc243 2.025 . S
O245 Sc244 2.025 . S
C246 O252 1.268 . S
C246 O262 1.268 . S
C247 O253 1.268 . S
C247 O261 1.268 . S
C248 O254 1.268 . S
C248 O263 1.268 . S
C249 O255 1.268 . S
C249 O259 1.268 . S
C250 O256 1.268 . S
C250 O258 1.268 . S
C251 O257 1.268 . S
C251 O260 1.268 . S
O252 Sc242 2.105 . S
O252 C246 1.268 . S
O253 Sc243 2.105 . S
O253 C247 1.268 . S
O254 Sc244 2.105 . S
O254 C248 1.268 . S
O255 Sc242 2.105 . S
O255 C249 1.268 . S
O256 Sc244 2.105 . S
O256 C250 1.268 . S
O257 Sc243 2.105 . S
O257 C251 1.268 . S
O258 Sc242 2.105 . S
O258 C250 1.268 . S
O259 Sc243 2.105 . S
O259 C249 1.268 . S
O260 Sc244 2.105 . S
O260 C251 1.268 . S
O261 Sc242 2.105 . S
O261 C247 1.268 . S
O262 Sc244 2.105 . S
O262 C246 1.268 . S
O263 Sc243 2.105 . S
O263 C248 1.268 . S
Sc264 O267 2.025 . S
Sc264 O274 2.105 . S
Sc264 O277 2.105 . S
Sc264 O280 2.105 . S
Sc264 O283 2.105 . S
Sc265 O267 2.025 . S
Sc265 O275 2.105 . S
Sc265 O279 2.105 . S
Sc265 O281 2.105 . S
Sc265 O285 2.105 . S
Sc266 O267 2.025 . S
Sc266 O276 2.105 . S
Sc266 O278 2.105 . S
Sc266 O282 2.105 . S
Sc266 O284 2.105 . S
O267 Sc264 2.025 . S
O267 Sc265 2.025 . S
O267 Sc266 2.025 . S
C268 O274 1.268 . S
C268 O284 1.268 . S
C269 O275 1.268 . S
C269 O283 1.268 . S
C270 O276 1.268 . S
C270 O285 1.268 . S
C271 O277 1.268 . S
C271 O281 1.268 . S
C272 O278 1.268 . S
C272 O280 1.268 . S
C273 O279 1.268 . S
C273 O282 1.268 . S
O274 Sc264 2.105 . S
O274 C268 1.268 . S
O275 Sc265 2.105 . S
O275 C269 1.268 . S
O276 Sc266 2.105 . S
O276 C270 1.268 . S
O277 Sc264 2.105 . S
O277 C271 1.268 . S
O278 Sc266 2.105 . S
O278 C272 1.268 . S
O279 Sc265 2.105 . S
O279 C273 1.268 . S
O280 Sc264 2.105 . S
O280 C272 1.268 . S
O281 Sc265 2.105 . S
O281 C271 1.268 . S
O282 Sc266 2.105 . S
O282 C273 1.268 . S
O283 Sc264 2.105 . S
O283 C269 1.268 . S
O284 Sc266 2.105 . S
O284 C268 1.268 . S
O285 Sc265 2.105 . S
O285 C270 1.268 . S
Sc286 O289 2.025 . S
Sc286 O296 2.105 . S
Sc286 O299 2.105 . S
Sc286 O302 2.105 . S
Sc286 O305 2.105 . S
Sc287 O289 2.025 . S
Sc287 O297 2.105 . S
Sc287 O301 2.105 1_655 S
Sc287 O303 2.105 . S
Sc287 O307 2.105 . S
Sc288 O289 2.025 1_455 S
Sc288 O298 2.105 . S
Sc288 O300 2.105 . S
Sc288 O304 2.105 . S
Sc288 O306 2.105 1_455 S
O289 Sc286 2.025 . S
O289 Sc287 2.025 . S
O289 Sc288 2.025 1_655 S
C290 O296 1.268 . S
C290 O306 1.268 . S
C291 O297 1.268 . S
C291 O305 1.268 . S
C292 O298 1.268 1_655 S
C292 O307 1.268 . S
C293 O299 1.268 . S
C293 O303 1.268 . S
C294 O300 1.268 1_655 S
C294 O302 1.268 . S
C295 O301 1.268 . S
C295 O304 1.268 . S
O296 Sc286 2.105 . S
O296 C290 1.268 . S
O297 Sc287 2.105 . S
O297 C291 1.268 . S
O298 Sc288 2.105 . S
O298 C292 1.268 1_455 S
O299 Sc286 2.105 . S
O299 C293 1.268 . S
O300 Sc288 2.105 . S
O300 C294 1.268 1_455 S
O301 Sc287 2.105 1_455 S
O301 C295 1.268 . S
O302 Sc286 2.105 . S
O302 C294 1.268 . S
O303 Sc287 2.105 . S
O303 C293 1.268 . S
O304 Sc288 2.105 . S
O304 C295 1.268 . S
O305 Sc286 2.105 . S
O305 C291 1.268 . S
O306 Sc288 2.105 1_655 S
O306 C290 1.268 . S
O307 Sc287 2.105 . S
O307 C292 1.268 . S
Sc308 O311 2.025 . S
Sc308 O318 2.105 . S
Sc308 O321 2.105 . S
Sc308 O324 2.105 . S
Sc308 O327 2.105 . S
Sc309 O311 2.025 . S
Sc309 O319 2.105 . S
Sc309 O323 2.105 1_565 S
Sc309 O325 2.105 . S
Sc309 O329 2.105 . S
Sc310 O311 2.025 1_545 S
Sc310 O320 2.105 . S
Sc310 O322 2.105 . S
Sc310 O326 2.105 . S
Sc310 O328 2.105 1_545 S
O311 Sc308 2.025 . S
O311 Sc309 2.025 . S
O311 Sc310 2.025 1_565 S
C312 O318 1.268 . S
C312 O328 1.268 . S
C313 O319 1.268 . S
C313 O327 1.268 . S
C314 O320 1.268 1_565 S
C314 O329 1.268 . S
C315 O321 1.268 . S
C315 O325 1.268 . S
C316 O322 1.268 1_565 S
C316 O324 1.268 . S
C317 O323 1.268 . S
C317 O326 1.268 . S
O318 Sc308 2.105 . S
O318 C312 1.268 . S
O319 Sc309 2.105 . S
O319 C313 1.268 . S
O320 Sc310 2.105 . S
O320 C314 1.268 1_545 S
O321 Sc308 2.105 . S
O321 C315 1.268 . S
O322 Sc310 2.105 . S
O322 C316 1.268 1_545 S
O323 Sc309 2.105 1_545 S
O323 C317 1.268 . S
O324 Sc308 2.105 . S
O324 C316 1.268 . S
O325 Sc309 2.105 . S
O325 C315 1.268 . S
O326 Sc310 2.105 . S
O326 C317 1.268 . S
O327 Sc308 2.105 . S
O327 C313 1.268 . S
O328 Sc310 2.105 1_565 S
O328 C312 1.268 . S
O329 Sc309 2.105 . S
O329 C314 1.268 . S
Sc330 O333 2.025 . S
Sc330 O340 2.105 . S
Sc330 O343 2.105 . S
Sc330 O346 2.105 . S
Sc330 O349 2.105 . S
Sc331 O333 2.025 . S
Sc331 O341 2.105 . S
Sc331 O345 2.105 . S
Sc331 O347 2.105 . S
Sc331 O351 2.105 . S
Sc332 O333 2.025 . S
Sc332 O342 2.105 . S
Sc332 O344 2.105 . S
Sc332 O348 2.105 . S
Sc332 O350 2.105 . S
O333 Sc330 2.025 . S
O333 Sc331 2.025 . S
O333 Sc332 2.025 . S
C334 O340 1.268 . S
C334 O350 1.268 . S
C335 O341 1.268 . S
C335 O349 1.268 . S
C336 O342 1.268 . S
C336 O351 1.268 . S
C337 O343 1.268 . S
C337 O347 1.268 . S
C338 O344 1.268 . S
C338 O346 1.268 . S
C339 O345 1.268 . S
C339 O348 1.268 . S
O340 Sc330 2.105 . S
O340 C334 1.268 . S
O341 Sc331 2.105 . S
O341 C335 1.268 . S
O342 Sc332 2.105 . S
O342 C336 1.268 . S
O343 Sc330 2.105 . S
O343 C337 1.268 . S
O344 Sc332 2.105 . S
O344 C338 1.268 . S
O345 Sc331 2.105 . S
O345 C339 1.268 . S
O346 Sc330 2.105 . S
O346 C338 1.268 . S
O347 Sc331 2.105 . S
O347 C337 1.268 . S
O348 Sc332 2.105 . S
O348 C339 1.268 . S
O349 Sc330 2.105 . S
O349 C335 1.268 . S
O350 Sc332 2.105 . S
O350 C334 1.268 . S
O351 Sc331 2.105 . S
O351 C336 1.268 . S
C352 C353 1.387 . S
C352 H356 0.950 . S
C352 C361 1.390 . S
C353 C352 1.387 . S
C353 C355 1.387 . S
H354 C361 0.950 . S
C355 C353 1.387 . S
C355 C357 1.390 . S
C355 H359 0.950 . S
H356 C352 0.950 . S
C357 C355 1.390 . S
C357 C358 1.387 . S
C357 H360 0.950 . S
C358 C357 1.387 . S
C358 C361 1.387 . S
H359 C355 0.950 . S
H360 C357 0.950 . S
C361 C352 1.390 . S
C361 H354 0.950 . S
C361 C358 1.387 . S
C362 C363 1.387 . S
C362 H366 0.950 . S
C362 C371 1.390 1_554 S
C363 C362 1.387 . S
C363 C365 1.387 . S
H364 C371 0.950 . S
C365 C363 1.387 . S
C365 C367 1.390 1_554 S
C365 H369 0.950 . S
H366 C362 0.950 . S
C367 C365 1.390 1_556 S
C367 C368 1.387 . S
C367 H370 0.950 . S
C368 C367 1.387 . S
C368 C371 1.387 . S
H369 C365 0.950 . S
H370 C367 0.950 . S
C371 C362 1.390 1_556 S
C371 H364 0.950 . S
C371 C368 1.387 . S
C372 C373 1.387 . S
C372 H376 0.950 . S
C372 C381 1.390 . S
C373 C372 1.387 . S
C373 C375 1.387 . S
H374 C381 0.950 . S
C375 C373 1.387 . S
C375 C377 1.390 . S
C375 H379 0.950 . S
H376 C372 0.950 . S
C377 C375 1.390 . S
C377 C378 1.387 . S
C377 H380 0.950 . S
C378 C377 1.387 . S
C378 C381 1.387 . S
H379 C375 0.950 . S
H380 C377 0.950 . S
C381 C372 1.390 . S
C381 H374 0.950 . S
C381 C378 1.387 . S
C382 C383 1.387 . S
C382 H386 0.950 . S
C382 C391 1.390 1_556 S
C383 C382 1.387 . S
C383 C385 1.387 . S
H384 C391 0.950 . S
C385 C383 1.387 . S
C385 C387 1.390 1_556 S
C385 H389 0.950 . S
H386 C382 0.950 . S
C387 C385 1.390 1_554 S
C387 C388 1.387 . S
C387 H390 0.950 . S
C388 C387 1.387 . S
C388 C391 1.387 . S
H389 C385 0.950 . S
H390 C387 0.950 . S
C391 C382 1.390 1_554 S
C391 H384 0.950 . S
C391 C388 1.387 . S
C392 C393 1.387 . S
C392 H396 0.950 . S
C392 C401 1.390 . S
C393 C392 1.387 . S
C393 C395 1.387 . S
H394 C401 0.950 . S
C395 C393 1.387 . S
C395 C397 1.390 . S
C395 H399 0.950 . S
H396 C392 0.950 . S
C397 C395 1.390 . S
C397 C398 1.387 . S
C397 H400 0.950 . S
C398 C397 1.387 . S
C398 C401 1.387 . S
H399 C395 0.950 . S
H400 C397 0.950 . S
C401 C392 1.390 . S
C401 H394 0.950 . S
C401 C398 1.387 . S
C402 C403 1.387 . S
C402 H406 0.950 . S
C402 C411 1.390 1_556 S
C403 C402 1.387 . S
C403 C405 1.387 . S
H404 C411 0.950 . S
C405 C403 1.387 . S
C405 C407 1.390 1_556 S
C405 H409 0.950 . S
H406 C402 0.950 . S
C407 C405 1.390 1_554 S
C407 C408 1.387 . S
C407 H410 0.950 . S
C408 C407 1.387 . S
C408 C411 1.387 . S
H409 C405 0.950 . S
H410 C407 0.950 . S
C411 C402 1.390 1_554 S
C411 H404 0.950 . S
C411 C408 1.387 . S
C412 C413 1.387 . S
C412 H416 0.950 . S
C412 C421 1.390 . S
C413 C412 1.387 . S
C413 C415 1.387 . S
H414 C421 0.950 . S
C415 C413 1.387 . S
C415 C417 1.390 . S
C415 H419 0.950 . S
H416 C412 0.950 . S
C417 C415 1.390 . S
C417 C418 1.387 . S
C417 H420 0.950 . S
C418 C417 1.387 . S
C418 C421 1.387 . S
H419 C415 0.950 . S
H420 C417 0.950 . S
C421 C412 1.390 . S
C421 H414 0.950 . S
C421 C418 1.387 . S
C422 C423 1.387 . S
C422 H426 0.950 . S
C422 C431 1.390 . S
C423 C422 1.387 . S
C423 C425 1.387 1_556 S
H424 C431 0.950 . S
C425 C423 1.387 1_554 S
C425 C427 1.390 . S
C425 H429 0.950 . S
H426 C422 0.950 . S
C427 C425 1.390 . S
C427 C428 1.387 . S
C427 H430 0.950 . S
C428 C427 1.387 . S
C428 C431 1.387 1_554 S
H429 C425 0.950 . S
H430 C427 0.950 . S
C431 C422 1.390 . S
C431 H424 0.950 . S
C431 C428 1.387 1_556 S
C432 C433 1.387 . S
C432 H436 0.950 . S
C432 C441 1.390 . S
C433 C432 1.387 . S
C433 C435 1.387 . S
H434 C441 0.950 . S
C435 C433 1.387 . S
C435 C437 1.390 . S
C435 H439 0.950 . S
H436 C432 0.950 . S
C437 C435 1.390 . S
C437 C438 1.387 . S
C437 H440 0.950 . S
C438 C437 1.387 . S
C438 C441 1.387 . S
H439 C435 0.950 . S
H440 C437 0.950 . S
C441 C432 1.390 . S
C441 H434 0.950 . S
C441 C438 1.387 . S
C442 C443 1.387 . S
C442 H446 0.950 . S
C442 C451 1.390 . S
C443 C442 1.387 . S
C443 C445 1.387 . S
H444 C451 0.950 . S
C445 C443 1.387 . S
C445 C447 1.390 . S
C445 H449 0.950 . S
H446 C442 0.950 . S
C447 C445 1.390 . S
C447 C448 1.387 . S
C447 H450 0.950 . S
C448 C447 1.387 . S
C448 C451 1.387 . S
H449 C445 0.950 . S
H450 C447 0.950 . S
C451 C442 1.390 . S
C451 H444 0.950 . S
C451 C448 1.387 . S
C452 C453 1.387 . S
C452 H456 0.950 . S
C452 C461 1.390 . S
C453 C452 1.387 . S
C453 C455 1.387 . S
H454 C461 0.950 . S
C455 C453 1.387 . S
C455 C457 1.390 . S
C455 H459 0.950 . S
H456 C452 0.950 . S
C457 C455 1.390 . S
C457 C458 1.387 . S
C457 H460 0.950 . S
C458 C457 1.387 . S
C458 C461 1.387 . S
H459 C455 0.950 . S
H460 C457 0.950 . S
C461 C452 1.390 . S
C461 H454 0.950 . S
C461 C458 1.387 . S
C462 C463 1.387 . S
C462 H466 0.950 . S
C462 C471 1.390 . S
C463 C462 1.387 . S
C463 C465 1.387 . S
H464 C471 0.950 . S
C465 C463 1.387 . S
C465 C467 1.390 . S
C465 H469 0.950 . S
H466 C462 0.950 . S
C467 C465 1.390 . S
C467 C468 1.387 . S
C467 H470 0.950 . S
C468 C467 1.387 . S
C468 C471 1.387 . S
H469 C465 0.950 . S
H470 C467 0.950 . S
C471 C462 1.390 . S
C471 H464 0.950 . S
C471 C468 1.387 . S
C472 C473 1.387 . S
C472 H476 0.950 . S
C472 C481 1.390 . S
C473 C472 1.387 . S
C473 C475 1.387 . S
H474 C481 0.950 . S
C475 C473 1.387 . S
C475 C477 1.390 . S
C475 H479 0.950 . S
H476 C472 0.950 . S
C477 C475 1.390 . S
C477 C478 1.387 . S
C477 H480 0.950 . S
C478 C477 1.387 . S
C478 C481 1.387 . S
H479 C475 0.950 . S
H480 C477 0.950 . S
C481 C472 1.390 . S
C481 H474 0.950 . S
C481 C478 1.387 . S
C482 C483 1.387 . S
C482 H486 0.950 . S
C482 C491 1.390 . S
C483 C482 1.387 . S
C483 C485 1.387 . S
H484 C491 0.950 . S
C485 C483 1.387 . S
C485 C487 1.390 . S
C485 H489 0.950 . S
H486 C482 0.950 . S
C487 C485 1.390 . S
C487 C488 1.387 . S
C487 H490 0.950 . S
C488 C487 1.387 . S
C488 C491 1.387 . S
H489 C485 0.950 . S
H490 C487 0.950 . S
C491 C482 1.390 . S
C491 H484 0.950 . S
C491 C488 1.387 . S
C492 C493 1.387 . S
C492 H496 0.950 . S
C492 C501 1.390 . S
C493 C492 1.387 . S
C493 C495 1.387 . S
H494 C501 0.950 . S
C495 C493 1.387 . S
C495 C497 1.390 . S
C495 H499 0.950 . S
H496 C492 0.950 . S
C497 C495 1.390 . S
C497 C498 1.387 . S
C497 H500 0.950 . S
C498 C497 1.387 . S
C498 C501 1.387 . S
H499 C495 0.950 . S
H500 C497 0.950 . S
C501 C492 1.390 . S
C501 H494 0.950 . S
C501 C498 1.387 . S
C502 C503 1.387 . S
C502 H506 0.950 . S
C502 C511 1.390 . S
C503 C502 1.387 . S
C503 C505 1.387 . S
H504 C511 0.950 . S
C505 C503 1.387 . S
C505 C507 1.390 . S
C505 H509 0.950 . S
H506 C502 0.950 . S
C507 C505 1.390 . S
C507 C508 1.387 . S
C507 H510 0.950 . S
C508 C507 1.387 . S
C508 C511 1.387 . S
H509 C505 0.950 . S
H510 C507 0.950 . S
C511 C502 1.390 . S
C511 H504 0.950 . S
C511 C508 1.387 . S
C512 C513 1.387 . S
C512 H516 0.950 . S
C512 C521 1.390 . S
C513 C512 1.387 . S
C513 C515 1.387 . S
H514 C521 0.950 . S
C515 C513 1.387 . S
C515 C517 1.390 . S
C515 H519 0.950 . S
H516 C512 0.950 . S
C517 C515 1.390 . S
C517 C518 1.387 . S
C517 H520 0.950 . S
C518 C517 1.387 . S
C518 C521 1.387 . S
H519 C515 0.950 . S
H520 C517 0.950 . S
C521 C512 1.390 . S
C521 H514 0.950 . S
C521 C518 1.387 . S
C522 C523 1.387 1_455 S
C522 H526 0.950 . S
C522 C531 1.390 . S
C523 C522 1.387 1_655 S
C523 C525 1.387 . S
H524 C531 0.950 . S
C525 C523 1.387 . S
C525 C527 1.390 . S
C525 H529 0.950 . S
H526 C522 0.950 . S
C527 C525 1.390 . S
C527 C528 1.387 . S
C527 H530 0.950 . S
C528 C527 1.387 . S
C528 C531 1.387 1_655 S
H529 C525 0.950 . S
H530 C527 0.950 . S
C531 C522 1.390 . S
C531 H524 0.950 . S
C531 C528 1.387 1_455 S
C532 C533 1.387 1_545 S
C532 H536 0.950 . S
C532 C541 1.390 . S
C533 C532 1.387 1_565 S
C533 C535 1.387 . S
H534 C541 0.950 . S
C535 C533 1.387 . S
C535 C537 1.390 . S
C535 H539 0.950 . S
H536 C532 0.950 . S
C537 C535 1.390 . S
C537 C538 1.387 . S
C537 H540 0.950 . S
C538 C537 1.387 . S
C538 C541 1.387 1_565 S
H539 C535 0.950 . S
H540 C537 0.950 . S
C541 C532 1.390 . S
C541 H534 0.950 . S
C541 C538 1.387 1_545 S
C542 C543 1.387 . S
C542 H546 0.950 . S
C542 C551 1.390 . S
C543 C542 1.387 . S
C543 C545 1.387 . S
H544 C551 0.950 . S
C545 C543 1.387 . S
C545 C547 1.390 . S
C545 H549 0.950 . S
H546 C542 0.950 . S
C547 C545 1.390 . S
C547 C548 1.387 . S
C547 H550 0.950 . S
C548 C547 1.387 . S
C548 C551 1.387 . S
H549 C545 0.950 . S
H550 C547 0.950 . S
C551 C542 1.390 . S
C551 H544 0.950 . S
C551 C548 1.387 . S
C552 C553 1.387 . S
C552 H556 0.950 . S
C552 C561 1.390 . S
C553 C552 1.387 . S
C553 C555 1.387 . S
H554 C561 0.950 . S
C555 C553 1.387 . S
C555 C557 1.390 . S
C555 H559 0.950 . S
H556 C552 0.950 . S
C557 C555 1.390 . S
C557 C558 1.387 . S
C557 H560 0.950 . S
C558 C557 1.387 . S
C558 C561 1.387 . S
H559 C555 0.950 . S
H560 C557 0.950 . S
C561 C552 1.390 . S
C561 H554 0.950 . S
C561 C558 1.387 . S
C562 C563 1.387 1_655 S
C562 H566 0.950 . S
C562 C571 1.390 . S
C563 C562 1.387 1_455 S
C563 C565 1.387 . S
H564 C571 0.950 . S
C565 C563 1.387 . S
C565 C567 1.390 . S
C565 H569 0.950 . S
H566 C562 0.950 . S
C567 C565 1.390 . S
C567 C568 1.387 . S
C567 H570 0.950 . S
C568 C567 1.387 . S
C568 C571 1.387 1_455 S
H569 C565 0.950 . S
H570 C567 0.950 . S
C571 C562 1.390 . S
C571 H564 0.950 . S
C571 C568 1.387 1_655 S
C572 C573 1.387 . S
C572 H576 0.950 . S
C572 C581 1.390 . S
C573 C572 1.387 . S
C573 C575 1.387 1_545 S
H574 C581 0.950 . S
C575 C573 1.387 1_565 S
C575 C577 1.390 . S
C575 H579 0.950 . S
H576 C572 0.950 . S
C577 C575 1.390 . S
C577 C578 1.387 1_565 S
C577 H580 0.950 . S
C578 C577 1.387 1_545 S
C578 C581 1.387 . S
H579 C575 0.950 . S
H580 C577 0.950 . S
C581 C572 1.390 . S
C581 H574 0.950 . S
C581 C578 1.387 . S
C582 C583 1.387 . S
C582 H586 0.950 . S
C582 C591 1.390 . S
C583 C582 1.387 . S
C583 C585 1.387 . S
H584 C591 0.950 . S
C585 C583 1.387 . S
C585 C587 1.390 . S
C585 H589 0.950 . S
H586 C582 0.950 . S
C587 C585 1.390 . S
C587 C588 1.387 . S
C587 H590 0.950 . S
C588 C587 1.387 . S
C588 C591 1.387 . S
H589 C585 0.950 . S
H590 C587 0.950 . S
C591 C582 1.390 . S
C591 H584 0.950 . S
C591 C588 1.387 . S
C592 C593 1.387 . S
C592 H596 0.950 . S
C592 C601 1.390 . S
C593 C592 1.387 . S
C593 C595 1.387 . S
H594 C601 0.950 . S
C595 C593 1.387 . S
C595 C597 1.390 . S
C595 H599 0.950 . S
H596 C592 0.950 . S
C597 C595 1.390 . S
C597 C598 1.387 . S
C597 H600 0.950 . S
C598 C597 1.387 . S
C598 C601 1.387 . S
H599 C595 0.950 . S
H600 C597 0.950 . S
C601 C592 1.390 . S
C601 H594 0.950 . S
C601 C598 1.387 . S
C602 C603 1.387 1_655 S
C602 H606 0.950 . S
C602 C611 1.390 . S
C603 C602 1.387 1_455 S
C603 C605 1.387 . S
H604 C611 0.950 . S
C605 C603 1.387 . S
C605 C607 1.390 . S
C605 H609 0.950 . S
H606 C602 0.950 . S
C607 C605 1.390 . S
C607 C608 1.387 . S
C607 H610 0.950 . S
C608 C607 1.387 . S
C608 C611 1.387 1_455 S
H609 C605 0.950 . S
H610 C607 0.950 . S
C611 C602 1.390 . S
C611 H604 0.950 . S
C611 C608 1.387 1_655 S
C612 C613 1.387 . S
C612 H616 0.950 . S
C612 C621 1.390 . S
C613 C612 1.387 . S
C613 C615 1.387 1_545 S
H614 C621 0.950 . S
C615 C613 1.387 1_565 S
C615 C617 1.390 . S
C615 H619 0.950 . S
H616 C612 0.950 . S
C617 C615 1.390 . S
C617 C618 1.387 1_565 S
C617 H620 0.950 . S
C618 C617 1.387 1_545 S
C618 C621 1.387 . S
H619 C615 0.950 . S
H620 C617 0.950 . S
C621 C612 1.390 . S
C621 H614 0.950 . S
C621 C618 1.387 . S
C622 C623 1.387 . S
C622 H626 0.950 . S
C622 C631 1.390 . S
C623 C622 1.387 . S
C623 C625 1.387 . S
H624 C631 0.950 . S
C625 C623 1.387 . S
C625 C627 1.390 . S
C625 H629 0.950 . S
H626 C622 0.950 . S
C627 C625 1.390 . S
C627 C628 1.387 . S
C627 H630 0.950 . S
C628 C627 1.387 . S
C628 C631 1.387 . S
H629 C625 0.950 . S
H630 C627 0.950 . S
C631 C622 1.390 . S
C631 H624 0.950 . S
C631 C628 1.387 . S
C632 C633 1.387 . S
C632 H636 0.950 . S
C632 C641 1.390 . S
C633 C632 1.387 . S
C633 C635 1.387 . S
H634 C641 0.950 . S
C635 C633 1.387 . S
C635 C637 1.390 . S
C635 H639 0.950 . S
H636 C632 0.950 . S
C637 C635 1.390 . S
C637 C638 1.387 . S
C637 H640 0.950 . S
C638 C637 1.387 . S
C638 C641 1.387 . S
H639 C635 0.950 . S
H640 C637 0.950 . S
C641 C632 1.390 . S
C641 H634 0.950 . S
C641 C638 1.387 . S
C642 C643 1.387 . S
C642 H646 0.950 . S
C642 C651 1.390 . S
C643 C642 1.387 . S
C643 C645 1.387 1_655 S
H644 C651 0.950 . S
C645 C643 1.387 1_455 S
C645 C647 1.390 . S
C645 H649 0.950 . S
H646 C642 0.950 . S
C647 C645 1.390 . S
C647 C648 1.387 1_455 S
C647 H650 0.950 . S
C648 C647 1.387 1_655 S
C648 C651 1.387 . S
H649 C645 0.950 . S
H650 C647 0.950 . S
C651 C642 1.390 . S
C651 H644 0.950 . S
C651 C648 1.387 . S
C652 C653 1.387 . S
C652 H656 0.950 . S
C652 C661 1.390 . S
C653 C652 1.387 . S
C653 C655 1.387 1_565 S
H654 C661 0.950 . S
C655 C653 1.387 1_545 S
C655 C657 1.390 . S
C655 H659 0.950 . S
H656 C652 0.950 . S
C657 C655 1.390 . S
C657 C658 1.387 1_545 S
C657 H660 0.950 . S
C658 C657 1.387 1_565 S
C658 C661 1.387 . S
H659 C655 0.950 . S
H660 C657 0.950 . S
C661 C652 1.390 . S
C661 H654 0.950 . S
C661 C658 1.387 . S
C662 C663 1.387 . S
C662 H666 0.950 . S
C662 C671 1.390 . S
C663 C662 1.387 . S
C663 C665 1.387 . S
H664 C671 0.950 . S
C665 C663 1.387 . S
C665 C667 1.390 . S
C665 H669 0.950 . S
H666 C662 0.950 . S
C667 C665 1.390 . S
C667 C668 1.387 . S
C667 H670 0.950 . S
C668 C667 1.387 . S
C668 C671 1.387 . S
H669 C665 0.950 . S
H670 C667 0.950 . S
C671 C662 1.390 . S
C671 H664 0.950 . S
C671 C668 1.387 . S
C672 C673 1.387 . S
C672 H676 0.950 . S
C672 C681 1.390 . S
C673 C672 1.387 . S
C673 C675 1.387 . S
H674 C681 0.950 . S
C675 C673 1.387 . S
C675 C677 1.390 . S
C675 H679 0.950 . S
H676 C672 0.950 . S
C677 C675 1.390 . S
C677 C678 1.387 . S
C677 H680 0.950 . S
C678 C677 1.387 . S
C678 C681 1.387 . S
H679 C675 0.950 . S
H680 C677 0.950 . S
C681 C672 1.390 . S
C681 H674 0.950 . S
C681 C678 1.387 . S
C682 C683 1.387 . S
C682 H686 0.950 . S
C682 C691 1.390 . S
C683 C682 1.387 . S
C683 C685 1.387 . S
H684 C691 0.950 . S
C685 C683 1.387 . S
C685 C687 1.390 . S
C685 H689 0.950 . S
H686 C682 0.950 . S
C687 C685 1.390 . S
C687 C688 1.387 . S
C687 H690 0.950 . S
C688 C687 1.387 . S
C688 C691 1.387 . S
H689 C685 0.950 . S
H690 C687 0.950 . S
C691 C682 1.390 . S
C691 H684 0.950 . S
C691 C688 1.387 . S
C692 C693 1.387 . S
C692 H696 0.950 . S
C692 C701 1.390 . S
C693 C692 1.387 . S
C693 C695 1.387 . S
H694 C701 0.950 . S
C695 C693 1.387 . S
C695 C697 1.390 . S
C695 H699 0.950 . S
H696 C692 0.950 . S
C697 C695 1.390 . S
C697 C698 1.387 . S
C697 H700 0.950 . S
C698 C697 1.387 . S
C698 C701 1.387 . S
H699 C695 0.950 . S
H700 C697 0.950 . S
C701 C692 1.390 . S
C701 H694 0.950 . S
C701 C698 1.387 . S
C702 C703 1.387 . S
C702 H706 0.950 . S
C702 C711 1.390 . S
C703 C702 1.387 . S
C703 C705 1.387 . S
H704 C711 0.950 . S
C705 C703 1.387 . S
C705 C707 1.390 . S
C705 H709 0.950 . S
H706 C702 0.950 . S
C707 C705 1.390 . S
C707 C708 1.387 . S
C707 H710 0.950 . S
C708 C707 1.387 . S
C708 C711 1.387 . S
H709 C705 0.950 . S
H710 C707 0.950 . S
C711 C702 1.390 . S
C711 H704 0.950 . S
C711 C708 1.387 . S
C712 C713 1.387 . S
C712 H716 0.950 . S
C712 C721 1.390 . S
C713 C712 1.387 . S
C713 C715 1.387 . S
H714 C721 0.950 . S
C715 C713 1.387 . S
C715 C717 1.390 . S
C715 H719 0.950 . S
H716 C712 0.950 . S
C717 C715 1.390 . S
C717 C718 1.387 . S
C717 H720 0.950 . S
C718 C717 1.387 . S
C718 C721 1.387 . S
H719 C715 0.950 . S
H720 C717 0.950 . S
C721 C712 1.390 . S
C721 H714 0.950 . S
C721 C718 1.387 . S
C722 C723 1.387 . S
C722 H726 0.950 . S
C722 C731 1.390 . S
C723 C722 1.387 . S
C723 C725 1.387 . S
H724 C731 0.950 . S
C725 C723 1.387 . S
C725 C727 1.390 . S
C725 H729 0.950 . S
H726 C722 0.950 . S
C727 C725 1.390 . S
C727 C728 1.387 . S
C727 H730 0.950 . S
C728 C727 1.387 . S
C728 C731 1.387 . S
H729 C725 0.950 . S
H730 C727 0.950 . S
C731 C722 1.390 . S
C731 H724 0.950 . S
C731 C728 1.387 . S
C732 C733 1.387 . S
C732 H736 0.950 . S
C732 C741 1.390 . S
C733 C732 1.387 . S
C733 C735 1.387 . S
H734 C741 0.950 . S
C735 C733 1.387 . S
C735 C737 1.390 . S
C735 H739 0.950 . S
H736 C732 0.950 . S
C737 C735 1.390 . S
C737 C738 1.387 . S
C737 H740 0.950 . S
C738 C737 1.387 . S
C738 C741 1.387 . S
H739 C735 0.950 . S
H740 C737 0.950 . S
C741 C732 1.390 . S
C741 H734 0.950 . S
C741 C738 1.387 . S
C742 C743 1.387 . S
C742 H746 0.950 . S
C742 C751 1.390 . S
C743 C742 1.387 . S
C743 C745 1.387 . S
H744 C751 0.950 . S
C745 C743 1.387 . S
C745 C747 1.390 . S
C745 H749 0.950 . S
H746 C742 0.950 . S
C747 C745 1.390 . S
C747 C748 1.387 . S
C747 H750 0.950 . S
C748 C747 1.387 . S
C748 C751 1.387 . S
H749 C745 0.950 . S
H750 C747 0.950 . S
C751 C742 1.390 . S
C751 H744 0.950 . S
C751 C748 1.387 . S
C752 C753 1.387 . S
C752 H756 0.950 . S
C752 C761 1.390 . S
C753 C752 1.387 . S
C753 C755 1.387 . S
H754 C761 0.950 . S
C755 C753 1.387 . S
C755 C757 1.390 . S
C755 H759 0.950 . S
H756 C752 0.950 . S
C757 C755 1.390 . S
C757 C758 1.387 . S
C757 H760 0.950 . S
C758 C757 1.387 . S
C758 C761 1.387 . S
H759 C755 0.950 . S
H760 C757 0.950 . S
C761 C752 1.390 . S
C761 H754 0.950 . S
C761 C758 1.387 . S
C762 C763 1.387 . S
C762 H766 0.950 . S
C762 C771 1.390 . S
C763 C762 1.387 . S
C763 C765 1.387 . S
H764 C771 0.950 . S
C765 C763 1.387 . S
C765 C767 1.390 . S
C765 H769 0.950 . S
H766 C762 0.950 . S
C767 C765 1.390 . S
C767 C768 1.387 . S
C767 H770 0.950 . S
C768 C767 1.387 . S
C768 C771 1.387 . S
H769 C765 0.950 . S
H770 C767 0.950 . S
C771 C762 1.390 . S
C771 H764 0.950 . S
C771 C768 1.387 . S
C772 C773 1.387 . S
C772 H776 0.950 . S
C772 C781 1.390 . S
C773 C772 1.387 . S
C773 C775 1.387 . S
H774 C781 0.950 . S
C775 C773 1.387 . S
C775 C777 1.390 . S
C775 H779 0.950 . S
H776 C772 0.950 . S
C777 C775 1.390 . S
C777 C778 1.387 . S
C777 H780 0.950 . S
C778 C777 1.387 . S
C778 C781 1.387 . S
H779 C775 0.950 . S
H780 C777 0.950 . S
C781 C772 1.390 . S
C781 H774 0.950 . S
C781 C778 1.387 . S
C782 C783 1.387 . S
C782 H786 0.950 . S
C782 C791 1.390 . S
C783 C782 1.387 . S
C783 C785 1.387 . S
H784 C791 0.950 . S
C785 C783 1.387 . S
C785 C787 1.390 . S
C785 H789 0.950 . S
H786 C782 0.950 . S
C787 C785 1.390 . S
C787 C788 1.387 . S
C787 H790 0.950 . S
C788 C787 1.387 . S
C788 C791 1.387 . S
H789 C785 0.950 . S
H790 C787 0.950 . S
C791 C782 1.390 . S
C791 H784 0.950 . S
C791 C788 1.387 . S
C792 C793 1.387 . S
C792 H796 0.950 . S
C792 C801 1.390 . S
C793 C792 1.387 . S
C793 C795 1.387 . S
H794 C801 0.950 . S
C795 C793 1.387 . S
C795 C797 1.390 . S
C795 H799 0.950 . S
H796 C792 0.950 . S
C797 C795 1.390 . S
C797 C798 1.387 . S
C797 H800 0.950 . S
C798 C797 1.387 . S
C798 C801 1.387 . S
H799 C795 0.950 . S
H800 C797 0.950 . S
C801 C792 1.390 . S
C801 H794 0.950 . S
C801 C798 1.387 . S
C802 C803 1.387 . S
C802 H806 0.950 . S
C802 C811 1.390 . S
C803 C802 1.387 . S
C803 C805 1.387 . S
H804 C811 0.950 . S
C805 C803 1.387 . S
C805 C807 1.390 . S
C805 H809 0.950 . S
H806 C802 0.950 . S
C807 C805 1.390 . S
C807 C808 1.387 . S
C807 H810 0.950 . S
C808 C807 1.387 . S
C808 C811 1.387 . S
H809 C805 0.950 . S
H810 C807 0.950 . S
C811 C802 1.390 . S
C811 H804 0.950 . S
C811 C808 1.387 . S
C812 C813 1.387 . S
C812 H816 0.950 . S
C812 C821 1.390 . S
C813 C812 1.387 . S
C813 C815 1.387 . S
H814 C821 0.950 . S
C815 C813 1.387 . S
C815 C817 1.390 . S
C815 H819 0.950 . S
H816 C812 0.950 . S
C817 C815 1.390 . S
C817 C818 1.387 . S
C817 H820 0.950 . S
C818 C817 1.387 . S
C818 C821 1.387 . S
H819 C815 0.950 . S
H820 C817 0.950 . S
C821 C812 1.390 . S
C821 H814 0.950 . S
C821 C818 1.387 . S
C822 C823 1.387 . S
C822 H826 0.950 . S
C822 C831 1.390 . S
C823 C822 1.387 . S
C823 C825 1.387 . S
H824 C831 0.950 . S
C825 C823 1.387 . S
C825 C827 1.390 . S
C825 H829 0.950 . S
H826 C822 0.950 . S
C827 C825 1.390 . S
C827 C828 1.387 . S
C827 H830 0.950 . S
C828 C827 1.387 . S
C828 C831 1.387 . S
H829 C825 0.950 . S
H830 C827 0.950 . S
C831 C822 1.390 . S
C831 H824 0.950 . S
C831 C828 1.387 . S
C353 C5 1.086 . S
C358 C159 1.084 . S
C363 C93 1.085 . S
C368 C27 1.086 . S
C373 C119 1.089 . S
C378 C53 1.085 . S
C383 C75 1.085 . S
C388 C141 1.085 . S
C393 C336 1.084 . S
C398 C182 1.087 . S
C403 C270 1.088 . S
C408 C204 1.087 . S
C413 C293 1.087 . S
C418 C227 1.087 . S
C423 C315 1.084 . S
C428 C249 1.088 . S
C433 C6 1.449 . S
C438 C335 1.450 . S
C443 C28 1.450 . S
C448 C269 1.449 . S
C453 C51 1.450 . S
C458 C295 1.449 . S
C463 C317 1.450 . S
C468 C73 1.449 . S
C473 C203 1.450 . S
C478 C94 1.449 . S
C483 C117 1.450 . S
C488 C229 1.449 . S
C493 C251 1.450 . S
C498 C139 1.448 . S
C503 C160 1.449 . S
C508 C181 1.450 . S
C513 C268 1.624 1_554 S
C518 C9 1.653 . S
C523 C31 1.653 . S
C528 C294 1.623 . S
C533 C316 1.623 1_554 S
C538 C49 1.653 . S
C543 C334 1.622 . S
C548 C71 1.652 . S
C553 C97 1.652 . S
C558 C180 1.622 . S
C563 C115 1.653 . S
C568 C202 1.624 1_556 S
C573 C137 1.652 . S
C578 C228 1.622 . S
C583 C250 1.622 1_556 S
C588 C163 1.652 . S
C593 C183 1.653 . S
C598 C92 1.624 1_556 S
C603 C205 1.652 . S
C608 C118 1.622 . S
C613 C140 1.623 1_556 S
C618 C226 1.653 . S
C623 C248 1.653 . S
C628 C158 1.623 . S
C633 C271 1.652 . S
C638 C4 1.622 . S
C643 C292 1.653 . S
C648 C26 1.624 1_554 S
C653 C52 1.624 . S
C658 C314 1.653 . S
C663 C74 1.622 1_554 S
C668 C337 1.652 . S
C673 C8 1.565 . S
C678 C207 1.458 . S
C683 C225 1.457 . S
C688 C30 1.565 . S
C693 C48 1.567 . S
C698 C247 1.461 . S
C703 C70 1.565 . S
C708 C185 1.457 . S
C713 C96 1.567 . S
C718 C339 1.460 . S
C723 C114 1.565 . S
C728 C273 1.457 . S
C733 C136 1.565 . S
C738 C291 1.457 . S
C743 C313 1.461 . S
C748 C162 1.567 . S
C753 C29 1.457 . S
C758 C184 1.565 . S
C763 C50 1.457 . S
C768 C206 1.565 . S
C773 C224 1.565 . S
C778 C72 1.458 . S
C783 C246 1.567 . S
C788 C7 1.461 . S
C793 C161 1.458 . S
C798 C272 1.566 . S
C803 C95 1.462 . S
C808 C290 1.567 . S
C813 C116 1.459 . S
C818 C312 1.566 . S
C823 C138 1.460 . S
C828 C338 1.567 . S
