# Generated by pormake.
# Topology rob, (6)-cn, num edge types: 1
# Building blocks:
#     Node 0, Type 0, BuildingBlock: VOLQOD_clean_sbu_1, # of connection points: 6
#     Node 1, Type 0, BuildingBlock: VOLQOD_clean_sbu_1, # of connection points: 6
#     Node 2, Type 0, BuildingBlock: VOLQOD_clean_sbu_1, # of connection points: 6
#     Node 3, Type 0, BuildingBlock: VOLQOD_clean_sbu_1, # of connection points: 6
#     Edge 4, Type (0, 0), BuildingBlock: UVAHIK_clean_linker_0, # of connection points: 2
#     Edge 5, Type (0, 0), BuildingBlock: UVAHIK_clean_linker_0, # of connection points: 2
#     Edge 6, Type (0, 0), BuildingBlock: UVAHIK_clean_linker_0, # of connection points: 2
#     Edge 7, Type (0, 0), BuildingBlock: UVAHIK_clean_linker_0, # of connection points: 2
#     Edge 8, Type (0, 0), BuildingBlock: UVAHIK_clean_linker_0, # of connection points: 2
#     Edge 9, Type (0, 0), BuildingBlock: UVAHIK_clean_linker_0, # of connection points: 2
#     Edge 10, Type (0, 0), BuildingBlock: UVAHIK_clean_linker_0, # of connection points: 2
#     Edge 11, Type (0, 0), BuildingBlock: UVAHIK_clean_linker_0, # of connection points: 2
#     Edge 12, Type (0, 0), BuildingBlock: UVAHIK_clean_linker_0, # of connection points: 2
#     Edge 13, Type (0, 0), BuildingBlock: UVAHIK_clean_linker_0, # of connection points: 2
#     Edge 14, Type (0, 0), BuildingBlock: UVAHIK_clean_linker_0, # of connection points: 2
#     Edge 15, Type (0, 0), BuildingBlock: UVAHIK_clean_linker_0, # of connection points: 2
# Relax obj value: 0.389
# Max RMSD: 0.278
# Mean RMSD: 0.278
data_MOF--net-rob--node1-VOLQOD_clean_sbu_1--edge1-UVAHIK_clean_linker_0
_symmetry_space_group_name_H-M    P1
_symmetry_Int_Tables_number       1
_symmetry_cell_setting            triclinic
loop_
_symmetry_equiv_pos_as_xyz
'x, y, z'
_cell_length_a     22.333736
_cell_length_b     36.712938
_cell_length_c     31.867234
_cell_angle_alpha  90.134986
_cell_angle_beta   89.834559
_cell_angle_gamma 90.054657
loop_
_atom_site_label
_atom_site_type_symbol
_atom_site_fract_x
_atom_site_fract_y
_atom_site_fract_z
_atom_type_partial_charge
O0 O 0.29459 0.32899 0.03974 0.0
Zn1 Zn 0.22598 0.2957 0.02841 0.0
O2 O 0.25076 0.2455 0.03878 0.0
Zn3 Zn 0.24494 0.21738 0.98722 0.0
Zn4 Zn 0.33314 0.24423 0.05971 0.0
Zn5 Zn 0.19744 0.22434 0.08003 0.0
O6 O 0.18013 0.17936 0.99041 0.0
O7 O 0.14427 0.18611 0.05495 0.0
O8 O 0.20381 0.30363 0.96818 0.0
O9 O 0.22524 0.25027 0.93889 0.0
O10 O 0.32301 0.1929 0.97372 0.0
O11 O 0.38678 0.2176 0.01908 0.0
O12 O 0.33718 0.21705 0.11453 0.0
O13 O 0.1589 0.31212 0.06684 0.0
O14 O 0.24272 0.20124 0.12669 0.0
O15 O 0.14721 0.26287 0.10639 0.0
C16 C 0.34648 0.32592 0.05569 0.0
C17 C 0.14334 0.17053 0.01924 0.0
C18 C 0.37587 0.19699 0.98783 0.0
C19 C 0.20854 0.28333 0.93592 0.0
C20 C 0.29771 0.20098 0.13676 0.0
C21 C 0.13491 0.29583 0.09784 0.0
O22 O 0.36706 0.29509 0.06695 0.0
O23 O 0.73555 0.84761 0.01597 0.0
Zn24 Zn 0.678 0.80874 0.03454 0.0
O25 O 0.71226 0.76011 0.02556 0.0
Zn26 Zn 0.663 0.73315 0.986 0.0
Zn27 Zn 0.79376 0.76458 0.00357 0.0
Zn28 Zn 0.71405 0.7333 0.07818 0.0
O29 O 0.63441 0.6861 0.01035 0.0
O30 O 0.66496 0.68723 0.07645 0.0
O31 O 0.60085 0.81551 0.00247 0.0
O32 O 0.59035 0.76179 0.97106 0.0
O33 O 0.70802 0.72127 0.93283 0.0
O34 O 0.79922 0.74221 0.94632 0.0
O35 O 0.85441 0.73927 0.04018 0.0
O36 O 0.66162 0.8175 0.09605 0.0
O37 O 0.7972 0.71747 0.09126 0.0
O38 O 0.68658 0.76498 0.12571 0.0
C39 C 0.7897 0.84704 0.00339 0.0
C40 C 0.63734 0.67164 0.04651 0.0
C41 C 0.76232 0.72628 0.92203 0.0
C42 C 0.57142 0.79371 0.97921 0.0
C43 C 0.84823 0.72133 0.07404 0.0
C44 C 0.66771 0.79763 0.12848 0.0
O45 O 0.81781 0.81717 -0.00159 0.0
O46 O 0.18442 0.82966 0.51882 0.0
Zn47 Zn 0.24701 0.79389 0.53476 0.0
O48 O 0.22099 0.74451 0.52094 0.0
Zn49 Zn 0.21811 0.71499 0.57168 0.0
Zn50 Zn 0.14137 0.74606 0.49512 0.0
Zn51 Zn 0.2785 0.72297 0.48231 0.0
O52 O 0.27542 0.67278 0.56951 0.0
O53 O 0.31518 0.67782 0.50596 0.0
O54 O 0.25972 0.7999 0.59665 0.0
O55 O 0.23761 0.7454 0.62246 0.0
O56 O 0.13586 0.69474 0.58058 0.0
O57 O 0.08009 0.72012 0.53096 0.0
O58 O 0.1435 0.72198 0.43839 0.0
O59 O 0.32242 0.80839 0.50407 0.0
O60 O 0.23978 0.7095 0.4277 0.0
O61 O 0.34521 0.75757 0.4697 0.0
C62 C 0.13426 0.82815 0.50015 0.0
C63 C 0.31048 0.6613 0.54086 0.0
C64 C 0.08544 0.69981 0.56307 0.0
C65 C 0.25327 0.77847 0.62767 0.0
C66 C 0.18566 0.70968 0.41537 0.0
C67 C 0.35671 0.79037 0.47979 0.0
O68 O 0.11224 0.79793 0.48791 0.0
O69 O 0.71633 0.34039 0.5485 0.0
Zn70 Zn 0.78033 0.30632 0.52866 0.0
O71 O 0.75309 0.25578 0.53228 0.0
Zn72 Zn 0.803 0.22945 0.57185 0.0
Zn73 Zn 0.66965 0.2546 0.55092 0.0
Zn74 Zn 0.75961 0.23247 0.47754 0.0
O75 O 0.83985 0.18562 0.54506 0.0
O76 O 0.81579 0.18959 0.47774 0.0
O77 O 0.85403 0.31531 0.56355 0.0
O78 O 0.87035 0.26088 0.59158 0.0
O79 O 0.75589 0.21242 0.62227 0.0
O80 O 0.66353 0.22979 0.60648 0.0
O81 O 0.61693 0.22664 0.51094 0.0
O82 O 0.79905 0.31996 0.46886 0.0
O83 O 0.68094 0.21188 0.46041 0.0
O84 O 0.78464 0.26848 0.43356 0.0
C85 C 0.66122 0.33653 0.55773 0.0
C86 C 0.84255 0.17356 0.50766 0.0
C87 C 0.70036 0.21442 0.63114 0.0
C88 C 0.88503 0.29405 0.58627 0.0
C89 C 0.62864 0.21097 0.47622 0.0
C90 C 0.79829 0.30217 0.43452 0.0
O91 O 0.63646 0.30527 0.55812 0.0
C92 C 0.57194 0.6207 0.02235 0.0
C93 C 0.61048 0.63525 0.05284 0.0
C94 C 0.54988 0.58538 0.02624 0.0
C95 C 0.52398 0.51051 0.10105 0.0
H96 H 0.51034 0.45464 -0.00198 0.0
C97 C 0.43266 0.3608 0.08696 0.0
C98 C 0.3839 0.35896 0.05918 0.0
C99 C 0.4674 0.39255 0.08947 0.0
C100 C 0.51434 0.46987 0.02705 0.0
H101 H 0.65492 0.62439 0.11197 0.0
H102 H 0.61675 0.56219 0.11847 0.0
H103 H 0.558 0.51431 -0.00337 0.0
H104 H 0.33377 0.38865 0.01204 0.0
H105 H 0.39496 0.44329 0.01586 0.0
H106 H 0.4796 0.46562 0.13115 0.0
C107 C 0.60331 0.57837 0.09174 0.0
C108 C 0.54112 0.50412 0.02626 0.0
C109 C 0.62519 0.61396 0.08798 0.0
C110 C 0.37082 0.38921 0.0339 0.0
C111 C 0.406 0.42044 0.03586 0.0
C112 C 0.49761 0.4759 0.10188 0.0
C113 C 0.56618 0.56353 0.06051 0.0
C114 C 0.54444 0.52537 0.06294 0.0
C115 C 0.45456 0.42239 0.06354 0.0
C116 C 0.49104 0.45588 0.0646 0.0
H117 H 0.55911 0.63649 -0.00485 0.0
H118 H 0.51999 0.57517 0.00222 0.0
H119 H 0.52579 0.52624 0.12981 0.0
H120 H 0.44359 0.33792 0.10689 0.0
H121 H 0.50475 0.39361 0.11106 0.0
C122 C 0.34611 0.61049 0.58708 0.0
C123 C 0.34654 0.62814 0.54796 0.0
C124 C 0.38075 0.5793 0.59349 0.0
C125 C 0.51151 0.53048 0.55001 0.0
H126 H 0.44653 0.44725 0.60949 0.0
C127 C 0.56225 0.36812 0.56428 0.0
C128 C 0.62505 0.36936 0.56636 0.0
C129 C 0.52864 0.40003 0.56833 0.0
C130 C 0.46521 0.47025 0.59272 0.0
H131 H 0.38307 0.62653 0.48475 0.0
H132 H 0.44242 0.57209 0.49574 0.0
H133 H 0.3866 0.50253 0.60273 0.0
H134 H 0.70165 0.40455 0.57709 0.0
H135 H 0.64305 0.45993 0.58516 0.0
H136 H 0.58887 0.49798 0.53828 0.0
C137 C 0.41634 0.58269 0.52175 0.0
C138 C 0.43116 0.50203 0.58925 0.0
C139 C 0.38197 0.61382 0.51537 0.0
C140 C 0.65336 0.40279 0.57467 0.0
C141 C 0.61978 0.43456 0.57914 0.0
C142 C 0.54534 0.49877 0.55332 0.0
C143 C 0.41643 0.56519 0.56091 0.0
C144 C 0.45367 0.53228 0.5673 0.0
C145 C 0.55718 0.43372 0.57492 0.0
C146 C 0.5224 0.46813 0.57431 0.0
H147 H 0.31934 0.62086 0.61286 0.0
H148 H 0.38025 0.56656 0.62411 0.0
H149 H 0.53051 0.55352 0.53348 0.0
H150 H 0.53915 0.34276 0.55789 0.0
H151 H 0.48054 0.39846 0.56452 0.0
C152 C 0.06632 0.12644 0.04511 0.0
C153 C 0.09997 0.14078 0.01169 0.0
C154 C 0.02768 0.09711 0.03865 0.0
C155 C 0.00158 0.02022 0.96644 0.0
H156 H 0.85496 0.01118 0.031 0.0
C157 C 0.78932 0.9148 -0.00551 0.0
C158 C 0.82126 0.88187 -0.00395 0.0
C159 C 0.81952 0.94791 0.9902 0.0
C160 C 0.8952 0.01343 0.01214 0.0
H161 H 0.11796 0.13628 0.94491 0.0
H162 H 0.04945 0.08549 0.93348 0.0
H163 H 0.91224 0.06739 0.03441 0.0
H164 H 0.9099 0.85782 -0.00663 0.0
H165 H 0.96261 0.91549 0.98714 0.0
H166 H 0.98401 0.96644 0.94366 0.0
C167 C 0.05395 0.09647 0.96488 0.0
C168 C 0.92854 0.04551 0.01459 0.0
C169 C 0.093 0.12569 0.97141 0.0
C170 C 0.88392 0.88269 -0.00786 0.0
C171 C 0.91414 0.91581 0.98827 0.0
C172 C 0.96795 0.98822 0.96371 0.0
C173 C 0.02132 0.08158 -0.00146 0.0
C174 C 0.9828 0.049 -0.0075 0.0
C175 C 0.88238 0.94886 0.98778 0.0
C176 C 0.915 0.98415 0.98721 0.0
H177 H 0.07078 0.13729 0.07658 0.0
H178 H 0.00411 0.08596 0.06546 0.0
H179 H 0.04336 0.02185 0.94921 0.0
H180 H 0.74093 0.91508 -0.00303 0.0
H181 H 0.79358 0.9728 0.98915 0.0
C182 C 0.8615 0.11774 0.46404 0.0
C183 C 0.87408 0.13888 0.49981 0.0
C184 C 0.88608 0.08288 0.4596 0.0
C185 C 0.9495 0.00973 0.52509 0.0
H186 H 0.01146 0.97068 0.42041 0.0
C187 C 0.1156 0.89293 0.51897 0.0
C188 C 0.10027 0.8623 0.49475 0.0
C189 C 0.08282 0.92498 0.51587 0.0
C190 C -0.00658 0.98118 0.44962 0.0
H191 H 0.92521 0.14113 0.55754 0.0
H192 H 0.96923 0.08113 0.54925 0.0
H193 H 0.9658 0.03148 0.42162 0.0
H194 H 0.03945 0.84157 0.44737 0.0
H195 H 0.98243 0.89862 0.44133 0.0
H196 H 0.97935 0.96024 0.55339 0.0
C197 C 0.93881 0.09077 0.52532 0.0
C198 C 0.9674 0.01586 0.45038 0.0
C199 C 0.91394 0.12531 0.52992 0.0
C200 C 0.05209 0.86472 0.46654 0.0
C201 C 0.01971 0.89723 0.46294 0.0
C202 C 0.97591 0.97543 0.52438 0.0
C203 C 0.9239 0.06874 0.49075 0.0
C204 C 0.94661 0.03084 0.48841 0.0
C205 C 0.03446 0.92734 0.48811 0.0
C206 C -0.00074 0.96124 0.4869 0.0
H207 H 0.8308 0.12748 0.44034 0.0
H208 H 0.87373 0.06656 0.43263 0.0
H209 H 0.93228 0.01999 0.55464 0.0
H210 H 0.15233 0.89203 0.54108 0.0
H211 H 0.09523 0.94802 0.53531 0.0
C212 C 0.59473 0.17385 0.41523 0.0
C213 C 0.5808 0.19199 0.45285 0.0
C214 C 0.54961 0.15906 0.39049 0.0
C215 C 0.44965 0.12458 0.34288 0.0
H216 H 0.3277 0.19769 0.32387 0.0
C217 C 0.27313 0.17747 0.20831 0.0
C218 C 0.3155 0.18325 0.17625 0.0
C219 C 0.2912 0.16473 0.24753 0.0
C220 C 0.36029 0.17639 0.32936 0.0
H221 H 0.50885 0.2063 0.49571 0.0
H222 H 0.42956 0.18018 0.45228 0.0
H223 H 0.38699 0.20017 0.38746 0.0
H224 H 0.40899 0.17764 0.15894 0.0
H225 H 0.44045 0.1551 0.22728 0.0
H226 H 0.42655 0.10323 0.2824 0.0
C227 C 0.47555 0.17795 0.44173 0.0
C228 C 0.39429 0.17772 0.36596 0.0
C229 C 0.52094 0.19293 0.46656 0.0
C230 C 0.3755 0.17378 0.18319 0.0
C231 C 0.39335 0.16047 0.22212 0.0
C232 C 0.41622 0.12361 0.30597 0.0
C233 C 0.4893 0.16184 0.40278 0.0
C234 C 0.44178 0.15316 0.37187 0.0
C235 C 0.35168 0.15688 0.25498 0.0
C236 C 0.37356 0.15072 0.298 0.0
H237 H 0.64042 0.17223 0.40388 0.0
H238 H 0.56205 0.14747 0.36043 0.0
H239 H 0.4848 0.10463 0.34713 0.0
H240 H 0.22648 0.18446 0.20381 0.0
H241 H 0.25841 0.16229 0.27248 0.0
C242 C 0.62593 0.847 0.17486 0.0
C243 C 0.65265 0.81252 0.17039 0.0
C244 C 0.60891 0.85982 0.21453 0.0
C245 C 0.53355 0.86139 0.29431 0.0
H246 H 0.61657 0.83143 0.39523 0.0
C247 C 0.45763 0.78737 0.44709 0.0
C248 C 0.40823 0.80832 0.45963 0.0
C249 C 0.50105 0.80207 0.42064 0.0
C250 C 0.59328 0.84064 0.36743 0.0
H251 H 0.685 0.76527 0.20431 0.0
H252 H 0.65452 0.78715 0.27282 0.0
H253 H 0.66972 0.83166 0.32815 0.0
H254 H 0.36746 0.86183 0.4571 0.0
H255 H 0.44302 0.8874 0.40954 0.0
H256 H 0.45614 0.86818 0.33311 0.0
C257 C 0.64737 0.80465 0.24598 0.0
C258 C 0.62351 0.84059 0.32903 0.0
C259 C 0.66415 0.79184 0.2065 0.0
C260 C 0.40525 0.84513 0.44784 0.0
C261 C 0.44828 0.85972 0.42063 0.0
C262 C 0.50344 0.86165 0.33276 0.0
C263 C 0.61863 0.83848 0.25045 0.0
C264 C 0.59288 0.84883 0.29175 0.0
C265 C 0.4954 0.83787 0.40566 0.0
C266 C 0.53207 0.84921 0.3692 0.0
H267 H 0.61687 0.86375 0.14768 0.0
H268 H 0.58707 0.88606 0.21701 0.0
H269 H 0.50857 0.86783 0.26622 0.0
H270 H 0.46112 0.75898 0.45602 0.0
H271 H 0.53643 0.78441 0.4093 0.0
C272 C 0.50806 0.84238 0.94696 0.0
C273 C 0.51587 0.80585 0.95878 0.0
C274 C 0.46101 0.85207 0.92031 0.0
C275 C 0.32297 0.81709 0.86863 0.0
H276 H 0.39447 0.85697 0.76771 0.0
C277 C 0.2603 0.76865 0.70516 0.0
C278 C 0.26485 0.79216 0.67059 0.0
C279 C 0.27482 0.78084 0.74534 0.0
C280 C 0.37287 0.84674 0.79578 0.0
H281 H 0.4777 0.75161 0.95579 0.0
H282 H 0.39586 0.7684 0.90982 0.0
H283 H 0.44786 0.8613 0.83373 0.0
H284 H 0.2851 0.84758 0.65151 0.0
H285 H 0.31044 0.86883 0.72183 0.0
H286 H 0.24951 0.80058 0.83 0.0
C287 C 0.42574 0.78964 0.92075 0.0
C288 C 0.40353 0.84931 0.83375 0.0
C289 C 0.47305 0.7799 0.94674 0.0
C290 C 0.28179 0.82862 0.67739 0.0
C291 C 0.29626 0.84084 0.71767 0.0
C292 C 0.29217 0.81463 0.83066 0.0
C293 C 0.42066 0.82547 0.90582 0.0
C294 C 0.38034 0.83276 0.87003 0.0
C295 C 0.29407 0.81688 0.75196 0.0
C296 C 0.31834 0.82769 0.79344 0.0
H297 H 0.54047 0.86292 0.95593 0.0
H298 H 0.45792 0.87991 0.90936 0.0
H299 H 0.3037 0.80459 0.89632 0.0
H300 H 0.24713 0.74045 0.70112 0.0
H301 H 0.27361 0.76145 0.77089 0.0
C302 C 0.61631 0.2015 0.68054 0.0
C303 C 0.67751 0.19879 0.67083 0.0
C304 C 0.59405 0.18779 0.71812 0.0
C305 C 0.55005 0.14385 0.79043 0.0
H306 H 0.63282 0.17125 0.89242 0.0
C307 C 0.41768 0.14837 0.9415 0.0
C308 C 0.42595 0.18074 0.96422 0.0
C309 C 0.46081 0.13684 0.91259 0.0
C310 C 0.60907 0.16331 0.86427 0.0
H311 H 0.76329 0.17881 0.69283 0.0
H312 H 0.72393 0.15455 0.75891 0.0
H313 H 0.68298 0.17819 0.82493 0.0
H314 H 0.48746 0.22495 0.97722 0.0
H315 H 0.56077 0.20641 0.92523 0.0
H316 H 0.47424 0.13242 0.82853 0.0
C317 C 0.69344 0.1676 0.73729 0.0
C318 C 0.63822 0.16682 0.82558 0.0
C319 C 0.7159 0.18144 0.69945 0.0
C320 C 0.48 0.19987 0.96002 0.0
C321 C 0.52237 0.18895 0.93028 0.0
C322 C 0.52063 0.14094 0.82885 0.0
C323 C 0.63222 0.17074 0.74702 0.0
C324 C 0.60779 0.15887 0.78812 0.0
C325 C 0.51206 0.15818 0.90477 0.0
C326 C 0.54867 0.15232 0.86616 0.0
H327 H 0.58537 0.21475 0.65938 0.0
H328 H 0.54694 0.19156 0.72499 0.0
H329 H 0.52601 0.13648 0.76217 0.0
H330 H 0.37673 0.13277 0.94482 0.0
H331 H 0.45221 0.11229 0.8947 0.0
C332 C 0.95963 0.71489 0.08257 0.0
C333 C 0.90114 0.70577 0.0952 0.0
C334 C 0.00886 0.70347 0.10623 0.0
C335 C 0.08892 0.70546 0.18297 0.0
H336 H 0.08183 0.62025 0.25455 0.0
C337 C 0.11407 0.68308 0.36395 0.0
C338 C 0.17148 0.69649 0.37285 0.0
C339 C 0.09868 0.67352 0.32304 0.0
C340 C 0.08521 0.64382 0.23428 0.0
H341 H 0.84877 0.67519 0.14058 0.0
H342 H 0.93348 0.65625 0.18196 0.0
H343 H 0.02287 0.62185 0.19016 0.0
H344 H 0.25862 0.70926 0.34643 0.0
H345 H 0.23058 0.69382 0.27418 0.0
H346 H 0.14919 0.728 0.22821 0.0
C347 C 0.94205 0.67174 0.1537 0.0
C348 C 0.05131 0.64488 0.1976 0.0
C349 C 0.89315 0.6831 0.1302 0.0
C350 C 0.21401 0.69893 0.34035 0.0
C351 C 0.19814 0.69011 0.29915 0.0
C352 C 0.1235 0.70416 0.21934 0.0
C353 C 0.00039 0.68265 0.14278 0.0
C354 C 0.04982 0.67666 0.17303 0.0
C355 C 0.14006 0.67781 0.29015 0.0
C356 C 0.11912 0.67421 0.24647 0.0
H357 H 0.96729 0.73205 0.05548 0.0
H358 H 0.05331 0.71202 0.09677 0.0
H359 H 0.0888 0.73042 0.16494 0.0
H360 H 0.08061 0.68068 0.38848 0.0
H361 H 0.0533 0.66461 0.31678 0.0
C362 C 0.8395 0.35598 0.39535 0.0
C363 C 0.81535 0.32058 0.39499 0.0
C364 C 0.86158 0.37155 0.35839 0.0
C365 C 0.95393 0.37608 0.28876 0.0
H366 H 0.89812 0.34804 0.17814 0.0
C367 C 0.09866 0.30749 0.16992 0.0
C368 C 0.09601 0.31595 0.12709 0.0
C369 C 0.0612 0.32489 0.19843 0.0
C370 C 0.91377 0.3572 0.20854 0.0
H371 H 0.7911 0.27498 0.355 0.0
H372 H 0.83041 0.30164 0.29114 0.0
H373 H 0.82807 0.34862 0.23718 0.0
H374 H 0.05331 0.3498 0.08032 0.0
H375 H 0.98469 0.37941 0.13072 0.0
H376 H 0.04051 0.38195 0.2607 0.0
C377 C 0.8319 0.31768 0.31968 0.0
C378 C 0.87389 0.35715 0.24242 0.0
C379 C 0.81009 0.30212 0.35652 0.0
C380 C 0.05596 0.34286 0.11328 0.0
C381 C 0.01705 0.35978 0.14194 0.0
C382 C -0.00633 0.3761 0.25495 0.0
C383 C 0.8596 0.35208 0.32038 0.0
C384 C 0.89461 0.3642 0.28331 0.0
C385 C 0.01943 0.35076 0.18474 0.0
C386 C 0.97475 0.36429 0.21522 0.0
H387 H 0.84359 0.37112 0.42441 0.0
H388 H 0.88231 0.3982 0.35984 0.0
H389 H 0.97145 0.38171 0.31976 0.0
H390 H 0.12958 0.28713 0.18145 0.0
H391 H 0.06321 0.31691 0.23112 0.0
C392 C 0.94069 0.34459 0.62191 0.0
C393 C 0.93778 0.30808 0.60874 0.0
C394 C -0.01393 0.35598 0.64915 0.0
C395 C 0.1291 0.32761 0.6985 0.0
H396 H 0.05436 0.36018 0.80191 0.0
C397 C 0.20051 0.27645 0.85812 0.0
C398 C 0.19401 0.29825 0.89412 0.0
C399 C 0.18376 0.28959 0.8189 0.0
C400 C 0.07672 0.35212 0.77315 0.0
H401 H 0.98256 0.25574 0.61037 0.0
H402 H 0.06162 0.27553 0.65737 0.0
H403 H -0.00106 0.36345 0.73656 0.0
H404 H 0.16758 0.35171 0.91681 0.0
H405 H 0.13801 0.3746 0.84804 0.0
H406 H 0.20561 0.3142 0.73562 0.0
C407 C 0.02911 0.29543 0.64698 0.0
C408 C 0.04489 0.35406 0.73562 0.0
C409 C 0.98342 0.28395 0.62044 0.0
C410 C 0.17259 0.33406 0.88974 0.0
C411 C 0.15572 0.34722 0.85039 0.0
C412 C 0.16106 0.32583 0.736 0.0
C413 C 0.0297 0.33116 0.66283 0.0
C414 C 0.06957 0.3399 0.69843 0.0
C415 C 0.16015 0.32487 0.81466 0.0
C416 C 0.13385 0.33612 0.77405 0.0
H417 H 0.90603 0.36374 0.61322 0.0
H418 H -0.01438 0.38367 0.66095 0.0
H419 H 0.14943 0.31703 0.67007 0.0
H420 H 0.21718 0.24882 0.86026 0.0
H421 H 0.18675 0.27139 0.79218 0.0
C422 C 0.03466 0.65302 0.60693 0.0
C423 C 0.03169 0.68569 0.58433 0.0
C424 C -0.01015 0.64413 0.63575 0.0
C425 C 0.93429 0.65415 0.72009 0.0
H426 H 0.77549 0.6965 0.72495 0.0
C427 C 0.84421 0.71706 0.86969 0.0
C428 C 0.78366 0.71302 0.88075 0.0
C429 C 0.86518 0.70452 0.83113 0.0
C430 C 0.81928 0.68387 0.72398 0.0
H431 H 0.97734 0.73303 0.57092 0.0
H432 H 0.90088 0.71879 0.62271 0.0
H433 H 0.82387 0.68706 0.65695 0.0
H434 H 0.69749 0.69261 0.85972 0.0
H435 H 0.73459 0.67065 0.79184 0.0
H436 H 0.93012 0.65137 0.78693 0.0
C437 C 0.93651 0.69928 0.61769 0.0
C438 C 0.8473 0.6788 0.68505 0.0
C439 C 0.98058 0.70764 0.58803 0.0
C440 C 0.74445 0.69614 0.85215 0.0
C441 C 0.76555 0.68362 0.81329 0.0
C442 C 0.90616 0.65889 0.75874 0.0
C443 C 0.94235 0.66841 0.64356 0.0
C444 C 0.90631 0.66542 0.6828 0.0
C445 C 0.82627 0.68754 0.80255 0.0
C446 C 0.84967 0.67545 0.76126 0.0
H447 H 0.0733 0.63536 0.60404 0.0
H448 H -0.00527 0.61946 0.65398 0.0
H449 H 0.9798 0.64405 0.72006 0.0
H450 H 0.87569 0.73002 0.89078 0.0
H451 H 0.91195 0.70873 0.82341 0.0
loop_
_geom_bond_atom_site_label_1
_geom_bond_atom_site_label_2
_geom_bond_distance
_geom_bond_site_symmetry_2
_ccdc_geom_bond_type
O0 Zn1 1.953 . S
O0 C16 1.225 . S
Zn1 O0 1.953 . S
Zn1 O2 1.949 . S
Zn1 O8 1.919 1_554 S
Zn1 O13 1.924 . S
O2 Zn1 1.949 . S
O2 Zn3 1.923 1_554 S
O2 Zn4 1.950 . S
O2 Zn5 1.945 . S
Zn3 O2 1.923 1_556 S
Zn3 O6 1.933 1_556 S
Zn3 O9 1.941 . S
Zn3 O10 1.965 . S
Zn4 O2 1.950 . S
Zn4 O11 1.938 1_554 S
Zn4 O12 1.906 . S
Zn4 O22 1.953 . S
Zn5 O2 1.945 . S
Zn5 O7 1.932 . S
Zn5 O14 1.977 . S
Zn5 O15 1.910 . S
O6 Zn3 1.933 1_554 S
O6 C17 1.226 . S
O7 Zn5 1.932 . S
O7 C17 1.307 . S
O8 Zn1 1.919 1_556 S
O8 C19 1.253 . S
O9 Zn3 1.941 . S
O9 C19 1.283 . S
O10 Zn3 1.965 . S
O10 C18 1.303 . S
O11 Zn4 1.938 1_556 S
O11 C18 1.247 . S
O12 Zn4 1.906 . S
O12 C20 1.304 . S
O13 Zn1 1.924 . S
O13 C21 1.311 . S
O14 Zn5 1.977 . S
O14 C20 1.272 . S
O15 Zn5 1.910 . S
O15 C21 1.231 . S
C16 O0 1.225 . S
C16 O22 1.298 . S
C17 O6 1.226 . S
C17 O7 1.307 . S
C18 O10 1.303 . S
C18 O11 1.247 . S
C19 O8 1.253 . S
C19 O9 1.283 . S
C20 O12 1.304 . S
C20 O14 1.272 . S
C21 O13 1.311 . S
C21 O15 1.231 . S
O22 Zn4 1.953 . S
O22 C16 1.298 . S
O23 Zn24 1.953 . S
O23 C39 1.225 . S
Zn24 O23 1.953 . S
Zn24 O25 1.949 . S
Zn24 O31 1.919 1_554 S
Zn24 O36 1.924 . S
O25 Zn24 1.949 . S
O25 Zn26 1.923 1_554 S
O25 Zn27 1.950 . S
O25 Zn28 1.945 . S
Zn26 O25 1.923 1_556 S
Zn26 O29 1.933 1_556 S
Zn26 O32 1.941 . S
Zn26 O33 1.965 . S
Zn27 O25 1.950 . S
Zn27 O34 1.938 1_554 S
Zn27 O35 1.906 . S
Zn27 O45 1.953 . S
Zn28 O25 1.945 . S
Zn28 O30 1.932 . S
Zn28 O37 1.977 . S
Zn28 O38 1.910 . S
O29 Zn26 1.933 1_554 S
O29 C40 1.226 . S
O30 Zn28 1.932 . S
O30 C40 1.307 . S
O31 Zn24 1.919 1_556 S
O31 C42 1.253 . S
O32 Zn26 1.941 . S
O32 C42 1.283 . S
O33 Zn26 1.965 . S
O33 C41 1.303 . S
O34 Zn27 1.938 1_556 S
O34 C41 1.247 . S
O35 Zn27 1.906 . S
O35 C43 1.304 . S
O36 Zn24 1.924 . S
O36 C44 1.311 . S
O37 Zn28 1.977 . S
O37 C43 1.272 . S
O38 Zn28 1.910 . S
O38 C44 1.231 . S
C39 O23 1.225 . S
C39 O45 1.298 . S
C40 O29 1.226 . S
C40 O30 1.307 . S
C41 O33 1.303 . S
C41 O34 1.247 . S
C42 O31 1.253 . S
C42 O32 1.283 . S
C43 O35 1.304 . S
C43 O37 1.272 . S
C44 O36 1.311 . S
C44 O38 1.231 . S
O45 Zn27 1.953 . S
O45 C39 1.298 . S
O46 Zn47 1.953 . S
O46 C62 1.225 . S
Zn47 O46 1.953 . S
Zn47 O48 1.949 . S
Zn47 O54 1.919 . S
Zn47 O59 1.924 . S
O48 Zn47 1.949 . S
O48 Zn49 1.923 . S
O48 Zn50 1.950 . S
O48 Zn51 1.945 . S
Zn49 O48 1.923 . S
Zn49 O52 1.933 . S
Zn49 O55 1.941 . S
Zn49 O56 1.965 . S
Zn50 O48 1.950 . S
Zn50 O57 1.938 . S
Zn50 O58 1.906 . S
Zn50 O68 1.953 . S
Zn51 O48 1.945 . S
Zn51 O53 1.932 . S
Zn51 O60 1.977 . S
Zn51 O61 1.910 . S
O52 Zn49 1.933 . S
O52 C63 1.226 . S
O53 Zn51 1.932 . S
O53 C63 1.307 . S
O54 Zn47 1.919 . S
O54 C65 1.253 . S
O55 Zn49 1.941 . S
O55 C65 1.283 . S
O56 Zn49 1.965 . S
O56 C64 1.303 . S
O57 Zn50 1.938 . S
O57 C64 1.247 . S
O58 Zn50 1.906 . S
O58 C66 1.304 . S
O59 Zn47 1.924 . S
O59 C67 1.311 . S
O60 Zn51 1.977 . S
O60 C66 1.272 . S
O61 Zn51 1.910 . S
O61 C67 1.231 . S
C62 O46 1.225 . S
C62 O68 1.298 . S
C63 O52 1.226 . S
C63 O53 1.307 . S
C64 O56 1.303 . S
C64 O57 1.247 . S
C65 O54 1.253 . S
C65 O55 1.283 . S
C66 O58 1.304 . S
C66 O60 1.272 . S
C67 O59 1.311 . S
C67 O61 1.231 . S
O68 Zn50 1.953 . S
O68 C62 1.298 . S
O69 Zn70 1.953 . S
O69 C85 1.225 . S
Zn70 O69 1.953 . S
Zn70 O71 1.949 . S
Zn70 O77 1.919 . S
Zn70 O82 1.924 . S
O71 Zn70 1.949 . S
O71 Zn72 1.923 . S
O71 Zn73 1.950 . S
O71 Zn74 1.945 . S
Zn72 O71 1.923 . S
Zn72 O75 1.933 . S
Zn72 O78 1.941 . S
Zn72 O79 1.965 . S
Zn73 O71 1.950 . S
Zn73 O80 1.938 . S
Zn73 O81 1.906 . S
Zn73 O91 1.953 . S
Zn74 O71 1.945 . S
Zn74 O76 1.932 . S
Zn74 O83 1.977 . S
Zn74 O84 1.910 . S
O75 Zn72 1.933 . S
O75 C86 1.226 . S
O76 Zn74 1.932 . S
O76 C86 1.307 . S
O77 Zn70 1.919 . S
O77 C88 1.253 . S
O78 Zn72 1.941 . S
O78 C88 1.283 . S
O79 Zn72 1.965 . S
O79 C87 1.303 . S
O80 Zn73 1.938 . S
O80 C87 1.247 . S
O81 Zn73 1.906 . S
O81 C89 1.304 . S
O82 Zn70 1.924 . S
O82 C90 1.311 . S
O83 Zn74 1.977 . S
O83 C89 1.272 . S
O84 Zn74 1.910 . S
O84 C90 1.231 . S
C85 O69 1.225 . S
C85 O91 1.298 . S
C86 O75 1.226 . S
C86 O76 1.307 . S
C87 O79 1.303 . S
C87 O80 1.247 . S
C88 O77 1.253 . S
C88 O78 1.283 . S
C89 O81 1.304 . S
C89 O83 1.272 . S
C90 O82 1.311 . S
C90 O84 1.231 . S
O91 Zn73 1.953 . S
O91 C85 1.298 . S
C92 C93 1.349 . S
C92 C94 1.327 . S
C92 H117 0.950 1_554 S
C93 C92 1.349 . S
C93 C109 1.349 . S
C94 C92 1.327 . S
C94 C113 1.429 . S
C94 H118 0.950 1_554 S
C95 C112 1.574 . S
C95 C114 1.368 . S
C95 H119 0.949 . S
H96 C100 0.949 1_556 S
C97 C98 1.349 . S
C97 C99 1.327 . S
C97 H120 0.950 . S
C98 C97 1.349 . S
C98 C110 1.349 . S
C99 C97 1.327 . S
C99 C115 1.429 . S
C99 H121 0.950 . S
C100 H96 0.949 1_554 S
C100 C108 1.574 . S
C100 C116 1.368 . S
H101 C109 0.950 . S
H102 C107 0.950 . S
H103 C108 0.949 1_556 S
H104 C110 0.950 1_556 S
H105 C111 0.950 1_556 S
H106 C112 0.949 . S
C107 H102 0.950 . S
C107 C109 1.327 . S
C107 C113 1.429 . S
C108 C100 1.574 . S
C108 H103 0.949 1_554 S
C108 C114 1.368 . S
C109 C93 1.349 . S
C109 H101 0.950 . S
C109 C107 1.327 . S
C110 C98 1.349 . S
C110 H104 0.950 1_554 S
C110 C111 1.327 . S
C111 H105 0.950 1_554 S
C111 C110 1.327 . S
C111 C115 1.429 . S
C112 C95 1.574 . S
C112 H106 0.949 . S
C112 C116 1.368 . S
C113 C94 1.429 . S
C113 C107 1.429 . S
C113 C114 1.523 . S
C114 C95 1.368 . S
C114 C108 1.368 . S
C114 C113 1.523 . S
C115 C99 1.429 . S
C115 C111 1.429 . S
C115 C116 1.523 . S
C116 C100 1.368 . S
C116 C112 1.368 . S
C116 C115 1.523 . S
H117 C92 0.950 1_556 S
H118 C94 0.950 1_556 S
H119 C95 0.949 . S
H120 C97 0.950 . S
H121 C99 0.950 . S
C122 C123 1.349 . S
C122 C124 1.327 . S
C122 H147 0.950 . S
C123 C122 1.349 . S
C123 C139 1.349 . S
C124 C122 1.327 . S
C124 C143 1.429 . S
C124 H148 0.950 . S
C125 C142 1.574 . S
C125 C144 1.368 . S
C125 H149 0.949 . S
H126 C130 0.949 . S
C127 C128 1.349 . S
C127 C129 1.327 . S
C127 H150 0.950 . S
C128 C127 1.349 . S
C128 C140 1.349 . S
C129 C127 1.327 . S
C129 C145 1.429 . S
C129 H151 0.950 . S
C130 H126 0.949 . S
C130 C138 1.574 . S
C130 C146 1.368 . S
H131 C139 0.950 . S
H132 C137 0.950 . S
H133 C138 0.949 . S
H134 C140 0.950 . S
H135 C141 0.950 . S
H136 C142 0.949 . S
C137 H132 0.950 . S
C137 C139 1.327 . S
C137 C143 1.429 . S
C138 C130 1.574 . S
C138 H133 0.949 . S
C138 C144 1.368 . S
C139 C123 1.349 . S
C139 H131 0.950 . S
C139 C137 1.327 . S
C140 C128 1.349 . S
C140 H134 0.950 . S
C140 C141 1.327 . S
C141 H135 0.950 . S
C141 C140 1.327 . S
C141 C145 1.429 . S
C142 C125 1.574 . S
C142 H136 0.949 . S
C142 C146 1.368 . S
C143 C124 1.429 . S
C143 C137 1.429 . S
C143 C144 1.523 . S
C144 C125 1.368 . S
C144 C138 1.368 . S
C144 C143 1.523 . S
C145 C129 1.429 . S
C145 C141 1.429 . S
C145 C146 1.523 . S
C146 C130 1.368 . S
C146 C142 1.368 . S
C146 C145 1.523 . S
H147 C122 0.950 . S
H148 C124 0.950 . S
H149 C125 0.949 . S
H150 C127 0.950 . S
H151 C129 0.950 . S
C152 C153 1.349 . S
C152 C154 1.327 . S
C152 H177 0.950 . S
C153 C152 1.349 . S
C153 C169 1.349 . S
C154 C152 1.327 . S
C154 C173 1.429 . S
C154 H178 0.950 . S
C155 C172 1.574 1_445 S
C155 C174 1.368 . S
C155 H179 0.949 1_554 S
H156 C160 0.949 . S
C157 C158 1.349 . S
C157 C159 1.327 . S
C157 H180 0.950 1_554 S
C158 C157 1.349 . S
C158 C170 1.349 . S
C159 C157 1.327 . S
C159 C175 1.429 . S
C159 H181 0.950 1_554 S
C160 H156 0.949 . S
C160 C168 1.574 1_565 S
C160 C176 1.368 . S
H161 C169 0.950 1_556 S
H162 C167 0.950 1_556 S
H163 C168 0.949 . S
H164 C170 0.950 . S
H165 C171 0.950 . S
H166 C172 0.949 1_556 S
C167 H162 0.950 1_554 S
C167 C169 1.327 . S
C167 C173 1.429 . S
C168 C160 1.574 1_545 S
C168 H163 0.949 . S
C168 C174 1.368 1_655 S
C169 C153 1.349 . S
C169 H161 0.950 1_554 S
C169 C167 1.327 . S
C170 C158 1.349 . S
C170 H164 0.950 . S
C170 C171 1.327 . S
C171 H165 0.950 . S
C171 C170 1.327 . S
C171 C175 1.429 . S
C172 C155 1.574 1_665 S
C172 H166 0.949 1_554 S
C172 C176 1.368 . S
C173 C154 1.429 . S
C173 C167 1.429 . S
C173 C174 1.523 . S
C174 C155 1.368 . S
C174 C168 1.368 1_455 S
C174 C173 1.523 . S
C175 C159 1.429 . S
C175 C171 1.429 . S
C175 C176 1.523 . S
C176 C160 1.368 . S
C176 C172 1.368 . S
C176 C175 1.523 . S
H177 C152 0.950 . S
H178 C154 0.950 . S
H179 C155 0.949 1_556 S
H180 C157 0.950 1_556 S
H181 C159 0.950 1_556 S
C182 C183 1.349 . S
C182 C184 1.327 . S
C182 H207 0.950 . S
C183 C182 1.349 . S
C183 C199 1.349 . S
C184 C182 1.327 . S
C184 C203 1.429 . S
C184 H208 0.950 . S
C185 C202 1.574 1_645 S
C185 C204 1.368 . S
C185 H209 0.949 . S
H186 C190 0.949 . S
C187 C188 1.349 . S
C187 C189 1.327 . S
C187 H210 0.950 . S
C188 C187 1.349 . S
C188 C200 1.349 . S
C189 C187 1.327 . S
C189 C205 1.429 . S
C189 H211 0.950 . S
C190 H186 0.949 . S
C190 C198 1.574 1_565 S
C190 C206 1.368 . S
H191 C199 0.950 . S
H192 C197 0.950 . S
H193 C198 0.949 . S
H194 C200 0.950 . S
H195 C201 0.950 . S
H196 C202 0.949 . S
C197 H192 0.950 . S
C197 C199 1.327 . S
C197 C203 1.429 . S
C198 C190 1.574 1_545 S
C198 H193 0.949 . S
C198 C204 1.368 1_455 S
C199 C183 1.349 . S
C199 H191 0.950 . S
C199 C197 1.327 . S
C200 C188 1.349 . S
C200 H194 0.950 . S
C200 C201 1.327 . S
C201 H195 0.950 . S
C201 C200 1.327 . S
C201 C205 1.429 . S
C202 C185 1.574 1_465 S
C202 H196 0.949 . S
C202 C206 1.368 . S
C203 C184 1.429 . S
C203 C197 1.429 . S
C203 C204 1.523 . S
C204 C185 1.368 . S
C204 C198 1.368 1_655 S
C204 C203 1.523 . S
C205 C189 1.429 . S
C205 C201 1.429 . S
C205 C206 1.523 . S
C206 C190 1.368 . S
C206 C202 1.368 . S
C206 C205 1.523 . S
H207 C182 0.950 . S
H208 C184 0.950 . S
H209 C185 0.949 . S
H210 C187 0.950 . S
H211 C189 0.950 . S
C212 C213 1.349 . S
C212 C214 1.327 . S
C212 H237 0.950 . S
C213 C212 1.349 . S
C213 C229 1.349 . S
C214 C212 1.327 . S
C214 C233 1.429 . S
C214 H238 0.950 . S
C215 C232 1.574 . S
C215 C234 1.368 . S
C215 H239 0.949 . S
H216 C220 0.949 . S
C217 C218 1.349 . S
C217 C219 1.327 . S
C217 H240 0.950 . S
C218 C217 1.349 . S
C218 C230 1.349 . S
C219 C217 1.327 . S
C219 C235 1.429 . S
C219 H241 0.950 . S
C220 H216 0.949 . S
C220 C228 1.574 . S
C220 C236 1.368 . S
H221 C229 0.950 . S
H222 C227 0.950 . S
H223 C228 0.949 . S
H224 C230 0.950 . S
H225 C231 0.950 . S
H226 C232 0.949 . S
C227 H222 0.950 . S
C227 C229 1.327 . S
C227 C233 1.429 . S
C228 C220 1.574 . S
C228 H223 0.949 . S
C228 C234 1.368 . S
C229 C213 1.349 . S
C229 H221 0.950 . S
C229 C227 1.327 . S
C230 C218 1.349 . S
C230 H224 0.950 . S
C230 C231 1.327 . S
C231 H225 0.950 . S
C231 C230 1.327 . S
C231 C235 1.429 . S
C232 C215 1.574 . S
C232 H226 0.949 . S
C232 C236 1.368 . S
C233 C214 1.429 . S
C233 C227 1.429 . S
C233 C234 1.523 . S
C234 C215 1.368 . S
C234 C228 1.368 . S
C234 C233 1.523 . S
C235 C219 1.429 . S
C235 C231 1.429 . S
C235 C236 1.523 . S
C236 C220 1.368 . S
C236 C232 1.368 . S
C236 C235 1.523 . S
H237 C212 0.950 . S
H238 C214 0.950 . S
H239 C215 0.949 . S
H240 C217 0.950 . S
H241 C219 0.950 . S
C242 C243 1.349 . S
C242 C244 1.327 . S
C242 H267 0.950 . S
C243 C242 1.349 . S
C243 C259 1.349 . S
C244 C242 1.327 . S
C244 C263 1.429 . S
C244 H268 0.950 . S
C245 C262 1.574 . S
C245 C264 1.368 . S
C245 H269 0.949 . S
H246 C250 0.949 . S
C247 C248 1.349 . S
C247 C249 1.327 . S
C247 H270 0.950 . S
C248 C247 1.349 . S
C248 C260 1.349 . S
C249 C247 1.327 . S
C249 C265 1.429 . S
C249 H271 0.950 . S
C250 H246 0.949 . S
C250 C258 1.574 . S
C250 C266 1.368 . S
H251 C259 0.950 . S
H252 C257 0.950 . S
H253 C258 0.949 . S
H254 C260 0.950 . S
H255 C261 0.950 . S
H256 C262 0.949 . S
C257 H252 0.950 . S
C257 C259 1.327 . S
C257 C263 1.429 . S
C258 C250 1.574 . S
C258 H253 0.949 . S
C258 C264 1.368 . S
C259 C243 1.349 . S
C259 H251 0.950 . S
C259 C257 1.327 . S
C260 C248 1.349 . S
C260 H254 0.950 . S
C260 C261 1.327 . S
C261 H255 0.950 . S
C261 C260 1.327 . S
C261 C265 1.429 . S
C262 C245 1.574 . S
C262 H256 0.949 . S
C262 C266 1.368 . S
C263 C244 1.429 . S
C263 C257 1.429 . S
C263 C264 1.523 . S
C264 C245 1.368 . S
C264 C258 1.368 . S
C264 C263 1.523 . S
C265 C249 1.429 . S
C265 C261 1.429 . S
C265 C266 1.523 . S
C266 C250 1.368 . S
C266 C262 1.368 . S
C266 C265 1.523 . S
H267 C242 0.950 . S
H268 C244 0.950 . S
H269 C245 0.949 . S
H270 C247 0.950 . S
H271 C249 0.950 . S
C272 C273 1.349 . S
C272 C274 1.327 . S
C272 H297 0.950 . S
C273 C272 1.349 . S
C273 C289 1.349 . S
C274 C272 1.327 . S
C274 C293 1.429 . S
C274 H298 0.950 . S
C275 C292 1.574 . S
C275 C294 1.368 . S
C275 H299 0.949 . S
H276 C280 0.949 . S
C277 C278 1.349 . S
C277 C279 1.327 . S
C277 H300 0.950 . S
C278 C277 1.349 . S
C278 C290 1.349 . S
C279 C277 1.327 . S
C279 C295 1.429 . S
C279 H301 0.950 . S
C280 H276 0.949 . S
C280 C288 1.574 . S
C280 C296 1.368 . S
H281 C289 0.950 . S
H282 C287 0.950 . S
H283 C288 0.949 . S
H284 C290 0.950 . S
H285 C291 0.950 . S
H286 C292 0.949 . S
C287 H282 0.950 . S
C287 C289 1.327 . S
C287 C293 1.429 . S
C288 C280 1.574 . S
C288 H283 0.949 . S
C288 C294 1.368 . S
C289 C273 1.349 . S
C289 H281 0.950 . S
C289 C287 1.327 . S
C290 C278 1.349 . S
C290 H284 0.950 . S
C290 C291 1.327 . S
C291 H285 0.950 . S
C291 C290 1.327 . S
C291 C295 1.429 . S
C292 C275 1.574 . S
C292 H286 0.949 . S
C292 C296 1.368 . S
C293 C274 1.429 . S
C293 C287 1.429 . S
C293 C294 1.523 . S
C294 C275 1.368 . S
C294 C288 1.368 . S
C294 C293 1.523 . S
C295 C279 1.429 . S
C295 C291 1.429 . S
C295 C296 1.523 . S
C296 C280 1.368 . S
C296 C292 1.368 . S
C296 C295 1.523 . S
H297 C272 0.950 . S
H298 C274 0.950 . S
H299 C275 0.949 . S
H300 C277 0.950 . S
H301 C279 0.950 . S
C302 C303 1.349 . S
C302 C304 1.327 . S
C302 H327 0.950 . S
C303 C302 1.349 . S
C303 C319 1.349 . S
C304 C302 1.327 . S
C304 C323 1.429 . S
C304 H328 0.950 . S
C305 C322 1.574 . S
C305 C324 1.368 . S
C305 H329 0.949 . S
H306 C310 0.949 . S
C307 C308 1.349 . S
C307 C309 1.327 . S
C307 H330 0.950 . S
C308 C307 1.349 . S
C308 C320 1.349 . S
C309 C307 1.327 . S
C309 C325 1.429 . S
C309 H331 0.950 . S
C310 H306 0.949 . S
C310 C318 1.574 . S
C310 C326 1.368 . S
H311 C319 0.950 . S
H312 C317 0.950 . S
H313 C318 0.949 . S
H314 C320 0.950 . S
H315 C321 0.950 . S
H316 C322 0.949 . S
C317 H312 0.950 . S
C317 C319 1.327 . S
C317 C323 1.429 . S
C318 C310 1.574 . S
C318 H313 0.949 . S
C318 C324 1.368 . S
C319 C303 1.349 . S
C319 H311 0.950 . S
C319 C317 1.327 . S
C320 C308 1.349 . S
C320 H314 0.950 . S
C320 C321 1.327 . S
C321 H315 0.950 . S
C321 C320 1.327 . S
C321 C325 1.429 . S
C322 C305 1.574 . S
C322 H316 0.949 . S
C322 C326 1.368 . S
C323 C304 1.429 . S
C323 C317 1.429 . S
C323 C324 1.523 . S
C324 C305 1.368 . S
C324 C318 1.368 . S
C324 C323 1.523 . S
C325 C309 1.429 . S
C325 C321 1.429 . S
C325 C326 1.523 . S
C326 C310 1.368 . S
C326 C322 1.368 . S
C326 C325 1.523 . S
H327 C302 0.950 . S
H328 C304 0.950 . S
H329 C305 0.949 . S
H330 C307 0.950 . S
H331 C309 0.950 . S
C332 C333 1.349 . S
C332 C334 1.327 . S
C332 H357 0.950 . S
C333 C332 1.349 . S
C333 C349 1.349 . S
C334 C332 1.327 . S
C334 C353 1.429 . S
C334 H358 0.950 . S
C335 C352 1.574 . S
C335 C354 1.368 . S
C335 H359 0.949 . S
H336 C340 0.949 . S
C337 C338 1.349 . S
C337 C339 1.327 . S
C337 H360 0.950 . S
C338 C337 1.349 . S
C338 C350 1.349 . S
C339 C337 1.327 . S
C339 C355 1.429 . S
C339 H361 0.950 . S
C340 H336 0.949 . S
C340 C348 1.574 . S
C340 C356 1.368 . S
H341 C349 0.950 . S
H342 C347 0.950 . S
H343 C348 0.949 . S
H344 C350 0.950 . S
H345 C351 0.950 . S
H346 C352 0.949 . S
C347 H342 0.950 . S
C347 C349 1.327 . S
C347 C353 1.429 . S
C348 C340 1.574 . S
C348 H343 0.949 . S
C348 C354 1.368 1_455 S
C349 C333 1.349 . S
C349 H341 0.950 . S
C349 C347 1.327 . S
C350 C338 1.349 . S
C350 H344 0.950 . S
C350 C351 1.327 . S
C351 H345 0.950 . S
C351 C350 1.327 . S
C351 C355 1.429 . S
C352 C335 1.574 . S
C352 H346 0.949 . S
C352 C356 1.368 1_655 S
C353 C334 1.429 . S
C353 C347 1.429 . S
C353 C354 1.523 . S
C354 C335 1.368 . S
C354 C348 1.368 1_655 S
C354 C353 1.523 . S
C355 C339 1.429 . S
C355 C351 1.429 . S
C355 C356 1.523 . S
C356 C340 1.368 . S
C356 C352 1.368 1_455 S
C356 C355 1.523 . S
H357 C332 0.950 . S
H358 C334 0.950 . S
H359 C335 0.949 . S
H360 C337 0.950 . S
H361 C339 0.950 . S
C362 C363 1.349 . S
C362 C364 1.327 . S
C362 H387 0.950 . S
C363 C362 1.349 . S
C363 C379 1.349 . S
C364 C362 1.327 . S
C364 C383 1.429 . S
C364 H388 0.950 . S
C365 C382 1.574 . S
C365 C384 1.368 . S
C365 H389 0.949 . S
H366 C370 0.949 . S
C367 C368 1.349 . S
C367 C369 1.327 . S
C367 H390 0.950 . S
C368 C367 1.349 . S
C368 C380 1.349 . S
C369 C367 1.327 . S
C369 C385 1.429 . S
C369 H391 0.950 . S
C370 H366 0.949 . S
C370 C378 1.574 . S
C370 C386 1.368 . S
H371 C379 0.950 . S
H372 C377 0.950 . S
H373 C378 0.949 . S
H374 C380 0.950 . S
H375 C381 0.950 . S
H376 C382 0.949 . S
C377 H372 0.950 . S
C377 C379 1.327 . S
C377 C383 1.429 . S
C378 C370 1.574 . S
C378 H373 0.949 . S
C378 C384 1.368 1_455 S
C379 C363 1.349 . S
C379 H371 0.950 . S
C379 C377 1.327 . S
C380 C368 1.349 . S
C380 H374 0.950 . S
C380 C381 1.327 . S
C381 H375 0.950 . S
C381 C380 1.327 . S
C381 C385 1.429 . S
C382 C365 1.574 . S
C382 H376 0.949 . S
C382 C386 1.368 1_655 S
C383 C364 1.429 . S
C383 C377 1.429 . S
C383 C384 1.523 . S
C384 C365 1.368 . S
C384 C378 1.368 1_655 S
C384 C383 1.523 . S
C385 C369 1.429 . S
C385 C381 1.429 . S
C385 C386 1.523 . S
C386 C370 1.368 . S
C386 C382 1.368 1_455 S
C386 C385 1.523 . S
H387 C362 0.950 . S
H388 C364 0.950 . S
H389 C365 0.949 . S
H390 C367 0.950 . S
H391 C369 0.950 . S
C392 C393 1.349 . S
C392 C394 1.327 . S
C392 H417 0.950 . S
C393 C392 1.349 . S
C393 C409 1.349 . S
C394 C392 1.327 . S
C394 C413 1.429 . S
C394 H418 0.950 . S
C395 C412 1.574 . S
C395 C414 1.368 1_455 S
C395 H419 0.949 . S
H396 C400 0.949 . S
C397 C398 1.349 . S
C397 C399 1.327 . S
C397 H420 0.950 . S
C398 C397 1.349 . S
C398 C410 1.349 . S
C399 C397 1.327 . S
C399 C415 1.429 . S
C399 H421 0.950 . S
C400 H396 0.949 . S
C400 C408 1.574 . S
C400 C416 1.368 1_655 S
H401 C409 0.950 . S
H402 C407 0.950 . S
H403 C408 0.949 . S
H404 C410 0.950 . S
H405 C411 0.950 . S
H406 C412 0.949 . S
C407 H402 0.950 . S
C407 C409 1.327 . S
C407 C413 1.429 . S
C408 C400 1.574 . S
C408 H403 0.949 . S
C408 C414 1.368 . S
C409 C393 1.349 . S
C409 H401 0.950 . S
C409 C407 1.327 . S
C410 C398 1.349 . S
C410 H404 0.950 . S
C410 C411 1.327 . S
C411 H405 0.950 . S
C411 C410 1.327 . S
C411 C415 1.429 . S
C412 C395 1.574 . S
C412 H406 0.949 . S
C412 C416 1.368 . S
C413 C394 1.429 . S
C413 C407 1.429 . S
C413 C414 1.523 . S
C414 C395 1.368 1_655 S
C414 C408 1.368 . S
C414 C413 1.523 . S
C415 C399 1.429 . S
C415 C411 1.429 . S
C415 C416 1.523 . S
C416 C400 1.368 1_455 S
C416 C412 1.368 . S
C416 C415 1.523 . S
H417 C392 0.950 . S
H418 C394 0.950 . S
H419 C395 0.949 . S
H420 C397 0.950 . S
H421 C399 0.950 . S
C422 C423 1.349 . S
C422 C424 1.327 . S
C422 H447 0.950 . S
C423 C422 1.349 . S
C423 C439 1.349 . S
C424 C422 1.327 . S
C424 C443 1.429 . S
C424 H448 0.950 . S
C425 C442 1.574 . S
C425 C444 1.368 1_655 S
C425 H449 0.949 . S
H426 C430 0.949 . S
C427 C428 1.349 . S
C427 C429 1.327 . S
C427 H450 0.950 . S
C428 C427 1.349 . S
C428 C440 1.349 . S
C429 C427 1.327 . S
C429 C445 1.429 . S
C429 H451 0.950 . S
C430 H426 0.949 . S
C430 C438 1.574 . S
C430 C446 1.368 1_455 S
H431 C439 0.950 . S
H432 C437 0.950 . S
H433 C438 0.949 . S
H434 C440 0.950 . S
H435 C441 0.950 . S
H436 C442 0.949 . S
C437 H432 0.950 . S
C437 C439 1.327 . S
C437 C443 1.429 . S
C438 C430 1.574 . S
C438 H433 0.949 . S
C438 C444 1.368 . S
C439 C423 1.349 . S
C439 H431 0.950 . S
C439 C437 1.327 . S
C440 C428 1.349 . S
C440 H434 0.950 . S
C440 C441 1.327 . S
C441 H435 0.950 . S
C441 C440 1.327 . S
C441 C445 1.429 . S
C442 C425 1.574 . S
C442 H436 0.949 . S
C442 C446 1.368 . S
C443 C424 1.429 . S
C443 C437 1.429 . S
C443 C444 1.523 . S
C444 C425 1.368 1_455 S
C444 C438 1.368 . S
C444 C443 1.523 . S
C445 C429 1.429 . S
C445 C441 1.429 . S
C445 C446 1.523 . S
C446 C430 1.368 1_655 S
C446 C442 1.368 . S
C446 C445 1.523 . S
H447 C422 0.950 . S
H448 C424 0.950 . S
H449 C425 0.949 . S
H450 C427 0.950 . S
H451 C429 0.950 . S
C93 C40 1.664 . S
C98 C16 1.660 . S
C123 C63 1.664 . S
C128 C85 1.660 . S
C153 C17 1.664 . S
C158 C39 1.660 . S
C183 C86 1.664 . S
C188 C62 1.660 . S
C213 C89 0.736 . S
C218 C20 0.736 . S
C243 C44 0.728 . S
C248 C67 0.728 . S
C273 C42 0.599 . S
C278 C65 0.599 . S
C303 C87 0.645 . S
C308 C18 0.645 . S
C333 C43 0.736 . S
C338 C66 0.736 . S
C363 C90 0.728 . S
C368 C21 0.728 . S
C393 C88 0.599 . S
C398 C19 0.599 . S
C423 C64 0.645 . S
C428 C41 0.645 . S
