# Generated by pormake.
# Topology uoq, (4)-cn, num edge types: 1
# Building blocks:
#     Node 0, Type 0, BuildingBlock: QUQFOY_clean_sbu_3, # of connection points: 4
#     Node 1, Type 0, BuildingBlock: QUQFOY_clean_sbu_3, # of connection points: 4
#     Node 2, Type 0, BuildingBlock: QUQFOY_clean_sbu_3, # of connection points: 4
#     Node 3, Type 0, BuildingBlock: QUQFOY_clean_sbu_3, # of connection points: 4
#     Node 4, Type 0, BuildingBlock: QUQFOY_clean_sbu_3, # of connection points: 4
#     Node 5, Type 0, BuildingBlock: QUQFOY_clean_sbu_3, # of connection points: 4
#     Node 6, Type 0, BuildingBlock: QUQFOY_clean_sbu_3, # of connection points: 4
#     Node 7, Type 0, BuildingBlock: QUQFOY_clean_sbu_3, # of connection points: 4
#     Node 8, Type 0, BuildingBlock: QUQFOY_clean_sbu_3, # of connection points: 4
#     Node 9, Type 0, BuildingBlock: QUQFOY_clean_sbu_3, # of connection points: 4
#     Node 10, Type 0, BuildingBlock: QUQFOY_clean_sbu_3, # of connection points: 4
#     Node 11, Type 0, BuildingBlock: QUQFOY_clean_sbu_3, # of connection points: 4
#     Edge 12, Type (0, 0), BuildingBlock: OJICUG_clean_linker_0, # of connection points: 2
#     Edge 13, Type (0, 0), BuildingBlock: OJICUG_clean_linker_0, # of connection points: 2
#     Edge 14, Type (0, 0), BuildingBlock: OJICUG_clean_linker_0, # of connection points: 2
#     Edge 15, Type (0, 0), BuildingBlock: OJICUG_clean_linker_0, # of connection points: 2
#     Edge 16, Type (0, 0), BuildingBlock: OJICUG_clean_linker_0, # of connection points: 2
#     Edge 17, Type (0, 0), BuildingBlock: OJICUG_clean_linker_0, # of connection points: 2
#     Edge 18, Type (0, 0), BuildingBlock: OJICUG_clean_linker_0, # of connection points: 2
#     Edge 19, Type (0, 0), BuildingBlock: OJICUG_clean_linker_0, # of connection points: 2
#     Edge 20, Type (0, 0), BuildingBlock: OJICUG_clean_linker_0, # of connection points: 2
#     Edge 21, Type (0, 0), BuildingBlock: OJICUG_clean_linker_0, # of connection points: 2
#     Edge 22, Type (0, 0), BuildingBlock: OJICUG_clean_linker_0, # of connection points: 2
#     Edge 23, Type (0, 0), BuildingBlock: OJICUG_clean_linker_0, # of connection points: 2
#     Edge 24, Type (0, 0), BuildingBlock: OJICUG_clean_linker_0, # of connection points: 2
#     Edge 25, Type (0, 0), BuildingBlock: OJICUG_clean_linker_0, # of connection points: 2
#     Edge 26, Type (0, 0), BuildingBlock: OJICUG_clean_linker_0, # of connection points: 2
#     Edge 27, Type (0, 0), BuildingBlock: OJICUG_clean_linker_0, # of connection points: 2
#     Edge 28, Type (0, 0), BuildingBlock: OJICUG_clean_linker_0, # of connection points: 2
#     Edge 29, Type (0, 0), BuildingBlock: OJICUG_clean_linker_0, # of connection points: 2
#     Edge 30, Type (0, 0), BuildingBlock: OJICUG_clean_linker_0, # of connection points: 2
#     Edge 31, Type (0, 0), BuildingBlock: OJICUG_clean_linker_0, # of connection points: 2
#     Edge 32, Type (0, 0), BuildingBlock: OJICUG_clean_linker_0, # of connection points: 2
#     Edge 33, Type (0, 0), BuildingBlock: OJICUG_clean_linker_0, # of connection points: 2
#     Edge 34, Type (0, 0), BuildingBlock: OJICUG_clean_linker_0, # of connection points: 2
#     Edge 35, Type (0, 0), BuildingBlock: OJICUG_clean_linker_0, # of connection points: 2
# Relax obj value: 0.154
# Max RMSD: 0.152
# Mean RMSD: 0.152
data_MOF--net-uoq--node1-QUQFOY_clean_sbu_3--edge1-OJICUG_clean_linker_0
_symmetry_space_group_name_H-M    P1
_symmetry_Int_Tables_number       1
_symmetry_cell_setting            triclinic
loop_
_symmetry_equiv_pos_as_xyz
'x, y, z'
_cell_length_a     44.760008
_cell_length_b     44.406034
_cell_length_c     17.350752
_cell_angle_alpha  89.791187
_cell_angle_beta   90.128141
_cell_angle_gamma 119.74174
loop_
_atom_site_label
_atom_site_type_symbol
_atom_site_fract_x
_atom_site_fract_y
_atom_site_fract_z
_atom_type_partial_charge
C0 C 0.30872 0.34399 0.3269 0.0
O1 O 0.30731 0.34776 0.399 0.0
Cd2 Cd 0.29191 0.38473 0.46349 0.0
O3 O 0.29933 0.35972 0.27919 0.0
Cd4 Cd 0.27501 0.39953 0.29061 0.0
C5 C 0.34848 0.46137 0.37253 0.0
O6 O 0.24081 0.37621 0.40502 0.0
O7 O 0.25815 0.42996 0.38042 0.0
O8 O 0.22698 0.3725 0.19792 0.0
C9 C 0.23995 0.40347 0.42151 0.0
O10 O 0.33802 0.44357 0.43441 0.0
C11 C 0.23507 0.4006 0.16238 0.0
O12 O 0.33194 0.45006 0.30946 0.0
O13 O 0.26322 0.42705 0.1818 0.0
C14 C 0.89972 0.32331 0.67535 0.0
O15 O 0.88429 0.32015 0.73863 0.0
Cd16 Cd 0.82479 0.29578 0.75299 0.0
O17 O 0.88303 0.31384 0.61163 0.0
Cd18 Cd 0.8202 0.28716 0.57498 0.0
C19 C 0.81454 0.35482 0.6466 0.0
O20 O 0.80581 0.24587 0.67344 0.0
O21 O 0.76282 0.25114 0.63809 0.0
O22 O 0.82348 0.25174 0.46943 0.0
C23 C 0.7738 0.23359 0.67366 0.0
O24 O 0.81308 0.34165 0.71267 0.0
C25 C 0.80108 0.2537 0.42794 0.0
O26 O 0.81914 0.34134 0.58637 0.0
O27 O 0.79085 0.27415 0.45096 0.0
C28 C 0.58227 0.88368 0.13492 0.0
O29 O 0.56804 0.87956 0.20029 0.0
Cd30 Cd 0.5098 0.83868 0.22897 0.0
O31 O 0.56603 0.86361 0.07872 0.0
Cd32 Cd 0.50957 0.81201 0.04543 0.0
C33 C 0.47027 0.85936 0.08167 0.0
O34 O 0.49835 0.78674 0.16869 0.0
O35 O 0.45395 0.76344 0.09353 0.0
O36 O 0.52808 0.77519 0.97866 0.0
C37 C 0.46676 0.76501 0.15965 0.0
O38 O 0.47704 0.85873 0.15295 0.0
C39 C 0.51966 0.78043 0.91209 0.0
O40 O 0.48029 0.84566 0.03071 0.0
O41 O 0.50702 0.80045 0.90765 0.0
C42 C 0.66597 0.65282 0.28962 0.0
O43 O 0.67356 0.64289 0.35158 0.0
Cd44 Cd 0.69481 0.60462 0.37281 0.0
O45 O 0.67061 0.64267 0.22391 0.0
Cd46 Cd 0.69429 0.60345 0.18687 0.0
C47 C 0.63011 0.53449 0.27964 0.0
O48 O 0.73876 0.62131 0.28074 0.0
O49 O 0.71728 0.56862 0.24352 0.0
O50 O 0.73498 0.63168 0.07977 0.0
C51 C 0.74005 0.59357 0.28233 0.0
O52 O 0.64672 0.54694 0.34208 0.0
C53 C 0.7212 0.60491 0.03715 0.0
O54 O 0.64019 0.55135 0.21645 0.0
O55 O 0.69252 0.58001 0.05958 0.0
C56 C 0.06397 0.66172 0.6484 0.0
O57 O 0.07656 0.66749 0.71585 0.0
Cd58 Cd 0.13491 0.68901 0.74484 0.0
O59 O 0.08319 0.66815 0.58902 0.0
Cd60 Cd 0.14634 0.69289 0.5617 0.0
C61 C 0.14529 0.62553 0.65394 0.0
O62 O 0.16237 0.73556 0.65687 0.0
O63 O 0.2028 0.72484 0.62872 0.0
O64 O 0.14567 0.72988 0.45692 0.0
C65 C 0.19365 0.74422 0.66243 0.0
O66 O 0.14416 0.64065 0.7152 0.0
C67 C 0.16734 0.72693 0.41522 0.0
O68 O 0.14438 0.63763 0.5877 0.0
O69 O 0.1761 0.70512 0.43749 0.0
C70 C 0.39563 0.09794 0.97022 0.0
O71 O 0.40896 0.11537 0.03086 0.0
Cd72 Cd 0.46615 0.16199 0.03404 0.0
O73 O 0.41176 0.10696 0.90597 0.0
Cd74 Cd 0.46724 0.15437 0.8514 0.0
C75 C 0.50573 0.11911 0.9522 0.0
O76 O 0.47395 0.20033 0.93089 0.0
O77 O 0.52185 0.20524 0.89283 0.0
O78 O 0.43821 0.16682 0.74658 0.0
C79 C 0.50623 0.21901 0.92492 0.0
O80 O 0.49989 0.13332 0.00959 0.0
C81 C 0.4615 0.17351 0.69694 0.0
O82 O 0.49478 0.12046 0.88498 0.0
O83 O 0.48553 0.16767 0.71667 0.0
C84 C 0.56454 0.6922 0.34154 0.0
O85 O 0.54743 0.6946 0.28585 0.0
Cd86 Cd 0.49096 0.68555 0.29793 0.0
O87 O 0.55276 0.68708 0.41041 0.0
Cd88 Cd 0.5012 0.68082 0.48272 0.0
C89 C 0.45354 0.60525 0.39143 0.0
O90 O 0.48975 0.71738 0.40538 0.0
O91 O 0.44463 0.67804 0.46261 0.0
O92 O 0.5331 0.72808 0.57109 0.0
C93 C 0.45831 0.70523 0.42144 0.0
O94 O 0.45737 0.62421 0.33271 0.0
C95 C 0.51997 0.71114 0.63257 0.0
O96 O 0.46834 0.61864 0.45533 0.0
O97 O 0.4997 0.67865 0.62565 0.0
C98 C 0.91674 0.59923 0.61525 0.0
O99 O 0.90468 0.59024 0.54776 0.0
Cd100 Cd 0.84671 0.56128 0.51174 0.0
O101 O 0.89674 0.59285 0.67321 0.0
Cd102 Cd 0.83205 0.56388 0.68481 0.0
C103 C 0.8229 0.48856 0.62261 0.0
O104 O 0.8267 0.59442 0.57866 0.0
O105 O 0.78478 0.54223 0.5898 0.0
O106 O 0.82862 0.60272 0.78232 0.0
C107 C 0.79729 0.57149 0.55669 0.0
O108 O 0.82633 0.502 0.55598 0.0
C109 C 0.80182 0.57881 0.81456 0.0
O110 O 0.82632 0.50625 0.68299 0.0
O111 O 0.79163 0.54812 0.79165 0.0
C112 C 0.30758 0.95388 0.97927 0.0
O113 O 0.30966 0.94203 0.91432 0.0
Cd114 Cd 0.30159 0.88717 0.88366 0.0
O115 O 0.29963 0.93497 0.04001 0.0
Cd116 Cd 0.28424 0.87229 0.05552 0.0
C117 C 0.36235 0.88819 0.00548 0.0
O118 O 0.24832 0.8505 0.94522 0.0
O119 O 0.27928 0.82671 0.96671 0.0
O120 O 0.23632 0.84886 0.1502 0.0
C121 C 0.25567 0.82738 0.92771 0.0
O122 O 0.35132 0.88483 0.93652 0.0
C123 C 0.24733 0.83142 0.18673 0.0
O124 O 0.34431 0.88864 0.06155 0.0
O125 O 0.27651 0.83595 0.16682 0.0
C126 C 0.40914 0.30855 0.23615 0.0
O127 O 0.41977 0.31492 0.16703 0.0
Cd128 Cd 0.47449 0.32668 0.12471 0.0
O129 O 0.42745 0.30583 0.28958 0.0
Cd130 Cd 0.48319 0.30606 0.31086 0.0
C131 C 0.52447 0.39099 0.25884 0.0
O132 O 0.48131 0.28388 0.18733 0.0
O133 O 0.52929 0.29936 0.24568 0.0
O134 O 0.44958 0.25476 0.3924 0.0
C135 C 0.51119 0.28774 0.18545 0.0
O136 O 0.51294 0.3802 0.19129 0.0
C137 C 0.47338 0.26233 0.44135 0.0
O138 O 0.51684 0.36994 0.3155 0.0
O139 O 0.50101 0.29104 0.43199 0.0
C140 C 0.04704 0.38048 0.68572 0.0
O141 O 0.06252 0.38572 0.62172 0.0
Cd142 Cd 0.12204 0.41559 0.59944 0.0
O143 O 0.06384 0.39068 0.74916 0.0
Cd144 Cd 0.12689 0.42197 0.7846 0.0
C145 C 0.13761 0.49213 0.68385 0.0
O146 O 0.1431 0.39272 0.69463 0.0
O147 O 0.18398 0.4429 0.72697 0.0
O148 O 0.12631 0.38692 0.89517 0.0
C149 C 0.17477 0.4145 0.69262 0.0
O150 O 0.13726 0.47574 0.62341 0.0
C151 C 0.14674 0.41291 0.93555 0.0
O152 O 0.1325 0.47795 0.75021 0.0
O153 O 0.15377 0.44257 0.91009 0.0
C154 C 0.67041 0.02047 0.04198 0.0
O155 O 0.67024 0.02401 0.96942 0.0
Cd156 Cd 0.67437 0.07211 0.90039 0.0
O157 O 0.67506 0.04517 0.08686 0.0
Cd158 Cd 0.68749 0.10613 0.06962 0.0
C159 C 0.61021 0.0812 0.98879 0.0
O160 O 0.72073 0.12273 0.95201 0.0
O161 O 0.69463 0.15109 0.98008 0.0
O162 O 0.73656 0.13457 0.15893 0.0
C163 C 0.7151 0.14735 0.93624 0.0
O164 O 0.62265 0.07556 0.92806 0.0
C165 C 0.72403 0.15014 0.19678 0.0
O166 O 0.62701 0.0893 0.05204 0.0
O167 O 0.69366 0.14306 0.17929 0.0
C168 C 0.34031 0.31196 0.35368 0.0
C169 C 0.32698 0.326 0.29968 0.0
H170 H 0.37684 0.29526 0.37593 0.0
C171 C 0.33615 0.32768 0.2219 0.0
H172 H 0.33329 0.30967 0.414 0.0
C173 C 0.36102 0.31914 0.20006 0.0
C174 C 0.37726 0.309 0.25575 0.0
H175 H 0.32604 0.33794 0.17874 0.0
H176 H 0.36917 0.3229 0.14038 0.0
C177 C 0.36535 0.3037 0.33198 0.0
C178 C 0.95577 0.33997 0.61044 0.0
C179 C 0.93734 0.33738 0.67763 0.0
H180 H 0.00474 0.35515 0.56052 0.0
C181 C 0.95513 0.34787 0.74837 0.0
H182 H 0.94286 0.33192 0.55526 0.0
C183 C -0.00937 0.36112 0.75165 0.0
C184 C 0.00914 0.36419 0.68428 0.0
H185 H 0.94168 0.34608 0.80152 0.0
H186 H 0.00357 0.36941 0.80674 0.0
C187 C -0.00873 0.3532 0.61373 0.0
C188 C 0.62873 0.92356 0.04519 0.0
C189 C 0.61451 0.91644 0.11952 0.0
H190 H 0.65875 0.96263 0.96253 0.0
C191 C 0.62683 0.94351 0.17379 0.0
H192 H 0.62045 0.9032 0.00254 0.0
C193 C 0.64861 0.97775 0.15066 0.0
C194 C 0.65854 0.9853 0.07315 0.0
H195 H 0.61698 0.93882 0.23217 0.0
H196 H 0.65484 -0.00165 0.19175 0.0
C197 C 0.65068 0.95774 0.02225 0.0
C198 C 0.62727 0.67361 0.23562 0.0
C199 C 0.6467 0.67178 0.29714 0.0
H200 H 0.58607 0.68203 0.20142 0.0
C201 C 0.64302 0.68302 0.3706 0.0
H202 H 0.62962 0.66536 0.17838 0.0
C203 C 0.61775 0.692 0.38419 0.0
C204 C 0.59601 0.69051 0.32436 0.0
H205 H 0.65807 0.68261 0.41917 0.0
H206 H 0.61406 0.69826 0.44242 0.0
C207 C 0.60222 0.68307 0.24908 0.0
C208 C 0.97567 0.62456 0.5592 0.0
C209 C 0.95448 0.6166 0.62473 0.0
H210 H 0.02668 0.645 0.51511 0.0
C211 C 0.96971 0.62456 0.69795 0.0
H212 H 0.96483 0.61895 0.50168 0.0
C213 C 0.00535 0.63958 0.70546 0.0
C214 C 0.02643 0.64694 0.63988 0.0
H215 H 0.95414 0.61881 0.74942 0.0
H216 H 0.0163 0.64509 0.76287 0.0
C217 C 0.01122 0.63955 0.56669 0.0
C218 C 0.33419 0.00998 0.05149 0.0
C219 C 0.32003 0.99148 0.98324 0.0
H220 H 0.36924 0.0591 0.101 0.0
C221 C 0.32442 0.00998 0.91415 0.0
H222 H 0.33101 -0.00352 0.10562 0.0
C223 C 0.34671 0.04566 0.91107 0.0
C224 C 0.36449 0.06354 0.97733 0.0
H225 H 0.31309 -0.00351 0.86078 0.0
H226 H 0.35202 0.05871 0.85574 0.0
C227 C 0.3562 0.04589 0.04859 0.0
C228 C 0.15999 0.3766 0.02582 0.0
C229 C 0.1664 0.40944 0.00064 0.0
H230 H 0.17675 0.34795 0.09631 0.0
C231 C 0.1951 0.43912 0.03042 0.0
H232 H 0.13827 0.35321 0.00353 0.0
C233 C 0.21752 0.43608 0.08189 0.0
C234 C 0.21163 0.4033 0.10574 0.0
H235 H 0.20104 0.46482 0.01186 0.0
H236 H 0.23957 0.45954 0.10293 0.0
C237 C 0.18225 0.37357 0.07827 0.0
C238 C 0.75311 0.22619 0.33255 0.0
C239 C 0.78377 0.22959 0.36299 0.0
H240 H 0.70997 0.19806 0.25791 0.0
C241 C 0.79508 0.20693 0.33717 0.0
H242 H 0.74348 0.243 0.35153 0.0
C243 C 0.77579 0.18109 0.283 0.0
C244 C 0.74455 0.17705 0.25466 0.0
H245 H 0.81847 0.20873 0.35989 0.0
H246 H 0.78505 0.16393 0.26432 0.0
C247 C 0.73363 0.20011 0.27951 0.0
C248 C 0.5171 0.72916 0.84548 0.0
C249 C 0.52351 0.76352 0.84278 0.0
H250 H 0.51036 0.68511 0.78029 0.0
C251 C 0.53164 0.78112 0.77202 0.0
H252 H 0.51067 0.71504 0.89954 0.0
C253 C 0.53255 0.76449 0.70472 0.0
C254 C 0.52426 0.72952 0.70629 0.0
H255 H 0.53685 0.80767 0.76855 0.0
H256 H 0.5381 0.77863 0.65077 0.0
C257 C 0.51691 0.71207 0.77746 0.0
C258 C 0.77363 0.62646 0.95262 0.0
C259 C 0.74043 0.60006 0.97328 0.0
H260 H 0.81929 0.6405 0.88665 0.0
C261 C 0.72769 0.56704 0.94036 0.0
H262 H 0.78436 0.65209 0.97751 0.0
C263 C 0.74795 0.56021 0.89017 0.0
C264 C 0.78138 0.58631 0.87064 0.0
H265 H 0.70241 0.54597 0.9554 0.0
H266 H 0.7373 0.53434 0.8666 0.0
C267 C 0.79381 0.61971 0.90135 0.0
C268 C 0.1754 0.77539 0.32651 0.0
C269 C 0.18545 0.75146 0.3511 0.0
H270 H 0.18709 0.8196 0.2554 0.0
C271 C 0.21563 0.75398 0.3205 0.0
H272 H 0.15239 0.77429 0.34943 0.0
C273 C 0.23583 0.78033 0.26839 0.0
C274 C 0.22617 0.80462 0.24465 0.0
H275 H 0.22432 0.73622 0.3386 0.0
H276 H 0.25906 0.78156 0.24653 0.0
C277 C 0.19544 0.80155 0.27331 0.0
C278 C 0.4342 0.19221 0.59487 0.0
C279 C 0.46356 0.19268 0.62537 0.0
H280 H 0.41423 0.21362 0.51171 0.0
C281 C 0.49588 0.2154 0.59312 0.0
H282 H 0.40901 0.17516 0.61904 0.0
C283 C 0.49899 0.23819 0.53386 0.0
C284 C 0.46975 0.23812 0.50416 0.0
H285 H 0.51904 0.21671 0.61602 0.0
H286 H 0.52433 0.25591 0.51128 0.0
C287 C 0.43722 0.21435 0.53393 0.0
C288 C 0.22061 0.44197 0.59389 0.0
C289 C 0.19563 0.41196 0.63125 0.0
H290 H 0.25377 0.46274 0.49631 0.0
C291 C 0.18698 0.3792 0.60212 0.0
H292 H 0.22746 0.46752 0.61508 0.0
C293 C 0.20197 0.37644 0.53441 0.0
C294 C 0.22545 0.40643 0.49458 0.0
H295 H 0.16771 0.35574 0.63027 0.0
H296 H 0.19434 0.35089 0.51198 0.0
C297 C 0.23524 0.43922 0.52549 0.0
C298 C 0.76379 0.18317 0.75186 0.0
C299 C 0.75348 0.2072 0.73096 0.0
H300 H 0.75968 0.14536 0.83376 0.0
C301 C 0.72808 0.20929 0.77373 0.0
H302 H 0.78336 0.1812 0.71921 0.0
C303 C 0.71494 0.18919 0.84015 0.0
C304 C 0.72685 0.16663 0.86362 0.0
H305 H 0.72004 0.2279 0.75875 0.0
H306 H 0.69628 0.19209 0.87423 0.0
C307 C 0.75047 0.16292 0.81755 0.0
C308 C 0.43122 0.70974 0.22902 0.0
C309 C 0.44599 0.74587 0.22632 0.0
H310 H 0.42078 0.66643 0.30107 0.0
C311 C 0.4499 0.76424 0.29468 0.0
H312 H 0.42785 0.69513 0.17672 0.0
C313 C 0.44588 0.74791 0.36556 0.0
C314 C 0.43815 0.71329 0.36782 0.0
H315 H 0.46036 0.79205 0.29358 0.0
H316 H 0.45448 0.7637 0.4171 0.0
C317 C 0.42683 0.69329 0.30033 0.0
C318 C 0.78352 0.61529 0.38613 0.0
C319 C 0.75704 0.58708 0.34711 0.0
H320 H 0.81666 0.63234 0.48401 0.0
C321 C 0.74413 0.55336 0.3765 0.0
H322 H 0.79375 0.64152 0.36459 0.0
C323 C 0.75681 0.54813 0.44564 0.0
C324 C 0.7828 0.57652 0.48542 0.0
H325 H 0.72339 0.53121 0.34774 0.0
H326 H 0.74628 0.52199 0.46788 0.0
C327 C 0.79638 0.61004 0.45463 0.0
C328 C 0.23805 0.76392 0.76613 0.0
C329 C 0.21419 0.7686 0.72268 0.0
H330 H 0.26972 0.77877 0.86734 0.0
C331 C 0.20598 0.79401 0.7441 0.0
H332 H 0.24447 0.74419 0.75069 0.0
C333 C 0.21989 0.81326 0.81038 0.0
C334 C 0.24234 0.80749 0.8565 0.0
H335 H 0.18774 0.79812 0.71097 0.0
H336 H 0.21242 0.83218 0.8262 0.0
C337 C 0.25205 0.7833 0.83309 0.0
C338 C 0.51471 0.27358 0.97658 0.0
C339 C 0.5236 0.24756 0.97875 0.0
H340 H 0.5049 0.30799 0.04257 0.0
C341 C 0.53798 0.24231 0.04598 0.0
H342 H 0.50347 0.27778 0.92511 0.0
C343 C 0.5383 0.25925 0.11397 0.0
C344 C 0.52421 0.28125 0.114 0.0
H345 H 0.54449 0.22185 0.04861 0.0
H346 H 0.54547 0.25192 0.16757 0.0
C347 C 0.5151 0.29045 0.04403 0.0
C348 C 0.39514 0.51106 0.44612 0.0
C349 C 0.37849 0.49688 0.37567 0.0
H350 H 0.43205 0.55638 0.50654 0.0
C351 C 0.38905 0.51791 0.30947 0.0
H352 H 0.38776 0.49553 0.49824 0.0
C353 C 0.4144 0.55275 0.31431 0.0
C354 C 0.42982 0.56741 0.38545 0.0
H355 H 0.37697 0.50783 0.2542 0.0
H356 H 0.42114 0.56841 0.26244 0.0
C357 C 0.42056 0.54597 0.45096 0.0
C358 C 0.81623 0.4344 0.56239 0.0
C359 C 0.81727 0.45284 0.62908 0.0
H360 H 0.8144 0.38907 0.51551 0.0
C361 C 0.81487 0.43756 0.70152 0.0
H362 H 0.81785 0.44529 0.50556 0.0
C363 C 0.81278 0.40515 0.70716 0.0
C364 C 0.81317 0.38739 0.64049 0.0
H365 H 0.81545 0.45097 0.75401 0.0
H366 H 0.81185 0.3945 0.76395 0.0
C367 C 0.81426 0.40211 0.56803 0.0
C368 C 0.43639 0.87091 0.98239 0.0
C369 C 0.44732 0.87299 0.05918 0.0
H370 H 0.4011 0.87453 0.90482 0.0
C371 C 0.43339 0.88499 0.11586 0.0
H372 H 0.44686 0.86212 0.93718 0.0
C373 C 0.40713 0.89202 0.09735 0.0
C374 C 0.39434 0.88735 0.02173 0.0
H375 H 0.44152 0.88735 0.17543 0.0
H376 H 0.3958 0.89958 0.14315 0.0
C377 C 0.41018 0.8781 0.96381 0.0
C378 C 0.5803 0.4861 0.21185 0.0
C379 C 0.60025 0.49889 0.27886 0.0
H380 H 0.54059 0.44236 0.15355 0.0
C381 C 0.59288 0.47656 0.34256 0.0
H382 H 0.585 0.50264 0.16204 0.0
C383 C 0.56727 0.44166 0.33767 0.0
C384 C 0.54858 0.42854 0.26903 0.0
H385 H 0.60774 0.48567 0.3952 0.0
H386 H 0.56302 0.42476 0.38655 0.0
C387 C 0.55478 0.45141 0.20705 0.0
C388 C 0.14587 0.57417 0.59529 0.0
C389 C 0.14588 0.59257 0.66098 0.0
H390 H 0.14346 0.52814 0.55089 0.0
C391 C 0.14505 0.57847 0.73426 0.0
H392 H 0.14659 0.58431 0.53804 0.0
C393 C 0.14317 0.54627 0.7417 0.0
C394 C 0.14219 0.5274 0.67606 0.0
H395 H 0.14517 0.59196 0.78622 0.0
H396 H 0.14191 0.53594 0.799 0.0
C397 C 0.14409 0.54195 0.60275 0.0
C398 C 0.56629 0.09369 0.0464 0.0
C399 C 0.57855 0.08376 0.98245 0.0
H400 H 0.5335 0.11236 0.08712 0.0
C401 C 0.56313 0.08102 0.91006 0.0
H402 H 0.57735 0.09579 0.10308 0.0
C403 C 0.53805 0.09076 0.90072 0.0
C404 C 0.52781 0.10332 0.96361 0.0
H405 H 0.57174 0.0732 0.85958 0.0
H406 H 0.52795 0.09 0.84353 0.0
C407 C 0.54119 0.10333 0.03709 0.0
loop_
_geom_bond_atom_site_label_1
_geom_bond_atom_site_label_2
_geom_bond_distance
_geom_bond_site_symmetry_2
_ccdc_geom_bond_type
C0 O1 1.306 . S
C0 O3 1.160 . S
O1 C0 1.306 . S
O1 Cd2 2.228 . S
Cd2 O1 2.228 . S
Cd2 O6 2.273 . S
Cd2 O10 2.277 . S
O3 C0 1.160 . S
O3 Cd4 2.203 . S
Cd4 O3 2.203 . S
Cd4 O6 2.411 . S
Cd4 O7 2.333 . S
Cd4 O8 2.352 . S
Cd4 O12 2.277 . S
Cd4 O13 2.356 . S
C5 O10 1.209 . S
C5 O12 1.226 . S
O6 Cd2 2.273 . S
O6 Cd4 2.411 . S
O6 C9 1.320 . S
O7 Cd4 2.333 . S
O7 C9 1.214 . S
O8 Cd4 2.352 . S
O8 C11 1.258 . S
C9 O6 1.320 . S
C9 O7 1.214 . S
O10 Cd2 2.277 . S
O10 C5 1.209 . S
C11 O8 1.258 . S
C11 O13 1.282 . S
O12 Cd4 2.277 . S
O12 C5 1.226 . S
O13 Cd4 2.356 . S
O13 C11 1.282 . S
C14 O15 1.306 . S
C14 O17 1.160 . S
O15 C14 1.306 . S
O15 Cd16 2.228 . S
Cd16 O15 2.228 . S
Cd16 O20 2.273 . S
Cd16 O24 2.277 . S
O17 C14 1.160 . S
O17 Cd18 2.203 . S
Cd18 O17 2.203 . S
Cd18 O20 2.411 . S
Cd18 O21 2.333 . S
Cd18 O22 2.352 . S
Cd18 O26 2.277 . S
Cd18 O27 2.356 . S
C19 O24 1.209 . S
C19 O26 1.226 . S
O20 Cd16 2.273 . S
O20 Cd18 2.411 . S
O20 C23 1.320 . S
O21 Cd18 2.333 . S
O21 C23 1.214 . S
O22 Cd18 2.352 . S
O22 C25 1.258 . S
C23 O20 1.320 . S
C23 O21 1.214 . S
O24 Cd16 2.277 . S
O24 C19 1.209 . S
C25 O22 1.258 . S
C25 O27 1.282 . S
O26 Cd18 2.277 . S
O26 C19 1.226 . S
O27 Cd18 2.356 . S
O27 C25 1.282 . S
C28 O29 1.306 1_556 S
C28 O31 1.160 . S
O29 C28 1.306 1_554 S
O29 Cd30 2.228 . S
Cd30 O29 2.228 . S
Cd30 O34 2.273 . S
Cd30 O38 2.277 . S
O31 C28 1.160 . S
O31 Cd32 2.203 . S
Cd32 O31 2.203 . S
Cd32 O34 2.411 1_556 S
Cd32 O35 2.333 . S
Cd32 O36 2.352 . S
Cd32 O40 2.277 . S
Cd32 O41 2.356 . S
C33 O38 1.209 1_556 S
C33 O40 1.226 . S
O34 Cd30 2.273 . S
O34 Cd32 2.411 1_554 S
O34 C37 1.320 . S
O35 Cd32 2.333 . S
O35 C37 1.214 1_556 S
O36 Cd32 2.352 . S
O36 C39 1.258 . S
C37 O34 1.320 . S
C37 O35 1.214 1_554 S
O38 Cd30 2.277 . S
O38 C33 1.209 1_554 S
C39 O36 1.258 . S
C39 O41 1.282 . S
O40 Cd32 2.277 . S
O40 C33 1.226 . S
O41 Cd32 2.356 . S
O41 C39 1.282 . S
C42 O43 1.306 . S
C42 O45 1.160 . S
O43 C42 1.306 . S
O43 Cd44 2.228 . S
Cd44 O43 2.228 . S
Cd44 O48 2.273 . S
Cd44 O52 2.277 . S
O45 C42 1.160 . S
O45 Cd46 2.203 . S
Cd46 O45 2.203 . S
Cd46 O48 2.411 . S
Cd46 O49 2.333 . S
Cd46 O50 2.352 . S
Cd46 O54 2.277 . S
Cd46 O55 2.356 . S
C47 O52 1.209 . S
C47 O54 1.226 . S
O48 Cd44 2.273 . S
O48 Cd46 2.411 . S
O48 C51 1.320 . S
O49 Cd46 2.333 . S
O49 C51 1.214 . S
O50 Cd46 2.352 . S
O50 C53 1.258 . S
C51 O48 1.320 . S
C51 O49 1.214 . S
O52 Cd44 2.277 . S
O52 C47 1.209 . S
C53 O50 1.258 . S
C53 O55 1.282 . S
O54 Cd46 2.277 . S
O54 C47 1.226 . S
O55 Cd46 2.356 . S
O55 C53 1.282 . S
C56 O57 1.306 . S
C56 O59 1.160 . S
O57 C56 1.306 . S
O57 Cd58 2.228 . S
Cd58 O57 2.228 . S
Cd58 O62 2.273 . S
Cd58 O66 2.277 . S
O59 C56 1.160 . S
O59 Cd60 2.203 . S
Cd60 O59 2.203 . S
Cd60 O62 2.411 . S
Cd60 O63 2.333 . S
Cd60 O64 2.352 . S
Cd60 O68 2.277 . S
Cd60 O69 2.356 . S
C61 O66 1.209 . S
C61 O68 1.226 . S
O62 Cd58 2.273 . S
O62 Cd60 2.411 . S
O62 C65 1.320 . S
O63 Cd60 2.333 . S
O63 C65 1.214 . S
O64 Cd60 2.352 . S
O64 C67 1.258 . S
C65 O62 1.320 . S
C65 O63 1.214 . S
O66 Cd58 2.277 . S
O66 C61 1.209 . S
C67 O64 1.258 . S
C67 O69 1.282 . S
O68 Cd60 2.277 . S
O68 C61 1.226 . S
O69 Cd60 2.356 . S
O69 C67 1.282 . S
C70 O71 1.306 1_556 S
C70 O73 1.160 . S
O71 C70 1.306 1_554 S
O71 Cd72 2.228 . S
Cd72 O71 2.228 . S
Cd72 O76 2.273 . S
Cd72 O80 2.277 . S
O73 C70 1.160 . S
O73 Cd74 2.203 . S
Cd74 O73 2.203 . S
Cd74 O76 2.411 1_556 S
Cd74 O77 2.333 . S
Cd74 O78 2.352 . S
Cd74 O82 2.277 . S
Cd74 O83 2.356 . S
C75 O80 1.209 1_556 S
C75 O82 1.226 . S
O76 Cd72 2.273 . S
O76 Cd74 2.411 1_554 S
O76 C79 1.320 . S
O77 Cd74 2.333 . S
O77 C79 1.214 1_556 S
O78 Cd74 2.352 . S
O78 C81 1.258 . S
C79 O76 1.320 . S
C79 O77 1.214 1_554 S
O80 Cd72 2.277 . S
O80 C75 1.209 1_554 S
C81 O78 1.258 . S
C81 O83 1.282 . S
O82 Cd74 2.277 . S
O82 C75 1.226 . S
O83 Cd74 2.356 . S
O83 C81 1.282 . S
C84 O85 1.306 . S
C84 O87 1.160 . S
O85 C84 1.306 . S
O85 Cd86 2.228 . S
Cd86 O85 2.228 . S
Cd86 O90 2.273 . S
Cd86 O94 2.277 . S
O87 C84 1.160 . S
O87 Cd88 2.203 . S
Cd88 O87 2.203 . S
Cd88 O90 2.411 . S
Cd88 O91 2.333 . S
Cd88 O92 2.352 . S
Cd88 O96 2.277 . S
Cd88 O97 2.356 . S
C89 O94 1.209 . S
C89 O96 1.226 . S
O90 Cd86 2.273 . S
O90 Cd88 2.411 . S
O90 C93 1.320 . S
O91 Cd88 2.333 . S
O91 C93 1.214 . S
O92 Cd88 2.352 . S
O92 C95 1.258 . S
C93 O90 1.320 . S
C93 O91 1.214 . S
O94 Cd86 2.277 . S
O94 C89 1.209 . S
C95 O92 1.258 . S
C95 O97 1.282 . S
O96 Cd88 2.277 . S
O96 C89 1.226 . S
O97 Cd88 2.356 . S
O97 C95 1.282 . S
C98 O99 1.306 . S
C98 O101 1.160 . S
O99 C98 1.306 . S
O99 Cd100 2.228 . S
Cd100 O99 2.228 . S
Cd100 O104 2.273 . S
Cd100 O108 2.277 . S
O101 C98 1.160 . S
O101 Cd102 2.203 . S
Cd102 O101 2.203 . S
Cd102 O104 2.411 . S
Cd102 O105 2.333 . S
Cd102 O106 2.352 . S
Cd102 O110 2.277 . S
Cd102 O111 2.356 . S
C103 O108 1.209 . S
C103 O110 1.226 . S
O104 Cd100 2.273 . S
O104 Cd102 2.411 . S
O104 C107 1.320 . S
O105 Cd102 2.333 . S
O105 C107 1.214 . S
O106 Cd102 2.352 . S
O106 C109 1.258 . S
C107 O104 1.320 . S
C107 O105 1.214 . S
O108 Cd100 2.277 . S
O108 C103 1.209 . S
C109 O106 1.258 . S
C109 O111 1.282 . S
O110 Cd102 2.277 . S
O110 C103 1.226 . S
O111 Cd102 2.356 . S
O111 C109 1.282 . S
C112 O113 1.306 1_554 S
C112 O115 1.160 . S
O113 C112 1.306 1_556 S
O113 Cd114 2.228 . S
Cd114 O113 2.228 . S
Cd114 O118 2.273 . S
Cd114 O122 2.277 . S
O115 C112 1.160 . S
O115 Cd116 2.203 . S
Cd116 O115 2.203 . S
Cd116 O118 2.411 1_554 S
Cd116 O119 2.333 . S
Cd116 O120 2.352 . S
Cd116 O124 2.277 . S
Cd116 O125 2.356 . S
C117 O122 1.209 1_554 S
C117 O124 1.226 . S
O118 Cd114 2.273 . S
O118 Cd116 2.411 1_556 S
O118 C121 1.320 . S
O119 Cd116 2.333 . S
O119 C121 1.214 1_554 S
O120 Cd116 2.352 . S
O120 C123 1.258 . S
C121 O118 1.320 . S
C121 O119 1.214 1_556 S
O122 Cd114 2.277 . S
O122 C117 1.209 1_556 S
C123 O120 1.258 . S
C123 O125 1.282 . S
O124 Cd116 2.277 . S
O124 C117 1.226 . S
O125 Cd116 2.356 . S
O125 C123 1.282 . S
C126 O127 1.306 . S
C126 O129 1.160 . S
O127 C126 1.306 . S
O127 Cd128 2.228 . S
Cd128 O127 2.228 . S
Cd128 O132 2.273 . S
Cd128 O136 2.277 . S
O129 C126 1.160 . S
O129 Cd130 2.203 . S
Cd130 O129 2.203 . S
Cd130 O132 2.411 . S
Cd130 O133 2.333 . S
Cd130 O134 2.352 . S
Cd130 O138 2.277 . S
Cd130 O139 2.356 . S
C131 O136 1.209 . S
C131 O138 1.226 . S
O132 Cd128 2.273 . S
O132 Cd130 2.411 . S
O132 C135 1.320 . S
O133 Cd130 2.333 . S
O133 C135 1.214 . S
O134 Cd130 2.352 . S
O134 C137 1.258 . S
C135 O132 1.320 . S
C135 O133 1.214 . S
O136 Cd128 2.277 . S
O136 C131 1.209 . S
C137 O134 1.258 . S
C137 O139 1.282 . S
O138 Cd130 2.277 . S
O138 C131 1.226 . S
O139 Cd130 2.356 . S
O139 C137 1.282 . S
C140 O141 1.306 . S
C140 O143 1.160 . S
O141 C140 1.306 . S
O141 Cd142 2.228 . S
Cd142 O141 2.228 . S
Cd142 O146 2.273 . S
Cd142 O150 2.277 . S
O143 C140 1.160 . S
O143 Cd144 2.203 . S
Cd144 O143 2.203 . S
Cd144 O146 2.411 . S
Cd144 O147 2.333 . S
Cd144 O148 2.352 . S
Cd144 O152 2.277 . S
Cd144 O153 2.356 . S
C145 O150 1.209 . S
C145 O152 1.226 . S
O146 Cd142 2.273 . S
O146 Cd144 2.411 . S
O146 C149 1.320 . S
O147 Cd144 2.333 . S
O147 C149 1.214 . S
O148 Cd144 2.352 . S
O148 C151 1.258 . S
C149 O146 1.320 . S
C149 O147 1.214 . S
O150 Cd142 2.277 . S
O150 C145 1.209 . S
C151 O148 1.258 . S
C151 O153 1.282 . S
O152 Cd144 2.277 . S
O152 C145 1.226 . S
O153 Cd144 2.356 . S
O153 C151 1.282 . S
C154 O155 1.306 1_554 S
C154 O157 1.160 . S
O155 C154 1.306 1_556 S
O155 Cd156 2.228 . S
Cd156 O155 2.228 . S
Cd156 O160 2.273 . S
Cd156 O164 2.277 . S
O157 C154 1.160 . S
O157 Cd158 2.203 . S
Cd158 O157 2.203 . S
Cd158 O160 2.411 1_554 S
Cd158 O161 2.333 . S
Cd158 O162 2.352 . S
Cd158 O166 2.277 . S
Cd158 O167 2.356 . S
C159 O164 1.209 1_554 S
C159 O166 1.226 . S
O160 Cd156 2.273 . S
O160 Cd158 2.411 1_556 S
O160 C163 1.320 . S
O161 Cd158 2.333 . S
O161 C163 1.214 1_554 S
O162 Cd158 2.352 . S
O162 C165 1.258 . S
C163 O160 1.320 . S
C163 O161 1.214 1_556 S
O164 Cd156 2.277 . S
O164 C159 1.209 1_556 S
C165 O162 1.258 . S
C165 O167 1.282 . S
O166 Cd158 2.277 . S
O166 C159 1.226 . S
O167 Cd158 2.356 . S
O167 C165 1.282 . S
C168 C169 1.387 . S
C168 H172 0.950 . S
C168 C177 1.390 . S
C169 C168 1.387 . S
C169 C171 1.387 . S
H170 C177 0.950 . S
C171 C169 1.387 . S
C171 C173 1.390 . S
C171 H175 0.950 . S
H172 C168 0.950 . S
C173 C171 1.390 . S
C173 C174 1.387 . S
C173 H176 0.950 . S
C174 C173 1.387 . S
C174 C177 1.387 . S
H175 C171 0.950 . S
H176 C173 0.950 . S
C177 C168 1.390 . S
C177 H170 0.950 . S
C177 C174 1.387 . S
C178 C179 1.387 . S
C178 H182 0.950 . S
C178 C187 1.390 1_655 S
C179 C178 1.387 . S
C179 C181 1.387 . S
H180 C187 0.950 . S
C181 C179 1.387 . S
C181 C183 1.390 1_655 S
C181 H185 0.950 . S
H182 C178 0.950 . S
C183 C181 1.390 1_455 S
C183 C184 1.387 . S
C183 H186 0.950 . S
C184 C183 1.387 . S
C184 C187 1.387 . S
H185 C181 0.950 . S
H186 C183 0.950 . S
C187 C178 1.390 1_455 S
C187 H180 0.950 . S
C187 C184 1.387 . S
C188 C189 1.387 . S
C188 H192 0.950 . S
C188 C197 1.390 1_566 S
C189 C188 1.387 . S
C189 C191 1.387 . S
H190 C197 0.950 . S
C191 C189 1.387 . S
C191 C193 1.390 1_566 S
C191 H195 0.950 . S
H192 C188 0.950 . S
C193 C191 1.390 1_544 S
C193 C194 1.387 . S
C193 H196 0.950 . S
C194 C193 1.387 . S
C194 C197 1.387 . S
H195 C191 0.950 . S
H196 C193 0.950 . S
C197 C188 1.390 1_544 S
C197 H190 0.950 . S
C197 C194 1.387 . S
C198 C199 1.387 . S
C198 H202 0.950 . S
C198 C207 1.390 . S
C199 C198 1.387 . S
C199 C201 1.387 . S
H200 C207 0.950 . S
C201 C199 1.387 . S
C201 C203 1.390 . S
C201 H205 0.950 . S
H202 C198 0.950 . S
C203 C201 1.390 . S
C203 C204 1.387 . S
C203 H206 0.950 . S
C204 C203 1.387 . S
C204 C207 1.387 . S
H205 C201 0.950 . S
H206 C203 0.950 . S
C207 C198 1.390 . S
C207 H200 0.950 . S
C207 C204 1.387 . S
C208 C209 1.387 . S
C208 H212 0.950 . S
C208 C217 1.390 1_655 S
C209 C208 1.387 . S
C209 C211 1.387 . S
H210 C217 0.950 . S
C211 C209 1.387 . S
C211 C213 1.390 1_655 S
C211 H215 0.950 . S
H212 C208 0.950 . S
C213 C211 1.390 1_455 S
C213 C214 1.387 . S
C213 H216 0.950 . S
C214 C213 1.387 . S
C214 C217 1.387 . S
H215 C211 0.950 . S
H216 C213 0.950 . S
C217 C208 1.390 1_455 S
C217 H210 0.950 . S
C217 C214 1.387 . S
C218 C219 1.387 . S
C218 H222 0.950 . S
C218 C227 1.390 1_564 S
C219 C218 1.387 . S
C219 C221 1.387 . S
H220 C227 0.950 . S
C221 C219 1.387 . S
C221 C223 1.390 1_564 S
C221 H225 0.950 . S
H222 C218 0.950 . S
C223 C221 1.390 1_546 S
C223 C224 1.387 . S
C223 H226 0.950 . S
C224 C223 1.387 . S
C224 C227 1.387 . S
H225 C221 0.950 . S
H226 C223 0.950 . S
C227 C218 1.390 1_546 S
C227 H220 0.950 . S
C227 C224 1.387 . S
C228 C229 1.387 . S
C228 H232 0.950 . S
C228 C237 1.390 1_556 S
C229 C228 1.387 . S
C229 C231 1.387 . S
H230 C237 0.950 . S
C231 C229 1.387 . S
C231 C233 1.390 1_556 S
C231 H235 0.950 . S
H232 C228 0.950 . S
C233 C231 1.390 1_554 S
C233 C234 1.387 . S
C233 H236 0.950 . S
C234 C233 1.387 . S
C234 C237 1.387 . S
H235 C231 0.950 . S
H236 C233 0.950 . S
C237 C228 1.390 1_554 S
C237 H230 0.950 . S
C237 C234 1.387 . S
C238 C239 1.387 . S
C238 H242 0.950 . S
C238 C247 1.390 . S
C239 C238 1.387 . S
C239 C241 1.387 . S
H240 C247 0.950 . S
C241 C239 1.387 . S
C241 C243 1.390 . S
C241 H245 0.950 . S
H242 C238 0.950 . S
C243 C241 1.390 . S
C243 C244 1.387 . S
C243 H246 0.950 . S
C244 C243 1.387 . S
C244 C247 1.387 . S
H245 C241 0.950 . S
H246 C243 0.950 . S
C247 C238 1.390 . S
C247 H240 0.950 . S
C247 C244 1.387 . S
C248 C249 1.387 . S
C248 H252 0.950 . S
C248 C257 1.390 . S
C249 C248 1.387 . S
C249 C251 1.387 . S
H250 C257 0.950 . S
C251 C249 1.387 . S
C251 C253 1.390 . S
C251 H255 0.950 . S
H252 C248 0.950 . S
C253 C251 1.390 . S
C253 C254 1.387 . S
C253 H256 0.950 . S
C254 C253 1.387 . S
C254 C257 1.387 . S
H255 C251 0.950 . S
H256 C253 0.950 . S
C257 C248 1.390 . S
C257 H250 0.950 . S
C257 C254 1.387 . S
C258 C259 1.387 . S
C258 H262 0.950 . S
C258 C267 1.390 1_554 S
C259 C258 1.387 . S
C259 C261 1.387 . S
H260 C267 0.950 . S
C261 C259 1.387 . S
C261 C263 1.390 1_554 S
C261 H265 0.950 . S
H262 C258 0.950 . S
C263 C261 1.390 1_556 S
C263 C264 1.387 . S
C263 H266 0.950 . S
C264 C263 1.387 . S
C264 C267 1.387 . S
H265 C261 0.950 . S
H266 C263 0.950 . S
C267 C258 1.390 1_556 S
C267 H260 0.950 . S
C267 C264 1.387 . S
C268 C269 1.387 . S
C268 H272 0.950 . S
C268 C277 1.390 . S
C269 C268 1.387 . S
C269 C271 1.387 . S
H270 C277 0.950 . S
C271 C269 1.387 . S
C271 C273 1.390 . S
C271 H275 0.950 . S
H272 C268 0.950 . S
C273 C271 1.390 . S
C273 C274 1.387 . S
C273 H276 0.950 . S
C274 C273 1.387 . S
C274 C277 1.387 . S
H275 C271 0.950 . S
H276 C273 0.950 . S
C277 C268 1.390 . S
C277 H270 0.950 . S
C277 C274 1.387 . S
C278 C279 1.387 . S
C278 H282 0.950 . S
C278 C287 1.390 . S
C279 C278 1.387 . S
C279 C281 1.387 . S
H280 C287 0.950 . S
C281 C279 1.387 . S
C281 C283 1.390 . S
C281 H285 0.950 . S
H282 C278 0.950 . S
C283 C281 1.390 . S
C283 C284 1.387 . S
C283 H286 0.950 . S
C284 C283 1.387 . S
C284 C287 1.387 . S
H285 C281 0.950 . S
H286 C283 0.950 . S
C287 C278 1.390 . S
C287 H280 0.950 . S
C287 C284 1.387 . S
C288 C289 1.387 . S
C288 H292 0.950 . S
C288 C297 1.390 . S
C289 C288 1.387 . S
C289 C291 1.387 . S
H290 C297 0.950 . S
C291 C289 1.387 . S
C291 C293 1.390 . S
C291 H295 0.950 . S
H292 C288 0.950 . S
C293 C291 1.390 . S
C293 C294 1.387 . S
C293 H296 0.950 . S
C294 C293 1.387 . S
C294 C297 1.387 . S
H295 C291 0.950 . S
H296 C293 0.950 . S
C297 C288 1.390 . S
C297 H290 0.950 . S
C297 C294 1.387 . S
C298 C299 1.387 . S
C298 H302 0.950 . S
C298 C307 1.390 . S
C299 C298 1.387 . S
C299 C301 1.387 . S
H300 C307 0.950 . S
C301 C299 1.387 . S
C301 C303 1.390 . S
C301 H305 0.950 . S
H302 C298 0.950 . S
C303 C301 1.390 . S
C303 C304 1.387 . S
C303 H306 0.950 . S
C304 C303 1.387 . S
C304 C307 1.387 . S
H305 C301 0.950 . S
H306 C303 0.950 . S
C307 C298 1.390 . S
C307 H300 0.950 . S
C307 C304 1.387 . S
C308 C309 1.387 . S
C308 H312 0.950 . S
C308 C317 1.390 . S
C309 C308 1.387 . S
C309 C311 1.387 . S
H310 C317 0.950 . S
C311 C309 1.387 . S
C311 C313 1.390 . S
C311 H315 0.950 . S
H312 C308 0.950 . S
C313 C311 1.390 . S
C313 C314 1.387 . S
C313 H316 0.950 . S
C314 C313 1.387 . S
C314 C317 1.387 . S
H315 C311 0.950 . S
H316 C313 0.950 . S
C317 C308 1.390 . S
C317 H310 0.950 . S
C317 C314 1.387 . S
C318 C319 1.387 . S
C318 H322 0.950 . S
C318 C327 1.390 . S
C319 C318 1.387 . S
C319 C321 1.387 . S
H320 C327 0.950 . S
C321 C319 1.387 . S
C321 C323 1.390 . S
C321 H325 0.950 . S
H322 C318 0.950 . S
C323 C321 1.390 . S
C323 C324 1.387 . S
C323 H326 0.950 . S
C324 C323 1.387 . S
C324 C327 1.387 . S
H325 C321 0.950 . S
H326 C323 0.950 . S
C327 C318 1.390 . S
C327 H320 0.950 . S
C327 C324 1.387 . S
C328 C329 1.387 . S
C328 H332 0.950 . S
C328 C337 1.390 . S
C329 C328 1.387 . S
C329 C331 1.387 . S
H330 C337 0.950 . S
C331 C329 1.387 . S
C331 C333 1.390 . S
C331 H335 0.950 . S
H332 C328 0.950 . S
C333 C331 1.390 . S
C333 C334 1.387 . S
C333 H336 0.950 . S
C334 C333 1.387 . S
C334 C337 1.387 . S
H335 C331 0.950 . S
H336 C333 0.950 . S
C337 C328 1.390 . S
C337 H330 0.950 . S
C337 C334 1.387 . S
C338 C339 1.387 . S
C338 H342 0.950 . S
C338 C347 1.390 . S
C339 C338 1.387 . S
C339 C341 1.387 . S
H340 C347 0.950 . S
C341 C339 1.387 . S
C341 C343 1.390 . S
C341 H345 0.950 . S
H342 C338 0.950 . S
C343 C341 1.390 . S
C343 C344 1.387 . S
C343 H346 0.950 . S
C344 C343 1.387 . S
C344 C347 1.387 . S
H345 C341 0.950 . S
H346 C343 0.950 . S
C347 C338 1.390 . S
C347 H340 0.950 . S
C347 C344 1.387 . S
C348 C349 1.387 . S
C348 H352 0.950 . S
C348 C357 1.390 . S
C349 C348 1.387 . S
C349 C351 1.387 . S
H350 C357 0.950 . S
C351 C349 1.387 . S
C351 C353 1.390 . S
C351 H355 0.950 . S
H352 C348 0.950 . S
C353 C351 1.390 . S
C353 C354 1.387 . S
C353 H356 0.950 . S
C354 C353 1.387 . S
C354 C357 1.387 . S
H355 C351 0.950 . S
H356 C353 0.950 . S
C357 C348 1.390 . S
C357 H350 0.950 . S
C357 C354 1.387 . S
C358 C359 1.387 . S
C358 H362 0.950 . S
C358 C367 1.390 . S
C359 C358 1.387 . S
C359 C361 1.387 . S
H360 C367 0.950 . S
C361 C359 1.387 . S
C361 C363 1.390 . S
C361 H365 0.950 . S
H362 C358 0.950 . S
C363 C361 1.390 . S
C363 C364 1.387 . S
C363 H366 0.950 . S
C364 C363 1.387 . S
C364 C367 1.387 . S
H365 C361 0.950 . S
H366 C363 0.950 . S
C367 C358 1.390 . S
C367 H360 0.950 . S
C367 C364 1.387 . S
C368 C369 1.388 . S
C368 H372 0.950 . S
C368 C377 1.390 1_554 S
C369 C368 1.388 . S
C369 C371 1.388 . S
H370 C377 0.950 . S
C371 C369 1.388 . S
C371 C373 1.390 1_554 S
C371 H375 0.950 . S
H372 C368 0.950 . S
C373 C371 1.390 1_556 S
C373 C374 1.388 . S
C373 H376 0.950 . S
C374 C373 1.388 . S
C374 C377 1.388 . S
H375 C371 0.950 . S
H376 C373 0.950 . S
C377 C368 1.390 1_556 S
C377 H370 0.950 . S
C377 C374 1.388 . S
C378 C379 1.387 . S
C378 H382 0.950 . S
C378 C387 1.390 . S
C379 C378 1.387 . S
C379 C381 1.387 . S
H380 C387 0.950 . S
C381 C379 1.387 . S
C381 C383 1.390 . S
C381 H385 0.950 . S
H382 C378 0.950 . S
C383 C381 1.390 . S
C383 C384 1.387 . S
C383 H386 0.950 . S
C384 C383 1.387 . S
C384 C387 1.387 . S
H385 C381 0.950 . S
H386 C383 0.950 . S
C387 C378 1.390 . S
C387 H380 0.950 . S
C387 C384 1.387 . S
C388 C389 1.387 . S
C388 H392 0.950 . S
C388 C397 1.390 . S
C389 C388 1.387 . S
C389 C391 1.387 . S
H390 C397 0.950 . S
C391 C389 1.387 . S
C391 C393 1.390 . S
C391 H395 0.950 . S
H392 C388 0.950 . S
C393 C391 1.390 . S
C393 C394 1.387 . S
C393 H396 0.950 . S
C394 C393 1.387 . S
C394 C397 1.387 . S
H395 C391 0.950 . S
H396 C393 0.950 . S
C397 C388 1.390 . S
C397 H390 0.950 . S
C397 C394 1.387 . S
C398 C399 1.388 . S
C398 H402 0.950 . S
C398 C407 1.390 1_556 S
C399 C398 1.388 . S
C399 C401 1.388 . S
H400 C407 0.950 . S
C401 C399 1.388 . S
C401 C403 1.390 1_556 S
C401 H405 0.950 . S
H402 C398 0.950 . S
C403 C401 1.390 1_554 S
C403 C404 1.388 . S
C403 H406 0.950 . S
C404 C403 1.388 . S
C404 C407 1.388 . S
H405 C401 0.950 . S
H406 C403 0.950 . S
C407 C398 1.390 1_554 S
C407 H400 0.950 . S
C407 C404 1.388 . S
C169 C0 1.434 . S
C174 C126 1.435 . S
C179 C14 1.435 . S
C184 C140 1.434 . S
C189 C28 1.435 . S
C194 C154 1.435 . S
C199 C42 1.432 . S
C204 C84 1.431 . S
C209 C98 1.433 . S
C214 C56 1.434 . S
C219 C112 1.435 . S
C224 C70 1.435 . S
C229 C151 1.700 . S
C234 C11 1.700 . S
C239 C25 1.698 . S
C244 C165 1.700 . S
C249 C39 1.700 . S
C254 C95 1.698 . S
C259 C53 1.700 . S
C264 C109 1.700 . S
C269 C67 1.700 . S
C274 C123 1.699 . S
C279 C81 1.700 . S
C284 C137 1.698 . S
C289 C149 1.141 . S
C294 C9 1.141 . S
C299 C23 1.140 . S
C304 C163 1.141 . S
C309 C37 1.140 . S
C314 C93 1.141 . S
C319 C51 1.141 . S
C324 C107 1.141 . S
C329 C65 1.141 . S
C334 C121 1.140 . S
C339 C79 1.140 . S
C344 C135 1.141 . S
C349 C5 1.629 . S
C354 C89 1.629 . S
C359 C103 1.629 . S
C364 C19 1.629 . S
C369 C33 1.628 1_554 S
C374 C117 1.628 1_556 S
C379 C47 1.629 . S
C384 C131 1.629 . S
C389 C61 1.629 . S
C394 C145 1.629 . S
C399 C159 1.628 1_556 S
C404 C75 1.628 1_554 S
