# Generated by pormake.
# Topology lhb, (8)-cn, num edge types: 1
# Building blocks:
#     Node 0, Type 0, BuildingBlock: GIZVER_clean_sbu_0, # of connection points: 8
#     Node 1, Type 0, BuildingBlock: GIZVER_clean_sbu_0, # of connection points: 8
#     Node 2, Type 0, BuildingBlock: GIZVER_clean_sbu_0, # of connection points: 8
#     Node 3, Type 0, BuildingBlock: GIZVER_clean_sbu_0, # of connection points: 8
#     Node 4, Type 0, BuildingBlock: GIZVER_clean_sbu_0, # of connection points: 8
#     Node 5, Type 0, BuildingBlock: GIZVER_clean_sbu_0, # of connection points: 8
#     Node 6, Type 0, BuildingBlock: GIZVER_clean_sbu_0, # of connection points: 8
#     Node 7, Type 0, BuildingBlock: GIZVER_clean_sbu_0, # of connection points: 8
#     Edge 8, Type (0, 0), BuildingBlock: EZIPEK_clean_linker_0, # of connection points: 2
#     Edge 9, Type (0, 0), BuildingBlock: EZIPEK_clean_linker_0, # of connection points: 2
#     Edge 10, Type (0, 0), BuildingBlock: EZIPEK_clean_linker_0, # of connection points: 2
#     Edge 11, Type (0, 0), BuildingBlock: EZIPEK_clean_linker_0, # of connection points: 2
#     Edge 12, Type (0, 0), BuildingBlock: EZIPEK_clean_linker_0, # of connection points: 2
#     Edge 13, Type (0, 0), BuildingBlock: EZIPEK_clean_linker_0, # of connection points: 2
#     Edge 14, Type (0, 0), BuildingBlock: EZIPEK_clean_linker_0, # of connection points: 2
#     Edge 15, Type (0, 0), BuildingBlock: EZIPEK_clean_linker_0, # of connection points: 2
#     Edge 16, Type (0, 0), BuildingBlock: EZIPEK_clean_linker_0, # of connection points: 2
#     Edge 17, Type (0, 0), BuildingBlock: EZIPEK_clean_linker_0, # of connection points: 2
#     Edge 18, Type (0, 0), BuildingBlock: EZIPEK_clean_linker_0, # of connection points: 2
#     Edge 19, Type (0, 0), BuildingBlock: EZIPEK_clean_linker_0, # of connection points: 2
#     Edge 20, Type (0, 0), BuildingBlock: EZIPEK_clean_linker_0, # of connection points: 2
#     Edge 21, Type (0, 0), BuildingBlock: EZIPEK_clean_linker_0, # of connection points: 2
#     Edge 22, Type (0, 0), BuildingBlock: EZIPEK_clean_linker_0, # of connection points: 2
#     Edge 23, Type (0, 0), BuildingBlock: EZIPEK_clean_linker_0, # of connection points: 2
#     Edge 24, Type (0, 0), BuildingBlock: EZIPEK_clean_linker_0, # of connection points: 2
#     Edge 25, Type (0, 0), BuildingBlock: EZIPEK_clean_linker_0, # of connection points: 2
#     Edge 26, Type (0, 0), BuildingBlock: EZIPEK_clean_linker_0, # of connection points: 2
#     Edge 27, Type (0, 0), BuildingBlock: EZIPEK_clean_linker_0, # of connection points: 2
#     Edge 28, Type (0, 0), BuildingBlock: EZIPEK_clean_linker_0, # of connection points: 2
#     Edge 29, Type (0, 0), BuildingBlock: EZIPEK_clean_linker_0, # of connection points: 2
#     Edge 30, Type (0, 0), BuildingBlock: EZIPEK_clean_linker_0, # of connection points: 2
#     Edge 31, Type (0, 0), BuildingBlock: EZIPEK_clean_linker_0, # of connection points: 2
#     Edge 32, Type (0, 0), BuildingBlock: EZIPEK_clean_linker_0, # of connection points: 2
#     Edge 33, Type (0, 0), BuildingBlock: EZIPEK_clean_linker_0, # of connection points: 2
#     Edge 34, Type (0, 0), BuildingBlock: EZIPEK_clean_linker_0, # of connection points: 2
#     Edge 35, Type (0, 0), BuildingBlock: EZIPEK_clean_linker_0, # of connection points: 2
#     Edge 36, Type (0, 0), BuildingBlock: EZIPEK_clean_linker_0, # of connection points: 2
#     Edge 37, Type (0, 0), BuildingBlock: EZIPEK_clean_linker_0, # of connection points: 2
#     Edge 38, Type (0, 0), BuildingBlock: EZIPEK_clean_linker_0, # of connection points: 2
#     Edge 39, Type (0, 0), BuildingBlock: EZIPEK_clean_linker_0, # of connection points: 2
# Relax obj value: 0.082
# Max RMSD: 0.172
# Mean RMSD: 0.172
data_MOF--net-lhb--node1-GIZVER_clean_sbu_0--edge1-EZIPEK_clean_linker_0
_symmetry_space_group_name_H-M    P1
_symmetry_Int_Tables_number       1
_symmetry_cell_setting            triclinic
loop_
_symmetry_equiv_pos_as_xyz
'x, y, z'
_cell_length_a     18.76233
_cell_length_b     11.021942
_cell_length_c     60.047585
_cell_angle_alpha  96.451822
_cell_angle_beta   90.239555
_cell_angle_gamma 89.725129
loop_
_atom_site_label
_atom_site_type_symbol
_atom_site_fract_x
_atom_site_fract_y
_atom_site_fract_z
_atom_type_partial_charge
Co0 Co 0.07243 0.02657 0.99103 0.0
Co1 Co 0.94813 0.11209 0.9989 0.0
Co2 Co 0.00464 0.03349 0.04469 0.0
O3 O -0.00045 0.99767 1.01149 0.0
H4 H 0.97845 0.91933 1.00695 0.0
O5 O 0.0057 0.06652 0.07835 0.0
Co6 Co 0.94031 0.98021 0.0959 0.0
Co7 Co 0.07246 0.96017 0.08708 0.0
H8 H 0.01357 0.15048 0.08428 0.0
O9 O 0.89484 0.0729 0.97474 0.0
O10 O 0.00888 0.1448 0.97632 0.0
O11 O 0.92504 0.26018 1.01623 0.0
O12 O 0.98893 0.21668 0.04515 0.0
O13 O 0.90224 0.99751 0.04597 0.0
O14 O 0.87956 0.90739 0.11091 0.0
O15 O 0.93782 0.07825 0.12309 0.0
O16 O 0.92445 0.86571 0.07055 0.0
O17 O 0.0241 0.85231 0.04388 0.0
O18 O 0.11101 0.82522 0.0675 0.0
O19 O 0.02823 0.89918 0.11064 0.0
O20 O 0.12567 0.02293 0.10854 0.0
C21 C 0.10484 0.9453 0.95996 0.0
C22 C 0.13314 0.143 1.03164 0.0
C23 C 0.95756 0.29444 1.03415 0.0
C24 C 0.94793 0.12498 0.9657 0.0
C25 C 0.89422 0.9896 0.12702 0.0
C26 C 0.88438 0.90505 0.05557 0.0
C27 C 0.06756 0.78219 0.05268 0.0
C28 C 0.08636 0.95453 0.11981 0.0
O29 O 0.13928 0.03828 0.97004 0.0
O30 O 0.04854 0.90492 0.96943 0.0
O31 O 0.10734 0.06598 0.04358 0.0
O32 O 0.10987 0.15506 1.01194 0.0
Co33 Co 0.29464 0.2321 0.34817 0.0
Co34 Co 0.15909 0.21514 0.333 0.0
Co35 Co 0.24694 0.27462 0.29401 0.0
O36 O 0.23658 0.31624 0.32743 0.0
H37 H 0.2358 0.4021 0.33264 0.0
O38 O 0.2633 0.23184 0.26137 0.0
Co39 Co 0.19455 0.24089 0.23827 0.0
Co40 Co 0.30935 0.35115 0.24842 0.0
H41 H 0.29096 0.15746 0.25871 0.0
O42 O 0.09767 0.27019 0.3538 0.0
O43 O 0.20099 0.16222 0.35747 0.0
O44 O 0.13318 0.07232 0.31363 0.0
O45 O 0.23012 0.09452 0.29372 0.0
O46 O 0.14311 0.30289 0.28947 0.0
O47 O 0.1322 0.23145 0.21506 0.0
O48 O 0.22694 0.11105 0.2198 0.0
O49 O 0.14562 0.37569 0.25632 0.0
O50 O 0.2604 0.45558 0.29348 0.0
O51 O 0.3127 0.50998 0.26312 0.0
O52 O 0.26009 0.35491 0.22215 0.0
O53 O 0.37816 0.31584 0.2293 0.0
C54 C 0.32666 0.24083 0.38143 0.0
C55 C 0.36537 0.16082 0.31183 0.0
C56 C 0.18195 0.02806 0.3008 0.0
C57 C 0.14627 0.22689 0.36628 0.0
C58 C 0.17102 0.13642 0.2081 0.0
C59 C 0.11821 0.37346 0.2759 0.0
C60 C 0.28166 0.53667 0.28153 0.0
C61 C 0.32803 0.34808 0.21604 0.0
O62 O 0.34481 0.15366 0.36649 0.0
O63 O 0.28918 0.33256 0.37523 0.0
O64 O 0.34821 0.24314 0.29939 0.0
O65 O 0.31767 0.11883 0.32397 0.0
Co66 Co 0.80924 0.75311 0.34705 0.0
Co67 Co 0.67216 0.76219 0.33436 0.0
Co68 Co 0.75423 0.82043 0.29465 0.0
O69 O 0.75374 0.85305 0.32815 0.0
H70 H 0.75178 0.93794 0.33413 0.0
O71 O 0.75707 0.77819 0.26116 0.0
Co72 Co 0.68022 0.77253 0.23982 0.0
Co73 Co 0.77946 0.90825 0.24752 0.0
H74 H 0.78478 0.70566 0.25698 0.0
O75 O 0.61663 0.82515 0.3561 0.0
O76 O 0.71168 0.69507 0.35801 0.0
O77 O 0.63269 0.6321 0.31385 0.0
O78 O 0.73 0.64482 0.29415 0.0
O79 O 0.65208 0.86437 0.29352 0.0
O80 O 0.61168 0.75541 0.21902 0.0
O81 O 0.71397 0.64892 0.21988 0.0
O82 O 0.63212 0.89858 0.25781 0.0
O83 O 0.77893 1.00102 0.29591 0.0
O84 O 0.75362 0.05497 0.26242 0.0
O85 O 0.73013 0.8936 0.222 0.0
O86 O 0.85126 0.90242 0.22865 0.0
C87 C 0.84368 0.75114 0.37988 0.0
C88 C 0.87159 0.67691 0.30489 0.0
C89 C 0.67975 0.58233 0.30101 0.0
C90 C 0.66068 0.76678 0.3679 0.0
C91 C 0.65488 0.67293 0.20955 0.0
C92 C 0.61661 0.91234 0.27858 0.0
C93 C 0.76093 0.08146 0.28318 0.0
C94 C 0.79627 0.90781 0.21547 0.0
O95 O 0.85588 0.66291 0.36444 0.0
O96 O 0.80961 0.84844 0.37462 0.0
O97 O 0.85539 0.77387 0.29632 0.0
O98 O 0.83174 0.6397 0.32034 0.0
Co99 Co 0.06283 0.49889 0.4886 0.0
Co100 Co 0.93867 0.58319 0.49797 0.0
Co101 Co 0.00274 0.50304 0.54252 0.0
O102 O 0.9925 0.46914 0.50965 0.0
H103 H 0.97201 0.39035 0.50521 0.0
O104 O 0.01196 0.5368 0.5756 0.0
Co105 Co 0.94926 0.46022 0.59558 0.0
Co106 Co 0.08476 0.42492 0.58192 0.0
H107 H 0.0241 0.62045 0.58052 0.0
O108 O 0.88514 0.54775 0.47354 0.0
O109 O -0.00168 0.62285 0.47542 0.0
O110 O 0.91138 0.72392 0.51708 0.0
O111 O 0.98881 0.68559 0.54313 0.0
O112 O 0.89939 0.47026 0.54569 0.0
O113 O 0.89467 0.39148 0.6138 0.0
O114 O 0.95779 0.56325 0.62191 0.0
O115 O 0.92217 0.34259 0.57106 0.0
O116 O 0.01773 0.32136 0.54174 0.0
O117 O 0.11019 0.28158 0.56233 0.0
O118 O 0.0396 0.37975 0.60653 0.0
O119 O 0.14703 0.47288 0.60297 0.0
C120 C 0.08928 0.42001 0.45761 0.0
C121 C 0.13198 0.60956 0.52813 0.0
C122 C 0.94884 0.76006 0.53395 0.0
C123 C 0.93732 0.60347 0.46476 0.0
C124 C 0.91663 0.47772 0.6284 0.0
C125 C 0.88091 0.38063 0.55615 0.0
C126 C 0.06056 0.24548 0.54914 0.0
C127 C 0.09647 0.43798 0.61553 0.0
O128 O 0.12651 0.51041 0.46731 0.0
O129 O 0.03335 0.38168 0.46749 0.0
O130 O 0.10606 0.53185 0.53997 0.0
O131 O 0.10643 0.62288 0.50884 0.0
Co132 Co 0.30834 0.7428 0.84574 0.0
Co133 Co 0.17363 0.71138 0.83476 0.0
Co134 Co 0.24987 0.77717 0.79199 0.0
O135 O 0.24308 0.81725 0.82558 0.0
H136 H 0.23107 0.90142 0.83025 0.0
O137 O 0.26071 0.73874 0.75856 0.0
Co138 Co 0.1889 0.75067 0.73608 0.0
Co139 Co 0.30735 0.85516 0.74452 0.0
H140 H 0.28671 0.66295 0.75532 0.0
O141 O 0.11479 0.77161 0.85656 0.0
O142 O 0.22133 0.67417 0.85972 0.0
O143 O 0.15189 0.56112 0.81713 0.0
O144 O 0.22912 0.59703 0.79112 0.0
O145 O 0.14735 0.81446 0.78946 0.0
O146 O 0.12547 0.74324 0.71358 0.0
O147 O 0.22642 0.6335 0.71559 0.0
O148 O 0.13681 0.8706 0.75501 0.0
O149 O 0.2682 0.95826 0.79253 0.0
O150 O 0.32327 1.00551 0.76225 0.0
O151 O 0.24247 0.8878 0.72291 0.0
O152 O 0.35808 0.82944 0.71841 0.0
C153 C 0.35439 0.77135 0.87755 0.0
C154 C 0.36784 0.64788 0.80724 0.0
C155 C 0.18912 0.52365 0.8003 0.0
C156 C 0.16688 0.7381 0.86889 0.0
C157 C 0.16721 0.65507 0.70519 0.0
C158 C 0.11743 0.87668 0.77543 0.0
C159 C 0.29727 0.03683 0.78137 0.0
C160 C 0.30418 0.89482 0.71286 0.0
O161 O 0.36398 0.67449 0.86376 0.0
O162 O 0.31193 0.8565 0.8712 0.0
O163 O 0.35121 0.73445 0.79561 0.0
O164 O 0.32486 0.61812 0.82227 0.0
Co165 Co 0.81288 0.25059 0.84829 0.0
Co166 Co 0.67675 0.23476 0.83481 0.0
Co167 Co 0.76213 0.30249 0.79545 0.0
O168 O 0.75299 0.33784 0.82867 0.0
H169 H 0.74458 0.42295 0.83361 0.0
O170 O 0.77405 0.2649 0.76262 0.0
Co171 Co 0.70225 0.29006 0.74117 0.0
Co172 Co 0.82398 0.37897 0.75008 0.0
H173 H 0.7978 0.18723 0.75899 0.0
O174 O 0.61671 0.29224 0.85626 0.0
O175 O 0.71995 0.18391 0.85926 0.0
O176 O 0.65279 0.08831 0.81597 0.0
O177 O 0.74144 0.12231 0.79377 0.0
O178 O 0.65981 0.34016 0.79217 0.0
O179 O 0.63707 0.29834 0.71981 0.0
O180 O 0.72691 0.16268 0.72102 0.0
O181 O 0.66294 0.42413 0.76019 0.0
O182 O 0.78097 0.485 0.79666 0.0
O183 O 0.83843 0.53098 0.76675 0.0
O184 O 0.76774 0.40203 0.72592 0.0
O185 O 0.88344 0.33543 0.72769 0.0
C186 C 0.84999 0.25861 0.88074 0.0
C187 C 0.87869 0.17054 0.81077 0.0
C188 C 0.69793 0.04913 0.80143 0.0
C189 C 0.66634 0.25006 0.86849 0.0
C190 C 0.67096 0.20176 0.71092 0.0
C191 C 0.63416 0.41224 0.77904 0.0
C192 C 0.81117 0.56329 0.78562 0.0
C193 C 0.83105 0.38063 0.71692 0.0
O194 O 0.86458 0.16987 0.8657 0.0
O195 O 0.81268 0.3518 0.87513 0.0
O196 O 0.86348 0.25925 0.7995 0.0
O197 O 0.83119 0.13473 0.82374 0.0
Co198 Co 0.54686 1.01343 0.49176 0.0
Co199 Co 0.42286 0.09581 0.50115 0.0
Co200 Co 0.48819 1.0206 0.54707 0.0
O201 O 0.47582 0.98097 0.51372 0.0
H202 H 0.45408 0.90193 0.51003 0.0
O203 O 0.49908 0.06307 0.5803 0.0
Co204 Co 0.43526 1.00497 0.60178 0.0
Co205 Co 0.56437 0.95244 0.58978 0.0
H206 H 0.51216 0.14659 0.5848 0.0
O207 O 0.36611 0.05543 0.47749 0.0
O208 O 0.47983 0.12846 0.47759 0.0
O209 O 0.40329 0.24563 0.51849 0.0
O210 O 0.46746 0.20158 0.54743 0.0
O211 O 0.38723 0.97774 0.55191 0.0
O212 O 0.37746 0.95432 0.62192 0.0
O213 O 0.4384 0.13004 0.62505 0.0
O214 O 0.41495 0.87158 0.58011 0.0
O215 O 0.50827 0.83955 0.54626 0.0
O216 O 0.57896 0.79726 0.57368 0.0
O217 O 0.52178 0.93239 0.61624 0.0
O218 O 0.63067 1.01148 0.60847 0.0
C219 C 0.57801 0.93283 0.46002 0.0
C220 C 0.61422 0.13444 0.53094 0.0
C221 C 0.43365 0.27866 0.5369 0.0
C222 C 0.41765 0.10765 0.46774 0.0
C223 C 0.39307 0.057 0.63344 0.0
C224 C 0.37147 0.89579 0.56469 0.0
C225 C 0.54383 0.76264 0.55626 0.0
C226 C 0.5818 0.9889 0.62275 0.0
O227 O 0.61072 0.02755 0.47009 0.0
O228 O 0.52332 0.88914 0.46995 0.0
O229 O 0.59094 0.05784 0.5435 0.0
O230 O 0.58524 0.14625 0.51198 0.0
Co231 Co 0.56315 0.52839 0.98961 0.0
Co232 Co 0.43679 0.61114 0.99705 0.0
Co233 Co 0.5034 0.53321 0.04333 0.0
O234 O 0.49041 0.49703 1.01008 0.0
H235 H 0.46989 0.41748 1.00606 0.0
O236 O 0.51191 0.56781 0.07682 0.0
Co237 Co 0.45562 0.47615 0.09677 0.0
Co238 Co 0.59236 0.46967 0.08284 0.0
H239 H 0.51531 0.6534 0.08214 0.0
O240 O 0.37955 0.57502 0.97273 0.0
O241 O 0.49574 0.63624 0.9731 0.0
O242 O 0.42356 0.76619 1.01414 0.0
O243 O 0.48412 0.71498 0.04363 0.0
O244 O 0.40327 0.48894 0.04734 0.0
O245 O 0.40751 0.39156 0.1148 0.0
O246 O 0.45692 0.57529 0.1238 0.0
O247 O 0.43605 0.36012 0.07175 0.0
O248 O 0.52746 0.35431 0.04235 0.0
O249 O 0.61858 0.3231 0.06438 0.0
O250 O 0.55156 0.41463 0.10716 0.0
O251 O 0.65209 0.52808 0.10449 0.0
C252 C 0.59985 0.44566 0.95949 0.0
C253 C 0.62514 0.6536 1.02861 0.0
C254 C 0.45822 0.79523 1.03199 0.0
C255 C 0.43323 0.62159 0.96309 0.0
C256 C 0.42294 0.4802 0.12982 0.0
C257 C 0.39174 0.3946 0.05733 0.0
C258 C 0.57185 0.28299 0.05037 0.0
C259 C 0.60456 0.48115 0.11662 0.0
O260 O 0.63065 0.54219 0.96949 0.0
O261 O 0.54424 0.40089 0.96873 0.0
O262 O 0.60499 0.57173 0.04036 0.0
O263 O 0.59677 0.66475 1.00958 0.0
C264 C 0.18498 0.97673 0.14816 0.0
C265 C 0.11268 0.94755 0.14348 0.0
C266 C 0.08506 1.00322 0.18322 0.0
C267 C 0.15299 0.06038 0.18647 0.0
N268 N 0.26737 0.10343 0.17092 0.0
N269 N 0.01402 0.8564 0.15965 0.0
C270 C 0.20366 0.04461 0.16882 0.0
C271 C 0.06727 0.93956 0.16183 0.0
N272 N 0.23585 0.93621 0.13287 0.0
N273 N 0.03707 1.01089 0.20036 0.0
H274 H 0.00766 0.79885 0.14479 0.0
H275 H 0.98586 0.83128 0.17331 0.0
H276 H 0.0496 0.04892 0.21659 0.0
H277 H 0.98415 0.98362 0.19811 0.0
H278 H 0.29037 0.94486 0.136 0.0
H279 H 0.22291 0.88069 0.11816 0.0
H280 H 0.30276 0.10679 0.15768 0.0
H281 H 0.28136 0.15905 0.18533 0.0
C282 C 0.84026 0.07161 0.16466 0.0
C283 C 0.86429 0.97109 0.14954 0.0
C284 C 0.83044 0.82928 0.1768 0.0
C285 C 0.81087 0.92978 0.19217 0.0
N286 N 0.80143 0.14664 0.20235 0.0
N287 N 0.86635 0.748 0.1401 0.0
C288 C 0.8164 0.05101 0.18649 0.0
C289 C 0.85323 0.8486 0.15509 0.0
N290 N 0.83457 0.18495 0.15758 0.0
N291 N 0.835 0.71508 0.18372 0.0
H292 H 0.90416 0.74323 0.12743 0.0
H293 H 0.84065 0.66497 0.14097 0.0
H294 H 0.82177 0.69633 0.19978 0.0
H295 H 0.85848 0.64022 0.17437 0.0
H296 H 0.81117 0.25966 0.16696 0.0
H297 H 0.84618 0.20234 0.14131 0.0
H298 H 0.81316 0.23724 0.20058 0.0
H299 H 0.78059 0.13464 0.21804 0.0
C300 C 0.11417 0.44734 0.41776 0.0
C301 C 0.10773 0.36788 0.4346 0.0
C302 C 0.12833 0.19118 0.40663 0.0
C303 C 0.14213 0.27177 0.39039 0.0
N304 N 0.15973 0.47857 0.38147 0.0
N305 N 0.12163 0.16597 0.44614 0.0
C306 C 0.13897 0.40038 0.39634 0.0
C307 C 0.11865 0.2401 0.42938 0.0
N308 N 0.09248 0.56654 0.42169 0.0
N309 N 0.12021 0.06917 0.40019 0.0
H310 H 0.11604 0.19875 0.46302 0.0
H311 H 0.13624 0.07419 0.44345 0.0
H312 H 0.12609 0.03065 0.38362 0.0
H313 H 0.10279 1.00783 0.41097 0.0
H314 H 0.08698 0.62369 0.40909 0.0
H315 H 0.07291 0.60592 0.43702 0.0
H316 H 0.16692 0.57187 0.38588 0.0
H317 H 0.17636 0.44936 0.36525 0.0
C318 C 0.90902 0.80578 0.41701 0.0
C319 C 0.86325 0.72739 0.40313 0.0
C320 C 0.88732 0.56322 0.4265 0.0
C321 C 0.92373 0.64517 0.44231 0.0
N322 N 0.96515 0.85084 0.45348 0.0
N323 N 0.79535 0.5398 0.39852 0.0
C324 C 0.93383 0.76847 0.43783 0.0
C325 C 0.84824 0.60893 0.40914 0.0
N326 N 0.93117 0.91301 0.41001 0.0
N327 N 0.89171 0.44021 0.42764 0.0
H328 H 0.76378 0.57014 0.386 0.0
H329 H 0.77785 0.45826 0.40387 0.0
H330 H 0.9229 0.40255 0.43956 0.0
H331 H 0.87147 0.37578 0.41521 0.0
H332 H 0.97065 0.9675 0.41817 0.0
H333 H 0.91361 0.94344 0.3951 0.0
H334 H 0.9666 0.9442 0.45215 0.0
H335 H 0.98615 0.8275 0.46848 0.0
C336 C 0.10882 0.41298 0.65726 0.0
C337 C 0.10208 0.48836 0.63963 0.0
C338 C 0.15513 0.6561 0.66402 0.0
C339 C 0.1503 0.59002 0.68264 0.0
N340 N 0.11503 0.40544 0.6976 0.0
N341 N 0.10411 0.6939 0.62883 0.0
C342 C 0.12438 0.46821 0.67953 0.0
C343 C 0.11955 0.61409 0.64401 0.0
N344 N 0.1058 0.2892 0.65261 0.0
N345 N 0.19957 0.75336 0.66467 0.0
H346 H 0.07745 0.66792 0.61385 0.0
H347 H 0.11165 0.78788 0.63231 0.0
H348 H 0.23334 0.77539 0.67827 0.0
H349 H 0.21067 0.79732 0.65059 0.0
H350 H 0.11672 0.22989 0.66452 0.0
H351 H 0.09794 0.24636 0.6364 0.0
H352 H 0.09034 0.32044 0.69648 0.0
H353 H 0.12772 0.44276 0.71387 0.0
C354 C 0.87083 0.31435 0.67831 0.0
C355 C 0.84641 0.40995 0.69401 0.0
C356 C 0.86848 0.55745 0.66691 0.0
C357 C 0.90024 0.46277 0.65219 0.0
N358 N 0.94588 0.2547 0.64678 0.0
N359 N 0.83049 0.62588 0.7049 0.0
C360 C 0.90559 0.3425 0.65879 0.0
C361 C 0.84742 0.53274 0.6888 0.0
N362 N 0.85934 0.19543 0.68176 0.0
N363 N 0.85529 0.66873 0.65976 0.0
H364 H 0.81341 0.61119 0.72086 0.0
H365 H 0.83805 0.71761 0.70292 0.0
H366 H 0.86981 0.69013 0.64394 0.0
H367 H 0.82515 0.73662 0.66886 0.0
H368 H 0.86774 0.1222 0.66948 0.0
H369 H 0.83467 0.17034 0.69604 0.0
H370 H 0.95821 0.17099 0.6524 0.0
H371 H 0.97381 0.26913 0.63245 0.0
C372 C 0.1605 0.71279 0.91048 0.0
C373 C 0.16487 0.78925 0.89304 0.0
C374 C 0.12867 0.96621 0.91937 0.0
C375 C 0.12719 0.8913 0.93709 0.0
N376 N 0.15565 0.69885 0.95058 0.0
N377 N 0.16988 0.99368 0.88223 0.0
C378 C 0.14727 0.76604 0.93296 0.0
C379 C 0.15408 0.91741 0.89797 0.0
N380 N 0.16536 0.58908 0.90546 0.0
N381 N 0.1026 0.08294 0.92258 0.0
H382 H 0.18895 0.96246 0.86635 0.0
H383 H 0.1713 0.08841 0.88564 0.0
H384 H 0.08465 0.1242 0.93798 0.0
H385 H 0.09298 0.13578 0.90954 0.0
H386 H 0.15397 0.52747 0.91689 0.0
H387 H 0.1763 0.54758 0.88937 0.0
H388 H 0.17698 0.61092 0.94899 0.0
H389 H 0.1471 0.73508 0.96716 0.0
C390 C 0.85777 0.12034 0.91048 0.0
C391 C 0.8707 0.23871 0.90401 0.0
C392 C 0.94532 0.28408 0.93768 0.0
C393 C 0.9353 0.16216 0.94292 0.0
N394 N 0.9042 0.95541 0.92945 0.0
N395 N 0.93797 0.4254 0.90934 0.0
C396 C 0.89855 0.07777 0.92773 0.0
C397 C 0.91752 0.31897 0.91706 0.0
N398 N 0.80552 0.04796 0.9003 0.0
N399 N 0.98006 0.36711 0.95236 0.0
H400 H 0.91754 0.45449 0.89466 0.0
H401 H 0.97858 0.48065 0.91663 0.0
H402 H 0.00529 0.34427 0.96676 0.0
H403 H 0.98161 0.46003 0.95065 0.0
H404 H 0.78925 0.9668 0.90609 0.0
H405 H 0.77338 0.0748 0.88764 0.0
H406 H 0.88388 0.8888 0.91742 0.0
H407 H 0.93645 0.92052 0.94144 0.0
C408 C 0.64619 0.21516 0.67034 0.0
C409 C 0.64801 0.14348 0.68854 0.0
C410 C 0.60039 0.96814 0.66397 0.0
C411 C 0.59513 0.04204 0.64621 0.0
N412 N 0.597 0.24374 0.63408 0.0
N413 N 0.62137 0.95033 0.70268 0.0
C414 C 0.61389 0.16767 0.64985 0.0
C415 C 0.62375 1.02041 0.68543 0.0
N416 N 0.67776 0.32744 0.67228 0.0
N417 N 0.58361 0.84709 0.66056 0.0
H418 H 0.63569 0.98099 0.71915 0.0
H419 H 0.63569 0.98099 0.71915 0.0
H420 H 0.56683 0.80408 0.64509 0.0
H421 H 0.58754 0.7899 0.67325 0.0
H422 H 0.68678 0.37639 0.65871 0.0
H423 H 0.70095 0.36748 0.68705 0.0
H424 H 0.60169 0.33837 0.63677 0.0
H425 H 0.57067 0.21412 0.61916 0.0
C426 C 0.28805 0.04834 0.6591 0.0
C427 C 0.36056 0.07978 0.65631 0.0
C428 C 0.38511 0.04253 0.6949 0.0
C429 C 0.31698 0.98589 0.6961 0.0
N430 N 0.19381 1.01056 0.685 0.0
N431 N 0.46413 0.16581 0.67537 0.0
C432 C 0.26471 1.01346 0.68011 0.0
C433 C 0.40449 0.09636 0.67545 0.0
N434 N 0.24216 0.04948 0.64142 0.0
N435 N 0.4319 0.0517 0.71238 0.0
H436 H 0.47509 0.21667 0.66219 0.0
H437 H 0.49734 0.18209 0.68936 0.0
H438 H 0.42106 0.02346 0.72801 0.0
H439 H 0.42106 0.02346 0.72801 0.0
H440 H 0.19073 1.01424 0.64125 0.0
H441 H 0.25716 0.08336 0.62657 0.0
H442 H 0.15392 0.03441 0.67421 0.0
H443 H 0.17467 0.99807 0.70079 0.0
C444 C 0.63474 0.26564 0.93161 0.0
C445 C 0.62522 0.39374 0.93686 0.0
C446 C 0.6645 0.42392 0.89897 0.0
C447 C 0.66351 0.29525 0.89279 0.0
N448 N 0.63589 0.09451 0.90247 0.0
N449 N 0.62221 0.59495 0.92415 0.0
C450 C 0.64592 0.21604 0.90894 0.0
C451 C 0.63904 0.47325 0.92031 0.0
N452 N 0.63602 0.19173 0.94838 0.0
N453 N 0.68804 0.50005 0.88412 0.0
H454 H 0.59675 0.63505 0.93849 0.0
H455 H 0.62518 0.65529 0.91205 0.0
H456 H 0.70164 0.46976 0.86769 0.0
H457 H 0.70007 0.59172 0.88858 0.0
H458 H 0.64882 0.09914 0.94576 0.0
H459 H 0.63253 0.22615 0.96523 0.0
H460 H 0.61514 0.03492 0.91306 0.0
H461 H 0.64353 0.0551 0.88602 0.0
C462 C 0.37911 0.78622 0.94163 0.0
C463 C 0.41922 0.67577 0.94175 0.0
C464 C 0.44187 0.67849 0.902 0.0
C465 C 0.38854 0.76943 0.90041 0.0
N466 N 0.31418 0.92528 0.92003 0.0
N467 N 0.47116 0.50079 0.9201 0.0
C468 C 0.35959 0.82885 0.92066 0.0
C469 C 0.44606 0.61764 0.92142 0.0
N470 N 0.36067 0.85099 0.96153 0.0
N471 N 0.48857 0.64991 0.88481 0.0
H472 H 0.4704 0.44998 0.93372 0.0
H473 H 0.48536 0.45122 0.90493 0.0
H474 H 0.4909 0.70054 0.87113 0.0
H475 H 0.52948 0.58604 0.88549 0.0
H476 H 0.33759 0.93753 0.96288 0.0
H477 H 0.37312 0.82147 0.97696 0.0
H478 H 0.2835 0.96135 0.9336 0.0
H479 H 0.30797 0.97086 0.90589 0.0
C480 C 0.60388 0.65109 0.14769 0.0
C481 C 0.60805 0.52325 0.14108 0.0
C482 C 0.63829 0.49079 0.17993 0.0
C483 C 0.63986 0.61933 0.186 0.0
N484 N 0.63902 0.82175 0.17387 0.0
N485 N 0.64488 0.32431 0.14981 0.0
C486 C 0.62624 0.69932 0.16944 0.0
C487 C 0.62934 0.44354 0.15691 0.0
N488 N 0.57867 0.72797 0.13307 0.0
N489 N 0.64319 0.41373 0.19616 0.0
H490 H 0.63902 0.28716 0.13314 0.0
H491 H 0.66822 0.26496 0.16007 0.0
H492 H 0.64856 0.44502 0.21312 0.0
H493 H 0.63551 0.31981 0.19303 0.0
H494 H 0.56451 0.81859 0.13791 0.0
H495 H 0.56583 0.6994 0.11646 0.0
H496 H 0.64086 0.88094 0.16153 0.0
H497 H 0.65468 0.86388 0.1894 0.0
C498 C 0.33524 0.50389 0.18778 0.0
C499 C 0.35201 0.38595 0.1941 0.0
C500 C 0.42953 0.34842 0.16128 0.0
C501 C 0.407 0.46039 0.1535 0.0
N502 N 0.33068 0.63775 0.15827 0.0
N503 N 0.4201 0.19774 0.18692 0.0
C504 C 0.35813 0.53679 0.16656 0.0
C505 C 0.40084 0.30992 0.18096 0.0
N506 N 0.3019 0.58795 0.20267 0.0
N507 N 0.47743 0.27205 0.14986 0.0
H508 H 0.39725 0.15792 0.20008 0.0
H509 H 0.45705 0.14063 0.17794 0.0
H510 H 0.50284 0.2887 0.13524 0.0
H511 H 0.50284 0.2887 0.13524 0.0
H512 H 0.29465 0.67903 0.20004 0.0
H513 H 0.28862 0.57029 0.21878 0.0
H514 H 0.28814 0.68827 0.16559 0.0
H515 H 0.34714 0.66628 0.14314 0.0
C516 C 0.61548 0.96749 0.42101 0.0
C517 C 0.60091 0.88354 0.43667 0.0
C518 C 0.63113 0.71467 0.40738 0.0
C519 C 0.65369 0.8001 0.39281 0.0
N520 N 0.68049 1.01037 0.38824 0.0
N521 N 0.60793 0.67566 0.44573 0.0
C522 C 0.65076 0.92698 0.40061 0.0
C523 C 0.61257 0.75645 0.43016 0.0
N524 N 0.59088 0.08505 0.42472 0.0
N525 N 0.62328 0.59484 0.39922 0.0
H526 H 0.5959 0.70236 0.4625 0.0
H527 H 0.62244 0.58405 0.4424 0.0
H528 H 0.63587 0.56171 0.38275 0.0
H529 H 0.59949 0.5308 0.4083 0.0
H530 H 0.59334 0.14634 0.41274 0.0
H531 H 0.55999 0.11723 0.43853 0.0
H532 H 0.68686 0.10205 0.39433 0.0
H533 H 0.70457 0.98646 0.37276 0.0
C534 C 0.37086 0.05975 0.42917 0.0
C535 C 0.40196 0.14676 0.44528 0.0
C536 C 0.3823 0.3053 0.41986 0.0
C537 C 0.34332 0.22007 0.40509 0.0
N538 N 0.28597 0.02218 0.39925 0.0
N539 N 0.42899 0.35813 0.45747 0.0
C540 C 0.33308 0.09944 0.41093 0.0
C541 C 0.40564 0.27142 0.44107 0.0
N542 N 0.37921 0.9378 0.43089 0.0
N543 N 0.39975 0.41612 0.41336 0.0
H544 H 0.44744 0.33731 0.47297 0.0
H545 H 0.42539 0.45149 0.45624 0.0
H546 H 0.38287 0.44433 0.3982 0.0
H547 H 0.43504 0.47622 0.42227 0.0
H548 H 0.36402 0.87003 0.41827 0.0
H549 H 0.40852 0.90468 0.44373 0.0
H550 H 0.27101 0.93872 0.40437 0.0
H551 H 0.25596 0.04656 0.38587 0.0
C552 C 0.03443 0.58021 0.06664 0.0
C553 C 0.05326 0.64824 0.04863 0.0
C554 C 0.99026 0.50078 1.02222 0.0
C555 C 0.97504 0.42751 0.0397 0.0
N556 N 0.96241 0.41748 0.07915 0.0
N557 N 0.06774 0.65223 1.00905 0.0
C558 C 0.99187 0.47286 0.06213 0.0
C559 C 0.03745 0.60072 1.02637 0.0
N560 N 0.05926 0.61444 0.08784 0.0
N561 N 0.95443 0.4843 1.00229 0.0
H562 H 0.10334 0.72505 1.0117 0.0
H563 H 0.0639 0.61419 0.9924 0.0
H564 H 0.90953 0.42975 0.99958 0.0
H565 H 0.96075 0.5416 0.9898 0.0
H566 H 0.05257 0.56307 0.10118 0.0
H567 H 0.09404 0.68645 0.09193 0.0
H568 H 0.96595 0.45083 0.09602 0.0
H569 H 0.92708 0.34455 0.07614 0.0
C570 C 0.25741 0.72098 0.3088 0.0
C571 C 0.25325 0.66192 0.28667 0.0
C572 C 0.19109 0.83921 0.27445 0.0
C573 C 0.1922 0.89526 0.29673 0.0
N574 N 0.20723 0.8747 0.33617 0.0
N575 N 0.19279 0.64989 0.25054 0.0
C576 C 0.21895 0.83123 0.3143 0.0
C577 C 0.21356 0.71653 0.27002 0.0
N578 N 0.2998 0.67409 0.32435 0.0
N579 N 0.16872 0.90317 0.25745 0.0
H580 H 0.20438 0.55794 0.24663 0.0
H581 H 0.15728 0.68272 0.23922 0.0
H582 H 0.1466 0.99063 0.26022 0.0
H583 H 0.17582 0.8717 0.24056 0.0
H584 H 0.30962 0.71907 0.34025 0.0
H585 H 0.331 0.59591 0.32064 0.0
H586 H 0.22068 0.82661 0.34957 0.0
H587 H 0.17593 0.95113 0.34087 0.0
C588 C 0.76609 0.2973 0.27697 0.0
C589 C 0.74777 0.21067 0.29162 0.0
C590 C 0.68042 0.37008 0.3143 0.0
C591 C 0.68842 0.44817 0.29701 0.0
N592 N 0.71931 0.46258 0.2584 0.0
N593 N 0.67112 0.16074 0.32176 0.0
C594 C 0.72468 0.40361 0.27715 0.0
C595 C 0.70073 0.24554 0.30976 0.0
N596 N 0.82239 0.27723 0.26268 0.0
N597 N 0.65588 0.41228 0.33514 0.0
H598 H 0.68062 0.06785 0.3184 0.0
H599 H 0.63065 0.18201 0.33342 0.0
H600 H 0.63771 0.50032 0.33984 0.0
H601 H 0.65833 0.3598 0.34854 0.0
H602 H 0.83924 0.34204 0.25249 0.0
H603 H 0.85628 0.20196 0.26297 0.0
H604 H 0.74232 0.42866 0.24316 0.0
H605 H 0.68499 0.53685 0.2576 0.0
C606 C 0.96563 0.97016 0.52233 0.0
C607 C 0.96102 0.89392 0.5398 0.0
C608 C 0.02441 0.04992 0.56481 0.0
C609 C 0.03928 0.11474 0.54599 0.0
N610 N 0.03724 0.11832 0.50597 0.0
N611 N 0.97658 0.86837 0.57871 0.0
C612 C 0.01418 0.06845 0.52447 0.0
C613 C 0.98752 0.93657 0.56139 0.0
N614 N 0.92099 0.95416 0.50426 0.0
N615 N 0.04249 0.09768 0.58607 0.0
H616 H 0.94024 0.79644 0.57753 0.0
H617 H 0.00371 0.88137 0.59395 0.0
H618 H 0.07732 0.16979 0.58977 0.0
H619 H 0.02204 0.06638 0.60045 0.0
H620 H 0.92135 1.0108 0.4915 0.0
H621 H 0.87613 0.89874 0.50375 0.0
H622 H 0.02544 0.08083 0.48966 0.0
H623 H 0.07449 0.18884 0.50696 0.0
C624 C 0.28385 0.25318 0.77177 0.0
C625 C 0.28239 0.16979 0.78816 0.0
C626 C 0.20212 0.30826 0.81114 0.0
C627 C 0.20221 0.38981 0.79432 0.0
N628 N 0.22095 0.41332 0.75545 0.0
N629 N 0.26619 0.14734 0.82711 0.0
C630 C 0.23623 0.35358 0.77363 0.0
C631 C 0.24872 0.2056 0.80894 0.0
N632 N 0.33549 0.24424 0.75573 0.0
N633 N 0.15456 0.32291 0.8284 0.0
H634 H 0.3065 0.08139 0.8264 0.0
H635 H 0.24855 0.17585 0.8433 0.0
H636 H 0.11264 0.38529 0.8291 0.0
H637 H 0.14925 0.26017 0.84003 0.0
H638 H 0.34167 0.30815 0.74435 0.0
H639 H 0.37904 0.18579 0.75633 0.0
H640 H 0.23971 0.3843 0.73941 0.0
H641 H 0.18247 0.48241 0.75606 0.0
C642 C 0.79922 0.77856 0.7754 0.0
C643 C 0.79705 0.69696 0.79207 0.0
C644 C 0.71757 0.83931 0.81467 0.0
C645 C 0.71532 0.91589 0.79696 0.0
N646 N 0.73624 0.93442 0.75798 0.0
N647 N 0.78117 0.67841 0.8311 0.0
C648 C 0.75079 0.87766 0.77657 0.0
C649 C 0.76387 0.73573 0.81279 0.0
N650 N 0.85145 0.76845 0.75953 0.0
N651 N 0.67258 0.8593 0.83256 0.0
H652 H 0.82037 0.61054 0.8304 0.0
H653 H 0.76463 0.70858 0.84732 0.0
H654 H 0.63155 0.92317 0.83365 0.0
H655 H 0.66845 0.80014 0.84484 0.0
H656 H 0.85835 0.83221 0.74815 0.0
H657 H 0.89435 0.70836 0.75997 0.0
H658 H 0.75583 0.90336 0.74212 0.0
H659 H 0.69784 1.00336 0.75806 0.0
C660 C 0.49562 0.59351 0.52936 0.0
C661 C 0.52737 0.62978 0.55049 0.0
C662 C 0.47599 0.44928 0.5649 0.0
C663 C 0.44645 0.41206 0.54355 0.0
N664 N 0.39832 0.48532 0.51008 0.0
N665 N 0.56715 0.56629 0.58593 0.0
C666 C 0.44754 0.49432 0.52698 0.0
C667 C 0.52294 0.55077 0.56771 0.0
N668 N 0.51396 0.65102 0.51123 0.0
N669 N 0.45602 0.39046 0.58271 0.0
H670 H 0.6123 0.621 0.58651 0.0
H671 H 0.56668 0.51045 0.5988 0.0
H672 H 0.41755 0.32182 0.58111 0.0
H673 H 0.47024 0.4192 0.59924 0.0
H674 H 0.49697 0.62146 0.49498 0.0
H675 H 0.55322 0.71826 0.51216 0.0
H676 H 0.39364 0.54982 0.49871 0.0
H677 H 0.35517 0.42594 0.50958 0.0
C678 C 0.4866 0.98194 0.05857 0.0
C679 C 0.48625 0.92252 1.03641 0.0
C680 C 0.55128 0.09628 1.02384 0.0
C681 C 0.55674 0.15021 0.04622 0.0
N682 N 0.54511 0.12694 0.08571 0.0
N683 N 0.53609 0.91338 0.99883 0.0
C684 C 0.52949 0.08755 0.06387 0.0
C685 C 0.52321 0.97702 1.01925 0.0
N686 N 0.44432 0.93951 0.07445 0.0
N687 N 0.57194 0.15988 1.00671 0.0
H688 H 0.51878 0.82548 0.99426 0.0
H689 H 0.57051 0.9436 0.98706 0.0
H690 H 0.59939 0.24245 1.00925 0.0
H691 H 0.55744 0.13388 0.99009 0.0
H692 H 0.43659 0.9863 0.09033 0.0
H693 H 0.41108 0.86407 0.07097 0.0
H694 H 0.53157 0.07845 0.09899 0.0
H695 H 0.57932 0.199 0.09047 0.0
C696 C 0.26424 0.35674 0.06406 0.0
C697 C 0.32693 0.32398 0.05176 0.0
C698 C 0.26322 0.16532 1.02794 0.0
C699 C 0.19964 0.20341 0.03918 0.0
N700 N 0.14088 0.31315 0.07108 0.0
N701 N 0.38481 0.21087 1.01997 0.0
C702 C 0.20038 0.29285 0.05818 0.0
C703 C 0.3263 0.23145 1.03326 0.0
N704 N 0.26516 0.45317 0.08059 0.0
N705 N 0.26415 0.06135 1.0131 0.0
H706 H 0.43231 0.25606 1.02337 0.0
H707 H 0.38478 0.15665 1.00461 0.0
H708 H 0.21905 1.00844 1.009 0.0
H709 H 0.31073 1.02002 1.00656 0.0
H710 H 0.2197 0.49262 0.08824 0.0
H711 H 0.31152 0.50001 0.08584 0.0
H712 H 0.13973 0.36596 0.08656 0.0
H713 H 0.09311 0.26915 0.06717 0.0
C714 C 0.81697 0.75531 1.02922 0.0
C715 C 0.81812 0.8411 0.04867 0.0
C716 C 0.69182 0.80712 0.05488 0.0
C717 C 0.69068 0.72089 1.03536 0.0
N718 N 0.75524 0.59094 1.00731 0.0
N719 N 0.75475 0.97017 0.07707 0.0
C720 C 0.75385 0.69018 1.02322 0.0
C721 C 0.75506 0.87278 0.06076 0.0
N722 N 0.8758 0.7382 1.01604 0.0
N723 N 0.63363 0.82217 0.06845 0.0
H724 H 0.80019 1.02094 0.08182 0.0
H725 H 0.70858 1.00798 0.08456 0.0
H726 H 0.58617 0.77738 0.06464 0.0
H727 H 0.63387 0.87097 0.08434 0.0
H728 H 0.87405 0.69815 0.9995 0.0
H729 H 0.92539 0.77115 1.02122 0.0
H730 H 0.80143 0.55649 0.99937 0.0
H731 H 0.71144 0.53449 1.00355 0.0
C732 C -6e-05 0.47273 0.26819 0.0
C733 C 0.0558 0.45431 0.28338 0.0
C734 C 0.99045 0.58459 0.31287 0.0
C735 C 0.93793 0.60886 0.29707 0.0
N736 N 0.91807 0.62347 0.25752 0.0
N737 N 0.11077 0.52375 0.31913 0.0
C738 C 0.94939 0.56673 0.27404 0.0
C739 C 0.05242 0.51733 0.30559 0.0
N740 N 0.99374 0.39989 0.24833 0.0
N741 N 0.98432 0.63483 0.33461 0.0
H742 H 0.1587 0.48755 0.31365 0.0
H743 H 0.11464 0.57818 0.33442 0.0
H744 H 0.95046 0.70838 0.33927 0.0
H745 H 0.01308 0.60409 0.34779 0.0
H746 H 0.95104 0.40681 0.23737 0.0
H747 H 0.02599 0.32361 0.24411 0.0
H748 H 0.92711 0.59733 0.24054 0.0
H749 H 0.89704 0.7108 0.26071 0.0
C750 C 0.24643 0.88308 0.5503 0.0
C751 C 0.3048 0.82363 0.55961 0.0
C752 C 0.24945 0.62517 0.54818 0.0
C753 C 0.19337 0.68414 0.5375 0.0
N754 N 0.14377 0.87085 0.526 0.0
N755 N 0.34231 0.64243 0.57619 0.0
C756 C 0.19322 0.81339 0.53789 0.0
C757 C 0.30096 0.69598 0.56122 0.0
N758 N 0.23836 1.00663 0.55527 0.0
N759 N 0.25634 0.5008 0.54466 0.0
H760 H 0.37636 0.68946 0.58772 0.0
H761 H 0.33467 0.5531 0.57974 0.0
H762 H 0.22396 0.44574 0.53361 0.0
H763 H 0.29913 0.45295 0.55053 0.0
H764 H 0.1934 0.0548 0.551 0.0
H765 H 0.2725 0.05894 0.56621 0.0
H766 H 0.15058 0.95979 0.52212 0.0
H767 H 0.09878 0.82899 0.5186 0.0
C768 C 0.75268 0.33829 0.56391 0.0
C769 C 0.81299 0.3159 0.54992 0.0
C770 C 0.74269 0.17626 0.52357 0.0
C771 C 0.68197 0.19971 0.53732 0.0
N772 N 0.6304 0.29145 0.57185 0.0
N773 N 0.86297 0.2284 0.51489 0.0
C774 C 0.6875 0.27727 0.55788 0.0
C775 C 0.80699 0.23974 0.52927 0.0
N776 N 0.75625 0.42518 0.58205 0.0
N777 N 0.74107 0.08455 0.5062 0.0
H778 H 0.91383 0.25459 0.51995 0.0
H779 H 0.858 0.19787 0.4979 0.0
H780 H 0.69745 0.02729 0.50283 0.0
H781 H 0.78503 0.05634 0.49644 0.0
H782 H 0.71265 0.45567 0.5918 0.0
H783 H 0.8023 0.47476 0.58651 0.0
H784 H 0.63366 0.32602 0.58867 0.0
H785 H 0.57983 0.26348 0.56667 0.0
C786 C 0.00197 0.15371 0.79429 0.0
C787 C 0.94539 0.09774 0.80508 0.0
C788 C 0.00052 0.89694 0.79503 0.0
C789 C 0.055 0.95208 0.78338 0.0
N790 N 0.10443 0.13156 0.76972 0.0
N791 N 0.91286 0.92331 0.82431 0.0
C792 C 0.05468 0.08004 0.78227 0.0
C793 C 0.9505 0.97132 0.80796 0.0
N794 N 0.00915 0.27795 0.79754 0.0
N795 N -0.00492 0.77241 0.79307 0.0
H796 H 0.88494 0.97561 0.83684 0.0
H797 H 0.91924 0.83392 0.82806 0.0
H798 H 0.02851 0.7146 0.78283 0.0
H799 H 0.95263 0.72661 0.79941 0.0
H800 H 0.05037 0.32583 0.79106 0.0
H801 H 0.9787 0.33296 0.80919 0.0
H802 H 0.10023 0.22 0.76534 0.0
H803 H 0.14776 0.08417 0.76223 0.0
C804 C 0.50734 0.3992 0.79096 0.0
C805 C 0.56512 0.47248 0.7853 0.0
C806 C 0.49731 0.65745 0.79804 0.0
C807 C 0.4379 0.58491 0.80276 0.0
N808 N 0.39457 0.38511 0.80958 0.0
N809 N 0.61033 0.67085 0.77938 0.0
C810 C 0.44515 0.45538 0.80102 0.0
C811 C 0.55872 0.60136 0.7876 0.0
N812 N 0.50971 0.27553 0.78501 0.0
N813 N 0.4974 0.77961 0.80538 0.0
H814 H 0.65818 0.63546 0.77275 0.0
H815 H 0.60282 0.76256 0.7773 0.0
H816 H 0.45652 0.82219 0.81511 0.0
H817 H 0.54136 0.83588 0.80428 0.0
H818 H 0.46692 0.21739 0.78654 0.0
H819 H 0.55218 0.23144 0.77629 0.0
H820 H 0.40343 0.2946 0.81228 0.0
H821 H 0.34598 0.41719 0.81594 0.0
C822 C 0.54303 0.1023 0.28504 0.0
C823 C 0.55017 0.97506 0.28585 0.0
C824 C 0.44604 0.97468 0.31014 0.0
C825 C 0.43595 0.10065 0.30804 0.0
N826 N 0.49247 0.29085 0.30269 0.0
N827 N 0.50024 0.78488 0.29444 0.0
C828 C 0.48982 0.16657 0.29817 0.0
C829 C 0.49946 0.9098 0.29715 0.0
N830 N 0.58497 0.16118 0.27118 0.0
N831 N 0.40974 0.91898 0.32581 0.0
H832 H 0.53711 0.73422 0.28423 0.0
H833 H 0.45978 0.73196 0.30017 0.0
H834 H 0.3775 0.9656 0.33795 0.0
H835 H 0.4209 0.83042 0.3293 0.0
H836 H 0.57709 0.25183 0.26838 0.0
H837 H 0.62301 0.11664 0.26066 0.0
H838 H 0.53351 0.34394 0.29742 0.0
H839 H 0.45807 0.3391 0.31414 0.0
loop_
_geom_bond_atom_site_label_1
_geom_bond_atom_site_label_2
_geom_bond_distance
_geom_bond_site_symmetry_2
_ccdc_geom_bond_type
Co0 O3 2.044 1_455 S
Co0 O10 2.264 1_455 S
Co0 O29 2.286 . S
Co0 O30 2.069 1_545 S
Co0 O32 2.015 . S
Co1 O3 2.129 . S
Co1 O9 2.073 . S
Co1 O10 2.327 . S
Co1 O11 1.976 . S
Co2 O3 2.086 1_454 S
Co2 O5 2.086 . S
Co2 O12 2.116 1_455 S
Co2 O13 2.141 1_445 S
Co2 O17 2.106 1_544 S
Co2 O31 2.146 . S
O3 Co0 2.044 1_655 S
O3 Co1 2.129 . S
O3 Co2 2.086 1_656 S
O3 H4 0.972 1_545 S
H4 O3 0.972 1_565 S
O5 Co2 2.086 . S
O5 Co6 2.042 1_445 S
O5 Co7 2.121 1_545 S
O5 H8 0.981 . S
Co6 O5 2.042 1_665 S
Co6 O14 2.286 . S
Co6 O15 2.069 1_565 S
Co6 O16 2.015 . S
Co6 O19 2.264 1_655 S
Co7 O5 2.121 1_565 S
Co7 O18 1.976 . S
Co7 O19 2.327 . S
Co7 O20 2.073 . S
H8 O5 0.981 . S
O9 Co1 2.073 . S
O9 C24 1.245 . S
O10 Co0 2.264 1_655 S
O10 Co1 2.327 . S
O10 C24 1.257 . S
O11 Co1 1.976 . S
O11 C23 1.251 1_556 S
O12 Co2 2.116 1_655 S
O12 C23 1.274 . S
O13 Co2 2.141 1_665 S
O13 C26 1.246 . S
O14 Co6 2.286 . S
O14 C25 1.259 1_565 S
O15 Co6 2.069 1_545 S
O15 C25 1.289 . S
O16 Co6 2.015 . S
O16 C26 1.257 . S
O17 Co2 2.106 1_566 S
O17 C27 1.274 1_556 S
O18 Co7 1.976 . S
O18 C27 1.251 . S
O19 Co6 2.264 1_455 S
O19 Co7 2.327 . S
O19 C28 1.257 . S
O20 Co7 2.073 . S
O20 C28 1.245 . S
C21 O29 1.259 1_565 S
C21 O30 1.289 . S
C22 O31 1.246 1_556 S
C22 O32 1.257 . S
C23 O11 1.251 1_554 S
C23 O12 1.274 . S
C24 O9 1.245 . S
C24 O10 1.257 . S
C25 O14 1.259 1_545 S
C25 O15 1.289 . S
C26 O13 1.246 . S
C26 O16 1.257 . S
C27 O17 1.274 1_554 S
C27 O18 1.251 . S
C28 O19 1.257 . S
C28 O20 1.245 . S
O29 Co0 2.286 . S
O29 C21 1.259 1_545 S
O30 Co0 2.069 1_565 S
O30 C21 1.289 . S
O31 Co2 2.146 . S
O31 C22 1.246 1_554 S
O32 Co0 2.015 . S
O32 C22 1.257 . S
Co33 O36 2.042 . S
Co33 O43 2.264 . S
Co33 O62 2.286 . S
Co33 O63 2.069 . S
Co33 O65 2.015 . S
Co34 O36 2.122 . S
Co34 O42 2.073 . S
Co34 O43 2.327 . S
Co34 O44 1.976 1_545 S
Co35 O36 2.087 . S
Co35 O38 2.087 . S
Co35 O45 2.111 . S
Co35 O46 2.143 . S
Co35 O50 2.111 . S
Co35 O64 2.143 . S
O36 Co33 2.042 . S
O36 Co34 2.122 . S
O36 Co35 2.087 . S
O36 H37 0.980 . S
H37 O36 0.980 . S
O38 Co35 2.087 . S
O38 Co39 2.042 . S
O38 Co40 2.122 . S
O38 H41 0.980 . S
Co39 O38 2.042 . S
Co39 O47 2.286 . S
Co39 O48 2.069 . S
Co39 O49 2.015 . S
Co39 O52 2.264 . S
Co40 O38 2.122 . S
Co40 O51 1.976 . S
Co40 O52 2.327 . S
Co40 O53 2.073 . S
H41 O38 0.980 . S
O42 Co34 2.073 . S
O42 C57 1.245 . S
O43 Co33 2.264 . S
O43 Co34 2.327 . S
O43 C57 1.257 . S
O44 Co34 1.976 1_565 S
O44 C56 1.251 . S
O45 Co35 2.111 . S
O45 C56 1.274 1_545 S
O46 Co35 2.143 . S
O46 C59 1.246 . S
O47 Co39 2.286 . S
O47 C58 1.259 . S
O48 Co39 2.069 . S
O48 C58 1.289 . S
O49 Co39 2.015 . S
O49 C59 1.257 . S
O50 Co35 2.111 . S
O50 C60 1.274 . S
O51 Co40 1.976 . S
O51 C60 1.251 . S
O52 Co39 2.264 . S
O52 Co40 2.327 . S
O52 C61 1.257 . S
O53 Co40 2.073 . S
O53 C61 1.245 . S
C54 O62 1.259 . S
C54 O63 1.289 . S
C55 O64 1.246 . S
C55 O65 1.257 . S
C56 O44 1.251 . S
C56 O45 1.274 1_565 S
C57 O42 1.245 . S
C57 O43 1.257 . S
C58 O47 1.259 . S
C58 O48 1.289 . S
C59 O46 1.246 . S
C59 O49 1.257 . S
C60 O50 1.274 . S
C60 O51 1.251 . S
C61 O52 1.257 . S
C61 O53 1.245 . S
O62 Co33 2.286 . S
O62 C54 1.259 . S
O63 Co33 2.069 . S
O63 C54 1.289 . S
O64 Co35 2.143 . S
O64 C55 1.246 . S
O65 Co33 2.015 . S
O65 C55 1.257 . S
Co66 O69 2.042 . S
Co66 O76 2.264 . S
Co66 O95 2.286 . S
Co66 O96 2.069 . S
Co66 O98 2.015 . S
Co67 O69 2.122 . S
Co67 O75 2.073 . S
Co67 O76 2.327 . S
Co67 O77 1.976 . S
Co68 O69 2.087 . S
Co68 O71 2.087 . S
Co68 O78 2.111 . S
Co68 O79 2.143 . S
Co68 O83 2.111 . S
Co68 O97 2.143 . S
O69 Co66 2.042 . S
O69 Co67 2.122 . S
O69 Co68 2.087 . S
O69 H70 0.980 . S
H70 O69 0.980 . S
O71 Co68 2.087 . S
O71 Co72 2.042 . S
O71 Co73 2.122 . S
O71 H74 0.980 . S
Co72 O71 2.042 . S
Co72 O80 2.286 . S
Co72 O81 2.069 . S
Co72 O82 2.015 . S
Co72 O85 2.264 . S
Co73 O71 2.122 . S
Co73 O84 1.976 1_565 S
Co73 O85 2.327 . S
Co73 O86 2.073 . S
H74 O71 0.980 . S
O75 Co67 2.073 . S
O75 C90 1.245 . S
O76 Co66 2.264 . S
O76 Co67 2.327 . S
O76 C90 1.257 . S
O77 Co67 1.976 . S
O77 C89 1.251 . S
O78 Co68 2.111 . S
O78 C89 1.274 . S
O79 Co68 2.143 . S
O79 C92 1.246 . S
O80 Co72 2.286 . S
O80 C91 1.259 . S
O81 Co72 2.069 . S
O81 C91 1.289 . S
O82 Co72 2.015 . S
O82 C92 1.257 . S
O83 Co68 2.111 . S
O83 C93 1.274 1_565 S
O84 Co73 1.976 1_545 S
O84 C93 1.251 . S
O85 Co72 2.264 . S
O85 Co73 2.327 . S
O85 C94 1.257 . S
O86 Co73 2.073 . S
O86 C94 1.245 . S
C87 O95 1.259 . S
C87 O96 1.289 . S
C88 O97 1.246 . S
C88 O98 1.257 . S
C89 O77 1.251 . S
C89 O78 1.274 . S
C90 O75 1.245 . S
C90 O76 1.257 . S
C91 O80 1.259 . S
C91 O81 1.289 . S
C92 O79 1.246 . S
C92 O82 1.257 . S
C93 O83 1.274 1_545 S
C93 O84 1.251 . S
C94 O85 1.257 . S
C94 O86 1.245 . S
O95 Co66 2.286 . S
O95 C87 1.259 . S
O96 Co66 2.069 . S
O96 C87 1.289 . S
O97 Co68 2.143 . S
O97 C88 1.246 . S
O98 Co66 2.015 . S
O98 C88 1.257 . S
Co99 O102 2.042 1_455 S
Co99 O109 2.264 1_455 S
Co99 O128 2.286 . S
Co99 O129 2.069 . S
Co99 O131 2.015 . S
Co100 O102 2.122 . S
Co100 O108 2.073 . S
Co100 O109 2.327 . S
Co100 O110 1.976 . S
Co101 O102 2.087 1_455 S
Co101 O104 2.087 . S
Co101 O111 2.111 1_455 S
Co101 O112 2.143 1_455 S
Co101 O116 2.111 . S
Co101 O130 2.143 . S
O102 Co99 2.042 1_655 S
O102 Co100 2.122 . S
O102 Co101 2.087 1_655 S
O102 H103 0.980 . S
H103 O102 0.980 . S
O104 Co101 2.087 . S
O104 Co105 2.042 1_455 S
O104 Co106 2.122 . S
O104 H107 0.980 . S
Co105 O104 2.042 1_655 S
Co105 O113 2.286 . S
Co105 O114 2.069 . S
Co105 O115 2.015 . S
Co105 O118 2.264 1_655 S
Co106 O104 2.122 . S
Co106 O117 1.976 . S
Co106 O118 2.327 . S
Co106 O119 2.073 . S
H107 O104 0.980 . S
O108 Co100 2.073 . S
O108 C123 1.245 . S
O109 Co99 2.264 1_655 S
O109 Co100 2.327 . S
O109 C123 1.257 . S
O110 Co100 1.976 . S
O110 C122 1.251 . S
O111 Co101 2.111 1_655 S
O111 C122 1.274 . S
O112 Co101 2.143 1_655 S
O112 C125 1.246 . S
O113 Co105 2.286 . S
O113 C124 1.259 . S
O114 Co105 2.069 . S
O114 C124 1.289 . S
O115 Co105 2.015 . S
O115 C125 1.257 . S
O116 Co101 2.111 . S
O116 C126 1.274 . S
O117 Co106 1.976 . S
O117 C126 1.251 . S
O118 Co105 2.264 1_455 S
O118 Co106 2.327 . S
O118 C127 1.257 . S
O119 Co106 2.073 . S
O119 C127 1.245 . S
C120 O128 1.259 . S
C120 O129 1.289 . S
C121 O130 1.246 . S
C121 O131 1.257 . S
C122 O110 1.251 . S
C122 O111 1.274 . S
C123 O108 1.245 . S
C123 O109 1.257 . S
C124 O113 1.259 . S
C124 O114 1.289 . S
C125 O112 1.246 . S
C125 O115 1.257 . S
C126 O116 1.274 . S
C126 O117 1.251 . S
C127 O118 1.257 . S
C127 O119 1.245 . S
O128 Co99 2.286 . S
O128 C120 1.259 . S
O129 Co99 2.069 . S
O129 C120 1.289 . S
O130 Co101 2.143 . S
O130 C121 1.246 . S
O131 Co99 2.015 . S
O131 C121 1.257 . S
Co132 O135 2.042 . S
Co132 O142 2.264 . S
Co132 O161 2.286 . S
Co132 O162 2.069 . S
Co132 O164 2.015 . S
Co133 O135 2.122 . S
Co133 O141 2.073 . S
Co133 O142 2.327 . S
Co133 O143 1.976 . S
Co134 O135 2.087 . S
Co134 O137 2.087 . S
Co134 O144 2.111 . S
Co134 O145 2.143 . S
Co134 O149 2.111 . S
Co134 O163 2.143 . S
O135 Co132 2.042 . S
O135 Co133 2.122 . S
O135 Co134 2.087 . S
O135 H136 0.980 . S
H136 O135 0.980 . S
O137 Co134 2.087 . S
O137 Co138 2.042 . S
O137 Co139 2.122 . S
O137 H140 0.980 . S
Co138 O137 2.042 . S
Co138 O146 2.286 . S
Co138 O147 2.069 . S
Co138 O148 2.015 . S
Co138 O151 2.264 . S
Co139 O137 2.122 . S
Co139 O150 1.976 1_565 S
Co139 O151 2.327 . S
Co139 O152 2.073 . S
H140 O137 0.980 . S
O141 Co133 2.073 . S
O141 C156 1.245 . S
O142 Co132 2.264 . S
O142 Co133 2.327 . S
O142 C156 1.257 . S
O143 Co133 1.976 . S
O143 C155 1.251 . S
O144 Co134 2.111 . S
O144 C155 1.274 . S
O145 Co134 2.143 . S
O145 C158 1.246 . S
O146 Co138 2.286 . S
O146 C157 1.259 . S
O147 Co138 2.069 . S
O147 C157 1.289 . S
O148 Co138 2.015 . S
O148 C158 1.257 . S
O149 Co134 2.111 . S
O149 C159 1.274 1_565 S
O150 Co139 1.976 1_545 S
O150 C159 1.251 . S
O151 Co138 2.264 . S
O151 Co139 2.327 . S
O151 C160 1.257 . S
O152 Co139 2.073 . S
O152 C160 1.245 . S
C153 O161 1.259 . S
C153 O162 1.289 . S
C154 O163 1.246 . S
C154 O164 1.257 . S
C155 O143 1.251 . S
C155 O144 1.274 . S
C156 O141 1.245 . S
C156 O142 1.257 . S
C157 O146 1.259 . S
C157 O147 1.289 . S
C158 O145 1.246 . S
C158 O148 1.257 . S
C159 O149 1.274 1_545 S
C159 O150 1.251 . S
C160 O151 1.257 . S
C160 O152 1.245 . S
O161 Co132 2.286 . S
O161 C153 1.259 . S
O162 Co132 2.069 . S
O162 C153 1.289 . S
O163 Co134 2.143 . S
O163 C154 1.246 . S
O164 Co132 2.015 . S
O164 C154 1.257 . S
Co165 O168 2.042 . S
Co165 O175 2.264 . S
Co165 O194 2.286 . S
Co165 O195 2.069 . S
Co165 O197 2.015 . S
Co166 O168 2.122 . S
Co166 O174 2.073 . S
Co166 O175 2.327 . S
Co166 O176 1.976 1_545 S
Co167 O168 2.087 . S
Co167 O170 2.087 . S
Co167 O177 2.111 . S
Co167 O178 2.143 . S
Co167 O182 2.111 . S
Co167 O196 2.143 . S
O168 Co165 2.042 . S
O168 Co166 2.122 . S
O168 Co167 2.087 . S
O168 H169 0.980 . S
H169 O168 0.980 . S
O170 Co167 2.087 . S
O170 Co171 2.042 . S
O170 Co172 2.122 . S
O170 H173 0.980 . S
Co171 O170 2.042 . S
Co171 O179 2.286 . S
Co171 O180 2.069 . S
Co171 O181 2.015 . S
Co171 O184 2.264 . S
Co172 O170 2.122 . S
Co172 O183 1.976 . S
Co172 O184 2.327 . S
Co172 O185 2.073 . S
H173 O170 0.980 . S
O174 Co166 2.073 . S
O174 C189 1.245 . S
O175 Co165 2.264 . S
O175 Co166 2.327 . S
O175 C189 1.257 . S
O176 Co166 1.976 1_565 S
O176 C188 1.251 . S
O177 Co167 2.111 . S
O177 C188 1.274 1_545 S
O178 Co167 2.143 . S
O178 C191 1.246 . S
O179 Co171 2.286 . S
O179 C190 1.259 . S
O180 Co171 2.069 . S
O180 C190 1.289 . S
O181 Co171 2.015 . S
O181 C191 1.257 . S
O182 Co167 2.111 . S
O182 C192 1.274 . S
O183 Co172 1.976 . S
O183 C192 1.251 . S
O184 Co171 2.264 . S
O184 Co172 2.327 . S
O184 C193 1.257 . S
O185 Co172 2.073 . S
O185 C193 1.245 . S
C186 O194 1.259 . S
C186 O195 1.289 . S
C187 O196 1.246 . S
C187 O197 1.257 . S
C188 O176 1.251 . S
C188 O177 1.274 1_565 S
C189 O174 1.245 . S
C189 O175 1.257 . S
C190 O179 1.259 . S
C190 O180 1.289 . S
C191 O178 1.246 . S
C191 O181 1.257 . S
C192 O182 1.274 . S
C192 O183 1.251 . S
C193 O184 1.257 . S
C193 O185 1.245 . S
O194 Co165 2.286 . S
O194 C186 1.259 . S
O195 Co165 2.069 . S
O195 C186 1.289 . S
O196 Co167 2.143 . S
O196 C187 1.246 . S
O197 Co165 2.015 . S
O197 C187 1.257 . S
Co198 O201 2.044 . S
Co198 O208 2.264 . S
Co198 O227 2.286 . S
Co198 O228 2.069 1_545 S
Co198 O230 2.015 . S
Co199 O201 2.128 . S
Co199 O207 2.073 . S
Co199 O208 2.327 . S
Co199 O209 1.976 . S
Co200 O201 2.086 . S
Co200 O203 2.086 . S
Co200 O210 2.115 . S
Co200 O211 2.142 1_545 S
Co200 O215 2.108 1_545 S
Co200 O229 2.145 . S
O201 Co198 2.044 . S
O201 Co199 2.128 . S
O201 Co200 2.086 . S
O201 H202 0.974 1_545 S
H202 O201 0.974 1_565 S
O203 Co200 2.086 . S
O203 Co204 2.042 1_545 S
O203 Co205 2.122 1_545 S
O203 H206 0.980 . S
Co204 O203 2.042 1_565 S
Co204 O212 2.286 . S
Co204 O213 2.069 1_565 S
Co204 O214 2.015 . S
Co204 O217 2.264 . S
Co205 O203 2.122 1_565 S
Co205 O216 1.976 . S
Co205 O217 2.327 . S
Co205 O218 2.073 . S
H206 O203 0.980 . S
O207 Co199 2.073 . S
O207 C222 1.245 . S
O208 Co198 2.264 . S
O208 Co199 2.327 . S
O208 C222 1.257 . S
O209 Co199 1.976 . S
O209 C221 1.251 . S
O210 Co200 2.115 . S
O210 C221 1.274 . S
O211 Co200 2.142 1_565 S
O211 C224 1.246 . S
O212 Co204 2.286 . S
O212 C223 1.259 1_565 S
O213 Co204 2.069 1_545 S
O213 C223 1.289 . S
O214 Co204 2.015 . S
O214 C224 1.257 . S
O215 Co200 2.108 1_565 S
O215 C225 1.274 . S
O216 Co205 1.976 . S
O216 C225 1.251 . S
O217 Co204 2.264 . S
O217 Co205 2.327 . S
O217 C226 1.257 . S
O218 Co205 2.073 . S
O218 C226 1.245 . S
C219 O227 1.259 1_565 S
C219 O228 1.289 . S
C220 O229 1.246 . S
C220 O230 1.257 . S
C221 O209 1.251 . S
C221 O210 1.274 . S
C222 O207 1.245 . S
C222 O208 1.257 . S
C223 O212 1.259 1_545 S
C223 O213 1.289 . S
C224 O211 1.246 . S
C224 O214 1.257 . S
C225 O215 1.274 . S
C225 O216 1.251 . S
C226 O217 1.257 . S
C226 O218 1.245 . S
O227 Co198 2.286 . S
O227 C219 1.259 1_545 S
O228 Co198 2.069 1_565 S
O228 C219 1.289 . S
O229 Co200 2.145 . S
O229 C220 1.246 . S
O230 Co198 2.015 . S
O230 C220 1.257 . S
Co231 O234 2.042 . S
Co231 O241 2.264 . S
Co231 O260 2.286 . S
Co231 O261 2.069 . S
Co231 O263 2.015 . S
Co232 O234 2.122 . S
Co232 O240 2.073 . S
Co232 O241 2.327 . S
Co232 O242 1.976 . S
Co233 O234 2.087 1_554 S
Co233 O236 2.087 . S
Co233 O243 2.111 . S
Co233 O244 2.143 . S
Co233 O248 2.111 1_554 S
Co233 O262 2.143 . S
O234 Co231 2.042 . S
O234 Co232 2.122 . S
O234 Co233 2.087 1_556 S
O234 H235 0.980 . S
H235 O234 0.980 . S
O236 Co233 2.087 . S
O236 Co237 2.042 . S
O236 Co238 2.122 . S
O236 H239 0.980 . S
Co237 O236 2.042 . S
Co237 O245 2.286 . S
Co237 O246 2.069 . S
Co237 O247 2.015 . S
Co237 O250 2.264 . S
Co238 O236 2.122 . S
Co238 O249 1.976 . S
Co238 O250 2.327 . S
Co238 O251 2.073 . S
H239 O236 0.980 . S
O240 Co232 2.073 . S
O240 C255 1.245 . S
O241 Co231 2.264 . S
O241 Co232 2.327 . S
O241 C255 1.257 . S
O242 Co232 1.976 . S
O242 C254 1.251 1_556 S
O243 Co233 2.111 . S
O243 C254 1.274 . S
O244 Co233 2.143 . S
O244 C257 1.246 . S
O245 Co237 2.286 . S
O245 C256 1.259 . S
O246 Co237 2.069 . S
O246 C256 1.289 . S
O247 Co237 2.015 . S
O247 C257 1.257 . S
O248 Co233 2.111 1_556 S
O248 C258 1.274 1_556 S
O249 Co238 1.976 . S
O249 C258 1.251 . S
O250 Co237 2.264 . S
O250 Co238 2.327 . S
O250 C259 1.257 . S
O251 Co238 2.073 . S
O251 C259 1.245 . S
C252 O260 1.259 . S
C252 O261 1.289 . S
C253 O262 1.246 1_556 S
C253 O263 1.257 . S
C254 O242 1.251 1_554 S
C254 O243 1.274 . S
C255 O240 1.245 . S
C255 O241 1.257 . S
C256 O245 1.259 . S
C256 O246 1.289 . S
C257 O244 1.246 . S
C257 O247 1.257 . S
C258 O248 1.274 1_554 S
C258 O249 1.251 . S
C259 O250 1.257 . S
C259 O251 1.245 . S
O260 Co231 2.286 . S
O260 C252 1.259 . S
O261 Co231 2.069 . S
O261 C252 1.289 . S
O262 Co233 2.143 . S
O262 C253 1.246 1_554 S
O263 Co231 2.015 . S
O263 C253 1.257 . S
C264 C265 1.363 1_545 S
C264 C270 1.379 . S
C264 N272 1.356 1_545 S
C265 C264 1.363 1_565 S
C265 C271 1.363 1_565 S
C266 C267 1.363 . S
C266 C271 1.379 . S
C266 N273 1.356 . S
C267 C266 1.363 . S
C267 C270 1.363 . S
N268 C270 1.356 . S
N268 H280 0.984 . S
N268 H281 0.985 . S
N269 C271 1.356 1_665 S
N269 H274 0.984 . S
N269 H275 0.984 1_565 S
C270 C264 1.379 . S
C270 C267 1.363 . S
C270 N268 1.356 . S
C271 C265 1.363 1_545 S
C271 C266 1.379 . S
C271 N269 1.356 1_445 S
N272 C264 1.356 1_565 S
N272 H278 0.984 . S
N272 H279 0.984 . S
N273 C266 1.356 . S
N273 H276 0.984 . S
N273 H277 0.985 1_455 S
H274 N269 0.984 . S
H275 N269 0.984 1_545 S
H276 N273 0.984 . S
H277 N273 0.985 1_655 S
H278 N272 0.984 . S
H279 N272 0.984 . S
H280 N268 0.984 . S
H281 N268 0.985 . S
C282 C283 1.363 . S
C282 C288 1.379 . S
C282 N290 1.356 . S
C283 C282 1.363 . S
C283 C289 1.363 1_545 S
C284 C285 1.363 . S
C284 C289 1.379 . S
C284 N291 1.356 . S
C285 C284 1.363 . S
C285 C288 1.363 1_565 S
N286 C288 1.356 . S
N286 H298 0.984 . S
N286 H299 0.985 1_545 S
N287 C289 1.356 . S
N287 H292 0.984 . S
N287 H293 0.985 . S
C288 C282 1.379 . S
C288 C285 1.363 1_545 S
C288 N286 1.356 . S
C289 C283 1.363 1_565 S
C289 C284 1.379 . S
C289 N287 1.356 . S
N290 C282 1.356 . S
N290 H296 0.984 . S
N290 H297 0.984 . S
N291 C284 1.356 . S
N291 H294 0.984 . S
N291 H295 0.985 . S
H292 N287 0.984 . S
H293 N287 0.985 . S
H294 N291 0.984 . S
H295 N291 0.985 . S
H296 N290 0.984 . S
H297 N290 0.984 . S
H298 N286 0.984 . S
H299 N286 0.985 1_565 S
C300 C301 1.363 . S
C300 C306 1.379 . S
C300 N308 1.356 . S
C301 C300 1.363 . S
C301 C307 1.363 . S
C302 C303 1.363 . S
C302 C307 1.379 . S
C302 N309 1.356 . S
C303 C302 1.363 . S
C303 C306 1.363 . S
N304 C306 1.356 . S
N304 H316 0.984 . S
N304 H317 0.985 . S
N305 C307 1.356 . S
N305 H310 0.984 . S
N305 H311 0.985 1_455 S
C306 C300 1.379 . S
C306 C303 1.363 . S
C306 N304 1.356 . S
C307 C301 1.363 . S
C307 C302 1.379 . S
C307 N305 1.356 . S
N308 C300 1.356 . S
N308 H314 0.984 . S
N308 H315 0.984 . S
N309 C302 1.356 . S
N309 H312 0.984 . S
N309 H313 0.985 . S
H310 N305 0.984 . S
H311 N305 0.985 1_655 S
H312 N309 0.984 . S
H313 N309 0.985 . S
H314 N308 0.984 . S
H315 N308 0.984 . S
H316 N304 0.984 . S
H317 N304 0.985 . S
C318 C319 1.363 . S
C318 C324 1.379 . S
C318 N326 1.356 . S
C319 C318 1.363 . S
C319 C325 1.363 . S
C320 C321 1.363 . S
C320 C325 1.379 . S
C320 N327 1.356 . S
C321 C320 1.363 . S
C321 C324 1.363 . S
N322 C324 1.356 1_455 S
N322 H334 0.984 . S
N322 H335 0.985 . S
N323 C325 1.356 . S
N323 H328 0.984 . S
N323 H329 0.985 . S
C324 C318 1.379 . S
C324 C321 1.363 . S
C324 N322 1.356 1_655 S
C325 C319 1.363 . S
C325 C320 1.379 . S
C325 N323 1.356 . S
N326 C318 1.356 . S
N326 H332 0.984 1_655 S
N326 H333 0.984 . S
N327 C320 1.356 . S
N327 H330 0.984 . S
N327 H331 0.985 . S
H328 N323 0.984 . S
H329 N323 0.985 . S
H330 N327 0.984 . S
H331 N327 0.985 . S
H332 N326 0.984 1_455 S
H333 N326 0.984 . S
H334 N322 0.984 . S
H335 N322 0.985 . S
C336 C337 1.363 . S
C336 C342 1.379 . S
C336 N344 1.356 1_455 S
C337 C336 1.363 . S
C337 C343 1.363 . S
C338 C339 1.363 . S
C338 C343 1.379 . S
C338 N345 1.356 . S
C339 C338 1.363 . S
C339 C342 1.363 . S
N340 C342 1.356 . S
N340 H352 0.984 . S
N340 H353 0.985 . S
N341 C343 1.356 . S
N341 H346 0.984 . S
N341 H347 0.985 . S
C342 C336 1.379 . S
C342 C339 1.363 . S
C342 N340 1.356 . S
C343 C337 1.363 . S
C343 C338 1.379 . S
C343 N341 1.356 . S
N344 C336 1.356 1_655 S
N344 H350 0.984 . S
N344 H351 0.984 . S
N345 C338 1.356 . S
N345 H348 0.984 . S
N345 H349 0.985 . S
H346 N341 0.984 . S
H347 N341 0.985 . S
H348 N345 0.984 . S
H349 N345 0.985 . S
H350 N344 0.984 . S
H351 N344 0.984 . S
H352 N340 0.984 . S
H353 N340 0.985 . S
C354 C355 1.363 . S
C354 C360 1.379 . S
C354 N362 1.356 . S
C355 C354 1.363 . S
C355 C361 1.363 . S
C356 C357 1.363 . S
C356 C361 1.379 . S
C356 N363 1.356 . S
C357 C356 1.363 . S
C357 C360 1.363 . S
N358 C360 1.356 . S
N358 H370 0.984 . S
N358 H371 0.985 . S
N359 C361 1.356 . S
N359 H364 0.984 . S
N359 H365 0.985 . S
C360 C354 1.379 . S
C360 C357 1.363 . S
C360 N358 1.356 . S
C361 C355 1.363 . S
C361 C356 1.379 . S
C361 N359 1.356 . S
N362 C354 1.356 . S
N362 H368 0.984 . S
N362 H369 0.984 . S
N363 C356 1.356 . S
N363 H366 0.984 . S
N363 H367 0.985 . S
H364 N359 0.984 . S
H365 N359 0.985 . S
H366 N363 0.984 . S
H367 N363 0.985 . S
H368 N362 0.984 . S
H369 N362 0.984 . S
H370 N358 0.984 . S
H371 N358 0.985 . S
C372 C373 1.363 . S
C372 C378 1.379 . S
C372 N380 1.356 . S
C373 C372 1.363 . S
C373 C379 1.363 . S
C374 C375 1.363 . S
C374 C379 1.379 . S
C374 N381 1.356 1_565 S
C375 C374 1.363 . S
C375 C378 1.363 . S
N376 C378 1.356 . S
N376 H388 0.984 . S
N376 H389 0.985 . S
N377 C379 1.356 . S
N377 H382 0.984 . S
N377 H383 0.985 . S
C378 C372 1.379 . S
C378 C375 1.363 . S
C378 N376 1.356 . S
C379 C373 1.363 . S
C379 C374 1.379 . S
C379 N377 1.356 . S
N380 C372 1.356 . S
N380 H386 0.984 . S
N380 H387 0.984 . S
N381 C374 1.356 1_545 S
N381 H384 0.984 . S
N381 H385 0.985 . S
H382 N377 0.984 . S
H383 N377 0.985 . S
H384 N381 0.984 . S
H385 N381 0.985 . S
H386 N380 0.984 . S
H387 N380 0.984 . S
H388 N376 0.984 . S
H389 N376 0.985 . S
C390 C391 1.363 . S
C390 C396 1.379 . S
C390 N398 1.356 . S
C391 C390 1.363 . S
C391 C397 1.363 . S
C392 C393 1.363 . S
C392 C397 1.379 . S
C392 N399 1.356 1_655 S
C393 C392 1.363 . S
C393 C396 1.363 . S
N394 C396 1.356 1_565 S
N394 H406 0.984 . S
N394 H407 0.985 . S
N395 C397 1.356 . S
N395 H400 0.984 . S
N395 H401 0.985 1_655 S
C396 C390 1.379 . S
C396 C393 1.363 . S
C396 N394 1.356 1_545 S
C397 C391 1.363 . S
C397 C392 1.379 . S
C397 N395 1.356 . S
N398 C390 1.356 . S
N398 H404 0.984 . S
N398 H405 0.984 . S
N399 C392 1.356 1_455 S
N399 H402 0.984 . S
N399 H403 0.985 . S
H400 N395 0.984 . S
H401 N395 0.985 1_455 S
H402 N399 0.984 . S
H403 N399 0.985 . S
H404 N398 0.984 . S
H405 N398 0.984 . S
H406 N394 0.984 . S
H407 N394 0.985 . S
C408 C409 1.363 . S
C408 C414 1.379 . S
C408 N416 1.356 . S
C409 C408 1.363 . S
C409 C415 1.363 . S
C410 C411 1.363 . S
C410 C415 1.379 1_565 S
C410 N417 1.356 . S
C411 C410 1.363 . S
C411 C414 1.363 1_565 S
N412 C414 1.356 . S
N412 H424 0.984 . S
N412 H425 0.985 1_545 S
N413 C415 1.356 . S
N413 H418 0.984 . S
N413 H419 0.985 . S
C414 C408 1.379 . S
C414 C411 1.363 1_545 S
C414 N412 1.356 . S
C415 C409 1.363 . S
C415 C410 1.379 1_545 S
C415 N413 1.356 . S
N416 C408 1.356 . S
N416 H422 0.984 . S
N416 H423 0.984 . S
N417 C410 1.356 . S
N417 H420 0.984 . S
N417 H421 0.985 . S
H418 N413 0.984 . S
H419 N413 0.985 . S
H420 N417 0.984 . S
H421 N417 0.985 . S
H422 N416 0.984 . S
H423 N416 0.984 . S
H424 N412 0.984 . S
H425 N412 0.985 1_565 S
C426 C427 1.363 1_565 S
C426 C432 1.379 . S
C426 N434 1.356 1_565 S
C427 C426 1.363 1_545 S
C427 C433 1.363 1_545 S
C428 C429 1.363 . S
C428 C433 1.379 . S
C428 N435 1.356 . S
C429 C428 1.363 . S
C429 C432 1.363 . S
N430 C432 1.356 . S
N430 H442 0.984 . S
N430 H443 0.985 . S
N431 C433 1.356 1_545 S
N431 H436 0.984 . S
N431 H437 0.985 . S
C432 C426 1.379 . S
C432 C429 1.363 . S
C432 N430 1.356 . S
C433 C427 1.363 1_565 S
C433 C428 1.379 . S
C433 N431 1.356 1_565 S
N434 C426 1.356 1_545 S
N434 H440 0.984 1_545 S
N434 H441 0.984 . S
N435 C428 1.356 . S
N435 H438 0.984 . S
N435 H439 0.985 . S
H436 N431 0.984 . S
H437 N431 0.985 . S
H438 N435 0.984 . S
H439 N435 0.985 . S
H440 N434 0.984 1_565 S
H441 N434 0.984 . S
H442 N430 0.984 . S
H443 N430 0.985 . S
C444 C445 1.363 . S
C444 C450 1.379 . S
C444 N452 1.356 . S
C445 C444 1.363 . S
C445 C451 1.363 . S
C446 C447 1.363 . S
C446 C451 1.379 . S
C446 N453 1.356 . S
C447 C446 1.363 . S
C447 C450 1.363 . S
N448 C450 1.356 . S
N448 H460 0.984 1_545 S
N448 H461 0.985 . S
N449 C451 1.356 . S
N449 H454 0.984 . S
N449 H455 0.985 . S
C450 C444 1.379 . S
C450 C447 1.363 . S
C450 N448 1.356 . S
C451 C445 1.363 . S
C451 C446 1.379 . S
C451 N449 1.356 . S
N452 C444 1.356 . S
N452 H458 0.984 . S
N452 H459 0.984 . S
N453 C446 1.356 . S
N453 H456 0.984 . S
N453 H457 0.985 . S
H454 N449 0.984 . S
H455 N449 0.985 . S
H456 N453 0.984 . S
H457 N453 0.985 . S
H458 N452 0.984 . S
H459 N452 0.984 . S
H460 N448 0.984 1_565 S
H461 N448 0.985 . S
C462 C463 1.363 . S
C462 C468 1.379 . S
C462 N470 1.356 . S
C463 C462 1.363 . S
C463 C469 1.363 . S
C464 C465 1.363 . S
C464 C469 1.379 . S
C464 N471 1.356 . S
C465 C464 1.363 . S
C465 C468 1.363 . S
N466 C468 1.356 . S
N466 H478 0.984 . S
N466 H479 0.985 . S
N467 C469 1.356 . S
N467 H472 0.984 . S
N467 H473 0.985 . S
C468 C462 1.379 . S
C468 C465 1.363 . S
C468 N466 1.356 . S
C469 C463 1.363 . S
C469 C464 1.379 . S
C469 N467 1.356 . S
N470 C462 1.356 . S
N470 H476 0.984 . S
N470 H477 0.984 . S
N471 C464 1.356 . S
N471 H474 0.984 . S
N471 H475 0.985 . S
H472 N467 0.984 . S
H473 N467 0.985 . S
H474 N471 0.984 . S
H475 N471 0.985 . S
H476 N470 0.984 . S
H477 N470 0.984 . S
H478 N466 0.984 . S
H479 N466 0.985 . S
C480 C481 1.363 . S
C480 C486 1.379 . S
C480 N488 1.356 . S
C481 C480 1.363 . S
C481 C487 1.363 . S
C482 C483 1.363 . S
C482 C487 1.379 . S
C482 N489 1.356 . S
C483 C482 1.363 . S
C483 C486 1.363 . S
N484 C486 1.356 . S
N484 H496 0.984 . S
N484 H497 0.985 . S
N485 C487 1.356 . S
N485 H490 0.984 . S
N485 H491 0.985 . S
C486 C480 1.379 . S
C486 C483 1.363 . S
C486 N484 1.356 . S
C487 C481 1.363 . S
C487 C482 1.379 . S
C487 N485 1.356 . S
N488 C480 1.356 . S
N488 H494 0.984 . S
N488 H495 0.984 . S
N489 C482 1.356 . S
N489 H492 0.984 . S
N489 H493 0.985 . S
H490 N485 0.984 . S
H491 N485 0.985 . S
H492 N489 0.984 . S
H493 N489 0.985 . S
H494 N488 0.984 . S
H495 N488 0.984 . S
H496 N484 0.984 . S
H497 N484 0.985 . S
C498 C499 1.363 . S
C498 C504 1.379 . S
C498 N506 1.356 . S
C499 C498 1.363 . S
C499 C505 1.363 . S
C500 C501 1.363 . S
C500 C505 1.379 . S
C500 N507 1.356 . S
C501 C500 1.363 . S
C501 C504 1.363 . S
N502 C504 1.356 . S
N502 H514 0.984 . S
N502 H515 0.985 . S
N503 C505 1.356 . S
N503 H508 0.984 . S
N503 H509 0.985 . S
C504 C498 1.379 . S
C504 C501 1.363 . S
C504 N502 1.356 . S
C505 C499 1.363 . S
C505 C500 1.379 . S
C505 N503 1.356 . S
N506 C498 1.356 . S
N506 H512 0.984 . S
N506 H513 0.984 . S
N507 C500 1.356 . S
N507 H510 0.984 . S
N507 H511 0.985 . S
H508 N503 0.984 . S
H509 N503 0.985 . S
H510 N507 0.984 . S
H511 N507 0.985 . S
H512 N506 0.984 . S
H513 N506 0.984 . S
H514 N502 0.984 . S
H515 N502 0.985 . S
C516 C517 1.363 . S
C516 C522 1.379 . S
C516 N524 1.356 1_565 S
C517 C516 1.363 . S
C517 C523 1.363 . S
C518 C519 1.363 . S
C518 C523 1.379 . S
C518 N525 1.356 . S
C519 C518 1.363 . S
C519 C522 1.363 . S
N520 C522 1.356 . S
N520 H532 0.984 . S
N520 H533 0.985 . S
N521 C523 1.356 . S
N521 H526 0.984 . S
N521 H527 0.985 . S
C522 C516 1.379 . S
C522 C519 1.363 . S
C522 N520 1.356 . S
C523 C517 1.363 . S
C523 C518 1.379 . S
C523 N521 1.356 . S
N524 C516 1.356 1_545 S
N524 H530 0.984 . S
N524 H531 0.984 . S
N525 C518 1.356 . S
N525 H528 0.984 . S
N525 H529 0.985 . S
H526 N521 0.984 . S
H527 N521 0.985 . S
H528 N525 0.984 . S
H529 N525 0.985 . S
H530 N524 0.984 . S
H531 N524 0.984 . S
H532 N520 0.984 . S
H533 N520 0.985 . S
C534 C535 1.363 . S
C534 C540 1.379 . S
C534 N542 1.356 1_545 S
C535 C534 1.363 . S
C535 C541 1.363 . S
C536 C537 1.363 . S
C536 C541 1.379 . S
C536 N543 1.356 . S
C537 C536 1.363 . S
C537 C540 1.363 . S
N538 C540 1.356 . S
N538 H550 0.984 . S
N538 H551 0.985 . S
N539 C541 1.356 . S
N539 H544 0.984 . S
N539 H545 0.985 . S
C540 C534 1.379 . S
C540 C537 1.363 . S
C540 N538 1.356 . S
C541 C535 1.363 . S
C541 C536 1.379 . S
C541 N539 1.356 . S
N542 C534 1.356 1_565 S
N542 H548 0.984 . S
N542 H549 0.984 . S
N543 C536 1.356 . S
N543 H546 0.984 . S
N543 H547 0.985 . S
H544 N539 0.984 . S
H545 N539 0.985 . S
H546 N543 0.984 . S
H547 N543 0.985 . S
H548 N542 0.984 . S
H549 N542 0.984 . S
H550 N538 0.984 . S
H551 N538 0.985 . S
C552 C553 1.363 . S
C552 C558 1.379 . S
C552 N560 1.356 . S
C553 C552 1.363 . S
C553 C559 1.363 1_454 S
C554 C555 1.363 1_656 S
C554 C559 1.379 . S
C554 N561 1.356 . S
C555 C554 1.363 1_454 S
C555 C558 1.363 . S
N556 C558 1.356 . S
N556 H568 0.984 . S
N556 H569 0.985 . S
N557 C559 1.356 . S
N557 H562 0.984 . S
N557 H563 0.985 . S
C558 C552 1.379 . S
C558 C555 1.363 . S
C558 N556 1.356 . S
C559 C553 1.363 1_656 S
C559 C554 1.379 . S
C559 N557 1.356 . S
N560 C552 1.356 . S
N560 H566 0.984 . S
N560 H567 0.984 . S
N561 C554 1.356 . S
N561 H564 0.984 . S
N561 H565 0.985 . S
H562 N557 0.984 . S
H563 N557 0.985 . S
H564 N561 0.984 . S
H565 N561 0.985 . S
H566 N560 0.984 . S
H567 N560 0.984 . S
H568 N556 0.984 . S
H569 N556 0.985 . S
C570 C571 1.363 . S
C570 C576 1.379 . S
C570 N578 1.356 . S
C571 C570 1.363 . S
C571 C577 1.363 . S
C572 C573 1.363 . S
C572 C577 1.379 . S
C572 N579 1.356 . S
C573 C572 1.363 . S
C573 C576 1.363 . S
N574 C576 1.356 . S
N574 H586 0.984 . S
N574 H587 0.985 1_565 S
N575 C577 1.356 . S
N575 H580 0.984 . S
N575 H581 0.985 . S
C576 C570 1.379 . S
C576 C573 1.363 . S
C576 N574 1.356 . S
C577 C571 1.363 . S
C577 C572 1.379 . S
C577 N575 1.356 . S
N578 C570 1.356 . S
N578 H584 0.984 . S
N578 H585 0.984 . S
N579 C572 1.356 . S
N579 H582 0.984 . S
N579 H583 0.985 . S
H580 N575 0.984 . S
H581 N575 0.985 . S
H582 N579 0.984 . S
H583 N579 0.985 . S
H584 N578 0.984 . S
H585 N578 0.984 . S
H586 N574 0.984 . S
H587 N574 0.985 1_545 S
C588 C589 1.363 . S
C588 C594 1.379 . S
C588 N596 1.356 . S
C589 C588 1.363 . S
C589 C595 1.363 . S
C590 C591 1.363 . S
C590 C595 1.379 . S
C590 N597 1.356 . S
C591 C590 1.363 . S
C591 C594 1.363 . S
N592 C594 1.356 . S
N592 H604 0.984 . S
N592 H605 0.985 . S
N593 C595 1.356 . S
N593 H598 0.984 . S
N593 H599 0.985 . S
C594 C588 1.379 . S
C594 C591 1.363 . S
C594 N592 1.356 . S
C595 C589 1.363 . S
C595 C590 1.379 . S
C595 N593 1.356 . S
N596 C588 1.356 . S
N596 H602 0.984 . S
N596 H603 0.984 . S
N597 C590 1.356 . S
N597 H600 0.984 . S
N597 H601 0.985 . S
H598 N593 0.984 . S
H599 N593 0.985 . S
H600 N597 0.984 . S
H601 N597 0.985 . S
H602 N596 0.984 . S
H603 N596 0.984 . S
H604 N592 0.984 . S
H605 N592 0.985 . S
C606 C607 1.363 . S
C606 C612 1.379 1_565 S
C606 N614 1.356 . S
C607 C606 1.363 . S
C607 C613 1.363 1_455 S
C608 C609 1.363 1_655 S
C608 C613 1.379 1_545 S
C608 N615 1.356 . S
C609 C608 1.363 1_455 S
C609 C612 1.363 . S
N610 C612 1.356 . S
N610 H622 0.984 . S
N610 H623 0.985 . S
N611 C613 1.356 . S
N611 H616 0.984 . S
N611 H617 0.985 . S
C612 C606 1.379 1_545 S
C612 C609 1.363 . S
C612 N610 1.356 . S
C613 C607 1.363 1_655 S
C613 C608 1.379 1_565 S
C613 N611 1.356 . S
N614 C606 1.356 . S
N614 H620 0.984 . S
N614 H621 0.984 . S
N615 C608 1.356 . S
N615 H618 0.984 . S
N615 H619 0.985 . S
H616 N611 0.984 . S
H617 N611 0.985 . S
H618 N615 0.984 . S
H619 N615 0.985 . S
H620 N614 0.984 . S
H621 N614 0.984 . S
H622 N610 0.984 . S
H623 N610 0.985 . S
C624 C625 1.363 . S
C624 C630 1.379 . S
C624 N632 1.356 . S
C625 C624 1.363 . S
C625 C631 1.363 . S
C626 C627 1.363 . S
C626 C631 1.379 . S
C626 N633 1.356 . S
C627 C626 1.363 . S
C627 C630 1.363 . S
N628 C630 1.356 . S
N628 H640 0.984 . S
N628 H641 0.985 . S
N629 C631 1.356 . S
N629 H634 0.984 . S
N629 H635 0.985 . S
C630 C624 1.379 . S
C630 C627 1.363 . S
C630 N628 1.356 . S
C631 C625 1.363 . S
C631 C626 1.379 . S
C631 N629 1.356 . S
N632 C624 1.356 . S
N632 H638 0.984 . S
N632 H639 0.984 1_545 S
N633 C626 1.356 . S
N633 H636 0.984 . S
N633 H637 0.985 . S
H634 N629 0.984 . S
H635 N629 0.985 . S
H636 N633 0.984 . S
H637 N633 0.985 . S
H638 N632 0.984 . S
H639 N632 0.984 1_565 S
H640 N628 0.984 . S
H641 N628 0.985 . S
C642 C643 1.363 . S
C642 C648 1.379 . S
C642 N650 1.356 . S
C643 C642 1.363 . S
C643 C649 1.363 . S
C644 C645 1.363 . S
C644 C649 1.379 . S
C644 N651 1.356 . S
C645 C644 1.363 . S
C645 C648 1.363 . S
N646 C648 1.356 . S
N646 H658 0.984 . S
N646 H659 0.985 . S
N647 C649 1.356 . S
N647 H652 0.984 . S
N647 H653 0.985 . S
C648 C642 1.379 . S
C648 C645 1.363 . S
C648 N646 1.356 . S
C649 C643 1.363 . S
C649 C644 1.379 . S
C649 N647 1.356 . S
N650 C642 1.356 . S
N650 H656 0.984 . S
N650 H657 0.984 . S
N651 C644 1.356 . S
N651 H654 0.984 1_565 S
N651 H655 0.985 . S
H652 N647 0.984 . S
H653 N647 0.985 . S
H654 N651 0.984 1_545 S
H655 N651 0.985 . S
H656 N650 0.984 . S
H657 N650 0.984 . S
H658 N646 0.984 . S
H659 N646 0.985 . S
C660 C661 1.363 . S
C660 C666 1.379 . S
C660 N668 1.356 . S
C661 C660 1.363 . S
C661 C667 1.363 . S
C662 C663 1.363 . S
C662 C667 1.379 . S
C662 N669 1.356 . S
C663 C662 1.363 . S
C663 C666 1.363 . S
N664 C666 1.356 . S
N664 H676 0.984 . S
N664 H677 0.985 . S
N665 C667 1.356 . S
N665 H670 0.984 . S
N665 H671 0.985 . S
C666 C660 1.379 . S
C666 C663 1.363 . S
C666 N664 1.356 . S
C667 C661 1.363 . S
C667 C662 1.379 . S
C667 N665 1.356 . S
N668 C660 1.356 . S
N668 H674 0.984 . S
N668 H675 0.984 . S
N669 C662 1.356 . S
N669 H672 0.984 . S
N669 H673 0.985 . S
H670 N665 0.984 . S
H671 N665 0.985 . S
H672 N669 0.984 . S
H673 N669 0.985 . S
H674 N668 0.984 . S
H675 N668 0.984 . S
H676 N664 0.984 . S
H677 N664 0.985 . S
C678 C679 1.363 . S
C678 C684 1.379 1_565 S
C678 N686 1.356 . S
C679 C678 1.363 . S
C679 C685 1.363 1_554 S
C680 C681 1.363 1_556 S
C680 C685 1.379 1_545 S
C680 N687 1.356 . S
C681 C680 1.363 1_554 S
C681 C684 1.363 . S
N682 C684 1.356 . S
N682 H694 0.984 . S
N682 H695 0.985 . S
N683 C685 1.356 . S
N683 H688 0.984 . S
N683 H689 0.985 . S
C684 C678 1.379 1_545 S
C684 C681 1.363 . S
C684 N682 1.356 . S
C685 C679 1.363 1_556 S
C685 C680 1.379 1_565 S
C685 N683 1.356 . S
N686 C678 1.356 . S
N686 H692 0.984 . S
N686 H693 0.984 . S
N687 C680 1.356 . S
N687 H690 0.984 . S
N687 H691 0.985 . S
H688 N683 0.984 . S
H689 N683 0.985 . S
H690 N687 0.984 . S
H691 N687 0.985 . S
H692 N686 0.984 . S
H693 N686 0.984 . S
H694 N682 0.984 . S
H695 N682 0.985 . S
C696 C697 1.363 . S
C696 C702 1.379 . S
C696 N704 1.356 . S
C697 C696 1.363 . S
C697 C703 1.363 1_554 S
C698 C699 1.386 . S
C698 C703 1.379 . S
C698 N705 1.356 . S
C699 C698 1.386 . S
C699 C702 1.333 1_556 S
N700 C702 1.356 . S
N700 H712 0.984 . S
N700 H713 0.985 . S
N701 C703 1.356 . S
N701 H706 0.984 . S
N701 H707 0.985 . S
C702 C696 1.379 . S
C702 C699 1.333 1_554 S
C702 N700 1.356 . S
C703 C697 1.363 1_556 S
C703 C698 1.379 . S
C703 N701 1.356 . S
N704 C696 1.356 . S
N704 H710 0.984 . S
N704 H711 0.984 . S
N705 C698 1.356 . S
N705 H708 0.984 . S
N705 H709 0.985 . S
H706 N701 0.984 . S
H707 N701 0.985 . S
H708 N705 0.984 . S
H709 N705 0.985 . S
H710 N704 0.984 . S
H711 N704 0.984 . S
H712 N700 0.984 . S
H713 N700 0.985 . S
C714 C715 1.363 1_556 S
C714 C720 1.379 . S
C714 N722 1.356 . S
C715 C714 1.363 1_554 S
C715 C721 1.363 . S
C716 C717 1.344 1_554 S
C716 C721 1.379 . S
C716 N723 1.356 . S
C717 C716 1.344 1_556 S
C717 C720 1.376 . S
N718 C720 1.356 . S
N718 H730 0.984 . S
N718 H731 0.985 . S
N719 C721 1.356 . S
N719 H724 0.984 . S
N719 H725 0.985 . S
C720 C714 1.379 . S
C720 C717 1.376 . S
C720 N718 1.356 . S
C721 C715 1.363 . S
C721 C716 1.379 . S
C721 N719 1.356 . S
N722 C714 1.356 . S
N722 H728 0.984 . S
N722 H729 0.984 . S
N723 C716 1.356 . S
N723 H726 0.984 . S
N723 H727 0.985 . S
H724 N719 0.984 . S
H725 N719 0.985 . S
H726 N723 0.984 . S
H727 N723 0.985 . S
H728 N722 0.984 . S
H729 N722 0.984 . S
H730 N718 0.984 . S
H731 N718 0.985 . S
C732 C733 1.363 . S
C732 C738 1.379 1_455 S
C732 N740 1.356 . S
C733 C732 1.363 . S
C733 C739 1.363 . S
C734 C735 1.363 . S
C734 C739 1.379 1_655 S
C734 N741 1.356 . S
C735 C734 1.363 . S
C735 C738 1.363 . S
N736 C738 1.356 . S
N736 H748 0.984 . S
N736 H749 0.985 . S
N737 C739 1.356 . S
N737 H742 0.984 . S
N737 H743 0.985 . S
C738 C732 1.379 1_655 S
C738 C735 1.363 . S
C738 N736 1.356 . S
C739 C733 1.363 . S
C739 C734 1.379 1_455 S
C739 N737 1.356 . S
N740 C732 1.356 . S
N740 H746 0.984 . S
N740 H747 0.984 . S
N741 C734 1.356 . S
N741 H744 0.984 . S
N741 H745 0.985 . S
H742 N737 0.984 . S
H743 N737 0.985 . S
H744 N741 0.984 . S
H745 N741 0.985 . S
H746 N740 0.984 . S
H747 N740 0.984 . S
H748 N736 0.984 . S
H749 N736 0.985 . S
C750 C751 1.363 . S
C750 C756 1.379 . S
C750 N758 1.356 . S
C751 C750 1.363 . S
C751 C757 1.363 . S
C752 C753 1.363 . S
C752 C757 1.379 . S
C752 N759 1.356 . S
C753 C752 1.363 . S
C753 C756 1.363 . S
N754 C756 1.356 . S
N754 H766 0.984 . S
N754 H767 0.985 . S
N755 C757 1.356 . S
N755 H760 0.984 . S
N755 H761 0.985 . S
C756 C750 1.379 . S
C756 C753 1.363 . S
C756 N754 1.356 . S
C757 C751 1.363 . S
C757 C752 1.379 . S
C757 N755 1.356 . S
N758 C750 1.356 . S
N758 H764 0.984 1_565 S
N758 H765 0.984 . S
N759 C752 1.356 . S
N759 H762 0.984 . S
N759 H763 0.985 . S
H760 N755 0.984 . S
H761 N755 0.985 . S
H762 N759 0.984 . S
H763 N759 0.985 . S
H764 N758 0.984 1_545 S
H765 N758 0.984 . S
H766 N754 0.984 . S
H767 N754 0.985 . S
C768 C769 1.363 . S
C768 C774 1.379 . S
C768 N776 1.356 . S
C769 C768 1.363 . S
C769 C775 1.363 . S
C770 C771 1.363 . S
C770 C775 1.379 . S
C770 N777 1.356 . S
C771 C770 1.363 . S
C771 C774 1.363 . S
N772 C774 1.356 . S
N772 H784 0.984 . S
N772 H785 0.985 . S
N773 C775 1.356 . S
N773 H778 0.984 . S
N773 H779 0.985 . S
C774 C768 1.379 . S
C774 C771 1.363 . S
C774 N772 1.356 . S
C775 C769 1.363 . S
C775 C770 1.379 . S
C775 N773 1.356 . S
N776 C768 1.356 . S
N776 H782 0.984 . S
N776 H783 0.984 . S
N777 C770 1.356 . S
N777 H780 0.984 . S
N777 H781 0.985 . S
H778 N773 0.984 . S
H779 N773 0.985 . S
H780 N777 0.984 . S
H781 N777 0.985 . S
H782 N776 0.984 . S
H783 N776 0.984 . S
H784 N772 0.984 . S
H785 N772 0.985 . S
C786 C787 1.363 1_455 S
C786 C792 1.379 . S
C786 N794 1.356 1_455 S
C787 C786 1.363 1_655 S
C787 C793 1.363 1_545 S
C788 C789 1.363 . S
C788 C793 1.379 1_455 S
C788 N795 1.356 . S
C789 C788 1.363 . S
C789 C792 1.363 1_565 S
N790 C792 1.356 . S
N790 H802 0.984 . S
N790 H803 0.985 . S
N791 C793 1.356 . S
N791 H796 0.984 . S
N791 H797 0.985 . S
C792 C786 1.379 . S
C792 C789 1.363 1_545 S
C792 N790 1.356 . S
C793 C787 1.363 1_565 S
C793 C788 1.379 1_655 S
C793 N791 1.356 . S
N794 C786 1.356 1_655 S
N794 H800 0.984 1_655 S
N794 H801 0.984 . S
N795 C788 1.356 . S
N795 H798 0.984 . S
N795 H799 0.985 . S
H796 N791 0.984 . S
H797 N791 0.985 . S
H798 N795 0.984 . S
H799 N795 0.985 . S
H800 N794 0.984 1_455 S
H801 N794 0.984 . S
H802 N790 0.984 . S
H803 N790 0.985 . S
C804 C805 1.363 . S
C804 C810 1.379 . S
C804 N812 1.356 . S
C805 C804 1.363 . S
C805 C811 1.363 . S
C806 C807 1.363 . S
C806 C811 1.379 . S
C806 N813 1.356 . S
C807 C806 1.363 . S
C807 C810 1.363 . S
N808 C810 1.356 . S
N808 H820 0.984 . S
N808 H821 0.985 . S
N809 C811 1.356 . S
N809 H814 0.984 . S
N809 H815 0.985 . S
C810 C804 1.379 . S
C810 C807 1.363 . S
C810 N808 1.356 . S
C811 C805 1.363 . S
C811 C806 1.379 . S
C811 N809 1.356 . S
N812 C804 1.356 . S
N812 H818 0.984 . S
N812 H819 0.984 . S
N813 C806 1.356 . S
N813 H816 0.984 . S
N813 H817 0.985 . S
H814 N809 0.984 . S
H815 N809 0.985 . S
H816 N813 0.984 . S
H817 N813 0.985 . S
H818 N812 0.984 . S
H819 N812 0.984 . S
H820 N808 0.984 . S
H821 N808 0.985 . S
C822 C823 1.363 1_545 S
C822 C828 1.379 . S
C822 N830 1.356 . S
C823 C822 1.363 1_565 S
C823 C829 1.363 . S
C824 C825 1.363 1_565 S
C824 C829 1.379 . S
C824 N831 1.356 . S
C825 C824 1.363 1_545 S
C825 C828 1.363 . S
N826 C828 1.356 . S
N826 H838 0.984 . S
N826 H839 0.985 . S
N827 C829 1.356 . S
N827 H832 0.984 . S
N827 H833 0.985 . S
C828 C822 1.379 . S
C828 C825 1.363 . S
C828 N826 1.356 . S
C829 C823 1.363 . S
C829 C824 1.379 . S
C829 N827 1.356 . S
N830 C822 1.356 . S
N830 H836 0.984 . S
N830 H837 0.984 . S
N831 C824 1.356 . S
N831 H834 0.984 . S
N831 H835 0.985 . S
H832 N827 0.984 . S
H833 N827 0.985 . S
H834 N831 0.984 . S
H835 N831 0.985 . S
H836 N830 0.984 . S
H837 N830 0.984 . S
H838 N826 0.984 . S
H839 N826 0.985 . S
C265 C28 1.672 . S
C267 C58 1.714 . S
C283 C25 1.912 . S
C285 C94 1.939 . S
C301 C120 1.714 . S
C303 C57 1.673 . S
C319 C87 1.912 . S
C321 C123 1.938 . S
C337 C127 1.673 . S
C339 C157 1.714 . S
C355 C193 1.938 . S
C357 C124 1.912 . S
C373 C156 1.673 . S
C375 C21 1.715 . S
C391 C186 1.912 . S
C393 C24 1.938 . S
C409 C190 1.715 . S
C411 C226 1.673 . S
C427 C223 1.912 . S
C429 C160 1.938 . S
C445 C252 1.714 . S
C447 C189 1.673 . S
C463 C255 1.938 . S
C465 C153 1.912 . S
C481 C259 1.673 . S
C483 C91 1.714 . S
C499 C61 1.938 . S
C501 C256 1.912 . S
C517 C219 1.714 . S
C519 C90 1.673 . S
C535 C222 1.938 . S
C537 C54 1.912 . S
C553 C27 1.184 . S
C555 C23 1.184 1_455 S
C571 C60 1.184 . S
C573 C56 1.184 . S
C589 C93 1.184 . S
C591 C89 1.184 . S
C607 C122 1.184 1_455 S
C609 C126 1.184 . S
C625 C159 1.184 . S
C627 C155 1.184 . S
C643 C192 1.184 . S
C645 C188 1.184 . S
C661 C225 1.184 . S
C663 C221 1.184 . S
C679 C254 1.184 . S
C681 C258 1.184 . S
C697 C257 1.113 . S
C699 C22 1.123 . S
C715 C26 1.114 . S
C717 C253 1.124 . S
C733 C59 1.113 . S
C735 C88 1.113 . S
C751 C224 1.113 . S
C753 C121 1.113 . S
C769 C125 1.114 . S
C771 C220 1.114 . S
C787 C187 1.113 . S
C789 C158 1.113 . S
C805 C191 1.113 . S
C807 C154 1.113 . S
C823 C92 1.113 . S
C825 C55 1.113 . S
