# Generated by pormake.
# Topology cbo, (4)-cn, num edge types: 1
# Building blocks:
#     Node 0, Type 0, BuildingBlock: GALJAG_clean_sbu_0, # of connection points: 4
#     Node 1, Type 0, BuildingBlock: GALJAG_clean_sbu_0, # of connection points: 4
#     Node 2, Type 0, BuildingBlock: GALJAG_clean_sbu_0, # of connection points: 4
#     Node 3, Type 0, BuildingBlock: GALJAG_clean_sbu_0, # of connection points: 4
#     Node 4, Type 0, BuildingBlock: GALJAG_clean_sbu_0, # of connection points: 4
#     Node 5, Type 0, BuildingBlock: GALJAG_clean_sbu_0, # of connection points: 4
#     Node 6, Type 0, BuildingBlock: GALJAG_clean_sbu_0, # of connection points: 4
#     Node 7, Type 0, BuildingBlock: GALJAG_clean_sbu_0, # of connection points: 4
#     Node 8, Type 0, BuildingBlock: GALJAG_clean_sbu_0, # of connection points: 4
#     Node 9, Type 0, BuildingBlock: GALJAG_clean_sbu_0, # of connection points: 4
#     Node 10, Type 0, BuildingBlock: GALJAG_clean_sbu_0, # of connection points: 4
#     Node 11, Type 0, BuildingBlock: GALJAG_clean_sbu_0, # of connection points: 4
#     Node 12, Type 0, BuildingBlock: GALJAG_clean_sbu_0, # of connection points: 4
#     Node 13, Type 0, BuildingBlock: GALJAG_clean_sbu_0, # of connection points: 4
#     Node 14, Type 0, BuildingBlock: GALJAG_clean_sbu_0, # of connection points: 4
#     Node 15, Type 0, BuildingBlock: GALJAG_clean_sbu_0, # of connection points: 4
#     Node 16, Type 0, BuildingBlock: GALJAG_clean_sbu_0, # of connection points: 4
#     Node 17, Type 0, BuildingBlock: GALJAG_clean_sbu_0, # of connection points: 4
#     Node 18, Type 0, BuildingBlock: GALJAG_clean_sbu_0, # of connection points: 4
#     Node 19, Type 0, BuildingBlock: GALJAG_clean_sbu_0, # of connection points: 4
#     Node 20, Type 0, BuildingBlock: GALJAG_clean_sbu_0, # of connection points: 4
#     Node 21, Type 0, BuildingBlock: GALJAG_clean_sbu_0, # of connection points: 4
#     Node 22, Type 0, BuildingBlock: GALJAG_clean_sbu_0, # of connection points: 4
#     Node 23, Type 0, BuildingBlock: GALJAG_clean_sbu_0, # of connection points: 4
#     Edge 24, Type (0, 0), BuildingBlock: UVAHIK_clean_linker_0, # of connection points: 2
#     Edge 25, Type (0, 0), BuildingBlock: UVAHIK_clean_linker_0, # of connection points: 2
#     Edge 26, Type (0, 0), BuildingBlock: UVAHIK_clean_linker_0, # of connection points: 2
#     Edge 27, Type (0, 0), BuildingBlock: UVAHIK_clean_linker_0, # of connection points: 2
#     Edge 28, Type (0, 0), BuildingBlock: UVAHIK_clean_linker_0, # of connection points: 2
#     Edge 29, Type (0, 0), BuildingBlock: UVAHIK_clean_linker_0, # of connection points: 2
#     Edge 30, Type (0, 0), BuildingBlock: UVAHIK_clean_linker_0, # of connection points: 2
#     Edge 31, Type (0, 0), BuildingBlock: UVAHIK_clean_linker_0, # of connection points: 2
#     Edge 32, Type (0, 0), BuildingBlock: UVAHIK_clean_linker_0, # of connection points: 2
#     Edge 33, Type (0, 0), BuildingBlock: UVAHIK_clean_linker_0, # of connection points: 2
#     Edge 34, Type (0, 0), BuildingBlock: UVAHIK_clean_linker_0, # of connection points: 2
#     Edge 35, Type (0, 0), BuildingBlock: UVAHIK_clean_linker_0, # of connection points: 2
#     Edge 36, Type (0, 0), BuildingBlock: UVAHIK_clean_linker_0, # of connection points: 2
#     Edge 37, Type (0, 0), BuildingBlock: UVAHIK_clean_linker_0, # of connection points: 2
#     Edge 38, Type (0, 0), BuildingBlock: UVAHIK_clean_linker_0, # of connection points: 2
#     Edge 39, Type (0, 0), BuildingBlock: UVAHIK_clean_linker_0, # of connection points: 2
#     Edge 40, Type (0, 0), BuildingBlock: UVAHIK_clean_linker_0, # of connection points: 2
#     Edge 41, Type (0, 0), BuildingBlock: UVAHIK_clean_linker_0, # of connection points: 2
#     Edge 42, Type (0, 0), BuildingBlock: UVAHIK_clean_linker_0, # of connection points: 2
#     Edge 43, Type (0, 0), BuildingBlock: UVAHIK_clean_linker_0, # of connection points: 2
#     Edge 44, Type (0, 0), BuildingBlock: UVAHIK_clean_linker_0, # of connection points: 2
#     Edge 45, Type (0, 0), BuildingBlock: UVAHIK_clean_linker_0, # of connection points: 2
#     Edge 46, Type (0, 0), BuildingBlock: UVAHIK_clean_linker_0, # of connection points: 2
#     Edge 47, Type (0, 0), BuildingBlock: UVAHIK_clean_linker_0, # of connection points: 2
#     Edge 48, Type (0, 0), BuildingBlock: UVAHIK_clean_linker_0, # of connection points: 2
#     Edge 49, Type (0, 0), BuildingBlock: UVAHIK_clean_linker_0, # of connection points: 2
#     Edge 50, Type (0, 0), BuildingBlock: UVAHIK_clean_linker_0, # of connection points: 2
#     Edge 51, Type (0, 0), BuildingBlock: UVAHIK_clean_linker_0, # of connection points: 2
#     Edge 52, Type (0, 0), BuildingBlock: UVAHIK_clean_linker_0, # of connection points: 2
#     Edge 53, Type (0, 0), BuildingBlock: UVAHIK_clean_linker_0, # of connection points: 2
#     Edge 54, Type (0, 0), BuildingBlock: UVAHIK_clean_linker_0, # of connection points: 2
#     Edge 55, Type (0, 0), BuildingBlock: UVAHIK_clean_linker_0, # of connection points: 2
#     Edge 56, Type (0, 0), BuildingBlock: UVAHIK_clean_linker_0, # of connection points: 2
#     Edge 57, Type (0, 0), BuildingBlock: UVAHIK_clean_linker_0, # of connection points: 2
#     Edge 58, Type (0, 0), BuildingBlock: UVAHIK_clean_linker_0, # of connection points: 2
#     Edge 59, Type (0, 0), BuildingBlock: UVAHIK_clean_linker_0, # of connection points: 2
#     Edge 60, Type (0, 0), BuildingBlock: UVAHIK_clean_linker_0, # of connection points: 2
#     Edge 61, Type (0, 0), BuildingBlock: UVAHIK_clean_linker_0, # of connection points: 2
#     Edge 62, Type (0, 0), BuildingBlock: UVAHIK_clean_linker_0, # of connection points: 2
#     Edge 63, Type (0, 0), BuildingBlock: UVAHIK_clean_linker_0, # of connection points: 2
#     Edge 64, Type (0, 0), BuildingBlock: UVAHIK_clean_linker_0, # of connection points: 2
#     Edge 65, Type (0, 0), BuildingBlock: UVAHIK_clean_linker_0, # of connection points: 2
#     Edge 66, Type (0, 0), BuildingBlock: UVAHIK_clean_linker_0, # of connection points: 2
#     Edge 67, Type (0, 0), BuildingBlock: UVAHIK_clean_linker_0, # of connection points: 2
#     Edge 68, Type (0, 0), BuildingBlock: UVAHIK_clean_linker_0, # of connection points: 2
#     Edge 69, Type (0, 0), BuildingBlock: UVAHIK_clean_linker_0, # of connection points: 2
#     Edge 70, Type (0, 0), BuildingBlock: UVAHIK_clean_linker_0, # of connection points: 2
#     Edge 71, Type (0, 0), BuildingBlock: UVAHIK_clean_linker_0, # of connection points: 2
# Relax obj value: 0.104
# Max RMSD: 0.140
# Mean RMSD: 0.140
data_MOF--net-cbo--node1-GALJAG_clean_sbu_0--edge1-UVAHIK_clean_linker_0
_symmetry_space_group_name_H-M    P1
_symmetry_Int_Tables_number       1
_symmetry_cell_setting            triclinic
loop_
_symmetry_equiv_pos_as_xyz
'x, y, z'
_cell_length_a     67.505701
_cell_length_b     67.444208
_cell_length_c     67.447616
_cell_angle_alpha  90.007632
_cell_angle_beta   90.108861
_cell_angle_gamma 90.034861
loop_
_atom_site_label
_atom_site_type_symbol
_atom_site_fract_x
_atom_site_fract_y
_atom_site_fract_z
_atom_type_partial_charge
In0 In 0.09308 0.13774 0.30983 0.0
O1 O 0.06895 0.11402 0.30792 0.0
O2 O 0.061 0.14317 0.31721 0.0
C3 C 0.12487 0.11724 0.297 0.0
C4 C 0.09953 0.14381 0.34858 0.0
C5 C 0.08953 0.16603 0.28184 0.0
O6 O 0.10737 0.11142 0.29391 0.0
O7 O 0.12624 0.13302 0.30688 0.0
O8 O 0.09691 0.16949 0.29868 0.0
O9 O 0.08407 0.14837 0.27914 0.0
C10 C 0.05545 0.12566 0.31368 0.0
O11 O 0.10143 0.15739 0.33584 0.0
O12 O 0.09492 0.12702 0.34169 0.0
In13 In 0.3901 0.85225 0.82119 0.0
O14 O 0.38767 0.83363 0.84901 0.0
O15 O 0.3855 0.86501 0.85206 0.0
C16 C 0.3957 0.822 0.79558 0.0
C17 C 0.42633 0.86841 0.82307 0.0
C18 C 0.3568 0.86963 0.80747 0.0
O19 O 0.38542 0.82017 0.81105 0.0
O20 O 0.40298 0.83898 0.79304 0.0
O21 O 0.37375 0.8771 0.80494 0.0
O22 O 0.35668 0.85375 0.81729 0.0
C23 C 0.38595 0.8483 0.86052 0.0
O24 O 0.41244 0.87654 0.81344 0.0
O25 O 0.42184 0.85236 0.83152 0.0
In26 In 0.59741 0.35082 0.67681 0.0
O27 O 0.57182 0.37288 0.67859 0.0
O28 O 0.56522 0.3423 0.67412 0.0
C29 C 0.62766 0.37307 0.69037 0.0
C30 C 0.60138 0.3472 0.63737 0.0
C31 C 0.59877 0.3215 0.70381 0.0
O32 O 0.60979 0.37724 0.69392 0.0
O33 O 0.63017 0.35807 0.67951 0.0
O34 O 0.6058 0.31948 0.68658 0.0
O35 O 0.59123 0.33823 0.70731 0.0
C36 C 0.55872 0.35972 0.67602 0.0
O37 O 0.60262 0.33255 0.64897 0.0
O38 O 0.59887 0.36372 0.64576 0.0
In39 In 0.90541 0.63713 0.18496 0.0
O40 O 0.92829 0.61211 0.18353 0.0
O41 O 0.93798 0.64096 0.19176 0.0
C42 C 0.87196 0.61738 0.19421 0.0
C43 C 0.90581 0.64438 0.14578 0.0
C44 C 0.90249 0.66671 0.21145 0.0
O45 O 0.88861 0.61268 0.20132 0.0
O46 O 0.87233 0.6317 0.18223 0.0
O47 O 0.89894 0.66924 0.19323 0.0
O48 O 0.90732 0.64927 0.21623 0.0
C49 C 0.94257 0.62319 0.18839 0.0
O50 O 0.9067 0.65808 0.1585 0.0
O51 O 0.90462 0.62712 0.15286 0.0
In52 In 0.31712 0.08394 0.14249 0.0
O53 O 0.34326 0.08487 0.16371 0.0
O54 O 0.34941 0.08453 0.13277 0.0
C55 C 0.28822 0.08431 0.16994 0.0
C56 C 0.31494 0.04643 0.12944 0.0
C57 C 0.30754 0.11731 0.12268 0.0
O58 O 0.30546 0.0906 0.17362 0.0
O59 O 0.28562 0.07817 0.15249 0.0
O60 O 0.30269 0.10031 0.11657 0.0
O61 O 0.3177 0.11738 0.13837 0.0
C62 C 0.3562 0.08469 0.15023 0.0
O63 O 0.31438 0.06097 0.11762 0.0
O64 O 0.31684 0.05096 0.14748 0.0
In65 In 0.18252 0.90557 0.63334 0.0
O66 O 0.15806 0.91623 0.65401 0.0
O67 O 0.14964 0.90099 0.62771 0.0
C68 C 0.20611 0.90358 0.66549 0.0
C69 C 0.18592 0.93963 0.61283 0.0
C70 C 0.19348 0.87186 0.61474 0.0
O71 O 0.18888 0.89628 0.66525 0.0
O72 O 0.21141 0.9117 0.64951 0.0
O73 O 0.20102 0.88848 0.61074 0.0
O74 O 0.18021 0.87233 0.62782 0.0
C75 C 0.14416 0.90971 0.64331 0.0
O76 O 0.17603 0.9251 0.60643 0.0
O77 O 0.19442 0.93674 0.62922 0.0
In78 In 0.81107 0.40146 0.8557 0.0
O79 O 0.80765 0.42654 0.87832 0.0
O80 O 0.81676 0.43358 0.84889 0.0
C81 C 0.80125 0.36942 0.87749 0.0
C82 C 0.85004 0.39793 0.8495 0.0
C83 C 0.78296 0.40219 0.82727 0.0
O84 O 0.79558 0.38666 0.88202 0.0
O85 O 0.81205 0.36851 0.86233 0.0
O86 O 0.80017 0.39565 0.82414 0.0
O87 O 0.7799 0.40799 0.84475 0.0
C88 C 0.81281 0.43977 0.86607 0.0
O89 O 0.83736 0.39443 0.83614 0.0
O90 O 0.84299 0.4026 0.8662 0.0
In91 In 0.67825 0.58902 0.34353 0.0
O92 O 0.68279 0.56626 0.36839 0.0
O93 O 0.67693 0.55594 0.33915 0.0
C94 C 0.68944 0.62271 0.36187 0.0
C95 C 0.63872 0.59112 0.33932 0.0
C96 C 0.70504 0.58869 0.31406 0.0
O97 O 0.69374 0.60577 0.36859 0.0
O98 O 0.67926 0.62257 0.34617 0.0
O99 O 0.6874 0.59428 0.31136 0.0
O100 O 0.70912 0.5836 0.33159 0.0
C101 C 0.68046 0.55158 0.35697 0.0
O102 O 0.65024 0.58909 0.32475 0.0
O103 O 0.64717 0.59239 0.35598 0.0
In104 In 0.14853 0.30508 0.08905 0.0
O105 O 0.12352 0.30694 0.0662 0.0
O106 O 0.15318 0.3048 0.05588 0.0
C107 C 0.12687 0.29179 0.11982 0.0
C108 C 0.15642 0.34399 0.09291 0.0
C109 C 0.17802 0.27827 0.09031 0.0
O110 O 0.123 0.28723 0.10209 0.0
O111 O 0.14145 0.30329 0.12196 0.0
O112 O 0.17955 0.29527 0.09798 0.0
O113 O 0.16153 0.27474 0.0822 0.0
C114 C 0.13509 0.30626 0.05152 0.0
O115 O 0.16969 0.33127 0.08964 0.0
O116 O 0.13915 0.33705 0.09456 0.0
In117 In 0.64499 0.1824 0.90433 0.0
O118 O 0.61908 0.18704 0.92584 0.0
O119 O 0.64721 0.1787 0.93738 0.0
C120 C 0.62964 0.19606 0.87012 0.0
C121 C 0.64754 0.14298 0.89931 0.0
C122 C 0.67557 0.20782 0.90756 0.0
O123 O 0.62186 0.19982 0.88672 0.0
O124 O 0.64486 0.18526 0.87087 0.0
O125 O 0.67779 0.19019 0.90167 0.0
O126 O 0.65798 0.21257 0.9116 0.0
C127 C 0.62945 0.18311 0.94096 0.0
O128 O 0.66225 0.1535 0.90413 0.0
O129 O 0.63153 0.15236 0.89701 0.0
In130 In 0.84469 0.81094 0.40328 0.0
O131 O 0.82619 0.83876 0.39957 0.0
O132 O 0.85757 0.84205 0.40079 0.0
C133 C 0.81338 0.78598 0.40443 0.0
C134 C 0.85958 0.81204 0.44021 0.0
C135 C 0.8642 0.79749 0.37106 0.0
O136 O 0.81271 0.80257 0.39588 0.0
O137 O 0.82975 0.78206 0.41252 0.0
O138 O 0.868 0.79152 0.38836 0.0
O139 O 0.85092 0.81056 0.37008 0.0
C140 C 0.84086 0.85038 0.39946 0.0
O141 O 0.86948 0.80555 0.42573 0.0
O142 O 0.84222 0.81758 0.43606 0.0
In143 In 0.34916 0.68327 0.60003 0.0
O144 O 0.3727 0.66851 0.58075 0.0
O145 O 0.36027 0.69567 0.57083 0.0
C146 C 0.36745 0.69591 0.63332 0.0
C147 C 0.3366 0.64559 0.60265 0.0
C148 C 0.31848 0.70834 0.59471 0.0
O149 O 0.37612 0.69542 0.61678 0.0
O150 O 0.34978 0.68995 0.63299 0.0
O151 O 0.31605 0.6905 0.59975 0.0
O152 O 0.33629 0.71347 0.59252 0.0
C153 C 0.37193 0.68152 0.56735 0.0
O154 O 0.3323 0.65654 0.58809 0.0
O155 O 0.34707 0.65372 0.61588 0.0
In156 In 0.91008 0.85005 0.68215 0.0
O157 O 0.92889 0.8783 0.68188 0.0
O158 O 0.94349 0.85042 0.68403 0.0
C159 C 0.87492 0.86582 0.69233 0.0
C160 C 0.90859 0.84253 0.64301 0.0
C161 C 0.91183 0.8223 0.71074 0.0
O162 O 0.89117 0.87369 0.69731 0.0
O163 O 0.8765 0.85022 0.68217 0.0
O164 O 0.90618 0.81829 0.69332 0.0
O165 O 0.91656 0.84017 0.71358 0.0
C166 C 0.94509 0.86902 0.68324 0.0
O167 O 0.91445 0.82973 0.65536 0.0
O168 O 0.90358 0.85892 0.65045 0.0
In169 In 0.58943 0.14428 0.18165 0.0
O170 O 0.57711 0.16265 0.15598 0.0
O171 O 0.60202 0.14401 0.15062 0.0
C172 C 0.58144 0.17588 0.2051 0.0
C173 C 0.56018 0.11717 0.18059 0.0
C174 C 0.62395 0.12865 0.19499 0.0
O175 O 0.59591 0.17542 0.19338 0.0
O176 O 0.57087 0.16051 0.2049 0.0
O177 O 0.60748 0.12042 0.19801 0.0
O178 O 0.62295 0.14452 0.18528 0.0
C179 C 0.58984 0.15644 0.14375 0.0
O180 O 0.56997 0.12195 0.16541 0.0
O181 O 0.56573 0.12544 0.19644 0.0
In182 In 0.39712 0.64642 0.32152 0.0
O183 O 0.41938 0.62272 0.31208 0.0
O184 O 0.42768 0.64309 0.33479 0.0
C185 C 0.36375 0.6302 0.3065 0.0
C186 C 0.39023 0.65147 0.36038 0.0
C187 C 0.40547 0.67628 0.29625 0.0
O188 O 0.37929 0.6202 0.30928 0.0
O189 O 0.36502 0.64811 0.3116 0.0
O190 O 0.39497 0.67871 0.3115 0.0
O191 O 0.41178 0.65888 0.29383 0.0
C192 C 0.43246 0.62842 0.32425 0.0
O193 O 0.39412 0.66573 0.34891 0.0
O194 O 0.38917 0.63471 0.3521 0.0
In195 In 0.08903 0.35581 0.80964 0.0
O196 O 0.06927 0.383 0.81415 0.0
O197 O 0.05596 0.35605 0.80455 0.0
C198 C 0.12256 0.37347 0.79707 0.0
C199 C 0.09036 0.34748 0.84859 0.0
C200 C 0.08717 0.32603 0.78328 0.0
O201 O 0.10565 0.37892 0.7913 0.0
O202 O 0.12249 0.35937 0.8093 0.0
O203 O 0.09457 0.32374 0.80035 0.0
O204 O 0.081 0.34329 0.77957 0.0
C205 C 0.05363 0.37395 0.80929 0.0
O206 O 0.08633 0.33447 0.83575 0.0
O207 O 0.09379 0.36452 0.84174 0.0
In208 In 0.67404 0.9017 0.83156 0.0
O209 O 0.64593 0.89984 0.81306 0.0
O210 O 0.64387 0.89402 0.84406 0.0
C211 C 0.7008 0.90342 0.80197 0.0
C212 C 0.67059 0.93884 0.84542 0.0
C213 C 0.6873 0.86997 0.85179 0.0
O214 O 0.68451 0.89443 0.80017 0.0
O215 O 0.70344 0.91163 0.81854 0.0
O216 O 0.69045 0.8875 0.85758 0.0
O217 O 0.67733 0.86854 0.83603 0.0
C218 C 0.63499 0.89566 0.82764 0.0
O219 O 0.67914 0.92542 0.8553 0.0
O220 O 0.66424 0.93354 0.82865 0.0
In221 In 0.81009 0.09157 0.35312 0.0
O222 O 0.83733 0.08236 0.33538 0.0
O223 O 0.84059 0.10493 0.35722 0.0
C224 C 0.78667 0.09053 0.32072 0.0
C225 C 0.81106 0.05693 0.37295 0.0
C226 C 0.79461 0.12276 0.37285 0.0
O227 O 0.80373 0.09818 0.32043 0.0
O228 O 0.7816 0.0834 0.33722 0.0
O229 O 0.79222 0.10512 0.37857 0.0
O230 O 0.805 0.12459 0.35749 0.0
C231 C 0.84876 0.09429 0.34421 0.0
O232 O 0.79989 0.05996 0.35829 0.0
O233 O 0.82152 0.07159 0.37804 0.0
In234 In 0.18581 0.58922 0.13631 0.0
O235 O 0.18362 0.56514 0.11257 0.0
O236 O 0.19025 0.5565 0.14217 0.0
C237 C 0.19726 0.61904 0.11224 0.0
C238 C 0.14729 0.5947 0.14487 0.0
C239 C 0.21219 0.59057 0.16632 0.0
O240 O 0.20277 0.60136 0.10971 0.0
O241 O 0.18552 0.62155 0.12653 0.0
O242 O 0.19391 0.58792 0.16912 0.0
O243 O 0.21713 0.59256 0.1484 0.0
C244 C 0.18723 0.55117 0.12451 0.0
O245 O 0.16105 0.60242 0.15491 0.0
O246 O 0.15293 0.58455 0.13023 0.0
In247 In 0.31232 0.39939 0.64017 0.0
O248 O 0.31089 0.42422 0.61707 0.0
O249 O 0.31642 0.4318 0.6472 0.0
C250 C 0.29807 0.36867 0.61889 0.0
C251 C 0.35113 0.3929 0.64584 0.0
C252 C 0.28559 0.40008 0.66972 0.0
O253 O 0.29476 0.38648 0.61422 0.0
O254 O 0.30901 0.36645 0.63388 0.0
O255 O 0.30286 0.39333 0.67201 0.0
O256 O 0.28177 0.40625 0.65249 0.0
C257 C 0.31399 0.43775 0.62966 0.0
O258 O 0.33871 0.39282 0.65978 0.0
O259 O 0.34394 0.39598 0.62882 0.0
In260 In 0.84532 0.68654 0.90655 0.0
O261 O 0.87127 0.68409 0.92834 0.0
O262 O 0.84214 0.68688 0.93987 0.0
C263 C 0.86619 0.70124 0.87594 0.0
C264 C 0.83855 0.64755 0.90159 0.0
C265 C 0.81483 0.71217 0.90477 0.0
O266 O 0.87034 0.70533 0.89375 0.0
O267 O 0.85173 0.68959 0.87369 0.0
O268 O 0.81384 0.69488 0.89769 0.0
O269 O 0.83118 0.71651 0.91274 0.0
C270 C 0.86034 0.68489 0.94348 0.0
O271 O 0.82622 0.65891 0.90979 0.0
O272 O 0.85423 0.65587 0.89577 0.0
In273 In 0.35547 0.80604 0.09655 0.0
O274 O 0.37857 0.82368 0.07925 0.0
O275 O 0.36879 0.79615 0.06739 0.0
C276 C 0.37438 0.79478 0.13006 0.0
C277 C 0.33875 0.84213 0.09805 0.0
C278 C 0.32754 0.77814 0.08983 0.0
O279 O 0.38293 0.79527 0.11347 0.0
O280 O 0.35649 0.80001 0.12969 0.0
O281 O 0.32342 0.79506 0.09661 0.0
O282 O 0.34569 0.77525 0.08669 0.0
C283 C 0.3794 0.81138 0.06518 0.0
O284 O 0.33706 0.83095 0.08313 0.0
O285 O 0.34872 0.83501 0.11221 0.0
In286 In 0.13523 0.18216 0.59237 0.0
O287 O 0.1105 0.17807 0.56957 0.0
O288 O 0.13886 0.18747 0.55947 0.0
C289 C 0.11462 0.1927 0.62499 0.0
C290 C 0.14477 0.14346 0.59301 0.0
C291 C 0.16307 0.21062 0.59167 0.0
O292 O 0.1092 0.19728 0.6077 0.0
O293 O 0.13009 0.18231 0.62578 0.0
O294 O 0.16695 0.19299 0.5967 0.0
O295 O 0.14518 0.21384 0.58725 0.0
C296 C 0.1213 0.18285 0.55507 0.0
O297 O 0.15741 0.1569 0.59612 0.0
O298 O 0.12735 0.14954 0.59021 0.0
In299 In 0.6358 0.31164 0.3973 0.0
O300 O 0.65485 0.337 0.40912 0.0
O301 O 0.64061 0.34075 0.38119 0.0
C302 C 0.66406 0.28365 0.40139 0.0
C303 C 0.61434 0.31527 0.43067 0.0
C304 C 0.61509 0.30037 0.36489 0.0
O305 O 0.66794 0.30098 0.39555 0.0
O306 O 0.64604 0.28049 0.40501 0.0
O307 O 0.60725 0.30141 0.38181 0.0
O308 O 0.63311 0.30513 0.3644 0.0
C309 C 0.65167 0.3481 0.39439 0.0
O310 O 0.61333 0.32781 0.41682 0.0
O311 O 0.62561 0.30077 0.42734 0.0
C312 C 0.1223 0.28748 0.15627 0.0
C313 C 0.11643 0.28291 0.13681 0.0
C314 C 0.11439 0.27707 0.1723 0.0
C315 C 0.09464 0.22804 0.18293 0.0
H316 H 0.08483 0.24986 0.23519 0.0
C317 C 0.07756 0.17706 0.24864 0.0
C318 C 0.08787 0.18124 0.26624 0.0
C319 C 0.077 0.19092 0.2333 0.0
C320 C 0.08759 0.24356 0.22069 0.0
H321 H 0.09673 0.26486 0.1189 0.0
H322 H 0.08282 0.24671 0.14693 0.0
H323 H 0.09054 0.27219 0.20722 0.0
H324 H 0.10512 0.20336 0.28194 0.0
H325 H 0.10463 0.22741 0.25493 0.0
H326 H 0.09252 0.19948 0.19634 0.0
C327 C 0.09375 0.25815 0.14977 0.0
C328 C 0.0908 0.25633 0.20469 0.0
C329 C 0.10165 0.26858 0.13374 0.0
C330 C 0.09708 0.19977 0.2685 0.0
C331 C 0.09666 0.21359 0.25308 0.0
C332 C 0.09152 0.2153 0.19889 0.0
C333 C 0.10047 0.26189 0.16915 0.0
C334 C 0.09467 0.24868 0.18571 0.0
C335 C 0.0869 0.20917 0.23517 0.0
C336 C 0.08828 0.22289 0.21802 0.0
H337 H 0.13363 0.29852 0.15908 0.0
H338 H 0.11998 0.28019 0.18703 0.0
H339 H 0.09795 0.22167 0.16857 0.0
H340 H 0.07013 0.16297 0.24659 0.0
H341 H 0.06905 0.1872 0.21984 0.0
C342 C 0.4124 0.80792 0.76582 0.0
C343 C 0.39852 0.80585 0.78115 0.0
C344 C 0.41413 0.79336 0.75123 0.0
C345 C 0.39879 0.74196 0.73782 0.0
H346 H 0.40126 0.76265 0.68423 0.0
C347 C 0.36678 0.70231 0.66967 0.0
C348 C 0.3766 0.70406 0.65142 0.0
C349 C 0.37407 0.71195 0.68645 0.0
C350 C 0.40099 0.75656 0.69909 0.0
H351 H 0.37604 0.7867 0.79372 0.0
H352 H 0.37854 0.76153 0.76791 0.0
H353 H 0.40532 0.78505 0.71211 0.0
H354 H 0.40228 0.71634 0.63658 0.0
H355 H 0.41497 0.73343 0.66599 0.0
H356 H 0.3934 0.71357 0.72457 0.0
C357 C 0.38843 0.77416 0.76733 0.0
C358 C 0.40333 0.76941 0.71512 0.0
C359 C 0.38686 0.78865 0.78205 0.0
C360 C 0.39439 0.71482 0.65046 0.0
C361 C 0.4016 0.72463 0.66724 0.0
C362 C 0.3963 0.72911 0.72175 0.0
C363 C 0.40183 0.77653 0.75154 0.0
C364 C 0.40181 0.76235 0.73468 0.0
C365 C 0.39125 0.72364 0.68529 0.0
C366 C 0.39694 0.73639 0.70224 0.0
H367 H 0.42176 0.82095 0.76492 0.0
H368 H 0.42486 0.79547 0.73952 0.0
H369 H 0.39791 0.73598 0.75269 0.0
H370 H 0.35308 0.69402 0.67085 0.0
H371 H 0.36566 0.71108 0.70009 0.0
C372 C 0.59005 0.30845 0.73725 0.0
C373 C 0.59938 0.30567 0.71888 0.0
C374 C 0.59108 0.29386 0.75187 0.0
C375 C 0.62248 0.25314 0.76858 0.0
H376 H 0.57774 0.24054 0.80233 0.0
C377 C 0.63081 0.19864 0.83327 0.0
C378 C 0.62253 0.20474 0.85135 0.0
C379 C 0.62583 0.20828 0.81565 0.0
C380 C 0.59039 0.24397 0.7931 0.0
H381 H 0.61678 0.2853 0.70118 0.0
H382 H 0.61869 0.25973 0.72684 0.0
H383 H 0.57314 0.26252 0.77392 0.0
H384 H 0.60193 0.22511 0.86513 0.0
H385 H 0.5935 0.24229 0.83443 0.0
H386 H 0.6399 0.23523 0.78801 0.0
C387 C 0.61064 0.27327 0.72993 0.0
C388 C 0.58775 0.25652 0.77682 0.0
C389 C 0.60951 0.28786 0.71524 0.0
C390 C 0.60852 0.2201 0.85139 0.0
C391 C 0.60362 0.22985 0.83377 0.0
C392 C 0.62514 0.24069 0.78488 0.0
C393 C 0.60155 0.2762 0.74844 0.0
C394 C 0.60384 0.26146 0.76457 0.0
C395 C 0.61256 0.22434 0.81577 0.0
C396 C 0.60919 0.23617 0.7975 0.0
H397 H 0.58211 0.32203 0.74046 0.0
H398 H 0.58416 0.29666 0.76606 0.0
H399 H 0.63522 0.25691 0.75959 0.0
H400 H 0.64153 0.18669 0.83277 0.0
H401 H 0.63267 0.20339 0.80199 0.0
C402 C 0.89422 0.70168 0.22067 0.0
C403 C 0.90131 0.68288 0.22612 0.0
C404 C 0.89284 0.71682 0.23475 0.0
C405 C 0.91118 0.73236 0.28397 0.0
H406 H 0.86123 0.76044 0.28757 0.0
C407 C 0.88512 0.77164 0.35491 0.0
C408 C 0.87308 0.78851 0.35323 0.0
C409 C 0.89131 0.76151 0.33797 0.0
C410 C 0.87545 0.75309 0.28655 0.0
H411 H 0.91284 0.66522 0.25041 0.0
H412 H 0.91039 0.6916 0.27496 0.0
H413 H 0.86677 0.73745 0.26034 0.0
H414 H 0.85909 0.80879 0.33257 0.0
H415 H 0.87023 0.79133 0.30295 0.0
H416 H 0.91975 0.74773 0.31039 0.0
C417 C 0.90604 0.69472 0.25981 0.0
C418 C 0.87858 0.73987 0.27095 0.0
C419 C 0.90729 0.67957 0.24579 0.0
C420 C 0.86824 0.79571 0.3343 0.0
C421 C 0.87452 0.78564 0.31734 0.0
C422 C 0.9081 0.74567 0.29952 0.0
C423 C 0.89869 0.71346 0.25447 0.0
C424 C 0.89631 0.72905 0.26975 0.0
C425 C 0.88567 0.76812 0.319 0.0
C426 C 0.89002 0.75587 0.30123 0.0
H427 H 0.88956 0.70464 0.20558 0.0
H428 H 0.88722 0.73117 0.23022 0.0
H429 H 0.92512 0.72444 0.28321 0.0
H430 H 0.88906 0.76574 0.36932 0.0
H431 H 0.8997 0.74795 0.33981 0.0
C432 C 0.2745 0.09358 0.20312 0.0
C433 C 0.27226 0.08395 0.18481 0.0
C434 C 0.259 0.09364 0.21685 0.0
C435 C 0.20473 0.08767 0.21917 0.0
H436 H 0.21384 0.08613 0.27594 0.0
C437 C 0.13997 0.09283 0.27362 0.0
C438 C 0.14231 0.10773 0.28796 0.0
C439 C 0.15628 0.08614 0.26279 0.0
C440 C 0.2111 0.08653 0.26011 0.0
H441 H 0.25242 0.06622 0.16673 0.0
H442 H 0.2256 0.06593 0.19076 0.0
H443 H 0.24171 0.08192 0.25323 0.0
H444 H 0.16364 0.12635 0.30323 0.0
H445 H 0.19208 0.1147 0.28435 0.0
H446 H 0.17424 0.09257 0.22599 0.0
C447 C 0.23908 0.07387 0.1944 0.0
C448 C 0.22705 0.08423 0.24712 0.0
C449 C 0.25448 0.07396 0.18065 0.0
C450 C 0.1614 0.1149 0.29219 0.0
C451 C 0.1777 0.10814 0.28146 0.0
C452 C 0.18882 0.08984 0.23213 0.0
C453 C 0.24104 0.08393 0.21255 0.0
C454 C 0.22407 0.08505 0.22649 0.0
C455 C 0.17521 0.09416 0.26623 0.0
C456 C 0.19186 0.08958 0.25272 0.0
H457 H 0.28808 0.10139 0.2067 0.0
H458 H 0.26092 0.10175 0.23057 0.0
H459 H 0.20193 0.08875 0.20339 0.0
H460 H 0.12542 0.08698 0.27011 0.0
H461 H 0.15399 0.07516 0.2513 0.0
C462 C 0.32025 0.86907 0.80203 0.0
C463 C 0.3388 0.87755 0.79794 0.0
C464 C 0.30359 0.87452 0.79101 0.0
C465 C 0.28464 0.91099 0.7541 0.0
H466 H 0.25358 0.86611 0.7359 0.0
C467 C 0.23761 0.91224 0.68285 0.0
C468 C 0.21913 0.90268 0.68304 0.0
C469 C 0.25023 0.91103 0.69921 0.0
C470 C 0.26186 0.87886 0.7411 0.0
H471 H 0.35433 0.8991 0.7799 0.0
H472 H 0.32538 0.90833 0.76037 0.0
H473 H 0.27909 0.86115 0.76088 0.0
H474 H 0.19916 0.88466 0.7006 0.0
H475 H 0.22133 0.88243 0.72922 0.0
H476 H 0.26779 0.92851 0.73365 0.0
C477 C 0.32356 0.89769 0.77225 0.0
C478 C 0.27648 0.87604 0.75547 0.0
C479 C 0.3402 0.89234 0.78338 0.0
C480 C 0.21337 0.89211 0.70002 0.0
C481 C 0.22605 0.8908 0.71637 0.0
C482 C 0.27006 0.91378 0.73963 0.0
C483 C 0.30518 0.88844 0.77558 0.0
C484 C 0.28827 0.89201 0.76192 0.0
C485 C 0.24467 0.90014 0.71606 0.0
C486 C 0.25876 0.89767 0.73275 0.0
H487 H 0.3187 0.85775 0.81331 0.0
H488 H 0.28957 0.86742 0.79424 0.0
H489 H 0.29325 0.92365 0.75897 0.0
H490 H 0.24244 0.92052 0.66997 0.0
H491 H 0.2646 0.91815 0.69844 0.0
C492 C 0.74971 0.41312 0.81545 0.0
C493 C 0.76766 0.40333 0.81171 0.0
C494 C 0.73507 0.41411 0.80086 0.0
C495 C 0.72602 0.40706 0.74696 0.0
H496 H 0.67223 0.39683 0.76425 0.0
C497 C 0.66386 0.37714 0.69658 0.0
C498 C 0.64432 0.38322 0.70024 0.0
C499 C 0.67938 0.38409 0.70839 0.0
C500 C 0.68709 0.40013 0.75919 0.0
H501 H 0.78456 0.38714 0.78974 0.0
H502 H 0.75876 0.38835 0.76438 0.0
H503 H 0.69848 0.39975 0.78871 0.0
H504 H 0.62583 0.40249 0.71808 0.0
H505 H 0.65299 0.4147 0.73871 0.0
H506 H 0.71455 0.40661 0.7173 0.0
C507 C 0.75612 0.39563 0.77845 0.0
C508 C 0.70217 0.40178 0.77323 0.0
C509 C 0.77084 0.39477 0.79301 0.0
C510 C 0.64074 0.39744 0.71501 0.0
C511 C 0.65625 0.40435 0.72687 0.0
C512 C 0.7109 0.4053 0.73288 0.0
C513 C 0.738 0.40518 0.78226 0.0
C514 C 0.72186 0.40497 0.76729 0.0
C515 C 0.67561 0.39721 0.72411 0.0
C516 C 0.69133 0.40154 0.73885 0.0
H517 H 0.74694 0.42004 0.82967 0.0
H518 H 0.72142 0.42185 0.80418 0.0
H519 H 0.74098 0.40985 0.74193 0.0
H520 H 0.66706 0.36623 0.68523 0.0
H521 H 0.69411 0.37822 0.70597 0.0
C522 C 0.83525 0.61387 0.19192 0.0
C523 C 0.85322 0.60839 0.20089 0.0
C524 C 0.81724 0.60784 0.20007 0.0
C525 C 0.79442 0.57481 0.23795 0.0
H526 H 0.75772 0.61861 0.24411 0.0
C527 C 0.73873 0.58007 0.30179 0.0
C528 C 0.71985 0.58797 0.29806 0.0
C529 C 0.75302 0.57971 0.28691 0.0
C530 C 0.76758 0.60609 0.2422 0.0
H531 H 0.86655 0.59133 0.22464 0.0
H532 H 0.83514 0.58112 0.23914 0.0
H533 H 0.78648 0.62244 0.22284 0.0
H534 H 0.70092 0.60129 0.27574 0.0
H535 H 0.72606 0.60081 0.24965 0.0
H536 H 0.77583 0.55881 0.25808 0.0
C537 C 0.83489 0.58985 0.22567 0.0
C538 C 0.78408 0.60826 0.22997 0.0
C539 C 0.85291 0.59579 0.21743 0.0
C540 C 0.7154 0.5952 0.27904 0.0
C541 C 0.72977 0.59495 0.26414 0.0
C542 C 0.77793 0.57267 0.25025 0.0
C543 C 0.81685 0.59632 0.21743 0.0
C544 C 0.79795 0.59282 0.22808 0.0
C545 C 0.74877 0.58732 0.26799 0.0
C546 C 0.76463 0.58848 0.25288 0.0
H547 H 0.83506 0.62343 0.17901 0.0
H548 H 0.8036 0.61275 0.19315 0.0
H549 H 0.80465 0.56253 0.23654 0.0
H550 H 0.74256 0.57433 0.3163 0.0
H551 H 0.76762 0.57403 0.29041 0.0
C552 C 0.28443 0.13499 0.09978 0.0
C553 C 0.2998 0.13573 0.11381 0.0
C554 C 0.27465 0.15233 0.09408 0.0
C555 C 0.26317 0.20123 0.11479 0.0
H556 H 0.23875 0.2101 0.06347 0.0
C557 C 0.21218 0.26809 0.10033 0.0
C558 C 0.19426 0.26368 0.09069 0.0
C559 C 0.2274 0.25409 0.10104 0.0
C560 C 0.24546 0.20777 0.07789 0.0
H561 H 0.31811 0.15524 0.13165 0.0
H562 H 0.30137 0.18556 0.12136 0.0
H563 H 0.26227 0.18287 0.06766 0.0
H564 H 0.1783 0.24136 0.07389 0.0
H565 H 0.20479 0.21682 0.07531 0.0
H566 H 0.24609 0.22579 0.12515 0.0
C567 C 0.29648 0.17157 0.11516 0.0
C568 C 0.25892 0.19221 0.08028 0.0
C569 C 0.30616 0.15422 0.12096 0.0
C570 C 0.19195 0.24515 0.08146 0.0
C571 C 0.20718 0.23117 0.08213 0.0
C572 C 0.2498 0.2168 0.11237 0.0
C573 C 0.28015 0.17074 0.10222 0.0
C574 C 0.26767 0.18855 0.09886 0.0
C575 C 0.22499 0.23542 0.09208 0.0
C576 C 0.24054 0.22003 0.094 0.0
H577 H 0.27922 0.12092 0.09403 0.0
H578 H 0.26204 0.15112 0.0842 0.0
H579 H 0.26931 0.19863 0.1294 0.0
H580 H 0.21441 0.28231 0.10748 0.0
H581 H 0.24103 0.25785 0.10865 0.0
C582 C 0.77749 0.35222 0.90004 0.0
C583 C 0.79408 0.35141 0.88756 0.0
C584 C 0.76857 0.33473 0.90666 0.0
C585 C 0.7628 0.28337 0.88993 0.0
H586 H 0.73301 0.27785 0.9387 0.0
C587 C 0.71126 0.21674 0.90309 0.0
C588 C 0.69213 0.22197 0.90932 0.0
C589 C 0.72663 0.23061 0.90381 0.0
C590 C 0.74131 0.27919 0.92504 0.0
H591 H 0.81544 0.33191 0.87364 0.0
H592 H 0.80022 0.30142 0.88561 0.0
H593 H 0.75561 0.30588 0.93464 0.0
H594 H 0.67418 0.24549 0.92184 0.0
H595 H 0.70091 0.26972 0.92292 0.0
H596 H 0.74812 0.25707 0.88008 0.0
C597 C 0.79372 0.31547 0.88982 0.0
C598 C 0.75422 0.29522 0.9227 0.0
C599 C 0.8025 0.33293 0.88305 0.0
C600 C 0.68877 0.24107 0.91687 0.0
C601 C 0.70413 0.25489 0.91767 0.0
C602 C 0.74998 0.26733 0.8923 0.0
C603 C 0.77621 0.31615 0.90104 0.0
C604 C 0.76474 0.29776 0.90491 0.0
C605 C 0.72314 0.24991 0.91087 0.0
C606 C 0.73873 0.26534 0.90967 0.0
H607 H 0.77071 0.36629 0.90374 0.0
H608 H 0.75502 0.33581 0.91515 0.0
H609 H 0.77037 0.28501 0.87589 0.0
H610 H 0.71428 0.20207 0.89731 0.0
H611 H 0.74118 0.22633 0.89861 0.0
C612 C 0.77942 0.77609 0.39336 0.0
C613 C 0.79676 0.77178 0.40406 0.0
C614 C 0.76442 0.76192 0.39161 0.0
C615 C 0.74579 0.71444 0.41214 0.0
H616 H 0.72737 0.70563 0.35839 0.0
C617 C 0.71152 0.64071 0.38561 0.0
C618 C 0.69707 0.64125 0.37062 0.0
C619 C 0.72055 0.65821 0.39209 0.0
C620 C 0.73199 0.7081 0.37357 0.0
H621 H 0.81169 0.74964 0.42197 0.0
H622 H 0.78558 0.72486 0.41877 0.0
H623 H 0.74881 0.73368 0.36548 0.0
H624 H 0.6798 0.66052 0.35154 0.0
H625 H 0.69526 0.69108 0.36313 0.0
H626 H 0.72928 0.68852 0.42012 0.0
C627 C 0.78348 0.73921 0.41189 0.0
C628 C 0.74432 0.7242 0.37763 0.0
C629 C 0.79849 0.75335 0.4136 0.0
C630 C 0.69105 0.65966 0.36299 0.0
C631 C 0.69998 0.67715 0.36955 0.0
C632 C 0.73338 0.69834 0.4081 0.0
C633 C 0.76644 0.7432 0.40056 0.0
C634 C 0.75165 0.72735 0.39688 0.0
C635 C 0.71522 0.67658 0.38378 0.0
C636 C 0.72662 0.69478 0.38868 0.0
H637 H 0.77765 0.79021 0.38594 0.0
H638 H 0.75135 0.76549 0.38297 0.0
H639 H 0.75102 0.71666 0.42718 0.0
H640 H 0.71646 0.62672 0.39175 0.0
H641 H 0.73237 0.65721 0.40294 0.0
C642 C 0.19191 0.83503 0.61131 0.0
C643 C 0.20093 0.85313 0.60633 0.0
C644 C 0.20057 0.8171 0.60567 0.0
C645 C 0.24043 0.79496 0.57452 0.0
H646 H 0.24474 0.75784 0.61823 0.0
C647 C 0.30554 0.74135 0.58438 0.0
C648 C 0.30193 0.7223 0.59193 0.0
C649 C 0.29016 0.75503 0.58266 0.0
C650 C 0.24336 0.76782 0.60572 0.0
H651 H 0.22538 0.86674 0.59061 0.0
H652 H 0.24074 0.83553 0.58115 0.0
H653 H 0.2227 0.78617 0.62105 0.0
H654 H 0.27933 0.70234 0.60304 0.0
H655 H 0.25237 0.72643 0.60022 0.0
H656 H 0.26194 0.777 0.55964 0.0
C657 C 0.22684 0.83509 0.58913 0.0
C658 C 0.23069 0.78407 0.6073 0.0
C659 C 0.21812 0.85301 0.59467 0.0
C660 C 0.28253 0.71698 0.59725 0.0
C661 C 0.26713 0.73074 0.59567 0.0
C662 C 0.2532 0.77875 0.57299 0.0
C663 C 0.21847 0.81692 0.59505 0.0
C664 C 0.22948 0.79813 0.59194 0.0
C665 C 0.27086 0.74998 0.58857 0.0
C666 C 0.25518 0.76532 0.5888 0.0
H667 H 0.17853 0.8347 0.62014 0.0
H668 H 0.19355 0.80337 0.61015 0.0
H669 H 0.23956 0.80532 0.56228 0.0
H670 H 0.32034 0.74583 0.5801 0.0
H671 H 0.29353 0.76982 0.5774 0.0
C672 C 0.89066 0.72529 0.86199 0.0
C673 C 0.8764 0.71043 0.85896 0.0
C674 C 0.89864 0.73553 0.84587 0.0
C675 C 0.90379 0.73511 0.79115 0.0
H676 H 0.90172 0.79227 0.79691 0.0
C677 C 0.90295 0.78905 0.72458 0.0
C678 C 0.91218 0.80757 0.72687 0.0
C679 C 0.90188 0.77587 0.74054 0.0
C680 C 0.9028 0.77635 0.79511 0.0
H681 H 0.86005 0.69389 0.83672 0.0
H682 H 0.87388 0.71183 0.80861 0.0
H683 H 0.89462 0.77129 0.82527 0.0
H684 H 0.92847 0.82643 0.7472 0.0
H685 H 0.92703 0.80331 0.77487 0.0
H686 H 0.91163 0.74025 0.76082 0.0
C687 C 0.879 0.71551 0.82339 0.0
C688 C 0.89871 0.76431 0.8114 0.0
C689 C 0.87098 0.70533 0.8395 0.0
C690 C 0.92105 0.81234 0.74509 0.0
C691 C 0.92015 0.79913 0.76097 0.0
C692 C 0.90797 0.74718 0.77483 0.0
C693 C 0.89255 0.73104 0.82643 0.0
C694 C 0.89889 0.74358 0.80955 0.0
C695 C 0.91016 0.78093 0.75903 0.0
C696 C 0.90726 0.76795 0.77657 0.0
H697 H 0.89519 0.72945 0.87683 0.0
H698 H 0.90925 0.74727 0.84863 0.0
H699 H 0.90421 0.71916 0.78935 0.0
H700 H 0.89598 0.78502 0.71067 0.0
H701 H 0.8939 0.76207 0.73859 0.0
C702 C 0.59064 0.20896 0.21889 0.0
C703 C 0.57795 0.19247 0.21889 0.0
C704 C 0.58867 0.22372 0.23324 0.0
C705 C 0.57163 0.22962 0.28421 0.0
H706 H 0.58487 0.28476 0.27475 0.0
C707 C 0.5863 0.28317 0.34893 0.0
C708 C 0.60462 0.29288 0.34721 0.0
C709 C 0.57777 0.2739 0.33243 0.0
C710 C 0.58102 0.26943 0.2776 0.0
H711 H 0.55259 0.17896 0.23323 0.0
H712 H 0.54907 0.20486 0.25831 0.0
H713 H 0.57922 0.2626 0.24665 0.0
H714 H 0.6278 0.30161 0.32678 0.0
H715 H 0.613 0.2855 0.29811 0.0
H716 H 0.57424 0.23621 0.31511 0.0
C717 C 0.56069 0.20624 0.24735 0.0
C718 C 0.57783 0.25675 0.26154 0.0
C719 C 0.56266 0.19146 0.23296 0.0
C720 C 0.6137 0.29414 0.32855 0.0
C721 C 0.60513 0.28505 0.31208 0.0
C722 C 0.57478 0.2423 0.30026 0.0
C723 C 0.57394 0.22232 0.24789 0.0
C724 C 0.57378 0.23655 0.26468 0.0
C725 C 0.58734 0.2744 0.31393 0.0
C726 C 0.58018 0.26217 0.29711 0.0
H727 H 0.60254 0.21014 0.20819 0.0
H728 H 0.59929 0.23576 0.23338 0.0
H729 H 0.56874 0.2141 0.28716 0.0
H730 H 0.57896 0.28203 0.36315 0.0
H731 H 0.56397 0.26591 0.33424 0.0
C732 C 0.42279 0.68933 0.26633 0.0
C733 C 0.409 0.69211 0.28163 0.0
C734 C 0.42468 0.70339 0.25126 0.0
C735 C 0.40917 0.75427 0.23575 0.0
H736 H 0.41066 0.73105 0.18316 0.0
C737 C 0.37445 0.78969 0.16663 0.0
C738 C 0.384 0.78753 0.14829 0.0
C739 C 0.38235 0.781 0.18366 0.0
C740 C 0.41066 0.73785 0.19772 0.0
H741 H 0.38697 0.71208 0.2937 0.0
H742 H 0.38972 0.7363 0.2671 0.0
H743 H 0.41568 0.71008 0.21197 0.0
H744 H 0.40978 0.77546 0.13346 0.0
H745 H 0.4235 0.75996 0.1633 0.0
H746 H 0.40295 0.78188 0.22129 0.0
C747 C 0.39944 0.72353 0.26688 0.0
C748 C 0.41357 0.72582 0.21429 0.0
C749 C 0.39773 0.70958 0.28208 0.0
C750 C 0.40208 0.77728 0.14742 0.0
C751 C 0.4099 0.76839 0.16444 0.0
C752 C 0.40607 0.76627 0.21914 0.0
C753 C 0.41262 0.72038 0.25104 0.0
C754 C 0.41237 0.73377 0.23353 0.0
C755 C 0.39988 0.76984 0.18263 0.0
C756 C 0.40631 0.75806 0.20001 0.0
H757 H 0.43183 0.67608 0.26576 0.0
H758 H 0.43526 0.70069 0.23953 0.0
H759 H 0.40853 0.76095 0.25033 0.0
H760 H 0.36053 0.7976 0.16774 0.0
H761 H 0.37419 0.78218 0.19742 0.0
C762 C 0.11352 0.19763 0.66166 0.0
C763 C 0.10528 0.20113 0.64284 0.0
C764 C 0.10711 0.20849 0.67807 0.0
C765 C 0.08758 0.25759 0.68814 0.0
H766 H 0.0841 0.23921 0.7425 0.0
C767 C 0.07425 0.31241 0.75147 0.0
C768 C 0.08575 0.30987 0.76865 0.0
C769 C 0.07339 0.29755 0.73713 0.0
C770 C 0.08515 0.24456 0.7274 0.0
H771 H 0.08277 0.21744 0.6267 0.0
H772 H 0.07148 0.2363 0.6554 0.0
H773 H 0.08748 0.21513 0.71557 0.0
H774 H 0.10497 0.28966 0.78459 0.0
H775 H 0.104 0.26385 0.75919 0.0
H776 H 0.08611 0.28694 0.69976 0.0
C777 C 0.08312 0.22543 0.6574 0.0
C778 C 0.08699 0.23078 0.71201 0.0
C779 C 0.08951 0.21457 0.641 0.0
C780 C 0.09601 0.29199 0.77146 0.0
C781 C 0.09532 0.27716 0.75698 0.0
C782 C 0.08588 0.27132 0.70346 0.0
C783 C 0.09237 0.22303 0.67593 0.0
C784 C 0.08839 0.23719 0.69224 0.0
C785 C 0.08421 0.2799 0.73951 0.0
C786 C 0.08481 0.26501 0.7233 0.0
H787 H 0.12566 0.1873 0.66352 0.0
H788 H 0.11459 0.20637 0.69214 0.0
H789 H 0.08909 0.26303 0.67311 0.0
H790 H 0.06598 0.32595 0.74905 0.0
H791 H 0.06436 0.29999 0.72407 0.0
C792 C 0.73396 0.91373 0.7894 0.0
C793 C 0.71615 0.90337 0.78645 0.0
C794 C 0.74929 0.91229 0.77564 0.0
C795 C 0.76882 0.87771 0.73903 0.0
H796 H 0.80396 0.92126 0.72586 0.0
C797 C 0.838 0.86481 0.69164 0.0
C798 C 0.85553 0.87346 0.69883 0.0
C799 C 0.81965 0.87063 0.69911 0.0
C800 C 0.79432 0.90895 0.72946 0.0
H801 H 0.70003 0.88406 0.76641 0.0
H802 H 0.72687 0.88154 0.74227 0.0
H803 H 0.77378 0.92771 0.74473 0.0
H804 H 0.86762 0.89551 0.71886 0.0
H805 H 0.83557 0.90541 0.73226 0.0
H806 H 0.78956 0.85883 0.72446 0.0
C807 C 0.72902 0.89063 0.75534 0.0
C808 C 0.77703 0.91265 0.74022 0.0
C809 C 0.71365 0.89213 0.7691 0.0
C810 C 0.85433 0.8886 0.71305 0.0
C811 C 0.83595 0.89435 0.72063 0.0
C812 C 0.78609 0.87401 0.72835 0.0
C813 C 0.74713 0.9004 0.75866 0.0
C814 C 0.76428 0.897 0.74539 0.0
C815 C 0.81844 0.88513 0.71403 0.0
C816 C 0.79921 0.88953 0.72371 0.0
H817 H 0.73629 0.92254 0.80264 0.0
H818 H 0.76314 0.91981 0.77873 0.0
H819 H 0.75948 0.86529 0.74306 0.0
H820 H 0.83848 0.85323 0.68052 0.0
H821 H 0.80641 0.86351 0.69345 0.0
C822 C 0.64306 0.1055 0.21679 0.0
C823 C 0.64282 0.12111 0.20303 0.0
C824 C 0.66081 0.09977 0.22582 0.0
C825 C 0.70959 0.12051 0.23858 0.0
H826 H 0.7208 0.06659 0.25505 0.0
C827 C 0.77767 0.10191 0.28656 0.0
C828 C 0.77316 0.09072 0.30352 0.0
C829 C 0.7639 0.10353 0.27113 0.0
C830 C 0.71787 0.08171 0.2505 0.0
H831 H 0.66103 0.14222 0.18705 0.0
H832 H 0.69203 0.13196 0.20247 0.0
H833 H 0.69251 0.07318 0.23339 0.0
H834 H 0.75123 0.0717 0.31729 0.0
H835 H 0.72726 0.07453 0.29042 0.0
H836 H 0.73464 0.12911 0.25602 0.0
C837 C 0.67849 0.12445 0.20668 0.0
C838 C 0.70165 0.08549 0.23816 0.0
C839 C 0.66075 0.13026 0.19778 0.0
C840 C 0.75507 0.08049 0.30441 0.0
C841 C 0.7414 0.08198 0.28895 0.0
C842 C 0.72583 0.11672 0.25082 0.0
C843 C 0.67867 0.10946 0.22115 0.0
C844 C 0.69708 0.105 0.2324 0.0
C845 C 0.74549 0.09384 0.27233 0.0
C846 C 0.72989 0.09734 0.25726 0.0
H847 H 0.62944 0.09819 0.22111 0.0
H848 H 0.66036 0.08831 0.23706 0.0
H849 H 0.70635 0.13575 0.23471 0.0
H850 H 0.79155 0.1099 0.28547 0.0
H851 H 0.7675 0.11263 0.2584 0.0
C852 C 0.34553 0.60249 0.28979 0.0
C853 C 0.34598 0.62215 0.29662 0.0
C854 C 0.32951 0.59568 0.2785 0.0
C855 C 0.30278 0.59153 0.24256 0.0
H856 H 0.2491 0.61047 0.25012 0.0
C857 C 0.24668 0.59531 0.17875 0.0
C858 C 0.22669 0.59121 0.18267 0.0
C859 C 0.26042 0.59624 0.1942 0.0
C860 C 0.26393 0.60478 0.24793 0.0
H861 H 0.3297 0.64984 0.29781 0.0
H862 H 0.30204 0.63814 0.27791 0.0
H863 H 0.27391 0.6164 0.27572 0.0
H864 H 0.20539 0.58453 0.20574 0.0
H865 H 0.22947 0.58592 0.23278 0.0
H866 H 0.29282 0.57991 0.21478 0.0
C867 C 0.31382 0.62783 0.28143 0.0
C868 C 0.27821 0.60837 0.26251 0.0
C869 C 0.32977 0.6346 0.29273 0.0
C870 C 0.22071 0.58782 0.20231 0.0
C871 C 0.23448 0.58869 0.21779 0.0
C872 C 0.2885 0.58788 0.22803 0.0
C873 C 0.31369 0.60842 0.27383 0.0
C874 C 0.29791 0.60222 0.25977 0.0
C875 C 0.25448 0.59299 0.21391 0.0
C876 C 0.26904 0.5949 0.23031 0.0
H877 H 0.35778 0.59253 0.29268 0.0
H878 H 0.32971 0.58055 0.2731 0.0
H879 H 0.31784 0.58672 0.23988 0.0
H880 H 0.2517 0.59804 0.16375 0.0
H881 H 0.27563 0.59995 0.19072 0.0
C882 C 0.27555 0.39289 0.70462 0.0
C883 C 0.27098 0.40077 0.6859 0.0
C884 C 0.26144 0.39305 0.71974 0.0
C885 C 0.21412 0.4159 0.73524 0.0
H886 H 0.20573 0.3658 0.76211 0.0
C887 C 0.14059 0.39422 0.77232 0.0
C888 C 0.14107 0.38159 0.78885 0.0
C889 C 0.15815 0.39963 0.76284 0.0
C890 C 0.20811 0.38005 0.75511 0.0
H891 H 0.24835 0.41543 0.66839 0.0
H892 H 0.22366 0.41553 0.6947 0.0
H893 H 0.23358 0.36943 0.73965 0.0
H894 H 0.16023 0.36586 0.80933 0.0
H895 H 0.19092 0.37562 0.79301 0.0
H896 H 0.18831 0.42635 0.75037 0.0
C897 C 0.23818 0.40943 0.69779 0.0
C898 C 0.22407 0.38211 0.74219 0.0
C899 C 0.25225 0.40921 0.68268 0.0
C900 C 0.15944 0.37545 0.79646 0.0
C901 C 0.17699 0.38096 0.78707 0.0
C902 C 0.19817 0.41387 0.74824 0.0
C903 C 0.24256 0.40116 0.71641 0.0
C904 C 0.227 0.3999 0.7318 0.0
C905 C 0.17651 0.3926 0.7698 0.0
C906 C 0.19475 0.39578 0.75799 0.0
H907 H 0.28993 0.3864 0.70754 0.0
H908 H 0.26527 0.38672 0.734 0.0
H909 H 0.21621 0.42988 0.72762 0.0
H910 H 0.12662 0.39917 0.76615 0.0
H911 H 0.15723 0.40846 0.74946 0.0
C912 C 0.78086 0.72133 0.89323 0.0
C913 C 0.7984 0.72648 0.9032 0.0
C914 C 0.76586 0.73532 0.89058 0.0
C915 C 0.74749 0.78414 0.90763 0.0
H916 H 0.72768 0.78835 0.85381 0.0
C917 C 0.71052 0.85466 0.87631 0.0
C918 C 0.69579 0.85247 0.86176 0.0
C919 C 0.72025 0.83803 0.88392 0.0
C920 C 0.73269 0.78718 0.86903 0.0
H921 H 0.81375 0.75002 0.91886 0.0
H922 H 0.78763 0.77453 0.91406 0.0
H923 H 0.74976 0.76133 0.86255 0.0
H924 H 0.67871 0.83122 0.8447 0.0
H925 H 0.69534 0.80218 0.85828 0.0
H926 H 0.73067 0.8103 0.91397 0.0
C927 C 0.78537 0.75964 0.90845 0.0
C928 C 0.7454 0.77167 0.87402 0.0
C929 C 0.80039 0.74566 0.91107 0.0
C930 C 0.69019 0.83334 0.85574 0.0
C931 C 0.69978 0.81673 0.86346 0.0
C932 C 0.73469 0.79965 0.90265 0.0
C933 C 0.7681 0.75472 0.89788 0.0
C934 C 0.75317 0.77015 0.89329 0.0
C935 C 0.71531 0.8189 0.8772 0.0
C936 C 0.72738 0.8015 0.8832 0.0
H937 H 0.77888 0.7066 0.88712 0.0
H938 H 0.7526 0.73105 0.88257 0.0
H939 H 0.75309 0.78319 0.92266 0.0
H940 H 0.71512 0.86926 0.88121 0.0
H941 H 0.73226 0.84026 0.89435 0.0
C942 C 0.22132 0.63246 0.08758 0.0
C943 C 0.20611 0.63579 0.10134 0.0
C944 C 0.23242 0.64831 0.08026 0.0
C945 C 0.23607 0.70328 0.07799 0.0
H946 H 0.29202 0.69321 0.08624 0.0
C947 C 0.29293 0.76534 0.09285 0.0
C948 C 0.31242 0.76282 0.08611 0.0
C949 C 0.27893 0.75029 0.09026 0.0
C950 C 0.27652 0.69626 0.0834 0.0
H951 H 0.18941 0.65839 0.11692 0.0
H952 H 0.20886 0.68605 0.10428 0.0
H953 H 0.26864 0.66601 0.08832 0.0
H954 H 0.33236 0.74308 0.07051 0.0
H955 H 0.30788 0.71697 0.0656 0.0
H956 H 0.24402 0.73371 0.0736 0.0
C957 C 0.21221 0.67123 0.09906 0.0
C958 C 0.26309 0.68061 0.08458 0.0
C959 C 0.20113 0.65537 0.1064 0.0
C960 C 0.3175 0.74531 0.07608 0.0
C961 C 0.30347 0.73035 0.07333 0.0
C962 C 0.24956 0.71897 0.0767 0.0
C963 C 0.22847 0.66779 0.08655 0.0
C964 C 0.24268 0.684 0.0823 0.0
C965 C 0.28413 0.73248 0.08072 0.0
C966 C 0.26991 0.71569 0.07982 0.0
H967 H 0.22538 0.61752 0.08329 0.0
H968 H 0.24466 0.64526 0.07036 0.0
H969 H 0.22043 0.70629 0.076 0.0
H970 H 0.28861 0.77872 0.10062 0.0
H971 H 0.26426 0.75233 0.09638 0.0
C972 C 0.27255 0.35518 0.59568 0.0
C973 C 0.28795 0.35184 0.60929 0.0
C974 C 0.26065 0.33947 0.58931 0.0
C975 C 0.25572 0.2848 0.58802 0.0
H976 H 0.19996 0.29589 0.59611 0.0
C977 C 0.19736 0.22308 0.59826 0.0
C978 C 0.17827 0.22627 0.59062 0.0
C979 C 0.21156 0.23815 0.59757 0.0
C980 C 0.21541 0.29257 0.59338 0.0
H981 H 0.30395 0.32934 0.62578 0.0
H982 H 0.28318 0.30192 0.61464 0.0
H983 H 0.22394 0.32261 0.59868 0.0
H984 H 0.1592 0.24741 0.57569 0.0
H985 H 0.18405 0.27352 0.57406 0.0
H986 H 0.24716 0.25465 0.58297 0.0
C987 C 0.28029 0.31663 0.60888 0.0
C988 C 0.22917 0.30792 0.59484 0.0
C989 C 0.29212 0.33235 0.61534 0.0
C990 C 0.17375 0.24461 0.5819 0.0
C991 C 0.18797 0.2596 0.58103 0.0
C992 C 0.24192 0.26942 0.5864 0.0
C993 C 0.26403 0.32015 0.59634 0.0
C994 C 0.24948 0.30416 0.59247 0.0
C995 C 0.20698 0.25665 0.58906 0.0
C996 C 0.22162 0.27309 0.58936 0.0
H997 H 0.26907 0.37005 0.59071 0.0
H998 H 0.24835 0.34254 0.57943 0.0
H999 H 0.2713 0.28153 0.58599 0.0
H1000 H 0.20123 0.20906 0.60508 0.0
H1001 H 0.22595 0.23546 0.60415 0.0
C1002 C 0.67459 0.25022 0.41305 0.0
C1003 C 0.67924 0.2681 0.40348 0.0
C1004 C 0.68853 0.23499 0.41419 0.0
C1005 C 0.74194 0.22335 0.40685 0.0
H1006 H 0.72165 0.17065 0.39595 0.0
C1007 C 0.78865 0.15913 0.37558 0.0
C1008 C 0.78461 0.13979 0.38217 0.0
C1009 C 0.77742 0.17509 0.38241 0.0
C1010 C 0.72754 0.1852 0.39939 0.0
H1011 H 0.70219 0.28435 0.38802 0.0
H1012 H 0.72638 0.25753 0.3894 0.0
H1013 H 0.6987 0.1981 0.39959 0.0
H1014 H 0.76647 0.12207 0.40187 0.0
H1015 H 0.74672 0.15002 0.41374 0.0
H1016 H 0.7709 0.21037 0.40571 0.0
C1017 C 0.71214 0.25537 0.39643 0.0
C1018 C 0.71437 0.20097 0.4015 0.0
C1019 C 0.69824 0.2707 0.3955 0.0
C1020 C 0.76983 0.13682 0.39648 0.0
C1021 C 0.75849 0.15278 0.40321 0.0
C1022 C 0.75514 0.20755 0.40458 0.0
C1023 C 0.70734 0.23723 0.40555 0.0
C1024 C 0.72141 0.2203 0.40497 0.0
C1025 C 0.76187 0.17199 0.39586 0.0
C1026 C 0.74806 0.18837 0.40057 0.0
H1027 H 0.66011 0.24791 0.41955 0.0
H1028 H 0.68447 0.22138 0.42167 0.0
H1029 H 0.74784 0.23798 0.40985 0.0
H1030 H 0.80001 0.16186 0.36459 0.0
H1031 H 0.78025 0.1897 0.37635 0.0
C1032 C 0.12501 0.19193 0.51958 0.0
C1033 C 0.11466 0.1816 0.53436 0.0
C1034 C 0.12041 0.18899 0.49965 0.0
C1035 C 0.10418 0.15067 0.46679 0.0
H1036 H 0.09703 0.19281 0.42834 0.0
C1037 C 0.09276 0.13433 0.38362 0.0
C1038 C 0.10109 0.14764 0.36999 0.0
C1039 C 0.0928 0.1387 0.40384 0.0
C1040 C 0.09928 0.18087 0.43883 0.0
H1041 H 0.09105 0.16059 0.54012 0.0
H1042 H 0.08334 0.15503 0.505 0.0
H1043 H 0.09897 0.20084 0.46356 0.0
H1044 H 0.11654 0.1756 0.3667 0.0
H1045 H 0.1175 0.18285 0.40207 0.0
H1046 H 0.10557 0.13075 0.44224 0.0
C1047 C 0.09483 0.16553 0.50895 0.0
C1048 C 0.10018 0.18549 0.45898 0.0
C1049 C 0.09917 0.16879 0.52896 0.0
C1050 C 0.10992 0.16514 0.37693 0.0
C1051 C 0.11027 0.16937 0.39718 0.0
C1052 C 0.10362 0.14606 0.44663 0.0
C1053 C 0.10565 0.1754 0.49417 0.0
C1054 C 0.10278 0.17044 0.47308 0.0
C1055 C 0.10147 0.15633 0.41087 0.0
C1056 C 0.10135 0.16113 0.43238 0.0
H1057 H 0.137 0.20191 0.52342 0.0
H1058 H 0.12903 0.19664 0.48847 0.0
H1059 H 0.1065 0.13886 0.47743 0.0
H1060 H 0.08567 0.1208 0.37861 0.0
H1061 H 0.08563 0.12844 0.41388 0.0
C1062 C 0.39024 0.80116 0.03149 0.0
C1063 C 0.38914 0.81583 0.04619 0.0
C1064 C 0.39521 0.8062 0.01208 0.0
C1065 C 0.38845 0.84776 0.97897 0.0
H1066 H 0.41658 0.81442 0.94163 0.0
C1067 C 0.38869 0.86287 0.89448 0.0
C1068 C 0.38676 0.84613 0.88223 0.0
C1069 C 0.39167 0.86064 0.91486 0.0
C1070 C 0.40858 0.82382 0.95188 0.0
H1071 H 0.39395 0.84697 0.05263 0.0
H1072 H 0.40261 0.85582 0.01857 0.0
H1073 H 0.41953 0.80795 0.97712 0.0
H1074 H 0.3858 0.814 0.88169 0.0
H1075 H 0.39046 0.81011 0.91728 0.0
H1076 H 0.37684 0.86313 0.95378 0.0
C1077 C 0.39946 0.84046 0.02206 0.0
C1078 C 0.41039 0.82019 0.97217 0.0
C1079 C 0.39464 0.83537 0.04154 0.0
C1080 C 0.38729 0.82716 0.89077 0.0
C1081 C 0.3902 0.82494 0.91112 0.0
C1082 C 0.38658 0.85134 0.95868 0.0
C1083 C 0.39905 0.82604 0.00702 0.0
C1084 C 0.39997 0.83184 0.98589 0.0
C1085 C 0.39272 0.84164 0.92335 0.0
C1086 C 0.39623 0.8391 0.9449 0.0
H1087 H 0.38614 0.78596 0.0347 0.0
H1088 H 0.39466 0.79478 0.0008 0.0
H1089 H 0.38 0.8568 0.98918 0.0
H1090 H 0.38847 0.87767 0.88825 0.0
H1091 H 0.39365 0.87379 0.92387 0.0
C1092 C 0.59824 0.33724 0.45573 0.0
C1093 C 0.60536 0.31845 0.45028 0.0
C1094 C 0.59335 0.3412 0.47546 0.0
C1095 C 0.58432 0.31793 0.52442 0.0
H1096 H 0.61176 0.36416 0.5449 0.0
C1097 C 0.60336 0.32622 0.60696 0.0
C1098 C 0.60112 0.34499 0.61564 0.0
C1099 C 0.60153 0.3239 0.58648 0.0
C1100 C 0.60373 0.35138 0.5394 0.0
H1101 H 0.6115 0.28868 0.46073 0.0
H1102 H 0.60293 0.29553 0.49506 0.0
H1103 H 0.61043 0.35849 0.50926 0.0
H1104 H 0.59547 0.3761 0.60978 0.0
H1105 H 0.59217 0.37203 0.57399 0.0
H1106 H 0.578 0.31058 0.5546 0.0
C1107 C 0.60111 0.30722 0.48419 0.0
C1108 C 0.60291 0.34817 0.51898 0.0
C1109 C 0.60612 0.30332 0.46454 0.0
C1110 C 0.59738 0.36146 0.60346 0.0
C1111 C 0.5955 0.35913 0.58297 0.0
C1112 C 0.5851 0.32116 0.54484 0.0
C1113 C 0.59533 0.32637 0.48998 0.0
C1114 C 0.59356 0.33119 0.51131 0.0
C1115 C 0.59737 0.34029 0.57428 0.0
C1116 C 0.59519 0.3377 0.55257 0.0
H1117 H 0.5975 0.34917 0.445 0.0
H1118 H 0.58871 0.35602 0.4795 0.0
H1119 H 0.57682 0.30484 0.51888 0.0
H1120 H 0.60628 0.31327 0.616 0.0
H1121 H 0.60345 0.30925 0.58018 0.0
C1122 C 0.90621 0.66769 0.11697 0.0
C1123 C 0.90549 0.6482 0.12428 0.0
C1124 C 0.90454 0.67129 0.09664 0.0
C1125 C 0.8824 0.64925 0.05261 0.0
H1126 H 0.91179 0.68967 0.02416 0.0
C1127 C 0.85436 0.68142 0.97965 0.0
C1128 C 0.86783 0.68232 0.96384 0.0
C1129 C 0.86095 0.67732 -0.00122 0.0
C1130 C 0.90362 0.67824 0.03192 0.0
H1131 H 0.90336 0.61717 0.11609 0.0
H1132 H 0.90044 0.62348 0.08061 0.0
H1133 H 0.92077 0.68167 0.0585 0.0
H1134 H 0.89882 0.68036 0.95569 0.0
H1135 H 0.91043 0.67331 0.98946 0.0
H1136 H 0.86508 0.64595 0.02626 0.0
C1137 C 0.90208 0.63596 0.09059 0.0
C1138 C 0.90864 0.67377 0.05154 0.0
C1139 C 0.90379 0.63236 0.11088 0.0
C1140 C 0.88814 0.67972 0.96764 0.0
C1141 C 0.89477 0.67574 0.9869 0.0
C1142 C 0.8773 0.65381 0.03313 0.0
C1143 C 0.90207 0.65547 0.08331 0.0
C1144 C 0.89793 0.65936 0.06211 0.0
C1145 C 0.88115 0.67413 0.00254 0.0
C1146 C 0.88766 0.66853 0.0227 0.0
H1147 H 0.90758 0.68017 0.12698 0.0
H1148 H 0.9044 0.68649 0.09146 0.0
H1149 H 0.87374 0.63822 0.06043 0.0
H1150 H 0.83863 0.68345 0.9772 0.0
H1151 H 0.85019 0.67648 0.01065 0.0
C1152 C 0.38432 0.08407 0.17431 0.0
C1153 C 0.3776 0.08425 0.1546 0.0
C1154 C 0.40457 0.08357 0.1785 0.0
C1155 C 0.45345 0.07226 0.15653 0.0
H1156 H 0.47281 0.1089 0.1964 0.0
C1157 C 0.53393 0.10023 0.16077 0.0
C1158 C 0.54174 0.1055 0.17935 0.0
C1159 C 0.51458 0.09305 0.1592 0.0
C1160 C 0.46767 0.09824 0.18553 0.0
H1161 H 0.38672 0.08386 0.12379 0.0
H1162 H 0.42214 0.08329 0.1311 0.0
H1163 H 0.43741 0.10586 0.19072 0.0
H1164 H 0.53621 0.1057 0.21101 0.0
H1165 H 0.50255 0.09279 0.2083 0.0
H1166 H 0.48386 0.06505 0.15102 0.0
C1167 C 0.41176 0.08324 0.14332 0.0
C1168 C 0.44734 0.09655 0.18223 0.0
C1169 C 0.39149 0.08375 0.13914 0.0
C1170 C 0.53049 0.10193 0.19647 0.0
C1171 C 0.51118 0.09467 0.19491 0.0
C1172 C 0.47383 0.07392 0.15986 0.0
C1173 C 0.41851 0.08324 0.16306 0.0
C1174 C 0.44002 0.08379 0.16749 0.0
C1175 C 0.50274 0.09094 0.1762 0.0
C1176 C 0.48117 0.08717 0.17419 0.0
H1177 H 0.37393 0.08432 0.18653 0.0
H1178 H 0.40931 0.08338 0.19385 0.0
H1179 H 0.44822 0.06207 0.14527 0.0
H1180 H 0.54228 0.1028 0.14732 0.0
H1181 H 0.50852 0.09043 0.14455 0.0
C1182 C 0.96657 0.89871 0.67728 0.0
C1183 C 0.96455 0.87887 0.68326 0.0
C1184 C 0.9854 0.90726 0.67565 0.0
C1185 C 0.03784 0.90065 0.69021 0.0
H1186 H 0.04972 0.92326 0.63872 0.0
C1187 C 0.11772 0.91979 0.66719 0.0
C1188 C 0.12313 0.91176 0.64876 0.0
C1189 C 0.09781 0.92067 0.67273 0.0
C1190 C 0.04658 0.91713 0.65322 0.0
H1191 H 0.98038 0.85268 0.6931 0.0
H1192 H 0.01308 0.86755 0.69037 0.0
H1193 H 0.01543 0.91571 0.64742 0.0
H1194 H 0.11202 0.89902 0.6214 0.0
H1195 H 0.07732 0.9004 0.6311 0.0
H1196 H 0.06905 0.90105 0.69563 0.0
C1197 C 0.00023 0.87656 0.68698 0.0
C1198 C 0.02696 0.913 0.65828 0.0
C1199 C 0.98152 0.86799 0.68838 0.0
C1200 C 0.10828 0.90523 0.63572 0.0
C1201 C 0.08839 0.9062 0.64121 0.0
C1202 C 0.05744 0.90486 0.6852 0.0
C1203 C 0.0024 0.89615 0.68027 0.0
C1204 C 0.02249 0.90408 0.67655 0.0
C1205 C 0.08297 0.91366 0.65988 0.0
C1206 C 0.06206 0.9125 0.6664 0.0
H1207 H 0.95369 0.90741 0.67325 0.0
H1208 H 0.98669 0.92241 0.67049 0.0
H1209 H 0.03476 0.89396 0.70448 0.0
H1210 H 0.12889 0.92503 0.67749 0.0
H1211 H 0.09403 0.9266 0.68716 0.0
C1212 C 0.01819 0.37448 0.7996 0.0
C1213 C 0.03384 0.38288 0.81042 0.0
C1214 C -0.00116 0.38095 0.80258 0.0
C1215 C 0.96797 0.39822 0.84182 0.0
H1216 H 0.92919 0.40683 0.80022 0.0
C1217 C 0.88464 0.40702 0.85879 0.0
C1218 C 0.87144 0.39796 0.84548 0.0
C1219 C 0.90477 0.40833 0.85429 0.0
C1220 C 0.9398 0.40429 0.812 0.0
H1221 H 0.04188 0.40512 0.8322 0.0
H1222 H 0.0077 0.41613 0.83785 0.0
H1223 H 0.96428 0.40481 0.79183 0.0
H1224 H 0.86885 0.38275 0.81729 0.0
H1225 H 0.90407 0.38425 0.80977 0.0
H1226 H 0.9436 0.39648 0.86188 0.0
C1227 C 0.01054 0.40471 0.82693 0.0
C1228 C 0.95987 0.40334 0.80719 0.0
C1229 C 0.03 0.39848 0.82365 0.0
C1230 C 0.87873 0.38989 0.82778 0.0
C1231 C 0.89887 0.39096 0.82338 0.0
C1232 C 0.94788 0.3989 0.84661 0.0
C1233 C 0.99479 0.39569 0.81668 0.0
C1234 C 0.97405 0.39992 0.82201 0.0
C1235 C 0.91212 0.40038 0.83648 0.0
C1236 C 0.93353 0.4015 0.83169 0.0
H1237 H 0.02082 0.36246 0.78928 0.0
H1238 H 0.98692 0.37365 0.79464 0.0
H1239 H 0.97865 0.39529 0.85346 0.0
H1240 H 0.87935 0.41354 0.87248 0.0
H1241 H 0.9145 0.41587 0.86461 0.0
C1242 C 0.46402 0.62303 0.34245 0.0
C1243 C 0.45219 0.61929 0.32573 0.0
C1244 C 0.4833 0.61576 0.34343 0.0
C1245 C 0.52467 0.60407 0.31196 0.0
H1246 H 0.54706 0.58112 0.35971 0.0
C1247 C 0.60814 0.58693 0.31884 0.0
C1248 C 0.61702 0.59162 0.33709 0.0
C1249 C 0.58755 0.5872 0.31682 0.0
C1250 C 0.54107 0.58765 0.34632 0.0
H1251 H 0.45091 0.60465 0.29715 0.0
H1252 H 0.48504 0.59223 0.2987 0.0
H1253 H 0.51139 0.58653 0.35745 0.0
H1254 H 0.61145 0.60032 0.36751 0.0
H1255 H 0.5756 0.60143 0.36387 0.0
H1256 H 0.55432 0.60618 0.30115 0.0
C1257 C 0.47924 0.60068 0.31105 0.0
C1258 C 0.52066 0.5906 0.345 0.0
C1259 C 0.45977 0.6077 0.3102 0.0
C1260 C 0.60499 0.59657 0.35328 0.0
C1261 C 0.58443 0.59702 0.35122 0.0
C1262 C 0.54512 0.60133 0.31335 0.0
C1263 C 0.49121 0.60484 0.32761 0.0
C1264 C 0.51234 0.59919 0.32796 0.0
C1265 C 0.57545 0.59232 0.33297 0.0
C1266 C 0.5536 0.59346 0.33072 0.0
H1267 H 0.45849 0.63186 0.35466 0.0
H1268 H 0.4923 0.61935 0.35627 0.0
H1269 H 0.51861 0.61094 0.29875 0.0
H1270 H 0.61709 0.58291 0.30615 0.0
H1271 H 0.58113 0.58326 0.30263 0.0
C1272 C 0.14559 0.37896 0.09836 0.0
C1273 C 0.16077 0.36535 0.0943 0.0
C1274 C 0.14973 0.39921 0.09952 0.0
C1275 C 0.19068 0.43399 0.10858 0.0
H1276 H 0.15359 0.47273 0.08786 0.0
C1277 C 0.19115 0.51546 0.13284 0.0
C1278 C 0.18695 0.53013 0.11869 0.0
C1279 C 0.18964 0.49545 0.12792 0.0
C1280 C 0.16423 0.46211 0.09347 0.0
H1281 H 0.19211 0.36216 0.08805 0.0
H1282 H 0.19931 0.39754 0.0899 0.0
H1283 H 0.14743 0.43749 0.08257 0.0
H1284 H 0.17838 0.53549 0.08817 0.0
H1285 H 0.17586 0.50035 0.07948 0.0
H1286 H 0.20751 0.45859 0.11944 0.0
C1287 C 0.18427 0.39257 0.09244 0.0
C1288 C 0.16057 0.44192 0.09067 0.0
C1289 C 0.18013 0.37233 0.09132 0.0
C1290 C 0.18167 0.52445 0.09937 0.0
C1291 C 0.18012 0.50438 0.09443 0.0
C1292 C 0.19435 0.45416 0.11136 0.0
C1293 C 0.16912 0.40622 0.0966 0.0
C1294 C 0.17361 0.42765 0.09845 0.0
C1295 C 0.1839 0.48969 0.10874 0.0
C1296 C 0.181 0.46841 0.10412 0.0
H1297 H 0.13052 0.37397 0.10073 0.0
H1298 H 0.13779 0.40933 0.10305 0.0
H1299 H 0.20094 0.42337 0.11488 0.0
H1300 H 0.19523 0.51941 0.14787 0.0
H1301 H 0.19237 0.4845 0.13936 0.0
C1302 C 0.67945 0.96673 0.86827 0.0
C1303 C 0.66779 0.95917 0.85277 0.0
C1304 C 0.67706 0.98637 0.8745 0.0
C1305 C 0.65603 0.03423 0.85713 0.0
H1306 H 0.66213 0.04968 0.91219 0.0
C1307 C 0.63403 0.11129 0.8859 0.0
C1308 C 0.64911 0.12147 0.89602 0.0
C1309 C 0.63603 0.09113 0.88175 0.0
C1310 C 0.66046 0.0455 0.89677 0.0
H1311 H 0.64397 0.96572 0.83221 0.0
H1312 H 0.63921 -0.00048 0.84354 0.0
H1313 H 0.66599 0.01486 0.90283 0.0
H1314 H 0.67775 0.11856 0.91035 0.0
H1315 H 0.68103 0.08309 0.90338 0.0
H1316 H 0.64999 0.0648 0.85122 0.0
C1317 C 0.65073 0.99073 0.85043 0.0
C1318 C 0.66277 0.02563 0.89136 0.0
C1319 C 0.65336 0.97129 0.844 0.0
C1320 C 0.66594 0.11104 0.90246 0.0
C1321 C 0.66779 0.09079 0.89858 0.0
C1322 C 0.65342 0.05397 0.86258 0.0
C1323 C 0.66276 -0.00135 0.86552 0.0
C1324 C 0.66054 0.01975 0.87146 0.0
C1325 C 0.65298 0.08077 0.88793 0.0
C1326 C 0.65559 0.05977 0.88242 0.0
H1327 H 0.6907 0.95764 0.87524 0.0
H1328 H 0.68672 0.99202 0.88602 0.0
H1329 H 0.65472 0.03039 0.84159 0.0
H1330 H 0.6209 0.11899 0.88079 0.0
H1331 H 0.62437 0.08363 0.8736 0.0
C1332 C 0.79882 0.02253 0.37814 0.0
C1333 C 0.81312 0.03717 0.38196 0.0
C1334 C 0.80197 0.00303 0.38422 0.0
C1335 C 0.84206 0.96852 0.39132 0.0
H1336 H 0.80153 0.93446 0.41362 0.0
C1337 C 0.85463 0.88458 0.40311 0.0
C1338 C 0.83853 0.87208 0.39888 0.0
C1339 C 0.8521 0.90514 0.40362 0.0
C1340 C 0.81295 0.94374 0.40721 0.0
H1341 H 0.8415 0.0432 0.39579 0.0
H1342 H 0.84717 0.00885 0.40615 0.0
H1343 H 0.79565 0.97007 0.41111 0.0
H1344 H 0.80729 0.87117 0.39147 0.0
H1345 H 0.80298 0.90699 0.39164 0.0
H1346 H 0.85902 0.94223 0.3865 0.0
C1347 C 0.83353 0.01256 0.39854 0.0
C1348 C 0.80962 0.96412 0.40594 0.0
C1349 C 0.83023 0.03218 0.39272 0.0
C1350 C 0.81994 0.88047 0.39487 0.0
C1351 C 0.81744 0.901 0.39517 0.0
C1352 C 0.84532 0.94811 0.39239 0.0
C1353 C 0.81958 -0.00223 0.39398 0.0
C1354 C 0.82402 0.97664 0.39769 0.0
C1355 C 0.83344 0.91359 0.39972 0.0
C1356 C 0.83066 0.93543 0.40002 0.0
H1357 H 0.78548 0.02602 0.3699 0.0
H1358 H 0.79106 0.99187 0.38039 0.0
H1359 H 0.8533 0.97785 0.38465 0.0
H1360 H 0.86911 0.87848 0.40641 0.0
H1361 H 0.86469 0.91436 0.40737 0.0
C1362 C 0.30988 0.46563 0.6054 0.0
C1363 C 0.31419 0.45901 0.62467 0.0
C1364 C 0.30943 0.48595 0.6012 0.0
C1365 C 0.30458 0.53453 0.62612 0.0
H1366 H 0.33142 0.55545 0.57984 0.0
C1367 C 0.3332 0.61414 0.62162 0.0
C1368 C 0.33045 0.62469 0.60391 0.0
C1369 C 0.32819 0.59413 0.62272 0.0
C1370 C 0.32357 0.54978 0.59264 0.0
H1371 H 0.32175 0.46829 0.65455 0.0
H1372 H 0.32129 0.5035 0.64719 0.0
H1373 H 0.32848 0.51957 0.58418 0.0
H1374 H 0.32017 0.62276 0.57349 0.0
H1375 H 0.3116 0.5875 0.57537 0.0
H1376 H 0.30033 0.56469 0.63496 0.0
C1377 C 0.31783 0.49315 0.6354 0.0
C1378 C 0.32188 0.52928 0.59512 0.0
C1379 C 0.31826 0.47296 0.63957 0.0
C1380 C 0.3224 0.61494 0.58734 0.0
C1381 C 0.31758 0.59481 0.58838 0.0
C1382 C 0.30636 0.55497 0.6237 0.0
C1383 C 0.31323 0.4999 0.61623 0.0
C1384 C 0.31284 0.52147 0.61217 0.0
C1385 C 0.32048 0.58424 0.60608 0.0
C1386 C 0.31631 0.56276 0.6072 0.0
H1387 H 0.30665 0.45516 0.59365 0.0
H1388 H 0.30581 0.49075 0.5863 0.0
H1389 H 0.29711 0.52895 0.63918 0.0
H1390 H 0.33939 0.6213 0.63462 0.0
H1391 H 0.33082 0.58626 0.63648 0.0
C1392 C 0.88467 0.80319 0.46614 0.0
C1393 C 0.86781 0.81396 0.46033 0.0
C1394 C 0.89238 0.80537 0.4853 0.0
C1395 C 0.89642 0.84045 0.52551 0.0
H1396 H 0.89702 0.79599 0.56195 0.0
C1397 C 0.89745 0.8523 0.60924 0.0
C1398 C 0.90729 0.83872 0.62154 0.0
C1399 C 0.89571 0.84874 0.58897 0.0
C1400 C 0.8974 0.80849 0.55189 0.0
H1401 H 0.84596 0.83556 0.4697 0.0
H1402 H 0.85976 0.83973 0.50289 0.0
H1403 H 0.88879 0.79052 0.52705 0.0
H1404 H 0.92335 0.81091 0.62232 0.0
H1405 H 0.92077 0.80488 0.58665 0.0
H1406 H 0.90503 0.85851 0.55005 0.0
C1407 C 0.86685 0.8295 0.49275 0.0
C1408 C 0.89263 0.80533 0.53196 0.0
C1409 C 0.85891 0.82702 0.47384 0.0
C1410 C 0.9156 0.82158 0.61315 0.0
C1411 C 0.91404 0.8181 0.59276 0.0
C1412 C 0.9015 0.84358 0.5453 0.0
C1413 C 0.8836 0.8187 0.49863 0.0
C1414 C 0.89154 0.8214 0.51881 0.0
C1415 C 0.904 0.83163 0.58044 0.0
C1416 C 0.9014 0.82775 0.5589 0.0
H1417 H 0.89176 0.79301 0.45597 0.0
H1418 H 0.90532 0.7969 0.48962 0.0
H1419 H 0.89587 0.85301 0.5155 0.0
H1420 H 0.89077 0.86557 0.61532 0.0
H1421 H 0.88745 0.85925 0.58009 0.0
C1422 C 0.63503 0.18053 0.9772 0.0
C1423 C 0.62193 0.18408 0.96143 0.0
C1424 C 0.62854 0.18173 -0.0033 0.0
C1425 C 0.58506 0.17729 0.02806 0.0
H1426 H 0.6212 0.19931 0.0671 0.0
C1427 C 0.57442 0.17263 0.11406 0.0
C1428 C 0.59071 0.16324 0.12305 0.0
C1429 C 0.57548 0.17875 0.09426 0.0
C1430 C 0.61087 0.19331 0.05634 0.0
H1431 H 0.59167 0.19154 0.95363 0.0
H1432 H 0.58016 0.19354 0.98812 0.0
H1433 H 0.62779 0.20411 0.0319 0.0
H1434 H 0.62085 0.15309 0.11865 0.0
H1435 H 0.62282 0.16414 0.08434 0.0
H1436 H 0.56851 0.16597 0.05274 0.0
C1437 C 0.5955 0.18987 0.98522 0.0
C1438 C 0.61465 0.19598 0.03624 0.0
C1439 C 0.60207 0.18874 0.96555 0.0
C1440 C 0.60808 0.16026 0.11207 0.0
C1441 C 0.60925 0.16669 0.09251 0.0
C1442 C 0.58118 0.17475 0.04827 0.0
C1443 C 0.60877 0.18653 0.00096 0.0
C1444 C 0.60229 0.18725 0.0219 0.0
C1445 C 0.59299 0.17595 0.08343 0.0
C1446 C 0.59453 0.18206 0.0625 0.0
H1447 H 0.65041 0.17682 0.97452 0.0
H1448 H 0.63901 0.17861 0.00848 0.0
H1449 H 0.57531 0.17037 0.01732 0.0
H1450 H 0.56084 0.17501 0.12224 0.0
H1451 H 0.56276 0.18582 0.08747 0.0
C1452 C 0.38989 0.63734 0.39454 0.0
C1453 C 0.38909 0.65395 0.38203 0.0
C1454 C 0.39083 0.63975 0.41508 0.0
C1455 C 0.40314 0.6772 0.45349 0.0
H1456 H 0.37425 0.64156 0.48806 0.0
C1457 C 0.38093 0.6945 0.53401 0.0
C1458 C 0.38134 0.67896 0.54785 0.0
C1459 C 0.38607 0.69105 0.51429 0.0
C1460 C 0.38269 0.65141 0.4786 0.0
H1461 H 0.388 0.68605 0.38108 0.0
H1462 H 0.38889 0.69028 0.41694 0.0
H1463 H 0.37331 0.63633 0.45238 0.0
H1464 H 0.38874 0.648 0.55236 0.0
H1465 H 0.39757 0.64192 0.51775 0.0
H1466 H 0.41177 0.69275 0.47985 0.0
C1467 C 0.38941 0.6754 0.41094 0.0
C1468 C 0.38214 0.64844 0.45815 0.0
C1469 C 0.38868 0.67299 0.3904 0.0
C1470 C 0.38828 0.66024 0.54197 0.0
C1471 C 0.39321 0.65673 0.52218 0.0
C1472 C 0.40352 0.68028 0.47396 0.0
C1473 C 0.39079 0.65882 0.42351 0.0
C1474 C 0.39215 0.66144 0.44532 0.0
C1475 C 0.39151 0.67195 0.50807 0.0
C1476 C 0.39313 0.66753 0.48667 0.0
H1477 H 0.3904 0.62248 0.38846 0.0
H1478 H 0.39209 0.62666 0.42429 0.0
H1479 H 0.41138 0.68724 0.44407 0.0
H1480 H 0.37569 0.70909 0.53819 0.0
H1481 H 0.38455 0.70302 0.50369 0.0
C1482 C 0.10827 0.31161 0.02638 0.0
C1483 C 0.1283 0.30816 0.03086 0.0
C1484 C 0.10235 0.31501 0.00679 0.0
C1485 C 0.1225 0.33361 0.96009 0.0
H1486 H 0.07584 0.31033 0.93579 0.0
C1487 C 0.09598 0.35834 0.88343 0.0
C1488 C 0.09158 0.34311 0.86995 0.0
C1489 C 0.09835 0.35416 0.90353 0.0
C1490 C 0.08892 0.31689 0.94241 0.0
H1491 H 0.1577 0.30469 0.01839 0.0
H1492 H 0.14737 0.3105 0.98432 0.0
H1493 H 0.08443 0.30188 0.97008 0.0
H1494 H 0.08552 0.31168 0.8669 0.0
H1495 H 0.08992 0.30429 0.90212 0.0
H1496 H 0.12729 0.34834 0.9325 0.0
C1497 C 0.13629 0.3109 0.99591 0.0
C1498 C 0.09374 0.31219 0.96203 0.0
C1499 C 0.14218 0.30748 0.0154 0.0
C1500 C 0.08897 0.32369 0.877 0.0
C1501 C 0.09135 0.31949 0.89715 0.0
C1502 C 0.11766 0.33837 0.94059 0.0
C1503 C 0.1164 0.31508 0.99145 0.0
C1504 C 0.1107 0.32036 0.97095 0.0
C1505 C 0.09641 0.33464 0.91054 0.0
C1506 C 0.10089 0.33 0.93151 0.0
H1507 H 0.09727 0.31218 0.03804 0.0
H1508 H 0.08693 0.31827 0.00375 0.0
H1509 H 0.13551 0.34035 0.96668 0.0
H1510 H 0.0979 0.37349 0.87843 0.0
H1511 H 0.10195 0.36618 0.91357 0.0
C1512 C 0.60205 0.88768 0.84217 0.0
C1513 C 0.61329 0.89427 0.82599 0.0
C1514 C 0.58142 0.88765 0.84119 0.0
C1515 C 0.53942 0.88917 0.80603 0.0
H1516 H 0.51 0.90214 0.85365 0.0
C1517 C 0.45372 0.8891 0.80912 0.0
C1518 C 0.44657 0.87637 0.82394 0.0
C1519 C 0.47367 0.89474 0.80902 0.0
C1520 C 0.51805 0.89861 0.84023 0.0
H1521 H 0.61189 0.90586 0.79604 0.0
H1522 H 0.57578 0.90617 0.79443 0.0
H1523 H 0.54602 0.90483 0.85372 0.0
H1524 H 0.45416 0.86035 0.85076 0.0
H1525 H 0.48878 0.87051 0.85082 0.0
H1526 H 0.5113 0.88284 0.79266 0.0
C1527 C 0.58288 0.90072 0.80776 0.0
C1528 C 0.53866 0.89997 0.84029 0.0
C1529 C 0.60356 0.90057 0.80869 0.0
C1530 C 0.45935 0.87012 0.83913 0.0
C1531 C 0.47911 0.87602 0.83923 0.0
C1532 C 0.51877 0.88801 0.80592 0.0
C1533 C 0.57158 0.89443 0.82409 0.0
C1534 C 0.54962 0.89476 0.82336 0.0
C1535 C 0.48654 0.88805 0.82399 0.0
C1536 C 0.50797 0.89225 0.82317 0.0
H1537 H 0.60918 0.88264 0.85566 0.0
H1538 H 0.57318 0.88225 0.85385 0.0
H1539 H 0.5474 0.8849 0.79279 0.0
H1540 H 0.44412 0.89405 0.79722 0.0
H1541 H 0.47911 0.90407 0.79715 0.0
C1542 C 0.88177 0.1098 0.34969 0.0
C1543 C 0.87019 0.0953 0.34027 0.0
C1544 C 0.90218 0.11041 0.34674 0.0
C1545 C 0.94176 0.09445 0.31284 0.0
H1546 H 0.97509 0.10824 0.35769 0.0
C1547 C 0.02778 0.10124 0.30922 0.0
C1548 C 0.03478 0.1194 0.31668 0.0
C1549 C 0.00803 0.09567 0.31216 0.0
C1550 C 0.96595 0.10432 0.34506 0.0
H1551 H 0.87077 0.07016 0.32024 0.0
H1552 H 0.90664 0.07108 0.31525 0.0
H1553 H 0.9397 0.10323 0.36264 0.0
H1554 H 0.02684 0.14583 0.33318 0.0
H1555 H 0.99259 0.13599 0.33849 0.0
H1556 H 0.96821 0.09574 0.29529 0.0
C1557 C 0.89987 0.08209 0.32475 0.0
C1558 C 0.9457 0.10156 0.34785 0.0
C1559 C 0.87937 0.08153 0.32764 0.0
C1560 C 0.02184 0.13177 0.32723 0.0
C1561 C 0.00228 0.12609 0.33039 0.0
C1562 C 0.96212 0.09707 0.31008 0.0
C1563 C 0.9115 0.09645 0.33442 0.0
C1564 C 0.93328 0.09715 0.33168 0.0
C1565 C 0.99518 0.10803 0.32288 0.0
C1566 C 0.97426 0.10255 0.3261 0.0
H1567 H 0.87508 0.12068 0.3594 0.0
H1568 H 0.91064 0.12195 0.35405 0.0
H1569 H 0.93257 0.09116 0.30007 0.0
H1570 H 0.03749 0.09147 0.30101 0.0
H1571 H 0.00284 0.08166 0.30625 0.0
C1572 C 0.1117 0.58546 0.14063 0.0
C1573 C 0.12628 0.59679 0.15029 0.0
C1574 C 0.09187 0.58695 0.14628 0.0
C1575 C 0.05691 0.62078 0.16971 0.0
H1576 H 0.02478 0.57382 0.17812 0.0
C1577 C 0.97775 0.62818 0.19792 0.0
C1578 C 0.96334 0.61667 0.1883 0.0
C1579 C -0.0022 0.62401 0.19544 0.0
C1580 C 0.03352 0.58706 0.17566 0.0
H1581 H 0.13163 0.61858 0.17333 0.0
H1582 H 0.09693 0.62136 0.18303 0.0
H1583 H 0.05956 0.57031 0.16865 0.0
H1584 H 0.95837 0.59118 0.16939 0.0
H1585 H 0.99351 0.58416 0.16452 0.0
H1586 H 0.03097 0.63761 0.17609 0.0
C1587 C 0.10085 0.61135 0.17111 0.0
C1588 C 0.0534 0.58504 0.17027 0.0
C1589 C 0.12069 0.60972 0.16559 0.0
C1590 C 0.96924 0.60023 0.17701 0.0
C1591 C 0.98936 0.59621 0.17428 0.0
C1592 C 0.03706 0.62281 0.17492 0.0
C1593 C 0.08628 0.59994 0.16155 0.0
C1594 C 0.06525 0.6019 0.16728 0.0
C1595 C 0.00386 0.60843 0.183 0.0
C1596 C 0.02512 0.60599 0.17803 0.0
H1597 H 0.11563 0.57532 0.12881 0.0
H1598 H 0.08087 0.57815 0.13854 0.0
H1599 H 0.06564 0.63402 0.16718 0.0
H1600 H 0.97355 0.64081 0.20691 0.0
H1601 H 0.00857 0.63336 0.20283 0.0
C1602 C 0.38603 0.39076 0.63367 0.0
C1603 C 0.37247 0.39007 0.64941 0.0
C1604 C 0.40628 0.3884 0.63727 0.0
C1605 C 0.44103 0.36758 0.6737 0.0
H1606 H 0.47969 0.40046 0.64672 0.0
C1607 C 0.52378 0.34863 0.67232 0.0
C1608 C 0.53743 0.36418 0.67463 0.0
C1609 C 0.50366 0.35262 0.67019 0.0
C1610 C 0.46904 0.39131 0.65451 0.0
H1611 H 0.36935 0.38652 0.68122 0.0
H1612 H 0.40465 0.38252 0.6875 0.0
H1613 H 0.44437 0.40601 0.64098 0.0
H1614 H 0.54079 0.39608 0.67671 0.0
H1615 H 0.50538 0.40309 0.67306 0.0
H1616 H 0.46562 0.35297 0.68734 0.0
C1617 C 0.39967 0.38465 0.67238 0.0
C1618 C 0.44887 0.39433 0.65105 0.0
C1619 C 0.37947 0.38701 0.66878 0.0
C1620 C 0.53056 0.38382 0.67496 0.0
C1621 C 0.51036 0.38783 0.67276 0.0
C1622 C 0.46117 0.36455 0.67713 0.0
C1623 C 0.41328 0.38529 0.65667 0.0
C1624 C 0.43467 0.38241 0.66053 0.0
C1625 C 0.49674 0.37224 0.67029 0.0
C1626 C 0.47538 0.37628 0.66746 0.0
H1627 H 0.38101 0.39311 0.61859 0.0
H1628 H 0.41642 0.38873 0.62485 0.0
H1629 H 0.43045 0.35806 0.6811 0.0
H1630 H 0.52866 0.33333 0.67195 0.0
H1631 H 0.49355 0.34032 0.66804 0.0
C1632 C 0.84665 0.61518 0.8858 0.0
C1633 C 0.83493 0.62621 0.89895 0.0
C1634 C 0.84304 0.59501 0.88301 0.0
C1635 C 0.82336 0.55095 0.90631 0.0
H1636 H 0.81665 0.53183 0.85249 0.0
C1637 C 0.80552 0.46872 0.88816 0.0
C1638 C 0.81459 0.46089 0.87118 0.0
C1639 C 0.80686 0.48902 0.89228 0.0
C1640 C 0.81875 0.53684 0.8676 0.0
H1641 H 0.81055 0.62486 0.9198 0.0
H1642 H 0.80453 0.58932 0.9152 0.0
H1643 H 0.82163 0.56708 0.85842 0.0
H1644 H 0.83278 0.46778 0.84562 0.0
H1645 H 0.83578 0.50279 0.85313 0.0
H1646 H 0.82126 0.52065 0.9155 0.0
C1647 C 0.81636 0.5964 0.90697 0.0
C1648 C 0.82149 0.55704 0.87096 0.0
C1649 C 0.81974 0.61668 0.90951 0.0
C1650 C 0.82539 0.47349 0.85868 0.0
C1651 C 0.82698 0.49361 0.86292 0.0
C1652 C 0.82092 0.53064 0.90294 0.0
C1653 C 0.82788 0.58548 0.89357 0.0
C1654 C 0.82401 0.56422 0.8903 0.0
C1655 C 0.81751 0.50171 0.87959 0.0
C1656 C 0.81885 0.52333 0.8835 0.0
H1657 H 0.85845 0.62218 0.87748 0.0
H1658 H 0.8522 0.58681 0.8727 0.0
H1659 H 0.82536 0.55621 0.92135 0.0
H1660 H 0.79708 0.45927 0.898 0.0
H1661 H 0.79926 0.4948 0.90516 0.0
C1662 C 0.32447 0.87182 0.08108 0.0
C1663 C 0.33055 0.86232 0.09861 0.0
C1664 C 0.3182 0.89156 0.08153 0.0
C1665 C 0.29986 0.93056 0.11482 0.0
H1666 H 0.32905 0.96708 0.08137 0.0
C1667 C 0.31327 0.01054 0.13736 0.0
C1668 C 0.31311 0.02563 0.12305 0.0
C1669 C 0.31152 0.99077 0.13175 0.0
C1670 C 0.32041 0.95709 0.09049 0.0
H1671 H 0.33418 0.86562 0.13038 0.0
H1672 H 0.32299 0.89996 0.13121 0.0
H1673 H 0.33236 0.93138 0.07617 0.0
H1674 H 0.31087 0.03196 0.09161 0.0
H1675 H 0.30782 -0.00292 0.0817 0.0
H1676 H 0.28835 0.95613 0.12953 0.0
C1677 C 0.32307 0.8922 0.11714 0.0
C1678 C 0.32233 0.93667 0.08752 0.0
C1679 C 0.3296 0.87261 0.11665 0.0
C1680 C 0.31108 0.02057 0.10294 0.0
C1681 C 0.30936 0.00067 0.09728 0.0
C1682 C 0.29784 0.95092 0.11769 0.0
C1683 C 0.31759 0.90194 0.09956 0.0
C1684 C 0.31264 0.92326 0.10016 0.0
C1685 C 0.30953 0.98559 0.11168 0.0
C1686 C 0.30871 0.96437 0.10608 0.0
H1687 H 0.32511 0.86419 0.06696 0.0
H1688 H 0.31402 0.89878 0.0678 0.0
H1689 H 0.29199 0.92049 0.12454 0.0
H1690 H 0.31486 0.01396 0.15298 0.0
H1691 H 0.31217 0.9795 0.14318 0.0
C1692 C 0.17086 0.96394 0.58938 0.0
C1693 C 0.18553 0.9593 0.60341 0.0
C1694 C 0.16801 0.98357 0.58342 0.0
C1695 C 0.18929 0.03397 0.58384 0.0
H1696 H 0.13532 0.05043 0.5945 0.0
C1697 C 0.1686 0.11559 0.59817 0.0
C1698 C 0.15003 0.12232 0.5917 0.0
C1699 C 0.17356 0.09554 0.59661 0.0
C1700 C 0.15037 0.04613 0.59103 0.0
H1701 H 0.20978 0.97108 0.62095 0.0
H1702 H 0.20494 0.00531 0.61037 0.0
H1703 H 0.14364 0.01542 0.595 0.0
H1704 H 0.12225 0.11362 0.57805 0.0
H1705 H 0.13105 0.07881 0.57477 0.0
H1706 H 0.19607 0.06472 0.57999 0.0
C1707 C 0.1956 0.99386 0.60405 0.0
C1708 C 0.15512 0.02603 0.59131 0.0
C1709 C 0.19829 0.9743 0.61018 0.0
C1710 C 0.13659 0.10876 0.5834 0.0
C1711 C 0.14163 0.0888 0.58157 0.0
C1712 C 0.18449 0.05412 0.58331 0.0
C1713 C 0.17996 -0.00124 0.59121 0.0
C1714 C 0.17468 0.01979 0.58808 0.0
C1715 C 0.16011 0.0819 0.58829 0.0
C1716 C 0.16503 0.06046 0.58728 0.0
H1717 H 0.16084 0.95264 0.5839 0.0
H1718 H 0.15596 0.98699 0.57336 0.0
H1719 H 0.20447 0.02949 0.58121 0.0
H1720 H 0.17922 0.12576 0.60464 0.0
H1721 H 0.18778 0.09071 0.60226 0.0
C1722 C 0.65907 0.37833 0.37462 0.0
C1723 C 0.65973 0.36832 0.39284 0.0
C1724 C 0.66585 0.39779 0.37317 0.0
C1725 C 0.671 0.44289 0.40151 0.0
H1726 H 0.702 0.45995 0.35626 0.0
C1727 C 0.68529 0.52591 0.38352 0.0
C1728 C 0.68184 0.53079 0.36356 0.0
C1729 C 0.68635 0.50602 0.38938 0.0
C1730 C 0.69335 0.45542 0.36899 0.0
H1731 H 0.66814 0.37063 0.4238 0.0
H1732 H 0.67968 0.40503 0.42129 0.0
H1733 H 0.69713 0.42464 0.36232 0.0
H1734 H 0.67691 0.51881 0.3341 0.0
H1735 H 0.67849 0.4844 0.34428 0.0
H1736 H 0.66633 0.47371 0.40758 0.0
C1737 C 0.67405 0.39767 0.40817 0.0
C1738 C 0.69062 0.43524 0.37246 0.0
C1739 C 0.66752 0.37803 0.40956 0.0
C1740 C 0.67964 0.51553 0.34959 0.0
C1741 C 0.68073 0.49577 0.3554 0.0
C1742 C 0.67361 0.46315 0.39794 0.0
C1743 C 0.67321 0.40771 0.38995 0.0
C1744 C 0.6789 0.42881 0.38837 0.0
C1745 C 0.6841 0.49076 0.37533 0.0
C1746 C 0.68424 0.46959 0.38123 0.0
H1747 H 0.65316 0.37118 0.3615 0.0
H1748 H 0.66479 0.40529 0.359 0.0
H1749 H 0.66181 0.43829 0.41383 0.0
H1750 H 0.68707 0.53742 0.39458 0.0
H1751 H 0.68899 0.50257 0.40485 0.0
loop_
_geom_bond_atom_site_label_1
_geom_bond_atom_site_label_2
_geom_bond_distance
_geom_bond_site_symmetry_2
_ccdc_geom_bond_type
In0 O1 2.294 . S
In0 O2 2.326 . S
In0 O6 2.266 . S
In0 O7 2.326 . S
In0 O8 2.266 . S
In0 O9 2.326 . S
In0 O11 2.294 . S
In0 O12 2.326 . S
O1 In0 2.294 . S
O1 C10 1.240 . S
O2 In0 2.326 . S
O2 C10 1.252 . S
C3 O6 1.252 . S
C3 O7 1.260 . S
C4 O11 1.240 . S
C4 O12 1.252 . S
C5 O8 1.252 . S
C5 O9 1.260 . S
O6 In0 2.266 . S
O6 C3 1.252 . S
O7 In0 2.326 . S
O7 C3 1.260 . S
O8 In0 2.266 . S
O8 C5 1.252 . S
O9 In0 2.326 . S
O9 C5 1.260 . S
C10 O1 1.240 . S
C10 O2 1.252 . S
O11 In0 2.294 . S
O11 C4 1.240 . S
O12 In0 2.326 . S
O12 C4 1.252 . S
In13 O14 2.294 . S
In13 O15 2.326 . S
In13 O19 2.266 . S
In13 O20 2.326 . S
In13 O21 2.266 . S
In13 O22 2.326 . S
In13 O24 2.294 . S
In13 O25 2.326 . S
O14 In13 2.294 . S
O14 C23 1.240 . S
O15 In13 2.326 . S
O15 C23 1.252 . S
C16 O19 1.252 . S
C16 O20 1.260 . S
C17 O24 1.240 . S
C17 O25 1.252 . S
C18 O21 1.252 . S
C18 O22 1.260 . S
O19 In13 2.266 . S
O19 C16 1.252 . S
O20 In13 2.326 . S
O20 C16 1.260 . S
O21 In13 2.266 . S
O21 C18 1.252 . S
O22 In13 2.326 . S
O22 C18 1.260 . S
C23 O14 1.240 . S
C23 O15 1.252 . S
O24 In13 2.294 . S
O24 C17 1.240 . S
O25 In13 2.326 . S
O25 C17 1.252 . S
In26 O27 2.294 . S
In26 O28 2.326 . S
In26 O32 2.266 . S
In26 O33 2.326 . S
In26 O34 2.266 . S
In26 O35 2.326 . S
In26 O37 2.294 . S
In26 O38 2.326 . S
O27 In26 2.294 . S
O27 C36 1.240 . S
O28 In26 2.326 . S
O28 C36 1.252 . S
C29 O32 1.252 . S
C29 O33 1.260 . S
C30 O37 1.240 . S
C30 O38 1.252 . S
C31 O34 1.252 . S
C31 O35 1.260 . S
O32 In26 2.266 . S
O32 C29 1.252 . S
O33 In26 2.326 . S
O33 C29 1.260 . S
O34 In26 2.266 . S
O34 C31 1.252 . S
O35 In26 2.326 . S
O35 C31 1.260 . S
C36 O27 1.240 . S
C36 O28 1.252 . S
O37 In26 2.294 . S
O37 C30 1.240 . S
O38 In26 2.326 . S
O38 C30 1.252 . S
In39 O40 2.294 . S
In39 O41 2.326 . S
In39 O45 2.266 . S
In39 O46 2.326 . S
In39 O47 2.266 . S
In39 O48 2.326 . S
In39 O50 2.294 . S
In39 O51 2.326 . S
O40 In39 2.294 . S
O40 C49 1.240 . S
O41 In39 2.326 . S
O41 C49 1.252 . S
C42 O45 1.252 . S
C42 O46 1.260 . S
C43 O50 1.240 . S
C43 O51 1.252 . S
C44 O47 1.252 . S
C44 O48 1.260 . S
O45 In39 2.266 . S
O45 C42 1.252 . S
O46 In39 2.326 . S
O46 C42 1.260 . S
O47 In39 2.266 . S
O47 C44 1.252 . S
O48 In39 2.326 . S
O48 C44 1.260 . S
C49 O40 1.240 . S
C49 O41 1.252 . S
O50 In39 2.294 . S
O50 C43 1.240 . S
O51 In39 2.326 . S
O51 C43 1.252 . S
In52 O53 2.294 . S
In52 O54 2.326 . S
In52 O58 2.266 . S
In52 O59 2.326 . S
In52 O60 2.266 . S
In52 O61 2.326 . S
In52 O63 2.294 . S
In52 O64 2.326 . S
O53 In52 2.294 . S
O53 C62 1.240 . S
O54 In52 2.326 . S
O54 C62 1.252 . S
C55 O58 1.252 . S
C55 O59 1.260 . S
C56 O63 1.240 . S
C56 O64 1.252 . S
C57 O60 1.252 . S
C57 O61 1.260 . S
O58 In52 2.266 . S
O58 C55 1.252 . S
O59 In52 2.326 . S
O59 C55 1.260 . S
O60 In52 2.266 . S
O60 C57 1.252 . S
O61 In52 2.326 . S
O61 C57 1.260 . S
C62 O53 1.240 . S
C62 O54 1.252 . S
O63 In52 2.294 . S
O63 C56 1.240 . S
O64 In52 2.326 . S
O64 C56 1.252 . S
In65 O66 2.294 . S
In65 O67 2.326 . S
In65 O71 2.266 . S
In65 O72 2.326 . S
In65 O73 2.266 . S
In65 O74 2.326 . S
In65 O76 2.294 . S
In65 O77 2.326 . S
O66 In65 2.294 . S
O66 C75 1.240 . S
O67 In65 2.326 . S
O67 C75 1.252 . S
C68 O71 1.252 . S
C68 O72 1.260 . S
C69 O76 1.240 . S
C69 O77 1.252 . S
C70 O73 1.252 . S
C70 O74 1.260 . S
O71 In65 2.266 . S
O71 C68 1.252 . S
O72 In65 2.326 . S
O72 C68 1.260 . S
O73 In65 2.266 . S
O73 C70 1.252 . S
O74 In65 2.326 . S
O74 C70 1.260 . S
C75 O66 1.240 . S
C75 O67 1.252 . S
O76 In65 2.294 . S
O76 C69 1.240 . S
O77 In65 2.326 . S
O77 C69 1.252 . S
In78 O79 2.294 . S
In78 O80 2.326 . S
In78 O84 2.266 . S
In78 O85 2.326 . S
In78 O86 2.266 . S
In78 O87 2.326 . S
In78 O89 2.294 . S
In78 O90 2.326 . S
O79 In78 2.294 . S
O79 C88 1.240 . S
O80 In78 2.326 . S
O80 C88 1.252 . S
C81 O84 1.252 . S
C81 O85 1.260 . S
C82 O89 1.240 . S
C82 O90 1.252 . S
C83 O86 1.252 . S
C83 O87 1.260 . S
O84 In78 2.266 . S
O84 C81 1.252 . S
O85 In78 2.326 . S
O85 C81 1.260 . S
O86 In78 2.266 . S
O86 C83 1.252 . S
O87 In78 2.326 . S
O87 C83 1.260 . S
C88 O79 1.240 . S
C88 O80 1.252 . S
O89 In78 2.294 . S
O89 C82 1.240 . S
O90 In78 2.326 . S
O90 C82 1.252 . S
In91 O92 2.294 . S
In91 O93 2.326 . S
In91 O97 2.266 . S
In91 O98 2.326 . S
In91 O99 2.266 . S
In91 O100 2.326 . S
In91 O102 2.294 . S
In91 O103 2.326 . S
O92 In91 2.294 . S
O92 C101 1.240 . S
O93 In91 2.326 . S
O93 C101 1.252 . S
C94 O97 1.252 . S
C94 O98 1.260 . S
C95 O102 1.240 . S
C95 O103 1.252 . S
C96 O99 1.252 . S
C96 O100 1.260 . S
O97 In91 2.266 . S
O97 C94 1.252 . S
O98 In91 2.326 . S
O98 C94 1.260 . S
O99 In91 2.266 . S
O99 C96 1.252 . S
O100 In91 2.326 . S
O100 C96 1.260 . S
C101 O92 1.240 . S
C101 O93 1.252 . S
O102 In91 2.294 . S
O102 C95 1.240 . S
O103 In91 2.326 . S
O103 C95 1.252 . S
In104 O105 2.294 . S
In104 O106 2.326 . S
In104 O110 2.266 . S
In104 O111 2.326 . S
In104 O112 2.266 . S
In104 O113 2.326 . S
In104 O115 2.294 . S
In104 O116 2.326 . S
O105 In104 2.294 . S
O105 C114 1.240 . S
O106 In104 2.326 . S
O106 C114 1.252 . S
C107 O110 1.252 . S
C107 O111 1.260 . S
C108 O115 1.240 . S
C108 O116 1.252 . S
C109 O112 1.252 . S
C109 O113 1.260 . S
O110 In104 2.266 . S
O110 C107 1.252 . S
O111 In104 2.326 . S
O111 C107 1.260 . S
O112 In104 2.266 . S
O112 C109 1.252 . S
O113 In104 2.326 . S
O113 C109 1.260 . S
C114 O105 1.240 . S
C114 O106 1.252 . S
O115 In104 2.294 . S
O115 C108 1.240 . S
O116 In104 2.326 . S
O116 C108 1.252 . S
In117 O118 2.294 . S
In117 O119 2.326 . S
In117 O123 2.266 . S
In117 O124 2.326 . S
In117 O125 2.266 . S
In117 O126 2.326 . S
In117 O128 2.294 . S
In117 O129 2.326 . S
O118 In117 2.294 . S
O118 C127 1.240 . S
O119 In117 2.326 . S
O119 C127 1.252 . S
C120 O123 1.252 . S
C120 O124 1.260 . S
C121 O128 1.240 . S
C121 O129 1.252 . S
C122 O125 1.252 . S
C122 O126 1.260 . S
O123 In117 2.266 . S
O123 C120 1.252 . S
O124 In117 2.326 . S
O124 C120 1.260 . S
O125 In117 2.266 . S
O125 C122 1.252 . S
O126 In117 2.326 . S
O126 C122 1.260 . S
C127 O118 1.240 . S
C127 O119 1.252 . S
O128 In117 2.294 . S
O128 C121 1.240 . S
O129 In117 2.326 . S
O129 C121 1.252 . S
In130 O131 2.294 . S
In130 O132 2.326 . S
In130 O136 2.266 . S
In130 O137 2.326 . S
In130 O138 2.266 . S
In130 O139 2.326 . S
In130 O141 2.294 . S
In130 O142 2.326 . S
O131 In130 2.294 . S
O131 C140 1.240 . S
O132 In130 2.326 . S
O132 C140 1.252 . S
C133 O136 1.252 . S
C133 O137 1.260 . S
C134 O141 1.240 . S
C134 O142 1.252 . S
C135 O138 1.252 . S
C135 O139 1.260 . S
O136 In130 2.266 . S
O136 C133 1.252 . S
O137 In130 2.326 . S
O137 C133 1.260 . S
O138 In130 2.266 . S
O138 C135 1.252 . S
O139 In130 2.326 . S
O139 C135 1.260 . S
C140 O131 1.240 . S
C140 O132 1.252 . S
O141 In130 2.294 . S
O141 C134 1.240 . S
O142 In130 2.326 . S
O142 C134 1.252 . S
In143 O144 2.294 . S
In143 O145 2.326 . S
In143 O149 2.266 . S
In143 O150 2.326 . S
In143 O151 2.266 . S
In143 O152 2.326 . S
In143 O154 2.294 . S
In143 O155 2.326 . S
O144 In143 2.294 . S
O144 C153 1.240 . S
O145 In143 2.326 . S
O145 C153 1.252 . S
C146 O149 1.252 . S
C146 O150 1.260 . S
C147 O154 1.240 . S
C147 O155 1.252 . S
C148 O151 1.252 . S
C148 O152 1.260 . S
O149 In143 2.266 . S
O149 C146 1.252 . S
O150 In143 2.326 . S
O150 C146 1.260 . S
O151 In143 2.266 . S
O151 C148 1.252 . S
O152 In143 2.326 . S
O152 C148 1.260 . S
C153 O144 1.240 . S
C153 O145 1.252 . S
O154 In143 2.294 . S
O154 C147 1.240 . S
O155 In143 2.326 . S
O155 C147 1.252 . S
In156 O157 2.294 . S
In156 O158 2.326 . S
In156 O162 2.266 . S
In156 O163 2.326 . S
In156 O164 2.266 . S
In156 O165 2.326 . S
In156 O167 2.294 . S
In156 O168 2.326 . S
O157 In156 2.294 . S
O157 C166 1.240 . S
O158 In156 2.326 . S
O158 C166 1.252 . S
C159 O162 1.252 . S
C159 O163 1.260 . S
C160 O167 1.240 . S
C160 O168 1.252 . S
C161 O164 1.252 . S
C161 O165 1.260 . S
O162 In156 2.266 . S
O162 C159 1.252 . S
O163 In156 2.326 . S
O163 C159 1.260 . S
O164 In156 2.266 . S
O164 C161 1.252 . S
O165 In156 2.326 . S
O165 C161 1.260 . S
C166 O157 1.240 . S
C166 O158 1.252 . S
O167 In156 2.294 . S
O167 C160 1.240 . S
O168 In156 2.326 . S
O168 C160 1.252 . S
In169 O170 2.294 . S
In169 O171 2.326 . S
In169 O175 2.266 . S
In169 O176 2.326 . S
In169 O177 2.266 . S
In169 O178 2.326 . S
In169 O180 2.294 . S
In169 O181 2.326 . S
O170 In169 2.294 . S
O170 C179 1.240 . S
O171 In169 2.326 . S
O171 C179 1.252 . S
C172 O175 1.252 . S
C172 O176 1.260 . S
C173 O180 1.240 . S
C173 O181 1.252 . S
C174 O177 1.252 . S
C174 O178 1.260 . S
O175 In169 2.266 . S
O175 C172 1.252 . S
O176 In169 2.326 . S
O176 C172 1.260 . S
O177 In169 2.266 . S
O177 C174 1.252 . S
O178 In169 2.326 . S
O178 C174 1.260 . S
C179 O170 1.240 . S
C179 O171 1.252 . S
O180 In169 2.294 . S
O180 C173 1.240 . S
O181 In169 2.326 . S
O181 C173 1.252 . S
In182 O183 2.294 . S
In182 O184 2.326 . S
In182 O188 2.266 . S
In182 O189 2.326 . S
In182 O190 2.266 . S
In182 O191 2.326 . S
In182 O193 2.294 . S
In182 O194 2.326 . S
O183 In182 2.294 . S
O183 C192 1.240 . S
O184 In182 2.326 . S
O184 C192 1.252 . S
C185 O188 1.252 . S
C185 O189 1.260 . S
C186 O193 1.240 . S
C186 O194 1.252 . S
C187 O190 1.252 . S
C187 O191 1.260 . S
O188 In182 2.266 . S
O188 C185 1.252 . S
O189 In182 2.326 . S
O189 C185 1.260 . S
O190 In182 2.266 . S
O190 C187 1.252 . S
O191 In182 2.326 . S
O191 C187 1.260 . S
C192 O183 1.240 . S
C192 O184 1.252 . S
O193 In182 2.294 . S
O193 C186 1.240 . S
O194 In182 2.326 . S
O194 C186 1.252 . S
In195 O196 2.294 . S
In195 O197 2.326 . S
In195 O201 2.266 . S
In195 O202 2.326 . S
In195 O203 2.266 . S
In195 O204 2.326 . S
In195 O206 2.294 . S
In195 O207 2.326 . S
O196 In195 2.294 . S
O196 C205 1.240 . S
O197 In195 2.326 . S
O197 C205 1.252 . S
C198 O201 1.252 . S
C198 O202 1.260 . S
C199 O206 1.240 . S
C199 O207 1.252 . S
C200 O203 1.252 . S
C200 O204 1.260 . S
O201 In195 2.266 . S
O201 C198 1.252 . S
O202 In195 2.326 . S
O202 C198 1.260 . S
O203 In195 2.266 . S
O203 C200 1.252 . S
O204 In195 2.326 . S
O204 C200 1.260 . S
C205 O196 1.240 . S
C205 O197 1.252 . S
O206 In195 2.294 . S
O206 C199 1.240 . S
O207 In195 2.326 . S
O207 C199 1.252 . S
In208 O209 2.294 . S
In208 O210 2.326 . S
In208 O214 2.266 . S
In208 O215 2.326 . S
In208 O216 2.266 . S
In208 O217 2.326 . S
In208 O219 2.294 . S
In208 O220 2.326 . S
O209 In208 2.294 . S
O209 C218 1.240 . S
O210 In208 2.326 . S
O210 C218 1.252 . S
C211 O214 1.252 . S
C211 O215 1.260 . S
C212 O219 1.240 . S
C212 O220 1.252 . S
C213 O216 1.252 . S
C213 O217 1.260 . S
O214 In208 2.266 . S
O214 C211 1.252 . S
O215 In208 2.326 . S
O215 C211 1.260 . S
O216 In208 2.266 . S
O216 C213 1.252 . S
O217 In208 2.326 . S
O217 C213 1.260 . S
C218 O209 1.240 . S
C218 O210 1.252 . S
O219 In208 2.294 . S
O219 C212 1.240 . S
O220 In208 2.326 . S
O220 C212 1.252 . S
In221 O222 2.294 . S
In221 O223 2.326 . S
In221 O227 2.266 . S
In221 O228 2.326 . S
In221 O229 2.266 . S
In221 O230 2.326 . S
In221 O232 2.294 . S
In221 O233 2.326 . S
O222 In221 2.294 . S
O222 C231 1.240 . S
O223 In221 2.326 . S
O223 C231 1.252 . S
C224 O227 1.252 . S
C224 O228 1.260 . S
C225 O232 1.240 . S
C225 O233 1.252 . S
C226 O229 1.252 . S
C226 O230 1.260 . S
O227 In221 2.266 . S
O227 C224 1.252 . S
O228 In221 2.326 . S
O228 C224 1.260 . S
O229 In221 2.266 . S
O229 C226 1.252 . S
O230 In221 2.326 . S
O230 C226 1.260 . S
C231 O222 1.240 . S
C231 O223 1.252 . S
O232 In221 2.294 . S
O232 C225 1.240 . S
O233 In221 2.326 . S
O233 C225 1.252 . S
In234 O235 2.294 . S
In234 O236 2.326 . S
In234 O240 2.266 . S
In234 O241 2.326 . S
In234 O242 2.266 . S
In234 O243 2.326 . S
In234 O245 2.294 . S
In234 O246 2.326 . S
O235 In234 2.294 . S
O235 C244 1.240 . S
O236 In234 2.326 . S
O236 C244 1.252 . S
C237 O240 1.252 . S
C237 O241 1.260 . S
C238 O245 1.240 . S
C238 O246 1.252 . S
C239 O242 1.252 . S
C239 O243 1.260 . S
O240 In234 2.266 . S
O240 C237 1.252 . S
O241 In234 2.326 . S
O241 C237 1.260 . S
O242 In234 2.266 . S
O242 C239 1.252 . S
O243 In234 2.326 . S
O243 C239 1.260 . S
C244 O235 1.240 . S
C244 O236 1.252 . S
O245 In234 2.294 . S
O245 C238 1.240 . S
O246 In234 2.326 . S
O246 C238 1.252 . S
In247 O248 2.294 . S
In247 O249 2.326 . S
In247 O253 2.266 . S
In247 O254 2.326 . S
In247 O255 2.266 . S
In247 O256 2.326 . S
In247 O258 2.294 . S
In247 O259 2.326 . S
O248 In247 2.294 . S
O248 C257 1.240 . S
O249 In247 2.326 . S
O249 C257 1.252 . S
C250 O253 1.252 . S
C250 O254 1.260 . S
C251 O258 1.240 . S
C251 O259 1.252 . S
C252 O255 1.252 . S
C252 O256 1.260 . S
O253 In247 2.266 . S
O253 C250 1.252 . S
O254 In247 2.326 . S
O254 C250 1.260 . S
O255 In247 2.266 . S
O255 C252 1.252 . S
O256 In247 2.326 . S
O256 C252 1.260 . S
C257 O248 1.240 . S
C257 O249 1.252 . S
O258 In247 2.294 . S
O258 C251 1.240 . S
O259 In247 2.326 . S
O259 C251 1.252 . S
In260 O261 2.294 . S
In260 O262 2.326 . S
In260 O266 2.266 . S
In260 O267 2.326 . S
In260 O268 2.266 . S
In260 O269 2.326 . S
In260 O271 2.294 . S
In260 O272 2.326 . S
O261 In260 2.294 . S
O261 C270 1.240 . S
O262 In260 2.326 . S
O262 C270 1.252 . S
C263 O266 1.252 . S
C263 O267 1.260 . S
C264 O271 1.240 . S
C264 O272 1.252 . S
C265 O268 1.252 . S
C265 O269 1.260 . S
O266 In260 2.266 . S
O266 C263 1.252 . S
O267 In260 2.326 . S
O267 C263 1.260 . S
O268 In260 2.266 . S
O268 C265 1.252 . S
O269 In260 2.326 . S
O269 C265 1.260 . S
C270 O261 1.240 . S
C270 O262 1.252 . S
O271 In260 2.294 . S
O271 C264 1.240 . S
O272 In260 2.326 . S
O272 C264 1.252 . S
In273 O274 2.294 . S
In273 O275 2.326 . S
In273 O279 2.266 . S
In273 O280 2.326 . S
In273 O281 2.266 . S
In273 O282 2.326 . S
In273 O284 2.294 . S
In273 O285 2.326 . S
O274 In273 2.294 . S
O274 C283 1.240 . S
O275 In273 2.326 . S
O275 C283 1.252 . S
C276 O279 1.252 . S
C276 O280 1.260 . S
C277 O284 1.240 . S
C277 O285 1.252 . S
C278 O281 1.252 . S
C278 O282 1.260 . S
O279 In273 2.266 . S
O279 C276 1.252 . S
O280 In273 2.326 . S
O280 C276 1.260 . S
O281 In273 2.266 . S
O281 C278 1.252 . S
O282 In273 2.326 . S
O282 C278 1.260 . S
C283 O274 1.240 . S
C283 O275 1.252 . S
O284 In273 2.294 . S
O284 C277 1.240 . S
O285 In273 2.326 . S
O285 C277 1.252 . S
In286 O287 2.294 . S
In286 O288 2.326 . S
In286 O292 2.266 . S
In286 O293 2.326 . S
In286 O294 2.266 . S
In286 O295 2.326 . S
In286 O297 2.294 . S
In286 O298 2.326 . S
O287 In286 2.294 . S
O287 C296 1.240 . S
O288 In286 2.326 . S
O288 C296 1.252 . S
C289 O292 1.252 . S
C289 O293 1.260 . S
C290 O297 1.240 . S
C290 O298 1.252 . S
C291 O294 1.252 . S
C291 O295 1.260 . S
O292 In286 2.266 . S
O292 C289 1.252 . S
O293 In286 2.326 . S
O293 C289 1.260 . S
O294 In286 2.266 . S
O294 C291 1.252 . S
O295 In286 2.326 . S
O295 C291 1.260 . S
C296 O287 1.240 . S
C296 O288 1.252 . S
O297 In286 2.294 . S
O297 C290 1.240 . S
O298 In286 2.326 . S
O298 C290 1.252 . S
In299 O300 2.294 . S
In299 O301 2.326 . S
In299 O305 2.266 . S
In299 O306 2.326 . S
In299 O307 2.266 . S
In299 O308 2.326 . S
In299 O310 2.294 . S
In299 O311 2.326 . S
O300 In299 2.294 . S
O300 C309 1.240 . S
O301 In299 2.326 . S
O301 C309 1.252 . S
C302 O305 1.252 . S
C302 O306 1.260 . S
C303 O310 1.240 . S
C303 O311 1.252 . S
C304 O307 1.252 . S
C304 O308 1.260 . S
O305 In299 2.266 . S
O305 C302 1.252 . S
O306 In299 2.326 . S
O306 C302 1.260 . S
O307 In299 2.266 . S
O307 C304 1.252 . S
O308 In299 2.326 . S
O308 C304 1.260 . S
C309 O300 1.240 . S
C309 O301 1.252 . S
O310 In299 2.294 . S
O310 C303 1.240 . S
O311 In299 2.326 . S
O311 C303 1.252 . S
C312 C313 1.349 . S
C312 C314 1.327 . S
C312 H337 0.950 . S
C313 C312 1.349 . S
C313 C329 1.349 . S
C314 C312 1.327 . S
C314 C333 1.429 . S
C314 H338 0.950 . S
C315 C332 1.574 . S
C315 C334 1.368 . S
C315 H339 0.949 . S
H316 C320 0.949 . S
C317 C318 1.349 . S
C317 C319 1.327 . S
C317 H340 0.950 . S
C318 C317 1.349 . S
C318 C330 1.349 . S
C319 C317 1.327 . S
C319 C335 1.429 . S
C319 H341 0.950 . S
C320 H316 0.949 . S
C320 C328 1.574 . S
C320 C336 1.368 . S
H321 C329 0.950 . S
H322 C327 0.950 . S
H323 C328 0.949 . S
H324 C330 0.950 . S
H325 C331 0.950 . S
H326 C332 0.949 . S
C327 H322 0.950 . S
C327 C329 1.327 . S
C327 C333 1.429 . S
C328 C320 1.574 . S
C328 H323 0.949 . S
C328 C334 1.368 . S
C329 C313 1.349 . S
C329 H321 0.950 . S
C329 C327 1.327 . S
C330 C318 1.349 . S
C330 H324 0.950 . S
C330 C331 1.327 . S
C331 H325 0.950 . S
C331 C330 1.327 . S
C331 C335 1.429 . S
C332 C315 1.574 . S
C332 H326 0.949 . S
C332 C336 1.368 . S
C333 C314 1.429 . S
C333 C327 1.429 . S
C333 C334 1.523 . S
C334 C315 1.368 . S
C334 C328 1.368 . S
C334 C333 1.523 . S
C335 C319 1.429 . S
C335 C331 1.429 . S
C335 C336 1.523 . S
C336 C320 1.368 . S
C336 C332 1.368 . S
C336 C335 1.523 . S
H337 C312 0.950 . S
H338 C314 0.950 . S
H339 C315 0.949 . S
H340 C317 0.950 . S
H341 C319 0.950 . S
C342 C343 1.349 . S
C342 C344 1.327 . S
C342 H367 0.950 . S
C343 C342 1.349 . S
C343 C359 1.349 . S
C344 C342 1.327 . S
C344 C363 1.429 . S
C344 H368 0.950 . S
C345 C362 1.574 . S
C345 C364 1.368 . S
C345 H369 0.949 . S
H346 C350 0.949 . S
C347 C348 1.349 . S
C347 C349 1.327 . S
C347 H370 0.950 . S
C348 C347 1.349 . S
C348 C360 1.349 . S
C349 C347 1.327 . S
C349 C365 1.429 . S
C349 H371 0.950 . S
C350 H346 0.949 . S
C350 C358 1.574 . S
C350 C366 1.368 . S
H351 C359 0.950 . S
H352 C357 0.950 . S
H353 C358 0.949 . S
H354 C360 0.950 . S
H355 C361 0.950 . S
H356 C362 0.949 . S
C357 H352 0.950 . S
C357 C359 1.327 . S
C357 C363 1.429 . S
C358 C350 1.574 . S
C358 H353 0.949 . S
C358 C364 1.368 . S
C359 C343 1.349 . S
C359 H351 0.950 . S
C359 C357 1.327 . S
C360 C348 1.349 . S
C360 H354 0.950 . S
C360 C361 1.327 . S
C361 H355 0.950 . S
C361 C360 1.327 . S
C361 C365 1.429 . S
C362 C345 1.574 . S
C362 H356 0.949 . S
C362 C366 1.368 . S
C363 C344 1.429 . S
C363 C357 1.429 . S
C363 C364 1.523 . S
C364 C345 1.368 . S
C364 C358 1.368 . S
C364 C363 1.523 . S
C365 C349 1.429 . S
C365 C361 1.429 . S
C365 C366 1.523 . S
C366 C350 1.368 . S
C366 C362 1.368 . S
C366 C365 1.523 . S
H367 C342 0.950 . S
H368 C344 0.950 . S
H369 C345 0.949 . S
H370 C347 0.950 . S
H371 C349 0.950 . S
C372 C373 1.349 . S
C372 C374 1.327 . S
C372 H397 0.950 . S
C373 C372 1.349 . S
C373 C389 1.349 . S
C374 C372 1.327 . S
C374 C393 1.429 . S
C374 H398 0.950 . S
C375 C392 1.574 . S
C375 C394 1.368 . S
C375 H399 0.949 . S
H376 C380 0.949 . S
C377 C378 1.349 . S
C377 C379 1.327 . S
C377 H400 0.950 . S
C378 C377 1.349 . S
C378 C390 1.349 . S
C379 C377 1.327 . S
C379 C395 1.429 . S
C379 H401 0.950 . S
C380 H376 0.949 . S
C380 C388 1.574 . S
C380 C396 1.368 . S
H381 C389 0.950 . S
H382 C387 0.950 . S
H383 C388 0.949 . S
H384 C390 0.950 . S
H385 C391 0.950 . S
H386 C392 0.949 . S
C387 H382 0.950 . S
C387 C389 1.327 . S
C387 C393 1.429 . S
C388 C380 1.574 . S
C388 H383 0.949 . S
C388 C394 1.368 . S
C389 C373 1.349 . S
C389 H381 0.950 . S
C389 C387 1.327 . S
C390 C378 1.349 . S
C390 H384 0.950 . S
C390 C391 1.327 . S
C391 H385 0.950 . S
C391 C390 1.327 . S
C391 C395 1.429 . S
C392 C375 1.574 . S
C392 H386 0.949 . S
C392 C396 1.368 . S
C393 C374 1.429 . S
C393 C387 1.429 . S
C393 C394 1.523 . S
C394 C375 1.368 . S
C394 C388 1.368 . S
C394 C393 1.523 . S
C395 C379 1.429 . S
C395 C391 1.429 . S
C395 C396 1.523 . S
C396 C380 1.368 . S
C396 C392 1.368 . S
C396 C395 1.523 . S
H397 C372 0.950 . S
H398 C374 0.950 . S
H399 C375 0.949 . S
H400 C377 0.950 . S
H401 C379 0.950 . S
C402 C403 1.349 . S
C402 C404 1.327 . S
C402 H427 0.950 . S
C403 C402 1.349 . S
C403 C419 1.349 . S
C404 C402 1.327 . S
C404 C423 1.429 . S
C404 H428 0.950 . S
C405 C422 1.574 . S
C405 C424 1.368 . S
C405 H429 0.949 . S
H406 C410 0.949 . S
C407 C408 1.349 . S
C407 C409 1.327 . S
C407 H430 0.950 . S
C408 C407 1.349 . S
C408 C420 1.349 . S
C409 C407 1.327 . S
C409 C425 1.429 . S
C409 H431 0.950 . S
C410 H406 0.949 . S
C410 C418 1.574 . S
C410 C426 1.368 . S
H411 C419 0.950 . S
H412 C417 0.950 . S
H413 C418 0.949 . S
H414 C420 0.950 . S
H415 C421 0.950 . S
H416 C422 0.949 . S
C417 H412 0.950 . S
C417 C419 1.327 . S
C417 C423 1.429 . S
C418 C410 1.574 . S
C418 H413 0.949 . S
C418 C424 1.368 . S
C419 C403 1.349 . S
C419 H411 0.950 . S
C419 C417 1.327 . S
C420 C408 1.349 . S
C420 H414 0.950 . S
C420 C421 1.327 . S
C421 H415 0.950 . S
C421 C420 1.327 . S
C421 C425 1.429 . S
C422 C405 1.574 . S
C422 H416 0.949 . S
C422 C426 1.368 . S
C423 C404 1.429 . S
C423 C417 1.429 . S
C423 C424 1.523 . S
C424 C405 1.368 . S
C424 C418 1.368 . S
C424 C423 1.523 . S
C425 C409 1.429 . S
C425 C421 1.429 . S
C425 C426 1.523 . S
C426 C410 1.368 . S
C426 C422 1.368 . S
C426 C425 1.523 . S
H427 C402 0.950 . S
H428 C404 0.950 . S
H429 C405 0.949 . S
H430 C407 0.950 . S
H431 C409 0.950 . S
C432 C433 1.349 . S
C432 C434 1.327 . S
C432 H457 0.950 . S
C433 C432 1.349 . S
C433 C449 1.349 . S
C434 C432 1.327 . S
C434 C453 1.429 . S
C434 H458 0.950 . S
C435 C452 1.574 . S
C435 C454 1.368 . S
C435 H459 0.949 . S
H436 C440 0.949 . S
C437 C438 1.349 . S
C437 C439 1.327 . S
C437 H460 0.950 . S
C438 C437 1.349 . S
C438 C450 1.349 . S
C439 C437 1.327 . S
C439 C455 1.429 . S
C439 H461 0.950 . S
C440 H436 0.949 . S
C440 C448 1.574 . S
C440 C456 1.368 . S
H441 C449 0.950 . S
H442 C447 0.950 . S
H443 C448 0.949 . S
H444 C450 0.950 . S
H445 C451 0.950 . S
H446 C452 0.949 . S
C447 H442 0.950 . S
C447 C449 1.327 . S
C447 C453 1.429 . S
C448 C440 1.574 . S
C448 H443 0.949 . S
C448 C454 1.368 . S
C449 C433 1.349 . S
C449 H441 0.950 . S
C449 C447 1.327 . S
C450 C438 1.349 . S
C450 H444 0.950 . S
C450 C451 1.327 . S
C451 H445 0.950 . S
C451 C450 1.327 . S
C451 C455 1.429 . S
C452 C435 1.574 . S
C452 H446 0.949 . S
C452 C456 1.368 . S
C453 C434 1.429 . S
C453 C447 1.429 . S
C453 C454 1.523 . S
C454 C435 1.368 . S
C454 C448 1.368 . S
C454 C453 1.523 . S
C455 C439 1.429 . S
C455 C451 1.429 . S
C455 C456 1.523 . S
C456 C440 1.368 . S
C456 C452 1.368 . S
C456 C455 1.523 . S
H457 C432 0.950 . S
H458 C434 0.950 . S
H459 C435 0.949 . S
H460 C437 0.950 . S
H461 C439 0.950 . S
C462 C463 1.349 . S
C462 C464 1.327 . S
C462 H487 0.950 . S
C463 C462 1.349 . S
C463 C479 1.349 . S
C464 C462 1.327 . S
C464 C483 1.429 . S
C464 H488 0.950 . S
C465 C482 1.574 . S
C465 C484 1.368 . S
C465 H489 0.949 . S
H466 C470 0.949 . S
C467 C468 1.349 . S
C467 C469 1.327 . S
C467 H490 0.950 . S
C468 C467 1.349 . S
C468 C480 1.349 . S
C469 C467 1.327 . S
C469 C485 1.429 . S
C469 H491 0.950 . S
C470 H466 0.949 . S
C470 C478 1.574 . S
C470 C486 1.368 . S
H471 C479 0.950 . S
H472 C477 0.950 . S
H473 C478 0.949 . S
H474 C480 0.950 . S
H475 C481 0.950 . S
H476 C482 0.949 . S
C477 H472 0.950 . S
C477 C479 1.327 . S
C477 C483 1.429 . S
C478 C470 1.574 . S
C478 H473 0.949 . S
C478 C484 1.368 . S
C479 C463 1.349 . S
C479 H471 0.950 . S
C479 C477 1.327 . S
C480 C468 1.349 . S
C480 H474 0.950 . S
C480 C481 1.327 . S
C481 H475 0.950 . S
C481 C480 1.327 . S
C481 C485 1.429 . S
C482 C465 1.574 . S
C482 H476 0.949 . S
C482 C486 1.368 . S
C483 C464 1.429 . S
C483 C477 1.429 . S
C483 C484 1.523 . S
C484 C465 1.368 . S
C484 C478 1.368 . S
C484 C483 1.523 . S
C485 C469 1.429 . S
C485 C481 1.429 . S
C485 C486 1.523 . S
C486 C470 1.368 . S
C486 C482 1.368 . S
C486 C485 1.523 . S
H487 C462 0.950 . S
H488 C464 0.950 . S
H489 C465 0.949 . S
H490 C467 0.950 . S
H491 C469 0.950 . S
C492 C493 1.349 . S
C492 C494 1.327 . S
C492 H517 0.950 . S
C493 C492 1.349 . S
C493 C509 1.349 . S
C494 C492 1.327 . S
C494 C513 1.429 . S
C494 H518 0.950 . S
C495 C512 1.574 . S
C495 C514 1.368 . S
C495 H519 0.949 . S
H496 C500 0.949 . S
C497 C498 1.349 . S
C497 C499 1.327 . S
C497 H520 0.950 . S
C498 C497 1.349 . S
C498 C510 1.349 . S
C499 C497 1.327 . S
C499 C515 1.429 . S
C499 H521 0.950 . S
C500 H496 0.949 . S
C500 C508 1.574 . S
C500 C516 1.368 . S
H501 C509 0.950 . S
H502 C507 0.950 . S
H503 C508 0.949 . S
H504 C510 0.950 . S
H505 C511 0.950 . S
H506 C512 0.949 . S
C507 H502 0.950 . S
C507 C509 1.327 . S
C507 C513 1.429 . S
C508 C500 1.574 . S
C508 H503 0.949 . S
C508 C514 1.368 . S
C509 C493 1.349 . S
C509 H501 0.950 . S
C509 C507 1.327 . S
C510 C498 1.349 . S
C510 H504 0.950 . S
C510 C511 1.327 . S
C511 H505 0.950 . S
C511 C510 1.327 . S
C511 C515 1.429 . S
C512 C495 1.574 . S
C512 H506 0.949 . S
C512 C516 1.368 . S
C513 C494 1.429 . S
C513 C507 1.429 . S
C513 C514 1.523 . S
C514 C495 1.368 . S
C514 C508 1.368 . S
C514 C513 1.523 . S
C515 C499 1.429 . S
C515 C511 1.429 . S
C515 C516 1.523 . S
C516 C500 1.368 . S
C516 C512 1.368 . S
C516 C515 1.523 . S
H517 C492 0.950 . S
H518 C494 0.950 . S
H519 C495 0.949 . S
H520 C497 0.950 . S
H521 C499 0.950 . S
C522 C523 1.349 . S
C522 C524 1.327 . S
C522 H547 0.950 . S
C523 C522 1.349 . S
C523 C539 1.349 . S
C524 C522 1.327 . S
C524 C543 1.429 . S
C524 H548 0.950 . S
C525 C542 1.574 . S
C525 C544 1.368 . S
C525 H549 0.949 . S
H526 C530 0.949 . S
C527 C528 1.349 . S
C527 C529 1.327 . S
C527 H550 0.950 . S
C528 C527 1.349 . S
C528 C540 1.349 . S
C529 C527 1.327 . S
C529 C545 1.429 . S
C529 H551 0.950 . S
C530 H526 0.949 . S
C530 C538 1.574 . S
C530 C546 1.368 . S
H531 C539 0.950 . S
H532 C537 0.950 . S
H533 C538 0.949 . S
H534 C540 0.950 . S
H535 C541 0.950 . S
H536 C542 0.949 . S
C537 H532 0.950 . S
C537 C539 1.327 . S
C537 C543 1.429 . S
C538 C530 1.574 . S
C538 H533 0.949 . S
C538 C544 1.368 . S
C539 C523 1.349 . S
C539 H531 0.950 . S
C539 C537 1.327 . S
C540 C528 1.349 . S
C540 H534 0.950 . S
C540 C541 1.327 . S
C541 H535 0.950 . S
C541 C540 1.327 . S
C541 C545 1.429 . S
C542 C525 1.574 . S
C542 H536 0.949 . S
C542 C546 1.368 . S
C543 C524 1.429 . S
C543 C537 1.429 . S
C543 C544 1.523 . S
C544 C525 1.368 . S
C544 C538 1.368 . S
C544 C543 1.523 . S
C545 C529 1.429 . S
C545 C541 1.429 . S
C545 C546 1.523 . S
C546 C530 1.368 . S
C546 C542 1.368 . S
C546 C545 1.523 . S
H547 C522 0.950 . S
H548 C524 0.950 . S
H549 C525 0.949 . S
H550 C527 0.950 . S
H551 C529 0.950 . S
C552 C553 1.349 . S
C552 C554 1.327 . S
C552 H577 0.950 . S
C553 C552 1.349 . S
C553 C569 1.349 . S
C554 C552 1.327 . S
C554 C573 1.429 . S
C554 H578 0.950 . S
C555 C572 1.574 . S
C555 C574 1.368 . S
C555 H579 0.949 . S
H556 C560 0.949 . S
C557 C558 1.349 . S
C557 C559 1.327 . S
C557 H580 0.950 . S
C558 C557 1.349 . S
C558 C570 1.349 . S
C559 C557 1.327 . S
C559 C575 1.429 . S
C559 H581 0.950 . S
C560 H556 0.949 . S
C560 C568 1.574 . S
C560 C576 1.368 . S
H561 C569 0.950 . S
H562 C567 0.950 . S
H563 C568 0.949 . S
H564 C570 0.950 . S
H565 C571 0.950 . S
H566 C572 0.949 . S
C567 H562 0.950 . S
C567 C569 1.327 . S
C567 C573 1.429 . S
C568 C560 1.574 . S
C568 H563 0.949 . S
C568 C574 1.368 . S
C569 C553 1.349 . S
C569 H561 0.950 . S
C569 C567 1.327 . S
C570 C558 1.349 . S
C570 H564 0.950 . S
C570 C571 1.327 . S
C571 H565 0.950 . S
C571 C570 1.327 . S
C571 C575 1.429 . S
C572 C555 1.574 . S
C572 H566 0.949 . S
C572 C576 1.368 . S
C573 C554 1.429 . S
C573 C567 1.429 . S
C573 C574 1.523 . S
C574 C555 1.368 . S
C574 C568 1.368 . S
C574 C573 1.523 . S
C575 C559 1.429 . S
C575 C571 1.429 . S
C575 C576 1.523 . S
C576 C560 1.368 . S
C576 C572 1.368 . S
C576 C575 1.523 . S
H577 C552 0.950 . S
H578 C554 0.950 . S
H579 C555 0.949 . S
H580 C557 0.950 . S
H581 C559 0.950 . S
C582 C583 1.349 . S
C582 C584 1.327 . S
C582 H607 0.950 . S
C583 C582 1.349 . S
C583 C599 1.349 . S
C584 C582 1.327 . S
C584 C603 1.429 . S
C584 H608 0.950 . S
C585 C602 1.574 . S
C585 C604 1.368 . S
C585 H609 0.949 . S
H586 C590 0.949 . S
C587 C588 1.349 . S
C587 C589 1.327 . S
C587 H610 0.950 . S
C588 C587 1.349 . S
C588 C600 1.349 . S
C589 C587 1.327 . S
C589 C605 1.429 . S
C589 H611 0.950 . S
C590 H586 0.949 . S
C590 C598 1.574 . S
C590 C606 1.368 . S
H591 C599 0.950 . S
H592 C597 0.950 . S
H593 C598 0.949 . S
H594 C600 0.950 . S
H595 C601 0.950 . S
H596 C602 0.949 . S
C597 H592 0.950 . S
C597 C599 1.327 . S
C597 C603 1.429 . S
C598 C590 1.574 . S
C598 H593 0.949 . S
C598 C604 1.368 . S
C599 C583 1.349 . S
C599 H591 0.950 . S
C599 C597 1.327 . S
C600 C588 1.349 . S
C600 H594 0.950 . S
C600 C601 1.327 . S
C601 H595 0.950 . S
C601 C600 1.327 . S
C601 C605 1.429 . S
C602 C585 1.574 . S
C602 H596 0.949 . S
C602 C606 1.368 . S
C603 C584 1.429 . S
C603 C597 1.429 . S
C603 C604 1.523 . S
C604 C585 1.368 . S
C604 C598 1.368 . S
C604 C603 1.523 . S
C605 C589 1.429 . S
C605 C601 1.429 . S
C605 C606 1.523 . S
C606 C590 1.368 . S
C606 C602 1.368 . S
C606 C605 1.523 . S
H607 C582 0.950 . S
H608 C584 0.950 . S
H609 C585 0.949 . S
H610 C587 0.950 . S
H611 C589 0.950 . S
C612 C613 1.349 . S
C612 C614 1.327 . S
C612 H637 0.950 . S
C613 C612 1.349 . S
C613 C629 1.349 . S
C614 C612 1.327 . S
C614 C633 1.429 . S
C614 H638 0.950 . S
C615 C632 1.574 . S
C615 C634 1.368 . S
C615 H639 0.949 . S
H616 C620 0.949 . S
C617 C618 1.349 . S
C617 C619 1.327 . S
C617 H640 0.950 . S
C618 C617 1.349 . S
C618 C630 1.349 . S
C619 C617 1.327 . S
C619 C635 1.429 . S
C619 H641 0.950 . S
C620 H616 0.949 . S
C620 C628 1.574 . S
C620 C636 1.368 . S
H621 C629 0.950 . S
H622 C627 0.950 . S
H623 C628 0.949 . S
H624 C630 0.950 . S
H625 C631 0.950 . S
H626 C632 0.949 . S
C627 H622 0.950 . S
C627 C629 1.327 . S
C627 C633 1.429 . S
C628 C620 1.574 . S
C628 H623 0.949 . S
C628 C634 1.368 . S
C629 C613 1.349 . S
C629 H621 0.950 . S
C629 C627 1.327 . S
C630 C618 1.349 . S
C630 H624 0.950 . S
C630 C631 1.327 . S
C631 H625 0.950 . S
C631 C630 1.327 . S
C631 C635 1.429 . S
C632 C615 1.574 . S
C632 H626 0.949 . S
C632 C636 1.368 . S
C633 C614 1.429 . S
C633 C627 1.429 . S
C633 C634 1.523 . S
C634 C615 1.368 . S
C634 C628 1.368 . S
C634 C633 1.523 . S
C635 C619 1.429 . S
C635 C631 1.429 . S
C635 C636 1.523 . S
C636 C620 1.368 . S
C636 C632 1.368 . S
C636 C635 1.523 . S
H637 C612 0.950 . S
H638 C614 0.950 . S
H639 C615 0.949 . S
H640 C617 0.950 . S
H641 C619 0.950 . S
C642 C643 1.349 . S
C642 C644 1.327 . S
C642 H667 0.950 . S
C643 C642 1.349 . S
C643 C659 1.349 . S
C644 C642 1.327 . S
C644 C663 1.429 . S
C644 H668 0.950 . S
C645 C662 1.574 . S
C645 C664 1.368 . S
C645 H669 0.949 . S
H646 C650 0.949 . S
C647 C648 1.349 . S
C647 C649 1.327 . S
C647 H670 0.950 . S
C648 C647 1.349 . S
C648 C660 1.349 . S
C649 C647 1.327 . S
C649 C665 1.429 . S
C649 H671 0.950 . S
C650 H646 0.949 . S
C650 C658 1.574 . S
C650 C666 1.368 . S
H651 C659 0.950 . S
H652 C657 0.950 . S
H653 C658 0.949 . S
H654 C660 0.950 . S
H655 C661 0.950 . S
H656 C662 0.949 . S
C657 H652 0.950 . S
C657 C659 1.327 . S
C657 C663 1.429 . S
C658 C650 1.574 . S
C658 H653 0.949 . S
C658 C664 1.368 . S
C659 C643 1.349 . S
C659 H651 0.950 . S
C659 C657 1.327 . S
C660 C648 1.349 . S
C660 H654 0.950 . S
C660 C661 1.327 . S
C661 H655 0.950 . S
C661 C660 1.327 . S
C661 C665 1.429 . S
C662 C645 1.574 . S
C662 H656 0.949 . S
C662 C666 1.368 . S
C663 C644 1.429 . S
C663 C657 1.429 . S
C663 C664 1.523 . S
C664 C645 1.368 . S
C664 C658 1.368 . S
C664 C663 1.523 . S
C665 C649 1.429 . S
C665 C661 1.429 . S
C665 C666 1.523 . S
C666 C650 1.368 . S
C666 C662 1.368 . S
C666 C665 1.523 . S
H667 C642 0.950 . S
H668 C644 0.950 . S
H669 C645 0.949 . S
H670 C647 0.950 . S
H671 C649 0.950 . S
C672 C673 1.349 . S
C672 C674 1.327 . S
C672 H697 0.950 . S
C673 C672 1.349 . S
C673 C689 1.349 . S
C674 C672 1.327 . S
C674 C693 1.429 . S
C674 H698 0.950 . S
C675 C692 1.574 . S
C675 C694 1.368 . S
C675 H699 0.949 . S
H676 C680 0.949 . S
C677 C678 1.349 . S
C677 C679 1.327 . S
C677 H700 0.950 . S
C678 C677 1.349 . S
C678 C690 1.349 . S
C679 C677 1.327 . S
C679 C695 1.429 . S
C679 H701 0.950 . S
C680 H676 0.949 . S
C680 C688 1.574 . S
C680 C696 1.368 . S
H681 C689 0.950 . S
H682 C687 0.950 . S
H683 C688 0.949 . S
H684 C690 0.950 . S
H685 C691 0.950 . S
H686 C692 0.949 . S
C687 H682 0.950 . S
C687 C689 1.327 . S
C687 C693 1.429 . S
C688 C680 1.574 . S
C688 H683 0.949 . S
C688 C694 1.368 . S
C689 C673 1.349 . S
C689 H681 0.950 . S
C689 C687 1.327 . S
C690 C678 1.349 . S
C690 H684 0.950 . S
C690 C691 1.327 . S
C691 H685 0.950 . S
C691 C690 1.327 . S
C691 C695 1.429 . S
C692 C675 1.574 . S
C692 H686 0.949 . S
C692 C696 1.368 . S
C693 C674 1.429 . S
C693 C687 1.429 . S
C693 C694 1.523 . S
C694 C675 1.368 . S
C694 C688 1.368 . S
C694 C693 1.523 . S
C695 C679 1.429 . S
C695 C691 1.429 . S
C695 C696 1.523 . S
C696 C680 1.368 . S
C696 C692 1.368 . S
C696 C695 1.523 . S
H697 C672 0.950 . S
H698 C674 0.950 . S
H699 C675 0.949 . S
H700 C677 0.950 . S
H701 C679 0.950 . S
C702 C703 1.349 . S
C702 C704 1.327 . S
C702 H727 0.950 . S
C703 C702 1.349 . S
C703 C719 1.349 . S
C704 C702 1.327 . S
C704 C723 1.429 . S
C704 H728 0.950 . S
C705 C722 1.574 . S
C705 C724 1.368 . S
C705 H729 0.949 . S
H706 C710 0.949 . S
C707 C708 1.349 . S
C707 C709 1.327 . S
C707 H730 0.950 . S
C708 C707 1.349 . S
C708 C720 1.349 . S
C709 C707 1.327 . S
C709 C725 1.429 . S
C709 H731 0.950 . S
C710 H706 0.949 . S
C710 C718 1.574 . S
C710 C726 1.368 . S
H711 C719 0.950 . S
H712 C717 0.950 . S
H713 C718 0.949 . S
H714 C720 0.950 . S
H715 C721 0.950 . S
H716 C722 0.949 . S
C717 H712 0.950 . S
C717 C719 1.327 . S
C717 C723 1.429 . S
C718 C710 1.574 . S
C718 H713 0.949 . S
C718 C724 1.368 . S
C719 C703 1.349 . S
C719 H711 0.950 . S
C719 C717 1.327 . S
C720 C708 1.349 . S
C720 H714 0.950 . S
C720 C721 1.327 . S
C721 H715 0.950 . S
C721 C720 1.327 . S
C721 C725 1.429 . S
C722 C705 1.574 . S
C722 H716 0.949 . S
C722 C726 1.368 . S
C723 C704 1.429 . S
C723 C717 1.429 . S
C723 C724 1.523 . S
C724 C705 1.368 . S
C724 C718 1.368 . S
C724 C723 1.523 . S
C725 C709 1.429 . S
C725 C721 1.429 . S
C725 C726 1.523 . S
C726 C710 1.368 . S
C726 C722 1.368 . S
C726 C725 1.523 . S
H727 C702 0.950 . S
H728 C704 0.950 . S
H729 C705 0.949 . S
H730 C707 0.950 . S
H731 C709 0.950 . S
C732 C733 1.349 . S
C732 C734 1.327 . S
C732 H757 0.950 . S
C733 C732 1.349 . S
C733 C749 1.349 . S
C734 C732 1.327 . S
C734 C753 1.429 . S
C734 H758 0.950 . S
C735 C752 1.574 . S
C735 C754 1.368 . S
C735 H759 0.949 . S
H736 C740 0.949 . S
C737 C738 1.349 . S
C737 C739 1.327 . S
C737 H760 0.950 . S
C738 C737 1.349 . S
C738 C750 1.349 . S
C739 C737 1.327 . S
C739 C755 1.429 . S
C739 H761 0.950 . S
C740 H736 0.949 . S
C740 C748 1.574 . S
C740 C756 1.368 . S
H741 C749 0.950 . S
H742 C747 0.950 . S
H743 C748 0.949 . S
H744 C750 0.950 . S
H745 C751 0.950 . S
H746 C752 0.949 . S
C747 H742 0.950 . S
C747 C749 1.327 . S
C747 C753 1.429 . S
C748 C740 1.574 . S
C748 H743 0.949 . S
C748 C754 1.368 . S
C749 C733 1.349 . S
C749 H741 0.950 . S
C749 C747 1.327 . S
C750 C738 1.349 . S
C750 H744 0.950 . S
C750 C751 1.327 . S
C751 H745 0.950 . S
C751 C750 1.327 . S
C751 C755 1.429 . S
C752 C735 1.574 . S
C752 H746 0.949 . S
C752 C756 1.368 . S
C753 C734 1.429 . S
C753 C747 1.429 . S
C753 C754 1.523 . S
C754 C735 1.368 . S
C754 C748 1.368 . S
C754 C753 1.523 . S
C755 C739 1.429 . S
C755 C751 1.429 . S
C755 C756 1.523 . S
C756 C740 1.368 . S
C756 C752 1.368 . S
C756 C755 1.523 . S
H757 C732 0.950 . S
H758 C734 0.950 . S
H759 C735 0.949 . S
H760 C737 0.950 . S
H761 C739 0.950 . S
C762 C763 1.349 . S
C762 C764 1.327 . S
C762 H787 0.950 . S
C763 C762 1.349 . S
C763 C779 1.349 . S
C764 C762 1.327 . S
C764 C783 1.429 . S
C764 H788 0.950 . S
C765 C782 1.574 . S
C765 C784 1.368 . S
C765 H789 0.949 . S
H766 C770 0.949 . S
C767 C768 1.349 . S
C767 C769 1.327 . S
C767 H790 0.950 . S
C768 C767 1.349 . S
C768 C780 1.349 . S
C769 C767 1.327 . S
C769 C785 1.429 . S
C769 H791 0.950 . S
C770 H766 0.949 . S
C770 C778 1.574 . S
C770 C786 1.368 . S
H771 C779 0.950 . S
H772 C777 0.950 . S
H773 C778 0.949 . S
H774 C780 0.950 . S
H775 C781 0.950 . S
H776 C782 0.949 . S
C777 H772 0.950 . S
C777 C779 1.327 . S
C777 C783 1.429 . S
C778 C770 1.574 . S
C778 H773 0.949 . S
C778 C784 1.368 . S
C779 C763 1.349 . S
C779 H771 0.950 . S
C779 C777 1.327 . S
C780 C768 1.349 . S
C780 H774 0.950 . S
C780 C781 1.327 . S
C781 H775 0.950 . S
C781 C780 1.327 . S
C781 C785 1.429 . S
C782 C765 1.574 . S
C782 H776 0.949 . S
C782 C786 1.368 . S
C783 C764 1.429 . S
C783 C777 1.429 . S
C783 C784 1.523 . S
C784 C765 1.368 . S
C784 C778 1.368 . S
C784 C783 1.523 . S
C785 C769 1.429 . S
C785 C781 1.429 . S
C785 C786 1.523 . S
C786 C770 1.368 . S
C786 C782 1.368 . S
C786 C785 1.523 . S
H787 C762 0.950 . S
H788 C764 0.950 . S
H789 C765 0.949 . S
H790 C767 0.950 . S
H791 C769 0.950 . S
C792 C793 1.349 . S
C792 C794 1.327 . S
C792 H817 0.950 . S
C793 C792 1.349 . S
C793 C809 1.349 . S
C794 C792 1.327 . S
C794 C813 1.429 . S
C794 H818 0.950 . S
C795 C812 1.574 . S
C795 C814 1.368 . S
C795 H819 0.949 . S
H796 C800 0.949 . S
C797 C798 1.349 . S
C797 C799 1.327 . S
C797 H820 0.950 . S
C798 C797 1.349 . S
C798 C810 1.349 . S
C799 C797 1.327 . S
C799 C815 1.429 . S
C799 H821 0.950 . S
C800 H796 0.949 . S
C800 C808 1.574 . S
C800 C816 1.368 . S
H801 C809 0.950 . S
H802 C807 0.950 . S
H803 C808 0.949 . S
H804 C810 0.950 . S
H805 C811 0.950 . S
H806 C812 0.949 . S
C807 H802 0.950 . S
C807 C809 1.327 . S
C807 C813 1.429 . S
C808 C800 1.574 . S
C808 H803 0.949 . S
C808 C814 1.368 . S
C809 C793 1.349 . S
C809 H801 0.950 . S
C809 C807 1.327 . S
C810 C798 1.349 . S
C810 H804 0.950 . S
C810 C811 1.327 . S
C811 H805 0.950 . S
C811 C810 1.327 . S
C811 C815 1.429 . S
C812 C795 1.574 . S
C812 H806 0.949 . S
C812 C816 1.368 . S
C813 C794 1.429 . S
C813 C807 1.429 . S
C813 C814 1.523 . S
C814 C795 1.368 . S
C814 C808 1.368 . S
C814 C813 1.523 . S
C815 C799 1.429 . S
C815 C811 1.429 . S
C815 C816 1.523 . S
C816 C800 1.368 . S
C816 C812 1.368 . S
C816 C815 1.523 . S
H817 C792 0.950 . S
H818 C794 0.950 . S
H819 C795 0.949 . S
H820 C797 0.950 . S
H821 C799 0.950 . S
C822 C823 1.349 . S
C822 C824 1.327 . S
C822 H847 0.950 . S
C823 C822 1.349 . S
C823 C839 1.349 . S
C824 C822 1.327 . S
C824 C843 1.429 . S
C824 H848 0.950 . S
C825 C842 1.574 . S
C825 C844 1.368 . S
C825 H849 0.949 . S
H826 C830 0.949 . S
C827 C828 1.349 . S
C827 C829 1.327 . S
C827 H850 0.950 . S
C828 C827 1.349 . S
C828 C840 1.349 . S
C829 C827 1.327 . S
C829 C845 1.429 . S
C829 H851 0.950 . S
C830 H826 0.949 . S
C830 C838 1.574 . S
C830 C846 1.368 . S
H831 C839 0.950 . S
H832 C837 0.950 . S
H833 C838 0.949 . S
H834 C840 0.950 . S
H835 C841 0.950 . S
H836 C842 0.949 . S
C837 H832 0.950 . S
C837 C839 1.327 . S
C837 C843 1.429 . S
C838 C830 1.574 . S
C838 H833 0.949 . S
C838 C844 1.368 . S
C839 C823 1.349 . S
C839 H831 0.950 . S
C839 C837 1.327 . S
C840 C828 1.349 . S
C840 H834 0.950 . S
C840 C841 1.327 . S
C841 H835 0.950 . S
C841 C840 1.327 . S
C841 C845 1.429 . S
C842 C825 1.574 . S
C842 H836 0.949 . S
C842 C846 1.368 . S
C843 C824 1.429 . S
C843 C837 1.429 . S
C843 C844 1.523 . S
C844 C825 1.368 . S
C844 C838 1.368 . S
C844 C843 1.523 . S
C845 C829 1.429 . S
C845 C841 1.429 . S
C845 C846 1.523 . S
C846 C830 1.368 . S
C846 C842 1.368 . S
C846 C845 1.523 . S
H847 C822 0.950 . S
H848 C824 0.950 . S
H849 C825 0.949 . S
H850 C827 0.950 . S
H851 C829 0.950 . S
C852 C853 1.349 . S
C852 C854 1.327 . S
C852 H877 0.950 . S
C853 C852 1.349 . S
C853 C869 1.349 . S
C854 C852 1.327 . S
C854 C873 1.429 . S
C854 H878 0.950 . S
C855 C872 1.574 . S
C855 C874 1.368 . S
C855 H879 0.949 . S
H856 C860 0.949 . S
C857 C858 1.349 . S
C857 C859 1.327 . S
C857 H880 0.950 . S
C858 C857 1.349 . S
C858 C870 1.349 . S
C859 C857 1.327 . S
C859 C875 1.429 . S
C859 H881 0.950 . S
C860 H856 0.949 . S
C860 C868 1.574 . S
C860 C876 1.368 . S
H861 C869 0.950 . S
H862 C867 0.950 . S
H863 C868 0.949 . S
H864 C870 0.950 . S
H865 C871 0.950 . S
H866 C872 0.949 . S
C867 H862 0.950 . S
C867 C869 1.327 . S
C867 C873 1.429 . S
C868 C860 1.574 . S
C868 H863 0.949 . S
C868 C874 1.368 . S
C869 C853 1.349 . S
C869 H861 0.950 . S
C869 C867 1.327 . S
C870 C858 1.349 . S
C870 H864 0.950 . S
C870 C871 1.327 . S
C871 H865 0.950 . S
C871 C870 1.327 . S
C871 C875 1.429 . S
C872 C855 1.574 . S
C872 H866 0.949 . S
C872 C876 1.368 . S
C873 C854 1.429 . S
C873 C867 1.429 . S
C873 C874 1.523 . S
C874 C855 1.368 . S
C874 C868 1.368 . S
C874 C873 1.523 . S
C875 C859 1.429 . S
C875 C871 1.429 . S
C875 C876 1.523 . S
C876 C860 1.368 . S
C876 C872 1.368 . S
C876 C875 1.523 . S
H877 C852 0.950 . S
H878 C854 0.950 . S
H879 C855 0.949 . S
H880 C857 0.950 . S
H881 C859 0.950 . S
C882 C883 1.349 . S
C882 C884 1.327 . S
C882 H907 0.950 . S
C883 C882 1.349 . S
C883 C899 1.349 . S
C884 C882 1.327 . S
C884 C903 1.429 . S
C884 H908 0.950 . S
C885 C902 1.574 . S
C885 C904 1.368 . S
C885 H909 0.949 . S
H886 C890 0.949 . S
C887 C888 1.349 . S
C887 C889 1.327 . S
C887 H910 0.950 . S
C888 C887 1.349 . S
C888 C900 1.349 . S
C889 C887 1.327 . S
C889 C905 1.429 . S
C889 H911 0.950 . S
C890 H886 0.949 . S
C890 C898 1.574 . S
C890 C906 1.368 . S
H891 C899 0.950 . S
H892 C897 0.950 . S
H893 C898 0.949 . S
H894 C900 0.950 . S
H895 C901 0.950 . S
H896 C902 0.949 . S
C897 H892 0.950 . S
C897 C899 1.327 . S
C897 C903 1.429 . S
C898 C890 1.574 . S
C898 H893 0.949 . S
C898 C904 1.368 . S
C899 C883 1.349 . S
C899 H891 0.950 . S
C899 C897 1.327 . S
C900 C888 1.349 . S
C900 H894 0.950 . S
C900 C901 1.327 . S
C901 H895 0.950 . S
C901 C900 1.327 . S
C901 C905 1.429 . S
C902 C885 1.574 . S
C902 H896 0.949 . S
C902 C906 1.368 . S
C903 C884 1.429 . S
C903 C897 1.429 . S
C903 C904 1.523 . S
C904 C885 1.368 . S
C904 C898 1.368 . S
C904 C903 1.523 . S
C905 C889 1.429 . S
C905 C901 1.429 . S
C905 C906 1.523 . S
C906 C890 1.368 . S
C906 C902 1.368 . S
C906 C905 1.523 . S
H907 C882 0.950 . S
H908 C884 0.950 . S
H909 C885 0.949 . S
H910 C887 0.950 . S
H911 C889 0.950 . S
C912 C913 1.349 . S
C912 C914 1.327 . S
C912 H937 0.950 . S
C913 C912 1.349 . S
C913 C929 1.349 . S
C914 C912 1.327 . S
C914 C933 1.429 . S
C914 H938 0.950 . S
C915 C932 1.574 . S
C915 C934 1.368 . S
C915 H939 0.949 . S
H916 C920 0.949 . S
C917 C918 1.349 . S
C917 C919 1.327 . S
C917 H940 0.950 . S
C918 C917 1.349 . S
C918 C930 1.349 . S
C919 C917 1.327 . S
C919 C935 1.429 . S
C919 H941 0.950 . S
C920 H916 0.949 . S
C920 C928 1.574 . S
C920 C936 1.368 . S
H921 C929 0.950 . S
H922 C927 0.950 . S
H923 C928 0.949 . S
H924 C930 0.950 . S
H925 C931 0.950 . S
H926 C932 0.949 . S
C927 H922 0.950 . S
C927 C929 1.327 . S
C927 C933 1.429 . S
C928 C920 1.574 . S
C928 H923 0.949 . S
C928 C934 1.368 . S
C929 C913 1.349 . S
C929 H921 0.950 . S
C929 C927 1.327 . S
C930 C918 1.349 . S
C930 H924 0.950 . S
C930 C931 1.327 . S
C931 H925 0.950 . S
C931 C930 1.327 . S
C931 C935 1.429 . S
C932 C915 1.574 . S
C932 H926 0.949 . S
C932 C936 1.368 . S
C933 C914 1.429 . S
C933 C927 1.429 . S
C933 C934 1.523 . S
C934 C915 1.368 . S
C934 C928 1.368 . S
C934 C933 1.523 . S
C935 C919 1.429 . S
C935 C931 1.429 . S
C935 C936 1.523 . S
C936 C920 1.368 . S
C936 C932 1.368 . S
C936 C935 1.523 . S
H937 C912 0.950 . S
H938 C914 0.950 . S
H939 C915 0.949 . S
H940 C917 0.950 . S
H941 C919 0.950 . S
C942 C943 1.349 . S
C942 C944 1.327 . S
C942 H967 0.950 . S
C943 C942 1.349 . S
C943 C959 1.349 . S
C944 C942 1.327 . S
C944 C963 1.429 . S
C944 H968 0.950 . S
C945 C962 1.574 . S
C945 C964 1.368 . S
C945 H969 0.949 . S
H946 C950 0.949 . S
C947 C948 1.349 . S
C947 C949 1.327 . S
C947 H970 0.950 . S
C948 C947 1.349 . S
C948 C960 1.349 . S
C949 C947 1.327 . S
C949 C965 1.429 . S
C949 H971 0.950 . S
C950 H946 0.949 . S
C950 C958 1.574 . S
C950 C966 1.368 . S
H951 C959 0.950 . S
H952 C957 0.950 . S
H953 C958 0.949 . S
H954 C960 0.950 . S
H955 C961 0.950 . S
H956 C962 0.949 . S
C957 H952 0.950 . S
C957 C959 1.327 . S
C957 C963 1.429 . S
C958 C950 1.574 . S
C958 H953 0.949 . S
C958 C964 1.368 . S
C959 C943 1.349 . S
C959 H951 0.950 . S
C959 C957 1.327 . S
C960 C948 1.349 . S
C960 H954 0.950 . S
C960 C961 1.327 . S
C961 H955 0.950 . S
C961 C960 1.327 . S
C961 C965 1.429 . S
C962 C945 1.574 . S
C962 H956 0.949 . S
C962 C966 1.368 . S
C963 C944 1.429 . S
C963 C957 1.429 . S
C963 C964 1.523 . S
C964 C945 1.368 . S
C964 C958 1.368 . S
C964 C963 1.523 . S
C965 C949 1.429 . S
C965 C961 1.429 . S
C965 C966 1.523 . S
C966 C950 1.368 . S
C966 C962 1.368 . S
C966 C965 1.523 . S
H967 C942 0.950 . S
H968 C944 0.950 . S
H969 C945 0.949 . S
H970 C947 0.950 . S
H971 C949 0.950 . S
C972 C973 1.349 . S
C972 C974 1.327 . S
C972 H997 0.950 . S
C973 C972 1.349 . S
C973 C989 1.349 . S
C974 C972 1.327 . S
C974 C993 1.429 . S
C974 H998 0.950 . S
C975 C992 1.574 . S
C975 C994 1.368 . S
C975 H999 0.949 . S
H976 C980 0.949 . S
C977 C978 1.349 . S
C977 C979 1.327 . S
C977 H1000 0.950 . S
C978 C977 1.349 . S
C978 C990 1.349 . S
C979 C977 1.327 . S
C979 C995 1.429 . S
C979 H1001 0.950 . S
C980 H976 0.949 . S
C980 C988 1.574 . S
C980 C996 1.368 . S
H981 C989 0.950 . S
H982 C987 0.950 . S
H983 C988 0.949 . S
H984 C990 0.950 . S
H985 C991 0.950 . S
H986 C992 0.949 . S
C987 H982 0.950 . S
C987 C989 1.327 . S
C987 C993 1.429 . S
C988 C980 1.574 . S
C988 H983 0.949 . S
C988 C994 1.368 . S
C989 C973 1.349 . S
C989 H981 0.950 . S
C989 C987 1.327 . S
C990 C978 1.349 . S
C990 H984 0.950 . S
C990 C991 1.327 . S
C991 H985 0.950 . S
C991 C990 1.327 . S
C991 C995 1.429 . S
C992 C975 1.574 . S
C992 H986 0.949 . S
C992 C996 1.368 . S
C993 C974 1.429 . S
C993 C987 1.429 . S
C993 C994 1.523 . S
C994 C975 1.368 . S
C994 C988 1.368 . S
C994 C993 1.523 . S
C995 C979 1.429 . S
C995 C991 1.429 . S
C995 C996 1.523 . S
C996 C980 1.368 . S
C996 C992 1.368 . S
C996 C995 1.523 . S
H997 C972 0.950 . S
H998 C974 0.950 . S
H999 C975 0.949 . S
H1000 C977 0.950 . S
H1001 C979 0.950 . S
C1002 C1003 1.349 . S
C1002 C1004 1.327 . S
C1002 H1027 0.950 . S
C1003 C1002 1.349 . S
C1003 C1019 1.349 . S
C1004 C1002 1.327 . S
C1004 C1023 1.429 . S
C1004 H1028 0.950 . S
C1005 C1022 1.574 . S
C1005 C1024 1.368 . S
C1005 H1029 0.949 . S
H1006 C1010 0.949 . S
C1007 C1008 1.349 . S
C1007 C1009 1.327 . S
C1007 H1030 0.950 . S
C1008 C1007 1.349 . S
C1008 C1020 1.349 . S
C1009 C1007 1.327 . S
C1009 C1025 1.429 . S
C1009 H1031 0.950 . S
C1010 H1006 0.949 . S
C1010 C1018 1.574 . S
C1010 C1026 1.368 . S
H1011 C1019 0.950 . S
H1012 C1017 0.950 . S
H1013 C1018 0.949 . S
H1014 C1020 0.950 . S
H1015 C1021 0.950 . S
H1016 C1022 0.949 . S
C1017 H1012 0.950 . S
C1017 C1019 1.327 . S
C1017 C1023 1.429 . S
C1018 C1010 1.574 . S
C1018 H1013 0.949 . S
C1018 C1024 1.368 . S
C1019 C1003 1.349 . S
C1019 H1011 0.950 . S
C1019 C1017 1.327 . S
C1020 C1008 1.349 . S
C1020 H1014 0.950 . S
C1020 C1021 1.327 . S
C1021 H1015 0.950 . S
C1021 C1020 1.327 . S
C1021 C1025 1.429 . S
C1022 C1005 1.574 . S
C1022 H1016 0.949 . S
C1022 C1026 1.368 . S
C1023 C1004 1.429 . S
C1023 C1017 1.429 . S
C1023 C1024 1.523 . S
C1024 C1005 1.368 . S
C1024 C1018 1.368 . S
C1024 C1023 1.523 . S
C1025 C1009 1.429 . S
C1025 C1021 1.429 . S
C1025 C1026 1.523 . S
C1026 C1010 1.368 . S
C1026 C1022 1.368 . S
C1026 C1025 1.523 . S
H1027 C1002 0.950 . S
H1028 C1004 0.950 . S
H1029 C1005 0.949 . S
H1030 C1007 0.950 . S
H1031 C1009 0.950 . S
C1032 C1033 1.349 . S
C1032 C1034 1.327 . S
C1032 H1057 0.950 . S
C1033 C1032 1.349 . S
C1033 C1049 1.349 . S
C1034 C1032 1.327 . S
C1034 C1053 1.429 . S
C1034 H1058 0.950 . S
C1035 C1052 1.574 . S
C1035 C1054 1.368 . S
C1035 H1059 0.949 . S
H1036 C1040 0.949 . S
C1037 C1038 1.349 . S
C1037 C1039 1.327 . S
C1037 H1060 0.950 . S
C1038 C1037 1.349 . S
C1038 C1050 1.349 . S
C1039 C1037 1.327 . S
C1039 C1055 1.429 . S
C1039 H1061 0.950 . S
C1040 H1036 0.949 . S
C1040 C1048 1.574 . S
C1040 C1056 1.368 . S
H1041 C1049 0.950 . S
H1042 C1047 0.950 . S
H1043 C1048 0.949 . S
H1044 C1050 0.950 . S
H1045 C1051 0.950 . S
H1046 C1052 0.949 . S
C1047 H1042 0.950 . S
C1047 C1049 1.327 . S
C1047 C1053 1.429 . S
C1048 C1040 1.574 . S
C1048 H1043 0.949 . S
C1048 C1054 1.368 . S
C1049 C1033 1.349 . S
C1049 H1041 0.950 . S
C1049 C1047 1.327 . S
C1050 C1038 1.349 . S
C1050 H1044 0.950 . S
C1050 C1051 1.327 . S
C1051 H1045 0.950 . S
C1051 C1050 1.327 . S
C1051 C1055 1.429 . S
C1052 C1035 1.574 . S
C1052 H1046 0.949 . S
C1052 C1056 1.368 . S
C1053 C1034 1.429 . S
C1053 C1047 1.429 . S
C1053 C1054 1.523 . S
C1054 C1035 1.368 . S
C1054 C1048 1.368 . S
C1054 C1053 1.523 . S
C1055 C1039 1.429 . S
C1055 C1051 1.429 . S
C1055 C1056 1.523 . S
C1056 C1040 1.368 . S
C1056 C1052 1.368 . S
C1056 C1055 1.523 . S
H1057 C1032 0.950 . S
H1058 C1034 0.950 . S
H1059 C1035 0.949 . S
H1060 C1037 0.950 . S
H1061 C1039 0.950 . S
C1062 C1063 1.349 . S
C1062 C1064 1.327 . S
C1062 H1087 0.950 . S
C1063 C1062 1.349 . S
C1063 C1079 1.349 . S
C1064 C1062 1.327 . S
C1064 C1083 1.429 . S
C1064 H1088 0.950 . S
C1065 C1082 1.574 . S
C1065 C1084 1.368 . S
C1065 H1089 0.949 . S
H1066 C1070 0.949 . S
C1067 C1068 1.349 . S
C1067 C1069 1.327 . S
C1067 H1090 0.950 . S
C1068 C1067 1.349 . S
C1068 C1080 1.349 . S
C1069 C1067 1.327 . S
C1069 C1085 1.429 . S
C1069 H1091 0.950 . S
C1070 H1066 0.949 . S
C1070 C1078 1.574 . S
C1070 C1086 1.368 . S
H1071 C1079 0.950 . S
H1072 C1077 0.950 . S
H1073 C1078 0.949 . S
H1074 C1080 0.950 . S
H1075 C1081 0.950 . S
H1076 C1082 0.949 . S
C1077 H1072 0.950 . S
C1077 C1079 1.327 . S
C1077 C1083 1.429 . S
C1078 C1070 1.574 . S
C1078 H1073 0.949 . S
C1078 C1084 1.368 . S
C1079 C1063 1.349 . S
C1079 H1071 0.950 . S
C1079 C1077 1.327 . S
C1080 C1068 1.349 . S
C1080 H1074 0.950 . S
C1080 C1081 1.327 . S
C1081 H1075 0.950 . S
C1081 C1080 1.327 . S
C1081 C1085 1.429 . S
C1082 C1065 1.574 . S
C1082 H1076 0.949 . S
C1082 C1086 1.368 . S
C1083 C1064 1.429 . S
C1083 C1077 1.429 . S
C1083 C1084 1.523 1_554 S
C1084 C1065 1.368 . S
C1084 C1078 1.368 . S
C1084 C1083 1.523 1_556 S
C1085 C1069 1.429 . S
C1085 C1081 1.429 . S
C1085 C1086 1.523 . S
C1086 C1070 1.368 . S
C1086 C1082 1.368 . S
C1086 C1085 1.523 . S
H1087 C1062 0.950 . S
H1088 C1064 0.950 . S
H1089 C1065 0.949 . S
H1090 C1067 0.950 . S
H1091 C1069 0.950 . S
C1092 C1093 1.349 . S
C1092 C1094 1.327 . S
C1092 H1117 0.950 . S
C1093 C1092 1.349 . S
C1093 C1109 1.349 . S
C1094 C1092 1.327 . S
C1094 C1113 1.429 . S
C1094 H1118 0.950 . S
C1095 C1112 1.574 . S
C1095 C1114 1.368 . S
C1095 H1119 0.949 . S
H1096 C1100 0.949 . S
C1097 C1098 1.349 . S
C1097 C1099 1.327 . S
C1097 H1120 0.950 . S
C1098 C1097 1.349 . S
C1098 C1110 1.349 . S
C1099 C1097 1.327 . S
C1099 C1115 1.429 . S
C1099 H1121 0.950 . S
C1100 H1096 0.949 . S
C1100 C1108 1.574 . S
C1100 C1116 1.368 . S
H1101 C1109 0.950 . S
H1102 C1107 0.950 . S
H1103 C1108 0.949 . S
H1104 C1110 0.950 . S
H1105 C1111 0.950 . S
H1106 C1112 0.949 . S
C1107 H1102 0.950 . S
C1107 C1109 1.327 . S
C1107 C1113 1.429 . S
C1108 C1100 1.574 . S
C1108 H1103 0.949 . S
C1108 C1114 1.368 . S
C1109 C1093 1.349 . S
C1109 H1101 0.950 . S
C1109 C1107 1.327 . S
C1110 C1098 1.349 . S
C1110 H1104 0.950 . S
C1110 C1111 1.327 . S
C1111 H1105 0.950 . S
C1111 C1110 1.327 . S
C1111 C1115 1.429 . S
C1112 C1095 1.574 . S
C1112 H1106 0.949 . S
C1112 C1116 1.368 . S
C1113 C1094 1.429 . S
C1113 C1107 1.429 . S
C1113 C1114 1.523 . S
C1114 C1095 1.368 . S
C1114 C1108 1.368 . S
C1114 C1113 1.523 . S
C1115 C1099 1.429 . S
C1115 C1111 1.429 . S
C1115 C1116 1.523 . S
C1116 C1100 1.368 . S
C1116 C1112 1.368 . S
C1116 C1115 1.523 . S
H1117 C1092 0.950 . S
H1118 C1094 0.950 . S
H1119 C1095 0.949 . S
H1120 C1097 0.950 . S
H1121 C1099 0.950 . S
C1122 C1123 1.349 . S
C1122 C1124 1.327 . S
C1122 H1147 0.950 . S
C1123 C1122 1.349 . S
C1123 C1139 1.349 . S
C1124 C1122 1.327 . S
C1124 C1143 1.429 . S
C1124 H1148 0.950 . S
C1125 C1142 1.574 . S
C1125 C1144 1.368 . S
C1125 H1149 0.949 . S
H1126 C1130 0.949 . S
C1127 C1128 1.349 . S
C1127 C1129 1.327 . S
C1127 H1150 0.950 . S
C1128 C1127 1.349 . S
C1128 C1140 1.349 . S
C1129 C1127 1.327 . S
C1129 C1145 1.429 . S
C1129 H1151 0.950 . S
C1130 H1126 0.949 . S
C1130 C1138 1.574 . S
C1130 C1146 1.368 . S
H1131 C1139 0.950 . S
H1132 C1137 0.950 . S
H1133 C1138 0.949 . S
H1134 C1140 0.950 . S
H1135 C1141 0.950 . S
H1136 C1142 0.949 . S
C1137 H1132 0.950 . S
C1137 C1139 1.327 . S
C1137 C1143 1.429 . S
C1138 C1130 1.574 . S
C1138 H1133 0.949 . S
C1138 C1144 1.368 . S
C1139 C1123 1.349 . S
C1139 H1131 0.950 . S
C1139 C1137 1.327 . S
C1140 C1128 1.349 . S
C1140 H1134 0.950 . S
C1140 C1141 1.327 . S
C1141 H1135 0.950 . S
C1141 C1140 1.327 . S
C1141 C1145 1.429 . S
C1142 C1125 1.574 . S
C1142 H1136 0.949 . S
C1142 C1146 1.368 . S
C1143 C1124 1.429 . S
C1143 C1137 1.429 . S
C1143 C1144 1.523 . S
C1144 C1125 1.368 . S
C1144 C1138 1.368 . S
C1144 C1143 1.523 . S
C1145 C1129 1.429 . S
C1145 C1141 1.429 . S
C1145 C1146 1.523 1_556 S
C1146 C1130 1.368 . S
C1146 C1142 1.368 . S
C1146 C1145 1.523 1_554 S
H1147 C1122 0.950 . S
H1148 C1124 0.950 . S
H1149 C1125 0.949 . S
H1150 C1127 0.950 . S
H1151 C1129 0.950 . S
C1152 C1153 1.349 . S
C1152 C1154 1.327 . S
C1152 H1177 0.950 . S
C1153 C1152 1.349 . S
C1153 C1169 1.349 . S
C1154 C1152 1.327 . S
C1154 C1173 1.429 . S
C1154 H1178 0.950 . S
C1155 C1172 1.574 . S
C1155 C1174 1.368 . S
C1155 H1179 0.949 . S
H1156 C1160 0.949 . S
C1157 C1158 1.349 . S
C1157 C1159 1.327 . S
C1157 H1180 0.950 . S
C1158 C1157 1.349 . S
C1158 C1170 1.349 . S
C1159 C1157 1.327 . S
C1159 C1175 1.429 . S
C1159 H1181 0.950 . S
C1160 H1156 0.949 . S
C1160 C1168 1.574 . S
C1160 C1176 1.368 . S
H1161 C1169 0.950 . S
H1162 C1167 0.950 . S
H1163 C1168 0.949 . S
H1164 C1170 0.950 . S
H1165 C1171 0.950 . S
H1166 C1172 0.949 . S
C1167 H1162 0.950 . S
C1167 C1169 1.327 . S
C1167 C1173 1.429 . S
C1168 C1160 1.574 . S
C1168 H1163 0.949 . S
C1168 C1174 1.368 . S
C1169 C1153 1.349 . S
C1169 H1161 0.950 . S
C1169 C1167 1.327 . S
C1170 C1158 1.349 . S
C1170 H1164 0.950 . S
C1170 C1171 1.327 . S
C1171 H1165 0.950 . S
C1171 C1170 1.327 . S
C1171 C1175 1.429 . S
C1172 C1155 1.574 . S
C1172 H1166 0.949 . S
C1172 C1176 1.368 . S
C1173 C1154 1.429 . S
C1173 C1167 1.429 . S
C1173 C1174 1.523 . S
C1174 C1155 1.368 . S
C1174 C1168 1.368 . S
C1174 C1173 1.523 . S
C1175 C1159 1.429 . S
C1175 C1171 1.429 . S
C1175 C1176 1.523 . S
C1176 C1160 1.368 . S
C1176 C1172 1.368 . S
C1176 C1175 1.523 . S
H1177 C1152 0.950 . S
H1178 C1154 0.950 . S
H1179 C1155 0.949 . S
H1180 C1157 0.950 . S
H1181 C1159 0.950 . S
C1182 C1183 1.349 . S
C1182 C1184 1.327 . S
C1182 H1207 0.950 . S
C1183 C1182 1.349 . S
C1183 C1199 1.349 . S
C1184 C1182 1.327 . S
C1184 C1203 1.429 . S
C1184 H1208 0.950 . S
C1185 C1202 1.574 . S
C1185 C1204 1.368 . S
C1185 H1209 0.949 . S
H1186 C1190 0.949 . S
C1187 C1188 1.349 . S
C1187 C1189 1.327 . S
C1187 H1210 0.950 . S
C1188 C1187 1.349 . S
C1188 C1200 1.349 . S
C1189 C1187 1.327 . S
C1189 C1205 1.429 . S
C1189 H1211 0.950 . S
C1190 H1186 0.949 . S
C1190 C1198 1.574 . S
C1190 C1206 1.368 . S
H1191 C1199 0.950 . S
H1192 C1197 0.950 . S
H1193 C1198 0.949 . S
H1194 C1200 0.950 . S
H1195 C1201 0.950 . S
H1196 C1202 0.949 . S
C1197 H1192 0.950 . S
C1197 C1199 1.327 . S
C1197 C1203 1.429 . S
C1198 C1190 1.574 . S
C1198 H1193 0.949 . S
C1198 C1204 1.368 . S
C1199 C1183 1.349 . S
C1199 H1191 0.950 . S
C1199 C1197 1.327 . S
C1200 C1188 1.349 . S
C1200 H1194 0.950 . S
C1200 C1201 1.327 . S
C1201 H1195 0.950 . S
C1201 C1200 1.327 . S
C1201 C1205 1.429 . S
C1202 C1185 1.574 . S
C1202 H1196 0.949 . S
C1202 C1206 1.368 . S
C1203 C1184 1.429 . S
C1203 C1197 1.429 . S
C1203 C1204 1.523 1_655 S
C1204 C1185 1.368 . S
C1204 C1198 1.368 . S
C1204 C1203 1.523 1_455 S
C1205 C1189 1.429 . S
C1205 C1201 1.429 . S
C1205 C1206 1.523 . S
C1206 C1190 1.368 . S
C1206 C1202 1.368 . S
C1206 C1205 1.523 . S
H1207 C1182 0.950 . S
H1208 C1184 0.950 . S
H1209 C1185 0.949 . S
H1210 C1187 0.950 . S
H1211 C1189 0.950 . S
C1212 C1213 1.349 . S
C1212 C1214 1.327 . S
C1212 H1237 0.950 . S
C1213 C1212 1.349 . S
C1213 C1229 1.349 . S
C1214 C1212 1.327 . S
C1214 C1233 1.429 . S
C1214 H1238 0.950 . S
C1215 C1232 1.574 . S
C1215 C1234 1.368 . S
C1215 H1239 0.949 . S
H1216 C1220 0.949 . S
C1217 C1218 1.349 . S
C1217 C1219 1.327 . S
C1217 H1240 0.950 . S
C1218 C1217 1.349 . S
C1218 C1230 1.349 . S
C1219 C1217 1.327 . S
C1219 C1235 1.429 . S
C1219 H1241 0.950 . S
C1220 H1216 0.949 . S
C1220 C1228 1.574 . S
C1220 C1236 1.368 . S
H1221 C1229 0.950 . S
H1222 C1227 0.950 . S
H1223 C1228 0.949 . S
H1224 C1230 0.950 . S
H1225 C1231 0.950 . S
H1226 C1232 0.949 . S
C1227 H1222 0.950 . S
C1227 C1229 1.327 . S
C1227 C1233 1.429 . S
C1228 C1220 1.574 . S
C1228 H1223 0.949 . S
C1228 C1234 1.368 . S
C1229 C1213 1.349 . S
C1229 H1221 0.950 . S
C1229 C1227 1.327 . S
C1230 C1218 1.349 . S
C1230 H1224 0.950 . S
C1230 C1231 1.327 . S
C1231 H1225 0.950 . S
C1231 C1230 1.327 . S
C1231 C1235 1.429 . S
C1232 C1215 1.574 . S
C1232 H1226 0.949 . S
C1232 C1236 1.368 . S
C1233 C1214 1.429 . S
C1233 C1227 1.429 . S
C1233 C1234 1.523 1_455 S
C1234 C1215 1.368 . S
C1234 C1228 1.368 . S
C1234 C1233 1.523 1_655 S
C1235 C1219 1.429 . S
C1235 C1231 1.429 . S
C1235 C1236 1.523 . S
C1236 C1220 1.368 . S
C1236 C1232 1.368 . S
C1236 C1235 1.523 . S
H1237 C1212 0.950 . S
H1238 C1214 0.950 . S
H1239 C1215 0.949 . S
H1240 C1217 0.950 . S
H1241 C1219 0.950 . S
C1242 C1243 1.349 . S
C1242 C1244 1.327 . S
C1242 H1267 0.950 . S
C1243 C1242 1.349 . S
C1243 C1259 1.349 . S
C1244 C1242 1.327 . S
C1244 C1263 1.429 . S
C1244 H1268 0.950 . S
C1245 C1262 1.574 . S
C1245 C1264 1.368 . S
C1245 H1269 0.949 . S
H1246 C1250 0.949 . S
C1247 C1248 1.349 . S
C1247 C1249 1.327 . S
C1247 H1270 0.950 . S
C1248 C1247 1.349 . S
C1248 C1260 1.349 . S
C1249 C1247 1.327 . S
C1249 C1265 1.429 . S
C1249 H1271 0.950 . S
C1250 H1246 0.949 . S
C1250 C1258 1.574 . S
C1250 C1266 1.368 . S
H1251 C1259 0.950 . S
H1252 C1257 0.950 . S
H1253 C1258 0.949 . S
H1254 C1260 0.950 . S
H1255 C1261 0.950 . S
H1256 C1262 0.949 . S
C1257 H1252 0.950 . S
C1257 C1259 1.327 . S
C1257 C1263 1.429 . S
C1258 C1250 1.574 . S
C1258 H1253 0.949 . S
C1258 C1264 1.368 . S
C1259 C1243 1.349 . S
C1259 H1251 0.950 . S
C1259 C1257 1.327 . S
C1260 C1248 1.349 . S
C1260 H1254 0.950 . S
C1260 C1261 1.327 . S
C1261 H1255 0.950 . S
C1261 C1260 1.327 . S
C1261 C1265 1.429 . S
C1262 C1245 1.574 . S
C1262 H1256 0.949 . S
C1262 C1266 1.368 . S
C1263 C1244 1.429 . S
C1263 C1257 1.429 . S
C1263 C1264 1.523 . S
C1264 C1245 1.368 . S
C1264 C1258 1.368 . S
C1264 C1263 1.523 . S
C1265 C1249 1.429 . S
C1265 C1261 1.429 . S
C1265 C1266 1.523 . S
C1266 C1250 1.368 . S
C1266 C1262 1.368 . S
C1266 C1265 1.523 . S
H1267 C1242 0.950 . S
H1268 C1244 0.950 . S
H1269 C1245 0.949 . S
H1270 C1247 0.950 . S
H1271 C1249 0.950 . S
C1272 C1273 1.349 . S
C1272 C1274 1.327 . S
C1272 H1297 0.950 . S
C1273 C1272 1.349 . S
C1273 C1289 1.349 . S
C1274 C1272 1.327 . S
C1274 C1293 1.429 . S
C1274 H1298 0.950 . S
C1275 C1292 1.574 . S
C1275 C1294 1.368 . S
C1275 H1299 0.949 . S
H1276 C1280 0.949 . S
C1277 C1278 1.349 . S
C1277 C1279 1.327 . S
C1277 H1300 0.950 . S
C1278 C1277 1.349 . S
C1278 C1290 1.349 . S
C1279 C1277 1.327 . S
C1279 C1295 1.429 . S
C1279 H1301 0.950 . S
C1280 H1276 0.949 . S
C1280 C1288 1.574 . S
C1280 C1296 1.368 . S
H1281 C1289 0.950 . S
H1282 C1287 0.950 . S
H1283 C1288 0.949 . S
H1284 C1290 0.950 . S
H1285 C1291 0.950 . S
H1286 C1292 0.949 . S
C1287 H1282 0.950 . S
C1287 C1289 1.327 . S
C1287 C1293 1.429 . S
C1288 C1280 1.574 . S
C1288 H1283 0.949 . S
C1288 C1294 1.368 . S
C1289 C1273 1.349 . S
C1289 H1281 0.950 . S
C1289 C1287 1.327 . S
C1290 C1278 1.349 . S
C1290 H1284 0.950 . S
C1290 C1291 1.327 . S
C1291 H1285 0.950 . S
C1291 C1290 1.327 . S
C1291 C1295 1.429 . S
C1292 C1275 1.574 . S
C1292 H1286 0.949 . S
C1292 C1296 1.368 . S
C1293 C1274 1.429 . S
C1293 C1287 1.429 . S
C1293 C1294 1.523 . S
C1294 C1275 1.368 . S
C1294 C1288 1.368 . S
C1294 C1293 1.523 . S
C1295 C1279 1.429 . S
C1295 C1291 1.429 . S
C1295 C1296 1.523 . S
C1296 C1280 1.368 . S
C1296 C1292 1.368 . S
C1296 C1295 1.523 . S
H1297 C1272 0.950 . S
H1298 C1274 0.950 . S
H1299 C1275 0.949 . S
H1300 C1277 0.950 . S
H1301 C1279 0.950 . S
C1302 C1303 1.349 . S
C1302 C1304 1.327 . S
C1302 H1327 0.950 . S
C1303 C1302 1.349 . S
C1303 C1319 1.349 . S
C1304 C1302 1.327 . S
C1304 C1323 1.429 . S
C1304 H1328 0.950 . S
C1305 C1322 1.574 . S
C1305 C1324 1.368 . S
C1305 H1329 0.949 . S
H1306 C1310 0.949 . S
C1307 C1308 1.349 . S
C1307 C1309 1.327 . S
C1307 H1330 0.950 . S
C1308 C1307 1.349 . S
C1308 C1320 1.349 . S
C1309 C1307 1.327 . S
C1309 C1325 1.429 . S
C1309 H1331 0.950 . S
C1310 H1306 0.949 . S
C1310 C1318 1.574 . S
C1310 C1326 1.368 . S
H1311 C1319 0.950 . S
H1312 C1317 0.950 . S
H1313 C1318 0.949 . S
H1314 C1320 0.950 . S
H1315 C1321 0.950 . S
H1316 C1322 0.949 . S
C1317 H1312 0.950 . S
C1317 C1319 1.327 . S
C1317 C1323 1.429 . S
C1318 C1310 1.574 . S
C1318 H1313 0.949 . S
C1318 C1324 1.368 . S
C1319 C1303 1.349 . S
C1319 H1311 0.950 . S
C1319 C1317 1.327 . S
C1320 C1308 1.349 . S
C1320 H1314 0.950 . S
C1320 C1321 1.327 . S
C1321 H1315 0.950 . S
C1321 C1320 1.327 . S
C1321 C1325 1.429 . S
C1322 C1305 1.574 . S
C1322 H1316 0.949 . S
C1322 C1326 1.368 . S
C1323 C1304 1.429 . S
C1323 C1317 1.429 . S
C1323 C1324 1.523 1_565 S
C1324 C1305 1.368 . S
C1324 C1318 1.368 . S
C1324 C1323 1.523 1_545 S
C1325 C1309 1.429 . S
C1325 C1321 1.429 . S
C1325 C1326 1.523 . S
C1326 C1310 1.368 . S
C1326 C1322 1.368 . S
C1326 C1325 1.523 . S
H1327 C1302 0.950 . S
H1328 C1304 0.950 . S
H1329 C1305 0.949 . S
H1330 C1307 0.950 . S
H1331 C1309 0.950 . S
C1332 C1333 1.349 . S
C1332 C1334 1.327 . S
C1332 H1357 0.950 . S
C1333 C1332 1.349 . S
C1333 C1349 1.349 . S
C1334 C1332 1.327 . S
C1334 C1353 1.429 . S
C1334 H1358 0.950 . S
C1335 C1352 1.574 . S
C1335 C1354 1.368 . S
C1335 H1359 0.949 . S
H1336 C1340 0.949 . S
C1337 C1338 1.349 . S
C1337 C1339 1.327 . S
C1337 H1360 0.950 . S
C1338 C1337 1.349 . S
C1338 C1350 1.349 . S
C1339 C1337 1.327 . S
C1339 C1355 1.429 . S
C1339 H1361 0.950 . S
C1340 H1336 0.949 . S
C1340 C1348 1.574 . S
C1340 C1356 1.368 . S
H1341 C1349 0.950 . S
H1342 C1347 0.950 . S
H1343 C1348 0.949 . S
H1344 C1350 0.950 . S
H1345 C1351 0.950 . S
H1346 C1352 0.949 . S
C1347 H1342 0.950 . S
C1347 C1349 1.327 . S
C1347 C1353 1.429 . S
C1348 C1340 1.574 . S
C1348 H1343 0.949 . S
C1348 C1354 1.368 . S
C1349 C1333 1.349 . S
C1349 H1341 0.950 . S
C1349 C1347 1.327 . S
C1350 C1338 1.349 . S
C1350 H1344 0.950 . S
C1350 C1351 1.327 . S
C1351 H1345 0.950 . S
C1351 C1350 1.327 . S
C1351 C1355 1.429 . S
C1352 C1335 1.574 . S
C1352 H1346 0.949 . S
C1352 C1356 1.368 . S
C1353 C1334 1.429 . S
C1353 C1347 1.429 . S
C1353 C1354 1.523 1_545 S
C1354 C1335 1.368 . S
C1354 C1348 1.368 . S
C1354 C1353 1.523 1_565 S
C1355 C1339 1.429 . S
C1355 C1351 1.429 . S
C1355 C1356 1.523 . S
C1356 C1340 1.368 . S
C1356 C1352 1.368 . S
C1356 C1355 1.523 . S
H1357 C1332 0.950 . S
H1358 C1334 0.950 . S
H1359 C1335 0.949 . S
H1360 C1337 0.950 . S
H1361 C1339 0.950 . S
C1362 C1363 1.349 . S
C1362 C1364 1.327 . S
C1362 H1387 0.950 . S
C1363 C1362 1.349 . S
C1363 C1379 1.349 . S
C1364 C1362 1.327 . S
C1364 C1383 1.429 . S
C1364 H1388 0.950 . S
C1365 C1382 1.574 . S
C1365 C1384 1.368 . S
C1365 H1389 0.949 . S
H1366 C1370 0.949 . S
C1367 C1368 1.349 . S
C1367 C1369 1.327 . S
C1367 H1390 0.950 . S
C1368 C1367 1.349 . S
C1368 C1380 1.349 . S
C1369 C1367 1.327 . S
C1369 C1385 1.429 . S
C1369 H1391 0.950 . S
C1370 H1366 0.949 . S
C1370 C1378 1.574 . S
C1370 C1386 1.368 . S
H1371 C1379 0.950 . S
H1372 C1377 0.950 . S
H1373 C1378 0.949 . S
H1374 C1380 0.950 . S
H1375 C1381 0.950 . S
H1376 C1382 0.949 . S
C1377 H1372 0.950 . S
C1377 C1379 1.327 . S
C1377 C1383 1.429 . S
C1378 C1370 1.574 . S
C1378 H1373 0.949 . S
C1378 C1384 1.368 . S
C1379 C1363 1.349 . S
C1379 H1371 0.950 . S
C1379 C1377 1.327 . S
C1380 C1368 1.349 . S
C1380 H1374 0.950 . S
C1380 C1381 1.327 . S
C1381 H1375 0.950 . S
C1381 C1380 1.327 . S
C1381 C1385 1.429 . S
C1382 C1365 1.574 . S
C1382 H1376 0.949 . S
C1382 C1386 1.368 . S
C1383 C1364 1.429 . S
C1383 C1377 1.429 . S
C1383 C1384 1.523 . S
C1384 C1365 1.368 . S
C1384 C1378 1.368 . S
C1384 C1383 1.523 . S
C1385 C1369 1.429 . S
C1385 C1381 1.429 . S
C1385 C1386 1.523 . S
C1386 C1370 1.368 . S
C1386 C1382 1.368 . S
C1386 C1385 1.523 . S
H1387 C1362 0.950 . S
H1388 C1364 0.950 . S
H1389 C1365 0.949 . S
H1390 C1367 0.950 . S
H1391 C1369 0.950 . S
C1392 C1393 1.349 . S
C1392 C1394 1.327 . S
C1392 H1417 0.950 . S
C1393 C1392 1.349 . S
C1393 C1409 1.349 . S
C1394 C1392 1.327 . S
C1394 C1413 1.429 . S
C1394 H1418 0.950 . S
C1395 C1412 1.574 . S
C1395 C1414 1.368 . S
C1395 H1419 0.949 . S
H1396 C1400 0.949 . S
C1397 C1398 1.349 . S
C1397 C1399 1.327 . S
C1397 H1420 0.950 . S
C1398 C1397 1.349 . S
C1398 C1410 1.349 . S
C1399 C1397 1.327 . S
C1399 C1415 1.429 . S
C1399 H1421 0.950 . S
C1400 H1396 0.949 . S
C1400 C1408 1.574 . S
C1400 C1416 1.368 . S
H1401 C1409 0.950 . S
H1402 C1407 0.950 . S
H1403 C1408 0.949 . S
H1404 C1410 0.950 . S
H1405 C1411 0.950 . S
H1406 C1412 0.949 . S
C1407 H1402 0.950 . S
C1407 C1409 1.327 . S
C1407 C1413 1.429 . S
C1408 C1400 1.574 . S
C1408 H1403 0.949 . S
C1408 C1414 1.368 . S
C1409 C1393 1.349 . S
C1409 H1401 0.950 . S
C1409 C1407 1.327 . S
C1410 C1398 1.349 . S
C1410 H1404 0.950 . S
C1410 C1411 1.327 . S
C1411 H1405 0.950 . S
C1411 C1410 1.327 . S
C1411 C1415 1.429 . S
C1412 C1395 1.574 . S
C1412 H1406 0.949 . S
C1412 C1416 1.368 . S
C1413 C1394 1.429 . S
C1413 C1407 1.429 . S
C1413 C1414 1.523 . S
C1414 C1395 1.368 . S
C1414 C1408 1.368 . S
C1414 C1413 1.523 . S
C1415 C1399 1.429 . S
C1415 C1411 1.429 . S
C1415 C1416 1.523 . S
C1416 C1400 1.368 . S
C1416 C1412 1.368 . S
C1416 C1415 1.523 . S
H1417 C1392 0.950 . S
H1418 C1394 0.950 . S
H1419 C1395 0.949 . S
H1420 C1397 0.950 . S
H1421 C1399 0.950 . S
C1422 C1423 1.349 . S
C1422 C1424 1.327 . S
C1422 H1447 0.950 . S
C1423 C1422 1.349 . S
C1423 C1439 1.349 . S
C1424 C1422 1.327 . S
C1424 C1443 1.429 . S
C1424 H1448 0.950 . S
C1425 C1442 1.574 . S
C1425 C1444 1.368 . S
C1425 H1449 0.949 . S
H1426 C1430 0.949 . S
C1427 C1428 1.349 . S
C1427 C1429 1.327 . S
C1427 H1450 0.950 . S
C1428 C1427 1.349 . S
C1428 C1440 1.349 . S
C1429 C1427 1.327 . S
C1429 C1445 1.429 . S
C1429 H1451 0.950 . S
C1430 H1426 0.949 . S
C1430 C1438 1.574 . S
C1430 C1446 1.368 . S
H1431 C1439 0.950 . S
H1432 C1437 0.950 . S
H1433 C1438 0.949 . S
H1434 C1440 0.950 . S
H1435 C1441 0.950 . S
H1436 C1442 0.949 . S
C1437 H1432 0.950 . S
C1437 C1439 1.327 . S
C1437 C1443 1.429 . S
C1438 C1430 1.574 . S
C1438 H1433 0.949 . S
C1438 C1444 1.368 . S
C1439 C1423 1.349 . S
C1439 H1431 0.950 . S
C1439 C1437 1.327 . S
C1440 C1428 1.349 . S
C1440 H1434 0.950 . S
C1440 C1441 1.327 . S
C1441 H1435 0.950 . S
C1441 C1440 1.327 . S
C1441 C1445 1.429 . S
C1442 C1425 1.574 . S
C1442 H1436 0.949 . S
C1442 C1446 1.368 . S
C1443 C1424 1.429 . S
C1443 C1437 1.429 . S
C1443 C1444 1.523 1_556 S
C1444 C1425 1.368 . S
C1444 C1438 1.368 . S
C1444 C1443 1.523 1_554 S
C1445 C1429 1.429 . S
C1445 C1441 1.429 . S
C1445 C1446 1.523 . S
C1446 C1430 1.368 . S
C1446 C1442 1.368 . S
C1446 C1445 1.523 . S
H1447 C1422 0.950 . S
H1448 C1424 0.950 . S
H1449 C1425 0.949 . S
H1450 C1427 0.950 . S
H1451 C1429 0.950 . S
C1452 C1453 1.349 . S
C1452 C1454 1.327 . S
C1452 H1477 0.950 . S
C1453 C1452 1.349 . S
C1453 C1469 1.349 . S
C1454 C1452 1.327 . S
C1454 C1473 1.429 . S
C1454 H1478 0.950 . S
C1455 C1472 1.574 . S
C1455 C1474 1.368 . S
C1455 H1479 0.949 . S
H1456 C1460 0.949 . S
C1457 C1458 1.349 . S
C1457 C1459 1.327 . S
C1457 H1480 0.950 . S
C1458 C1457 1.349 . S
C1458 C1470 1.349 . S
C1459 C1457 1.327 . S
C1459 C1475 1.429 . S
C1459 H1481 0.950 . S
C1460 H1456 0.949 . S
C1460 C1468 1.574 . S
C1460 C1476 1.368 . S
H1461 C1469 0.950 . S
H1462 C1467 0.950 . S
H1463 C1468 0.949 . S
H1464 C1470 0.950 . S
H1465 C1471 0.950 . S
H1466 C1472 0.949 . S
C1467 H1462 0.950 . S
C1467 C1469 1.327 . S
C1467 C1473 1.429 . S
C1468 C1460 1.574 . S
C1468 H1463 0.949 . S
C1468 C1474 1.368 . S
C1469 C1453 1.349 . S
C1469 H1461 0.950 . S
C1469 C1467 1.327 . S
C1470 C1458 1.349 . S
C1470 H1464 0.950 . S
C1470 C1471 1.327 . S
C1471 H1465 0.950 . S
C1471 C1470 1.327 . S
C1471 C1475 1.429 . S
C1472 C1455 1.574 . S
C1472 H1466 0.949 . S
C1472 C1476 1.368 . S
C1473 C1454 1.429 . S
C1473 C1467 1.429 . S
C1473 C1474 1.523 . S
C1474 C1455 1.368 . S
C1474 C1468 1.368 . S
C1474 C1473 1.523 . S
C1475 C1459 1.429 . S
C1475 C1471 1.429 . S
C1475 C1476 1.523 . S
C1476 C1460 1.368 . S
C1476 C1472 1.368 . S
C1476 C1475 1.523 . S
H1477 C1452 0.950 . S
H1478 C1454 0.950 . S
H1479 C1455 0.949 . S
H1480 C1457 0.950 . S
H1481 C1459 0.950 . S
C1482 C1483 1.349 . S
C1482 C1484 1.327 . S
C1482 H1507 0.950 . S
C1483 C1482 1.349 . S
C1483 C1499 1.349 . S
C1484 C1482 1.327 . S
C1484 C1503 1.429 . S
C1484 H1508 0.950 . S
C1485 C1502 1.574 . S
C1485 C1504 1.368 . S
C1485 H1509 0.949 . S
H1486 C1490 0.949 . S
C1487 C1488 1.349 . S
C1487 C1489 1.327 . S
C1487 H1510 0.950 . S
C1488 C1487 1.349 . S
C1488 C1500 1.349 . S
C1489 C1487 1.327 . S
C1489 C1505 1.429 . S
C1489 H1511 0.950 . S
C1490 H1486 0.949 . S
C1490 C1498 1.574 . S
C1490 C1506 1.368 . S
H1491 C1499 0.950 . S
H1492 C1497 0.950 . S
H1493 C1498 0.949 . S
H1494 C1500 0.950 . S
H1495 C1501 0.950 . S
H1496 C1502 0.949 . S
C1497 H1492 0.950 . S
C1497 C1499 1.327 . S
C1497 C1503 1.429 . S
C1498 C1490 1.574 . S
C1498 H1493 0.949 . S
C1498 C1504 1.368 . S
C1499 C1483 1.349 . S
C1499 H1491 0.950 . S
C1499 C1497 1.327 . S
C1500 C1488 1.349 . S
C1500 H1494 0.950 . S
C1500 C1501 1.327 . S
C1501 H1495 0.950 . S
C1501 C1500 1.327 . S
C1501 C1505 1.429 . S
C1502 C1485 1.574 . S
C1502 H1496 0.949 . S
C1502 C1506 1.368 . S
C1503 C1484 1.429 . S
C1503 C1497 1.429 . S
C1503 C1504 1.523 1_554 S
C1504 C1485 1.368 . S
C1504 C1498 1.368 . S
C1504 C1503 1.523 1_556 S
C1505 C1489 1.429 . S
C1505 C1501 1.429 . S
C1505 C1506 1.523 . S
C1506 C1490 1.368 . S
C1506 C1502 1.368 . S
C1506 C1505 1.523 . S
H1507 C1482 0.950 . S
H1508 C1484 0.950 . S
H1509 C1485 0.949 . S
H1510 C1487 0.950 . S
H1511 C1489 0.950 . S
C1512 C1513 1.349 . S
C1512 C1514 1.327 . S
C1512 H1537 0.950 . S
C1513 C1512 1.349 . S
C1513 C1529 1.349 . S
C1514 C1512 1.327 . S
C1514 C1533 1.429 . S
C1514 H1538 0.950 . S
C1515 C1532 1.574 . S
C1515 C1534 1.368 . S
C1515 H1539 0.949 . S
H1516 C1520 0.949 . S
C1517 C1518 1.349 . S
C1517 C1519 1.327 . S
C1517 H1540 0.950 . S
C1518 C1517 1.349 . S
C1518 C1530 1.349 . S
C1519 C1517 1.327 . S
C1519 C1535 1.429 . S
C1519 H1541 0.950 . S
C1520 H1516 0.949 . S
C1520 C1528 1.574 . S
C1520 C1536 1.368 . S
H1521 C1529 0.950 . S
H1522 C1527 0.950 . S
H1523 C1528 0.949 . S
H1524 C1530 0.950 . S
H1525 C1531 0.950 . S
H1526 C1532 0.949 . S
C1527 H1522 0.950 . S
C1527 C1529 1.327 . S
C1527 C1533 1.429 . S
C1528 C1520 1.574 . S
C1528 H1523 0.949 . S
C1528 C1534 1.368 . S
C1529 C1513 1.349 . S
C1529 H1521 0.950 . S
C1529 C1527 1.327 . S
C1530 C1518 1.349 . S
C1530 H1524 0.950 . S
C1530 C1531 1.327 . S
C1531 H1525 0.950 . S
C1531 C1530 1.327 . S
C1531 C1535 1.429 . S
C1532 C1515 1.574 . S
C1532 H1526 0.949 . S
C1532 C1536 1.368 . S
C1533 C1514 1.429 . S
C1533 C1527 1.429 . S
C1533 C1534 1.523 . S
C1534 C1515 1.368 . S
C1534 C1528 1.368 . S
C1534 C1533 1.523 . S
C1535 C1519 1.429 . S
C1535 C1531 1.429 . S
C1535 C1536 1.523 . S
C1536 C1520 1.368 . S
C1536 C1532 1.368 . S
C1536 C1535 1.523 . S
H1537 C1512 0.950 . S
H1538 C1514 0.950 . S
H1539 C1515 0.949 . S
H1540 C1517 0.950 . S
H1541 C1519 0.950 . S
C1542 C1543 1.349 . S
C1542 C1544 1.327 . S
C1542 H1567 0.950 . S
C1543 C1542 1.349 . S
C1543 C1559 1.349 . S
C1544 C1542 1.327 . S
C1544 C1563 1.429 . S
C1544 H1568 0.950 . S
C1545 C1562 1.574 . S
C1545 C1564 1.368 . S
C1545 H1569 0.949 . S
H1546 C1550 0.949 . S
C1547 C1548 1.349 . S
C1547 C1549 1.327 . S
C1547 H1570 0.950 . S
C1548 C1547 1.349 . S
C1548 C1560 1.349 . S
C1549 C1547 1.327 . S
C1549 C1565 1.429 . S
C1549 H1571 0.950 . S
C1550 H1546 0.949 . S
C1550 C1558 1.574 . S
C1550 C1566 1.368 . S
H1551 C1559 0.950 . S
H1552 C1557 0.950 . S
H1553 C1558 0.949 . S
H1554 C1560 0.950 . S
H1555 C1561 0.950 . S
H1556 C1562 0.949 . S
C1557 H1552 0.950 . S
C1557 C1559 1.327 . S
C1557 C1563 1.429 . S
C1558 C1550 1.574 . S
C1558 H1553 0.949 . S
C1558 C1564 1.368 . S
C1559 C1543 1.349 . S
C1559 H1551 0.950 . S
C1559 C1557 1.327 . S
C1560 C1548 1.349 . S
C1560 H1554 0.950 . S
C1560 C1561 1.327 . S
C1561 H1555 0.950 . S
C1561 C1560 1.327 . S
C1561 C1565 1.429 . S
C1562 C1545 1.574 . S
C1562 H1556 0.949 . S
C1562 C1566 1.368 . S
C1563 C1544 1.429 . S
C1563 C1557 1.429 . S
C1563 C1564 1.523 . S
C1564 C1545 1.368 . S
C1564 C1558 1.368 . S
C1564 C1563 1.523 . S
C1565 C1549 1.429 . S
C1565 C1561 1.429 . S
C1565 C1566 1.523 1_455 S
C1566 C1550 1.368 . S
C1566 C1562 1.368 . S
C1566 C1565 1.523 1_655 S
H1567 C1542 0.950 . S
H1568 C1544 0.950 . S
H1569 C1545 0.949 . S
H1570 C1547 0.950 . S
H1571 C1549 0.950 . S
C1572 C1573 1.349 . S
C1572 C1574 1.327 . S
C1572 H1597 0.950 . S
C1573 C1572 1.349 . S
C1573 C1589 1.349 . S
C1574 C1572 1.327 . S
C1574 C1593 1.429 . S
C1574 H1598 0.950 . S
C1575 C1592 1.574 . S
C1575 C1594 1.368 . S
C1575 H1599 0.949 . S
H1576 C1580 0.949 . S
C1577 C1578 1.349 . S
C1577 C1579 1.327 . S
C1577 H1600 0.950 . S
C1578 C1577 1.349 . S
C1578 C1590 1.349 . S
C1579 C1577 1.327 . S
C1579 C1595 1.429 . S
C1579 H1601 0.950 . S
C1580 H1576 0.949 . S
C1580 C1588 1.574 . S
C1580 C1596 1.368 . S
H1581 C1589 0.950 . S
H1582 C1587 0.950 . S
H1583 C1588 0.949 . S
H1584 C1590 0.950 . S
H1585 C1591 0.950 . S
H1586 C1592 0.949 . S
C1587 H1582 0.950 . S
C1587 C1589 1.327 . S
C1587 C1593 1.429 . S
C1588 C1580 1.574 . S
C1588 H1583 0.949 . S
C1588 C1594 1.368 . S
C1589 C1573 1.349 . S
C1589 H1581 0.950 . S
C1589 C1587 1.327 . S
C1590 C1578 1.349 . S
C1590 H1584 0.950 . S
C1590 C1591 1.327 . S
C1591 H1585 0.950 . S
C1591 C1590 1.327 . S
C1591 C1595 1.429 . S
C1592 C1575 1.574 . S
C1592 H1586 0.949 . S
C1592 C1596 1.368 . S
C1593 C1574 1.429 . S
C1593 C1587 1.429 . S
C1593 C1594 1.523 . S
C1594 C1575 1.368 . S
C1594 C1588 1.368 . S
C1594 C1593 1.523 . S
C1595 C1579 1.429 . S
C1595 C1591 1.429 . S
C1595 C1596 1.523 1_655 S
C1596 C1580 1.368 . S
C1596 C1592 1.368 . S
C1596 C1595 1.523 1_455 S
H1597 C1572 0.950 . S
H1598 C1574 0.950 . S
H1599 C1575 0.949 . S
H1600 C1577 0.950 . S
H1601 C1579 0.950 . S
C1602 C1603 1.349 . S
C1602 C1604 1.327 . S
C1602 H1627 0.950 . S
C1603 C1602 1.349 . S
C1603 C1619 1.349 . S
C1604 C1602 1.327 . S
C1604 C1623 1.429 . S
C1604 H1628 0.950 . S
C1605 C1622 1.574 . S
C1605 C1624 1.368 . S
C1605 H1629 0.949 . S
H1606 C1610 0.949 . S
C1607 C1608 1.349 . S
C1607 C1609 1.327 . S
C1607 H1630 0.950 . S
C1608 C1607 1.349 . S
C1608 C1620 1.349 . S
C1609 C1607 1.327 . S
C1609 C1625 1.429 . S
C1609 H1631 0.950 . S
C1610 H1606 0.949 . S
C1610 C1618 1.574 . S
C1610 C1626 1.368 . S
H1611 C1619 0.950 . S
H1612 C1617 0.950 . S
H1613 C1618 0.949 . S
H1614 C1620 0.950 . S
H1615 C1621 0.950 . S
H1616 C1622 0.949 . S
C1617 H1612 0.950 . S
C1617 C1619 1.327 . S
C1617 C1623 1.429 . S
C1618 C1610 1.574 . S
C1618 H1613 0.949 . S
C1618 C1624 1.368 . S
C1619 C1603 1.349 . S
C1619 H1611 0.950 . S
C1619 C1617 1.327 . S
C1620 C1608 1.349 . S
C1620 H1614 0.950 . S
C1620 C1621 1.327 . S
C1621 H1615 0.950 . S
C1621 C1620 1.327 . S
C1621 C1625 1.429 . S
C1622 C1605 1.574 . S
C1622 H1616 0.949 . S
C1622 C1626 1.368 . S
C1623 C1604 1.429 . S
C1623 C1617 1.429 . S
C1623 C1624 1.523 . S
C1624 C1605 1.368 . S
C1624 C1618 1.368 . S
C1624 C1623 1.523 . S
C1625 C1609 1.429 . S
C1625 C1621 1.429 . S
C1625 C1626 1.523 . S
C1626 C1610 1.368 . S
C1626 C1622 1.368 . S
C1626 C1625 1.523 . S
H1627 C1602 0.950 . S
H1628 C1604 0.950 . S
H1629 C1605 0.949 . S
H1630 C1607 0.950 . S
H1631 C1609 0.950 . S
C1632 C1633 1.349 . S
C1632 C1634 1.327 . S
C1632 H1657 0.950 . S
C1633 C1632 1.349 . S
C1633 C1649 1.349 . S
C1634 C1632 1.327 . S
C1634 C1653 1.429 . S
C1634 H1658 0.950 . S
C1635 C1652 1.574 . S
C1635 C1654 1.368 . S
C1635 H1659 0.949 . S
H1636 C1640 0.949 . S
C1637 C1638 1.349 . S
C1637 C1639 1.327 . S
C1637 H1660 0.950 . S
C1638 C1637 1.349 . S
C1638 C1650 1.349 . S
C1639 C1637 1.327 . S
C1639 C1655 1.429 . S
C1639 H1661 0.950 . S
C1640 H1636 0.949 . S
C1640 C1648 1.574 . S
C1640 C1656 1.368 . S
H1641 C1649 0.950 . S
H1642 C1647 0.950 . S
H1643 C1648 0.949 . S
H1644 C1650 0.950 . S
H1645 C1651 0.950 . S
H1646 C1652 0.949 . S
C1647 H1642 0.950 . S
C1647 C1649 1.327 . S
C1647 C1653 1.429 . S
C1648 C1640 1.574 . S
C1648 H1643 0.949 . S
C1648 C1654 1.368 . S
C1649 C1633 1.349 . S
C1649 H1641 0.950 . S
C1649 C1647 1.327 . S
C1650 C1638 1.349 . S
C1650 H1644 0.950 . S
C1650 C1651 1.327 . S
C1651 H1645 0.950 . S
C1651 C1650 1.327 . S
C1651 C1655 1.429 . S
C1652 C1635 1.574 . S
C1652 H1646 0.949 . S
C1652 C1656 1.368 . S
C1653 C1634 1.429 . S
C1653 C1647 1.429 . S
C1653 C1654 1.523 . S
C1654 C1635 1.368 . S
C1654 C1648 1.368 . S
C1654 C1653 1.523 . S
C1655 C1639 1.429 . S
C1655 C1651 1.429 . S
C1655 C1656 1.523 . S
C1656 C1640 1.368 . S
C1656 C1652 1.368 . S
C1656 C1655 1.523 . S
H1657 C1632 0.950 . S
H1658 C1634 0.950 . S
H1659 C1635 0.949 . S
H1660 C1637 0.950 . S
H1661 C1639 0.950 . S
C1662 C1663 1.349 . S
C1662 C1664 1.327 . S
C1662 H1687 0.950 . S
C1663 C1662 1.349 . S
C1663 C1679 1.349 . S
C1664 C1662 1.327 . S
C1664 C1683 1.429 . S
C1664 H1688 0.950 . S
C1665 C1682 1.574 . S
C1665 C1684 1.368 . S
C1665 H1689 0.949 . S
H1666 C1670 0.949 . S
C1667 C1668 1.349 . S
C1667 C1669 1.327 . S
C1667 H1690 0.950 . S
C1668 C1667 1.349 . S
C1668 C1680 1.349 . S
C1669 C1667 1.327 . S
C1669 C1685 1.429 . S
C1669 H1691 0.950 . S
C1670 H1666 0.949 . S
C1670 C1678 1.574 . S
C1670 C1686 1.368 . S
H1671 C1679 0.950 . S
H1672 C1677 0.950 . S
H1673 C1678 0.949 . S
H1674 C1680 0.950 . S
H1675 C1681 0.950 . S
H1676 C1682 0.949 . S
C1677 H1672 0.950 . S
C1677 C1679 1.327 . S
C1677 C1683 1.429 . S
C1678 C1670 1.574 . S
C1678 H1673 0.949 . S
C1678 C1684 1.368 . S
C1679 C1663 1.349 . S
C1679 H1671 0.950 . S
C1679 C1677 1.327 . S
C1680 C1668 1.349 . S
C1680 H1674 0.950 . S
C1680 C1681 1.327 . S
C1681 H1675 0.950 . S
C1681 C1680 1.327 . S
C1681 C1685 1.429 . S
C1682 C1665 1.574 . S
C1682 H1676 0.949 . S
C1682 C1686 1.368 . S
C1683 C1664 1.429 . S
C1683 C1677 1.429 . S
C1683 C1684 1.523 . S
C1684 C1665 1.368 . S
C1684 C1678 1.368 . S
C1684 C1683 1.523 . S
C1685 C1669 1.429 . S
C1685 C1681 1.429 . S
C1685 C1686 1.523 1_545 S
C1686 C1670 1.368 . S
C1686 C1682 1.368 . S
C1686 C1685 1.523 1_565 S
H1687 C1662 0.950 . S
H1688 C1664 0.950 . S
H1689 C1665 0.949 . S
H1690 C1667 0.950 . S
H1691 C1669 0.950 . S
C1692 C1693 1.349 . S
C1692 C1694 1.327 . S
C1692 H1717 0.950 . S
C1693 C1692 1.349 . S
C1693 C1709 1.349 . S
C1694 C1692 1.327 . S
C1694 C1713 1.429 . S
C1694 H1718 0.950 . S
C1695 C1712 1.574 . S
C1695 C1714 1.368 . S
C1695 H1719 0.949 . S
H1696 C1700 0.949 . S
C1697 C1698 1.349 . S
C1697 C1699 1.327 . S
C1697 H1720 0.950 . S
C1698 C1697 1.349 . S
C1698 C1710 1.349 . S
C1699 C1697 1.327 . S
C1699 C1715 1.429 . S
C1699 H1721 0.950 . S
C1700 H1696 0.949 . S
C1700 C1708 1.574 . S
C1700 C1716 1.368 . S
H1701 C1709 0.950 . S
H1702 C1707 0.950 . S
H1703 C1708 0.949 . S
H1704 C1710 0.950 . S
H1705 C1711 0.950 . S
H1706 C1712 0.949 . S
C1707 H1702 0.950 . S
C1707 C1709 1.327 . S
C1707 C1713 1.429 . S
C1708 C1700 1.574 . S
C1708 H1703 0.949 . S
C1708 C1714 1.368 . S
C1709 C1693 1.349 . S
C1709 H1701 0.950 . S
C1709 C1707 1.327 . S
C1710 C1698 1.349 . S
C1710 H1704 0.950 . S
C1710 C1711 1.327 . S
C1711 H1705 0.950 . S
C1711 C1710 1.327 . S
C1711 C1715 1.429 . S
C1712 C1695 1.574 . S
C1712 H1706 0.949 . S
C1712 C1716 1.368 . S
C1713 C1694 1.429 . S
C1713 C1707 1.429 . S
C1713 C1714 1.523 1_565 S
C1714 C1695 1.368 . S
C1714 C1708 1.368 . S
C1714 C1713 1.523 1_545 S
C1715 C1699 1.429 . S
C1715 C1711 1.429 . S
C1715 C1716 1.523 . S
C1716 C1700 1.368 . S
C1716 C1712 1.368 . S
C1716 C1715 1.523 . S
H1717 C1692 0.950 . S
H1718 C1694 0.950 . S
H1719 C1695 0.949 . S
H1720 C1697 0.950 . S
H1721 C1699 0.950 . S
C1722 C1723 1.349 . S
C1722 C1724 1.327 . S
C1722 H1747 0.950 . S
C1723 C1722 1.349 . S
C1723 C1739 1.349 . S
C1724 C1722 1.327 . S
C1724 C1743 1.429 . S
C1724 H1748 0.950 . S
C1725 C1742 1.574 . S
C1725 C1744 1.368 . S
C1725 H1749 0.949 . S
H1726 C1730 0.949 . S
C1727 C1728 1.349 . S
C1727 C1729 1.327 . S
C1727 H1750 0.950 . S
C1728 C1727 1.349 . S
C1728 C1740 1.349 . S
C1729 C1727 1.327 . S
C1729 C1745 1.429 . S
C1729 H1751 0.950 . S
C1730 H1726 0.949 . S
C1730 C1738 1.574 . S
C1730 C1746 1.368 . S
H1731 C1739 0.950 . S
H1732 C1737 0.950 . S
H1733 C1738 0.949 . S
H1734 C1740 0.950 . S
H1735 C1741 0.950 . S
H1736 C1742 0.949 . S
C1737 H1732 0.950 . S
C1737 C1739 1.327 . S
C1737 C1743 1.429 . S
C1738 C1730 1.574 . S
C1738 H1733 0.949 . S
C1738 C1744 1.368 . S
C1739 C1723 1.349 . S
C1739 H1731 0.950 . S
C1739 C1737 1.327 . S
C1740 C1728 1.349 . S
C1740 H1734 0.950 . S
C1740 C1741 1.327 . S
C1741 H1735 0.950 . S
C1741 C1740 1.327 . S
C1741 C1745 1.429 . S
C1742 C1725 1.574 . S
C1742 H1736 0.949 . S
C1742 C1746 1.368 . S
C1743 C1724 1.429 . S
C1743 C1737 1.429 . S
C1743 C1744 1.523 . S
C1744 C1725 1.368 . S
C1744 C1738 1.368 . S
C1744 C1743 1.523 . S
C1745 C1729 1.429 . S
C1745 C1741 1.429 . S
C1745 C1746 1.523 . S
C1746 C1730 1.368 . S
C1746 C1742 1.368 . S
C1746 C1745 1.523 . S
H1747 C1722 0.950 . S
H1748 C1724 0.950 . S
H1749 C1725 0.949 . S
H1750 C1727 0.950 . S
H1751 C1729 0.950 . S
C313 C107 1.040 . S
C318 C5 1.051 . S
C343 C16 1.051 . S
C348 C146 1.040 . S
C373 C31 1.051 . S
C378 C120 1.040 . S
C403 C44 1.051 . S
C408 C135 1.040 . S
C433 C55 1.051 . S
C438 C3 1.040 . S
C463 C18 1.040 . S
C468 C68 1.051 . S
C493 C83 1.051 . S
C498 C29 1.040 . S
C523 C42 1.040 . S
C528 C96 1.051 . S
C553 C57 1.040 . S
C558 C109 1.051 . S
C583 C81 1.040 . S
C588 C122 1.051 . S
C613 C133 1.051 . S
C618 C94 1.040 . S
C643 C70 1.040 . S
C648 C148 1.051 . S
C673 C263 1.040 . S
C678 C161 1.051 . S
C703 C172 1.051 . S
C708 C304 1.040 . S
C733 C187 1.051 . S
C738 C276 1.040 . S
C763 C289 1.040 . S
C768 C200 1.051 . S
C793 C211 1.051 . S
C798 C159 1.040 . S
C823 C174 1.040 . S
C828 C224 1.051 . S
C853 C185 1.040 . S
C858 C239 1.051 . S
C883 C252 1.051 . S
C888 C198 1.040 . S
C913 C265 1.051 . S
C918 C213 1.040 . S
C943 C237 1.040 . S
C948 C278 1.051 . S
C973 C250 1.040 . S
C978 C291 1.051 . S
C1003 C302 1.051 . S
C1008 C226 1.040 . S
C1033 C296 1.475 . S
C1038 C4 1.475 . S
C1063 C283 1.475 . S
C1068 C23 1.475 . S
C1093 C303 1.475 . S
C1098 C30 1.475 . S
C1123 C43 1.475 . S
C1128 C270 1.475 . S
C1153 C62 1.475 . S
C1158 C173 1.475 . S
C1183 C166 1.475 . S
C1188 C75 1.475 . S
C1213 C205 1.475 . S
C1218 C82 1.475 . S
C1243 C192 1.475 . S
C1248 C95 1.475 . S
C1273 C108 1.475 . S
C1278 C244 1.475 . S
C1303 C212 1.475 . S
C1308 C121 1.475 . S
C1333 C225 1.475 . S
C1338 C140 1.475 . S
C1363 C257 1.475 . S
C1368 C147 1.475 . S
C1393 C134 1.475 . S
C1398 C160 1.475 . S
C1423 C127 1.475 . S
C1428 C179 1.475 . S
C1453 C186 1.475 . S
C1458 C153 1.475 . S
C1483 C114 1.475 . S
C1488 C199 1.475 . S
C1513 C218 1.475 . S
C1518 C17 1.475 . S
C1543 C231 1.475 . S
C1548 C10 1.475 . S
C1573 C238 1.475 . S
C1578 C49 1.475 . S
C1603 C251 1.475 . S
C1608 C36 1.475 . S
C1633 C264 1.475 . S
C1638 C88 1.475 . S
C1663 C277 1.475 . S
C1668 C56 1.475 . S
C1693 C69 1.475 . S
C1698 C290 1.475 . S
C1723 C309 1.475 . S
C1728 C101 1.475 . S
