# Generated by pormake.
# Topology uka, (4)-cn, num edge types: 1
# Building blocks:
#     Node 0, Type 0, BuildingBlock: NAHDIM_clean_sbu_0, # of connection points: 4
#     Node 1, Type 0, BuildingBlock: NAHDIM_clean_sbu_0, # of connection points: 4
#     Node 2, Type 0, BuildingBlock: NAHDIM_clean_sbu_0, # of connection points: 4
#     Node 3, Type 0, BuildingBlock: NAHDIM_clean_sbu_0, # of connection points: 4
#     Node 4, Type 0, BuildingBlock: NAHDIM_clean_sbu_0, # of connection points: 4
#     Node 5, Type 0, BuildingBlock: NAHDIM_clean_sbu_0, # of connection points: 4
#     Node 6, Type 0, BuildingBlock: NAHDIM_clean_sbu_0, # of connection points: 4
#     Node 7, Type 0, BuildingBlock: NAHDIM_clean_sbu_0, # of connection points: 4
#     Node 8, Type 0, BuildingBlock: NAHDIM_clean_sbu_0, # of connection points: 4
#     Node 9, Type 0, BuildingBlock: NAHDIM_clean_sbu_0, # of connection points: 4
#     Node 10, Type 0, BuildingBlock: NAHDIM_clean_sbu_0, # of connection points: 4
#     Node 11, Type 0, BuildingBlock: NAHDIM_clean_sbu_0, # of connection points: 4
#     Node 12, Type 0, BuildingBlock: NAHDIM_clean_sbu_0, # of connection points: 4
#     Node 13, Type 0, BuildingBlock: NAHDIM_clean_sbu_0, # of connection points: 4
#     Node 14, Type 0, BuildingBlock: NAHDIM_clean_sbu_0, # of connection points: 4
#     Node 15, Type 0, BuildingBlock: NAHDIM_clean_sbu_0, # of connection points: 4
#     Node 16, Type 0, BuildingBlock: NAHDIM_clean_sbu_0, # of connection points: 4
#     Node 17, Type 0, BuildingBlock: NAHDIM_clean_sbu_0, # of connection points: 4
#     Node 18, Type 0, BuildingBlock: NAHDIM_clean_sbu_0, # of connection points: 4
#     Node 19, Type 0, BuildingBlock: NAHDIM_clean_sbu_0, # of connection points: 4
#     Node 20, Type 0, BuildingBlock: NAHDIM_clean_sbu_0, # of connection points: 4
#     Node 21, Type 0, BuildingBlock: NAHDIM_clean_sbu_0, # of connection points: 4
#     Node 22, Type 0, BuildingBlock: NAHDIM_clean_sbu_0, # of connection points: 4
#     Node 23, Type 0, BuildingBlock: NAHDIM_clean_sbu_0, # of connection points: 4
#     Node 24, Type 0, BuildingBlock: NAHDIM_clean_sbu_0, # of connection points: 4
#     Node 25, Type 0, BuildingBlock: NAHDIM_clean_sbu_0, # of connection points: 4
#     Node 26, Type 0, BuildingBlock: NAHDIM_clean_sbu_0, # of connection points: 4
#     Node 27, Type 0, BuildingBlock: NAHDIM_clean_sbu_0, # of connection points: 4
#     Node 28, Type 0, BuildingBlock: NAHDIM_clean_sbu_0, # of connection points: 4
#     Node 29, Type 0, BuildingBlock: NAHDIM_clean_sbu_0, # of connection points: 4
#     Node 30, Type 0, BuildingBlock: NAHDIM_clean_sbu_0, # of connection points: 4
#     Node 31, Type 0, BuildingBlock: NAHDIM_clean_sbu_0, # of connection points: 4
#     Edge 32, Type (0, 0), BuildingBlock: OJICUG_clean_linker_0, # of connection points: 2
#     Edge 33, Type (0, 0), BuildingBlock: OJICUG_clean_linker_0, # of connection points: 2
#     Edge 34, Type (0, 0), BuildingBlock: OJICUG_clean_linker_0, # of connection points: 2
#     Edge 35, Type (0, 0), BuildingBlock: OJICUG_clean_linker_0, # of connection points: 2
#     Edge 36, Type (0, 0), BuildingBlock: OJICUG_clean_linker_0, # of connection points: 2
#     Edge 37, Type (0, 0), BuildingBlock: OJICUG_clean_linker_0, # of connection points: 2
#     Edge 38, Type (0, 0), BuildingBlock: OJICUG_clean_linker_0, # of connection points: 2
#     Edge 39, Type (0, 0), BuildingBlock: OJICUG_clean_linker_0, # of connection points: 2
#     Edge 40, Type (0, 0), BuildingBlock: OJICUG_clean_linker_0, # of connection points: 2
#     Edge 41, Type (0, 0), BuildingBlock: OJICUG_clean_linker_0, # of connection points: 2
#     Edge 42, Type (0, 0), BuildingBlock: OJICUG_clean_linker_0, # of connection points: 2
#     Edge 43, Type (0, 0), BuildingBlock: OJICUG_clean_linker_0, # of connection points: 2
#     Edge 44, Type (0, 0), BuildingBlock: OJICUG_clean_linker_0, # of connection points: 2
#     Edge 45, Type (0, 0), BuildingBlock: OJICUG_clean_linker_0, # of connection points: 2
#     Edge 46, Type (0, 0), BuildingBlock: OJICUG_clean_linker_0, # of connection points: 2
#     Edge 47, Type (0, 0), BuildingBlock: OJICUG_clean_linker_0, # of connection points: 2
#     Edge 48, Type (0, 0), BuildingBlock: OJICUG_clean_linker_0, # of connection points: 2
#     Edge 49, Type (0, 0), BuildingBlock: OJICUG_clean_linker_0, # of connection points: 2
#     Edge 50, Type (0, 0), BuildingBlock: OJICUG_clean_linker_0, # of connection points: 2
#     Edge 51, Type (0, 0), BuildingBlock: OJICUG_clean_linker_0, # of connection points: 2
#     Edge 52, Type (0, 0), BuildingBlock: OJICUG_clean_linker_0, # of connection points: 2
#     Edge 53, Type (0, 0), BuildingBlock: OJICUG_clean_linker_0, # of connection points: 2
#     Edge 54, Type (0, 0), BuildingBlock: OJICUG_clean_linker_0, # of connection points: 2
#     Edge 55, Type (0, 0), BuildingBlock: OJICUG_clean_linker_0, # of connection points: 2
#     Edge 56, Type (0, 0), BuildingBlock: OJICUG_clean_linker_0, # of connection points: 2
#     Edge 57, Type (0, 0), BuildingBlock: OJICUG_clean_linker_0, # of connection points: 2
#     Edge 58, Type (0, 0), BuildingBlock: OJICUG_clean_linker_0, # of connection points: 2
#     Edge 59, Type (0, 0), BuildingBlock: OJICUG_clean_linker_0, # of connection points: 2
#     Edge 60, Type (0, 0), BuildingBlock: OJICUG_clean_linker_0, # of connection points: 2
#     Edge 61, Type (0, 0), BuildingBlock: OJICUG_clean_linker_0, # of connection points: 2
#     Edge 62, Type (0, 0), BuildingBlock: OJICUG_clean_linker_0, # of connection points: 2
#     Edge 63, Type (0, 0), BuildingBlock: OJICUG_clean_linker_0, # of connection points: 2
#     Edge 64, Type (0, 0), BuildingBlock: OJICUG_clean_linker_0, # of connection points: 2
#     Edge 65, Type (0, 0), BuildingBlock: OJICUG_clean_linker_0, # of connection points: 2
#     Edge 66, Type (0, 0), BuildingBlock: OJICUG_clean_linker_0, # of connection points: 2
#     Edge 67, Type (0, 0), BuildingBlock: OJICUG_clean_linker_0, # of connection points: 2
#     Edge 68, Type (0, 0), BuildingBlock: OJICUG_clean_linker_0, # of connection points: 2
#     Edge 69, Type (0, 0), BuildingBlock: OJICUG_clean_linker_0, # of connection points: 2
#     Edge 70, Type (0, 0), BuildingBlock: OJICUG_clean_linker_0, # of connection points: 2
#     Edge 71, Type (0, 0), BuildingBlock: OJICUG_clean_linker_0, # of connection points: 2
#     Edge 72, Type (0, 0), BuildingBlock: OJICUG_clean_linker_0, # of connection points: 2
#     Edge 73, Type (0, 0), BuildingBlock: OJICUG_clean_linker_0, # of connection points: 2
#     Edge 74, Type (0, 0), BuildingBlock: OJICUG_clean_linker_0, # of connection points: 2
#     Edge 75, Type (0, 0), BuildingBlock: OJICUG_clean_linker_0, # of connection points: 2
#     Edge 76, Type (0, 0), BuildingBlock: OJICUG_clean_linker_0, # of connection points: 2
#     Edge 77, Type (0, 0), BuildingBlock: OJICUG_clean_linker_0, # of connection points: 2
#     Edge 78, Type (0, 0), BuildingBlock: OJICUG_clean_linker_0, # of connection points: 2
#     Edge 79, Type (0, 0), BuildingBlock: OJICUG_clean_linker_0, # of connection points: 2
#     Edge 80, Type (0, 0), BuildingBlock: OJICUG_clean_linker_0, # of connection points: 2
#     Edge 81, Type (0, 0), BuildingBlock: OJICUG_clean_linker_0, # of connection points: 2
#     Edge 82, Type (0, 0), BuildingBlock: OJICUG_clean_linker_0, # of connection points: 2
#     Edge 83, Type (0, 0), BuildingBlock: OJICUG_clean_linker_0, # of connection points: 2
#     Edge 84, Type (0, 0), BuildingBlock: OJICUG_clean_linker_0, # of connection points: 2
#     Edge 85, Type (0, 0), BuildingBlock: OJICUG_clean_linker_0, # of connection points: 2
#     Edge 86, Type (0, 0), BuildingBlock: OJICUG_clean_linker_0, # of connection points: 2
#     Edge 87, Type (0, 0), BuildingBlock: OJICUG_clean_linker_0, # of connection points: 2
#     Edge 88, Type (0, 0), BuildingBlock: OJICUG_clean_linker_0, # of connection points: 2
#     Edge 89, Type (0, 0), BuildingBlock: OJICUG_clean_linker_0, # of connection points: 2
#     Edge 90, Type (0, 0), BuildingBlock: OJICUG_clean_linker_0, # of connection points: 2
#     Edge 91, Type (0, 0), BuildingBlock: OJICUG_clean_linker_0, # of connection points: 2
#     Edge 92, Type (0, 0), BuildingBlock: OJICUG_clean_linker_0, # of connection points: 2
#     Edge 93, Type (0, 0), BuildingBlock: OJICUG_clean_linker_0, # of connection points: 2
#     Edge 94, Type (0, 0), BuildingBlock: OJICUG_clean_linker_0, # of connection points: 2
#     Edge 95, Type (0, 0), BuildingBlock: OJICUG_clean_linker_0, # of connection points: 2
# Relax obj value: 0.247
# Max RMSD: 0.251
# Mean RMSD: 0.251
data_MOF--net-uka--node1-NAHDIM_clean_sbu_0--edge1-OJICUG_clean_linker_0
_symmetry_space_group_name_H-M    P1
_symmetry_Int_Tables_number       1
_symmetry_cell_setting            triclinic
loop_
_symmetry_equiv_pos_as_xyz
'x, y, z'
_cell_length_a     45.545754
_cell_length_b     45.476157
_cell_length_c     29.97583
_cell_angle_alpha  90.013281
_cell_angle_beta   90.126405
_cell_angle_gamma 90.172202
loop_
_atom_site_label
_atom_site_type_symbol
_atom_site_fract_x
_atom_site_fract_y
_atom_site_fract_z
_atom_type_partial_charge
C0 C 0.16385 0.23298 0.22988 0.0
O1 O 0.14743 0.21472 0.20667 0.0
O2 O 0.08849 0.21975 0.26861 0.0
Zn3 Zn 0.10797 0.25777 0.25119 0.0
O4 O 0.09357 0.2709 0.19077 0.0
C5 C 0.10272 0.28604 0.33809 0.0
O6 O 0.12132 0.26587 0.35146 0.0
O7 O 0.15168 0.25364 0.25143 0.0
C8 C 0.07083 0.28697 0.18795 0.0
O9 O 0.05684 0.29428 0.22456 0.0
C10 C 0.10045 0.20274 0.29693 0.0
O11 O 0.12695 0.2089 0.3116 0.0
O12 O 0.09562 0.28734 0.29711 0.0
C13 C 0.97662 0.92634 0.503 0.0
O14 O -0.00243 0.91138 0.48336 0.0
O15 O -0.00293 0.8552 0.54127 0.0
Zn16 Zn 0.95688 0.86856 0.52261 0.0
O17 O 0.94411 0.85216 0.46321 0.0
C18 C 0.93489 0.85611 0.61037 0.0
O19 O 0.95794 0.87155 0.62275 0.0
O20 O 0.95589 0.91251 0.52206 0.0
C21 C 0.94826 0.82541 0.45267 0.0
O22 O 0.96236 0.80806 0.48037 0.0
C23 C 0.01843 0.84577 0.51818 0.0
O24 O 0.01601 0.84408 0.47458 0.0
O25 O 0.92941 0.85307 0.56903 0.0
C26 C 0.30469 0.72743 0.72497 0.0
O27 O 0.32103 0.74744 0.70534 0.0
O28 O 0.3737 0.74701 0.77263 0.0
Zn29 Zn 0.36082 0.70711 0.75146 0.0
O30 O 0.37892 0.69386 0.69365 0.0
C31 C 0.37055 0.68721 0.84022 0.0
O32 O 0.35671 0.7118 0.84929 0.0
O33 O 0.31707 0.70693 0.74667 0.0
C34 C 0.40526 0.69892 0.68191 0.0
O35 O 0.42233 0.71505 0.70751 0.0
C36 C 0.38461 0.76977 0.75451 0.0
O37 O 0.38982 0.77016 0.71144 0.0
O38 O 0.37365 0.67953 0.79972 0.0
C39 C 0.48893 0.04414 0.99355 0.0
O40 O 0.46993 0.06079 0.97238 0.0
O41 O 0.47043 0.11376 0.03762 0.0
Zn42 Zn 0.51037 0.10018 0.01853 0.0
O43 O 0.524 0.1179 0.96046 0.0
C44 C 0.53083 0.11061 0.10764 0.0
O45 O 0.50694 0.09586 0.11793 0.0
O46 O 0.5096 0.05627 0.01539 0.0
C47 C 0.51979 0.14478 0.95073 0.0
O48 O 0.50499 0.16155 0.97833 0.0
C49 C 0.44865 0.12385 0.01606 0.0
O50 O 0.45021 0.12707 0.97259 0.0
O51 O 0.53764 0.11376 0.0668 0.0
C52 C 0.1695 0.73269 0.25054 0.0
O53 O 0.15415 0.75518 0.26495 0.0
O54 O 0.0989 0.74898 0.20659 0.0
Zn55 Zn 0.11229 0.71032 0.23145 0.0
O56 O 0.0938 0.70103 0.2911 0.0
C57 C 0.10043 0.68462 0.14559 0.0
O58 O 0.11372 0.70841 0.13099 0.0
O59 O 0.15612 0.71028 0.23532 0.0
C60 C 0.0701 0.68613 0.29223 0.0
O61 O 0.05759 0.67823 0.25455 0.0
C62 C 0.07554 0.76219 0.21785 0.0
O63 O 0.05964 0.75166 0.25071 0.0
O64 O 0.09903 0.68003 0.18734 0.0
C65 C 0.48196 0.91805 0.50559 0.0
O66 O 0.4578 0.90394 0.51647 0.0
O67 O 0.46271 0.84681 0.47299 0.0
Zn68 Zn 0.50287 0.85946 0.49286 0.0
O69 O 0.51417 0.84171 0.55233 0.0
C70 C 0.52262 0.84669 0.40448 0.0
O71 O 0.49785 0.85971 0.39391 0.0
O72 O 0.50463 0.90343 0.49509 0.0
C73 C 0.53171 0.82 0.55403 0.0
O74 O 0.54174 0.80879 0.5167 0.0
C75 C 0.45217 0.82145 0.48068 0.0
O76 O 0.46669 0.80334 0.50672 0.0
O77 O 0.53019 0.8452 0.44525 0.0
C78 C 0.28909 0.22707 0.74483 0.0
O79 O 0.30457 0.20655 0.76473 0.0
O80 O 0.36111 0.21066 0.70081 0.0
Zn81 Zn 0.34614 0.24911 0.72412 0.0
O82 O 0.36275 0.2591 0.78483 0.0
C83 C 0.35918 0.2755 0.63894 0.0
O84 O 0.34686 0.25148 0.62318 0.0
O85 O 0.30232 0.24808 0.72544 0.0
C86 C 0.38629 0.27417 0.78732 0.0
O87 O 0.39985 0.28169 0.7504 0.0
C88 C 0.38356 0.19728 0.71548 0.0
O89 O 0.39737 0.2076 0.75069 0.0
O90 O 0.3597 0.27974 0.68083 0.0
C91 C 0.97689 0.03852 0.9909 0.0
O92 O -0.00125 0.0544 0.00655 0.0
O93 O -0.00869 0.11173 0.96231 0.0
Zn94 Zn 0.95173 0.09531 0.97782 0.0
O95 O 0.93772 0.11062 0.03745 0.0
C96 C 0.93276 0.10658 0.88835 0.0
O97 O 0.95729 0.09281 0.87887 0.0
O98 O 0.95379 0.05134 0.97736 0.0
C99 C 0.91886 0.13118 0.03945 0.0
O100 O 0.90856 0.14243 0.00224 0.0
C101 C -0.00051 0.13742 0.97342 0.0
O102 O -0.01743 0.15325 -0.00058 0.0
O103 O 0.92499 0.10894 0.92889 0.0
C104 C 0.80218 0.73204 0.75857 0.0
O105 O 0.81814 0.75245 0.77809 0.0
O106 O 0.87205 0.75093 0.71272 0.0
Zn107 Zn 0.85876 0.7116 0.73544 0.0
O108 O 0.87559 0.70044 0.79515 0.0
C109 C 0.87034 0.6884 0.64894 0.0
O110 O 0.85682 0.71261 0.63687 0.0
O111 O 0.81495 0.71131 0.73803 0.0
C112 C 0.90168 0.7059 0.80787 0.0
O113 O 0.91934 0.72098 0.78185 0.0
C114 C 0.88187 0.77398 0.73151 0.0
O115 O 0.88496 0.77485 0.77507 0.0
O116 O 0.87266 0.68241 0.69022 0.0
C117 C 0.98011 0.05327 0.50544 0.0
O118 O 0.95876 0.06837 0.52379 0.0
O119 O 0.96049 0.12296 0.45947 0.0
Zn120 Zn -0.00014 0.11078 0.48321 0.0
O121 O 0.00984 0.12844 0.54279 0.0
C122 C 0.02449 0.12747 0.39852 0.0
O123 O -0.00151 0.11958 0.38361 0.0
O124 O 0.00096 0.06693 0.48642 0.0
C125 C 0.00618 0.15547 0.55195 0.0
O126 O -0.00646 0.17277 0.5226 0.0
C127 C 0.93803 0.13322 0.47901 0.0
O128 O 0.93848 0.13753 0.52234 0.0
O129 O 0.03025 0.12482 0.43982 0.0
C130 C 0.657 0.23774 0.25721 0.0
O131 O 0.64086 0.21793 0.27767 0.0
O132 O 0.58847 0.21708 0.21247 0.0
Zn133 Zn 0.60053 0.25727 0.23334 0.0
O134 O 0.58337 0.26925 0.29239 0.0
C135 C 0.58715 0.27754 0.14564 0.0
O136 O 0.60058 0.25302 0.13488 0.0
O137 O 0.64436 0.25828 0.23594 0.0
C138 C 0.55718 0.26372 0.30441 0.0
O139 O 0.53997 0.24815 0.27825 0.0
C140 C 0.5786 0.19413 0.2314 0.0
O141 O 0.57403 0.19394 0.27464 0.0
O142 O 0.58574 0.28496 0.18648 0.0
C143 C 0.47458 0.91795 0.99569 0.0
O144 O 0.49325 0.90141 0.01769 0.0
O145 O 0.49434 0.84852 0.9525 0.0
Zn146 Zn 0.45402 0.86176 0.97019 0.0
O147 O 0.44056 0.84416 0.02842 0.0
C148 C 0.43416 0.85089 0.88075 0.0
O149 O 0.45805 0.86572 0.8707 0.0
O150 O 0.45436 0.90571 0.97303 0.0
C151 C 0.44499 0.8173 0.03804 0.0
O152 O 0.45945 0.80058 0.00996 0.0
C153 C 0.51566 0.83896 0.97565 0.0
O154 O 0.51303 0.8364 0.0191 0.0
O155 O 0.4272 0.84769 0.92153 0.0
C156 C 0.80124 0.22834 0.73853 0.0
O157 O 0.81593 0.20545 0.72398 0.0
O158 O 0.87136 0.20982 0.78008 0.0
Zn159 Zn 0.85926 0.24905 0.75565 0.0
O160 O 0.87703 0.25903 0.69612 0.0
C161 C 0.87399 0.27387 0.8409 0.0
O162 O 0.86177 0.24954 0.85563 0.0
O163 O 0.81532 0.25052 0.75312 0.0
C164 C 0.90437 0.25672 0.68837 0.0
O165 O 0.92167 0.24534 0.71889 0.0
C166 C 0.88366 0.18773 0.7623 0.0
O167 O 0.89041 0.18819 0.71973 0.0
O168 O 0.87424 0.27894 0.79921 0.0
C169 C 0.48364 0.04494 0.4971 0.0
O170 O 0.50772 0.05903 0.48577 0.0
O171 O 0.50302 0.11619 0.52867 0.0
Zn172 Zn 0.46274 0.10358 0.50919 0.0
O173 O 0.45152 0.12067 0.44924 0.0
C174 C 0.44296 0.11796 0.59718 0.0
O175 O 0.4683 0.10629 0.60826 0.0
O176 O 0.461 0.05959 0.50768 0.0
C177 C 0.43369 0.14211 0.44678 0.0
O178 O 0.42333 0.15361 0.48371 0.0
C179 C 0.515 0.14045 0.5182 0.0
O180 O 0.50171 0.15792 0.48973 0.0
O181 O 0.43523 0.11817 0.55641 0.0
C182 C 0.66834 0.73784 0.25091 0.0
O183 O 0.652 0.75964 0.2365 0.0
O184 O 0.59783 0.75053 0.2974 0.0
Zn185 Zn 0.61228 0.71309 0.27011 0.0
O186 O 0.59373 0.70508 0.21012 0.0
C187 C 0.60218 0.68368 0.35381 0.0
O188 O 0.61486 0.70726 0.37045 0.0
O189 O 0.656 0.71486 0.26607 0.0
C190 C 0.56921 0.69161 0.20879 0.0
O191 O 0.5562 0.68456 0.24638 0.0
C192 C 0.57801 0.76724 0.28188 0.0
O193 O 0.56591 0.76107 0.24315 0.0
O194 O 0.60031 0.68085 0.31174 0.0
C195 C -0.01424 0.912 0.98128 0.0
O196 O 0.96417 0.89643 0.96412 0.0
O197 O 0.96424 0.84386 0.02048 0.0
Zn198 Zn 0.00518 0.85481 0.0026 0.0
O199 O 0.01667 0.83607 0.94412 0.0
C200 C 0.02228 0.84126 0.0922 0.0
O201 O -0.00284 0.85413 0.10102 0.0
O202 O 0.0073 0.89872 -0.00088 0.0
C203 C 0.04269 0.82655 0.93913 0.0
O204 O 0.06154 0.82944 0.97208 0.0
C205 C 0.95272 0.81881 0.01373 0.0
O206 O 0.96698 0.79928 0.9899 0.0
O207 O 0.03107 0.84 0.05202 0.0
C208 C 0.6756 0.73791 0.76267 0.0
O209 O 0.65964 0.71707 0.74421 0.0
O210 O 0.6062 0.71856 0.80862 0.0
Zn211 Zn 0.61905 0.75798 0.78593 0.0
O212 O 0.60112 0.76697 0.72591 0.0
C213 C 0.60466 0.78272 0.87165 0.0
O214 O 0.61725 0.75875 0.88679 0.0
O215 O 0.66282 0.75888 0.78265 0.0
C216 C 0.57612 0.77931 0.72382 0.0
O217 O 0.56204 0.78519 0.76095 0.0
C218 C 0.59028 0.70008 0.7879 0.0
O219 O 0.58167 0.70586 0.74699 0.0
O220 O 0.60456 0.78767 0.82993 0.0
C221 C 0.4716 0.41984 -2e-05 0.0
O222 O 0.49396 0.40368 0.98739 0.0
O223 O 0.48759 0.35039 0.04185 0.0
Zn224 Zn 0.44852 0.36329 0.01811 0.0
O225 O 0.4394 0.34457 0.95856 0.0
C226 C 0.42507 0.34997 0.10435 0.0
O227 O 0.44947 0.36276 0.11766 0.0
O228 O 0.44847 0.4072 0.01393 0.0
C229 C 0.42508 0.32051 0.95705 0.0
O230 O 0.41707 0.30786 0.9945 0.0
C231 C 0.50355 0.32997 0.02641 0.0
O232 O 0.49543 0.3162 0.98986 0.0
O233 O 0.41898 0.34952 0.06296 0.0
C234 C 0.78317 0.22629 0.25327 0.0
O235 O 0.7995 0.24647 0.23399 0.0
O236 O 0.85457 0.24287 0.28972 0.0
Zn237 Zn 0.83939 0.2031 0.2721 0.0
O238 O 0.8549 0.19027 0.21211 0.0
C239 C 0.85226 0.18244 0.36042 0.0
O240 O 0.83854 0.20666 0.37189 0.0
O241 O 0.79556 0.20447 0.27176 0.0
C242 C 0.87783 0.17443 0.20975 0.0
O243 O 0.89157 0.16714 0.24668 0.0
C244 C 0.87568 0.25662 0.27152 0.0
O245 O 0.88842 0.24538 0.23617 0.0
O246 O 0.8537 0.17551 0.31941 0.0
C247 C -0.01718 0.54126 0.49922 0.0
O248 O 0.96111 0.55733 0.48381 0.0
O249 O 0.96671 0.61128 0.54603 0.0
Zn250 Zn 0.00519 0.5979 0.52099 0.0
O251 O 0.01374 0.6166 0.46129 0.0
C252 C 0.03095 0.61279 0.6059 0.0
O253 O 0.00625 0.6019 0.6214 0.0
O254 O 0.00496 0.55398 0.51649 0.0
C255 C 0.02703 0.64125 0.46012 0.0
O256 O 0.03379 0.65443 0.49778 0.0
C257 C 0.94996 0.63071 0.5295 0.0
O258 O 0.95666 0.64269 0.49096 0.0
O259 O 0.03602 0.61147 0.56428 0.0
C260 C 0.67441 0.22606 0.7438 0.0
O261 O 0.65981 0.24858 0.75979 0.0
O262 O 0.60336 0.24647 0.70972 0.0
Zn263 Zn 0.61624 0.20564 0.72617 0.0
O264 O 0.59845 0.19139 0.78384 0.0
C265 C 0.60099 0.18981 0.63693 0.0
O266 O 0.61317 0.21546 0.6287 0.0
O267 O 0.66025 0.20426 0.72811 0.0
C268 C 0.57121 0.19451 0.79172 0.0
O269 O 0.55459 0.20814 0.76249 0.0
C270 C 0.59159 0.26705 0.73198 0.0
O271 O 0.58667 0.26364 0.77483 0.0
O272 O 0.60111 0.17997 0.67665 0.0
C273 C -0.0162 0.42825 0.98379 0.0
O274 O 0.9659 0.40988 0.00399 0.0
O275 O 0.97094 0.35793 0.93169 0.0
Zn276 Zn 0.00854 0.37455 0.95587 0.0
O277 O 0.01857 0.35678 0.01557 0.0
C278 C 0.03497 0.36487 0.87029 0.0
O279 O 0.01046 0.37672 0.8558 0.0
O280 O 0.00479 0.41806 0.96076 0.0
C281 C 0.03381 0.33341 0.01744 0.0
O282 O 0.04234 0.32091 0.98017 0.0
C283 C 0.95488 0.33888 0.95078 0.0
O284 O 0.96193 0.32958 0.99087 0.0
O285 O 0.03973 0.36372 0.91204 0.0
C286 C 0.7948 0.74719 0.2521 0.0
O287 O 0.81065 0.72695 0.27199 0.0
O288 O 0.86299 0.72404 0.21402 0.0
Zn289 Zn 0.85158 0.76573 0.22736 0.0
O290 O 0.87042 0.78122 0.28353 0.0
C291 C 0.86571 0.77739 0.13657 0.0
O292 O 0.85291 0.75168 0.13139 0.0
O293 O 0.80774 0.76762 0.2309 0.0
C294 C 0.89756 0.77742 0.29165 0.0
O295 O 0.91367 0.76251 0.26329 0.0
C296 C 0.87452 0.70362 0.23695 0.0
O297 O 0.88093 0.708 0.27918 0.0
O298 O 0.86634 0.78907 0.17513 0.0
C299 C 0.47601 0.54182 0.49022 0.0
O300 O 0.49387 0.55895 0.51294 0.0
O301 O 0.49709 0.61028 0.43667 0.0
Zn302 Zn 0.45746 0.59721 0.4581 0.0
O303 O 0.44619 0.61663 0.51595 0.0
C304 C 0.43437 0.6095 0.37035 0.0
O305 O 0.459 0.59737 0.3571 0.0
O306 O 0.45733 0.55341 0.46415 0.0
C307 C 0.45056 0.64389 0.52281 0.0
O308 O 0.46388 0.65972 0.49225 0.0
C309 C 0.51882 0.61992 0.45898 0.0
O310 O 0.51704 0.62193 0.50261 0.0
O311 O 0.42855 0.61031 0.4118 0.0
C312 C 0.28979 0.2195 0.23665 0.0
O313 O 0.30599 0.2391 0.2576 0.0
O314 O 0.35784 0.24072 0.19108 0.0
Zn315 Zn 0.34621 0.20067 0.21262 0.0
O316 O 0.36394 0.19185 0.27287 0.0
C317 C 0.36091 0.17742 0.12622 0.0
O318 O 0.34715 0.20102 0.11211 0.0
O319 O 0.30239 0.19917 0.21496 0.0
C320 C 0.38909 0.17985 0.27549 0.0
O321 O 0.40345 0.17389 0.23863 0.0
C322 C 0.37314 0.25967 0.21188 0.0
O323 O 0.38253 0.25386 0.25239 0.0
O324 O 0.36171 0.172 0.1678 0.0
C325 C 0.48057 0.54655 -0.00085 0.0
O326 O 0.45796 0.56281 0.01038 0.0
O327 O 0.46631 0.61575 0.95357 0.0
Zn328 Zn 0.50447 0.60288 0.98045 0.0
O329 O 0.5124 0.62236 0.03979 0.0
C330 C 0.53094 0.61444 0.89552 0.0
O331 O 0.50673 0.60201 0.88073 0.0
O332 O 0.50397 0.55905 0.98599 0.0
C333 C 0.52608 0.64679 0.04072 0.0
O334 O 0.53363 0.65931 0.00295 0.0
C335 C 0.44952 0.63595 0.96756 0.0
O336 O 0.456 0.64976 0.00481 0.0
O337 O 0.5356 0.6155 0.9373 0.0
C338 C 0.17829 0.7368 0.72322 0.0
O339 O 0.16206 0.7168 0.7431 0.0
O340 O 0.10685 0.71974 0.68398 0.0
Zn341 Zn 0.1219 0.75895 0.70471 0.0
O342 O 0.1073 0.76924 0.76605 0.0
C343 C 0.10599 0.78505 0.62024 0.0
O344 O 0.11853 0.76148 0.60366 0.0
O345 O 0.16577 0.75824 0.70393 0.0
C346 C 0.08086 0.7775 0.77101 0.0
O347 O 0.06329 0.77775 0.73618 0.0
C348 C 0.09197 0.70136 0.70651 0.0
O349 O 0.08553 0.7072 0.74828 0.0
O350 O 0.10628 0.78907 0.66219 0.0
C351 C 0.977 0.4144 0.49163 0.0
O352 O -0.00189 0.3985 0.50916 0.0
O353 O -0.00244 0.34661 0.44122 0.0
Zn354 Zn 0.95791 0.35768 0.46481 0.0
O355 O 0.94746 0.33756 0.52254 0.0
C356 C 0.93564 0.34292 0.37778 0.0
O357 O 0.96088 0.35403 0.36483 0.0
O358 O 0.95619 0.40153 0.47111 0.0
C359 C 0.95428 0.31116 0.53188 0.0
O360 O 0.97065 0.29605 0.50415 0.0
C361 C 0.02122 0.33824 0.45968 0.0
O362 O 0.02258 0.33536 0.50323 0.0
O363 O 0.92895 0.34368 0.41892 0.0
C364 C 0.29626 0.73729 0.24813 0.0
O365 O 0.3113 0.7158 0.22999 0.0
O366 O 0.36642 0.71595 0.28342 0.0
Zn367 Zn 0.35393 0.7571 0.26814 0.0
O368 O 0.37119 0.77174 0.21036 0.0
C369 C 0.3689 0.77193 0.35772 0.0
O370 O 0.35674 0.74615 0.36501 0.0
O371 O 0.30998 0.7585 0.26632 0.0
C372 C 0.39807 0.76803 0.20055 0.0
O373 O 0.41517 0.75356 0.22816 0.0
C374 C 0.37747 0.69518 0.2607 0.0
O375 O 0.38226 0.69868 0.21784 0.0
O376 O 0.36909 0.78224 0.31828 0.0
C377 C 0.96868 0.55367 0.00063 0.0
O378 O -0.01464 0.57178 0.97772 0.0
O379 O -0.00901 0.61984 0.0583 0.0
Zn380 Zn 0.95103 0.60772 0.03676 0.0
O381 O 0.93958 0.62779 0.97953 0.0
C382 C 0.92892 0.61819 0.12521 0.0
O383 O 0.95371 0.60578 0.13725 0.0
O384 O 0.95073 0.56416 0.02875 0.0
C385 C 0.94475 0.65477 0.97155 0.0
O386 O 0.95912 0.67065 0.00103 0.0
C387 C 0.01301 0.62921 0.03654 0.0
O388 O 0.01132 0.63218 0.99303 0.0
O389 O 0.92258 0.61995 0.08396 0.0
C390 C 0.16236 0.22398 0.74661 0.0
O391 O 0.1473 0.24314 0.72315 0.0
O392 O 0.09648 0.25327 0.7918 0.0
Zn393 Zn 0.10514 0.21121 0.77667 0.0
O394 O 0.0854 0.19829 0.71986 0.0
C395 C 0.08493 0.19665 0.86517 0.0
O396 O 0.09333 0.22368 0.87406 0.0
O397 O 0.1487 0.20651 0.77235 0.0
C398 C 0.05889 0.20459 0.7106 0.0
O399 O 0.04377 0.22123 0.73797 0.0
C400 C 0.08853 0.27461 0.7673 0.0
O401 O 0.08487 0.27071 0.72423 0.0
O402 O 0.08897 0.18631 0.82625 0.0
C403 C 0.48592 0.41552 0.50304 0.0
O404 O 0.46804 0.39835 0.48043 0.0
O405 O 0.46634 0.34634 0.55567 0.0
Zn406 Zn 0.50565 0.36014 0.53384 0.0
O407 O 0.51684 0.34156 0.47535 0.0
C408 C 0.53021 0.34888 0.62104 0.0
O409 O 0.50573 0.36103 0.63492 0.0
O410 O 0.50498 0.40396 0.52851 0.0
C411 C 0.51279 0.31438 0.46735 0.0
O412 O 0.49983 0.29779 0.49733 0.0
C413 C 0.44464 0.33653 0.53345 0.0
O414 O 0.44629 0.33461 0.48981 0.0
O415 O 0.53525 0.34744 0.5794 0.0
C416 C 0.03612 0.15417 0.32775 0.0
C417 C 0.04542 0.14288 0.36904 0.0
H418 H 0.04635 0.182 0.27229 0.0
C419 C 0.0742 0.14862 0.38361 0.0
H420 H 0.0141 0.15004 0.31553 0.0
C421 C 0.09277 0.16668 0.35866 0.0
C422 C 0.08279 0.17963 0.31888 0.0
H423 H 0.08209 0.13999 0.4151 0.0
H424 H 0.11441 0.17162 0.37174 0.0
C425 C 0.05459 0.17251 0.303 0.0
C426 C 0.0491 0.8409 0.58659 0.0
C427 C 0.04425 0.83369 0.54161 0.0
H428 H 0.07277 0.83164 0.64641 0.0
C429 C 0.06251 0.81287 0.52106 0.0
H430 H 0.03561 0.85713 0.60321 0.0
C431 C 0.08382 0.79801 0.54604 0.0
C432 C 0.08734 0.80394 0.59181 0.0
H433 H 0.0593 0.80693 0.48639 0.0
H434 H 0.09661 0.78101 0.52994 0.0
C435 C 0.07048 0.82631 0.61135 0.0
C436 C 0.39476 0.81569 0.85803 0.0
C437 C 0.41832 0.83399 0.846 0.0
H438 H 0.36552 0.78129 0.83831 0.0
C439 C 0.4283 0.83362 0.80158 0.0
H440 H 0.38632 0.81559 0.89179 0.0
C441 C 0.41619 0.8139 0.77063 0.0
C442 C 0.39408 0.79416 0.78378 0.0
H443 H 0.44633 0.84759 0.7912 0.0
H444 H 0.42521 0.81305 0.73726 0.0
C445 C 0.38286 0.79595 0.82734 0.0
C446 C 0.39763 0.1379 0.11243 0.0
C447 C 0.3797 0.16038 0.09552 0.0
H448 H 0.43333 0.10869 0.10038 0.0
C449 C 0.38229 0.16831 0.05032 0.0
H450 H 0.39608 0.13105 0.14696 0.0
C451 C 0.40371 0.15528 0.02338 0.0
C452 C 0.42296 0.13432 0.04138 0.0
H453 H 0.36868 0.18547 0.03625 0.0
H454 H 0.40615 0.16272 0.98926 0.0
C455 C 0.41908 0.12512 0.08572 0.0
C456 C 0.03735 0.79984 0.1992 0.0
C457 C 0.06409 0.78603 0.1892 0.0
H458 H 0.00325 0.82849 0.1765 0.0
C459 C 0.07848 0.7932 0.14915 0.0
H460 H 0.0258 0.79491 0.22986 0.0
C461 C 0.06549 0.81225 0.11848 0.0
C462 C 0.03796 0.82475 0.12734 0.0
H463 H 0.0992 0.78309 0.14047 0.0
H464 H 0.07658 0.81636 0.08715 0.0
C465 C 0.02445 0.81911 0.16861 0.0
C466 C 0.39468 0.77074 0.43149 0.0
C467 C 0.38626 0.78645 0.39316 0.0
H468 H 0.42222 0.76954 0.48948 0.0
C469 C 0.39694 0.81515 0.38704 0.0
H470 H 0.38676 0.74858 0.43722 0.0
C471 C 0.417 0.82725 0.41721 0.0
C472 C 0.42706 0.81074 0.45384 0.0
H473 H 0.39066 0.82789 0.35803 0.0
H474 H 0.42572 0.84898 0.41045 0.0
C475 C 0.41504 0.78272 0.46143 0.0
C476 C 0.38381 0.16545 0.64753 0.0
C477 C 0.39652 0.17333 0.68864 0.0
H478 H 0.38847 0.14164 0.58648 0.0
C479 C 0.42306 0.16013 0.70155 0.0
H480 H 0.36327 0.17505 0.63664 0.0
C481 C 0.43747 0.1408 0.67274 0.0
C482 C 0.42567 0.13446 0.63042 0.0
H483 H 0.43332 0.16561 0.73312 0.0
H484 H 0.4585 0.13192 0.68285 0.0
C485 C 0.39828 0.1463 0.61868 0.0
C486 C 0.05442 0.19435 0.93445 0.0
C487 C 0.06691 0.18006 0.89752 0.0
H488 H 0.02324 0.192 0.98771 0.0
C489 C 0.05972 0.1505 0.88936 0.0
H490 H 0.05961 0.21712 0.94172 0.0
C491 C 0.03908 0.13606 0.91588 0.0
C492 C 0.02499 0.15098 0.95086 0.0
H493 H 0.0692 0.1388 0.86142 0.0
H494 H 0.03316 0.11364 0.9075 0.0
C495 C 0.03354 0.17997 0.96078 0.0
C496 C 0.8958 0.81962 0.62885 0.0
C497 C 0.91821 0.83863 0.64336 0.0
H498 H 0.86666 0.7845 0.64551 0.0
C499 C 0.92621 0.83859 0.68875 0.0
H500 H 0.88889 0.81923 0.59425 0.0
C501 C 0.91324 0.81863 0.71841 0.0
C502 C 0.89228 0.79831 0.70299 0.0
H503 H 0.94332 0.8531 0.70101 0.0
H504 H 0.9207 0.81814 0.75273 0.0
C505 C 0.88307 0.79963 0.65827 0.0
C506 C 0.893 0.16389 0.467 0.0
C507 C 0.9128 0.14259 0.45157 0.0
H508 H 0.85802 0.1933 0.45009 0.0
C509 C 0.90992 0.13197 0.40777 0.0
H510 H 0.89467 0.17241 0.50066 0.0
C511 C 0.88891 0.14366 0.37904 0.0
C512 C 0.87046 0.16648 0.39332 0.0
H513 H 0.92462 0.11525 0.3951 0.0
H514 H 0.88813 0.13574 0.34497 0.0
C515 C 0.87205 0.17585 0.43801 0.0
C516 C 0.56978 0.14649 0.12954 0.0
C517 C 0.54652 0.12794 0.14203 0.0
H518 H 0.59824 0.18177 0.14826 0.0
C519 C 0.53647 0.12868 0.18641 0.0
H520 H 0.57828 0.1463 0.09581 0.0
C521 C 0.54812 0.14905 0.21675 0.0
C522 C 0.5698 0.16908 0.20301 0.0
H523 H 0.51867 0.11453 0.19713 0.0
H524 H 0.53901 0.15021 0.25005 0.0
C525 C 0.5812 0.16689 0.15962 0.0
C526 C 0.56026 0.80686 0.97173 0.0
C527 C 0.54194 0.82809 0.95226 0.0
H528 H 0.59481 0.77573 0.96135 0.0
C529 C 0.5472 0.83698 0.90813 0.0
H530 H 0.55673 0.79967 0.00575 0.0
C531 C 0.56903 0.82355 0.88292 0.0
C532 C 0.5859 0.80068 0.90114 0.0
H533 H 0.53369 0.85361 0.89242 0.0
H534 H 0.5716 0.83012 0.84841 0.0
C535 C 0.58203 0.79315 0.94628 0.0
C536 C 0.91574 0.14425 0.77865 0.0
C537 C 0.89311 0.16336 0.79148 0.0
H538 H 0.94612 0.11104 0.79939 0.0
C539 C 0.8813 0.16089 0.8346 0.0
H540 H 0.92523 0.14561 0.74561 0.0
C541 C 0.89308 0.14111 0.86522 0.0
C542 C 0.91711 0.12345 0.85353 0.0
H543 H 0.86358 0.17506 0.84532 0.0
H544 H 0.88418 0.14068 0.89869 0.0
C545 C 0.92772 0.1245 0.8095 0.0
C546 C 0.57467 0.19025 0.56353 0.0
C547 C 0.58299 0.17507 0.60241 0.0
H548 H 0.54657 0.19117 0.50616 0.0
C549 C 0.57147 0.14687 0.61013 0.0
H550 H 0.58323 0.21201 0.55656 0.0
C551 C 0.55067 0.13486 0.58109 0.0
C552 C 0.54071 0.15093 0.54395 0.0
H553 H 0.57765 0.13452 0.63957 0.0
H554 H 0.54135 0.11356 0.58909 0.0
C555 C 0.55361 0.17834 0.53467 0.0
C556 C 0.54113 0.80677 0.29746 0.0
C557 C 0.56621 0.79096 0.31034 0.0
H558 H 0.50773 0.83712 0.31712 0.0
C559 C 0.57862 0.79627 0.35258 0.0
H560 H 0.53114 0.80329 0.26506 0.0
C561 C 0.56523 0.81556 0.38236 0.0
C562 C 0.53917 0.83004 0.37054 0.0
H563 H 0.59811 0.78467 0.36343 0.0
H564 H 0.57475 0.81824 0.41527 0.0
C565 C 0.52774 0.82617 0.32731 0.0
C566 C 0.8951 0.81852 0.104 0.0
C567 C 0.88375 0.7899 0.10032 0.0
H568 H 0.92536 0.85036 0.07888 0.0
C569 C 0.89244 0.77224 0.06418 0.0
H570 H 0.88863 0.83272 0.13126 0.0
C571 C 0.9138 0.78221 0.0343 0.0
C572 C 0.92655 0.81014 0.03976 0.0
H573 H 0.88402 0.75008 0.06038 0.0
H574 H 0.9212 0.76756 0.00818 0.0
C575 C 0.91614 0.82861 0.07387 0.0
C576 C 0.5738 0.64761 0.88211 0.0
C577 C 0.5495 0.6321 0.86518 0.0
H578 H 0.60591 0.68106 0.87078 0.0
C579 C 0.54118 0.63641 0.82046 0.0
H580 H 0.58096 0.64462 0.91629 0.0
C581 C 0.55553 0.65742 0.79424 0.0
C582 C 0.5784 0.67447 0.81235 0.0
H583 H 0.52264 0.62467 0.80633 0.0
H584 H 0.54771 0.66129 0.76061 0.0
C585 C 0.58808 0.66858 0.856 0.0
C586 C 0.56462 0.28135 0.06956 0.0
C587 C 0.56965 0.29358 0.11201 0.0
H588 H 0.53974 0.28333 0.00891 0.0
C589 C 0.55537 0.31979 0.12361 0.0
H590 H 0.57539 0.26121 0.05954 0.0
C591 C 0.53507 0.33249 0.0946 0.0
C592 C 0.52849 0.31916 0.05341 0.0
H593 H 0.55897 0.32992 0.15589 0.0
H594 H 0.52361 0.35207 0.1054 0.0
C595 C 0.54416 0.294 0.04054 0.0
C596 C 0.91449 0.29556 0.27906 0.0
C597 C 0.88845 0.28246 0.29449 0.0
H598 H 0.94977 0.32537 0.29315 0.0
C599 C 0.87615 0.29243 0.33472 0.0
H600 H 0.92441 0.28852 0.24805 0.0
C601 C 0.89068 0.31344 0.36058 0.0
C602 C 0.91776 0.32504 0.34669 0.0
H603 H 0.85593 0.28305 0.34738 0.0
H604 H 0.88128 0.31961 0.39238 0.0
C605 C 0.929 0.31673 0.3049 0.0
C606 C 0.89037 0.68126 0.57193 0.0
C607 C 0.88676 0.67092 0.6158 0.0
H608 H 0.91317 0.67654 0.50993 0.0
C609 C 0.9014 0.64521 0.62896 0.0
H610 H 0.87928 0.70096 0.5607 0.0
C611 C 0.92071 0.63121 0.59988 0.0
C612 C 0.92589 0.64268 0.55704 0.0
H613 H 0.89887 0.63651 0.66237 0.0
H614 H 0.93251 0.6121 0.61178 0.0
C615 C 0.90981 0.66728 0.54282 0.0
C616 C 0.54103 0.32877 0.69733 0.0
C617 C 0.54919 0.33251 0.65243 0.0
H618 H 0.54837 0.30516 0.75828 0.0
C619 C 0.57408 0.31775 0.63643 0.0
H620 H 0.52206 0.34 0.71076 0.0
C621 C 0.58901 0.29787 0.66351 0.0
C622 C 0.5795 0.29238 0.7073 0.0
H623 H 0.58122 0.32039 0.60221 0.0
H624 H 0.60722 0.28576 0.6494 0.0
C625 C 0.55613 0.30889 0.72462 0.0
C626 C 0.9245 0.33413 0.88169 0.0
C627 C 0.93088 0.32471 0.92531 0.0
H628 H 0.90131 0.32565 0.82101 0.0
C629 C 0.91582 0.30025 0.94261 0.0
H630 H 0.93551 0.35306 0.86744 0.0
C631 C 0.89608 0.28449 0.91587 0.0
C632 C 0.8911 0.29292 0.87137 0.0
H633 H 0.92013 0.29254 0.97617 0.0
H634 H 0.88571 0.26502 0.92952 0.0
C635 C 0.90485 0.3184 0.85502 0.0
C636 C 0.88588 0.64957 0.14382 0.0
C637 C 0.91143 0.63503 0.15786 0.0
H638 H 0.85393 0.68242 0.15835 0.0
C639 C 0.92189 0.6398 0.20149 0.0
H640 H 0.87698 0.6461 0.11068 0.0
C641 C 0.90851 0.66068 0.22906 0.0
C642 C 0.88459 0.6771 0.21323 0.0
H643 H 0.94143 0.62876 0.2134 0.0
H644 H 0.9181 0.66532 0.26141 0.0
C645 C 0.87266 0.67042 0.17116 0.0
C646 C 0.58292 0.66899 0.42896 0.0
C647 C 0.58522 0.66364 0.38288 0.0
H648 H 0.56011 0.65901 0.48963 0.0
C649 C 0.56837 0.64096 0.36378 0.0
H650 H 0.59575 0.6862 0.44471 0.0
C651 C 0.54794 0.62561 0.38935 0.0
C652 C 0.54407 0.63241 0.43466 0.0
H653 H 0.5698 0.63604 0.32849 0.0
H654 H 0.53429 0.60923 0.37311 0.0
C655 C 0.56255 0.6534 0.45471 0.0
C656 C 0.38404 0.3149 0.1195 0.0
C657 C 0.40828 0.33104 0.13526 0.0
H658 H 0.35381 0.27985 0.13155 0.0
C659 C 0.41837 0.32609 0.17899 0.0
H660 H 0.37553 0.31834 0.08614 0.0
C661 C 0.40587 0.30389 0.20516 0.0
C662 C 0.38312 0.28628 0.18796 0.0
H663 H 0.43691 0.33828 0.19221 0.0
H664 H 0.41504 0.29959 0.23788 0.0
C665 C 0.37163 0.29274 0.14554 0.0
C666 C 0.42059 0.63277 0.89686 0.0
C667 C 0.42558 0.64645 0.93829 0.0
H668 H 0.39907 0.63478 0.83353 0.0
C669 C 0.40939 0.67166 0.94929 0.0
H670 H 0.43247 0.61313 0.88746 0.0
C671 C 0.39005 0.68403 0.91827 0.0
C672 C 0.38668 0.67145 0.87568 0.0
H673 H 0.41258 0.6826 0.98104 0.0
H674 H 0.37889 0.70423 0.92693 0.0
C675 C 0.40141 0.64517 0.86587 0.0
C676 C 0.05667 0.65896 0.70354 0.0
C677 C 0.07938 0.67536 0.68382 0.0
H678 H 0.02355 0.62597 0.69438 0.0
C679 C 0.08844 0.66821 0.64037 0.0
H680 H 0.04931 0.66384 0.73707 0.0
C681 C 0.07384 0.64647 0.61606 0.0
C682 C 0.04975 0.63149 0.63457 0.0
H683 H 0.10613 0.68017 0.62441 0.0
H684 H 0.08062 0.64243 0.58199 0.0
C685 C 0.04193 0.63724 0.67908 0.0
C686 C 0.04553 0.33674 0.38548 0.0
C687 C 0.04567 0.32882 0.4308 0.0
H688 H 0.0638 0.32988 0.32087 0.0
C689 C 0.06758 0.30978 0.44658 0.0
H690 H 0.02921 0.35175 0.3724 0.0
C691 C 0.08755 0.29713 0.4168 0.0
C692 C 0.08591 0.30343 0.3709 0.0
H693 H 0.0683 0.30341 0.48137 0.0
H694 H 0.1032 0.28127 0.42941 0.0
C695 C 0.06543 0.32424 0.3559 0.0
C696 C 0.42542 0.63121 0.29451 0.0
C697 C 0.41637 0.6269 0.3389 0.0
H698 H 0.4199 0.6562 0.23437 0.0
C699 C 0.39171 0.64219 0.35459 0.0
H700 H 0.44424 0.61962 0.28132 0.0
C701 C 0.37795 0.6631 0.32787 0.0
C702 C 0.38839 0.66907 0.28474 0.0
H703 H 0.38391 0.63916 0.3884 0.0
H704 H 0.35992 0.67555 0.34181 0.0
C705 C 0.41146 0.6521 0.26755 0.0
C706 C 0.05824 0.66048 0.043 0.0
C707 C 0.03894 0.6397 0.06152 0.0
H708 H 0.09319 0.6911 0.05524 0.0
C709 C 0.04289 0.63094 0.10605 0.0
H710 H 0.05575 0.66754 0.0087 0.0
C711 C 0.06437 0.64416 0.1325 0.0
C712 C 0.08219 0.66666 0.11512 0.0
H713 H 0.0286 0.61464 0.12107 0.0
H714 H 0.06591 0.63777 0.16724 0.0
C715 C 0.07965 0.67397 0.06968 0.0
C716 C 0.05795 0.32025 0.77002 0.0
C717 C 0.07945 0.30213 0.78921 0.0
H718 H 0.0269 0.3548 0.78082 0.0
C719 C 0.08962 0.30838 0.83244 0.0
H720 H 0.04981 0.31596 0.73666 0.0
C721 C 0.07675 0.33064 0.85754 0.0
C722 C 0.05321 0.34691 0.84007 0.0
H723 H 0.10652 0.29504 0.8478 0.0
H724 H 0.08405 0.33376 0.89164 0.0
C725 C 0.04482 0.34245 0.79536 0.0
C726 C 0.41505 0.33187 0.60278 0.0
C727 C 0.41927 0.32434 0.55782 0.0
H728 H 0.39231 0.32282 0.66338 0.0
C729 C 0.4008 0.30321 0.53811 0.0
H730 H 0.42871 0.34836 0.61874 0.0
C731 C 0.37993 0.28831 0.5639 0.0
C732 C 0.37708 0.29454 0.60965 0.0
H733 H 0.40352 0.29704 0.50346 0.0
H734 H 0.36702 0.27104 0.54846 0.0
C735 C 0.3941 0.31725 0.62835 0.0
C736 C 0.24013 0.20255 0.21115 0.0
C737 C 0.25749 0.22223 0.23606 0.0
H738 H 0.19691 0.19057 0.18949 0.0
C739 C 0.24376 0.24519 0.2593 0.0
H740 H 0.25006 0.18464 0.19282 0.0
C741 C 0.21336 0.24862 0.25733 0.0
C742 C 0.19601 0.22916 0.23203 0.0
H743 H 0.2565 0.26073 0.27881 0.0
H744 H 0.20349 0.26664 0.27551 0.0
C745 C 0.20968 0.206 0.20914 0.0
C746 C 0.00078 0.97405 0.48347 0.0
C747 C 0.97749 0.9588 0.50372 0.0
H748 H 0.01994 0.01582 0.46828 0.0
C749 C 0.95522 0.97486 0.52499 0.0
H750 H 0.01831 0.96233 0.46689 0.0
C751 C 0.95617 0.00555 0.52584 0.0
C752 C 0.97941 0.0208 0.50546 0.0
H753 H 0.937 0.96375 0.54098 0.0
H754 H 0.93862 0.01729 0.54235 0.0
C755 C 0.00174 0.00473 0.48435 0.0
C756 C 0.25491 0.70831 0.74523 0.0
C757 C 0.27234 0.72943 0.7235 0.0
H758 H 0.21157 0.6941 0.76221 0.0
C759 C 0.25858 0.75285 0.70125 0.0
H760 H 0.26484 0.69 0.76268 0.0
C761 C 0.22802 0.75524 0.70107 0.0
C762 C 0.21061 0.73424 0.7231 0.0
H763 H 0.27139 0.76949 0.6842 0.0
H764 H 0.21807 0.7736 0.68377 0.0
C765 C 0.22436 0.71069 0.74501 0.0
C766 C 0.46232 -0.00152 0.97002 0.0
C767 C 0.48545 0.01184 0.99369 0.0
H768 H 0.44064 0.95836 0.95223 0.0
C769 C 0.5048 -0.0059 0.01831 0.0
H770 H 0.447 0.01155 0.9508 0.0
C771 C 0.50109 0.96362 0.01926 0.0
C772 C 0.47798 0.95026 0.99557 0.0
H773 H 0.52279 0.00372 0.03703 0.0
H774 H 0.51642 0.95056 0.03848 0.0
C775 C 0.45863 0.968 0.97094 0.0
C776 C 0.21693 0.75825 0.26805 0.0
C777 C 0.20193 0.73381 0.25044 0.0
H778 H 0.2585 0.77857 0.28111 0.0
C779 C 0.21821 0.71062 0.23195 0.0
H780 H 0.20502 0.77649 0.2825 0.0
C781 C 0.24882 0.71187 0.23098 0.0
C782 C 0.26383 0.73629 0.2486 0.0
H783 H 0.20732 0.69149 0.21799 0.0
H784 H 0.26069 0.69361 0.2165 0.0
C785 C 0.24758 0.75946 0.2672 0.0
C786 C 0.50811 0.96558 0.49115 0.0
C787 C 0.48248 0.95052 0.5039 0.0
H788 H 0.52855 0.00719 0.47884 0.0
C789 C 0.45719 0.96675 0.51421 0.0
H790 H 0.52796 0.95371 0.48292 0.0
C791 C 0.45752 -0.00258 0.51178 0.0
C792 C 0.48315 0.01248 0.49898 0.0
H793 H 0.43707 0.95581 0.52406 0.0
H794 H 0.43767 0.00929 0.51998 0.0
C795 C 0.50844 -0.00376 0.48871 0.0
C796 C 0.21104 0.20325 0.76943 0.0
C797 C 0.19477 0.22397 0.745 0.0
H798 H 0.25366 0.18794 0.78852 0.0
C799 C 0.20976 0.24535 0.71998 0.0
H800 H 0.20011 0.18648 0.78902 0.0
C801 C 0.24038 0.24628 0.71989 0.0
C802 C 0.25668 0.22576 0.74465 0.0
H803 H 0.19788 0.26164 0.70081 0.0
H804 H 0.25125 0.26317 0.70046 0.0
C805 C 0.24172 0.20409 0.76917 0.0
C806 C 0.95669 -0.01061 0.9688 0.0
C807 C 0.97938 0.00618 0.98803 0.0
H808 H 0.94103 0.94656 0.95126 0.0
C809 C 0.00453 -0.00821 0.00408 0.0
H810 H 0.93707 -0.00018 0.95594 0.0
C811 C 0.00682 0.96122 0.00136 0.0
C812 C -0.01598 0.94443 0.98245 0.0
H813 H 0.02244 0.00411 0.01896 0.0
H814 H 0.02638 0.95075 0.01438 0.0
C815 C 0.95901 0.95885 0.96598 0.0
C816 C 0.75565 0.75681 0.78156 0.0
C817 C 0.76981 0.7335 0.75972 0.0
H818 H 0.7148 0.77655 0.79952 0.0
C819 C 0.75274 0.71176 0.73862 0.0
H820 H 0.76818 0.77393 0.79808 0.0
C821 C 0.72213 0.71327 0.73941 0.0
C822 C 0.70798 0.73656 0.76128 0.0
H823 H 0.76298 0.69353 0.72145 0.0
H824 H 0.70961 0.69614 0.72291 0.0
C825 C 0.72505 0.75833 0.78232 0.0
C826 C 0.70664 0.25611 0.23458 0.0
C827 C 0.68931 0.23525 0.25705 0.0
H828 H 0.74988 0.2696 0.21566 0.0
C829 C 0.70311 0.2115 0.27842 0.0
H830 H 0.69667 0.27464 0.21774 0.0
C831 C 0.73359 0.20855 0.27709 0.0
C832 C 0.75091 0.22932 0.25443 0.0
H833 H 0.69037 0.19503 0.29598 0.0
H834 H 0.74354 0.18997 0.29384 0.0
C835 C 0.73714 0.25318 0.23331 0.0
C836 C 0.72245 0.25112 0.75855 0.0
C837 C 0.70686 0.22652 0.74272 0.0
H838 H 0.76444 0.27107 0.76947 0.0
C839 C 0.72256 0.20261 0.72521 0.0
H840 H 0.71102 0.26994 0.77216 0.0
C841 C 0.7532 0.20327 0.72361 0.0
C842 C 0.76879 0.22788 0.73944 0.0
H843 H 0.7112 0.18334 0.71267 0.0
H844 H 0.76464 0.18446 0.71002 0.0
C845 C 0.75309 0.2518 0.7569 0.0
C846 C 0.74524 0.76729 0.2326 0.0
C847 C 0.76243 0.74524 0.25246 0.0
H848 H 0.70198 0.78225 0.2165 0.0
C849 C 0.74843 0.72081 0.27175 0.0
H850 H 0.7554 0.78638 0.21742 0.0
C851 C 0.7179 0.71836 0.27097 0.0
C852 C 0.70068 0.74036 0.25107 0.0
H853 H 0.76104 0.7034 0.28722 0.0
H854 H 0.70781 0.69922 0.28612 0.0
C855 C 0.71465 0.7649 0.23202 0.0
C856 C 0.45003 0.46963 0.01346 0.0
C857 C 0.47377 0.45226 -0.0005 0.0
H858 H 0.43361 0.51304 0.02447 0.0
C859 C 0.49983 0.46613 0.98582 0.0
H860 H 0.42966 0.45961 0.02429 0.0
C861 C 0.50213 0.49675 0.98606 0.0
C862 C 0.47839 0.51414 -6e-05 0.0
H863 H 0.51855 0.45337 0.97497 0.0
H864 H 0.5225 0.50676 0.97519 0.0
C865 C 0.45232 0.50027 0.01366 0.0
C866 C 0.00218 0.46098 0.51451 0.0
C867 C 0.97815 0.44684 0.49422 0.0
H868 H 0.02258 0.50184 0.53184 0.0
C869 C 0.9556 0.464 0.47566 0.0
H870 H 0.01994 0.44841 0.52906 0.0
C871 C 0.95712 0.49468 0.47726 0.0
C872 C 0.98124 0.50881 0.49735 0.0
H873 H 0.9368 0.45377 0.45976 0.0
H874 H 0.93941 0.50728 0.46263 0.0
C875 C 0.00373 0.49163 0.51601 0.0
C876 C -0.00262 0.47979 0.9633 0.0
C877 C 0.97951 0.46031 0.98756 0.0
H878 H 0.00782 0.52452 0.94817 0.0
C879 C 0.95757 0.47175 0.01541 0.0
H880 H 0.01441 0.47165 0.9414 0.0
C881 C 0.95381 0.50211 0.01933 0.0
C882 C 0.97185 0.52158 0.99534 0.0
H883 H 0.94342 0.4573 0.03448 0.0
H884 H 0.93688 0.51028 0.04137 0.0
C885 C -0.00645 0.5101 0.96709 0.0
C886 C 0.50195 0.46621 0.5249 0.0
C887 C 0.48343 0.44782 0.49969 0.0
H888 H 0.51406 0.5103 0.54181 0.0
C889 C 0.46227 0.46059 0.47161 0.0
H890 H 0.51844 0.45706 0.54693 0.0
C891 C 0.45973 0.49112 0.46873 0.0
C892 C 0.47829 0.50951 0.49388 0.0
H893 H 0.44764 0.44702 0.4518 0.0
H894 H 0.44326 0.50028 0.44667 0.0
C895 C 0.4994 0.49674 0.52203 0.0
C896 C 0.06374 0.2985 0.0632 0.0
C897 C 0.0426 0.32091 0.06098 0.0
H898 H 0.08939 0.2703 0.10503 0.0
C899 C 0.03035 0.33158 0.10078 0.0
H900 H 0.07362 0.28981 0.03313 0.0
C901 C 0.03923 0.32022 0.14195 0.0
C902 C 0.06075 0.29817 0.14422 0.0
H903 H 0.01394 0.34876 0.10018 0.0
H904 H 0.02949 0.32904 0.17202 0.0
C905 C 0.07284 0.28735 0.1044 0.0
C906 C 0.93603 0.77711 0.35137 0.0
C907 C 0.91087 0.78988 0.33243 0.0
H908 H 0.96736 0.77813 0.40487 0.0
C909 C 0.89849 0.81473 0.3528 0.0
H910 H 0.94597 0.7579 0.33636 0.0
C911 C 0.91111 0.82668 0.39129 0.0
C912 C 0.9359 0.81357 0.41078 0.0
H913 H 0.8792 0.82511 0.33875 0.0
H914 H 0.90107 0.84583 0.40632 0.0
C915 C 0.94821 0.78862 0.39056 0.0
C916 C 0.40436 0.659 0.6248 0.0
C917 C 0.41695 0.68513 0.64107 0.0
H918 H 0.40554 0.62518 0.5752 0.0
C919 C 0.44095 0.69753 0.61842 0.0
H920 H 0.38596 0.64884 0.64177 0.0
C921 C 0.45184 0.68424 0.57974 0.0
C922 C 0.4394 0.65792 0.56381 0.0
H923 H 0.45104 0.71769 0.63025 0.0
H924 H 0.47017 0.69437 0.56258 0.0
C925 C 0.41569 0.64535 0.58688 0.0
C926 C 0.57096 0.15748 0.85332 0.0
C927 C 0.55815 0.182 0.83259 0.0
H928 H 0.56842 0.12607 0.90641 0.0
C929 C 0.53248 0.1941 0.8508 0.0
H930 H 0.59065 0.1476 0.83982 0.0
C931 C 0.52008 0.18214 0.88943 0.0
C932 C 0.53268 0.15737 0.90979 0.0
H933 H 0.52219 0.21305 0.83549 0.0
H934 H 0.50045 0.19205 0.90307 0.0
C935 C 0.55813 0.14505 0.89122 0.0
C936 C 0.05748 0.67685 0.41632 0.0
C937 C 0.03659 0.65402 0.41716 0.0
H938 H 0.08461 0.70482 0.37619 0.0
C939 C 0.02583 0.64285 0.3766 0.0
H940 H 0.06621 0.68595 0.44702 0.0
C941 C 0.03615 0.65389 0.33604 0.0
C942 C 0.05774 0.67606 0.3352 0.0
H943 H 0.00962 0.62537 0.37616 0.0
H944 H 0.02771 0.64451 0.30536 0.0
C945 C 0.06809 0.68763 0.37575 0.0
C946 C 0.53949 0.80747 0.67849 0.0
C947 C 0.56373 0.78843 0.68033 0.0
H948 H 0.51041 0.83252 0.63718 0.0
C949 C 0.57657 0.77899 0.64027 0.0
H950 H 0.52909 0.81515 0.70878 0.0
C951 C 0.56571 0.78875 0.59926 0.0
C952 C 0.54198 0.80842 0.59744 0.0
H953 H 0.59519 0.76421 0.64056 0.0
H954 H 0.57633 0.78131 0.56902 0.0
C955 C 0.52882 0.81749 0.63747 0.0
C956 C 0.41912 0.30671 0.83276 0.0
C957 C 0.39734 0.28476 0.83089 0.0
H958 H 0.44485 0.33536 0.87402 0.0
C959 C 0.3856 0.27387 0.87093 0.0
H960 H 0.42861 0.31558 0.8025 0.0
C961 C 0.39512 0.28504 0.91195 0.0
C962 C 0.41631 0.30757 0.91374 0.0
H963 H 0.36888 0.25688 0.8706 0.0
H964 H 0.38539 0.27643 0.94221 0.0
C965 C 0.42838 0.31813 0.87374 0.0
C966 C 0.91175 0.1434 0.16407 0.0
C967 C 0.88859 0.16373 0.16613 0.0
H968 H 0.93939 0.11705 0.12256 0.0
C969 C 0.87563 0.17339 0.12619 0.0
H970 H 0.9222 0.13546 0.19423 0.0
C971 C 0.88559 0.16292 0.08509 0.0
C972 C 0.90859 0.14241 0.08304 0.0
H973 H 0.85778 0.18907 0.1266 0.0
H974 H 0.87509 0.17079 0.05494 0.0
C975 C 0.92158 0.13277 0.12298 0.0
C976 C 0.94703 0.69367 0.9124 0.0
C977 C 0.93379 0.66824 0.92995 0.0
H978 H 0.94748 0.72537 0.85936 0.0
C979 C 0.90974 0.65569 0.9075 0.0
H980 H 0.96562 0.70377 0.92906 0.0
C981 C 0.89902 0.66836 0.86836 0.0
C982 C 0.91253 0.69346 0.85029 0.0
H983 H 0.89899 0.6362 0.92041 0.0
H984 H 0.88044 0.65813 0.85181 0.0
C985 C 0.93671 0.70597 0.87255 0.0
C986 C 0.02098 0.20616 0.6499 0.0
C987 C 0.04492 0.19211 0.67037 0.0
H988 H -0.0099 0.20574 0.5957 0.0
C989 C 0.05542 0.16568 0.65229 0.0
H990 H 0.01249 0.22659 0.66319 0.0
C991 C 0.04223 0.15346 0.61454 0.0
C992 C 0.01871 0.16776 0.59343 0.0
H993 H 0.07369 0.15426 0.6676 0.0
H994 H 0.05092 0.1331 0.60132 0.0
C995 C 0.00821 0.19428 0.61135 0.0
C996 C 0.51141 0.27541 0.40829 0.0
C997 C 0.52381 0.30137 0.42552 0.0
H998 H 0.51198 0.2433 0.35581 0.0
C999 C 0.54729 0.31467 0.40281 0.0
H1000 H 0.49326 0.26474 0.42514 0.0
C1001 C 0.55839 0.30208 0.3639 0.0
C1002 C 0.5458 0.27633 0.34631 0.0
H1003 H 0.55739 0.33459 0.41548 0.0
H1004 H 0.57659 0.31279 0.34721 0.0
C1005 C 0.52206 0.26319 0.36866 0.0
C1006 C 0.44626 0.77995 0.09932 0.0
C1007 C 0.43323 0.8048 0.07982 0.0
H1008 H 0.44559 0.7491 0.1534 0.0
C1009 C 0.40855 0.81741 0.10025 0.0
H1010 H 0.46534 0.76984 0.08429 0.0
C1011 C 0.39688 0.80516 0.13913 0.0
C1012 C 0.4101 0.78052 0.15893 0.0
H1013 H 0.39798 0.83648 0.0858 0.0
H1014 H 0.37774 0.81524 0.15402 0.0
C1015 C 0.43502 0.76814 0.13887 0.0
C1016 C 0.95605 0.27318 0.59251 0.0
C1017 C 0.94179 0.29695 0.57187 0.0
H1018 H 0.9555 0.24196 0.64625 0.0
C1019 C 0.91493 0.30679 0.58916 0.0
H1020 H 0.97677 0.26514 0.57978 0.0
C1021 C 0.90245 0.29309 0.62622 0.0
C1022 C 0.91692 0.26972 0.64748 0.0
H1023 H 0.90332 0.32489 0.57369 0.0
H1024 H 0.88174 0.30125 0.63882 0.0
C1025 C 0.9439 0.25993 0.63043 0.0
C1026 C 0.426 0.15282 0.32189 0.0
C1027 C 0.40145 0.17142 0.31932 0.0
H1028 H 0.4554 0.12883 0.36415 0.0
C1029 C 0.38837 0.18121 0.35901 0.0
H1030 H 0.4366 0.1449 0.29191 0.0
C1031 C 0.39931 0.17221 0.40039 0.0
C1032 C 0.42336 0.15296 0.40296 0.0
H1033 H 0.36953 0.19568 0.35817 0.0
H1034 H 0.3885 0.17989 0.43033 0.0
C1035 C 0.43675 0.14355 0.36328 0.0
C1036 C 0.52389 0.64946 0.12412 0.0
C1037 C 0.53543 0.65986 0.08365 0.0
H1038 H 0.52525 0.65166 0.19538 0.0
C1039 C 0.55701 0.68203 0.08462 0.0
H1040 H 0.50713 0.63251 0.12445 0.0
C1041 C 0.56764 0.69278 0.12527 0.0
C1042 C 0.5566 0.68187 0.16574 0.0
H1043 H 0.56633 0.69053 0.054 0.0
H1044 H 0.58476 0.70937 0.12495 0.0
C1045 C 0.53423 0.6605 0.16475 0.0
C1046 C 0.0899 0.79021 0.85119 0.0
C1047 C 0.07056 0.78855 0.81469 0.0
H1048 H 0.0963 0.80349 0.91894 0.0
C1049 C 0.04161 0.79864 0.81987 0.0
H1050 H 0.11233 0.7826 0.84836 0.0
C1051 C 0.03239 0.81066 0.86042 0.0
C1052 C 0.05194 0.81288 0.89662 0.0
H1053 H 0.02613 0.79763 0.79243 0.0
H1054 H 0.01004 0.81854 0.86319 0.0
C1055 C 0.0807 0.80225 0.89167 0.0
loop_
_geom_bond_atom_site_label_1
_geom_bond_atom_site_label_2
_geom_bond_distance
_geom_bond_site_symmetry_2
_ccdc_geom_bond_type
C0 O1 1.160 . S
C0 O7 1.185 . S
O1 C0 1.160 . S
O2 Zn3 1.899 . S
O2 C10 1.284 . S
Zn3 O2 1.899 . S
Zn3 O4 2.032 . S
Zn3 O7 2.086 . S
Zn3 O12 1.977 . S
O4 Zn3 2.032 . S
O4 C8 1.278 . S
C5 O6 1.203 . S
C5 O12 1.267 . S
O6 C5 1.203 . S
O7 C0 1.185 . S
O7 Zn3 2.086 . S
C8 O4 1.278 . S
C8 O9 1.211 . S
O9 C8 1.211 . S
C10 O2 1.284 . S
C10 O11 1.273 . S
O11 C10 1.273 . S
O12 Zn3 1.977 . S
O12 C5 1.267 . S
C13 O14 1.160 1_655 S
C13 O20 1.185 . S
O14 C13 1.160 1_455 S
O15 Zn16 1.899 1_455 S
O15 C23 1.284 . S
Zn16 O15 1.899 1_655 S
Zn16 O17 2.032 . S
Zn16 O20 2.086 . S
Zn16 O25 1.977 . S
O17 Zn16 2.032 . S
O17 C21 1.278 . S
C18 O19 1.203 . S
C18 O25 1.267 . S
O19 C18 1.203 . S
O20 C13 1.185 . S
O20 Zn16 2.086 . S
C21 O17 1.278 . S
C21 O22 1.211 . S
O22 C21 1.211 . S
C23 O15 1.284 . S
C23 O24 1.273 . S
O24 C23 1.273 . S
O25 Zn16 1.977 . S
O25 C18 1.267 . S
C26 O27 1.160 . S
C26 O33 1.185 . S
O27 C26 1.160 . S
O28 Zn29 1.899 . S
O28 C36 1.284 . S
Zn29 O28 1.899 . S
Zn29 O30 2.032 . S
Zn29 O33 2.086 . S
Zn29 O38 1.977 . S
O30 Zn29 2.032 . S
O30 C34 1.278 . S
C31 O32 1.203 . S
C31 O38 1.267 . S
O32 C31 1.203 . S
O33 C26 1.185 . S
O33 Zn29 2.086 . S
C34 O30 1.278 . S
C34 O35 1.211 . S
O35 C34 1.211 . S
C36 O28 1.284 . S
C36 O37 1.273 . S
O37 C36 1.273 . S
O38 Zn29 1.977 . S
O38 C31 1.267 . S
C39 O40 1.160 . S
C39 O46 1.185 . S
O40 C39 1.160 . S
O41 Zn42 1.899 . S
O41 C49 1.284 . S
Zn42 O41 1.899 . S
Zn42 O43 2.032 1_554 S
Zn42 O46 2.086 . S
Zn42 O51 1.977 . S
O43 Zn42 2.032 1_556 S
O43 C47 1.278 . S
C44 O45 1.203 . S
C44 O51 1.267 . S
O45 C44 1.203 . S
O46 C39 1.185 . S
O46 Zn42 2.086 . S
C47 O43 1.278 . S
C47 O48 1.211 . S
O48 C47 1.211 . S
C49 O41 1.284 . S
C49 O50 1.273 . S
O50 C49 1.273 . S
O51 Zn42 1.977 . S
O51 C44 1.267 . S
C52 O53 1.160 . S
C52 O59 1.185 . S
O53 C52 1.160 . S
O54 Zn55 1.899 . S
O54 C62 1.284 . S
Zn55 O54 1.899 . S
Zn55 O56 2.032 . S
Zn55 O59 2.086 . S
Zn55 O64 1.977 . S
O56 Zn55 2.032 . S
O56 C60 1.278 . S
C57 O58 1.203 . S
C57 O64 1.267 . S
O58 C57 1.203 . S
O59 C52 1.185 . S
O59 Zn55 2.086 . S
C60 O56 1.278 . S
C60 O61 1.211 . S
O61 C60 1.211 . S
C62 O54 1.284 . S
C62 O63 1.273 . S
O63 C62 1.273 . S
O64 Zn55 1.977 . S
O64 C57 1.267 . S
C65 O66 1.160 . S
C65 O72 1.185 . S
O66 C65 1.160 . S
O67 Zn68 1.899 . S
O67 C75 1.284 . S
Zn68 O67 1.899 . S
Zn68 O69 2.032 . S
Zn68 O72 2.086 . S
Zn68 O77 1.977 . S
O69 Zn68 2.032 . S
O69 C73 1.278 . S
C70 O71 1.203 . S
C70 O77 1.267 . S
O71 C70 1.203 . S
O72 C65 1.185 . S
O72 Zn68 2.086 . S
C73 O69 1.278 . S
C73 O74 1.211 . S
O74 C73 1.211 . S
C75 O67 1.284 . S
C75 O76 1.273 . S
O76 C75 1.273 . S
O77 Zn68 1.977 . S
O77 C70 1.267 . S
C78 O79 1.160 . S
C78 O85 1.185 . S
O79 C78 1.160 . S
O80 Zn81 1.899 . S
O80 C88 1.284 . S
Zn81 O80 1.899 . S
Zn81 O82 2.032 . S
Zn81 O85 2.086 . S
Zn81 O90 1.977 . S
O82 Zn81 2.032 . S
O82 C86 1.278 . S
C83 O84 1.203 . S
C83 O90 1.267 . S
O84 C83 1.203 . S
O85 C78 1.185 . S
O85 Zn81 2.086 . S
C86 O82 1.278 . S
C86 O87 1.211 . S
O87 C86 1.211 . S
C88 O80 1.284 . S
C88 O89 1.273 . S
O89 C88 1.273 . S
O90 Zn81 1.977 . S
O90 C83 1.267 . S
C91 O92 1.160 1_655 S
C91 O98 1.185 . S
O92 C91 1.160 1_455 S
O93 Zn94 1.899 1_455 S
O93 C101 1.284 . S
Zn94 O93 1.899 1_655 S
Zn94 O95 2.032 1_556 S
Zn94 O98 2.086 . S
Zn94 O103 1.977 . S
O95 Zn94 2.032 1_554 S
O95 C99 1.278 . S
C96 O97 1.203 . S
C96 O103 1.267 . S
O97 C96 1.203 . S
O98 C91 1.185 . S
O98 Zn94 2.086 . S
C99 O95 1.278 . S
C99 O100 1.211 . S
O100 C99 1.211 . S
C101 O93 1.284 . S
C101 O102 1.273 . S
O102 C101 1.273 . S
O103 Zn94 1.977 . S
O103 C96 1.267 . S
C104 O105 1.160 . S
C104 O111 1.185 . S
O105 C104 1.160 . S
O106 Zn107 1.899 . S
O106 C114 1.284 . S
Zn107 O106 1.899 . S
Zn107 O108 2.032 . S
Zn107 O111 2.086 . S
Zn107 O116 1.977 . S
O108 Zn107 2.032 . S
O108 C112 1.278 . S
C109 O110 1.203 . S
C109 O116 1.267 . S
O110 C109 1.203 . S
O111 C104 1.185 . S
O111 Zn107 2.086 . S
C112 O108 1.278 . S
C112 O113 1.211 . S
O113 C112 1.211 . S
C114 O106 1.284 . S
C114 O115 1.273 . S
O115 C114 1.273 . S
O116 Zn107 1.977 . S
O116 C109 1.267 . S
C117 O118 1.160 1_455 S
C117 O124 1.185 . S
O118 C117 1.160 1_655 S
O119 Zn120 1.899 1_655 S
O119 C127 1.284 . S
Zn120 O119 1.899 1_455 S
Zn120 O121 2.032 . S
Zn120 O124 2.086 . S
Zn120 O129 1.977 . S
O121 Zn120 2.032 . S
O121 C125 1.278 . S
C122 O123 1.203 . S
C122 O129 1.267 . S
O123 C122 1.203 . S
O124 C117 1.185 . S
O124 Zn120 2.086 . S
C125 O121 1.278 . S
C125 O126 1.211 . S
O126 C125 1.211 . S
C127 O119 1.284 . S
C127 O128 1.273 . S
O128 C127 1.273 . S
O129 Zn120 1.977 . S
O129 C122 1.267 . S
C130 O131 1.160 . S
C130 O137 1.185 . S
O131 C130 1.160 . S
O132 Zn133 1.899 . S
O132 C140 1.284 . S
Zn133 O132 1.899 . S
Zn133 O134 2.032 . S
Zn133 O137 2.086 . S
Zn133 O142 1.977 . S
O134 Zn133 2.032 . S
O134 C138 1.278 . S
C135 O136 1.203 . S
C135 O142 1.267 . S
O136 C135 1.203 . S
O137 C130 1.185 . S
O137 Zn133 2.086 . S
C138 O134 1.278 . S
C138 O139 1.211 . S
O139 C138 1.211 . S
C140 O132 1.284 . S
C140 O141 1.273 . S
O141 C140 1.273 . S
O142 Zn133 1.977 . S
O142 C135 1.267 . S
C143 O144 1.160 . S
C143 O150 1.185 . S
O144 C143 1.160 . S
O145 Zn146 1.899 . S
O145 C153 1.284 . S
Zn146 O145 1.899 . S
Zn146 O147 2.032 1_556 S
Zn146 O150 2.086 . S
Zn146 O155 1.977 . S
O147 Zn146 2.032 1_554 S
O147 C151 1.278 . S
C148 O149 1.203 . S
C148 O155 1.267 . S
O149 C148 1.203 . S
O150 C143 1.185 . S
O150 Zn146 2.086 . S
C151 O147 1.278 . S
C151 O152 1.211 . S
O152 C151 1.211 . S
C153 O145 1.284 . S
C153 O154 1.273 . S
O154 C153 1.273 . S
O155 Zn146 1.977 . S
O155 C148 1.267 . S
C156 O157 1.160 . S
C156 O163 1.185 . S
O157 C156 1.160 . S
O158 Zn159 1.899 . S
O158 C166 1.284 . S
Zn159 O158 1.899 . S
Zn159 O160 2.032 . S
Zn159 O163 2.086 . S
Zn159 O168 1.977 . S
O160 Zn159 2.032 . S
O160 C164 1.278 . S
C161 O162 1.203 . S
C161 O168 1.267 . S
O162 C161 1.203 . S
O163 C156 1.185 . S
O163 Zn159 2.086 . S
C164 O160 1.278 . S
C164 O165 1.211 . S
O165 C164 1.211 . S
C166 O158 1.284 . S
C166 O167 1.273 . S
O167 C166 1.273 . S
O168 Zn159 1.977 . S
O168 C161 1.267 . S
C169 O170 1.160 . S
C169 O176 1.185 . S
O170 C169 1.160 . S
O171 Zn172 1.899 . S
O171 C179 1.284 . S
Zn172 O171 1.899 . S
Zn172 O173 2.032 . S
Zn172 O176 2.086 . S
Zn172 O181 1.977 . S
O173 Zn172 2.032 . S
O173 C177 1.278 . S
C174 O175 1.203 . S
C174 O181 1.267 . S
O175 C174 1.203 . S
O176 C169 1.185 . S
O176 Zn172 2.086 . S
C177 O173 1.278 . S
C177 O178 1.211 . S
O178 C177 1.211 . S
C179 O171 1.284 . S
C179 O180 1.273 . S
O180 C179 1.273 . S
O181 Zn172 1.977 . S
O181 C174 1.267 . S
C182 O183 1.160 . S
C182 O189 1.185 . S
O183 C182 1.160 . S
O184 Zn185 1.899 . S
O184 C192 1.284 . S
Zn185 O184 1.899 . S
Zn185 O186 2.032 . S
Zn185 O189 2.086 . S
Zn185 O194 1.977 . S
O186 Zn185 2.032 . S
O186 C190 1.278 . S
C187 O188 1.203 . S
C187 O194 1.267 . S
O188 C187 1.203 . S
O189 C182 1.185 . S
O189 Zn185 2.086 . S
C190 O186 1.278 . S
C190 O191 1.211 . S
O191 C190 1.211 . S
C192 O184 1.284 . S
C192 O193 1.273 . S
O193 C192 1.273 . S
O194 Zn185 1.977 . S
O194 C187 1.267 . S
C195 O196 1.160 1_455 S
C195 O202 1.185 . S
O196 C195 1.160 1_655 S
O197 Zn198 1.899 1_655 S
O197 C205 1.284 . S
Zn198 O197 1.899 1_455 S
Zn198 O199 2.032 1_554 S
Zn198 O202 2.086 . S
Zn198 O207 1.977 . S
O199 Zn198 2.032 1_556 S
O199 C203 1.278 . S
C200 O201 1.203 . S
C200 O207 1.267 . S
O201 C200 1.203 . S
O202 C195 1.185 . S
O202 Zn198 2.086 . S
C203 O199 1.278 . S
C203 O204 1.211 . S
O204 C203 1.211 . S
C205 O197 1.284 . S
C205 O206 1.273 . S
O206 C205 1.273 . S
O207 Zn198 1.977 . S
O207 C200 1.267 . S
C208 O209 1.160 . S
C208 O215 1.185 . S
O209 C208 1.160 . S
O210 Zn211 1.899 . S
O210 C218 1.284 . S
Zn211 O210 1.899 . S
Zn211 O212 2.032 . S
Zn211 O215 2.086 . S
Zn211 O220 1.977 . S
O212 Zn211 2.032 . S
O212 C216 1.278 . S
C213 O214 1.203 . S
C213 O220 1.267 . S
O214 C213 1.203 . S
O215 C208 1.185 . S
O215 Zn211 2.086 . S
C216 O212 1.278 . S
C216 O217 1.211 . S
O217 C216 1.211 . S
C218 O210 1.284 . S
C218 O219 1.273 . S
O219 C218 1.273 . S
O220 Zn211 1.977 . S
O220 C213 1.267 . S
C221 O222 1.160 . S
C221 O228 1.185 . S
O222 C221 1.160 . S
O223 Zn224 1.899 . S
O223 C231 1.284 . S
Zn224 O223 1.899 . S
Zn224 O225 2.032 1_554 S
Zn224 O228 2.086 . S
Zn224 O233 1.977 . S
O225 Zn224 2.032 1_556 S
O225 C229 1.278 . S
C226 O227 1.203 . S
C226 O233 1.267 . S
O227 C226 1.203 . S
O228 C221 1.185 . S
O228 Zn224 2.086 . S
C229 O225 1.278 . S
C229 O230 1.211 . S
O230 C229 1.211 . S
C231 O223 1.284 . S
C231 O232 1.273 . S
O232 C231 1.273 . S
O233 Zn224 1.977 . S
O233 C226 1.267 . S
C234 O235 1.160 . S
C234 O241 1.185 . S
O235 C234 1.160 . S
O236 Zn237 1.899 . S
O236 C244 1.284 . S
Zn237 O236 1.899 . S
Zn237 O238 2.032 . S
Zn237 O241 2.086 . S
Zn237 O246 1.977 . S
O238 Zn237 2.032 . S
O238 C242 1.278 . S
C239 O240 1.203 . S
C239 O246 1.267 . S
O240 C239 1.203 . S
O241 C234 1.185 . S
O241 Zn237 2.086 . S
C242 O238 1.278 . S
C242 O243 1.211 . S
O243 C242 1.211 . S
C244 O236 1.284 . S
C244 O245 1.273 . S
O245 C244 1.273 . S
O246 Zn237 1.977 . S
O246 C239 1.267 . S
C247 O248 1.160 1_455 S
C247 O254 1.185 . S
O248 C247 1.160 1_655 S
O249 Zn250 1.899 1_655 S
O249 C257 1.284 . S
Zn250 O249 1.899 1_455 S
Zn250 O251 2.032 . S
Zn250 O254 2.086 . S
Zn250 O259 1.977 . S
O251 Zn250 2.032 . S
O251 C255 1.278 . S
C252 O253 1.203 . S
C252 O259 1.267 . S
O253 C252 1.203 . S
O254 C247 1.185 . S
O254 Zn250 2.086 . S
C255 O251 1.278 . S
C255 O256 1.211 . S
O256 C255 1.211 . S
C257 O249 1.284 . S
C257 O258 1.273 . S
O258 C257 1.273 . S
O259 Zn250 1.977 . S
O259 C252 1.267 . S
C260 O261 1.160 . S
C260 O267 1.185 . S
O261 C260 1.160 . S
O262 Zn263 1.899 . S
O262 C270 1.284 . S
Zn263 O262 1.899 . S
Zn263 O264 2.032 . S
Zn263 O267 2.086 . S
Zn263 O272 1.977 . S
O264 Zn263 2.032 . S
O264 C268 1.278 . S
C265 O266 1.203 . S
C265 O272 1.267 . S
O266 C265 1.203 . S
O267 C260 1.185 . S
O267 Zn263 2.086 . S
C268 O264 1.278 . S
C268 O269 1.211 . S
O269 C268 1.211 . S
C270 O262 1.284 . S
C270 O271 1.273 . S
O271 C270 1.273 . S
O272 Zn263 1.977 . S
O272 C265 1.267 . S
C273 O274 1.160 1_455 S
C273 O280 1.185 . S
O274 C273 1.160 1_655 S
O275 Zn276 1.899 1_655 S
O275 C283 1.284 . S
Zn276 O275 1.899 1_455 S
Zn276 O277 2.032 1_556 S
Zn276 O280 2.086 . S
Zn276 O285 1.977 . S
O277 Zn276 2.032 1_554 S
O277 C281 1.278 . S
C278 O279 1.203 . S
C278 O285 1.267 . S
O279 C278 1.203 . S
O280 C273 1.185 . S
O280 Zn276 2.086 . S
C281 O277 1.278 . S
C281 O282 1.211 . S
O282 C281 1.211 . S
C283 O275 1.284 . S
C283 O284 1.273 . S
O284 C283 1.273 . S
O285 Zn276 1.977 . S
O285 C278 1.267 . S
C286 O287 1.160 . S
C286 O293 1.185 . S
O287 C286 1.160 . S
O288 Zn289 1.899 . S
O288 C296 1.284 . S
Zn289 O288 1.899 . S
Zn289 O290 2.032 . S
Zn289 O293 2.086 . S
Zn289 O298 1.977 . S
O290 Zn289 2.032 . S
O290 C294 1.278 . S
C291 O292 1.203 . S
C291 O298 1.267 . S
O292 C291 1.203 . S
O293 C286 1.185 . S
O293 Zn289 2.086 . S
C294 O290 1.278 . S
C294 O295 1.211 . S
O295 C294 1.211 . S
C296 O288 1.284 . S
C296 O297 1.273 . S
O297 C296 1.273 . S
O298 Zn289 1.977 . S
O298 C291 1.267 . S
C299 O300 1.160 . S
C299 O306 1.185 . S
O300 C299 1.160 . S
O301 Zn302 1.899 . S
O301 C309 1.284 . S
Zn302 O301 1.899 . S
Zn302 O303 2.032 . S
Zn302 O306 2.086 . S
Zn302 O311 1.977 . S
O303 Zn302 2.032 . S
O303 C307 1.278 . S
C304 O305 1.203 . S
C304 O311 1.267 . S
O305 C304 1.203 . S
O306 C299 1.185 . S
O306 Zn302 2.086 . S
C307 O303 1.278 . S
C307 O308 1.211 . S
O308 C307 1.211 . S
C309 O301 1.284 . S
C309 O310 1.273 . S
O310 C309 1.273 . S
O311 Zn302 1.977 . S
O311 C304 1.267 . S
C312 O313 1.160 . S
C312 O319 1.185 . S
O313 C312 1.160 . S
O314 Zn315 1.899 . S
O314 C322 1.284 . S
Zn315 O314 1.899 . S
Zn315 O316 2.032 . S
Zn315 O319 2.086 . S
Zn315 O324 1.977 . S
O316 Zn315 2.032 . S
O316 C320 1.278 . S
C317 O318 1.203 . S
C317 O324 1.267 . S
O318 C317 1.203 . S
O319 C312 1.185 . S
O319 Zn315 2.086 . S
C320 O316 1.278 . S
C320 O321 1.211 . S
O321 C320 1.211 . S
C322 O314 1.284 . S
C322 O323 1.273 . S
O323 C322 1.273 . S
O324 Zn315 1.977 . S
O324 C317 1.267 . S
C325 O326 1.160 . S
C325 O332 1.185 . S
O326 C325 1.160 . S
O327 Zn328 1.899 . S
O327 C335 1.284 . S
Zn328 O327 1.899 . S
Zn328 O329 2.032 1_556 S
Zn328 O332 2.086 . S
Zn328 O337 1.977 . S
O329 Zn328 2.032 1_554 S
O329 C333 1.278 . S
C330 O331 1.203 . S
C330 O337 1.267 . S
O331 C330 1.203 . S
O332 C325 1.185 . S
O332 Zn328 2.086 . S
C333 O329 1.278 . S
C333 O334 1.211 . S
O334 C333 1.211 . S
C335 O327 1.284 . S
C335 O336 1.273 . S
O336 C335 1.273 . S
O337 Zn328 1.977 . S
O337 C330 1.267 . S
C338 O339 1.160 . S
C338 O345 1.185 . S
O339 C338 1.160 . S
O340 Zn341 1.899 . S
O340 C348 1.284 . S
Zn341 O340 1.899 . S
Zn341 O342 2.032 . S
Zn341 O345 2.086 . S
Zn341 O350 1.977 . S
O342 Zn341 2.032 . S
O342 C346 1.278 . S
C343 O344 1.203 . S
C343 O350 1.267 . S
O344 C343 1.203 . S
O345 C338 1.185 . S
O345 Zn341 2.086 . S
C346 O342 1.278 . S
C346 O347 1.211 . S
O347 C346 1.211 . S
C348 O340 1.284 . S
C348 O349 1.273 . S
O349 C348 1.273 . S
O350 Zn341 1.977 . S
O350 C343 1.267 . S
C351 O352 1.160 1_655 S
C351 O358 1.185 . S
O352 C351 1.160 1_455 S
O353 Zn354 1.899 1_455 S
O353 C361 1.284 . S
Zn354 O353 1.899 1_655 S
Zn354 O355 2.032 . S
Zn354 O358 2.086 . S
Zn354 O363 1.977 . S
O355 Zn354 2.032 . S
O355 C359 1.278 . S
C356 O357 1.203 . S
C356 O363 1.267 . S
O357 C356 1.203 . S
O358 C351 1.185 . S
O358 Zn354 2.086 . S
C359 O355 1.278 . S
C359 O360 1.211 . S
O360 C359 1.211 . S
C361 O353 1.284 . S
C361 O362 1.273 . S
O362 C361 1.273 . S
O363 Zn354 1.977 . S
O363 C356 1.267 . S
C364 O365 1.160 . S
C364 O371 1.185 . S
O365 C364 1.160 . S
O366 Zn367 1.899 . S
O366 C374 1.284 . S
Zn367 O366 1.899 . S
Zn367 O368 2.032 . S
Zn367 O371 2.086 . S
Zn367 O376 1.977 . S
O368 Zn367 2.032 . S
O368 C372 1.278 . S
C369 O370 1.203 . S
C369 O376 1.267 . S
O370 C369 1.203 . S
O371 C364 1.185 . S
O371 Zn367 2.086 . S
C372 O368 1.278 . S
C372 O373 1.211 . S
O373 C372 1.211 . S
C374 O366 1.284 . S
C374 O375 1.273 . S
O375 C374 1.273 . S
O376 Zn367 1.977 . S
O376 C369 1.267 . S
C377 O378 1.160 1_655 S
C377 O384 1.185 . S
O378 C377 1.160 1_455 S
O379 Zn380 1.899 1_455 S
O379 C387 1.284 . S
Zn380 O379 1.899 1_655 S
Zn380 O381 2.032 1_554 S
Zn380 O384 2.086 . S
Zn380 O389 1.977 . S
O381 Zn380 2.032 1_556 S
O381 C385 1.278 . S
C382 O383 1.203 . S
C382 O389 1.267 . S
O383 C382 1.203 . S
O384 C377 1.185 . S
O384 Zn380 2.086 . S
C385 O381 1.278 . S
C385 O386 1.211 . S
O386 C385 1.211 . S
C387 O379 1.284 . S
C387 O388 1.273 . S
O388 C387 1.273 . S
O389 Zn380 1.977 . S
O389 C382 1.267 . S
C390 O391 1.160 . S
C390 O397 1.185 . S
O391 C390 1.160 . S
O392 Zn393 1.899 . S
O392 C400 1.284 . S
Zn393 O392 1.899 . S
Zn393 O394 2.032 . S
Zn393 O397 2.086 . S
Zn393 O402 1.977 . S
O394 Zn393 2.032 . S
O394 C398 1.278 . S
C395 O396 1.203 . S
C395 O402 1.267 . S
O396 C395 1.203 . S
O397 C390 1.185 . S
O397 Zn393 2.086 . S
C398 O394 1.278 . S
C398 O399 1.211 . S
O399 C398 1.211 . S
C400 O392 1.284 . S
C400 O401 1.273 . S
O401 C400 1.273 . S
O402 Zn393 1.977 . S
O402 C395 1.267 . S
C403 O404 1.160 . S
C403 O410 1.185 . S
O404 C403 1.160 . S
O405 Zn406 1.899 . S
O405 C413 1.284 . S
Zn406 O405 1.899 . S
Zn406 O407 2.032 . S
Zn406 O410 2.086 . S
Zn406 O415 1.977 . S
O407 Zn406 2.032 . S
O407 C411 1.278 . S
C408 O409 1.203 . S
C408 O415 1.267 . S
O409 C408 1.203 . S
O410 C403 1.185 . S
O410 Zn406 2.086 . S
C411 O407 1.278 . S
C411 O412 1.211 . S
O412 C411 1.211 . S
C413 O405 1.284 . S
C413 O414 1.273 . S
O414 C413 1.273 . S
O415 Zn406 1.977 . S
O415 C408 1.267 . S
C416 C417 1.387 . S
C416 H420 0.950 . S
C416 C425 1.390 . S
C417 C416 1.387 . S
C417 C419 1.387 . S
H418 C425 0.950 . S
C419 C417 1.387 . S
C419 C421 1.390 . S
C419 H423 0.950 . S
H420 C416 0.950 . S
C421 C419 1.390 . S
C421 C422 1.387 . S
C421 H424 0.950 . S
C422 C421 1.387 . S
C422 C425 1.387 . S
H423 C419 0.950 . S
H424 C421 0.950 . S
C425 C416 1.390 . S
C425 H418 0.950 . S
C425 C422 1.387 . S
C426 C427 1.387 . S
C426 H430 0.950 . S
C426 C435 1.390 . S
C427 C426 1.387 . S
C427 C429 1.387 . S
H428 C435 0.950 . S
C429 C427 1.387 . S
C429 C431 1.390 . S
C429 H433 0.950 . S
H430 C426 0.950 . S
C431 C429 1.390 . S
C431 C432 1.387 . S
C431 H434 0.950 . S
C432 C431 1.387 . S
C432 C435 1.387 . S
H433 C429 0.950 . S
H434 C431 0.950 . S
C435 C426 1.390 . S
C435 H428 0.950 . S
C435 C432 1.387 . S
C436 C437 1.387 . S
C436 H440 0.950 . S
C436 C445 1.390 . S
C437 C436 1.387 . S
C437 C439 1.387 . S
H438 C445 0.950 . S
C439 C437 1.387 . S
C439 C441 1.390 . S
C439 H443 0.950 . S
H440 C436 0.950 . S
C441 C439 1.390 . S
C441 C442 1.387 . S
C441 H444 0.950 . S
C442 C441 1.387 . S
C442 C445 1.387 . S
H443 C439 0.950 . S
H444 C441 0.950 . S
C445 C436 1.390 . S
C445 H438 0.950 . S
C445 C442 1.387 . S
C446 C447 1.387 . S
C446 H450 0.950 . S
C446 C455 1.390 . S
C447 C446 1.387 . S
C447 C449 1.387 . S
H448 C455 0.950 . S
C449 C447 1.387 . S
C449 C451 1.390 . S
C449 H453 0.950 . S
H450 C446 0.950 . S
C451 C449 1.390 . S
C451 C452 1.387 . S
C451 H454 0.950 . S
C452 C451 1.387 . S
C452 C455 1.387 . S
H453 C449 0.950 . S
H454 C451 0.950 . S
C455 C446 1.390 . S
C455 H448 0.950 . S
C455 C452 1.387 . S
C456 C457 1.387 . S
C456 H460 0.950 . S
C456 C465 1.390 . S
C457 C456 1.387 . S
C457 C459 1.387 . S
H458 C465 0.950 . S
C459 C457 1.387 . S
C459 C461 1.390 . S
C459 H463 0.950 . S
H460 C456 0.950 . S
C461 C459 1.390 . S
C461 C462 1.387 . S
C461 H464 0.950 . S
C462 C461 1.387 . S
C462 C465 1.387 . S
H463 C459 0.950 . S
H464 C461 0.950 . S
C465 C456 1.390 . S
C465 H458 0.950 . S
C465 C462 1.387 . S
C466 C467 1.387 . S
C466 H470 0.950 . S
C466 C475 1.390 . S
C467 C466 1.387 . S
C467 C469 1.387 . S
H468 C475 0.950 . S
C469 C467 1.387 . S
C469 C471 1.390 . S
C469 H473 0.950 . S
H470 C466 0.950 . S
C471 C469 1.390 . S
C471 C472 1.387 . S
C471 H474 0.950 . S
C472 C471 1.387 . S
C472 C475 1.387 . S
H473 C469 0.950 . S
H474 C471 0.950 . S
C475 C466 1.390 . S
C475 H468 0.950 . S
C475 C472 1.387 . S
C476 C477 1.387 . S
C476 H480 0.950 . S
C476 C485 1.390 . S
C477 C476 1.387 . S
C477 C479 1.387 . S
H478 C485 0.950 . S
C479 C477 1.387 . S
C479 C481 1.390 . S
C479 H483 0.950 . S
H480 C476 0.950 . S
C481 C479 1.390 . S
C481 C482 1.387 . S
C481 H484 0.950 . S
C482 C481 1.387 . S
C482 C485 1.387 . S
H483 C479 0.950 . S
H484 C481 0.950 . S
C485 C476 1.390 . S
C485 H478 0.950 . S
C485 C482 1.387 . S
C486 C487 1.387 . S
C486 H490 0.950 . S
C486 C495 1.390 . S
C487 C486 1.387 . S
C487 C489 1.387 . S
H488 C495 0.950 . S
C489 C487 1.387 . S
C489 C491 1.390 . S
C489 H493 0.950 . S
H490 C486 0.950 . S
C491 C489 1.390 . S
C491 C492 1.387 . S
C491 H494 0.950 . S
C492 C491 1.387 . S
C492 C495 1.387 . S
H493 C489 0.950 . S
H494 C491 0.950 . S
C495 C486 1.390 . S
C495 H488 0.950 . S
C495 C492 1.387 . S
C496 C497 1.387 . S
C496 H500 0.950 . S
C496 C505 1.390 . S
C497 C496 1.387 . S
C497 C499 1.387 . S
H498 C505 0.950 . S
C499 C497 1.387 . S
C499 C501 1.390 . S
C499 H503 0.950 . S
H500 C496 0.950 . S
C501 C499 1.390 . S
C501 C502 1.387 . S
C501 H504 0.950 . S
C502 C501 1.387 . S
C502 C505 1.387 . S
H503 C499 0.950 . S
H504 C501 0.950 . S
C505 C496 1.390 . S
C505 H498 0.950 . S
C505 C502 1.387 . S
C506 C507 1.387 . S
C506 H510 0.950 . S
C506 C515 1.390 . S
C507 C506 1.387 . S
C507 C509 1.387 . S
H508 C515 0.950 . S
C509 C507 1.387 . S
C509 C511 1.390 . S
C509 H513 0.950 . S
H510 C506 0.950 . S
C511 C509 1.390 . S
C511 C512 1.387 . S
C511 H514 0.950 . S
C512 C511 1.387 . S
C512 C515 1.387 . S
H513 C509 0.950 . S
H514 C511 0.950 . S
C515 C506 1.390 . S
C515 H508 0.950 . S
C515 C512 1.387 . S
C516 C517 1.387 . S
C516 H520 0.950 . S
C516 C525 1.390 . S
C517 C516 1.387 . S
C517 C519 1.387 . S
H518 C525 0.950 . S
C519 C517 1.387 . S
C519 C521 1.390 . S
C519 H523 0.950 . S
H520 C516 0.950 . S
C521 C519 1.390 . S
C521 C522 1.387 . S
C521 H524 0.950 . S
C522 C521 1.387 . S
C522 C525 1.387 . S
H523 C519 0.950 . S
H524 C521 0.950 . S
C525 C516 1.390 . S
C525 H518 0.950 . S
C525 C522 1.387 . S
C526 C527 1.387 . S
C526 H530 0.950 . S
C526 C535 1.390 . S
C527 C526 1.387 . S
C527 C529 1.387 . S
H528 C535 0.950 . S
C529 C527 1.387 . S
C529 C531 1.390 . S
C529 H533 0.950 . S
H530 C526 0.950 . S
C531 C529 1.390 . S
C531 C532 1.387 . S
C531 H534 0.950 . S
C532 C531 1.387 . S
C532 C535 1.387 . S
H533 C529 0.950 . S
H534 C531 0.950 . S
C535 C526 1.390 . S
C535 H528 0.950 . S
C535 C532 1.387 . S
C536 C537 1.387 . S
C536 H540 0.950 . S
C536 C545 1.390 . S
C537 C536 1.387 . S
C537 C539 1.387 . S
H538 C545 0.950 . S
C539 C537 1.387 . S
C539 C541 1.390 . S
C539 H543 0.950 . S
H540 C536 0.950 . S
C541 C539 1.390 . S
C541 C542 1.387 . S
C541 H544 0.950 . S
C542 C541 1.387 . S
C542 C545 1.387 . S
H543 C539 0.950 . S
H544 C541 0.950 . S
C545 C536 1.390 . S
C545 H538 0.950 . S
C545 C542 1.387 . S
C546 C547 1.387 . S
C546 H550 0.950 . S
C546 C555 1.390 . S
C547 C546 1.387 . S
C547 C549 1.387 . S
H548 C555 0.950 . S
C549 C547 1.387 . S
C549 C551 1.390 . S
C549 H553 0.950 . S
H550 C546 0.950 . S
C551 C549 1.390 . S
C551 C552 1.387 . S
C551 H554 0.950 . S
C552 C551 1.387 . S
C552 C555 1.387 . S
H553 C549 0.950 . S
H554 C551 0.950 . S
C555 C546 1.390 . S
C555 H548 0.950 . S
C555 C552 1.387 . S
C556 C557 1.387 . S
C556 H560 0.950 . S
C556 C565 1.390 . S
C557 C556 1.387 . S
C557 C559 1.387 . S
H558 C565 0.950 . S
C559 C557 1.387 . S
C559 C561 1.390 . S
C559 H563 0.950 . S
H560 C556 0.950 . S
C561 C559 1.390 . S
C561 C562 1.387 . S
C561 H564 0.950 . S
C562 C561 1.387 . S
C562 C565 1.387 . S
H563 C559 0.950 . S
H564 C561 0.950 . S
C565 C556 1.390 . S
C565 H558 0.950 . S
C565 C562 1.387 . S
C566 C567 1.387 . S
C566 H570 0.950 . S
C566 C575 1.390 . S
C567 C566 1.387 . S
C567 C569 1.387 . S
H568 C575 0.950 . S
C569 C567 1.387 . S
C569 C571 1.390 . S
C569 H573 0.950 . S
H570 C566 0.950 . S
C571 C569 1.390 . S
C571 C572 1.387 . S
C571 H574 0.950 . S
C572 C571 1.387 . S
C572 C575 1.387 . S
H573 C569 0.950 . S
H574 C571 0.950 . S
C575 C566 1.390 . S
C575 H568 0.950 . S
C575 C572 1.387 . S
C576 C577 1.387 . S
C576 H580 0.950 . S
C576 C585 1.390 . S
C577 C576 1.387 . S
C577 C579 1.387 . S
H578 C585 0.950 . S
C579 C577 1.387 . S
C579 C581 1.390 . S
C579 H583 0.950 . S
H580 C576 0.950 . S
C581 C579 1.390 . S
C581 C582 1.387 . S
C581 H584 0.950 . S
C582 C581 1.387 . S
C582 C585 1.387 . S
H583 C579 0.950 . S
H584 C581 0.950 . S
C585 C576 1.390 . S
C585 H578 0.950 . S
C585 C582 1.387 . S
C586 C587 1.387 . S
C586 H590 0.950 . S
C586 C595 1.390 . S
C587 C586 1.387 . S
C587 C589 1.387 . S
H588 C595 0.950 . S
C589 C587 1.387 . S
C589 C591 1.390 . S
C589 H593 0.950 . S
H590 C586 0.950 . S
C591 C589 1.390 . S
C591 C592 1.387 . S
C591 H594 0.950 . S
C592 C591 1.387 . S
C592 C595 1.387 . S
H593 C589 0.950 . S
H594 C591 0.950 . S
C595 C586 1.390 . S
C595 H588 0.950 . S
C595 C592 1.387 . S
C596 C597 1.387 . S
C596 H600 0.950 . S
C596 C605 1.390 . S
C597 C596 1.387 . S
C597 C599 1.387 . S
H598 C605 0.950 . S
C599 C597 1.387 . S
C599 C601 1.390 . S
C599 H603 0.950 . S
H600 C596 0.950 . S
C601 C599 1.390 . S
C601 C602 1.387 . S
C601 H604 0.950 . S
C602 C601 1.387 . S
C602 C605 1.387 . S
H603 C599 0.950 . S
H604 C601 0.950 . S
C605 C596 1.390 . S
C605 H598 0.950 . S
C605 C602 1.387 . S
C606 C607 1.387 . S
C606 H610 0.950 . S
C606 C615 1.390 . S
C607 C606 1.387 . S
C607 C609 1.387 . S
H608 C615 0.950 . S
C609 C607 1.387 . S
C609 C611 1.390 . S
C609 H613 0.950 . S
H610 C606 0.950 . S
C611 C609 1.390 . S
C611 C612 1.387 . S
C611 H614 0.950 . S
C612 C611 1.387 . S
C612 C615 1.387 . S
H613 C609 0.950 . S
H614 C611 0.950 . S
C615 C606 1.390 . S
C615 H608 0.950 . S
C615 C612 1.387 . S
C616 C617 1.387 . S
C616 H620 0.950 . S
C616 C625 1.390 . S
C617 C616 1.387 . S
C617 C619 1.387 . S
H618 C625 0.950 . S
C619 C617 1.387 . S
C619 C621 1.390 . S
C619 H623 0.950 . S
H620 C616 0.950 . S
C621 C619 1.390 . S
C621 C622 1.387 . S
C621 H624 0.950 . S
C622 C621 1.387 . S
C622 C625 1.387 . S
H623 C619 0.950 . S
H624 C621 0.950 . S
C625 C616 1.390 . S
C625 H618 0.950 . S
C625 C622 1.387 . S
C626 C627 1.387 . S
C626 H630 0.950 . S
C626 C635 1.390 . S
C627 C626 1.387 . S
C627 C629 1.387 . S
H628 C635 0.950 . S
C629 C627 1.387 . S
C629 C631 1.390 . S
C629 H633 0.950 . S
H630 C626 0.950 . S
C631 C629 1.390 . S
C631 C632 1.387 . S
C631 H634 0.950 . S
C632 C631 1.387 . S
C632 C635 1.387 . S
H633 C629 0.950 . S
H634 C631 0.950 . S
C635 C626 1.390 . S
C635 H628 0.950 . S
C635 C632 1.387 . S
C636 C637 1.387 . S
C636 H640 0.950 . S
C636 C645 1.390 . S
C637 C636 1.387 . S
C637 C639 1.387 . S
H638 C645 0.950 . S
C639 C637 1.387 . S
C639 C641 1.390 . S
C639 H643 0.950 . S
H640 C636 0.950 . S
C641 C639 1.390 . S
C641 C642 1.387 . S
C641 H644 0.950 . S
C642 C641 1.387 . S
C642 C645 1.387 . S
H643 C639 0.950 . S
H644 C641 0.950 . S
C645 C636 1.390 . S
C645 H638 0.950 . S
C645 C642 1.387 . S
C646 C647 1.387 . S
C646 H650 0.950 . S
C646 C655 1.390 . S
C647 C646 1.387 . S
C647 C649 1.387 . S
H648 C655 0.950 . S
C649 C647 1.387 . S
C649 C651 1.390 . S
C649 H653 0.950 . S
H650 C646 0.950 . S
C651 C649 1.390 . S
C651 C652 1.387 . S
C651 H654 0.950 . S
C652 C651 1.387 . S
C652 C655 1.387 . S
H653 C649 0.950 . S
H654 C651 0.950 . S
C655 C646 1.390 . S
C655 H648 0.950 . S
C655 C652 1.387 . S
C656 C657 1.387 . S
C656 H660 0.950 . S
C656 C665 1.390 . S
C657 C656 1.387 . S
C657 C659 1.387 . S
H658 C665 0.950 . S
C659 C657 1.387 . S
C659 C661 1.390 . S
C659 H663 0.950 . S
H660 C656 0.950 . S
C661 C659 1.390 . S
C661 C662 1.387 . S
C661 H664 0.950 . S
C662 C661 1.387 . S
C662 C665 1.387 . S
H663 C659 0.950 . S
H664 C661 0.950 . S
C665 C656 1.390 . S
C665 H658 0.950 . S
C665 C662 1.387 . S
C666 C667 1.387 . S
C666 H670 0.950 . S
C666 C675 1.390 . S
C667 C666 1.387 . S
C667 C669 1.387 . S
H668 C675 0.950 . S
C669 C667 1.387 . S
C669 C671 1.390 . S
C669 H673 0.950 . S
H670 C666 0.950 . S
C671 C669 1.390 . S
C671 C672 1.387 . S
C671 H674 0.950 . S
C672 C671 1.387 . S
C672 C675 1.387 . S
H673 C669 0.950 . S
H674 C671 0.950 . S
C675 C666 1.390 . S
C675 H668 0.950 . S
C675 C672 1.387 . S
C676 C677 1.387 . S
C676 H680 0.950 . S
C676 C685 1.390 . S
C677 C676 1.387 . S
C677 C679 1.387 . S
H678 C685 0.950 . S
C679 C677 1.387 . S
C679 C681 1.390 . S
C679 H683 0.950 . S
H680 C676 0.950 . S
C681 C679 1.390 . S
C681 C682 1.387 . S
C681 H684 0.950 . S
C682 C681 1.387 . S
C682 C685 1.387 . S
H683 C679 0.950 . S
H684 C681 0.950 . S
C685 C676 1.390 . S
C685 H678 0.950 . S
C685 C682 1.387 . S
C686 C687 1.387 . S
C686 H690 0.950 . S
C686 C695 1.390 . S
C687 C686 1.387 . S
C687 C689 1.387 . S
H688 C695 0.950 . S
C689 C687 1.387 . S
C689 C691 1.390 . S
C689 H693 0.950 . S
H690 C686 0.950 . S
C691 C689 1.390 . S
C691 C692 1.387 . S
C691 H694 0.950 . S
C692 C691 1.387 . S
C692 C695 1.387 . S
H693 C689 0.950 . S
H694 C691 0.950 . S
C695 C686 1.390 . S
C695 H688 0.950 . S
C695 C692 1.387 . S
C696 C697 1.387 . S
C696 H700 0.950 . S
C696 C705 1.390 . S
C697 C696 1.387 . S
C697 C699 1.387 . S
H698 C705 0.950 . S
C699 C697 1.387 . S
C699 C701 1.390 . S
C699 H703 0.950 . S
H700 C696 0.950 . S
C701 C699 1.390 . S
C701 C702 1.387 . S
C701 H704 0.950 . S
C702 C701 1.387 . S
C702 C705 1.387 . S
H703 C699 0.950 . S
H704 C701 0.950 . S
C705 C696 1.390 . S
C705 H698 0.950 . S
C705 C702 1.387 . S
C706 C707 1.387 . S
C706 H710 0.950 . S
C706 C715 1.390 . S
C707 C706 1.387 . S
C707 C709 1.387 . S
H708 C715 0.950 . S
C709 C707 1.387 . S
C709 C711 1.390 . S
C709 H713 0.950 . S
H710 C706 0.950 . S
C711 C709 1.390 . S
C711 C712 1.387 . S
C711 H714 0.950 . S
C712 C711 1.387 . S
C712 C715 1.387 . S
H713 C709 0.950 . S
H714 C711 0.950 . S
C715 C706 1.390 . S
C715 H708 0.950 . S
C715 C712 1.387 . S
C716 C717 1.387 . S
C716 H720 0.950 . S
C716 C725 1.390 . S
C717 C716 1.387 . S
C717 C719 1.387 . S
H718 C725 0.950 . S
C719 C717 1.387 . S
C719 C721 1.390 . S
C719 H723 0.950 . S
H720 C716 0.950 . S
C721 C719 1.390 . S
C721 C722 1.387 . S
C721 H724 0.950 . S
C722 C721 1.387 . S
C722 C725 1.387 . S
H723 C719 0.950 . S
H724 C721 0.950 . S
C725 C716 1.390 . S
C725 H718 0.950 . S
C725 C722 1.387 . S
C726 C727 1.387 . S
C726 H730 0.950 . S
C726 C735 1.390 . S
C727 C726 1.387 . S
C727 C729 1.387 . S
H728 C735 0.950 . S
C729 C727 1.387 . S
C729 C731 1.390 . S
C729 H733 0.950 . S
H730 C726 0.950 . S
C731 C729 1.390 . S
C731 C732 1.387 . S
C731 H734 0.950 . S
C732 C731 1.387 . S
C732 C735 1.387 . S
H733 C729 0.950 . S
H734 C731 0.950 . S
C735 C726 1.390 . S
C735 H728 0.950 . S
C735 C732 1.387 . S
C736 C737 1.387 . S
C736 H740 0.950 . S
C736 C745 1.390 . S
C737 C736 1.387 . S
C737 C739 1.387 . S
H738 C745 0.950 . S
C739 C737 1.387 . S
C739 C741 1.390 . S
C739 H743 0.950 . S
H740 C736 0.950 . S
C741 C739 1.390 . S
C741 C742 1.387 . S
C741 H744 0.950 . S
C742 C741 1.387 . S
C742 C745 1.387 . S
H743 C739 0.950 . S
H744 C741 0.950 . S
C745 C736 1.390 . S
C745 H738 0.950 . S
C745 C742 1.387 . S
C746 C747 1.387 . S
C746 H750 0.950 . S
C746 C755 1.390 1_665 S
C747 C746 1.387 . S
C747 C749 1.387 . S
H748 C755 0.950 . S
C749 C747 1.387 . S
C749 C751 1.390 1_665 S
C749 H753 0.950 . S
H750 C746 0.950 . S
C751 C749 1.390 1_445 S
C751 C752 1.387 . S
C751 H754 0.950 . S
C752 C751 1.387 . S
C752 C755 1.387 . S
H753 C749 0.950 . S
H754 C751 0.950 . S
C755 C746 1.390 1_445 S
C755 H748 0.950 . S
C755 C752 1.387 . S
C756 C757 1.387 . S
C756 H760 0.950 . S
C756 C765 1.390 . S
C757 C756 1.387 . S
C757 C759 1.387 . S
H758 C765 0.950 . S
C759 C757 1.387 . S
C759 C761 1.390 . S
C759 H763 0.950 . S
H760 C756 0.950 . S
C761 C759 1.390 . S
C761 C762 1.387 . S
C761 H764 0.950 . S
C762 C761 1.387 . S
C762 C765 1.387 . S
H763 C759 0.950 . S
H764 C761 0.950 . S
C765 C756 1.390 . S
C765 H758 0.950 . S
C765 C762 1.387 . S
C766 C767 1.387 1_556 S
C766 H770 0.950 . S
C766 C775 1.390 1_545 S
C767 C766 1.387 1_554 S
C767 C769 1.387 . S
H768 C775 0.950 . S
C769 C767 1.387 . S
C769 C771 1.390 1_545 S
C769 H773 0.950 . S
H770 C766 0.950 . S
C771 C769 1.390 1_565 S
C771 C772 1.387 1_554 S
C771 H774 0.950 . S
C772 C771 1.387 1_556 S
C772 C775 1.387 . S
H773 C769 0.950 . S
H774 C771 0.950 . S
C775 C766 1.390 1_565 S
C775 H768 0.950 . S
C775 C772 1.387 . S
C776 C777 1.387 . S
C776 H780 0.950 . S
C776 C785 1.390 . S
C777 C776 1.387 . S
C777 C779 1.387 . S
H778 C785 0.950 . S
C779 C777 1.387 . S
C779 C781 1.390 . S
C779 H783 0.950 . S
H780 C776 0.950 . S
C781 C779 1.390 . S
C781 C782 1.387 . S
C781 H784 0.950 . S
C782 C781 1.387 . S
C782 C785 1.387 . S
H783 C779 0.950 . S
H784 C781 0.950 . S
C785 C776 1.390 . S
C785 H778 0.950 . S
C785 C782 1.387 . S
C786 C787 1.387 . S
C786 H790 0.950 . S
C786 C795 1.390 1_565 S
C787 C786 1.387 . S
C787 C789 1.387 . S
H788 C795 0.950 . S
C789 C787 1.387 . S
C789 C791 1.390 1_565 S
C789 H793 0.950 . S
H790 C786 0.950 . S
C791 C789 1.390 1_545 S
C791 C792 1.387 . S
C791 H794 0.950 . S
C792 C791 1.387 . S
C792 C795 1.387 . S
H793 C789 0.950 . S
H794 C791 0.950 . S
C795 C786 1.390 1_545 S
C795 H788 0.950 . S
C795 C792 1.387 . S
C796 C797 1.387 . S
C796 H800 0.950 . S
C796 C805 1.390 . S
C797 C796 1.387 . S
C797 C799 1.387 . S
H798 C805 0.950 . S
C799 C797 1.387 . S
C799 C801 1.390 . S
C799 H803 0.950 . S
H800 C796 0.950 . S
C801 C799 1.390 . S
C801 C802 1.387 . S
C801 H804 0.950 . S
C802 C801 1.387 . S
C802 C805 1.387 . S
H803 C799 0.950 . S
H804 C801 0.950 . S
C805 C796 1.390 . S
C805 H798 0.950 . S
C805 C802 1.387 . S
C806 C807 1.387 1_554 S
C806 H810 0.950 . S
C806 C815 1.390 1_545 S
C807 C806 1.387 1_556 S
C807 C809 1.387 1_655 S
H808 C815 0.950 . S
C809 C807 1.387 1_455 S
C809 C811 1.390 1_545 S
C809 H813 0.950 . S
H810 C806 0.950 . S
C811 C809 1.390 1_565 S
C811 C812 1.387 1_556 S
C811 H814 0.950 . S
C812 C811 1.387 1_554 S
C812 C815 1.387 1_455 S
H813 C809 0.950 . S
H814 C811 0.950 . S
C815 C806 1.390 1_565 S
C815 H808 0.950 . S
C815 C812 1.387 1_655 S
C816 C817 1.387 . S
C816 H820 0.950 . S
C816 C825 1.390 . S
C817 C816 1.387 . S
C817 C819 1.387 . S
H818 C825 0.950 . S
C819 C817 1.387 . S
C819 C821 1.390 . S
C819 H823 0.950 . S
H820 C816 0.950 . S
C821 C819 1.390 . S
C821 C822 1.387 . S
C821 H824 0.950 . S
C822 C821 1.387 . S
C822 C825 1.387 . S
H823 C819 0.950 . S
H824 C821 0.950 . S
C825 C816 1.390 . S
C825 H818 0.950 . S
C825 C822 1.387 . S
C826 C827 1.387 . S
C826 H830 0.950 . S
C826 C835 1.390 . S
C827 C826 1.387 . S
C827 C829 1.387 . S
H828 C835 0.950 . S
C829 C827 1.387 . S
C829 C831 1.390 . S
C829 H833 0.950 . S
H830 C826 0.950 . S
C831 C829 1.390 . S
C831 C832 1.387 . S
C831 H834 0.950 . S
C832 C831 1.387 . S
C832 C835 1.387 . S
H833 C829 0.950 . S
H834 C831 0.950 . S
C835 C826 1.390 . S
C835 H828 0.950 . S
C835 C832 1.387 . S
C836 C837 1.387 . S
C836 H840 0.950 . S
C836 C845 1.390 . S
C837 C836 1.387 . S
C837 C839 1.387 . S
H838 C845 0.950 . S
C839 C837 1.387 . S
C839 C841 1.390 . S
C839 H843 0.950 . S
H840 C836 0.950 . S
C841 C839 1.390 . S
C841 C842 1.387 . S
C841 H844 0.950 . S
C842 C841 1.387 . S
C842 C845 1.387 . S
H843 C839 0.950 . S
H844 C841 0.950 . S
C845 C836 1.390 . S
C845 H838 0.950 . S
C845 C842 1.387 . S
C846 C847 1.387 . S
C846 H850 0.950 . S
C846 C855 1.390 . S
C847 C846 1.387 . S
C847 C849 1.387 . S
H848 C855 0.950 . S
C849 C847 1.387 . S
C849 C851 1.390 . S
C849 H853 0.950 . S
H850 C846 0.950 . S
C851 C849 1.390 . S
C851 C852 1.387 . S
C851 H854 0.950 . S
C852 C851 1.387 . S
C852 C855 1.387 . S
H853 C849 0.950 . S
H854 C851 0.950 . S
C855 C846 1.390 . S
C855 H848 0.950 . S
C855 C852 1.387 . S
C856 C857 1.387 . S
C856 H860 0.950 . S
C856 C865 1.390 . S
C857 C856 1.387 . S
C857 C859 1.387 1_554 S
H858 C865 0.950 . S
C859 C857 1.387 1_556 S
C859 C861 1.390 . S
C859 H863 0.950 . S
H860 C856 0.950 . S
C861 C859 1.390 . S
C861 C862 1.387 . S
C861 H864 0.950 . S
C862 C861 1.387 . S
C862 C865 1.387 1_556 S
H863 C859 0.950 . S
H864 C861 0.950 . S
C865 C856 1.390 . S
C865 H858 0.950 . S
C865 C862 1.387 1_554 S
C866 C867 1.387 . S
C866 H870 0.950 . S
C866 C875 1.390 1_655 S
C867 C866 1.387 . S
C867 C869 1.387 . S
H868 C875 0.950 . S
C869 C867 1.387 . S
C869 C871 1.390 1_655 S
C869 H873 0.950 . S
H870 C866 0.950 . S
C871 C869 1.390 1_455 S
C871 C872 1.387 . S
C871 H874 0.950 . S
C872 C871 1.387 . S
C872 C875 1.387 . S
H873 C869 0.950 . S
H874 C871 0.950 . S
C875 C866 1.390 1_455 S
C875 H868 0.950 . S
C875 C872 1.387 . S
C876 C877 1.387 . S
C876 H880 0.950 . S
C876 C885 1.390 . S
C877 C876 1.387 . S
C877 C879 1.387 1_456 S
H878 C885 0.950 . S
C879 C877 1.387 1_654 S
C879 C881 1.390 . S
C879 H883 0.950 . S
H880 C876 0.950 . S
C881 C879 1.390 . S
C881 C882 1.387 . S
C881 H884 0.950 . S
C882 C881 1.387 . S
C882 C885 1.387 1_654 S
H883 C879 0.950 . S
H884 C881 0.950 . S
C885 C876 1.390 . S
C885 H878 0.950 . S
C885 C882 1.387 1_456 S
C886 C887 1.387 . S
C886 H890 0.950 . S
C886 C895 1.390 . S
C887 C886 1.387 . S
C887 C889 1.387 . S
H888 C895 0.950 . S
C889 C887 1.387 . S
C889 C891 1.390 . S
C889 H893 0.950 . S
H890 C886 0.950 . S
C891 C889 1.390 . S
C891 C892 1.387 . S
C891 H894 0.950 . S
C892 C891 1.387 . S
C892 C895 1.387 . S
H893 C889 0.950 . S
H894 C891 0.950 . S
C895 C886 1.390 . S
C895 H888 0.950 . S
C895 C892 1.387 . S
C896 C897 1.387 . S
C896 H900 0.950 . S
C896 C905 1.390 . S
C897 C896 1.387 . S
C897 C899 1.387 . S
H898 C905 0.950 . S
C899 C897 1.387 . S
C899 C901 1.390 . S
C899 H903 0.950 . S
H900 C896 0.950 . S
C901 C899 1.390 . S
C901 C902 1.387 . S
C901 H904 0.950 . S
C902 C901 1.387 . S
C902 C905 1.387 . S
H903 C899 0.950 . S
H904 C901 0.950 . S
C905 C896 1.390 . S
C905 H898 0.950 . S
C905 C902 1.387 . S
C906 C907 1.387 . S
C906 H910 0.950 . S
C906 C915 1.390 . S
C907 C906 1.387 . S
C907 C909 1.387 . S
H908 C915 0.950 . S
C909 C907 1.387 . S
C909 C911 1.390 . S
C909 H913 0.950 . S
H910 C906 0.950 . S
C911 C909 1.390 . S
C911 C912 1.387 . S
C911 H914 0.950 . S
C912 C911 1.387 . S
C912 C915 1.387 . S
H913 C909 0.950 . S
H914 C911 0.950 . S
C915 C906 1.390 . S
C915 H908 0.950 . S
C915 C912 1.387 . S
C916 C917 1.387 . S
C916 H920 0.950 . S
C916 C925 1.390 . S
C917 C916 1.387 . S
C917 C919 1.387 . S
H918 C925 0.950 . S
C919 C917 1.387 . S
C919 C921 1.390 . S
C919 H923 0.950 . S
H920 C916 0.950 . S
C921 C919 1.390 . S
C921 C922 1.387 . S
C921 H924 0.950 . S
C922 C921 1.387 . S
C922 C925 1.387 . S
H923 C919 0.950 . S
H924 C921 0.950 . S
C925 C916 1.390 . S
C925 H918 0.950 . S
C925 C922 1.387 . S
C926 C927 1.387 . S
C926 H930 0.950 . S
C926 C935 1.390 . S
C927 C926 1.387 . S
C927 C929 1.387 . S
H928 C935 0.950 . S
C929 C927 1.387 . S
C929 C931 1.390 . S
C929 H933 0.950 . S
H930 C926 0.950 . S
C931 C929 1.390 . S
C931 C932 1.387 . S
C931 H934 0.950 . S
C932 C931 1.387 . S
C932 C935 1.387 . S
H933 C929 0.950 . S
H934 C931 0.950 . S
C935 C926 1.390 . S
C935 H928 0.950 . S
C935 C932 1.387 . S
C936 C937 1.387 . S
C936 H940 0.950 . S
C936 C945 1.390 . S
C937 C936 1.387 . S
C937 C939 1.387 . S
H938 C945 0.950 . S
C939 C937 1.387 . S
C939 C941 1.390 . S
C939 H943 0.950 . S
H940 C936 0.950 . S
C941 C939 1.390 . S
C941 C942 1.387 . S
C941 H944 0.950 . S
C942 C941 1.387 . S
C942 C945 1.387 . S
H943 C939 0.950 . S
H944 C941 0.950 . S
C945 C936 1.390 . S
C945 H938 0.950 . S
C945 C942 1.387 . S
C946 C947 1.387 . S
C946 H950 0.950 . S
C946 C955 1.390 . S
C947 C946 1.387 . S
C947 C949 1.387 . S
H948 C955 0.950 . S
C949 C947 1.387 . S
C949 C951 1.390 . S
C949 H953 0.950 . S
H950 C946 0.950 . S
C951 C949 1.390 . S
C951 C952 1.387 . S
C951 H954 0.950 . S
C952 C951 1.387 . S
C952 C955 1.387 . S
H953 C949 0.950 . S
H954 C951 0.950 . S
C955 C946 1.390 . S
C955 H948 0.950 . S
C955 C952 1.387 . S
C956 C957 1.387 . S
C956 H960 0.950 . S
C956 C965 1.390 . S
C957 C956 1.387 . S
C957 C959 1.387 . S
H958 C965 0.950 . S
C959 C957 1.387 . S
C959 C961 1.390 . S
C959 H963 0.950 . S
H960 C956 0.950 . S
C961 C959 1.390 . S
C961 C962 1.387 . S
C961 H964 0.950 . S
C962 C961 1.387 . S
C962 C965 1.387 . S
H963 C959 0.950 . S
H964 C961 0.950 . S
C965 C956 1.390 . S
C965 H958 0.950 . S
C965 C962 1.387 . S
C966 C967 1.387 . S
C966 H970 0.950 . S
C966 C975 1.390 . S
C967 C966 1.387 . S
C967 C969 1.387 . S
H968 C975 0.950 . S
C969 C967 1.387 . S
C969 C971 1.390 . S
C969 H973 0.950 . S
H970 C966 0.950 . S
C971 C969 1.390 . S
C971 C972 1.387 . S
C971 H974 0.950 . S
C972 C971 1.387 . S
C972 C975 1.387 . S
H973 C969 0.950 . S
H974 C971 0.950 . S
C975 C966 1.390 . S
C975 H968 0.950 . S
C975 C972 1.387 . S
C976 C977 1.387 . S
C976 H980 0.950 . S
C976 C985 1.390 . S
C977 C976 1.387 . S
C977 C979 1.387 . S
H978 C985 0.950 . S
C979 C977 1.387 . S
C979 C981 1.390 . S
C979 H983 0.950 . S
H980 C976 0.950 . S
C981 C979 1.390 . S
C981 C982 1.387 . S
C981 H984 0.950 . S
C982 C981 1.387 . S
C982 C985 1.387 . S
H983 C979 0.950 . S
H984 C981 0.950 . S
C985 C976 1.390 . S
C985 H978 0.950 . S
C985 C982 1.387 . S
C986 C987 1.387 . S
C986 H990 0.950 . S
C986 C995 1.390 . S
C987 C986 1.387 . S
C987 C989 1.387 . S
H988 C995 0.950 . S
C989 C987 1.387 . S
C989 C991 1.390 . S
C989 H993 0.950 . S
H990 C986 0.950 . S
C991 C989 1.390 . S
C991 C992 1.387 . S
C991 H994 0.950 . S
C992 C991 1.387 . S
C992 C995 1.387 . S
H993 C989 0.950 . S
H994 C991 0.950 . S
C995 C986 1.390 . S
C995 H988 0.950 . S
C995 C992 1.387 . S
C996 C997 1.387 . S
C996 H1000 0.950 . S
C996 C1005 1.390 . S
C997 C996 1.387 . S
C997 C999 1.387 . S
H998 C1005 0.950 . S
C999 C997 1.387 . S
C999 C1001 1.390 . S
C999 H1003 0.950 . S
H1000 C996 0.950 . S
C1001 C999 1.390 . S
C1001 C1002 1.387 . S
C1001 H1004 0.950 . S
C1002 C1001 1.387 . S
C1002 C1005 1.387 . S
H1003 C999 0.950 . S
H1004 C1001 0.950 . S
C1005 C996 1.390 . S
C1005 H998 0.950 . S
C1005 C1002 1.387 . S
C1006 C1007 1.387 . S
C1006 H1010 0.950 . S
C1006 C1015 1.390 . S
C1007 C1006 1.387 . S
C1007 C1009 1.387 . S
H1008 C1015 0.950 . S
C1009 C1007 1.387 . S
C1009 C1011 1.390 . S
C1009 H1013 0.950 . S
H1010 C1006 0.950 . S
C1011 C1009 1.390 . S
C1011 C1012 1.387 . S
C1011 H1014 0.950 . S
C1012 C1011 1.387 . S
C1012 C1015 1.387 . S
H1013 C1009 0.950 . S
H1014 C1011 0.950 . S
C1015 C1006 1.390 . S
C1015 H1008 0.950 . S
C1015 C1012 1.387 . S
C1016 C1017 1.387 . S
C1016 H1020 0.950 . S
C1016 C1025 1.390 . S
C1017 C1016 1.387 . S
C1017 C1019 1.387 . S
H1018 C1025 0.950 . S
C1019 C1017 1.387 . S
C1019 C1021 1.390 . S
C1019 H1023 0.950 . S
H1020 C1016 0.950 . S
C1021 C1019 1.390 . S
C1021 C1022 1.387 . S
C1021 H1024 0.950 . S
C1022 C1021 1.387 . S
C1022 C1025 1.387 . S
H1023 C1019 0.950 . S
H1024 C1021 0.950 . S
C1025 C1016 1.390 . S
C1025 H1018 0.950 . S
C1025 C1022 1.387 . S
C1026 C1027 1.387 . S
C1026 H1030 0.950 . S
C1026 C1035 1.390 . S
C1027 C1026 1.387 . S
C1027 C1029 1.387 . S
H1028 C1035 0.950 . S
C1029 C1027 1.387 . S
C1029 C1031 1.390 . S
C1029 H1033 0.950 . S
H1030 C1026 0.950 . S
C1031 C1029 1.390 . S
C1031 C1032 1.387 . S
C1031 H1034 0.950 . S
C1032 C1031 1.387 . S
C1032 C1035 1.387 . S
H1033 C1029 0.950 . S
H1034 C1031 0.950 . S
C1035 C1026 1.390 . S
C1035 H1028 0.950 . S
C1035 C1032 1.387 . S
C1036 C1037 1.387 . S
C1036 H1040 0.950 . S
C1036 C1045 1.390 . S
C1037 C1036 1.387 . S
C1037 C1039 1.387 . S
H1038 C1045 0.950 . S
C1039 C1037 1.387 . S
C1039 C1041 1.390 . S
C1039 H1043 0.950 . S
H1040 C1036 0.950 . S
C1041 C1039 1.390 . S
C1041 C1042 1.387 . S
C1041 H1044 0.950 . S
C1042 C1041 1.387 . S
C1042 C1045 1.387 . S
H1043 C1039 0.950 . S
H1044 C1041 0.950 . S
C1045 C1036 1.390 . S
C1045 H1038 0.950 . S
C1045 C1042 1.387 . S
C1046 C1047 1.387 . S
C1046 H1050 0.950 . S
C1046 C1055 1.390 . S
C1047 C1046 1.387 . S
C1047 C1049 1.387 . S
H1048 C1055 0.950 . S
C1049 C1047 1.387 . S
C1049 C1051 1.390 . S
C1049 H1053 0.950 . S
H1050 C1046 0.950 . S
C1051 C1049 1.390 . S
C1051 C1052 1.387 . S
C1051 H1054 0.950 . S
C1052 C1051 1.387 . S
C1052 C1055 1.387 . S
H1053 C1049 0.950 . S
H1054 C1051 0.950 . S
C1055 C1046 1.390 . S
C1055 H1048 0.950 . S
C1055 C1052 1.387 . S
C417 C122 1.014 . S
C422 C10 1.122 . S
C427 C23 1.124 . S
C432 C343 1.014 . S
C437 C148 1.012 . S
C442 C36 1.123 . S
C447 C317 1.013 . S
C452 C49 1.124 . S
C457 C62 1.122 . S
C462 C200 1.018 . S
C467 C369 1.015 . S
C472 C75 1.122 . S
C477 C88 1.124 . S
C482 C174 1.014 . S
C487 C395 1.017 . S
C492 C101 1.122 . S
C497 C18 1.019 . S
C502 C114 1.123 . S
C507 C127 1.124 . S
C512 C239 1.013 . S
C517 C44 1.018 . S
C522 C140 1.123 . S
C527 C153 1.124 . S
C532 C213 1.013 . S
C537 C166 1.124 . S
C542 C96 1.015 . S
C547 C265 1.012 . S
C552 C179 1.123 . S
C557 C192 1.122 . S
C562 C70 1.013 . S
C567 C291 1.018 . S
C572 C205 1.122 . S
C577 C330 1.012 . S
C582 C218 1.123 . S
C587 C135 1.016 . S
C592 C231 1.122 . S
C597 C244 1.122 . S
C602 C356 1.015 . S
C607 C109 1.017 . S
C612 C257 1.122 . S
C617 C408 1.018 . S
C622 C270 1.122 . S
C627 C283 1.124 . S
C632 C161 1.013 . S
C637 C382 1.014 . S
C642 C296 1.124 . S
C647 C187 1.017 . S
C652 C309 1.122 . S
C657 C226 1.018 . S
C662 C322 1.122 . S
C667 C335 1.122 . S
C672 C31 1.017 . S
C677 C348 1.124 . S
C682 C252 1.015 . S
C687 C361 1.122 . S
C692 C5 1.018 . S
C697 C304 1.011 . S
C702 C374 1.123 . S
C707 C387 1.124 . S
C712 C57 1.012 . S
C717 C400 1.122 . S
C722 C278 1.013 . S
C727 C413 1.122 . S
C732 C83 1.017 . S
C737 C312 1.316 . S
C742 C0 1.316 . S
C747 C13 1.316 . S
C752 C117 1.316 . S
C757 C26 1.320 . S
C762 C338 1.320 . S
C767 C39 1.316 . S
C772 C143 1.316 . S
C777 C52 1.320 . S
C782 C364 1.320 . S
C787 C65 1.321 . S
C792 C169 1.321 . S
C797 C390 1.320 . S
C802 C78 1.320 . S
C807 C91 1.317 . S
C812 C195 1.317 . S
C817 C104 1.321 . S
C822 C208 1.321 . S
C827 C130 1.316 . S
C832 C234 1.316 . S
C837 C260 1.316 . S
C842 C156 1.316 . S
C847 C286 1.321 . S
C852 C182 1.321 . S
C857 C221 1.321 . S
C862 C325 1.321 . S
C867 C351 1.321 . S
C872 C247 1.321 . S
C877 C273 1.320 . S
C882 C377 1.320 . S
C887 C403 1.316 . S
C892 C299 1.316 . S
C897 C281 1.592 . S
C902 C8 1.591 . S
C907 C294 1.593 . S
C912 C21 1.593 . S
C917 C34 1.590 . S
C922 C307 1.590 . S
C927 C268 1.590 . S
C932 C47 1.590 . S
C937 C255 1.592 . S
C942 C60 1.592 . S
C947 C216 1.591 . S
C952 C73 1.590 . S
C957 C86 1.591 . S
C962 C229 1.590 . S
C967 C242 1.591 . S
C972 C99 1.591 . S
C977 C385 1.590 . S
C982 C112 1.590 . S
C987 C398 1.589 . S
C992 C125 1.589 . S
C997 C411 1.590 . S
C1002 C138 1.591 . S
C1007 C151 1.589 . S
C1012 C372 1.590 . S
C1017 C359 1.591 . S
C1022 C164 1.590 . S
C1027 C320 1.590 . S
C1032 C177 1.591 . S
C1037 C333 1.592 . S
C1042 C190 1.591 . S
C1047 C346 1.592 . S
C1052 C203 1.592 . S
