# Generated by pormake.
# Topology unn, (4)-cn, num edge types: 1
# Building blocks:
#     Node 0, Type 0, BuildingBlock: ICAMEG_clean_sbu_1, # of connection points: 4
#     Node 1, Type 0, BuildingBlock: ICAMEG_clean_sbu_1, # of connection points: 4
#     Node 2, Type 0, BuildingBlock: ICAMEG_clean_sbu_1, # of connection points: 4
#     Node 3, Type 0, BuildingBlock: ICAMEG_clean_sbu_1, # of connection points: 4
#     Node 4, Type 0, BuildingBlock: ICAMEG_clean_sbu_1, # of connection points: 4
#     Node 5, Type 0, BuildingBlock: ICAMEG_clean_sbu_1, # of connection points: 4
#     Node 6, Type 0, BuildingBlock: ICAMEG_clean_sbu_1, # of connection points: 4
#     Node 7, Type 0, BuildingBlock: ICAMEG_clean_sbu_1, # of connection points: 4
#     Node 8, Type 0, BuildingBlock: ICAMEG_clean_sbu_1, # of connection points: 4
#     Node 9, Type 0, BuildingBlock: ICAMEG_clean_sbu_1, # of connection points: 4
#     Node 10, Type 0, BuildingBlock: ICAMEG_clean_sbu_1, # of connection points: 4
#     Node 11, Type 0, BuildingBlock: ICAMEG_clean_sbu_1, # of connection points: 4
#     Node 12, Type 0, BuildingBlock: ICAMEG_clean_sbu_1, # of connection points: 4
#     Node 13, Type 0, BuildingBlock: ICAMEG_clean_sbu_1, # of connection points: 4
#     Node 14, Type 0, BuildingBlock: ICAMEG_clean_sbu_1, # of connection points: 4
#     Node 15, Type 0, BuildingBlock: ICAMEG_clean_sbu_1, # of connection points: 4
#     Node 16, Type 0, BuildingBlock: ICAMEG_clean_sbu_1, # of connection points: 4
#     Node 17, Type 0, BuildingBlock: ICAMEG_clean_sbu_1, # of connection points: 4
#     Edge 18, Type (0, 0), BuildingBlock: AJUNOK_clean_linker_0, # of connection points: 2
#     Edge 19, Type (0, 0), BuildingBlock: AJUNOK_clean_linker_0, # of connection points: 2
#     Edge 20, Type (0, 0), BuildingBlock: AJUNOK_clean_linker_0, # of connection points: 2
#     Edge 21, Type (0, 0), BuildingBlock: AJUNOK_clean_linker_0, # of connection points: 2
#     Edge 22, Type (0, 0), BuildingBlock: AJUNOK_clean_linker_0, # of connection points: 2
#     Edge 23, Type (0, 0), BuildingBlock: AJUNOK_clean_linker_0, # of connection points: 2
#     Edge 24, Type (0, 0), BuildingBlock: AJUNOK_clean_linker_0, # of connection points: 2
#     Edge 25, Type (0, 0), BuildingBlock: AJUNOK_clean_linker_0, # of connection points: 2
#     Edge 26, Type (0, 0), BuildingBlock: AJUNOK_clean_linker_0, # of connection points: 2
#     Edge 27, Type (0, 0), BuildingBlock: AJUNOK_clean_linker_0, # of connection points: 2
#     Edge 28, Type (0, 0), BuildingBlock: AJUNOK_clean_linker_0, # of connection points: 2
#     Edge 29, Type (0, 0), BuildingBlock: AJUNOK_clean_linker_0, # of connection points: 2
#     Edge 30, Type (0, 0), BuildingBlock: AJUNOK_clean_linker_0, # of connection points: 2
#     Edge 31, Type (0, 0), BuildingBlock: AJUNOK_clean_linker_0, # of connection points: 2
#     Edge 32, Type (0, 0), BuildingBlock: AJUNOK_clean_linker_0, # of connection points: 2
#     Edge 33, Type (0, 0), BuildingBlock: AJUNOK_clean_linker_0, # of connection points: 2
#     Edge 34, Type (0, 0), BuildingBlock: AJUNOK_clean_linker_0, # of connection points: 2
#     Edge 35, Type (0, 0), BuildingBlock: AJUNOK_clean_linker_0, # of connection points: 2
#     Edge 36, Type (0, 0), BuildingBlock: AJUNOK_clean_linker_0, # of connection points: 2
#     Edge 37, Type (0, 0), BuildingBlock: AJUNOK_clean_linker_0, # of connection points: 2
#     Edge 38, Type (0, 0), BuildingBlock: AJUNOK_clean_linker_0, # of connection points: 2
#     Edge 39, Type (0, 0), BuildingBlock: AJUNOK_clean_linker_0, # of connection points: 2
#     Edge 40, Type (0, 0), BuildingBlock: AJUNOK_clean_linker_0, # of connection points: 2
#     Edge 41, Type (0, 0), BuildingBlock: AJUNOK_clean_linker_0, # of connection points: 2
#     Edge 42, Type (0, 0), BuildingBlock: AJUNOK_clean_linker_0, # of connection points: 2
#     Edge 43, Type (0, 0), BuildingBlock: AJUNOK_clean_linker_0, # of connection points: 2
#     Edge 44, Type (0, 0), BuildingBlock: AJUNOK_clean_linker_0, # of connection points: 2
#     Edge 45, Type (0, 0), BuildingBlock: AJUNOK_clean_linker_0, # of connection points: 2
#     Edge 46, Type (0, 0), BuildingBlock: AJUNOK_clean_linker_0, # of connection points: 2
#     Edge 47, Type (0, 0), BuildingBlock: AJUNOK_clean_linker_0, # of connection points: 2
#     Edge 48, Type (0, 0), BuildingBlock: AJUNOK_clean_linker_0, # of connection points: 2
#     Edge 49, Type (0, 0), BuildingBlock: AJUNOK_clean_linker_0, # of connection points: 2
#     Edge 50, Type (0, 0), BuildingBlock: AJUNOK_clean_linker_0, # of connection points: 2
#     Edge 51, Type (0, 0), BuildingBlock: AJUNOK_clean_linker_0, # of connection points: 2
#     Edge 52, Type (0, 0), BuildingBlock: AJUNOK_clean_linker_0, # of connection points: 2
#     Edge 53, Type (0, 0), BuildingBlock: AJUNOK_clean_linker_0, # of connection points: 2
# Relax obj value: 0.111
# Max RMSD: 0.214
# Mean RMSD: 0.165
data_MOF--net-unn--node1-ICAMEG_clean_sbu_1--edge1-AJUNOK_clean_linker_0
_symmetry_space_group_name_H-M    P1
_symmetry_Int_Tables_number       1
_symmetry_cell_setting            triclinic
loop_
_symmetry_equiv_pos_as_xyz
'x, y, z'
_cell_length_a     35.63234
_cell_length_b     35.693076
_cell_length_c     30.906945
_cell_angle_alpha  90.156115
_cell_angle_beta   91.064448
_cell_angle_gamma 120.11099
loop_
_atom_site_label
_atom_site_type_symbol
_atom_site_fract_x
_atom_site_fract_y
_atom_site_fract_z
_atom_type_partial_charge
Co0 Co 0.03694 0.71072 0.25428 0.0
Co1 Co 0.06147 0.81165 0.21817 0.0
O2 O 0.05802 0.77209 0.26279 0.0
C3 C 0.98208 0.71865 0.31894 0.0
O4 O 0.97865 0.74569 0.29278 0.0
C5 C 0.15145 0.83811 0.24773 0.0
O6 O 0.13948 0.79754 0.24004 0.0
O7 O 0.08088 0.78475 0.17565 0.0
O8 O 0.069 0.72032 0.19947 0.0
H9 H 0.03818 0.85448 0.06969 0.0
H10 H 0.07932 0.7537 0.33791 0.0
O11 O 1.00347 0.70034 0.30833 0.0
H12 H 0.16659 0.69271 0.28279 0.0
H13 H 0.99204 0.5613 0.30777 0.0
H14 H 1.00483 0.64858 0.17965 0.0
H15 H 0.10198 0.68263 0.24182 0.0
H16 H 1.02065 0.63994 0.31509 0.0
O17 O 0.12477 0.85145 0.23853 0.0
H18 H 0.03018 0.8032 0.12702 0.0
H19 H 0.10621 0.90781 0.21403 0.0
H20 H 0.97642 0.57019 0.17079 0.0
H21 H 0.14331 0.76421 0.38016 0.0
H22 H 0.96986 0.52594 0.23517 0.0
H23 H 0.18759 0.73374 0.35251 0.0
O24 O 0.98721 0.70454 0.21944 0.0
H25 H 0.07213 0.88949 0.35735 0.0
H26 H 0.99622 0.8402 0.2158 0.0
H27 H 0.97888 0.88442 0.26456 0.0
H28 H 1.01666 0.90885 0.33582 0.0
H29 H 0.0885 0.84548 0.30795 0.0
H30 H 0.11564 0.96027 0.15744 0.0
H31 H 0.08127 0.93365 0.08473 0.0
O32 O 0.99751 0.76923 0.19774 0.0
C33 C 0.08259 0.75033 0.17169 0.0
C34 C 0.05308 0.86647 0.10133 0.0
C35 C 0.09662 0.92586 0.15055 0.0
N36 N 0.06715 0.85251 0.174 0.0
C37 C 0.04842 0.83759 0.134 0.0
C38 C 0.09125 0.89601 0.18243 0.0
C39 C 0.07733 0.91089 0.10976 0.0
C40 C 0.09805 0.7399 0.32595 0.0
N41 N 0.08665 0.71726 0.28765 0.0
C42 C 0.13441 0.74613 0.3499 0.0
C43 C 0.15924 0.72904 0.33436 0.0
C44 C 0.14748 0.70604 0.29524 0.0
C45 C 0.1109 0.70047 0.27215 0.0
C46 C 0.99477 0.58023 0.27946 0.0
C47 C 1.00236 0.62967 0.20778 0.0
C48 C 1.01082 0.62475 0.28342 0.0
N49 N 1.0146 0.64892 0.2478 0.0
C50 C 0.98609 0.58523 0.20258 0.0
C51 C 0.98236 0.56041 0.23872 0.0
C52 C 0.97451 0.72726 0.19867 0.0
C53 C 0.05488 0.87833 0.3266 0.0
C54 C 1.01209 0.85008 0.24726 0.0
C55 C 1.00241 0.8753 0.27449 0.0
C56 C 1.02383 0.88927 0.31447 0.0
N57 N 0.04284 0.83979 0.25927 0.0
C58 C 0.06398 0.85337 0.29845 0.0
Co59 Co 0.34652 0.35276 0.25159 0.0
Co60 Co 0.26634 0.24604 0.23888 0.0
O61 O 0.31486 0.29914 0.21886 0.0
C62 C 0.31276 0.37325 0.17369 0.0
O63 O 0.27393 0.34615 0.18771 0.0
C64 C 0.33274 0.22284 0.2115 0.0
O65 O 0.36087 0.25573 0.23553 0.0
O66 O 0.29764 0.25008 0.29428 0.0
O67 O 0.34653 0.32097 0.30438 0.0
H68 H 0.15287 0.15028 0.34402 0.0
H69 H 0.37789 0.33496 0.16967 0.0
O70 O 0.34617 0.38342 0.19762 0.0
H71 H 0.49733 0.37725 0.27638 0.0
H72 H 0.45918 0.51057 0.26881 0.0
H73 H 0.34263 0.38272 0.34024 0.0
H74 H 0.42957 0.37458 0.29718 0.0
H75 H 0.41867 0.44049 0.22973 0.0
O76 O 0.2928 0.21309 0.21059 0.0
H77 H 0.21403 0.21867 0.31839 0.0
H78 H 0.21433 0.1572 0.2007 0.0
H79 H 0.38234 0.45211 0.38051 0.0
H80 H 0.44524 0.33782 0.14725 0.0
H81 H 0.4412 0.5166 0.34483 0.0
H82 H 0.50561 0.35903 0.20084 0.0
O83 O 0.29191 0.34955 0.27086 0.0
H84 H 0.25387 0.25534 0.07758 0.0
H85 H 0.17587 0.22414 0.21487 0.0
H86 H 0.13634 0.21608 0.14584 0.0
H87 H 0.17565 0.23292 0.07675 0.0
H88 H 0.29134 0.25988 0.14687 0.0
H89 H 0.15365 0.08789 0.22534 0.0
H90 H 0.12237 0.08416 0.29745 0.0
O91 O 0.23997 0.27927 0.26699 0.0
C92 C 0.32713 0.2816 0.31667 0.0
C93 C 0.16621 0.15146 0.31255 0.0
C94 C 0.16675 0.11643 0.24601 0.0
N95 N 0.21795 0.1919 0.2582 0.0
C96 C 0.2008 0.19015 0.2978 0.0
C97 C 0.20133 0.15569 0.23234 0.0
C98 C 0.14916 0.11437 0.28643 0.0
C99 C 0.40434 0.34528 0.19289 0.0
N100 N 0.40018 0.35583 0.23436 0.0
C101 C 0.44226 0.34636 0.18013 0.0
C102 C 0.47605 0.35811 0.21025 0.0
C103 C 0.47142 0.36833 0.25263 0.0
C104 C 0.43298 0.3668 0.26421 0.0
C105 C 0.43369 0.48266 0.28475 0.0
C106 C 0.36834 0.41059 0.32456 0.0
C107 C 0.41057 0.44295 0.26275 0.0
N108 N 0.37857 0.40751 0.28281 0.0
C109 C 0.39065 0.44981 0.3475 0.0
C110 C 0.42361 0.48602 0.32742 0.0
C111 C 0.25325 0.31903 0.27745 0.0
C112 C 0.2364 0.24809 0.10751 0.0
C113 C 0.193 0.23072 0.18484 0.0
C114 C 0.17054 0.2264 0.1459 0.0
C115 C 0.19255 0.23559 0.10708 0.0
N116 N 0.23577 0.24213 0.18493 0.0
C117 C 0.25747 0.25077 0.14691 0.0
Co118 Co 0.73877 0.05331 0.24039 0.0
Co119 Co 0.816 0.02259 0.2481 0.0
O120 O 0.76916 0.02867 0.27137 0.0
C121 C 0.77043 0.1006 0.3217 0.0
O122 O 0.80939 0.1113 0.30873 0.0
C123 C 0.7524 0.93486 0.28428 0.0
O124 O 0.72155 0.93819 0.26396 0.0
O125 O 0.78053 0.99325 0.19478 0.0
O126 O 0.74027 0.02539 0.18552 0.0
H127 H 0.91744 0.03077 0.13299 0.0
H128 H 0.70225 1.00387 0.32098 0.0
O129 O 0.73805 0.08141 0.29564 0.0
H130 H 0.5895 0.92711 0.2076 0.0
H131 H 0.6262 0.09858 0.22566 0.0
H132 H 0.74615 0.09321 0.15443 0.0
H133 H 0.65873 0.99227 0.19014 0.0
H134 H 0.66575 0.06729 0.26302 0.0
O135 O 0.79206 0.96447 0.27919 0.0
H136 H 0.8587 0.03951 0.16333 0.0
H137 H 0.87255 0.98995 0.28357 0.0
H138 H 0.70724 0.12435 0.11575 0.0
H139 H 0.63329 0.93933 0.33999 0.0
H140 H 0.64675 0.12715 0.15138 0.0
H141 H 0.57633 0.90039 0.28305 0.0
O142 O 0.79408 0.10547 0.22464 0.0
H143 H 0.84255 0.05031 0.40835 0.0
H144 H 0.90726 0.09346 0.26449 0.0
H145 H 0.95209 0.12937 0.32984 0.0
H146 H 0.9196 0.10822 0.40237 0.0
H147 H 0.79922 1.01454 0.34227 0.0
H148 H 0.93094 0.97994 0.25436 0.0
H149 H 0.95392 1.00068 0.17861 0.0
O150 O 0.84105 0.08127 0.21787 0.0
C151 C 0.75524 1.00171 0.17243 0.0
C152 C 0.90777 0.02168 0.16607 0.0
C153 C 0.9153 0.99309 0.23416 0.0
N154 N 0.86235 1.01542 0.22521 0.0
C155 C 0.87462 0.02667 0.18345 0.0
C156 C 0.88207 0.99862 0.25046 0.0
C157 C 0.9282 1.00476 0.19167 0.0
C158 C 0.67743 0.98751 0.29613 0.0
N159 N 0.68434 1.00217 0.25459 0.0
C160 C 0.63853 0.95079 0.30704 0.0
C161 C 0.60663 0.92891 0.27506 0.0
C162 C 0.61401 0.94387 0.23272 0.0
C163 C 0.65332 0.98072 0.223 0.0
C164 C 0.65246 0.09748 0.20977 0.0
C165 C 0.71973 0.09409 0.17009 0.0
C166 C 0.67504 0.07992 0.23082 0.0
N167 N 0.708 0.07814 0.21082 0.0
C168 C 0.6979 0.11189 0.14806 0.0
C169 C 0.66399 0.11349 0.16809 0.0
C170 C 0.83052 0.11072 0.21289 0.0
C171 C 0.8571 0.05984 0.37692 0.0
C172 C 0.89296 0.08393 0.29594 0.0
C173 C 0.91849 0.10437 0.33283 0.0
C174 C 0.90029 0.09236 0.37354 0.0
N175 N 0.85077 0.0517 0.29953 0.0
C176 C 0.83273 0.03968 0.33936 0.0
Co177 Co 0.03593 0.33684 0.74585 0.0
Co178 Co 0.07221 0.26614 0.72935 0.0
O179 O 0.06703 0.30817 0.76347 0.0
C180 C 1.00051 0.2951 0.82815 0.0
O181 O 0.98928 0.25887 0.80725 0.0
C182 C 0.16121 0.33383 0.75618 0.0
O183 O 0.15151 0.36057 0.73669 0.0
O184 O 0.09304 0.30607 0.68015 0.0
O185 O 0.05347 0.33937 0.68361 0.0
H186 H 0.05838 0.17971 0.59536 0.0
H187 H 0.1004 0.37315 0.81897 0.0
O188 O 1.01799 0.33128 0.80827 0.0
H189 H 0.14988 0.48975 0.71236 0.0
H190 H 0.98151 0.44043 0.77118 0.0
H191 H 0.97933 0.33148 0.67123 0.0
H192 H 0.08334 0.4195 0.69845 0.0
H193 H 1.02254 0.40343 0.78908 0.0
O194 O 0.13394 0.29298 0.7541 0.0
H195 H 0.04708 0.23052 0.6399 0.0
H196 H 0.11491 0.21414 0.7458 0.0
H197 H 0.93802 0.3677 0.65186 0.0
H198 H 0.16684 0.44285 0.8347 0.0
H199 H 0.939 0.42271 0.70203 0.0
H200 H 0.1921 0.50181 0.78097 0.0
O201 O 0.98364 0.28112 0.73081 0.0
H202 H 0.06466 0.22517 0.88574 0.0
H203 H 1.00449 0.17354 0.7385 0.0
H204 H 0.97452 0.12368 0.79987 0.0
H205 H 1.0046 0.14948 0.87413 0.0
H206 H 0.09348 0.27388 0.82351 0.0
H207 H 0.12732 0.1634 0.70229 0.0
H208 H 0.09886 0.14585 0.62653 0.0
O209 O 1.01005 0.24041 0.70449 0.0
C210 C 0.07711 0.3277 0.66329 0.0
C211 C 0.07075 0.18693 0.6284 0.0
C212 C 0.10949 0.17781 0.68841 0.0
N213 N 0.07992 0.22485 0.69551 0.0
C214 C 0.06429 0.21553 0.65382 0.0
C215 C 0.10241 0.20657 0.71287 0.0
C216 C 0.09351 0.16798 0.64589 0.0
C217 C 0.11073 0.39877 0.79599 0.0
N218 N 0.08768 0.39232 0.75825 0.0
C219 C 0.14857 0.43815 0.80483 0.0
C220 C 0.16278 0.47116 0.77463 0.0
C221 C 0.13914 0.46439 0.73611 0.0
C222 C 0.10152 0.42451 0.72839 0.0
C223 C 0.98094 0.41663 0.74898 0.0
C224 C 0.98025 0.35562 0.69299 0.0
C225 C 1.00405 0.39556 0.75898 0.0
N226 N 1.00374 0.36573 0.73096 0.0
C227 C 0.95662 0.3759 0.68197 0.0
C228 C 0.95711 0.40669 0.71017 0.0
C229 C 0.97885 0.24842 0.70938 0.0
C230 C 0.05137 0.21348 0.85352 0.0
C231 C 1.01775 0.18495 0.77073 0.0
C232 C 1.00071 0.15657 0.80533 0.0
C233 C 1.01762 0.17106 0.84699 0.0
N234 N 0.05074 0.22654 0.77743 0.0
C235 C 0.06768 0.24089 0.81813 0.0
Co236 Co 0.76443 0.69451 0.77195 0.0
Co237 Co 0.81973 0.80055 0.74094 0.0
O238 O 0.79124 0.75617 0.78371 0.0
C239 C 0.82467 0.71471 0.84637 0.0
O240 O 0.85317 0.74696 0.82339 0.0
C241 C 0.75293 0.81581 0.78008 0.0
O242 O 0.72611 0.77538 0.76872 0.0
O243 O 0.76909 0.77126 0.70072 0.0
O244 O 0.7432 0.70045 0.71227 0.0
H245 H 0.86715 0.85832 0.59169 0.0
H246 H 0.74455 0.72474 0.85342 0.0
O247 O 0.78683 0.6886 0.83059 0.0
H248 H 0.60384 0.63909 0.7762 0.0
H249 H 0.68095 0.53788 0.8142 0.0
H250 H 0.75866 0.6395 0.69697 0.0
H251 H 0.67105 0.64818 0.74479 0.0
H252 H 0.71459 0.61677 0.82611 0.0
O253 O 0.79285 0.83321 0.76939 0.0
H254 H 0.83296 0.80142 0.64642 0.0
H255 H 0.86502 0.89681 0.74466 0.0
H256 H 0.72526 0.5609 0.68349 0.0
H257 H 0.67812 0.71614 0.88616 0.0
H258 H 0.68599 0.50949 0.74236 0.0
H259 H 0.60713 0.67308 0.84745 0.0
O260 O 0.8179 0.70229 0.74555 0.0
H261 H 0.89838 0.86904 0.88165 0.0
H262 H 0.91414 0.83417 0.73111 0.0
H263 H 0.97886 0.87101 0.77913 0.0
H264 H 0.97123 0.88899 0.85495 0.0
H265 H 0.83403 0.82979 0.83336 0.0
H266 H 0.8993 0.95484 0.69093 0.0
H267 H 0.9006 0.93569 0.61385 0.0
O268 O 0.84562 0.76665 0.71263 0.0
C269 C 0.7458 0.73164 0.68945 0.0
C270 C 0.86697 0.8671 0.6252 0.0
C271 C 0.88497 0.92126 0.6809 0.0
N272 N 0.84751 0.84586 0.69872 0.0
C273 C 0.84782 0.83502 0.65636 0.0
C274 C 0.86551 0.8883 0.71117 0.0
C275 C 0.88568 0.91049 0.63765 0.0
C276 C 0.71373 0.70556 0.83658 0.0
N277 N 0.71164 0.68673 0.79737 0.0
C278 C 0.67624 0.70096 0.85521 0.0
C279 C 0.63643 0.67687 0.83343 0.0
C280 C 0.63458 0.65784 0.79341 0.0
C281 C 0.67274 0.6632 0.77574 0.0
C282 C 0.69782 0.55994 0.78823 0.0
C283 C 0.7413 0.61732 0.7226 0.0
C284 C 0.71695 0.60461 0.7948 0.0
N285 N 0.73801 0.63263 0.76206 0.0
C286 C 0.72262 0.57286 0.71485 0.0
C287 C 0.70065 0.54403 0.74792 0.0
C288 C 0.8437 0.72999 0.71888 0.0
C289 C 0.90201 0.86107 0.84878 0.0
C290 C 0.91035 0.84099 0.76431 0.0
C291 C 0.94721 0.86223 0.79125 0.0
C292 C 0.94292 0.87236 0.83375 0.0
N293 N 0.87024 0.82966 0.77939 0.0
C294 C 0.86574 0.83924 0.82112 0.0
Co295 Co 0.33056 0.98473 0.74171 0.0
Co296 Co 0.26539 0.02792 0.75688 0.0
O297 O 0.30335 1.01725 0.72169 0.0
C298 C 0.28784 0.94749 0.65844 0.0
O299 O 0.25205 0.94006 0.67712 0.0
C300 C 0.33214 0.11437 0.7241 0.0
O301 O 0.36113 0.10603 0.74116 0.0
O302 O 0.31022 0.05229 0.80302 0.0
O303 O 0.33612 1.00646 0.80307 0.0
H304 H 0.19365 0.02976 0.89459 0.0
H305 H 0.36938 0.0422 0.66584 0.0
O306 O 0.32341 0.96292 0.68036 0.0
H307 H 0.48601 0.09605 0.77707 0.0
H308 H 0.4292 0.92316 0.72402 0.0
H309 H 0.32361 0.93166 0.81844 0.0
H310 H 0.41427 0.03287 0.79105 0.0
H311 H 0.39436 0.96522 0.7022 0.0
O312 O 0.29164 0.08758 0.72946 0.0
H313 H 0.23895 1.01261 0.84848 0.0
H314 H 0.21413 0.07172 0.74118 0.0
H315 H 0.35777 0.88944 0.84164 0.0
H316 H 0.44052 0.10521 0.65014 0.0
H317 H 0.41113 0.88512 0.79433 0.0
H318 H 0.49958 0.13273 0.70616 0.0
O319 O 0.27351 0.93492 0.75643 0.0
H320 H 0.20573 1.0153 0.60541 0.0
H321 H 0.17172 0.95987 0.7539 0.0
H322 H 0.11442 0.92901 0.69706 0.0
H323 H 0.13118 0.95686 0.62217 0.0
H324 H 0.26184 0.04509 0.6634 0.0
H325 H 0.1688 0.08986 0.7862 0.0
H326 H 0.15826 0.06875 0.86347 0.0
O327 O 0.23974 0.9679 0.78463 0.0
C328 C 0.33006 0.03517 0.82129 0.0
C329 C 0.19784 0.03898 0.86092 0.0
C330 C 0.18393 0.07275 0.80009 0.0
N331 N 0.22871 0.0407 0.7921 0.0
C332 C 0.22331 0.02919 0.83462 0.0
C333 C 0.20962 0.06241 0.77477 0.0
C334 C 0.17803 0.06089 0.84345 0.0
C335 C 0.39468 0.05379 0.69019 0.0
N336 N 0.38726 0.03396 0.72932 0.0
C337 C 0.43504 0.08959 0.68121 0.0
C338 C 0.46812 0.10503 0.71265 0.0
C339 C 0.46051 0.0845 0.75244 0.0
C340 C 0.41969 0.04882 0.76024 0.0
C341 C 0.4061 0.92489 0.74497 0.0
C342 C 0.34692 0.93011 0.79777 0.0
C343 C 0.38622 0.94858 0.73274 0.0
N344 N 0.35733 0.95123 0.75922 0.0
C345 C 0.36607 0.90604 0.81102 0.0
C346 C 0.39595 0.90357 0.78443 0.0
C347 C 0.2438 0.93424 0.77934 0.0
C348 C 0.19803 1.00269 0.63785 0.0
C349 C 0.17958 0.97159 0.72127 0.0
C350 C 0.14683 0.95429 0.68928 0.0
C351 C 0.15623 0.96998 0.64729 0.0
N352 N 0.22059 1.00354 0.7117 0.0
C353 C 0.22985 1.01928 0.67073 0.0
Co354 Co 0.68797 0.02721 0.57937 0.0
Co355 Co 0.73079 0.13675 0.57098 0.0
O356 O 0.71922 0.08582 0.60312 0.0
C357 C 0.64277 0.0256 0.65783 0.0
O358 O 0.63521 0.0538 0.63835 0.0
C359 C 0.8172 0.15473 0.60515 0.0
O360 O 0.80854 0.11836 0.58587 0.0
O361 O 0.7559 0.11965 0.52407 0.0
O362 O 0.71302 0.0471 0.5207 0.0
H363 H 0.7332 0.21933 0.4387 0.0
H364 H 0.74171 0.04309 0.65994 0.0
O365 O 0.66233 1.00892 0.63827 0.0
H366 H 0.8018 0.98625 0.55308 0.0
H367 H 0.62642 0.86627 0.58943 0.0
H368 H 0.63958 0.98476 0.49748 0.0
H369 H 0.73905 0.99474 0.53393 0.0
H370 H 0.66676 0.94208 0.61585 0.0
O371 O 0.79017 0.16843 0.60134 0.0
H372 H 0.71649 0.15398 0.48008 0.0
H373 H 0.7743 0.2306 0.59347 0.0
H374 H 0.59918 0.90958 0.46966 0.0
H375 H 0.80425 0.03505 0.68082 0.0
H376 H 0.59246 0.84967 0.51575 0.0
H377 H 0.83487 1.00644 0.62703 0.0
O378 O 0.63886 0.03459 0.56 0.0
H379 H 0.7138 0.17057 0.72502 0.0
H380 H 0.66259 0.16178 0.57411 0.0
H381 H 0.62901 0.18165 0.63206 0.0
H382 H 0.65456 0.18609 0.70824 0.0
H383 H 0.74601 0.15028 0.6659 0.0
H384 H 0.79206 0.29693 0.55322 0.0
H385 H 0.77132 0.29148 0.4753 0.0
O386 O 0.67142 0.10426 0.5399 0.0
C387 C 0.7408 0.08333 0.50471 0.0
C388 C 0.74228 0.22212 0.47267 0.0
C389 C 0.77535 0.26568 0.53695 0.0
N390 N 0.74402 0.18849 0.53922 0.0
C391 C 0.73277 0.18522 0.4963 0.0
C392 C 0.76527 0.22805 0.55955 0.0
C393 C 0.7637 0.26259 0.49322 0.0
C394 C 0.75462 0.0306 0.6366 0.0
N395 N 0.7367 1.01967 0.59588 0.0
C396 C 0.79016 0.02612 0.64848 0.0
C397 C 0.80735 1.01012 0.61829 0.0
C398 C 0.78883 0.99883 0.5768 0.0
C399 C 0.75337 1.00387 0.56611 0.0
C400 C 0.62919 0.89209 0.56901 0.0
C401 C 0.63703 0.95896 0.51763 0.0
C402 C 0.65191 0.93504 0.58382 0.0
N403 N 0.65587 0.96784 0.55807 0.0
C404 C 0.61397 0.9164 0.50176 0.0
C405 C 0.61017 0.8828 0.52765 0.0
C406 C 0.63834 0.06565 0.54024 0.0
C407 C 0.70212 0.16839 0.69201 0.0
C408 C 0.67343 0.16291 0.60719 0.0
C409 C 0.65451 0.17454 0.63987 0.0
C410 C 0.66891 0.17711 0.68258 0.0
N411 N 0.70557 0.15377 0.61678 0.0
C412 C 0.72022 0.15682 0.65846 0.0
Co413 Co 0.02956 0.70426 0.57345 0.0
Co414 Co 0.9569 0.59583 0.58605 0.0
O415 O 0.99574 0.64514 0.5521 0.0
C416 C 0.97647 0.70609 0.50167 0.0
O417 O 0.94325 0.67517 0.52167 0.0
C418 C 1.02198 0.57549 0.55122 0.0
O419 O 0.05061 0.61306 0.56825 0.0
O420 O 1.00052 0.61266 0.63354 0.0
O421 O 0.0426 0.68515 0.62933 0.0
H422 H 0.88051 0.51863 0.72054 0.0
H423 H 0.04802 0.68172 0.48683 0.0
O424 O 1.01458 0.7231 0.51849 0.0
H425 H 0.18388 0.73537 0.57255 0.0
H426 H 0.13801 0.86238 0.55617 0.0
H427 H 0.03936 0.75071 0.65672 0.0
H428 H 0.11959 0.73242 0.60472 0.0
H429 H 0.09229 0.78645 0.53158 0.0
O430 O 0.98148 0.56163 0.55663 0.0
H431 H 0.9283 0.58224 0.677 0.0
H432 H 0.90361 0.50135 0.56662 0.0
H433 H 0.08463 0.8262 0.68276 0.0
H434 H 0.11165 0.68461 0.45326 0.0
H435 H 0.13497 0.88234 0.63244 0.0
H436 H 0.18017 0.7115 0.49625 0.0
O437 O 0.9784 0.70133 0.60052 0.0
H438 H 0.90161 0.56354 0.4318 0.0
H439 H 0.86365 0.56961 0.58328 0.0
H440 H 0.80755 0.54734 0.52595 0.0
H441 H 0.82627 0.54401 0.44927 0.0
H442 H 0.95696 0.58612 0.49043 0.0
H443 H 0.85588 0.43676 0.60907 0.0
H444 H 0.84402 0.44523 0.68658 0.0
O445 O 0.93309 0.63111 0.61552 0.0
C446 C 0.02969 0.64923 0.64845 0.0
C447 C 0.88529 0.51453 0.68676 0.0
C448 C 0.87152 0.46858 0.6242 0.0
N449 N 0.91836 0.54549 0.61926 0.0
C450 C 0.91216 0.55044 0.6619 0.0
C451 C 0.89862 0.50523 0.60036 0.0
C452 C 0.86487 0.47336 0.66769 0.0
C453 C 0.07784 0.69387 0.50563 0.0
N454 N 0.08018 0.70718 0.54761 0.0
C455 C 0.11371 0.69525 0.48649 0.0
C456 C 0.15214 0.7103 0.51065 0.0
C457 C 0.15422 0.72365 0.55348 0.0
C458 C 0.11769 0.72179 0.57156 0.0
C459 C 0.11643 0.83807 0.57845 0.0
C460 C 0.06106 0.77503 0.63465 0.0
C461 C 0.09042 0.79507 0.5647 0.0
N462 N 0.06369 0.76409 0.59288 0.0
C463 C 0.08652 0.81774 0.64953 0.0
C464 C 0.11461 0.8493 0.62124 0.0
C465 C 0.94407 0.67151 0.61739 0.0
C466 C 0.89298 0.56469 0.46497 0.0
C467 C 0.87215 0.56855 0.55009 0.0
C468 C 0.84018 0.5558 0.51765 0.0
C469 C 0.85072 0.55386 0.4748 0.0
N470 N 0.91342 0.57887 0.54022 0.0
C471 C 0.92415 0.57735 0.4983 0.0
Co472 Co 0.36378 0.32555 0.57263 0.0
Co473 Co 0.47168 0.35738 0.58686 0.0
O474 O 0.42252 0.35004 0.55224 0.0
C475 C 0.35821 0.27334 0.49735 0.0
O476 O 0.38861 0.2685 0.51653 0.0
C477 C 0.4985 0.44619 0.55399 0.0
O478 O 0.46295 0.44131 0.57123 0.0
O479 O 0.45771 0.38536 0.63436 0.0
O480 O 0.3853 0.35629 0.62949 0.0
H481 H 0.54989 0.35293 0.72199 0.0
H482 H 0.38865 0.37171 0.48902 0.0
O483 O 0.34262 0.29425 0.51596 0.0
H484 H 0.33481 0.44984 0.57665 0.0
H485 H 0.20501 0.27693 0.55451 0.0
H486 H 0.31911 0.28679 0.65459 0.0
H487 H 0.33621 0.3863 0.60587 0.0
H488 H 0.28072 0.30916 0.53094 0.0
O489 O 0.50813 0.41616 0.55829 0.0
H490 H 0.48621 0.34087 0.67798 0.0
H491 H 0.56516 0.39371 0.56827 0.0
H492 H 0.24394 0.25455 0.67957 0.0
H493 H 0.38788 0.43504 0.45852 0.0
H494 H 0.18629 0.2496 0.6294 0.0
H495 H 0.36066 0.47452 0.50236 0.0
O496 O 0.3652 0.27527 0.59738 0.0
H497 H 0.4958 0.33185 0.43238 0.0
H498 H 0.49188 0.28597 0.58339 0.0
H499 H 0.507 0.24839 0.52506 0.0
H500 H 0.50906 0.27132 0.44893 0.0
H501 H 0.48017 0.36808 0.49163 0.0
H502 H 0.62981 0.40668 0.61117 0.0
H503 H 0.62235 0.38614 0.68859 0.0
O504 O 0.43484 0.29867 0.61588 0.0
C505 C 0.42184 0.37885 0.64925 0.0
C506 C 0.55353 0.36188 0.68825 0.0
C507 C 0.5984 0.39211 0.62606 0.0
N508 N 0.52196 0.36626 0.62055 0.0
C509 C 0.51757 0.35497 0.66313 0.0
C510 C 0.56172 0.38476 0.60196 0.0
C511 C 0.59419 0.38056 0.6695 0.0
C512 C 0.37658 0.38856 0.50825 0.0
N513 N 0.36225 0.37514 0.54911 0.0
C514 C 0.37631 0.42449 0.49083 0.0
C515 C 0.36115 0.44668 0.51549 0.0
C516 C 0.34668 0.43287 0.55719 0.0
C517 C 0.34763 0.39693 0.57362 0.0
C518 C 0.22987 0.27907 0.57672 0.0
C519 C 0.29427 0.285 0.63265 0.0
C520 C 0.27277 0.29725 0.56355 0.0
N521 N 0.3044 0.30042 0.59157 0.0
C522 C 0.25172 0.26656 0.64693 0.0
C523 C 0.21938 0.26372 0.61875 0.0
C524 C 0.39419 0.26988 0.61622 0.0
C525 C 0.49512 0.32163 0.46544 0.0
C526 C 0.4926 0.29604 0.55032 0.0
C527 C 0.50129 0.27472 0.51745 0.0
C528 C 0.50248 0.28764 0.47474 0.0
N529 N 0.4853 0.32929 0.54092 0.0
C530 C 0.4865 0.34219 0.49915 0.0
Co531 Co 0.80024 0.68515 0.10764 0.0
Co532 Co 0.7233 0.57856 0.09064 0.0
O533 O 0.75612 0.63953 0.06927 0.0
C534 C 0.84807 0.68931 0.02755 0.0
O535 O 0.84317 0.65134 0.037 0.0
C536 C 0.65391 0.58213 0.0364 0.0
O537 O 0.6614 0.61659 0.05886 0.0
O538 O 0.69306 0.59646 0.1313 0.0
O539 O 0.75425 0.65574 0.15406 0.0
H540 H 0.65369 0.46213 0.20222 0.0
H541 H 0.78323 0.71975 0.02733 0.0
O542 O 0.83955 0.71029 0.05581 0.0
H543 H 0.71726 0.76391 0.13985 0.0
H544 H 0.89869 0.84676 0.13073 0.0
H545 H 0.87159 0.72481 0.25032 0.0
H546 H 0.7485 0.71887 0.15795 0.0
H547 H 0.85401 0.77508 0.09254 0.0
O548 O 0.67682 0.56436 0.04408 0.0
H549 H 0.69734 0.53696 0.17683 0.0
H550 H 0.67572 0.4923 0.04639 0.0
H551 H 0.91661 0.80711 0.26479 0.0
H552 H 0.75237 0.76516 0.00783 0.0
H553 H 0.92606 0.86107 0.20627 0.0
H554 H 0.71945 0.78837 0.0644 0.0
O555 O 0.82285 0.64623 0.1131 0.0
H556 H 0.77649 0.56562 0.94508 0.0
H557 H 0.77264 0.53168 0.10003 0.0
H558 H 0.81083 0.50904 0.04985 0.0
H559 H 0.81237 0.5255 0.97164 0.0
H560 H 0.74079 0.58978 0.99677 0.0
H561 H 0.63143 0.41692 0.07026 0.0
H562 H 0.62026 0.40136 0.14874 0.0
O563 O 0.76743 0.59028 0.14035 0.0
C564 C 0.71444 0.62657 0.15903 0.0
C565 C 0.65844 0.46845 0.16794 0.0
C566 C 0.6459 0.44308 0.09391 0.0
N567 N 0.68953 0.51919 0.11021 0.0
C568 C 0.68331 0.51085 0.15339 0.0
C569 C 0.67098 0.4859 0.08058 0.0
C570 C 0.63966 0.43438 0.13793 0.0
C571 C 0.77173 0.73164 0.05288 0.0
N572 N 0.77381 0.72113 0.09512 0.0
C573 C 0.75302 0.75655 0.04128 0.0
C574 C 0.73432 0.76929 0.07291 0.0
C575 C 0.73335 0.75582 0.11525 0.0
C576 C 0.75241 0.73091 0.12557 0.0
C577 C 0.89083 0.81835 0.14959 0.0
C578 C 0.87735 0.74668 0.22308 0.0
C579 C 0.86383 0.77476 0.12559 0.0
N580 N 0.85005 0.73318 0.14961 0.0
C581 C 0.90348 0.79551 0.23259 0.0
C582 C 0.90812 0.82722 0.19689 0.0
C583 C 0.80763 0.61872 0.14192 0.0
C584 C 0.77607 0.5583 0.9791 0.0
C585 C 0.77411 0.5399 0.06625 0.0
C586 C 0.79544 0.52665 0.03791 0.0
C587 C 0.79625 0.53584 0.99403 0.0
N588 N 0.75451 0.56204 0.05135 0.0
C589 C 0.75567 0.57167 0.00847 0.0
Co590 Co 0.36842 0.03175 0.0879 0.0
Co591 Co 0.47343 0.116 0.08062 0.0
O592 O 0.42263 0.06455 0.05858 0.0
C593 C 0.34986 0.06057 0.00678 0.0
O594 O 0.37609 0.0997 0.02205 0.0
C595 C 0.50199 0.05262 0.05918 0.0
O596 O 0.46951 0.02548 0.08278 0.0
O597 O 0.47052 0.0881 0.13667 0.0
O598 O 0.39975 0.03717 0.14361 0.0
H599 H 0.56455 0.23384 0.18902 0.0
H600 H 0.38692 0.99723 0.0083 0.0
O601 O 0.33872 0.02794 0.03107 0.0
H602 H 0.35469 0.88732 0.11989 0.0
H603 H 0.21187 0.91425 0.0965 0.0
H604 H 0.3347 0.03668 0.17371 0.0
H605 H 0.35354 0.95425 0.13724 0.0
H606 H 0.28292 0.95589 0.06185 0.0
O607 O 0.5099 0.09179 0.05579 0.0
H608 H 0.49834 0.169 0.16152 0.0
H609 H 0.56088 0.17236 0.04486 0.0
H610 H 0.26471 0.99503 0.21003 0.0
H611 H 0.38804 0.93065 0.98942 0.0
H612 H 0.20264 0.93331 0.17135 0.0
H613 H 0.37177 0.87508 0.04543 0.0
O614 O 0.3673 0.08494 0.10431 0.0
H615 H 0.46575 0.12303 0.91848 0.0
H616 H 0.48335 0.20106 0.0561 0.0
H617 H 0.4824 0.2353 0.98711 0.0
H618 H 0.47352 0.19617 0.91769 0.0
H619 H 0.46686 0.09002 0.98813 0.0
H620 H 0.62802 0.23705 0.07119 0.0
H621 H 0.63005 0.26831 0.1437 0.0
O622 O 0.43657 0.13956 0.10637 0.0
C623 C 0.43886 0.05942 0.1579 0.0
C624 C 0.56404 0.22062 0.15731 0.0
C625 C 0.59967 0.22238 0.0912 0.0
N626 N 0.52566 0.16716 0.10154 0.0
C627 C 0.52657 0.18398 0.14154 0.0
C628 C 0.56162 0.18571 0.07651 0.0
C629 C 0.60079 0.23991 0.13189 0.0
C630 C 0.37919 0.97295 0.03267 0.0
N631 N 0.36935 0.97925 0.07359 0.0
C632 C 0.38014 0.93541 0.02187 0.0
C633 C 0.3711 0.9043 0.05334 0.0
C634 C 0.36155 0.91116 0.09513 0.0
C635 C 0.36097 0.94912 0.10476 0.0
C636 C 0.23878 0.94083 0.1138 0.0
C637 C 0.30805 1.00952 0.15684 0.0
C638 C 0.27899 0.96467 0.09425 0.0
N639 N 0.31303 0.99842 0.11586 0.0
C640 C 0.2684 0.9862 0.17751 0.0
C641 C 0.23359 0.9516 0.15578 0.0
C642 C 0.39587 0.12412 0.11317 0.0
C643 C 0.46998 0.14054 0.9485 0.0
C644 C 0.4797 0.18396 0.02599 0.0
C645 C 0.47918 0.20349 0.98704 0.0
C646 C 0.47424 0.18153 0.94809 0.0
N647 N 0.47557 0.14377 0.02612 0.0
C648 C 0.47081 0.12208 0.98805 0.0
Co649 Co 0.03413 0.33522 0.09083 0.0
Co650 Co 0.95283 0.36079 0.08629 0.0
O651 O 0.99944 0.35547 0.06105 0.0
C652 C 0.994 0.28038 0.01456 0.0
O653 O 0.95672 0.26997 0.03187 0.0
C654 C 1.01611 0.44795 0.05211 0.0
O655 O 0.04554 0.44361 0.07405 0.0
O656 O 0.98914 0.39133 0.13871 0.0
O657 O 0.03922 0.3704 0.14297 0.0
H658 H 0.84714 0.34555 0.20021 0.0
H659 H 0.05851 0.37689 0.00479 0.0
O660 O 1.0289 0.30108 0.03727 0.0
H661 H 0.18691 0.46158 0.09998 0.0
H662 H 0.14817 0.29132 0.10344 0.0
H663 H 0.03835 0.30922 0.18061 0.0
H664 H 0.12073 0.39957 0.12838 0.0
H665 H 0.103 0.31547 0.06442 0.0
O666 O 0.97607 0.41858 0.05512 0.0
H667 H 0.90599 0.33741 0.1695 0.0
H668 H 0.89816 0.39624 0.05309 0.0
H669 H 0.08402 0.28708 0.221 0.0
H670 H 0.1241 0.43831 0.97493 0.0
H671 H 0.14018 0.27921 0.18281 0.0
H672 H 0.18897 0.48114 0.02264 0.0
O673 O 0.98186 0.28483 0.11482 0.0
H674 H 0.91921 0.33183 0.92675 0.0
H675 H 0.86418 0.28574 0.07367 0.0
H676 H 0.81904 0.24481 0.01114 0.0
H677 H 0.84576 0.26802 0.93647 0.0
H678 H 0.96473 0.37052 0.99088 0.0
H679 H 0.83934 0.40526 0.0826 0.0
H680 H 0.81342 0.37981 0.15669 0.0
O681 O 0.92994 0.30277 0.11723 0.0
C682 C 1.02111 0.39081 0.15752 0.0
C683 C 0.8583 0.35699 0.16797 0.0
C684 C 0.85397 0.39056 0.10201 0.0
N685 N 0.90616 0.36708 0.10987 0.0
C686 C 0.89175 0.35257 0.15045 0.0
C687 C 0.88753 0.38563 0.08558 0.0
C688 C 0.8394 0.37621 0.14355 0.0
C689 C 0.08668 0.39509 0.02571 0.0
N690 N 0.08589 0.3843 0.06821 0.0
C691 C 0.1237 0.42997 0.00863 0.0
C692 C 0.16006 0.45402 0.03543 0.0
C693 C 0.1589 0.4431 0.07884 0.0
C694 C 0.12129 0.40802 0.09478 0.0
C695 C 0.12441 0.29562 0.12062 0.0
C696 C 0.06278 0.30594 0.16357 0.0
C697 C 0.0985 0.30887 0.09862 0.0
N698 N 0.0686 0.31447 0.12033 0.0
C699 C 0.08838 0.29313 0.18664 0.0
C700 C 0.11971 0.28843 0.16504 0.0
C701 C 0.94411 0.27662 0.12535 0.0
C702 C 0.90688 0.32155 0.9589 0.0
C703 C 0.87656 0.29581 0.04157 0.0
C704 C 0.85055 0.27266 0.00602 0.0
C705 C 0.86571 0.28573 0.96437 0.0
N706 N 0.91698 0.33062 0.036 0.0
C707 C 0.93242 0.34349 0.99534 0.0
Co708 Co 0.37137 0.36827 0.91251 0.0
Co709 Co 0.41147 0.47553 0.89062 0.0
O710 O 0.40255 0.42894 0.92796 0.0
C711 C 0.32881 0.37693 0.98848 0.0
O712 O 0.32017 0.40219 0.96476 0.0
C713 C 0.49916 0.49598 0.92128 0.0
O714 O 0.48792 0.45764 0.90518 0.0
O715 O 0.43255 0.45295 0.84395 0.0
O716 O 0.39472 0.38044 0.85276 0.0
H717 H 0.40391 0.54363 0.75114 0.0
H718 H 0.43011 0.40149 0.99018 0.0
O719 O 0.3476 0.35782 0.97226 0.0
H720 H 0.48495 0.32445 0.90244 0.0
H721 H 0.31196 0.21063 0.94513 0.0
H722 H 0.32166 0.31502 0.83545 0.0
H723 H 0.42077 0.32842 0.87785 0.0
H724 H 0.35198 0.28916 0.96137 0.0
O725 O 0.47273 0.51033 0.91693 0.0
H726 H 0.39078 0.48309 0.79877 0.0
H727 H 0.45576 0.57104 0.90331 0.0
H728 H 0.2815 0.23691 0.81777 0.0
H729 H 0.49414 0.39809 0.01624 0.0
H730 H 0.27659 0.18409 0.87279 0.0
H731 H 0.52205 0.35941 0.97215 0.0
O732 O 0.32104 0.37203 0.88949 0.0
H733 H 0.39817 0.51402 0.04392 0.0
H734 H 0.3466 0.50472 0.89293 0.0
H735 H 0.31538 0.52793 0.95057 0.0
H736 H 0.3411 0.53258 0.02671 0.0
H737 H 0.42839 0.49085 0.98533 0.0
H738 H 0.47015 0.6327 0.85666 0.0
H739 H 0.44393 0.6191 0.78005 0.0
O740 O 0.3503 0.43988 0.86424 0.0
C741 C 0.41873 0.4142 0.83085 0.0
C742 C 0.41537 0.54997 0.7845 0.0
C743 C 0.45257 0.59996 0.84373 0.0
N744 N 0.42207 0.52356 0.85386 0.0
C745 C 0.40787 0.51581 0.81167 0.0
C746 C 0.44442 0.56497 0.86995 0.0
C747 C 0.43785 0.5923 0.80074 0.0
C748 C 0.44145 0.38381 0.97135 0.0
N749 N 0.42109 0.36433 0.93308 0.0
C750 C 0.47799 0.38233 0.98603 0.0
C751 C 0.49371 0.36074 0.96122 0.0
C752 C 0.47293 0.34116 0.92208 0.0
C753 C 0.43658 0.34347 0.90835 0.0
C754 C 0.31394 0.23332 0.92086 0.0
C755 C 0.31982 0.2923 0.8595 0.0
C756 C 0.33646 0.27779 0.92991 0.0
N757 N 0.33947 0.30665 0.89926 0.0
C758 C 0.29693 0.24807 0.84935 0.0
C759 C 0.29412 0.21845 0.88026 0.0
C760 C 0.31843 0.40079 0.86733 0.0
C761 C 0.38685 0.51233 0.01084 0.0
C762 C 0.3581 0.50688 0.92596 0.0
C763 C 0.3403 0.52004 0.95846 0.0
C764 C 0.35477 0.52266 0.00117 0.0
N765 N 0.38952 0.49679 0.93571 0.0
C766 C 0.404 0.49945 0.97749 0.0
Co767 Co 0.69409 0.0342 0.92022 0.0
Co768 Co 0.62726 0.92485 0.9336 0.0
O769 O 0.66442 0.97477 0.89948 0.0
C770 C 0.64142 0.02925 0.84439 0.0
O771 O 0.60752 0.99913 0.86433 0.0
C772 C 0.69354 0.90735 0.89497 0.0
O773 O 0.7227 0.94556 0.91039 0.0
O774 O 0.67244 0.94437 0.98042 0.0
O775 O 0.71034 1.01725 0.97624 0.0
H776 H 0.55375 0.8457 0.06835 0.0
H777 H 0.71483 1.0088 0.83624 0.0
O778 O 0.67779 0.05016 0.86445 0.0
H779 H 0.85434 0.08719 0.9169 0.0
H780 H 0.77373 0.19458 0.89711 0.0
H781 H 0.69907 0.07855 0.00319 0.0
H782 H 0.78709 0.07746 0.94866 0.0
H783 H 0.7497 0.11866 0.87776 0.0
O784 O 0.65341 0.89259 0.90336 0.0
H785 H 0.60022 0.90998 0.02502 0.0
H786 H 0.57626 0.83031 0.91384 0.0
H787 H 0.72286 0.15412 0.02406 0.0
H788 H 0.78125 1.0183 0.80288 0.0
H789 H 0.75755 0.21212 0.96958 0.0
H790 H 0.85169 0.05758 0.84335 0.0
O791 O 0.64062 0.02699 0.94617 0.0
H792 H 0.57213 0.89456 0.77924 0.0
H793 H 0.53248 0.89426 0.93132 0.0
H794 H 0.47654 0.87303 0.8735 0.0
H795 H 0.49625 0.87307 0.79683 0.0
H796 H 0.62714 0.91615 0.83796 0.0
H797 H 0.52991 0.76505 0.95603 0.0
H798 H 0.51824 0.77257 0.03383 0.0
O799 O 0.60072 0.95705 0.96377 0.0
C800 C 0.7011 0.98171 0.99491 0.0
C801 C 0.55849 0.842 0.03446 0.0
C802 C 0.54517 0.79674 0.97143 0.0
N803 N 0.59069 0.87386 0.96694 0.0
C804 C 0.58466 0.87829 0.00975 0.0
C805 C 0.57155 0.83376 0.94774 0.0
C806 C 0.53862 0.80098 0.01508 0.0
C807 C 0.74531 0.02602 0.85408 0.0
N808 N 0.74698 0.04216 0.89469 0.0
C809 C 0.78284 0.03124 0.83501 0.0
C810 C 0.82233 0.05325 0.85774 0.0
C811 C 0.82382 0.06979 0.89903 0.0
C812 C 0.7856 0.0639 0.91706 0.0
C813 C 0.75779 0.16937 0.92074 0.0
C814 C 0.71627 0.10401 0.98017 0.0
C815 C 0.74423 0.12636 0.91001 0.0
N816 N 0.72274 0.09422 0.93921 0.0
C817 C 0.72931 0.14667 0.99203 0.0
C818 C 0.74923 0.1793 0.96166 0.0
C819 C 0.60819 0.99626 0.96453 0.0
C820 C 0.56309 0.89421 0.81255 0.0
C821 C 0.54132 0.89443 0.89804 0.0
C822 C 0.50949 0.88228 0.86544 0.0
C823 C 0.52055 0.88225 0.82243 0.0
N824 N 0.583 0.90621 0.88809 0.0
C825 C 0.59407 0.9062 0.84598 0.0
Co826 Co 0.05135 0.71228 0.91031 0.0
Co827 Co 0.12842 0.68258 0.89956 0.0
O828 O 0.08513 0.68722 0.93155 0.0
C829 C 0.09473 0.75605 0.99009 0.0
O830 O 0.13104 0.76829 0.96989 0.0
C831 C 0.06757 0.59391 0.93236 0.0
O832 O 0.03654 0.59789 0.91333 0.0
O833 O 0.08712 0.65522 0.8499 0.0
O834 O 0.04567 0.68643 0.85188 0.0
H835 H 0.21415 0.69281 0.76848 0.0
H836 H 1.02676 0.65643 0.98812 0.0
O837 O 0.05861 0.73788 0.96912 0.0
H838 H 0.89761 0.58953 0.89112 0.0
H839 H 0.93894 0.75707 0.92623 0.0
H840 H 0.04797 0.75688 0.83039 0.0
H841 H 0.96456 0.65504 0.86916 0.0
H842 H 0.98266 0.72451 0.94986 0.0
O843 O 0.10717 0.62371 0.92753 0.0
H844 H 0.16068 0.70183 0.81001 0.0
H845 H 0.18762 0.64876 0.92108 0.0
H846 H 1.00462 0.7894 0.80524 0.0
H847 H 0.96053 0.5912 0.01151 0.0
H848 H 0.94943 0.78936 0.85327 0.0
H849 H 0.89528 0.55733 0.96287 0.0
O850 O 0.10404 0.76507 0.89079 0.0
H851 H 0.17414 0.70635 0.05682 0.0
H852 H 0.21979 0.75511 0.90795 0.0
H853 H 0.27091 0.79236 0.96913 0.0
H854 H 0.24818 0.76792 0.04418 0.0
H855 H 0.12394 0.67034 0.99482 0.0
H856 H 0.24125 0.63891 0.88071 0.0
H857 H 0.25485 0.66111 0.80386 0.0
O858 O 0.14966 0.74182 0.87203 0.0
C859 C 0.0597 0.66417 0.83281 0.0
C860 C 0.20864 0.68317 0.80199 0.0
C861 C 0.22379 0.65284 0.86496 0.0
N862 N 0.17133 0.67613 0.86797 0.0
C863 C 0.17852 0.68833 0.8257 0.0
C864 C 0.19335 0.65841 0.88763 0.0
C865 C 0.23142 0.66532 0.82185 0.0
C866 C 0.9983 0.64241 0.96713 0.0
N867 N 0.99918 0.66029 0.92785 0.0
C868 C 0.96097 0.60521 0.98038 0.0
C869 C 0.92442 0.58615 0.95301 0.0
C870 C 0.92574 0.60418 0.91274 0.0
C871 C 0.96372 0.64128 0.9005 0.0
C872 C 0.96264 0.757 0.9049 0.0
C873 C 1.02379 0.75646 0.8513 0.0
C874 C 0.98758 0.73872 0.91814 0.0
N875 N 1.01733 0.73817 0.89123 0.0
C876 C 0.99947 0.77509 0.83698 0.0
C877 C 0.96858 0.77515 0.86396 0.0
C878 C 0.13849 0.77101 0.87282 0.0
C879 C 0.18453 0.71707 0.02423 0.0
C880 C 0.20968 0.74429 0.94052 0.0
C881 C 0.23879 0.76545 0.97502 0.0
C882 C 0.22604 0.75169 0.01713 0.0
N883 N 0.16905 0.71033 0.94774 0.0
C884 C 0.15631 0.69668 0.98895 0.0
Co885 Co 0.35961 0.02357 0.40728 0.0
Co886 Co 0.3945 0.95003 0.39587 0.0
O887 O 0.38321 0.9888 0.42953 0.0
C888 C 0.30128 0.96746 0.47328 0.0
O889 O 0.29772 0.93505 0.44992 0.0
C890 C 0.47973 1.0144 0.43543 0.0
O891 O 0.47099 0.04354 0.42033 0.0
O892 O 0.42285 0.99383 0.35055 0.0
O893 O 0.39746 0.04003 0.35595 0.0
H894 H 0.39771 0.87257 0.2612 0.0
H895 H 0.39448 0.03633 0.49769 0.0
O896 O 0.32158 1.00586 0.4586 0.0
H897 H 0.48098 0.17768 0.42788 0.0
H898 H 0.30594 0.129 0.4237 0.0
H899 H 0.33196 0.03889 0.321 0.0
H900 H 0.42238 0.11572 0.3872 0.0
H901 H 0.33515 0.08311 0.44946 0.0
O902 O 0.45254 0.97412 0.42829 0.0
H903 H 0.38219 0.92155 0.30382 0.0
H904 H 0.43398 0.89591 0.41736 0.0
H905 H 0.30297 0.08449 0.29377 0.0
H906 H 0.4524 0.09747 0.53967 0.0
H907 H 0.28988 0.13008 0.34526 0.0
H908 H 0.49629 0.16874 0.50471 0.0
O909 O 0.31348 0.97416 0.37292 0.0
H910 H 0.36502 0.8962 0.54852 0.0
H911 H 0.32615 0.85681 0.3945 0.0
H912 H 0.28841 0.8018 0.45026 0.0
H913 H 0.30791 0.82137 0.5279 0.0
H914 H 0.4015 0.95031 0.49173 0.0
H915 H 0.45055 0.84697 0.37589 0.0
H916 H 0.43221 0.83492 0.29726 0.0
O917 O 0.33696 0.92694 0.36269 0.0
C918 C 0.41985 0.02604 0.33733 0.0
C919 C 0.40574 0.87744 0.29547 0.0
C920 C 0.43545 0.86313 0.35983 0.0
N921 N 0.40685 0.91127 0.36306 0.0
C922 C 0.39689 0.90502 0.31979 0.0
C923 C 0.42609 0.89093 0.38312 0.0
C924 C 0.42513 0.85637 0.31571 0.0
C925 C 0.4131 0.06731 0.4823 0.0
N926 N 0.40489 0.07245 0.44 0.0
C927 C 0.44602 0.10179 0.50622 0.0
C928 C 0.47065 0.14175 0.48658 0.0
C929 C 0.46212 0.14677 0.44345 0.0
C930 C 0.42898 0.11154 0.42052 0.0
C931 C 0.31151 0.10931 0.40092 0.0
C932 C 0.32643 0.0587 0.3436 0.0
C933 C 0.32794 0.08318 0.41535 0.0
N934 N 0.3356 0.05867 0.38672 0.0
C935 C 0.30991 0.08438 0.328 0.0
C936 C 0.30254 0.10993 0.35691 0.0
C937 C 0.30927 0.93955 0.35603 0.0
C938 C 0.35642 0.88721 0.51478 0.0
C939 C 0.33471 0.86557 0.42822 0.0
C940 C 0.31332 0.83427 0.45964 0.0
C941 C 0.32432 0.84525 0.5032 0.0
N942 N 0.36619 0.90662 0.43985 0.0
C943 C 0.37707 0.91767 0.48248 0.0
Co944 Co 0.05211 0.34694 0.39895 0.0
Co945 Co 0.13839 0.45134 0.40661 0.0
O946 O 0.08906 0.40078 0.4299 0.0
C947 C 0.0866 0.32778 0.47651 0.0
O948 O 0.12501 0.35256 0.46025 0.0
C949 C 0.07833 0.4803 0.43826 0.0
O950 O 0.04825 0.44778 0.41523 0.0
O951 O 0.10497 0.44875 0.35332 0.0
O952 O 0.05166 0.3789 0.34649 0.0
H953 H 0.24575 0.53996 0.29361 0.0
H954 H 1.02782 0.36693 0.48405 0.0
O955 O 0.05274 0.31615 0.45282 0.0
H956 H 0.90611 0.33635 0.38398 0.0
H957 H 0.92584 0.19452 0.38445 0.0
H958 H 0.04724 0.31471 0.30934 0.0
H959 H 0.9694 0.33281 0.35837 0.0
H960 H 0.97678 0.26198 0.42406 0.0
O961 O 0.11767 0.48834 0.43703 0.0
H962 H 0.18332 0.47452 0.32273 0.0
H963 H 0.1992 0.539 0.44307 0.0
H964 H 0.99692 0.24819 0.26848 0.0
H965 H 0.96491 0.37014 0.51118 0.0
H966 H 0.93502 0.18811 0.30571 0.0
H967 H 0.90346 0.35487 0.46098 0.0
O968 O 0.10328 0.34484 0.37624 0.0
H969 H 0.16377 0.44927 0.56698 0.0
H970 H 0.22515 0.46012 0.42277 0.0
H971 H 0.26706 0.4616 0.48787 0.0
H972 H 0.23643 0.45633 0.56062 0.0
H973 H 0.12261 0.447 0.50107 0.0
H974 H 0.26156 0.60534 0.4152 0.0
H975 H 0.2853 0.60601 0.33999 0.0
O976 O 0.15841 0.41383 0.37609 0.0
C977 C 0.07265 0.41779 0.33323 0.0
C978 C 0.23575 0.54006 0.32645 0.0
C979 C 0.24459 0.57677 0.39467 0.0
N980 N 0.18772 0.50296 0.38453 0.0
C981 C 0.20048 0.50307 0.34311 0.0
C982 C 0.20918 0.53919 0.41023 0.0
C983 C 0.25791 0.57712 0.35248 0.0
C984 C 1.00096 0.35955 0.46213 0.0
N985 N 1.00203 0.34897 0.41981 0.0
C986 C 0.96552 0.36172 0.47763 0.0
C987 C 0.9311 0.35324 0.44943 0.0
C988 C 0.93257 0.34285 0.40623 0.0
C989 C 0.96853 0.34095 0.3919 0.0
C990 C 0.9525 0.22072 0.36778 0.0
C991 C 1.02067 0.28847 0.32597 0.0
C992 C 0.98158 0.25884 0.3901 0.0
N993 N 1.01466 0.29239 0.36895 0.0
C994 C 0.99232 0.25086 0.30265 0.0
C995 C 0.95773 0.21702 0.32366 0.0
C996 C 0.14206 0.37332 0.36675 0.0
C997 C 0.17756 0.45184 0.53547 0.0
C998 C 0.21153 0.45761 0.45431 0.0
C999 C 0.23547 0.4586 0.49105 0.0
C1000 C 0.21829 0.45571 0.53187 0.0
N1001 N 0.17161 0.4538 0.4581 0.0
C1002 C 0.15447 0.45075 0.49801 0.0
Co1003 Co 0.6965 0.65618 0.42527 0.0
Co1004 Co 0.63301 0.70138 0.43802 0.0
O1005 O 0.6728 0.69143 0.40459 0.0
C1006 C 0.66407 0.62495 0.33607 0.0
O1007 O 0.62741 0.62253 0.34655 0.0
C1008 C 0.70041 0.78831 0.40472 0.0
O1009 O 0.72935 0.77981 0.42157 0.0
O1010 O 0.67545 0.72356 0.48788 0.0
O1011 O 0.69842 0.6754 0.48701 0.0
H1012 H 0.55394 0.70021 0.57136 0.0
H1013 H 0.74009 0.7171 0.35352 0.0
O1014 O 0.69462 0.63648 0.36424 0.0
H1015 H 0.85162 0.76088 0.4696 0.0
H1016 H 0.78597 0.58409 0.41071 0.0
H1017 H 0.67942 0.59734 0.49925 0.0
H1018 H 0.77771 0.69928 0.47953 0.0
H1019 H 0.7627 0.63656 0.39175 0.0
O1020 O 0.66008 0.7618 0.41121 0.0
H1021 H 0.60102 0.68335 0.52778 0.0
H1022 H 0.58294 0.74598 0.41941 0.0
H1023 H 0.70194 0.54468 0.51957 0.0
H1024 H 0.81372 0.77845 0.342 0.0
H1025 H 0.75406 0.5365 0.47402 0.0
H1026 H 0.87004 0.80082 0.40036 0.0
O1027 O 0.63728 0.60705 0.43396 0.0
H1028 H 0.58565 0.68703 0.28156 0.0
H1029 H 0.53872 0.63659 0.42973 0.0
H1030 H 0.48575 0.60553 0.36891 0.0
H1031 H 0.5091 0.6308 0.29419 0.0
H1032 H 0.63773 0.71661 0.34314 0.0
H1033 H 0.53596 0.76389 0.46194 0.0
H1034 H 0.52117 0.74091 0.53847 0.0
O1035 O 0.60499 0.64035 0.46417 0.0
C1036 C 0.69278 0.7038 0.50654 0.0
C1037 C 0.56002 0.71028 0.538 0.0
C1038 C 0.54997 0.74606 0.4766 0.0
N1039 N 0.59444 0.7134 0.47103 0.0
C1040 C 0.58653 0.70068 0.51312 0.0
C1041 C 0.57664 0.73589 0.4527 0.0
C1042 C 0.54168 0.73315 0.51954 0.0
C1043 C 0.76452 0.72633 0.37891 0.0
N1044 N 0.75463 0.70453 0.41711 0.0
C1045 C 0.80612 0.76123 0.37226 0.0
C1046 C 0.83768 0.77381 0.40505 0.0
C1047 C 0.82734 0.75145 0.44393 0.0
C1048 C 0.7854 0.71671 0.44944 0.0
C1049 C 0.76278 0.587 0.43049 0.0
C1050 C 0.70325 0.59501 0.48013 0.0
C1051 C 0.74948 0.61662 0.4199 0.0
N1052 N 0.71955 0.61983 0.44423 0.0
C1053 C 0.71571 0.56496 0.49166 0.0
C1054 C 0.74521 0.56059 0.46625 0.0
C1055 C 0.60748 0.60608 0.45686 0.0
C1056 C 0.57503 0.67588 0.31399 0.0
C1057 C 0.54919 0.64764 0.39729 0.0
C1058 C 0.51901 0.63003 0.363 0.0
C1059 C 0.53212 0.64426 0.32109 0.0
N1060 N 0.59127 0.67851 0.39007 0.0
C1061 C 0.60433 0.69274 0.34907 0.0
C1062 C 0.05408 0.71709 0.10189 0.0
C1063 C 0.09091 0.74189 0.12818 0.0
C1064 C 0.05556 0.72286 0.05738 0.0
C1065 C 0.09438 0.75246 0.03742 0.0
H1066 H 1.02283 0.69633 0.11616 0.0
H1067 H 1.02557 0.70473 0.03884 0.0
S1068 S 0.20076 0.82254 0.09274 0.0
N1069 N 0.16743 0.79588 0.1322 0.0
N1070 N 0.17139 0.80496 0.04745 0.0
C1071 C 0.13223 0.77557 0.0633 0.0
C1072 C 0.13027 0.7705 0.10898 0.0
C1073 C 0.35816 0.38257 0.06287 0.0
C1074 C 0.32405 0.37735 0.03545 0.0
C1075 C 0.35581 0.38542 0.10763 0.0
C1076 C 0.31824 0.38079 0.12678 0.0
H1077 H 0.38721 0.385 0.04978 0.0
H1078 H 0.38316 0.38972 0.12722 0.0
S1079 S 0.22215 0.37206 0.06853 0.0
N1080 N 0.2539 0.37302 0.02976 0.0
N1081 N 0.24779 0.37492 0.11462 0.0
C1082 C 0.28447 0.37719 0.09959 0.0
C1083 C 0.28772 0.37614 0.05375 0.0
C1084 C 0.71504 0.95288 0.11001 0.0
C1085 C 0.74959 0.99201 0.12602 0.0
C1086 C 0.70157 0.94873 0.06641 0.0
C1087 C 0.72157 0.98402 0.03791 0.0
H1088 H 0.69664 0.92641 0.13179 0.0
H1089 H 0.67347 0.91856 0.0559 0.0
S1090 S 0.81658 0.09219 0.06482 0.0
N1091 N 0.80601 0.06519 0.11044 0.0
N1092 N 0.78056 0.05816 0.02899 0.0
C1093 C 0.75801 0.02243 0.05347 0.0
C1094 C 0.77199 0.02624 0.09748 0.0
C1095 C 0.7904 0.10676 0.44272 0.0
C1096 C 0.74811 0.08528 0.45838 0.0
C1097 C 0.79753 0.11343 0.39835 0.0
C1098 C 0.76255 0.09962 0.36847 0.0
H1099 H 0.81802 0.11833 0.46491 0.0
H1100 H 0.83065 0.12893 0.38744 0.0
S1101 S 0.6458 0.04819 0.39533 0.0
N1102 N 0.6712 0.05418 0.44222 0.0
N1103 N 0.68414 0.0677 0.35893 0.0
C1104 C 0.72012 0.08016 0.38441 0.0
C1105 C 0.713 0.0726 0.42938 0.0
C1106 C 0.93915 0.68101 0.42983 0.0
C1107 C 0.97165 0.71427 0.45599 0.0
C1108 C 0.9408 0.68356 0.38466 0.0
C1109 C 0.97408 0.72003 0.36479 0.0
H1110 H 0.9142 0.65152 0.44409 0.0
H1111 H 0.91734 0.6561 0.36527 0.0
S1112 S 0.0632 0.81791 0.41873 0.0
N1113 N 0.03529 0.78634 0.45879 0.0
N1114 N 0.03772 0.79131 0.37392 0.0
C1115 C 1.00442 0.75487 0.39052 0.0
C1116 C 1.00326 0.75204 0.43628 0.0
C1117 C 0.38429 0.30238 0.42536 0.0
C1118 C 0.35331 0.26888 0.45042 0.0
C1119 C 0.37669 0.3046 0.38128 0.0
C1120 C 0.33784 0.2732 0.36072 0.0
H1121 H 0.41342 0.32851 0.44044 0.0
H1122 H 0.40062 0.33228 0.36373 0.0
S1123 S 0.24925 0.17563 0.41223 0.0
N1124 N 0.28453 0.20175 0.45211 0.0
N1125 N 0.27036 0.20458 0.36848 0.0
C1126 C 0.30818 0.23751 0.38509 0.0
C1127 C 0.31577 0.2358 0.43029 0.0
C1128 C 0.95991 0.27186 0.89639 0.0
C1129 C 0.99978 0.29346 0.87558 0.0
C1130 C 0.95823 0.26544 0.94119 0.0
C1131 C 0.99641 0.28011 0.9667 0.0
H1132 H 0.92983 0.25994 0.87792 0.0
H1133 H 0.92672 0.24963 0.95595 0.0
S1134 S 0.10852 0.33101 0.92547 0.0
N1135 N 0.07774 0.32417 0.88224 0.0
N1136 N 0.07502 0.31224 0.96628 0.0
C1137 C 0.03637 0.29933 0.94554 0.0
C1138 C 0.03795 0.30611 0.90002 0.0
C1139 C 0.84459 0.66953 0.94922 0.0
C1140 C 0.8509 0.70089 0.98094 0.0
C1141 C 0.83619 0.67418 0.90566 0.0
C1142 C 0.83545 0.71112 0.89185 0.0
H1143 H 0.84425 0.64012 0.95821 0.0
H1144 H 0.82985 0.64852 0.88274 0.0
S1145 S 0.85729 0.80614 0.95949 0.0
N1146 N 0.86113 0.77276 0.99378 0.0
N1147 N 0.84587 0.78156 0.91171 0.0
C1148 C 0.84506 0.74426 0.9222 0.0
C1149 C 0.85295 0.73929 0.96676 0.0
C1150 C 0.33311 1.01453 0.94038 0.0
C1151 C 0.34269 0.05427 0.95953 0.0
C1152 C 0.33177 1.00947 0.89541 0.0
C1153 C 0.33913 0.04369 0.86796 0.0
H1154 H 0.32713 0.98717 0.96016 0.0
H1155 H 0.32339 0.97804 0.8821 0.0
S1156 S 0.36389 0.15378 0.90153 0.0
N1157 N 0.35891 0.12827 0.9474 0.0
N1158 N 0.35566 0.11839 0.86275 0.0
C1159 C 0.3483 0.08345 0.88656 0.0
C1160 C 0.35013 0.08878 0.93235 0.0
C1161 C 0.27939 0.91652 0.58415 0.0
C1162 C 0.2895 0.95193 0.61134 0.0
C1163 C 0.28065 0.92107 0.53904 0.0
C1164 C 0.29208 0.96121 0.51995 0.0
H1165 H 0.2711 0.88544 0.59777 0.0
H1166 H 0.27395 0.89327 0.51918 0.0
S1167 S 0.31638 0.06229 0.57829 0.0
N1168 N 0.30764 0.02698 0.61667 0.0
N1169 N 0.30984 0.03583 0.53237 0.0
C1170 C 0.30001 0.99614 0.54719 0.0
C1171 C 0.29887 0.99143 0.59283 0.0
C1172 C 0.11902 0.3454 0.59563 0.0
C1173 C 0.07929 0.33105 0.61596 0.0
C1174 C 0.12081 0.34243 0.55059 0.0
C1175 C 0.08283 0.32423 0.52426 0.0
H1176 H 0.14888 0.35882 0.61474 0.0
H1177 H 0.15237 0.35497 0.53636 0.0
S1178 S 0.97 0.27562 0.56334 0.0
N1179 N 1.00088 0.29433 0.60751 0.0
N1180 N 1.00376 0.28748 0.52304 0.0
C1181 C 0.04264 0.30784 0.5447 0.0
C1182 C 0.04102 0.31174 0.59047 0.0
C1183 C 0.70944 0.68028 0.57741 0.0
C1184 C 0.70401 0.71113 0.55382 0.0
C1185 C 0.72007 0.68574 0.62183 0.0
C1186 C 0.72635 0.72261 0.64477 0.0
H1187 H 0.70572 0.65153 0.56145 0.0
H1188 H 0.72515 0.66163 0.63778 0.0
S1189 S 0.71337 0.81193 0.59933 0.0
N1190 N 0.70347 0.77891 0.55771 0.0
N1191 N 0.72401 0.78954 0.64092 0.0
C1192 C 0.71973 0.75314 0.62198 0.0
C1193 C 0.70845 0.74733 0.57672 0.0
C1194 C 0.45973 0.41845 0.76466 0.0
C1195 C 0.42069 0.40782 0.78447 0.0
C1196 C 0.46036 0.41114 0.72014 0.0
C1197 C 0.42202 0.39359 0.69416 0.0
H1198 H 0.48952 0.4313 0.7838 0.0
H1199 H 0.49088 0.41803 0.7064 0.0
S1200 S 0.31288 0.36724 0.73131 0.0
N1201 N 0.34404 0.38326 0.7754 0.0
N1202 N 0.345 0.3709 0.69183 0.0
C1203 C 0.3834 0.3857 0.71375 0.0
C1204 C 0.38279 0.39239 0.75895 0.0
C1205 C 0.60359 1.00056 0.72718 0.0
C1206 C 0.64226 0.02549 0.70509 0.0
C1207 C 0.6029 1.00324 0.77245 0.0
C1208 C 0.64074 0.03153 0.79667 0.0
H1209 H 0.57393 0.97878 0.70944 0.0
H1210 H 0.57274 0.98248 0.78851 0.0
S1211 S 0.74921 0.10664 0.75221 0.0
N1212 N 0.71822 0.08074 0.70968 0.0
N1213 N 0.71722 0.08723 0.79399 0.0
C1214 C 0.67909 0.05798 0.77423 0.0
C1215 C 0.67977 0.05451 0.72858 0.0
C1216 C 1.02716 0.67376 0.7652 0.0
C1217 C 0.04854 0.65453 0.78626 0.0
C1218 C 1.02274 0.67262 0.72042 0.0
C1219 C 0.03865 0.65151 0.6948 0.0
H1220 H 1.01467 0.69109 0.78313 0.0
H1221 H 1.00609 0.68795 0.7057 0.0
S1222 S 0.09183 0.59103 0.73284 0.0
N1223 N 0.08282 0.61053 0.77754 0.0
N1224 N 0.07259 0.60728 0.6925 0.0
C1225 C 0.05769 0.62983 0.71483 0.0
C1226 C 0.0631 0.63161 0.76081 0.0
C1227 C 0.65131 0.62797 0.25615 0.0
C1228 C 0.67252 0.61945 0.29048 0.0
C1229 C 0.66374 0.62883 0.213 0.0
C1230 C 0.69764 0.62118 0.20315 0.0
H1231 H 0.62629 0.63583 0.26278 0.0
H1232 H 0.64793 0.63704 0.18753 0.0
S1233 S 0.75926 0.59158 0.2803 0.0
N1234 N 0.72588 0.59886 0.31077 0.0
N1235 N 0.74919 0.60085 0.23039 0.0
C1236 C 0.71739 0.6105 0.23689 0.0
C1237 C 0.70481 0.60949 0.28041 0.0
C1238 C 0.45145 0.02551 0.222 0.0
C1239 C 0.44544 0.05809 0.2042 0.0
C1240 C 0.44799 1.01844 0.26657 0.0
C1241 C 0.43712 0.04302 0.29423 0.0
H1242 H 0.45639 1.00394 0.20119 0.0
H1243 H 0.4505 0.99134 0.27868 0.0
S1244 S 0.4246 0.13646 0.26219 0.0
N1245 N 0.43332 0.11826 0.21654 0.0
N1246 N 0.42669 0.10532 0.30044 0.0
C1247 C 0.43498 0.07827 0.27671 0.0
C1248 C 0.43886 0.08553 0.23148 0.0
C1249 C 0.09268 0.43433 0.257 0.0
C1250 C 0.06221 0.42517 0.28926 0.0
C1251 C 0.07976 0.42719 0.21336 0.0
C1252 C 0.03612 0.41116 0.20073 0.0
H1253 H 0.1257 0.44305 0.26564 0.0
H1254 H 0.10348 0.43127 0.18965 0.0
S1255 S 0.94622 0.39097 0.27323 0.0
N1256 N 0.98846 0.40551 0.30616 0.0
N1257 N 0.96418 0.39336 0.22386 0.0
C1258 C 1.00659 0.40692 0.23256 0.0
C1259 C 1.01964 0.41342 0.27706 0.0
C1260 C 0.23982 0.9278 0.31953 0.0
C1261 C 0.26994 0.91349 0.32712 0.0
C1262 C 0.20258 0.90442 0.2927 0.0
C1263 C 0.19355 0.86555 0.27204 0.0
H1264 H 0.24467 0.95731 0.33476 0.0
H1265 H 0.18021 0.91645 0.28902 0.0
S1266 S 0.26297 0.81493 0.27829 0.0
N1267 N 0.28847 0.85838 0.30972 0.0
N1268 N 0.21943 0.81496 0.25924 0.0
C1269 C 0.22396 0.85143 0.27831 0.0
C1270 C 0.26175 0.87514 0.30577 0.0
C1271 C 0.23983 0.37431 0.31502 0.0
C1272 C 0.22332 0.33149 0.29912 0.0
C1273 C 0.21365 0.38734 0.33657 0.0
C1274 C 0.16936 0.35833 0.34368 0.0
H1275 H 0.27368 0.39834 0.31113 0.0
H1276 H 0.22854 0.4206 0.34794 0.0
S1277 S 0.10893 0.24273 0.3072 0.0
N1278 N 0.15891 0.26039 0.29118 0.0
N1279 N 0.10988 0.28438 0.33163 0.0
C1280 C 0.15218 0.3154 0.32762 0.0
C1281 C 0.17896 0.30217 0.30549 0.0
C1282 C 0.69639 0.86915 0.32484 0.0
C1283 C 0.74036 0.89776 0.31505 0.0
C1284 C 0.68388 0.83465 0.35407 0.0
C1285 C 0.71463 0.82675 0.37524 0.0
H1286 H 0.67108 0.87342 0.30986 0.0
H1287 H 0.64962 0.81378 0.35984 0.0
S1288 S 0.83419 0.89169 0.36122 0.0
N1289 N 0.81472 0.91529 0.3294 0.0
N1290 N 0.79164 0.85113 0.3838 0.0
C1291 C 0.75878 0.8552 0.36584 0.0
C1292 C 0.77148 0.89036 0.33607 0.0
C1293 C 0.84686 0.18297 0.1816 0.0
C1294 C 0.86079 0.15297 0.19121 0.0
C1295 C 0.87355 0.22237 0.16049 0.0
C1296 C 0.91578 0.23415 0.14776 0.0
H1297 H 0.81469 0.17599 0.19021 0.0
H1298 H 0.86079 0.24374 0.1541 0.0
S1299 S 0.96874 0.16776 0.16546 0.0
N1300 N 0.92028 0.13854 0.18624 0.0
N1301 N 0.9703 0.21183 0.14698 0.0
C1302 C 0.93026 0.20449 0.1573 0.0
C1303 C 0.90295 0.16431 0.17878 0.0
C1304 C 0.8658 0.62382 0.18319 0.0
C1305 C 0.83312 0.6346 0.18203 0.0
C1306 C 0.91042 0.6545 0.1822 0.0
C1307 C 0.92872 0.70024 0.1796 0.0
H1308 H 0.85645 0.58994 0.18018 0.0
H1309 H 0.93162 0.64103 0.18406 0.0
S1310 S 0.82528 0.75815 0.19751 0.0
N1311 N 0.81127 0.69374 0.20227 0.0
N1312 N 0.91139 0.7648 0.16769 0.0
C1313 C 0.89883 0.7145 0.17218 0.0
C1314 C 0.84582 0.67816 0.18915 0.0
C1315 C 0.39287 0.21139 0.1837 0.0
C1316 C 0.34822 0.19818 0.1846 0.0
C1317 C 0.40839 0.18867 0.15924 0.0
C1318 C 0.38003 0.15146 0.13458 0.0
H1319 H 0.41625 0.23943 0.20242 0.0
H1320 H 0.44279 0.1997 0.16076 0.0
S1321 S 0.26036 0.10463 0.12329 0.0
N1322 N 0.27623 0.14632 0.15661 0.0
N1323 N 0.30486 0.10394 0.11097 0.0
C1324 C 0.3354 0.13863 0.13427 0.0
C1325 C 0.3197 0.16179 0.15909 0.0
C1326 C 0.89178 0.16929 0.62851 0.0
C1327 C 0.85766 0.17832 0.63273 0.0
C1328 C 0.93011 0.19069 0.65427 0.0
C1329 C 0.9359 0.22172 0.68594 0.0
H1330 H 0.88926 0.14593 0.6045 0.0
H1331 H 0.95575 0.18349 0.64854 0.0
S1332 S 0.85451 0.25436 0.71271 0.0
N1333 N 0.83154 0.21909 0.67251 0.0
N1334 N 0.90197 0.25795 0.72178 0.0
C1335 C 0.90115 0.22982 0.69148 0.0
C1336 C 0.8626 0.20861 0.6647 0.0
C1337 C 0.88834 0.66013 0.67328 0.0
C1338 C 0.91708 0.68602 0.64127 0.0
C1339 C 0.86567 0.67503 0.69833 0.0
C1340 C 0.87031 0.71656 0.69259 0.0
H1341 H 0.88387 0.62834 0.67971 0.0
H1342 H 0.84415 0.65341 0.72251 0.0
S1343 S 0.94011 0.79663 0.61147 0.0
N1344 N 0.94779 0.75517 0.60417 0.0
N1345 N 0.90543 0.78272 0.65114 0.0
C1346 C 0.89855 0.74257 0.66027 0.0
C1347 C 0.92173 0.72746 0.63474 0.0
C1348 C 0.39151 0.18586 0.69571 0.0
C1349 C 0.34712 0.15366 0.69636 0.0
C1350 C 0.40677 0.22265 0.66922 0.0
C1351 C 0.37844 0.22884 0.64166 0.0
H1352 H 0.41487 0.18292 0.7162 0.0
H1353 H 0.441 0.24665 0.67086 0.0
S1354 S 0.25932 0.15244 0.62869 0.0
N1355 N 0.27534 0.12994 0.66567 0.0
N1356 N 0.30345 0.19748 0.6153 0.0
C1357 C 0.33401 0.19612 0.64122 0.0
C1358 C 0.31853 0.15911 0.66864 0.0
C1359 C 0.22321 0.85781 0.79986 0.0
C1360 C 0.21533 0.89287 0.80293 0.0
C1361 C 0.19908 0.81928 0.823 0.0
C1362 C 0.16551 0.81346 0.85038 0.0
H1363 H 0.24861 0.85999 0.77948 0.0
H1364 H 0.20667 0.79367 0.81892 0.0
S1365 S 0.13138 0.89498 0.87063 0.0
N1366 N 0.17123 0.91881 0.83619 0.0
N1367 N 0.12591 0.84693 0.87946 0.0
C1368 C 0.15719 0.84826 0.85389 0.0
C1369 C 0.18194 0.88762 0.83032 0.0
C1370 C 0.20836 0.32488 0.8123 0.0
C1371 C 0.20168 0.35185 0.78397 0.0
C1372 C 0.24513 0.3414 0.84002 0.0
C1373 C 0.27739 0.38581 0.84081 0.0
H1374 H 0.18488 0.29058 0.81331 0.0
H1375 H 0.24845 0.31865 0.86055 0.0
S1376 S 0.27527 0.47075 0.77343 0.0
N1377 N 0.23053 0.42577 0.75884 0.0
N1378 N 0.2992 0.45653 0.81084 0.0
C1379 C 0.27082 0.4133 0.81302 0.0
C1380 C 0.23327 0.39645 0.7847 0.0
C1381 C 0.76585 0.88051 0.82593 0.0
C1382 C 0.73692 0.83927 0.8081 0.0
C1383 C 0.75157 0.90188 0.85398 0.0
C1384 C 0.70763 0.8831 0.86571 0.0
H1385 H 0.8 0.8964 0.81852 0.0
H1386 H 0.77542 0.93357 0.86652 0.0
S1387 S 0.61815 0.77589 0.82752 0.0
N1388 N 0.66157 0.78079 0.80403 0.0
N1389 N 0.63526 0.82068 0.85646 0.0
C1390 C 0.6783 0.84202 0.84788 0.0
C1391 C 0.69277 0.82026 0.81928 0.0
C1392 C 0.5221 0.52343 0.53318 0.0
C1393 C 0.52623 0.48625 0.52842 0.0
C1394 C 0.54741 0.56146 0.5094 0.0
C1395 C 0.57769 0.56403 0.47908 0.0
H1396 H 0.49948 0.52349 0.55606 0.0
H1397 H 0.54355 0.58924 0.51535 0.0
S1398 S 0.59839 0.47423 0.45153 0.0
N1399 N 0.5618 0.45402 0.48957 0.0
N1400 N 0.60791 0.52396 0.44395 0.0
C1401 C 0.58101 0.52637 0.47303 0.0
C1402 C 0.55582 0.48806 0.49786 0.0
C1403 C 0.56415 1.01077 0.51064 0.0
C1404 C 0.59781 0.0545 0.5144 0.0
C1405 C 0.52662 0.99817 0.48496 0.0
C1406 C 0.52048 0.02863 0.46189 0.0
H1407 H 0.56677 0.98553 0.52738 0.0
H1408 H 0.50211 0.96415 0.48343 0.0
S1409 S 0.59809 0.14738 0.46023 0.0
N1410 N 0.62202 0.12831 0.49224 0.0
N1411 N 0.55154 0.10497 0.44456 0.0
C1412 C 0.55361 0.07257 0.46544 0.0
C1413 C 0.59211 0.08537 0.49144 0.0
C1414 C 1.02084 0.49094 0.47347 0.0
C1415 C 0.06527 0.50542 0.46734 0.0
C1416 C 1.00714 0.51316 0.50093 0.0
C1417 C 0.03715 0.55112 0.5236 0.0
H1418 H 0.99611 0.46192 0.45699 0.0
H1419 H 0.97263 0.50057 0.50406 0.0
S1420 S 0.15744 0.60302 0.51918 0.0
N1421 N 0.13922 0.56037 0.48669 0.0
N1422 N 0.11392 0.60207 0.53795 0.0
C1423 C 0.08176 0.56592 0.5179 0.0
C1424 C 0.09566 0.54317 0.48999 0.0
C1425 C 0.5495 0.55631 0.97332 0.0
C1426 C 0.54067 0.52004 0.94752 0.0
C1427 C 0.58657 0.57677 0.00097 0.0
C1428 C 0.6166 0.56197 0.00418 0.0
H1429 H 0.52705 0.56842 0.97305 0.0
H1430 H 0.59109 0.60388 0.02075 0.0
S1431 S 0.61067 0.47037 0.9409 0.0
N1432 N 0.56692 0.47186 0.92531 0.0
N1433 N 0.63592 0.51012 0.97669 0.0
C1434 C 0.60887 0.52664 0.97744 0.0
C1435 C 0.5712 0.5058 0.94937 0.0
C1436 C 0.58897 0.0522 0.98854 0.0
C1437 C 0.57931 1.00854 0.98842 0.0
C1438 C 0.56412 0.06599 0.01133 0.0
C1439 C 0.52819 0.03698 0.03545 0.0
H1440 H 0.61631 0.0765 0.97091 0.0
H1441 H 0.57338 0.09987 0.01002 0.0
S1442 S 0.48787 0.91887 0.04576 0.0
N1443 N 0.53034 0.93625 0.0145 0.0
N1444 N 0.48377 0.96184 0.05735 0.0
C1445 C 0.51783 0.9931 0.03558 0.0
C1446 C 0.54321 0.97902 0.01216 0.0
C1447 C 1.01163 0.52573 0.96912 0.0
C1448 C 0.05571 0.55644 0.96218 0.0
C1449 C 0.99914 0.4912 -0.00185 0.0
C1450 C 0.03005 0.48563 0.022 0.0
H1451 H 0.98623 0.5284 0.95212 0.0
H1452 H 0.96483 0.46872 0.00191 0.0
S1453 S 0.14994 0.55668 0.01597 0.0
N1454 N 0.13036 0.57843 0.98185 0.0
N1455 N 0.10728 0.51429 0.03619 0.0
C1456 C 0.07431 0.5161 0.01536 0.0
C1457 C 0.08699 0.55117 0.98564 0.0
loop_
_geom_bond_atom_site_label_1
_geom_bond_atom_site_label_2
_geom_bond_distance
_geom_bond_site_symmetry_2
_ccdc_geom_bond_type
Co0 O2 2.143 1_655 S
Co0 O8 2.074 1_655 S
Co0 O11 2.093 . S
Co0 O24 2.097 . S
Co0 N41 2.151 1_655 S
Co0 N49 2.214 . S
Co1 O2 2.160 . S
Co1 O7 2.058 . S
Co1 O17 2.057 . S
Co1 O32 2.037 1_455 S
Co1 N36 2.145 . S
Co1 N57 2.257 . S
O2 Co0 2.143 1_455 S
O2 Co1 2.160 . S
C3 O4 1.278 . S
C3 O11 1.224 . S
O4 C3 1.278 . S
C5 O6 1.245 . S
C5 O17 1.232 . S
O6 C5 1.245 . S
O7 Co1 2.058 . S
O7 C33 1.269 . S
O8 Co0 2.074 1_455 S
O8 C33 1.257 . S
H9 C34 0.930 . S
H10 C40 0.930 . S
O11 Co0 2.093 . S
O11 C3 1.224 . S
H12 C44 0.929 . S
H13 C46 0.930 . S
H14 C47 0.930 . S
H15 C45 0.929 . S
H16 C48 0.928 . S
O17 Co1 2.057 . S
O17 C5 1.232 . S
H18 C37 0.929 . S
H19 C38 0.929 . S
H20 C50 0.931 . S
H21 C42 0.929 . S
H22 C51 0.930 . S
H23 C43 0.931 . S
O24 Co0 2.097 . S
O24 C52 1.214 . S
H25 C53 0.929 . S
H26 C54 0.929 . S
H27 C55 0.930 . S
H28 C56 0.929 . S
H29 C58 0.930 . S
H30 C35 0.930 . S
H31 C39 0.930 . S
O32 Co1 2.037 1_655 S
O32 C52 1.234 . S
C33 O7 1.269 . S
C33 O8 1.257 . S
C34 H9 0.930 . S
C34 C37 1.388 . S
C34 C39 1.418 . S
C35 H30 0.930 . S
C35 C38 1.404 . S
C35 C39 1.353 . S
N36 Co1 2.145 . S
N36 C37 1.397 . S
N36 C38 1.334 . S
C37 H18 0.929 . S
C37 C34 1.388 . S
C37 N36 1.397 . S
C38 H19 0.929 . S
C38 C35 1.404 . S
C38 N36 1.334 . S
C39 H31 0.930 . S
C39 C34 1.418 . S
C39 C35 1.353 . S
C40 H10 0.930 . S
C40 N41 1.330 . S
C40 C42 1.446 . S
N41 Co0 2.151 1_455 S
N41 C40 1.330 . S
N41 C45 1.418 . S
C42 H21 0.929 . S
C42 C40 1.446 . S
C42 C43 1.332 . S
C43 H23 0.931 . S
C43 C42 1.332 . S
C43 C44 1.267 . S
C44 H12 0.929 . S
C44 C43 1.267 . S
C44 C45 1.251 . S
C45 H15 0.929 . S
C45 N41 1.418 . S
C45 C44 1.251 . S
C46 H13 0.930 . S
C46 C48 1.406 . S
C46 C51 1.261 . S
C47 H14 0.930 . S
C47 N49 1.325 . S
C47 C50 1.357 . S
C48 H16 0.928 . S
C48 C46 1.406 . S
C48 N49 1.261 . S
N49 Co0 2.214 . S
N49 C47 1.325 . S
N49 C48 1.261 . S
C50 H20 0.931 . S
C50 C47 1.357 . S
C50 C51 1.312 . S
C51 H22 0.930 . S
C51 C46 1.261 . S
C51 C50 1.312 . S
C52 O24 1.214 . S
C52 O32 1.234 . S
C53 H25 0.929 . S
C53 C56 1.391 1_455 S
C53 C58 1.391 . S
C54 H26 0.929 . S
C54 C55 1.390 . S
C54 N57 1.391 1_655 S
C55 H27 0.930 . S
C55 C54 1.390 . S
C55 C56 1.392 . S
C56 H28 0.929 . S
C56 C53 1.391 1_655 S
C56 C55 1.392 . S
N57 Co1 2.257 . S
N57 C54 1.391 1_455 S
N57 C58 1.388 . S
C58 H29 0.930 . S
C58 C53 1.391 . S
C58 N57 1.388 . S
Co59 O61 2.143 . S
Co59 O67 2.074 . S
Co59 O70 2.093 . S
Co59 O83 2.097 . S
Co59 N100 2.151 . S
Co59 N108 2.214 . S
Co60 O61 2.160 . S
Co60 O66 2.058 . S
Co60 O76 2.057 . S
Co60 O91 2.037 . S
Co60 N95 2.145 . S
Co60 N116 2.257 . S
O61 Co59 2.143 . S
O61 Co60 2.160 . S
C62 O63 1.278 . S
C62 O70 1.224 . S
O63 C62 1.278 . S
C64 O65 1.245 . S
C64 O76 1.232 . S
O65 C64 1.245 . S
O66 Co60 2.058 . S
O66 C92 1.269 . S
O67 Co59 2.074 . S
O67 C92 1.257 . S
H68 C93 0.930 . S
H69 C99 0.930 . S
O70 Co59 2.093 . S
O70 C62 1.224 . S
H71 C103 0.929 . S
H72 C105 0.930 . S
H73 C106 0.930 . S
H74 C104 0.929 . S
H75 C107 0.928 . S
O76 Co60 2.057 . S
O76 C64 1.232 . S
H77 C96 0.929 . S
H78 C97 0.929 . S
H79 C109 0.931 . S
H80 C101 0.929 . S
H81 C110 0.930 . S
H82 C102 0.931 . S
O83 Co59 2.097 . S
O83 C111 1.214 . S
H84 C112 0.929 . S
H85 C113 0.929 . S
H86 C114 0.930 . S
H87 C115 0.929 . S
H88 C117 0.930 . S
H89 C94 0.930 . S
H90 C98 0.930 . S
O91 Co60 2.037 . S
O91 C111 1.234 . S
C92 O66 1.269 . S
C92 O67 1.257 . S
C93 H68 0.930 . S
C93 C96 1.388 . S
C93 C98 1.418 . S
C94 H89 0.930 . S
C94 C97 1.404 . S
C94 C98 1.353 . S
N95 Co60 2.145 . S
N95 C96 1.397 . S
N95 C97 1.334 . S
C96 H77 0.929 . S
C96 C93 1.388 . S
C96 N95 1.397 . S
C97 H78 0.929 . S
C97 C94 1.404 . S
C97 N95 1.334 . S
C98 H90 0.930 . S
C98 C93 1.418 . S
C98 C94 1.353 . S
C99 H69 0.930 . S
C99 N100 1.330 . S
C99 C101 1.446 . S
N100 Co59 2.151 . S
N100 C99 1.330 . S
N100 C104 1.418 . S
C101 H80 0.929 . S
C101 C99 1.446 . S
C101 C102 1.332 . S
C102 H82 0.931 . S
C102 C101 1.332 . S
C102 C103 1.267 . S
C103 H71 0.929 . S
C103 C102 1.267 . S
C103 C104 1.251 . S
C104 H74 0.929 . S
C104 N100 1.418 . S
C104 C103 1.251 . S
C105 H72 0.930 . S
C105 C107 1.406 . S
C105 C110 1.261 . S
C106 H73 0.930 . S
C106 N108 1.325 . S
C106 C109 1.357 . S
C107 H75 0.928 . S
C107 C105 1.406 . S
C107 N108 1.261 . S
N108 Co59 2.214 . S
N108 C106 1.325 . S
N108 C107 1.261 . S
C109 H79 0.931 . S
C109 C106 1.357 . S
C109 C110 1.312 . S
C110 H81 0.930 . S
C110 C105 1.261 . S
C110 C109 1.312 . S
C111 O83 1.214 . S
C111 O91 1.234 . S
C112 H84 0.929 . S
C112 C115 1.391 . S
C112 C117 1.391 . S
C113 H85 0.929 . S
C113 C114 1.390 . S
C113 N116 1.391 . S
C114 H86 0.930 . S
C114 C113 1.390 . S
C114 C115 1.392 . S
C115 H87 0.929 . S
C115 C112 1.391 . S
C115 C114 1.392 . S
N116 Co60 2.257 . S
N116 C113 1.391 . S
N116 C117 1.388 . S
C117 H88 0.930 . S
C117 C112 1.391 . S
C117 N116 1.388 . S
Co118 O120 2.143 . S
Co118 O126 2.074 . S
Co118 O129 2.093 . S
Co118 O142 2.097 . S
Co118 N159 2.151 . S
Co118 N167 2.214 . S
Co119 O120 2.160 . S
Co119 O125 2.058 1_545 S
Co119 O135 2.057 1_545 S
Co119 O150 2.037 . S
Co119 N154 2.145 1_545 S
Co119 N175 2.257 . S
O120 Co118 2.143 . S
O120 Co119 2.160 . S
C121 O122 1.278 . S
C121 O129 1.224 . S
O122 C121 1.278 . S
C123 O124 1.245 . S
C123 O135 1.232 . S
O124 C123 1.245 . S
O125 Co119 2.058 1_565 S
O125 C151 1.269 . S
O126 Co118 2.074 . S
O126 C151 1.258 1_545 S
H127 C152 0.930 . S
H128 C158 0.930 1_545 S
O129 Co118 2.093 . S
O129 C121 1.224 . S
H130 C162 0.929 . S
H131 C164 0.930 . S
H132 C165 0.930 . S
H133 C163 0.929 . S
H134 C166 0.928 . S
O135 Co119 2.057 1_565 S
O135 C123 1.232 . S
H136 C155 0.929 . S
H137 C156 0.929 . S
H138 C168 0.931 . S
H139 C160 0.929 . S
H140 C169 0.930 . S
H141 C161 0.931 . S
O142 Co118 2.097 . S
O142 C170 1.214 . S
H143 C171 0.929 . S
H144 C172 0.929 . S
H145 C173 0.930 . S
H146 C174 0.929 . S
H147 C176 0.930 1_565 S
H148 C153 0.930 . S
H149 C157 0.930 . S
O150 Co119 2.037 . S
O150 C170 1.234 . S
C151 O125 1.269 . S
C151 O126 1.258 1_565 S
C152 H127 0.930 . S
C152 C155 1.388 . S
C152 C157 1.418 1_545 S
C153 H148 0.930 . S
C153 C156 1.404 . S
C153 C157 1.353 . S
N154 Co119 2.145 1_565 S
N154 C155 1.397 1_565 S
N154 C156 1.334 . S
C155 H136 0.929 . S
C155 C152 1.388 . S
C155 N154 1.397 1_545 S
C156 H137 0.929 . S
C156 C153 1.404 . S
C156 N154 1.334 . S
C157 H149 0.930 . S
C157 C152 1.418 1_565 S
C157 C153 1.353 . S
C158 H128 0.930 1_565 S
C158 N159 1.330 1_565 S
C158 C160 1.446 . S
N159 Co118 2.151 . S
N159 C158 1.330 1_545 S
N159 C163 1.418 . S
C160 H139 0.929 . S
C160 C158 1.446 . S
C160 C161 1.332 . S
C161 H141 0.931 . S
C161 C160 1.332 . S
C161 C162 1.267 . S
C162 H130 0.929 . S
C162 C161 1.267 . S
C162 C163 1.251 1_565 S
C163 H133 0.929 . S
C163 N159 1.418 . S
C163 C162 1.251 1_545 S
C164 H131 0.930 . S
C164 C166 1.406 . S
C164 C169 1.261 . S
C165 H132 0.930 . S
C165 N167 1.325 . S
C165 C168 1.357 . S
C166 H134 0.928 . S
C166 C164 1.406 . S
C166 N167 1.261 . S
N167 Co118 2.214 . S
N167 C165 1.325 . S
N167 C166 1.261 . S
C168 H138 0.931 . S
C168 C165 1.357 . S
C168 C169 1.312 . S
C169 H140 0.930 . S
C169 C164 1.261 . S
C169 C168 1.312 . S
C170 O142 1.214 . S
C170 O150 1.234 . S
C171 H143 0.929 . S
C171 C174 1.391 . S
C171 C176 1.391 . S
C172 H144 0.929 . S
C172 C173 1.390 . S
C172 N175 1.391 . S
C173 H145 0.930 . S
C173 C172 1.390 . S
C173 C174 1.392 . S
C174 H146 0.929 . S
C174 C171 1.391 . S
C174 C173 1.392 . S
N175 Co119 2.257 . S
N175 C172 1.391 . S
N175 C176 1.388 . S
C176 H147 0.930 1_545 S
C176 C171 1.391 . S
C176 N175 1.388 . S
Co177 O179 2.140 1_655 S
Co177 O185 2.073 1_655 S
Co177 O188 2.094 . S
Co177 O201 2.098 . S
Co177 N218 2.150 1_655 S
Co177 N226 2.216 . S
Co178 O179 2.160 . S
Co178 O184 2.058 . S
Co178 O194 2.057 . S
Co178 O209 2.037 1_455 S
Co178 N213 2.145 . S
Co178 N234 2.257 . S
O179 Co177 2.140 1_455 S
O179 Co178 2.160 . S
C180 O181 1.278 1_655 S
C180 O188 1.224 . S
O181 C180 1.278 1_455 S
C182 O183 1.245 . S
C182 O194 1.232 . S
O183 C182 1.245 . S
O184 Co178 2.058 . S
O184 C210 1.269 . S
O185 Co177 2.073 1_455 S
O185 C210 1.257 . S
H186 C211 0.930 . S
H187 C217 0.930 . S
O188 Co177 2.094 . S
O188 C180 1.224 . S
H189 C221 0.929 . S
H190 C223 0.930 . S
H191 C224 0.930 . S
H192 C222 0.929 . S
H193 C225 0.928 . S
O194 Co178 2.057 . S
O194 C182 1.232 . S
H195 C214 0.929 . S
H196 C215 0.929 . S
H197 C227 0.931 . S
H198 C219 0.929 . S
H199 C228 0.930 . S
H200 C220 0.931 . S
O201 Co177 2.098 . S
O201 C229 1.214 . S
H202 C230 0.929 . S
H203 C231 0.929 . S
H204 C232 0.930 . S
H205 C233 0.929 . S
H206 C235 0.930 . S
H207 C212 0.930 . S
H208 C216 0.930 . S
O209 Co178 2.037 1_655 S
O209 C229 1.234 . S
C210 O184 1.269 . S
C210 O185 1.257 . S
C211 H186 0.930 . S
C211 C214 1.388 . S
C211 C216 1.418 . S
C212 H207 0.930 . S
C212 C215 1.404 . S
C212 C216 1.353 . S
N213 Co178 2.145 . S
N213 C214 1.397 . S
N213 C215 1.334 . S
C214 H195 0.929 . S
C214 C211 1.388 . S
C214 N213 1.397 . S
C215 H196 0.929 . S
C215 C212 1.404 . S
C215 N213 1.334 . S
C216 H208 0.930 . S
C216 C211 1.418 . S
C216 C212 1.353 . S
C217 H187 0.930 . S
C217 N218 1.330 . S
C217 C219 1.446 . S
N218 Co177 2.150 1_455 S
N218 C217 1.330 . S
N218 C222 1.418 . S
C219 H198 0.929 . S
C219 C217 1.446 . S
C219 C220 1.332 . S
C220 H200 0.931 . S
C220 C219 1.332 . S
C220 C221 1.267 . S
C221 H189 0.929 . S
C221 C220 1.267 . S
C221 C222 1.251 . S
C222 H192 0.929 . S
C222 N218 1.418 . S
C222 C221 1.251 . S
C223 H190 0.930 . S
C223 C225 1.406 . S
C223 C228 1.261 . S
C224 H191 0.930 . S
C224 N226 1.325 . S
C224 C227 1.357 . S
C225 H193 0.928 . S
C225 C223 1.406 . S
C225 N226 1.261 . S
N226 Co177 2.216 . S
N226 C224 1.325 . S
N226 C225 1.261 . S
C227 H197 0.931 . S
C227 C224 1.357 . S
C227 C228 1.312 . S
C228 H199 0.930 . S
C228 C223 1.261 . S
C228 C227 1.312 . S
C229 O201 1.214 . S
C229 O209 1.234 . S
C230 H202 0.929 . S
C230 C233 1.391 1_455 S
C230 C235 1.391 . S
C231 H203 0.929 . S
C231 C232 1.390 . S
C231 N234 1.391 1_655 S
C232 H204 0.930 . S
C232 C231 1.390 . S
C232 C233 1.392 . S
C233 H205 0.929 . S
C233 C230 1.391 1_655 S
C233 C232 1.392 . S
N234 Co178 2.257 . S
N234 C231 1.391 1_455 S
N234 C235 1.388 . S
C235 H206 0.930 . S
C235 C230 1.391 . S
C235 N234 1.388 . S
Co236 O238 2.143 . S
Co236 O244 2.074 . S
Co236 O247 2.093 . S
Co236 O260 2.097 . S
Co236 N277 2.151 . S
Co236 N285 2.214 . S
Co237 O238 2.160 . S
Co237 O243 2.058 . S
Co237 O253 2.057 . S
Co237 O268 2.037 . S
Co237 N272 2.145 . S
Co237 N293 2.257 . S
O238 Co236 2.143 . S
O238 Co237 2.160 . S
C239 O240 1.278 . S
C239 O247 1.224 . S
O240 C239 1.278 . S
C241 O242 1.245 . S
C241 O253 1.232 . S
O242 C241 1.245 . S
O243 Co237 2.058 . S
O243 C269 1.269 . S
O244 Co236 2.074 . S
O244 C269 1.257 . S
H245 C270 0.930 . S
H246 C276 0.930 . S
O247 Co236 2.093 . S
O247 C239 1.224 . S
H248 C280 0.929 . S
H249 C282 0.930 . S
H250 C283 0.930 . S
H251 C281 0.929 . S
H252 C284 0.928 . S
O253 Co237 2.057 . S
O253 C241 1.232 . S
H254 C273 0.929 . S
H255 C274 0.929 . S
H256 C286 0.931 . S
H257 C278 0.929 . S
H258 C287 0.930 . S
H259 C279 0.931 . S
O260 Co236 2.097 . S
O260 C288 1.214 . S
H261 C289 0.929 . S
H262 C290 0.929 . S
H263 C291 0.930 . S
H264 C292 0.929 . S
H265 C294 0.930 . S
H266 C271 0.930 . S
H267 C275 0.930 . S
O268 Co237 2.037 . S
O268 C288 1.234 . S
C269 O243 1.269 . S
C269 O244 1.257 . S
C270 H245 0.930 . S
C270 C273 1.388 . S
C270 C275 1.418 . S
C271 H266 0.930 . S
C271 C274 1.404 . S
C271 C275 1.353 . S
N272 Co237 2.145 . S
N272 C273 1.397 . S
N272 C274 1.334 . S
C273 H254 0.929 . S
C273 C270 1.388 . S
C273 N272 1.397 . S
C274 H255 0.929 . S
C274 C271 1.404 . S
C274 N272 1.334 . S
C275 H267 0.930 . S
C275 C270 1.418 . S
C275 C271 1.353 . S
C276 H246 0.930 . S
C276 N277 1.330 . S
C276 C278 1.446 . S
N277 Co236 2.151 . S
N277 C276 1.330 . S
N277 C281 1.418 . S
C278 H257 0.929 . S
C278 C276 1.446 . S
C278 C279 1.332 . S
C279 H259 0.931 . S
C279 C278 1.332 . S
C279 C280 1.267 . S
C280 H248 0.929 . S
C280 C279 1.267 . S
C280 C281 1.251 . S
C281 H251 0.929 . S
C281 N277 1.418 . S
C281 C280 1.251 . S
C282 H249 0.930 . S
C282 C284 1.406 . S
C282 C287 1.261 . S
C283 H250 0.930 . S
C283 N285 1.325 . S
C283 C286 1.357 . S
C284 H252 0.928 . S
C284 C282 1.406 . S
C284 N285 1.261 . S
N285 Co236 2.214 . S
N285 C283 1.325 . S
N285 C284 1.261 . S
C286 H256 0.931 . S
C286 C283 1.357 . S
C286 C287 1.312 . S
C287 H258 0.930 . S
C287 C282 1.261 . S
C287 C286 1.312 . S
C288 O260 1.214 . S
C288 O268 1.234 . S
C289 H261 0.929 . S
C289 C292 1.391 . S
C289 C294 1.391 . S
C290 H262 0.929 . S
C290 C291 1.390 . S
C290 N293 1.391 . S
C291 H263 0.930 . S
C291 C290 1.390 . S
C291 C292 1.392 . S
C292 H264 0.929 . S
C292 C289 1.391 . S
C292 C291 1.392 . S
N293 Co237 2.257 . S
N293 C290 1.391 . S
N293 C294 1.388 . S
C294 H265 0.930 . S
C294 C289 1.391 . S
C294 N293 1.388 . S
Co295 O297 2.143 1_565 S
Co295 O303 2.074 . S
Co295 O306 2.093 . S
Co295 O319 2.097 . S
Co295 N336 2.151 1_565 S
Co295 N344 2.214 . S
Co296 O297 2.160 . S
Co296 O302 2.058 . S
Co296 O312 2.057 . S
Co296 O327 2.037 1_545 S
Co296 N331 2.145 . S
Co296 N352 2.257 1_545 S
O297 Co295 2.143 1_545 S
O297 Co296 2.160 . S
C298 O299 1.278 . S
C298 O306 1.224 . S
O299 C298 1.278 . S
C300 O301 1.245 . S
C300 O312 1.232 . S
O301 C300 1.245 . S
O302 Co296 2.058 . S
O302 C328 1.269 . S
O303 Co295 2.074 . S
O303 C328 1.257 1_565 S
H304 C329 0.930 1_565 S
H305 C335 0.930 . S
O306 Co295 2.093 . S
O306 C298 1.224 . S
H307 C339 0.929 . S
H308 C341 0.930 . S
H309 C342 0.930 . S
H310 C340 0.929 . S
H311 C343 0.928 . S
O312 Co296 2.057 . S
O312 C300 1.232 . S
H313 C332 0.929 1_565 S
H314 C333 0.929 . S
H315 C345 0.931 . S
H316 C337 0.929 . S
H317 C346 0.930 . S
H318 C338 0.931 . S
O319 Co295 2.097 . S
O319 C347 1.214 . S
H320 C348 0.929 1_545 S
H321 C349 0.929 . S
H322 C350 0.930 . S
H323 C351 0.929 . S
H324 C353 0.930 . S
H325 C330 0.930 . S
H326 C334 0.930 . S
O327 Co296 2.037 1_565 S
O327 C347 1.234 . S
C328 O302 1.269 . S
C328 O303 1.257 1_545 S
C329 H304 0.930 1_545 S
C329 C332 1.388 . S
C329 C334 1.418 . S
C330 H325 0.930 . S
C330 C333 1.404 . S
C330 C334 1.353 . S
N331 Co296 2.145 . S
N331 C332 1.397 . S
N331 C333 1.334 . S
C332 H313 0.929 1_545 S
C332 C329 1.388 . S
C332 N331 1.397 . S
C333 H314 0.929 . S
C333 C330 1.404 . S
C333 N331 1.334 . S
C334 H326 0.930 . S
C334 C329 1.418 . S
C334 C330 1.353 . S
C335 H305 0.930 . S
C335 N336 1.330 . S
C335 C337 1.446 . S
N336 Co295 2.151 1_545 S
N336 C335 1.330 . S
N336 C340 1.418 . S
C337 H316 0.929 . S
C337 C335 1.446 . S
C337 C338 1.332 . S
C338 H318 0.931 . S
C338 C337 1.332 . S
C338 C339 1.267 . S
C339 H307 0.929 . S
C339 C338 1.267 . S
C339 C340 1.251 . S
C340 H310 0.929 . S
C340 N336 1.418 . S
C340 C339 1.251 . S
C341 H308 0.930 . S
C341 C343 1.406 . S
C341 C346 1.261 . S
C342 H309 0.930 . S
C342 N344 1.325 . S
C342 C345 1.357 . S
C343 H311 0.928 . S
C343 C341 1.406 . S
C343 N344 1.261 . S
N344 Co295 2.214 . S
N344 C342 1.325 . S
N344 C343 1.261 . S
C345 H315 0.931 . S
C345 C342 1.357 . S
C345 C346 1.312 . S
C346 H317 0.930 . S
C346 C341 1.261 . S
C346 C345 1.312 . S
C347 O319 1.214 . S
C347 O327 1.234 . S
C348 H320 0.929 1_565 S
C348 C351 1.391 . S
C348 C353 1.391 1_565 S
C349 H321 0.929 . S
C349 C350 1.390 . S
C349 N352 1.391 . S
C350 H322 0.930 . S
C350 C349 1.390 . S
C350 C351 1.392 . S
C351 H323 0.929 . S
C351 C348 1.391 . S
C351 C350 1.392 . S
N352 Co296 2.257 1_565 S
N352 C349 1.391 . S
N352 C353 1.388 1_565 S
C353 H324 0.930 . S
C353 C348 1.391 1_545 S
C353 N352 1.388 1_545 S
Co354 O356 2.143 . S
Co354 O362 2.074 . S
Co354 O365 2.093 . S
Co354 O378 2.097 . S
Co354 N395 2.151 . S
Co354 N403 2.214 . S
Co355 O356 2.160 . S
Co355 O361 2.058 . S
Co355 O371 2.057 . S
Co355 O386 2.037 . S
Co355 N390 2.145 . S
Co355 N411 2.257 . S
O356 Co354 2.143 . S
O356 Co355 2.160 . S
C357 O358 1.278 . S
C357 O365 1.224 . S
O358 C357 1.278 . S
C359 O360 1.245 . S
C359 O371 1.232 . S
O360 C359 1.245 . S
O361 Co355 2.058 . S
O361 C387 1.269 . S
O362 Co354 2.074 . S
O362 C387 1.257 . S
H363 C388 0.930 . S
H364 C394 0.930 . S
O365 Co354 2.093 . S
O365 C357 1.224 . S
H366 C398 0.929 1_565 S
H367 C400 0.930 . S
H368 C401 0.930 . S
H369 C399 0.929 . S
H370 C402 0.928 . S
O371 Co355 2.057 . S
O371 C359 1.232 . S
H372 C391 0.929 . S
H373 C392 0.929 . S
H374 C404 0.931 . S
H375 C396 0.929 . S
H376 C405 0.930 . S
H377 C397 0.931 1_565 S
O378 Co354 2.097 . S
O378 C406 1.214 . S
H379 C407 0.929 . S
H380 C408 0.929 . S
H381 C409 0.930 . S
H382 C410 0.929 . S
H383 C412 0.930 . S
H384 C389 0.930 . S
H385 C393 0.930 . S
O386 Co355 2.037 . S
O386 C406 1.234 . S
C387 O361 1.269 . S
C387 O362 1.257 . S
C388 H363 0.930 . S
C388 C391 1.388 . S
C388 C393 1.418 . S
C389 H384 0.930 . S
C389 C392 1.404 . S
C389 C393 1.353 . S
N390 Co355 2.145 . S
N390 C391 1.397 . S
N390 C392 1.334 . S
C391 H372 0.929 . S
C391 C388 1.388 . S
C391 N390 1.397 . S
C392 H373 0.929 . S
C392 C389 1.404 . S
C392 N390 1.334 . S
C393 H385 0.930 . S
C393 C388 1.418 . S
C393 C389 1.353 . S
C394 H364 0.930 . S
C394 N395 1.330 . S
C394 C396 1.446 . S
N395 Co354 2.151 . S
N395 C394 1.330 . S
N395 C399 1.418 . S
C396 H375 0.929 . S
C396 C394 1.446 . S
C396 C397 1.332 . S
C397 H377 0.931 1_545 S
C397 C396 1.332 . S
C397 C398 1.267 . S
C398 H366 0.929 1_545 S
C398 C397 1.267 . S
C398 C399 1.251 . S
C399 H369 0.929 . S
C399 N395 1.418 . S
C399 C398 1.251 . S
C400 H367 0.930 . S
C400 C402 1.406 . S
C400 C405 1.261 . S
C401 H368 0.930 . S
C401 N403 1.325 . S
C401 C404 1.357 1_545 S
C402 H370 0.928 . S
C402 C400 1.406 . S
C402 N403 1.261 1_565 S
N403 Co354 2.214 . S
N403 C401 1.325 . S
N403 C402 1.261 1_545 S
C404 H374 0.931 . S
C404 C401 1.357 1_565 S
C404 C405 1.312 . S
C405 H376 0.930 . S
C405 C400 1.261 . S
C405 C404 1.312 . S
C406 O378 1.214 . S
C406 O386 1.234 . S
C407 H379 0.929 . S
C407 C410 1.391 . S
C407 C412 1.391 . S
C408 H380 0.929 . S
C408 C409 1.390 . S
C408 N411 1.391 . S
C409 H381 0.930 . S
C409 C408 1.390 . S
C409 C410 1.392 . S
C410 H382 0.929 . S
C410 C407 1.391 . S
C410 C409 1.392 . S
N411 Co355 2.257 . S
N411 C408 1.391 . S
N411 C412 1.388 . S
C412 H383 0.930 . S
C412 C407 1.391 . S
C412 N411 1.388 . S
Co413 O415 2.143 . S
Co413 O421 2.074 . S
Co413 O424 2.093 . S
Co413 O437 2.097 . S
Co413 N454 2.151 1_655 S
Co413 N462 2.214 . S
Co414 O415 2.160 . S
Co414 O420 2.058 . S
Co414 O430 2.057 . S
Co414 O445 2.037 . S
Co414 N449 2.145 . S
Co414 N470 2.257 . S
O415 Co413 2.143 . S
O415 Co414 2.160 . S
C416 O417 1.278 . S
C416 O424 1.224 . S
O417 C416 1.278 . S
C418 O419 1.245 . S
C418 O430 1.232 . S
O419 C418 1.245 . S
O420 Co414 2.058 . S
O420 C446 1.269 . S
O421 Co413 2.074 . S
O421 C446 1.257 . S
H422 C447 0.930 . S
H423 C453 0.930 . S
O424 Co413 2.093 . S
O424 C416 1.224 . S
H425 C457 0.929 . S
H426 C459 0.930 . S
H427 C460 0.930 . S
H428 C458 0.929 . S
H429 C461 0.928 . S
O430 Co414 2.057 . S
O430 C418 1.232 . S
H431 C450 0.929 . S
H432 C451 0.929 . S
H433 C463 0.931 . S
H434 C455 0.929 . S
H435 C464 0.930 . S
H436 C456 0.931 . S
O437 Co413 2.097 . S
O437 C465 1.214 . S
H438 C466 0.929 . S
H439 C467 0.929 . S
H440 C468 0.930 . S
H441 C469 0.929 . S
H442 C471 0.930 . S
H443 C448 0.930 . S
H444 C452 0.930 . S
O445 Co414 2.037 . S
O445 C465 1.234 . S
C446 O420 1.269 . S
C446 O421 1.257 . S
C447 H422 0.930 . S
C447 C450 1.388 . S
C447 C452 1.418 . S
C448 H443 0.930 . S
C448 C451 1.404 . S
C448 C452 1.353 . S
N449 Co414 2.145 . S
N449 C450 1.397 . S
N449 C451 1.334 . S
C450 H431 0.929 . S
C450 C447 1.388 . S
C450 N449 1.397 . S
C451 H432 0.929 . S
C451 C448 1.404 . S
C451 N449 1.334 . S
C452 H444 0.930 . S
C452 C447 1.418 . S
C452 C448 1.353 . S
C453 H423 0.930 . S
C453 N454 1.330 . S
C453 C455 1.446 . S
N454 Co413 2.151 1_455 S
N454 C453 1.330 . S
N454 C458 1.418 . S
C455 H434 0.929 . S
C455 C453 1.446 . S
C455 C456 1.332 . S
C456 H436 0.931 . S
C456 C455 1.332 . S
C456 C457 1.267 . S
C457 H425 0.929 . S
C457 C456 1.267 . S
C457 C458 1.251 . S
C458 H428 0.929 . S
C458 N454 1.418 . S
C458 C457 1.251 . S
C459 H426 0.930 . S
C459 C461 1.406 . S
C459 C464 1.261 . S
C460 H427 0.930 . S
C460 N462 1.325 . S
C460 C463 1.357 . S
C461 H429 0.928 . S
C461 C459 1.406 . S
C461 N462 1.261 1_455 S
N462 Co413 2.214 . S
N462 C460 1.325 . S
N462 C461 1.261 1_655 S
C463 H433 0.931 . S
C463 C460 1.357 . S
C463 C464 1.312 1_655 S
C464 H435 0.930 . S
C464 C459 1.261 . S
C464 C463 1.312 1_455 S
C465 O437 1.214 . S
C465 O445 1.234 . S
C466 H438 0.929 . S
C466 C469 1.391 . S
C466 C471 1.391 . S
C467 H439 0.929 . S
C467 C468 1.390 . S
C467 N470 1.391 . S
C468 H440 0.930 . S
C468 C467 1.390 . S
C468 C469 1.392 . S
C469 H441 0.929 . S
C469 C466 1.391 . S
C469 C468 1.392 . S
N470 Co414 2.257 . S
N470 C467 1.391 . S
N470 C471 1.388 . S
C471 H442 0.930 . S
C471 C466 1.391 . S
C471 N470 1.388 . S
Co472 O474 2.143 . S
Co472 O480 2.074 . S
Co472 O483 2.093 . S
Co472 O496 2.097 . S
Co472 N513 2.151 . S
Co472 N521 2.214 . S
Co473 O474 2.160 . S
Co473 O479 2.058 . S
Co473 O489 2.057 . S
Co473 O504 2.037 . S
Co473 N508 2.145 . S
Co473 N529 2.257 . S
O474 Co472 2.143 . S
O474 Co473 2.160 . S
C475 O476 1.278 . S
C475 O483 1.224 . S
O476 C475 1.278 . S
C477 O478 1.245 . S
C477 O489 1.232 . S
O478 C477 1.245 . S
O479 Co473 2.058 . S
O479 C505 1.269 . S
O480 Co472 2.074 . S
O480 C505 1.257 . S
H481 C506 0.930 . S
H482 C512 0.930 . S
O483 Co472 2.093 . S
O483 C475 1.224 . S
H484 C516 0.929 . S
H485 C518 0.930 . S
H486 C519 0.930 . S
H487 C517 0.929 . S
H488 C520 0.928 . S
O489 Co473 2.057 . S
O489 C477 1.232 . S
H490 C509 0.929 . S
H491 C510 0.929 . S
H492 C522 0.931 . S
H493 C514 0.929 . S
H494 C523 0.930 . S
H495 C515 0.931 . S
O496 Co472 2.097 . S
O496 C524 1.214 . S
H497 C525 0.929 . S
H498 C526 0.929 . S
H499 C527 0.930 . S
H500 C528 0.929 . S
H501 C530 0.930 . S
H502 C507 0.930 . S
H503 C511 0.930 . S
O504 Co473 2.037 . S
O504 C524 1.234 . S
C505 O479 1.269 . S
C505 O480 1.257 . S
C506 H481 0.930 . S
C506 C509 1.388 . S
C506 C511 1.418 . S
C507 H502 0.930 . S
C507 C510 1.404 . S
C507 C511 1.353 . S
N508 Co473 2.145 . S
N508 C509 1.397 . S
N508 C510 1.334 . S
C509 H490 0.929 . S
C509 C506 1.388 . S
C509 N508 1.397 . S
C510 H491 0.929 . S
C510 C507 1.404 . S
C510 N508 1.334 . S
C511 H503 0.930 . S
C511 C506 1.418 . S
C511 C507 1.353 . S
C512 H482 0.930 . S
C512 N513 1.330 . S
C512 C514 1.446 . S
N513 Co472 2.151 . S
N513 C512 1.330 . S
N513 C517 1.418 . S
C514 H493 0.929 . S
C514 C512 1.446 . S
C514 C515 1.332 . S
C515 H495 0.931 . S
C515 C514 1.332 . S
C515 C516 1.267 . S
C516 H484 0.929 . S
C516 C515 1.267 . S
C516 C517 1.251 . S
C517 H487 0.929 . S
C517 N513 1.418 . S
C517 C516 1.251 . S
C518 H485 0.930 . S
C518 C520 1.406 . S
C518 C523 1.261 . S
C519 H486 0.930 . S
C519 N521 1.325 . S
C519 C522 1.357 . S
C520 H488 0.928 . S
C520 C518 1.406 . S
C520 N521 1.261 . S
N521 Co472 2.214 . S
N521 C519 1.325 . S
N521 C520 1.261 . S
C522 H492 0.931 . S
C522 C519 1.357 . S
C522 C523 1.312 . S
C523 H494 0.930 . S
C523 C518 1.261 . S
C523 C522 1.312 . S
C524 O496 1.214 . S
C524 O504 1.234 . S
C525 H497 0.929 . S
C525 C528 1.391 . S
C525 C530 1.391 . S
C526 H498 0.929 . S
C526 C527 1.390 . S
C526 N529 1.391 . S
C527 H499 0.930 . S
C527 C526 1.390 . S
C527 C528 1.392 . S
C528 H500 0.929 . S
C528 C525 1.391 . S
C528 C527 1.392 . S
N529 Co473 2.257 . S
N529 C526 1.391 . S
N529 C530 1.388 . S
C530 H501 0.930 . S
C530 C525 1.391 . S
C530 N529 1.388 . S
Co531 O533 2.143 . S
Co531 O539 2.074 . S
Co531 O542 2.093 . S
Co531 O555 2.097 . S
Co531 N572 2.151 . S
Co531 N580 2.214 . S
Co532 O533 2.160 . S
Co532 O538 2.058 . S
Co532 O548 2.057 . S
Co532 O563 2.037 . S
Co532 N567 2.145 . S
Co532 N588 2.257 . S
O533 Co531 2.143 . S
O533 Co532 2.160 . S
C534 O535 1.278 . S
C534 O542 1.224 1_556 S
O535 C534 1.278 . S
C536 O537 1.245 . S
C536 O548 1.232 . S
O537 C536 1.245 . S
O538 Co532 2.058 . S
O538 C564 1.269 . S
O539 Co531 2.074 . S
O539 C564 1.257 . S
H540 C565 0.930 . S
H541 C571 0.930 . S
O542 Co531 2.093 . S
O542 C534 1.224 1_554 S
H543 C575 0.929 . S
H544 C577 0.930 . S
H545 C578 0.930 . S
H546 C576 0.929 . S
H547 C579 0.928 . S
O548 Co532 2.057 . S
O548 C536 1.232 . S
H549 C568 0.929 . S
H550 C569 0.929 . S
H551 C581 0.931 . S
H552 C573 0.929 1_556 S
H553 C582 0.930 . S
H554 C574 0.931 . S
O555 Co531 2.097 . S
O555 C583 1.214 . S
H556 C584 0.929 . S
H557 C585 0.929 . S
H558 C586 0.930 . S
H559 C587 0.929 . S
H560 C589 0.930 . S
H561 C566 0.930 . S
H562 C570 0.930 . S
O563 Co532 2.037 . S
O563 C583 1.234 . S
C564 O538 1.269 . S
C564 O539 1.257 . S
C565 H540 0.930 . S
C565 C568 1.388 . S
C565 C570 1.418 . S
C566 H561 0.930 . S
C566 C569 1.404 . S
C566 C570 1.353 . S
N567 Co532 2.145 . S
N567 C568 1.397 . S
N567 C569 1.334 . S
C568 H549 0.929 . S
C568 C565 1.388 . S
C568 N567 1.397 . S
C569 H550 0.929 . S
C569 C566 1.404 . S
C569 N567 1.334 . S
C570 H562 0.930 . S
C570 C565 1.418 . S
C570 C566 1.353 . S
C571 H541 0.930 . S
C571 N572 1.330 . S
C571 C573 1.446 . S
N572 Co531 2.151 . S
N572 C571 1.330 . S
N572 C576 1.418 . S
C573 H552 0.929 1_554 S
C573 C571 1.446 . S
C573 C574 1.332 . S
C574 H554 0.931 . S
C574 C573 1.332 . S
C574 C575 1.267 . S
C575 H543 0.929 . S
C575 C574 1.267 . S
C575 C576 1.251 . S
C576 H546 0.929 . S
C576 N572 1.418 . S
C576 C575 1.251 . S
C577 H544 0.930 . S
C577 C579 1.406 . S
C577 C582 1.261 . S
C578 H545 0.930 . S
C578 N580 1.325 . S
C578 C581 1.357 . S
C579 H547 0.928 . S
C579 C577 1.406 . S
C579 N580 1.261 . S
N580 Co531 2.214 . S
N580 C578 1.325 . S
N580 C579 1.261 . S
C581 H551 0.931 . S
C581 C578 1.357 . S
C581 C582 1.312 . S
C582 H553 0.930 . S
C582 C577 1.261 . S
C582 C581 1.312 . S
C583 O555 1.214 . S
C583 O563 1.234 . S
C584 H556 0.929 . S
C584 C587 1.391 . S
C584 C589 1.391 1_556 S
C585 H557 0.929 . S
C585 C586 1.390 . S
C585 N588 1.391 . S
C586 H558 0.930 . S
C586 C585 1.390 . S
C586 C587 1.392 1_554 S
C587 H559 0.929 . S
C587 C584 1.391 . S
C587 C586 1.392 1_556 S
N588 Co532 2.257 . S
N588 C585 1.391 . S
N588 C589 1.388 . S
C589 H560 0.930 . S
C589 C584 1.391 1_554 S
C589 N588 1.388 . S
Co590 O592 2.143 . S
Co590 O598 2.074 . S
Co590 O601 2.093 . S
Co590 O614 2.097 . S
Co590 N631 2.151 1_545 S
Co590 N639 2.214 . S
Co591 O592 2.160 . S
Co591 O597 2.058 . S
Co591 O607 2.057 . S
Co591 O622 2.037 . S
Co591 N626 2.145 . S
Co591 N647 2.257 . S
O592 Co590 2.143 . S
O592 Co591 2.160 . S
C593 O594 1.278 . S
C593 O601 1.224 1_556 S
O594 C593 1.278 . S
C595 O596 1.245 . S
C595 O607 1.232 . S
O596 C595 1.245 . S
O597 Co591 2.058 . S
O597 C623 1.269 . S
O598 Co590 2.074 . S
O598 C623 1.257 . S
H599 C624 0.930 . S
H600 C630 0.930 . S
O601 Co590 2.093 . S
O601 C593 1.224 1_554 S
H602 C634 0.929 . S
H603 C636 0.930 . S
H604 C637 0.930 . S
H605 C635 0.929 . S
H606 C638 0.928 . S
O607 Co591 2.057 . S
O607 C595 1.232 . S
H608 C627 0.929 . S
H609 C628 0.929 . S
H610 C640 0.931 . S
H611 C632 0.929 1_556 S
H612 C641 0.930 . S
H613 C633 0.931 . S
O614 Co590 2.097 . S
O614 C642 1.214 . S
H615 C643 0.929 . S
H616 C644 0.929 . S
H617 C645 0.930 . S
H618 C646 0.946 . S
H619 C648 0.930 . S
H620 C625 0.930 . S
H621 C629 0.930 . S
O622 Co591 2.037 . S
O622 C642 1.234 . S
C623 O597 1.269 . S
C623 O598 1.257 . S
C624 H599 0.930 . S
C624 C627 1.388 . S
C624 C629 1.418 . S
C625 H620 0.930 . S
C625 C628 1.404 . S
C625 C629 1.353 . S
N626 Co591 2.145 . S
N626 C627 1.397 . S
N626 C628 1.334 . S
C627 H608 0.929 . S
C627 C624 1.388 . S
C627 N626 1.397 . S
C628 H609 0.929 . S
C628 C625 1.404 . S
C628 N626 1.334 . S
C629 H621 0.930 . S
C629 C624 1.418 . S
C629 C625 1.353 . S
C630 H600 0.930 . S
C630 N631 1.330 . S
C630 C632 1.446 . S
N631 Co590 2.151 1_565 S
N631 C630 1.330 . S
N631 C635 1.418 . S
C632 H611 0.929 1_554 S
C632 C630 1.446 . S
C632 C633 1.332 . S
C633 H613 0.931 . S
C633 C632 1.332 . S
C633 C634 1.267 . S
C634 H602 0.929 . S
C634 C633 1.267 . S
C634 C635 1.251 . S
C635 H605 0.929 . S
C635 N631 1.418 . S
C635 C634 1.251 . S
C636 H603 0.930 . S
C636 C638 1.406 . S
C636 C641 1.261 . S
C637 H604 0.930 . S
C637 N639 1.325 . S
C637 C640 1.357 . S
C638 H606 0.928 . S
C638 C636 1.406 . S
C638 N639 1.261 1_565 S
N639 Co590 2.214 . S
N639 C637 1.325 . S
N639 C638 1.261 1_545 S
C640 H610 0.931 . S
C640 C637 1.357 . S
C640 C641 1.312 1_545 S
C641 H612 0.930 . S
C641 C636 1.261 . S
C641 C640 1.312 1_565 S
C642 O614 1.214 . S
C642 O622 1.234 . S
C643 H615 0.929 . S
C643 C646 1.397 . S
C643 C648 1.391 1_556 S
C644 H616 0.929 . S
C644 C645 1.390 . S
C644 N647 1.391 . S
C645 H617 0.930 . S
C645 C644 1.390 . S
C645 C646 1.369 1_554 S
C646 H618 0.946 . S
C646 C643 1.397 . S
C646 C645 1.369 1_556 S
N647 Co591 2.257 . S
N647 C644 1.391 . S
N647 C648 1.388 . S
C648 H619 0.930 . S
C648 C643 1.391 1_554 S
C648 N647 1.388 . S
Co649 O651 2.143 . S
Co649 O657 2.074 . S
Co649 O660 2.093 . S
Co649 O673 2.097 . S
Co649 N690 2.151 1_655 S
Co649 N698 2.214 . S
Co650 O651 2.160 . S
Co650 O656 2.058 . S
Co650 O666 2.057 . S
Co650 O681 2.037 . S
Co650 N685 2.145 . S
Co650 N706 2.257 . S
O651 Co649 2.143 . S
O651 Co650 2.160 . S
C652 O653 1.278 . S
C652 O660 1.224 1_556 S
O653 C652 1.278 . S
C654 O655 1.245 . S
C654 O666 1.232 . S
O655 C654 1.245 . S
O656 Co650 2.058 . S
O656 C682 1.269 . S
O657 Co649 2.074 . S
O657 C682 1.257 . S
H658 C683 0.930 . S
H659 C689 0.930 . S
O660 Co649 2.093 . S
O660 C652 1.224 1_554 S
H661 C693 0.929 . S
H662 C695 0.930 . S
H663 C696 0.930 . S
H664 C694 0.929 . S
H665 C697 0.928 . S
O666 Co650 2.057 . S
O666 C654 1.232 . S
H667 C686 0.929 . S
H668 C687 0.929 . S
H669 C699 0.931 . S
H670 C691 0.929 1_556 S
H671 C700 0.913 1_455 S
H672 C692 0.931 . S
O673 Co649 2.097 . S
O673 C701 1.214 . S
H674 C702 0.929 . S
H675 C703 0.929 . S
H676 C704 0.930 . S
H677 C705 0.929 . S
H678 C707 0.930 1_556 S
H679 C684 0.930 . S
H680 C688 0.930 . S
O681 Co650 2.037 . S
O681 C701 1.234 . S
C682 O656 1.269 . S
C682 O657 1.257 . S
C683 H658 0.930 . S
C683 C686 1.388 . S
C683 C688 1.418 . S
C684 H679 0.930 . S
C684 C687 1.404 . S
C684 C688 1.353 . S
N685 Co650 2.145 . S
N685 C686 1.397 . S
N685 C687 1.334 . S
C686 H667 0.929 . S
C686 C683 1.388 . S
C686 N685 1.397 . S
C687 H668 0.929 . S
C687 C684 1.404 . S
C687 N685 1.334 . S
C688 H680 0.930 . S
C688 C683 1.418 . S
C688 C684 1.353 . S
C689 H659 0.930 . S
C689 N690 1.330 . S
C689 C691 1.446 . S
N690 Co649 2.151 1_455 S
N690 C689 1.330 . S
N690 C694 1.418 . S
C691 H670 0.929 1_554 S
C691 C689 1.446 . S
C691 C692 1.332 . S
C692 H672 0.931 . S
C692 C691 1.332 . S
C692 C693 1.267 . S
C693 H661 0.929 . S
C693 C692 1.267 . S
C693 C694 1.251 . S
C694 H664 0.929 . S
C694 N690 1.418 . S
C694 C693 1.251 . S
C695 H662 0.930 . S
C695 C697 1.406 . S
C695 C700 1.253 1_455 S
C696 H663 0.930 . S
C696 N698 1.325 . S
C696 C699 1.357 . S
C697 H665 0.928 . S
C697 C695 1.406 . S
C697 N698 1.261 1_455 S
N698 Co649 2.214 . S
N698 C696 1.325 . S
N698 C697 1.261 1_655 S
C699 H669 0.931 . S
C699 C696 1.357 . S
C699 C700 1.337 . S
C700 H671 0.913 1_655 S
C700 C695 1.253 1_655 S
C700 C699 1.337 . S
C701 O673 1.214 . S
C701 O681 1.234 . S
C702 H674 0.929 . S
C702 C705 1.391 . S
C702 C707 1.391 1_556 S
C703 H675 0.929 . S
C703 C704 1.390 . S
C703 N706 1.391 . S
C704 H676 0.930 . S
C704 C703 1.390 . S
C704 C705 1.392 1_554 S
C705 H677 0.929 . S
C705 C702 1.391 . S
C705 C704 1.392 1_556 S
N706 Co650 2.257 . S
N706 C703 1.391 . S
N706 C707 1.388 . S
C707 H678 0.930 1_554 S
C707 C702 1.391 1_554 S
C707 N706 1.388 . S
Co708 O710 2.143 . S
Co708 O716 2.074 . S
Co708 O719 2.093 . S
Co708 O732 2.097 . S
Co708 N749 2.151 . S
Co708 N757 2.214 . S
Co709 O710 2.160 . S
Co709 O715 2.058 . S
Co709 O725 2.057 . S
Co709 O740 2.037 . S
Co709 N744 2.145 . S
Co709 N765 2.257 . S
O710 Co708 2.143 . S
O710 Co709 2.160 . S
C711 O712 1.278 . S
C711 O719 1.224 1_554 S
O712 C711 1.278 . S
C713 O714 1.245 . S
C713 O725 1.232 . S
O714 C713 1.245 . S
O715 Co709 2.058 . S
O715 C741 1.269 . S
O716 Co708 2.074 . S
O716 C741 1.257 . S
H717 C742 0.930 . S
H718 C748 0.930 . S
O719 Co708 2.093 . S
O719 C711 1.224 1_556 S
H720 C752 0.929 . S
H721 C754 0.930 . S
H722 C755 0.930 . S
H723 C753 0.929 . S
H724 C756 0.928 . S
O725 Co709 2.057 . S
O725 C713 1.232 . S
H726 C745 0.929 . S
H727 C746 0.929 . S
H728 C758 0.931 . S
H729 C750 0.929 1_554 S
H730 C759 0.930 . S
H731 C751 0.931 . S
O732 Co708 2.097 . S
O732 C760 1.214 . S
H733 C761 0.929 . S
H734 C762 0.929 . S
H735 C763 0.930 . S
H736 C764 0.929 . S
H737 C766 0.931 1_554 S
H738 C743 0.930 . S
H739 C747 0.930 . S
O740 Co709 2.037 . S
O740 C760 1.234 . S
C741 O715 1.269 . S
C741 O716 1.257 . S
C742 H717 0.930 . S
C742 C745 1.388 . S
C742 C747 1.418 . S
C743 H738 0.930 . S
C743 C746 1.404 . S
C743 C747 1.353 . S
N744 Co709 2.145 . S
N744 C745 1.397 . S
N744 C746 1.334 . S
C745 H726 0.929 . S
C745 C742 1.388 . S
C745 N744 1.397 . S
C746 H727 0.929 . S
C746 C743 1.404 . S
C746 N744 1.334 . S
C747 H739 0.930 . S
C747 C742 1.418 . S
C747 C743 1.353 . S
C748 H718 0.930 . S
C748 N749 1.330 . S
C748 C750 1.446 . S
N749 Co708 2.151 . S
N749 C748 1.330 . S
N749 C753 1.418 . S
C750 H729 0.929 1_556 S
C750 C748 1.446 . S
C750 C751 1.332 . S
C751 H731 0.931 . S
C751 C750 1.332 . S
C751 C752 1.267 . S
C752 H720 0.929 . S
C752 C751 1.267 . S
C752 C753 1.251 . S
C753 H723 0.929 . S
C753 N749 1.418 . S
C753 C752 1.251 . S
C754 H721 0.930 . S
C754 C756 1.406 . S
C754 C759 1.261 . S
C755 H722 0.930 . S
C755 N757 1.325 . S
C755 C758 1.357 . S
C756 H724 0.928 . S
C756 C754 1.406 . S
C756 N757 1.261 . S
N757 Co708 2.214 . S
N757 C755 1.325 . S
N757 C756 1.261 . S
C758 H728 0.931 . S
C758 C755 1.357 . S
C758 C759 1.312 . S
C759 H730 0.930 . S
C759 C754 1.261 . S
C759 C758 1.312 . S
C760 O732 1.214 . S
C760 O740 1.234 . S
C761 H733 0.929 . S
C761 C764 1.391 . S
C761 C766 1.391 1_554 S
C762 H734 0.929 . S
C762 C763 1.390 . S
C762 N765 1.391 . S
C763 H735 0.930 . S
C763 C762 1.390 . S
C763 C764 1.392 1_556 S
C764 H736 0.929 . S
C764 C761 1.391 . S
C764 C763 1.392 1_554 S
N765 Co709 2.257 . S
N765 C762 1.391 . S
N765 C766 1.388 . S
C766 H737 0.931 1_556 S
C766 C761 1.391 1_556 S
C766 N765 1.388 . S
Co767 O769 2.143 . S
Co767 O775 2.074 . S
Co767 O778 2.093 1_565 S
Co767 O791 2.097 . S
Co767 N808 2.151 1_565 S
Co767 N816 2.214 1_565 S
Co768 O769 2.160 . S
Co768 O774 2.058 . S
Co768 O784 2.057 . S
Co768 O799 2.037 . S
Co768 N803 2.145 . S
Co768 N824 2.257 . S
O769 Co767 2.143 . S
O769 Co768 2.160 . S
C770 O771 1.278 . S
C770 O778 1.224 1_565 S
O771 C770 1.278 . S
C772 O773 1.245 . S
C772 O784 1.232 . S
O773 C772 1.245 . S
O774 Co768 2.058 . S
O774 C800 1.263 1_556 S
O775 Co767 2.074 . S
O775 C800 1.250 1_556 S
H776 C801 0.930 . S
H777 C807 0.930 . S
O778 Co767 2.093 1_545 S
O778 C770 1.224 1_545 S
H779 C811 0.929 . S
H780 C813 0.930 . S
H781 C814 0.930 . S
H782 C812 0.929 . S
H783 C815 0.928 . S
O784 Co768 2.057 . S
O784 C772 1.232 . S
H785 C804 0.929 . S
H786 C805 0.929 . S
H787 C817 0.931 . S
H788 C809 0.929 . S
H789 C818 0.930 1_554 S
H790 C810 0.931 . S
O791 Co767 2.097 . S
O791 C819 1.214 . S
H792 C820 0.929 . S
H793 C821 0.929 . S
H794 C822 0.930 . S
H795 C823 0.929 . S
H796 C825 0.930 . S
H797 C802 0.930 . S
H798 C806 0.930 . S
O799 Co768 2.037 . S
O799 C819 1.234 . S
C800 O774 1.263 1_554 S
C800 O775 1.250 1_554 S
C801 H776 0.930 . S
C801 C804 1.388 . S
C801 C806 1.418 . S
C802 H797 0.930 . S
C802 C805 1.404 . S
C802 C806 1.353 1_556 S
N803 Co768 2.145 . S
N803 C804 1.397 1_556 S
N803 C805 1.334 . S
C804 H785 0.929 . S
C804 C801 1.388 . S
C804 N803 1.397 1_554 S
C805 H786 0.929 . S
C805 C802 1.404 . S
C805 N803 1.334 . S
C806 H798 0.930 . S
C806 C801 1.418 . S
C806 C802 1.353 1_554 S
C807 H777 0.930 . S
C807 N808 1.330 . S
C807 C809 1.446 . S
N808 Co767 2.151 1_545 S
N808 C807 1.330 . S
N808 C812 1.418 . S
C809 H788 0.929 . S
C809 C807 1.446 . S
C809 C810 1.332 . S
C810 H790 0.931 . S
C810 C809 1.332 . S
C810 C811 1.267 . S
C811 H779 0.929 . S
C811 C810 1.267 . S
C811 C812 1.251 . S
C812 H782 0.929 . S
C812 N808 1.418 . S
C812 C811 1.251 . S
C813 H780 0.930 . S
C813 C815 1.406 . S
C813 C818 1.261 . S
C814 H781 0.930 . S
C814 N816 1.325 . S
C814 C817 1.357 1_556 S
C815 H783 0.928 . S
C815 C813 1.406 . S
C815 N816 1.261 . S
N816 Co767 2.214 1_545 S
N816 C814 1.325 . S
N816 C815 1.261 . S
C817 H787 0.931 . S
C817 C814 1.357 1_554 S
C817 C818 1.312 1_554 S
C818 H789 0.930 1_556 S
C818 C813 1.261 . S
C818 C817 1.312 1_556 S
C819 O791 1.214 . S
C819 O799 1.234 . S
C820 H792 0.929 . S
C820 C823 1.391 . S
C820 C825 1.391 . S
C821 H793 0.929 . S
C821 C822 1.390 . S
C821 N824 1.391 . S
C822 H794 0.930 . S
C822 C821 1.390 . S
C822 C823 1.392 . S
C823 H795 0.929 . S
C823 C820 1.391 . S
C823 C822 1.392 . S
N824 Co768 2.257 . S
N824 C821 1.391 . S
N824 C825 1.388 . S
C825 H796 0.930 . S
C825 C820 1.391 . S
C825 N824 1.388 . S
Co826 O828 2.143 . S
Co826 O834 2.074 . S
Co826 O837 2.093 . S
Co826 O850 2.097 . S
Co826 N867 2.151 1_455 S
Co826 N875 2.214 . S
Co827 O828 2.160 . S
Co827 O833 2.058 . S
Co827 O843 2.057 . S
Co827 O858 2.037 . S
Co827 N862 2.145 . S
Co827 N883 2.257 . S
O828 Co826 2.143 . S
O828 Co827 2.160 . S
C829 O830 1.278 . S
C829 O837 1.224 1_554 S
O830 C829 1.278 . S
C831 O832 1.245 . S
C831 O843 1.232 . S
O832 C831 1.245 . S
O833 Co827 2.058 . S
O833 C859 1.269 . S
O834 Co826 2.074 . S
O834 C859 1.257 . S
H835 C860 0.930 . S
H836 C866 0.930 1_455 S
O837 Co826 2.093 . S
O837 C829 1.224 1_556 S
H838 C870 0.929 . S
H839 C872 0.930 1_655 S
H840 C873 0.930 . S
H841 C871 0.929 . S
H842 C874 0.928 . S
O843 Co827 2.057 . S
O843 C831 1.232 . S
H844 C863 0.929 . S
H845 C864 0.929 . S
H846 C876 0.931 . S
H847 C868 0.929 1_554 S
H848 C877 0.930 . S
H849 C869 0.931 . S
O850 Co826 2.097 . S
O850 C878 1.214 . S
H851 C879 0.929 . S
H852 C880 0.929 . S
H853 C881 0.930 . S
H854 C882 0.929 . S
H855 C884 0.930 . S
H856 C861 0.930 . S
H857 C865 0.930 . S
O858 Co827 2.037 . S
O858 C878 1.234 . S
C859 O833 1.269 . S
C859 O834 1.257 . S
C860 H835 0.930 . S
C860 C863 1.388 . S
C860 C865 1.418 . S
C861 H856 0.930 . S
C861 C864 1.404 . S
C861 C865 1.353 . S
N862 Co827 2.145 . S
N862 C863 1.397 . S
N862 C864 1.334 . S
C863 H844 0.929 . S
C863 C860 1.388 . S
C863 N862 1.397 . S
C864 H845 0.929 . S
C864 C861 1.404 . S
C864 N862 1.334 . S
C865 H857 0.930 . S
C865 C860 1.418 . S
C865 C861 1.353 . S
C866 H836 0.930 1_655 S
C866 N867 1.330 . S
C866 C868 1.446 . S
N867 Co826 2.151 1_655 S
N867 C866 1.330 . S
N867 C871 1.418 . S
C868 H847 0.929 1_556 S
C868 C866 1.446 . S
C868 C869 1.332 . S
C869 H849 0.931 . S
C869 C868 1.332 . S
C869 C870 1.267 . S
C870 H838 0.929 . S
C870 C869 1.267 . S
C870 C871 1.251 . S
C871 H841 0.929 . S
C871 N867 1.418 . S
C871 C870 1.251 . S
C872 H839 0.930 1_455 S
C872 C874 1.406 . S
C872 C877 1.261 . S
C873 H840 0.930 . S
C873 N875 1.325 . S
C873 C876 1.357 . S
C874 H842 0.928 . S
C874 C872 1.406 . S
C874 N875 1.261 . S
N875 Co826 2.214 . S
N875 C873 1.325 . S
N875 C874 1.261 . S
C876 H846 0.931 . S
C876 C873 1.357 . S
C876 C877 1.312 . S
C877 H848 0.930 . S
C877 C872 1.261 . S
C877 C876 1.312 . S
C878 O850 1.214 . S
C878 O858 1.234 . S
C879 H851 0.929 . S
C879 C882 1.391 . S
C879 C884 1.391 1_554 S
C880 H852 0.929 . S
C880 C881 1.390 . S
C880 N883 1.391 . S
C881 H853 0.930 . S
C881 C880 1.390 . S
C881 C882 1.392 1_556 S
C882 H854 0.929 . S
C882 C879 1.391 . S
C882 C881 1.392 1_554 S
N883 Co827 2.257 . S
N883 C880 1.391 . S
N883 C884 1.388 . S
C884 H855 0.930 . S
C884 C879 1.391 1_556 S
C884 N883 1.388 . S
Co885 O887 2.143 . S
Co885 O893 2.074 . S
Co885 O896 2.093 . S
Co885 O909 2.097 . S
Co885 N926 2.151 1_565 S
Co885 N934 2.214 . S
Co886 O887 2.160 . S
Co886 O892 2.058 . S
Co886 O902 2.057 . S
Co886 O917 2.037 . S
Co886 N921 2.145 . S
Co886 N942 2.257 . S
O887 Co885 2.143 . S
O887 Co886 2.160 . S
C888 O889 1.278 . S
C888 O896 1.224 . S
O889 C888 1.278 . S
C890 O891 1.245 . S
C890 O902 1.232 . S
O891 C890 1.245 . S
O892 Co886 2.058 . S
O892 C918 1.269 . S
O893 Co885 2.074 . S
O893 C918 1.257 . S
H894 C919 0.930 . S
H895 C925 0.930 . S
O896 Co885 2.093 . S
O896 C888 1.224 . S
H897 C929 0.929 . S
H898 C931 0.930 1_545 S
H899 C932 0.930 . S
H900 C930 0.929 . S
H901 C933 0.927 1_545 S
O902 Co886 2.057 . S
O902 C890 1.232 . S
H903 C922 0.929 . S
H904 C923 0.929 . S
H905 C935 0.931 . S
H906 C927 0.929 . S
H907 C936 0.930 . S
H908 C928 0.931 . S
O909 Co885 2.097 . S
O909 C937 1.214 . S
H910 C938 0.929 . S
H911 C939 0.929 . S
H912 C940 0.930 . S
H913 C941 0.929 . S
H914 C943 0.930 . S
H915 C920 0.930 . S
H916 C924 0.930 . S
O917 Co886 2.037 . S
O917 C937 1.234 . S
C918 O892 1.269 . S
C918 O893 1.257 . S
C919 H894 0.930 . S
C919 C922 1.388 . S
C919 C924 1.418 . S
C920 H915 0.930 . S
C920 C923 1.404 . S
C920 C924 1.353 . S
N921 Co886 2.145 . S
N921 C922 1.397 . S
N921 C923 1.334 . S
C922 H903 0.929 . S
C922 C919 1.388 . S
C922 N921 1.397 . S
C923 H904 0.929 . S
C923 C920 1.404 . S
C923 N921 1.334 . S
C924 H916 0.930 . S
C924 C919 1.418 . S
C924 C920 1.353 . S
C925 H895 0.930 . S
C925 N926 1.330 . S
C925 C927 1.446 . S
N926 Co885 2.151 1_545 S
N926 C925 1.330 . S
N926 C930 1.418 . S
C927 H906 0.929 . S
C927 C925 1.446 . S
C927 C928 1.332 . S
C928 H908 0.931 . S
C928 C927 1.332 . S
C928 C929 1.267 . S
C929 H897 0.929 . S
C929 C928 1.267 . S
C929 C930 1.251 . S
C930 H900 0.929 . S
C930 N926 1.418 . S
C930 C929 1.251 . S
C931 H898 0.930 1_565 S
C931 C933 1.406 . S
C931 C936 1.261 . S
C932 H899 0.930 . S
C932 N934 1.325 . S
C932 C935 1.357 . S
C933 H901 0.927 1_565 S
C933 C931 1.406 . S
C933 N934 1.261 . S
N934 Co885 2.214 . S
N934 C932 1.325 . S
N934 C933 1.261 . S
C935 H905 0.931 . S
C935 C932 1.357 . S
C935 C936 1.312 . S
C936 H907 0.930 . S
C936 C931 1.261 . S
C936 C935 1.312 . S
C937 O909 1.214 . S
C937 O917 1.234 . S
C938 H910 0.929 . S
C938 C941 1.391 . S
C938 C943 1.391 . S
C939 H911 0.929 . S
C939 C940 1.390 . S
C939 N942 1.391 . S
C940 H912 0.930 . S
C940 C939 1.390 . S
C940 C941 1.392 . S
C941 H913 0.929 . S
C941 C938 1.391 . S
C941 C940 1.392 . S
N942 Co886 2.257 . S
N942 C939 1.391 . S
N942 C943 1.388 . S
C943 H914 0.930 . S
C943 C938 1.391 . S
C943 N942 1.388 . S
Co944 O946 2.143 . S
Co944 O952 2.074 . S
Co944 O955 2.093 . S
Co944 O968 2.097 . S
Co944 N985 2.151 . S
Co944 N993 2.214 . S
Co945 O946 2.160 . S
Co945 O951 2.058 . S
Co945 O961 2.057 . S
Co945 O976 2.037 . S
Co945 N980 2.145 . S
Co945 N1001 2.257 . S
O946 Co944 2.143 . S
O946 Co945 2.160 . S
C947 O948 1.278 . S
C947 O955 1.224 . S
O948 C947 1.278 . S
C949 O950 1.245 . S
C949 O961 1.232 . S
O950 C949 1.245 . S
O951 Co945 2.058 . S
O951 C977 1.269 . S
O952 Co944 2.074 . S
O952 C977 1.257 . S
H953 C978 0.930 . S
H954 C984 0.930 1_455 S
O955 Co944 2.093 . S
O955 C947 1.224 . S
H956 C988 0.929 . S
H957 C990 0.930 1_655 S
H958 C991 0.930 . S
H959 C989 0.929 . S
H960 C992 0.928 . S
O961 Co945 2.057 . S
O961 C949 1.232 . S
H962 C981 0.929 . S
H963 C982 0.929 . S
H964 C994 0.931 . S
H965 C986 0.929 . S
H966 C995 0.930 . S
H967 C987 0.931 . S
O968 Co944 2.097 . S
O968 C996 1.214 . S
H969 C997 0.929 . S
H970 C998 0.929 . S
H971 C999 0.930 . S
H972 C1000 0.929 . S
H973 C1002 0.930 . S
H974 C979 0.930 . S
H975 C983 0.930 . S
O976 Co945 2.037 . S
O976 C996 1.234 . S
C977 O951 1.269 . S
C977 O952 1.257 . S
C978 H953 0.930 . S
C978 C981 1.388 . S
C978 C983 1.418 . S
C979 H974 0.930 . S
C979 C982 1.404 . S
C979 C983 1.353 . S
N980 Co945 2.145 . S
N980 C981 1.397 . S
N980 C982 1.334 . S
C981 H962 0.929 . S
C981 C978 1.388 . S
C981 N980 1.397 . S
C982 H963 0.929 . S
C982 C979 1.404 . S
C982 N980 1.334 . S
C983 H975 0.930 . S
C983 C978 1.418 . S
C983 C979 1.353 . S
C984 H954 0.930 1_655 S
C984 N985 1.330 1_655 S
C984 C986 1.446 . S
N985 Co944 2.151 . S
N985 C984 1.330 1_455 S
N985 C989 1.418 1_455 S
C986 H965 0.929 . S
C986 C984 1.446 . S
C986 C987 1.332 . S
C987 H967 0.931 . S
C987 C986 1.332 . S
C987 C988 1.267 . S
C988 H956 0.929 . S
C988 C987 1.267 . S
C988 C989 1.251 . S
C989 H959 0.929 . S
C989 N985 1.418 1_655 S
C989 C988 1.251 . S
C990 H957 0.930 1_455 S
C990 C992 1.406 . S
C990 C995 1.261 . S
C991 H958 0.930 . S
C991 N993 1.325 . S
C991 C994 1.357 . S
C992 H960 0.928 . S
C992 C990 1.406 . S
C992 N993 1.261 . S
N993 Co944 2.214 . S
N993 C991 1.325 . S
N993 C992 1.261 . S
C994 H964 0.931 . S
C994 C991 1.357 . S
C994 C995 1.312 . S
C995 H966 0.930 . S
C995 C990 1.261 . S
C995 C994 1.312 . S
C996 O968 1.214 . S
C996 O976 1.234 . S
C997 H969 0.929 . S
C997 C1000 1.391 . S
C997 C1002 1.391 . S
C998 H970 0.929 . S
C998 C999 1.390 . S
C998 N1001 1.391 . S
C999 H971 0.930 . S
C999 C998 1.390 . S
C999 C1000 1.392 . S
C1000 H972 0.929 . S
C1000 C997 1.391 . S
C1000 C999 1.392 . S
N1001 Co945 2.257 . S
N1001 C998 1.391 . S
N1001 C1002 1.388 . S
C1002 H973 0.930 . S
C1002 C997 1.391 . S
C1002 N1001 1.388 . S
Co1003 O1005 2.143 . S
Co1003 O1011 2.074 . S
Co1003 O1014 2.093 . S
Co1003 O1027 2.097 . S
Co1003 N1044 2.151 . S
Co1003 N1052 2.214 . S
Co1004 O1005 2.160 . S
Co1004 O1010 2.058 . S
Co1004 O1020 2.057 . S
Co1004 O1035 2.037 . S
Co1004 N1039 2.145 . S
Co1004 N1060 2.257 . S
O1005 Co1003 2.143 . S
O1005 Co1004 2.160 . S
C1006 O1007 1.278 . S
C1006 O1014 1.224 . S
O1007 C1006 1.278 . S
C1008 O1009 1.245 . S
C1008 O1020 1.232 . S
O1009 C1008 1.245 . S
O1010 Co1004 2.058 . S
O1010 C1036 1.269 . S
O1011 Co1003 2.074 . S
O1011 C1036 1.257 . S
H1012 C1037 0.930 . S
H1013 C1043 0.930 . S
O1014 Co1003 2.093 . S
O1014 C1006 1.224 . S
H1015 C1047 0.929 . S
H1016 C1049 0.930 . S
H1017 C1050 0.930 . S
H1018 C1048 0.929 . S
H1019 C1051 0.928 . S
O1020 Co1004 2.057 . S
O1020 C1008 1.232 . S
H1021 C1040 0.929 . S
H1022 C1041 0.929 . S
H1023 C1053 0.931 . S
H1024 C1045 0.929 . S
H1025 C1054 0.930 . S
H1026 C1046 0.931 . S
O1027 Co1003 2.097 . S
O1027 C1055 1.214 . S
H1028 C1056 0.929 . S
H1029 C1057 0.929 . S
H1030 C1058 0.930 . S
H1031 C1059 0.929 . S
H1032 C1061 0.930 . S
H1033 C1038 0.930 . S
H1034 C1042 0.930 . S
O1035 Co1004 2.037 . S
O1035 C1055 1.234 . S
C1036 O1010 1.269 . S
C1036 O1011 1.257 . S
C1037 H1012 0.930 . S
C1037 C1040 1.388 . S
C1037 C1042 1.418 . S
C1038 H1033 0.930 . S
C1038 C1041 1.404 . S
C1038 C1042 1.353 . S
N1039 Co1004 2.145 . S
N1039 C1040 1.397 . S
N1039 C1041 1.334 . S
C1040 H1021 0.929 . S
C1040 C1037 1.388 . S
C1040 N1039 1.397 . S
C1041 H1022 0.929 . S
C1041 C1038 1.404 . S
C1041 N1039 1.334 . S
C1042 H1034 0.930 . S
C1042 C1037 1.418 . S
C1042 C1038 1.353 . S
C1043 H1013 0.930 . S
C1043 N1044 1.330 . S
C1043 C1045 1.446 . S
N1044 Co1003 2.151 . S
N1044 C1043 1.330 . S
N1044 C1048 1.418 . S
C1045 H1024 0.929 . S
C1045 C1043 1.446 . S
C1045 C1046 1.332 . S
C1046 H1026 0.931 . S
C1046 C1045 1.332 . S
C1046 C1047 1.267 . S
C1047 H1015 0.929 . S
C1047 C1046 1.267 . S
C1047 C1048 1.251 . S
C1048 H1018 0.929 . S
C1048 N1044 1.418 . S
C1048 C1047 1.251 . S
C1049 H1016 0.930 . S
C1049 C1051 1.406 . S
C1049 C1054 1.261 . S
C1050 H1017 0.930 . S
C1050 N1052 1.325 . S
C1050 C1053 1.357 . S
C1051 H1019 0.928 . S
C1051 C1049 1.406 . S
C1051 N1052 1.261 . S
N1052 Co1003 2.214 . S
N1052 C1050 1.325 . S
N1052 C1051 1.261 . S
C1053 H1023 0.931 . S
C1053 C1050 1.357 . S
C1053 C1054 1.312 . S
C1054 H1025 0.930 . S
C1054 C1049 1.261 . S
C1054 C1053 1.312 . S
C1055 O1027 1.214 . S
C1055 O1035 1.234 . S
C1056 H1028 0.929 . S
C1056 C1059 1.391 . S
C1056 C1061 1.391 . S
C1057 H1029 0.929 . S
C1057 C1058 1.390 . S
C1057 N1060 1.391 . S
C1058 H1030 0.930 . S
C1058 C1057 1.390 . S
C1058 C1059 1.392 . S
C1059 H1031 0.929 . S
C1059 C1056 1.391 . S
C1059 C1058 1.392 . S
N1060 Co1004 2.257 . S
N1060 C1057 1.391 . S
N1060 C1061 1.388 . S
C1061 H1032 0.930 . S
C1061 C1056 1.391 . S
C1061 N1060 1.388 . S
C1062 C1063 1.369 . S
C1062 C1064 1.419 . S
C1062 H1066 0.949 . S
C1063 C1062 1.369 . S
C1063 C1072 1.429 . S
C1064 C1062 1.419 . S
C1064 C1065 1.363 . S
C1064 H1067 0.929 . S
C1065 C1064 1.363 . S
C1065 C1071 1.428 . S
H1066 C1062 0.949 . S
H1067 C1064 0.929 . S
S1068 N1069 1.613 . S
S1068 N1070 1.610 . S
N1069 S1068 1.613 . S
N1069 C1072 1.350 . S
N1070 S1068 1.610 . S
N1070 C1071 1.351 . S
C1071 C1065 1.428 . S
C1071 N1070 1.351 . S
C1071 C1072 1.434 . S
C1072 C1063 1.429 . S
C1072 N1069 1.350 . S
C1072 C1071 1.434 . S
C1073 C1074 1.369 . S
C1073 C1075 1.419 . S
C1073 H1077 0.930 . S
C1074 C1073 1.369 . S
C1074 C1083 1.429 . S
C1075 C1073 1.419 . S
C1075 C1076 1.363 . S
C1075 H1078 0.929 . S
C1076 C1075 1.363 . S
C1076 C1082 1.428 . S
H1077 C1073 0.930 . S
H1078 C1075 0.929 . S
S1079 N1080 1.613 . S
S1079 N1081 1.610 . S
N1080 S1079 1.613 . S
N1080 C1083 1.350 . S
N1081 S1079 1.610 . S
N1081 C1082 1.351 . S
C1082 C1076 1.428 . S
C1082 N1081 1.351 . S
C1082 C1083 1.434 . S
C1083 C1074 1.429 . S
C1083 N1080 1.350 . S
C1083 C1082 1.434 . S
C1084 C1085 1.369 . S
C1084 C1086 1.419 . S
C1084 H1088 0.930 . S
C1085 C1084 1.369 . S
C1085 C1094 1.429 1_565 S
C1086 C1084 1.419 . S
C1086 C1087 1.363 . S
C1086 H1089 0.929 . S
C1087 C1086 1.363 . S
C1087 C1093 1.428 . S
H1088 C1084 0.930 . S
H1089 C1086 0.929 . S
S1090 N1091 1.613 . S
S1090 N1092 1.610 . S
N1091 S1090 1.613 . S
N1091 C1094 1.350 . S
N1092 S1090 1.610 . S
N1092 C1093 1.351 1_545 S
C1093 C1087 1.428 . S
C1093 N1092 1.351 1_565 S
C1093 C1094 1.434 1_565 S
C1094 C1085 1.429 1_545 S
C1094 N1091 1.350 . S
C1094 C1093 1.434 1_545 S
C1095 C1096 1.369 . S
C1095 C1097 1.419 . S
C1095 H1099 0.930 . S
C1096 C1095 1.369 . S
C1096 C1105 1.429 . S
C1097 C1095 1.419 . S
C1097 C1098 1.363 . S
C1097 H1100 0.929 . S
C1098 C1097 1.363 . S
C1098 C1104 1.428 . S
H1099 C1095 0.930 . S
H1100 C1097 0.929 . S
S1101 N1102 1.613 . S
S1101 N1103 1.610 . S
N1102 S1101 1.613 . S
N1102 C1105 1.350 . S
N1103 S1101 1.610 . S
N1103 C1104 1.351 . S
C1104 C1098 1.428 . S
C1104 N1103 1.351 . S
C1104 C1105 1.434 . S
C1105 C1096 1.429 . S
C1105 N1102 1.350 . S
C1105 C1104 1.434 . S
C1106 C1107 1.369 . S
C1106 C1108 1.419 . S
C1106 H1110 0.930 . S
C1107 C1106 1.369 . S
C1107 C1116 1.429 . S
C1108 C1106 1.419 . S
C1108 C1109 1.363 . S
C1108 H1111 0.929 . S
C1109 C1108 1.363 . S
C1109 C1115 1.428 . S
H1110 C1106 0.930 . S
H1111 C1108 0.929 . S
S1112 N1113 1.613 1_455 S
S1112 N1114 1.610 . S
N1113 S1112 1.613 1_655 S
N1113 C1116 1.350 . S
N1114 S1112 1.610 . S
N1114 C1115 1.351 1_455 S
C1115 C1109 1.428 . S
C1115 N1114 1.351 1_655 S
C1115 C1116 1.434 . S
C1116 C1107 1.429 . S
C1116 N1113 1.350 . S
C1116 C1115 1.434 . S
C1117 C1118 1.369 . S
C1117 C1119 1.419 . S
C1117 H1121 0.930 . S
C1118 C1117 1.369 . S
C1118 C1127 1.429 . S
C1119 C1117 1.419 . S
C1119 C1120 1.363 . S
C1119 H1122 0.929 . S
C1120 C1119 1.363 . S
C1120 C1126 1.428 . S
H1121 C1117 0.930 . S
H1122 C1119 0.929 . S
S1123 N1124 1.613 . S
S1123 N1125 1.610 . S
N1124 S1123 1.613 . S
N1124 C1127 1.350 . S
N1125 S1123 1.610 . S
N1125 C1126 1.351 . S
C1126 C1120 1.428 . S
C1126 N1125 1.351 . S
C1126 C1127 1.434 . S
C1127 C1118 1.429 . S
C1127 N1124 1.350 . S
C1127 C1126 1.434 . S
C1128 C1129 1.369 . S
C1128 C1130 1.419 . S
C1128 H1132 0.930 . S
C1129 C1128 1.369 . S
C1129 C1138 1.429 1_655 S
C1130 C1128 1.419 . S
C1130 C1131 1.363 . S
C1130 H1133 0.929 . S
C1131 C1130 1.363 . S
C1131 C1137 1.428 . S
H1132 C1128 0.930 . S
H1133 C1130 0.929 . S
S1134 N1135 1.613 . S
S1134 N1136 1.610 . S
N1135 S1134 1.613 . S
N1135 C1138 1.350 . S
N1136 S1134 1.610 . S
N1136 C1137 1.351 1_455 S
C1137 C1131 1.428 . S
C1137 N1136 1.351 1_655 S
C1137 C1138 1.434 1_655 S
C1138 C1129 1.429 1_455 S
C1138 N1135 1.350 . S
C1138 C1137 1.434 1_455 S
C1139 C1140 1.369 . S
C1139 C1141 1.419 . S
C1139 H1143 0.930 . S
C1140 C1139 1.369 . S
C1140 C1149 1.429 . S
C1141 C1139 1.419 . S
C1141 C1142 1.363 . S
C1141 H1144 0.929 . S
C1142 C1141 1.363 . S
C1142 C1148 1.428 . S
H1143 C1139 0.930 . S
H1144 C1141 0.929 . S
S1145 N1146 1.613 . S
S1145 N1147 1.610 . S
N1146 S1145 1.613 . S
N1146 C1149 1.350 . S
N1147 S1145 1.610 . S
N1147 C1148 1.351 . S
C1148 C1142 1.428 . S
C1148 N1147 1.351 . S
C1148 C1149 1.434 . S
C1149 C1140 1.429 . S
C1149 N1146 1.350 . S
C1149 C1148 1.434 . S
C1150 C1151 1.369 . S
C1150 C1152 1.419 . S
C1150 H1154 0.930 1_545 S
C1151 C1150 1.369 . S
C1151 C1160 1.429 . S
C1152 C1150 1.419 . S
C1152 C1153 1.363 . S
C1152 H1155 0.929 1_545 S
C1153 C1152 1.363 . S
C1153 C1159 1.428 . S
H1154 C1150 0.930 1_565 S
H1155 C1152 0.929 1_565 S
S1156 N1157 1.613 . S
S1156 N1158 1.610 . S
N1157 S1156 1.613 . S
N1157 C1160 1.350 . S
N1158 S1156 1.610 . S
N1158 C1159 1.351 . S
C1159 C1153 1.428 . S
C1159 N1158 1.351 . S
C1159 C1160 1.434 . S
C1160 C1151 1.429 . S
C1160 N1157 1.350 . S
C1160 C1159 1.434 . S
C1161 C1162 1.369 . S
C1161 C1163 1.419 . S
C1161 H1165 0.930 . S
C1162 C1161 1.369 . S
C1162 C1171 1.429 . S
C1163 C1161 1.419 . S
C1163 C1164 1.363 . S
C1163 H1166 0.929 . S
C1164 C1163 1.363 . S
C1164 C1170 1.428 . S
H1165 C1161 0.930 . S
H1166 C1163 0.929 . S
S1167 N1168 1.613 . S
S1167 N1169 1.610 . S
N1168 S1167 1.613 . S
N1168 C1171 1.350 1_545 S
N1169 S1167 1.610 . S
N1169 C1170 1.351 1_545 S
C1170 C1164 1.428 . S
C1170 N1169 1.351 1_565 S
C1170 C1171 1.434 . S
C1171 C1162 1.429 . S
C1171 N1168 1.350 1_565 S
C1171 C1170 1.434 . S
C1172 C1173 1.369 . S
C1172 C1174 1.419 . S
C1172 H1176 0.930 . S
C1173 C1172 1.369 . S
C1173 C1182 1.429 . S
C1174 C1172 1.419 . S
C1174 C1175 1.363 . S
C1174 H1177 0.929 . S
C1175 C1174 1.363 . S
C1175 C1181 1.428 . S
H1176 C1172 0.930 . S
H1177 C1174 0.929 . S
S1178 N1179 1.613 . S
S1178 N1180 1.610 1_655 S
N1179 S1178 1.613 . S
N1179 C1182 1.350 1_655 S
N1180 S1178 1.610 1_455 S
N1180 C1181 1.351 . S
C1181 C1175 1.428 . S
C1181 N1180 1.351 . S
C1181 C1182 1.434 . S
C1182 C1173 1.429 . S
C1182 N1179 1.350 1_455 S
C1182 C1181 1.434 . S
C1183 C1184 1.369 . S
C1183 C1185 1.419 . S
C1183 H1187 0.930 . S
C1184 C1183 1.369 . S
C1184 C1193 1.429 . S
C1185 C1183 1.419 . S
C1185 C1186 1.363 . S
C1185 H1188 0.929 . S
C1186 C1185 1.363 . S
C1186 C1192 1.428 . S
H1187 C1183 0.930 . S
H1188 C1185 0.929 . S
S1189 N1190 1.613 . S
S1189 N1191 1.610 . S
N1190 S1189 1.613 . S
N1190 C1193 1.350 . S
N1191 S1189 1.610 . S
N1191 C1192 1.351 . S
C1192 C1186 1.428 . S
C1192 N1191 1.351 . S
C1192 C1193 1.434 . S
C1193 C1184 1.429 . S
C1193 N1190 1.350 . S
C1193 C1192 1.434 . S
C1194 C1195 1.369 . S
C1194 C1196 1.419 . S
C1194 H1198 0.930 . S
C1195 C1194 1.369 . S
C1195 C1204 1.429 . S
C1196 C1194 1.419 . S
C1196 C1197 1.363 . S
C1196 H1199 0.929 . S
C1197 C1196 1.363 . S
C1197 C1203 1.428 . S
H1198 C1194 0.930 . S
H1199 C1196 0.929 . S
S1200 N1201 1.613 . S
S1200 N1202 1.610 . S
N1201 S1200 1.613 . S
N1201 C1204 1.350 . S
N1202 S1200 1.610 . S
N1202 C1203 1.351 . S
C1203 C1197 1.428 . S
C1203 N1202 1.351 . S
C1203 C1204 1.434 . S
C1204 C1195 1.429 . S
C1204 N1201 1.350 . S
C1204 C1203 1.434 . S
C1205 C1206 1.369 . S
C1205 C1207 1.419 . S
C1205 H1209 0.930 . S
C1206 C1205 1.369 . S
C1206 C1215 1.429 . S
C1207 C1205 1.419 . S
C1207 C1208 1.363 . S
C1207 H1210 0.929 1_545 S
C1208 C1207 1.363 . S
C1208 C1214 1.428 . S
H1209 C1205 0.930 . S
H1210 C1207 0.929 1_565 S
S1211 N1212 1.613 . S
S1211 N1213 1.610 . S
N1212 S1211 1.613 . S
N1212 C1215 1.350 . S
N1213 S1211 1.610 . S
N1213 C1214 1.351 . S
C1214 C1208 1.428 . S
C1214 N1213 1.351 . S
C1214 C1215 1.434 . S
C1215 C1206 1.429 . S
C1215 N1212 1.350 . S
C1215 C1214 1.434 . S
C1216 C1217 1.369 1_655 S
C1216 C1218 1.419 . S
C1216 H1220 0.930 . S
C1217 C1216 1.369 1_455 S
C1217 C1226 1.429 . S
C1218 C1216 1.419 . S
C1218 C1219 1.363 . S
C1218 H1221 0.929 . S
C1219 C1218 1.363 . S
C1219 C1225 1.428 1_655 S
H1220 C1216 0.930 . S
H1221 C1218 0.929 . S
S1222 N1223 1.613 . S
S1222 N1224 1.610 . S
N1223 S1222 1.613 . S
N1223 C1226 1.350 . S
N1224 S1222 1.610 . S
N1224 C1225 1.351 . S
C1225 C1219 1.428 1_455 S
C1225 N1224 1.351 . S
C1225 C1226 1.434 . S
C1226 C1217 1.429 . S
C1226 N1223 1.350 . S
C1226 C1225 1.434 . S
C1227 C1228 1.369 . S
C1227 C1229 1.419 . S
C1227 H1231 0.930 . S
C1228 C1227 1.369 . S
C1228 C1237 1.429 . S
C1229 C1227 1.419 . S
C1229 C1230 1.363 . S
C1229 H1232 0.929 . S
C1230 C1229 1.363 . S
C1230 C1236 1.428 . S
H1231 C1227 0.930 . S
H1232 C1229 0.929 . S
S1233 N1234 1.613 . S
S1233 N1235 1.610 . S
N1234 S1233 1.613 . S
N1234 C1237 1.350 . S
N1235 S1233 1.610 . S
N1235 C1236 1.351 . S
C1236 C1230 1.428 . S
C1236 N1235 1.351 . S
C1236 C1237 1.434 . S
C1237 C1228 1.429 . S
C1237 N1234 1.350 . S
C1237 C1236 1.434 . S
C1238 C1239 1.369 1_565 S
C1238 C1240 1.419 . S
C1238 H1242 0.930 . S
C1239 C1238 1.369 1_545 S
C1239 C1248 1.429 . S
C1240 C1238 1.419 . S
C1240 C1241 1.363 . S
C1240 H1243 0.929 . S
C1241 C1240 1.363 . S
C1241 C1247 1.428 1_565 S
H1242 C1238 0.930 . S
H1243 C1240 0.929 . S
S1244 N1245 1.613 . S
S1244 N1246 1.610 . S
N1245 S1244 1.613 . S
N1245 C1248 1.350 . S
N1246 S1244 1.610 . S
N1246 C1247 1.351 . S
C1247 C1241 1.428 1_545 S
C1247 N1246 1.351 . S
C1247 C1248 1.434 . S
C1248 C1239 1.429 . S
C1248 N1245 1.350 . S
C1248 C1247 1.434 . S
C1249 C1250 1.369 . S
C1249 C1251 1.419 . S
C1249 H1253 0.930 . S
C1250 C1249 1.369 . S
C1250 C1259 1.429 1_455 S
C1251 C1249 1.419 . S
C1251 C1252 1.363 1_455 S
C1251 H1254 0.929 . S
C1252 C1251 1.363 1_655 S
C1252 C1258 1.428 . S
H1253 C1249 0.930 . S
H1254 C1251 0.929 . S
S1255 N1256 1.613 . S
S1255 N1257 1.610 . S
N1256 S1255 1.613 . S
N1256 C1259 1.350 . S
N1257 S1255 1.610 . S
N1257 C1258 1.351 . S
C1258 C1252 1.428 . S
C1258 N1257 1.351 . S
C1258 C1259 1.434 . S
C1259 C1250 1.429 1_655 S
C1259 N1256 1.350 . S
C1259 C1258 1.434 . S
C1260 C1261 1.369 . S
C1260 C1262 1.419 . S
C1260 H1264 0.930 . S
C1261 C1260 1.369 . S
C1261 C1270 1.429 . S
C1262 C1260 1.419 . S
C1262 C1263 1.363 . S
C1262 H1265 0.929 . S
C1263 C1262 1.363 . S
C1263 C1269 1.428 . S
H1264 C1260 0.930 . S
H1265 C1262 0.929 . S
S1266 N1267 1.613 . S
S1266 N1268 1.610 . S
N1267 S1266 1.613 . S
N1267 C1270 1.350 . S
N1268 S1266 1.610 . S
N1268 C1269 1.351 . S
C1269 C1263 1.428 . S
C1269 N1268 1.351 . S
C1269 C1270 1.434 . S
C1270 C1261 1.429 . S
C1270 N1267 1.350 . S
C1270 C1269 1.434 . S
C1271 C1272 1.369 . S
C1271 C1273 1.419 . S
C1271 H1275 0.930 . S
C1272 C1271 1.369 . S
C1272 C1281 1.429 . S
C1273 C1271 1.419 . S
C1273 C1274 1.363 . S
C1273 H1276 0.929 . S
C1274 C1273 1.363 . S
C1274 C1280 1.428 . S
H1275 C1271 0.930 . S
H1276 C1273 0.929 . S
S1277 N1278 1.613 . S
S1277 N1279 1.610 . S
N1278 S1277 1.613 . S
N1278 C1281 1.350 . S
N1279 S1277 1.610 . S
N1279 C1280 1.351 . S
C1280 C1274 1.428 . S
C1280 N1279 1.351 . S
C1280 C1281 1.434 . S
C1281 C1272 1.429 . S
C1281 N1278 1.350 . S
C1281 C1280 1.434 . S
C1282 C1283 1.369 . S
C1282 C1284 1.419 . S
C1282 H1286 0.930 . S
C1283 C1282 1.369 . S
C1283 C1292 1.429 . S
C1284 C1282 1.419 . S
C1284 C1285 1.363 . S
C1284 H1287 0.929 . S
C1285 C1284 1.363 . S
C1285 C1291 1.428 . S
H1286 C1282 0.930 . S
H1287 C1284 0.929 . S
S1288 N1289 1.613 . S
S1288 N1290 1.610 . S
N1289 S1288 1.613 . S
N1289 C1292 1.350 . S
N1290 S1288 1.610 . S
N1290 C1291 1.351 . S
C1291 C1285 1.428 . S
C1291 N1290 1.351 . S
C1291 C1292 1.434 . S
C1292 C1283 1.429 . S
C1292 N1289 1.350 . S
C1292 C1291 1.434 . S
C1293 C1294 1.369 . S
C1293 C1295 1.419 . S
C1293 H1297 0.930 . S
C1294 C1293 1.369 . S
C1294 C1303 1.429 . S
C1295 C1293 1.419 . S
C1295 C1296 1.363 . S
C1295 H1298 0.929 . S
C1296 C1295 1.363 . S
C1296 C1302 1.428 . S
H1297 C1293 0.930 . S
H1298 C1295 0.929 . S
S1299 N1300 1.613 . S
S1299 N1301 1.610 . S
N1300 S1299 1.613 . S
N1300 C1303 1.350 . S
N1301 S1299 1.610 . S
N1301 C1302 1.351 . S
C1302 C1296 1.428 . S
C1302 N1301 1.351 . S
C1302 C1303 1.434 . S
C1303 C1294 1.429 . S
C1303 N1300 1.350 . S
C1303 C1302 1.434 . S
C1304 C1305 1.369 . S
C1304 C1306 1.419 . S
C1304 H1308 0.930 . S
C1305 C1304 1.369 . S
C1305 C1314 1.429 . S
C1306 C1304 1.419 . S
C1306 C1307 1.363 . S
C1306 H1309 0.929 . S
C1307 C1306 1.363 . S
C1307 C1313 1.428 . S
H1308 C1304 0.930 . S
H1309 C1306 0.929 . S
S1310 N1311 1.613 . S
S1310 N1312 1.610 . S
N1311 S1310 1.613 . S
N1311 C1314 1.350 . S
N1312 S1310 1.610 . S
N1312 C1313 1.351 . S
C1313 C1307 1.428 . S
C1313 N1312 1.351 . S
C1313 C1314 1.434 . S
C1314 C1305 1.429 . S
C1314 N1311 1.350 . S
C1314 C1313 1.434 . S
C1315 C1316 1.369 . S
C1315 C1317 1.419 . S
C1315 H1319 0.930 . S
C1316 C1315 1.369 . S
C1316 C1325 1.429 . S
C1317 C1315 1.419 . S
C1317 C1318 1.363 . S
C1317 H1320 0.929 . S
C1318 C1317 1.363 . S
C1318 C1324 1.428 . S
H1319 C1315 0.930 . S
H1320 C1317 0.929 . S
S1321 N1322 1.613 . S
S1321 N1323 1.610 . S
N1322 S1321 1.613 . S
N1322 C1325 1.350 . S
N1323 S1321 1.610 . S
N1323 C1324 1.351 . S
C1324 C1318 1.428 . S
C1324 N1323 1.351 . S
C1324 C1325 1.434 . S
C1325 C1316 1.429 . S
C1325 N1322 1.350 . S
C1325 C1324 1.434 . S
C1326 C1327 1.369 . S
C1326 C1328 1.419 . S
C1326 H1330 0.930 . S
C1327 C1326 1.369 . S
C1327 C1336 1.429 . S
C1328 C1326 1.419 . S
C1328 C1329 1.363 . S
C1328 H1331 0.929 . S
C1329 C1328 1.363 . S
C1329 C1335 1.428 . S
H1330 C1326 0.930 . S
H1331 C1328 0.929 . S
S1332 N1333 1.613 . S
S1332 N1334 1.610 . S
N1333 S1332 1.613 . S
N1333 C1336 1.350 . S
N1334 S1332 1.610 . S
N1334 C1335 1.351 . S
C1335 C1329 1.428 . S
C1335 N1334 1.351 . S
C1335 C1336 1.434 . S
C1336 C1327 1.429 . S
C1336 N1333 1.350 . S
C1336 C1335 1.434 . S
C1337 C1338 1.369 . S
C1337 C1339 1.419 . S
C1337 H1341 0.930 . S
C1338 C1337 1.369 . S
C1338 C1347 1.429 . S
C1339 C1337 1.419 . S
C1339 C1340 1.363 . S
C1339 H1342 0.929 . S
C1340 C1339 1.363 . S
C1340 C1346 1.428 . S
H1341 C1337 0.930 . S
H1342 C1339 0.929 . S
S1343 N1344 1.613 . S
S1343 N1345 1.610 . S
N1344 S1343 1.613 . S
N1344 C1347 1.350 . S
N1345 S1343 1.610 . S
N1345 C1346 1.351 . S
C1346 C1340 1.428 . S
C1346 N1345 1.351 . S
C1346 C1347 1.434 . S
C1347 C1338 1.429 . S
C1347 N1344 1.350 . S
C1347 C1346 1.434 . S
C1348 C1349 1.369 . S
C1348 C1350 1.419 . S
C1348 H1352 0.930 . S
C1349 C1348 1.369 . S
C1349 C1358 1.429 . S
C1350 C1348 1.419 . S
C1350 C1351 1.363 . S
C1350 H1353 0.929 . S
C1351 C1350 1.363 . S
C1351 C1357 1.428 . S
H1352 C1348 0.930 . S
H1353 C1350 0.929 . S
S1354 N1355 1.613 . S
S1354 N1356 1.610 . S
N1355 S1354 1.613 . S
N1355 C1358 1.350 . S
N1356 S1354 1.610 . S
N1356 C1357 1.351 . S
C1357 C1351 1.428 . S
C1357 N1356 1.351 . S
C1357 C1358 1.434 . S
C1358 C1349 1.429 . S
C1358 N1355 1.350 . S
C1358 C1357 1.434 . S
C1359 C1360 1.369 . S
C1359 C1361 1.419 . S
C1359 H1363 0.930 . S
C1360 C1359 1.369 . S
C1360 C1369 1.429 . S
C1361 C1359 1.419 . S
C1361 C1362 1.363 . S
C1361 H1364 0.929 . S
C1362 C1361 1.363 . S
C1362 C1368 1.428 . S
H1363 C1359 0.930 . S
H1364 C1361 0.929 . S
S1365 N1366 1.613 . S
S1365 N1367 1.610 . S
N1366 S1365 1.613 . S
N1366 C1369 1.350 . S
N1367 S1365 1.610 . S
N1367 C1368 1.351 . S
C1368 C1362 1.428 . S
C1368 N1367 1.351 . S
C1368 C1369 1.434 . S
C1369 C1360 1.429 . S
C1369 N1366 1.350 . S
C1369 C1368 1.434 . S
C1370 C1371 1.369 . S
C1370 C1372 1.419 . S
C1370 H1374 0.930 . S
C1371 C1370 1.369 . S
C1371 C1380 1.429 . S
C1372 C1370 1.419 . S
C1372 C1373 1.363 . S
C1372 H1375 0.929 . S
C1373 C1372 1.363 . S
C1373 C1379 1.428 . S
H1374 C1370 0.930 . S
H1375 C1372 0.929 . S
S1376 N1377 1.613 . S
S1376 N1378 1.610 . S
N1377 S1376 1.613 . S
N1377 C1380 1.350 . S
N1378 S1376 1.610 . S
N1378 C1379 1.351 . S
C1379 C1373 1.428 . S
C1379 N1378 1.351 . S
C1379 C1380 1.434 . S
C1380 C1371 1.429 . S
C1380 N1377 1.350 . S
C1380 C1379 1.434 . S
C1381 C1382 1.369 . S
C1381 C1383 1.419 . S
C1381 H1385 0.930 . S
C1382 C1381 1.369 . S
C1382 C1391 1.429 . S
C1383 C1381 1.419 . S
C1383 C1384 1.363 . S
C1383 H1386 0.929 . S
C1384 C1383 1.363 . S
C1384 C1390 1.428 . S
H1385 C1381 0.930 . S
H1386 C1383 0.929 . S
S1387 N1388 1.613 . S
S1387 N1389 1.610 . S
N1388 S1387 1.613 . S
N1388 C1391 1.350 . S
N1389 S1387 1.610 . S
N1389 C1390 1.351 . S
C1390 C1384 1.428 . S
C1390 N1389 1.351 . S
C1390 C1391 1.434 . S
C1391 C1382 1.429 . S
C1391 N1388 1.350 . S
C1391 C1390 1.434 . S
C1392 C1393 1.369 . S
C1392 C1394 1.419 . S
C1392 H1396 0.930 . S
C1393 C1392 1.369 . S
C1393 C1402 1.429 . S
C1394 C1392 1.419 . S
C1394 C1395 1.363 . S
C1394 H1397 0.929 . S
C1395 C1394 1.363 . S
C1395 C1401 1.428 . S
H1396 C1392 0.930 . S
H1397 C1394 0.929 . S
S1398 N1399 1.613 . S
S1398 N1400 1.610 . S
N1399 S1398 1.613 . S
N1399 C1402 1.350 . S
N1400 S1398 1.610 . S
N1400 C1401 1.351 . S
C1401 C1395 1.428 . S
C1401 N1400 1.351 . S
C1401 C1402 1.434 . S
C1402 C1393 1.429 . S
C1402 N1399 1.350 . S
C1402 C1401 1.434 . S
C1403 C1404 1.369 . S
C1403 C1405 1.419 . S
C1403 H1407 0.930 . S
C1404 C1403 1.369 . S
C1404 C1413 1.429 . S
C1405 C1403 1.419 . S
C1405 C1406 1.363 1_545 S
C1405 H1408 0.929 1_545 S
C1406 C1405 1.363 1_565 S
C1406 C1412 1.428 1_565 S
H1407 C1403 0.930 . S
H1408 C1405 0.929 1_565 S
S1409 N1410 1.613 . S
S1409 N1411 1.610 . S
N1410 S1409 1.613 . S
N1410 C1413 1.350 . S
N1411 S1409 1.610 . S
N1411 C1412 1.351 . S
C1412 C1406 1.428 1_545 S
C1412 N1411 1.351 . S
C1412 C1413 1.434 . S
C1413 C1404 1.429 . S
C1413 N1410 1.350 . S
C1413 C1412 1.434 . S
C1414 C1415 1.369 . S
C1414 C1416 1.419 1_455 S
C1414 H1418 0.930 . S
C1415 C1414 1.369 . S
C1415 C1424 1.429 . S
C1416 C1414 1.419 1_655 S
C1416 C1417 1.363 . S
C1416 H1419 0.929 . S
C1417 C1416 1.363 . S
C1417 C1423 1.428 1_655 S
H1418 C1414 0.930 . S
H1419 C1416 0.929 . S
S1420 N1421 1.613 . S
S1420 N1422 1.610 . S
N1421 S1420 1.613 . S
N1421 C1424 1.350 . S
N1422 S1420 1.610 . S
N1422 C1423 1.351 . S
C1423 C1417 1.428 1_455 S
C1423 N1422 1.351 . S
C1423 C1424 1.434 . S
C1424 C1415 1.429 . S
C1424 N1421 1.350 . S
C1424 C1423 1.434 . S
C1425 C1426 1.369 1_554 S
C1425 C1427 1.419 . S
C1425 H1429 0.930 . S
C1426 C1425 1.369 1_556 S
C1426 C1435 1.429 . S
C1427 C1425 1.419 . S
C1427 C1428 1.363 . S
C1427 H1430 0.929 . S
C1428 C1427 1.363 . S
C1428 C1434 1.428 1_554 S
H1429 C1425 0.930 . S
H1430 C1427 0.929 . S
S1431 N1432 1.613 . S
S1431 N1433 1.610 . S
N1432 S1431 1.613 . S
N1432 C1435 1.350 . S
N1433 S1431 1.610 . S
N1433 C1434 1.351 . S
C1434 C1428 1.428 1_556 S
C1434 N1433 1.351 . S
C1434 C1435 1.434 . S
C1435 C1426 1.429 . S
C1435 N1432 1.350 . S
C1435 C1434 1.434 . S
C1436 C1437 1.369 . S
C1436 C1438 1.419 1_565 S
C1436 H1440 0.930 . S
C1437 C1436 1.369 . S
C1437 C1446 1.429 1_556 S
C1438 C1436 1.419 1_545 S
C1438 C1439 1.363 1_556 S
C1438 H1441 0.929 . S
C1439 C1438 1.363 1_554 S
C1439 C1445 1.428 . S
H1440 C1436 0.930 . S
H1441 C1438 0.929 . S
S1442 N1443 1.613 . S
S1442 N1444 1.610 1_565 S
N1443 S1442 1.613 . S
N1443 C1446 1.350 . S
N1444 S1442 1.610 1_545 S
N1444 C1445 1.351 . S
C1445 C1439 1.428 . S
C1445 N1444 1.351 . S
C1445 C1446 1.434 1_545 S
C1446 C1437 1.429 1_554 S
C1446 N1443 1.350 . S
C1446 C1445 1.434 1_565 S
C1447 C1448 1.369 . S
C1447 C1449 1.419 1_455 S
C1447 H1451 0.930 . S
C1448 C1447 1.369 . S
C1448 C1457 1.429 1_556 S
C1449 C1447 1.419 1_655 S
C1449 C1450 1.363 1_556 S
C1449 H1452 0.929 . S
C1450 C1449 1.363 1_554 S
C1450 C1456 1.428 1_655 S
H1451 C1447 0.930 . S
H1452 C1449 0.929 . S
S1453 N1454 1.613 . S
S1453 N1455 1.610 . S
N1454 S1453 1.613 . S
N1454 C1457 1.350 . S
N1455 S1453 1.610 . S
N1455 C1456 1.351 . S
C1456 C1450 1.428 1_455 S
C1456 N1455 1.351 . S
C1456 C1457 1.434 . S
C1457 C1448 1.429 1_554 S
C1457 N1454 1.350 . S
C1457 C1456 1.434 . S
C1063 C33 1.307 . S
C1065 C829 1.304 . S
C1074 C711 1.256 . S
C1076 C62 1.265 . S
C1085 C151 1.483 . S
C1087 C800 1.495 . S
C1096 C387 1.260 . S
C1098 C121 1.256 . S
C1107 C416 1.230 . S
C1109 C3 1.236 . S
C1118 C475 1.410 . S
C1120 C92 1.419 . S
C1129 C180 1.238 . S
C1131 C652 1.238 . S
C1140 C534 1.140 . S
C1142 C239 1.143 . S
C1151 C593 1.373 . S
C1153 C328 1.379 . S
C1162 C298 1.301 . S
C1164 C888 1.293 . S
C1173 C210 1.275 . S
C1175 C947 1.272 . S
C1184 C1036 1.502 . S
C1186 C269 1.500 . S
C1195 C741 1.359 . S
C1197 C505 1.359 . S
C1206 C357 1.290 . S
C1208 C770 1.290 1_545 S
C1217 C859 1.549 . S
C1219 C446 1.543 . S
C1228 C1006 1.417 . S
C1230 C564 1.419 . S
C1239 C623 1.366 . S
C1241 C918 1.362 . S
C1250 C977 1.572 . S
C1252 C682 1.569 . S
C1261 C937 2.120 . S
C1263 C5 2.081 . S
C1272 C111 1.845 . S
C1274 C996 1.863 . S
C1283 C123 1.668 . S
C1285 C1008 1.668 . S
C1294 C170 1.627 . S
C1296 C701 1.606 . S
C1305 C583 2.145 . S
C1307 C52 2.154 . S
C1316 C64 1.863 . S
C1318 C642 1.915 . S
C1327 C359 2.137 . S
C1329 C229 2.178 . S
C1338 C465 1.716 . S
C1340 C288 1.693 . S
C1349 C300 1.786 . S
C1351 C524 1.846 . S
C1360 C347 1.830 . S
C1362 C878 1.844 . S
C1371 C182 2.006 . S
C1373 C760 2.056 . S
C1382 C241 1.920 . S
C1384 C772 1.937 . S
C1393 C477 1.712 . S
C1395 C1055 1.749 . S
C1404 C406 2.154 . S
C1406 C890 2.154 . S
C1415 C949 1.921 . S
C1417 C418 1.933 . S
C1426 C713 2.161 . S
C1428 C536 2.131 . S
C1437 C819 1.756 . S
C1439 C595 1.733 . S
C1448 C831 1.834 . S
C1450 C654 1.846 . S
