# Generated by pormake.
# Topology wlg, (5)-cn, num edge types: 1
# Building blocks:
#     Node 0, Type 0, BuildingBlock: BEQFEK_clean_sbu_0, # of connection points: 5
#     Node 1, Type 0, BuildingBlock: BEQFEK_clean_sbu_0, # of connection points: 5
#     Node 2, Type 0, BuildingBlock: BEQFEK_clean_sbu_0, # of connection points: 5
#     Node 3, Type 0, BuildingBlock: BEQFEK_clean_sbu_0, # of connection points: 5
#     Node 4, Type 0, BuildingBlock: BEQFEK_clean_sbu_0, # of connection points: 5
#     Node 5, Type 0, BuildingBlock: BEQFEK_clean_sbu_0, # of connection points: 5
#     Node 6, Type 0, BuildingBlock: BEQFEK_clean_sbu_0, # of connection points: 5
#     Node 7, Type 0, BuildingBlock: BEQFEK_clean_sbu_0, # of connection points: 5
#     Node 8, Type 0, BuildingBlock: BEQFEK_clean_sbu_0, # of connection points: 5
#     Node 9, Type 0, BuildingBlock: BEQFEK_clean_sbu_0, # of connection points: 5
#     Node 10, Type 0, BuildingBlock: BEQFEK_clean_sbu_0, # of connection points: 5
#     Node 11, Type 0, BuildingBlock: BEQFEK_clean_sbu_0, # of connection points: 5
#     Node 12, Type 0, BuildingBlock: BEQFEK_clean_sbu_0, # of connection points: 5
#     Node 13, Type 0, BuildingBlock: BEQFEK_clean_sbu_0, # of connection points: 5
#     Node 14, Type 0, BuildingBlock: BEQFEK_clean_sbu_0, # of connection points: 5
#     Node 15, Type 0, BuildingBlock: BEQFEK_clean_sbu_0, # of connection points: 5
#     Node 16, Type 0, BuildingBlock: BEQFEK_clean_sbu_0, # of connection points: 5
#     Node 17, Type 0, BuildingBlock: BEQFEK_clean_sbu_0, # of connection points: 5
#     Node 18, Type 0, BuildingBlock: BEQFEK_clean_sbu_0, # of connection points: 5
#     Node 19, Type 0, BuildingBlock: BEQFEK_clean_sbu_0, # of connection points: 5
#     Node 20, Type 0, BuildingBlock: BEQFEK_clean_sbu_0, # of connection points: 5
#     Node 21, Type 0, BuildingBlock: BEQFEK_clean_sbu_0, # of connection points: 5
#     Node 22, Type 0, BuildingBlock: BEQFEK_clean_sbu_0, # of connection points: 5
#     Node 23, Type 0, BuildingBlock: BEQFEK_clean_sbu_0, # of connection points: 5
#     Node 24, Type 0, BuildingBlock: BEQFEK_clean_sbu_0, # of connection points: 5
#     Node 25, Type 0, BuildingBlock: BEQFEK_clean_sbu_0, # of connection points: 5
#     Node 26, Type 0, BuildingBlock: BEQFEK_clean_sbu_0, # of connection points: 5
#     Node 27, Type 0, BuildingBlock: BEQFEK_clean_sbu_0, # of connection points: 5
#     Node 28, Type 0, BuildingBlock: BEQFEK_clean_sbu_0, # of connection points: 5
#     Node 29, Type 0, BuildingBlock: BEQFEK_clean_sbu_0, # of connection points: 5
#     Node 30, Type 0, BuildingBlock: BEQFEK_clean_sbu_0, # of connection points: 5
#     Node 31, Type 0, BuildingBlock: BEQFEK_clean_sbu_0, # of connection points: 5
#     Node 32, Type 0, BuildingBlock: BEQFEK_clean_sbu_0, # of connection points: 5
#     Node 33, Type 0, BuildingBlock: BEQFEK_clean_sbu_0, # of connection points: 5
#     Node 34, Type 0, BuildingBlock: BEQFEK_clean_sbu_0, # of connection points: 5
#     Node 35, Type 0, BuildingBlock: BEQFEK_clean_sbu_0, # of connection points: 5
#     Edge 36, Type (0, 0), BuildingBlock: EZIPEK_clean_linker_0, # of connection points: 2
#     Edge 37, Type (0, 0), BuildingBlock: EZIPEK_clean_linker_0, # of connection points: 2
#     Edge 38, Type (0, 0), BuildingBlock: EZIPEK_clean_linker_0, # of connection points: 2
#     Edge 39, Type (0, 0), BuildingBlock: EZIPEK_clean_linker_0, # of connection points: 2
#     Edge 40, Type (0, 0), BuildingBlock: EZIPEK_clean_linker_0, # of connection points: 2
#     Edge 41, Type (0, 0), BuildingBlock: EZIPEK_clean_linker_0, # of connection points: 2
#     Edge 42, Type (0, 0), BuildingBlock: EZIPEK_clean_linker_0, # of connection points: 2
#     Edge 43, Type (0, 0), BuildingBlock: EZIPEK_clean_linker_0, # of connection points: 2
#     Edge 44, Type (0, 0), BuildingBlock: EZIPEK_clean_linker_0, # of connection points: 2
#     Edge 45, Type (0, 0), BuildingBlock: EZIPEK_clean_linker_0, # of connection points: 2
#     Edge 46, Type (0, 0), BuildingBlock: EZIPEK_clean_linker_0, # of connection points: 2
#     Edge 47, Type (0, 0), BuildingBlock: EZIPEK_clean_linker_0, # of connection points: 2
#     Edge 48, Type (0, 0), BuildingBlock: EZIPEK_clean_linker_0, # of connection points: 2
#     Edge 49, Type (0, 0), BuildingBlock: EZIPEK_clean_linker_0, # of connection points: 2
#     Edge 50, Type (0, 0), BuildingBlock: EZIPEK_clean_linker_0, # of connection points: 2
#     Edge 51, Type (0, 0), BuildingBlock: EZIPEK_clean_linker_0, # of connection points: 2
#     Edge 52, Type (0, 0), BuildingBlock: EZIPEK_clean_linker_0, # of connection points: 2
#     Edge 53, Type (0, 0), BuildingBlock: EZIPEK_clean_linker_0, # of connection points: 2
#     Edge 54, Type (0, 0), BuildingBlock: EZIPEK_clean_linker_0, # of connection points: 2
#     Edge 55, Type (0, 0), BuildingBlock: EZIPEK_clean_linker_0, # of connection points: 2
#     Edge 56, Type (0, 0), BuildingBlock: EZIPEK_clean_linker_0, # of connection points: 2
#     Edge 57, Type (0, 0), BuildingBlock: EZIPEK_clean_linker_0, # of connection points: 2
#     Edge 58, Type (0, 0), BuildingBlock: EZIPEK_clean_linker_0, # of connection points: 2
#     Edge 59, Type (0, 0), BuildingBlock: EZIPEK_clean_linker_0, # of connection points: 2
#     Edge 60, Type (0, 0), BuildingBlock: EZIPEK_clean_linker_0, # of connection points: 2
#     Edge 61, Type (0, 0), BuildingBlock: EZIPEK_clean_linker_0, # of connection points: 2
#     Edge 62, Type (0, 0), BuildingBlock: EZIPEK_clean_linker_0, # of connection points: 2
#     Edge 63, Type (0, 0), BuildingBlock: EZIPEK_clean_linker_0, # of connection points: 2
#     Edge 64, Type (0, 0), BuildingBlock: EZIPEK_clean_linker_0, # of connection points: 2
#     Edge 65, Type (0, 0), BuildingBlock: EZIPEK_clean_linker_0, # of connection points: 2
#     Edge 66, Type (0, 0), BuildingBlock: EZIPEK_clean_linker_0, # of connection points: 2
#     Edge 67, Type (0, 0), BuildingBlock: EZIPEK_clean_linker_0, # of connection points: 2
#     Edge 68, Type (0, 0), BuildingBlock: EZIPEK_clean_linker_0, # of connection points: 2
#     Edge 69, Type (0, 0), BuildingBlock: EZIPEK_clean_linker_0, # of connection points: 2
#     Edge 70, Type (0, 0), BuildingBlock: EZIPEK_clean_linker_0, # of connection points: 2
#     Edge 71, Type (0, 0), BuildingBlock: EZIPEK_clean_linker_0, # of connection points: 2
#     Edge 72, Type (0, 0), BuildingBlock: EZIPEK_clean_linker_0, # of connection points: 2
#     Edge 73, Type (0, 0), BuildingBlock: EZIPEK_clean_linker_0, # of connection points: 2
#     Edge 74, Type (0, 0), BuildingBlock: EZIPEK_clean_linker_0, # of connection points: 2
#     Edge 75, Type (0, 0), BuildingBlock: EZIPEK_clean_linker_0, # of connection points: 2
#     Edge 76, Type (0, 0), BuildingBlock: EZIPEK_clean_linker_0, # of connection points: 2
#     Edge 77, Type (0, 0), BuildingBlock: EZIPEK_clean_linker_0, # of connection points: 2
#     Edge 78, Type (0, 0), BuildingBlock: EZIPEK_clean_linker_0, # of connection points: 2
#     Edge 79, Type (0, 0), BuildingBlock: EZIPEK_clean_linker_0, # of connection points: 2
#     Edge 80, Type (0, 0), BuildingBlock: EZIPEK_clean_linker_0, # of connection points: 2
#     Edge 81, Type (0, 0), BuildingBlock: EZIPEK_clean_linker_0, # of connection points: 2
#     Edge 82, Type (0, 0), BuildingBlock: EZIPEK_clean_linker_0, # of connection points: 2
#     Edge 83, Type (0, 0), BuildingBlock: EZIPEK_clean_linker_0, # of connection points: 2
#     Edge 84, Type (0, 0), BuildingBlock: EZIPEK_clean_linker_0, # of connection points: 2
#     Edge 85, Type (0, 0), BuildingBlock: EZIPEK_clean_linker_0, # of connection points: 2
#     Edge 86, Type (0, 0), BuildingBlock: EZIPEK_clean_linker_0, # of connection points: 2
#     Edge 87, Type (0, 0), BuildingBlock: EZIPEK_clean_linker_0, # of connection points: 2
#     Edge 88, Type (0, 0), BuildingBlock: EZIPEK_clean_linker_0, # of connection points: 2
#     Edge 89, Type (0, 0), BuildingBlock: EZIPEK_clean_linker_0, # of connection points: 2
#     Edge 90, Type (0, 0), BuildingBlock: EZIPEK_clean_linker_0, # of connection points: 2
#     Edge 91, Type (0, 0), BuildingBlock: EZIPEK_clean_linker_0, # of connection points: 2
#     Edge 92, Type (0, 0), BuildingBlock: EZIPEK_clean_linker_0, # of connection points: 2
#     Edge 93, Type (0, 0), BuildingBlock: EZIPEK_clean_linker_0, # of connection points: 2
#     Edge 94, Type (0, 0), BuildingBlock: EZIPEK_clean_linker_0, # of connection points: 2
#     Edge 95, Type (0, 0), BuildingBlock: EZIPEK_clean_linker_0, # of connection points: 2
#     Edge 96, Type (0, 0), BuildingBlock: EZIPEK_clean_linker_0, # of connection points: 2
#     Edge 97, Type (0, 0), BuildingBlock: EZIPEK_clean_linker_0, # of connection points: 2
#     Edge 98, Type (0, 0), BuildingBlock: EZIPEK_clean_linker_0, # of connection points: 2
#     Edge 99, Type (0, 0), BuildingBlock: EZIPEK_clean_linker_0, # of connection points: 2
#     Edge 100, Type (0, 0), BuildingBlock: EZIPEK_clean_linker_0, # of connection points: 2
#     Edge 101, Type (0, 0), BuildingBlock: EZIPEK_clean_linker_0, # of connection points: 2
#     Edge 102, Type (0, 0), BuildingBlock: EZIPEK_clean_linker_0, # of connection points: 2
#     Edge 103, Type (0, 0), BuildingBlock: EZIPEK_clean_linker_0, # of connection points: 2
#     Edge 104, Type (0, 0), BuildingBlock: EZIPEK_clean_linker_0, # of connection points: 2
#     Edge 105, Type (0, 0), BuildingBlock: EZIPEK_clean_linker_0, # of connection points: 2
#     Edge 106, Type (0, 0), BuildingBlock: EZIPEK_clean_linker_0, # of connection points: 2
#     Edge 107, Type (0, 0), BuildingBlock: EZIPEK_clean_linker_0, # of connection points: 2
#     Edge 108, Type (0, 0), BuildingBlock: EZIPEK_clean_linker_0, # of connection points: 2
#     Edge 109, Type (0, 0), BuildingBlock: EZIPEK_clean_linker_0, # of connection points: 2
#     Edge 110, Type (0, 0), BuildingBlock: EZIPEK_clean_linker_0, # of connection points: 2
#     Edge 111, Type (0, 0), BuildingBlock: EZIPEK_clean_linker_0, # of connection points: 2
#     Edge 112, Type (0, 0), BuildingBlock: EZIPEK_clean_linker_0, # of connection points: 2
#     Edge 113, Type (0, 0), BuildingBlock: EZIPEK_clean_linker_0, # of connection points: 2
#     Edge 114, Type (0, 0), BuildingBlock: EZIPEK_clean_linker_0, # of connection points: 2
#     Edge 115, Type (0, 0), BuildingBlock: EZIPEK_clean_linker_0, # of connection points: 2
#     Edge 116, Type (0, 0), BuildingBlock: EZIPEK_clean_linker_0, # of connection points: 2
#     Edge 117, Type (0, 0), BuildingBlock: EZIPEK_clean_linker_0, # of connection points: 2
#     Edge 118, Type (0, 0), BuildingBlock: EZIPEK_clean_linker_0, # of connection points: 2
#     Edge 119, Type (0, 0), BuildingBlock: EZIPEK_clean_linker_0, # of connection points: 2
#     Edge 120, Type (0, 0), BuildingBlock: EZIPEK_clean_linker_0, # of connection points: 2
#     Edge 121, Type (0, 0), BuildingBlock: EZIPEK_clean_linker_0, # of connection points: 2
#     Edge 122, Type (0, 0), BuildingBlock: EZIPEK_clean_linker_0, # of connection points: 2
#     Edge 123, Type (0, 0), BuildingBlock: EZIPEK_clean_linker_0, # of connection points: 2
#     Edge 124, Type (0, 0), BuildingBlock: EZIPEK_clean_linker_0, # of connection points: 2
#     Edge 125, Type (0, 0), BuildingBlock: EZIPEK_clean_linker_0, # of connection points: 2
# Relax obj value: 0.290
# Max RMSD: 0.182
# Mean RMSD: 0.182
data_MOF--net-wlg--node1-BEQFEK_clean_sbu_0--edge1-EZIPEK_clean_linker_0
_symmetry_space_group_name_H-M    P1
_symmetry_Int_Tables_number       1
_symmetry_cell_setting            triclinic
loop_
_symmetry_equiv_pos_as_xyz
'x, y, z'
_cell_length_a     43.023145
_cell_length_b     43.015736
_cell_length_c     51.723014
_cell_angle_alpha  89.987622
_cell_angle_beta   90.004687
_cell_angle_gamma 119.98
loop_
_atom_site_label
_atom_site_type_symbol
_atom_site_fract_x
_atom_site_fract_y
_atom_site_fract_z
_atom_type_partial_charge
Co0 Co 0.95591 0.17451 0.14474 0.0
Co1 Co 0.02158 0.16198 0.14141 0.0
C2 C 0.94573 0.10494 0.12775 0.0
O3 O 0.93318 0.12575 0.1309 0.0
O4 O 0.97874 0.11548 0.1315 0.0
C5 C 0.88767 0.16779 0.14023 0.0
O6 O 0.8815 0.14135 0.12454 0.0
C7 C 0.06472 0.12783 0.13071 0.0
C8 C 0.1198 0.17141 0.13903 0.0
C9 C 0.1 0.13561 0.13203 0.0
N10 N 0.06353 0.15778 0.13632 0.0
N11 N 0.0966 0.18367 0.14139 0.0
C12 C 0.03243 0.09152 0.12687 0.0
H13 H 0.01477 0.08438 0.14408 0.0
H14 H 0.01724 0.0922 0.10976 0.0
H15 H 0.03992 0.07056 0.12385 0.0
C16 C 0.00356 0.23829 0.11404 0.0
N17 N 0.9963 0.20738 0.12562 0.0
N18 N 0.02379 0.2021 0.12289 0.0
C19 C 0.04911 0.22946 0.10864 0.0
C20 C 0.03729 0.25342 0.10301 0.0
C21 C 0.97906 0.25357 0.11454 0.0
H22 H 0.97476 0.25873 0.13488 0.0
H23 H 0.95259 0.23362 0.10647 0.0
H24 H 0.9902 0.27889 0.10329 0.0
O25 O 0.96838 0.17144 0.18055 0.0
O26 O 0.01755 0.16702 0.17961 0.0
H27 H 0.10453 0.24827 0.11572 0.0
H28 H 0.09372 0.249 0.08236 0.0
C29 C 0.08422 0.23335 0.10057 0.0
H30 H 0.08159 0.20662 0.09769 0.0
H31 H 0.10315 0.20922 0.1478 0.0
O32 O 0.91921 0.18852 0.14842 0.0
C33 C 0.99296 0.16882 0.1921 0.0
Co34 Co 0.81291 0.77579 0.15604 0.0
Co35 Co 0.82348 0.85165 0.14436 0.0
C36 C 0.88101 0.83381 0.13318 0.0
O37 O 0.86178 0.80183 0.14117 0.0
O38 O 0.86913 0.85555 0.13255 0.0
C39 C 0.82745 0.72699 0.17581 0.0
O40 O 0.85575 0.75778 0.1819 0.0
C41 C 0.85349 0.92676 0.12914 0.0
C42 C 0.80818 0.93627 0.13555 0.0
C43 C 0.84399 0.95306 0.12848 0.0
N44 N 0.82452 0.89551 0.13593 0.0
N45 N 0.79753 0.90145 0.13979 0.0
C46 C 0.89062 0.93243 0.12646 0.0
H47 H 0.89787 0.92315 0.14428 0.0
H48 H 0.89133 0.91638 0.10993 0.0
H49 H 0.91074 0.96106 0.12307 0.0
C50 C 0.74703 0.75244 0.12565 0.0
N51 N 0.77822 0.77843 0.13547 0.0
N52 N 0.78248 0.81013 0.12952 0.0
C53 C 0.75429 0.80493 0.11477 0.0
C54 C 0.73074 0.76833 0.11229 0.0
C55 C 0.73271 0.71321 0.12984 0.0
H56 H 0.72918 0.7074 0.15088 0.0
H57 H 0.75254 0.70591 0.12268 0.0
H58 H 0.70671 0.69673 0.11978 0.0
O59 O 0.81456 0.79491 0.1904 0.0
O60 O 0.82433 0.84985 0.18327 0.0
H61 H 0.734 0.84112 0.1162 0.0
H62 H 0.73417 0.82445 0.08453 0.0
C63 C 0.74958 0.83395 0.10284 0.0
H64 H 0.77601 0.85791 0.09881 0.0
H65 H 0.77247 0.88231 0.14686 0.0
O66 O 0.80233 0.72676 0.16275 0.0
C67 C 0.82037 0.82505 0.19875 0.0
Co68 Co 0.21252 0.02577 0.14856 0.0
Co69 Co 0.13536 0.95886 0.14391 0.0
C70 C 0.15131 0.03452 0.13325 0.0
O71 O 0.18471 0.04778 0.1368 0.0
O72 O 0.12954 0.00105 0.13564 0.0
C73 C 0.27311 0.09344 0.13915 0.0
O74 O 0.25314 0.09513 0.12064 0.0
C75 C 0.06141 0.91372 0.12555 0.0
C76 C 0.04514 0.86278 0.14583 0.0
C77 C 0.03214 0.88015 0.1305 0.0
N78 N 0.09039 0.91623 0.13746 0.0
N79 N 0.08058 0.88531 0.14908 0.0
C80 C 0.06072 0.94403 0.11189 0.0
H81 H 0.08536 0.95908 0.10006 0.0
H82 H 0.03668 0.93395 0.09931 0.0
H83 H 0.05989 0.96262 0.12638 0.0
C84 C 0.23037 0.98108 0.11559 0.0
N85 N 0.2063 0.98732 0.1276 0.0
N86 N 0.17404 0.959 0.12529 0.0
C87 C 0.17673 0.9338 0.11147 0.0
C88 C 0.21253 0.94695 0.10501 0.0
C89 C 0.26994 0.00658 0.11576 0.0
H90 H 0.27541 0.03273 0.10769 0.0
H91 H 0.28462 0.99616 0.10433 0.0
H92 H 0.27976 0.01126 0.13602 0.0
O93 O 0.1979 0.01014 0.18423 0.0
O94 O 0.14409 0.96114 0.18204 0.0
H95 H 0.15362 0.88281 0.09166 0.0
H96 H 0.12266 0.89857 0.09927 0.0
C97 C 0.14619 0.89693 0.10622 0.0
H98 H 0.13856 0.88128 0.12446 0.0
H99 H 0.09751 0.88048 0.16076 0.0
O100 O 0.26238 0.06449 0.15164 0.0
C101 C 0.17053 0.98472 0.19509 0.0
Co102 Co 0.18294 0.96563 0.35468 0.0
Co103 Co 0.17432 0.03382 0.35537 0.0
C104 C 0.11488 0.95951 0.3707 0.0
O105 O 0.13476 0.94563 0.36917 0.0
O106 O 0.12656 0.99238 0.36525 0.0
C107 C 0.16931 0.90071 0.33912 0.0
O108 O 0.14336 0.90426 0.3288 0.0
C109 C 0.14619 0.08156 0.36955 0.0
C110 C 0.18439 0.13175 0.3497 0.0
C111 C 0.15275 0.11575 0.36372 0.0
N112 N 0.17276 0.07741 0.35948 0.0
N113 N 0.1958 0.1078 0.34799 0.0
C114 C 0.11294 0.05211 0.38171 0.0
H115 H 0.09562 0.0333 0.36644 0.0
H116 H 0.12017 0.03708 0.39559 0.0
H117 H 0.09766 0.06292 0.39191 0.0
C118 C 0.24806 0.01334 0.38454 0.0
N119 N 0.21714 0.00622 0.37306 0.0
N120 N 0.21359 0.03492 0.37403 0.0
C121 C 0.2423 0.06117 0.38656 0.0
C122 C 0.26513 0.04841 0.39341 0.0
C123 C 0.26195 0.98769 0.38536 0.0
H124 H 0.24081 0.96149 0.39306 0.0
H125 H 0.28644 0.9981 0.39749 0.0
H126 H 0.26822 0.98312 0.36539 0.0
O127 O 0.18124 0.97763 0.31826 0.0
O128 O 0.17923 0.02817 0.31754 0.0
H129 H 0.26987 0.11276 0.40548 0.0
H130 H 0.22393 0.09779 0.39608 0.0
C131 C 0.24913 0.0985 0.39042 0.0
H132 H 0.25878 0.11351 0.37199 0.0
H133 H 0.2181 0.11142 0.33752 0.0
O134 O 0.19274 0.92571 0.35319 0.0
C135 C 0.17999 0.00246 0.3059 0.0
Co136 Co 0.03534 0.22183 0.34195 0.0
Co137 Co 0.97449 0.14662 0.35935 0.0
C138 C 0.05093 0.16635 0.36412 0.0
O139 O 0.0611 0.19753 0.35528 0.0
O140 O 0.0179 0.14351 0.36698 0.0
C141 C 0.09956 0.28605 0.34885 0.0
O142 O 0.10035 0.27046 0.37046 0.0
C143 C 0.9313 0.07203 0.37612 0.0
C144 C 0.87621 0.06328 0.37484 0.0
C145 C 0.89562 0.04599 0.37891 0.0
N146 N 0.93314 0.10353 0.3709 0.0
N147 N 0.90007 0.09814 0.37036 0.0
C148 C 0.96266 0.06598 0.3752 0.0
H149 H 0.97604 0.07457 0.35609 0.0
H150 H 0.98227 0.08251 0.39033 0.0
H151 H 0.95442 0.03739 0.3785 0.0
C152 C 0.9909 0.24432 0.3708 0.0
N153 N -0.0009 0.21925 0.36367 0.0
N154 N 0.97681 0.18853 0.37463 0.0
C155 C 0.95618 0.19408 0.39158 0.0
C156 C 0.96361 0.22967 0.3893 0.0
C157 C 0.00652 0.28013 0.35775 0.0
H158 H 0.01116 0.27734 0.33698 0.0
H159 H 0.03294 0.29882 0.3665 0.0
H160 H 0.98859 0.29164 0.35951 0.0
O161 O 0.01534 0.20066 0.3092 0.0
O162 O 0.97026 0.14697 0.32012 0.0
H163 H 0.90522 0.15044 0.40397 0.0
H164 H 0.93163 0.18066 0.4293 0.0
C165 C 0.93286 0.16703 0.41143 0.0
H166 H 0.94342 0.14882 0.41602 0.0
H167 H 0.89361 0.11767 0.36516 0.0
O168 O 0.07223 0.27101 0.33435 0.0
C169 C 0.98933 0.17026 0.30305 0.0
Co170 Co 0.7826 0.82364 0.35673 0.0
Co171 Co 0.85997 0.83613 0.36264 0.0
C172 C 0.84377 0.89385 0.37451 0.0
O173 O 0.81145 0.87405 0.36761 0.0
O174 O 0.86573 0.8823 0.37473 0.0
C175 C 0.72444 0.82991 0.37352 0.0
O176 O 0.74498 0.84525 0.39372 0.0
C177 C 0.9357 0.86521 0.37624 0.0
C178 C 0.94709 0.82463 0.35974 0.0
C179 C 0.96301 0.85782 0.37179 0.0
N180 N 0.90481 0.83765 0.3673 0.0
N181 N 0.91178 0.81326 0.35776 0.0
C182 C 0.94001 0.89995 0.38591 0.0
H183 H 0.93486 0.91388 0.36984 0.0
H184 H 0.92029 0.89453 0.40153 0.0
H185 H 0.96744 0.91784 0.3935 0.0
C186 C 0.76485 0.76018 0.38853 0.0
N187 N 0.78894 0.79118 0.37728 0.0
N188 N 0.8214 0.7958 0.38011 0.0
C189 C 0.81883 0.76786 0.39386 0.0
C190 C 0.7829 0.74432 0.3994 0.0
C191 C 0.72516 0.74527 0.38763 0.0
H192 H 0.71837 0.76236 0.39969 0.0
H193 H 0.7103 0.71731 0.395 0.0
H194 H 0.71676 0.74616 0.3675 0.0
O195 O 0.79466 0.82102 0.32074 0.0
O196 O 0.85158 0.83485 0.32426 0.0
H197 H 0.85597 0.75079 0.38371 0.0
H198 H 0.84292 0.744 0.41719 0.0
C199 C 0.84968 0.76262 0.40056 0.0
H200 H 0.87365 0.78876 0.40531 0.0
H201 H 0.89285 0.78987 0.34844 0.0
O202 O 0.73365 0.8147 0.35665 0.0
C203 C 0.82432 0.82817 0.31047 0.0
Co204 Co 0.03591 0.81159 0.84997 0.0
Co205 Co 0.97207 0.82512 0.85949 0.0
C206 C 0.04634 0.88222 0.86939 0.0
O207 O 0.05814 0.86227 0.86118 0.0
O208 O 0.01295 0.87054 0.87194 0.0
C209 C 0.10468 0.82014 0.85637 0.0
O210 O 0.10854 0.84482 0.87304 0.0
C211 C 0.92567 0.84976 0.88106 0.0
C212 C 0.88039 0.82595 0.8536 0.0
C213 C 0.89525 0.85058 0.87353 0.0
N214 N 0.92926 0.82647 0.8658 0.0
N215 N 0.90141 0.81138 0.85002 0.0
C216 C 0.95367 0.87506 0.89951 0.0
H217 H 0.97396 0.89901 0.8888 0.0
H218 H 0.96723 0.86179 0.90885 0.0
H219 H 0.94145 0.88412 0.91448 0.0
C220 C 0.98989 0.74706 0.88153 0.0
N221 N 0.99742 0.77863 0.87087 0.0
N222 N 0.97023 0.78399 0.8747 0.0
C223 C 0.94458 0.75605 0.88812 0.0
C224 C 0.95613 0.73165 0.8928 0.0
C225 C 0.01394 0.73135 0.87976 0.0
H226 H 0.01764 0.72687 0.85913 0.0
H227 H 0.04072 0.75079 0.88768 0.0
H228 H 0.00279 0.70561 0.89048 0.0
O229 O 0.01995 0.81162 0.81467 0.0
O230 O 0.97815 0.82668 0.82104 0.0
H231 H 0.89361 0.74888 0.87711 0.0
H232 H 0.89325 0.72818 0.90763 0.0
C233 C 0.90898 0.75192 0.89507 0.0
H234 H 0.91308 0.77647 0.90512 0.0
H235 H 0.89848 0.79359 0.83525 0.0
O236 O 0.07431 0.79999 0.84612 0.0
C237 C 0.99798 0.82062 0.80598 0.0
Co238 Co 0.1821 0.21479 0.85242 0.0
Co239 Co 0.16999 0.13683 0.85483 0.0
C240 C 0.11154 0.15272 0.86764 0.0
O241 O 0.13191 0.18605 0.86382 0.0
O242 O 0.123 0.13072 0.86563 0.0
C243 C 0.16946 0.26848 0.84113 0.0
O244 O 0.14247 0.2406 0.83007 0.0
C245 C 0.14227 0.06167 0.86982 0.0
C246 C 0.18017 0.04889 0.85038 0.0
C247 C 0.14892 0.03395 0.86485 0.0
N248 N 0.16839 0.09183 0.85887 0.0
N249 N 0.19127 0.08406 0.84759 0.0
C250 C 0.1095 0.05839 0.88246 0.0
H251 H 0.09181 0.0598 0.86745 0.0
H252 H 0.11734 0.0809 0.89621 0.0
H253 H 0.09434 0.03253 0.89297 0.0
C254 C 0.24507 0.2301 0.88382 0.0
N255 N 0.21409 0.20685 0.87218 0.0
N256 N 0.20946 0.17423 0.87355 0.0
C257 C 0.23743 0.17582 0.88659 0.0
C258 C 0.26097 0.21129 0.89326 0.0
C259 C 0.26035 0.26988 0.88398 0.0
H260 H 0.24057 0.2762 0.89266 0.0
H261 H 0.28588 0.28374 0.89501 0.0
H262 H 0.26514 0.27989 0.86377 0.0
O263 O 0.18423 0.20366 0.816 0.0
O264 O 0.17348 0.1475 0.81686 0.0
H265 H 0.26337 0.15079 0.90641 0.0
H266 H 0.21738 0.12069 0.89669 0.0
C267 C 0.24305 0.14466 0.89107 0.0
H268 H 0.25273 0.13864 0.87293 0.0
H269 H 0.21337 0.10233 0.83676 0.0
O270 O 0.19306 0.26471 0.8532 0.0
C271 C 0.17908 0.17545 0.8044 0.0
Co272 Co 0.78439 0.95636 0.86339 0.0
Co273 Co 0.85899 0.02644 0.86153 0.0
C274 C 0.85154 0.95627 0.87695 0.0
O275 O 0.81786 0.93999 0.87353 0.0
O276 O 0.87029 0.99009 0.87473 0.0
C277 C 0.73003 0.88973 0.88249 0.0
O278 O 0.75309 0.89493 0.90096 0.0
C279 C 0.93253 0.07852 0.8759 0.0
C280 C 0.9467 0.12062 0.84651 0.0
C281 C 0.96109 0.10926 0.8658 0.0
N282 N 0.9026 0.07147 0.86293 0.0
N283 N 0.9111 0.09741 0.84589 0.0
C284 C 0.93502 0.05375 0.895 0.0
H285 H 0.93891 0.03346 0.88447 0.0
H286 H 0.91002 0.0399 0.90659 0.0
H287 H 0.95832 0.06881 0.90807 0.0
C288 C 0.76619 0.00389 0.89316 0.0
N289 N 0.79018 0.99719 0.88146 0.0
N290 N 0.82149 0.02697 0.8806 0.0
C291 C 0.81845 0.05354 0.89194 0.0
C292 C 0.78326 0.03981 0.90017 0.0
C293 C 0.72717 0.97699 0.89573 0.0
H294 H 0.72412 0.95433 0.90783 0.0
H295 H 0.71206 0.98891 0.90465 0.0
H296 H 0.71588 0.96607 0.87637 0.0
O297 O 0.79148 0.96586 0.82631 0.0
O298 O 0.84539 0.01482 0.8241 0.0
H299 H 0.83999 0.10841 0.90471 0.0
H300 H 0.87239 0.09343 0.90105 0.0
C301 C 0.8478 0.09187 0.89288 0.0
H302 H 0.85402 0.10274 0.87292 0.0
H303 H 0.89319 0.09762 0.83237 0.0
O304 O 0.73651 0.91456 0.86647 0.0
C305 C 0.81754 0.98956 0.81324 0.0
Co306 Co 0.80959 0.02965 0.66189 0.0
Co307 Co 0.82324 0.9672 0.64663 0.0
C308 C 0.88091 0.04306 0.64143 0.0
O309 O 0.8601 0.05381 0.64968 0.0
O310 O 0.8702 0.00986 0.63866 0.0
C311 C 0.81364 0.09584 0.6535 0.0
O312 O 0.83158 0.09594 0.63294 0.0
C313 C 0.85293 0.92215 0.62982 0.0
C314 C 0.80761 0.86757 0.63691 0.0
C315 C 0.84343 0.88626 0.62988 0.0
N316 N 0.8241 0.92472 0.63657 0.0
N317 N 0.79694 0.89189 0.64039 0.0
C318 C 0.88999 0.95351 0.62667 0.0
H319 H 0.89902 0.9682 0.64528 0.0
H320 H 0.88965 0.97204 0.6119 0.0
H321 H 0.90929 0.94491 0.6206 0.0
C322 C 0.74384 0.98527 0.63156 0.0
N323 N 0.77654 0.99312 0.63987 0.0
N324 N 0.78478 0.96995 0.63018 0.0
C325 C 0.75915 0.94887 0.61309 0.0
C326 C 0.73154 0.95718 0.61373 0.0
C327 C 0.72364 0.00202 0.64287 0.0
H328 H 0.7308 0.00841 0.66357 0.0
H329 H 0.73151 0.02759 0.63271 0.0
H330 H 0.69422 0.98401 0.64104 0.0
O331 O 0.80875 0.00996 0.69533 0.0
O332 O 0.81699 0.96424 0.68574 0.0
H333 H 0.75245 0.89702 0.60466 0.0
H334 H 0.74705 0.91956 0.57715 0.0
C335 C 0.76262 0.92342 0.59516 0.0
H336 H 0.7913 0.93383 0.59035 0.0
H337 H 0.77174 0.88621 0.64705 0.0
O338 O 0.79858 0.06815 0.66772 0.0
C339 C 0.81232 0.98367 0.70224 0.0
Co340 Co 0.96266 0.78122 0.65305 0.0
Co341 Co 0.02217 0.8592 0.63994 0.0
C342 C 0.94703 0.83805 0.63181 0.0
O343 O 0.9377 0.80734 0.64124 0.0
O344 O 0.97979 0.86134 0.62859 0.0
C345 C 0.89683 0.7194 0.64409 0.0
O346 O 0.89546 0.73846 0.62477 0.0
C347 C 0.06547 0.93513 0.62565 0.0
C348 C 0.12047 0.9467 0.63437 0.0
C349 C 0.1008 0.96259 0.62676 0.0
N350 N 0.06413 0.9042 0.63221 0.0
N351 N 0.09721 0.91128 0.63708 0.0
C352 C 0.03326 0.93922 0.62153 0.0
H353 H 0.01632 0.93043 0.63917 0.0
H354 H 0.01722 0.92188 0.60521 0.0
H355 H 0.04097 0.96742 0.6171 0.0
C356 C 0.01076 0.76406 0.62402 0.0
N357 N 0.0012 0.7876 0.63243 0.0
N358 N 0.02398 0.81981 0.62383 0.0
C359 C 0.04664 0.8171 0.60713 0.0
C360 C 0.03969 0.78153 0.60703 0.0
C361 C 0.9944 0.72664 0.6345 0.0
H362 H 0.98809 0.72658 0.65531 0.0
H363 H 0.96871 0.70912 0.62438 0.0
H364 H 0.01263 0.71556 0.63216 0.0
O365 O 0.97952 0.79773 0.68717 0.0
O366 O 0.01886 0.85504 0.67941 0.0
H367 H 0.09752 0.86441 0.60037 0.0
H368 H 0.07782 0.83696 0.5721 0.0
C369 C 0.07199 0.84731 0.59002 0.0
H370 H 0.06031 0.86443 0.58497 0.0
H371 H 0.10368 0.8923 0.64373 0.0
O372 O 0.92544 0.73102 0.65715 0.0
C373 C 0.0012 0.82907 0.69515 0.0
Co374 Co 0.21382 0.18515 0.64399 0.0
Co375 Co 0.1357 0.17335 0.64256 0.0
C376 C 0.15032 0.11458 0.62903 0.0
O377 O 0.18358 0.13455 0.63336 0.0
O378 O 0.12853 0.12625 0.63107 0.0
C379 C 0.27185 0.17373 0.63381 0.0
O380 O 0.24898 0.14878 0.61813 0.0
C381 C 0.05985 0.14586 0.6298 0.0
C382 C 0.0472 0.18062 0.65363 0.0
C383 C 0.03177 0.15035 0.63812 0.0
N384 N 0.09057 0.17201 0.64013 0.0
N385 N 0.08286 0.19319 0.65388 0.0
C386 C 0.0565 0.11437 0.61513 0.0
H387 H 0.05751 0.09511 0.62891 0.0
H388 H 0.07907 0.12339 0.60127 0.0
H389 H 0.03065 0.10044 0.6045 0.0
C390 C 0.2287 0.24835 0.6125 0.0
N391 N 0.20571 0.21749 0.62447 0.0
N392 N 0.17315 0.21313 0.6238 0.0
C393 C 0.17453 0.24122 0.61105 0.0
C394 C 0.20981 0.26455 0.60364 0.0
C395 C 0.26835 0.26309 0.6113 0.0
H396 H 0.27944 0.26892 0.63121 0.0
H397 H 0.27387 0.24256 0.60298 0.0
H398 H 0.28186 0.28796 0.59952 0.0
O399 O 0.20365 0.1878 0.68053 0.0
O400 O 0.14712 0.17569 0.68027 0.0
H401 H 0.13703 0.25509 0.6263 0.0
H402 H 0.14926 0.26825 0.59305 0.0
C403 C 0.14328 0.24695 0.60755 0.0
H404 H 0.1194 0.22153 0.60137 0.0
H405 H 0.10156 0.21469 0.66499 0.0
O406 O 0.26386 0.19556 0.64419 0.0
C407 C 0.17536 0.18169 0.69246 0.0
Co408 Co 0.63031 0.51821 0.48419 0.0
Co409 Co 0.69703 0.50783 0.47617 0.0
C410 C 0.62409 0.45045 0.46228 0.0
O411 O 0.61079 0.46919 0.47026 0.0
O412 O 0.65776 0.46269 0.46187 0.0
C413 C 0.5588 0.50456 0.48206 0.0
O414 O 0.55335 0.47624 0.46883 0.0
C415 C 0.74661 0.48224 0.4622 0.0
C416 C 0.79811 0.5252 0.47768 0.0
C417 C 0.78215 0.49187 0.46588 0.0
N418 N 0.74163 0.50878 0.47119 0.0
N419 N 0.77265 0.53451 0.48024 0.0
C420 C 0.71714 0.44649 0.45325 0.0
H421 H 0.69794 0.43305 0.46934 0.0
H422 H 0.70254 0.45039 0.43705 0.0
H423 H 0.72769 0.42897 0.44667 0.0
C424 C 0.67644 0.58502 0.45526 0.0
N425 N 0.66984 0.5534 0.46528 0.0
N426 N 0.69779 0.54921 0.46134 0.0
C427 C 0.72273 0.57789 0.44798 0.0
C428 C 0.71022 0.60165 0.44404 0.0
C429 C 0.65117 0.59927 0.45715 0.0
H430 H 0.6457 0.60157 0.47782 0.0
H431 H 0.62529 0.57994 0.44798 0.0
H432 H 0.66221 0.62585 0.44762 0.0
O433 O 0.64428 0.51597 0.51965 0.0
O434 O 0.68848 0.5041 0.51447 0.0
H435 H 0.77796 0.59573 0.45508 0.0
H436 H 0.7682 0.60109 0.42222 0.0
C437 C 0.75814 0.58305 0.43927 0.0
H438 H 0.75571 0.55688 0.43428 0.0
H439 H 0.77598 0.55746 0.4896 0.0
O440 O 0.59049 0.5282 0.48835 0.0
C441 C 0.66681 0.50816 0.52897 0.0
Co442 Co 0.48921 0.12083 0.4779 0.0
Co443 Co 0.49926 0.19768 0.47356 0.0
C444 C 0.55904 0.18424 0.46151 0.0
O445 O 0.5397 0.1513 0.46717 0.0
O446 O 0.54676 0.20561 0.46234 0.0
C447 C 0.50112 0.06333 0.46807 0.0
O448 O 0.52556 0.08612 0.45206 0.0
C449 C 0.52297 0.27066 0.45584 0.0
C450 C 0.49197 0.28622 0.48139 0.0
C451 C 0.51953 0.29962 0.46343 0.0
N452 N 0.499 0.24152 0.46903 0.0
N453 N 0.4798 0.2508 0.4837 0.0
C454 C 0.55223 0.27221 0.43933 0.0
H455 H 0.54197 0.24704 0.42803 0.0
H456 H 0.56287 0.29552 0.42598 0.0
H457 H 0.57451 0.27527 0.45189 0.0
C458 C 0.42555 0.10277 0.44599 0.0
N459 N 0.4564 0.12682 0.45744 0.0
N460 N 0.46014 0.15904 0.4556 0.0
C461 C 0.4317 0.15643 0.44263 0.0
C462 C 0.40878 0.12067 0.43627 0.0
C463 C 0.41122 0.06314 0.44627 0.0
H464 H 0.40646 0.05351 0.46657 0.0
H465 H 0.43158 0.05735 0.43797 0.0
H466 H 0.38585 0.04855 0.43514 0.0
O467 O 0.48597 0.13244 0.51399 0.0
O468 O 0.49687 0.18852 0.51171 0.0
H469 H 0.41897 0.19522 0.45696 0.0
H470 H 0.40234 0.1794 0.42474 0.0
C471 C 0.42514 0.18702 0.4382 0.0
H472 H 0.4497 0.21026 0.43022 0.0
H473 H 0.46036 0.2336 0.49683 0.0
O474 O 0.47968 0.07133 0.47903 0.0
C475 C 0.4912 0.16111 0.52489 0.0
Co476 Co 0.89041 0.37645 0.4861 0.0
Co477 Co 0.81382 0.31522 0.47099 0.0
C478 C 0.83396 0.39126 0.46459 0.0
O479 O 0.86509 0.40124 0.47331 0.0
O480 O 0.81083 0.35828 0.46213 0.0
C481 C 0.95209 0.4413 0.47605 0.0
O482 O 0.93379 0.43964 0.45528 0.0
C483 C 0.73781 0.27234 0.4578 0.0
C484 C 0.72844 0.217 0.45751 0.0
C485 C 0.71131 0.23684 0.45505 0.0
N486 N 0.76947 0.27373 0.46126 0.0
N487 N 0.76365 0.24048 0.46102 0.0
C488 C 0.73232 0.30396 0.46013 0.0
H489 H 0.74443 0.31841 0.47845 0.0
H490 H 0.74603 0.32262 0.44381 0.0
H491 H 0.70345 0.29583 0.4597 0.0
C492 C 0.91065 0.3302 0.45739 0.0
N493 N 0.88612 0.33891 0.46495 0.0
N494 N 0.85476 0.31623 0.45497 0.0
C495 C 0.85926 0.29473 0.43819 0.0
C496 C 0.89487 0.30202 0.43963 0.0
C497 C 0.94722 0.34647 0.46933 0.0
H498 H 0.94567 0.35219 0.49007 0.0
H499 H 0.96534 0.37246 0.45977 0.0
H500 H 0.95863 0.32845 0.46756 0.0
O501 O 0.87116 0.35824 0.51968 0.0
O502 O 0.81652 0.31353 0.51027 0.0
H503 H 0.8154 0.24332 0.42672 0.0
H504 H 0.84409 0.26963 0.40074 0.0
C505 C 0.83129 0.27091 0.41903 0.0
H506 H 0.81259 0.2811 0.41511 0.0
H507 H 0.78325 0.23362 0.46494 0.0
O508 O 0.94009 0.41465 0.49126 0.0
C509 C 0.84072 0.33299 0.5267 0.0
Co510 Co 0.84386 0.29684 0.68327 0.0
Co511 Co 0.83598 0.36487 0.69009 0.0
C512 C 0.77593 0.29034 0.70219 0.0
O513 O 0.7953 0.27653 0.69741 0.0
O514 O 0.78806 0.32389 0.69992 0.0
C515 C 0.83699 0.2298 0.69524 0.0
O516 O 0.81936 0.23148 0.71541 0.0
C517 C 0.81023 0.41257 0.70857 0.0
C518 C 0.84632 0.46292 0.68813 0.0
C519 C 0.81589 0.44665 0.70347 0.0
N520 N 0.83594 0.40872 0.69672 0.0
N521 N 0.85794 0.43929 0.68501 0.0
C522 C 0.77854 0.38305 0.7222 0.0
H523 H 0.75907 0.36457 0.70769 0.0
H524 H 0.78728 0.36763 0.73443 0.0
H525 H 0.76497 0.39396 0.73439 0.0
C526 C 0.91191 0.34311 0.71019 0.0
N527 N 0.87943 0.33616 0.702 0.0
N528 N 0.87533 0.3639 0.70694 0.0
C529 C 0.90459 0.38873 0.71988 0.0
C530 C 0.92914 0.37659 0.7221 0.0
C531 C 0.92735 0.31948 0.70431 0.0
H532 H 0.91864 0.3074 0.68485 0.0
H533 H 0.91715 0.29744 0.71871 0.0
H534 H 0.9571 0.33458 0.70506 0.0
O535 O 0.84183 0.31099 0.648 0.0
O536 O 0.83976 0.36143 0.6514 0.0
H537 H 0.91623 0.44242 0.71275 0.0
H538 H 0.93105 0.43599 0.74392 0.0
C539 C 0.90931 0.42371 0.72929 0.0
H540 H 0.88375 0.41949 0.7377 0.0
H541 H 0.87937 0.44316 0.67334 0.0
O542 O 0.8527 0.25651 0.68018 0.0
C543 C 0.84037 0.33701 0.63773 0.0
Co544 Co 0.69766 0.551 0.68111 0.0
Co545 Co 0.63654 0.47428 0.69517 0.0
C546 C 0.71074 0.49289 0.70358 0.0
O547 O 0.72085 0.52349 0.69362 0.0
O548 O 0.67778 0.4705 0.70731 0.0
C549 C 0.76476 0.6116 0.68963 0.0
O550 O 0.76565 0.59238 0.70902 0.0
C551 C 0.59029 0.3981 0.70675 0.0
C552 C 0.53588 0.39092 0.704 0.0
C553 C 0.55424 0.3725 0.7078 0.0
N554 N 0.59334 0.43042 0.7029 0.0
N555 N 0.56065 0.42594 0.70138 0.0
C556 C 0.62121 0.39134 0.70666 0.0
H557 H 0.63752 0.40319 0.68898 0.0
H558 H 0.63847 0.40464 0.72369 0.0
H559 H 0.61211 0.36225 0.70744 0.0
C560 C 0.65188 0.57139 0.71 0.0
N561 N 0.65975 0.54665 0.70151 0.0
N562 N 0.63635 0.51498 0.71062 0.0
C563 C 0.61503 0.51926 0.72773 0.0
C564 C 0.62345 0.55527 0.72751 0.0
C565 C 0.66973 0.6089 0.69956 0.0
H566 H 0.67542 0.60861 0.67866 0.0
H567 H 0.69586 0.62538 0.70944 0.0
H568 H 0.65277 0.62136 0.70229 0.0
O569 O 0.68072 0.53398 0.64709 0.0
O570 O 0.64076 0.47717 0.65572 0.0
H571 H 0.56305 0.47521 0.73763 0.0
H572 H 0.58836 0.50235 0.7646 0.0
C573 C 0.5903 0.49046 0.74604 0.0
H574 H 0.60005 0.47134 0.74965 0.0
H575 H 0.55522 0.44644 0.69703 0.0
O576 O 0.73621 0.60055 0.67658 0.0
C577 C 0.6589 0.50243 0.6396 0.0
Co578 Co 0.44173 0.14941 0.68134 0.0
Co579 Co 0.52013 0.16398 0.69006 0.0
C580 C 0.50093 0.22008 0.70094 0.0
O581 O 0.469 0.19988 0.69323 0.0
O582 O 0.52343 0.20921 0.70182 0.0
C583 C 0.38095 0.15774 0.68631 0.0
O584 O 0.40134 0.18286 0.70284 0.0
C585 C 0.59633 0.19639 0.70386 0.0
C586 C 0.60827 0.15361 0.69372 0.0
C587 C 0.62383 0.18862 0.70256 0.0
N588 N 0.56559 0.16718 0.69647 0.0
N589 N 0.573 0.14168 0.69048 0.0
C590 C 0.60028 0.23239 0.7092 0.0
H591 H 0.59162 0.2415 0.69198 0.0
H592 H 0.58285 0.23016 0.72573 0.0
H593 H 0.62841 0.2527 0.71394 0.0
C594 C 0.42402 0.08559 0.71305 0.0
N595 N 0.44811 0.11704 0.7023 0.0
N596 N 0.48081 0.12283 0.70656 0.0
C597 C 0.47826 0.0954 0.72097 0.0
C598 C 0.44227 0.07071 0.72515 0.0
C599 C 0.38428 0.06948 0.71061 0.0
H600 H 0.37675 0.06508 0.68986 0.0
H601 H 0.37639 0.08864 0.71828 0.0
H602 H 0.36962 0.04366 0.72122 0.0
O603 O 0.45758 0.14872 0.64622 0.0
O604 O 0.51441 0.16306 0.6514 0.0
H605 H 0.51645 0.07818 0.71544 0.0
H606 H 0.50219 0.07576 0.74829 0.0
C607 C 0.50933 0.09207 0.73035 0.0
H608 H 0.53275 0.11896 0.73418 0.0
H609 H 0.55441 0.11683 0.68274 0.0
O610 O 0.3914 0.13723 0.67696 0.0
C611 C 0.48782 0.15634 0.63685 0.0
Co612 Co 0.69814 0.14613 0.18705 0.0
Co613 Co 0.62989 0.15386 0.1914 0.0
C614 C 0.70535 0.21504 0.20183 0.0
O615 O 0.71953 0.19559 0.1991 0.0
O616 O 0.67178 0.20238 0.19895 0.0
C617 C 0.76634 0.1542 0.19605 0.0
O618 O 0.76801 0.17547 0.21486 0.0
C619 C 0.58437 0.18363 0.20675 0.0
C620 C 0.53188 0.14388 0.19056 0.0
C621 C 0.54988 0.17707 0.20251 0.0
N622 N 0.58692 0.15567 0.19765 0.0
N623 N 0.55518 0.13171 0.18839 0.0
C624 C 0.61527 0.21798 0.21641 0.0
H625 H 0.63249 0.23333 0.19982 0.0
H626 H 0.63146 0.21208 0.23014 0.0
H627 H 0.60584 0.23471 0.22622 0.0
C628 C 0.65504 0.08372 0.22055 0.0
N629 N 0.66018 0.11344 0.20822 0.0
N630 N 0.63132 0.11646 0.2106 0.0
C631 C 0.60686 0.08854 0.22478 0.0
C632 C 0.62102 0.0668 0.23135 0.0
C633 C 0.68149 0.07081 0.22058 0.0
H634 H 0.68609 0.06526 0.20041 0.0
H635 H 0.70747 0.0923 0.22829 0.0
H636 H 0.67202 0.0462 0.23244 0.0
O637 O 0.68233 0.14494 0.15129 0.0
O638 O 0.6312 0.14564 0.15357 0.0
H639 H 0.55301 0.06997 0.21276 0.0
H640 H 0.55726 0.06154 0.24631 0.0
C641 C 0.5697 0.08122 0.23034 0.0
H642 H 0.57032 0.10653 0.23552 0.0
H643 H 0.55011 0.10822 0.17892 0.0
O644 O 0.73727 0.13577 0.18376 0.0
C645 C 0.65568 0.14456 0.14043 0.0
Co646 Co 0.84402 0.54686 0.19247 0.0
Co647 Co 0.83243 0.46944 0.19421 0.0
C648 C 0.77252 0.4833 0.20486 0.0
O649 O 0.79268 0.51662 0.20093 0.0
O650 O 0.78459 0.46174 0.20397 0.0
C651 C 0.83488 0.6037 0.20894 0.0
O652 O 0.81336 0.58017 0.226 0.0
C653 C 0.80568 0.39484 0.20916 0.0
C654 C 0.83831 0.3802 0.1846 0.0
C655 C 0.80938 0.36613 0.2014 0.0
N656 N 0.83101 0.42461 0.19733 0.0
N657 N 0.85102 0.41581 0.18316 0.0
C658 C 0.7755 0.39281 0.22481 0.0
H659 H 0.75447 0.39128 0.21157 0.0
H660 H 0.78536 0.41713 0.23703 0.0
H661 H 0.76334 0.36853 0.23726 0.0
C662 C 0.90595 0.56171 0.22507 0.0
N663 N 0.87508 0.53858 0.21321 0.0
N664 N 0.87083 0.50611 0.21399 0.0
C665 C 0.89897 0.50759 0.2267 0.0
C666 C 0.92226 0.54295 0.23394 0.0
C667 C 0.9212 0.60149 0.2254 0.0
H668 H 0.92499 0.61154 0.20522 0.0
H669 H 0.90183 0.60774 0.23486 0.0
H670 H 0.94723 0.6154 0.23581 0.0
O671 O 0.84937 0.53831 0.15596 0.0
O672 O 0.83746 0.48176 0.15657 0.0
H673 H 0.91257 0.47042 0.21038 0.0
H674 H 0.92749 0.48297 0.24333 0.0
C675 C 0.90537 0.47666 0.22951 0.0
H676 H 0.88046 0.45265 0.23625 0.0
H677 H 0.87168 0.43364 0.17105 0.0
O678 O 0.85391 0.59619 0.19435 0.0
C679 C 0.84417 0.51014 0.14425 0.0
Co680 Co 0.44106 0.28991 0.18213 0.0
Co681 Co 0.51856 0.35589 0.18821 0.0
C682 C 0.50331 0.28173 0.19882 0.0
O683 O 0.47071 0.26883 0.19243 0.0
O684 O 0.52487 0.31536 0.19941 0.0
C685 C 0.38263 0.22018 0.18931 0.0
O686 O 0.40486 0.21695 0.20496 0.0
C687 C 0.59226 0.40331 0.206 0.0
C688 C 0.60807 0.4518 0.18255 0.0
C689 C 0.62132 0.43619 0.19939 0.0
N690 N 0.56309 0.39934 0.19346 0.0
N691 N 0.5726 0.42886 0.17995 0.0
C692 C 0.59362 0.37442 0.22116 0.0
H693 H 0.56903 0.3598 0.23309 0.0
H694 H 0.61763 0.38584 0.23387 0.0
H695 H 0.5951 0.3552 0.20761 0.0
C696 C 0.423 0.33503 0.21434 0.0
N697 N 0.44722 0.32824 0.20318 0.0
N698 N 0.4795 0.35651 0.20554 0.0
C699 C 0.47672 0.38223 0.21853 0.0
C700 C 0.4408 0.36952 0.22434 0.0
C701 C 0.38337 0.30992 0.21354 0.0
H702 H 0.37403 0.3067 0.1932 0.0
H703 H 0.37732 0.28314 0.22067 0.0
H704 H 0.36872 0.31996 0.2254 0.0
O705 O 0.45399 0.30625 0.14659 0.0
O706 O 0.51057 0.35018 0.14991 0.0
H707 H 0.51568 0.43409 0.2049 0.0
H708 H 0.49973 0.43405 0.23719 0.0
C709 C 0.50735 0.41918 0.22344 0.0
H710 H 0.5305 0.41755 0.23126 0.0
H711 H 0.55547 0.43223 0.16745 0.0
O712 O 0.39123 0.25054 0.17966 0.0
C713 C 0.48327 0.32943 0.13627 0.0
Co714 Co 0.48285 0.36539 0.97685 0.0
Co715 Co 0.49469 0.29968 0.9738 0.0
C716 C 0.55427 0.37358 0.96347 0.0
O717 O 0.53414 0.38667 0.96795 0.0
O718 O 0.54225 0.33994 0.96384 0.0
C719 C 0.49287 0.43422 0.9667 0.0
O720 O 0.51915 0.43762 0.95188 0.0
C721 C 0.52004 0.25212 0.95613 0.0
C722 C 0.49438 0.20791 0.98437 0.0
C723 C 0.52007 0.22184 0.96505 0.0
N724 N 0.49608 0.25649 0.96997 0.0
N725 N 0.47995 0.2293 0.98625 0.0
C726 C 0.54643 0.27928 0.93772 0.0
H727 H 0.57028 0.29938 0.94862 0.0
H728 H 0.53418 0.29325 0.92755 0.0
H729 H 0.55546 0.26619 0.92343 0.0
C730 C 0.42091 0.31866 0.94395 0.0
N731 N 0.45175 0.32638 0.95585 0.0
N732 N 0.4562 0.2983 0.9547 0.0
C733 C 0.42827 0.27176 0.94183 0.0
C734 C 0.40494 0.28377 0.93473 0.0
C735 C 0.40548 0.34303 0.94374 0.0
H736 H 0.39911 0.34689 0.96387 0.0
H737 H 0.42575 0.36969 0.93613 0.0
H738 H 0.38078 0.33194 0.93178 0.0
O739 O 0.47813 0.35041 0.01305 0.0
O740 O 0.49033 0.30604 0.01156 0.0
H741 H 0.41778 0.2218 0.958 0.0
H742 H 0.39877 0.21803 0.92616 0.0
C743 C 0.42229 0.23462 0.9387 0.0
H744 H 0.4466 0.23594 0.93022 0.0
H745 H 0.46139 0.22707 1.00017 0.0
O746 O 0.47162 0.40418 0.97701 0.0
C747 C 0.48359 0.32734 0.02431 0.0
Co748 Co 0.62938 0.11299 0.98043 0.0
Co749 Co 0.69866 0.18932 0.97923 0.0
C750 C 0.62664 0.17878 0.96591 0.0
O751 O 0.61144 0.14541 0.97057 0.0
O752 O 0.66049 0.1985 0.96694 0.0
C753 C 0.55965 0.05711 0.96735 0.0
O754 O 0.55926 0.08153 0.95235 0.0
C755 C 0.74832 0.26485 0.96619 0.0
C756 C 0.7969 0.27617 0.98801 0.0
C757 C 0.78192 0.29223 0.97326 0.0
N758 N 0.74325 0.23384 0.97639 0.0
N759 N 0.77277 0.24076 0.98901 0.0
C760 C 0.72036 0.26927 0.95217 0.0
H761 H 0.70054 0.26839 0.96629 0.0
H762 H 0.70636 0.2472 0.93799 0.0
H763 H 0.73249 0.29538 0.94184 0.0
C764 C 0.67576 0.09525 0.94916 0.0
N765 N 0.66935 0.11941 0.96088 0.0
N766 N 0.6987 0.15117 0.96031 0.0
C767 C 0.72461 0.14813 0.94785 0.0
C768 C 0.71099 0.11256 0.94059 0.0
C769 C 0.6495 0.05587 0.94828 0.0
H770 H 0.64307 0.04529 0.96831 0.0
H771 H 0.62421 0.05137 0.93919 0.0
H772 H 0.66024 0.04112 0.93728 0.0
O773 O 0.64202 0.12181 0.01697 0.0
O774 O 0.6895 0.17694 0.01705 0.0
H775 H 0.7765 0.18272 0.96362 0.0
H776 H 0.77698 0.17098 0.9302 0.0
C777 C 0.76247 0.17789 0.94479 0.0
H778 H 0.76282 0.20286 0.93894 0.0
H779 H 0.77556 0.22176 0.99976 0.0
O780 O 0.58823 0.06382 0.97917 0.0
C781 C 0.66606 0.14895 0.02894 0.0
Co782 Co 0.88757 0.51631 0.9866 0.0
Co783 Co 0.80924 0.5012 0.98001 0.0
C784 C 0.82709 0.44352 0.97205 0.0
O785 O 0.85953 0.4646 0.97827 0.0
O786 O 0.80463 0.45444 0.97031 0.0
C787 C 0.94822 0.51101 0.9743 0.0
O788 O 0.92602 0.48906 0.95679 0.0
C789 C 0.73453 0.47161 0.96323 0.0
C790 C 0.71945 0.50786 0.98262 0.0
C791 C 0.70581 0.47673 0.96811 0.0
N792 N 0.76397 0.4984 0.97444 0.0
N793 N 0.75486 0.52036 0.98558 0.0
C794 C 0.73277 0.43938 0.95082 0.0
H795 H 0.73364 0.42166 0.96607 0.0
H796 H 0.75617 0.44786 0.93784 0.0
H797 H 0.70761 0.42399 0.93957 0.0
C798 C 0.90303 0.57647 0.95191 0.0
N799 N 0.87971 0.54606 0.96419 0.0
N800 N 0.84693 0.54053 0.96136 0.0
C801 C 0.84845 0.56732 0.94676 0.0
C802 C 0.88408 0.59102 0.94046 0.0
C803 C 0.94289 0.59259 0.95293 0.0
H804 H 0.95023 0.57322 0.94487 0.0
H805 H 0.95689 0.6181 0.94189 0.0
H806 H 0.95185 0.59759 0.97339 0.0
O807 O 0.87538 0.52136 0.022 0.0
O808 O 0.81793 0.50566 0.01841 0.0
H809 H 0.82343 0.59161 0.92482 0.0
H810 H 0.79385 0.54547 0.93463 0.0
C811 C 0.81692 0.57166 0.94051 0.0
H812 H 0.80916 0.58104 0.95802 0.0
H813 H 0.77236 0.54267 0.99658 0.0
O814 O 0.93771 0.52853 0.98789 0.0
C815 C 0.84566 0.51409 0.03218 0.0
Co816 Co 0.30007 0.84722 0.81364 0.0
Co817 Co 0.36673 0.83709 0.80643 0.0
C818 C 0.29399 0.77829 0.79398 0.0
O819 O 0.28094 0.79725 0.80195 0.0
O820 O 0.32772 0.79082 0.79257 0.0
C821 C 0.22976 0.83441 0.80534 0.0
O822 O 0.22756 0.80983 0.78923 0.0
C823 C 0.41702 0.81036 0.79901 0.0
C824 C 0.46933 0.85786 0.80829 0.0
C825 C 0.45312 0.82179 0.80204 0.0
N826 N 0.41189 0.83838 0.80309 0.0
N827 N 0.44335 0.86667 0.8087 0.0
C828 C 0.38747 0.77256 0.79496 0.0
H829 H 0.36819 0.76447 0.81123 0.0
H830 H 0.37298 0.77104 0.77684 0.0
H831 H 0.39783 0.7536 0.79365 0.0
C832 C 0.344 0.91202 0.78286 0.0
N833 N 0.33859 0.88129 0.7937 0.0
N834 N 0.3669 0.87764 0.7899 0.0
C835 C 0.39085 0.90588 0.77557 0.0
C836 C 0.37731 0.92875 0.77108 0.0
C837 C 0.31804 0.92547 0.7846 0.0
H838 H 0.29243 0.90575 0.7753 0.0
H839 H 0.32855 0.95195 0.77503 0.0
H840 H 0.31227 0.92761 0.80523 0.0
O841 O 0.31467 0.84884 0.84927 0.0
O842 O 0.35767 0.83513 0.84481 0.0
H843 H 0.44731 0.92818 0.78015 0.0
H844 H 0.43311 0.92573 0.74731 0.0
C845 C 0.42602 0.91131 0.76609 0.0
H846 H 0.42493 0.88517 0.76376 0.0
H847 H 0.44684 0.89152 0.81428 0.0
O848 O 0.25954 0.85594 0.81584 0.0
C849 C 0.33682 0.84088 0.85902 0.0
Co850 Co 0.15387 0.45103 0.81244 0.0
Co851 Co 0.15933 0.5256 0.80575 0.0
C852 C 0.22232 0.51434 0.79733 0.0
O853 O 0.20365 0.48088 0.80123 0.0
O854 O 0.20874 0.53455 0.79886 0.0
C855 C 0.16901 0.4009 0.82976 0.0
O856 O 0.19161 0.42946 0.84292 0.0
C857 C 0.18698 0.59869 0.78629 0.0
C858 C 0.15516 0.61655 0.80866 0.0
C859 C 0.1846 0.62873 0.79245 0.0
N860 N 0.16058 0.57005 0.79861 0.0
N861 N 0.14111 0.58086 0.81145 0.0
C862 C 0.21706 0.59869 0.77182 0.0
H863 H 0.20718 0.57288 0.76143 0.0
H864 H 0.22901 0.62119 0.75776 0.0
H865 H 0.23833 0.60232 0.78567 0.0
C866 C 0.0893 0.42775 0.78157 0.0
N867 N 0.12052 0.45431 0.79072 0.0
N868 N 0.123 0.48547 0.78626 0.0
C869 C 0.09408 0.47981 0.77232 0.0
C870 C 0.07245 0.44279 0.76685 0.0
C871 C 0.07245 0.39177 0.79466 0.0
H872 H 0.08421 0.39462 0.81421 0.0
H873 H 0.07839 0.37315 0.78375 0.0
H874 H 0.04323 0.38034 0.79749 0.0
O875 O 0.14951 0.46395 0.84767 0.0
O876 O 0.1513 0.51634 0.84413 0.0
H877 H 0.05497 0.49673 0.76474 0.0
H878 H 0.10065 0.52763 0.75436 0.0
C879 C 0.08376 0.50817 0.76947 0.0
H880 H 0.08893 0.52306 0.78787 0.0
H881 H 0.12019 0.56455 0.82395 0.0
O882 O 0.14739 0.40277 0.81398 0.0
C883 C 0.14904 0.49054 0.85779 0.0
Co884 Co 0.55473 0.6989 0.83252 0.0
Co885 Co 0.47788 0.6429 0.81342 0.0
C886 C 0.50342 0.72029 0.80932 0.0
O887 O 0.53329 0.72765 0.81938 0.0
O888 O 0.47906 0.68814 0.80509 0.0
C889 C 0.61953 0.76442 0.83421 0.0
O890 O 0.60372 0.77328 0.81634 0.0
C891 C 0.40238 0.60427 0.799 0.0
C892 C 0.39131 0.54886 0.79291 0.0
C893 C 0.37526 0.56987 0.79332 0.0
N894 N 0.43335 0.60397 0.80135 0.0
N895 N 0.42651 0.5707 0.79774 0.0
C896 C 0.39816 0.63599 0.80503 0.0
H897 H 0.41239 0.64868 0.8233 0.0
H898 H 0.41055 0.65605 0.7893 0.0
H899 H 0.36949 0.62834 0.80676 0.0
C900 C 0.57316 0.65218 0.80246 0.0
N901 N 0.54954 0.66201 0.81023 0.0
N902 N 0.51863 0.64209 0.79863 0.0
C903 C 0.52295 0.62179 0.78062 0.0
C904 C 0.55753 0.62653 0.78292 0.0
C905 C 0.6087 0.66521 0.81543 0.0
H906 H 0.60609 0.66855 0.83646 0.0
H907 H 0.62839 0.69193 0.8076 0.0
H908 H 0.61886 0.6463 0.81251 0.0
O909 O 0.53174 0.67862 0.86459 0.0
O910 O 0.47645 0.6381 0.85268 0.0
H911 H 0.47991 0.57372 0.76369 0.0
H912 H 0.5111 0.60509 0.74092 0.0
C913 C 0.49664 0.60264 0.75927 0.0
H914 H 0.47865 0.61399 0.75672 0.0
H915 H 0.44531 0.5624 0.80028 0.0
O916 O 0.60474 0.73233 0.84226 0.0
C917 C 0.50004 0.65476 0.87015 0.0
Co918 Co 0.50292 0.61902 0.02797 0.0
Co919 Co 0.49861 0.68899 0.03131 0.0
C920 C 0.43664 0.61401 0.04455 0.0
O921 O 0.45544 0.59888 0.04365 0.0
O922 O 0.45008 0.64729 0.03958 0.0
C923 C 0.48837 0.55566 0.00838 0.0
O924 O 0.46053 0.55861 0.00161 0.0
C925 C 0.47051 0.73587 0.04676 0.0
C926 C 0.51177 0.78826 0.03134 0.0
C927 C 0.47827 0.77084 0.04288 0.0
N928 N 0.4981 0.73253 0.0379 0.0
N929 N 0.52293 0.76418 0.02907 0.0
C930 C 0.4353 0.70528 0.05548 0.0
H931 H 0.4208 0.68835 0.03856 0.0
H932 H 0.43996 0.68865 0.06963 0.0
H933 H 0.41835 0.71502 0.06455 0.0
C934 C 0.56923 0.66264 0.05796 0.0
N935 N 0.53882 0.65778 0.04688 0.0
N936 N 0.53697 0.68732 0.04918 0.0
C937 C 0.56624 0.71182 0.06225 0.0
C938 C 0.58774 0.6971 0.06796 0.0
C939 C 0.58114 0.63541 0.0576 0.0
H940 H 0.58797 0.63218 0.03746 0.0
H941 H 0.55877 0.60908 0.06406 0.0
H942 H 0.60491 0.6436 0.07017 0.0
O943 O 0.49955 0.63325 0.99249 0.0
O944 O 0.50391 0.68673 0.99316 0.0
H945 H 0.58648 0.76609 0.05055 0.0
H946 H 0.59452 0.76106 0.08398 0.0
C947 C 0.57473 0.7493 0.06803 0.0
H948 H 0.54991 0.74955 0.07339 0.0
H949 H 0.5463 0.76871 0.01969 0.0
O950 O 0.51269 0.57975 0.02247 0.0
C951 C 0.50095 0.65981 0.98077 0.0
Co952 Co 0.36591 0.87889 0.0158 0.0
Co953 Co 0.30061 0.80098 0.02286 0.0
C954 C 0.37513 0.81911 0.03646 0.0
O955 O 0.38791 0.85159 0.02965 0.0
O956 O 0.34163 0.79689 0.03585 0.0
C957 C 0.43022 0.93014 0.99871 0.0
O958 O 0.42806 0.9001 0.99087 0.0
C959 C 0.25438 0.72482 0.0362 0.0
C960 C 0.20142 0.71427 0.0224 0.0
C961 C 0.21916 0.69783 0.03292 0.0
N962 N 0.25743 0.75603 0.02822 0.0
N963 N 0.22555 0.74949 0.02015 0.0
C964 C 0.28533 0.72005 0.0437 0.0
H965 H 0.29979 0.73801 0.06018 0.0
H966 H 0.2764 0.69192 0.04934 0.0
H967 H 0.3042 0.72759 0.02717 0.0
C968 C 0.31921 0.89718 0.04629 0.0
N969 N 0.3263 0.87298 0.03541 0.0
N970 N 0.29879 0.84043 0.03894 0.0
C971 C 0.27367 0.8431 0.05292 0.0
C972 C 0.2856 0.87908 0.05768 0.0
C973 C 0.34375 0.93688 0.04489 0.0
H974 H 0.3475 0.94545 0.02434 0.0
H975 H 0.37044 0.94367 0.05268 0.0
H976 H 0.33295 0.95157 0.05589 0.0
O977 O 0.35129 0.86307 0.98034 0.0
O978 O 0.30699 0.80689 0.98435 0.0
H979 H 0.21862 0.80518 0.04578 0.0
H980 H 0.22847 0.81926 0.07887 0.0
C981 C 0.23863 0.81214 0.06144 0.0
H982 H 0.24167 0.78856 0.06574 0.0
H983 H 0.22072 0.76865 0.01162 0.0
O984 O 0.40476 0.92893 0.01201 0.0
C985 C 0.32839 0.83345 0.97036 0.0
Co986 Co 0.10556 0.47497 0.01633 0.0
Co987 Co 0.18302 0.48673 0.0199 0.0
C988 C 0.16564 0.54505 0.03227 0.0
O989 O 0.13216 0.52446 0.02938 0.0
O990 O 0.18771 0.53395 0.02884 0.0
C991 C 0.04302 0.47722 0.02846 0.0
O992 O 0.06357 0.49745 0.04732 0.0
C993 C 0.25578 0.51532 0.0402 0.0
C994 C 0.27453 0.48349 0.01871 0.0
C995 C 0.28569 0.51208 0.03563 0.0
N996 N 0.22813 0.48996 0.02651 0.0
N997 N 0.23936 0.4705 0.01415 0.0
C998 C 0.25494 0.54491 0.05478 0.0
H999 H 0.25734 0.5657 0.04093 0.0
H1000 H 0.22914 0.53425 0.06533 0.0
H1001 H 0.27757 0.55759 0.0687 0.0
C1002 C 0.08914 0.4111 0.04748 0.0
N1003 N 0.11259 0.44223 0.03605 0.0
N1004 N 0.14521 0.44706 0.03803 0.0
C1005 C 0.14346 0.41902 0.05108 0.0
C1006 C 0.10786 0.39528 0.05735 0.0
C1007 C 0.04937 0.39583 0.04741 0.0
H1008 H 0.04294 0.41543 0.05627 0.0
H1009 H 0.03535 0.3701 0.05818 0.0
H1010 H 0.03963 0.39145 0.02713 0.0
O1011 O 0.12057 0.47663 0.98025 0.0
O1012 O 0.17456 0.48173 0.98177 0.0
H1013 H 0.18331 0.40753 0.03722 0.0
H1014 H 0.16774 0.39124 0.0695 0.0
C1015 C 0.17475 0.41368 0.05582 0.0
H1016 H 0.19751 0.43871 0.06369 0.0
H1017 H 0.22361 0.44983 0.00131 0.0
O1018 O 0.0552 0.46188 0.01409 0.0
C1019 C 0.14813 0.47948 0.96902 0.0
Co1020 Co 0.367 0.48742 0.52041 0.0
Co1021 Co 0.29979 0.49798 0.51856 0.0
C1022 C 0.37354 0.55689 0.53438 0.0
O1023 O 0.38719 0.53678 0.53309 0.0
O1024 O 0.34072 0.54529 0.5291 0.0
C1025 C 0.4353 0.4962 0.53183 0.0
O1026 O 0.43781 0.52118 0.54768 0.0
C1027 C 0.25355 0.52829 0.53109 0.0
C1028 C 0.20386 0.49205 0.50996 0.0
C1029 C 0.22032 0.52346 0.52427 0.0
N1030 N 0.25685 0.5011 0.52121 0.0
N1031 N 0.22671 0.4792 0.50896 0.0
C1032 C 0.28298 0.56042 0.54438 0.0
H1033 H 0.30309 0.57797 0.52984 0.0
H1034 H 0.29632 0.55173 0.55868 0.0
H1035 H 0.27252 0.57613 0.55439 0.0
C1036 C 0.31702 0.42348 0.55055 0.0
N1037 N 0.32523 0.45432 0.5384 0.0
N1038 N 0.29687 0.45846 0.53813 0.0
C1039 C 0.26971 0.4302 0.55043 0.0
C1040 C 0.28155 0.40704 0.55854 0.0
C1041 C 0.34216 0.40911 0.55295 0.0
H1042 H 0.3486 0.4034 0.53337 0.0
H1043 H 0.36763 0.42981 0.56187 0.0
H1044 H 0.3304 0.38424 0.56476 0.0
O1045 O 0.35692 0.48807 0.48346 0.0
O1046 O 0.308 0.49307 0.4811 0.0
H1047 H 0.21869 0.41523 0.53402 0.0
H1048 H 0.21691 0.40319 0.5676 0.0
C1049 C 0.23249 0.42414 0.55294 0.0
H1050 H 0.23348 0.44955 0.5584 0.0
H1051 H 0.2226 0.45669 0.49854 0.0
O1052 O 0.40573 0.47569 0.52063 0.0
C1053 C 0.33324 0.49042 0.47033 0.0
Co1054 Co 0.51854 0.88918 0.51098 0.0
Co1055 Co 0.4958 0.81296 0.52959 0.0
C1056 C 0.44598 0.83734 0.53689 0.0
O1057 O 0.46753 0.86499 0.5239 0.0
O1058 O 0.45439 0.81419 0.54375 0.0
C1059 C 0.51834 0.95352 0.5176 0.0
O1060 O 0.49853 0.93671 0.53778 0.0
C1061 C 0.46158 0.73658 0.54045 0.0
C1062 C 0.50714 0.72652 0.54089 0.0
C1063 C 0.47011 0.70967 0.5427 0.0
N1064 N 0.49217 0.7681 0.53791 0.0
N1065 N 0.51935 0.76193 0.53822 0.0
C1066 C 0.4249 0.73201 0.5377 0.0
H1067 H 0.41836 0.742 0.55548 0.0
H1068 H 0.40418 0.70345 0.53479 0.0
H1069 H 0.42451 0.74831 0.52119 0.0
C1070 C 0.58414 0.90683 0.53972 0.0
N1071 N 0.55063 0.88354 0.53198 0.0
N1072 N 0.53956 0.8523 0.54297 0.0
C1073 C 0.56429 0.85586 0.56062 0.0
C1074 C 0.59418 0.89051 0.55874 0.0
C1075 C 0.60642 0.94293 0.52745 0.0
H1076 H 0.60031 0.94116 0.50647 0.0
H1077 H 0.59929 0.9622 0.53598 0.0
H1078 H 0.63552 0.9531 0.53015 0.0
O1079 O 0.51734 0.86982 0.47777 0.0
O1080 O 0.49006 0.81296 0.49017 0.0
H1081 H 0.56751 0.81062 0.57501 0.0
H1082 H 0.57098 0.84184 0.59941 0.0
C1083 C 0.55725 0.82849 0.58114 0.0
H1084 H 0.52795 0.81161 0.58455 0.0
H1085 H 0.54602 0.78153 0.53503 0.0
O1086 O 0.53288 0.93926 0.50459 0.0
C1087 C 0.50048 0.83675 0.47237 0.0
Co1088 Co 0.11944 0.64532 0.50386 0.0
Co1089 Co 0.19498 0.70637 0.52098 0.0
C1090 C 0.1769 0.63092 0.52491 0.0
O1091 O 0.14597 0.62132 0.51588 0.0
O1092 O 0.19973 0.66378 0.52867 0.0
C1093 C 0.05837 0.57989 0.51368 0.0
O1094 O 0.07625 0.58231 0.53486 0.0
C1095 C 0.26976 0.75241 0.53683 0.0
C1096 C 0.2756 0.8064 0.53665 0.0
C1097 C 0.29449 0.78846 0.54015 0.0
N1098 N 0.23749 0.74894 0.53196 0.0
N1099 N 0.24115 0.78136 0.53203 0.0
C1100 C 0.27759 0.72223 0.53544 0.0
H1101 H 0.2687 0.70861 0.51644 0.0
H1102 H 0.26221 0.70236 0.55076 0.0
H1103 H 0.30657 0.73176 0.53813 0.0
C1104 C 0.09717 0.68887 0.53401 0.0
N1105 N 0.12218 0.68098 0.52617 0.0
N1106 N 0.15303 0.70302 0.53705 0.0
C1107 C 0.14767 0.72302 0.55468 0.0
C1108 C 0.11205 0.7156 0.55293 0.0
C1109 C 0.06119 0.67348 0.52125 0.0
H1110 H 0.06368 0.66911 0.50038 0.0
H1111 H 0.0426 0.64692 0.52985 0.0
H1112 H 0.04976 0.69142 0.52347 0.0
O1113 O 0.13868 0.66587 0.47085 0.0
O1114 O 0.19318 0.70976 0.48164 0.0
H1115 H 0.19132 0.77338 0.56807 0.0
H1116 H 0.16128 0.74557 0.59301 0.0
C1117 C 0.17482 0.74535 0.57479 0.0
H1118 H 0.19311 0.73463 0.57856 0.0
H1119 H 0.22062 0.78662 0.52737 0.0
O1120 O 0.07045 0.60613 0.4981 0.0
C1121 C 0.1693 0.69151 0.46466 0.0
Co1122 Co 0.15529 0.70449 0.30325 0.0
Co1123 Co 0.16094 0.63536 0.30875 0.0
C1124 C 0.22053 0.70619 0.2874 0.0
O1125 O 0.20158 0.72113 0.28611 0.0
O1126 O 0.20806 0.67481 0.29661 0.0
C1127 C 0.17184 0.77201 0.31362 0.0
O1128 O 0.20013 0.7705 0.32136 0.0
C1129 C 0.18643 0.58735 0.29195 0.0
C1130 C 0.16342 0.54506 0.32173 0.0
C1131 C 0.18763 0.5579 0.30141 0.0
N1132 N 0.16309 0.59221 0.30627 0.0
N1133 N 0.14861 0.56615 0.32357 0.0
C1134 C 0.21107 0.61325 0.27213 0.0
H1135 H 0.23573 0.63417 0.28181 0.0
H1136 H 0.1978 0.6263 0.26207 0.0
H1137 H 0.21906 0.59928 0.25784 0.0
C1138 C 0.0867 0.65316 0.27784 0.0
N1139 N 0.11838 0.66155 0.2887 0.0
N1140 N 0.12091 0.63237 0.29055 0.0
C1141 C 0.0908 0.60441 0.28085 0.0
C1142 C 0.0681 0.61667 0.27256 0.0
C1143 C 0.07372 0.67926 0.2742 0.0
H1144 H 0.09519 0.70415 0.26512 0.0
H1145 H 0.04913 0.66772 0.26211 0.0
H1146 H 0.06781 0.68659 0.29341 0.0
O1147 O 0.16137 0.69819 0.3404 0.0
O1148 O 0.15888 0.64584 0.34594 0.0
H1149 H 0.08141 0.55765 0.30164 0.0
H1150 H 0.05724 0.54822 0.27135 0.0
C1151 C 0.08291 0.56641 0.28128 0.0
H1152 H 0.10515 0.56474 0.27177 0.0
H1153 H 0.13094 0.56454 0.33802 0.0
O1154 O 0.14586 0.74468 0.30304 0.0
C1155 C 0.16168 0.67465 0.35506 0.0
Co1156 Co 0.30088 0.45273 0.31518 0.0
Co1157 Co 0.36927 0.52742 0.30568 0.0
C1158 C 0.29542 0.51603 0.29764 0.0
O1159 O 0.28145 0.48335 0.3041 0.0
O1160 O 0.3293 0.53642 0.29663 0.0
C1161 C 0.23162 0.39573 0.30502 0.0
O1162 O 0.23229 0.41719 0.28672 0.0
C1163 C 0.41874 0.60351 0.2953 0.0
C1164 C 0.47165 0.60694 0.29388 0.0
C1165 C 0.45501 0.62734 0.29217 0.0
N1166 N 0.41383 0.57032 0.29839 0.0
N1167 N 0.44571 0.57271 0.29795 0.0
C1168 C 0.38968 0.61281 0.29795 0.0
H1169 H 0.37363 0.59981 0.31552 0.0
H1170 H 0.37171 0.6025 0.28089 0.0
H1171 H 0.40068 0.64222 0.2993 0.0
C1172 C 0.34047 0.42851 0.28227 0.0
N1173 N 0.33683 0.45491 0.29317 0.0
N1174 N 0.36476 0.48628 0.28726 0.0
C1175 C 0.38606 0.48047 0.27106 0.0
C1176 C 0.37185 0.44381 0.268 0.0
C1177 C 0.31522 0.3894 0.28664 0.0
H1178 H 0.28905 0.3819 0.27754 0.0
H1179 H 0.32569 0.37267 0.27827 0.0
H1180 H 0.31057 0.38411 0.30769 0.0
O1181 O 0.31884 0.46732 0.35012 0.0
O1182 O 0.36811 0.52013 0.3444 0.0
H1183 H 0.44308 0.513 0.26863 0.0
H1184 H 0.42092 0.49992 0.23811 0.0
C1185 C 0.41899 0.50884 0.25789 0.0
H1186 H 0.41837 0.53421 0.2565 0.0
H1187 H 0.45001 0.55135 0.30169 0.0
O1188 O 0.25952 0.40436 0.31833 0.0
C1189 C 0.34568 0.49521 0.35919 0.0
Co1190 Co 0.55102 0.84784 0.32479 0.0
Co1191 Co 0.47413 0.82857 0.30732 0.0
C1192 C 0.50257 0.77833 0.299 0.0
O1193 O 0.53331 0.80131 0.30745 0.0
O1194 O 0.47703 0.78517 0.29759 0.0
C1195 C 0.61788 0.85158 0.32534 0.0
O1196 O 0.60503 0.83148 0.30465 0.0
C1197 C 0.40128 0.79515 0.28599 0.0
C1198 C 0.38677 0.83655 0.29472 0.0
C1199 C 0.37314 0.80209 0.2852 0.0
N1200 N 0.43036 0.82433 0.29537 0.0
N1201 N 0.42156 0.8491 0.30028 0.0
C1202 C 0.39892 0.75961 0.28189 0.0
H1203 H 0.404 0.75004 0.30049 0.0
H1204 H 0.41992 0.76278 0.26797 0.0
H1205 H 0.37219 0.73932 0.27438 0.0
C1206 C 0.57101 0.91356 0.29509 0.0
N1207 N 0.54646 0.88095 0.30389 0.0
N1208 N 0.51451 0.87255 0.29504 0.0
C1209 C 0.51816 0.89952 0.27954 0.0
C1210 C 0.55389 0.92648 0.27947 0.0
C1211 C 0.61011 0.93167 0.30145 0.0
H1212 H 0.62149 0.91557 0.29344 0.0
H1213 H 0.62491 0.95924 0.29336 0.0
H1214 H 0.61357 0.93269 0.32275 0.0
O1215 O 0.52453 0.83868 0.35728 0.0
O1216 O 0.47013 0.82729 0.34593 0.0
H1217 H 0.47626 0.9122 0.27641 0.0
H1218 H 0.49913 0.91597 0.24667 0.0
C1219 C 0.48855 0.89972 0.26453 0.0
H1220 H 0.46787 0.87201 0.25924 0.0
H1221 H 0.4385 0.87351 0.30933 0.0
O1222 O 0.60045 0.86474 0.33585 0.0
C1223 C 0.49282 0.83086 0.36316 0.0
C1224 C 0.11572 0.09422 0.10841 0.0
C1225 C 0.11285 0.10938 0.13209 0.0
C1226 C 0.13293 0.07352 0.15627 0.0
C1227 C 0.13716 0.05949 0.1325 0.0
N1228 N 0.13544 0.05723 0.08607 0.0
N1229 N 0.11802 0.11401 0.17859 0.0
C1230 C 0.12914 0.06989 0.10857 0.0
C1231 C 0.12126 0.09915 0.15605 0.0
N1232 N 0.10516 0.10287 0.08587 0.0
N1233 N 0.13936 0.06155 0.1791 0.0
H1234 H 0.10616 0.12998 0.17966 0.0
H1235 H 0.12774 0.11152 0.1964 0.0
H1236 H 0.1496 0.04416 0.18005 0.0
H1237 H 0.13338 0.06736 0.1973 0.0
H1238 H 0.10301 0.09035 0.06824 0.0
H1239 H 0.09676 0.12178 0.08492 0.0
H1240 H 0.13358 0.06607 0.06774 0.0
H1241 H 0.1444 0.03872 0.08574 0.0
C1242 C 0.88071 0.01124 0.15164 0.0
C1243 C 0.86916 0.99225 0.1279 0.0
C1244 C 0.90733 0.04757 0.10359 0.0
C1245 C 0.91993 0.06609 0.12732 0.0
N1246 N 0.92145 0.06635 0.17397 0.0
N1247 N 0.87328 0.99031 0.08153 0.0
C1248 C 0.90728 0.04813 0.15136 0.0
C1249 C 0.88298 0.00987 0.1039 0.0
N1250 N 0.86607 0.99398 0.17449 0.0
N1251 N 0.91809 0.0663 0.08088 0.0
H1252 H 0.85447 0.96295 0.081 0.0
H1253 H 0.88507 0.00049 0.06365 0.0
H1254 H 0.93664 0.09373 0.08016 0.0
H1255 H 0.90735 0.05541 0.0629 0.0
H1256 H 0.86942 0.007 0.19207 0.0
H1257 H 0.84894 0.96637 0.17597 0.0
H1258 H 0.91715 0.05425 0.19203 0.0
H1259 H 0.93941 0.09386 0.17475 0.0
C1260 C 0.98105 0.88579 0.14692 0.0
C1261 C 0.99376 0.87006 0.12898 0.0
C1262 C 0.93332 0.83468 0.1107 0.0
C1263 C 0.92006 0.84804 0.13036 0.0
N1264 N 0.93011 0.88124 0.17022 0.0
N1265 N 0.98292 0.82799 0.09478 0.0
C1266 C 0.94364 0.87261 0.14919 0.0
C1267 C 0.97015 0.84403 0.11107 0.0
N1268 N 0.00578 0.91345 0.16159 0.0
N1269 N 0.9108 0.81377 0.09145 0.0
H1270 H 0.01001 0.83542 0.09404 0.0
H1271 H 0.96664 0.80618 0.08304 0.0
H1272 H 0.8838 0.80668 0.09073 0.0
H1273 H 0.91923 0.80566 0.07524 0.0
H1274 H 1e-05 0.92897 0.17403 0.0
H1275 H 1e-05 0.92897 0.17403 0.0
H1276 H 0.94537 0.89499 0.18628 0.0
H1277 H 0.90286 0.87184 0.17303 0.0
C1278 C 0.10488 0.12341 0.3423 0.0
C1279 C 0.12633 0.12834 0.36445 0.0
C1280 C 0.09615 0.15577 0.3876 0.0
C1281 C 0.07711 0.15361 0.36468 0.0
N1282 N 0.06713 0.14073 0.31901 0.0
N1283 N 0.14522 0.15161 0.40745 0.0
C1284 C 0.08256 0.13894 0.34169 0.0
C1285 C 0.12272 0.14516 0.38696 0.0
N1286 N 0.10494 0.10286 0.32212 0.0
N1287 N 0.08836 0.16741 0.40995 0.0
H1288 H 0.16429 0.14339 0.40776 0.0
H1289 H 0.14661 0.16694 0.42344 0.0
H1290 H 0.06968 0.17613 0.41072 0.0
H1291 H 0.09856 0.16637 0.42796 0.0
H1292 H 0.08669 0.09469 0.3069 0.0
H1293 H 0.12112 0.09119 0.32155 0.0
H1294 H 0.07349 0.13444 0.30106 0.0
H1295 H 0.05008 0.15136 0.31769 0.0
C1296 C 0.88147 0.99057 0.35424 0.0
C1297 C 0.88094 0.00669 0.37805 0.0
C1298 C 0.85403 0.94812 0.39966 0.0
C1299 C 0.85768 0.93279 0.37641 0.0
N1300 N 0.87857 0.93949 0.3323 0.0
N1301 N 0.87033 0.00249 0.42397 0.0
C1302 C 0.87255 0.95408 0.35393 0.0
C1303 C 0.86811 0.98591 0.40095 0.0
N1304 N 0.88933 0.00987 0.33177 0.0
N1305 N 0.83663 0.92644 0.42026 0.0
H1306 H 0.87973 0.02997 0.42543 0.0
H1307 H 0.86504 0.9896 0.4418 0.0
H1308 H 0.82712 0.89887 0.42012 0.0
H1309 H 0.82962 0.93523 0.43684 0.0
H1310 H 0.88614 0.99856 0.31348 0.0
H1311 H 0.89611 0.03675 0.33109 0.0
H1312 H 0.89335 0.95461 0.31648 0.0
H1313 H 0.87111 0.91247 0.33075 0.0
C1314 C 0.02123 0.89422 0.39566 0.0
C1315 C 0.00188 0.8843 0.372 0.0
C1316 C 0.05688 0.92271 0.34799 0.0
C1317 C 0.07581 0.9348 0.37169 0.0
N1318 N 0.07614 0.93601 0.41817 0.0
N1319 N -0.00057 0.89557 0.32647 0.0
C1320 C 0.058 0.92173 0.39562 0.0
C1321 C 0.01915 0.90041 0.34839 0.0
N1322 N 0.0046 0.87678 0.41796 0.0
N1323 N 0.07511 0.93135 0.32503 0.0
H1324 H 0.97155 0.87981 0.32584 0.0
H1325 H 0.01037 0.90999 0.30949 0.0
H1326 H 0.1029 0.94743 0.32377 0.0
H1327 H 0.06308 0.91989 0.30743 0.0
H1328 H 0.01797 0.88016 0.43541 0.0
H1329 H 0.9776 0.85692 0.41862 0.0
H1330 H 0.06396 0.93022 0.43628 0.0
H1331 H 0.10318 0.95584 0.41856 0.0
C1332 C 0.8551 0.90614 0.89845 0.0
C1333 C 0.86918 0.9344 0.88005 0.0
C1334 C 0.90698 0.91191 0.86203 0.0
C1335 C 0.88845 0.8807 0.87756 0.0
N1336 N 0.84454 0.84699 0.91025 0.0
N1337 N 0.90725 0.96297 0.8427 0.0
C1338 C 0.8626 0.87761 0.89587 0.0
C1339 C 0.89538 0.9375 0.86176 0.0
N1340 N 0.83513 0.90713 0.91865 0.0
N1341 N 0.93557 0.91709 0.84723 0.0
H1342 H 0.9012 0.98345 0.84158 0.0
H1343 H 0.92155 0.96256 0.82658 0.0
H1344 H 0.94349 0.89801 0.84497 0.0
H1345 H 0.95328 0.94156 0.83862 0.0
H1346 H 0.82645 0.88903 0.93397 0.0
H1347 H 0.83019 0.92833 0.92134 0.0
H1348 H 0.82244 0.8412 0.92175 0.0
H1349 H 0.85043 0.82623 0.9095 0.0
C1350 C 0.09825 0.93723 0.8889 0.0
C1351 C 0.07127 0.92141 0.86967 0.0
C1352 C 0.09658 0.9789 0.84668 0.0
C1353 C 0.12242 0.99515 0.86663 0.0
N1354 N 0.14576 0.99199 0.90823 0.0
N1355 N 0.04211 0.92722 0.83141 0.0
C1356 C 0.12268 0.97492 0.8882 0.0
C1357 C 0.06955 0.94233 0.84899 0.0
N1358 N 0.10077 0.91607 0.90755 0.0
N1359 N 0.09873 0.99813 0.82497 0.0
H1360 H 0.02351 0.8999 0.8306 0.0
H1361 H 0.03633 0.94201 0.81832 0.0
H1362 H 0.11728 0.02533 0.82272 0.0
H1363 H 0.08387 0.98679 0.80826 0.0
H1364 H 0.1221 0.92498 0.92045 0.0
H1365 H 0.08225 0.88874 0.90929 0.0
H1366 H 0.14498 0.9797 0.92574 0.0
H1367 H 0.16444 0.0194 0.908 0.0
C1368 C 0.05044 0.11762 0.84817 0.0
C1369 C 0.07245 0.13888 0.86892 0.0
C1370 C 0.02153 0.14204 0.88738 0.0
C1371 C -0.00076 0.11891 0.86752 0.0
N1372 N 0.99036 0.07769 0.83275 0.0
N1373 N 0.07839 0.16702 0.91026 0.0
C1374 C 0.01303 0.10446 0.84912 0.0
C1375 C 0.0578 0.14986 0.88915 0.0
N1376 N 0.06543 0.11192 0.82663 0.0
N1377 N 0.00818 0.15704 0.90413 0.0
H1378 H 0.10491 0.17282 0.9121 0.0
H1379 H 0.0685 0.17286 0.9268 0.0
H1380 H 0.98149 0.15104 0.9037 0.0
H1381 H 0.0239 0.17704 0.91734 0.0
H1382 H 0.05101 0.10033 0.80977 0.0
H1383 H 0.09287 0.12187 0.8244 0.0
H1384 H -0.0014 0.06332 0.82117 0.0
H1385 H 0.9627 0.06744 0.83235 0.0
C1386 C 0.91737 0.86879 0.65213 0.0
C1387 C 0.92016 0.84982 0.63068 0.0
C1388 C 0.87159 0.85363 0.60863 0.0
C1389 C 0.86836 0.87186 0.63047 0.0
N1390 N 0.88646 0.89345 0.67449 0.0
N1391 N 0.8975 0.8196 0.59008 0.0
C1392 C 0.89047 0.87832 0.6525 0.0
C1393 C 0.89649 0.84083 0.60934 0.0
N1394 N 0.94013 0.8774 0.67277 0.0
N1395 N 0.85179 0.84976 0.58695 0.0
H1396 H 0.91616 0.81084 0.58981 0.0
H1397 H 0.87872 0.80888 0.57524 0.0
H1398 H 0.8329 0.85819 0.58604 0.0
H1399 H 0.85538 0.84016 0.5694 0.0
H1400 H 0.93876 0.89132 0.68886 0.0
H1401 H 0.96062 0.87119 0.67377 0.0
H1402 H 0.86674 0.90049 0.67726 0.0
H1403 H 0.86674 0.90049 0.67726 0.0
C1404 C 0.12887 0.02251 0.60447 0.0
C1405 C 0.1136 0.00162 0.62708 0.0
C1406 C 0.12261 0.05493 0.65067 0.0
C1407 C 0.136 0.07544 0.62766 0.0
N1408 N 0.14873 0.07922 0.58216 0.0
N1409 N 0.092 0.99632 0.67087 0.0
C1410 C 0.13831 0.05936 0.60438 0.0
C1411 C 0.1093 0.01738 0.64993 0.0
N1412 N 0.13483 0.00716 0.58331 0.0
N1413 N 0.12408 0.07167 0.67353 0.0
H1414 H 0.08392 0.96912 0.67194 0.0
H1415 H 0.0836 0.00518 0.68669 0.0
H1416 H 0.13251 0.09893 0.67493 0.0
H1417 H 0.11936 0.05924 0.69151 0.0
H1418 H 0.14905 0.02145 0.56707 0.0
H1419 H 0.12735 0.98006 0.58257 0.0
H1420 H 0.14789 0.0686 0.56393 0.0
H1421 H 0.15602 0.10629 0.58168 0.0
C1422 C 0.93238 0.09676 0.62006 0.0
C1423 C 0.9197 0.0695 0.63924 0.0
C1424 C 0.9804 0.09444 0.65675 0.0
C1425 C 0.99321 0.12251 0.63819 0.0
N1426 N 0.98178 0.15282 0.60354 0.0
N1427 N 0.93131 0.04302 0.6767 0.0
C1428 C 0.96927 0.12432 0.62015 0.0
C1429 C 0.94364 0.06845 0.65762 0.0
N1430 N 0.90932 0.09543 0.60132 0.0
N1431 N 0.00247 0.09212 0.67462 0.0
H1432 H 0.90433 0.02404 0.67919 0.0
H1433 H 0.94818 0.04141 0.6905 0.0
H1434 H 0.02994 0.11011 0.67619 0.0
H1435 H 0.02994 0.11011 0.67619 0.0
H1436 H 0.91704 0.11241 0.58538 0.0
H1437 H 0.88234 0.0755 0.60078 0.0
H1438 H 0.9655 0.158 0.59155 0.0
H1439 H 0.00875 0.17273 0.60268 0.0
C1440 C 0.81158 0.4624 0.44206 0.0
C1441 C 0.79689 0.46729 0.46531 0.0
C1442 C 0.80714 0.42291 0.48739 0.0
C1443 C 0.82164 0.4177 0.46428 0.0
N1444 N 0.84147 0.43407 0.4204 0.0
N1445 N 0.77949 0.45052 0.51022 0.0
C1446 C 0.82491 0.43789 0.44174 0.0
C1447 C 0.79443 0.44734 0.48783 0.0
N1448 N 0.81188 0.48058 0.42028 0.0
N1449 N 0.80561 0.40458 0.50942 0.0
H1450 H 0.7687 0.4673 0.51274 0.0
H1451 H 0.7687 0.4673 0.51274 0.0
H1452 H 0.81552 0.38692 0.51056 0.0
H1453 H 0.795 0.40763 0.52676 0.0
H1454 H 0.81937 0.47646 0.40207 0.0
H1455 H 0.80312 0.49925 0.42018 0.0
H1456 H 0.84751 0.44971 0.40383 0.0
H1457 H 0.85084 0.4159 0.41971 0.0
C1458 C 0.57397 0.39664 0.44037 0.0
C1459 C 0.59984 0.4113 0.46041 0.0
C1460 C 0.57598 0.35184 0.47999 0.0
C1461 C 0.54781 0.33779 0.46153 0.0
N1462 N 0.51807 0.3461 0.42499 0.0
N1463 N 0.62177 0.40437 0.50189 0.0
C1464 C 0.54632 0.35997 0.44184 0.0
C1465 C 0.60012 0.38928 0.48079 0.0
N1466 N 0.57636 0.41771 0.41983 0.0
N1467 N 0.57992 0.32942 0.49675 0.0
H1468 H 0.63994 0.43171 0.5037 0.0
H1469 H 0.61955 0.39025 0.5188 0.0
H1470 H 0.56194 0.30195 0.49797 0.0
H1471 H 0.60267 0.33758 0.50814 0.0
H1472 H 0.56041 0.40813 0.40337 0.0
H1473 H 0.59636 0.44461 0.41841 0.0
H1474 H 0.51322 0.36149 0.41184 0.0
H1475 H 0.49806 0.31913 0.42515 0.0
C1476 C 0.65594 0.22012 0.48077 0.0
C1477 C 0.67207 0.22256 0.45636 0.0
C1478 C 0.61362 0.19896 0.43497 0.0
C1479 C 0.59812 0.19897 0.45915 0.0
N1480 N 0.60466 0.21408 0.50452 0.0
N1481 N 0.6681 0.21866 0.40991 0.0
C1482 C 0.61936 0.21092 0.48189 0.0
C1483 C 0.6514 0.21315 0.43333 0.0
N1484 N 0.67539 0.22566 0.50295 0.0
N1485 N 0.59207 0.18478 0.41377 0.0
H1486 H 0.69556 0.22817 0.4081 0.0
H1487 H 0.65535 0.21603 0.39228 0.0
H1488 H 0.56453 0.17537 0.41424 0.0
H1489 H 0.60093 0.18035 0.39617 0.0
H1490 H 0.66416 0.22018 0.52137 0.0
H1491 H 0.70246 0.23307 0.50301 0.0
H1492 H 0.6196 0.22649 0.52101 0.0
H1493 H 0.57772 0.2068 0.50638 0.0
C1494 C 0.79206 0.48473 0.72266 0.0
C1495 C 0.78859 0.4581 0.7049 0.0
C1496 C 0.73506 0.45536 0.686 0.0
C1497 C 0.73691 0.48016 0.70496 0.0
N1498 N 0.76448 0.51625 0.74272 0.0
N1499 N 0.75631 0.41487 0.6724 0.0
C1500 C 0.76476 0.49435 0.72369 0.0
C1501 C 0.75959 0.44243 0.68738 0.0
N1502 N 0.82163 0.501 0.73824 0.0
N1503 N 0.71135 0.44592 0.66587 0.0
H1504 H 0.73472 0.39935 0.6602 0.0
H1505 H 0.73472 0.39935 0.6602 0.0
H1506 H 0.69292 0.4548 0.66404 0.0
H1507 H 0.7118 0.43187 0.64965 0.0
H1508 H 0.82785 0.52308 0.74987 0.0
H1509 H 0.84124 0.49348 0.73846 0.0
H1510 H 0.782 0.52507 0.75838 0.0
H1511 H 0.74493 0.5238 0.74378 0.0
C1512 C 0.52385 0.31133 0.7284 0.0
C1513 C 0.53869 0.33309 0.70612 0.0
C1514 C 0.53084 0.28111 0.68138 0.0
C1515 C 0.51418 0.25894 0.70323 0.0
N1516 N 0.49017 0.25109 0.74628 0.0
N1517 N 0.55019 0.33813 0.66021 0.0
C1518 C 0.50922 0.2735 0.7264 0.0
C1519 C 0.54042 0.31779 0.68225 0.0
N1520 N 0.52475 0.32703 0.75158 0.0
N1521 N 0.53806 0.26722 0.6599 0.0
H1522 H 0.55753 0.36519 0.65999 0.0
H1523 H 0.54806 0.32759 0.64176 0.0
H1524 H 0.53027 0.24017 0.65793 0.0
H1525 H 0.55406 0.28288 0.64468 0.0
H1526 H 0.51795 0.31334 0.76912 0.0
H1527 H 0.53453 0.35452 0.75355 0.0
H1528 H 0.4823 0.2594 0.76268 0.0
H1529 H 0.48015 0.22344 0.74561 0.0
C1530 C 0.68059 0.22984 0.67911 0.0
C1531 C 0.66277 0.21508 0.70288 0.0
C1532 C 0.7192 0.25048 0.72673 0.0
C1533 C 0.73671 0.26587 0.70306 0.0
N1534 N 0.73473 0.27324 0.65696 0.0
N1535 N 0.66289 0.21388 0.74944 0.0
C1536 C 0.71753 0.25639 0.67932 0.0
C1537 C 0.68146 0.22618 0.72677 0.0
N1538 N 0.66224 0.21803 0.65627 0.0
N1539 N 0.73892 0.2585 0.74897 0.0
H1540 H 0.6355 0.19524 0.75009 0.0
H1541 H 0.67391 0.22353 0.76759 0.0
H1542 H 0.76634 0.27709 0.74955 0.0
H1543 H 0.72881 0.24555 0.76653 0.0
H1544 H 0.67433 0.22385 0.63815 0.0
H1545 H 0.6346 0.2008 0.65519 0.0
H1546 H 0.72183 0.27127 0.63952 0.0
H1547 H 0.76225 0.29106 0.65596 0.0
C1548 C 0.53853 0.25517 0.18057 0.0
C1549 C 0.51746 0.25683 0.20112 0.0
C1550 C 0.51992 0.20783 0.22359 0.0
C1551 C 0.53858 0.20443 0.20218 0.0
N1552 N 0.56275 0.22182 0.15908 0.0
N1553 N 0.48532 0.23356 0.24107 0.0
C1554 C 0.5473 0.22743 0.1804 0.0
C1555 C 0.50736 0.23279 0.22235 0.0
N1556 N 0.55003 0.28005 0.16109 0.0
N1557 N 0.51502 0.18774 0.24531 0.0
H1558 H 0.47726 0.25276 0.24147 0.0
H1559 H 0.47349 0.21422 0.25548 0.0
H1560 H 0.52326 0.16872 0.24657 0.0
H1561 H 0.505 0.19142 0.26264 0.0
H1562 H 0.5694 0.28343 0.14758 0.0
H1563 H 0.54192 0.29904 0.15906 0.0
H1564 H 0.56563 0.23446 0.14138 0.0
H1565 H 0.57065 0.20254 0.1583 0.0
C1566 C 0.7796 0.30647 0.22409 0.0
C1567 C 0.78119 0.3279 0.20273 0.0
C1568 C 0.73265 0.27548 0.18127 0.0
C1569 C 0.72948 0.25427 0.20322 0.0
N1570 N 0.74584 0.2498 0.24698 0.0
N1571 N 0.75406 0.33488 0.16386 0.0
C1572 C 0.75179 0.26987 0.22512 0.0
C1573 C 0.75602 0.31306 0.18226 0.0
N1574 N 0.80514 0.32096 0.243 0.0
N1575 N 0.71517 0.2595 0.15881 0.0
H1576 H 0.77108 0.36261 0.16347 0.0
H1577 H 0.73343 0.32588 0.15032 0.0
H1578 H 0.69872 0.23187 0.15684 0.0
H1579 H 0.71977 0.27322 0.14136 0.0
H1580 H 0.80787 0.30598 0.25771 0.0
H1581 H 0.8252 0.34791 0.2431 0.0
H1582 H 0.75887 0.26027 0.26447 0.0
H1583 H 0.72562 0.22296 0.2482 0.0
C1584 C 0.71681 0.47712 0.22544 0.0
C1585 C 0.73329 0.46877 0.20494 0.0
C1586 C 0.67544 0.43535 0.18275 0.0
C1587 C 0.65964 0.44668 0.20191 0.0
N1588 N 0.66488 0.48023 0.24052 0.0
N1589 N 0.72998 0.44582 0.16171 0.0
C1590 C 0.6802 0.46805 0.22307 0.0
C1591 C 0.71304 0.44922 0.18303 0.0
N1592 N 0.73601 0.49297 0.24735 0.0
N1593 N 0.65448 0.41097 0.16436 0.0
H1594 H 0.75759 0.45595 0.16067 0.0
H1595 H 0.71718 0.43583 0.14407 0.0
H1596 H 0.66387 0.39835 0.15201 0.0
H1597 H 0.62696 0.401 0.16268 0.0
H1598 H 0.72488 0.49685 0.26405 0.0
H1599 H 0.76282 0.49986 0.24954 0.0
H1600 H 0.6792 0.49898 0.25484 0.0
H1601 H 0.6379 0.47315 0.23969 0.0
C1602 C 0.54748 0.18809 0.94491 0.0
C1603 C 0.54997 0.21439 0.96259 0.0
C1604 C 0.60613 0.22157 0.98001 0.0
C1605 C 0.60377 0.19518 0.96226 0.0
N1606 N 0.5776 0.15989 0.92394 0.0
N1607 N 0.58507 0.26183 0.99304 0.0
C1608 C 0.57602 0.18046 0.94347 0.0
C1609 C 0.58051 0.23307 0.97874 0.0
N1610 N 0.51741 0.16982 0.93002 0.0
N1611 N 0.63112 0.23387 0.9994 0.0
H1612 H 0.60909 0.27958 0.00215 0.0
H1613 H 0.56594 0.26985 0.99438 0.0
H1614 H 0.65147 0.22767 0.00107 0.0
H1615 H 0.63039 0.24857 0.01515 0.0
H1616 H 0.51198 0.1475 0.9189 0.0
H1617 H 0.49666 0.17575 0.92995 0.0
H1618 H 0.56001 0.15081 0.90831 0.0
H1619 H 0.59874 0.15469 0.9221 0.0
C1620 C 0.81428 0.35257 0.95159 0.0
C1621 C 0.79387 0.3311 0.97275 0.0
C1622 C 0.79202 0.38246 0.99175 0.0
C1623 C 0.81418 0.4045 0.97129 0.0
N1624 N 0.84924 0.41222 0.93302 0.0
N1625 N 0.76557 0.32529 0.01415 0.0
C1626 C 0.82617 0.39001 0.95157 0.0
C1627 C 0.78321 0.34594 0.9931 0.0
N1628 N 0.82141 0.33684 0.93121 0.0
N1629 N 0.77946 0.39651 0.01002 0.0
H1630 H 0.7572 0.29805 0.01552 0.0
H1631 H 0.76098 0.33533 0.03112 0.0
H1632 H 0.78785 0.42374 0.01148 0.0
H1633 H 0.75927 0.38109 0.02318 0.0
H1634 H 0.83277 0.34989 0.91388 0.0
H1635 H 0.81391 0.30972 0.93097 0.0
H1636 H 0.86246 0.40452 0.9199 0.0
H1637 H 0.85666 0.43924 0.93149 0.0
C1638 C 0.64701 0.44949 0.94435 0.0
C1639 C 0.66735 0.44931 0.96592 0.0
C1640 C 0.61383 0.39873 0.98496 0.0
C1641 C 0.59347 0.39824 0.96322 0.0
N1642 N 0.59036 0.41955 0.92084 0.0
N1643 N 0.66978 0.42213 0.00663 0.0
C1644 C 0.60997 0.42272 0.9425 0.0
C1645 C 0.65092 0.42346 0.98588 0.0
N1646 N 0.66301 0.47579 0.92606 0.0
N1647 N 0.59774 0.3761 0.00544 0.0
H1648 H 0.69723 0.43917 0.00948 0.0
H1649 H 0.69723 0.43917 0.00948 0.0
H1650 H 0.57022 0.35829 0.00668 0.0
H1651 H 0.612 0.37585 0.02169 0.0
H1652 H 0.64927 0.47991 0.91114 0.0
H1653 H 0.69024 0.49502 0.92654 0.0
H1654 H 0.60109 0.43429 0.904 0.0
H1655 H 0.5633 0.40016 0.91906 0.0
C1656 C 0.47673 0.78517 0.7808 0.0
C1657 C 0.46955 0.79862 0.80375 0.0
C1658 C 0.48587 0.76156 0.83017 0.0
C1659 C 0.49411 0.74896 0.80724 0.0
N1660 N 0.5026 0.75182 0.76118 0.0
N1661 N 0.47114 0.80339 0.85034 0.0
C1662 C 0.49103 0.76166 0.78264 0.0
C1663 C 0.47555 0.78813 0.82845 0.0
N1664 N 0.46907 0.79429 0.75729 0.0
N1665 N 0.48594 0.74658 0.85353 0.0
H1666 H 0.46082 0.82073 0.85028 0.0
H1667 H 0.47969 0.80063 0.86858 0.0
H1668 H 0.49401 0.72758 0.85586 0.0
H1669 H 0.47567 0.75094 0.87049 0.0
H1670 H 0.46966 0.78238 0.73994 0.0
H1671 H 0.4602 0.81273 0.75519 0.0
H1672 H 0.50444 0.76265 0.74288 0.0
H1673 H 0.51297 0.73449 0.76203 0.0
C1674 C 0.26807 0.71616 0.81149 0.0
C1675 C 0.26917 0.7392 0.79136 0.0
C1676 C 0.2176 0.68859 0.77015 0.0
C1677 C 0.21464 0.66638 0.79136 0.0
N1678 N 0.23587 0.65812 0.83259 0.0
N1679 N 0.24469 0.7489 0.75235 0.0
C1680 C 0.23982 0.67982 0.81199 0.0
C1681 C 0.24393 0.72578 0.77082 0.0
N1682 N 0.29379 0.7292 0.83041 0.0
N1683 N 0.19559 0.67385 0.74923 0.0
H1684 H 0.26476 0.77583 0.75156 0.0
H1685 H 0.22475 0.74206 0.73852 0.0
H1686 H 0.17571 0.64686 0.74842 0.0
H1687 H 0.19841 0.68749 0.732 0.0
H1688 H 0.29767 0.71317 0.84356 0.0
H1689 H 0.31285 0.75627 0.83243 0.0
H1690 H 0.25002 0.66714 0.84984 0.0
H1691 H 0.217 0.63083 0.8332 0.0
C1692 C 0.28031 0.5316 0.81906 0.0
C1693 C 0.2617 0.53052 0.79611 0.0
C1694 C 0.31821 0.55875 0.77183 0.0
C1695 C 0.33616 0.5565 0.79418 0.0
N1696 N 0.33472 0.53911 0.83876 0.0
N1697 N 0.26132 0.54039 0.75035 0.0
C1698 C 0.31731 0.54245 0.81772 0.0
C1699 C 0.28023 0.5436 0.7724 0.0
N1700 N 0.26279 0.5235 0.84233 0.0
N1701 N 0.33761 0.5758 0.75024 0.0
H1702 H 0.23361 0.53004 0.75031 0.0
H1703 H 0.27249 0.54584 0.73192 0.0
H1704 H 0.36527 0.58619 0.74895 0.0
H1705 H 0.3269 0.58179 0.73423 0.0
H1706 H 0.2756 0.52776 0.86012 0.0
H1707 H 0.2356 0.51517 0.84415 0.0
H1708 H 0.32163 0.52477 0.85531 0.0
H1709 H 0.3623 0.5489 0.83928 0.0
C1710 C 0.40307 0.78512 0.01851 0.0
C1711 C 0.40021 0.80527 0.03923 0.0
C1712 C 0.44715 0.80097 0.06318 0.0
C1713 C 0.45161 0.78299 0.04176 0.0
N1714 N 0.43705 0.76097 0.99793 0.0
N1715 N 0.42095 0.83548 0.0801 0.0
C1716 C 0.43033 0.77573 0.01916 0.0
C1717 C 0.4227 0.81411 0.06126 0.0
N1718 N 0.3797 0.77495 0.9981 0.0
N1719 N 0.46572 0.80466 0.0855 0.0
H1720 H 0.40218 0.8441 0.0798 0.0
H1721 H 0.43915 0.84628 0.09529 0.0
H1722 H 0.48435 0.796 0.08727 0.0
H1723 H 0.46116 0.81415 0.10277 0.0
H1724 H 0.37694 0.75607 0.98436 0.0
H1725 H 0.36131 0.78371 0.99542 0.0
H1726 H 0.42592 0.75937 0.97977 0.0
H1727 H 0.45576 0.75233 0.99773 0.0
C1728 C 0.18781 0.60274 0.05693 0.0
C1729 C 0.17946 0.5841 0.03309 0.0
C1730 C 0.20083 0.64045 0.00942 0.0
C1731 C 0.20569 0.65868 0.03322 0.0
N1732 N 0.20098 0.65744 0.07967 0.0
N1733 N 0.17225 0.58378 0.98672 0.0
C1734 C 0.19846 0.6399 0.05705 0.0
C1735 C 0.18424 0.60254 0.00936 0.0
N1736 N 0.18603 0.58501 0.0793 0.0
N1737 N 0.21356 0.65944 0.98693 0.0
H1738 H 0.16047 0.55595 0.9856 0.0
H1739 H 0.17123 0.59545 0.96933 0.0
H1740 H 0.22659 0.68737 0.98607 0.0
H1741 H 0.21444 0.6478 0.9695 0.0
H1742 H 0.1952 0.59772 0.09707 0.0
H1743 H 0.17752 0.55765 0.07976 0.0
H1744 H 0.19266 0.64462 0.09748 0.0
H1745 H 0.20919 0.68472 0.0804 0.0
C1746 C 0.37828 0.56999 0.06569 0.0
C1747 C 0.39724 0.59064 0.04382 0.0
C1748 C 0.34153 0.56451 0.01884 0.0
C1749 C 0.32345 0.5405 0.03945 0.0
N1750 N 0.32391 0.51861 0.08221 0.0
N1751 N 0.39828 0.60196 0.99789 0.0
C1752 C 0.34157 0.54285 0.06293 0.0
C1753 C 0.37922 0.58665 0.01998 0.0
N1754 N 0.39531 0.57675 0.08904 0.0
N1755 N 0.3227 0.56653 0.99822 0.0
H1756 H 0.42616 0.61721 0.9974 0.0
H1757 H 0.38676 0.59646 0.97954 0.0
H1758 H 0.29493 0.55063 0.99642 0.0
H1759 H 0.33419 0.58643 0.98412 0.0
H1760 H 0.38234 0.56497 0.10631 0.0
H1761 H 0.42217 0.59642 0.09143 0.0
H1762 H 0.33643 0.51637 0.09875 0.0
H1763 H 0.2968 0.49917 0.08096 0.0
C1764 C 0.18848 0.58669 0.54881 0.0
C1765 C 0.18877 0.60405 0.52544 0.0
C1766 C 0.21312 0.57128 0.50219 0.0
C1767 C 0.20944 0.55123 0.52491 0.0
N1768 N 0.19093 0.53708 0.56934 0.0
N1769 N 0.19613 0.60935 0.47904 0.0
C1770 C 0.19644 0.55823 0.54815 0.0
C1771 C 0.19953 0.59527 0.50188 0.0
N1772 N 0.18094 0.59769 0.57156 0.0
N1773 N 0.23103 0.56862 0.48121 0.0
H1774 H 0.1874 0.62796 0.47789 0.0
H1775 H 0.19929 0.60052 0.46101 0.0
H1776 H 0.24188 0.55172 0.48061 0.0
H1777 H 0.23818 0.58563 0.46528 0.0
H1778 H 0.18369 0.58873 0.58964 0.0
H1779 H 0.17416 0.61783 0.57244 0.0
H1780 H 0.17818 0.53828 0.58609 0.0
H1781 H 0.19704 0.51646 0.56955 0.0
C1782 C 0.39944 0.61384 0.56031 0.0
C1783 C 0.3979 0.59596 0.53692 0.0
C1784 C 0.44081 0.65313 0.51674 0.0
C1785 C 0.44503 0.67054 0.54083 0.0
N1786 N 0.43122 0.66802 0.58618 0.0
N1787 N 0.41949 0.59729 0.49353 0.0
C1788 C 0.425 0.65107 0.56281 0.0
C1789 C 0.41937 0.61523 0.51535 0.0
N1790 N 0.37628 0.59526 0.57996 0.0
N1791 N 0.4559 0.673 0.49489 0.0
H1792 H 0.40263 0.5698 0.49088 0.0
H1793 H 0.43802 0.60921 0.47862 0.0
H1794 H 0.47158 0.70091 0.49494 0.0
H1795 H 0.45033 0.66226 0.47631 0.0
H1796 H 0.37322 0.60732 0.59646 0.0
H1797 H 0.35832 0.56771 0.57906 0.0
H1798 H 0.42034 0.65477 0.60353 0.0
H1799 H 0.44934 0.69535 0.58854 0.0
C1800 C 0.35056 0.80568 0.51552 0.0
C1801 C 0.33403 0.80491 0.53938 0.0
C1802 C 0.39232 0.83055 0.56134 0.0
C1803 C 0.40778 0.82733 0.53802 0.0
N1804 N 0.40032 0.80551 0.49412 0.0
N1805 N 0.3377 0.81399 0.58547 0.0
C1806 C 0.3866 0.81335 0.51538 0.0
C1807 C 0.35454 0.81683 0.56246 0.0
N1808 N 0.33189 0.79944 0.49289 0.0
N1809 N 0.41385 0.84712 0.58217 0.0
H1810 H 0.3103 0.80502 0.58676 0.0
H1811 H 0.35032 0.81853 0.60336 0.0
H1812 H 0.44146 0.85687 0.58189 0.0
H1813 H 0.40495 0.85348 0.59899 0.0
H1814 H 0.34379 0.80356 0.47473 0.0
H1815 H 0.30523 0.79341 0.49211 0.0
H1816 H 0.3849 0.79152 0.47816 0.0
H1817 H 0.42639 0.80989 0.49331 0.0
C1818 C 0.27319 0.55593 0.31469 0.0
C1819 C 0.27137 0.53135 0.29557 0.0
C1820 C 0.2149 0.52511 0.27927 0.0
C1821 C 0.21749 0.55046 0.2979 0.0
N1822 N 0.2531 0.5964 0.32916 0.0
N1823 N 0.24464 0.4975 0.25681 0.0
C1824 C 0.24804 0.56805 0.31415 0.0
C1825 C 0.24343 0.51747 0.27693 0.0
N1826 N 0.29713 0.56561 0.33463 0.0
N1827 N 0.18475 0.50771 0.26434 0.0
H1828 H 0.26544 0.49188 0.25457 0.0
H1829 H 0.22692 0.4891 0.24126 0.0
H1830 H 0.16403 0.51366 0.26502 0.0
H1831 H 0.17926 0.4861 0.25238 0.0
H1832 H 0.29659 0.57969 0.35084 0.0
H1833 H 0.3156 0.55684 0.33629 0.0
H1834 H 0.277 0.61295 0.33888 0.0
H1835 H 0.23478 0.60549 0.33023 0.0
C1836 C 0.49862 0.72257 0.31737 0.0
C1837 C 0.49455 0.74078 0.29577 0.0
C1838 C 0.46783 0.68496 0.27064 0.0
C1839 C 0.47249 0.66707 0.29214 0.0
N1840 N 0.49814 0.67004 0.33433 0.0
N1841 N 0.48148 0.74159 0.25064 0.0
C1842 C 0.49011 0.68636 0.31482 0.0
C1843 C 0.48093 0.7226 0.27201 0.0
N1844 N 0.50789 0.73888 0.34106 0.0
N1845 N 0.45024 0.6657 0.24914 0.0
H1846 H 0.49117 0.76919 0.2511 0.0
H1847 H 0.4751 0.73084 0.2321 0.0
H1848 H 0.44245 0.63868 0.24682 0.0
H1849 H 0.44191 0.67589 0.23409 0.0
H1850 H 0.50643 0.72548 0.35818 0.0
H1851 H 0.51414 0.76519 0.34437 0.0
H1852 H 0.51585 0.68413 0.34929 0.0
H1853 H 0.48927 0.6427 0.33498 0.0
C1854 C 0.27793 0.73797 0.26194 0.0
C1855 C 0.25977 0.72927 0.28599 0.0
C1856 C 0.31671 0.76261 0.30901 0.0
C1857 C 0.33455 0.77504 0.28501 0.0
N1858 N 0.33304 0.77664 0.2385 0.0
N1859 N 0.26078 0.73848 0.33217 0.0
C1860 C 0.31545 0.76317 0.26135 0.0
C1861 C 0.27886 0.74292 0.30947 0.0
N1862 N 0.2594 0.72175 0.2399 0.0
N1863 N 0.33594 0.76889 0.33138 0.0
H1864 H 0.2329 0.72455 0.33349 0.0
H1865 H 0.27328 0.75145 0.3493 0.0
H1866 H 0.3639 0.78313 0.33202 0.0
H1867 H 0.32431 0.75693 0.34897 0.0
H1868 H 0.27153 0.72426 0.22202 0.0
H1869 H 0.23185 0.70363 0.2399 0.0
H1870 H 0.32016 0.77199 0.22071 0.0
H1871 H 0.36066 0.79427 0.23752 0.0
C1872 C 0.98866 0.13811 0.26216 0.0
C1873 C 0.98225 0.16351 0.27502 0.0
C1874 C 0.98754 0.19423 0.2341 0.0
C1875 C 0.99192 0.16782 0.22079 0.0
N1876 N 0.98941 0.11035 0.22158 0.0
N1877 N 0.96579 0.20926 0.27257 0.0
C1878 C 0.99042 0.13847 0.23463 0.0
C1879 C 0.97836 0.18935 0.26065 0.0
N1880 N 0.99463 0.11467 0.27618 0.0
N1881 N 0.99406 0.22501 0.22171 0.0
H1882 H 0.95829 0.20573 0.29202 0.0
H1883 H 0.95927 0.22629 0.26262 0.0
H1884 H 0.00283 0.23063 0.20258 0.0
H1885 H 0.99461 0.24666 0.23117 0.0
H1886 H 0.00429 0.09896 0.26809 0.0
H1887 H 0.99176 0.11227 0.2962 0.0
H1888 H 0.984 0.08645 0.2305 0.0
H1889 H 0.99121 0.10959 0.20154 0.0
C1890 C 0.84369 0.81516 0.26754 0.0
C1891 C 0.82733 0.83129 0.28181 0.0
C1892 C 0.8073 0.84555 0.2413 0.0
C1893 C 0.8256 0.83141 0.22708 0.0
N1894 N 0.87187 0.81517 0.22717 0.0
N1895 N 0.80478 0.87282 0.2815 0.0
C1896 C 0.8472 0.82013 0.24038 0.0
C1897 C 0.81257 0.84992 0.26847 0.0
N1898 N 0.8542 0.79356 0.27945 0.0
N1899 N 0.7836 0.8532 0.22935 0.0
H1900 H 0.81038 0.87864 0.3011 0.0
H1901 H 0.79688 0.88926 0.27221 0.0
H1902 H 0.77804 0.8495 0.20962 0.0
H1903 H 0.76696 0.86004 0.23952 0.0
H1904 H 0.86309 0.77859 0.26922 0.0
H1905 H 0.85056 0.78754 0.29911 0.0
H1906 H 0.8902 0.8097 0.23631 0.0
H1907 H 0.87688 0.82085 0.2075 0.0
C1908 C 0.198 0.9845 0.23743 0.0
C1909 C 0.16957 0.98467 0.22372 0.0
C1910 C 0.14695 0.99583 0.26422 0.0
C1911 C 0.1777 -0.00041 0.27733 0.0
N1912 N 0.23555 0.00345 0.27563 0.0
N1913 N 0.11883 0.99431 0.22334 0.0
C1914 C 0.20405 0.99547 0.2637 0.0
C1915 C 0.14438 0.99114 0.23692 0.0
N1916 N 0.21868 0.97291 0.2254 0.0
N1917 N 0.11945 0.99527 0.27787 0.0
H1918 H 0.11466 0.98941 0.20357 0.0
H1919 H 0.10314 0.00402 0.23136 0.0
H1920 H 0.1204 -0.00029 0.29772 0.0
H1921 H 0.09448 0.98778 0.26985 0.0
H1922 H 0.23749 0.96867 0.23504 0.0
H1923 H 0.21443 0.96402 0.20626 0.0
H1924 H 0.25725 0.00439 0.26598 0.0
H1925 H 0.24144 0.01268 0.29465 0.0
C1926 C 0.03397 0.84951 0.73791 0.0
C1927 C 0.00172 0.83476 0.72348 0.0
C1928 C 0.96639 0.81225 0.7633 0.0
C1929 C -0.00143 0.82771 0.77785 0.0
N1930 N 0.06194 0.87141 0.77963 0.0
N1931 N 0.938 0.81335 0.72325 0.0
C1932 C 0.0321 0.84964 0.76535 0.0
C1933 C 0.96817 0.8199 0.73651 0.0
N1934 N 0.06616 0.86165 0.72572 0.0
N1935 N 0.93439 0.78856 0.77452 0.0
H1936 H 0.93847 0.81951 0.7037 0.0
H1937 H 0.9135 0.80552 0.73223 0.0
H1938 H 0.9319 0.78104 0.7939 0.0
H1939 H 0.91083 0.77369 0.76397 0.0
H1940 H 0.0899 0.86878 0.73561 0.0
H1941 H 0.06878 0.86202 0.70568 0.0
H1942 H 0.08628 0.89016 0.77136 0.0
H1943 H 0.06131 0.87369 0.79968 0.0
C1944 C 0.15579 0.18794 0.76354 0.0
C1945 C 0.17648 0.17467 0.77574 0.0
C1946 C 0.18967 0.15924 0.73322 0.0
C1947 C 0.1748 0.17866 0.72112 0.0
N1948 N 0.15001 0.21793 0.72595 0.0
N1949 N 0.21879 0.15354 0.77143 0.0
C1950 C 0.15956 0.19483 0.73659 0.0
C1951 C 0.19502 0.16187 0.7604 0.0
N1952 N 0.13129 0.19246 0.7774 0.0
N1953 N 0.19715 0.13692 0.7191 0.0
H1954 H 0.22459 0.1563 0.79114 0.0
H1955 H 0.23547 0.14745 0.76056 0.0
H1956 H 0.19135 0.13201 0.69947 0.0
H1957 H 0.20504 0.11995 0.72755 0.0
H1958 H 0.1136 0.19932 0.76883 0.0
H1959 H 0.12552 0.18496 0.79675 0.0
H1960 H 0.14191 0.23283 0.73709 0.0
H1961 H 0.15394 0.22528 0.70651 0.0
C1962 C 0.78625 0.9842 0.77122 0.0
C1963 C 0.81573 0.98584 0.7847 0.0
C1964 C 0.84094 0.97947 0.74376 0.0
C1965 C 0.81084 0.9768 0.73044 0.0
N1966 N 0.75028 0.96588 0.73221 0.0
N1967 N 0.86554 0.97484 0.78472 0.0
C1968 C 0.78197 0.97561 0.7445 0.0
C1969 C 0.84149 0.98049 0.77125 0.0
N1970 N 0.76327 0.99252 0.78361 0.0
N1971 N 0.8697 0.98261 0.73032 0.0
H1972 H 0.86605 0.97432 0.80483 0.0
H1973 H 0.88247 0.96711 0.77604 0.0
H1974 H 0.86985 0.98014 0.71032 0.0
H1975 H 0.89422 0.9896 0.73896 0.0
H1976 H 0.74351 0.99534 0.77406 0.0
H1977 H 0.7661 2e-05 0.80302 0.0
H1978 H 0.72713 0.96138 0.74185 0.0
H1979 H 0.74616 0.95857 0.71272 0.0
C1980 C 0.69664 0.51655 0.57253 0.0
C1981 C 0.66516 0.50087 0.55716 0.0
C1982 C 0.6279 0.48017 0.59635 0.0
C1983 C 0.65945 0.49539 0.61157 0.0
N1984 N 0.72283 0.51564 0.61368 0.0
N1985 N 0.60197 0.45681 0.55434 0.0
C1986 C 0.6935 0.50937 0.59943 0.0
C1987 C 0.63108 0.47915 0.56905 0.0
N1988 N 0.72922 0.54013 0.56202 0.0
N1989 N 0.59518 0.46839 0.60761 0.0
H1990 H 0.60366 0.45382 0.53446 0.0
H1991 H 0.57727 0.4383 0.56227 0.0
H1992 H 0.59167 0.4686 0.62752 0.0
H1993 H 0.57191 0.46089 0.59697 0.0
H1994 H 0.75219 0.55501 0.57317 0.0
H1995 H 0.73282 0.54762 0.54262 0.0
H1996 H 0.74767 0.52298 0.60542 0.0
H1997 H 0.72122 0.50955 0.63334 0.0
C1998 C 0.4785 0.17998 0.595 0.0
C1999 C 0.49228 0.1605 0.60833 0.0
C2000 C 0.5129 0.14964 0.56703 0.0
C2001 C 0.49296 0.16285 0.5536 0.0
N2002 N 0.45112 0.18489 0.55562 0.0
N2003 N 0.51778 0.12162 0.60616 0.0
C2004 C 0.47429 0.17664 0.56777 0.0
C2005 C 0.50835 0.144 0.59416 0.0
N2006 N 0.47052 0.20267 0.60817 0.0
N2007 N 0.5372 0.14372 0.55415 0.0
H2008 H 0.51383 0.11565 0.62582 0.0
H2009 H 0.52621 0.10619 0.59604 0.0
H2010 H 0.54304 0.14949 0.53458 0.0
H2011 H 0.55457 0.13712 0.56354 0.0
H2012 H 0.46337 0.21973 0.59895 0.0
H2013 H 0.47517 0.20761 0.62793 0.0
H2014 H 0.43435 0.19169 0.56566 0.0
H2015 H 0.44573 0.18126 0.53587 0.0
C2016 C 0.81064 0.33646 0.59538 0.0
C2017 C 0.84012 0.33808 0.60907 0.0
C2018 C 0.86162 0.32452 0.5692 0.0
C2019 C 0.83499 0.32722 0.55495 0.0
N2020 N 0.78481 0.33759 0.55394 0.0
N2021 N 0.89764 0.34113 0.60802 0.0
C2022 C 0.80941 0.33337 0.56789 0.0
C2023 C 0.8667 0.33414 0.59566 0.0
N2024 N 0.78326 0.3367 0.60859 0.0
N2025 N 0.88179 0.3122 0.55736 0.0
H2026 H 0.90309 0.34987 0.62716 0.0
H2027 H 0.91945 0.34205 0.59855 0.0
H2028 H 0.87796 0.30404 0.53805 0.0
H2029 H 0.89941 0.30647 0.56728 0.0
H2030 H 0.75894 0.33072 0.60012 0.0
H2031 H 0.78389 0.34095 0.62844 0.0
H2032 H 0.76896 0.34722 0.56179 0.0
H2033 H 0.78118 0.33288 0.53413 0.0
C2034 C 0.66011 0.11823 0.09842 0.0
C2035 C 0.6545 0.1439 0.11174 0.0
C2036 C 0.65342 0.17099 0.07027 0.0
C2037 C 0.66404 0.1486 0.0575 0.0
N2038 N 0.68191 0.10377 0.05963 0.0
N2039 N 0.65071 0.19823 0.11038 0.0
C2040 C 0.66859 0.12296 0.07165 0.0
C2041 C 0.65232 0.17119 0.09771 0.0
N2042 N 0.65595 0.08855 0.1112 0.0
N2043 N 0.6427 0.19087 0.0562 0.0
H2044 H 0.64892 0.1994 0.13037 0.0
H2045 H 0.65387 0.22113 0.10108 0.0
H2046 H 0.64231 0.19077 0.03608 0.0
H2047 H 0.63087 0.20456 0.0644 0.0
H2048 H 0.65634 0.06722 0.10199 0.0
H2049 H 0.64824 0.08343 0.13057 0.0
H2050 H 0.68934 0.08739 0.06951 0.0
H2051 H 0.68861 0.10674 0.04004 0.0
C2052 C 0.86172 0.49594 0.10125 0.0
C2053 C 0.84323 0.50979 0.11553 0.0
C2054 C 0.82731 0.52833 0.07504 0.0
C2055 C 0.84286 0.5114 0.06081 0.0
N2056 N 0.86436 0.46901 0.06099 0.0
N2057 N 0.79924 0.52929 0.11526 0.0
C2058 C 0.85696 0.49216 0.07408 0.0
C2059 C 0.8233 0.52316 0.10223 0.0
N2060 N 0.88498 0.48772 0.11328 0.0
N2061 N 0.81755 0.55039 0.06294 0.0
H2062 H 0.79351 0.52357 0.13485 0.0
H2063 H 0.78188 0.536 0.10597 0.0
H2064 H 0.82091 0.55572 0.04316 0.0
H2065 H 0.80943 0.56612 0.07299 0.0
H2066 H 0.90157 0.48076 0.10315 0.0
H2067 H 0.89063 0.49159 0.133 0.0
H2068 H 0.87169 0.45211 0.07027 0.0
H2069 H 0.85896 0.46342 0.04135 0.0
C2070 C 0.50479 0.36094 0.06628 0.0
C2071 C 0.48513 0.32767 0.05299 0.0
C2072 C 0.47238 0.29628 0.09437 0.0
C2073 C 0.48594 0.32952 0.10766 0.0
N2074 N 0.50953 0.39363 0.10544 0.0
N2075 N 0.44434 0.26363 0.05524 0.0
C2076 C 0.50072 0.36199 0.09343 0.0
C2077 C 0.4673 0.29523 0.06724 0.0
N2078 N 0.52865 0.39127 0.05329 0.0
N2079 N 0.46574 0.2659 0.1074 0.0
H2080 H 0.43845 0.2618 0.03556 0.0
H2081 H 0.42824 0.23996 0.06539 0.0
H2082 H 0.47151 0.26588 0.12699 0.0
H2083 H 0.45868 0.24177 0.0981 0.0
H2084 H 0.54572 0.41538 0.06262 0.0
H2085 H 0.53457 0.3913 0.03373 0.0
H2086 H 0.51711 0.4173 0.0953 0.0
H2087 H 0.50574 0.39553 0.12515 0.0
C2088 C 0.30092 0.81442 0.89938 0.0
C2089 C 0.33511 0.83473 0.88737 0.0
C2090 C 0.36336 0.84275 0.92965 0.0
C2091 C 0.32948 0.82981 0.94186 0.0
N2092 N 0.2657 0.80708 0.93766 0.0
N2093 N 0.39936 0.87257 0.89209 0.0
C2094 C 0.29803 0.81635 0.92659 0.0
C2095 C 0.36659 0.84992 0.90272 0.0
N2096 N 0.27138 0.79233 0.88494 0.0
N2097 N 0.39222 0.84711 0.94361 0.0
H2098 H 0.40297 0.87976 0.87263 0.0
H2099 H 0.42247 0.887 0.9032 0.0
H2100 H 0.3902 0.83971 0.96301 0.0
H2101 H 0.4168 0.85382 0.93518 0.0
H2102 H 0.2465 0.77482 0.89313 0.0
H2103 H 0.27273 0.78829 0.86518 0.0
H2104 H 0.24284 0.80068 0.92682 0.0
H2105 H 0.26237 0.80901 0.95743 0.0
C2106 C 0.11833 0.46151 0.89899 0.0
C2107 C 0.14728 0.49104 0.88637 0.0
C2108 C 0.17667 0.51416 0.92824 0.0
C2109 C 0.14965 0.48245 0.94043 0.0
N2110 N 0.09807 0.42311 0.93676 0.0
N2111 N 0.2068 0.54291 0.88835 0.0
C2112 C 0.12131 0.45535 0.92561 0.0
C2113 C 0.17717 0.51682 0.90081 0.0
N2114 N 0.08761 0.43975 0.88555 0.0
N2115 N 0.20107 0.54237 0.94282 0.0
H2116 H 0.20815 0.54648 0.86837 0.0
H2117 H 0.23106 0.55943 0.89766 0.0
H2118 H 0.2022 0.54166 0.96291 0.0
H2119 H 0.2184 0.56763 0.93512 0.0
H2120 H 0.06423 0.41985 0.89421 0.0
H2121 H 0.08436 0.44397 0.8661 0.0
H2122 H 0.07911 0.40101 0.92635 0.0
H2123 H 0.10006 0.41723 0.95606 0.0
C2124 C 0.47275 0.6626 0.93844 0.0
C2125 C 0.49909 0.65825 0.95209 0.0
C2126 C 0.51409 0.63797 0.91221 0.0
C2127 C 0.49209 0.64756 0.898 0.0
N2128 N 0.45207 0.67154 0.89693 0.0
N2129 N 0.54979 0.64854 0.95067 0.0
C2130 C 0.47152 0.66024 0.91093 0.0
C2131 C 0.52099 0.64754 0.93863 0.0
N2132 N 0.44821 0.66784 0.9516 0.0
N2133 N 0.52866 0.61993 0.9002 0.0
H2134 H 0.55731 0.65767 0.96958 0.0
H2135 H 0.56851 0.64413 0.94106 0.0
H2136 H 0.52361 0.61234 0.88079 0.0
H2137 H 0.54243 0.60936 0.91004 0.0
H2138 H 0.42598 0.66694 0.94282 0.0
H2139 H 0.44828 0.67038 0.97162 0.0
H2140 H 0.44051 0.68557 0.90496 0.0
H2141 H 0.44906 0.6685 0.87693 0.0
C2142 C 0.33718 0.46395 0.4282 0.0
C2143 C 0.33721 0.49256 0.44183 0.0
C2144 C 0.34805 0.52623 0.40131 0.0
C2145 C 0.34924 0.49803 0.38781 0.0
N2146 N 0.35459 0.44495 0.38936 0.0
N2147 N 0.35096 0.55428 0.44256 0.0
C2148 C 0.34682 0.4684 0.40163 0.0
C2149 C 0.34503 0.52469 0.42874 0.0
N2150 N 0.32654 0.43196 0.44038 0.0
N2151 N 0.34821 0.55374 0.38802 0.0
H2152 H 0.34873 0.55435 0.46262 0.0
H2153 H 0.36105 0.57965 0.43437 0.0
H2154 H 0.35263 0.55741 0.36823 0.0
H2155 H 0.34209 0.57202 0.39647 0.0
H2156 H 0.32235 0.40892 0.43076 0.0
H2157 H 0.31863 0.42745 0.45973 0.0
H2158 H 0.35661 0.42471 0.3989 0.0
H2159 H 0.36278 0.44817 0.37007 0.0
C2160 C 0.49346 0.80176 0.43112 0.0
C2161 C 0.48856 0.82732 0.44511 0.0
C2162 C 0.47659 0.84955 0.40473 0.0
C2163 C 0.48279 0.82492 0.39084 0.0
N2164 N 0.48116 0.76837 0.39109 0.0
N2165 N 0.46109 0.8646 0.44595 0.0
C2166 C 0.48603 0.79794 0.4042 0.0
C2167 C 0.4753 0.8476 0.43211 0.0
N2168 N 0.50706 0.7827 0.4429 0.0
N2169 N 0.47385 0.87593 0.39204 0.0
H2170 H 0.45844 0.86266 0.46601 0.0
H2171 H 0.44838 0.87721 0.43737 0.0
H2172 H 0.47391 0.87773 0.37193 0.0
H2173 H 0.47372 0.89723 0.40152 0.0
H2174 H 0.51457 0.7666 0.43271 0.0
H2175 H 0.51339 0.78497 0.46249 0.0
H2176 H 0.48081 0.74648 0.40002 0.0
H2177 H 0.47262 0.7641 0.37188 0.0
C2178 C 0.14414 0.69255 0.39626 0.0
C2179 C 0.16665 0.68225 0.38321 0.0
C2180 C 0.19869 0.68769 0.42382 0.0
C2181 C 0.17615 0.69809 0.4366 0.0
N2182 N 0.13557 0.72099 0.43394 0.0
N2183 N 0.22114 0.67889 0.38312 0.0
C2184 C 0.15174 0.70424 0.42231 0.0
C2185 C 0.19573 0.6825 0.39654 0.0
N2186 N 0.11413 0.68899 0.38437 0.0
N2187 N 0.22171 0.68113 0.43784 0.0
H2188 H 0.22005 0.67487 0.36321 0.0
H2189 H 0.24495 0.68292 0.39137 0.0
H2190 H 0.22634 0.68687 0.4575 0.0
H2191 H 0.23503 0.66856 0.43024 0.0
H2192 H 0.09494 0.69282 0.39384 0.0
H2193 H 0.10636 0.6787 0.36575 0.0
H2194 H 0.11994 0.7293 0.424 0.0
H2195 H 0.14106 0.72989 0.45307 0.0
C2196 C 0.09235 0.35506 0.09617 0.0
C2197 C 0.09245 0.35888 0.06893 0.0
C2198 C 0.05696 0.29344 0.06389 0.0
C2199 C 0.05795 0.28958 0.09105 0.0
N2200 N 0.08132 0.31561 0.13283 0.0
N2201 N 0.08087 0.33243 0.02645 0.0
C2202 C 0.07716 0.32011 0.10713 0.0
C2203 C 0.07654 0.32823 0.05265 0.0
N2204 N 0.10565 0.38484 0.11158 0.0
N2205 N 0.03643 0.26391 0.04895 0.0
H2206 H 0.09487 0.35751 0.01756 0.0
H2207 H 0.0732 0.3112 0.01361 0.0
H2208 H 0.02269 0.23792 0.05643 0.0
H2209 H 0.0311 0.26523 0.02947 0.0
H2210 H 0.10263 0.3838 0.13158 0.0
H2211 H 0.11779 0.41089 0.10421 0.0
H2212 H 0.09819 0.33648 0.14508 0.0
H2213 H 0.07002 0.29046 0.14162 0.0
C2214 C 0.62876 0.72018 0.10646 0.0
C2215 C 0.62444 0.71562 0.07929 0.0
C2216 C 0.68969 0.74351 0.07388 0.0
C2217 C 0.69413 0.75037 0.10083 0.0
N2218 N 0.66886 0.75017 0.14248 0.0
N2219 N 0.65037 0.72739 0.03659 0.0
C2220 C 0.66391 0.74008 0.11705 0.0
C2221 C 0.65481 0.72851 0.06282 0.0
N2222 N 0.59925 0.70459 0.12216 0.0
N2223 N 0.71875 0.75056 0.05898 0.0
H2224 H 0.62526 0.71637 0.02778 0.0
H2225 H 0.67155 0.73984 0.02357 0.0
H2226 H 0.74477 0.76227 0.06635 0.0
H2227 H 0.71686 0.7425 0.0398 0.0
H2228 H 0.60064 0.70339 0.14219 0.0
H2229 H 0.57309 0.69036 0.11504 0.0
H2230 H 0.64823 0.74708 0.15464 0.0
H2231 H 0.69414 0.76424 0.15105 0.0
C2232 C 0.24536 0.91257 0.10878 0.0
C2233 C 0.22905 0.92731 0.09288 0.0
C2234 C 0.24605 0.90642 0.05411 0.0
C2235 C 0.26535 0.89487 0.0699 0.0
N2236 N 0.28677 0.88984 0.11184 0.0
N2237 N 0.2164 0.9417 0.05059 0.0
C2238 C 0.26586 0.89865 0.09715 0.0
C2239 C 0.22994 0.92504 0.06557 0.0
N2240 N 0.2405 0.91116 0.13498 0.0
N2241 N 0.24251 0.89889 0.02824 0.0
H2242 H 0.20356 0.95473 0.05831 0.0
H2243 H 0.2199 0.94474 0.03065 0.0
H2244 H 0.25446 0.88589 0.0191 0.0
H2245 H 0.2256 0.90302 0.01611 0.0
H2246 H 0.24843 0.89743 0.14747 0.0
H2247 H 0.22586 0.9213 0.14416 0.0
H2248 H 0.29165 0.89575 0.13144 0.0
H2249 H 0.30141 0.87874 0.10404 0.0
C2250 C 0.33201 0.0832 0.38748 0.0
C2251 C 0.30196 0.06906 0.40433 0.0
C2252 C 0.34211 0.09317 0.44181 0.0
C2253 C 0.37205 0.10428 0.42513 0.0
N2254 N 0.39618 0.10736 0.38259 0.0
N2255 N 0.27752 0.05735 0.44743 0.0
C2256 C 0.36719 0.0987 0.39807 0.0
C2257 C 0.30676 0.07333 0.43149 0.0
N2258 N 0.32687 0.08251 0.36134 0.0
N2259 N 0.34754 0.10207 0.46745 0.0
H2260 H 0.25123 0.04345 0.44052 0.0
H2261 H 0.27918 0.05579 0.46741 0.0
H2262 H 0.37298 0.11568 0.47583 0.0
H2263 H 0.32717 0.09833 0.48012 0.0
H2264 H 0.34761 0.0957 0.34808 0.0
H2265 H 0.30149 0.07103 0.35289 0.0
H2266 H 0.39417 0.10017 0.3632 0.0
H2267 H 0.42244 0.11988 0.38956 0.0
C2268 C 0.94782 0.30286 0.41702 0.0
C2269 C 0.91201 0.28323 0.42631 0.0
C2270 C 0.90803 0.22973 0.40657 0.0
C2271 C 0.94574 0.24779 0.40257 0.0
N2272 N 0.0023 0.30033 0.41388 0.0
N2273 N 0.86364 0.22379 0.43747 0.0
C2274 C 0.96605 0.28407 0.41079 0.0
C2275 C 0.89353 0.24532 0.42334 0.0
N2276 N 0.96411 0.33894 0.41296 0.0
N2277 N 0.88562 0.19914 0.39344 0.0
H2278 H 0.85483 0.2337 0.45245 0.0
H2279 H 0.85084 0.19585 0.43637 0.0
H2280 H 0.89462 0.18943 0.37845 0.0
H2281 H 0.85777 0.18659 0.39529 0.0
H2282 H 0.98973 0.35344 0.40494 0.0
H2283 H 0.95035 0.35309 0.41463 0.0
H2284 H 0.01735 0.32636 0.42113 0.0
H2285 H 0.01619 0.28632 0.41224 0.0
C2286 C 0.76291 0.7037 0.43821 0.0
C2287 C 0.76659 0.70786 0.411 0.0
C2288 C 0.73219 0.64247 0.40537 0.0
C2289 C 0.7301 0.63825 0.43262 0.0
N2290 N 0.74822 0.66397 0.47516 0.0
N2291 N 0.76038 0.68192 0.36869 0.0
C2292 C 0.74686 0.66865 0.44911 0.0
C2293 C 0.75292 0.6774 0.39457 0.0
N2294 N 0.77383 0.73324 0.45357 0.0
N2295 N 0.71343 0.61314 0.38985 0.0
H2296 H 0.77514 0.70711 0.36007 0.0
H2297 H 0.75453 0.66086 0.35606 0.0
H2298 H 0.69847 0.5871 0.39707 0.0
H2299 H 0.71047 0.61474 0.37 0.0
H2300 H 0.76813 0.73186 0.47323 0.0
H2301 H 0.78669 0.75937 0.44631 0.0
H2302 H 0.76332 0.68485 0.48794 0.0
H2303 H 0.73642 0.63873 0.48387 0.0
C2304 C 0.93322 0.69251 0.93227 0.0
C2305 C 0.93558 0.69558 0.90495 0.0
C2306 C 0.90304 0.62993 0.90076 0.0
C2307 C 0.89949 0.6269 0.92804 0.0
N2308 N 0.9052 0.65446 0.96964 0.0
N2309 N 0.91755 0.66812 0.86291 0.0
C2310 C 0.91274 0.658 0.94376 0.0
C2311 C 0.91892 0.66451 0.88909 0.0
N2312 N 0.95162 0.72251 0.94723 0.0
N2313 N 0.89218 0.59979 0.8861 0.0
H2314 H 0.92911 0.69301 0.8537 0.0
H2315 H 0.9026 0.64671 0.85049 0.0
H2316 H 0.87935 0.57397 0.89391 0.0
H2317 H 0.89782 0.60036 0.86648 0.0
H2318 H 0.95446 0.72179 0.96717 0.0
H2319 H 0.96635 0.74829 0.93951 0.0
H2320 H 0.91075 0.67596 0.98174 0.0
H2321 H 0.89063 0.62961 0.97874 0.0
C2322 C 0.30297 0.23092 0.93115 0.0
C2323 C 0.29774 0.22674 0.90404 0.0
C2324 C 0.36286 0.25897 0.897 0.0
C2325 C 0.36808 0.26228 0.92414 0.0
N2326 N 0.34411 0.24637 0.9673 0.0
N2327 N 0.3216 0.23095 0.8612 0.0
C2328 C 0.33838 0.24667 0.94131 0.0
C2329 C 0.3274 0.23895 0.88696 0.0
N2330 N 0.27412 0.22082 0.94709 0.0
N2331 N 0.39177 0.276 0.88085 0.0
H2332 H 0.29601 0.21697 0.85309 0.0
H2333 H 0.34186 0.23567 0.84811 0.0
H2334 H 0.41818 0.28994 0.88753 0.0
H2335 H 0.38969 0.27831 0.86098 0.0
H2336 H 0.2763 0.22696 0.96671 0.0
H2337 H 0.24772 0.20806 0.94039 0.0
H2338 H 0.32373 0.23219 0.98065 0.0
H2339 H 0.36968 0.25809 0.97545 0.0
C2340 C 0.74847 0.08345 0.94741 0.0
C2341 C 0.73109 0.09555 0.93013 0.0
C2342 C 0.75139 0.07464 0.89312 0.0
C2343 C 0.76626 0.06 0.91049 0.0
N2344 N 0.77638 0.04696 0.95394 0.0
N2345 N 0.71257 0.10001 0.88701 0.0
C2346 C 0.7642 0.06354 0.9376 0.0
C2347 C 0.73168 0.09049 0.90308 0.0
N2348 N 0.75036 0.09148 0.97315 0.0
N2349 N 0.75667 0.07389 0.8671 0.0
H2350 H 0.69884 0.11277 0.89355 0.0
H2351 H 0.70832 0.09333 0.8675 0.0
H2352 H 0.77007 0.06164 0.85905 0.0
H2353 H 0.75006 0.0875 0.85352 0.0
H2354 H 0.76599 0.08707 0.98636 0.0
H2355 H 0.73815 0.10493 0.9812 0.0
H2356 H 0.77201 0.04484 0.97381 0.0
H2357 H 0.78905 0.03313 0.94744 0.0
C2358 C 0.64669 0.88724 0.57879 0.0
C2359 C 0.62884 0.90683 0.57359 0.0
C2360 C 0.682 0.96049 0.58939 0.0
C2361 C 0.69634 0.93961 0.5995 0.0
N2362 N 0.68246 0.87938 0.61108 0.0
N2363 N 0.62644 0.96044 0.58431 0.0
C2364 C 0.67586 0.90175 0.59641 0.0
C2365 C 0.64545 0.94303 0.58206 0.0
N2366 N 0.63769 0.85613 0.56608 0.0
N2367 N 0.70314 0.99648 0.58555 0.0
H2368 H 0.59867 0.94733 0.58183 0.0
H2369 H 0.63786 0.98645 0.59169 0.0
H2370 H 0.73091 0.00968 0.58798 0.0
H2371 H 0.69334 0.01184 0.57696 0.0
H2372 H 0.65179 0.84246 0.56875 0.0
H2373 H 0.6196 0.8469 0.55071 0.0
H2374 H 0.6665 0.85151 0.60993 0.0
H2375 H 0.7005 0.88866 0.62648 0.0
C2376 C 0.09659 0.78401 0.58973 0.0
C2377 C 0.05867 0.76542 0.59261 0.0
C2378 C 0.05778 0.71226 0.5752 0.0
C2379 C 0.09407 0.73289 0.56713 0.0
N2380 N 0.14276 0.79345 0.55929 0.0
N2381 N 0.00312 0.71444 0.57765 0.0
C2382 C 0.11218 0.77039 0.57217 0.0
C2383 C 0.03906 0.73026 0.58215 0.0
N2384 N 0.11808 0.81315 0.60453 0.0
N2385 N 0.04144 0.6759 0.57751 0.0
H2386 H 0.98911 0.72828 0.57976 0.0
H2387 H 0.98873 0.6893 0.56888 0.0
H2388 H 0.05546 0.66206 0.57546 0.0
H2389 H 0.01532 0.66061 0.58457 0.0
H2390 H 0.14602 0.826 0.60341 0.0
H2391 H 0.10814 0.82109 0.62001 0.0
H2392 H 0.15535 0.82119 0.56194 0.0
H2393 H 0.15239 0.78524 0.54378 0.0
C2394 C 0.23755 0.33146 0.60823 0.0
C2395 C 0.22508 0.30096 0.59194 0.0
C2396 C 0.24439 0.34 0.55366 0.0
C2397 C 0.2601 0.37055 0.57005 0.0
N2398 N 0.27429 0.39618 0.61276 0.0
N2399 N 0.21854 0.27546 0.54948 0.0
C2400 C 0.2572 0.3665 0.59732 0.0
C2401 C 0.22885 0.30503 0.56471 0.0
N2402 N 0.23015 0.32683 0.63412 0.0
N2403 N 0.24388 0.34451 0.52751 0.0
H2404 H 0.20589 0.24938 0.55682 0.0
H2405 H 0.22434 0.27672 0.52985 0.0
H2406 H 0.25554 0.3697 0.51874 0.0
H2407 H 0.22964 0.32352 0.51461 0.0
H2408 H 0.23502 0.34765 0.64671 0.0
H2409 H 0.21658 0.30162 0.64286 0.0
H2410 H 0.27696 0.39507 0.63268 0.0
H2411 H 0.28787 0.42227 0.60544 0.0
C2412 C 0.03051 0.44267 0.73085 0.0
C2413 C 0.03814 0.42447 0.75069 0.0
C2414 C 0.97641 0.37622 0.75013 0.0
C2415 C 0.96664 0.39514 0.7326 0.0
N2416 N 0.9862 0.444 0.70208 0.0
N2417 N 0.02365 0.36301 0.75199 0.0
C2418 C 0.99425 0.42794 0.72169 0.0
C2419 C 0.01292 0.38777 0.75361 0.0
N2420 N 0.0585 0.47068 0.71842 0.0
N2421 N 0.95128 0.3461 0.76251 0.0
H2422 H 0.04996 0.37062 0.74679 0.0
H2423 H 0.00538 0.33546 0.75183 0.0
H2424 H 0.92385 0.33705 0.76133 0.0
H2425 H 0.95867 0.33235 0.77553 0.0
H2426 H 0.05591 0.485 0.70321 0.0
H2427 H 0.08504 0.47751 0.72198 0.0
H2428 H 0.00365 0.46961 0.69511 0.0
H2429 H 0.96157 0.43158 0.69258 0.0
C2430 C 0.62739 0.60772 0.75285 0.0
C2431 C 0.6062 0.57284 0.74225 0.0
C2432 C 0.55406 0.57063 0.76297 0.0
C2433 C 0.57395 0.608 0.76838 0.0
N2434 N 0.62845 0.6637 0.75873 0.0
N2435 N 0.54582 0.52713 0.73048 0.0
C2436 C 0.61037 0.6272 0.76038 0.0
C2437 C 0.56837 0.55585 0.74528 0.0
N2438 N 0.66325 0.62186 0.75693 0.0
N2439 N 0.52283 0.54865 0.77559 0.0
H2440 H 0.55497 0.51827 0.71505 0.0
H2441 H 0.51798 0.51553 0.73158 0.0
H2442 H 0.51362 0.55757 0.79096 0.0
H2443 H 0.50893 0.52091 0.77281 0.0
H2444 H 0.67882 0.64669 0.76589 0.0
H2445 H 0.67604 0.60693 0.75428 0.0
H2446 H 0.65463 0.67807 0.75165 0.0
H2447 H 0.61579 0.67877 0.76137 0.0
C2448 C 0.41162 0.99593 0.77532 0.0
C2449 C 0.39588 0.96513 0.75915 0.0
C2450 C 0.41427 0.00375 0.72072 0.0
C2451 C 0.42681 0.03436 0.73692 0.0
N2452 N 0.43392 0.05987 0.77944 0.0
N2453 N 0.37831 0.93895 0.71675 0.0
C2454 C 0.4246 0.03054 0.7642 0.0
C2455 C 0.39621 0.96883 0.7319 0.0
N2456 N 0.41488 0.99209 0.80126 0.0
N2457 N 0.42047 0.00814 0.69468 0.0
H2458 H 0.36557 0.91294 0.72423 0.0
H2459 H 0.37392 0.93989 0.69705 0.0
H2460 H 0.4333 0.03325 0.68576 0.0
H2461 H 0.41554 0.98723 0.68215 0.0
H2462 H 0.42944 0.01358 0.81372 0.0
H2463 H 0.40549 0.96718 0.81011 0.0
H2464 H 0.42914 0.05838 0.79925 0.0
H2465 H 0.44413 0.08571 0.77198 0.0
C2466 C 0.59669 0.02759 0.27069 0.0
C2467 C 0.60216 0.03071 0.24356 0.0
C2468 C 0.57747 0.96567 0.24009 0.0
C2469 C 0.56985 0.96228 0.26694 0.0
N2470 N 0.56635 0.98866 0.30718 0.0
N2471 N 0.59181 0.00263 0.20166 0.0
C2472 C 0.57775 0.99288 0.28208 0.0
C2473 C 0.5908 -0.00031 0.22801 0.0
N2474 N 0.6106 0.05781 0.28565 0.0
N2475 N 0.57296 0.93659 0.2263 0.0
H2476 H 0.60123 0.02707 0.19211 0.0
H2477 H 0.58044 0.98063 0.18927 0.0
H2478 H 0.56274 0.91112 0.23443 0.0
H2479 H 0.58186 0.93819 0.20737 0.0
H2480 H 0.61114 0.05738 0.30576 0.0
H2481 H 0.62409 0.08367 0.27793 0.0
H2482 H 0.56782 0.00944 0.3184 0.0
H2483 H 0.55264 0.96369 0.31624 0.0
C2484 C 0.96582 0.56541 0.27101 0.0
C2485 C 0.95946 0.55872 0.24413 0.0
C2486 C 0.02436 0.58941 0.2359 0.0
C2487 C 0.03067 0.59513 0.26285 0.0
N2488 N 0.00833 0.58418 0.30656 0.0
N2489 N 0.98161 0.55931 0.20121 0.0
C2490 C 0.00162 0.58174 0.28058 0.0
C2491 C 0.98846 0.56913 0.22664 0.0
N2492 N 0.93764 0.55706 0.28726 0.0
N2493 N 0.05272 0.60442 0.21912 0.0
H2494 H 0.95577 0.54556 0.19353 0.0
H2495 H 0.00122 0.56249 0.188 0.0
H2496 H 0.07938 0.61841 0.22525 0.0
H2497 H 0.05002 0.60504 0.19917 0.0
H2498 H 0.94059 0.56502 0.30653 0.0
H2499 H 0.91099 0.54381 0.28108 0.0
H2500 H 0.98847 0.57166 0.32054 0.0
H2501 H 0.0342 0.59668 0.31425 0.0
C2502 C 0.42519 0.39516 0.26251 0.0
C2503 C 0.42436 0.38983 0.23542 0.0
C2504 C 0.38738 0.41811 0.22977 0.0
C2505 C 0.39012 0.42543 0.25665 0.0
N2506 N 0.41608 0.42632 0.29818 0.0
N2507 N 0.41015 0.40126 0.19262 0.0
C2508 C 0.41035 0.41552 0.27291 0.0
C2509 C 0.40698 0.40274 0.21884 0.0
N2510 N 0.43917 0.37976 0.27836 0.0
N2511 N 0.36535 0.4251 0.21484 0.0
H2512 H 0.42431 0.39022 0.18393 0.0
H2513 H 0.40136 0.41354 0.1795 0.0
H2514 H 0.35124 0.43707 0.22215 0.0
H2515 H 0.35897 0.41675 0.19573 0.0
H2516 H 0.43684 0.37903 0.29841 0.0
H2517 H 0.45093 0.36529 0.2714 0.0
H2518 H 0.4339 0.42353 0.31025 0.0
H2519 H 0.40514 0.44068 0.30669 0.0
C2520 C 0.8463 0.19079 0.15113 0.0
C2521 C 0.85771 0.16556 0.15532 0.0
C2522 C 0.81023 0.13373 0.18735 0.0
C2523 C 0.79952 0.15963 0.18386 0.0
N2524 N 0.80926 0.21539 0.16527 0.0
N2525 N 0.85622 0.11775 0.18085 0.0
C2526 C 0.8183 0.18911 0.16669 0.0
C2527 C 0.8413 0.13833 0.17442 0.0
N2528 N 0.86141 0.21544 0.13166 0.0
N2529 N 0.79021 0.10435 0.20258 0.0
H2530 H 0.87913 0.1203 0.17193 0.0
H2531 H 0.84781 0.10017 0.1965 0.0
H2532 H 0.76824 0.10103 0.21332 0.0
H2533 H 0.79397 0.08227 0.20338 0.0
H2534 H 0.85178 0.23213 0.12558 0.0
H2535 H 0.88246 0.21771 0.12027 0.0
H2536 H 0.82429 0.23944 0.15536 0.0
H2537 H 0.78785 0.21439 0.1754 0.0
C2538 C 0.81674 0.63402 0.17632 0.0
C2539 C 0.82953 0.63367 0.20155 0.0
C2540 C 0.83168 0.69014 0.21138 0.0
C2541 C 0.82511 0.69345 0.18487 0.0
N2542 N 0.81672 0.67078 0.14109 0.0
N2543 N 0.85208 0.66238 0.24273 0.0
C2544 C 0.81877 0.6659 0.16703 0.0
C2545 C 0.83761 0.66189 0.21911 0.0
N2546 N 0.80173 0.60362 0.16149 0.0
N2547 N 0.83102 0.71322 0.22926 0.0
H2548 H 0.8565 0.64189 0.24908 0.0
H2549 H 0.86223 0.68436 0.25516 0.0
H2550 H 0.8252 0.73332 0.22446 0.0
H2551 H 0.83247 0.71009 0.24911 0.0
H2552 H 0.78888 0.60158 0.14397 0.0
H2553 H 0.79857 0.57922 0.16794 0.0
H2554 H 0.81602 0.6529 0.12719 0.0
H2555 H 0.81921 0.69418 0.13316 0.0
C2556 C 0.36441 0.17137 0.15687 0.0
C2557 C 0.35443 0.18801 0.17636 0.0
C2558 C 0.291 0.14517 0.16892 0.0
C2559 C 0.30117 0.12679 0.15097 0.0
N2560 N 0.34673 0.11903 0.12989 0.0
N2561 N 0.30954 0.18984 0.20299 0.0
C2562 C 0.33767 0.13893 0.14551 0.0
C2563 C 0.31804 0.17476 0.1829 0.0
N2564 N 0.39925 0.1873 0.14858 0.0
N2565 N 0.2555 0.13443 0.17241 0.0
H2566 H 0.32881 0.21198 0.21328 0.0
H2567 H 0.28387 0.17915 0.2107 0.0
H2568 H 0.23473 0.11195 0.1634 0.0
H2569 H 0.24645 0.14896 0.18294 0.0
H2570 H 0.40744 0.17872 0.13248 0.0
H2571 H 0.41981 0.21099 0.1565 0.0
H2572 H 0.37291 0.12413 0.12757 0.0
H2573 H 0.3277 0.09579 0.12049 0.0
C2574 C 0.17785 0.86245 0.30712 0.0
C2575 C 0.17156 0.86848 0.33308 0.0
C2576 C 0.16524 0.81097 0.34624 0.0
C2577 C 0.16925 0.80397 0.31997 0.0
N2578 N 0.17476 0.82003 0.27488 0.0
N2579 N 0.15444 0.84733 0.37679 0.0
C2580 C 0.17403 0.82877 0.30021 0.0
C2581 C 0.16414 0.84253 0.35257 0.0
N2582 N 0.18892 0.88954 0.28935 0.0
N2583 N 0.16258 0.78745 0.36511 0.0
H2584 H 0.15376 0.87032 0.38223 0.0
H2585 H 0.14467 0.82763 0.39106 0.0
H2586 H 0.16052 0.76272 0.36114 0.0
H2587 H 0.16415 0.79304 0.3848 0.0
H2588 H 0.19747 0.88825 0.27077 0.0
H2589 H 0.19256 0.9148 0.29384 0.0
H2590 H 0.17422 0.8352 0.2594 0.0
H2591 H 0.17328 0.79607 0.26918 0.0
C2592 C 0.18264 0.33202 0.30702 0.0
C2593 C 0.19697 0.36793 0.31525 0.0
C2594 C 0.14602 0.35062 0.34441 0.0
C2595 C 0.13325 0.31436 0.3377 0.0
N2596 N 0.14096 0.26921 0.31554 0.0
N2597 N 0.19525 0.41202 0.34323 0.0
C2598 C 0.15194 0.30464 0.31975 0.0
C2599 C 0.17944 0.37747 0.33433 0.0
N2600 N 0.19801 0.32429 0.28672 0.0
N2601 N 0.12574 0.35934 0.35991 0.0
H2602 H 0.21908 0.43281 0.33566 0.0
H2603 H 0.18604 0.41984 0.35916 0.0
H2604 H 0.10158 0.3401 0.36819 0.0
H2605 H 0.13147 0.38554 0.36324 0.0
H2606 H 0.18669 0.29919 0.27795 0.0
H2607 H 0.22083 0.34385 0.27719 0.0
H2608 H 0.15565 0.26043 0.30491 0.0
H2609 H 0.11838 0.24826 0.32432 0.0
C2610 C 0.66013 0.81105 0.36733 0.0
C2611 C 0.69653 0.83841 0.3663 0.0
C2612 C 0.68111 0.8763 0.34015 0.0
C2613 C 0.64482 0.84867 0.34091 0.0
N2614 N 0.59801 0.79388 0.35986 0.0
N2615 N 0.74163 0.89954 0.35635 0.0
C2616 C 0.63376 0.8173 0.35602 0.0
C2617 C 0.70697 0.872 0.35434 0.0
N2618 N 0.65102 0.77875 0.37844 0.0
N2619 N 0.6909 0.90586 0.32501 0.0
H2620 H 0.76165 0.89716 0.3659 0.0
H2621 H 0.7502 0.92565 0.35027 0.0
H2622 H 0.67231 0.91017 0.31503 0.0
H2623 H 0.71737 0.92519 0.32112 0.0
H2624 H 0.6257 0.75605 0.37691 0.0
H2625 H 0.66949 0.77416 0.38832 0.0
H2626 H 0.58813 0.77234 0.37265 0.0
H2627 H 0.57794 0.79771 0.35185 0.0
C2628 C 0.18002 0.80337 0.83706 0.0
C2629 C 0.19687 0.8299 0.81749 0.0
C2630 C 0.1533 0.84996 0.82369 0.0
C2631 C 0.13661 0.82357 0.84336 0.0
N2632 N 0.12978 0.77204 0.86656 0.0
N2633 N 0.20307 0.88077 0.79371 0.0
C2634 C 0.14877 0.79938 0.84945 0.0
C2635 C 0.18441 0.8538 0.81116 0.0
N2636 N 0.19509 0.78334 0.84468 0.0
N2637 N 0.13831 0.87014 0.81625 0.0
H2638 H 0.22507 0.88331 0.78342 0.0
H2639 H 0.19818 0.90176 0.79025 0.0
H2640 H 0.11576 0.86847 0.82514 0.0
H2641 H 0.14655 0.88703 0.80025 0.0
H2642 H 0.1868 0.76658 0.86077 0.0
H2643 H 0.21774 0.78507 0.83595 0.0
H2644 H 0.13452 0.75089 0.86975 0.0
H2645 H 0.10749 0.76919 0.87663 0.0
C2646 C 0.16466 0.31894 0.86052 0.0
C2647 C 0.17225 0.30379 0.83877 0.0
C2648 C 0.18089 0.35413 0.81171 0.0
C2649 C 0.16988 0.3674 0.83278 0.0
N2650 N 0.14691 0.36093 0.87618 0.0
N2651 N 0.18478 0.30445 0.79321 0.0
C2652 C 0.16084 0.34958 0.85701 0.0
C2653 C 0.1795 0.32063 0.8142 0.0
N2654 N 0.1609 0.30392 0.88446 0.0
N2655 N 0.19422 0.37433 0.78977 0.0
H2656 H 0.18656 0.28119 0.79453 0.0
H2657 H 0.18548 0.31293 0.77426 0.0
H2658 H 0.19596 0.39922 0.78728 0.0
H2659 H 0.20634 0.36799 0.77486 0.0
H2660 H 0.15941 0.31599 0.90149 0.0
H2661 H 0.16176 0.28042 0.88763 0.0
H2662 H 0.13614 0.34686 0.89328 0.0
H2663 H 0.14333 0.38308 0.8742 0.0
C2664 C 0.66519 0.84465 0.87847 0.0
C2665 C 0.70137 0.85331 0.87584 0.0
C2666 C 0.68354 0.80075 0.84819 0.0
C2667 C 0.64754 0.79288 0.8502 0.0
N2668 N 0.60239 0.80071 0.8721 0.0
N2669 N 0.74506 0.83662 0.86291 0.0
C2670 C 0.63781 0.81278 0.86692 0.0
C2671 C 0.71053 0.83014 0.86241 0.0
N2672 N 0.65724 0.86758 0.89133 0.0
N2673 N 0.692 0.78123 0.8317 0.0
H2674 H 0.76592 0.8586 0.87226 0.0
H2675 H 0.75281 0.81893 0.85571 0.0
H2676 H 0.67264 0.75901 0.82152 0.0
H2677 H 0.71811 0.78794 0.82691 0.0
H2678 H 0.63205 0.86544 0.89112 0.0
H2679 H 0.67651 0.88991 0.90145 0.0
H2680 H 0.59358 0.81206 0.88599 0.0
H2681 H 0.58156 0.77729 0.86406 0.0
C2682 C 0.79069 0.13721 0.66474 0.0
C2683 C 0.81945 0.13009 0.66412 0.0
C2684 C 0.85912 0.18733 0.68571 0.0
C2685 C 0.83052 0.1947 0.68596 0.0
N2686 N 0.77098 0.18025 0.67247 0.0
N2687 N 0.87895 0.14444 0.67755 0.0
C2688 C 0.79664 0.17044 0.67485 0.0
C2689 C 0.85325 0.15421 0.6754 0.0
N2690 N 0.75753 0.1118 0.65611 0.0
N2691 N 0.89213 0.2125 0.69479 0.0
H2692 H 0.87576 0.12037 0.67038 0.0
H2693 H 0.90264 0.15878 0.68796 0.0
H2694 H 0.89674 0.23607 0.70387 0.0
H2695 H 0.91543 0.21118 0.69231 0.0
H2696 H 0.73425 0.11308 0.65891 0.0
H2697 H 0.75273 0.088 0.64733 0.0
H2698 H 0.74741 0.16586 0.66192 0.0
H2699 H 0.77412 0.20436 0.67951 0.0
C2700 C 0.84949 0.70049 0.67785 0.0
C2701 C 0.86311 0.69162 0.65569 0.0
C2702 C 0.81231 0.63032 0.65606 0.0
C2703 C 0.79869 0.63921 0.67821 0.0
N2704 N 0.80536 0.67997 0.71243 0.0
N2705 N 0.85665 0.65076 0.62161 0.0
C2706 C 0.81761 0.67354 0.68977 0.0
C2707 C 0.84427 0.65724 0.64419 0.0
N2708 N 0.86604 0.7352 0.68657 0.0
N2709 N 0.79562 0.59562 0.64731 0.0
H2710 H 0.88074 0.66955 0.613 0.0
H2711 H 0.84236 0.62774 0.61048 0.0
H2712 H 0.77239 0.57496 0.65565 0.0
H2713 H 0.80585 0.58634 0.63294 0.0
H2714 H 0.85567 0.74443 0.70087 0.0
H2715 H 0.88923 0.75592 0.67824 0.0
H2716 H 0.81978 0.70292 0.7236 0.0
H2717 H 0.7813 0.66117 0.72108 0.0
C2718 C 0.36313 0.18754 0.65281 0.0
C2719 C 0.35284 0.16102 0.67245 0.0
C2720 C 0.28954 0.14191 0.66573 0.0
C2721 C 0.29981 0.16869 0.64625 0.0
N2722 N 0.34528 0.21928 0.62275 0.0
N2723 N 0.30733 0.10951 0.69514 0.0
C2724 C 0.33634 0.19209 0.64012 0.0
C2725 C 0.31631 0.13718 0.67821 0.0
N2726 N 0.39841 0.20723 0.64557 0.0
N2727 N 0.25437 0.12242 0.67325 0.0
H2728 H 0.32641 0.10603 0.70518 0.0
H2729 H 0.28125 0.08862 0.6981 0.0
H2730 H 0.23379 0.1248 0.66457 0.0
H2731 H 0.24555 0.10554 0.68927 0.0
H2732 H 0.4075 0.22429 0.62967 0.0
H2733 H 0.41888 0.20487 0.65448 0.0
H2734 H 0.37136 0.23989 0.61936 0.0
H2735 H 0.32617 0.22244 0.61247 0.0
C2736 C 0.47975 0.47537 0.52745 0.0
C2737 C 0.46824 0.49977 0.52038 0.0
C2738 C 0.51719 0.52868 0.48876 0.0
C2739 C 0.52827 0.50381 0.49555 0.0
N2740 N 0.52586 0.45879 0.52472 0.0
N2741 N 0.47265 0.54732 0.49298 0.0
C2742 C 0.51106 0.47848 0.51578 0.0
C2743 C 0.48631 0.52613 0.50086 0.0
N2744 N 0.46002 0.44854 0.54474 0.0
N2745 N 0.53663 0.55498 0.47104 0.0
H2746 H 0.45025 0.5465 0.50142 0.0
H2747 H 0.48198 0.56447 0.47714 0.0
H2748 H 0.55848 0.55659 0.46109 0.0
H2749 H 0.53266 0.57642 0.46701 0.0
H2750 H 0.46421 0.42714 0.54845 0.0
H2751 H 0.43773 0.44639 0.55439 0.0
H2752 H 0.51706 0.44277 0.54117 0.0
H2753 H 0.54909 0.46063 0.51696 0.0
C2754 C 0.48376 -0.00096 0.47284 0.0
C2755 C 0.50627 0.03529 0.48 0.0
C2756 C 0.53826 0.0182 0.51092 0.0
C2757 C 0.51402 0.98179 0.50516 0.0
N2758 N 0.46106 0.93641 0.48326 0.0
N2759 N 0.55141 0.0798 0.50819 0.0
C2760 C 0.48599 0.97184 0.48682 0.0
C2761 C 0.53266 0.04506 0.49966 0.0
N2762 N 0.46089 0.99083 0.45233 0.0
N2763 N 0.56699 0.02703 0.52672 0.0
H2764 H 0.54857 0.10052 0.50022 0.0
H2765 H 0.56789 0.08777 0.52444 0.0
H2766 H 0.57125 0.00784 0.53586 0.0
H2767 H 0.58793 0.0532 0.52937 0.0
H2768 H 0.44646 0.9653 0.44429 0.0
H2769 H 0.45831 0.01026 0.44199 0.0
H2770 H 0.43788 0.92755 0.47227 0.0
H2771 H 0.4621 0.91559 0.49279 0.0
C2772 C 0.01564 0.49093 0.47826 0.0
C2773 C 0.97942 0.47663 0.48573 0.0
C2774 C 0.99456 0.53105 0.51043 0.0
C2775 C 0.03109 0.54431 0.50436 0.0
N2776 N 0.07781 0.53608 0.4854 0.0
N2777 N 0.93396 0.48033 0.51079 0.0
C2778 C 0.04207 0.52403 0.48906 0.0
C2779 C 0.96872 0.49591 0.50237 0.0
N2780 N 0.02455 0.47316 0.46046 0.0
N2781 N 0.98459 0.55247 0.52331 0.0
H2782 H 0.91381 0.45522 0.50456 0.0
H2783 H 0.92532 0.49115 0.5252 0.0
H2784 H 0.00307 0.57799 0.53011 0.0
H2785 H 0.95807 0.54616 0.52583 0.0
H2786 H 0.04977 0.48397 0.45196 0.0
H2787 H 0.00588 0.44829 0.45277 0.0
H2788 H 0.08771 0.52081 0.47697 0.0
H2789 H 0.09803 0.56066 0.49239 0.0
C2790 C 0.5005 0.47444 0.00372 0.0
C2791 C 0.49383 0.46657 0.97695 0.0
C2792 C 0.49123 0.5214 0.97044 0.0
C2793 C 0.4924 0.52618 0.99768 0.0
N2794 N 0.49308 0.50455 0.04066 0.0
N2795 N 0.4794 0.48017 0.93496 0.0
C2796 C 0.49585 0.50209 0.01449 0.0
C2797 C 0.48839 0.48947 0.96026 0.0
N2798 N 0.5126 0.45643 0.01868 0.0
N2799 N 0.4942 0.54795 0.95431 0.0
H2800 H 0.47735 0.45702 0.92682 0.0
H2801 H 0.47122 0.49383 0.92259 0.0
H2802 H 0.49752 0.57228 0.96104 0.0
H2803 H 0.497 0.54741 0.93434 0.0
H2804 H 0.52126 0.46358 0.03768 0.0
H2805 H 0.5176 0.43675 0.01137 0.0
H2806 H 0.49136 0.48514 0.05355 0.0
H2807 H 0.48926 0.52422 0.0494 0.0
C2808 C 0.50377 -0.00031 0.95642 0.0
C2809 C 0.52542 0.02558 0.97507 0.0
C2810 C 0.48402 0.98947 0.00952 0.0
C2811 C 0.46133 0.96452 0.99069 0.0
N2812 N 0.44501 0.94991 0.94583 0.0
N2813 N 0.53141 0.05013 0.01804 0.0
C2814 C 0.46983 0.97083 0.96397 0.0
C2815 C 0.51416 0.022 0.00126 0.0
N2816 N 0.51615 0.00193 0.93175 0.0
N2817 N 0.47791 0.98148 0.03526 0.0
H2818 H 0.55299 0.07492 0.01264 0.0
H2819 H 0.52199 0.05016 0.0366 0.0
H2820 H 0.45629 0.95778 0.04223 0.0
H2821 H 0.49605 0.99695 0.04964 0.0
H2822 H 0.50324 0.98168 0.91807 0.0
H2823 H 0.54093 0.02278 0.92554 0.0
H2824 H 0.44839 0.95531 0.92608 0.0
H2825 H 0.41939 0.9292 0.95064 0.0
C2826 C 0.01148 0.51302 0.02442 0.0
C2827 C 0.01313 0.48181 0.01814 0.0
C2828 C 0.9796 0.47501 0.97827 0.0
C2829 C 0.97806 0.50628 0.98456 0.0
N2830 N 0.00617 0.56249 0.00754 0.0
N2831 N 0.98611 0.42598 0.99475 0.0
C2832 C 0.99818 0.52759 0.00585 0.0
C2833 C 0.99332 0.46061 0.99671 0.0
N2834 N 0.01967 0.52705 0.04877 0.0
N2835 N 0.97096 0.46085 0.95397 0.0
H2836 H 0.99327 0.41387 0.00927 0.0
H2837 H 0.96922 0.40823 0.98068 0.0
H2838 H 0.9663 0.47404 0.93885 0.0
H2839 H 0.97406 0.43946 0.94788 0.0
H2840 H 0.01649 0.54846 0.0547 0.0
H2841 H 0.02382 0.51371 0.06404 0.0
H2842 H 0.02324 0.58014 0.02159 0.0
H2843 H -0.00038 0.57482 0.99281 0.0
loop_
_geom_bond_atom_site_label_1
_geom_bond_atom_site_label_2
_geom_bond_distance
_geom_bond_site_symmetry_2
_ccdc_geom_bond_type
Co0 O3 1.970 . S
Co0 N17 1.977 1_655 S
Co0 O25 1.967 . S
Co0 O32 1.920 . S
Co1 O4 1.966 1_455 S
Co1 N10 2.022 . S
Co1 N18 1.993 . S
Co1 O26 1.941 . S
C2 O3 1.258 . S
C2 O4 1.263 . S
O3 Co0 1.970 . S
O3 C2 1.258 . S
O4 Co1 1.966 1_655 S
O4 C2 1.263 . S
C5 O6 1.235 . S
C5 O32 1.289 . S
O6 C5 1.235 . S
C7 C9 1.400 . S
C7 N10 1.351 . S
C7 C12 1.501 . S
C8 C9 1.387 . S
C8 N11 1.341 . S
C9 C7 1.400 . S
C9 C8 1.387 . S
N10 Co1 2.022 . S
N10 C7 1.351 . S
N10 N11 1.365 . S
N11 C8 1.341 . S
N11 N10 1.365 . S
N11 H31 0.862 . S
C12 C7 1.501 . S
C12 H13 0.961 . S
C12 H14 0.961 . S
C12 H15 0.960 . S
H13 C12 0.961 . S
H14 C12 0.961 . S
H15 C12 0.960 . S
C16 N17 1.336 . S
C16 C20 1.401 . S
C16 C21 1.499 1_455 S
N17 Co0 1.977 1_455 S
N17 C16 1.336 . S
N17 N18 1.411 . S
N18 Co1 1.993 . S
N18 N17 1.411 . S
N18 C19 1.346 . S
C19 N18 1.346 . S
C19 C20 1.396 . S
C19 C29 1.510 . S
C20 C16 1.401 . S
C20 C19 1.396 . S
C21 C16 1.499 1_655 S
C21 H22 0.959 . S
C21 H23 0.960 . S
C21 H24 0.961 . S
H22 C21 0.959 . S
H23 C21 0.960 . S
H24 C21 0.961 . S
O25 Co0 1.967 . S
O25 C33 1.258 1_655 S
O26 Co1 1.941 . S
O26 C33 1.266 . S
H27 C29 0.959 . S
H28 C29 0.961 . S
C29 C19 1.510 . S
C29 H27 0.959 . S
C29 H28 0.961 . S
C29 H30 0.960 . S
H30 C29 0.960 . S
H31 N11 0.862 . S
O32 Co0 1.920 . S
O32 C5 1.289 . S
C33 O25 1.258 1_455 S
C33 O26 1.266 . S
Co34 O37 1.970 . S
Co34 N51 1.989 . S
Co34 O59 1.967 . S
Co34 O66 1.920 . S
Co35 O38 1.966 . S
Co35 N44 2.022 . S
Co35 N52 1.993 . S
Co35 O60 1.941 . S
C36 O37 1.258 . S
C36 O38 1.263 . S
O37 Co34 1.970 . S
O37 C36 1.258 . S
O38 Co35 1.966 . S
O38 C36 1.263 . S
C39 O40 1.235 . S
C39 O66 1.289 . S
O40 C39 1.235 . S
C41 C43 1.400 . S
C41 N44 1.351 . S
C41 C46 1.501 . S
C42 C43 1.387 . S
C42 N45 1.341 . S
C43 C41 1.400 . S
C43 C42 1.387 . S
N44 Co35 2.022 . S
N44 C41 1.351 . S
N44 N45 1.365 . S
N45 C42 1.341 . S
N45 N44 1.365 . S
N45 H65 0.862 . S
C46 C41 1.501 . S
C46 H47 0.961 . S
C46 H48 0.961 . S
C46 H49 0.960 . S
H47 C46 0.961 . S
H48 C46 0.961 . S
H49 C46 0.960 . S
C50 N51 1.342 . S
C50 C54 1.401 . S
C50 C55 1.499 . S
N51 Co34 1.989 . S
N51 C50 1.342 . S
N51 N52 1.388 . S
N52 Co35 1.993 . S
N52 N51 1.388 . S
N52 C53 1.346 . S
C53 N52 1.346 . S
C53 C54 1.396 . S
C53 C63 1.510 . S
C54 C50 1.401 . S
C54 C53 1.396 . S
C55 C50 1.499 . S
C55 H56 0.959 . S
C55 H57 0.960 . S
C55 H58 0.961 . S
H56 C55 0.959 . S
H57 C55 0.960 . S
H58 C55 0.961 . S
O59 Co34 1.967 . S
O59 C67 1.258 . S
O60 Co35 1.941 . S
O60 C67 1.266 . S
H61 C63 0.959 . S
H62 C63 0.961 . S
C63 C53 1.510 . S
C63 H61 0.959 . S
C63 H62 0.961 . S
C63 H64 0.960 . S
H64 C63 0.960 . S
H65 N45 0.862 . S
O66 Co34 1.920 . S
O66 C39 1.289 . S
C67 O59 1.258 . S
C67 O60 1.266 . S
Co68 O71 1.970 . S
Co68 N85 1.970 1_545 S
Co68 O93 1.967 . S
Co68 O100 1.920 . S
Co69 O72 1.966 1_565 S
Co69 N78 2.022 . S
Co69 N86 1.993 . S
Co69 O94 1.941 . S
C70 O71 1.258 . S
C70 O72 1.263 . S
O71 Co68 1.970 . S
O71 C70 1.258 . S
O72 Co69 1.966 1_545 S
O72 C70 1.263 . S
C73 O74 1.235 . S
C73 O100 1.289 . S
O74 C73 1.235 . S
C75 C77 1.400 . S
C75 N78 1.351 . S
C75 C80 1.501 . S
C76 C77 1.387 . S
C76 N79 1.341 . S
C77 C75 1.400 . S
C77 C76 1.387 . S
N78 Co69 2.022 . S
N78 C75 1.351 . S
N78 N79 1.365 . S
N79 C76 1.341 . S
N79 N78 1.365 . S
N79 H99 0.862 . S
C80 C75 1.501 . S
C80 H81 0.961 . S
C80 H82 0.961 . S
C80 H83 0.960 . S
H81 C80 0.961 . S
H82 C80 0.961 . S
H83 C80 0.960 . S
C84 N85 1.356 . S
C84 C88 1.401 . S
C84 C89 1.499 1_565 S
N85 Co68 1.970 1_565 S
N85 C84 1.356 . S
N85 N86 1.396 . S
N86 Co69 1.993 . S
N86 N85 1.396 . S
N86 C87 1.346 . S
C87 N86 1.346 . S
C87 C88 1.396 . S
C87 C97 1.510 . S
C88 C84 1.401 . S
C88 C87 1.396 . S
C89 C84 1.499 1_545 S
C89 H90 0.959 . S
C89 H91 0.960 . S
C89 H92 0.961 . S
H90 C89 0.959 . S
H91 C89 0.960 . S
H92 C89 0.961 . S
O93 Co68 1.967 . S
O93 C101 1.258 1_545 S
O94 Co69 1.941 . S
O94 C101 1.266 . S
H95 C97 0.959 . S
H96 C97 0.961 . S
C97 C87 1.510 . S
C97 H95 0.959 . S
C97 H96 0.961 . S
C97 H98 0.960 . S
H98 C97 0.960 . S
H99 N79 0.862 . S
O100 Co68 1.920 . S
O100 C73 1.289 . S
C101 O93 1.258 1_565 S
C101 O94 1.266 . S
Co102 O105 1.970 . S
Co102 N119 1.977 1_565 S
Co102 O127 1.967 . S
Co102 O134 1.920 . S
Co103 O106 1.966 1_545 S
Co103 N112 2.022 . S
Co103 N120 1.993 . S
Co103 O128 1.941 . S
C104 O105 1.258 . S
C104 O106 1.263 . S
O105 Co102 1.970 . S
O105 C104 1.258 . S
O106 Co103 1.966 1_565 S
O106 C104 1.263 . S
C107 O108 1.235 . S
C107 O134 1.289 . S
O108 C107 1.235 . S
C109 C111 1.400 . S
C109 N112 1.351 . S
C109 C114 1.501 . S
C110 C111 1.387 . S
C110 N113 1.341 . S
C111 C109 1.400 . S
C111 C110 1.387 . S
N112 Co103 2.022 . S
N112 C109 1.351 . S
N112 N113 1.365 . S
N113 C110 1.341 . S
N113 N112 1.365 . S
N113 H133 0.862 . S
C114 C109 1.501 . S
C114 H115 0.961 . S
C114 H116 0.961 . S
C114 H117 0.960 . S
H115 C114 0.961 . S
H116 C114 0.961 . S
H117 C114 0.960 . S
C118 N119 1.336 . S
C118 C122 1.401 . S
C118 C123 1.499 1_545 S
N119 Co102 1.977 1_545 S
N119 C118 1.336 . S
N119 N120 1.411 . S
N120 Co103 1.993 . S
N120 N119 1.411 . S
N120 C121 1.346 . S
C121 N120 1.346 . S
C121 C122 1.396 . S
C121 C131 1.510 . S
C122 C118 1.401 . S
C122 C121 1.396 . S
C123 C118 1.499 1_565 S
C123 H124 0.959 . S
C123 H125 0.960 . S
C123 H126 0.961 . S
H124 C123 0.959 . S
H125 C123 0.960 . S
H126 C123 0.961 . S
O127 Co102 1.967 . S
O127 C135 1.258 1_565 S
O128 Co103 1.941 . S
O128 C135 1.266 . S
H129 C131 0.959 . S
H130 C131 0.961 . S
C131 C121 1.510 . S
C131 H129 0.959 . S
C131 H130 0.961 . S
C131 H132 0.960 . S
H132 C131 0.960 . S
H133 N113 0.862 . S
O134 Co102 1.920 . S
O134 C107 1.289 . S
C135 O127 1.258 1_545 S
C135 O128 1.266 . S
Co136 O139 1.970 . S
Co136 N153 1.970 1_455 S
Co136 O161 1.967 . S
Co136 O168 1.920 . S
Co137 O140 1.966 1_655 S
Co137 N146 2.022 . S
Co137 N154 1.993 . S
Co137 O162 1.941 . S
C138 O139 1.258 . S
C138 O140 1.263 . S
O139 Co136 1.970 . S
O139 C138 1.258 . S
O140 Co137 1.966 1_455 S
O140 C138 1.263 . S
C141 O142 1.235 . S
C141 O168 1.289 . S
O142 C141 1.235 . S
C143 C145 1.400 . S
C143 N146 1.351 . S
C143 C148 1.501 . S
C144 C145 1.387 . S
C144 N147 1.341 . S
C145 C143 1.400 . S
C145 C144 1.387 . S
N146 Co137 2.022 . S
N146 C143 1.351 . S
N146 N147 1.365 . S
N147 C144 1.341 . S
N147 N146 1.365 . S
N147 H167 0.862 . S
C148 C143 1.501 . S
C148 H149 0.961 . S
C148 H150 0.961 . S
C148 H151 0.960 . S
H149 C148 0.961 . S
H150 C148 0.961 . S
H151 C148 0.960 . S
C152 N153 1.356 . S
C152 C156 1.401 . S
C152 C157 1.499 1_655 S
N153 Co136 1.970 1_655 S
N153 C152 1.356 . S
N153 N154 1.396 . S
N154 Co137 1.993 . S
N154 N153 1.396 . S
N154 C155 1.346 . S
C155 N154 1.346 . S
C155 C156 1.396 . S
C155 C165 1.510 . S
C156 C152 1.401 . S
C156 C155 1.396 . S
C157 C152 1.499 1_455 S
C157 H158 0.959 . S
C157 H159 0.960 . S
C157 H160 0.961 . S
H158 C157 0.959 . S
H159 C157 0.960 . S
H160 C157 0.961 . S
O161 Co136 1.967 . S
O161 C169 1.258 1_455 S
O162 Co137 1.941 . S
O162 C169 1.266 . S
H163 C165 0.959 . S
H164 C165 0.961 . S
C165 C155 1.510 . S
C165 H163 0.959 . S
C165 H164 0.961 . S
C165 H166 0.960 . S
H166 C165 0.960 . S
H167 N147 0.862 . S
O168 Co136 1.920 . S
O168 C141 1.289 . S
C169 O161 1.258 1_655 S
C169 O162 1.266 . S
Co170 O173 1.970 . S
Co170 N187 1.989 . S
Co170 O195 1.967 . S
Co170 O202 1.920 . S
Co171 O174 1.966 . S
Co171 N180 2.022 . S
Co171 N188 1.993 . S
Co171 O196 1.941 . S
C172 O173 1.258 . S
C172 O174 1.263 . S
O173 Co170 1.970 . S
O173 C172 1.258 . S
O174 Co171 1.966 . S
O174 C172 1.263 . S
C175 O176 1.235 . S
C175 O202 1.289 . S
O176 C175 1.235 . S
C177 C179 1.400 . S
C177 N180 1.351 . S
C177 C182 1.501 . S
C178 C179 1.387 . S
C178 N181 1.341 . S
C179 C177 1.400 . S
C179 C178 1.387 . S
N180 Co171 2.022 . S
N180 C177 1.351 . S
N180 N181 1.365 . S
N181 C178 1.341 . S
N181 N180 1.365 . S
N181 H201 0.862 . S
C182 C177 1.501 . S
C182 H183 0.961 . S
C182 H184 0.961 . S
C182 H185 0.960 . S
H183 C182 0.961 . S
H184 C182 0.961 . S
H185 C182 0.960 . S
C186 N187 1.342 . S
C186 C190 1.401 . S
C186 C191 1.499 . S
N187 Co170 1.989 . S
N187 C186 1.342 . S
N187 N188 1.388 . S
N188 Co171 1.993 . S
N188 N187 1.388 . S
N188 C189 1.346 . S
C189 N188 1.346 . S
C189 C190 1.396 . S
C189 C199 1.510 . S
C190 C186 1.401 . S
C190 C189 1.396 . S
C191 C186 1.499 . S
C191 H192 0.959 . S
C191 H193 0.960 . S
C191 H194 0.961 . S
H192 C191 0.959 . S
H193 C191 0.960 . S
H194 C191 0.961 . S
O195 Co170 1.967 . S
O195 C203 1.258 . S
O196 Co171 1.941 . S
O196 C203 1.266 . S
H197 C199 0.959 . S
H198 C199 0.961 . S
C199 C189 1.510 . S
C199 H197 0.959 . S
C199 H198 0.961 . S
C199 H200 0.960 . S
H200 C199 0.960 . S
H201 N181 0.862 . S
O202 Co170 1.920 . S
O202 C175 1.289 . S
C203 O195 1.258 . S
C203 O196 1.266 . S
Co204 O207 1.970 . S
Co204 N221 1.977 1_455 S
Co204 O229 1.967 . S
Co204 O236 1.920 . S
Co205 O208 1.966 1_655 S
Co205 N214 2.022 . S
Co205 N222 1.993 . S
Co205 O230 1.941 . S
C206 O207 1.258 . S
C206 O208 1.263 . S
O207 Co204 1.970 . S
O207 C206 1.258 . S
O208 Co205 1.966 1_455 S
O208 C206 1.263 . S
C209 O210 1.235 . S
C209 O236 1.289 . S
O210 C209 1.235 . S
C211 C213 1.400 . S
C211 N214 1.351 . S
C211 C216 1.501 . S
C212 C213 1.387 . S
C212 N215 1.341 . S
C213 C211 1.400 . S
C213 C212 1.387 . S
N214 Co205 2.022 . S
N214 C211 1.351 . S
N214 N215 1.365 . S
N215 C212 1.341 . S
N215 N214 1.365 . S
N215 H235 0.862 . S
C216 C211 1.501 . S
C216 H217 0.961 . S
C216 H218 0.961 . S
C216 H219 0.960 . S
H217 C216 0.961 . S
H218 C216 0.961 . S
H219 C216 0.960 . S
C220 N221 1.336 . S
C220 C224 1.401 . S
C220 C225 1.499 1_655 S
N221 Co204 1.977 1_655 S
N221 C220 1.336 . S
N221 N222 1.411 . S
N222 Co205 1.993 . S
N222 N221 1.411 . S
N222 C223 1.346 . S
C223 N222 1.346 . S
C223 C224 1.396 . S
C223 C233 1.510 . S
C224 C220 1.401 . S
C224 C223 1.396 . S
C225 C220 1.499 1_455 S
C225 H226 0.959 . S
C225 H227 0.960 . S
C225 H228 0.961 . S
H226 C225 0.959 . S
H227 C225 0.960 . S
H228 C225 0.961 . S
O229 Co204 1.967 . S
O229 C237 1.258 1_455 S
O230 Co205 1.941 . S
O230 C237 1.266 . S
H231 C233 0.959 . S
H232 C233 0.961 . S
C233 C223 1.510 . S
C233 H231 0.959 . S
C233 H232 0.961 . S
C233 H234 0.960 . S
H234 C233 0.960 . S
H235 N215 0.862 . S
O236 Co204 1.920 . S
O236 C209 1.289 . S
C237 O229 1.258 1_655 S
C237 O230 1.266 . S
Co238 O241 1.970 . S
Co238 N255 1.989 . S
Co238 O263 1.967 . S
Co238 O270 1.920 . S
Co239 O242 1.966 . S
Co239 N248 2.022 . S
Co239 N256 1.993 . S
Co239 O264 1.941 . S
C240 O241 1.258 . S
C240 O242 1.263 . S
O241 Co238 1.970 . S
O241 C240 1.258 . S
O242 Co239 1.966 . S
O242 C240 1.263 . S
C243 O244 1.235 . S
C243 O270 1.289 . S
O244 C243 1.235 . S
C245 C247 1.400 . S
C245 N248 1.351 . S
C245 C250 1.501 . S
C246 C247 1.387 . S
C246 N249 1.341 . S
C247 C245 1.400 . S
C247 C246 1.387 . S
N248 Co239 2.022 . S
N248 C245 1.351 . S
N248 N249 1.365 . S
N249 C246 1.341 . S
N249 N248 1.365 . S
N249 H269 0.862 . S
C250 C245 1.501 . S
C250 H251 0.961 . S
C250 H252 0.961 . S
C250 H253 0.960 . S
H251 C250 0.961 . S
H252 C250 0.961 . S
H253 C250 0.960 . S
C254 N255 1.342 . S
C254 C258 1.401 . S
C254 C259 1.499 . S
N255 Co238 1.989 . S
N255 C254 1.342 . S
N255 N256 1.388 . S
N256 Co239 1.993 . S
N256 N255 1.388 . S
N256 C257 1.346 . S
C257 N256 1.346 . S
C257 C258 1.396 . S
C257 C267 1.510 . S
C258 C254 1.401 . S
C258 C257 1.396 . S
C259 C254 1.499 . S
C259 H260 0.959 . S
C259 H261 0.960 . S
C259 H262 0.961 . S
H260 C259 0.959 . S
H261 C259 0.960 . S
H262 C259 0.961 . S
O263 Co238 1.967 . S
O263 C271 1.258 . S
O264 Co239 1.941 . S
O264 C271 1.266 . S
H265 C267 0.959 . S
H266 C267 0.961 . S
C267 C257 1.510 . S
C267 H265 0.959 . S
C267 H266 0.961 . S
C267 H268 0.960 . S
H268 C267 0.960 . S
H269 N249 0.862 . S
O270 Co238 1.920 . S
O270 C243 1.289 . S
C271 O263 1.258 . S
C271 O264 1.266 . S
Co272 O275 1.970 . S
Co272 N289 1.970 1_565 S
Co272 O297 1.967 . S
Co272 O304 1.920 . S
Co273 O276 1.966 1_545 S
Co273 N282 2.022 . S
Co273 N290 1.993 . S
Co273 O298 1.941 . S
C274 O275 1.258 . S
C274 O276 1.263 . S
O275 Co272 1.970 . S
O275 C274 1.258 . S
O276 Co273 1.966 1_565 S
O276 C274 1.263 . S
C277 O278 1.235 . S
C277 O304 1.289 . S
O278 C277 1.235 . S
C279 C281 1.400 . S
C279 N282 1.351 . S
C279 C284 1.501 . S
C280 C281 1.387 . S
C280 N283 1.341 . S
C281 C279 1.400 . S
C281 C280 1.387 . S
N282 Co273 2.022 . S
N282 C279 1.351 . S
N282 N283 1.365 . S
N283 C280 1.341 . S
N283 N282 1.365 . S
N283 H303 0.862 . S
C284 C279 1.501 . S
C284 H285 0.961 . S
C284 H286 0.961 . S
C284 H287 0.960 . S
H285 C284 0.961 . S
H286 C284 0.961 . S
H287 C284 0.960 . S
C288 N289 1.356 . S
C288 C292 1.401 . S
C288 C293 1.499 1_545 S
N289 Co272 1.970 1_545 S
N289 C288 1.356 . S
N289 N290 1.396 . S
N290 Co273 1.993 . S
N290 N289 1.396 . S
N290 C291 1.346 . S
C291 N290 1.346 . S
C291 C292 1.396 . S
C291 C301 1.510 . S
C292 C288 1.401 . S
C292 C291 1.396 . S
C293 C288 1.499 1_565 S
C293 H294 0.959 . S
C293 H295 0.960 . S
C293 H296 0.961 . S
H294 C293 0.959 . S
H295 C293 0.960 . S
H296 C293 0.961 . S
O297 Co272 1.967 . S
O297 C305 1.258 1_565 S
O298 Co273 1.941 . S
O298 C305 1.266 . S
H299 C301 0.959 . S
H300 C301 0.961 . S
C301 C291 1.510 . S
C301 H299 0.959 . S
C301 H300 0.961 . S
C301 H302 0.960 . S
H302 C301 0.960 . S
H303 N283 0.862 . S
O304 Co272 1.920 . S
O304 C277 1.289 . S
C305 O297 1.258 1_545 S
C305 O298 1.266 . S
Co306 O309 1.970 . S
Co306 N323 1.977 1_545 S
Co306 O331 1.967 . S
Co306 O338 1.920 . S
Co307 O310 1.966 1_565 S
Co307 N316 2.022 . S
Co307 N324 1.993 . S
Co307 O332 1.941 . S
C308 O309 1.258 . S
C308 O310 1.263 . S
O309 Co306 1.970 . S
O309 C308 1.258 . S
O310 Co307 1.966 1_545 S
O310 C308 1.263 . S
C311 O312 1.235 . S
C311 O338 1.289 . S
O312 C311 1.235 . S
C313 C315 1.400 . S
C313 N316 1.351 . S
C313 C318 1.501 . S
C314 C315 1.387 . S
C314 N317 1.341 . S
C315 C313 1.400 . S
C315 C314 1.387 . S
N316 Co307 2.022 . S
N316 C313 1.351 . S
N316 N317 1.365 . S
N317 C314 1.341 . S
N317 N316 1.365 . S
N317 H337 0.862 . S
C318 C313 1.501 . S
C318 H319 0.961 . S
C318 H320 0.961 . S
C318 H321 0.960 . S
H319 C318 0.961 . S
H320 C318 0.961 . S
H321 C318 0.960 . S
C322 N323 1.336 . S
C322 C326 1.401 . S
C322 C327 1.499 1_565 S
N323 Co306 1.977 1_565 S
N323 C322 1.336 . S
N323 N324 1.411 . S
N324 Co307 1.993 . S
N324 N323 1.411 . S
N324 C325 1.346 . S
C325 N324 1.346 . S
C325 C326 1.396 . S
C325 C335 1.510 . S
C326 C322 1.401 . S
C326 C325 1.396 . S
C327 C322 1.499 1_545 S
C327 H328 0.959 . S
C327 H329 0.960 . S
C327 H330 0.961 . S
H328 C327 0.959 . S
H329 C327 0.960 . S
H330 C327 0.961 . S
O331 Co306 1.967 . S
O331 C339 1.258 1_545 S
O332 Co307 1.941 . S
O332 C339 1.266 . S
H333 C335 0.959 . S
H334 C335 0.961 . S
C335 C325 1.510 . S
C335 H333 0.959 . S
C335 H334 0.961 . S
C335 H336 0.960 . S
H336 C335 0.960 . S
H337 N317 0.862 . S
O338 Co306 1.920 . S
O338 C311 1.289 . S
C339 O331 1.258 1_565 S
C339 O332 1.266 . S
Co340 O343 1.970 . S
Co340 N357 1.970 1_655 S
Co340 O365 1.967 . S
Co340 O372 1.920 . S
Co341 O344 1.966 1_455 S
Co341 N350 2.022 . S
Co341 N358 1.993 . S
Co341 O366 1.941 . S
C342 O343 1.258 . S
C342 O344 1.263 . S
O343 Co340 1.970 . S
O343 C342 1.258 . S
O344 Co341 1.966 1_655 S
O344 C342 1.263 . S
C345 O346 1.235 . S
C345 O372 1.289 . S
O346 C345 1.235 . S
C347 C349 1.400 . S
C347 N350 1.351 . S
C347 C352 1.501 . S
C348 C349 1.387 . S
C348 N351 1.341 . S
C349 C347 1.400 . S
C349 C348 1.387 . S
N350 Co341 2.022 . S
N350 C347 1.351 . S
N350 N351 1.365 . S
N351 C348 1.341 . S
N351 N350 1.365 . S
N351 H371 0.862 . S
C352 C347 1.501 . S
C352 H353 0.961 . S
C352 H354 0.961 . S
C352 H355 0.960 . S
H353 C352 0.961 . S
H354 C352 0.961 . S
H355 C352 0.960 . S
C356 N357 1.356 . S
C356 C360 1.401 . S
C356 C361 1.499 1_455 S
N357 Co340 1.970 1_455 S
N357 C356 1.356 . S
N357 N358 1.396 . S
N358 Co341 1.993 . S
N358 N357 1.396 . S
N358 C359 1.346 . S
C359 N358 1.346 . S
C359 C360 1.396 . S
C359 C369 1.510 . S
C360 C356 1.401 . S
C360 C359 1.396 . S
C361 C356 1.499 1_655 S
C361 H362 0.959 . S
C361 H363 0.960 . S
C361 H364 0.961 . S
H362 C361 0.959 . S
H363 C361 0.960 . S
H364 C361 0.961 . S
O365 Co340 1.967 . S
O365 C373 1.258 1_655 S
O366 Co341 1.941 . S
O366 C373 1.266 . S
H367 C369 0.959 . S
H368 C369 0.961 . S
C369 C359 1.510 . S
C369 H367 0.959 . S
C369 H368 0.961 . S
C369 H370 0.960 . S
H370 C369 0.960 . S
H371 N351 0.862 . S
O372 Co340 1.920 . S
O372 C345 1.289 . S
C373 O365 1.258 1_455 S
C373 O366 1.266 . S
Co374 O377 1.970 . S
Co374 N391 1.989 . S
Co374 O399 1.967 . S
Co374 O406 1.920 . S
Co375 O378 1.966 . S
Co375 N384 2.022 . S
Co375 N392 1.993 . S
Co375 O400 1.941 . S
C376 O377 1.258 . S
C376 O378 1.263 . S
O377 Co374 1.970 . S
O377 C376 1.258 . S
O378 Co375 1.966 . S
O378 C376 1.263 . S
C379 O380 1.235 . S
C379 O406 1.289 . S
O380 C379 1.235 . S
C381 C383 1.400 . S
C381 N384 1.351 . S
C381 C386 1.501 . S
C382 C383 1.387 . S
C382 N385 1.341 . S
C383 C381 1.400 . S
C383 C382 1.387 . S
N384 Co375 2.022 . S
N384 C381 1.351 . S
N384 N385 1.365 . S
N385 C382 1.341 . S
N385 N384 1.365 . S
N385 H405 0.862 . S
C386 C381 1.501 . S
C386 H387 0.961 . S
C386 H388 0.961 . S
C386 H389 0.960 . S
H387 C386 0.961 . S
H388 C386 0.961 . S
H389 C386 0.960 . S
C390 N391 1.342 . S
C390 C394 1.401 . S
C390 C395 1.499 . S
N391 Co374 1.989 . S
N391 C390 1.342 . S
N391 N392 1.388 . S
N392 Co375 1.993 . S
N392 N391 1.388 . S
N392 C393 1.346 . S
C393 N392 1.346 . S
C393 C394 1.396 . S
C393 C403 1.510 . S
C394 C390 1.401 . S
C394 C393 1.396 . S
C395 C390 1.499 . S
C395 H396 0.959 . S
C395 H397 0.960 . S
C395 H398 0.961 . S
H396 C395 0.959 . S
H397 C395 0.960 . S
H398 C395 0.961 . S
O399 Co374 1.967 . S
O399 C407 1.258 . S
O400 Co375 1.941 . S
O400 C407 1.266 . S
H401 C403 0.959 . S
H402 C403 0.961 . S
C403 C393 1.510 . S
C403 H401 0.959 . S
C403 H402 0.961 . S
C403 H404 0.960 . S
H404 C403 0.960 . S
H405 N385 0.862 . S
O406 Co374 1.920 . S
O406 C379 1.289 . S
C407 O399 1.258 . S
C407 O400 1.266 . S
Co408 O411 1.970 . S
Co408 N425 1.989 . S
Co408 O433 1.967 . S
Co408 O440 1.920 . S
Co409 O412 1.966 . S
Co409 N418 2.022 . S
Co409 N426 1.993 . S
Co409 O434 1.941 . S
C410 O411 1.258 . S
C410 O412 1.263 . S
O411 Co408 1.970 . S
O411 C410 1.258 . S
O412 Co409 1.966 . S
O412 C410 1.263 . S
C413 O414 1.235 . S
C413 O440 1.289 . S
O414 C413 1.235 . S
C415 C417 1.400 . S
C415 N418 1.351 . S
C415 C420 1.501 . S
C416 C417 1.387 . S
C416 N419 1.341 . S
C417 C415 1.400 . S
C417 C416 1.387 . S
N418 Co409 2.022 . S
N418 C415 1.351 . S
N418 N419 1.365 . S
N419 C416 1.341 . S
N419 N418 1.365 . S
N419 H439 0.862 . S
C420 C415 1.501 . S
C420 H421 0.961 . S
C420 H422 0.961 . S
C420 H423 0.960 . S
H421 C420 0.961 . S
H422 C420 0.961 . S
H423 C420 0.960 . S
C424 N425 1.342 . S
C424 C428 1.401 . S
C424 C429 1.499 . S
N425 Co408 1.989 . S
N425 C424 1.342 . S
N425 N426 1.388 . S
N426 Co409 1.993 . S
N426 N425 1.388 . S
N426 C427 1.346 . S
C427 N426 1.346 . S
C427 C428 1.396 . S
C427 C437 1.510 . S
C428 C424 1.401 . S
C428 C427 1.396 . S
C429 C424 1.499 . S
C429 H430 0.959 . S
C429 H431 0.960 . S
C429 H432 0.961 . S
H430 C429 0.959 . S
H431 C429 0.960 . S
H432 C429 0.961 . S
O433 Co408 1.967 . S
O433 C441 1.258 . S
O434 Co409 1.941 . S
O434 C441 1.266 . S
H435 C437 0.959 . S
H436 C437 0.961 . S
C437 C427 1.510 . S
C437 H435 0.959 . S
C437 H436 0.961 . S
C437 H438 0.960 . S
H438 C437 0.960 . S
H439 N419 0.862 . S
O440 Co408 1.920 . S
O440 C413 1.289 . S
C441 O433 1.258 . S
C441 O434 1.266 . S
Co442 O445 1.970 . S
Co442 N459 1.989 . S
Co442 O467 1.967 . S
Co442 O474 1.920 . S
Co443 O446 1.966 . S
Co443 N452 2.022 . S
Co443 N460 1.993 . S
Co443 O468 1.941 . S
C444 O445 1.258 . S
C444 O446 1.263 . S
O445 Co442 1.970 . S
O445 C444 1.258 . S
O446 Co443 1.966 . S
O446 C444 1.263 . S
C447 O448 1.235 . S
C447 O474 1.289 . S
O448 C447 1.235 . S
C449 C451 1.400 . S
C449 N452 1.351 . S
C449 C454 1.501 . S
C450 C451 1.387 . S
C450 N453 1.341 . S
C451 C449 1.400 . S
C451 C450 1.387 . S
N452 Co443 2.022 . S
N452 C449 1.351 . S
N452 N453 1.365 . S
N453 C450 1.341 . S
N453 N452 1.365 . S
N453 H473 0.862 . S
C454 C449 1.501 . S
C454 H455 0.961 . S
C454 H456 0.961 . S
C454 H457 0.960 . S
H455 C454 0.961 . S
H456 C454 0.961 . S
H457 C454 0.960 . S
C458 N459 1.342 . S
C458 C462 1.401 . S
C458 C463 1.499 . S
N459 Co442 1.989 . S
N459 C458 1.342 . S
N459 N460 1.388 . S
N460 Co443 1.993 . S
N460 N459 1.388 . S
N460 C461 1.346 . S
C461 N460 1.346 . S
C461 C462 1.396 . S
C461 C471 1.510 . S
C462 C458 1.401 . S
C462 C461 1.396 . S
C463 C458 1.499 . S
C463 H464 0.959 . S
C463 H465 0.960 . S
C463 H466 0.961 . S
H464 C463 0.959 . S
H465 C463 0.960 . S
H466 C463 0.961 . S
O467 Co442 1.967 . S
O467 C475 1.258 . S
O468 Co443 1.941 . S
O468 C475 1.266 . S
H469 C471 0.959 . S
H470 C471 0.961 . S
C471 C461 1.510 . S
C471 H469 0.959 . S
C471 H470 0.961 . S
C471 H472 0.960 . S
H472 C471 0.960 . S
H473 N453 0.862 . S
O474 Co442 1.920 . S
O474 C447 1.289 . S
C475 O467 1.258 . S
C475 O468 1.266 . S
Co476 O479 1.970 . S
Co476 N493 1.989 . S
Co476 O501 1.967 . S
Co476 O508 1.920 . S
Co477 O480 1.966 . S
Co477 N486 2.022 . S
Co477 N494 1.993 . S
Co477 O502 1.941 . S
C478 O479 1.258 . S
C478 O480 1.263 . S
O479 Co476 1.970 . S
O479 C478 1.258 . S
O480 Co477 1.966 . S
O480 C478 1.263 . S
C481 O482 1.235 . S
C481 O508 1.289 . S
O482 C481 1.235 . S
C483 C485 1.400 . S
C483 N486 1.351 . S
C483 C488 1.501 . S
C484 C485 1.387 . S
C484 N487 1.341 . S
C485 C483 1.400 . S
C485 C484 1.387 . S
N486 Co477 2.022 . S
N486 C483 1.351 . S
N486 N487 1.365 . S
N487 C484 1.341 . S
N487 N486 1.365 . S
N487 H507 0.862 . S
C488 C483 1.501 . S
C488 H489 0.961 . S
C488 H490 0.961 . S
C488 H491 0.960 . S
H489 C488 0.961 . S
H490 C488 0.961 . S
H491 C488 0.960 . S
C492 N493 1.342 . S
C492 C496 1.401 . S
C492 C497 1.499 . S
N493 Co476 1.989 . S
N493 C492 1.342 . S
N493 N494 1.388 . S
N494 Co477 1.993 . S
N494 N493 1.388 . S
N494 C495 1.346 . S
C495 N494 1.346 . S
C495 C496 1.396 . S
C495 C505 1.510 . S
C496 C492 1.401 . S
C496 C495 1.396 . S
C497 C492 1.499 . S
C497 H498 0.959 . S
C497 H499 0.960 . S
C497 H500 0.961 . S
H498 C497 0.959 . S
H499 C497 0.960 . S
H500 C497 0.961 . S
O501 Co476 1.967 . S
O501 C509 1.258 . S
O502 Co477 1.941 . S
O502 C509 1.266 . S
H503 C505 0.959 . S
H504 C505 0.961 . S
C505 C495 1.510 . S
C505 H503 0.959 . S
C505 H504 0.961 . S
C505 H506 0.960 . S
H506 C505 0.960 . S
H507 N487 0.862 . S
O508 Co476 1.920 . S
O508 C481 1.289 . S
C509 O501 1.258 . S
C509 O502 1.266 . S
Co510 O513 1.970 . S
Co510 N527 1.989 . S
Co510 O535 1.967 . S
Co510 O542 1.920 . S
Co511 O514 1.966 . S
Co511 N520 2.022 . S
Co511 N528 1.993 . S
Co511 O536 1.941 . S
C512 O513 1.258 . S
C512 O514 1.263 . S
O513 Co510 1.970 . S
O513 C512 1.258 . S
O514 Co511 1.966 . S
O514 C512 1.263 . S
C515 O516 1.235 . S
C515 O542 1.289 . S
O516 C515 1.235 . S
C517 C519 1.400 . S
C517 N520 1.351 . S
C517 C522 1.501 . S
C518 C519 1.387 . S
C518 N521 1.341 . S
C519 C517 1.400 . S
C519 C518 1.387 . S
N520 Co511 2.022 . S
N520 C517 1.351 . S
N520 N521 1.365 . S
N521 C518 1.341 . S
N521 N520 1.365 . S
N521 H541 0.862 . S
C522 C517 1.501 . S
C522 H523 0.961 . S
C522 H524 0.961 . S
C522 H525 0.960 . S
H523 C522 0.961 . S
H524 C522 0.961 . S
H525 C522 0.960 . S
C526 N527 1.342 . S
C526 C530 1.401 . S
C526 C531 1.499 . S
N527 Co510 1.989 . S
N527 C526 1.342 . S
N527 N528 1.388 . S
N528 Co511 1.993 . S
N528 N527 1.388 . S
N528 C529 1.346 . S
C529 N528 1.346 . S
C529 C530 1.396 . S
C529 C539 1.510 . S
C530 C526 1.401 . S
C530 C529 1.396 . S
C531 C526 1.499 . S
C531 H532 0.959 . S
C531 H533 0.960 . S
C531 H534 0.961 . S
H532 C531 0.959 . S
H533 C531 0.960 . S
H534 C531 0.961 . S
O535 Co510 1.967 . S
O535 C543 1.258 . S
O536 Co511 1.941 . S
O536 C543 1.266 . S
H537 C539 0.959 . S
H538 C539 0.961 . S
C539 C529 1.510 . S
C539 H537 0.959 . S
C539 H538 0.961 . S
C539 H540 0.960 . S
H540 C539 0.960 . S
H541 N521 0.862 . S
O542 Co510 1.920 . S
O542 C515 1.289 . S
C543 O535 1.258 . S
C543 O536 1.266 . S
Co544 O547 1.970 . S
Co544 N561 1.989 . S
Co544 O569 1.967 . S
Co544 O576 1.920 . S
Co545 O548 1.966 . S
Co545 N554 2.022 . S
Co545 N562 1.993 . S
Co545 O570 1.941 . S
C546 O547 1.258 . S
C546 O548 1.263 . S
O547 Co544 1.970 . S
O547 C546 1.258 . S
O548 Co545 1.966 . S
O548 C546 1.263 . S
C549 O550 1.235 . S
C549 O576 1.289 . S
O550 C549 1.235 . S
C551 C553 1.400 . S
C551 N554 1.351 . S
C551 C556 1.501 . S
C552 C553 1.387 . S
C552 N555 1.341 . S
C553 C551 1.400 . S
C553 C552 1.387 . S
N554 Co545 2.022 . S
N554 C551 1.351 . S
N554 N555 1.365 . S
N555 C552 1.341 . S
N555 N554 1.365 . S
N555 H575 0.862 . S
C556 C551 1.501 . S
C556 H557 0.961 . S
C556 H558 0.961 . S
C556 H559 0.960 . S
H557 C556 0.961 . S
H558 C556 0.961 . S
H559 C556 0.960 . S
C560 N561 1.342 . S
C560 C564 1.401 . S
C560 C565 1.499 . S
N561 Co544 1.989 . S
N561 C560 1.342 . S
N561 N562 1.388 . S
N562 Co545 1.993 . S
N562 N561 1.388 . S
N562 C563 1.346 . S
C563 N562 1.346 . S
C563 C564 1.396 . S
C563 C573 1.510 . S
C564 C560 1.401 . S
C564 C563 1.396 . S
C565 C560 1.499 . S
C565 H566 0.959 . S
C565 H567 0.960 . S
C565 H568 0.961 . S
H566 C565 0.959 . S
H567 C565 0.960 . S
H568 C565 0.961 . S
O569 Co544 1.967 . S
O569 C577 1.258 . S
O570 Co545 1.941 . S
O570 C577 1.266 . S
H571 C573 0.959 . S
H572 C573 0.961 . S
C573 C563 1.510 . S
C573 H571 0.959 . S
C573 H572 0.961 . S
C573 H574 0.960 . S
H574 C573 0.960 . S
H575 N555 0.862 . S
O576 Co544 1.920 . S
O576 C549 1.289 . S
C577 O569 1.258 . S
C577 O570 1.266 . S
Co578 O581 1.970 . S
Co578 N595 1.989 . S
Co578 O603 1.967 . S
Co578 O610 1.920 . S
Co579 O582 1.966 . S
Co579 N588 2.022 . S
Co579 N596 1.993 . S
Co579 O604 1.941 . S
C580 O581 1.258 . S
C580 O582 1.263 . S
O581 Co578 1.970 . S
O581 C580 1.258 . S
O582 Co579 1.966 . S
O582 C580 1.263 . S
C583 O584 1.235 . S
C583 O610 1.289 . S
O584 C583 1.235 . S
C585 C587 1.400 . S
C585 N588 1.351 . S
C585 C590 1.501 . S
C586 C587 1.387 . S
C586 N589 1.341 . S
C587 C585 1.400 . S
C587 C586 1.387 . S
N588 Co579 2.022 . S
N588 C585 1.351 . S
N588 N589 1.365 . S
N589 C586 1.341 . S
N589 N588 1.365 . S
N589 H609 0.862 . S
C590 C585 1.501 . S
C590 H591 0.961 . S
C590 H592 0.961 . S
C590 H593 0.960 . S
H591 C590 0.961 . S
H592 C590 0.961 . S
H593 C590 0.960 . S
C594 N595 1.342 . S
C594 C598 1.401 . S
C594 C599 1.499 . S
N595 Co578 1.989 . S
N595 C594 1.342 . S
N595 N596 1.388 . S
N596 Co579 1.993 . S
N596 N595 1.388 . S
N596 C597 1.346 . S
C597 N596 1.346 . S
C597 C598 1.396 . S
C597 C607 1.510 . S
C598 C594 1.401 . S
C598 C597 1.396 . S
C599 C594 1.499 . S
C599 H600 0.959 . S
C599 H601 0.960 . S
C599 H602 0.961 . S
H600 C599 0.959 . S
H601 C599 0.960 . S
H602 C599 0.961 . S
O603 Co578 1.967 . S
O603 C611 1.258 . S
O604 Co579 1.941 . S
O604 C611 1.266 . S
H605 C607 0.959 . S
H606 C607 0.961 . S
C607 C597 1.510 . S
C607 H605 0.959 . S
C607 H606 0.961 . S
C607 H608 0.960 . S
H608 C607 0.960 . S
H609 N589 0.862 . S
O610 Co578 1.920 . S
O610 C583 1.289 . S
C611 O603 1.258 . S
C611 O604 1.266 . S
Co612 O615 1.970 . S
Co612 N629 1.989 . S
Co612 O637 1.967 . S
Co612 O644 1.920 . S
Co613 O616 1.966 . S
Co613 N622 2.022 . S
Co613 N630 1.993 . S
Co613 O638 1.941 . S
C614 O615 1.258 . S
C614 O616 1.263 . S
O615 Co612 1.970 . S
O615 C614 1.258 . S
O616 Co613 1.966 . S
O616 C614 1.263 . S
C617 O618 1.235 . S
C617 O644 1.289 . S
O618 C617 1.235 . S
C619 C621 1.400 . S
C619 N622 1.351 . S
C619 C624 1.501 . S
C620 C621 1.387 . S
C620 N623 1.341 . S
C621 C619 1.400 . S
C621 C620 1.387 . S
N622 Co613 2.022 . S
N622 C619 1.351 . S
N622 N623 1.365 . S
N623 C620 1.341 . S
N623 N622 1.365 . S
N623 H643 0.862 . S
C624 C619 1.501 . S
C624 H625 0.961 . S
C624 H626 0.961 . S
C624 H627 0.960 . S
H625 C624 0.961 . S
H626 C624 0.961 . S
H627 C624 0.960 . S
C628 N629 1.342 . S
C628 C632 1.401 . S
C628 C633 1.499 . S
N629 Co612 1.989 . S
N629 C628 1.342 . S
N629 N630 1.388 . S
N630 Co613 1.993 . S
N630 N629 1.388 . S
N630 C631 1.346 . S
C631 N630 1.346 . S
C631 C632 1.396 . S
C631 C641 1.510 . S
C632 C628 1.401 . S
C632 C631 1.396 . S
C633 C628 1.499 . S
C633 H634 0.959 . S
C633 H635 0.960 . S
C633 H636 0.961 . S
H634 C633 0.959 . S
H635 C633 0.960 . S
H636 C633 0.961 . S
O637 Co612 1.967 . S
O637 C645 1.258 . S
O638 Co613 1.941 . S
O638 C645 1.266 . S
H639 C641 0.959 . S
H640 C641 0.961 . S
C641 C631 1.510 . S
C641 H639 0.959 . S
C641 H640 0.961 . S
C641 H642 0.960 . S
H642 C641 0.960 . S
H643 N623 0.862 . S
O644 Co612 1.920 . S
O644 C617 1.289 . S
C645 O637 1.258 . S
C645 O638 1.266 . S
Co646 O649 1.970 . S
Co646 N663 1.989 . S
Co646 O671 1.967 . S
Co646 O678 1.920 . S
Co647 O650 1.966 . S
Co647 N656 2.022 . S
Co647 N664 1.993 . S
Co647 O672 1.941 . S
C648 O649 1.258 . S
C648 O650 1.263 . S
O649 Co646 1.970 . S
O649 C648 1.258 . S
O650 Co647 1.966 . S
O650 C648 1.263 . S
C651 O652 1.235 . S
C651 O678 1.289 . S
O652 C651 1.235 . S
C653 C655 1.400 . S
C653 N656 1.351 . S
C653 C658 1.501 . S
C654 C655 1.387 . S
C654 N657 1.341 . S
C655 C653 1.400 . S
C655 C654 1.387 . S
N656 Co647 2.022 . S
N656 C653 1.351 . S
N656 N657 1.365 . S
N657 C654 1.341 . S
N657 N656 1.365 . S
N657 H677 0.862 . S
C658 C653 1.501 . S
C658 H659 0.961 . S
C658 H660 0.961 . S
C658 H661 0.960 . S
H659 C658 0.961 . S
H660 C658 0.961 . S
H661 C658 0.960 . S
C662 N663 1.342 . S
C662 C666 1.401 . S
C662 C667 1.499 . S
N663 Co646 1.989 . S
N663 C662 1.342 . S
N663 N664 1.388 . S
N664 Co647 1.993 . S
N664 N663 1.388 . S
N664 C665 1.346 . S
C665 N664 1.346 . S
C665 C666 1.396 . S
C665 C675 1.510 . S
C666 C662 1.401 . S
C666 C665 1.396 . S
C667 C662 1.499 . S
C667 H668 0.959 . S
C667 H669 0.960 . S
C667 H670 0.961 . S
H668 C667 0.959 . S
H669 C667 0.960 . S
H670 C667 0.961 . S
O671 Co646 1.967 . S
O671 C679 1.258 . S
O672 Co647 1.941 . S
O672 C679 1.266 . S
H673 C675 0.959 . S
H674 C675 0.961 . S
C675 C665 1.510 . S
C675 H673 0.959 . S
C675 H674 0.961 . S
C675 H676 0.960 . S
H676 C675 0.960 . S
H677 N657 0.862 . S
O678 Co646 1.920 . S
O678 C651 1.289 . S
C679 O671 1.258 . S
C679 O672 1.266 . S
Co680 O683 1.970 . S
Co680 N697 1.989 . S
Co680 O705 1.967 . S
Co680 O712 1.920 . S
Co681 O684 1.966 . S
Co681 N690 2.022 . S
Co681 N698 1.993 . S
Co681 O706 1.941 . S
C682 O683 1.258 . S
C682 O684 1.263 . S
O683 Co680 1.970 . S
O683 C682 1.258 . S
O684 Co681 1.966 . S
O684 C682 1.263 . S
C685 O686 1.235 . S
C685 O712 1.289 . S
O686 C685 1.235 . S
C687 C689 1.400 . S
C687 N690 1.351 . S
C687 C692 1.501 . S
C688 C689 1.387 . S
C688 N691 1.341 . S
C689 C687 1.400 . S
C689 C688 1.387 . S
N690 Co681 2.022 . S
N690 C687 1.351 . S
N690 N691 1.365 . S
N691 C688 1.341 . S
N691 N690 1.365 . S
N691 H711 0.862 . S
C692 C687 1.501 . S
C692 H693 0.961 . S
C692 H694 0.961 . S
C692 H695 0.960 . S
H693 C692 0.961 . S
H694 C692 0.961 . S
H695 C692 0.960 . S
C696 N697 1.342 . S
C696 C700 1.401 . S
C696 C701 1.499 . S
N697 Co680 1.989 . S
N697 C696 1.342 . S
N697 N698 1.388 . S
N698 Co681 1.993 . S
N698 N697 1.388 . S
N698 C699 1.346 . S
C699 N698 1.346 . S
C699 C700 1.396 . S
C699 C709 1.510 . S
C700 C696 1.401 . S
C700 C699 1.396 . S
C701 C696 1.499 . S
C701 H702 0.959 . S
C701 H703 0.960 . S
C701 H704 0.961 . S
H702 C701 0.959 . S
H703 C701 0.960 . S
H704 C701 0.961 . S
O705 Co680 1.967 . S
O705 C713 1.258 . S
O706 Co681 1.941 . S
O706 C713 1.266 . S
H707 C709 0.959 . S
H708 C709 0.961 . S
C709 C699 1.510 . S
C709 H707 0.959 . S
C709 H708 0.961 . S
C709 H710 0.960 . S
H710 C709 0.960 . S
H711 N691 0.862 . S
O712 Co680 1.920 . S
O712 C685 1.289 . S
C713 O705 1.258 . S
C713 O706 1.266 . S
Co714 O717 1.970 . S
Co714 N731 1.989 . S
Co714 O739 1.967 1_556 S
Co714 O746 1.920 . S
Co715 O718 1.966 . S
Co715 N724 2.022 . S
Co715 N732 1.993 . S
Co715 O740 1.941 1_556 S
C716 O717 1.258 . S
C716 O718 1.263 . S
O717 Co714 1.970 . S
O717 C716 1.258 . S
O718 Co715 1.966 . S
O718 C716 1.263 . S
C719 O720 1.235 . S
C719 O746 1.289 . S
O720 C719 1.235 . S
C721 C723 1.400 . S
C721 N724 1.351 . S
C721 C726 1.501 . S
C722 C723 1.387 . S
C722 N725 1.341 . S
C723 C721 1.400 . S
C723 C722 1.387 . S
N724 Co715 2.022 . S
N724 C721 1.351 . S
N724 N725 1.365 . S
N725 C722 1.341 . S
N725 N724 1.365 . S
N725 H745 0.862 . S
C726 C721 1.501 . S
C726 H727 0.961 . S
C726 H728 0.961 . S
C726 H729 0.960 . S
H727 C726 0.961 . S
H728 C726 0.961 . S
H729 C726 0.960 . S
C730 N731 1.342 . S
C730 C734 1.401 . S
C730 C735 1.499 . S
N731 Co714 1.989 . S
N731 C730 1.342 . S
N731 N732 1.388 . S
N732 Co715 1.993 . S
N732 N731 1.388 . S
N732 C733 1.346 . S
C733 N732 1.346 . S
C733 C734 1.396 . S
C733 C743 1.510 . S
C734 C730 1.401 . S
C734 C733 1.396 . S
C735 C730 1.499 . S
C735 H736 0.959 . S
C735 H737 0.960 . S
C735 H738 0.961 . S
H736 C735 0.959 . S
H737 C735 0.960 . S
H738 C735 0.961 . S
O739 Co714 1.967 1_554 S
O739 C747 1.258 . S
O740 Co715 1.941 1_554 S
O740 C747 1.266 . S
H741 C743 0.959 . S
H742 C743 0.961 . S
C743 C733 1.510 . S
C743 H741 0.959 . S
C743 H742 0.961 . S
C743 H744 0.960 . S
H744 C743 0.960 . S
H745 N725 0.862 . S
O746 Co714 1.920 . S
O746 C719 1.289 . S
C747 O739 1.258 . S
C747 O740 1.266 . S
Co748 O751 1.970 . S
Co748 N765 1.989 . S
Co748 O773 1.967 1_556 S
Co748 O780 1.920 . S
Co749 O752 1.966 . S
Co749 N758 2.022 . S
Co749 N766 1.993 . S
Co749 O774 1.941 1_556 S
C750 O751 1.258 . S
C750 O752 1.263 . S
O751 Co748 1.970 . S
O751 C750 1.258 . S
O752 Co749 1.966 . S
O752 C750 1.263 . S
C753 O754 1.235 . S
C753 O780 1.289 . S
O754 C753 1.235 . S
C755 C757 1.400 . S
C755 N758 1.351 . S
C755 C760 1.501 . S
C756 C757 1.387 . S
C756 N759 1.341 . S
C757 C755 1.400 . S
C757 C756 1.387 . S
N758 Co749 2.022 . S
N758 C755 1.351 . S
N758 N759 1.365 . S
N759 C756 1.341 . S
N759 N758 1.365 . S
N759 H779 0.862 . S
C760 C755 1.501 . S
C760 H761 0.961 . S
C760 H762 0.961 . S
C760 H763 0.960 . S
H761 C760 0.961 . S
H762 C760 0.961 . S
H763 C760 0.960 . S
C764 N765 1.342 . S
C764 C768 1.401 . S
C764 C769 1.499 . S
N765 Co748 1.989 . S
N765 C764 1.342 . S
N765 N766 1.388 . S
N766 Co749 1.993 . S
N766 N765 1.388 . S
N766 C767 1.346 . S
C767 N766 1.346 . S
C767 C768 1.396 . S
C767 C777 1.510 . S
C768 C764 1.401 . S
C768 C767 1.396 . S
C769 C764 1.499 . S
C769 H770 0.959 . S
C769 H771 0.960 . S
C769 H772 0.961 . S
H770 C769 0.959 . S
H771 C769 0.960 . S
H772 C769 0.961 . S
O773 Co748 1.967 1_554 S
O773 C781 1.258 . S
O774 Co749 1.941 1_554 S
O774 C781 1.266 . S
H775 C777 0.959 . S
H776 C777 0.961 . S
C777 C767 1.510 . S
C777 H775 0.959 . S
C777 H776 0.961 . S
C777 H778 0.960 . S
H778 C777 0.960 . S
H779 N759 0.862 . S
O780 Co748 1.920 . S
O780 C753 1.289 . S
C781 O773 1.258 . S
C781 O774 1.266 . S
Co782 O785 1.970 . S
Co782 N799 1.989 . S
Co782 O807 1.967 1_556 S
Co782 O814 1.920 . S
Co783 O786 1.966 . S
Co783 N792 2.022 . S
Co783 N800 1.993 . S
Co783 O808 1.941 1_556 S
C784 O785 1.258 . S
C784 O786 1.263 . S
O785 Co782 1.970 . S
O785 C784 1.258 . S
O786 Co783 1.966 . S
O786 C784 1.263 . S
C787 O788 1.235 . S
C787 O814 1.289 . S
O788 C787 1.235 . S
C789 C791 1.400 . S
C789 N792 1.351 . S
C789 C794 1.501 . S
C790 C791 1.387 . S
C790 N793 1.341 . S
C791 C789 1.400 . S
C791 C790 1.387 . S
N792 Co783 2.022 . S
N792 C789 1.351 . S
N792 N793 1.365 . S
N793 C790 1.341 . S
N793 N792 1.365 . S
N793 H813 0.862 . S
C794 C789 1.501 . S
C794 H795 0.961 . S
C794 H796 0.961 . S
C794 H797 0.960 . S
H795 C794 0.961 . S
H796 C794 0.961 . S
H797 C794 0.960 . S
C798 N799 1.342 . S
C798 C802 1.401 . S
C798 C803 1.499 . S
N799 Co782 1.989 . S
N799 C798 1.342 . S
N799 N800 1.388 . S
N800 Co783 1.993 . S
N800 N799 1.388 . S
N800 C801 1.346 . S
C801 N800 1.346 . S
C801 C802 1.396 . S
C801 C811 1.510 . S
C802 C798 1.401 . S
C802 C801 1.396 . S
C803 C798 1.499 . S
C803 H804 0.959 . S
C803 H805 0.960 . S
C803 H806 0.961 . S
H804 C803 0.959 . S
H805 C803 0.960 . S
H806 C803 0.961 . S
O807 Co782 1.967 1_554 S
O807 C815 1.258 . S
O808 Co783 1.941 1_554 S
O808 C815 1.266 . S
H809 C811 0.959 . S
H810 C811 0.961 . S
C811 C801 1.510 . S
C811 H809 0.959 . S
C811 H810 0.961 . S
C811 H812 0.960 . S
H812 C811 0.960 . S
H813 N793 0.862 . S
O814 Co782 1.920 . S
O814 C787 1.289 . S
C815 O807 1.258 . S
C815 O808 1.266 . S
Co816 O819 1.970 . S
Co816 N833 1.989 . S
Co816 O841 1.967 . S
Co816 O848 1.920 . S
Co817 O820 1.966 . S
Co817 N826 2.022 . S
Co817 N834 1.993 . S
Co817 O842 1.941 . S
C818 O819 1.258 . S
C818 O820 1.263 . S
O819 Co816 1.970 . S
O819 C818 1.258 . S
O820 Co817 1.966 . S
O820 C818 1.263 . S
C821 O822 1.235 . S
C821 O848 1.289 . S
O822 C821 1.235 . S
C823 C825 1.400 . S
C823 N826 1.351 . S
C823 C828 1.501 . S
C824 C825 1.387 . S
C824 N827 1.341 . S
C825 C823 1.400 . S
C825 C824 1.387 . S
N826 Co817 2.022 . S
N826 C823 1.351 . S
N826 N827 1.365 . S
N827 C824 1.341 . S
N827 N826 1.365 . S
N827 H847 0.862 . S
C828 C823 1.501 . S
C828 H829 0.961 . S
C828 H830 0.961 . S
C828 H831 0.960 . S
H829 C828 0.961 . S
H830 C828 0.961 . S
H831 C828 0.960 . S
C832 N833 1.342 . S
C832 C836 1.401 . S
C832 C837 1.499 . S
N833 Co816 1.989 . S
N833 C832 1.342 . S
N833 N834 1.388 . S
N834 Co817 1.993 . S
N834 N833 1.388 . S
N834 C835 1.346 . S
C835 N834 1.346 . S
C835 C836 1.396 . S
C835 C845 1.510 . S
C836 C832 1.401 . S
C836 C835 1.396 . S
C837 C832 1.499 . S
C837 H838 0.959 . S
C837 H839 0.960 . S
C837 H840 0.961 . S
H838 C837 0.959 . S
H839 C837 0.960 . S
H840 C837 0.961 . S
O841 Co816 1.967 . S
O841 C849 1.258 . S
O842 Co817 1.941 . S
O842 C849 1.266 . S
H843 C845 0.959 . S
H844 C845 0.961 . S
C845 C835 1.510 . S
C845 H843 0.959 . S
C845 H844 0.961 . S
C845 H846 0.960 . S
H846 C845 0.960 . S
H847 N827 0.862 . S
O848 Co816 1.920 . S
O848 C821 1.289 . S
C849 O841 1.258 . S
C849 O842 1.266 . S
Co850 O853 1.970 . S
Co850 N867 1.989 . S
Co850 O875 1.967 . S
Co850 O882 1.920 . S
Co851 O854 1.966 . S
Co851 N860 2.022 . S
Co851 N868 1.993 . S
Co851 O876 1.941 . S
C852 O853 1.258 . S
C852 O854 1.263 . S
O853 Co850 1.970 . S
O853 C852 1.258 . S
O854 Co851 1.966 . S
O854 C852 1.263 . S
C855 O856 1.235 . S
C855 O882 1.289 . S
O856 C855 1.235 . S
C857 C859 1.400 . S
C857 N860 1.351 . S
C857 C862 1.501 . S
C858 C859 1.387 . S
C858 N861 1.341 . S
C859 C857 1.400 . S
C859 C858 1.387 . S
N860 Co851 2.022 . S
N860 C857 1.351 . S
N860 N861 1.365 . S
N861 C858 1.341 . S
N861 N860 1.365 . S
N861 H881 0.862 . S
C862 C857 1.501 . S
C862 H863 0.961 . S
C862 H864 0.961 . S
C862 H865 0.960 . S
H863 C862 0.961 . S
H864 C862 0.961 . S
H865 C862 0.960 . S
C866 N867 1.342 . S
C866 C870 1.401 . S
C866 C871 1.499 . S
N867 Co850 1.989 . S
N867 C866 1.342 . S
N867 N868 1.388 . S
N868 Co851 1.993 . S
N868 N867 1.388 . S
N868 C869 1.346 . S
C869 N868 1.346 . S
C869 C870 1.396 . S
C869 C879 1.510 . S
C870 C866 1.401 . S
C870 C869 1.396 . S
C871 C866 1.499 . S
C871 H872 0.959 . S
C871 H873 0.960 . S
C871 H874 0.961 . S
H872 C871 0.959 . S
H873 C871 0.960 . S
H874 C871 0.961 . S
O875 Co850 1.967 . S
O875 C883 1.258 . S
O876 Co851 1.941 . S
O876 C883 1.266 . S
H877 C879 0.959 . S
H878 C879 0.961 . S
C879 C869 1.510 . S
C879 H877 0.959 . S
C879 H878 0.961 . S
C879 H880 0.960 . S
H880 C879 0.960 . S
H881 N861 0.862 . S
O882 Co850 1.920 . S
O882 C855 1.289 . S
C883 O875 1.258 . S
C883 O876 1.266 . S
Co884 O887 1.970 . S
Co884 N901 1.989 . S
Co884 O909 1.967 . S
Co884 O916 1.920 . S
Co885 O888 1.966 . S
Co885 N894 2.022 . S
Co885 N902 1.993 . S
Co885 O910 1.941 . S
C886 O887 1.258 . S
C886 O888 1.263 . S
O887 Co884 1.970 . S
O887 C886 1.258 . S
O888 Co885 1.966 . S
O888 C886 1.263 . S
C889 O890 1.235 . S
C889 O916 1.289 . S
O890 C889 1.235 . S
C891 C893 1.400 . S
C891 N894 1.351 . S
C891 C896 1.501 . S
C892 C893 1.387 . S
C892 N895 1.341 . S
C893 C891 1.400 . S
C893 C892 1.387 . S
N894 Co885 2.022 . S
N894 C891 1.351 . S
N894 N895 1.365 . S
N895 C892 1.341 . S
N895 N894 1.365 . S
N895 H915 0.862 . S
C896 C891 1.501 . S
C896 H897 0.961 . S
C896 H898 0.961 . S
C896 H899 0.960 . S
H897 C896 0.961 . S
H898 C896 0.961 . S
H899 C896 0.960 . S
C900 N901 1.342 . S
C900 C904 1.401 . S
C900 C905 1.499 . S
N901 Co884 1.989 . S
N901 C900 1.342 . S
N901 N902 1.388 . S
N902 Co885 1.993 . S
N902 N901 1.388 . S
N902 C903 1.346 . S
C903 N902 1.346 . S
C903 C904 1.396 . S
C903 C913 1.510 . S
C904 C900 1.401 . S
C904 C903 1.396 . S
C905 C900 1.499 . S
C905 H906 0.959 . S
C905 H907 0.960 . S
C905 H908 0.961 . S
H906 C905 0.959 . S
H907 C905 0.960 . S
H908 C905 0.961 . S
O909 Co884 1.967 . S
O909 C917 1.258 . S
O910 Co885 1.941 . S
O910 C917 1.266 . S
H911 C913 0.959 . S
H912 C913 0.961 . S
C913 C903 1.510 . S
C913 H911 0.959 . S
C913 H912 0.961 . S
C913 H914 0.960 . S
H914 C913 0.960 . S
H915 N895 0.862 . S
O916 Co884 1.920 . S
O916 C889 1.289 . S
C917 O909 1.258 . S
C917 O910 1.266 . S
Co918 O921 1.970 . S
Co918 N935 1.989 . S
Co918 O943 1.967 1_554 S
Co918 O950 1.920 . S
Co919 O922 1.966 . S
Co919 N928 2.022 . S
Co919 N936 1.993 . S
Co919 O944 1.941 1_554 S
C920 O921 1.258 . S
C920 O922 1.263 . S
O921 Co918 1.970 . S
O921 C920 1.258 . S
O922 Co919 1.966 . S
O922 C920 1.263 . S
C923 O924 1.235 . S
C923 O950 1.289 . S
O924 C923 1.235 . S
C925 C927 1.400 . S
C925 N928 1.351 . S
C925 C930 1.501 . S
C926 C927 1.387 . S
C926 N929 1.341 . S
C927 C925 1.400 . S
C927 C926 1.387 . S
N928 Co919 2.022 . S
N928 C925 1.351 . S
N928 N929 1.365 . S
N929 C926 1.341 . S
N929 N928 1.365 . S
N929 H949 0.862 . S
C930 C925 1.501 . S
C930 H931 0.961 . S
C930 H932 0.961 . S
C930 H933 0.960 . S
H931 C930 0.961 . S
H932 C930 0.961 . S
H933 C930 0.960 . S
C934 N935 1.342 . S
C934 C938 1.401 . S
C934 C939 1.499 . S
N935 Co918 1.989 . S
N935 C934 1.342 . S
N935 N936 1.388 . S
N936 Co919 1.993 . S
N936 N935 1.388 . S
N936 C937 1.346 . S
C937 N936 1.346 . S
C937 C938 1.396 . S
C937 C947 1.510 . S
C938 C934 1.401 . S
C938 C937 1.396 . S
C939 C934 1.499 . S
C939 H940 0.959 . S
C939 H941 0.960 . S
C939 H942 0.961 . S
H940 C939 0.959 . S
H941 C939 0.960 . S
H942 C939 0.961 . S
O943 Co918 1.967 1_556 S
O943 C951 1.258 . S
O944 Co919 1.941 1_556 S
O944 C951 1.266 . S
H945 C947 0.959 . S
H946 C947 0.961 . S
C947 C937 1.510 . S
C947 H945 0.959 . S
C947 H946 0.961 . S
C947 H948 0.960 . S
H948 C947 0.960 . S
H949 N929 0.862 . S
O950 Co918 1.920 . S
O950 C923 1.289 . S
C951 O943 1.258 . S
C951 O944 1.266 . S
Co952 O955 1.970 . S
Co952 N969 1.989 . S
Co952 O977 1.967 1_554 S
Co952 O984 1.920 . S
Co953 O956 1.966 . S
Co953 N962 2.022 . S
Co953 N970 1.993 . S
Co953 O978 1.941 1_554 S
C954 O955 1.258 . S
C954 O956 1.263 . S
O955 Co952 1.970 . S
O955 C954 1.258 . S
O956 Co953 1.966 . S
O956 C954 1.263 . S
C957 O958 1.235 . S
C957 O984 1.289 . S
O958 C957 1.235 . S
C959 C961 1.400 . S
C959 N962 1.351 . S
C959 C964 1.501 . S
C960 C961 1.387 . S
C960 N963 1.341 . S
C961 C959 1.400 . S
C961 C960 1.387 . S
N962 Co953 2.022 . S
N962 C959 1.351 . S
N962 N963 1.365 . S
N963 C960 1.341 . S
N963 N962 1.365 . S
N963 H983 0.862 . S
C964 C959 1.501 . S
C964 H965 0.961 . S
C964 H966 0.961 . S
C964 H967 0.960 . S
H965 C964 0.961 . S
H966 C964 0.961 . S
H967 C964 0.960 . S
C968 N969 1.342 . S
C968 C972 1.401 . S
C968 C973 1.499 . S
N969 Co952 1.989 . S
N969 C968 1.342 . S
N969 N970 1.388 . S
N970 Co953 1.993 . S
N970 N969 1.388 . S
N970 C971 1.346 . S
C971 N970 1.346 . S
C971 C972 1.396 . S
C971 C981 1.510 . S
C972 C968 1.401 . S
C972 C971 1.396 . S
C973 C968 1.499 . S
C973 H974 0.959 . S
C973 H975 0.960 . S
C973 H976 0.961 . S
H974 C973 0.959 . S
H975 C973 0.960 . S
H976 C973 0.961 . S
O977 Co952 1.967 1_556 S
O977 C985 1.258 . S
O978 Co953 1.941 1_556 S
O978 C985 1.266 . S
H979 C981 0.959 . S
H980 C981 0.961 . S
C981 C971 1.510 . S
C981 H979 0.959 . S
C981 H980 0.961 . S
C981 H982 0.960 . S
H982 C981 0.960 . S
H983 N963 0.862 . S
O984 Co952 1.920 . S
O984 C957 1.289 . S
C985 O977 1.258 . S
C985 O978 1.266 . S
Co986 O989 1.970 . S
Co986 N1003 1.989 . S
Co986 O1011 1.967 1_554 S
Co986 O1018 1.920 . S
Co987 O990 1.966 . S
Co987 N996 2.022 . S
Co987 N1004 1.993 . S
Co987 O1012 1.941 1_554 S
C988 O989 1.258 . S
C988 O990 1.263 . S
O989 Co986 1.970 . S
O989 C988 1.258 . S
O990 Co987 1.966 . S
O990 C988 1.263 . S
C991 O992 1.235 . S
C991 O1018 1.289 . S
O992 C991 1.235 . S
C993 C995 1.400 . S
C993 N996 1.351 . S
C993 C998 1.501 . S
C994 C995 1.387 . S
C994 N997 1.341 . S
C995 C993 1.400 . S
C995 C994 1.387 . S
N996 Co987 2.022 . S
N996 C993 1.351 . S
N996 N997 1.365 . S
N997 C994 1.341 . S
N997 N996 1.365 . S
N997 H1017 0.862 . S
C998 C993 1.501 . S
C998 H999 0.961 . S
C998 H1000 0.961 . S
C998 H1001 0.960 . S
H999 C998 0.961 . S
H1000 C998 0.961 . S
H1001 C998 0.960 . S
C1002 N1003 1.342 . S
C1002 C1006 1.401 . S
C1002 C1007 1.499 . S
N1003 Co986 1.989 . S
N1003 C1002 1.342 . S
N1003 N1004 1.388 . S
N1004 Co987 1.993 . S
N1004 N1003 1.388 . S
N1004 C1005 1.346 . S
C1005 N1004 1.346 . S
C1005 C1006 1.396 . S
C1005 C1015 1.510 . S
C1006 C1002 1.401 . S
C1006 C1005 1.396 . S
C1007 C1002 1.499 . S
C1007 H1008 0.959 . S
C1007 H1009 0.960 . S
C1007 H1010 0.961 . S
H1008 C1007 0.959 . S
H1009 C1007 0.960 . S
H1010 C1007 0.961 . S
O1011 Co986 1.967 1_556 S
O1011 C1019 1.258 . S
O1012 Co987 1.941 1_556 S
O1012 C1019 1.266 . S
H1013 C1015 0.959 . S
H1014 C1015 0.961 . S
C1015 C1005 1.510 . S
C1015 H1013 0.959 . S
C1015 H1014 0.961 . S
C1015 H1016 0.960 . S
H1016 C1015 0.960 . S
H1017 N997 0.862 . S
O1018 Co986 1.920 . S
O1018 C991 1.289 . S
C1019 O1011 1.258 . S
C1019 O1012 1.266 . S
Co1020 O1023 1.970 . S
Co1020 N1037 1.989 . S
Co1020 O1045 1.967 . S
Co1020 O1052 1.920 . S
Co1021 O1024 1.966 . S
Co1021 N1030 2.022 . S
Co1021 N1038 1.993 . S
Co1021 O1046 1.941 . S
C1022 O1023 1.258 . S
C1022 O1024 1.263 . S
O1023 Co1020 1.970 . S
O1023 C1022 1.258 . S
O1024 Co1021 1.966 . S
O1024 C1022 1.263 . S
C1025 O1026 1.235 . S
C1025 O1052 1.289 . S
O1026 C1025 1.235 . S
C1027 C1029 1.400 . S
C1027 N1030 1.351 . S
C1027 C1032 1.501 . S
C1028 C1029 1.387 . S
C1028 N1031 1.341 . S
C1029 C1027 1.400 . S
C1029 C1028 1.387 . S
N1030 Co1021 2.022 . S
N1030 C1027 1.351 . S
N1030 N1031 1.365 . S
N1031 C1028 1.341 . S
N1031 N1030 1.365 . S
N1031 H1051 0.862 . S
C1032 C1027 1.501 . S
C1032 H1033 0.961 . S
C1032 H1034 0.961 . S
C1032 H1035 0.960 . S
H1033 C1032 0.961 . S
H1034 C1032 0.961 . S
H1035 C1032 0.960 . S
C1036 N1037 1.342 . S
C1036 C1040 1.401 . S
C1036 C1041 1.499 . S
N1037 Co1020 1.989 . S
N1037 C1036 1.342 . S
N1037 N1038 1.388 . S
N1038 Co1021 1.993 . S
N1038 N1037 1.388 . S
N1038 C1039 1.346 . S
C1039 N1038 1.346 . S
C1039 C1040 1.396 . S
C1039 C1049 1.510 . S
C1040 C1036 1.401 . S
C1040 C1039 1.396 . S
C1041 C1036 1.499 . S
C1041 H1042 0.959 . S
C1041 H1043 0.960 . S
C1041 H1044 0.961 . S
H1042 C1041 0.959 . S
H1043 C1041 0.960 . S
H1044 C1041 0.961 . S
O1045 Co1020 1.967 . S
O1045 C1053 1.258 . S
O1046 Co1021 1.941 . S
O1046 C1053 1.266 . S
H1047 C1049 0.959 . S
H1048 C1049 0.961 . S
C1049 C1039 1.510 . S
C1049 H1047 0.959 . S
C1049 H1048 0.961 . S
C1049 H1050 0.960 . S
H1050 C1049 0.960 . S
H1051 N1031 0.862 . S
O1052 Co1020 1.920 . S
O1052 C1025 1.289 . S
C1053 O1045 1.258 . S
C1053 O1046 1.266 . S
Co1054 O1057 1.970 . S
Co1054 N1071 1.989 . S
Co1054 O1079 1.967 . S
Co1054 O1086 1.920 . S
Co1055 O1058 1.966 . S
Co1055 N1064 2.022 . S
Co1055 N1072 1.993 . S
Co1055 O1080 1.941 . S
C1056 O1057 1.258 . S
C1056 O1058 1.263 . S
O1057 Co1054 1.970 . S
O1057 C1056 1.258 . S
O1058 Co1055 1.966 . S
O1058 C1056 1.263 . S
C1059 O1060 1.235 . S
C1059 O1086 1.289 . S
O1060 C1059 1.235 . S
C1061 C1063 1.400 . S
C1061 N1064 1.351 . S
C1061 C1066 1.501 . S
C1062 C1063 1.387 . S
C1062 N1065 1.341 . S
C1063 C1061 1.400 . S
C1063 C1062 1.387 . S
N1064 Co1055 2.022 . S
N1064 C1061 1.351 . S
N1064 N1065 1.365 . S
N1065 C1062 1.341 . S
N1065 N1064 1.365 . S
N1065 H1085 0.862 . S
C1066 C1061 1.501 . S
C1066 H1067 0.961 . S
C1066 H1068 0.961 . S
C1066 H1069 0.960 . S
H1067 C1066 0.961 . S
H1068 C1066 0.961 . S
H1069 C1066 0.960 . S
C1070 N1071 1.342 . S
C1070 C1074 1.401 . S
C1070 C1075 1.499 . S
N1071 Co1054 1.989 . S
N1071 C1070 1.342 . S
N1071 N1072 1.388 . S
N1072 Co1055 1.993 . S
N1072 N1071 1.388 . S
N1072 C1073 1.346 . S
C1073 N1072 1.346 . S
C1073 C1074 1.396 . S
C1073 C1083 1.510 . S
C1074 C1070 1.401 . S
C1074 C1073 1.396 . S
C1075 C1070 1.499 . S
C1075 H1076 0.959 . S
C1075 H1077 0.960 . S
C1075 H1078 0.961 . S
H1076 C1075 0.959 . S
H1077 C1075 0.960 . S
H1078 C1075 0.961 . S
O1079 Co1054 1.967 . S
O1079 C1087 1.258 . S
O1080 Co1055 1.941 . S
O1080 C1087 1.266 . S
H1081 C1083 0.959 . S
H1082 C1083 0.961 . S
C1083 C1073 1.510 . S
C1083 H1081 0.959 . S
C1083 H1082 0.961 . S
C1083 H1084 0.960 . S
H1084 C1083 0.960 . S
H1085 N1065 0.862 . S
O1086 Co1054 1.920 . S
O1086 C1059 1.289 . S
C1087 O1079 1.258 . S
C1087 O1080 1.266 . S
Co1088 O1091 1.970 . S
Co1088 N1105 1.989 . S
Co1088 O1113 1.967 . S
Co1088 O1120 1.920 . S
Co1089 O1092 1.966 . S
Co1089 N1098 2.022 . S
Co1089 N1106 1.993 . S
Co1089 O1114 1.941 . S
C1090 O1091 1.258 . S
C1090 O1092 1.263 . S
O1091 Co1088 1.970 . S
O1091 C1090 1.258 . S
O1092 Co1089 1.966 . S
O1092 C1090 1.263 . S
C1093 O1094 1.235 . S
C1093 O1120 1.289 . S
O1094 C1093 1.235 . S
C1095 C1097 1.400 . S
C1095 N1098 1.351 . S
C1095 C1100 1.501 . S
C1096 C1097 1.387 . S
C1096 N1099 1.341 . S
C1097 C1095 1.400 . S
C1097 C1096 1.387 . S
N1098 Co1089 2.022 . S
N1098 C1095 1.351 . S
N1098 N1099 1.365 . S
N1099 C1096 1.341 . S
N1099 N1098 1.365 . S
N1099 H1119 0.862 . S
C1100 C1095 1.501 . S
C1100 H1101 0.961 . S
C1100 H1102 0.961 . S
C1100 H1103 0.960 . S
H1101 C1100 0.961 . S
H1102 C1100 0.961 . S
H1103 C1100 0.960 . S
C1104 N1105 1.342 . S
C1104 C1108 1.401 . S
C1104 C1109 1.499 . S
N1105 Co1088 1.989 . S
N1105 C1104 1.342 . S
N1105 N1106 1.388 . S
N1106 Co1089 1.993 . S
N1106 N1105 1.388 . S
N1106 C1107 1.346 . S
C1107 N1106 1.346 . S
C1107 C1108 1.396 . S
C1107 C1117 1.510 . S
C1108 C1104 1.401 . S
C1108 C1107 1.396 . S
C1109 C1104 1.499 . S
C1109 H1110 0.959 . S
C1109 H1111 0.960 . S
C1109 H1112 0.961 . S
H1110 C1109 0.959 . S
H1111 C1109 0.960 . S
H1112 C1109 0.961 . S
O1113 Co1088 1.967 . S
O1113 C1121 1.258 . S
O1114 Co1089 1.941 . S
O1114 C1121 1.266 . S
H1115 C1117 0.959 . S
H1116 C1117 0.961 . S
C1117 C1107 1.510 . S
C1117 H1115 0.959 . S
C1117 H1116 0.961 . S
C1117 H1118 0.960 . S
H1118 C1117 0.960 . S
H1119 N1099 0.862 . S
O1120 Co1088 1.920 . S
O1120 C1093 1.289 . S
C1121 O1113 1.258 . S
C1121 O1114 1.266 . S
Co1122 O1125 1.970 . S
Co1122 N1139 1.989 . S
Co1122 O1147 1.967 . S
Co1122 O1154 1.920 . S
Co1123 O1126 1.966 . S
Co1123 N1132 2.022 . S
Co1123 N1140 1.993 . S
Co1123 O1148 1.941 . S
C1124 O1125 1.258 . S
C1124 O1126 1.263 . S
O1125 Co1122 1.970 . S
O1125 C1124 1.258 . S
O1126 Co1123 1.966 . S
O1126 C1124 1.263 . S
C1127 O1128 1.235 . S
C1127 O1154 1.289 . S
O1128 C1127 1.235 . S
C1129 C1131 1.400 . S
C1129 N1132 1.351 . S
C1129 C1134 1.501 . S
C1130 C1131 1.387 . S
C1130 N1133 1.341 . S
C1131 C1129 1.400 . S
C1131 C1130 1.387 . S
N1132 Co1123 2.022 . S
N1132 C1129 1.351 . S
N1132 N1133 1.365 . S
N1133 C1130 1.341 . S
N1133 N1132 1.365 . S
N1133 H1153 0.862 . S
C1134 C1129 1.501 . S
C1134 H1135 0.961 . S
C1134 H1136 0.961 . S
C1134 H1137 0.960 . S
H1135 C1134 0.961 . S
H1136 C1134 0.961 . S
H1137 C1134 0.960 . S
C1138 N1139 1.342 . S
C1138 C1142 1.401 . S
C1138 C1143 1.499 . S
N1139 Co1122 1.989 . S
N1139 C1138 1.342 . S
N1139 N1140 1.388 . S
N1140 Co1123 1.993 . S
N1140 N1139 1.388 . S
N1140 C1141 1.346 . S
C1141 N1140 1.346 . S
C1141 C1142 1.396 . S
C1141 C1151 1.510 . S
C1142 C1138 1.401 . S
C1142 C1141 1.396 . S
C1143 C1138 1.499 . S
C1143 H1144 0.959 . S
C1143 H1145 0.960 . S
C1143 H1146 0.961 . S
H1144 C1143 0.959 . S
H1145 C1143 0.960 . S
H1146 C1143 0.961 . S
O1147 Co1122 1.967 . S
O1147 C1155 1.258 . S
O1148 Co1123 1.941 . S
O1148 C1155 1.266 . S
H1149 C1151 0.959 . S
H1150 C1151 0.961 . S
C1151 C1141 1.510 . S
C1151 H1149 0.959 . S
C1151 H1150 0.961 . S
C1151 H1152 0.960 . S
H1152 C1151 0.960 . S
H1153 N1133 0.862 . S
O1154 Co1122 1.920 . S
O1154 C1127 1.289 . S
C1155 O1147 1.258 . S
C1155 O1148 1.266 . S
Co1156 O1159 1.970 . S
Co1156 N1173 1.989 . S
Co1156 O1181 1.967 . S
Co1156 O1188 1.920 . S
Co1157 O1160 1.966 . S
Co1157 N1166 2.022 . S
Co1157 N1174 1.993 . S
Co1157 O1182 1.941 . S
C1158 O1159 1.258 . S
C1158 O1160 1.263 . S
O1159 Co1156 1.970 . S
O1159 C1158 1.258 . S
O1160 Co1157 1.966 . S
O1160 C1158 1.263 . S
C1161 O1162 1.235 . S
C1161 O1188 1.289 . S
O1162 C1161 1.235 . S
C1163 C1165 1.400 . S
C1163 N1166 1.351 . S
C1163 C1168 1.501 . S
C1164 C1165 1.387 . S
C1164 N1167 1.341 . S
C1165 C1163 1.400 . S
C1165 C1164 1.387 . S
N1166 Co1157 2.022 . S
N1166 C1163 1.351 . S
N1166 N1167 1.365 . S
N1167 C1164 1.341 . S
N1167 N1166 1.365 . S
N1167 H1187 0.862 . S
C1168 C1163 1.501 . S
C1168 H1169 0.961 . S
C1168 H1170 0.961 . S
C1168 H1171 0.960 . S
H1169 C1168 0.961 . S
H1170 C1168 0.961 . S
H1171 C1168 0.960 . S
C1172 N1173 1.342 . S
C1172 C1176 1.401 . S
C1172 C1177 1.499 . S
N1173 Co1156 1.989 . S
N1173 C1172 1.342 . S
N1173 N1174 1.388 . S
N1174 Co1157 1.993 . S
N1174 N1173 1.388 . S
N1174 C1175 1.346 . S
C1175 N1174 1.346 . S
C1175 C1176 1.396 . S
C1175 C1185 1.510 . S
C1176 C1172 1.401 . S
C1176 C1175 1.396 . S
C1177 C1172 1.499 . S
C1177 H1178 0.959 . S
C1177 H1179 0.960 . S
C1177 H1180 0.961 . S
H1178 C1177 0.959 . S
H1179 C1177 0.960 . S
H1180 C1177 0.961 . S
O1181 Co1156 1.967 . S
O1181 C1189 1.258 . S
O1182 Co1157 1.941 . S
O1182 C1189 1.266 . S
H1183 C1185 0.959 . S
H1184 C1185 0.961 . S
C1185 C1175 1.510 . S
C1185 H1183 0.959 . S
C1185 H1184 0.961 . S
C1185 H1186 0.960 . S
H1186 C1185 0.960 . S
H1187 N1167 0.862 . S
O1188 Co1156 1.920 . S
O1188 C1161 1.289 . S
C1189 O1181 1.258 . S
C1189 O1182 1.266 . S
Co1190 O1193 1.970 . S
Co1190 N1207 1.989 . S
Co1190 O1215 1.967 . S
Co1190 O1222 1.920 . S
Co1191 O1194 1.966 . S
Co1191 N1200 2.022 . S
Co1191 N1208 1.993 . S
Co1191 O1216 1.941 . S
C1192 O1193 1.258 . S
C1192 O1194 1.263 . S
O1193 Co1190 1.970 . S
O1193 C1192 1.258 . S
O1194 Co1191 1.966 . S
O1194 C1192 1.263 . S
C1195 O1196 1.235 . S
C1195 O1222 1.289 . S
O1196 C1195 1.235 . S
C1197 C1199 1.400 . S
C1197 N1200 1.351 . S
C1197 C1202 1.501 . S
C1198 C1199 1.387 . S
C1198 N1201 1.341 . S
C1199 C1197 1.400 . S
C1199 C1198 1.387 . S
N1200 Co1191 2.022 . S
N1200 C1197 1.351 . S
N1200 N1201 1.365 . S
N1201 C1198 1.341 . S
N1201 N1200 1.365 . S
N1201 H1221 0.862 . S
C1202 C1197 1.501 . S
C1202 H1203 0.961 . S
C1202 H1204 0.961 . S
C1202 H1205 0.960 . S
H1203 C1202 0.961 . S
H1204 C1202 0.961 . S
H1205 C1202 0.960 . S
C1206 N1207 1.342 . S
C1206 C1210 1.401 . S
C1206 C1211 1.499 . S
N1207 Co1190 1.989 . S
N1207 C1206 1.342 . S
N1207 N1208 1.388 . S
N1208 Co1191 1.993 . S
N1208 N1207 1.388 . S
N1208 C1209 1.346 . S
C1209 N1208 1.346 . S
C1209 C1210 1.396 . S
C1209 C1219 1.510 . S
C1210 C1206 1.401 . S
C1210 C1209 1.396 . S
C1211 C1206 1.499 . S
C1211 H1212 0.959 . S
C1211 H1213 0.960 . S
C1211 H1214 0.961 . S
H1212 C1211 0.959 . S
H1213 C1211 0.960 . S
H1214 C1211 0.961 . S
O1215 Co1190 1.967 . S
O1215 C1223 1.258 . S
O1216 Co1191 1.941 . S
O1216 C1223 1.266 . S
H1217 C1219 0.959 . S
H1218 C1219 0.961 . S
C1219 C1209 1.510 . S
C1219 H1217 0.959 . S
C1219 H1218 0.961 . S
C1219 H1220 0.960 . S
H1220 C1219 0.960 . S
H1221 N1201 0.862 . S
O1222 Co1190 1.920 . S
O1222 C1195 1.289 . S
C1223 O1215 1.258 . S
C1223 O1216 1.266 . S
C1224 C1225 1.363 . S
C1224 C1230 1.379 . S
C1224 N1232 1.356 . S
C1225 C1224 1.363 . S
C1225 C1231 1.363 . S
C1226 C1227 1.363 . S
C1226 C1231 1.379 . S
C1226 N1233 1.356 . S
C1227 C1226 1.363 . S
C1227 C1230 1.363 . S
N1228 C1230 1.356 . S
N1228 H1240 0.984 . S
N1228 H1241 0.985 . S
N1229 C1231 1.356 . S
N1229 H1234 0.984 . S
N1229 H1235 0.985 . S
C1230 C1224 1.379 . S
C1230 C1227 1.363 . S
C1230 N1228 1.356 . S
C1231 C1225 1.363 . S
C1231 C1226 1.379 . S
C1231 N1229 1.356 . S
N1232 C1224 1.356 . S
N1232 H1238 0.984 . S
N1232 H1239 0.984 . S
N1233 C1226 1.356 . S
N1233 H1236 0.984 . S
N1233 H1237 0.985 . S
H1234 N1229 0.984 . S
H1235 N1229 0.985 . S
H1236 N1233 0.984 . S
H1237 N1233 0.985 . S
H1238 N1232 0.984 . S
H1239 N1232 0.984 . S
H1240 N1228 0.984 . S
H1241 N1228 0.985 . S
C1242 C1243 1.363 1_545 S
C1242 C1248 1.379 . S
C1242 N1250 1.356 1_545 S
C1243 C1242 1.363 1_565 S
C1243 C1249 1.363 1_565 S
C1244 C1245 1.363 . S
C1244 C1249 1.379 . S
C1244 N1251 1.356 . S
C1245 C1244 1.363 . S
C1245 C1248 1.363 . S
N1246 C1248 1.356 . S
N1246 H1258 0.984 . S
N1246 H1259 0.985 . S
N1247 C1249 1.356 1_565 S
N1247 H1252 0.984 . S
N1247 H1253 0.985 . S
C1248 C1242 1.379 . S
C1248 C1245 1.363 . S
C1248 N1246 1.356 . S
C1249 C1243 1.363 1_545 S
C1249 C1244 1.379 . S
C1249 N1247 1.356 1_545 S
N1250 C1242 1.356 1_565 S
N1250 H1256 0.984 . S
N1250 H1257 0.984 . S
N1251 C1244 1.356 . S
N1251 H1254 0.984 . S
N1251 H1255 0.985 . S
H1252 N1247 0.984 . S
H1253 N1247 0.985 . S
H1254 N1251 0.984 . S
H1255 N1251 0.985 . S
H1256 N1250 0.984 . S
H1257 N1250 0.984 . S
H1258 N1246 0.984 . S
H1259 N1246 0.985 . S
C1260 C1261 1.365 . S
C1260 C1266 1.375 1_455 S
C1260 N1268 1.359 . S
C1261 C1260 1.365 . S
C1261 C1267 1.363 1_455 S
C1262 C1263 1.363 . S
C1262 C1267 1.379 . S
C1262 N1269 1.356 . S
C1263 C1262 1.363 . S
C1263 C1266 1.363 . S
N1264 C1266 1.356 . S
N1264 H1276 0.984 . S
N1264 H1277 0.985 . S
N1265 C1267 1.356 . S
N1265 H1270 0.984 1_655 S
N1265 H1271 0.985 . S
C1266 C1260 1.375 1_655 S
C1266 C1263 1.363 . S
C1266 N1264 1.356 . S
C1267 C1261 1.363 1_655 S
C1267 C1262 1.379 . S
C1267 N1265 1.356 . S
N1268 C1260 1.359 . S
N1268 H1274 0.984 . S
N1268 H1275 0.984 . S
N1269 C1262 1.356 . S
N1269 H1272 0.984 . S
N1269 H1273 0.985 . S
H1270 N1265 0.984 1_455 S
H1271 N1265 0.985 . S
H1272 N1269 0.984 . S
H1273 N1269 0.985 . S
H1274 N1268 0.984 . S
H1275 N1268 0.984 . S
H1276 N1264 0.984 . S
H1277 N1264 0.985 . S
C1278 C1279 1.363 . S
C1278 C1284 1.379 . S
C1278 N1286 1.356 . S
C1279 C1278 1.363 . S
C1279 C1285 1.363 . S
C1280 C1281 1.363 . S
C1280 C1285 1.379 . S
C1280 N1287 1.356 . S
C1281 C1280 1.363 . S
C1281 C1284 1.363 . S
N1282 C1284 1.356 . S
N1282 H1294 0.984 . S
N1282 H1295 0.985 . S
N1283 C1285 1.356 . S
N1283 H1288 0.984 . S
N1283 H1289 0.985 . S
C1284 C1278 1.379 . S
C1284 C1281 1.363 . S
C1284 N1282 1.356 . S
C1285 C1279 1.363 . S
C1285 C1280 1.379 . S
C1285 N1283 1.356 . S
N1286 C1278 1.356 . S
N1286 H1292 0.984 . S
N1286 H1293 0.984 . S
N1287 C1280 1.356 . S
N1287 H1290 0.984 . S
N1287 H1291 0.985 . S
H1288 N1283 0.984 . S
H1289 N1283 0.985 . S
H1290 N1287 0.984 . S
H1291 N1287 0.985 . S
H1292 N1286 0.984 . S
H1293 N1286 0.984 . S
H1294 N1282 0.984 . S
H1295 N1282 0.985 . S
C1296 C1297 1.363 1_565 S
C1296 C1302 1.379 . S
C1296 N1304 1.356 1_565 S
C1297 C1296 1.363 1_545 S
C1297 C1303 1.363 1_545 S
C1298 C1299 1.363 . S
C1298 C1303 1.379 . S
C1298 N1305 1.356 . S
C1299 C1298 1.363 . S
C1299 C1302 1.363 . S
N1300 C1302 1.356 . S
N1300 H1312 0.984 . S
N1300 H1313 0.985 . S
N1301 C1303 1.356 1_545 S
N1301 H1306 0.984 . S
N1301 H1307 0.985 . S
C1302 C1296 1.379 . S
C1302 C1299 1.363 . S
C1302 N1300 1.356 . S
C1303 C1297 1.363 1_565 S
C1303 C1298 1.379 . S
C1303 N1301 1.356 1_565 S
N1304 C1296 1.356 1_545 S
N1304 H1310 0.984 . S
N1304 H1311 0.984 . S
N1305 C1298 1.356 . S
N1305 H1308 0.984 . S
N1305 H1309 0.985 . S
H1306 N1301 0.984 . S
H1307 N1301 0.985 . S
H1308 N1305 0.984 . S
H1309 N1305 0.985 . S
H1310 N1304 0.984 . S
H1311 N1304 0.984 . S
H1312 N1300 0.984 . S
H1313 N1300 0.985 . S
C1314 C1315 1.363 1_455 S
C1314 C1320 1.379 . S
C1314 N1322 1.356 1_455 S
C1315 C1314 1.363 1_655 S
C1315 C1321 1.363 1_655 S
C1316 C1317 1.363 . S
C1316 C1321 1.379 . S
C1316 N1323 1.356 . S
C1317 C1316 1.363 . S
C1317 C1320 1.363 . S
N1318 C1320 1.356 . S
N1318 H1330 0.984 . S
N1318 H1331 0.985 . S
N1319 C1321 1.356 1_655 S
N1319 H1324 0.984 . S
N1319 H1325 0.985 1_655 S
C1320 C1314 1.379 . S
C1320 C1317 1.363 . S
C1320 N1318 1.356 . S
C1321 C1315 1.363 1_455 S
C1321 C1316 1.379 . S
C1321 N1319 1.356 1_455 S
N1322 C1314 1.356 1_655 S
N1322 H1328 0.984 . S
N1322 H1329 0.984 . S
N1323 C1316 1.356 . S
N1323 H1326 0.984 . S
N1323 H1327 0.985 . S
H1324 N1319 0.984 . S
H1325 N1319 0.985 1_455 S
H1326 N1323 0.984 . S
H1327 N1323 0.985 . S
H1328 N1322 0.984 . S
H1329 N1322 0.984 . S
H1330 N1318 0.984 . S
H1331 N1318 0.985 . S
C1332 C1333 1.363 . S
C1332 C1338 1.379 . S
C1332 N1340 1.356 . S
C1333 C1332 1.363 . S
C1333 C1339 1.363 . S
C1334 C1335 1.363 . S
C1334 C1339 1.379 . S
C1334 N1341 1.356 . S
C1335 C1334 1.363 . S
C1335 C1338 1.363 . S
N1336 C1338 1.356 . S
N1336 H1348 0.984 . S
N1336 H1349 0.985 . S
N1337 C1339 1.356 . S
N1337 H1342 0.984 . S
N1337 H1343 0.985 . S
C1338 C1332 1.379 . S
C1338 C1335 1.363 . S
C1338 N1336 1.356 . S
C1339 C1333 1.363 . S
C1339 C1334 1.379 . S
C1339 N1337 1.356 . S
N1340 C1332 1.356 . S
N1340 H1346 0.984 . S
N1340 H1347 0.984 . S
N1341 C1334 1.356 . S
N1341 H1344 0.984 . S
N1341 H1345 0.985 . S
H1342 N1337 0.984 . S
H1343 N1337 0.985 . S
H1344 N1341 0.984 . S
H1345 N1341 0.985 . S
H1346 N1340 0.984 . S
H1347 N1340 0.984 . S
H1348 N1336 0.984 . S
H1349 N1336 0.985 . S
C1350 C1351 1.363 . S
C1350 C1356 1.379 . S
C1350 N1358 1.356 . S
C1351 C1350 1.363 . S
C1351 C1357 1.363 . S
C1352 C1353 1.363 1_565 S
C1352 C1357 1.379 . S
C1352 N1359 1.356 1_565 S
C1353 C1352 1.363 1_545 S
C1353 C1356 1.363 1_545 S
N1354 C1356 1.356 1_545 S
N1354 H1366 0.984 1_545 S
N1354 H1367 0.985 . S
N1355 C1357 1.356 . S
N1355 H1360 0.984 . S
N1355 H1361 0.985 . S
C1356 C1350 1.379 . S
C1356 C1353 1.363 1_565 S
C1356 N1354 1.356 1_565 S
C1357 C1351 1.363 . S
C1357 C1352 1.379 . S
C1357 N1355 1.356 . S
N1358 C1350 1.356 . S
N1358 H1364 0.984 . S
N1358 H1365 0.984 . S
N1359 C1352 1.356 1_545 S
N1359 H1362 0.984 . S
N1359 H1363 0.985 . S
H1360 N1355 0.984 . S
H1361 N1355 0.985 . S
H1362 N1359 0.984 . S
H1363 N1359 0.985 . S
H1364 N1358 0.984 . S
H1365 N1358 0.984 . S
H1366 N1354 0.984 1_565 S
H1367 N1354 0.985 . S
C1368 C1369 1.363 . S
C1368 C1374 1.379 . S
C1368 N1376 1.356 . S
C1369 C1368 1.363 . S
C1369 C1375 1.363 . S
C1370 C1371 1.363 1_455 S
C1370 C1375 1.379 . S
C1370 N1377 1.356 . S
C1371 C1370 1.363 1_655 S
C1371 C1374 1.363 1_655 S
N1372 C1374 1.356 1_655 S
N1372 H1384 0.984 . S
N1372 H1385 0.985 . S
N1373 C1375 1.356 . S
N1373 H1378 0.984 . S
N1373 H1379 0.985 . S
C1374 C1368 1.379 . S
C1374 C1371 1.363 1_455 S
C1374 N1372 1.356 1_455 S
C1375 C1369 1.363 . S
C1375 C1370 1.379 . S
C1375 N1373 1.356 . S
N1376 C1368 1.356 . S
N1376 H1382 0.984 . S
N1376 H1383 0.984 . S
N1377 C1370 1.356 . S
N1377 H1380 0.984 1_455 S
N1377 H1381 0.985 . S
H1378 N1373 0.984 . S
H1379 N1373 0.985 . S
H1380 N1377 0.984 1_655 S
H1381 N1377 0.985 . S
H1382 N1376 0.984 . S
H1383 N1376 0.984 . S
H1384 N1372 0.984 . S
H1385 N1372 0.985 . S
C1386 C1387 1.363 . S
C1386 C1392 1.379 . S
C1386 N1394 1.356 . S
C1387 C1386 1.363 . S
C1387 C1393 1.363 . S
C1388 C1389 1.363 . S
C1388 C1393 1.379 . S
C1388 N1395 1.356 . S
C1389 C1388 1.363 . S
C1389 C1392 1.363 . S
N1390 C1392 1.356 . S
N1390 H1402 0.984 . S
N1390 H1403 0.985 . S
N1391 C1393 1.356 . S
N1391 H1396 0.984 . S
N1391 H1397 0.985 . S
C1392 C1386 1.379 . S
C1392 C1389 1.363 . S
C1392 N1390 1.356 . S
C1393 C1387 1.363 . S
C1393 C1388 1.379 . S
C1393 N1391 1.356 . S
N1394 C1386 1.356 . S
N1394 H1400 0.984 . S
N1394 H1401 0.984 . S
N1395 C1388 1.356 . S
N1395 H1398 0.984 . S
N1395 H1399 0.985 . S
H1396 N1391 0.984 . S
H1397 N1391 0.985 . S
H1398 N1395 0.984 . S
H1399 N1395 0.985 . S
H1400 N1394 0.984 . S
H1401 N1394 0.984 . S
H1402 N1390 0.984 . S
H1403 N1390 0.985 . S
C1404 C1405 1.363 1_545 S
C1404 C1410 1.379 . S
C1404 N1412 1.356 . S
C1405 C1404 1.363 1_565 S
C1405 C1411 1.369 . S
C1406 C1407 1.363 . S
C1406 C1411 1.364 1_545 S
C1406 N1413 1.356 . S
C1407 C1406 1.363 . S
C1407 C1410 1.363 . S
N1408 C1410 1.356 . S
N1408 H1420 0.984 . S
N1408 H1421 0.985 . S
N1409 C1411 1.368 . S
N1409 H1414 0.984 . S
N1409 H1415 0.985 . S
C1410 C1404 1.379 . S
C1410 C1407 1.363 . S
C1410 N1408 1.356 . S
C1411 C1405 1.369 . S
C1411 C1406 1.364 1_565 S
C1411 N1409 1.368 . S
N1412 C1404 1.356 . S
N1412 H1418 0.984 . S
N1412 H1419 0.984 1_545 S
N1413 C1406 1.356 . S
N1413 H1416 0.984 . S
N1413 H1417 0.985 . S
H1414 N1409 0.984 . S
H1415 N1409 0.985 . S
H1416 N1413 0.984 . S
H1417 N1413 0.985 . S
H1418 N1412 0.984 . S
H1419 N1412 0.984 1_565 S
H1420 N1408 0.984 . S
H1421 N1408 0.985 . S
C1422 C1423 1.363 . S
C1422 C1428 1.379 . S
C1422 N1430 1.356 . S
C1423 C1422 1.363 . S
C1423 C1429 1.363 . S
C1424 C1425 1.358 . S
C1424 C1429 1.369 1_455 S
C1424 N1431 1.371 . S
C1425 C1424 1.358 . S
C1425 C1428 1.363 1_455 S
N1426 C1428 1.356 . S
N1426 H1438 0.984 . S
N1426 H1439 0.985 1_655 S
N1427 C1429 1.356 . S
N1427 H1432 0.984 . S
N1427 H1433 0.985 . S
C1428 C1422 1.379 . S
C1428 C1425 1.363 1_655 S
C1428 N1426 1.356 . S
C1429 C1423 1.363 . S
C1429 C1424 1.369 1_655 S
C1429 N1427 1.356 . S
N1430 C1422 1.356 . S
N1430 H1436 0.984 . S
N1430 H1437 0.984 . S
N1431 C1424 1.371 . S
N1431 H1434 0.984 . S
N1431 H1435 0.985 . S
H1432 N1427 0.984 . S
H1433 N1427 0.985 . S
H1434 N1431 0.984 . S
H1435 N1431 0.985 . S
H1436 N1430 0.984 . S
H1437 N1430 0.984 . S
H1438 N1426 0.984 . S
H1439 N1426 0.985 1_455 S
C1440 C1441 1.363 . S
C1440 C1446 1.379 . S
C1440 N1448 1.356 . S
C1441 C1440 1.363 . S
C1441 C1447 1.363 . S
C1442 C1443 1.363 . S
C1442 C1447 1.379 . S
C1442 N1449 1.356 . S
C1443 C1442 1.363 . S
C1443 C1446 1.363 . S
N1444 C1446 1.356 . S
N1444 H1456 0.984 . S
N1444 H1457 0.985 . S
N1445 C1447 1.356 . S
N1445 H1450 0.984 . S
N1445 H1451 0.985 . S
C1446 C1440 1.379 . S
C1446 C1443 1.363 . S
C1446 N1444 1.356 . S
C1447 C1441 1.363 . S
C1447 C1442 1.379 . S
C1447 N1445 1.356 . S
N1448 C1440 1.356 . S
N1448 H1454 0.984 . S
N1448 H1455 0.984 . S
N1449 C1442 1.356 . S
N1449 H1452 0.984 . S
N1449 H1453 0.985 . S
H1450 N1445 0.984 . S
H1451 N1445 0.985 . S
H1452 N1449 0.984 . S
H1453 N1449 0.985 . S
H1454 N1448 0.984 . S
H1455 N1448 0.984 . S
H1456 N1444 0.984 . S
H1457 N1444 0.985 . S
C1458 C1459 1.363 . S
C1458 C1464 1.379 . S
C1458 N1466 1.356 . S
C1459 C1458 1.363 . S
C1459 C1465 1.363 . S
C1460 C1461 1.363 . S
C1460 C1465 1.379 . S
C1460 N1467 1.356 . S
C1461 C1460 1.363 . S
C1461 C1464 1.363 . S
N1462 C1464 1.356 . S
N1462 H1474 0.984 . S
N1462 H1475 0.985 . S
N1463 C1465 1.356 . S
N1463 H1468 0.984 . S
N1463 H1469 0.985 . S
C1464 C1458 1.379 . S
C1464 C1461 1.363 . S
C1464 N1462 1.356 . S
C1465 C1459 1.363 . S
C1465 C1460 1.379 . S
C1465 N1463 1.356 . S
N1466 C1458 1.356 . S
N1466 H1472 0.984 . S
N1466 H1473 0.984 . S
N1467 C1460 1.356 . S
N1467 H1470 0.984 . S
N1467 H1471 0.985 . S
H1468 N1463 0.984 . S
H1469 N1463 0.985 . S
H1470 N1467 0.984 . S
H1471 N1467 0.985 . S
H1472 N1466 0.984 . S
H1473 N1466 0.984 . S
H1474 N1462 0.984 . S
H1475 N1462 0.985 . S
C1476 C1477 1.363 . S
C1476 C1482 1.379 . S
C1476 N1484 1.356 . S
C1477 C1476 1.363 . S
C1477 C1483 1.363 . S
C1478 C1479 1.363 . S
C1478 C1483 1.379 . S
C1478 N1485 1.356 . S
C1479 C1478 1.363 . S
C1479 C1482 1.363 . S
N1480 C1482 1.356 . S
N1480 H1492 0.984 . S
N1480 H1493 0.985 . S
N1481 C1483 1.356 . S
N1481 H1486 0.984 . S
N1481 H1487 0.985 . S
C1482 C1476 1.379 . S
C1482 C1479 1.363 . S
C1482 N1480 1.356 . S
C1483 C1477 1.363 . S
C1483 C1478 1.379 . S
C1483 N1481 1.356 . S
N1484 C1476 1.356 . S
N1484 H1490 0.984 . S
N1484 H1491 0.984 . S
N1485 C1478 1.356 . S
N1485 H1488 0.984 . S
N1485 H1489 0.985 . S
H1486 N1481 0.984 . S
H1487 N1481 0.985 . S
H1488 N1485 0.984 . S
H1489 N1485 0.985 . S
H1490 N1484 0.984 . S
H1491 N1484 0.984 . S
H1492 N1480 0.984 . S
H1493 N1480 0.985 . S
C1494 C1495 1.363 . S
C1494 C1500 1.379 . S
C1494 N1502 1.356 . S
C1495 C1494 1.363 . S
C1495 C1501 1.363 . S
C1496 C1497 1.363 . S
C1496 C1501 1.379 . S
C1496 N1503 1.356 . S
C1497 C1496 1.363 . S
C1497 C1500 1.363 . S
N1498 C1500 1.356 . S
N1498 H1510 0.984 . S
N1498 H1511 0.985 . S
N1499 C1501 1.356 . S
N1499 H1504 0.984 . S
N1499 H1505 0.985 . S
C1500 C1494 1.379 . S
C1500 C1497 1.363 . S
C1500 N1498 1.356 . S
C1501 C1495 1.363 . S
C1501 C1496 1.379 . S
C1501 N1499 1.356 . S
N1502 C1494 1.356 . S
N1502 H1508 0.984 . S
N1502 H1509 0.984 . S
N1503 C1496 1.356 . S
N1503 H1506 0.984 . S
N1503 H1507 0.985 . S
H1504 N1499 0.984 . S
H1505 N1499 0.985 . S
H1506 N1503 0.984 . S
H1507 N1503 0.985 . S
H1508 N1502 0.984 . S
H1509 N1502 0.984 . S
H1510 N1498 0.984 . S
H1511 N1498 0.985 . S
C1512 C1513 1.363 . S
C1512 C1518 1.379 . S
C1512 N1520 1.356 . S
C1513 C1512 1.363 . S
C1513 C1519 1.363 . S
C1514 C1515 1.363 . S
C1514 C1519 1.379 . S
C1514 N1521 1.356 . S
C1515 C1514 1.363 . S
C1515 C1518 1.363 . S
N1516 C1518 1.356 . S
N1516 H1528 0.984 . S
N1516 H1529 0.985 . S
N1517 C1519 1.356 . S
N1517 H1522 0.984 . S
N1517 H1523 0.985 . S
C1518 C1512 1.379 . S
C1518 C1515 1.363 . S
C1518 N1516 1.356 . S
C1519 C1513 1.363 . S
C1519 C1514 1.379 . S
C1519 N1517 1.356 . S
N1520 C1512 1.356 . S
N1520 H1526 0.984 . S
N1520 H1527 0.984 . S
N1521 C1514 1.356 . S
N1521 H1524 0.984 . S
N1521 H1525 0.985 . S
H1522 N1517 0.984 . S
H1523 N1517 0.985 . S
H1524 N1521 0.984 . S
H1525 N1521 0.985 . S
H1526 N1520 0.984 . S
H1527 N1520 0.984 . S
H1528 N1516 0.984 . S
H1529 N1516 0.985 . S
C1530 C1531 1.363 . S
C1530 C1536 1.379 . S
C1530 N1538 1.356 . S
C1531 C1530 1.363 . S
C1531 C1537 1.363 . S
C1532 C1533 1.363 . S
C1532 C1537 1.379 . S
C1532 N1539 1.356 . S
C1533 C1532 1.363 . S
C1533 C1536 1.363 . S
N1534 C1536 1.356 . S
N1534 H1546 0.984 . S
N1534 H1547 0.985 . S
N1535 C1537 1.356 . S
N1535 H1540 0.984 . S
N1535 H1541 0.985 . S
C1536 C1530 1.379 . S
C1536 C1533 1.363 . S
C1536 N1534 1.356 . S
C1537 C1531 1.363 . S
C1537 C1532 1.379 . S
C1537 N1535 1.356 . S
N1538 C1530 1.356 . S
N1538 H1544 0.984 . S
N1538 H1545 0.984 . S
N1539 C1532 1.356 . S
N1539 H1542 0.984 . S
N1539 H1543 0.985 . S
H1540 N1535 0.984 . S
H1541 N1535 0.985 . S
H1542 N1539 0.984 . S
H1543 N1539 0.985 . S
H1544 N1538 0.984 . S
H1545 N1538 0.984 . S
H1546 N1534 0.984 . S
H1547 N1534 0.985 . S
C1548 C1549 1.363 . S
C1548 C1554 1.379 . S
C1548 N1556 1.356 . S
C1549 C1548 1.363 . S
C1549 C1555 1.363 . S
C1550 C1551 1.363 . S
C1550 C1555 1.379 . S
C1550 N1557 1.356 . S
C1551 C1550 1.363 . S
C1551 C1554 1.363 . S
N1552 C1554 1.356 . S
N1552 H1564 0.984 . S
N1552 H1565 0.985 . S
N1553 C1555 1.356 . S
N1553 H1558 0.984 . S
N1553 H1559 0.985 . S
C1554 C1548 1.379 . S
C1554 C1551 1.363 . S
C1554 N1552 1.356 . S
C1555 C1549 1.363 . S
C1555 C1550 1.379 . S
C1555 N1553 1.356 . S
N1556 C1548 1.356 . S
N1556 H1562 0.984 . S
N1556 H1563 0.984 . S
N1557 C1550 1.356 . S
N1557 H1560 0.984 . S
N1557 H1561 0.985 . S
H1558 N1553 0.984 . S
H1559 N1553 0.985 . S
H1560 N1557 0.984 . S
H1561 N1557 0.985 . S
H1562 N1556 0.984 . S
H1563 N1556 0.984 . S
H1564 N1552 0.984 . S
H1565 N1552 0.985 . S
C1566 C1567 1.363 . S
C1566 C1572 1.379 . S
C1566 N1574 1.356 . S
C1567 C1566 1.363 . S
C1567 C1573 1.363 . S
C1568 C1569 1.363 . S
C1568 C1573 1.379 . S
C1568 N1575 1.356 . S
C1569 C1568 1.363 . S
C1569 C1572 1.363 . S
N1570 C1572 1.356 . S
N1570 H1582 0.984 . S
N1570 H1583 0.985 . S
N1571 C1573 1.356 . S
N1571 H1576 0.984 . S
N1571 H1577 0.985 . S
C1572 C1566 1.379 . S
C1572 C1569 1.363 . S
C1572 N1570 1.356 . S
C1573 C1567 1.363 . S
C1573 C1568 1.379 . S
C1573 N1571 1.356 . S
N1574 C1566 1.356 . S
N1574 H1580 0.984 . S
N1574 H1581 0.984 . S
N1575 C1568 1.356 . S
N1575 H1578 0.984 . S
N1575 H1579 0.985 . S
H1576 N1571 0.984 . S
H1577 N1571 0.985 . S
H1578 N1575 0.984 . S
H1579 N1575 0.985 . S
H1580 N1574 0.984 . S
H1581 N1574 0.984 . S
H1582 N1570 0.984 . S
H1583 N1570 0.985 . S
C1584 C1585 1.363 . S
C1584 C1590 1.379 . S
C1584 N1592 1.356 . S
C1585 C1584 1.363 . S
C1585 C1591 1.363 . S
C1586 C1587 1.363 . S
C1586 C1591 1.379 . S
C1586 N1593 1.356 . S
C1587 C1586 1.363 . S
C1587 C1590 1.363 . S
N1588 C1590 1.356 . S
N1588 H1600 0.984 . S
N1588 H1601 0.985 . S
N1589 C1591 1.356 . S
N1589 H1594 0.984 . S
N1589 H1595 0.985 . S
C1590 C1584 1.379 . S
C1590 C1587 1.363 . S
C1590 N1588 1.356 . S
C1591 C1585 1.363 . S
C1591 C1586 1.379 . S
C1591 N1589 1.356 . S
N1592 C1584 1.356 . S
N1592 H1598 0.984 . S
N1592 H1599 0.984 . S
N1593 C1586 1.356 . S
N1593 H1596 0.984 . S
N1593 H1597 0.985 . S
H1594 N1589 0.984 . S
H1595 N1589 0.985 . S
H1596 N1593 0.984 . S
H1597 N1593 0.985 . S
H1598 N1592 0.984 . S
H1599 N1592 0.984 . S
H1600 N1588 0.984 . S
H1601 N1588 0.985 . S
C1602 C1603 1.363 . S
C1602 C1608 1.379 . S
C1602 N1610 1.356 . S
C1603 C1602 1.363 . S
C1603 C1609 1.363 . S
C1604 C1605 1.363 . S
C1604 C1609 1.379 . S
C1604 N1611 1.356 . S
C1605 C1604 1.363 . S
C1605 C1608 1.363 . S
N1606 C1608 1.356 . S
N1606 H1618 0.984 . S
N1606 H1619 0.985 . S
N1607 C1609 1.356 . S
N1607 H1612 0.984 . S
N1607 H1613 0.985 . S
C1608 C1602 1.379 . S
C1608 C1605 1.363 . S
C1608 N1606 1.356 . S
C1609 C1603 1.363 . S
C1609 C1604 1.379 . S
C1609 N1607 1.356 . S
N1610 C1602 1.356 . S
N1610 H1616 0.984 . S
N1610 H1617 0.984 . S
N1611 C1604 1.356 . S
N1611 H1614 0.984 . S
N1611 H1615 0.985 . S
H1612 N1607 0.984 . S
H1613 N1607 0.985 . S
H1614 N1611 0.984 . S
H1615 N1611 0.985 . S
H1616 N1610 0.984 . S
H1617 N1610 0.984 . S
H1618 N1606 0.984 . S
H1619 N1606 0.985 . S
C1620 C1621 1.363 . S
C1620 C1626 1.379 . S
C1620 N1628 1.356 . S
C1621 C1620 1.363 . S
C1621 C1627 1.363 . S
C1622 C1623 1.363 . S
C1622 C1627 1.379 . S
C1622 N1629 1.356 1_556 S
C1623 C1622 1.363 . S
C1623 C1626 1.363 . S
N1624 C1626 1.356 . S
N1624 H1636 0.984 . S
N1624 H1637 0.985 . S
N1625 C1627 1.356 . S
N1625 H1630 0.984 . S
N1625 H1631 0.985 1_556 S
C1626 C1620 1.379 . S
C1626 C1623 1.363 . S
C1626 N1624 1.356 . S
C1627 C1621 1.363 . S
C1627 C1622 1.379 . S
C1627 N1625 1.356 . S
N1628 C1620 1.356 . S
N1628 H1634 0.984 . S
N1628 H1635 0.984 . S
N1629 C1622 1.356 1_554 S
N1629 H1632 0.984 . S
N1629 H1633 0.985 . S
H1630 N1625 0.984 . S
H1631 N1625 0.985 1_554 S
H1632 N1629 0.984 . S
H1633 N1629 0.985 . S
H1634 N1628 0.984 . S
H1635 N1628 0.984 . S
H1636 N1624 0.984 . S
H1637 N1624 0.985 . S
C1638 C1639 1.363 . S
C1638 C1644 1.379 . S
C1638 N1646 1.356 . S
C1639 C1638 1.363 . S
C1639 C1645 1.363 . S
C1640 C1641 1.363 . S
C1640 C1645 1.379 . S
C1640 N1647 1.356 . S
C1641 C1640 1.363 . S
C1641 C1644 1.363 . S
N1642 C1644 1.356 . S
N1642 H1654 0.984 . S
N1642 H1655 0.985 . S
N1643 C1645 1.356 . S
N1643 H1648 0.984 . S
N1643 H1649 0.985 . S
C1644 C1638 1.379 . S
C1644 C1641 1.363 . S
C1644 N1642 1.356 . S
C1645 C1639 1.363 . S
C1645 C1640 1.379 . S
C1645 N1643 1.356 . S
N1646 C1638 1.356 . S
N1646 H1652 0.984 . S
N1646 H1653 0.984 . S
N1647 C1640 1.356 . S
N1647 H1650 0.984 . S
N1647 H1651 0.983 1_556 S
H1648 N1643 0.984 . S
H1649 N1643 0.985 . S
H1650 N1647 0.984 . S
H1651 N1647 0.983 1_554 S
H1652 N1646 0.984 . S
H1653 N1646 0.984 . S
H1654 N1642 0.984 . S
H1655 N1642 0.985 . S
C1656 C1657 1.363 . S
C1656 C1662 1.379 . S
C1656 N1664 1.356 . S
C1657 C1656 1.363 . S
C1657 C1663 1.363 . S
C1658 C1659 1.363 . S
C1658 C1663 1.379 . S
C1658 N1665 1.356 . S
C1659 C1658 1.363 . S
C1659 C1662 1.363 . S
N1660 C1662 1.356 . S
N1660 H1672 0.984 . S
N1660 H1673 0.985 . S
N1661 C1663 1.356 . S
N1661 H1666 0.984 . S
N1661 H1667 0.985 . S
C1662 C1656 1.379 . S
C1662 C1659 1.363 . S
C1662 N1660 1.356 . S
C1663 C1657 1.363 . S
C1663 C1658 1.379 . S
C1663 N1661 1.356 . S
N1664 C1656 1.356 . S
N1664 H1670 0.984 . S
N1664 H1671 0.984 . S
N1665 C1658 1.356 . S
N1665 H1668 0.984 . S
N1665 H1669 0.985 . S
H1666 N1661 0.984 . S
H1667 N1661 0.985 . S
H1668 N1665 0.984 . S
H1669 N1665 0.985 . S
H1670 N1664 0.984 . S
H1671 N1664 0.984 . S
H1672 N1660 0.984 . S
H1673 N1660 0.985 . S
C1674 C1675 1.363 . S
C1674 C1680 1.379 . S
C1674 N1682 1.356 . S
C1675 C1674 1.363 . S
C1675 C1681 1.363 . S
C1676 C1677 1.363 . S
C1676 C1681 1.379 . S
C1676 N1683 1.356 . S
C1677 C1676 1.363 . S
C1677 C1680 1.363 . S
N1678 C1680 1.356 . S
N1678 H1690 0.984 . S
N1678 H1691 0.985 . S
N1679 C1681 1.356 . S
N1679 H1684 0.984 . S
N1679 H1685 0.985 . S
C1680 C1674 1.379 . S
C1680 C1677 1.363 . S
C1680 N1678 1.356 . S
C1681 C1675 1.363 . S
C1681 C1676 1.379 . S
C1681 N1679 1.356 . S
N1682 C1674 1.356 . S
N1682 H1688 0.984 . S
N1682 H1689 0.984 . S
N1683 C1676 1.356 . S
N1683 H1686 0.984 . S
N1683 H1687 0.985 . S
H1684 N1679 0.984 . S
H1685 N1679 0.985 . S
H1686 N1683 0.984 . S
H1687 N1683 0.985 . S
H1688 N1682 0.984 . S
H1689 N1682 0.984 . S
H1690 N1678 0.984 . S
H1691 N1678 0.985 . S
C1692 C1693 1.363 . S
C1692 C1698 1.379 . S
C1692 N1700 1.356 . S
C1693 C1692 1.363 . S
C1693 C1699 1.363 . S
C1694 C1695 1.363 . S
C1694 C1699 1.379 . S
C1694 N1701 1.356 . S
C1695 C1694 1.363 . S
C1695 C1698 1.363 . S
N1696 C1698 1.356 . S
N1696 H1708 0.984 . S
N1696 H1709 0.985 . S
N1697 C1699 1.356 . S
N1697 H1702 0.984 . S
N1697 H1703 0.985 . S
C1698 C1692 1.379 . S
C1698 C1695 1.363 . S
C1698 N1696 1.356 . S
C1699 C1693 1.363 . S
C1699 C1694 1.379 . S
C1699 N1697 1.356 . S
N1700 C1692 1.356 . S
N1700 H1706 0.984 . S
N1700 H1707 0.984 . S
N1701 C1694 1.356 . S
N1701 H1704 0.984 . S
N1701 H1705 0.985 . S
H1702 N1697 0.984 . S
H1703 N1697 0.985 . S
H1704 N1701 0.984 . S
H1705 N1701 0.985 . S
H1706 N1700 0.984 . S
H1707 N1700 0.984 . S
H1708 N1696 0.984 . S
H1709 N1696 0.985 . S
C1710 C1711 1.363 . S
C1710 C1716 1.379 . S
C1710 N1718 1.356 . S
C1711 C1710 1.363 . S
C1711 C1717 1.363 . S
C1712 C1713 1.363 . S
C1712 C1717 1.379 . S
C1712 N1719 1.356 . S
C1713 C1712 1.363 . S
C1713 C1716 1.363 . S
N1714 C1716 1.356 . S
N1714 H1726 0.984 . S
N1714 H1727 0.985 . S
N1715 C1717 1.356 . S
N1715 H1720 0.984 . S
N1715 H1721 0.985 . S
C1716 C1710 1.379 . S
C1716 C1713 1.363 . S
C1716 N1714 1.356 . S
C1717 C1711 1.363 . S
C1717 C1712 1.379 . S
C1717 N1715 1.356 . S
N1718 C1710 1.356 . S
N1718 H1724 0.984 . S
N1718 H1725 0.984 . S
N1719 C1712 1.356 . S
N1719 H1722 0.984 . S
N1719 H1723 0.985 . S
H1720 N1715 0.984 . S
H1721 N1715 0.985 . S
H1722 N1719 0.984 . S
H1723 N1719 0.985 . S
H1724 N1718 0.984 . S
H1725 N1718 0.984 . S
H1726 N1714 0.984 . S
H1727 N1714 0.985 . S
C1728 C1729 1.363 . S
C1728 C1734 1.379 . S
C1728 N1736 1.356 . S
C1729 C1728 1.363 . S
C1729 C1735 1.363 . S
C1730 C1731 1.363 . S
C1730 C1735 1.379 . S
C1730 N1737 1.356 . S
C1731 C1730 1.363 . S
C1731 C1734 1.363 . S
N1732 C1734 1.356 . S
N1732 H1744 0.984 . S
N1732 H1745 0.985 . S
N1733 C1735 1.356 . S
N1733 H1738 0.990 . S
N1733 H1739 0.985 1_554 S
C1734 C1728 1.379 . S
C1734 C1731 1.363 . S
C1734 N1732 1.356 . S
C1735 C1729 1.363 . S
C1735 C1730 1.379 . S
C1735 N1733 1.356 . S
N1736 C1728 1.356 . S
N1736 H1742 0.984 . S
N1736 H1743 0.984 . S
N1737 C1730 1.356 . S
N1737 H1740 0.984 . S
N1737 H1741 0.985 . S
H1738 N1733 0.990 . S
H1739 N1733 0.985 1_556 S
H1740 N1737 0.984 . S
H1741 N1737 0.985 . S
H1742 N1736 0.984 . S
H1743 N1736 0.984 . S
H1744 N1732 0.984 . S
H1745 N1732 0.985 . S
C1746 C1747 1.363 . S
C1746 C1752 1.379 . S
C1746 N1754 1.356 . S
C1747 C1746 1.363 . S
C1747 C1753 1.363 . S
C1748 C1749 1.363 . S
C1748 C1753 1.379 . S
C1748 N1755 1.356 . S
C1749 C1748 1.363 . S
C1749 C1752 1.363 . S
N1750 C1752 1.356 . S
N1750 H1762 0.984 . S
N1750 H1763 0.985 . S
N1751 C1753 1.356 . S
N1751 H1756 0.981 1_554 S
N1751 H1757 0.985 1_554 S
C1752 C1746 1.379 . S
C1752 C1749 1.363 . S
C1752 N1750 1.356 . S
C1753 C1747 1.363 . S
C1753 C1748 1.379 . S
C1753 N1751 1.356 . S
N1754 C1746 1.356 . S
N1754 H1760 0.984 . S
N1754 H1761 0.984 . S
N1755 C1748 1.356 . S
N1755 H1758 0.984 . S
N1755 H1759 0.985 . S
H1756 N1751 0.981 1_556 S
H1757 N1751 0.985 1_556 S
H1758 N1755 0.984 . S
H1759 N1755 0.985 . S
H1760 N1754 0.984 . S
H1761 N1754 0.984 . S
H1762 N1750 0.984 . S
H1763 N1750 0.985 . S
C1764 C1765 1.363 . S
C1764 C1770 1.379 . S
C1764 N1772 1.356 . S
C1765 C1764 1.363 . S
C1765 C1771 1.363 . S
C1766 C1767 1.363 . S
C1766 C1771 1.379 . S
C1766 N1773 1.356 . S
C1767 C1766 1.363 . S
C1767 C1770 1.363 . S
N1768 C1770 1.356 . S
N1768 H1780 0.984 . S
N1768 H1781 0.985 . S
N1769 C1771 1.356 . S
N1769 H1774 0.984 . S
N1769 H1775 0.985 . S
C1770 C1764 1.379 . S
C1770 C1767 1.363 . S
C1770 N1768 1.356 . S
C1771 C1765 1.363 . S
C1771 C1766 1.379 . S
C1771 N1769 1.356 . S
N1772 C1764 1.356 . S
N1772 H1778 0.984 . S
N1772 H1779 0.984 . S
N1773 C1766 1.356 . S
N1773 H1776 0.984 . S
N1773 H1777 0.985 . S
H1774 N1769 0.984 . S
H1775 N1769 0.985 . S
H1776 N1773 0.984 . S
H1777 N1773 0.985 . S
H1778 N1772 0.984 . S
H1779 N1772 0.984 . S
H1780 N1768 0.984 . S
H1781 N1768 0.985 . S
C1782 C1783 1.363 . S
C1782 C1788 1.379 . S
C1782 N1790 1.356 . S
C1783 C1782 1.363 . S
C1783 C1789 1.363 . S
C1784 C1785 1.363 . S
C1784 C1789 1.379 . S
C1784 N1791 1.356 . S
C1785 C1784 1.363 . S
C1785 C1788 1.363 . S
N1786 C1788 1.356 . S
N1786 H1798 0.984 . S
N1786 H1799 0.985 . S
N1787 C1789 1.356 . S
N1787 H1792 0.984 . S
N1787 H1793 0.985 . S
C1788 C1782 1.379 . S
C1788 C1785 1.363 . S
C1788 N1786 1.356 . S
C1789 C1783 1.363 . S
C1789 C1784 1.379 . S
C1789 N1787 1.356 . S
N1790 C1782 1.356 . S
N1790 H1796 0.984 . S
N1790 H1797 0.984 . S
N1791 C1784 1.356 . S
N1791 H1794 0.984 . S
N1791 H1795 0.985 . S
H1792 N1787 0.984 . S
H1793 N1787 0.985 . S
H1794 N1791 0.984 . S
H1795 N1791 0.985 . S
H1796 N1790 0.984 . S
H1797 N1790 0.984 . S
H1798 N1786 0.984 . S
H1799 N1786 0.985 . S
C1800 C1801 1.363 . S
C1800 C1806 1.379 . S
C1800 N1808 1.356 . S
C1801 C1800 1.363 . S
C1801 C1807 1.363 . S
C1802 C1803 1.363 . S
C1802 C1807 1.379 . S
C1802 N1809 1.356 . S
C1803 C1802 1.363 . S
C1803 C1806 1.363 . S
N1804 C1806 1.356 . S
N1804 H1816 0.984 . S
N1804 H1817 0.985 . S
N1805 C1807 1.356 . S
N1805 H1810 0.984 . S
N1805 H1811 0.985 . S
C1806 C1800 1.379 . S
C1806 C1803 1.363 . S
C1806 N1804 1.356 . S
C1807 C1801 1.363 . S
C1807 C1802 1.379 . S
C1807 N1805 1.356 . S
N1808 C1800 1.356 . S
N1808 H1814 0.984 . S
N1808 H1815 0.984 . S
N1809 C1802 1.356 . S
N1809 H1812 0.984 . S
N1809 H1813 0.985 . S
H1810 N1805 0.984 . S
H1811 N1805 0.985 . S
H1812 N1809 0.984 . S
H1813 N1809 0.985 . S
H1814 N1808 0.984 . S
H1815 N1808 0.984 . S
H1816 N1804 0.984 . S
H1817 N1804 0.985 . S
C1818 C1819 1.363 . S
C1818 C1824 1.379 . S
C1818 N1826 1.356 . S
C1819 C1818 1.363 . S
C1819 C1825 1.363 . S
C1820 C1821 1.363 . S
C1820 C1825 1.379 . S
C1820 N1827 1.356 . S
C1821 C1820 1.363 . S
C1821 C1824 1.363 . S
N1822 C1824 1.356 . S
N1822 H1834 0.984 . S
N1822 H1835 0.985 . S
N1823 C1825 1.356 . S
N1823 H1828 0.984 . S
N1823 H1829 0.985 . S
C1824 C1818 1.379 . S
C1824 C1821 1.363 . S
C1824 N1822 1.356 . S
C1825 C1819 1.363 . S
C1825 C1820 1.379 . S
C1825 N1823 1.356 . S
N1826 C1818 1.356 . S
N1826 H1832 0.984 . S
N1826 H1833 0.984 . S
N1827 C1820 1.356 . S
N1827 H1830 0.984 . S
N1827 H1831 0.985 . S
H1828 N1823 0.984 . S
H1829 N1823 0.985 . S
H1830 N1827 0.984 . S
H1831 N1827 0.985 . S
H1832 N1826 0.984 . S
H1833 N1826 0.984 . S
H1834 N1822 0.984 . S
H1835 N1822 0.985 . S
C1836 C1837 1.363 . S
C1836 C1842 1.379 . S
C1836 N1844 1.356 . S
C1837 C1836 1.363 . S
C1837 C1843 1.363 . S
C1838 C1839 1.363 . S
C1838 C1843 1.379 . S
C1838 N1845 1.356 . S
C1839 C1838 1.363 . S
C1839 C1842 1.363 . S
N1840 C1842 1.356 . S
N1840 H1852 0.984 . S
N1840 H1853 0.985 . S
N1841 C1843 1.356 . S
N1841 H1846 0.984 . S
N1841 H1847 0.985 . S
C1842 C1836 1.379 . S
C1842 C1839 1.363 . S
C1842 N1840 1.356 . S
C1843 C1837 1.363 . S
C1843 C1838 1.379 . S
C1843 N1841 1.356 . S
N1844 C1836 1.356 . S
N1844 H1850 0.984 . S
N1844 H1851 0.984 . S
N1845 C1838 1.356 . S
N1845 H1848 0.984 . S
N1845 H1849 0.985 . S
H1846 N1841 0.984 . S
H1847 N1841 0.985 . S
H1848 N1845 0.984 . S
H1849 N1845 0.985 . S
H1850 N1844 0.984 . S
H1851 N1844 0.984 . S
H1852 N1840 0.984 . S
H1853 N1840 0.985 . S
C1854 C1855 1.363 . S
C1854 C1860 1.379 . S
C1854 N1862 1.356 . S
C1855 C1854 1.363 . S
C1855 C1861 1.363 . S
C1856 C1857 1.363 . S
C1856 C1861 1.379 . S
C1856 N1863 1.356 . S
C1857 C1856 1.363 . S
C1857 C1860 1.363 . S
N1858 C1860 1.356 . S
N1858 H1870 0.984 . S
N1858 H1871 0.985 . S
N1859 C1861 1.356 . S
N1859 H1864 0.984 . S
N1859 H1865 0.985 . S
C1860 C1854 1.379 . S
C1860 C1857 1.363 . S
C1860 N1858 1.356 . S
C1861 C1855 1.363 . S
C1861 C1856 1.379 . S
C1861 N1859 1.356 . S
N1862 C1854 1.356 . S
N1862 H1868 0.984 . S
N1862 H1869 0.984 . S
N1863 C1856 1.356 . S
N1863 H1866 0.984 . S
N1863 H1867 0.985 . S
H1864 N1859 0.984 . S
H1865 N1859 0.985 . S
H1866 N1863 0.984 . S
H1867 N1863 0.985 . S
H1868 N1862 0.984 . S
H1869 N1862 0.984 . S
H1870 N1858 0.984 . S
H1871 N1858 0.985 . S
C1872 C1873 1.363 1_455 S
C1872 C1878 1.379 . S
C1872 N1880 1.356 . S
C1873 C1872 1.363 1_655 S
C1873 C1879 1.363 . S
C1874 C1875 1.363 1_655 S
C1874 C1879 1.379 . S
C1874 N1881 1.356 . S
C1875 C1874 1.363 1_455 S
C1875 C1878 1.363 . S
N1876 C1878 1.356 . S
N1876 H1888 0.984 . S
N1876 H1889 0.985 . S
N1877 C1879 1.356 . S
N1877 H1882 0.984 . S
N1877 H1883 0.985 . S
C1878 C1872 1.379 . S
C1878 C1875 1.363 . S
C1878 N1876 1.356 . S
C1879 C1873 1.363 . S
C1879 C1874 1.379 . S
C1879 N1877 1.356 . S
N1880 C1872 1.356 . S
N1880 H1886 0.984 . S
N1880 H1887 0.994 . S
N1881 C1874 1.356 . S
N1881 H1884 0.994 . S
N1881 H1885 0.985 . S
H1882 N1877 0.984 . S
H1883 N1877 0.985 . S
H1884 N1881 0.994 . S
H1885 N1881 0.985 . S
H1886 N1880 0.984 . S
H1887 N1880 0.994 . S
H1888 N1876 0.984 . S
H1889 N1876 0.985 . S
C1890 C1891 1.363 . S
C1890 C1896 1.379 . S
C1890 N1898 1.356 . S
C1891 C1890 1.363 . S
C1891 C1897 1.363 . S
C1892 C1893 1.363 . S
C1892 C1897 1.379 . S
C1892 N1899 1.356 . S
C1893 C1892 1.363 . S
C1893 C1896 1.363 . S
N1894 C1896 1.356 . S
N1894 H1906 0.984 . S
N1894 H1907 0.985 . S
N1895 C1897 1.356 . S
N1895 H1900 0.984 . S
N1895 H1901 0.985 . S
C1896 C1890 1.379 . S
C1896 C1893 1.363 . S
C1896 N1894 1.356 . S
C1897 C1891 1.363 . S
C1897 C1892 1.379 . S
C1897 N1895 1.356 . S
N1898 C1890 1.356 . S
N1898 H1904 0.984 . S
N1898 H1905 0.984 . S
N1899 C1892 1.356 . S
N1899 H1902 0.984 . S
N1899 H1903 0.985 . S
H1900 N1895 0.984 . S
H1901 N1895 0.985 . S
H1902 N1899 0.984 . S
H1903 N1899 0.985 . S
H1904 N1898 0.984 . S
H1905 N1898 0.984 . S
H1906 N1894 0.984 . S
H1907 N1894 0.985 . S
C1908 C1909 1.363 1_545 S
C1908 C1914 1.379 . S
C1908 N1916 1.356 . S
C1909 C1908 1.363 1_565 S
C1909 C1915 1.363 . S
C1910 C1911 1.363 1_565 S
C1910 C1915 1.379 . S
C1910 N1917 1.356 . S
C1911 C1910 1.363 1_545 S
C1911 C1914 1.363 . S
N1912 C1914 1.356 . S
N1912 H1924 0.984 . S
N1912 H1925 0.985 . S
N1913 C1915 1.356 . S
N1913 H1918 0.984 . S
N1913 H1919 0.985 . S
C1914 C1908 1.379 . S
C1914 C1911 1.363 . S
C1914 N1912 1.356 . S
C1915 C1909 1.363 . S
C1915 C1910 1.379 . S
C1915 N1913 1.356 . S
N1916 C1908 1.356 . S
N1916 H1922 0.984 . S
N1916 H1923 0.984 . S
N1917 C1910 1.356 . S
N1917 H1920 0.984 . S
N1917 H1921 0.985 . S
H1918 N1913 0.984 . S
H1919 N1913 0.985 . S
H1920 N1917 0.984 . S
H1921 N1917 0.985 . S
H1922 N1916 0.984 . S
H1923 N1916 0.984 . S
H1924 N1912 0.984 . S
H1925 N1912 0.985 . S
C1926 C1927 1.363 . S
C1926 C1932 1.379 . S
C1926 N1934 1.356 . S
C1927 C1926 1.363 . S
C1927 C1933 1.363 1_455 S
C1928 C1929 1.363 . S
C1928 C1933 1.379 . S
C1928 N1935 1.356 . S
C1929 C1928 1.363 . S
C1929 C1932 1.363 1_655 S
N1930 C1932 1.356 . S
N1930 H1942 0.984 . S
N1930 H1943 0.985 . S
N1931 C1933 1.356 . S
N1931 H1936 0.984 . S
N1931 H1937 0.985 . S
C1932 C1926 1.379 . S
C1932 C1929 1.363 1_455 S
C1932 N1930 1.356 . S
C1933 C1927 1.363 1_655 S
C1933 C1928 1.379 . S
C1933 N1931 1.356 . S
N1934 C1926 1.356 . S
N1934 H1940 0.984 . S
N1934 H1941 0.984 . S
N1935 C1928 1.356 . S
N1935 H1938 0.984 . S
N1935 H1939 0.985 . S
H1936 N1931 0.984 . S
H1937 N1931 0.985 . S
H1938 N1935 0.984 . S
H1939 N1935 0.985 . S
H1940 N1934 0.984 . S
H1941 N1934 0.984 . S
H1942 N1930 0.984 . S
H1943 N1930 0.985 . S
C1944 C1945 1.363 . S
C1944 C1950 1.379 . S
C1944 N1952 1.356 . S
C1945 C1944 1.363 . S
C1945 C1951 1.363 . S
C1946 C1947 1.363 . S
C1946 C1951 1.379 . S
C1946 N1953 1.356 . S
C1947 C1946 1.363 . S
C1947 C1950 1.363 . S
N1948 C1950 1.356 . S
N1948 H1960 0.984 . S
N1948 H1961 0.985 . S
N1949 C1951 1.356 . S
N1949 H1954 0.984 . S
N1949 H1955 0.985 . S
C1950 C1944 1.379 . S
C1950 C1947 1.363 . S
C1950 N1948 1.356 . S
C1951 C1945 1.363 . S
C1951 C1946 1.379 . S
C1951 N1949 1.356 . S
N1952 C1944 1.356 . S
N1952 H1958 0.984 . S
N1952 H1959 0.984 . S
N1953 C1946 1.356 . S
N1953 H1956 0.984 . S
N1953 H1957 0.985 . S
H1954 N1949 0.984 . S
H1955 N1949 0.985 . S
H1956 N1953 0.984 . S
H1957 N1953 0.985 . S
H1958 N1952 0.984 . S
H1959 N1952 0.984 . S
H1960 N1948 0.984 . S
H1961 N1948 0.985 . S
C1962 C1963 1.363 . S
C1962 C1968 1.379 . S
C1962 N1970 1.356 . S
C1963 C1962 1.363 . S
C1963 C1969 1.363 1_545 S
C1964 C1965 1.363 . S
C1964 C1969 1.379 . S
C1964 N1971 1.356 . S
C1965 C1964 1.363 . S
C1965 C1968 1.363 1_565 S
N1966 C1968 1.356 . S
N1966 H1978 0.984 . S
N1966 H1979 0.985 . S
N1967 C1969 1.356 . S
N1967 H1972 0.984 . S
N1967 H1973 0.985 . S
C1968 C1962 1.379 . S
C1968 C1965 1.363 1_545 S
C1968 N1966 1.356 . S
C1969 C1963 1.363 1_565 S
C1969 C1964 1.379 . S
C1969 N1967 1.356 . S
N1970 C1962 1.356 . S
N1970 H1976 0.984 . S
N1970 H1977 0.984 . S
N1971 C1964 1.356 . S
N1971 H1974 0.984 . S
N1971 H1975 0.985 . S
H1972 N1967 0.984 . S
H1973 N1967 0.985 . S
H1974 N1971 0.984 . S
H1975 N1971 0.985 . S
H1976 N1970 0.984 . S
H1977 N1970 0.984 . S
H1978 N1966 0.984 . S
H1979 N1966 0.985 . S
C1980 C1981 1.363 . S
C1980 C1986 1.379 . S
C1980 N1988 1.356 . S
C1981 C1980 1.363 . S
C1981 C1987 1.363 . S
C1982 C1983 1.363 . S
C1982 C1987 1.379 . S
C1982 N1989 1.356 . S
C1983 C1982 1.363 . S
C1983 C1986 1.363 . S
N1984 C1986 1.356 . S
N1984 H1996 0.984 . S
N1984 H1997 0.985 . S
N1985 C1987 1.356 . S
N1985 H1990 0.984 . S
N1985 H1991 0.985 . S
C1986 C1980 1.379 . S
C1986 C1983 1.363 . S
C1986 N1984 1.356 . S
C1987 C1981 1.363 . S
C1987 C1982 1.379 . S
C1987 N1985 1.356 . S
N1988 C1980 1.356 . S
N1988 H1994 0.984 . S
N1988 H1995 0.984 . S
N1989 C1982 1.356 . S
N1989 H1992 0.984 . S
N1989 H1993 0.985 . S
H1990 N1985 0.984 . S
H1991 N1985 0.985 . S
H1992 N1989 0.984 . S
H1993 N1989 0.985 . S
H1994 N1988 0.984 . S
H1995 N1988 0.984 . S
H1996 N1984 0.984 . S
H1997 N1984 0.985 . S
C1998 C1999 1.363 . S
C1998 C2004 1.379 . S
C1998 N2006 1.356 . S
C1999 C1998 1.363 . S
C1999 C2005 1.363 . S
C2000 C2001 1.363 . S
C2000 C2005 1.379 . S
C2000 N2007 1.356 . S
C2001 C2000 1.363 . S
C2001 C2004 1.363 . S
N2002 C2004 1.356 . S
N2002 H2014 0.984 . S
N2002 H2015 0.985 . S
N2003 C2005 1.356 . S
N2003 H2008 0.984 . S
N2003 H2009 0.985 . S
C2004 C1998 1.379 . S
C2004 C2001 1.363 . S
C2004 N2002 1.356 . S
C2005 C1999 1.363 . S
C2005 C2000 1.379 . S
C2005 N2003 1.356 . S
N2006 C1998 1.356 . S
N2006 H2012 0.984 . S
N2006 H2013 0.984 . S
N2007 C2000 1.356 . S
N2007 H2010 0.984 . S
N2007 H2011 0.985 . S
H2008 N2003 0.984 . S
H2009 N2003 0.985 . S
H2010 N2007 0.984 . S
H2011 N2007 0.985 . S
H2012 N2006 0.984 . S
H2013 N2006 0.984 . S
H2014 N2002 0.984 . S
H2015 N2002 0.985 . S
C2016 C2017 1.363 . S
C2016 C2022 1.379 . S
C2016 N2024 1.356 . S
C2017 C2016 1.363 . S
C2017 C2023 1.363 . S
C2018 C2019 1.363 . S
C2018 C2023 1.379 . S
C2018 N2025 1.356 . S
C2019 C2018 1.363 . S
C2019 C2022 1.363 . S
N2020 C2022 1.356 . S
N2020 H2032 0.984 . S
N2020 H2033 0.985 . S
N2021 C2023 1.356 . S
N2021 H2026 0.984 . S
N2021 H2027 0.985 . S
C2022 C2016 1.379 . S
C2022 C2019 1.363 . S
C2022 N2020 1.356 . S
C2023 C2017 1.363 . S
C2023 C2018 1.379 . S
C2023 N2021 1.356 . S
N2024 C2016 1.356 . S
N2024 H2030 0.984 . S
N2024 H2031 0.984 . S
N2025 C2018 1.356 . S
N2025 H2028 0.984 . S
N2025 H2029 0.985 . S
H2026 N2021 0.984 . S
H2027 N2021 0.985 . S
H2028 N2025 0.984 . S
H2029 N2025 0.985 . S
H2030 N2024 0.984 . S
H2031 N2024 0.984 . S
H2032 N2020 0.984 . S
H2033 N2020 0.985 . S
C2034 C2035 1.363 . S
C2034 C2040 1.379 . S
C2034 N2042 1.356 . S
C2035 C2034 1.363 . S
C2035 C2041 1.363 . S
C2036 C2037 1.363 . S
C2036 C2041 1.379 . S
C2036 N2043 1.356 . S
C2037 C2036 1.363 . S
C2037 C2040 1.363 . S
N2038 C2040 1.356 . S
N2038 H2050 0.984 . S
N2038 H2051 0.985 . S
N2039 C2041 1.356 . S
N2039 H2044 0.984 . S
N2039 H2045 0.985 . S
C2040 C2034 1.379 . S
C2040 C2037 1.363 . S
C2040 N2038 1.356 . S
C2041 C2035 1.363 . S
C2041 C2036 1.379 . S
C2041 N2039 1.356 . S
N2042 C2034 1.356 . S
N2042 H2048 0.984 . S
N2042 H2049 0.984 . S
N2043 C2036 1.356 . S
N2043 H2046 0.984 . S
N2043 H2047 0.985 . S
H2044 N2039 0.984 . S
H2045 N2039 0.985 . S
H2046 N2043 0.984 . S
H2047 N2043 0.985 . S
H2048 N2042 0.984 . S
H2049 N2042 0.984 . S
H2050 N2038 0.984 . S
H2051 N2038 0.985 . S
C2052 C2053 1.363 . S
C2052 C2058 1.379 . S
C2052 N2060 1.356 . S
C2053 C2052 1.363 . S
C2053 C2059 1.363 . S
C2054 C2055 1.363 . S
C2054 C2059 1.379 . S
C2054 N2061 1.356 . S
C2055 C2054 1.363 . S
C2055 C2058 1.363 . S
N2056 C2058 1.356 . S
N2056 H2068 0.984 . S
N2056 H2069 0.985 . S
N2057 C2059 1.356 . S
N2057 H2062 0.984 . S
N2057 H2063 0.985 . S
C2058 C2052 1.379 . S
C2058 C2055 1.363 . S
C2058 N2056 1.356 . S
C2059 C2053 1.363 . S
C2059 C2054 1.379 . S
C2059 N2057 1.356 . S
N2060 C2052 1.356 . S
N2060 H2066 0.984 . S
N2060 H2067 0.984 . S
N2061 C2054 1.356 . S
N2061 H2064 0.984 . S
N2061 H2065 0.985 . S
H2062 N2057 0.984 . S
H2063 N2057 0.985 . S
H2064 N2061 0.984 . S
H2065 N2061 0.985 . S
H2066 N2060 0.984 . S
H2067 N2060 0.984 . S
H2068 N2056 0.984 . S
H2069 N2056 0.985 . S
C2070 C2071 1.363 . S
C2070 C2076 1.379 . S
C2070 N2078 1.356 . S
C2071 C2070 1.363 . S
C2071 C2077 1.363 . S
C2072 C2073 1.363 . S
C2072 C2077 1.379 . S
C2072 N2079 1.356 . S
C2073 C2072 1.363 . S
C2073 C2076 1.363 . S
N2074 C2076 1.356 . S
N2074 H2086 0.984 . S
N2074 H2087 0.985 . S
N2075 C2077 1.356 . S
N2075 H2080 0.984 . S
N2075 H2081 0.985 . S
C2076 C2070 1.379 . S
C2076 C2073 1.363 . S
C2076 N2074 1.356 . S
C2077 C2071 1.363 . S
C2077 C2072 1.379 . S
C2077 N2075 1.356 . S
N2078 C2070 1.356 . S
N2078 H2084 0.984 . S
N2078 H2085 0.984 . S
N2079 C2072 1.356 . S
N2079 H2082 0.984 . S
N2079 H2083 0.985 . S
H2080 N2075 0.984 . S
H2081 N2075 0.985 . S
H2082 N2079 0.984 . S
H2083 N2079 0.985 . S
H2084 N2078 0.984 . S
H2085 N2078 0.984 . S
H2086 N2074 0.984 . S
H2087 N2074 0.985 . S
C2088 C2089 1.363 . S
C2088 C2094 1.379 . S
C2088 N2096 1.356 . S
C2089 C2088 1.363 . S
C2089 C2095 1.363 . S
C2090 C2091 1.363 . S
C2090 C2095 1.379 . S
C2090 N2097 1.356 . S
C2091 C2090 1.363 . S
C2091 C2094 1.363 . S
N2092 C2094 1.356 . S
N2092 H2104 0.984 . S
N2092 H2105 0.985 . S
N2093 C2095 1.356 . S
N2093 H2098 0.984 . S
N2093 H2099 0.985 . S
C2094 C2088 1.379 . S
C2094 C2091 1.363 . S
C2094 N2092 1.356 . S
C2095 C2089 1.363 . S
C2095 C2090 1.379 . S
C2095 N2093 1.356 . S
N2096 C2088 1.356 . S
N2096 H2102 0.984 . S
N2096 H2103 0.984 . S
N2097 C2090 1.356 . S
N2097 H2100 0.984 . S
N2097 H2101 0.985 . S
H2098 N2093 0.984 . S
H2099 N2093 0.985 . S
H2100 N2097 0.984 . S
H2101 N2097 0.985 . S
H2102 N2096 0.984 . S
H2103 N2096 0.984 . S
H2104 N2092 0.984 . S
H2105 N2092 0.985 . S
C2106 C2107 1.363 . S
C2106 C2112 1.379 . S
C2106 N2114 1.356 . S
C2107 C2106 1.363 . S
C2107 C2113 1.363 . S
C2108 C2109 1.363 . S
C2108 C2113 1.379 . S
C2108 N2115 1.356 . S
C2109 C2108 1.363 . S
C2109 C2112 1.363 . S
N2110 C2112 1.356 . S
N2110 H2122 0.984 . S
N2110 H2123 0.985 . S
N2111 C2113 1.356 . S
N2111 H2116 0.984 . S
N2111 H2117 0.985 . S
C2112 C2106 1.379 . S
C2112 C2109 1.363 . S
C2112 N2110 1.356 . S
C2113 C2107 1.363 . S
C2113 C2108 1.379 . S
C2113 N2111 1.356 . S
N2114 C2106 1.356 . S
N2114 H2120 0.984 . S
N2114 H2121 0.984 . S
N2115 C2108 1.356 . S
N2115 H2118 0.984 . S
N2115 H2119 0.985 . S
H2116 N2111 0.984 . S
H2117 N2111 0.985 . S
H2118 N2115 0.984 . S
H2119 N2115 0.985 . S
H2120 N2114 0.984 . S
H2121 N2114 0.984 . S
H2122 N2110 0.984 . S
H2123 N2110 0.985 . S
C2124 C2125 1.363 . S
C2124 C2130 1.379 . S
C2124 N2132 1.356 . S
C2125 C2124 1.363 . S
C2125 C2131 1.363 . S
C2126 C2127 1.363 . S
C2126 C2131 1.379 . S
C2126 N2133 1.356 . S
C2127 C2126 1.363 . S
C2127 C2130 1.363 . S
N2128 C2130 1.356 . S
N2128 H2140 0.984 . S
N2128 H2141 0.985 . S
N2129 C2131 1.356 . S
N2129 H2134 0.984 . S
N2129 H2135 0.985 . S
C2130 C2124 1.379 . S
C2130 C2127 1.363 . S
C2130 N2128 1.356 . S
C2131 C2125 1.363 . S
C2131 C2126 1.379 . S
C2131 N2129 1.356 . S
N2132 C2124 1.356 . S
N2132 H2138 0.984 . S
N2132 H2139 0.984 . S
N2133 C2126 1.356 . S
N2133 H2136 0.984 . S
N2133 H2137 0.985 . S
H2134 N2129 0.984 . S
H2135 N2129 0.985 . S
H2136 N2133 0.984 . S
H2137 N2133 0.985 . S
H2138 N2132 0.984 . S
H2139 N2132 0.984 . S
H2140 N2128 0.984 . S
H2141 N2128 0.985 . S
C2142 C2143 1.363 . S
C2142 C2148 1.379 . S
C2142 N2150 1.356 . S
C2143 C2142 1.363 . S
C2143 C2149 1.363 . S
C2144 C2145 1.363 . S
C2144 C2149 1.379 . S
C2144 N2151 1.356 . S
C2145 C2144 1.363 . S
C2145 C2148 1.363 . S
N2146 C2148 1.356 . S
N2146 H2158 0.984 . S
N2146 H2159 0.985 . S
N2147 C2149 1.356 . S
N2147 H2152 0.984 . S
N2147 H2153 0.985 . S
C2148 C2142 1.379 . S
C2148 C2145 1.363 . S
C2148 N2146 1.356 . S
C2149 C2143 1.363 . S
C2149 C2144 1.379 . S
C2149 N2147 1.356 . S
N2150 C2142 1.356 . S
N2150 H2156 0.984 . S
N2150 H2157 0.984 . S
N2151 C2144 1.356 . S
N2151 H2154 0.984 . S
N2151 H2155 0.985 . S
H2152 N2147 0.984 . S
H2153 N2147 0.985 . S
H2154 N2151 0.984 . S
H2155 N2151 0.985 . S
H2156 N2150 0.984 . S
H2157 N2150 0.984 . S
H2158 N2146 0.984 . S
H2159 N2146 0.985 . S
C2160 C2161 1.363 . S
C2160 C2166 1.379 . S
C2160 N2168 1.356 . S
C2161 C2160 1.363 . S
C2161 C2167 1.363 . S
C2162 C2163 1.363 . S
C2162 C2167 1.379 . S
C2162 N2169 1.356 . S
C2163 C2162 1.363 . S
C2163 C2166 1.363 . S
N2164 C2166 1.356 . S
N2164 H2176 0.984 . S
N2164 H2177 0.985 . S
N2165 C2167 1.356 . S
N2165 H2170 0.984 . S
N2165 H2171 0.985 . S
C2166 C2160 1.379 . S
C2166 C2163 1.363 . S
C2166 N2164 1.356 . S
C2167 C2161 1.363 . S
C2167 C2162 1.379 . S
C2167 N2165 1.356 . S
N2168 C2160 1.356 . S
N2168 H2174 0.984 . S
N2168 H2175 0.984 . S
N2169 C2162 1.356 . S
N2169 H2172 0.984 . S
N2169 H2173 0.985 . S
H2170 N2165 0.984 . S
H2171 N2165 0.985 . S
H2172 N2169 0.984 . S
H2173 N2169 0.985 . S
H2174 N2168 0.984 . S
H2175 N2168 0.984 . S
H2176 N2164 0.984 . S
H2177 N2164 0.985 . S
C2178 C2179 1.363 . S
C2178 C2184 1.379 . S
C2178 N2186 1.356 . S
C2179 C2178 1.363 . S
C2179 C2185 1.363 . S
C2180 C2181 1.363 . S
C2180 C2185 1.379 . S
C2180 N2187 1.356 . S
C2181 C2180 1.363 . S
C2181 C2184 1.363 . S
N2182 C2184 1.356 . S
N2182 H2194 0.984 . S
N2182 H2195 0.985 . S
N2183 C2185 1.356 . S
N2183 H2188 0.984 . S
N2183 H2189 0.985 . S
C2184 C2178 1.379 . S
C2184 C2181 1.363 . S
C2184 N2182 1.356 . S
C2185 C2179 1.363 . S
C2185 C2180 1.379 . S
C2185 N2183 1.356 . S
N2186 C2178 1.356 . S
N2186 H2192 0.984 . S
N2186 H2193 0.984 . S
N2187 C2180 1.356 . S
N2187 H2190 0.984 . S
N2187 H2191 0.985 . S
H2188 N2183 0.984 . S
H2189 N2183 0.985 . S
H2190 N2187 0.984 . S
H2191 N2187 0.985 . S
H2192 N2186 0.984 . S
H2193 N2186 0.984 . S
H2194 N2182 0.984 . S
H2195 N2182 0.985 . S
C2196 C2197 1.363 . S
C2196 C2202 1.379 . S
C2196 N2204 1.356 . S
C2197 C2196 1.363 . S
C2197 C2203 1.363 . S
C2198 C2199 1.363 . S
C2198 C2203 1.379 . S
C2198 N2205 1.356 . S
C2199 C2198 1.363 . S
C2199 C2202 1.363 . S
N2200 C2202 1.356 . S
N2200 H2212 0.984 . S
N2200 H2213 0.985 . S
N2201 C2203 1.356 . S
N2201 H2206 0.984 . S
N2201 H2207 0.985 . S
C2202 C2196 1.379 . S
C2202 C2199 1.363 . S
C2202 N2200 1.356 . S
C2203 C2197 1.363 . S
C2203 C2198 1.379 . S
C2203 N2201 1.356 . S
N2204 C2196 1.356 . S
N2204 H2210 0.984 . S
N2204 H2211 0.984 . S
N2205 C2198 1.356 . S
N2205 H2208 0.984 . S
N2205 H2209 0.985 . S
H2206 N2201 0.984 . S
H2207 N2201 0.985 . S
H2208 N2205 0.984 . S
H2209 N2205 0.985 . S
H2210 N2204 0.984 . S
H2211 N2204 0.984 . S
H2212 N2200 0.984 . S
H2213 N2200 0.985 . S
C2214 C2215 1.363 . S
C2214 C2220 1.379 . S
C2214 N2222 1.356 . S
C2215 C2214 1.363 . S
C2215 C2221 1.363 . S
C2216 C2217 1.363 . S
C2216 C2221 1.379 . S
C2216 N2223 1.356 . S
C2217 C2216 1.363 . S
C2217 C2220 1.363 . S
N2218 C2220 1.356 . S
N2218 H2230 0.984 . S
N2218 H2231 0.985 . S
N2219 C2221 1.356 . S
N2219 H2224 0.984 . S
N2219 H2225 0.985 . S
C2220 C2214 1.379 . S
C2220 C2217 1.363 . S
C2220 N2218 1.356 . S
C2221 C2215 1.363 . S
C2221 C2216 1.379 . S
C2221 N2219 1.356 . S
N2222 C2214 1.356 . S
N2222 H2228 0.984 . S
N2222 H2229 0.984 . S
N2223 C2216 1.356 . S
N2223 H2226 0.984 . S
N2223 H2227 0.985 . S
H2224 N2219 0.984 . S
H2225 N2219 0.985 . S
H2226 N2223 0.984 . S
H2227 N2223 0.985 . S
H2228 N2222 0.984 . S
H2229 N2222 0.984 . S
H2230 N2218 0.984 . S
H2231 N2218 0.985 . S
C2232 C2233 1.363 . S
C2232 C2238 1.379 . S
C2232 N2240 1.356 . S
C2233 C2232 1.363 . S
C2233 C2239 1.363 . S
C2234 C2235 1.363 . S
C2234 C2239 1.379 . S
C2234 N2241 1.356 . S
C2235 C2234 1.363 . S
C2235 C2238 1.363 . S
N2236 C2238 1.356 . S
N2236 H2248 0.984 . S
N2236 H2249 0.985 . S
N2237 C2239 1.356 . S
N2237 H2242 0.984 . S
N2237 H2243 0.985 . S
C2238 C2232 1.379 . S
C2238 C2235 1.363 . S
C2238 N2236 1.356 . S
C2239 C2233 1.363 . S
C2239 C2234 1.379 . S
C2239 N2237 1.356 . S
N2240 C2232 1.356 . S
N2240 H2246 0.984 . S
N2240 H2247 0.984 . S
N2241 C2234 1.356 . S
N2241 H2244 0.984 . S
N2241 H2245 0.985 . S
H2242 N2237 0.984 . S
H2243 N2237 0.985 . S
H2244 N2241 0.984 . S
H2245 N2241 0.985 . S
H2246 N2240 0.984 . S
H2247 N2240 0.984 . S
H2248 N2236 0.984 . S
H2249 N2236 0.985 . S
C2250 C2251 1.363 . S
C2250 C2256 1.379 . S
C2250 N2258 1.356 . S
C2251 C2250 1.363 . S
C2251 C2257 1.363 . S
C2252 C2253 1.363 . S
C2252 C2257 1.379 . S
C2252 N2259 1.356 . S
C2253 C2252 1.363 . S
C2253 C2256 1.363 . S
N2254 C2256 1.356 . S
N2254 H2266 0.984 . S
N2254 H2267 0.985 . S
N2255 C2257 1.356 . S
N2255 H2260 0.984 . S
N2255 H2261 0.985 . S
C2256 C2250 1.379 . S
C2256 C2253 1.363 . S
C2256 N2254 1.356 . S
C2257 C2251 1.363 . S
C2257 C2252 1.379 . S
C2257 N2255 1.356 . S
N2258 C2250 1.356 . S
N2258 H2264 0.984 . S
N2258 H2265 0.984 . S
N2259 C2252 1.356 . S
N2259 H2262 0.984 . S
N2259 H2263 0.985 . S
H2260 N2255 0.984 . S
H2261 N2255 0.985 . S
H2262 N2259 0.984 . S
H2263 N2259 0.985 . S
H2264 N2258 0.984 . S
H2265 N2258 0.984 . S
H2266 N2254 0.984 . S
H2267 N2254 0.985 . S
C2268 C2269 1.363 . S
C2268 C2274 1.379 . S
C2268 N2276 1.356 . S
C2269 C2268 1.363 . S
C2269 C2275 1.363 . S
C2270 C2271 1.363 . S
C2270 C2275 1.379 . S
C2270 N2277 1.356 . S
C2271 C2270 1.363 . S
C2271 C2274 1.363 . S
N2272 C2274 1.356 . S
N2272 H2284 0.984 1_655 S
N2272 H2285 0.985 . S
N2273 C2275 1.356 . S
N2273 H2278 0.984 . S
N2273 H2279 0.985 . S
C2274 C2268 1.379 . S
C2274 C2271 1.363 . S
C2274 N2272 1.356 . S
C2275 C2269 1.363 . S
C2275 C2270 1.379 . S
C2275 N2273 1.356 . S
N2276 C2268 1.356 . S
N2276 H2282 0.984 . S
N2276 H2283 0.984 . S
N2277 C2270 1.356 . S
N2277 H2280 0.984 . S
N2277 H2281 0.985 . S
H2278 N2273 0.984 . S
H2279 N2273 0.985 . S
H2280 N2277 0.984 . S
H2281 N2277 0.985 . S
H2282 N2276 0.984 . S
H2283 N2276 0.984 . S
H2284 N2272 0.984 1_455 S
H2285 N2272 0.985 . S
C2286 C2287 1.363 . S
C2286 C2292 1.379 . S
C2286 N2294 1.356 . S
C2287 C2286 1.363 . S
C2287 C2293 1.363 . S
C2288 C2289 1.363 . S
C2288 C2293 1.379 . S
C2288 N2295 1.356 . S
C2289 C2288 1.363 . S
C2289 C2292 1.363 . S
N2290 C2292 1.356 . S
N2290 H2302 0.984 . S
N2290 H2303 0.985 . S
N2291 C2293 1.356 . S
N2291 H2296 0.984 . S
N2291 H2297 0.985 . S
C2292 C2286 1.379 . S
C2292 C2289 1.363 . S
C2292 N2290 1.356 . S
C2293 C2287 1.363 . S
C2293 C2288 1.379 . S
C2293 N2291 1.356 . S
N2294 C2286 1.356 . S
N2294 H2300 0.984 . S
N2294 H2301 0.984 . S
N2295 C2288 1.356 . S
N2295 H2298 0.984 . S
N2295 H2299 0.985 . S
H2296 N2291 0.984 . S
H2297 N2291 0.985 . S
H2298 N2295 0.984 . S
H2299 N2295 0.985 . S
H2300 N2294 0.984 . S
H2301 N2294 0.984 . S
H2302 N2290 0.984 . S
H2303 N2290 0.985 . S
C2304 C2305 1.363 . S
C2304 C2310 1.379 . S
C2304 N2312 1.356 . S
C2305 C2304 1.363 . S
C2305 C2311 1.363 . S
C2306 C2307 1.363 . S
C2306 C2311 1.379 . S
C2306 N2313 1.356 . S
C2307 C2306 1.363 . S
C2307 C2310 1.363 . S
N2308 C2310 1.356 . S
N2308 H2320 0.984 . S
N2308 H2321 0.985 . S
N2309 C2311 1.356 . S
N2309 H2314 0.984 . S
N2309 H2315 0.985 . S
C2310 C2304 1.379 . S
C2310 C2307 1.363 . S
C2310 N2308 1.356 . S
C2311 C2305 1.363 . S
C2311 C2306 1.379 . S
C2311 N2309 1.356 . S
N2312 C2304 1.356 . S
N2312 H2318 0.984 . S
N2312 H2319 0.984 . S
N2313 C2306 1.356 . S
N2313 H2316 0.984 . S
N2313 H2317 0.985 . S
H2314 N2309 0.984 . S
H2315 N2309 0.985 . S
H2316 N2313 0.984 . S
H2317 N2313 0.985 . S
H2318 N2312 0.984 . S
H2319 N2312 0.984 . S
H2320 N2308 0.984 . S
H2321 N2308 0.985 . S
C2322 C2323 1.363 . S
C2322 C2328 1.379 . S
C2322 N2330 1.356 . S
C2323 C2322 1.363 . S
C2323 C2329 1.363 . S
C2324 C2325 1.363 . S
C2324 C2329 1.379 . S
C2324 N2331 1.356 . S
C2325 C2324 1.363 . S
C2325 C2328 1.363 . S
N2326 C2328 1.356 . S
N2326 H2338 0.984 . S
N2326 H2339 0.985 . S
N2327 C2329 1.356 . S
N2327 H2332 0.984 . S
N2327 H2333 0.985 . S
C2328 C2322 1.379 . S
C2328 C2325 1.363 . S
C2328 N2326 1.356 . S
C2329 C2323 1.363 . S
C2329 C2324 1.379 . S
C2329 N2327 1.356 . S
N2330 C2322 1.356 . S
N2330 H2336 0.984 . S
N2330 H2337 0.984 . S
N2331 C2324 1.356 . S
N2331 H2334 0.984 . S
N2331 H2335 0.985 . S
H2332 N2327 0.984 . S
H2333 N2327 0.985 . S
H2334 N2331 0.984 . S
H2335 N2331 0.985 . S
H2336 N2330 0.984 . S
H2337 N2330 0.984 . S
H2338 N2326 0.984 . S
H2339 N2326 0.985 . S
C2340 C2341 1.363 . S
C2340 C2346 1.379 . S
C2340 N2348 1.356 . S
C2341 C2340 1.363 . S
C2341 C2347 1.363 . S
C2342 C2343 1.363 . S
C2342 C2347 1.379 . S
C2342 N2349 1.356 . S
C2343 C2342 1.363 . S
C2343 C2346 1.363 . S
N2344 C2346 1.356 . S
N2344 H2356 0.984 . S
N2344 H2357 0.985 . S
N2345 C2347 1.356 . S
N2345 H2350 0.984 . S
N2345 H2351 0.985 . S
C2346 C2340 1.379 . S
C2346 C2343 1.363 . S
C2346 N2344 1.356 . S
C2347 C2341 1.363 . S
C2347 C2342 1.379 . S
C2347 N2345 1.356 . S
N2348 C2340 1.356 . S
N2348 H2354 0.984 . S
N2348 H2355 0.984 . S
N2349 C2342 1.356 . S
N2349 H2352 0.984 . S
N2349 H2353 0.985 . S
H2350 N2345 0.984 . S
H2351 N2345 0.985 . S
H2352 N2349 0.984 . S
H2353 N2349 0.985 . S
H2354 N2348 0.984 . S
H2355 N2348 0.984 . S
H2356 N2344 0.984 . S
H2357 N2344 0.985 . S
C2358 C2359 1.363 . S
C2358 C2364 1.379 . S
C2358 N2366 1.356 . S
C2359 C2358 1.363 . S
C2359 C2365 1.363 . S
C2360 C2361 1.363 . S
C2360 C2365 1.379 . S
C2360 N2367 1.356 . S
C2361 C2360 1.363 . S
C2361 C2364 1.363 . S
N2362 C2364 1.356 . S
N2362 H2374 0.984 . S
N2362 H2375 0.985 . S
N2363 C2365 1.356 . S
N2363 H2368 0.984 . S
N2363 H2369 0.985 . S
C2364 C2358 1.379 . S
C2364 C2361 1.363 . S
C2364 N2362 1.356 . S
C2365 C2359 1.363 . S
C2365 C2360 1.379 . S
C2365 N2363 1.356 . S
N2366 C2358 1.356 . S
N2366 H2372 0.984 . S
N2366 H2373 0.984 . S
N2367 C2360 1.356 . S
N2367 H2370 0.984 . S
N2367 H2371 0.985 1_565 S
H2368 N2363 0.984 . S
H2369 N2363 0.985 . S
H2370 N2367 0.984 . S
H2371 N2367 0.985 1_545 S
H2372 N2366 0.984 . S
H2373 N2366 0.984 . S
H2374 N2362 0.984 . S
H2375 N2362 0.985 . S
C2376 C2377 1.363 . S
C2376 C2382 1.379 . S
C2376 N2384 1.356 . S
C2377 C2376 1.363 . S
C2377 C2383 1.363 . S
C2378 C2379 1.363 . S
C2378 C2383 1.379 . S
C2378 N2385 1.356 . S
C2379 C2378 1.363 . S
C2379 C2382 1.363 . S
N2380 C2382 1.356 . S
N2380 H2392 0.984 . S
N2380 H2393 0.985 . S
N2381 C2383 1.356 . S
N2381 H2386 0.984 . S
N2381 H2387 0.985 1_455 S
C2382 C2376 1.379 . S
C2382 C2379 1.363 . S
C2382 N2380 1.356 . S
C2383 C2377 1.363 . S
C2383 C2378 1.379 . S
C2383 N2381 1.356 . S
N2384 C2376 1.356 . S
N2384 H2390 0.984 . S
N2384 H2391 0.984 . S
N2385 C2378 1.356 . S
N2385 H2388 0.984 . S
N2385 H2389 0.985 . S
H2386 N2381 0.984 . S
H2387 N2381 0.985 1_655 S
H2388 N2385 0.984 . S
H2389 N2385 0.985 . S
H2390 N2384 0.984 . S
H2391 N2384 0.984 . S
H2392 N2380 0.984 . S
H2393 N2380 0.985 . S
C2394 C2395 1.363 . S
C2394 C2400 1.379 . S
C2394 N2402 1.356 . S
C2395 C2394 1.363 . S
C2395 C2401 1.363 . S
C2396 C2397 1.363 . S
C2396 C2401 1.379 . S
C2396 N2403 1.356 . S
C2397 C2396 1.363 . S
C2397 C2400 1.363 . S
N2398 C2400 1.356 . S
N2398 H2410 0.984 . S
N2398 H2411 0.985 . S
N2399 C2401 1.356 . S
N2399 H2404 0.984 . S
N2399 H2405 0.985 . S
C2400 C2394 1.379 . S
C2400 C2397 1.363 . S
C2400 N2398 1.356 . S
C2401 C2395 1.363 . S
C2401 C2396 1.379 . S
C2401 N2399 1.356 . S
N2402 C2394 1.356 . S
N2402 H2408 0.984 . S
N2402 H2409 0.984 . S
N2403 C2396 1.356 . S
N2403 H2406 0.984 . S
N2403 H2407 0.985 . S
H2404 N2399 0.984 . S
H2405 N2399 0.985 . S
H2406 N2403 0.984 . S
H2407 N2403 0.985 . S
H2408 N2402 0.984 . S
H2409 N2402 0.984 . S
H2410 N2398 0.984 . S
H2411 N2398 0.985 . S
C2412 C2413 1.363 . S
C2412 C2418 1.379 1_455 S
C2412 N2420 1.356 . S
C2413 C2412 1.363 . S
C2413 C2419 1.363 . S
C2414 C2415 1.363 . S
C2414 C2419 1.379 1_655 S
C2414 N2421 1.356 . S
C2415 C2414 1.363 . S
C2415 C2418 1.363 . S
N2416 C2418 1.356 . S
N2416 H2428 0.984 . S
N2416 H2429 0.985 . S
N2417 C2419 1.356 . S
N2417 H2422 0.984 . S
N2417 H2423 0.985 . S
C2418 C2412 1.379 1_655 S
C2418 C2415 1.363 . S
C2418 N2416 1.356 . S
C2419 C2413 1.363 . S
C2419 C2414 1.379 1_455 S
C2419 N2417 1.356 . S
N2420 C2412 1.356 . S
N2420 H2426 0.984 . S
N2420 H2427 0.984 . S
N2421 C2414 1.356 . S
N2421 H2424 0.984 . S
N2421 H2425 0.985 . S
H2422 N2417 0.984 . S
H2423 N2417 0.985 . S
H2424 N2421 0.984 . S
H2425 N2421 0.985 . S
H2426 N2420 0.984 . S
H2427 N2420 0.984 . S
H2428 N2416 0.984 . S
H2429 N2416 0.985 . S
C2430 C2431 1.363 . S
C2430 C2436 1.379 . S
C2430 N2438 1.356 . S
C2431 C2430 1.363 . S
C2431 C2437 1.363 . S
C2432 C2433 1.363 . S
C2432 C2437 1.379 . S
C2432 N2439 1.356 . S
C2433 C2432 1.363 . S
C2433 C2436 1.363 . S
N2434 C2436 1.356 . S
N2434 H2446 0.984 . S
N2434 H2447 0.985 . S
N2435 C2437 1.356 . S
N2435 H2440 0.984 . S
N2435 H2441 0.985 . S
C2436 C2430 1.379 . S
C2436 C2433 1.363 . S
C2436 N2434 1.356 . S
C2437 C2431 1.363 . S
C2437 C2432 1.379 . S
C2437 N2435 1.356 . S
N2438 C2430 1.356 . S
N2438 H2444 0.984 . S
N2438 H2445 0.984 . S
N2439 C2432 1.356 . S
N2439 H2442 0.984 . S
N2439 H2443 0.985 . S
H2440 N2435 0.984 . S
H2441 N2435 0.985 . S
H2442 N2439 0.984 . S
H2443 N2439 0.985 . S
H2444 N2438 0.984 . S
H2445 N2438 0.984 . S
H2446 N2434 0.984 . S
H2447 N2434 0.985 . S
C2448 C2449 1.363 . S
C2448 C2454 1.379 1_565 S
C2448 N2456 1.356 . S
C2449 C2448 1.363 . S
C2449 C2455 1.363 . S
C2450 C2451 1.363 . S
C2450 C2455 1.379 1_545 S
C2450 N2457 1.356 . S
C2451 C2450 1.363 . S
C2451 C2454 1.363 . S
N2452 C2454 1.356 . S
N2452 H2464 0.984 . S
N2452 H2465 0.985 . S
N2453 C2455 1.356 . S
N2453 H2458 0.984 . S
N2453 H2459 0.985 . S
C2454 C2448 1.379 1_545 S
C2454 C2451 1.363 . S
C2454 N2452 1.356 . S
C2455 C2449 1.363 . S
C2455 C2450 1.379 1_565 S
C2455 N2453 1.356 . S
N2456 C2448 1.356 . S
N2456 H2462 0.984 . S
N2456 H2463 0.984 . S
N2457 C2450 1.356 . S
N2457 H2460 0.984 . S
N2457 H2461 0.985 . S
H2458 N2453 0.984 . S
H2459 N2453 0.985 . S
H2460 N2457 0.984 . S
H2461 N2457 0.985 . S
H2462 N2456 0.984 . S
H2463 N2456 0.984 . S
H2464 N2452 0.984 . S
H2465 N2452 0.985 . S
C2466 C2467 1.363 . S
C2466 C2472 1.379 1_545 S
C2466 N2474 1.356 . S
C2467 C2466 1.363 . S
C2467 C2473 1.363 . S
C2468 C2469 1.363 . S
C2468 C2473 1.379 1_565 S
C2468 N2475 1.356 . S
C2469 C2468 1.363 . S
C2469 C2472 1.363 . S
N2470 C2472 1.356 . S
N2470 H2482 0.984 . S
N2470 H2483 0.985 . S
N2471 C2473 1.356 . S
N2471 H2476 0.984 . S
N2471 H2477 0.985 . S
C2472 C2466 1.379 1_565 S
C2472 C2469 1.363 . S
C2472 N2470 1.356 . S
C2473 C2467 1.363 . S
C2473 C2468 1.379 1_545 S
C2473 N2471 1.356 . S
N2474 C2466 1.356 . S
N2474 H2480 0.984 . S
N2474 H2481 0.984 . S
N2475 C2468 1.356 . S
N2475 H2478 0.984 . S
N2475 H2479 0.985 . S
H2476 N2471 0.984 . S
H2477 N2471 0.985 . S
H2478 N2475 0.984 . S
H2479 N2475 0.985 . S
H2480 N2474 0.984 . S
H2481 N2474 0.984 . S
H2482 N2470 0.984 . S
H2483 N2470 0.985 . S
C2484 C2485 1.363 . S
C2484 C2490 1.379 1_655 S
C2484 N2492 1.356 . S
C2485 C2484 1.363 . S
C2485 C2491 1.363 . S
C2486 C2487 1.363 . S
C2486 C2491 1.379 1_455 S
C2486 N2493 1.356 . S
C2487 C2486 1.363 . S
C2487 C2490 1.363 . S
N2488 C2490 1.356 . S
N2488 H2500 0.984 . S
N2488 H2501 0.985 . S
N2489 C2491 1.356 . S
N2489 H2494 0.984 . S
N2489 H2495 0.985 . S
C2490 C2484 1.379 1_455 S
C2490 C2487 1.363 . S
C2490 N2488 1.356 . S
C2491 C2485 1.363 . S
C2491 C2486 1.379 1_655 S
C2491 N2489 1.356 . S
N2492 C2484 1.356 . S
N2492 H2498 0.984 . S
N2492 H2499 0.984 . S
N2493 C2486 1.356 . S
N2493 H2496 0.984 . S
N2493 H2497 0.985 . S
H2494 N2489 0.984 . S
H2495 N2489 0.985 . S
H2496 N2493 0.984 . S
H2497 N2493 0.985 . S
H2498 N2492 0.984 . S
H2499 N2492 0.984 . S
H2500 N2488 0.984 . S
H2501 N2488 0.985 . S
C2502 C2503 1.363 . S
C2502 C2508 1.379 . S
C2502 N2510 1.356 . S
C2503 C2502 1.363 . S
C2503 C2509 1.363 . S
C2504 C2505 1.363 . S
C2504 C2509 1.379 . S
C2504 N2511 1.356 . S
C2505 C2504 1.363 . S
C2505 C2508 1.363 . S
N2506 C2508 1.356 . S
N2506 H2518 0.984 . S
N2506 H2519 0.985 . S
N2507 C2509 1.356 . S
N2507 H2512 0.984 . S
N2507 H2513 0.985 . S
C2508 C2502 1.379 . S
C2508 C2505 1.363 . S
C2508 N2506 1.356 . S
C2509 C2503 1.363 . S
C2509 C2504 1.379 . S
C2509 N2507 1.356 . S
N2510 C2502 1.356 . S
N2510 H2516 0.984 . S
N2510 H2517 0.984 . S
N2511 C2504 1.356 . S
N2511 H2514 0.984 . S
N2511 H2515 0.985 . S
H2512 N2507 0.984 . S
H2513 N2507 0.985 . S
H2514 N2511 0.984 . S
H2515 N2511 0.985 . S
H2516 N2510 0.984 . S
H2517 N2510 0.984 . S
H2518 N2506 0.984 . S
H2519 N2506 0.985 . S
C2520 C2521 1.363 . S
C2520 C2526 1.379 . S
C2520 N2528 1.356 . S
C2521 C2520 1.363 . S
C2521 C2527 1.363 . S
C2522 C2523 1.363 . S
C2522 C2527 1.379 . S
C2522 N2529 1.356 . S
C2523 C2522 1.363 . S
C2523 C2526 1.363 . S
N2524 C2526 1.356 . S
N2524 H2536 0.984 . S
N2524 H2537 0.985 . S
N2525 C2527 1.356 . S
N2525 H2530 0.984 . S
N2525 H2531 0.985 . S
C2526 C2520 1.379 . S
C2526 C2523 1.363 . S
C2526 N2524 1.356 . S
C2527 C2521 1.363 . S
C2527 C2522 1.379 . S
C2527 N2525 1.356 . S
N2528 C2520 1.356 . S
N2528 H2534 0.984 . S
N2528 H2535 0.984 . S
N2529 C2522 1.356 . S
N2529 H2532 0.984 . S
N2529 H2533 0.985 . S
H2530 N2525 0.984 . S
H2531 N2525 0.985 . S
H2532 N2529 0.984 . S
H2533 N2529 0.985 . S
H2534 N2528 0.984 . S
H2535 N2528 0.984 . S
H2536 N2524 0.984 . S
H2537 N2524 0.985 . S
C2538 C2539 1.363 . S
C2538 C2544 1.379 . S
C2538 N2546 1.356 . S
C2539 C2538 1.363 . S
C2539 C2545 1.363 . S
C2540 C2541 1.363 . S
C2540 C2545 1.379 . S
C2540 N2547 1.356 . S
C2541 C2540 1.363 . S
C2541 C2544 1.363 . S
N2542 C2544 1.356 . S
N2542 H2554 0.984 . S
N2542 H2555 0.985 . S
N2543 C2545 1.356 . S
N2543 H2548 0.984 . S
N2543 H2549 0.985 . S
C2544 C2538 1.379 . S
C2544 C2541 1.363 . S
C2544 N2542 1.356 . S
C2545 C2539 1.363 . S
C2545 C2540 1.379 . S
C2545 N2543 1.356 . S
N2546 C2538 1.356 . S
N2546 H2552 0.984 . S
N2546 H2553 0.984 . S
N2547 C2540 1.356 . S
N2547 H2550 0.984 . S
N2547 H2551 0.985 . S
H2548 N2543 0.984 . S
H2549 N2543 0.985 . S
H2550 N2547 0.984 . S
H2551 N2547 0.985 . S
H2552 N2546 0.984 . S
H2553 N2546 0.984 . S
H2554 N2542 0.984 . S
H2555 N2542 0.985 . S
C2556 C2557 1.363 . S
C2556 C2562 1.379 . S
C2556 N2564 1.356 . S
C2557 C2556 1.363 . S
C2557 C2563 1.363 . S
C2558 C2559 1.363 . S
C2558 C2563 1.379 . S
C2558 N2565 1.356 . S
C2559 C2558 1.363 . S
C2559 C2562 1.363 . S
N2560 C2562 1.356 . S
N2560 H2572 0.984 . S
N2560 H2573 0.985 . S
N2561 C2563 1.356 . S
N2561 H2566 0.984 . S
N2561 H2567 0.985 . S
C2562 C2556 1.379 . S
C2562 C2559 1.363 . S
C2562 N2560 1.356 . S
C2563 C2557 1.363 . S
C2563 C2558 1.379 . S
C2563 N2561 1.356 . S
N2564 C2556 1.356 . S
N2564 H2570 0.984 . S
N2564 H2571 0.984 . S
N2565 C2558 1.356 . S
N2565 H2568 0.984 . S
N2565 H2569 0.985 . S
H2566 N2561 0.984 . S
H2567 N2561 0.985 . S
H2568 N2565 0.984 . S
H2569 N2565 0.985 . S
H2570 N2564 0.984 . S
H2571 N2564 0.984 . S
H2572 N2560 0.984 . S
H2573 N2560 0.985 . S
C2574 C2575 1.363 . S
C2574 C2580 1.379 . S
C2574 N2582 1.356 . S
C2575 C2574 1.363 . S
C2575 C2581 1.363 . S
C2576 C2577 1.363 . S
C2576 C2581 1.379 . S
C2576 N2583 1.356 . S
C2577 C2576 1.363 . S
C2577 C2580 1.363 . S
N2578 C2580 1.356 . S
N2578 H2590 0.984 . S
N2578 H2591 0.985 . S
N2579 C2581 1.356 . S
N2579 H2584 0.984 . S
N2579 H2585 0.985 . S
C2580 C2574 1.379 . S
C2580 C2577 1.363 . S
C2580 N2578 1.356 . S
C2581 C2575 1.363 . S
C2581 C2576 1.379 . S
C2581 N2579 1.356 . S
N2582 C2574 1.356 . S
N2582 H2588 0.984 . S
N2582 H2589 0.984 . S
N2583 C2576 1.356 . S
N2583 H2586 0.984 . S
N2583 H2587 0.985 . S
H2584 N2579 0.984 . S
H2585 N2579 0.985 . S
H2586 N2583 0.984 . S
H2587 N2583 0.985 . S
H2588 N2582 0.984 . S
H2589 N2582 0.984 . S
H2590 N2578 0.984 . S
H2591 N2578 0.985 . S
C2592 C2593 1.363 . S
C2592 C2598 1.379 . S
C2592 N2600 1.356 . S
C2593 C2592 1.363 . S
C2593 C2599 1.363 . S
C2594 C2595 1.363 . S
C2594 C2599 1.379 . S
C2594 N2601 1.356 . S
C2595 C2594 1.363 . S
C2595 C2598 1.363 . S
N2596 C2598 1.356 . S
N2596 H2608 0.984 . S
N2596 H2609 0.985 . S
N2597 C2599 1.356 . S
N2597 H2602 0.984 . S
N2597 H2603 0.985 . S
C2598 C2592 1.379 . S
C2598 C2595 1.363 . S
C2598 N2596 1.356 . S
C2599 C2593 1.363 . S
C2599 C2594 1.379 . S
C2599 N2597 1.356 . S
N2600 C2592 1.356 . S
N2600 H2606 0.984 . S
N2600 H2607 0.984 . S
N2601 C2594 1.356 . S
N2601 H2604 0.984 . S
N2601 H2605 0.985 . S
H2602 N2597 0.984 . S
H2603 N2597 0.985 . S
H2604 N2601 0.984 . S
H2605 N2601 0.985 . S
H2606 N2600 0.984 . S
H2607 N2600 0.984 . S
H2608 N2596 0.984 . S
H2609 N2596 0.985 . S
C2610 C2611 1.363 . S
C2610 C2616 1.379 . S
C2610 N2618 1.356 . S
C2611 C2610 1.363 . S
C2611 C2617 1.363 . S
C2612 C2613 1.363 . S
C2612 C2617 1.379 . S
C2612 N2619 1.356 . S
C2613 C2612 1.363 . S
C2613 C2616 1.363 . S
N2614 C2616 1.356 . S
N2614 H2626 0.984 . S
N2614 H2627 0.985 . S
N2615 C2617 1.356 . S
N2615 H2620 0.984 . S
N2615 H2621 0.985 . S
C2616 C2610 1.379 . S
C2616 C2613 1.363 . S
C2616 N2614 1.356 . S
C2617 C2611 1.363 . S
C2617 C2612 1.379 . S
C2617 N2615 1.356 . S
N2618 C2610 1.356 . S
N2618 H2624 0.984 . S
N2618 H2625 0.984 . S
N2619 C2612 1.356 . S
N2619 H2622 0.984 . S
N2619 H2623 0.985 . S
H2620 N2615 0.984 . S
H2621 N2615 0.985 . S
H2622 N2619 0.984 . S
H2623 N2619 0.985 . S
H2624 N2618 0.984 . S
H2625 N2618 0.984 . S
H2626 N2614 0.984 . S
H2627 N2614 0.985 . S
C2628 C2629 1.363 . S
C2628 C2634 1.379 . S
C2628 N2636 1.356 . S
C2629 C2628 1.363 . S
C2629 C2635 1.363 . S
C2630 C2631 1.363 . S
C2630 C2635 1.379 . S
C2630 N2637 1.356 . S
C2631 C2630 1.363 . S
C2631 C2634 1.363 . S
N2632 C2634 1.356 . S
N2632 H2644 0.984 . S
N2632 H2645 0.985 . S
N2633 C2635 1.356 . S
N2633 H2638 0.984 . S
N2633 H2639 0.985 . S
C2634 C2628 1.379 . S
C2634 C2631 1.363 . S
C2634 N2632 1.356 . S
C2635 C2629 1.363 . S
C2635 C2630 1.379 . S
C2635 N2633 1.356 . S
N2636 C2628 1.356 . S
N2636 H2642 0.984 . S
N2636 H2643 0.984 . S
N2637 C2630 1.356 . S
N2637 H2640 0.984 . S
N2637 H2641 0.985 . S
H2638 N2633 0.984 . S
H2639 N2633 0.985 . S
H2640 N2637 0.984 . S
H2641 N2637 0.985 . S
H2642 N2636 0.984 . S
H2643 N2636 0.984 . S
H2644 N2632 0.984 . S
H2645 N2632 0.985 . S
C2646 C2647 1.363 . S
C2646 C2652 1.379 . S
C2646 N2654 1.356 . S
C2647 C2646 1.363 . S
C2647 C2653 1.363 . S
C2648 C2649 1.363 . S
C2648 C2653 1.379 . S
C2648 N2655 1.356 . S
C2649 C2648 1.363 . S
C2649 C2652 1.363 . S
N2650 C2652 1.356 . S
N2650 H2662 0.984 . S
N2650 H2663 0.985 . S
N2651 C2653 1.356 . S
N2651 H2656 0.984 . S
N2651 H2657 0.985 . S
C2652 C2646 1.379 . S
C2652 C2649 1.363 . S
C2652 N2650 1.356 . S
C2653 C2647 1.363 . S
C2653 C2648 1.379 . S
C2653 N2651 1.356 . S
N2654 C2646 1.356 . S
N2654 H2660 0.984 . S
N2654 H2661 0.984 . S
N2655 C2648 1.356 . S
N2655 H2658 0.984 . S
N2655 H2659 0.985 . S
H2656 N2651 0.984 . S
H2657 N2651 0.985 . S
H2658 N2655 0.984 . S
H2659 N2655 0.985 . S
H2660 N2654 0.984 . S
H2661 N2654 0.984 . S
H2662 N2650 0.984 . S
H2663 N2650 0.985 . S
C2664 C2665 1.363 . S
C2664 C2670 1.379 . S
C2664 N2672 1.356 . S
C2665 C2664 1.363 . S
C2665 C2671 1.363 . S
C2666 C2667 1.363 . S
C2666 C2671 1.379 . S
C2666 N2673 1.356 . S
C2667 C2666 1.363 . S
C2667 C2670 1.363 . S
N2668 C2670 1.356 . S
N2668 H2680 0.984 . S
N2668 H2681 0.985 . S
N2669 C2671 1.356 . S
N2669 H2674 0.984 . S
N2669 H2675 0.985 . S
C2670 C2664 1.379 . S
C2670 C2667 1.363 . S
C2670 N2668 1.356 . S
C2671 C2665 1.363 . S
C2671 C2666 1.379 . S
C2671 N2669 1.356 . S
N2672 C2664 1.356 . S
N2672 H2678 0.984 . S
N2672 H2679 0.984 . S
N2673 C2666 1.356 . S
N2673 H2676 0.984 . S
N2673 H2677 0.985 . S
H2674 N2669 0.984 . S
H2675 N2669 0.985 . S
H2676 N2673 0.984 . S
H2677 N2673 0.985 . S
H2678 N2672 0.984 . S
H2679 N2672 0.984 . S
H2680 N2668 0.984 . S
H2681 N2668 0.985 . S
C2682 C2683 1.363 . S
C2682 C2688 1.379 . S
C2682 N2690 1.356 . S
C2683 C2682 1.363 . S
C2683 C2689 1.363 . S
C2684 C2685 1.363 . S
C2684 C2689 1.379 . S
C2684 N2691 1.356 . S
C2685 C2684 1.363 . S
C2685 C2688 1.363 . S
N2686 C2688 1.356 . S
N2686 H2698 0.984 . S
N2686 H2699 0.985 . S
N2687 C2689 1.356 . S
N2687 H2692 0.984 . S
N2687 H2693 0.985 . S
C2688 C2682 1.379 . S
C2688 C2685 1.363 . S
C2688 N2686 1.356 . S
C2689 C2683 1.363 . S
C2689 C2684 1.379 . S
C2689 N2687 1.356 . S
N2690 C2682 1.356 . S
N2690 H2696 0.984 . S
N2690 H2697 0.984 . S
N2691 C2684 1.356 . S
N2691 H2694 0.984 . S
N2691 H2695 0.985 . S
H2692 N2687 0.984 . S
H2693 N2687 0.985 . S
H2694 N2691 0.984 . S
H2695 N2691 0.985 . S
H2696 N2690 0.984 . S
H2697 N2690 0.984 . S
H2698 N2686 0.984 . S
H2699 N2686 0.985 . S
C2700 C2701 1.363 . S
C2700 C2706 1.379 . S
C2700 N2708 1.356 . S
C2701 C2700 1.363 . S
C2701 C2707 1.363 . S
C2702 C2703 1.363 . S
C2702 C2707 1.379 . S
C2702 N2709 1.356 . S
C2703 C2702 1.363 . S
C2703 C2706 1.363 . S
N2704 C2706 1.356 . S
N2704 H2716 0.984 . S
N2704 H2717 0.985 . S
N2705 C2707 1.356 . S
N2705 H2710 0.984 . S
N2705 H2711 0.985 . S
C2706 C2700 1.379 . S
C2706 C2703 1.363 . S
C2706 N2704 1.356 . S
C2707 C2701 1.363 . S
C2707 C2702 1.379 . S
C2707 N2705 1.356 . S
N2708 C2700 1.356 . S
N2708 H2714 0.984 . S
N2708 H2715 0.984 . S
N2709 C2702 1.356 . S
N2709 H2712 0.984 . S
N2709 H2713 0.985 . S
H2710 N2705 0.984 . S
H2711 N2705 0.985 . S
H2712 N2709 0.984 . S
H2713 N2709 0.985 . S
H2714 N2708 0.984 . S
H2715 N2708 0.984 . S
H2716 N2704 0.984 . S
H2717 N2704 0.985 . S
C2718 C2719 1.363 . S
C2718 C2724 1.379 . S
C2718 N2726 1.356 . S
C2719 C2718 1.363 . S
C2719 C2725 1.363 . S
C2720 C2721 1.363 . S
C2720 C2725 1.379 . S
C2720 N2727 1.356 . S
C2721 C2720 1.363 . S
C2721 C2724 1.363 . S
N2722 C2724 1.356 . S
N2722 H2734 0.984 . S
N2722 H2735 0.985 . S
N2723 C2725 1.356 . S
N2723 H2728 0.984 . S
N2723 H2729 0.985 . S
C2724 C2718 1.379 . S
C2724 C2721 1.363 . S
C2724 N2722 1.356 . S
C2725 C2719 1.363 . S
C2725 C2720 1.379 . S
C2725 N2723 1.356 . S
N2726 C2718 1.356 . S
N2726 H2732 0.984 . S
N2726 H2733 0.984 . S
N2727 C2720 1.356 . S
N2727 H2730 0.984 . S
N2727 H2731 0.985 . S
H2728 N2723 0.984 . S
H2729 N2723 0.985 . S
H2730 N2727 0.984 . S
H2731 N2727 0.985 . S
H2732 N2726 0.984 . S
H2733 N2726 0.984 . S
H2734 N2722 0.984 . S
H2735 N2722 0.985 . S
C2736 C2737 1.363 . S
C2736 C2742 1.379 . S
C2736 N2744 1.356 . S
C2737 C2736 1.363 . S
C2737 C2743 1.363 . S
C2738 C2739 1.363 . S
C2738 C2743 1.379 . S
C2738 N2745 1.356 . S
C2739 C2738 1.363 . S
C2739 C2742 1.363 . S
N2740 C2742 1.356 . S
N2740 H2752 0.984 . S
N2740 H2753 0.985 . S
N2741 C2743 1.356 . S
N2741 H2746 0.984 . S
N2741 H2747 0.985 . S
C2742 C2736 1.379 . S
C2742 C2739 1.363 . S
C2742 N2740 1.356 . S
C2743 C2737 1.363 . S
C2743 C2738 1.379 . S
C2743 N2741 1.356 . S
N2744 C2736 1.356 . S
N2744 H2750 0.984 . S
N2744 H2751 0.984 . S
N2745 C2738 1.356 . S
N2745 H2748 0.984 . S
N2745 H2749 0.985 . S
H2746 N2741 0.984 . S
H2747 N2741 0.985 . S
H2748 N2745 0.984 . S
H2749 N2745 0.985 . S
H2750 N2744 0.984 . S
H2751 N2744 0.984 . S
H2752 N2740 0.984 . S
H2753 N2740 0.985 . S
C2754 C2755 1.363 1_565 S
C2754 C2760 1.379 . S
C2754 N2762 1.356 . S
C2755 C2754 1.363 1_545 S
C2755 C2761 1.363 . S
C2756 C2757 1.363 1_545 S
C2756 C2761 1.379 . S
C2756 N2763 1.356 . S
C2757 C2756 1.363 1_565 S
C2757 C2760 1.363 . S
N2758 C2760 1.356 . S
N2758 H2770 0.984 . S
N2758 H2771 0.985 . S
N2759 C2761 1.356 . S
N2759 H2764 0.984 . S
N2759 H2765 0.985 . S
C2760 C2754 1.379 . S
C2760 C2757 1.363 . S
C2760 N2758 1.356 . S
C2761 C2755 1.363 . S
C2761 C2756 1.379 . S
C2761 N2759 1.356 . S
N2762 C2754 1.356 . S
N2762 H2768 0.984 . S
N2762 H2769 0.984 . S
N2763 C2756 1.356 . S
N2763 H2766 0.984 . S
N2763 H2767 0.985 . S
H2764 N2759 0.984 . S
H2765 N2759 0.985 . S
H2766 N2763 0.984 . S
H2767 N2763 0.985 . S
H2768 N2762 0.984 . S
H2769 N2762 0.984 . S
H2770 N2758 0.984 . S
H2771 N2758 0.985 . S
C2772 C2773 1.363 1_455 S
C2772 C2778 1.379 . S
C2772 N2780 1.356 . S
C2773 C2772 1.363 1_655 S
C2773 C2779 1.363 . S
C2774 C2775 1.363 1_655 S
C2774 C2779 1.379 . S
C2774 N2781 1.356 . S
C2775 C2774 1.363 1_455 S
C2775 C2778 1.363 . S
N2776 C2778 1.356 . S
N2776 H2788 0.984 . S
N2776 H2789 0.985 . S
N2777 C2779 1.356 . S
N2777 H2782 0.984 . S
N2777 H2783 0.985 . S
C2778 C2772 1.379 . S
C2778 C2775 1.363 . S
C2778 N2776 1.356 . S
C2779 C2773 1.363 . S
C2779 C2774 1.379 . S
C2779 N2777 1.356 . S
N2780 C2772 1.356 . S
N2780 H2786 0.984 . S
N2780 H2787 0.984 1_455 S
N2781 C2774 1.356 . S
N2781 H2784 0.984 1_655 S
N2781 H2785 0.985 . S
H2782 N2777 0.984 . S
H2783 N2777 0.985 . S
H2784 N2781 0.984 1_455 S
H2785 N2781 0.985 . S
H2786 N2780 0.984 . S
H2787 N2780 0.984 1_655 S
H2788 N2776 0.984 . S
H2789 N2776 0.985 . S
C2790 C2791 1.363 . S
C2790 C2796 1.379 . S
C2790 N2798 1.356 . S
C2791 C2790 1.363 . S
C2791 C2797 1.363 1_556 S
C2792 C2793 1.363 . S
C2792 C2797 1.379 . S
C2792 N2799 1.356 . S
C2793 C2792 1.363 . S
C2793 C2796 1.363 1_554 S
N2794 C2796 1.356 . S
N2794 H2806 0.984 . S
N2794 H2807 0.985 1_556 S
N2795 C2797 1.356 . S
N2795 H2800 0.984 1_554 S
N2795 H2801 0.985 . S
C2796 C2790 1.379 . S
C2796 C2793 1.363 1_556 S
C2796 N2794 1.356 . S
C2797 C2791 1.363 1_554 S
C2797 C2792 1.379 . S
C2797 N2795 1.356 . S
N2798 C2790 1.356 . S
N2798 H2804 0.984 . S
N2798 H2805 0.984 . S
N2799 C2792 1.356 . S
N2799 H2802 0.984 . S
N2799 H2803 0.985 . S
H2800 N2795 0.984 1_556 S
H2801 N2795 0.985 . S
H2802 N2799 0.984 . S
H2803 N2799 0.985 . S
H2804 N2798 0.984 . S
H2805 N2798 0.984 . S
H2806 N2794 0.984 . S
H2807 N2794 0.985 1_554 S
C2808 C2809 1.363 1_565 S
C2808 C2814 1.379 . S
C2808 N2816 1.356 . S
C2809 C2808 1.363 1_545 S
C2809 C2815 1.363 1_556 S
C2810 C2811 1.363 1_545 S
C2810 C2815 1.379 . S
C2810 N2817 1.356 . S
C2811 C2810 1.363 1_565 S
C2811 C2814 1.363 1_554 S
N2812 C2814 1.356 . S
N2812 H2824 0.984 . S
N2812 H2825 0.985 1_556 S
N2813 C2815 1.356 . S
N2813 H2818 0.984 1_554 S
N2813 H2819 0.985 . S
C2814 C2808 1.379 . S
C2814 C2811 1.363 1_556 S
C2814 N2812 1.356 . S
C2815 C2809 1.363 1_554 S
C2815 C2810 1.379 . S
C2815 N2813 1.356 . S
N2816 C2808 1.356 . S
N2816 H2822 0.984 . S
N2816 H2823 0.984 . S
N2817 C2810 1.356 . S
N2817 H2820 0.984 . S
N2817 H2821 0.985 . S
H2818 N2813 0.984 1_556 S
H2819 N2813 0.985 . S
H2820 N2817 0.984 . S
H2821 N2817 0.985 . S
H2822 N2816 0.984 . S
H2823 N2816 0.984 . S
H2824 N2812 0.984 . S
H2825 N2812 0.985 1_554 S
C2826 C2827 1.363 . S
C2826 C2832 1.379 1_455 S
C2826 N2834 1.356 . S
C2827 C2826 1.363 . S
C2827 C2833 1.363 1_554 S
C2828 C2829 1.363 . S
C2828 C2833 1.379 1_655 S
C2828 N2835 1.356 . S
C2829 C2828 1.363 . S
C2829 C2832 1.363 1_556 S
N2830 C2832 1.356 . S
N2830 H2842 0.984 . S
N2830 H2843 0.985 1_554 S
N2831 C2833 1.356 . S
N2831 H2836 0.984 1_556 S
N2831 H2837 0.985 . S
C2832 C2826 1.379 1_655 S
C2832 C2829 1.363 1_554 S
C2832 N2830 1.356 . S
C2833 C2827 1.363 1_556 S
C2833 C2828 1.379 1_455 S
C2833 N2831 1.356 . S
N2834 C2826 1.356 . S
N2834 H2840 0.984 . S
N2834 H2841 0.984 . S
N2835 C2828 1.356 . S
N2835 H2838 0.984 . S
N2835 H2839 0.985 . S
H2836 N2831 0.984 1_554 S
H2837 N2831 0.985 . S
H2838 N2835 0.984 . S
H2839 N2835 0.985 . S
H2840 N2834 0.984 . S
H2841 N2834 0.984 . S
H2842 N2830 0.984 . S
H2843 N2830 0.985 1_556 S
C1225 C9 1.430 . S
C1227 C70 1.627 . S
C1243 C43 1.430 . S
C1245 C2 1.627 . S
C1261 C77 1.430 . S
C1263 C36 1.627 . S
C1279 C111 1.430 . S
C1281 C138 1.627 . S
C1297 C145 1.430 . S
C1299 C172 1.627 . S
C1315 C179 1.430 . S
C1317 C104 1.627 . S
C1333 C274 1.627 . S
C1335 C213 1.430 . S
C1351 C206 1.627 . S
C1353 C247 1.430 . S
C1369 C240 1.627 . S
C1371 C281 1.430 . S
C1387 C342 1.627 . S
C1389 C315 1.430 . S
C1405 C349 1.430 . S
C1407 C376 1.627 . S
C1423 C308 1.627 . S
C1425 C383 1.430 . S
C1441 C417 1.430 . S
C1443 C478 1.627 . S
C1459 C410 1.627 . S
C1461 C451 1.430 . S
C1477 C485 1.430 . S
C1479 C444 1.627 . S
C1495 C519 1.430 . S
C1497 C546 1.627 . S
C1513 C553 1.430 . S
C1515 C580 1.627 . S
C1531 C587 1.430 . S
C1533 C512 1.627 . S
C1549 C682 1.627 . S
C1551 C621 1.430 . S
C1567 C655 1.430 . S
C1569 C614 1.627 . S
C1585 C648 1.627 . S
C1587 C689 1.430 . S
C1603 C723 1.430 . S
C1605 C750 1.627 . S
C1621 C757 1.430 . S
C1623 C784 1.627 . S
C1639 C791 1.430 . S
C1641 C716 1.627 . S
C1657 C825 1.430 . S
C1659 C886 1.627 . S
C1675 C818 1.627 . S
C1677 C859 1.430 . S
C1693 C852 1.627 . S
C1695 C893 1.430 . S
C1711 C954 1.627 . S
C1713 C927 1.430 . S
C1729 C988 1.627 . S
C1731 C961 1.430 . S
C1747 C920 1.627 . S
C1749 C995 1.430 . S
C1765 C1090 1.627 . S
C1767 C1029 1.430 . S
C1783 C1022 1.627 . S
C1785 C1063 1.430 . S
C1801 C1097 1.430 . S
C1803 C1056 1.627 . S
C1819 C1158 1.627 . S
C1821 C1131 1.430 . S
C1837 C1192 1.627 . S
C1839 C1165 1.430 . S
C1855 C1124 1.627 . S
C1857 C1199 1.430 . S
C1873 C169 1.256 . S
C1875 C33 1.256 . S
C1891 C203 1.256 . S
C1893 C67 1.256 . S
C1909 C101 1.256 . S
C1911 C135 1.256 . S
C1927 C373 1.256 . S
C1929 C237 1.256 . S
C1945 C271 1.256 . S
C1947 C407 1.256 . S
C1963 C305 1.256 . S
C1965 C339 1.256 . S
C1981 C441 1.256 . S
C1983 C577 1.256 . S
C1999 C611 1.256 . S
C2001 C475 1.256 . S
C2017 C543 1.256 . S
C2019 C509 1.256 . S
C2035 C645 1.256 . S
C2037 C781 1.256 . S
C2053 C679 1.256 . S
C2055 C815 1.256 . S
C2071 C747 1.256 . S
C2073 C713 1.256 . S
C2089 C849 1.256 . S
C2091 C985 1.256 . S
C2107 C883 1.256 . S
C2109 C1019 1.256 . S
C2125 C951 1.256 . S
C2127 C917 1.256 . S
C2143 C1053 1.256 . S
C2145 C1189 1.256 . S
C2161 C1087 1.256 . S
C2163 C1223 1.256 . S
C2179 C1155 1.256 . S
C2181 C1121 1.256 . S
C2197 C1006 1.806 . S
C2199 C20 1.806 . S
C2215 C938 1.806 . S
C2217 C54 1.806 . S
C2233 C88 1.806 . S
C2235 C972 1.806 . S
C2251 C122 1.806 . S
C2253 C462 1.806 . S
C2269 C496 1.806 . S
C2271 C156 1.806 . S
C2287 C190 1.806 . S
C2289 C428 1.806 . S
C2305 C224 1.806 . S
C2307 C802 1.806 . S
C2323 C258 1.806 . S
C2325 C734 1.806 . S
C2341 C768 1.806 . S
C2343 C292 1.806 . S
C2359 C1074 1.806 . S
C2361 C326 1.806 . S
C2377 C360 1.806 . S
C2379 C1108 1.806 . S
C2395 C394 1.806 . S
C2397 C1040 1.806 . S
C2413 C870 1.806 . S
C2415 C530 1.806 . S
C2431 C564 1.806 . S
C2433 C904 1.806 . S
C2449 C836 1.806 . S
C2451 C598 1.806 . S
C2467 C632 1.806 . S
C2469 C1210 1.806 . S
C2485 C666 1.806 . S
C2487 C1142 1.806 . S
C2503 C700 1.806 . S
C2505 C1176 1.806 . S
C2521 C5 1.609 . S
C2523 C617 1.609 . S
C2539 C651 1.609 . S
C2541 C39 1.609 . S
C2557 C685 1.609 . S
C2559 C73 1.609 . S
C2575 C107 1.609 . S
C2577 C1127 1.609 . S
C2593 C1161 1.609 . S
C2595 C141 1.609 . S
C2611 C175 1.609 . S
C2613 C1195 1.609 . S
C2629 C821 1.609 . S
C2631 C209 1.609 . S
C2647 C243 1.609 . S
C2649 C855 1.609 . S
C2665 C277 1.609 . S
C2667 C889 1.609 . S
C2683 C311 1.609 . S
C2685 C515 1.609 . S
C2701 C345 1.609 . S
C2703 C549 1.609 . S
C2719 C583 1.609 . S
C2721 C379 1.609 . S
C2737 C1025 1.609 . S
C2739 C413 1.609 . S
C2755 C447 1.609 . S
C2757 C1059 1.609 . S
C2773 C481 1.609 . S
C2775 C1093 1.609 . S
C2791 C719 1.609 . S
C2793 C923 1.609 . S
C2809 C753 1.609 . S
C2811 C957 1.609 . S
C2827 C991 1.609 . S
C2829 C787 1.609 . S
