# Generated by pormake.
# Topology wjd, (6)-cn, num edge types: 1
# Building blocks:
#     Node 0, Type 0, BuildingBlock: JUFBIX_clean_sbu_0, # of connection points: 6
#     Node 1, Type 0, BuildingBlock: JUFBIX_clean_sbu_0, # of connection points: 6
#     Node 2, Type 0, BuildingBlock: JUFBIX_clean_sbu_0, # of connection points: 6
#     Node 3, Type 0, BuildingBlock: JUFBIX_clean_sbu_0, # of connection points: 6
#     Node 4, Type 0, BuildingBlock: JUFBIX_clean_sbu_0, # of connection points: 6
#     Node 5, Type 0, BuildingBlock: JUFBIX_clean_sbu_0, # of connection points: 6
#     Node 6, Type 0, BuildingBlock: JUFBIX_clean_sbu_0, # of connection points: 6
#     Node 7, Type 0, BuildingBlock: JUFBIX_clean_sbu_0, # of connection points: 6
#     Node 8, Type 0, BuildingBlock: JUFBIX_clean_sbu_0, # of connection points: 6
#     Node 9, Type 0, BuildingBlock: JUFBIX_clean_sbu_0, # of connection points: 6
#     Node 10, Type 0, BuildingBlock: JUFBIX_clean_sbu_0, # of connection points: 6
#     Node 11, Type 0, BuildingBlock: JUFBIX_clean_sbu_0, # of connection points: 6
#     Edge 12, Type (0, 0), BuildingBlock: OJICUG_clean_linker_0, # of connection points: 2
#     Edge 13, Type (0, 0), BuildingBlock: OJICUG_clean_linker_0, # of connection points: 2
#     Edge 14, Type (0, 0), BuildingBlock: OJICUG_clean_linker_0, # of connection points: 2
#     Edge 15, Type (0, 0), BuildingBlock: OJICUG_clean_linker_0, # of connection points: 2
#     Edge 16, Type (0, 0), BuildingBlock: OJICUG_clean_linker_0, # of connection points: 2
#     Edge 17, Type (0, 0), BuildingBlock: OJICUG_clean_linker_0, # of connection points: 2
#     Edge 18, Type (0, 0), BuildingBlock: OJICUG_clean_linker_0, # of connection points: 2
#     Edge 19, Type (0, 0), BuildingBlock: OJICUG_clean_linker_0, # of connection points: 2
#     Edge 20, Type (0, 0), BuildingBlock: OJICUG_clean_linker_0, # of connection points: 2
#     Edge 21, Type (0, 0), BuildingBlock: OJICUG_clean_linker_0, # of connection points: 2
#     Edge 22, Type (0, 0), BuildingBlock: OJICUG_clean_linker_0, # of connection points: 2
#     Edge 23, Type (0, 0), BuildingBlock: OJICUG_clean_linker_0, # of connection points: 2
#     Edge 24, Type (0, 0), BuildingBlock: OJICUG_clean_linker_0, # of connection points: 2
#     Edge 25, Type (0, 0), BuildingBlock: OJICUG_clean_linker_0, # of connection points: 2
#     Edge 26, Type (0, 0), BuildingBlock: OJICUG_clean_linker_0, # of connection points: 2
#     Edge 27, Type (0, 0), BuildingBlock: OJICUG_clean_linker_0, # of connection points: 2
#     Edge 28, Type (0, 0), BuildingBlock: OJICUG_clean_linker_0, # of connection points: 2
#     Edge 29, Type (0, 0), BuildingBlock: OJICUG_clean_linker_0, # of connection points: 2
#     Edge 30, Type (0, 0), BuildingBlock: OJICUG_clean_linker_0, # of connection points: 2
#     Edge 31, Type (0, 0), BuildingBlock: OJICUG_clean_linker_0, # of connection points: 2
#     Edge 32, Type (0, 0), BuildingBlock: OJICUG_clean_linker_0, # of connection points: 2
#     Edge 33, Type (0, 0), BuildingBlock: OJICUG_clean_linker_0, # of connection points: 2
#     Edge 34, Type (0, 0), BuildingBlock: OJICUG_clean_linker_0, # of connection points: 2
#     Edge 35, Type (0, 0), BuildingBlock: OJICUG_clean_linker_0, # of connection points: 2
#     Edge 36, Type (0, 0), BuildingBlock: OJICUG_clean_linker_0, # of connection points: 2
#     Edge 37, Type (0, 0), BuildingBlock: OJICUG_clean_linker_0, # of connection points: 2
#     Edge 38, Type (0, 0), BuildingBlock: OJICUG_clean_linker_0, # of connection points: 2
#     Edge 39, Type (0, 0), BuildingBlock: OJICUG_clean_linker_0, # of connection points: 2
#     Edge 40, Type (0, 0), BuildingBlock: OJICUG_clean_linker_0, # of connection points: 2
#     Edge 41, Type (0, 0), BuildingBlock: OJICUG_clean_linker_0, # of connection points: 2
#     Edge 42, Type (0, 0), BuildingBlock: OJICUG_clean_linker_0, # of connection points: 2
#     Edge 43, Type (0, 0), BuildingBlock: OJICUG_clean_linker_0, # of connection points: 2
#     Edge 44, Type (0, 0), BuildingBlock: OJICUG_clean_linker_0, # of connection points: 2
#     Edge 45, Type (0, 0), BuildingBlock: OJICUG_clean_linker_0, # of connection points: 2
#     Edge 46, Type (0, 0), BuildingBlock: OJICUG_clean_linker_0, # of connection points: 2
#     Edge 47, Type (0, 0), BuildingBlock: OJICUG_clean_linker_0, # of connection points: 2
# Relax obj value: 0.322
# Max RMSD: 0.245
# Mean RMSD: 0.245
data_MOF--net-wjd--node1-JUFBIX_clean_sbu_0--edge1-OJICUG_clean_linker_0
_symmetry_space_group_name_H-M    P1
_symmetry_Int_Tables_number       1
_symmetry_cell_setting            triclinic
loop_
_symmetry_equiv_pos_as_xyz
'x, y, z'
_cell_length_a     25.507771
_cell_length_b     25.48472
_cell_length_c     38.981891
_cell_angle_alpha  90.425129
_cell_angle_beta   89.692777
_cell_angle_gamma 120.3354
loop_
_atom_site_label
_atom_site_type_symbol
_atom_site_fract_x
_atom_site_fract_y
_atom_site_fract_z
_atom_type_partial_charge
Co0 Co 0.31076 0.1598 0.15319 0.0
C1 C 0.37716 0.18376 0.21572 0.0
Co2 Co 0.37429 0.12631 0.15673 0.0
C3 C 0.20509 0.17753 0.15455 0.0
C4 C 0.29138 0.2579 0.16214 0.0
N5 N 0.26528 0.19795 0.15474 0.0
N6 N 0.1933 0.22278 0.16143 0.0
C7 C 0.24766 0.27318 0.1661 0.0
H8 H 0.17084 0.1304 0.1504 0.0
H9 H 0.33939 0.28846 0.1663 0.0
C10 C 0.30508 0.09425 0.09593 0.0
N11 N 0.42585 0.09478 0.15494 0.0
C12 C 0.48708 0.12779 0.15436 0.0
C13 C 0.41219 0.03836 0.14536 0.0
N14 N 0.51251 0.09529 0.14348 0.0
C15 C 0.46525 0.03846 0.13839 0.0
C16 C 0.25654 0.04552 0.17829 0.0
O17 O 0.278 0.12058 0.10881 0.0
O18 O 0.35098 0.09917 0.11146 0.0
O19 O 0.30829 0.05102 0.17225 0.0
O20 O 0.24926 0.09078 0.17425 0.0
O21 O 0.39705 0.15175 0.20226 0.0
H22 H 0.36664 1.00079 0.14111 0.0
H23 H 0.5123 0.17606 0.15941 0.0
O24 O 0.34212 0.19506 0.19814 0.0
O25 O 0.37216 0.22952 0.13131 0.0
O26 O 0.43871 0.20248 0.14139 0.0
C27 C 0.42668 0.24215 0.13115 0.0
H28 H 0.25537 0.31753 0.17353 0.0
H29 H 0.46813 1.00009 0.12877 0.0
Co30 Co 0.7907 0.70474 0.41079 0.0
C31 C 0.81373 0.64259 0.36207 0.0
Co32 Co 0.8275 0.6522 0.43436 0.0
C33 C 0.79695 0.81659 0.39803 0.0
C34 C 0.71608 0.74467 0.3753 0.0
N35 N 0.76575 0.7558 0.39323 0.0
N36 N 0.76933 0.84415 0.38389 0.0
C37 C 0.71794 0.79915 0.36972 0.0
H38 H 0.83825 0.84025 0.41297 0.0
H39 H 0.68052 0.7 0.36733 0.0
C40 C 0.80144 0.71859 0.48222 0.0
N41 N 0.85725 0.60323 0.45104 0.0
C42 C 0.84853 0.55095 0.43651 0.0
C43 C 0.90013 0.61686 0.4751 0.0
N44 N 0.88486 0.5319 0.45 0.0
C45 C 0.91719 0.57327 0.4745 0.0
C46 C 0.91821 0.76357 0.41492 0.0
O47 O 0.79285 0.73793 0.45429 0.0
O48 O 0.81581 0.67696 0.48109 0.0
O49 O 0.90713 0.718 0.4329 0.0
O50 O 0.8742 0.76671 0.40207 0.0
O51 O 0.83724 0.63016 0.38729 0.0
H52 H 0.91985 0.65742 0.49092 0.0
H53 H 0.81828 0.52901 0.41506 0.0
O54 O 0.78764 0.67294 0.36729 0.0
O55 O 0.70749 0.63952 0.41924 0.0
O56 O 0.74832 0.58575 0.43567 0.0
C57 C 0.70133 0.58886 0.42903 0.0
H58 H 0.6841 0.80516 0.35655 0.0
H59 H 0.95137 0.57264 0.49054 0.0
Co60 Co 0.84653 0.14561 0.14217 0.0
C61 C 0.82787 0.19244 0.20504 0.0
Co62 Co 0.88234 0.24362 0.14442 0.0
C63 C 0.82825 0.02224 0.14813 0.0
C64 C 0.74723 0.02731 0.15089 0.0
N65 N 0.80753 0.06133 0.14462 0.0
N66 N 0.78294 0.96557 0.15623 0.0
C67 C 0.73212 0.96902 0.15776 0.0
H68 H 0.87575 0.0357 0.14623 0.0
H69 H 0.71623 0.04439 0.15303 0.0
C70 C 0.91045 0.2025 0.08327 0.0
N71 N 0.91434 0.32679 0.14272 0.0
C72 C 0.88183 0.3548 0.14662 0.0
C73 C 0.96899 0.37022 0.13118 0.0
N74 N 0.91275 0.41349 0.13682 0.0
C75 C 0.96822 0.4236 0.12757 0.0
C76 C 0.96254 0.2069 0.16539 0.0
O77 O 0.88298 0.1495 0.09679 0.0
O78 O 0.90748 0.24521 0.09854 0.0
O79 O 0.95782 0.25335 0.15899 0.0
O80 O 0.91659 0.15407 0.16202 0.0
O81 O 0.85946 0.24327 0.1904 0.0
H82 H 0.00565 0.36267 0.12388 0.0
H83 H 0.83481 0.33115 0.15452 0.0
O84 O 0.81425 0.14427 0.18807 0.0
O85 O 0.77572 0.13675 0.1216 0.0
O86 O 0.80565 0.23192 0.13017 0.0
C87 C 0.76417 0.17931 0.12143 0.0
H88 H 0.68758 0.933 0.16547 0.0
H89 H 1.00514 0.46568 0.11764 0.0
Co90 Co 0.30646 0.09593 0.40867 0.0
C91 C 0.36784 0.18234 0.36052 0.0
Co92 Co 0.3584 0.18661 0.43274 0.0
C93 C 0.19998 0.98095 0.40372 0.0
C94 C 0.2572 0.99213 0.36084 0.0
N95 N 0.25563 0.01872 0.39066 0.0
N96 N 0.16686 0.93238 0.38363 0.0
C97 C 0.20208 0.93892 0.35631 0.0
H98 H 0.18187 0.99073 0.42647 0.0
H99 H 0.29449 0.0116 0.34274 0.0
C100 C 0.29409 0.09454 0.48037 0.0
N101 N 0.40564 0.26534 0.45025 0.0
C102 C 0.45959 0.30946 0.43786 0.0
C103 C 0.38994 0.29358 0.4741 0.0
N104 N 0.47785 0.36424 0.45261 0.0
C105 C 0.43412 0.35433 0.47555 0.0
C106 C 0.24552 0.16194 0.41342 0.0
O107 O 0.2765 0.06518 0.45255 0.0
O108 O 0.33357 0.15139 0.47917 0.0
O109 O 0.29185 0.19879 0.43051 0.0
O110 O 0.24224 0.11384 0.4014 0.0
O111 O 0.38157 0.21855 0.38605 0.0
H112 H 0.34798 0.27189 0.48858 0.0
H113 H 0.48372 0.302 0.41724 0.0
O114 O 0.33616 0.12564 0.36521 0.0
O115 O 0.3732 0.0808 0.41545 0.0
O116 O 0.42535 0.17509 0.43449 0.0
C117 C 0.42326 0.12577 0.42621 0.0
H118 H 0.18847 0.90837 0.33447 0.0
H119 H 0.43386 0.38853 0.49206 0.0
Co120 Co 0.86025 0.69848 0.15358 0.0
C121 C 0.81494 0.63465 0.21654 0.0
Co122 Co 0.76288 0.63463 0.15624 0.0
C123 C 0.98471 0.804 0.15759 0.0
C124 C 0.9777 0.71714 0.16198 0.0
N125 N 0.9445 0.74378 0.15537 0.0
N126 N 0.04129 0.81521 0.16516 0.0
C127 C 0.03662 0.76047 0.16775 0.0
H128 H 0.97225 0.83856 0.15503 0.0
H129 H 0.95975 0.66887 0.16494 0.0
C130 C 0.80227 0.70082 0.0948 0.0
N131 N 0.67976 0.58393 0.15464 0.0
C132 C 0.65091 0.52294 0.15678 0.0
C133 C 0.63763 0.59637 0.14297 0.0
N134 N 0.59313 0.4961 0.14549 0.0
C135 C 0.58426 0.54249 0.13739 0.0
C136 C 0.80021 0.75383 0.17602 0.0
O137 O 0.85512 0.72939 0.10846 0.0
O138 O 0.76045 0.65503 0.11027 0.0
O139 O 0.75411 0.70167 0.1699 0.0
O140 O 0.85311 0.76122 0.17346 0.0
O141 O 0.76373 0.6145 0.20229 0.0
H142 H 0.64642 0.64127 0.13635 0.0
H143 H 0.67365 0.49874 0.16407 0.0
O144 O 0.86263 0.66889 0.19926 0.0
O145 O 0.86803 0.63584 0.13268 0.0
O146 O 0.77386 0.56859 0.1426 0.0
C147 C 0.82611 0.58105 0.13262 0.0
H148 H 0.07241 0.75199 0.17533 0.0
H149 H 0.54341 0.53832 0.12652 0.0
Co150 Co 0.9177 0.22335 0.40081 0.0
C151 C 0.8325 0.19786 0.35116 0.0
Co152 Co 0.82629 0.18739 0.42356 0.0
C153 C 0.03134 0.22943 0.39796 0.0
C154 C 0.02247 0.27316 0.35365 0.0
N155 N 0.99507 0.24768 0.3837 0.0
N156 N 0.0797 0.24212 0.37843 0.0
C157 C 0.07457 0.26934 0.35022 0.0
H158 H 0.02043 0.20291 0.42119 0.0
H159 H 1.00414 0.2902 0.33464 0.0
C160 C 0.91749 0.21452 0.47211 0.0
N161 N 0.74785 0.15727 0.44091 0.0
C162 C 0.70347 0.16645 0.42889 0.0
C163 C 0.72048 0.11445 0.4653 0.0
N164 N 0.64939 0.13046 0.44444 0.0
C165 C 0.66005 0.09778 0.46745 0.0
C166 C 0.84787 0.09599 0.40594 0.0
O167 O 0.94733 0.22623 0.44465 0.0
O168 O 0.86089 0.19744 0.47047 0.0
O169 O 0.81112 0.10795 0.42098 0.0
O170 O 0.89827 0.13963 0.39524 0.0
O171 O 0.7955 0.17877 0.37647 0.0
H172 H 0.74257 0.09502 0.47977 0.0
H173 H 0.71015 0.19721 0.40812 0.0
O174 O 0.88881 0.221 0.35661 0.0
O175 O 0.93432 0.30715 0.40673 0.0
O176 O 0.8403 0.26664 0.42571 0.0
C177 C 0.8903 0.31349 0.41777 0.0
H178 H 0.10525 0.2839 0.3285 0.0
H179 H 0.62655 0.06413 0.48454 0.0
Co180 Co 0.12553 0.38139 0.64233 0.0
C181 C 0.09454 0.31202 0.58203 0.0
Co182 Co 0.16115 0.31908 0.63945 0.0
C183 C 0.12933 0.49462 0.64572 0.0
C184 C 0.04028 0.42375 0.63191 0.0
N185 N 0.09501 0.43375 0.64199 0.0
N186 N 0.09958 0.52368 0.63699 0.0
C187 C 0.04293 0.47894 0.62877 0.0
H188 H 0.17674 0.51744 0.65269 0.0
H189 H 1.00208 0.37965 0.62542 0.0
C190 C 0.17972 0.38293 0.70222 0.0
N191 N 0.20045 0.27342 0.64091 0.0
C192 C 0.18132 0.21362 0.64507 0.0
C193 C 0.26138 0.30137 0.64523 0.0
N194 N 0.2283 0.20414 0.65128 0.0
C195 C 0.27836 0.25952 0.6512 0.0
C196 C 0.24387 0.43578 0.61867 0.0
O197 O 0.14852 0.40242 0.68795 0.0
O198 O 0.19433 0.34968 0.68482 0.0
O199 O 0.23109 0.38123 0.61813 0.0
O200 O 0.20314 0.44721 0.62809 0.0
O201 O 0.12289 0.28705 0.59479 0.0
H202 H 0.29206 0.34989 0.64669 0.0
H203 H 0.13399 0.17826 0.64497 0.0
O204 O 0.09918 0.35888 0.59671 0.0
O205 O 0.04967 0.31424 0.65698 0.0
O206 O 0.09197 0.25737 0.65985 0.0
C207 C 0.04569 0.26321 0.66337 0.0
H208 H 0.00641 0.4853 0.61993 0.0
H209 H 0.32391 0.26975 0.65732 0.0
Co210 Co 0.16277 0.8525 0.92804 0.0
C211 C 0.21065 0.83981 0.86385 0.0
Co212 Co 0.26115 0.88789 0.92533 0.0
C213 C 0.03623 0.8304 0.92526 0.0
C214 C 0.04605 0.75315 0.91575 0.0
N215 N 0.07806 0.81266 0.92476 0.0
N216 N 0.97992 0.78379 0.91739 0.0
C217 C 0.98638 0.73542 0.91155 0.0
H218 H 0.04707 0.87663 0.93034 0.0
H219 H 0.06518 0.72449 0.9106 0.0
C220 C 0.21765 0.91027 0.98761 0.0
N221 N 0.34425 0.91914 0.9281 0.0
C222 C 0.3718 0.88611 0.9242 0.0
C223 C 0.38645 0.97166 0.94265 0.0
N224 N 0.4286 0.91426 0.93718 0.0
C225 C 0.43833 0.9689 0.94819 0.0
C226 C 0.22554 0.97067 0.90865 0.0
O227 O 0.1649 0.88372 0.97392 0.0
O228 O 0.2609 0.90899 0.97193 0.0
O229 O 0.27196 0.96516 0.91317 0.0
O230 O 0.17229 0.92492 0.91137 0.0
O231 O 0.26183 0.86889 0.8786 0.0
H232 H 0.37842 0.00746 0.95125 0.0
H233 H 0.34851 0.84016 0.91437 0.0
O234 O 0.16295 0.8255 0.88127 0.0
O235 O 0.15373 0.77999 0.94613 0.0
O236 O 0.24874 0.80985 0.93747 0.0
C237 C 0.1963 0.7685 0.94625 0.0
H238 H 0.95101 0.69101 0.90301 0.0
H239 H 0.47857 1.00347 0.96109 0.0
Co240 Co 0.63934 0.76065 0.65693 0.0
C241 C 0.70697 0.79831 0.59544 0.0
Co242 Co 0.70268 0.85871 0.65377 0.0
C243 C 0.52493 0.65033 0.65619 0.0
C244 C 0.59694 0.63312 0.64488 0.0
N245 N 0.58607 0.67705 0.65576 0.0
N246 N 0.49693 0.59267 0.64428 0.0
C247 C 0.54231 0.58125 0.63779 0.0
H248 H 0.50145 0.67447 0.66242 0.0
H249 H 0.64158 0.63977 0.6397 0.0
C250 C 0.64131 0.81517 0.71769 0.0
N251 N 0.74831 0.94311 0.65528 0.0
C252 C 0.80813 0.98476 0.65341 0.0
C253 C 0.72166 0.97571 0.66403 0.0
N254 N 0.81882 0.04157 0.6603 0.0
C255 C 0.76439 0.03563 0.66688 0.0
C256 C 0.5861 0.82569 0.63384 0.0
O257 O 0.61939 0.76351 0.70333 0.0
O258 O 0.67487 0.86233 0.69997 0.0
O259 O 0.64079 0.86736 0.63374 0.0
O260 O 0.57373 0.77322 0.64318 0.0
O261 O 0.73246 0.85211 0.6083 0.0
H262 H 0.67397 0.95688 0.66977 0.0
H263 H 0.84299 0.97351 0.648 0.0
O264 O 0.66097 0.75603 0.61072 0.0
O265 O 0.70643 0.75158 0.67081 0.0
O266 O 0.7648 0.85131 0.67279 0.0
C267 C 0.75831 0.7989 0.67621 0.0
H268 H 0.53703 0.53967 0.62695 0.0
H269 H 0.75626 0.07166 0.6749 0.0
Co270 Co 0.13922 0.29269 0.90747 0.0
C271 C 0.16132 0.36673 0.84893 0.0
Co272 Co 0.11569 0.36388 0.91225 0.0
C273 C 0.18804 0.20993 0.91206 0.0
C274 C 0.14502 0.20718 0.86455 0.0
N275 N 0.15741 0.23308 0.89609 0.0
N276 N 0.19601 0.17186 0.89118 0.0
C277 C 0.16878 0.16998 0.86145 0.0
H278 H 0.2046 0.2211 0.93814 0.0
H279 H 0.12053 0.2153 0.84469 0.0
C280 C 0.08653 0.28744 0.97014 0.0
N281 N 0.0972 0.42414 0.92154 0.0
C282 C 0.13556 0.48476 0.9237 0.0
C283 C 0.04323 0.41571 0.93241 0.0
N284 N 0.10795 0.5145 0.93586 0.0
C285 C 0.04955 0.47095 0.94099 0.0
C286 C 0.0197 0.25501 0.89007 0.0
O287 O 0.10624 0.25801 0.95282 0.0
O288 O 0.09406 0.33691 0.95794 0.0
O289 O 0.03262 0.30814 0.89935 0.0
O290 O 0.06132 0.24198 0.88977 0.0
O291 O 0.13587 0.39049 0.86593 0.0
H292 H 1.00226 0.37201 0.93521 0.0
H293 H 0.1834 0.5063 0.91769 0.0
O294 O 0.16864 0.32634 0.86313 0.0
O295 O 0.21932 0.34409 0.92499 0.0
O296 O 0.1994 0.41816 0.92509 0.0
C297 C 0.23764 0.40044 0.92867 0.0
H298 H 0.16449 0.1419 0.83944 0.0
H299 H 0.01368 0.47796 0.95057 0.0
Co300 Co 0.25981 0.89872 0.65492 0.0
C301 C 0.21888 0.92663 0.59479 0.0
Co302 Co 0.16154 0.86336 0.65359 0.0
C303 C 0.36906 0.89418 0.65603 0.0
C304 C 0.38775 0.98253 0.64114 0.0
N305 N 0.3431 0.92883 0.653 0.0
N306 N 0.42723 0.92261 0.64512 0.0
C307 C 0.43948 0.97889 0.63628 0.0
H308 H 0.34417 0.8472 0.66389 0.0
H309 H 0.38203 0.02039 0.63433 0.0
C310 C 0.20818 0.84591 0.71592 0.0
N311 N 0.07698 0.82381 0.65636 0.0
C312 C 0.03538 0.84182 0.6568 0.0
C313 C 0.04472 0.76395 0.6642 0.0
N314 N 0.97896 0.79503 0.66417 0.0
C315 C 0.98514 0.74629 0.66869 0.0
C316 C 0.19373 0.78002 0.63152 0.0
O317 O 0.25897 0.87645 0.70097 0.0
O318 O 0.16015 0.83232 0.69925 0.0
O319 O 0.152 0.7925 0.6329 0.0
O320 O 0.24664 0.82053 0.64038 0.0
O321 O 0.16594 0.89859 0.60855 0.0
H322 H 0.06364 0.73495 0.6684 0.0
H323 H 0.04649 0.88832 0.65283 0.0
O324 O 0.26219 0.92403 0.60911 0.0
O325 O 0.26982 0.97558 0.66925 0.0
O326 O 0.17037 0.93412 0.67316 0.0
C327 C 0.22316 0.9807 0.67519 0.0
H328 H 0.48182 0.01436 0.62568 0.0
H329 H 0.94966 0.7016 0.67657 0.0
Co330 Co 0.70559 0.85063 0.92993 0.0
C331 C 0.64776 0.81396 0.86584 0.0
Co332 Co 0.63953 0.75214 0.92574 0.0
C333 C 0.78945 0.97724 0.91107 0.0
C334 C 0.76287 0.96523 0.9639 0.0
N335 N 0.75683 0.93408 0.93465 0.0
N336 N 0.81502 0.03406 0.92452 0.0
C337 C 0.79853 0.02634 0.95782 0.0
H338 H 0.79325 0.96719 0.88446 0.0
H339 H 0.74156 0.9448 0.98807 0.0
C340 C 0.70239 0.78376 0.98761 0.0
N341 N 0.58384 0.66778 0.92347 0.0
C342 C 0.52237 0.63884 0.92091 0.0
C343 C 0.59572 0.62309 0.93039 0.0
N344 N 0.49534 0.5781 0.92646 0.0
C345 C 0.54191 0.56836 0.93216 0.0
C346 C 0.75975 0.7891 0.90727 0.0
O347 O 0.72937 0.83732 0.9752 0.0
O348 O 0.65673 0.74227 0.97164 0.0
O349 O 0.707 0.74231 0.91158 0.0
O350 O 0.76739 0.84179 0.9118 0.0
O351 O 0.62393 0.76162 0.87949 0.0
H352 H 0.64041 0.6302 0.93579 0.0
H353 H 0.49781 0.66235 0.9161 0.0
O354 O 0.68314 0.86068 0.88387 0.0
O355 O 0.6434 0.86087 0.94829 0.0
O356 O 0.57507 0.76563 0.93974 0.0
C357 C 0.5884 0.81905 0.94852 0.0
H358 H 0.81221 0.06224 0.97671 0.0
H359 H 0.5377 0.5253 0.93888 0.0
C360 C 0.0273 0.16137 0.17648 0.0
C361 C 0.02252 0.21305 0.17005 0.0
H362 H 0.08569 0.12392 0.17879 0.0
C363 C 0.07507 0.26839 0.1626 0.0
H364 H 0.9874 0.11797 0.18226 0.0
C365 C 0.13088 0.27134 0.1599 0.0
C366 C 0.13552 0.21923 0.165 0.0
H367 H 0.07275 0.30877 0.15705 0.0
H368 H 0.17003 0.31416 0.1526 0.0
C369 C 0.08336 0.16445 0.17398 0.0
C370 C 0.08849 0.85927 0.42228 0.0
C371 C 0.1048 0.88719 0.39006 0.0
H372 H 0.01646 0.79812 0.45535 0.0
C373 C 0.05925 0.87572 0.36615 0.0
H374 H 0.12312 0.86835 0.44116 0.0
C375 C 0.99797 0.83724 0.37464 0.0
C376 C 0.98181 0.80883 0.40686 0.0
H377 H 0.07109 0.89787 0.34141 0.0
H378 H 0.96339 0.82871 0.35583 0.0
C379 C 0.02768 0.81978 0.43044 0.0
C380 C 0.73489 0.85444 0.1617 0.0
C381 C 0.7868 0.91267 0.16436 0.0
H382 H 0.69783 0.75862 0.16467 0.0
C383 C 0.84161 0.918 0.17538 0.0
H384 H 0.692 0.84839 0.15296 0.0
C385 C 0.84498 0.86602 0.18199 0.0
C386 C 0.79355 0.80785 0.17776 0.0
H387 H 0.88204 0.96212 0.17845 0.0
H388 H 0.8885 0.87139 0.18895 0.0
C389 C 0.73809 0.8027 0.1686 0.0
C390 C 0.17282 0.16629 0.37214 0.0
C391 C 0.19995 0.17912 0.40478 0.0
H392 H 0.11438 0.17868 0.3376 0.0
C393 C 0.18831 0.21449 0.42792 0.0
H394 H 0.182 0.14001 0.35362 0.0
C395 C 0.1496 0.23587 0.41887 0.0
C396 C 0.12324 0.22399 0.38614 0.0
H397 H 0.2091 0.2255 0.4531 0.0
H398 H 0.14026 0.26204 0.43737 0.0
C399 C 0.13522 0.1892 0.36274 0.0
C400 C 0.14508 0.97926 0.18737 0.0
C401 C 0.20232 0.98499 0.18188 0.0
H402 H 0.04864 0.92052 0.18629 0.0
C403 C 0.20565 0.93332 0.1732 0.0
H404 H 0.14115 0.01849 0.19404 0.0
C405 C 0.15279 0.87783 0.16792 0.0
C406 C 0.0954 0.87249 0.17173 0.0
H407 H 0.24896 0.93637 0.16832 0.0
H408 H 0.15718 0.83971 0.15947 0.0
C409 C 0.09205 0.92345 0.18234 0.0
C410 C 0.85139 0.95182 0.38595 0.0
C411 C 0.78907 0.90779 0.38679 0.0
H412 H 0.91924 0.04635 0.39095 0.0
C413 C 0.74681 0.92646 0.39296 0.0
H414 H 0.88485 0.93843 0.38104 0.0
C415 C 0.76642 0.9876 0.39927 0.0
C416 C 0.82874 0.03167 0.39893 0.0
H417 H 0.69871 0.89345 0.39408 0.0
H418 H 0.73253 1.00034 0.40444 0.0
C419 C 0.87107 0.01339 0.3916 0.0
C420 C 0.17631 0.0459 0.6821 0.0
C421 C 0.22803 0.04095 0.67543 0.0
H422 H 0.13555 0.10158 0.67944 0.0
C423 C 0.28014 0.09121 0.66203 0.0
H424 H 0.13514 0.00764 0.69214 0.0
C425 C 0.27968 0.14415 0.65395 0.0
C426 C 0.22745 0.14865 0.65952 0.0
H427 H 0.32018 0.08853 0.6558 0.0
H428 H 0.31991 0.18091 0.64223 0.0
C429 C 0.17604 0.09924 0.67423 0.0
C430 C 0.92523 0.83684 0.90156 0.0
C431 C 0.92433 0.78441 0.91294 0.0
H432 H 0.87319 0.87848 0.88923 0.0
C433 C 0.86797 0.73122 0.91862 0.0
H434 H 0.96781 0.87794 0.89625 0.0
C435 C 0.81364 0.73102 0.91414 0.0
C436 C 0.81466 0.78415 0.90403 0.0
H437 H 0.86589 0.69012 0.92759 0.0
H438 H 0.77119 0.69031 0.92037 0.0
C439 C 0.87094 0.83665 0.89701 0.0
C440 C 0.92849 0.09768 0.67285 0.0
C441 C 0.87574 0.09746 0.66282 0.0
H442 H 0.02382 0.15116 0.68226 0.0
C443 C 0.87846 0.15308 0.65645 0.0
H444 H 0.92739 0.05564 0.67859 0.0
C445 C 0.93316 0.20778 0.65914 0.0
C446 C 0.98635 0.20788 0.66797 0.0
H447 H 0.83855 0.15426 0.64837 0.0
H448 H 0.93422 0.24956 0.6526 0.0
C449 C 0.98335 0.15246 0.67548 0.0
C450 C 0.20031 0.09914 0.92994 0.0
C451 C 0.21857 0.13227 0.89941 0.0
H452 H 0.18795 0.02033 0.95629 0.0
C453 C 0.24878 0.11758 0.87412 0.0
H454 H 0.17653 0.10937 0.94956 0.0
C455 C 0.25567 0.06698 0.878 0.0
C456 C 0.23179 0.03063 0.90705 0.0
H457 H 0.26339 0.14298 0.85042 0.0
H458 H 0.27549 0.05389 0.85739 0.0
C459 C 0.20631 0.04814 0.93358 0.0
C460 C 0.86718 0.74226 0.6634 0.0
C461 C 0.9234 0.79557 0.66914 0.0
H462 H 0.77051 0.70084 0.66217 0.0
C463 C 0.92415 0.84798 0.68098 0.0
H464 H 0.86513 0.70122 0.65396 0.0
C465 C 0.86973 0.84758 0.68592 0.0
C466 C 0.81362 0.7948 0.67897 0.0
H467 H 0.96665 0.88923 0.68629 0.0
H468 H 0.87175 0.88935 0.69397 0.0
C469 C 0.81284 0.74177 0.6684 0.0
C470 C 0.94493 0.14947 0.87229 0.0
C471 C 0.95663 0.20366 0.88876 0.0
H472 H 0.89058 0.05247 0.87099 0.0
C473 C 0.91351 0.20197 0.9119 0.0
H474 H 0.97753 0.14951 0.85433 0.0
C475 C 0.86384 0.14612 0.92168 0.0
C476 C 0.85637 0.09118 0.90838 0.0
H477 H 0.92143 0.24285 0.92515 0.0
H478 H 0.83359 0.14578 0.94137 0.0
C479 C 0.89521 0.09372 0.88198 0.0
C480 C 0.42284 0.18499 0.30778 0.0
C481 C 0.38641 0.20331 0.32513 0.0
H482 H 0.4498 0.16596 0.25946 0.0
C483 C 0.35472 0.22498 0.30616 0.0
H484 H 0.44672 0.16701 0.32194 0.0
C485 C 0.35553 0.2235 0.27015 0.0
C486 C 0.38786 0.20003 0.25273 0.0
H487 H 0.32509 0.23782 0.31905 0.0
H488 H 0.32725 0.2364 0.25614 0.0
C489 C 0.42402 0.18385 0.27196 0.0
C490 C 0.76354 0.5902 0.30818 0.0
C491 C 0.81763 0.6254 0.3264 0.0
H492 H 0.7205 0.56405 0.2592 0.0
C493 C 0.87265 0.65645 0.30825 0.0
H494 H 0.72048 0.56674 0.32165 0.0
C495 C 0.87279 0.65604 0.27219 0.0
C496 C 0.81783 0.62454 0.25386 0.0
H497 H 0.91475 0.68513 0.3218 0.0
H498 H 0.91531 0.6837 0.25879 0.0
C499 C 0.76365 0.58922 0.27234 0.0
C500 C 0.78981 0.13629 0.26125 0.0
C501 C 0.81429 0.1907 0.24243 0.0
H502 H 0.7748 0.09573 0.31127 0.0
C503 C 0.83327 0.24545 0.2605 0.0
H504 H 0.77489 0.09334 0.24824 0.0
C505 C 0.83309 0.2466 0.29638 0.0
C506 C 0.81279 0.193 0.31516 0.0
H507 H 0.85214 0.28825 0.24701 0.0
H508 H 0.85272 0.29009 0.30952 0.0
C509 C 0.78916 0.13749 0.29735 0.0
C510 C 0.20784 0.35522 0.75798 0.0
C511 C 0.18861 0.38992 0.73991 0.0
H512 H 0.21464 0.32103 0.80665 0.0
C513 C 0.16839 0.42392 0.75863 0.0
H514 H 0.22368 0.32856 0.74443 0.0
C515 C 0.16272 0.4193 0.79437 0.0
C516 C 0.1773 0.38071 0.81216 0.0
H517 H 0.15357 0.4515 0.74554 0.0
H518 H 0.14398 0.44352 0.80779 0.0
C519 C 0.20225 0.35068 0.79371 0.0
C520 C 0.15256 0.80988 0.80816 0.0
C521 C 0.2074 0.83012 0.82602 0.0
H522 H 0.1095 0.79843 0.75931 0.0
C523 C 0.26071 0.84792 0.80697 0.0
H524 H 0.11059 0.79574 0.82198 0.0
C525 C 0.26005 0.84944 0.7711 0.0
C526 C 0.20608 0.83322 0.75327 0.0
H527 H 0.30369 0.86341 0.81978 0.0
H528 H 0.30258 0.86599 0.75743 0.0
C529 C 0.15191 0.81142 0.77217 0.0
C530 C 0.6738 0.87267 0.77398 0.0
C531 C 0.63496 0.81916 0.75553 0.0
H532 H 0.70839 0.9134 0.82337 0.0
C533 C 0.59525 0.76669 0.7741 0.0
H534 H 0.70514 0.91392 0.76054 0.0
C535 C 0.59709 0.76642 0.80997 0.0
C536 C 0.63881 0.81858 0.82842 0.0
H537 H 0.56444 0.72475 0.76087 0.0
H538 H 0.56745 0.72426 0.82315 0.0
C539 C 0.67575 0.87237 0.81005 0.0
C540 C 0.29317 0.97742 1.0312 0.0
C541 C 0.23436 0.9527 1.01764 0.0
H542 H 0.36169 0.04204 0.06414 0.0
C543 C 0.19833 0.97694 1.02925 0.0
H544 H 0.32289 0.96088 1.02292 0.0
C545 C 0.22112 0.02478 0.05377 0.0
C546 C 0.28063 0.04972 0.06672 0.0
H547 H 0.15325 0.95997 1.01888 0.0
H548 H 0.19212 0.04166 0.06278 0.0
C549 C 0.31592 0.02506 0.05482 0.0
C550 C 0.79874 0.80198 0.51602 0.0
C551 C 0.78712 0.74148 0.51441 0.0
H552 H 0.78385 0.86803 0.54254 0.0
C553 C 0.75109 0.70137 0.5403 0.0
H554 H 0.82563 0.83401 0.49616 0.0
C555 C 0.72528 0.72036 0.56604 0.0
C556 C 0.73543 0.78039 0.5672 0.0
H557 H 0.73998 0.65436 0.53958 0.0
H558 H 0.69676 0.68745 0.58509 0.0
C559 C 0.77418 0.82147 0.54234 0.0
C560 C 0.01188 0.20034 1.00937 0.0
C561 C 0.04649 0.26289 1.00134 0.0
H562 H 0.94115 0.13111 0.04122 0.0
C563 C 0.03493 0.30308 1.02035 0.0
H564 H 0.01845 0.16769 0.99488 0.0
C565 C 0.98987 0.28226 0.04551 0.0
C566 C 0.95439 0.22006 0.05363 0.0
H567 H 0.05987 0.35143 1.01516 0.0
H568 H 0.98336 0.316 0.05883 0.0
C569 C 0.96665 0.17919 0.03548 0.0
C570 C 0.31102 0.06774 0.53977 0.0
C571 C 0.27144 0.05865 0.51266 0.0
H572 H 0.32559 0.03264 0.58619 0.0
C573 C 0.21233 0.00696 0.51368 0.0
H574 H 0.35694 0.10622 0.5396 0.0
C575 C 0.19392 0.96457 0.54056 0.0
C576 C 0.23488 0.97177 0.56654 0.0
H577 H 0.18074 0.99831 0.49299 0.0
H578 H 0.14862 0.92509 0.54025 0.0
C579 C 0.29317 0.02466 0.56613 0.0
C580 C 0.72771 0.68329 0.04868 0.0
C581 C 0.78335 0.72347 0.06464 0.0
H582 H 0.65833 0.67062 1.01371 0.0
C583 C 0.81248 0.78537 0.05549 0.0
H584 H 0.70335 0.6354 0.05508 0.0
C585 C 0.78591 0.80613 1.03127 0.0
C586 C 0.72934 0.76555 1.01603 0.0
H587 H 0.85464 0.81793 0.06778 0.0
H588 H 0.80964 0.8538 1.02448 0.0
C589 C 0.70118 0.70384 1.0251 0.0
C590 C 0.99851 0.29457 0.55369 0.0
C591 C 0.04659 0.28198 0.55496 0.0
H592 H 0.91829 0.28102 0.52775 0.0
C593 C 0.04546 0.23932 0.53157 0.0
H594 H 0.99677 0.32618 0.57169 0.0
C595 C 0.99992 0.21338 0.50628 0.0
C596 C 0.95322 0.22782 0.50437 0.0
H597 H 0.08085 0.22771 0.532 0.0
H598 H 1.00253 0.18362 0.48722 0.0
C599 C 0.95233 0.2676 0.52897 0.0
C600 C 0.65538 0.10627 0.10816 0.0
C601 C 0.70007 0.16364 0.12031 0.0
H602 H 0.56127 0.03963 0.10565 0.0
C603 C 0.68193 0.19995 0.13802 0.0
H604 H 0.66808 0.07711 0.09454 0.0
C605 C 0.62069 0.17771 0.14546 0.0
C606 C 0.57579 0.11895 0.1348 0.0
H607 H 0.7153 0.24395 0.14826 0.0
H608 H 0.60939 0.20616 0.16074 0.0
C609 C 0.59399 0.08431 0.11515 0.0
C610 C 0.6388 0.47598 0.42823 0.0
C611 C 0.64149 0.53223 0.43231 0.0
H612 H 0.58534 0.37918 0.43153 0.0
C613 C 0.58846 0.53246 0.44192 0.0
H614 H 0.6788 0.47409 0.42072 0.0
C615 C 0.53449 0.47735 0.44854 0.0
C616 C 0.53244 0.42117 0.44504 0.0
H617 H 0.58924 0.57504 0.44543 0.0
H618 H 0.49442 0.47868 0.45641 0.0
C619 C 0.58509 0.42135 0.43429 0.0
C620 C 0.92034 0.5083 0.11488 0.0
C621 C 0.88844 0.45365 0.13328 0.0
H622 H 0.92474 0.59083 0.09949 0.0
C623 C 0.8317 0.43853 0.14776 0.0
H624 H 0.96333 0.52138 0.10267 0.0
C625 C 0.80871 0.47774 0.14494 0.0
C626 C 0.84232 0.53354 0.12815 0.0
H627 H 0.80544 0.39742 0.16236 0.0
H628 H 0.76638 0.46595 0.15776 0.0
C629 C 0.89771 0.54787 0.11252 0.0
C630 C 0.48101 0.07062 0.43615 0.0
C631 C 0.48042 0.12398 0.42827 0.0
H632 H 0.53582 0.03103 0.44796 0.0
C633 C 0.53623 0.1785 0.42431 0.0
H634 H 0.43879 0.02807 0.43946 0.0
C635 C 0.59131 0.18012 0.42875 0.0
C636 C 0.59224 0.12749 0.43788 0.0
H637 H 0.53738 0.22044 0.41805 0.0
H638 H 0.63327 0.22309 0.4261 0.0
C639 C 0.53648 0.07251 0.44129 0.0
C640 C 0.46105 0.34868 0.11426 0.0
C641 C 0.47463 0.3062 0.12808 0.0
H642 H 0.48761 0.44191 0.10872 0.0
C643 C 0.52953 0.32701 0.14557 0.0
H644 H 0.41874 0.33376 0.10078 0.0
C645 C 0.56815 0.38899 0.15124 0.0
C646 C 0.55354 0.43192 0.13887 0.0
H647 H 0.54076 0.29533 0.15704 0.0
H648 H 0.60822 0.40236 0.16647 0.0
C649 C 0.5002 0.41085 0.11943 0.0
C650 C 0.83833 0.4282 0.42536 0.0
C651 C 0.889 0.47931 0.43957 0.0
H652 H 0.79979 0.33687 0.40704 0.0
C653 C 0.94307 0.47747 0.44371 0.0
H654 H 0.79593 0.42754 0.42195 0.0
C655 C 0.94561 0.4251 0.43467 0.0
C656 C 0.89384 0.37332 0.4218 0.0
H657 H 0.98328 0.51631 0.45417 0.0
H658 H 0.98699 0.42417 0.43917 0.0
C659 C 0.84063 0.37605 0.41682 0.0
C660 C 0.20785 0.69247 0.64478 0.0
C661 C 0.17646 0.71579 0.62709 0.0
H662 H 0.20705 0.61381 0.66334 0.0
C663 C 0.12118 0.67522 0.61105 0.0
H664 H 0.24988 0.72263 0.65802 0.0
C665 C 0.09642 0.61248 0.61386 0.0
C666 C 0.12599 0.58867 0.63314 0.0
H667 H 0.09579 0.69204 0.59738 0.0
H668 H 0.05363 0.58293 0.6013 0.0
C669 C 0.18269 0.62968 0.64804 0.0
C670 C 0.51933 0.91751 0.96267 0.0
C671 C 0.46627 0.88745 0.94266 0.0
H672 H 0.59862 0.9184 0.98109 0.0
C673 C 0.45024 0.83 0.92859 0.0
H674 H 0.53321 0.96096 0.97461 0.0
C675 C 0.48726 0.80479 0.93324 0.0
C676 C 0.54171 0.83671 0.95157 0.0
H677 H 0.41021 0.80479 0.91297 0.0
H678 H 0.47513 0.76215 0.92057 0.0
C679 C 0.55662 0.89259 0.96692 0.0
C680 C 0.4134 0.50677 0.61217 0.0
C681 C 0.43341 0.55615 0.63508 0.0
H682 H 0.33751 0.431 0.58795 0.0
C683 C 0.39026 0.57028 0.64811 0.0
H684 H 0.4449 0.49502 0.60083 0.0
C685 C 0.32882 0.53469 0.63966 0.0
C686 C 0.30869 0.48334 0.61849 0.0
H687 H 0.40314 0.60743 0.66597 0.0
H688 H 0.29663 0.54488 0.65178 0.0
C689 C 0.35181 0.47069 0.60413 0.0
C690 C 0.12695 0.66315 0.96626 0.0
C691 C 0.18131 0.70498 0.95002 0.0
H692 H 0.06183 0.57025 0.97536 0.0
C693 C 0.21476 0.68358 0.93216 0.0
H694 H 0.10041 0.67852 0.98035 0.0
C695 C 0.1917 0.6211 0.92832 0.0
C696 C 0.1351 0.57886 0.94268 0.0
H697 H 0.25658 0.71489 0.9191 0.0
H698 H 0.21703 0.60634 0.91269 0.0
C699 C 0.10436 0.60088 0.96288 0.0
C700 C 0.51672 0.92351 0.61893 0.0
C701 C 0.46451 0.89517 0.63976 0.0
H702 H 0.59509 0.92262 0.59987 0.0
C703 C 0.44881 0.83877 0.65473 0.0
H704 H 0.52997 0.96598 0.60623 0.0
C705 C 0.48545 0.81289 0.65012 0.0
C706 C 0.53918 0.84316 0.63087 0.0
H707 H 0.40943 0.81523 0.67112 0.0
H708 H 0.47375 0.77123 0.66349 0.0
C709 C 0.55365 0.89801 0.61471 0.0
C710 C 0.3871 0.55172 0.93256 0.0
C711 C 0.43068 0.53359 0.92858 0.0
H712 H 0.29276 0.52452 0.93635 0.0
C713 C 0.40965 0.4707 0.92701 0.0
H714 H 0.40082 0.5993 0.93448 0.0
C715 C 0.34739 0.42761 0.92869 0.0
C716 C 0.30393 0.44586 0.93181 0.0
H717 H 0.44107 0.45435 0.92366 0.0
H718 H 0.33329 0.37988 0.92645 0.0
C719 C 0.32475 0.50856 0.93407 0.0
loop_
_geom_bond_atom_site_label_1
_geom_bond_atom_site_label_2
_geom_bond_distance
_geom_bond_site_symmetry_2
_ccdc_geom_bond_type
Co0 N5 2.057 . S
Co0 O17 2.021 . S
Co0 O20 2.062 . S
Co0 O24 2.117 . S
Co0 O25 2.020 . S
C1 O21 1.259 . S
C1 O24 1.258 . S
Co2 N11 2.057 . S
Co2 O18 2.117 . S
Co2 O19 2.020 . S
Co2 O21 2.021 . S
Co2 O26 2.062 . S
C3 N5 1.316 . S
C3 N6 1.347 . S
C3 H8 0.931 . S
C4 N5 1.375 . S
C4 C7 1.350 . S
C4 H9 0.930 . S
N5 Co0 2.057 . S
N5 C3 1.316 . S
N5 C4 1.375 . S
N6 C3 1.347 . S
N6 C7 1.373 . S
C7 C4 1.350 . S
C7 N6 1.373 . S
C7 H28 0.931 . S
H8 C3 0.931 . S
H9 C4 0.930 . S
C10 O17 1.259 . S
C10 O18 1.258 . S
N11 Co2 2.057 . S
N11 C12 1.316 . S
N11 C13 1.375 . S
C12 N11 1.316 . S
C12 N14 1.347 . S
C12 H23 0.931 . S
C13 N11 1.375 . S
C13 C15 1.350 . S
C13 H22 0.930 . S
N14 C12 1.347 . S
N14 C15 1.373 . S
C15 C13 1.350 . S
C15 N14 1.373 . S
C15 H29 0.931 . S
C16 O19 1.256 . S
C16 O20 1.255 . S
O17 Co0 2.021 . S
O17 C10 1.259 . S
O18 Co2 2.117 . S
O18 C10 1.258 . S
O19 Co2 2.020 . S
O19 C16 1.256 . S
O20 Co0 2.062 . S
O20 C16 1.255 . S
O21 C1 1.259 . S
O21 Co2 2.021 . S
H22 C13 0.930 . S
H23 C12 0.931 . S
O24 Co0 2.117 . S
O24 C1 1.258 . S
O25 Co0 2.020 . S
O25 C27 1.256 . S
O26 Co2 2.062 . S
O26 C27 1.255 . S
C27 O25 1.256 . S
C27 O26 1.255 . S
H28 C7 0.931 . S
H29 C15 0.931 . S
Co30 N35 2.057 . S
Co30 O47 2.021 . S
Co30 O50 2.062 . S
Co30 O54 2.117 . S
Co30 O55 2.020 . S
C31 O51 1.259 . S
C31 O54 1.258 . S
Co32 N41 2.057 . S
Co32 O48 2.117 . S
Co32 O49 2.020 . S
Co32 O51 2.021 . S
Co32 O56 2.062 . S
C33 N35 1.316 . S
C33 N36 1.347 . S
C33 H38 0.931 . S
C34 N35 1.375 . S
C34 C37 1.350 . S
C34 H39 0.930 . S
N35 Co30 2.057 . S
N35 C33 1.316 . S
N35 C34 1.375 . S
N36 C33 1.347 . S
N36 C37 1.373 . S
C37 C34 1.350 . S
C37 N36 1.373 . S
C37 H58 0.931 . S
H38 C33 0.931 . S
H39 C34 0.930 . S
C40 O47 1.259 . S
C40 O48 1.258 . S
N41 Co32 2.057 . S
N41 C42 1.316 . S
N41 C43 1.375 . S
C42 N41 1.316 . S
C42 N44 1.347 . S
C42 H53 0.931 . S
C43 N41 1.375 . S
C43 C45 1.350 . S
C43 H52 0.930 . S
N44 C42 1.347 . S
N44 C45 1.373 . S
C45 C43 1.350 . S
C45 N44 1.373 . S
C45 H59 0.931 . S
C46 O49 1.256 . S
C46 O50 1.255 . S
O47 Co30 2.021 . S
O47 C40 1.259 . S
O48 Co32 2.117 . S
O48 C40 1.258 . S
O49 Co32 2.020 . S
O49 C46 1.256 . S
O50 Co30 2.062 . S
O50 C46 1.255 . S
O51 C31 1.259 . S
O51 Co32 2.021 . S
H52 C43 0.930 . S
H53 C42 0.931 . S
O54 Co30 2.117 . S
O54 C31 1.258 . S
O55 Co30 2.020 . S
O55 C57 1.256 . S
O56 Co32 2.062 . S
O56 C57 1.255 . S
C57 O55 1.256 . S
C57 O56 1.255 . S
H58 C37 0.931 . S
H59 C45 0.931 . S
Co60 N65 2.057 . S
Co60 O77 2.021 . S
Co60 O80 2.062 . S
Co60 O84 2.117 . S
Co60 O85 2.020 . S
C61 O81 1.259 . S
C61 O84 1.258 . S
Co62 N71 2.057 . S
Co62 O78 2.117 . S
Co62 O79 2.020 . S
Co62 O81 2.021 . S
Co62 O86 2.062 . S
C63 N65 1.316 . S
C63 N66 1.347 1_545 S
C63 H68 0.931 . S
C64 N65 1.375 . S
C64 C67 1.350 1_545 S
C64 H69 0.930 . S
N65 Co60 2.057 . S
N65 C63 1.316 . S
N65 C64 1.375 . S
N66 C63 1.347 1_565 S
N66 C67 1.373 . S
C67 C64 1.350 1_565 S
C67 N66 1.373 . S
C67 H88 0.931 . S
H68 C63 0.931 . S
H69 C64 0.930 . S
C70 O77 1.259 . S
C70 O78 1.258 . S
N71 Co62 2.057 . S
N71 C72 1.316 . S
N71 C73 1.375 . S
C72 N71 1.316 . S
C72 N74 1.347 . S
C72 H83 0.931 . S
C73 N71 1.375 . S
C73 C75 1.350 . S
C73 H82 0.930 . S
N74 C72 1.347 . S
N74 C75 1.373 . S
C75 C73 1.350 . S
C75 N74 1.373 . S
C75 H89 0.931 . S
C76 O79 1.256 . S
C76 O80 1.255 . S
O77 Co60 2.021 . S
O77 C70 1.259 . S
O78 Co62 2.117 . S
O78 C70 1.258 . S
O79 Co62 2.020 . S
O79 C76 1.256 . S
O80 Co60 2.062 . S
O80 C76 1.255 . S
O81 C61 1.259 . S
O81 Co62 2.021 . S
H82 C73 0.930 . S
H83 C72 0.931 . S
O84 Co60 2.117 . S
O84 C61 1.258 . S
O85 Co60 2.020 . S
O85 C87 1.256 . S
O86 Co62 2.062 . S
O86 C87 1.255 . S
C87 O85 1.256 . S
C87 O86 1.255 . S
H88 C67 0.931 . S
H89 C75 0.931 . S
Co90 N95 2.057 1_545 S
Co90 O107 2.021 . S
Co90 O110 2.062 . S
Co90 O114 2.117 . S
Co90 O115 2.020 . S
C91 O111 1.259 . S
C91 O114 1.258 . S
Co92 N101 2.057 . S
Co92 O108 2.117 . S
Co92 O109 2.020 . S
Co92 O111 2.021 . S
Co92 O116 2.062 . S
C93 N95 1.316 . S
C93 N96 1.347 . S
C93 H98 0.931 . S
C94 N95 1.375 . S
C94 C97 1.350 . S
C94 H99 0.930 . S
N95 Co90 2.057 1_565 S
N95 C93 1.316 . S
N95 C94 1.375 . S
N96 C93 1.347 . S
N96 C97 1.373 . S
C97 C94 1.350 . S
C97 N96 1.373 . S
C97 H118 0.931 . S
H98 C93 0.931 . S
H99 C94 0.930 . S
C100 O107 1.259 . S
C100 O108 1.258 . S
N101 Co92 2.057 . S
N101 C102 1.316 . S
N101 C103 1.375 . S
C102 N101 1.316 . S
C102 N104 1.347 . S
C102 H113 0.931 . S
C103 N101 1.375 . S
C103 C105 1.350 . S
C103 H112 0.930 . S
N104 C102 1.347 . S
N104 C105 1.373 . S
C105 C103 1.350 . S
C105 N104 1.373 . S
C105 H119 0.931 . S
C106 O109 1.256 . S
C106 O110 1.255 . S
O107 Co90 2.021 . S
O107 C100 1.259 . S
O108 Co92 2.117 . S
O108 C100 1.258 . S
O109 Co92 2.020 . S
O109 C106 1.256 . S
O110 Co90 2.062 . S
O110 C106 1.255 . S
O111 C91 1.259 . S
O111 Co92 2.021 . S
H112 C103 0.930 . S
H113 C102 0.931 . S
O114 Co90 2.117 . S
O114 C91 1.258 . S
O115 Co90 2.020 . S
O115 C117 1.256 . S
O116 Co92 2.062 . S
O116 C117 1.255 . S
C117 O115 1.256 . S
C117 O116 1.255 . S
H118 C97 0.931 . S
H119 C105 0.931 . S
Co120 N125 2.057 . S
Co120 O137 2.021 . S
Co120 O140 2.062 . S
Co120 O144 2.117 . S
Co120 O145 2.020 . S
C121 O141 1.259 . S
C121 O144 1.258 . S
Co122 N131 2.057 . S
Co122 O138 2.117 . S
Co122 O139 2.020 . S
Co122 O141 2.021 . S
Co122 O146 2.062 . S
C123 N125 1.316 . S
C123 N126 1.347 1_655 S
C123 H128 0.931 . S
C124 N125 1.375 . S
C124 C127 1.350 1_655 S
C124 H129 0.930 . S
N125 Co120 2.057 . S
N125 C123 1.316 . S
N125 C124 1.375 . S
N126 C123 1.347 1_455 S
N126 C127 1.373 . S
C127 C124 1.350 1_455 S
C127 N126 1.373 . S
C127 H148 0.931 . S
H128 C123 0.931 . S
H129 C124 0.930 . S
C130 O137 1.259 . S
C130 O138 1.258 . S
N131 Co122 2.057 . S
N131 C132 1.316 . S
N131 C133 1.375 . S
C132 N131 1.316 . S
C132 N134 1.347 . S
C132 H143 0.931 . S
C133 N131 1.375 . S
C133 C135 1.350 . S
C133 H142 0.930 . S
N134 C132 1.347 . S
N134 C135 1.373 . S
C135 C133 1.350 . S
C135 N134 1.373 . S
C135 H149 0.931 . S
C136 O139 1.256 . S
C136 O140 1.255 . S
O137 Co120 2.021 . S
O137 C130 1.259 . S
O138 Co122 2.117 . S
O138 C130 1.258 . S
O139 Co122 2.020 . S
O139 C136 1.256 . S
O140 Co120 2.062 . S
O140 C136 1.255 . S
O141 C121 1.259 . S
O141 Co122 2.021 . S
H142 C133 0.930 . S
H143 C132 0.931 . S
O144 Co120 2.117 . S
O144 C121 1.258 . S
O145 Co120 2.020 . S
O145 C147 1.256 . S
O146 Co122 2.062 . S
O146 C147 1.255 . S
C147 O145 1.256 . S
C147 O146 1.255 . S
H148 C127 0.931 . S
H149 C135 0.931 . S
Co150 N155 2.057 1_655 S
Co150 O167 2.021 . S
Co150 O170 2.062 . S
Co150 O174 2.117 . S
Co150 O175 2.020 . S
C151 O171 1.259 . S
C151 O174 1.258 . S
Co152 N161 2.057 . S
Co152 O168 2.117 . S
Co152 O169 2.020 . S
Co152 O171 2.021 . S
Co152 O176 2.062 . S
C153 N155 1.316 . S
C153 N156 1.347 . S
C153 H158 0.931 . S
C154 N155 1.375 . S
C154 C157 1.350 . S
C154 H159 0.930 . S
N155 Co150 2.057 1_455 S
N155 C153 1.316 . S
N155 C154 1.375 . S
N156 C153 1.347 . S
N156 C157 1.373 . S
C157 C154 1.350 . S
C157 N156 1.373 . S
C157 H178 0.931 . S
H158 C153 0.931 . S
H159 C154 0.930 . S
C160 O167 1.259 . S
C160 O168 1.258 . S
N161 Co152 2.057 . S
N161 C162 1.316 . S
N161 C163 1.375 . S
C162 N161 1.316 . S
C162 N164 1.347 . S
C162 H173 0.931 . S
C163 N161 1.375 . S
C163 C165 1.350 . S
C163 H172 0.930 . S
N164 C162 1.347 . S
N164 C165 1.373 . S
C165 C163 1.350 . S
C165 N164 1.373 . S
C165 H179 0.931 . S
C166 O169 1.256 . S
C166 O170 1.255 . S
O167 Co150 2.021 . S
O167 C160 1.259 . S
O168 Co152 2.117 . S
O168 C160 1.258 . S
O169 Co152 2.020 . S
O169 C166 1.256 . S
O170 Co150 2.062 . S
O170 C166 1.255 . S
O171 C151 1.259 . S
O171 Co152 2.021 . S
H172 C163 0.930 . S
H173 C162 0.931 . S
O174 Co150 2.117 . S
O174 C151 1.258 . S
O175 Co150 2.020 . S
O175 C177 1.256 . S
O176 Co152 2.062 . S
O176 C177 1.255 . S
C177 O175 1.256 . S
C177 O176 1.255 . S
H178 C157 0.931 . S
H179 C165 0.931 . S
Co180 N185 2.057 . S
Co180 O197 2.021 . S
Co180 O200 2.062 . S
Co180 O204 2.117 . S
Co180 O205 2.020 . S
C181 O201 1.259 . S
C181 O204 1.258 . S
Co182 N191 2.057 . S
Co182 O198 2.117 . S
Co182 O199 2.020 . S
Co182 O201 2.021 . S
Co182 O206 2.062 . S
C183 N185 1.316 . S
C183 N186 1.347 . S
C183 H188 0.931 . S
C184 N185 1.375 . S
C184 C187 1.350 . S
C184 H189 0.930 . S
N185 Co180 2.057 . S
N185 C183 1.316 . S
N185 C184 1.375 . S
N186 C183 1.347 . S
N186 C187 1.373 . S
C187 C184 1.350 . S
C187 N186 1.373 . S
C187 H208 0.931 . S
H188 C183 0.931 . S
H189 C184 0.930 . S
C190 O197 1.259 . S
C190 O198 1.258 . S
N191 Co182 2.057 . S
N191 C192 1.316 . S
N191 C193 1.375 . S
C192 N191 1.316 . S
C192 N194 1.347 . S
C192 H203 0.931 . S
C193 N191 1.375 . S
C193 C195 1.350 . S
C193 H202 0.930 . S
N194 C192 1.347 . S
N194 C195 1.373 . S
C195 C193 1.350 . S
C195 N194 1.373 . S
C195 H209 0.931 . S
C196 O199 1.256 . S
C196 O200 1.255 . S
O197 Co180 2.021 . S
O197 C190 1.259 . S
O198 Co182 2.117 . S
O198 C190 1.258 . S
O199 Co182 2.020 . S
O199 C196 1.256 . S
O200 Co180 2.062 . S
O200 C196 1.255 . S
O201 C181 1.259 . S
O201 Co182 2.021 . S
H202 C193 0.930 . S
H203 C192 0.931 . S
O204 Co180 2.117 . S
O204 C181 1.258 . S
O205 Co180 2.020 . S
O205 C207 1.256 . S
O206 Co182 2.062 . S
O206 C207 1.255 . S
C207 O205 1.256 . S
C207 O206 1.255 . S
H208 C187 0.931 . S
H209 C195 0.931 . S
Co210 N215 2.057 . S
Co210 O227 2.021 . S
Co210 O230 2.062 . S
Co210 O234 2.117 . S
Co210 O235 2.020 . S
C211 O231 1.259 . S
C211 O234 1.258 . S
Co212 N221 2.057 . S
Co212 O228 2.117 . S
Co212 O229 2.020 . S
Co212 O231 2.021 . S
Co212 O236 2.062 . S
C213 N215 1.316 . S
C213 N216 1.347 1_455 S
C213 H218 0.931 . S
C214 N215 1.375 . S
C214 C217 1.350 1_455 S
C214 H219 0.930 . S
N215 Co210 2.057 . S
N215 C213 1.316 . S
N215 C214 1.375 . S
N216 C213 1.347 1_655 S
N216 C217 1.373 . S
C217 C214 1.350 1_655 S
C217 N216 1.373 . S
C217 H238 0.931 . S
H218 C213 0.931 . S
H219 C214 0.930 . S
C220 O227 1.259 . S
C220 O228 1.258 . S
N221 Co212 2.057 . S
N221 C222 1.316 . S
N221 C223 1.375 . S
C222 N221 1.316 . S
C222 N224 1.347 . S
C222 H233 0.931 . S
C223 N221 1.375 . S
C223 C225 1.350 . S
C223 H232 0.930 . S
N224 C222 1.347 . S
N224 C225 1.373 . S
C225 C223 1.350 . S
C225 N224 1.373 . S
C225 H239 0.931 . S
C226 O229 1.256 . S
C226 O230 1.255 . S
O227 Co210 2.021 . S
O227 C220 1.259 . S
O228 Co212 2.117 . S
O228 C220 1.258 . S
O229 Co212 2.020 . S
O229 C226 1.256 . S
O230 Co210 2.062 . S
O230 C226 1.255 . S
O231 C211 1.259 . S
O231 Co212 2.021 . S
H232 C223 0.930 . S
H233 C222 0.931 . S
O234 Co210 2.117 . S
O234 C211 1.258 . S
O235 Co210 2.020 . S
O235 C237 1.256 . S
O236 Co212 2.062 . S
O236 C237 1.255 . S
C237 O235 1.256 . S
C237 O236 1.255 . S
H238 C217 0.931 . S
H239 C225 0.931 . S
Co240 N245 2.057 . S
Co240 O257 2.021 . S
Co240 O260 2.062 . S
Co240 O264 2.117 . S
Co240 O265 2.020 . S
C241 O261 1.259 . S
C241 O264 1.258 . S
Co242 N251 2.057 . S
Co242 O258 2.117 . S
Co242 O259 2.020 . S
Co242 O261 2.021 . S
Co242 O266 2.062 . S
C243 N245 1.316 . S
C243 N246 1.347 . S
C243 H248 0.931 . S
C244 N245 1.375 . S
C244 C247 1.350 . S
C244 H249 0.930 . S
N245 Co240 2.057 . S
N245 C243 1.316 . S
N245 C244 1.375 . S
N246 C243 1.347 . S
N246 C247 1.373 . S
C247 C244 1.350 . S
C247 N246 1.373 . S
C247 H268 0.931 . S
H248 C243 0.931 . S
H249 C244 0.930 . S
C250 O257 1.259 . S
C250 O258 1.258 . S
N251 Co242 2.057 . S
N251 C252 1.316 . S
N251 C253 1.375 . S
C252 N251 1.316 . S
C252 N254 1.347 1_565 S
C252 H263 0.931 . S
C253 N251 1.375 . S
C253 C255 1.350 1_565 S
C253 H262 0.930 . S
N254 C252 1.347 1_545 S
N254 C255 1.373 . S
C255 C253 1.350 1_545 S
C255 N254 1.373 . S
C255 H269 0.931 . S
C256 O259 1.256 . S
C256 O260 1.255 . S
O257 Co240 2.021 . S
O257 C250 1.259 . S
O258 Co242 2.117 . S
O258 C250 1.258 . S
O259 Co242 2.020 . S
O259 C256 1.256 . S
O260 Co240 2.062 . S
O260 C256 1.255 . S
O261 C241 1.259 . S
O261 Co242 2.021 . S
H262 C253 0.930 . S
H263 C252 0.931 . S
O264 Co240 2.117 . S
O264 C241 1.258 . S
O265 Co240 2.020 . S
O265 C267 1.256 . S
O266 Co242 2.062 . S
O266 C267 1.255 . S
C267 O265 1.256 . S
C267 O266 1.255 . S
H268 C247 0.931 . S
H269 C255 0.931 . S
Co270 N275 2.057 . S
Co270 O287 2.021 . S
Co270 O290 2.062 . S
Co270 O294 2.117 . S
Co270 O295 2.020 . S
C271 O291 1.259 . S
C271 O294 1.258 . S
Co272 N281 2.057 . S
Co272 O288 2.117 . S
Co272 O289 2.020 . S
Co272 O291 2.021 . S
Co272 O296 2.062 . S
C273 N275 1.316 . S
C273 N276 1.347 . S
C273 H278 0.931 . S
C274 N275 1.375 . S
C274 C277 1.350 . S
C274 H279 0.930 . S
N275 Co270 2.057 . S
N275 C273 1.316 . S
N275 C274 1.375 . S
N276 C273 1.347 . S
N276 C277 1.373 . S
C277 C274 1.350 . S
C277 N276 1.373 . S
C277 H298 0.931 . S
H278 C273 0.931 . S
H279 C274 0.930 . S
C280 O287 1.259 . S
C280 O288 1.258 . S
N281 Co272 2.057 . S
N281 C282 1.316 . S
N281 C283 1.375 . S
C282 N281 1.316 . S
C282 N284 1.347 . S
C282 H293 0.931 . S
C283 N281 1.375 . S
C283 C285 1.350 . S
C283 H292 0.930 . S
N284 C282 1.347 . S
N284 C285 1.373 . S
C285 C283 1.350 . S
C285 N284 1.373 . S
C285 H299 0.931 . S
C286 O289 1.256 . S
C286 O290 1.255 . S
O287 Co270 2.021 . S
O287 C280 1.259 . S
O288 Co272 2.117 . S
O288 C280 1.258 . S
O289 Co272 2.020 . S
O289 C286 1.256 . S
O290 Co270 2.062 . S
O290 C286 1.255 . S
O291 C271 1.259 . S
O291 Co272 2.021 . S
H292 C283 0.930 . S
H293 C282 0.931 . S
O294 Co270 2.117 . S
O294 C271 1.258 . S
O295 Co270 2.020 . S
O295 C297 1.256 . S
O296 Co272 2.062 . S
O296 C297 1.255 . S
C297 O295 1.256 . S
C297 O296 1.255 . S
H298 C277 0.931 . S
H299 C285 0.931 . S
Co300 N305 2.057 . S
Co300 O317 2.021 . S
Co300 O320 2.062 . S
Co300 O324 2.117 . S
Co300 O325 2.020 . S
C301 O321 1.259 . S
C301 O324 1.258 . S
Co302 N311 2.057 . S
Co302 O318 2.117 . S
Co302 O319 2.020 . S
Co302 O321 2.021 . S
Co302 O326 2.062 . S
C303 N305 1.316 . S
C303 N306 1.347 . S
C303 H308 0.931 . S
C304 N305 1.375 . S
C304 C307 1.350 . S
C304 H309 0.930 . S
N305 Co300 2.057 . S
N305 C303 1.316 . S
N305 C304 1.375 . S
N306 C303 1.347 . S
N306 C307 1.373 . S
C307 C304 1.350 . S
C307 N306 1.373 . S
C307 H328 0.931 . S
H308 C303 0.931 . S
H309 C304 0.930 . S
C310 O317 1.259 . S
C310 O318 1.258 . S
N311 Co302 2.057 . S
N311 C312 1.316 . S
N311 C313 1.375 . S
C312 N311 1.316 . S
C312 N314 1.347 1_455 S
C312 H323 0.931 . S
C313 N311 1.375 . S
C313 C315 1.350 1_455 S
C313 H322 0.930 . S
N314 C312 1.347 1_655 S
N314 C315 1.373 . S
C315 C313 1.350 1_655 S
C315 N314 1.373 . S
C315 H329 0.931 . S
C316 O319 1.256 . S
C316 O320 1.255 . S
O317 Co300 2.021 . S
O317 C310 1.259 . S
O318 Co302 2.117 . S
O318 C310 1.258 . S
O319 Co302 2.020 . S
O319 C316 1.256 . S
O320 Co300 2.062 . S
O320 C316 1.255 . S
O321 C301 1.259 . S
O321 Co302 2.021 . S
H322 C313 0.930 . S
H323 C312 0.931 . S
O324 Co300 2.117 . S
O324 C301 1.258 . S
O325 Co300 2.020 . S
O325 C327 1.256 . S
O326 Co302 2.062 . S
O326 C327 1.255 . S
C327 O325 1.256 . S
C327 O326 1.255 . S
H328 C307 0.931 . S
H329 C315 0.931 . S
Co330 N335 2.057 . S
Co330 O347 2.021 . S
Co330 O350 2.062 . S
Co330 O354 2.117 . S
Co330 O355 2.020 . S
C331 O351 1.259 . S
C331 O354 1.258 . S
Co332 N341 2.057 . S
Co332 O348 2.117 . S
Co332 O349 2.020 . S
Co332 O351 2.021 . S
Co332 O356 2.062 . S
C333 N335 1.316 . S
C333 N336 1.347 1_565 S
C333 H338 0.931 . S
C334 N335 1.375 . S
C334 C337 1.350 1_565 S
C334 H339 0.930 . S
N335 Co330 2.057 . S
N335 C333 1.316 . S
N335 C334 1.375 . S
N336 C333 1.347 1_545 S
N336 C337 1.373 . S
C337 C334 1.350 1_545 S
C337 N336 1.373 . S
C337 H358 0.931 . S
H338 C333 0.931 . S
H339 C334 0.930 . S
C340 O347 1.259 . S
C340 O348 1.258 . S
N341 Co332 2.057 . S
N341 C342 1.316 . S
N341 C343 1.375 . S
C342 N341 1.316 . S
C342 N344 1.347 . S
C342 H353 0.931 . S
C343 N341 1.375 . S
C343 C345 1.350 . S
C343 H352 0.930 . S
N344 C342 1.347 . S
N344 C345 1.373 . S
C345 C343 1.350 . S
C345 N344 1.373 . S
C345 H359 0.931 . S
C346 O349 1.256 . S
C346 O350 1.255 . S
O347 Co330 2.021 . S
O347 C340 1.259 . S
O348 Co332 2.117 . S
O348 C340 1.258 . S
O349 Co332 2.020 . S
O349 C346 1.256 . S
O350 Co330 2.062 . S
O350 C346 1.255 . S
O351 C331 1.259 . S
O351 Co332 2.021 . S
H352 C343 0.930 . S
H353 C342 0.931 . S
O354 Co330 2.117 . S
O354 C331 1.258 . S
O355 Co330 2.020 . S
O355 C357 1.256 . S
O356 Co332 2.062 . S
O356 C357 1.255 . S
C357 O355 1.256 . S
C357 O356 1.255 . S
H358 C337 0.931 . S
H359 C345 0.931 . S
C360 C361 1.387 . S
C360 H364 0.950 1_455 S
C360 C369 1.390 . S
C361 C360 1.387 . S
C361 C363 1.387 . S
H362 C369 0.950 . S
C363 C361 1.387 . S
C363 C365 1.390 . S
C363 H367 0.950 . S
H364 C360 0.950 1_655 S
C365 C363 1.390 . S
C365 C366 1.387 . S
C365 H368 0.950 . S
C366 C365 1.387 . S
C366 C369 1.387 . S
H367 C363 0.950 . S
H368 C365 0.950 . S
C369 C360 1.390 . S
C369 H362 0.950 . S
C369 C366 1.387 . S
C370 C371 1.387 . S
C370 H374 0.950 . S
C370 C379 1.390 . S
C371 C370 1.387 . S
C371 C373 1.387 . S
H372 C379 0.949 1_655 S
C373 C371 1.387 . S
C373 C375 1.390 1_455 S
C373 H377 0.950 . S
H374 C370 0.950 . S
C375 C373 1.390 1_655 S
C375 C376 1.387 . S
C375 H378 0.950 . S
C376 C375 1.387 . S
C376 C379 1.387 1_655 S
H377 C373 0.950 . S
H378 C375 0.950 . S
C379 C370 1.390 . S
C379 H372 0.949 1_455 S
C379 C376 1.387 1_455 S
C380 C381 1.387 . S
C380 H384 0.950 . S
C380 C389 1.390 . S
C381 C380 1.387 . S
C381 C383 1.387 . S
H382 C389 0.950 . S
C383 C381 1.387 . S
C383 C385 1.390 . S
C383 H387 0.950 . S
H384 C380 0.950 . S
C385 C383 1.390 . S
C385 C386 1.387 . S
C385 H388 0.950 . S
C386 C385 1.387 . S
C386 C389 1.387 . S
H387 C383 0.950 . S
H388 C385 0.950 . S
C389 C380 1.390 . S
C389 H382 0.950 . S
C389 C386 1.387 . S
C390 C391 1.387 . S
C390 H394 0.950 . S
C390 C399 1.390 . S
C391 C390 1.387 . S
C391 C393 1.387 . S
H392 C399 0.950 . S
C393 C391 1.387 . S
C393 C395 1.390 . S
C393 H397 0.950 . S
H394 C390 0.950 . S
C395 C393 1.390 . S
C395 C396 1.387 . S
C395 H398 0.950 . S
C396 C395 1.387 . S
C396 C399 1.387 . S
H397 C393 0.950 . S
H398 C395 0.950 . S
C399 C390 1.390 . S
C399 H392 0.950 . S
C399 C396 1.387 . S
C400 C401 1.387 . S
C400 H404 0.950 . S
C400 C409 1.390 . S
C401 C400 1.387 . S
C401 C403 1.387 . S
H402 C409 0.950 . S
C403 C401 1.387 . S
C403 C405 1.390 . S
C403 H407 0.950 . S
H404 C400 0.950 . S
C405 C403 1.390 . S
C405 C406 1.387 . S
C405 H408 0.950 . S
C406 C405 1.387 . S
C406 C409 1.387 . S
H407 C403 0.950 . S
H408 C405 0.950 . S
C409 C400 1.390 . S
C409 H402 0.950 . S
C409 C406 1.387 . S
C410 C411 1.387 . S
C410 H414 0.950 . S
C410 C419 1.390 . S
C411 C410 1.387 . S
C411 C413 1.387 . S
H412 C419 0.950 1_545 S
C413 C411 1.387 . S
C413 C415 1.390 1_565 S
C413 H417 0.950 . S
H414 C410 0.950 . S
C415 C413 1.390 1_545 S
C415 C416 1.387 . S
C415 H418 0.950 . S
C416 C415 1.387 . S
C416 C419 1.387 1_545 S
H417 C413 0.950 . S
H418 C415 0.950 . S
C419 C410 1.390 . S
C419 H412 0.950 1_565 S
C419 C416 1.387 1_565 S
C420 C421 1.387 . S
C420 H424 0.950 1_545 S
C420 C429 1.390 . S
C421 C420 1.387 . S
C421 C423 1.387 . S
H422 C429 0.950 . S
C423 C421 1.387 . S
C423 C425 1.390 . S
C423 H427 0.950 . S
H424 C420 0.950 1_565 S
C425 C423 1.390 . S
C425 C426 1.387 . S
C425 H428 0.950 . S
C426 C425 1.387 . S
C426 C429 1.387 . S
H427 C423 0.950 . S
H428 C425 0.950 . S
C429 C420 1.390 . S
C429 H422 0.950 . S
C429 C426 1.387 . S
C430 C431 1.387 . S
C430 H434 0.950 . S
C430 C439 1.390 . S
C431 C430 1.387 . S
C431 C433 1.387 . S
H432 C439 0.950 . S
C433 C431 1.387 . S
C433 C435 1.390 . S
C433 H437 0.950 . S
H434 C430 0.950 . S
C435 C433 1.390 . S
C435 C436 1.387 . S
C435 H438 0.950 . S
C436 C435 1.387 . S
C436 C439 1.387 . S
H437 C433 0.950 . S
H438 C435 0.950 . S
C439 C430 1.390 . S
C439 H432 0.950 . S
C439 C436 1.387 . S
C440 C441 1.387 . S
C440 H444 0.950 . S
C440 C449 1.390 . S
C441 C440 1.387 . S
C441 C443 1.387 . S
H442 C449 0.950 . S
C443 C441 1.387 . S
C443 C445 1.390 . S
C443 H447 0.950 . S
H444 C440 0.950 . S
C445 C443 1.390 . S
C445 C446 1.387 . S
C445 H448 0.950 . S
C446 C445 1.387 . S
C446 C449 1.387 . S
H447 C443 0.950 . S
H448 C445 0.950 . S
C449 C440 1.390 . S
C449 H442 0.950 . S
C449 C446 1.387 . S
C450 C451 1.387 . S
C450 H454 0.950 . S
C450 C459 1.390 . S
C451 C450 1.387 . S
C451 C453 1.387 . S
H452 C459 0.950 1_565 S
C453 C451 1.387 . S
C453 C455 1.390 . S
C453 H457 0.950 . S
H454 C450 0.950 . S
C455 C453 1.390 . S
C455 C456 1.387 . S
C455 H458 0.950 . S
C456 C455 1.387 . S
C456 C459 1.387 . S
H457 C453 0.950 . S
H458 C455 0.950 . S
C459 C450 1.390 . S
C459 H452 0.950 1_545 S
C459 C456 1.387 . S
C460 C461 1.387 . S
C460 H464 0.950 . S
C460 C469 1.390 . S
C461 C460 1.387 . S
C461 C463 1.387 . S
H462 C469 0.950 . S
C463 C461 1.387 . S
C463 C465 1.390 . S
C463 H467 0.950 . S
H464 C460 0.950 . S
C465 C463 1.390 . S
C465 C466 1.387 . S
C465 H468 0.950 . S
C466 C465 1.387 . S
C466 C469 1.387 . S
H467 C463 0.950 . S
H468 C465 0.950 . S
C469 C460 1.390 . S
C469 H462 0.950 . S
C469 C466 1.387 . S
C470 C471 1.387 . S
C470 H474 0.950 . S
C470 C479 1.390 . S
C471 C470 1.387 . S
C471 C473 1.387 . S
H472 C479 0.950 . S
C473 C471 1.387 . S
C473 C475 1.390 . S
C473 H477 0.950 . S
H474 C470 0.950 . S
C475 C473 1.390 . S
C475 C476 1.387 . S
C475 H478 0.950 . S
C476 C475 1.387 . S
C476 C479 1.387 . S
H477 C473 0.950 . S
H478 C475 0.950 . S
C479 C470 1.390 . S
C479 H472 0.950 . S
C479 C476 1.387 . S
C480 C481 1.387 . S
C480 H484 0.950 . S
C480 C489 1.390 . S
C481 C480 1.387 . S
C481 C483 1.387 . S
H482 C489 0.950 . S
C483 C481 1.387 . S
C483 C485 1.390 . S
C483 H487 0.950 . S
H484 C480 0.950 . S
C485 C483 1.390 . S
C485 C486 1.387 . S
C485 H488 0.950 . S
C486 C485 1.387 . S
C486 C489 1.387 . S
H487 C483 0.950 . S
H488 C485 0.950 . S
C489 C480 1.390 . S
C489 H482 0.950 . S
C489 C486 1.387 . S
C490 C491 1.387 . S
C490 H494 0.950 . S
C490 C499 1.390 . S
C491 C490 1.387 . S
C491 C493 1.387 . S
H492 C499 0.950 . S
C493 C491 1.387 . S
C493 C495 1.390 . S
C493 H497 0.950 . S
H494 C490 0.950 . S
C495 C493 1.390 . S
C495 C496 1.387 . S
C495 H498 0.950 . S
C496 C495 1.387 . S
C496 C499 1.387 . S
H497 C493 0.950 . S
H498 C495 0.950 . S
C499 C490 1.390 . S
C499 H492 0.950 . S
C499 C496 1.387 . S
C500 C501 1.387 . S
C500 H504 0.950 . S
C500 C509 1.390 . S
C501 C500 1.387 . S
C501 C503 1.387 . S
H502 C509 0.950 . S
C503 C501 1.387 . S
C503 C505 1.390 . S
C503 H507 0.950 . S
H504 C500 0.950 . S
C505 C503 1.390 . S
C505 C506 1.387 . S
C505 H508 0.950 . S
C506 C505 1.387 . S
C506 C509 1.387 . S
H507 C503 0.950 . S
H508 C505 0.950 . S
C509 C500 1.390 . S
C509 H502 0.950 . S
C509 C506 1.387 . S
C510 C511 1.387 . S
C510 H514 0.950 . S
C510 C519 1.390 . S
C511 C510 1.387 . S
C511 C513 1.387 . S
H512 C519 0.950 . S
C513 C511 1.387 . S
C513 C515 1.390 . S
C513 H517 0.950 . S
H514 C510 0.950 . S
C515 C513 1.390 . S
C515 C516 1.387 . S
C515 H518 0.950 . S
C516 C515 1.387 . S
C516 C519 1.387 . S
H517 C513 0.950 . S
H518 C515 0.950 . S
C519 C510 1.390 . S
C519 H512 0.950 . S
C519 C516 1.387 . S
C520 C521 1.387 . S
C520 H524 0.950 . S
C520 C529 1.390 . S
C521 C520 1.387 . S
C521 C523 1.387 . S
H522 C529 0.950 . S
C523 C521 1.387 . S
C523 C525 1.390 . S
C523 H527 0.950 . S
H524 C520 0.950 . S
C525 C523 1.390 . S
C525 C526 1.387 . S
C525 H528 0.950 . S
C526 C525 1.387 . S
C526 C529 1.387 . S
H527 C523 0.950 . S
H528 C525 0.950 . S
C529 C520 1.390 . S
C529 H522 0.950 . S
C529 C526 1.387 . S
C530 C531 1.387 . S
C530 H534 0.950 . S
C530 C539 1.390 . S
C531 C530 1.387 . S
C531 C533 1.387 . S
H532 C539 0.950 . S
C533 C531 1.387 . S
C533 C535 1.390 . S
C533 H537 0.950 . S
H534 C530 0.950 . S
C535 C533 1.390 . S
C535 C536 1.387 . S
C535 H538 0.950 . S
C536 C535 1.387 . S
C536 C539 1.387 . S
H537 C533 0.950 . S
H538 C535 0.950 . S
C539 C530 1.390 . S
C539 H532 0.950 . S
C539 C536 1.387 . S
C540 C541 1.387 . S
C540 H544 0.950 . S
C540 C549 1.390 1_566 S
C541 C540 1.387 . S
C541 C543 1.387 . S
H542 C549 0.950 . S
C543 C541 1.387 . S
C543 C545 1.390 1_566 S
C543 H547 0.950 . S
H544 C540 0.950 . S
C545 C543 1.390 1_544 S
C545 C546 1.387 . S
C545 H548 0.950 . S
C546 C545 1.387 . S
C546 C549 1.387 . S
H547 C543 0.950 . S
H548 C545 0.950 . S
C549 C540 1.390 1_544 S
C549 H542 0.950 . S
C549 C546 1.387 . S
C550 C551 1.387 . S
C550 H554 0.950 . S
C550 C559 1.390 . S
C551 C550 1.387 . S
C551 C553 1.387 . S
H552 C559 0.950 . S
C553 C551 1.387 . S
C553 C555 1.390 . S
C553 H557 0.950 . S
H554 C550 0.950 . S
C555 C553 1.390 . S
C555 C556 1.387 . S
C555 H558 0.950 . S
C556 C555 1.387 . S
C556 C559 1.387 . S
H557 C553 0.950 . S
H558 C555 0.950 . S
C559 C550 1.390 . S
C559 H552 0.950 . S
C559 C556 1.387 . S
C560 C561 1.387 1_554 S
C560 H564 0.950 . S
C560 C569 1.390 . S
C561 C560 1.387 1_556 S
C561 C563 1.387 1_455 S
H562 C569 0.950 . S
C563 C561 1.387 1_655 S
C563 C565 1.390 . S
C563 H567 0.950 . S
H564 C560 0.950 . S
C565 C563 1.390 . S
C565 C566 1.387 1_556 S
C565 H568 0.950 . S
C566 C565 1.387 1_554 S
C566 C569 1.387 1_655 S
H567 C563 0.950 . S
H568 C565 0.950 . S
C569 C560 1.390 . S
C569 H562 0.950 . S
C569 C566 1.387 1_455 S
C570 C571 1.387 . S
C570 H574 0.950 . S
C570 C579 1.390 1_545 S
C571 C570 1.387 . S
C571 C573 1.387 . S
H572 C579 0.950 . S
C573 C571 1.387 . S
C573 C575 1.390 1_545 S
C573 H577 0.950 . S
H574 C570 0.950 . S
C575 C573 1.390 1_565 S
C575 C576 1.387 . S
C575 H578 0.950 . S
C576 C575 1.387 . S
C576 C579 1.387 . S
H577 C573 0.950 . S
H578 C575 0.950 . S
C579 C570 1.390 1_565 S
C579 H572 0.950 . S
C579 C576 1.387 . S
C580 C581 1.387 . S
C580 H584 0.950 . S
C580 C589 1.390 1_554 S
C581 C580 1.387 . S
C581 C583 1.387 . S
H582 C589 0.950 . S
C583 C581 1.387 . S
C583 C585 1.390 1_554 S
C583 H587 0.950 . S
H584 C580 0.950 . S
C585 C583 1.390 1_556 S
C585 C586 1.387 . S
C585 H588 0.950 . S
C586 C585 1.387 . S
C586 C589 1.387 . S
H587 C583 0.950 . S
H588 C585 0.950 . S
C589 C580 1.390 1_556 S
C589 H582 0.950 . S
C589 C586 1.387 . S
C590 C591 1.387 . S
C590 H594 0.950 . S
C590 C599 1.390 1_455 S
C591 C590 1.387 . S
C591 C593 1.387 . S
H592 C599 0.950 . S
C593 C591 1.387 . S
C593 C595 1.390 1_455 S
C593 H597 0.950 . S
H594 C590 0.950 . S
C595 C593 1.390 1_655 S
C595 C596 1.387 . S
C595 H598 0.950 . S
C596 C595 1.387 . S
C596 C599 1.387 . S
H597 C593 0.950 . S
H598 C595 0.950 . S
C599 C590 1.390 1_655 S
C599 H592 0.950 . S
C599 C596 1.387 . S
C600 C601 1.387 . S
C600 H604 0.950 . S
C600 C609 1.390 . S
C601 C600 1.387 . S
C601 C603 1.387 . S
H602 C609 0.950 . S
C603 C601 1.387 . S
C603 C605 1.390 . S
C603 H607 0.950 . S
H604 C600 0.950 . S
C605 C603 1.390 . S
C605 C606 1.387 . S
C605 H608 0.950 . S
C606 C605 1.387 . S
C606 C609 1.387 . S
H607 C603 0.950 . S
H608 C605 0.950 . S
C609 C600 1.390 . S
C609 H602 0.950 . S
C609 C606 1.387 . S
C610 C611 1.387 . S
C610 H614 0.950 . S
C610 C619 1.390 . S
C611 C610 1.387 . S
C611 C613 1.387 . S
H612 C619 0.950 . S
C613 C611 1.387 . S
C613 C615 1.390 . S
C613 H617 0.950 . S
H614 C610 0.950 . S
C615 C613 1.390 . S
C615 C616 1.387 . S
C615 H618 0.950 . S
C616 C615 1.387 . S
C616 C619 1.387 . S
H617 C613 0.950 . S
H618 C615 0.950 . S
C619 C610 1.390 . S
C619 H612 0.950 . S
C619 C616 1.387 . S
C620 C621 1.387 . S
C620 H624 0.950 . S
C620 C629 1.390 . S
C621 C620 1.387 . S
C621 C623 1.387 . S
H622 C629 0.950 . S
C623 C621 1.387 . S
C623 C625 1.390 . S
C623 H627 0.950 . S
H624 C620 0.950 . S
C625 C623 1.390 . S
C625 C626 1.387 . S
C625 H628 0.950 . S
C626 C625 1.387 . S
C626 C629 1.387 . S
H627 C623 0.950 . S
H628 C625 0.950 . S
C629 C620 1.390 . S
C629 H622 0.950 . S
C629 C626 1.387 . S
C630 C631 1.387 . S
C630 H634 0.950 . S
C630 C639 1.390 . S
C631 C630 1.387 . S
C631 C633 1.387 . S
H632 C639 0.950 . S
C633 C631 1.387 . S
C633 C635 1.390 . S
C633 H637 0.950 . S
H634 C630 0.950 . S
C635 C633 1.390 . S
C635 C636 1.387 . S
C635 H638 0.950 . S
C636 C635 1.387 . S
C636 C639 1.387 . S
H637 C633 0.950 . S
H638 C635 0.950 . S
C639 C630 1.390 . S
C639 H632 0.950 . S
C639 C636 1.387 . S
C640 C641 1.387 . S
C640 H644 0.950 . S
C640 C649 1.390 . S
C641 C640 1.387 . S
C641 C643 1.387 . S
H642 C649 0.950 . S
C643 C641 1.387 . S
C643 C645 1.390 . S
C643 H647 0.950 . S
H644 C640 0.950 . S
C645 C643 1.390 . S
C645 C646 1.387 . S
C645 H648 0.950 . S
C646 C645 1.387 . S
C646 C649 1.387 . S
H647 C643 0.950 . S
H648 C645 0.950 . S
C649 C640 1.390 . S
C649 H642 0.950 . S
C649 C646 1.387 . S
C650 C651 1.387 . S
C650 H654 0.950 . S
C650 C659 1.390 . S
C651 C650 1.387 . S
C651 C653 1.387 . S
H652 C659 0.950 . S
C653 C651 1.387 . S
C653 C655 1.390 . S
C653 H657 0.950 . S
H654 C650 0.950 . S
C655 C653 1.390 . S
C655 C656 1.387 . S
C655 H658 0.950 . S
C656 C655 1.387 . S
C656 C659 1.387 . S
H657 C653 0.950 . S
H658 C655 0.950 . S
C659 C650 1.390 . S
C659 H652 0.950 . S
C659 C656 1.387 . S
C660 C661 1.387 . S
C660 H664 0.950 . S
C660 C669 1.390 . S
C661 C660 1.387 . S
C661 C663 1.387 . S
H662 C669 0.950 . S
C663 C661 1.387 . S
C663 C665 1.390 . S
C663 H667 0.950 . S
H664 C660 0.950 . S
C665 C663 1.390 . S
C665 C666 1.387 . S
C665 H668 0.950 . S
C666 C665 1.387 . S
C666 C669 1.387 . S
H667 C663 0.950 . S
H668 C665 0.950 . S
C669 C660 1.390 . S
C669 H662 0.950 . S
C669 C666 1.387 . S
C670 C671 1.387 . S
C670 H674 0.950 . S
C670 C679 1.390 . S
C671 C670 1.387 . S
C671 C673 1.387 . S
H672 C679 0.950 . S
C673 C671 1.387 . S
C673 C675 1.390 . S
C673 H677 0.950 . S
H674 C670 0.950 . S
C675 C673 1.390 . S
C675 C676 1.387 . S
C675 H678 0.950 . S
C676 C675 1.387 . S
C676 C679 1.387 . S
H677 C673 0.950 . S
H678 C675 0.950 . S
C679 C670 1.390 . S
C679 H672 0.950 . S
C679 C676 1.387 . S
C680 C681 1.387 . S
C680 H684 0.950 . S
C680 C689 1.390 . S
C681 C680 1.387 . S
C681 C683 1.387 . S
H682 C689 0.950 . S
C683 C681 1.387 . S
C683 C685 1.390 . S
C683 H687 0.950 . S
H684 C680 0.950 . S
C685 C683 1.390 . S
C685 C686 1.387 . S
C685 H688 0.950 . S
C686 C685 1.387 . S
C686 C689 1.387 . S
H687 C683 0.950 . S
H688 C685 0.950 . S
C689 C680 1.390 . S
C689 H682 0.950 . S
C689 C686 1.387 . S
C690 C691 1.387 . S
C690 H694 0.950 . S
C690 C699 1.390 . S
C691 C690 1.387 . S
C691 C693 1.387 . S
H692 C699 0.950 . S
C693 C691 1.387 . S
C693 C695 1.390 . S
C693 H697 0.950 . S
H694 C690 0.950 . S
C695 C693 1.390 . S
C695 C696 1.387 . S
C695 H698 0.950 . S
C696 C695 1.387 . S
C696 C699 1.387 . S
H697 C693 0.950 . S
H698 C695 0.950 . S
C699 C690 1.390 . S
C699 H692 0.950 . S
C699 C696 1.387 . S
C700 C701 1.387 . S
C700 H704 0.950 . S
C700 C709 1.390 . S
C701 C700 1.387 . S
C701 C703 1.387 . S
H702 C709 0.950 . S
C703 C701 1.387 . S
C703 C705 1.390 . S
C703 H707 0.950 . S
H704 C700 0.950 . S
C705 C703 1.390 . S
C705 C706 1.387 . S
C705 H708 0.950 . S
C706 C705 1.387 . S
C706 C709 1.387 . S
H707 C703 0.950 . S
H708 C705 0.950 . S
C709 C700 1.390 . S
C709 H702 0.950 . S
C709 C706 1.387 . S
C710 C711 1.387 . S
C710 H714 0.950 . S
C710 C719 1.390 . S
C711 C710 1.387 . S
C711 C713 1.387 . S
H712 C719 0.950 . S
C713 C711 1.387 . S
C713 C715 1.390 . S
C713 H717 0.950 . S
H714 C710 0.950 . S
C715 C713 1.390 . S
C715 C716 1.387 . S
C715 H718 0.950 . S
C716 C715 1.387 . S
C716 C719 1.387 . S
H717 C713 0.950 . S
H718 C715 0.950 . S
C719 C710 1.390 . S
C719 H712 0.950 . S
C719 C716 1.387 . S
C361 C76 1.008 1_455 S
C366 N6 0.987 . S
C371 N96 1.225 . S
C376 C46 1.230 . S
C381 N66 0.982 . S
C386 C136 1.004 . S
C391 C106 1.227 . S
C396 N156 1.222 . S
C401 C16 1.007 1_565 S
C406 N126 0.985 . S
C411 N36 1.224 . S
C416 C166 1.228 . S
C421 C327 1.003 1_545 S
C426 N194 0.980 . S
C431 N216 0.986 . S
C436 C346 1.008 . S
C441 N254 0.981 . S
C446 C207 1.003 1_655 S
C451 N276 0.985 . S
C456 C226 1.006 1_545 S
C461 N314 0.986 . S
C466 C267 1.007 . S
C471 C286 1.008 1_655 S
C476 N336 0.986 . S
C481 C91 1.665 . S
C486 C1 1.649 . S
C491 C31 1.665 . S
C496 C121 1.648 . S
C501 C61 1.650 . S
C506 C151 1.665 . S
C511 C190 1.649 . S
C516 C271 1.650 . S
C521 C211 1.650 . S
C526 C310 1.649 . S
C531 C250 1.649 . S
C536 C331 1.650 . S
C541 C220 2.047 . S
C546 C10 2.047 . S
C551 C40 1.951 . S
C556 C241 2.048 . S
C561 C280 2.046 . S
C566 C70 2.046 . S
C571 C100 1.948 . S
C576 C301 2.046 . S
C581 C130 2.047 . S
C586 C340 2.047 . S
C591 C181 2.046 . S
C596 C160 1.949 . S
C601 C87 1.442 . S
C606 N14 1.392 . S
C611 C57 1.272 . S
C616 N104 1.302 . S
C621 N74 1.392 . S
C626 C147 1.441 . S
C631 C117 1.269 . S
C636 N164 1.300 . S
C641 C27 1.442 . S
C646 N134 1.393 . S
C651 N44 1.302 . S
C656 C177 1.271 . S
C661 C316 1.441 . S
C666 N186 1.392 . S
C671 N224 1.391 . S
C676 C357 1.441 . S
C681 N246 1.390 . S
C686 C196 1.440 . S
C691 C237 1.440 . S
C696 N284 1.391 . S
C701 N306 1.390 . S
C706 C256 1.440 . S
C711 N344 1.389 . S
C716 C297 1.439 . S
