# Generated by pormake.
# Topology umk, (4)-cn, num edge types: 1
# Building blocks:
#     Node 0, Type 0, BuildingBlock: UXUYUI_clean_sbu_0, # of connection points: 4
#     Node 1, Type 0, BuildingBlock: UXUYUI_clean_sbu_0, # of connection points: 4
#     Node 2, Type 0, BuildingBlock: UXUYUI_clean_sbu_0, # of connection points: 4
#     Node 3, Type 0, BuildingBlock: UXUYUI_clean_sbu_0, # of connection points: 4
#     Node 4, Type 0, BuildingBlock: UXUYUI_clean_sbu_0, # of connection points: 4
#     Node 5, Type 0, BuildingBlock: UXUYUI_clean_sbu_0, # of connection points: 4
#     Node 6, Type 0, BuildingBlock: UXUYUI_clean_sbu_0, # of connection points: 4
#     Node 7, Type 0, BuildingBlock: UXUYUI_clean_sbu_0, # of connection points: 4
#     Node 8, Type 0, BuildingBlock: UXUYUI_clean_sbu_0, # of connection points: 4
#     Node 9, Type 0, BuildingBlock: UXUYUI_clean_sbu_0, # of connection points: 4
#     Node 10, Type 0, BuildingBlock: UXUYUI_clean_sbu_0, # of connection points: 4
#     Node 11, Type 0, BuildingBlock: UXUYUI_clean_sbu_0, # of connection points: 4
#     Node 12, Type 0, BuildingBlock: UXUYUI_clean_sbu_0, # of connection points: 4
#     Node 13, Type 0, BuildingBlock: UXUYUI_clean_sbu_0, # of connection points: 4
#     Node 14, Type 0, BuildingBlock: UXUYUI_clean_sbu_0, # of connection points: 4
#     Node 15, Type 0, BuildingBlock: UXUYUI_clean_sbu_0, # of connection points: 4
#     Node 16, Type 0, BuildingBlock: UXUYUI_clean_sbu_0, # of connection points: 4
#     Node 17, Type 0, BuildingBlock: UXUYUI_clean_sbu_0, # of connection points: 4
#     Node 18, Type 0, BuildingBlock: UXUYUI_clean_sbu_0, # of connection points: 4
#     Node 19, Type 0, BuildingBlock: UXUYUI_clean_sbu_0, # of connection points: 4
#     Node 20, Type 0, BuildingBlock: UXUYUI_clean_sbu_0, # of connection points: 4
#     Node 21, Type 0, BuildingBlock: UXUYUI_clean_sbu_0, # of connection points: 4
#     Node 22, Type 0, BuildingBlock: UXUYUI_clean_sbu_0, # of connection points: 4
#     Node 23, Type 0, BuildingBlock: UXUYUI_clean_sbu_0, # of connection points: 4
#     Edge 24, Type (0, 0), BuildingBlock: CIFDUS_clean_linker_0, # of connection points: 2
#     Edge 25, Type (0, 0), BuildingBlock: CIFDUS_clean_linker_0, # of connection points: 2
#     Edge 26, Type (0, 0), BuildingBlock: CIFDUS_clean_linker_0, # of connection points: 2
#     Edge 27, Type (0, 0), BuildingBlock: CIFDUS_clean_linker_0, # of connection points: 2
#     Edge 28, Type (0, 0), BuildingBlock: CIFDUS_clean_linker_0, # of connection points: 2
#     Edge 29, Type (0, 0), BuildingBlock: CIFDUS_clean_linker_0, # of connection points: 2
#     Edge 30, Type (0, 0), BuildingBlock: CIFDUS_clean_linker_0, # of connection points: 2
#     Edge 31, Type (0, 0), BuildingBlock: CIFDUS_clean_linker_0, # of connection points: 2
#     Edge 32, Type (0, 0), BuildingBlock: CIFDUS_clean_linker_0, # of connection points: 2
#     Edge 33, Type (0, 0), BuildingBlock: CIFDUS_clean_linker_0, # of connection points: 2
#     Edge 34, Type (0, 0), BuildingBlock: CIFDUS_clean_linker_0, # of connection points: 2
#     Edge 35, Type (0, 0), BuildingBlock: CIFDUS_clean_linker_0, # of connection points: 2
#     Edge 36, Type (0, 0), BuildingBlock: CIFDUS_clean_linker_0, # of connection points: 2
#     Edge 37, Type (0, 0), BuildingBlock: CIFDUS_clean_linker_0, # of connection points: 2
#     Edge 38, Type (0, 0), BuildingBlock: CIFDUS_clean_linker_0, # of connection points: 2
#     Edge 39, Type (0, 0), BuildingBlock: CIFDUS_clean_linker_0, # of connection points: 2
#     Edge 40, Type (0, 0), BuildingBlock: CIFDUS_clean_linker_0, # of connection points: 2
#     Edge 41, Type (0, 0), BuildingBlock: CIFDUS_clean_linker_0, # of connection points: 2
#     Edge 42, Type (0, 0), BuildingBlock: CIFDUS_clean_linker_0, # of connection points: 2
#     Edge 43, Type (0, 0), BuildingBlock: CIFDUS_clean_linker_0, # of connection points: 2
#     Edge 44, Type (0, 0), BuildingBlock: CIFDUS_clean_linker_0, # of connection points: 2
#     Edge 45, Type (0, 0), BuildingBlock: CIFDUS_clean_linker_0, # of connection points: 2
#     Edge 46, Type (0, 0), BuildingBlock: CIFDUS_clean_linker_0, # of connection points: 2
#     Edge 47, Type (0, 0), BuildingBlock: CIFDUS_clean_linker_0, # of connection points: 2
#     Edge 48, Type (0, 0), BuildingBlock: CIFDUS_clean_linker_0, # of connection points: 2
#     Edge 49, Type (0, 0), BuildingBlock: CIFDUS_clean_linker_0, # of connection points: 2
#     Edge 50, Type (0, 0), BuildingBlock: CIFDUS_clean_linker_0, # of connection points: 2
#     Edge 51, Type (0, 0), BuildingBlock: CIFDUS_clean_linker_0, # of connection points: 2
#     Edge 52, Type (0, 0), BuildingBlock: CIFDUS_clean_linker_0, # of connection points: 2
#     Edge 53, Type (0, 0), BuildingBlock: CIFDUS_clean_linker_0, # of connection points: 2
#     Edge 54, Type (0, 0), BuildingBlock: CIFDUS_clean_linker_0, # of connection points: 2
#     Edge 55, Type (0, 0), BuildingBlock: CIFDUS_clean_linker_0, # of connection points: 2
#     Edge 56, Type (0, 0), BuildingBlock: CIFDUS_clean_linker_0, # of connection points: 2
#     Edge 57, Type (0, 0), BuildingBlock: CIFDUS_clean_linker_0, # of connection points: 2
#     Edge 58, Type (0, 0), BuildingBlock: CIFDUS_clean_linker_0, # of connection points: 2
#     Edge 59, Type (0, 0), BuildingBlock: CIFDUS_clean_linker_0, # of connection points: 2
#     Edge 60, Type (0, 0), BuildingBlock: CIFDUS_clean_linker_0, # of connection points: 2
#     Edge 61, Type (0, 0), BuildingBlock: CIFDUS_clean_linker_0, # of connection points: 2
#     Edge 62, Type (0, 0), BuildingBlock: CIFDUS_clean_linker_0, # of connection points: 2
#     Edge 63, Type (0, 0), BuildingBlock: CIFDUS_clean_linker_0, # of connection points: 2
#     Edge 64, Type (0, 0), BuildingBlock: CIFDUS_clean_linker_0, # of connection points: 2
#     Edge 65, Type (0, 0), BuildingBlock: CIFDUS_clean_linker_0, # of connection points: 2
#     Edge 66, Type (0, 0), BuildingBlock: CIFDUS_clean_linker_0, # of connection points: 2
#     Edge 67, Type (0, 0), BuildingBlock: CIFDUS_clean_linker_0, # of connection points: 2
#     Edge 68, Type (0, 0), BuildingBlock: CIFDUS_clean_linker_0, # of connection points: 2
#     Edge 69, Type (0, 0), BuildingBlock: CIFDUS_clean_linker_0, # of connection points: 2
#     Edge 70, Type (0, 0), BuildingBlock: CIFDUS_clean_linker_0, # of connection points: 2
#     Edge 71, Type (0, 0), BuildingBlock: CIFDUS_clean_linker_0, # of connection points: 2
# Relax obj value: 0.190
# Max RMSD: 0.162
# Mean RMSD: 0.162
data_MOF--net-umk--node1-UXUYUI_clean_sbu_0--edge1-CIFDUS_clean_linker_0
_symmetry_space_group_name_H-M    P1
_symmetry_Int_Tables_number       1
_symmetry_cell_setting            triclinic
loop_
_symmetry_equiv_pos_as_xyz
'x, y, z'
_cell_length_a     88.918169
_cell_length_b     88.909396
_cell_length_c     56.768708
_cell_angle_alpha  90.004056
_cell_angle_beta   90.001608
_cell_angle_gamma 120.00814
loop_
_atom_site_label
_atom_site_type_symbol
_atom_site_fract_x
_atom_site_fract_y
_atom_site_fract_z
_atom_type_partial_charge
Li0 Li 0.32864 0.45539 0.08958 0.0
Li1 Li 0.33359 0.4409 0.05613 0.0
Li2 Li 0.3416 0.47165 0.05366 0.0
Li3 Li 0.3111 0.44816 0.05409 0.0
C4 C 0.36145 0.46351 0.0935 0.0
N5 N 0.38177 0.4685 0.13276 0.0
C6 C 0.36339 0.44988 0.10225 0.0
C7 C 0.36997 0.47971 0.10456 0.0
C8 C 0.3737 0.45266 0.12215 0.0
C9 C 0.38015 0.48196 0.12444 0.0
C10 C 0.29608 0.41985 0.07934 0.0
C11 C 0.27015 0.39425 0.0661 0.0
N12 N 0.26112 0.39613 0.0841 0.0
C13 C 0.28659 0.42149 0.09778 0.0
C14 C 0.28786 0.40609 0.06343 0.0
C15 C 0.26891 0.40937 0.09987 0.0
C16 C 0.32717 0.46882 0.1345 0.0
N17 N 0.32822 0.45599 0.12293 0.0
C18 C 0.32757 0.44215 0.15926 0.0
C19 C 0.32833 0.44275 0.13472 0.0
C20 C 0.32654 0.45525 0.17175 0.0
C21 C 0.32639 0.46874 0.15905 0.0
H22 H 0.32667 0.47895 0.12468 0.0
H23 H 0.32891 0.43259 0.12499 0.0
C24 C 0.35693 0.43244 0.03596 0.0
N25 N 0.34204 0.42572 0.04871 0.0
C26 C 0.36553 0.4231 0.03314 0.0
C27 C 0.34342 0.40008 0.05687 0.0
C28 C 0.33499 0.40974 0.05877 0.0
C29 C 0.35917 0.40695 0.0444 0.0
H30 H 0.36255 0.44541 0.02882 0.0
H31 H 0.32338 0.40495 0.06937 0.0
C32 C 0.32403 0.48652 0.07115 0.0
N33 N 0.32881 0.51966 0.06816 0.0
C34 C 0.31301 0.48973 0.05712 0.0
C35 C 0.33747 0.50017 0.08365 0.0
C36 C 0.31563 0.50657 0.05586 0.0
C37 C 0.33969 0.51683 0.08189 0.0
C38 C 0.33308 0.44728 0.01023 0.0
C39 C 0.34744 0.45866 0.99667 0.0
C40 C 0.3232 0.42984 0.00363 0.0
C41 C 0.3518 0.45233 0.97684 0.0
C42 C 0.328 0.42401 0.98369 0.0
N43 N 0.34208 0.43529 0.97083 0.0
C44 C 0.37544 0.49638 0.04244 0.0
C45 C 0.35513 0.50441 0.02945 0.0
C46 C 0.38911 0.51142 0.03276 0.0
N47 N 0.35887 0.49321 0.0408 0.0
C48 C 0.36846 0.51986 0.01998 0.0
C49 C 0.38579 0.52355 0.02147 0.0
H50 H 0.37803 0.48701 0.05089 0.0
H51 H 0.34181 0.50133 0.02757 0.0
C52 C 0.27815 0.44456 0.05748 0.0
N53 N 0.28846 0.44135 0.04316 0.0
C54 C 0.2618 0.44101 0.04985 0.0
C55 C 0.26671 0.43027 0.0132 0.0
C56 C 0.28304 0.43415 0.0215 0.0
C57 C 0.25596 0.434 0.02728 0.0
H58 H 0.28288 0.45037 0.07459 0.0
H59 H 0.29151 0.43173 0.01051 0.0
O60 O 0.35113 0.46096 0.07433 0.0
O61 O 0.31328 0.43181 0.07666 0.0
O62 O 0.32163 0.4701 0.07269 0.0
O63 O 0.32869 0.45321 0.02978 0.0
H64 H 0.35686 0.43725 0.09393 0.0
H65 H 0.36869 0.49042 0.09791 0.0
H66 H 0.37523 0.4422 0.12921 0.0
H67 H 0.38675 0.49441 0.13325 0.0
H68 H 0.26358 0.38359 0.05385 0.0
H69 H 0.29276 0.43212 0.11018 0.0
H70 H 0.29505 0.40465 0.04908 0.0
H71 H 0.26137 0.41053 0.11397 0.0
H72 H 0.32786 0.43159 0.16835 0.0
H73 H 0.3253 0.47892 0.16797 0.0
H74 H 0.37742 0.42881 0.02296 0.0
H75 H 0.33813 0.38784 0.06617 0.0
H76 H 0.30266 0.47939 0.04712 0.0
H77 H 0.3462 0.49796 0.09444 0.0
H78 H 0.30723 0.50925 0.04504 0.0
H79 H 0.35008 0.52752 0.0914 0.0
H80 H 0.35517 0.47222 0.00145 0.0
H81 H 0.3121 0.42085 0.01398 0.0
H82 H 0.36291 0.46098 0.96623 0.0
H83 H 0.32055 0.41052 0.97848 0.0
H84 H 0.40208 0.51327 0.03373 0.0
H85 H 0.36517 0.52877 0.01162 0.0
H86 H 0.25412 0.44437 0.06118 0.0
H87 H 0.26265 0.42465 0.99582 0.0
Li88 Li 0.89184 0.33413 0.56109 0.0
Li89 Li 0.87316 0.33158 0.59392 0.0
Li90 Li 0.86187 0.31819 0.55555 0.0
Li91 Li 0.87448 0.34891 0.55803 0.0
C92 C 0.88498 0.30496 0.5802 0.0
N93 N 0.9059 0.29024 0.58311 0.0
C94 C 0.89379 0.30609 0.6011 0.0
C95 C 0.8866 0.29611 0.56091 0.0
C96 C 0.90436 0.29863 0.6022 0.0
C97 C 0.89729 0.28882 0.56269 0.0
C98 C 0.89774 0.36753 0.59405 0.0
C99 C 0.88987 0.38476 0.61838 0.0
N100 N 0.90694 0.39705 0.6203 0.0
C101 C 0.91519 0.38031 0.59625 0.0
C102 C 0.88495 0.36974 0.60519 0.0
C103 C 0.91958 0.39515 0.6096 0.0
C104 C 0.91993 0.33694 0.53324 0.0
N105 N 0.91433 0.33766 0.55526 0.0
C106 C 0.94259 0.34762 0.57118 0.0
C107 C 0.92517 0.34267 0.57412 0.0
C108 C 0.94897 0.3476 0.54855 0.0
C109 C 0.93732 0.34185 0.52946 0.0
H110 H 0.91107 0.33315 0.51852 0.0
H111 H 0.92037 0.34342 0.59134 0.0
C112 C 0.85704 0.32507 0.63941 0.0
N113 N 0.87223 0.33134 0.62737 0.0
C114 C 0.85712 0.32567 0.66401 0.0
C115 C 0.88844 0.33951 0.66325 0.0
C116 C 0.88775 0.33846 0.63874 0.0
C117 C 0.87299 0.33305 0.67618 0.0
H118 H 0.84491 0.31982 0.62998 0.0
H119 H 0.89963 0.34343 0.62868 0.0
C120 C 0.8731 0.33027 0.51163 0.0
N121 N 0.86055 0.31871 0.46677 0.0
C122 C 0.86551 0.33814 0.49871 0.0
C123 C 0.8745 0.31667 0.5016 0.0
C124 C 0.8592 0.33208 0.47609 0.0
C125 C 0.86801 0.31096 0.47894 0.0
C126 C 0.83641 0.3214 0.57414 0.0
C127 C 0.82672 0.32646 0.56025 0.0
C128 C 0.82806 0.30541 0.58579 0.0
C129 C 0.8088 0.3154 0.55824 0.0
C130 C 0.81012 0.2947 0.58329 0.0
N131 N 0.80094 0.29988 0.56968 0.0
C132 C 0.83946 0.28206 0.54747 0.0
C133 C 0.83326 0.3005 0.52445 0.0
C134 C 0.82517 0.26737 0.53793 0.0
N135 N 0.84319 0.29822 0.54065 0.0
C136 C 0.81902 0.28625 0.51427 0.0
C137 C 0.81465 0.26937 0.52116 0.0
H138 H 0.84733 0.28057 0.56077 0.0
H139 H 0.83612 0.31343 0.51979 0.0
C140 C 0.88707 0.37933 0.53153 0.0
N141 N 0.87497 0.36937 0.54782 0.0
C142 C 0.88766 0.39429 0.52283 0.0
C143 C 0.86367 0.38872 0.54843 0.0
C144 C 0.86353 0.37384 0.5566 0.0
C145 C 0.87575 0.39906 0.53113 0.0
H146 H 0.89612 0.3755 0.52511 0.0
H147 H 0.85423 0.36579 0.56984 0.0
O148 O 0.87488 0.31252 0.57859 0.0
O149 O 0.89328 0.35294 0.58103 0.0
O150 O 0.8794 0.33608 0.53379 0.0
O151 O 0.85402 0.3319 0.57597 0.0
H152 H 0.89258 0.31275 0.61627 0.0
H153 H 0.87969 0.29491 0.54472 0.0
H154 H 0.91136 0.29952 0.61821 0.0
H155 H 0.89875 0.28203 0.54783 0.0
H156 H 0.88012 0.38664 0.6271 0.0
H157 H 0.92523 0.37877 0.58773 0.0
H158 H 0.87138 0.35996 0.60372 0.0
H159 H 0.93304 0.40516 0.61147 0.0
H160 H 0.95114 0.35228 0.58631 0.0
H161 H 0.94172 0.3416 0.51175 0.0
H162 H 0.84494 0.32075 0.6734 0.0
H163 H 0.90092 0.34518 0.672 0.0
H164 H 0.86425 0.34864 0.50618 0.0
H165 H 0.88046 0.31052 0.51121 0.0
H166 H 0.85318 0.33796 0.46598 0.0
H167 H 0.86891 0.30036 0.47104 0.0
H168 H 0.83299 0.33866 0.55082 0.0
H169 H 0.83542 0.30113 0.59621 0.0
H170 H 0.80115 0.31911 0.54746 0.0
H171 H 0.80351 0.28223 0.59204 0.0
H172 H 0.82214 0.25464 0.54412 0.0
H173 H 0.81147 0.28849 0.50122 0.0
H174 H 0.89737 0.40206 0.5098 0.0
H175 H 0.8542 0.39187 0.55521 0.0
Li176 Li 0.55842 0.89472 0.06571 0.0
Li177 Li 0.54327 0.87529 0.09857 0.0
Li178 Li 0.54839 0.86449 0.06178 0.0
Li179 Li 0.52723 0.87421 0.06385 0.0
C180 C 0.57653 0.8743 0.08647 0.0
N181 N 0.59701 0.85911 0.08961 0.0
C182 C 0.5749 0.86383 0.10577 0.0
C183 C 0.58864 0.87713 0.06883 0.0
C184 C 0.58538 0.85626 0.10703 0.0
C185 C 0.59884 0.8693 0.07071 0.0
C186 C 0.53871 0.90201 0.10521 0.0
C187 C 0.52333 0.90242 0.13998 0.0
N188 N 0.5374 0.91769 0.14658 0.0
C189 C 0.553 0.91774 0.11229 0.0
C190 C 0.52372 0.89431 0.1191 0.0
C191 C 0.55208 0.92546 0.13327 0.0
C192 C 0.57024 0.92875 0.05135 0.0
N193 N 0.57574 0.91771 0.05842 0.0
C194 C 0.60521 0.9408 0.05922 0.0
C195 C 0.59283 0.92327 0.06214 0.0
C196 C 0.59986 0.95261 0.05253 0.0
C197 C 0.58213 0.94632 0.04819 0.0
H198 H 0.55651 0.92398 0.04906 0.0
H199 H 0.59678 0.91423 0.06812 0.0
C200 C 0.53031 0.8597 0.14334 0.0
N201 N 0.54313 0.87362 0.13187 0.0
C202 C 0.53047 0.85883 0.1679 0.0
C203 C 0.55705 0.88661 0.16824 0.0
C204 C 0.55648 0.88681 0.14371 0.0
C205 C 0.54393 0.87247 0.18072 0.0
H206 H 0.52002 0.84923 0.13342 0.0
H207 H 0.56664 0.89759 0.13404 0.0
C208 C 0.55121 0.89062 0.0209 0.0
N209 N 0.56458 0.9149 0.98512 0.0
C210 C 0.5414 0.89752 0.01157 0.0
C211 C 0.56779 0.896 0.01195 0.0
C212 C 0.5484 0.90979 0.99349 0.0
C213 C 0.57433 0.90832 0.9939 0.0
C214 C 0.51011 0.84174 0.0776 0.0
C215 C 0.50603 0.82921 0.06011 0.0
C216 C 0.49681 0.8415 0.09103 0.0
C217 C 0.48867 0.81669 0.05625 0.0
C218 C 0.47961 0.82879 0.08659 0.0
N219 N 0.47593 0.81675 0.06943 0.0
C220 C 0.5504 0.83411 0.06289 0.0
C221 C 0.55795 0.8486 0.02603 0.0
C222 C 0.55309 0.82101 0.05409 0.0
N223 N 0.55286 0.84751 0.04883 0.0
C224 C 0.56075 0.83575 0.01646 0.0
C225 C 0.55823 0.82167 0.03053 0.0
H226 H 0.54612 0.83351 0.08088 0.0
H227 H 0.55964 0.85933 0.01522 0.0
C228 C 0.49879 0.88004 0.06059 0.0
N229 N 0.50581 0.87074 0.05167 0.0
C230 C 0.48354 0.87828 0.05101 0.0
C231 C 0.483 0.85736 0.0233 0.0
C232 C 0.49833 0.85962 0.03332 0.0
C233 C 0.47549 0.86688 0.03204 0.0
H234 H 0.50517 0.88903 0.07489 0.0
H235 H 0.50446 0.85272 0.02621 0.0
O236 O 0.56612 0.8815 0.08463 0.0
O237 O 0.53947 0.89407 0.08495 0.0
O238 O 0.54472 0.87881 0.03888 0.0
O239 O 0.527 0.85429 0.08138 0.0
H240 H 0.56553 0.86141 0.11951 0.0
H241 H 0.58996 0.88508 0.05368 0.0
H242 H 0.5842 0.84806 0.1218 0.0
H243 H 0.60817 0.87127 0.05711 0.0
H244 H 0.51186 0.89654 0.15098 0.0
H245 H 0.56476 0.92383 0.1019 0.0
H246 H 0.5126 0.88208 0.11398 0.0
H247 H 0.56306 0.93759 0.13902 0.0
H248 H 0.61875 0.94511 0.06268 0.0
H249 H 0.57737 0.955 0.04352 0.0
H250 H 0.52027 0.84751 0.17669 0.0
H251 H 0.56756 0.89753 0.17728 0.0
H252 H 0.52859 0.89359 0.01835 0.0
H253 H 0.57563 0.89093 0.01913 0.0
H254 H 0.54098 0.91529 0.98617 0.0
H255 H 0.58719 0.91269 0.98692 0.0
H256 H 0.51613 0.82926 0.04944 0.0
H257 H 0.49973 0.85115 0.10455 0.0
H258 H 0.48531 0.80696 0.0427 0.0
H259 H 0.46918 0.82852 0.09675 0.0
H260 H 0.55071 0.81023 0.06542 0.0
H261 H 0.5648 0.83679 0.99826 0.0
H262 H 0.47811 0.88579 0.05833 0.0
H263 H 0.47736 0.84865 0.00846 0.0
Li264 Li 0.66638 0.55622 0.56894 0.0
Li265 Li 0.66837 0.53791 0.59969 0.0
Li266 Li 0.68498 0.54432 0.5625 0.0
Li267 Li 0.65392 0.52399 0.56182 0.0
C268 C 0.69575 0.57787 0.59299 0.0
N269 N 0.7128 0.6129 0.60358 0.0
C270 C 0.69762 0.58336 0.61642 0.0
C271 C 0.70269 0.5902 0.57496 0.0
C272 C 0.70625 0.60113 0.62141 0.0
C273 C 0.71122 0.60785 0.58067 0.0
C274 C 0.63245 0.53146 0.59787 0.0
C275 C 0.60404 0.50971 0.61143 0.0
N276 N 0.60225 0.52227 0.62254 0.0
C277 C 0.6302 0.54416 0.60916 0.0
C278 C 0.61916 0.5141 0.59878 0.0
C279 C 0.6149 0.53926 0.62166 0.0
C280 C 0.65506 0.57511 0.54224 0.0
N281 N 0.66173 0.57459 0.56356 0.0
C282 C 0.65794 0.59777 0.57781 0.0
C283 C 0.66341 0.58571 0.58117 0.0
C284 C 0.65034 0.5981 0.55631 0.0
C285 C 0.64919 0.58681 0.53822 0.0
H286 H 0.65367 0.56596 0.52867 0.0
H287 H 0.66827 0.58471 0.59819 0.0
C288 C 0.67546 0.52609 0.64278 0.0
N289 N 0.66853 0.53523 0.63298 0.0
C290 C 0.67553 0.52427 0.66721 0.0
C291 C 0.66211 0.54202 0.67104 0.0
C292 C 0.66211 0.5433 0.64657 0.0
C293 C 0.6688 0.53233 0.68163 0.0
H294 H 0.68107 0.5203 0.63168 0.0
H295 H 0.6573 0.55102 0.63841 0.0
C296 C 0.67516 0.54557 0.51907 0.0
N297 N 0.69152 0.54873 0.4765 0.0
C298 C 0.67178 0.53074 0.50636 0.0
C299 C 0.68668 0.562 0.51001 0.0
C300 C 0.68023 0.53261 0.4849 0.0
C301 C 0.69488 0.56333 0.48849 0.0
C302 C 0.66613 0.50532 0.58833 0.0
C303 C 0.67481 0.49622 0.58342 0.0
C304 C 0.65135 0.49773 0.6026 0.0
C305 C 0.66844 0.47957 0.59273 0.0
C306 C 0.6454 0.48107 0.61159 0.0
N307 N 0.65398 0.4724 0.60649 0.0
C308 C 0.72084 0.56334 0.54963 0.0
C309 C 0.705 0.53387 0.53764 0.0
C310 C 0.73589 0.56528 0.53907 0.0
N311 N 0.70583 0.54782 0.54866 0.0
C312 C 0.71969 0.53522 0.52683 0.0
C313 C 0.73543 0.55106 0.52756 0.0
H314 H 0.72118 0.57417 0.55873 0.0
H315 H 0.69285 0.5217 0.53714 0.0
C316 C 0.62304 0.50698 0.53654 0.0
N317 N 0.63543 0.50441 0.54661 0.0
C318 C 0.60917 0.4935 0.52446 0.0
C319 C 0.62102 0.47492 0.53348 0.0
C320 C 0.63481 0.48884 0.54503 0.0
C321 C 0.60803 0.47721 0.52299 0.0
H322 H 0.62399 0.51957 0.53787 0.0
H323 H 0.64506 0.48719 0.55245 0.0
O324 O 0.68724 0.56052 0.5878 0.0
O325 O 0.64724 0.53606 0.58517 0.0
O326 O 0.66731 0.54399 0.54036 0.0
O327 O 0.67215 0.52157 0.57915 0.0
H328 H 0.69249 0.57401 0.63062 0.0
H329 H 0.70134 0.58618 0.55675 0.0
H330 H 0.70775 0.60556 0.63946 0.0
H331 H 0.71655 0.61753 0.56687 0.0
H332 H 0.5937 0.49632 0.61234 0.0
H333 H 0.64021 0.55766 0.6085 0.0
H334 H 0.62041 0.50408 0.58971 0.0
H335 H 0.61307 0.54896 0.63063 0.0
H336 H 0.65873 0.60605 0.59232 0.0
H337 H 0.64336 0.5867 0.52141 0.0
H338 H 0.68108 0.51695 0.67477 0.0
H339 H 0.65684 0.54846 0.68158 0.0
H340 H 0.6629 0.51792 0.51315 0.0
H341 H 0.68928 0.5736 0.51951 0.0
H342 H 0.67785 0.52124 0.47496 0.0
H343 H 0.7039 0.57596 0.48132 0.0
H344 H 0.68633 0.50193 0.57249 0.0
H345 H 0.64471 0.50472 0.60694 0.0
H346 H 0.675 0.47235 0.58902 0.0
H347 H 0.63398 0.47506 0.62269 0.0
H348 H 0.74782 0.57766 0.54027 0.0
H349 H 0.71868 0.52401 0.51784 0.0
H350 H 0.59933 0.4957 0.51661 0.0
H351 H 0.62067 0.46258 0.53238 0.0
Li352 Li 0.12653 0.66602 0.09679 0.0
Li353 Li 0.10701 0.66544 0.06719 0.0
Li354 Li 0.12489 0.65258 0.05938 0.0
Li355 Li 0.13764 0.68342 0.06176 0.0
C356 C 0.09255 0.63804 0.09836 0.0
N357 N 0.06451 0.62341 0.12871 0.0
C358 C 0.08954 0.64856 0.1137 0.0
C359 C 0.08128 0.62009 0.09844 0.0
C360 C 0.0753 0.64092 0.12891 0.0
C361 C 0.06718 0.61293 0.11393 0.0
C362 C 0.1217 0.69983 0.08237 0.0
C363 C 0.11552 0.7172 0.05577 0.0
N364 N 0.11873 0.72878 0.07341 0.0
C365 C 0.12494 0.71189 0.10023 0.0
C366 C 0.11695 0.70248 0.05994 0.0
C367 C 0.12336 0.72644 0.09535 0.0
C368 C 0.1396 0.68092 0.14081 0.0
N369 N 0.13017 0.66544 0.12963 0.0
C370 C 0.12526 0.65006 0.16589 0.0
C371 C 0.12325 0.65013 0.14154 0.0
C372 C 0.13461 0.66587 0.17801 0.0
C373 C 0.14205 0.68144 0.16514 0.0
H374 H 0.14499 0.69286 0.13081 0.0
H375 H 0.11595 0.63798 0.1322 0.0
C376 C 0.07429 0.64909 0.04687 0.0
N377 N 0.08432 0.66183 0.06237 0.0
C378 C 0.05668 0.64365 0.04463 0.0
C379 C 0.06023 0.66508 0.07368 0.0
C380 C 0.07774 0.66996 0.07556 0.0
C381 C 0.04933 0.65147 0.05845 0.0
H382 H 0.07985 0.64263 0.03701 0.0
H383 H 0.08585 0.67974 0.08823 0.0
C384 C 0.15376 0.66054 0.08726 0.0
N385 N 0.16913 0.64348 0.10809 0.0
C386 C 0.17181 0.66886 0.08964 0.0
C387 C 0.14353 0.64353 0.09546 0.0
C388 C 0.17933 0.66002 0.10022 0.0
C389 C 0.15154 0.63514 0.10594 0.0
C390 C 0.12809 0.66888 0.0169 0.0
C391 C 0.14518 0.67215 0.01583 0.0
C392 C 0.11888 0.6668 0.99606 0.0
C393 C 0.15277 0.67329 0.99388 0.0
C394 C 0.12694 0.66803 0.97445 0.0
N395 N 0.14358 0.67122 0.97381 0.0
C396 C 0.10963 0.61992 0.03791 0.0
C397 C 0.14042 0.63451 0.03824 0.0
C398 C 0.10891 0.60566 0.02651 0.0
N399 N 0.12522 0.63389 0.04362 0.0
C400 C 0.1403 0.62047 0.02707 0.0
C401 C 0.12439 0.6058 0.02113 0.0
H402 H 0.09777 0.61987 0.04232 0.0
H403 H 0.15266 0.64588 0.04264 0.0
C404 C 0.17061 0.7126 0.06319 0.0
N405 N 0.15566 0.70499 0.0505 0.0
C406 C 0.18475 0.72819 0.0556 0.0
C407 C 0.16769 0.72795 0.02227 0.0
C408 C 0.15387 0.71236 0.03052 0.0
C409 C 0.18344 0.73598 0.03477 0.0
H410 H 0.17159 0.70642 0.07906 0.0
H411 H 0.14178 0.70606 0.02084 0.0
O412 O 0.10626 0.64518 0.08304 0.0
O413 O 0.12334 0.68561 0.08696 0.0
O414 O 0.1463 0.66913 0.07694 0.0
O415 O 0.12027 0.66766 0.03813 0.0
H416 H 0.09808 0.66249 0.11388 0.0
H417 H 0.08342 0.61177 0.08663 0.0
H418 H 0.07282 0.64891 0.14086 0.0
H419 H 0.05836 0.59906 0.11419 0.0
H420 H 0.11185 0.71941 0.0385 0.0
H421 H 0.12864 0.71002 0.11768 0.0
H422 H 0.11433 0.69328 0.04591 0.0
H423 H 0.12583 0.73589 0.10901 0.0
H424 H 0.1195 0.63777 0.17517 0.0
H425 H 0.14923 0.6939 0.17388 0.0
H426 H 0.04878 0.63287 0.03304 0.0
H427 H 0.05521 0.6716 0.08451 0.0
H428 H 0.17991 0.68201 0.08334 0.0
H429 H 0.12957 0.63681 0.09368 0.0
H430 H 0.19328 0.6663 0.10217 0.0
H431 H 0.14378 0.62197 0.11235 0.0
H432 H 0.15254 0.67384 0.03173 0.0
H433 H 0.10564 0.66425 0.99661 0.0
H434 H 0.16599 0.67582 0.9928 0.0
H435 H 0.11997 0.66645 0.95818 0.0
H436 H 0.09639 0.59453 0.02233 0.0
H437 H 0.15252 0.62114 0.02293 0.0
H438 H 0.19672 0.73383 0.06562 0.0
H439 H 0.16607 0.73364 0.00629 0.0
Li440 Li 0.46045 0.1283 0.5923 0.0
Li441 Li 0.44432 0.10742 0.56081 0.0
Li442 Li 0.47661 0.12878 0.55744 0.0
Li443 Li 0.45528 0.13856 0.55347 0.0
C444 C 0.46719 0.10203 0.59892 0.0
N445 N 0.4736 0.08758 0.638 0.0
C446 C 0.45436 0.0859 0.60741 0.0
C447 C 0.48336 0.11068 0.61005 0.0
C448 C 0.45783 0.07885 0.62726 0.0
C449 C 0.48632 0.1032 0.62986 0.0
C450 C 0.42095 0.11812 0.57782 0.0
C451 C 0.39474 0.1123 0.55756 0.0
N452 N 0.38604 0.10781 0.57841 0.0
C453 C 0.4118 0.11361 0.59908 0.0
C454 C 0.41241 0.11759 0.55691 0.0
C455 C 0.39413 0.10837 0.599 0.0
C456 C 0.47178 0.14664 0.6357 0.0
N457 N 0.461 0.13103 0.62552 0.0
C458 C 0.45023 0.11805 0.66313 0.0
C459 C 0.45011 0.11695 0.63863 0.0
C460 C 0.46132 0.13394 0.67415 0.0
C461 C 0.47207 0.14843 0.6602 0.0
H462 H 0.48011 0.15771 0.62483 0.0
H463 H 0.44129 0.10484 0.63001 0.0
C464 C 0.42794 0.0757 0.53598 0.0
N465 N 0.42644 0.08437 0.55471 0.0
C466 C 0.4156 0.05826 0.53224 0.0
C467 C 0.4003 0.05916 0.56693 0.0
C468 C 0.41298 0.07651 0.57007 0.0
C469 C 0.40166 0.04969 0.54804 0.0
H470 H 0.43898 0.0822 0.5243 0.0
H471 H 0.41235 0.08352 0.5852 0.0
C472 C 0.49308 0.16269 0.57257 0.0
N473 N 0.52652 0.19062 0.57078 0.0
C474 C 0.4972 0.17641 0.55703 0.0
C475 C 0.50589 0.16328 0.58742 0.0
C476 C 0.5142 0.19039 0.55634 0.0
C477 C 0.52274 0.17747 0.58618 0.0
C478 C 0.45446 0.12115 0.51005 0.0
C479 C 0.46806 0.1289 0.49382 0.0
C480 C 0.43729 0.11257 0.50204 0.0
C481 C 0.46425 0.12826 0.46984 0.0
C482 C 0.43402 0.11219 0.47792 0.0
N483 N 0.44745 0.12 0.46245 0.0
C484 C 0.50093 0.11805 0.549 0.0
C485 C 0.50919 0.14583 0.53346 0.0
C486 C 0.51592 0.11888 0.53988 0.0
N487 N 0.49787 0.13142 0.54568 0.0
C488 C 0.52447 0.14735 0.52435 0.0
C489 C 0.52797 0.13369 0.52731 0.0
H490 H 0.49155 0.10656 0.55836 0.0
H491 H 0.50625 0.15607 0.53041 0.0
C492 C 0.44165 0.16095 0.55177 0.0
N493 N 0.45027 0.15478 0.53885 0.0
C494 C 0.43791 0.17316 0.54213 0.0
C495 C 0.45203 0.17245 0.5061 0.0
C496 C 0.45559 0.16036 0.51648 0.0
C497 C 0.44314 0.17906 0.519 0.0
H498 H 0.43778 0.15647 0.56964 0.0
H499 H 0.46293 0.15574 0.50685 0.0
O500 O 0.46396 0.10924 0.5797 0.0
O501 O 0.43824 0.12324 0.57763 0.0
O502 O 0.47651 0.1489 0.57345 0.0
O503 O 0.45799 0.12162 0.53358 0.0
H504 H 0.44182 0.07899 0.5989 0.0
H505 H 0.4935 0.12303 0.60347 0.0
H506 H 0.44799 0.06644 0.63415 0.0
H507 H 0.49874 0.1098 0.63874 0.0
H508 H 0.38797 0.11181 0.5415 0.0
H509 H 0.41825 0.11407 0.61545 0.0
H510 H 0.41937 0.12139 0.54041 0.0
H511 H 0.38686 0.10475 0.6153 0.0
H512 H 0.44156 0.10667 0.67335 0.0
H513 H 0.48076 0.16089 0.66817 0.0
H514 H 0.41735 0.05141 0.51769 0.0
H515 H 0.38972 0.05315 0.57945 0.0
H516 H 0.48741 0.17622 0.54553 0.0
H517 H 0.50286 0.15288 0.59976 0.0
H518 H 0.5176 0.20106 0.54431 0.0
H519 H 0.53281 0.17806 0.59749 0.0
H520 H 0.48142 0.13547 0.49968 0.0
H521 H 0.42661 0.1061 0.51426 0.0
H522 H 0.47465 0.13431 0.4571 0.0
H523 H 0.42079 0.10563 0.47149 0.0
H524 H 0.51777 0.10783 0.54218 0.0
H525 H 0.53338 0.1591 0.51504 0.0
H526 H 0.43101 0.17793 0.55265 0.0
H527 H 0.45663 0.17697 0.4884 0.0
Li528 Li 0.52187 0.65313 0.94216 0.0
Li529 Li 0.54183 0.68462 0.94153 0.0
Li530 Li 0.53755 0.66664 0.90644 0.0
Li531 Li 0.55435 0.66525 0.93914 0.0
C532 C 0.50384 0.66802 0.92309 0.0
N533 N 0.47016 0.66186 0.92423 0.0
C534 C 0.49987 0.67905 0.93581 0.0
C535 C 0.4907 0.6539 0.91087 0.0
C536 C 0.48275 0.67571 0.93618 0.0
C537 C 0.47375 0.65099 0.9117 0.0
C538 C 0.54017 0.66848 0.98876 0.0
C539 C 0.55419 0.67342 0.02662 0.0
N540 N 0.53917 0.67019 0.0373 0.0
C541 C 0.52487 0.66521 0.00011 0.0
C542 C 0.55495 0.6726 0.00211 0.0
C543 C 0.52463 0.66615 0.02466 0.0
C544 C 0.50208 0.61952 0.95931 0.0
N545 N 0.50155 0.63439 0.95605 0.0
C546 C 0.47334 0.62154 0.97358 0.0
C547 C 0.48764 0.63571 0.96323 0.0
C548 C 0.47362 0.60609 0.97718 0.0
C549 C 0.48823 0.60515 0.97006 0.0
H550 H 0.51339 0.61889 0.95376 0.0
H551 H 0.48771 0.64781 0.96143 0.0
C552 C 0.55025 0.71919 0.93575 0.0
N553 N 0.54581 0.70655 0.9522 0.0
C554 C 0.55289 0.73548 0.94228 0.0
C555 C 0.54645 0.72542 0.98255 0.0
C556 C 0.54398 0.70939 0.97526 0.0
C557 C 0.5509 0.73872 0.96597 0.0
H558 H 0.55164 0.71655 0.91752 0.0
H559 H 0.54039 0.6992 0.98801 0.0
C560 C 0.53283 0.63496 0.90364 0.0
N561 N 0.52841 0.61418 0.8651 0.0
C562 C 0.54696 0.63412 0.89441 0.0
C563 C 0.51641 0.62508 0.89349 0.0
C564 C 0.54447 0.62357 0.87486 0.0
C565 C 0.51445 0.6147 0.87395 0.0
C566 C 0.57585 0.69952 0.9243 0.0
C567 C 0.58715 0.7093 0.90616 0.0
C568 C 0.58095 0.70394 0.94774 0.0
C569 C 0.60344 0.72336 0.9118 0.0
C570 C 0.59734 0.7181 0.95266 0.0
N571 N 0.60815 0.72743 0.93474 0.0
C572 C 0.5231 0.66418 0.86073 0.0
C573 C 0.55119 0.66735 0.86199 0.0
C574 C 0.52294 0.66322 0.83617 0.0
N575 N 0.53703 0.66603 0.87305 0.0
C576 C 0.55154 0.66633 0.8375 0.0
C577 C 0.53725 0.66418 0.82428 0.0
H578 H 0.51211 0.66339 0.86993 0.0
H579 H 0.56217 0.66904 0.87228 0.0
C580 C 0.56919 0.64904 0.96451 0.0
N581 N 0.57246 0.66102 0.94747 0.0
C582 C 0.58111 0.64353 0.96901 0.0
C583 C 0.59975 0.66319 0.93878 0.0
C584 C 0.58744 0.66827 0.93482 0.0
C585 C 0.59645 0.65034 0.95566 0.0
H586 H 0.55697 0.64323 0.9739 0.0
H587 H 0.58952 0.67742 0.92095 0.0
O588 O 0.52054 0.67118 0.92239 0.0
O589 O 0.54065 0.66747 0.96475 0.0
O590 O 0.53509 0.64551 0.9224 0.0
O591 O 0.55987 0.68574 0.91897 0.0
H592 H 0.50987 0.69005 0.94533 0.0
H593 H 0.49351 0.64516 0.90108 0.0
H594 H 0.47948 0.68411 0.94598 0.0
H595 H 0.46343 0.64006 0.90243 0.0
H596 H 0.56554 0.67661 0.03716 0.0
H597 H 0.51342 0.6623 0.99006 0.0
H598 H 0.56691 0.67518 0.99365 0.0
H599 H 0.5129 0.66372 0.03366 0.0
H600 H 0.46236 0.62275 0.97923 0.0
H601 H 0.48884 0.5934 0.97264 0.0
H602 H 0.55646 0.74542 0.92896 0.0
H603 H 0.54447 0.72723 0.00093 0.0
H604 H 0.55975 0.64168 0.9021 0.0
H605 H 0.50534 0.62551 0.90058 0.0
H606 H 0.55531 0.62289 0.86741 0.0
H607 H 0.50184 0.60706 0.86581 0.0
H608 H 0.58337 0.70603 0.88792 0.0
H609 H 0.57235 0.69658 0.96197 0.0
H610 H 0.61234 0.73103 0.89794 0.0
H611 H 0.60145 0.72168 0.97072 0.0
H612 H 0.51163 0.6615 0.82661 0.0
H613 H 0.56293 0.66739 0.82899 0.0
H614 H 0.5779 0.63338 0.98189 0.0
H615 H 0.61144 0.66885 0.9282 0.0
Li616 Li 0.87313 0.52393 0.42908 0.0
Li617 Li 0.85918 0.54149 0.43404 0.0
Li618 Li 0.86962 0.53783 0.395 0.0
Li619 Li 0.89036 0.55638 0.42454 0.0
C620 C 0.83999 0.50265 0.41836 0.0
N621 N 0.8183 0.46753 0.42605 0.0
C622 C 0.8262 0.49693 0.43426 0.0
C623 C 0.84264 0.49049 0.40618 0.0
C624 C 0.8154 0.47912 0.43794 0.0
C625 C 0.83157 0.4728 0.41038 0.0
C626 C 0.88154 0.54767 0.47562 0.0
C627 C 0.89328 0.57061 0.50462 0.0
N628 N 0.8885 0.55856 0.52201 0.0
C629 C 0.87698 0.53554 0.4938 0.0
C630 C 0.88996 0.56538 0.48108 0.0
C631 C 0.8805 0.54128 0.51712 0.0
C632 C 0.88615 0.50084 0.43291 0.0
N633 N 0.87395 0.50443 0.44117 0.0
C634 C 0.86293 0.48025 0.46746 0.0
C635 C 0.86247 0.49452 0.45813 0.0
C636 C 0.87538 0.47619 0.45929 0.0
C637 C 0.88708 0.48666 0.44172 0.0
H638 H 0.89526 0.50906 0.41961 0.0
H639 H 0.85291 0.49769 0.4644 0.0
C640 C 0.83187 0.54861 0.43915 0.0
N641 N 0.84129 0.54264 0.45053 0.0
C642 C 0.81809 0.54885 0.45057 0.0
C643 C 0.82397 0.53671 0.48512 0.0
C644 C 0.83761 0.53671 0.47304 0.0
C645 C 0.81392 0.54272 0.47382 0.0
H646 H 0.83494 0.55298 0.42109 0.0
H647 H 0.845 0.53161 0.48144 0.0
C648 C 0.89847 0.5382 0.38437 0.0
N649 N 0.91267 0.53881 0.34085 0.0
C650 C 0.91135 0.55392 0.37488 0.0
C651 C 0.89294 0.52277 0.37185 0.0
C652 C 0.91835 0.55395 0.35282 0.0
C653 C 0.90023 0.52336 0.34983 0.0
C654 C 0.87412 0.57577 0.41184 0.0
C655 C 0.87714 0.5864 0.3922 0.0
C656 C 0.87306 0.58177 0.43417 0.0
C657 C 0.87937 0.60299 0.39532 0.0
C658 C 0.87535 0.59842 0.43658 0.0
N659 N 0.87846 0.60861 0.41726 0.0
C660 C 0.85416 0.52031 0.35209 0.0
C661 C 0.87556 0.55003 0.34855 0.0
C662 C 0.8526 0.51863 0.32762 0.0
N663 N 0.86567 0.53579 0.36197 0.0
C664 C 0.87434 0.54899 0.32406 0.0
C665 C 0.86292 0.53306 0.31323 0.0
H666 H 0.84646 0.50919 0.36316 0.0
H667 H 0.88475 0.56211 0.35689 0.0
C668 C 0.92333 0.57117 0.44192 0.0
N669 N 0.91277 0.57552 0.43015 0.0
C670 C 0.9407 0.58346 0.44563 0.0
C671 C 0.93597 0.60472 0.42552 0.0
C672 C 0.91863 0.59193 0.42209 0.0
C673 C 0.94732 0.60047 0.43714 0.0
H674 H 0.9183 0.55794 0.44783 0.0
H675 H 0.91008 0.59504 0.41248 0.0
O676 O 0.85081 0.52005 0.4147 0.0
O677 O 0.87836 0.54222 0.45263 0.0
O678 O 0.89112 0.53796 0.40563 0.0
O679 O 0.87193 0.55949 0.40901 0.0
H680 H 0.82386 0.50613 0.44369 0.0
H681 H 0.8533 0.49467 0.39393 0.0
H682 H 0.80472 0.47452 0.45026 0.0
H683 H 0.83356 0.46326 0.40125 0.0
H684 H 0.89974 0.58427 0.50904 0.0
H685 H 0.87068 0.52182 0.49001 0.0
H686 H 0.89411 0.57505 0.46737 0.0
H687 H 0.8769 0.53201 0.53134 0.0
H688 H 0.85352 0.47239 0.48076 0.0
H689 H 0.89702 0.48411 0.43515 0.0
H690 H 0.8105 0.55334 0.44109 0.0
H691 H 0.82126 0.53196 0.50307 0.0
H692 H 0.91574 0.56599 0.38428 0.0
H693 H 0.88298 0.5105 0.37893 0.0
H694 H 0.92823 0.56603 0.34519 0.0
H695 H 0.89597 0.51154 0.33985 0.0
H696 H 0.87779 0.58194 0.37472 0.0
H697 H 0.87029 0.57362 0.44948 0.0
H698 H 0.88181 0.61138 0.38028 0.0
H699 H 0.87458 0.60322 0.45379 0.0
H700 H 0.84376 0.50605 0.32009 0.0
H701 H 0.88234 0.56054 0.31376 0.0
H702 H 0.949 0.57944 0.4542 0.0
H703 H 0.9405 0.61768 0.41878 0.0
Li704 Li 0.34849 0.87093 0.93859 0.0
Li705 Li 0.31735 0.85749 0.93879 0.0
Li706 Li 0.33305 0.86791 0.90104 0.0
Li707 Li 0.33383 0.88784 0.93104 0.0
C708 C 0.32897 0.83392 0.93151 0.0
N709 N 0.32319 0.80292 0.9508 0.0
C710 C 0.33287 0.83313 0.95515 0.0
C711 C 0.32215 0.81893 0.91765 0.0
C712 C 0.32985 0.81735 0.96459 0.0
C713 C 0.31931 0.80339 0.92773 0.0
C714 C 0.32687 0.87243 0.98218 0.0
C715 C 0.30474 0.86996 0.00907 0.0
N716 N 0.31173 0.86473 0.02632 0.0
C717 C 0.33394 0.86721 0.00026 0.0
C718 C 0.31226 0.87398 0.98668 0.0
C719 C 0.32606 0.86332 0.02242 0.0
C720 C 0.37686 0.88403 0.9693 0.0
N721 N 0.36864 0.87214 0.95199 0.0
C722 C 0.3895 0.86275 0.95444 0.0
C723 C 0.37467 0.86164 0.94432 0.0
C724 C 0.3982 0.8748 0.97257 0.0
C725 C 0.39169 0.88554 0.97996 0.0
H726 H 0.37179 0.89226 0.97491 0.0
H727 H 0.36797 0.85243 0.93033 0.0
C728 C 0.28166 0.83392 0.93879 0.0
N729 N 0.29633 0.83924 0.95174 0.0
C730 C 0.2658 0.82032 0.9467 0.0
C731 C 0.28043 0.81785 0.98111 0.0
C732 C 0.296 0.83144 0.97249 0.0
C733 C 0.26507 0.8121 0.96813 0.0
H734 H 0.28231 0.84015 0.92217 0.0
H735 H 0.30781 0.8356 0.98232 0.0
C736 C 0.36872 0.89249 0.9024 0.0
N737 N 0.39922 0.9 0.87987 0.0
C738 C 0.38214 0.90969 0.90034 0.0
C739 C 0.37078 0.8791 0.893 0.0
C740 C 0.39747 0.91323 0.88888 0.0
C741 C 0.38631 0.88317 0.88168 0.0
C742 C 0.30466 0.87854 0.90743 0.0
C743 C 0.30763 0.88708 0.8858 0.0
C744 C 0.29264 0.87869 0.92314 0.0
C745 C 0.29882 0.89597 0.88048 0.0
C746 C 0.28407 0.88772 0.91717 0.0
N747 N 0.28733 0.89613 0.89616 0.0
C748 C 0.32353 0.84845 0.85861 0.0
C749 C 0.34118 0.87895 0.85426 0.0
C750 C 0.32262 0.84623 0.83418 0.0
N751 N 0.33268 0.86462 0.86805 0.0
C752 C 0.34054 0.87736 0.82981 0.0
C753 C 0.33105 0.86085 0.81948 0.0
H754 H 0.31668 0.83733 0.87004 0.0
H755 H 0.34819 0.89168 0.86227 0.0
C756 C 0.33484 0.91675 0.95484 0.0
N757 N 0.33623 0.91016 0.93387 0.0
C758 C 0.33817 0.93384 0.95621 0.0
C759 C 0.34392 0.93682 0.91433 0.0
C760 C 0.34068 0.91979 0.91383 0.0
C761 C 0.34291 0.94413 0.93577 0.0
H762 H 0.33165 0.90894 0.9706 0.0
H763 H 0.34215 0.91435 0.89754 0.0
O764 O 0.33183 0.84925 0.92189 0.0
O765 O 0.33436 0.87621 0.96031 0.0
O766 O 0.35367 0.88887 0.91366 0.0
O767 O 0.31335 0.86996 0.9131 0.0
H768 H 0.33808 0.84455 0.96615 0.0
H769 H 0.31909 0.81928 0.8993 0.0
H770 H 0.33278 0.81657 0.98289 0.0
H771 H 0.31404 0.79169 0.9172 0.0
H772 H 0.29336 0.871 0.01274 0.0
H773 H 0.34534 0.86608 0.99721 0.0
H774 H 0.30676 0.87822 0.97303 0.0
H775 H 0.33133 0.85916 0.03652 0.0
H776 H 0.39421 0.85442 0.94792 0.0
H777 H 0.39785 0.89487 0.99404 0.0
H778 H 0.25424 0.81634 0.93621 0.0
H779 H 0.28049 0.81165 0.9975 0.0
H780 H 0.38072 0.92019 0.90753 0.0
H781 H 0.36053 0.86571 0.89443 0.0
H782 H 0.40798 0.92648 0.88715 0.0
H783 H 0.38809 0.87294 0.87435 0.0
H784 H 0.31678 0.887 0.87335 0.0
H785 H 0.28985 0.87182 0.9397 0.0
H786 H 0.30112 0.90277 0.86389 0.0
H787 H 0.27478 0.888 0.92922 0.0
H788 H 0.31502 0.8333 0.82687 0.0
H789 H 0.34736 0.88894 0.8191 0.0
H790 H 0.33734 0.93906 0.97309 0.0
H791 H 0.34792 0.94443 0.89828 0.0
Li792 Li 0.47337 0.34666 0.44318 0.0
Li793 Li 0.45091 0.31604 0.44509 0.0
Li794 Li 0.45661 0.33214 0.40833 0.0
Li795 Li 0.44239 0.33742 0.44173 0.0
C796 C 0.48913 0.33006 0.42697 0.0
N797 N 0.52318 0.33752 0.43046 0.0
C798 C 0.49349 0.32047 0.44219 0.0
C799 C 0.50208 0.34341 0.41348 0.0
C800 C 0.51078 0.32444 0.44369 0.0
C801 C 0.51922 0.347 0.41552 0.0
C802 C 0.45002 0.33993 0.48671 0.0
C803 C 0.42729 0.33592 0.51358 0.0
N804 N 0.43829 0.35149 0.52374 0.0
C805 C 0.46112 0.35585 0.49748 0.0
C806 C 0.43299 0.32983 0.49489 0.0
C807 C 0.45493 0.36147 0.51616 0.0
C808 C 0.4999 0.3811 0.45012 0.0
N809 N 0.49504 0.36433 0.45513 0.0
C810 C 0.51984 0.37343 0.47988 0.0
C811 C 0.50454 0.36029 0.46986 0.0
C812 C 0.52513 0.39094 0.47532 0.0
C813 C 0.5149 0.39465 0.46013 0.0
H814 H 0.49181 0.38397 0.43894 0.0
H815 H 0.50007 0.34688 0.47422 0.0
C816 C 0.44913 0.28359 0.44536 0.0
N817 N 0.44559 0.29432 0.45824 0.0
C818 C 0.44705 0.2683 0.45527 0.0
C819 C 0.43697 0.27505 0.49113 0.0
C820 C 0.43941 0.29029 0.48059 0.0
C821 C 0.44117 0.26399 0.47863 0.0
H822 H 0.45417 0.28724 0.42767 0.0
H823 H 0.43676 0.29909 0.49045 0.0
C824 C 0.46292 0.36443 0.40271 0.0
N825 N 0.46523 0.38302 0.36253 0.0
C826 C 0.44867 0.36582 0.39527 0.0
C827 C 0.47838 0.37262 0.38984 0.0
C828 C 0.4501 0.37526 0.37489 0.0
C829 C 0.47927 0.38191 0.36953 0.0
C830 C 0.4226 0.29883 0.42102 0.0
C831 C 0.42448 0.28943 0.40266 0.0
C832 C 0.40982 0.29018 0.43813 0.0
C833 C 0.41356 0.27143 0.4018 0.0
C834 C 0.39917 0.27216 0.43667 0.0
N835 N 0.40125 0.26324 0.41869 0.0
C836 C 0.46955 0.33005 0.36317 0.0
C837 C 0.44379 0.33179 0.36322 0.0
C838 C 0.46984 0.33017 0.33856 0.0
N839 N 0.45679 0.33112 0.3749 0.0
C840 C 0.44369 0.33216 0.33866 0.0
C841 C 0.45692 0.33148 0.32604 0.0
H842 H 0.47955 0.32924 0.37289 0.0
H843 H 0.43362 0.33226 0.37304 0.0
C844 C 0.43391 0.36169 0.45736 0.0
N845 N 0.42662 0.34509 0.44943 0.0
C846 C 0.42375 0.36938 0.46064 0.0
C847 C 0.39862 0.34262 0.44798 0.0
C848 C 0.4093 0.33538 0.44505 0.0
C849 C 0.40594 0.35999 0.45529 0.0
H850 H 0.44777 0.36916 0.4603 0.0
H851 H 0.40394 0.3223 0.43836 0.0
O852 O 0.47229 0.32644 0.42533 0.0
O853 O 0.45576 0.3343 0.46819 0.0
O854 O 0.46169 0.35495 0.42233 0.0
O855 O 0.43347 0.31638 0.42251 0.0
H856 H 0.4837 0.31022 0.45295 0.0
H857 H 0.49896 0.35101 0.40171 0.0
H858 H 0.51435 0.31717 0.45546 0.0
H859 H 0.52938 0.35734 0.40526 0.0
H860 H 0.4141 0.32831 0.51996 0.0
H861 H 0.47433 0.36384 0.49143 0.0
H862 H 0.42417 0.31756 0.48661 0.0
H863 H 0.46336 0.3738 0.5246 0.0
H864 H 0.52731 0.36984 0.49123 0.0
H865 H 0.51809 0.40788 0.45653 0.0
H866 H 0.45072 0.26036 0.44504 0.0
H867 H 0.43213 0.27213 0.50903 0.0
H868 H 0.43657 0.35949 0.40491 0.0
H869 H 0.48955 0.37174 0.3954 0.0
H870 H 0.43914 0.37635 0.36885 0.0
H871 H 0.49113 0.38823 0.35933 0.0
H872 H 0.43439 0.29594 0.38936 0.0
H873 H 0.40828 0.29727 0.45253 0.0
H874 H 0.41491 0.26397 0.38776 0.0
H875 H 0.38929 0.26527 0.44986 0.0
H876 H 0.48026 0.32964 0.32944 0.0
H877 H 0.43335 0.33289 0.32963 0.0
H878 H 0.42987 0.38272 0.4666 0.0
H879 H 0.38499 0.33501 0.44343 0.0
Li880 Li 0.12701 0.47464 0.94041 0.0
Li881 Li 0.13709 0.45346 0.93909 0.0
Li882 Li 0.12509 0.46012 0.90303 0.0
Li883 Li 0.10583 0.44256 0.93482 0.0
C884 C 0.16052 0.49197 0.9217 0.0
N885 N 0.18919 0.525 0.92274 0.0
C886 C 0.1749 0.49546 0.93559 0.0
C887 C 0.16082 0.50523 0.90813 0.0
C888 C 0.18925 0.51226 0.93593 0.0
C889 C 0.17541 0.52186 0.90896 0.0
C890 C 0.12332 0.45204 0.98509 0.0
C891 C 0.11906 0.4325 0.01716 0.0
N892 N 0.1282 0.44636 0.03161 0.0
C893 C 0.13249 0.46609 0.00034 0.0
C894 C 0.11638 0.4351 0.99362 0.0
C895 C 0.13489 0.46295 0.02376 0.0
C896 C 0.11491 0.49632 0.95646 0.0
N897 N 0.12954 0.49515 0.95482 0.0
C898 C 0.14617 0.52269 0.97377 0.0
C899 C 0.14495 0.50784 0.96354 0.0
C900 C 0.1313 0.52437 0.97546 0.0
C901 C 0.11548 0.51084 0.96676 0.0
H902 H 0.10273 0.48587 0.94986 0.0
H903 H 0.1563 0.50643 0.96278 0.0
C904 C 0.15909 0.43942 0.93514 0.0
N905 N 0.15413 0.44814 0.94999 0.0
C906 C 0.17201 0.43572 0.94186 0.0
C907 C 0.1744 0.44998 0.97905 0.0
C908 C 0.16157 0.45353 0.97154 0.0
C909 C 0.17983 0.44105 0.96408 0.0
H910 H 0.15315 0.43551 0.91794 0.0
H911 H 0.15796 0.46102 0.98267 0.0
C912 C 0.09987 0.46885 0.90245 0.0
N913 N 0.08614 0.48091 0.86864 0.0
C914 C 0.08377 0.45758 0.89226 0.0
C915 C 0.10886 0.48629 0.89571 0.0
C916 C 0.07708 0.46391 0.87512 0.0
C917 C 0.10174 0.49213 0.87852 0.0
C918 C 0.11442 0.4198 0.91359 0.0
C919 C 0.10745 0.41089 0.89251 0.0
C920 C 0.11478 0.41071 0.93345 0.0
C921 C 0.10067 0.39293 0.89177 0.0
C922 C 0.10789 0.39276 0.932 0.0
N923 N 0.10102 0.38431 0.91137 0.0
C924 C 0.14047 0.47386 0.85827 0.0
C925 C 0.11117 0.451 0.85797 0.0
C926 C 0.14045 0.47501 0.83372 0.0
N927 N 0.1259 0.46207 0.8698 0.0
C928 C 0.11054 0.45176 0.83351 0.0
C929 C 0.1253 0.46391 0.82106 0.0
H930 H 0.15209 0.48231 0.86809 0.0
H931 H 0.0999 0.44152 0.86761 0.0
C932 C 0.07562 0.42279 0.9623 0.0
N933 N 0.083 0.42436 0.94081 0.0
C934 C 0.05812 0.41057 0.96583 0.0
C935 C 0.05636 0.40159 0.92522 0.0
C936 C 0.07381 0.41405 0.92245 0.0
C937 C 0.04822 0.39995 0.94702 0.0
H938 H 0.08315 0.43143 0.97645 0.0
H939 H 0.07985 0.41601 0.90535 0.0
O940 O 0.14639 0.47559 0.92113 0.0
O941 O 0.12083 0.4549 0.96212 0.0
O942 O 0.10671 0.46285 0.91908 0.0
O943 O 0.12094 0.43736 0.91468 0.0
H944 H 0.17496 0.48535 0.94608 0.0
H945 H 0.14994 0.50273 0.89702 0.0
H946 H 0.20042 0.51516 0.94668 0.0
H947 H 0.17578 0.53226 0.89861 0.0
H948 H 0.11382 0.41946 0.02397 0.0
H949 H 0.13784 0.47927 0.99409 0.0
H950 H 0.10888 0.42407 0.98226 0.0
H951 H 0.14207 0.4737 0.0357 0.0
H952 H 0.15866 0.53278 0.98011 0.0
H953 H 0.10359 0.51132 0.96817 0.0
H954 H 0.17588 0.42882 0.92981 0.0
H955 H 0.18041 0.45468 0.9961 0.0
H956 H 0.07657 0.44406 0.89741 0.0
H957 H 0.12117 0.49524 0.90373 0.0
H958 H 0.06469 0.45531 0.86696 0.0
H959 H 0.1086 0.5056 0.87308 0.0
H960 H 0.10719 0.41774 0.87691 0.0
H961 H 0.12041 0.41746 0.94975 0.0
H962 H 0.09514 0.38584 0.87561 0.0
H963 H 0.10805 0.38556 0.94726 0.0
H964 H 0.1521 0.48459 0.82478 0.0
H965 H 0.09871 0.44273 0.8244 0.0
H966 H 0.05229 0.4097 0.9829 0.0
H967 H 0.04909 0.39394 0.91014 0.0
Li968 Li 0.68547 0.13556 0.44065 0.0
Li969 Li 0.65493 0.12453 0.44479 0.0
Li970 Li 0.66603 0.10498 0.43752 0.0
Li971 Li 0.6669 0.12386 0.40666 0.0
C972 C 0.67249 0.12856 0.48631 0.0
N973 N 0.67756 0.14633 0.52817 0.0
C974 C 0.67608 0.14577 0.48615 0.0
C975 C 0.67148 0.12039 0.50775 0.0
C976 C 0.6786 0.15453 0.5075 0.0
C977 C 0.67408 0.12959 0.52873 0.0
C978 C 0.66333 0.15248 0.41465 0.0
C979 C 0.63774 0.15077 0.39733 0.0
N980 N 0.6468 0.16816 0.39316 0.0
C981 C 0.67237 0.17034 0.41023 0.0
C982 C 0.64586 0.14261 0.40817 0.0
C983 C 0.66379 0.17802 0.39934 0.0
C984 C 0.71471 0.16879 0.43995 0.0
N985 N 0.70762 0.15322 0.45115 0.0
C986 C 0.73122 0.16427 0.47846 0.0
C987 C 0.71555 0.15068 0.46998 0.0
C988 C 0.73855 0.18063 0.46767 0.0
C989 C 0.73021 0.18279 0.44805 0.0
H990 H 0.70812 0.17039 0.42499 0.0
H991 H 0.70951 0.13824 0.4788 0.0
C992 C 0.62379 0.11133 0.46969 0.0
N993 N 0.63726 0.12637 0.46131 0.0
C994 C 0.61014 0.11147 0.48165 0.0
C995 C 0.6245 0.14259 0.47616 0.0
C996 C 0.63802 0.14189 0.46465 0.0
C997 C 0.61032 0.12722 0.48473 0.0
H998 H 0.62364 0.09922 0.46694 0.0
H999 H 0.64904 0.15372 0.45828 0.0
C1000 C 0.6996 0.11707 0.42082 0.0
N1001 N 0.72733 0.11201 0.42963 0.0
C1002 C 0.71134 0.11943 0.40286 0.0
C1003 C 0.70195 0.11208 0.44325 0.0
C1004 C 0.72528 0.11683 0.40766 0.0
C1005 C 0.71605 0.1096 0.44736 0.0
C1006 C 0.63705 0.09047 0.40879 0.0
C1007 C 0.6457 0.08604 0.39204 0.0
C1008 C 0.61917 0.07981 0.41191 0.0
C1009 C 0.63627 0.07098 0.37864 0.0
C1010 C 0.6102 0.06486 0.39816 0.0
N1011 N 0.61886 0.06079 0.38196 0.0
C1012 C 0.65151 0.0739 0.46283 0.0
C1013 C 0.6664 0.07372 0.42828 0.0
C1014 C 0.64552 0.05628 0.46648 0.0
N1015 N 0.66145 0.0821 0.44374 0.0
C1016 C 0.66063 0.05607 0.43118 0.0
C1017 C 0.64968 0.04701 0.45017 0.0
H1018 H 0.6477 0.08092 0.47472 0.0
H1019 H 0.67416 0.08052 0.41309 0.0
C1020 C 0.68002 0.1322 0.36062 0.0
N1021 N 0.66521 0.12585 0.3735 0.0
C1022 C 0.6794 0.13284 0.33609 0.0
C1023 C 0.64832 0.12082 0.33861 0.0
C1024 C 0.64954 0.12032 0.36306 0.0
C1025 C 0.66335 0.12695 0.32473 0.0
H1026 H 0.69228 0.13646 0.36942 0.0
H1027 H 0.63791 0.11521 0.37367 0.0
O1028 O 0.66998 0.11963 0.46568 0.0
O1029 O 0.67167 0.14484 0.42526 0.0
O1030 O 0.68591 0.1196 0.41626 0.0
O1031 O 0.64599 0.10505 0.42233 0.0
H1032 H 0.67698 0.15236 0.46977 0.0
H1033 H 0.66872 0.10707 0.50815 0.0
H1034 H 0.68141 0.16785 0.50763 0.0
H1035 H 0.67334 0.12343 0.54546 0.0
H1036 H 0.62423 0.14328 0.39225 0.0
H1037 H 0.68588 0.1782 0.41518 0.0
H1038 H 0.63856 0.12882 0.41161 0.0
H1039 H 0.67064 0.19182 0.39581 0.0
H1040 H 0.73721 0.16219 0.49379 0.0
H1041 H 0.73557 0.19522 0.4392 0.0
H1042 H 0.59937 0.09936 0.48795 0.0
H1043 H 0.62516 0.155 0.47847 0.0
H1044 H 0.70968 0.12324 0.38537 0.0
H1045 H 0.69301 0.11011 0.45738 0.0
H1046 H 0.73446 0.11863 0.39393 0.0
H1047 H 0.71803 0.10576 0.46464 0.0
H1048 H 0.65955 0.09408 0.38946 0.0
H1049 H 0.61229 0.08306 0.42484 0.0
H1050 H 0.64281 0.06738 0.36564 0.0
H1051 H 0.59634 0.05648 0.40039 0.0
H1052 H 0.63731 0.04987 0.48155 0.0
H1053 H 0.66398 0.04942 0.41801 0.0
H1054 H 0.69129 0.13746 0.32613 0.0
H1055 H 0.63572 0.11639 0.33067 0.0
Li1056 Li 0.64795 0.52233 0.93769 0.0
Li1057 Li 0.66074 0.55408 0.93462 0.0
Li1058 Li 0.66629 0.53769 0.90402 0.0
Li1059 Li 0.67937 0.542 0.94252 0.0
C1060 C 0.63042 0.5255 0.89853 0.0
N1061 N 0.60348 0.50476 0.8685 0.0
C1062 C 0.61799 0.53009 0.89264 0.0
C1063 C 0.62919 0.5104 0.88914 0.0
C1064 C 0.60445 0.51942 0.87743 0.0
C1065 C 0.61547 0.50008 0.87399 0.0
C1066 C 0.66688 0.55055 0.9821 0.0
C1067 C 0.68681 0.57808 -0.0001 0.0
N1068 N 0.68079 0.57113 0.02156 0.0
C1069 C 0.66088 0.54366 0.00452 0.0
C1070 C 0.67994 0.56789 0.97974 0.0
C1071 C 0.66808 0.55429 0.02426 0.0
C1072 C 0.63045 0.48848 0.95637 0.0
N1073 N 0.62839 0.50179 0.94856 0.0
C1074 C 0.5982 0.48618 0.95808 0.0
C1075 C 0.61272 0.50096 0.94927 0.0
C1076 C 0.59989 0.47221 0.9664 0.0
C1077 C 0.61628 0.47346 0.96539 0.0
H1078 H 0.64314 0.48962 0.95579 0.0
H1079 H 0.61157 0.51189 0.94329 0.0
C1080 C 0.66415 0.58652 0.92503 0.0
N1081 N 0.65614 0.57236 0.93921 0.0
C1082 C 0.65954 0.59937 0.92605 0.0
C1083 C 0.6388 0.58295 0.95664 0.0
C1084 C 0.64386 0.57044 0.95507 0.0
C1085 C 0.64643 0.59748 0.94165 0.0
H1086 H 0.6737 0.58752 0.91237 0.0
H1087 H 0.63757 0.55887 0.96587 0.0
C1088 C 0.67315 0.51003 0.91461 0.0
N1089 N 0.68521 0.48963 0.89482 0.0
C1090 C 0.691 0.51653 0.91202 0.0
C1091 C 0.66146 0.49304 0.90746 0.0
C1092 C 0.69683 0.50604 0.9019 0.0
C1093 C 0.66781 0.48297 0.89739 0.0
C1094 C 0.6996 0.57033 0.91177 0.0
C1095 C 0.70755 0.56348 0.89757 0.0
C1096 C 0.70884 0.58785 0.91822 0.0
C1097 C 0.72472 0.57419 0.89038 0.0
C1098 C 0.726 0.59814 0.91068 0.0
N1099 N 0.73352 0.59115 0.89705 0.0
C1100 C 0.66519 0.54875 0.85938 0.0
C1101 C 0.67352 0.52726 0.85872 0.0
C1102 C 0.66638 0.5502 0.83493 0.0
N1103 N 0.66873 0.53743 0.87074 0.0
C1104 C 0.67501 0.52839 0.8342 0.0
C1105 C 0.67144 0.54 0.82197 0.0
H1106 H 0.66135 0.55662 0.86943 0.0
H1107 H 0.67632 0.51838 0.86801 0.0
C1108 C 0.69733 0.52983 0.9688 0.0
N1109 N 0.69872 0.54469 0.96 0.0
C1110 C 0.71109 0.5303 0.98115 0.0
C1111 C 0.72723 0.56147 0.97611 0.0
C1112 C 0.71314 0.56039 0.96375 0.0
C1113 C 0.72637 0.54626 0.98476 0.0
H1114 H 0.68558 0.51756 0.96583 0.0
H1115 H 0.71375 0.57207 0.95722 0.0
O1116 O 0.64376 0.53584 0.91335 0.0
O1117 O 0.66002 0.54024 0.96266 0.0
O1118 O 0.66713 0.52 0.92467 0.0
O1119 O 0.68278 0.56012 0.91901 0.0
H1120 H 0.61881 0.54177 0.89976 0.0
H1121 H 0.63876 0.50676 0.89341 0.0
H1122 H 0.59472 0.52279 0.87272 0.0
H1123 H 0.61436 0.48836 0.86657 0.0
H1124 H 0.69694 0.59152 0.99832 0.0
H1125 H 0.65079 0.53024 0.00662 0.0
H1126 H 0.68477 0.57342 0.96255 0.0
H1127 H 0.66357 0.54913 0.04173 0.0
H1128 H 0.58588 0.48587 0.95888 0.0
H1129 H 0.61811 0.46294 0.97143 0.0
H1130 H 0.66586 0.61044 0.91435 0.0
H1131 H 0.62846 0.58082 0.96864 0.0
H1132 H 0.70028 0.52948 0.91784 0.0
H1133 H 0.64762 0.48765 0.90968 0.0
H1134 H 0.71059 0.51094 0.89972 0.0
H1135 H 0.6589 0.46985 0.89168 0.0
H1136 H 0.70053 0.55009 0.89201 0.0
H1137 H 0.70287 0.59342 0.9291 0.0
H1138 H 0.73104 0.56902 0.87943 0.0
H1139 H 0.73333 0.61169 0.91568 0.0
H1140 H 0.66318 0.55909 0.82628 0.0
H1141 H 0.67915 0.52041 0.82498 0.0
H1142 H 0.70991 0.51822 0.9873 0.0
H1143 H 0.73863 0.57408 0.97891 0.0
Li1144 Li 0.1246 0.66406 0.39974 0.0
Li1145 Li 0.13576 0.68053 0.43448 0.0
Li1146 Li 0.12697 0.64967 0.4364 0.0
Li1147 Li 0.10589 0.66029 0.43348 0.0
C1148 C 0.16283 0.67821 0.41975 0.0
N1149 N 0.1979 0.70021 0.42713 0.0
C1150 C 0.1731 0.68963 0.40201 0.0
C1151 C 0.1704 0.67785 0.44117 0.0
C1152 C 0.19082 0.70067 0.4061 0.0
C1153 C 0.18815 0.68913 0.44459 0.0
C1154 C 0.12398 0.69775 0.40915 0.0
C1155 C 0.12789 0.72522 0.4226 0.0
N1156 N 0.13579 0.73264 0.40187 0.0
C1157 C 0.13205 0.70563 0.38792 0.0
C1158 C 0.12177 0.70759 0.42657 0.0
C1159 C 0.13795 0.72329 0.3846 0.0
C1160 C 0.11266 0.66441 0.3543 0.0
N1161 N 0.12528 0.66339 0.36647 0.0
C1162 C 0.13749 0.65993 0.33084 0.0
C1163 C 0.1376 0.66121 0.35537 0.0
C1164 C 0.12445 0.66068 0.31783 0.0
C1165 C 0.11195 0.66299 0.32983 0.0
H1166 H 0.10305 0.66614 0.36369 0.0
H1167 H 0.14734 0.66024 0.36559 0.0
C1168 C 0.15555 0.70416 0.47011 0.0
N1169 N 0.15317 0.70258 0.4464 0.0
C1170 C 0.16858 0.7196 0.47985 0.0
C1171 C 0.17658 0.73156 0.44061 0.0
C1172 C 0.16343 0.71585 0.43162 0.0
C1173 C 0.17935 0.73352 0.46503 0.0
H1174 H 0.14755 0.69331 0.48146 0.0
H1175 H 0.16171 0.71412 0.41281 0.0
C1176 C 0.09695 0.63267 0.39583 0.0
N1177 N 0.07839 0.61575 0.35586 0.0
C1178 C 0.08167 0.63273 0.39013 0.0
C1179 C 0.10277 0.62402 0.38112 0.0
C1180 C 0.07246 0.62407 0.36989 0.0
C1181 C 0.09323 0.61556 0.361 0.0
C1182 C 0.11215 0.66139 0.47847 0.0
C1183 C 0.10339 0.64521 0.48961 0.0
C1184 C 0.10983 0.67496 0.4865 0.0
C1185 C 0.09241 0.64287 0.50856 0.0
C1186 C 0.09872 0.67209 0.50549 0.0
N1187 N 0.09031 0.65624 0.51603 0.0
C1188 C 0.13523 0.63321 0.47257 0.0
C1189 C 0.13026 0.61967 0.43519 0.0
C1190 C 0.13733 0.6201 0.4828 0.0
N1191 N 0.13139 0.63255 0.44927 0.0
C1192 C 0.13245 0.60639 0.44461 0.0
C1193 C 0.13576 0.60637 0.46879 0.0
H1194 H 0.13639 0.6438 0.48328 0.0
H1195 H 0.12744 0.61957 0.4167 0.0
C1196 C 0.07756 0.66628 0.43864 0.0
N1197 N 0.0832 0.65484 0.44261 0.0
C1198 C 0.0604 0.66163 0.44365 0.0
C1199 C 0.05538 0.63371 0.45725 0.0
C1200 C 0.07255 0.63882 0.45172 0.0
C1201 C 0.04907 0.64509 0.45288 0.0
H1202 H 0.08622 0.67881 0.43096 0.0
H1203 H 0.07728 0.62983 0.45406 0.0
O1204 O 0.14541 0.66759 0.41631 0.0
O1205 O 0.11805 0.68045 0.41267 0.0
O1206 O 0.10642 0.64146 0.41527 0.0
O1207 O 0.12273 0.66387 0.45959 0.0
H1208 H 0.1674 0.69013 0.38538 0.0
H1209 H 0.16258 0.66914 0.45511 0.0
H1210 H 0.19892 0.70967 0.39259 0.0
H1211 H 0.19416 0.68911 0.46114 0.0
H1212 H 0.12636 0.733 0.436 0.0
H1213 H 0.13394 0.69827 0.37425 0.0
H1214 H 0.11551 0.70171 0.44306 0.0
H1215 H 0.1443 0.72957 0.36831 0.0
H1216 H 0.14726 0.65801 0.32219 0.0
H1217 H 0.1018 0.66381 0.32038 0.0
H1218 H 0.17028 0.72061 0.49879 0.0
H1219 H 0.18483 0.74185 0.42855 0.0
H1220 H 0.07705 0.63956 0.40095 0.0
H1221 H 0.11477 0.62419 0.38481 0.0
H1222 H 0.06066 0.62407 0.36526 0.0
H1223 H 0.09768 0.60895 0.34939 0.0
H1224 H 0.10474 0.63445 0.48339 0.0
H1225 H 0.11648 0.68755 0.4781 0.0
H1226 H 0.08546 0.63039 0.51724 0.0
H1227 H 0.09677 0.68247 0.51182 0.0
H1228 H 0.14012 0.62066 0.50146 0.0
H1229 H 0.13107 0.59599 0.43324 0.0
H1230 H 0.05596 0.67072 0.43997 0.0
H1231 H 0.04694 0.6207 0.46386 0.0
Li1232 Li 0.47012 0.12293 0.93309 0.0
Li1233 Li 0.43793 0.10408 0.92855 0.0
Li1234 Li 0.45635 0.12438 0.89693 0.0
Li1235 Li 0.45122 0.13542 0.93232 0.0
C1236 C 0.46416 0.09386 0.90895 0.0
N1237 N 0.4794 0.07337 0.90777 0.0
C1238 C 0.45814 0.07942 0.92375 0.0
C1239 C 0.47775 0.09773 0.8933 0.0
C1240 C 0.46607 0.06926 0.92296 0.0
C1241 C 0.48534 0.08725 0.89303 0.0
C1242 C 0.45072 0.12575 0.97634 0.0
C1243 C 0.4346 0.13132 0.00583 0.0
N1244 N 0.44968 0.14185 0.01741 0.0
C1245 C 0.46605 0.13657 0.98855 0.0
C1246 C 0.43485 0.12302 0.98506 0.0
C1247 C 0.46525 0.1446 0.00929 0.0
C1248 C 0.50598 0.1371 0.94443 0.0
N1249 N 0.48967 0.12341 0.9474 0.0
C1250 C 0.5003 0.10926 0.97256 0.0
C1251 C 0.48658 0.10979 0.96146 0.0
C1252 C 0.51733 0.12305 0.96948 0.0
C1253 C 0.5201 0.13717 0.95533 0.0
H1254 H 0.50806 0.14804 0.93381 0.0
H1255 H 0.4734 0.0994 0.96422 0.0
C1256 C 0.41227 0.07064 0.91642 0.0
N1257 N 0.41929 0.08167 0.93492 0.0
C1258 C 0.40035 0.05313 0.92031 0.0
C1259 C 0.40258 0.05888 0.96219 0.0
C1260 C 0.41457 0.07627 0.95748 0.0
C1261 C 0.39562 0.04695 0.9435 0.0
H1262 H 0.41658 0.07531 0.89871 0.0
H1263 H 0.42061 0.08531 0.97186 0.0
C1264 C 0.48645 0.15569 0.9021 0.0
N1265 N 0.51183 0.17927 0.87221 0.0
C1266 C 0.48884 0.17238 0.89952 0.0
C1267 C 0.49706 0.15104 0.88962 0.0
C1268 C 0.50172 0.18411 0.88429 0.0
C1269 C 0.50979 0.16312 0.87456 0.0
C1270 C 0.42717 0.12813 0.89502 0.0
C1271 C 0.43754 0.14575 0.88969 0.0
C1272 C 0.41048 0.11873 0.88551 0.0
C1273 C 0.43103 0.15371 0.87491 0.0
C1274 C 0.40442 0.12715 0.8708 0.0
N1275 N 0.41474 0.14432 0.86585 0.0
C1276 C 0.45272 0.1106 0.85199 0.0
C1277 C 0.46463 0.1411 0.85133 0.0
C1278 C 0.45357 0.11015 0.82748 0.0
N1279 N 0.45835 0.12592 0.8634 0.0
C1280 C 0.46602 0.14131 0.82681 0.0
C1281 C 0.46048 0.12568 0.81448 0.0
H1282 H 0.44744 0.09866 0.86197 0.0
H1283 H 0.46861 0.1531 0.86063 0.0
C1284 C 0.46277 0.16684 0.95549 0.0
N1285 N 0.44833 0.15319 0.9462 0.0
C1286 C 0.46172 0.18021 0.9667 0.0
C1287 C 0.43091 0.16528 0.95844 0.0
C1288 C 0.43254 0.15208 0.94755 0.0
C1289 C 0.44565 0.17962 0.96816 0.0
H1290 H 0.47509 0.16719 0.95443 0.0
H1291 H 0.42123 0.14092 0.94024 0.0
O1292 O 0.45667 0.10405 0.9096 0.0
O1293 O 0.45129 0.11816 0.95567 0.0
O1294 O 0.4738 0.144 0.91678 0.0
O1295 O 0.43329 0.11999 0.90929 0.0
H1296 H 0.44761 0.07621 0.93595 0.0
H1297 H 0.48234 0.10864 0.88139 0.0
H1298 H 0.46164 0.05814 0.93445 0.0
H1299 H 0.49591 0.09013 0.88107 0.0
H1300 H 0.42243 0.12944 0.0127 0.0
H1301 H 0.47845 0.13889 0.98195 0.0
H1302 H 0.42289 0.11481 0.97566 0.0
H1303 H 0.47702 0.15308 0.01888 0.0
H1304 H 0.49757 0.09831 0.98374 0.0
H1305 H 0.53304 0.14807 0.95253 0.0
H1306 H 0.39562 0.0444 0.90537 0.0
H1307 H 0.39921 0.05474 0.98031 0.0
H1308 H 0.48077 0.17623 0.90907 0.0
H1309 H 0.49544 0.13822 0.89153 0.0
H1310 H 0.50366 0.19704 0.88205 0.0
H1311 H 0.51804 0.15967 0.86472 0.0
H1312 H 0.45049 0.1532 0.89684 0.0
H1313 H 0.40231 0.10505 0.88945 0.0
H1314 H 0.43893 0.16734 0.87062 0.0
H1315 H 0.39152 0.12004 0.86331 0.0
H1316 H 0.44867 0.0977 0.81886 0.0
H1317 H 0.47158 0.15365 0.81773 0.0
H1318 H 0.47336 0.19079 0.9744 0.0
H1319 H 0.4183 0.16434 0.959 0.0
Li1320 Li 0.34337 0.48329 0.42842 0.0
Li1321 Li 0.33715 0.45321 0.42705 0.0
Li1322 Li 0.33035 0.4662 0.39371 0.0
Li1323 Li 0.31361 0.45885 0.42992 0.0
C1324 C 0.36287 0.475 0.38773 0.0
N1325 N 0.38064 0.47802 0.34645 0.0
C1326 C 0.36563 0.46154 0.38049 0.0
C1327 C 0.36922 0.49002 0.37403 0.0
C1328 C 0.37465 0.46332 0.35957 0.0
C1329 C 0.37813 0.49129 0.35319 0.0
C1330 C 0.33803 0.46024 0.47208 0.0
C1331 C 0.33452 0.43841 0.50026 0.0
N1332 N 0.35027 0.44973 0.50969 0.0
C1333 C 0.35414 0.47168 0.48212 0.0
C1334 C 0.32808 0.4435 0.48129 0.0
C1335 C 0.36011 0.46611 0.5011 0.0
C1336 C 0.35481 0.5128 0.45821 0.0
N1337 N 0.35951 0.50544 0.44085 0.0
C1338 C 0.38916 0.52777 0.44412 0.0
C1339 C 0.37626 0.51267 0.43354 0.0
C1340 C 0.38479 0.53546 0.46247 0.0
C1341 C 0.36731 0.52806 0.46918 0.0
H1342 H 0.34147 0.5065 0.46413 0.0
H1343 H 0.37972 0.50634 0.42011 0.0
C1344 C 0.33799 0.42161 0.43183 0.0
N1345 N 0.34664 0.43907 0.43539 0.0
C1346 C 0.34641 0.41209 0.43552 0.0
C1347 C 0.37218 0.43866 0.44713 0.0
C1348 C 0.36333 0.44764 0.44309 0.0
C1349 C 0.36387 0.42072 0.44278 0.0
H1350 H 0.32481 0.41521 0.42526 0.0
H1351 H 0.36994 0.46158 0.44535 0.0
C1352 C 0.32406 0.49617 0.4147 0.0
N1353 N 0.32762 0.52834 0.42369 0.0
C1354 C 0.31313 0.49779 0.43095 0.0
C1355 C 0.33674 0.5109 0.40295 0.0
C1356 C 0.31515 0.51417 0.43524 0.0
C1357 C 0.33836 0.52705 0.40778 0.0
C1358 C 0.29937 0.42959 0.40566 0.0
C1359 C 0.28963 0.42841 0.38571 0.0
C1360 C 0.29178 0.41737 0.42372 0.0
C1361 C 0.27234 0.41508 0.38427 0.0
C1362 C 0.27444 0.40426 0.42164 0.0
N1363 N 0.26517 0.4034 0.40212 0.0
C1364 C 0.32996 0.45357 0.34841 0.0
C1365 C 0.32914 0.47982 0.349 0.0
C1366 C 0.33047 0.45378 0.32386 0.0
N1367 N 0.32951 0.46657 0.36038 0.0
C1368 C 0.32961 0.48054 0.32443 0.0
C1369 C 0.3304 0.46746 0.31155 0.0
H1370 H 0.33024 0.4432 0.358 0.0
H1371 H 0.32864 0.48989 0.35899 0.0
C1372 C 0.28914 0.44986 0.46637 0.0
N1373 N 0.2913 0.45141 0.44263 0.0
C1374 C 0.27335 0.44626 0.47636 0.0
C1375 C 0.26215 0.44533 0.43722 0.0
C1376 C 0.27824 0.44921 0.42801 0.0
C1377 C 0.25972 0.44417 0.46171 0.0
H1378 H 0.29985 0.45202 0.47759 0.0
H1379 H 0.28052 0.45104 0.40925 0.0
O1380 O 0.35369 0.47333 0.40785 0.0
O1381 O 0.33207 0.46533 0.45324 0.0
O1382 O 0.32241 0.48028 0.41041 0.0
O1383 O 0.31626 0.44264 0.40752 0.0
H1384 H 0.36069 0.44975 0.39074 0.0
H1385 H 0.36706 0.5005 0.37926 0.0
H1386 H 0.37682 0.45298 0.3537 0.0
H1387 H 0.38299 0.50278 0.34233 0.0
H1388 H 0.32701 0.42546 0.50747 0.0
H1389 H 0.36204 0.48466 0.4752 0.0
H1390 H 0.31559 0.43448 0.47373 0.0
H1391 H 0.37259 0.4748 0.50897 0.0
H1392 H 0.40251 0.53314 0.43843 0.0
H1393 H 0.3635 0.5335 0.48348 0.0
H1394 H 0.3396 0.39831 0.43169 0.0
H1395 H 0.38555 0.44579 0.45302 0.0
H1396 H 0.30328 0.48657 0.44026 0.0
H1397 H 0.34541 0.50991 0.3905 0.0
H1398 H 0.30682 0.51563 0.44782 0.0
H1399 H 0.34819 0.53857 0.39893 0.0
H1400 H 0.2953 0.43779 0.3716 0.0
H1401 H 0.29914 0.4181 0.43927 0.0
H1402 H 0.26461 0.41406 0.36899 0.0
H1403 H 0.26836 0.39478 0.43554 0.0
H1404 H 0.33128 0.44354 0.31465 0.0
H1405 H 0.32928 0.49117 0.31563 0.0
H1406 H 0.27192 0.44549 0.49534 0.0
H1407 H 0.25202 0.4441 0.42543 0.0
Li1408 Li 0.8654 0.3442 0.93191 0.0
Li1409 Li 0.887 0.3356 0.93213 0.0
Li1410 Li 0.86791 0.32886 0.89856 0.0
Li1411 Li 0.85701 0.31396 0.93504 0.0
C1412 C 0.89827 0.36866 0.91527 0.0
N1413 N 0.92439 0.402 0.92552 0.0
C1414 C 0.9012 0.37462 0.93854 0.0
C1415 C 0.90862 0.37965 0.89723 0.0
C1416 C 0.91447 0.39152 0.94336 0.0
C1417 C 0.92176 0.39647 0.90277 0.0
C1418 C 0.87369 0.32563 0.9775 0.0
C1419 C 0.88262 0.30675 0.99545 0.0
N1420 N 0.87956 0.31121 0.0171 0.0
C1421 C 0.87065 0.33004 -8e-05 0.0
C1422 C 0.87974 0.3139 0.97522 0.0
C1423 C 0.8737 0.32261 0.01973 0.0
C1424 C 0.85232 0.35898 0.96354 0.0
N1425 N 0.86016 0.36139 0.94224 0.0
C1426 C 0.86237 0.38915 0.93812 0.0
C1427 C 0.86492 0.37595 0.9293 0.0
C1428 C 0.85485 0.38732 0.96047 0.0
C1429 C 0.8495 0.37185 0.97305 0.0
H1430 H 0.84866 0.34724 0.9734 0.0
H1431 H 0.87112 0.37754 0.91238 0.0
C1432 C 0.92064 0.34162 0.92457 0.0
N1433 N 0.91026 0.34294 0.94098 0.0
C1434 C 0.93834 0.34858 0.92899 0.0
C1435 C 0.93418 0.35764 0.96743 0.0
C1436 C 0.9166 0.35063 0.96219 0.0
C1437 C 0.94538 0.35697 0.95055 0.0
H1438 H 0.91525 0.33567 0.90772 0.0
H1439 H 0.90817 0.35183 0.9748 0.0
C1440 C 0.83724 0.33017 0.9021 0.0
N1441 N 0.81887 0.34191 0.87612 0.0
C1442 C 0.81912 0.32155 0.90334 0.0
C1443 C 0.84601 0.34476 0.88761 0.0
C1444 C 0.81007 0.32769 0.89008 0.0
C1445 C 0.8365 0.35049 0.87463 0.0
C1446 C 0.86811 0.29806 0.90245 0.0
C1447 C 0.85067 0.28934 0.89556 0.0
C1448 C 0.87867 0.29109 0.89678 0.0
C1449 C 0.8441 0.27377 0.88307 0.0
C1450 C 0.87161 0.27548 0.88428 0.0
N1451 N 0.85461 0.26722 0.87774 0.0
C1452 C 0.88162 0.33483 0.85279 0.0
C1453 C 0.85102 0.31682 0.85431 0.0
C1454 C 0.88137 0.33366 0.82825 0.0
N1455 N 0.86658 0.32654 0.86522 0.0
C1456 C 0.85015 0.31539 0.82982 0.0
C1457 C 0.86545 0.32391 0.81641 0.0
H1458 H 0.89382 0.34233 0.86199 0.0
H1459 H 0.83924 0.31024 0.8646 0.0
C1460 C 0.82541 0.29198 0.95571 0.0
N1461 N 0.84056 0.2929 0.94936 0.0
C1462 C 0.81226 0.27695 0.9661 0.0
C1463 C 0.83067 0.26417 0.9636 0.0
C1464 C 0.84349 0.27948 0.95317 0.0
C1465 C 0.81476 0.26276 0.97003 0.0
H1466 H 0.82359 0.30297 0.95268 0.0
H1467 H 0.85572 0.28061 0.948 0.0
O1468 O 0.88545 0.35212 0.91003 0.0
O1469 O 0.87065 0.33277 0.958 0.0
O1470 O 0.8462 0.32424 0.91505 0.0
O1471 O 0.87495 0.31337 0.91461 0.0
H1472 H 0.89333 0.36633 0.95275 0.0
H1473 H 0.90652 0.37522 0.87913 0.0
H1474 H 0.91688 0.39629 0.96128 0.0
H1475 H 0.92987 0.40512 0.88898 0.0
H1476 H 0.8873 0.29765 0.99393 0.0
H1477 H 0.86599 0.33911 0.002 0.0
H1478 H 0.88224 0.31036 0.95807 0.0
H1479 H 0.87139 0.32591 0.03719 0.0
H1480 H 0.86647 0.40077 0.92771 0.0
H1481 H 0.84381 0.36998 0.99043 0.0
H1482 H 0.94652 0.34802 0.91529 0.0
H1483 H 0.93898 0.36383 0.98435 0.0
H1484 H 0.81213 0.31021 0.91443 0.0
H1485 H 0.86001 0.35156 0.88628 0.0
H1486 H 0.79604 0.32114 0.89088 0.0
H1487 H 0.84313 0.36176 0.86335 0.0
H1488 H 0.84227 0.29449 0.89981 0.0
H1489 H 0.89219 0.29769 0.90199 0.0
H1490 H 0.83064 0.26689 0.87764 0.0
H1491 H 0.87964 0.26993 0.87977 0.0
H1492 H 0.89353 0.3402 0.81869 0.0
H1493 H 0.83757 0.3079 0.8215 0.0
H1494 H 0.8003 0.27651 0.9712 0.0
H1495 H 0.83306 0.25348 0.96625 0.0
Li1496 Li 0.54997 0.88581 0.43524 0.0
Li1497 Li 0.5186 0.86643 0.43914 0.0
Li1498 Li 0.53847 0.85482 0.43846 0.0
Li1499 Li 0.53311 0.866 0.40268 0.0
C1500 C 0.54813 0.87276 0.48046 0.0
N1501 N 0.57037 0.87706 0.51713 0.0
C1502 C 0.5423 0.87062 0.50373 0.0
C1503 C 0.56528 0.87708 0.47583 0.0
C1504 C 0.55374 0.87286 0.52204 0.0
C1505 C 0.57631 0.87919 0.49461 0.0
C1506 C 0.52448 0.89482 0.40743 0.0
C1507 C 0.50541 0.89825 0.38054 0.0
N1508 N 0.51089 0.91438 0.38941 0.0
C1509 C 0.53009 0.91153 0.41607 0.0
C1510 C 0.51218 0.88819 0.38934 0.0
C1511 C 0.52299 0.92118 0.40682 0.0
C1512 C 0.58022 0.9184 0.42743 0.0
N1513 N 0.56722 0.90872 0.44283 0.0
C1514 C 0.57539 0.93336 0.46745 0.0
C1515 C 0.56481 0.91572 0.46274 0.0
C1516 C 0.58845 0.94392 0.45138 0.0
C1517 C 0.59112 0.93616 0.43144 0.0
H1518 H 0.58159 0.91248 0.41153 0.0
H1519 H 0.55414 0.90776 0.47442 0.0
C1520 C 0.4852 0.84875 0.45976 0.0
N1521 N 0.49841 0.86458 0.45314 0.0
C1522 C 0.47044 0.84729 0.47064 0.0
C1523 C 0.48335 0.87849 0.46809 0.0
C1524 C 0.49785 0.87933 0.45737 0.0
C1525 C 0.46938 0.8623 0.47483 0.0
H1526 H 0.48617 0.83726 0.45667 0.0
H1527 H 0.50879 0.8918 0.45277 0.0
C1528 C 0.56238 0.86254 0.40213 0.0
N1529 N 0.57471 0.84526 0.37491 0.0
C1530 C 0.55109 0.8456 0.39445 0.0
C1531 C 0.57993 0.8707 0.39596 0.0
C1532 C 0.55758 0.83708 0.3807 0.0
C1533 C 0.58592 0.86174 0.38219 0.0
C1534 C 0.50108 0.83422 0.41113 0.0
C1535 C 0.49759 0.81722 0.40752 0.0
C1536 C 0.48908 0.83901 0.40368 0.0
C1537 C 0.48221 0.80532 0.39625 0.0
C1538 C 0.47384 0.82673 0.39251 0.0
N1539 N 0.47075 0.81029 0.38903 0.0
C1540 C 0.52653 0.82293 0.45928 0.0
C1541 C 0.55683 0.83724 0.45187 0.0
C1542 C 0.52679 0.8084 0.46787 0.0
N1543 N 0.54134 0.83681 0.45122 0.0
C1544 C 0.55771 0.82296 0.46043 0.0
C1545 C 0.54248 0.8082 0.46826 0.0
H1546 H 0.51445 0.82309 0.45875 0.0
H1547 H 0.56844 0.84854 0.44546 0.0
C1548 C 0.54198 0.8796 0.35745 0.0
N1549 N 0.53155 0.8646 0.36921 0.0
C1550 C 0.54185 0.87997 0.33287 0.0
C1551 C 0.52018 0.84945 0.33295 0.0
C1552 C 0.52092 0.84961 0.3575 0.0
C1553 C 0.53075 0.86477 0.32038 0.0
H1554 H 0.55039 0.89128 0.36724 0.0
H1555 H 0.51311 0.83773 0.36705 0.0
O1556 O 0.53701 0.87051 0.4624 0.0
O1557 O 0.53144 0.88529 0.41618 0.0
O1558 O 0.5564 0.87122 0.41558 0.0
O1559 O 0.51612 0.84599 0.42208 0.0
H1560 H 0.52905 0.86726 0.50759 0.0
H1561 H 0.57004 0.87879 0.45795 0.0
H1562 H 0.5494 0.87124 0.54014 0.0
H1563 H 0.5896 0.88252 0.49128 0.0
H1564 H 0.49584 0.89325 0.36658 0.0
H1565 H 0.53974 0.91694 0.4299 0.0
H1566 H 0.50801 0.87549 0.38198 0.0
H1567 H 0.52712 0.93407 0.41346 0.0
H1568 H 0.573 0.93879 0.48314 0.0
H1569 H 0.6009 0.94388 0.41845 0.0
H1570 H 0.45994 0.83457 0.47557 0.0
H1571 H 0.48322 0.89041 0.4715 0.0
H1572 H 0.53749 0.83905 0.39906 0.0
H1573 H 0.58883 0.88382 0.40178 0.0
H1574 H 0.54898 0.82397 0.37465 0.0
H1575 H 0.59948 0.86789 0.37729 0.0
H1576 H 0.50674 0.81329 0.41318 0.0
H1577 H 0.49142 0.852 0.40669 0.0
H1578 H 0.47938 0.79215 0.39324 0.0
H1579 H 0.46444 0.83026 0.38665 0.0
H1580 H 0.51482 0.79742 0.47416 0.0
H1581 H 0.57005 0.82328 0.4604 0.0
H1582 H 0.55015 0.89204 0.32374 0.0
H1583 H 0.51166 0.83742 0.32387 0.0
Li1584 Li 0.44566 0.33297 0.06969 0.0
Li1585 Li 0.47629 0.34405 0.06903 0.0
Li1586 Li 0.45817 0.31397 0.06458 0.0
Li1587 Li 0.46166 0.32849 0.10393 0.0
C1588 C 0.44855 0.32495 0.02434 0.0
N1589 N 0.426 0.31013 0.98684 0.0
C1590 C 0.45274 0.33294 0.00222 0.0
C1591 C 0.43284 0.30946 0.02737 0.0
C1592 C 0.44118 0.32524 0.98349 0.0
C1593 C 0.42163 0.30216 0.00821 0.0
C1594 C 0.47216 0.3674 0.09511 0.0
C1595 C 0.48991 0.39233 0.11943 0.0
N1596 N 0.49077 0.40293 0.10157 0.0
C1597 C 0.47309 0.37852 0.07706 0.0
C1598 C 0.48054 0.37432 0.11653 0.0
C1599 C 0.48262 0.39646 0.08064 0.0
C1600 C 0.41293 0.33102 0.07532 0.0
N1601 N 0.42765 0.33756 0.06217 0.0
C1602 C 0.41903 0.35451 0.03938 0.0
C1603 C 0.43073 0.34883 0.0442 0.0
C1604 C 0.40403 0.34854 0.05322 0.0
C1605 C 0.40077 0.33629 0.07101 0.0
H1606 H 0.41096 0.32223 0.08969 0.0
H1607 H 0.4426 0.35389 0.03414 0.0
C1608 C 0.50008 0.36368 0.03393 0.0
N1609 N 0.49757 0.36323 0.05759 0.0
C1610 C 0.51488 0.37733 0.02371 0.0
C1611 C 0.52458 0.38965 0.06247 0.0
C1612 C 0.50959 0.37571 0.07195 0.0
C1613 C 0.52728 0.39068 0.03799 0.0
H1614 H 0.49058 0.35338 0.02297 0.0
H1615 H 0.50755 0.37491 0.09076 0.0
C1616 C 0.42812 0.29524 0.09568 0.0
N1617 N 0.40465 0.26289 0.11339 0.0
C1618 C 0.43329 0.28753 0.11291 0.0
C1619 C 0.41096 0.28658 0.08764 0.0
C1620 C 0.42124 0.27114 0.12159 0.0
C1621 C 0.39931 0.2702 0.09674 0.0
C1622 C 0.49625 0.33234 0.08301 0.0
C1623 C 0.50305 0.32936 0.06249 0.0
C1624 C 0.50749 0.34273 0.10085 0.0
C1625 C 0.52103 0.33694 0.06008 0.0
C1626 C 0.52539 0.35005 0.09779 0.0
N1627 N 0.53174 0.34704 0.07763 0.0
C1628 C 0.4623 0.29644 0.02647 0.0
C1629 C 0.44959 0.27832 0.05968 0.0
C1630 C 0.46195 0.28279 0.01395 0.0
N1631 N 0.45604 0.29398 0.04884 0.0
C1632 C 0.44912 0.26431 0.04787 0.0
C1633 C 0.45543 0.26647 0.02469 0.0
H1634 H 0.46789 0.30912 0.01841 0.0
H1635 H 0.4452 0.27675 0.07766 0.0
C1636 C 0.4502 0.32942 0.14938 0.0
N1637 N 0.46161 0.3265 0.13712 0.0
C1638 C 0.4496 0.32829 0.17391 0.0
C1639 C 0.47249 0.32113 0.1727 0.0
C1640 C 0.47255 0.32227 0.14816 0.0
C1641 C 0.46093 0.32422 0.18596 0.0
H1642 H 0.44156 0.33261 0.14003 0.0
H1643 H 0.4813 0.31976 0.13791 0.0
O1644 O 0.45972 0.33254 0.04289 0.0
O1645 O 0.46294 0.34981 0.09199 0.0
O1646 O 0.43959 0.31147 0.08735 0.0
O1647 O 0.4787 0.32532 0.08546 0.0
H1648 H 0.46474 0.34504 -0.00044 0.0
H1649 H 0.42935 0.30306 0.04424 0.0
H1650 H 0.44426 0.3313 0.9663 0.0
H1651 H 0.40946 0.29014 0.01032 0.0
H1652 H 0.49653 0.39789 0.13587 0.0
H1653 H 0.46673 0.37336 0.06036 0.0
H1654 H 0.47989 0.36585 0.13068 0.0
H1655 H 0.48357 0.40523 0.06677 0.0
H1656 H 0.42192 0.36387 0.02541 0.0
H1657 H 0.38942 0.33154 0.08219 0.0
H1658 H 0.51661 0.37739 0.00482 0.0
H1659 H 0.53378 0.39967 0.07414 0.0
H1660 H 0.44653 0.29397 0.11922 0.0
H1661 H 0.40666 0.29245 0.07454 0.0
H1662 H 0.4251 0.26497 0.13481 0.0
H1663 H 0.386 0.26333 0.09063 0.0
H1664 H 0.49454 0.32143 0.04847 0.0
H1665 H 0.50247 0.34542 0.11668 0.0
H1666 H 0.52647 0.33482 0.04424 0.0
H1667 H 0.53425 0.35822 0.11137 0.0
H1668 H 0.46683 0.28506 0.99606 0.0
H1669 H 0.44432 0.25208 0.05706 0.0
H1670 H 0.44024 0.33044 0.1833 0.0
H1671 H 0.48157 0.31811 0.18118 0.0
Li1672 Li 0.13795 0.45466 0.55995 0.0
Li1673 Li 0.12927 0.45947 0.59891 0.0
Li1674 Li 0.10846 0.44207 0.56895 0.0
Li1675 Li 0.12613 0.47372 0.56378 0.0
C1676 C 0.11587 0.41989 0.58869 0.0
N1677 N 0.09538 0.38452 0.59588 0.0
C1678 C 0.11135 0.41326 0.61152 0.0
C1679 C 0.11028 0.40846 0.56955 0.0
C1680 C 0.10091 0.39536 0.6148 0.0
C1681 C 0.09984 0.39065 0.57353 0.0
C1682 C 0.1641 0.48202 0.58608 0.0
C1683 C 0.19357 0.50438 0.5942 0.0
N1684 N 0.19716 0.49207 0.60209 0.0
C1685 C 0.16809 0.46959 0.59432 0.0
C1686 C 0.17694 0.49956 0.58601 0.0
C1687 C 0.18488 0.47494 0.60231 0.0
C1688 C 0.16851 0.46737 0.53398 0.0
N1689 N 0.15555 0.45262 0.54379 0.0
C1690 C 0.16988 0.43691 0.5334 0.0
C1691 C 0.15587 0.43749 0.54354 0.0
C1692 C 0.18372 0.45212 0.52391 0.0
C1693 C 0.18284 0.46743 0.52397 0.0
H1694 H 0.16792 0.47922 0.53453 0.0
H1695 H 0.14552 0.42603 0.55176 0.0
C1696 C 0.1184 0.45155 0.6454 0.0
N1697 N 0.13263 0.46207 0.63227 0.0
C1698 C 0.11918 0.45238 0.66994 0.0
C1699 C 0.1491 0.47532 0.66711 0.0
C1700 C 0.14771 0.47409 0.64261 0.0
C1701 C 0.13474 0.4643 0.6811 0.0
H1702 H 0.10641 0.44248 0.63673 0.0
H1703 H 0.15865 0.48294 0.63205 0.0
C1704 C 0.12643 0.45542 0.51817 0.0
N1705 N 0.14088 0.45623 0.47473 0.0
C1706 C 0.13613 0.47116 0.50625 0.0
C1707 C 0.12391 0.44005 0.50783 0.0
C1708 C 0.14336 0.47131 0.48434 0.0
C1709 C 0.13138 0.44074 0.48592 0.0
C1710 C 0.10635 0.47168 0.60291 0.0
C1711 C 0.0898 0.46698 0.61128 0.0
C1712 C 0.12054 0.48771 0.60929 0.0
C1713 C 0.08769 0.47845 0.62587 0.0
C1714 C 0.11789 0.49881 0.62391 0.0
N1715 N 0.10166 0.49399 0.63183 0.0
C1716 C 0.07593 0.41693 0.58529 0.0
C1717 C 0.07912 0.4162 0.54391 0.0
C1718 C 0.05872 0.40354 0.58395 0.0
N1719 N 0.08565 0.42302 0.56543 0.0
C1720 C 0.06195 0.40275 0.54173 0.0
C1721 C 0.05143 0.3964 0.56191 0.0
H1722 H 0.0815 0.42274 0.60214 0.0
H1723 H 0.08715 0.42139 0.5284 0.0
C1724 C 0.14213 0.50814 0.5472 0.0
N1725 N 0.12661 0.4941 0.55293 0.0
C1726 C 0.14286 0.52328 0.53893 0.0
C1727 C 0.11166 0.50929 0.5431 0.0
C1728 C 0.11151 0.49436 0.55106 0.0
C1729 C 0.12748 0.52396 0.53679 0.0
H1730 H 0.1539 0.50749 0.54878 0.0
H1731 H 0.09936 0.48295 0.5557 0.0
O1732 O 0.12587 0.43743 0.5851 0.0
O1733 O 0.14787 0.47713 0.5776 0.0
O1734 O 0.11956 0.45508 0.53988 0.0
O1735 O 0.10858 0.46048 0.58878 0.0
H1736 H 0.11594 0.4218 0.6266 0.0
H1737 H 0.11374 0.41332 0.55179 0.0
H1738 H 0.09724 0.39008 0.63238 0.0
H1739 H 0.09525 0.3817 0.55883 0.0
H1740 H 0.20362 0.5179 0.59425 0.0
H1741 H 0.15838 0.45597 0.59455 0.0
H1742 H 0.17409 0.50935 0.57972 0.0
H1743 H 0.18815 0.46546 0.60869 0.0
H1744 H 0.17023 0.4249 0.5338 0.0
H1745 H 0.19322 0.47937 0.51663 0.0
H1746 H 0.1078 0.44362 0.68005 0.0
H1747 H 0.16121 0.48499 0.67501 0.0
H1748 H 0.13817 0.48317 0.51387 0.0
H1749 H 0.1164 0.42773 0.51667 0.0
H1750 H 0.15098 0.48343 0.47501 0.0
H1751 H 0.12964 0.42896 0.47782 0.0
H1752 H 0.0787 0.45458 0.60656 0.0
H1753 H 0.13346 0.49155 0.60308 0.0
H1754 H 0.07495 0.47498 0.63248 0.0
H1755 H 0.12875 0.51125 0.62898 0.0
H1756 H 0.05103 0.39929 0.59991 0.0
H1757 H 0.05689 0.39754 0.52444 0.0
H1758 H 0.15533 0.53436 0.5344 0.0
H1759 H 0.0995 0.50925 0.54147 0.0
Li1760 Li 0.67978 0.14203 0.0637 0.0
Li1761 Li 0.66632 0.13321 0.10246 0.0
Li1762 Li 0.65982 0.1119 0.07005 0.0
Li1763 Li 0.64782 0.13139 0.06874 0.0
C1764 C 0.69948 0.13257 0.08769 0.0
N1765 N 0.73494 0.14566 0.08918 0.0
C1766 C 0.70913 0.14236 0.10704 0.0
C1767 C 0.70782 0.12928 0.06921 0.0
C1768 C 0.72705 0.14889 0.10744 0.0
C1769 C 0.72577 0.13607 0.07025 0.0
C1770 C 0.66906 0.16675 0.09216 0.0
C1771 C 0.65515 0.18159 0.10909 0.0
N1772 N 0.67095 0.1961 0.11186 0.0
C1773 C 0.68514 0.18188 0.09494 0.0
C1774 C 0.65392 0.16666 0.09908 0.0
C1775 C 0.68583 0.19655 0.10503 0.0
C1776 C 0.69915 0.15819 0.02316 0.0
N1777 N 0.69989 0.15837 0.04707 0.0
C1778 C 0.72862 0.18283 0.04646 0.0
C1779 C 0.71426 0.17028 0.05883 0.0
C1780 C 0.72812 0.18316 0.02174 0.0
C1781 C 0.71321 0.17049 0.01007 0.0
H1782 H 0.68751 0.14871 0.01423 0.0
H1783 H 0.71446 0.17026 0.07785 0.0
C1784 C 0.6647 0.12144 0.14811 0.0
N1785 N 0.66912 0.13614 0.1357 0.0
C1786 C 0.66581 0.12193 0.17264 0.0
C1787 C 0.67619 0.15276 0.17121 0.0
C1788 C 0.67492 0.15167 0.14668 0.0
C1789 C 0.67151 0.13773 0.18455 0.0
H1790 H 0.66023 0.10928 0.13887 0.0
H1791 H 0.6785 0.16321 0.13656 0.0
C1792 C 0.65531 0.11511 0.02481 0.0
N1793 N 0.64544 0.09145 0.98835 0.0
C1794 C 0.63853 0.1076 0.01555 0.0
C1795 C 0.66715 0.11075 0.01534 0.0
C1796 C 0.63377 0.09563 0.99715 0.0
C1797 C 0.66188 0.09871 0.99697 0.0
C1798 C 0.62961 0.10782 0.10719 0.0
C1799 C 0.61701 0.09022 0.10822 0.0
C1800 C 0.62805 0.11968 0.12165 0.0
C1801 C 0.60291 0.08482 0.12348 0.0
C1802 C 0.61378 0.11378 0.13671 0.0
N1803 N 0.60159 0.09661 0.13729 0.0
C1804 C 0.66524 0.08305 0.06354 0.0
C1805 C 0.63703 0.07834 0.05543 0.0
C1806 C 0.66006 0.06593 0.05727 0.0
N1807 N 0.6537 0.08883 0.06247 0.0
C1808 C 0.63137 0.06126 0.0488 0.0
C1809 C 0.64293 0.05485 0.04972 0.0
H1810 H 0.67841 0.09171 0.06927 0.0
H1811 H 0.62815 0.08332 0.05491 0.0
C1812 C 0.63203 0.14805 0.04614 0.0
N1813 N 0.62877 0.13342 0.05793 0.0
C1814 C 0.6184 0.14938 0.03611 0.0
C1815 C 0.59835 0.12063 0.05076 0.0
C1816 C 0.61235 0.11984 0.06044 0.0
C1817 C 0.60129 0.13545 0.03813 0.0
H1818 H 0.64527 0.15851 0.04409 0.0
H1819 H 0.61014 0.10819 0.06937 0.0
O1820 O 0.68194 0.12613 0.08694 0.0
O1821 O 0.66815 0.15232 0.0821 0.0
O1822 O 0.6601 0.12657 0.04317 0.0
O1823 O 0.64351 0.11327 0.09235 0.0
H1824 H 0.70287 0.14498 0.12153 0.0
H1825 H 0.70054 0.1217 0.05413 0.0
H1826 H 0.7347 0.15656 0.12225 0.0
H1827 H 0.73242 0.13374 0.056 0.0
H1828 H 0.64354 0.18166 0.11457 0.0
H1829 H 0.69698 0.18229 0.08955 0.0
H1830 H 0.64132 0.15526 0.0966 0.0
H1831 H 0.6982 0.2083 0.10742 0.0
H1832 H 0.73975 0.19252 0.05618 0.0
H1833 H 0.71234 0.17019 0.99103 0.0
H1834 H 0.66235 0.11007 0.18214 0.0
H1835 H 0.6805 0.16518 0.17963 0.0
H1836 H 0.62922 0.11086 0.02261 0.0
H1837 H 0.6802 0.11647 0.02228 0.0
H1838 H 0.62079 0.08964 0.9899 0.0
H1839 H 0.67086 0.09511 0.98961 0.0
H1840 H 0.61809 0.08082 0.09733 0.0
H1841 H 0.63786 0.13325 0.12151 0.0
H1842 H 0.59302 0.07125 0.12439 0.0
H1843 H 0.61243 0.12283 0.14801 0.0
H1844 H 0.66933 0.06142 0.05822 0.0
H1845 H 0.61796 0.05304 0.04353 0.0
H1846 H 0.62129 0.16095 0.02625 0.0
H1847 H 0.58537 0.10966 0.05295 0.0
Li1848 Li 0.53441 0.66434 0.60194 0.0
Li1849 Li 0.54059 0.6802 0.5645 0.0
Li1850 Li 0.51833 0.64994 0.56782 0.0
Li1851 Li 0.54926 0.65793 0.57029 0.0
C1852 C 0.50276 0.66706 0.579 0.0
N1853 N 0.46947 0.65983 0.56834 0.0
C1854 C 0.50004 0.67654 0.56154 0.0
C1855 C 0.48855 0.65402 0.59118 0.0
C1856 C 0.48311 0.67267 0.55639 0.0
C1857 C 0.47182 0.65051 0.58548 0.0
C1858 C 0.57071 0.69517 0.59541 0.0
C1859 C 0.60094 0.71741 0.59506 0.0
N1860 N 0.59769 0.7262 0.61205 0.0
C1861 C 0.56771 0.70435 0.61302 0.0
C1862 C 0.58749 0.70167 0.58648 0.0
C1863 C 0.5815 0.72005 0.62113 0.0
C1864 C 0.54736 0.66743 0.64799 0.0
N1865 N 0.534 0.66649 0.63519 0.0
C1866 C 0.51978 0.66781 0.67014 0.0
C1867 C 0.52042 0.6668 0.64567 0.0
C1868 C 0.5333 0.66862 0.68391 0.0
C1869 C 0.54727 0.6685 0.6725 0.0
H1870 H 0.55804 0.66728 0.63911 0.0
H1871 H 0.51003 0.66611 0.63503 0.0
C1872 C 0.54398 0.70241 0.52639 0.0
N1873 N 0.54644 0.70186 0.54996 0.0
C1874 C 0.54691 0.71778 0.51576 0.0
C1875 C 0.55454 0.73176 0.55383 0.0
C1876 C 0.55148 0.71611 0.56372 0.0
C1877 C 0.55209 0.73268 0.52956 0.0
H1878 H 0.53915 0.69081 0.51586 0.0
H1879 H 0.55246 0.71519 0.58252 0.0
C1880 C 0.52766 0.6328 0.61069 0.0
N1881 N 0.5248 0.61702 0.65371 0.0
C1882 C 0.54119 0.63051 0.61895 0.0
C1883 C 0.51259 0.62688 0.6242 0.0
C1884 C 0.53951 0.62254 0.64076 0.0
C1885 C 0.51143 0.619 0.64594 0.0
C1886 C 0.54673 0.66576 0.52345 0.0
C1887 C 0.53989 0.65747 0.50197 0.0
C1888 C 0.56407 0.67899 0.52476 0.0
C1889 C 0.55057 0.6626 0.48206 0.0
C1890 C 0.57431 0.68375 0.50447 0.0
N1891 N 0.56741 0.67552 0.48372 0.0
C1892 C 0.49005 0.63601 0.53589 0.0
C1893 C 0.48953 0.61626 0.56439 0.0
C1894 C 0.47521 0.62278 0.52503 0.0
N1895 N 0.49689 0.6325 0.55512 0.0
C1896 C 0.4748 0.60264 0.55401 0.0
C1897 C 0.46764 0.60577 0.53385 0.0
H1898 H 0.49643 0.64899 0.52859 0.0
H1899 H 0.49541 0.61375 0.57939 0.0
C1900 C 0.57948 0.65537 0.57673 0.0
N1901 N 0.56548 0.65082 0.56271 0.0
C1902 C 0.59038 0.64856 0.5725 0.0
C1903 C 0.57274 0.63334 0.53871 0.0
C1904 C 0.56201 0.64015 0.54389 0.0
C1905 C 0.58692 0.63713 0.55345 0.0
H1906 H 0.58175 0.6637 0.59179 0.0
H1907 H 0.55065 0.63658 0.53321 0.0
O1908 O 0.51923 0.67049 0.58407 0.0
O1909 O 0.55746 0.67959 0.58754 0.0
O1910 O 0.52925 0.64099 0.58965 0.0
O1911 O 0.53647 0.66074 0.54312 0.0
H1912 H 0.51085 0.68671 0.55198 0.0
H1913 H 0.49039 0.6465 0.60467 0.0
H1914 H 0.48082 0.67985 0.54285 0.0
H1915 H 0.4607 0.64036 0.59464 0.0
H1916 H 0.61397 0.72261 0.58825 0.0
H1917 H 0.55482 0.69955 0.62013 0.0
H1918 H 0.59013 0.69461 0.57314 0.0
H1919 H 0.57933 0.72734 0.63463 0.0
H1920 H 0.50868 0.66768 0.6782 0.0
H1921 H 0.55811 0.66938 0.68237 0.0
H1922 H 0.54483 0.71789 0.49698 0.0
H1923 H 0.55806 0.74281 0.56523 0.0
H1924 H 0.55291 0.63494 0.60874 0.0
H1925 H 0.50202 0.62859 0.61815 0.0
H1926 H 0.54993 0.62077 0.64742 0.0
H1927 H 0.49991 0.61451 0.65667 0.0
H1928 H 0.52649 0.64717 0.50072 0.0
H1929 H 0.5695 0.68555 0.54122 0.0
H1930 H 0.54546 0.6563 0.46531 0.0
H1931 H 0.58775 0.69398 0.50522 0.0
H1932 H 0.47019 0.62565 0.50933 0.0
H1933 H 0.46928 0.58971 0.56138 0.0
H1934 H 0.60093 0.65165 0.58462 0.0
H1935 H 0.5697 0.62489 0.52358 0.0
Li1936 Li 0.85912 0.54443 0.05752 0.0
Li1937 Li 0.8712 0.53841 0.0909 0.0
Li1938 Li 0.88969 0.55502 0.05848 0.0
Li1939 Li 0.86969 0.52277 0.05492 0.0
C1940 C 0.87052 0.57292 0.08205 0.0
N1941 N 0.85786 0.59556 0.08619 0.0
C1942 C 0.86029 0.57181 0.10141 0.0
C1943 C 0.87443 0.58564 0.06492 0.0
C1944 C 0.854 0.58336 0.10316 0.0
C1945 C 0.86786 0.59693 0.06728 0.0
C1946 C 0.83876 0.51027 0.0897 0.0
C1947 C 0.82327 0.48172 0.10709 0.0
N1948 N 0.81586 0.48762 0.12281 0.0
C1949 C 0.83095 0.51603 0.10598 0.0
C1950 C 0.83488 0.49297 0.09021 0.0
C1951 C 0.81944 0.50438 0.12261 0.0
C1952 C 0.84094 0.5513 0.02239 0.0
N1953 N 0.84156 0.54878 0.0459 0.0
C1954 C 0.81647 0.55146 0.05241 0.0
C1955 C 0.82964 0.54877 0.06089 0.0
C1956 C 0.81533 0.55387 0.02816 0.0
C1957 C 0.82787 0.55388 0.01309 0.0
H1958 H 0.85037 0.55095 0.01077 0.0
H1959 H 0.83027 0.54659 0.07944 0.0
C1960 C 0.88009 0.55242 0.13613 0.0
N1961 N 0.87149 0.53698 0.12461 0.0
C1962 C 0.88143 0.5529 0.16061 0.0
C1963 C 0.86535 0.52151 0.16106 0.0
C1964 C 0.86456 0.52165 0.13651 0.0
C1965 C 0.87384 0.5373 0.17336 0.0
H1966 H 0.88604 0.56442 0.12625 0.0
H1967 H 0.85861 0.50952 0.12701 0.0
C1968 C 0.88311 0.54857 0.01271 0.0
N1969 N 0.90378 0.56277 0.97338 0.0
C1970 C 0.8889 0.53898 -2e-05 0.0
C1971 C 0.88765 0.5653 0.00526 0.0
C1972 C 0.89938 0.54641 0.98019 0.0
C1973 C 0.89817 0.57228 0.98539 0.0
C1974 C 0.8984 0.53416 0.09433 0.0
C1975 C 0.91167 0.54903 0.10508 0.0
C1976 C 0.89352 0.51778 0.10355 0.0
C1977 C 0.91978 0.54725 0.12511 0.0
C1978 C 0.90196 0.51655 0.12359 0.0
N1979 N 0.91479 0.53118 0.13387 0.0
C1980 C 0.91876 0.58913 0.05874 0.0
C1981 C 0.9225 0.56806 0.03803 0.0
C1982 C 0.93613 0.60164 0.05493 0.0
N1983 N 0.91239 0.57272 0.0504 0.0
C1984 C 0.93984 0.58019 0.03351 0.0
C1985 C 0.94691 0.59713 0.04236 0.0
H1986 H 0.91054 0.59234 0.06907 0.0
H1987 H 0.91724 0.55476 0.03235 0.0
C1988 C 0.85269 0.49108 0.02928 0.0
N1989 N 0.86742 0.50251 0.04082 0.0
C1990 C 0.85185 0.47685 0.01755 0.0
C1991 C 0.88134 0.48653 0.02994 0.0
C1992 C 0.88157 0.50048 0.04146 0.0
C1993 C 0.86641 0.47459 0.01758 0.0
H1994 H 0.84172 0.49319 0.02887 0.0
H1995 H 0.89318 0.50993 0.05053 0.0
O1996 O 0.87668 0.56163 0.07989 0.0
O1997 O 0.84995 0.52139 0.07311 0.0
O1998 O 0.87301 0.5416 0.03232 0.0
O1999 O 0.88995 0.53567 0.07516 0.0
H2000 H 0.85698 0.56196 0.11475 0.0
H2001 H 0.88238 0.58674 0.04989 0.0
H2002 H 0.84597 0.58256 0.11796 0.0
H2003 H 0.87072 0.60677 0.05408 0.0
H2004 H 0.82017 0.46831 0.10773 0.0
H2005 H 0.83403 0.52942 0.10613 0.0
H2006 H 0.84083 0.4883 0.07779 0.0
H2007 H 0.81341 0.5087 0.13543 0.0
H2008 H 0.80723 0.55157 0.06473 0.0
H2009 H 0.82734 0.55537 0.99423 0.0
H2010 H 0.88816 0.56533 0.16951 0.0
H2011 H 0.85966 0.50922 0.17032 0.0
H2012 H 0.88545 0.52599 0.00538 0.0
H2013 H 0.88319 0.57286 0.01479 0.0
H2014 H 0.90404 0.53917 0.97025 0.0
H2015 H 0.90187 0.58525 0.97952 0.0
H2016 H 0.91551 0.5618 0.09821 0.0
H2017 H 0.88315 0.50616 0.09552 0.0
H2018 H 0.93 0.55864 0.13372 0.0
H2019 H 0.89825 0.50396 0.13103 0.0
H2020 H 0.94118 0.61456 0.06214 0.0
H2021 H 0.94784 0.57612 0.0242 0.0
H2022 H 0.84016 0.46802 0.00803 0.0
H2023 H 0.89276 0.48515 0.03064 0.0
Li2024 Li 0.32649 0.86834 0.59745 0.0
Li2025 Li 0.31137 0.85745 0.5607 0.0
Li2026 Li 0.34297 0.87071 0.56205 0.0
Li2027 Li 0.32946 0.88865 0.56574 0.0
C2028 C 0.32756 0.83777 0.59111 0.0
N2029 N 0.33201 0.81454 0.61838 0.0
C2030 C 0.31367 0.82097 0.59483 0.0
C2031 C 0.34375 0.84265 0.60098 0.0
C2032 C 0.31617 0.80944 0.60875 0.0
C2033 C 0.34574 0.83076 0.61478 0.0
C2034 C 0.29299 0.86339 0.59617 0.0
C2035 C 0.26814 0.8619 0.61555 0.0
N2036 N 0.26248 0.84505 0.62134 0.0
C2037 C 0.28691 0.84607 0.60227 0.0
C2038 C 0.28353 0.87138 0.60281 0.0
C2039 C 0.27148 0.83702 0.61502 0.0
C2040 C 0.33333 0.88197 0.64236 0.0
N2041 N 0.32565 0.86651 0.63084 0.0
C2042 C 0.31715 0.85109 0.66737 0.0
C2043 C 0.31754 0.85119 0.64276 0.0
C2044 C 0.32509 0.86691 0.67974 0.0
C2045 C 0.3333 0.88248 0.66689 0.0
H2046 H 0.33948 0.89395 0.63242 0.0
H2047 H 0.31111 0.83906 0.63328 0.0
C2048 C 0.293 0.82546 0.53931 0.0
N2049 N 0.29142 0.83918 0.54643 0.0
C2050 C 0.27877 0.81075 0.52996 0.0
C2051 C 0.26166 0.82482 0.53467 0.0
C2052 C 0.27625 0.83926 0.54409 0.0
C2053 C 0.2628 0.81023 0.5278 0.0
H2054 H 0.30531 0.82588 0.54124 0.0
H2055 H 0.2754 0.8504 0.54991 0.0
C2056 C 0.36454 0.89817 0.59241 0.0
N2057 N 0.3989 0.9174 0.60616 0.0
C2058 C 0.37559 0.91415 0.58173 0.0
C2059 C 0.3709 0.89217 0.61045 0.0
C2060 C 0.39294 0.92361 0.58881 0.0
C2061 C 0.38832 0.90203 0.61706 0.0
C2062 C 0.32035 0.87701 0.51973 0.0
C2063 C 0.32508 0.87595 0.49659 0.0
C2064 C 0.30685 0.88044 0.52392 0.0
C2065 C 0.3162 0.87832 0.47796 0.0
C2066 C 0.29828 0.88271 0.50482 0.0
N2067 N 0.3031 0.88162 0.48243 0.0
C2068 C 0.36225 0.85516 0.54598 0.0
C2069 C 0.37534 0.88547 0.5396 0.0
C2070 C 0.37606 0.85484 0.53474 0.0
N2071 N 0.36227 0.87037 0.54843 0.0
C2072 C 0.38943 0.88579 0.52834 0.0
C2073 C 0.38989 0.87031 0.52571 0.0
H2074 H 0.35135 0.84319 0.55226 0.0
H2075 H 0.37465 0.89723 0.54087 0.0
C2076 C 0.32734 0.91818 0.5764 0.0
N2077 N 0.33343 0.91125 0.56031 0.0
C2078 C 0.33288 0.93589 0.57584 0.0
C2079 C 0.35025 0.93874 0.54152 0.0
C2080 C 0.34426 0.92094 0.54265 0.0
C2081 C 0.345 0.94653 0.55876 0.0
H2082 H 0.31891 0.91013 0.5904 0.0
H2083 H 0.34911 0.91506 0.53038 0.0
O2084 O 0.32529 0.84925 0.57765 0.0
O2085 O 0.30806 0.87255 0.58367 0.0
O2086 O 0.34746 0.88881 0.58582 0.0
O2087 O 0.32892 0.87464 0.53809 0.0
H2088 H 0.30106 0.81689 0.58718 0.0
H2089 H 0.35473 0.85541 0.59776 0.0
H2090 H 0.30552 0.79644 0.61189 0.0
H2091 H 0.35821 0.83439 0.62255 0.0
H2092 H 0.26069 0.86792 0.62082 0.0
H2093 H 0.294 0.83967 0.59717 0.0
H2094 H 0.28802 0.88478 0.59815 0.0
H2095 H 0.26664 0.8236 0.61985 0.0
H2096 H 0.31043 0.83879 0.67658 0.0
H2097 H 0.33975 0.89496 0.67567 0.0
H2098 H 0.28024 0.79988 0.52452 0.0
H2099 H 0.24953 0.82486 0.53337 0.0
H2100 H 0.37086 0.91912 0.56798 0.0
H2101 H 0.36244 0.88014 0.61948 0.0
H2102 H 0.40166 0.93592 0.58053 0.0
H2103 H 0.39341 0.89749 0.63093 0.0
H2104 H 0.33551 0.87331 0.49308 0.0
H2105 H 0.30299 0.88132 0.54169 0.0
H2106 H 0.31973 0.87753 0.45996 0.0
H2107 H 0.2878 0.88535 0.5078 0.0
H2108 H 0.37568 0.84255 0.53262 0.0
H2109 H 0.39981 0.89803 0.52174 0.0
H2110 H 0.32832 0.94131 0.58926 0.0
H2111 H 0.35974 0.94645 0.52824 0.0
H2112 H 0.34319 0.48216 0.2024 0.0
H2113 H 0.30714 0.427 0.19965 0.0
H2114 H 0.30517 0.42593 0.24256 0.0
H2115 H 0.31342 0.44068 0.28081 0.0
H2116 H 0.34958 0.49581 0.28366 0.0
H2117 H 0.3514 0.49694 0.24072 0.0
C2118 C 0.33479 0.46993 0.21119 0.0
C2119 C 0.32536 0.45468 0.19784 0.0
C2120 C 0.33364 0.46942 0.23586 0.0
C2121 C 0.31472 0.43889 0.20951 0.0
C2122 C 0.3135 0.43828 0.23405 0.0
C2123 C 0.32181 0.45292 0.27205 0.0
C2124 C 0.33134 0.46813 0.28544 0.0
C2125 C 0.32292 0.45345 0.24739 0.0
C2126 C 0.34193 0.48395 0.27377 0.0
C2127 C 0.34307 0.48459 0.24922 0.0
H2128 H 0.85335 0.30751 0.70735 0.0
H2129 H 0.89391 0.36114 0.70327 0.0
H2130 H 0.89517 0.36306 0.74625 0.0
H2131 H 0.88456 0.34959 0.78488 0.0
H2132 H 0.84477 0.29557 0.78905 0.0
H2133 H 0.84316 0.29382 0.74616 0.0
C2134 C 0.86236 0.31963 0.71592 0.0
C2135 C 0.8735 0.33416 0.70223 0.0
C2136 C 0.86312 0.32059 0.74062 0.0
C2137 C 0.88531 0.34974 0.71349 0.0
C2138 C 0.88599 0.35086 0.73803 0.0
C2139 C 0.87568 0.33736 0.77645 0.0
C2140 C 0.86478 0.32275 0.79025 0.0
C2141 C 0.87499 0.33635 0.75177 0.0
C2142 C 0.85313 0.3071 0.77893 0.0
C2143 C 0.85227 0.30605 0.75437 0.0
H2144 H 0.5581 0.87725 0.29044 0.0
H2145 H 0.50223 0.85226 0.29216 0.0
H2146 H 0.50132 0.85245 0.24907 0.0
H2147 H 0.51649 0.86021 0.21108 0.0
H2148 H 0.57234 0.8837 0.20943 0.0
H2149 H 0.57319 0.88392 0.25233 0.0
C2150 C 0.54575 0.87194 0.28132 0.0
C2151 C 0.53026 0.86484 0.29434 0.0
C2152 C 0.54533 0.8719 0.25661 0.0
C2153 C 0.51431 0.85773 0.28242 0.0
C2154 C 0.5138 0.85788 0.25783 0.0
C2155 C 0.52884 0.86515 0.22004 0.0
C2156 C 0.54433 0.87203 0.20692 0.0
C2157 C 0.52924 0.86493 0.24475 0.0
C2158 C 0.56023 0.87864 0.21898 0.0
C2159 C 0.56074 0.87867 0.24355 0.0
H2160 H 0.66213 0.51394 0.78987 0.0
H2161 H 0.68408 0.56949 0.79533 0.0
H2162 H 0.68512 0.57194 0.75254 0.0
H2163 H 0.67949 0.55834 0.71352 0.0
H2164 H 0.65851 0.50303 0.7078 0.0
H2165 H 0.65781 0.50051 0.75077 0.0
C2166 C 0.66737 0.52662 0.78174 0.0
C2167 C 0.67286 0.54148 0.79588 0.0
C2168 C 0.66815 0.52799 0.75707 0.0
C2169 C 0.67942 0.55778 0.78494 0.0
C2170 C 0.68014 0.55922 0.76044 0.0
C2171 C 0.67471 0.54574 0.72173 0.0
C2172 C 0.66895 0.53088 0.7076 0.0
C2173 C 0.6744 0.54441 0.74635 0.0
C2174 C 0.66308 0.51466 0.71837 0.0
C2175 C 0.66261 0.51321 0.7429 0.0
H2176 H 0.15108 0.67728 0.2869 0.0
H2177 H 0.09621 0.64037 0.29067 0.0
H2178 H 0.09467 0.63829 0.24772 0.0
H2179 H 0.10872 0.64764 0.20915 0.0
H2180 H 0.16346 0.68496 0.2051 0.0
H2181 H 0.1653 0.68623 0.24814 0.0
C2182 C 0.13885 0.66867 0.27827 0.0
C2183 C 0.12378 0.65902 0.29185 0.0
C2184 C 0.13803 0.66767 0.25358 0.0
C2185 C 0.10794 0.64806 0.28052 0.0
C2186 C 0.10707 0.64682 0.25601 0.0
C2187 C 0.12109 0.65588 0.21771 0.0
C2188 C 0.13594 0.66615 0.20403 0.0
C2189 C 0.122 0.65665 0.24237 0.0
C2190 C 0.15183 0.67702 0.21531 0.0
C2191 C 0.15289 0.67771 0.23988 0.0
H2192 H 0.45646 0.14647 0.78246 0.0
H2193 H 0.46763 0.10451 0.78728 0.0
H2194 H 0.46853 0.10322 0.74453 0.0
H2195 H 0.46601 0.11382 0.70559 0.0
H2196 H 0.45707 0.1571 0.70063 0.0
H2197 H 0.45595 0.15839 0.74367 0.0
C2198 C 0.45939 0.13722 0.77427 0.0
C2199 C 0.46177 0.12548 0.78829 0.0
C2200 C 0.46037 0.13682 0.7496 0.0
C2201 C 0.46528 0.11343 0.7771 0.0
C2202 C 0.46597 0.11277 0.75259 0.0
C2203 C 0.46383 0.12353 0.71401 0.0
C2204 C 0.46152 0.13528 0.70012 0.0
C2205 C 0.46343 0.12432 0.73867 0.0
C2206 C 0.45894 0.14797 0.71108 0.0
C2207 C 0.45824 0.14866 0.73563 0.0
H2208 H 0.54251 0.65183 0.71584 0.0
H2209 H 0.52295 0.68743 0.71065 0.0
H2210 H 0.52201 0.68882 0.75353 0.0
H2211 H 0.5273 0.6804 0.79253 0.0
H2212 H 0.54743 0.6453 0.79768 0.0
H2213 H 0.54796 0.64355 0.75475 0.0
C2214 C 0.53821 0.66004 0.72407 0.0
C2215 C 0.53281 0.66951 0.71001 0.0
C2216 C 0.53788 0.66094 0.74873 0.0
C2217 C 0.52697 0.67982 0.72102 0.0
C2218 C 0.52652 0.68072 0.74555 0.0
C2219 C 0.53166 0.67226 0.78423 0.0
C2220 C 0.53733 0.663 0.79824 0.0
C2221 C 0.53196 0.67134 0.75957 0.0
C2222 C 0.54318 0.6527 0.78726 0.0
C2223 C 0.54341 0.65163 0.76274 0.0
H2224 H 0.88972 0.54822 0.2821 0.0
H2225 H 0.83415 0.51423 0.28559 0.0
H2226 H 0.83282 0.51174 0.24272 0.0
H2227 H 0.8473 0.52007 0.20408 0.0
H2228 H 0.90254 0.55536 0.2007 0.0
H2229 H 0.90409 0.55677 0.24372 0.0
C2230 C 0.87726 0.54043 0.27352 0.0
C2231 C 0.86206 0.53148 0.28713 0.0
C2232 C 0.87653 0.53934 0.24887 0.0
C2233 C 0.84611 0.52111 0.27564 0.0
C2234 C 0.8453 0.51976 0.25109 0.0
C2235 C 0.85968 0.52793 0.21284 0.0
C2236 C 0.87479 0.53759 0.19936 0.0
C2237 C 0.86041 0.52889 0.23753 0.0
C2238 C 0.89073 0.54792 0.21079 0.0
C2239 C 0.89162 0.5487 0.23534 0.0
H2240 H 0.32976 0.846 0.71046 0.0
H2241 H 0.3196 0.88865 0.70773 0.0
H2242 H 0.32045 0.8904 0.75061 0.0
H2243 H 0.32448 0.88016 0.78882 0.0
H2244 H 0.33429 0.83735 0.79198 0.0
H2245 H 0.33275 0.83503 0.74898 0.0
C2246 C 0.32752 0.85554 0.71926 0.0
C2247 C 0.32477 0.86727 0.70588 0.0
C2248 C 0.32793 0.85642 0.74397 0.0
C2249 C 0.32207 0.87967 0.71757 0.0
C2250 C 0.32245 0.88062 0.7421 0.0
C2251 C 0.32639 0.87039 0.78007 0.0
C2252 C 0.32964 0.85905 0.7935 0.0
C2253 C 0.32553 0.86918 0.75545 0.0
C2254 C 0.3317 0.8462 0.782 0.0
C2255 C 0.3309 0.84492 0.75743 0.0
H2256 H 0.46201 0.31095 0.29537 0.0
H2257 H 0.45269 0.35408 0.29835 0.0
H2258 H 0.45323 0.35573 0.25537 0.0
H2259 H 0.45667 0.34514 0.21706 0.0
H2260 H 0.46482 0.30121 0.21387 0.0
H2261 H 0.46483 0.29992 0.2568 0.0
C2262 C 0.46021 0.32076 0.28656 0.0
C2263 C 0.45731 0.33237 0.29997 0.0
C2264 C 0.46042 0.32156 0.26184 0.0
C2265 C 0.45477 0.34489 0.28838 0.0
C2266 C 0.45515 0.34589 0.26383 0.0
C2267 C 0.45823 0.33513 0.2257 0.0
C2268 C 0.46076 0.32331 0.21215 0.0
C2269 C 0.45793 0.33426 0.25039 0.0
C2270 C 0.46311 0.31066 0.22378 0.0
C2271 C 0.463 0.30982 0.24836 0.0
H2272 H 0.11099 0.46339 0.71208 0.0
H2273 H 0.16132 0.46734 0.70859 0.0
H2274 H 0.16316 0.46826 0.75156 0.0
H2275 H 0.14999 0.46687 0.79012 0.0
H2276 H 0.09955 0.46269 0.79354 0.0
H2277 H 0.09811 0.46264 0.75058 0.0
C2278 C 0.12231 0.46434 0.72073 0.0
C2279 C 0.13597 0.46524 0.70717 0.0
C2280 C 0.12323 0.46474 0.74541 0.0
C2281 C 0.1507 0.46679 0.71863 0.0
C2282 C 0.15172 0.46723 0.74319 0.0
C2283 C 0.13878 0.46617 0.78146 0.0
C2284 C 0.12488 0.46472 0.79499 0.0
C2285 C 0.13803 0.46613 0.75676 0.0
C2286 C 0.11033 0.46358 0.78351 0.0
C2287 C 0.10952 0.46362 0.75896 0.0
H2288 H 0.68584 0.15133 0.29376 0.0
H2289 H 0.63832 0.10185 0.29682 0.0
H2290 H 0.63645 0.1011 0.25397 0.0
H2291 H 0.64841 0.11426 0.21562 0.0
H2292 H 0.6967 0.16298 0.21229 0.0
H2293 H 0.69814 0.16423 0.25525 0.0
C2294 C 0.67516 0.1403 0.28507 0.0
C2295 C 0.66223 0.1267 0.29858 0.0
C2296 C 0.67428 0.13981 0.26036 0.0
C2297 C 0.64832 0.11265 0.28696 0.0
C2298 C 0.64729 0.11214 0.26241 0.0
C2299 C 0.65936 0.12506 0.22426 0.0
C2300 C 0.67243 0.13848 0.2107 0.0
C2301 C 0.66023 0.12561 0.24894 0.0
C2302 C 0.68634 0.15257 0.22226 0.0
C2303 C 0.68724 0.15324 0.24684 0.0
H2304 H 0.18395 0.42901 0.00612 0.0
H2305 H 0.20803 0.4469 0.93814 0.0
H2306 H 0.23322 0.44501 0.95118 0.0
H2307 H 0.24939 0.44078 0.98291 0.0
H2308 H 0.22522 0.42249 0.05085 0.0
H2309 H 0.19915 0.42227 0.03689 0.0
C2310 C 0.19469 0.43241 0.99416 0.0
C2311 C 0.19421 0.4382 0.97129 0.0
C2312 C 0.20917 0.4314 0.00183 0.0
C2313 C 0.20807 0.44231 0.9558 0.0
C2314 C 0.22251 0.44134 0.96329 0.0
C2315 C 0.23829 0.43635 0.99454 0.0
C2316 C 0.23936 0.43182 0.01798 0.0
C2317 C 0.22333 0.4362 0.98639 0.0
C2318 C 0.2249 0.42637 0.03286 0.0
C2319 C 0.20995 0.42617 0.02487 0.0
H2320 H 0.74295 0.21211 0.47863 0.0
H2321 H 0.76926 0.18248 0.47914 0.0
H2322 H 0.79527 0.20737 0.49566 0.0
H2323 H 0.81054 0.23769 0.50942 0.0
H2324 H 0.78325 0.26649 0.511 0.0
H2325 H 0.75775 0.2419 0.49378 0.0
C2326 C 0.75445 0.21118 0.48222 0.0
C2327 C 0.75432 0.19562 0.47753 0.0
C2328 C 0.76918 0.2254 0.49197 0.0
C2329 C 0.76912 0.19438 0.48266 0.0
C2330 C 0.78397 0.2086 0.49204 0.0
C2331 C 0.79896 0.23854 0.50626 0.0
C2332 C 0.79896 0.25405 0.5113 0.0
C2333 C 0.78414 0.22418 0.49678 0.0
C2334 C 0.78384 0.25492 0.50681 0.0
C2335 C 0.76916 0.24079 0.49712 0.0
H2336 H 0.54681 0.80605 0.98803 0.0
H2337 H 0.57372 0.80497 0.05069 0.0
H2338 H 0.5747 0.77974 0.03557 0.0
H2339 H 0.56674 0.75728 0.00539 0.0
H2340 H 0.53915 0.75795 0.9432 0.0
H2341 H 0.54014 0.78444 0.95695 0.0
C2342 C 0.55316 0.80049 0.99819 0.0
C2343 C 0.56011 0.80731 0.02049 0.0
C2344 C 0.55359 0.78595 0.98945 0.0
C2345 C 0.56807 0.79979 0.03361 0.0
C2346 C 0.56869 0.78542 0.02494 0.0
C2347 C 0.56092 0.76321 0.99486 0.0
C2348 C 0.55279 0.75557 0.97339 0.0
C2349 C 0.56125 0.77824 0.00306 0.0
C2350 C 0.54563 0.76362 0.9597 0.0
C2351 C 0.54606 0.7787 0.96763 0.0
H2352 H 0.7465 0.5277 0.52958 0.0
H2353 H 0.75995 0.5779 0.50114 0.0
H2354 H 0.78572 0.57999 0.48249 0.0
H2355 H 0.80407 0.56722 0.47368 0.0
H2356 H 0.78979 0.51652 0.50113 0.0
H2357 H 0.76467 0.51496 0.52075 0.0
C2358 C 0.75498 0.53903 0.51912 0.0
C2359 C 0.75126 0.55257 0.51663 0.0
C2360 C 0.76963 0.54007 0.50831 0.0
C2361 C 0.7626 0.56735 0.50348 0.0
C2362 C 0.77727 0.56851 0.49271 0.0
C2363 C 0.79539 0.55579 0.48383 0.0
C2364 C 0.79882 0.54203 0.48596 0.0
C2365 C 0.78085 0.55489 0.4949 0.0
C2366 C 0.7876 0.5274 0.49947 0.0
C2367 C 0.77316 0.52644 0.51057 0.0
H2368 H 0.25235 0.80623 0.01276 0.0
H2369 H 0.24062 0.78479 0.94254 0.0
H2370 H 0.21389 0.75978 0.9568 0.0
H2371 H 0.19468 0.74331 0.98951 0.0
H2372 H 0.20644 0.76462 0.05981 0.0
H2373 H 0.23253 0.79025 0.04527 0.0
C2374 C 0.24397 0.79604 0.00061 0.0
C2375 C 0.24849 0.79733 0.97666 0.0
C2376 C 0.22871 0.78164 0.00895 0.0
C2377 C 0.23735 0.78419 0.96103 0.0
C2378 C 0.22212 0.76983 0.96918 0.0
C2379 C 0.2028 0.75368 0.0016 0.0
C2380 C 0.19865 0.75203 0.02571 0.0
C2381 C 0.21776 0.76836 0.99314 0.0
C2382 C 0.20947 0.76547 0.04121 0.0
C2383 C 0.22435 0.78015 0.0329 0.0
H2384 H 0.44856 0.20879 0.53982 0.0
H2385 H 0.43115 0.17979 0.47497 0.0
H2386 H 0.42796 0.20309 0.45713 0.0
H2387 H 0.43119 0.23214 0.45958 0.0
H2388 H 0.45008 0.26161 0.524 0.0
H2389 H 0.45105 0.23745 0.5426 0.0
C2390 C 0.44382 0.20746 0.5219 0.0
C2391 C 0.44011 0.19263 0.50871 0.0
C2392 C 0.44221 0.22096 0.51171 0.0
C2393 C 0.43425 0.19119 0.48538 0.0
C2394 C 0.43237 0.20447 0.47522 0.0
C2395 C 0.43558 0.23332 0.47766 0.0
C2396 C 0.44055 0.24872 0.49031 0.0
C2397 C 0.43655 0.21952 0.48812 0.0
C2398 C 0.4459 0.24985 0.51389 0.0
C2399 C 0.44663 0.23608 0.52452 0.0
H2400 H 0.78153 0.53633 0.04194 0.0
H2401 H 0.81623 0.57511 0.99252 0.0
H2402 H 0.79183 0.57651 0.97517 0.0
H2403 H 0.76052 0.56586 0.97308 0.0
H2404 H 0.72609 0.5279 0.02356 0.0
H2405 H 0.75063 0.5272 0.04163 0.0
C2406 C 0.78385 0.54534 0.02767 0.0
C2407 C 0.80071 0.55555 0.01852 0.0
C2408 C 0.76981 0.54618 0.0179 0.0
C2409 C 0.80336 0.56689 -0.00032 0.0
C2410 C 0.78943 0.56778 0.98983 0.0
C2411 C 0.75841 0.55765 0.98829 0.0
C2412 C 0.74147 0.54687 0.99684 0.0
C2413 C 0.77258 0.55736 0.99866 0.0
C2414 C 0.73896 0.53612 0.01636 0.0
C2415 C 0.75298 0.53576 0.02678 0.0
H2416 H 0.20219 0.73615 0.49852 0.0
H2417 H 0.18926 0.76706 0.45338 0.0
H2418 H 0.21379 0.79366 0.46915 0.0
H2419 H 0.23922 0.80804 0.49541 0.0
H2420 H 0.25189 0.77682 0.54037 0.0
H2421 H 0.22706 0.7504 0.52513 0.0
C2422 C 0.20461 0.74872 0.49236 0.0
C2423 C 0.19391 0.74967 0.47491 0.0
C2424 C 0.2187 0.76387 0.50141 0.0
C2425 C 0.19741 0.76602 0.46671 0.0
C2426 C 0.21137 0.78121 0.47577 0.0
C2427 C 0.23641 0.79544 0.50199 0.0
C2428 C 0.24738 0.79436 0.5189 0.0
C2429 C 0.22215 0.78029 0.49307 0.0
C2430 C 0.24375 0.77797 0.52712 0.0
C2431 C 0.22953 0.76287 0.5185 0.0
H2432 H 0.46876 0.2142 0.96556 0.0
H2433 H 0.4197 0.17726 0.9968 0.0
H2434 H 0.41808 0.20088 0.01636 0.0
H2435 H 0.43093 0.232 0.02519 0.0
H2436 H 0.48099 0.26848 0.99589 0.0
H2437 H 0.48187 0.245 0.97506 0.0
C2438 C 0.45779 0.21125 0.97686 0.0
C2439 C 0.44441 0.19395 0.97974 0.0
C2440 C 0.4571 0.22482 0.98839 0.0
C2441 C 0.43009 0.19046 0.99402 0.0
C2442 C 0.42921 0.20396 0.00536 0.0
C2443 C 0.4421 0.23481 0.01443 0.0
C2444 C 0.45581 0.25203 0.01206 0.0
C2445 C 0.4427 0.22118 0.00278 0.0
C2446 C 0.47008 0.25542 0.99773 0.0
C2447 C 0.47068 0.24198 0.98592 0.0
H2448 H 0.18547 0.42993 0.49255 0.0
H2449 H 0.21712 0.47486 0.5356 0.0
H2450 H 0.2434 0.4758 0.52093 0.0
H2451 H 0.25739 0.46436 0.49517 0.0
H2452 H 0.22617 0.42029 0.45063 0.0
H2453 H 0.19964 0.4184 0.46657 0.0
C2454 C 0.19814 0.43983 0.49876 0.0
C2455 C 0.19944 0.45233 0.51504 0.0
C2456 C 0.21321 0.44043 0.49 0.0
C2457 C 0.21588 0.46522 0.52287 0.0
C2458 C 0.23088 0.46572 0.51457 0.0
C2459 C 0.24475 0.45422 0.4892 0.0
C2460 C 0.24364 0.44238 0.47198 0.0
C2461 C 0.22969 0.45346 0.49807 0.0
C2462 C 0.22725 0.42952 0.46393 0.0
C2463 C 0.21213 0.42845 0.47303 0.0
H2464 H 0.78053 0.24641 0.95934 0.0
H2465 H 0.8176 0.24292 0.00466 0.0
H2466 H 0.79409 0.21729 0.02387 0.0
H2467 H 0.76284 0.19679 0.029 0.0
H2468 H 0.72592 0.20125 0.98444 0.0
H2469 H 0.74955 0.22555 0.96364 0.0
C2470 C 0.78345 0.24008 0.97349 0.0
C2471 C 0.80073 0.24663 0.98074 0.0
C2472 C 0.76991 0.22553 0.98457 0.0
C2473 C 0.80439 0.23806 0.99871 0.0
C2474 C 0.79096 0.22348 0.00978 0.0
C2475 C 0.75999 0.20312 0.01477 0.0
C2476 C 0.74264 0.19723 0.00832 0.0
C2477 C 0.77365 0.21726 0.00306 0.0
C2478 C 0.73915 0.20537 0.98958 0.0
C2479 C 0.75265 0.21935 0.97777 0.0
H2480 H 0.56595 0.80665 0.49756 0.0
H2481 H 0.5195 0.77455 0.45733 0.0
H2482 H 0.51871 0.74845 0.47227 0.0
H2483 H 0.53045 0.73475 0.49784 0.0
H2484 H 0.57703 0.76648 0.53797 0.0
H2485 H 0.57853 0.79276 0.52201 0.0
C2486 C 0.55579 0.79394 0.49187 0.0
C2487 C 0.54273 0.79252 0.47651 0.0
C2488 C 0.55538 0.77895 0.50058 0.0
C2489 C 0.52954 0.77597 0.46945 0.0
C2490 C 0.52911 0.76105 0.47789 0.0
C2491 C 0.54112 0.7474 0.5028 0.0
C2492 C 0.55364 0.74866 0.51901 0.0
C2493 C 0.54186 0.76238 0.49362 0.0
C2494 C 0.56714 0.76518 0.52566 0.0
C2495 C 0.56804 0.78019 0.51648 0.0
H2496 H 0.34788 0.37198 0.04366 0.0
H2497 H 0.39448 0.42234 0.047 0.0
H2498 H 0.41215 0.40864 0.04864 0.0
H2499 H 0.4146 0.3826 0.05076 0.0
H2500 H 0.3685 0.33205 0.05024 0.0
H2501 H 0.35038 0.34559 0.04653 0.0
C2502 C 0.36189 0.37997 0.04488 0.0
C2503 C 0.36975 0.39822 0.04484 0.0
C2504 C 0.37208 0.37198 0.04654 0.0
C2505 C 0.38798 0.40831 0.04627 0.0
C2506 C 0.39816 0.40048 0.0475 0.0
C2507 C 0.40059 0.37454 0.04954 0.0
C2508 C 0.39287 0.35639 0.05051 0.0
C2509 C 0.39036 0.38238 0.04774 0.0
C2510 C 0.37469 0.34608 0.04952 0.0
C2511 C 0.36437 0.35381 0.04735 0.0
H2512 H 0.02871 0.39494 0.52872 0.0
H2513 H 0.03188 0.3688 0.59098 0.0
H2514 H 0.00034 0.35006 0.59096 0.0
H2515 H 0.97176 0.34297 0.57531 0.0
H2516 H 0.96878 0.3697 0.51359 0.0
H2517 H 0.00038 0.38584 0.51081 0.0
C2518 C 0.02257 0.38487 0.54196 0.0
C2519 C 0.03264 0.38342 0.55997 0.0
C2520 C 0.00444 0.37423 0.54193 0.0
C2521 C 0.0244 0.37042 0.57716 0.0
C2522 C 0.00637 0.35965 0.57712 0.0
C2523 C 0.97804 0.35223 0.56115 0.0
C2524 C 0.96792 0.35522 0.54482 0.0
C2525 C 0.99624 0.36177 0.55996 0.0
C2526 C 0.97623 0.36703 0.5263 0.0
C2527 C 0.99432 0.3764 0.52482 0.0
H2528 H 0.60171 0.97621 0.02049 0.0
H2529 H 0.62567 0.97164 0.08413 0.0
H2530 H 0.64292 0.0032 0.08716 0.0
H2531 H 0.64831 0.03192 0.07463 0.0
H2532 H 0.62324 0.03642 0.01214 0.0
H2533 H 0.60917 0.00507 0.00589 0.0
C2534 C 0.6108 0.98214 0.03493 0.0
C2535 C 0.61225 0.97158 0.05217 0.0
C2536 C 0.62031 0.00028 0.03694 0.0
C2537 C 0.62436 0.97943 0.07051 0.0
C2538 C 0.63412 0.9975 0.07239 0.0
C2539 C 0.64008 0.02607 0.05936 0.0
C2540 C 0.63665 0.0364 0.04401 0.0
C2541 C 0.63181 0.00803 0.05611 0.0
C2542 C 0.62584 0.02866 0.02439 0.0
C2543 C 0.61783 0.01076 0.02079 0.0
H2544 H 0.61776 0.58728 0.54131 0.0
H2545 H 0.66389 0.63254 0.56665 0.0
H2546 H 0.64866 0.64915 0.56634 0.0
H2547 H 0.62174 0.65017 0.56082 0.0
H2548 H 0.57509 0.60377 0.53871 0.0
H2549 H 0.59117 0.58844 0.53511 0.0
C2550 C 0.62456 0.60088 0.54633 0.0
C2551 C 0.64191 0.60875 0.55384 0.0
C2552 C 0.61563 0.61014 0.54668 0.0
C2553 C 0.6505 0.62625 0.56081 0.0
C2554 C 0.6418 0.63571 0.56066 0.0
C2555 C 0.61505 0.63669 0.55531 0.0
C2556 C 0.59718 0.62824 0.54999 0.0
C2557 C 0.62426 0.62768 0.55402 0.0
C2558 C 0.58887 0.61081 0.54248 0.0
C2559 C 0.59802 0.60192 0.54063 0.0
H2560 H 0.96887 0.61597 0.07737 0.0
H2561 H 0.96722 0.60524 0.00307 0.0
H2562 H -0.00107 0.62267 0.00099 0.0
H2563 H 0.02708 0.63908 0.02098 0.0
H2564 H 0.02846 0.64768 0.09605 0.0
H2565 H 0.99693 0.63349 0.09696 0.0
C2566 C 0.97545 0.61776 0.06064 0.0
C2567 C 0.96579 0.60939 0.0404 0.0
C2568 C 0.99364 0.62741 0.05972 0.0
C2569 C 0.97445 0.61152 0.01889 0.0
C2570 C 0.99255 0.62146 0.01771 0.0
C2571 C 0.02051 0.63785 0.03756 0.0
C2572 C 0.03023 0.64443 0.0584 0.0
C2573 C 0.00229 0.62913 0.03814 0.0
C2574 C 0.02143 0.64301 0.07963 0.0
C2575 C 0.00334 0.63472 0.08024 0.0
H2576 H 0.38857 0.02605 0.58339 0.0
H2577 H 0.38736 0.03064 0.50782 0.0
H2578 H 0.36885 -0.00088 0.50445 0.0
H2579 H 0.354 0.97016 0.52301 0.0
H2580 H 0.35588 0.96614 0.59865 0.0
H2581 H 0.37255 0.9976 0.60194 0.0
C2582 C 0.38399 0.02025 0.56618 0.0
C2583 C 0.38937 0.03073 0.5459 0.0
C2584 C 0.37336 0.0022 0.56438 0.0
C2585 C 0.38359 0.02286 0.52371 0.0
C2586 C 0.37294 0.00485 0.52178 0.0
C2587 C 0.35801 0.97618 0.54021 0.0
C2588 C 0.35362 0.96575 0.56053 0.0
C2589 C 0.36793 0.99437 0.54199 0.0
C2590 C 0.35878 0.97379 0.58271 0.0
C2591 C 0.36849 0.99182 0.58463 0.0
H2592 H 0.61135 0.64228 0.91993 0.0
H2593 H 0.60698 0.64092 0.9957 0.0
H2594 H 0.62314 0.62535 0.99822 0.0
H2595 H 0.63692 0.6106 0.9786 0.0
H2596 H 0.64037 0.61157 0.90268 0.0
H2597 H 0.62669 0.62936 0.90062 0.0
C2598 C 0.61427 0.63896 0.93706 0.0
C2599 C 0.60794 0.64274 0.95759 0.0
C2600 C 0.62341 0.62994 0.93835 0.0
C2601 C 0.61154 0.63799 0.9796 0.0
C2602 C 0.62081 0.62913 0.98106 0.0
C2603 C 0.63471 0.61476 0.96162 0.0
C2604 C 0.63965 0.60971 0.94084 0.0
C2605 C 0.6265 0.62474 0.9605 0.0
C2606 C 0.63694 0.61543 0.91899 0.0
C2607 C 0.62896 0.62549 0.91776 0.0
H2608 H 0.96901 0.60545 0.47393 0.0
H2609 H 0.96822 0.62369 0.40369 0.0
H2610 H -0.00018 0.64111 0.40384 0.0
H2611 H 0.02768 0.64804 0.4217 0.0
H2612 H 0.02855 0.62811 0.49063 0.0
H2613 H 0.99691 0.61425 0.49309 0.0
C2614 C 0.97574 0.61329 0.45868 0.0
C2615 C 0.96623 0.61308 0.43874 0.0
C2616 C 0.99394 0.62279 0.45853 0.0
C2617 C 0.97515 0.62366 0.41937 0.0
C2618 C 0.99326 0.63351 0.41932 0.0
C2619 C 0.02096 0.641 0.43748 0.0
C2620 C 0.03036 0.639 0.45591 0.0
C2621 C 0.00279 0.63275 0.4385 0.0
C2622 C 0.02151 0.62966 0.47614 0.0
C2623 C 0.00346 0.62175 0.47754 0.0
H2624 H 0.36746 0.02299 0.91869 0.0
H2625 H 0.39979 0.02819 0.97843 0.0
H2626 H 0.38467 0.99676 0.98309 0.0
H2627 H 0.36472 0.96777 0.96743 0.0
H2628 H 0.33364 0.96238 0.90627 0.0
H2629 H 0.34596 0.99389 0.90475 0.0
C2630 C 0.37116 0.01726 0.93278 0.0
C2631 C 0.38484 0.02799 0.94806 0.0
C2632 C 0.36276 -0.00089 0.93495 0.0
C2633 C 0.38921 0.02032 0.96654 0.0
C2634 C 0.38067 0.00231 0.9691 0.0
C2635 C 0.36036 0.97347 0.95411 0.0
C2636 C 0.34837 0.96281 0.93693 0.0
C2637 C 0.36775 0.99157 0.95306 0.0
C2638 C 0.343 0.97038 0.91954 0.0
C2639 C 0.35003 0.98837 0.91867 0.0
H2640 H 0.3534 0.38839 0.46079 0.0
H2641 H 0.39673 0.43219 0.42713 0.0
H2642 H 0.41347 0.4174 0.42863 0.0
H2643 H 0.41572 0.39197 0.43847 0.0
H2644 H 0.37275 0.34774 0.47174 0.0
H2645 H 0.35579 0.36259 0.4709 0.0
C2646 C 0.36648 0.39464 0.45372 0.0
C2647 C 0.37385 0.41145 0.44409 0.0
C2648 C 0.37606 0.38597 0.45442 0.0
C2649 C 0.39086 0.41942 0.4351 0.0
C2650 C 0.40042 0.41092 0.43577 0.0
C2651 C 0.40273 0.38565 0.44589 0.0
C2652 C 0.39557 0.36886 0.45538 0.0
C2653 C 0.39316 0.39423 0.44537 0.0
C2654 C 0.37853 0.36066 0.46428 0.0
C2655 C 0.36887 0.36916 0.46387 0.0
H2656 H 0.02535 0.40783 0.96685 0.0
H2657 H 0.02843 0.36649 0.93155 0.0
H2658 H 0.99671 0.34893 0.93099 0.0
H2659 H 0.96818 0.34619 0.9383 0.0
H2660 H 0.96549 0.3884 0.97179 0.0
H2661 H 0.99695 0.40451 0.97591 0.0
C2662 C 0.01909 0.39483 0.95949 0.0
C2663 C 0.02919 0.38846 0.94925 0.0
C2664 C 0.00091 0.38497 0.95887 0.0
C2665 C 0.02089 0.37172 0.93938 0.0
C2666 C 0.00278 0.36168 0.93907 0.0
C2667 C 0.97448 0.35891 0.94649 0.0
C2668 C 0.96443 0.36604 0.95467 0.0
C2669 C 0.99266 0.36834 0.94832 0.0
C2670 C 0.97281 0.38244 0.96562 0.0
C2671 C 0.99085 0.39176 0.96782 0.0
H2672 H 0.62307 0.96648 0.44452 0.0
H2673 H 0.5752 0.96441 0.46434 0.0
H2674 H 0.59018 0.99595 0.46715 0.0
H2675 H 0.61628 0.0241 0.46161 0.0
H2676 H 0.66436 0.02674 0.44161 0.0
H2677 H 0.64982 0.995 0.44084 0.0
C2678 C 0.61596 0.97296 0.44948 0.0
C2679 C 0.59806 0.96308 0.4543 0.0
C2680 C 0.62463 0.99118 0.45085 0.0
C2681 C 0.58903 0.97165 0.46091 0.0
C2682 C 0.59755 0.98971 0.46235 0.0
C2683 C 0.62371 0.01778 0.45757 0.0
C2684 C 0.6414 0.02781 0.45172 0.0
C2685 C 0.61529 -0.0004 0.45714 0.0
C2686 C 0.65069 0.01933 0.44597 0.0
C2687 C 0.64239 0.00119 0.44559 0.0
H2688 H 0.44002 0.58937 0.96327 0.0
H2689 H 0.47442 0.5894 0.01676 0.0
H2690 H 0.45005 0.56447 0.03602 0.0
H2691 H 0.41918 0.54275 0.0374 0.0
H2692 H 0.38523 0.54079 0.9815 0.0
H2693 H 0.40909 0.56673 0.96388 0.0
C2694 C 0.44208 0.58389 0.97919 0.0
C2695 C 0.45886 0.59111 0.9887 0.0
C2696 C 0.42811 0.56935 0.98981 0.0
C2697 C 0.46155 0.58391 0.00916 0.0
C2698 C 0.44765 0.56974 0.02017 0.0
C2699 C 0.41696 0.54775 0.02116 0.0
C2700 C 0.40029 0.53967 0.01091 0.0
C2701 C 0.4309 0.56229 0.01056 0.0
C2702 C 0.39774 0.54681 0.99017 0.0
C2703 C 0.41146 0.56158 0.97988 0.0
H2704 H 0.87933 0.40922 0.48535 0.0
H2705 H 0.87191 0.42359 0.55518 0.0
H2706 H 0.87111 0.44867 0.5391 0.0
H2707 H 0.87262 0.46654 0.50523 0.0
H2708 H 0.88003 0.45214 0.43542 0.0
H2709 H 0.88117 0.42726 0.45156 0.0
C2710 C 0.87774 0.41795 0.49709 0.0
C2711 C 0.87568 0.41453 0.52143 0.0
C2712 C 0.87736 0.43236 0.48775 0.0
C2713 C 0.87332 0.42581 0.53635 0.0
C2714 C 0.87295 0.4402 0.52718 0.0
C2715 C 0.87434 0.45787 0.49353 0.0
C2716 C 0.8762 0.46117 0.46916 0.0
C2717 C 0.87489 0.44355 0.50291 0.0
C2718 C 0.87874 0.44999 0.45427 0.0
C2719 C 0.8793 0.43572 0.46347 0.0
H2720 H 0.40404 0.84846 0.98456 0.0
H2721 H 0.42787 0.90433 0.98566 0.0
H2722 H 0.45359 0.90672 0.00462 0.0
H2723 H 0.46952 0.89303 0.02039 0.0
H2724 H 0.44608 0.83726 0.01862 0.0
H2725 H 0.42015 0.83477 -8e-05 0.0
C2726 C 0.41493 0.86117 0.98871 0.0
C2727 C 0.41397 0.87618 0.98374 0.0
C2728 C 0.42978 0.86248 -0.00059 0.0
C2729 C 0.42812 0.89254 0.9896 0.0
C2730 C 0.44289 0.89394 0.00032 0.0
C2731 C 0.45866 0.88032 0.01611 0.0
C2732 C 0.45968 0.86535 0.02096 0.0
C2733 C 0.44385 0.879 0.00534 0.0
C2734 C 0.44565 0.84898 0.01491 0.0
C2735 C 0.43081 0.84755 0.0043 0.0
H2736 H 0.54812 0.42299 0.45755 0.0
H2737 H 0.53734 0.39128 0.51987 0.0
H2738 H 0.56248 0.41475 0.53941 0.0
H2739 H 0.58696 0.44474 0.53955 0.0
H2740 H 0.59629 0.47724 0.4787 0.0
H2741 H 0.57196 0.45317 0.4581 0.0
C2742 C 0.55108 0.42121 0.4755 0.0
C2743 C 0.54076 0.40524 0.48706 0.0
C2744 C 0.56524 0.435 0.48702 0.0
C2745 C 0.54516 0.40321 0.51021 0.0
C2746 C 0.55947 0.41672 0.52157 0.0
C2747 C 0.58368 0.44647 0.52173 0.0
C2748 C 0.59335 0.46265 0.51058 0.0
C2749 C 0.56954 0.43269 0.5102 0.0
C2750 C 0.58891 0.46488 0.48763 0.0
C2751 C 0.57507 0.45113 0.47585 0.0
H2752 H 0.11417 0.54125 0.96201 0.0
H2753 H 0.15047 0.5427 0.01379 0.0
H2754 H 0.152 0.56832 0.03179 0.0
H2755 H 0.14249 0.58991 0.03354 0.0
H2756 H 0.10519 0.58766 0.98302 0.0
H2757 H 0.10425 0.56246 0.96419 0.0
C2758 C 0.12227 0.54702 0.9774 0.0
C2759 C 0.13221 0.54001 0.98644 0.0
C2760 C 0.12284 0.56155 0.98799 0.0
C2761 C 0.14289 0.54793 0.00615 0.0
C2762 C 0.14368 0.56253 0.01661 0.0
C2763 C 0.13426 0.58396 0.0183 0.0
C2764 C 0.12396 0.59063 0.00963 0.0
C2765 C 0.13369 0.56942 0.00771 0.0
C2766 C 0.11315 0.58266 0.9901 0.0
C2767 C 0.11266 0.56831 0.97929 0.0
H2768 H 0.5479 0.12088 0.54525 0.0
H2769 H 0.54368 0.14851 0.48532 0.0
H2770 H 0.56929 0.14984 0.46777 0.0
H2771 H 0.59231 0.14223 0.46853 0.0
H2772 H 0.59528 0.11274 0.52681 0.0
H2773 H 0.57047 0.1127 0.54562 0.0
C2774 C 0.55242 0.12704 0.52823 0.0
C2775 C 0.5438 0.13464 0.51677 0.0
C2776 C 0.5669 0.12733 0.51783 0.0
C2777 C 0.55016 0.14284 0.49488 0.0
C2778 C 0.56475 0.14348 0.48466 0.0
C2779 C 0.58758 0.13593 0.48545 0.0
C2780 C 0.59559 0.12756 0.49635 0.0
C2781 C 0.57317 0.1357 0.49591 0.0
C2782 C 0.58922 0.1192 0.51807 0.0
C2783 C 0.5751 0.11921 0.52883 0.0
H2784 H 0.52845 0.40819 0.99819 0.0
H2785 H 0.56084 0.40698 0.05392 0.0
H2786 H 0.58616 0.43199 0.0366 0.0
H2787 H 0.59901 0.45437 0.00584 0.0
H2788 H 0.56663 0.45509 0.9497 0.0
H2789 H 0.54139 0.43 0.96693 0.0
C2790 C 0.54109 0.41325 0.0064 0.0
C2791 C 0.54274 0.4057 0.02731 0.0
C2792 C 0.55558 0.42755 0.9963 0.0
C2793 C 0.55916 0.41266 0.03797 0.0
C2794 C 0.57366 0.4269 0.028 0.0
C2795 C 0.58647 0.4489 0.99722 0.0
C2796 C 0.58471 0.4566 0.97652 0.0
C2797 C 0.57201 0.43446 0.0072 0.0
C2798 C 0.5683 0.44954 0.96579 0.0
C2799 C 0.55388 0.43515 0.97557 0.0
H2800 H 0.11996 0.58859 0.50857 0.0
H2801 H 0.15395 0.59125 0.45252 0.0
H2802 H 0.15475 0.56624 0.46899 0.0
H2803 H 0.14509 0.54313 0.49869 0.0
H2804 H 0.11065 0.54013 0.55431 0.0
H2805 H 0.1107 0.56578 0.53866 0.0
C2806 C 0.12771 0.58381 0.50016 0.0
C2807 C 0.13692 0.59175 0.47941 0.0
C2808 C 0.12794 0.56933 0.50956 0.0
C2809 C 0.14666 0.58526 0.46842 0.0
C2810 C 0.14715 0.571 0.47785 0.0
C2811 C 0.13776 0.54822 0.50751 0.0
C2812 C 0.1279 0.53978 0.52762 0.0
C2813 C 0.13775 0.56287 0.49832 0.0
C2814 C 0.11821 0.54633 0.53867 0.0
C2815 C 0.1183 0.56102 0.5298 0.0
H2816 H 0.57438 0.10945 0.01424 0.0
H2817 H 0.5955 0.16291 0.0354 0.0
H2818 H 0.57163 0.16392 0.01556 0.0
H2819 H 0.54446 0.14942 0.99276 0.0
H2820 H 0.52324 0.09584 0.97226 0.0
H2821 H 0.54727 0.09496 0.99178 0.0
C2822 C 0.57366 0.12127 0.01478 0.0
C2823 C 0.58668 0.13606 0.02638 0.0
C2824 C 0.55985 0.12172 0.00354 0.0
C2825 C 0.58574 0.15138 0.02643 0.0
C2826 C 0.57205 0.15195 0.01519 0.0
C2827 C 0.54519 0.13761 0.99241 0.0
C2828 C 0.53209 0.12272 0.98111 0.0
C2829 C 0.55903 0.13719 0.00369 0.0
C2830 C 0.53307 0.10742 0.98108 0.0
C2831 C 0.54683 0.10693 0.99213 0.0
H2832 H 0.43798 0.60376 0.51684 0.0
H2833 H 0.46511 0.57501 0.52222 0.0
H2834 H 0.44189 0.55084 0.50063 0.0
H2835 H 0.41408 0.53792 0.48004 0.0
H2836 H 0.38627 0.56595 0.47487 0.0
H2837 H 0.40951 0.59038 0.49662 0.0
C2838 C 0.43877 0.5922 0.5132 0.0
C2839 C 0.45319 0.59112 0.52115 0.0
C2840 C 0.42529 0.57827 0.50083 0.0
C2841 C 0.45403 0.57604 0.51654 0.0
C2842 C 0.44082 0.56226 0.50408 0.0
C2843 C 0.41319 0.54945 0.48351 0.0
C2844 C 0.39864 0.55028 0.47567 0.0
C2845 C 0.42644 0.56326 0.49611 0.0
C2846 C 0.3974 0.56508 0.48075 0.0
C2847 C 0.41068 0.57903 0.49311 0.0
H2848 H 0.87922 0.42147 0.95984 0.0
H2849 H 0.82778 0.38578 0.98558 0.0
H2850 H 0.82658 0.4097 0.00509 0.0
H2851 H 0.84063 0.44069 0.01584 0.0
H2852 H 0.89202 0.47614 0.98959 0.0
H2853 H 0.89269 0.45237 0.96913 0.0
C2854 C 0.86762 0.41895 0.96938 0.0
C2855 C 0.8536 0.40188 0.9712 0.0
C2856 C 0.86705 0.43271 0.98058 0.0
C2857 C 0.83881 0.39879 0.98408 0.0
C2858 C 0.8381 0.41246 0.99517 0.0
C2859 C 0.85188 0.44322 0.00542 0.0
C2860 C 0.8663 0.46013 0.00439 0.0
C2861 C 0.85221 0.42946 0.99369 0.0
C2862 C 0.88087 0.46319 0.991 0.0
C2863 C 0.88124 0.44963 0.97919 0.0
H2864 H 0.45228 0.87922 0.46253 0.0
H2865 H 0.45191 0.84293 0.5133 0.0
H2866 H 0.42709 0.84196 0.5333 0.0
H2867 H 0.40619 0.85225 0.53713 0.0
H2868 H 0.40642 0.88826 0.48589 0.0
H2869 H 0.4309 0.88884 0.46567 0.0
C2870 C 0.44681 0.87117 0.47805 0.0
C2871 C 0.45395 0.86122 0.48648 0.0
C2872 C 0.43264 0.87075 0.4895 0.0
C2873 C 0.44655 0.8506 0.50635 0.0
C2874 C 0.43243 0.85012 0.51787 0.0
C2875 C 0.41146 0.86007 0.52139 0.0
C2876 C 0.40454 0.87028 0.51317 0.0
C2877 C 0.42544 0.86022 0.50967 0.0
C2878 C 0.41169 0.88052 0.49289 0.0
C2879 C 0.42561 0.88077 0.4812 0.0
loop_
_geom_bond_atom_site_label_1
_geom_bond_atom_site_label_2
_geom_bond_distance
_geom_bond_site_symmetry_2
_ccdc_geom_bond_type
Li0 N17 1.990 . S
Li0 O60 1.956 . S
Li0 O61 1.970 . S
Li0 O62 1.961 . S
Li1 N25 1.990 . S
Li1 O60 1.970 . S
Li1 O61 1.956 . S
Li1 O63 1.961 . S
Li2 N47 1.990 . S
Li2 O60 1.961 . S
Li2 O62 1.956 . S
Li2 O63 1.970 . S
Li3 N53 1.990 . S
Li3 O61 1.961 . S
Li3 O62 1.970 . S
Li3 O63 1.956 . S
C4 C6 1.348 . S
C4 C7 1.356 . S
C4 O60 1.325 . S
N5 C8 1.314 . S
N5 C9 1.279 . S
C6 C4 1.348 . S
C6 C8 1.353 . S
C6 H64 0.929 . S
C7 C4 1.356 . S
C7 C9 1.358 . S
C7 H65 0.930 . S
C8 N5 1.314 . S
C8 C6 1.353 . S
C8 H66 0.930 . S
C9 N5 1.279 . S
C9 C7 1.358 . S
C9 H67 0.930 . S
C10 C13 1.348 . S
C10 C14 1.356 . S
C10 O61 1.325 . S
C11 N12 1.279 . S
C11 C14 1.358 . S
C11 H68 0.930 . S
N12 C11 1.279 . S
N12 C15 1.314 . S
C13 C10 1.348 . S
C13 C15 1.353 . S
C13 H69 0.929 . S
C14 C10 1.356 . S
C14 C11 1.358 . S
C14 H70 0.930 . S
C15 N12 1.314 . S
C15 C13 1.353 . S
C15 H71 0.930 . S
C16 N17 1.314 . S
C16 C21 1.353 . S
C16 H22 0.930 . S
N17 Li0 1.990 . S
N17 C16 1.314 . S
N17 C19 1.279 . S
C18 C19 1.358 . S
C18 C20 1.356 . S
C18 H72 0.930 . S
C19 N17 1.279 . S
C19 C18 1.358 . S
C19 H23 0.930 . S
C20 C18 1.356 . S
C20 C21 1.348 . S
C21 C16 1.353 . S
C21 C20 1.348 . S
C21 H73 0.929 . S
H22 C16 0.930 . S
H23 C19 0.930 . S
C24 N25 1.314 . S
C24 C26 1.353 . S
C24 H30 0.930 . S
N25 Li1 1.990 . S
N25 C24 1.314 . S
N25 C28 1.279 . S
C26 C24 1.353 . S
C26 C29 1.348 . S
C26 H74 0.929 . S
C27 C28 1.358 . S
C27 C29 1.356 . S
C27 H75 0.930 . S
C28 N25 1.279 . S
C28 C27 1.358 . S
C28 H31 0.930 . S
C29 C26 1.348 . S
C29 C27 1.356 . S
H30 C24 0.930 . S
H31 C28 0.930 . S
C32 C34 1.348 . S
C32 C35 1.356 . S
C32 O62 1.325 . S
N33 C36 1.314 . S
N33 C37 1.279 . S
C34 C32 1.348 . S
C34 C36 1.353 . S
C34 H76 0.929 . S
C35 C32 1.356 . S
C35 C37 1.358 . S
C35 H77 0.930 . S
C36 N33 1.314 . S
C36 C34 1.353 . S
C36 H78 0.930 . S
C37 N33 1.279 . S
C37 C35 1.358 . S
C37 H79 0.930 . S
C38 C39 1.348 1_554 S
C38 C40 1.356 . S
C38 O63 1.325 . S
C39 C38 1.348 1_556 S
C39 C41 1.353 . S
C39 H80 0.929 1_556 S
C40 C38 1.356 . S
C40 C42 1.358 1_554 S
C40 H81 0.930 . S
C41 C39 1.353 . S
C41 N43 1.314 . S
C41 H82 0.930 . S
C42 C40 1.358 1_556 S
C42 N43 1.279 . S
C42 H83 0.930 . S
N43 C41 1.314 . S
N43 C42 1.279 . S
C44 C46 1.353 . S
C44 N47 1.314 . S
C44 H50 0.930 . S
C45 N47 1.279 . S
C45 C48 1.358 . S
C45 H51 0.930 . S
C46 C44 1.353 . S
C46 C49 1.348 . S
C46 H84 0.929 . S
N47 Li2 1.990 . S
N47 C44 1.314 . S
N47 C45 1.279 . S
C48 C45 1.358 . S
C48 C49 1.356 . S
C48 H85 0.930 . S
C49 C46 1.348 . S
C49 C48 1.356 . S
H50 C44 0.930 . S
H51 C45 0.930 . S
C52 N53 1.314 . S
C52 C54 1.353 . S
C52 H58 0.930 . S
N53 Li3 1.990 . S
N53 C52 1.314 . S
N53 C56 1.279 . S
C54 C52 1.353 . S
C54 C57 1.348 . S
C54 H86 0.929 . S
C55 C56 1.358 . S
C55 C57 1.356 . S
C55 H87 0.930 1_554 S
C56 N53 1.279 . S
C56 C55 1.358 . S
C56 H59 0.930 . S
C57 C54 1.348 . S
C57 C55 1.356 . S
H58 C52 0.930 . S
H59 C56 0.930 . S
O60 Li0 1.956 . S
O60 Li1 1.970 . S
O60 Li2 1.961 . S
O60 C4 1.325 . S
O61 Li0 1.970 . S
O61 Li1 1.956 . S
O61 Li3 1.961 . S
O61 C10 1.325 . S
O62 Li0 1.961 . S
O62 Li2 1.956 . S
O62 Li3 1.970 . S
O62 C32 1.325 . S
O63 Li1 1.961 . S
O63 Li2 1.970 . S
O63 Li3 1.956 . S
O63 C38 1.325 . S
H64 C6 0.929 . S
H65 C7 0.930 . S
H66 C8 0.930 . S
H67 C9 0.930 . S
H68 C11 0.930 . S
H69 C13 0.929 . S
H70 C14 0.930 . S
H71 C15 0.930 . S
H72 C18 0.930 . S
H73 C21 0.929 . S
H74 C26 0.929 . S
H75 C27 0.930 . S
H76 C34 0.929 . S
H77 C35 0.930 . S
H78 C36 0.930 . S
H79 C37 0.930 . S
H80 C39 0.929 1_554 S
H81 C40 0.930 . S
H82 C41 0.930 . S
H83 C42 0.930 . S
H84 C46 0.929 . S
H85 C48 0.930 . S
H86 C54 0.929 . S
H87 C55 0.930 1_556 S
Li88 N105 1.990 . S
Li88 O148 1.956 . S
Li88 O149 1.970 . S
Li88 O150 1.961 . S
Li89 N113 1.990 . S
Li89 O148 1.970 . S
Li89 O149 1.956 . S
Li89 O151 1.961 . S
Li90 N135 1.990 . S
Li90 O148 1.961 . S
Li90 O150 1.956 . S
Li90 O151 1.970 . S
Li91 N141 1.990 . S
Li91 O149 1.961 . S
Li91 O150 1.970 . S
Li91 O151 1.956 . S
C92 C94 1.348 . S
C92 C95 1.356 . S
C92 O148 1.325 . S
N93 C96 1.314 . S
N93 C97 1.279 . S
C94 C92 1.348 . S
C94 C96 1.353 . S
C94 H152 0.929 . S
C95 C92 1.356 . S
C95 C97 1.358 . S
C95 H153 0.930 . S
C96 N93 1.314 . S
C96 C94 1.353 . S
C96 H154 0.930 . S
C97 N93 1.279 . S
C97 C95 1.358 . S
C97 H155 0.930 . S
C98 C101 1.348 . S
C98 C102 1.356 . S
C98 O149 1.325 . S
C99 N100 1.279 . S
C99 C102 1.358 . S
C99 H156 0.930 . S
N100 C99 1.279 . S
N100 C103 1.314 . S
C101 C98 1.348 . S
C101 C103 1.353 . S
C101 H157 0.929 . S
C102 C98 1.356 . S
C102 C99 1.358 . S
C102 H158 0.930 . S
C103 N100 1.314 . S
C103 C101 1.353 . S
C103 H159 0.930 . S
C104 N105 1.314 . S
C104 C109 1.353 . S
C104 H110 0.930 . S
N105 Li88 1.990 . S
N105 C104 1.314 . S
N105 C107 1.279 . S
C106 C107 1.358 . S
C106 C108 1.356 . S
C106 H160 0.930 . S
C107 N105 1.279 . S
C107 C106 1.358 . S
C107 H111 0.930 . S
C108 C106 1.356 . S
C108 C109 1.348 . S
C109 C104 1.353 . S
C109 C108 1.348 . S
C109 H161 0.929 . S
H110 C104 0.930 . S
H111 C107 0.930 . S
C112 N113 1.314 . S
C112 C114 1.353 . S
C112 H118 0.930 . S
N113 Li89 1.990 . S
N113 C112 1.314 . S
N113 C116 1.279 . S
C114 C112 1.353 . S
C114 C117 1.348 . S
C114 H162 0.929 . S
C115 C116 1.358 . S
C115 C117 1.356 . S
C115 H163 0.930 . S
C116 N113 1.279 . S
C116 C115 1.358 . S
C116 H119 0.930 . S
C117 C114 1.348 . S
C117 C115 1.356 . S
H118 C112 0.930 . S
H119 C116 0.930 . S
C120 C122 1.348 . S
C120 C123 1.356 . S
C120 O150 1.325 . S
N121 C124 1.314 . S
N121 C125 1.279 . S
C122 C120 1.348 . S
C122 C124 1.353 . S
C122 H164 0.929 . S
C123 C120 1.356 . S
C123 C125 1.358 . S
C123 H165 0.930 . S
C124 N121 1.314 . S
C124 C122 1.353 . S
C124 H166 0.930 . S
C125 N121 1.279 . S
C125 C123 1.358 . S
C125 H167 0.930 . S
C126 C127 1.348 . S
C126 C128 1.356 . S
C126 O151 1.325 . S
C127 C126 1.348 . S
C127 C129 1.353 . S
C127 H168 0.929 . S
C128 C126 1.356 . S
C128 C130 1.358 . S
C128 H169 0.930 . S
C129 C127 1.353 . S
C129 N131 1.314 . S
C129 H170 0.930 . S
C130 C128 1.358 . S
C130 N131 1.279 . S
C130 H171 0.930 . S
N131 C129 1.314 . S
N131 C130 1.279 . S
C132 C134 1.353 . S
C132 N135 1.314 . S
C132 H138 0.930 . S
C133 N135 1.279 . S
C133 C136 1.358 . S
C133 H139 0.930 . S
C134 C132 1.353 . S
C134 C137 1.348 . S
C134 H172 0.929 . S
N135 Li90 1.990 . S
N135 C132 1.314 . S
N135 C133 1.279 . S
C136 C133 1.358 . S
C136 C137 1.356 . S
C136 H173 0.930 . S
C137 C134 1.348 . S
C137 C136 1.356 . S
H138 C132 0.930 . S
H139 C133 0.930 . S
C140 N141 1.314 . S
C140 C142 1.353 . S
C140 H146 0.930 . S
N141 Li91 1.990 . S
N141 C140 1.314 . S
N141 C144 1.279 . S
C142 C140 1.353 . S
C142 C145 1.348 . S
C142 H174 0.929 . S
C143 C144 1.358 . S
C143 C145 1.356 . S
C143 H175 0.930 . S
C144 N141 1.279 . S
C144 C143 1.358 . S
C144 H147 0.930 . S
C145 C142 1.348 . S
C145 C143 1.356 . S
H146 C140 0.930 . S
H147 C144 0.930 . S
O148 Li88 1.956 . S
O148 Li89 1.970 . S
O148 Li90 1.961 . S
O148 C92 1.325 . S
O149 Li88 1.970 . S
O149 Li89 1.956 . S
O149 Li91 1.961 . S
O149 C98 1.325 . S
O150 Li88 1.961 . S
O150 Li90 1.956 . S
O150 Li91 1.970 . S
O150 C120 1.325 . S
O151 Li89 1.961 . S
O151 Li90 1.970 . S
O151 Li91 1.956 . S
O151 C126 1.325 . S
H152 C94 0.929 . S
H153 C95 0.930 . S
H154 C96 0.930 . S
H155 C97 0.930 . S
H156 C99 0.930 . S
H157 C101 0.929 . S
H158 C102 0.930 . S
H159 C103 0.930 . S
H160 C106 0.930 . S
H161 C109 0.929 . S
H162 C114 0.929 . S
H163 C115 0.930 . S
H164 C122 0.929 . S
H165 C123 0.930 . S
H166 C124 0.930 . S
H167 C125 0.930 . S
H168 C127 0.929 . S
H169 C128 0.930 . S
H170 C129 0.930 . S
H171 C130 0.930 . S
H172 C134 0.929 . S
H173 C136 0.930 . S
H174 C142 0.929 . S
H175 C143 0.930 . S
Li176 N193 1.990 . S
Li176 O236 1.956 . S
Li176 O237 1.970 . S
Li176 O238 1.961 . S
Li177 N201 1.990 . S
Li177 O236 1.970 . S
Li177 O237 1.956 . S
Li177 O239 1.961 . S
Li178 N223 1.990 . S
Li178 O236 1.961 . S
Li178 O238 1.956 . S
Li178 O239 1.970 . S
Li179 N229 1.990 . S
Li179 O237 1.961 . S
Li179 O238 1.970 . S
Li179 O239 1.956 . S
C180 C182 1.348 . S
C180 C183 1.356 . S
C180 O236 1.325 . S
N181 C184 1.314 . S
N181 C185 1.279 . S
C182 C180 1.348 . S
C182 C184 1.353 . S
C182 H240 0.929 . S
C183 C180 1.356 . S
C183 C185 1.358 . S
C183 H241 0.930 . S
C184 N181 1.314 . S
C184 C182 1.353 . S
C184 H242 0.930 . S
C185 N181 1.279 . S
C185 C183 1.358 . S
C185 H243 0.930 . S
C186 C189 1.348 . S
C186 C190 1.356 . S
C186 O237 1.325 . S
C187 N188 1.279 . S
C187 C190 1.358 . S
C187 H244 0.930 . S
N188 C187 1.279 . S
N188 C191 1.314 . S
C189 C186 1.348 . S
C189 C191 1.353 . S
C189 H245 0.929 . S
C190 C186 1.356 . S
C190 C187 1.358 . S
C190 H246 0.930 . S
C191 N188 1.314 . S
C191 C189 1.353 . S
C191 H247 0.930 . S
C192 N193 1.314 . S
C192 C197 1.353 . S
C192 H198 0.930 . S
N193 Li176 1.990 . S
N193 C192 1.314 . S
N193 C195 1.279 . S
C194 C195 1.358 . S
C194 C196 1.356 . S
C194 H248 0.930 . S
C195 N193 1.279 . S
C195 C194 1.358 . S
C195 H199 0.930 . S
C196 C194 1.356 . S
C196 C197 1.348 . S
C197 C192 1.353 . S
C197 C196 1.348 . S
C197 H249 0.929 . S
H198 C192 0.930 . S
H199 C195 0.930 . S
C200 N201 1.314 . S
C200 C202 1.353 . S
C200 H206 0.930 . S
N201 Li177 1.990 . S
N201 C200 1.314 . S
N201 C204 1.279 . S
C202 C200 1.353 . S
C202 C205 1.348 . S
C202 H250 0.929 . S
C203 C204 1.358 . S
C203 C205 1.356 . S
C203 H251 0.930 . S
C204 N201 1.279 . S
C204 C203 1.358 . S
C204 H207 0.930 . S
C205 C202 1.348 . S
C205 C203 1.356 . S
H206 C200 0.930 . S
H207 C204 0.930 . S
C208 C210 1.348 1_554 S
C208 C211 1.356 . S
C208 O238 1.325 . S
N209 C212 1.314 . S
N209 C213 1.279 . S
C210 C208 1.348 1_556 S
C210 C212 1.353 . S
C210 H252 0.929 1_556 S
C211 C208 1.356 . S
C211 C213 1.358 1_554 S
C211 H253 0.930 . S
C212 N209 1.314 . S
C212 C210 1.353 . S
C212 H254 0.930 . S
C213 N209 1.279 . S
C213 C211 1.358 1_556 S
C213 H255 0.930 . S
C214 C215 1.348 . S
C214 C216 1.356 . S
C214 O239 1.325 . S
C215 C214 1.348 . S
C215 C217 1.353 . S
C215 H256 0.929 . S
C216 C214 1.356 . S
C216 C218 1.358 . S
C216 H257 0.930 . S
C217 C215 1.353 . S
C217 N219 1.314 . S
C217 H258 0.930 . S
C218 C216 1.358 . S
C218 N219 1.279 . S
C218 H259 0.930 . S
N219 C217 1.314 . S
N219 C218 1.279 . S
C220 C222 1.353 . S
C220 N223 1.314 . S
C220 H226 0.930 . S
C221 N223 1.279 . S
C221 C224 1.358 . S
C221 H227 0.930 . S
C222 C220 1.353 . S
C222 C225 1.348 . S
C222 H260 0.929 . S
N223 Li178 1.990 . S
N223 C220 1.314 . S
N223 C221 1.279 . S
C224 C221 1.358 . S
C224 C225 1.356 . S
C224 H261 0.930 1_554 S
C225 C222 1.348 . S
C225 C224 1.356 . S
H226 C220 0.930 . S
H227 C221 0.930 . S
C228 N229 1.314 . S
C228 C230 1.353 . S
C228 H234 0.930 . S
N229 Li179 1.990 . S
N229 C228 1.314 . S
N229 C232 1.279 . S
C230 C228 1.353 . S
C230 C233 1.348 . S
C230 H262 0.929 . S
C231 C232 1.358 . S
C231 C233 1.356 . S
C231 H263 0.930 . S
C232 N229 1.279 . S
C232 C231 1.358 . S
C232 H235 0.930 . S
C233 C230 1.348 . S
C233 C231 1.356 . S
H234 C228 0.930 . S
H235 C232 0.930 . S
O236 Li176 1.956 . S
O236 Li177 1.970 . S
O236 Li178 1.961 . S
O236 C180 1.325 . S
O237 Li176 1.970 . S
O237 Li177 1.956 . S
O237 Li179 1.961 . S
O237 C186 1.325 . S
O238 Li176 1.961 . S
O238 Li178 1.956 . S
O238 Li179 1.970 . S
O238 C208 1.325 . S
O239 Li177 1.961 . S
O239 Li178 1.970 . S
O239 Li179 1.956 . S
O239 C214 1.325 . S
H240 C182 0.929 . S
H241 C183 0.930 . S
H242 C184 0.930 . S
H243 C185 0.930 . S
H244 C187 0.930 . S
H245 C189 0.929 . S
H246 C190 0.930 . S
H247 C191 0.930 . S
H248 C194 0.930 . S
H249 C197 0.929 . S
H250 C202 0.929 . S
H251 C203 0.930 . S
H252 C210 0.929 1_554 S
H253 C211 0.930 . S
H254 C212 0.930 . S
H255 C213 0.930 . S
H256 C215 0.929 . S
H257 C216 0.930 . S
H258 C217 0.930 . S
H259 C218 0.930 . S
H260 C222 0.929 . S
H261 C224 0.930 1_556 S
H262 C230 0.929 . S
H263 C231 0.930 . S
Li264 N281 1.990 . S
Li264 O324 1.956 . S
Li264 O325 1.970 . S
Li264 O326 1.961 . S
Li265 N289 1.990 . S
Li265 O324 1.970 . S
Li265 O325 1.956 . S
Li265 O327 1.961 . S
Li266 N311 1.990 . S
Li266 O324 1.961 . S
Li266 O326 1.956 . S
Li266 O327 1.970 . S
Li267 N317 1.990 . S
Li267 O325 1.961 . S
Li267 O326 1.970 . S
Li267 O327 1.956 . S
C268 C270 1.348 . S
C268 C271 1.356 . S
C268 O324 1.325 . S
N269 C272 1.314 . S
N269 C273 1.279 . S
C270 C268 1.348 . S
C270 C272 1.353 . S
C270 H328 0.929 . S
C271 C268 1.356 . S
C271 C273 1.358 . S
C271 H329 0.930 . S
C272 N269 1.314 . S
C272 C270 1.353 . S
C272 H330 0.930 . S
C273 N269 1.279 . S
C273 C271 1.358 . S
C273 H331 0.930 . S
C274 C277 1.348 . S
C274 C278 1.356 . S
C274 O325 1.325 . S
C275 N276 1.279 . S
C275 C278 1.358 . S
C275 H332 0.930 . S
N276 C275 1.279 . S
N276 C279 1.314 . S
C277 C274 1.348 . S
C277 C279 1.353 . S
C277 H333 0.929 . S
C278 C274 1.356 . S
C278 C275 1.358 . S
C278 H334 0.930 . S
C279 N276 1.314 . S
C279 C277 1.353 . S
C279 H335 0.930 . S
C280 N281 1.314 . S
C280 C285 1.353 . S
C280 H286 0.930 . S
N281 Li264 1.990 . S
N281 C280 1.314 . S
N281 C283 1.279 . S
C282 C283 1.358 . S
C282 C284 1.356 . S
C282 H336 0.930 . S
C283 N281 1.279 . S
C283 C282 1.358 . S
C283 H287 0.930 . S
C284 C282 1.356 . S
C284 C285 1.348 . S
C285 C280 1.353 . S
C285 C284 1.348 . S
C285 H337 0.929 . S
H286 C280 0.930 . S
H287 C283 0.930 . S
C288 N289 1.314 . S
C288 C290 1.353 . S
C288 H294 0.930 . S
N289 Li265 1.990 . S
N289 C288 1.314 . S
N289 C292 1.279 . S
C290 C288 1.353 . S
C290 C293 1.348 . S
C290 H338 0.929 . S
C291 C292 1.358 . S
C291 C293 1.356 . S
C291 H339 0.930 . S
C292 N289 1.279 . S
C292 C291 1.358 . S
C292 H295 0.930 . S
C293 C290 1.348 . S
C293 C291 1.356 . S
H294 C288 0.930 . S
H295 C292 0.930 . S
C296 C298 1.348 . S
C296 C299 1.356 . S
C296 O326 1.325 . S
N297 C300 1.314 . S
N297 C301 1.279 . S
C298 C296 1.348 . S
C298 C300 1.353 . S
C298 H340 0.929 . S
C299 C296 1.356 . S
C299 C301 1.358 . S
C299 H341 0.930 . S
C300 N297 1.314 . S
C300 C298 1.353 . S
C300 H342 0.930 . S
C301 N297 1.279 . S
C301 C299 1.358 . S
C301 H343 0.930 . S
C302 C303 1.348 . S
C302 C304 1.356 . S
C302 O327 1.325 . S
C303 C302 1.348 . S
C303 C305 1.353 . S
C303 H344 0.929 . S
C304 C302 1.356 . S
C304 C306 1.358 . S
C304 H345 0.930 . S
C305 C303 1.353 . S
C305 N307 1.314 . S
C305 H346 0.930 . S
C306 C304 1.358 . S
C306 N307 1.279 . S
C306 H347 0.930 . S
N307 C305 1.314 . S
N307 C306 1.279 . S
C308 C310 1.353 . S
C308 N311 1.314 . S
C308 H314 0.930 . S
C309 N311 1.279 . S
C309 C312 1.358 . S
C309 H315 0.930 . S
C310 C308 1.353 . S
C310 C313 1.348 . S
C310 H348 0.929 . S
N311 Li266 1.990 . S
N311 C308 1.314 . S
N311 C309 1.279 . S
C312 C309 1.358 . S
C312 C313 1.356 . S
C312 H349 0.930 . S
C313 C310 1.348 . S
C313 C312 1.356 . S
H314 C308 0.930 . S
H315 C309 0.930 . S
C316 N317 1.314 . S
C316 C318 1.353 . S
C316 H322 0.930 . S
N317 Li267 1.990 . S
N317 C316 1.314 . S
N317 C320 1.279 . S
C318 C316 1.353 . S
C318 C321 1.348 . S
C318 H350 0.929 . S
C319 C320 1.358 . S
C319 C321 1.356 . S
C319 H351 0.930 . S
C320 N317 1.279 . S
C320 C319 1.358 . S
C320 H323 0.930 . S
C321 C318 1.348 . S
C321 C319 1.356 . S
H322 C316 0.930 . S
H323 C320 0.930 . S
O324 Li264 1.956 . S
O324 Li265 1.970 . S
O324 Li266 1.961 . S
O324 C268 1.325 . S
O325 Li264 1.970 . S
O325 Li265 1.956 . S
O325 Li267 1.961 . S
O325 C274 1.325 . S
O326 Li264 1.961 . S
O326 Li266 1.956 . S
O326 Li267 1.970 . S
O326 C296 1.325 . S
O327 Li265 1.961 . S
O327 Li266 1.970 . S
O327 Li267 1.956 . S
O327 C302 1.325 . S
H328 C270 0.929 . S
H329 C271 0.930 . S
H330 C272 0.930 . S
H331 C273 0.930 . S
H332 C275 0.930 . S
H333 C277 0.929 . S
H334 C278 0.930 . S
H335 C279 0.930 . S
H336 C282 0.930 . S
H337 C285 0.929 . S
H338 C290 0.929 . S
H339 C291 0.930 . S
H340 C298 0.929 . S
H341 C299 0.930 . S
H342 C300 0.930 . S
H343 C301 0.930 . S
H344 C303 0.929 . S
H345 C304 0.930 . S
H346 C305 0.930 . S
H347 C306 0.930 . S
H348 C310 0.929 . S
H349 C312 0.930 . S
H350 C318 0.929 . S
H351 C319 0.930 . S
Li352 N369 1.990 . S
Li352 O412 1.956 . S
Li352 O413 1.970 . S
Li352 O414 1.961 . S
Li353 N377 1.990 . S
Li353 O412 1.970 . S
Li353 O413 1.956 . S
Li353 O415 1.961 . S
Li354 N399 1.990 . S
Li354 O412 1.961 . S
Li354 O414 1.956 . S
Li354 O415 1.970 . S
Li355 N405 1.990 . S
Li355 O413 1.961 . S
Li355 O414 1.970 . S
Li355 O415 1.956 . S
C356 C358 1.348 . S
C356 C359 1.356 . S
C356 O412 1.325 . S
N357 C360 1.314 . S
N357 C361 1.279 . S
C358 C356 1.348 . S
C358 C360 1.353 . S
C358 H416 0.929 . S
C359 C356 1.356 . S
C359 C361 1.358 . S
C359 H417 0.930 . S
C360 N357 1.314 . S
C360 C358 1.353 . S
C360 H418 0.930 . S
C361 N357 1.279 . S
C361 C359 1.358 . S
C361 H419 0.930 . S
C362 C365 1.348 . S
C362 C366 1.356 . S
C362 O413 1.325 . S
C363 N364 1.279 . S
C363 C366 1.358 . S
C363 H420 0.930 . S
N364 C363 1.279 . S
N364 C367 1.314 . S
C365 C362 1.348 . S
C365 C367 1.353 . S
C365 H421 0.929 . S
C366 C362 1.356 . S
C366 C363 1.358 . S
C366 H422 0.930 . S
C367 N364 1.314 . S
C367 C365 1.353 . S
C367 H423 0.930 . S
C368 N369 1.314 . S
C368 C373 1.353 . S
C368 H374 0.930 . S
N369 Li352 1.990 . S
N369 C368 1.314 . S
N369 C371 1.279 . S
C370 C371 1.358 . S
C370 C372 1.356 . S
C370 H424 0.930 . S
C371 N369 1.279 . S
C371 C370 1.358 . S
C371 H375 0.930 . S
C372 C370 1.356 . S
C372 C373 1.348 . S
C373 C368 1.353 . S
C373 C372 1.348 . S
C373 H425 0.929 . S
H374 C368 0.930 . S
H375 C371 0.930 . S
C376 N377 1.314 . S
C376 C378 1.353 . S
C376 H382 0.930 . S
N377 Li353 1.990 . S
N377 C376 1.314 . S
N377 C380 1.279 . S
C378 C376 1.353 . S
C378 C381 1.348 . S
C378 H426 0.929 . S
C379 C380 1.358 . S
C379 C381 1.356 . S
C379 H427 0.930 . S
C380 N377 1.279 . S
C380 C379 1.358 . S
C380 H383 0.930 . S
C381 C378 1.348 . S
C381 C379 1.356 . S
H382 C376 0.930 . S
H383 C380 0.930 . S
C384 C386 1.348 . S
C384 C387 1.356 . S
C384 O414 1.325 . S
N385 C388 1.314 . S
N385 C389 1.279 . S
C386 C384 1.348 . S
C386 C388 1.353 . S
C386 H428 0.929 . S
C387 C384 1.356 . S
C387 C389 1.358 . S
C387 H429 0.930 . S
C388 N385 1.314 . S
C388 C386 1.353 . S
C388 H430 0.930 . S
C389 N385 1.279 . S
C389 C387 1.358 . S
C389 H431 0.930 . S
C390 C391 1.348 1_554 S
C390 C392 1.356 . S
C390 O415 1.325 . S
C391 C390 1.348 1_556 S
C391 C393 1.353 . S
C391 H432 0.929 1_556 S
C392 C390 1.356 . S
C392 C394 1.358 1_554 S
C392 H433 0.930 . S
C393 C391 1.353 . S
C393 N395 1.314 . S
C393 H434 0.930 . S
C394 C392 1.358 1_556 S
C394 N395 1.279 . S
C394 H435 0.930 . S
N395 C393 1.314 . S
N395 C394 1.279 . S
C396 C398 1.353 . S
C396 N399 1.314 . S
C396 H402 0.930 . S
C397 N399 1.279 . S
C397 C400 1.358 . S
C397 H403 0.930 . S
C398 C396 1.353 . S
C398 C401 1.348 . S
C398 H436 0.929 . S
N399 Li354 1.990 . S
N399 C396 1.314 . S
N399 C397 1.279 . S
C400 C397 1.358 . S
C400 C401 1.356 . S
C400 H437 0.930 . S
C401 C398 1.348 . S
C401 C400 1.356 . S
H402 C396 0.930 . S
H403 C397 0.930 . S
C404 N405 1.314 . S
C404 C406 1.353 . S
C404 H410 0.930 . S
N405 Li355 1.990 . S
N405 C404 1.314 . S
N405 C408 1.279 . S
C406 C404 1.353 . S
C406 C409 1.348 . S
C406 H438 0.929 . S
C407 C408 1.358 . S
C407 C409 1.356 . S
C407 H439 0.930 1_554 S
C408 N405 1.279 . S
C408 C407 1.358 . S
C408 H411 0.930 . S
C409 C406 1.348 . S
C409 C407 1.356 . S
H410 C404 0.930 . S
H411 C408 0.930 . S
O412 Li352 1.956 . S
O412 Li353 1.970 . S
O412 Li354 1.961 . S
O412 C356 1.325 . S
O413 Li352 1.970 . S
O413 Li353 1.956 . S
O413 Li355 1.961 . S
O413 C362 1.325 . S
O414 Li352 1.961 . S
O414 Li354 1.956 . S
O414 Li355 1.970 . S
O414 C384 1.325 . S
O415 Li353 1.961 . S
O415 Li354 1.970 . S
O415 Li355 1.956 . S
O415 C390 1.325 . S
H416 C358 0.929 . S
H417 C359 0.930 . S
H418 C360 0.930 . S
H419 C361 0.930 . S
H420 C363 0.930 . S
H421 C365 0.929 . S
H422 C366 0.930 . S
H423 C367 0.930 . S
H424 C370 0.930 . S
H425 C373 0.929 . S
H426 C378 0.929 . S
H427 C379 0.930 . S
H428 C386 0.929 . S
H429 C387 0.930 . S
H430 C388 0.930 . S
H431 C389 0.930 . S
H432 C391 0.929 1_554 S
H433 C392 0.930 . S
H434 C393 0.930 . S
H435 C394 0.930 . S
H436 C398 0.929 . S
H437 C400 0.930 . S
H438 C406 0.929 . S
H439 C407 0.930 1_556 S
Li440 N457 1.990 . S
Li440 O500 1.956 . S
Li440 O501 1.970 . S
Li440 O502 1.961 . S
Li441 N465 1.990 . S
Li441 O500 1.970 . S
Li441 O501 1.956 . S
Li441 O503 1.961 . S
Li442 N487 1.990 . S
Li442 O500 1.961 . S
Li442 O502 1.956 . S
Li442 O503 1.970 . S
Li443 N493 1.990 . S
Li443 O501 1.961 . S
Li443 O502 1.970 . S
Li443 O503 1.956 . S
C444 C446 1.348 . S
C444 C447 1.356 . S
C444 O500 1.325 . S
N445 C448 1.314 . S
N445 C449 1.279 . S
C446 C444 1.348 . S
C446 C448 1.353 . S
C446 H504 0.929 . S
C447 C444 1.356 . S
C447 C449 1.358 . S
C447 H505 0.930 . S
C448 N445 1.314 . S
C448 C446 1.353 . S
C448 H506 0.930 . S
C449 N445 1.279 . S
C449 C447 1.358 . S
C449 H507 0.930 . S
C450 C453 1.348 . S
C450 C454 1.356 . S
C450 O501 1.325 . S
C451 N452 1.279 . S
C451 C454 1.358 . S
C451 H508 0.930 . S
N452 C451 1.279 . S
N452 C455 1.314 . S
C453 C450 1.348 . S
C453 C455 1.353 . S
C453 H509 0.929 . S
C454 C450 1.356 . S
C454 C451 1.358 . S
C454 H510 0.930 . S
C455 N452 1.314 . S
C455 C453 1.353 . S
C455 H511 0.930 . S
C456 N457 1.314 . S
C456 C461 1.353 . S
C456 H462 0.930 . S
N457 Li440 1.990 . S
N457 C456 1.314 . S
N457 C459 1.279 . S
C458 C459 1.358 . S
C458 C460 1.356 . S
C458 H512 0.930 . S
C459 N457 1.279 . S
C459 C458 1.358 . S
C459 H463 0.930 . S
C460 C458 1.356 . S
C460 C461 1.348 . S
C461 C456 1.353 . S
C461 C460 1.348 . S
C461 H513 0.929 . S
H462 C456 0.930 . S
H463 C459 0.930 . S
C464 N465 1.314 . S
C464 C466 1.353 . S
C464 H470 0.930 . S
N465 Li441 1.990 . S
N465 C464 1.314 . S
N465 C468 1.279 . S
C466 C464 1.353 . S
C466 C469 1.348 . S
C466 H514 0.929 . S
C467 C468 1.358 . S
C467 C469 1.356 . S
C467 H515 0.930 . S
C468 N465 1.279 . S
C468 C467 1.358 . S
C468 H471 0.930 . S
C469 C466 1.348 . S
C469 C467 1.356 . S
H470 C464 0.930 . S
H471 C468 0.930 . S
C472 C474 1.348 . S
C472 C475 1.356 . S
C472 O502 1.325 . S
N473 C476 1.314 . S
N473 C477 1.279 . S
C474 C472 1.348 . S
C474 C476 1.353 . S
C474 H516 0.929 . S
C475 C472 1.356 . S
C475 C477 1.358 . S
C475 H517 0.930 . S
C476 N473 1.314 . S
C476 C474 1.353 . S
C476 H518 0.930 . S
C477 N473 1.279 . S
C477 C475 1.358 . S
C477 H519 0.930 . S
C478 C479 1.348 . S
C478 C480 1.356 . S
C478 O503 1.325 . S
C479 C478 1.348 . S
C479 C481 1.353 . S
C479 H520 0.929 . S
C480 C478 1.356 . S
C480 C482 1.358 . S
C480 H521 0.930 . S
C481 C479 1.353 . S
C481 N483 1.314 . S
C481 H522 0.930 . S
C482 C480 1.358 . S
C482 N483 1.279 . S
C482 H523 0.930 . S
N483 C481 1.314 . S
N483 C482 1.279 . S
C484 C486 1.353 . S
C484 N487 1.314 . S
C484 H490 0.930 . S
C485 N487 1.279 . S
C485 C488 1.358 . S
C485 H491 0.930 . S
C486 C484 1.353 . S
C486 C489 1.348 . S
C486 H524 0.929 . S
N487 Li442 1.990 . S
N487 C484 1.314 . S
N487 C485 1.279 . S
C488 C485 1.358 . S
C488 C489 1.356 . S
C488 H525 0.930 . S
C489 C486 1.348 . S
C489 C488 1.356 . S
H490 C484 0.930 . S
H491 C485 0.930 . S
C492 N493 1.314 . S
C492 C494 1.353 . S
C492 H498 0.930 . S
N493 Li443 1.990 . S
N493 C492 1.314 . S
N493 C496 1.279 . S
C494 C492 1.353 . S
C494 C497 1.348 . S
C494 H526 0.929 . S
C495 C496 1.358 . S
C495 C497 1.356 . S
C495 H527 0.930 . S
C496 N493 1.279 . S
C496 C495 1.358 . S
C496 H499 0.930 . S
C497 C494 1.348 . S
C497 C495 1.356 . S
H498 C492 0.930 . S
H499 C496 0.930 . S
O500 Li440 1.956 . S
O500 Li441 1.970 . S
O500 Li442 1.961 . S
O500 C444 1.325 . S
O501 Li440 1.970 . S
O501 Li441 1.956 . S
O501 Li443 1.961 . S
O501 C450 1.325 . S
O502 Li440 1.961 . S
O502 Li442 1.956 . S
O502 Li443 1.970 . S
O502 C472 1.325 . S
O503 Li441 1.961 . S
O503 Li442 1.970 . S
O503 Li443 1.956 . S
O503 C478 1.325 . S
H504 C446 0.929 . S
H505 C447 0.930 . S
H506 C448 0.930 . S
H507 C449 0.930 . S
H508 C451 0.930 . S
H509 C453 0.929 . S
H510 C454 0.930 . S
H511 C455 0.930 . S
H512 C458 0.930 . S
H513 C461 0.929 . S
H514 C466 0.929 . S
H515 C467 0.930 . S
H516 C474 0.929 . S
H517 C475 0.930 . S
H518 C476 0.930 . S
H519 C477 0.930 . S
H520 C479 0.929 . S
H521 C480 0.930 . S
H522 C481 0.930 . S
H523 C482 0.930 . S
H524 C486 0.929 . S
H525 C488 0.930 . S
H526 C494 0.929 . S
H527 C495 0.930 . S
Li528 N545 1.990 . S
Li528 O588 1.956 . S
Li528 O589 1.970 . S
Li528 O590 1.961 . S
Li529 N553 1.990 . S
Li529 O588 1.970 . S
Li529 O589 1.956 . S
Li529 O591 1.961 . S
Li530 N575 1.990 . S
Li530 O588 1.961 . S
Li530 O590 1.956 . S
Li530 O591 1.970 . S
Li531 N581 1.990 . S
Li531 O589 1.961 . S
Li531 O590 1.970 . S
Li531 O591 1.956 . S
C532 C534 1.348 . S
C532 C535 1.356 . S
C532 O588 1.325 . S
N533 C536 1.314 . S
N533 C537 1.279 . S
C534 C532 1.348 . S
C534 C536 1.353 . S
C534 H592 0.929 . S
C535 C532 1.356 . S
C535 C537 1.358 . S
C535 H593 0.930 . S
C536 N533 1.314 . S
C536 C534 1.353 . S
C536 H594 0.930 . S
C537 N533 1.279 . S
C537 C535 1.358 . S
C537 H595 0.930 . S
C538 C541 1.348 1_556 S
C538 C542 1.356 . S
C538 O589 1.325 . S
C539 N540 1.279 . S
C539 C542 1.358 1_554 S
C539 H596 0.930 . S
N540 C539 1.279 . S
N540 C543 1.314 . S
C541 C538 1.348 1_554 S
C541 C543 1.353 . S
C541 H597 0.929 1_554 S
C542 C538 1.356 . S
C542 C539 1.358 1_556 S
C542 H598 0.930 . S
C543 N540 1.314 . S
C543 C541 1.353 . S
C543 H599 0.930 . S
C544 N545 1.314 . S
C544 C549 1.353 . S
C544 H550 0.930 . S
N545 Li528 1.990 . S
N545 C544 1.314 . S
N545 C547 1.279 . S
C546 C547 1.358 . S
C546 C548 1.356 . S
C546 H600 0.930 . S
C547 N545 1.279 . S
C547 C546 1.358 . S
C547 H551 0.930 . S
C548 C546 1.356 . S
C548 C549 1.348 . S
C549 C544 1.353 . S
C549 C548 1.348 . S
C549 H601 0.929 . S
H550 C544 0.930 . S
H551 C547 0.930 . S
C552 N553 1.314 . S
C552 C554 1.353 . S
C552 H558 0.930 . S
N553 Li529 1.990 . S
N553 C552 1.314 . S
N553 C556 1.279 . S
C554 C552 1.353 . S
C554 C557 1.348 . S
C554 H602 0.929 . S
C555 C556 1.358 . S
C555 C557 1.356 . S
C555 H603 0.930 1_556 S
C556 N553 1.279 . S
C556 C555 1.358 . S
C556 H559 0.930 . S
C557 C554 1.348 . S
C557 C555 1.356 . S
H558 C552 0.930 . S
H559 C556 0.930 . S
C560 C562 1.348 . S
C560 C563 1.356 . S
C560 O590 1.325 . S
N561 C564 1.314 . S
N561 C565 1.279 . S
C562 C560 1.348 . S
C562 C564 1.353 . S
C562 H604 0.929 . S
C563 C560 1.356 . S
C563 C565 1.358 . S
C563 H605 0.930 . S
C564 N561 1.314 . S
C564 C562 1.353 . S
C564 H606 0.930 . S
C565 N561 1.279 . S
C565 C563 1.358 . S
C565 H607 0.930 . S
C566 C567 1.348 . S
C566 C568 1.356 . S
C566 O591 1.325 . S
C567 C566 1.348 . S
C567 C569 1.353 . S
C567 H608 0.929 . S
C568 C566 1.356 . S
C568 C570 1.358 . S
C568 H609 0.930 . S
C569 C567 1.353 . S
C569 N571 1.314 . S
C569 H610 0.930 . S
C570 C568 1.358 . S
C570 N571 1.279 . S
C570 H611 0.930 . S
N571 C569 1.314 . S
N571 C570 1.279 . S
C572 C574 1.353 . S
C572 N575 1.314 . S
C572 H578 0.930 . S
C573 N575 1.279 . S
C573 C576 1.358 . S
C573 H579 0.930 . S
C574 C572 1.353 . S
C574 C577 1.348 . S
C574 H612 0.929 . S
N575 Li530 1.990 . S
N575 C572 1.314 . S
N575 C573 1.279 . S
C576 C573 1.358 . S
C576 C577 1.356 . S
C576 H613 0.930 . S
C577 C574 1.348 . S
C577 C576 1.356 . S
H578 C572 0.930 . S
H579 C573 0.930 . S
C580 N581 1.314 . S
C580 C582 1.353 . S
C580 H586 0.930 . S
N581 Li531 1.990 . S
N581 C580 1.314 . S
N581 C584 1.279 . S
C582 C580 1.353 . S
C582 C585 1.348 . S
C582 H614 0.929 . S
C583 C584 1.358 . S
C583 C585 1.356 . S
C583 H615 0.930 . S
C584 N581 1.279 . S
C584 C583 1.358 . S
C584 H587 0.930 . S
C585 C582 1.348 . S
C585 C583 1.356 . S
H586 C580 0.930 . S
H587 C584 0.930 . S
O588 Li528 1.956 . S
O588 Li529 1.970 . S
O588 Li530 1.961 . S
O588 C532 1.325 . S
O589 Li528 1.970 . S
O589 Li529 1.956 . S
O589 Li531 1.961 . S
O589 C538 1.325 . S
O590 Li528 1.961 . S
O590 Li530 1.956 . S
O590 Li531 1.970 . S
O590 C560 1.325 . S
O591 Li529 1.961 . S
O591 Li530 1.970 . S
O591 Li531 1.956 . S
O591 C566 1.325 . S
H592 C534 0.929 . S
H593 C535 0.930 . S
H594 C536 0.930 . S
H595 C537 0.930 . S
H596 C539 0.930 . S
H597 C541 0.929 1_556 S
H598 C542 0.930 . S
H599 C543 0.930 . S
H600 C546 0.930 . S
H601 C549 0.929 . S
H602 C554 0.929 . S
H603 C555 0.930 1_554 S
H604 C562 0.929 . S
H605 C563 0.930 . S
H606 C564 0.930 . S
H607 C565 0.930 . S
H608 C567 0.929 . S
H609 C568 0.930 . S
H610 C569 0.930 . S
H611 C570 0.930 . S
H612 C574 0.929 . S
H613 C576 0.930 . S
H614 C582 0.929 . S
H615 C583 0.930 . S
Li616 N633 1.990 . S
Li616 O676 1.956 . S
Li616 O677 1.970 . S
Li616 O678 1.961 . S
Li617 N641 1.990 . S
Li617 O676 1.970 . S
Li617 O677 1.956 . S
Li617 O679 1.961 . S
Li618 N663 1.990 . S
Li618 O676 1.961 . S
Li618 O678 1.956 . S
Li618 O679 1.970 . S
Li619 N669 1.990 . S
Li619 O677 1.961 . S
Li619 O678 1.970 . S
Li619 O679 1.956 . S
C620 C622 1.348 . S
C620 C623 1.356 . S
C620 O676 1.325 . S
N621 C624 1.314 . S
N621 C625 1.279 . S
C622 C620 1.348 . S
C622 C624 1.353 . S
C622 H680 0.929 . S
C623 C620 1.356 . S
C623 C625 1.358 . S
C623 H681 0.930 . S
C624 N621 1.314 . S
C624 C622 1.353 . S
C624 H682 0.930 . S
C625 N621 1.279 . S
C625 C623 1.358 . S
C625 H683 0.930 . S
C626 C629 1.348 . S
C626 C630 1.356 . S
C626 O677 1.325 . S
C627 N628 1.279 . S
C627 C630 1.358 . S
C627 H684 0.930 . S
N628 C627 1.279 . S
N628 C631 1.314 . S
C629 C626 1.348 . S
C629 C631 1.353 . S
C629 H685 0.929 . S
C630 C626 1.356 . S
C630 C627 1.358 . S
C630 H686 0.930 . S
C631 N628 1.314 . S
C631 C629 1.353 . S
C631 H687 0.930 . S
C632 N633 1.314 . S
C632 C637 1.353 . S
C632 H638 0.930 . S
N633 Li616 1.990 . S
N633 C632 1.314 . S
N633 C635 1.279 . S
C634 C635 1.358 . S
C634 C636 1.356 . S
C634 H688 0.930 . S
C635 N633 1.279 . S
C635 C634 1.358 . S
C635 H639 0.930 . S
C636 C634 1.356 . S
C636 C637 1.348 . S
C637 C632 1.353 . S
C637 C636 1.348 . S
C637 H689 0.929 . S
H638 C632 0.930 . S
H639 C635 0.930 . S
C640 N641 1.314 . S
C640 C642 1.353 . S
C640 H646 0.930 . S
N641 Li617 1.990 . S
N641 C640 1.314 . S
N641 C644 1.279 . S
C642 C640 1.353 . S
C642 C645 1.348 . S
C642 H690 0.929 . S
C643 C644 1.358 . S
C643 C645 1.356 . S
C643 H691 0.930 . S
C644 N641 1.279 . S
C644 C643 1.358 . S
C644 H647 0.930 . S
C645 C642 1.348 . S
C645 C643 1.356 . S
H646 C640 0.930 . S
H647 C644 0.930 . S
C648 C650 1.348 . S
C648 C651 1.356 . S
C648 O678 1.325 . S
N649 C652 1.314 . S
N649 C653 1.279 . S
C650 C648 1.348 . S
C650 C652 1.353 . S
C650 H692 0.929 . S
C651 C648 1.356 . S
C651 C653 1.358 . S
C651 H693 0.930 . S
C652 N649 1.314 . S
C652 C650 1.353 . S
C652 H694 0.930 . S
C653 N649 1.279 . S
C653 C651 1.358 . S
C653 H695 0.930 . S
C654 C655 1.348 . S
C654 C656 1.356 . S
C654 O679 1.325 . S
C655 C654 1.348 . S
C655 C657 1.353 . S
C655 H696 0.929 . S
C656 C654 1.356 . S
C656 C658 1.358 . S
C656 H697 0.930 . S
C657 C655 1.353 . S
C657 N659 1.314 . S
C657 H698 0.930 . S
C658 C656 1.358 . S
C658 N659 1.279 . S
C658 H699 0.930 . S
N659 C657 1.314 . S
N659 C658 1.279 . S
C660 C662 1.353 . S
C660 N663 1.314 . S
C660 H666 0.930 . S
C661 N663 1.279 . S
C661 C664 1.358 . S
C661 H667 0.930 . S
C662 C660 1.353 . S
C662 C665 1.348 . S
C662 H700 0.929 . S
N663 Li618 1.990 . S
N663 C660 1.314 . S
N663 C661 1.279 . S
C664 C661 1.358 . S
C664 C665 1.356 . S
C664 H701 0.930 . S
C665 C662 1.348 . S
C665 C664 1.356 . S
H666 C660 0.930 . S
H667 C661 0.930 . S
C668 N669 1.314 . S
C668 C670 1.353 . S
C668 H674 0.930 . S
N669 Li619 1.990 . S
N669 C668 1.314 . S
N669 C672 1.279 . S
C670 C668 1.353 . S
C670 C673 1.348 . S
C670 H702 0.929 . S
C671 C672 1.358 . S
C671 C673 1.356 . S
C671 H703 0.930 . S
C672 N669 1.279 . S
C672 C671 1.358 . S
C672 H675 0.930 . S
C673 C670 1.348 . S
C673 C671 1.356 . S
H674 C668 0.930 . S
H675 C672 0.930 . S
O676 Li616 1.956 . S
O676 Li617 1.970 . S
O676 Li618 1.961 . S
O676 C620 1.325 . S
O677 Li616 1.970 . S
O677 Li617 1.956 . S
O677 Li619 1.961 . S
O677 C626 1.325 . S
O678 Li616 1.961 . S
O678 Li618 1.956 . S
O678 Li619 1.970 . S
O678 C648 1.325 . S
O679 Li617 1.961 . S
O679 Li618 1.970 . S
O679 Li619 1.956 . S
O679 C654 1.325 . S
H680 C622 0.929 . S
H681 C623 0.930 . S
H682 C624 0.930 . S
H683 C625 0.930 . S
H684 C627 0.930 . S
H685 C629 0.929 . S
H686 C630 0.930 . S
H687 C631 0.930 . S
H688 C634 0.930 . S
H689 C637 0.929 . S
H690 C642 0.929 . S
H691 C643 0.930 . S
H692 C650 0.929 . S
H693 C651 0.930 . S
H694 C652 0.930 . S
H695 C653 0.930 . S
H696 C655 0.929 . S
H697 C656 0.930 . S
H698 C657 0.930 . S
H699 C658 0.930 . S
H700 C662 0.929 . S
H701 C664 0.930 . S
H702 C670 0.929 . S
H703 C671 0.930 . S
Li704 N721 1.990 . S
Li704 O764 1.956 . S
Li704 O765 1.970 . S
Li704 O766 1.961 . S
Li705 N729 1.990 . S
Li705 O764 1.970 . S
Li705 O765 1.956 . S
Li705 O767 1.961 . S
Li706 N751 1.990 . S
Li706 O764 1.961 . S
Li706 O766 1.956 . S
Li706 O767 1.970 . S
Li707 N757 1.990 . S
Li707 O765 1.961 . S
Li707 O766 1.970 . S
Li707 O767 1.956 . S
C708 C710 1.348 . S
C708 C711 1.356 . S
C708 O764 1.325 . S
N709 C712 1.314 . S
N709 C713 1.279 . S
C710 C708 1.348 . S
C710 C712 1.353 . S
C710 H768 0.929 . S
C711 C708 1.356 . S
C711 C713 1.358 . S
C711 H769 0.930 . S
C712 N709 1.314 . S
C712 C710 1.353 . S
C712 H770 0.930 . S
C713 N709 1.279 . S
C713 C711 1.358 . S
C713 H771 0.930 . S
C714 C717 1.348 1_556 S
C714 C718 1.356 . S
C714 O765 1.325 . S
C715 N716 1.279 . S
C715 C718 1.358 1_554 S
C715 H772 0.930 . S
N716 C715 1.279 . S
N716 C719 1.314 . S
C717 C714 1.348 1_554 S
C717 C719 1.353 . S
C717 H773 0.929 1_554 S
C718 C714 1.356 . S
C718 C715 1.358 1_556 S
C718 H774 0.930 . S
C719 N716 1.314 . S
C719 C717 1.353 . S
C719 H775 0.930 . S
C720 N721 1.314 . S
C720 C725 1.353 . S
C720 H726 0.930 . S
N721 Li704 1.990 . S
N721 C720 1.314 . S
N721 C723 1.279 . S
C722 C723 1.358 . S
C722 C724 1.356 . S
C722 H776 0.930 . S
C723 N721 1.279 . S
C723 C722 1.358 . S
C723 H727 0.930 . S
C724 C722 1.356 . S
C724 C725 1.348 . S
C725 C720 1.353 . S
C725 C724 1.348 . S
C725 H777 0.929 . S
H726 C720 0.930 . S
H727 C723 0.930 . S
C728 N729 1.314 . S
C728 C730 1.353 . S
C728 H734 0.930 . S
N729 Li705 1.990 . S
N729 C728 1.314 . S
N729 C732 1.279 . S
C730 C728 1.353 . S
C730 C733 1.348 . S
C730 H778 0.929 . S
C731 C732 1.358 . S
C731 C733 1.356 . S
C731 H779 0.930 1_556 S
C732 N729 1.279 . S
C732 C731 1.358 . S
C732 H735 0.930 . S
C733 C730 1.348 . S
C733 C731 1.356 . S
H734 C728 0.930 . S
H735 C732 0.930 . S
C736 C738 1.348 . S
C736 C739 1.356 . S
C736 O766 1.325 . S
N737 C740 1.314 . S
N737 C741 1.279 . S
C738 C736 1.348 . S
C738 C740 1.353 . S
C738 H780 0.929 . S
C739 C736 1.356 . S
C739 C741 1.358 . S
C739 H781 0.930 . S
C740 N737 1.314 . S
C740 C738 1.353 . S
C740 H782 0.930 . S
C741 N737 1.279 . S
C741 C739 1.358 . S
C741 H783 0.930 . S
C742 C743 1.348 . S
C742 C744 1.356 . S
C742 O767 1.325 . S
C743 C742 1.348 . S
C743 C745 1.353 . S
C743 H784 0.929 . S
C744 C742 1.356 . S
C744 C746 1.358 . S
C744 H785 0.930 . S
C745 C743 1.353 . S
C745 N747 1.314 . S
C745 H786 0.930 . S
C746 C744 1.358 . S
C746 N747 1.279 . S
C746 H787 0.930 . S
N747 C745 1.314 . S
N747 C746 1.279 . S
C748 C750 1.353 . S
C748 N751 1.314 . S
C748 H754 0.930 . S
C749 N751 1.279 . S
C749 C752 1.358 . S
C749 H755 0.930 . S
C750 C748 1.353 . S
C750 C753 1.348 . S
C750 H788 0.929 . S
N751 Li706 1.990 . S
N751 C748 1.314 . S
N751 C749 1.279 . S
C752 C749 1.358 . S
C752 C753 1.356 . S
C752 H789 0.930 . S
C753 C750 1.348 . S
C753 C752 1.356 . S
H754 C748 0.930 . S
H755 C749 0.930 . S
C756 N757 1.314 . S
C756 C758 1.353 . S
C756 H762 0.930 . S
N757 Li707 1.990 . S
N757 C756 1.314 . S
N757 C760 1.279 . S
C758 C756 1.353 . S
C758 C761 1.348 . S
C758 H790 0.929 . S
C759 C760 1.358 . S
C759 C761 1.356 . S
C759 H791 0.930 . S
C760 N757 1.279 . S
C760 C759 1.358 . S
C760 H763 0.930 . S
C761 C758 1.348 . S
C761 C759 1.356 . S
H762 C756 0.930 . S
H763 C760 0.930 . S
O764 Li704 1.956 . S
O764 Li705 1.970 . S
O764 Li706 1.961 . S
O764 C708 1.325 . S
O765 Li704 1.970 . S
O765 Li705 1.956 . S
O765 Li707 1.961 . S
O765 C714 1.325 . S
O766 Li704 1.961 . S
O766 Li706 1.956 . S
O766 Li707 1.970 . S
O766 C736 1.325 . S
O767 Li705 1.961 . S
O767 Li706 1.970 . S
O767 Li707 1.956 . S
O767 C742 1.325 . S
H768 C710 0.929 . S
H769 C711 0.930 . S
H770 C712 0.930 . S
H771 C713 0.930 . S
H772 C715 0.930 . S
H773 C717 0.929 1_556 S
H774 C718 0.930 . S
H775 C719 0.930 . S
H776 C722 0.930 . S
H777 C725 0.929 . S
H778 C730 0.929 . S
H779 C731 0.930 1_554 S
H780 C738 0.929 . S
H781 C739 0.930 . S
H782 C740 0.930 . S
H783 C741 0.930 . S
H784 C743 0.929 . S
H785 C744 0.930 . S
H786 C745 0.930 . S
H787 C746 0.930 . S
H788 C750 0.929 . S
H789 C752 0.930 . S
H790 C758 0.929 . S
H791 C759 0.930 . S
Li792 N809 1.990 . S
Li792 O852 1.956 . S
Li792 O853 1.970 . S
Li792 O854 1.961 . S
Li793 N817 1.990 . S
Li793 O852 1.970 . S
Li793 O853 1.956 . S
Li793 O855 1.961 . S
Li794 N839 1.990 . S
Li794 O852 1.961 . S
Li794 O854 1.956 . S
Li794 O855 1.970 . S
Li795 N845 1.990 . S
Li795 O853 1.961 . S
Li795 O854 1.970 . S
Li795 O855 1.956 . S
C796 C798 1.348 . S
C796 C799 1.356 . S
C796 O852 1.325 . S
N797 C800 1.314 . S
N797 C801 1.279 . S
C798 C796 1.348 . S
C798 C800 1.353 . S
C798 H856 0.929 . S
C799 C796 1.356 . S
C799 C801 1.358 . S
C799 H857 0.930 . S
C800 N797 1.314 . S
C800 C798 1.353 . S
C800 H858 0.930 . S
C801 N797 1.279 . S
C801 C799 1.358 . S
C801 H859 0.930 . S
C802 C805 1.348 . S
C802 C806 1.356 . S
C802 O853 1.325 . S
C803 N804 1.279 . S
C803 C806 1.358 . S
C803 H860 0.930 . S
N804 C803 1.279 . S
N804 C807 1.314 . S
C805 C802 1.348 . S
C805 C807 1.353 . S
C805 H861 0.929 . S
C806 C802 1.356 . S
C806 C803 1.358 . S
C806 H862 0.930 . S
C807 N804 1.314 . S
C807 C805 1.353 . S
C807 H863 0.930 . S
C808 N809 1.314 . S
C808 C813 1.353 . S
C808 H814 0.930 . S
N809 Li792 1.990 . S
N809 C808 1.314 . S
N809 C811 1.279 . S
C810 C811 1.358 . S
C810 C812 1.356 . S
C810 H864 0.930 . S
C811 N809 1.279 . S
C811 C810 1.358 . S
C811 H815 0.930 . S
C812 C810 1.356 . S
C812 C813 1.348 . S
C813 C808 1.353 . S
C813 C812 1.348 . S
C813 H865 0.929 . S
H814 C808 0.930 . S
H815 C811 0.930 . S
C816 N817 1.314 . S
C816 C818 1.353 . S
C816 H822 0.930 . S
N817 Li793 1.990 . S
N817 C816 1.314 . S
N817 C820 1.279 . S
C818 C816 1.353 . S
C818 C821 1.348 . S
C818 H866 0.929 . S
C819 C820 1.358 . S
C819 C821 1.356 . S
C819 H867 0.930 . S
C820 N817 1.279 . S
C820 C819 1.358 . S
C820 H823 0.930 . S
C821 C818 1.348 . S
C821 C819 1.356 . S
H822 C816 0.930 . S
H823 C820 0.930 . S
C824 C826 1.348 . S
C824 C827 1.356 . S
C824 O854 1.325 . S
N825 C828 1.314 . S
N825 C829 1.279 . S
C826 C824 1.348 . S
C826 C828 1.353 . S
C826 H868 0.929 . S
C827 C824 1.356 . S
C827 C829 1.358 . S
C827 H869 0.930 . S
C828 N825 1.314 . S
C828 C826 1.353 . S
C828 H870 0.930 . S
C829 N825 1.279 . S
C829 C827 1.358 . S
C829 H871 0.930 . S
C830 C831 1.348 . S
C830 C832 1.356 . S
C830 O855 1.325 . S
C831 C830 1.348 . S
C831 C833 1.353 . S
C831 H872 0.929 . S
C832 C830 1.356 . S
C832 C834 1.358 . S
C832 H873 0.930 . S
C833 C831 1.353 . S
C833 N835 1.314 . S
C833 H874 0.930 . S
C834 C832 1.358 . S
C834 N835 1.279 . S
C834 H875 0.930 . S
N835 C833 1.314 . S
N835 C834 1.279 . S
C836 C838 1.353 . S
C836 N839 1.314 . S
C836 H842 0.930 . S
C837 N839 1.279 . S
C837 C840 1.358 . S
C837 H843 0.930 . S
C838 C836 1.353 . S
C838 C841 1.348 . S
C838 H876 0.929 . S
N839 Li794 1.990 . S
N839 C836 1.314 . S
N839 C837 1.279 . S
C840 C837 1.358 . S
C840 C841 1.356 . S
C840 H877 0.930 . S
C841 C838 1.348 . S
C841 C840 1.356 . S
H842 C836 0.930 . S
H843 C837 0.930 . S
C844 N845 1.314 . S
C844 C846 1.353 . S
C844 H850 0.930 . S
N845 Li795 1.990 . S
N845 C844 1.314 . S
N845 C848 1.279 . S
C846 C844 1.353 . S
C846 C849 1.348 . S
C846 H878 0.929 . S
C847 C848 1.358 . S
C847 C849 1.356 . S
C847 H879 0.930 . S
C848 N845 1.279 . S
C848 C847 1.358 . S
C848 H851 0.930 . S
C849 C846 1.348 . S
C849 C847 1.356 . S
H850 C844 0.930 . S
H851 C848 0.930 . S
O852 Li792 1.956 . S
O852 Li793 1.970 . S
O852 Li794 1.961 . S
O852 C796 1.325 . S
O853 Li792 1.970 . S
O853 Li793 1.956 . S
O853 Li795 1.961 . S
O853 C802 1.325 . S
O854 Li792 1.961 . S
O854 Li794 1.956 . S
O854 Li795 1.970 . S
O854 C824 1.325 . S
O855 Li793 1.961 . S
O855 Li794 1.970 . S
O855 Li795 1.956 . S
O855 C830 1.325 . S
H856 C798 0.929 . S
H857 C799 0.930 . S
H858 C800 0.930 . S
H859 C801 0.930 . S
H860 C803 0.930 . S
H861 C805 0.929 . S
H862 C806 0.930 . S
H863 C807 0.930 . S
H864 C810 0.930 . S
H865 C813 0.929 . S
H866 C818 0.929 . S
H867 C819 0.930 . S
H868 C826 0.929 . S
H869 C827 0.930 . S
H870 C828 0.930 . S
H871 C829 0.930 . S
H872 C831 0.929 . S
H873 C832 0.930 . S
H874 C833 0.930 . S
H875 C834 0.930 . S
H876 C838 0.929 . S
H877 C840 0.930 . S
H878 C846 0.929 . S
H879 C847 0.930 . S
Li880 N897 1.990 . S
Li880 O940 1.956 . S
Li880 O941 1.970 . S
Li880 O942 1.961 . S
Li881 N905 1.990 . S
Li881 O940 1.970 . S
Li881 O941 1.956 . S
Li881 O943 1.961 . S
Li882 N927 1.990 . S
Li882 O940 1.961 . S
Li882 O942 1.956 . S
Li882 O943 1.970 . S
Li883 N933 1.990 . S
Li883 O941 1.961 . S
Li883 O942 1.970 . S
Li883 O943 1.956 . S
C884 C886 1.348 . S
C884 C887 1.356 . S
C884 O940 1.325 . S
N885 C888 1.314 . S
N885 C889 1.279 . S
C886 C884 1.348 . S
C886 C888 1.353 . S
C886 H944 0.929 . S
C887 C884 1.356 . S
C887 C889 1.358 . S
C887 H945 0.930 . S
C888 N885 1.314 . S
C888 C886 1.353 . S
C888 H946 0.930 . S
C889 N885 1.279 . S
C889 C887 1.358 . S
C889 H947 0.930 . S
C890 C893 1.348 1_556 S
C890 C894 1.356 . S
C890 O941 1.325 . S
C891 N892 1.279 . S
C891 C894 1.358 1_554 S
C891 H948 0.930 . S
N892 C891 1.279 . S
N892 C895 1.314 . S
C893 C890 1.348 1_554 S
C893 C895 1.353 . S
C893 H949 0.929 1_554 S
C894 C890 1.356 . S
C894 C891 1.358 1_556 S
C894 H950 0.930 . S
C895 N892 1.314 . S
C895 C893 1.353 . S
C895 H951 0.930 . S
C896 N897 1.314 . S
C896 C901 1.353 . S
C896 H902 0.930 . S
N897 Li880 1.990 . S
N897 C896 1.314 . S
N897 C899 1.279 . S
C898 C899 1.358 . S
C898 C900 1.356 . S
C898 H952 0.930 . S
C899 N897 1.279 . S
C899 C898 1.358 . S
C899 H903 0.930 . S
C900 C898 1.356 . S
C900 C901 1.348 . S
C901 C896 1.353 . S
C901 C900 1.348 . S
C901 H953 0.929 . S
H902 C896 0.930 . S
H903 C899 0.930 . S
C904 N905 1.314 . S
C904 C906 1.353 . S
C904 H910 0.930 . S
N905 Li881 1.990 . S
N905 C904 1.314 . S
N905 C908 1.279 . S
C906 C904 1.353 . S
C906 C909 1.348 . S
C906 H954 0.929 . S
C907 C908 1.358 . S
C907 C909 1.356 . S
C907 H955 0.930 1_556 S
C908 N905 1.279 . S
C908 C907 1.358 . S
C908 H911 0.930 . S
C909 C906 1.348 . S
C909 C907 1.356 . S
H910 C904 0.930 . S
H911 C908 0.930 . S
C912 C914 1.348 . S
C912 C915 1.356 . S
C912 O942 1.325 . S
N913 C916 1.314 . S
N913 C917 1.279 . S
C914 C912 1.348 . S
C914 C916 1.353 . S
C914 H956 0.929 . S
C915 C912 1.356 . S
C915 C917 1.358 . S
C915 H957 0.930 . S
C916 N913 1.314 . S
C916 C914 1.353 . S
C916 H958 0.930 . S
C917 N913 1.279 . S
C917 C915 1.358 . S
C917 H959 0.930 . S
C918 C919 1.348 . S
C918 C920 1.356 . S
C918 O943 1.325 . S
C919 C918 1.348 . S
C919 C921 1.353 . S
C919 H960 0.929 . S
C920 C918 1.356 . S
C920 C922 1.358 . S
C920 H961 0.930 . S
C921 C919 1.353 . S
C921 N923 1.314 . S
C921 H962 0.930 . S
C922 C920 1.358 . S
C922 N923 1.279 . S
C922 H963 0.930 . S
N923 C921 1.314 . S
N923 C922 1.279 . S
C924 C926 1.353 . S
C924 N927 1.314 . S
C924 H930 0.930 . S
C925 N927 1.279 . S
C925 C928 1.358 . S
C925 H931 0.930 . S
C926 C924 1.353 . S
C926 C929 1.348 . S
C926 H964 0.929 . S
N927 Li882 1.990 . S
N927 C924 1.314 . S
N927 C925 1.279 . S
C928 C925 1.358 . S
C928 C929 1.356 . S
C928 H965 0.930 . S
C929 C926 1.348 . S
C929 C928 1.356 . S
H930 C924 0.930 . S
H931 C925 0.930 . S
C932 N933 1.314 . S
C932 C934 1.353 . S
C932 H938 0.930 . S
N933 Li883 1.990 . S
N933 C932 1.314 . S
N933 C936 1.279 . S
C934 C932 1.353 . S
C934 C937 1.348 . S
C934 H966 0.929 . S
C935 C936 1.358 . S
C935 C937 1.356 . S
C935 H967 0.930 . S
C936 N933 1.279 . S
C936 C935 1.358 . S
C936 H939 0.930 . S
C937 C934 1.348 . S
C937 C935 1.356 . S
H938 C932 0.930 . S
H939 C936 0.930 . S
O940 Li880 1.956 . S
O940 Li881 1.970 . S
O940 Li882 1.961 . S
O940 C884 1.325 . S
O941 Li880 1.970 . S
O941 Li881 1.956 . S
O941 Li883 1.961 . S
O941 C890 1.325 . S
O942 Li880 1.961 . S
O942 Li882 1.956 . S
O942 Li883 1.970 . S
O942 C912 1.325 . S
O943 Li881 1.961 . S
O943 Li882 1.970 . S
O943 Li883 1.956 . S
O943 C918 1.325 . S
H944 C886 0.929 . S
H945 C887 0.930 . S
H946 C888 0.930 . S
H947 C889 0.930 . S
H948 C891 0.930 . S
H949 C893 0.929 1_556 S
H950 C894 0.930 . S
H951 C895 0.930 . S
H952 C898 0.930 . S
H953 C901 0.929 . S
H954 C906 0.929 . S
H955 C907 0.930 1_554 S
H956 C914 0.929 . S
H957 C915 0.930 . S
H958 C916 0.930 . S
H959 C917 0.930 . S
H960 C919 0.929 . S
H961 C920 0.930 . S
H962 C921 0.930 . S
H963 C922 0.930 . S
H964 C926 0.929 . S
H965 C928 0.930 . S
H966 C934 0.929 . S
H967 C935 0.930 . S
Li968 N985 1.990 . S
Li968 O1028 1.956 . S
Li968 O1029 1.970 . S
Li968 O1030 1.961 . S
Li969 N993 1.990 . S
Li969 O1028 1.970 . S
Li969 O1029 1.956 . S
Li969 O1031 1.961 . S
Li970 N1015 1.990 . S
Li970 O1028 1.961 . S
Li970 O1030 1.956 . S
Li970 O1031 1.970 . S
Li971 N1021 1.990 . S
Li971 O1029 1.961 . S
Li971 O1030 1.970 . S
Li971 O1031 1.956 . S
C972 C974 1.348 . S
C972 C975 1.356 . S
C972 O1028 1.325 . S
N973 C976 1.314 . S
N973 C977 1.279 . S
C974 C972 1.348 . S
C974 C976 1.353 . S
C974 H1032 0.929 . S
C975 C972 1.356 . S
C975 C977 1.358 . S
C975 H1033 0.930 . S
C976 N973 1.314 . S
C976 C974 1.353 . S
C976 H1034 0.930 . S
C977 N973 1.279 . S
C977 C975 1.358 . S
C977 H1035 0.930 . S
C978 C981 1.348 . S
C978 C982 1.356 . S
C978 O1029 1.325 . S
C979 N980 1.279 . S
C979 C982 1.358 . S
C979 H1036 0.930 . S
N980 C979 1.279 . S
N980 C983 1.314 . S
C981 C978 1.348 . S
C981 C983 1.353 . S
C981 H1037 0.929 . S
C982 C978 1.356 . S
C982 C979 1.358 . S
C982 H1038 0.930 . S
C983 N980 1.314 . S
C983 C981 1.353 . S
C983 H1039 0.930 . S
C984 N985 1.314 . S
C984 C989 1.353 . S
C984 H990 0.930 . S
N985 Li968 1.990 . S
N985 C984 1.314 . S
N985 C987 1.279 . S
C986 C987 1.358 . S
C986 C988 1.356 . S
C986 H1040 0.930 . S
C987 N985 1.279 . S
C987 C986 1.358 . S
C987 H991 0.930 . S
C988 C986 1.356 . S
C988 C989 1.348 . S
C989 C984 1.353 . S
C989 C988 1.348 . S
C989 H1041 0.929 . S
H990 C984 0.930 . S
H991 C987 0.930 . S
C992 N993 1.314 . S
C992 C994 1.353 . S
C992 H998 0.930 . S
N993 Li969 1.990 . S
N993 C992 1.314 . S
N993 C996 1.279 . S
C994 C992 1.353 . S
C994 C997 1.348 . S
C994 H1042 0.929 . S
C995 C996 1.358 . S
C995 C997 1.356 . S
C995 H1043 0.930 . S
C996 N993 1.279 . S
C996 C995 1.358 . S
C996 H999 0.930 . S
C997 C994 1.348 . S
C997 C995 1.356 . S
H998 C992 0.930 . S
H999 C996 0.930 . S
C1000 C1002 1.348 . S
C1000 C1003 1.356 . S
C1000 O1030 1.325 . S
N1001 C1004 1.314 . S
N1001 C1005 1.279 . S
C1002 C1000 1.348 . S
C1002 C1004 1.353 . S
C1002 H1044 0.929 . S
C1003 C1000 1.356 . S
C1003 C1005 1.358 . S
C1003 H1045 0.930 . S
C1004 N1001 1.314 . S
C1004 C1002 1.353 . S
C1004 H1046 0.930 . S
C1005 N1001 1.279 . S
C1005 C1003 1.358 . S
C1005 H1047 0.930 . S
C1006 C1007 1.348 . S
C1006 C1008 1.356 . S
C1006 O1031 1.325 . S
C1007 C1006 1.348 . S
C1007 C1009 1.353 . S
C1007 H1048 0.929 . S
C1008 C1006 1.356 . S
C1008 C1010 1.358 . S
C1008 H1049 0.930 . S
C1009 C1007 1.353 . S
C1009 N1011 1.314 . S
C1009 H1050 0.930 . S
C1010 C1008 1.358 . S
C1010 N1011 1.279 . S
C1010 H1051 0.930 . S
N1011 C1009 1.314 . S
N1011 C1010 1.279 . S
C1012 C1014 1.353 . S
C1012 N1015 1.314 . S
C1012 H1018 0.930 . S
C1013 N1015 1.279 . S
C1013 C1016 1.358 . S
C1013 H1019 0.930 . S
C1014 C1012 1.353 . S
C1014 C1017 1.348 . S
C1014 H1052 0.929 . S
N1015 Li970 1.990 . S
N1015 C1012 1.314 . S
N1015 C1013 1.279 . S
C1016 C1013 1.358 . S
C1016 C1017 1.356 . S
C1016 H1053 0.930 . S
C1017 C1014 1.348 . S
C1017 C1016 1.356 . S
H1018 C1012 0.930 . S
H1019 C1013 0.930 . S
C1020 N1021 1.314 . S
C1020 C1022 1.353 . S
C1020 H1026 0.930 . S
N1021 Li971 1.990 . S
N1021 C1020 1.314 . S
N1021 C1024 1.279 . S
C1022 C1020 1.353 . S
C1022 C1025 1.348 . S
C1022 H1054 0.929 . S
C1023 C1024 1.358 . S
C1023 C1025 1.356 . S
C1023 H1055 0.930 . S
C1024 N1021 1.279 . S
C1024 C1023 1.358 . S
C1024 H1027 0.930 . S
C1025 C1022 1.348 . S
C1025 C1023 1.356 . S
H1026 C1020 0.930 . S
H1027 C1024 0.930 . S
O1028 Li968 1.956 . S
O1028 Li969 1.970 . S
O1028 Li970 1.961 . S
O1028 C972 1.325 . S
O1029 Li968 1.970 . S
O1029 Li969 1.956 . S
O1029 Li971 1.961 . S
O1029 C978 1.325 . S
O1030 Li968 1.961 . S
O1030 Li970 1.956 . S
O1030 Li971 1.970 . S
O1030 C1000 1.325 . S
O1031 Li969 1.961 . S
O1031 Li970 1.970 . S
O1031 Li971 1.956 . S
O1031 C1006 1.325 . S
H1032 C974 0.929 . S
H1033 C975 0.930 . S
H1034 C976 0.930 . S
H1035 C977 0.930 . S
H1036 C979 0.930 . S
H1037 C981 0.929 . S
H1038 C982 0.930 . S
H1039 C983 0.930 . S
H1040 C986 0.930 . S
H1041 C989 0.929 . S
H1042 C994 0.929 . S
H1043 C995 0.930 . S
H1044 C1002 0.929 . S
H1045 C1003 0.930 . S
H1046 C1004 0.930 . S
H1047 C1005 0.930 . S
H1048 C1007 0.929 . S
H1049 C1008 0.930 . S
H1050 C1009 0.930 . S
H1051 C1010 0.930 . S
H1052 C1014 0.929 . S
H1053 C1016 0.930 . S
H1054 C1022 0.929 . S
H1055 C1023 0.930 . S
Li1056 N1073 1.990 . S
Li1056 O1116 1.956 . S
Li1056 O1117 1.970 . S
Li1056 O1118 1.961 . S
Li1057 N1081 1.990 . S
Li1057 O1116 1.970 . S
Li1057 O1117 1.956 . S
Li1057 O1119 1.961 . S
Li1058 N1103 1.990 . S
Li1058 O1116 1.961 . S
Li1058 O1118 1.956 . S
Li1058 O1119 1.970 . S
Li1059 N1109 1.990 . S
Li1059 O1117 1.961 . S
Li1059 O1118 1.970 . S
Li1059 O1119 1.956 . S
C1060 C1062 1.348 . S
C1060 C1063 1.356 . S
C1060 O1116 1.325 . S
N1061 C1064 1.314 . S
N1061 C1065 1.279 . S
C1062 C1060 1.348 . S
C1062 C1064 1.353 . S
C1062 H1120 0.929 . S
C1063 C1060 1.356 . S
C1063 C1065 1.358 . S
C1063 H1121 0.930 . S
C1064 N1061 1.314 . S
C1064 C1062 1.353 . S
C1064 H1122 0.930 . S
C1065 N1061 1.279 . S
C1065 C1063 1.358 . S
C1065 H1123 0.930 . S
C1066 C1069 1.368 . S
C1066 C1070 1.364 . S
C1066 O1117 1.325 . S
C1067 N1068 1.279 . S
C1067 C1070 1.344 1_554 S
C1067 H1124 0.930 . S
N1068 C1067 1.279 . S
N1068 C1071 1.314 . S
C1069 C1066 1.368 . S
C1069 C1071 1.314 1_556 S
C1069 H1125 0.948 . S
C1070 C1066 1.364 . S
C1070 C1067 1.344 1_556 S
C1070 H1126 0.936 . S
C1071 N1068 1.314 . S
C1071 C1069 1.314 1_554 S
C1071 H1127 0.930 . S
C1072 N1073 1.314 . S
C1072 C1077 1.353 . S
C1072 H1078 0.930 . S
N1073 Li1056 1.990 . S
N1073 C1072 1.314 . S
N1073 C1075 1.279 . S
C1074 C1075 1.358 . S
C1074 C1076 1.356 . S
C1074 H1128 0.930 . S
C1075 N1073 1.279 . S
C1075 C1074 1.358 . S
C1075 H1079 0.930 . S
C1076 C1074 1.356 . S
C1076 C1077 1.348 . S
C1077 C1072 1.353 . S
C1077 C1076 1.348 . S
C1077 H1129 0.929 . S
H1078 C1072 0.930 . S
H1079 C1075 0.930 . S
C1080 N1081 1.314 . S
C1080 C1082 1.353 . S
C1080 H1086 0.930 . S
N1081 Li1057 1.990 . S
N1081 C1080 1.314 . S
N1081 C1084 1.279 . S
C1082 C1080 1.353 . S
C1082 C1085 1.348 . S
C1082 H1130 0.929 . S
C1083 C1084 1.358 . S
C1083 C1085 1.356 . S
C1083 H1131 0.930 . S
C1084 N1081 1.279 . S
C1084 C1083 1.358 . S
C1084 H1087 0.930 . S
C1085 C1082 1.348 . S
C1085 C1083 1.356 . S
H1086 C1080 0.930 . S
H1087 C1084 0.930 . S
C1088 C1090 1.348 . S
C1088 C1091 1.356 . S
C1088 O1118 1.325 . S
N1089 C1092 1.314 . S
N1089 C1093 1.279 . S
C1090 C1088 1.348 . S
C1090 C1092 1.353 . S
C1090 H1132 0.929 . S
C1091 C1088 1.356 . S
C1091 C1093 1.358 . S
C1091 H1133 0.930 . S
C1092 N1089 1.314 . S
C1092 C1090 1.353 . S
C1092 H1134 0.930 . S
C1093 N1089 1.279 . S
C1093 C1091 1.358 . S
C1093 H1135 0.930 . S
C1094 C1095 1.348 . S
C1094 C1096 1.356 . S
C1094 O1119 1.325 . S
C1095 C1094 1.348 . S
C1095 C1097 1.353 . S
C1095 H1136 0.929 . S
C1096 C1094 1.356 . S
C1096 C1098 1.358 . S
C1096 H1137 0.930 . S
C1097 C1095 1.353 . S
C1097 N1099 1.314 . S
C1097 H1138 0.930 . S
C1098 C1096 1.358 . S
C1098 N1099 1.279 . S
C1098 H1139 0.930 . S
N1099 C1097 1.314 . S
N1099 C1098 1.279 . S
C1100 C1102 1.353 . S
C1100 N1103 1.314 . S
C1100 H1106 0.930 . S
C1101 N1103 1.279 . S
C1101 C1104 1.358 . S
C1101 H1107 0.930 . S
C1102 C1100 1.353 . S
C1102 C1105 1.348 . S
C1102 H1140 0.929 . S
N1103 Li1058 1.990 . S
N1103 C1100 1.314 . S
N1103 C1101 1.279 . S
C1104 C1101 1.358 . S
C1104 C1105 1.356 . S
C1104 H1141 0.930 . S
C1105 C1102 1.348 . S
C1105 C1104 1.356 . S
H1106 C1100 0.930 . S
H1107 C1101 0.930 . S
C1108 N1109 1.314 . S
C1108 C1110 1.353 . S
C1108 H1114 0.930 . S
N1109 Li1059 1.990 . S
N1109 C1108 1.314 . S
N1109 C1112 1.279 . S
C1110 C1108 1.353 . S
C1110 C1113 1.348 . S
C1110 H1142 0.929 1_556 S
C1111 C1112 1.358 . S
C1111 C1113 1.356 . S
C1111 H1143 0.930 . S
C1112 N1109 1.279 . S
C1112 C1111 1.358 . S
C1112 H1115 0.930 . S
C1113 C1110 1.348 . S
C1113 C1111 1.356 . S
H1114 C1108 0.930 . S
H1115 C1112 0.930 . S
O1116 Li1056 1.956 . S
O1116 Li1057 1.970 . S
O1116 Li1058 1.961 . S
O1116 C1060 1.325 . S
O1117 Li1056 1.970 . S
O1117 Li1057 1.956 . S
O1117 Li1059 1.961 . S
O1117 C1066 1.325 . S
O1118 Li1056 1.961 . S
O1118 Li1058 1.956 . S
O1118 Li1059 1.970 . S
O1118 C1088 1.325 . S
O1119 Li1057 1.961 . S
O1119 Li1058 1.970 . S
O1119 Li1059 1.956 . S
O1119 C1094 1.325 . S
H1120 C1062 0.929 . S
H1121 C1063 0.930 . S
H1122 C1064 0.930 . S
H1123 C1065 0.930 . S
H1124 C1067 0.930 . S
H1125 C1069 0.948 . S
H1126 C1070 0.936 . S
H1127 C1071 0.930 . S
H1128 C1074 0.930 . S
H1129 C1077 0.929 . S
H1130 C1082 0.929 . S
H1131 C1083 0.930 . S
H1132 C1090 0.929 . S
H1133 C1091 0.930 . S
H1134 C1092 0.930 . S
H1135 C1093 0.930 . S
H1136 C1095 0.929 . S
H1137 C1096 0.930 . S
H1138 C1097 0.930 . S
H1139 C1098 0.930 . S
H1140 C1102 0.929 . S
H1141 C1104 0.930 . S
H1142 C1110 0.929 1_554 S
H1143 C1111 0.930 . S
Li1144 N1161 1.990 . S
Li1144 O1204 1.956 . S
Li1144 O1205 1.970 . S
Li1144 O1206 1.961 . S
Li1145 N1169 1.990 . S
Li1145 O1204 1.970 . S
Li1145 O1205 1.956 . S
Li1145 O1207 1.961 . S
Li1146 N1191 1.990 . S
Li1146 O1204 1.961 . S
Li1146 O1206 1.956 . S
Li1146 O1207 1.970 . S
Li1147 N1197 1.990 . S
Li1147 O1205 1.961 . S
Li1147 O1206 1.970 . S
Li1147 O1207 1.956 . S
C1148 C1150 1.348 . S
C1148 C1151 1.356 . S
C1148 O1204 1.325 . S
N1149 C1152 1.314 . S
N1149 C1153 1.279 . S
C1150 C1148 1.348 . S
C1150 C1152 1.353 . S
C1150 H1208 0.929 . S
C1151 C1148 1.356 . S
C1151 C1153 1.358 . S
C1151 H1209 0.930 . S
C1152 N1149 1.314 . S
C1152 C1150 1.353 . S
C1152 H1210 0.930 . S
C1153 N1149 1.279 . S
C1153 C1151 1.358 . S
C1153 H1211 0.930 . S
C1154 C1157 1.348 . S
C1154 C1158 1.356 . S
C1154 O1205 1.325 . S
C1155 N1156 1.279 . S
C1155 C1158 1.358 . S
C1155 H1212 0.930 . S
N1156 C1155 1.279 . S
N1156 C1159 1.314 . S
C1157 C1154 1.348 . S
C1157 C1159 1.353 . S
C1157 H1213 0.929 . S
C1158 C1154 1.356 . S
C1158 C1155 1.358 . S
C1158 H1214 0.930 . S
C1159 N1156 1.314 . S
C1159 C1157 1.353 . S
C1159 H1215 0.930 . S
C1160 N1161 1.314 . S
C1160 C1165 1.353 . S
C1160 H1166 0.930 . S
N1161 Li1144 1.990 . S
N1161 C1160 1.314 . S
N1161 C1163 1.279 . S
C1162 C1163 1.358 . S
C1162 C1164 1.356 . S
C1162 H1216 0.930 . S
C1163 N1161 1.279 . S
C1163 C1162 1.358 . S
C1163 H1167 0.930 . S
C1164 C1162 1.356 . S
C1164 C1165 1.348 . S
C1165 C1160 1.353 . S
C1165 C1164 1.348 . S
C1165 H1217 0.929 . S
H1166 C1160 0.930 . S
H1167 C1163 0.930 . S
C1168 N1169 1.314 . S
C1168 C1170 1.353 . S
C1168 H1174 0.930 . S
N1169 Li1145 1.990 . S
N1169 C1168 1.314 . S
N1169 C1172 1.279 . S
C1170 C1168 1.353 . S
C1170 C1173 1.348 . S
C1170 H1218 0.929 . S
C1171 C1172 1.358 . S
C1171 C1173 1.356 . S
C1171 H1219 0.930 . S
C1172 N1169 1.279 . S
C1172 C1171 1.358 . S
C1172 H1175 0.930 . S
C1173 C1170 1.348 . S
C1173 C1171 1.356 . S
H1174 C1168 0.930 . S
H1175 C1172 0.930 . S
C1176 C1178 1.348 . S
C1176 C1179 1.356 . S
C1176 O1206 1.325 . S
N1177 C1180 1.314 . S
N1177 C1181 1.279 . S
C1178 C1176 1.348 . S
C1178 C1180 1.353 . S
C1178 H1220 0.929 . S
C1179 C1176 1.356 . S
C1179 C1181 1.358 . S
C1179 H1221 0.930 . S
C1180 N1177 1.314 . S
C1180 C1178 1.353 . S
C1180 H1222 0.930 . S
C1181 N1177 1.279 . S
C1181 C1179 1.358 . S
C1181 H1223 0.930 . S
C1182 C1183 1.348 . S
C1182 C1184 1.356 . S
C1182 O1207 1.325 . S
C1183 C1182 1.348 . S
C1183 C1185 1.353 . S
C1183 H1224 0.929 . S
C1184 C1182 1.356 . S
C1184 C1186 1.358 . S
C1184 H1225 0.930 . S
C1185 C1183 1.353 . S
C1185 N1187 1.314 . S
C1185 H1226 0.930 . S
C1186 C1184 1.358 . S
C1186 N1187 1.279 . S
C1186 H1227 0.930 . S
N1187 C1185 1.314 . S
N1187 C1186 1.279 . S
C1188 C1190 1.353 . S
C1188 N1191 1.314 . S
C1188 H1194 0.930 . S
C1189 N1191 1.279 . S
C1189 C1192 1.358 . S
C1189 H1195 0.930 . S
C1190 C1188 1.353 . S
C1190 C1193 1.348 . S
C1190 H1228 0.929 . S
N1191 Li1146 1.990 . S
N1191 C1188 1.314 . S
N1191 C1189 1.279 . S
C1192 C1189 1.358 . S
C1192 C1193 1.356 . S
C1192 H1229 0.930 . S
C1193 C1190 1.348 . S
C1193 C1192 1.356 . S
H1194 C1188 0.930 . S
H1195 C1189 0.930 . S
C1196 N1197 1.314 . S
C1196 C1198 1.353 . S
C1196 H1202 0.930 . S
N1197 Li1147 1.990 . S
N1197 C1196 1.314 . S
N1197 C1200 1.279 . S
C1198 C1196 1.353 . S
C1198 C1201 1.348 . S
C1198 H1230 0.929 . S
C1199 C1200 1.358 . S
C1199 C1201 1.356 . S
C1199 H1231 0.930 . S
C1200 N1197 1.279 . S
C1200 C1199 1.358 . S
C1200 H1203 0.930 . S
C1201 C1198 1.348 . S
C1201 C1199 1.356 . S
H1202 C1196 0.930 . S
H1203 C1200 0.930 . S
O1204 Li1144 1.956 . S
O1204 Li1145 1.970 . S
O1204 Li1146 1.961 . S
O1204 C1148 1.325 . S
O1205 Li1144 1.970 . S
O1205 Li1145 1.956 . S
O1205 Li1147 1.961 . S
O1205 C1154 1.325 . S
O1206 Li1144 1.961 . S
O1206 Li1146 1.956 . S
O1206 Li1147 1.970 . S
O1206 C1176 1.325 . S
O1207 Li1145 1.961 . S
O1207 Li1146 1.970 . S
O1207 Li1147 1.956 . S
O1207 C1182 1.325 . S
H1208 C1150 0.929 . S
H1209 C1151 0.930 . S
H1210 C1152 0.930 . S
H1211 C1153 0.930 . S
H1212 C1155 0.930 . S
H1213 C1157 0.929 . S
H1214 C1158 0.930 . S
H1215 C1159 0.930 . S
H1216 C1162 0.930 . S
H1217 C1165 0.929 . S
H1218 C1170 0.929 . S
H1219 C1171 0.930 . S
H1220 C1178 0.929 . S
H1221 C1179 0.930 . S
H1222 C1180 0.930 . S
H1223 C1181 0.930 . S
H1224 C1183 0.929 . S
H1225 C1184 0.930 . S
H1226 C1185 0.930 . S
H1227 C1186 0.930 . S
H1228 C1190 0.929 . S
H1229 C1192 0.930 . S
H1230 C1198 0.929 . S
H1231 C1199 0.930 . S
Li1232 N1249 1.990 . S
Li1232 O1292 1.956 . S
Li1232 O1293 1.970 . S
Li1232 O1294 1.961 . S
Li1233 N1257 1.990 . S
Li1233 O1292 1.970 . S
Li1233 O1293 1.956 . S
Li1233 O1295 1.961 . S
Li1234 N1279 1.990 . S
Li1234 O1292 1.961 . S
Li1234 O1294 1.956 . S
Li1234 O1295 1.970 . S
Li1235 N1285 1.990 . S
Li1235 O1293 1.961 . S
Li1235 O1294 1.970 . S
Li1235 O1295 1.956 . S
C1236 C1238 1.348 . S
C1236 C1239 1.356 . S
C1236 O1292 1.325 . S
N1237 C1240 1.314 . S
N1237 C1241 1.279 . S
C1238 C1236 1.348 . S
C1238 C1240 1.353 . S
C1238 H1296 0.929 . S
C1239 C1236 1.356 . S
C1239 C1241 1.358 . S
C1239 H1297 0.930 . S
C1240 N1237 1.314 . S
C1240 C1238 1.353 . S
C1240 H1298 0.930 . S
C1241 N1237 1.279 . S
C1241 C1239 1.358 . S
C1241 H1299 0.930 . S
C1242 C1245 1.369 . S
C1242 C1246 1.364 . S
C1242 O1293 1.325 . S
C1243 N1244 1.279 . S
C1243 C1246 1.344 1_554 S
C1243 H1300 0.930 . S
N1244 C1243 1.279 . S
N1244 C1247 1.314 . S
C1245 C1242 1.369 . S
C1245 C1247 1.314 1_556 S
C1245 H1301 0.949 . S
C1246 C1242 1.364 . S
C1246 C1243 1.344 1_556 S
C1246 H1302 0.936 . S
C1247 N1244 1.314 . S
C1247 C1245 1.314 1_554 S
C1247 H1303 0.930 . S
C1248 N1249 1.314 . S
C1248 C1253 1.353 . S
C1248 H1254 0.930 . S
N1249 Li1232 1.990 . S
N1249 C1248 1.314 . S
N1249 C1251 1.279 . S
C1250 C1251 1.358 . S
C1250 C1252 1.356 . S
C1250 H1304 0.930 . S
C1251 N1249 1.279 . S
C1251 C1250 1.358 . S
C1251 H1255 0.930 . S
C1252 C1250 1.356 . S
C1252 C1253 1.348 . S
C1253 C1248 1.353 . S
C1253 C1252 1.348 . S
C1253 H1305 0.929 . S
H1254 C1248 0.930 . S
H1255 C1251 0.930 . S
C1256 N1257 1.314 . S
C1256 C1258 1.353 . S
C1256 H1262 0.930 . S
N1257 Li1233 1.990 . S
N1257 C1256 1.314 . S
N1257 C1260 1.279 . S
C1258 C1256 1.353 . S
C1258 C1261 1.348 . S
C1258 H1306 0.929 . S
C1259 C1260 1.358 . S
C1259 C1261 1.356 . S
C1259 H1307 0.930 . S
C1260 N1257 1.279 . S
C1260 C1259 1.358 . S
C1260 H1263 0.930 . S
C1261 C1258 1.348 . S
C1261 C1259 1.356 . S
H1262 C1256 0.930 . S
H1263 C1260 0.930 . S
C1264 C1266 1.348 . S
C1264 C1267 1.356 . S
C1264 O1294 1.325 . S
N1265 C1268 1.314 . S
N1265 C1269 1.279 . S
C1266 C1264 1.348 . S
C1266 C1268 1.353 . S
C1266 H1308 0.929 . S
C1267 C1264 1.356 . S
C1267 C1269 1.358 . S
C1267 H1309 0.930 . S
C1268 N1265 1.314 . S
C1268 C1266 1.353 . S
C1268 H1310 0.930 . S
C1269 N1265 1.279 . S
C1269 C1267 1.358 . S
C1269 H1311 0.930 . S
C1270 C1271 1.348 . S
C1270 C1272 1.356 . S
C1270 O1295 1.325 . S
C1271 C1270 1.348 . S
C1271 C1273 1.353 . S
C1271 H1312 0.929 . S
C1272 C1270 1.356 . S
C1272 C1274 1.358 . S
C1272 H1313 0.930 . S
C1273 C1271 1.353 . S
C1273 N1275 1.314 . S
C1273 H1314 0.930 . S
C1274 C1272 1.358 . S
C1274 N1275 1.279 . S
C1274 H1315 0.930 . S
N1275 C1273 1.314 . S
N1275 C1274 1.279 . S
C1276 C1278 1.353 . S
C1276 N1279 1.314 . S
C1276 H1282 0.930 . S
C1277 N1279 1.279 . S
C1277 C1280 1.358 . S
C1277 H1283 0.930 . S
C1278 C1276 1.353 . S
C1278 C1281 1.348 . S
C1278 H1316 0.929 . S
N1279 Li1234 1.990 . S
N1279 C1276 1.314 . S
N1279 C1277 1.279 . S
C1280 C1277 1.358 . S
C1280 C1281 1.356 . S
C1280 H1317 0.930 . S
C1281 C1278 1.348 . S
C1281 C1280 1.356 . S
H1282 C1276 0.930 . S
H1283 C1277 0.930 . S
C1284 N1285 1.314 . S
C1284 C1286 1.353 . S
C1284 H1290 0.930 . S
N1285 Li1235 1.990 . S
N1285 C1284 1.314 . S
N1285 C1288 1.279 . S
C1286 C1284 1.353 . S
C1286 C1289 1.348 . S
C1286 H1318 0.929 1_556 S
C1287 C1288 1.358 . S
C1287 C1289 1.356 . S
C1287 H1319 0.930 . S
C1288 N1285 1.279 . S
C1288 C1287 1.358 . S
C1288 H1291 0.930 . S
C1289 C1286 1.348 . S
C1289 C1287 1.356 . S
H1290 C1284 0.930 . S
H1291 C1288 0.930 . S
O1292 Li1232 1.956 . S
O1292 Li1233 1.970 . S
O1292 Li1234 1.961 . S
O1292 C1236 1.325 . S
O1293 Li1232 1.970 . S
O1293 Li1233 1.956 . S
O1293 Li1235 1.961 . S
O1293 C1242 1.325 . S
O1294 Li1232 1.961 . S
O1294 Li1234 1.956 . S
O1294 Li1235 1.970 . S
O1294 C1264 1.325 . S
O1295 Li1233 1.961 . S
O1295 Li1234 1.970 . S
O1295 Li1235 1.956 . S
O1295 C1270 1.325 . S
H1296 C1238 0.929 . S
H1297 C1239 0.930 . S
H1298 C1240 0.930 . S
H1299 C1241 0.930 . S
H1300 C1243 0.930 . S
H1301 C1245 0.949 . S
H1302 C1246 0.936 . S
H1303 C1247 0.930 . S
H1304 C1250 0.930 . S
H1305 C1253 0.929 . S
H1306 C1258 0.929 . S
H1307 C1259 0.930 . S
H1308 C1266 0.929 . S
H1309 C1267 0.930 . S
H1310 C1268 0.930 . S
H1311 C1269 0.930 . S
H1312 C1271 0.929 . S
H1313 C1272 0.930 . S
H1314 C1273 0.930 . S
H1315 C1274 0.930 . S
H1316 C1278 0.929 . S
H1317 C1280 0.930 . S
H1318 C1286 0.929 1_554 S
H1319 C1287 0.930 . S
Li1320 N1337 1.990 . S
Li1320 O1380 1.956 . S
Li1320 O1381 1.970 . S
Li1320 O1382 1.961 . S
Li1321 N1345 1.990 . S
Li1321 O1380 1.970 . S
Li1321 O1381 1.956 . S
Li1321 O1383 1.961 . S
Li1322 N1367 1.990 . S
Li1322 O1380 1.961 . S
Li1322 O1382 1.956 . S
Li1322 O1383 1.970 . S
Li1323 N1373 1.990 . S
Li1323 O1381 1.961 . S
Li1323 O1382 1.970 . S
Li1323 O1383 1.956 . S
C1324 C1326 1.348 . S
C1324 C1327 1.356 . S
C1324 O1380 1.325 . S
N1325 C1328 1.314 . S
N1325 C1329 1.279 . S
C1326 C1324 1.348 . S
C1326 C1328 1.353 . S
C1326 H1384 0.929 . S
C1327 C1324 1.356 . S
C1327 C1329 1.358 . S
C1327 H1385 0.930 . S
C1328 N1325 1.314 . S
C1328 C1326 1.353 . S
C1328 H1386 0.930 . S
C1329 N1325 1.279 . S
C1329 C1327 1.358 . S
C1329 H1387 0.930 . S
C1330 C1333 1.348 . S
C1330 C1334 1.356 . S
C1330 O1381 1.325 . S
C1331 N1332 1.279 . S
C1331 C1334 1.358 . S
C1331 H1388 0.930 . S
N1332 C1331 1.279 . S
N1332 C1335 1.314 . S
C1333 C1330 1.348 . S
C1333 C1335 1.353 . S
C1333 H1389 0.929 . S
C1334 C1330 1.356 . S
C1334 C1331 1.358 . S
C1334 H1390 0.930 . S
C1335 N1332 1.314 . S
C1335 C1333 1.353 . S
C1335 H1391 0.930 . S
C1336 N1337 1.314 . S
C1336 C1341 1.353 . S
C1336 H1342 0.930 . S
N1337 Li1320 1.990 . S
N1337 C1336 1.314 . S
N1337 C1339 1.279 . S
C1338 C1339 1.358 . S
C1338 C1340 1.356 . S
C1338 H1392 0.930 . S
C1339 N1337 1.279 . S
C1339 C1338 1.358 . S
C1339 H1343 0.930 . S
C1340 C1338 1.356 . S
C1340 C1341 1.348 . S
C1341 C1336 1.353 . S
C1341 C1340 1.348 . S
C1341 H1393 0.929 . S
H1342 C1336 0.930 . S
H1343 C1339 0.930 . S
C1344 N1345 1.314 . S
C1344 C1346 1.353 . S
C1344 H1350 0.930 . S
N1345 Li1321 1.990 . S
N1345 C1344 1.314 . S
N1345 C1348 1.279 . S
C1346 C1344 1.353 . S
C1346 C1349 1.348 . S
C1346 H1394 0.929 . S
C1347 C1348 1.358 . S
C1347 C1349 1.356 . S
C1347 H1395 0.930 . S
C1348 N1345 1.279 . S
C1348 C1347 1.358 . S
C1348 H1351 0.930 . S
C1349 C1346 1.348 . S
C1349 C1347 1.356 . S
H1350 C1344 0.930 . S
H1351 C1348 0.930 . S
C1352 C1354 1.348 . S
C1352 C1355 1.356 . S
C1352 O1382 1.325 . S
N1353 C1356 1.314 . S
N1353 C1357 1.279 . S
C1354 C1352 1.348 . S
C1354 C1356 1.353 . S
C1354 H1396 0.929 . S
C1355 C1352 1.356 . S
C1355 C1357 1.358 . S
C1355 H1397 0.930 . S
C1356 N1353 1.314 . S
C1356 C1354 1.353 . S
C1356 H1398 0.930 . S
C1357 N1353 1.279 . S
C1357 C1355 1.358 . S
C1357 H1399 0.930 . S
C1358 C1359 1.348 . S
C1358 C1360 1.356 . S
C1358 O1383 1.325 . S
C1359 C1358 1.348 . S
C1359 C1361 1.353 . S
C1359 H1400 0.929 . S
C1360 C1358 1.356 . S
C1360 C1362 1.358 . S
C1360 H1401 0.930 . S
C1361 C1359 1.353 . S
C1361 N1363 1.314 . S
C1361 H1402 0.930 . S
C1362 C1360 1.358 . S
C1362 N1363 1.279 . S
C1362 H1403 0.930 . S
N1363 C1361 1.314 . S
N1363 C1362 1.279 . S
C1364 C1366 1.353 . S
C1364 N1367 1.314 . S
C1364 H1370 0.930 . S
C1365 N1367 1.279 . S
C1365 C1368 1.358 . S
C1365 H1371 0.930 . S
C1366 C1364 1.353 . S
C1366 C1369 1.348 . S
C1366 H1404 0.929 . S
N1367 Li1322 1.990 . S
N1367 C1364 1.314 . S
N1367 C1365 1.279 . S
C1368 C1365 1.358 . S
C1368 C1369 1.356 . S
C1368 H1405 0.930 . S
C1369 C1366 1.348 . S
C1369 C1368 1.356 . S
H1370 C1364 0.930 . S
H1371 C1365 0.930 . S
C1372 N1373 1.314 . S
C1372 C1374 1.353 . S
C1372 H1378 0.930 . S
N1373 Li1323 1.990 . S
N1373 C1372 1.314 . S
N1373 C1376 1.279 . S
C1374 C1372 1.353 . S
C1374 C1377 1.348 . S
C1374 H1406 0.929 . S
C1375 C1376 1.358 . S
C1375 C1377 1.356 . S
C1375 H1407 0.930 . S
C1376 N1373 1.279 . S
C1376 C1375 1.358 . S
C1376 H1379 0.930 . S
C1377 C1374 1.348 . S
C1377 C1375 1.356 . S
H1378 C1372 0.930 . S
H1379 C1376 0.930 . S
O1380 Li1320 1.956 . S
O1380 Li1321 1.970 . S
O1380 Li1322 1.961 . S
O1380 C1324 1.325 . S
O1381 Li1320 1.970 . S
O1381 Li1321 1.956 . S
O1381 Li1323 1.961 . S
O1381 C1330 1.325 . S
O1382 Li1320 1.961 . S
O1382 Li1322 1.956 . S
O1382 Li1323 1.970 . S
O1382 C1352 1.325 . S
O1383 Li1321 1.961 . S
O1383 Li1322 1.970 . S
O1383 Li1323 1.956 . S
O1383 C1358 1.325 . S
H1384 C1326 0.929 . S
H1385 C1327 0.930 . S
H1386 C1328 0.930 . S
H1387 C1329 0.930 . S
H1388 C1331 0.930 . S
H1389 C1333 0.929 . S
H1390 C1334 0.930 . S
H1391 C1335 0.930 . S
H1392 C1338 0.930 . S
H1393 C1341 0.929 . S
H1394 C1346 0.929 . S
H1395 C1347 0.930 . S
H1396 C1354 0.929 . S
H1397 C1355 0.930 . S
H1398 C1356 0.930 . S
H1399 C1357 0.930 . S
H1400 C1359 0.929 . S
H1401 C1360 0.930 . S
H1402 C1361 0.930 . S
H1403 C1362 0.930 . S
H1404 C1366 0.929 . S
H1405 C1368 0.930 . S
H1406 C1374 0.929 . S
H1407 C1375 0.930 . S
Li1408 N1425 1.990 . S
Li1408 O1468 1.956 . S
Li1408 O1469 1.970 . S
Li1408 O1470 1.961 . S
Li1409 N1433 1.990 . S
Li1409 O1468 1.970 . S
Li1409 O1469 1.956 . S
Li1409 O1471 1.961 . S
Li1410 N1455 1.990 . S
Li1410 O1468 1.961 . S
Li1410 O1470 1.956 . S
Li1410 O1471 1.970 . S
Li1411 N1461 1.990 . S
Li1411 O1469 1.961 . S
Li1411 O1470 1.970 . S
Li1411 O1471 1.956 . S
C1412 C1414 1.348 . S
C1412 C1415 1.356 . S
C1412 O1468 1.325 . S
N1413 C1416 1.314 . S
N1413 C1417 1.279 . S
C1414 C1412 1.348 . S
C1414 C1416 1.353 . S
C1414 H1472 0.929 . S
C1415 C1412 1.356 . S
C1415 C1417 1.358 . S
C1415 H1473 0.930 . S
C1416 N1413 1.314 . S
C1416 C1414 1.353 . S
C1416 H1474 0.930 . S
C1417 N1413 1.279 . S
C1417 C1415 1.358 . S
C1417 H1475 0.930 . S
C1418 C1421 1.368 . S
C1418 C1422 1.363 . S
C1418 O1469 1.325 . S
C1419 N1420 1.279 . S
C1419 C1422 1.345 1_554 S
C1419 H1476 0.930 . S
N1420 C1419 1.279 . S
N1420 C1423 1.314 . S
C1421 C1418 1.368 . S
C1421 C1423 1.315 1_556 S
C1421 H1477 0.948 . S
C1422 C1418 1.363 . S
C1422 C1419 1.345 1_556 S
C1422 H1478 0.936 . S
C1423 N1420 1.314 . S
C1423 C1421 1.315 1_554 S
C1423 H1479 0.930 . S
C1424 N1425 1.314 . S
C1424 C1429 1.353 . S
C1424 H1430 0.930 . S
N1425 Li1408 1.990 . S
N1425 C1424 1.314 . S
N1425 C1427 1.279 . S
C1426 C1427 1.358 . S
C1426 C1428 1.356 . S
C1426 H1480 0.930 . S
C1427 N1425 1.279 . S
C1427 C1426 1.358 . S
C1427 H1431 0.930 . S
C1428 C1426 1.356 . S
C1428 C1429 1.348 . S
C1429 C1424 1.353 . S
C1429 C1428 1.348 . S
C1429 H1481 0.929 . S
H1430 C1424 0.930 . S
H1431 C1427 0.930 . S
C1432 N1433 1.314 . S
C1432 C1434 1.353 . S
C1432 H1438 0.930 . S
N1433 Li1409 1.990 . S
N1433 C1432 1.314 . S
N1433 C1436 1.279 . S
C1434 C1432 1.353 . S
C1434 C1437 1.348 . S
C1434 H1482 0.929 . S
C1435 C1436 1.358 . S
C1435 C1437 1.356 . S
C1435 H1483 0.930 . S
C1436 N1433 1.279 . S
C1436 C1435 1.358 . S
C1436 H1439 0.930 . S
C1437 C1434 1.348 . S
C1437 C1435 1.356 . S
H1438 C1432 0.930 . S
H1439 C1436 0.930 . S
C1440 C1442 1.348 . S
C1440 C1443 1.356 . S
C1440 O1470 1.325 . S
N1441 C1444 1.314 . S
N1441 C1445 1.279 . S
C1442 C1440 1.348 . S
C1442 C1444 1.353 . S
C1442 H1484 0.929 . S
C1443 C1440 1.356 . S
C1443 C1445 1.358 . S
C1443 H1485 0.930 . S
C1444 N1441 1.314 . S
C1444 C1442 1.353 . S
C1444 H1486 0.930 . S
C1445 N1441 1.279 . S
C1445 C1443 1.358 . S
C1445 H1487 0.930 . S
C1446 C1447 1.348 . S
C1446 C1448 1.356 . S
C1446 O1471 1.325 . S
C1447 C1446 1.348 . S
C1447 C1449 1.353 . S
C1447 H1488 0.929 . S
C1448 C1446 1.356 . S
C1448 C1450 1.358 . S
C1448 H1489 0.930 . S
C1449 C1447 1.353 . S
C1449 N1451 1.314 . S
C1449 H1490 0.930 . S
C1450 C1448 1.358 . S
C1450 N1451 1.279 . S
C1450 H1491 0.930 . S
N1451 C1449 1.314 . S
N1451 C1450 1.279 . S
C1452 C1454 1.353 . S
C1452 N1455 1.314 . S
C1452 H1458 0.930 . S
C1453 N1455 1.279 . S
C1453 C1456 1.358 . S
C1453 H1459 0.930 . S
C1454 C1452 1.353 . S
C1454 C1457 1.348 . S
C1454 H1492 0.929 . S
N1455 Li1410 1.990 . S
N1455 C1452 1.314 . S
N1455 C1453 1.279 . S
C1456 C1453 1.358 . S
C1456 C1457 1.356 . S
C1456 H1493 0.930 . S
C1457 C1454 1.348 . S
C1457 C1456 1.356 . S
H1458 C1452 0.930 . S
H1459 C1453 0.930 . S
C1460 N1461 1.314 . S
C1460 C1462 1.353 . S
C1460 H1466 0.930 . S
N1461 Li1411 1.990 . S
N1461 C1460 1.314 . S
N1461 C1464 1.279 . S
C1462 C1460 1.353 . S
C1462 C1465 1.348 . S
C1462 H1494 0.929 1_556 S
C1463 C1464 1.358 . S
C1463 C1465 1.356 . S
C1463 H1495 0.930 . S
C1464 N1461 1.279 . S
C1464 C1463 1.358 . S
C1464 H1467 0.930 . S
C1465 C1462 1.348 . S
C1465 C1463 1.356 . S
H1466 C1460 0.930 . S
H1467 C1464 0.930 . S
O1468 Li1408 1.956 . S
O1468 Li1409 1.970 . S
O1468 Li1410 1.961 . S
O1468 C1412 1.325 . S
O1469 Li1408 1.970 . S
O1469 Li1409 1.956 . S
O1469 Li1411 1.961 . S
O1469 C1418 1.325 . S
O1470 Li1408 1.961 . S
O1470 Li1410 1.956 . S
O1470 Li1411 1.970 . S
O1470 C1440 1.325 . S
O1471 Li1409 1.961 . S
O1471 Li1410 1.970 . S
O1471 Li1411 1.956 . S
O1471 C1446 1.325 . S
H1472 C1414 0.929 . S
H1473 C1415 0.930 . S
H1474 C1416 0.930 . S
H1475 C1417 0.930 . S
H1476 C1419 0.930 . S
H1477 C1421 0.948 . S
H1478 C1422 0.936 . S
H1479 C1423 0.930 . S
H1480 C1426 0.930 . S
H1481 C1429 0.929 . S
H1482 C1434 0.929 . S
H1483 C1435 0.930 . S
H1484 C1442 0.929 . S
H1485 C1443 0.930 . S
H1486 C1444 0.930 . S
H1487 C1445 0.930 . S
H1488 C1447 0.929 . S
H1489 C1448 0.930 . S
H1490 C1449 0.930 . S
H1491 C1450 0.930 . S
H1492 C1454 0.929 . S
H1493 C1456 0.930 . S
H1494 C1462 0.929 1_554 S
H1495 C1463 0.930 . S
Li1496 N1513 1.990 . S
Li1496 O1556 1.956 . S
Li1496 O1557 1.970 . S
Li1496 O1558 1.961 . S
Li1497 N1521 1.990 . S
Li1497 O1556 1.970 . S
Li1497 O1557 1.956 . S
Li1497 O1559 1.961 . S
Li1498 N1543 1.990 . S
Li1498 O1556 1.961 . S
Li1498 O1558 1.956 . S
Li1498 O1559 1.970 . S
Li1499 N1549 1.990 . S
Li1499 O1557 1.961 . S
Li1499 O1558 1.970 . S
Li1499 O1559 1.956 . S
C1500 C1502 1.348 . S
C1500 C1503 1.356 . S
C1500 O1556 1.325 . S
N1501 C1504 1.314 . S
N1501 C1505 1.279 . S
C1502 C1500 1.348 . S
C1502 C1504 1.353 . S
C1502 H1560 0.929 . S
C1503 C1500 1.356 . S
C1503 C1505 1.358 . S
C1503 H1561 0.930 . S
C1504 N1501 1.314 . S
C1504 C1502 1.353 . S
C1504 H1562 0.930 . S
C1505 N1501 1.279 . S
C1505 C1503 1.358 . S
C1505 H1563 0.930 . S
C1506 C1509 1.348 . S
C1506 C1510 1.356 . S
C1506 O1557 1.325 . S
C1507 N1508 1.279 . S
C1507 C1510 1.358 . S
C1507 H1564 0.930 . S
N1508 C1507 1.279 . S
N1508 C1511 1.314 . S
C1509 C1506 1.348 . S
C1509 C1511 1.353 . S
C1509 H1565 0.929 . S
C1510 C1506 1.356 . S
C1510 C1507 1.358 . S
C1510 H1566 0.930 . S
C1511 N1508 1.314 . S
C1511 C1509 1.353 . S
C1511 H1567 0.930 . S
C1512 N1513 1.314 . S
C1512 C1517 1.353 . S
C1512 H1518 0.930 . S
N1513 Li1496 1.990 . S
N1513 C1512 1.314 . S
N1513 C1515 1.279 . S
C1514 C1515 1.358 . S
C1514 C1516 1.356 . S
C1514 H1568 0.930 . S
C1515 N1513 1.279 . S
C1515 C1514 1.358 . S
C1515 H1519 0.930 . S
C1516 C1514 1.356 . S
C1516 C1517 1.348 . S
C1517 C1512 1.353 . S
C1517 C1516 1.348 . S
C1517 H1569 0.929 . S
H1518 C1512 0.930 . S
H1519 C1515 0.930 . S
C1520 N1521 1.314 . S
C1520 C1522 1.353 . S
C1520 H1526 0.930 . S
N1521 Li1497 1.990 . S
N1521 C1520 1.314 . S
N1521 C1524 1.279 . S
C1522 C1520 1.353 . S
C1522 C1525 1.348 . S
C1522 H1570 0.929 . S
C1523 C1524 1.358 . S
C1523 C1525 1.356 . S
C1523 H1571 0.930 . S
C1524 N1521 1.279 . S
C1524 C1523 1.358 . S
C1524 H1527 0.930 . S
C1525 C1522 1.348 . S
C1525 C1523 1.356 . S
H1526 C1520 0.930 . S
H1527 C1524 0.930 . S
C1528 C1530 1.348 . S
C1528 C1531 1.356 . S
C1528 O1558 1.325 . S
N1529 C1532 1.314 . S
N1529 C1533 1.279 . S
C1530 C1528 1.348 . S
C1530 C1532 1.353 . S
C1530 H1572 0.929 . S
C1531 C1528 1.356 . S
C1531 C1533 1.358 . S
C1531 H1573 0.930 . S
C1532 N1529 1.314 . S
C1532 C1530 1.353 . S
C1532 H1574 0.930 . S
C1533 N1529 1.279 . S
C1533 C1531 1.358 . S
C1533 H1575 0.930 . S
C1534 C1535 1.348 . S
C1534 C1536 1.356 . S
C1534 O1559 1.325 . S
C1535 C1534 1.348 . S
C1535 C1537 1.353 . S
C1535 H1576 0.929 . S
C1536 C1534 1.356 . S
C1536 C1538 1.358 . S
C1536 H1577 0.930 . S
C1537 C1535 1.353 . S
C1537 N1539 1.314 . S
C1537 H1578 0.930 . S
C1538 C1536 1.358 . S
C1538 N1539 1.279 . S
C1538 H1579 0.930 . S
N1539 C1537 1.314 . S
N1539 C1538 1.279 . S
C1540 C1542 1.353 . S
C1540 N1543 1.314 . S
C1540 H1546 0.930 . S
C1541 N1543 1.279 . S
C1541 C1544 1.358 . S
C1541 H1547 0.930 . S
C1542 C1540 1.353 . S
C1542 C1545 1.348 . S
C1542 H1580 0.929 . S
N1543 Li1498 1.990 . S
N1543 C1540 1.314 . S
N1543 C1541 1.279 . S
C1544 C1541 1.358 . S
C1544 C1545 1.356 . S
C1544 H1581 0.930 . S
C1545 C1542 1.348 . S
C1545 C1544 1.356 . S
H1546 C1540 0.930 . S
H1547 C1541 0.930 . S
C1548 N1549 1.314 . S
C1548 C1550 1.353 . S
C1548 H1554 0.930 . S
N1549 Li1499 1.990 . S
N1549 C1548 1.314 . S
N1549 C1552 1.279 . S
C1550 C1548 1.353 . S
C1550 C1553 1.348 . S
C1550 H1582 0.929 . S
C1551 C1552 1.358 . S
C1551 C1553 1.356 . S
C1551 H1583 0.930 . S
C1552 N1549 1.279 . S
C1552 C1551 1.358 . S
C1552 H1555 0.930 . S
C1553 C1550 1.348 . S
C1553 C1551 1.356 . S
H1554 C1548 0.930 . S
H1555 C1552 0.930 . S
O1556 Li1496 1.956 . S
O1556 Li1497 1.970 . S
O1556 Li1498 1.961 . S
O1556 C1500 1.325 . S
O1557 Li1496 1.970 . S
O1557 Li1497 1.956 . S
O1557 Li1499 1.961 . S
O1557 C1506 1.325 . S
O1558 Li1496 1.961 . S
O1558 Li1498 1.956 . S
O1558 Li1499 1.970 . S
O1558 C1528 1.325 . S
O1559 Li1497 1.961 . S
O1559 Li1498 1.970 . S
O1559 Li1499 1.956 . S
O1559 C1534 1.325 . S
H1560 C1502 0.929 . S
H1561 C1503 0.930 . S
H1562 C1504 0.930 . S
H1563 C1505 0.930 . S
H1564 C1507 0.930 . S
H1565 C1509 0.929 . S
H1566 C1510 0.930 . S
H1567 C1511 0.930 . S
H1568 C1514 0.930 . S
H1569 C1517 0.929 . S
H1570 C1522 0.929 . S
H1571 C1523 0.930 . S
H1572 C1530 0.929 . S
H1573 C1531 0.930 . S
H1574 C1532 0.930 . S
H1575 C1533 0.930 . S
H1576 C1535 0.929 . S
H1577 C1536 0.930 . S
H1578 C1537 0.930 . S
H1579 C1538 0.930 . S
H1580 C1542 0.929 . S
H1581 C1544 0.930 . S
H1582 C1550 0.929 . S
H1583 C1551 0.930 . S
Li1584 N1601 1.990 . S
Li1584 O1644 1.956 . S
Li1584 O1645 1.970 . S
Li1584 O1646 1.961 . S
Li1585 N1609 1.990 . S
Li1585 O1644 1.970 . S
Li1585 O1645 1.956 . S
Li1585 O1647 1.961 . S
Li1586 N1631 1.990 . S
Li1586 O1644 1.961 . S
Li1586 O1646 1.956 . S
Li1586 O1647 1.970 . S
Li1587 N1637 1.990 . S
Li1587 O1645 1.961 . S
Li1587 O1646 1.970 . S
Li1587 O1647 1.956 . S
C1588 C1590 1.368 . S
C1588 C1591 1.364 . S
C1588 O1644 1.325 . S
N1589 C1592 1.314 . S
N1589 C1593 1.279 . S
C1590 C1588 1.368 . S
C1590 C1592 1.314 1_554 S
C1590 H1648 0.948 . S
C1591 C1588 1.364 . S
C1591 C1593 1.344 1_554 S
C1591 H1649 0.936 . S
C1592 N1589 1.314 . S
C1592 C1590 1.314 1_556 S
C1592 H1650 0.930 . S
C1593 N1589 1.279 . S
C1593 C1591 1.344 1_556 S
C1593 H1651 0.930 . S
C1594 C1597 1.348 . S
C1594 C1598 1.356 . S
C1594 O1645 1.325 . S
C1595 N1596 1.279 . S
C1595 C1598 1.358 . S
C1595 H1652 0.930 . S
N1596 C1595 1.279 . S
N1596 C1599 1.314 . S
C1597 C1594 1.348 . S
C1597 C1599 1.353 . S
C1597 H1653 0.929 . S
C1598 C1594 1.356 . S
C1598 C1595 1.358 . S
C1598 H1654 0.930 . S
C1599 N1596 1.314 . S
C1599 C1597 1.353 . S
C1599 H1655 0.930 . S
C1600 N1601 1.314 . S
C1600 C1605 1.353 . S
C1600 H1606 0.930 . S
N1601 Li1584 1.990 . S
N1601 C1600 1.314 . S
N1601 C1603 1.279 . S
C1602 C1603 1.358 . S
C1602 C1604 1.356 . S
C1602 H1656 0.930 . S
C1603 N1601 1.279 . S
C1603 C1602 1.358 . S
C1603 H1607 0.930 . S
C1604 C1602 1.356 . S
C1604 C1605 1.348 . S
C1605 C1600 1.353 . S
C1605 C1604 1.348 . S
C1605 H1657 0.929 . S
H1606 C1600 0.930 . S
H1607 C1603 0.930 . S
C1608 N1609 1.314 . S
C1608 C1610 1.353 . S
C1608 H1614 0.930 . S
N1609 Li1585 1.990 . S
N1609 C1608 1.314 . S
N1609 C1612 1.279 . S
C1610 C1608 1.353 . S
C1610 C1613 1.348 . S
C1610 H1658 0.929 . S
C1611 C1612 1.358 . S
C1611 C1613 1.356 . S
C1611 H1659 0.930 . S
C1612 N1609 1.279 . S
C1612 C1611 1.358 . S
C1612 H1615 0.930 . S
C1613 C1610 1.348 . S
C1613 C1611 1.356 . S
H1614 C1608 0.930 . S
H1615 C1612 0.930 . S
C1616 C1618 1.348 . S
C1616 C1619 1.356 . S
C1616 O1646 1.325 . S
N1617 C1620 1.314 . S
N1617 C1621 1.279 . S
C1618 C1616 1.348 . S
C1618 C1620 1.353 . S
C1618 H1660 0.929 . S
C1619 C1616 1.356 . S
C1619 C1621 1.358 . S
C1619 H1661 0.930 . S
C1620 N1617 1.314 . S
C1620 C1618 1.353 . S
C1620 H1662 0.930 . S
C1621 N1617 1.279 . S
C1621 C1619 1.358 . S
C1621 H1663 0.930 . S
C1622 C1623 1.348 . S
C1622 C1624 1.356 . S
C1622 O1647 1.325 . S
C1623 C1622 1.348 . S
C1623 C1625 1.353 . S
C1623 H1664 0.929 . S
C1624 C1622 1.356 . S
C1624 C1626 1.358 . S
C1624 H1665 0.930 . S
C1625 C1623 1.353 . S
C1625 N1627 1.314 . S
C1625 H1666 0.930 . S
C1626 C1624 1.358 . S
C1626 N1627 1.279 . S
C1626 H1667 0.930 . S
N1627 C1625 1.314 . S
N1627 C1626 1.279 . S
C1628 C1630 1.353 . S
C1628 N1631 1.314 . S
C1628 H1634 0.930 . S
C1629 N1631 1.279 . S
C1629 C1632 1.358 . S
C1629 H1635 0.930 . S
C1630 C1628 1.353 . S
C1630 C1633 1.348 . S
C1630 H1668 0.929 1_554 S
N1631 Li1586 1.990 . S
N1631 C1628 1.314 . S
N1631 C1629 1.279 . S
C1632 C1629 1.358 . S
C1632 C1633 1.356 . S
C1632 H1669 0.930 . S
C1633 C1630 1.348 . S
C1633 C1632 1.356 . S
H1634 C1628 0.930 . S
H1635 C1629 0.930 . S
C1636 N1637 1.314 . S
C1636 C1638 1.353 . S
C1636 H1642 0.930 . S
N1637 Li1587 1.990 . S
N1637 C1636 1.314 . S
N1637 C1640 1.279 . S
C1638 C1636 1.353 . S
C1638 C1641 1.348 . S
C1638 H1670 0.929 . S
C1639 C1640 1.358 . S
C1639 C1641 1.356 . S
C1639 H1671 0.930 . S
C1640 N1637 1.279 . S
C1640 C1639 1.358 . S
C1640 H1643 0.930 . S
C1641 C1638 1.348 . S
C1641 C1639 1.356 . S
H1642 C1636 0.930 . S
H1643 C1640 0.930 . S
O1644 Li1584 1.956 . S
O1644 Li1585 1.970 . S
O1644 Li1586 1.961 . S
O1644 C1588 1.325 . S
O1645 Li1584 1.970 . S
O1645 Li1585 1.956 . S
O1645 Li1587 1.961 . S
O1645 C1594 1.325 . S
O1646 Li1584 1.961 . S
O1646 Li1586 1.956 . S
O1646 Li1587 1.970 . S
O1646 C1616 1.325 . S
O1647 Li1585 1.961 . S
O1647 Li1586 1.970 . S
O1647 Li1587 1.956 . S
O1647 C1622 1.325 . S
H1648 C1590 0.948 . S
H1649 C1591 0.936 . S
H1650 C1592 0.930 . S
H1651 C1593 0.930 . S
H1652 C1595 0.930 . S
H1653 C1597 0.929 . S
H1654 C1598 0.930 . S
H1655 C1599 0.930 . S
H1656 C1602 0.930 . S
H1657 C1605 0.929 . S
H1658 C1610 0.929 . S
H1659 C1611 0.930 . S
H1660 C1618 0.929 . S
H1661 C1619 0.930 . S
H1662 C1620 0.930 . S
H1663 C1621 0.930 . S
H1664 C1623 0.929 . S
H1665 C1624 0.930 . S
H1666 C1625 0.930 . S
H1667 C1626 0.930 . S
H1668 C1630 0.929 1_556 S
H1669 C1632 0.930 . S
H1670 C1638 0.929 . S
H1671 C1639 0.930 . S
Li1672 N1689 1.990 . S
Li1672 O1732 1.956 . S
Li1672 O1733 1.970 . S
Li1672 O1734 1.961 . S
Li1673 N1697 1.990 . S
Li1673 O1732 1.970 . S
Li1673 O1733 1.956 . S
Li1673 O1735 1.961 . S
Li1674 N1719 1.990 . S
Li1674 O1732 1.961 . S
Li1674 O1734 1.956 . S
Li1674 O1735 1.970 . S
Li1675 N1725 1.990 . S
Li1675 O1733 1.961 . S
Li1675 O1734 1.970 . S
Li1675 O1735 1.956 . S
C1676 C1678 1.348 . S
C1676 C1679 1.356 . S
C1676 O1732 1.325 . S
N1677 C1680 1.314 . S
N1677 C1681 1.279 . S
C1678 C1676 1.348 . S
C1678 C1680 1.353 . S
C1678 H1736 0.929 . S
C1679 C1676 1.356 . S
C1679 C1681 1.358 . S
C1679 H1737 0.930 . S
C1680 N1677 1.314 . S
C1680 C1678 1.353 . S
C1680 H1738 0.930 . S
C1681 N1677 1.279 . S
C1681 C1679 1.358 . S
C1681 H1739 0.930 . S
C1682 C1685 1.348 . S
C1682 C1686 1.356 . S
C1682 O1733 1.325 . S
C1683 N1684 1.279 . S
C1683 C1686 1.358 . S
C1683 H1740 0.930 . S
N1684 C1683 1.279 . S
N1684 C1687 1.314 . S
C1685 C1682 1.348 . S
C1685 C1687 1.353 . S
C1685 H1741 0.929 . S
C1686 C1682 1.356 . S
C1686 C1683 1.358 . S
C1686 H1742 0.930 . S
C1687 N1684 1.314 . S
C1687 C1685 1.353 . S
C1687 H1743 0.930 . S
C1688 N1689 1.314 . S
C1688 C1693 1.353 . S
C1688 H1694 0.930 . S
N1689 Li1672 1.990 . S
N1689 C1688 1.314 . S
N1689 C1691 1.279 . S
C1690 C1691 1.358 . S
C1690 C1692 1.356 . S
C1690 H1744 0.930 . S
C1691 N1689 1.279 . S
C1691 C1690 1.358 . S
C1691 H1695 0.930 . S
C1692 C1690 1.356 . S
C1692 C1693 1.348 . S
C1693 C1688 1.353 . S
C1693 C1692 1.348 . S
C1693 H1745 0.929 . S
H1694 C1688 0.930 . S
H1695 C1691 0.930 . S
C1696 N1697 1.314 . S
C1696 C1698 1.353 . S
C1696 H1702 0.930 . S
N1697 Li1673 1.990 . S
N1697 C1696 1.314 . S
N1697 C1700 1.279 . S
C1698 C1696 1.353 . S
C1698 C1701 1.348 . S
C1698 H1746 0.929 . S
C1699 C1700 1.358 . S
C1699 C1701 1.356 . S
C1699 H1747 0.930 . S
C1700 N1697 1.279 . S
C1700 C1699 1.358 . S
C1700 H1703 0.930 . S
C1701 C1698 1.348 . S
C1701 C1699 1.356 . S
H1702 C1696 0.930 . S
H1703 C1700 0.930 . S
C1704 C1706 1.348 . S
C1704 C1707 1.356 . S
C1704 O1734 1.325 . S
N1705 C1708 1.314 . S
N1705 C1709 1.279 . S
C1706 C1704 1.348 . S
C1706 C1708 1.353 . S
C1706 H1748 0.929 . S
C1707 C1704 1.356 . S
C1707 C1709 1.358 . S
C1707 H1749 0.930 . S
C1708 N1705 1.314 . S
C1708 C1706 1.353 . S
C1708 H1750 0.930 . S
C1709 N1705 1.279 . S
C1709 C1707 1.358 . S
C1709 H1751 0.930 . S
C1710 C1711 1.348 . S
C1710 C1712 1.356 . S
C1710 O1735 1.325 . S
C1711 C1710 1.348 . S
C1711 C1713 1.353 . S
C1711 H1752 0.929 . S
C1712 C1710 1.356 . S
C1712 C1714 1.358 . S
C1712 H1753 0.930 . S
C1713 C1711 1.353 . S
C1713 N1715 1.314 . S
C1713 H1754 0.930 . S
C1714 C1712 1.358 . S
C1714 N1715 1.279 . S
C1714 H1755 0.930 . S
N1715 C1713 1.314 . S
N1715 C1714 1.279 . S
C1716 C1718 1.353 . S
C1716 N1719 1.314 . S
C1716 H1722 0.930 . S
C1717 N1719 1.279 . S
C1717 C1720 1.358 . S
C1717 H1723 0.930 . S
C1718 C1716 1.353 . S
C1718 C1721 1.348 . S
C1718 H1756 0.929 . S
N1719 Li1674 1.990 . S
N1719 C1716 1.314 . S
N1719 C1717 1.279 . S
C1720 C1717 1.358 . S
C1720 C1721 1.356 . S
C1720 H1757 0.930 . S
C1721 C1718 1.348 . S
C1721 C1720 1.356 . S
H1722 C1716 0.930 . S
H1723 C1717 0.930 . S
C1724 N1725 1.314 . S
C1724 C1726 1.353 . S
C1724 H1730 0.930 . S
N1725 Li1675 1.990 . S
N1725 C1724 1.314 . S
N1725 C1728 1.279 . S
C1726 C1724 1.353 . S
C1726 C1729 1.348 . S
C1726 H1758 0.929 . S
C1727 C1728 1.358 . S
C1727 C1729 1.356 . S
C1727 H1759 0.930 . S
C1728 N1725 1.279 . S
C1728 C1727 1.358 . S
C1728 H1731 0.930 . S
C1729 C1726 1.348 . S
C1729 C1727 1.356 . S
H1730 C1724 0.930 . S
H1731 C1728 0.930 . S
O1732 Li1672 1.956 . S
O1732 Li1673 1.970 . S
O1732 Li1674 1.961 . S
O1732 C1676 1.325 . S
O1733 Li1672 1.970 . S
O1733 Li1673 1.956 . S
O1733 Li1675 1.961 . S
O1733 C1682 1.325 . S
O1734 Li1672 1.961 . S
O1734 Li1674 1.956 . S
O1734 Li1675 1.970 . S
O1734 C1704 1.325 . S
O1735 Li1673 1.961 . S
O1735 Li1674 1.970 . S
O1735 Li1675 1.956 . S
O1735 C1710 1.325 . S
H1736 C1678 0.929 . S
H1737 C1679 0.930 . S
H1738 C1680 0.930 . S
H1739 C1681 0.930 . S
H1740 C1683 0.930 . S
H1741 C1685 0.929 . S
H1742 C1686 0.930 . S
H1743 C1687 0.930 . S
H1744 C1690 0.930 . S
H1745 C1693 0.929 . S
H1746 C1698 0.929 . S
H1747 C1699 0.930 . S
H1748 C1706 0.929 . S
H1749 C1707 0.930 . S
H1750 C1708 0.930 . S
H1751 C1709 0.930 . S
H1752 C1711 0.929 . S
H1753 C1712 0.930 . S
H1754 C1713 0.930 . S
H1755 C1714 0.930 . S
H1756 C1718 0.929 . S
H1757 C1720 0.930 . S
H1758 C1726 0.929 . S
H1759 C1727 0.930 . S
Li1760 N1777 1.990 . S
Li1760 O1820 1.956 . S
Li1760 O1821 1.970 . S
Li1760 O1822 1.961 . S
Li1761 N1785 1.990 . S
Li1761 O1820 1.970 . S
Li1761 O1821 1.956 . S
Li1761 O1823 1.961 . S
Li1762 N1807 1.990 . S
Li1762 O1820 1.961 . S
Li1762 O1822 1.956 . S
Li1762 O1823 1.970 . S
Li1763 N1813 1.990 . S
Li1763 O1821 1.961 . S
Li1763 O1822 1.970 . S
Li1763 O1823 1.956 . S
C1764 C1766 1.348 . S
C1764 C1767 1.356 . S
C1764 O1820 1.325 . S
N1765 C1768 1.314 . S
N1765 C1769 1.279 . S
C1766 C1764 1.348 . S
C1766 C1768 1.353 . S
C1766 H1824 0.929 . S
C1767 C1764 1.356 . S
C1767 C1769 1.358 . S
C1767 H1825 0.930 . S
C1768 N1765 1.314 . S
C1768 C1766 1.353 . S
C1768 H1826 0.930 . S
C1769 N1765 1.279 . S
C1769 C1767 1.358 . S
C1769 H1827 0.930 . S
C1770 C1773 1.348 . S
C1770 C1774 1.356 . S
C1770 O1821 1.325 . S
C1771 N1772 1.279 . S
C1771 C1774 1.358 . S
C1771 H1828 0.930 . S
N1772 C1771 1.279 . S
N1772 C1775 1.314 . S
C1773 C1770 1.348 . S
C1773 C1775 1.353 . S
C1773 H1829 0.929 . S
C1774 C1770 1.356 . S
C1774 C1771 1.358 . S
C1774 H1830 0.930 . S
C1775 N1772 1.314 . S
C1775 C1773 1.353 . S
C1775 H1831 0.930 . S
C1776 N1777 1.314 . S
C1776 C1781 1.353 . S
C1776 H1782 0.930 . S
N1777 Li1760 1.990 . S
N1777 C1776 1.314 . S
N1777 C1779 1.279 . S
C1778 C1779 1.358 . S
C1778 C1780 1.356 . S
C1778 H1832 0.930 . S
C1779 N1777 1.279 . S
C1779 C1778 1.358 . S
C1779 H1783 0.930 . S
C1780 C1778 1.356 . S
C1780 C1781 1.348 . S
C1781 C1776 1.353 . S
C1781 C1780 1.348 . S
C1781 H1833 0.929 1_554 S
H1782 C1776 0.930 . S
H1783 C1779 0.930 . S
C1784 N1785 1.314 . S
C1784 C1786 1.353 . S
C1784 H1790 0.930 . S
N1785 Li1761 1.990 . S
N1785 C1784 1.314 . S
N1785 C1788 1.279 . S
C1786 C1784 1.353 . S
C1786 C1789 1.348 . S
C1786 H1834 0.929 . S
C1787 C1788 1.358 . S
C1787 C1789 1.356 . S
C1787 H1835 0.930 . S
C1788 N1785 1.279 . S
C1788 C1787 1.358 . S
C1788 H1791 0.930 . S
C1789 C1786 1.348 . S
C1789 C1787 1.356 . S
H1790 C1784 0.930 . S
H1791 C1788 0.930 . S
C1792 C1794 1.368 . S
C1792 C1795 1.363 . S
C1792 O1822 1.325 . S
N1793 C1796 1.314 . S
N1793 C1797 1.279 . S
C1794 C1792 1.368 . S
C1794 C1796 1.315 1_554 S
C1794 H1836 0.948 . S
C1795 C1792 1.363 . S
C1795 C1797 1.345 1_554 S
C1795 H1837 0.936 . S
C1796 N1793 1.314 . S
C1796 C1794 1.315 1_556 S
C1796 H1838 0.930 . S
C1797 N1793 1.279 . S
C1797 C1795 1.345 1_556 S
C1797 H1839 0.930 . S
C1798 C1799 1.348 . S
C1798 C1800 1.356 . S
C1798 O1823 1.325 . S
C1799 C1798 1.348 . S
C1799 C1801 1.353 . S
C1799 H1840 0.929 . S
C1800 C1798 1.356 . S
C1800 C1802 1.358 . S
C1800 H1841 0.930 . S
C1801 C1799 1.353 . S
C1801 N1803 1.314 . S
C1801 H1842 0.930 . S
C1802 C1800 1.358 . S
C1802 N1803 1.279 . S
C1802 H1843 0.930 . S
N1803 C1801 1.314 . S
N1803 C1802 1.279 . S
C1804 C1806 1.353 . S
C1804 N1807 1.314 . S
C1804 H1810 0.930 . S
C1805 N1807 1.279 . S
C1805 C1808 1.358 . S
C1805 H1811 0.930 . S
C1806 C1804 1.353 . S
C1806 C1809 1.348 . S
C1806 H1844 0.929 . S
N1807 Li1762 1.990 . S
N1807 C1804 1.314 . S
N1807 C1805 1.279 . S
C1808 C1805 1.358 . S
C1808 C1809 1.356 . S
C1808 H1845 0.930 . S
C1809 C1806 1.348 . S
C1809 C1808 1.356 . S
H1810 C1804 0.930 . S
H1811 C1805 0.930 . S
C1812 N1813 1.314 . S
C1812 C1814 1.353 . S
C1812 H1818 0.930 . S
N1813 Li1763 1.990 . S
N1813 C1812 1.314 . S
N1813 C1816 1.279 . S
C1814 C1812 1.353 . S
C1814 C1817 1.348 . S
C1814 H1846 0.929 . S
C1815 C1816 1.358 . S
C1815 C1817 1.356 . S
C1815 H1847 0.930 . S
C1816 N1813 1.279 . S
C1816 C1815 1.358 . S
C1816 H1819 0.930 . S
C1817 C1814 1.348 . S
C1817 C1815 1.356 . S
H1818 C1812 0.930 . S
H1819 C1816 0.930 . S
O1820 Li1760 1.956 . S
O1820 Li1761 1.970 . S
O1820 Li1762 1.961 . S
O1820 C1764 1.325 . S
O1821 Li1760 1.970 . S
O1821 Li1761 1.956 . S
O1821 Li1763 1.961 . S
O1821 C1770 1.325 . S
O1822 Li1760 1.961 . S
O1822 Li1762 1.956 . S
O1822 Li1763 1.970 . S
O1822 C1792 1.325 . S
O1823 Li1761 1.961 . S
O1823 Li1762 1.970 . S
O1823 Li1763 1.956 . S
O1823 C1798 1.325 . S
H1824 C1766 0.929 . S
H1825 C1767 0.930 . S
H1826 C1768 0.930 . S
H1827 C1769 0.930 . S
H1828 C1771 0.930 . S
H1829 C1773 0.929 . S
H1830 C1774 0.930 . S
H1831 C1775 0.930 . S
H1832 C1778 0.930 . S
H1833 C1781 0.929 1_556 S
H1834 C1786 0.929 . S
H1835 C1787 0.930 . S
H1836 C1794 0.948 . S
H1837 C1795 0.936 . S
H1838 C1796 0.930 . S
H1839 C1797 0.930 . S
H1840 C1799 0.929 . S
H1841 C1800 0.930 . S
H1842 C1801 0.930 . S
H1843 C1802 0.930 . S
H1844 C1806 0.929 . S
H1845 C1808 0.930 . S
H1846 C1814 0.929 . S
H1847 C1815 0.930 . S
Li1848 N1865 1.990 . S
Li1848 O1908 1.956 . S
Li1848 O1909 1.970 . S
Li1848 O1910 1.961 . S
Li1849 N1873 1.990 . S
Li1849 O1908 1.970 . S
Li1849 O1909 1.956 . S
Li1849 O1911 1.961 . S
Li1850 N1895 1.990 . S
Li1850 O1908 1.961 . S
Li1850 O1910 1.956 . S
Li1850 O1911 1.970 . S
Li1851 N1901 1.990 . S
Li1851 O1909 1.961 . S
Li1851 O1910 1.970 . S
Li1851 O1911 1.956 . S
C1852 C1854 1.348 . S
C1852 C1855 1.356 . S
C1852 O1908 1.325 . S
N1853 C1856 1.314 . S
N1853 C1857 1.279 . S
C1854 C1852 1.348 . S
C1854 C1856 1.353 . S
C1854 H1912 0.929 . S
C1855 C1852 1.356 . S
C1855 C1857 1.358 . S
C1855 H1913 0.930 . S
C1856 N1853 1.314 . S
C1856 C1854 1.353 . S
C1856 H1914 0.930 . S
C1857 N1853 1.279 . S
C1857 C1855 1.358 . S
C1857 H1915 0.930 . S
C1858 C1861 1.348 . S
C1858 C1862 1.356 . S
C1858 O1909 1.325 . S
C1859 N1860 1.279 . S
C1859 C1862 1.358 . S
C1859 H1916 0.930 . S
N1860 C1859 1.279 . S
N1860 C1863 1.314 . S
C1861 C1858 1.348 . S
C1861 C1863 1.353 . S
C1861 H1917 0.929 . S
C1862 C1858 1.356 . S
C1862 C1859 1.358 . S
C1862 H1918 0.930 . S
C1863 N1860 1.314 . S
C1863 C1861 1.353 . S
C1863 H1919 0.930 . S
C1864 N1865 1.314 . S
C1864 C1869 1.353 . S
C1864 H1870 0.930 . S
N1865 Li1848 1.990 . S
N1865 C1864 1.314 . S
N1865 C1867 1.279 . S
C1866 C1867 1.358 . S
C1866 C1868 1.356 . S
C1866 H1920 0.930 . S
C1867 N1865 1.279 . S
C1867 C1866 1.358 . S
C1867 H1871 0.930 . S
C1868 C1866 1.356 . S
C1868 C1869 1.348 . S
C1869 C1864 1.353 . S
C1869 C1868 1.348 . S
C1869 H1921 0.929 . S
H1870 C1864 0.930 . S
H1871 C1867 0.930 . S
C1872 N1873 1.314 . S
C1872 C1874 1.353 . S
C1872 H1878 0.930 . S
N1873 Li1849 1.990 . S
N1873 C1872 1.314 . S
N1873 C1876 1.279 . S
C1874 C1872 1.353 . S
C1874 C1877 1.348 . S
C1874 H1922 0.929 . S
C1875 C1876 1.358 . S
C1875 C1877 1.356 . S
C1875 H1923 0.930 . S
C1876 N1873 1.279 . S
C1876 C1875 1.358 . S
C1876 H1879 0.930 . S
C1877 C1874 1.348 . S
C1877 C1875 1.356 . S
H1878 C1872 0.930 . S
H1879 C1876 0.930 . S
C1880 C1882 1.348 . S
C1880 C1883 1.356 . S
C1880 O1910 1.325 . S
N1881 C1884 1.314 . S
N1881 C1885 1.279 . S
C1882 C1880 1.348 . S
C1882 C1884 1.353 . S
C1882 H1924 0.929 . S
C1883 C1880 1.356 . S
C1883 C1885 1.358 . S
C1883 H1925 0.930 . S
C1884 N1881 1.314 . S
C1884 C1882 1.353 . S
C1884 H1926 0.930 . S
C1885 N1881 1.279 . S
C1885 C1883 1.358 . S
C1885 H1927 0.930 . S
C1886 C1887 1.348 . S
C1886 C1888 1.356 . S
C1886 O1911 1.325 . S
C1887 C1886 1.348 . S
C1887 C1889 1.353 . S
C1887 H1928 0.929 . S
C1888 C1886 1.356 . S
C1888 C1890 1.358 . S
C1888 H1929 0.930 . S
C1889 C1887 1.353 . S
C1889 N1891 1.314 . S
C1889 H1930 0.930 . S
C1890 C1888 1.358 . S
C1890 N1891 1.279 . S
C1890 H1931 0.930 . S
N1891 C1889 1.314 . S
N1891 C1890 1.279 . S
C1892 C1894 1.353 . S
C1892 N1895 1.314 . S
C1892 H1898 0.930 . S
C1893 N1895 1.279 . S
C1893 C1896 1.358 . S
C1893 H1899 0.930 . S
C1894 C1892 1.353 . S
C1894 C1897 1.348 . S
C1894 H1932 0.929 . S
N1895 Li1850 1.990 . S
N1895 C1892 1.314 . S
N1895 C1893 1.279 . S
C1896 C1893 1.358 . S
C1896 C1897 1.356 . S
C1896 H1933 0.930 . S
C1897 C1894 1.348 . S
C1897 C1896 1.356 . S
H1898 C1892 0.930 . S
H1899 C1893 0.930 . S
C1900 N1901 1.314 . S
C1900 C1902 1.353 . S
C1900 H1906 0.930 . S
N1901 Li1851 1.990 . S
N1901 C1900 1.314 . S
N1901 C1904 1.279 . S
C1902 C1900 1.353 . S
C1902 C1905 1.348 . S
C1902 H1934 0.929 . S
C1903 C1904 1.358 . S
C1903 C1905 1.356 . S
C1903 H1935 0.930 . S
C1904 N1901 1.279 . S
C1904 C1903 1.358 . S
C1904 H1907 0.930 . S
C1905 C1902 1.348 . S
C1905 C1903 1.356 . S
H1906 C1900 0.930 . S
H1907 C1904 0.930 . S
O1908 Li1848 1.956 . S
O1908 Li1849 1.970 . S
O1908 Li1850 1.961 . S
O1908 C1852 1.325 . S
O1909 Li1848 1.970 . S
O1909 Li1849 1.956 . S
O1909 Li1851 1.961 . S
O1909 C1858 1.325 . S
O1910 Li1848 1.961 . S
O1910 Li1850 1.956 . S
O1910 Li1851 1.970 . S
O1910 C1880 1.325 . S
O1911 Li1849 1.961 . S
O1911 Li1850 1.970 . S
O1911 Li1851 1.956 . S
O1911 C1886 1.325 . S
H1912 C1854 0.929 . S
H1913 C1855 0.930 . S
H1914 C1856 0.930 . S
H1915 C1857 0.930 . S
H1916 C1859 0.930 . S
H1917 C1861 0.929 . S
H1918 C1862 0.930 . S
H1919 C1863 0.930 . S
H1920 C1866 0.930 . S
H1921 C1869 0.929 . S
H1922 C1874 0.929 . S
H1923 C1875 0.930 . S
H1924 C1882 0.929 . S
H1925 C1883 0.930 . S
H1926 C1884 0.930 . S
H1927 C1885 0.930 . S
H1928 C1887 0.929 . S
H1929 C1888 0.930 . S
H1930 C1889 0.930 . S
H1931 C1890 0.930 . S
H1932 C1894 0.929 . S
H1933 C1896 0.930 . S
H1934 C1902 0.929 . S
H1935 C1903 0.930 . S
Li1936 N1953 1.990 . S
Li1936 O1996 1.956 . S
Li1936 O1997 1.970 . S
Li1936 O1998 1.961 . S
Li1937 N1961 1.990 . S
Li1937 O1996 1.970 . S
Li1937 O1997 1.956 . S
Li1937 O1999 1.961 . S
Li1938 N1983 1.990 . S
Li1938 O1996 1.961 . S
Li1938 O1998 1.956 . S
Li1938 O1999 1.970 . S
Li1939 N1989 1.990 . S
Li1939 O1997 1.961 . S
Li1939 O1998 1.970 . S
Li1939 O1999 1.956 . S
C1940 C1942 1.348 . S
C1940 C1943 1.356 . S
C1940 O1996 1.325 . S
N1941 C1944 1.314 . S
N1941 C1945 1.279 . S
C1942 C1940 1.348 . S
C1942 C1944 1.353 . S
C1942 H2000 0.929 . S
C1943 C1940 1.356 . S
C1943 C1945 1.358 . S
C1943 H2001 0.930 . S
C1944 N1941 1.314 . S
C1944 C1942 1.353 . S
C1944 H2002 0.930 . S
C1945 N1941 1.279 . S
C1945 C1943 1.358 . S
C1945 H2003 0.930 . S
C1946 C1949 1.348 . S
C1946 C1950 1.356 . S
C1946 O1997 1.325 . S
C1947 N1948 1.279 . S
C1947 C1950 1.358 . S
C1947 H2004 0.930 . S
N1948 C1947 1.279 . S
N1948 C1951 1.314 . S
C1949 C1946 1.348 . S
C1949 C1951 1.353 . S
C1949 H2005 0.929 . S
C1950 C1946 1.356 . S
C1950 C1947 1.358 . S
C1950 H2006 0.930 . S
C1951 N1948 1.314 . S
C1951 C1949 1.353 . S
C1951 H2007 0.930 . S
C1952 N1953 1.314 . S
C1952 C1957 1.353 . S
C1952 H1958 0.930 . S
N1953 Li1936 1.990 . S
N1953 C1952 1.314 . S
N1953 C1955 1.279 . S
C1954 C1955 1.358 . S
C1954 C1956 1.356 . S
C1954 H2008 0.930 . S
C1955 N1953 1.279 . S
C1955 C1954 1.358 . S
C1955 H1959 0.930 . S
C1956 C1954 1.356 . S
C1956 C1957 1.348 . S
C1957 C1952 1.353 . S
C1957 C1956 1.348 . S
C1957 H2009 0.929 1_554 S
H1958 C1952 0.930 . S
H1959 C1955 0.930 . S
C1960 N1961 1.314 . S
C1960 C1962 1.353 . S
C1960 H1966 0.930 . S
N1961 Li1937 1.990 . S
N1961 C1960 1.314 . S
N1961 C1964 1.279 . S
C1962 C1960 1.353 . S
C1962 C1965 1.348 . S
C1962 H2010 0.929 . S
C1963 C1964 1.358 . S
C1963 C1965 1.356 . S
C1963 H2011 0.930 . S
C1964 N1961 1.279 . S
C1964 C1963 1.358 . S
C1964 H1967 0.930 . S
C1965 C1962 1.348 . S
C1965 C1963 1.356 . S
H1966 C1960 0.930 . S
H1967 C1964 0.930 . S
C1968 C1970 1.369 . S
C1968 C1971 1.364 . S
C1968 O1998 1.325 . S
N1969 C1972 1.314 . S
N1969 C1973 1.279 . S
C1970 C1968 1.369 . S
C1970 C1972 1.314 1_554 S
C1970 H2012 0.949 . S
C1971 C1968 1.364 . S
C1971 C1973 1.344 1_554 S
C1971 H2013 0.936 . S
C1972 N1969 1.314 . S
C1972 C1970 1.314 1_556 S
C1972 H2014 0.930 . S
C1973 N1969 1.279 . S
C1973 C1971 1.344 1_556 S
C1973 H2015 0.930 . S
C1974 C1975 1.348 . S
C1974 C1976 1.356 . S
C1974 O1999 1.325 . S
C1975 C1974 1.348 . S
C1975 C1977 1.353 . S
C1975 H2016 0.929 . S
C1976 C1974 1.356 . S
C1976 C1978 1.358 . S
C1976 H2017 0.930 . S
C1977 C1975 1.353 . S
C1977 N1979 1.314 . S
C1977 H2018 0.930 . S
C1978 C1976 1.358 . S
C1978 N1979 1.279 . S
C1978 H2019 0.930 . S
N1979 C1977 1.314 . S
N1979 C1978 1.279 . S
C1980 C1982 1.353 . S
C1980 N1983 1.314 . S
C1980 H1986 0.930 . S
C1981 N1983 1.279 . S
C1981 C1984 1.358 . S
C1981 H1987 0.930 . S
C1982 C1980 1.353 . S
C1982 C1985 1.348 . S
C1982 H2020 0.929 . S
N1983 Li1938 1.990 . S
N1983 C1980 1.314 . S
N1983 C1981 1.279 . S
C1984 C1981 1.358 . S
C1984 C1985 1.356 . S
C1984 H2021 0.930 . S
C1985 C1982 1.348 . S
C1985 C1984 1.356 . S
H1986 C1980 0.930 . S
H1987 C1981 0.930 . S
C1988 N1989 1.314 . S
C1988 C1990 1.353 . S
C1988 H1994 0.930 . S
N1989 Li1939 1.990 . S
N1989 C1988 1.314 . S
N1989 C1992 1.279 . S
C1990 C1988 1.353 . S
C1990 C1993 1.348 . S
C1990 H2022 0.929 . S
C1991 C1992 1.358 . S
C1991 C1993 1.356 . S
C1991 H2023 0.930 . S
C1992 N1989 1.279 . S
C1992 C1991 1.358 . S
C1992 H1995 0.930 . S
C1993 C1990 1.348 . S
C1993 C1991 1.356 . S
H1994 C1988 0.930 . S
H1995 C1992 0.930 . S
O1996 Li1936 1.956 . S
O1996 Li1937 1.970 . S
O1996 Li1938 1.961 . S
O1996 C1940 1.325 . S
O1997 Li1936 1.970 . S
O1997 Li1937 1.956 . S
O1997 Li1939 1.961 . S
O1997 C1946 1.325 . S
O1998 Li1936 1.961 . S
O1998 Li1938 1.956 . S
O1998 Li1939 1.970 . S
O1998 C1968 1.325 . S
O1999 Li1937 1.961 . S
O1999 Li1938 1.970 . S
O1999 Li1939 1.956 . S
O1999 C1974 1.325 . S
H2000 C1942 0.929 . S
H2001 C1943 0.930 . S
H2002 C1944 0.930 . S
H2003 C1945 0.930 . S
H2004 C1947 0.930 . S
H2005 C1949 0.929 . S
H2006 C1950 0.930 . S
H2007 C1951 0.930 . S
H2008 C1954 0.930 . S
H2009 C1957 0.929 1_556 S
H2010 C1962 0.929 . S
H2011 C1963 0.930 . S
H2012 C1970 0.949 . S
H2013 C1971 0.936 . S
H2014 C1972 0.930 . S
H2015 C1973 0.930 . S
H2016 C1975 0.929 . S
H2017 C1976 0.930 . S
H2018 C1977 0.930 . S
H2019 C1978 0.930 . S
H2020 C1982 0.929 . S
H2021 C1984 0.930 . S
H2022 C1990 0.929 . S
H2023 C1991 0.930 . S
Li2024 N2041 1.990 . S
Li2024 O2084 1.956 . S
Li2024 O2085 1.970 . S
Li2024 O2086 1.961 . S
Li2025 N2049 1.990 . S
Li2025 O2084 1.970 . S
Li2025 O2085 1.956 . S
Li2025 O2087 1.961 . S
Li2026 N2071 1.990 . S
Li2026 O2084 1.961 . S
Li2026 O2086 1.956 . S
Li2026 O2087 1.970 . S
Li2027 N2077 1.990 . S
Li2027 O2085 1.961 . S
Li2027 O2086 1.970 . S
Li2027 O2087 1.956 . S
C2028 C2030 1.348 . S
C2028 C2031 1.356 . S
C2028 O2084 1.325 . S
N2029 C2032 1.314 . S
N2029 C2033 1.279 . S
C2030 C2028 1.348 . S
C2030 C2032 1.353 . S
C2030 H2088 0.929 . S
C2031 C2028 1.356 . S
C2031 C2033 1.358 . S
C2031 H2089 0.930 . S
C2032 N2029 1.314 . S
C2032 C2030 1.353 . S
C2032 H2090 0.930 . S
C2033 N2029 1.279 . S
C2033 C2031 1.358 . S
C2033 H2091 0.930 . S
C2034 C2037 1.348 . S
C2034 C2038 1.356 . S
C2034 O2085 1.325 . S
C2035 N2036 1.279 . S
C2035 C2038 1.358 . S
C2035 H2092 0.930 . S
N2036 C2035 1.279 . S
N2036 C2039 1.314 . S
C2037 C2034 1.348 . S
C2037 C2039 1.353 . S
C2037 H2093 0.929 . S
C2038 C2034 1.356 . S
C2038 C2035 1.358 . S
C2038 H2094 0.930 . S
C2039 N2036 1.314 . S
C2039 C2037 1.353 . S
C2039 H2095 0.930 . S
C2040 N2041 1.314 . S
C2040 C2045 1.353 . S
C2040 H2046 0.930 . S
N2041 Li2024 1.990 . S
N2041 C2040 1.314 . S
N2041 C2043 1.279 . S
C2042 C2043 1.358 . S
C2042 C2044 1.356 . S
C2042 H2096 0.930 . S
C2043 N2041 1.279 . S
C2043 C2042 1.358 . S
C2043 H2047 0.930 . S
C2044 C2042 1.356 . S
C2044 C2045 1.348 . S
C2045 C2040 1.353 . S
C2045 C2044 1.348 . S
C2045 H2097 0.929 . S
H2046 C2040 0.930 . S
H2047 C2043 0.930 . S
C2048 N2049 1.314 . S
C2048 C2050 1.353 . S
C2048 H2054 0.930 . S
N2049 Li2025 1.990 . S
N2049 C2048 1.314 . S
N2049 C2052 1.279 . S
C2050 C2048 1.353 . S
C2050 C2053 1.348 . S
C2050 H2098 0.929 . S
C2051 C2052 1.358 . S
C2051 C2053 1.356 . S
C2051 H2099 0.930 . S
C2052 N2049 1.279 . S
C2052 C2051 1.358 . S
C2052 H2055 0.930 . S
C2053 C2050 1.348 . S
C2053 C2051 1.356 . S
H2054 C2048 0.930 . S
H2055 C2052 0.930 . S
C2056 C2058 1.348 . S
C2056 C2059 1.356 . S
C2056 O2086 1.325 . S
N2057 C2060 1.314 . S
N2057 C2061 1.279 . S
C2058 C2056 1.348 . S
C2058 C2060 1.353 . S
C2058 H2100 0.929 . S
C2059 C2056 1.356 . S
C2059 C2061 1.358 . S
C2059 H2101 0.930 . S
C2060 N2057 1.314 . S
C2060 C2058 1.353 . S
C2060 H2102 0.930 . S
C2061 N2057 1.279 . S
C2061 C2059 1.358 . S
C2061 H2103 0.930 . S
C2062 C2063 1.348 . S
C2062 C2064 1.356 . S
C2062 O2087 1.325 . S
C2063 C2062 1.348 . S
C2063 C2065 1.353 . S
C2063 H2104 0.929 . S
C2064 C2062 1.356 . S
C2064 C2066 1.358 . S
C2064 H2105 0.930 . S
C2065 C2063 1.353 . S
C2065 N2067 1.314 . S
C2065 H2106 0.930 . S
C2066 C2064 1.358 . S
C2066 N2067 1.279 . S
C2066 H2107 0.930 . S
N2067 C2065 1.314 . S
N2067 C2066 1.279 . S
C2068 C2070 1.353 . S
C2068 N2071 1.314 . S
C2068 H2074 0.930 . S
C2069 N2071 1.279 . S
C2069 C2072 1.358 . S
C2069 H2075 0.930 . S
C2070 C2068 1.353 . S
C2070 C2073 1.348 . S
C2070 H2108 0.929 . S
N2071 Li2026 1.990 . S
N2071 C2068 1.314 . S
N2071 C2069 1.279 . S
C2072 C2069 1.358 . S
C2072 C2073 1.356 . S
C2072 H2109 0.930 . S
C2073 C2070 1.348 . S
C2073 C2072 1.356 . S
H2074 C2068 0.930 . S
H2075 C2069 0.930 . S
C2076 N2077 1.314 . S
C2076 C2078 1.353 . S
C2076 H2082 0.930 . S
N2077 Li2027 1.990 . S
N2077 C2076 1.314 . S
N2077 C2080 1.279 . S
C2078 C2076 1.353 . S
C2078 C2081 1.348 . S
C2078 H2110 0.929 . S
C2079 C2080 1.358 . S
C2079 C2081 1.356 . S
C2079 H2111 0.930 . S
C2080 N2077 1.279 . S
C2080 C2079 1.358 . S
C2080 H2083 0.930 . S
C2081 C2078 1.348 . S
C2081 C2079 1.356 . S
H2082 C2076 0.930 . S
H2083 C2080 0.930 . S
O2084 Li2024 1.956 . S
O2084 Li2025 1.970 . S
O2084 Li2026 1.961 . S
O2084 C2028 1.325 . S
O2085 Li2024 1.970 . S
O2085 Li2025 1.956 . S
O2085 Li2027 1.961 . S
O2085 C2034 1.325 . S
O2086 Li2024 1.961 . S
O2086 Li2026 1.956 . S
O2086 Li2027 1.970 . S
O2086 C2056 1.325 . S
O2087 Li2025 1.961 . S
O2087 Li2026 1.970 . S
O2087 Li2027 1.956 . S
O2087 C2062 1.325 . S
H2088 C2030 0.929 . S
H2089 C2031 0.930 . S
H2090 C2032 0.930 . S
H2091 C2033 0.930 . S
H2092 C2035 0.930 . S
H2093 C2037 0.929 . S
H2094 C2038 0.930 . S
H2095 C2039 0.930 . S
H2096 C2042 0.930 . S
H2097 C2045 0.929 . S
H2098 C2050 0.929 . S
H2099 C2051 0.930 . S
H2100 C2058 0.929 . S
H2101 C2059 0.930 . S
H2102 C2060 0.930 . S
H2103 C2061 0.930 . S
H2104 C2063 0.929 . S
H2105 C2064 0.930 . S
H2106 C2065 0.930 . S
H2107 C2066 0.930 . S
H2108 C2070 0.929 . S
H2109 C2072 0.930 . S
H2110 C2078 0.929 . S
H2111 C2079 0.930 . S
H2112 C2118 0.930 . S
H2113 C2121 0.930 . S
H2114 C2122 0.930 . S
H2115 C2123 0.930 . S
H2116 C2126 0.930 . S
H2117 C2127 0.930 . S
C2118 H2112 0.930 . S
C2118 C2119 1.355 . S
C2118 C2120 1.415 . S
C2119 C2118 1.355 . S
C2119 C2121 1.419 . S
C2120 C2118 1.415 . S
C2120 C2125 1.425 . S
C2120 C2127 1.409 . S
C2121 H2113 0.930 . S
C2121 C2119 1.419 . S
C2121 C2122 1.362 . S
C2122 H2114 0.930 . S
C2122 C2121 1.362 . S
C2122 C2125 1.409 . S
C2123 H2115 0.930 . S
C2123 C2124 1.355 . S
C2123 C2125 1.415 . S
C2124 C2123 1.355 . S
C2124 C2126 1.419 . S
C2125 C2120 1.425 . S
C2125 C2122 1.409 . S
C2125 C2123 1.415 . S
C2126 H2116 0.930 . S
C2126 C2124 1.419 . S
C2126 C2127 1.362 . S
C2127 H2117 0.930 . S
C2127 C2120 1.409 . S
C2127 C2126 1.362 . S
H2128 C2134 0.930 . S
H2129 C2137 0.930 . S
H2130 C2138 0.930 . S
H2131 C2139 0.930 . S
H2132 C2142 0.930 . S
H2133 C2143 0.930 . S
C2134 H2128 0.930 . S
C2134 C2135 1.355 . S
C2134 C2136 1.415 . S
C2135 C2134 1.355 . S
C2135 C2137 1.419 . S
C2136 C2134 1.415 . S
C2136 C2141 1.425 . S
C2136 C2143 1.409 . S
C2137 H2129 0.930 . S
C2137 C2135 1.419 . S
C2137 C2138 1.362 . S
C2138 H2130 0.930 . S
C2138 C2137 1.362 . S
C2138 C2141 1.409 . S
C2139 H2131 0.930 . S
C2139 C2140 1.355 . S
C2139 C2141 1.415 . S
C2140 C2139 1.355 . S
C2140 C2142 1.419 . S
C2141 C2136 1.425 . S
C2141 C2138 1.409 . S
C2141 C2139 1.415 . S
C2142 H2132 0.930 . S
C2142 C2140 1.419 . S
C2142 C2143 1.362 . S
C2143 H2133 0.930 . S
C2143 C2136 1.409 . S
C2143 C2142 1.362 . S
H2144 C2150 0.930 . S
H2145 C2153 0.930 . S
H2146 C2154 0.930 . S
H2147 C2155 0.930 . S
H2148 C2158 0.930 . S
H2149 C2159 0.930 . S
C2150 H2144 0.930 . S
C2150 C2151 1.355 . S
C2150 C2152 1.415 . S
C2151 C2150 1.355 . S
C2151 C2153 1.419 . S
C2152 C2150 1.415 . S
C2152 C2157 1.425 . S
C2152 C2159 1.409 . S
C2153 H2145 0.930 . S
C2153 C2151 1.419 . S
C2153 C2154 1.362 . S
C2154 H2146 0.930 . S
C2154 C2153 1.362 . S
C2154 C2157 1.409 . S
C2155 H2147 0.930 . S
C2155 C2156 1.355 . S
C2155 C2157 1.415 . S
C2156 C2155 1.355 . S
C2156 C2158 1.419 . S
C2157 C2152 1.425 . S
C2157 C2154 1.409 . S
C2157 C2155 1.415 . S
C2158 H2148 0.930 . S
C2158 C2156 1.419 . S
C2158 C2159 1.362 . S
C2159 H2149 0.930 . S
C2159 C2152 1.409 . S
C2159 C2158 1.362 . S
H2160 C2166 0.930 . S
H2161 C2169 0.930 . S
H2162 C2170 0.930 . S
H2163 C2171 0.930 . S
H2164 C2174 0.930 . S
H2165 C2175 0.930 . S
C2166 H2160 0.930 . S
C2166 C2167 1.355 . S
C2166 C2168 1.415 . S
C2167 C2166 1.355 . S
C2167 C2169 1.419 . S
C2168 C2166 1.415 . S
C2168 C2173 1.425 . S
C2168 C2175 1.409 . S
C2169 H2161 0.930 . S
C2169 C2167 1.419 . S
C2169 C2170 1.362 . S
C2170 H2162 0.930 . S
C2170 C2169 1.362 . S
C2170 C2173 1.409 . S
C2171 H2163 0.930 . S
C2171 C2172 1.355 . S
C2171 C2173 1.415 . S
C2172 C2171 1.355 . S
C2172 C2174 1.419 . S
C2173 C2168 1.425 . S
C2173 C2170 1.409 . S
C2173 C2171 1.415 . S
C2174 H2164 0.930 . S
C2174 C2172 1.419 . S
C2174 C2175 1.362 . S
C2175 H2165 0.930 . S
C2175 C2168 1.409 . S
C2175 C2174 1.362 . S
H2176 C2182 0.930 . S
H2177 C2185 0.930 . S
H2178 C2186 0.930 . S
H2179 C2187 0.930 . S
H2180 C2190 0.930 . S
H2181 C2191 0.930 . S
C2182 H2176 0.930 . S
C2182 C2183 1.355 . S
C2182 C2184 1.415 . S
C2183 C2182 1.355 . S
C2183 C2185 1.419 . S
C2184 C2182 1.415 . S
C2184 C2189 1.425 . S
C2184 C2191 1.409 . S
C2185 H2177 0.930 . S
C2185 C2183 1.419 . S
C2185 C2186 1.362 . S
C2186 H2178 0.930 . S
C2186 C2185 1.362 . S
C2186 C2189 1.409 . S
C2187 H2179 0.930 . S
C2187 C2188 1.355 . S
C2187 C2189 1.415 . S
C2188 C2187 1.355 . S
C2188 C2190 1.419 . S
C2189 C2184 1.425 . S
C2189 C2186 1.409 . S
C2189 C2187 1.415 . S
C2190 H2180 0.930 . S
C2190 C2188 1.419 . S
C2190 C2191 1.362 . S
C2191 H2181 0.930 . S
C2191 C2184 1.409 . S
C2191 C2190 1.362 . S
H2192 C2198 0.930 . S
H2193 C2201 0.930 . S
H2194 C2202 0.930 . S
H2195 C2203 0.930 . S
H2196 C2206 0.930 . S
H2197 C2207 0.930 . S
C2198 H2192 0.930 . S
C2198 C2199 1.355 . S
C2198 C2200 1.415 . S
C2199 C2198 1.355 . S
C2199 C2201 1.419 . S
C2200 C2198 1.415 . S
C2200 C2205 1.425 . S
C2200 C2207 1.409 . S
C2201 H2193 0.930 . S
C2201 C2199 1.419 . S
C2201 C2202 1.362 . S
C2202 H2194 0.930 . S
C2202 C2201 1.362 . S
C2202 C2205 1.409 . S
C2203 H2195 0.930 . S
C2203 C2204 1.355 . S
C2203 C2205 1.415 . S
C2204 C2203 1.355 . S
C2204 C2206 1.419 . S
C2205 C2200 1.425 . S
C2205 C2202 1.409 . S
C2205 C2203 1.415 . S
C2206 H2196 0.930 . S
C2206 C2204 1.419 . S
C2206 C2207 1.362 . S
C2207 H2197 0.930 . S
C2207 C2200 1.409 . S
C2207 C2206 1.362 . S
H2208 C2214 0.930 . S
H2209 C2217 0.930 . S
H2210 C2218 0.930 . S
H2211 C2219 0.930 . S
H2212 C2222 0.930 . S
H2213 C2223 0.930 . S
C2214 H2208 0.930 . S
C2214 C2215 1.355 . S
C2214 C2216 1.415 . S
C2215 C2214 1.355 . S
C2215 C2217 1.419 . S
C2216 C2214 1.415 . S
C2216 C2221 1.425 . S
C2216 C2223 1.409 . S
C2217 H2209 0.930 . S
C2217 C2215 1.419 . S
C2217 C2218 1.362 . S
C2218 H2210 0.930 . S
C2218 C2217 1.362 . S
C2218 C2221 1.409 . S
C2219 H2211 0.930 . S
C2219 C2220 1.355 . S
C2219 C2221 1.415 . S
C2220 C2219 1.355 . S
C2220 C2222 1.419 . S
C2221 C2216 1.425 . S
C2221 C2218 1.409 . S
C2221 C2219 1.415 . S
C2222 H2212 0.930 . S
C2222 C2220 1.419 . S
C2222 C2223 1.362 . S
C2223 H2213 0.930 . S
C2223 C2216 1.409 . S
C2223 C2222 1.362 . S
H2224 C2230 0.930 . S
H2225 C2233 0.930 . S
H2226 C2234 0.930 . S
H2227 C2235 0.930 . S
H2228 C2238 0.930 . S
H2229 C2239 0.930 . S
C2230 H2224 0.930 . S
C2230 C2231 1.355 . S
C2230 C2232 1.415 . S
C2231 C2230 1.355 . S
C2231 C2233 1.419 . S
C2232 C2230 1.415 . S
C2232 C2237 1.425 . S
C2232 C2239 1.409 . S
C2233 H2225 0.930 . S
C2233 C2231 1.419 . S
C2233 C2234 1.362 . S
C2234 H2226 0.930 . S
C2234 C2233 1.362 . S
C2234 C2237 1.409 . S
C2235 H2227 0.930 . S
C2235 C2236 1.355 . S
C2235 C2237 1.415 . S
C2236 C2235 1.355 . S
C2236 C2238 1.419 . S
C2237 C2232 1.425 . S
C2237 C2234 1.409 . S
C2237 C2235 1.415 . S
C2238 H2228 0.930 . S
C2238 C2236 1.419 . S
C2238 C2239 1.362 . S
C2239 H2229 0.930 . S
C2239 C2232 1.409 . S
C2239 C2238 1.362 . S
H2240 C2246 0.930 . S
H2241 C2249 0.930 . S
H2242 C2250 0.930 . S
H2243 C2251 0.930 . S
H2244 C2254 0.930 . S
H2245 C2255 0.930 . S
C2246 H2240 0.930 . S
C2246 C2247 1.355 . S
C2246 C2248 1.415 . S
C2247 C2246 1.355 . S
C2247 C2249 1.419 . S
C2248 C2246 1.415 . S
C2248 C2253 1.425 . S
C2248 C2255 1.409 . S
C2249 H2241 0.930 . S
C2249 C2247 1.419 . S
C2249 C2250 1.362 . S
C2250 H2242 0.930 . S
C2250 C2249 1.362 . S
C2250 C2253 1.409 . S
C2251 H2243 0.930 . S
C2251 C2252 1.355 . S
C2251 C2253 1.415 . S
C2252 C2251 1.355 . S
C2252 C2254 1.419 . S
C2253 C2248 1.425 . S
C2253 C2250 1.409 . S
C2253 C2251 1.415 . S
C2254 H2244 0.930 . S
C2254 C2252 1.419 . S
C2254 C2255 1.362 . S
C2255 H2245 0.930 . S
C2255 C2248 1.409 . S
C2255 C2254 1.362 . S
H2256 C2262 0.930 . S
H2257 C2265 0.930 . S
H2258 C2266 0.930 . S
H2259 C2267 0.930 . S
H2260 C2270 0.930 . S
H2261 C2271 0.930 . S
C2262 H2256 0.930 . S
C2262 C2263 1.355 . S
C2262 C2264 1.415 . S
C2263 C2262 1.355 . S
C2263 C2265 1.419 . S
C2264 C2262 1.415 . S
C2264 C2269 1.425 . S
C2264 C2271 1.409 . S
C2265 H2257 0.930 . S
C2265 C2263 1.419 . S
C2265 C2266 1.362 . S
C2266 H2258 0.930 . S
C2266 C2265 1.362 . S
C2266 C2269 1.409 . S
C2267 H2259 0.930 . S
C2267 C2268 1.355 . S
C2267 C2269 1.415 . S
C2268 C2267 1.355 . S
C2268 C2270 1.419 . S
C2269 C2264 1.425 . S
C2269 C2266 1.409 . S
C2269 C2267 1.415 . S
C2270 H2260 0.930 . S
C2270 C2268 1.419 . S
C2270 C2271 1.362 . S
C2271 H2261 0.930 . S
C2271 C2264 1.409 . S
C2271 C2270 1.362 . S
H2272 C2278 0.930 . S
H2273 C2281 0.930 . S
H2274 C2282 0.930 . S
H2275 C2283 0.930 . S
H2276 C2286 0.930 . S
H2277 C2287 0.930 . S
C2278 H2272 0.930 . S
C2278 C2279 1.355 . S
C2278 C2280 1.415 . S
C2279 C2278 1.355 . S
C2279 C2281 1.419 . S
C2280 C2278 1.415 . S
C2280 C2285 1.425 . S
C2280 C2287 1.409 . S
C2281 H2273 0.930 . S
C2281 C2279 1.419 . S
C2281 C2282 1.362 . S
C2282 H2274 0.930 . S
C2282 C2281 1.362 . S
C2282 C2285 1.409 . S
C2283 H2275 0.930 . S
C2283 C2284 1.355 . S
C2283 C2285 1.415 . S
C2284 C2283 1.355 . S
C2284 C2286 1.419 . S
C2285 C2280 1.425 . S
C2285 C2282 1.409 . S
C2285 C2283 1.415 . S
C2286 H2276 0.930 . S
C2286 C2284 1.419 . S
C2286 C2287 1.362 . S
C2287 H2277 0.930 . S
C2287 C2280 1.409 . S
C2287 C2286 1.362 . S
H2288 C2294 0.930 . S
H2289 C2297 0.930 . S
H2290 C2298 0.930 . S
H2291 C2299 0.930 . S
H2292 C2302 0.930 . S
H2293 C2303 0.930 . S
C2294 H2288 0.930 . S
C2294 C2295 1.355 . S
C2294 C2296 1.415 . S
C2295 C2294 1.355 . S
C2295 C2297 1.419 . S
C2296 C2294 1.415 . S
C2296 C2301 1.425 . S
C2296 C2303 1.409 . S
C2297 H2289 0.930 . S
C2297 C2295 1.419 . S
C2297 C2298 1.362 . S
C2298 H2290 0.930 . S
C2298 C2297 1.362 . S
C2298 C2301 1.409 . S
C2299 H2291 0.930 . S
C2299 C2300 1.355 . S
C2299 C2301 1.415 . S
C2300 C2299 1.355 . S
C2300 C2302 1.419 . S
C2301 C2296 1.425 . S
C2301 C2298 1.409 . S
C2301 C2299 1.415 . S
C2302 H2292 0.930 . S
C2302 C2300 1.419 . S
C2302 C2303 1.362 . S
C2303 H2293 0.930 . S
C2303 C2296 1.409 . S
C2303 C2302 1.362 . S
H2304 C2310 0.930 . S
H2305 C2313 0.930 . S
H2306 C2314 0.930 . S
H2307 C2315 0.930 . S
H2308 C2318 0.930 . S
H2309 C2319 0.930 . S
C2310 H2304 0.930 . S
C2310 C2311 1.355 1_554 S
C2310 C2312 1.415 . S
C2311 C2310 1.355 1_556 S
C2311 C2313 1.419 . S
C2312 C2310 1.415 . S
C2312 C2317 1.425 1_554 S
C2312 C2319 1.409 . S
C2313 H2305 0.930 . S
C2313 C2311 1.419 . S
C2313 C2314 1.362 . S
C2314 H2306 0.930 . S
C2314 C2313 1.362 . S
C2314 C2317 1.409 . S
C2315 H2307 0.930 . S
C2315 C2316 1.355 1_556 S
C2315 C2317 1.415 . S
C2316 C2315 1.355 1_554 S
C2316 C2318 1.419 . S
C2317 C2312 1.425 1_556 S
C2317 C2314 1.409 . S
C2317 C2315 1.415 . S
C2318 H2308 0.930 . S
C2318 C2316 1.419 . S
C2318 C2319 1.362 . S
C2319 H2309 0.930 . S
C2319 C2312 1.409 . S
C2319 C2318 1.362 . S
H2320 C2326 0.930 . S
H2321 C2329 0.930 . S
H2322 C2330 0.930 . S
H2323 C2331 0.930 . S
H2324 C2334 0.930 . S
H2325 C2335 0.930 . S
C2326 H2320 0.930 . S
C2326 C2327 1.355 . S
C2326 C2328 1.415 . S
C2327 C2326 1.355 . S
C2327 C2329 1.419 . S
C2328 C2326 1.415 . S
C2328 C2333 1.425 . S
C2328 C2335 1.409 . S
C2329 H2321 0.930 . S
C2329 C2327 1.419 . S
C2329 C2330 1.362 . S
C2330 H2322 0.930 . S
C2330 C2329 1.362 . S
C2330 C2333 1.409 . S
C2331 H2323 0.930 . S
C2331 C2332 1.355 . S
C2331 C2333 1.415 . S
C2332 C2331 1.355 . S
C2332 C2334 1.419 . S
C2333 C2328 1.425 . S
C2333 C2330 1.409 . S
C2333 C2331 1.415 . S
C2334 H2324 0.930 . S
C2334 C2332 1.419 . S
C2334 C2335 1.362 . S
C2335 H2325 0.930 . S
C2335 C2328 1.409 . S
C2335 C2334 1.362 . S
H2336 C2342 0.930 . S
H2337 C2345 0.930 . S
H2338 C2346 0.930 . S
H2339 C2347 0.930 . S
H2340 C2350 0.930 . S
H2341 C2351 0.930 . S
C2342 H2336 0.930 . S
C2342 C2343 1.355 1_556 S
C2342 C2344 1.415 . S
C2343 C2342 1.355 1_554 S
C2343 C2345 1.419 . S
C2344 C2342 1.415 . S
C2344 C2349 1.425 1_556 S
C2344 C2351 1.409 . S
C2345 H2337 0.930 . S
C2345 C2343 1.419 . S
C2345 C2346 1.362 . S
C2346 H2338 0.930 . S
C2346 C2345 1.362 . S
C2346 C2349 1.409 . S
C2347 H2339 0.930 . S
C2347 C2348 1.355 1_554 S
C2347 C2349 1.415 . S
C2348 C2347 1.355 1_556 S
C2348 C2350 1.419 . S
C2349 C2344 1.425 1_554 S
C2349 C2346 1.409 . S
C2349 C2347 1.415 . S
C2350 H2340 0.930 . S
C2350 C2348 1.419 . S
C2350 C2351 1.362 . S
C2351 H2341 0.930 . S
C2351 C2344 1.409 . S
C2351 C2350 1.362 . S
H2352 C2358 0.930 . S
H2353 C2361 0.930 . S
H2354 C2362 0.930 . S
H2355 C2363 0.930 . S
H2356 C2366 0.930 . S
H2357 C2367 0.930 . S
C2358 H2352 0.930 . S
C2358 C2359 1.355 . S
C2358 C2360 1.415 . S
C2359 C2358 1.355 . S
C2359 C2361 1.419 . S
C2360 C2358 1.415 . S
C2360 C2365 1.425 . S
C2360 C2367 1.409 . S
C2361 H2353 0.930 . S
C2361 C2359 1.419 . S
C2361 C2362 1.362 . S
C2362 H2354 0.930 . S
C2362 C2361 1.362 . S
C2362 C2365 1.409 . S
C2363 H2355 0.930 . S
C2363 C2364 1.355 . S
C2363 C2365 1.415 . S
C2364 C2363 1.355 . S
C2364 C2366 1.419 . S
C2365 C2360 1.425 . S
C2365 C2362 1.409 . S
C2365 C2363 1.415 . S
C2366 H2356 0.930 . S
C2366 C2364 1.419 . S
C2366 C2367 1.362 . S
C2367 H2357 0.930 . S
C2367 C2360 1.409 . S
C2367 C2366 1.362 . S
H2368 C2374 0.930 . S
H2369 C2377 0.930 . S
H2370 C2378 0.930 . S
H2371 C2379 0.930 . S
H2372 C2382 0.930 . S
H2373 C2383 0.930 . S
C2374 H2368 0.930 . S
C2374 C2375 1.355 1_554 S
C2374 C2376 1.415 . S
C2375 C2374 1.355 1_556 S
C2375 C2377 1.419 . S
C2376 C2374 1.415 . S
C2376 C2381 1.425 1_554 S
C2376 C2383 1.409 . S
C2377 H2369 0.930 . S
C2377 C2375 1.419 . S
C2377 C2378 1.362 . S
C2378 H2370 0.930 . S
C2378 C2377 1.362 . S
C2378 C2381 1.409 . S
C2379 H2371 0.930 . S
C2379 C2380 1.355 1_556 S
C2379 C2381 1.415 . S
C2380 C2379 1.355 1_554 S
C2380 C2382 1.419 . S
C2381 C2376 1.425 1_556 S
C2381 C2378 1.409 . S
C2381 C2379 1.415 . S
C2382 H2372 0.930 . S
C2382 C2380 1.419 . S
C2382 C2383 1.362 . S
C2383 H2373 0.930 . S
C2383 C2376 1.409 . S
C2383 C2382 1.362 . S
H2384 C2390 0.930 . S
H2385 C2393 0.930 . S
H2386 C2394 0.930 . S
H2387 C2395 0.930 . S
H2388 C2398 0.930 . S
H2389 C2399 0.930 . S
C2390 H2384 0.930 . S
C2390 C2391 1.355 . S
C2390 C2392 1.415 . S
C2391 C2390 1.355 . S
C2391 C2393 1.419 . S
C2392 C2390 1.415 . S
C2392 C2397 1.425 . S
C2392 C2399 1.409 . S
C2393 H2385 0.930 . S
C2393 C2391 1.419 . S
C2393 C2394 1.362 . S
C2394 H2386 0.930 . S
C2394 C2393 1.362 . S
C2394 C2397 1.409 . S
C2395 H2387 0.930 . S
C2395 C2396 1.355 . S
C2395 C2397 1.415 . S
C2396 C2395 1.355 . S
C2396 C2398 1.419 . S
C2397 C2392 1.425 . S
C2397 C2394 1.409 . S
C2397 C2395 1.415 . S
C2398 H2388 0.930 . S
C2398 C2396 1.419 . S
C2398 C2399 1.362 . S
C2399 H2389 0.930 . S
C2399 C2392 1.409 . S
C2399 C2398 1.362 . S
H2400 C2406 0.930 . S
H2401 C2409 0.930 . S
H2402 C2410 0.930 . S
H2403 C2411 0.930 . S
H2404 C2414 0.930 . S
H2405 C2415 0.930 . S
C2406 H2400 0.930 . S
C2406 C2407 1.355 . S
C2406 C2408 1.415 . S
C2407 C2406 1.355 . S
C2407 C2409 1.419 1_554 S
C2408 C2406 1.415 . S
C2408 C2413 1.425 1_554 S
C2408 C2415 1.409 . S
C2409 H2401 0.930 . S
C2409 C2407 1.419 1_556 S
C2409 C2410 1.362 . S
C2410 H2402 0.930 . S
C2410 C2409 1.362 . S
C2410 C2413 1.409 . S
C2411 H2403 0.930 . S
C2411 C2412 1.355 . S
C2411 C2413 1.415 . S
C2412 C2411 1.355 . S
C2412 C2414 1.419 1_556 S
C2413 C2408 1.425 1_556 S
C2413 C2410 1.409 . S
C2413 C2411 1.415 . S
C2414 H2404 0.930 . S
C2414 C2412 1.419 1_554 S
C2414 C2415 1.362 . S
C2415 H2405 0.930 . S
C2415 C2408 1.409 . S
C2415 C2414 1.362 . S
H2416 C2422 0.930 . S
H2417 C2425 0.930 . S
H2418 C2426 0.930 . S
H2419 C2427 0.930 . S
H2420 C2430 0.930 . S
H2421 C2431 0.930 . S
C2422 H2416 0.930 . S
C2422 C2423 1.355 . S
C2422 C2424 1.415 . S
C2423 C2422 1.355 . S
C2423 C2425 1.419 . S
C2424 C2422 1.415 . S
C2424 C2429 1.425 . S
C2424 C2431 1.409 . S
C2425 H2417 0.930 . S
C2425 C2423 1.419 . S
C2425 C2426 1.362 . S
C2426 H2418 0.930 . S
C2426 C2425 1.362 . S
C2426 C2429 1.409 . S
C2427 H2419 0.930 . S
C2427 C2428 1.355 . S
C2427 C2429 1.415 . S
C2428 C2427 1.355 . S
C2428 C2430 1.419 . S
C2429 C2424 1.425 . S
C2429 C2426 1.409 . S
C2429 C2427 1.415 . S
C2430 H2420 0.930 . S
C2430 C2428 1.419 . S
C2430 C2431 1.362 . S
C2431 H2421 0.930 . S
C2431 C2424 1.409 . S
C2431 C2430 1.362 . S
H2432 C2438 0.930 1_554 S
H2433 C2441 0.930 . S
H2434 C2442 0.930 . S
H2435 C2443 0.930 1_556 S
H2436 C2446 0.930 . S
H2437 C2447 0.930 . S
C2438 H2432 0.930 1_556 S
C2438 C2439 1.355 . S
C2438 C2440 1.415 1_556 S
C2439 C2438 1.355 . S
C2439 C2441 1.419 . S
C2440 C2438 1.415 1_554 S
C2440 C2445 1.425 1_554 S
C2440 C2447 1.409 . S
C2441 H2433 0.930 . S
C2441 C2439 1.419 . S
C2441 C2442 1.362 . S
C2442 H2434 0.930 . S
C2442 C2441 1.362 . S
C2442 C2445 1.409 . S
C2443 H2435 0.930 1_554 S
C2443 C2444 1.355 . S
C2443 C2445 1.415 1_554 S
C2444 C2443 1.355 . S
C2444 C2446 1.419 . S
C2445 C2440 1.425 1_556 S
C2445 C2442 1.409 . S
C2445 C2443 1.415 1_556 S
C2446 H2436 0.930 . S
C2446 C2444 1.419 . S
C2446 C2447 1.362 . S
C2447 H2437 0.930 . S
C2447 C2440 1.409 . S
C2447 C2446 1.362 . S
H2448 C2454 0.930 . S
H2449 C2457 0.930 . S
H2450 C2458 0.930 . S
H2451 C2459 0.930 . S
H2452 C2462 0.930 . S
H2453 C2463 0.930 . S
C2454 H2448 0.930 . S
C2454 C2455 1.355 . S
C2454 C2456 1.415 . S
C2455 C2454 1.355 . S
C2455 C2457 1.419 . S
C2456 C2454 1.415 . S
C2456 C2461 1.425 . S
C2456 C2463 1.409 . S
C2457 H2449 0.930 . S
C2457 C2455 1.419 . S
C2457 C2458 1.362 . S
C2458 H2450 0.930 . S
C2458 C2457 1.362 . S
C2458 C2461 1.409 . S
C2459 H2451 0.930 . S
C2459 C2460 1.355 . S
C2459 C2461 1.415 . S
C2460 C2459 1.355 . S
C2460 C2462 1.419 . S
C2461 C2456 1.425 . S
C2461 C2458 1.409 . S
C2461 C2459 1.415 . S
C2462 H2452 0.930 . S
C2462 C2460 1.419 . S
C2462 C2463 1.362 . S
C2463 H2453 0.930 . S
C2463 C2456 1.409 . S
C2463 C2462 1.362 . S
H2464 C2470 0.930 . S
H2465 C2473 0.930 . S
H2466 C2474 0.930 . S
H2467 C2475 0.930 . S
H2468 C2478 0.930 . S
H2469 C2479 0.930 . S
C2470 H2464 0.930 . S
C2470 C2471 1.355 . S
C2470 C2472 1.415 . S
C2471 C2470 1.355 . S
C2471 C2473 1.419 . S
C2472 C2470 1.415 . S
C2472 C2477 1.425 1_556 S
C2472 C2479 1.409 . S
C2473 H2465 0.930 . S
C2473 C2471 1.419 . S
C2473 C2474 1.362 1_556 S
C2474 H2466 0.930 . S
C2474 C2473 1.362 1_554 S
C2474 C2477 1.409 . S
C2475 H2467 0.930 . S
C2475 C2476 1.355 . S
C2475 C2477 1.415 . S
C2476 C2475 1.355 . S
C2476 C2478 1.419 . S
C2477 C2472 1.425 1_554 S
C2477 C2474 1.409 . S
C2477 C2475 1.415 . S
C2478 H2468 0.930 . S
C2478 C2476 1.419 . S
C2478 C2479 1.362 1_554 S
C2479 H2469 0.930 . S
C2479 C2472 1.409 . S
C2479 C2478 1.362 1_556 S
H2480 C2486 0.930 . S
H2481 C2489 0.930 . S
H2482 C2490 0.930 . S
H2483 C2491 0.930 . S
H2484 C2494 0.930 . S
H2485 C2495 0.930 . S
C2486 H2480 0.930 . S
C2486 C2487 1.355 . S
C2486 C2488 1.415 . S
C2487 C2486 1.355 . S
C2487 C2489 1.419 . S
C2488 C2486 1.415 . S
C2488 C2493 1.425 . S
C2488 C2495 1.409 . S
C2489 H2481 0.930 . S
C2489 C2487 1.419 . S
C2489 C2490 1.362 . S
C2490 H2482 0.930 . S
C2490 C2489 1.362 . S
C2490 C2493 1.409 . S
C2491 H2483 0.930 . S
C2491 C2492 1.355 . S
C2491 C2493 1.415 . S
C2492 C2491 1.355 . S
C2492 C2494 1.419 . S
C2493 C2488 1.425 . S
C2493 C2490 1.409 . S
C2493 C2491 1.415 . S
C2494 H2484 0.930 . S
C2494 C2492 1.419 . S
C2494 C2495 1.362 . S
C2495 H2485 0.930 . S
C2495 C2488 1.409 . S
C2495 C2494 1.362 . S
H2496 C2502 0.930 . S
H2497 C2505 0.930 . S
H2498 C2506 0.930 . S
H2499 C2507 0.930 . S
H2500 C2510 0.930 . S
H2501 C2511 0.930 . S
C2502 H2496 0.930 . S
C2502 C2503 1.355 . S
C2502 C2504 1.415 . S
C2503 C2502 1.355 . S
C2503 C2505 1.419 . S
C2504 C2502 1.415 . S
C2504 C2509 1.425 . S
C2504 C2511 1.409 . S
C2505 H2497 0.930 . S
C2505 C2503 1.419 . S
C2505 C2506 1.362 . S
C2506 H2498 0.930 . S
C2506 C2505 1.362 . S
C2506 C2509 1.409 . S
C2507 H2499 0.930 . S
C2507 C2508 1.355 . S
C2507 C2509 1.415 . S
C2508 C2507 1.355 . S
C2508 C2510 1.419 . S
C2509 C2504 1.425 . S
C2509 C2506 1.409 . S
C2509 C2507 1.415 . S
C2510 H2500 0.930 . S
C2510 C2508 1.419 . S
C2510 C2511 1.362 . S
C2511 H2501 0.930 . S
C2511 C2504 1.409 . S
C2511 C2510 1.362 . S
H2512 C2518 0.930 . S
H2513 C2521 0.930 . S
H2514 C2522 0.930 . S
H2515 C2523 0.930 . S
H2516 C2526 0.930 . S
H2517 C2527 0.930 . S
C2518 H2512 0.930 . S
C2518 C2519 1.355 . S
C2518 C2520 1.415 . S
C2519 C2518 1.355 . S
C2519 C2521 1.419 . S
C2520 C2518 1.415 . S
C2520 C2525 1.425 1_455 S
C2520 C2527 1.409 1_455 S
C2521 H2513 0.930 . S
C2521 C2519 1.419 . S
C2521 C2522 1.362 . S
C2522 H2514 0.930 . S
C2522 C2521 1.362 . S
C2522 C2525 1.409 1_455 S
C2523 H2515 0.930 . S
C2523 C2524 1.355 . S
C2523 C2525 1.415 . S
C2524 C2523 1.355 . S
C2524 C2526 1.419 . S
C2525 C2520 1.425 1_655 S
C2525 C2522 1.409 1_655 S
C2525 C2523 1.415 . S
C2526 H2516 0.930 . S
C2526 C2524 1.419 . S
C2526 C2527 1.362 . S
C2527 H2517 0.930 . S
C2527 C2520 1.409 1_655 S
C2527 C2526 1.362 . S
H2528 C2534 0.930 . S
H2529 C2537 0.930 . S
H2530 C2538 0.930 . S
H2531 C2539 0.930 . S
H2532 C2542 0.930 . S
H2533 C2543 0.930 1_556 S
C2534 H2528 0.930 . S
C2534 C2535 1.355 . S
C2534 C2536 1.415 . S
C2535 C2534 1.355 . S
C2535 C2537 1.419 . S
C2536 C2534 1.415 . S
C2536 C2541 1.425 1_565 S
C2536 C2543 1.409 1_565 S
C2537 H2529 0.930 . S
C2537 C2535 1.419 . S
C2537 C2538 1.362 . S
C2538 H2530 0.930 . S
C2538 C2537 1.362 . S
C2538 C2541 1.409 1_565 S
C2539 H2531 0.930 . S
C2539 C2540 1.355 . S
C2539 C2541 1.415 . S
C2540 C2539 1.355 . S
C2540 C2542 1.419 . S
C2541 C2536 1.425 1_545 S
C2541 C2538 1.409 1_545 S
C2541 C2539 1.415 . S
C2542 H2532 0.930 . S
C2542 C2540 1.419 . S
C2542 C2543 1.362 . S
C2543 H2533 0.930 1_554 S
C2543 C2536 1.409 1_545 S
C2543 C2542 1.362 . S
H2544 C2550 0.930 . S
H2545 C2553 0.930 . S
H2546 C2554 0.930 . S
H2547 C2555 0.930 . S
H2548 C2558 0.930 . S
H2549 C2559 0.930 . S
C2550 H2544 0.930 . S
C2550 C2551 1.355 . S
C2550 C2552 1.415 . S
C2551 C2550 1.355 . S
C2551 C2553 1.419 . S
C2552 C2550 1.415 . S
C2552 C2557 1.425 . S
C2552 C2559 1.409 . S
C2553 H2545 0.930 . S
C2553 C2551 1.419 . S
C2553 C2554 1.362 . S
C2554 H2546 0.930 . S
C2554 C2553 1.362 . S
C2554 C2557 1.409 . S
C2555 H2547 0.930 . S
C2555 C2556 1.355 . S
C2555 C2557 1.415 . S
C2556 C2555 1.355 . S
C2556 C2558 1.419 . S
C2557 C2552 1.425 . S
C2557 C2554 1.409 . S
C2557 C2555 1.415 . S
C2558 H2548 0.930 . S
C2558 C2556 1.419 . S
C2558 C2559 1.362 . S
C2559 H2549 0.930 . S
C2559 C2552 1.409 . S
C2559 C2558 1.362 . S
H2560 C2566 0.930 . S
H2561 C2569 0.930 . S
H2562 C2570 0.930 1_556 S
H2563 C2571 0.930 . S
H2564 C2574 0.930 . S
H2565 C2575 0.930 . S
C2566 H2560 0.930 . S
C2566 C2567 1.355 . S
C2566 C2568 1.415 . S
C2567 C2566 1.355 . S
C2567 C2569 1.419 . S
C2568 C2566 1.415 . S
C2568 C2573 1.425 1_655 S
C2568 C2575 1.409 1_655 S
C2569 H2561 0.930 . S
C2569 C2567 1.419 . S
C2569 C2570 1.362 . S
C2570 H2562 0.930 1_554 S
C2570 C2569 1.362 . S
C2570 C2573 1.409 1_655 S
C2571 H2563 0.930 . S
C2571 C2572 1.355 . S
C2571 C2573 1.415 . S
C2572 C2571 1.355 . S
C2572 C2574 1.419 . S
C2573 C2568 1.425 1_455 S
C2573 C2570 1.409 1_455 S
C2573 C2571 1.415 . S
C2574 H2564 0.930 . S
C2574 C2572 1.419 . S
C2574 C2575 1.362 . S
C2575 H2565 0.930 . S
C2575 C2568 1.409 1_455 S
C2575 C2574 1.362 . S
H2576 C2582 0.930 . S
H2577 C2585 0.930 . S
H2578 C2586 0.930 . S
H2579 C2587 0.930 . S
H2580 C2590 0.930 . S
H2581 C2591 0.930 . S
C2582 H2576 0.930 . S
C2582 C2583 1.355 . S
C2582 C2584 1.415 . S
C2583 C2582 1.355 . S
C2583 C2585 1.419 . S
C2584 C2582 1.415 . S
C2584 C2589 1.425 1_545 S
C2584 C2591 1.409 1_545 S
C2585 H2577 0.930 . S
C2585 C2583 1.419 . S
C2585 C2586 1.362 . S
C2586 H2578 0.930 . S
C2586 C2585 1.362 . S
C2586 C2589 1.409 1_545 S
C2587 H2579 0.930 . S
C2587 C2588 1.355 . S
C2587 C2589 1.415 . S
C2588 C2587 1.355 . S
C2588 C2590 1.419 . S
C2589 C2584 1.425 1_565 S
C2589 C2586 1.409 1_565 S
C2589 C2587 1.415 . S
C2590 H2580 0.930 . S
C2590 C2588 1.419 . S
C2590 C2591 1.362 . S
C2591 H2581 0.930 . S
C2591 C2584 1.409 1_565 S
C2591 C2590 1.362 . S
H2592 C2598 0.930 . S
H2593 C2601 0.930 . S
H2594 C2602 0.930 . S
H2595 C2603 0.930 . S
H2596 C2606 0.930 . S
H2597 C2607 0.930 . S
C2598 H2592 0.930 . S
C2598 C2599 1.355 . S
C2598 C2600 1.415 . S
C2599 C2598 1.355 . S
C2599 C2601 1.419 . S
C2600 C2598 1.415 . S
C2600 C2605 1.425 . S
C2600 C2607 1.409 . S
C2601 H2593 0.930 . S
C2601 C2599 1.419 . S
C2601 C2602 1.362 . S
C2602 H2594 0.930 . S
C2602 C2601 1.362 . S
C2602 C2605 1.409 . S
C2603 H2595 0.930 . S
C2603 C2604 1.355 . S
C2603 C2605 1.415 . S
C2604 C2603 1.355 . S
C2604 C2606 1.419 . S
C2605 C2600 1.425 . S
C2605 C2602 1.409 . S
C2605 C2603 1.415 . S
C2606 H2596 0.930 . S
C2606 C2604 1.419 . S
C2606 C2607 1.362 . S
C2607 H2597 0.930 . S
C2607 C2600 1.409 . S
C2607 C2606 1.362 . S
H2608 C2614 0.930 . S
H2609 C2617 0.930 . S
H2610 C2618 0.930 . S
H2611 C2619 0.930 . S
H2612 C2622 0.930 . S
H2613 C2623 0.930 . S
C2614 H2608 0.930 . S
C2614 C2615 1.355 . S
C2614 C2616 1.415 . S
C2615 C2614 1.355 . S
C2615 C2617 1.419 . S
C2616 C2614 1.415 . S
C2616 C2621 1.425 1_655 S
C2616 C2623 1.409 1_655 S
C2617 H2609 0.930 . S
C2617 C2615 1.419 . S
C2617 C2618 1.362 . S
C2618 H2610 0.930 . S
C2618 C2617 1.362 . S
C2618 C2621 1.409 1_655 S
C2619 H2611 0.930 . S
C2619 C2620 1.355 . S
C2619 C2621 1.415 . S
C2620 C2619 1.355 . S
C2620 C2622 1.419 . S
C2621 C2616 1.425 1_455 S
C2621 C2618 1.409 1_455 S
C2621 C2619 1.415 . S
C2622 H2612 0.930 . S
C2622 C2620 1.419 . S
C2622 C2623 1.362 . S
C2623 H2613 0.930 . S
C2623 C2616 1.409 1_455 S
C2623 C2622 1.362 . S
H2624 C2630 0.930 . S
H2625 C2633 0.930 . S
H2626 C2634 0.930 . S
H2627 C2635 0.930 . S
H2628 C2638 0.930 . S
H2629 C2639 0.930 . S
C2630 H2624 0.930 . S
C2630 C2631 1.355 . S
C2630 C2632 1.415 . S
C2631 C2630 1.355 . S
C2631 C2633 1.419 . S
C2632 C2630 1.415 . S
C2632 C2637 1.425 1_545 S
C2632 C2639 1.409 1_545 S
C2633 H2625 0.930 . S
C2633 C2631 1.419 . S
C2633 C2634 1.362 . S
C2634 H2626 0.930 . S
C2634 C2633 1.362 . S
C2634 C2637 1.409 1_545 S
C2635 H2627 0.930 . S
C2635 C2636 1.355 . S
C2635 C2637 1.415 . S
C2636 C2635 1.355 . S
C2636 C2638 1.419 . S
C2637 C2632 1.425 1_565 S
C2637 C2634 1.409 1_565 S
C2637 C2635 1.415 . S
C2638 H2628 0.930 . S
C2638 C2636 1.419 . S
C2638 C2639 1.362 . S
C2639 H2629 0.930 . S
C2639 C2632 1.409 1_565 S
C2639 C2638 1.362 . S
H2640 C2646 0.930 . S
H2641 C2649 0.930 . S
H2642 C2650 0.930 . S
H2643 C2651 0.930 . S
H2644 C2654 0.930 . S
H2645 C2655 0.930 . S
C2646 H2640 0.930 . S
C2646 C2647 1.355 . S
C2646 C2648 1.415 . S
C2647 C2646 1.355 . S
C2647 C2649 1.419 . S
C2648 C2646 1.415 . S
C2648 C2653 1.425 . S
C2648 C2655 1.409 . S
C2649 H2641 0.930 . S
C2649 C2647 1.419 . S
C2649 C2650 1.362 . S
C2650 H2642 0.930 . S
C2650 C2649 1.362 . S
C2650 C2653 1.409 . S
C2651 H2643 0.930 . S
C2651 C2652 1.355 . S
C2651 C2653 1.415 . S
C2652 C2651 1.355 . S
C2652 C2654 1.419 . S
C2653 C2648 1.425 . S
C2653 C2650 1.409 . S
C2653 C2651 1.415 . S
C2654 H2644 0.930 . S
C2654 C2652 1.419 . S
C2654 C2655 1.362 . S
C2655 H2645 0.930 . S
C2655 C2648 1.409 . S
C2655 C2654 1.362 . S
H2656 C2662 0.930 . S
H2657 C2665 0.930 . S
H2658 C2666 0.930 . S
H2659 C2667 0.930 . S
H2660 C2670 0.930 . S
H2661 C2671 0.930 . S
C2662 H2656 0.930 . S
C2662 C2663 1.355 . S
C2662 C2664 1.415 . S
C2663 C2662 1.355 . S
C2663 C2665 1.419 . S
C2664 C2662 1.415 . S
C2664 C2669 1.425 1_455 S
C2664 C2671 1.409 1_455 S
C2665 H2657 0.930 . S
C2665 C2663 1.419 . S
C2665 C2666 1.362 . S
C2666 H2658 0.930 . S
C2666 C2665 1.362 . S
C2666 C2669 1.409 1_455 S
C2667 H2659 0.930 . S
C2667 C2668 1.355 . S
C2667 C2669 1.415 . S
C2668 C2667 1.355 . S
C2668 C2670 1.419 . S
C2669 C2664 1.425 1_655 S
C2669 C2666 1.409 1_655 S
C2669 C2667 1.415 . S
C2670 H2660 0.930 . S
C2670 C2668 1.419 . S
C2670 C2671 1.362 . S
C2671 H2661 0.930 . S
C2671 C2664 1.409 1_655 S
C2671 C2670 1.362 . S
H2672 C2678 0.930 . S
H2673 C2681 0.930 . S
H2674 C2682 0.930 . S
H2675 C2683 0.930 . S
H2676 C2686 0.930 . S
H2677 C2687 0.930 . S
C2678 H2672 0.930 . S
C2678 C2679 1.355 . S
C2678 C2680 1.415 . S
C2679 C2678 1.355 . S
C2679 C2681 1.419 . S
C2680 C2678 1.415 . S
C2680 C2685 1.425 1_565 S
C2680 C2687 1.409 1_565 S
C2681 H2673 0.930 . S
C2681 C2679 1.419 . S
C2681 C2682 1.362 . S
C2682 H2674 0.930 . S
C2682 C2681 1.362 . S
C2682 C2685 1.409 1_565 S
C2683 H2675 0.930 . S
C2683 C2684 1.355 . S
C2683 C2685 1.415 . S
C2684 C2683 1.355 . S
C2684 C2686 1.419 . S
C2685 C2680 1.425 1_545 S
C2685 C2682 1.409 1_545 S
C2685 C2683 1.415 . S
C2686 H2676 0.930 . S
C2686 C2684 1.419 . S
C2686 C2687 1.362 . S
C2687 H2677 0.930 . S
C2687 C2680 1.409 1_545 S
C2687 C2686 1.362 . S
H2688 C2694 0.930 . S
H2689 C2697 0.930 . S
H2690 C2698 0.930 . S
H2691 C2699 0.930 . S
H2692 C2702 0.930 . S
H2693 C2703 0.930 . S
C2694 H2688 0.930 . S
C2694 C2695 1.355 . S
C2694 C2696 1.415 . S
C2695 C2694 1.355 . S
C2695 C2697 1.419 . S
C2696 C2694 1.415 . S
C2696 C2701 1.425 1_556 S
C2696 C2703 1.409 . S
C2697 H2689 0.930 . S
C2697 C2695 1.419 . S
C2697 C2698 1.362 1_556 S
C2698 H2690 0.930 . S
C2698 C2697 1.362 1_554 S
C2698 C2701 1.409 . S
C2699 H2691 0.930 . S
C2699 C2700 1.355 . S
C2699 C2701 1.415 . S
C2700 C2699 1.355 . S
C2700 C2702 1.419 . S
C2701 C2696 1.425 1_554 S
C2701 C2698 1.409 . S
C2701 C2699 1.415 . S
C2702 H2692 0.930 . S
C2702 C2700 1.419 . S
C2702 C2703 1.362 1_554 S
C2703 H2693 0.930 . S
C2703 C2696 1.409 . S
C2703 C2702 1.362 1_556 S
H2704 C2710 0.930 . S
H2705 C2713 0.930 . S
H2706 C2714 0.930 . S
H2707 C2715 0.930 . S
H2708 C2718 0.930 . S
H2709 C2719 0.930 . S
C2710 H2704 0.930 . S
C2710 C2711 1.355 . S
C2710 C2712 1.415 . S
C2711 C2710 1.355 . S
C2711 C2713 1.419 . S
C2712 C2710 1.415 . S
C2712 C2717 1.425 . S
C2712 C2719 1.409 . S
C2713 H2705 0.930 . S
C2713 C2711 1.419 . S
C2713 C2714 1.362 . S
C2714 H2706 0.930 . S
C2714 C2713 1.362 . S
C2714 C2717 1.409 . S
C2715 H2707 0.930 . S
C2715 C2716 1.355 . S
C2715 C2717 1.415 . S
C2716 C2715 1.355 . S
C2716 C2718 1.419 . S
C2717 C2712 1.425 . S
C2717 C2714 1.409 . S
C2717 C2715 1.415 . S
C2718 H2708 0.930 . S
C2718 C2716 1.419 . S
C2718 C2719 1.362 . S
C2719 H2709 0.930 . S
C2719 C2712 1.409 . S
C2719 C2718 1.362 . S
H2720 C2726 0.930 . S
H2721 C2729 0.930 . S
H2722 C2730 0.930 . S
H2723 C2731 0.930 . S
H2724 C2734 0.930 . S
H2725 C2735 0.930 . S
C2726 H2720 0.930 . S
C2726 C2727 1.355 1_554 S
C2726 C2728 1.415 . S
C2727 C2726 1.355 1_556 S
C2727 C2729 1.419 . S
C2728 C2726 1.415 . S
C2728 C2733 1.425 1_554 S
C2728 C2735 1.409 . S
C2729 H2721 0.930 . S
C2729 C2727 1.419 . S
C2729 C2730 1.362 . S
C2730 H2722 0.930 . S
C2730 C2729 1.362 . S
C2730 C2733 1.409 . S
C2731 H2723 0.930 . S
C2731 C2732 1.355 1_556 S
C2731 C2733 1.415 . S
C2732 C2731 1.355 1_554 S
C2732 C2734 1.419 . S
C2733 C2728 1.425 1_556 S
C2733 C2730 1.409 . S
C2733 C2731 1.415 . S
C2734 H2724 0.930 . S
C2734 C2732 1.419 . S
C2734 C2735 1.362 . S
C2735 H2725 0.930 . S
C2735 C2728 1.409 . S
C2735 C2734 1.362 . S
H2736 C2742 0.930 . S
H2737 C2745 0.930 . S
H2738 C2746 0.930 . S
H2739 C2747 0.930 . S
H2740 C2750 0.930 . S
H2741 C2751 0.930 . S
C2742 H2736 0.930 . S
C2742 C2743 1.355 . S
C2742 C2744 1.415 . S
C2743 C2742 1.355 . S
C2743 C2745 1.419 . S
C2744 C2742 1.415 . S
C2744 C2749 1.425 . S
C2744 C2751 1.409 . S
C2745 H2737 0.930 . S
C2745 C2743 1.419 . S
C2745 C2746 1.362 . S
C2746 H2738 0.930 . S
C2746 C2745 1.362 . S
C2746 C2749 1.409 . S
C2747 H2739 0.930 . S
C2747 C2748 1.355 . S
C2747 C2749 1.415 . S
C2748 C2747 1.355 . S
C2748 C2750 1.419 . S
C2749 C2744 1.425 . S
C2749 C2746 1.409 . S
C2749 C2747 1.415 . S
C2750 H2740 0.930 . S
C2750 C2748 1.419 . S
C2750 C2751 1.362 . S
C2751 H2741 0.930 . S
C2751 C2744 1.409 . S
C2751 C2750 1.362 . S
H2752 C2758 0.930 . S
H2753 C2761 0.930 . S
H2754 C2762 0.929 1_554 S
H2755 C2763 0.930 . S
H2756 C2766 0.930 . S
H2757 C2767 0.929 1_556 S
C2758 H2752 0.930 . S
C2758 C2759 1.355 . S
C2758 C2760 1.415 . S
C2759 C2758 1.355 . S
C2759 C2761 1.419 . S
C2760 C2758 1.415 . S
C2760 C2765 1.425 1_556 S
C2760 C2767 1.408 1_556 S
C2761 H2753 0.930 . S
C2761 C2759 1.419 . S
C2761 C2762 1.364 . S
C2762 H2754 0.929 1_556 S
C2762 C2761 1.364 . S
C2762 C2765 1.408 1_556 S
C2763 H2755 0.930 . S
C2763 C2764 1.355 . S
C2763 C2765 1.415 . S
C2764 C2763 1.355 . S
C2764 C2766 1.419 . S
C2765 C2760 1.425 1_554 S
C2765 C2762 1.408 1_554 S
C2765 C2763 1.415 . S
C2766 H2756 0.930 . S
C2766 C2764 1.419 . S
C2766 C2767 1.365 . S
C2767 H2757 0.929 1_554 S
C2767 C2760 1.408 1_554 S
C2767 C2766 1.365 . S
H2768 C2774 0.930 . S
H2769 C2777 0.930 . S
H2770 C2778 0.930 . S
H2771 C2779 0.930 . S
H2772 C2782 0.930 . S
H2773 C2783 0.930 . S
C2774 H2768 0.930 . S
C2774 C2775 1.355 . S
C2774 C2776 1.415 . S
C2775 C2774 1.355 . S
C2775 C2777 1.419 . S
C2776 C2774 1.415 . S
C2776 C2781 1.425 . S
C2776 C2783 1.409 . S
C2777 H2769 0.930 . S
C2777 C2775 1.419 . S
C2777 C2778 1.362 . S
C2778 H2770 0.930 . S
C2778 C2777 1.362 . S
C2778 C2781 1.409 . S
C2779 H2771 0.930 . S
C2779 C2780 1.355 . S
C2779 C2781 1.415 . S
C2780 C2779 1.355 . S
C2780 C2782 1.419 . S
C2781 C2776 1.425 . S
C2781 C2778 1.409 . S
C2781 C2779 1.415 . S
C2782 H2772 0.930 . S
C2782 C2780 1.419 . S
C2782 C2783 1.362 . S
C2783 H2773 0.930 . S
C2783 C2776 1.409 . S
C2783 C2782 1.362 . S
H2784 C2790 0.930 . S
H2785 C2793 0.930 . S
H2786 C2794 0.930 . S
H2787 C2795 0.930 . S
H2788 C2798 0.930 . S
H2789 C2799 0.930 . S
C2790 H2784 0.930 . S
C2790 C2791 1.355 1_556 S
C2790 C2792 1.415 . S
C2791 C2790 1.355 1_554 S
C2791 C2793 1.419 . S
C2792 C2790 1.415 . S
C2792 C2797 1.425 1_556 S
C2792 C2799 1.409 . S
C2793 H2785 0.930 . S
C2793 C2791 1.419 . S
C2793 C2794 1.362 . S
C2794 H2786 0.930 . S
C2794 C2793 1.362 . S
C2794 C2797 1.409 . S
C2795 H2787 0.930 . S
C2795 C2796 1.355 1_554 S
C2795 C2797 1.415 . S
C2796 C2795 1.355 1_556 S
C2796 C2798 1.419 . S
C2797 C2792 1.425 1_554 S
C2797 C2794 1.409 . S
C2797 C2795 1.415 . S
C2798 H2788 0.930 . S
C2798 C2796 1.419 . S
C2798 C2799 1.362 . S
C2799 H2789 0.930 . S
C2799 C2792 1.409 . S
C2799 C2798 1.362 . S
H2800 C2806 0.930 . S
H2801 C2809 0.930 . S
H2802 C2810 0.930 . S
H2803 C2811 0.930 . S
H2804 C2814 0.930 . S
H2805 C2815 0.930 . S
C2806 H2800 0.930 . S
C2806 C2807 1.355 . S
C2806 C2808 1.415 . S
C2807 C2806 1.355 . S
C2807 C2809 1.419 . S
C2808 C2806 1.415 . S
C2808 C2813 1.425 . S
C2808 C2815 1.409 . S
C2809 H2801 0.930 . S
C2809 C2807 1.419 . S
C2809 C2810 1.362 . S
C2810 H2802 0.930 . S
C2810 C2809 1.362 . S
C2810 C2813 1.409 . S
C2811 H2803 0.930 . S
C2811 C2812 1.355 . S
C2811 C2813 1.415 . S
C2812 C2811 1.355 . S
C2812 C2814 1.419 . S
C2813 C2808 1.425 . S
C2813 C2810 1.409 . S
C2813 C2811 1.415 . S
C2814 H2804 0.930 . S
C2814 C2812 1.419 . S
C2814 C2815 1.362 . S
C2815 H2805 0.930 . S
C2815 C2808 1.409 . S
C2815 C2814 1.362 . S
H2816 C2822 0.942 . S
H2817 C2825 0.930 . S
H2818 C2826 0.930 . S
H2819 C2827 0.941 . S
H2820 C2830 0.930 . S
H2821 C2831 0.930 . S
C2822 H2816 0.942 . S
C2822 C2823 1.337 1_556 S
C2822 C2824 1.420 . S
C2823 C2822 1.337 1_554 S
C2823 C2825 1.419 . S
C2824 C2822 1.420 . S
C2824 C2829 1.425 1_556 S
C2824 C2831 1.409 . S
C2825 H2817 0.930 . S
C2825 C2823 1.419 . S
C2825 C2826 1.362 . S
C2826 H2818 0.930 . S
C2826 C2825 1.362 . S
C2826 C2829 1.409 . S
C2827 H2819 0.941 . S
C2827 C2828 1.339 1_554 S
C2827 C2829 1.420 . S
C2828 C2827 1.339 1_556 S
C2828 C2830 1.419 . S
C2829 C2824 1.425 1_554 S
C2829 C2826 1.409 . S
C2829 C2827 1.420 . S
C2830 H2820 0.930 . S
C2830 C2828 1.419 . S
C2830 C2831 1.362 . S
C2831 H2821 0.930 . S
C2831 C2824 1.409 . S
C2831 C2830 1.362 . S
H2832 C2838 0.930 . S
H2833 C2841 0.930 . S
H2834 C2842 0.930 . S
H2835 C2843 0.930 . S
H2836 C2846 0.930 . S
H2837 C2847 0.930 . S
C2838 H2832 0.930 . S
C2838 C2839 1.355 . S
C2838 C2840 1.415 . S
C2839 C2838 1.355 . S
C2839 C2841 1.419 . S
C2840 C2838 1.415 . S
C2840 C2845 1.425 . S
C2840 C2847 1.409 . S
C2841 H2833 0.930 . S
C2841 C2839 1.419 . S
C2841 C2842 1.362 . S
C2842 H2834 0.930 . S
C2842 C2841 1.362 . S
C2842 C2845 1.409 . S
C2843 H2835 0.930 . S
C2843 C2844 1.355 . S
C2843 C2845 1.415 . S
C2844 C2843 1.355 . S
C2844 C2846 1.419 . S
C2845 C2840 1.425 . S
C2845 C2842 1.409 . S
C2845 C2843 1.415 . S
C2846 H2836 0.930 . S
C2846 C2844 1.419 . S
C2846 C2847 1.362 . S
C2847 H2837 0.930 . S
C2847 C2840 1.409 . S
C2847 C2846 1.362 . S
H2848 C2854 0.930 . S
H2849 C2857 0.930 . S
H2850 C2858 0.930 . S
H2851 C2859 0.930 . S
H2852 C2862 0.930 . S
H2853 C2863 0.930 . S
C2854 H2848 0.930 . S
C2854 C2855 1.355 . S
C2854 C2856 1.415 . S
C2855 C2854 1.355 . S
C2855 C2857 1.419 . S
C2856 C2854 1.415 . S
C2856 C2861 1.425 1_556 S
C2856 C2863 1.409 . S
C2857 H2849 0.930 . S
C2857 C2855 1.419 . S
C2857 C2858 1.362 1_556 S
C2858 H2850 0.930 . S
C2858 C2857 1.362 1_554 S
C2858 C2861 1.409 . S
C2859 H2851 0.930 . S
C2859 C2860 1.355 . S
C2859 C2861 1.415 . S
C2860 C2859 1.355 . S
C2860 C2862 1.419 . S
C2861 C2856 1.425 1_554 S
C2861 C2858 1.409 . S
C2861 C2859 1.415 . S
C2862 H2852 0.930 . S
C2862 C2860 1.419 . S
C2862 C2863 1.362 1_554 S
C2863 H2853 0.930 . S
C2863 C2856 1.409 . S
C2863 C2862 1.362 1_556 S
H2864 C2870 0.930 . S
H2865 C2873 0.930 . S
H2866 C2874 0.930 . S
H2867 C2875 0.930 . S
H2868 C2878 0.930 . S
H2869 C2879 0.930 . S
C2870 H2864 0.930 . S
C2870 C2871 1.355 . S
C2870 C2872 1.415 . S
C2871 C2870 1.355 . S
C2871 C2873 1.419 . S
C2872 C2870 1.415 . S
C2872 C2877 1.425 . S
C2872 C2879 1.409 . S
C2873 H2865 0.930 . S
C2873 C2871 1.419 . S
C2873 C2874 1.362 . S
C2874 H2866 0.930 . S
C2874 C2873 1.362 . S
C2874 C2877 1.409 . S
C2875 H2867 0.930 . S
C2875 C2876 1.355 . S
C2875 C2877 1.415 . S
C2876 C2875 1.355 . S
C2876 C2878 1.419 . S
C2877 C2872 1.425 . S
C2877 C2874 1.409 . S
C2877 C2875 1.415 . S
C2878 H2868 0.930 . S
C2878 C2876 1.419 . S
C2878 C2879 1.362 . S
C2879 H2869 0.930 . S
C2879 C2872 1.409 . S
C2879 C2878 1.362 . S
C2119 C20 1.519 . S
C2124 C1369 1.530 . S
C2135 C117 1.521 . S
C2140 C1457 1.529 . S
C2151 C1553 1.524 . S
C2156 C205 1.526 . S
C2167 C1105 1.520 . S
C2172 C293 1.532 . S
C2183 C1164 1.518 . S
C2188 C372 1.535 . S
C2199 C1281 1.517 . S
C2204 C460 1.535 . S
C2215 C1868 1.535 . S
C2220 C577 1.513 . S
C2231 C665 1.531 . S
C2236 C1965 1.520 . S
C2247 C2044 1.522 . S
C2252 C753 1.529 . S
C2263 C841 1.516 . S
C2268 C1641 1.533 . S
C2279 C1701 1.533 . S
C2284 C929 1.516 . S
C2295 C1025 1.514 . S
C2300 C1789 1.535 . S
C2311 C909 0.889 . S
C2316 C57 0.912 . S
C2327 C988 0.946 . S
C2332 C137 0.907 . S
C2343 C225 0.902 . S
C2348 C557 0.893 . S
C2359 C313 0.929 . S
C2364 C645 0.892 . S
C2375 C733 0.894 . S
C2380 C409 0.931 . S
C2391 C497 0.952 . S
C2396 C821 0.925 . S
C2407 C1956 0.933 . S
C2412 C1113 0.937 . S
C2423 C1173 0.919 . S
C2428 C2053 0.883 . S
C2439 C1289 0.929 . S
C2444 C1633 0.891 . S
C2455 C1692 0.876 . S
C2460 C1377 0.891 . S
C2471 C1465 0.939 . S
C2476 C1780 0.907 . S
C2487 C1545 0.875 . S
C2492 C1877 0.898 . S
C2503 C29 1.186 . S
C2508 C1604 1.241 . S
C2519 C1721 1.229 . S
C2524 C108 1.201 . S
C2535 C196 1.211 . S
C2540 C1809 1.215 . S
C2551 C284 1.241 . S
C2556 C1905 1.186 . S
C2567 C1985 1.232 . S
C2572 C381 1.194 . S
C2583 C469 1.231 . S
C2588 C2081 1.199 . S
C2599 C585 1.236 . S
C2604 C1085 1.193 . S
C2615 C673 1.195 . S
C2620 C1201 1.231 . S
C2631 C1261 1.212 . S
C2636 C761 1.213 . S
C2647 C1349 1.198 . S
C2652 C849 1.227 . S
C2663 C937 1.240 . S
C2668 C1437 1.187 . S
C2679 C1516 1.188 . S
C2684 C1017 1.238 . S
C2695 C548 1.620 . S
C2700 C49 1.632 . S
C2711 C145 1.625 . S
C2716 C636 1.627 . S
C2727 C724 1.620 . S
C2732 C233 1.632 . S
C2743 C812 1.630 . S
C2748 C321 1.622 . S
C2759 C900 1.633 . S
C2764 C401 1.619 . S
C2775 C489 1.633 . S
C2780 C997 1.619 . S
C2791 C1613 1.627 . S
C2796 C1076 1.617 . S
C2807 C1193 1.626 . S
C2812 C1729 1.618 . S
C2823 C1817 1.630 . S
C2828 C1252 1.615 . S
C2839 C1897 1.614 . S
C2844 C1340 1.630 . S
C2855 C1428 1.630 . S
C2860 C1993 1.615 . S
C2871 C1525 1.626 . S
C2876 C2073 1.619 . S
