# Generated by pormake.
# Topology whw, (6)-cn, num edge types: 1
# Building blocks:
#     Node 0, Type 0, BuildingBlock: BETDEL_clean_sbu_0, # of connection points: 6
#     Node 1, Type 0, BuildingBlock: BETDEL_clean_sbu_0, # of connection points: 6
#     Node 2, Type 0, BuildingBlock: BETDEL_clean_sbu_0, # of connection points: 6
#     Node 3, Type 0, BuildingBlock: BETDEL_clean_sbu_0, # of connection points: 6
#     Node 4, Type 0, BuildingBlock: BETDEL_clean_sbu_0, # of connection points: 6
#     Node 5, Type 0, BuildingBlock: BETDEL_clean_sbu_0, # of connection points: 6
#     Node 6, Type 0, BuildingBlock: BETDEL_clean_sbu_0, # of connection points: 6
#     Node 7, Type 0, BuildingBlock: BETDEL_clean_sbu_0, # of connection points: 6
#     Node 8, Type 0, BuildingBlock: BETDEL_clean_sbu_0, # of connection points: 6
#     Node 9, Type 0, BuildingBlock: BETDEL_clean_sbu_0, # of connection points: 6
#     Node 10, Type 0, BuildingBlock: BETDEL_clean_sbu_0, # of connection points: 6
#     Node 11, Type 0, BuildingBlock: BETDEL_clean_sbu_0, # of connection points: 6
#     Node 12, Type 0, BuildingBlock: BETDEL_clean_sbu_0, # of connection points: 6
#     Node 13, Type 0, BuildingBlock: BETDEL_clean_sbu_0, # of connection points: 6
#     Node 14, Type 0, BuildingBlock: BETDEL_clean_sbu_0, # of connection points: 6
#     Node 15, Type 0, BuildingBlock: BETDEL_clean_sbu_0, # of connection points: 6
#     Edge 16, Type (0, 0), BuildingBlock: EZIPEK_clean_linker_0, # of connection points: 2
#     Edge 17, Type (0, 0), BuildingBlock: EZIPEK_clean_linker_0, # of connection points: 2
#     Edge 18, Type (0, 0), BuildingBlock: EZIPEK_clean_linker_0, # of connection points: 2
#     Edge 19, Type (0, 0), BuildingBlock: EZIPEK_clean_linker_0, # of connection points: 2
#     Edge 20, Type (0, 0), BuildingBlock: EZIPEK_clean_linker_0, # of connection points: 2
#     Edge 21, Type (0, 0), BuildingBlock: EZIPEK_clean_linker_0, # of connection points: 2
#     Edge 22, Type (0, 0), BuildingBlock: EZIPEK_clean_linker_0, # of connection points: 2
#     Edge 23, Type (0, 0), BuildingBlock: EZIPEK_clean_linker_0, # of connection points: 2
#     Edge 24, Type (0, 0), BuildingBlock: EZIPEK_clean_linker_0, # of connection points: 2
#     Edge 25, Type (0, 0), BuildingBlock: EZIPEK_clean_linker_0, # of connection points: 2
#     Edge 26, Type (0, 0), BuildingBlock: EZIPEK_clean_linker_0, # of connection points: 2
#     Edge 27, Type (0, 0), BuildingBlock: EZIPEK_clean_linker_0, # of connection points: 2
#     Edge 28, Type (0, 0), BuildingBlock: EZIPEK_clean_linker_0, # of connection points: 2
#     Edge 29, Type (0, 0), BuildingBlock: EZIPEK_clean_linker_0, # of connection points: 2
#     Edge 30, Type (0, 0), BuildingBlock: EZIPEK_clean_linker_0, # of connection points: 2
#     Edge 31, Type (0, 0), BuildingBlock: EZIPEK_clean_linker_0, # of connection points: 2
#     Edge 32, Type (0, 0), BuildingBlock: EZIPEK_clean_linker_0, # of connection points: 2
#     Edge 33, Type (0, 0), BuildingBlock: EZIPEK_clean_linker_0, # of connection points: 2
#     Edge 34, Type (0, 0), BuildingBlock: EZIPEK_clean_linker_0, # of connection points: 2
#     Edge 35, Type (0, 0), BuildingBlock: EZIPEK_clean_linker_0, # of connection points: 2
#     Edge 36, Type (0, 0), BuildingBlock: EZIPEK_clean_linker_0, # of connection points: 2
#     Edge 37, Type (0, 0), BuildingBlock: EZIPEK_clean_linker_0, # of connection points: 2
#     Edge 38, Type (0, 0), BuildingBlock: EZIPEK_clean_linker_0, # of connection points: 2
#     Edge 39, Type (0, 0), BuildingBlock: EZIPEK_clean_linker_0, # of connection points: 2
#     Edge 40, Type (0, 0), BuildingBlock: EZIPEK_clean_linker_0, # of connection points: 2
#     Edge 41, Type (0, 0), BuildingBlock: EZIPEK_clean_linker_0, # of connection points: 2
#     Edge 42, Type (0, 0), BuildingBlock: EZIPEK_clean_linker_0, # of connection points: 2
#     Edge 43, Type (0, 0), BuildingBlock: EZIPEK_clean_linker_0, # of connection points: 2
#     Edge 44, Type (0, 0), BuildingBlock: EZIPEK_clean_linker_0, # of connection points: 2
#     Edge 45, Type (0, 0), BuildingBlock: EZIPEK_clean_linker_0, # of connection points: 2
#     Edge 46, Type (0, 0), BuildingBlock: EZIPEK_clean_linker_0, # of connection points: 2
#     Edge 47, Type (0, 0), BuildingBlock: EZIPEK_clean_linker_0, # of connection points: 2
#     Edge 48, Type (0, 0), BuildingBlock: EZIPEK_clean_linker_0, # of connection points: 2
#     Edge 49, Type (0, 0), BuildingBlock: EZIPEK_clean_linker_0, # of connection points: 2
#     Edge 50, Type (0, 0), BuildingBlock: EZIPEK_clean_linker_0, # of connection points: 2
#     Edge 51, Type (0, 0), BuildingBlock: EZIPEK_clean_linker_0, # of connection points: 2
#     Edge 52, Type (0, 0), BuildingBlock: EZIPEK_clean_linker_0, # of connection points: 2
#     Edge 53, Type (0, 0), BuildingBlock: EZIPEK_clean_linker_0, # of connection points: 2
#     Edge 54, Type (0, 0), BuildingBlock: EZIPEK_clean_linker_0, # of connection points: 2
#     Edge 55, Type (0, 0), BuildingBlock: EZIPEK_clean_linker_0, # of connection points: 2
#     Edge 56, Type (0, 0), BuildingBlock: EZIPEK_clean_linker_0, # of connection points: 2
#     Edge 57, Type (0, 0), BuildingBlock: EZIPEK_clean_linker_0, # of connection points: 2
#     Edge 58, Type (0, 0), BuildingBlock: EZIPEK_clean_linker_0, # of connection points: 2
#     Edge 59, Type (0, 0), BuildingBlock: EZIPEK_clean_linker_0, # of connection points: 2
#     Edge 60, Type (0, 0), BuildingBlock: EZIPEK_clean_linker_0, # of connection points: 2
#     Edge 61, Type (0, 0), BuildingBlock: EZIPEK_clean_linker_0, # of connection points: 2
#     Edge 62, Type (0, 0), BuildingBlock: EZIPEK_clean_linker_0, # of connection points: 2
#     Edge 63, Type (0, 0), BuildingBlock: EZIPEK_clean_linker_0, # of connection points: 2
# Relax obj value: 0.432
# Max RMSD: 0.210
# Mean RMSD: 0.200
data_MOF--net-whw--node1-BETDEL_clean_sbu_0--edge1-EZIPEK_clean_linker_0
_symmetry_space_group_name_H-M    P1
_symmetry_Int_Tables_number       1
_symmetry_cell_setting            triclinic
loop_
_symmetry_equiv_pos_as_xyz
'x, y, z'
_cell_length_a     34.187051
_cell_length_b     34.194579
_cell_length_c     20.29947
_cell_angle_alpha  87.660785
_cell_angle_beta   89.864471
_cell_angle_gamma 92.184609
loop_
_atom_site_label
_atom_site_type_symbol
_atom_site_fract_x
_atom_site_fract_y
_atom_site_fract_z
_atom_type_partial_charge
Dy0 Dy 0.02385 0.11196 0.17507 0.0
C1 C 0.90657 0.08486 0.97531 0.0
C2 C 0.06943 0.13144 0.28002 0.0
Dy3 Dy 0.9524 0.10269 0.0812 0.0
O4 O 0.08057 0.11003 0.23247 0.0
O5 O 0.03416 0.14255 0.26944 0.0
O6 O 0.04268 0.05211 0.15102 0.0
O7 O 0.9837 0.0639 0.14768 0.0
C8 C 0.00809 0.03855 0.13563 0.0
C9 C 0.965 0.17451 0.125 0.0
O10 O 0.92126 0.09004 0.17891 0.0
O11 O 0.97174 0.11533 0.24319 0.0
O12 O 0.89583 0.10459 1.02522 0.0
O13 O 0.94129 0.07225 0.98713 0.0
O14 O 0.93136 0.1616 0.10418 0.0
O15 O 0.99017 0.15004 0.11202 0.0
O16 O 0.05285 0.13648 0.08 0.0
O17 O 0.00353 0.11535 1.00969 0.0
C18 C 0.93452 0.10382 0.23563 0.0
C19 C 0.03899 0.13155 1.0193 0.0
Dy20 Dy 0.11246 0.76592 0.42701 0.0
C21 C 0.12874 0.61817 0.29957 0.0
C22 C 0.10254 0.82499 0.51131 0.0
Dy23 Dy 0.10907 0.68205 0.36727 0.0
O24 O 0.08259 0.79195 0.51233 0.0
O25 O 0.12672 0.82669 0.46157 0.0
O26 O 0.17594 0.77651 0.40216 0.0
O27 O 0.15294 0.71939 0.41293 0.0
C28 C 0.18149 0.7403 0.38963 0.0
C29 C 0.0423 0.71275 0.39464 0.0
O30 O 0.10867 0.66412 0.47861 0.0
O31 O 0.09646 0.72548 0.51725 0.0
O32 O 0.15129 0.64913 0.30729 0.0
O33 O 0.09566 0.62252 0.32966 0.0
O34 O 0.0447 0.6748 0.39588 0.0
O35 O 0.07315 0.72931 0.37408 0.0
O36 O 0.09358 0.78376 0.32064 0.0
O37 O 0.1034 0.72425 0.27283 0.0
C38 C 0.09841 0.68678 0.52801 0.0
C39 C 0.09634 0.76304 0.2656 0.0
Dy40 Dy 0.47089 0.87421 0.74798 0.0
C41 C 0.58858 0.905 0.54819 0.0
C42 C 0.42225 0.8548 0.85357 0.0
Dy43 Dy 0.54328 0.88454 0.65605 0.0
O44 O 0.46014 0.85734 0.85491 0.0
O45 O 0.41058 0.86269 0.79367 0.0
O46 O 0.44977 0.9342 0.71815 0.0
O47 O 0.50788 0.92291 0.70926 0.0
C48 C 0.48235 0.94612 0.69 0.0
C49 C 0.53284 0.81282 0.71117 0.0
O50 O 0.57416 0.89633 0.75186 0.0
O51 O 0.52322 0.86904 0.81692 0.0
O52 O 0.60026 0.88571 0.60054 0.0
O53 O 0.55352 0.91645 0.55905 0.0
O54 O 0.56607 0.82783 0.68981 0.0
O55 O 0.50623 0.83535 0.69297 0.0
O56 O 0.44469 0.84724 0.65385 0.0
O57 O 0.49637 0.86518 0.58352 0.0
C58 C 0.56044 0.88152 0.80947 0.0
C59 C 0.46028 0.84996 0.59274 0.0
Dy60 Dy 0.38057 0.212 0.937 0.0
C61 C 0.36147 0.35634 0.79463 0.0
C62 C 0.38034 0.15535 1.03555 0.0
Dy63 Dy 0.3876 0.29448 0.86901 0.0
O64 O 0.37863 0.148 0.97297 0.0
O65 O 0.38338 0.19269 0.04265 0.0
O66 O 0.31883 0.20108 0.90242 0.0
O67 O 0.34056 0.25791 0.91196 0.0
C68 C 0.31329 0.2375 0.88688 0.0
C69 C 0.45426 0.26817 0.91726 0.0
O70 O 0.38535 0.31258 0.97812 0.0
O71 O 0.39779 0.25123 1.02365 0.0
O72 O 0.39607 0.35445 0.82114 0.0
O73 O 0.3416 0.32402 0.80883 0.0
O74 O 0.44778 0.30524 0.90732 0.0
O75 O 0.42664 0.24853 0.89209 0.0
O76 O 0.40226 0.19463 0.83296 0.0
O77 O 0.40199 0.25634 0.77995 0.0
C78 C 0.39531 0.2898 1.03067 0.0
C79 C 0.40748 0.21755 0.77755 0.0
Dy80 Dy 0.02754 0.87362 0.85577 0.0
C81 C 0.89244 0.86944 1.01928 0.0
C82 C 0.08703 0.88106 0.76439 0.0
Dy83 Dy 0.94913 0.85358 0.93276 0.0
O84 O 0.06147 0.9068 0.77629 0.0
O85 O 0.0814 0.85157 0.80676 0.0
O86 O 0.02129 0.93775 0.87514 0.0
O87 O -0.00229 0.89535 0.93946 0.0
C88 C -0.00054 0.93145 0.92701 0.0
C89 C 0.96362 0.80696 0.83461 0.0
O90 O 0.92657 0.88433 0.83927 0.0
O91 O 0.9808 0.87529 0.77464 0.0
O92 O 0.90635 0.83481 1.01246 0.0
O93 O 0.90822 0.89462 0.97643 0.0
O94 O 0.92901 0.80768 0.86189 0.0
O95 O 0.98817 0.82398 0.87065 0.0
O96 O 0.05202 0.84426 0.95303 0.0
O97 O -0.00747 0.82944 1.00877 0.0
C98 C 0.94255 0.88116 0.77988 0.0
C99 C 0.03177 0.8295 1.0068 0.0
Dy100 Dy 0.37758 0.74515 0.22881 0.0
C101 C 0.36968 0.64811 0.99374 0.0
C102 C 0.39636 0.78163 0.34688 0.0
Dy103 Dy 0.35322 0.68478 0.11063 0.0
O104 O 0.42079 0.76934 0.30375 0.0
O105 O 0.36088 0.77491 0.32439 0.0
O106 O 0.432 0.75906 0.16891 0.0
O107 O 0.40351 0.70373 0.16532 0.0
C108 C 0.43025 0.72552 0.14071 0.0
C109 C 0.29537 0.70207 0.191 0.0
O110 O 0.36173 0.64149 0.19473 0.0
O111 O 0.37497 0.68564 0.27855 0.0
O112 O 0.33533 0.65993 1.0113 0.0
O113 O 0.3939 0.65501 0.04147 0.0
O114 O 0.29294 0.67253 0.15178 0.0
O115 O 0.32521 0.72398 0.1762 0.0
O116 O 0.35982 0.78879 0.14964 0.0
O117 O 0.35841 0.74527 0.06289 0.0
C118 C 0.3687 0.6497 0.25738 0.0
C119 C 0.35966 0.78135 0.08555 0.0
Dy120 Dy 0.47005 0.10973 0.37833 0.0
C121 C 0.59925 0.10574 0.5445 0.0
C122 C 0.41403 0.09893 0.28362 0.0
Dy123 Dy 0.54586 0.11847 0.44793 0.0
O124 O 0.41555 0.12743 0.3244 0.0
O125 O 0.44331 0.07685 0.2955 0.0
O126 O 0.44964 0.06397 0.45118 0.0
O127 O 0.50929 0.06681 0.42431 0.0
C128 C 0.48355 0.04931 0.46115 0.0
C129 C 0.53194 0.17671 0.36235 0.0
O130 O 0.5705 0.095 0.35525 0.0
O131 O 0.51675 0.11242 0.29496 0.0
O132 O 0.60536 0.12879 0.49268 0.0
O133 O 0.56451 0.08978 0.54156 0.0
O134 O 0.56726 0.16917 0.38144 0.0
O135 O 0.50723 0.15876 0.39974 0.0
O136 O 0.44698 0.1421 0.46883 0.0
O137 O 0.50551 0.14258 0.52584 0.0
C138 C 0.55486 0.10479 0.29749 0.0
C139 C 0.46746 0.14977 0.52382 0.0
Dy140 Dy 0.13027 0.23127 0.63159 0.0
C141 C 0.11419 0.34991 0.81865 0.0
C142 C 0.12311 0.18115 0.53067 0.0
Dy143 Dy 0.11531 0.30187 0.71493 0.0
O144 O 0.15605 0.19631 0.55142 0.0
O145 O 0.09472 0.19101 0.56837 0.0
O146 O 0.18414 0.21798 0.6851 0.0
O147 O 0.16873 0.27765 0.6736 0.0
C148 C 0.19238 0.25391 0.70088 0.0
C149 C 0.05165 0.27365 0.65612 0.0
O150 O 0.11031 0.33302 0.61371 0.0
O151 O 0.12836 0.28039 0.55378 0.0
O152 O 0.0929 0.31822 0.81273 0.0
O153 O 0.13576 0.35673 0.76614 0.0
O154 O 0.05424 0.30887 0.67792 0.0
O155 O 0.0802 0.25481 0.67733 0.0
O156 O 0.11043 0.1978 0.72535 0.0
O157 O 0.11756 0.25152 0.79113 0.0
C158 C 0.11418 0.31579 0.55621 0.0
C159 C 0.10979 0.21353 0.78435 0.0
Dy160 Dy 0.86095 0.251 0.7122 0.0
C161 C 0.86178 0.15627 0.47325 0.0
C162 C 0.87792 0.28513 0.8331 0.0
Dy163 Dy 0.84487 0.19125 0.59019 0.0
O164 O 0.90283 0.27113 0.79252 0.0
O165 O 0.84299 0.28124 0.80677 0.0
O166 O 0.91444 0.27184 0.65644 0.0
O167 O 0.89292 0.21383 0.6476 0.0
C168 C 0.91702 0.23951 0.62533 0.0
C169 C 0.78374 0.20523 0.66727 0.0
O170 O 0.86927 0.15166 0.66879 0.0
O171 O 0.85377 0.18997 0.75742 0.0
O172 O 0.83809 0.14142 0.51908 0.0
O173 O 0.87517 0.19033 0.49086 0.0
O174 O 0.78354 0.17572 0.62827 0.0
O175 O 0.81283 0.22766 0.65398 0.0
O176 O 0.84059 0.29379 0.63251 0.0
O177 O 0.84373 0.25193 0.54313 0.0
C178 C 0.86383 0.15633 0.73269 0.0
C179 C 0.84128 0.28738 0.5677 0.0
Dy180 Dy 0.64055 0.72221 0.12311 0.0
C181 C 0.61875 0.84627 0.29453 0.0
C182 C 0.64173 0.67561 1.01606 0.0
Dy183 Dy 0.61855 0.79182 0.20027 0.0
O184 O 0.65024 0.6638 0.07604 0.0
O185 O 0.63291 0.71188 1.01606 0.0
O186 O 0.69803 0.71723 0.17053 0.0
O187 O 0.67435 0.77328 0.15969 0.0
C188 C 0.70137 0.75367 0.18595 0.0
C189 C 0.56114 0.75908 0.13142 0.0
O190 O 0.62661 0.82556 0.10394 0.0
O191 O 0.63318 0.77055 0.04392 0.0
O192 O 0.59975 0.84895 0.23942 0.0
O193 O 0.63656 0.81357 0.29829 0.0
O194 O 0.56045 0.79511 0.14925 0.0
O195 O 0.58729 0.74169 0.16239 0.0
O196 O 0.61391 0.68942 0.21554 0.0
O197 O 0.60896 0.74366 0.27966 0.0
C198 C 0.62714 0.80866 0.04637 0.0
C199 C 0.60672 0.70507 0.27374 0.0
Dy200 Dy 0.63257 0.26338 0.96967 0.0
C201 C 0.63025 0.13041 0.81251 0.0
C202 C 0.64365 0.32004 0.05969 0.0
Dy203 Dy 0.61796 0.18465 0.90302 0.0
O204 O 0.61715 0.32026 1.01351 0.0
O205 O 0.66318 0.28845 0.05622 0.0
O206 O 0.6859 0.27899 0.90894 0.0
O207 O 0.669 0.22027 0.92818 0.0
C208 C 0.69082 0.24328 0.8927 0.0
C209 C 0.56098 0.20575 0.98097 0.0
O210 O 0.63922 0.16051 1.00055 0.0
O211 O 0.62508 0.21611 0.05528 0.0
O212 O 0.60504 0.12603 0.86066 0.0
O213 O 0.65012 0.16307 0.8179 0.0
O214 O 0.56451 0.16947 0.96512 0.0
O215 O 0.58247 0.22816 0.94445 0.0
O216 O 0.60324 0.28579 0.87116 0.0
O217 O 0.59609 0.22591 0.82106 0.0
C218 C 0.62986 0.17725 0.05595 0.0
C219 C 0.59322 0.26472 0.81814 0.0
Dy220 Dy 0.87722 0.7422 0.4579 0.0
C221 C 0.85615 0.87333 0.27859 0.0
C222 C 0.87276 0.68607 0.55867 0.0
Dy223 Dy 0.87801 0.82011 0.37414 0.0
O224 O 0.90073 0.68969 0.51448 0.0
O225 O 0.84893 0.71417 0.54812 0.0
O226 O 0.82365 0.71993 0.40571 0.0
O227 O 0.83367 0.77986 0.41459 0.0
C228 C 0.81316 0.75437 0.38572 0.0
C229 C 0.94148 0.81031 0.44397 0.0
O230 O 0.86539 0.84434 0.4752 0.0
O231 O 0.88381 0.78878 0.53544 0.0
O232 O 0.83488 0.84329 0.30047 0.0
O233 O 0.88902 0.87427 0.31066 0.0
O234 O 0.93124 0.84466 0.42167 0.0
O235 O 0.92129 0.7835 0.41701 0.0
O236 O 0.90425 0.71943 0.36249 0.0
O237 O 0.90144 0.77737 0.29893 0.0
C238 C 0.8763 0.82684 0.53216 0.0
C239 C 0.90949 0.73918 0.304 0.0
Dy240 Dy 0.52692 0.60798 0.67623 0.0
C241 C 0.40914 0.57526 0.48676 0.0
C242 C 0.57833 0.62215 0.77631 0.0
Dy243 Dy 0.45355 0.6021 0.58797 0.0
O244 O 0.56715 0.58777 0.75721 0.0
O245 O 0.5628 0.64905 0.73866 0.0
O246 O 0.54421 0.55012 0.64199 0.0
O247 O 0.48448 0.56116 0.65108 0.0
C248 C 0.50859 0.53664 0.63344 0.0
C249 C 0.47038 0.67235 0.62933 0.0
O250 O 0.42403 0.59111 0.68791 0.0
O251 O 0.47673 0.61486 0.74837 0.0
O252 O 0.39676 0.59611 0.53443 0.0
O253 O 0.44587 0.56882 0.4959 0.0
O254 O 0.43492 0.66269 0.61093 0.0
O255 O 0.49386 0.6469 0.61455 0.0
O256 O 0.55741 0.62569 0.5787 0.0
O257 O 0.50245 0.61901 0.51276 0.0
C258 C 0.43901 0.60396 0.74411 0.0
C259 C 0.54083 0.62745 0.51907 0.0
Dy260 Dy 0.94338 0.37679 0.23846 0.0
C261 C 0.0812 0.38261 0.07338 0.0
C262 C 0.88677 0.37117 0.3365 0.0
Dy263 Dy 0.02142 0.37028 0.16305 0.0
O264 O 0.88734 0.35024 0.28425 0.0
O265 O 0.91709 0.39516 0.33357 0.0
O266 O 0.92833 0.43272 0.18488 0.0
O267 O 0.9867 0.41791 0.19401 0.0
C268 C 0.96372 0.44029 0.16319 0.0
C269 C -0.00048 0.30682 0.23648 0.0
O270 O 0.04803 0.38192 0.26296 0.0
O271 O 0.9893 0.37306 0.32003 0.0
O272 O 0.07266 0.35004 0.1063 0.0
O273 O 0.05645 0.40852 0.08945 0.0
O274 O 0.03582 0.31723 0.22288 0.0
O275 O 0.97693 0.32886 0.2041 0.0
O276 O 0.91924 0.35239 0.14157 0.0
O277 O 0.97823 0.35147 0.08417 0.0
C278 C 0.02832 0.37557 0.31941 0.0
C279 C 0.93937 0.34611 0.08616 0.0
Dy280 Dy 0.53037 0.35399 0.39486 0.0
C281 C 0.38936 0.36531 0.54434 0.0
C282 C 0.58639 0.35412 0.29946 0.0
Dy283 Dy 0.44906 0.34589 0.46493 0.0
O284 O 0.59398 0.35623 0.36221 0.0
O285 O 0.54903 0.35041 0.29041 0.0
O286 O 0.54298 0.41626 0.42165 0.0
O287 O 0.48637 0.3934 0.42425 0.0
C288 C 0.50835 0.42066 0.44519 0.0
C289 C 0.47408 0.28108 0.41427 0.0
O290 O 0.42768 0.34784 0.35591 0.0
O291 O 0.48849 0.33986 0.30863 0.0
O292 O 0.40442 0.33103 0.54366 0.0
O293 O 0.40571 0.38832 0.49902 0.0
O294 O 0.43719 0.28755 0.42354 0.0
O295 O 0.49437 0.30761 0.44053 0.0
O296 O 0.54981 0.33127 0.4998 0.0
O297 O 0.49025 0.33577 0.55412 0.0
C298 C 0.44951 0.34074 0.30252 0.0
C299 C 0.52851 0.32818 0.55606 0.0
Dy300 Dy 0.96375 0.63121 0.90446 0.0
C301 C 0.1022 0.62184 0.04916 0.0
C302 C 0.90871 0.62182 0.80689 0.0
Dy303 Dy 0.04184 0.6369 0.96492 0.0
O304 O 0.9043 0.64224 0.85908 0.0
O305 O 0.94263 0.60642 0.81029 0.0
O306 O 0.94558 0.58064 0.96967 0.0
O307 O 0.00438 0.58562 0.93884 0.0
C308 C 0.97963 0.5656 0.9745 0.0
C309 C 0.02166 0.70297 0.9014 0.0
O310 O 0.06378 0.63089 0.85852 0.0
O311 O 0.00395 0.6436 0.8128 0.0
O312 O 0.08012 0.65171 0.05027 0.0
O313 O 0.09261 0.60151 0.99895 0.0
O314 O 0.05777 0.69298 0.90858 0.0
O315 O 0.00028 0.67919 0.93501 0.0
O316 O 0.94438 0.65958 1.00105 0.0
O317 O 0.00313 0.65045 0.0545 0.0
C318 C 0.0424 0.63935 0.80502 0.0
C319 C 0.96618 0.66202 0.0559 0.0
C320 C 0.09177 0.13653 0.92864 0.0
C321 C 0.05904 0.15232 0.96036 0.0
C322 C 0.05756 0.20436 0.87234 0.0
C323 C 0.09222 0.19078 0.84344 0.0
N324 N 0.14496 0.14621 0.84832 0.0
N325 N 0.01555 0.20597 0.96765 0.0
C326 C 0.11 0.15732 0.87266 0.0
C327 C 0.04347 0.18755 0.93364 0.0
N328 N 0.10484 0.10119 0.95109 0.0
N329 N 0.03649 0.2322 0.83949 0.0
H330 H 0.00176 0.19359 1.00944 0.0
H331 H 0.00757 0.23458 0.95638 0.0
H332 H 0.04499 0.2454 0.79438 0.0
H333 H 0.00845 0.23947 0.85361 0.0
H334 H 0.12578 0.0858 0.92669 0.0
H335 H 0.09275 0.086 0.99238 0.0
H336 H 0.1617 0.12472 0.87087 0.0
H337 H 0.15861 0.16055 0.80761 0.0
C338 C 0.08979 0.76273 0.13476 0.0
C339 C 0.08617 0.78257 0.19563 0.0
C340 C 0.05259 0.83546 0.12949 0.0
C341 C 0.05309 0.8142 0.07036 0.0
N342 N 0.07088 0.75554 1.01925 0.0
N343 N 0.08365 0.84855 0.23382 0.0
C344 C 0.07164 0.77741 0.07396 0.0
C345 C 0.07276 0.8219 0.18839 0.0
N346 N 0.11453 0.73237 0.1326 0.0
N347 N 0.0326 0.86926 0.13005 0.0
H348 H 0.10494 0.84321 0.26923 0.0
H349 H 0.0774 0.8781 0.22921 0.0
H350 H 0.01981 0.88167 0.08803 0.0
H351 H 0.02635 0.88334 0.17322 0.0
H352 H 0.12154 0.71851 0.08971 0.0
H353 H 0.13317 0.72501 0.17122 0.0
H354 H 0.07909 0.72661 1.01926 0.0
H355 H 0.05952 0.76571 0.97437 0.0
C356 C 0.39907 0.78301 0.47397 0.0
C357 C 0.40843 0.80097 0.41092 0.0
C358 C 0.44424 0.8541 0.46856 0.0
C359 C 0.43918 0.83389 0.53153 0.0
N360 N 0.41696 0.77386 0.58931 0.0
N361 N 0.44471 0.85191 0.34906 0.0
C362 C 0.41755 0.79713 0.53299 0.0
C363 C 0.43255 0.83583 0.40875 0.0
N364 N 0.37298 0.75174 0.47773 0.0
N365 N 0.45858 0.89195 0.46543 0.0
H366 H 0.43432 0.84208 0.30417 0.0
H367 H 0.467 0.87348 0.34401 0.0
H368 H 0.46622 0.90725 0.50685 0.0
H369 H 0.45887 0.90973 0.42252 0.0
H370 H 0.36135 0.74003 0.52207 0.0
H371 H 0.36053 0.73939 0.4362 0.0
H372 H 0.40576 0.74509 0.5916 0.0
H373 H 0.43122 0.78155 0.6323 0.0
C374 C 0.40794 0.21311 0.64746 0.0
C375 C 0.42127 0.19949 0.71131 0.0
C376 C 0.45681 0.14837 0.65103 0.0
C377 C 0.44848 0.16572 0.58744 0.0
N378 N 0.41904 0.21936 0.52845 0.0
N379 N 0.46668 0.15757 0.76797 0.0
C380 C 0.42472 0.19932 0.58686 0.0
C381 C 0.44778 0.16787 0.71115 0.0
N382 N 0.37764 0.238 0.64378 0.0
N383 N 0.4726 0.11223 0.65458 0.0
H384 H 0.46619 0.17439 0.80935 0.0
H385 H 0.48711 0.1358 0.7715 0.0
H386 H 0.47814 0.09636 0.61299 0.0
H387 H 0.47571 0.09595 0.69862 0.0
H388 H 0.36376 0.24573 0.5998 0.0
H389 H 0.36324 0.24746 0.68508 0.0
H390 H 0.40578 0.24628 0.52505 0.0
H391 H 0.43063 0.21075 0.48406 0.0
C392 C 0.8254 0.87464 0.16745 0.0
C393 C 0.85249 0.89139 0.21151 0.0
C394 C 0.90016 0.90379 0.12454 0.0
C395 C 0.87591 0.88148 0.08187 0.0
N396 N 0.81405 0.84883 0.05879 0.0
N397 N 0.90343 0.94026 0.22442 0.0
C398 C 0.83758 0.86851 0.10164 0.0
C399 C 0.88538 0.91291 0.18666 0.0
N400 N 0.78833 0.86544 0.18913 0.0
N401 N 0.93866 0.91215 0.10968 0.0
H402 H 0.892 0.94691 0.27025 0.0
H403 H 0.92667 0.95861 0.20747 0.0
H404 H 0.9522 0.90336 0.06708 0.0
H405 H 0.95828 0.92434 0.14303 0.0
H406 H 0.76598 0.85451 0.15959 0.0
H407 H 0.77946 0.87249 0.23633 0.0
H408 H 0.7871 0.83548 0.07159 0.0
H409 H 0.8222 0.84506 1.00993 0.0
C410 C 0.85683 0.09619 0.80782 0.0
C411 C 0.87998 0.12815 0.78082 0.0
C412 C 0.91903 0.13074 0.87956 0.0
C413 C 0.89668 0.09841 0.90785 0.0
N414 N 0.84771 0.04664 0.89698 0.0
N415 N 0.94127 0.16484 0.77932 0.0
C416 C 0.86671 0.07961 0.87109 0.0
C417 C 0.91415 0.14121 0.81267 0.0
N418 N 0.82536 0.08253 0.77332 0.0
N419 N 0.94246 0.15382 0.91753 0.0
H420 H 0.93822 0.17261 0.72942 0.0
H421 H 0.96842 0.17277 0.79911 0.0
H422 H 0.94503 0.14951 0.9683 0.0
H423 H 0.95508 0.18037 0.89962 0.0
H424 H 0.80459 0.06202 0.79229 0.0
H425 H 0.8202 0.09247 0.72494 0.0
H426 H 0.82752 0.02979 0.87101 0.0
H427 H 0.85362 0.03517 0.94419 0.0
C428 C 0.64568 0.09437 0.71187 0.0
C429 C 0.62061 0.11867 0.74609 0.0
C430 C 0.59289 0.14284 0.64288 0.0
C431 C 0.6141 0.11505 0.60932 0.0
N432 N 0.65745 0.06125 0.6105 0.0
N433 N 0.56434 0.15995 0.74545 0.0
C434 C 0.63972 0.08983 0.64334 0.0
C435 C 0.59218 0.14084 0.71204 0.0
N436 N 0.67528 0.0763 0.74459 0.0
N437 N 0.57289 0.17088 0.60845 0.0
H438 H 0.56111 0.15861 0.79636 0.0
H439 H 0.54141 0.17425 0.72264 0.0
H440 H 0.57361 0.17434 0.55729 0.0
H441 H 0.5588 0.19349 0.63026 0.0
H442 H 0.69702 0.06156 0.72086 0.0
H443 H 0.67908 0.07789 0.79544 0.0
H444 H 0.67323 0.03931 0.63405 0.0
H445 H 0.65462 0.0586 0.55965 0.0
C446 C 0.57809 0.85661 0.46197 0.0
C447 C 0.59791 0.89136 0.48242 0.0
C448 C 0.63033 0.89932 0.37487 0.0
C449 C 0.60807 0.86632 0.3539 0.0
N450 N 0.55329 0.82037 0.37056 0.0
N451 N 0.63906 0.94871 0.45712 0.0
C452 C 0.57937 0.84737 0.39517 0.0
C453 C 0.62285 0.91381 0.43836 0.0
N454 N 0.5596 0.83118 0.5067 0.0
N455 N 0.659 0.91603 0.33478 0.0
H456 H 0.6352 0.95898 0.50433 0.0
H457 H 0.65445 0.9683 0.42511 0.0
H458 H 0.6637 0.90691 0.28704 0.0
H459 H 0.67906 0.93753 0.34972 0.0
H460 H 0.54801 0.80379 0.49466 0.0
H461 H 0.55948 0.83507 0.55717 0.0
H462 H 0.52896 0.80901 0.39698 0.0
H463 H 0.55347 0.8124 0.32152 0.0
C464 C 0.61353 0.68566 0.39592 0.0
C465 C 0.59418 0.68 0.33483 0.0
C466 C 0.55067 0.63046 0.39351 0.0
C467 C 0.56383 0.64243 0.4567 0.0
N468 N 0.60943 0.68552 0.51471 0.0
N469 N 0.53915 0.65005 0.2794 0.0
C470 C 0.59602 0.67082 0.45708 0.0
C471 C 0.56148 0.65304 0.33466 0.0
N472 N 0.64953 0.7045 0.39559 0.0
N473 N 0.5293 0.59616 0.38874 0.0
H474 H 0.54492 0.667 0.23652 0.0
H475 H 0.51273 0.63379 0.27877 0.0
H476 H 0.52394 0.57681 0.42908 0.0
H477 H 0.52199 0.5845 0.34355 0.0
H478 H 0.66737 0.70577 0.43706 0.0
H479 H 0.66354 0.71494 0.35228 0.0
H480 H 0.62881 0.70972 0.51618 0.0
H481 H 0.59927 0.67664 0.56122 0.0
C482 C 0.59329 0.27174 0.68899 0.0
C483 C 0.57864 0.28381 0.75125 0.0
C484 C 0.53662 0.32969 0.6852 0.0
C485 C 0.54717 0.31384 0.62342 0.0
N486 N 0.5825 0.26378 0.57152 0.0
N487 N 0.52958 0.32025 0.80445 0.0
C488 C 0.575 0.2835 0.627 0.0
C489 C 0.54857 0.31181 0.74789 0.0
N490 N 0.62522 0.24891 0.68838 0.0
N491 N 0.51675 0.36352 0.68459 0.0
H492 H 0.53636 0.30742 0.85019 0.0
H493 H 0.50459 0.33677 0.80487 0.0
H494 H 0.50996 0.37883 0.64105 0.0
H495 H 0.51147 0.37884 0.72684 0.0
H496 H 0.64085 0.24342 0.64591 0.0
H497 H 0.63884 0.23835 0.73084 0.0
H498 H 0.60223 0.24153 0.56893 0.0
H499 H 0.56548 0.26626 0.52944 0.0
C500 C 0.92972 0.35174 0.95972 0.0
C501 C 0.91886 0.33314 1.02221 0.0
C502 C 0.87836 0.2844 0.9603 0.0
C503 C 0.88904 0.30329 0.89866 0.0
N504 N 0.91909 0.35929 0.841 0.0
N505 N 0.87616 0.28518 0.07997 0.0
C506 C 0.91322 0.33808 0.89902 0.0
C507 C 0.89096 0.30075 1.02175 0.0
N508 N 0.956 0.38293 0.95785 0.0
N509 N 0.85792 0.24925 0.96027 0.0
H510 H 0.88624 0.29331 0.12583 0.0
H511 H 0.85195 0.26578 0.08302 0.0
H512 H 0.84762 0.23688 0.91719 0.0
H513 H 0.85362 0.23092 1.00208 0.0
H514 H 0.97027 0.39367 0.91515 0.0
H515 H 0.96471 0.39772 0.99943 0.0
H516 H 0.93237 0.38718 0.83753 0.0
H517 H 0.90752 0.35045 0.79623 0.0
C518 C 0.94635 0.68349 0.24317 0.0
C519 C 0.92349 0.71813 0.24052 0.0
C520 C 0.93334 0.71809 0.11754 0.0
C521 C 0.95047 0.6807 0.11964 0.0
N522 N 0.96532 0.62459 0.18888 0.0
N523 N 0.88613 0.75959 0.1655 0.0
C524 C 0.95458 0.66259 0.18387 0.0
C525 C 0.91444 0.73283 0.17494 0.0
N526 N 0.96248 0.67113 0.30141 0.0
N527 N 0.93688 0.74124 0.06152 0.0
H528 H 0.868 0.76832 0.20288 0.0
H529 H 0.87677 0.76873 0.11869 0.0
H530 H 0.95319 0.73343 1.0211 0.0
H531 H 0.92852 0.7702 0.05936 0.0
H532 H 0.98229 0.64873 0.30478 0.0
H533 H 0.96034 0.68614 0.34463 0.0
H534 H 0.96533 0.6083 0.23342 0.0
H535 H 0.96982 0.60818 0.14752 0.0
C536 C 0.39757 0.40068 0.64882 0.0
C537 C 0.37264 0.37979 0.60506 0.0
C538 C 0.32406 0.36953 0.69275 0.0
C539 C 0.3529 0.38246 0.73713 0.0
N540 N 0.40312 0.43114 0.75456 0.0
N541 N 0.30943 0.35042 0.5809 0.0
C542 C 0.38419 0.40642 0.71324 0.0
C543 C 0.33435 0.36704 0.62517 0.0
N544 N 0.43564 0.40991 0.63281 0.0
N545 N 0.28775 0.3591 0.7165 0.0
H546 H 0.31654 0.34941 0.53096 0.0
H547 H 0.28223 0.33749 0.59333 0.0
H548 H 0.28104 0.36238 0.76617 0.0
H549 H 0.26429 0.35051 0.68721 0.0
H550 H 0.45552 0.42207 0.66576 0.0
H551 H 0.44853 0.40177 0.58933 0.0
H552 H 0.42517 0.45129 0.73879 0.0
H553 H 0.39342 0.43363 0.80304 0.0
C554 C 0.35312 0.59159 0.41896 0.0
C555 C 0.38887 0.57311 0.42244 0.0
C556 C 0.39762 0.58756 0.30399 0.0
C557 C 0.37017 0.61772 0.30878 0.0
N558 N 0.3263 0.65158 0.38093 0.0
N559 N 0.44235 0.54592 0.36397 0.0
C560 C 0.34839 0.62027 0.3685 0.0
C561 C 0.40981 0.56777 0.36318 0.0
N562 N 0.32571 0.58464 0.46729 0.0
N563 N 0.41329 0.57889 0.2446 0.0
H564 H 0.45043 0.52908 0.40505 0.0
H565 H 0.46176 0.5451 0.32451 0.0
H566 H 0.40639 0.59311 0.20024 0.0
H567 H 0.43055 0.55488 0.23825 0.0
H568 H 0.29818 0.59682 0.46513 0.0
H569 H 0.32961 0.5635 0.50513 0.0
H570 H 0.31413 0.65558 0.42725 0.0
H571 H 0.3225 0.67509 0.34793 0.0
C572 C 0.09746 0.57548 0.22025 0.0
C573 C 0.13244 0.59229 0.24351 0.0
C574 C 0.1547 0.60821 0.13147 0.0
C575 C 0.11534 0.60323 0.11112 0.0
N576 N 0.0488 0.57946 0.13497 0.0
N577 N 0.2006 0.60025 0.22214 0.0
C578 C 0.08675 0.58467 0.15447 0.0
C579 C 0.16344 0.60047 0.19892 0.0
N580 N 0.07395 0.55332 0.26264 0.0
N581 N 0.1826 0.62259 0.0878 0.0
H582 H 0.20549 0.59229 0.27156 0.0
H583 H 0.22537 0.60354 0.1922 0.0
H584 H 0.17657 0.62748 0.0378 0.0
H585 H 0.21108 0.63047 0.10135 0.0
H586 H 0.04859 0.53818 0.24822 0.0
H587 H 0.08256 0.54747 0.31131 0.0
H588 H 0.02637 0.56922 0.16664 0.0
H589 H 0.03928 0.58701 0.08766 0.0
C590 C 0.10672 0.40402 0.89677 0.0
C591 C 0.12098 0.36681 0.88351 0.0
C592 C 0.13 0.35277 1.00158 0.0
C593 C 0.10703 0.38502 1.01412 0.0
N594 N 0.09384 0.4511 0.97993 0.0
N595 N 0.15123 0.30733 0.92173 0.0
C596 C 0.1018 0.41401 0.96358 0.0
C597 C 0.13519 0.3421 0.9355 0.0
N598 N 0.09544 0.42837 0.84591 0.0
N599 N 0.14712 0.3331 0.05311 0.0
H600 H 0.15678 0.29928 0.87377 0.0
H601 H 0.15771 0.28582 0.95735 0.0
H602 H 0.14498 0.34244 0.10129 0.0
H603 H 0.16656 0.31076 0.04768 0.0
H604 H 0.0804 0.45385 0.85236 0.0
H605 H 0.1 0.42205 0.79667 0.0
H606 H 0.0924 0.47442 0.94558 0.0
H607 H 0.09404 0.4592 1.02892 0.0
C608 C 0.01712 0.23964 0.24368 0.0
C609 C 0.98847 0.26605 0.25659 0.0
C610 C 0.93988 0.22625 0.20078 0.0
C611 C 0.97159 0.20737 0.16972 0.0
N612 N 0.0419 0.20879 0.15034 0.0
N613 N 0.92169 0.27175 0.28472 0.0
C614 C 0.01085 0.21647 0.18926 0.0
C615 C 0.94922 0.25434 0.24856 0.0
N616 N 0.05222 0.2421 0.275 0.0
N617 N 0.90194 0.22074 0.18122 0.0
H618 H 0.92999 0.29238 0.31901 0.0
H619 H 0.89204 0.26371 0.28556 0.0
H620 H 0.89338 0.20742 0.13839 0.0
H621 H 0.87836 0.2336 0.203 0.0
H622 H 0.0743 0.22262 0.26718 0.0
H623 H 0.05722 0.26182 0.31227 0.0
H624 H 0.07079 0.21622 0.1624 0.0
H625 H 0.03808 0.20261 0.10111 0.0
C626 C 0.00356 0.80624 0.40663 0.0
C627 C 0.98117 0.8034 0.46382 0.0
C628 C -0.00114 0.7357 0.48208 0.0
C629 C 0.0107 0.73656 0.41494 0.0
N630 N 0.01021 0.77034 0.30822 0.0
N631 N 0.96939 0.7723 0.56936 0.0
C632 C 0.00834 0.77126 0.37519 0.0
C633 C 0.98397 0.77043 0.50712 0.0
N634 N 0.01265 0.84182 0.37702 0.0
N635 N 0.00123 0.70217 0.52016 0.0
H636 H 0.95879 0.79852 0.58567 0.0
H637 H 0.96806 0.74894 0.60387 0.0
H638 H 0.00825 0.67587 0.49984 0.0
H639 H -0.00484 0.70012 0.57046 0.0
H640 H 0.02878 0.84486 0.33334 0.0
H641 H 0.0061 0.86764 0.39986 0.0
H642 H 0.00608 0.79509 0.27761 0.0
H643 H 0.01248 0.74398 0.28446 0.0
C644 C 0.46965 0.72377 0.71385 0.0
C645 C 0.48415 0.70987 0.65386 0.0
C646 C 0.54295 0.7504 0.66307 0.0
C647 C 0.52526 0.77048 0.71342 0.0
N648 N 0.47558 0.77359 0.79591 0.0
N649 N 0.52842 0.71983 0.56148 0.0
C650 C 0.48983 0.75585 0.7424 0.0
C651 C 0.51907 0.72608 0.62545 0.0
N652 N 0.43696 0.70667 0.7427 0.0
N653 N 0.58211 0.75488 0.6508 0.0
H654 H 0.50966 0.70423 0.53069 0.0
H655 H 0.55206 0.73451 0.53763 0.0
H656 H 0.6009 0.76969 0.68259 0.0
H657 H 0.59604 0.73956 0.61475 0.0
H658 H 0.42707 0.71279 0.78955 0.0
H659 H 0.41995 0.68572 0.71922 0.0
H660 H 0.44786 0.76768 0.81609 0.0
H661 H 0.49251 0.79468 0.81983 0.0
C662 C 0.5369 0.25844 0.043 0.0
C663 C 0.53908 0.21806 0.03946 0.0
C664 C 0.4774 0.21189 0.99168 0.0
C665 C 0.48152 0.25239 0.96782 0.0
N666 N 0.51645 0.3163 0.98441 0.0
N667 N 0.49629 0.16615 0.0795 0.0
C668 C 0.51078 0.27716 0.99898 0.0
C669 C 0.50279 0.19931 0.04157 0.0
N670 N 0.55749 0.27749 0.08983 0.0
N671 N 0.45722 0.18379 0.95931 0.0
H672 H 0.51756 0.15661 0.1125 0.0
H673 H 0.46907 0.15129 0.08144 0.0
H674 H 0.44914 0.1879 0.91106 0.0
H675 H 0.45717 0.15429 0.97461 0.0
H676 H 0.55342 0.30677 0.09966 0.0
H677 H 0.57641 0.2624 0.1212 0.0
H678 H 0.53931 0.33276 1.00481 0.0
H679 H 0.50151 0.33235 0.94896 0.0
C680 C 0.01337 0.78245 0.76447 0.0
C681 C 0.97328 0.78614 0.77378 0.0
C682 C 0.96576 0.72588 0.82915 0.0
C683 C 0.00683 0.72845 0.84674 0.0
N684 N 0.07174 0.75792 0.81505 0.0
N685 N 0.91922 0.74477 0.74457 0.0
C686 C 0.0321 0.75532 0.80779 0.0
C687 C 0.95372 0.7502 0.77633 0.0
N688 N 0.03195 0.80322 0.71446 0.0
N689 N 0.93742 0.7127 0.87218 0.0
H690 H 0.90937 0.76595 0.71064 0.0
H691 H 0.90292 0.71842 0.74978 0.0
H692 H 0.9427 0.70984 0.922 0.0
H693 H 0.90772 0.71502 0.86128 0.0
H694 H 0.06062 0.79828 0.70051 0.0
H695 H 0.01678 0.82307 0.68455 0.0
H696 H 0.08942 0.77804 0.78767 0.0
H697 H 0.08732 0.74244 0.85041 0.0
C698 C 0.5228 0.69926 0.10014 0.0
C699 C 0.53167 0.7399 0.08977 0.0
C700 C 0.46737 0.74662 0.04377 0.0
C701 C 0.45534 0.71508 0.08619 0.0
N702 N 0.47094 0.65172 0.13117 0.0
N703 N 0.51559 0.79958 1.02907 0.0
C704 C 0.48294 0.6871 0.10345 0.0
C705 C 0.50528 0.76277 0.05265 0.0
N706 N 0.55172 0.67329 0.10722 0.0
N707 N 0.44262 0.76062 0.99702 0.0
H708 H 0.54401 0.81118 1.03304 0.0
H709 H 0.49564 0.81833 1.00704 0.0
H710 H 0.41557 0.74647 0.98928 0.0
H711 H 0.45102 0.78254 0.96209 0.0
H712 H 0.54652 0.64306 0.11121 0.0
H713 H 0.58087 0.68232 0.10174 0.0
H714 H 0.49001 0.63167 0.15199 0.0
H715 H 0.44132 0.64348 0.13476 0.0
C716 C 0.54199 0.23338 0.29546 0.0
C717 C 0.52235 0.19752 0.29876 0.0
C718 C 0.46371 0.22794 0.32954 0.0
C719 C 0.48903 0.25561 0.3632 0.0
N720 N 0.55826 0.27763 0.37713 0.0
N721 N 0.4637 0.18119 0.24148 0.0
C722 C 0.52979 0.25903 0.3427 0.0
C723 C 0.48235 0.20129 0.28925 0.0
N724 N 0.57489 0.23952 0.25856 0.0
N725 N 0.42414 0.22417 0.33857 0.0
H726 H 0.4787 0.16141 0.2139 0.0
H727 H 0.43495 0.18623 0.22736 0.0
H728 H 0.40784 0.23981 0.37058 0.0
H729 H 0.40706 0.20273 0.316 0.0
H730 H 0.59033 0.26646 0.25638 0.0
H731 H 0.58359 0.2184 0.22659 0.0
H732 H 0.58772 0.27726 0.36365 0.0
H733 H 0.55436 0.28404 0.42548 0.0
C734 C 0.00589 0.21714 0.62466 0.0
C735 C 0.01814 0.25783 0.61799 0.0
C736 C 0.96146 0.2688 0.54704 0.0
C737 C 0.94573 0.23356 0.57352 0.0
N738 N 0.96045 0.16647 0.58609 0.0
N739 N 0.00778 0.32212 0.56381 0.0
C740 C 0.97164 0.20479 0.59154 0.0
C741 C -0.00339 0.28364 0.57489 0.0
N742 N 0.02239 0.19189 0.66923 0.0
N743 N 0.94017 0.28913 0.5016 0.0
H744 H 0.03424 0.3345 0.57888 0.0
H745 H 0.99037 0.34238 0.53947 0.0
H746 H 0.91378 0.27715 0.48419 0.0
H747 H 0.94959 0.31555 0.47845 0.0
H748 H 0.01264 0.16282 0.67679 0.0
H749 H 0.04118 0.20097 0.70581 0.0
H750 H 0.97915 0.14359 0.59595 0.0
H751 H 0.93328 0.15865 0.56608 0.0
C752 C 0.96623 -0.00126 0.05809 0.0
C753 C 0.00146 0.00423 0.0936 0.0
C754 C 0.03412 0.95898 1.02363 0.0
C755 C 0.0008 0.95837 0.98185 0.0
N756 N 0.93575 0.97878 0.95634 0.0
N757 N 0.05984 0.97357 0.13128 0.0
C758 C 0.96689 0.97845 0.99837 0.0
C759 C 0.03295 0.97967 0.08258 0.0
N760 N 0.93172 0.00948 0.08459 0.0
N761 N 0.06726 0.94062 1.00632 0.0
H762 H 0.05692 0.98501 0.17784 0.0
H763 H 0.08156 0.95312 0.12918 0.0
H764 H 0.06938 0.92427 0.96436 0.0
H765 H 0.09379 0.94399 1.03091 0.0
H766 H 0.9045 0.00322 0.0638 0.0
H767 H 0.92996 0.01967 0.13212 0.0
H768 H 0.91141 -0.00445 0.96303 0.0
H769 H 0.93559 0.96443 0.91193 0.0
C770 C 0.21595 0.75492 0.28005 0.0
C771 C 0.20876 0.72916 0.33644 0.0
C772 C 0.25262 0.68232 0.28941 0.0
C773 C 0.2645 0.7108 0.23949 0.0
N774 N 0.2583 0.77533 0.18857 0.0
N775 N 0.22489 0.67053 0.39899 0.0
C776 C 0.24673 0.74753 0.23572 0.0
C777 C 0.22824 0.69331 0.34211 0.0
N778 N 0.19177 0.78499 0.26538 0.0
N779 N 0.26524 0.64495 0.28759 0.0
H780 H 0.20819 0.67792 0.43931 0.0
H781 H 0.24132 0.64601 0.40901 0.0
H782 H 0.28427 0.63561 0.25197 0.0
H783 H 0.25628 0.62251 0.32099 0.0
H784 H 0.19276 0.80117 0.22076 0.0
H785 H 0.16761 0.79134 0.29331 0.0
H786 H 0.25112 0.80461 0.19046 0.0
H787 H 0.27629 0.76978 0.14885 0.0
C788 C 0.4542 0.99003 0.52015 0.0
C789 C 0.48796 0.01391 0.50551 0.0
C790 C 0.51976 0.98903 0.60505 0.0
C791 C 0.48437 0.96839 0.62496 0.0
N792 N 0.41886 0.9449 0.59467 0.0
N793 N 0.55797 0.01479 0.51143 0.0
C794 C 0.45179 0.96765 0.58068 0.0
C795 C 0.52253 0.00718 0.54094 0.0
N796 N 0.42653 0.98538 0.47218 0.0
N797 N 0.55026 -0.00693 0.6479 0.0
H798 H 0.56051 0.02491 0.4624 0.0
H799 H 0.58427 0.00705 0.53336 0.0
H800 H 0.54931 0.98198 0.69647 0.0
H801 H 0.57504 0.0109 0.63685 0.0
H802 H 0.4024 0.96596 0.47607 0.0
H803 H 0.43039 -0.00238 0.42454 0.0
H804 H 0.39176 0.94999 0.57336 0.0
H805 H 0.41863 0.91965 0.62487 0.0
C806 C 0.28839 0.2298 0.77028 0.0
C807 C 0.28772 0.24996 0.83072 0.0
C808 C 0.2331 0.28813 0.7872 0.0
C809 C 0.23052 0.26364 0.73313 0.0
N810 N 0.26647 0.22755 0.65684 0.0
N811 N 0.26004 0.29987 0.8956 0.0
C812 C 0.26183 0.23979 0.71954 0.0
C813 C 0.26075 0.28028 0.83831 0.0
N814 N 0.31258 0.19952 0.76192 0.0
N815 N 0.21126 0.32049 0.78638 0.0
H816 H 0.27996 0.29525 0.93365 0.0
H817 H 0.23852 0.31925 0.90701 0.0
H818 H 0.19609 0.32859 0.74392 0.0
H819 H 0.21291 0.3417 0.82172 0.0
H820 H 0.30995 0.18065 0.72304 0.0
H821 H 0.33395 0.19134 0.79506 0.0
H822 H 0.29095 0.21323 0.6411 0.0
H823 H 0.24774 0.23609 0.61873 0.0
C824 C 0.73208 0.19666 0.8324 0.0
C825 C 0.7129 0.23276 0.83296 0.0
C826 C 0.73877 0.24983 0.72182 0.0
C827 C 0.75495 0.21237 0.7197 0.0
N828 N 0.75757 0.14634 0.76616 0.0
N829 N 0.69116 0.29017 0.77017 0.0
C830 C 0.74837 0.18448 0.77256 0.0
C831 C 0.71456 0.25861 0.77573 0.0
N832 N 0.73686 0.1749 0.88962 0.0
N833 N 0.74574 0.27693 0.67132 0.0
H834 H 0.66985 0.29641 0.80416 0.0
H835 H 0.68867 0.30751 0.72714 0.0
H836 H 0.75806 0.27006 0.62643 0.0
H837 H 0.7407 0.30663 0.67493 0.0
H838 H 0.7541 0.15041 0.89276 0.0
H839 H 0.7276 0.18366 0.93548 0.0
H840 H 0.74974 0.12422 0.80108 0.0
H841 H 0.76895 0.13595 0.72302 0.0
C842 C 0.75972 0.79059 0.32595 0.0
C843 C 0.78899 0.76184 0.32578 0.0
C844 C 0.77077 0.74726 0.21234 0.0
C845 C 0.73712 0.76891 0.21902 0.0
N846 N 0.71201 0.82681 0.2617 0.0
N847 N 0.82057 0.71072 0.26618 0.0
C848 C 0.73515 0.79548 0.26977 0.0
C849 C 0.79456 0.74002 0.26791 0.0
N850 N 0.75324 0.81094 0.38125 0.0
N851 N 0.77999 0.73417 0.15176 0.0
H852 H 0.84005 0.70378 0.30328 0.0
H853 H 0.82124 0.69103 0.22838 0.0
H854 H 0.76289 0.74058 0.11038 0.0
H855 H 0.80636 0.72141 0.1412 0.0
H856 H 0.72953 0.82881 0.38652 0.0
H857 H 0.76974 0.80784 0.42408 0.0
H858 H 0.71199 0.8498 0.29379 0.0
H859 H 0.6964 0.83182 0.21824 0.0
C860 C 0.52887 0.47056 0.60694 0.0
C861 C 0.49955 0.49815 0.60443 0.0
C862 C 0.4681 0.46531 0.5128 0.0
C863 C 0.50223 0.44317 0.50554 0.0
N864 N 0.56422 0.42213 0.55227 0.0
N865 N 0.43091 0.50491 0.58562 0.0
C866 C 0.53207 0.44454 0.55507 0.0
C867 C 0.46569 0.49064 0.56666 0.0
N868 N 0.55196 0.46773 0.66172 0.0
N869 N 0.43891 0.46355 0.46713 0.0
H870 H 0.42825 0.52042 0.62842 0.0
H871 H 0.40422 0.49723 0.56417 0.0
H872 H 0.44018 0.44665 0.42567 0.0
H873 H 0.41438 0.48065 0.46812 0.0
H874 H 0.57134 0.44539 0.67078 0.0
H875 H 0.54786 0.48502 0.70223 0.0
H876 H 0.58945 0.42734 0.57972 0.0
H877 H 0.56663 0.39871 0.52205 0.0
C878 C 0.01522 0.51286 0.03892 0.0
C879 C 0.983 0.52432 1.00096 0.0
C880 C 0.94367 0.46993 0.0522 0.0
C881 C 0.97281 0.4657 0.10255 0.0
N882 N 0.03874 0.48327 0.13944 0.0
N883 N 0.92464 0.5017 0.94799 0.0
C884 C 0.00944 0.48677 0.0943 0.0
C885 C 0.94938 0.49915 1.0007 0.0
N886 N 0.05205 0.52476 1.02096 0.0
N887 N 0.91064 0.44612 0.05317 0.0
H888 H 0.93077 0.52083 0.90752 0.0
H889 H 0.90066 0.4828 0.94056 0.0
H890 H 0.90828 0.41967 0.0801 0.0
H891 H 0.88566 0.45185 1.02585 0.0
H892 H 0.05817 0.53931 0.97575 0.0
H893 H 0.05817 0.53931 0.97575 0.0
H894 H 0.0657 0.49841 0.1333 0.0
H895 H 0.03597 0.46687 0.18358 0.0
C896 C 0.12115 0.16585 0.34512 0.0
C897 C 0.0903 0.13731 0.3428 0.0
C898 C 0.09106 0.12947 0.46346 0.0
C899 C 0.11665 0.163 0.46612 0.0
N900 N 0.1515 0.21714 0.40772 0.0
N901 N 0.04517 0.09129 0.39877 0.0
C902 C 0.13121 0.18193 0.4066 0.0
C903 C 0.07523 0.11869 0.40176 0.0
N904 N 0.14016 0.17834 0.28839 0.0
N905 N 0.08249 0.10759 0.51989 0.0
H906 H 0.03473 0.08069 0.35438 0.0
H907 H 0.02944 0.08038 0.43995 0.0
H908 H 0.09438 0.11431 0.56555 0.0
H909 H 0.0668 0.08088 0.52061 0.0
H910 H 0.16544 0.19636 0.28784 0.0
H911 H 0.13268 0.16771 0.24245 0.0
H912 H 0.15844 0.23417 0.36528 0.0
H913 H 0.15819 0.23157 0.45058 0.0
C914 C 0.1338 0.83309 0.62146 0.0
C915 C 0.10839 0.8475 0.57145 0.0
C916 C 0.08955 0.89905 0.64334 0.0
C917 C 0.10549 0.87791 0.69799 0.0
N918 N 0.15076 0.8306 0.73794 0.0
N919 N 0.06266 0.89512 0.53333 0.0
C920 C 0.13071 0.84703 0.68643 0.0
C921 C 0.08676 0.88111 0.58161 0.0
N922 N 0.16075 0.80626 0.60658 0.0
N923 N 0.07832 0.93656 0.64993 0.0
H924 H 0.0611 0.88334 0.48675 0.0
H925 H 0.04271 0.91679 0.54107 0.0
H926 H 0.08433 0.9518 0.69246 0.0
H927 H 0.06844 0.95405 0.61064 0.0
H928 H 0.18237 0.79702 0.639 0.0
H929 H 0.16345 0.79533 0.55963 0.0
H930 H 0.16567 0.80473 0.73553 0.0
H931 H 0.15193 0.84317 0.78394 0.0
C932 C 0.34527 0.80767 0.97286 0.0
C933 C 0.365 0.81334 1.03334 0.0
C934 C 0.41014 0.86026 0.97451 0.0
C935 C 0.39743 0.84558 0.91336 0.0
N936 N 0.35236 0.80303 0.85504 0.0
N937 N 0.41735 0.84719 0.09141 0.0
C938 C 0.36419 0.81938 0.9123 0.0
C939 C 0.39718 0.84098 1.03458 0.0
N940 N 0.30889 0.78978 0.97372 0.0
N941 N 0.4342 0.89307 0.97524 0.0
H942 H 0.40798 0.83668 0.13771 0.0
H943 H 0.44456 0.862 0.09204 0.0
H944 H 0.44266 0.90897 0.93224 0.0
H945 H 0.44178 0.90701 1.01836 0.0
H946 H 0.29163 0.7873 0.93173 0.0
H947 H 0.29464 0.7813 1.01791 0.0
H948 H 0.33122 0.7803 0.85363 0.0
H949 H 0.36564 0.80961 0.8096 0.0
C950 C 0.40477 0.07859 0.16699 0.0
C951 C 0.39092 0.09894 0.22138 0.0
C952 C 0.35208 0.13887 0.14589 0.0
C953 C 0.37599 0.12758 0.09318 0.0
N954 N 0.42181 0.08277 0.05096 0.0
N955 N 0.34203 0.13975 0.26438 0.0
C956 C 0.40066 0.09551 0.10239 0.0
C957 C 0.36105 0.12602 0.21135 0.0
N958 N 0.42087 0.04295 0.17705 0.0
N959 N 0.32096 0.1618 0.13255 0.0
H960 H 0.34481 0.12697 0.31163 0.0
H961 H 0.32364 0.16332 0.26176 0.0
H962 H 0.31331 0.17013 0.08436 0.0
H963 H 0.3009 0.16966 0.16781 0.0
H964 H 0.42949 0.02575 0.1388 0.0
H965 H 0.42041 0.0284 0.22324 0.0
H966 H 0.44419 0.0631 0.05696 0.0
H967 H 0.41801 0.09309 1.00253 0.0
C968 C 0.86786 0.8364 0.65534 0.0
C969 C 0.88487 0.84992 0.59427 0.0
C970 C 0.93015 0.89388 0.65665 0.0
C971 C 0.91712 0.87609 0.7179 0.0
N972 N 0.86815 0.83401 0.77492 0.0
N973 N 0.92785 0.89728 0.53673 0.0
C974 C 0.88398 0.84894 0.717 0.0
C975 C 0.91442 0.8807 0.59507 0.0
N976 N 0.83475 0.81266 0.65395 0.0
N977 N 0.95648 0.925 0.65785 0.0
H978 H 0.91205 0.89523 0.49334 0.0
H979 H 0.95376 0.91405 0.53128 0.0
H980 H 0.96666 0.93647 0.70176 0.0
H981 H 0.96605 0.94166 0.61654 0.0
H982 H 0.81795 0.80397 0.69511 0.0
H983 H 0.82184 0.80417 0.60997 0.0
H984 H 0.85045 0.8086 0.77895 0.0
H985 H 0.87205 0.84718 0.81967 0.0
C986 C 0.89955 0.10485 0.41554 0.0
C987 C 0.87421 0.13693 0.41157 0.0
C988 C 0.87745 0.13602 0.28996 0.0
C989 C 0.90778 0.10866 0.294 0.0
N990 N 0.94606 0.06472 0.3604 0.0
N991 N 0.84027 0.1845 0.34486 0.0
C992 C 0.918 0.09216 0.35691 0.0
C993 C 0.86332 0.15268 0.34867 0.0
N994 N 0.90631 0.08679 0.47554 0.0
N995 N 0.86155 0.14581 0.23019 0.0
H996 H 0.82764 0.1962 0.38617 0.0
H997 H 0.83554 0.20074 0.30129 0.0
H998 H 0.87082 0.13457 0.18622 0.0
H999 H 0.83665 0.16223 0.2247 0.0
H1000 H 0.92142 0.06109 0.48195 0.0
H1001 H 0.89454 0.0961 0.51938 0.0
H1002 H 0.9588 0.05467 0.40406 0.0
H1003 H 0.95748 0.0525 0.31852 0.0
C1004 C 0.58937 0.11938 0.11442 0.0
C1005 C 0.61735 0.15177 0.11764 0.0
C1006 C 0.61507 0.14136 0.23996 0.0
C1007 C 0.58086 0.11568 0.23658 0.0
N1008 N 0.53634 0.08011 0.16724 0.0
N1009 N 0.65716 0.19247 0.1868 0.0
C1010 C 0.5685 0.10475 0.17277 0.0
C1011 C 0.6302 0.16221 0.18146 0.0
N1012 N 0.58297 0.1012 0.0565 0.0
N1013 N 0.6345 0.14532 0.29818 0.0
H1014 H 0.67235 0.20537 0.14642 0.0
H1015 H 0.663 0.20607 0.23092 0.0
H1016 H 0.62717 0.12979 0.34162 0.0
H1017 H 0.66136 0.16045 0.3019 0.0
H1018 H 0.56614 0.07533 0.05325 0.0
H1019 H 0.59777 0.10833 1.01284 0.0
H1020 H 0.52155 0.07626 0.12301 0.0
H1021 H 0.52328 0.06481 0.20753 0.0
C1022 C 0.59183 0.89057 0.92324 0.0
C1023 C 0.58822 0.87004 0.86408 0.0
C1024 C 0.60651 0.81083 0.92444 0.0
C1025 C 0.61601 0.83128 0.98274 0.0
N1026 N 0.62848 0.89631 1.0248 0.0
N1027 N 0.61395 0.81643 0.80683 0.0
C1028 C 0.61196 0.87303 0.97866 0.0
C1029 C 0.60314 0.83224 0.86402 0.0
N1030 N 0.57652 0.92663 0.92665 0.0
N1031 N 0.59537 0.77212 0.92627 0.0
H1032 H 0.6181 0.83418 0.76428 0.0
H1033 H 0.62522 0.7885 0.80567 0.0
H1034 H 0.58506 0.75762 0.96926 0.0
H1035 H 0.58813 0.75747 0.88356 0.0
H1036 H 0.57512 0.94135 0.97054 0.0
H1037 H 0.56344 0.94048 0.88602 0.0
H1038 H 0.62771 0.92677 1.02127 0.0
H1039 H 0.64771 0.88596 0.06054 0.0
C1040 C 0.58832 0.61171 0.89896 0.0
C1041 C 0.60081 0.62966 0.83749 0.0
C1042 C 0.64998 0.6696 0.89488 0.0
C1043 C 0.63668 0.65233 0.95618 0.0
N1044 N 0.60327 0.59793 1.01407 0.0
N1045 N 0.64968 0.66809 0.7753 0.0
C1046 C 0.60949 0.6201 0.95728 0.0
C1047 C 0.63367 0.65625 0.83495 0.0
N1048 N 0.55439 0.58924 0.90296 0.0
N1049 N 0.67759 0.69959 0.89443 0.0
H1050 H 0.63871 0.65835 0.73067 0.0
H1051 H 0.67571 0.68472 0.76999 0.0
H1052 H 0.6926 0.70748 0.93691 0.0
H1053 H 0.68476 0.71728 0.85288 0.0
H1054 H 0.54152 0.57949 0.94751 0.0
H1055 H 0.53679 0.58347 0.86253 0.0
H1056 H 0.58618 0.57203 1.01626 0.0
H1057 H 0.61888 0.60273 0.05713 0.0
C1058 C 0.64699 0.33533 0.23865 0.0
C1059 C 0.61405 0.35893 0.24342 0.0
C1060 C 0.616 0.37381 0.12442 0.0
C1061 C 0.64355 0.34433 0.1189 0.0
N1062 N 0.70019 0.31611 0.16913 0.0
N1063 N 0.57845 0.41288 0.19748 0.0
C1064 C 0.66419 0.33143 0.17569 0.0
C1065 C 0.6024 0.38246 0.18817 0.0
N1066 N 0.66019 0.31475 0.2926 0.0
N1067 N 0.60258 0.39267 0.0689 0.0
H1068 H 0.56965 0.42039 0.24447 0.0
H1069 H 0.57001 0.43251 0.16018 0.0
H1070 H 0.61607 0.39024 1.02315 0.0
H1071 H 0.57884 0.41083 0.06806 0.0
H1072 H 0.68074 0.29315 0.28975 0.0
H1073 H 0.64948 0.3182 0.33996 0.0
H1074 H 0.71774 0.30837 0.20909 0.0
H1075 H 0.71435 0.31612 0.12351 0.0
C1076 C 0.83118 0.33348 0.39784 0.0
C1077 C 0.86266 0.36174 0.39773 0.0
C1078 C 0.86907 0.35229 0.51757 0.0
C1079 C 0.84109 0.32039 0.51684 0.0
N1080 N 0.78536 0.29132 0.46273 0.0
N1081 N 0.89316 0.41233 0.46157 0.0
C1082 C 0.81867 0.31468 0.45881 0.0
C1083 C 0.87563 0.37591 0.45896 0.0
N1084 N 0.81341 0.32462 0.3399 0.0
N1085 N 0.89153 0.35875 0.57185 0.0
H1086 H 0.89438 0.43186 0.42072 0.0
H1087 H 0.90088 0.42507 0.50572 0.0
H1088 H 0.88759 0.34354 0.61684 0.0
H1089 H 0.91589 0.37807 0.57076 0.0
H1090 H 0.79417 0.30063 0.33466 0.0
H1091 H 0.81791 0.34186 0.29678 0.0
H1092 H 0.76596 0.28768 0.42384 0.0
H1093 H 0.77535 0.27837 0.5074 0.0
C1094 C 0.85514 0.65123 0.73584 0.0
C1095 C 0.88625 0.62531 0.74384 0.0
C1096 C 0.89619 0.62628 0.62414 0.0
C1097 C 0.87068 0.65799 0.6176 0.0
N1098 N 0.80988 0.6814 0.65943 0.0
N1099 N 0.91771 0.57204 0.69427 0.0
C1100 C 0.84501 0.66475 0.67104 0.0
C1101 C 0.90103 0.60762 0.68739 0.0
N1102 N 0.83523 0.66279 0.78954 0.0
N1103 N 0.91508 0.61348 0.57028 0.0
H1104 H 0.91792 0.55635 0.73946 0.0
H1105 H 0.92667 0.5561 0.65468 0.0
H1106 H 0.90718 0.62154 0.52222 0.0
H1107 H 0.93809 0.5944 0.57338 0.0
H1108 H 0.81661 0.68623 0.78791 0.0
H1109 H 0.83733 0.64856 0.83572 0.0
H1110 H 0.78915 0.68515 0.69608 0.0
H1111 H 0.7988 0.68572 0.61204 0.0
C1112 C 0.44846 0.34859 0.173 0.0
C1113 C 0.43115 0.33178 0.23287 0.0
C1114 C 0.38839 0.28994 0.15976 0.0
C1115 C 0.40552 0.3069 0.10002 0.0
N1116 N 0.44796 0.35874 0.05318 0.0
N1117 N 0.37673 0.2921 0.27804 0.0
C1118 C 0.43432 0.33805 0.10798 0.0
C1119 C 0.39888 0.30419 0.22446 0.0
N1120 N 0.47884 0.37544 0.17782 0.0
N1121 N 0.36147 0.25961 0.1552 0.0
H1122 H 0.38284 0.30022 0.3257 0.0
H1123 H 0.35013 0.27644 0.27493 0.0
H1124 H 0.34863 0.25192 0.11083 0.0
H1125 H 0.35303 0.24099 0.19503 0.0
H1126 H 0.49791 0.38347 0.13911 0.0
H1127 H 0.48576 0.38917 0.22143 0.0
H1128 H 0.46478 0.38469 0.05456 0.0
H1129 H 0.44028 0.35176 1.00553 0.0
C1130 C 0.40809 0.60032 0.92787 0.0
C1131 C 0.38134 0.6313 0.92845 0.0
C1132 C 0.38099 0.63154 0.80623 0.0
C1133 C 0.41392 0.60719 0.80586 0.0
N1134 N 0.45641 0.56507 0.86782 0.0
N1135 N 0.34652 0.6801 0.86491 0.0
C1136 C 0.42667 0.59064 0.86734 0.0
C1137 C 0.3684 0.64747 0.86676 0.0
N1138 N 0.41452 0.57891 0.98492 0.0
N1139 N 0.36146 0.6398 0.74908 0.0
H1140 H 0.33788 0.69405 0.90687 0.0
H1141 H 0.34039 0.69577 0.82127 0.0
H1142 H 0.36954 0.62939 0.70378 0.0
H1143 H 0.33504 0.65404 0.74789 0.0
H1144 H 0.43081 0.5538 0.9874 0.0
H1145 H 0.40005 0.58373 1.02896 0.0
H1146 H 0.47067 0.55561 0.91048 0.0
H1147 H 0.46766 0.55407 0.82477 0.0
C1148 C 0.0592 0.63878 0.61148 0.0
C1149 C 0.08831 0.66958 0.59915 0.0
C1150 C 0.09442 0.67327 0.72256 0.0
C1151 C 0.06119 0.64694 0.73463 0.0
N1152 N 0.01333 0.60325 0.68695 0.0
N1153 N 0.13369 0.71583 0.64679 0.0
C1154 C 0.04417 0.62948 0.67778 0.0
C1155 C 0.10569 0.68655 0.65601 0.0
N1156 N 0.04611 0.61744 0.55997 0.0
N1157 N 0.11677 0.6849 0.7744 0.0
H1158 H 0.14718 0.72245 0.60139 0.0
H1159 H 0.14255 0.73448 0.68367 0.0
H1160 H 0.11038 0.67719 0.82324 0.0
H1161 H 0.14391 0.69957 0.76905 0.0
H1162 H 0.029 0.5917 0.56544 0.0
H1163 H 0.0545 0.6237 0.51132 0.0
H1164 H -0.00471 0.59392 0.64907 0.0
H1165 H 0.00506 0.59137 0.7332 0.0
C1166 C 0.04304 0.32357 0.40926 0.0
C1167 C 0.05019 0.36226 0.38177 0.0
C1168 C 0.09996 0.37213 0.47021 0.0
C1169 C 0.09482 0.3322 0.49334 0.0
N1170 N 0.06552 0.26791 0.47138 0.0
N1171 N 0.08899 0.42237 0.3835 0.0
C1172 C 0.06852 0.30737 0.45763 0.0
C1173 C 0.07991 0.38615 0.41142 0.0
N1174 N 0.01006 0.30218 0.39344 0.0
N1175 N 0.12425 0.39669 0.50402 0.0
H1176 H 0.07352 0.43421 0.34368 0.0
H1177 H 0.1129 0.43985 0.39741 0.0
H1178 H 0.14161 0.38686 0.54301 0.0
H1179 H 0.12612 0.4269 0.49527 0.0
H1180 H 0.00201 0.27509 0.41576 0.0
H1181 H 0.98756 0.31268 0.36492 0.0
H1182 H 0.05462 0.2482 0.4374 0.0
H1183 H 0.07265 0.25447 0.51609 0.0
loop_
_geom_bond_atom_site_label_1
_geom_bond_atom_site_label_2
_geom_bond_distance
_geom_bond_site_symmetry_2
_ccdc_geom_bond_type
Dy0 O4 2.398 . S
Dy0 O5 2.491 . S
Dy0 O6 2.403 . S
Dy0 O7 2.664 1_455 S
Dy0 O11 2.326 1_455 S
Dy0 O15 2.310 . S
Dy0 O16 2.351 . S
C1 O12 1.185 . S
C1 O13 1.355 . S
C2 O4 1.185 . S
C2 O5 1.355 . S
Dy3 O7 2.310 . S
Dy3 O10 2.351 . S
Dy3 O12 2.398 1_554 S
Dy3 O13 2.491 1_554 S
Dy3 O14 2.403 . S
Dy3 O15 2.664 1_655 S
Dy3 O17 2.326 1_654 S
O4 Dy0 2.398 . S
O4 C2 1.185 . S
O5 Dy0 2.491 . S
O5 C2 1.355 . S
O6 Dy0 2.403 . S
O6 C8 1.254 . S
O7 Dy0 2.664 1_655 S
O7 Dy3 2.310 . S
O7 C8 1.268 1_655 S
C8 O6 1.254 . S
C8 O7 1.268 1_455 S
C9 O14 1.254 . S
C9 O15 1.268 1_655 S
O10 Dy3 2.351 . S
O10 C18 1.249 . S
O11 Dy0 2.326 1_655 S
O11 C18 1.267 . S
O12 C1 1.185 . S
O12 Dy3 2.398 1_556 S
O13 C1 1.355 . S
O13 Dy3 2.491 1_556 S
O14 Dy3 2.403 . S
O14 C9 1.254 . S
O15 Dy0 2.310 . S
O15 Dy3 2.664 1_455 S
O15 C9 1.268 1_455 S
O16 Dy0 2.351 . S
O16 C19 1.249 1_554 S
O17 Dy3 2.326 1_456 S
O17 C19 1.267 . S
C18 O10 1.249 . S
C18 O11 1.267 . S
C19 O16 1.249 1_556 S
C19 O17 1.267 . S
Dy20 O24 2.398 . S
Dy20 O25 2.491 . S
Dy20 O26 2.403 . S
Dy20 O27 2.664 . S
Dy20 O31 2.326 . S
Dy20 O35 2.310 . S
Dy20 O36 2.351 . S
C21 O32 1.185 . S
C21 O33 1.355 . S
C22 O24 1.185 . S
C22 O25 1.355 . S
Dy23 O27 2.310 . S
Dy23 O30 2.351 . S
Dy23 O32 2.398 . S
Dy23 O33 2.491 . S
Dy23 O34 2.403 . S
Dy23 O35 2.664 . S
Dy23 O37 2.326 . S
O24 Dy20 2.398 . S
O24 C22 1.185 . S
O25 Dy20 2.491 . S
O25 C22 1.355 . S
O26 Dy20 2.403 . S
O26 C28 1.254 . S
O27 Dy20 2.664 . S
O27 Dy23 2.310 . S
O27 C28 1.268 . S
C28 O26 1.254 . S
C28 O27 1.268 . S
C29 O34 1.254 . S
C29 O35 1.268 . S
O30 Dy23 2.351 . S
O30 C38 1.249 . S
O31 Dy20 2.326 . S
O31 C38 1.267 . S
O32 C21 1.185 . S
O32 Dy23 2.398 . S
O33 C21 1.355 . S
O33 Dy23 2.491 . S
O34 Dy23 2.403 . S
O34 C29 1.254 . S
O35 Dy20 2.310 . S
O35 Dy23 2.664 . S
O35 C29 1.268 . S
O36 Dy20 2.351 . S
O36 C39 1.249 . S
O37 Dy23 2.326 . S
O37 C39 1.267 . S
C38 O30 1.249 . S
C38 O31 1.267 . S
C39 O36 1.249 . S
C39 O37 1.267 . S
Dy40 O44 2.398 . S
Dy40 O45 2.491 . S
Dy40 O46 2.403 . S
Dy40 O47 2.664 . S
Dy40 O51 2.326 . S
Dy40 O55 2.310 . S
Dy40 O56 2.351 . S
C41 O52 1.185 . S
C41 O53 1.355 . S
C42 O44 1.185 . S
C42 O45 1.355 . S
Dy43 O47 2.310 . S
Dy43 O50 2.351 . S
Dy43 O52 2.398 . S
Dy43 O53 2.491 . S
Dy43 O54 2.403 . S
Dy43 O55 2.664 . S
Dy43 O57 2.326 . S
O44 Dy40 2.398 . S
O44 C42 1.185 . S
O45 Dy40 2.491 . S
O45 C42 1.355 . S
O46 Dy40 2.403 . S
O46 C48 1.254 . S
O47 Dy40 2.664 . S
O47 Dy43 2.310 . S
O47 C48 1.268 . S
C48 O46 1.254 . S
C48 O47 1.268 . S
C49 O54 1.254 . S
C49 O55 1.268 . S
O50 Dy43 2.351 . S
O50 C58 1.249 . S
O51 Dy40 2.326 . S
O51 C58 1.267 . S
O52 C41 1.185 . S
O52 Dy43 2.398 . S
O53 C41 1.355 . S
O53 Dy43 2.491 . S
O54 Dy43 2.403 . S
O54 C49 1.254 . S
O55 Dy40 2.310 . S
O55 Dy43 2.664 . S
O55 C49 1.268 . S
O56 Dy40 2.351 . S
O56 C59 1.249 . S
O57 Dy43 2.326 . S
O57 C59 1.267 . S
C58 O50 1.249 . S
C58 O51 1.267 . S
C59 O56 1.249 . S
C59 O57 1.267 . S
Dy60 O64 2.398 1_556 S
Dy60 O65 2.491 1_556 S
Dy60 O66 2.403 . S
Dy60 O67 2.664 . S
Dy60 O71 2.326 . S
Dy60 O75 2.310 . S
Dy60 O76 2.351 . S
C61 O72 1.185 . S
C61 O73 1.355 . S
C62 O64 1.185 . S
C62 O65 1.355 . S
Dy63 O67 2.310 . S
Dy63 O70 2.351 . S
Dy63 O72 2.398 . S
Dy63 O73 2.491 . S
Dy63 O74 2.403 . S
Dy63 O75 2.664 . S
Dy63 O77 2.326 . S
O64 Dy60 2.398 1_554 S
O64 C62 1.185 . S
O65 Dy60 2.491 1_554 S
O65 C62 1.355 . S
O66 Dy60 2.403 . S
O66 C68 1.254 . S
O67 Dy60 2.664 . S
O67 Dy63 2.310 . S
O67 C68 1.268 . S
C68 O66 1.254 . S
C68 O67 1.268 . S
C69 O74 1.254 . S
C69 O75 1.268 . S
O70 Dy63 2.351 . S
O70 C78 1.249 . S
O71 Dy60 2.326 . S
O71 C78 1.267 . S
O72 C61 1.185 . S
O72 Dy63 2.398 . S
O73 C61 1.355 . S
O73 Dy63 2.491 . S
O74 Dy63 2.403 . S
O74 C69 1.254 . S
O75 Dy60 2.310 . S
O75 Dy63 2.664 . S
O75 C69 1.268 . S
O76 Dy60 2.351 . S
O76 C79 1.249 . S
O77 Dy63 2.326 . S
O77 C79 1.267 . S
C78 O70 1.249 . S
C78 O71 1.267 . S
C79 O76 1.249 . S
C79 O77 1.267 . S
Dy80 O84 2.398 . S
Dy80 O85 2.491 . S
Dy80 O86 2.403 . S
Dy80 O87 2.665 1_455 S
Dy80 O91 2.309 1_455 S
Dy80 O95 2.310 . S
Dy80 O96 2.351 . S
C81 O92 1.185 . S
C81 O93 1.355 . S
C82 O84 1.185 . S
C82 O85 1.355 . S
Dy83 O87 2.309 . S
Dy83 O90 2.351 . S
Dy83 O92 2.398 1_556 S
Dy83 O93 2.491 1_556 S
Dy83 O94 2.403 . S
Dy83 O95 2.664 1_655 S
Dy83 O97 2.326 1_655 S
O84 Dy80 2.398 . S
O84 C82 1.185 . S
O85 Dy80 2.491 . S
O85 C82 1.355 . S
O86 Dy80 2.403 . S
O86 C88 1.254 . S
O87 Dy80 2.665 1_655 S
O87 Dy83 2.309 . S
O87 C88 1.268 1_655 S
C88 O86 1.254 . S
C88 O87 1.268 1_455 S
C89 O94 1.254 . S
C89 O95 1.268 1_655 S
O90 Dy83 2.351 . S
O90 C98 1.249 . S
O91 Dy80 2.309 1_655 S
O91 C98 1.286 . S
O92 C81 1.185 . S
O92 Dy83 2.398 1_554 S
O93 C81 1.355 . S
O93 Dy83 2.491 1_554 S
O94 Dy83 2.403 . S
O94 C89 1.254 . S
O95 Dy80 2.310 . S
O95 Dy83 2.664 1_455 S
O95 C89 1.268 1_455 S
O96 Dy80 2.351 . S
O96 C99 1.249 . S
O97 Dy83 2.326 1_455 S
O97 C99 1.267 . S
C98 O90 1.249 . S
C98 O91 1.286 . S
C99 O96 1.249 . S
C99 O97 1.267 . S
Dy100 O104 2.398 . S
Dy100 O105 2.491 . S
Dy100 O106 2.403 . S
Dy100 O107 2.664 . S
Dy100 O111 2.326 . S
Dy100 O115 2.310 . S
Dy100 O116 2.351 . S
C101 O112 1.185 . S
C101 O113 1.355 . S
C102 O104 1.185 . S
C102 O105 1.355 . S
Dy103 O107 2.310 . S
Dy103 O110 2.351 . S
Dy103 O112 2.398 1_554 S
Dy103 O113 2.491 1_554 S
Dy103 O114 2.403 . S
Dy103 O115 2.664 . S
Dy103 O117 2.326 . S
O104 Dy100 2.398 . S
O104 C102 1.185 . S
O105 Dy100 2.491 . S
O105 C102 1.355 . S
O106 Dy100 2.403 . S
O106 C108 1.254 . S
O107 Dy100 2.664 . S
O107 Dy103 2.310 . S
O107 C108 1.268 . S
C108 O106 1.254 . S
C108 O107 1.268 . S
C109 O114 1.254 . S
C109 O115 1.268 . S
O110 Dy103 2.351 . S
O110 C118 1.249 . S
O111 Dy100 2.326 . S
O111 C118 1.267 . S
O112 C101 1.185 . S
O112 Dy103 2.398 1_556 S
O113 C101 1.355 . S
O113 Dy103 2.491 1_556 S
O114 Dy103 2.403 . S
O114 C109 1.254 . S
O115 Dy100 2.310 . S
O115 Dy103 2.664 . S
O115 C109 1.268 . S
O116 Dy100 2.351 . S
O116 C119 1.249 . S
O117 Dy103 2.326 . S
O117 C119 1.267 . S
C118 O110 1.249 . S
C118 O111 1.267 . S
C119 O116 1.249 . S
C119 O117 1.267 . S
Dy120 O124 2.398 . S
Dy120 O125 2.491 . S
Dy120 O126 2.403 . S
Dy120 O127 2.664 . S
Dy120 O131 2.326 . S
Dy120 O135 2.310 . S
Dy120 O136 2.351 . S
C121 O132 1.185 . S
C121 O133 1.355 . S
C122 O124 1.185 . S
C122 O125 1.355 . S
Dy123 O127 2.310 . S
Dy123 O130 2.351 . S
Dy123 O132 2.398 . S
Dy123 O133 2.491 . S
Dy123 O134 2.403 . S
Dy123 O135 2.664 . S
Dy123 O137 2.326 . S
O124 Dy120 2.398 . S
O124 C122 1.185 . S
O125 Dy120 2.491 . S
O125 C122 1.355 . S
O126 Dy120 2.403 . S
O126 C128 1.254 . S
O127 Dy120 2.664 . S
O127 Dy123 2.310 . S
O127 C128 1.268 . S
C128 O126 1.254 . S
C128 O127 1.268 . S
C129 O134 1.254 . S
C129 O135 1.268 . S
O130 Dy123 2.351 . S
O130 C138 1.249 . S
O131 Dy120 2.326 . S
O131 C138 1.267 . S
O132 C121 1.185 . S
O132 Dy123 2.398 . S
O133 C121 1.355 . S
O133 Dy123 2.491 . S
O134 Dy123 2.403 . S
O134 C129 1.254 . S
O135 Dy120 2.310 . S
O135 Dy123 2.664 . S
O135 C129 1.268 . S
O136 Dy120 2.351 . S
O136 C139 1.249 . S
O137 Dy123 2.326 . S
O137 C139 1.267 . S
C138 O130 1.249 . S
C138 O131 1.267 . S
C139 O136 1.249 . S
C139 O137 1.267 . S
Dy140 O144 2.398 . S
Dy140 O145 2.491 . S
Dy140 O146 2.403 . S
Dy140 O147 2.664 . S
Dy140 O151 2.326 . S
Dy140 O155 2.310 . S
Dy140 O156 2.351 . S
C141 O152 1.185 . S
C141 O153 1.355 . S
C142 O144 1.185 . S
C142 O145 1.355 . S
Dy143 O147 2.310 . S
Dy143 O150 2.351 . S
Dy143 O152 2.398 . S
Dy143 O153 2.491 . S
Dy143 O154 2.403 . S
Dy143 O155 2.664 . S
Dy143 O157 2.326 . S
O144 Dy140 2.398 . S
O144 C142 1.185 . S
O145 Dy140 2.491 . S
O145 C142 1.355 . S
O146 Dy140 2.403 . S
O146 C148 1.254 . S
O147 Dy140 2.664 . S
O147 Dy143 2.310 . S
O147 C148 1.268 . S
C148 O146 1.254 . S
C148 O147 1.268 . S
C149 O154 1.254 . S
C149 O155 1.268 . S
O150 Dy143 2.351 . S
O150 C158 1.249 . S
O151 Dy140 2.326 . S
O151 C158 1.267 . S
O152 C141 1.185 . S
O152 Dy143 2.398 . S
O153 C141 1.355 . S
O153 Dy143 2.491 . S
O154 Dy143 2.403 . S
O154 C149 1.254 . S
O155 Dy140 2.310 . S
O155 Dy143 2.664 . S
O155 C149 1.268 . S
O156 Dy140 2.351 . S
O156 C159 1.249 . S
O157 Dy143 2.326 . S
O157 C159 1.267 . S
C158 O150 1.249 . S
C158 O151 1.267 . S
C159 O156 1.249 . S
C159 O157 1.267 . S
Dy160 O164 2.398 . S
Dy160 O165 2.491 . S
Dy160 O166 2.403 . S
Dy160 O167 2.664 . S
Dy160 O171 2.326 . S
Dy160 O175 2.310 . S
Dy160 O176 2.351 . S
C161 O172 1.185 . S
C161 O173 1.355 . S
C162 O164 1.185 . S
C162 O165 1.355 . S
Dy163 O167 2.310 . S
Dy163 O170 2.351 . S
Dy163 O172 2.398 . S
Dy163 O173 2.491 . S
Dy163 O174 2.403 . S
Dy163 O175 2.664 . S
Dy163 O177 2.326 . S
O164 Dy160 2.398 . S
O164 C162 1.185 . S
O165 Dy160 2.491 . S
O165 C162 1.355 . S
O166 Dy160 2.403 . S
O166 C168 1.254 . S
O167 Dy160 2.664 . S
O167 Dy163 2.310 . S
O167 C168 1.268 . S
C168 O166 1.254 . S
C168 O167 1.268 . S
C169 O174 1.254 . S
C169 O175 1.268 . S
O170 Dy163 2.351 . S
O170 C178 1.249 . S
O171 Dy160 2.326 . S
O171 C178 1.267 . S
O172 C161 1.185 . S
O172 Dy163 2.398 . S
O173 C161 1.355 . S
O173 Dy163 2.491 . S
O174 Dy163 2.403 . S
O174 C169 1.254 . S
O175 Dy160 2.310 . S
O175 Dy163 2.664 . S
O175 C169 1.268 . S
O176 Dy160 2.351 . S
O176 C179 1.249 . S
O177 Dy163 2.326 . S
O177 C179 1.267 . S
C178 O170 1.249 . S
C178 O171 1.267 . S
C179 O176 1.249 . S
C179 O177 1.267 . S
Dy180 O184 2.398 1_554 S
Dy180 O185 2.491 1_554 S
Dy180 O186 2.403 . S
Dy180 O187 2.664 . S
Dy180 O191 2.326 . S
Dy180 O195 2.310 . S
Dy180 O196 2.351 . S
C181 O192 1.185 . S
C181 O193 1.355 . S
C182 O184 1.185 . S
C182 O185 1.355 . S
Dy183 O187 2.310 . S
Dy183 O190 2.351 . S
Dy183 O192 2.398 . S
Dy183 O193 2.491 . S
Dy183 O194 2.403 . S
Dy183 O195 2.664 . S
Dy183 O197 2.326 . S
O184 Dy180 2.398 1_556 S
O184 C182 1.185 . S
O185 Dy180 2.491 1_556 S
O185 C182 1.355 . S
O186 Dy180 2.403 . S
O186 C188 1.254 . S
O187 Dy180 2.664 . S
O187 Dy183 2.310 . S
O187 C188 1.268 . S
C188 O186 1.254 . S
C188 O187 1.268 . S
C189 O194 1.254 . S
C189 O195 1.268 . S
O190 Dy183 2.351 . S
O190 C198 1.249 . S
O191 Dy180 2.326 . S
O191 C198 1.267 . S
O192 C181 1.185 . S
O192 Dy183 2.398 . S
O193 C181 1.355 . S
O193 Dy183 2.491 . S
O194 Dy183 2.403 . S
O194 C189 1.254 . S
O195 Dy180 2.310 . S
O195 Dy183 2.664 . S
O195 C189 1.268 . S
O196 Dy180 2.351 . S
O196 C199 1.249 . S
O197 Dy183 2.326 . S
O197 C199 1.267 . S
C198 O190 1.249 . S
C198 O191 1.267 . S
C199 O196 1.249 . S
C199 O197 1.267 . S
Dy200 O204 2.399 1_556 S
Dy200 O205 2.491 1_556 S
Dy200 O206 2.403 . S
Dy200 O207 2.664 . S
Dy200 O211 2.326 . S
Dy200 O215 2.310 . S
Dy200 O216 2.351 . S
C201 O212 1.185 . S
C201 O213 1.355 . S
C202 O204 1.184 . S
C202 O205 1.355 . S
Dy203 O207 2.310 . S
Dy203 O210 2.351 . S
Dy203 O212 2.398 . S
Dy203 O213 2.491 . S
Dy203 O214 2.403 . S
Dy203 O215 2.664 . S
Dy203 O217 2.326 . S
O204 Dy200 2.399 1_554 S
O204 C202 1.184 . S
O205 Dy200 2.491 1_554 S
O205 C202 1.355 . S
O206 Dy200 2.403 . S
O206 C208 1.254 . S
O207 Dy200 2.664 . S
O207 Dy203 2.310 . S
O207 C208 1.268 . S
C208 O206 1.254 . S
C208 O207 1.268 . S
C209 O214 1.254 . S
C209 O215 1.268 . S
O210 Dy203 2.351 . S
O210 C218 1.249 . S
O211 Dy200 2.326 . S
O211 C218 1.267 . S
O212 C201 1.185 . S
O212 Dy203 2.398 . S
O213 C201 1.355 . S
O213 Dy203 2.491 . S
O214 Dy203 2.403 . S
O214 C209 1.254 . S
O215 Dy200 2.310 . S
O215 Dy203 2.664 . S
O215 C209 1.268 . S
O216 Dy200 2.351 . S
O216 C219 1.249 . S
O217 Dy203 2.326 . S
O217 C219 1.267 . S
C218 O210 1.249 . S
C218 O211 1.267 . S
C219 O216 1.249 . S
C219 O217 1.267 . S
Dy220 O224 2.398 . S
Dy220 O225 2.491 . S
Dy220 O226 2.403 . S
Dy220 O227 2.664 . S
Dy220 O231 2.326 . S
Dy220 O235 2.310 . S
Dy220 O236 2.351 . S
C221 O232 1.185 . S
C221 O233 1.355 . S
C222 O224 1.185 . S
C222 O225 1.355 . S
Dy223 O227 2.310 . S
Dy223 O230 2.351 . S
Dy223 O232 2.398 . S
Dy223 O233 2.491 . S
Dy223 O234 2.403 . S
Dy223 O235 2.664 . S
Dy223 O237 2.326 . S
O224 Dy220 2.398 . S
O224 C222 1.185 . S
O225 Dy220 2.491 . S
O225 C222 1.355 . S
O226 Dy220 2.403 . S
O226 C228 1.254 . S
O227 Dy220 2.664 . S
O227 Dy223 2.310 . S
O227 C228 1.268 . S
C228 O226 1.254 . S
C228 O227 1.268 . S
C229 O234 1.254 . S
C229 O235 1.268 . S
O230 Dy223 2.351 . S
O230 C238 1.249 . S
O231 Dy220 2.326 . S
O231 C238 1.267 . S
O232 C221 1.185 . S
O232 Dy223 2.398 . S
O233 C221 1.355 . S
O233 Dy223 2.491 . S
O234 Dy223 2.403 . S
O234 C229 1.254 . S
O235 Dy220 2.310 . S
O235 Dy223 2.664 . S
O235 C229 1.268 . S
O236 Dy220 2.351 . S
O236 C239 1.249 . S
O237 Dy223 2.326 . S
O237 C239 1.267 . S
C238 O230 1.249 . S
C238 O231 1.267 . S
C239 O236 1.249 . S
C239 O237 1.267 . S
Dy240 O244 2.398 . S
Dy240 O245 2.491 . S
Dy240 O246 2.403 . S
Dy240 O247 2.664 . S
Dy240 O251 2.326 . S
Dy240 O255 2.310 . S
Dy240 O256 2.351 . S
C241 O252 1.185 . S
C241 O253 1.355 . S
C242 O244 1.185 . S
C242 O245 1.355 . S
Dy243 O247 2.310 . S
Dy243 O250 2.351 . S
Dy243 O252 2.398 . S
Dy243 O253 2.491 . S
Dy243 O254 2.403 . S
Dy243 O255 2.664 . S
Dy243 O257 2.326 . S
O244 Dy240 2.398 . S
O244 C242 1.185 . S
O245 Dy240 2.491 . S
O245 C242 1.355 . S
O246 Dy240 2.403 . S
O246 C248 1.254 . S
O247 Dy240 2.664 . S
O247 Dy243 2.310 . S
O247 C248 1.268 . S
C248 O246 1.254 . S
C248 O247 1.268 . S
C249 O254 1.254 . S
C249 O255 1.268 . S
O250 Dy243 2.351 . S
O250 C258 1.249 . S
O251 Dy240 2.326 . S
O251 C258 1.267 . S
O252 C241 1.185 . S
O252 Dy243 2.398 . S
O253 C241 1.355 . S
O253 Dy243 2.491 . S
O254 Dy243 2.403 . S
O254 C249 1.254 . S
O255 Dy240 2.310 . S
O255 Dy243 2.664 . S
O255 C249 1.268 . S
O256 Dy240 2.351 . S
O256 C259 1.249 . S
O257 Dy243 2.326 . S
O257 C259 1.267 . S
C258 O250 1.249 . S
C258 O251 1.267 . S
C259 O256 1.249 . S
C259 O257 1.267 . S
Dy260 O264 2.398 . S
Dy260 O265 2.491 . S
Dy260 O266 2.403 . S
Dy260 O267 2.664 1_655 S
Dy260 O271 2.326 1_655 S
Dy260 O275 2.310 . S
Dy260 O276 2.351 . S
C261 O272 1.185 1_556 S
C261 O273 1.355 . S
C262 O264 1.185 . S
C262 O265 1.355 . S
Dy263 O267 2.310 . S
Dy263 O270 2.351 . S
Dy263 O272 2.398 . S
Dy263 O273 2.491 1_554 S
Dy263 O274 2.403 . S
Dy263 O275 2.664 1_455 S
Dy263 O277 2.326 1_455 S
O264 Dy260 2.398 . S
O264 C262 1.185 . S
O265 Dy260 2.491 . S
O265 C262 1.355 . S
O266 Dy260 2.403 . S
O266 C268 1.254 . S
O267 Dy260 2.664 1_455 S
O267 Dy263 2.310 . S
O267 C268 1.268 1_455 S
C268 O266 1.254 . S
C268 O267 1.268 1_655 S
C269 O274 1.254 . S
C269 O275 1.268 1_455 S
O270 Dy263 2.351 . S
O270 C278 1.249 . S
O271 Dy260 2.326 1_455 S
O271 C278 1.267 . S
O272 C261 1.185 1_554 S
O272 Dy263 2.398 . S
O273 C261 1.355 . S
O273 Dy263 2.491 1_556 S
O274 Dy263 2.403 . S
O274 C269 1.254 . S
O275 Dy260 2.310 . S
O275 Dy263 2.664 1_655 S
O275 C269 1.268 1_655 S
O276 Dy260 2.351 . S
O276 C279 1.249 . S
O277 Dy263 2.326 1_655 S
O277 C279 1.267 . S
C278 O270 1.249 . S
C278 O271 1.267 . S
C279 O276 1.249 . S
C279 O277 1.267 . S
Dy280 O284 2.398 . S
Dy280 O285 2.491 . S
Dy280 O286 2.403 . S
Dy280 O287 2.664 . S
Dy280 O291 2.326 . S
Dy280 O295 2.310 . S
Dy280 O296 2.351 . S
C281 O292 1.185 . S
C281 O293 1.355 . S
C282 O284 1.185 . S
C282 O285 1.355 . S
Dy283 O287 2.310 . S
Dy283 O290 2.351 . S
Dy283 O292 2.398 . S
Dy283 O293 2.491 . S
Dy283 O294 2.403 . S
Dy283 O295 2.664 . S
Dy283 O297 2.326 . S
O284 Dy280 2.398 . S
O284 C282 1.185 . S
O285 Dy280 2.491 . S
O285 C282 1.355 . S
O286 Dy280 2.403 . S
O286 C288 1.254 . S
O287 Dy280 2.664 . S
O287 Dy283 2.310 . S
O287 C288 1.268 . S
C288 O286 1.254 . S
C288 O287 1.268 . S
C289 O294 1.254 . S
C289 O295 1.268 . S
O290 Dy283 2.351 . S
O290 C298 1.249 . S
O291 Dy280 2.326 . S
O291 C298 1.267 . S
O292 C281 1.185 . S
O292 Dy283 2.398 . S
O293 C281 1.355 . S
O293 Dy283 2.491 . S
O294 Dy283 2.403 . S
O294 C289 1.254 . S
O295 Dy280 2.310 . S
O295 Dy283 2.664 . S
O295 C289 1.268 . S
O296 Dy280 2.351 . S
O296 C299 1.249 . S
O297 Dy283 2.326 . S
O297 C299 1.267 . S
C298 O290 1.249 . S
C298 O291 1.267 . S
C299 O296 1.249 . S
C299 O297 1.267 . S
Dy300 O304 2.398 . S
Dy300 O305 2.491 . S
Dy300 O306 2.403 . S
Dy300 O307 2.664 1_655 S
Dy300 O311 2.326 1_655 S
Dy300 O315 2.310 . S
Dy300 O316 2.351 . S
C301 O312 1.185 . S
C301 O313 1.355 . S
C302 O304 1.185 . S
C302 O305 1.355 . S
Dy303 O307 2.310 . S
Dy303 O310 2.351 . S
Dy303 O312 2.398 1_556 S
Dy303 O313 2.491 1_556 S
Dy303 O314 2.403 . S
Dy303 O315 2.664 1_455 S
Dy303 O317 2.326 1_455 S
O304 Dy300 2.398 . S
O304 C302 1.185 . S
O305 Dy300 2.491 . S
O305 C302 1.355 . S
O306 Dy300 2.403 . S
O306 C308 1.254 . S
O307 Dy300 2.664 1_455 S
O307 Dy303 2.310 . S
O307 C308 1.268 1_455 S
C308 O306 1.254 . S
C308 O307 1.268 1_655 S
C309 O314 1.254 . S
C309 O315 1.268 1_455 S
O310 Dy303 2.351 . S
O310 C318 1.249 . S
O311 Dy300 2.326 1_455 S
O311 C318 1.267 . S
O312 C301 1.185 . S
O312 Dy303 2.398 1_554 S
O313 C301 1.355 . S
O313 Dy303 2.491 1_554 S
O314 Dy303 2.403 . S
O314 C309 1.254 . S
O315 Dy300 2.310 . S
O315 Dy303 2.664 1_655 S
O315 C309 1.268 1_655 S
O316 Dy300 2.351 . S
O316 C319 1.249 . S
O317 Dy303 2.326 1_655 S
O317 C319 1.267 . S
C318 O310 1.249 . S
C318 O311 1.267 . S
C319 O316 1.249 . S
C319 O317 1.267 . S
C320 C321 1.363 . S
C320 C326 1.379 . S
C320 N328 1.356 . S
C321 C320 1.363 . S
C321 C327 1.363 . S
C322 C323 1.363 . S
C322 C327 1.379 . S
C322 N329 1.356 . S
C323 C322 1.363 . S
C323 C326 1.363 . S
N324 C326 1.356 . S
N324 H336 0.984 . S
N324 H337 0.985 . S
N325 C327 1.356 . S
N325 H330 0.984 . S
N325 H331 0.968 1_455 S
C326 C320 1.379 . S
C326 C323 1.363 . S
C326 N324 1.356 . S
C327 C321 1.363 . S
C327 C322 1.379 . S
C327 N325 1.356 . S
N328 C320 1.356 . S
N328 H334 0.984 . S
N328 H335 0.984 . S
N329 C322 1.356 . S
N329 H332 0.984 . S
N329 H333 0.985 . S
H330 N325 0.984 . S
H331 N325 0.968 1_655 S
H332 N329 0.984 . S
H333 N329 0.985 . S
H334 N328 0.984 . S
H335 N328 0.984 . S
H336 N324 0.984 . S
H337 N324 0.985 . S
C338 C339 1.363 . S
C338 C344 1.379 . S
C338 N346 1.356 . S
C339 C338 1.363 . S
C339 C345 1.363 . S
C340 C341 1.363 . S
C340 C345 1.379 . S
C340 N347 1.356 . S
C341 C340 1.363 . S
C341 C344 1.363 . S
N342 C344 1.356 . S
N342 H354 0.984 1_554 S
N342 H355 0.985 1_554 S
N343 C345 1.356 . S
N343 H348 0.984 . S
N343 H349 0.985 . S
C344 C338 1.379 . S
C344 C341 1.363 . S
C344 N342 1.356 . S
C345 C339 1.363 . S
C345 C340 1.379 . S
C345 N343 1.356 . S
N346 C338 1.356 . S
N346 H352 0.984 . S
N346 H353 0.984 . S
N347 C340 1.356 . S
N347 H350 0.984 . S
N347 H351 0.985 . S
H348 N343 0.984 . S
H349 N343 0.985 . S
H350 N347 0.984 . S
H351 N347 0.985 . S
H352 N346 0.984 . S
H353 N346 0.984 . S
H354 N342 0.984 1_556 S
H355 N342 0.985 1_556 S
C356 C357 1.363 . S
C356 C362 1.379 . S
C356 N364 1.356 . S
C357 C356 1.363 . S
C357 C363 1.363 . S
C358 C359 1.363 . S
C358 C363 1.379 . S
C358 N365 1.356 . S
C359 C358 1.363 . S
C359 C362 1.363 . S
N360 C362 1.356 . S
N360 H372 0.984 . S
N360 H373 0.985 . S
N361 C363 1.356 . S
N361 H366 0.984 . S
N361 H367 0.985 . S
C362 C356 1.379 . S
C362 C359 1.363 . S
C362 N360 1.356 . S
C363 C357 1.363 . S
C363 C358 1.379 . S
C363 N361 1.356 . S
N364 C356 1.356 . S
N364 H370 0.984 . S
N364 H371 0.984 . S
N365 C358 1.356 . S
N365 H368 0.984 . S
N365 H369 0.985 . S
H366 N361 0.984 . S
H367 N361 0.985 . S
H368 N365 0.984 . S
H369 N365 0.985 . S
H370 N364 0.984 . S
H371 N364 0.984 . S
H372 N360 0.984 . S
H373 N360 0.985 . S
C374 C375 1.363 . S
C374 C380 1.379 . S
C374 N382 1.356 . S
C375 C374 1.363 . S
C375 C381 1.363 . S
C376 C377 1.363 . S
C376 C381 1.379 . S
C376 N383 1.356 . S
C377 C376 1.363 . S
C377 C380 1.363 . S
N378 C380 1.356 . S
N378 H390 0.984 . S
N378 H391 0.985 . S
N379 C381 1.356 . S
N379 H384 0.984 . S
N379 H385 0.985 . S
C380 C374 1.379 . S
C380 C377 1.363 . S
C380 N378 1.356 . S
C381 C375 1.363 . S
C381 C376 1.379 . S
C381 N379 1.356 . S
N382 C374 1.356 . S
N382 H388 0.984 . S
N382 H389 0.984 . S
N383 C376 1.356 . S
N383 H386 0.984 . S
N383 H387 0.985 . S
H384 N379 0.984 . S
H385 N379 0.985 . S
H386 N383 0.984 . S
H387 N383 0.985 . S
H388 N382 0.984 . S
H389 N382 0.984 . S
H390 N378 0.984 . S
H391 N378 0.985 . S
C392 C393 1.363 . S
C392 C398 1.379 . S
C392 N400 1.356 . S
C393 C392 1.363 . S
C393 C399 1.363 . S
C394 C395 1.363 . S
C394 C399 1.379 . S
C394 N401 1.356 . S
C395 C394 1.363 . S
C395 C398 1.363 . S
N396 C398 1.341 1_556 S
N396 H408 0.993 . S
N396 H409 0.992 . S
N397 C399 1.356 . S
N397 H402 0.984 . S
N397 H403 0.985 . S
C398 C392 1.379 . S
C398 C395 1.363 . S
C398 N396 1.341 1_554 S
C399 C393 1.363 . S
C399 C394 1.379 . S
C399 N397 1.356 . S
N400 C392 1.356 . S
N400 H406 0.984 . S
N400 H407 0.984 . S
N401 C394 1.356 . S
N401 H404 0.984 . S
N401 H405 0.985 . S
H402 N397 0.984 . S
H403 N397 0.985 . S
H404 N401 0.984 . S
H405 N401 0.985 . S
H406 N400 0.984 . S
H407 N400 0.984 . S
H408 N396 0.993 . S
H409 N396 0.992 . S
C410 C411 1.363 . S
C410 C416 1.379 . S
C410 N418 1.356 . S
C411 C410 1.363 . S
C411 C417 1.363 . S
C412 C413 1.363 . S
C412 C417 1.379 . S
C412 N419 1.356 . S
C413 C412 1.363 . S
C413 C416 1.363 . S
N414 C416 1.356 . S
N414 H426 0.984 . S
N414 H427 0.985 . S
N415 C417 1.356 . S
N415 H420 0.984 . S
N415 H421 0.985 . S
C416 C410 1.379 . S
C416 C413 1.363 . S
C416 N414 1.356 . S
C417 C411 1.363 . S
C417 C412 1.379 . S
C417 N415 1.356 . S
N418 C410 1.356 . S
N418 H424 0.984 . S
N418 H425 0.984 . S
N419 C412 1.356 . S
N419 H422 0.984 . S
N419 H423 0.985 . S
H420 N415 0.984 . S
H421 N415 0.985 . S
H422 N419 0.984 . S
H423 N419 0.985 . S
H424 N418 0.984 . S
H425 N418 0.984 . S
H426 N414 0.984 . S
H427 N414 0.985 . S
C428 C429 1.363 . S
C428 C434 1.379 . S
C428 N436 1.356 . S
C429 C428 1.363 . S
C429 C435 1.363 . S
C430 C431 1.363 . S
C430 C435 1.379 . S
C430 N437 1.356 . S
C431 C430 1.363 . S
C431 C434 1.363 . S
N432 C434 1.356 . S
N432 H444 0.984 . S
N432 H445 0.985 . S
N433 C435 1.356 . S
N433 H438 0.984 . S
N433 H439 0.985 . S
C434 C428 1.379 . S
C434 C431 1.363 . S
C434 N432 1.356 . S
C435 C429 1.363 . S
C435 C430 1.379 . S
C435 N433 1.356 . S
N436 C428 1.356 . S
N436 H442 0.984 . S
N436 H443 0.984 . S
N437 C430 1.356 . S
N437 H440 0.984 . S
N437 H441 0.985 . S
H438 N433 0.984 . S
H439 N433 0.985 . S
H440 N437 0.984 . S
H441 N437 0.985 . S
H442 N436 0.984 . S
H443 N436 0.984 . S
H444 N432 0.984 . S
H445 N432 0.985 . S
C446 C447 1.363 . S
C446 C452 1.379 . S
C446 N454 1.356 . S
C447 C446 1.363 . S
C447 C453 1.363 . S
C448 C449 1.363 . S
C448 C453 1.379 . S
C448 N455 1.356 . S
C449 C448 1.363 . S
C449 C452 1.363 . S
N450 C452 1.356 . S
N450 H462 0.984 . S
N450 H463 0.985 . S
N451 C453 1.356 . S
N451 H456 0.984 . S
N451 H457 0.985 . S
C452 C446 1.379 . S
C452 C449 1.363 . S
C452 N450 1.356 . S
C453 C447 1.363 . S
C453 C448 1.379 . S
C453 N451 1.356 . S
N454 C446 1.356 . S
N454 H460 0.984 . S
N454 H461 0.984 . S
N455 C448 1.356 . S
N455 H458 0.984 . S
N455 H459 0.985 . S
H456 N451 0.984 . S
H457 N451 0.985 . S
H458 N455 0.984 . S
H459 N455 0.985 . S
H460 N454 0.984 . S
H461 N454 0.984 . S
H462 N450 0.984 . S
H463 N450 0.985 . S
C464 C465 1.363 . S
C464 C470 1.379 . S
C464 N472 1.356 . S
C465 C464 1.363 . S
C465 C471 1.363 . S
C466 C467 1.363 . S
C466 C471 1.379 . S
C466 N473 1.356 . S
C467 C466 1.363 . S
C467 C470 1.363 . S
N468 C470 1.356 . S
N468 H480 0.984 . S
N468 H481 0.985 . S
N469 C471 1.356 . S
N469 H474 0.984 . S
N469 H475 0.985 . S
C470 C464 1.379 . S
C470 C467 1.363 . S
C470 N468 1.356 . S
C471 C465 1.363 . S
C471 C466 1.379 . S
C471 N469 1.356 . S
N472 C464 1.356 . S
N472 H478 0.984 . S
N472 H479 0.984 . S
N473 C466 1.356 . S
N473 H476 0.984 . S
N473 H477 0.985 . S
H474 N469 0.984 . S
H475 N469 0.985 . S
H476 N473 0.984 . S
H477 N473 0.985 . S
H478 N472 0.984 . S
H479 N472 0.984 . S
H480 N468 0.984 . S
H481 N468 0.985 . S
C482 C483 1.363 . S
C482 C488 1.379 . S
C482 N490 1.356 . S
C483 C482 1.363 . S
C483 C489 1.363 . S
C484 C485 1.363 . S
C484 C489 1.379 . S
C484 N491 1.356 . S
C485 C484 1.363 . S
C485 C488 1.363 . S
N486 C488 1.356 . S
N486 H498 0.984 . S
N486 H499 0.985 . S
N487 C489 1.356 . S
N487 H492 0.984 . S
N487 H493 0.985 . S
C488 C482 1.379 . S
C488 C485 1.363 . S
C488 N486 1.356 . S
C489 C483 1.363 . S
C489 C484 1.379 . S
C489 N487 1.356 . S
N490 C482 1.356 . S
N490 H496 0.984 . S
N490 H497 0.984 . S
N491 C484 1.356 . S
N491 H494 0.984 . S
N491 H495 0.985 . S
H492 N487 0.984 . S
H493 N487 0.985 . S
H494 N491 0.984 . S
H495 N491 0.985 . S
H496 N490 0.984 . S
H497 N490 0.984 . S
H498 N486 0.984 . S
H499 N486 0.985 . S
C500 C501 1.363 . S
C500 C506 1.379 . S
C500 N508 1.356 . S
C501 C500 1.363 . S
C501 C507 1.363 . S
C502 C503 1.363 . S
C502 C507 1.379 . S
C502 N509 1.356 . S
C503 C502 1.363 . S
C503 C506 1.363 . S
N504 C506 1.356 . S
N504 H516 0.984 . S
N504 H517 0.985 . S
N505 C507 1.356 1_554 S
N505 H510 0.984 . S
N505 H511 0.985 . S
C506 C500 1.379 . S
C506 C503 1.363 . S
C506 N504 1.356 . S
C507 C501 1.363 . S
C507 C502 1.379 . S
C507 N505 1.356 1_556 S
N508 C500 1.356 . S
N508 H514 0.984 1_655 S
N508 H515 0.984 . S
N509 C502 1.356 . S
N509 H512 0.984 . S
N509 H513 0.985 . S
H510 N505 0.984 . S
H511 N505 0.985 . S
H512 N509 0.984 . S
H513 N509 0.985 . S
H514 N508 0.984 1_455 S
H515 N508 0.984 . S
H516 N504 0.984 . S
H517 N504 0.985 . S
C518 C519 1.363 . S
C518 C524 1.379 . S
C518 N526 1.356 . S
C519 C518 1.363 . S
C519 C525 1.363 . S
C520 C521 1.363 . S
C520 C525 1.379 . S
C520 N527 1.356 . S
C521 C520 1.363 . S
C521 C524 1.363 . S
N522 C524 1.356 . S
N522 H534 0.984 . S
N522 H535 0.985 . S
N523 C525 1.356 . S
N523 H528 0.984 . S
N523 H529 0.985 . S
C524 C518 1.379 . S
C524 C521 1.363 . S
C524 N522 1.356 . S
C525 C519 1.363 . S
C525 C520 1.379 . S
C525 N523 1.356 . S
N526 C518 1.356 . S
N526 H532 0.984 . S
N526 H533 0.984 . S
N527 C520 1.356 . S
N527 H530 0.984 1_554 S
N527 H531 0.985 1_554 S
H528 N523 0.984 . S
H529 N523 0.985 . S
H530 N527 0.984 1_556 S
H531 N527 0.985 1_556 S
H532 N526 0.984 . S
H533 N526 0.984 . S
H534 N522 0.984 . S
H535 N522 0.985 . S
C536 C537 1.363 . S
C536 C542 1.379 . S
C536 N544 1.356 . S
C537 C536 1.363 . S
C537 C543 1.363 . S
C538 C539 1.363 . S
C538 C543 1.379 . S
C538 N545 1.356 . S
C539 C538 1.363 . S
C539 C542 1.363 . S
N540 C542 1.356 . S
N540 H552 0.984 . S
N540 H553 0.985 . S
N541 C543 1.356 . S
N541 H546 0.984 . S
N541 H547 0.985 . S
C542 C536 1.379 . S
C542 C539 1.363 . S
C542 N540 1.356 . S
C543 C537 1.363 . S
C543 C538 1.379 . S
C543 N541 1.356 . S
N544 C536 1.356 . S
N544 H550 0.984 . S
N544 H551 0.984 . S
N545 C538 1.356 . S
N545 H548 0.984 . S
N545 H549 0.985 . S
H546 N541 0.984 . S
H547 N541 0.985 . S
H548 N545 0.984 . S
H549 N545 0.985 . S
H550 N544 0.984 . S
H551 N544 0.984 . S
H552 N540 0.984 . S
H553 N540 0.985 . S
C554 C555 1.363 . S
C554 C560 1.379 . S
C554 N562 1.356 . S
C555 C554 1.363 . S
C555 C561 1.363 . S
C556 C557 1.363 . S
C556 C561 1.379 . S
C556 N563 1.356 . S
C557 C556 1.363 . S
C557 C560 1.363 . S
N558 C560 1.356 . S
N558 H570 0.984 . S
N558 H571 0.985 . S
N559 C561 1.356 . S
N559 H564 0.984 . S
N559 H565 0.985 . S
C560 C554 1.379 . S
C560 C557 1.363 . S
C560 N558 1.356 . S
C561 C555 1.363 . S
C561 C556 1.379 . S
C561 N559 1.356 . S
N562 C554 1.356 . S
N562 H568 0.984 . S
N562 H569 0.984 . S
N563 C556 1.356 . S
N563 H566 0.984 . S
N563 H567 0.985 . S
H564 N559 0.984 . S
H565 N559 0.985 . S
H566 N563 0.984 . S
H567 N563 0.985 . S
H568 N562 0.984 . S
H569 N562 0.984 . S
H570 N558 0.984 . S
H571 N558 0.985 . S
C572 C573 1.363 . S
C572 C578 1.379 . S
C572 N580 1.356 . S
C573 C572 1.363 . S
C573 C579 1.363 . S
C574 C575 1.363 . S
C574 C579 1.379 . S
C574 N581 1.356 . S
C575 C574 1.363 . S
C575 C578 1.363 . S
N576 C578 1.356 . S
N576 H588 0.984 . S
N576 H589 0.985 . S
N577 C579 1.356 . S
N577 H582 0.984 . S
N577 H583 0.985 . S
C578 C572 1.379 . S
C578 C575 1.363 . S
C578 N576 1.356 . S
C579 C573 1.363 . S
C579 C574 1.379 . S
C579 N577 1.356 . S
N580 C572 1.356 . S
N580 H586 0.984 . S
N580 H587 0.984 . S
N581 C574 1.356 . S
N581 H584 0.984 1_554 S
N581 H585 0.985 1_554 S
H582 N577 0.984 . S
H583 N577 0.985 . S
H584 N581 0.984 1_556 S
H585 N581 0.985 1_556 S
H586 N580 0.984 . S
H587 N580 0.984 . S
H588 N576 0.984 . S
H589 N576 0.985 . S
C590 C591 1.363 . S
C590 C596 1.379 . S
C590 N598 1.356 . S
C591 C590 1.363 . S
C591 C597 1.363 . S
C592 C593 1.363 . S
C592 C597 1.379 . S
C592 N599 1.356 . S
C593 C592 1.363 . S
C593 C596 1.363 . S
N594 C596 1.356 . S
N594 H606 0.984 . S
N594 H607 0.985 . S
N595 C597 1.356 . S
N595 H600 0.984 . S
N595 H601 0.985 . S
C596 C590 1.379 . S
C596 C593 1.363 . S
C596 N594 1.356 . S
C597 C591 1.363 . S
C597 C592 1.379 . S
C597 N595 1.356 . S
N598 C590 1.356 . S
N598 H604 0.984 . S
N598 H605 0.984 . S
N599 C592 1.356 . S
N599 H602 0.984 . S
N599 H603 0.985 . S
H600 N595 0.984 . S
H601 N595 0.985 . S
H602 N599 0.984 . S
H603 N599 0.985 . S
H604 N598 0.984 . S
H605 N598 0.984 . S
H606 N594 0.984 . S
H607 N594 0.985 . S
C608 C609 1.363 . S
C608 C614 1.379 . S
C608 N616 1.356 . S
C609 C608 1.363 . S
C609 C615 1.363 1_455 S
C610 C611 1.363 1_655 S
C610 C615 1.379 . S
C610 N617 1.356 . S
C611 C610 1.363 1_455 S
C611 C614 1.363 . S
N612 C614 1.356 . S
N612 H624 0.984 . S
N612 H625 0.985 . S
N613 C615 1.356 . S
N613 H618 0.984 . S
N613 H619 0.985 . S
C614 C608 1.379 . S
C614 C611 1.363 . S
C614 N612 1.356 . S
C615 C609 1.363 1_655 S
C615 C610 1.379 . S
C615 N613 1.356 . S
N616 C608 1.356 . S
N616 H622 0.984 . S
N616 H623 0.984 . S
N617 C610 1.356 . S
N617 H620 0.984 . S
N617 H621 0.985 . S
H618 N613 0.984 . S
H619 N613 0.985 . S
H620 N617 0.984 . S
H621 N617 0.985 . S
H622 N616 0.984 . S
H623 N616 0.984 . S
H624 N612 0.984 . S
H625 N612 0.985 . S
C626 C627 1.363 . S
C626 C632 1.379 1_655 S
C626 N634 1.356 . S
C627 C626 1.363 . S
C627 C633 1.363 . S
C628 C629 1.363 . S
C628 C633 1.379 1_455 S
C628 N635 1.356 . S
C629 C628 1.363 . S
C629 C632 1.363 . S
N630 C632 1.356 . S
N630 H642 0.984 . S
N630 H643 0.985 . S
N631 C633 1.356 . S
N631 H636 0.984 . S
N631 H637 0.985 . S
C632 C626 1.379 1_455 S
C632 C629 1.363 . S
C632 N630 1.356 . S
C633 C627 1.363 . S
C633 C628 1.379 1_655 S
C633 N631 1.356 . S
N634 C626 1.356 . S
N634 H640 0.984 . S
N634 H641 0.984 . S
N635 C628 1.356 . S
N635 H638 0.984 . S
N635 H639 0.985 . S
H636 N631 0.984 . S
H637 N631 0.985 . S
H638 N635 0.984 . S
H639 N635 0.985 . S
H640 N634 0.984 . S
H641 N634 0.984 . S
H642 N630 0.984 . S
H643 N630 0.985 . S
C644 C645 1.363 . S
C644 C650 1.379 . S
C644 N652 1.356 . S
C645 C644 1.363 . S
C645 C651 1.363 . S
C646 C647 1.363 . S
C646 C651 1.379 . S
C646 N653 1.356 . S
C647 C646 1.363 . S
C647 C650 1.363 . S
N648 C650 1.356 . S
N648 H660 0.984 . S
N648 H661 0.985 . S
N649 C651 1.356 . S
N649 H654 0.984 . S
N649 H655 0.985 . S
C650 C644 1.379 . S
C650 C647 1.363 . S
C650 N648 1.356 . S
C651 C645 1.363 . S
C651 C646 1.379 . S
C651 N649 1.356 . S
N652 C644 1.356 . S
N652 H658 0.984 . S
N652 H659 0.984 . S
N653 C646 1.356 . S
N653 H656 0.984 . S
N653 H657 0.985 . S
H654 N649 0.984 . S
H655 N649 0.985 . S
H656 N653 0.984 . S
H657 N653 0.985 . S
H658 N652 0.984 . S
H659 N652 0.984 . S
H660 N648 0.984 . S
H661 N648 0.985 . S
C662 C663 1.363 . S
C662 C668 1.379 . S
C662 N670 1.356 . S
C663 C662 1.363 . S
C663 C669 1.363 . S
C664 C665 1.363 . S
C664 C669 1.379 . S
C664 N671 1.356 . S
C665 C664 1.363 . S
C665 C668 1.363 . S
N666 C668 1.356 . S
N666 H678 0.984 . S
N666 H679 0.985 . S
N667 C669 1.356 . S
N667 H672 0.984 . S
N667 H673 0.985 . S
C668 C662 1.379 . S
C668 C665 1.363 . S
C668 N666 1.356 . S
C669 C663 1.363 . S
C669 C664 1.379 . S
C669 N667 1.356 . S
N670 C662 1.356 . S
N670 H676 0.984 . S
N670 H677 0.984 . S
N671 C664 1.356 . S
N671 H674 0.984 . S
N671 H675 0.985 . S
H672 N667 0.984 . S
H673 N667 0.985 . S
H674 N671 0.984 . S
H675 N671 0.985 . S
H676 N670 0.984 . S
H677 N670 0.984 . S
H678 N666 0.984 . S
H679 N666 0.985 . S
C680 C681 1.363 . S
C680 C686 1.379 . S
C680 N688 1.356 . S
C681 C680 1.363 . S
C681 C687 1.363 1_455 S
C682 C683 1.363 1_655 S
C682 C687 1.379 . S
C682 N689 1.356 . S
C683 C682 1.363 1_455 S
C683 C686 1.363 . S
N684 C686 1.356 . S
N684 H696 0.984 . S
N684 H697 0.985 . S
N685 C687 1.356 . S
N685 H690 0.984 . S
N685 H691 0.985 . S
C686 C680 1.379 . S
C686 C683 1.363 . S
C686 N684 1.356 . S
C687 C681 1.363 1_655 S
C687 C682 1.379 . S
C687 N685 1.356 . S
N688 C680 1.356 . S
N688 H694 0.984 . S
N688 H695 0.984 . S
N689 C682 1.356 . S
N689 H692 0.984 . S
N689 H693 0.985 . S
H690 N685 0.984 . S
H691 N685 0.985 . S
H692 N689 0.984 . S
H693 N689 0.985 . S
H694 N688 0.984 . S
H695 N688 0.984 . S
H696 N684 0.984 . S
H697 N684 0.985 . S
C698 C699 1.363 . S
C698 C704 1.379 . S
C698 N706 1.356 . S
C699 C698 1.363 . S
C699 C705 1.363 . S
C700 C701 1.363 . S
C700 C705 1.379 . S
C700 N707 1.356 . S
C701 C700 1.363 . S
C701 C704 1.363 . S
N702 C704 1.356 . S
N702 H714 0.984 . S
N702 H715 0.985 . S
N703 C705 1.356 . S
N703 H708 0.984 . S
N703 H709 0.985 1_554 S
C704 C698 1.379 . S
C704 C701 1.363 . S
C704 N702 1.356 . S
C705 C699 1.363 . S
C705 C700 1.379 . S
C705 N703 1.356 . S
N706 C698 1.356 . S
N706 H712 0.984 . S
N706 H713 0.984 . S
N707 C700 1.356 . S
N707 H710 0.984 . S
N707 H711 0.985 1_554 S
H708 N703 0.984 . S
H709 N703 0.985 1_556 S
H710 N707 0.984 . S
H711 N707 0.985 1_556 S
H712 N706 0.984 . S
H713 N706 0.984 . S
H714 N702 0.984 . S
H715 N702 0.985 . S
C716 C717 1.363 . S
C716 C722 1.379 . S
C716 N724 1.356 . S
C717 C716 1.363 . S
C717 C723 1.363 . S
C718 C719 1.363 . S
C718 C723 1.379 . S
C718 N725 1.356 . S
C719 C718 1.363 . S
C719 C722 1.363 . S
N720 C722 1.356 . S
N720 H732 0.984 . S
N720 H733 0.985 . S
N721 C723 1.356 . S
N721 H726 0.984 . S
N721 H727 0.985 . S
C722 C716 1.379 . S
C722 C719 1.363 . S
C722 N720 1.356 . S
C723 C717 1.363 . S
C723 C718 1.379 . S
C723 N721 1.356 . S
N724 C716 1.356 . S
N724 H730 0.984 . S
N724 H731 0.984 . S
N725 C718 1.356 . S
N725 H728 0.984 . S
N725 H729 0.985 . S
H726 N721 0.984 . S
H727 N721 0.985 . S
H728 N725 0.984 . S
H729 N725 0.985 . S
H730 N724 0.984 . S
H731 N724 0.984 . S
H732 N720 0.984 . S
H733 N720 0.985 . S
C734 C735 1.363 . S
C734 C740 1.379 1_455 S
C734 N742 1.356 . S
C735 C734 1.363 . S
C735 C741 1.363 . S
C736 C737 1.363 . S
C736 C741 1.379 1_655 S
C736 N743 1.356 . S
C737 C736 1.363 . S
C737 C740 1.363 . S
N738 C740 1.356 . S
N738 H750 0.984 . S
N738 H751 0.985 . S
N739 C741 1.356 . S
N739 H744 0.984 . S
N739 H745 0.985 . S
C740 C734 1.379 1_655 S
C740 C737 1.363 . S
C740 N738 1.356 . S
C741 C735 1.363 . S
C741 C736 1.379 1_455 S
C741 N739 1.356 . S
N742 C734 1.356 . S
N742 H748 0.984 . S
N742 H749 0.984 . S
N743 C736 1.356 . S
N743 H746 0.984 . S
N743 H747 0.985 . S
H744 N739 0.984 . S
H745 N739 0.985 . S
H746 N743 0.984 . S
H747 N743 0.985 . S
H748 N742 0.984 . S
H749 N742 0.984 . S
H750 N738 0.984 . S
H751 N738 0.985 . S
C752 C753 1.363 1_656 S
C752 C758 1.379 . S
C752 N760 1.356 1_556 S
C753 C752 1.363 1_454 S
C753 C759 1.363 1_545 S
C754 C755 1.363 . S
C754 C759 1.379 1_556 S
C754 N761 1.356 . S
C755 C754 1.363 . S
C755 C758 1.363 1_465 S
N756 C758 1.356 . S
N756 H768 0.984 . S
N756 H769 0.985 1_545 S
N757 C759 1.356 . S
N757 H762 0.984 1_565 S
N757 H763 0.985 . S
C758 C752 1.379 . S
C758 C755 1.363 1_645 S
C758 N756 1.356 . S
C759 C753 1.363 1_565 S
C759 C754 1.379 1_554 S
C759 N757 1.356 . S
N760 C752 1.356 1_554 S
N760 H766 0.984 1_554 S
N760 H767 0.984 . S
N761 C754 1.356 . S
N761 H764 0.984 . S
N761 H765 0.985 . S
H762 N757 0.984 1_545 S
H763 N757 0.985 . S
H764 N761 0.984 . S
H765 N761 0.985 . S
H766 N760 0.984 1_556 S
H767 N760 0.984 . S
H768 N756 0.984 . S
H769 N756 0.985 1_565 S
C770 C771 1.363 . S
C770 C776 1.379 . S
C770 N778 1.356 . S
C771 C770 1.363 . S
C771 C777 1.363 . S
C772 C773 1.363 . S
C772 C777 1.379 . S
C772 N779 1.356 . S
C773 C772 1.363 . S
C773 C776 1.363 . S
N774 C776 1.356 . S
N774 H786 0.984 . S
N774 H787 0.985 . S
N775 C777 1.356 . S
N775 H780 0.984 . S
N775 H781 0.985 . S
C776 C770 1.379 . S
C776 C773 1.363 . S
C776 N774 1.356 . S
C777 C771 1.363 . S
C777 C772 1.379 . S
C777 N775 1.356 . S
N778 C770 1.356 . S
N778 H784 0.984 . S
N778 H785 0.984 . S
N779 C772 1.356 . S
N779 H782 0.984 . S
N779 H783 0.985 . S
H780 N775 0.984 . S
H781 N775 0.985 . S
H782 N779 0.984 . S
H783 N779 0.985 . S
H784 N778 0.984 . S
H785 N778 0.984 . S
H786 N774 0.984 . S
H787 N774 0.985 . S
C788 C789 1.363 1_565 S
C788 C794 1.379 . S
C788 N796 1.356 . S
C789 C788 1.363 1_545 S
C789 C795 1.363 . S
C790 C791 1.363 1_545 S
C790 C795 1.379 . S
C790 N797 1.356 . S
C791 C790 1.363 1_565 S
C791 C794 1.363 . S
N792 C794 1.356 . S
N792 H804 0.984 . S
N792 H805 0.985 . S
N793 C795 1.356 . S
N793 H798 0.984 . S
N793 H799 0.985 . S
C794 C788 1.379 . S
C794 C791 1.363 . S
C794 N792 1.356 . S
C795 C789 1.363 . S
C795 C790 1.379 . S
C795 N793 1.356 . S
N796 C788 1.356 . S
N796 H802 0.984 . S
N796 H803 0.984 1_565 S
N797 C790 1.356 . S
N797 H800 0.984 1_545 S
N797 H801 0.985 . S
H798 N793 0.984 . S
H799 N793 0.985 . S
H800 N797 0.984 1_565 S
H801 N797 0.985 . S
H802 N796 0.984 . S
H803 N796 0.984 1_545 S
H804 N792 0.984 . S
H805 N792 0.985 . S
C806 C807 1.363 . S
C806 C812 1.379 . S
C806 N814 1.356 . S
C807 C806 1.363 . S
C807 C813 1.363 . S
C808 C809 1.363 . S
C808 C813 1.379 . S
C808 N815 1.356 . S
C809 C808 1.363 . S
C809 C812 1.363 . S
N810 C812 1.356 . S
N810 H822 0.984 . S
N810 H823 0.985 . S
N811 C813 1.356 . S
N811 H816 0.984 . S
N811 H817 0.985 . S
C812 C806 1.379 . S
C812 C809 1.363 . S
C812 N810 1.356 . S
C813 C807 1.363 . S
C813 C808 1.379 . S
C813 N811 1.356 . S
N814 C806 1.356 . S
N814 H820 0.984 . S
N814 H821 0.984 . S
N815 C808 1.356 . S
N815 H818 0.984 . S
N815 H819 0.985 . S
H816 N811 0.984 . S
H817 N811 0.985 . S
H818 N815 0.984 . S
H819 N815 0.985 . S
H820 N814 0.984 . S
H821 N814 0.984 . S
H822 N810 0.984 . S
H823 N810 0.985 . S
C824 C825 1.363 . S
C824 C830 1.379 . S
C824 N832 1.356 . S
C825 C824 1.363 . S
C825 C831 1.363 . S
C826 C827 1.363 . S
C826 C831 1.379 . S
C826 N833 1.356 . S
C827 C826 1.363 . S
C827 C830 1.363 . S
N828 C830 1.356 . S
N828 H840 0.984 . S
N828 H841 0.985 . S
N829 C831 1.356 . S
N829 H834 0.984 . S
N829 H835 0.985 . S
C830 C824 1.379 . S
C830 C827 1.363 . S
C830 N828 1.356 . S
C831 C825 1.363 . S
C831 C826 1.379 . S
C831 N829 1.356 . S
N832 C824 1.356 . S
N832 H838 0.984 . S
N832 H839 0.984 . S
N833 C826 1.356 . S
N833 H836 0.984 . S
N833 H837 0.985 . S
H834 N829 0.984 . S
H835 N829 0.985 . S
H836 N833 0.984 . S
H837 N833 0.985 . S
H838 N832 0.984 . S
H839 N832 0.984 . S
H840 N828 0.984 . S
H841 N828 0.985 . S
C842 C843 1.363 . S
C842 C848 1.379 . S
C842 N850 1.356 . S
C843 C842 1.363 . S
C843 C849 1.363 . S
C844 C845 1.363 . S
C844 C849 1.379 . S
C844 N851 1.356 . S
C845 C844 1.363 . S
C845 C848 1.363 . S
N846 C848 1.356 . S
N846 H858 0.984 . S
N846 H859 0.985 . S
N847 C849 1.356 . S
N847 H852 0.984 . S
N847 H853 0.985 . S
C848 C842 1.379 . S
C848 C845 1.363 . S
C848 N846 1.356 . S
C849 C843 1.363 . S
C849 C844 1.379 . S
C849 N847 1.356 . S
N850 C842 1.356 . S
N850 H856 0.984 . S
N850 H857 0.984 . S
N851 C844 1.356 . S
N851 H854 0.984 . S
N851 H855 0.985 . S
H852 N847 0.984 . S
H853 N847 0.985 . S
H854 N851 0.984 . S
H855 N851 0.985 . S
H856 N850 0.984 . S
H857 N850 0.984 . S
H858 N846 0.984 . S
H859 N846 0.985 . S
C860 C861 1.363 . S
C860 C866 1.379 . S
C860 N868 1.356 . S
C861 C860 1.363 . S
C861 C867 1.363 . S
C862 C863 1.363 . S
C862 C867 1.379 . S
C862 N869 1.356 . S
C863 C862 1.363 . S
C863 C866 1.363 . S
N864 C866 1.356 . S
N864 H876 0.984 . S
N864 H877 0.985 . S
N865 C867 1.356 . S
N865 H870 0.984 . S
N865 H871 0.985 . S
C866 C860 1.379 . S
C866 C863 1.363 . S
C866 N864 1.356 . S
C867 C861 1.363 . S
C867 C862 1.379 . S
C867 N865 1.356 . S
N868 C860 1.356 . S
N868 H874 0.984 . S
N868 H875 0.984 . S
N869 C862 1.356 . S
N869 H872 0.984 . S
N869 H873 0.985 . S
H870 N865 0.984 . S
H871 N865 0.985 . S
H872 N869 0.984 . S
H873 N869 0.985 . S
H874 N868 0.984 . S
H875 N868 0.984 . S
H876 N864 0.984 . S
H877 N864 0.985 . S
C878 C879 1.363 1_554 S
C878 C884 1.379 . S
C878 N886 1.356 1_554 S
C879 C878 1.363 1_556 S
C879 C885 1.363 1_455 S
C880 C881 1.363 1_655 S
C880 C885 1.379 1_554 S
C880 N887 1.356 . S
C881 C880 1.363 1_455 S
C881 C884 1.363 . S
N882 C884 1.356 . S
N882 H894 0.984 . S
N882 H895 0.985 . S
N883 C885 1.356 . S
N883 H888 0.984 . S
N883 H889 0.985 . S
C884 C878 1.379 . S
C884 C881 1.363 . S
C884 N882 1.356 . S
C885 C879 1.363 1_655 S
C885 C880 1.379 1_556 S
C885 N883 1.356 . S
N886 C878 1.356 1_556 S
N886 H892 0.984 1_556 S
N886 H893 0.984 . S
N887 C880 1.356 . S
N887 H890 0.984 . S
N887 H891 0.985 . S
H888 N883 0.984 . S
H889 N883 0.985 . S
H890 N887 0.984 . S
H891 N887 0.985 . S
H892 N886 0.984 1_554 S
H893 N886 0.984 . S
H894 N882 0.984 . S
H895 N882 0.985 . S
C896 C897 1.363 . S
C896 C902 1.379 . S
C896 N904 1.356 . S
C897 C896 1.363 . S
C897 C903 1.363 . S
C898 C899 1.363 . S
C898 C903 1.379 . S
C898 N905 1.356 . S
C899 C898 1.363 . S
C899 C902 1.363 . S
N900 C902 1.356 . S
N900 H912 0.984 . S
N900 H913 0.985 . S
N901 C903 1.356 . S
N901 H906 0.984 . S
N901 H907 0.985 . S
C902 C896 1.379 . S
C902 C899 1.363 . S
C902 N900 1.356 . S
C903 C897 1.363 . S
C903 C898 1.379 . S
C903 N901 1.356 . S
N904 C896 1.356 . S
N904 H910 0.984 . S
N904 H911 0.984 . S
N905 C898 1.356 . S
N905 H908 0.984 . S
N905 H909 0.985 . S
H906 N901 0.984 . S
H907 N901 0.985 . S
H908 N905 0.984 . S
H909 N905 0.985 . S
H910 N904 0.984 . S
H911 N904 0.984 . S
H912 N900 0.984 . S
H913 N900 0.985 . S
C914 C915 1.363 . S
C914 C920 1.379 . S
C914 N922 1.356 . S
C915 C914 1.363 . S
C915 C921 1.363 . S
C916 C917 1.363 . S
C916 C921 1.379 . S
C916 N923 1.356 . S
C917 C916 1.363 . S
C917 C920 1.363 . S
N918 C920 1.356 . S
N918 H930 0.984 . S
N918 H931 0.985 . S
N919 C921 1.356 . S
N919 H924 0.984 . S
N919 H925 0.985 . S
C920 C914 1.379 . S
C920 C917 1.363 . S
C920 N918 1.356 . S
C921 C915 1.363 . S
C921 C916 1.379 . S
C921 N919 1.356 . S
N922 C914 1.356 . S
N922 H928 0.984 . S
N922 H929 0.984 . S
N923 C916 1.356 . S
N923 H926 0.984 . S
N923 H927 0.985 . S
H924 N919 0.984 . S
H925 N919 0.985 . S
H926 N923 0.984 . S
H927 N923 0.985 . S
H928 N922 0.984 . S
H929 N922 0.984 . S
H930 N918 0.984 . S
H931 N918 0.985 . S
C932 C933 1.363 . S
C932 C938 1.379 . S
C932 N940 1.356 . S
C933 C932 1.363 . S
C933 C939 1.363 . S
C934 C935 1.363 . S
C934 C939 1.379 . S
C934 N941 1.356 . S
C935 C934 1.363 . S
C935 C938 1.363 . S
N936 C938 1.356 . S
N936 H948 0.984 . S
N936 H949 0.985 . S
N937 C939 1.356 1_554 S
N937 H942 0.984 . S
N937 H943 0.985 . S
C938 C932 1.379 . S
C938 C935 1.363 . S
C938 N936 1.356 . S
C939 C933 1.363 . S
C939 C934 1.379 . S
C939 N937 1.356 1_556 S
N940 C932 1.356 . S
N940 H946 0.984 . S
N940 H947 0.984 . S
N941 C934 1.356 . S
N941 H944 0.984 . S
N941 H945 0.985 . S
H942 N937 0.984 . S
H943 N937 0.985 . S
H944 N941 0.984 . S
H945 N941 0.985 . S
H946 N940 0.984 . S
H947 N940 0.984 . S
H948 N936 0.984 . S
H949 N936 0.985 . S
C950 C951 1.363 . S
C950 C956 1.379 . S
C950 N958 1.356 . S
C951 C950 1.363 . S
C951 C957 1.363 . S
C952 C953 1.363 . S
C952 C957 1.379 . S
C952 N959 1.356 . S
C953 C952 1.363 . S
C953 C956 1.363 . S
N954 C956 1.356 . S
N954 H966 0.984 1_554 S
N954 H967 0.985 1_554 S
N955 C957 1.356 . S
N955 H960 0.984 . S
N955 H961 0.985 . S
C956 C950 1.379 . S
C956 C953 1.363 . S
C956 N954 1.356 . S
C957 C951 1.363 . S
C957 C952 1.379 . S
C957 N955 1.356 . S
N958 C950 1.356 . S
N958 H964 0.984 . S
N958 H965 0.984 . S
N959 C952 1.356 . S
N959 H962 0.984 . S
N959 H963 0.985 . S
H960 N955 0.984 . S
H961 N955 0.985 . S
H962 N959 0.984 . S
H963 N959 0.985 . S
H964 N958 0.984 . S
H965 N958 0.984 . S
H966 N954 0.984 1_556 S
H967 N954 0.985 1_556 S
C968 C969 1.363 . S
C968 C974 1.379 . S
C968 N976 1.356 . S
C969 C968 1.363 . S
C969 C975 1.363 . S
C970 C971 1.363 . S
C970 C975 1.379 . S
C970 N977 1.356 . S
C971 C970 1.363 . S
C971 C974 1.363 . S
N972 C974 1.356 . S
N972 H984 0.984 . S
N972 H985 0.985 . S
N973 C975 1.356 . S
N973 H978 0.984 . S
N973 H979 0.985 . S
C974 C968 1.379 . S
C974 C971 1.363 . S
C974 N972 1.356 . S
C975 C969 1.363 . S
C975 C970 1.379 . S
C975 N973 1.356 . S
N976 C968 1.356 . S
N976 H982 0.984 . S
N976 H983 0.984 . S
N977 C970 1.356 . S
N977 H980 0.984 . S
N977 H981 0.985 . S
H978 N973 0.984 . S
H979 N973 0.985 . S
H980 N977 0.984 . S
H981 N977 0.985 . S
H982 N976 0.984 . S
H983 N976 0.984 . S
H984 N972 0.984 . S
H985 N972 0.985 . S
C986 C987 1.363 . S
C986 C992 1.379 . S
C986 N994 1.356 . S
C987 C986 1.363 . S
C987 C993 1.363 . S
C988 C989 1.363 . S
C988 C993 1.379 . S
C988 N995 1.356 . S
C989 C988 1.363 . S
C989 C992 1.363 . S
N990 C992 1.356 . S
N990 H1002 0.984 . S
N990 H1003 0.985 . S
N991 C993 1.356 . S
N991 H996 0.984 . S
N991 H997 0.985 . S
C992 C986 1.379 . S
C992 C989 1.363 . S
C992 N990 1.356 . S
C993 C987 1.363 . S
C993 C988 1.379 . S
C993 N991 1.356 . S
N994 C986 1.356 . S
N994 H1000 0.984 . S
N994 H1001 0.984 . S
N995 C988 1.356 . S
N995 H998 0.984 . S
N995 H999 0.985 . S
H996 N991 0.984 . S
H997 N991 0.985 . S
H998 N995 0.984 . S
H999 N995 0.985 . S
H1000 N994 0.984 . S
H1001 N994 0.984 . S
H1002 N990 0.984 . S
H1003 N990 0.985 . S
C1004 C1005 1.363 . S
C1004 C1010 1.379 . S
C1004 N1012 1.356 . S
C1005 C1004 1.363 . S
C1005 C1011 1.363 . S
C1006 C1007 1.363 . S
C1006 C1011 1.379 . S
C1006 N1013 1.356 . S
C1007 C1006 1.363 . S
C1007 C1010 1.363 . S
N1008 C1010 1.356 . S
N1008 H1020 0.984 . S
N1008 H1021 0.985 . S
N1009 C1011 1.356 . S
N1009 H1014 0.984 . S
N1009 H1015 0.985 . S
C1010 C1004 1.379 . S
C1010 C1007 1.363 . S
C1010 N1008 1.356 . S
C1011 C1005 1.363 . S
C1011 C1006 1.379 . S
C1011 N1009 1.356 . S
N1012 C1004 1.356 . S
N1012 H1018 0.984 . S
N1012 H1019 0.984 1_554 S
N1013 C1006 1.356 . S
N1013 H1016 0.984 . S
N1013 H1017 0.985 . S
H1014 N1009 0.984 . S
H1015 N1009 0.985 . S
H1016 N1013 0.984 . S
H1017 N1013 0.985 . S
H1018 N1012 0.984 . S
H1019 N1012 0.984 1_556 S
H1020 N1008 0.984 . S
H1021 N1008 0.985 . S
C1022 C1023 1.363 . S
C1022 C1028 1.379 . S
C1022 N1030 1.356 . S
C1023 C1022 1.363 . S
C1023 C1029 1.363 . S
C1024 C1025 1.363 . S
C1024 C1029 1.379 . S
C1024 N1031 1.356 . S
C1025 C1024 1.363 . S
C1025 C1028 1.363 . S
N1026 C1028 1.356 . S
N1026 H1038 0.984 . S
N1026 H1039 0.985 . S
N1027 C1029 1.356 . S
N1027 H1032 0.984 . S
N1027 H1033 0.985 . S
C1028 C1022 1.379 . S
C1028 C1025 1.363 . S
C1028 N1026 1.356 . S
C1029 C1023 1.363 . S
C1029 C1024 1.379 . S
C1029 N1027 1.356 . S
N1030 C1022 1.356 . S
N1030 H1036 0.984 . S
N1030 H1037 0.984 . S
N1031 C1024 1.356 . S
N1031 H1034 0.984 . S
N1031 H1035 0.985 . S
H1032 N1027 0.984 . S
H1033 N1027 0.985 . S
H1034 N1031 0.984 . S
H1035 N1031 0.985 . S
H1036 N1030 0.984 . S
H1037 N1030 0.984 . S
H1038 N1026 0.984 . S
H1039 N1026 0.985 . S
C1040 C1041 1.363 . S
C1040 C1046 1.379 . S
C1040 N1048 1.356 . S
C1041 C1040 1.363 . S
C1041 C1047 1.363 . S
C1042 C1043 1.363 . S
C1042 C1047 1.379 . S
C1042 N1049 1.356 . S
C1043 C1042 1.363 . S
C1043 C1046 1.363 . S
N1044 C1046 1.356 . S
N1044 H1056 0.984 1_556 S
N1044 H1057 0.985 1_556 S
N1045 C1047 1.356 . S
N1045 H1050 0.984 . S
N1045 H1051 0.985 . S
C1046 C1040 1.379 . S
C1046 C1043 1.363 . S
C1046 N1044 1.356 . S
C1047 C1041 1.363 . S
C1047 C1042 1.379 . S
C1047 N1045 1.356 . S
N1048 C1040 1.356 . S
N1048 H1054 0.984 . S
N1048 H1055 0.984 . S
N1049 C1042 1.356 . S
N1049 H1052 0.984 . S
N1049 H1053 0.985 . S
H1050 N1045 0.984 . S
H1051 N1045 0.985 . S
H1052 N1049 0.984 . S
H1053 N1049 0.985 . S
H1054 N1048 0.984 . S
H1055 N1048 0.984 . S
H1056 N1044 0.984 1_554 S
H1057 N1044 0.985 1_554 S
C1058 C1059 1.363 . S
C1058 C1064 1.379 . S
C1058 N1066 1.356 . S
C1059 C1058 1.363 . S
C1059 C1065 1.363 . S
C1060 C1061 1.363 . S
C1060 C1065 1.379 . S
C1060 N1067 1.356 . S
C1061 C1060 1.363 . S
C1061 C1064 1.363 . S
N1062 C1064 1.356 . S
N1062 H1074 0.984 . S
N1062 H1075 0.985 . S
N1063 C1065 1.356 . S
N1063 H1068 0.984 . S
N1063 H1069 0.985 . S
C1064 C1058 1.379 . S
C1064 C1061 1.363 . S
C1064 N1062 1.356 . S
C1065 C1059 1.363 . S
C1065 C1060 1.379 . S
C1065 N1063 1.356 . S
N1066 C1058 1.356 . S
N1066 H1072 0.984 . S
N1066 H1073 0.984 . S
N1067 C1060 1.356 . S
N1067 H1070 0.984 1_554 S
N1067 H1071 0.985 1_554 S
H1068 N1063 0.984 . S
H1069 N1063 0.985 . S
H1070 N1067 0.984 1_556 S
H1071 N1067 0.985 1_556 S
H1072 N1066 0.984 . S
H1073 N1066 0.984 . S
H1074 N1062 0.984 . S
H1075 N1062 0.985 . S
C1076 C1077 1.363 . S
C1076 C1082 1.379 . S
C1076 N1084 1.356 . S
C1077 C1076 1.363 . S
C1077 C1083 1.363 . S
C1078 C1079 1.363 . S
C1078 C1083 1.379 . S
C1078 N1085 1.356 . S
C1079 C1078 1.363 . S
C1079 C1082 1.363 . S
N1080 C1082 1.356 . S
N1080 H1092 0.984 . S
N1080 H1093 0.985 . S
N1081 C1083 1.356 . S
N1081 H1086 0.984 . S
N1081 H1087 1.009 . S
C1082 C1076 1.379 . S
C1082 C1079 1.363 . S
C1082 N1080 1.356 . S
C1083 C1077 1.363 . S
C1083 C1078 1.379 . S
C1083 N1081 1.356 . S
N1084 C1076 1.356 . S
N1084 H1090 0.984 . S
N1084 H1091 0.984 . S
N1085 C1078 1.356 . S
N1085 H1088 0.984 . S
N1085 H1089 0.985 . S
H1086 N1081 0.984 . S
H1087 N1081 1.009 . S
H1088 N1085 0.984 . S
H1089 N1085 0.985 . S
H1090 N1084 0.984 . S
H1091 N1084 0.984 . S
H1092 N1080 0.984 . S
H1093 N1080 0.985 . S
C1094 C1095 1.363 . S
C1094 C1100 1.379 . S
C1094 N1102 1.356 . S
C1095 C1094 1.363 . S
C1095 C1101 1.363 . S
C1096 C1097 1.363 . S
C1096 C1101 1.379 . S
C1096 N1103 1.356 . S
C1097 C1096 1.363 . S
C1097 C1100 1.363 . S
N1098 C1100 1.356 . S
N1098 H1110 0.984 . S
N1098 H1111 0.985 . S
N1099 C1101 1.356 . S
N1099 H1104 0.984 . S
N1099 H1105 0.985 . S
C1100 C1094 1.379 . S
C1100 C1097 1.363 . S
C1100 N1098 1.356 . S
C1101 C1095 1.363 . S
C1101 C1096 1.379 . S
C1101 N1099 1.356 . S
N1102 C1094 1.356 . S
N1102 H1108 0.984 . S
N1102 H1109 0.984 . S
N1103 C1096 1.356 . S
N1103 H1106 0.984 . S
N1103 H1107 0.985 . S
H1104 N1099 0.984 . S
H1105 N1099 0.985 . S
H1106 N1103 0.984 . S
H1107 N1103 0.985 . S
H1108 N1102 0.984 . S
H1109 N1102 0.984 . S
H1110 N1098 0.984 . S
H1111 N1098 0.985 . S
C1112 C1113 1.363 . S
C1112 C1118 1.379 . S
C1112 N1120 1.356 . S
C1113 C1112 1.363 . S
C1113 C1119 1.363 . S
C1114 C1115 1.363 . S
C1114 C1119 1.379 . S
C1114 N1121 1.356 . S
C1115 C1114 1.363 . S
C1115 C1118 1.363 . S
N1116 C1118 1.356 . S
N1116 H1128 0.984 . S
N1116 H1129 0.985 1_554 S
N1117 C1119 1.356 . S
N1117 H1122 0.984 . S
N1117 H1123 0.985 . S
C1118 C1112 1.379 . S
C1118 C1115 1.363 . S
C1118 N1116 1.356 . S
C1119 C1113 1.363 . S
C1119 C1114 1.379 . S
C1119 N1117 1.356 . S
N1120 C1112 1.356 . S
N1120 H1126 0.984 . S
N1120 H1127 0.984 . S
N1121 C1114 1.356 . S
N1121 H1124 0.984 . S
N1121 H1125 0.985 . S
H1122 N1117 0.984 . S
H1123 N1117 0.985 . S
H1124 N1121 0.984 . S
H1125 N1121 0.985 . S
H1126 N1120 0.984 . S
H1127 N1120 0.984 . S
H1128 N1116 0.984 . S
H1129 N1116 0.985 1_556 S
C1130 C1131 1.363 . S
C1130 C1136 1.379 . S
C1130 N1138 1.356 . S
C1131 C1130 1.363 . S
C1131 C1137 1.363 . S
C1132 C1133 1.363 . S
C1132 C1137 1.379 . S
C1132 N1139 1.356 . S
C1133 C1132 1.363 . S
C1133 C1136 1.363 . S
N1134 C1136 1.356 . S
N1134 H1146 0.984 . S
N1134 H1147 0.985 . S
N1135 C1137 1.356 . S
N1135 H1140 0.984 . S
N1135 H1141 0.985 . S
C1136 C1130 1.379 . S
C1136 C1133 1.363 . S
C1136 N1134 1.356 . S
C1137 C1131 1.363 . S
C1137 C1132 1.379 . S
C1137 N1135 1.356 . S
N1138 C1130 1.356 . S
N1138 H1144 0.984 . S
N1138 H1145 0.984 . S
N1139 C1132 1.356 . S
N1139 H1142 0.984 . S
N1139 H1143 0.985 . S
H1140 N1135 0.984 . S
H1141 N1135 0.985 . S
H1142 N1139 0.984 . S
H1143 N1139 0.985 . S
H1144 N1138 0.984 . S
H1145 N1138 0.984 . S
H1146 N1134 0.984 . S
H1147 N1134 0.985 . S
C1148 C1149 1.363 . S
C1148 C1154 1.379 . S
C1148 N1156 1.356 . S
C1149 C1148 1.363 . S
C1149 C1155 1.363 . S
C1150 C1151 1.363 . S
C1150 C1155 1.379 . S
C1150 N1157 1.356 . S
C1151 C1150 1.363 . S
C1151 C1154 1.363 . S
N1152 C1154 1.356 . S
N1152 H1164 0.984 . S
N1152 H1165 0.985 . S
N1153 C1155 1.356 . S
N1153 H1158 0.984 . S
N1153 H1159 0.985 . S
C1154 C1148 1.379 . S
C1154 C1151 1.363 . S
C1154 N1152 1.356 . S
C1155 C1149 1.363 . S
C1155 C1150 1.379 . S
C1155 N1153 1.356 . S
N1156 C1148 1.356 . S
N1156 H1162 0.984 . S
N1156 H1163 0.984 . S
N1157 C1150 1.356 . S
N1157 H1160 0.984 . S
N1157 H1161 0.985 . S
H1158 N1153 0.984 . S
H1159 N1153 0.985 . S
H1160 N1157 0.984 . S
H1161 N1157 0.985 . S
H1162 N1156 0.984 . S
H1163 N1156 0.984 . S
H1164 N1152 0.984 . S
H1165 N1152 0.985 . S
C1166 C1167 1.363 . S
C1166 C1172 1.379 . S
C1166 N1174 1.356 . S
C1167 C1166 1.363 . S
C1167 C1173 1.363 . S
C1168 C1169 1.363 . S
C1168 C1173 1.379 . S
C1168 N1175 1.356 . S
C1169 C1168 1.363 . S
C1169 C1172 1.363 . S
N1170 C1172 1.356 . S
N1170 H1182 0.984 . S
N1170 H1183 0.985 . S
N1171 C1173 1.356 . S
N1171 H1176 0.984 . S
N1171 H1177 0.985 . S
C1172 C1166 1.379 . S
C1172 C1169 1.363 . S
C1172 N1170 1.356 . S
C1173 C1167 1.363 . S
C1173 C1168 1.379 . S
C1173 N1171 1.356 . S
N1174 C1166 1.356 . S
N1174 H1180 0.984 1_455 S
N1174 H1181 0.984 . S
N1175 C1168 1.356 . S
N1175 H1178 0.984 . S
N1175 H1179 0.985 . S
H1176 N1171 0.984 . S
H1177 N1171 0.985 . S
H1178 N1175 0.984 . S
H1179 N1175 0.985 . S
H1180 N1174 0.984 1_655 S
H1181 N1174 0.984 . S
H1182 N1170 0.984 . S
H1183 N1170 0.985 . S
C321 C19 1.755 . S
C323 C159 1.734 . S
C339 C39 2.090 . S
C341 C99 2.090 1_554 S
C357 C102 1.558 . S
C359 C59 1.555 . S
C375 C79 2.084 . S
C377 C139 2.085 . S
C393 C221 0.558 . S
C395 C81 0.558 . S
C411 C178 0.905 . S
C413 C1 0.902 . S
C429 C201 0.547 . S
C431 C121 0.548 . S
C447 C41 0.774 . S
C449 C181 0.775 . S
C465 C199 1.734 . S
C467 C259 1.755 . S
C483 C219 2.090 . S
C485 C299 2.090 . S
C501 C279 1.555 1_556 S
C503 C162 1.558 . S
C519 C239 2.084 . S
C521 C319 2.085 1_554 S
C537 C281 0.558 . S
C539 C61 0.558 . S
C555 C241 0.902 . S
C557 C118 0.905 . S
C573 C21 0.547 . S
C575 C301 0.548 . S
C591 C141 0.775 . S
C593 C261 0.774 . S
C609 C269 0.632 . S
C611 C9 0.463 1_455 S
C627 C229 0.435 . S
C629 C29 0.437 . S
C645 C249 0.463 . S
C647 C49 0.632 . S
C663 C209 0.437 . S
C665 C69 0.435 . S
C681 C89 0.436 1_455 S
C683 C309 0.435 . S
C699 C189 0.377 . S
C701 C108 0.494 . S
C717 C129 0.435 . S
C719 C289 0.436 . S
C735 C149 0.377 . S
C737 C168 0.494 . S
C753 C8 1.527 . S
C755 C88 1.527 . S
C771 C28 1.601 . S
C773 C109 1.606 . S
C789 C128 1.655 . S
C791 C48 1.640 . S
C807 C68 1.593 . S
C809 C148 1.578 . S
C825 C208 1.601 . S
C827 C169 1.606 . S
C843 C228 1.593 . S
C845 C188 1.578 . S
C861 C248 1.527 . S
C863 C288 1.527 . S
C879 C308 1.655 1_455 S
C881 C268 1.640 1_455 S
C897 C2 1.290 . S
C899 C142 1.296 . S
C915 C22 1.058 . S
C917 C82 1.058 . S
C933 C119 1.517 1_556 S
C935 C42 1.464 . S
C951 C122 1.050 . S
C953 C62 1.049 . S
C969 C238 2.572 . S
C971 C98 2.573 . S
C987 C161 2.033 . S
C989 C18 2.081 . S
C1005 C218 2.561 1_554 S
C1007 C138 2.561 . S
C1023 C58 2.273 . S
C1025 C198 2.262 1_556 S
C1041 C242 1.290 . S
C1043 C182 1.296 . S
C1059 C282 1.058 . S
C1061 C202 1.058 . S
C1077 C262 1.464 . S
C1079 C179 1.517 . S
C1095 C302 1.050 . S
C1097 C222 1.049 . S
C1113 C298 2.573 . S
C1115 C78 2.572 1_554 S
C1131 C101 2.033 . S
C1133 C258 2.081 . S
C1149 C38 2.561 . S
C1151 C318 2.561 . S
C1167 C278 2.273 . S
C1169 C158 2.262 . S
