# Generated by pormake.
# Topology ulh, (4)-cn, num edge types: 1
# Building blocks:
#     Node 0, Type 0, BuildingBlock: QUQFOY_clean_sbu_1, # of connection points: 4
#     Node 1, Type 0, BuildingBlock: QUQFOY_clean_sbu_1, # of connection points: 4
#     Node 2, Type 0, BuildingBlock: QUQFOY_clean_sbu_1, # of connection points: 4
#     Node 3, Type 0, BuildingBlock: QUQFOY_clean_sbu_1, # of connection points: 4
#     Node 4, Type 0, BuildingBlock: QUQFOY_clean_sbu_1, # of connection points: 4
#     Node 5, Type 0, BuildingBlock: QUQFOY_clean_sbu_1, # of connection points: 4
#     Node 6, Type 0, BuildingBlock: QUQFOY_clean_sbu_1, # of connection points: 4
#     Node 7, Type 0, BuildingBlock: QUQFOY_clean_sbu_1, # of connection points: 4
#     Node 8, Type 0, BuildingBlock: QUQFOY_clean_sbu_1, # of connection points: 4
#     Node 9, Type 0, BuildingBlock: QUQFOY_clean_sbu_1, # of connection points: 4
#     Node 10, Type 0, BuildingBlock: QUQFOY_clean_sbu_1, # of connection points: 4
#     Node 11, Type 0, BuildingBlock: QUQFOY_clean_sbu_1, # of connection points: 4
#     Node 12, Type 0, BuildingBlock: QUQFOY_clean_sbu_1, # of connection points: 4
#     Node 13, Type 0, BuildingBlock: QUQFOY_clean_sbu_1, # of connection points: 4
#     Node 14, Type 0, BuildingBlock: QUQFOY_clean_sbu_1, # of connection points: 4
#     Node 15, Type 0, BuildingBlock: QUQFOY_clean_sbu_1, # of connection points: 4
#     Node 16, Type 0, BuildingBlock: QUQFOY_clean_sbu_1, # of connection points: 4
#     Node 17, Type 0, BuildingBlock: QUQFOY_clean_sbu_1, # of connection points: 4
#     Node 18, Type 0, BuildingBlock: QUQFOY_clean_sbu_1, # of connection points: 4
#     Node 19, Type 0, BuildingBlock: QUQFOY_clean_sbu_1, # of connection points: 4
#     Node 20, Type 0, BuildingBlock: QUQFOY_clean_sbu_1, # of connection points: 4
#     Node 21, Type 0, BuildingBlock: QUQFOY_clean_sbu_1, # of connection points: 4
#     Node 22, Type 0, BuildingBlock: QUQFOY_clean_sbu_1, # of connection points: 4
#     Node 23, Type 0, BuildingBlock: QUQFOY_clean_sbu_1, # of connection points: 4
#     Node 24, Type 0, BuildingBlock: QUQFOY_clean_sbu_1, # of connection points: 4
#     Node 25, Type 0, BuildingBlock: QUQFOY_clean_sbu_1, # of connection points: 4
#     Node 26, Type 0, BuildingBlock: QUQFOY_clean_sbu_1, # of connection points: 4
#     Node 27, Type 0, BuildingBlock: QUQFOY_clean_sbu_1, # of connection points: 4
#     Node 28, Type 0, BuildingBlock: QUQFOY_clean_sbu_1, # of connection points: 4
#     Node 29, Type 0, BuildingBlock: QUQFOY_clean_sbu_1, # of connection points: 4
#     Node 30, Type 0, BuildingBlock: QUQFOY_clean_sbu_1, # of connection points: 4
#     Node 31, Type 0, BuildingBlock: QUQFOY_clean_sbu_1, # of connection points: 4
#     Node 32, Type 0, BuildingBlock: QUQFOY_clean_sbu_1, # of connection points: 4
#     Node 33, Type 0, BuildingBlock: QUQFOY_clean_sbu_1, # of connection points: 4
#     Node 34, Type 0, BuildingBlock: QUQFOY_clean_sbu_1, # of connection points: 4
#     Node 35, Type 0, BuildingBlock: QUQFOY_clean_sbu_1, # of connection points: 4
#     Node 36, Type 0, BuildingBlock: QUQFOY_clean_sbu_1, # of connection points: 4
#     Node 37, Type 0, BuildingBlock: QUQFOY_clean_sbu_1, # of connection points: 4
#     Node 38, Type 0, BuildingBlock: QUQFOY_clean_sbu_1, # of connection points: 4
#     Node 39, Type 0, BuildingBlock: QUQFOY_clean_sbu_1, # of connection points: 4
#     Node 40, Type 0, BuildingBlock: QUQFOY_clean_sbu_1, # of connection points: 4
#     Node 41, Type 0, BuildingBlock: QUQFOY_clean_sbu_1, # of connection points: 4
#     Node 42, Type 0, BuildingBlock: QUQFOY_clean_sbu_1, # of connection points: 4
#     Node 43, Type 0, BuildingBlock: QUQFOY_clean_sbu_1, # of connection points: 4
#     Node 44, Type 0, BuildingBlock: QUQFOY_clean_sbu_1, # of connection points: 4
#     Node 45, Type 0, BuildingBlock: QUQFOY_clean_sbu_1, # of connection points: 4
#     Node 46, Type 0, BuildingBlock: QUQFOY_clean_sbu_1, # of connection points: 4
#     Node 47, Type 0, BuildingBlock: QUQFOY_clean_sbu_1, # of connection points: 4
#     Node 48, Type 0, BuildingBlock: QUQFOY_clean_sbu_1, # of connection points: 4
#     Node 49, Type 0, BuildingBlock: QUQFOY_clean_sbu_1, # of connection points: 4
#     Node 50, Type 0, BuildingBlock: QUQFOY_clean_sbu_1, # of connection points: 4
#     Node 51, Type 0, BuildingBlock: QUQFOY_clean_sbu_1, # of connection points: 4
#     Node 52, Type 0, BuildingBlock: QUQFOY_clean_sbu_1, # of connection points: 4
#     Node 53, Type 0, BuildingBlock: QUQFOY_clean_sbu_1, # of connection points: 4
#     Node 54, Type 0, BuildingBlock: QUQFOY_clean_sbu_1, # of connection points: 4
#     Node 55, Type 0, BuildingBlock: QUQFOY_clean_sbu_1, # of connection points: 4
#     Node 56, Type 0, BuildingBlock: QUQFOY_clean_sbu_1, # of connection points: 4
#     Node 57, Type 0, BuildingBlock: QUQFOY_clean_sbu_1, # of connection points: 4
#     Node 58, Type 0, BuildingBlock: QUQFOY_clean_sbu_1, # of connection points: 4
#     Node 59, Type 0, BuildingBlock: QUQFOY_clean_sbu_1, # of connection points: 4
#     Node 60, Type 0, BuildingBlock: QUQFOY_clean_sbu_1, # of connection points: 4
#     Node 61, Type 0, BuildingBlock: QUQFOY_clean_sbu_1, # of connection points: 4
#     Node 62, Type 0, BuildingBlock: QUQFOY_clean_sbu_1, # of connection points: 4
#     Node 63, Type 0, BuildingBlock: QUQFOY_clean_sbu_1, # of connection points: 4
#     Node 64, Type 0, BuildingBlock: QUQFOY_clean_sbu_1, # of connection points: 4
#     Node 65, Type 0, BuildingBlock: QUQFOY_clean_sbu_1, # of connection points: 4
#     Node 66, Type 0, BuildingBlock: QUQFOY_clean_sbu_1, # of connection points: 4
#     Node 67, Type 0, BuildingBlock: QUQFOY_clean_sbu_1, # of connection points: 4
#     Node 68, Type 0, BuildingBlock: QUQFOY_clean_sbu_1, # of connection points: 4
#     Node 69, Type 0, BuildingBlock: QUQFOY_clean_sbu_1, # of connection points: 4
#     Node 70, Type 0, BuildingBlock: QUQFOY_clean_sbu_1, # of connection points: 4
#     Node 71, Type 0, BuildingBlock: QUQFOY_clean_sbu_1, # of connection points: 4
#     Node 72, Type 0, BuildingBlock: QUQFOY_clean_sbu_1, # of connection points: 4
#     Node 73, Type 0, BuildingBlock: QUQFOY_clean_sbu_1, # of connection points: 4
#     Node 74, Type 0, BuildingBlock: QUQFOY_clean_sbu_1, # of connection points: 4
#     Node 75, Type 0, BuildingBlock: QUQFOY_clean_sbu_1, # of connection points: 4
#     Node 76, Type 0, BuildingBlock: QUQFOY_clean_sbu_1, # of connection points: 4
#     Node 77, Type 0, BuildingBlock: QUQFOY_clean_sbu_1, # of connection points: 4
#     Node 78, Type 0, BuildingBlock: QUQFOY_clean_sbu_1, # of connection points: 4
#     Node 79, Type 0, BuildingBlock: QUQFOY_clean_sbu_1, # of connection points: 4
#     Node 80, Type 0, BuildingBlock: QUQFOY_clean_sbu_1, # of connection points: 4
#     Node 81, Type 0, BuildingBlock: QUQFOY_clean_sbu_1, # of connection points: 4
#     Node 82, Type 0, BuildingBlock: QUQFOY_clean_sbu_1, # of connection points: 4
#     Node 83, Type 0, BuildingBlock: QUQFOY_clean_sbu_1, # of connection points: 4
#     Node 84, Type 0, BuildingBlock: QUQFOY_clean_sbu_1, # of connection points: 4
#     Node 85, Type 0, BuildingBlock: QUQFOY_clean_sbu_1, # of connection points: 4
#     Node 86, Type 0, BuildingBlock: QUQFOY_clean_sbu_1, # of connection points: 4
#     Node 87, Type 0, BuildingBlock: QUQFOY_clean_sbu_1, # of connection points: 4
#     Node 88, Type 0, BuildingBlock: QUQFOY_clean_sbu_1, # of connection points: 4
#     Node 89, Type 0, BuildingBlock: QUQFOY_clean_sbu_1, # of connection points: 4
#     Node 90, Type 0, BuildingBlock: QUQFOY_clean_sbu_1, # of connection points: 4
#     Node 91, Type 0, BuildingBlock: QUQFOY_clean_sbu_1, # of connection points: 4
#     Node 92, Type 0, BuildingBlock: QUQFOY_clean_sbu_1, # of connection points: 4
#     Node 93, Type 0, BuildingBlock: QUQFOY_clean_sbu_1, # of connection points: 4
#     Node 94, Type 0, BuildingBlock: QUQFOY_clean_sbu_1, # of connection points: 4
#     Node 95, Type 0, BuildingBlock: QUQFOY_clean_sbu_1, # of connection points: 4
#     Edge 96, Type (0, 0), BuildingBlock: OJICUG_clean_linker_0, # of connection points: 2
#     Edge 97, Type (0, 0), BuildingBlock: OJICUG_clean_linker_0, # of connection points: 2
#     Edge 98, Type (0, 0), BuildingBlock: OJICUG_clean_linker_0, # of connection points: 2
#     Edge 99, Type (0, 0), BuildingBlock: OJICUG_clean_linker_0, # of connection points: 2
#     Edge 100, Type (0, 0), BuildingBlock: OJICUG_clean_linker_0, # of connection points: 2
#     Edge 101, Type (0, 0), BuildingBlock: OJICUG_clean_linker_0, # of connection points: 2
#     Edge 102, Type (0, 0), BuildingBlock: OJICUG_clean_linker_0, # of connection points: 2
#     Edge 103, Type (0, 0), BuildingBlock: OJICUG_clean_linker_0, # of connection points: 2
#     Edge 104, Type (0, 0), BuildingBlock: OJICUG_clean_linker_0, # of connection points: 2
#     Edge 105, Type (0, 0), BuildingBlock: OJICUG_clean_linker_0, # of connection points: 2
#     Edge 106, Type (0, 0), BuildingBlock: OJICUG_clean_linker_0, # of connection points: 2
#     Edge 107, Type (0, 0), BuildingBlock: OJICUG_clean_linker_0, # of connection points: 2
#     Edge 108, Type (0, 0), BuildingBlock: OJICUG_clean_linker_0, # of connection points: 2
#     Edge 109, Type (0, 0), BuildingBlock: OJICUG_clean_linker_0, # of connection points: 2
#     Edge 110, Type (0, 0), BuildingBlock: OJICUG_clean_linker_0, # of connection points: 2
#     Edge 111, Type (0, 0), BuildingBlock: OJICUG_clean_linker_0, # of connection points: 2
#     Edge 112, Type (0, 0), BuildingBlock: OJICUG_clean_linker_0, # of connection points: 2
#     Edge 113, Type (0, 0), BuildingBlock: OJICUG_clean_linker_0, # of connection points: 2
#     Edge 114, Type (0, 0), BuildingBlock: OJICUG_clean_linker_0, # of connection points: 2
#     Edge 115, Type (0, 0), BuildingBlock: OJICUG_clean_linker_0, # of connection points: 2
#     Edge 116, Type (0, 0), BuildingBlock: OJICUG_clean_linker_0, # of connection points: 2
#     Edge 117, Type (0, 0), BuildingBlock: OJICUG_clean_linker_0, # of connection points: 2
#     Edge 118, Type (0, 0), BuildingBlock: OJICUG_clean_linker_0, # of connection points: 2
#     Edge 119, Type (0, 0), BuildingBlock: OJICUG_clean_linker_0, # of connection points: 2
#     Edge 120, Type (0, 0), BuildingBlock: OJICUG_clean_linker_0, # of connection points: 2
#     Edge 121, Type (0, 0), BuildingBlock: OJICUG_clean_linker_0, # of connection points: 2
#     Edge 122, Type (0, 0), BuildingBlock: OJICUG_clean_linker_0, # of connection points: 2
#     Edge 123, Type (0, 0), BuildingBlock: OJICUG_clean_linker_0, # of connection points: 2
#     Edge 124, Type (0, 0), BuildingBlock: OJICUG_clean_linker_0, # of connection points: 2
#     Edge 125, Type (0, 0), BuildingBlock: OJICUG_clean_linker_0, # of connection points: 2
#     Edge 126, Type (0, 0), BuildingBlock: OJICUG_clean_linker_0, # of connection points: 2
#     Edge 127, Type (0, 0), BuildingBlock: OJICUG_clean_linker_0, # of connection points: 2
#     Edge 128, Type (0, 0), BuildingBlock: OJICUG_clean_linker_0, # of connection points: 2
#     Edge 129, Type (0, 0), BuildingBlock: OJICUG_clean_linker_0, # of connection points: 2
#     Edge 130, Type (0, 0), BuildingBlock: OJICUG_clean_linker_0, # of connection points: 2
#     Edge 131, Type (0, 0), BuildingBlock: OJICUG_clean_linker_0, # of connection points: 2
#     Edge 132, Type (0, 0), BuildingBlock: OJICUG_clean_linker_0, # of connection points: 2
#     Edge 133, Type (0, 0), BuildingBlock: OJICUG_clean_linker_0, # of connection points: 2
#     Edge 134, Type (0, 0), BuildingBlock: OJICUG_clean_linker_0, # of connection points: 2
#     Edge 135, Type (0, 0), BuildingBlock: OJICUG_clean_linker_0, # of connection points: 2
#     Edge 136, Type (0, 0), BuildingBlock: OJICUG_clean_linker_0, # of connection points: 2
#     Edge 137, Type (0, 0), BuildingBlock: OJICUG_clean_linker_0, # of connection points: 2
#     Edge 138, Type (0, 0), BuildingBlock: OJICUG_clean_linker_0, # of connection points: 2
#     Edge 139, Type (0, 0), BuildingBlock: OJICUG_clean_linker_0, # of connection points: 2
#     Edge 140, Type (0, 0), BuildingBlock: OJICUG_clean_linker_0, # of connection points: 2
#     Edge 141, Type (0, 0), BuildingBlock: OJICUG_clean_linker_0, # of connection points: 2
#     Edge 142, Type (0, 0), BuildingBlock: OJICUG_clean_linker_0, # of connection points: 2
#     Edge 143, Type (0, 0), BuildingBlock: OJICUG_clean_linker_0, # of connection points: 2
#     Edge 144, Type (0, 0), BuildingBlock: OJICUG_clean_linker_0, # of connection points: 2
#     Edge 145, Type (0, 0), BuildingBlock: OJICUG_clean_linker_0, # of connection points: 2
#     Edge 146, Type (0, 0), BuildingBlock: OJICUG_clean_linker_0, # of connection points: 2
#     Edge 147, Type (0, 0), BuildingBlock: OJICUG_clean_linker_0, # of connection points: 2
#     Edge 148, Type (0, 0), BuildingBlock: OJICUG_clean_linker_0, # of connection points: 2
#     Edge 149, Type (0, 0), BuildingBlock: OJICUG_clean_linker_0, # of connection points: 2
#     Edge 150, Type (0, 0), BuildingBlock: OJICUG_clean_linker_0, # of connection points: 2
#     Edge 151, Type (0, 0), BuildingBlock: OJICUG_clean_linker_0, # of connection points: 2
#     Edge 152, Type (0, 0), BuildingBlock: OJICUG_clean_linker_0, # of connection points: 2
#     Edge 153, Type (0, 0), BuildingBlock: OJICUG_clean_linker_0, # of connection points: 2
#     Edge 154, Type (0, 0), BuildingBlock: OJICUG_clean_linker_0, # of connection points: 2
#     Edge 155, Type (0, 0), BuildingBlock: OJICUG_clean_linker_0, # of connection points: 2
#     Edge 156, Type (0, 0), BuildingBlock: OJICUG_clean_linker_0, # of connection points: 2
#     Edge 157, Type (0, 0), BuildingBlock: OJICUG_clean_linker_0, # of connection points: 2
#     Edge 158, Type (0, 0), BuildingBlock: OJICUG_clean_linker_0, # of connection points: 2
#     Edge 159, Type (0, 0), BuildingBlock: OJICUG_clean_linker_0, # of connection points: 2
#     Edge 160, Type (0, 0), BuildingBlock: OJICUG_clean_linker_0, # of connection points: 2
#     Edge 161, Type (0, 0), BuildingBlock: OJICUG_clean_linker_0, # of connection points: 2
#     Edge 162, Type (0, 0), BuildingBlock: OJICUG_clean_linker_0, # of connection points: 2
#     Edge 163, Type (0, 0), BuildingBlock: OJICUG_clean_linker_0, # of connection points: 2
#     Edge 164, Type (0, 0), BuildingBlock: OJICUG_clean_linker_0, # of connection points: 2
#     Edge 165, Type (0, 0), BuildingBlock: OJICUG_clean_linker_0, # of connection points: 2
#     Edge 166, Type (0, 0), BuildingBlock: OJICUG_clean_linker_0, # of connection points: 2
#     Edge 167, Type (0, 0), BuildingBlock: OJICUG_clean_linker_0, # of connection points: 2
#     Edge 168, Type (0, 0), BuildingBlock: OJICUG_clean_linker_0, # of connection points: 2
#     Edge 169, Type (0, 0), BuildingBlock: OJICUG_clean_linker_0, # of connection points: 2
#     Edge 170, Type (0, 0), BuildingBlock: OJICUG_clean_linker_0, # of connection points: 2
#     Edge 171, Type (0, 0), BuildingBlock: OJICUG_clean_linker_0, # of connection points: 2
#     Edge 172, Type (0, 0), BuildingBlock: OJICUG_clean_linker_0, # of connection points: 2
#     Edge 173, Type (0, 0), BuildingBlock: OJICUG_clean_linker_0, # of connection points: 2
#     Edge 174, Type (0, 0), BuildingBlock: OJICUG_clean_linker_0, # of connection points: 2
#     Edge 175, Type (0, 0), BuildingBlock: OJICUG_clean_linker_0, # of connection points: 2
#     Edge 176, Type (0, 0), BuildingBlock: OJICUG_clean_linker_0, # of connection points: 2
#     Edge 177, Type (0, 0), BuildingBlock: OJICUG_clean_linker_0, # of connection points: 2
#     Edge 178, Type (0, 0), BuildingBlock: OJICUG_clean_linker_0, # of connection points: 2
#     Edge 179, Type (0, 0), BuildingBlock: OJICUG_clean_linker_0, # of connection points: 2
#     Edge 180, Type (0, 0), BuildingBlock: OJICUG_clean_linker_0, # of connection points: 2
#     Edge 181, Type (0, 0), BuildingBlock: OJICUG_clean_linker_0, # of connection points: 2
#     Edge 182, Type (0, 0), BuildingBlock: OJICUG_clean_linker_0, # of connection points: 2
#     Edge 183, Type (0, 0), BuildingBlock: OJICUG_clean_linker_0, # of connection points: 2
#     Edge 184, Type (0, 0), BuildingBlock: OJICUG_clean_linker_0, # of connection points: 2
#     Edge 185, Type (0, 0), BuildingBlock: OJICUG_clean_linker_0, # of connection points: 2
#     Edge 186, Type (0, 0), BuildingBlock: OJICUG_clean_linker_0, # of connection points: 2
#     Edge 187, Type (0, 0), BuildingBlock: OJICUG_clean_linker_0, # of connection points: 2
#     Edge 188, Type (0, 0), BuildingBlock: OJICUG_clean_linker_0, # of connection points: 2
#     Edge 189, Type (0, 0), BuildingBlock: OJICUG_clean_linker_0, # of connection points: 2
#     Edge 190, Type (0, 0), BuildingBlock: OJICUG_clean_linker_0, # of connection points: 2
#     Edge 191, Type (0, 0), BuildingBlock: OJICUG_clean_linker_0, # of connection points: 2
#     Edge 192, Type (0, 0), BuildingBlock: OJICUG_clean_linker_0, # of connection points: 2
#     Edge 193, Type (0, 0), BuildingBlock: OJICUG_clean_linker_0, # of connection points: 2
#     Edge 194, Type (0, 0), BuildingBlock: OJICUG_clean_linker_0, # of connection points: 2
#     Edge 195, Type (0, 0), BuildingBlock: OJICUG_clean_linker_0, # of connection points: 2
#     Edge 196, Type (0, 0), BuildingBlock: OJICUG_clean_linker_0, # of connection points: 2
#     Edge 197, Type (0, 0), BuildingBlock: OJICUG_clean_linker_0, # of connection points: 2
#     Edge 198, Type (0, 0), BuildingBlock: OJICUG_clean_linker_0, # of connection points: 2
#     Edge 199, Type (0, 0), BuildingBlock: OJICUG_clean_linker_0, # of connection points: 2
#     Edge 200, Type (0, 0), BuildingBlock: OJICUG_clean_linker_0, # of connection points: 2
#     Edge 201, Type (0, 0), BuildingBlock: OJICUG_clean_linker_0, # of connection points: 2
#     Edge 202, Type (0, 0), BuildingBlock: OJICUG_clean_linker_0, # of connection points: 2
#     Edge 203, Type (0, 0), BuildingBlock: OJICUG_clean_linker_0, # of connection points: 2
#     Edge 204, Type (0, 0), BuildingBlock: OJICUG_clean_linker_0, # of connection points: 2
#     Edge 205, Type (0, 0), BuildingBlock: OJICUG_clean_linker_0, # of connection points: 2
#     Edge 206, Type (0, 0), BuildingBlock: OJICUG_clean_linker_0, # of connection points: 2
#     Edge 207, Type (0, 0), BuildingBlock: OJICUG_clean_linker_0, # of connection points: 2
#     Edge 208, Type (0, 0), BuildingBlock: OJICUG_clean_linker_0, # of connection points: 2
#     Edge 209, Type (0, 0), BuildingBlock: OJICUG_clean_linker_0, # of connection points: 2
#     Edge 210, Type (0, 0), BuildingBlock: OJICUG_clean_linker_0, # of connection points: 2
#     Edge 211, Type (0, 0), BuildingBlock: OJICUG_clean_linker_0, # of connection points: 2
#     Edge 212, Type (0, 0), BuildingBlock: OJICUG_clean_linker_0, # of connection points: 2
#     Edge 213, Type (0, 0), BuildingBlock: OJICUG_clean_linker_0, # of connection points: 2
#     Edge 214, Type (0, 0), BuildingBlock: OJICUG_clean_linker_0, # of connection points: 2
#     Edge 215, Type (0, 0), BuildingBlock: OJICUG_clean_linker_0, # of connection points: 2
#     Edge 216, Type (0, 0), BuildingBlock: OJICUG_clean_linker_0, # of connection points: 2
#     Edge 217, Type (0, 0), BuildingBlock: OJICUG_clean_linker_0, # of connection points: 2
#     Edge 218, Type (0, 0), BuildingBlock: OJICUG_clean_linker_0, # of connection points: 2
#     Edge 219, Type (0, 0), BuildingBlock: OJICUG_clean_linker_0, # of connection points: 2
#     Edge 220, Type (0, 0), BuildingBlock: OJICUG_clean_linker_0, # of connection points: 2
#     Edge 221, Type (0, 0), BuildingBlock: OJICUG_clean_linker_0, # of connection points: 2
#     Edge 222, Type (0, 0), BuildingBlock: OJICUG_clean_linker_0, # of connection points: 2
#     Edge 223, Type (0, 0), BuildingBlock: OJICUG_clean_linker_0, # of connection points: 2
#     Edge 224, Type (0, 0), BuildingBlock: OJICUG_clean_linker_0, # of connection points: 2
#     Edge 225, Type (0, 0), BuildingBlock: OJICUG_clean_linker_0, # of connection points: 2
#     Edge 226, Type (0, 0), BuildingBlock: OJICUG_clean_linker_0, # of connection points: 2
#     Edge 227, Type (0, 0), BuildingBlock: OJICUG_clean_linker_0, # of connection points: 2
#     Edge 228, Type (0, 0), BuildingBlock: OJICUG_clean_linker_0, # of connection points: 2
#     Edge 229, Type (0, 0), BuildingBlock: OJICUG_clean_linker_0, # of connection points: 2
#     Edge 230, Type (0, 0), BuildingBlock: OJICUG_clean_linker_0, # of connection points: 2
#     Edge 231, Type (0, 0), BuildingBlock: OJICUG_clean_linker_0, # of connection points: 2
#     Edge 232, Type (0, 0), BuildingBlock: OJICUG_clean_linker_0, # of connection points: 2
#     Edge 233, Type (0, 0), BuildingBlock: OJICUG_clean_linker_0, # of connection points: 2
#     Edge 234, Type (0, 0), BuildingBlock: OJICUG_clean_linker_0, # of connection points: 2
#     Edge 235, Type (0, 0), BuildingBlock: OJICUG_clean_linker_0, # of connection points: 2
#     Edge 236, Type (0, 0), BuildingBlock: OJICUG_clean_linker_0, # of connection points: 2
#     Edge 237, Type (0, 0), BuildingBlock: OJICUG_clean_linker_0, # of connection points: 2
#     Edge 238, Type (0, 0), BuildingBlock: OJICUG_clean_linker_0, # of connection points: 2
#     Edge 239, Type (0, 0), BuildingBlock: OJICUG_clean_linker_0, # of connection points: 2
#     Edge 240, Type (0, 0), BuildingBlock: OJICUG_clean_linker_0, # of connection points: 2
#     Edge 241, Type (0, 0), BuildingBlock: OJICUG_clean_linker_0, # of connection points: 2
#     Edge 242, Type (0, 0), BuildingBlock: OJICUG_clean_linker_0, # of connection points: 2
#     Edge 243, Type (0, 0), BuildingBlock: OJICUG_clean_linker_0, # of connection points: 2
#     Edge 244, Type (0, 0), BuildingBlock: OJICUG_clean_linker_0, # of connection points: 2
#     Edge 245, Type (0, 0), BuildingBlock: OJICUG_clean_linker_0, # of connection points: 2
#     Edge 246, Type (0, 0), BuildingBlock: OJICUG_clean_linker_0, # of connection points: 2
#     Edge 247, Type (0, 0), BuildingBlock: OJICUG_clean_linker_0, # of connection points: 2
#     Edge 248, Type (0, 0), BuildingBlock: OJICUG_clean_linker_0, # of connection points: 2
#     Edge 249, Type (0, 0), BuildingBlock: OJICUG_clean_linker_0, # of connection points: 2
#     Edge 250, Type (0, 0), BuildingBlock: OJICUG_clean_linker_0, # of connection points: 2
#     Edge 251, Type (0, 0), BuildingBlock: OJICUG_clean_linker_0, # of connection points: 2
#     Edge 252, Type (0, 0), BuildingBlock: OJICUG_clean_linker_0, # of connection points: 2
#     Edge 253, Type (0, 0), BuildingBlock: OJICUG_clean_linker_0, # of connection points: 2
#     Edge 254, Type (0, 0), BuildingBlock: OJICUG_clean_linker_0, # of connection points: 2
#     Edge 255, Type (0, 0), BuildingBlock: OJICUG_clean_linker_0, # of connection points: 2
#     Edge 256, Type (0, 0), BuildingBlock: OJICUG_clean_linker_0, # of connection points: 2
#     Edge 257, Type (0, 0), BuildingBlock: OJICUG_clean_linker_0, # of connection points: 2
#     Edge 258, Type (0, 0), BuildingBlock: OJICUG_clean_linker_0, # of connection points: 2
#     Edge 259, Type (0, 0), BuildingBlock: OJICUG_clean_linker_0, # of connection points: 2
#     Edge 260, Type (0, 0), BuildingBlock: OJICUG_clean_linker_0, # of connection points: 2
#     Edge 261, Type (0, 0), BuildingBlock: OJICUG_clean_linker_0, # of connection points: 2
#     Edge 262, Type (0, 0), BuildingBlock: OJICUG_clean_linker_0, # of connection points: 2
#     Edge 263, Type (0, 0), BuildingBlock: OJICUG_clean_linker_0, # of connection points: 2
#     Edge 264, Type (0, 0), BuildingBlock: OJICUG_clean_linker_0, # of connection points: 2
#     Edge 265, Type (0, 0), BuildingBlock: OJICUG_clean_linker_0, # of connection points: 2
#     Edge 266, Type (0, 0), BuildingBlock: OJICUG_clean_linker_0, # of connection points: 2
#     Edge 267, Type (0, 0), BuildingBlock: OJICUG_clean_linker_0, # of connection points: 2
#     Edge 268, Type (0, 0), BuildingBlock: OJICUG_clean_linker_0, # of connection points: 2
#     Edge 269, Type (0, 0), BuildingBlock: OJICUG_clean_linker_0, # of connection points: 2
#     Edge 270, Type (0, 0), BuildingBlock: OJICUG_clean_linker_0, # of connection points: 2
#     Edge 271, Type (0, 0), BuildingBlock: OJICUG_clean_linker_0, # of connection points: 2
#     Edge 272, Type (0, 0), BuildingBlock: OJICUG_clean_linker_0, # of connection points: 2
#     Edge 273, Type (0, 0), BuildingBlock: OJICUG_clean_linker_0, # of connection points: 2
#     Edge 274, Type (0, 0), BuildingBlock: OJICUG_clean_linker_0, # of connection points: 2
#     Edge 275, Type (0, 0), BuildingBlock: OJICUG_clean_linker_0, # of connection points: 2
#     Edge 276, Type (0, 0), BuildingBlock: OJICUG_clean_linker_0, # of connection points: 2
#     Edge 277, Type (0, 0), BuildingBlock: OJICUG_clean_linker_0, # of connection points: 2
#     Edge 278, Type (0, 0), BuildingBlock: OJICUG_clean_linker_0, # of connection points: 2
#     Edge 279, Type (0, 0), BuildingBlock: OJICUG_clean_linker_0, # of connection points: 2
#     Edge 280, Type (0, 0), BuildingBlock: OJICUG_clean_linker_0, # of connection points: 2
#     Edge 281, Type (0, 0), BuildingBlock: OJICUG_clean_linker_0, # of connection points: 2
#     Edge 282, Type (0, 0), BuildingBlock: OJICUG_clean_linker_0, # of connection points: 2
#     Edge 283, Type (0, 0), BuildingBlock: OJICUG_clean_linker_0, # of connection points: 2
#     Edge 284, Type (0, 0), BuildingBlock: OJICUG_clean_linker_0, # of connection points: 2
#     Edge 285, Type (0, 0), BuildingBlock: OJICUG_clean_linker_0, # of connection points: 2
#     Edge 286, Type (0, 0), BuildingBlock: OJICUG_clean_linker_0, # of connection points: 2
#     Edge 287, Type (0, 0), BuildingBlock: OJICUG_clean_linker_0, # of connection points: 2
# Relax obj value: 0.180
# Max RMSD: 0.199
# Mean RMSD: 0.199
data_MOF--net-ulh--node1-QUQFOY_clean_sbu_1--edge1-OJICUG_clean_linker_0
_symmetry_space_group_name_H-M    P1
_symmetry_Int_Tables_number       1
_symmetry_cell_setting            triclinic
loop_
_symmetry_equiv_pos_as_xyz
'x, y, z'
_cell_length_a     61.774711
_cell_length_b     61.823294
_cell_length_c     61.846309
_cell_angle_alpha  90.0045
_cell_angle_beta   90.014531
_cell_angle_gamma 90.021805
loop_
_atom_site_label
_atom_site_type_symbol
_atom_site_fract_x
_atom_site_fract_y
_atom_site_fract_z
_atom_type_partial_charge
O0 O 0.05965 0.31961 0.06981 0.0
Cd1 Cd 0.07755 0.31757 0.09788 0.0
Cd2 Cd 0.06261 0.35622 0.10358 0.0
O3 O 0.03953 0.34712 0.08073 0.0
O4 O 0.07562 0.28719 0.11057 0.0
O5 O 0.0578 0.31528 0.12365 0.0
C6 C 0.06122 0.29466 0.12383 0.0
C7 C 0.06035 0.37581 0.13627 0.0
C8 C 0.04394 0.33257 0.06672 0.0
C9 C 0.1076 0.35335 0.08755 0.0
O10 O 0.09015 0.36409 0.08782 0.0
O11 O 0.10788 0.33405 0.09507 0.0
O12 O 0.05391 0.38391 0.11813 0.0
O13 O 0.0661 0.35576 0.13633 0.0
O14 O 0.93461 0.34057 0.33737 0.0
Cd15 Cd 0.94208 0.31288 0.35305 0.0
Cd16 Cd 0.981 0.32724 0.34716 0.0
O17 O 0.96503 0.35778 0.34437 0.0
O18 O 0.91428 0.30464 0.36769 0.0
O19 O 0.94275 0.31628 0.38581 0.0
C20 C 0.92258 0.31088 0.38581 0.0
C21 C 1.00412 0.31095 0.373 0.0
C22 C 0.94565 0.35782 0.337 0.0
C23 C 0.9652 0.29385 0.31605 0.0
O24 O 0.97851 0.30927 0.31915 0.0
O25 O 0.95058 0.28971 0.33008 0.0
O26 O 1.01155 0.32513 0.35949 0.0
O27 O 0.98345 0.30769 0.3731 0.0
O28 O 0.98949 0.22904 0.56858 0.0
Cd29 Cd 0.97157 0.23112 0.59662 0.0
Cd30 Cd 0.98658 0.19252 0.60246 0.0
O31 O 1.00964 0.20159 0.57961 0.0
O32 O 0.9735 0.26152 0.60933 0.0
O33 O 0.99133 0.23343 0.62239 0.0
C34 C 0.9879 0.25405 0.62259 0.0
C35 C 0.98894 0.17305 0.63519 0.0
C36 C 1.00521 0.21609 0.56555 0.0
C37 C 0.94161 0.19524 0.58633 0.0
O38 O 0.95907 0.18453 0.58669 0.0
O39 O 0.94129 0.21457 0.59379 0.0
O40 O 0.99539 0.16491 0.61708 0.0
O41 O 0.98308 0.19307 0.6352 0.0
O42 O 0.11469 0.20877 0.83686 0.0
Cd43 Cd 0.107 0.23645 0.85242 0.0
Cd44 Cd 0.06817 0.22179 0.84671 0.0
O45 O 0.08442 0.19137 0.84402 0.0
O46 O 0.13472 0.24499 0.86707 0.0
O47 O 0.10634 0.23317 0.88519 0.0
C48 C 0.12646 0.23874 0.8852 0.0
C49 C 0.04516 0.23798 0.87273 0.0
C50 C 0.10378 0.19144 0.83661 0.0
C51 C 0.08364 0.25513 0.81538 0.0
O52 O 0.07042 0.23966 0.81859 0.0
O53 O 0.09826 0.25943 0.82936 0.0
O54 O 0.03771 0.22371 0.85932 0.0
O55 O 0.06579 0.24143 0.87258 0.0
O56 O 0.05733 0.72888 0.97648 0.0
Cd57 Cd 0.07698 0.73261 0.94971 0.0
Cd58 Cd 0.06356 0.69313 0.94295 0.0
O59 O 0.03981 0.6996 0.96593 0.0
O60 O 0.07434 0.76421 0.94132 0.0
O61 O 0.06192 0.73751 0.92099 0.0
C62 C 0.06351 0.75807 0.9245 0.0
C63 C 0.06146 0.6736 0.91024 0.0
C64 C 0.04276 0.71471 0.97966 0.0
C65 C 0.10849 0.69843 0.96047 0.0
O66 O 0.09182 0.68666 0.95838 0.0
O67 O 0.10798 0.71827 0.95452 0.0
O68 O 0.05635 0.66501 0.92854 0.0
O69 O 0.06592 0.69399 0.91008 0.0
O70 O 0.61254 0.34052 0.20902 0.0
Cd71 Cd 0.60592 0.31237 0.19351 0.0
Cd72 Cd 0.56649 0.32587 0.20008 0.0
O73 O 0.58102 0.35679 0.20488 0.0
O74 O 0.63394 0.30506 0.17894 0.0
O75 O 0.60491 0.31494 0.16068 0.0
C76 C 0.62527 0.31035 0.16071 0.0
C77 C 0.54116 0.31237 0.17468 0.0
C78 C 0.60084 0.35723 0.21099 0.0
C79 C 0.58413 0.29164 0.23012 0.0
O80 O 0.57004 0.30627 0.2269 0.0
O81 O 0.59926 0.28862 0.21641 0.0
O82 O 0.53491 0.32326 0.19141 0.0
O83 O 0.56176 0.31072 0.17137 0.0
O84 O 0.9925 0.81925 0.47698 0.0
Cd85 Cd 0.9727 0.81549 0.45031 0.0
Cd86 Cd 0.98611 0.85496 0.44346 0.0
O87 O 1.00997 0.84852 0.46633 0.0
O88 O 0.97522 0.78387 0.44195 0.0
O89 O 0.98757 0.81051 0.42151 0.0
C90 C 0.98595 0.78996 0.42505 0.0
C91 C 0.98806 0.87441 0.41069 0.0
C92 C 1.0071 0.83342 0.48009 0.0
C93 C 0.94125 0.84971 0.46115 0.0
O94 O 0.95792 0.86147 0.45899 0.0
O95 O 0.94174 0.82986 0.45521 0.0
O96 O 0.99325 0.88305 0.42895 0.0
O97 O 0.9836 0.85402 0.4106 0.0
O98 O 0.43632 0.2063 0.70963 0.0
Cd99 Cd 0.44239 0.23474 0.69444 0.0
Cd100 Cd 0.4821 0.22189 0.70112 0.0
O101 O 0.46822 0.19069 0.70575 0.0
O102 O 0.41427 0.24161 0.67983 0.0
O103 O 0.44356 0.23254 0.66157 0.0
C104 C 0.4231 0.23672 0.66158 0.0
C105 C 0.50769 0.23562 0.67613 0.0
C106 C 0.44837 0.18983 0.71166 0.0
C107 C 0.46348 0.2555 0.73143 0.0
O108 O 0.47793 0.24126 0.72803 0.0
O109 O 0.44833 0.25836 0.7177 0.0
O110 O 0.51378 0.22489 0.69302 0.0
O111 O 0.48713 0.23702 0.67245 0.0
O112 O 0.06958 0.05859 0.31853 0.0
Cd113 Cd 0.0975 0.0768 0.3162 0.0
Cd114 Cd 0.10339 0.06246 0.35508 0.0
O115 O 0.08067 0.0391 0.34641 0.0
O116 O 0.11008 0.0748 0.28579 0.0
O117 O 0.12363 0.05749 0.31398 0.0
C118 C 0.12366 0.06075 0.29333 0.0
C119 C 0.13603 0.0604 0.37482 0.0
C120 C 0.06662 0.04311 0.33177 0.0
C121 C 0.08706 0.1073 0.3515 0.0
O122 O 0.0875 0.09006 0.36253 0.0
O123 O 0.09447 0.10731 0.33216 0.0
O124 O 0.11783 0.05413 0.38293 0.0
O125 O 0.13619 0.06593 0.35471 0.0
O126 O 0.24206 0.32088 0.56922 0.0
Cd127 Cd 0.2224 0.34767 0.5656 0.0
Cd128 Cd 0.23594 0.35438 0.60501 0.0
O129 O 0.25967 0.33141 0.59844 0.0
O130 O 0.22494 0.35623 0.53404 0.0
O131 O 0.23745 0.37643 0.56078 0.0
C132 C 0.23578 0.37303 0.54022 0.0
C133 C 0.23809 0.38712 0.62448 0.0
C134 C 0.25668 0.31768 0.58333 0.0
C135 C 0.19099 0.33688 0.59988 0.0
O136 O 0.2077 0.33894 0.61159 0.0
O137 O 0.19145 0.34288 0.58006 0.0
O138 O 0.24325 0.36883 0.63308 0.0
O139 O 0.23355 0.38725 0.60412 0.0
O140 O 0.97931 0.48928 0.81922 0.0
Cd141 Cd 0.9514 0.47105 0.81707 0.0
Cd142 Cd 0.9456 0.48565 0.85584 0.0
O143 O 0.96827 0.50898 0.84696 0.0
O144 O 0.9388 0.4728 0.78667 0.0
O145 O 0.92528 0.49036 0.81472 0.0
C146 C 0.92523 0.48693 0.7941 0.0
C147 C 0.91295 0.48766 0.87557 0.0
C148 C 0.98229 0.50487 0.83233 0.0
C149 C 0.96197 0.44081 0.85252 0.0
O150 O 0.96156 0.45813 0.86342 0.0
O151 O 0.95447 0.44065 0.83321 0.0
O152 O 0.93113 0.49404 0.88366 0.0
O153 O 0.91281 0.48208 0.85547 0.0
O154 O 0.80754 0.22704 0.06941 0.0
Cd155 Cd 0.82733 0.20037 0.06581 0.0
Cd156 Cd 0.81356 0.19342 0.10507 0.0
O157 O 0.78969 0.21621 0.09836 0.0
O158 O 0.82492 0.19199 0.03421 0.0
O159 O 0.81231 0.17165 0.0608 0.0
C160 C 0.81402 0.17518 0.04027 0.0
C161 C 0.81149 0.16055 0.12435 0.0
C162 C 0.79274 0.23004 0.08335 0.0
C163 C 0.85845 0.21119 0.10032 0.0
O164 O 0.84165 0.20903 0.1119 0.0
O165 O 0.85816 0.20522 0.08049 0.0
O166 O 0.80615 0.17877 0.13301 0.0
O167 O 0.81618 0.16057 0.10402 0.0
O168 O 0.07208 0.99053 0.72813 0.0
Cd169 Cd 0.09995 0.97236 0.73049 0.0
Cd170 Cd 0.10635 0.98738 0.69179 0.0
O171 O 0.08326 1.0104 0.70054 0.0
O172 O 0.11226 0.9741 0.76104 0.0
O173 O 0.12597 0.99177 0.73317 0.0
C174 C 0.12583 0.98832 0.75378 0.0
C175 C 0.13941 0.98978 0.67275 0.0
C176 C 0.06913 1.00613 0.71503 0.0
C177 C 0.08983 0.94242 0.69455 0.0
O178 O 0.0907 0.95979 0.68374 0.0
O179 O 0.09686 0.9421 0.71404 0.0
O180 O 0.12136 0.99609 0.66432 0.0
O181 O 0.13914 0.98405 0.69281 0.0
O182 O 0.3088 0.32098 0.97981 0.0
Cd183 Cd 0.32687 0.34899 0.98209 0.0
Cd184 Cd 0.31246 0.35461 0.94319 0.0
O185 O 0.28924 0.33179 0.95185 0.0
O186 O 0.32472 0.36166 1.01243 0.0
O187 O 0.30746 0.37506 0.98413 0.0
C188 C 0.31065 0.37517 1.00479 0.0
C189 C 0.3103 0.38687 0.92292 0.0
C190 C 0.29335 0.31784 0.96654 0.0
C191 C 0.35747 0.33852 0.94696 0.0
O192 O 0.3402 0.33887 0.93594 0.0
O193 O 0.35747 0.34601 0.96627 0.0
O194 O 0.30425 0.3685 0.91505 0.0
O195 O 0.31559 0.38742 0.94309 0.0
O196 O 0.97815 0.55897 0.22917 0.0
Cd197 Cd 0.95024 0.57715 0.23119 0.0
Cd198 Cd 0.94434 0.56216 0.19258 0.0
O199 O 0.96701 0.53895 0.20168 0.0
O200 O 0.93747 0.57539 0.26155 0.0
O201 O 0.92422 0.55767 0.23348 0.0
C202 C 0.92405 0.56113 0.25409 0.0
C203 C 0.91164 0.56001 0.17295 0.0
C204 C 0.98109 0.54325 0.21622 0.0
C205 C 0.96088 0.60698 0.19534 0.0
O206 O 0.96036 0.58954 0.18464 0.0
O207 O 0.95341 0.60738 0.21466 0.0
O208 O 0.92977 0.55347 0.16489 0.0
O209 O 0.91158 0.56584 0.19297 0.0
O210 O 0.7407 0.22844 0.47896 0.0
Cd211 Cd 0.72275 0.20034 0.48096 0.0
Cd212 Cd 0.73742 0.19497 0.44215 0.0
O213 O 0.76051 0.21782 0.45112 0.0
O214 O 0.72476 0.18743 0.51125 0.0
O215 O 0.74236 0.1744 0.48301 0.0
C216 C 0.739 0.17408 0.50364 0.0
C217 C 0.73962 0.16253 0.42219 0.0
C218 C 0.75623 0.2317 0.46583 0.0
C219 C 0.69242 0.21094 0.4455 0.0
O220 O 0.70978 0.21073 0.43464 0.0
O221 O 0.69229 0.2033 0.46476 0.0
O222 O 0.74587 0.18079 0.41422 0.0
O223 O 0.73411 0.1622 0.4423 0.0
O224 O 0.3641 0.08971 0.08971 0.0
Cd225 Cd 0.3563 0.10517 0.06195 0.0
Cd226 Cd 0.31741 0.09896 0.07664 0.0
O227 O 0.3336 0.09603 0.10704 0.0
O228 O 0.38393 0.11992 0.05325 0.0
O229 O 0.35547 0.13797 0.06496 0.0
C230 C 0.37557 0.13807 0.05931 0.0
C231 C 0.29427 0.12488 0.06055 0.0
C232 C 0.3531 0.089 0.10697 0.0
C233 C 0.33306 0.06798 0.04311 0.0
O234 O 0.31981 0.07102 0.05857 0.0
O235 O 0.34766 0.08204 0.03896 0.0
O236 O 0.28687 0.11133 0.07471 0.0
O237 O 0.31492 0.12496 0.05722 0.0
O238 O 0.8649 0.95765 0.45865 0.0
Cd239 Cd 0.85724 0.94226 0.48648 0.0
Cd240 Cd 0.81831 0.94814 0.47182 0.0
O241 O 0.83441 0.95106 0.44138 0.0
O242 O 0.88494 0.92756 0.49505 0.0
O243 O 0.85643 0.90945 0.48352 0.0
C244 C 0.87657 0.90939 0.48903 0.0
C245 C 0.79514 0.92221 0.48789 0.0
C246 C 0.85387 0.95822 0.4414 0.0
C247 C 0.8339 0.97944 0.50515 0.0
O248 O 0.8206 0.97619 0.48976 0.0
O249 O 0.84859 0.9655 0.50936 0.0
O250 O 0.78778 0.93572 0.47369 0.0
O251 O 0.81578 0.92218 0.49132 0.0
O252 O 0.32169 0.06961 0.74036 0.0
Cd253 Cd 0.34955 0.06732 0.72218 0.0
Cd254 Cd 0.3559 0.10605 0.73712 0.0
O255 O 0.3329 0.09723 0.76018 0.0
O256 O 0.36204 0.03682 0.72399 0.0
O257 O 0.37556 0.06484 0.7416 0.0
C258 C 0.37555 0.04421 0.7382 0.0
C259 C 0.38896 0.12509 0.73952 0.0
C260 C 0.31877 0.08271 0.75596 0.0
C261 C 0.33935 0.10324 0.69221 0.0
O262 O 0.3402 0.11408 0.70957 0.0
O263 O 0.34642 0.08376 0.69192 0.0
O264 O 0.37093 0.13351 0.74589 0.0
O265 O 0.38868 0.10506 0.7337 0.0
O266 O 0.18439 0.59009 0.95838 0.0
Cd267 Cd 0.19214 0.60564 0.98611 0.0
Cd268 Cd 0.23102 0.59936 0.97147 0.0
O269 O 0.2149 0.5964 0.94105 0.0
O270 O 0.16453 0.62055 0.99461 0.0
O271 O 0.19312 0.63844 0.98295 0.0
C272 C 0.17299 0.63863 0.98848 0.0
C273 C 0.25439 0.62512 0.98745 0.0
C274 C 0.1954 0.58935 0.94113 0.0
C275 C 0.21529 0.56849 1.00507 0.0
O276 O 0.22853 0.57148 0.98959 0.0
O277 O 0.20071 0.58256 1.00919 0.0
O278 O 0.26164 0.6115 0.9733 0.0
O279 O 0.23374 0.62538 0.99083 0.0
O280 O 0.22887 0.97945 0.23947 0.0
Cd281 Cd 0.20103 0.98166 0.22116 0.0
Cd282 Cd 0.1951 0.94285 0.23564 0.0
O283 O 0.21768 0.95169 0.25907 0.0
O284 O 0.18836 1.01205 0.22306 0.0
O285 O 0.17488 0.98387 0.24044 0.0
C286 C 0.1748 1.00451 0.23713 0.0
C287 C 0.1624 0.92318 0.23755 0.0
C288 C 0.23175 0.96631 0.25505 0.0
C289 C 0.21167 0.94619 0.1909 0.0
O290 O 0.21116 0.93525 0.20819 0.0
O291 O 0.20421 0.96552 0.19076 0.0
O292 O 0.18053 0.91506 0.24402 0.0
O293 O 0.16234 0.94326 0.23191 0.0
O294 O 0.68264 0.96051 0.08992 0.0
Cd295 Cd 0.69005 0.94549 0.06185 0.0
Cd296 Cd 0.72906 0.95124 0.07624 0.0
O297 O 0.71324 0.9536 0.10686 0.0
O298 O 0.66243 0.93043 0.05356 0.0
O299 O 0.69135 0.91269 0.06463 0.0
C300 C 0.67113 0.91237 0.05943 0.0
C301 C 0.75262 0.92581 0.05988 0.0
C302 C 0.6938 0.96079 0.10709 0.0
C303 C 0.71291 0.98311 0.04361 0.0
O304 O 0.72637 0.97956 0.05879 0.0
O305 O 0.69825 0.96918 0.03922 0.0
O306 O 0.75977 0.93932 0.0742 0.0
O307 O 0.73198 0.92552 0.05642 0.0
O308 O 0.32047 0.47875 0.80841 0.0
Cd309 Cd 0.34832 0.48116 0.82665 0.0
Cd310 Cd 0.3546 0.44232 0.81198 0.0
O311 O 0.33161 0.45095 0.78882 0.0
O312 O 0.36062 0.5117 0.82492 0.0
O313 O 0.37443 0.48377 0.80739 0.0
C314 C 0.37428 0.5044 0.81082 0.0
C315 C 0.38761 0.42316 0.80964 0.0
C316 C 0.31753 0.46554 0.7929 0.0
C317 C 0.33821 0.44553 0.85691 0.0
O318 O 0.33895 0.43454 0.83965 0.0
O319 O 0.34529 0.465 0.85702 0.0
O320 O 0.36952 0.41474 0.80342 0.0
O321 O 0.38741 0.44325 0.81527 0.0
O322 O 0.72915 0.06949 0.30844 0.0
Cd323 Cd 0.70131 0.06742 0.32674 0.0
Cd324 Cd 0.69535 0.10606 0.31191 0.0
O325 O 0.7179 0.09701 0.28854 0.0
O326 O 0.68862 0.03702 0.32516 0.0
O327 O 0.6752 0.065 0.30743 0.0
C328 C 0.67508 0.0444 0.31098 0.0
C329 C 0.66248 0.12541 0.31006 0.0
C330 C 0.732 0.08247 0.29272 0.0
C331 C 0.71196 0.10322 0.35663 0.0
O332 O 0.71148 0.11398 0.33922 0.0
O333 O 0.70447 0.0839 0.35697 0.0
O334 O 0.68048 0.13363 0.30335 0.0
O335 O 0.66263 0.10538 0.3159 0.0
O336 O 0.05956 0.82018 0.56968 0.0
Cd337 Cd 0.07689 0.81757 0.59816 0.0
Cd338 Cd 0.06335 0.85682 0.60305 0.0
O339 O 0.04046 0.84873 0.57966 0.0
O340 O 0.0741 0.78716 0.61058 0.0
O341 O 0.05696 0.81555 0.6239 0.0
C342 C 0.05993 0.79485 0.62395 0.0
C343 C 0.06128 0.87706 0.63533 0.0
C344 C 0.0446 0.83384 0.56593 0.0
C345 C 0.10858 0.85184 0.58811 0.0
O346 O 0.09158 0.86327 0.58789 0.0
O347 O 0.10793 0.83262 0.59579 0.0
O348 O 0.05569 0.88514 0.61691 0.0
O349 O 0.06597 0.85673 0.63589 0.0
O350 O 0.93636 0.842 0.83889 0.0
Cd351 Cd 0.94256 0.81375 0.8544 0.0
Cd352 Cd 0.98224 0.82669 0.84743 0.0
O353 O 0.96822 0.85778 0.84247 0.0
O354 O 0.91441 0.80695 0.86901 0.0
O355 O 0.94362 0.81629 0.88727 0.0
C356 C 0.92317 0.81206 0.88724 0.0
C357 C 1.0079 0.81331 0.87251 0.0
C358 C 0.94834 0.85849 0.83663 0.0
C359 C 0.96375 0.79257 0.81766 0.0
O360 O 0.97815 0.80693 0.8208 0.0
O361 O 0.94861 0.78988 0.83142 0.0
O362 O 1.01393 0.82392 0.85551 0.0
O363 O 0.98736 0.81189 0.87625 0.0
O364 O 0.99023 0.72777 0.06911 0.0
Cd365 Cd 0.97273 0.73017 0.09745 0.0
Cd366 Cd 0.98694 0.69122 0.1027 0.0
O367 O 1.00982 0.69966 0.07941 0.0
O368 O 0.97499 0.76064 0.10996 0.0
O369 O 0.99262 0.73251 0.12319 0.0
C370 C 0.9893 0.75315 0.12331 0.0
C371 C 0.98903 0.6717 0.13542 0.0
C372 C 1.00547 0.71437 0.06556 0.0
C373 C 0.94182 0.69509 0.08726 0.0
O374 O 0.95903 0.68399 0.0873 0.0
O375 O 0.94203 0.71437 0.09486 0.0
O376 O 0.9951 0.66337 0.11726 0.0
O377 O 0.9838 0.69189 0.13547 0.0
O378 O 0.11274 0.70693 0.33874 0.0
Cd379 Cd 0.106 0.73499 0.35435 0.0
Cd380 Cd 0.06662 0.72139 0.34745 0.0
O381 O 0.08123 0.69054 0.34256 0.0
O382 O 0.13397 0.74233 0.36905 0.0
O383 O 0.10492 0.73228 0.38718 0.0
C384 C 0.12527 0.73695 0.38723 0.0
C385 C 0.04112 0.73464 0.37273 0.0
C386 C 0.10108 0.6902 0.33659 0.0
C387 C 0.08432 0.75586 0.31772 0.0
O388 O 0.07026 0.74116 0.32077 0.0
O389 O 0.09938 0.75884 0.33153 0.0
O390 O 0.03499 0.72383 0.3559 0.0
O391 O 0.06168 0.73633 0.3762 0.0
O392 O 0.05889 0.22912 0.4771 0.0
Cd393 Cd 0.07696 0.23124 0.44916 0.0
Cd394 Cd 0.06201 0.19259 0.44328 0.0
O395 O 0.03886 0.20158 0.46605 0.0
O396 O 0.07512 0.26167 0.43657 0.0
O397 O 0.05739 0.23362 0.42323 0.0
C398 C 0.06081 0.25425 0.42316 0.0
C399 C 0.05975 0.17294 0.41064 0.0
C400 C 0.0432 0.21612 0.4801 0.0
C401 C 0.10693 0.19546 0.45965 0.0
O402 O 0.0895 0.18471 0.45915 0.0
O403 O 0.10727 0.21481 0.45223 0.0
O404 O 0.05332 0.16487 0.42878 0.0
O405 O 0.0655 0.193 0.41053 0.0
O406 O 0.61268 0.84067 0.70937 0.0
Cd407 Cd 0.60546 0.81265 0.69387 0.0
Cd408 Cd 0.56633 0.82678 0.7008 0.0
O409 O 0.58141 0.85747 0.70547 0.0
O410 O 0.63327 0.80486 0.67912 0.0
O411 O 0.6043 0.81526 0.66105 0.0
C412 C 0.62458 0.8103 0.66095 0.0
C413 C 0.54074 0.81356 0.67556 0.0
C414 C 0.60127 0.85758 0.71143 0.0
C415 C 0.58358 0.79222 0.73061 0.0
O416 O 0.56975 0.80712 0.72758 0.0
O417 O 0.59854 0.78897 0.71676 0.0
O418 O 0.53469 0.82459 0.69227 0.0
O419 O 0.56129 0.81163 0.67217 0.0
O420 O 0.99047 0.31895 0.97809 0.0
Cd421 Cd 0.97245 0.31675 0.95007 0.0
Cd422 Cd 0.98706 0.35557 0.94437 0.0
O423 O 1.0102 0.34677 0.96722 0.0
O424 O 0.97447 0.28639 0.9373 0.0
O425 O 0.992 0.31461 0.92411 0.0
C426 C 0.98867 0.29397 0.92389 0.0
C427 C 0.98933 0.3753 0.91179 0.0
C428 C 1.00599 0.33214 0.98121 0.0
C429 C 0.9421 0.35225 0.96049 0.0
O430 O 0.95943 0.36318 0.96011 0.0
O431 O 0.94199 0.33292 0.95304 0.0
O432 O 0.99558 0.38339 0.93 0.0
O433 O 0.98374 0.3552 0.91161 0.0
O434 O 0.43656 0.70744 0.20952 0.0
Cd435 Cd 0.44333 0.73563 0.19415 0.0
Cd436 Cd 0.48273 0.72207 0.20114 0.0
O437 O 0.46814 0.69116 0.20585 0.0
O438 O 0.41538 0.74297 0.17943 0.0
O439 O 0.44453 0.73321 0.1613 0.0
C440 C 0.42415 0.73778 0.16123 0.0
C441 C 0.50839 0.73545 0.17605 0.0
C442 C 0.44824 0.69073 0.21168 0.0
C443 C 0.46477 0.75631 0.23103 0.0
O444 O 0.47891 0.7417 0.22791 0.0
O445 O 0.44974 0.75932 0.2172 0.0
O446 O 0.51441 0.7246 0.19289 0.0
O447 O 0.48784 0.73713 0.17246 0.0
O448 O 0.07053 0.55924 0.81854 0.0
Cd449 Cd 0.09854 0.5773 0.81603 0.0
Cd450 Cd 0.10426 0.5633 0.85504 0.0
O451 O 0.08143 0.53997 0.84664 0.0
O452 O 0.11095 0.57503 0.78561 0.0
O453 O 0.12466 0.55794 0.81386 0.0
C454 C 0.12457 0.56103 0.79319 0.0
C455 C 0.1366 0.56129 0.87526 0.0
C456 C 0.06744 0.54391 0.83194 0.0
C457 C 0.08823 0.60825 0.85087 0.0
O458 O 0.08854 0.59111 0.86205 0.0
O459 O 0.09568 0.60804 0.83155 0.0
O460 O 0.11822 0.55534 0.88321 0.0
O461 O 0.1371 0.56638 0.85503 0.0
O462 O 0.24101 0.82058 0.06926 0.0
Cd463 Cd 0.22279 0.84846 0.0671 0.0
Cd464 Cd 0.23753 0.85431 0.10584 0.0
O465 O 0.26082 0.83162 0.09694 0.0
O466 O 0.22464 0.86108 0.03668 0.0
O467 O 0.24218 0.87454 0.06477 0.0
C468 C 0.23881 0.8746 0.04414 0.0
C469 C 0.23955 0.88696 0.12551 0.0
C470 C 0.25663 0.81759 0.08234 0.0
C471 C 0.19266 0.83784 0.1027 0.0
O472 O 0.21004 0.83835 0.11354 0.0
O473 O 0.19241 0.8453 0.08337 0.0
O474 O 0.24598 0.86882 0.13361 0.0
O475 O 0.23394 0.88706 0.10542 0.0
O476 O 0.9785 0.98845 0.31866 0.0
Cd477 Cd 0.95051 0.97034 0.31627 0.0
Cd478 Cd 0.94486 0.98446 0.35522 0.0
O479 O 0.96758 1.00785 0.34666 0.0
O480 O 0.9381 0.97252 0.28584 0.0
O481 O 0.92441 0.98971 0.31403 0.0
C482 C 0.92451 0.98657 0.29336 0.0
C483 C 0.9125 0.98634 0.37542 0.0
C484 C 0.98156 1.00387 0.33196 0.0
C485 C 0.96099 0.93955 0.35119 0.0
O486 O 0.96072 0.95674 0.3623 0.0
O487 O 0.95345 0.93967 0.3319 0.0
O488 O 0.93084 0.99244 0.38336 0.0
O489 O 0.91203 0.98116 0.35521 0.0
O490 O 0.80664 0.72539 0.56941 0.0
Cd491 Cd 0.82665 0.69887 0.56603 0.0
Cd492 Cd 0.81254 0.69184 0.60515 0.0
O493 O 0.78856 0.71442 0.59817 0.0
O494 O 0.82455 0.69045 0.53441 0.0
O495 O 0.81184 0.67006 0.56091 0.0
C496 C 0.81369 0.67359 0.54039 0.0
C497 C 0.81057 0.65901 0.62449 0.0
C498 C 0.79166 0.72827 0.58319 0.0
C499 C 0.85731 0.71004 0.60087 0.0
O500 O 0.84042 0.70772 0.61225 0.0
O501 O 0.8573 0.70404 0.58104 0.0
O502 O 0.80499 0.6772 0.63305 0.0
O503 O 0.81545 0.65902 0.60421 0.0
O504 O 0.06961 0.48938 0.22937 0.0
Cd505 Cd 0.09771 0.47148 0.23148 0.0
Cd506 Cd 0.10341 0.48625 0.19275 0.0
O507 O 0.08051 0.50929 0.20172 0.0
O508 O 0.11056 0.47355 0.2618 0.0
O509 O 0.12356 0.49119 0.23357 0.0
C510 C 0.12385 0.48785 0.2542 0.0
C511 C 0.13603 0.48871 0.17305 0.0
C512 C 0.0665 0.50497 0.2163 0.0
C513 C 0.08743 0.44125 0.19585 0.0
O514 O 0.08771 0.45862 0.18502 0.0
O515 O 0.09491 0.4411 0.21518 0.0
O516 O 0.11779 0.49495 0.16499 0.0
O517 O 0.13621 0.483 0.19311 0.0
O518 O 0.30698 0.82135 0.47897 0.0
Cd519 Cd 0.32689 0.84795 0.48247 0.0
Cd520 Cd 0.31292 0.85497 0.44327 0.0
O521 O 0.28906 0.83219 0.45006 0.0
O522 O 0.32473 0.85636 0.51409 0.0
O523 O 0.31208 0.87675 0.48757 0.0
C524 C 0.31391 0.87323 0.50809 0.0
C525 C 0.31083 0.88782 0.42396 0.0
C526 C 0.29213 0.81836 0.46506 0.0
C527 C 0.35777 0.83703 0.44779 0.0
O528 O 0.34093 0.8393 0.4363 0.0
O529 O 0.35762 0.84296 0.46763 0.0
O530 O 0.30541 0.8696 0.41534 0.0
O531 O 0.31561 0.88782 0.44427 0.0
O532 O 0.98018 0.05938 0.728 0.0
Cd533 Cd 0.95199 0.07714 0.73017 0.0
Cd534 Cd 0.94641 0.06249 0.69137 0.0
O535 O 0.9695 0.03956 0.70018 0.0
O536 O 0.9393 0.0751 0.76055 0.0
O537 O 0.92615 0.05741 0.73241 0.0
C538 C 0.92597 0.06079 0.75303 0.0
C539 C 0.91376 0.06004 0.6717 0.0
C540 C 0.98345 0.0439 0.71483 0.0
C541 C 0.96216 0.10755 0.69471 0.0
O542 O 0.96196 0.09024 0.68379 0.0
O543 O 0.95467 0.10759 0.71402 0.0
O544 O 0.932 0.0539 0.66357 0.0
O545 O 0.91359 0.06563 0.69179 0.0
O546 O 0.74057 0.72945 0.97909 0.0
Cd547 Cd 0.7225 0.70145 0.98127 0.0
Cd548 Cd 0.73717 0.69571 0.94248 0.0
O549 O 0.76032 0.7186 0.9513 0.0
O550 O 0.72438 0.68875 1.01164 0.0
O551 O 0.74197 0.67544 0.98353 0.0
C552 C 0.73855 0.67527 1.00414 0.0
C553 C 0.73932 0.66305 0.92283 0.0
C554 C 0.7561 0.73258 0.96593 0.0
C555 C 0.69221 0.71186 0.94574 0.0
O556 O 0.70956 0.71148 0.93485 0.0
O557 O 0.69207 0.70441 0.96507 0.0
O558 O 0.74563 0.68123 0.91469 0.0
O559 O 0.73377 0.66294 0.94293 0.0
O560 O 0.36603 0.58908 0.58965 0.0
Cd561 Cd 0.35856 0.60414 0.56162 0.0
Cd562 Cd 0.31958 0.59857 0.57613 0.0
O563 O 0.33553 0.59609 0.6067 0.0
O564 O 0.38623 0.61899 0.55318 0.0
O565 O 0.3575 0.63696 0.56436 0.0
C566 C 0.37769 0.63712 0.55905 0.0
C567 C 0.29626 0.62422 0.55975 0.0
C568 C 0.35494 0.58882 0.60686 0.0
C569 C 0.33541 0.56667 0.54342 0.0
O570 O 0.32202 0.57024 0.55865 0.0
O571 O 0.35011 0.58054 0.53901 0.0
O572 O 0.28898 0.61081 0.5741 0.0
O573 O 0.3169 0.62429 0.55629 0.0
O574 O 0.8646 0.46013 0.9585 0.0
Cd575 Cd 0.85706 0.44433 0.98609 0.0
Cd576 Cd 0.81821 0.44984 0.97157 0.0
O577 O 0.83438 0.45274 0.94112 0.0
O578 O 0.88487 0.4298 0.99448 0.0
O579 O 0.85657 0.41157 0.98258 0.0
C580 C 0.8767 0.41165 0.98812 0.0
C581 C 0.79525 0.4238 0.98778 0.0
C582 C 0.85367 0.46033 0.94119 0.0
C583 C 0.83347 0.48108 1.00503 0.0
O584 O 0.82032 0.47791 0.9895 0.0
O585 O 0.84816 0.46715 1.00925 0.0
O586 O 0.78778 0.43719 0.97351 0.0
O587 O 0.8159 0.42393 0.99119 0.0
O588 O 0.32077 0.57083 0.23963 0.0
Cd589 Cd 0.34892 0.56841 0.22187 0.0
Cd590 Cd 0.35496 0.60728 0.23662 0.0
O591 O 0.33155 0.59867 0.25938 0.0
O592 O 0.36119 0.53786 0.22388 0.0
O593 O 0.37471 0.56582 0.24158 0.0
C594 C 0.37461 0.54519 0.23821 0.0
C595 C 0.38798 0.6264 0.23927 0.0
C596 C 0.31753 0.58407 0.25505 0.0
C597 C 0.33919 0.60406 0.19147 0.0
O598 O 0.3397 0.61503 0.20875 0.0
O599 O 0.34629 0.58459 0.19144 0.0
O600 O 0.36985 0.63486 0.24528 0.0
O601 O 0.3878 0.60629 0.23372 0.0
O602 O 0.18391 0.08731 0.458 0.0
Cd603 Cd 0.19115 0.1028 0.48583 0.0
Cd604 Cd 0.23011 0.09757 0.47164 0.0
O605 O 0.21427 0.09499 0.44099 0.0
O606 O 0.16332 0.11743 0.49397 0.0
O607 O 0.19188 0.13557 0.48257 0.0
C608 C 0.17167 0.13556 0.48783 0.0
C609 C 0.25318 0.12336 0.4882 0.0
C610 C 0.195 0.08733 0.44079 0.0
C611 C 0.21439 0.06575 0.50445 0.0
O612 O 0.22773 0.06924 0.48917 0.0
O613 O 0.19967 0.07962 0.50878 0.0
O614 O 0.26062 0.11002 0.47387 0.0
O615 O 0.23252 0.1233 0.49153 0.0
O616 O 0.22917 0.47899 0.73867 0.0
Cd617 Cd 0.20113 0.48149 0.72065 0.0
Cd618 Cd 0.19543 0.44248 0.73471 0.0
O619 O 0.21833 0.45087 0.75797 0.0
O620 O 0.18878 0.51195 0.72284 0.0
O621 O 0.17503 0.48377 0.74002 0.0
C622 C 0.17516 0.50444 0.73687 0.0
C623 C 0.16298 0.42239 0.73669 0.0
C624 C 0.23231 0.46559 0.75399 0.0
C625 C 0.2114 0.44659 0.68975 0.0
O626 O 0.21111 0.43542 0.7069 0.0
O627 O 0.20396 0.46592 0.68995 0.0
O628 O 0.18131 0.41436 0.74267 0.0
O629 O 0.16258 0.44262 0.73158 0.0
O630 O 0.68379 0.45925 0.5906 0.0
Cd631 Cd 0.69122 0.44409 0.56259 0.0
Cd632 Cd 0.73025 0.45001 0.57698 0.0
O633 O 0.71444 0.45264 0.60759 0.0
O634 O 0.66351 0.42926 0.55422 0.0
O635 O 0.69224 0.41126 0.56535 0.0
C636 C 0.67205 0.41112 0.56005 0.0
C637 C 0.75363 0.42443 0.56063 0.0
C638 C 0.69496 0.45975 0.60776 0.0
C639 C 0.71412 0.48157 0.54408 0.0
O640 O 0.72757 0.47819 0.55931 0.0
O641 O 0.69947 0.46759 0.53982 0.0
O642 O 0.76091 0.43798 0.57485 0.0
O643 O 0.73296 0.42417 0.55733 0.0
O644 O 0.31977 0.97979 0.30982 0.0
Cd645 Cd 0.3478 0.98227 0.32785 0.0
Cd646 Cd 0.35348 0.94327 0.31382 0.0
O647 O 0.33071 0.95175 0.29048 0.0
O648 O 0.36022 1.0127 0.32555 0.0
O649 O 0.37387 0.98443 0.30843 0.0
C650 C 0.37378 1.00512 0.3115 0.0
C651 C 0.38583 0.92308 0.31181 0.0
C652 C 0.31671 0.96644 0.29444 0.0
C653 C 0.33748 0.94738 0.35875 0.0
O654 O 0.33772 0.93622 0.34159 0.0
O655 O 0.34498 0.96669 0.35855 0.0
O656 O 0.36748 0.91513 0.30579 0.0
O657 O 0.38632 0.94328 0.31701 0.0
O658 O 0.72907 0.56954 0.8095 0.0
Cd659 Cd 0.70118 0.56754 0.82772 0.0
Cd660 Cd 0.69536 0.60618 0.81286 0.0
O661 O 0.7179 0.59702 0.78951 0.0
O662 O 0.68853 0.53713 0.82606 0.0
O663 O 0.67515 0.56511 0.8083 0.0
C664 C 0.67506 0.5445 0.8118 0.0
C665 C 0.66259 0.6257 0.81095 0.0
C666 C 0.73196 0.58245 0.79374 0.0
C667 C 0.71185 0.60333 0.85763 0.0
O668 O 0.71148 0.61406 0.8402 0.0
O669 O 0.70427 0.58404 0.85796 0.0
O670 O 0.68065 0.63383 0.80429 0.0
O671 O 0.66262 0.60567 0.81676 0.0
O672 O 0.55677 0.32012 0.57214 0.0
Cd673 Cd 0.57645 0.31662 0.59892 0.0
Cd674 Cd 0.56279 0.35602 0.60553 0.0
O675 O 0.53903 0.34928 0.58261 0.0
O676 O 0.57401 0.28503 0.6074 0.0
O677 O 0.56139 0.31168 0.62763 0.0
C678 C 0.56312 0.29112 0.62418 0.0
C679 C 0.56078 0.37551 0.63828 0.0
C680 C 0.54207 0.33414 0.56892 0.0
C681 C 0.60772 0.35102 0.58799 0.0
O682 O 0.59096 0.36266 0.59001 0.0
O683 O 0.60736 0.33122 0.59407 0.0
O684 O 0.55551 0.38409 0.62001 0.0
O685 O 0.56534 0.35515 0.63839 0.0
O686 O 0.43527 0.34176 0.83906 0.0
Cd687 Cd 0.44149 0.31334 0.85422 0.0
Cd688 Cd 0.48111 0.32656 0.8479 0.0
O689 O 0.46696 0.35768 0.84339 0.0
O690 O 0.4134 0.30631 0.86879 0.0
O691 O 0.44263 0.31554 0.88708 0.0
C692 C 0.42219 0.31128 0.88705 0.0
C693 C 0.5067 0.3128 0.87292 0.0
C694 C 0.44716 0.35837 0.83727 0.0
C695 C 0.46297 0.29291 0.81733 0.0
O696 O 0.47724 0.3073 0.82086 0.0
O697 O 0.44778 0.28982 0.83096 0.0
O698 O 0.51278 0.32373 0.85616 0.0
O699 O 0.48614 0.31122 0.87648 0.0
O700 O 0.49194 0.22747 0.07001 0.0
Cd701 Cd 0.47261 0.23136 0.09702 0.0
Cd702 Cd 0.48577 0.19172 0.10338 0.0
O703 O 0.50929 0.19793 0.08007 0.0
O704 O 0.4754 0.26298 0.10536 0.0
O705 O 0.48781 0.23631 0.12569 0.0
C706 C 0.48622 0.25686 0.12219 0.0
C707 C 0.4879 0.17232 0.13615 0.0
C708 C 0.50627 0.21315 0.06645 0.0
C709 C 0.44069 0.19749 0.08646 0.0
O710 O 0.45727 0.18557 0.08828 0.0
O711 O 0.44145 0.21729 0.09251 0.0
O712 O 0.49276 0.16358 0.11784 0.0
O713 O 0.48372 0.19276 0.13626 0.0
O714 O 0.61466 0.20808 0.33785 0.0
Cd715 Cd 0.60749 0.23599 0.35323 0.0
Cd716 Cd 0.56845 0.22184 0.34798 0.0
O717 O 0.58418 0.19115 0.34529 0.0
O718 O 0.63539 0.24423 0.3677 0.0
O719 O 0.60691 0.23294 0.38602 0.0
C720 C 0.62711 0.23823 0.3859 0.0
C721 C 0.54552 0.23834 0.37392 0.0
C722 C 0.60348 0.19092 0.33773 0.0
C723 C 0.5843 0.25454 0.31609 0.0
O724 O 0.57083 0.23937 0.31966 0.0
O725 O 0.59906 0.25884 0.32992 0.0
O726 O 0.538 0.22408 0.36054 0.0
O727 O 0.56618 0.24165 0.37378 0.0
O728 O 0.55987 0.72839 0.47929 0.0
Cd729 Cd 0.57721 0.73094 0.45083 0.0
Cd730 Cd 0.5633 0.69183 0.44575 0.0
O731 O 0.54051 0.70005 0.46915 0.0
O732 O 0.57458 0.76136 0.43836 0.0
O733 O 0.55726 0.73303 0.42512 0.0
C734 C 0.56034 0.75371 0.42503 0.0
C735 C 0.56095 0.67175 0.4134 0.0
C736 C 0.54479 0.71484 0.48295 0.0
C737 C 0.60857 0.69631 0.46077 0.0
O738 O 0.59147 0.68503 0.46089 0.0
O739 O 0.60811 0.71558 0.45318 0.0
O740 O 0.55529 0.66366 0.43179 0.0
O741 O 0.56591 0.69201 0.41291 0.0
O742 O 0.11485 0.3394 0.70803 0.0
Cd743 Cd 0.10705 0.31164 0.69257 0.0
Cd744 Cd 0.06817 0.32643 0.69869 0.0
O745 O 0.08442 0.35682 0.70161 0.0
O746 O 0.13469 0.30302 0.67779 0.0
O747 O 0.1062 0.31471 0.65978 0.0
C748 C 0.12632 0.30913 0.65967 0.0
C749 C 0.04493 0.31038 0.67282 0.0
C750 C 0.1039 0.3567 0.7087 0.0
C751 C 0.08373 0.29291 0.72975 0.0
O752 O 0.07051 0.30839 0.72664 0.0
O753 O 0.09836 0.28869 0.71574 0.0
O754 O 0.0376 0.32458 0.68636 0.0
O755 O 0.06558 0.30699 0.67271 0.0
O756 O 0.4899 0.82034 0.97965 0.0
Cd757 Cd 0.47245 0.81803 0.95125 0.0
Cd758 Cd 0.48702 0.85687 0.94593 0.0
O759 O 0.50973 0.84829 0.96932 0.0
O760 O 0.4746 0.78759 0.93863 0.0
O761 O 0.49243 0.81568 0.92559 0.0
C762 C 0.489 0.79506 0.92537 0.0
C763 C 0.48952 0.87633 0.91321 0.0
C764 C 0.50522 0.83365 0.98321 0.0
C765 C 0.44183 0.85343 0.96126 0.0
O766 O 0.45913 0.8644 0.9612 0.0
O767 O 0.44189 0.83411 0.95374 0.0
O768 O 0.49558 0.88461 0.9314 0.0
O769 O 0.48403 0.8562 0.91315 0.0
O770 O 0.9342 0.20892 0.20881 0.0
Cd771 Cd 0.94192 0.23675 0.19342 0.0
Cd772 Cd 0.98083 0.22211 0.19958 0.0
O773 O 0.9647 0.19164 0.20236 0.0
O774 O 0.91428 0.24526 0.17856 0.0
O775 O 0.94288 0.23374 0.16062 0.0
C776 C 0.92274 0.23922 0.16046 0.0
C777 C 1.00413 0.23824 0.17383 0.0
C778 C 0.94521 0.19166 0.20942 0.0
C779 C 0.96508 0.25556 0.23064 0.0
O780 O 0.97834 0.24012 0.22755 0.0
O781 O 0.95047 0.25973 0.2166 0.0
O782 O 1.01144 0.22405 0.18739 0.0
O783 O 0.98347 0.24159 0.17364 0.0
O784 O 0.57206 0.05836 0.81918 0.0
Cd785 Cd 0.60006 0.07636 0.8166 0.0
Cd786 Cd 0.60615 0.06195 0.85557 0.0
O787 O 0.58298 0.0389 0.84715 0.0
O788 O 0.61234 0.07408 0.78611 0.0
O789 O 0.62607 0.05691 0.8143 0.0
C790 C 0.6259 0.06 0.79363 0.0
C791 C 0.63878 0.05957 0.87533 0.0
C792 C 0.56895 0.043 0.83252 0.0
C793 C 0.59005 0.10703 0.8518 0.0
O794 O 0.59069 0.08984 0.86291 0.0
O795 O 0.59717 0.10696 0.83236 0.0
O796 O 0.62049 0.05369 0.88351 0.0
O797 O 0.63901 0.06481 0.85514 0.0
O798 O 0.73961 0.31909 0.06969 0.0
Cd799 Cd 0.72198 0.34735 0.067 0.0
Cd800 Cd 0.73583 0.35273 0.10612 0.0
O801 O 0.75883 0.32948 0.09803 0.0
O802 O 0.72448 0.35963 0.03652 0.0
O803 O 0.74162 0.37329 0.06477 0.0
C804 C 0.73856 0.37319 0.04408 0.0
C805 C 0.73794 0.38511 0.12621 0.0
C806 C 0.75471 0.3156 0.08327 0.0
C807 C 0.69068 0.33724 0.10156 0.0
O808 O 0.70775 0.33737 0.11288 0.0
O809 O 0.69109 0.34473 0.08227 0.0
O810 O 0.74367 0.36674 0.13431 0.0
O811 O 0.73304 0.38557 0.10594 0.0
O812 O 0.47811 0.48994 0.32069 0.0
Cd813 Cd 0.45006 0.47203 0.31829 0.0
Cd814 Cd 0.44388 0.48695 0.35705 0.0
O815 O 0.46718 0.5098 0.34838 0.0
O816 O 0.43773 0.47398 0.28775 0.0
O817 O 0.42422 0.49167 0.31571 0.0
C818 C 0.4243 0.48829 0.29508 0.0
C819 C 0.41085 0.4895 0.37611 0.0
C820 C 0.48125 0.50545 0.33386 0.0
C821 C 0.46001 0.44188 0.35407 0.0
O822 O 0.45931 0.45922 0.36496 0.0
O823 O 0.45292 0.44168 0.3346 0.0
O824 O 0.42894 0.49566 0.38456 0.0
O825 O 0.41106 0.48384 0.35604 0.0
O826 O 0.30909 0.22811 0.57007 0.0
Cd827 Cd 0.32659 0.19975 0.56753 0.0
Cd828 Cd 0.31271 0.19466 0.60665 0.0
O829 O 0.28979 0.21797 0.59843 0.0
O830 O 0.3241 0.18736 0.53708 0.0
O831 O 0.30681 0.17388 0.5653 0.0
C832 C 0.30993 0.1739 0.54463 0.0
C833 C 0.31068 0.16232 0.62682 0.0
C834 C 0.294 0.23176 0.58361 0.0
C835 C 0.35789 0.20997 0.60212 0.0
O836 O 0.34079 0.21 0.61339 0.0
O837 O 0.35749 0.20234 0.58288 0.0
O838 O 0.30491 0.1807 0.63487 0.0
O839 O 0.31553 0.16183 0.60653 0.0
O840 O 0.56936 0.98933 0.23046 0.0
Cd841 Cd 0.59742 0.97132 0.23294 0.0
Cd842 Cd 0.60305 0.98531 0.19387 0.0
O843 O 0.58017 1.00854 0.20228 0.0
O844 O 0.61009 0.97371 0.26326 0.0
O845 O 0.62354 0.99071 0.23483 0.0
C846 C 0.62366 0.98768 0.25551 0.0
C847 C 0.63532 0.98759 0.17359 0.0
C848 C 0.56621 1.0046 0.21701 0.0
C849 C 0.58717 0.9403 0.19811 0.0
O850 O 0.58744 0.95742 0.18689 0.0
O851 O 0.59459 0.94058 0.21744 0.0
O852 O 0.61689 0.99342 0.16569 0.0
O853 O 0.63591 0.98239 0.19378 0.0
O854 O 0.80941 0.32055 0.47908 0.0
Cd855 Cd 0.82727 0.34867 0.48125 0.0
Cd856 Cd 0.81247 0.35441 0.44256 0.0
O857 O 0.78942 0.33146 0.45148 0.0
O858 O 0.82522 0.3613 0.51165 0.0
O859 O 0.80747 0.37444 0.48355 0.0
C860 C 0.81083 0.37457 0.50418 0.0
C861 C 0.81016 0.38709 0.42299 0.0
C862 C 0.7938 0.31743 0.46602 0.0
C863 C 0.85747 0.3384 0.44559 0.0
O864 O 0.84008 0.33871 0.43477 0.0
O865 O 0.85767 0.34587 0.46491 0.0
O866 O 0.80381 0.36893 0.41486 0.0
O867 O 0.81586 0.38718 0.44305 0.0
O868 O 0.47928 0.55974 0.73027 0.0
Cd869 Cd 0.45127 0.5778 0.73257 0.0
Cd870 Cd 0.4457 0.56366 0.69358 0.0
O871 O 0.46842 0.54033 0.70224 0.0
O872 O 0.43857 0.5755 0.76288 0.0
O873 O 0.42519 0.55838 0.73449 0.0
C874 C 0.42507 0.56146 0.75516 0.0
C875 C 0.4134 0.56159 0.6733 0.0
C876 C 0.48237 0.54432 0.71697 0.0
C877 C 0.46172 0.60862 0.69765 0.0
O878 O 0.4615 0.59143 0.68653 0.0
O879 O 0.45416 0.60846 0.71693 0.0
O880 O 0.43178 0.55554 0.66543 0.0
O881 O 0.41286 0.56686 0.69347 0.0
O882 O 0.23936 0.22939 0.97918 0.0
Cd883 Cd 0.22136 0.20135 0.98121 0.0
Cd884 Cd 0.23642 0.19553 0.94262 0.0
O885 O 0.2595 0.21837 0.95174 0.0
O886 O 0.22319 0.18862 1.01159 0.0
O887 O 0.24105 0.17553 0.98354 0.0
C888 C 0.23756 0.17532 1.00414 0.0
C889 C 0.23874 0.16279 0.92312 0.0
C890 C 0.2551 0.23241 0.96626 0.0
C891 C 0.19145 0.21164 0.94531 0.0
O892 O 0.20892 0.21132 0.93463 0.0
O893 O 0.19111 0.20418 0.96463 0.0
O894 O 0.24522 0.18091 0.91501 0.0
O895 O 0.23288 0.16277 0.94314 0.0
O896 O 0.86497 0.08675 0.58878 0.0
Cd897 Cd 0.85727 0.10233 0.56113 0.0
Cd898 Cd 0.81845 0.09672 0.57578 0.0
O899 O 0.83474 0.09403 0.60619 0.0
O900 O 0.88497 0.11704 0.55262 0.0
O901 O 0.85657 0.13509 0.5645 0.0
C902 C 0.87669 0.13514 0.55893 0.0
C903 C 0.79546 0.12275 0.55956 0.0
C904 C 0.85408 0.08655 0.60612 0.0
C905 C 0.83384 0.06529 0.5425 0.0
O906 O 0.82064 0.06855 0.55797 0.0
O907 O 0.84848 0.07925 0.53817 0.0
O908 O 0.78801 0.10938 0.57385 0.0
O909 O 0.81609 0.12256 0.55608 0.0
O910 O 0.36467 0.96146 0.95856 0.0
Cd911 Cd 0.35689 0.94568 0.98609 0.0
Cd912 Cd 0.31813 0.95137 0.97137 0.0
O913 O 0.33451 0.95417 0.94102 0.0
O914 O 0.38455 0.93098 0.99468 0.0
O915 O 0.35626 0.91294 0.98249 0.0
C916 C 0.37633 0.9129 0.98822 0.0
C917 C 0.29518 0.92535 0.98763 0.0
C918 C 0.35384 0.9617 0.94119 0.0
C919 C 0.33336 0.98255 1.00488 0.0
O920 O 0.32027 0.97945 0.98928 0.0
O921 O 0.34795 0.96855 1.00919 0.0
O922 O 0.2877 0.93867 0.9733 0.0
O923 O 0.31582 0.92554 0.99105 0.0
O924 O 0.82028 0.0687 0.23845 0.0
Cd925 Cd 0.84834 0.06616 0.22049 0.0
Cd926 Cd 0.85406 0.10521 0.23452 0.0
O927 O 0.83112 0.09684 0.25772 0.0
O928 O 0.86062 0.03569 0.22276 0.0
O929 O 0.87442 0.06389 0.2399 0.0
C930 C 0.87425 0.0432 0.23679 0.0
C931 C 0.88636 0.1255 0.23675 0.0
C932 C 0.81714 0.08213 0.25374 0.0
C933 C 0.83818 0.10099 0.1895 0.0
O934 O 0.83848 0.1122 0.20663 0.0
O935 O 0.84557 0.08165 0.18975 0.0
O936 O 0.86793 0.13343 0.24255 0.0
O937 O 0.88694 0.10527 0.23166 0.0
O938 O 0.68624 0.58831 0.45703 0.0
Cd939 Cd 0.69301 0.60387 0.48512 0.0
Cd940 Cd 0.7324 0.59679 0.47159 0.0
O941 O 0.71781 0.59197 0.44073 0.0
O942 O 0.6651 0.61867 0.49242 0.0
O943 O 0.69425 0.63671 0.48247 0.0
C944 C 0.67389 0.63683 0.4871 0.0
C945 C 0.75815 0.62185 0.48484 0.0
C946 C 0.69792 0.5861 0.44033 0.0
C947 C 0.71448 0.56713 0.50603 0.0
O948 O 0.72858 0.57013 0.49136 0.0
O949 O 0.69947 0.58099 0.50897 0.0
O950 O 0.7641 0.60495 0.47404 0.0
O951 O 0.73762 0.62552 0.48652 0.0
O952 O 0.72932 0.97704 0.7389 0.0
Cd953 Cd 0.70119 0.97925 0.72111 0.0
Cd954 Cd 0.69512 0.9406 0.73631 0.0
O955 O 0.71846 0.94953 0.75905 0.0
O956 O 0.68889 1.00981 0.72281 0.0
O957 O 0.67546 0.98202 0.74085 0.0
C958 C 0.67553 1.00262 0.73725 0.0
C959 C 0.66202 0.92161 0.73896 0.0
C960 C 0.7325 0.96404 0.75453 0.0
C961 C 0.71094 0.94326 0.69118 0.0
O962 O 0.71047 0.93252 0.7086 0.0
O963 O 0.70378 0.9627 0.69089 0.0
O964 O 0.6801 0.91316 0.74518 0.0
O965 O 0.6623 0.94166 0.73322 0.0
O966 O 0.18734 0.95918 0.59186 0.0
Cd967 Cd 0.19382 0.94356 0.56373 0.0
Cd968 Cd 0.23334 0.95064 0.57693 0.0
O969 O 0.21907 0.95563 0.60788 0.0
O970 O 0.16574 0.92898 0.55661 0.0
O971 O 0.19481 0.9107 0.56633 0.0
C972 C 0.17442 0.91074 0.56182 0.0
C973 C 0.25886 0.92542 0.56363 0.0
C974 C 0.19919 0.96148 0.60843 0.0
C975 C 0.2152 0.98021 0.54254 0.0
O976 O 0.22944 0.97723 0.55708 0.0
O977 O 0.20012 0.96637 0.53979 0.0
O978 O 0.26498 0.94236 0.57428 0.0
O979 O 0.2383 0.92181 0.56213 0.0
O980 O 0.81928 0.4791 0.30884 0.0
Cd981 Cd 0.84734 0.48169 0.32679 0.0
Cd982 Cd 0.85335 0.44277 0.31247 0.0
O983 O 0.83024 0.45114 0.2894 0.0
O984 O 0.85972 0.5122 0.32464 0.0
O985 O 0.87335 0.48407 0.30731 0.0
C986 C 0.87328 0.50472 0.31054 0.0
C987 C 0.88608 0.42323 0.31013 0.0
C988 C 0.81617 0.46572 0.29351 0.0
C989 C 0.83732 0.44637 0.35744 0.0
O990 O 0.83781 0.43528 0.34024 0.0
O991 O 0.84455 0.4658 0.35736 0.0
O992 O 0.86786 0.41497 0.30409 0.0
O993 O 0.88618 0.44337 0.31556 0.0
O994 O 0.23006 0.06977 0.80958 0.0
Cd995 Cd 0.20189 0.06754 0.82735 0.0
Cd996 Cd 0.19619 0.10632 0.81263 0.0
O997 O 0.21925 0.09747 0.78968 0.0
O998 O 0.18927 0.03712 0.82525 0.0
O999 O 0.1761 0.06526 0.80757 0.0
C1000 C 0.17597 0.04462 0.8109 0.0
C1001 C 0.1635 0.12591 0.81015 0.0
C1002 C 0.23325 0.08289 0.79404 0.0
C1003 C 0.21198 0.10313 0.85767 0.0
O1004 O 0.21176 0.11401 0.84033 0.0
O1005 O 0.20453 0.08379 0.85775 0.0
O1006 O 0.18173 0.13406 0.80398 0.0
O1007 O 0.16337 0.10583 0.81579 0.0
O1008 O 0.55719 0.81991 0.07223 0.0
Cd1009 Cd 0.57698 0.81658 0.09893 0.0
Cd1010 Cd 0.56277 0.85569 0.10583 0.0
O1011 O 0.53902 0.84871 0.083 0.0
O1012 O 0.57485 0.78496 0.10744 0.0
O1013 O 0.56195 0.81151 0.12763 0.0
C1014 C 0.56386 0.79097 0.12419 0.0
C1015 C 0.56056 0.87496 0.13868 0.0
C1016 C 0.54225 0.83372 0.06918 0.0
C1017 C 0.60766 0.85151 0.08799 0.0
O1018 O 0.59074 0.86288 0.0902 0.0
O1019 O 0.60764 0.83167 0.09398 0.0
O1020 O 0.55506 0.88355 0.12049 0.0
O1021 O 0.56548 0.85468 0.13866 0.0
O1022 O 0.43333 0.83954 0.33942 0.0
Cd1023 Cd 0.44085 0.8115 0.35446 0.0
Cd1024 Cd 0.47981 0.8261 0.34896 0.0
O1025 O 0.46381 0.85666 0.34647 0.0
O1026 O 0.41319 0.80297 0.36926 0.0
O1027 O 0.4419 0.81421 0.38726 0.0
C1028 C 0.42172 0.80884 0.3874 0.0
C1029 C 0.50311 0.8097 0.37462 0.0
C1030 C 0.44439 0.85678 0.33919 0.0
C1031 C 0.46405 0.79339 0.31701 0.0
O1032 O 0.47741 0.80865 0.32062 0.0
O1033 O 0.44934 0.78893 0.33086 0.0
O1034 O 0.5104 0.82409 0.36126 0.0
O1035 O 0.48248 0.80621 0.37464 0.0
O1036 O 0.4924 0.72883 0.57169 0.0
Cd1037 Cd 0.47249 0.73233 0.59829 0.0
Cd1038 Cd 0.48646 0.69313 0.60529 0.0
O1039 O 0.51034 0.69993 0.58254 0.0
O1040 O 0.47467 0.76397 0.60667 0.0
O1041 O 0.48733 0.73746 0.62708 0.0
C1042 C 0.4855 0.75799 0.62354 0.0
C1043 C 0.48852 0.67383 0.63814 0.0
C1044 C 0.50726 0.71493 0.56872 0.0
C1045 C 0.44162 0.69759 0.58734 0.0
O1046 O 0.45847 0.68612 0.5896 0.0
O1047 O 0.44176 0.71745 0.59328 0.0
O1048 O 0.49396 0.66521 0.61994 0.0
O1049 O 0.48375 0.69414 0.63813 0.0
O1050 O 0.6145 0.70864 0.83826 0.0
Cd1051 Cd 0.60714 0.73654 0.85359 0.0
Cd1052 Cd 0.56819 0.72213 0.84837 0.0
O1053 O 0.58414 0.69154 0.84577 0.0
O1054 O 0.63502 0.74499 0.86795 0.0
O1055 O 0.60665 0.7336 0.88637 0.0
C1056 C 0.62681 0.739 0.88619 0.0
C1057 C 0.54529 0.73865 0.87433 0.0
C1058 C 0.60345 0.6914 0.83821 0.0
C1059 C 0.58381 0.75491 0.81646 0.0
O1060 O 0.57045 0.73964 0.82002 0.0
O1061 O 0.59854 0.75931 0.83029 0.0
O1062 O 0.53775 0.72434 0.86103 0.0
O1063 O 0.56594 0.74201 0.87411 0.0
O1064 O 0.55758 0.22792 0.9768 0.0
Cd1065 Cd 0.57673 0.23214 0.94969 0.0
Cd1066 Cd 0.56423 0.19223 0.94346 0.0
O1067 O 0.54072 0.19805 0.96687 0.0
O1068 O 0.57336 0.26372 0.94149 0.0
O1069 O 0.56134 0.23692 0.92108 0.0
C1070 C 0.56258 0.25749 0.92468 0.0
C1071 C 0.56227 0.17228 0.911 0.0
C1072 C 0.54352 0.21335 0.98044 0.0
C1073 C 0.6093 0.19892 0.96016 0.0
O1074 O 0.59292 0.18671 0.95842 0.0
O1075 O 0.60817 0.21871 0.95413 0.0
O1076 O 0.5577 0.16375 0.92947 0.0
O1077 O 0.56604 0.19281 0.91054 0.0
O1078 O 0.11483 0.84008 0.21024 0.0
Cd1079 Cd 0.10777 0.81212 0.19487 0.0
Cd1080 Cd 0.06869 0.82615 0.20009 0.0
O1081 O 0.08432 0.8569 0.20273 0.0
O1082 O 0.13576 0.80404 0.18051 0.0
O1083 O 0.10726 0.81511 0.16208 0.0
C1084 C 0.1275 0.80997 0.16227 0.0
C1085 C 0.04574 0.80961 0.17418 0.0
C1086 C 0.10362 0.85722 0.2103 0.0
C1087 C 0.08463 0.79347 0.23198 0.0
O1088 O 0.07114 0.80861 0.2284 0.0
O1089 O 0.09942 0.78923 0.21815 0.0
O1090 O 0.03821 0.82382 0.1876 0.0
O1091 O 0.06641 0.80638 0.17426 0.0
O1092 O 0.48987 0.32006 0.47929 0.0
Cd1093 Cd 0.47241 0.31737 0.45089 0.0
Cd1094 Cd 0.48613 0.35655 0.44572 0.0
O1095 O 0.509 0.34855 0.46914 0.0
O1096 O 0.47497 0.28691 0.4385 0.0
O1097 O 0.49219 0.31519 0.42504 0.0
C1098 C 0.48909 0.29451 0.42502 0.0
C1099 C 0.48826 0.37656 0.41331 0.0
C1100 C 0.50485 0.33374 0.48296 0.0
C1101 C 0.44093 0.35188 0.46088 0.0
O1102 O 0.45798 0.36325 0.46091 0.0
O1103 O 0.44146 0.33259 0.45336 0.0
O1104 O 0.49395 0.38473 0.43166 0.0
O1105 O 0.48342 0.35626 0.41289 0.0
O1106 O 0.93293 0.70857 0.70942 0.0
Cd1107 Cd 0.94012 0.73668 0.69435 0.0
Cd1108 Cd 0.97922 0.72251 0.69988 0.0
O1109 O 0.96358 0.69178 0.70239 0.0
O1110 O 0.91235 0.7448 0.6795 0.0
O1111 O 0.94121 0.73392 0.66154 0.0
C1112 C 0.92096 0.739 0.66137 0.0
C1113 C 1.00258 0.73893 0.67429 0.0
C1114 C 0.94417 0.69146 0.70967 0.0
C1115 C 0.96307 0.75511 0.7318 0.0
O1116 O 0.97659 0.74001 0.72819 0.0
O1117 O 0.94831 0.7594 0.71794 0.0
O1118 O 1.00986 0.72468 0.6878 0.0
O1119 O 0.98193 0.74229 0.67411 0.0
O1120 O 0.57032 0.55823 0.32072 0.0
Cd1121 Cd 0.5984 0.57608 0.3183 0.0
Cd1122 Cd 0.60463 0.56109 0.35703 0.0
O1123 O 0.58125 0.53831 0.34836 0.0
O1124 O 0.61063 0.57419 0.28773 0.0
O1125 O 0.62421 0.55642 0.31562 0.0
C1126 C 0.62407 0.55985 0.295 0.0
C1127 C 0.63767 0.55841 0.37608 0.0
C1128 C 0.56717 0.54271 0.33386 0.0
C1129 C 0.58864 0.60621 0.35413 0.0
O1130 O 0.58931 0.58886 0.36499 0.0
O1131 O 0.59568 0.60641 0.33465 0.0
O1132 O 0.61956 0.55231 0.38453 0.0
O1133 O 0.63746 0.56407 0.35601 0.0
O1134 O 0.73865 0.81743 0.56932 0.0
Cd1135 Cd 0.72128 0.84586 0.56666 0.0
Cd1136 Cd 0.73531 0.85121 0.60571 0.0
O1137 O 0.75808 0.82777 0.59753 0.0
O1138 O 0.72386 0.85826 0.53623 0.0
O1139 O 0.7412 0.87157 0.56452 0.0
C1140 C 0.73809 0.87162 0.54384 0.0
C1141 C 0.73788 0.88361 0.62569 0.0
C1142 C 0.75378 0.81387 0.58284 0.0
C1143 C 0.69001 0.83616 0.60139 0.0
O1144 O 0.70713 0.83613 0.61264 0.0
O1145 O 0.69043 0.84361 0.58208 0.0
O1146 O 0.74347 0.8652 0.63381 0.0
O1147 O 0.73284 0.88406 0.60546 0.0
O1148 O 0.4802 0.98942 0.81977 0.0
Cd1149 Cd 0.45213 0.97146 0.8176 0.0
Cd1150 Cd 0.44635 0.98634 0.8563 0.0
O1151 O 0.46931 1.00938 0.84739 0.0
O1152 O 0.43949 0.97334 0.78719 0.0
O1153 O 0.42623 0.99106 0.81525 0.0
C1154 C 0.4261 0.98763 0.79464 0.0
C1155 C 0.41361 0.98862 0.87585 0.0
C1156 C 0.48333 1.00503 0.83282 0.0
C1157 C 0.46243 0.94137 0.85331 0.0
O1158 O 0.46207 0.95877 0.8641 0.0
O1159 O 0.45498 0.94114 0.83398 0.0
O1160 O 0.43177 0.99497 0.884 0.0
O1161 O 0.41355 0.98293 0.85578 0.0
O1162 O 0.31045 0.72909 0.06883 0.0
Cd1163 Cd 0.32832 0.70099 0.06638 0.0
Cd1164 Cd 0.3141 0.69533 0.10533 0.0
O1165 O 0.29095 0.71829 0.09681 0.0
O1166 O 0.32595 0.68853 0.03598 0.0
O1167 O 0.3087 0.67507 0.06425 0.0
C1168 C 0.31179 0.67508 0.04358 0.0
C1169 C 0.31186 0.66298 0.12547 0.0
C1170 C 0.29507 0.73226 0.08215 0.0
C1171 C 0.35918 0.71114 0.10136 0.0
O1172 O 0.34197 0.71091 0.11247 0.0
O1173 O 0.35902 0.70368 0.08205 0.0
O1174 O 0.30593 0.68135 0.13343 0.0
O1175 O 0.31708 0.6625 0.10528 0.0
O1176 O 0.57035 0.48957 0.73048 0.0
Cd1177 Cd 0.59829 0.47141 0.73291 0.0
Cd1178 Cd 0.60408 0.48558 0.69398 0.0
O1179 O 0.5814 0.50898 0.70254 0.0
O1180 O 0.61081 0.47364 0.76332 0.0
O1181 O 0.62443 0.49075 0.73504 0.0
C1182 C 0.6244 0.48766 0.75572 0.0
C1183 C 0.63649 0.48754 0.67388 0.0
C1184 C 0.56737 0.50501 0.7172 0.0
C1185 C 0.58785 0.44069 0.69786 0.0
O1186 O 0.5882 0.4579 0.68677 0.0
O1187 O 0.59531 0.44078 0.71718 0.0
O1188 O 0.61818 0.49368 0.66591 0.0
O1189 O 0.6369 0.48226 0.69405 0.0
O1190 O 0.80923 0.82159 0.97915 0.0
Cd1191 Cd 0.82701 0.84979 0.98145 0.0
Cd1192 Cd 0.81298 0.85501 0.94242 0.0
O1193 O 0.7898 0.83208 0.951 0.0
O1194 O 0.82449 0.86246 1.01177 0.0
O1195 O 0.80729 0.87567 0.98336 0.0
C1196 C 0.81031 0.87581 1.00405 0.0
C1197 C 0.81101 0.88723 0.92207 0.0
C1198 C 0.79391 0.81824 0.96579 0.0
C1199 C 0.85803 0.83929 0.94667 0.0
O1200 O 0.84085 0.83935 0.93552 0.0
O1201 O 0.85779 0.84698 0.9659 0.0
O1202 O 0.80501 0.86884 0.91419 0.0
O1203 O 0.8161 0.88782 0.94229 0.0
O1204 O 0.47808 0.0592 0.22945 0.0
Cd1205 Cd 0.45017 0.0774 0.23162 0.0
Cd1206 Cd 0.44442 0.06278 0.19285 0.0
O1207 O 0.46705 0.03943 0.20175 0.0
O1208 O 0.43769 0.07554 0.26204 0.0
O1209 O 0.42405 0.05806 0.23398 0.0
C1210 C 0.42411 0.0614 0.25462 0.0
C1211 C 0.41196 0.06087 0.17279 0.0
C1212 C 0.48106 0.04357 0.21639 0.0
C1213 C 0.46076 0.10767 0.19626 0.0
O1214 O 0.46041 0.09032 0.18539 0.0
O1215 O 0.45322 0.10785 0.21554 0.0
O1216 O 0.43022 0.05453 0.16486 0.0
O1217 O 0.41162 0.06628 0.19293 0.0
O1218 O 0.23951 0.72888 0.4785 0.0
Cd1219 Cd 0.22213 0.70043 0.48105 0.0
Cd1220 Cd 0.23601 0.69534 0.44194 0.0
O1221 O 0.25883 0.71875 0.45016 0.0
O1222 O 0.22478 0.68796 0.51145 0.0
O1223 O 0.24205 0.67469 0.48312 0.0
C1224 C 0.23899 0.67461 0.5038 0.0
C1225 C 0.23834 0.66303 0.42179 0.0
C1226 C 0.25458 0.73255 0.46495 0.0
C1227 C 0.19076 0.71041 0.44647 0.0
O1228 O 0.20784 0.7105 0.43518 0.0
O1229 O 0.19122 0.70282 0.46574 0.0
O1230 O 0.24398 0.68145 0.41374 0.0
O1231 O 0.23342 0.66249 0.44205 0.0
O1232 O 0.86364 0.58768 0.09003 0.0
Cd1233 Cd 0.85623 0.60342 0.06236 0.0
Cd1234 Cd 0.81727 0.59766 0.07662 0.0
O1235 O 0.8332 0.59473 0.10717 0.0
O1236 O 0.8841 0.61789 0.05404 0.0
O1237 O 0.8558 0.6362 0.06575 0.0
C1238 C 0.87594 0.63607 0.06026 0.0
C1239 C 0.79449 0.62384 0.06042 0.0
C1240 C 0.85255 0.58731 0.10724 0.0
C1241 C 0.83295 0.56654 0.04322 0.0
O1242 O 0.81961 0.56965 0.0586 0.0
O1243 O 0.84763 0.58054 0.03916 0.0
O1244 O 0.78688 0.61034 0.0745 0.0
O1245 O 0.81516 0.62369 0.05718 0.0
O1246 O 0.3627 0.45941 0.45711 0.0
Cd1247 Cd 0.35613 0.44395 0.48529 0.0
Cd1248 Cd 0.31664 0.45085 0.47193 0.0
O1249 O 0.33103 0.45571 0.44099 0.0
O1250 O 0.38416 0.42933 0.49251 0.0
O1251 O 0.35505 0.41109 0.4828 0.0
C1252 C 0.37544 0.41109 0.48732 0.0
C1253 C 0.29111 0.42557 0.48522 0.0
C1254 C 0.35091 0.46159 0.44048 0.0
C1255 C 0.33468 0.48073 0.50616 0.0
O1256 O 0.32045 0.47758 0.49164 0.0
O1257 O 0.34978 0.46695 0.50904 0.0
O1258 O 0.285 0.44246 0.4745 0.0
O1259 O 0.31167 0.42206 0.48684 0.0
O1260 O 0.81999 0.56797 0.73922 0.0
Cd1261 Cd 0.84796 0.56532 0.7211 0.0
Cd1262 Cd 0.85375 0.60448 0.73481 0.0
O1263 O 0.83094 0.59628 0.75818 0.0
O1264 O 0.86042 0.53493 0.72355 0.0
O1265 O 0.87418 0.56337 0.74034 0.0
C1266 C 0.87411 0.54266 0.73741 0.0
C1267 C 0.88602 0.62482 0.73689 0.0
C1268 C 0.81694 0.58153 0.75441 0.0
C1269 C 0.83766 0.59994 0.6899 0.0
O1270 O 0.83805 0.61129 0.70693 0.0
O1271 O 0.84502 0.58059 0.69028 0.0
O1272 O 0.86759 0.63274 0.7427 0.0
O1273 O 0.88661 0.60459 0.73183 0.0
O1274 O 0.6859 0.09075 0.95689 0.0
Cd1275 Cd 0.69244 0.10602 0.98523 0.0
Cd1276 Cd 0.73205 0.09867 0.97198 0.0
O1277 O 0.71778 0.09374 0.94102 0.0
O1278 O 0.6646 0.1211 0.99238 0.0
O1279 O 0.69409 0.13888 0.98298 0.0
C1280 C 0.67368 0.13922 0.9874 0.0
C1281 C 0.758 0.12356 0.98513 0.0
C1282 C 0.6978 0.08823 0.94038 0.0
C1283 C 0.71357 0.069 1.00618 0.0
O1284 O 0.72793 0.07209 0.99179 0.0
O1285 O 0.69848 0.08282 1.00893 0.0
O1286 O 0.76382 0.1065 0.97451 0.0
O1287 O 0.73751 0.12746 0.98669 0.0
O1288 O 0.72753 0.47781 0.23981 0.0
Cd1289 Cd 0.69955 0.47998 0.22179 0.0
Cd1290 Cd 0.69354 0.4412 0.2367 0.0
O1291 O 0.71659 0.45014 0.25971 0.0
O1292 O 0.6871 0.51047 0.22367 0.0
O1293 O 0.67365 0.48245 0.24134 0.0
C1294 C 0.67368 0.50308 0.23796 0.0
C1295 C 0.66059 0.4219 0.23903 0.0
C1296 C 0.7306 0.46475 0.25542 0.0
C1297 C 0.70979 0.44422 0.19171 0.0
O1298 O 0.70919 0.43337 0.20907 0.0
O1299 O 0.70254 0.46363 0.19148 0.0
O1300 O 0.6787 0.41358 0.24533 0.0
O1301 O 0.66073 0.44198 0.23336 0.0
O1302 O 0.18448 0.46183 0.09009 0.0
Cd1303 Cd 0.19207 0.44616 0.06243 0.0
Cd1304 Cd 0.23092 0.45201 0.07694 0.0
O1305 O 0.21483 0.45476 0.10739 0.0
O1306 O 0.16433 0.43148 0.05405 0.0
O1307 O 0.19276 0.4134 0.0658 0.0
C1308 C 0.17262 0.41336 0.0603 0.0
C1309 C 0.25399 0.42606 0.0608 0.0
C1310 C 0.19546 0.46215 0.10737 0.0
C1311 C 0.21532 0.48315 0.04351 0.0
O1312 O 0.22856 0.48005 0.05898 0.0
O1313 O 0.20071 0.46912 0.03931 0.0
O1314 O 0.26142 0.43956 0.07499 0.0
O1315 O 0.23334 0.42607 0.05741 0.0
O1316 O 0.82142 0.97832 0.80736 0.0
Cd1317 Cd 0.84939 0.98097 0.8254 0.0
Cd1318 Cd 0.85568 0.94201 0.81098 0.0
O1319 O 0.83238 0.95029 0.78801 0.0
O1320 O 0.86165 1.01154 0.82335 0.0
O1321 O 0.87544 0.98348 0.80602 0.0
C1322 C 0.87528 1.00413 0.80927 0.0
C1323 C 0.88869 0.9229 0.80851 0.0
C1324 C 0.81831 0.96489 0.79208 0.0
C1325 C 0.83947 0.94553 0.85599 0.0
O1326 O 0.84028 0.9344 0.83882 0.0
O1327 O 0.84642 0.96506 0.85592 0.0
O1328 O 0.87057 0.91439 0.80253 0.0
O1329 O 0.88851 0.94304 0.81395 0.0
O1330 O 0.22854 0.57058 0.30792 0.0
Cd1331 Cd 0.20056 0.56814 0.32596 0.0
Cd1332 Cd 0.19431 0.60697 0.31112 0.0
O1333 O 0.2176 0.59841 0.28824 0.0
O1334 O 0.18824 0.53758 0.32418 0.0
O1335 O 0.17454 0.56548 0.30656 0.0
C1336 C 0.17464 0.54487 0.31001 0.0
C1337 C 0.16126 0.62602 0.30861 0.0
C1338 C 0.23166 0.58384 0.29248 0.0
C1339 C 0.2105 0.60391 0.35617 0.0
O1340 O 0.20974 0.61484 0.33887 0.0
O1341 O 0.20349 0.58441 0.35631 0.0
O1342 O 0.17935 0.6345 0.30249 0.0
O1343 O 0.16149 0.60592 0.3142 0.0
C1344 C 0.02924 0.31276 0.03456 0.0
C1345 C 0.03301 0.33238 0.04541 0.0
H1346 H 1.01752 0.2973 1.00573 0.0
C1347 C 0.02869 0.35191 0.03459 0.0
H1348 H 0.0327 0.29749 0.04242 0.0
C1349 C 1.02098 0.3518 1.01327 0.0
C1350 C 1.01687 0.33217 1.00255 0.0
H1351 H 0.03186 0.36727 0.04241 0.0
H1352 H 1.01766 0.36709 1.00537 0.0
C1353 C 1.02083 0.31265 1.01351 0.0
C1354 C 0.94555 0.27082 0.26271 0.0
C1355 C 0.96513 0.26654 0.25194 0.0
H1356 H 0.93026 0.28191 0.29186 0.0
C1357 C 0.98472 0.27046 0.26282 0.0
H1358 H 0.93021 0.26754 0.25488 0.0
C1359 C 0.98476 0.27895 0.28383 0.0
C1360 C 0.96519 0.28288 0.29474 0.0
H1361 H 1.00004 0.26705 0.255 0.0
H1362 H 1.0001 0.28235 0.29161 0.0
C1363 C 0.94558 0.27862 0.28401 0.0
C1364 C 1.02038 0.1966 0.53349 0.0
C1365 C 1.01611 0.21617 0.54423 0.0
H1366 H 0.03137 0.18128 0.50433 0.0
C1367 C 1.01992 0.23575 0.53332 0.0
H1368 H 1.01717 0.18127 0.54136 0.0
C1369 C 0.02833 0.23575 0.51227 0.0
C1370 C 0.03225 0.21618 0.50139 0.0
H1371 H 1.0165 0.25106 0.54112 0.0
H1372 H 0.03168 0.25107 0.50444 0.0
C1373 C 0.02808 0.1966 0.51217 0.0
C1374 C 0.06404 0.26969 0.783 0.0
C1375 C 0.08361 0.26593 0.79398 0.0
H1376 H 0.04875 0.28135 0.75407 0.0
C1377 C 0.10321 0.2702 0.78326 0.0
H1378 H 0.0487 0.26627 0.79077 0.0
C1379 C 0.10325 0.27787 0.76192 0.0
C1380 C 0.08367 0.28199 0.75108 0.0
H1381 H 0.11854 0.26704 0.79117 0.0
H1382 H 0.11859 0.28118 0.75411 0.0
C1383 C 0.06407 0.27805 0.76194 0.0
C1384 C 1.01883 0.73398 0.0327 0.0
C1385 C 1.01597 0.71445 0.04399 0.0
H1386 H 0.02959 0.74936 1.0035 0.0
C1387 C 1.02089 0.69491 0.03344 0.0
H1388 H 1.01492 0.74927 0.04031 0.0
C1389 C 0.0284 0.6949 1.01202 0.0
C1390 C 0.03165 0.71448 1.00092 0.0
H1391 H 1.01844 0.67958 0.04158 0.0
H1392 H 0.03231 0.67963 1.0044 0.0
C1393 C 0.02695 0.73401 1.01156 0.0
C1394 C 0.60388 0.27724 0.26251 0.0
C1395 C 0.5843 0.28058 0.2514 0.0
H1396 H 0.61917 0.26727 0.29207 0.0
C1397 C 0.56473 0.27602 0.26206 0.0
H1398 H 0.61918 0.28105 0.25487 0.0
C1399 C 0.56472 0.26794 0.28322 0.0
C1400 C 0.58426 0.265 0.2945 0.0
H1401 H 0.54938 0.27872 0.254 0.0
H1402 H 0.5494 0.26413 0.29084 0.0
C1403 C 0.60384 0.26979 0.28394 0.0
C1404 C 0.02931 0.8533 0.53372 0.0
C1405 C 0.03414 0.83376 0.54433 0.0
H1406 H 1.01788 0.86853 0.50466 0.0
C1407 C 0.03113 0.8142 0.53312 0.0
H1408 H 0.03188 0.86864 0.5418 0.0
C1409 C 1.02293 0.81415 0.512 0.0
C1410 C 1.01831 0.83367 0.5013 0.0
H1411 H 0.03495 0.79892 0.54077 0.0
H1412 H 1.02017 0.79879 0.50401 0.0
C1413 C 1.02173 0.85326 0.51233 0.0
C1414 C 0.44348 0.27033 0.76358 0.0
C1415 C 0.46315 0.2664 0.75281 0.0
H1416 H 0.42799 0.28094 0.79285 0.0
C1417 C 0.48265 0.27033 0.76386 0.0
H1418 H 0.4282 0.26703 0.75564 0.0
C1419 C 0.48252 0.27837 0.78502 0.0
C1420 C 0.46291 0.28204 0.79593 0.0
H1421 H 0.49805 0.26718 0.7561 0.0
H1422 H 0.49784 0.28171 0.79289 0.0
C1423 C 0.44336 0.27785 0.78502 0.0
C1424 C 1.01355 1.01941 0.3514 0.0
C1425 C 1.00278 1.01505 0.33186 0.0
H1426 H 0.04263 0.03082 0.36665 0.0
C1427 C 1.01356 1.01914 0.31227 0.0
H1428 H 1.00579 1.01601 0.36674 0.0
C1429 C 0.03449 0.0279 0.31222 0.0
C1430 C 0.04541 0.03192 0.33176 0.0
H1431 H 1.00574 1.01568 0.29698 0.0
H1432 H 0.04221 0.03143 0.29689 0.0
C1433 C 0.03477 0.02748 0.35135 0.0
C1434 C 0.27236 0.28572 0.56399 0.0
C1435 C 0.26779 0.29642 0.58352 0.0
H1436 H 0.2843 0.25693 0.54872 0.0
C1437 C 0.2712 0.28536 0.6031 0.0
H1438 H 0.2696 0.29374 0.54865 0.0
C1439 C 0.27873 0.26394 0.6031 0.0
C1440 C 0.28351 0.25334 0.58355 0.0
H1441 H 0.2674 0.29302 0.61838 0.0
H1442 H 0.2813 0.25584 0.61842 0.0
C1443 C 0.2805 0.26458 0.56402 0.0
C1444 C 1.01424 0.52058 0.85168 0.0
C1445 C 1.00349 0.51607 0.83216 0.0
H1446 H 0.04333 0.53204 0.86688 0.0
C1447 C 1.01431 0.51998 0.81255 0.0
H1448 H 1.00646 0.51731 0.86703 0.0
C1449 C 0.03526 0.52869 0.81246 0.0
C1450 C 0.04616 0.53283 0.83198 0.0
H1451 H 1.00651 0.51639 0.79728 0.0
H1452 H 0.04302 0.53206 0.79712 0.0
C1453 C 0.03548 0.52859 0.8516 0.0
C1454 C 0.77786 0.26225 0.103 0.0
C1455 C 0.78142 0.25117 0.08346 0.0
H1456 H 0.76748 0.29173 0.1182 0.0
C1457 C 0.77681 0.26176 0.06389 0.0
H1458 H 0.78169 0.25466 0.11831 0.0
C1459 C 0.76849 0.28283 0.06382 0.0
C1460 C 0.76534 0.2941 0.08331 0.0
H1461 H 0.77968 0.25372 0.04858 0.0
H1462 H 0.76467 0.2904 0.04849 0.0
C1463 C 0.77015 0.28361 0.10291 0.0
C1464 C 0.03706 1.02126 0.69543 0.0
C1465 C 0.04782 1.01711 0.71502 0.0
H1466 H 1.00783 0.03209 0.68005 0.0
C1467 C 0.03688 1.02102 0.73456 0.0
H1468 H 0.04495 1.01798 0.68013 0.0
C1469 C 1.01579 0.02936 0.73451 0.0
C1470 C 1.00488 0.03314 0.71493 0.0
H1471 H 0.04468 1.01768 0.74989 0.0
H1472 H 1.00794 0.03274 0.74981 0.0
C1473 C 1.01569 0.02892 0.69538 0.0
C1474 C 0.27054 0.26444 0.94688 0.0
C1475 C 0.26609 0.25371 0.96642 0.0
H1476 H 0.28175 0.29357 0.93165 0.0
C1477 C 0.26982 0.26462 0.98601 0.0
H1478 H 0.2674 0.25658 0.93154 0.0
C1479 C 0.27832 0.28564 0.98607 0.0
C1480 C 0.28241 0.29652 0.96654 0.0
H1481 H 0.26626 0.25683 1.00129 0.0
H1482 H 0.28158 0.29347 1.00141 0.0
C1483 C 0.27833 0.28574 0.94694 0.0
C1484 C 0.03441 0.52012 0.19679 0.0
C1485 C 0.04516 0.51588 0.21637 0.0
H1486 H 1.00526 0.53119 0.18144 0.0
C1487 C 0.03426 0.51979 0.23592 0.0
H1488 H 0.04227 0.51684 0.18148 0.0
C1489 C 1.01323 0.52829 0.2359 0.0
C1490 C 1.00235 0.5322 0.21633 0.0
H1491 H 0.04207 0.5164 0.25124 0.0
H1492 H 1.00542 0.53173 0.2512 0.0
C1493 C 1.0131 0.52791 0.19677 0.0
C1494 C 0.77113 0.26396 0.44641 0.0
C1495 C 0.76702 0.2531 0.46595 0.0
H1496 H 0.78191 0.29325 0.43116 0.0
C1497 C 0.77088 0.26397 0.48554 0.0
H1498 H 0.76788 0.25613 0.43107 0.0
C1499 C 0.7792 0.28506 0.48559 0.0
C1500 C 0.78296 0.29605 0.46605 0.0
H1501 H 0.76758 0.25608 0.50084 0.0
H1502 H 0.78259 0.29285 0.50092 0.0
C1503 C 0.77874 0.28532 0.44646 0.0
C1504 C 0.31361 1.01474 1.01962 0.0
C1505 C 0.33322 1.00387 1.01583 0.0
H1506 H 0.29819 0.04355 0.03141 0.0
C1507 C 0.35278 1.01464 1.02021 0.0
H1508 H 0.29831 1.00692 1.01611 0.0
C1509 C 0.35272 0.03595 0.028 0.0
C1510 C 0.33309 0.04668 0.03214 0.0
H1511 H 0.36814 1.00681 1.01704 0.0
H1512 H 0.36803 0.04381 0.03138 0.0
C1513 C 0.31354 0.03576 0.0281 0.0
C1514 C 0.81423 0.03283 0.5281 0.0
C1515 C 0.8338 0.04385 0.53178 0.0
H1516 H 0.79893 1.00382 0.51661 0.0
C1517 C 0.8534 0.03311 0.52753 0.0
H1518 H 0.79889 0.04062 0.5315 0.0
C1519 C 0.85343 1.01172 0.51998 0.0
C1520 C 0.83385 1.00084 0.51594 0.0
H1521 H 0.86873 0.04104 0.53063 0.0
H1522 H 0.86877 1.00389 0.51669 0.0
C1523 C 0.81425 1.01171 0.51985 0.0
C1524 C 0.28675 0.10231 0.77117 0.0
C1525 C 0.2975 0.08271 0.767 0.0
H1526 H 0.25757 0.11769 0.7821 0.0
C1527 C 0.28658 0.06316 0.77097 0.0
H1528 H 0.29462 0.11762 0.76784 0.0
C1529 C 0.26553 0.0632 0.7794 0.0
C1530 C 0.25463 0.08279 0.7832 0.0
H1531 H 0.29438 0.04783 0.76762 0.0
H1532 H 0.25769 0.0479 0.78283 0.0
C1533 C 0.26542 0.10235 0.77891 0.0
C1534 C 0.19575 0.51516 0.0282 0.0
C1535 C 0.21535 0.50446 0.03255 0.0
H1536 H 0.18039 0.54425 1.017 0.0
C1537 C 0.23492 0.5154 0.02869 0.0
H1538 H 0.18042 0.50729 0.03143 0.0
C1539 C 0.23491 0.5364 1.02016 0.0
C1540 C 0.21532 0.54724 1.01614 0.0
H1541 H 0.25026 0.50764 0.03215 0.0
H1542 H 0.25023 0.54423 1.01679 0.0
C1543 C 0.19573 0.53645 1.02036 0.0
C1544 C 0.28466 0.98602 0.27915 0.0
C1545 C 0.29549 0.96646 0.28329 0.0
H1546 H 0.256 1.0013 0.26677 0.0
C1547 C 0.28477 0.94687 0.27895 0.0
H1548 H 0.29243 1.00135 0.2826 0.0
C1549 C 0.26358 0.94685 0.27084 0.0
C1550 C 0.2529 0.96641 0.26634 0.0
H1551 H 0.29257 0.93156 0.28238 0.0
H1552 H 0.25577 0.93151 0.2675 0.0
C1553 C 0.26375 0.98599 0.27035 0.0
C1554 C 0.69349 1.01524 0.02801 0.0
C1555 C 0.71301 1.00469 0.0331 0.0
H1556 H 0.67831 0.04429 1.01641 0.0
C1557 C 0.73258 1.01598 0.03037 0.0
H1558 H 0.67813 1.0071 0.03035 0.0
C1559 C 0.73268 0.03712 1.02224 0.0
C1560 C 0.71319 0.04777 1.01736 0.0
H1561 H 0.74785 1.00838 0.0344 0.0
H1562 H 0.74807 0.04517 1.01972 0.0
C1563 C 0.69356 0.03666 1.02047 0.0
C1564 C 0.28559 0.44601 0.7773 0.0
C1565 C 0.29631 0.46559 0.78172 0.0
H1566 H 0.25651 0.43071 0.76595 0.0
C1567 C 0.28543 0.48516 0.77775 0.0
H1568 H 0.29342 0.43069 0.7806 0.0
C1569 C 0.26447 0.48517 0.7691 0.0
C1570 C 0.2536 0.46561 0.76504 0.0
H1571 H 0.29321 0.50047 0.78127 0.0
H1572 H 0.25668 0.5005 0.76569 0.0
C1573 C 0.26433 0.44603 0.76932 0.0
C1574 C 0.76404 0.0627 0.27765 0.0
C1575 C 0.75317 0.08231 0.28147 0.0
H1576 H 0.79278 0.04728 0.26568 0.0
C1577 C 0.76386 0.10184 0.27687 0.0
H1578 H 0.75627 0.04742 0.28131 0.0
C1579 C 0.7851 0.10178 0.26888 0.0
C1580 C 0.79584 0.08216 0.26475 0.0
H1581 H 0.75603 0.1172 0.28006 0.0
H1582 H 0.79291 0.11707 0.26538 0.0
C1583 C 0.78499 0.06263 0.26897 0.0
C1584 C 0.98287 0.77656 0.78576 0.0
C1585 C 0.96338 0.78139 0.79643 0.0
H1586 H 0.99803 0.76443 0.75701 0.0
C1587 C 0.94374 0.77822 0.78535 0.0
H1588 H 0.99826 0.77913 0.79378 0.0
C1589 C 0.94367 0.77067 0.76394 0.0
C1590 C 0.96318 0.76564 0.75337 0.0
H1591 H 0.9285 0.78224 0.793 0.0
H1592 H 0.9283 0.76829 0.75583 0.0
C1593 C 0.98276 0.76842 0.76463 0.0
C1594 C 0.10413 0.77049 0.28548 0.0
C1595 C 0.08454 0.76708 0.29653 0.0
H1596 H 0.11948 0.78064 0.256 0.0
C1597 C 0.06498 0.77171 0.28586 0.0
H1598 H 0.11943 0.76662 0.29313 0.0
C1599 C 0.06501 0.77992 0.26475 0.0
C1600 C 0.08457 0.78293 0.25353 0.0
H1601 H 0.04963 0.76896 0.29387 0.0
H1602 H 0.04971 0.78377 0.25713 0.0
C1603 C 0.10413 0.77808 0.26409 0.0
C1604 C 0.60332 0.77764 0.76288 0.0
C1605 C 0.58373 0.78108 0.75184 0.0
H1606 H 0.61865 0.76754 0.79239 0.0
C1607 C 0.56417 0.77656 0.76252 0.0
H1608 H 0.61863 0.78142 0.75522 0.0
C1609 C 0.56418 0.76841 0.78366 0.0
C1610 C 0.58373 0.76539 0.79488 0.0
H1611 H 0.54882 0.77935 0.7545 0.0
H1612 H 0.54886 0.76463 0.79131 0.0
C1613 C 0.60331 0.77013 0.7843 0.0
C1614 C 0.4448 0.77059 0.26333 0.0
C1615 C 0.46444 0.76736 0.25231 0.0
H1616 H 0.42932 0.78048 0.29283 0.0
C1617 C 0.48394 0.77202 0.26307 0.0
H1618 H 0.42954 0.76669 0.25561 0.0
C1619 C 0.48381 0.78009 0.28423 0.0
C1620 C 0.46421 0.78293 0.29542 0.0
H1621 H 0.49933 0.7694 0.25509 0.0
H1622 H 0.49908 0.78398 0.29193 0.0
C1623 C 0.44469 0.77804 0.28477 0.0
C1624 C 0.28013 0.76448 0.0626 0.0
C1625 C 0.28414 0.75359 0.08214 0.0
H1626 H 0.26809 0.79328 0.04735 0.0
C1627 C 0.27994 0.76433 0.10174 0.0
H1628 H 0.28347 0.75669 0.04727 0.0
C1629 C 0.2721 0.78561 0.10178 0.0
C1630 C 0.26772 0.79635 0.08223 0.0
H1631 H 0.28329 0.75648 0.11704 0.0
H1632 H 0.26885 0.79343 0.11711 0.0
C1633 C 0.27159 0.78548 0.06265 0.0
C1634 C 0.77675 0.76051 0.60272 0.0
C1635 C 0.78026 0.74935 0.58322 0.0
H1636 H 0.76648 0.79007 0.61782 0.0
C1637 C 0.77561 0.75986 0.56361 0.0
H1638 H 0.78062 0.75298 0.61805 0.0
C1639 C 0.76732 0.78094 0.56348 0.0
C1640 C 0.76426 0.7923 0.58293 0.0
H1641 H 0.77846 0.75176 0.54833 0.0
H1642 H 0.76349 0.78847 0.54813 0.0
C1643 C 0.76909 0.78187 0.60256 0.0
C1644 C 0.2698 0.76471 0.4454 0.0
C1645 C 0.26503 0.75415 0.46497 0.0
H1646 H 0.2812 0.79374 0.43006 0.0
C1647 C 0.26809 0.76541 0.48448 0.0
H1648 H 0.2672 0.75659 0.43009 0.0
C1649 C 0.27629 0.78654 0.48446 0.0
C1650 C 0.28086 0.79719 0.46491 0.0
H1651 H 0.2643 0.75779 0.49979 0.0
H1652 H 0.2791 0.79457 0.49979 0.0
C1653 C 0.27738 0.78611 0.44536 0.0
C1654 C 0.77077 0.76493 0.9855 0.0
C1655 C 0.76701 0.75393 0.96596 0.0
H1656 H 0.78241 0.7939 1.00076 0.0
C1657 C 0.77132 0.76463 0.94638 0.0
H1658 H 0.76732 0.75718 1.00083 0.0
C1659 C 0.779 0.78598 0.94633 0.0
C1660 C 0.7831 0.79684 0.96588 0.0
H1661 H 0.76816 0.75671 0.93107 0.0
H1662 H 0.78231 0.79378 0.931 0.0
C1663 C 0.77914 0.78601 0.98546 0.0
C1664 C 0.35476 0.53447 0.52798 0.0
C1665 C 0.33525 0.54509 0.53292 0.0
H1666 H 0.36992 0.50535 0.51655 0.0
C1667 C 0.31565 0.53387 0.53009 0.0
H1668 H 0.37013 0.54256 0.53041 0.0
C1669 C 0.31553 0.51272 0.52197 0.0
C1670 C 0.33502 0.50199 0.51725 0.0
H1671 H 0.30039 0.54153 0.53401 0.0
H1672 H 0.30013 0.50471 0.51936 0.0
C1673 C 0.35466 0.51304 0.52048 0.0
C1674 C 0.8528 0.51324 1.02034 0.0
C1675 C 0.83328 0.50239 1.01599 0.0
H1676 H 0.86797 0.54246 0.03145 0.0
C1677 C 0.81363 0.5132 1.01982 0.0
H1678 H 0.86819 0.50547 1.01713 0.0
C1679 C 0.8135 0.53422 0.0283 0.0
C1680 C 0.83302 0.54521 0.03229 0.0
H1681 H 0.79835 0.50532 1.01636 0.0
H1682 H 0.79813 0.54196 0.03163 0.0
C1683 C 0.85268 0.53455 0.02812 0.0
C1684 C 0.28518 0.56441 0.26957 0.0
C1685 C 0.29609 0.584 0.26581 0.0
H1686 H 0.25624 0.54901 0.28112 0.0
C1687 C 0.28525 0.60355 0.26997 0.0
H1688 H 0.29304 0.54911 0.26623 0.0
C1689 C 0.26384 0.60349 0.27755 0.0
C1690 C 0.25307 0.58388 0.28166 0.0
H1691 H 0.29311 0.61889 0.26681 0.0
H1692 H 0.25593 0.61879 0.28078 0.0
C1693 C 0.26405 0.56435 0.27782 0.0
C1694 C 0.19519 1.01234 0.52795 0.0
C1695 C 0.21484 1.00135 0.53123 0.0
H1696 H 0.1797 0.04175 0.51777 0.0
C1697 C 0.23433 1.01202 0.52634 0.0
H1698 H 0.17995 1.00469 0.53201 0.0
C1699 C 0.23418 0.03309 0.518 0.0
C1700 C 0.21458 0.04426 0.51512 0.0
H1701 H 0.24972 1.00405 0.52899 0.0
H1702 H 0.24944 0.04072 0.51396 0.0
C1703 C 0.19508 0.03369 0.52023 0.0
C1704 C 0.69462 0.53493 0.52074 0.0
C1705 C 0.71423 0.54598 0.51731 0.0
H1706 H 0.67927 0.50548 0.53102 0.0
C1707 C 0.73377 0.53534 0.52204 0.0
H1708 H 0.67933 0.54255 0.5168 0.0
C1709 C 0.73373 0.51427 0.53036 0.0
C1710 C 0.71417 0.50304 0.53339 0.0
H1711 H 0.74913 0.54335 0.51928 0.0
H1712 H 0.74903 0.50667 0.53428 0.0
C1713 C 0.69461 0.51357 0.52844 0.0
C1714 C 0.76387 0.60161 0.77771 0.0
C1715 C 0.7531 0.58214 0.78244 0.0
H1716 H 0.79294 0.61664 0.76601 0.0
C1717 C 0.76385 0.56247 0.77866 0.0
H1718 H 0.75613 0.61701 0.78086 0.0
C1719 C 0.78476 0.56225 0.76987 0.0
C1720 C 0.79569 0.58171 0.76551 0.0
H1721 H 0.75603 0.54724 0.78242 0.0
H1722 H 0.79247 0.54685 0.76662 0.0
C1723 C 0.78507 0.6014 0.76961 0.0
C1724 C 0.52639 0.31455 0.53712 0.0
C1725 C 0.53092 0.33418 0.54768 0.0
H1726 H 0.51451 0.29905 0.50843 0.0
C1727 C 0.52749 0.35367 0.53648 0.0
H1728 H 0.52916 0.29927 0.54525 0.0
C1729 C 0.52 0.3535 0.51505 0.0
C1730 C 0.51526 0.33386 0.50459 0.0
H1731 H 0.53128 0.36901 0.54404 0.0
H1732 H 0.51743 0.36877 0.50684 0.0
C1733 C 0.51827 0.31441 0.51597 0.0
C1734 C 0.5288 0.23261 1.01286 0.0
C1735 C 0.53272 0.21309 1.00189 0.0
H1736 H 0.51743 0.2479 0.04183 0.0
C1737 C 0.52882 0.19348 1.01276 0.0
H1738 H 0.5319 0.24799 1.00502 0.0
C1739 C 0.52133 0.19345 0.0342 0.0
C1740 C 0.51712 0.21301 0.04503 0.0
H1741 H 0.53211 0.17819 1.00489 0.0
H1742 H 0.51825 0.17811 0.0421 0.0
C1743 C 0.52077 0.23258 0.03403 0.0
C1744 C 0.52957 0.69528 0.51509 0.0
C1745 C 0.53435 0.71486 0.50455 0.0
H1746 H 0.51816 0.67993 0.54411 0.0
C1747 C 0.53132 0.73438 0.51581 0.0
H1748 H 0.53215 0.67997 0.50697 0.0
C1749 C 0.52312 0.73435 0.53692 0.0
C1750 C 0.51853 0.71479 0.54756 0.0
H1751 H 0.53511 0.74969 0.50819 0.0
H1752 H 0.52031 0.74968 0.54496 0.0
C1753 C 0.52199 0.69523 0.53649 0.0
C1754 C 0.52039 0.85325 1.01534 0.0
C1755 C 0.5156 0.83365 1.00483 0.0
H1756 H 0.53164 0.86866 0.04439 0.0
C1757 C 0.51848 0.81416 1.01618 0.0
H1758 H 0.51791 0.86854 1.00716 0.0
C1759 C 0.52654 0.81423 0.03735 0.0
C1760 C 0.53112 0.83381 0.04796 0.0
H1761 H 0.51466 0.79883 1.00859 0.0
H1762 H 0.52924 0.79892 0.04546 0.0
C1763 C 0.52781 0.85334 0.03679 0.0
C1764 C 0.51562 1.01961 0.81311 0.0
C1765 C 0.50469 1.01593 0.83269 0.0
H1766 H 0.54452 0.03124 0.7977 0.0
C1767 C 0.51545 1.02034 0.85223 0.0
H1768 H 0.5078 1.01608 0.79782 0.0
C1769 C 0.53681 0.02806 0.85218 0.0
C1770 C 0.54759 0.03208 0.83257 0.0
H1771 H 0.50758 1.01724 0.86757 0.0
H1772 H 0.54466 0.03146 0.86747 0.0
C1773 C 0.53669 0.02801 0.81304 0.0
C1774 C 0.53476 0.52822 0.31429 0.0
C1775 C 0.54573 0.53195 0.33385 0.0
H1776 H 0.50574 0.51675 0.29897 0.0
C1777 C 0.53493 0.52782 0.35342 0.0
H1778 H 0.5426 0.53155 0.29898 0.0
C1779 C 0.5135 0.52031 0.35342 0.0
C1780 C 0.50267 0.51623 0.33385 0.0
H1781 H 0.54284 0.53097 0.36873 0.0
H1782 H 0.50562 0.5171 0.36873 0.0
C1783 C 0.51361 0.52003 0.31429 0.0
C1784 C 0.53397 1.01977 0.23641 0.0
C1785 C 0.54491 1.01562 0.21692 0.0
H1786 H 0.50519 0.03207 0.25151 0.0
C1787 C 0.53426 1.01983 0.19728 0.0
H1788 H 0.5417 1.01642 0.25178 0.0
C1789 C 0.51303 0.02784 0.19713 0.0
C1790 C 0.50225 0.03236 0.21662 0.0
H1791 H 0.54215 1.01639 0.18201 0.0
H1792 H 0.50528 0.03109 0.18175 0.0
C1793 C 0.51302 0.02847 0.23626 0.0
C1794 C 0.53552 0.52063 0.69761 0.0
C1795 C 0.54617 0.51622 0.71721 0.0
H1796 H 0.50656 0.53211 0.68221 0.0
C1797 C 0.53529 0.5203 0.73674 0.0
H1798 H 0.54336 0.51725 0.68231 0.0
C1799 C 0.51438 0.52909 0.73669 0.0
C1800 C 0.50358 0.53315 0.71709 0.0
H1801 H 0.54301 0.51679 0.75207 0.0
H1802 H 0.50658 0.53259 0.75198 0.0
C1803 C 0.51433 0.52874 0.69755 0.0
C1804 C 0.76478 0.9448 0.76975 0.0
C1805 C 0.7539 0.96428 0.76535 0.0
H1806 H 0.79413 0.92975 0.78075 0.0
C1807 C 0.76476 0.98394 0.76893 0.0
H1808 H 0.75696 0.92941 0.76673 0.0
C1809 C 0.78588 0.98414 0.7772 0.0
C1810 C 0.79691 0.96468 0.78126 0.0
H1811 H 0.75686 0.99918 0.76541 0.0
H1812 H 0.79365 0.99954 0.78035 0.0
C1813 C 0.78618 0.945 0.77735 0.0
C1814 C 0.78418 0.44581 0.27851 0.0
C1815 C 0.79478 0.46551 0.28266 0.0
H1816 H 0.75512 0.43016 0.26755 0.0
C1817 C 0.78368 0.48495 0.27871 0.0
H1818 H 0.79219 0.43058 0.28182 0.0
C1819 C 0.76262 0.48471 0.27028 0.0
C1820 C 0.75189 0.46502 0.26645 0.0
H1821 H 0.79135 0.50036 0.28202 0.0
H1822 H 0.75466 0.49994 0.26683 0.0
C1823 C 0.76284 0.44557 0.27077 0.0
C1824 C 0.02634 0.28671 0.14304 0.0
C1825 C 0.0473 0.28002 0.13718 0.0
H1826 H 0.99632 0.27868 0.15842 0.0
C1827 C 0.05393 0.25903 0.14311 0.0
H1828 H 1.02052 0.30262 0.13856 0.0
C1829 C 0.04005 0.24532 0.15499 0.0
C1830 C 1.01895 0.25199 0.16052 0.0
H1831 H 0.0699 0.25329 0.13875 0.0
H1832 H 0.04575 0.22942 0.15966 0.0
C1833 C 1.01231 0.27284 0.15426 0.0
C1834 C 1.01212 0.27625 0.39251 0.0
C1835 C 1.01884 0.29711 0.38636 0.0
H1836 H 1.02017 0.2464 0.40816 0.0
C1837 C 0.03992 0.30373 0.39203 0.0
H1838 H 0.99613 0.27046 0.38824 0.0
C1839 C 0.05371 0.28995 0.40395 0.0
C1840 C 0.04699 0.26895 0.40977 0.0
H1841 H 0.04569 0.31963 0.38745 0.0
H1842 H 0.06967 0.29565 0.40842 0.0
C1843 C 0.02605 0.26232 0.40376 0.0
C1844 C 1.02277 0.26198 0.64187 0.0
C1845 C 1.00181 0.26868 0.63597 0.0
H1846 H 0.05276 0.26997 0.65732 0.0
C1847 C 0.99518 0.28966 0.64193 0.0
H1848 H 0.02858 0.24607 0.63737 0.0
C1849 C 1.00904 0.30335 0.65386 0.0
C1850 C 0.03013 0.29666 0.65943 0.0
H1851 H 0.97921 0.29541 0.63754 0.0
H1852 H 1.00334 0.31924 0.65855 0.0
C1853 C 0.03677 0.27582 0.65314 0.0
C1854 C 1.02326 0.28627 0.90404 0.0
C1855 C 1.00244 0.27945 0.91026 0.0
H1856 H 0.05304 0.27845 0.88809 0.0
C1857 C 0.9958 0.25844 0.90437 0.0
H1858 H 0.02908 0.3022 0.90847 0.0
C1859 C 1.00953 0.24484 0.89219 0.0
C1860 C 0.03049 0.25165 0.8863 0.0
H1861 H 0.97993 0.2526 0.90899 0.0
H1862 H 1.00382 0.22893 0.88758 0.0
C1863 C 0.03714 0.27251 0.89252 0.0
C1864 C 0.05169 0.77299 0.88838 0.0
C1865 C 0.05117 0.77387 0.91108 0.0
H1866 H 0.03907 0.7855 0.85846 0.0
C1867 C 0.03712 0.7888 0.92103 0.0
H1868 H 0.06217 0.76153 0.88027 0.0
C1869 C 1.02325 0.80189 0.90858 0.0
C1870 C 1.0238 0.80104 0.88588 0.0
H1871 H 0.03612 0.78962 0.9385 0.0
H1872 H 1.01197 0.81256 0.9167 0.0
C1873 C 0.0385 0.78675 0.87593 0.0
C1874 C 0.52633 0.30074 0.13845 0.0
C1875 C 0.52544 0.30003 0.16115 0.0
H1876 H 0.5139 0.28829 0.10842 0.0
C1877 C 0.5106 0.28579 0.17096 0.0
H1878 H 0.53774 0.31136 0.13044 0.0
C1879 C 0.49759 0.27195 0.15839 0.0
C1880 C 0.49845 0.27269 0.13569 0.0
H1881 H 0.50977 0.28465 0.18842 0.0
H1882 H 0.48698 0.26054 0.16641 0.0
C1883 C 0.51265 0.28756 0.12587 0.0
C1884 C 0.99741 0.77491 0.38887 0.0
C1885 C 0.99815 0.77411 0.41157 0.0
H1886 H 1.00975 0.76232 0.35888 0.0
C1887 C 1.0123 0.75922 0.42143 0.0
H1888 H 0.98685 0.78635 0.38082 0.0
C1889 C 0.02605 0.7461 0.4089 0.0
C1890 C 0.02528 0.74688 0.3862 0.0
H1891 H 1.01347 0.75846 0.43889 0.0
H1892 H 0.03742 0.73547 0.41695 0.0
C1893 C 1.01048 0.76112 0.37634 0.0
C1894 C 0.5514 0.27607 0.66028 0.0
C1895 C 0.55081 0.27527 0.63758 0.0
H1896 H 0.53888 0.26343 0.69019 0.0
C1897 C 0.53673 0.26037 0.62762 0.0
H1898 H 0.56191 0.28751 0.66841 0.0
C1899 C 0.5229 0.24722 0.64006 0.0
C1900 C 0.52353 0.24799 0.66277 0.0
H1901 H 0.53567 0.25961 0.61015 0.0
H1902 H 0.5116 0.23657 0.63193 0.0
C1903 C 0.53826 0.26225 0.67273 0.0
C1904 C 0.14313 0.05374 0.25777 0.0
C1905 C 0.13727 0.04704 0.27875 0.0
H1906 H 0.1599 0.04583 0.22822 0.0
C1907 C 0.14349 0.02621 0.28548 0.0
H1908 H 0.1385 0.06962 0.252 0.0
C1909 C 0.15498 1.01238 0.27166 0.0
C1910 C 0.16118 1.0191 0.25083 0.0
H1911 H 0.13908 1.02035 0.30139 0.0
H1912 H 0.15942 0.99648 0.27753 0.0
C1913 C 0.15529 0.04007 0.2441 0.0
C1914 C 0.26225 0.37676 0.5096 0.0
C1915 C 0.24804 0.38657 0.52446 0.0
H1916 H 0.28745 0.38133 0.48595 0.0
C1917 C 0.24729 0.40927 0.52533 0.0
H1918 H 0.26342 0.35929 0.50879 0.0
C1919 C 0.26041 0.42186 0.51162 0.0
C1920 C 0.27526 0.41205 0.4974 0.0
H1921 H 0.23668 0.41729 0.53674 0.0
H1922 H 0.25966 0.43933 0.51286 0.0
C1923 C 0.27604 0.38934 0.49657 0.0
C1924 C 0.89352 0.50715 0.74475 0.0
C1925 C 0.88775 0.52822 0.75124 0.0
H1926 H 0.91021 0.47763 0.75294 0.0
C1927 C 0.89405 0.53518 0.77197 0.0
H1928 H 0.88883 0.50121 0.72896 0.0
C1929 C 0.90554 0.52147 0.78592 0.0
C1930 C 0.91164 0.50053 0.77941 0.0
H1931 H 0.8897 0.55117 0.77766 0.0
H1932 H 0.91003 0.52749 0.80174 0.0
C1933 C 0.90568 0.4936 0.75853 0.0
C1934 C 0.78769 0.17188 1.00948 0.0
C1935 C 0.80167 0.16184 0.02441 0.0
H1936 H 0.76248 0.16773 0.98576 0.0
C1937 C 0.80202 0.13913 0.0253 0.0
H1938 H 0.78682 0.18937 1.00865 0.0
C1939 C 0.78872 0.12676 1.01157 0.0
C1940 C 0.77408 0.13682 0.9973 0.0
H1941 H 0.81243 0.13095 0.03678 0.0
H1942 H 0.78914 0.10929 1.01284 0.0
C1943 C 0.77372 0.15953 0.99641 0.0
C1944 C 0.15669 1.00898 0.80354 0.0
C1945 C 0.16261 0.03 0.79697 0.0
H1946 H 0.14011 0.97939 0.79532 0.0
C1947 C 0.1567 0.03674 0.77605 0.0
H1948 H 0.16108 1.00321 0.81948 0.0
C1949 C 0.14545 1.0229 0.76203 0.0
C1950 C 0.1392 1.00203 0.76861 0.0
H1951 H 0.16117 0.05267 0.77029 0.0
H1952 H 0.14126 0.02879 0.74607 0.0
C1953 C 0.14477 0.9953 0.78966 0.0
C1954 C 0.2621 0.40641 0.02622 0.0
C1955 C 0.2687 0.41256 0.04711 0.0
H1956 H 0.27025 0.39058 0.9965 0.0
C1957 C 0.28966 0.4067 0.05393 0.0
H1958 H 0.2462 0.41083 1.02028 0.0
C1959 C 0.30343 0.3946 0.04032 0.0
C1960 C 0.29684 0.38877 1.0193 0.0
H1961 H 0.29533 0.41127 0.06986 0.0
H1962 H 0.31929 0.38998 0.04617 0.0
C1963 C 0.27602 0.39497 1.01245 0.0
C1964 C 0.90458 0.55414 0.28967 0.0
C1965 C 0.91051 0.54739 0.26873 0.0
H1966 H 0.88785 0.54622 0.31925 0.0
C1967 C 0.90443 0.52648 0.26208 0.0
H1968 H 0.90909 0.57008 0.29538 0.0
C1969 C 0.89303 0.51262 0.27595 0.0
C1970 C 0.88677 0.51938 0.29676 0.0
H1971 H 0.9089 0.52058 0.2462 0.0
H1972 H 0.88871 0.49665 0.27015 0.0
C1973 C 0.89251 0.54043 0.30339 0.0
C1974 C 0.75984 0.14227 0.5527 0.0
C1975 C 0.7808 0.13636 0.54589 0.0
H1976 H 0.73027 0.15911 0.54496 0.0
C1977 C 0.78744 0.14259 0.52504 0.0
H1978 H 0.75414 0.13764 0.5686 0.0
C1979 C 0.77357 0.15415 0.51131 0.0
C1980 C 0.75277 0.16039 0.51813 0.0
H1981 H 0.80333 0.13815 0.5191 0.0
H1982 H 0.77939 0.15859 0.49539 0.0
C1983 C 0.74613 0.15448 0.53912 0.0
C1984 C 0.24467 0.15592 0.03974 0.0
C1985 C 0.25139 0.16189 1.01879 0.0
H1986 H 0.25268 0.13924 0.0693 0.0
C1987 C 0.27234 0.15594 1.01215 0.0
H1988 H 0.2287 0.16033 0.04544 0.0
C1989 C 0.28627 0.14462 0.02601 0.0
C1990 C 0.27954 0.13832 0.04681 0.0
H1991 H 0.27822 0.16044 0.99627 0.0
H1992 H 0.30226 0.1404 1.0202 0.0
C1993 C 0.25845 0.14393 0.05345 0.0
C1994 C 0.74551 0.89097 0.50831 0.0
C1995 C 0.75206 0.88506 0.52933 0.0
H1996 H 0.75372 0.90764 0.4788 0.0
C1997 C 0.77292 0.8911 0.53617 0.0
H1998 H 0.7296 0.88648 0.50246 0.0
C1999 C 0.78693 0.90248 0.52242 0.0
C2000 C 0.78037 0.90872 0.50154 0.0
H2001 H 0.77866 0.88666 0.55212 0.0
H2002 H 0.80286 0.90679 0.52837 0.0
C2003 C 0.75936 0.903 0.49471 0.0
C2004 C 0.39522 0.03621 0.77279 0.0
C2005 C 0.38901 0.02951 0.75195 0.0
H2006 H 0.411 0.02817 0.80257 0.0
C2007 C 0.39474 1.00847 0.74528 0.0
H2008 H 0.39091 0.05215 0.77863 0.0
C2009 C 0.40675 0.99472 0.759 0.0
C2010 C 0.41263 1.00142 0.77998 0.0
H2011 H 0.39011 1.00273 0.72939 0.0
H2012 H 0.41126 0.9788 0.75327 0.0
C2013 C 0.40657 1.02231 0.78666 0.0
C2014 C 0.26278 0.64458 1.02206 0.0
C2015 C 0.26928 0.63842 1.00115 0.0
H2016 H 0.2712 0.66018 0.05184 0.0
C2017 C 0.29031 0.64403 0.99433 0.0
H2018 H 0.24684 0.64035 0.028 0.0
C2019 C 0.30427 0.65589 1.00798 0.0
C2020 C 0.29778 0.66172 0.02904 0.0
H2021 H 0.2959 0.63943 0.97839 0.0
H2022 H 0.32019 0.66032 1.00214 0.0
C2023 C 0.27689 0.65578 0.03587 0.0
C2024 C 0.76123 0.90645 0.02523 0.0
C2025 C 0.7676 0.91259 0.04619 0.0
H2026 H 0.76979 0.89082 0.99551 0.0
C2027 C 0.78859 0.90696 0.05313 0.0
H2028 H 0.74532 0.91068 1.0192 0.0
C2029 C 0.80261 0.89508 0.03957 0.0
C2030 C 0.79624 0.88924 1.01848 0.0
H2031 H 0.79409 0.91153 0.06912 0.0
H2032 H 0.81848 0.89063 0.04552 0.0
C2033 C 0.7754 0.89523 1.01151 0.0
C2034 C 0.3935 0.54017 0.80414 0.0
C2035 C 0.38777 0.51921 0.79724 0.0
H2036 H 0.41009 0.5699 0.79651 0.0
C2037 C 0.39401 0.51271 0.77635 0.0
H2038 H 0.38884 0.54575 0.82007 0.0
C2039 C 0.40542 0.52674 0.76266 0.0
C2040 C 0.41149 0.54755 0.76958 0.0
H2041 H 0.38969 0.49682 0.77035 0.0
H2042 H 0.40989 0.52104 0.7467 0.0
C2043 C 0.40557 0.55404 0.79061 0.0
C2044 C 0.64323 0.99503 0.29094 0.0
C2045 C 0.63736 1.00151 0.26989 0.0
H2046 H 0.66007 1.00324 0.32038 0.0
C2047 C 0.64366 1.02223 0.2629 0.0
H2048 H 0.63854 0.97924 0.2969 0.0
C2049 C 0.65523 0.03618 0.27654 0.0
C2050 C 0.66142 0.02969 0.29745 0.0
H2051 H 0.63924 0.02792 0.24693 0.0
H2052 H 0.65972 0.052 0.27048 0.0
C2053 C 0.65546 1.00882 0.30443 0.0
C2054 C 0.02506 0.7873 0.64343 0.0
C2055 C 0.0459 0.78039 0.63739 0.0
H2056 H 0.99506 0.77955 0.65904 0.0
C2057 C 0.05235 0.75933 0.64326 0.0
H2058 H 1.01939 0.80328 0.63901 0.0
C2059 C 0.03842 0.74575 0.65524 0.0
C2060 C 1.01744 0.75263 0.66094 0.0
H2061 H 0.06822 0.75342 0.63878 0.0
H2062 H 0.04399 0.72979 0.65983 0.0
C2063 C 1.01097 0.77356 0.65475 0.0
C2064 C 1.01008 0.80246 0.15483 0.0
C2065 C 0.03111 0.79581 0.16064 0.0
H2066 H 0.98045 0.79449 0.13818 0.0
C2067 C 0.03787 0.77499 0.1544 0.0
H2068 H 1.00429 0.81833 0.15946 0.0
C2069 C 1.02401 0.76112 0.14295 0.0
C2070 C 1.00311 0.76779 0.13681 0.0
H2071 H 0.05382 0.76916 0.15877 0.0
H2072 H 0.02989 0.74522 0.13851 0.0
C2073 C 0.99638 0.78876 0.14272 0.0
C2074 C 0.49712 0.77307 0.65967 0.0
C2075 C 0.49765 0.77395 0.63697 0.0
H2076 H 0.50967 0.78565 0.6896 0.0
C2077 C 0.5116 0.78898 0.62703 0.0
H2078 H 0.48673 0.76151 0.66777 0.0
C2079 C 0.52538 0.80217 0.63949 0.0
C2080 C 0.52483 0.8013 0.66219 0.0
H2081 H 0.51262 0.7898 0.60956 0.0
H2082 H 0.53661 0.8129 0.63138 0.0
C2083 C 0.51022 0.78692 0.67213 0.0
C2084 C 0.53903 0.762 0.1727 0.0
C2085 C 0.52432 0.74774 0.16271 0.0
H2086 H 0.56267 0.78729 0.16842 0.0
C2087 C 0.52373 0.74698 0.14001 0.0
H2088 H 0.53962 0.76319 0.19016 0.0
C2089 C 0.53757 0.76013 0.12759 0.0
C2090 C 0.55163 0.77504 0.13757 0.0
H2091 H 0.51243 0.73634 0.13186 0.0
H2092 H 0.53653 0.75939 0.11012 0.0
C2093 C 0.55219 0.77583 0.16028 0.0
C2094 C 0.14387 0.55384 0.7576 0.0
C2095 C 0.13806 0.5472 0.77861 0.0
H2096 H 0.16046 0.5458 0.728 0.0
C2097 C 0.14419 0.52635 0.78535 0.0
H2098 H 0.13931 0.56974 0.75183 0.0
C2099 C 0.15554 0.51243 0.7715 0.0
C2100 C 0.16168 0.51909 0.75063 0.0
H2101 H 0.1398 0.52054 0.80129 0.0
H2102 H 0.15991 0.4965 0.77736 0.0
C2103 C 0.15589 0.54009 0.74391 0.0
C2104 C 0.24586 0.89384 1.00845 0.0
C2105 C 0.25253 0.88815 0.02948 0.0
H2106 H 0.25382 0.91037 0.97878 0.0
C2107 C 0.27336 0.89445 0.03621 0.0
H2108 H 0.22998 0.88915 1.00268 0.0
C2109 C 0.28722 0.90585 1.02233 0.0
C2110 C 0.28053 0.91187 1.00142 0.0
H2111 H 0.27921 0.89017 0.05216 0.0
H2112 H 0.30312 0.91035 0.0282 0.0
C2113 C 0.25956 0.90591 0.99471 0.0
C2114 C 0.9053 0.99374 0.25771 0.0
C2115 C 0.91108 1.0004 0.27873 0.0
H2116 H 0.88882 1.00178 0.22805 0.0
C2117 C 0.90502 1.02129 0.28541 0.0
H2118 H 0.90982 0.97781 0.25199 0.0
C2119 C 0.89376 0.03523 0.27149 0.0
C2120 C 0.88765 0.02854 0.25062 0.0
H2121 H 0.90939 0.02712 0.30135 0.0
H2122 H 0.88944 0.05118 0.27731 0.0
C2123 C 0.89338 1.00751 0.24396 0.0
C2124 C 0.80182 0.63751 0.52538 0.0
C2125 C 0.80148 0.66022 0.52443 0.0
H2126 H 0.78905 0.60764 0.51286 0.0
C2127 C 0.78763 0.67023 0.50936 0.0
H2128 H 0.81212 0.62935 0.53696 0.0
C2129 C 0.77377 0.65784 0.49619 0.0
C2130 C 0.77413 0.63513 0.49712 0.0
H2131 H 0.78676 0.68771 0.50849 0.0
H2132 H 0.76262 0.66602 0.48542 0.0
C2133 C 0.78864 0.62511 0.51154 0.0
C2134 C 0.14344 0.49518 0.28966 0.0
C2135 C 0.13739 0.50176 0.26869 0.0
H2136 H 0.16027 0.50338 0.3191 0.0
C2137 C 0.14335 0.52264 0.26186 0.0
H2138 H 0.13901 0.47927 0.29549 0.0
C2139 C 0.15477 0.53663 0.27558 0.0
C2140 C 0.16115 0.53005 0.29641 0.0
H2141 H 0.13879 0.5284 0.24596 0.0
H2142 H 0.159 0.55257 0.26964 0.0
C2143 C 0.15552 0.50903 0.30322 0.0
C2144 C 0.28946 0.92188 0.5371 0.0
C2145 C 0.27469 0.91197 0.55135 0.0
H2146 H 0.31304 0.91746 0.51182 0.0
C2147 C 0.27394 0.88927 0.55209 0.0
H2148 H 0.29017 0.93935 0.53593 0.0
C2149 C 0.28767 0.87677 0.53892 0.0
C2150 C 0.30178 0.88667 0.52403 0.0
H2151 H 0.26259 0.88118 0.56272 0.0
H2152 H 0.28651 0.85929 0.53965 0.0
C2153 C 0.30251 0.90938 0.52326 0.0
C2154 C 0.89439 0.03991 0.80222 0.0
C2155 C 0.88876 1.01885 0.79555 0.0
H2156 H 0.91088 0.06963 0.79428 0.0
C2157 C 0.89511 1.01213 0.77476 0.0
H2158 H 0.88967 0.04567 0.81807 0.0
C2159 C 0.9065 0.02604 0.76094 0.0
C2160 C 0.91247 0.04697 0.76762 0.0
H2161 H 0.89088 0.99615 0.76893 0.0
H2162 H 0.91104 1.02017 0.74507 0.0
C2163 C 0.90645 0.05368 0.78855 0.0
C2164 C 0.75897 0.64342 0.05334 0.0
C2165 C 0.77998 0.63752 0.04669 0.0
H2166 H 0.72947 0.6603 0.04538 0.0
C2167 C 0.78681 0.64379 0.02591 0.0
H2168 H 0.75313 0.63877 0.06918 0.0
C2169 C 0.77306 0.65537 1.01208 0.0
C2170 C 0.7522 0.6616 1.01874 0.0
H2171 H 0.80274 0.63935 1.0201 0.0
H2172 H 0.779 0.65983 0.99622 0.0
C2173 C 0.74538 0.65566 0.03967 0.0
C2174 C 0.24654 0.65533 0.53935 0.0
C2175 C 0.253 0.66116 0.51828 0.0
H2176 H 0.25487 0.63878 0.5689 0.0
C2177 C 0.27382 0.65506 0.51138 0.0
H2178 H 0.23067 0.65985 0.54525 0.0
C2179 C 0.28788 0.64373 0.52512 0.0
C2180 C 0.28141 0.63759 0.54605 0.0
H2181 H 0.2795 0.65945 0.49539 0.0
H2182 H 0.30378 0.6394 0.51913 0.0
C2183 C 0.26044 0.64334 0.55294 0.0
C2184 C 0.75962 0.40438 0.99474 0.0
C2185 C 0.78057 0.41031 1.00154 0.0
H2186 H 0.72998 0.38769 1.0026 0.0
C2187 C 0.78717 0.40429 1.02247 0.0
H2188 H 0.75395 0.40885 0.97879 0.0
C2189 C 0.77323 0.39292 0.03631 0.0
C2190 C 0.75242 0.38666 0.02949 0.0
H2191 H 0.80306 0.40877 0.02839 0.0
H2192 H 0.77899 0.38864 0.05229 0.0
C2193 C 0.74585 0.39235 1.00842 0.0
C2194 C 0.39387 0.53704 0.273 0.0
C2195 C 0.38785 0.53041 0.25208 0.0
H2196 H 0.40929 0.52888 0.30293 0.0
C2197 C 0.39356 0.50936 0.24544 0.0
H2198 H 0.38957 0.553 0.27882 0.0
C2199 C 0.40536 0.49553 0.25926 0.0
C2200 C 0.41105 0.50216 0.28031 0.0
H2201 H 0.38908 0.50366 0.22949 0.0
H2202 H 0.40986 0.47959 0.25355 0.0
C2203 C 0.40501 0.52307 0.28697 0.0
C2204 C 0.26128 0.14282 0.52295 0.0
C2205 C 0.26789 0.13678 0.50202 0.0
H2206 H 0.26945 0.15848 0.55278 0.0
C2207 C 0.28886 0.14268 0.49527 0.0
H2208 H 0.24538 0.13838 0.52884 0.0
C2209 C 0.30264 0.1547 0.50897 0.0
C2210 C 0.29605 0.16042 0.53003 0.0
H2211 H 0.29454 0.13821 0.47932 0.0
H2212 H 0.31852 0.15933 0.50317 0.0
C2213 C 0.27522 0.15418 0.53681 0.0
C2214 C 0.77592 0.39377 0.5121 0.0
C2215 C 0.79688 0.3879 0.51881 0.0
H2216 H 0.74588 0.40911 0.52012 0.0
C2217 C 0.80348 0.39381 0.53982 0.0
H2218 H 0.77013 0.38932 0.49618 0.0
C2219 C 0.78958 0.40565 0.55353 0.0
C2220 C 0.76848 0.41118 0.54684 0.0
H2221 H 0.81945 0.38945 0.54557 0.0
H2222 H 0.79526 0.41029 0.56944 0.0
C2223 C 0.76187 0.40495 0.52597 0.0
C2224 C 0.40457 0.02675 0.26277 0.0
C2225 C 0.41067 0.04767 0.26934 0.0
H2226 H 0.38894 0.99692 0.27103 0.0
C2227 C 0.40492 0.05445 0.29032 0.0
H2228 H 0.40892 1.02083 0.24687 0.0
C2229 C 0.39298 0.04076 0.30415 0.0
C2230 C 0.38721 1.0197 0.29761 0.0
H2231 H 0.40947 0.0704 0.29596 0.0
H2232 H 0.38844 0.04658 0.32004 0.0
C2233 C 0.3933 1.0129 0.27677 0.0
C2234 C 0.64364 0.49501 0.79134 0.0
C2235 C 0.63793 0.50152 0.77026 0.0
H2236 H 0.66017 0.50323 0.82095 0.0
C2237 C 0.64417 0.5223 0.76339 0.0
H2238 H 0.63899 0.47918 0.79722 0.0
C2239 C 0.65553 0.53628 0.77718 0.0
C2240 C 0.66157 0.52976 0.79812 0.0
H2241 H 0.63986 0.528 0.74739 0.0
H2242 H 0.65999 0.55214 0.7712 0.0
C2243 C 0.65567 0.50883 0.80498 0.0
C2244 C 0.53727 0.28617 0.87622 0.0
C2245 C 0.52257 0.30041 0.88623 0.0
H2246 H 0.56102 0.261 0.88045 0.0
C2247 C 0.52202 0.30115 0.90894 0.0
H2248 H 0.53783 0.28501 0.85875 0.0
C2249 C 0.53593 0.28804 0.92133 0.0
C2250 C 0.55002 0.27319 0.91132 0.0
H2251 H 0.51074 0.31178 0.91711 0.0
H2252 H 0.53496 0.28882 0.9388 0.0
C2253 C 0.5505 0.27239 0.88861 0.0
C2254 C 0.50995 0.2453 0.39344 0.0
C2255 C 0.5309 0.25209 0.38749 0.0
H2256 H 0.48039 0.25311 0.41027 0.0
C2257 C 0.53757 0.27297 0.39364 0.0
H2258 H 0.50423 0.22939 0.38888 0.0
C2259 C 0.52371 0.28676 0.40516 0.0
C2260 C 0.5029 0.27996 0.41144 0.0
H2261 H 0.55346 0.27888 0.38917 0.0
H2262 H 0.52953 0.30271 0.40954 0.0
C2263 C 0.49626 0.25894 0.40561 0.0
C2264 C 0.53892 0.80289 0.39378 0.0
C2265 C 0.51795 0.796 0.388 0.0
H2266 H 0.56868 0.7952 0.41031 0.0
C2267 C 0.51146 0.77506 0.39413 0.0
H2268 H 0.5445 0.81886 0.38923 0.0
C2269 C 0.52551 0.7613 0.40547 0.0
C2270 C 0.54634 0.76821 0.41159 0.0
H2271 H 0.49557 0.76906 0.38978 0.0
H2272 H 0.51983 0.74531 0.40984 0.0
C2273 C 0.55281 0.78929 0.40577 0.0
C2274 C 0.53747 0.77325 0.89416 0.0
C2275 C 0.53069 0.75243 0.88791 0.0
H2276 H 0.52956 0.80299 0.91011 0.0
C2277 C 0.50967 0.74577 0.89376 0.0
H2278 H 0.55341 0.77909 0.88977 0.0
C2279 C 0.49601 0.75946 0.90591 0.0
C2280 C 0.50277 0.78042 0.91184 0.0
H2281 H 0.50387 0.7299 0.88913 0.0
H2282 H 0.48009 0.75372 0.91048 0.0
C2283 C 0.52365 0.7871 0.90566 0.0
C2284 C 0.65652 0.03846 0.74414 0.0
C2285 C 0.66234 1.01753 0.75102 0.0
H2286 H 0.64013 0.06825 0.75196 0.0
C2287 C 0.65649 1.01113 0.77206 0.0
H2288 H 0.66088 0.04397 0.7281 0.0
C2289 C 0.64538 0.02523 0.78591 0.0
C2290 C 0.6392 0.04602 0.77901 0.0
H2291 H 0.66089 0.99526 0.77805 0.0
H2292 H 0.6412 1.01961 0.80196 0.0
C2293 C 0.64474 0.05241 0.75785 0.0
C2294 C 0.65439 0.51112 0.27275 0.0
C2295 C 0.6604 0.51781 0.25185 0.0
H2296 H 0.639 0.51921 0.30271 0.0
C2297 C 0.65472 0.53888 0.24527 0.0
H2298 H 0.65868 0.49514 0.27852 0.0
C2299 C 0.64294 0.55268 0.25914 0.0
C2300 C 0.63727 0.546 0.28017 0.0
H2301 H 0.6592 0.54463 0.22935 0.0
H2302 H 0.63846 0.56865 0.25348 0.0
C2303 C 0.64328 0.52506 0.28676 0.0
C2304 C 0.14741 0.36367 0.08663 0.0
C2305 C 0.12659 0.36418 0.07749 0.0
H2306 H 0.17872 0.37892 0.08809 0.0
C2307 C 0.12266 0.37845 0.06018 0.0
H2308 H 0.15088 0.35297 0.10006 0.0
C2309 C 0.13832 0.39326 0.05349 0.0
C2310 C 0.1585 0.39417 0.06377 0.0
H2311 H 0.10685 0.37908 0.05259 0.0
H2312 H 0.13413 0.40485 0.04102 0.0
C2313 C 0.1633 0.37857 0.07977 0.0
C2314 C 0.92083 0.37323 0.30959 0.0
C2315 C 0.93509 0.37695 0.32697 0.0
H2316 H 0.89449 0.38496 0.29049 0.0
C2317 C 0.93569 0.39767 0.33628 0.0
H2318 H 0.92013 0.35749 0.30189 0.0
C2319 C 0.92087 0.41367 0.32952 0.0
C2320 C 0.90526 0.40907 0.31346 0.0
H2321 H 0.94636 0.40097 0.34978 0.0
H2322 H 0.92056 0.429 0.33798 0.0
C2323 C 0.9061 0.38899 0.30299 0.0
C2324 C 0.91104 0.15521 0.55224 0.0
C2325 C 0.89081 0.15434 0.56243 0.0
H2326 H 0.94251 0.16938 0.55147 0.0
C2327 C 0.88595 0.16998 0.57836 0.0
H2328 H 0.91528 0.14359 0.53983 0.0
C2329 C 0.90181 0.1849 0.58526 0.0
C2330 C 0.92267 0.18436 0.57623 0.0
H2331 H 0.87048 0.16966 0.5866 0.0
H2332 H 0.89828 0.19564 0.59864 0.0
C2333 C 0.92667 0.17003 0.55898 0.0
C2334 C 0.12864 0.13557 0.82936 0.0
C2335 C 0.14436 0.14014 0.8134 0.0
H2336 H 0.10302 0.14829 0.84943 0.0
C2337 C 0.14362 0.16023 0.80295 0.0
H2338 H 0.12887 0.12023 0.83781 0.0
C2339 C 0.12887 0.17601 0.80944 0.0
C2340 C 0.11449 0.17231 0.82672 0.0
H2341 H 0.15531 0.16424 0.79051 0.0
H2342 H 0.12964 0.19174 0.80174 0.0
C2343 C 0.1138 0.15159 0.83602 0.0
C2344 C 0.14831 0.68859 0.96221 0.0
C2345 C 0.12741 0.68813 0.97115 0.0
H2346 H 0.17955 0.6732 0.96098 0.0
C2347 C 0.12326 0.67387 0.9884 0.0
H2348 H 0.1519 0.69921 0.94876 0.0
C2349 C 0.1388 0.65898 0.99522 0.0
C2350 C 0.15906 0.65798 0.98508 0.0
H2351 H 0.10733 0.67322 0.99572 0.0
H2352 H 0.13443 0.64735 1.00758 0.0
C2353 C 0.16407 0.67362 0.96919 0.0
C2354 C 0.62556 0.372 0.23883 0.0
C2355 C 0.6112 0.37614 0.22163 0.0
H2356 H 0.6521 0.38323 0.25798 0.0
C2357 C 0.61065 0.39705 0.21276 0.0
H2358 H 0.62628 0.35607 0.24611 0.0
C2359 C 0.62559 0.41285 0.21975 0.0
C2360 C 0.64131 0.40786 0.23559 0.0
H2361 H 0.59994 0.40065 0.19936 0.0
H2362 H 0.62592 0.42834 0.21159 0.0
C2363 C 0.64042 0.38757 0.24566 0.0
C2364 C 0.91095 0.88932 0.49572 0.0
C2365 C 0.89061 0.89011 0.4857 0.0
H2366 H 0.94251 0.87528 0.49615 0.0
C2367 C 0.88558 0.8743 0.46998 0.0
H2368 H 0.91532 0.90108 0.50796 0.0
C2369 C 0.9014 0.85937 0.46302 0.0
C2370 C 0.92235 0.86004 0.47182 0.0
H2371 H 0.87005 0.87455 0.46186 0.0
H2372 H 0.89777 0.8486 0.44969 0.0
C2373 C 0.92653 0.87447 0.48893 0.0
C2374 C 0.42375 0.1342 0.71999 0.0
C2375 C 0.40834 0.139 0.73616 0.0
H2376 H 0.44906 0.14665 0.69936 0.0
C2377 C 0.40954 0.15907 0.74662 0.0
H2378 H 0.42316 0.11888 0.71152 0.0
C2379 C 0.42439 0.17468 0.73985 0.0
C2380 C 0.43838 0.17077 0.72232 0.0
H2381 H 0.39808 0.16326 0.75921 0.0
H2382 H 0.42387 0.19049 0.7474 0.0
C2383 C 0.43866 0.15004 0.71304 0.0
C2384 C 0.07921 0.16324 0.37596 0.0
C2385 C 0.06318 0.15864 0.39159 0.0
H2386 H 0.09954 0.15053 0.35055 0.0
C2387 C 0.05287 0.13846 0.39091 0.0
H2388 H 0.08755 0.17865 0.37614 0.0
C2389 C 0.05959 0.12264 0.37631 0.0
C2390 C 0.07693 0.1264 0.36203 0.0
H2391 H 0.04038 0.13442 0.40253 0.0
H2392 H 0.052 0.10684 0.37714 0.0
C2393 C 0.08608 0.14719 0.36127 0.0
C2394 C 0.1762 0.30912 0.62464 0.0
C2395 C 0.17206 0.32627 0.61025 0.0
H2396 H 0.16497 0.29008 0.65122 0.0
C2397 C 0.15115 0.33516 0.60966 0.0
H2398 H 0.19214 0.30183 0.62539 0.0
C2399 C 0.13534 0.32824 0.62461 0.0
C2400 C 0.14033 0.31246 0.64037 0.0
H2401 H 0.14755 0.34853 0.59893 0.0
H2402 H 0.11984 0.33642 0.62492 0.0
C2403 C 0.16062 0.30236 0.63951 0.0
C2404 C 0.98934 0.42563 0.87755 0.0
C2405 C 0.9721 0.42177 0.86315 0.0
H2406 H 1.00848 0.41395 0.90387 0.0
C2407 C 0.96309 0.40093 0.86231 0.0
H2408 H 0.99684 0.44147 0.87842 0.0
C2409 C 0.96998 0.3849 0.87703 0.0
C2410 C 0.98589 0.3896 0.89276 0.0
H2411 H 0.94972 0.39751 0.8515 0.0
H2412 H 0.96174 0.36944 0.87714 0.0
C2413 C 0.99608 0.40984 0.89217 0.0
C2414 C 0.89824 0.21317 0.11028 0.0
C2415 C 0.87725 0.22187 0.11085 0.0
H2416 H 0.92952 0.21212 0.12561 0.0
C2417 C 0.87293 0.23893 0.1253 0.0
H2418 H 0.90198 0.19989 0.09949 0.0
C2419 C 0.88842 0.24576 0.14024 0.0
C2420 C 0.90879 0.23584 0.14111 0.0
H2421 H 0.85692 0.24608 0.12603 0.0
H2422 H 0.88394 0.25797 0.15199 0.0
C2423 C 0.91395 0.22017 0.1253 0.0
C2424 C 0.05561 0.91214 0.65433 0.0
C2425 C 0.065 0.89152 0.65422 0.0
H2426 H 0.05575 0.94395 0.66765 0.0
C2427 C 0.08045 0.88648 0.6703 0.0
H2428 H 0.04359 0.91654 0.64235 0.0
C2429 C 0.08767 0.90246 0.68495 0.0
C2430 C 0.07946 0.92361 0.68367 0.0
H2431 H 0.08808 0.87072 0.67056 0.0
H2432 H 0.10065 0.89869 0.6961 0.0
C2433 C 0.06267 0.92789 0.66886 0.0
C2434 C 0.37272 0.31079 0.92246 0.0
C2435 C 0.37656 0.32834 0.93646 0.0
H2436 H 0.38418 0.29151 0.89616 0.0
C2437 C 0.39728 0.33771 0.93674 0.0
H2438 H 0.35697 0.30305 0.922 0.0
C2439 C 0.41315 0.33082 0.92183 0.0
C2440 C 0.40837 0.31463 0.90644 0.0
H2441 H 0.40066 0.35134 0.9472 0.0
H2442 H 0.42847 0.33933 0.92122 0.0
C2443 C 0.38832 0.30411 0.90761 0.0
C2444 C 0.9953 0.63722 0.15534 0.0
C2445 C 0.98538 0.65758 0.15457 0.0
H2446 H 0.99568 0.60571 0.16938 0.0
C2447 C 0.96953 0.66259 0.17026 0.0
H2448 H 1.00764 0.63286 0.14368 0.0
C2449 C 0.96244 0.64678 0.18512 0.0
C2450 C 0.97119 0.62582 0.18448 0.0
H2451 H 0.9615 0.67815 0.17001 0.0
H2452 H 0.94913 0.65046 0.19591 0.0
C2453 C 0.98837 0.62164 0.17011 0.0
C2454 C 0.65254 0.21183 0.43542 0.0
C2455 C 0.67334 0.22103 0.43486 0.0
H2456 H 0.62118 0.21034 0.42028 0.0
C2457 C 0.67717 0.23842 0.42065 0.0
H2458 H 0.64915 0.19835 0.44607 0.0
C2459 C 0.66144 0.24511 0.40592 0.0
C2460 C 0.64128 0.23477 0.40505 0.0
H2461 H 0.69295 0.24605 0.41998 0.0
H2462 H 0.66555 0.25762 0.39435 0.0
C2463 C 0.63658 0.21871 0.42061 0.0
C2464 C 0.37833 0.0617 0.12199 0.0
C2465 C 0.36377 0.07877 0.12596 0.0
H2466 H 0.40458 0.04247 0.13368 0.0
C2467 C 0.36266 0.08743 0.14693 0.0
H2468 H 0.37941 0.05447 0.10606 0.0
C2469 C 0.37724 0.08033 0.16302 0.0
C2470 C 0.39309 0.06456 0.15828 0.0
H2471 H 0.35171 0.10065 0.15045 0.0
H2472 H 0.37712 0.0883 0.17862 0.0
C2473 C 0.39279 0.05475 0.13786 0.0
C2474 C 0.8934 0.9925 0.41035 0.0
C2475 C 0.89366 0.98264 0.38995 0.0
H2476 H 0.88011 0.99283 0.44217 0.0
C2477 C 0.87782 0.96683 0.38527 0.0
H2478 H 0.90519 1.00481 0.41447 0.0
C2479 C 0.8633 0.95973 0.40141 0.0
C2480 C 0.86446 0.96843 0.42236 0.0
H2481 H 0.87768 0.95884 0.36969 0.0
H2482 H 0.85237 0.94647 0.39795 0.0
C2483 C 0.87899 0.98555 0.42626 0.0
C2484 C 0.33721 0.11282 0.65227 0.0
C2485 C 0.32896 0.11407 0.6734 0.0
H2486 H 0.33764 0.1272 0.62054 0.0
C2487 C 0.31211 0.12881 0.67764 0.0
H2488 H 0.35025 0.10173 0.64853 0.0
C2489 C 0.30502 0.1433 0.66188 0.0
C2490 C 0.31445 0.14345 0.64128 0.0
H2491 H 0.30516 0.13 0.69369 0.0
H2492 H 0.29294 0.15523 0.66625 0.0
C2493 C 0.32997 0.12743 0.63628 0.0
C2494 C 0.17142 0.58059 0.88503 0.0
C2495 C 0.15546 0.56492 0.88979 0.0
H2496 H 0.19701 0.60082 0.89762 0.0
C2497 C 0.15563 0.55519 0.91024 0.0
H2498 H 0.17163 0.58848 0.8694 0.0
C2499 C 0.17007 0.56212 0.92613 0.0
C2500 C 0.18474 0.57911 0.92215 0.0
H2501 H 0.14375 0.54298 0.91442 0.0
H2502 H 0.16889 0.55495 0.94208 0.0
C2503 C 0.18598 0.58767 0.90114 0.0
C2504 C 0.21296 0.93634 0.15104 0.0
C2505 C 0.22191 0.93558 0.1719 0.0
H2506 H 0.21178 0.92147 0.11957 0.0
C2507 C 0.2392 0.92127 0.17583 0.0
H2508 H 0.19955 0.94708 0.14757 0.0
C2509 C 0.24607 0.90667 0.16007 0.0
C2510 C 0.23595 0.906 0.1398 0.0
H2511 H 0.24665 0.92045 0.19168 0.0
H2512 H 0.25851 0.89504 0.16422 0.0
C2513 C 0.21997 0.92164 0.13505 0.0
C2514 C 0.67 0.96833 0.16339 0.0
C2515 C 0.65418 0.98424 0.15902 0.0
H2516 H 0.69539 0.9482 0.15029 0.0
C2517 C 0.65447 0.99454 0.13885 0.0
H2518 H 0.6701 0.96001 0.17879 0.0
C2519 C 0.66888 0.98793 0.12282 0.0
C2520 C 0.68336 0.9707 0.12635 0.0
H2521 H 0.64269 1.00694 0.13499 0.0
H2522 H 0.66778 0.99553 0.10706 0.0
C2523 C 0.6845 0.96156 0.14712 0.0
C2524 C 0.32947 0.4217 0.91305 0.0
C2525 C 0.31387 0.40567 0.90832 0.0
H2526 H 0.34962 0.44732 0.90042 0.0
C2527 C 0.30416 0.40572 0.88785 0.0
H2528 H 0.33735 0.42201 0.9287 0.0
C2529 C 0.31107 0.42012 0.87193 0.0
C2530 C 0.32799 0.43486 0.87589 0.0
H2531 H 0.292 0.39379 0.88369 0.0
H2532 H 0.30392 0.41885 0.85597 0.0
C2533 C 0.33652 0.43622 0.89691 0.0
C2534 C 0.74593 0.1433 0.38734 0.0
C2535 C 0.7361 0.1436 0.40775 0.0
H2536 H 0.74635 0.12981 0.35561 0.0
C2537 C 0.72045 0.12763 0.41255 0.0
H2538 H 0.75812 0.15518 0.38313 0.0
C2539 C 0.71348 0.11294 0.39653 0.0
C2540 C 0.72213 0.11405 0.37556 0.0
H2541 H 0.71248 0.1275 0.42815 0.0
H2542 H 0.70034 0.10191 0.40009 0.0
C2543 C 0.7391 0.12872 0.37154 0.0
C2544 C 0.14092 0.88993 0.55374 0.0
C2545 C 0.16052 0.89139 0.56504 0.0
H2546 H 0.1096 0.87553 0.55183 0.0
C2547 C 0.16462 0.87644 0.5818 0.0
H2548 H 0.13731 0.90106 0.5407 0.0
C2549 C 0.14846 0.86173 0.58845 0.0
C2550 C 0.12813 0.86177 0.57825 0.0
H2551 H 0.17957 0.8773 0.59091 0.0
H2552 H 0.15124 0.85169 0.60252 0.0
C2553 C 0.12504 0.87525 0.56017 0.0
C2554 C 0.93864 0.89828 0.83482 0.0
C2555 C 0.93823 0.87741 0.82584 0.0
H2556 H 0.92322 0.92947 0.83607 0.0
C2557 C 0.92404 0.87329 0.80851 0.0
H2558 H 0.9492 0.90184 0.84835 0.0
C2559 C 0.90915 0.88881 0.80167 0.0
C2560 C 0.90809 0.90903 0.81187 0.0
H2561 H 0.92341 0.85737 0.80117 0.0
H2562 H 0.89755 0.88447 0.78926 0.0
C2563 C 0.92369 0.91403 0.82781 0.0
C2564 C 0.88579 0.67055 0.08001 0.0
C2565 C 0.89019 0.65516 0.0637 0.0
H2566 H 0.89877 0.69571 0.10049 0.0
C2567 C 0.91017 0.65611 0.05304 0.0
H2568 H 0.87053 0.67014 0.08861 0.0
C2569 C 0.92604 0.67073 0.05966 0.0
C2570 C 0.92253 0.68474 0.07728 0.0
H2571 H 0.91404 0.64468 0.04034 0.0
H2572 H 0.94171 0.67011 0.05179 0.0
C2573 C 0.9019 0.68524 0.08681 0.0
C2574 C 0.11106 0.65045 0.3347 0.0
C2575 C 0.11154 0.67139 0.32589 0.0
H2576 H 0.12649 0.61925 0.33584 0.0
C2577 C 0.12592 0.67567 0.30876 0.0
H2578 H 0.10033 0.64675 0.34804 0.0
C2579 C 0.14089 0.66021 0.30195 0.0
C2580 C 0.14186 0.6399 0.31197 0.0
H2581 H 0.12659 0.69163 0.30154 0.0
H2582 H 0.1526 0.66467 0.28969 0.0
C2583 C 0.12611 0.63477 0.32772 0.0
C2584 C 0.13723 0.15558 0.49413 0.0
C2585 C 0.15757 0.15473 0.48415 0.0
H2586 H 0.10574 0.16969 0.49456 0.0
C2587 C 0.16256 0.17034 0.46822 0.0
H2588 H 0.13289 0.14398 0.50653 0.0
C2589 C 0.14675 0.18521 0.46113 0.0
C2590 C 0.1258 0.18465 0.46996 0.0
H2591 H 0.17811 0.17003 0.46013 0.0
H2592 H 0.15039 0.19592 0.44776 0.0
C2593 C 0.12165 0.17036 0.4872 0.0
C2594 C 0.6267 0.91292 0.72008 0.0
C2595 C 0.64259 0.90772 0.73568 0.0
H2596 H 0.60066 0.90106 0.70001 0.0
C2597 C 0.64168 0.88738 0.74564 0.0
H2598 H 0.62704 0.92846 0.71201 0.0
C2599 C 0.6266 0.87197 0.73893 0.0
C2600 C 0.61203 0.87633 0.72197 0.0
H2601 H 0.65348 0.88287 0.75779 0.0
H2602 H 0.62728 0.85599 0.74613 0.0
C2603 C 0.61153 0.89729 0.71322 0.0
C2604 C 0.90221 0.36223 0.96156 0.0
C2605 C 0.92305 0.36288 0.97064 0.0
H2606 H 0.87078 0.37723 0.96024 0.0
C2607 C 0.92693 0.37714 0.98798 0.0
H2608 H 0.89878 0.35154 0.94812 0.0
C2609 C 0.91118 0.3918 0.99477 0.0
C2610 C 0.89095 0.39257 0.98455 0.0
H2611 H 0.94275 0.37788 0.99552 0.0
H2612 H 0.91532 0.40339 1.00725 0.0
C2613 C 0.88623 0.37698 0.96852 0.0
C2614 C 0.43826 0.65096 0.2134 0.0
C2615 C 0.43776 0.67187 0.22228 0.0
H2616 H 0.42282 0.61976 0.21211 0.0
C2617 C 0.42332 0.67609 0.23937 0.0
H2618 H 0.44902 0.64731 0.20007 0.0
C2619 C 0.40832 0.66059 0.24609 0.0
C2620 C 0.40739 0.64032 0.236 0.0
H2621 H 0.42263 0.69203 0.24665 0.0
H2622 H 0.39658 0.665 0.25832 0.0
C2623 C 0.42319 0.63524 0.22028 0.0
C2624 C 0.06059 0.62388 0.87523 0.0
C2625 C 0.07817 0.62748 0.8612 0.0
H2626 H 0.04139 0.6357 0.90144 0.0
C2627 C 0.08769 0.64812 0.86074 0.0
H2628 H 0.05274 0.60821 0.87582 0.0
C2629 C 0.08093 0.66415 0.87553 0.0
C2630 C 0.0647 0.65962 0.89096 0.0
H2631 H 0.10135 0.65131 0.85025 0.0
H2632 H 0.08955 0.6794 0.87601 0.0
C2633 C 0.05402 0.63965 0.88995 0.0
C2634 C 0.15277 0.83641 0.11267 0.0
C2635 C 0.17371 0.82759 0.11343 0.0
H2636 H 0.1213 0.83748 0.12762 0.0
C2637 C 0.17776 0.81041 0.12783 0.0
H2638 H 0.1492 0.84972 0.10187 0.0
C2639 C 0.16207 0.80355 0.14252 0.0
C2640 C 0.14172 0.81354 0.14318 0.0
H2641 H 0.19366 0.80305 0.12865 0.0
H2642 H 0.16632 0.79121 0.15422 0.0
C2643 C 0.13684 0.82938 0.12746 0.0
C2644 C 0.96846 0.88374 0.376 0.0
C2645 C 0.98472 0.88834 0.39138 0.0
H2646 H 0.94795 0.89646 0.35073 0.0
C2647 C 0.99535 0.90833 0.3903 0.0
H2648 H 0.95987 0.86848 0.37654 0.0
C2649 C 0.98872 0.92405 0.37555 0.0
C2650 C 0.97111 0.92037 0.36157 0.0
H2651 H 1.00802 0.91234 0.40175 0.0
H2652 H 0.99654 0.93974 0.37609 0.0
C2653 C 0.96163 0.89971 0.36119 0.0
C2654 C 0.8712 0.73784 0.62613 0.0
C2655 C 0.87588 0.72096 0.61158 0.0
H2656 H 0.88178 0.75697 0.65293 0.0
C2657 C 0.89705 0.71267 0.61103 0.0
H2658 H 0.85507 0.7447 0.62685 0.0
C2659 C 0.91259 0.7199 0.62613 0.0
C2660 C 0.9071 0.7354 0.64199 0.0
H2661 H 0.90108 0.69953 0.60017 0.0
H2662 H 0.92832 0.71217 0.62642 0.0
C2663 C 0.88652 0.74491 0.64114 0.0
C2664 C 0.07976 0.38541 0.17102 0.0
C2665 C 0.06377 0.39006 0.15536 0.0
H2666 H 0.1 0.39803 0.19657 0.0
C2667 C 0.05345 0.41022 0.15609 0.0
H2668 H 0.08811 0.37001 0.1708 0.0
C2669 C 0.06011 0.42599 0.1708 0.0
C2670 C 0.07741 0.42219 0.18514 0.0
H2671 H 0.04098 0.4143 0.14446 0.0
H2672 H 0.05249 0.44176 0.17003 0.0
C2673 C 0.08658 0.40141 0.18582 0.0
C2674 C 0.37195 0.80935 0.42259 0.0
C2675 C 0.37645 0.82627 0.43715 0.0
H2676 H 0.38275 0.79038 0.39577 0.0
C2677 C 0.39753 0.83478 0.43776 0.0
H2678 H 0.35588 0.80234 0.42183 0.0
C2679 C 0.41315 0.82774 0.42268 0.0
C2680 C 0.40783 0.81222 0.40678 0.0
H2681 H 0.40141 0.84796 0.44864 0.0
H2682 H 0.4288 0.83565 0.42242 0.0
C2683 C 0.38736 0.80247 0.4076 0.0
C2684 C 0.96948 0.16339 0.66987 0.0
C2685 C 0.9856 0.15885 0.65432 0.0
H2686 H 0.9492 0.15064 0.69531 0.0
C2687 C 0.99614 0.13881 0.65519 0.0
H2688 H 0.96097 0.1787 0.66955 0.0
C2689 C 0.98955 0.12302 0.6699 0.0
C2690 C 0.97212 0.12669 0.6841 0.0
H2691 H 1.0087 0.13482 0.64364 0.0
H2692 H 0.99732 0.10732 0.66922 0.0
C2693 C 0.96273 0.14738 0.68467 0.0
C2694 C 0.63632 0.71974 0.92103 0.0
C2695 C 0.64105 0.73563 0.9053 0.0
H2696 H 0.64889 0.69953 0.9466 0.0
C2697 C 0.66128 0.74586 0.90598 0.0
H2698 H 0.62087 0.71147 0.92085 0.0
C2699 C 0.67704 0.73919 0.92068 0.0
C2700 C 0.67316 0.72195 0.93507 0.0
H2701 H 0.66541 0.75825 0.89429 0.0
H2702 H 0.69287 0.74671 0.91987 0.0
C2703 C 0.65232 0.7129 0.93581 0.0
C2704 C 0.3643 0.5879 0.64688 0.0
C2705 C 0.36541 0.57884 0.62608 0.0
H2706 H 0.3787 0.58928 0.67858 0.0
C2707 C 0.37986 0.5616 0.62248 0.0
H2708 H 0.35344 0.60127 0.65011 0.0
C2709 C 0.39425 0.55488 0.63849 0.0
C2710 C 0.39457 0.56508 0.65872 0.0
H2711 H 0.38094 0.55405 0.60669 0.0
H2712 H 0.40599 0.54246 0.63459 0.0
C2713 C 0.37879 0.58102 0.66314 0.0
C2714 C 0.87853 0.48777 0.92582 0.0
C2715 C 0.86427 0.47039 0.92208 0.0
H2716 H 0.90476 0.50701 0.91404 0.0
C2717 C 0.86358 0.46119 0.90132 0.0
H2718 H 0.8793 0.49541 0.94158 0.0
C2719 C 0.8783 0.46807 0.88528 0.0
C2720 C 0.8939 0.48414 0.88987 0.0
H2721 H 0.85288 0.44771 0.89799 0.0
H2722 H 0.87852 0.4597 0.8699 0.0
C2723 C 0.89317 0.49449 0.91001 0.0
C2724 C 0.30534 0.64384 0.16031 0.0
C2725 C 0.31533 0.64409 0.13998 0.0
H2726 H 0.30472 0.63047 0.19209 0.0
C2727 C 0.33106 0.62818 0.13535 0.0
H2728 H 0.29308 0.65569 0.16438 0.0
C2729 C 0.33797 0.61358 0.15149 0.0
C2730 C 0.32914 0.61473 0.1724 0.0
H2731 H 0.33915 0.62803 0.11982 0.0
H2732 H 0.35118 0.60259 0.14809 0.0
C2733 C 0.31209 0.62935 0.17622 0.0
C2734 C 0.18519 0.08692 0.4009 0.0
C2735 C 0.18462 0.07738 0.42151 0.0
H2736 H 0.17017 0.08876 0.36952 0.0
C2737 C 0.17057 0.05978 0.42497 0.0
H2738 H 0.19571 0.10059 0.3978 0.0
C2739 C 0.15598 0.05317 0.40908 0.0
C2740 C 0.1551 0.06384 0.38911 0.0
H2741 H 0.1699 0.05189 0.44061 0.0
H2742 H 0.14451 0.04047 0.41291 0.0
C2743 C 0.17053 0.08014 0.38476 0.0
C2744 C 0.24558 0.40747 0.65837 0.0
C2745 C 0.23488 0.40643 0.63843 0.0
H2746 H 0.24691 0.42165 0.68978 0.0
C2747 C 0.21864 0.42186 0.63391 0.0
H2748 H 0.25823 0.39599 0.66232 0.0
C2749 C 0.2119 0.43667 0.64992 0.0
C2750 C 0.22145 0.43624 0.67054 0.0
H2751 H 0.20999 0.42135 0.61868 0.0
H2752 H 0.19823 0.44715 0.64673 0.0
C2753 C 0.23904 0.42222 0.67412 0.0
C2754 C 0.68557 0.46093 0.64775 0.0
C2755 C 0.68454 0.4699 0.6269 0.0
H2756 H 0.67108 0.45976 0.6794 0.0
C2757 C 0.67018 0.48719 0.62317 0.0
H2758 H 0.69635 0.44753 0.65106 0.0
C2759 C 0.65578 0.49405 0.63912 0.0
C2760 C 0.65537 0.48394 0.65938 0.0
H2761 H 0.66917 0.49465 0.60735 0.0
H2762 H 0.64411 0.5065 0.63512 0.0
C2763 C 0.67106 0.46795 0.66392 0.0
C2764 C 0.3304 0.9225 0.41454 0.0
C2765 C 0.31407 0.90716 0.41005 0.0
H2766 H 0.35087 0.94776 0.4017 0.0
C2767 C 0.30326 0.90832 0.39017 0.0
H2768 H 0.33913 0.92191 0.42972 0.0
C2769 C 0.30979 0.92309 0.37444 0.0
C2770 C 0.32746 0.93703 0.37798 0.0
H2771 H 0.29054 0.8969 0.38625 0.0
H2772 H 0.30184 0.92261 0.35881 0.0
C2773 C 0.33712 0.93734 0.39855 0.0
C2774 C 0.71306 0.61339 0.89745 0.0
C2775 C 0.72198 0.61416 0.87657 0.0
H2776 H 0.71181 0.62834 0.92888 0.0
C2777 C 0.73915 0.62862 0.87259 0.0
H2778 H 0.69975 0.60254 0.90096 0.0
C2779 C 0.74591 0.64334 0.8883 0.0
C2780 C 0.73582 0.64397 0.90858 0.0
H2781 H 0.74658 0.62945 0.85674 0.0
H2782 H 0.75826 0.65505 0.8841 0.0
C2783 C 0.71998 0.6282 0.91338 0.0
C2784 C 0.63783 0.39076 0.55336 0.0
C2785 C 0.65814 0.39173 0.56341 0.0
H2786 H 0.60637 0.37647 0.55291 0.0
C2787 C 0.66325 0.37601 0.57919 0.0
H2788 H 0.6334 0.40245 0.54109 0.0
C2789 C 0.64753 0.36098 0.58616 0.0
C2790 C 0.62658 0.36145 0.57732 0.0
H2791 H 0.67877 0.3764 0.58733 0.0
H2792 H 0.6512 0.35028 0.59953 0.0
C2793 C 0.62234 0.37581 0.56016 0.0
C2794 C 0.42296 0.37354 0.80925 0.0
C2795 C 0.43704 0.37744 0.82673 0.0
H2796 H 0.39659 0.38497 0.78999 0.0
C2797 C 0.43737 0.39818 0.83601 0.0
H2798 H 0.42241 0.35774 0.80168 0.0
C2799 C 0.42244 0.41402 0.82912 0.0
C2800 C 0.40696 0.40923 0.813 0.0
H2801 H 0.44784 0.40157 0.84964 0.0
H2802 H 0.42191 0.42934 0.83758 0.0
C2803 C 0.4081 0.38915 0.80254 0.0
C2804 C 0.40081 0.18787 0.0853 0.0
C2805 C 0.42155 0.1874 0.076 0.0
H2806 H 0.36955 0.17255 0.08701 0.0
C2807 C 0.42536 0.17321 0.0586 0.0
H2808 H 0.39749 0.19843 0.09886 0.0
C2809 C 0.40966 0.15839 0.052 0.0
C2810 C 0.38958 0.15739 0.06249 0.0
H2811 H 0.44116 0.17255 0.05101 0.0
H2812 H 0.41377 0.14679 0.03952 0.0
C2813 C 0.38488 0.17298 0.07852 0.0
C2814 C 0.62746 0.17523 0.30977 0.0
C2815 C 0.61373 0.17168 0.3276 0.0
H2816 H 0.65332 0.16336 0.29011 0.0
C2817 C 0.61349 0.1511 0.3372 0.0
H2818 H 0.62788 0.19088 0.30186 0.0
C2819 C 0.62819 0.13507 0.33023 0.0
C2820 C 0.64332 0.13953 0.3137 0.0
H2821 H 0.60324 0.14794 0.35104 0.0
H2822 H 0.62882 0.11986 0.33889 0.0
C2823 C 0.64209 0.15945 0.30298 0.0
C2824 C 0.62475 0.67264 0.48866 0.0
C2825 C 0.628 0.68618 0.47064 0.0
H2826 H 0.63676 0.64669 0.50809 0.0
C2827 C 0.64836 0.6861 0.46052 0.0
H2828 H 0.60928 0.67245 0.49694 0.0
C2829 C 0.66439 0.67125 0.46717 0.0
C2830 C 0.66012 0.65627 0.48387 0.0
H2831 H 0.65127 0.69617 0.44649 0.0
H2832 H 0.67936 0.67032 0.45811 0.0
C2833 C 0.6405 0.65784 0.49509 0.0
C2834 C 0.14374 0.38751 0.74286 0.0
C2835 C 0.14406 0.40794 0.73306 0.0
H2836 H 0.13029 0.35574 0.74317 0.0
C2837 C 0.12816 0.41273 0.71734 0.0
H2838 H 0.15557 0.38331 0.7551 0.0
C2839 C 0.11353 0.39667 0.71027 0.0
C2840 C 0.11462 0.37568 0.71891 0.0
H2841 H 0.12806 0.42833 0.70939 0.0
H2842 H 0.10256 0.4002 0.69708 0.0
C2843 C 0.12922 0.37168 0.73595 0.0
C2844 C 0.41047 0.89268 0.99542 0.0
C2845 C 0.39049 0.89374 0.98477 0.0
H2846 H 0.44192 0.8785 0.99667 0.0
C2847 C 0.38598 0.87836 0.96847 0.0
H2848 H 0.41443 0.9041 1.00811 0.0
C2849 C 0.40199 0.86357 0.96168 0.0
C2850 C 0.42263 0.86395 0.97121 0.0
H2851 H 0.37071 0.87884 0.95987 0.0
H2852 H 0.39877 0.85309 0.94802 0.0
C2853 C 0.42624 0.87797 0.9888 0.0
C2854 C 0.91979 0.17643 0.23642 0.0
C2855 C 0.93453 0.17259 0.21948 0.0
H2856 H 0.8934 0.16456 0.25534 0.0
C2857 C 0.93582 0.15163 0.21078 0.0
H2858 H 0.91857 0.19234 0.2437 0.0
C2859 C 0.92124 0.13545 0.21768 0.0
C2860 C 0.90522 0.14009 0.2333 0.0
H2861 H 0.9469 0.14821 0.19765 0.0
H2862 H 0.9215 0.11987 0.20968 0.0
C2863 C 0.90533 0.16048 0.24317 0.0
C2864 C 0.58162 0.16297 0.87616 0.0
C2865 C 0.56572 0.15816 0.89185 0.0
H2866 H 0.60205 0.15045 0.85072 0.0
C2867 C 0.55566 0.13787 0.89124 0.0
H2868 H 0.58978 0.17848 0.87634 0.0
C2869 C 0.5625 0.12212 0.87663 0.0
C2870 C 0.57977 0.12606 0.86229 0.0
H2871 H 0.5433 0.13368 0.90294 0.0
H2872 H 0.5551 0.10624 0.87749 0.0
C2873 C 0.58866 0.14697 0.86147 0.0
C2874 C 0.63477 0.33018 0.12625 0.0
C2875 C 0.63917 0.31366 0.14139 0.0
H2876 H 0.64777 0.35087 0.10128 0.0
C2877 C 0.65898 0.30273 0.14008 0.0
H2878 H 0.61965 0.33901 0.12698 0.0
C2879 C 0.67476 0.30931 0.12537 0.0
C2880 C 0.67134 0.32718 0.11167 0.0
H2881 H 0.66282 0.28987 0.15134 0.0
H2882 H 0.69035 0.30127 0.12575 0.0
C2883 C 0.65082 0.33697 0.11149 0.0
C2884 C 0.46891 0.38598 0.37846 0.0
C2885 C 0.48461 0.39091 0.39434 0.0
H2886 H 0.44858 0.39831 0.35284 0.0
C2887 C 0.49432 0.41139 0.39397 0.0
H2888 H 0.46102 0.37033 0.37841 0.0
C2889 C 0.48734 0.42713 0.37941 0.0
C2890 C 0.47031 0.42299 0.36483 0.0
H2891 H 0.50654 0.41569 0.40579 0.0
H2892 H 0.4945 0.4431 0.38043 0.0
C2893 C 0.46177 0.40195 0.36379 0.0
C2894 C 0.37387 0.23793 0.62588 0.0
C2895 C 0.37726 0.21999 0.61226 0.0
H2896 H 0.38575 0.25738 0.65189 0.0
C2897 C 0.39773 0.21008 0.61226 0.0
H2898 H 0.35832 0.24607 0.62613 0.0
C2899 C 0.41373 0.21684 0.62709 0.0
C2900 C 0.40933 0.23344 0.64215 0.0
H2901 H 0.40075 0.19612 0.60212 0.0
H2902 H 0.42879 0.20793 0.62796 0.0
C2903 C 0.38959 0.24447 0.64068 0.0
C2904 C 0.58015 0.88445 0.17332 0.0
C2905 C 0.56377 0.88889 0.15801 0.0
H2906 H 0.60064 0.89738 0.19851 0.0
C2907 C 0.55291 0.90874 0.15919 0.0
H2908 H 0.58891 0.8693 0.17271 0.0
C2909 C 0.55943 0.92451 0.17394 0.0
C2910 C 0.57715 0.92102 0.18783 0.0
H2911 H 0.54016 0.91261 0.1478 0.0
H2912 H 0.55146 0.94011 0.17346 0.0
C2913 C 0.58686 0.90048 0.18813 0.0
C2914 C 0.89732 0.33742 0.43536 0.0
C2915 C 0.87649 0.32829 0.43485 0.0
H2916 H 0.92866 0.3388 0.42017 0.0
C2917 C 0.87256 0.31094 0.42062 0.0
H2918 H 0.90078 0.35088 0.44602 0.0
C2919 C 0.88823 0.30418 0.40586 0.0
C2920 C 0.90844 0.31444 0.40497 0.0
H2921 H 0.85675 0.30336 0.41998 0.0
H2922 H 0.88405 0.29168 0.39431 0.0
C2923 C 0.91322 0.33049 0.42052 0.0
C2924 C 0.49601 0.64001 0.65863 0.0
C2925 C 0.48525 0.65991 0.65747 0.0
H2926 H 0.49736 0.60864 0.6729 0.0
C2927 C 0.46891 0.66442 0.67279 0.0
H2928 H 0.50874 0.63608 0.64723 0.0
C2929 C 0.46215 0.64843 0.68761 0.0
C2930 C 0.47176 0.62784 0.68729 0.0
H2931 H 0.46022 0.67962 0.67219 0.0
H2932 H 0.44841 0.6516 0.69801 0.0
C2933 C 0.48944 0.62427 0.67338 0.0
C2934 C 0.16082 0.24555 0.9052 0.0
C2935 C 0.14059 0.23533 0.90438 0.0
H2936 H 0.1923 0.24643 0.91934 0.0
C2937 C 0.13576 0.21944 0.92008 0.0
H2938 H 0.16503 0.25793 0.89354 0.0
C2939 C 0.15164 0.21261 0.935 0.0
C2940 C 0.17248 0.22168 0.93441 0.0
H2941 H 0.1203 0.21117 0.9198 0.0
H2942 H 0.14812 0.19927 0.94578 0.0
C2943 C 0.17647 0.23889 0.92003 0.0
C2944 C 0.87891 0.07927 0.662 0.0
C2945 C 0.89463 0.06331 0.65744 0.0
H2946 H 0.8533 0.09936 0.64926 0.0
C2947 C 0.89392 0.05287 0.63735 0.0
H2948 H 0.87912 0.08771 0.67734 0.0
C2949 C 0.87918 0.05938 0.62155 0.0
C2950 C 0.86479 0.07666 0.62525 0.0
H2951 H 0.9056 0.04043 0.63334 0.0
H2952 H 0.87996 0.05168 0.60582 0.0
C2953 C 0.86409 0.08595 0.64597 0.0
C2954 C 0.36394 0.96247 0.90137 0.0
C2955 C 0.36459 0.97168 0.92213 0.0
H2956 H 0.37904 0.96087 0.87003 0.0
C2957 C 0.37894 0.98898 0.92592 0.0
H2958 H 0.35319 0.94905 0.898 0.0
C2959 C 0.39369 0.9956 0.91018 0.0
C2960 C 0.39446 0.98523 0.89006 0.0
H2961 H 0.37967 0.99663 0.94168 0.0
H2962 H 0.40533 1.00806 0.91426 0.0
C2963 C 0.37879 0.96925 0.8854 0.0
C2964 C 0.81044 0.12519 0.1738 0.0
C2965 C 0.82815 0.1113 0.17026 0.0
H2966 H 0.79116 0.15136 0.162 0.0
C2967 C 0.83783 0.11105 0.14971 0.0
H2968 H 0.80248 0.12563 0.18941 0.0
C2969 C 0.8311 0.1259 0.13373 0.0
C2970 C 0.81473 0.14119 0.13822 0.0
H2971 H 0.8516 0.10068 0.14657 0.0
H2972 H 0.83984 0.12654 0.11857 0.0
C2973 C 0.8039 0.13997 0.15808 0.0
C2974 C 0.67289 0.5774 0.38489 0.0
C2975 C 0.65709 0.56168 0.38998 0.0
H2976 H 0.69874 0.59763 0.39692 0.0
C2977 C 0.65801 0.55161 0.41026 0.0
H2978 H 0.67254 0.58555 0.36939 0.0
C2979 C 0.673 0.55836 0.42574 0.0
C2980 C 0.68745 0.57546 0.4215 0.0
H2981 H 0.64625 0.53938 0.41468 0.0
H2982 H 0.6723 0.55111 0.44169 0.0
C2983 C 0.68797 0.5843 0.40059 0.0
C2984 C 0.73783 0.91756 0.67622 0.0
C2985 C 0.72093 0.93232 0.67222 0.0
H2986 H 0.7566 0.89095 0.66463 0.0
C2987 C 0.71221 0.93344 0.65127 0.0
H2988 H 0.74513 0.91647 0.69212 0.0
C2989 C 0.71902 0.91867 0.63526 0.0
C2990 C 0.73457 0.90262 0.64006 0.0
H2991 H 0.69913 0.94455 0.64774 0.0
H2992 H 0.711 0.9188 0.61969 0.0
C2993 C 0.74448 0.9029 0.66043 0.0
C2994 C 0.17442 0.97046 0.66391 0.0
C2995 C 0.15877 0.98634 0.65884 0.0
H2996 H 0.2 0.94997 0.65184 0.0
C2997 C 0.15978 0.99641 0.63857 0.0
H2998 H 0.174 0.96231 0.6794 0.0
C2999 C 0.17467 0.98952 0.62306 0.0
C3000 C 0.18893 0.97227 0.62728 0.0
H3001 H 0.14815 1.00877 0.63416 0.0
H3002 H 0.17401 0.99677 0.60711 0.0
C3003 C 0.18938 0.96341 0.64819 0.0
C3004 C 0.82964 0.42179 0.41333 0.0
C3005 C 0.81357 0.40619 0.40874 0.0
H3006 H 0.84998 0.44721 0.40061 0.0
C3007 C 0.80317 0.40695 0.38862 0.0
H3008 H 0.83805 0.42154 0.4287 0.0
C3009 C 0.80984 0.4216 0.37283 0.0
C3010 C 0.82723 0.43585 0.37656 0.0
H3011 H 0.79064 0.39535 0.3846 0.0
H3012 H 0.80219 0.42083 0.35707 0.0
C3013 C 0.83648 0.43653 0.3973 0.0
C3014 C 0.21258 0.11322 0.89748 0.0
C3015 C 0.22192 0.11382 0.87678 0.0
H3016 H 0.21085 0.12833 0.92881 0.0
C3017 C 0.23929 0.1281 0.87308 0.0
H3018 H 0.1991 0.10251 0.90077 0.0
C3019 C 0.24587 0.14283 0.88885 0.0
C3020 C 0.23539 0.14365 0.90891 0.0
H3021 H 0.24702 0.12881 0.85736 0.0
H3022 H 0.2584 0.15443 0.88483 0.0
C3023 C 0.21932 0.12804 0.91348 0.0
C3024 C 0.64735 0.86191 0.08568 0.0
C3025 C 0.62627 0.86228 0.07718 0.0
H3026 H 0.6785 0.87756 0.08644 0.0
C3027 C 0.62164 0.87672 0.0602 0.0
H3028 H 0.65133 0.85114 0.09891 0.0
C3029 C 0.63691 0.89183 0.05323 0.0
C3030 C 0.65739 0.89288 0.06294 0.0
H3031 H 0.60556 0.8773 0.05319 0.0
H3032 H 0.63219 0.90355 0.04109 0.0
C3033 C 0.66285 0.87711 0.07855 0.0
C3034 C 0.40509 0.88832 0.30515 0.0
C3035 C 0.4047 0.90855 0.31535 0.0
H3036 H 0.41848 0.85655 0.30436 0.0
C3037 C 0.42043 0.91302 0.33134 0.0
H3038 H 0.39339 0.88439 0.2927 0.0
C3039 C 0.43494 0.8968 0.33825 0.0
C3040 C 0.4339 0.87598 0.32919 0.0
H3041 H 0.42046 0.92846 0.3396 0.0
H3042 H 0.44576 0.90006 0.35165 0.0
C3043 C 0.4195 0.87234 0.31191 0.0
C3044 C 0.41205 0.65737 0.55274 0.0
C3045 C 0.39158 0.65652 0.56246 0.0
H3046 H 0.44352 0.67165 0.55264 0.0
C3047 C 0.38625 0.6724 0.578 0.0
H3048 H 0.41667 0.64556 0.54065 0.0
C3049 C 0.40186 0.68751 0.58506 0.0
C3050 C 0.42294 0.68693 0.57657 0.0
H3051 H 0.3706 0.67211 0.58589 0.0
H3052 H 0.39797 0.69837 0.59824 0.0
C3053 C 0.42745 0.67239 0.55964 0.0
C3054 C 0.61346 0.65155 0.83774 0.0
C3055 C 0.61387 0.67217 0.82821 0.0
H3056 H 0.62863 0.62024 0.83949 0.0
C3057 C 0.62782 0.67572 0.81056 0.0
H3058 H 0.60303 0.64838 0.85145 0.0
C3059 C 0.64245 0.6599 0.80387 0.0
C3060 C 0.64349 0.63993 0.81451 0.0
H3061 H 0.62838 0.69138 0.80269 0.0
H3062 H 0.65382 0.66381 0.79111 0.0
C3063 C 0.62817 0.63549 0.83088 0.0
C3064 C 0.62492 0.17563 0.98861 0.0
C3065 C 0.62857 0.18919 0.97069 0.0
H3066 H 0.63639 0.14941 1.00804 0.0
C3067 C 0.64907 0.18895 0.96085 0.0
H3068 H 0.60929 0.17548 0.99656 0.0
C3069 C 0.66485 0.17392 0.96766 0.0
C3070 C 0.6602 0.15888 0.9842 0.0
H3071 H 0.65223 0.19897 0.94684 0.0
H3072 H 0.67992 0.17286 0.95878 0.0
C3073 C 0.64044 0.16062 0.99519 0.0
C3074 C 0.14232 0.88898 0.24474 0.0
C3075 C 0.14333 0.90891 0.23403 0.0
H3076 H 0.12834 0.85745 0.24597 0.0
C3077 C 0.12804 0.91325 0.2176 0.0
H3078 H 0.15367 0.88515 0.25754 0.0
C3079 C 0.1134 0.89711 0.21074 0.0
C3080 C 0.11386 0.87652 0.22033 0.0
H3081 H 0.12849 0.92847 0.20894 0.0
H3082 H 0.10302 0.90019 0.19697 0.0
C3083 C 0.12775 0.87308 0.23806 0.0
C3084 C 0.38501 0.37665 0.46746 0.0
C3085 C 0.38929 0.39171 0.4841 0.0
H3086 H 0.39816 0.35173 0.4468 0.0
C3087 C 0.40897 0.39029 0.49524 0.0
H3088 H 0.36999 0.37748 0.45847 0.0
C3089 C 0.42477 0.37554 0.48878 0.0
C3090 C 0.42149 0.36194 0.47081 0.0
H3091 H 0.41272 0.4015 0.50818 0.0
H3092 H 0.44027 0.37585 0.49699 0.0
C3093 C 0.40108 0.36187 0.46078 0.0
C3094 C 0.9052 0.65958 0.74374 0.0
C3095 C 0.90486 0.63941 0.73343 0.0
H3096 H 0.91848 0.69141 0.74464 0.0
C3097 C 0.92055 0.63508 0.7174 0.0
H3098 H 0.89352 0.66341 0.75623 0.0
C3099 C 0.93498 0.65139 0.71052 0.0
C3100 C 0.93389 0.67216 0.71968 0.0
H3101 H 0.9206 0.61967 0.70906 0.0
H3102 H 0.94575 0.64825 0.69706 0.0
C3103 C 0.91955 0.67565 0.73703 0.0
C3104 C 0.5547 0.63687 0.39421 0.0
C3105 C 0.56445 0.65733 0.39445 0.0
H3106 H 0.55436 0.60512 0.38077 0.0
C3107 C 0.58004 0.66219 0.37846 0.0
H3108 H 0.54256 0.63263 0.40612 0.0
C3109 C 0.58705 0.64616 0.36379 0.0
C3110 C 0.57847 0.62514 0.36494 0.0
H3111 H 0.58795 0.67782 0.3783 0.0
H3112 H 0.60015 0.64976 0.35272 0.0
C3113 C 0.56155 0.62108 0.37965 0.0
C3114 C 0.65021 0.83646 0.61153 0.0
C3115 C 0.67059 0.82638 0.61161 0.0
H3116 H 0.61916 0.83897 0.62718 0.0
C3117 C 0.67384 0.80849 0.62532 0.0
H3118 H 0.64731 0.85038 0.6013 0.0
C3119 C 0.65805 0.80216 0.64013 0.0
C3120 C 0.63841 0.81337 0.64153 0.0
H3121 H 0.68931 0.80023 0.62563 0.0
H3122 H 0.66177 0.78926 0.6514 0.0
C3123 C 0.63416 0.82993 0.62639 0.0
C3124 C 0.46341 0.90157 0.86346 0.0
C3125 C 0.4725 0.92239 0.86409 0.0
H3126 H 0.46193 0.87024 0.8786 0.0
C3127 C 0.48976 0.92632 0.87845 0.0
H3128 H 0.45002 0.8981 0.85269 0.0
C3129 C 0.49643 0.91064 0.89324 0.0
C3130 C 0.48616 0.89045 0.89403 0.0
H3131 H 0.49732 0.94212 0.87918 0.0
H3132 H 0.50883 0.91482 0.90491 0.0
C3133 C 0.47024 0.88566 0.87834 0.0
C3134 C 0.37481 0.73885 0.12564 0.0
C3135 C 0.37841 0.72116 0.11177 0.0
H3136 H 0.38651 0.75811 0.15187 0.0
C3137 C 0.39898 0.71148 0.1116 0.0
H3138 H 0.35918 0.74681 0.12602 0.0
C3139 C 0.41492 0.71821 0.12652 0.0
C3140 C 0.41035 0.73456 0.1418 0.0
H3141 H 0.40216 0.69772 0.10124 0.0
H3142 H 0.43009 0.70947 0.12723 0.0
C3143 C 0.39048 0.74538 0.1405 0.0
C3144 C 0.5803 0.38487 0.67302 0.0
C3145 C 0.56412 0.38949 0.65756 0.0
H3146 H 0.60074 0.39756 0.69838 0.0
C3147 C 0.55358 0.40952 0.65856 0.0
H3148 H 0.58882 0.36957 0.67255 0.0
C3149 C 0.56021 0.42524 0.67332 0.0
C3150 C 0.57773 0.42153 0.6874 0.0
H3151 H 0.54098 0.41356 0.64705 0.0
H3152 H 0.55245 0.44096 0.67273 0.0
C3153 C 0.58712 0.40084 0.68785 0.0
C3154 C 0.89788 0.83887 0.93654 0.0
C3155 C 0.87729 0.82919 0.93641 0.0
H3156 H 0.92903 0.84072 0.92098 0.0
C3157 C 0.87372 0.81136 0.92269 0.0
H3158 H 0.90104 0.85273 0.94678 0.0
C3159 C 0.88942 0.8047 0.90793 0.0
C3160 C 0.90932 0.8155 0.90659 0.0
H3161 H 0.85809 0.8034 0.92234 0.0
H3162 H 0.88547 0.79187 0.89666 0.0
C3163 C 0.91385 0.83199 0.92173 0.0
C3164 C 0.46173 0.14746 0.18602 0.0
C3165 C 0.47093 0.12668 0.18559 0.0
H3166 H 0.4602 0.17868 0.17061 0.0
C3167 C 0.48831 0.12275 0.17139 0.0
H3168 H 0.44824 0.15092 0.19665 0.0
C3169 C 0.49496 0.13834 0.15652 0.0
C3170 C 0.4846 0.15846 0.15552 0.0
H3171 H 0.49593 0.10697 0.17082 0.0
H3172 H 0.50743 0.13414 0.14494 0.0
C3173 C 0.46859 0.16331 0.17108 0.0
C3174 C 0.17462 0.73832 0.4228 0.0
C3175 C 0.17133 0.72033 0.43637 0.0
H3176 H 0.16257 0.75778 0.39688 0.0
C3177 C 0.15092 0.71029 0.43639 0.0
H3178 H 0.19012 0.74653 0.42253 0.0
C3179 C 0.13486 0.717 0.42161 0.0
C3180 C 0.13913 0.73367 0.40659 0.0
H3181 H 0.14799 0.6963 0.44651 0.0
H3182 H 0.11983 0.70801 0.42076 0.0
C3183 C 0.15882 0.74481 0.40806 0.0
C3184 C 0.89181 0.55306 0.13854 0.0
C3185 C 0.89258 0.56348 0.15865 0.0
H3186 H 0.87797 0.55211 0.10696 0.0
C3187 C 0.87703 0.5796 0.16318 0.0
H3188 H 0.90337 0.5405 0.13456 0.0
C3189 C 0.86234 0.58647 0.14712 0.0
C3190 C 0.86302 0.57721 0.12638 0.0
H3191 H 0.87728 0.58802 0.17854 0.0
H3192 H 0.8517 0.6 0.15039 0.0
C3193 C 0.87721 0.55978 0.1227 0.0
C3194 C 0.36076 0.46336 0.40072 0.0
C3195 C 0.36124 0.47228 0.4216 0.0
H3196 H 0.37616 0.46211 0.36952 0.0
C3197 C 0.37556 0.4895 0.42578 0.0
H3198 H 0.35008 0.44994 0.39711 0.0
C3199 C 0.39049 0.49629 0.41027 0.0
C3200 C 0.39146 0.48616 0.39002 0.0
H3201 H 0.37623 0.4968 0.44171 0.0
H3202 H 0.40216 0.50862 0.41465 0.0
C3203 C 0.37576 0.47032 0.38499 0.0
C3204 C 0.83717 0.60976 0.65006 0.0
C3205 C 0.82752 0.61008 0.67063 0.0
H3206 H 0.83907 0.62509 0.61884 0.0
C3207 C 0.80975 0.6239 0.67412 0.0
H3208 H 0.85099 0.59944 0.64696 0.0
C3209 C 0.80311 0.63856 0.65833 0.0
C3210 C 0.81391 0.63973 0.63845 0.0
H3211 H 0.80183 0.62439 0.68975 0.0
H3212 H 0.79032 0.6499 0.66221 0.0
C3213 C 0.83034 0.62448 0.63401 0.0
C3214 C 0.67289 0.06047 0.9258 0.0
C3215 C 0.68753 0.0774 0.92154 0.0
H3216 H 0.64636 0.04135 0.9145 0.0
C3217 C 0.68859 0.08579 0.90047 0.0
H3218 H 0.67179 0.05355 0.94187 0.0
C3219 C 0.67386 0.07863 0.88455 0.0
C3220 C 0.65788 0.06307 0.88959 0.0
H3221 H 0.69954 0.09897 0.89677 0.0
H3222 H 0.67392 0.08644 0.86888 0.0
C3223 C 0.65826 0.05345 0.91011 0.0
C3224 C 0.71153 0.43459 0.15177 0.0
C3225 C 0.72006 0.43347 0.1728 0.0
H3226 H 0.71076 0.42008 0.12011 0.0
C3227 C 0.73706 0.41884 0.17689 0.0
H3228 H 0.69837 0.44558 0.14816 0.0
C3229 C 0.74402 0.40432 0.1611 0.0
C3230 C 0.73431 0.40404 0.14063 0.0
H3231 H 0.74422 0.41776 0.19285 0.0
H3232 H 0.75621 0.39247 0.16536 0.0
C3233 C 0.71864 0.41996 0.13576 0.0
C3234 C 0.17085 0.46952 0.1633 0.0
C3235 C 0.15511 0.48546 0.15876 0.0
H3236 H 0.19642 0.44943 0.15051 0.0
C3237 C 0.15575 0.49588 0.13866 0.0
H3238 H 0.1707 0.4611 0.17865 0.0
C3239 C 0.17043 0.48935 0.12283 0.0
C3240 C 0.18483 0.47208 0.12651 0.0
H3241 H 0.14405 0.50831 0.13467 0.0
H3242 H 0.16959 0.49702 0.10709 0.0
C3243 C 0.18562 0.46283 0.14724 0.0
C3244 C 0.80506 0.90607 0.88696 0.0
C3245 C 0.81474 0.90598 0.90745 0.0
H3246 H 0.80497 0.91915 0.85506 0.0
C3247 C 0.83045 0.92191 0.91218 0.0
H3248 H 0.79282 0.89422 0.88281 0.0
C3249 C 0.83764 0.93635 0.89602 0.0
C3250 C 0.82913 0.93502 0.87499 0.0
H3251 H 0.83831 0.92218 0.92783 0.0
H3252 H 0.85083 0.94735 0.89953 0.0
C3253 C 0.8121 0.9204 0.87103 0.0
C3254 C 0.21925 0.62808 0.41217 0.0
C3255 C 0.23482 0.64411 0.40733 0.0
H3256 H 0.19912 0.60235 0.39971 0.0
C3257 C 0.24452 0.64394 0.38686 0.0
H3258 H 0.21138 0.62787 0.42782 0.0
C3259 C 0.23764 0.6294 0.37104 0.0
C3260 C 0.22073 0.61467 0.3751 0.0
H3261 H 0.25665 0.65587 0.38263 0.0
H3262 H 0.24478 0.63058 0.35508 0.0
C3263 C 0.21221 0.61344 0.39613 0.0
loop_
_geom_bond_atom_site_label_1
_geom_bond_atom_site_label_2
_geom_bond_distance
_geom_bond_site_symmetry_2
_ccdc_geom_bond_type
O0 Cd1 2.223 . S
O0 C8 1.315 . S
Cd1 O0 2.223 . S
Cd1 O4 2.297 . S
Cd1 O5 2.439 . S
Cd1 O11 2.240 . S
Cd2 O3 2.240 . S
Cd2 O10 2.223 . S
Cd2 O12 2.297 . S
Cd2 O13 2.439 . S
O3 Cd2 2.240 . S
O3 C8 1.279 . S
O4 Cd1 2.297 . S
O4 C6 1.247 . S
O5 Cd1 2.439 . S
O5 C6 1.208 . S
C6 O4 1.247 . S
C6 O5 1.208 . S
C7 O12 1.247 . S
C7 O13 1.208 . S
C8 O0 1.315 . S
C8 O3 1.279 . S
C9 O10 1.315 . S
C9 O11 1.279 . S
O10 Cd2 2.223 . S
O10 C9 1.315 . S
O11 Cd1 2.240 . S
O11 C9 1.279 . S
O12 Cd2 2.297 . S
O12 C7 1.247 . S
O13 Cd2 2.439 . S
O13 C7 1.208 . S
O14 Cd15 2.223 . S
O14 C22 1.315 . S
Cd15 O14 2.223 . S
Cd15 O18 2.297 . S
Cd15 O19 2.439 . S
Cd15 O25 2.240 . S
Cd16 O17 2.240 . S
Cd16 O24 2.223 . S
Cd16 O26 2.297 . S
Cd16 O27 2.439 . S
O17 Cd16 2.240 . S
O17 C22 1.279 . S
O18 Cd15 2.297 . S
O18 C20 1.247 . S
O19 Cd15 2.439 . S
O19 C20 1.208 . S
C20 O18 1.247 . S
C20 O19 1.208 . S
C21 O26 1.247 . S
C21 O27 1.208 . S
C22 O14 1.315 . S
C22 O17 1.279 . S
C23 O24 1.315 . S
C23 O25 1.279 . S
O24 Cd16 2.223 . S
O24 C23 1.315 . S
O25 Cd15 2.240 . S
O25 C23 1.279 . S
O26 Cd16 2.297 . S
O26 C21 1.247 . S
O27 Cd16 2.439 . S
O27 C21 1.208 . S
O28 Cd29 2.223 . S
O28 C36 1.315 . S
Cd29 O28 2.223 . S
Cd29 O32 2.297 . S
Cd29 O33 2.439 . S
Cd29 O39 2.240 . S
Cd30 O31 2.240 . S
Cd30 O38 2.223 . S
Cd30 O40 2.297 . S
Cd30 O41 2.439 . S
O31 Cd30 2.240 . S
O31 C36 1.279 . S
O32 Cd29 2.297 . S
O32 C34 1.247 . S
O33 Cd29 2.439 . S
O33 C34 1.208 . S
C34 O32 1.247 . S
C34 O33 1.208 . S
C35 O40 1.247 . S
C35 O41 1.208 . S
C36 O28 1.315 . S
C36 O31 1.279 . S
C37 O38 1.315 . S
C37 O39 1.279 . S
O38 Cd30 2.223 . S
O38 C37 1.315 . S
O39 Cd29 2.240 . S
O39 C37 1.279 . S
O40 Cd30 2.297 . S
O40 C35 1.247 . S
O41 Cd30 2.439 . S
O41 C35 1.208 . S
O42 Cd43 2.223 . S
O42 C50 1.315 . S
Cd43 O42 2.223 . S
Cd43 O46 2.297 . S
Cd43 O47 2.439 . S
Cd43 O53 2.240 . S
Cd44 O45 2.240 . S
Cd44 O52 2.223 . S
Cd44 O54 2.297 . S
Cd44 O55 2.439 . S
O45 Cd44 2.240 . S
O45 C50 1.279 . S
O46 Cd43 2.297 . S
O46 C48 1.247 . S
O47 Cd43 2.439 . S
O47 C48 1.208 . S
C48 O46 1.247 . S
C48 O47 1.208 . S
C49 O54 1.247 . S
C49 O55 1.208 . S
C50 O42 1.315 . S
C50 O45 1.279 . S
C51 O52 1.315 . S
C51 O53 1.279 . S
O52 Cd44 2.223 . S
O52 C51 1.315 . S
O53 Cd43 2.240 . S
O53 C51 1.279 . S
O54 Cd44 2.297 . S
O54 C49 1.247 . S
O55 Cd44 2.439 . S
O55 C49 1.208 . S
O56 Cd57 2.223 . S
O56 C64 1.315 . S
Cd57 O56 2.223 . S
Cd57 O60 2.297 . S
Cd57 O61 2.439 . S
Cd57 O67 2.240 . S
Cd58 O59 2.240 . S
Cd58 O66 2.223 . S
Cd58 O68 2.297 . S
Cd58 O69 2.439 . S
O59 Cd58 2.240 . S
O59 C64 1.279 . S
O60 Cd57 2.297 . S
O60 C62 1.247 . S
O61 Cd57 2.439 . S
O61 C62 1.208 . S
C62 O60 1.247 . S
C62 O61 1.208 . S
C63 O68 1.247 . S
C63 O69 1.208 . S
C64 O56 1.315 . S
C64 O59 1.279 . S
C65 O66 1.315 . S
C65 O67 1.279 . S
O66 Cd58 2.223 . S
O66 C65 1.315 . S
O67 Cd57 2.240 . S
O67 C65 1.279 . S
O68 Cd58 2.297 . S
O68 C63 1.247 . S
O69 Cd58 2.439 . S
O69 C63 1.208 . S
O70 Cd71 2.223 . S
O70 C78 1.315 . S
Cd71 O70 2.223 . S
Cd71 O74 2.297 . S
Cd71 O75 2.439 . S
Cd71 O81 2.240 . S
Cd72 O73 2.240 . S
Cd72 O80 2.223 . S
Cd72 O82 2.297 . S
Cd72 O83 2.439 . S
O73 Cd72 2.240 . S
O73 C78 1.279 . S
O74 Cd71 2.297 . S
O74 C76 1.247 . S
O75 Cd71 2.439 . S
O75 C76 1.208 . S
C76 O74 1.247 . S
C76 O75 1.208 . S
C77 O82 1.247 . S
C77 O83 1.208 . S
C78 O70 1.315 . S
C78 O73 1.279 . S
C79 O80 1.315 . S
C79 O81 1.279 . S
O80 Cd72 2.223 . S
O80 C79 1.315 . S
O81 Cd71 2.240 . S
O81 C79 1.279 . S
O82 Cd72 2.297 . S
O82 C77 1.247 . S
O83 Cd72 2.439 . S
O83 C77 1.208 . S
O84 Cd85 2.223 . S
O84 C92 1.315 . S
Cd85 O84 2.223 . S
Cd85 O88 2.297 . S
Cd85 O89 2.439 . S
Cd85 O95 2.240 . S
Cd86 O87 2.240 . S
Cd86 O94 2.223 . S
Cd86 O96 2.297 . S
Cd86 O97 2.439 . S
O87 Cd86 2.240 . S
O87 C92 1.279 . S
O88 Cd85 2.297 . S
O88 C90 1.247 . S
O89 Cd85 2.439 . S
O89 C90 1.208 . S
C90 O88 1.247 . S
C90 O89 1.208 . S
C91 O96 1.247 . S
C91 O97 1.208 . S
C92 O84 1.315 . S
C92 O87 1.279 . S
C93 O94 1.315 . S
C93 O95 1.279 . S
O94 Cd86 2.223 . S
O94 C93 1.315 . S
O95 Cd85 2.240 . S
O95 C93 1.279 . S
O96 Cd86 2.297 . S
O96 C91 1.247 . S
O97 Cd86 2.439 . S
O97 C91 1.208 . S
O98 Cd99 2.223 . S
O98 C106 1.315 . S
Cd99 O98 2.223 . S
Cd99 O102 2.297 . S
Cd99 O103 2.439 . S
Cd99 O109 2.240 . S
Cd100 O101 2.240 . S
Cd100 O108 2.223 . S
Cd100 O110 2.297 . S
Cd100 O111 2.439 . S
O101 Cd100 2.240 . S
O101 C106 1.279 . S
O102 Cd99 2.297 . S
O102 C104 1.247 . S
O103 Cd99 2.439 . S
O103 C104 1.208 . S
C104 O102 1.247 . S
C104 O103 1.208 . S
C105 O110 1.247 . S
C105 O111 1.208 . S
C106 O98 1.315 . S
C106 O101 1.279 . S
C107 O108 1.315 . S
C107 O109 1.279 . S
O108 Cd100 2.223 . S
O108 C107 1.315 . S
O109 Cd99 2.240 . S
O109 C107 1.279 . S
O110 Cd100 2.297 . S
O110 C105 1.247 . S
O111 Cd100 2.439 . S
O111 C105 1.208 . S
O112 Cd113 2.223 . S
O112 C120 1.315 . S
Cd113 O112 2.223 . S
Cd113 O116 2.297 . S
Cd113 O117 2.439 . S
Cd113 O123 2.240 . S
Cd114 O115 2.240 . S
Cd114 O122 2.223 . S
Cd114 O124 2.297 . S
Cd114 O125 2.439 . S
O115 Cd114 2.240 . S
O115 C120 1.279 . S
O116 Cd113 2.297 . S
O116 C118 1.247 . S
O117 Cd113 2.439 . S
O117 C118 1.208 . S
C118 O116 1.247 . S
C118 O117 1.208 . S
C119 O124 1.247 . S
C119 O125 1.208 . S
C120 O112 1.315 . S
C120 O115 1.279 . S
C121 O122 1.315 . S
C121 O123 1.279 . S
O122 Cd114 2.223 . S
O122 C121 1.315 . S
O123 Cd113 2.240 . S
O123 C121 1.279 . S
O124 Cd114 2.297 . S
O124 C119 1.247 . S
O125 Cd114 2.439 . S
O125 C119 1.208 . S
O126 Cd127 2.223 . S
O126 C134 1.315 . S
Cd127 O126 2.223 . S
Cd127 O130 2.297 . S
Cd127 O131 2.439 . S
Cd127 O137 2.240 . S
Cd128 O129 2.240 . S
Cd128 O136 2.223 . S
Cd128 O138 2.297 . S
Cd128 O139 2.439 . S
O129 Cd128 2.240 . S
O129 C134 1.279 . S
O130 Cd127 2.297 . S
O130 C132 1.247 . S
O131 Cd127 2.439 . S
O131 C132 1.208 . S
C132 O130 1.247 . S
C132 O131 1.208 . S
C133 O138 1.247 . S
C133 O139 1.208 . S
C134 O126 1.315 . S
C134 O129 1.279 . S
C135 O136 1.315 . S
C135 O137 1.279 . S
O136 Cd128 2.223 . S
O136 C135 1.315 . S
O137 Cd127 2.240 . S
O137 C135 1.279 . S
O138 Cd128 2.297 . S
O138 C133 1.247 . S
O139 Cd128 2.439 . S
O139 C133 1.208 . S
O140 Cd141 2.223 . S
O140 C148 1.315 . S
Cd141 O140 2.223 . S
Cd141 O144 2.297 . S
Cd141 O145 2.439 . S
Cd141 O151 2.240 . S
Cd142 O143 2.240 . S
Cd142 O150 2.223 . S
Cd142 O152 2.297 . S
Cd142 O153 2.439 . S
O143 Cd142 2.240 . S
O143 C148 1.279 . S
O144 Cd141 2.297 . S
O144 C146 1.247 . S
O145 Cd141 2.439 . S
O145 C146 1.208 . S
C146 O144 1.247 . S
C146 O145 1.208 . S
C147 O152 1.247 . S
C147 O153 1.208 . S
C148 O140 1.315 . S
C148 O143 1.279 . S
C149 O150 1.315 . S
C149 O151 1.279 . S
O150 Cd142 2.223 . S
O150 C149 1.315 . S
O151 Cd141 2.240 . S
O151 C149 1.279 . S
O152 Cd142 2.297 . S
O152 C147 1.247 . S
O153 Cd142 2.439 . S
O153 C147 1.208 . S
O154 Cd155 2.223 . S
O154 C162 1.315 . S
Cd155 O154 2.223 . S
Cd155 O158 2.297 . S
Cd155 O159 2.439 . S
Cd155 O165 2.240 . S
Cd156 O157 2.240 . S
Cd156 O164 2.223 . S
Cd156 O166 2.297 . S
Cd156 O167 2.439 . S
O157 Cd156 2.240 . S
O157 C162 1.279 . S
O158 Cd155 2.297 . S
O158 C160 1.247 . S
O159 Cd155 2.439 . S
O159 C160 1.208 . S
C160 O158 1.247 . S
C160 O159 1.208 . S
C161 O166 1.247 . S
C161 O167 1.208 . S
C162 O154 1.315 . S
C162 O157 1.279 . S
C163 O164 1.315 . S
C163 O165 1.279 . S
O164 Cd156 2.223 . S
O164 C163 1.315 . S
O165 Cd155 2.240 . S
O165 C163 1.279 . S
O166 Cd156 2.297 . S
O166 C161 1.247 . S
O167 Cd156 2.439 . S
O167 C161 1.208 . S
O168 Cd169 2.223 . S
O168 C176 1.315 . S
Cd169 O168 2.223 . S
Cd169 O172 2.297 . S
Cd169 O173 2.439 . S
Cd169 O179 2.240 . S
Cd170 O171 2.240 . S
Cd170 O178 2.223 . S
Cd170 O180 2.297 . S
Cd170 O181 2.439 . S
O171 Cd170 2.240 . S
O171 C176 1.279 . S
O172 Cd169 2.297 . S
O172 C174 1.247 . S
O173 Cd169 2.439 . S
O173 C174 1.208 . S
C174 O172 1.247 . S
C174 O173 1.208 . S
C175 O180 1.247 . S
C175 O181 1.208 . S
C176 O168 1.315 . S
C176 O171 1.279 . S
C177 O178 1.315 . S
C177 O179 1.279 . S
O178 Cd170 2.223 . S
O178 C177 1.315 . S
O179 Cd169 2.240 . S
O179 C177 1.279 . S
O180 Cd170 2.297 . S
O180 C175 1.247 . S
O181 Cd170 2.439 . S
O181 C175 1.208 . S
O182 Cd183 2.223 . S
O182 C190 1.315 . S
Cd183 O182 2.223 . S
Cd183 O186 2.297 . S
Cd183 O187 2.439 . S
Cd183 O193 2.240 . S
Cd184 O185 2.240 . S
Cd184 O192 2.223 . S
Cd184 O194 2.297 . S
Cd184 O195 2.439 . S
O185 Cd184 2.240 . S
O185 C190 1.279 . S
O186 Cd183 2.297 . S
O186 C188 1.247 . S
O187 Cd183 2.439 . S
O187 C188 1.208 . S
C188 O186 1.247 . S
C188 O187 1.208 . S
C189 O194 1.247 . S
C189 O195 1.208 . S
C190 O182 1.315 . S
C190 O185 1.279 . S
C191 O192 1.315 . S
C191 O193 1.279 . S
O192 Cd184 2.223 . S
O192 C191 1.315 . S
O193 Cd183 2.240 . S
O193 C191 1.279 . S
O194 Cd184 2.297 . S
O194 C189 1.247 . S
O195 Cd184 2.439 . S
O195 C189 1.208 . S
O196 Cd197 2.223 . S
O196 C204 1.315 . S
Cd197 O196 2.223 . S
Cd197 O200 2.297 . S
Cd197 O201 2.439 . S
Cd197 O207 2.240 . S
Cd198 O199 2.240 . S
Cd198 O206 2.223 . S
Cd198 O208 2.297 . S
Cd198 O209 2.439 . S
O199 Cd198 2.240 . S
O199 C204 1.279 . S
O200 Cd197 2.297 . S
O200 C202 1.247 . S
O201 Cd197 2.439 . S
O201 C202 1.208 . S
C202 O200 1.247 . S
C202 O201 1.208 . S
C203 O208 1.247 . S
C203 O209 1.208 . S
C204 O196 1.315 . S
C204 O199 1.279 . S
C205 O206 1.315 . S
C205 O207 1.279 . S
O206 Cd198 2.223 . S
O206 C205 1.315 . S
O207 Cd197 2.240 . S
O207 C205 1.279 . S
O208 Cd198 2.297 . S
O208 C203 1.247 . S
O209 Cd198 2.439 . S
O209 C203 1.208 . S
O210 Cd211 2.223 . S
O210 C218 1.315 . S
Cd211 O210 2.223 . S
Cd211 O214 2.297 . S
Cd211 O215 2.439 . S
Cd211 O221 2.240 . S
Cd212 O213 2.240 . S
Cd212 O220 2.223 . S
Cd212 O222 2.297 . S
Cd212 O223 2.439 . S
O213 Cd212 2.240 . S
O213 C218 1.279 . S
O214 Cd211 2.297 . S
O214 C216 1.247 . S
O215 Cd211 2.439 . S
O215 C216 1.208 . S
C216 O214 1.247 . S
C216 O215 1.208 . S
C217 O222 1.247 . S
C217 O223 1.208 . S
C218 O210 1.315 . S
C218 O213 1.279 . S
C219 O220 1.315 . S
C219 O221 1.279 . S
O220 Cd212 2.223 . S
O220 C219 1.315 . S
O221 Cd211 2.240 . S
O221 C219 1.279 . S
O222 Cd212 2.297 . S
O222 C217 1.247 . S
O223 Cd212 2.439 . S
O223 C217 1.208 . S
O224 Cd225 2.223 . S
O224 C232 1.315 . S
Cd225 O224 2.223 . S
Cd225 O228 2.297 . S
Cd225 O229 2.439 . S
Cd225 O235 2.240 . S
Cd226 O227 2.240 . S
Cd226 O234 2.223 . S
Cd226 O236 2.297 . S
Cd226 O237 2.439 . S
O227 Cd226 2.240 . S
O227 C232 1.279 . S
O228 Cd225 2.297 . S
O228 C230 1.247 . S
O229 Cd225 2.439 . S
O229 C230 1.208 . S
C230 O228 1.247 . S
C230 O229 1.208 . S
C231 O236 1.247 . S
C231 O237 1.208 . S
C232 O224 1.315 . S
C232 O227 1.279 . S
C233 O234 1.315 . S
C233 O235 1.279 . S
O234 Cd226 2.223 . S
O234 C233 1.315 . S
O235 Cd225 2.240 . S
O235 C233 1.279 . S
O236 Cd226 2.297 . S
O236 C231 1.247 . S
O237 Cd226 2.439 . S
O237 C231 1.208 . S
O238 Cd239 2.223 . S
O238 C246 1.315 . S
Cd239 O238 2.223 . S
Cd239 O242 2.297 . S
Cd239 O243 2.439 . S
Cd239 O249 2.240 . S
Cd240 O241 2.240 . S
Cd240 O248 2.223 . S
Cd240 O250 2.297 . S
Cd240 O251 2.439 . S
O241 Cd240 2.240 . S
O241 C246 1.279 . S
O242 Cd239 2.297 . S
O242 C244 1.247 . S
O243 Cd239 2.439 . S
O243 C244 1.208 . S
C244 O242 1.247 . S
C244 O243 1.208 . S
C245 O250 1.247 . S
C245 O251 1.208 . S
C246 O238 1.315 . S
C246 O241 1.279 . S
C247 O248 1.315 . S
C247 O249 1.279 . S
O248 Cd240 2.223 . S
O248 C247 1.315 . S
O249 Cd239 2.240 . S
O249 C247 1.279 . S
O250 Cd240 2.297 . S
O250 C245 1.247 . S
O251 Cd240 2.439 . S
O251 C245 1.208 . S
O252 Cd253 2.223 . S
O252 C260 1.315 . S
Cd253 O252 2.223 . S
Cd253 O256 2.297 . S
Cd253 O257 2.439 . S
Cd253 O263 2.240 . S
Cd254 O255 2.240 . S
Cd254 O262 2.223 . S
Cd254 O264 2.297 . S
Cd254 O265 2.439 . S
O255 Cd254 2.240 . S
O255 C260 1.279 . S
O256 Cd253 2.297 . S
O256 C258 1.247 . S
O257 Cd253 2.439 . S
O257 C258 1.208 . S
C258 O256 1.247 . S
C258 O257 1.208 . S
C259 O264 1.247 . S
C259 O265 1.208 . S
C260 O252 1.315 . S
C260 O255 1.279 . S
C261 O262 1.315 . S
C261 O263 1.279 . S
O262 Cd254 2.223 . S
O262 C261 1.315 . S
O263 Cd253 2.240 . S
O263 C261 1.279 . S
O264 Cd254 2.297 . S
O264 C259 1.247 . S
O265 Cd254 2.439 . S
O265 C259 1.208 . S
O266 Cd267 2.223 . S
O266 C274 1.315 . S
Cd267 O266 2.223 . S
Cd267 O270 2.297 . S
Cd267 O271 2.439 . S
Cd267 O277 2.240 . S
Cd268 O269 2.240 . S
Cd268 O276 2.223 . S
Cd268 O278 2.297 . S
Cd268 O279 2.439 . S
O269 Cd268 2.240 . S
O269 C274 1.279 . S
O270 Cd267 2.297 . S
O270 C272 1.247 . S
O271 Cd267 2.439 . S
O271 C272 1.208 . S
C272 O270 1.247 . S
C272 O271 1.208 . S
C273 O278 1.247 . S
C273 O279 1.208 . S
C274 O266 1.315 . S
C274 O269 1.279 . S
C275 O276 1.315 . S
C275 O277 1.279 . S
O276 Cd268 2.223 . S
O276 C275 1.315 . S
O277 Cd267 2.240 . S
O277 C275 1.279 . S
O278 Cd268 2.297 . S
O278 C273 1.247 . S
O279 Cd268 2.439 . S
O279 C273 1.208 . S
O280 Cd281 2.223 . S
O280 C288 1.315 . S
Cd281 O280 2.223 . S
Cd281 O284 2.297 . S
Cd281 O285 2.439 . S
Cd281 O291 2.240 . S
Cd282 O283 2.240 . S
Cd282 O290 2.223 . S
Cd282 O292 2.297 . S
Cd282 O293 2.439 . S
O283 Cd282 2.240 . S
O283 C288 1.279 . S
O284 Cd281 2.297 . S
O284 C286 1.247 . S
O285 Cd281 2.439 . S
O285 C286 1.208 . S
C286 O284 1.247 . S
C286 O285 1.208 . S
C287 O292 1.247 . S
C287 O293 1.208 . S
C288 O280 1.315 . S
C288 O283 1.279 . S
C289 O290 1.315 . S
C289 O291 1.279 . S
O290 Cd282 2.223 . S
O290 C289 1.315 . S
O291 Cd281 2.240 . S
O291 C289 1.279 . S
O292 Cd282 2.297 . S
O292 C287 1.247 . S
O293 Cd282 2.439 . S
O293 C287 1.208 . S
O294 Cd295 2.223 . S
O294 C302 1.315 . S
Cd295 O294 2.223 . S
Cd295 O298 2.297 . S
Cd295 O299 2.439 . S
Cd295 O305 2.240 . S
Cd296 O297 2.240 . S
Cd296 O304 2.223 . S
Cd296 O306 2.297 . S
Cd296 O307 2.439 . S
O297 Cd296 2.240 . S
O297 C302 1.279 . S
O298 Cd295 2.297 . S
O298 C300 1.247 . S
O299 Cd295 2.439 . S
O299 C300 1.208 . S
C300 O298 1.247 . S
C300 O299 1.208 . S
C301 O306 1.247 . S
C301 O307 1.208 . S
C302 O294 1.315 . S
C302 O297 1.279 . S
C303 O304 1.315 . S
C303 O305 1.279 . S
O304 Cd296 2.223 . S
O304 C303 1.315 . S
O305 Cd295 2.240 . S
O305 C303 1.279 . S
O306 Cd296 2.297 . S
O306 C301 1.247 . S
O307 Cd296 2.439 . S
O307 C301 1.208 . S
O308 Cd309 2.223 . S
O308 C316 1.315 . S
Cd309 O308 2.223 . S
Cd309 O312 2.297 . S
Cd309 O313 2.439 . S
Cd309 O319 2.240 . S
Cd310 O311 2.240 . S
Cd310 O318 2.223 . S
Cd310 O320 2.297 . S
Cd310 O321 2.439 . S
O311 Cd310 2.240 . S
O311 C316 1.279 . S
O312 Cd309 2.297 . S
O312 C314 1.247 . S
O313 Cd309 2.439 . S
O313 C314 1.208 . S
C314 O312 1.247 . S
C314 O313 1.208 . S
C315 O320 1.247 . S
C315 O321 1.208 . S
C316 O308 1.315 . S
C316 O311 1.279 . S
C317 O318 1.315 . S
C317 O319 1.279 . S
O318 Cd310 2.223 . S
O318 C317 1.315 . S
O319 Cd309 2.240 . S
O319 C317 1.279 . S
O320 Cd310 2.297 . S
O320 C315 1.247 . S
O321 Cd310 2.439 . S
O321 C315 1.208 . S
O322 Cd323 2.223 . S
O322 C330 1.315 . S
Cd323 O322 2.223 . S
Cd323 O326 2.297 . S
Cd323 O327 2.439 . S
Cd323 O333 2.240 . S
Cd324 O325 2.240 . S
Cd324 O332 2.223 . S
Cd324 O334 2.297 . S
Cd324 O335 2.439 . S
O325 Cd324 2.240 . S
O325 C330 1.279 . S
O326 Cd323 2.297 . S
O326 C328 1.247 . S
O327 Cd323 2.439 . S
O327 C328 1.208 . S
C328 O326 1.247 . S
C328 O327 1.208 . S
C329 O334 1.247 . S
C329 O335 1.208 . S
C330 O322 1.315 . S
C330 O325 1.279 . S
C331 O332 1.315 . S
C331 O333 1.279 . S
O332 Cd324 2.223 . S
O332 C331 1.315 . S
O333 Cd323 2.240 . S
O333 C331 1.279 . S
O334 Cd324 2.297 . S
O334 C329 1.247 . S
O335 Cd324 2.439 . S
O335 C329 1.208 . S
O336 Cd337 2.223 . S
O336 C344 1.315 . S
Cd337 O336 2.223 . S
Cd337 O340 2.297 . S
Cd337 O341 2.439 . S
Cd337 O347 2.240 . S
Cd338 O339 2.240 . S
Cd338 O346 2.223 . S
Cd338 O348 2.297 . S
Cd338 O349 2.439 . S
O339 Cd338 2.240 . S
O339 C344 1.279 . S
O340 Cd337 2.297 . S
O340 C342 1.247 . S
O341 Cd337 2.439 . S
O341 C342 1.208 . S
C342 O340 1.247 . S
C342 O341 1.208 . S
C343 O348 1.247 . S
C343 O349 1.208 . S
C344 O336 1.315 . S
C344 O339 1.279 . S
C345 O346 1.315 . S
C345 O347 1.279 . S
O346 Cd338 2.223 . S
O346 C345 1.315 . S
O347 Cd337 2.240 . S
O347 C345 1.279 . S
O348 Cd338 2.297 . S
O348 C343 1.247 . S
O349 Cd338 2.439 . S
O349 C343 1.208 . S
O350 Cd351 2.223 . S
O350 C358 1.315 . S
Cd351 O350 2.223 . S
Cd351 O354 2.297 . S
Cd351 O355 2.439 . S
Cd351 O361 2.240 . S
Cd352 O353 2.240 . S
Cd352 O360 2.223 . S
Cd352 O362 2.297 . S
Cd352 O363 2.439 . S
O353 Cd352 2.240 . S
O353 C358 1.279 . S
O354 Cd351 2.297 . S
O354 C356 1.247 . S
O355 Cd351 2.439 . S
O355 C356 1.208 . S
C356 O354 1.247 . S
C356 O355 1.208 . S
C357 O362 1.247 . S
C357 O363 1.208 . S
C358 O350 1.315 . S
C358 O353 1.279 . S
C359 O360 1.315 . S
C359 O361 1.279 . S
O360 Cd352 2.223 . S
O360 C359 1.315 . S
O361 Cd351 2.240 . S
O361 C359 1.279 . S
O362 Cd352 2.297 . S
O362 C357 1.247 . S
O363 Cd352 2.439 . S
O363 C357 1.208 . S
O364 Cd365 2.223 . S
O364 C372 1.315 . S
Cd365 O364 2.223 . S
Cd365 O368 2.297 . S
Cd365 O369 2.439 . S
Cd365 O375 2.240 . S
Cd366 O367 2.240 . S
Cd366 O374 2.223 . S
Cd366 O376 2.297 . S
Cd366 O377 2.439 . S
O367 Cd366 2.240 . S
O367 C372 1.279 . S
O368 Cd365 2.297 . S
O368 C370 1.247 . S
O369 Cd365 2.439 . S
O369 C370 1.208 . S
C370 O368 1.247 . S
C370 O369 1.208 . S
C371 O376 1.247 . S
C371 O377 1.208 . S
C372 O364 1.315 . S
C372 O367 1.279 . S
C373 O374 1.315 . S
C373 O375 1.279 . S
O374 Cd366 2.223 . S
O374 C373 1.315 . S
O375 Cd365 2.240 . S
O375 C373 1.279 . S
O376 Cd366 2.297 . S
O376 C371 1.247 . S
O377 Cd366 2.439 . S
O377 C371 1.208 . S
O378 Cd379 2.223 . S
O378 C386 1.315 . S
Cd379 O378 2.223 . S
Cd379 O382 2.297 . S
Cd379 O383 2.439 . S
Cd379 O389 2.240 . S
Cd380 O381 2.240 . S
Cd380 O388 2.223 . S
Cd380 O390 2.297 . S
Cd380 O391 2.439 . S
O381 Cd380 2.240 . S
O381 C386 1.279 . S
O382 Cd379 2.297 . S
O382 C384 1.247 . S
O383 Cd379 2.439 . S
O383 C384 1.208 . S
C384 O382 1.247 . S
C384 O383 1.208 . S
C385 O390 1.247 . S
C385 O391 1.208 . S
C386 O378 1.315 . S
C386 O381 1.279 . S
C387 O388 1.315 . S
C387 O389 1.279 . S
O388 Cd380 2.223 . S
O388 C387 1.315 . S
O389 Cd379 2.240 . S
O389 C387 1.279 . S
O390 Cd380 2.297 . S
O390 C385 1.247 . S
O391 Cd380 2.439 . S
O391 C385 1.208 . S
O392 Cd393 2.223 . S
O392 C400 1.315 . S
Cd393 O392 2.223 . S
Cd393 O396 2.297 . S
Cd393 O397 2.439 . S
Cd393 O403 2.240 . S
Cd394 O395 2.240 . S
Cd394 O402 2.223 . S
Cd394 O404 2.297 . S
Cd394 O405 2.439 . S
O395 Cd394 2.240 . S
O395 C400 1.279 . S
O396 Cd393 2.297 . S
O396 C398 1.247 . S
O397 Cd393 2.439 . S
O397 C398 1.208 . S
C398 O396 1.247 . S
C398 O397 1.208 . S
C399 O404 1.247 . S
C399 O405 1.208 . S
C400 O392 1.315 . S
C400 O395 1.279 . S
C401 O402 1.315 . S
C401 O403 1.279 . S
O402 Cd394 2.223 . S
O402 C401 1.315 . S
O403 Cd393 2.240 . S
O403 C401 1.279 . S
O404 Cd394 2.297 . S
O404 C399 1.247 . S
O405 Cd394 2.439 . S
O405 C399 1.208 . S
O406 Cd407 2.223 . S
O406 C414 1.315 . S
Cd407 O406 2.223 . S
Cd407 O410 2.297 . S
Cd407 O411 2.439 . S
Cd407 O417 2.240 . S
Cd408 O409 2.240 . S
Cd408 O416 2.223 . S
Cd408 O418 2.297 . S
Cd408 O419 2.439 . S
O409 Cd408 2.240 . S
O409 C414 1.279 . S
O410 Cd407 2.297 . S
O410 C412 1.247 . S
O411 Cd407 2.439 . S
O411 C412 1.208 . S
C412 O410 1.247 . S
C412 O411 1.208 . S
C413 O418 1.247 . S
C413 O419 1.208 . S
C414 O406 1.315 . S
C414 O409 1.279 . S
C415 O416 1.315 . S
C415 O417 1.279 . S
O416 Cd408 2.223 . S
O416 C415 1.315 . S
O417 Cd407 2.240 . S
O417 C415 1.279 . S
O418 Cd408 2.297 . S
O418 C413 1.247 . S
O419 Cd408 2.439 . S
O419 C413 1.208 . S
O420 Cd421 2.223 . S
O420 C428 1.315 . S
Cd421 O420 2.223 . S
Cd421 O424 2.297 . S
Cd421 O425 2.439 . S
Cd421 O431 2.240 . S
Cd422 O423 2.240 . S
Cd422 O430 2.223 . S
Cd422 O432 2.297 . S
Cd422 O433 2.439 . S
O423 Cd422 2.240 . S
O423 C428 1.279 . S
O424 Cd421 2.297 . S
O424 C426 1.247 . S
O425 Cd421 2.439 . S
O425 C426 1.208 . S
C426 O424 1.247 . S
C426 O425 1.208 . S
C427 O432 1.247 . S
C427 O433 1.208 . S
C428 O420 1.315 . S
C428 O423 1.279 . S
C429 O430 1.315 . S
C429 O431 1.279 . S
O430 Cd422 2.223 . S
O430 C429 1.315 . S
O431 Cd421 2.240 . S
O431 C429 1.279 . S
O432 Cd422 2.297 . S
O432 C427 1.247 . S
O433 Cd422 2.439 . S
O433 C427 1.208 . S
O434 Cd435 2.223 . S
O434 C442 1.315 . S
Cd435 O434 2.223 . S
Cd435 O438 2.297 . S
Cd435 O439 2.439 . S
Cd435 O445 2.240 . S
Cd436 O437 2.240 . S
Cd436 O444 2.223 . S
Cd436 O446 2.297 . S
Cd436 O447 2.439 . S
O437 Cd436 2.240 . S
O437 C442 1.279 . S
O438 Cd435 2.297 . S
O438 C440 1.247 . S
O439 Cd435 2.439 . S
O439 C440 1.208 . S
C440 O438 1.247 . S
C440 O439 1.208 . S
C441 O446 1.247 . S
C441 O447 1.208 . S
C442 O434 1.315 . S
C442 O437 1.279 . S
C443 O444 1.315 . S
C443 O445 1.279 . S
O444 Cd436 2.223 . S
O444 C443 1.315 . S
O445 Cd435 2.240 . S
O445 C443 1.279 . S
O446 Cd436 2.297 . S
O446 C441 1.247 . S
O447 Cd436 2.439 . S
O447 C441 1.208 . S
O448 Cd449 2.223 . S
O448 C456 1.315 . S
Cd449 O448 2.223 . S
Cd449 O452 2.297 . S
Cd449 O453 2.439 . S
Cd449 O459 2.240 . S
Cd450 O451 2.240 . S
Cd450 O458 2.223 . S
Cd450 O460 2.297 . S
Cd450 O461 2.439 . S
O451 Cd450 2.240 . S
O451 C456 1.279 . S
O452 Cd449 2.297 . S
O452 C454 1.247 . S
O453 Cd449 2.439 . S
O453 C454 1.208 . S
C454 O452 1.247 . S
C454 O453 1.208 . S
C455 O460 1.247 . S
C455 O461 1.208 . S
C456 O448 1.315 . S
C456 O451 1.279 . S
C457 O458 1.315 . S
C457 O459 1.279 . S
O458 Cd450 2.223 . S
O458 C457 1.315 . S
O459 Cd449 2.240 . S
O459 C457 1.279 . S
O460 Cd450 2.297 . S
O460 C455 1.247 . S
O461 Cd450 2.439 . S
O461 C455 1.208 . S
O462 Cd463 2.223 . S
O462 C470 1.315 . S
Cd463 O462 2.223 . S
Cd463 O466 2.297 . S
Cd463 O467 2.439 . S
Cd463 O473 2.240 . S
Cd464 O465 2.240 . S
Cd464 O472 2.223 . S
Cd464 O474 2.297 . S
Cd464 O475 2.439 . S
O465 Cd464 2.240 . S
O465 C470 1.279 . S
O466 Cd463 2.297 . S
O466 C468 1.247 . S
O467 Cd463 2.439 . S
O467 C468 1.208 . S
C468 O466 1.247 . S
C468 O467 1.208 . S
C469 O474 1.247 . S
C469 O475 1.208 . S
C470 O462 1.315 . S
C470 O465 1.279 . S
C471 O472 1.315 . S
C471 O473 1.279 . S
O472 Cd464 2.223 . S
O472 C471 1.315 . S
O473 Cd463 2.240 . S
O473 C471 1.279 . S
O474 Cd464 2.297 . S
O474 C469 1.247 . S
O475 Cd464 2.439 . S
O475 C469 1.208 . S
O476 Cd477 2.223 . S
O476 C484 1.315 . S
Cd477 O476 2.223 . S
Cd477 O480 2.297 . S
Cd477 O481 2.439 . S
Cd477 O487 2.240 . S
Cd478 O479 2.240 . S
Cd478 O486 2.223 . S
Cd478 O488 2.297 . S
Cd478 O489 2.439 . S
O479 Cd478 2.240 . S
O479 C484 1.279 . S
O480 Cd477 2.297 . S
O480 C482 1.247 . S
O481 Cd477 2.439 . S
O481 C482 1.208 . S
C482 O480 1.247 . S
C482 O481 1.208 . S
C483 O488 1.247 . S
C483 O489 1.208 . S
C484 O476 1.315 . S
C484 O479 1.279 . S
C485 O486 1.315 . S
C485 O487 1.279 . S
O486 Cd478 2.223 . S
O486 C485 1.315 . S
O487 Cd477 2.240 . S
O487 C485 1.279 . S
O488 Cd478 2.297 . S
O488 C483 1.247 . S
O489 Cd478 2.439 . S
O489 C483 1.208 . S
O490 Cd491 2.223 . S
O490 C498 1.315 . S
Cd491 O490 2.223 . S
Cd491 O494 2.297 . S
Cd491 O495 2.439 . S
Cd491 O501 2.240 . S
Cd492 O493 2.240 . S
Cd492 O500 2.223 . S
Cd492 O502 2.297 . S
Cd492 O503 2.439 . S
O493 Cd492 2.240 . S
O493 C498 1.279 . S
O494 Cd491 2.297 . S
O494 C496 1.247 . S
O495 Cd491 2.439 . S
O495 C496 1.208 . S
C496 O494 1.247 . S
C496 O495 1.208 . S
C497 O502 1.247 . S
C497 O503 1.208 . S
C498 O490 1.315 . S
C498 O493 1.279 . S
C499 O500 1.315 . S
C499 O501 1.279 . S
O500 Cd492 2.223 . S
O500 C499 1.315 . S
O501 Cd491 2.240 . S
O501 C499 1.279 . S
O502 Cd492 2.297 . S
O502 C497 1.247 . S
O503 Cd492 2.439 . S
O503 C497 1.208 . S
O504 Cd505 2.223 . S
O504 C512 1.315 . S
Cd505 O504 2.223 . S
Cd505 O508 2.297 . S
Cd505 O509 2.439 . S
Cd505 O515 2.240 . S
Cd506 O507 2.240 . S
Cd506 O514 2.223 . S
Cd506 O516 2.297 . S
Cd506 O517 2.439 . S
O507 Cd506 2.240 . S
O507 C512 1.279 . S
O508 Cd505 2.297 . S
O508 C510 1.247 . S
O509 Cd505 2.439 . S
O509 C510 1.208 . S
C510 O508 1.247 . S
C510 O509 1.208 . S
C511 O516 1.247 . S
C511 O517 1.208 . S
C512 O504 1.315 . S
C512 O507 1.279 . S
C513 O514 1.315 . S
C513 O515 1.279 . S
O514 Cd506 2.223 . S
O514 C513 1.315 . S
O515 Cd505 2.240 . S
O515 C513 1.279 . S
O516 Cd506 2.297 . S
O516 C511 1.247 . S
O517 Cd506 2.439 . S
O517 C511 1.208 . S
O518 Cd519 2.223 . S
O518 C526 1.315 . S
Cd519 O518 2.223 . S
Cd519 O522 2.297 . S
Cd519 O523 2.439 . S
Cd519 O529 2.240 . S
Cd520 O521 2.240 . S
Cd520 O528 2.223 . S
Cd520 O530 2.297 . S
Cd520 O531 2.439 . S
O521 Cd520 2.240 . S
O521 C526 1.279 . S
O522 Cd519 2.297 . S
O522 C524 1.247 . S
O523 Cd519 2.439 . S
O523 C524 1.208 . S
C524 O522 1.247 . S
C524 O523 1.208 . S
C525 O530 1.247 . S
C525 O531 1.208 . S
C526 O518 1.315 . S
C526 O521 1.279 . S
C527 O528 1.315 . S
C527 O529 1.279 . S
O528 Cd520 2.223 . S
O528 C527 1.315 . S
O529 Cd519 2.240 . S
O529 C527 1.279 . S
O530 Cd520 2.297 . S
O530 C525 1.247 . S
O531 Cd520 2.439 . S
O531 C525 1.208 . S
O532 Cd533 2.223 . S
O532 C540 1.315 . S
Cd533 O532 2.223 . S
Cd533 O536 2.297 . S
Cd533 O537 2.439 . S
Cd533 O543 2.240 . S
Cd534 O535 2.240 . S
Cd534 O542 2.223 . S
Cd534 O544 2.297 . S
Cd534 O545 2.439 . S
O535 Cd534 2.240 . S
O535 C540 1.279 . S
O536 Cd533 2.297 . S
O536 C538 1.247 . S
O537 Cd533 2.439 . S
O537 C538 1.208 . S
C538 O536 1.247 . S
C538 O537 1.208 . S
C539 O544 1.247 . S
C539 O545 1.208 . S
C540 O532 1.315 . S
C540 O535 1.279 . S
C541 O542 1.315 . S
C541 O543 1.279 . S
O542 Cd534 2.223 . S
O542 C541 1.315 . S
O543 Cd533 2.240 . S
O543 C541 1.279 . S
O544 Cd534 2.297 . S
O544 C539 1.247 . S
O545 Cd534 2.439 . S
O545 C539 1.208 . S
O546 Cd547 2.223 . S
O546 C554 1.315 . S
Cd547 O546 2.223 . S
Cd547 O550 2.297 . S
Cd547 O551 2.439 . S
Cd547 O557 2.240 . S
Cd548 O549 2.240 . S
Cd548 O556 2.223 . S
Cd548 O558 2.297 . S
Cd548 O559 2.439 . S
O549 Cd548 2.240 . S
O549 C554 1.279 . S
O550 Cd547 2.297 . S
O550 C552 1.247 . S
O551 Cd547 2.439 . S
O551 C552 1.208 . S
C552 O550 1.247 . S
C552 O551 1.208 . S
C553 O558 1.247 . S
C553 O559 1.208 . S
C554 O546 1.315 . S
C554 O549 1.279 . S
C555 O556 1.315 . S
C555 O557 1.279 . S
O556 Cd548 2.223 . S
O556 C555 1.315 . S
O557 Cd547 2.240 . S
O557 C555 1.279 . S
O558 Cd548 2.297 . S
O558 C553 1.247 . S
O559 Cd548 2.439 . S
O559 C553 1.208 . S
O560 Cd561 2.223 . S
O560 C568 1.315 . S
Cd561 O560 2.223 . S
Cd561 O564 2.297 . S
Cd561 O565 2.439 . S
Cd561 O571 2.240 . S
Cd562 O563 2.240 . S
Cd562 O570 2.223 . S
Cd562 O572 2.297 . S
Cd562 O573 2.439 . S
O563 Cd562 2.240 . S
O563 C568 1.279 . S
O564 Cd561 2.297 . S
O564 C566 1.247 . S
O565 Cd561 2.439 . S
O565 C566 1.208 . S
C566 O564 1.247 . S
C566 O565 1.208 . S
C567 O572 1.247 . S
C567 O573 1.208 . S
C568 O560 1.315 . S
C568 O563 1.279 . S
C569 O570 1.315 . S
C569 O571 1.279 . S
O570 Cd562 2.223 . S
O570 C569 1.315 . S
O571 Cd561 2.240 . S
O571 C569 1.279 . S
O572 Cd562 2.297 . S
O572 C567 1.247 . S
O573 Cd562 2.439 . S
O573 C567 1.208 . S
O574 Cd575 2.223 . S
O574 C582 1.315 . S
Cd575 O574 2.223 . S
Cd575 O578 2.297 . S
Cd575 O579 2.439 . S
Cd575 O585 2.240 . S
Cd576 O577 2.240 . S
Cd576 O584 2.223 . S
Cd576 O586 2.297 . S
Cd576 O587 2.439 . S
O577 Cd576 2.240 . S
O577 C582 1.279 . S
O578 Cd575 2.297 . S
O578 C580 1.247 . S
O579 Cd575 2.439 . S
O579 C580 1.208 . S
C580 O578 1.247 . S
C580 O579 1.208 . S
C581 O586 1.247 . S
C581 O587 1.208 . S
C582 O574 1.315 . S
C582 O577 1.279 . S
C583 O584 1.315 . S
C583 O585 1.279 . S
O584 Cd576 2.223 . S
O584 C583 1.315 . S
O585 Cd575 2.240 . S
O585 C583 1.279 . S
O586 Cd576 2.297 . S
O586 C581 1.247 . S
O587 Cd576 2.439 . S
O587 C581 1.208 . S
O588 Cd589 2.223 . S
O588 C596 1.315 . S
Cd589 O588 2.223 . S
Cd589 O592 2.297 . S
Cd589 O593 2.439 . S
Cd589 O599 2.240 . S
Cd590 O591 2.240 . S
Cd590 O598 2.223 . S
Cd590 O600 2.297 . S
Cd590 O601 2.439 . S
O591 Cd590 2.240 . S
O591 C596 1.279 . S
O592 Cd589 2.297 . S
O592 C594 1.247 . S
O593 Cd589 2.439 . S
O593 C594 1.208 . S
C594 O592 1.247 . S
C594 O593 1.208 . S
C595 O600 1.247 . S
C595 O601 1.208 . S
C596 O588 1.315 . S
C596 O591 1.279 . S
C597 O598 1.315 . S
C597 O599 1.279 . S
O598 Cd590 2.223 . S
O598 C597 1.315 . S
O599 Cd589 2.240 . S
O599 C597 1.279 . S
O600 Cd590 2.297 . S
O600 C595 1.247 . S
O601 Cd590 2.439 . S
O601 C595 1.208 . S
O602 Cd603 2.223 . S
O602 C610 1.315 . S
Cd603 O602 2.223 . S
Cd603 O606 2.297 . S
Cd603 O607 2.439 . S
Cd603 O613 2.240 . S
Cd604 O605 2.240 . S
Cd604 O612 2.223 . S
Cd604 O614 2.297 . S
Cd604 O615 2.439 . S
O605 Cd604 2.240 . S
O605 C610 1.279 . S
O606 Cd603 2.297 . S
O606 C608 1.247 . S
O607 Cd603 2.439 . S
O607 C608 1.208 . S
C608 O606 1.247 . S
C608 O607 1.208 . S
C609 O614 1.247 . S
C609 O615 1.208 . S
C610 O602 1.315 . S
C610 O605 1.279 . S
C611 O612 1.315 . S
C611 O613 1.279 . S
O612 Cd604 2.223 . S
O612 C611 1.315 . S
O613 Cd603 2.240 . S
O613 C611 1.279 . S
O614 Cd604 2.297 . S
O614 C609 1.247 . S
O615 Cd604 2.439 . S
O615 C609 1.208 . S
O616 Cd617 2.223 . S
O616 C624 1.315 . S
Cd617 O616 2.223 . S
Cd617 O620 2.297 . S
Cd617 O621 2.439 . S
Cd617 O627 2.240 . S
Cd618 O619 2.240 . S
Cd618 O626 2.223 . S
Cd618 O628 2.297 . S
Cd618 O629 2.439 . S
O619 Cd618 2.240 . S
O619 C624 1.279 . S
O620 Cd617 2.297 . S
O620 C622 1.247 . S
O621 Cd617 2.439 . S
O621 C622 1.208 . S
C622 O620 1.247 . S
C622 O621 1.208 . S
C623 O628 1.247 . S
C623 O629 1.208 . S
C624 O616 1.315 . S
C624 O619 1.279 . S
C625 O626 1.315 . S
C625 O627 1.279 . S
O626 Cd618 2.223 . S
O626 C625 1.315 . S
O627 Cd617 2.240 . S
O627 C625 1.279 . S
O628 Cd618 2.297 . S
O628 C623 1.247 . S
O629 Cd618 2.439 . S
O629 C623 1.208 . S
O630 Cd631 2.223 . S
O630 C638 1.315 . S
Cd631 O630 2.223 . S
Cd631 O634 2.297 . S
Cd631 O635 2.439 . S
Cd631 O641 2.240 . S
Cd632 O633 2.240 . S
Cd632 O640 2.223 . S
Cd632 O642 2.297 . S
Cd632 O643 2.439 . S
O633 Cd632 2.240 . S
O633 C638 1.279 . S
O634 Cd631 2.297 . S
O634 C636 1.247 . S
O635 Cd631 2.439 . S
O635 C636 1.208 . S
C636 O634 1.247 . S
C636 O635 1.208 . S
C637 O642 1.247 . S
C637 O643 1.208 . S
C638 O630 1.315 . S
C638 O633 1.279 . S
C639 O640 1.315 . S
C639 O641 1.279 . S
O640 Cd632 2.223 . S
O640 C639 1.315 . S
O641 Cd631 2.240 . S
O641 C639 1.279 . S
O642 Cd632 2.297 . S
O642 C637 1.247 . S
O643 Cd632 2.439 . S
O643 C637 1.208 . S
O644 Cd645 2.223 . S
O644 C652 1.315 . S
Cd645 O644 2.223 . S
Cd645 O648 2.297 . S
Cd645 O649 2.439 . S
Cd645 O655 2.240 . S
Cd646 O647 2.240 . S
Cd646 O654 2.223 . S
Cd646 O656 2.297 . S
Cd646 O657 2.439 . S
O647 Cd646 2.240 . S
O647 C652 1.279 . S
O648 Cd645 2.297 . S
O648 C650 1.247 . S
O649 Cd645 2.439 . S
O649 C650 1.208 . S
C650 O648 1.247 . S
C650 O649 1.208 . S
C651 O656 1.247 . S
C651 O657 1.208 . S
C652 O644 1.315 . S
C652 O647 1.279 . S
C653 O654 1.315 . S
C653 O655 1.279 . S
O654 Cd646 2.223 . S
O654 C653 1.315 . S
O655 Cd645 2.240 . S
O655 C653 1.279 . S
O656 Cd646 2.297 . S
O656 C651 1.247 . S
O657 Cd646 2.439 . S
O657 C651 1.208 . S
O658 Cd659 2.223 . S
O658 C666 1.315 . S
Cd659 O658 2.223 . S
Cd659 O662 2.297 . S
Cd659 O663 2.439 . S
Cd659 O669 2.240 . S
Cd660 O661 2.240 . S
Cd660 O668 2.223 . S
Cd660 O670 2.297 . S
Cd660 O671 2.439 . S
O661 Cd660 2.240 . S
O661 C666 1.279 . S
O662 Cd659 2.297 . S
O662 C664 1.247 . S
O663 Cd659 2.439 . S
O663 C664 1.208 . S
C664 O662 1.247 . S
C664 O663 1.208 . S
C665 O670 1.247 . S
C665 O671 1.208 . S
C666 O658 1.315 . S
C666 O661 1.279 . S
C667 O668 1.315 . S
C667 O669 1.279 . S
O668 Cd660 2.223 . S
O668 C667 1.315 . S
O669 Cd659 2.240 . S
O669 C667 1.279 . S
O670 Cd660 2.297 . S
O670 C665 1.247 . S
O671 Cd660 2.439 . S
O671 C665 1.208 . S
O672 Cd673 2.223 . S
O672 C680 1.315 . S
Cd673 O672 2.223 . S
Cd673 O676 2.297 . S
Cd673 O677 2.439 . S
Cd673 O683 2.240 . S
Cd674 O675 2.240 . S
Cd674 O682 2.223 . S
Cd674 O684 2.297 . S
Cd674 O685 2.439 . S
O675 Cd674 2.240 . S
O675 C680 1.279 . S
O676 Cd673 2.297 . S
O676 C678 1.247 . S
O677 Cd673 2.439 . S
O677 C678 1.208 . S
C678 O676 1.247 . S
C678 O677 1.208 . S
C679 O684 1.247 . S
C679 O685 1.208 . S
C680 O672 1.315 . S
C680 O675 1.279 . S
C681 O682 1.315 . S
C681 O683 1.279 . S
O682 Cd674 2.223 . S
O682 C681 1.315 . S
O683 Cd673 2.240 . S
O683 C681 1.279 . S
O684 Cd674 2.297 . S
O684 C679 1.247 . S
O685 Cd674 2.439 . S
O685 C679 1.208 . S
O686 Cd687 2.223 . S
O686 C694 1.315 . S
Cd687 O686 2.223 . S
Cd687 O690 2.297 . S
Cd687 O691 2.439 . S
Cd687 O697 2.240 . S
Cd688 O689 2.240 . S
Cd688 O696 2.223 . S
Cd688 O698 2.297 . S
Cd688 O699 2.439 . S
O689 Cd688 2.240 . S
O689 C694 1.279 . S
O690 Cd687 2.297 . S
O690 C692 1.247 . S
O691 Cd687 2.439 . S
O691 C692 1.208 . S
C692 O690 1.247 . S
C692 O691 1.208 . S
C693 O698 1.247 . S
C693 O699 1.208 . S
C694 O686 1.315 . S
C694 O689 1.279 . S
C695 O696 1.315 . S
C695 O697 1.279 . S
O696 Cd688 2.223 . S
O696 C695 1.315 . S
O697 Cd687 2.240 . S
O697 C695 1.279 . S
O698 Cd688 2.297 . S
O698 C693 1.247 . S
O699 Cd688 2.439 . S
O699 C693 1.208 . S
O700 Cd701 2.223 . S
O700 C708 1.315 . S
Cd701 O700 2.223 . S
Cd701 O704 2.297 . S
Cd701 O705 2.439 . S
Cd701 O711 2.240 . S
Cd702 O703 2.240 . S
Cd702 O710 2.223 . S
Cd702 O712 2.297 . S
Cd702 O713 2.439 . S
O703 Cd702 2.240 . S
O703 C708 1.279 . S
O704 Cd701 2.297 . S
O704 C706 1.247 . S
O705 Cd701 2.439 . S
O705 C706 1.208 . S
C706 O704 1.247 . S
C706 O705 1.208 . S
C707 O712 1.247 . S
C707 O713 1.208 . S
C708 O700 1.315 . S
C708 O703 1.279 . S
C709 O710 1.315 . S
C709 O711 1.279 . S
O710 Cd702 2.223 . S
O710 C709 1.315 . S
O711 Cd701 2.240 . S
O711 C709 1.279 . S
O712 Cd702 2.297 . S
O712 C707 1.247 . S
O713 Cd702 2.439 . S
O713 C707 1.208 . S
O714 Cd715 2.223 . S
O714 C722 1.315 . S
Cd715 O714 2.223 . S
Cd715 O718 2.297 . S
Cd715 O719 2.439 . S
Cd715 O725 2.240 . S
Cd716 O717 2.240 . S
Cd716 O724 2.223 . S
Cd716 O726 2.297 . S
Cd716 O727 2.439 . S
O717 Cd716 2.240 . S
O717 C722 1.279 . S
O718 Cd715 2.297 . S
O718 C720 1.247 . S
O719 Cd715 2.439 . S
O719 C720 1.208 . S
C720 O718 1.247 . S
C720 O719 1.208 . S
C721 O726 1.247 . S
C721 O727 1.208 . S
C722 O714 1.315 . S
C722 O717 1.279 . S
C723 O724 1.315 . S
C723 O725 1.279 . S
O724 Cd716 2.223 . S
O724 C723 1.315 . S
O725 Cd715 2.240 . S
O725 C723 1.279 . S
O726 Cd716 2.297 . S
O726 C721 1.247 . S
O727 Cd716 2.439 . S
O727 C721 1.208 . S
O728 Cd729 2.223 . S
O728 C736 1.315 . S
Cd729 O728 2.223 . S
Cd729 O732 2.297 . S
Cd729 O733 2.439 . S
Cd729 O739 2.240 . S
Cd730 O731 2.240 . S
Cd730 O738 2.223 . S
Cd730 O740 2.297 . S
Cd730 O741 2.439 . S
O731 Cd730 2.240 . S
O731 C736 1.279 . S
O732 Cd729 2.297 . S
O732 C734 1.247 . S
O733 Cd729 2.439 . S
O733 C734 1.208 . S
C734 O732 1.247 . S
C734 O733 1.208 . S
C735 O740 1.247 . S
C735 O741 1.208 . S
C736 O728 1.315 . S
C736 O731 1.279 . S
C737 O738 1.315 . S
C737 O739 1.279 . S
O738 Cd730 2.223 . S
O738 C737 1.315 . S
O739 Cd729 2.240 . S
O739 C737 1.279 . S
O740 Cd730 2.297 . S
O740 C735 1.247 . S
O741 Cd730 2.439 . S
O741 C735 1.208 . S
O742 Cd743 2.223 . S
O742 C750 1.315 . S
Cd743 O742 2.223 . S
Cd743 O746 2.297 . S
Cd743 O747 2.439 . S
Cd743 O753 2.240 . S
Cd744 O745 2.240 . S
Cd744 O752 2.223 . S
Cd744 O754 2.297 . S
Cd744 O755 2.439 . S
O745 Cd744 2.240 . S
O745 C750 1.279 . S
O746 Cd743 2.297 . S
O746 C748 1.247 . S
O747 Cd743 2.439 . S
O747 C748 1.208 . S
C748 O746 1.247 . S
C748 O747 1.208 . S
C749 O754 1.247 . S
C749 O755 1.208 . S
C750 O742 1.315 . S
C750 O745 1.279 . S
C751 O752 1.315 . S
C751 O753 1.279 . S
O752 Cd744 2.223 . S
O752 C751 1.315 . S
O753 Cd743 2.240 . S
O753 C751 1.279 . S
O754 Cd744 2.297 . S
O754 C749 1.247 . S
O755 Cd744 2.439 . S
O755 C749 1.208 . S
O756 Cd757 2.223 . S
O756 C764 1.315 . S
Cd757 O756 2.223 . S
Cd757 O760 2.297 . S
Cd757 O761 2.439 . S
Cd757 O767 2.240 . S
Cd758 O759 2.240 . S
Cd758 O766 2.223 . S
Cd758 O768 2.297 . S
Cd758 O769 2.439 . S
O759 Cd758 2.240 . S
O759 C764 1.279 . S
O760 Cd757 2.297 . S
O760 C762 1.247 . S
O761 Cd757 2.439 . S
O761 C762 1.208 . S
C762 O760 1.247 . S
C762 O761 1.208 . S
C763 O768 1.247 . S
C763 O769 1.208 . S
C764 O756 1.315 . S
C764 O759 1.279 . S
C765 O766 1.315 . S
C765 O767 1.279 . S
O766 Cd758 2.223 . S
O766 C765 1.315 . S
O767 Cd757 2.240 . S
O767 C765 1.279 . S
O768 Cd758 2.297 . S
O768 C763 1.247 . S
O769 Cd758 2.439 . S
O769 C763 1.208 . S
O770 Cd771 2.223 . S
O770 C778 1.315 . S
Cd771 O770 2.223 . S
Cd771 O774 2.297 . S
Cd771 O775 2.439 . S
Cd771 O781 2.240 . S
Cd772 O773 2.240 . S
Cd772 O780 2.223 . S
Cd772 O782 2.297 . S
Cd772 O783 2.439 . S
O773 Cd772 2.240 . S
O773 C778 1.279 . S
O774 Cd771 2.297 . S
O774 C776 1.247 . S
O775 Cd771 2.439 . S
O775 C776 1.208 . S
C776 O774 1.247 . S
C776 O775 1.208 . S
C777 O782 1.247 . S
C777 O783 1.208 . S
C778 O770 1.315 . S
C778 O773 1.279 . S
C779 O780 1.315 . S
C779 O781 1.279 . S
O780 Cd772 2.223 . S
O780 C779 1.315 . S
O781 Cd771 2.240 . S
O781 C779 1.279 . S
O782 Cd772 2.297 . S
O782 C777 1.247 . S
O783 Cd772 2.439 . S
O783 C777 1.208 . S
O784 Cd785 2.223 . S
O784 C792 1.315 . S
Cd785 O784 2.223 . S
Cd785 O788 2.297 . S
Cd785 O789 2.439 . S
Cd785 O795 2.240 . S
Cd786 O787 2.240 . S
Cd786 O794 2.223 . S
Cd786 O796 2.297 . S
Cd786 O797 2.439 . S
O787 Cd786 2.240 . S
O787 C792 1.279 . S
O788 Cd785 2.297 . S
O788 C790 1.247 . S
O789 Cd785 2.439 . S
O789 C790 1.208 . S
C790 O788 1.247 . S
C790 O789 1.208 . S
C791 O796 1.247 . S
C791 O797 1.208 . S
C792 O784 1.315 . S
C792 O787 1.279 . S
C793 O794 1.315 . S
C793 O795 1.279 . S
O794 Cd786 2.223 . S
O794 C793 1.315 . S
O795 Cd785 2.240 . S
O795 C793 1.279 . S
O796 Cd786 2.297 . S
O796 C791 1.247 . S
O797 Cd786 2.439 . S
O797 C791 1.208 . S
O798 Cd799 2.223 . S
O798 C806 1.315 . S
Cd799 O798 2.223 . S
Cd799 O802 2.297 . S
Cd799 O803 2.439 . S
Cd799 O809 2.240 . S
Cd800 O801 2.240 . S
Cd800 O808 2.223 . S
Cd800 O810 2.297 . S
Cd800 O811 2.439 . S
O801 Cd800 2.240 . S
O801 C806 1.279 . S
O802 Cd799 2.297 . S
O802 C804 1.247 . S
O803 Cd799 2.439 . S
O803 C804 1.208 . S
C804 O802 1.247 . S
C804 O803 1.208 . S
C805 O810 1.247 . S
C805 O811 1.208 . S
C806 O798 1.315 . S
C806 O801 1.279 . S
C807 O808 1.315 . S
C807 O809 1.279 . S
O808 Cd800 2.223 . S
O808 C807 1.315 . S
O809 Cd799 2.240 . S
O809 C807 1.279 . S
O810 Cd800 2.297 . S
O810 C805 1.247 . S
O811 Cd800 2.439 . S
O811 C805 1.208 . S
O812 Cd813 2.223 . S
O812 C820 1.315 . S
Cd813 O812 2.223 . S
Cd813 O816 2.297 . S
Cd813 O817 2.439 . S
Cd813 O823 2.240 . S
Cd814 O815 2.240 . S
Cd814 O822 2.223 . S
Cd814 O824 2.297 . S
Cd814 O825 2.439 . S
O815 Cd814 2.240 . S
O815 C820 1.279 . S
O816 Cd813 2.297 . S
O816 C818 1.247 . S
O817 Cd813 2.439 . S
O817 C818 1.208 . S
C818 O816 1.247 . S
C818 O817 1.208 . S
C819 O824 1.247 . S
C819 O825 1.208 . S
C820 O812 1.315 . S
C820 O815 1.279 . S
C821 O822 1.315 . S
C821 O823 1.279 . S
O822 Cd814 2.223 . S
O822 C821 1.315 . S
O823 Cd813 2.240 . S
O823 C821 1.279 . S
O824 Cd814 2.297 . S
O824 C819 1.247 . S
O825 Cd814 2.439 . S
O825 C819 1.208 . S
O826 Cd827 2.223 . S
O826 C834 1.315 . S
Cd827 O826 2.223 . S
Cd827 O830 2.297 . S
Cd827 O831 2.439 . S
Cd827 O837 2.240 . S
Cd828 O829 2.240 . S
Cd828 O836 2.223 . S
Cd828 O838 2.297 . S
Cd828 O839 2.439 . S
O829 Cd828 2.240 . S
O829 C834 1.279 . S
O830 Cd827 2.297 . S
O830 C832 1.247 . S
O831 Cd827 2.439 . S
O831 C832 1.208 . S
C832 O830 1.247 . S
C832 O831 1.208 . S
C833 O838 1.247 . S
C833 O839 1.208 . S
C834 O826 1.315 . S
C834 O829 1.279 . S
C835 O836 1.315 . S
C835 O837 1.279 . S
O836 Cd828 2.223 . S
O836 C835 1.315 . S
O837 Cd827 2.240 . S
O837 C835 1.279 . S
O838 Cd828 2.297 . S
O838 C833 1.247 . S
O839 Cd828 2.439 . S
O839 C833 1.208 . S
O840 Cd841 2.223 . S
O840 C848 1.315 . S
Cd841 O840 2.223 . S
Cd841 O844 2.297 . S
Cd841 O845 2.439 . S
Cd841 O851 2.240 . S
Cd842 O843 2.240 . S
Cd842 O850 2.223 . S
Cd842 O852 2.297 . S
Cd842 O853 2.439 . S
O843 Cd842 2.240 . S
O843 C848 1.279 . S
O844 Cd841 2.297 . S
O844 C846 1.247 . S
O845 Cd841 2.439 . S
O845 C846 1.208 . S
C846 O844 1.247 . S
C846 O845 1.208 . S
C847 O852 1.247 . S
C847 O853 1.208 . S
C848 O840 1.315 . S
C848 O843 1.279 . S
C849 O850 1.315 . S
C849 O851 1.279 . S
O850 Cd842 2.223 . S
O850 C849 1.315 . S
O851 Cd841 2.240 . S
O851 C849 1.279 . S
O852 Cd842 2.297 . S
O852 C847 1.247 . S
O853 Cd842 2.439 . S
O853 C847 1.208 . S
O854 Cd855 2.223 . S
O854 C862 1.315 . S
Cd855 O854 2.223 . S
Cd855 O858 2.297 . S
Cd855 O859 2.439 . S
Cd855 O865 2.240 . S
Cd856 O857 2.240 . S
Cd856 O864 2.223 . S
Cd856 O866 2.297 . S
Cd856 O867 2.439 . S
O857 Cd856 2.240 . S
O857 C862 1.279 . S
O858 Cd855 2.297 . S
O858 C860 1.247 . S
O859 Cd855 2.439 . S
O859 C860 1.208 . S
C860 O858 1.247 . S
C860 O859 1.208 . S
C861 O866 1.247 . S
C861 O867 1.208 . S
C862 O854 1.315 . S
C862 O857 1.279 . S
C863 O864 1.315 . S
C863 O865 1.279 . S
O864 Cd856 2.223 . S
O864 C863 1.315 . S
O865 Cd855 2.240 . S
O865 C863 1.279 . S
O866 Cd856 2.297 . S
O866 C861 1.247 . S
O867 Cd856 2.439 . S
O867 C861 1.208 . S
O868 Cd869 2.223 . S
O868 C876 1.315 . S
Cd869 O868 2.223 . S
Cd869 O872 2.297 . S
Cd869 O873 2.439 . S
Cd869 O879 2.240 . S
Cd870 O871 2.240 . S
Cd870 O878 2.223 . S
Cd870 O880 2.297 . S
Cd870 O881 2.439 . S
O871 Cd870 2.240 . S
O871 C876 1.279 . S
O872 Cd869 2.297 . S
O872 C874 1.247 . S
O873 Cd869 2.439 . S
O873 C874 1.208 . S
C874 O872 1.247 . S
C874 O873 1.208 . S
C875 O880 1.247 . S
C875 O881 1.208 . S
C876 O868 1.315 . S
C876 O871 1.279 . S
C877 O878 1.315 . S
C877 O879 1.279 . S
O878 Cd870 2.223 . S
O878 C877 1.315 . S
O879 Cd869 2.240 . S
O879 C877 1.279 . S
O880 Cd870 2.297 . S
O880 C875 1.247 . S
O881 Cd870 2.439 . S
O881 C875 1.208 . S
O882 Cd883 2.223 . S
O882 C890 1.315 . S
Cd883 O882 2.223 . S
Cd883 O886 2.297 . S
Cd883 O887 2.439 . S
Cd883 O893 2.240 . S
Cd884 O885 2.240 . S
Cd884 O892 2.223 . S
Cd884 O894 2.297 . S
Cd884 O895 2.439 . S
O885 Cd884 2.240 . S
O885 C890 1.279 . S
O886 Cd883 2.297 . S
O886 C888 1.247 . S
O887 Cd883 2.439 . S
O887 C888 1.208 . S
C888 O886 1.247 . S
C888 O887 1.208 . S
C889 O894 1.247 . S
C889 O895 1.208 . S
C890 O882 1.315 . S
C890 O885 1.279 . S
C891 O892 1.315 . S
C891 O893 1.279 . S
O892 Cd884 2.223 . S
O892 C891 1.315 . S
O893 Cd883 2.240 . S
O893 C891 1.279 . S
O894 Cd884 2.297 . S
O894 C889 1.247 . S
O895 Cd884 2.439 . S
O895 C889 1.208 . S
O896 Cd897 2.223 . S
O896 C904 1.315 . S
Cd897 O896 2.223 . S
Cd897 O900 2.297 . S
Cd897 O901 2.439 . S
Cd897 O907 2.240 . S
Cd898 O899 2.240 . S
Cd898 O906 2.223 . S
Cd898 O908 2.297 . S
Cd898 O909 2.439 . S
O899 Cd898 2.240 . S
O899 C904 1.279 . S
O900 Cd897 2.297 . S
O900 C902 1.247 . S
O901 Cd897 2.439 . S
O901 C902 1.208 . S
C902 O900 1.247 . S
C902 O901 1.208 . S
C903 O908 1.247 . S
C903 O909 1.208 . S
C904 O896 1.315 . S
C904 O899 1.279 . S
C905 O906 1.315 . S
C905 O907 1.279 . S
O906 Cd898 2.223 . S
O906 C905 1.315 . S
O907 Cd897 2.240 . S
O907 C905 1.279 . S
O908 Cd898 2.297 . S
O908 C903 1.247 . S
O909 Cd898 2.439 . S
O909 C903 1.208 . S
O910 Cd911 2.223 . S
O910 C918 1.315 . S
Cd911 O910 2.223 . S
Cd911 O914 2.297 . S
Cd911 O915 2.439 . S
Cd911 O921 2.240 . S
Cd912 O913 2.240 . S
Cd912 O920 2.223 . S
Cd912 O922 2.297 . S
Cd912 O923 2.439 . S
O913 Cd912 2.240 . S
O913 C918 1.279 . S
O914 Cd911 2.297 . S
O914 C916 1.247 . S
O915 Cd911 2.439 . S
O915 C916 1.208 . S
C916 O914 1.247 . S
C916 O915 1.208 . S
C917 O922 1.247 . S
C917 O923 1.208 . S
C918 O910 1.315 . S
C918 O913 1.279 . S
C919 O920 1.315 . S
C919 O921 1.279 . S
O920 Cd912 2.223 . S
O920 C919 1.315 . S
O921 Cd911 2.240 . S
O921 C919 1.279 . S
O922 Cd912 2.297 . S
O922 C917 1.247 . S
O923 Cd912 2.439 . S
O923 C917 1.208 . S
O924 Cd925 2.223 . S
O924 C932 1.315 . S
Cd925 O924 2.223 . S
Cd925 O928 2.297 . S
Cd925 O929 2.439 . S
Cd925 O935 2.240 . S
Cd926 O927 2.240 . S
Cd926 O934 2.223 . S
Cd926 O936 2.297 . S
Cd926 O937 2.439 . S
O927 Cd926 2.240 . S
O927 C932 1.279 . S
O928 Cd925 2.297 . S
O928 C930 1.247 . S
O929 Cd925 2.439 . S
O929 C930 1.208 . S
C930 O928 1.247 . S
C930 O929 1.208 . S
C931 O936 1.247 . S
C931 O937 1.208 . S
C932 O924 1.315 . S
C932 O927 1.279 . S
C933 O934 1.315 . S
C933 O935 1.279 . S
O934 Cd926 2.223 . S
O934 C933 1.315 . S
O935 Cd925 2.240 . S
O935 C933 1.279 . S
O936 Cd926 2.297 . S
O936 C931 1.247 . S
O937 Cd926 2.439 . S
O937 C931 1.208 . S
O938 Cd939 2.223 . S
O938 C946 1.315 . S
Cd939 O938 2.223 . S
Cd939 O942 2.297 . S
Cd939 O943 2.439 . S
Cd939 O949 2.240 . S
Cd940 O941 2.240 . S
Cd940 O948 2.223 . S
Cd940 O950 2.297 . S
Cd940 O951 2.439 . S
O941 Cd940 2.240 . S
O941 C946 1.279 . S
O942 Cd939 2.297 . S
O942 C944 1.247 . S
O943 Cd939 2.439 . S
O943 C944 1.208 . S
C944 O942 1.247 . S
C944 O943 1.208 . S
C945 O950 1.247 . S
C945 O951 1.208 . S
C946 O938 1.315 . S
C946 O941 1.279 . S
C947 O948 1.315 . S
C947 O949 1.279 . S
O948 Cd940 2.223 . S
O948 C947 1.315 . S
O949 Cd939 2.240 . S
O949 C947 1.279 . S
O950 Cd940 2.297 . S
O950 C945 1.247 . S
O951 Cd940 2.439 . S
O951 C945 1.208 . S
O952 Cd953 2.223 . S
O952 C960 1.315 . S
Cd953 O952 2.223 . S
Cd953 O956 2.297 . S
Cd953 O957 2.439 . S
Cd953 O963 2.240 . S
Cd954 O955 2.240 . S
Cd954 O962 2.223 . S
Cd954 O964 2.297 . S
Cd954 O965 2.439 . S
O955 Cd954 2.240 . S
O955 C960 1.279 . S
O956 Cd953 2.297 . S
O956 C958 1.247 . S
O957 Cd953 2.439 . S
O957 C958 1.208 . S
C958 O956 1.247 . S
C958 O957 1.208 . S
C959 O964 1.247 . S
C959 O965 1.208 . S
C960 O952 1.315 . S
C960 O955 1.279 . S
C961 O962 1.315 . S
C961 O963 1.279 . S
O962 Cd954 2.223 . S
O962 C961 1.315 . S
O963 Cd953 2.240 . S
O963 C961 1.279 . S
O964 Cd954 2.297 . S
O964 C959 1.247 . S
O965 Cd954 2.439 . S
O965 C959 1.208 . S
O966 Cd967 2.223 . S
O966 C974 1.315 . S
Cd967 O966 2.223 . S
Cd967 O970 2.297 . S
Cd967 O971 2.439 . S
Cd967 O977 2.240 . S
Cd968 O969 2.240 . S
Cd968 O976 2.223 . S
Cd968 O978 2.297 . S
Cd968 O979 2.439 . S
O969 Cd968 2.240 . S
O969 C974 1.279 . S
O970 Cd967 2.297 . S
O970 C972 1.247 . S
O971 Cd967 2.439 . S
O971 C972 1.208 . S
C972 O970 1.247 . S
C972 O971 1.208 . S
C973 O978 1.247 . S
C973 O979 1.208 . S
C974 O966 1.315 . S
C974 O969 1.279 . S
C975 O976 1.315 . S
C975 O977 1.279 . S
O976 Cd968 2.223 . S
O976 C975 1.315 . S
O977 Cd967 2.240 . S
O977 C975 1.279 . S
O978 Cd968 2.297 . S
O978 C973 1.247 . S
O979 Cd968 2.439 . S
O979 C973 1.208 . S
O980 Cd981 2.223 . S
O980 C988 1.315 . S
Cd981 O980 2.223 . S
Cd981 O984 2.297 . S
Cd981 O985 2.439 . S
Cd981 O991 2.240 . S
Cd982 O983 2.240 . S
Cd982 O990 2.223 . S
Cd982 O992 2.297 . S
Cd982 O993 2.439 . S
O983 Cd982 2.240 . S
O983 C988 1.279 . S
O984 Cd981 2.297 . S
O984 C986 1.247 . S
O985 Cd981 2.439 . S
O985 C986 1.208 . S
C986 O984 1.247 . S
C986 O985 1.208 . S
C987 O992 1.247 . S
C987 O993 1.208 . S
C988 O980 1.315 . S
C988 O983 1.279 . S
C989 O990 1.315 . S
C989 O991 1.279 . S
O990 Cd982 2.223 . S
O990 C989 1.315 . S
O991 Cd981 2.240 . S
O991 C989 1.279 . S
O992 Cd982 2.297 . S
O992 C987 1.247 . S
O993 Cd982 2.439 . S
O993 C987 1.208 . S
O994 Cd995 2.223 . S
O994 C1002 1.315 . S
Cd995 O994 2.223 . S
Cd995 O998 2.297 . S
Cd995 O999 2.439 . S
Cd995 O1005 2.240 . S
Cd996 O997 2.240 . S
Cd996 O1004 2.223 . S
Cd996 O1006 2.297 . S
Cd996 O1007 2.439 . S
O997 Cd996 2.240 . S
O997 C1002 1.279 . S
O998 Cd995 2.297 . S
O998 C1000 1.247 . S
O999 Cd995 2.439 . S
O999 C1000 1.208 . S
C1000 O998 1.247 . S
C1000 O999 1.208 . S
C1001 O1006 1.247 . S
C1001 O1007 1.208 . S
C1002 O994 1.315 . S
C1002 O997 1.279 . S
C1003 O1004 1.315 . S
C1003 O1005 1.279 . S
O1004 Cd996 2.223 . S
O1004 C1003 1.315 . S
O1005 Cd995 2.240 . S
O1005 C1003 1.279 . S
O1006 Cd996 2.297 . S
O1006 C1001 1.247 . S
O1007 Cd996 2.439 . S
O1007 C1001 1.208 . S
O1008 Cd1009 2.223 . S
O1008 C1016 1.315 . S
Cd1009 O1008 2.223 . S
Cd1009 O1012 2.297 . S
Cd1009 O1013 2.439 . S
Cd1009 O1019 2.240 . S
Cd1010 O1011 2.240 . S
Cd1010 O1018 2.223 . S
Cd1010 O1020 2.297 . S
Cd1010 O1021 2.439 . S
O1011 Cd1010 2.240 . S
O1011 C1016 1.279 . S
O1012 Cd1009 2.297 . S
O1012 C1014 1.247 . S
O1013 Cd1009 2.439 . S
O1013 C1014 1.208 . S
C1014 O1012 1.247 . S
C1014 O1013 1.208 . S
C1015 O1020 1.247 . S
C1015 O1021 1.208 . S
C1016 O1008 1.315 . S
C1016 O1011 1.279 . S
C1017 O1018 1.315 . S
C1017 O1019 1.279 . S
O1018 Cd1010 2.223 . S
O1018 C1017 1.315 . S
O1019 Cd1009 2.240 . S
O1019 C1017 1.279 . S
O1020 Cd1010 2.297 . S
O1020 C1015 1.247 . S
O1021 Cd1010 2.439 . S
O1021 C1015 1.208 . S
O1022 Cd1023 2.223 . S
O1022 C1030 1.315 . S
Cd1023 O1022 2.223 . S
Cd1023 O1026 2.297 . S
Cd1023 O1027 2.439 . S
Cd1023 O1033 2.240 . S
Cd1024 O1025 2.240 . S
Cd1024 O1032 2.223 . S
Cd1024 O1034 2.297 . S
Cd1024 O1035 2.439 . S
O1025 Cd1024 2.240 . S
O1025 C1030 1.279 . S
O1026 Cd1023 2.297 . S
O1026 C1028 1.247 . S
O1027 Cd1023 2.439 . S
O1027 C1028 1.208 . S
C1028 O1026 1.247 . S
C1028 O1027 1.208 . S
C1029 O1034 1.247 . S
C1029 O1035 1.208 . S
C1030 O1022 1.315 . S
C1030 O1025 1.279 . S
C1031 O1032 1.315 . S
C1031 O1033 1.279 . S
O1032 Cd1024 2.223 . S
O1032 C1031 1.315 . S
O1033 Cd1023 2.240 . S
O1033 C1031 1.279 . S
O1034 Cd1024 2.297 . S
O1034 C1029 1.247 . S
O1035 Cd1024 2.439 . S
O1035 C1029 1.208 . S
O1036 Cd1037 2.223 . S
O1036 C1044 1.315 . S
Cd1037 O1036 2.223 . S
Cd1037 O1040 2.297 . S
Cd1037 O1041 2.439 . S
Cd1037 O1047 2.240 . S
Cd1038 O1039 2.240 . S
Cd1038 O1046 2.223 . S
Cd1038 O1048 2.297 . S
Cd1038 O1049 2.439 . S
O1039 Cd1038 2.240 . S
O1039 C1044 1.279 . S
O1040 Cd1037 2.297 . S
O1040 C1042 1.247 . S
O1041 Cd1037 2.439 . S
O1041 C1042 1.208 . S
C1042 O1040 1.247 . S
C1042 O1041 1.208 . S
C1043 O1048 1.247 . S
C1043 O1049 1.208 . S
C1044 O1036 1.315 . S
C1044 O1039 1.279 . S
C1045 O1046 1.315 . S
C1045 O1047 1.279 . S
O1046 Cd1038 2.223 . S
O1046 C1045 1.315 . S
O1047 Cd1037 2.240 . S
O1047 C1045 1.279 . S
O1048 Cd1038 2.297 . S
O1048 C1043 1.247 . S
O1049 Cd1038 2.439 . S
O1049 C1043 1.208 . S
O1050 Cd1051 2.223 . S
O1050 C1058 1.315 . S
Cd1051 O1050 2.223 . S
Cd1051 O1054 2.297 . S
Cd1051 O1055 2.439 . S
Cd1051 O1061 2.240 . S
Cd1052 O1053 2.240 . S
Cd1052 O1060 2.223 . S
Cd1052 O1062 2.297 . S
Cd1052 O1063 2.439 . S
O1053 Cd1052 2.240 . S
O1053 C1058 1.279 . S
O1054 Cd1051 2.297 . S
O1054 C1056 1.247 . S
O1055 Cd1051 2.439 . S
O1055 C1056 1.208 . S
C1056 O1054 1.247 . S
C1056 O1055 1.208 . S
C1057 O1062 1.247 . S
C1057 O1063 1.208 . S
C1058 O1050 1.315 . S
C1058 O1053 1.279 . S
C1059 O1060 1.315 . S
C1059 O1061 1.279 . S
O1060 Cd1052 2.223 . S
O1060 C1059 1.315 . S
O1061 Cd1051 2.240 . S
O1061 C1059 1.279 . S
O1062 Cd1052 2.297 . S
O1062 C1057 1.247 . S
O1063 Cd1052 2.439 . S
O1063 C1057 1.208 . S
O1064 Cd1065 2.223 . S
O1064 C1072 1.315 . S
Cd1065 O1064 2.223 . S
Cd1065 O1068 2.297 . S
Cd1065 O1069 2.439 . S
Cd1065 O1075 2.240 . S
Cd1066 O1067 2.240 . S
Cd1066 O1074 2.223 . S
Cd1066 O1076 2.297 . S
Cd1066 O1077 2.439 . S
O1067 Cd1066 2.240 . S
O1067 C1072 1.279 . S
O1068 Cd1065 2.297 . S
O1068 C1070 1.247 . S
O1069 Cd1065 2.439 . S
O1069 C1070 1.208 . S
C1070 O1068 1.247 . S
C1070 O1069 1.208 . S
C1071 O1076 1.247 . S
C1071 O1077 1.208 . S
C1072 O1064 1.315 . S
C1072 O1067 1.279 . S
C1073 O1074 1.315 . S
C1073 O1075 1.279 . S
O1074 Cd1066 2.223 . S
O1074 C1073 1.315 . S
O1075 Cd1065 2.240 . S
O1075 C1073 1.279 . S
O1076 Cd1066 2.297 . S
O1076 C1071 1.247 . S
O1077 Cd1066 2.439 . S
O1077 C1071 1.208 . S
O1078 Cd1079 2.223 . S
O1078 C1086 1.315 . S
Cd1079 O1078 2.223 . S
Cd1079 O1082 2.297 . S
Cd1079 O1083 2.439 . S
Cd1079 O1089 2.240 . S
Cd1080 O1081 2.240 . S
Cd1080 O1088 2.223 . S
Cd1080 O1090 2.297 . S
Cd1080 O1091 2.439 . S
O1081 Cd1080 2.240 . S
O1081 C1086 1.279 . S
O1082 Cd1079 2.297 . S
O1082 C1084 1.247 . S
O1083 Cd1079 2.439 . S
O1083 C1084 1.208 . S
C1084 O1082 1.247 . S
C1084 O1083 1.208 . S
C1085 O1090 1.247 . S
C1085 O1091 1.208 . S
C1086 O1078 1.315 . S
C1086 O1081 1.279 . S
C1087 O1088 1.315 . S
C1087 O1089 1.279 . S
O1088 Cd1080 2.223 . S
O1088 C1087 1.315 . S
O1089 Cd1079 2.240 . S
O1089 C1087 1.279 . S
O1090 Cd1080 2.297 . S
O1090 C1085 1.247 . S
O1091 Cd1080 2.439 . S
O1091 C1085 1.208 . S
O1092 Cd1093 2.223 . S
O1092 C1100 1.315 . S
Cd1093 O1092 2.223 . S
Cd1093 O1096 2.297 . S
Cd1093 O1097 2.439 . S
Cd1093 O1103 2.240 . S
Cd1094 O1095 2.240 . S
Cd1094 O1102 2.223 . S
Cd1094 O1104 2.297 . S
Cd1094 O1105 2.439 . S
O1095 Cd1094 2.240 . S
O1095 C1100 1.279 . S
O1096 Cd1093 2.297 . S
O1096 C1098 1.247 . S
O1097 Cd1093 2.439 . S
O1097 C1098 1.208 . S
C1098 O1096 1.247 . S
C1098 O1097 1.208 . S
C1099 O1104 1.247 . S
C1099 O1105 1.208 . S
C1100 O1092 1.315 . S
C1100 O1095 1.279 . S
C1101 O1102 1.315 . S
C1101 O1103 1.279 . S
O1102 Cd1094 2.223 . S
O1102 C1101 1.315 . S
O1103 Cd1093 2.240 . S
O1103 C1101 1.279 . S
O1104 Cd1094 2.297 . S
O1104 C1099 1.247 . S
O1105 Cd1094 2.439 . S
O1105 C1099 1.208 . S
O1106 Cd1107 2.223 . S
O1106 C1114 1.315 . S
Cd1107 O1106 2.223 . S
Cd1107 O1110 2.297 . S
Cd1107 O1111 2.439 . S
Cd1107 O1117 2.240 . S
Cd1108 O1109 2.240 . S
Cd1108 O1116 2.223 . S
Cd1108 O1118 2.297 . S
Cd1108 O1119 2.439 . S
O1109 Cd1108 2.240 . S
O1109 C1114 1.279 . S
O1110 Cd1107 2.297 . S
O1110 C1112 1.247 . S
O1111 Cd1107 2.439 . S
O1111 C1112 1.208 . S
C1112 O1110 1.247 . S
C1112 O1111 1.208 . S
C1113 O1118 1.247 . S
C1113 O1119 1.208 . S
C1114 O1106 1.315 . S
C1114 O1109 1.279 . S
C1115 O1116 1.315 . S
C1115 O1117 1.279 . S
O1116 Cd1108 2.223 . S
O1116 C1115 1.315 . S
O1117 Cd1107 2.240 . S
O1117 C1115 1.279 . S
O1118 Cd1108 2.297 . S
O1118 C1113 1.247 . S
O1119 Cd1108 2.439 . S
O1119 C1113 1.208 . S
O1120 Cd1121 2.223 . S
O1120 C1128 1.315 . S
Cd1121 O1120 2.223 . S
Cd1121 O1124 2.297 . S
Cd1121 O1125 2.439 . S
Cd1121 O1131 2.240 . S
Cd1122 O1123 2.240 . S
Cd1122 O1130 2.223 . S
Cd1122 O1132 2.297 . S
Cd1122 O1133 2.439 . S
O1123 Cd1122 2.240 . S
O1123 C1128 1.279 . S
O1124 Cd1121 2.297 . S
O1124 C1126 1.247 . S
O1125 Cd1121 2.439 . S
O1125 C1126 1.208 . S
C1126 O1124 1.247 . S
C1126 O1125 1.208 . S
C1127 O1132 1.247 . S
C1127 O1133 1.208 . S
C1128 O1120 1.315 . S
C1128 O1123 1.279 . S
C1129 O1130 1.315 . S
C1129 O1131 1.279 . S
O1130 Cd1122 2.223 . S
O1130 C1129 1.315 . S
O1131 Cd1121 2.240 . S
O1131 C1129 1.279 . S
O1132 Cd1122 2.297 . S
O1132 C1127 1.247 . S
O1133 Cd1122 2.439 . S
O1133 C1127 1.208 . S
O1134 Cd1135 2.223 . S
O1134 C1142 1.315 . S
Cd1135 O1134 2.223 . S
Cd1135 O1138 2.297 . S
Cd1135 O1139 2.439 . S
Cd1135 O1145 2.240 . S
Cd1136 O1137 2.240 . S
Cd1136 O1144 2.223 . S
Cd1136 O1146 2.297 . S
Cd1136 O1147 2.439 . S
O1137 Cd1136 2.240 . S
O1137 C1142 1.279 . S
O1138 Cd1135 2.297 . S
O1138 C1140 1.247 . S
O1139 Cd1135 2.439 . S
O1139 C1140 1.208 . S
C1140 O1138 1.247 . S
C1140 O1139 1.208 . S
C1141 O1146 1.247 . S
C1141 O1147 1.208 . S
C1142 O1134 1.315 . S
C1142 O1137 1.279 . S
C1143 O1144 1.315 . S
C1143 O1145 1.279 . S
O1144 Cd1136 2.223 . S
O1144 C1143 1.315 . S
O1145 Cd1135 2.240 . S
O1145 C1143 1.279 . S
O1146 Cd1136 2.297 . S
O1146 C1141 1.247 . S
O1147 Cd1136 2.439 . S
O1147 C1141 1.208 . S
O1148 Cd1149 2.223 . S
O1148 C1156 1.315 . S
Cd1149 O1148 2.223 . S
Cd1149 O1152 2.297 . S
Cd1149 O1153 2.439 . S
Cd1149 O1159 2.240 . S
Cd1150 O1151 2.240 . S
Cd1150 O1158 2.223 . S
Cd1150 O1160 2.297 . S
Cd1150 O1161 2.439 . S
O1151 Cd1150 2.240 . S
O1151 C1156 1.279 . S
O1152 Cd1149 2.297 . S
O1152 C1154 1.247 . S
O1153 Cd1149 2.439 . S
O1153 C1154 1.208 . S
C1154 O1152 1.247 . S
C1154 O1153 1.208 . S
C1155 O1160 1.247 . S
C1155 O1161 1.208 . S
C1156 O1148 1.315 . S
C1156 O1151 1.279 . S
C1157 O1158 1.315 . S
C1157 O1159 1.279 . S
O1158 Cd1150 2.223 . S
O1158 C1157 1.315 . S
O1159 Cd1149 2.240 . S
O1159 C1157 1.279 . S
O1160 Cd1150 2.297 . S
O1160 C1155 1.247 . S
O1161 Cd1150 2.439 . S
O1161 C1155 1.208 . S
O1162 Cd1163 2.223 . S
O1162 C1170 1.315 . S
Cd1163 O1162 2.223 . S
Cd1163 O1166 2.297 . S
Cd1163 O1167 2.439 . S
Cd1163 O1173 2.240 . S
Cd1164 O1165 2.240 . S
Cd1164 O1172 2.223 . S
Cd1164 O1174 2.297 . S
Cd1164 O1175 2.439 . S
O1165 Cd1164 2.240 . S
O1165 C1170 1.279 . S
O1166 Cd1163 2.297 . S
O1166 C1168 1.247 . S
O1167 Cd1163 2.439 . S
O1167 C1168 1.208 . S
C1168 O1166 1.247 . S
C1168 O1167 1.208 . S
C1169 O1174 1.247 . S
C1169 O1175 1.208 . S
C1170 O1162 1.315 . S
C1170 O1165 1.279 . S
C1171 O1172 1.315 . S
C1171 O1173 1.279 . S
O1172 Cd1164 2.223 . S
O1172 C1171 1.315 . S
O1173 Cd1163 2.240 . S
O1173 C1171 1.279 . S
O1174 Cd1164 2.297 . S
O1174 C1169 1.247 . S
O1175 Cd1164 2.439 . S
O1175 C1169 1.208 . S
O1176 Cd1177 2.223 . S
O1176 C1184 1.315 . S
Cd1177 O1176 2.223 . S
Cd1177 O1180 2.297 . S
Cd1177 O1181 2.439 . S
Cd1177 O1187 2.240 . S
Cd1178 O1179 2.240 . S
Cd1178 O1186 2.223 . S
Cd1178 O1188 2.297 . S
Cd1178 O1189 2.439 . S
O1179 Cd1178 2.240 . S
O1179 C1184 1.279 . S
O1180 Cd1177 2.297 . S
O1180 C1182 1.247 . S
O1181 Cd1177 2.439 . S
O1181 C1182 1.208 . S
C1182 O1180 1.247 . S
C1182 O1181 1.208 . S
C1183 O1188 1.247 . S
C1183 O1189 1.208 . S
C1184 O1176 1.315 . S
C1184 O1179 1.279 . S
C1185 O1186 1.315 . S
C1185 O1187 1.279 . S
O1186 Cd1178 2.223 . S
O1186 C1185 1.315 . S
O1187 Cd1177 2.240 . S
O1187 C1185 1.279 . S
O1188 Cd1178 2.297 . S
O1188 C1183 1.247 . S
O1189 Cd1178 2.439 . S
O1189 C1183 1.208 . S
O1190 Cd1191 2.223 . S
O1190 C1198 1.315 . S
Cd1191 O1190 2.223 . S
Cd1191 O1194 2.297 . S
Cd1191 O1195 2.439 . S
Cd1191 O1201 2.240 . S
Cd1192 O1193 2.240 . S
Cd1192 O1200 2.223 . S
Cd1192 O1202 2.297 . S
Cd1192 O1203 2.439 . S
O1193 Cd1192 2.240 . S
O1193 C1198 1.279 . S
O1194 Cd1191 2.297 . S
O1194 C1196 1.247 . S
O1195 Cd1191 2.439 . S
O1195 C1196 1.208 . S
C1196 O1194 1.247 . S
C1196 O1195 1.208 . S
C1197 O1202 1.247 . S
C1197 O1203 1.208 . S
C1198 O1190 1.315 . S
C1198 O1193 1.279 . S
C1199 O1200 1.315 . S
C1199 O1201 1.279 . S
O1200 Cd1192 2.223 . S
O1200 C1199 1.315 . S
O1201 Cd1191 2.240 . S
O1201 C1199 1.279 . S
O1202 Cd1192 2.297 . S
O1202 C1197 1.247 . S
O1203 Cd1192 2.439 . S
O1203 C1197 1.208 . S
O1204 Cd1205 2.223 . S
O1204 C1212 1.315 . S
Cd1205 O1204 2.223 . S
Cd1205 O1208 2.297 . S
Cd1205 O1209 2.439 . S
Cd1205 O1215 2.240 . S
Cd1206 O1207 2.240 . S
Cd1206 O1214 2.223 . S
Cd1206 O1216 2.297 . S
Cd1206 O1217 2.439 . S
O1207 Cd1206 2.240 . S
O1207 C1212 1.279 . S
O1208 Cd1205 2.297 . S
O1208 C1210 1.247 . S
O1209 Cd1205 2.439 . S
O1209 C1210 1.208 . S
C1210 O1208 1.247 . S
C1210 O1209 1.208 . S
C1211 O1216 1.247 . S
C1211 O1217 1.208 . S
C1212 O1204 1.315 . S
C1212 O1207 1.279 . S
C1213 O1214 1.315 . S
C1213 O1215 1.279 . S
O1214 Cd1206 2.223 . S
O1214 C1213 1.315 . S
O1215 Cd1205 2.240 . S
O1215 C1213 1.279 . S
O1216 Cd1206 2.297 . S
O1216 C1211 1.247 . S
O1217 Cd1206 2.439 . S
O1217 C1211 1.208 . S
O1218 Cd1219 2.223 . S
O1218 C1226 1.315 . S
Cd1219 O1218 2.223 . S
Cd1219 O1222 2.297 . S
Cd1219 O1223 2.439 . S
Cd1219 O1229 2.240 . S
Cd1220 O1221 2.240 . S
Cd1220 O1228 2.223 . S
Cd1220 O1230 2.297 . S
Cd1220 O1231 2.439 . S
O1221 Cd1220 2.240 . S
O1221 C1226 1.279 . S
O1222 Cd1219 2.297 . S
O1222 C1224 1.247 . S
O1223 Cd1219 2.439 . S
O1223 C1224 1.208 . S
C1224 O1222 1.247 . S
C1224 O1223 1.208 . S
C1225 O1230 1.247 . S
C1225 O1231 1.208 . S
C1226 O1218 1.315 . S
C1226 O1221 1.279 . S
C1227 O1228 1.315 . S
C1227 O1229 1.279 . S
O1228 Cd1220 2.223 . S
O1228 C1227 1.315 . S
O1229 Cd1219 2.240 . S
O1229 C1227 1.279 . S
O1230 Cd1220 2.297 . S
O1230 C1225 1.247 . S
O1231 Cd1220 2.439 . S
O1231 C1225 1.208 . S
O1232 Cd1233 2.223 . S
O1232 C1240 1.315 . S
Cd1233 O1232 2.223 . S
Cd1233 O1236 2.297 . S
Cd1233 O1237 2.439 . S
Cd1233 O1243 2.240 . S
Cd1234 O1235 2.240 . S
Cd1234 O1242 2.223 . S
Cd1234 O1244 2.297 . S
Cd1234 O1245 2.439 . S
O1235 Cd1234 2.240 . S
O1235 C1240 1.279 . S
O1236 Cd1233 2.297 . S
O1236 C1238 1.247 . S
O1237 Cd1233 2.439 . S
O1237 C1238 1.208 . S
C1238 O1236 1.247 . S
C1238 O1237 1.208 . S
C1239 O1244 1.247 . S
C1239 O1245 1.208 . S
C1240 O1232 1.315 . S
C1240 O1235 1.279 . S
C1241 O1242 1.315 . S
C1241 O1243 1.279 . S
O1242 Cd1234 2.223 . S
O1242 C1241 1.315 . S
O1243 Cd1233 2.240 . S
O1243 C1241 1.279 . S
O1244 Cd1234 2.297 . S
O1244 C1239 1.247 . S
O1245 Cd1234 2.439 . S
O1245 C1239 1.208 . S
O1246 Cd1247 2.223 . S
O1246 C1254 1.315 . S
Cd1247 O1246 2.223 . S
Cd1247 O1250 2.297 . S
Cd1247 O1251 2.439 . S
Cd1247 O1257 2.240 . S
Cd1248 O1249 2.240 . S
Cd1248 O1256 2.223 . S
Cd1248 O1258 2.297 . S
Cd1248 O1259 2.439 . S
O1249 Cd1248 2.240 . S
O1249 C1254 1.279 . S
O1250 Cd1247 2.297 . S
O1250 C1252 1.247 . S
O1251 Cd1247 2.439 . S
O1251 C1252 1.208 . S
C1252 O1250 1.247 . S
C1252 O1251 1.208 . S
C1253 O1258 1.247 . S
C1253 O1259 1.208 . S
C1254 O1246 1.315 . S
C1254 O1249 1.279 . S
C1255 O1256 1.315 . S
C1255 O1257 1.279 . S
O1256 Cd1248 2.223 . S
O1256 C1255 1.315 . S
O1257 Cd1247 2.240 . S
O1257 C1255 1.279 . S
O1258 Cd1248 2.297 . S
O1258 C1253 1.247 . S
O1259 Cd1248 2.439 . S
O1259 C1253 1.208 . S
O1260 Cd1261 2.223 . S
O1260 C1268 1.315 . S
Cd1261 O1260 2.223 . S
Cd1261 O1264 2.297 . S
Cd1261 O1265 2.439 . S
Cd1261 O1271 2.240 . S
Cd1262 O1263 2.240 . S
Cd1262 O1270 2.223 . S
Cd1262 O1272 2.297 . S
Cd1262 O1273 2.439 . S
O1263 Cd1262 2.240 . S
O1263 C1268 1.279 . S
O1264 Cd1261 2.297 . S
O1264 C1266 1.247 . S
O1265 Cd1261 2.439 . S
O1265 C1266 1.208 . S
C1266 O1264 1.247 . S
C1266 O1265 1.208 . S
C1267 O1272 1.247 . S
C1267 O1273 1.208 . S
C1268 O1260 1.315 . S
C1268 O1263 1.279 . S
C1269 O1270 1.315 . S
C1269 O1271 1.279 . S
O1270 Cd1262 2.223 . S
O1270 C1269 1.315 . S
O1271 Cd1261 2.240 . S
O1271 C1269 1.279 . S
O1272 Cd1262 2.297 . S
O1272 C1267 1.247 . S
O1273 Cd1262 2.439 . S
O1273 C1267 1.208 . S
O1274 Cd1275 2.223 . S
O1274 C1282 1.315 . S
Cd1275 O1274 2.223 . S
Cd1275 O1278 2.297 . S
Cd1275 O1279 2.439 . S
Cd1275 O1285 2.240 . S
Cd1276 O1277 2.240 . S
Cd1276 O1284 2.223 . S
Cd1276 O1286 2.297 . S
Cd1276 O1287 2.439 . S
O1277 Cd1276 2.240 . S
O1277 C1282 1.279 . S
O1278 Cd1275 2.297 . S
O1278 C1280 1.247 . S
O1279 Cd1275 2.439 . S
O1279 C1280 1.208 . S
C1280 O1278 1.247 . S
C1280 O1279 1.208 . S
C1281 O1286 1.247 . S
C1281 O1287 1.208 . S
C1282 O1274 1.315 . S
C1282 O1277 1.279 . S
C1283 O1284 1.315 . S
C1283 O1285 1.279 . S
O1284 Cd1276 2.223 . S
O1284 C1283 1.315 . S
O1285 Cd1275 2.240 . S
O1285 C1283 1.279 . S
O1286 Cd1276 2.297 . S
O1286 C1281 1.247 . S
O1287 Cd1276 2.439 . S
O1287 C1281 1.208 . S
O1288 Cd1289 2.223 . S
O1288 C1296 1.315 . S
Cd1289 O1288 2.223 . S
Cd1289 O1292 2.297 . S
Cd1289 O1293 2.439 . S
Cd1289 O1299 2.240 . S
Cd1290 O1291 2.240 . S
Cd1290 O1298 2.223 . S
Cd1290 O1300 2.297 . S
Cd1290 O1301 2.439 . S
O1291 Cd1290 2.240 . S
O1291 C1296 1.279 . S
O1292 Cd1289 2.297 . S
O1292 C1294 1.247 . S
O1293 Cd1289 2.439 . S
O1293 C1294 1.208 . S
C1294 O1292 1.247 . S
C1294 O1293 1.208 . S
C1295 O1300 1.247 . S
C1295 O1301 1.208 . S
C1296 O1288 1.315 . S
C1296 O1291 1.279 . S
C1297 O1298 1.315 . S
C1297 O1299 1.279 . S
O1298 Cd1290 2.223 . S
O1298 C1297 1.315 . S
O1299 Cd1289 2.240 . S
O1299 C1297 1.279 . S
O1300 Cd1290 2.297 . S
O1300 C1295 1.247 . S
O1301 Cd1290 2.439 . S
O1301 C1295 1.208 . S
O1302 Cd1303 2.223 . S
O1302 C1310 1.315 . S
Cd1303 O1302 2.223 . S
Cd1303 O1306 2.297 . S
Cd1303 O1307 2.439 . S
Cd1303 O1313 2.240 . S
Cd1304 O1305 2.240 . S
Cd1304 O1312 2.223 . S
Cd1304 O1314 2.297 . S
Cd1304 O1315 2.439 . S
O1305 Cd1304 2.240 . S
O1305 C1310 1.279 . S
O1306 Cd1303 2.297 . S
O1306 C1308 1.247 . S
O1307 Cd1303 2.439 . S
O1307 C1308 1.208 . S
C1308 O1306 1.247 . S
C1308 O1307 1.208 . S
C1309 O1314 1.247 . S
C1309 O1315 1.208 . S
C1310 O1302 1.315 . S
C1310 O1305 1.279 . S
C1311 O1312 1.315 . S
C1311 O1313 1.279 . S
O1312 Cd1304 2.223 . S
O1312 C1311 1.315 . S
O1313 Cd1303 2.240 . S
O1313 C1311 1.279 . S
O1314 Cd1304 2.297 . S
O1314 C1309 1.247 . S
O1315 Cd1304 2.439 . S
O1315 C1309 1.208 . S
O1316 Cd1317 2.223 . S
O1316 C1324 1.315 . S
Cd1317 O1316 2.223 . S
Cd1317 O1320 2.297 . S
Cd1317 O1321 2.439 . S
Cd1317 O1327 2.240 . S
Cd1318 O1319 2.240 . S
Cd1318 O1326 2.223 . S
Cd1318 O1328 2.297 . S
Cd1318 O1329 2.439 . S
O1319 Cd1318 2.240 . S
O1319 C1324 1.279 . S
O1320 Cd1317 2.297 . S
O1320 C1322 1.247 . S
O1321 Cd1317 2.439 . S
O1321 C1322 1.208 . S
C1322 O1320 1.247 . S
C1322 O1321 1.208 . S
C1323 O1328 1.247 . S
C1323 O1329 1.208 . S
C1324 O1316 1.315 . S
C1324 O1319 1.279 . S
C1325 O1326 1.315 . S
C1325 O1327 1.279 . S
O1326 Cd1318 2.223 . S
O1326 C1325 1.315 . S
O1327 Cd1317 2.240 . S
O1327 C1325 1.279 . S
O1328 Cd1318 2.297 . S
O1328 C1323 1.247 . S
O1329 Cd1318 2.439 . S
O1329 C1323 1.208 . S
O1330 Cd1331 2.223 . S
O1330 C1338 1.315 . S
Cd1331 O1330 2.223 . S
Cd1331 O1334 2.297 . S
Cd1331 O1335 2.439 . S
Cd1331 O1341 2.240 . S
Cd1332 O1333 2.240 . S
Cd1332 O1340 2.223 . S
Cd1332 O1342 2.297 . S
Cd1332 O1343 2.439 . S
O1333 Cd1332 2.240 . S
O1333 C1338 1.279 . S
O1334 Cd1331 2.297 . S
O1334 C1336 1.247 . S
O1335 Cd1331 2.439 . S
O1335 C1336 1.208 . S
C1336 O1334 1.247 . S
C1336 O1335 1.208 . S
C1337 O1342 1.247 . S
C1337 O1343 1.208 . S
C1338 O1330 1.315 . S
C1338 O1333 1.279 . S
C1339 O1340 1.315 . S
C1339 O1341 1.279 . S
O1340 Cd1332 2.223 . S
O1340 C1339 1.315 . S
O1341 Cd1331 2.240 . S
O1341 C1339 1.279 . S
O1342 Cd1332 2.297 . S
O1342 C1337 1.247 . S
O1343 Cd1332 2.439 . S
O1343 C1337 1.208 . S
C1344 C1345 1.387 . S
C1344 H1348 0.950 . S
C1344 C1353 1.390 1_454 S
C1345 C1344 1.387 . S
C1345 C1347 1.387 . S
H1346 C1353 0.950 . S
C1347 C1345 1.387 . S
C1347 C1349 1.390 1_454 S
C1347 H1351 0.950 . S
H1348 C1344 0.950 . S
C1349 C1347 1.390 1_656 S
C1349 C1350 1.387 . S
C1349 H1352 0.950 . S
C1350 C1349 1.387 . S
C1350 C1353 1.387 . S
H1351 C1347 0.950 . S
H1352 C1349 0.950 . S
C1353 C1344 1.390 1_656 S
C1353 H1346 0.950 . S
C1353 C1350 1.387 . S
C1354 C1355 1.387 . S
C1354 H1358 0.950 . S
C1354 C1363 1.390 . S
C1355 C1354 1.387 . S
C1355 C1357 1.387 . S
H1356 C1363 0.950 . S
C1357 C1355 1.387 . S
C1357 C1359 1.390 . S
C1357 H1361 0.950 . S
H1358 C1354 0.950 . S
C1359 C1357 1.390 . S
C1359 C1360 1.387 . S
C1359 H1362 0.950 . S
C1360 C1359 1.387 . S
C1360 C1363 1.387 . S
H1361 C1357 0.950 . S
H1362 C1359 0.950 . S
C1363 C1354 1.390 . S
C1363 H1356 0.950 . S
C1363 C1360 1.387 . S
C1364 C1365 1.387 . S
C1364 H1368 0.950 . S
C1364 C1373 1.390 1_655 S
C1365 C1364 1.387 . S
C1365 C1367 1.387 . S
H1366 C1373 0.950 . S
C1367 C1365 1.387 . S
C1367 C1369 1.390 1_655 S
C1367 H1371 0.950 . S
H1368 C1364 0.950 . S
C1369 C1367 1.390 1_455 S
C1369 C1370 1.387 . S
C1369 H1372 0.950 . S
C1370 C1369 1.387 . S
C1370 C1373 1.387 . S
H1371 C1367 0.950 . S
H1372 C1369 0.950 . S
C1373 C1364 1.390 1_455 S
C1373 H1366 0.950 . S
C1373 C1370 1.387 . S
C1374 C1375 1.387 . S
C1374 H1378 0.950 . S
C1374 C1383 1.390 . S
C1375 C1374 1.387 . S
C1375 C1377 1.387 . S
H1376 C1383 0.950 . S
C1377 C1375 1.387 . S
C1377 C1379 1.390 . S
C1377 H1381 0.950 . S
H1378 C1374 0.950 . S
C1379 C1377 1.390 . S
C1379 C1380 1.387 . S
C1379 H1382 0.950 . S
C1380 C1379 1.387 . S
C1380 C1383 1.387 . S
H1381 C1377 0.950 . S
H1382 C1379 0.950 . S
C1383 C1374 1.390 . S
C1383 H1376 0.950 . S
C1383 C1380 1.387 . S
C1384 C1385 1.387 . S
C1384 H1388 0.950 . S
C1384 C1393 1.390 1_654 S
C1385 C1384 1.387 . S
C1385 C1387 1.387 . S
H1386 C1393 0.950 . S
C1387 C1385 1.387 . S
C1387 C1389 1.390 1_654 S
C1387 H1391 0.950 . S
H1388 C1384 0.950 . S
C1389 C1387 1.390 1_456 S
C1389 C1390 1.387 . S
C1389 H1392 0.950 . S
C1390 C1389 1.387 . S
C1390 C1393 1.387 . S
H1391 C1387 0.950 . S
H1392 C1389 0.950 . S
C1393 C1384 1.390 1_456 S
C1393 H1386 0.950 . S
C1393 C1390 1.387 . S
C1394 C1395 1.387 . S
C1394 H1398 0.950 . S
C1394 C1403 1.390 . S
C1395 C1394 1.387 . S
C1395 C1397 1.387 . S
H1396 C1403 0.950 . S
C1397 C1395 1.387 . S
C1397 C1399 1.390 . S
C1397 H1401 0.950 . S
H1398 C1394 0.950 . S
C1399 C1397 1.390 . S
C1399 C1400 1.387 . S
C1399 H1402 0.950 . S
C1400 C1399 1.387 . S
C1400 C1403 1.387 . S
H1401 C1397 0.950 . S
H1402 C1399 0.950 . S
C1403 C1394 1.390 . S
C1403 H1396 0.950 . S
C1403 C1400 1.387 . S
C1404 C1405 1.387 . S
C1404 H1408 0.950 . S
C1404 C1413 1.390 1_455 S
C1405 C1404 1.387 . S
C1405 C1407 1.387 . S
H1406 C1413 0.950 . S
C1407 C1405 1.387 . S
C1407 C1409 1.390 1_455 S
C1407 H1411 0.950 . S
H1408 C1404 0.950 . S
C1409 C1407 1.390 1_655 S
C1409 C1410 1.387 . S
C1409 H1412 0.950 . S
C1410 C1409 1.387 . S
C1410 C1413 1.387 . S
H1411 C1407 0.950 . S
H1412 C1409 0.950 . S
C1413 C1404 1.390 1_655 S
C1413 H1406 0.950 . S
C1413 C1410 1.387 . S
C1414 C1415 1.387 . S
C1414 H1418 0.950 . S
C1414 C1423 1.390 . S
C1415 C1414 1.387 . S
C1415 C1417 1.387 . S
H1416 C1423 0.950 . S
C1417 C1415 1.387 . S
C1417 C1419 1.390 . S
C1417 H1421 0.950 . S
H1418 C1414 0.950 . S
C1419 C1417 1.390 . S
C1419 C1420 1.387 . S
C1419 H1422 0.950 . S
C1420 C1419 1.387 . S
C1420 C1423 1.387 . S
H1421 C1417 0.950 . S
H1422 C1419 0.950 . S
C1423 C1414 1.390 . S
C1423 H1416 0.950 . S
C1423 C1420 1.387 . S
C1424 C1425 1.387 . S
C1424 H1428 0.950 . S
C1424 C1433 1.390 1_665 S
C1425 C1424 1.387 . S
C1425 C1427 1.387 . S
H1426 C1433 0.950 . S
C1427 C1425 1.387 . S
C1427 C1429 1.390 1_665 S
C1427 H1431 0.950 . S
H1428 C1424 0.950 . S
C1429 C1427 1.390 1_445 S
C1429 C1430 1.387 . S
C1429 H1432 0.950 . S
C1430 C1429 1.387 . S
C1430 C1433 1.387 . S
H1431 C1427 0.950 . S
H1432 C1429 0.950 . S
C1433 C1424 1.390 1_445 S
C1433 H1426 0.950 . S
C1433 C1430 1.387 . S
C1434 C1435 1.387 . S
C1434 H1438 0.950 . S
C1434 C1443 1.390 . S
C1435 C1434 1.387 . S
C1435 C1437 1.387 . S
H1436 C1443 0.950 . S
C1437 C1435 1.387 . S
C1437 C1439 1.390 . S
C1437 H1441 0.950 . S
H1438 C1434 0.950 . S
C1439 C1437 1.390 . S
C1439 C1440 1.387 . S
C1439 H1442 0.950 . S
C1440 C1439 1.387 . S
C1440 C1443 1.387 . S
H1441 C1437 0.950 . S
H1442 C1439 0.950 . S
C1443 C1434 1.390 . S
C1443 H1436 0.950 . S
C1443 C1440 1.387 . S
C1444 C1445 1.387 . S
C1444 H1448 0.950 . S
C1444 C1453 1.390 1_655 S
C1445 C1444 1.387 . S
C1445 C1447 1.387 . S
H1446 C1453 0.950 . S
C1447 C1445 1.387 . S
C1447 C1449 1.390 1_655 S
C1447 H1451 0.950 . S
H1448 C1444 0.950 . S
C1449 C1447 1.390 1_455 S
C1449 C1450 1.387 . S
C1449 H1452 0.950 . S
C1450 C1449 1.387 . S
C1450 C1453 1.387 . S
H1451 C1447 0.950 . S
H1452 C1449 0.950 . S
C1453 C1444 1.390 1_455 S
C1453 H1446 0.950 . S
C1453 C1450 1.387 . S
C1454 C1455 1.387 . S
C1454 H1458 0.950 . S
C1454 C1463 1.390 . S
C1455 C1454 1.387 . S
C1455 C1457 1.387 . S
H1456 C1463 0.950 . S
C1457 C1455 1.387 . S
C1457 C1459 1.390 . S
C1457 H1461 0.950 . S
H1458 C1454 0.950 . S
C1459 C1457 1.390 . S
C1459 C1460 1.387 . S
C1459 H1462 0.950 . S
C1460 C1459 1.387 . S
C1460 C1463 1.387 . S
H1461 C1457 0.950 . S
H1462 C1459 0.950 . S
C1463 C1454 1.390 . S
C1463 H1456 0.950 . S
C1463 C1460 1.387 . S
C1464 C1465 1.387 . S
C1464 H1468 0.950 . S
C1464 C1473 1.390 1_465 S
C1465 C1464 1.387 . S
C1465 C1467 1.387 . S
H1466 C1473 0.950 . S
C1467 C1465 1.387 . S
C1467 C1469 1.390 1_465 S
C1467 H1471 0.950 . S
H1468 C1464 0.950 . S
C1469 C1467 1.390 1_645 S
C1469 C1470 1.387 . S
C1469 H1472 0.950 . S
C1470 C1469 1.387 . S
C1470 C1473 1.387 . S
H1471 C1467 0.950 . S
H1472 C1469 0.950 . S
C1473 C1464 1.390 1_645 S
C1473 H1466 0.950 . S
C1473 C1470 1.387 . S
C1474 C1475 1.387 . S
C1474 H1478 0.950 . S
C1474 C1483 1.390 . S
C1475 C1474 1.387 . S
C1475 C1477 1.387 . S
H1476 C1483 0.950 . S
C1477 C1475 1.387 . S
C1477 C1479 1.390 . S
C1477 H1481 0.950 . S
H1478 C1474 0.950 . S
C1479 C1477 1.390 . S
C1479 C1480 1.387 . S
C1479 H1482 0.950 . S
C1480 C1479 1.387 . S
C1480 C1483 1.387 . S
H1481 C1477 0.950 . S
H1482 C1479 0.950 . S
C1483 C1474 1.390 . S
C1483 H1476 0.950 . S
C1483 C1480 1.387 . S
C1484 C1485 1.387 . S
C1484 H1488 0.950 . S
C1484 C1493 1.390 1_455 S
C1485 C1484 1.387 . S
C1485 C1487 1.387 . S
H1486 C1493 0.950 . S
C1487 C1485 1.387 . S
C1487 C1489 1.390 1_455 S
C1487 H1491 0.950 . S
H1488 C1484 0.950 . S
C1489 C1487 1.390 1_655 S
C1489 C1490 1.387 . S
C1489 H1492 0.950 . S
C1490 C1489 1.387 . S
C1490 C1493 1.387 . S
H1491 C1487 0.950 . S
H1492 C1489 0.950 . S
C1493 C1484 1.390 1_655 S
C1493 H1486 0.950 . S
C1493 C1490 1.387 . S
C1494 C1495 1.387 . S
C1494 H1498 0.950 . S
C1494 C1503 1.390 . S
C1495 C1494 1.387 . S
C1495 C1497 1.387 . S
H1496 C1503 0.950 . S
C1497 C1495 1.387 . S
C1497 C1499 1.390 . S
C1497 H1501 0.950 . S
H1498 C1494 0.950 . S
C1499 C1497 1.390 . S
C1499 C1500 1.387 . S
C1499 H1502 0.950 . S
C1500 C1499 1.387 . S
C1500 C1503 1.387 . S
H1501 C1497 0.950 . S
H1502 C1499 0.950 . S
C1503 C1494 1.390 . S
C1503 H1496 0.950 . S
C1503 C1500 1.387 . S
C1504 C1505 1.387 . S
C1504 H1508 0.950 . S
C1504 C1513 1.390 1_566 S
C1505 C1504 1.387 . S
C1505 C1507 1.387 . S
H1506 C1513 0.950 . S
C1507 C1505 1.387 . S
C1507 C1509 1.390 1_566 S
C1507 H1511 0.950 . S
H1508 C1504 0.950 . S
C1509 C1507 1.390 1_544 S
C1509 C1510 1.387 . S
C1509 H1512 0.950 . S
C1510 C1509 1.387 . S
C1510 C1513 1.387 . S
H1511 C1507 0.950 . S
H1512 C1509 0.950 . S
C1513 C1504 1.390 1_544 S
C1513 H1506 0.950 . S
C1513 C1510 1.387 . S
C1514 C1515 1.387 . S
C1514 H1518 0.950 . S
C1514 C1523 1.390 1_545 S
C1515 C1514 1.387 . S
C1515 C1517 1.387 . S
H1516 C1523 0.950 . S
C1517 C1515 1.387 . S
C1517 C1519 1.390 1_545 S
C1517 H1521 0.950 . S
H1518 C1514 0.950 . S
C1519 C1517 1.390 1_565 S
C1519 C1520 1.387 . S
C1519 H1522 0.950 . S
C1520 C1519 1.387 . S
C1520 C1523 1.387 . S
H1521 C1517 0.950 . S
H1522 C1519 0.950 . S
C1523 C1514 1.390 1_565 S
C1523 H1516 0.950 . S
C1523 C1520 1.387 . S
C1524 C1525 1.387 . S
C1524 H1528 0.950 . S
C1524 C1533 1.390 . S
C1525 C1524 1.387 . S
C1525 C1527 1.387 . S
H1526 C1533 0.950 . S
C1527 C1525 1.387 . S
C1527 C1529 1.390 . S
C1527 H1531 0.950 . S
H1528 C1524 0.950 . S
C1529 C1527 1.390 . S
C1529 C1530 1.387 . S
C1529 H1532 0.950 . S
C1530 C1529 1.387 . S
C1530 C1533 1.387 . S
H1531 C1527 0.950 . S
H1532 C1529 0.950 . S
C1533 C1524 1.390 . S
C1533 H1526 0.950 . S
C1533 C1530 1.387 . S
C1534 C1535 1.387 . S
C1534 H1538 0.950 . S
C1534 C1543 1.390 1_554 S
C1535 C1534 1.387 . S
C1535 C1537 1.387 . S
H1536 C1543 0.950 . S
C1537 C1535 1.387 . S
C1537 C1539 1.390 1_554 S
C1537 H1541 0.950 . S
H1538 C1534 0.950 . S
C1539 C1537 1.390 1_556 S
C1539 C1540 1.387 . S
C1539 H1542 0.950 . S
C1540 C1539 1.387 . S
C1540 C1543 1.387 . S
H1541 C1537 0.950 . S
H1542 C1539 0.950 . S
C1543 C1534 1.390 1_556 S
C1543 H1536 0.950 . S
C1543 C1540 1.387 . S
C1544 C1545 1.387 . S
C1544 H1548 0.950 . S
C1544 C1553 1.390 . S
C1545 C1544 1.387 . S
C1545 C1547 1.387 . S
H1546 C1553 0.950 . S
C1547 C1545 1.387 . S
C1547 C1549 1.390 . S
C1547 H1551 0.950 . S
H1548 C1544 0.950 . S
C1549 C1547 1.390 . S
C1549 C1550 1.387 . S
C1549 H1552 0.950 . S
C1550 C1549 1.387 . S
C1550 C1553 1.387 . S
H1551 C1547 0.950 . S
H1552 C1549 0.950 . S
C1553 C1544 1.390 . S
C1553 H1546 0.950 . S
C1553 C1550 1.387 . S
C1554 C1555 1.387 . S
C1554 H1558 0.950 . S
C1554 C1563 1.390 1_564 S
C1555 C1554 1.387 . S
C1555 C1557 1.387 . S
H1556 C1563 0.950 . S
C1557 C1555 1.387 . S
C1557 C1559 1.390 1_564 S
C1557 H1561 0.950 . S
H1558 C1554 0.950 . S
C1559 C1557 1.390 1_546 S
C1559 C1560 1.387 . S
C1559 H1562 0.950 . S
C1560 C1559 1.387 . S
C1560 C1563 1.387 . S
H1561 C1557 0.950 . S
H1562 C1559 0.950 . S
C1563 C1554 1.390 1_546 S
C1563 H1556 0.950 . S
C1563 C1560 1.387 . S
C1564 C1565 1.387 . S
C1564 H1568 0.950 . S
C1564 C1573 1.390 . S
C1565 C1564 1.387 . S
C1565 C1567 1.387 . S
H1566 C1573 0.950 . S
C1567 C1565 1.387 . S
C1567 C1569 1.390 . S
C1567 H1571 0.950 . S
H1568 C1564 0.950 . S
C1569 C1567 1.390 . S
C1569 C1570 1.387 . S
C1569 H1572 0.950 . S
C1570 C1569 1.387 . S
C1570 C1573 1.387 . S
H1571 C1567 0.950 . S
H1572 C1569 0.950 . S
C1573 C1564 1.390 . S
C1573 H1566 0.950 . S
C1573 C1570 1.387 . S
C1574 C1575 1.387 . S
C1574 H1578 0.950 . S
C1574 C1583 1.390 . S
C1575 C1574 1.387 . S
C1575 C1577 1.387 . S
H1576 C1583 0.950 . S
C1577 C1575 1.387 . S
C1577 C1579 1.390 . S
C1577 H1581 0.950 . S
H1578 C1574 0.950 . S
C1579 C1577 1.390 . S
C1579 C1580 1.387 . S
C1579 H1582 0.950 . S
C1580 C1579 1.387 . S
C1580 C1583 1.387 . S
H1581 C1577 0.950 . S
H1582 C1579 0.950 . S
C1583 C1574 1.390 . S
C1583 H1576 0.950 . S
C1583 C1580 1.387 . S
C1584 C1585 1.387 . S
C1584 H1588 0.950 . S
C1584 C1593 1.390 . S
C1585 C1584 1.387 . S
C1585 C1587 1.387 . S
H1586 C1593 0.950 . S
C1587 C1585 1.387 . S
C1587 C1589 1.390 . S
C1587 H1591 0.950 . S
H1588 C1584 0.950 . S
C1589 C1587 1.390 . S
C1589 C1590 1.387 . S
C1589 H1592 0.950 . S
C1590 C1589 1.387 . S
C1590 C1593 1.387 . S
H1591 C1587 0.950 . S
H1592 C1589 0.950 . S
C1593 C1584 1.390 . S
C1593 H1586 0.950 . S
C1593 C1590 1.387 . S
C1594 C1595 1.387 . S
C1594 H1598 0.950 . S
C1594 C1603 1.390 . S
C1595 C1594 1.387 . S
C1595 C1597 1.387 . S
H1596 C1603 0.950 . S
C1597 C1595 1.387 . S
C1597 C1599 1.390 . S
C1597 H1601 0.950 . S
H1598 C1594 0.950 . S
C1599 C1597 1.390 . S
C1599 C1600 1.387 . S
C1599 H1602 0.950 . S
C1600 C1599 1.387 . S
C1600 C1603 1.387 . S
H1601 C1597 0.950 . S
H1602 C1599 0.950 . S
C1603 C1594 1.390 . S
C1603 H1596 0.950 . S
C1603 C1600 1.387 . S
C1604 C1605 1.387 . S
C1604 H1608 0.950 . S
C1604 C1613 1.390 . S
C1605 C1604 1.387 . S
C1605 C1607 1.387 . S
H1606 C1613 0.950 . S
C1607 C1605 1.387 . S
C1607 C1609 1.390 . S
C1607 H1611 0.950 . S
H1608 C1604 0.950 . S
C1609 C1607 1.390 . S
C1609 C1610 1.387 . S
C1609 H1612 0.950 . S
C1610 C1609 1.387 . S
C1610 C1613 1.387 . S
H1611 C1607 0.950 . S
H1612 C1609 0.950 . S
C1613 C1604 1.390 . S
C1613 H1606 0.950 . S
C1613 C1610 1.387 . S
C1614 C1615 1.387 . S
C1614 H1618 0.950 . S
C1614 C1623 1.390 . S
C1615 C1614 1.387 . S
C1615 C1617 1.387 . S
H1616 C1623 0.950 . S
C1617 C1615 1.387 . S
C1617 C1619 1.390 . S
C1617 H1621 0.950 . S
H1618 C1614 0.950 . S
C1619 C1617 1.390 . S
C1619 C1620 1.387 . S
C1619 H1622 0.950 . S
C1620 C1619 1.387 . S
C1620 C1623 1.387 . S
H1621 C1617 0.950 . S
H1622 C1619 0.950 . S
C1623 C1614 1.390 . S
C1623 H1616 0.950 . S
C1623 C1620 1.387 . S
C1624 C1625 1.387 . S
C1624 H1628 0.950 . S
C1624 C1633 1.390 . S
C1625 C1624 1.387 . S
C1625 C1627 1.387 . S
H1626 C1633 0.950 . S
C1627 C1625 1.387 . S
C1627 C1629 1.390 . S
C1627 H1631 0.950 . S
H1628 C1624 0.950 . S
C1629 C1627 1.390 . S
C1629 C1630 1.387 . S
C1629 H1632 0.950 . S
C1630 C1629 1.387 . S
C1630 C1633 1.387 . S
H1631 C1627 0.950 . S
H1632 C1629 0.950 . S
C1633 C1624 1.390 . S
C1633 H1626 0.950 . S
C1633 C1630 1.387 . S
C1634 C1635 1.387 . S
C1634 H1638 0.950 . S
C1634 C1643 1.390 . S
C1635 C1634 1.387 . S
C1635 C1637 1.387 . S
H1636 C1643 0.950 . S
C1637 C1635 1.387 . S
C1637 C1639 1.390 . S
C1637 H1641 0.950 . S
H1638 C1634 0.950 . S
C1639 C1637 1.390 . S
C1639 C1640 1.387 . S
C1639 H1642 0.950 . S
C1640 C1639 1.387 . S
C1640 C1643 1.387 . S
H1641 C1637 0.950 . S
H1642 C1639 0.950 . S
C1643 C1634 1.390 . S
C1643 H1636 0.950 . S
C1643 C1640 1.387 . S
C1644 C1645 1.387 . S
C1644 H1648 0.950 . S
C1644 C1653 1.390 . S
C1645 C1644 1.387 . S
C1645 C1647 1.387 . S
H1646 C1653 0.950 . S
C1647 C1645 1.387 . S
C1647 C1649 1.390 . S
C1647 H1651 0.950 . S
H1648 C1644 0.950 . S
C1649 C1647 1.390 . S
C1649 C1650 1.387 . S
C1649 H1652 0.950 . S
C1650 C1649 1.387 . S
C1650 C1653 1.387 . S
H1651 C1647 0.950 . S
H1652 C1649 0.950 . S
C1653 C1644 1.390 . S
C1653 H1646 0.950 . S
C1653 C1650 1.387 . S
C1654 C1655 1.387 . S
C1654 H1658 0.950 . S
C1654 C1663 1.390 . S
C1655 C1654 1.387 . S
C1655 C1657 1.387 . S
H1656 C1663 0.950 . S
C1657 C1655 1.387 . S
C1657 C1659 1.390 . S
C1657 H1661 0.950 . S
H1658 C1654 0.950 . S
C1659 C1657 1.390 . S
C1659 C1660 1.387 . S
C1659 H1662 0.950 . S
C1660 C1659 1.387 . S
C1660 C1663 1.387 . S
H1661 C1657 0.950 . S
H1662 C1659 0.950 . S
C1663 C1654 1.390 . S
C1663 H1656 0.950 . S
C1663 C1660 1.387 . S
C1664 C1665 1.387 . S
C1664 H1668 0.950 . S
C1664 C1673 1.390 . S
C1665 C1664 1.387 . S
C1665 C1667 1.387 . S
H1666 C1673 0.950 . S
C1667 C1665 1.387 . S
C1667 C1669 1.390 . S
C1667 H1671 0.950 . S
H1668 C1664 0.950 . S
C1669 C1667 1.390 . S
C1669 C1670 1.387 . S
C1669 H1672 0.950 . S
C1670 C1669 1.387 . S
C1670 C1673 1.387 . S
H1671 C1667 0.950 . S
H1672 C1669 0.950 . S
C1673 C1664 1.390 . S
C1673 H1666 0.950 . S
C1673 C1670 1.387 . S
C1674 C1675 1.387 . S
C1674 H1678 0.950 . S
C1674 C1683 1.390 1_556 S
C1675 C1674 1.387 . S
C1675 C1677 1.387 . S
H1676 C1683 0.950 . S
C1677 C1675 1.387 . S
C1677 C1679 1.390 1_556 S
C1677 H1681 0.950 . S
H1678 C1674 0.950 . S
C1679 C1677 1.390 1_554 S
C1679 C1680 1.387 . S
C1679 H1682 0.950 . S
C1680 C1679 1.387 . S
C1680 C1683 1.387 . S
H1681 C1677 0.950 . S
H1682 C1679 0.950 . S
C1683 C1674 1.390 1_554 S
C1683 H1676 0.950 . S
C1683 C1680 1.387 . S
C1684 C1685 1.387 . S
C1684 H1688 0.950 . S
C1684 C1693 1.390 . S
C1685 C1684 1.387 . S
C1685 C1687 1.387 . S
H1686 C1693 0.950 . S
C1687 C1685 1.387 . S
C1687 C1689 1.390 . S
C1687 H1691 0.950 . S
H1688 C1684 0.950 . S
C1689 C1687 1.390 . S
C1689 C1690 1.387 . S
C1689 H1692 0.950 . S
C1690 C1689 1.387 . S
C1690 C1693 1.387 . S
H1691 C1687 0.950 . S
H1692 C1689 0.950 . S
C1693 C1684 1.390 . S
C1693 H1686 0.950 . S
C1693 C1690 1.387 . S
C1694 C1695 1.387 . S
C1694 H1698 0.950 . S
C1694 C1703 1.390 1_565 S
C1695 C1694 1.387 . S
C1695 C1697 1.387 . S
H1696 C1703 0.950 . S
C1697 C1695 1.387 . S
C1697 C1699 1.390 1_565 S
C1697 H1701 0.950 . S
H1698 C1694 0.950 . S
C1699 C1697 1.390 1_545 S
C1699 C1700 1.387 . S
C1699 H1702 0.950 . S
C1700 C1699 1.387 . S
C1700 C1703 1.387 . S
H1701 C1697 0.950 . S
H1702 C1699 0.950 . S
C1703 C1694 1.390 1_545 S
C1703 H1696 0.950 . S
C1703 C1700 1.387 . S
C1704 C1705 1.387 . S
C1704 H1708 0.950 . S
C1704 C1713 1.390 . S
C1705 C1704 1.387 . S
C1705 C1707 1.387 . S
H1706 C1713 0.950 . S
C1707 C1705 1.387 . S
C1707 C1709 1.390 . S
C1707 H1711 0.950 . S
H1708 C1704 0.950 . S
C1709 C1707 1.390 . S
C1709 C1710 1.387 . S
C1709 H1712 0.950 . S
C1710 C1709 1.387 . S
C1710 C1713 1.387 . S
H1711 C1707 0.950 . S
H1712 C1709 0.950 . S
C1713 C1704 1.390 . S
C1713 H1706 0.950 . S
C1713 C1710 1.387 . S
C1714 C1715 1.387 . S
C1714 H1718 0.950 . S
C1714 C1723 1.390 . S
C1715 C1714 1.387 . S
C1715 C1717 1.387 . S
H1716 C1723 0.950 . S
C1717 C1715 1.387 . S
C1717 C1719 1.390 . S
C1717 H1721 0.950 . S
H1718 C1714 0.950 . S
C1719 C1717 1.390 . S
C1719 C1720 1.387 . S
C1719 H1722 0.950 . S
C1720 C1719 1.387 . S
C1720 C1723 1.387 . S
H1721 C1717 0.950 . S
H1722 C1719 0.950 . S
C1723 C1714 1.390 . S
C1723 H1716 0.950 . S
C1723 C1720 1.387 . S
C1724 C1725 1.387 . S
C1724 H1728 0.950 . S
C1724 C1733 1.390 . S
C1725 C1724 1.387 . S
C1725 C1727 1.387 . S
H1726 C1733 0.950 . S
C1727 C1725 1.387 . S
C1727 C1729 1.390 . S
C1727 H1731 0.950 . S
H1728 C1724 0.950 . S
C1729 C1727 1.390 . S
C1729 C1730 1.387 . S
C1729 H1732 0.950 . S
C1730 C1729 1.387 . S
C1730 C1733 1.387 . S
H1731 C1727 0.950 . S
H1732 C1729 0.950 . S
C1733 C1724 1.390 . S
C1733 H1726 0.950 . S
C1733 C1730 1.387 . S
C1734 C1735 1.387 . S
C1734 H1738 0.950 . S
C1734 C1743 1.390 1_556 S
C1735 C1734 1.387 . S
C1735 C1737 1.387 . S
H1736 C1743 0.950 . S
C1737 C1735 1.387 . S
C1737 C1739 1.390 1_556 S
C1737 H1741 0.950 . S
H1738 C1734 0.950 . S
C1739 C1737 1.390 1_554 S
C1739 C1740 1.387 . S
C1739 H1742 0.950 . S
C1740 C1739 1.387 . S
C1740 C1743 1.387 . S
H1741 C1737 0.950 . S
H1742 C1739 0.950 . S
C1743 C1734 1.390 1_554 S
C1743 H1736 0.950 . S
C1743 C1740 1.387 . S
C1744 C1745 1.387 . S
C1744 H1748 0.950 . S
C1744 C1753 1.390 . S
C1745 C1744 1.387 . S
C1745 C1747 1.387 . S
H1746 C1753 0.950 . S
C1747 C1745 1.387 . S
C1747 C1749 1.390 . S
C1747 H1751 0.950 . S
H1748 C1744 0.950 . S
C1749 C1747 1.390 . S
C1749 C1750 1.387 . S
C1749 H1752 0.950 . S
C1750 C1749 1.387 . S
C1750 C1753 1.387 . S
H1751 C1747 0.950 . S
H1752 C1749 0.950 . S
C1753 C1744 1.390 . S
C1753 H1746 0.950 . S
C1753 C1750 1.387 . S
C1754 C1755 1.387 . S
C1754 H1758 0.950 . S
C1754 C1763 1.390 1_556 S
C1755 C1754 1.387 . S
C1755 C1757 1.387 . S
H1756 C1763 0.950 . S
C1757 C1755 1.387 . S
C1757 C1759 1.390 1_556 S
C1757 H1761 0.950 . S
H1758 C1754 0.950 . S
C1759 C1757 1.390 1_554 S
C1759 C1760 1.387 . S
C1759 H1762 0.950 . S
C1760 C1759 1.387 . S
C1760 C1763 1.387 . S
H1761 C1757 0.950 . S
H1762 C1759 0.950 . S
C1763 C1754 1.390 1_554 S
C1763 H1756 0.950 . S
C1763 C1760 1.387 . S
C1764 C1765 1.387 . S
C1764 H1768 0.950 . S
C1764 C1773 1.390 1_565 S
C1765 C1764 1.387 . S
C1765 C1767 1.387 . S
H1766 C1773 0.950 . S
C1767 C1765 1.387 . S
C1767 C1769 1.390 1_565 S
C1767 H1771 0.950 . S
H1768 C1764 0.950 . S
C1769 C1767 1.390 1_545 S
C1769 C1770 1.387 . S
C1769 H1772 0.950 . S
C1770 C1769 1.387 . S
C1770 C1773 1.387 . S
H1771 C1767 0.950 . S
H1772 C1769 0.950 . S
C1773 C1764 1.390 1_545 S
C1773 H1766 0.950 . S
C1773 C1770 1.387 . S
C1774 C1775 1.387 . S
C1774 H1778 0.950 . S
C1774 C1783 1.390 . S
C1775 C1774 1.387 . S
C1775 C1777 1.387 . S
H1776 C1783 0.950 . S
C1777 C1775 1.387 . S
C1777 C1779 1.390 . S
C1777 H1781 0.950 . S
H1778 C1774 0.950 . S
C1779 C1777 1.390 . S
C1779 C1780 1.387 . S
C1779 H1782 0.950 . S
C1780 C1779 1.387 . S
C1780 C1783 1.387 . S
H1781 C1777 0.950 . S
H1782 C1779 0.950 . S
C1783 C1774 1.390 . S
C1783 H1776 0.950 . S
C1783 C1780 1.387 . S
C1784 C1785 1.387 . S
C1784 H1788 0.950 . S
C1784 C1793 1.390 1_565 S
C1785 C1784 1.387 . S
C1785 C1787 1.387 . S
H1786 C1793 0.950 . S
C1787 C1785 1.387 . S
C1787 C1789 1.390 1_565 S
C1787 H1791 0.950 . S
H1788 C1784 0.950 . S
C1789 C1787 1.390 1_545 S
C1789 C1790 1.387 . S
C1789 H1792 0.950 . S
C1790 C1789 1.387 . S
C1790 C1793 1.387 . S
H1791 C1787 0.950 . S
H1792 C1789 0.950 . S
C1793 C1784 1.390 1_545 S
C1793 H1786 0.950 . S
C1793 C1790 1.387 . S
C1794 C1795 1.387 . S
C1794 H1798 0.950 . S
C1794 C1803 1.390 . S
C1795 C1794 1.387 . S
C1795 C1797 1.387 . S
H1796 C1803 0.950 . S
C1797 C1795 1.387 . S
C1797 C1799 1.390 . S
C1797 H1801 0.950 . S
H1798 C1794 0.950 . S
C1799 C1797 1.390 . S
C1799 C1800 1.387 . S
C1799 H1802 0.950 . S
C1800 C1799 1.387 . S
C1800 C1803 1.387 . S
H1801 C1797 0.950 . S
H1802 C1799 0.950 . S
C1803 C1794 1.390 . S
C1803 H1796 0.950 . S
C1803 C1800 1.387 . S
C1804 C1805 1.387 . S
C1804 H1808 0.950 . S
C1804 C1813 1.390 . S
C1805 C1804 1.387 . S
C1805 C1807 1.387 . S
H1806 C1813 0.950 . S
C1807 C1805 1.387 . S
C1807 C1809 1.390 . S
C1807 H1811 0.950 . S
H1808 C1804 0.950 . S
C1809 C1807 1.390 . S
C1809 C1810 1.387 . S
C1809 H1812 0.950 . S
C1810 C1809 1.387 . S
C1810 C1813 1.387 . S
H1811 C1807 0.950 . S
H1812 C1809 0.950 . S
C1813 C1804 1.390 . S
C1813 H1806 0.950 . S
C1813 C1810 1.387 . S
C1814 C1815 1.387 . S
C1814 H1818 0.950 . S
C1814 C1823 1.390 . S
C1815 C1814 1.387 . S
C1815 C1817 1.387 . S
H1816 C1823 0.950 . S
C1817 C1815 1.387 . S
C1817 C1819 1.390 . S
C1817 H1821 0.950 . S
H1818 C1814 0.950 . S
C1819 C1817 1.390 . S
C1819 C1820 1.387 . S
C1819 H1822 0.950 . S
C1820 C1819 1.387 . S
C1820 C1823 1.387 . S
H1821 C1817 0.950 . S
H1822 C1819 0.950 . S
C1823 C1814 1.390 . S
C1823 H1816 0.950 . S
C1823 C1820 1.387 . S
C1824 C1825 1.387 . S
C1824 H1828 0.950 . S
C1824 C1833 1.390 . S
C1825 C1824 1.387 . S
C1825 C1827 1.387 . S
H1826 C1833 0.950 . S
C1827 C1825 1.387 . S
C1827 C1829 1.390 . S
C1827 H1831 0.950 . S
H1828 C1824 0.950 . S
C1829 C1827 1.390 . S
C1829 C1830 1.387 . S
C1829 H1832 0.950 . S
C1830 C1829 1.387 . S
C1830 C1833 1.387 . S
H1831 C1827 0.950 . S
H1832 C1829 0.950 . S
C1833 C1824 1.390 . S
C1833 H1826 0.950 . S
C1833 C1830 1.387 . S
C1834 C1835 1.387 . S
C1834 H1838 0.950 . S
C1834 C1843 1.390 . S
C1835 C1834 1.387 . S
C1835 C1837 1.387 . S
H1836 C1843 0.950 . S
C1837 C1835 1.387 . S
C1837 C1839 1.390 . S
C1837 H1841 0.950 . S
H1838 C1834 0.950 . S
C1839 C1837 1.390 . S
C1839 C1840 1.387 . S
C1839 H1842 0.950 . S
C1840 C1839 1.387 . S
C1840 C1843 1.387 . S
H1841 C1837 0.950 . S
H1842 C1839 0.950 . S
C1843 C1834 1.390 . S
C1843 H1836 0.950 . S
C1843 C1840 1.387 . S
C1844 C1845 1.387 . S
C1844 H1848 0.950 . S
C1844 C1853 1.390 . S
C1845 C1844 1.387 . S
C1845 C1847 1.374 1_455 S
H1846 C1853 0.950 . S
C1847 C1845 1.374 1_655 S
C1847 C1849 1.365 1_655 S
C1847 H1851 0.989 . S
H1848 C1844 0.950 . S
C1849 C1847 1.365 1_455 S
C1849 C1850 1.387 . S
C1849 H1852 0.950 . S
C1850 C1849 1.387 . S
C1850 C1853 1.387 . S
H1851 C1847 0.989 . S
H1852 C1849 0.950 . S
C1853 C1844 1.390 . S
C1853 H1846 0.950 . S
C1853 C1850 1.387 . S
C1854 C1855 1.387 . S
C1854 H1858 0.950 . S
C1854 C1863 1.390 . S
C1855 C1854 1.387 . S
C1855 C1857 1.387 . S
H1856 C1863 0.950 . S
C1857 C1855 1.387 . S
C1857 C1859 1.390 . S
C1857 H1861 0.950 1_455 S
H1858 C1854 0.950 . S
C1859 C1857 1.390 . S
C1859 C1860 1.387 . S
C1859 H1862 0.950 . S
C1860 C1859 1.387 . S
C1860 C1863 1.387 . S
H1861 C1857 0.950 1_655 S
H1862 C1859 0.950 . S
C1863 C1854 1.390 . S
C1863 H1856 0.950 . S
C1863 C1860 1.387 . S
C1864 C1865 1.387 . S
C1864 H1868 0.950 1_655 S
C1864 C1873 1.390 . S
C1865 C1864 1.387 . S
C1865 C1867 1.387 . S
H1866 C1873 0.950 . S
C1867 C1865 1.387 . S
C1867 C1869 1.390 . S
C1867 H1871 0.950 . S
H1868 C1864 0.950 1_455 S
C1869 C1867 1.390 . S
C1869 C1870 1.387 . S
C1869 H1872 0.950 . S
C1870 C1869 1.387 . S
C1870 C1873 1.387 . S
H1871 C1867 0.950 . S
H1872 C1869 0.950 . S
C1873 C1864 1.390 . S
C1873 H1866 0.950 . S
C1873 C1870 1.387 . S
C1874 C1875 1.387 . S
C1874 H1878 0.950 . S
C1874 C1883 1.390 . S
C1875 C1874 1.387 . S
C1875 C1877 1.387 . S
H1876 C1883 0.950 . S
C1877 C1875 1.387 . S
C1877 C1879 1.390 . S
C1877 H1881 0.950 . S
H1878 C1874 0.950 . S
C1879 C1877 1.390 . S
C1879 C1880 1.387 . S
C1879 H1882 0.950 . S
C1880 C1879 1.387 . S
C1880 C1883 1.387 . S
H1881 C1877 0.950 . S
H1882 C1879 0.950 . S
C1883 C1874 1.390 . S
C1883 H1876 0.950 . S
C1883 C1880 1.387 . S
C1884 C1885 1.387 . S
C1884 H1888 0.950 1_455 S
C1884 C1893 1.390 . S
C1885 C1884 1.387 . S
C1885 C1887 1.387 . S
H1886 C1893 0.950 . S
C1887 C1885 1.387 . S
C1887 C1889 1.390 . S
C1887 H1891 0.950 . S
H1888 C1884 0.950 1_655 S
C1889 C1887 1.390 . S
C1889 C1890 1.387 . S
C1889 H1892 0.950 . S
C1890 C1889 1.387 . S
C1890 C1893 1.387 . S
H1891 C1887 0.950 . S
H1892 C1889 0.950 . S
C1893 C1884 1.390 . S
C1893 H1886 0.950 . S
C1893 C1890 1.387 . S
C1894 C1895 1.387 . S
C1894 H1898 0.950 . S
C1894 C1903 1.390 . S
C1895 C1894 1.387 . S
C1895 C1897 1.387 . S
H1896 C1903 0.950 . S
C1897 C1895 1.387 . S
C1897 C1899 1.390 . S
C1897 H1901 0.950 . S
H1898 C1894 0.950 . S
C1899 C1897 1.390 . S
C1899 C1900 1.387 . S
C1899 H1902 0.950 . S
C1900 C1899 1.387 . S
C1900 C1903 1.387 . S
H1901 C1897 0.950 . S
H1902 C1899 0.950 . S
C1903 C1894 1.390 . S
C1903 H1896 0.950 . S
C1903 C1900 1.387 . S
C1904 C1905 1.387 1_545 S
C1904 H1908 0.950 . S
C1904 C1913 1.390 1_545 S
C1905 C1904 1.387 1_565 S
C1905 C1907 1.387 . S
H1906 C1913 0.950 . S
C1907 C1905 1.387 . S
C1907 C1909 1.390 . S
C1907 H1911 0.950 . S
H1908 C1904 0.950 . S
C1909 C1907 1.390 . S
C1909 C1910 1.387 . S
C1909 H1912 0.950 . S
C1910 C1909 1.387 . S
C1910 C1913 1.387 . S
H1911 C1907 0.950 . S
H1912 C1909 0.950 . S
C1913 C1904 1.390 1_565 S
C1913 H1906 0.950 . S
C1913 C1910 1.387 . S
C1914 C1915 1.387 . S
C1914 H1918 0.950 . S
C1914 C1923 1.390 . S
C1915 C1914 1.387 . S
C1915 C1917 1.387 . S
H1916 C1923 0.950 . S
C1917 C1915 1.387 . S
C1917 C1919 1.390 . S
C1917 H1921 0.950 . S
H1918 C1914 0.950 . S
C1919 C1917 1.390 . S
C1919 C1920 1.387 . S
C1919 H1922 0.950 . S
C1920 C1919 1.387 . S
C1920 C1923 1.387 . S
H1921 C1917 0.950 . S
H1922 C1919 0.950 . S
C1923 C1914 1.390 . S
C1923 H1916 0.950 . S
C1923 C1920 1.387 . S
C1924 C1925 1.387 . S
C1924 H1928 0.950 . S
C1924 C1933 1.390 . S
C1925 C1924 1.387 . S
C1925 C1927 1.387 . S
H1926 C1933 0.950 . S
C1927 C1925 1.387 . S
C1927 C1929 1.390 . S
C1927 H1931 0.950 . S
H1928 C1924 0.950 . S
C1929 C1927 1.390 . S
C1929 C1930 1.387 . S
C1929 H1932 0.950 . S
C1930 C1929 1.387 . S
C1930 C1933 1.387 . S
H1931 C1927 0.950 . S
H1932 C1929 0.950 . S
C1933 C1924 1.390 . S
C1933 H1926 0.950 . S
C1933 C1930 1.387 . S
C1934 C1935 1.387 . S
C1934 H1938 0.950 . S
C1934 C1943 1.387 1_554 S
C1935 C1934 1.387 . S
C1935 C1937 1.387 . S
H1936 C1943 0.954 . S
C1937 C1935 1.387 . S
C1937 C1939 1.390 . S
C1937 H1941 0.950 . S
H1938 C1934 0.950 . S
C1939 C1937 1.390 . S
C1939 C1940 1.387 . S
C1939 H1942 0.950 . S
C1940 C1939 1.387 . S
C1940 C1943 1.386 1_554 S
H1941 C1937 0.950 . S
H1942 C1939 0.950 . S
C1943 C1934 1.387 1_556 S
C1943 H1936 0.954 . S
C1943 C1940 1.386 1_556 S
C1944 C1945 1.387 . S
C1944 H1948 0.950 . S
C1944 C1953 1.390 1_545 S
C1945 C1944 1.387 . S
C1945 C1947 1.387 . S
H1946 C1953 0.950 . S
C1947 C1945 1.387 . S
C1947 C1949 1.390 . S
C1947 H1951 0.950 . S
H1948 C1944 0.950 . S
C1949 C1947 1.390 . S
C1949 C1950 1.387 . S
C1949 H1952 0.950 . S
C1950 C1949 1.387 . S
C1950 C1953 1.387 1_545 S
H1951 C1947 0.950 . S
H1952 C1949 0.950 . S
C1953 C1944 1.390 1_565 S
C1953 H1946 0.950 . S
C1953 C1950 1.387 1_565 S
C1954 C1955 1.387 . S
C1954 H1958 0.950 . S
C1954 C1963 1.390 . S
C1955 C1954 1.387 . S
C1955 C1957 1.387 1_556 S
H1956 C1963 0.950 . S
C1957 C1955 1.387 1_554 S
C1957 C1959 1.390 1_554 S
C1957 H1961 0.950 . S
H1958 C1954 0.950 . S
C1959 C1957 1.390 1_556 S
C1959 C1960 1.387 . S
C1959 H1962 0.950 . S
C1960 C1959 1.387 . S
C1960 C1963 1.387 . S
H1961 C1957 0.950 . S
H1962 C1959 0.950 . S
C1963 C1954 1.390 . S
C1963 H1956 0.950 . S
C1963 C1960 1.387 . S
C1964 C1965 1.387 . S
C1964 H1968 0.950 . S
C1964 C1973 1.390 . S
C1965 C1964 1.387 . S
C1965 C1967 1.387 . S
H1966 C1973 0.950 . S
C1967 C1965 1.387 . S
C1967 C1969 1.390 . S
C1967 H1971 0.950 . S
H1968 C1964 0.950 . S
C1969 C1967 1.390 . S
C1969 C1970 1.387 . S
C1969 H1972 0.950 . S
C1970 C1969 1.387 . S
C1970 C1973 1.387 . S
H1971 C1967 0.950 . S
H1972 C1969 0.950 . S
C1973 C1964 1.390 . S
C1973 H1966 0.950 . S
C1973 C1970 1.387 . S
C1974 C1975 1.387 . S
C1974 H1978 0.950 . S
C1974 C1983 1.390 . S
C1975 C1974 1.387 . S
C1975 C1977 1.387 . S
H1976 C1983 0.950 . S
C1977 C1975 1.387 . S
C1977 C1979 1.390 . S
C1977 H1981 0.950 . S
H1978 C1974 0.950 . S
C1979 C1977 1.390 . S
C1979 C1980 1.387 . S
C1979 H1982 0.950 . S
C1980 C1979 1.387 . S
C1980 C1983 1.387 . S
H1981 C1977 0.950 . S
H1982 C1979 0.950 . S
C1983 C1974 1.390 . S
C1983 H1976 0.950 . S
C1983 C1980 1.387 . S
C1984 C1985 1.387 . S
C1984 H1988 0.950 . S
C1984 C1993 1.390 . S
C1985 C1984 1.387 . S
C1985 C1987 1.387 . S
H1986 C1993 0.950 1_554 S
C1987 C1985 1.387 . S
C1987 C1989 1.390 . S
C1987 H1991 0.950 . S
H1988 C1984 0.950 . S
C1989 C1987 1.390 . S
C1989 C1990 1.387 . S
C1989 H1992 0.950 . S
C1990 C1989 1.387 . S
C1990 C1993 1.387 . S
H1991 C1987 0.950 . S
H1992 C1989 0.950 . S
C1993 C1984 1.390 . S
C1993 H1986 0.950 1_556 S
C1993 C1990 1.387 . S
C1994 C1995 1.387 . S
C1994 H1998 0.950 . S
C1994 C2003 1.390 . S
C1995 C1994 1.387 . S
C1995 C1997 1.387 . S
H1996 C2003 0.950 . S
C1997 C1995 1.387 . S
C1997 C1999 1.390 . S
C1997 H2001 0.950 . S
H1998 C1994 0.950 . S
C1999 C1997 1.390 . S
C1999 C2000 1.387 . S
C1999 H2002 0.950 . S
C2000 C1999 1.387 . S
C2000 C2003 1.387 . S
H2001 C1997 0.950 . S
H2002 C1999 0.950 . S
C2003 C1994 1.390 . S
C2003 H1996 0.950 . S
C2003 C2000 1.387 . S
C2004 C2005 1.387 . S
C2004 H2008 0.950 . S
C2004 C2013 1.390 . S
C2005 C2004 1.387 . S
C2005 C2007 1.387 . S
H2006 C2013 0.950 . S
C2007 C2005 1.387 . S
C2007 C2009 1.390 1_545 S
C2007 H2011 0.973 . S
H2008 C2004 0.950 . S
C2009 C2007 1.390 1_565 S
C2009 C2010 1.387 1_565 S
C2009 H2012 0.950 . S
C2010 C2009 1.387 1_545 S
C2010 C2013 1.387 . S
H2011 C2007 0.973 . S
H2012 C2009 0.950 . S
C2013 C2004 1.390 . S
C2013 H2006 0.950 . S
C2013 C2010 1.387 . S
C2014 C2015 1.387 . S
C2014 H2018 0.950 . S
C2014 C2023 1.390 . S
C2015 C2014 1.387 . S
C2015 C2017 1.387 . S
H2016 C2023 0.950 . S
C2017 C2015 1.387 . S
C2017 C2019 1.390 . S
C2017 H2021 0.950 1_554 S
H2018 C2014 0.950 . S
C2019 C2017 1.390 . S
C2019 C2020 1.387 . S
C2019 H2022 0.950 . S
C2020 C2019 1.387 . S
C2020 C2023 1.387 . S
H2021 C2017 0.950 1_556 S
H2022 C2019 0.950 . S
C2023 C2014 1.390 . S
C2023 H2016 0.950 . S
C2023 C2020 1.387 . S
C2024 C2025 1.387 . S
C2024 H2028 0.950 . S
C2024 C2033 1.390 . S
C2025 C2024 1.387 . S
C2025 C2027 1.387 1_556 S
H2026 C2033 0.950 . S
C2027 C2025 1.387 1_554 S
C2027 C2029 1.390 1_554 S
C2027 H2031 0.950 . S
H2028 C2024 0.950 . S
C2029 C2027 1.390 1_556 S
C2029 C2030 1.387 . S
C2029 H2032 0.950 . S
C2030 C2029 1.387 . S
C2030 C2033 1.387 . S
H2031 C2027 0.950 . S
H2032 C2029 0.950 . S
C2033 C2024 1.390 . S
C2033 H2026 0.950 . S
C2033 C2030 1.387 . S
C2034 C2035 1.387 . S
C2034 H2038 0.950 . S
C2034 C2043 1.390 . S
C2035 C2034 1.387 . S
C2035 C2037 1.387 . S
H2036 C2043 0.950 . S
C2037 C2035 1.387 . S
C2037 C2039 1.390 . S
C2037 H2041 0.950 . S
H2038 C2034 0.950 . S
C2039 C2037 1.390 . S
C2039 C2040 1.387 . S
C2039 H2042 0.950 . S
C2040 C2039 1.387 . S
C2040 C2043 1.387 . S
H2041 C2037 0.950 . S
H2042 C2039 0.950 . S
C2043 C2034 1.390 . S
C2043 H2036 0.950 . S
C2043 C2040 1.387 . S
C2044 C2045 1.387 . S
C2044 H2048 0.950 . S
C2044 C2053 1.390 . S
C2045 C2044 1.387 . S
C2045 C2047 1.387 . S
H2046 C2053 0.950 . S
C2047 C2045 1.387 . S
C2047 C2049 1.390 . S
C2047 H2051 0.950 . S
H2048 C2044 0.950 . S
C2049 C2047 1.390 . S
C2049 C2050 1.387 . S
C2049 H2052 0.950 . S
C2050 C2049 1.387 . S
C2050 C2053 1.387 . S
H2051 C2047 0.950 . S
H2052 C2049 0.950 . S
C2053 C2044 1.390 . S
C2053 H2046 0.950 . S
C2053 C2050 1.387 . S
C2054 C2055 1.387 . S
C2054 H2058 0.950 . S
C2054 C2063 1.390 . S
C2055 C2054 1.387 . S
C2055 C2057 1.387 1_655 S
H2056 C2063 0.950 . S
C2057 C2055 1.387 1_455 S
C2057 C2059 1.390 1_455 S
C2057 H2061 0.950 . S
H2058 C2054 0.950 . S
C2059 C2057 1.390 1_655 S
C2059 C2060 1.387 . S
C2059 H2062 0.976 . S
C2060 C2059 1.387 . S
C2060 C2063 1.387 . S
H2061 C2057 0.950 . S
H2062 C2059 0.976 . S
C2063 C2054 1.390 . S
C2063 H2056 0.950 . S
C2063 C2060 1.387 . S
C2064 C2065 1.387 . S
C2064 H2068 0.950 . S
C2064 C2073 1.390 . S
C2065 C2064 1.387 . S
C2065 C2067 1.387 . S
H2066 C2073 0.950 . S
C2067 C2065 1.387 . S
C2067 C2069 1.390 . S
C2067 H2071 0.950 . S
H2068 C2064 0.950 . S
C2069 C2067 1.390 . S
C2069 C2070 1.387 . S
C2069 H2072 0.953 . S
C2070 C2069 1.387 . S
C2070 C2073 1.387 . S
H2071 C2067 0.950 . S
H2072 C2069 0.953 . S
C2073 C2064 1.390 . S
C2073 H2066 0.950 . S
C2073 C2070 1.387 . S
C2074 C2075 1.387 . S
C2074 H2078 0.950 . S
C2074 C2083 1.390 . S
C2075 C2074 1.387 . S
C2075 C2077 1.387 . S
H2076 C2083 0.950 . S
C2077 C2075 1.387 . S
C2077 C2079 1.390 . S
C2077 H2081 0.950 . S
H2078 C2074 0.950 . S
C2079 C2077 1.390 . S
C2079 C2080 1.387 . S
C2079 H2082 0.950 . S
C2080 C2079 1.387 . S
C2080 C2083 1.387 . S
H2081 C2077 0.950 . S
H2082 C2079 0.950 . S
C2083 C2074 1.390 . S
C2083 H2076 0.950 . S
C2083 C2080 1.387 . S
C2084 C2085 1.387 . S
C2084 H2088 0.950 . S
C2084 C2093 1.390 . S
C2085 C2084 1.387 . S
C2085 C2087 1.387 . S
H2086 C2093 0.950 . S
C2087 C2085 1.387 . S
C2087 C2089 1.390 . S
C2087 H2091 0.950 . S
H2088 C2084 0.950 . S
C2089 C2087 1.390 . S
C2089 C2090 1.387 . S
C2089 H2092 0.950 . S
C2090 C2089 1.387 . S
C2090 C2093 1.387 . S
H2091 C2087 0.950 . S
H2092 C2089 0.950 . S
C2093 C2084 1.390 . S
C2093 H2086 0.950 . S
C2093 C2090 1.387 . S
C2094 C2095 1.387 . S
C2094 H2098 0.950 . S
C2094 C2103 1.390 . S
C2095 C2094 1.387 . S
C2095 C2097 1.387 . S
H2096 C2103 0.950 . S
C2097 C2095 1.387 . S
C2097 C2099 1.390 . S
C2097 H2101 0.950 . S
H2098 C2094 0.950 . S
C2099 C2097 1.390 . S
C2099 C2100 1.387 . S
C2099 H2102 0.950 . S
C2100 C2099 1.387 . S
C2100 C2103 1.387 . S
H2101 C2097 0.950 . S
H2102 C2099 0.950 . S
C2103 C2094 1.390 . S
C2103 H2096 0.950 . S
C2103 C2100 1.387 . S
C2104 C2105 1.387 . S
C2104 H2108 0.967 . S
C2104 C2113 1.390 1_554 S
C2105 C2104 1.387 . S
C2105 C2107 1.387 . S
H2106 C2113 0.950 . S
C2107 C2105 1.387 . S
C2107 C2109 1.390 . S
C2107 H2111 0.950 . S
H2108 C2104 0.967 . S
C2109 C2107 1.390 . S
C2109 C2110 1.387 . S
C2109 H2112 0.950 . S
C2110 C2109 1.387 . S
C2110 C2113 1.387 1_554 S
H2111 C2107 0.950 . S
H2112 C2109 0.950 . S
C2113 C2104 1.390 1_556 S
C2113 H2106 0.950 . S
C2113 C2110 1.387 1_556 S
C2114 C2115 1.385 1_565 S
C2114 H2118 0.958 . S
C2114 C2123 1.385 1_565 S
C2115 C2114 1.385 1_545 S
C2115 C2117 1.387 . S
H2116 C2123 0.950 . S
C2117 C2115 1.387 . S
C2117 C2119 1.390 . S
C2117 H2121 0.950 . S
H2118 C2114 0.958 . S
C2119 C2117 1.390 . S
C2119 C2120 1.387 . S
C2119 H2122 0.950 . S
C2120 C2119 1.387 . S
C2120 C2123 1.387 . S
H2121 C2117 0.950 . S
H2122 C2119 0.950 . S
C2123 C2114 1.385 1_545 S
C2123 H2116 0.950 . S
C2123 C2120 1.387 . S
C2124 C2125 1.387 . S
C2124 H2128 0.950 . S
C2124 C2133 1.390 . S
C2125 C2124 1.387 . S
C2125 C2127 1.387 . S
H2126 C2133 0.950 . S
C2127 C2125 1.387 . S
C2127 C2129 1.390 . S
C2127 H2131 0.950 . S
H2128 C2124 0.950 . S
C2129 C2127 1.390 . S
C2129 C2130 1.387 . S
C2129 H2132 0.950 . S
C2130 C2129 1.387 . S
C2130 C2133 1.387 . S
H2131 C2127 0.950 . S
H2132 C2129 0.950 . S
C2133 C2124 1.390 . S
C2133 H2126 0.950 . S
C2133 C2130 1.387 . S
C2134 C2135 1.387 . S
C2134 H2138 0.950 . S
C2134 C2143 1.390 . S
C2135 C2134 1.387 . S
C2135 C2137 1.387 . S
H2136 C2143 0.950 . S
C2137 C2135 1.387 . S
C2137 C2139 1.390 . S
C2137 H2141 0.950 . S
H2138 C2134 0.950 . S
C2139 C2137 1.390 . S
C2139 C2140 1.387 . S
C2139 H2142 0.950 . S
C2140 C2139 1.387 . S
C2140 C2143 1.387 . S
H2141 C2137 0.950 . S
H2142 C2139 0.950 . S
C2143 C2134 1.390 . S
C2143 H2136 0.950 . S
C2143 C2140 1.387 . S
C2144 C2145 1.387 . S
C2144 H2148 0.950 . S
C2144 C2153 1.390 . S
C2145 C2144 1.387 . S
C2145 C2147 1.387 . S
H2146 C2153 0.950 . S
C2147 C2145 1.387 . S
C2147 C2149 1.390 . S
C2147 H2151 0.950 . S
H2148 C2144 0.950 . S
C2149 C2147 1.390 . S
C2149 C2150 1.387 . S
C2149 H2152 0.950 . S
C2150 C2149 1.387 . S
C2150 C2153 1.387 . S
H2151 C2147 0.950 . S
H2152 C2149 0.950 . S
C2153 C2144 1.390 . S
C2153 H2146 0.950 . S
C2153 C2150 1.387 . S
C2154 C2155 1.387 . S
C2154 H2158 0.950 . S
C2154 C2163 1.390 1_565 S
C2155 C2154 1.387 . S
C2155 C2157 1.387 . S
H2156 C2163 0.950 . S
C2157 C2155 1.387 . S
C2157 C2159 1.390 . S
C2157 H2161 0.950 . S
H2158 C2154 0.950 . S
C2159 C2157 1.390 . S
C2159 C2160 1.387 . S
C2159 H2162 0.950 . S
C2160 C2159 1.387 . S
C2160 C2163 1.387 1_565 S
H2161 C2157 0.950 . S
H2162 C2159 0.950 . S
C2163 C2154 1.390 1_545 S
C2163 H2156 0.950 . S
C2163 C2160 1.387 1_545 S
C2164 C2165 1.387 1_554 S
C2164 H2168 0.950 . S
C2164 C2173 1.390 1_554 S
C2165 C2164 1.387 1_556 S
C2165 C2167 1.387 . S
H2166 C2173 0.950 . S
C2167 C2165 1.387 . S
C2167 C2169 1.390 . S
C2167 H2171 0.950 . S
H2168 C2164 0.950 . S
C2169 C2167 1.390 . S
C2169 C2170 1.387 . S
C2169 H2172 0.950 . S
C2170 C2169 1.387 . S
C2170 C2173 1.387 . S
H2171 C2167 0.950 . S
H2172 C2169 0.950 . S
C2173 C2164 1.390 1_556 S
C2173 H2166 0.950 . S
C2173 C2170 1.387 . S
C2174 C2175 1.387 . S
C2174 H2178 0.950 . S
C2174 C2183 1.390 . S
C2175 C2174 1.387 . S
C2175 C2177 1.387 . S
H2176 C2183 0.950 . S
C2177 C2175 1.387 . S
C2177 C2179 1.390 . S
C2177 H2181 0.950 . S
H2178 C2174 0.950 . S
C2179 C2177 1.390 . S
C2179 C2180 1.387 . S
C2179 H2182 0.950 . S
C2180 C2179 1.387 . S
C2180 C2183 1.387 . S
H2181 C2177 0.950 . S
H2182 C2179 0.950 . S
C2183 C2174 1.390 . S
C2183 H2176 0.950 . S
C2183 C2180 1.387 . S
C2184 C2185 1.387 1_556 S
C2184 H2188 0.950 . S
C2184 C2193 1.390 1_556 S
C2185 C2184 1.387 1_554 S
C2185 C2187 1.387 . S
H2186 C2193 0.950 . S
C2187 C2185 1.387 . S
C2187 C2189 1.390 . S
C2187 H2191 0.950 . S
H2188 C2184 0.950 . S
C2189 C2187 1.390 . S
C2189 C2190 1.387 . S
C2189 H2192 0.950 . S
C2190 C2189 1.387 . S
C2190 C2193 1.387 . S
H2191 C2187 0.950 . S
H2192 C2189 0.950 . S
C2193 C2184 1.390 1_554 S
C2193 H2186 0.950 . S
C2193 C2190 1.387 . S
C2194 C2195 1.387 . S
C2194 H2198 0.950 . S
C2194 C2203 1.390 . S
C2195 C2194 1.387 . S
C2195 C2197 1.387 . S
H2196 C2203 0.950 . S
C2197 C2195 1.387 . S
C2197 C2199 1.390 . S
C2197 H2201 0.950 . S
H2198 C2194 0.950 . S
C2199 C2197 1.390 . S
C2199 C2200 1.387 . S
C2199 H2202 0.950 . S
C2200 C2199 1.387 . S
C2200 C2203 1.387 . S
H2201 C2197 0.950 . S
H2202 C2199 0.950 . S
C2203 C2194 1.390 . S
C2203 H2196 0.950 . S
C2203 C2200 1.387 . S
C2204 C2205 1.387 . S
C2204 H2208 0.950 . S
C2204 C2213 1.390 . S
C2205 C2204 1.387 . S
C2205 C2207 1.387 . S
H2206 C2213 0.950 . S
C2207 C2205 1.387 . S
C2207 C2209 1.390 . S
C2207 H2211 0.950 . S
H2208 C2204 0.950 . S
C2209 C2207 1.390 . S
C2209 C2210 1.387 . S
C2209 H2212 0.950 . S
C2210 C2209 1.387 . S
C2210 C2213 1.387 . S
H2211 C2207 0.950 . S
H2212 C2209 0.950 . S
C2213 C2204 1.390 . S
C2213 H2206 0.950 . S
C2213 C2210 1.387 . S
C2214 C2215 1.387 . S
C2214 H2218 0.950 . S
C2214 C2223 1.390 . S
C2215 C2214 1.387 . S
C2215 C2217 1.387 . S
H2216 C2223 0.950 . S
C2217 C2215 1.387 . S
C2217 C2219 1.390 . S
C2217 H2221 0.950 . S
H2218 C2214 0.950 . S
C2219 C2217 1.390 . S
C2219 C2220 1.387 . S
C2219 H2222 0.950 . S
C2220 C2219 1.387 . S
C2220 C2223 1.387 . S
H2221 C2217 0.950 . S
H2222 C2219 0.950 . S
C2223 C2214 1.390 . S
C2223 H2216 0.950 . S
C2223 C2220 1.387 . S
C2224 C2225 1.387 . S
C2224 H2228 0.950 . S
C2224 C2233 1.390 . S
C2225 C2224 1.387 . S
C2225 C2227 1.387 1_565 S
H2226 C2233 0.950 . S
C2227 C2225 1.387 1_545 S
C2227 C2229 1.390 1_545 S
C2227 H2231 0.950 . S
H2228 C2224 0.950 . S
C2229 C2227 1.390 1_565 S
C2229 C2230 1.387 . S
C2229 H2232 0.950 . S
C2230 C2229 1.387 . S
C2230 C2233 1.387 . S
H2231 C2227 0.950 . S
H2232 C2229 0.950 . S
C2233 C2224 1.390 . S
C2233 H2226 0.950 . S
C2233 C2230 1.387 . S
C2234 C2235 1.387 . S
C2234 H2238 0.950 . S
C2234 C2243 1.390 . S
C2235 C2234 1.387 . S
C2235 C2237 1.387 . S
H2236 C2243 0.950 . S
C2237 C2235 1.387 . S
C2237 C2239 1.390 . S
C2237 H2241 0.950 . S
H2238 C2234 0.950 . S
C2239 C2237 1.390 . S
C2239 C2240 1.387 . S
C2239 H2242 0.950 . S
C2240 C2239 1.387 . S
C2240 C2243 1.387 . S
H2241 C2237 0.950 . S
H2242 C2239 0.950 . S
C2243 C2234 1.390 . S
C2243 H2236 0.950 . S
C2243 C2240 1.387 . S
C2244 C2245 1.387 . S
C2244 H2248 0.950 . S
C2244 C2253 1.390 . S
C2245 C2244 1.387 . S
C2245 C2247 1.387 . S
H2246 C2253 0.950 . S
C2247 C2245 1.387 . S
C2247 C2249 1.390 . S
C2247 H2251 0.950 . S
H2248 C2244 0.950 . S
C2249 C2247 1.390 . S
C2249 C2250 1.387 . S
C2249 H2252 0.950 . S
C2250 C2249 1.387 . S
C2250 C2253 1.387 . S
H2251 C2247 0.950 . S
H2252 C2249 0.950 . S
C2253 C2244 1.390 . S
C2253 H2246 0.950 . S
C2253 C2250 1.387 . S
C2254 C2255 1.387 . S
C2254 H2258 0.950 . S
C2254 C2263 1.390 . S
C2255 C2254 1.387 . S
C2255 C2257 1.387 . S
H2256 C2263 0.950 . S
C2257 C2255 1.387 . S
C2257 C2259 1.390 . S
C2257 H2261 0.950 . S
H2258 C2254 0.950 . S
C2259 C2257 1.390 . S
C2259 C2260 1.387 . S
C2259 H2262 0.950 . S
C2260 C2259 1.387 . S
C2260 C2263 1.387 . S
H2261 C2257 0.950 . S
H2262 C2259 0.950 . S
C2263 C2254 1.390 . S
C2263 H2256 0.950 . S
C2263 C2260 1.387 . S
C2264 C2265 1.387 . S
C2264 H2268 0.950 . S
C2264 C2273 1.390 . S
C2265 C2264 1.387 . S
C2265 C2267 1.387 . S
H2266 C2273 0.950 . S
C2267 C2265 1.387 . S
C2267 C2269 1.390 . S
C2267 H2271 0.950 . S
H2268 C2264 0.950 . S
C2269 C2267 1.390 . S
C2269 C2270 1.387 . S
C2269 H2272 0.950 . S
C2270 C2269 1.387 . S
C2270 C2273 1.387 . S
H2271 C2267 0.950 . S
H2272 C2269 0.950 . S
C2273 C2264 1.390 . S
C2273 H2266 0.950 . S
C2273 C2270 1.387 . S
C2274 C2275 1.387 . S
C2274 H2278 0.950 . S
C2274 C2283 1.390 . S
C2275 C2274 1.387 . S
C2275 C2277 1.387 . S
H2276 C2283 0.950 . S
C2277 C2275 1.387 . S
C2277 C2279 1.390 . S
C2277 H2281 0.950 . S
H2278 C2274 0.950 . S
C2279 C2277 1.390 . S
C2279 C2280 1.387 . S
C2279 H2282 0.950 . S
C2280 C2279 1.387 . S
C2280 C2283 1.387 . S
H2281 C2277 0.950 . S
H2282 C2279 0.950 . S
C2283 C2274 1.390 . S
C2283 H2276 0.950 . S
C2283 C2280 1.387 . S
C2284 C2285 1.387 . S
C2284 H2288 0.950 . S
C2284 C2293 1.390 1_565 S
C2285 C2284 1.387 . S
C2285 C2287 1.387 . S
H2286 C2293 0.950 . S
C2287 C2285 1.387 . S
C2287 C2289 1.390 . S
C2287 H2291 0.950 . S
H2288 C2284 0.950 . S
C2289 C2287 1.390 . S
C2289 C2290 1.387 . S
C2289 H2292 0.950 . S
C2290 C2289 1.387 . S
C2290 C2293 1.387 1_565 S
H2291 C2287 0.950 . S
H2292 C2289 0.950 . S
C2293 C2284 1.390 1_545 S
C2293 H2286 0.950 . S
C2293 C2290 1.387 1_545 S
C2294 C2295 1.387 . S
C2294 H2298 0.950 . S
C2294 C2303 1.390 . S
C2295 C2294 1.387 . S
C2295 C2297 1.387 . S
H2296 C2303 0.950 . S
C2297 C2295 1.387 . S
C2297 C2299 1.390 . S
C2297 H2301 0.950 . S
H2298 C2294 0.950 . S
C2299 C2297 1.390 . S
C2299 C2300 1.387 . S
C2299 H2302 0.950 . S
C2300 C2299 1.387 . S
C2300 C2303 1.387 . S
H2301 C2297 0.950 . S
H2302 C2299 0.950 . S
C2303 C2294 1.390 . S
C2303 H2296 0.950 . S
C2303 C2300 1.387 . S
C2304 C2305 1.387 . S
C2304 H2308 0.950 . S
C2304 C2313 1.390 . S
C2305 C2304 1.387 . S
C2305 C2307 1.387 . S
H2306 C2313 0.950 . S
C2307 C2305 1.387 . S
C2307 C2309 1.390 . S
C2307 H2311 0.950 . S
H2308 C2304 0.950 . S
C2309 C2307 1.390 . S
C2309 C2310 1.387 . S
C2309 H2312 0.950 . S
C2310 C2309 1.387 . S
C2310 C2313 1.387 . S
H2311 C2307 0.950 . S
H2312 C2309 0.950 . S
C2313 C2304 1.390 . S
C2313 H2306 0.950 . S
C2313 C2310 1.387 . S
C2314 C2315 1.387 . S
C2314 H2318 0.950 . S
C2314 C2323 1.390 . S
C2315 C2314 1.387 . S
C2315 C2317 1.387 . S
H2316 C2323 0.950 . S
C2317 C2315 1.387 . S
C2317 C2319 1.390 . S
C2317 H2321 0.950 . S
H2318 C2314 0.950 . S
C2319 C2317 1.390 . S
C2319 C2320 1.387 . S
C2319 H2322 0.950 . S
C2320 C2319 1.387 . S
C2320 C2323 1.387 . S
H2321 C2317 0.950 . S
H2322 C2319 0.950 . S
C2323 C2314 1.390 . S
C2323 H2316 0.950 . S
C2323 C2320 1.387 . S
C2324 C2325 1.387 . S
C2324 H2328 0.950 . S
C2324 C2333 1.390 . S
C2325 C2324 1.387 . S
C2325 C2327 1.387 . S
H2326 C2333 0.950 . S
C2327 C2325 1.387 . S
C2327 C2329 1.390 . S
C2327 H2331 0.950 . S
H2328 C2324 0.950 . S
C2329 C2327 1.390 . S
C2329 C2330 1.387 . S
C2329 H2332 0.950 . S
C2330 C2329 1.387 . S
C2330 C2333 1.387 . S
H2331 C2327 0.950 . S
H2332 C2329 0.950 . S
C2333 C2324 1.390 . S
C2333 H2326 0.950 . S
C2333 C2330 1.387 . S
C2334 C2335 1.387 . S
C2334 H2338 0.950 . S
C2334 C2343 1.390 . S
C2335 C2334 1.387 . S
C2335 C2337 1.387 . S
H2336 C2343 0.950 . S
C2337 C2335 1.387 . S
C2337 C2339 1.390 . S
C2337 H2341 0.950 . S
H2338 C2334 0.950 . S
C2339 C2337 1.390 . S
C2339 C2340 1.387 . S
C2339 H2342 0.950 . S
C2340 C2339 1.387 . S
C2340 C2343 1.387 . S
H2341 C2337 0.950 . S
H2342 C2339 0.950 . S
C2343 C2334 1.390 . S
C2343 H2336 0.950 . S
C2343 C2340 1.387 . S
C2344 C2345 1.387 . S
C2344 H2348 0.950 . S
C2344 C2353 1.390 . S
C2345 C2344 1.387 . S
C2345 C2347 1.387 . S
H2346 C2353 0.950 . S
C2347 C2345 1.387 . S
C2347 C2349 1.390 . S
C2347 H2351 0.950 . S
H2348 C2344 0.950 . S
C2349 C2347 1.390 . S
C2349 C2350 1.387 . S
C2349 H2352 0.950 . S
C2350 C2349 1.387 . S
C2350 C2353 1.387 . S
H2351 C2347 0.950 . S
H2352 C2349 0.950 . S
C2353 C2344 1.390 . S
C2353 H2346 0.950 . S
C2353 C2350 1.387 . S
C2354 C2355 1.387 . S
C2354 H2358 0.950 . S
C2354 C2363 1.390 . S
C2355 C2354 1.387 . S
C2355 C2357 1.387 . S
H2356 C2363 0.950 . S
C2357 C2355 1.387 . S
C2357 C2359 1.390 . S
C2357 H2361 0.950 . S
H2358 C2354 0.950 . S
C2359 C2357 1.390 . S
C2359 C2360 1.387 . S
C2359 H2362 0.950 . S
C2360 C2359 1.387 . S
C2360 C2363 1.387 . S
H2361 C2357 0.950 . S
H2362 C2359 0.950 . S
C2363 C2354 1.390 . S
C2363 H2356 0.950 . S
C2363 C2360 1.387 . S
C2364 C2365 1.387 . S
C2364 H2368 0.950 . S
C2364 C2373 1.390 . S
C2365 C2364 1.387 . S
C2365 C2367 1.387 . S
H2366 C2373 0.950 . S
C2367 C2365 1.387 . S
C2367 C2369 1.390 . S
C2367 H2371 0.950 . S
H2368 C2364 0.950 . S
C2369 C2367 1.390 . S
C2369 C2370 1.387 . S
C2369 H2372 0.950 . S
C2370 C2369 1.387 . S
C2370 C2373 1.387 . S
H2371 C2367 0.950 . S
H2372 C2369 0.950 . S
C2373 C2364 1.390 . S
C2373 H2366 0.950 . S
C2373 C2370 1.387 . S
C2374 C2375 1.387 . S
C2374 H2378 0.950 . S
C2374 C2383 1.390 . S
C2375 C2374 1.387 . S
C2375 C2377 1.387 . S
H2376 C2383 0.950 . S
C2377 C2375 1.387 . S
C2377 C2379 1.390 . S
C2377 H2381 0.950 . S
H2378 C2374 0.950 . S
C2379 C2377 1.390 . S
C2379 C2380 1.387 . S
C2379 H2382 0.950 . S
C2380 C2379 1.387 . S
C2380 C2383 1.387 . S
H2381 C2377 0.950 . S
H2382 C2379 0.950 . S
C2383 C2374 1.390 . S
C2383 H2376 0.950 . S
C2383 C2380 1.387 . S
C2384 C2385 1.387 . S
C2384 H2388 0.950 . S
C2384 C2393 1.390 . S
C2385 C2384 1.387 . S
C2385 C2387 1.387 . S
H2386 C2393 0.950 . S
C2387 C2385 1.387 . S
C2387 C2389 1.390 . S
C2387 H2391 0.950 . S
H2388 C2384 0.950 . S
C2389 C2387 1.390 . S
C2389 C2390 1.387 . S
C2389 H2392 0.950 . S
C2390 C2389 1.387 . S
C2390 C2393 1.387 . S
H2391 C2387 0.950 . S
H2392 C2389 0.950 . S
C2393 C2384 1.390 . S
C2393 H2386 0.950 . S
C2393 C2390 1.387 . S
C2394 C2395 1.387 . S
C2394 H2398 0.950 . S
C2394 C2403 1.390 . S
C2395 C2394 1.387 . S
C2395 C2397 1.387 . S
H2396 C2403 0.950 . S
C2397 C2395 1.387 . S
C2397 C2399 1.390 . S
C2397 H2401 0.950 . S
H2398 C2394 0.950 . S
C2399 C2397 1.390 . S
C2399 C2400 1.387 . S
C2399 H2402 0.950 . S
C2400 C2399 1.387 . S
C2400 C2403 1.387 . S
H2401 C2397 0.950 . S
H2402 C2399 0.950 . S
C2403 C2394 1.390 . S
C2403 H2396 0.950 . S
C2403 C2400 1.387 . S
C2404 C2405 1.387 . S
C2404 H2408 0.950 . S
C2404 C2413 1.390 . S
C2405 C2404 1.387 . S
C2405 C2407 1.387 . S
H2406 C2413 0.950 . S
C2407 C2405 1.387 . S
C2407 C2409 1.390 . S
C2407 H2411 0.950 . S
H2408 C2404 0.950 . S
C2409 C2407 1.390 . S
C2409 C2410 1.387 . S
C2409 H2412 0.950 . S
C2410 C2409 1.387 . S
C2410 C2413 1.387 . S
H2411 C2407 0.950 . S
H2412 C2409 0.950 . S
C2413 C2404 1.390 . S
C2413 H2406 0.950 . S
C2413 C2410 1.387 . S
C2414 C2415 1.387 . S
C2414 H2418 0.950 . S
C2414 C2423 1.390 . S
C2415 C2414 1.387 . S
C2415 C2417 1.387 . S
H2416 C2423 0.950 . S
C2417 C2415 1.387 . S
C2417 C2419 1.390 . S
C2417 H2421 0.950 . S
H2418 C2414 0.950 . S
C2419 C2417 1.390 . S
C2419 C2420 1.387 . S
C2419 H2422 0.950 . S
C2420 C2419 1.387 . S
C2420 C2423 1.387 . S
H2421 C2417 0.950 . S
H2422 C2419 0.950 . S
C2423 C2414 1.390 . S
C2423 H2416 0.950 . S
C2423 C2420 1.387 . S
C2424 C2425 1.387 . S
C2424 H2428 0.950 . S
C2424 C2433 1.390 . S
C2425 C2424 1.387 . S
C2425 C2427 1.387 . S
H2426 C2433 0.950 . S
C2427 C2425 1.387 . S
C2427 C2429 1.390 . S
C2427 H2431 0.950 . S
H2428 C2424 0.950 . S
C2429 C2427 1.390 . S
C2429 C2430 1.387 . S
C2429 H2432 0.950 . S
C2430 C2429 1.387 . S
C2430 C2433 1.387 . S
H2431 C2427 0.950 . S
H2432 C2429 0.950 . S
C2433 C2424 1.390 . S
C2433 H2426 0.950 . S
C2433 C2430 1.387 . S
C2434 C2435 1.387 . S
C2434 H2438 0.950 . S
C2434 C2443 1.390 . S
C2435 C2434 1.387 . S
C2435 C2437 1.387 . S
H2436 C2443 0.950 . S
C2437 C2435 1.387 . S
C2437 C2439 1.390 . S
C2437 H2441 0.950 . S
H2438 C2434 0.950 . S
C2439 C2437 1.390 . S
C2439 C2440 1.387 . S
C2439 H2442 0.950 . S
C2440 C2439 1.387 . S
C2440 C2443 1.387 . S
H2441 C2437 0.950 . S
H2442 C2439 0.950 . S
C2443 C2434 1.390 . S
C2443 H2436 0.950 . S
C2443 C2440 1.387 . S
C2444 C2445 1.387 . S
C2444 H2448 0.950 . S
C2444 C2453 1.390 . S
C2445 C2444 1.387 . S
C2445 C2447 1.387 . S
H2446 C2453 0.950 . S
C2447 C2445 1.387 . S
C2447 C2449 1.390 . S
C2447 H2451 0.950 . S
H2448 C2444 0.950 . S
C2449 C2447 1.390 . S
C2449 C2450 1.387 . S
C2449 H2452 0.950 . S
C2450 C2449 1.387 . S
C2450 C2453 1.387 . S
H2451 C2447 0.950 . S
H2452 C2449 0.950 . S
C2453 C2444 1.390 . S
C2453 H2446 0.950 . S
C2453 C2450 1.387 . S
C2454 C2455 1.387 . S
C2454 H2458 0.950 . S
C2454 C2463 1.390 . S
C2455 C2454 1.387 . S
C2455 C2457 1.387 . S
H2456 C2463 0.950 . S
C2457 C2455 1.387 . S
C2457 C2459 1.390 . S
C2457 H2461 0.950 . S
H2458 C2454 0.950 . S
C2459 C2457 1.390 . S
C2459 C2460 1.387 . S
C2459 H2462 0.950 . S
C2460 C2459 1.387 . S
C2460 C2463 1.387 . S
H2461 C2457 0.950 . S
H2462 C2459 0.950 . S
C2463 C2454 1.390 . S
C2463 H2456 0.950 . S
C2463 C2460 1.387 . S
C2464 C2465 1.387 . S
C2464 H2468 0.950 . S
C2464 C2473 1.390 . S
C2465 C2464 1.387 . S
C2465 C2467 1.387 . S
H2466 C2473 0.950 . S
C2467 C2465 1.387 . S
C2467 C2469 1.390 . S
C2467 H2471 0.950 . S
H2468 C2464 0.950 . S
C2469 C2467 1.390 . S
C2469 C2470 1.387 . S
C2469 H2472 0.950 . S
C2470 C2469 1.387 . S
C2470 C2473 1.387 . S
H2471 C2467 0.950 . S
H2472 C2469 0.950 . S
C2473 C2464 1.390 . S
C2473 H2466 0.950 . S
C2473 C2470 1.387 . S
C2474 C2475 1.387 . S
C2474 H2478 0.950 . S
C2474 C2483 1.390 . S
C2475 C2474 1.387 . S
C2475 C2477 1.387 . S
H2476 C2483 0.950 . S
C2477 C2475 1.387 . S
C2477 C2479 1.390 . S
C2477 H2481 0.950 . S
H2478 C2474 0.950 . S
C2479 C2477 1.390 . S
C2479 C2480 1.387 . S
C2479 H2482 0.950 . S
C2480 C2479 1.387 . S
C2480 C2483 1.387 . S
H2481 C2477 0.950 . S
H2482 C2479 0.950 . S
C2483 C2474 1.390 . S
C2483 H2476 0.950 . S
C2483 C2480 1.387 . S
C2484 C2485 1.387 . S
C2484 H2488 0.950 . S
C2484 C2493 1.390 . S
C2485 C2484 1.387 . S
C2485 C2487 1.387 . S
H2486 C2493 0.950 . S
C2487 C2485 1.387 . S
C2487 C2489 1.390 . S
C2487 H2491 0.950 . S
H2488 C2484 0.950 . S
C2489 C2487 1.390 . S
C2489 C2490 1.387 . S
C2489 H2492 0.950 . S
C2490 C2489 1.387 . S
C2490 C2493 1.387 . S
H2491 C2487 0.950 . S
H2492 C2489 0.950 . S
C2493 C2484 1.390 . S
C2493 H2486 0.950 . S
C2493 C2490 1.387 . S
C2494 C2495 1.387 . S
C2494 H2498 0.950 . S
C2494 C2503 1.390 . S
C2495 C2494 1.387 . S
C2495 C2497 1.387 . S
H2496 C2503 0.950 . S
C2497 C2495 1.387 . S
C2497 C2499 1.390 . S
C2497 H2501 0.950 . S
H2498 C2494 0.950 . S
C2499 C2497 1.390 . S
C2499 C2500 1.387 . S
C2499 H2502 0.950 . S
C2500 C2499 1.387 . S
C2500 C2503 1.387 . S
H2501 C2497 0.950 . S
H2502 C2499 0.950 . S
C2503 C2494 1.390 . S
C2503 H2496 0.950 . S
C2503 C2500 1.387 . S
C2504 C2505 1.387 . S
C2504 H2508 0.950 . S
C2504 C2513 1.390 . S
C2505 C2504 1.387 . S
C2505 C2507 1.387 . S
H2506 C2513 0.950 . S
C2507 C2505 1.387 . S
C2507 C2509 1.390 . S
C2507 H2511 0.950 . S
H2508 C2504 0.950 . S
C2509 C2507 1.390 . S
C2509 C2510 1.387 . S
C2509 H2512 0.950 . S
C2510 C2509 1.387 . S
C2510 C2513 1.387 . S
H2511 C2507 0.950 . S
H2512 C2509 0.950 . S
C2513 C2504 1.390 . S
C2513 H2506 0.950 . S
C2513 C2510 1.387 . S
C2514 C2515 1.387 . S
C2514 H2518 0.950 . S
C2514 C2523 1.390 . S
C2515 C2514 1.387 . S
C2515 C2517 1.387 . S
H2516 C2523 0.950 . S
C2517 C2515 1.387 . S
C2517 C2519 1.390 . S
C2517 H2521 0.950 . S
H2518 C2514 0.950 . S
C2519 C2517 1.390 . S
C2519 C2520 1.387 . S
C2519 H2522 0.950 . S
C2520 C2519 1.387 . S
C2520 C2523 1.387 . S
H2521 C2517 0.950 . S
H2522 C2519 0.950 . S
C2523 C2514 1.390 . S
C2523 H2516 0.950 . S
C2523 C2520 1.387 . S
C2524 C2525 1.387 . S
C2524 H2528 0.950 . S
C2524 C2533 1.390 . S
C2525 C2524 1.387 . S
C2525 C2527 1.387 . S
H2526 C2533 0.950 . S
C2527 C2525 1.387 . S
C2527 C2529 1.390 . S
C2527 H2531 0.950 . S
H2528 C2524 0.950 . S
C2529 C2527 1.390 . S
C2529 C2530 1.387 . S
C2529 H2532 0.950 . S
C2530 C2529 1.387 . S
C2530 C2533 1.387 . S
H2531 C2527 0.950 . S
H2532 C2529 0.950 . S
C2533 C2524 1.390 . S
C2533 H2526 0.950 . S
C2533 C2530 1.387 . S
C2534 C2535 1.387 . S
C2534 H2538 0.950 . S
C2534 C2543 1.390 . S
C2535 C2534 1.387 . S
C2535 C2537 1.387 . S
H2536 C2543 0.950 . S
C2537 C2535 1.387 . S
C2537 C2539 1.390 . S
C2537 H2541 0.950 . S
H2538 C2534 0.950 . S
C2539 C2537 1.390 . S
C2539 C2540 1.387 . S
C2539 H2542 0.950 . S
C2540 C2539 1.387 . S
C2540 C2543 1.387 . S
H2541 C2537 0.950 . S
H2542 C2539 0.950 . S
C2543 C2534 1.390 . S
C2543 H2536 0.950 . S
C2543 C2540 1.387 . S
C2544 C2545 1.387 . S
C2544 H2548 0.950 . S
C2544 C2553 1.390 . S
C2545 C2544 1.387 . S
C2545 C2547 1.387 . S
H2546 C2553 0.950 . S
C2547 C2545 1.387 . S
C2547 C2549 1.390 . S
C2547 H2551 0.950 . S
H2548 C2544 0.950 . S
C2549 C2547 1.390 . S
C2549 C2550 1.387 . S
C2549 H2552 0.950 . S
C2550 C2549 1.387 . S
C2550 C2553 1.387 . S
H2551 C2547 0.950 . S
H2552 C2549 0.950 . S
C2553 C2544 1.390 . S
C2553 H2546 0.950 . S
C2553 C2550 1.387 . S
C2554 C2555 1.387 . S
C2554 H2558 0.950 . S
C2554 C2563 1.390 . S
C2555 C2554 1.387 . S
C2555 C2557 1.387 . S
H2556 C2563 0.950 . S
C2557 C2555 1.387 . S
C2557 C2559 1.390 . S
C2557 H2561 0.950 . S
H2558 C2554 0.950 . S
C2559 C2557 1.390 . S
C2559 C2560 1.387 . S
C2559 H2562 0.950 . S
C2560 C2559 1.387 . S
C2560 C2563 1.387 . S
H2561 C2557 0.950 . S
H2562 C2559 0.950 . S
C2563 C2554 1.390 . S
C2563 H2556 0.950 . S
C2563 C2560 1.387 . S
C2564 C2565 1.387 . S
C2564 H2568 0.950 . S
C2564 C2573 1.390 . S
C2565 C2564 1.387 . S
C2565 C2567 1.387 . S
H2566 C2573 0.950 . S
C2567 C2565 1.387 . S
C2567 C2569 1.390 . S
C2567 H2571 0.950 . S
H2568 C2564 0.950 . S
C2569 C2567 1.390 . S
C2569 C2570 1.387 . S
C2569 H2572 0.950 . S
C2570 C2569 1.387 . S
C2570 C2573 1.387 . S
H2571 C2567 0.950 . S
H2572 C2569 0.950 . S
C2573 C2564 1.390 . S
C2573 H2566 0.950 . S
C2573 C2570 1.387 . S
C2574 C2575 1.387 . S
C2574 H2578 0.950 . S
C2574 C2583 1.390 . S
C2575 C2574 1.387 . S
C2575 C2577 1.387 . S
H2576 C2583 0.950 . S
C2577 C2575 1.387 . S
C2577 C2579 1.390 . S
C2577 H2581 0.950 . S
H2578 C2574 0.950 . S
C2579 C2577 1.390 . S
C2579 C2580 1.387 . S
C2579 H2582 0.950 . S
C2580 C2579 1.387 . S
C2580 C2583 1.387 . S
H2581 C2577 0.950 . S
H2582 C2579 0.950 . S
C2583 C2574 1.390 . S
C2583 H2576 0.950 . S
C2583 C2580 1.387 . S
C2584 C2585 1.387 . S
C2584 H2588 0.950 . S
C2584 C2593 1.390 . S
C2585 C2584 1.387 . S
C2585 C2587 1.387 . S
H2586 C2593 0.950 . S
C2587 C2585 1.387 . S
C2587 C2589 1.390 . S
C2587 H2591 0.950 . S
H2588 C2584 0.950 . S
C2589 C2587 1.390 . S
C2589 C2590 1.387 . S
C2589 H2592 0.950 . S
C2590 C2589 1.387 . S
C2590 C2593 1.387 . S
H2591 C2587 0.950 . S
H2592 C2589 0.950 . S
C2593 C2584 1.390 . S
C2593 H2586 0.950 . S
C2593 C2590 1.387 . S
C2594 C2595 1.387 . S
C2594 H2598 0.950 . S
C2594 C2603 1.390 . S
C2595 C2594 1.387 . S
C2595 C2597 1.387 . S
H2596 C2603 0.950 . S
C2597 C2595 1.387 . S
C2597 C2599 1.390 . S
C2597 H2601 0.950 . S
H2598 C2594 0.950 . S
C2599 C2597 1.390 . S
C2599 C2600 1.387 . S
C2599 H2602 0.950 . S
C2600 C2599 1.387 . S
C2600 C2603 1.387 . S
H2601 C2597 0.950 . S
H2602 C2599 0.950 . S
C2603 C2594 1.390 . S
C2603 H2596 0.950 . S
C2603 C2600 1.387 . S
C2604 C2605 1.387 . S
C2604 H2608 0.950 . S
C2604 C2613 1.390 . S
C2605 C2604 1.387 . S
C2605 C2607 1.387 . S
H2606 C2613 0.950 . S
C2607 C2605 1.387 . S
C2607 C2609 1.390 . S
C2607 H2611 0.950 . S
H2608 C2604 0.950 . S
C2609 C2607 1.390 . S
C2609 C2610 1.387 . S
C2609 H2612 0.950 . S
C2610 C2609 1.387 . S
C2610 C2613 1.387 . S
H2611 C2607 0.950 . S
H2612 C2609 0.950 . S
C2613 C2604 1.390 . S
C2613 H2606 0.950 . S
C2613 C2610 1.387 . S
C2614 C2615 1.387 . S
C2614 H2618 0.950 . S
C2614 C2623 1.390 . S
C2615 C2614 1.387 . S
C2615 C2617 1.387 . S
H2616 C2623 0.950 . S
C2617 C2615 1.387 . S
C2617 C2619 1.390 . S
C2617 H2621 0.950 . S
H2618 C2614 0.950 . S
C2619 C2617 1.390 . S
C2619 C2620 1.387 . S
C2619 H2622 0.950 . S
C2620 C2619 1.387 . S
C2620 C2623 1.387 . S
H2621 C2617 0.950 . S
H2622 C2619 0.950 . S
C2623 C2614 1.390 . S
C2623 H2616 0.950 . S
C2623 C2620 1.387 . S
C2624 C2625 1.387 . S
C2624 H2628 0.950 . S
C2624 C2633 1.390 . S
C2625 C2624 1.387 . S
C2625 C2627 1.387 . S
H2626 C2633 0.950 . S
C2627 C2625 1.387 . S
C2627 C2629 1.390 . S
C2627 H2631 0.950 . S
H2628 C2624 0.950 . S
C2629 C2627 1.390 . S
C2629 C2630 1.387 . S
C2629 H2632 0.950 . S
C2630 C2629 1.387 . S
C2630 C2633 1.387 . S
H2631 C2627 0.950 . S
H2632 C2629 0.950 . S
C2633 C2624 1.390 . S
C2633 H2626 0.950 . S
C2633 C2630 1.387 . S
C2634 C2635 1.387 . S
C2634 H2638 0.950 . S
C2634 C2643 1.390 . S
C2635 C2634 1.387 . S
C2635 C2637 1.387 . S
H2636 C2643 0.950 . S
C2637 C2635 1.387 . S
C2637 C2639 1.390 . S
C2637 H2641 0.950 . S
H2638 C2634 0.950 . S
C2639 C2637 1.390 . S
C2639 C2640 1.387 . S
C2639 H2642 0.950 . S
C2640 C2639 1.387 . S
C2640 C2643 1.387 . S
H2641 C2637 0.950 . S
H2642 C2639 0.950 . S
C2643 C2634 1.390 . S
C2643 H2636 0.950 . S
C2643 C2640 1.387 . S
C2644 C2645 1.387 . S
C2644 H2648 0.950 . S
C2644 C2653 1.390 . S
C2645 C2644 1.387 . S
C2645 C2647 1.387 . S
H2646 C2653 0.950 . S
C2647 C2645 1.387 . S
C2647 C2649 1.390 . S
C2647 H2651 0.950 . S
H2648 C2644 0.950 . S
C2649 C2647 1.390 . S
C2649 C2650 1.387 . S
C2649 H2652 0.950 . S
C2650 C2649 1.387 . S
C2650 C2653 1.387 . S
H2651 C2647 0.950 . S
H2652 C2649 0.950 . S
C2653 C2644 1.390 . S
C2653 H2646 0.950 . S
C2653 C2650 1.387 . S
C2654 C2655 1.387 . S
C2654 H2658 0.950 . S
C2654 C2663 1.390 . S
C2655 C2654 1.387 . S
C2655 C2657 1.387 . S
H2656 C2663 0.950 . S
C2657 C2655 1.387 . S
C2657 C2659 1.390 . S
C2657 H2661 0.950 . S
H2658 C2654 0.950 . S
C2659 C2657 1.390 . S
C2659 C2660 1.387 . S
C2659 H2662 0.950 . S
C2660 C2659 1.387 . S
C2660 C2663 1.387 . S
H2661 C2657 0.950 . S
H2662 C2659 0.950 . S
C2663 C2654 1.390 . S
C2663 H2656 0.950 . S
C2663 C2660 1.387 . S
C2664 C2665 1.387 . S
C2664 H2668 0.950 . S
C2664 C2673 1.390 . S
C2665 C2664 1.387 . S
C2665 C2667 1.387 . S
H2666 C2673 0.950 . S
C2667 C2665 1.387 . S
C2667 C2669 1.390 . S
C2667 H2671 0.950 . S
H2668 C2664 0.950 . S
C2669 C2667 1.390 . S
C2669 C2670 1.387 . S
C2669 H2672 0.950 . S
C2670 C2669 1.387 . S
C2670 C2673 1.387 . S
H2671 C2667 0.950 . S
H2672 C2669 0.950 . S
C2673 C2664 1.390 . S
C2673 H2666 0.950 . S
C2673 C2670 1.387 . S
C2674 C2675 1.387 . S
C2674 H2678 0.950 . S
C2674 C2683 1.390 . S
C2675 C2674 1.387 . S
C2675 C2677 1.387 . S
H2676 C2683 0.950 . S
C2677 C2675 1.387 . S
C2677 C2679 1.390 . S
C2677 H2681 0.950 . S
H2678 C2674 0.950 . S
C2679 C2677 1.390 . S
C2679 C2680 1.387 . S
C2679 H2682 0.950 . S
C2680 C2679 1.387 . S
C2680 C2683 1.387 . S
H2681 C2677 0.950 . S
H2682 C2679 0.950 . S
C2683 C2674 1.390 . S
C2683 H2676 0.950 . S
C2683 C2680 1.387 . S
C2684 C2685 1.387 . S
C2684 H2688 0.950 . S
C2684 C2693 1.390 . S
C2685 C2684 1.387 . S
C2685 C2687 1.387 . S
H2686 C2693 0.950 . S
C2687 C2685 1.387 . S
C2687 C2689 1.390 . S
C2687 H2691 0.950 . S
H2688 C2684 0.950 . S
C2689 C2687 1.390 . S
C2689 C2690 1.387 . S
C2689 H2692 0.950 . S
C2690 C2689 1.387 . S
C2690 C2693 1.387 . S
H2691 C2687 0.950 . S
H2692 C2689 0.950 . S
C2693 C2684 1.390 . S
C2693 H2686 0.950 . S
C2693 C2690 1.387 . S
C2694 C2695 1.387 . S
C2694 H2698 0.950 . S
C2694 C2703 1.390 . S
C2695 C2694 1.387 . S
C2695 C2697 1.387 . S
H2696 C2703 0.950 . S
C2697 C2695 1.387 . S
C2697 C2699 1.390 . S
C2697 H2701 0.950 . S
H2698 C2694 0.950 . S
C2699 C2697 1.390 . S
C2699 C2700 1.387 . S
C2699 H2702 0.950 . S
C2700 C2699 1.387 . S
C2700 C2703 1.387 . S
H2701 C2697 0.950 . S
H2702 C2699 0.950 . S
C2703 C2694 1.390 . S
C2703 H2696 0.950 . S
C2703 C2700 1.387 . S
C2704 C2705 1.387 . S
C2704 H2708 0.950 . S
C2704 C2713 1.390 . S
C2705 C2704 1.387 . S
C2705 C2707 1.387 . S
H2706 C2713 0.950 . S
C2707 C2705 1.387 . S
C2707 C2709 1.390 . S
C2707 H2711 0.950 . S
H2708 C2704 0.950 . S
C2709 C2707 1.390 . S
C2709 C2710 1.387 . S
C2709 H2712 0.950 . S
C2710 C2709 1.387 . S
C2710 C2713 1.387 . S
H2711 C2707 0.950 . S
H2712 C2709 0.950 . S
C2713 C2704 1.390 . S
C2713 H2706 0.950 . S
C2713 C2710 1.387 . S
C2714 C2715 1.387 . S
C2714 H2718 0.950 . S
C2714 C2723 1.390 . S
C2715 C2714 1.387 . S
C2715 C2717 1.387 . S
H2716 C2723 0.950 . S
C2717 C2715 1.387 . S
C2717 C2719 1.390 . S
C2717 H2721 0.950 . S
H2718 C2714 0.950 . S
C2719 C2717 1.390 . S
C2719 C2720 1.387 . S
C2719 H2722 0.950 . S
C2720 C2719 1.387 . S
C2720 C2723 1.387 . S
H2721 C2717 0.950 . S
H2722 C2719 0.950 . S
C2723 C2714 1.390 . S
C2723 H2716 0.950 . S
C2723 C2720 1.387 . S
C2724 C2725 1.387 . S
C2724 H2728 0.950 . S
C2724 C2733 1.390 . S
C2725 C2724 1.387 . S
C2725 C2727 1.387 . S
H2726 C2733 0.950 . S
C2727 C2725 1.387 . S
C2727 C2729 1.390 . S
C2727 H2731 0.950 . S
H2728 C2724 0.950 . S
C2729 C2727 1.390 . S
C2729 C2730 1.387 . S
C2729 H2732 0.950 . S
C2730 C2729 1.387 . S
C2730 C2733 1.387 . S
H2731 C2727 0.950 . S
H2732 C2729 0.950 . S
C2733 C2724 1.390 . S
C2733 H2726 0.950 . S
C2733 C2730 1.387 . S
C2734 C2735 1.387 . S
C2734 H2738 0.950 . S
C2734 C2743 1.390 . S
C2735 C2734 1.387 . S
C2735 C2737 1.387 . S
H2736 C2743 0.950 . S
C2737 C2735 1.387 . S
C2737 C2739 1.390 . S
C2737 H2741 0.950 . S
H2738 C2734 0.950 . S
C2739 C2737 1.390 . S
C2739 C2740 1.387 . S
C2739 H2742 0.950 . S
C2740 C2739 1.387 . S
C2740 C2743 1.387 . S
H2741 C2737 0.950 . S
H2742 C2739 0.950 . S
C2743 C2734 1.390 . S
C2743 H2736 0.950 . S
C2743 C2740 1.387 . S
C2744 C2745 1.387 . S
C2744 H2748 0.950 . S
C2744 C2753 1.390 . S
C2745 C2744 1.387 . S
C2745 C2747 1.387 . S
H2746 C2753 0.950 . S
C2747 C2745 1.387 . S
C2747 C2749 1.390 . S
C2747 H2751 0.950 . S
H2748 C2744 0.950 . S
C2749 C2747 1.390 . S
C2749 C2750 1.387 . S
C2749 H2752 0.950 . S
C2750 C2749 1.387 . S
C2750 C2753 1.387 . S
H2751 C2747 0.950 . S
H2752 C2749 0.950 . S
C2753 C2744 1.390 . S
C2753 H2746 0.950 . S
C2753 C2750 1.387 . S
C2754 C2755 1.387 . S
C2754 H2758 0.950 . S
C2754 C2763 1.390 . S
C2755 C2754 1.387 . S
C2755 C2757 1.387 . S
H2756 C2763 0.950 . S
C2757 C2755 1.387 . S
C2757 C2759 1.390 . S
C2757 H2761 0.950 . S
H2758 C2754 0.950 . S
C2759 C2757 1.390 . S
C2759 C2760 1.387 . S
C2759 H2762 0.950 . S
C2760 C2759 1.387 . S
C2760 C2763 1.387 . S
H2761 C2757 0.950 . S
H2762 C2759 0.950 . S
C2763 C2754 1.390 . S
C2763 H2756 0.950 . S
C2763 C2760 1.387 . S
C2764 C2765 1.387 . S
C2764 H2768 0.950 . S
C2764 C2773 1.390 . S
C2765 C2764 1.387 . S
C2765 C2767 1.387 . S
H2766 C2773 0.950 . S
C2767 C2765 1.387 . S
C2767 C2769 1.390 . S
C2767 H2771 0.950 . S
H2768 C2764 0.950 . S
C2769 C2767 1.390 . S
C2769 C2770 1.387 . S
C2769 H2772 0.950 . S
C2770 C2769 1.387 . S
C2770 C2773 1.387 . S
H2771 C2767 0.950 . S
H2772 C2769 0.950 . S
C2773 C2764 1.390 . S
C2773 H2766 0.950 . S
C2773 C2770 1.387 . S
C2774 C2775 1.387 . S
C2774 H2778 0.950 . S
C2774 C2783 1.390 . S
C2775 C2774 1.387 . S
C2775 C2777 1.387 . S
H2776 C2783 0.950 . S
C2777 C2775 1.387 . S
C2777 C2779 1.390 . S
C2777 H2781 0.950 . S
H2778 C2774 0.950 . S
C2779 C2777 1.390 . S
C2779 C2780 1.387 . S
C2779 H2782 0.950 . S
C2780 C2779 1.387 . S
C2780 C2783 1.387 . S
H2781 C2777 0.950 . S
H2782 C2779 0.950 . S
C2783 C2774 1.390 . S
C2783 H2776 0.950 . S
C2783 C2780 1.387 . S
C2784 C2785 1.387 . S
C2784 H2788 0.950 . S
C2784 C2793 1.390 . S
C2785 C2784 1.387 . S
C2785 C2787 1.387 . S
H2786 C2793 0.950 . S
C2787 C2785 1.387 . S
C2787 C2789 1.390 . S
C2787 H2791 0.950 . S
H2788 C2784 0.950 . S
C2789 C2787 1.390 . S
C2789 C2790 1.387 . S
C2789 H2792 0.950 . S
C2790 C2789 1.387 . S
C2790 C2793 1.387 . S
H2791 C2787 0.950 . S
H2792 C2789 0.950 . S
C2793 C2784 1.390 . S
C2793 H2786 0.950 . S
C2793 C2790 1.387 . S
C2794 C2795 1.387 . S
C2794 H2798 0.950 . S
C2794 C2803 1.390 . S
C2795 C2794 1.387 . S
C2795 C2797 1.387 . S
H2796 C2803 0.950 . S
C2797 C2795 1.387 . S
C2797 C2799 1.390 . S
C2797 H2801 0.950 . S
H2798 C2794 0.950 . S
C2799 C2797 1.390 . S
C2799 C2800 1.387 . S
C2799 H2802 0.950 . S
C2800 C2799 1.387 . S
C2800 C2803 1.387 . S
H2801 C2797 0.950 . S
H2802 C2799 0.950 . S
C2803 C2794 1.390 . S
C2803 H2796 0.950 . S
C2803 C2800 1.387 . S
C2804 C2805 1.387 . S
C2804 H2808 0.950 . S
C2804 C2813 1.390 . S
C2805 C2804 1.387 . S
C2805 C2807 1.387 . S
H2806 C2813 0.950 . S
C2807 C2805 1.387 . S
C2807 C2809 1.390 . S
C2807 H2811 0.950 . S
H2808 C2804 0.950 . S
C2809 C2807 1.390 . S
C2809 C2810 1.387 . S
C2809 H2812 0.950 . S
C2810 C2809 1.387 . S
C2810 C2813 1.387 . S
H2811 C2807 0.950 . S
H2812 C2809 0.950 . S
C2813 C2804 1.390 . S
C2813 H2806 0.950 . S
C2813 C2810 1.387 . S
C2814 C2815 1.387 . S
C2814 H2818 0.950 . S
C2814 C2823 1.390 . S
C2815 C2814 1.387 . S
C2815 C2817 1.387 . S
H2816 C2823 0.950 . S
C2817 C2815 1.387 . S
C2817 C2819 1.390 . S
C2817 H2821 0.950 . S
H2818 C2814 0.950 . S
C2819 C2817 1.390 . S
C2819 C2820 1.387 . S
C2819 H2822 0.950 . S
C2820 C2819 1.387 . S
C2820 C2823 1.387 . S
H2821 C2817 0.950 . S
H2822 C2819 0.950 . S
C2823 C2814 1.390 . S
C2823 H2816 0.950 . S
C2823 C2820 1.387 . S
C2824 C2825 1.387 . S
C2824 H2828 0.950 . S
C2824 C2833 1.390 . S
C2825 C2824 1.387 . S
C2825 C2827 1.387 . S
H2826 C2833 0.950 . S
C2827 C2825 1.387 . S
C2827 C2829 1.390 . S
C2827 H2831 0.950 . S
H2828 C2824 0.950 . S
C2829 C2827 1.390 . S
C2829 C2830 1.387 . S
C2829 H2832 0.950 . S
C2830 C2829 1.387 . S
C2830 C2833 1.387 . S
H2831 C2827 0.950 . S
H2832 C2829 0.950 . S
C2833 C2824 1.390 . S
C2833 H2826 0.950 . S
C2833 C2830 1.387 . S
C2834 C2835 1.387 . S
C2834 H2838 0.950 . S
C2834 C2843 1.390 . S
C2835 C2834 1.387 . S
C2835 C2837 1.387 . S
H2836 C2843 0.950 . S
C2837 C2835 1.387 . S
C2837 C2839 1.390 . S
C2837 H2841 0.950 . S
H2838 C2834 0.950 . S
C2839 C2837 1.390 . S
C2839 C2840 1.387 . S
C2839 H2842 0.950 . S
C2840 C2839 1.387 . S
C2840 C2843 1.387 . S
H2841 C2837 0.950 . S
H2842 C2839 0.950 . S
C2843 C2834 1.390 . S
C2843 H2836 0.950 . S
C2843 C2840 1.387 . S
C2844 C2845 1.387 . S
C2844 H2848 0.950 . S
C2844 C2853 1.390 . S
C2845 C2844 1.387 . S
C2845 C2847 1.387 . S
H2846 C2853 0.950 . S
C2847 C2845 1.387 . S
C2847 C2849 1.390 . S
C2847 H2851 0.950 . S
H2848 C2844 0.950 . S
C2849 C2847 1.390 . S
C2849 C2850 1.387 . S
C2849 H2852 0.950 . S
C2850 C2849 1.387 . S
C2850 C2853 1.387 . S
H2851 C2847 0.950 . S
H2852 C2849 0.950 . S
C2853 C2844 1.390 . S
C2853 H2846 0.950 . S
C2853 C2850 1.387 . S
C2854 C2855 1.387 . S
C2854 H2858 0.950 . S
C2854 C2863 1.390 . S
C2855 C2854 1.387 . S
C2855 C2857 1.387 . S
H2856 C2863 0.950 . S
C2857 C2855 1.387 . S
C2857 C2859 1.390 . S
C2857 H2861 0.950 . S
H2858 C2854 0.950 . S
C2859 C2857 1.390 . S
C2859 C2860 1.387 . S
C2859 H2862 0.950 . S
C2860 C2859 1.387 . S
C2860 C2863 1.387 . S
H2861 C2857 0.950 . S
H2862 C2859 0.950 . S
C2863 C2854 1.390 . S
C2863 H2856 0.950 . S
C2863 C2860 1.387 . S
C2864 C2865 1.387 . S
C2864 H2868 0.950 . S
C2864 C2873 1.390 . S
C2865 C2864 1.387 . S
C2865 C2867 1.387 . S
H2866 C2873 0.950 . S
C2867 C2865 1.387 . S
C2867 C2869 1.390 . S
C2867 H2871 0.950 . S
H2868 C2864 0.950 . S
C2869 C2867 1.390 . S
C2869 C2870 1.387 . S
C2869 H2872 0.950 . S
C2870 C2869 1.387 . S
C2870 C2873 1.387 . S
H2871 C2867 0.950 . S
H2872 C2869 0.950 . S
C2873 C2864 1.390 . S
C2873 H2866 0.950 . S
C2873 C2870 1.387 . S
C2874 C2875 1.387 . S
C2874 H2878 0.950 . S
C2874 C2883 1.390 . S
C2875 C2874 1.387 . S
C2875 C2877 1.387 . S
H2876 C2883 0.950 . S
C2877 C2875 1.387 . S
C2877 C2879 1.390 . S
C2877 H2881 0.950 . S
H2878 C2874 0.950 . S
C2879 C2877 1.390 . S
C2879 C2880 1.387 . S
C2879 H2882 0.950 . S
C2880 C2879 1.387 . S
C2880 C2883 1.387 . S
H2881 C2877 0.950 . S
H2882 C2879 0.950 . S
C2883 C2874 1.390 . S
C2883 H2876 0.950 . S
C2883 C2880 1.387 . S
C2884 C2885 1.387 . S
C2884 H2888 0.950 . S
C2884 C2893 1.390 . S
C2885 C2884 1.387 . S
C2885 C2887 1.387 . S
H2886 C2893 0.950 . S
C2887 C2885 1.387 . S
C2887 C2889 1.390 . S
C2887 H2891 0.950 . S
H2888 C2884 0.950 . S
C2889 C2887 1.390 . S
C2889 C2890 1.387 . S
C2889 H2892 0.950 . S
C2890 C2889 1.387 . S
C2890 C2893 1.387 . S
H2891 C2887 0.950 . S
H2892 C2889 0.950 . S
C2893 C2884 1.390 . S
C2893 H2886 0.950 . S
C2893 C2890 1.387 . S
C2894 C2895 1.387 . S
C2894 H2898 0.950 . S
C2894 C2903 1.390 . S
C2895 C2894 1.387 . S
C2895 C2897 1.387 . S
H2896 C2903 0.950 . S
C2897 C2895 1.387 . S
C2897 C2899 1.390 . S
C2897 H2901 0.950 . S
H2898 C2894 0.950 . S
C2899 C2897 1.390 . S
C2899 C2900 1.387 . S
C2899 H2902 0.950 . S
C2900 C2899 1.387 . S
C2900 C2903 1.387 . S
H2901 C2897 0.950 . S
H2902 C2899 0.950 . S
C2903 C2894 1.390 . S
C2903 H2896 0.950 . S
C2903 C2900 1.387 . S
C2904 C2905 1.387 . S
C2904 H2908 0.950 . S
C2904 C2913 1.390 . S
C2905 C2904 1.387 . S
C2905 C2907 1.387 . S
H2906 C2913 0.950 . S
C2907 C2905 1.387 . S
C2907 C2909 1.390 . S
C2907 H2911 0.950 . S
H2908 C2904 0.950 . S
C2909 C2907 1.390 . S
C2909 C2910 1.387 . S
C2909 H2912 0.950 . S
C2910 C2909 1.387 . S
C2910 C2913 1.387 . S
H2911 C2907 0.950 . S
H2912 C2909 0.950 . S
C2913 C2904 1.390 . S
C2913 H2906 0.950 . S
C2913 C2910 1.387 . S
C2914 C2915 1.387 . S
C2914 H2918 0.950 . S
C2914 C2923 1.390 . S
C2915 C2914 1.387 . S
C2915 C2917 1.387 . S
H2916 C2923 0.950 . S
C2917 C2915 1.387 . S
C2917 C2919 1.390 . S
C2917 H2921 0.950 . S
H2918 C2914 0.950 . S
C2919 C2917 1.390 . S
C2919 C2920 1.387 . S
C2919 H2922 0.950 . S
C2920 C2919 1.387 . S
C2920 C2923 1.387 . S
H2921 C2917 0.950 . S
H2922 C2919 0.950 . S
C2923 C2914 1.390 . S
C2923 H2916 0.950 . S
C2923 C2920 1.387 . S
C2924 C2925 1.387 . S
C2924 H2928 0.950 . S
C2924 C2933 1.390 . S
C2925 C2924 1.387 . S
C2925 C2927 1.387 . S
H2926 C2933 0.950 . S
C2927 C2925 1.387 . S
C2927 C2929 1.390 . S
C2927 H2931 0.950 . S
H2928 C2924 0.950 . S
C2929 C2927 1.390 . S
C2929 C2930 1.387 . S
C2929 H2932 0.950 . S
C2930 C2929 1.387 . S
C2930 C2933 1.387 . S
H2931 C2927 0.950 . S
H2932 C2929 0.950 . S
C2933 C2924 1.390 . S
C2933 H2926 0.950 . S
C2933 C2930 1.387 . S
C2934 C2935 1.387 . S
C2934 H2938 0.950 . S
C2934 C2943 1.390 . S
C2935 C2934 1.387 . S
C2935 C2937 1.387 . S
H2936 C2943 0.950 . S
C2937 C2935 1.387 . S
C2937 C2939 1.390 . S
C2937 H2941 0.950 . S
H2938 C2934 0.950 . S
C2939 C2937 1.390 . S
C2939 C2940 1.387 . S
C2939 H2942 0.950 . S
C2940 C2939 1.387 . S
C2940 C2943 1.387 . S
H2941 C2937 0.950 . S
H2942 C2939 0.950 . S
C2943 C2934 1.390 . S
C2943 H2936 0.950 . S
C2943 C2940 1.387 . S
C2944 C2945 1.387 . S
C2944 H2948 0.950 . S
C2944 C2953 1.390 . S
C2945 C2944 1.387 . S
C2945 C2947 1.387 . S
H2946 C2953 0.950 . S
C2947 C2945 1.387 . S
C2947 C2949 1.390 . S
C2947 H2951 0.950 . S
H2948 C2944 0.950 . S
C2949 C2947 1.390 . S
C2949 C2950 1.387 . S
C2949 H2952 0.950 . S
C2950 C2949 1.387 . S
C2950 C2953 1.387 . S
H2951 C2947 0.950 . S
H2952 C2949 0.950 . S
C2953 C2944 1.390 . S
C2953 H2946 0.950 . S
C2953 C2950 1.387 . S
C2954 C2955 1.387 . S
C2954 H2958 0.950 . S
C2954 C2963 1.390 . S
C2955 C2954 1.387 . S
C2955 C2957 1.387 . S
H2956 C2963 0.950 . S
C2957 C2955 1.387 . S
C2957 C2959 1.390 . S
C2957 H2961 0.950 . S
H2958 C2954 0.950 . S
C2959 C2957 1.390 . S
C2959 C2960 1.387 . S
C2959 H2962 0.950 . S
C2960 C2959 1.387 . S
C2960 C2963 1.387 . S
H2961 C2957 0.950 . S
H2962 C2959 0.950 . S
C2963 C2954 1.390 . S
C2963 H2956 0.950 . S
C2963 C2960 1.387 . S
C2964 C2965 1.387 . S
C2964 H2968 0.950 . S
C2964 C2973 1.390 . S
C2965 C2964 1.387 . S
C2965 C2967 1.387 . S
H2966 C2973 0.950 . S
C2967 C2965 1.387 . S
C2967 C2969 1.390 . S
C2967 H2971 0.950 . S
H2968 C2964 0.950 . S
C2969 C2967 1.390 . S
C2969 C2970 1.387 . S
C2969 H2972 0.950 . S
C2970 C2969 1.387 . S
C2970 C2973 1.387 . S
H2971 C2967 0.950 . S
H2972 C2969 0.950 . S
C2973 C2964 1.390 . S
C2973 H2966 0.950 . S
C2973 C2970 1.387 . S
C2974 C2975 1.387 . S
C2974 H2978 0.950 . S
C2974 C2983 1.390 . S
C2975 C2974 1.387 . S
C2975 C2977 1.387 . S
H2976 C2983 0.950 . S
C2977 C2975 1.387 . S
C2977 C2979 1.390 . S
C2977 H2981 0.950 . S
H2978 C2974 0.950 . S
C2979 C2977 1.390 . S
C2979 C2980 1.387 . S
C2979 H2982 0.950 . S
C2980 C2979 1.387 . S
C2980 C2983 1.387 . S
H2981 C2977 0.950 . S
H2982 C2979 0.950 . S
C2983 C2974 1.390 . S
C2983 H2976 0.950 . S
C2983 C2980 1.387 . S
C2984 C2985 1.387 . S
C2984 H2988 0.950 . S
C2984 C2993 1.390 . S
C2985 C2984 1.387 . S
C2985 C2987 1.387 . S
H2986 C2993 0.950 . S
C2987 C2985 1.387 . S
C2987 C2989 1.390 . S
C2987 H2991 0.950 . S
H2988 C2984 0.950 . S
C2989 C2987 1.390 . S
C2989 C2990 1.387 . S
C2989 H2992 0.950 . S
C2990 C2989 1.387 . S
C2990 C2993 1.387 . S
H2991 C2987 0.950 . S
H2992 C2989 0.950 . S
C2993 C2984 1.390 . S
C2993 H2986 0.950 . S
C2993 C2990 1.387 . S
C2994 C2995 1.387 . S
C2994 H2998 0.950 . S
C2994 C3003 1.390 . S
C2995 C2994 1.387 . S
C2995 C2997 1.387 . S
H2996 C3003 0.950 . S
C2997 C2995 1.387 . S
C2997 C2999 1.390 . S
C2997 H3001 0.950 . S
H2998 C2994 0.950 . S
C2999 C2997 1.390 . S
C2999 C3000 1.387 . S
C2999 H3002 0.950 . S
C3000 C2999 1.387 . S
C3000 C3003 1.387 . S
H3001 C2997 0.950 . S
H3002 C2999 0.950 . S
C3003 C2994 1.390 . S
C3003 H2996 0.950 . S
C3003 C3000 1.387 . S
C3004 C3005 1.387 . S
C3004 H3008 0.950 . S
C3004 C3013 1.390 . S
C3005 C3004 1.387 . S
C3005 C3007 1.387 . S
H3006 C3013 0.950 . S
C3007 C3005 1.387 . S
C3007 C3009 1.390 . S
C3007 H3011 0.950 . S
H3008 C3004 0.950 . S
C3009 C3007 1.390 . S
C3009 C3010 1.387 . S
C3009 H3012 0.950 . S
C3010 C3009 1.387 . S
C3010 C3013 1.387 . S
H3011 C3007 0.950 . S
H3012 C3009 0.950 . S
C3013 C3004 1.390 . S
C3013 H3006 0.950 . S
C3013 C3010 1.387 . S
C3014 C3015 1.387 . S
C3014 H3018 0.950 . S
C3014 C3023 1.390 . S
C3015 C3014 1.387 . S
C3015 C3017 1.387 . S
H3016 C3023 0.950 . S
C3017 C3015 1.387 . S
C3017 C3019 1.390 . S
C3017 H3021 0.950 . S
H3018 C3014 0.950 . S
C3019 C3017 1.390 . S
C3019 C3020 1.387 . S
C3019 H3022 0.950 . S
C3020 C3019 1.387 . S
C3020 C3023 1.387 . S
H3021 C3017 0.950 . S
H3022 C3019 0.950 . S
C3023 C3014 1.390 . S
C3023 H3016 0.950 . S
C3023 C3020 1.387 . S
C3024 C3025 1.387 . S
C3024 H3028 0.950 . S
C3024 C3033 1.390 . S
C3025 C3024 1.387 . S
C3025 C3027 1.387 . S
H3026 C3033 0.950 . S
C3027 C3025 1.387 . S
C3027 C3029 1.390 . S
C3027 H3031 0.950 . S
H3028 C3024 0.950 . S
C3029 C3027 1.390 . S
C3029 C3030 1.387 . S
C3029 H3032 0.950 . S
C3030 C3029 1.387 . S
C3030 C3033 1.387 . S
H3031 C3027 0.950 . S
H3032 C3029 0.950 . S
C3033 C3024 1.390 . S
C3033 H3026 0.950 . S
C3033 C3030 1.387 . S
C3034 C3035 1.387 . S
C3034 H3038 0.950 . S
C3034 C3043 1.390 . S
C3035 C3034 1.387 . S
C3035 C3037 1.387 . S
H3036 C3043 0.950 . S
C3037 C3035 1.387 . S
C3037 C3039 1.390 . S
C3037 H3041 0.950 . S
H3038 C3034 0.950 . S
C3039 C3037 1.390 . S
C3039 C3040 1.387 . S
C3039 H3042 0.950 . S
C3040 C3039 1.387 . S
C3040 C3043 1.387 . S
H3041 C3037 0.950 . S
H3042 C3039 0.950 . S
C3043 C3034 1.390 . S
C3043 H3036 0.950 . S
C3043 C3040 1.387 . S
C3044 C3045 1.387 . S
C3044 H3048 0.950 . S
C3044 C3053 1.390 . S
C3045 C3044 1.387 . S
C3045 C3047 1.387 . S
H3046 C3053 0.950 . S
C3047 C3045 1.387 . S
C3047 C3049 1.390 . S
C3047 H3051 0.950 . S
H3048 C3044 0.950 . S
C3049 C3047 1.390 . S
C3049 C3050 1.387 . S
C3049 H3052 0.950 . S
C3050 C3049 1.387 . S
C3050 C3053 1.387 . S
H3051 C3047 0.950 . S
H3052 C3049 0.950 . S
C3053 C3044 1.390 . S
C3053 H3046 0.950 . S
C3053 C3050 1.387 . S
C3054 C3055 1.387 . S
C3054 H3058 0.950 . S
C3054 C3063 1.390 . S
C3055 C3054 1.387 . S
C3055 C3057 1.387 . S
H3056 C3063 0.950 . S
C3057 C3055 1.387 . S
C3057 C3059 1.390 . S
C3057 H3061 0.950 . S
H3058 C3054 0.950 . S
C3059 C3057 1.390 . S
C3059 C3060 1.387 . S
C3059 H3062 0.950 . S
C3060 C3059 1.387 . S
C3060 C3063 1.387 . S
H3061 C3057 0.950 . S
H3062 C3059 0.950 . S
C3063 C3054 1.390 . S
C3063 H3056 0.950 . S
C3063 C3060 1.387 . S
C3064 C3065 1.387 . S
C3064 H3068 0.950 . S
C3064 C3073 1.390 . S
C3065 C3064 1.387 . S
C3065 C3067 1.387 . S
H3066 C3073 0.950 . S
C3067 C3065 1.387 . S
C3067 C3069 1.390 . S
C3067 H3071 0.950 . S
H3068 C3064 0.950 . S
C3069 C3067 1.390 . S
C3069 C3070 1.387 . S
C3069 H3072 0.950 . S
C3070 C3069 1.387 . S
C3070 C3073 1.387 . S
H3071 C3067 0.950 . S
H3072 C3069 0.950 . S
C3073 C3064 1.390 . S
C3073 H3066 0.950 . S
C3073 C3070 1.387 . S
C3074 C3075 1.387 . S
C3074 H3078 0.950 . S
C3074 C3083 1.390 . S
C3075 C3074 1.387 . S
C3075 C3077 1.387 . S
H3076 C3083 0.950 . S
C3077 C3075 1.387 . S
C3077 C3079 1.390 . S
C3077 H3081 0.950 . S
H3078 C3074 0.950 . S
C3079 C3077 1.390 . S
C3079 C3080 1.387 . S
C3079 H3082 0.950 . S
C3080 C3079 1.387 . S
C3080 C3083 1.387 . S
H3081 C3077 0.950 . S
H3082 C3079 0.950 . S
C3083 C3074 1.390 . S
C3083 H3076 0.950 . S
C3083 C3080 1.387 . S
C3084 C3085 1.387 . S
C3084 H3088 0.950 . S
C3084 C3093 1.390 . S
C3085 C3084 1.387 . S
C3085 C3087 1.387 . S
H3086 C3093 0.950 . S
C3087 C3085 1.387 . S
C3087 C3089 1.390 . S
C3087 H3091 0.950 . S
H3088 C3084 0.950 . S
C3089 C3087 1.390 . S
C3089 C3090 1.387 . S
C3089 H3092 0.950 . S
C3090 C3089 1.387 . S
C3090 C3093 1.387 . S
H3091 C3087 0.950 . S
H3092 C3089 0.950 . S
C3093 C3084 1.390 . S
C3093 H3086 0.950 . S
C3093 C3090 1.387 . S
C3094 C3095 1.387 . S
C3094 H3098 0.950 . S
C3094 C3103 1.390 . S
C3095 C3094 1.387 . S
C3095 C3097 1.387 . S
H3096 C3103 0.950 . S
C3097 C3095 1.387 . S
C3097 C3099 1.390 . S
C3097 H3101 0.950 . S
H3098 C3094 0.950 . S
C3099 C3097 1.390 . S
C3099 C3100 1.387 . S
C3099 H3102 0.950 . S
C3100 C3099 1.387 . S
C3100 C3103 1.387 . S
H3101 C3097 0.950 . S
H3102 C3099 0.950 . S
C3103 C3094 1.390 . S
C3103 H3096 0.950 . S
C3103 C3100 1.387 . S
C3104 C3105 1.387 . S
C3104 H3108 0.950 . S
C3104 C3113 1.390 . S
C3105 C3104 1.387 . S
C3105 C3107 1.387 . S
H3106 C3113 0.950 . S
C3107 C3105 1.387 . S
C3107 C3109 1.390 . S
C3107 H3111 0.950 . S
H3108 C3104 0.950 . S
C3109 C3107 1.390 . S
C3109 C3110 1.387 . S
C3109 H3112 0.950 . S
C3110 C3109 1.387 . S
C3110 C3113 1.387 . S
H3111 C3107 0.950 . S
H3112 C3109 0.950 . S
C3113 C3104 1.390 . S
C3113 H3106 0.950 . S
C3113 C3110 1.387 . S
C3114 C3115 1.387 . S
C3114 H3118 0.950 . S
C3114 C3123 1.390 . S
C3115 C3114 1.387 . S
C3115 C3117 1.387 . S
H3116 C3123 0.950 . S
C3117 C3115 1.387 . S
C3117 C3119 1.390 . S
C3117 H3121 0.950 . S
H3118 C3114 0.950 . S
C3119 C3117 1.390 . S
C3119 C3120 1.387 . S
C3119 H3122 0.950 . S
C3120 C3119 1.387 . S
C3120 C3123 1.387 . S
H3121 C3117 0.950 . S
H3122 C3119 0.950 . S
C3123 C3114 1.390 . S
C3123 H3116 0.950 . S
C3123 C3120 1.387 . S
C3124 C3125 1.387 . S
C3124 H3128 0.950 . S
C3124 C3133 1.390 . S
C3125 C3124 1.387 . S
C3125 C3127 1.387 . S
H3126 C3133 0.950 . S
C3127 C3125 1.387 . S
C3127 C3129 1.390 . S
C3127 H3131 0.950 . S
H3128 C3124 0.950 . S
C3129 C3127 1.390 . S
C3129 C3130 1.387 . S
C3129 H3132 0.950 . S
C3130 C3129 1.387 . S
C3130 C3133 1.387 . S
H3131 C3127 0.950 . S
H3132 C3129 0.950 . S
C3133 C3124 1.390 . S
C3133 H3126 0.950 . S
C3133 C3130 1.387 . S
C3134 C3135 1.387 . S
C3134 H3138 0.950 . S
C3134 C3143 1.390 . S
C3135 C3134 1.387 . S
C3135 C3137 1.387 . S
H3136 C3143 0.950 . S
C3137 C3135 1.387 . S
C3137 C3139 1.390 . S
C3137 H3141 0.950 . S
H3138 C3134 0.950 . S
C3139 C3137 1.390 . S
C3139 C3140 1.387 . S
C3139 H3142 0.950 . S
C3140 C3139 1.387 . S
C3140 C3143 1.387 . S
H3141 C3137 0.950 . S
H3142 C3139 0.950 . S
C3143 C3134 1.390 . S
C3143 H3136 0.950 . S
C3143 C3140 1.387 . S
C3144 C3145 1.387 . S
C3144 H3148 0.950 . S
C3144 C3153 1.390 . S
C3145 C3144 1.387 . S
C3145 C3147 1.387 . S
H3146 C3153 0.950 . S
C3147 C3145 1.387 . S
C3147 C3149 1.390 . S
C3147 H3151 0.950 . S
H3148 C3144 0.950 . S
C3149 C3147 1.390 . S
C3149 C3150 1.387 . S
C3149 H3152 0.950 . S
C3150 C3149 1.387 . S
C3150 C3153 1.387 . S
H3151 C3147 0.950 . S
H3152 C3149 0.950 . S
C3153 C3144 1.390 . S
C3153 H3146 0.950 . S
C3153 C3150 1.387 . S
C3154 C3155 1.387 . S
C3154 H3158 0.950 . S
C3154 C3163 1.390 . S
C3155 C3154 1.387 . S
C3155 C3157 1.387 . S
H3156 C3163 0.950 . S
C3157 C3155 1.387 . S
C3157 C3159 1.390 . S
C3157 H3161 0.950 . S
H3158 C3154 0.950 . S
C3159 C3157 1.390 . S
C3159 C3160 1.387 . S
C3159 H3162 0.950 . S
C3160 C3159 1.387 . S
C3160 C3163 1.387 . S
H3161 C3157 0.950 . S
H3162 C3159 0.950 . S
C3163 C3154 1.390 . S
C3163 H3156 0.950 . S
C3163 C3160 1.387 . S
C3164 C3165 1.387 . S
C3164 H3168 0.950 . S
C3164 C3173 1.390 . S
C3165 C3164 1.387 . S
C3165 C3167 1.387 . S
H3166 C3173 0.950 . S
C3167 C3165 1.387 . S
C3167 C3169 1.390 . S
C3167 H3171 0.950 . S
H3168 C3164 0.950 . S
C3169 C3167 1.390 . S
C3169 C3170 1.387 . S
C3169 H3172 0.950 . S
C3170 C3169 1.387 . S
C3170 C3173 1.387 . S
H3171 C3167 0.950 . S
H3172 C3169 0.950 . S
C3173 C3164 1.390 . S
C3173 H3166 0.950 . S
C3173 C3170 1.387 . S
C3174 C3175 1.387 . S
C3174 H3178 0.950 . S
C3174 C3183 1.390 . S
C3175 C3174 1.387 . S
C3175 C3177 1.387 . S
H3176 C3183 0.950 . S
C3177 C3175 1.387 . S
C3177 C3179 1.390 . S
C3177 H3181 0.950 . S
H3178 C3174 0.950 . S
C3179 C3177 1.390 . S
C3179 C3180 1.387 . S
C3179 H3182 0.950 . S
C3180 C3179 1.387 . S
C3180 C3183 1.387 . S
H3181 C3177 0.950 . S
H3182 C3179 0.950 . S
C3183 C3174 1.390 . S
C3183 H3176 0.950 . S
C3183 C3180 1.387 . S
C3184 C3185 1.387 . S
C3184 H3188 0.950 . S
C3184 C3193 1.390 . S
C3185 C3184 1.387 . S
C3185 C3187 1.387 . S
H3186 C3193 0.950 . S
C3187 C3185 1.387 . S
C3187 C3189 1.390 . S
C3187 H3191 0.950 . S
H3188 C3184 0.950 . S
C3189 C3187 1.390 . S
C3189 C3190 1.387 . S
C3189 H3192 0.950 . S
C3190 C3189 1.387 . S
C3190 C3193 1.387 . S
H3191 C3187 0.950 . S
H3192 C3189 0.950 . S
C3193 C3184 1.390 . S
C3193 H3186 0.950 . S
C3193 C3190 1.387 . S
C3194 C3195 1.387 . S
C3194 H3198 0.950 . S
C3194 C3203 1.390 . S
C3195 C3194 1.387 . S
C3195 C3197 1.387 . S
H3196 C3203 0.950 . S
C3197 C3195 1.387 . S
C3197 C3199 1.390 . S
C3197 H3201 0.950 . S
H3198 C3194 0.950 . S
C3199 C3197 1.390 . S
C3199 C3200 1.387 . S
C3199 H3202 0.950 . S
C3200 C3199 1.387 . S
C3200 C3203 1.387 . S
H3201 C3197 0.950 . S
H3202 C3199 0.950 . S
C3203 C3194 1.390 . S
C3203 H3196 0.950 . S
C3203 C3200 1.387 . S
C3204 C3205 1.387 . S
C3204 H3208 0.950 . S
C3204 C3213 1.390 . S
C3205 C3204 1.387 . S
C3205 C3207 1.387 . S
H3206 C3213 0.950 . S
C3207 C3205 1.387 . S
C3207 C3209 1.390 . S
C3207 H3211 0.950 . S
H3208 C3204 0.950 . S
C3209 C3207 1.390 . S
C3209 C3210 1.387 . S
C3209 H3212 0.950 . S
C3210 C3209 1.387 . S
C3210 C3213 1.387 . S
H3211 C3207 0.950 . S
H3212 C3209 0.950 . S
C3213 C3204 1.390 . S
C3213 H3206 0.950 . S
C3213 C3210 1.387 . S
C3214 C3215 1.387 . S
C3214 H3218 0.950 . S
C3214 C3223 1.390 . S
C3215 C3214 1.387 . S
C3215 C3217 1.387 . S
H3216 C3223 0.950 . S
C3217 C3215 1.387 . S
C3217 C3219 1.390 . S
C3217 H3221 0.950 . S
H3218 C3214 0.950 . S
C3219 C3217 1.390 . S
C3219 C3220 1.387 . S
C3219 H3222 0.950 . S
C3220 C3219 1.387 . S
C3220 C3223 1.387 . S
H3221 C3217 0.950 . S
H3222 C3219 0.950 . S
C3223 C3214 1.390 . S
C3223 H3216 0.950 . S
C3223 C3220 1.387 . S
C3224 C3225 1.387 . S
C3224 H3228 0.950 . S
C3224 C3233 1.390 . S
C3225 C3224 1.387 . S
C3225 C3227 1.387 . S
H3226 C3233 0.950 . S
C3227 C3225 1.387 . S
C3227 C3229 1.390 . S
C3227 H3231 0.950 . S
H3228 C3224 0.950 . S
C3229 C3227 1.390 . S
C3229 C3230 1.387 . S
C3229 H3232 0.950 . S
C3230 C3229 1.387 . S
C3230 C3233 1.387 . S
H3231 C3227 0.950 . S
H3232 C3229 0.950 . S
C3233 C3224 1.390 . S
C3233 H3226 0.950 . S
C3233 C3230 1.387 . S
C3234 C3235 1.387 . S
C3234 H3238 0.950 . S
C3234 C3243 1.390 . S
C3235 C3234 1.387 . S
C3235 C3237 1.387 . S
H3236 C3243 0.950 . S
C3237 C3235 1.387 . S
C3237 C3239 1.390 . S
C3237 H3241 0.950 . S
H3238 C3234 0.950 . S
C3239 C3237 1.390 . S
C3239 C3240 1.387 . S
C3239 H3242 0.950 . S
C3240 C3239 1.387 . S
C3240 C3243 1.387 . S
H3241 C3237 0.950 . S
H3242 C3239 0.950 . S
C3243 C3234 1.390 . S
C3243 H3236 0.950 . S
C3243 C3240 1.387 . S
C3244 C3245 1.387 . S
C3244 H3248 0.950 . S
C3244 C3253 1.390 . S
C3245 C3244 1.387 . S
C3245 C3247 1.387 . S
H3246 C3253 0.950 . S
C3247 C3245 1.387 . S
C3247 C3249 1.390 . S
C3247 H3251 0.950 . S
H3248 C3244 0.950 . S
C3249 C3247 1.390 . S
C3249 C3250 1.387 . S
C3249 H3252 0.950 . S
C3250 C3249 1.387 . S
C3250 C3253 1.387 . S
H3251 C3247 0.950 . S
H3252 C3249 0.950 . S
C3253 C3244 1.390 . S
C3253 H3246 0.950 . S
C3253 C3250 1.387 . S
C3254 C3255 1.387 . S
C3254 H3258 0.950 . S
C3254 C3263 1.390 . S
C3255 C3254 1.387 . S
C3255 C3257 1.387 . S
H3256 C3263 0.950 . S
C3257 C3255 1.387 . S
C3257 C3259 1.390 . S
C3257 H3261 0.950 . S
H3258 C3254 0.950 . S
C3259 C3257 1.390 . S
C3259 C3260 1.387 . S
C3259 H3262 0.950 . S
C3260 C3259 1.387 . S
C3260 C3263 1.387 . S
H3261 C3257 0.950 . S
H3262 C3259 0.950 . S
C3263 C3254 1.390 . S
C3263 H3256 0.950 . S
C3263 C3260 1.387 . S
C1345 C8 1.719 . S
C1350 C428 1.719 . S
C1355 C779 1.719 . S
C1360 C23 1.719 . S
C1365 C36 1.719 . S
C1370 C400 1.719 . S
C1375 C51 1.719 . S
C1380 C751 1.719 . S
C1385 C372 1.719 . S
C1390 C64 1.719 . S
C1395 C79 1.719 . S
C1400 C723 1.719 . S
C1405 C344 1.719 . S
C1410 C92 1.719 . S
C1415 C107 1.719 . S
C1420 C695 1.719 . S
C1425 C484 1.719 . S
C1430 C120 1.719 . S
C1435 C134 1.719 . S
C1440 C834 1.719 . S
C1445 C148 1.719 . S
C1450 C456 1.719 . S
C1455 C162 1.719 . S
C1460 C806 1.719 . S
C1465 C176 1.719 . S
C1470 C540 1.719 . S
C1475 C890 1.719 . S
C1480 C190 1.719 . S
C1485 C512 1.719 . S
C1490 C204 1.719 . S
C1495 C218 1.719 . S
C1500 C862 1.719 . S
C1505 C919 1.719 . S
C1510 C233 1.719 . S
C1515 C905 1.719 . S
C1520 C247 1.719 . S
C1525 C260 1.719 . S
C1530 C1002 1.719 . S
C1535 C1311 1.719 . S
C1540 C275 1.719 . S
C1545 C652 1.719 . S
C1550 C288 1.719 . S
C1555 C303 1.719 . S
C1560 C1283 1.719 . S
C1565 C316 1.719 . S
C1570 C624 1.719 . S
C1575 C330 1.719 . S
C1580 C932 1.719 . S
C1585 C359 1.719 . S
C1590 C1115 1.719 . S
C1595 C387 1.719 . S
C1600 C1087 1.719 . S
C1605 C415 1.719 . S
C1610 C1059 1.719 . S
C1615 C443 1.719 . S
C1620 C1031 1.719 . S
C1625 C1170 1.719 . S
C1630 C470 1.719 . S
C1635 C498 1.719 . S
C1640 C1142 1.719 . S
C1645 C1226 1.719 . S
C1650 C526 1.719 . S
C1655 C554 1.719 . S
C1660 C1198 1.719 . S
C1665 C569 1.719 . S
C1670 C1255 1.719 . S
C1675 C583 1.719 . S
C1680 C1241 1.719 . S
C1685 C596 1.719 . S
C1690 C1338 1.719 . S
C1695 C975 1.719 . S
C1700 C611 1.719 . S
C1705 C947 1.719 . S
C1710 C639 1.719 . S
C1715 C666 1.719 . S
C1720 C1268 1.719 . S
C1725 C680 1.719 . S
C1730 C1100 1.719 . S
C1735 C1072 1.719 . S
C1740 C708 1.719 . S
C1745 C736 1.719 . S
C1750 C1044 1.719 . S
C1755 C764 1.719 . S
C1760 C1016 1.719 . S
C1765 C1156 1.719 . S
C1770 C792 1.719 . S
C1775 C1128 1.719 . S
C1780 C820 1.719 . S
C1785 C848 1.719 . S
C1790 C1212 1.719 . S
C1795 C1184 1.719 . S
C1800 C876 1.719 . S
C1805 C960 1.719 . S
C1810 C1324 1.719 . S
C1815 C988 1.719 . S
C1820 C1296 1.719 . S
C1825 C6 1.436 1_655 S
C1830 C777 1.437 . S
C1835 C21 1.437 . S
C1840 C398 1.436 1_655 S
C1845 C34 1.436 1_455 S
C1850 C749 1.436 . S
C1855 C426 1.436 1_455 S
C1860 C49 1.437 . S
C1865 C62 1.436 1_655 S
C1870 C357 1.437 . S
C1875 C77 1.436 . S
C1880 C706 1.437 . S
C1885 C90 1.436 1_455 S
C1890 C385 1.437 . S
C1895 C678 1.436 . S
C1900 C105 1.437 . S
C1905 C118 1.437 1_565 S
C1910 C286 1.437 . S
C1915 C132 1.437 . S
C1920 C1253 1.436 . S
C1925 C1266 1.437 . S
C1930 C146 1.437 . S
C1935 C160 1.437 . S
C1940 C1281 1.436 1_554 S
C1945 C1000 1.437 . S
C1950 C174 1.437 1_545 S
C1955 C1309 1.437 1_556 S
C1960 C188 1.436 . S
C1965 C202 1.437 . S
C1970 C986 1.437 . S
C1975 C903 1.437 . S
C1980 C216 1.437 . S
C1985 C888 1.437 . S
C1990 C231 1.437 1_556 S
C1995 C1140 1.437 . S
C2000 C245 1.437 . S
C2005 C258 1.436 . S
C2010 C1154 1.437 1_545 S
C2015 C273 1.436 1_554 S
C2020 C1168 1.437 . S
C2025 C301 1.437 1_556 S
C2030 C1196 1.436 . S
C2035 C314 1.437 . S
C2040 C874 1.437 . S
C2045 C846 1.437 1_545 S
C2050 C328 1.436 . S
C2055 C342 1.437 1_655 S
C2060 C1113 1.436 . S
C2065 C1085 1.436 . S
C2070 C370 1.437 1_455 S
C2075 C1042 1.436 . S
C2080 C413 1.437 . S
C2085 C441 1.437 . S
C2090 C1014 1.436 . S
C2095 C454 1.437 . S
C2100 C622 1.437 . S
C2105 C468 1.437 . S
C2110 C917 1.437 1_554 S
C2115 C482 1.437 1_545 S
C2120 C930 1.437 . S
C2125 C496 1.436 . S
C2130 C945 1.437 . S
C2135 C510 1.436 . S
C2140 C1336 1.437 . S
C2145 C973 1.437 . S
C2150 C524 1.436 . S
C2155 C1322 1.437 . S
C2160 C538 1.437 1_565 S
C2165 C1239 1.437 1_556 S
C2170 C552 1.437 . S
C2175 C1224 1.437 . S
C2180 C567 1.437 . S
C2185 C581 1.436 1_554 S
C2190 C804 1.437 . S
C2195 C594 1.436 . S
C2200 C818 1.437 . S
C2205 C609 1.437 . S
C2210 C832 1.436 . S
C2215 C860 1.437 . S
C2220 C637 1.436 . S
C2225 C1210 1.436 1_565 S
C2230 C650 1.436 . S
C2235 C1182 1.437 . S
C2240 C664 1.437 . S
C2245 C693 1.437 . S
C2250 C1070 1.436 . S
C2255 C721 1.437 . S
C2260 C1098 1.437 . S
C2265 C1029 1.437 . S
C2270 C734 1.437 . S
C2275 C1057 1.437 . S
C2280 C762 1.436 . S
C2285 C958 1.437 . S
C2290 C790 1.437 1_565 S
C2295 C1294 1.436 . S
C2300 C1126 1.437 . S
C2305 C9 1.110 . S
C2310 C1308 1.212 . S
C2315 C22 1.116 . S
C2320 C987 1.209 . S
C2325 C902 1.210 . S
C2330 C37 1.115 . S
C2335 C1001 1.211 . S
C2340 C50 1.112 . S
C2345 C65 1.110 . S
C2350 C272 1.212 . S
C2355 C78 1.115 . S
C2360 C1295 1.210 . S
C2365 C244 1.209 . S
C2370 C93 1.116 . S
C2375 C259 1.211 . S
C2380 C106 1.112 . S
C2385 C399 1.212 . S
C2390 C121 1.111 . S
C2395 C135 1.116 . S
C2400 C748 1.209 . S
C2405 C149 1.116 . S
C2410 C427 1.209 . S
C2415 C163 1.110 . S
C2420 C776 1.212 . S
C2425 C343 1.209 . S
C2430 C177 1.116 . S
C2435 C191 1.114 . S
C2440 C692 1.210 . S
C2445 C371 1.210 . S
C2450 C205 1.114 . S
C2455 C219 1.113 . S
C2460 C720 1.211 . S
C2465 C232 1.116 . S
C2470 C1211 1.209 . S
C2475 C483 1.209 . S
C2480 C246 1.116 . S
C2485 C261 1.110 . S
C2490 C833 1.212 . S
C2495 C455 1.212 . S
C2500 C274 1.110 . S
C2505 C289 1.110 . S
C2510 C469 1.212 . S
C2515 C847 1.212 . S
C2520 C302 1.110 . S
C2525 C189 1.212 . S
C2530 C317 1.110 . S
C2535 C217 1.211 . S
C2540 C331 1.113 . S
C2545 C972 1.210 . S
C2550 C345 1.115 . S
C2555 C358 1.110 . S
C2560 C1323 1.212 . S
C2565 C1238 1.212 . S
C2570 C373 1.111 . S
C2575 C386 1.110 . S
C2580 C1337 1.212 . S
C2585 C608 1.210 . S
C2590 C401 1.115 . S
C2595 C959 1.212 . S
C2600 C414 1.110 . S
C2605 C429 1.112 . S
C2610 C580 1.211 . S
C2615 C442 1.110 . S
C2620 C595 1.212 . S
C2625 C457 1.115 . S
C2630 C63 1.210 . S
C2635 C471 1.111 . S
C2640 C1084 1.212 . S
C2645 C91 1.211 . S
C2650 C485 1.111 . S
C2655 C499 1.116 . S
C2660 C1112 1.209 . S
C2665 C7 1.212 . S
C2670 C513 1.110 . S
C2675 C527 1.115 . S
C2680 C1028 1.210 . S
C2685 C35 1.212 . S
C2690 C541 1.110 . S
C2695 C1056 1.212 . S
C2700 C555 1.111 . S
C2705 C568 1.110 . S
C2710 C875 1.212 . S
C2715 C582 1.116 . S
C2720 C147 1.209 . S
C2725 C1169 1.210 . S
C2730 C597 1.114 . S
C2735 C610 1.110 . S
C2740 C119 1.212 . S
C2745 C133 1.210 . S
C2750 C625 1.113 . S
C2755 C638 1.111 . S
C2760 C1183 1.211 . S
C2765 C525 1.211 . S
C2770 C653 1.111 . S
C2775 C667 1.110 . S
C2780 C553 1.212 . S
C2785 C636 1.210 . S
C2790 C681 1.115 . S
C2795 C694 1.116 . S
C2800 C315 1.209 . S
C2805 C709 1.111 . S
C2810 C230 1.212 . S
C2815 C722 1.116 . S
C2820 C329 1.209 . S
C2825 C737 1.114 . S
C2830 C944 1.210 . S
C2835 C623 1.209 . S
C2840 C750 1.116 . S
C2845 C916 1.209 . S
C2850 C765 1.116 . S
C2855 C778 1.116 . S
C2860 C931 1.209 . S
C2865 C1071 1.212 . S
C2870 C793 1.111 . S
C2875 C76 1.212 . S
C2880 C807 1.110 . S
C2885 C1099 1.211 . S
C2890 C821 1.113 . S
C2895 C835 1.115 . S
C2900 C104 1.210 . S
C2905 C1015 1.212 . S
C2910 C849 1.110 . S
C2915 C863 1.113 . S
C2920 C20 1.211 . S
C2925 C1043 1.210 . S
C2930 C877 1.114 . S
C2935 C48 1.210 . S
C2940 C891 1.115 . S
C2945 C539 1.212 . S
C2950 C904 1.110 . S
C2955 C918 1.110 . S
C2960 C1155 1.212 . S
C2965 C933 1.116 . S
C2970 C161 1.210 . S
C2975 C1127 1.212 . S
C2980 C946 1.110 . S
C2985 C961 1.115 . S
C2990 C1141 1.210 . S
C2995 C175 1.212 . S
C3000 C974 1.110 . S
C3005 C861 1.212 . S
C3010 C989 1.111 . S
C3015 C1003 1.111 . S
C3020 C889 1.211 . S
C3025 C1017 1.111 . S
C3030 C300 1.212 . S
C3035 C651 1.210 . S
C3040 C1030 1.116 . S
C3045 C566 1.209 . S
C3050 C1045 1.116 . S
C3055 C1058 1.110 . S
C3060 C665 1.212 . S
C3065 C1073 1.115 . S
C3070 C1280 1.210 . S
C3075 C287 1.209 . S
C3080 C1086 1.116 . S
C3085 C1252 1.212 . S
C3090 C1101 1.110 . S
C3095 C1267 1.209 . S
C3100 C1114 1.116 . S
C3105 C735 1.210 . S
C3110 C1129 1.115 . S
C3115 C1143 1.110 . S
C3120 C412 1.212 . S
C3125 C1157 1.110 . S
C3130 C763 1.212 . S
C3135 C1171 1.116 . S
C3140 C440 1.209 . S
C3145 C679 1.210 . S
C3150 C1185 1.114 . S
C3155 C1199 1.113 . S
C3160 C356 1.211 . S
C3165 C1213 1.111 . S
C3170 C707 1.212 . S
C3175 C1227 1.116 . S
C3180 C384 1.209 . S
C3185 C203 1.210 . S
C3190 C1240 1.116 . S
C3195 C1254 1.110 . S
C3200 C819 1.212 . S
C3205 C1269 1.112 . S
C3210 C497 1.211 . S
C3215 C1282 1.116 . S
C3220 C791 1.209 . S
C3225 C1297 1.110 . S
C3230 C805 1.212 . S
C3235 C511 1.212 . S
C3240 C1310 1.110 . S
C3245 C1197 1.209 . S
C3250 C1325 1.116 . S
C3255 C1225 1.211 . S
C3260 C1339 1.112 . S
