# Generated by pormake.
# Topology whr, (6)-cn, num edge types: 1
# Building blocks:
#     Node 0, Type 0, BuildingBlock: IZENUY_clean_sbu_0, # of connection points: 6
#     Node 1, Type 0, BuildingBlock: IZENUY_clean_sbu_0, # of connection points: 6
#     Node 2, Type 0, BuildingBlock: IZENUY_clean_sbu_0, # of connection points: 6
#     Node 3, Type 0, BuildingBlock: IZENUY_clean_sbu_0, # of connection points: 6
#     Node 4, Type 0, BuildingBlock: IZENUY_clean_sbu_0, # of connection points: 6
#     Node 5, Type 0, BuildingBlock: IZENUY_clean_sbu_0, # of connection points: 6
#     Node 6, Type 0, BuildingBlock: IZENUY_clean_sbu_0, # of connection points: 6
#     Node 7, Type 0, BuildingBlock: IZENUY_clean_sbu_0, # of connection points: 6
#     Node 8, Type 0, BuildingBlock: IZENUY_clean_sbu_0, # of connection points: 6
#     Node 9, Type 0, BuildingBlock: IZENUY_clean_sbu_0, # of connection points: 6
#     Node 10, Type 0, BuildingBlock: IZENUY_clean_sbu_0, # of connection points: 6
#     Node 11, Type 0, BuildingBlock: IZENUY_clean_sbu_0, # of connection points: 6
#     Node 12, Type 0, BuildingBlock: IZENUY_clean_sbu_0, # of connection points: 6
#     Node 13, Type 0, BuildingBlock: IZENUY_clean_sbu_0, # of connection points: 6
#     Node 14, Type 0, BuildingBlock: IZENUY_clean_sbu_0, # of connection points: 6
#     Node 15, Type 0, BuildingBlock: IZENUY_clean_sbu_0, # of connection points: 6
#     Edge 16, Type (0, 0), BuildingBlock: TEMPAE_clean_linker_10, # of connection points: 2
#     Edge 17, Type (0, 0), BuildingBlock: TEMPAE_clean_linker_10, # of connection points: 2
#     Edge 18, Type (0, 0), BuildingBlock: TEMPAE_clean_linker_10, # of connection points: 2
#     Edge 19, Type (0, 0), BuildingBlock: TEMPAE_clean_linker_10, # of connection points: 2
#     Edge 20, Type (0, 0), BuildingBlock: TEMPAE_clean_linker_10, # of connection points: 2
#     Edge 21, Type (0, 0), BuildingBlock: TEMPAE_clean_linker_10, # of connection points: 2
#     Edge 22, Type (0, 0), BuildingBlock: TEMPAE_clean_linker_10, # of connection points: 2
#     Edge 23, Type (0, 0), BuildingBlock: TEMPAE_clean_linker_10, # of connection points: 2
#     Edge 24, Type (0, 0), BuildingBlock: TEMPAE_clean_linker_10, # of connection points: 2
#     Edge 25, Type (0, 0), BuildingBlock: TEMPAE_clean_linker_10, # of connection points: 2
#     Edge 26, Type (0, 0), BuildingBlock: TEMPAE_clean_linker_10, # of connection points: 2
#     Edge 27, Type (0, 0), BuildingBlock: TEMPAE_clean_linker_10, # of connection points: 2
#     Edge 28, Type (0, 0), BuildingBlock: TEMPAE_clean_linker_10, # of connection points: 2
#     Edge 29, Type (0, 0), BuildingBlock: TEMPAE_clean_linker_10, # of connection points: 2
#     Edge 30, Type (0, 0), BuildingBlock: TEMPAE_clean_linker_10, # of connection points: 2
#     Edge 31, Type (0, 0), BuildingBlock: TEMPAE_clean_linker_10, # of connection points: 2
#     Edge 32, Type (0, 0), BuildingBlock: TEMPAE_clean_linker_10, # of connection points: 2
#     Edge 33, Type (0, 0), BuildingBlock: TEMPAE_clean_linker_10, # of connection points: 2
#     Edge 34, Type (0, 0), BuildingBlock: TEMPAE_clean_linker_10, # of connection points: 2
#     Edge 35, Type (0, 0), BuildingBlock: TEMPAE_clean_linker_10, # of connection points: 2
#     Edge 36, Type (0, 0), BuildingBlock: TEMPAE_clean_linker_10, # of connection points: 2
#     Edge 37, Type (0, 0), BuildingBlock: TEMPAE_clean_linker_10, # of connection points: 2
#     Edge 38, Type (0, 0), BuildingBlock: TEMPAE_clean_linker_10, # of connection points: 2
#     Edge 39, Type (0, 0), BuildingBlock: TEMPAE_clean_linker_10, # of connection points: 2
#     Edge 40, Type (0, 0), BuildingBlock: TEMPAE_clean_linker_10, # of connection points: 2
#     Edge 41, Type (0, 0), BuildingBlock: TEMPAE_clean_linker_10, # of connection points: 2
#     Edge 42, Type (0, 0), BuildingBlock: TEMPAE_clean_linker_10, # of connection points: 2
#     Edge 43, Type (0, 0), BuildingBlock: TEMPAE_clean_linker_10, # of connection points: 2
#     Edge 44, Type (0, 0), BuildingBlock: TEMPAE_clean_linker_10, # of connection points: 2
#     Edge 45, Type (0, 0), BuildingBlock: TEMPAE_clean_linker_10, # of connection points: 2
#     Edge 46, Type (0, 0), BuildingBlock: TEMPAE_clean_linker_10, # of connection points: 2
#     Edge 47, Type (0, 0), BuildingBlock: TEMPAE_clean_linker_10, # of connection points: 2
#     Edge 48, Type (0, 0), BuildingBlock: TEMPAE_clean_linker_10, # of connection points: 2
#     Edge 49, Type (0, 0), BuildingBlock: TEMPAE_clean_linker_10, # of connection points: 2
#     Edge 50, Type (0, 0), BuildingBlock: TEMPAE_clean_linker_10, # of connection points: 2
#     Edge 51, Type (0, 0), BuildingBlock: TEMPAE_clean_linker_10, # of connection points: 2
#     Edge 52, Type (0, 0), BuildingBlock: TEMPAE_clean_linker_10, # of connection points: 2
#     Edge 53, Type (0, 0), BuildingBlock: TEMPAE_clean_linker_10, # of connection points: 2
#     Edge 54, Type (0, 0), BuildingBlock: TEMPAE_clean_linker_10, # of connection points: 2
#     Edge 55, Type (0, 0), BuildingBlock: TEMPAE_clean_linker_10, # of connection points: 2
#     Edge 56, Type (0, 0), BuildingBlock: TEMPAE_clean_linker_10, # of connection points: 2
#     Edge 57, Type (0, 0), BuildingBlock: TEMPAE_clean_linker_10, # of connection points: 2
#     Edge 58, Type (0, 0), BuildingBlock: TEMPAE_clean_linker_10, # of connection points: 2
#     Edge 59, Type (0, 0), BuildingBlock: TEMPAE_clean_linker_10, # of connection points: 2
#     Edge 60, Type (0, 0), BuildingBlock: TEMPAE_clean_linker_10, # of connection points: 2
#     Edge 61, Type (0, 0), BuildingBlock: TEMPAE_clean_linker_10, # of connection points: 2
#     Edge 62, Type (0, 0), BuildingBlock: TEMPAE_clean_linker_10, # of connection points: 2
#     Edge 63, Type (0, 0), BuildingBlock: TEMPAE_clean_linker_10, # of connection points: 2
# Relax obj value: 0.339
# Max RMSD: 0.260
# Mean RMSD: 0.260
data_MOF--net-whr--node1-IZENUY_clean_sbu_0--edge1-TEMPAE_clean_linker_10
_symmetry_space_group_name_H-M    P1
_symmetry_Int_Tables_number       1
_symmetry_cell_setting            triclinic
loop_
_symmetry_equiv_pos_as_xyz
'x, y, z'
_cell_length_a     48.28359
_cell_length_b     48.246197
_cell_length_c     28.530826
_cell_angle_alpha  89.990465
_cell_angle_beta   89.930225
_cell_angle_gamma 89.971827
loop_
_atom_site_label
_atom_site_type_symbol
_atom_site_fract_x
_atom_site_fract_y
_atom_site_fract_z
_atom_type_partial_charge
Fe0 Fe 0.20364 0.05915 0.10661 0.0
Fe1 Fe 0.25587 0.03905 0.05664 0.0
O2 O 0.23158 0.06584 0.06821 0.0
Fe3 Fe 0.23483 0.0991 0.04239 0.0
O4 O 0.20035 0.09767 0.01664 0.0
O5 O 0.17974 0.08441 0.08091 0.0
O6 O 0.1899 0.03342 0.0671 0.0
C7 C 0.20317 0.01192 0.0554 0.0
C8 C 0.2195 0.10982 0.13792 0.0
O9 O 0.22948 0.01102 0.05936 0.0
C10 C 0.28963 0.08804 0.05841 0.0
O11 O 0.2214 0.03256 0.14079 0.0
O12 O 0.26471 0.03529 0.1187 0.0
O13 O 0.22217 0.11772 0.09544 0.0
O14 O 0.21642 0.08447 0.14759 0.0
C15 C 0.25018 0.0614 0.96893 0.0
O16 O 0.28607 0.06249 0.04951 0.0
O17 O 0.26926 0.1037 0.06577 0.0
C18 C 0.24673 0.02814 0.14847 0.0
O19 O 0.24903 0.04039 0.99496 0.0
O20 O 0.24821 0.08584 0.98548 0.0
C21 C 0.17866 0.09549 0.04091 0.0
Fe22 Fe 0.04029 0.76114 0.9523 0.0
Fe23 Fe 0.0996 0.78318 0.9702 0.0
O24 O 0.06689 0.78597 0.94237 0.0
Fe25 Fe 0.06052 0.81388 0.90371 0.0
O26 O 0.0333 0.82695 0.94121 0.0
O27 O 0.0118 0.78681 0.94706 0.0
O28 O 0.03995 0.76837 0.01387 0.0
C29 C 0.06037 0.76821 0.04119 0.0
C30 C 0.03336 0.76976 0.85888 0.0
O31 O 0.08514 0.76998 0.02619 0.0
C32 C 0.11221 0.7987 0.87563 0.0
O33 O 0.06404 0.73134 0.96145 0.0
O34 O 0.10521 0.74874 0.94731 0.0
O35 O 0.0358 0.7953 0.8672 0.0
O36 O 0.0384 0.75204 0.8903 0.0
C37 C 0.09498 0.83938 0.97176 0.0
O38 O 0.11929 0.79593 0.91842 0.0
O39 O 0.08714 0.80191 0.86459 0.0
C40 C 0.08976 0.72812 0.9538 0.0
O41 O 0.09722 0.81762 0.99576 0.0
O42 O 0.08437 0.83837 0.93144 0.0
C43 C 0.01193 0.8131 0.95146 0.0
Fe44 Fe 0.78094 0.91274 0.04409 0.0
Fe45 Fe 0.81274 0.95226 0.10824 0.0
O46 O 0.78451 0.94585 0.07038 0.0
Fe47 Fe 0.76017 0.97273 0.05975 0.0
O48 O 0.76675 0.97179 0.99792 0.0
O49 O 0.76713 0.92639 0.98786 0.0
O50 O 0.81516 0.91429 0.01741 0.0
C51 C 0.83713 0.91651 0.04083 0.0
C52 C 0.72631 0.92382 0.06134 0.0
O53 O 0.83649 0.92731 0.0811 0.0
C54 C 0.76977 0.98295 0.15158 0.0
O55 O 0.79395 0.89368 0.09633 0.0
O56 O 0.80038 0.92649 0.14897 0.0
O57 O 0.72993 0.94939 0.05267 0.0
O58 O 0.74668 0.9081 0.06834 0.0
C59 C 0.81278 1.00013 0.05841 0.0
O60 O 0.79507 0.97841 0.14355 0.0
O61 O 0.75165 0.97604 0.12197 0.0
C62 C 0.79677 0.90126 0.13889 0.0
O63 O 0.82621 0.97855 0.06921 0.0
O64 O 0.78648 1.0008 0.06263 0.0
C65 C 0.76525 0.9509 0.97168 0.0
Fe66 Fe 0.95586 0.19788 0.90746 0.0
Fe67 Fe 0.97487 0.25164 0.95377 0.0
O68 O 0.94848 0.22673 0.94356 0.0
Fe69 Fe 0.91501 0.23035 0.96852 0.0
O70 O 0.91641 0.19647 0.9967 0.0
O71 O 0.93097 0.17424 0.93478 0.0
O72 O 0.98176 0.1856 0.9482 0.0
C73 C 1.00302 0.19953 0.95872 0.0
C74 C 0.90513 0.21254 0.87428 0.0
O75 O 1.00335 0.22573 0.95284 0.0
C76 C 0.92561 0.28491 0.94964 0.0
O77 O 0.98213 0.21534 0.87209 0.0
O78 O 0.97864 0.25913 0.89125 0.0
O79 O 0.89691 0.2164 0.91625 0.0
O80 O 0.93049 0.20898 0.8652 0.0
C81 C 0.95204 0.2477 0.04125 0.0
O82 O 0.95111 0.28169 0.95895 0.0
O83 O 0.91028 0.26425 0.94273 0.0
C84 C 0.98612 0.24059 0.86269 0.0
O85 O 0.9733 0.24608 0.01582 0.0
O86 O 0.92778 0.24514 0.02449 0.0
C87 C 0.91925 0.17414 0.97432 0.0
Fe88 Fe 0.8141 0.0649 0.61151 0.0
Fe89 Fe 0.76358 0.04111 0.56137 0.0
O90 O 0.78644 0.06919 0.57185 0.0
Fe91 Fe 0.78192 0.10146 0.54321 0.0
O92 O 0.81644 0.1004 0.51767 0.0
O93 O 0.83735 0.08988 0.58323 0.0
O94 O 0.82941 0.03826 0.57546 0.0
C95 C 0.81704 0.01618 0.56441 0.0
C96 C 0.79616 0.11596 0.6373 0.0
O97 O 0.7908 0.01427 0.56796 0.0
C98 C 0.72777 0.08867 0.5589 0.0
O99 O 0.79656 0.03933 0.64803 0.0
O100 O 0.75362 0.03877 0.62309 0.0
O101 O 0.79388 0.12233 0.59413 0.0
O102 O 0.79992 0.09112 0.64937 0.0
C103 C 0.77046 0.06119 0.47253 0.0
O104 O 0.7326 0.06321 0.55061 0.0
O105 O 0.74738 0.1052 0.56653 0.0
C106 C 0.77116 0.03483 0.65528 0.0
O107 O 0.77221 0.04103 0.50028 0.0
O108 O 0.76911 0.08598 0.48759 0.0
C109 C 0.83819 0.09934 0.54197 0.0
Fe110 Fe 0.06154 0.19997 0.40002 0.0
Fe111 Fe 0.04123 0.25233 0.44932 0.0
O112 O 0.06782 0.22762 0.43903 0.0
Fe113 Fe 0.10035 0.23027 0.46741 0.0
O114 O 0.09755 0.19582 0.49304 0.0
O115 O 0.08481 0.17516 0.42842 0.0
O116 O 0.03393 0.18693 0.43672 0.0
C117 C 0.01261 0.20085 0.44685 0.0
C118 C 0.11366 0.21414 0.37323 0.0
O119 O 0.01262 0.2271 0.44244 0.0
C120 C 0.09068 0.28525 0.45195 0.0
O121 O 0.03735 0.21918 0.36327 0.0
O122 O 0.03979 0.26226 0.38767 0.0
O123 O 0.12037 0.21711 0.41617 0.0
O124 O 0.08861 0.21173 0.3616 0.0
C125 C 0.06074 0.24397 0.53818 0.0
O126 O 0.06504 0.28184 0.46012 0.0
O127 O 0.10609 0.26469 0.44435 0.0
C128 C 0.03487 0.24485 0.35566 0.0
O129 O 0.04053 0.24378 0.51042 0.0
O130 O 0.08559 0.24381 0.52317 0.0
C131 C 0.09481 0.17401 0.46922 0.0
Fe132 Fe 0.19764 0.95011 0.60756 0.0
Fe133 Fe 0.24883 0.97205 0.55691 0.0
O134 O 0.22553 0.94442 0.56866 0.0
Fe135 Fe 0.23006 0.91148 0.54213 0.0
O136 O 0.19541 0.91131 0.51714 0.0
O137 O 0.17395 0.92509 0.58056 0.0
O138 O 0.18321 0.97658 0.56971 0.0
C139 C 0.19618 0.99841 0.55903 0.0
C140 C 0.21523 0.8993 0.6371 0.0
O141 O 0.22237 0.99952 0.56335 0.0
C142 C 0.28437 0.9244 0.55491 0.0
O143 O 0.2158 0.9758 0.64308 0.0
O144 O 0.25892 0.97477 0.61855 0.0
O145 O 0.2185 0.89181 0.59462 0.0
O146 O 0.21074 0.92433 0.64725 0.0
C147 C 0.24121 0.95068 0.46915 0.0
O148 O 0.27947 0.94968 0.54582 0.0
O149 O 0.26482 0.90828 0.56497 0.0
C150 C 0.24134 0.97943 0.65058 0.0
O151 O 0.23986 0.97138 0.49593 0.0
O152 O 0.24238 0.92607 0.48533 0.0
C153 C 0.17354 0.91328 0.54107 0.0
Fe154 Fe 0.94818 0.81578 0.41052 0.0
Fe155 Fe 0.96631 0.76014 0.454 0.0
O156 O 0.941 0.78666 0.44651 0.0
Fe157 Fe 0.9084 0.78427 0.47536 0.0
O158 O 0.90342 0.82163 0.4821 0.0
O159 O 0.94237 0.84018 0.45806 0.0
O160 O 0.98501 0.8173 0.42431 0.0
C161 C 0.99922 0.80705 0.45713 0.0
C162 C 0.89315 0.80218 0.38757 0.0
O163 O 0.99177 0.7848 0.47695 0.0
C164 C 0.91917 0.72838 0.45021 0.0
O165 O 0.95441 0.79409 0.35995 0.0
O166 O 0.98072 0.76306 0.39442 0.0
O167 O 0.88971 0.78416 0.41935 0.0
O168 O 0.91275 0.81944 0.38993 0.0
C169 C 0.9438 0.76701 0.54488 0.0
O170 O 0.94288 0.73298 0.43273 0.0
O171 O 0.90693 0.74654 0.47437 0.0
C172 C 0.97227 0.7751 0.35765 0.0
O173 O 0.95665 0.75281 0.51458 0.0
O174 O 0.92523 0.78416 0.53282 0.0
C175 C 0.92002 0.84183 0.48077 0.0
Fe176 Fe 0.74921 0.54105 0.55393 0.0
Fe177 Fe 0.72903 0.60128 0.53817 0.0
O178 O 0.72479 0.56804 0.56389 0.0
Fe179 Fe 0.69606 0.56144 0.60067 0.0
O180 O 0.6833 0.53497 0.56132 0.0
O181 O 0.72313 0.5129 0.55732 0.0
O182 O 0.74276 0.54187 0.49208 0.0
C183 C 0.74466 0.56282 0.46591 0.0
C184 C 0.73904 0.53281 0.6467 0.0
O185 O 0.74294 0.58739 0.48205 0.0
C186 C 0.71171 0.61239 0.63235 0.0
O187 O 0.77956 0.56417 0.54621 0.0
O188 O 0.76322 0.60532 0.56304 0.0
O189 O 0.7137 0.53581 0.63705 0.0
O190 O 0.75736 0.53823 0.61634 0.0
C191 C 0.67265 0.59835 0.53356 0.0
O192 O 0.71591 0.62027 0.5903 0.0
O193 O 0.70751 0.58721 0.64175 0.0
C194 C 0.78345 0.58965 0.55483 0.0
O195 O 0.69495 0.60082 0.51097 0.0
O196 O 0.67247 0.58615 0.57268 0.0
C197 C 0.69697 0.51337 0.55168 0.0
Fe198 Fe 0.54024 0.25824 0.45127 0.0
Fe199 Fe 0.59976 0.28062 0.46546 0.0
O200 O 0.56629 0.28342 0.44036 0.0
Fe201 Fe 0.55852 0.31179 0.40344 0.0
O202 O 0.5325 0.32413 0.44395 0.0
O203 O 0.51142 0.28377 0.4498 0.0
O204 O 0.54164 0.26438 0.51311 0.0
C205 C 0.5628 0.26353 0.53876 0.0
C206 C 0.52881 0.26831 0.36007 0.0
O207 O 0.58709 0.26632 0.52202 0.0
C208 C 0.60947 0.29775 0.37047 0.0
O209 O 0.56442 0.22858 0.45708 0.0
O210 O 0.60511 0.24648 0.44091 0.0
O211 O 0.53247 0.29367 0.36879 0.0
O212 O 0.5366 0.25011 0.38898 0.0
C213 C 0.59458 0.3368 0.46946 0.0
O214 O 0.61773 0.29435 0.41257 0.0
O215 O 0.58403 0.30054 0.36146 0.0
C216 C 0.59001 0.22565 0.44807 0.0
O217 O 0.59773 0.31478 0.49255 0.0
O218 O 0.58308 0.33606 0.42983 0.0
C219 C 0.51144 0.31002 0.45502 0.0
Fe220 Fe 0.26131 0.47299 0.55638 0.0
Fe221 Fe 0.28005 0.4121 0.54345 0.0
O222 O 0.28464 0.44546 0.56828 0.0
Fe223 Fe 0.31293 0.45138 0.60614 0.0
O224 O 0.32759 0.47618 0.56593 0.0
O225 O 0.28882 0.49998 0.55761 0.0
O226 O 0.26771 0.47077 0.49462 0.0
C227 C 0.26547 0.44953 0.46939 0.0
C228 C 0.27131 0.48439 0.64793 0.0
O229 O 0.26665 0.42524 0.48663 0.0
C230 C 0.29515 0.40169 0.63884 0.0
O231 O 0.23022 0.45056 0.55057 0.0
O232 O 0.24571 0.40898 0.56786 0.0
O233 O 0.29641 0.47895 0.63991 0.0
O234 O 0.25296 0.47771 0.61854 0.0
C235 C 0.33628 0.41386 0.54068 0.0
O236 O 0.29241 0.39353 0.59658 0.0
O237 O 0.29924 0.42697 0.64786 0.0
C238 C 0.22584 0.42523 0.56027 0.0
O239 O 0.31439 0.41218 0.51687 0.0
O240 O 0.33572 0.42501 0.58066 0.0
C241 C 0.31507 0.49795 0.55343 0.0
Fe242 Fe 0.46657 0.7541 0.45082 0.0
Fe243 Fe 0.40852 0.73039 0.4722 0.0
O244 O 0.44103 0.72786 0.44312 0.0
Fe245 Fe 0.44784 0.69892 0.40656 0.0
O246 O 0.4847 0.69699 0.41992 0.0
O247 O 0.49193 0.72906 0.4731 0.0
O248 O 0.45711 0.76113 0.5116 0.0
C249 C 0.44424 0.74686 0.54177 0.0
C250 C 0.4721 0.73968 0.3542 0.0
O251 O 0.42548 0.72994 0.52957 0.0
C252 C 0.39303 0.71331 0.38404 0.0
O253 O 0.44327 0.78159 0.43013 0.0
O254 O 0.40736 0.76812 0.47192 0.0
O255 O 0.45406 0.72088 0.35635 0.0
O256 O 0.48079 0.75142 0.39109 0.0
C257 C 0.41956 0.67261 0.47624 0.0
O258 O 0.38974 0.73111 0.41622 0.0
O259 O 0.41233 0.69571 0.3863 0.0
C260 C 0.4196 0.78626 0.44772 0.0
O261 O 0.40319 0.69301 0.47821 0.0
O262 O 0.44197 0.67427 0.45369 0.0
C263 C 0.49918 0.70693 0.45265 0.0
Fe264 Fe 0.31382 0.5628 0.11068 0.0
Fe265 Fe 0.2622 0.54086 0.0612 0.0
O266 O 0.28612 0.56814 0.07134 0.0
Fe267 Fe 0.28263 0.60053 0.04257 0.0
O268 O 0.31715 0.59855 0.01716 0.0
O269 O 0.33796 0.58681 0.08217 0.0
O270 O 0.32783 0.53537 0.07443 0.0
C271 C 0.31454 0.51364 0.06422 0.0
C272 C 0.29738 0.61459 0.1368 0.0
O273 O 0.28828 0.51297 0.06821 0.0
C274 C 0.22799 0.58952 0.05835 0.0
O275 O 0.29531 0.5381 0.14761 0.0
O276 O 0.25228 0.53915 0.12294 0.0
O277 O 0.29497 0.6211 0.09368 0.0
O278 O 0.30105 0.58969 0.14874 0.0
C279 C 0.26994 0.56037 0.97202 0.0
O280 O 0.23198 0.56393 0.05026 0.0
O281 O 0.24815 0.60544 0.06557 0.0
C282 C 0.26975 0.53465 0.15503 0.0
O283 O 0.27073 0.54025 1.00002 0.0
O284 O 0.26959 0.58528 0.98685 0.0
C285 C 0.33892 0.5967 0.04123 0.0
Fe286 Fe 0.56188 0.69953 0.90059 0.0
Fe287 Fe 0.54074 0.75181 0.94949 0.0
O288 O 0.56771 0.7274 0.93955 0.0
Fe289 Fe 0.6003 0.73054 0.96763 0.0
O290 O 0.59828 0.69603 0.99298 0.0
O291 O 0.58608 0.67532 0.92826 0.0
O292 O 0.53478 0.68592 0.93784 0.0
C293 C 0.51324 0.69948 0.9483 0.0
C294 C 0.61334 0.71583 0.87304 0.0
O295 O 0.5127 0.72577 0.94389 0.0
C296 C 0.58971 0.78548 0.9517 0.0
O297 O 0.53691 0.71784 0.8641 0.0
O298 O 0.53883 0.76106 0.88752 0.0
O299 O 0.62028 0.71817 0.91595 0.0
O300 O 0.58838 0.71211 0.86176 0.0
C301 C 0.56076 0.7449 0.03842 0.0
O302 O 0.56402 0.78188 0.95905 0.0
O303 O 0.60547 0.76511 0.94497 0.0
C304 C 0.53408 0.74336 0.85595 0.0
O305 O 0.54038 0.74442 0.01102 0.0
O306 O 0.58557 0.74348 0.02354 0.0
C307 C 0.59642 0.67431 0.9688 0.0
Fe308 Fe 0.7006 0.45172 0.1036 0.0
Fe309 Fe 0.7536 0.47228 0.05655 0.0
O310 O 0.72885 0.44555 0.06567 0.0
Fe311 Fe 0.732 0.41289 0.03767 0.0
O312 O 0.69791 0.41542 0.01085 0.0
O313 O 0.67655 0.42785 0.07494 0.0
O314 O 0.68778 0.47888 0.06591 0.0
C315 C 0.70154 0.50037 0.05613 0.0
C316 C 0.71527 0.39996 0.13167 0.0
O317 O 0.72777 0.50069 0.06118 0.0
C318 C 0.78672 0.42282 0.0557 0.0
O319 O 0.71865 0.47655 0.14069 0.0
O320 O 0.7621 0.47421 0.11886 0.0
O321 O 0.71841 0.39304 0.08882 0.0
O322 O 0.71231 0.42506 0.14288 0.0
C323 C 0.74821 0.45222 0.96731 0.0
O324 O 0.78349 0.44856 0.0481 0.0
O325 O 0.7661 0.4073 0.0619 0.0
C326 C 0.74405 0.47933 0.14976 0.0
O327 O 0.74698 0.47261 0.99475 0.0
O328 O 0.74617 0.42742 0.98224 0.0
C329 C 0.67589 0.41769 0.03423 0.0
Fe330 Fe 0.47349 0.26266 0.94862 0.0
Fe331 Fe 0.41397 0.28335 0.96743 0.0
O332 O 0.44642 0.28689 0.93891 0.0
Fe333 Fe 0.45204 0.31488 0.90026 0.0
O334 O 0.47954 0.32831 0.93672 0.0
O335 O 0.50159 0.2885 0.94194 0.0
O336 O 0.47406 0.27084 0.00991 0.0
C337 C 0.45382 0.26978 0.03765 0.0
C338 C 0.47979 0.27081 0.85499 0.0
O339 O 0.429 0.26957 0.02267 0.0
C340 C 0.40019 0.29951 0.87383 0.0
O341 O 0.45024 0.23257 0.95905 0.0
O342 O 0.40893 0.24908 0.94348 0.0
O343 O 0.47653 0.29637 0.86284 0.0
O344 O 0.47513 0.25314 0.88677 0.0
C345 C 0.4182 0.33967 0.97031 0.0
O346 O 0.39364 0.29646 0.9168 0.0
O347 O 0.42513 0.30274 0.86197 0.0
C348 C 0.42468 0.22875 0.95074 0.0
O349 O 0.4161 0.31765 0.9938 0.0
O350 O 0.42828 0.33904 0.92944 0.0
C351 C 0.50118 0.31475 0.94623 0.0
C352 C 0.21362 0.15887 0.16702 0.0
C353 C 0.21362 0.13023 0.17572 0.0
C354 C 0.20308 0.17762 0.20045 0.0
C355 C 0.19158 0.16736 0.24277 0.0
C356 C 0.19359 0.13875 0.25315 0.0
C357 C 0.20494 0.12067 0.21989 0.0
C358 C 0.20265 0.20815 0.18913 0.0
C359 C 0.18142 0.12673 0.29758 0.0
C360 C 0.16328 0.20756 0.3471 0.0
C361 C 0.13483 0.20748 0.337 0.0
C362 C 0.18262 0.19687 0.31474 0.0
C363 C 0.17314 0.18505 0.27218 0.0
C364 C 0.14468 0.18658 0.26067 0.0
C365 C 0.12606 0.19818 0.29275 0.0
C366 C 0.21294 0.1969 0.32736 0.0
C367 C 0.13342 0.17391 0.21609 0.0
H368 H 0.22075 0.16658 0.13343 0.0
H369 H 0.20526 0.09867 0.22755 0.0
H370 H 0.18187 0.214 0.17587 0.0
H371 H 0.20682 0.22073 0.22092 0.0
H372 H 0.21815 0.21347 0.16176 0.0
H373 H 0.18632 0.10437 0.3018 0.0
H374 H 0.18928 0.13799 0.32869 0.0
H375 H 0.15855 0.12916 0.29708 0.0
H376 H 0.17037 0.21509 0.3808 0.0
H377 H 0.10421 0.19833 0.28402 0.0
H378 H 0.22609 0.19995 0.29585 0.0
H379 H 0.21852 0.17667 0.3432 0.0
H380 H 0.21775 0.21339 0.35329 0.0
H381 H 0.14452 0.18222 0.18512 0.0
H382 H 0.11092 0.1779 0.21148 0.0
H383 H 0.13675 0.15114 0.21664 0.0
C384 C 0.16174 0.80244 0.84783 0.0
C385 C 0.13323 0.80391 0.83861 0.0
C386 C 0.18119 0.81184 0.81461 0.0
C387 C 0.17178 0.82384 0.77214 0.0
C388 C 0.14318 0.82344 0.76139 0.0
C389 C 0.1244 0.81305 0.79432 0.0
C390 C 0.2116 0.81036 0.82635 0.0
C391 C 0.13198 0.83626 0.71687 0.0
C392 C 0.20391 0.88779 0.72005 0.0
C393 C 0.21091 0.87854 0.67486 0.0
C394 C 0.19327 0.86959 0.75371 0.0
C395 C 0.19043 0.84115 0.74263 0.0
C396 C 0.20077 0.83108 0.69935 0.0
C397 C 0.21051 0.84999 0.66551 0.0
C398 C 0.1825 0.88142 0.79932 0.0
C399 C 0.1998 0.80064 0.68745 0.0
H400 H 0.16885 0.79488 0.88152 0.0
H401 H 0.10248 0.81382 0.78624 0.0
H402 H 0.22451 0.80831 0.79432 0.0
H403 H 0.21786 0.82958 0.84483 0.0
H404 H 0.21599 0.79261 0.85001 0.0
H405 H 0.10927 0.8333 0.7131 0.0
H406 H 0.13637 0.85885 0.71671 0.0
H407 H 0.1423 0.82714 0.68577 0.0
H408 H 0.20483 0.9097 0.72828 0.0
H409 H 0.21649 0.8425 0.63113 0.0
H410 H 0.19127 0.86994 0.82949 0.0
H411 H 0.15964 0.87911 0.8008 0.0
H412 H 0.18762 0.90373 0.80349 0.0
H413 H 0.20349 0.78772 0.71903 0.0
H414 H 0.21541 0.79526 0.66029 0.0
H415 H 0.17904 0.79536 0.67348 0.0
C416 C 0.88441 0.81598 0.30566 0.0
C417 C 0.8737 0.80564 0.34791 0.0
C418 C 0.86705 0.82607 0.27042 0.0
C419 C 0.83801 0.82552 0.27712 0.0
C420 C 0.82692 0.81238 0.31755 0.0
C421 C 0.84498 0.80267 0.35286 0.0
C422 C 0.88003 0.8397 0.22801 0.0
C423 C 0.79609 0.81029 0.32511 0.0
C424 C 0.80706 0.88957 0.22242 0.0
C425 C 0.80133 0.88046 0.17668 0.0
C426 C 0.81679 0.87128 0.25681 0.0
C427 C 0.82038 0.84289 0.24575 0.0
C428 C 0.81184 0.83299 0.20128 0.0
C429 C 0.80268 0.85194 0.16701 0.0
C430 C 0.82566 0.88294 0.30362 0.0
C431 C 0.81417 0.80272 0.1887 0.0
H432 H 0.90667 0.81772 0.30127 0.0
H433 H 0.8366 0.79447 0.38529 0.0
H434 H 0.87085 0.83143 0.1953 0.0
H435 H 0.87587 0.86233 0.22891 0.0
H436 H 0.90281 0.83653 0.22653 0.0
H437 H 0.79087 0.79343 0.35014 0.0
H438 H 0.78828 0.83008 0.33984 0.0
H439 H 0.78513 0.80651 0.29154 0.0
H440 H 0.80556 0.91144 0.23078 0.0
H441 H 0.79783 0.84453 0.13211 0.0
H442 H 0.84856 0.88184 0.30659 0.0
H443 H 0.81679 0.87056 0.3327 0.0
H444 H 0.81921 0.90489 0.30822 0.0
H445 H 0.83568 0.79811 0.17744 0.0
H446 H 0.80006 0.79723 0.15941 0.0
H447 H 0.80936 0.78936 0.21931 0.0
C448 C 0.80418 0.12933 0.72042 0.0
C449 C 0.80137 0.13747 0.67339 0.0
C450 C 0.81652 0.1468 0.75348 0.0
C451 C 0.82553 0.17347 0.73959 0.0
C452 C 0.81941 0.18316 0.69386 0.0
C453 C 0.80765 0.1649 0.66096 0.0
C454 C 0.8226 0.13547 0.80179 0.0
C455 C 0.82736 0.212 0.67852 0.0
C456 C 0.85672 0.21349 0.84146 0.0
C457 C 0.88483 0.20667 0.83658 0.0
C458 C 0.83718 0.20489 0.80787 0.0
C459 C 0.8459 0.18831 0.7696 0.0
C460 C 0.87444 0.1826 0.7634 0.0
C461 C 0.89352 0.19217 0.79652 0.0
C462 C 0.80714 0.2125 0.81469 0.0
C463 C 0.88476 0.16465 0.72355 0.0
H464 H 0.7987 0.10841 0.73075 0.0
H465 H 0.8051 0.17159 0.62495 0.0
H466 H 0.84527 0.1324 0.80573 0.0
H467 H 0.81592 0.15035 0.82914 0.0
H468 H 0.81213 0.11532 0.80827 0.0
H469 H 0.81528 0.21869 0.64738 0.0
H470 H 0.82408 0.22714 0.70729 0.0
H471 H 0.84965 0.21239 0.66909 0.0
H472 H 0.84989 0.22504 0.87194 0.0
H473 H 0.91519 0.18687 0.79219 0.0
H474 H 0.79635 0.19543 0.83323 0.0
H475 H 0.79661 0.21579 0.78058 0.0
H476 H 0.80495 0.23157 0.83623 0.0
H477 H 0.87596 0.14349 0.72687 0.0
H478 H 0.90771 0.16295 0.72291 0.0
H479 H 0.87783 0.17317 0.68944 0.0
C480 C 0.62572 0.70733 0.78953 0.0
C481 C 0.63447 0.71153 0.83592 0.0
C482 C 0.64368 0.69654 0.75565 0.0
C483 C 0.67142 0.69056 0.76799 0.0
C484 C 0.68136 0.69824 0.81286 0.0
C485 C 0.66264 0.7083 0.84671 0.0
C486 C 0.63208 0.68882 0.70822 0.0
C487 C 0.71124 0.69388 0.82627 0.0
C488 C 0.6947 0.62366 0.71253 0.0
C489 C 0.7064 0.63284 0.67019 0.0
C490 C 0.68483 0.64238 0.74598 0.0
C491 C 0.68751 0.6712 0.73784 0.0
C492 C 0.70174 0.68066 0.6974 0.0
C493 C 0.71061 0.66135 0.66352 0.0
C494 C 0.66947 0.63118 0.78819 0.0
C495 C 0.70636 0.71111 0.68846 0.0
H496 H 0.60418 0.71056 0.78031 0.0
H497 H 0.6698 0.71213 0.88211 0.0
H498 H 0.64527 0.69731 0.67986 0.0
H499 H 0.63191 0.66592 0.70446 0.0
H500 H 0.61061 0.69657 0.70315 0.0
H501 H 0.71727 0.70735 0.85615 0.0
H502 H 0.7144 0.672 0.83695 0.0
H503 H 0.72518 0.69816 0.79615 0.0
H504 H 0.69166 0.60169 0.71857 0.0
H505 H 0.72009 0.66865 0.63135 0.0
H506 H 0.64751 0.63797 0.78698 0.0
H507 H 0.67857 0.63942 0.82098 0.0
H508 H 0.66992 0.60818 0.78992 0.0
H509 H 0.68864 0.71957 0.66831 0.0
H510 H 0.7254 0.71448 0.66729 0.0
H511 H 0.70814 0.72296 0.72166 0.0
C512 C 0.61982 0.31602 0.2905 0.0
C513 C 0.62954 0.30429 0.33246 0.0
C514 C 0.63808 0.32687 0.25707 0.0
C515 C 0.66698 0.32528 0.26487 0.0
C516 C 0.67706 0.31125 0.30505 0.0
C517 C 0.65821 0.30128 0.33883 0.0
C518 C 0.62625 0.34198 0.21517 0.0
C519 C 0.70771 0.30799 0.31365 0.0
C520 C 0.70582 0.35074 0.15731 0.0
C521 C 0.70899 0.37892 0.16829 0.0
C522 C 0.69464 0.33209 0.19031 0.0
C523 C 0.68579 0.34205 0.23463 0.0
C524 C 0.69104 0.36995 0.24704 0.0
C525 C 0.70294 0.38784 0.21408 0.0
C526 C 0.69065 0.30217 0.17658 0.0
C527 C 0.68178 0.38169 0.29364 0.0
H528 H 0.59774 0.31827 0.28478 0.0
H529 H 0.66595 0.29188 0.37073 0.0
H530 H 0.63168 0.3643 0.21728 0.0
H531 H 0.63527 0.33378 0.18224 0.0
H532 H 0.60335 0.34016 0.21305 0.0
H533 H 0.71203 0.29076 0.33843 0.0
H534 H 0.71899 0.30407 0.28039 0.0
H535 H 0.71602 0.32736 0.3291 0.0
H536 H 0.71084 0.34348 0.12237 0.0
H537 H 0.70582 0.40942 0.22348 0.0
H538 H 0.66893 0.29891 0.16525 0.0
H539 H 0.69465 0.2882 0.20674 0.0
H540 H 0.70449 0.29622 0.14711 0.0
H541 H 0.65881 0.38154 0.29552 0.0
H542 H 0.68903 0.40331 0.29905 0.0
H543 H 0.68957 0.36875 0.32288 0.0
C544 C 0.35039 0.30499 0.84873 0.0
C545 C 0.37874 0.30521 0.83783 0.0
C546 C 0.33072 0.31513 0.81658 0.0
C547 C 0.3398 0.3265 0.77341 0.0
C548 C 0.36813 0.32482 0.76096 0.0
C549 C 0.38709 0.31379 0.79292 0.0
C550 C 0.30053 0.31517 0.83018 0.0
C551 C 0.37894 0.33692 0.71556 0.0
C552 C 0.29933 0.35274 0.66886 0.0
C553 C 0.30011 0.38141 0.67708 0.0
C554 C 0.30941 0.33395 0.70253 0.0
C555 C 0.32123 0.34421 0.74451 0.0
C556 C 0.31974 0.37288 0.75462 0.0
C557 C 0.30881 0.39102 0.72114 0.0
C558 C 0.30915 0.30336 0.69169 0.0
C559 C 0.33217 0.38487 0.79882 0.0
H560 H 0.34363 0.29793 0.88295 0.0
H561 H 0.40886 0.3136 0.78357 0.0
H562 H 0.29526 0.33524 0.84691 0.0
H563 H 0.28699 0.31253 0.79908 0.0
H564 H 0.29592 0.29843 0.85578 0.0
H565 H 0.40138 0.33282 0.71032 0.0
H566 H 0.36751 0.32825 0.68528 0.0
H567 H 0.37566 0.3597 0.71541 0.0
H568 H 0.29208 0.34502 0.63538 0.0
H569 H 0.30896 0.41307 0.72845 0.0
H570 H 0.30538 0.29098 0.72387 0.0
H571 H 0.32955 0.29713 0.67723 0.0
H572 H 0.29304 0.29819 0.66532 0.0
H573 H 0.32416 0.37387 0.83011 0.0
H574 H 0.32764 0.40733 0.80281 0.0
H575 H 0.35499 0.38207 0.79815 0.0
C576 C 0.30363 0.66441 0.16228 0.0
C577 C 0.30129 0.63617 0.17352 0.0
C578 C 0.31252 0.68379 0.19607 0.0
C579 C 0.3199 0.67454 0.24156 0.0
C580 C 0.31511 0.64655 0.25407 0.0
C581 C 0.30555 0.62789 0.22018 0.0
C582 C 0.31588 0.71372 0.18197 0.0
C583 C 0.32268 0.63554 0.30199 0.0
C584 C 0.38436 0.69952 0.30213 0.0
C585 C 0.37373 0.71046 0.34401 0.0
C586 C 0.36692 0.68991 0.26665 0.0
C587 C 0.33788 0.69174 0.27258 0.0
C588 C 0.327 0.70571 0.3124 0.0
C589 C 0.34512 0.71477 0.34809 0.0
C590 C 0.37972 0.67533 0.22498 0.0
C591 C 0.29624 0.70941 0.31894 0.0
H592 H 0.29984 0.67121 0.12665 0.0
H593 H 0.30314 0.60627 0.22976 0.0
H594 H 0.31166 0.7278 0.2119 0.0
H595 H 0.33747 0.71733 0.17015 0.0
H596 H 0.30183 0.71916 0.15255 0.0
H597 H 0.31565 0.61383 0.30731 0.0
H598 H 0.34551 0.63618 0.30641 0.0
H599 H 0.31344 0.64863 0.32983 0.0
H600 H 0.40656 0.69684 0.29827 0.0
H601 H 0.3368 0.72356 0.38012 0.0
H602 H 0.37145 0.68391 0.19181 0.0
H603 H 0.37435 0.65297 0.22604 0.0
H604 H 0.40266 0.67725 0.22432 0.0
H605 H 0.28563 0.71241 0.28482 0.0
H606 H 0.29165 0.72739 0.342 0.0
H607 H 0.28749 0.69061 0.33574 0.0
C608 C 0.2008 0.96271 0.02665 0.0
C609 C 0.18734 0.98645 0.04367 0.0
C610 C 0.18586 0.93845 0.01625 0.0
C611 C 0.15682 0.93783 0.0235 0.0
C612 C 0.14318 0.96163 0.04101 0.0
C613 C 0.15854 0.98564 0.05061 0.0
C614 C 0.20109 0.91359 0.99702 0.0
C615 C 0.11228 0.9618 0.04942 0.0
C616 C 0.11353 0.88661 0.95404 0.0
C617 C 0.10935 0.86515 0.98659 0.0
C618 C 0.12906 0.91019 0.96555 0.0
C619 C 0.14046 0.9127 0.011 0.0
C620 C 0.1359 0.89144 0.04442 0.0
C621 C 0.12052 0.86782 0.03174 0.0
C622 C 0.1336 0.93226 0.92875 0.0
C623 C 0.14744 0.89355 0.09343 0.0
H624 H 0.22301 0.96313 0.02111 0.0
H625 H 0.14788 1.00377 0.064 0.0
H626 H 0.19754 0.89533 0.01989 0.0
H627 H 0.19296 0.90832 0.96177 0.0
H628 H 0.22374 0.91723 0.99417 0.0
H629 H 0.10496 0.98165 0.06481 0.0
H630 H 0.10119 0.95832 0.0159 0.0
H631 H 0.10648 0.94464 0.07339 0.0
H632 H 0.1052 0.88474 0.91892 0.0
H633 H 0.11742 0.85138 0.0571 0.0
H634 H 0.15611 0.93509 0.92246 0.0
H635 H 0.12531 0.9524 0.94123 0.0
H636 H 0.12351 0.92706 0.8949 0.0
H637 H 0.17036 0.89497 0.09201 0.0
H638 H 0.14165 0.8755 0.11554 0.0
H639 H 0.13978 0.91273 0.11055 0.0
C640 C 0.86551 0.89182 0.97951 0.0
C641 C 0.86287 0.90231 0.02518 0.0
C642 C 0.88939 0.87716 0.9657 0.0
C643 C 0.91097 0.87258 0.99847 0.0
C644 C 0.9084 0.88314 0.04453 0.0
C645 C 0.88455 0.89799 0.05718 0.0
C646 C 0.89151 0.86648 0.9161 0.0
C647 C 0.93075 0.87852 0.08072 0.0
C648 C 0.96255 0.81379 0.97955 0.0
C649 C 0.98591 0.82812 0.96311 0.0
C650 C 0.9379 0.82792 0.99063 0.0
C651 C 0.93646 0.85706 0.98473 0.0
C652 C 0.95985 0.87157 0.96764 0.0
C653 C 0.98428 0.85699 0.95731 0.0
C654 C 0.91353 0.81173 0.00935 0.0
C655 C 0.95916 0.9026 0.96065 0.0
H656 H 0.8489 0.89504 0.95456 0.0
H657 H 0.8827 0.90577 0.09268 0.0
H658 H 0.91029 0.87503 0.89896 0.0
H659 H 0.89369 0.84359 0.91636 0.0
H660 H 0.87313 0.87205 0.89469 0.0
H661 H 0.9254 0.88774 0.11525 0.0
H662 H 0.93435 0.85598 0.08558 0.0
H663 H 0.95054 0.88771 0.06848 0.0
H664 H 0.9636 0.79152 0.98427 0.0
H665 H 1.00211 0.86831 0.94441 0.0
H666 H 0.89506 0.81534 0.98706 0.0
H667 H 0.9083 0.81902 0.04517 0.0
H668 H 0.91771 0.78911 0.01076 0.0
H669 H 0.94168 0.90834 0.93738 0.0
H670 H 0.97868 0.91065 0.94514 0.0
H671 H 0.95567 0.91308 0.99476 0.0
C672 C 0.90145 0.12642 0.95812 0.0
C673 C 0.90471 0.14851 0.98976 0.0
C674 C 0.88621 0.1027 0.97009 0.0
C675 C 0.87415 0.10063 0.01517 0.0
C676 C 0.8777 0.12258 0.04768 0.0
C677 C 0.89278 0.14636 0.03449 0.0
C678 C 0.88272 0.07997 0.93415 0.0
C679 C 0.86545 0.12098 0.0963 0.0
C680 C 0.81464 0.04934 0.02942 0.0
C681 C 0.8283 0.02596 0.04735 0.0
C682 C 0.8292 0.07392 0.01941 0.0
C683 C 0.85807 0.0753 0.02805 0.0
C684 C 0.87189 0.05189 0.04672 0.0
C685 C 0.85692 0.02751 0.05581 0.0
C686 C 0.81376 0.09826 0.99884 0.0
C687 C 0.90259 0.05252 0.05673 0.0
H688 H 0.91034 0.12784 0.92331 0.0
H689 H 0.89515 0.16327 0.05916 0.0
H690 H 0.89134 0.06024 0.94781 0.0
H691 H 0.86039 0.07648 0.92721 0.0
H692 H 0.89316 0.0849 0.90044 0.0
H693 H 0.87051 0.1395 0.11777 0.0
H694 H 0.8426 0.11902 0.09405 0.0
H695 H 0.87326 0.10225 0.11458 0.0
H696 H 0.79257 0.04836 0.02271 0.0
H697 H 0.8677 0.00969 0.07001 0.0
H698 H 0.82223 0.10322 0.96365 0.0
H699 H 0.8167 0.11687 0.02111 0.0
H700 H 0.79122 0.09416 0.99541 0.0
H701 H 0.91425 0.05565 0.02363 0.0
H702 H 0.90999 0.03308 0.07346 0.0
H703 H 0.90758 0.07019 0.08012 0.0
C704 C 0.05287 0.19909 0.98432 0.0
C705 C 0.02897 0.18455 0.97097 0.0
C706 C 0.07769 0.18504 0.99452 0.0
C707 C 0.07874 0.15576 0.99096 0.0
C708 C 0.05473 0.14099 0.9774 0.0
C709 C 0.03017 0.15551 0.96782 0.0
C710 C 0.10274 0.20151 0.00948 0.0
C711 C 0.05496 0.10979 0.9731 0.0
C712 C 0.14893 0.11976 0.98101 0.0
C713 C 0.15291 0.11024 0.02697 0.0
C714 C 0.12488 0.1346 0.96867 0.0
C715 C 0.10457 0.14039 1.00327 0.0
C716 C 0.10862 0.131 0.04973 0.0
C717 C 0.13254 0.1159 0.06088 0.0
C718 C 0.12116 0.14403 0.91864 0.0
C719 C 0.08772 0.13702 0.08787 0.0
H720 H 0.05219 0.22149 0.98692 0.0
H721 H 0.01192 0.144 0.95737 0.0
H722 H 0.10929 0.195 0.04509 0.0
H723 H 0.12032 0.19733 0.98543 0.0
H724 H 0.09868 0.22418 0.00988 0.0
H725 H 0.03484 0.10146 0.9606 0.0
H726 H 0.07146 0.1032 0.94838 0.0
H727 H 0.05972 0.10032 0.0076 0.0
H728 H 0.16456 0.11552 0.95464 0.0
H729 H 0.1355 0.10896 0.09666 0.0
H730 H 0.11899 0.16691 0.91741 0.0
H731 H 0.10185 0.13509 0.904 0.0
H732 H 0.13881 0.13786 0.8959 0.0
H733 H 0.08435 0.15971 0.09087 0.0
H734 H 0.09437 0.12898 0.12257 0.0
H735 H 0.0675 0.12753 0.07882 0.0
C736 C 0.86064 0.98852 0.57073 0.0
C737 C 0.83378 0.99143 0.55263 0.0
C738 C 0.87672 0.96501 0.56071 0.0
C739 C 0.86595 0.94421 0.5309 0.0
C740 C 0.83906 0.94734 0.51166 0.0
C741 C 0.82314 0.97076 0.52328 0.0
C742 C 0.905 0.96217 0.58273 0.0
C743 C 0.82709 0.92593 0.47884 0.0
C744 C 0.91494 0.89312 0.47181 0.0
C745 C 0.90999 0.86896 0.49779 0.0
C746 C 0.9011 0.91797 0.48262 0.0
C747 C 0.88242 0.91874 0.52096 0.0
C748 C 0.87862 0.89476 0.54886 0.0
C749 C 0.89217 0.87007 0.53654 0.0
C750 C 0.90535 0.94294 0.45155 0.0
C751 C 0.85949 0.8949 0.59077 0.0
H752 H 0.8689 1.0044 0.59368 0.0
H753 H 0.80251 0.97311 0.50884 0.0
H754 H 0.9057 0.94323 0.60478 0.0
H755 H 0.92103 0.95979 0.55514 0.0
H756 H 0.91045 0.98031 0.60485 0.0
H757 H 0.8066 0.93224 0.46473 0.0
H758 H 0.84143 0.92235 0.44902 0.0
H759 H 0.82468 0.9059 0.49748 0.0
H760 H 0.92838 0.8922 0.44138 0.0
H761 H 0.88833 0.85138 0.55665 0.0
H762 H 0.91109 0.96127 0.47286 0.0
H763 H 0.88568 0.94799 0.43336 0.0
H764 H 0.92169 0.93943 0.42474 0.0
H765 H 0.86461 0.91245 0.61433 0.0
H766 H 0.8607 0.87531 0.61115 0.0
H767 H 0.8378 0.89783 0.57897 0.0
C768 C 0.88544 0.11838 0.55746 0.0
C769 C 0.86385 0.1133 0.52563 0.0
C770 C 0.90929 0.13289 0.54393 0.0
C771 C 0.9119 0.14234 0.49719 0.0
C772 C 0.8904 0.13703 0.46464 0.0
C773 C 0.86655 0.12268 0.4793 0.0
C774 C 0.93162 0.13831 0.57985 0.0
C775 C 0.89256 0.14661 0.4144 0.0
C776 C 0.96327 0.20069 0.47477 0.0
C777 C 0.98662 0.18605 0.45905 0.0
C778 C 0.93868 0.18678 0.4867 0.0
C779 C 0.93733 0.15755 0.48254 0.0
C780 C 0.96071 0.1427 0.46624 0.0
C781 C 0.98507 0.15708 0.45491 0.0
C782 C 0.91427 0.20332 0.50445 0.0
C783 C 0.9601 0.11154 0.46124 0.0
H784 H 0.88355 0.11144 0.59346 0.0
H785 H 0.85 0.11886 0.45449 0.0
H786 H 0.95138 0.12873 0.56833 0.0
H787 H 0.93529 0.16093 0.58312 0.0
H788 H 0.92619 0.12997 0.61498 0.0
H789 H 0.87419 0.14061 0.39332 0.0
H790 H 0.89477 0.16949 0.41322 0.0
H791 H 0.91134 0.13765 0.39784 0.0
H792 H 0.96429 0.22304 0.47826 0.0
H793 H 1.00294 0.14554 0.44267 0.0
H794 H 0.90909 0.19682 0.54073 0.0
H795 H 0.8958 0.19919 0.48246 0.0
H796 H 0.91838 0.22597 0.50442 0.0
H797 H 0.95661 0.10182 0.496 0.0
H798 H 0.97965 0.10318 0.44629 0.0
H799 H 0.94265 0.10526 0.43832 0.0
C800 C 0.11802 0.14478 0.53094 0.0
C801 C 0.10742 0.14758 0.48541 0.0
C802 C 0.1317 0.12037 0.54492 0.0
C803 C 0.13511 0.09838 0.51247 0.0
C804 C 0.12409 0.10094 0.46676 0.0
C805 C 0.11027 0.12535 0.45392 0.0
C806 C 0.14292 0.11828 0.59415 0.0
C807 C 0.1275 0.07813 0.43091 0.0
C808 C 0.19429 0.04723 0.5291 0.0
C809 C 0.18049 0.02394 0.54708 0.0
C810 C 0.17982 0.07164 0.5181 0.0
C811 C 0.15084 0.07295 0.52565 0.0
C812 C 0.1368 0.04959 0.54405 0.0
C813 C 0.15175 0.02533 0.55427 0.0
C814 C 0.1955 0.09594 0.49786 0.0
C815 C 0.10596 0.05019 0.55277 0.0
H816 H 0.11588 0.16177 0.55554 0.0
H817 H 0.10229 0.12724 0.41857 0.0
H818 H 0.1348 0.09938 0.61153 0.0
H819 H 0.16581 0.11637 0.59304 0.0
H820 H 0.13742 0.13661 0.61582 0.0
H821 H 0.11717 0.0831 0.39716 0.0
H822 H 0.14984 0.07453 0.42402 0.0
H823 H 0.11879 0.05845 0.44459 0.0
H824 H 0.21646 0.04632 0.52319 0.0
H825 H 0.14089 0.00751 0.56834 0.0
H826 H 0.19246 0.11453 0.52018 0.0
H827 H 0.18733 0.101 0.46254 0.0
H828 H 0.21806 0.09177 0.49483 0.0
H829 H 0.10063 0.06771 0.57631 0.0
H830 H 0.09828 0.03065 0.56877 0.0
H831 H 0.09483 0.05362 0.51927 0.0
C832 C 0.14888 0.87805 0.49101 0.0
C833 C 0.14812 0.89794 0.52692 0.0
C834 C 0.12547 0.86182 0.48041 0.0
C835 C 0.10057 0.8657 0.50597 0.0
C836 C 0.09961 0.88591 0.54192 0.0
C837 C 0.12333 0.90167 0.552 0.0
C838 C 0.12737 0.84047 0.44188 0.0
C839 C 0.07342 0.89104 0.56961 0.0
C840 C 0.03248 0.84644 0.44791 0.0
C841 C 0.02552 0.82132 0.47006 0.0
C842 C 0.05681 0.86082 0.45908 0.0
C843 C 0.075 0.84994 0.49327 0.0
C844 C 0.0683 0.82456 0.51578 0.0
C845 C 0.04361 0.81057 0.504 0.0
C846 C 0.06289 0.88791 0.43455 0.0
C847 C 0.08719 0.81228 0.55244 0.0
H848 H 0.16794 0.87476 0.4717 0.0
H849 H 0.12245 0.91692 0.57986 0.0
H850 H 0.12165 0.81975 0.45572 0.0
H851 H 0.11247 0.84556 0.41359 0.0
H852 H 0.14847 0.83924 0.42645 0.0
H853 H 0.07622 0.9071 0.59708 0.0
H854 H 0.05661 0.89781 0.54571 0.0
H855 H 0.06647 0.87157 0.58662 0.0
H856 H 0.01873 0.85514 0.42176 0.0
H857 H 0.03848 0.79126 0.52138 0.0
H858 H 0.08315 0.88671 0.41629 0.0
H859 H 0.06435 0.90489 0.46066 0.0
H860 H 0.04673 0.89345 0.40848 0.0
H861 H 0.10816 0.80905 0.53746 0.0
H862 H 0.07936 0.79218 0.56606 0.0
H863 H 0.08939 0.82688 0.58224 0.0
C864 C 0.69619 0.46382 0.52459 0.0
C865 C 0.68188 0.48734 0.54052 0.0
C866 C 0.68213 0.43896 0.51476 0.0
C867 C 0.65309 0.43743 0.5215 0.0
C868 C 0.63857 0.46101 0.53798 0.0
C869 C 0.65307 0.48567 0.54697 0.0
C870 C 0.69831 0.41443 0.49653 0.0
C871 C 0.60765 0.46023 0.54586 0.0
C872 C 0.61224 0.38436 0.45165 0.0
C873 C 0.60851 0.36285 0.48429 0.0
C874 C 0.62681 0.40853 0.46328 0.0
C875 C 0.63765 0.41167 0.50902 0.0
C876 C 0.63363 0.3903 0.54248 0.0
C877 C 0.61928 0.36603 0.52963 0.0
C878 C 0.6309 0.4306 0.42631 0.0
C879 C 0.64459 0.39303 0.59177 0.0
H880 H 0.7184 0.46489 0.5194 0.0
H881 H 0.64179 0.50362 0.55956 0.0
H882 H 0.6951 0.39624 0.51969 0.0
H883 H 0.6907 0.40866 0.46117 0.0
H884 H 0.72087 0.41875 0.49423 0.0
H885 H 0.59961 0.47991 0.56084 0.0
H886 H 0.59689 0.45625 0.51218 0.0
H887 H 0.60225 0.443 0.56995 0.0
H888 H 0.60427 0.3821 0.41636 0.0
H889 H 0.61651 0.34957 0.55506 0.0
H890 H 0.65334 0.43427 0.42069 0.0
H891 H 0.6217 0.45045 0.43824 0.0
H892 H 0.6214 0.42485 0.39223 0.0
H893 H 0.66745 0.39529 0.59098 0.0
H894 H 0.63924 0.37486 0.61393 0.0
H895 H 0.63607 0.41199 0.60842 0.0
C896 C 0.38245 0.39323 0.5593 0.0
C897 C 0.36168 0.39872 0.5261 0.0
C898 C 0.40623 0.37808 0.54748 0.0
C899 C 0.4097 0.36842 0.50103 0.0
C900 C 0.38894 0.37394 0.46717 0.0
C901 C 0.36506 0.38888 0.48018 0.0
C902 C 0.42766 0.3724 0.58484 0.0
C903 C 0.39204 0.36419 0.41718 0.0
C904 C 0.48382 0.35377 0.46337 0.0
C905 C 0.48537 0.32479 0.46729 0.0
C906 C 0.45919 0.3681 0.47326 0.0
C907 C 0.43548 0.35319 0.48794 0.0
C908 C 0.43685 0.32396 0.49213 0.0
C909 C 0.46174 0.31009 0.48159 0.0
C910 C 0.4586 0.39927 0.46826 0.0
C911 C 0.41212 0.30736 0.50826 0.0
H912 H 0.37998 0.40044 0.59505 0.0
H913 H 0.34913 0.39299 0.45435 0.0
H914 H 0.43128 0.34976 0.58798 0.0
H915 H 0.44767 0.38205 0.57486 0.0
H916 H 0.42138 0.38052 0.6197 0.0
H917 H 0.37399 0.37 0.39514 0.0
H918 H 0.41102 0.37326 0.40149 0.0
H919 H 0.39448 0.34133 0.41631 0.0
H920 H 0.50186 0.36539 0.45215 0.0
H921 H 0.4627 0.28773 0.48478 0.0
H922 H 0.45426 0.40895 0.50276 0.0
H923 H 0.44169 0.40552 0.44417 0.0
H924 H 0.47846 0.40768 0.45466 0.0
H925 H 0.406 0.31393 0.54408 0.0
H926 H 0.41635 0.28472 0.50869 0.0
H927 H 0.39419 0.31136 0.48493 0.0
C928 C 0.35906 0.52504 0.55814 0.0
C929 C 0.33187 0.52261 0.54118 0.0
C930 C 0.37511 0.54862 0.5487 0.0
C931 C 0.36399 0.57009 0.52069 0.0
C932 C 0.33678 0.5675 0.5025 0.0
C933 C 0.3209 0.54393 0.5135 0.0
C934 C 0.40375 0.55083 0.56962 0.0
C935 C 0.32442 0.58968 0.4716 0.0
C936 C 0.39143 0.64365 0.53055 0.0
C937 C 0.40902 0.64534 0.49155 0.0
C938 C 0.37744 0.61896 0.54137 0.0
C939 C 0.38049 0.59565 0.51165 0.0
C940 C 0.3988 0.59703 0.47287 0.0
C941 C 0.41314 0.6218 0.46361 0.0
C942 C 0.35876 0.61811 0.58384 0.0
C943 C 0.40223 0.57281 0.43987 0.0
H944 H 0.36762 0.50875 0.57993 0.0
H945 H 0.29998 0.54206 0.50007 0.0
H946 H 0.41935 0.55379 0.5415 0.0
H947 H 0.40486 0.56923 0.59287 0.0
H948 H 0.40948 0.53217 0.59027 0.0
H949 H 0.30366 0.58381 0.45809 0.0
H950 H 0.32243 0.6093 0.49158 0.0
H951 H 0.3383 0.59382 0.44137 0.0
H952 H 0.38819 0.66188 0.55209 0.0
H953 H 0.42634 0.62321 0.43294 0.0
H954 H 0.36403 0.60004 0.60618 0.0
H955 H 0.33693 0.61559 0.57259 0.0
H956 H 0.36034 0.63725 0.60533 0.0
H957 H 0.40823 0.55393 0.45959 0.0
H958 H 0.41807 0.57682 0.41243 0.0
H959 H 0.38217 0.56835 0.42246 0.0
C960 C 0.54331 0.70207 0.49999 0.0
C961 C 0.52557 0.69246 0.4646 0.0
C962 C 0.56793 0.68772 0.51108 0.0
C963 C 0.57494 0.66318 0.4863 0.0
C964 C 0.55718 0.65353 0.45047 0.0
C965 C 0.53289 0.66822 0.4401 0.0
C966 C 0.58635 0.69867 0.54955 0.0
C967 C 0.56361 0.62737 0.42343 0.0
C968 C 0.6488 0.63483 0.48486 0.0
C969 C 0.64741 0.61385 0.5189 0.0
C970 C 0.62558 0.65144 0.47458 0.0
C971 C 0.60025 0.64683 0.49854 0.0
C972 C 0.59864 0.62544 0.53241 0.0
C973 C 0.62217 0.60932 0.54222 0.0
C974 C 0.62817 0.67404 0.43825 0.0
C975 C 0.57198 0.6195 0.55828 0.0
H976 H 0.5379 0.7207 0.51918 0.0
H977 H 0.51947 0.66043 0.41269 0.0
H978 H 0.58801 0.68313 0.57807 0.0
H979 H 0.60756 0.70219 0.53579 0.0
H980 H 0.57844 0.71838 0.56464 0.0
H981 H 0.54791 0.6229 0.39603 0.0
H982 H 0.58419 0.62911 0.40637 0.0
H983 H 0.56454 0.60945 0.44777 0.0
H984 H 0.66823 0.63873 0.46696 0.0
H985 H 0.6208 0.59321 0.56861 0.0
H986 H 0.62248 0.69431 0.45389 0.0
H987 H 0.61358 0.6701 0.409 0.0
H988 H 0.64948 0.67554 0.42371 0.0
H989 H 0.56485 0.63837 0.57696 0.0
H990 H 0.57425 0.60245 0.58416 0.0
H991 H 0.55553 0.61374 0.53296 0.0
C992 C 0.39427 0.36791 0.03273 0.0
C993 C 0.40471 0.36562 0.98695 0.0
C994 C 0.37991 0.39184 0.04729 0.0
C995 C 0.37562 0.41386 0.01521 0.0
C996 C 0.38633 0.41176 0.96916 0.0
C997 C 0.40085 0.38783 0.95574 0.0
C998 C 0.36906 0.39343 0.09685 0.0
C999 C 0.38203 0.43461 0.93368 0.0
C1000 C 0.31618 0.4646 0.03471 0.0
C1001 C 0.33005 0.48794 0.05229 0.0
C1002 C 0.33069 0.44027 0.023 0.0
C1003 C 0.35977 0.4391 0.02941 0.0
C1004 C 0.37384 0.46246 0.04761 0.0
C1005 C 0.35888 0.48661 0.05856 0.0
C1006 C 0.31494 0.41595 1.0031 0.0
C1007 C 0.40479 0.46205 0.05515 0.0
H1008 H 0.39714 0.35093 0.05712 0.0
H1009 H 0.40864 0.3863 0.92018 0.0
H1010 H 0.37723 0.41222 0.11444 0.0
H1011 H 0.34615 0.39524 0.09643 0.0
H1012 H 0.37483 0.37496 0.11794 0.0
H1013 H 0.39181 0.42984 0.89934 0.0
H1014 H 0.35955 0.43801 0.92805 0.0
H1015 H 0.3908 0.45433 0.94704 0.0
H1016 H 0.29396 0.46544 0.02951 0.0
H1017 H 0.36983 0.50444 0.07229 0.0
H1018 H 0.31853 0.39724 0.02487 0.0
H1019 H 0.3226 0.41123 0.96729 0.0
H1020 H 0.2923 0.41991 1.00127 0.0
H1021 H 0.41056 0.44437 0.07803 0.0
H1022 H 0.41249 0.48151 0.07137 0.0
H1023 H 0.41555 0.45905 0.02115 0.0
C1024 C 0.38667 0.61458 0.0568 0.0
C1025 C 0.36487 0.61026 0.02504 0.0
C1026 C 0.41063 0.62907 0.04365 0.0
C1027 C 0.41317 0.63926 0.99734 0.0
C1028 C 0.39154 0.63455 0.96476 0.0
C1029 C 0.36757 0.62023 0.97905 0.0
C1030 C 0.43307 0.63385 0.07962 0.0
C1031 C 0.39362 0.64485 0.91492 0.0
C1032 C 0.46406 0.69837 0.97705 0.0
C1033 C 0.4875 0.6842 0.96048 0.0
C1034 C 0.43964 0.68406 0.98869 0.0
C1035 C 0.4385 0.65489 0.98329 0.0
C1036 C 0.46198 0.6405 0.96616 0.0
C1037 C 0.4862 0.65528 0.95522 0.0
C1038 C 0.41516 0.70012 0.00741 0.0
C1039 C 0.4616 0.60943 0.95971 0.0
H1040 H 0.38481 0.60715 0.09252 0.0
H1041 H 0.35089 0.61699 0.95426 0.0
H1042 H 0.4529 0.62483 0.06719 0.0
H1043 H 0.43646 0.65641 0.08444 0.0
H1044 H 0.42791 0.62458 0.11419 0.0
H1045 H 0.37534 0.63892 0.89356 0.0
H1046 H 0.39551 0.66777 0.91468 0.0
H1047 H 0.41253 0.63638 0.89804 0.0
H1048 H 0.46486 0.72067 0.98139 0.0
H1049 H 0.50411 0.64409 0.94227 0.0
H1050 H 0.41005 0.6929 0.04332 0.0
H1051 H 0.39669 0.69632 0.98524 0.0
H1052 H 0.41914 0.72278 0.00861 0.0
H1053 H 0.45821 0.59912 0.994 0.0
H1054 H 0.48119 0.60147 0.94433 0.0
H1055 H 0.44417 0.60341 0.93654 0.0
C1056 C 0.61621 0.62758 0.95107 0.0
C1057 C 0.61077 0.64859 0.98393 0.0
C1058 C 0.63143 0.6039 0.96327 0.0
C1059 C 0.6412 0.60082 0.00972 0.0
C1060 C 0.63549 0.6217 0.04331 0.0
C1061 C 0.62048 0.64544 0.02995 0.0
C1062 C 0.63728 0.58227 0.92624 0.0
C1063 C 0.6453 0.61899 0.09332 0.0
C1064 C 0.65736 0.52727 0.04861 0.0
C1065 C 0.68635 0.52626 0.04445 0.0
C1066 C 0.64254 0.55154 0.03836 0.0
C1067 C 0.65693 0.57542 0.02307 0.0
C1068 C 0.68617 0.57463 0.01877 0.0
C1069 C 0.70054 0.5501 0.0297 0.0
C1070 C 0.6114 0.55153 0.04356 0.0
C1071 C 0.70222 0.59959 1.00203 0.0
H1072 H 0.60906 0.62986 0.91528 0.0
H1073 H 0.61641 0.66155 0.05553 0.0
H1074 H 0.65995 0.57916 0.92262 0.0
H1075 H 0.62819 0.56211 0.93687 0.0
H1076 H 0.62874 0.58809 0.89146 0.0
H1077 H 0.63896 0.63692 0.11529 0.0
H1078 H 0.63682 0.59977 0.10913 0.0
H1079 H 0.6682 0.61726 0.09413 0.0
H1080 H 0.64614 0.50905 0.06017 0.0
H1081 H 0.7229 0.54953 0.02626 0.0
H1082 H 0.60157 0.5554 0.00904 0.0
H1083 H 0.60484 0.56851 0.06735 0.0
H1084 H 0.60342 0.5316 0.05762 0.0
H1085 H 0.69547 0.6053 0.96614 0.0
H1086 H 0.72492 0.59582 1.00153 0.0
H1087 H 0.6979 0.61763 0.02503 0.0
C1088 C 0.52862 0.35877 0.95041 0.0
C1089 C 0.52712 0.32997 0.95706 0.0
C1090 C 0.55303 0.37349 0.96012 0.0
C1091 C 0.57646 0.35917 0.97745 0.0
C1092 C 0.57515 0.3301 0.98412 0.0
C1093 C 0.55055 0.31583 0.97365 0.0
C1094 C 0.55361 0.40446 0.95236 0.0
C1095 C 0.59958 0.31414 1.00317 0.0
C1096 C 0.64752 0.39357 0.97243 0.0
C1097 C 0.65002 0.40406 0.01809 0.0
C1098 C 0.62357 0.37914 0.95844 0.0
C1099 C 0.60181 0.37485 0.99104 0.0
C1100 C 0.60417 0.38555 0.03701 0.0
C1101 C 0.62808 0.40015 0.04982 0.0
C1102 C 0.62164 0.36827 0.90895 0.0
C1103 C 0.58161 0.38121 0.07302 0.0
H1104 H 0.51072 0.3699 0.93736 0.0
H1105 H 0.54956 0.29362 0.97905 0.0
H1106 H 0.55687 0.41523 0.98625 0.0
H1107 H 0.57119 0.41007 0.92913 0.0
H1108 H 0.53413 0.41229 0.93644 0.0
H1109 H 0.59553 0.2915 0.00491 0.0
H1110 H 0.61809 0.31772 0.98091 0.0
H1111 H 0.60465 0.32164 0.03891 0.0
H1112 H 0.66432 0.39648 0.9477 0.0
H1113 H 0.6298 0.40796 0.08531 0.0
H1114 H 0.60281 0.37658 0.89169 0.0
H1115 H 0.6197 0.34536 0.90947 0.0
H1116 H 0.64001 0.37393 0.88751 0.0
H1117 H 0.56186 0.39023 0.0603 0.0
H1118 H 0.58672 0.39074 0.10738 0.0
H1119 H 0.57808 0.35871 0.07842 0.0
C1120 C 0.27014 0.01226 0.69919 0.0
C1121 C 0.24901 0.99245 0.69572 0.0
C1122 C 0.27412 0.02726 0.74114 0.0
C1123 C 0.25671 0.02205 0.78029 0.0
C1124 C 0.236 1.00138 0.77711 0.0
C1125 C 0.23241 0.98698 0.73501 0.0
C1126 C 0.29642 0.0491 0.74327 0.0
C1127 C 0.2173 0.99462 0.8181 0.0
C1128 C 0.27448 0.03466 0.9072 0.0
C1129 C 0.25633 0.05633 0.91886 0.0
C1130 C 0.2768 0.02498 0.86109 0.0
C1131 C 0.26034 0.03709 0.8256 0.0
C1132 C 0.2437 0.06054 0.83641 0.0
C1133 C 0.24197 0.07001 0.88309 0.0
C1134 C 0.29495 1.00013 0.85139 0.0
C1135 C 0.22597 0.07414 0.7995 0.0
H1136 H 0.28279 0.01678 0.66872 0.0
H1137 H 0.21614 0.97154 0.73255 0.0
H1138 H 0.28684 0.06975 0.74881 0.0
H1139 H 0.31035 0.04518 0.77345 0.0
H1140 H 0.30903 0.04979 0.7107 0.0
H1141 H 0.20221 0.97795 0.80977 0.0
H1142 H 0.22988 0.98788 0.84857 0.0
H1143 H 0.20562 0.01338 0.82889 0.0
H1144 H 0.28596 0.0243 0.93478 0.0
H1145 H 0.22795 0.08677 0.89203 0.0
H1146 H 0.30689 1.00302 0.81853 0.0
H1147 H 0.28174 0.9815 0.84683 0.0
H1148 H 0.30967 0.99607 0.88049 0.0
H1149 H 0.23784 0.07698 0.76653 0.0
H1150 H 0.21798 0.09459 0.81124 0.0
H1151 H 0.20804 0.06057 0.7915 0.0
C1152 C 0.97869 0.78517 0.27226 0.0
C1153 C 0.98665 0.77027 0.31232 0.0
C1154 C 0.99368 0.78311 0.23028 0.0
C1155 C 0.01716 0.76556 0.22798 0.0
C1156 C 0.02505 0.75003 0.26789 0.0
C1157 C 0.00972 0.75258 0.30962 0.0
C1158 C 0.98442 0.79991 0.1884 0.0
C1159 C 0.04976 0.73087 0.26656 0.0
C1160 C 0.03398 0.74446 0.10364 0.0
C1161 C 0.0543 0.76387 0.09126 0.0
C1162 C 0.02311 0.74349 0.14911 0.0
C1163 C 0.0325 0.76274 0.18291 0.0
C1164 C 0.05434 0.78124 0.17144 0.0
C1165 C 0.06517 0.78147 0.12559 0.0
C1166 C 1.00019 0.72316 0.15989 0.0
C1167 C 0.06484 0.80212 0.20653 0.0
H1168 H 0.96094 0.7989 0.27384 0.0
H1169 H 0.01613 0.74105 0.34035 0.0
H1170 H 1.00155 0.81348 0.17631 0.0
H1171 H 0.9791 0.78588 0.15895 0.0
H1172 H 0.96611 0.81306 0.1963 0.0
H1173 H 0.0532 0.72022 0.30059 0.0
H1174 H 0.04686 0.71496 0.23893 0.0
H1175 H 0.06869 0.74274 0.25742 0.0
H1176 H 0.02571 0.73073 0.077 0.0
H1177 H 0.08072 0.79662 0.11581 0.0
H1178 H 0.9803 0.73449 0.16351 0.0
H1179 H 1.00417 0.71243 0.1936 0.0
H1180 H 0.99781 0.70734 0.1319 0.0
H1181 H 0.04873 0.81815 0.21251 0.0
H1182 H 0.08405 0.81255 0.19428 0.0
H1183 H 0.06901 0.79201 0.24072 0.0
C1184 C 0.73982 0.97749 0.91126 0.0
C1185 C 0.75853 0.95615 0.92197 0.0
C1186 C 0.73691 0.98737 0.86539 0.0
C1187 C 0.75338 0.97587 0.82929 0.0
C1188 C 0.77057 0.9527 0.83919 0.0
C1189 C 0.77286 0.94297 0.88562 0.0
C1190 C 0.71813 0.01187 0.85659 0.0
C1191 C 0.78836 0.93976 0.80161 0.0
C1192 C 0.74292 1.00135 0.70355 0.0
C1193 C 0.76369 0.02156 0.70031 0.0
C1194 C 0.7392 0.98607 0.74527 0.0
C1195 C 0.75654 0.99138 0.78438 0.0
C1196 C 0.77684 0.01247 0.78148 0.0
C1197 C 0.78015 0.02718 0.73962 0.0
C1198 C 0.7173 0.96381 0.74716 0.0
C1199 C 0.79546 0.0193 0.82247 0.0
H1200 H 0.72837 0.98743 0.93935 0.0
H1201 H 0.78729 0.92646 0.89389 0.0
H1202 H 0.73088 0.03085 0.85243 0.0
H1203 H 0.70617 0.00902 0.82379 0.0
H1204 H 0.7034 0.01526 0.88598 0.0
H1205 H 0.79683 0.91938 0.81272 0.0
H1206 H 0.77636 0.93695 0.76882 0.0
H1207 H 0.80597 0.95376 0.79358 0.0
H1208 H 0.73037 0.99674 0.67305 0.0
H1209 H 0.79611 0.04294 0.73734 0.0
H1210 H 0.70352 0.96708 0.77782 0.0
H1211 H 0.7273 0.94328 0.7517 0.0
H1212 H 0.70448 0.96331 0.71488 0.0
H1213 H 0.7828 0.02556 0.85317 0.0
H1214 H 0.8102 0.03633 0.81436 0.0
H1215 H 0.80753 1.0007 0.83277 0.0
C1216 C 0.9766 0.27563 0.10067 0.0
C1217 C 0.95651 0.25553 0.09056 0.0
C1218 C 0.98634 0.27946 0.14637 0.0
C1219 C 0.97597 0.2625 0.18276 0.0
C1220 C 0.95376 0.24401 0.17348 0.0
C1221 C 0.94415 0.2408 0.12723 0.0
C1222 C 0.00974 0.29964 0.1546 0.0
C1223 C 0.94199 0.22573 0.21148 0.0
C1224 C 0.02868 0.23726 0.2709 0.0
C1225 C 0.02229 0.25301 0.31069 0.0
C1226 C 0.01395 0.24054 0.22914 0.0
C1227 C 0.99204 0.26001 0.22704 0.0
C1228 C 0.9861 0.27681 0.26658 0.0
C1229 C 1.00144 0.27318 0.30814 0.0
C1230 C 0.02145 0.22254 0.18761 0.0
C1231 C 0.96294 0.29779 0.26554 0.0
H1232 H 0.98583 0.28736 0.07222 0.0
H1233 H 0.92857 0.22531 0.11933 0.0
H1234 H 0.00657 0.31131 0.18766 0.0
H1235 H 0.02948 0.28802 0.15788 0.0
H1236 H 0.01188 0.31465 0.12528 0.0
H1237 H 0.92199 0.21626 0.20087 0.0
H1238 H 0.95688 0.20882 0.21928 0.0
H1239 H 0.93882 0.23769 0.24426 0.0
H1240 H 0.04488 0.22171 0.27289 0.0
H1241 H 0.99623 0.28507 0.33916 0.0
H1242 H 0.02665 0.23569 0.15694 0.0
H1243 H 1.00349 0.20948 0.17768 0.0
H1244 H 0.03935 0.20874 0.19495 0.0
H1245 H 0.96472 0.31121 0.2341 0.0
H1246 H 0.96277 0.3111 0.29731 0.0
H1247 H 0.94278 0.28686 0.26321 0.0
C1248 C 0.78201 0.02157 0.20469 0.0
C1249 C 0.76302 1.00089 0.19197 0.0
C1250 C 0.77966 0.03572 0.24728 0.0
C1251 C 0.75782 0.02894 0.27826 0.0
C1252 C 0.73716 0.00983 0.26383 0.0
C1253 C 0.73996 0.996 0.22055 0.0
C1254 C 0.80212 0.05596 0.26088 0.0
C1255 C 0.7134 1.00227 0.29571 0.0
C1256 C 0.77891 0.02939 0.40585 0.0
C1257 C 0.76787 0.05452 0.42209 0.0
C1258 C 0.77522 0.02076 0.35953 0.0
C1259 C 0.75995 0.03762 0.32823 0.0
C1260 C 0.74875 0.06313 0.34417 0.0
C1261 C 0.753 0.07142 0.39103 0.0
C1262 C 0.78799 0.99363 0.34405 0.0
C1263 C 0.73223 0.08151 0.31183 0.0
H1264 H 0.7996 0.02582 0.18211 0.0
H1265 H 0.72519 0.98014 0.21063 0.0
H1266 H 0.79311 0.07487 0.27687 0.0
H1267 H 0.81583 0.04623 0.2874 0.0
H1268 H 0.81503 0.06216 0.23036 0.0
H1269 H 0.69659 0.99145 0.27647 0.0
H1270 H 0.72101 0.98832 0.32382 0.0
H1271 H 0.70473 0.02102 0.31281 0.0
H1272 H 0.79057 0.01629 0.42963 0.0
H1273 H 0.74413 0.09068 0.40362 0.0
H1274 H 0.80331 0.99745 0.31576 0.0
H1275 H 0.7718 0.97975 0.3296 0.0
H1276 H 0.7986 0.98264 0.37318 0.0
H1277 H 0.74531 0.08822 0.28193 0.0
H1278 H 0.72414 0.10022 0.32996 0.0
H1279 H 0.71453 0.06976 0.29705 0.0
C1280 C 0.0723 0.25867 0.62077 0.0
C1281 C 0.05423 0.24608 0.58878 0.0
C1282 C 0.06454 0.2621 0.6681 0.0
C1283 C 0.03837 0.25234 0.68357 0.0
C1284 C 0.02025 0.23947 0.65128 0.0
C1285 C 0.02836 0.23659 0.6045 0.0
C1286 C 0.08426 0.2761 0.70152 0.0
C1287 C 0.99237 0.22822 0.66622 0.0
C1288 C 0.02233 0.22706 0.8054 0.0
C1289 C 1.00333 0.24705 0.82115 0.0
C1290 C 0.03588 0.22983 0.76232 0.0
C1291 C 0.03029 0.25318 0.73395 0.0
C1292 C 0.01291 0.27461 0.75131 0.0
C1293 C 0.99961 0.27132 0.79498 0.0
C1294 C 0.05422 0.20647 0.74547 0.0
C1295 C 0.0067 0.29997 0.72226 0.0
H1296 H 0.09217 0.2663 0.60866 0.0
H1297 H 0.01434 0.22666 0.58004 0.0
H1298 H 0.07379 0.29376 0.71908 0.0
H1299 H 0.0906 0.26135 0.72934 0.0
H1300 H 0.10315 0.28387 0.68355 0.0
H1301 H 0.98043 0.21953 0.63638 0.0
H1302 H 0.99524 0.21163 0.69272 0.0
H1303 H 0.97986 0.24485 0.68277 0.0
H1304 H 0.02581 0.20851 0.82604 0.0
H1305 H 0.98512 0.2869 0.80722 0.0
H1306 H 0.07363 0.21466 0.72998 0.0
H1307 H 0.04329 0.19467 0.71769 0.0
H1308 H 0.05964 0.19188 0.77417 0.0
H1309 H 0.02584 0.30797 0.70546 0.0
H1310 H 0.99723 0.31675 0.7436 0.0
H1311 H 0.99204 0.29438 0.69388 0.0
C1312 C 0.23146 0.98049 0.40048 0.0
C1313 C 0.24396 0.95651 0.41845 0.0
C1314 C 0.23585 0.98891 0.35416 0.0
C1315 C 0.25342 0.97308 0.32475 0.0
C1316 C 0.26592 0.94858 0.34239 0.0
C1317 C 0.26089 0.94045 0.38915 0.0
C1318 C 0.22164 0.0149 0.33681 0.0
C1319 C 0.2849 0.93132 0.31217 0.0
C1320 C 0.23569 0.98787 0.19873 0.0
C1321 C 0.25362 0.00993 0.18843 0.0
C1322 C 0.23724 0.9737 0.24146 0.0
C1323 C 0.25711 0.98193 0.27505 0.0
C1324 C 0.27695 1.00251 0.26311 0.0
C1325 C 0.27501 0.01631 0.21965 0.0
C1326 C 0.21575 0.95187 0.25231 0.0
C1327 C 0.29864 0.01166 0.29778 0.0
H1328 H 0.21829 0.99293 0.42302 0.0
H1329 H 0.27093 0.92214 0.40319 0.0
H1330 H 0.23727 0.03005 0.32434 0.0
H1331 H 0.20803 0.00985 0.30668 0.0
H1332 H 0.20886 0.02496 0.36439 0.0
H1333 H 0.29292 0.91283 0.33101 0.0
H1334 H 0.27381 0.92433 0.28027 0.0
H1335 H 0.30272 0.94406 0.30038 0.0
H1336 H 0.21936 0.98263 0.1742 0.0
H1337 H 0.28888 0.03333 0.21168 0.0
H1338 H 0.20013 0.96061 0.27676 0.0
H1339 H 0.22533 0.9337 0.26973 0.0
H1340 H 0.20486 0.94471 0.22023 0.0
H1341 H 0.28883 0.02493 0.32489 0.0
H1342 H 0.31541 0.02373 0.28062 0.0
H1343 H 0.30788 0.99353 0.31588 0.0
C1344 C 0.99639 0.74623 0.81232 0.0
C1345 C 0.02065 0.76208 0.81392 0.0
C1346 C 0.98088 0.7444 0.77065 0.0
C1347 C 0.99022 0.75845 0.72991 0.0
C1348 C 0.01551 0.77328 0.73108 0.0
C1349 C 0.03022 0.77513 0.77319 0.0
C1350 C 0.95393 0.72858 0.77078 0.0
C1351 C 0.02663 0.788 0.68824 0.0
C1352 C 0.96805 0.73993 0.60689 0.0
C1353 C 0.95131 0.76268 0.59476 0.0
C1354 C 0.97946 0.73737 0.65177 0.0
C1355 C 0.97387 0.75793 0.68572 0.0
C1356 C 0.95538 0.77989 0.67489 0.0
C1357 C 0.94432 0.78205 0.62939 0.0
C1358 C 0.99911 0.7137 0.66166 0.0
C1359 C 0.94862 0.80202 0.71048 0.0
H1360 H 0.98872 0.73667 0.84419 0.0
H1361 H 0.04891 0.78757 0.77474 0.0
H1362 H 0.93647 0.74323 0.76568 0.0
H1363 H 0.95338 0.71361 0.7413 0.0
H1364 H 0.9506 0.71715 0.80412 0.0
H1365 H 0.04723 0.79754 0.69457 0.0
H1366 H 0.02849 0.77327 0.65854 0.0
H1367 H 0.01202 0.80455 0.67738 0.0
H1368 H 0.97327 0.72454 0.58063 0.0
H1369 H 0.93132 0.79959 0.62041 0.0
H1370 H 0.99404 0.70371 0.69561 0.0
H1371 H 0.02055 0.72182 0.66431 0.0
H1372 H 0.99862 0.69769 0.63369 0.0
H1373 H 0.94321 0.7925 0.74469 0.0
H1374 H 0.93119 0.81542 0.69896 0.0
H1375 H 0.96709 0.81528 0.71612 0.0
C1376 C 0.73852 0.57058 0.37954 0.0
C1377 C 0.75228 0.55755 0.4166 0.0
C1378 C 0.74176 0.56082 0.33331 0.0
C1379 C 0.75933 0.53778 0.32439 0.0
C1380 C 0.77526 0.52649 0.36129 0.0
C1381 C 0.77141 0.53642 0.40693 0.0
C1382 C 0.72458 0.57355 0.2948 0.0
C1383 C 0.7944 0.50215 0.35353 0.0
C1384 C 0.73417 0.48635 0.23383 0.0
C1385 C 0.75117 0.49211 0.1952 0.0
C1386 C 0.73687 0.50098 0.27587 0.0
C1387 C 0.75704 0.52214 0.27953 0.0
C1388 C 0.77496 0.52753 0.24115 0.0
C1389 C 0.77188 0.5123 0.19927 0.0
C1390 C 0.71766 0.49405 0.31611 0.0
C1391 C 0.79672 0.54989 0.24386 0.0
H1392 H 0.7238 0.58697 0.38704 0.0
H1393 H 0.78245 0.52665 0.43561 0.0
H1394 H 0.73714 0.5764 0.26259 0.0
H1395 H 0.70722 0.55941 0.28601 0.0
H1396 H 0.71576 0.59389 0.30538 0.0
H1397 H 0.80868 0.49899 0.38358 0.0
H1398 H 0.78191 0.48304 0.34899 0.0
H1399 H 0.80688 0.50502 0.32123 0.0
H1400 H 0.7182 0.47064 0.23077 0.0
H1401 H 0.78479 0.51703 0.1692 0.0
H1402 H 0.70522 0.51254 0.32568 0.0
H1403 H 0.72988 0.48805 0.34742 0.0
H1404 H 0.70327 0.47682 0.30755 0.0
H1405 H 0.78653 0.57041 0.24717 0.0
H1406 H 0.81029 0.55016 0.21239 0.0
H1407 H 0.80978 0.54699 0.27545 0.0
C1408 C 0.57112 0.27171 0.62447 0.0
C1409 C 0.55813 0.25683 0.58862 0.0
C1410 C 0.56153 0.26963 0.67101 0.0
C1411 C 0.53865 0.25219 0.68146 0.0
C1412 C 0.52743 0.23515 0.64594 0.0
C1413 C 0.53724 0.23777 0.59999 0.0
C1414 C 0.57423 0.28793 0.70805 0.0
C1415 C 0.50321 0.21614 0.65534 0.0
C1416 C 0.51321 0.24239 0.80726 0.0
C1417 C 0.49286 0.26307 0.81004 0.0
C1418 C 0.52856 0.23854 0.76569 0.0
C1419 C 0.52311 0.25557 0.72624 0.0
C1420 C 0.50185 0.27575 0.72865 0.0
C1421 C 0.48714 0.27929 0.77048 0.0
C1422 C 0.55109 0.21688 0.76438 0.0
C1423 C 0.49483 0.29398 0.68721 0.0
H1424 H 0.58729 0.28642 0.61568 0.0
H1425 H 0.52747 0.22591 0.57227 0.0
H1426 H 0.56007 0.30551 0.71549 0.0
H1427 H 0.57711 0.27629 0.74122 0.0
H1428 H 0.59453 0.29646 0.6967 0.0
H1429 H 0.50002 0.20107 0.6264 0.0
H1430 H 0.5062 0.20451 0.68849 0.0
H1431 H 0.48407 0.2287 0.65917 0.0
H1432 H 0.51792 0.23011 0.83806 0.0
H1433 H 0.47133 0.29523 0.77256 0.0
H1434 H 0.57149 0.22712 0.75981 0.0
H1435 H 0.54812 0.20287 0.73398 0.0
H1436 H 0.55166 0.20425 0.79692 0.0
H1437 H 0.51325 0.30628 0.67677 0.0
H1438 H 0.47755 0.30851 0.69488 0.0
H1439 H 0.4889 0.281 0.65675 0.0
C1440 C 0.27757 0.52779 0.2398 0.0
C1441 C 0.26189 0.52152 0.1999 0.0
C1442 C 0.27438 0.51283 0.28146 0.0
C1443 C 0.2551 0.49075 0.28337 0.0
C1444 C 0.23846 0.48484 0.24366 0.0
C1445 C 0.24198 0.50043 0.20225 0.0
C1446 C 0.29217 0.52034 0.32314 0.0
C1447 C 0.21769 0.4615 0.24445 0.0
C1448 C 0.2735 0.44228 0.38341 0.0
C1449 C 0.25821 0.45426 0.41983 0.0
C1450 C 0.27088 0.45231 0.33722 0.0
C1451 C 0.25246 0.47458 0.3277 0.0
C1452 C 0.2351 0.4847 0.36378 0.0
C1453 C 0.23831 0.47451 0.40941 0.0
C1454 C 0.2896 0.44081 0.2996 0.0
C1455 C 0.21503 0.50819 0.35536 0.0
H1456 H 0.29293 0.54417 0.23805 0.0
H1457 H 0.23012 0.4953 0.17121 0.0
H1458 H 0.27889 0.52541 0.35373 0.0
H1459 H 0.3053 0.50242 0.33313 0.0
H1460 H 0.30587 0.53836 0.31597 0.0
H1461 H 0.20487 0.46095 0.21216 0.0
H1462 H 0.22874 0.44142 0.24782 0.0
H1463 H 0.20381 0.46347 0.27528 0.0
H1464 H 0.2889 0.42665 0.39153 0.0
H1465 H 0.22624 0.48354 0.43765 0.0
H1466 H 0.30645 0.45586 0.29236 0.0
H1467 H 0.27799 0.43769 0.26649 0.0
H1468 H 0.29913 0.42081 0.31026 0.0
H1469 H 0.22669 0.52792 0.3523 0.0
H1470 H 0.19985 0.51031 0.38445 0.0
H1471 H 0.20356 0.50512 0.32212 0.0
C1472 C 0.44494 0.73139 0.62612 0.0
C1473 C 0.45188 0.7509 0.59168 0.0
C1474 C 0.45606 0.73335 0.67161 0.0
C1475 C 0.47456 0.75524 0.68265 0.0
C1476 C 0.48014 0.77592 0.64888 0.0
C1477 C 0.46868 0.77355 0.60401 0.0
C1478 C 0.44933 0.71109 0.70698 0.0
C1479 C 0.49979 0.79953 0.65898 0.0
C1480 C 0.49696 0.76677 0.80938 0.0
C1481 C 0.52128 0.75098 0.81099 0.0
C1482 C 0.48146 0.7686 0.7677 0.0
C1483 C 0.49085 0.75462 0.72692 0.0
C1484 C 0.51619 0.73984 0.7281 0.0
C1485 C 0.53089 0.73798 0.77023 0.0
C1486 C 0.45448 0.78438 0.76783 0.0
C1487 C 0.52738 0.7252 0.68523 0.0
H1488 H 0.43191 0.71391 0.61698 0.0
H1489 H 0.47387 0.78905 0.57792 0.0
H1490 H 0.46783 0.69784 0.71256 0.0
H1491 H 0.44386 0.72049 0.74126 0.0
H1492 H 0.43195 0.69769 0.6953 0.0
H1493 H 0.49938 0.81559 0.63109 0.0
H1494 H 0.49466 0.80947 0.69295 0.0
H1495 H 0.52122 0.79136 0.66174 0.0
H1496 H 0.48926 0.7763 0.84126 0.0
H1497 H 0.54963 0.72559 0.77175 0.0
H1498 H 0.43706 0.76974 0.76238 0.0
H1499 H 0.45397 0.79949 0.73854 0.0
H1500 H 0.45103 0.79565 0.80128 0.0
H1501 H 0.51283 0.70864 0.67427 0.0
H1502 H 0.54801 0.7157 0.69157 0.0
H1503 H 0.52923 0.73998 0.65559 0.0
C1504 C 0.27679 0.52763 0.90585 0.0
C1505 C 0.26761 0.55366 0.92142 0.0
C1506 C 0.27371 0.51937 0.85915 0.0
C1507 C 0.26094 0.53751 0.82672 0.0
C1508 C 0.25149 0.56386 0.84202 0.0
C1509 C 0.25511 0.57175 0.88927 0.0
C1510 C 0.28459 0.49129 0.84445 0.0
C1511 C 0.23764 0.58366 0.80849 0.0
C1512 C 0.2854 0.52077 0.70443 0.0
C1513 C 0.26508 0.50207 0.68906 0.0
C1514 C 0.28306 0.53443 0.74753 0.0
C1515 C 0.2598 0.52923 0.77637 0.0
C1516 C 0.23806 0.51214 0.75939 0.0
C1517 C 0.24092 0.49875 0.71568 0.0
C1518 C 0.30673 0.55246 0.76386 0.0
C1519 C 0.2128 0.5063 0.78891 0.0
H1520 H 0.28665 0.51356 0.93036 0.0
H1521 H 0.24769 0.59175 0.90119 0.0
H1522 H 0.2678 0.47892 0.82819 0.0
H1523 H 0.30113 0.49387 0.81776 0.0
H1524 H 0.29322 0.47933 0.87436 0.0
H1525 H 0.23016 0.60273 0.8263 0.0
H1526 H 0.25237 0.5897 0.78043 0.0
H1527 H 0.21982 0.57335 0.79127 0.0
H1528 H 0.30392 0.52388 0.6835 0.0
H1529 H 0.22512 0.48443 0.70382 0.0
H1530 H 0.31849 0.54142 0.79156 0.0
H1531 H 0.29888 0.57204 0.77929 0.0
H1532 H 0.32124 0.55761 0.73488 0.0
H1533 H 0.21838 0.49165 0.81736 0.0
H1534 H 0.19583 0.49697 0.76794 0.0
H1535 H 0.20511 0.52559 0.80563 0.0
C1536 C 0.5345 0.76924 0.10032 0.0
C1537 C 0.55461 0.74952 0.08835 0.0
C1538 C 0.52358 0.77058 0.14572 0.0
C1539 C 0.53269 0.75136 0.17982 0.0
C1540 C 0.55433 0.73254 0.16874 0.0
C1541 C 0.56524 0.73196 0.12295 0.0
C1542 C 0.50088 0.79124 0.15611 0.0
C1543 C 0.56452 0.71167 0.20415 0.0
C1544 C 0.50972 0.76196 0.30628 0.0
C1545 C 0.48649 0.74449 0.3089 0.0
C1546 C 0.52513 0.76434 0.26463 0.0
C1547 C 0.51717 0.74885 0.22473 0.0
C1548 C 0.49351 0.73156 0.22693 0.0
C1549 C 0.47844 0.72968 0.26882 0.0
C1550 C 0.55002 0.78324 0.26337 0.0
C1551 C 0.4842 0.71479 0.18506 0.0
H1552 H 0.52643 0.78294 0.07343 0.0
H1553 H 0.58063 0.71657 0.11347 0.0
H1554 H 0.48083 0.7802 0.15959 0.0
H1555 H 0.50487 0.802 0.18978 0.0
H1556 H 0.49882 0.80703 0.12797 0.0
H1557 H 0.58364 0.70097 0.19218 0.0
H1558 H 0.56871 0.72187 0.23826 0.0
H1559 H 0.54822 0.69585 0.21019 0.0
H1560 H 0.51619 0.77342 0.33704 0.0
H1561 H 0.46056 0.71613 0.27033 0.0
H1562 H 0.54742 0.79904 0.23546 0.0
H1563 H 0.56888 0.77112 0.25469 0.0
H1564 H 0.55339 0.79402 0.29729 0.0
H1565 H 0.47913 0.72882 0.15547 0.0
H1566 H 0.46571 0.70188 0.19287 0.0
H1567 H 0.50121 0.70099 0.17321 0.0
C1568 C 0.76939 0.4822 0.90633 0.0
C1569 C 0.75404 0.45837 0.91741 0.0
C1570 C 0.77155 0.49177 0.86015 0.0
C1571 C 0.75785 0.47726 0.82391 0.0
C1572 C 0.74414 0.45195 0.83428 0.0
C1573 C 0.74248 0.44269 0.88108 0.0
C1574 C 0.78649 0.51873 0.85093 0.0
C1575 C 0.72941 0.4358 0.79655 0.0
C1576 C 0.72713 0.52305 0.72953 0.0
C1577 C 0.74585 0.5198 0.69229 0.0
C1578 C 0.73078 0.50909 0.77204 0.0
C1579 C 0.75376 0.4912 0.77777 0.0
C1580 C 0.77308 0.48807 0.74062 0.0
C1581 C 0.76898 0.50257 0.69822 0.0
C1582 C 0.70993 0.51358 0.8109 0.0
C1583 C 0.7978 0.46916 0.74551 0.0
H1584 H 0.77886 0.49414 0.93425 0.0
H1585 H 0.73071 0.42421 0.88948 0.0
H1586 H 0.79985 0.51704 0.81943 0.0
H1587 H 0.77108 0.53532 0.84412 0.0
H1588 H 0.79949 0.52515 0.88114 0.0
H1589 H 0.72383 0.41459 0.80842 0.0
H1590 H 0.71011 0.44683 0.78666 0.0
H1591 H 0.74247 0.43423 0.76464 0.0
H1592 H 0.70932 0.53653 0.7253 0.0
H1593 H 0.78334 0.49979 0.66938 0.0
H1594 H 0.72039 0.5223 0.84221 0.0
H1595 H 0.70061 0.4935 0.82139 0.0
H1596 H 0.693 0.52792 0.80048 0.0
H1597 H 0.81056 0.47559 0.77593 0.0
H1598 H 0.81102 0.46914 0.71363 0.0
H1599 H 0.79071 0.44766 0.7524 0.0
C1600 C 0.51645 0.23824 0.29114 0.0
C1601 C 0.51123 0.26138 0.31939 0.0
C1602 C 0.50309 0.23536 0.24751 0.0
C1603 C 0.4842 0.25607 0.23236 0.0
C1604 C 0.47704 0.27796 0.26298 0.0
C1605 C 0.49064 0.28032 0.30601 0.0
C1606 C 0.51093 0.21149 0.21608 0.0
C1607 C 0.45707 0.30051 0.24854 0.0
C1608 C 0.48538 0.27727 0.10482 0.0
C1609 C 0.46022 0.2667 0.08804 0.0
C1610 C 0.49351 0.27335 0.15134 0.0
C1611 C 0.47619 0.2582 0.18213 0.0
C1612 C 0.45074 0.24733 0.16552 0.0
C1613 C 0.4429 0.25192 0.11857 0.0
C1614 C 0.52056 0.28584 0.16763 0.0
C1615 C 0.43193 0.23085 0.19726 0.0
H1616 H 0.53222 0.22348 0.3016 0.0
H1617 H 0.48609 0.29795 0.32834 0.0
H1618 H 0.49238 0.20294 0.19827 0.0
H1619 H 0.52534 0.21894 0.18852 0.0
H1620 H 0.52132 0.1946 0.23587 0.0
H1621 H 0.45057 0.31354 0.27873 0.0
H1622 H 0.46716 0.31411 0.2222 0.0
H1623 H 0.43832 0.29156 0.23205 0.0
H1624 H 0.49879 0.28883 0.0814 0.0
H1625 H 0.42363 0.2434 0.10549 0.0
H1626 H 0.53416 0.26948 0.18234 0.0
H1627 H 0.51657 0.30112 0.19592 0.0
H1628 H 0.5319 0.29647 0.13887 0.0
H1629 H 0.44348 0.21323 0.2128 0.0
H1630 H 0.41355 0.22266 0.17843 0.0
H1631 H 0.42471 0.24404 0.22668 0.0
C1632 C 0.42287 0.18241 0.99155 0.0
C1633 C 0.41131 0.20141 0.9598 0.0
C1634 C 0.40735 0.1597 0.00846 0.0
C1635 C 0.37967 0.15586 0.99317 0.0
C1636 C 0.36873 0.17384 0.95851 0.0
C1637 C 0.38461 0.19631 0.94239 0.0
C1638 C 0.41995 0.14098 0.04502 0.0
C1639 C 0.33948 0.17052 0.94069 0.0
C1640 C 0.33478 0.09193 0.01478 0.0
C1641 C 0.31686 0.10165 0.04995 0.0
C1642 C 0.35667 0.10856 0.99788 0.0
C1643 C 0.36084 0.13544 0.01679 0.0
C1644 C 0.34423 0.14426 0.05498 0.0
C1645 C 0.32245 0.12736 0.07087 0.0
C1646 C 0.37392 0.0982 0.95741 0.0
C1647 C 0.34804 0.17251 0.07681 0.0
H1648 H 0.44339 0.18622 0.00552 0.0
H1649 H 0.37554 0.21074 0.91765 0.0
H1650 H 0.41093 0.14595 0.0798 0.0
H1651 H 0.41519 0.11894 0.03742 0.0
H1652 H 0.44278 0.14355 0.04718 0.0
H1653 H 0.33499 0.18447 0.91065 0.0
H1654 H 0.33574 0.14881 0.9296 0.0
H1655 H 0.32463 0.17529 0.96931 0.0
H1656 H 0.33049 0.07223 0.99804 0.0
H1657 H 0.30879 0.13499 0.09818 0.0
H1658 H 0.39616 0.10293 0.96303 0.0
H1659 H 0.36741 0.1089 0.92481 0.0
H1660 H 0.37151 0.07551 0.95213 0.0
H1661 H 0.37018 0.17617 0.08513 0.0
H1662 H 0.33569 0.175 0.10941 0.0
H1663 H 0.34153 0.18872 0.05151 0.0
C1664 C 0.19476 0.62862 0.06992 0.0
C1665 C 0.20064 0.60283 0.04943 0.0
C1666 C 0.17264 0.64508 0.05415 0.0
C1667 C 0.15591 0.63575 0.01654 0.0
C1668 C 0.16046 0.60884 0.99797 0.0
C1669 C 0.18274 0.59265 0.01471 0.0
C1670 C 0.16851 0.67342 0.07555 0.0
C1671 C 0.14312 0.59793 0.95811 0.0
C1672 C 0.09269 0.68157 0.99373 0.0
C1673 C 0.10355 0.70086 0.96173 0.0
C1674 C 0.1088 0.65906 0.00982 0.0
C1675 C 0.13635 0.65568 0.99338 0.0
C1676 C 0.1465 0.67386 0.95833 0.0
C1677 C 0.13007 0.69617 0.94313 0.0
C1678 C 0.09701 0.6401 0.04683 0.0
C1679 C 0.17555 0.67101 0.93922 0.0
H1680 H 0.2084 0.6366 0.0969 0.0
H1681 H 0.18724 0.57289 0.99831 0.0
H1682 H 0.17433 0.68958 0.04966 0.0
H1683 H 0.14642 0.67668 0.08472 0.0
H1684 H 0.18123 0.67642 0.10758 0.0
H1685 H 0.14583 0.57524 0.95328 0.0
H1686 H 0.12085 0.60241 0.96409 0.0
H1687 H 0.14929 0.60847 0.92514 0.0
H1688 H 0.07232 0.68507 0.00862 0.0
H1689 H 0.1386 0.71083 0.91817 0.0
H1690 H 0.1065 0.6451 0.0812 0.0
H1691 H 0.10196 0.61815 0.03884 0.0
H1692 H 0.07419 0.64237 0.0501 0.0
H1693 H 0.1907 0.67624 0.96708 0.0
H1694 H 0.1793 0.68488 0.90878 0.0
H1695 H 0.17958 0.64932 0.92829 0.0
C1696 C 0.69363 0.88416 0.07212 0.0
C1697 C 0.69904 0.91034 0.05272 0.0
C1698 C 0.67164 0.86768 0.05591 0.0
C1699 C 0.6546 0.87742 0.01899 0.0
C1700 C 0.65862 0.9047 1.0017 0.0
C1701 C 0.68075 0.92088 0.01886 0.0
C1702 C 0.66802 0.83894 0.07599 0.0
C1703 C 0.64092 0.91604 0.96262 0.0
C1704 C 0.62953 0.81811 0.94246 0.0
C1705 C 0.60309 0.81277 0.96083 0.0
C1706 C 0.64568 0.84029 0.95888 0.0
C1707 C 0.63532 0.85763 0.99496 0.0
C1708 C 0.60784 0.85362 0.01126 0.0
C1709 C 0.59201 0.83127 0.99393 0.0
C1710 C 0.67466 0.84388 0.93986 0.0
C1711 C 0.59586 0.87166 0.04941 0.0
H1712 H 0.70756 0.87589 0.09843 0.0
H1713 H 0.68486 0.94096 1.0033 0.0
H1714 H 0.646 0.83517 0.08504 0.0
H1715 H 0.6741 0.82332 0.04934 0.0
H1716 H 0.68082 0.83563 0.10783 0.0
H1717 H 0.64333 0.93882 0.95876 0.0
H1718 H 0.64702 0.90609 0.92909 0.0
H1719 H 0.61874 0.91122 0.96875 0.0
H1720 H 0.63822 0.80402 0.91672 0.0
H1721 H 0.57171 0.82723 0.00868 0.0
H1722 H 0.68992 0.83833 0.96738 0.0
H1723 H 0.67837 0.86581 0.93007 0.0
H1724 H 0.67858 0.83064 0.90868 0.0
H1725 H 0.60545 0.86605 0.08344 0.0
H1726 H 0.57307 0.86906 0.0526 0.0
H1727 H 0.60053 0.89382 0.04272 0.0
C1728 C 0.83247 0.41969 0.01363 0.0
C1729 C 0.81387 0.40908 0.04701 0.0
C1730 C 0.85468 0.4035 0.99668 0.0
C1731 C 0.85852 0.37615 0.01376 0.0
C1732 C 0.84107 0.36626 0.05008 0.0
C1733 C 0.81897 0.38274 0.06601 0.0
C1734 C 0.87277 0.41495 0.95813 0.0
C1735 C 0.84452 0.33746 0.06997 0.0
C1736 C 0.88548 0.31703 0.93835 0.0
C1737 C 0.91172 0.31207 0.95775 0.0
C1738 C 0.8688 0.33906 0.95403 0.0
C1739 C 0.87838 0.35656 0.99047 0.0
C1740 C 0.90564 0.3529 0.00788 0.0
C1741 C 0.92203 0.33077 0.9912 0.0
C1742 C 0.84009 0.34231 0.93382 0.0
C1743 C 0.91677 0.37104 0.04657 0.0
H1744 H 0.82857 0.43989 0.99835 0.0
H1745 H 0.80479 0.3744 0.09193 0.0
H1746 H 0.89491 0.4104 0.96511 0.0
H1747 H 0.86727 0.40483 0.92448 0.0
H1748 H 0.87014 0.4377 0.95399 0.0
H1749 H 0.83125 0.33397 0.10126 0.0
H1750 H 0.83895 0.32191 0.04292 0.0
H1751 H 0.86642 0.33375 0.07987 0.0
H1752 H 0.87736 0.30277 0.9124 0.0
H1753 H 0.94215 0.327 0.00681 0.0
H1754 H 0.83621 0.36423 0.92411 0.0
H1755 H 0.82448 0.33645 0.96064 0.0
H1756 H 0.8369 0.32913 0.90237 0.0
H1757 H 0.91203 0.39316 0.03964 0.0
H1758 H 0.93951 0.36863 0.05087 0.0
H1759 H 0.9066 0.36537 0.08012 0.0
C1760 C 0.69329 0.1267 0.56953 0.0
C1761 C 0.70026 0.10127 0.54877 0.0
C1762 C 0.67139 0.14295 0.55236 0.0
C1763 C 0.65598 0.13373 0.51309 0.0
C1764 C 0.66152 0.10709 0.4942 0.0
C1765 C 0.68358 0.09112 0.51232 0.0
C1766 C 0.66615 0.17101 0.57414 0.0
C1767 C 0.64557 0.09628 0.45264 0.0
C1768 C 0.59275 0.17872 0.48667 0.0
C1769 C 0.60411 0.19854 0.45609 0.0
C1770 C 0.60876 0.1563 0.50328 0.0
C1771 C 0.63675 0.15355 0.48891 0.0
C1772 C 0.64754 0.17225 0.45519 0.0
C1773 C 0.63116 0.19445 0.43934 0.0
C1774 C 0.59628 0.13675 0.53875 0.0
C1775 C 0.67711 0.17005 0.4383 0.0
H1776 H 0.70603 0.13467 0.59776 0.0
H1777 H 0.68897 0.07166 0.49567 0.0
H1778 H 0.67242 0.18751 0.54918 0.0
H1779 H 0.64377 0.17381 0.58158 0.0
H1780 H 0.67789 0.17391 0.60725 0.0
H1781 H 0.64867 0.07365 0.44766 0.0
H1782 H 0.6231 0.1005 0.45666 0.0
H1783 H 0.65268 0.10708 0.42046 0.0
H1784 H 0.57195 0.1817 0.5001 0.0
H1785 H 0.64011 0.20949 0.41548 0.0
H1786 H 0.60473 0.14152 0.57398 0.0
H1787 H 0.60183 0.11497 0.53049 0.0
H1788 H 0.57337 0.1386 0.54027 0.0
H1789 H 0.6914 0.17521 0.46748 0.0
H1790 H 0.68146 0.1843 0.4086 0.0
H1791 H 0.6818 0.14854 0.42706 0.0
C1792 C 0.13142 0.31706 0.44489 0.0
C1793 C 0.10436 0.31242 0.46117 0.0
C1794 C 0.14722 0.33958 0.46096 0.0
C1795 C 0.13584 0.35808 0.49443 0.0
C1796 C 0.10788 0.35467 0.50858 0.0
C1797 C 0.09245 0.33191 0.49174 0.0
C1798 C 0.1768 0.34244 0.44437 0.0
C1799 C 0.09481 0.37396 0.54385 0.0
C1800 C 0.19196 0.38697 0.57366 0.0
C1801 C 0.19832 0.41227 0.55188 0.0
C1802 C 0.17024 0.37015 0.55748 0.0
C1803 C 0.15443 0.37864 0.51819 0.0
C1804 C 0.15924 0.40521 0.49848 0.0
C1805 C 0.1811 0.42176 0.51562 0.0
C1806 C 0.16576 0.34221 0.58014 0.0
C1807 C 0.1428 0.41526 0.4569 0.0
H1808 H 0.14078 0.30227 0.42102 0.0
H1809 H 0.07163 0.32851 0.50479 0.0
H1810 H 0.18089 0.36396 0.43258 0.0
H1811 H 0.19111 0.33797 0.47384 0.0
H1812 H 0.1817 0.32805 0.41511 0.0
H1813 H 0.07194 0.37155 0.54519 0.0
H1814 H 0.10327 0.36945 0.57918 0.0
H1815 H 0.09983 0.39586 0.53555 0.0
H1816 H 0.2051 0.37952 0.60178 0.0
H1817 H 0.186 0.44113 0.4982 0.0
H1818 H 0.1726 0.32563 0.55577 0.0
H1819 H 0.14345 0.33884 0.58749 0.0
H1820 H 0.17748 0.34003 0.61342 0.0
H1821 H 0.14986 0.40421 0.42494 0.0
H1822 H 0.14544 0.43788 0.4511 0.0
H1823 H 0.12044 0.4107 0.46156 0.0
C1824 C 0.37976 0.81732 0.43311 0.0
C1825 C 0.40715 0.81428 0.44847 0.0
C1826 C 0.36338 0.83984 0.44763 0.0
C1827 C 0.37443 0.85963 0.47925 0.0
C1828 C 0.4028 0.85782 0.49193 0.0
C1829 C 0.41885 0.83514 0.47634 0.0
C1830 C 0.33345 0.84098 0.43247 0.0
C1831 C 0.41553 0.87838 0.52534 0.0
C1832 C 0.32695 0.92144 0.50415 0.0
C1833 C 0.31144 0.91153 0.54234 0.0
C1834 C 0.34866 0.90556 0.48462 0.0
C1835 C 0.35519 0.87927 0.50394 0.0
C1836 C 0.34089 0.87021 0.54462 0.0
C1837 C 0.31917 0.88631 0.56303 0.0
C1838 C 0.3632 0.91607 0.44131 0.0
C1839 C 0.34725 0.84256 0.56697 0.0
H1840 H 0.37051 0.80093 0.41233 0.0
H1841 H 0.43978 0.83247 0.48936 0.0
H1842 H 0.31993 0.83545 0.46253 0.0
H1843 H 0.32781 0.86226 0.42122 0.0
H1844 H 0.32908 0.82642 0.40324 0.0
H1845 H 0.43851 0.87723 0.52509 0.0
H1846 H 0.4091 0.89983 0.51647 0.0
H1847 H 0.40818 0.87397 0.56144 0.0
H1848 H 0.32091 0.9407 0.48745 0.0
H1849 H 0.30731 0.8785 0.5925 0.0
H1850 H 0.35554 0.90456 0.41027 0.0
H1851 H 0.38585 0.91249 0.4437 0.0
H1852 H 0.35939 0.93853 0.43553 0.0
H1853 H 0.34086 0.82561 0.54303 0.0
H1854 H 0.33633 0.83979 0.60094 0.0
H1855 H 0.36985 0.84039 0.57298 0.0
C1856 C 0.88002 0.69663 0.4345 0.0
C1857 C 0.90695 0.70029 0.45161 0.0
C1858 C 0.86354 0.67422 0.44922 0.0
C1859 C 0.87398 0.65528 0.48289 0.0
C1860 C 0.90192 0.65776 0.49766 0.0
C1861 C 0.91811 0.68024 0.48176 0.0
C1862 C 0.83409 0.67231 0.4318 0.0
C1863 C 0.91397 0.63821 0.53351 0.0
C1864 C 0.81687 0.62895 0.56346 0.0
C1865 C 0.81047 0.60308 0.54379 0.0
C1866 C 0.83868 0.64524 0.54588 0.0
C1867 C 0.85441 0.63574 0.50705 0.0
C1868 C 0.84918 0.60888 0.48889 0.0
C1869 C 0.82739 0.59281 0.50762 0.0
C1870 C 0.84369 0.67348 0.56706 0.0
C1871 C 0.86528 0.59789 0.44754 0.0
H1872 H 0.87114 0.71245 0.41204 0.0
H1873 H 0.93863 0.68347 0.49618 0.0
H1874 H 0.82906 0.65071 0.42156 0.0
H1875 H 0.81967 0.67832 0.46036 0.0
H1876 H 0.83034 0.68613 0.40131 0.0
H1877 H 0.93691 0.63972 0.5351 0.0
H1878 H 0.90549 0.64338 0.56861 0.0
H1879 H 0.90812 0.61647 0.52568 0.0
H1880 H 0.80394 0.63705 0.59139 0.0
H1881 H 0.82241 0.57303 0.4917 0.0
H1882 H 0.83755 0.68977 0.54165 0.0
H1883 H 0.86603 0.67637 0.57473 0.0
H1884 H 0.83175 0.67663 0.59994 0.0
H1885 H 0.85882 0.60909 0.41538 0.0
H1886 H 0.86173 0.57537 0.44206 0.0
H1887 H 0.88779 0.60153 0.45225 0.0
loop_
_geom_bond_atom_site_label_1
_geom_bond_atom_site_label_2
_geom_bond_distance
_geom_bond_site_symmetry_2
_ccdc_geom_bond_type
Fe0 O2 1.918 . S
Fe0 O5 1.997 . S
Fe0 O6 2.002 . S
Fe0 O11 1.976 . S
Fe0 O14 1.996 . S
Fe1 O2 1.918 . S
Fe1 O9 1.997 . S
Fe1 O12 1.996 . S
Fe1 O16 1.976 . S
Fe1 O19 2.002 1_554 S
O2 Fe0 1.918 . S
O2 Fe1 1.918 . S
O2 Fe3 1.918 . S
Fe3 O2 1.918 . S
Fe3 O4 2.002 . S
Fe3 O13 1.976 . S
Fe3 O17 1.996 . S
Fe3 O20 1.997 1_554 S
O4 Fe3 2.002 . S
O4 C21 1.295 . S
O5 Fe0 1.997 . S
O5 C21 1.235 . S
O6 Fe0 2.002 . S
O6 C7 1.295 1_545 S
C7 O6 1.295 1_565 S
C7 O9 1.235 1_565 S
C8 O13 1.287 . S
C8 O14 1.255 . S
O9 Fe1 1.997 . S
O9 C7 1.235 1_545 S
C10 O16 1.287 . S
C10 O17 1.255 . S
O11 Fe0 1.976 . S
O11 C18 1.287 . S
O12 Fe1 1.996 . S
O12 C18 1.255 . S
O13 Fe3 1.976 . S
O13 C8 1.287 . S
O14 Fe0 1.996 . S
O14 C8 1.255 . S
C15 O19 1.295 . S
C15 O20 1.235 . S
O16 Fe1 1.976 . S
O16 C10 1.287 . S
O17 Fe3 1.996 . S
O17 C10 1.255 . S
C18 O11 1.287 . S
C18 O12 1.255 . S
O19 Fe1 2.002 1_556 S
O19 C15 1.295 . S
O20 Fe3 1.997 1_556 S
O20 C15 1.235 . S
C21 O4 1.295 . S
C21 O5 1.235 . S
Fe22 O24 1.918 . S
Fe22 O27 1.997 . S
Fe22 O28 2.002 1_556 S
Fe22 O33 1.976 . S
Fe22 O36 1.996 . S
Fe23 O24 1.918 . S
Fe23 O31 1.997 1_556 S
Fe23 O34 1.996 . S
Fe23 O38 1.976 . S
Fe23 O41 2.002 . S
O24 Fe22 1.918 . S
O24 Fe23 1.918 . S
O24 Fe25 1.918 . S
Fe25 O24 1.918 . S
Fe25 O26 2.002 . S
Fe25 O35 1.976 . S
Fe25 O39 1.996 . S
Fe25 O42 1.997 . S
O26 Fe25 2.002 . S
O26 C43 1.295 1_455 S
O27 Fe22 1.997 . S
O27 C43 1.235 1_455 S
O28 Fe22 2.002 1_554 S
O28 C29 1.295 . S
C29 O28 1.295 . S
C29 O31 1.235 . S
C30 O35 1.287 . S
C30 O36 1.255 . S
O31 Fe23 1.997 1_554 S
O31 C29 1.235 . S
C32 O38 1.287 . S
C32 O39 1.255 . S
O33 Fe22 1.976 . S
O33 C40 1.287 . S
O34 Fe23 1.996 . S
O34 C40 1.255 . S
O35 Fe25 1.976 . S
O35 C30 1.287 . S
O36 Fe22 1.996 . S
O36 C30 1.255 . S
C37 O41 1.295 . S
C37 O42 1.235 . S
O38 Fe23 1.976 . S
O38 C32 1.287 . S
O39 Fe25 1.996 . S
O39 C32 1.255 . S
C40 O33 1.287 . S
C40 O34 1.255 . S
O41 Fe23 2.002 . S
O41 C37 1.295 . S
O42 Fe25 1.997 . S
O42 C37 1.235 . S
C43 O26 1.295 1_655 S
C43 O27 1.235 1_655 S
Fe44 O46 1.918 . S
Fe44 O49 1.997 1_554 S
Fe44 O50 2.002 . S
Fe44 O55 1.976 . S
Fe44 O58 1.996 . S
Fe45 O46 1.918 . S
Fe45 O53 1.997 . S
Fe45 O56 1.996 . S
Fe45 O60 1.976 . S
Fe45 O63 2.002 . S
O46 Fe44 1.918 . S
O46 Fe45 1.918 . S
O46 Fe47 1.918 . S
Fe47 O46 1.918 . S
Fe47 O48 2.002 1_554 S
Fe47 O57 1.976 . S
Fe47 O61 1.996 . S
Fe47 O64 1.997 . S
O48 Fe47 2.002 1_556 S
O48 C65 1.295 . S
O49 Fe44 1.997 1_556 S
O49 C65 1.235 . S
O50 Fe44 2.002 . S
O50 C51 1.295 . S
C51 O50 1.295 . S
C51 O53 1.235 . S
C52 O57 1.287 . S
C52 O58 1.255 . S
O53 Fe45 1.997 . S
O53 C51 1.235 . S
C54 O60 1.287 . S
C54 O61 1.255 . S
O55 Fe44 1.976 . S
O55 C62 1.287 . S
O56 Fe45 1.996 . S
O56 C62 1.255 . S
O57 Fe47 1.976 . S
O57 C52 1.287 . S
O58 Fe44 1.996 . S
O58 C52 1.255 . S
C59 O63 1.295 1_545 S
C59 O64 1.235 1_545 S
O60 Fe45 1.976 . S
O60 C54 1.287 . S
O61 Fe47 1.996 . S
O61 C54 1.255 . S
C62 O55 1.287 . S
C62 O56 1.255 . S
O63 Fe45 2.002 . S
O63 C59 1.295 1_565 S
O64 Fe47 1.997 . S
O64 C59 1.235 1_565 S
C65 O48 1.295 . S
C65 O49 1.235 . S
Fe66 O68 1.918 . S
Fe66 O71 1.997 . S
Fe66 O72 2.002 . S
Fe66 O77 1.976 . S
Fe66 O80 1.996 . S
Fe67 O68 1.918 . S
Fe67 O75 1.997 . S
Fe67 O78 1.996 . S
Fe67 O82 1.976 . S
Fe67 O85 2.002 1_556 S
O68 Fe66 1.918 . S
O68 Fe67 1.918 . S
O68 Fe69 1.918 . S
Fe69 O68 1.918 . S
Fe69 O70 2.002 . S
Fe69 O79 1.976 . S
Fe69 O83 1.996 . S
Fe69 O86 1.997 1_556 S
O70 Fe69 2.002 . S
O70 C87 1.295 . S
O71 Fe66 1.997 . S
O71 C87 1.235 . S
O72 Fe66 2.002 . S
O72 C73 1.295 1_655 S
C73 O72 1.295 1_455 S
C73 O75 1.235 1_455 S
C74 O79 1.287 . S
C74 O80 1.255 . S
O75 Fe67 1.997 . S
O75 C73 1.235 1_655 S
C76 O82 1.287 . S
C76 O83 1.255 . S
O77 Fe66 1.976 . S
O77 C84 1.287 . S
O78 Fe67 1.996 . S
O78 C84 1.255 . S
O79 Fe69 1.976 . S
O79 C74 1.287 . S
O80 Fe66 1.996 . S
O80 C74 1.255 . S
C81 O85 1.295 . S
C81 O86 1.235 . S
O82 Fe67 1.976 . S
O82 C76 1.287 . S
O83 Fe69 1.996 . S
O83 C76 1.255 . S
C84 O77 1.287 . S
C84 O78 1.255 . S
O85 Fe67 2.002 1_554 S
O85 C81 1.295 . S
O86 Fe69 1.997 1_554 S
O86 C81 1.235 . S
C87 O70 1.295 . S
C87 O71 1.235 . S
Fe88 O90 1.918 . S
Fe88 O93 1.997 . S
Fe88 O94 2.002 . S
Fe88 O99 1.976 . S
Fe88 O102 1.996 . S
Fe89 O90 1.918 . S
Fe89 O97 1.997 . S
Fe89 O100 1.996 . S
Fe89 O104 1.976 . S
Fe89 O107 2.002 . S
O90 Fe88 1.918 . S
O90 Fe89 1.918 . S
O90 Fe91 1.918 . S
Fe91 O90 1.918 . S
Fe91 O92 2.002 . S
Fe91 O101 1.976 . S
Fe91 O105 1.996 . S
Fe91 O108 1.997 . S
O92 Fe91 2.002 . S
O92 C109 1.295 . S
O93 Fe88 1.997 . S
O93 C109 1.235 . S
O94 Fe88 2.002 . S
O94 C95 1.295 1_545 S
C95 O94 1.295 1_565 S
C95 O97 1.235 1_565 S
C96 O101 1.287 . S
C96 O102 1.255 . S
O97 Fe89 1.997 . S
O97 C95 1.235 1_545 S
C98 O104 1.287 . S
C98 O105 1.255 . S
O99 Fe88 1.976 . S
O99 C106 1.287 . S
O100 Fe89 1.996 . S
O100 C106 1.255 . S
O101 Fe91 1.976 . S
O101 C96 1.287 . S
O102 Fe88 1.996 . S
O102 C96 1.255 . S
C103 O107 1.295 . S
C103 O108 1.235 . S
O104 Fe89 1.976 . S
O104 C98 1.287 . S
O105 Fe91 1.996 . S
O105 C98 1.255 . S
C106 O99 1.287 . S
C106 O100 1.255 . S
O107 Fe89 2.002 . S
O107 C103 1.295 . S
O108 Fe91 1.997 . S
O108 C103 1.235 . S
C109 O92 1.295 . S
C109 O93 1.235 . S
Fe110 O112 1.918 . S
Fe110 O115 1.997 . S
Fe110 O116 2.002 . S
Fe110 O121 1.976 . S
Fe110 O124 1.996 . S
Fe111 O112 1.918 . S
Fe111 O119 1.997 . S
Fe111 O122 1.996 . S
Fe111 O126 1.976 . S
Fe111 O129 2.002 . S
O112 Fe110 1.918 . S
O112 Fe111 1.918 . S
O112 Fe113 1.918 . S
Fe113 O112 1.918 . S
Fe113 O114 2.002 . S
Fe113 O123 1.976 . S
Fe113 O127 1.996 . S
Fe113 O130 1.997 . S
O114 Fe113 2.002 . S
O114 C131 1.295 . S
O115 Fe110 1.997 . S
O115 C131 1.235 . S
O116 Fe110 2.002 . S
O116 C117 1.295 1_455 S
C117 O116 1.295 1_655 S
C117 O119 1.235 1_655 S
C118 O123 1.287 . S
C118 O124 1.255 . S
O119 Fe111 1.997 . S
O119 C117 1.235 1_455 S
C120 O126 1.287 . S
C120 O127 1.255 . S
O121 Fe110 1.976 . S
O121 C128 1.287 . S
O122 Fe111 1.996 . S
O122 C128 1.255 . S
O123 Fe113 1.976 . S
O123 C118 1.287 . S
O124 Fe110 1.996 . S
O124 C118 1.255 . S
C125 O129 1.295 . S
C125 O130 1.235 . S
O126 Fe111 1.976 . S
O126 C120 1.287 . S
O127 Fe113 1.996 . S
O127 C120 1.255 . S
C128 O121 1.287 . S
C128 O122 1.255 . S
O129 Fe111 2.002 . S
O129 C125 1.295 . S
O130 Fe113 1.997 . S
O130 C125 1.235 . S
C131 O114 1.295 . S
C131 O115 1.235 . S
Fe132 O134 1.918 . S
Fe132 O137 1.997 . S
Fe132 O138 2.002 . S
Fe132 O143 1.976 . S
Fe132 O146 1.996 . S
Fe133 O134 1.918 . S
Fe133 O141 1.997 . S
Fe133 O144 1.996 . S
Fe133 O148 1.976 . S
Fe133 O151 2.002 . S
O134 Fe132 1.918 . S
O134 Fe133 1.918 . S
O134 Fe135 1.918 . S
Fe135 O134 1.918 . S
Fe135 O136 2.002 . S
Fe135 O145 1.976 . S
Fe135 O149 1.996 . S
Fe135 O152 1.997 . S
O136 Fe135 2.002 . S
O136 C153 1.295 . S
O137 Fe132 1.997 . S
O137 C153 1.235 . S
O138 Fe132 2.002 . S
O138 C139 1.295 1_565 S
C139 O138 1.295 1_545 S
C139 O141 1.235 1_545 S
C140 O145 1.287 . S
C140 O146 1.255 . S
O141 Fe133 1.997 . S
O141 C139 1.235 1_565 S
C142 O148 1.287 . S
C142 O149 1.255 . S
O143 Fe132 1.976 . S
O143 C150 1.287 . S
O144 Fe133 1.996 . S
O144 C150 1.255 . S
O145 Fe135 1.976 . S
O145 C140 1.287 . S
O146 Fe132 1.996 . S
O146 C140 1.255 . S
C147 O151 1.295 . S
C147 O152 1.235 . S
O148 Fe133 1.976 . S
O148 C142 1.287 . S
O149 Fe135 1.996 . S
O149 C142 1.255 . S
C150 O143 1.287 . S
C150 O144 1.255 . S
O151 Fe133 2.002 . S
O151 C147 1.295 . S
O152 Fe135 1.997 . S
O152 C147 1.235 . S
C153 O136 1.295 . S
C153 O137 1.235 . S
Fe154 O156 1.918 . S
Fe154 O159 1.997 . S
Fe154 O160 2.002 . S
Fe154 O165 1.976 . S
Fe154 O168 1.996 . S
Fe155 O156 1.918 . S
Fe155 O163 1.997 . S
Fe155 O166 1.996 . S
Fe155 O170 1.976 . S
Fe155 O173 2.002 . S
O156 Fe154 1.918 . S
O156 Fe155 1.918 . S
O156 Fe157 1.918 . S
Fe157 O156 1.918 . S
Fe157 O158 2.002 . S
Fe157 O167 1.976 . S
Fe157 O171 1.996 . S
Fe157 O174 1.997 . S
O158 Fe157 2.002 . S
O158 C175 1.295 . S
O159 Fe154 1.997 . S
O159 C175 1.235 . S
O160 Fe154 2.002 . S
O160 C161 1.295 1_655 S
C161 O160 1.295 1_455 S
C161 O163 1.235 1_455 S
C162 O167 1.287 . S
C162 O168 1.255 . S
O163 Fe155 1.997 . S
O163 C161 1.235 1_655 S
C164 O170 1.287 . S
C164 O171 1.255 . S
O165 Fe154 1.976 . S
O165 C172 1.287 . S
O166 Fe155 1.996 . S
O166 C172 1.255 . S
O167 Fe157 1.976 . S
O167 C162 1.287 . S
O168 Fe154 1.996 . S
O168 C162 1.255 . S
C169 O173 1.295 . S
C169 O174 1.235 . S
O170 Fe155 1.976 . S
O170 C164 1.287 . S
O171 Fe157 1.996 . S
O171 C164 1.255 . S
C172 O165 1.287 . S
C172 O166 1.255 . S
O173 Fe155 2.002 . S
O173 C169 1.295 . S
O174 Fe157 1.997 . S
O174 C169 1.235 . S
C175 O158 1.295 . S
C175 O159 1.235 . S
Fe176 O178 1.918 . S
Fe176 O181 1.997 . S
Fe176 O182 2.002 . S
Fe176 O187 1.976 . S
Fe176 O190 1.996 . S
Fe177 O178 1.918 . S
Fe177 O185 1.997 . S
Fe177 O188 1.996 . S
Fe177 O192 1.976 . S
Fe177 O195 2.002 . S
O178 Fe176 1.918 . S
O178 Fe177 1.918 . S
O178 Fe179 1.918 . S
Fe179 O178 1.918 . S
Fe179 O180 2.002 . S
Fe179 O189 1.976 . S
Fe179 O193 1.996 . S
Fe179 O196 1.997 . S
O180 Fe179 2.002 . S
O180 C197 1.295 . S
O181 Fe176 1.997 . S
O181 C197 1.235 . S
O182 Fe176 2.002 . S
O182 C183 1.295 . S
C183 O182 1.295 . S
C183 O185 1.235 . S
C184 O189 1.287 . S
C184 O190 1.255 . S
O185 Fe177 1.997 . S
O185 C183 1.235 . S
C186 O192 1.287 . S
C186 O193 1.255 . S
O187 Fe176 1.976 . S
O187 C194 1.287 . S
O188 Fe177 1.996 . S
O188 C194 1.255 . S
O189 Fe179 1.976 . S
O189 C184 1.287 . S
O190 Fe176 1.996 . S
O190 C184 1.255 . S
C191 O195 1.295 . S
C191 O196 1.235 . S
O192 Fe177 1.976 . S
O192 C186 1.287 . S
O193 Fe179 1.996 . S
O193 C186 1.255 . S
C194 O187 1.287 . S
C194 O188 1.255 . S
O195 Fe177 2.002 . S
O195 C191 1.295 . S
O196 Fe179 1.997 . S
O196 C191 1.235 . S
C197 O180 1.295 . S
C197 O181 1.235 . S
Fe198 O200 1.918 . S
Fe198 O203 1.997 . S
Fe198 O204 2.002 . S
Fe198 O209 1.976 . S
Fe198 O212 1.996 . S
Fe199 O200 1.918 . S
Fe199 O207 1.997 . S
Fe199 O210 1.996 . S
Fe199 O214 1.976 . S
Fe199 O217 2.002 . S
O200 Fe198 1.918 . S
O200 Fe199 1.918 . S
O200 Fe201 1.918 . S
Fe201 O200 1.918 . S
Fe201 O202 2.002 . S
Fe201 O211 1.976 . S
Fe201 O215 1.996 . S
Fe201 O218 1.997 . S
O202 Fe201 2.002 . S
O202 C219 1.295 . S
O203 Fe198 1.997 . S
O203 C219 1.235 . S
O204 Fe198 2.002 . S
O204 C205 1.295 . S
C205 O204 1.295 . S
C205 O207 1.235 . S
C206 O211 1.287 . S
C206 O212 1.255 . S
O207 Fe199 1.997 . S
O207 C205 1.235 . S
C208 O214 1.287 . S
C208 O215 1.255 . S
O209 Fe198 1.976 . S
O209 C216 1.287 . S
O210 Fe199 1.996 . S
O210 C216 1.255 . S
O211 Fe201 1.976 . S
O211 C206 1.287 . S
O212 Fe198 1.996 . S
O212 C206 1.255 . S
C213 O217 1.295 . S
C213 O218 1.235 . S
O214 Fe199 1.976 . S
O214 C208 1.287 . S
O215 Fe201 1.996 . S
O215 C208 1.255 . S
C216 O209 1.287 . S
C216 O210 1.255 . S
O217 Fe199 2.002 . S
O217 C213 1.295 . S
O218 Fe201 1.997 . S
O218 C213 1.235 . S
C219 O202 1.295 . S
C219 O203 1.235 . S
Fe220 O222 1.918 . S
Fe220 O225 1.997 . S
Fe220 O226 2.002 . S
Fe220 O231 1.976 . S
Fe220 O234 1.996 . S
Fe221 O222 1.918 . S
Fe221 O229 1.997 . S
Fe221 O232 1.996 . S
Fe221 O236 1.976 . S
Fe221 O239 2.002 . S
O222 Fe220 1.918 . S
O222 Fe221 1.918 . S
O222 Fe223 1.918 . S
Fe223 O222 1.918 . S
Fe223 O224 2.002 . S
Fe223 O233 1.976 . S
Fe223 O237 1.996 . S
Fe223 O240 1.997 . S
O224 Fe223 2.002 . S
O224 C241 1.295 . S
O225 Fe220 1.997 . S
O225 C241 1.235 . S
O226 Fe220 2.002 . S
O226 C227 1.295 . S
C227 O226 1.295 . S
C227 O229 1.235 . S
C228 O233 1.287 . S
C228 O234 1.255 . S
O229 Fe221 1.997 . S
O229 C227 1.235 . S
C230 O236 1.287 . S
C230 O237 1.255 . S
O231 Fe220 1.976 . S
O231 C238 1.287 . S
O232 Fe221 1.996 . S
O232 C238 1.255 . S
O233 Fe223 1.976 . S
O233 C228 1.287 . S
O234 Fe220 1.996 . S
O234 C228 1.255 . S
C235 O239 1.295 . S
C235 O240 1.235 . S
O236 Fe221 1.976 . S
O236 C230 1.287 . S
O237 Fe223 1.996 . S
O237 C230 1.255 . S
C238 O231 1.287 . S
C238 O232 1.255 . S
O239 Fe221 2.002 . S
O239 C235 1.295 . S
O240 Fe223 1.997 . S
O240 C235 1.235 . S
C241 O224 1.295 . S
C241 O225 1.235 . S
Fe242 O244 1.918 . S
Fe242 O247 1.997 . S
Fe242 O248 2.002 . S
Fe242 O253 1.976 . S
Fe242 O256 1.996 . S
Fe243 O244 1.918 . S
Fe243 O251 1.997 . S
Fe243 O254 1.996 . S
Fe243 O258 1.976 . S
Fe243 O261 2.002 . S
O244 Fe242 1.918 . S
O244 Fe243 1.918 . S
O244 Fe245 1.918 . S
Fe245 O244 1.918 . S
Fe245 O246 2.002 . S
Fe245 O255 1.976 . S
Fe245 O259 1.996 . S
Fe245 O262 1.997 . S
O246 Fe245 2.002 . S
O246 C263 1.295 . S
O247 Fe242 1.997 . S
O247 C263 1.235 . S
O248 Fe242 2.002 . S
O248 C249 1.295 . S
C249 O248 1.295 . S
C249 O251 1.235 . S
C250 O255 1.287 . S
C250 O256 1.255 . S
O251 Fe243 1.997 . S
O251 C249 1.235 . S
C252 O258 1.287 . S
C252 O259 1.255 . S
O253 Fe242 1.976 . S
O253 C260 1.287 . S
O254 Fe243 1.996 . S
O254 C260 1.255 . S
O255 Fe245 1.976 . S
O255 C250 1.287 . S
O256 Fe242 1.996 . S
O256 C250 1.255 . S
C257 O261 1.295 . S
C257 O262 1.235 . S
O258 Fe243 1.976 . S
O258 C252 1.287 . S
O259 Fe245 1.996 . S
O259 C252 1.255 . S
C260 O253 1.287 . S
C260 O254 1.255 . S
O261 Fe243 2.002 . S
O261 C257 1.295 . S
O262 Fe245 1.997 . S
O262 C257 1.235 . S
C263 O246 1.295 . S
C263 O247 1.235 . S
Fe264 O266 1.918 . S
Fe264 O269 1.997 . S
Fe264 O270 2.002 . S
Fe264 O275 1.976 . S
Fe264 O278 1.996 . S
Fe265 O266 1.918 . S
Fe265 O273 1.997 . S
Fe265 O276 1.996 . S
Fe265 O280 1.976 . S
Fe265 O283 2.002 1_554 S
O266 Fe264 1.918 . S
O266 Fe265 1.918 . S
O266 Fe267 1.918 . S
Fe267 O266 1.918 . S
Fe267 O268 2.002 . S
Fe267 O277 1.976 . S
Fe267 O281 1.996 . S
Fe267 O284 1.997 1_554 S
O268 Fe267 2.002 . S
O268 C285 1.295 . S
O269 Fe264 1.997 . S
O269 C285 1.235 . S
O270 Fe264 2.002 . S
O270 C271 1.295 . S
C271 O270 1.295 . S
C271 O273 1.235 . S
C272 O277 1.287 . S
C272 O278 1.255 . S
O273 Fe265 1.997 . S
O273 C271 1.235 . S
C274 O280 1.287 . S
C274 O281 1.255 . S
O275 Fe264 1.976 . S
O275 C282 1.287 . S
O276 Fe265 1.996 . S
O276 C282 1.255 . S
O277 Fe267 1.976 . S
O277 C272 1.287 . S
O278 Fe264 1.996 . S
O278 C272 1.255 . S
C279 O283 1.295 . S
C279 O284 1.235 . S
O280 Fe265 1.976 . S
O280 C274 1.287 . S
O281 Fe267 1.996 . S
O281 C274 1.255 . S
C282 O275 1.287 . S
C282 O276 1.255 . S
O283 Fe265 2.002 1_556 S
O283 C279 1.295 . S
O284 Fe267 1.997 1_556 S
O284 C279 1.235 . S
C285 O268 1.295 . S
C285 O269 1.235 . S
Fe286 O288 1.918 . S
Fe286 O291 1.997 . S
Fe286 O292 2.002 . S
Fe286 O297 1.976 . S
Fe286 O300 1.996 . S
Fe287 O288 1.918 . S
Fe287 O295 1.997 . S
Fe287 O298 1.996 . S
Fe287 O302 1.976 . S
Fe287 O305 2.002 1_556 S
O288 Fe286 1.918 . S
O288 Fe287 1.918 . S
O288 Fe289 1.918 . S
Fe289 O288 1.918 . S
Fe289 O290 2.002 . S
Fe289 O299 1.976 . S
Fe289 O303 1.996 . S
Fe289 O306 1.997 1_556 S
O290 Fe289 2.002 . S
O290 C307 1.295 . S
O291 Fe286 1.997 . S
O291 C307 1.235 . S
O292 Fe286 2.002 . S
O292 C293 1.295 . S
C293 O292 1.295 . S
C293 O295 1.235 . S
C294 O299 1.287 . S
C294 O300 1.255 . S
O295 Fe287 1.997 . S
O295 C293 1.235 . S
C296 O302 1.287 . S
C296 O303 1.255 . S
O297 Fe286 1.976 . S
O297 C304 1.287 . S
O298 Fe287 1.996 . S
O298 C304 1.255 . S
O299 Fe289 1.976 . S
O299 C294 1.287 . S
O300 Fe286 1.996 . S
O300 C294 1.255 . S
C301 O305 1.295 . S
C301 O306 1.235 . S
O302 Fe287 1.976 . S
O302 C296 1.287 . S
O303 Fe289 1.996 . S
O303 C296 1.255 . S
C304 O297 1.287 . S
C304 O298 1.255 . S
O305 Fe287 2.002 1_554 S
O305 C301 1.295 . S
O306 Fe289 1.997 1_554 S
O306 C301 1.235 . S
C307 O290 1.295 . S
C307 O291 1.235 . S
Fe308 O310 1.918 . S
Fe308 O313 1.997 . S
Fe308 O314 2.002 . S
Fe308 O319 1.976 . S
Fe308 O322 1.996 . S
Fe309 O310 1.918 . S
Fe309 O317 1.997 . S
Fe309 O320 1.996 . S
Fe309 O324 1.976 . S
Fe309 O327 2.002 1_554 S
O310 Fe308 1.918 . S
O310 Fe309 1.918 . S
O310 Fe311 1.918 . S
Fe311 O310 1.918 . S
Fe311 O312 2.002 . S
Fe311 O321 1.976 . S
Fe311 O325 1.996 . S
Fe311 O328 1.997 1_554 S
O312 Fe311 2.002 . S
O312 C329 1.295 . S
O313 Fe308 1.997 . S
O313 C329 1.235 . S
O314 Fe308 2.002 . S
O314 C315 1.295 . S
C315 O314 1.295 . S
C315 O317 1.235 . S
C316 O321 1.287 . S
C316 O322 1.255 . S
O317 Fe309 1.997 . S
O317 C315 1.235 . S
C318 O324 1.287 . S
C318 O325 1.255 . S
O319 Fe308 1.976 . S
O319 C326 1.287 . S
O320 Fe309 1.996 . S
O320 C326 1.255 . S
O321 Fe311 1.976 . S
O321 C316 1.287 . S
O322 Fe308 1.996 . S
O322 C316 1.255 . S
C323 O327 1.295 . S
C323 O328 1.235 . S
O324 Fe309 1.976 . S
O324 C318 1.287 . S
O325 Fe311 1.996 . S
O325 C318 1.255 . S
C326 O319 1.287 . S
C326 O320 1.255 . S
O327 Fe309 2.002 1_556 S
O327 C323 1.295 . S
O328 Fe311 1.997 1_556 S
O328 C323 1.235 . S
C329 O312 1.295 . S
C329 O313 1.235 . S
Fe330 O332 1.918 . S
Fe330 O335 1.997 . S
Fe330 O336 2.002 1_556 S
Fe330 O341 1.976 . S
Fe330 O344 1.996 . S
Fe331 O332 1.918 . S
Fe331 O339 1.997 1_556 S
Fe331 O342 1.996 . S
Fe331 O346 1.976 . S
Fe331 O349 2.002 . S
O332 Fe330 1.918 . S
O332 Fe331 1.918 . S
O332 Fe333 1.918 . S
Fe333 O332 1.918 . S
Fe333 O334 2.002 . S
Fe333 O343 1.976 . S
Fe333 O347 1.996 . S
Fe333 O350 1.997 . S
O334 Fe333 2.002 . S
O334 C351 1.295 . S
O335 Fe330 1.997 . S
O335 C351 1.235 . S
O336 Fe330 2.002 1_554 S
O336 C337 1.295 . S
C337 O336 1.295 . S
C337 O339 1.235 . S
C338 O343 1.287 . S
C338 O344 1.255 . S
O339 Fe331 1.997 1_554 S
O339 C337 1.235 . S
C340 O346 1.287 . S
C340 O347 1.255 . S
O341 Fe330 1.976 . S
O341 C348 1.287 . S
O342 Fe331 1.996 . S
O342 C348 1.255 . S
O343 Fe333 1.976 . S
O343 C338 1.287 . S
O344 Fe330 1.996 . S
O344 C338 1.255 . S
C345 O349 1.295 . S
C345 O350 1.235 . S
O346 Fe331 1.976 . S
O346 C340 1.287 . S
O347 Fe333 1.996 . S
O347 C340 1.255 . S
C348 O341 1.287 . S
C348 O342 1.255 . S
O349 Fe331 2.002 . S
O349 C345 1.295 . S
O350 Fe333 1.997 . S
O350 C345 1.235 . S
C351 O334 1.295 . S
C351 O335 1.235 . S
C352 C353 1.391 . S
C352 C354 1.394 . S
C352 H368 0.931 . S
C353 C352 1.391 . S
C353 C357 1.376 . S
C354 C352 1.394 . S
C354 C355 1.369 . S
C354 C358 1.531 . S
C355 C354 1.369 . S
C355 C356 1.410 . S
C355 C363 1.503 . S
C356 C355 1.410 . S
C356 C357 1.392 . S
C356 C359 1.511 . S
C357 C353 1.376 . S
C357 C356 1.392 . S
C357 H369 0.929 . S
C358 C354 1.531 . S
C358 H370 0.960 . S
C358 H371 0.962 . S
C358 H372 0.960 . S
C359 C356 1.511 . S
C359 H373 0.961 . S
C359 H374 0.961 . S
C359 H375 0.961 . S
C360 C361 1.370 . S
C360 C362 1.363 . S
C360 H376 0.931 . S
C361 C360 1.370 . S
C361 C365 1.408 . S
C362 C360 1.363 . S
C362 C363 1.370 . S
C362 C366 1.524 . S
C363 C355 1.503 . S
C363 C362 1.370 . S
C363 C364 1.403 . S
C364 C363 1.403 . S
C364 C365 1.404 . S
C364 C367 1.539 . S
C365 C361 1.408 . S
C365 C364 1.404 . S
C365 H377 0.930 . S
C366 C362 1.524 . S
C366 H378 0.956 . S
C366 H379 0.961 . S
C366 H380 0.961 . S
C367 C364 1.539 . S
C367 H381 0.958 . S
C367 H382 0.961 . S
C367 H383 0.960 . S
H368 C352 0.931 . S
H369 C357 0.929 . S
H370 C358 0.960 . S
H371 C358 0.962 . S
H372 C358 0.960 . S
H373 C359 0.961 . S
H374 C359 0.961 . S
H375 C359 0.961 . S
H376 C360 0.931 . S
H377 C365 0.930 . S
H378 C366 0.956 . S
H379 C366 0.961 . S
H380 C366 0.961 . S
H381 C367 0.958 . S
H382 C367 0.961 . S
H383 C367 0.960 . S
C384 C385 1.391 . S
C384 C386 1.394 . S
C384 H400 0.931 . S
C385 C384 1.391 . S
C385 C389 1.376 . S
C386 C384 1.394 . S
C386 C387 1.369 . S
C386 C390 1.531 . S
C387 C386 1.369 . S
C387 C388 1.410 . S
C387 C395 1.503 . S
C388 C387 1.410 . S
C388 C389 1.392 . S
C388 C391 1.511 . S
C389 C385 1.376 . S
C389 C388 1.392 . S
C389 H401 0.929 . S
C390 C386 1.531 . S
C390 H402 0.960 . S
C390 H403 0.962 . S
C390 H404 0.960 . S
C391 C388 1.511 . S
C391 H405 0.961 . S
C391 H406 0.961 . S
C391 H407 0.961 . S
C392 C393 1.370 . S
C392 C394 1.363 . S
C392 H408 0.931 . S
C393 C392 1.370 . S
C393 C397 1.408 . S
C394 C392 1.363 . S
C394 C395 1.370 . S
C394 C398 1.524 . S
C395 C387 1.503 . S
C395 C394 1.370 . S
C395 C396 1.403 . S
C396 C395 1.403 . S
C396 C397 1.404 . S
C396 C399 1.539 . S
C397 C393 1.408 . S
C397 C396 1.404 . S
C397 H409 0.930 . S
C398 C394 1.524 . S
C398 H410 0.956 . S
C398 H411 0.961 . S
C398 H412 0.961 . S
C399 C396 1.539 . S
C399 H413 0.958 . S
C399 H414 0.961 . S
C399 H415 0.960 . S
H400 C384 0.931 . S
H401 C389 0.929 . S
H402 C390 0.960 . S
H403 C390 0.962 . S
H404 C390 0.960 . S
H405 C391 0.961 . S
H406 C391 0.961 . S
H407 C391 0.961 . S
H408 C392 0.931 . S
H409 C397 0.930 . S
H410 C398 0.956 . S
H411 C398 0.961 . S
H412 C398 0.961 . S
H413 C399 0.958 . S
H414 C399 0.961 . S
H415 C399 0.960 . S
C416 C417 1.391 . S
C416 C418 1.394 . S
C416 H432 0.931 . S
C417 C416 1.391 . S
C417 C421 1.376 . S
C418 C416 1.394 . S
C418 C419 1.369 . S
C418 C422 1.531 . S
C419 C418 1.369 . S
C419 C420 1.410 . S
C419 C427 1.503 . S
C420 C419 1.410 . S
C420 C421 1.392 . S
C420 C423 1.511 . S
C421 C417 1.376 . S
C421 C420 1.392 . S
C421 H433 0.929 . S
C422 C418 1.531 . S
C422 H434 0.960 . S
C422 H435 0.962 . S
C422 H436 0.960 . S
C423 C420 1.511 . S
C423 H437 0.961 . S
C423 H438 0.961 . S
C423 H439 0.961 . S
C424 C425 1.370 . S
C424 C426 1.363 . S
C424 H440 0.931 . S
C425 C424 1.370 . S
C425 C429 1.408 . S
C426 C424 1.363 . S
C426 C427 1.370 . S
C426 C430 1.524 . S
C427 C419 1.503 . S
C427 C426 1.370 . S
C427 C428 1.403 . S
C428 C427 1.403 . S
C428 C429 1.404 . S
C428 C431 1.539 . S
C429 C425 1.408 . S
C429 C428 1.404 . S
C429 H441 0.930 . S
C430 C426 1.524 . S
C430 H442 0.956 . S
C430 H443 0.961 . S
C430 H444 0.961 . S
C431 C428 1.539 . S
C431 H445 0.958 . S
C431 H446 0.961 . S
C431 H447 0.960 . S
H432 C416 0.931 . S
H433 C421 0.929 . S
H434 C422 0.960 . S
H435 C422 0.962 . S
H436 C422 0.960 . S
H437 C423 0.961 . S
H438 C423 0.961 . S
H439 C423 0.961 . S
H440 C424 0.931 . S
H441 C429 0.930 . S
H442 C430 0.956 . S
H443 C430 0.961 . S
H444 C430 0.961 . S
H445 C431 0.958 . S
H446 C431 0.961 . S
H447 C431 0.960 . S
C448 C449 1.391 . S
C448 C450 1.394 . S
C448 H464 0.931 . S
C449 C448 1.391 . S
C449 C453 1.376 . S
C450 C448 1.394 . S
C450 C451 1.369 . S
C450 C454 1.531 . S
C451 C450 1.369 . S
C451 C452 1.410 . S
C451 C459 1.503 . S
C452 C451 1.410 . S
C452 C453 1.392 . S
C452 C455 1.511 . S
C453 C449 1.376 . S
C453 C452 1.392 . S
C453 H465 0.929 . S
C454 C450 1.531 . S
C454 H466 0.960 . S
C454 H467 0.962 . S
C454 H468 0.960 . S
C455 C452 1.511 . S
C455 H469 0.961 . S
C455 H470 0.961 . S
C455 H471 0.961 . S
C456 C457 1.370 . S
C456 C458 1.363 . S
C456 H472 0.931 . S
C457 C456 1.370 . S
C457 C461 1.408 . S
C458 C456 1.363 . S
C458 C459 1.370 . S
C458 C462 1.524 . S
C459 C451 1.503 . S
C459 C458 1.370 . S
C459 C460 1.403 . S
C460 C459 1.403 . S
C460 C461 1.404 . S
C460 C463 1.539 . S
C461 C457 1.408 . S
C461 C460 1.404 . S
C461 H473 0.930 . S
C462 C458 1.524 . S
C462 H474 0.956 . S
C462 H475 0.961 . S
C462 H476 0.961 . S
C463 C460 1.539 . S
C463 H477 0.958 . S
C463 H478 0.961 . S
C463 H479 0.960 . S
H464 C448 0.931 . S
H465 C453 0.929 . S
H466 C454 0.960 . S
H467 C454 0.962 . S
H468 C454 0.960 . S
H469 C455 0.961 . S
H470 C455 0.961 . S
H471 C455 0.961 . S
H472 C456 0.931 . S
H473 C461 0.930 . S
H474 C462 0.956 . S
H475 C462 0.961 . S
H476 C462 0.961 . S
H477 C463 0.958 . S
H478 C463 0.961 . S
H479 C463 0.960 . S
C480 C481 1.391 . S
C480 C482 1.394 . S
C480 H496 0.931 . S
C481 C480 1.391 . S
C481 C485 1.376 . S
C482 C480 1.394 . S
C482 C483 1.369 . S
C482 C486 1.531 . S
C483 C482 1.369 . S
C483 C484 1.410 . S
C483 C491 1.503 . S
C484 C483 1.410 . S
C484 C485 1.392 . S
C484 C487 1.511 . S
C485 C481 1.376 . S
C485 C484 1.392 . S
C485 H497 0.929 . S
C486 C482 1.531 . S
C486 H498 0.960 . S
C486 H499 0.962 . S
C486 H500 0.960 . S
C487 C484 1.511 . S
C487 H501 0.961 . S
C487 H502 0.961 . S
C487 H503 0.961 . S
C488 C489 1.370 . S
C488 C490 1.363 . S
C488 H504 0.931 . S
C489 C488 1.370 . S
C489 C493 1.408 . S
C490 C488 1.363 . S
C490 C491 1.370 . S
C490 C494 1.524 . S
C491 C483 1.503 . S
C491 C490 1.370 . S
C491 C492 1.403 . S
C492 C491 1.403 . S
C492 C493 1.404 . S
C492 C495 1.539 . S
C493 C489 1.408 . S
C493 C492 1.404 . S
C493 H505 0.930 . S
C494 C490 1.524 . S
C494 H506 0.956 . S
C494 H507 0.961 . S
C494 H508 0.961 . S
C495 C492 1.539 . S
C495 H509 0.958 . S
C495 H510 0.961 . S
C495 H511 0.960 . S
H496 C480 0.931 . S
H497 C485 0.929 . S
H498 C486 0.960 . S
H499 C486 0.962 . S
H500 C486 0.960 . S
H501 C487 0.961 . S
H502 C487 0.961 . S
H503 C487 0.961 . S
H504 C488 0.931 . S
H505 C493 0.930 . S
H506 C494 0.956 . S
H507 C494 0.961 . S
H508 C494 0.961 . S
H509 C495 0.958 . S
H510 C495 0.961 . S
H511 C495 0.960 . S
C512 C513 1.391 . S
C512 C514 1.394 . S
C512 H528 0.931 . S
C513 C512 1.391 . S
C513 C517 1.376 . S
C514 C512 1.394 . S
C514 C515 1.369 . S
C514 C518 1.531 . S
C515 C514 1.369 . S
C515 C516 1.410 . S
C515 C523 1.503 . S
C516 C515 1.410 . S
C516 C517 1.392 . S
C516 C519 1.511 . S
C517 C513 1.376 . S
C517 C516 1.392 . S
C517 H529 0.929 . S
C518 C514 1.531 . S
C518 H530 0.960 . S
C518 H531 0.962 . S
C518 H532 0.960 . S
C519 C516 1.511 . S
C519 H533 0.961 . S
C519 H534 0.961 . S
C519 H535 0.961 . S
C520 C521 1.370 . S
C520 C522 1.363 . S
C520 H536 0.931 . S
C521 C520 1.370 . S
C521 C525 1.408 . S
C522 C520 1.363 . S
C522 C523 1.370 . S
C522 C526 1.524 . S
C523 C515 1.503 . S
C523 C522 1.370 . S
C523 C524 1.403 . S
C524 C523 1.403 . S
C524 C525 1.404 . S
C524 C527 1.539 . S
C525 C521 1.408 . S
C525 C524 1.404 . S
C525 H537 0.930 . S
C526 C522 1.524 . S
C526 H538 0.956 . S
C526 H539 0.961 . S
C526 H540 0.961 . S
C527 C524 1.539 . S
C527 H541 0.958 . S
C527 H542 0.961 . S
C527 H543 0.960 . S
H528 C512 0.931 . S
H529 C517 0.929 . S
H530 C518 0.960 . S
H531 C518 0.962 . S
H532 C518 0.960 . S
H533 C519 0.961 . S
H534 C519 0.961 . S
H535 C519 0.961 . S
H536 C520 0.931 . S
H537 C525 0.930 . S
H538 C526 0.956 . S
H539 C526 0.961 . S
H540 C526 0.961 . S
H541 C527 0.958 . S
H542 C527 0.961 . S
H543 C527 0.960 . S
C544 C545 1.391 . S
C544 C546 1.394 . S
C544 H560 0.931 . S
C545 C544 1.391 . S
C545 C549 1.376 . S
C546 C544 1.394 . S
C546 C547 1.369 . S
C546 C550 1.531 . S
C547 C546 1.369 . S
C547 C548 1.410 . S
C547 C555 1.503 . S
C548 C547 1.410 . S
C548 C549 1.392 . S
C548 C551 1.511 . S
C549 C545 1.376 . S
C549 C548 1.392 . S
C549 H561 0.929 . S
C550 C546 1.531 . S
C550 H562 0.960 . S
C550 H563 0.962 . S
C550 H564 0.960 . S
C551 C548 1.511 . S
C551 H565 0.961 . S
C551 H566 0.961 . S
C551 H567 0.961 . S
C552 C553 1.370 . S
C552 C554 1.363 . S
C552 H568 0.931 . S
C553 C552 1.370 . S
C553 C557 1.408 . S
C554 C552 1.363 . S
C554 C555 1.370 . S
C554 C558 1.524 . S
C555 C547 1.503 . S
C555 C554 1.370 . S
C555 C556 1.403 . S
C556 C555 1.403 . S
C556 C557 1.404 . S
C556 C559 1.539 . S
C557 C553 1.408 . S
C557 C556 1.404 . S
C557 H569 0.930 . S
C558 C554 1.524 . S
C558 H570 0.956 . S
C558 H571 0.961 . S
C558 H572 0.961 . S
C559 C556 1.539 . S
C559 H573 0.958 . S
C559 H574 0.961 . S
C559 H575 0.960 . S
H560 C544 0.931 . S
H561 C549 0.929 . S
H562 C550 0.960 . S
H563 C550 0.962 . S
H564 C550 0.960 . S
H565 C551 0.961 . S
H566 C551 0.961 . S
H567 C551 0.961 . S
H568 C552 0.931 . S
H569 C557 0.930 . S
H570 C558 0.956 . S
H571 C558 0.961 . S
H572 C558 0.961 . S
H573 C559 0.958 . S
H574 C559 0.961 . S
H575 C559 0.960 . S
C576 C577 1.391 . S
C576 C578 1.394 . S
C576 H592 0.931 . S
C577 C576 1.391 . S
C577 C581 1.376 . S
C578 C576 1.394 . S
C578 C579 1.369 . S
C578 C582 1.531 . S
C579 C578 1.369 . S
C579 C580 1.410 . S
C579 C587 1.503 . S
C580 C579 1.410 . S
C580 C581 1.392 . S
C580 C583 1.511 . S
C581 C577 1.376 . S
C581 C580 1.392 . S
C581 H593 0.929 . S
C582 C578 1.531 . S
C582 H594 0.960 . S
C582 H595 0.962 . S
C582 H596 0.960 . S
C583 C580 1.511 . S
C583 H597 0.961 . S
C583 H598 0.961 . S
C583 H599 0.961 . S
C584 C585 1.370 . S
C584 C586 1.363 . S
C584 H600 0.931 . S
C585 C584 1.370 . S
C585 C589 1.408 . S
C586 C584 1.363 . S
C586 C587 1.370 . S
C586 C590 1.524 . S
C587 C579 1.503 . S
C587 C586 1.370 . S
C587 C588 1.403 . S
C588 C587 1.403 . S
C588 C589 1.404 . S
C588 C591 1.539 . S
C589 C585 1.408 . S
C589 C588 1.404 . S
C589 H601 0.930 . S
C590 C586 1.524 . S
C590 H602 0.956 . S
C590 H603 0.961 . S
C590 H604 0.961 . S
C591 C588 1.539 . S
C591 H605 0.958 . S
C591 H606 0.961 . S
C591 H607 0.960 . S
H592 C576 0.931 . S
H593 C581 0.929 . S
H594 C582 0.960 . S
H595 C582 0.962 . S
H596 C582 0.960 . S
H597 C583 0.961 . S
H598 C583 0.961 . S
H599 C583 0.961 . S
H600 C584 0.931 . S
H601 C589 0.930 . S
H602 C590 0.956 . S
H603 C590 0.961 . S
H604 C590 0.961 . S
H605 C591 0.958 . S
H606 C591 0.961 . S
H607 C591 0.960 . S
C608 C609 1.391 1_556 S
C608 C610 1.394 . S
C608 H624 0.931 . S
C609 C608 1.391 1_554 S
C609 C613 1.376 . S
C610 C608 1.394 . S
C610 C611 1.369 1_556 S
C610 C614 1.531 . S
C611 C610 1.369 1_554 S
C611 C612 1.410 . S
C611 C619 1.503 . S
C612 C611 1.410 . S
C612 C613 1.392 . S
C612 C615 1.511 . S
C613 C609 1.376 . S
C613 C612 1.392 . S
C613 H625 0.929 . S
C614 C610 1.531 . S
C614 H626 0.960 . S
C614 H627 0.962 . S
C614 H628 0.960 . S
C615 C612 1.511 . S
C615 H629 0.961 . S
C615 H630 0.961 . S
C615 H631 0.961 . S
C616 C617 1.370 . S
C616 C618 1.363 . S
C616 H632 0.931 . S
C617 C616 1.370 . S
C617 C621 1.408 1_556 S
C618 C616 1.363 . S
C618 C619 1.370 1_556 S
C618 C622 1.524 . S
C619 C611 1.503 . S
C619 C618 1.370 1_554 S
C619 C620 1.403 . S
C620 C619 1.403 . S
C620 C621 1.404 . S
C620 C623 1.539 . S
C621 C617 1.408 1_554 S
C621 C620 1.404 . S
C621 H633 0.930 . S
C622 C618 1.524 . S
C622 H634 0.956 . S
C622 H635 0.961 1_556 S
C622 H636 0.961 . S
C623 C620 1.539 . S
C623 H637 0.958 . S
C623 H638 0.961 . S
C623 H639 0.960 . S
H624 C608 0.931 . S
H625 C613 0.929 . S
H626 C614 0.960 . S
H627 C614 0.962 . S
H628 C614 0.960 . S
H629 C615 0.961 . S
H630 C615 0.961 . S
H631 C615 0.961 . S
H632 C616 0.931 . S
H633 C621 0.930 . S
H634 C622 0.956 . S
H635 C622 0.961 1_554 S
H636 C622 0.961 . S
H637 C623 0.958 . S
H638 C623 0.961 . S
H639 C623 0.960 . S
C640 C641 1.391 1_556 S
C640 C642 1.394 . S
C640 H656 0.931 . S
C641 C640 1.391 1_554 S
C641 C645 1.376 . S
C642 C640 1.394 . S
C642 C643 1.369 . S
C642 C646 1.531 . S
C643 C642 1.369 . S
C643 C644 1.410 1_556 S
C643 C651 1.503 . S
C644 C643 1.410 1_554 S
C644 C645 1.392 . S
C644 C647 1.511 . S
C645 C641 1.376 . S
C645 C644 1.392 . S
C645 H657 0.929 . S
C646 C642 1.531 . S
C646 H658 0.960 . S
C646 H659 0.962 . S
C646 H660 0.960 . S
C647 C644 1.511 . S
C647 H661 0.961 . S
C647 H662 0.961 . S
C647 H663 0.961 . S
C648 C649 1.370 . S
C648 C650 1.363 . S
C648 H664 0.931 . S
C649 C648 1.370 . S
C649 C653 1.408 . S
C650 C648 1.363 . S
C650 C651 1.370 . S
C650 C654 1.524 1_556 S
C651 C643 1.503 . S
C651 C650 1.370 . S
C651 C652 1.403 . S
C652 C651 1.403 . S
C652 C653 1.404 . S
C652 C655 1.539 . S
C653 C649 1.408 . S
C653 C652 1.404 . S
C653 H665 0.930 . S
C654 C650 1.524 1_554 S
C654 H666 0.956 1_554 S
C654 H667 0.961 . S
C654 H668 0.961 . S
C655 C652 1.539 . S
C655 H669 0.958 . S
C655 H670 0.961 . S
C655 H671 0.960 . S
H656 C640 0.931 . S
H657 C645 0.929 . S
H658 C646 0.960 . S
H659 C646 0.962 . S
H660 C646 0.960 . S
H661 C647 0.961 . S
H662 C647 0.961 . S
H663 C647 0.961 . S
H664 C648 0.931 . S
H665 C653 0.930 . S
H666 C654 0.956 1_556 S
H667 C654 0.961 . S
H668 C654 0.961 . S
H669 C655 0.958 . S
H670 C655 0.961 . S
H671 C655 0.960 . S
C672 C673 1.391 . S
C672 C674 1.394 . S
C672 H688 0.931 . S
C673 C672 1.391 . S
C673 C677 1.376 1_556 S
C674 C672 1.394 . S
C674 C675 1.369 1_556 S
C674 C678 1.531 . S
C675 C674 1.369 1_554 S
C675 C676 1.410 . S
C675 C683 1.503 . S
C676 C675 1.410 . S
C676 C677 1.392 . S
C676 C679 1.511 . S
C677 C673 1.376 1_554 S
C677 C676 1.392 . S
C677 H689 0.929 . S
C678 C674 1.531 . S
C678 H690 0.960 . S
C678 H691 0.962 . S
C678 H692 0.960 . S
C679 C676 1.511 . S
C679 H693 0.961 . S
C679 H694 0.961 . S
C679 H695 0.961 . S
C680 C681 1.370 . S
C680 C682 1.363 . S
C680 H696 0.931 . S
C681 C680 1.370 . S
C681 C685 1.408 . S
C682 C680 1.363 . S
C682 C683 1.370 . S
C682 C686 1.524 1_554 S
C683 C675 1.503 . S
C683 C682 1.370 . S
C683 C684 1.403 . S
C684 C683 1.403 . S
C684 C685 1.404 . S
C684 C687 1.539 . S
C685 C681 1.408 . S
C685 C684 1.404 . S
C685 H697 0.930 . S
C686 C682 1.524 1_556 S
C686 H698 0.956 . S
C686 H699 0.956 1_556 S
C686 H700 0.961 . S
C687 C684 1.539 . S
C687 H701 0.958 . S
C687 H702 0.961 . S
C687 H703 0.960 . S
H688 C672 0.931 . S
H689 C677 0.929 . S
H690 C678 0.960 . S
H691 C678 0.962 . S
H692 C678 0.960 . S
H693 C679 0.961 . S
H694 C679 0.961 . S
H695 C679 0.961 . S
H696 C680 0.931 . S
H697 C685 0.930 . S
H698 C686 0.956 . S
H699 C686 0.956 1_554 S
H700 C686 0.961 . S
H701 C687 0.958 . S
H702 C687 0.961 . S
H703 C687 0.960 . S
C704 C705 1.391 . S
C704 C706 1.394 1_556 S
C704 H720 0.931 . S
C705 C704 1.391 . S
C705 C709 1.376 . S
C706 C704 1.394 1_554 S
C706 C707 1.369 1_554 S
C706 C710 1.531 . S
C707 C706 1.369 1_556 S
C707 C708 1.410 . S
C707 C715 1.503 . S
C708 C707 1.410 . S
C708 C709 1.392 . S
C708 C711 1.511 . S
C709 C705 1.376 . S
C709 C708 1.392 . S
C709 H721 0.929 . S
C710 C706 1.531 . S
C710 H722 0.960 . S
C710 H723 0.962 . S
C710 H724 0.960 . S
C711 C708 1.511 . S
C711 H725 0.961 . S
C711 H726 0.961 . S
C711 H727 0.961 . S
C712 C713 1.370 1_556 S
C712 C714 1.363 . S
C712 H728 0.931 . S
C713 C712 1.370 1_554 S
C713 C717 1.408 . S
C714 C712 1.363 . S
C714 C715 1.370 . S
C714 C718 1.524 . S
C715 C707 1.503 . S
C715 C714 1.370 . S
C715 C716 1.403 1_556 S
C716 C715 1.403 1_554 S
C716 C717 1.404 . S
C716 C719 1.539 . S
C717 C713 1.408 . S
C717 C716 1.404 . S
C717 H729 0.930 . S
C718 C714 1.524 . S
C718 H730 0.956 . S
C718 H731 0.961 . S
C718 H732 0.961 . S
C719 C716 1.539 . S
C719 H733 0.958 . S
C719 H734 0.961 . S
C719 H735 0.960 . S
H720 C704 0.931 . S
H721 C709 0.929 . S
H722 C710 0.960 . S
H723 C710 0.962 . S
H724 C710 0.960 . S
H725 C711 0.961 . S
H726 C711 0.961 . S
H727 C711 0.961 . S
H728 C712 0.931 . S
H729 C717 0.930 . S
H730 C718 0.956 . S
H731 C718 0.961 . S
H732 C718 0.961 . S
H733 C719 0.958 . S
H734 C719 0.961 . S
H735 C719 0.960 . S
C736 C737 1.391 . S
C736 C738 1.394 . S
C736 H752 0.931 . S
C737 C736 1.391 . S
C737 C741 1.376 . S
C738 C736 1.394 . S
C738 C739 1.369 . S
C738 C742 1.531 . S
C739 C738 1.369 . S
C739 C740 1.410 . S
C739 C747 1.503 . S
C740 C739 1.410 . S
C740 C741 1.392 . S
C740 C743 1.511 . S
C741 C737 1.376 . S
C741 C740 1.392 . S
C741 H753 0.929 . S
C742 C738 1.531 . S
C742 H754 0.960 . S
C742 H755 0.962 . S
C742 H756 0.960 . S
C743 C740 1.511 . S
C743 H757 0.961 . S
C743 H758 0.961 . S
C743 H759 0.961 . S
C744 C745 1.370 . S
C744 C746 1.363 . S
C744 H760 0.931 . S
C745 C744 1.370 . S
C745 C749 1.408 . S
C746 C744 1.363 . S
C746 C747 1.370 . S
C746 C750 1.524 . S
C747 C739 1.503 . S
C747 C746 1.370 . S
C747 C748 1.403 . S
C748 C747 1.403 . S
C748 C749 1.404 . S
C748 C751 1.539 . S
C749 C745 1.408 . S
C749 C748 1.404 . S
C749 H761 0.930 . S
C750 C746 1.524 . S
C750 H762 0.956 . S
C750 H763 0.961 . S
C750 H764 0.961 . S
C751 C748 1.539 . S
C751 H765 0.958 . S
C751 H766 0.961 . S
C751 H767 0.960 . S
H752 C736 0.931 . S
H753 C741 0.929 . S
H754 C742 0.960 . S
H755 C742 0.962 . S
H756 C742 0.960 . S
H757 C743 0.961 . S
H758 C743 0.961 . S
H759 C743 0.961 . S
H760 C744 0.931 . S
H761 C749 0.930 . S
H762 C750 0.956 . S
H763 C750 0.961 . S
H764 C750 0.961 . S
H765 C751 0.958 . S
H766 C751 0.961 . S
H767 C751 0.960 . S
C768 C769 1.391 . S
C768 C770 1.394 . S
C768 H784 0.931 . S
C769 C768 1.391 . S
C769 C773 1.376 . S
C770 C768 1.394 . S
C770 C771 1.369 . S
C770 C774 1.531 . S
C771 C770 1.369 . S
C771 C772 1.410 . S
C771 C779 1.503 . S
C772 C771 1.410 . S
C772 C773 1.392 . S
C772 C775 1.511 . S
C773 C769 1.376 . S
C773 C772 1.392 . S
C773 H785 0.929 . S
C774 C770 1.531 . S
C774 H786 0.960 . S
C774 H787 0.962 . S
C774 H788 0.960 . S
C775 C772 1.511 . S
C775 H789 0.961 . S
C775 H790 0.961 . S
C775 H791 0.961 . S
C776 C777 1.370 . S
C776 C778 1.363 . S
C776 H792 0.931 . S
C777 C776 1.370 . S
C777 C781 1.408 . S
C778 C776 1.363 . S
C778 C779 1.370 . S
C778 C782 1.524 . S
C779 C771 1.503 . S
C779 C778 1.370 . S
C779 C780 1.403 . S
C780 C779 1.403 . S
C780 C781 1.404 . S
C780 C783 1.539 . S
C781 C777 1.408 . S
C781 C780 1.404 . S
C781 H793 0.930 . S
C782 C778 1.524 . S
C782 H794 0.956 . S
C782 H795 0.961 . S
C782 H796 0.961 . S
C783 C780 1.539 . S
C783 H797 0.958 . S
C783 H798 0.961 . S
C783 H799 0.960 . S
H784 C768 0.931 . S
H785 C773 0.929 . S
H786 C774 0.960 . S
H787 C774 0.962 . S
H788 C774 0.960 . S
H789 C775 0.961 . S
H790 C775 0.961 . S
H791 C775 0.961 . S
H792 C776 0.931 . S
H793 C781 0.930 . S
H794 C782 0.956 . S
H795 C782 0.961 . S
H796 C782 0.961 . S
H797 C783 0.958 . S
H798 C783 0.961 . S
H799 C783 0.960 . S
C800 C801 1.391 . S
C800 C802 1.394 . S
C800 H816 0.931 . S
C801 C800 1.391 . S
C801 C805 1.376 . S
C802 C800 1.394 . S
C802 C803 1.369 . S
C802 C806 1.531 . S
C803 C802 1.369 . S
C803 C804 1.410 . S
C803 C811 1.503 . S
C804 C803 1.410 . S
C804 C805 1.392 . S
C804 C807 1.511 . S
C805 C801 1.376 . S
C805 C804 1.392 . S
C805 H817 0.929 . S
C806 C802 1.531 . S
C806 H818 0.960 . S
C806 H819 0.962 . S
C806 H820 0.960 . S
C807 C804 1.511 . S
C807 H821 0.961 . S
C807 H822 0.961 . S
C807 H823 0.961 . S
C808 C809 1.370 . S
C808 C810 1.363 . S
C808 H824 0.931 . S
C809 C808 1.370 . S
C809 C813 1.408 . S
C810 C808 1.363 . S
C810 C811 1.370 . S
C810 C814 1.524 . S
C811 C803 1.503 . S
C811 C810 1.370 . S
C811 C812 1.403 . S
C812 C811 1.403 . S
C812 C813 1.404 . S
C812 C815 1.539 . S
C813 C809 1.408 . S
C813 C812 1.404 . S
C813 H825 0.931 . S
C814 C810 1.524 . S
C814 H826 0.956 . S
C814 H827 0.961 . S
C814 H828 0.961 . S
C815 C812 1.539 . S
C815 H829 0.958 . S
C815 H830 0.961 . S
C815 H831 0.960 . S
H816 C800 0.931 . S
H817 C805 0.929 . S
H818 C806 0.960 . S
H819 C806 0.962 . S
H820 C806 0.960 . S
H821 C807 0.961 . S
H822 C807 0.961 . S
H823 C807 0.961 . S
H824 C808 0.931 . S
H825 C813 0.931 . S
H826 C814 0.956 . S
H827 C814 0.961 . S
H828 C814 0.961 . S
H829 C815 0.958 . S
H830 C815 0.961 . S
H831 C815 0.960 . S
C832 C833 1.391 . S
C832 C834 1.394 . S
C832 H848 0.931 . S
C833 C832 1.391 . S
C833 C837 1.376 . S
C834 C832 1.394 . S
C834 C835 1.369 . S
C834 C838 1.531 . S
C835 C834 1.369 . S
C835 C836 1.410 . S
C835 C843 1.503 . S
C836 C835 1.410 . S
C836 C837 1.392 . S
C836 C839 1.511 . S
C837 C833 1.376 . S
C837 C836 1.392 . S
C837 H849 0.929 . S
C838 C834 1.531 . S
C838 H850 0.960 . S
C838 H851 0.962 . S
C838 H852 0.960 . S
C839 C836 1.511 . S
C839 H853 0.961 . S
C839 H854 0.961 . S
C839 H855 0.961 . S
C840 C841 1.370 . S
C840 C842 1.363 . S
C840 H856 0.931 . S
C841 C840 1.370 . S
C841 C845 1.408 . S
C842 C840 1.363 . S
C842 C843 1.370 . S
C842 C846 1.524 . S
C843 C835 1.503 . S
C843 C842 1.370 . S
C843 C844 1.403 . S
C844 C843 1.403 . S
C844 C845 1.404 . S
C844 C847 1.539 . S
C845 C841 1.408 . S
C845 C844 1.404 . S
C845 H857 0.930 . S
C846 C842 1.524 . S
C846 H858 0.956 . S
C846 H859 0.961 . S
C846 H860 0.961 . S
C847 C844 1.539 . S
C847 H861 0.958 . S
C847 H862 0.961 . S
C847 H863 0.960 . S
H848 C832 0.931 . S
H849 C837 0.929 . S
H850 C838 0.960 . S
H851 C838 0.962 . S
H852 C838 0.960 . S
H853 C839 0.961 . S
H854 C839 0.961 . S
H855 C839 0.961 . S
H856 C840 0.931 . S
H857 C845 0.930 . S
H858 C846 0.956 . S
H859 C846 0.961 . S
H860 C846 0.961 . S
H861 C847 0.958 . S
H862 C847 0.961 . S
H863 C847 0.960 . S
C864 C865 1.391 . S
C864 C866 1.394 . S
C864 H880 0.931 . S
C865 C864 1.391 . S
C865 C869 1.376 . S
C866 C864 1.394 . S
C866 C867 1.369 . S
C866 C870 1.531 . S
C867 C866 1.369 . S
C867 C868 1.410 . S
C867 C875 1.503 . S
C868 C867 1.410 . S
C868 C869 1.392 . S
C868 C871 1.511 . S
C869 C865 1.376 . S
C869 C868 1.392 . S
C869 H881 0.929 . S
C870 C866 1.531 . S
C870 H882 0.960 . S
C870 H883 0.962 . S
C870 H884 0.960 . S
C871 C868 1.511 . S
C871 H885 0.961 . S
C871 H886 0.961 . S
C871 H887 0.961 . S
C872 C873 1.370 . S
C872 C874 1.363 . S
C872 H888 0.931 . S
C873 C872 1.370 . S
C873 C877 1.408 . S
C874 C872 1.363 . S
C874 C875 1.370 . S
C874 C878 1.524 . S
C875 C867 1.503 . S
C875 C874 1.370 . S
C875 C876 1.403 . S
C876 C875 1.403 . S
C876 C877 1.404 . S
C876 C879 1.539 . S
C877 C873 1.408 . S
C877 C876 1.404 . S
C877 H889 0.930 . S
C878 C874 1.524 . S
C878 H890 0.956 . S
C878 H891 0.961 . S
C878 H892 0.961 . S
C879 C876 1.539 . S
C879 H893 0.958 . S
C879 H894 0.961 . S
C879 H895 0.960 . S
H880 C864 0.931 . S
H881 C869 0.929 . S
H882 C870 0.960 . S
H883 C870 0.962 . S
H884 C870 0.960 . S
H885 C871 0.961 . S
H886 C871 0.961 . S
H887 C871 0.961 . S
H888 C872 0.931 . S
H889 C877 0.930 . S
H890 C878 0.956 . S
H891 C878 0.961 . S
H892 C878 0.961 . S
H893 C879 0.958 . S
H894 C879 0.961 . S
H895 C879 0.960 . S
C896 C897 1.391 . S
C896 C898 1.394 . S
C896 H912 0.931 . S
C897 C896 1.391 . S
C897 C901 1.376 . S
C898 C896 1.394 . S
C898 C899 1.369 . S
C898 C902 1.531 . S
C899 C898 1.369 . S
C899 C900 1.410 . S
C899 C907 1.503 . S
C900 C899 1.410 . S
C900 C901 1.392 . S
C900 C903 1.511 . S
C901 C897 1.376 . S
C901 C900 1.392 . S
C901 H913 0.929 . S
C902 C898 1.531 . S
C902 H914 0.960 . S
C902 H915 0.962 . S
C902 H916 0.960 . S
C903 C900 1.511 . S
C903 H917 0.961 . S
C903 H918 0.961 . S
C903 H919 0.961 . S
C904 C905 1.370 . S
C904 C906 1.363 . S
C904 H920 0.931 . S
C905 C904 1.370 . S
C905 C909 1.408 . S
C906 C904 1.363 . S
C906 C907 1.370 . S
C906 C910 1.524 . S
C907 C899 1.503 . S
C907 C906 1.370 . S
C907 C908 1.403 . S
C908 C907 1.403 . S
C908 C909 1.404 . S
C908 C911 1.539 . S
C909 C905 1.408 . S
C909 C908 1.404 . S
C909 H921 0.930 . S
C910 C906 1.524 . S
C910 H922 0.956 . S
C910 H923 0.961 . S
C910 H924 0.961 . S
C911 C908 1.539 . S
C911 H925 0.958 . S
C911 H926 0.961 . S
C911 H927 0.960 . S
H912 C896 0.931 . S
H913 C901 0.929 . S
H914 C902 0.960 . S
H915 C902 0.962 . S
H916 C902 0.960 . S
H917 C903 0.961 . S
H918 C903 0.961 . S
H919 C903 0.961 . S
H920 C904 0.931 . S
H921 C909 0.930 . S
H922 C910 0.956 . S
H923 C910 0.961 . S
H924 C910 0.961 . S
H925 C911 0.958 . S
H926 C911 0.961 . S
H927 C911 0.960 . S
C928 C929 1.391 . S
C928 C930 1.394 . S
C928 H944 0.931 . S
C929 C928 1.391 . S
C929 C933 1.376 . S
C930 C928 1.394 . S
C930 C931 1.369 . S
C930 C934 1.531 . S
C931 C930 1.369 . S
C931 C932 1.410 . S
C931 C939 1.503 . S
C932 C931 1.410 . S
C932 C933 1.392 . S
C932 C935 1.511 . S
C933 C929 1.376 . S
C933 C932 1.392 . S
C933 H945 0.929 . S
C934 C930 1.531 . S
C934 H946 0.960 . S
C934 H947 0.962 . S
C934 H948 0.960 . S
C935 C932 1.511 . S
C935 H949 0.961 . S
C935 H950 0.961 . S
C935 H951 0.961 . S
C936 C937 1.370 . S
C936 C938 1.363 . S
C936 H952 0.931 . S
C937 C936 1.370 . S
C937 C941 1.408 . S
C938 C936 1.363 . S
C938 C939 1.370 . S
C938 C942 1.524 . S
C939 C931 1.503 . S
C939 C938 1.370 . S
C939 C940 1.403 . S
C940 C939 1.403 . S
C940 C941 1.404 . S
C940 C943 1.539 . S
C941 C937 1.408 . S
C941 C940 1.404 . S
C941 H953 0.930 . S
C942 C938 1.524 . S
C942 H954 0.956 . S
C942 H955 0.961 . S
C942 H956 0.961 . S
C943 C940 1.539 . S
C943 H957 0.958 . S
C943 H958 0.961 . S
C943 H959 0.960 . S
H944 C928 0.931 . S
H945 C933 0.929 . S
H946 C934 0.960 . S
H947 C934 0.962 . S
H948 C934 0.960 . S
H949 C935 0.961 . S
H950 C935 0.961 . S
H951 C935 0.961 . S
H952 C936 0.931 . S
H953 C941 0.930 . S
H954 C942 0.956 . S
H955 C942 0.961 . S
H956 C942 0.961 . S
H957 C943 0.958 . S
H958 C943 0.961 . S
H959 C943 0.960 . S
C960 C961 1.391 . S
C960 C962 1.394 . S
C960 H976 0.931 . S
C961 C960 1.391 . S
C961 C965 1.376 . S
C962 C960 1.394 . S
C962 C963 1.369 . S
C962 C966 1.531 . S
C963 C962 1.369 . S
C963 C964 1.410 . S
C963 C971 1.503 . S
C964 C963 1.410 . S
C964 C965 1.392 . S
C964 C967 1.511 . S
C965 C961 1.376 . S
C965 C964 1.392 . S
C965 H977 0.929 . S
C966 C962 1.531 . S
C966 H978 0.960 . S
C966 H979 0.962 . S
C966 H980 0.960 . S
C967 C964 1.511 . S
C967 H981 0.961 . S
C967 H982 0.961 . S
C967 H983 0.961 . S
C968 C969 1.370 . S
C968 C970 1.363 . S
C968 H984 0.931 . S
C969 C968 1.370 . S
C969 C973 1.408 . S
C970 C968 1.363 . S
C970 C971 1.370 . S
C970 C974 1.524 . S
C971 C963 1.503 . S
C971 C970 1.370 . S
C971 C972 1.403 . S
C972 C971 1.403 . S
C972 C973 1.404 . S
C972 C975 1.539 . S
C973 C969 1.408 . S
C973 C972 1.404 . S
C973 H985 0.930 . S
C974 C970 1.524 . S
C974 H986 0.956 . S
C974 H987 0.961 . S
C974 H988 0.961 . S
C975 C972 1.539 . S
C975 H989 0.958 . S
C975 H990 0.961 . S
C975 H991 0.960 . S
H976 C960 0.931 . S
H977 C965 0.929 . S
H978 C966 0.960 . S
H979 C966 0.962 . S
H980 C966 0.960 . S
H981 C967 0.961 . S
H982 C967 0.961 . S
H983 C967 0.961 . S
H984 C968 0.931 . S
H985 C973 0.930 . S
H986 C974 0.956 . S
H987 C974 0.961 . S
H988 C974 0.961 . S
H989 C975 0.958 . S
H990 C975 0.961 . S
H991 C975 0.960 . S
C992 C993 1.391 1_554 S
C992 C994 1.394 . S
C992 H1008 0.931 . S
C993 C992 1.391 1_556 S
C993 C997 1.376 . S
C994 C992 1.394 . S
C994 C995 1.369 . S
C994 C998 1.531 . S
C995 C994 1.369 . S
C995 C996 1.410 1_554 S
C995 C1003 1.503 . S
C996 C995 1.410 1_556 S
C996 C997 1.392 . S
C996 C999 1.511 . S
C997 C993 1.376 . S
C997 C996 1.392 . S
C997 H1009 0.929 . S
C998 C994 1.531 . S
C998 H1010 0.960 . S
C998 H1011 0.962 . S
C998 H1012 0.960 . S
C999 C996 1.511 . S
C999 H1013 0.961 . S
C999 H1014 0.961 . S
C999 H1015 0.961 . S
C1000 C1001 1.370 . S
C1000 C1002 1.363 . S
C1000 H1016 0.931 . S
C1001 C1000 1.370 . S
C1001 C1005 1.408 . S
C1002 C1000 1.363 . S
C1002 C1003 1.370 . S
C1002 C1006 1.524 . S
C1003 C995 1.503 . S
C1003 C1002 1.370 . S
C1003 C1004 1.403 1_554 S
C1004 C1003 1.403 1_556 S
C1004 C1005 1.404 1_556 S
C1004 C1007 1.539 . S
C1005 C1001 1.408 . S
C1005 C1004 1.404 1_554 S
C1005 H1017 0.930 1_554 S
C1006 C1002 1.524 . S
C1006 H1018 0.956 . S
C1006 H1019 0.961 . S
C1006 H1020 0.961 . S
C1007 C1004 1.539 . S
C1007 H1021 0.958 . S
C1007 H1022 0.961 . S
C1007 H1023 0.960 . S
H1008 C992 0.931 . S
H1009 C997 0.929 . S
H1010 C998 0.960 . S
H1011 C998 0.962 . S
H1012 C998 0.960 . S
H1013 C999 0.961 . S
H1014 C999 0.961 . S
H1015 C999 0.961 . S
H1016 C1000 0.931 . S
H1017 C1005 0.930 1_556 S
H1018 C1006 0.956 . S
H1019 C1006 0.961 . S
H1020 C1006 0.961 . S
H1021 C1007 0.958 . S
H1022 C1007 0.961 . S
H1023 C1007 0.960 . S
C1024 C1025 1.391 . S
C1024 C1026 1.394 . S
C1024 H1040 0.931 . S
C1025 C1024 1.391 . S
C1025 C1029 1.376 1_554 S
C1026 C1024 1.394 . S
C1026 C1027 1.369 1_554 S
C1026 C1030 1.531 . S
C1027 C1026 1.369 1_556 S
C1027 C1028 1.410 . S
C1027 C1035 1.503 . S
C1028 C1027 1.410 . S
C1028 C1029 1.392 . S
C1028 C1031 1.511 . S
C1029 C1025 1.376 1_556 S
C1029 C1028 1.392 . S
C1029 H1041 0.929 . S
C1030 C1026 1.531 . S
C1030 H1042 0.960 . S
C1030 H1043 0.962 . S
C1030 H1044 0.960 . S
C1031 C1028 1.511 . S
C1031 H1045 0.961 . S
C1031 H1046 0.961 . S
C1031 H1047 0.961 . S
C1032 C1033 1.370 . S
C1032 C1034 1.363 . S
C1032 H1048 0.931 . S
C1033 C1032 1.370 . S
C1033 C1037 1.408 . S
C1034 C1032 1.363 . S
C1034 C1035 1.370 . S
C1034 C1038 1.524 1_556 S
C1035 C1027 1.503 . S
C1035 C1034 1.370 . S
C1035 C1036 1.403 . S
C1036 C1035 1.403 . S
C1036 C1037 1.404 . S
C1036 C1039 1.539 . S
C1037 C1033 1.408 . S
C1037 C1036 1.404 . S
C1037 H1049 0.930 . S
C1038 C1034 1.524 1_554 S
C1038 H1050 0.956 . S
C1038 H1051 0.961 1_554 S
C1038 H1052 0.961 . S
C1039 C1036 1.539 . S
C1039 H1053 0.958 . S
C1039 H1054 0.961 . S
C1039 H1055 0.960 . S
H1040 C1024 0.931 . S
H1041 C1029 0.929 . S
H1042 C1030 0.960 . S
H1043 C1030 0.962 . S
H1044 C1030 0.960 . S
H1045 C1031 0.961 . S
H1046 C1031 0.961 . S
H1047 C1031 0.961 . S
H1048 C1032 0.931 . S
H1049 C1037 0.930 . S
H1050 C1038 0.956 . S
H1051 C1038 0.961 1_556 S
H1052 C1038 0.961 . S
H1053 C1039 0.958 . S
H1054 C1039 0.961 . S
H1055 C1039 0.960 . S
C1056 C1057 1.391 . S
C1056 C1058 1.394 . S
C1056 H1072 0.931 . S
C1057 C1056 1.391 . S
C1057 C1061 1.376 1_556 S
C1058 C1056 1.394 . S
C1058 C1059 1.369 1_556 S
C1058 C1062 1.531 . S
C1059 C1058 1.369 1_554 S
C1059 C1060 1.410 . S
C1059 C1067 1.503 . S
C1060 C1059 1.410 . S
C1060 C1061 1.392 . S
C1060 C1063 1.511 . S
C1061 C1057 1.376 1_554 S
C1061 C1060 1.392 . S
C1061 H1073 0.929 . S
C1062 C1058 1.531 . S
C1062 H1074 0.960 . S
C1062 H1075 0.962 . S
C1062 H1076 0.960 . S
C1063 C1060 1.511 . S
C1063 H1077 0.961 . S
C1063 H1078 0.961 . S
C1063 H1079 0.961 . S
C1064 C1065 1.370 . S
C1064 C1066 1.363 . S
C1064 H1080 0.931 . S
C1065 C1064 1.370 . S
C1065 C1069 1.408 . S
C1066 C1064 1.363 . S
C1066 C1067 1.370 . S
C1066 C1070 1.524 1_554 S
C1067 C1059 1.503 . S
C1067 C1066 1.370 . S
C1067 C1068 1.403 . S
C1068 C1067 1.403 . S
C1068 C1069 1.404 . S
C1068 C1071 1.539 . S
C1069 C1065 1.408 . S
C1069 C1068 1.404 . S
C1069 H1081 0.930 . S
C1070 C1066 1.524 1_556 S
C1070 H1082 0.956 . S
C1070 H1083 0.961 1_556 S
C1070 H1084 0.961 . S
C1071 C1068 1.539 . S
C1071 H1085 0.958 . S
C1071 H1086 0.961 . S
C1071 H1087 0.960 . S
H1072 C1056 0.931 . S
H1073 C1061 0.929 . S
H1074 C1062 0.960 . S
H1075 C1062 0.962 . S
H1076 C1062 0.960 . S
H1077 C1063 0.961 . S
H1078 C1063 0.961 . S
H1079 C1063 0.961 . S
H1080 C1064 0.931 . S
H1081 C1069 0.930 . S
H1082 C1070 0.956 . S
H1083 C1070 0.961 1_554 S
H1084 C1070 0.961 . S
H1085 C1071 0.958 . S
H1086 C1071 0.961 . S
H1087 C1071 0.960 . S
C1088 C1089 1.391 . S
C1088 C1090 1.394 . S
C1088 H1104 0.931 . S
C1089 C1088 1.391 . S
C1089 C1093 1.376 . S
C1090 C1088 1.394 . S
C1090 C1091 1.369 . S
C1090 C1094 1.531 . S
C1091 C1090 1.369 . S
C1091 C1092 1.410 . S
C1091 C1099 1.503 . S
C1092 C1091 1.410 . S
C1092 C1093 1.392 . S
C1092 C1095 1.511 1_556 S
C1093 C1089 1.376 . S
C1093 C1092 1.392 . S
C1093 H1105 0.929 . S
C1094 C1090 1.531 . S
C1094 H1106 0.960 . S
C1094 H1107 0.962 . S
C1094 H1108 0.960 . S
C1095 C1092 1.511 1_554 S
C1095 H1109 0.964 . S
C1095 H1110 0.961 . S
C1095 H1111 0.961 . S
C1096 C1097 1.370 1_556 S
C1096 C1098 1.363 . S
C1096 H1112 0.931 . S
C1097 C1096 1.370 1_554 S
C1097 C1101 1.408 . S
C1098 C1096 1.363 . S
C1098 C1099 1.370 . S
C1098 C1102 1.524 . S
C1099 C1091 1.503 . S
C1099 C1098 1.370 . S
C1099 C1100 1.403 1_556 S
C1100 C1099 1.403 1_554 S
C1100 C1101 1.404 . S
C1100 C1103 1.539 . S
C1101 C1097 1.408 . S
C1101 C1100 1.404 . S
C1101 H1113 0.930 . S
C1102 C1098 1.524 . S
C1102 H1114 0.956 . S
C1102 H1115 0.961 . S
C1102 H1116 0.961 . S
C1103 C1100 1.539 . S
C1103 H1117 0.958 . S
C1103 H1118 0.961 . S
C1103 H1119 0.960 . S
H1104 C1088 0.931 . S
H1105 C1093 0.929 . S
H1106 C1094 0.960 . S
H1107 C1094 0.962 . S
H1108 C1094 0.960 . S
H1109 C1095 0.964 . S
H1110 C1095 0.961 . S
H1111 C1095 0.961 . S
H1112 C1096 0.931 . S
H1113 C1101 0.930 . S
H1114 C1102 0.956 . S
H1115 C1102 0.961 . S
H1116 C1102 0.961 . S
H1117 C1103 0.958 . S
H1118 C1103 0.961 . S
H1119 C1103 0.960 . S
C1120 C1121 1.391 1_545 S
C1120 C1122 1.394 . S
C1120 H1136 0.931 . S
C1121 C1120 1.391 1_565 S
C1121 C1125 1.376 . S
C1122 C1120 1.394 . S
C1122 C1123 1.369 . S
C1122 C1126 1.531 . S
C1123 C1122 1.369 . S
C1123 C1124 1.410 1_545 S
C1123 C1131 1.503 . S
C1124 C1123 1.410 1_565 S
C1124 C1125 1.392 . S
C1124 C1127 1.511 . S
C1125 C1121 1.376 . S
C1125 C1124 1.392 . S
C1125 H1137 0.929 . S
C1126 C1122 1.531 . S
C1126 H1138 0.960 . S
C1126 H1139 0.962 . S
C1126 H1140 0.960 . S
C1127 C1124 1.511 . S
C1127 H1141 0.961 . S
C1127 H1142 0.961 . S
C1127 H1143 0.961 . S
C1128 C1129 1.370 . S
C1128 C1130 1.363 . S
C1128 H1144 0.931 . S
C1129 C1128 1.370 . S
C1129 C1133 1.408 . S
C1130 C1128 1.363 . S
C1130 C1131 1.370 . S
C1130 C1134 1.524 1_545 S
C1131 C1123 1.503 . S
C1131 C1130 1.370 . S
C1131 C1132 1.403 . S
C1132 C1131 1.403 . S
C1132 C1133 1.404 . S
C1132 C1135 1.539 . S
C1133 C1129 1.408 . S
C1133 C1132 1.404 . S
C1133 H1145 0.930 . S
C1134 C1130 1.524 1_565 S
C1134 H1146 0.956 . S
C1134 H1147 0.961 . S
C1134 H1148 0.961 . S
C1135 C1132 1.539 . S
C1135 H1149 0.958 . S
C1135 H1150 0.961 . S
C1135 H1151 0.960 . S
H1136 C1120 0.931 . S
H1137 C1125 0.929 . S
H1138 C1126 0.960 . S
H1139 C1126 0.962 . S
H1140 C1126 0.960 . S
H1141 C1127 0.961 . S
H1142 C1127 0.961 . S
H1143 C1127 0.961 . S
H1144 C1128 0.931 . S
H1145 C1133 0.930 . S
H1146 C1134 0.956 . S
H1147 C1134 0.961 . S
H1148 C1134 0.961 . S
H1149 C1135 0.958 . S
H1150 C1135 0.961 . S
H1151 C1135 0.960 . S
C1152 C1153 1.391 . S
C1152 C1154 1.394 . S
C1152 H1168 0.931 . S
C1153 C1152 1.391 . S
C1153 C1157 1.376 1_655 S
C1154 C1152 1.394 . S
C1154 C1155 1.369 1_655 S
C1154 C1158 1.531 . S
C1155 C1154 1.369 1_455 S
C1155 C1156 1.410 . S
C1155 C1163 1.503 . S
C1156 C1155 1.410 . S
C1156 C1157 1.392 . S
C1156 C1159 1.511 . S
C1157 C1153 1.376 1_455 S
C1157 C1156 1.392 . S
C1157 H1169 0.929 . S
C1158 C1154 1.531 . S
C1158 H1170 0.960 . S
C1158 H1171 0.962 . S
C1158 H1172 0.960 . S
C1159 C1156 1.511 . S
C1159 H1173 0.961 . S
C1159 H1174 0.961 . S
C1159 H1175 0.961 . S
C1160 C1161 1.370 . S
C1160 C1162 1.363 . S
C1160 H1176 0.931 . S
C1161 C1160 1.370 . S
C1161 C1165 1.408 . S
C1162 C1160 1.363 . S
C1162 C1163 1.370 . S
C1162 C1166 1.524 . S
C1163 C1155 1.503 . S
C1163 C1162 1.370 . S
C1163 C1164 1.403 . S
C1164 C1163 1.403 . S
C1164 C1165 1.404 . S
C1164 C1167 1.539 . S
C1165 C1161 1.408 . S
C1165 C1164 1.404 . S
C1165 H1177 0.930 . S
C1166 C1162 1.524 . S
C1166 H1178 0.958 . S
C1166 H1179 0.961 . S
C1166 H1180 0.961 . S
C1167 C1164 1.539 . S
C1167 H1181 0.958 . S
C1167 H1182 0.961 . S
C1167 H1183 0.960 . S
H1168 C1152 0.931 . S
H1169 C1157 0.929 . S
H1170 C1158 0.960 . S
H1171 C1158 0.962 . S
H1172 C1158 0.960 . S
H1173 C1159 0.961 . S
H1174 C1159 0.961 . S
H1175 C1159 0.961 . S
H1176 C1160 0.931 . S
H1177 C1165 0.930 . S
H1178 C1166 0.958 . S
H1179 C1166 0.961 . S
H1180 C1166 0.961 . S
H1181 C1167 0.958 . S
H1182 C1167 0.961 . S
H1183 C1167 0.960 . S
C1184 C1185 1.391 . S
C1184 C1186 1.394 . S
C1184 H1200 0.931 . S
C1185 C1184 1.391 . S
C1185 C1189 1.376 . S
C1186 C1184 1.394 . S
C1186 C1187 1.369 . S
C1186 C1190 1.531 . S
C1187 C1186 1.369 . S
C1187 C1188 1.410 . S
C1187 C1195 1.503 . S
C1188 C1187 1.410 . S
C1188 C1189 1.392 . S
C1188 C1191 1.511 . S
C1189 C1185 1.376 . S
C1189 C1188 1.392 . S
C1189 H1201 0.929 . S
C1190 C1186 1.531 . S
C1190 H1202 0.960 1_565 S
C1190 H1203 0.962 . S
C1190 H1204 0.960 1_565 S
C1191 C1188 1.511 . S
C1191 H1205 0.961 . S
C1191 H1206 0.961 . S
C1191 H1207 0.961 . S
C1192 C1193 1.370 1_565 S
C1192 C1194 1.363 . S
C1192 H1208 0.931 . S
C1193 C1192 1.370 1_545 S
C1193 C1197 1.408 . S
C1194 C1192 1.363 . S
C1194 C1195 1.370 . S
C1194 C1198 1.524 . S
C1195 C1187 1.503 . S
C1195 C1194 1.370 . S
C1195 C1196 1.403 1_565 S
C1196 C1195 1.403 1_545 S
C1196 C1197 1.404 . S
C1196 C1199 1.539 . S
C1197 C1193 1.408 . S
C1197 C1196 1.404 . S
C1197 H1209 0.930 . S
C1198 C1194 1.524 . S
C1198 H1210 0.956 . S
C1198 H1211 0.961 . S
C1198 H1212 0.961 . S
C1199 C1196 1.539 . S
C1199 H1213 0.958 . S
C1199 H1214 0.961 . S
C1199 H1215 0.960 . S
H1200 C1184 0.931 . S
H1201 C1189 0.929 . S
H1202 C1190 0.960 1_545 S
H1203 C1190 0.962 . S
H1204 C1190 0.960 1_545 S
H1205 C1191 0.961 . S
H1206 C1191 0.961 . S
H1207 C1191 0.961 . S
H1208 C1192 0.931 . S
H1209 C1197 0.930 . S
H1210 C1198 0.956 . S
H1211 C1198 0.961 . S
H1212 C1198 0.961 . S
H1213 C1199 0.958 . S
H1214 C1199 0.961 . S
H1215 C1199 0.960 . S
C1216 C1217 1.391 . S
C1216 C1218 1.394 . S
C1216 H1232 0.931 . S
C1217 C1216 1.391 . S
C1217 C1221 1.376 . S
C1218 C1216 1.394 . S
C1218 C1219 1.369 . S
C1218 C1222 1.531 . S
C1219 C1218 1.369 . S
C1219 C1220 1.410 . S
C1219 C1227 1.503 . S
C1220 C1219 1.410 . S
C1220 C1221 1.392 . S
C1220 C1223 1.511 . S
C1221 C1217 1.376 . S
C1221 C1220 1.392 . S
C1221 H1233 0.929 . S
C1222 C1218 1.531 . S
C1222 H1234 0.960 . S
C1222 H1235 0.962 1_655 S
C1222 H1236 0.960 . S
C1223 C1220 1.511 . S
C1223 H1237 0.961 . S
C1223 H1238 0.961 . S
C1223 H1239 0.961 . S
C1224 C1225 1.370 . S
C1224 C1226 1.363 . S
C1224 H1240 0.931 . S
C1225 C1224 1.370 . S
C1225 C1229 1.408 1_455 S
C1226 C1224 1.363 . S
C1226 C1227 1.370 1_455 S
C1226 C1230 1.524 . S
C1227 C1219 1.503 . S
C1227 C1226 1.370 1_655 S
C1227 C1228 1.403 . S
C1228 C1227 1.403 . S
C1228 C1229 1.404 . S
C1228 C1231 1.539 . S
C1229 C1225 1.408 1_655 S
C1229 C1228 1.404 . S
C1229 H1241 0.930 . S
C1230 C1226 1.524 . S
C1230 H1242 0.956 . S
C1230 H1243 0.961 . S
C1230 H1244 0.961 . S
C1231 C1228 1.539 . S
C1231 H1245 0.958 . S
C1231 H1246 0.961 . S
C1231 H1247 0.960 . S
H1232 C1216 0.931 . S
H1233 C1221 0.929 . S
H1234 C1222 0.960 . S
H1235 C1222 0.962 1_455 S
H1236 C1222 0.960 . S
H1237 C1223 0.961 . S
H1238 C1223 0.961 . S
H1239 C1223 0.961 . S
H1240 C1224 0.931 . S
H1241 C1229 0.930 . S
H1242 C1230 0.956 . S
H1243 C1230 0.961 . S
H1244 C1230 0.961 . S
H1245 C1231 0.958 . S
H1246 C1231 0.961 . S
H1247 C1231 0.960 . S
C1248 C1249 1.391 . S
C1248 C1250 1.394 1_565 S
C1248 H1264 0.931 . S
C1249 C1248 1.391 . S
C1249 C1253 1.376 . S
C1250 C1248 1.394 1_545 S
C1250 C1251 1.369 . S
C1250 C1254 1.531 . S
C1251 C1250 1.369 . S
C1251 C1252 1.410 . S
C1251 C1259 1.503 . S
C1252 C1251 1.410 . S
C1252 C1253 1.392 1_545 S
C1252 C1255 1.511 . S
C1253 C1249 1.376 . S
C1253 C1252 1.392 1_565 S
C1253 H1265 0.929 . S
C1254 C1250 1.531 . S
C1254 H1266 0.960 . S
C1254 H1267 0.962 . S
C1254 H1268 0.960 . S
C1255 C1252 1.511 . S
C1255 H1269 0.961 1_545 S
C1255 H1270 0.961 . S
C1255 H1271 0.961 . S
C1256 C1257 1.370 . S
C1256 C1258 1.363 . S
C1256 H1272 0.931 . S
C1257 C1256 1.370 . S
C1257 C1261 1.408 . S
C1258 C1256 1.363 . S
C1258 C1259 1.370 . S
C1258 C1262 1.524 1_545 S
C1259 C1251 1.503 . S
C1259 C1258 1.370 . S
C1259 C1260 1.403 . S
C1260 C1259 1.403 . S
C1260 C1261 1.404 . S
C1260 C1263 1.539 . S
C1261 C1257 1.408 . S
C1261 C1260 1.404 . S
C1261 H1273 0.930 . S
C1262 C1258 1.524 1_565 S
C1262 H1274 0.956 . S
C1262 H1275 0.961 . S
C1262 H1276 0.961 . S
C1263 C1260 1.539 . S
C1263 H1277 0.958 . S
C1263 H1278 0.961 . S
C1263 H1279 0.960 . S
H1264 C1248 0.931 . S
H1265 C1253 0.929 . S
H1266 C1254 0.960 . S
H1267 C1254 0.962 . S
H1268 C1254 0.960 . S
H1269 C1255 0.961 1_565 S
H1270 C1255 0.961 . S
H1271 C1255 0.961 . S
H1272 C1256 0.931 . S
H1273 C1261 0.930 . S
H1274 C1262 0.956 . S
H1275 C1262 0.961 . S
H1276 C1262 0.961 . S
H1277 C1263 0.958 . S
H1278 C1263 0.961 . S
H1279 C1263 0.960 . S
C1280 C1281 1.391 . S
C1280 C1282 1.394 . S
C1280 H1296 0.931 . S
C1281 C1280 1.391 . S
C1281 C1285 1.376 . S
C1282 C1280 1.394 . S
C1282 C1283 1.369 . S
C1282 C1286 1.531 . S
C1283 C1282 1.369 . S
C1283 C1284 1.410 . S
C1283 C1291 1.503 . S
C1284 C1283 1.410 . S
C1284 C1285 1.392 . S
C1284 C1287 1.511 1_455 S
C1285 C1281 1.376 . S
C1285 C1284 1.392 . S
C1285 H1297 0.929 . S
C1286 C1282 1.531 . S
C1286 H1298 0.960 . S
C1286 H1299 0.962 . S
C1286 H1300 0.960 . S
C1287 C1284 1.511 1_655 S
C1287 H1301 0.961 . S
C1287 H1302 0.961 . S
C1287 H1303 0.961 . S
C1288 C1289 1.370 . S
C1288 C1290 1.363 1_655 S
C1288 H1304 0.934 . S
C1289 C1288 1.370 . S
C1289 C1293 1.408 . S
C1290 C1288 1.363 1_455 S
C1290 C1291 1.370 . S
C1290 C1294 1.524 . S
C1291 C1283 1.503 . S
C1291 C1290 1.370 . S
C1291 C1292 1.403 1_455 S
C1292 C1291 1.403 1_655 S
C1292 C1293 1.404 . S
C1292 C1295 1.539 . S
C1293 C1289 1.408 . S
C1293 C1292 1.404 . S
C1293 H1305 0.930 . S
C1294 C1290 1.524 . S
C1294 H1306 0.956 . S
C1294 H1307 0.961 . S
C1294 H1308 0.961 . S
C1295 C1292 1.539 . S
C1295 H1309 0.958 1_655 S
C1295 H1310 0.961 . S
C1295 H1311 0.960 . S
H1296 C1280 0.931 . S
H1297 C1285 0.929 . S
H1298 C1286 0.960 . S
H1299 C1286 0.962 . S
H1300 C1286 0.960 . S
H1301 C1287 0.961 . S
H1302 C1287 0.961 . S
H1303 C1287 0.961 . S
H1304 C1288 0.934 . S
H1305 C1293 0.930 . S
H1306 C1294 0.956 . S
H1307 C1294 0.961 . S
H1308 C1294 0.961 . S
H1309 C1295 0.958 1_455 S
H1310 C1295 0.961 . S
H1311 C1295 0.960 . S
C1312 C1313 1.391 . S
C1312 C1314 1.394 . S
C1312 H1328 0.931 . S
C1313 C1312 1.391 . S
C1313 C1317 1.376 . S
C1314 C1312 1.394 . S
C1314 C1315 1.369 . S
C1314 C1318 1.531 1_565 S
C1315 C1314 1.369 . S
C1315 C1316 1.410 . S
C1315 C1323 1.503 . S
C1316 C1315 1.410 . S
C1316 C1317 1.392 . S
C1316 C1319 1.511 . S
C1317 C1313 1.376 . S
C1317 C1316 1.392 . S
C1317 H1329 0.929 . S
C1318 C1314 1.531 1_545 S
C1318 H1330 0.960 . S
C1318 H1331 0.962 . S
C1318 H1332 0.960 . S
C1319 C1316 1.511 . S
C1319 H1333 0.961 . S
C1319 H1334 0.961 . S
C1319 H1335 0.961 . S
C1320 C1321 1.370 1_565 S
C1320 C1322 1.363 . S
C1320 H1336 0.931 . S
C1321 C1320 1.370 1_545 S
C1321 C1325 1.408 . S
C1322 C1320 1.363 . S
C1322 C1323 1.370 . S
C1322 C1326 1.524 . S
C1323 C1315 1.503 . S
C1323 C1322 1.370 . S
C1323 C1324 1.403 1_565 S
C1324 C1323 1.403 1_545 S
C1324 C1325 1.404 . S
C1324 C1327 1.539 . S
C1325 C1321 1.408 . S
C1325 C1324 1.404 . S
C1325 H1337 0.930 . S
C1326 C1322 1.524 . S
C1326 H1338 0.956 . S
C1326 H1339 0.961 . S
C1326 H1340 0.961 . S
C1327 C1324 1.539 . S
C1327 H1341 0.958 . S
C1327 H1342 0.961 . S
C1327 H1343 0.960 1_545 S
H1328 C1312 0.931 . S
H1329 C1317 0.929 . S
H1330 C1318 0.960 . S
H1331 C1318 0.962 . S
H1332 C1318 0.960 . S
H1333 C1319 0.961 . S
H1334 C1319 0.961 . S
H1335 C1319 0.961 . S
H1336 C1320 0.931 . S
H1337 C1325 0.930 . S
H1338 C1326 0.956 . S
H1339 C1326 0.961 . S
H1340 C1326 0.961 . S
H1341 C1327 0.958 . S
H1342 C1327 0.961 . S
H1343 C1327 0.960 1_565 S
C1344 C1345 1.391 1_655 S
C1344 C1346 1.394 . S
C1344 H1360 0.931 . S
C1345 C1344 1.391 1_455 S
C1345 C1349 1.376 . S
C1346 C1344 1.394 . S
C1346 C1347 1.369 . S
C1346 C1350 1.531 . S
C1347 C1346 1.369 . S
C1347 C1348 1.410 1_655 S
C1347 C1355 1.503 . S
C1348 C1347 1.410 1_455 S
C1348 C1349 1.392 . S
C1348 C1351 1.511 . S
C1349 C1345 1.376 . S
C1349 C1348 1.392 . S
C1349 H1361 0.929 . S
C1350 C1346 1.531 . S
C1350 H1362 0.960 . S
C1350 H1363 0.962 . S
C1350 H1364 0.960 . S
C1351 C1348 1.511 . S
C1351 H1365 0.961 . S
C1351 H1366 0.961 . S
C1351 H1367 0.961 . S
C1352 C1353 1.370 . S
C1352 C1354 1.363 . S
C1352 H1368 0.931 . S
C1353 C1352 1.370 . S
C1353 C1357 1.408 . S
C1354 C1352 1.363 . S
C1354 C1355 1.370 . S
C1354 C1358 1.524 . S
C1355 C1347 1.503 . S
C1355 C1354 1.370 . S
C1355 C1356 1.403 . S
C1356 C1355 1.403 . S
C1356 C1357 1.404 . S
C1356 C1359 1.539 . S
C1357 C1353 1.408 . S
C1357 C1356 1.404 . S
C1357 H1369 0.930 . S
C1358 C1354 1.524 . S
C1358 H1370 0.956 . S
C1358 H1371 0.961 1_655 S
C1358 H1372 0.961 . S
C1359 C1356 1.539 . S
C1359 H1373 0.958 . S
C1359 H1374 0.961 . S
C1359 H1375 0.960 . S
H1360 C1344 0.931 . S
H1361 C1349 0.929 . S
H1362 C1350 0.960 . S
H1363 C1350 0.962 . S
H1364 C1350 0.960 . S
H1365 C1351 0.961 . S
H1366 C1351 0.961 . S
H1367 C1351 0.961 . S
H1368 C1352 0.931 . S
H1369 C1357 0.930 . S
H1370 C1358 0.956 . S
H1371 C1358 0.961 1_455 S
H1372 C1358 0.961 . S
H1373 C1359 0.958 . S
H1374 C1359 0.961 . S
H1375 C1359 0.960 . S
C1376 C1377 1.391 . S
C1376 C1378 1.394 . S
C1376 H1392 0.931 . S
C1377 C1376 1.391 . S
C1377 C1381 1.376 . S
C1378 C1376 1.394 . S
C1378 C1379 1.369 . S
C1378 C1382 1.531 . S
C1379 C1378 1.369 . S
C1379 C1380 1.410 . S
C1379 C1387 1.503 . S
C1380 C1379 1.410 . S
C1380 C1381 1.392 . S
C1380 C1383 1.511 . S
C1381 C1377 1.376 . S
C1381 C1380 1.392 . S
C1381 H1393 0.929 . S
C1382 C1378 1.531 . S
C1382 H1394 0.960 . S
C1382 H1395 0.962 . S
C1382 H1396 0.960 . S
C1383 C1380 1.511 . S
C1383 H1397 0.961 . S
C1383 H1398 0.961 . S
C1383 H1399 0.961 . S
C1384 C1385 1.370 . S
C1384 C1386 1.363 . S
C1384 H1400 0.931 . S
C1385 C1384 1.370 . S
C1385 C1389 1.408 . S
C1386 C1384 1.363 . S
C1386 C1387 1.370 . S
C1386 C1390 1.524 . S
C1387 C1379 1.503 . S
C1387 C1386 1.370 . S
C1387 C1388 1.403 . S
C1388 C1387 1.403 . S
C1388 C1389 1.404 . S
C1388 C1391 1.539 . S
C1389 C1385 1.408 . S
C1389 C1388 1.404 . S
C1389 H1401 0.930 . S
C1390 C1386 1.524 . S
C1390 H1402 0.956 . S
C1390 H1403 0.961 . S
C1390 H1404 0.961 . S
C1391 C1388 1.539 . S
C1391 H1405 0.958 . S
C1391 H1406 0.961 . S
C1391 H1407 0.960 . S
H1392 C1376 0.931 . S
H1393 C1381 0.929 . S
H1394 C1382 0.960 . S
H1395 C1382 0.962 . S
H1396 C1382 0.960 . S
H1397 C1383 0.961 . S
H1398 C1383 0.961 . S
H1399 C1383 0.961 . S
H1400 C1384 0.931 . S
H1401 C1389 0.930 . S
H1402 C1390 0.956 . S
H1403 C1390 0.961 . S
H1404 C1390 0.961 . S
H1405 C1391 0.958 . S
H1406 C1391 0.961 . S
H1407 C1391 0.960 . S
C1408 C1409 1.391 . S
C1408 C1410 1.394 . S
C1408 H1424 0.931 . S
C1409 C1408 1.391 . S
C1409 C1413 1.376 . S
C1410 C1408 1.394 . S
C1410 C1411 1.369 . S
C1410 C1414 1.531 . S
C1411 C1410 1.369 . S
C1411 C1412 1.410 . S
C1411 C1419 1.503 . S
C1412 C1411 1.410 . S
C1412 C1413 1.392 . S
C1412 C1415 1.511 . S
C1413 C1409 1.376 . S
C1413 C1412 1.392 . S
C1413 H1425 0.929 . S
C1414 C1410 1.531 . S
C1414 H1426 0.960 . S
C1414 H1427 0.962 . S
C1414 H1428 0.960 . S
C1415 C1412 1.511 . S
C1415 H1429 0.961 . S
C1415 H1430 0.961 . S
C1415 H1431 0.961 . S
C1416 C1417 1.370 . S
C1416 C1418 1.363 . S
C1416 H1432 0.931 . S
C1417 C1416 1.370 . S
C1417 C1421 1.408 . S
C1418 C1416 1.363 . S
C1418 C1419 1.370 . S
C1418 C1422 1.524 . S
C1419 C1411 1.503 . S
C1419 C1418 1.370 . S
C1419 C1420 1.403 . S
C1420 C1419 1.403 . S
C1420 C1421 1.404 . S
C1420 C1423 1.539 . S
C1421 C1417 1.408 . S
C1421 C1420 1.404 . S
C1421 H1433 0.930 . S
C1422 C1418 1.524 . S
C1422 H1434 0.956 . S
C1422 H1435 0.961 . S
C1422 H1436 0.961 . S
C1423 C1420 1.539 . S
C1423 H1437 0.958 . S
C1423 H1438 0.961 . S
C1423 H1439 0.960 . S
H1424 C1408 0.931 . S
H1425 C1413 0.929 . S
H1426 C1414 0.960 . S
H1427 C1414 0.962 . S
H1428 C1414 0.960 . S
H1429 C1415 0.961 . S
H1430 C1415 0.961 . S
H1431 C1415 0.961 . S
H1432 C1416 0.931 . S
H1433 C1421 0.930 . S
H1434 C1422 0.956 . S
H1435 C1422 0.961 . S
H1436 C1422 0.961 . S
H1437 C1423 0.958 . S
H1438 C1423 0.961 . S
H1439 C1423 0.960 . S
C1440 C1441 1.391 . S
C1440 C1442 1.394 . S
C1440 H1456 0.931 . S
C1441 C1440 1.391 . S
C1441 C1445 1.376 . S
C1442 C1440 1.394 . S
C1442 C1443 1.369 . S
C1442 C1446 1.531 . S
C1443 C1442 1.369 . S
C1443 C1444 1.410 . S
C1443 C1451 1.503 . S
C1444 C1443 1.410 . S
C1444 C1445 1.392 . S
C1444 C1447 1.511 . S
C1445 C1441 1.376 . S
C1445 C1444 1.392 . S
C1445 H1457 0.929 . S
C1446 C1442 1.531 . S
C1446 H1458 0.960 . S
C1446 H1459 0.962 . S
C1446 H1460 0.960 . S
C1447 C1444 1.511 . S
C1447 H1461 0.961 . S
C1447 H1462 0.961 . S
C1447 H1463 0.961 . S
C1448 C1449 1.370 . S
C1448 C1450 1.363 . S
C1448 H1464 0.931 . S
C1449 C1448 1.370 . S
C1449 C1453 1.408 . S
C1450 C1448 1.363 . S
C1450 C1451 1.370 . S
C1450 C1454 1.524 . S
C1451 C1443 1.503 . S
C1451 C1450 1.370 . S
C1451 C1452 1.403 . S
C1452 C1451 1.403 . S
C1452 C1453 1.404 . S
C1452 C1455 1.539 . S
C1453 C1449 1.408 . S
C1453 C1452 1.404 . S
C1453 H1465 0.930 . S
C1454 C1450 1.524 . S
C1454 H1466 0.956 . S
C1454 H1467 0.961 . S
C1454 H1468 0.961 . S
C1455 C1452 1.539 . S
C1455 H1469 0.958 . S
C1455 H1470 0.961 . S
C1455 H1471 0.960 . S
H1456 C1440 0.931 . S
H1457 C1445 0.929 . S
H1458 C1446 0.960 . S
H1459 C1446 0.962 . S
H1460 C1446 0.960 . S
H1461 C1447 0.961 . S
H1462 C1447 0.961 . S
H1463 C1447 0.961 . S
H1464 C1448 0.931 . S
H1465 C1453 0.930 . S
H1466 C1454 0.956 . S
H1467 C1454 0.961 . S
H1468 C1454 0.961 . S
H1469 C1455 0.958 . S
H1470 C1455 0.961 . S
H1471 C1455 0.960 . S
C1472 C1473 1.391 . S
C1472 C1474 1.394 . S
C1472 H1488 0.931 . S
C1473 C1472 1.391 . S
C1473 C1477 1.376 . S
C1474 C1472 1.394 . S
C1474 C1475 1.369 . S
C1474 C1478 1.531 . S
C1475 C1474 1.369 . S
C1475 C1476 1.410 . S
C1475 C1483 1.503 . S
C1476 C1475 1.410 . S
C1476 C1477 1.392 . S
C1476 C1479 1.511 . S
C1477 C1473 1.376 . S
C1477 C1476 1.392 . S
C1477 H1489 0.929 . S
C1478 C1474 1.531 . S
C1478 H1490 0.960 . S
C1478 H1491 0.962 . S
C1478 H1492 0.960 . S
C1479 C1476 1.511 . S
C1479 H1493 0.961 . S
C1479 H1494 0.961 . S
C1479 H1495 0.961 . S
C1480 C1481 1.370 . S
C1480 C1482 1.363 . S
C1480 H1496 0.931 . S
C1481 C1480 1.370 . S
C1481 C1485 1.408 . S
C1482 C1480 1.363 . S
C1482 C1483 1.370 . S
C1482 C1486 1.524 . S
C1483 C1475 1.503 . S
C1483 C1482 1.370 . S
C1483 C1484 1.403 . S
C1484 C1483 1.403 . S
C1484 C1485 1.404 . S
C1484 C1487 1.539 . S
C1485 C1481 1.408 . S
C1485 C1484 1.404 . S
C1485 H1497 0.930 . S
C1486 C1482 1.524 . S
C1486 H1498 0.956 . S
C1486 H1499 0.961 . S
C1486 H1500 0.961 . S
C1487 C1484 1.539 . S
C1487 H1501 0.958 . S
C1487 H1502 0.961 . S
C1487 H1503 0.960 . S
H1488 C1472 0.931 . S
H1489 C1477 0.929 . S
H1490 C1478 0.960 . S
H1491 C1478 0.962 . S
H1492 C1478 0.960 . S
H1493 C1479 0.961 . S
H1494 C1479 0.961 . S
H1495 C1479 0.961 . S
H1496 C1480 0.931 . S
H1497 C1485 0.930 . S
H1498 C1486 0.956 . S
H1499 C1486 0.961 . S
H1500 C1486 0.961 . S
H1501 C1487 0.958 . S
H1502 C1487 0.961 . S
H1503 C1487 0.960 . S
C1504 C1505 1.391 . S
C1504 C1506 1.394 . S
C1504 H1520 0.931 . S
C1505 C1504 1.391 . S
C1505 C1509 1.376 . S
C1506 C1504 1.394 . S
C1506 C1507 1.369 . S
C1506 C1510 1.531 . S
C1507 C1506 1.369 . S
C1507 C1508 1.410 . S
C1507 C1515 1.503 . S
C1508 C1507 1.410 . S
C1508 C1509 1.392 . S
C1508 C1511 1.511 . S
C1509 C1505 1.376 . S
C1509 C1508 1.392 . S
C1509 H1521 0.929 . S
C1510 C1506 1.531 . S
C1510 H1522 0.960 . S
C1510 H1523 0.962 . S
C1510 H1524 0.960 . S
C1511 C1508 1.511 . S
C1511 H1525 0.961 . S
C1511 H1526 0.961 . S
C1511 H1527 0.961 . S
C1512 C1513 1.370 . S
C1512 C1514 1.363 . S
C1512 H1528 0.931 . S
C1513 C1512 1.370 . S
C1513 C1517 1.408 . S
C1514 C1512 1.363 . S
C1514 C1515 1.370 . S
C1514 C1518 1.524 . S
C1515 C1507 1.503 . S
C1515 C1514 1.370 . S
C1515 C1516 1.403 . S
C1516 C1515 1.403 . S
C1516 C1517 1.404 . S
C1516 C1519 1.539 . S
C1517 C1513 1.408 . S
C1517 C1516 1.404 . S
C1517 H1529 0.930 . S
C1518 C1514 1.524 . S
C1518 H1530 0.956 . S
C1518 H1531 0.961 . S
C1518 H1532 0.961 . S
C1519 C1516 1.539 . S
C1519 H1533 0.958 . S
C1519 H1534 0.961 . S
C1519 H1535 0.960 . S
H1520 C1504 0.931 . S
H1521 C1509 0.929 . S
H1522 C1510 0.960 . S
H1523 C1510 0.962 . S
H1524 C1510 0.960 . S
H1525 C1511 0.961 . S
H1526 C1511 0.961 . S
H1527 C1511 0.961 . S
H1528 C1512 0.931 . S
H1529 C1517 0.930 . S
H1530 C1518 0.956 . S
H1531 C1518 0.961 . S
H1532 C1518 0.961 . S
H1533 C1519 0.958 . S
H1534 C1519 0.961 . S
H1535 C1519 0.960 . S
C1536 C1537 1.391 . S
C1536 C1538 1.394 . S
C1536 H1552 0.931 . S
C1537 C1536 1.391 . S
C1537 C1541 1.376 . S
C1538 C1536 1.394 . S
C1538 C1539 1.369 . S
C1538 C1542 1.531 . S
C1539 C1538 1.369 . S
C1539 C1540 1.410 . S
C1539 C1547 1.503 . S
C1540 C1539 1.410 . S
C1540 C1541 1.392 . S
C1540 C1543 1.511 . S
C1541 C1537 1.376 . S
C1541 C1540 1.392 . S
C1541 H1553 0.929 . S
C1542 C1538 1.531 . S
C1542 H1554 0.960 . S
C1542 H1555 0.962 . S
C1542 H1556 0.960 . S
C1543 C1540 1.511 . S
C1543 H1557 0.961 . S
C1543 H1558 0.961 . S
C1543 H1559 0.961 . S
C1544 C1545 1.370 . S
C1544 C1546 1.363 . S
C1544 H1560 0.931 . S
C1545 C1544 1.370 . S
C1545 C1549 1.408 . S
C1546 C1544 1.363 . S
C1546 C1547 1.370 . S
C1546 C1550 1.524 . S
C1547 C1539 1.503 . S
C1547 C1546 1.370 . S
C1547 C1548 1.403 . S
C1548 C1547 1.403 . S
C1548 C1549 1.404 . S
C1548 C1551 1.539 . S
C1549 C1545 1.408 . S
C1549 C1548 1.404 . S
C1549 H1561 0.930 . S
C1550 C1546 1.524 . S
C1550 H1562 0.956 . S
C1550 H1563 0.961 . S
C1550 H1564 0.961 . S
C1551 C1548 1.539 . S
C1551 H1565 0.958 . S
C1551 H1566 0.961 . S
C1551 H1567 0.960 . S
H1552 C1536 0.931 . S
H1553 C1541 0.929 . S
H1554 C1542 0.960 . S
H1555 C1542 0.962 . S
H1556 C1542 0.960 . S
H1557 C1543 0.961 . S
H1558 C1543 0.961 . S
H1559 C1543 0.961 . S
H1560 C1544 0.931 . S
H1561 C1549 0.930 . S
H1562 C1550 0.956 . S
H1563 C1550 0.961 . S
H1564 C1550 0.961 . S
H1565 C1551 0.958 . S
H1566 C1551 0.961 . S
H1567 C1551 0.960 . S
C1568 C1569 1.391 . S
C1568 C1570 1.394 . S
C1568 H1584 0.931 . S
C1569 C1568 1.391 . S
C1569 C1573 1.376 . S
C1570 C1568 1.394 . S
C1570 C1571 1.369 . S
C1570 C1574 1.531 . S
C1571 C1570 1.369 . S
C1571 C1572 1.410 . S
C1571 C1579 1.503 . S
C1572 C1571 1.410 . S
C1572 C1573 1.392 . S
C1572 C1575 1.511 . S
C1573 C1569 1.376 . S
C1573 C1572 1.392 . S
C1573 H1585 0.929 . S
C1574 C1570 1.531 . S
C1574 H1586 0.960 . S
C1574 H1587 0.962 . S
C1574 H1588 0.960 . S
C1575 C1572 1.511 . S
C1575 H1589 0.961 . S
C1575 H1590 0.961 . S
C1575 H1591 0.961 . S
C1576 C1577 1.370 . S
C1576 C1578 1.363 . S
C1576 H1592 0.931 . S
C1577 C1576 1.370 . S
C1577 C1581 1.408 . S
C1578 C1576 1.363 . S
C1578 C1579 1.370 . S
C1578 C1582 1.524 . S
C1579 C1571 1.503 . S
C1579 C1578 1.370 . S
C1579 C1580 1.403 . S
C1580 C1579 1.403 . S
C1580 C1581 1.404 . S
C1580 C1583 1.539 . S
C1581 C1577 1.408 . S
C1581 C1580 1.404 . S
C1581 H1593 0.930 . S
C1582 C1578 1.524 . S
C1582 H1594 0.956 . S
C1582 H1595 0.961 . S
C1582 H1596 0.961 . S
C1583 C1580 1.539 . S
C1583 H1597 0.958 . S
C1583 H1598 0.961 . S
C1583 H1599 0.960 . S
H1584 C1568 0.931 . S
H1585 C1573 0.929 . S
H1586 C1574 0.960 . S
H1587 C1574 0.962 . S
H1588 C1574 0.960 . S
H1589 C1575 0.961 . S
H1590 C1575 0.961 . S
H1591 C1575 0.961 . S
H1592 C1576 0.931 . S
H1593 C1581 0.930 . S
H1594 C1582 0.956 . S
H1595 C1582 0.961 . S
H1596 C1582 0.961 . S
H1597 C1583 0.958 . S
H1598 C1583 0.961 . S
H1599 C1583 0.960 . S
C1600 C1601 1.391 . S
C1600 C1602 1.394 . S
C1600 H1616 0.931 . S
C1601 C1600 1.391 . S
C1601 C1605 1.376 . S
C1602 C1600 1.394 . S
C1602 C1603 1.369 . S
C1602 C1606 1.531 . S
C1603 C1602 1.369 . S
C1603 C1604 1.410 . S
C1603 C1611 1.503 . S
C1604 C1603 1.410 . S
C1604 C1605 1.392 . S
C1604 C1607 1.511 . S
C1605 C1601 1.376 . S
C1605 C1604 1.392 . S
C1605 H1617 0.929 . S
C1606 C1602 1.531 . S
C1606 H1618 0.960 . S
C1606 H1619 0.962 . S
C1606 H1620 0.960 . S
C1607 C1604 1.511 . S
C1607 H1621 0.961 . S
C1607 H1622 0.961 . S
C1607 H1623 0.961 . S
C1608 C1609 1.370 . S
C1608 C1610 1.363 . S
C1608 H1624 0.931 . S
C1609 C1608 1.370 . S
C1609 C1613 1.408 . S
C1610 C1608 1.363 . S
C1610 C1611 1.370 . S
C1610 C1614 1.524 . S
C1611 C1603 1.503 . S
C1611 C1610 1.370 . S
C1611 C1612 1.403 . S
C1612 C1611 1.403 . S
C1612 C1613 1.404 . S
C1612 C1615 1.539 . S
C1613 C1609 1.408 . S
C1613 C1612 1.404 . S
C1613 H1625 0.930 . S
C1614 C1610 1.524 . S
C1614 H1626 0.956 . S
C1614 H1627 0.961 . S
C1614 H1628 0.961 . S
C1615 C1612 1.539 . S
C1615 H1629 0.958 . S
C1615 H1630 0.961 . S
C1615 H1631 0.960 . S
H1616 C1600 0.931 . S
H1617 C1605 0.929 . S
H1618 C1606 0.960 . S
H1619 C1606 0.962 . S
H1620 C1606 0.960 . S
H1621 C1607 0.961 . S
H1622 C1607 0.961 . S
H1623 C1607 0.961 . S
H1624 C1608 0.931 . S
H1625 C1613 0.930 . S
H1626 C1614 0.956 . S
H1627 C1614 0.961 . S
H1628 C1614 0.961 . S
H1629 C1615 0.958 . S
H1630 C1615 0.961 . S
H1631 C1615 0.960 . S
C1632 C1633 1.391 . S
C1632 C1634 1.394 . S
C1632 H1648 0.931 . S
C1633 C1632 1.391 . S
C1633 C1637 1.376 . S
C1634 C1632 1.394 . S
C1634 C1635 1.369 . S
C1634 C1638 1.531 . S
C1635 C1634 1.369 . S
C1635 C1636 1.410 1_556 S
C1635 C1643 1.503 1_556 S
C1636 C1635 1.410 1_554 S
C1636 C1637 1.392 1_554 S
C1636 C1639 1.511 . S
C1637 C1633 1.376 . S
C1637 C1636 1.392 1_556 S
C1637 H1649 0.929 1_556 S
C1638 C1634 1.531 . S
C1638 H1650 0.960 . S
C1638 H1651 0.962 . S
C1638 H1652 0.960 . S
C1639 C1636 1.511 . S
C1639 H1653 0.961 . S
C1639 H1654 0.961 . S
C1639 H1655 0.961 . S
C1640 C1641 1.370 . S
C1640 C1642 1.363 1_554 S
C1640 H1656 0.931 1_554 S
C1641 C1640 1.370 . S
C1641 C1645 1.408 . S
C1642 C1640 1.363 1_556 S
C1642 C1643 1.370 1_556 S
C1642 C1646 1.524 . S
C1643 C1635 1.503 1_554 S
C1643 C1642 1.370 1_554 S
C1643 C1644 1.403 . S
C1644 C1643 1.403 . S
C1644 C1645 1.404 . S
C1644 C1647 1.539 . S
C1645 C1641 1.408 . S
C1645 C1644 1.404 . S
C1645 H1657 0.930 . S
C1646 C1642 1.524 . S
C1646 H1658 0.956 . S
C1646 H1659 0.961 . S
C1646 H1660 0.961 . S
C1647 C1644 1.539 . S
C1647 H1661 0.958 . S
C1647 H1662 0.961 . S
C1647 H1663 0.960 . S
H1648 C1632 0.931 . S
H1649 C1637 0.929 1_554 S
H1650 C1638 0.960 . S
H1651 C1638 0.962 . S
H1652 C1638 0.960 . S
H1653 C1639 0.961 . S
H1654 C1639 0.961 . S
H1655 C1639 0.961 . S
H1656 C1640 0.931 1_556 S
H1657 C1645 0.930 . S
H1658 C1646 0.956 . S
H1659 C1646 0.961 . S
H1660 C1646 0.961 . S
H1661 C1647 0.958 . S
H1662 C1647 0.961 . S
H1663 C1647 0.960 . S
C1664 C1665 1.391 . S
C1664 C1666 1.394 . S
C1664 H1680 0.931 . S
C1665 C1664 1.391 . S
C1665 C1669 1.376 . S
C1666 C1664 1.394 . S
C1666 C1667 1.369 . S
C1666 C1670 1.531 . S
C1667 C1666 1.369 . S
C1667 C1668 1.410 1_554 S
C1667 C1675 1.503 1_554 S
C1668 C1667 1.410 1_556 S
C1668 C1669 1.392 1_556 S
C1668 C1671 1.511 . S
C1669 C1665 1.376 . S
C1669 C1668 1.392 1_554 S
C1669 H1681 0.929 1_554 S
C1670 C1666 1.531 . S
C1670 H1682 0.960 . S
C1670 H1683 0.962 . S
C1670 H1684 0.960 . S
C1671 C1668 1.511 . S
C1671 H1685 0.961 . S
C1671 H1686 0.961 . S
C1671 H1687 0.961 . S
C1672 C1673 1.370 . S
C1672 C1674 1.363 . S
C1672 H1688 0.931 . S
C1673 C1672 1.370 . S
C1673 C1677 1.408 . S
C1674 C1672 1.363 . S
C1674 C1675 1.370 . S
C1674 C1678 1.524 . S
C1675 C1667 1.503 1_556 S
C1675 C1674 1.370 . S
C1675 C1676 1.403 1_556 S
C1676 C1675 1.403 1_554 S
C1676 C1677 1.404 1_554 S
C1676 C1679 1.539 . S
C1677 C1673 1.408 . S
C1677 C1676 1.404 1_556 S
C1677 H1689 0.930 . S
C1678 C1674 1.524 . S
C1678 H1690 0.956 . S
C1678 H1691 0.961 . S
C1678 H1692 0.961 . S
C1679 C1676 1.539 . S
C1679 H1693 0.958 . S
C1679 H1694 0.961 . S
C1679 H1695 0.960 . S
H1680 C1664 0.931 . S
H1681 C1669 0.929 1_556 S
H1682 C1670 0.960 . S
H1683 C1670 0.962 . S
H1684 C1670 0.960 . S
H1685 C1671 0.961 . S
H1686 C1671 0.961 . S
H1687 C1671 0.961 . S
H1688 C1672 0.931 . S
H1689 C1677 0.930 . S
H1690 C1678 0.956 . S
H1691 C1678 0.961 . S
H1692 C1678 0.961 . S
H1693 C1679 0.958 . S
H1694 C1679 0.961 . S
H1695 C1679 0.960 . S
C1696 C1697 1.391 . S
C1696 C1698 1.394 . S
C1696 H1712 0.931 . S
C1697 C1696 1.391 . S
C1697 C1701 1.376 . S
C1698 C1696 1.394 . S
C1698 C1699 1.369 . S
C1698 C1702 1.531 1_554 S
C1699 C1698 1.369 . S
C1699 C1700 1.410 . S
C1699 C1707 1.503 1_554 S
C1700 C1699 1.410 . S
C1700 C1701 1.392 . S
C1700 C1703 1.511 . S
C1701 C1697 1.376 . S
C1701 C1700 1.392 . S
C1701 H1713 0.929 . S
C1702 C1698 1.531 1_556 S
C1702 H1714 0.960 . S
C1702 H1715 0.962 . S
C1702 H1716 0.960 . S
C1703 C1700 1.511 . S
C1703 H1717 0.961 . S
C1703 H1718 0.961 . S
C1703 H1719 0.961 . S
C1704 C1705 1.370 . S
C1704 C1706 1.363 . S
C1704 H1720 0.931 . S
C1705 C1704 1.370 . S
C1705 C1709 1.408 . S
C1706 C1704 1.363 . S
C1706 C1707 1.370 . S
C1706 C1710 1.524 . S
C1707 C1699 1.503 1_556 S
C1707 C1706 1.370 . S
C1707 C1708 1.403 1_556 S
C1708 C1707 1.403 1_554 S
C1708 C1709 1.404 1_554 S
C1708 C1711 1.539 . S
C1709 C1705 1.408 . S
C1709 C1708 1.404 1_556 S
C1709 H1721 0.930 1_556 S
C1710 C1706 1.524 . S
C1710 H1722 0.956 . S
C1710 H1723 0.961 . S
C1710 H1724 0.961 . S
C1711 C1708 1.539 . S
C1711 H1725 0.958 . S
C1711 H1726 0.961 . S
C1711 H1727 0.960 . S
H1712 C1696 0.931 . S
H1713 C1701 0.929 . S
H1714 C1702 0.960 . S
H1715 C1702 0.962 . S
H1716 C1702 0.960 . S
H1717 C1703 0.961 . S
H1718 C1703 0.961 . S
H1719 C1703 0.961 . S
H1720 C1704 0.931 . S
H1721 C1709 0.930 1_554 S
H1722 C1710 0.956 . S
H1723 C1710 0.961 . S
H1724 C1710 0.961 . S
H1725 C1711 0.958 . S
H1726 C1711 0.961 . S
H1727 C1711 0.960 . S
C1728 C1729 1.391 . S
C1728 C1730 1.394 . S
C1728 H1744 0.931 . S
C1729 C1728 1.391 . S
C1729 C1733 1.376 . S
C1730 C1728 1.394 . S
C1730 C1731 1.369 . S
C1730 C1734 1.531 . S
C1731 C1730 1.369 . S
C1731 C1732 1.410 . S
C1731 C1739 1.503 1_554 S
C1732 C1731 1.410 . S
C1732 C1733 1.392 . S
C1732 C1735 1.504 1_554 S
C1733 C1729 1.376 . S
C1733 C1732 1.392 . S
C1733 H1745 0.929 . S
C1734 C1730 1.531 . S
C1734 H1746 0.960 . S
C1734 H1747 0.962 . S
C1734 H1748 0.960 . S
C1735 C1732 1.504 1_556 S
C1735 H1749 0.969 . S
C1735 H1750 0.976 . S
C1735 H1751 0.945 1_556 S
C1736 C1737 1.370 . S
C1736 C1738 1.363 . S
C1736 H1752 0.931 . S
C1737 C1736 1.370 . S
C1737 C1741 1.408 1_556 S
C1738 C1736 1.363 . S
C1738 C1739 1.370 . S
C1738 C1742 1.524 . S
C1739 C1731 1.503 1_556 S
C1739 C1738 1.370 . S
C1739 C1740 1.403 1_556 S
C1740 C1739 1.403 1_554 S
C1740 C1741 1.404 . S
C1740 C1743 1.539 . S
C1741 C1737 1.408 1_554 S
C1741 C1740 1.404 . S
C1741 H1753 0.930 . S
C1742 C1738 1.524 . S
C1742 H1754 0.956 . S
C1742 H1755 0.961 . S
C1742 H1756 0.961 . S
C1743 C1740 1.539 . S
C1743 H1757 0.958 . S
C1743 H1758 0.961 . S
C1743 H1759 0.960 . S
H1744 C1728 0.931 . S
H1745 C1733 0.929 . S
H1746 C1734 0.960 . S
H1747 C1734 0.962 . S
H1748 C1734 0.960 . S
H1749 C1735 0.969 . S
H1750 C1735 0.976 . S
H1751 C1735 0.945 1_554 S
H1752 C1736 0.931 . S
H1753 C1741 0.930 . S
H1754 C1742 0.956 . S
H1755 C1742 0.961 . S
H1756 C1742 0.961 . S
H1757 C1743 0.958 . S
H1758 C1743 0.961 . S
H1759 C1743 0.960 . S
C1760 C1761 1.391 . S
C1760 C1762 1.394 . S
C1760 H1776 0.931 . S
C1761 C1760 1.391 . S
C1761 C1765 1.376 . S
C1762 C1760 1.394 . S
C1762 C1763 1.369 . S
C1762 C1766 1.531 . S
C1763 C1762 1.369 . S
C1763 C1764 1.410 . S
C1763 C1771 1.503 . S
C1764 C1763 1.410 . S
C1764 C1765 1.392 . S
C1764 C1767 1.511 . S
C1765 C1761 1.376 . S
C1765 C1764 1.392 . S
C1765 H1777 0.929 . S
C1766 C1762 1.531 . S
C1766 H1778 0.960 . S
C1766 H1779 0.962 . S
C1766 H1780 0.960 . S
C1767 C1764 1.511 . S
C1767 H1781 0.961 . S
C1767 H1782 0.961 . S
C1767 H1783 0.961 . S
C1768 C1769 1.370 . S
C1768 C1770 1.363 . S
C1768 H1784 0.931 . S
C1769 C1768 1.370 . S
C1769 C1773 1.408 . S
C1770 C1768 1.363 . S
C1770 C1771 1.370 . S
C1770 C1774 1.524 . S
C1771 C1763 1.503 . S
C1771 C1770 1.370 . S
C1771 C1772 1.403 . S
C1772 C1771 1.403 . S
C1772 C1773 1.404 . S
C1772 C1775 1.539 . S
C1773 C1769 1.408 . S
C1773 C1772 1.404 . S
C1773 H1785 0.930 . S
C1774 C1770 1.524 . S
C1774 H1786 0.956 . S
C1774 H1787 0.961 . S
C1774 H1788 0.961 . S
C1775 C1772 1.539 . S
C1775 H1789 0.958 . S
C1775 H1790 0.961 . S
C1775 H1791 0.960 . S
H1776 C1760 0.931 . S
H1777 C1765 0.929 . S
H1778 C1766 0.960 . S
H1779 C1766 0.962 . S
H1780 C1766 0.960 . S
H1781 C1767 0.961 . S
H1782 C1767 0.961 . S
H1783 C1767 0.961 . S
H1784 C1768 0.931 . S
H1785 C1773 0.930 . S
H1786 C1774 0.956 . S
H1787 C1774 0.961 . S
H1788 C1774 0.961 . S
H1789 C1775 0.958 . S
H1790 C1775 0.961 . S
H1791 C1775 0.960 . S
C1792 C1793 1.391 . S
C1792 C1794 1.394 . S
C1792 H1808 0.931 . S
C1793 C1792 1.391 . S
C1793 C1797 1.376 . S
C1794 C1792 1.394 . S
C1794 C1795 1.369 . S
C1794 C1798 1.531 . S
C1795 C1794 1.369 . S
C1795 C1796 1.410 . S
C1795 C1803 1.503 . S
C1796 C1795 1.410 . S
C1796 C1797 1.392 . S
C1796 C1799 1.511 . S
C1797 C1793 1.376 . S
C1797 C1796 1.392 . S
C1797 H1809 0.929 . S
C1798 C1794 1.531 . S
C1798 H1810 0.960 . S
C1798 H1811 0.962 . S
C1798 H1812 0.960 . S
C1799 C1796 1.511 . S
C1799 H1813 0.961 . S
C1799 H1814 0.961 . S
C1799 H1815 0.961 . S
C1800 C1801 1.370 . S
C1800 C1802 1.363 . S
C1800 H1816 0.931 . S
C1801 C1800 1.370 . S
C1801 C1805 1.408 . S
C1802 C1800 1.363 . S
C1802 C1803 1.370 . S
C1802 C1806 1.524 . S
C1803 C1795 1.503 . S
C1803 C1802 1.370 . S
C1803 C1804 1.403 . S
C1804 C1803 1.403 . S
C1804 C1805 1.404 . S
C1804 C1807 1.539 . S
C1805 C1801 1.408 . S
C1805 C1804 1.404 . S
C1805 H1817 0.930 . S
C1806 C1802 1.524 . S
C1806 H1818 0.956 . S
C1806 H1819 0.961 . S
C1806 H1820 0.961 . S
C1807 C1804 1.539 . S
C1807 H1821 0.958 . S
C1807 H1822 0.961 . S
C1807 H1823 0.960 . S
H1808 C1792 0.931 . S
H1809 C1797 0.929 . S
H1810 C1798 0.960 . S
H1811 C1798 0.962 . S
H1812 C1798 0.960 . S
H1813 C1799 0.961 . S
H1814 C1799 0.961 . S
H1815 C1799 0.961 . S
H1816 C1800 0.931 . S
H1817 C1805 0.930 . S
H1818 C1806 0.956 . S
H1819 C1806 0.961 . S
H1820 C1806 0.961 . S
H1821 C1807 0.958 . S
H1822 C1807 0.961 . S
H1823 C1807 0.960 . S
C1824 C1825 1.391 . S
C1824 C1826 1.394 . S
C1824 H1840 0.931 . S
C1825 C1824 1.391 . S
C1825 C1829 1.376 . S
C1826 C1824 1.394 . S
C1826 C1827 1.369 . S
C1826 C1830 1.531 . S
C1827 C1826 1.369 . S
C1827 C1828 1.410 . S
C1827 C1835 1.503 . S
C1828 C1827 1.410 . S
C1828 C1829 1.392 . S
C1828 C1831 1.511 . S
C1829 C1825 1.376 . S
C1829 C1828 1.392 . S
C1829 H1841 0.929 . S
C1830 C1826 1.531 . S
C1830 H1842 0.960 . S
C1830 H1843 0.962 . S
C1830 H1844 0.960 . S
C1831 C1828 1.511 . S
C1831 H1845 0.961 . S
C1831 H1846 0.961 . S
C1831 H1847 0.961 . S
C1832 C1833 1.370 . S
C1832 C1834 1.363 . S
C1832 H1848 0.931 . S
C1833 C1832 1.370 . S
C1833 C1837 1.408 . S
C1834 C1832 1.363 . S
C1834 C1835 1.370 . S
C1834 C1838 1.524 . S
C1835 C1827 1.503 . S
C1835 C1834 1.370 . S
C1835 C1836 1.403 . S
C1836 C1835 1.403 . S
C1836 C1837 1.404 . S
C1836 C1839 1.539 . S
C1837 C1833 1.408 . S
C1837 C1836 1.404 . S
C1837 H1849 0.930 . S
C1838 C1834 1.524 . S
C1838 H1850 0.956 . S
C1838 H1851 0.961 . S
C1838 H1852 0.961 . S
C1839 C1836 1.539 . S
C1839 H1853 0.958 . S
C1839 H1854 0.961 . S
C1839 H1855 0.960 . S
H1840 C1824 0.931 . S
H1841 C1829 0.929 . S
H1842 C1830 0.960 . S
H1843 C1830 0.962 . S
H1844 C1830 0.960 . S
H1845 C1831 0.961 . S
H1846 C1831 0.961 . S
H1847 C1831 0.961 . S
H1848 C1832 0.931 . S
H1849 C1837 0.930 . S
H1850 C1838 0.956 . S
H1851 C1838 0.961 . S
H1852 C1838 0.961 . S
H1853 C1839 0.958 . S
H1854 C1839 0.961 . S
H1855 C1839 0.960 . S
C1856 C1857 1.391 . S
C1856 C1858 1.394 . S
C1856 H1872 0.931 . S
C1857 C1856 1.391 . S
C1857 C1861 1.376 . S
C1858 C1856 1.394 . S
C1858 C1859 1.369 . S
C1858 C1862 1.531 . S
C1859 C1858 1.369 . S
C1859 C1860 1.410 . S
C1859 C1867 1.503 . S
C1860 C1859 1.410 . S
C1860 C1861 1.392 . S
C1860 C1863 1.511 . S
C1861 C1857 1.376 . S
C1861 C1860 1.392 . S
C1861 H1873 0.929 . S
C1862 C1858 1.531 . S
C1862 H1874 0.960 . S
C1862 H1875 0.962 . S
C1862 H1876 0.960 . S
C1863 C1860 1.511 . S
C1863 H1877 0.961 . S
C1863 H1878 0.961 . S
C1863 H1879 0.961 . S
C1864 C1865 1.370 . S
C1864 C1866 1.363 . S
C1864 H1880 0.931 . S
C1865 C1864 1.370 . S
C1865 C1869 1.408 . S
C1866 C1864 1.363 . S
C1866 C1867 1.370 . S
C1866 C1870 1.524 . S
C1867 C1859 1.503 . S
C1867 C1866 1.370 . S
C1867 C1868 1.403 . S
C1868 C1867 1.403 . S
C1868 C1869 1.404 . S
C1868 C1871 1.539 . S
C1869 C1865 1.408 . S
C1869 C1868 1.404 . S
C1869 H1881 0.930 . S
C1870 C1866 1.524 . S
C1870 H1882 0.956 . S
C1870 H1883 0.961 . S
C1870 H1884 0.961 . S
C1871 C1868 1.539 . S
C1871 H1885 0.958 . S
C1871 H1886 0.961 . S
C1871 H1887 0.960 . S
H1872 C1856 0.931 . S
H1873 C1861 0.929 . S
H1874 C1862 0.960 . S
H1875 C1862 0.962 . S
H1876 C1862 0.960 . S
H1877 C1863 0.961 . S
H1878 C1863 0.961 . S
H1879 C1863 0.961 . S
H1880 C1864 0.931 . S
H1881 C1869 0.930 . S
H1882 C1870 0.956 . S
H1883 C1870 0.961 . S
H1884 C1870 0.961 . S
H1885 C1871 0.958 . S
H1886 C1871 0.961 . S
H1887 C1871 0.960 . S
C353 C8 1.168 . S
C361 C118 1.191 . S
C385 C32 1.207 . S
C393 C140 1.208 . S
C417 C162 1.216 . S
C425 C62 1.215 . S
C449 C96 1.169 . S
C457 C74 1.191 . S
C481 C294 1.234 . S
C489 C186 1.217 . S
C513 C208 1.180 . S
C521 C316 1.194 . S
C545 C340 1.188 . S
C553 C230 1.193 . S
C577 C272 1.218 . S
C585 C252 1.213 . S
C609 C7 1.506 . S
C617 C37 1.437 . S
C641 C51 1.475 . S
C649 C43 1.494 . S
C673 C87 1.476 . S
C681 C59 1.493 . S
C705 C73 1.496 . S
C713 C21 1.447 . S
C737 C95 1.498 . S
C745 C175 1.441 . S
C769 C109 1.455 . S
C777 C117 1.498 . S
C801 C131 1.470 . S
C809 C139 1.495 . S
C833 C153 1.407 . S
C841 C161 1.505 . S
C865 C197 1.493 . S
C873 C213 1.451 . S
C897 C235 1.409 . S
C905 C219 1.505 . S
C929 C241 1.508 . S
C937 C257 1.431 . S
C961 C263 1.484 . S
C969 C191 1.457 . S
C993 C345 1.454 . S
C1001 C271 1.498 . S
C1025 C285 1.476 . S
C1033 C293 1.493 . S
C1057 C307 1.419 . S
C1065 C315 1.503 . S
C1089 C351 1.499 . S
C1097 C329 1.439 . S
C1121 C150 1.296 . S
C1129 C15 1.329 . S
C1153 C172 1.289 . S
C1161 C29 1.326 . S
C1185 C65 1.299 . S
C1193 C106 1.314 . S
C1217 C81 1.339 . S
C1225 C128 1.318 . S
C1249 C54 1.316 . S
C1257 C103 1.331 . S
C1281 C125 1.312 . S
C1289 C84 1.327 . S
C1313 C147 1.308 . S
C1321 C18 1.327 . S
C1345 C30 1.290 . S
C1353 C169 1.325 . S
C1377 C183 1.330 . S
C1385 C326 1.326 . S
C1409 C205 1.317 . S
C1417 C338 1.308 . S
C1441 C282 1.335 . S
C1449 C227 1.318 . S
C1473 C249 1.323 . S
C1481 C304 1.307 . S
C1505 C279 1.298 . S
C1513 C228 1.321 . S
C1537 C301 1.330 . S
C1545 C250 1.308 . S
C1569 C323 1.331 . S
C1577 C184 1.324 . S
C1601 C206 1.333 . S
C1609 C337 1.329 . S
C1633 C348 1.391 . S
C1641 C10 1.411 . S
C1665 C274 1.384 . S
C1673 C40 1.385 . S
C1697 C52 1.401 . S
C1705 C296 1.384 . S
C1729 C318 1.411 . S
C1737 C76 1.384 . S
C1761 C98 1.377 . S
C1769 C216 1.411 . S
C1793 C120 1.428 . S
C1801 C238 1.398 . S
C1825 C260 1.360 . S
C1833 C142 1.399 . S
C1857 C164 1.427 . S
C1865 C194 1.403 . S
